# Generated by pormake.
# Topology vbb, (4)-cn, num edge types: 1
# Building blocks:
#     Node 0, Type 0, BuildingBlock: KOZSID_clean_sbu_0, # of connection points: 4
#     Node 1, Type 0, BuildingBlock: KOZSID_clean_sbu_0, # of connection points: 4
#     Node 2, Type 0, BuildingBlock: KOZSID_clean_sbu_0, # of connection points: 4
#     Node 3, Type 0, BuildingBlock: KOZSID_clean_sbu_0, # of connection points: 4
#     Node 4, Type 0, BuildingBlock: KOZSID_clean_sbu_0, # of connection points: 4
#     Node 5, Type 0, BuildingBlock: KOZSID_clean_sbu_0, # of connection points: 4
#     Node 6, Type 0, BuildingBlock: KOZSID_clean_sbu_0, # of connection points: 4
#     Node 7, Type 0, BuildingBlock: KOZSID_clean_sbu_0, # of connection points: 4
#     Node 8, Type 0, BuildingBlock: KOZSID_clean_sbu_0, # of connection points: 4
#     Node 9, Type 0, BuildingBlock: KOZSID_clean_sbu_0, # of connection points: 4
#     Node 10, Type 0, BuildingBlock: KOZSID_clean_sbu_0, # of connection points: 4
#     Node 11, Type 0, BuildingBlock: KOZSID_clean_sbu_0, # of connection points: 4
#     Node 12, Type 0, BuildingBlock: KOZSID_clean_sbu_0, # of connection points: 4
#     Node 13, Type 0, BuildingBlock: KOZSID_clean_sbu_0, # of connection points: 4
#     Node 14, Type 0, BuildingBlock: KOZSID_clean_sbu_0, # of connection points: 4
#     Node 15, Type 0, BuildingBlock: KOZSID_clean_sbu_0, # of connection points: 4
#     Node 16, Type 0, BuildingBlock: KOZSID_clean_sbu_0, # of connection points: 4
#     Node 17, Type 0, BuildingBlock: KOZSID_clean_sbu_0, # of connection points: 4
#     Node 18, Type 0, BuildingBlock: KOZSID_clean_sbu_0, # of connection points: 4
#     Node 19, Type 0, BuildingBlock: KOZSID_clean_sbu_0, # of connection points: 4
#     Node 20, Type 0, BuildingBlock: KOZSID_clean_sbu_0, # of connection points: 4
#     Node 21, Type 0, BuildingBlock: KOZSID_clean_sbu_0, # of connection points: 4
#     Node 22, Type 0, BuildingBlock: KOZSID_clean_sbu_0, # of connection points: 4
#     Node 23, Type 0, BuildingBlock: KOZSID_clean_sbu_0, # of connection points: 4
#     Node 24, Type 0, BuildingBlock: KOZSID_clean_sbu_0, # of connection points: 4
#     Node 25, Type 0, BuildingBlock: KOZSID_clean_sbu_0, # of connection points: 4
#     Node 26, Type 0, BuildingBlock: KOZSID_clean_sbu_0, # of connection points: 4
#     Node 27, Type 0, BuildingBlock: KOZSID_clean_sbu_0, # of connection points: 4
#     Node 28, Type 0, BuildingBlock: KOZSID_clean_sbu_0, # of connection points: 4
#     Node 29, Type 0, BuildingBlock: KOZSID_clean_sbu_0, # of connection points: 4
#     Node 30, Type 0, BuildingBlock: KOZSID_clean_sbu_0, # of connection points: 4
#     Node 31, Type 0, BuildingBlock: KOZSID_clean_sbu_0, # of connection points: 4
#     Edge 32, Type (0, 0), BuildingBlock: OJICUG_clean_linker_0, # of connection points: 2
#     Edge 33, Type (0, 0), BuildingBlock: OJICUG_clean_linker_0, # of connection points: 2
#     Edge 34, Type (0, 0), BuildingBlock: OJICUG_clean_linker_0, # of connection points: 2
#     Edge 35, Type (0, 0), BuildingBlock: OJICUG_clean_linker_0, # of connection points: 2
#     Edge 36, Type (0, 0), BuildingBlock: OJICUG_clean_linker_0, # of connection points: 2
#     Edge 37, Type (0, 0), BuildingBlock: OJICUG_clean_linker_0, # of connection points: 2
#     Edge 38, Type (0, 0), BuildingBlock: OJICUG_clean_linker_0, # of connection points: 2
#     Edge 39, Type (0, 0), BuildingBlock: OJICUG_clean_linker_0, # of connection points: 2
#     Edge 40, Type (0, 0), BuildingBlock: OJICUG_clean_linker_0, # of connection points: 2
#     Edge 41, Type (0, 0), BuildingBlock: OJICUG_clean_linker_0, # of connection points: 2
#     Edge 42, Type (0, 0), BuildingBlock: OJICUG_clean_linker_0, # of connection points: 2
#     Edge 43, Type (0, 0), BuildingBlock: OJICUG_clean_linker_0, # of connection points: 2
#     Edge 44, Type (0, 0), BuildingBlock: OJICUG_clean_linker_0, # of connection points: 2
#     Edge 45, Type (0, 0), BuildingBlock: OJICUG_clean_linker_0, # of connection points: 2
#     Edge 46, Type (0, 0), BuildingBlock: OJICUG_clean_linker_0, # of connection points: 2
#     Edge 47, Type (0, 0), BuildingBlock: OJICUG_clean_linker_0, # of connection points: 2
#     Edge 48, Type (0, 0), BuildingBlock: OJICUG_clean_linker_0, # of connection points: 2
#     Edge 49, Type (0, 0), BuildingBlock: OJICUG_clean_linker_0, # of connection points: 2
#     Edge 50, Type (0, 0), BuildingBlock: OJICUG_clean_linker_0, # of connection points: 2
#     Edge 51, Type (0, 0), BuildingBlock: OJICUG_clean_linker_0, # of connection points: 2
#     Edge 52, Type (0, 0), BuildingBlock: OJICUG_clean_linker_0, # of connection points: 2
#     Edge 53, Type (0, 0), BuildingBlock: OJICUG_clean_linker_0, # of connection points: 2
#     Edge 54, Type (0, 0), BuildingBlock: OJICUG_clean_linker_0, # of connection points: 2
#     Edge 55, Type (0, 0), BuildingBlock: OJICUG_clean_linker_0, # of connection points: 2
#     Edge 56, Type (0, 0), BuildingBlock: OJICUG_clean_linker_0, # of connection points: 2
#     Edge 57, Type (0, 0), BuildingBlock: OJICUG_clean_linker_0, # of connection points: 2
#     Edge 58, Type (0, 0), BuildingBlock: OJICUG_clean_linker_0, # of connection points: 2
#     Edge 59, Type (0, 0), BuildingBlock: OJICUG_clean_linker_0, # of connection points: 2
#     Edge 60, Type (0, 0), BuildingBlock: OJICUG_clean_linker_0, # of connection points: 2
#     Edge 61, Type (0, 0), BuildingBlock: OJICUG_clean_linker_0, # of connection points: 2
#     Edge 62, Type (0, 0), BuildingBlock: OJICUG_clean_linker_0, # of connection points: 2
#     Edge 63, Type (0, 0), BuildingBlock: OJICUG_clean_linker_0, # of connection points: 2
#     Edge 64, Type (0, 0), BuildingBlock: OJICUG_clean_linker_0, # of connection points: 2
#     Edge 65, Type (0, 0), BuildingBlock: OJICUG_clean_linker_0, # of connection points: 2
#     Edge 66, Type (0, 0), BuildingBlock: OJICUG_clean_linker_0, # of connection points: 2
#     Edge 67, Type (0, 0), BuildingBlock: OJICUG_clean_linker_0, # of connection points: 2
#     Edge 68, Type (0, 0), BuildingBlock: OJICUG_clean_linker_0, # of connection points: 2
#     Edge 69, Type (0, 0), BuildingBlock: OJICUG_clean_linker_0, # of connection points: 2
#     Edge 70, Type (0, 0), BuildingBlock: OJICUG_clean_linker_0, # of connection points: 2
#     Edge 71, Type (0, 0), BuildingBlock: OJICUG_clean_linker_0, # of connection points: 2
#     Edge 72, Type (0, 0), BuildingBlock: OJICUG_clean_linker_0, # of connection points: 2
#     Edge 73, Type (0, 0), BuildingBlock: OJICUG_clean_linker_0, # of connection points: 2
#     Edge 74, Type (0, 0), BuildingBlock: OJICUG_clean_linker_0, # of connection points: 2
#     Edge 75, Type (0, 0), BuildingBlock: OJICUG_clean_linker_0, # of connection points: 2
#     Edge 76, Type (0, 0), BuildingBlock: OJICUG_clean_linker_0, # of connection points: 2
#     Edge 77, Type (0, 0), BuildingBlock: OJICUG_clean_linker_0, # of connection points: 2
#     Edge 78, Type (0, 0), BuildingBlock: OJICUG_clean_linker_0, # of connection points: 2
#     Edge 79, Type (0, 0), BuildingBlock: OJICUG_clean_linker_0, # of connection points: 2
#     Edge 80, Type (0, 0), BuildingBlock: OJICUG_clean_linker_0, # of connection points: 2
#     Edge 81, Type (0, 0), BuildingBlock: OJICUG_clean_linker_0, # of connection points: 2
#     Edge 82, Type (0, 0), BuildingBlock: OJICUG_clean_linker_0, # of connection points: 2
#     Edge 83, Type (0, 0), BuildingBlock: OJICUG_clean_linker_0, # of connection points: 2
#     Edge 84, Type (0, 0), BuildingBlock: OJICUG_clean_linker_0, # of connection points: 2
#     Edge 85, Type (0, 0), BuildingBlock: OJICUG_clean_linker_0, # of connection points: 2
#     Edge 86, Type (0, 0), BuildingBlock: OJICUG_clean_linker_0, # of connection points: 2
#     Edge 87, Type (0, 0), BuildingBlock: OJICUG_clean_linker_0, # of connection points: 2
#     Edge 88, Type (0, 0), BuildingBlock: OJICUG_clean_linker_0, # of connection points: 2
#     Edge 89, Type (0, 0), BuildingBlock: OJICUG_clean_linker_0, # of connection points: 2
#     Edge 90, Type (0, 0), BuildingBlock: OJICUG_clean_linker_0, # of connection points: 2
#     Edge 91, Type (0, 0), BuildingBlock: OJICUG_clean_linker_0, # of connection points: 2
#     Edge 92, Type (0, 0), BuildingBlock: OJICUG_clean_linker_0, # of connection points: 2
#     Edge 93, Type (0, 0), BuildingBlock: OJICUG_clean_linker_0, # of connection points: 2
#     Edge 94, Type (0, 0), BuildingBlock: OJICUG_clean_linker_0, # of connection points: 2
#     Edge 95, Type (0, 0), BuildingBlock: OJICUG_clean_linker_0, # of connection points: 2
# Relax obj value: 0.043
# Max RMSD: 0.157
# Mean RMSD: 0.155
data_MOF--net-vbb--node1-KOZSID_clean_sbu_0--edge1-OJICUG_clean_linker_0
_symmetry_space_group_name_H-M    P1
_symmetry_Int_Tables_number       1
_symmetry_cell_setting            triclinic
loop_
_symmetry_equiv_pos_as_xyz
'x, y, z'
_cell_length_a     51.817772
_cell_length_b     31.996311
_cell_length_c     94.845347
_cell_angle_alpha  89.745084
_cell_angle_beta   90.005388
_cell_angle_gamma 90.017181
loop_
_atom_site_label
_atom_site_type_symbol
_atom_site_fract_x
_atom_site_fract_y
_atom_site_fract_z
_atom_type_partial_charge
C0 C 0.50367 0.11035 0.08341 0.0
C1 C 0.4921 0.14929 0.08506 0.0
C2 C 0.47787 0.15664 0.07321 0.0
C3 C 0.48206 0.12266 0.0648 0.0
N4 N 0.49816 0.09431 0.07059 0.0
Co5 Co 0.5127 0.04436 0.06117 0.0
N6 N 0.5041 0.06765 0.04232 0.0
C7 C 0.48689 0.09822 0.03961 0.0
C8 C 0.4846 0.10768 0.02558 0.0
C9 C 0.50115 0.08106 0.01896 0.0
C10 C 0.51263 0.05661 0.02942 0.0
N11 N 0.527 0.99459 0.05166 0.0
C12 C 0.53254 0.98851 0.03783 0.0
C13 C 0.54091 0.94788 0.0356 0.0
C14 C 0.54018 0.92792 0.04847 0.0
C15 C 0.53145 0.95735 0.05785 0.0
N16 N 0.52108 0.02246 0.08022 0.0
C17 C 0.52595 0.98225 0.08344 0.0
C18 C 0.53109 0.97654 0.09754 0.0
C19 C 0.52924 0.01561 0.10349 0.0
C20 C 0.52316 0.04317 0.09266 0.0
N21 N 0.4787 0.01479 0.06186 0.0
C22 C 0.44009 0.95111 0.06339 0.0
C23 C 0.44754 0.97417 0.07539 0.0
C24 C 0.46646 0.00608 0.07436 0.0
C25 C 0.45088 0.96401 0.05048 0.0
C26 C 0.46993 0.99519 0.04995 0.0
N27 N 0.54749 0.07059 0.06037 0.0
C28 C 0.59348 0.06245 0.0642 0.0
C29 C 0.599 0.10152 0.05814 0.0
C30 C 0.57753 0.12521 0.05345 0.0
C31 C 0.55206 0.10939 0.05476 0.0
C32 C 0.56814 0.04759 0.065 0.0
H33 H 0.53615 0.12823 0.05102 0.0
H34 H 0.5655 0.01678 0.06929 0.0
H35 H 0.47224 0.02189 0.08389 0.0
H36 H 0.47865 1.00122 0.03986 0.0
C37 C 0.47656 0.12186 0.05047 0.0
C38 C 0.51779 0.08814 0.09462 0.0
C39 C 0.52818 0.01946 0.02652 0.0
C40 C 0.52995 0.95299 0.07261 0.0
H41 H 0.49384 0.17064 0.09381 0.0
H42 H 0.46731 0.18484 0.07062 0.0
H43 H 0.47284 0.13177 0.02076 0.0
H44 H 0.50374 0.07915 0.00767 0.0
H45 H 0.54656 0.93401 0.02569 0.0
H46 H 0.54578 0.89601 0.05074 0.0
H47 H 0.53658 0.94779 0.10279 0.0
H48 H 0.53204 0.02298 0.11451 0.0
H49 H 0.43979 0.96656 0.08567 0.0
H50 H 0.44527 0.94936 0.04068 0.0
H51 H 0.6086 0.04287 0.06849 0.0
H52 H 0.58021 0.1555 0.04857 0.0
C53 C 0.80234 0.15054 0.08327 0.0
C54 C 0.81387 0.11151 0.08489 0.0
C55 C 0.82849 0.10487 0.07315 0.0
C56 C 0.82454 0.13932 0.06482 0.0
N57 N 0.80822 0.16728 0.07056 0.0
Co58 Co 0.79381 0.21756 0.06117 0.0
N59 N 0.80275 0.19508 0.04234 0.0
C60 C 0.82025 0.16501 0.03966 0.0
C61 C 0.82287 0.1563 0.02562 0.0
C62 C 0.80621 0.18289 0.01898 0.0
C63 C 0.79432 0.20653 0.02944 0.0
N64 N 0.77961 0.26764 0.05167 0.0
C65 C 0.77395 0.27397 0.03786 0.0
C66 C 0.76549 0.31461 0.03563 0.0
C67 C 0.76628 0.33427 0.0485 0.0
C68 C 0.77513 0.30467 0.05787 0.0
N69 N 0.78515 0.23867 0.0802 0.0
C70 C 0.7803 0.27876 0.08346 0.0
C71 C 0.77486 0.28382 0.09755 0.0
C72 C 0.77649 0.24445 0.10342 0.0
C73 C 0.78273 0.21735 0.09256 0.0
N74 N 0.8278 0.24709 0.06206 0.0
C75 C 0.86759 0.30846 0.06383 0.0
C76 C 0.85941 0.28579 0.07579 0.0
C77 C 0.83998 0.2548 0.07464 0.0
C78 C 0.85641 0.29751 0.05089 0.0
C79 C 0.83674 0.26734 0.05024 0.0
N80 N 0.75904 0.19135 0.06019 0.0
C81 C 0.71303 0.19931 0.06399 0.0
C82 C 0.70757 0.1603 0.05799 0.0
C83 C 0.72906 0.13675 0.05333 0.0
C84 C 0.75452 0.15264 0.05461 0.0
C85 C 0.73835 0.21423 0.06476 0.0
H86 H 0.77047 0.13392 0.05091 0.0
H87 H 0.74095 0.24497 0.06903 0.0
H88 H 0.83395 0.2386 0.0841 0.0
H89 H 0.82776 0.26257 0.04016 0.0
C90 C 0.83045 0.14093 0.05053 0.0
C91 C 0.7879 0.1722 0.09442 0.0
C92 C 0.77821 0.24314 0.02658 0.0
C93 C 0.77647 0.30849 0.07266 0.0
H94 H 0.81187 0.08964 0.09354 0.0
H95 H 0.83915 0.07683 0.07056 0.0
H96 H 0.83489 0.13266 0.02081 0.0
H97 H 0.80377 0.18526 0.00768 0.0
H98 H 0.7597 0.32866 0.02572 0.0
H99 H 0.76055 0.36606 0.05078 0.0
H100 H 0.76929 0.31234 0.10283 0.0
H101 H 0.77341 0.23656 0.1144 0.0
H102 H 0.86776 0.29222 0.08602 0.0
H103 H 0.86184 0.31378 0.0413 0.0
H104 H 0.6979 0.21878 0.06825 0.0
H105 H 0.72641 0.1065 0.0485 0.0
C106 C 0.5025 0.15168 0.15962 0.0
C107 C 0.49014 0.11343 0.15781 0.0
C108 C 0.47613 0.10606 0.16974 0.0
C109 C 0.48119 0.13934 0.17834 0.0
N110 N 0.4976 0.16725 0.17257 0.0
Co111 Co 0.51309 0.21623 0.18211 0.0
N112 N 0.50511 0.19211 0.2009 0.0
C113 C 0.48769 0.16187 0.20364 0.0
C114 C 0.48598 0.15161 0.21763 0.0
C115 C 0.50314 0.17737 0.22419 0.0
C116 C 0.51437 0.20218 0.21374 0.0
N117 N 0.52821 0.26524 0.19175 0.0
C118 C 0.53456 0.27035 0.20551 0.0
C119 C 0.5433 0.31072 0.20788 0.0
C120 C 0.54197 0.33149 0.19517 0.0
C121 C 0.53251 0.30279 0.18574 0.0
N122 N 0.52097 0.23887 0.16314 0.0
C123 C 0.5261 0.27908 0.16008 0.0
C124 C 0.53103 0.2852 0.14597 0.0
C125 C 0.52881 0.24637 0.13987 0.0
C126 C 0.52273 0.21854 0.15062 0.0
N127 N 0.47938 0.24641 0.18204 0.0
C128 C 0.43983 0.30907 0.1814 0.0
C129 C 0.4459 0.28464 0.16941 0.0
C130 C 0.46562 0.25383 0.16994 0.0
C131 C 0.45333 0.29857 0.19383 0.0
C132 C 0.47218 0.26722 0.19398 0.0
N133 N 0.54758 0.1892 0.1823 0.0
C134 C 0.59383 0.19799 0.1799 0.0
C135 C 0.59836 0.15647 0.18375 0.0
C136 C 0.57667 0.13114 0.18661 0.0
C137 C 0.55147 0.14824 0.186 0.0
C138 C 0.56863 0.21338 0.17906 0.0
H139 H 0.53519 0.12855 0.1886 0.0
H140 H 0.56636 0.2454 0.17585 0.0
H141 H 0.47045 0.2373 0.16039 0.0
H142 H 0.4822 0.26213 0.20377 0.0
C143 C 0.47642 0.13939 0.19276 0.0
C144 C 0.51708 0.17369 0.14854 0.0
C145 C 0.53034 0.23891 0.2167 0.0
C146 C 0.53056 0.30785 0.17101 0.0
H147 H 0.4913 0.09242 0.14894 0.0
H148 H 0.46522 0.07816 0.17227 0.0
H149 H 0.47415 0.12761 0.22245 0.0
H150 H 0.50625 0.17854 0.23546 0.0
H151 H 0.54957 0.32391 0.21779 0.0
H152 H 0.54772 0.36341 0.19302 0.0
H153 H 0.53665 0.31403 0.14081 0.0
H154 H 0.53139 0.23931 0.12881 0.0
H155 H 0.43602 0.28947 0.15951 0.0
H156 H 0.45063 0.31532 0.20355 0.0
H157 H 0.60977 0.21858 0.17734 0.0
H158 H 0.5792 0.09868 0.18956 0.0
C159 C 0.80087 0.10923 0.15929 0.0
C160 C 0.81193 0.14842 0.15716 0.0
C161 C 0.82634 0.15699 0.16883 0.0
C162 C 0.82277 0.1234 0.1776 0.0
N163 N 0.80691 0.09414 0.17221 0.0
Co164 Co 0.7934 0.04412 0.18219 0.0
N165 N 0.80203 0.06887 0.20076 0.0
C166 C 0.81865 0.1005 0.20306 0.0
C167 C 0.82108 0.11083 0.21699 0.0
C168 C 0.80527 0.08366 0.22397 0.0
C169 C 0.79406 0.05805 0.21382 0.0
N170 N 0.78053 0.99401 0.1923 0.0
C171 C 0.7756 0.98829 0.20622 0.0
C172 C 0.76827 0.94729 0.20889 0.0
C173 C 0.76906 0.92672 0.19619 0.0
C174 C 0.77679 0.95618 0.18648 0.0
N175 N 0.78455 0.02097 0.16345 0.0
C176 C 0.78 0.98049 0.16064 0.0
C177 C 0.77438 0.97393 0.14665 0.0
C178 C 0.77555 0.01274 0.14035 0.0
C179 C 0.78176 0.041 0.15086 0.0
N180 N 0.82783 0.01606 0.18141 0.0
C181 C 0.86647 0.95261 0.17998 0.0
C182 C 0.85837 0.97475 0.16785 0.0
C183 C 0.83945 0.00659 0.16882 0.0
C184 C 0.85648 0.96654 0.19292 0.0
C185 C 0.83741 0.99766 0.1934 0.0
N186 N 0.75825 0.06881 0.18299 0.0
C187 C 0.71221 0.0571 0.18091 0.0
C188 C 0.70653 0.09911 0.18371 0.0
C189 C 0.72787 0.12565 0.18633 0.0
C190 C 0.75345 0.10988 0.18602 0.0
C191 C 0.73771 0.04304 0.18039 0.0
H192 H 0.7693 0.13087 0.18815 0.0
H193 H 0.74059 0.01071 0.17786 0.0
H194 H 0.83308 0.02158 0.15921 0.0
H195 H 0.82924 1.00445 0.20355 0.0
C196 C 0.82847 0.12381 0.19191 0.0
C197 C 0.78672 0.08597 0.14842 0.0
C198 C 0.77947 0.02014 0.2172 0.0
C199 C 0.77738 0.95139 0.17172 0.0
H200 H 0.80974 0.16912 0.1482 0.0
H201 H 0.83658 0.1857 0.17106 0.0
H202 H 0.83252 0.13572 0.2215 0.0
H203 H 0.80304 0.08214 0.2353 0.0
H204 H 0.76319 0.93361 0.21897 0.0
H205 H 0.764 0.89444 0.19424 0.0
H206 H 0.76917 0.94471 0.14169 0.0
H207 H 0.77231 0.01948 0.1293 0.0
H208 H 0.86555 0.96635 0.15754 0.0
H209 H 0.86267 0.95262 0.20278 0.0
H210 H 0.69709 0.03437 0.17925 0.0
H211 H 0.72503 0.15852 0.18844 0.0
C212 C 0.53215 0.96759 0.90073 0.0
C213 C 0.526 0.99535 0.88997 0.0
C214 C 0.52425 0.03432 0.896 0.0
C215 C 0.52952 0.02835 0.91007 0.0
N216 N 0.53439 0.98808 0.9132 0.0
Co217 Co 0.54291 0.96581 0.93218 0.0
N218 N 0.52875 0.01545 0.94183 0.0
C219 C 0.5243 0.05282 0.93573 0.0
C220 C 0.51571 0.08211 0.94518 0.0
C221 C 0.51507 0.06193 0.95802 0.0
C222 C 0.52336 0.02131 0.95568 0.0
N223 N 0.55167 0.94216 0.95096 0.0
C224 C 0.54327 0.95301 0.9639 0.0
C225 C 0.55481 0.92833 0.97428 0.0
C226 C 0.57125 0.90177 0.96757 0.0
C227 C 0.56886 0.91148 0.95356 0.0
N228 N 0.55733 0.916 0.92262 0.0
C229 C 0.57351 0.88756 0.9283 0.0
C230 C 0.57769 0.85382 0.91978 0.0
C231 C 0.56339 0.86143 0.90797 0.0
C232 C 0.55175 0.90026 0.90977 0.0
N233 N 0.57694 0.9953 0.93145 0.0
C234 C 0.61549 0.05906 0.92987 0.0
C235 C 0.60485 0.04601 0.9428 0.0
C236 C 0.58582 0.01478 0.94335 0.0
C237 C 0.60795 0.03608 0.91787 0.0
C238 C 0.58906 1.00413 0.91892 0.0
N239 N 0.50811 0.93964 0.93301 0.0
C240 C 0.47809 0.88476 0.93971 0.0
C241 C 0.45661 0.9086 0.93512 0.0
C242 C 0.46211 0.94791 0.92923 0.0
C243 C 0.48745 0.96281 0.9285 0.0
C244 C 0.50356 0.90064 0.93847 0.0
H245 H 0.49008 0.99377 0.92432 0.0
H246 H 0.51948 0.88168 0.94211 0.0
H247 H 0.57721 0.00861 0.95346 0.0
H248 H 0.58319 0.98841 0.90939 0.0
C249 C 0.52567 0.05744 0.92097 0.0
C250 C 0.53747 0.92265 0.89867 0.0
C251 C 0.52781 0.99016 0.96693 0.0
C252 C 0.5791 0.88806 0.94262 0.0
H253 H 0.52309 0.98817 0.87894 0.0
H254 H 0.51875 0.06318 0.89082 0.0
H255 H 0.51013 0.11409 0.943 0.0
H256 H 0.50954 0.07565 0.96798 0.0
H257 H 0.55232 0.93007 0.98559 0.0
H258 H 0.58304 0.87756 0.97231 0.0
H259 H 0.58833 0.82561 0.92226 0.0
H260 H 0.56165 0.84033 0.89915 0.0
H261 H 0.61054 0.06058 0.95259 0.0
H262 H 0.61559 0.0438 0.90757 0.0
H263 H 0.47542 0.85427 0.94445 0.0
H264 H 0.44699 0.96763 0.92503 0.0
C265 C 0.27236 0.7924 0.90054 0.0
C266 C 0.27842 0.76521 0.88968 0.0
C267 C 0.28016 0.7259 0.89558 0.0
C268 C 0.27496 0.73111 0.90969 0.0
N269 N 0.27016 0.77122 0.91294 0.0
Co270 Co 0.26177 0.79252 0.93198 0.0
N271 N 0.27612 0.74251 0.94145 0.0
C272 C 0.28053 0.70544 0.93526 0.0
C273 C 0.28952 0.67591 0.94462 0.0
C274 C 0.29048 0.69567 0.95747 0.0
C275 C 0.28197 0.73628 0.95524 0.0
N276 N 0.25309 0.81514 0.95082 0.0
C277 C 0.26174 0.80383 0.96369 0.0
C278 C 0.25006 0.82765 0.97418 0.0
C279 C 0.23331 0.85419 0.96759 0.0
C280 C 0.23566 0.84529 0.95355 0.0
N281 N 0.24721 0.84272 0.9226 0.0
C282 C 0.23093 0.87069 0.92838 0.0
C283 C 0.22672 0.90493 0.91999 0.0
C284 C 0.24111 0.89814 0.90817 0.0
C285 C 0.2528 0.85925 0.90982 0.0
N286 N 0.22777 0.76302 0.93125 0.0
C287 C 0.18782 0.7019 0.92969 0.0
C288 C 0.19924 0.71279 0.94257 0.0
C289 C 0.21898 0.74284 0.94312 0.0
C290 C 0.19585 0.7245 0.91768 0.0
C291 C 0.21537 0.75537 0.91873 0.0
N292 N 0.29654 0.81878 0.9328 0.0
C293 C 0.32657 0.87323 0.93973 0.0
C294 C 0.34804 0.84975 0.93499 0.0
C295 C 0.34252 0.81088 0.9289 0.0
C296 C 0.31719 0.79598 0.92813 0.0
C297 C 0.3011 0.85739 0.93845 0.0
H298 H 0.31456 0.7653 0.92382 0.0
H299 H 0.28518 0.87605 0.94222 0.0
H300 H 0.22814 0.74759 0.95316 0.0
H301 H 0.22127 0.77153 0.90925 0.0
C302 C 0.27897 0.70147 0.92049 0.0
C303 C 0.26712 0.8375 0.89866 0.0
C304 C 0.27781 0.76714 0.96651 0.0
C305 C 0.22528 0.86925 0.9427 0.0
H306 H 0.28131 0.77299 0.87868 0.0
H307 H 0.28563 0.69733 0.8903 0.0
H308 H 0.29522 0.64411 0.94235 0.0
H309 H 0.2964 0.6817 0.96736 0.0
H310 H 0.25272 0.82542 0.98547 0.0
H311 H 0.22141 0.87792 0.97244 0.0
H312 H 0.21602 0.93293 0.92257 0.0
H313 H 0.24285 0.91981 0.89945 0.0
H314 H 0.19392 0.69657 0.95219 0.0
H315 H 0.18732 0.7181 0.9075 0.0
H316 H 0.32924 0.90336 0.94464 0.0
H317 H 0.35763 0.79149 0.92457 0.0
C318 C 0.5325 0.79277 0.84265 0.0
C319 C 0.52637 0.76509 0.85345 0.0
C320 C 0.52475 0.72603 0.84747 0.0
C321 C 0.53007 0.73186 0.83339 0.0
N322 N 0.53484 0.77213 0.83022 0.0
Co323 Co 0.54341 0.79422 0.81122 0.0
N324 N 0.5294 0.74438 0.80162 0.0
C325 C 0.52499 0.70706 0.80776 0.0
C326 C 0.51638 0.67767 0.79834 0.0
C327 C 0.51568 0.69777 0.78549 0.0
C328 C 0.52395 0.73842 0.78778 0.0
N329 N 0.55225 0.81765 0.79243 0.0
C330 C 0.54394 0.80659 0.77949 0.0
C331 C 0.55559 0.83103 0.76909 0.0
C332 C 0.572 0.85771 0.77579 0.0
C333 C 0.56947 0.84827 0.78981 0.0
N334 N 0.55766 0.84426 0.82073 0.0
C335 C 0.57382 0.8727 0.81503 0.0
C336 C 0.57787 0.90661 0.82351 0.0
C337 C 0.56349 0.89908 0.83529 0.0
C338 C 0.55196 0.86014 0.83354 0.0
N339 N 0.57752 0.76506 0.81206 0.0
C340 C 0.61752 0.70407 0.81372 0.0
C341 C 0.60634 0.71548 0.8008 0.0
C342 C 0.58657 0.74546 0.8002 0.0
C343 C 0.60925 0.72611 0.82572 0.0
C344 C 0.58971 0.75694 0.82463 0.0
N345 N 0.50857 0.82016 0.8103 0.0
C346 C 0.4785 0.87483 0.80348 0.0
C347 C 0.45704 0.85102 0.80812 0.0
C348 C 0.46257 0.81181 0.81408 0.0
C349 C 0.48792 0.79699 0.81484 0.0
C350 C 0.50398 0.85905 0.80476 0.0
H351 H 0.49058 0.7661 0.81907 0.0
H352 H 0.51989 0.87801 0.80109 0.0
H353 H 0.5776 0.75061 0.79012 0.0
H354 H 0.58362 0.77266 0.83411 0.0
C355 C 0.52632 0.70261 0.82253 0.0
C356 C 0.5377 0.83777 0.84466 0.0
C357 C 0.52832 0.76955 0.77652 0.0
C358 C 0.57958 0.87195 0.80073 0.0
H359 H 0.52339 0.77238 0.86446 0.0
H360 H 0.5193 0.6972 0.85268 0.0
H361 H 0.5108 0.64572 0.80056 0.0
H362 H 0.5101 0.68397 0.77555 0.0
H363 H 0.55319 0.82911 0.75778 0.0
H364 H 0.58383 0.88183 0.77103 0.0
H365 H 0.58848 0.93483 0.821 0.0
H366 H 0.56165 0.9203 0.84408 0.0
H367 H 0.61186 0.69971 0.79118 0.0
H368 H 0.6176 0.7193 0.83594 0.0
H369 H 0.47582 0.90522 0.79868 0.0
H370 H 0.44748 0.7921 0.81832 0.0
C371 C 0.27314 0.96875 0.84253 0.0
C372 C 0.27935 0.99643 0.85322 0.0
C373 C 0.28109 0.03545 0.8471 0.0
C374 C 0.27576 0.02958 0.83304 0.0
N375 N 0.27087 0.98932 0.83002 0.0
Co376 Co 0.26222 0.96717 0.81111 0.0
N377 N 0.2764 0.01682 0.80133 0.0
C378 C 0.28092 0.05416 0.80732 0.0
C379 C 0.28963 0.08339 0.79779 0.0
C380 C 0.29029 0.06317 0.78502 0.0
C381 C 0.28189 0.0226 0.78747 0.0
N382 N 0.2533 0.94369 0.79241 0.0
C383 C 0.26169 0.95455 0.77944 0.0
C384 C 0.24996 0.93015 0.76912 0.0
C385 C 0.23342 0.9037 0.77591 0.0
C386 C 0.23595 0.91324 0.7899 0.0
N387 N 0.24781 0.91734 0.82079 0.0
C388 C 0.23153 0.88901 0.81521 0.0
C389 C 0.22739 0.85518 0.8238 0.0
C390 C 0.24182 0.86264 0.83555 0.0
C391 C 0.25349 0.90147 0.83365 0.0
N392 N 0.22824 0.9967 0.81184 0.0
C393 C 0.18959 0.06021 0.8134 0.0
C394 C 0.20026 0.04754 0.80047 0.0
C395 C 0.21934 0.01643 0.79993 0.0
C396 C 0.19718 0.03699 0.82541 0.0
C397 C 0.21612 0.00518 0.82437 0.0
N398 N 0.29699 0.94095 0.81028 0.0
C399 C 0.32695 0.88616 0.80359 0.0
C400 C 0.34846 0.90989 0.80814 0.0
C401 C 0.34301 0.94908 0.81401 0.0
C402 C 0.31769 0.964 0.81475 0.0
C403 C 0.30149 0.90205 0.80485 0.0
H404 H 0.3151 0.9949 0.81889 0.0
H405 H 0.28554 0.88318 0.80123 0.0
H406 H 0.22798 0.01053 0.78983 0.0
H407 H 0.22202 0.98926 0.8339 0.0
C408 C 0.2796 0.05874 0.82208 0.0
C409 C 0.26782 0.9238 0.84468 0.0
C410 C 0.27746 0.99139 0.77634 0.0
C411 C 0.22575 0.88972 0.8009 0.0
H412 H 0.28231 0.98917 0.86426 0.0
H413 H 0.28663 0.06427 0.85221 0.0
H414 H 0.29531 0.11532 0.79988 0.0
H415 H 0.29593 0.07683 0.77502 0.0
H416 H 0.25242 0.93194 0.75781 0.0
H417 H 0.22152 0.87965 0.77124 0.0
H418 H 0.21667 0.82704 0.82141 0.0
H419 H 0.2436 0.84148 0.84442 0.0
H420 H 0.19454 0.06231 0.79068 0.0
H421 H 0.18953 0.04442 0.83571 0.0
H422 H 0.32957 0.85578 0.79886 0.0
H423 H 0.35815 0.96871 0.81819 0.0
C424 C 0.50285 0.61663 0.5829 0.0
C425 C 0.49115 0.65535 0.58482 0.0
C426 C 0.47671 0.66311 0.57308 0.0
C427 C 0.4809 0.62956 0.56446 0.0
N428 N 0.49715 0.60106 0.57004 0.0
Co429 Co 0.51163 0.55155 0.56033 0.0
N430 N 0.50255 0.57536 0.5416 0.0
C431 C 0.48548 0.60629 0.53912 0.0
C432 C 0.48289 0.61625 0.52515 0.0
C433 C 0.49905 0.58954 0.5183 0.0
C434 C 0.51058 0.56449 0.52857 0.0
N435 N 0.52583 0.5021 0.55054 0.0
C436 C 0.53067 0.49612 0.53663 0.0
C437 C 0.539 0.45555 0.53423 0.0
C438 C 0.53891 0.43546 0.54708 0.0
C439 C 0.53059 0.46476 0.5566 0.0
N440 N 0.52053 0.52908 0.57924 0.0
C441 C 0.52563 0.48884 0.58229 0.0
C442 C 0.5312 0.48276 0.59633 0.0
C443 C 0.52941 0.52164 0.60241 0.0
C444 C 0.52294 0.54944 0.59172 0.0
N445 N 0.47769 0.52174 0.56119 0.0
C446 C 0.43809 0.45991 0.56295 0.0
C447 C 0.44641 0.482 0.57494 0.0
C448 C 0.46573 0.51321 0.5738 0.0
C449 C 0.44899 0.47176 0.54999 0.0
C450 C 0.46854 0.50219 0.54934 0.0
N451 N 0.54632 0.57827 0.55946 0.0
C452 C 0.59231 0.57101 0.56347 0.0
C453 C 0.59757 0.61099 0.55802 0.0
C454 C 0.57594 0.63461 0.55352 0.0
C455 C 0.55059 0.61786 0.55441 0.0
C456 C 0.56714 0.55529 0.56385 0.0
H457 H 0.53454 0.63673 0.55088 0.0
H458 H 0.56473 0.52396 0.56774 0.0
H459 H 0.47184 0.52892 0.58328 0.0
H460 H 0.47725 0.50779 0.53922 0.0
C461 C 0.47531 0.62945 0.55015 0.0
C462 C 0.51752 0.59428 0.59386 0.0
C463 C 0.52545 0.52686 0.52536 0.0
C464 C 0.52947 0.45996 0.57135 0.0
H465 H 0.49299 0.67635 0.59366 0.0
H466 H 0.46605 0.69135 0.57067 0.0
H467 H 0.4711 0.64062 0.52051 0.0
H468 H 0.50129 0.58786 0.50698 0.0
H469 H 0.5441 0.44174 0.52421 0.0
H470 H 0.54455 0.40349 0.54921 0.0
H471 H 0.53693 0.45392 0.60143 0.0
H472 H 0.53252 0.52873 0.61343 0.0
H473 H 0.43827 0.47495 0.58519 0.0
H474 H 0.44341 0.45604 0.54037 0.0
H475 H 0.60751 0.55134 0.56761 0.0
H476 H 0.57841 0.6656 0.54913 0.0
C477 C 0.80225 0.64793 0.58178 0.0
C478 C 0.81142 0.60712 0.58261 0.0
C479 C 0.82289 0.59864 0.57005 0.0
C480 C 0.81957 0.63401 0.56209 0.0
N481 N 0.80685 0.66476 0.56889 0.0
Co482 Co 0.79505 0.71894 0.56058 0.0
N483 N 0.8013 0.69829 0.5411 0.0
C484 C 0.81164 0.66133 0.53741 0.0
C485 C 0.80726 0.65099 0.52363 0.0
C486 C 0.79409 0.68417 0.51815 0.0
C487 C 0.7924 0.71387 0.52878 0.0
N488 N 0.78439 0.77357 0.55217 0.0
C489 C 0.78489 0.7865 0.53844 0.0
C490 C 0.78349 0.82986 0.53762 0.0
C491 C 0.78139 0.84434 0.55111 0.0
C492 C 0.78229 0.80945 0.5595 0.0
N493 N 0.78766 0.73761 0.5802 0.0
C494 C 0.78371 0.77726 0.58429 0.0
C495 C 0.77879 0.78072 0.59847 0.0
C496 C 0.77968 0.74061 0.60363 0.0
C497 C 0.78508 0.71485 0.59228 0.0
N498 N 0.83079 0.74306 0.5617 0.0
C499 C 0.86991 0.80587 0.56331 0.0
C500 C 0.86078 0.78502 0.57546 0.0
C501 C 0.84176 0.75335 0.5744 0.0
C502 C 0.86115 0.79031 0.55032 0.0
C503 C 0.84199 0.75925 0.54975 0.0
N504 N 0.75888 0.69786 0.55944 0.0
C505 C 0.71308 0.70987 0.5632 0.0
C506 C 0.70641 0.6703 0.55787 0.0
C507 C 0.72718 0.64504 0.55334 0.0
C508 C 0.75296 0.659 0.55439 0.0
C509 C 0.73898 0.72302 0.56372 0.0
H510 H 0.76803 0.63819 0.55102 0.0
H511 H 0.7428 0.75382 0.56771 0.0
H512 H 0.83487 0.73926 0.58405 0.0
H513 H 0.83526 0.75081 0.53945 0.0
C514 C 0.82131 0.63417 0.54751 0.0
C515 C 0.78976 0.66959 0.59356 0.0
C516 C 0.78885 0.75876 0.52616 0.0
C517 C 0.78231 0.80931 0.57427 0.0
H518 H 0.80931 0.58494 0.59116 0.0
H519 H 0.83053 0.56882 0.56667 0.0
H520 H 0.81227 0.62224 0.51832 0.0
H521 H 0.78776 0.68698 0.50731 0.0
H522 H 0.78526 0.84962 0.52842 0.0
H523 H 0.78054 0.87664 0.55443 0.0
H524 H 0.77453 0.80888 0.6043 0.0
H525 H 0.77699 0.73143 0.61453 0.0
H526 H 0.86722 0.79434 0.58583 0.0
H527 H 0.8684 0.80291 0.54048 0.0
H528 H 0.69855 0.73092 0.56721 0.0
H529 H 0.72386 0.61454 0.54885 0.0
C530 C 0.50526 0.65371 0.65929 0.0
C531 C 0.49386 0.61475 0.65733 0.0
C532 C 0.47946 0.60661 0.66906 0.0
C533 C 0.48337 0.64018 0.6777 0.0
N534 N 0.49947 0.66901 0.67217 0.0
Co535 Co 0.5136 0.71867 0.68194 0.0
N536 N 0.50454 0.69452 0.70061 0.0
C537 C 0.48733 0.66373 0.70304 0.0
C538 C 0.48462 0.65378 0.71701 0.0
C539 C 0.50088 0.68029 0.72388 0.0
C540 C 0.51264 0.70514 0.71363 0.0
N541 N 0.52752 0.76812 0.69182 0.0
C542 C 0.53279 0.77355 0.70571 0.0
C543 C 0.54107 0.81409 0.70822 0.0
C544 C 0.54055 0.83467 0.69546 0.0
C545 C 0.53204 0.80567 0.68587 0.0
N546 N 0.52237 0.74158 0.66308 0.0
C547 C 0.52719 0.78198 0.66012 0.0
C548 C 0.53253 0.78848 0.64608 0.0
C549 C 0.53084 0.74973 0.63989 0.0
C550 C 0.52466 0.72157 0.65053 0.0
N551 N 0.47951 0.74784 0.68111 0.0
C552 C 0.43954 0.80886 0.67942 0.0
C553 C 0.4479 0.78693 0.66741 0.0
C554 C 0.46741 0.75609 0.66852 0.0
C555 C 0.4506 0.79727 0.69236 0.0
C556 C 0.47035 0.76725 0.69297 0.0
N557 N 0.54842 0.69265 0.68285 0.0
C558 C 0.59444 0.70079 0.67906 0.0
C559 C 0.59987 0.6612 0.68477 0.0
C560 C 0.57834 0.6374 0.68932 0.0
C561 C 0.55291 0.65347 0.68817 0.0
C562 C 0.56913 0.71589 0.67844 0.0
H563 H 0.53695 0.63445 0.69174 0.0
H564 H 0.56655 0.74701 0.67439 0.0
H565 H 0.47358 0.74048 0.65903 0.0
H566 H 0.47922 0.76189 0.70307 0.0
C567 C 0.47744 0.64036 0.69198 0.0
C568 C 0.51934 0.67673 0.64826 0.0
C569 C 0.52821 0.74205 0.71683 0.0
C570 C 0.53087 0.81074 0.67113 0.0
H571 H 0.49576 0.59401 0.64842 0.0
H572 H 0.4689 0.57822 0.67141 0.0
H573 H 0.47277 0.62942 0.72162 0.0
H574 H 0.50314 0.6818 0.73521 0.0
H575 H 0.54652 0.82749 0.71824 0.0
H576 H 0.54618 0.8667 0.6934 0.0
H577 H 0.53799 0.81755 0.64102 0.0
H578 H 0.5338 0.74297 0.62884 0.0
H579 H 0.43963 0.79385 0.65718 0.0
H580 H 0.44499 0.81292 0.70199 0.0
H581 H 0.60956 0.72058 0.6749 0.0
H582 H 0.5809 0.60675 0.69395 0.0
C583 C 0.80339 0.6053 0.65814 0.0
C584 C 0.81583 0.64324 0.65572 0.0
C585 C 0.83019 0.65151 0.66744 0.0
C586 C 0.82534 0.61895 0.67648 0.0
N587 N 0.80871 0.59064 0.6712 0.0
Co588 Co 0.79406 0.5418 0.68135 0.0
N589 N 0.80334 0.56649 0.69983 0.0
C590 C 0.82084 0.59696 0.70202 0.0
C591 C 0.82359 0.60748 0.71591 0.0
C592 C 0.80705 0.5817 0.72299 0.0
C593 C 0.7951 0.55666 0.71293 0.0
N594 N 0.77967 0.49312 0.6916 0.0
C595 C 0.77437 0.48838 0.70553 0.0
C596 C 0.7657 0.44816 0.70834 0.0
C597 C 0.766 0.42706 0.69573 0.0
C598 C 0.77477 0.45546 0.68593 0.0
N599 N 0.78508 0.51836 0.66266 0.0
C600 C 0.77986 0.47798 0.66 0.0
C601 C 0.77433 0.47115 0.64601 0.0
C602 C 0.77632 0.50965 0.63955 0.0
C603 C 0.78287 0.53799 0.64998 0.0
N604 N 0.82785 0.51173 0.68074 0.0
C605 C 0.86642 0.44807 0.67947 0.0
C606 C 0.85877 0.4707 0.66735 0.0
C607 C 0.83987 0.50259 0.66824 0.0
C608 C 0.85581 0.46135 0.69234 0.0
C609 C 0.83677 0.49254 0.69274 0.0
N610 N 0.75946 0.56867 0.68208 0.0
C611 C 0.71335 0.5611 0.67856 0.0
C612 C 0.70817 0.60063 0.68425 0.0
C613 C 0.7299 0.62422 0.68859 0.0
C614 C 0.75524 0.6079 0.68731 0.0
C615 C 0.73857 0.54574 0.67781 0.0
H616 H 0.77135 0.62671 0.69076 0.0
H617 H 0.74091 0.51459 0.67384 0.0
H618 H 0.83394 0.51808 0.65863 0.0
H619 H 0.82821 0.49903 0.70283 0.0
C620 C 0.83114 0.61938 0.69078 0.0
C621 C 0.78855 0.58261 0.64742 0.0
C622 C 0.77924 0.52021 0.71641 0.0
C623 C 0.77589 0.44976 0.67122 0.0
H624 H 0.81463 0.66324 0.64653 0.0
H625 H 0.84143 0.67937 0.66948 0.0
H626 H 0.83568 0.6317 0.72034 0.0
H627 H 0.80474 0.58072 0.73432 0.0
H628 H 0.76013 0.43529 0.71846 0.0
H629 H 0.76007 0.3951 0.69392 0.0
H630 H 0.7685 0.44207 0.64117 0.0
H631 H 0.7733 0.51615 0.62847 0.0
H632 H 0.86635 0.46276 0.65708 0.0
H633 H 0.86157 0.44702 0.7022 0.0
H634 H 0.69806 0.5415 0.67453 0.0
H635 H 0.72753 0.65485 0.69318 0.0
C636 C 0.53093 0.45853 0.40053 0.0
C637 C 0.52596 0.48511 0.38925 0.0
C638 C 0.52376 0.52473 0.39472 0.0
C639 C 0.52764 0.52029 0.40899 0.0
N640 N 0.53206 0.48037 0.41277 0.0
Co641 Co 0.53872 0.46023 0.43222 0.0
N642 N 0.52355 0.51093 0.44081 0.0
C643 C 0.51951 0.54747 0.43408 0.0
C644 C 0.51004 0.57786 0.44287 0.0
C645 C 0.50841 0.55933 0.45595 0.0
C646 C 0.51702 0.51854 0.45442 0.0
N647 N 0.54589 0.43895 0.45153 0.0
C648 C 0.53655 0.45149 0.4641 0.0
C649 C 0.54711 0.42786 0.47506 0.0
C650 C 0.56393 0.40035 0.46911 0.0
C651 C 0.56271 0.40843 0.45495 0.0
N652 N 0.55389 0.40931 0.42371 0.0
C653 C 0.56945 0.38146 0.43018 0.0
C654 C 0.57435 0.34679 0.4222 0.0
C655 C 0.56118 0.35315 0.40993 0.0
C656 C 0.54948 0.39218 0.41092 0.0
N657 N 0.57273 0.48938 0.43199 0.0
C658 C 0.61296 0.55056 0.43057 0.0
C659 C 0.59863 0.54315 0.44296 0.0
C660 C 0.5795 0.51237 0.44353 0.0
C661 C 0.6073 0.524 0.41907 0.0
C662 C 0.58721 0.49392 0.41997 0.0
N663 N 0.50395 0.43415 0.43255 0.0
C664 C 0.47334 0.38149 0.44032 0.0
C665 C 0.45225 0.40458 0.43487 0.0
C666 C 0.45823 0.44213 0.42791 0.0
C667 C 0.48369 0.45639 0.42707 0.0
C668 C 0.49892 0.39658 0.43894 0.0
H669 H 0.48672 0.48626 0.42213 0.0
H670 H 0.51453 0.3783 0.44332 0.0
H671 H 0.56896 0.5095 0.45324 0.0
H672 H 0.5827 0.4756 0.41075 0.0
C673 C 0.52251 0.55048 0.41936 0.0
C674 C 0.53613 0.41334 0.39921 0.0
C675 C 0.52123 0.48938 0.4663 0.0
C676 C 0.57376 0.38363 0.4446 0.0
H677 H 0.52406 0.47674 0.37826 0.0
H678 H 0.51881 0.553 0.38903 0.0
H679 H 0.5047 0.60954 0.4401 0.0
H680 H 0.50219 0.57435 0.46557 0.0
H681 H 0.54376 0.43093 0.48626 0.0
H682 H 0.57521 0.37661 0.47445 0.0
H683 H 0.58468 0.31884 0.42533 0.0
H684 H 0.56018 0.33104 0.40136 0.0
H685 H 0.60091 0.56201 0.45227 0.0
H686 H 0.61784 0.52664 0.40927 0.0
H687 H 0.47026 0.35234 0.44588 0.0
H688 H 0.44338 0.46098 0.42301 0.0
C689 C 0.26925 0.29103 0.40094 0.0
C690 C 0.27564 0.2635 0.39023 0.0
C691 C 0.27676 0.22426 0.39624 0.0
C692 C 0.2709 0.22982 0.41025 0.0
N693 N 0.26625 0.27011 0.41333 0.0
Co694 Co 0.2572 0.29203 0.43218 0.0
N695 N 0.27087 0.24208 0.44198 0.0
C696 C 0.27522 0.20472 0.43597 0.0
C697 C 0.28384 0.17545 0.44553 0.0
C698 C 0.28462 0.19572 0.4583 0.0
C699 C 0.27638 0.23636 0.45583 0.0
N700 N 0.24788 0.31527 0.45083 0.0
C701 C 0.25599 0.3042 0.46383 0.0
C702 C 0.24383 0.3281 0.47412 0.0
C703 C 0.22737 0.35455 0.46727 0.0
C704 C 0.23035 0.34547 0.45327 0.0
N705 N 0.24331 0.34216 0.42251 0.0
C706 C 0.22689 0.37043 0.42799 0.0
C707 C 0.22336 0.40464 0.41948 0.0
C708 C 0.23836 0.39748 0.40792 0.0
C709 C 0.24971 0.35841 0.40981 0.0
N710 N 0.22313 0.26306 0.43113 0.0
C711 C 0.18336 0.20192 0.42917 0.0
C712 C 0.19419 0.21304 0.44218 0.0
C713 C 0.21385 0.24313 0.44292 0.0
C714 C 0.19182 0.22436 0.41722 0.0
C715 C 0.21125 0.25528 0.41847 0.0
N716 N 0.29202 0.31774 0.43331 0.0
C717 C 0.32209 0.37246 0.43988 0.0
C718 C 0.3435 0.34823 0.43554 0.0
C719 C 0.338 0.30884 0.42987 0.0
C720 C 0.31266 0.29422 0.42907 0.0
C721 C 0.29659 0.35679 0.4386 0.0
H722 H 0.30999 0.26323 0.42502 0.0
H723 H 0.28065 0.37596 0.44204 0.0
H724 H 0.2226 0.24804 0.45306 0.0
H725 H 0.21756 0.27129 0.40903 0.0
C726 C 0.27421 0.20036 0.42119 0.0
C727 C 0.26451 0.33622 0.39892 0.0
C728 C 0.27221 0.26787 0.4669 0.0
C729 C 0.22052 0.3693 0.44223 0.0
H730 H 0.27916 0.27102 0.37926 0.0
H731 H 0.2823 0.19548 0.39111 0.0
H732 H 0.28949 0.14352 0.44343 0.0
H733 H 0.2903 0.18208 0.46829 0.0
H734 H 0.24602 0.32603 0.48545 0.0
H735 H 0.21527 0.37837 0.47191 0.0
H736 H 0.21272 0.43286 0.42186 0.0
H737 H 0.24073 0.41904 0.39921 0.0
H738 H 0.1885 0.19693 0.45175 0.0
H739 H 0.18373 0.21776 0.40695 0.0
H740 H 0.32485 0.40307 0.44443 0.0
H741 H 0.35314 0.28889 0.42586 0.0
C742 C 0.53187 0.28354 0.34281 0.0
C743 C 0.52529 0.25508 0.35329 0.0
C744 C 0.52373 0.21655 0.34693 0.0
C745 C 0.52952 0.22348 0.33297 0.0
N746 N 0.53452 0.26395 0.33021 0.0
Co747 Co 0.54378 0.28754 0.31152 0.0
N748 N 0.52997 0.23858 0.30133 0.0
C749 C 0.52523 0.20083 0.30708 0.0
C750 C 0.51689 0.17225 0.29731 0.0
C751 C 0.51673 0.19333 0.28464 0.0
C752 C 0.52504 0.23372 0.28738 0.0
N753 N 0.55332 0.31239 0.29303 0.0
C754 C 0.54548 0.30235 0.27991 0.0
C755 C 0.55749 0.32758 0.26985 0.0
C756 C 0.57366 0.35372 0.27696 0.0
C757 C 0.57063 0.34319 0.29086 0.0
N758 N 0.55785 0.33667 0.32161 0.0
C759 C 0.57431 0.36539 0.31636 0.0
C760 C 0.57847 0.39828 0.32526 0.0
C761 C 0.56382 0.38977 0.33688 0.0
C762 C 0.55197 0.35135 0.33456 0.0
N763 N 0.57779 0.25814 0.31246 0.0
C764 C 0.61778 0.19715 0.31414 0.0
C765 C 0.60695 0.20916 0.30118 0.0
C766 C 0.58719 0.23916 0.30057 0.0
C767 C 0.60914 0.21861 0.32619 0.0
C768 C 0.58961 0.24943 0.32509 0.0
N769 N 0.50903 0.31384 0.3105 0.0
C770 C 0.47936 0.36951 0.30407 0.0
C771 C 0.45767 0.34562 0.30835 0.0
C772 C 0.46291 0.30579 0.31391 0.0
C773 C 0.48817 0.29053 0.31465 0.0
C774 C 0.50474 0.35327 0.30534 0.0
H775 H 0.4906 0.25924 0.31857 0.0
H776 H 0.52082 0.37235 0.30197 0.0
H777 H 0.57853 0.24489 0.29044 0.0
H778 H 0.58324 0.26468 0.3346 0.0
C779 C 0.52604 0.19517 0.32181 0.0
C780 C 0.53717 0.32826 0.34528 0.0
C781 C 0.52998 0.26559 0.27644 0.0
C782 C 0.58047 0.36588 0.3021 0.0
H783 H 0.52198 0.26151 0.36433 0.0
H784 H 0.51802 0.18735 0.35182 0.0
H785 H 0.51116 0.14018 0.29918 0.0
H786 H 0.51151 0.18033 0.27451 0.0
H787 H 0.55547 0.32652 0.2585 0.0
H788 H 0.58567 0.37816 0.27254 0.0
H789 H 0.58939 0.42648 0.32318 0.0
H790 H 0.56203 0.40997 0.34594 0.0
H791 H 0.61277 0.19388 0.29152 0.0
H792 H 0.61721 0.21135 0.33644 0.0
H793 H 0.47695 0.40036 0.29957 0.0
H794 H 0.44766 0.2859 0.31787 0.0
C795 C 0.27412 0.4661 0.34253 0.0
C796 C 0.28038 0.49397 0.35316 0.0
C797 C 0.28223 0.53283 0.34695 0.0
C798 C 0.27689 0.52669 0.33291 0.0
N799 N 0.27192 0.4864 0.32996 0.0
Co800 Co 0.26309 0.46397 0.3111 0.0
N801 N 0.2771 0.51358 0.3012 0.0
C802 C 0.28174 0.55096 0.30715 0.0
C803 C 0.29009 0.58026 0.29754 0.0
C804 C 0.29037 0.56008 0.28477 0.0
C805 C 0.28211 0.51946 0.28729 0.0
N806 N 0.25401 0.44019 0.29245 0.0
C807 C 0.26213 0.45102 0.27943 0.0
C808 C 0.25052 0.42613 0.2692 0.0
C809 C 0.23426 0.39949 0.27609 0.0
C810 C 0.23686 0.40935 0.29004 0.0
N811 N 0.24886 0.41416 0.3209 0.0
C812 C 0.23273 0.38548 0.31539 0.0
C813 C 0.22886 0.35166 0.32402 0.0
C814 C 0.24331 0.35947 0.33573 0.0
C815 C 0.25469 0.39849 0.33376 0.0
N816 N 0.22908 0.49344 0.31191 0.0
C817 C 0.19062 0.55728 0.31353 0.0
C818 C 0.20104 0.54428 0.30058 0.0
C819 C 0.22001 0.513 0.30001 0.0
C820 C 0.19833 0.53419 0.32554 0.0
C821 C 0.21716 0.50221 0.32448 0.0
N822 N 0.29788 0.43777 0.31021 0.0
C823 C 0.32774 0.38266 0.30367 0.0
C824 C 0.34933 0.40628 0.3082 0.0
C825 C 0.34394 0.44569 0.31394 0.0
C826 C 0.31864 0.46083 0.31461 0.0
C827 C 0.30232 0.39874 0.30488 0.0
H828 H 0.31611 0.49183 0.31867 0.0
H829 H 0.28634 0.37985 0.30132 0.0
H830 H 0.22843 0.50682 0.28987 0.0
H831 H 0.22316 0.4864 0.33401 0.0
C832 C 0.28063 0.55568 0.32189 0.0
C833 C 0.26867 0.42126 0.34481 0.0
C834 C 0.27728 0.4884 0.27617 0.0
C835 C 0.22688 0.38587 0.3011 0.0
H836 H 0.28331 0.48693 0.36422 0.0
H837 H 0.28778 0.56174 0.35199 0.0
H838 H 0.29571 0.61224 0.29958 0.0
H839 H 0.2956 0.57381 0.27472 0.0
H840 H 0.2528 0.42779 0.25787 0.0
H841 H 0.22248 0.37513 0.2715 0.0
H842 H 0.2183 0.32332 0.32167 0.0
H843 H 0.24524 0.33849 0.34464 0.0
H844 H 0.1952 0.55895 0.29079 0.0
H845 H 0.19086 0.54184 0.33586 0.0
H846 H 0.33026 0.35215 0.29902 0.0
H847 H 0.35909 0.46534 0.31809 0.0
C848 C 1.00481 0.10863 0.58414 0.0
C849 C 0.99306 0.14726 0.58617 0.0
C850 C 0.97859 0.15526 0.57446 0.0
C851 C 0.98281 0.12193 0.56575 0.0
N852 N 0.99913 0.09338 0.57124 0.0
Co853 Co 1.01355 0.04405 0.56141 0.0
N854 N 1.00451 0.06839 0.54277 0.0
C855 C 0.98725 0.09911 0.54037 0.0
C856 C 0.98474 0.1095 0.52643 0.0
C857 C 1.00118 0.08334 0.51954 0.0
C858 C 1.0128 0.05816 0.52975 0.0
N859 N 0.02774 0.9949 0.55149 0.0
C860 C 0.03294 0.98961 0.53759 0.0
C861 C 0.04129 0.94914 0.53504 0.0
C862 C 0.04089 0.92846 0.54779 0.0
C863 C 0.03236 0.95734 0.55741 0.0
N864 N 1.02231 0.02106 0.58026 0.0
C865 C 1.02728 0.98069 0.58319 0.0
C866 C 0.0327 0.9742 0.59722 0.0
C867 C 0.03093 0.01291 0.60343 0.0
C868 C 1.02462 0.04106 0.59281 0.0
N869 N 0.97959 0.01436 0.56213 0.0
C870 C 0.94023 0.95208 0.56361 0.0
C871 C 0.94822 0.97424 0.57567 0.0
C872 C 0.96746 0.00561 0.57467 0.0
C873 C 0.95133 0.96419 0.55073 0.0
C874 C 0.97069 0.99491 0.55021 0.0
N875 N 0.0483 0.07046 0.56059 0.0
C876 C 0.09436 0.0624 0.56424 0.0
C877 C 0.09974 0.10193 0.55849 0.0
C878 C 0.07816 0.12573 0.55402 0.0
C879 C 0.05273 0.10965 0.55526 0.0
C880 C 0.06906 0.04729 0.56497 0.0
H881 H 0.03673 0.12862 0.55172 0.0
H882 H 0.06654 0.01618 0.56904 0.0
H883 H 0.97342 0.02122 0.5842 0.0
H884 H 0.97956 1.0007 0.54014 0.0
C885 C 0.97705 0.122 0.55145 0.0
C886 C 1.01927 0.08589 0.59508 0.0
C887 C 0.02815 0.02108 0.52648 0.0
C888 C 0.03113 0.95209 0.57215 0.0
H889 H 0.9948 0.16796 0.59511 0.0
H890 H 0.96783 0.18346 0.57215 0.0
H891 H 0.9729 0.1339 0.52185 0.0
H892 H 1.00359 0.08218 0.50822 0.0
H893 H 0.04667 0.93582 0.52499 0.0
H894 H 0.04654 0.89643 0.54981 0.0
H895 H 0.03831 0.94517 0.60226 0.0
H896 H 0.03395 0.01969 0.61448 0.0
H897 H 0.93992 0.96706 0.58587 0.0
H898 H 0.94612 0.94844 0.54105 0.0
H899 H 0.10955 0.04264 0.56835 0.0
H900 H 0.08069 0.15637 0.54937 0.0
C901 C 0.30368 0.15525 0.58373 0.0
C902 C 0.31575 0.11672 0.58555 0.0
C903 C 0.33022 0.10986 0.57377 0.0
C904 C 0.32569 0.14368 0.56523 0.0
N905 N 0.30915 0.17145 0.57089 0.0
Co906 Co 0.29408 0.22088 0.5613 0.0
N907 N 0.30289 0.19765 0.54257 0.0
C908 C 0.32065 0.16794 0.53995 0.0
C909 C 0.32305 0.15856 0.52595 0.0
C910 C 0.30595 0.18431 0.51927 0.0
C911 C 0.29403 0.20814 0.52967 0.0
N912 N 0.27923 0.27008 0.55161 0.0
C913 C 0.27316 0.27547 0.53781 0.0
C914 C 0.26425 0.31576 0.53539 0.0
C915 C 0.26516 0.33617 0.54813 0.0
C916 C 0.27453 0.30733 0.55762 0.0
N917 N 0.28561 0.24275 0.58025 0.0
C918 C 0.28046 0.28289 0.58332 0.0
C919 C 0.2752 0.2885 0.5974 0.0
C920 C 0.27725 0.24944 0.60347 0.0
C921 C 0.28356 0.22198 0.59273 0.0
N922 N 0.32782 0.25134 0.56182 0.0
C923 C 0.36627 0.31544 0.56303 0.0
C924 C 0.35901 0.29227 0.57512 0.0
C925 C 0.34017 0.26019 0.57426 0.0
C926 C 0.35528 0.30252 0.5502 0.0
C927 C 0.3363 0.27119 0.54984 0.0
N928 N 0.25951 0.19378 0.56066 0.0
C929 C 0.21348 0.20103 0.56458 0.0
C930 C 0.20816 0.16197 0.55857 0.0
C931 C 0.22977 0.13871 0.55388 0.0
C932 C 0.25516 0.15496 0.55511 0.0
C933 C 0.23872 0.21633 0.56529 0.0
H934 H 0.27118 0.13648 0.55137 0.0
H935 H 0.24115 0.24716 0.56951 0.0
H936 H 0.33456 0.2443 0.58385 0.0
H937 H 0.32742 0.26513 0.5398 0.0
C938 C 0.33133 0.14471 0.5509 0.0
C939 C 0.28911 0.17704 0.5948 0.0
C940 C 0.27739 0.24406 0.52671 0.0
C941 C 0.27614 0.31197 0.57237 0.0
H942 H 0.3142 0.09533 0.59436 0.0
H943 H 0.34118 0.08203 0.5713 0.0
H944 H 0.33521 0.135 0.5212 0.0
H945 H 0.30321 0.186 0.50797 0.0
H946 H 0.25805 0.32909 0.52545 0.0
H947 H 0.25916 0.36793 0.55024 0.0
H948 H 0.26944 0.31713 0.60255 0.0
H949 H 0.27439 0.24199 0.6145 0.0
H950 H 0.36687 0.29988 0.58536 0.0
H951 H 0.36069 0.31723 0.54035 0.0
H952 H 0.19828 0.22029 0.56887 0.0
H953 H 0.22725 0.10843 0.54905 0.0
C954 C 1.00467 0.14834 0.66035 0.0
C955 C 0.99343 0.1091 0.65878 0.0
C956 C 0.97911 0.10178 0.67059 0.0
C957 C 0.98292 0.13609 0.67891 0.0
N958 N 0.99887 0.16462 0.67309 0.0
Co959 Co 1.01291 0.21513 0.6824 0.0
N960 N 1.00424 0.19222 0.70128 0.0
C961 C 0.98714 0.1615 0.70403 0.0
C962 C 0.98466 0.15255 0.71809 0.0
C963 C 1.00095 0.17965 0.72468 0.0
C964 C 1.01251 0.20383 0.71417 0.0
N965 N 1.02672 0.26545 0.6918 0.0
C966 C 0.03221 0.27191 0.70561 0.0
C967 C 0.04031 0.31274 0.70774 0.0
C968 C 0.03945 0.33242 0.69482 0.0
C969 C 0.03093 0.30263 0.68552 0.0
N970 N 1.02133 0.23671 0.66332 0.0
C971 C 1.02589 0.27694 0.65999 0.0
C972 C 0.03112 0.2824 0.64589 0.0
C973 C 0.02967 0.24313 0.64005 0.0
C974 C 1.02373 0.21571 0.65095 0.0
N975 N 0.97869 0.24384 0.68148 0.0
C976 C 0.93856 0.30453 0.67958 0.0
C977 C 0.94683 0.28204 0.66767 0.0
C978 C 0.96643 0.25137 0.66889 0.0
C979 C 0.94978 0.29365 0.69255 0.0
C980 C 0.96961 0.2638 0.69326 0.0
N981 N 0.04786 0.18965 0.68338 0.0
C982 C 0.0938 0.19846 0.67953 0.0
C983 C 0.09951 0.1594 0.68554 0.0
C984 C 0.07817 0.13542 0.69026 0.0
C985 C 0.05263 0.15091 0.68899 0.0
C986 C 0.06839 0.21298 0.67877 0.0
H987 H 0.03681 0.13185 0.69272 0.0
H988 H 0.06558 0.24375 0.67447 0.0
H989 H 0.97254 0.23532 0.65947 0.0
H990 H 0.97861 0.25908 0.70336 0.0
C991 C 0.97716 0.13728 0.69321 0.0
C992 C 1.01873 0.17057 0.64912 0.0
C993 C 0.02804 0.24108 0.71699 0.0
C994 C 0.02953 0.30659 0.67074 0.0
H995 H 0.99544 0.08756 0.65009 0.0
H996 H 0.96871 0.07345 0.67323 0.0
H997 H 0.97294 0.12846 0.72295 0.0
H998 H 1.00336 0.18201 0.73597 0.0
H999 H 0.04587 0.32691 0.71763 0.0
H1000 H 0.04487 0.36437 0.69248 0.0
H1001 H 0.0364 0.31113 0.64056 0.0
H1002 H 0.03263 0.23553 0.62907 0.0
H1003 H 0.93844 0.28841 0.65743 0.0
H1004 H 0.94427 0.30978 0.7021 0.0
H1005 H 0.10881 0.21824 0.67523 0.0
H1006 H 0.08101 0.10512 0.69511 0.0
C1007 C 0.30342 0.11195 0.65986 0.0
C1008 C 0.31495 0.15097 0.6582 0.0
C1009 C 0.32932 0.15795 0.67001 0.0
C1010 C 0.32524 0.12367 0.67841 0.0
N1011 N 0.30908 0.09549 0.67265 0.0
Co1012 Co 0.29462 0.04526 0.68206 0.0
N1013 N 0.30327 0.06807 0.7009 0.0
C1014 C 0.32057 0.09843 0.7036 0.0
C1015 C 0.32292 0.10744 0.71763 0.0
C1016 C 0.3063 0.08075 0.72425 0.0
C1017 C 0.2947 0.05673 0.71378 0.0
N1018 N 0.28038 0.99522 0.69157 0.0
C1019 C 0.2747 0.98891 0.70538 0.0
C1020 C 0.26632 0.94823 0.70763 0.0
C1021 C 0.26719 0.92849 0.69478 0.0
C1022 C 0.27599 0.9581 0.6854 0.0
N1023 N 0.28622 0.02384 0.66303 0.0
C1024 C 0.28143 0.9837 0.6598 0.0
C1025 C 0.2762 0.9784 0.64571 0.0
C1026 C 0.27791 0.01767 0.63978 0.0
C1027 C 0.28399 0.04494 0.65061 0.0
N1028 N 0.32864 0.01583 0.68135 0.0
C1029 C 0.36735 0.9524 0.67981 0.0
C1030 C 0.35985 0.97574 0.66781 0.0
C1031 C 0.34088 0.00753 0.66884 0.0
C1032 C 0.35655 0.96489 0.69272 0.0
C1033 C 0.33743 0.99593 0.69325 0.0
N1034 N 0.25981 0.07134 0.68289 0.0
C1035 C 0.21383 0.06302 0.6791 0.0
C1036 C 0.20826 0.10184 0.68521 0.0
C1037 C 0.22969 0.12553 0.68988 0.0
C1038 C 0.25519 0.10993 0.68854 0.0
C1039 C 0.23919 0.04836 0.67827 0.0
H1040 H 0.27108 0.12873 0.69227 0.0
H1041 H 0.24187 0.0177 0.67395 0.0
H1042 H 0.33506 0.02357 0.65932 0.0
H1043 H 0.32869 1.00162 0.70334 0.0
C1044 C 0.33088 0.12239 0.69273 0.0
C1045 C 0.2892 0.09004 0.64869 0.0
C1046 C 0.27888 0.01977 0.71666 0.0
C1047 C 0.2775 0.9541 0.67063 0.0
H1048 H 0.31311 0.17261 0.64948 0.0
H1049 H 0.33989 0.18608 0.67259 0.0
H1050 H 0.33475 0.13132 0.72245 0.0
H1051 H 0.3037 0.07854 0.73554 0.0
H1052 H 0.26055 0.93419 0.71754 0.0
H1053 H 0.26157 0.89663 0.69252 0.0
H1054 H 0.27073 0.94978 0.64045 0.0
H1055 H 0.275 0.02538 0.62877 0.0
H1056 H 0.36761 0.96845 0.65753 0.0
H1057 H 0.36219 0.95002 0.70251 0.0
H1058 H 0.19874 0.04349 0.67482 0.0
H1059 H 0.22695 0.15565 0.69479 0.0
C1060 C 0.0286 0.96735 0.40066 0.0
C1061 C 1.0229 0.99513 0.38983 0.0
C1062 C 1.02136 0.03419 0.3958 0.0
C1063 C 1.02629 0.02826 0.40991 0.0
N1064 N 0.03071 0.98791 0.41314 0.0
Co1065 Co 0.03907 0.96594 0.43222 0.0
N1066 N 1.02578 0.01648 0.44172 0.0
C1067 C 1.02168 0.05374 0.43548 0.0
C1068 C 1.01367 0.08371 0.44485 0.0
C1069 C 1.01303 0.06407 0.45778 0.0
C1070 C 1.02073 0.02308 0.45558 0.0
N1071 N 0.04768 0.94257 0.45108 0.0
C1072 C 0.03965 0.95425 0.46401 0.0
C1073 C 0.0509 0.92942 0.47445 0.0
C1074 C 0.06677 0.90187 0.46779 0.0
C1075 C 0.06434 0.91119 0.45376 0.0
N1076 N 0.05258 0.91512 0.42282 0.0
C1077 C 0.06814 0.88598 0.42861 0.0
C1078 C 0.07179 0.85183 0.42021 0.0
C1079 C 0.05782 0.8599 0.40832 0.0
C1080 C 0.04694 0.89937 0.40997 0.0
N1081 N 0.0735 0.99404 0.43129 0.0
C1082 C 0.11216 0.05742 0.42953 0.0
C1083 C 0.10186 0.04428 0.44251 0.0
C1084 C 0.08277 0.01324 0.44315 0.0
C1085 C 0.1044 0.03452 0.41756 0.0
C1086 C 0.08546 1.0027 0.4187 0.0
N1087 N 1.00388 0.94134 0.43333 0.0
C1088 C 0.97313 0.88921 0.44135 0.0
C1089 C 0.95188 0.91342 0.43664 0.0
C1090 C 0.95788 0.95151 0.43001 0.0
C1091 C 0.98347 0.96492 0.4287 0.0
C1092 C 0.9988 0.90343 0.43947 0.0
H1093 H 0.98651 0.99518 0.42404 0.0
H1094 H 1.01448 0.88415 0.44324 0.0
H1095 H 0.07435 0.00722 0.45331 0.0
H1096 H 0.07937 0.98706 0.4092 0.0
C1097 C 1.0229 0.05778 0.42071 0.0
C1098 C 0.03373 0.92235 0.39862 0.0
C1099 C 1.0249 0.99221 0.46694 0.0
C1100 C 0.07392 0.88677 0.4429 0.0
H1101 H 1.02022 0.98792 0.37879 0.0
H1102 H 1.01635 0.06315 0.39054 0.0
H1103 H 1.00849 0.11579 0.44255 0.0
H1104 H 1.00787 0.07836 0.4677 0.0
H1105 H 0.04861 0.93165 0.48575 0.0
H1106 H 0.07816 0.87727 0.47258 0.0
H1107 H 0.08195 0.82324 0.42278 0.0
H1108 H 0.05593 0.83887 0.39949 0.0
H1109 H 0.10779 0.05879 0.45227 0.0
H1110 H 0.11188 0.0423 0.40722 0.0
H1111 H 0.97021 0.85967 0.44669 0.0
H1112 H 0.94297 0.97142 0.42569 0.0
C1113 C 0.7738 0.78612 0.40122 0.0
C1114 C 0.78219 0.75846 0.39097 0.0
C1115 C 0.78543 0.72019 0.39756 0.0
C1116 C 0.7787 0.72632 0.41144 0.0
N1117 N 0.77164 0.76609 0.41382 0.0
Co1118 Co 0.76046 0.78831 0.43214 0.0
N1119 N 0.77818 0.74389 0.44294 0.0
C1120 C 0.78505 0.7066 0.43772 0.0
C1121 C 0.79515 0.68089 0.44797 0.0
C1122 C 0.79437 0.70372 0.4603 0.0
C1123 C 0.78447 0.74289 0.4569 0.0
N1124 N 0.74725 0.81068 0.45004 0.0
C1125 C 0.75199 0.79628 0.4631 0.0
C1126 C 0.73037 0.80112 0.47168 0.0
C1127 C 0.7128 0.82389 0.46414 0.0
C1128 C 0.72391 0.82895 0.45115 0.0
N1129 N 0.74345 0.83388 0.42167 0.0
C1130 C 0.72378 0.85752 0.42633 0.0
C1131 C 0.71848 0.89066 0.41761 0.0
C1132 C 0.73569 0.88719 0.40672 0.0
C1133 C 0.75006 0.85107 0.40918 0.0
N1134 N 0.72896 0.75223 0.43105 0.0
C1135 C 0.68957 0.68961 0.42958 0.0
C1136 C 0.6947 0.71692 0.41812 0.0
C1137 C 0.71449 0.74766 0.41903 0.0
C1138 C 0.70472 0.6955 0.44168 0.0
C1139 C 0.7234 0.7268 0.4423 0.0
N1140 N 0.79326 0.82066 0.43336 0.0
C1141 C 0.82098 0.87722 0.44134 0.0
C1142 C 0.84342 0.85598 0.43669 0.0
C1143 C 0.83957 0.81777 0.42995 0.0
C1144 C 0.81504 0.80069 0.42871 0.0
C1145 C 0.79606 0.85903 0.43956 0.0
H1146 H 0.81423 0.77001 0.42427 0.0
H1147 H 0.77925 0.87535 0.44346 0.0
H1148 H 0.71849 0.76702 0.40992 0.0
H1149 H 0.73415 0.72866 0.45193 0.0
C1150 C 0.78407 0.6994 0.42299 0.0
C1151 C 0.76683 0.83054 0.39871 0.0
C1152 C 0.77616 0.77561 0.46711 0.0
C1153 C 0.71363 0.85147 0.43983 0.0
H1154 H 0.78582 0.76531 0.37997 0.0
H1155 H 0.79307 0.69197 0.3929 0.0
H1156 H 0.8021 0.64924 0.4467 0.0
H1157 H 0.79904 0.69155 0.47063 0.0
H1158 H 0.72752 0.78941 0.48229 0.0
H1159 H 0.69403 0.83456 0.46759 0.0
H1160 H 0.70455 0.91538 0.41924 0.0
H1161 H 0.73701 0.90864 0.39791 0.0
H1162 H 0.68374 0.71459 0.40845 0.0
H1163 H 0.70311 0.67521 0.45077 0.0
H1164 H 0.82262 0.90706 0.44659 0.0
H1165 H 0.85556 0.80025 0.42563 0.0
C1166 C 0.03382 0.79146 0.34285 0.0
C1167 C 1.02744 0.76391 0.35364 0.0
C1168 C 1.02601 0.72475 0.3477 0.0
C1169 C 0.03169 0.73039 0.33365 0.0
N1170 N 0.03653 0.77063 0.33048 0.0
Co1171 Co 0.0453 0.79261 0.31151 0.0
N1172 N 0.03121 0.74292 0.30188 0.0
C1173 C 1.02674 0.70559 0.308 0.0
C1174 C 1.01803 0.67634 0.29855 0.0
C1175 C 1.01732 0.69655 0.28572 0.0
C1176 C 1.02569 0.73714 0.28804 0.0
N1177 N 0.05431 0.816 0.29275 0.0
C1178 C 0.04599 0.80509 0.2798 0.0
C1179 C 0.05788 0.8293 0.26942 0.0
C1180 C 0.07443 0.8557 0.27615 0.0
C1181 C 0.07175 0.84632 0.29017 0.0
N1182 N 0.05964 0.84247 0.32106 0.0
C1183 C 0.07611 0.87056 0.31544 0.0
C1184 C 0.08031 0.90435 0.32394 0.0
C1185 C 0.06568 0.89713 0.33567 0.0
C1186 C 0.05382 0.85848 0.33384 0.0
N1187 N 0.07931 0.76316 0.31239 0.0
C1188 C 0.11907 0.70173 0.31407 0.0
C1189 C 0.10798 0.71334 0.30114 0.0
C1190 C 0.08834 0.74354 0.30054 0.0
C1191 C 0.11082 0.72379 0.32608 0.0
C1192 C 0.0914 0.75483 0.32498 0.0
N1193 N 1.01053 0.81875 0.31053 0.0
C1194 C 0.98051 0.87347 0.3037 0.0
C1195 C 0.95904 0.84954 0.30824 0.0
C1196 C 0.96452 0.81032 0.31418 0.0
C1197 C 0.98985 0.79553 0.315 0.0
C1198 C 1.00599 0.85769 0.30502 0.0
H1199 H 0.99246 0.76461 0.31921 0.0
H1200 H 1.02195 0.87666 0.30141 0.0
H1201 H 0.07944 0.74881 0.29045 0.0
H1202 H 0.08529 0.77052 0.33446 0.0
C1203 C 0.02799 0.70112 0.32278 0.0
C1204 C 0.03885 0.83657 0.34479 0.0
C1205 C 0.03004 0.76843 0.27681 0.0
C1206 C 0.08198 0.86976 0.30114 0.0
H1207 H 1.02412 0.77137 0.36461 0.0
H1208 H 1.02037 0.696 0.35291 0.0
H1209 H 1.01235 0.64442 0.30075 0.0
H1210 H 1.01164 0.68288 0.27577 0.0
H1211 H 0.05552 0.8274 0.2581 0.0
H1212 H 0.08645 0.87961 0.27142 0.0
H1213 H 0.09115 0.93238 0.32148 0.0
H1214 H 0.06382 0.91845 0.34441 0.0
H1215 H 0.11346 0.69755 0.29152 0.0
H1216 H 0.11909 0.71685 0.33631 0.0
H1217 H 0.97783 0.90392 0.29893 0.0
H1218 H 0.94939 0.79057 0.31837 0.0
C1219 C 0.77372 0.96175 0.34282 0.0
C1220 C 0.77937 0.9888 0.3538 0.0
C1221 C 0.78101 0.02826 0.34801 0.0
C1222 C 0.77616 0.0233 0.33387 0.0
N1223 N 0.77167 0.98319 0.33046 0.0
Co1224 Co 0.76365 0.9624 0.31128 0.0
N1225 N 0.77764 0.01311 0.30205 0.0
C1226 C 0.78169 0.05003 0.30841 0.0
C1227 C 0.7903 0.08026 0.29921 0.0
C1228 C 0.79139 0.06114 0.28626 0.0
C1229 C 0.78334 0.02018 0.28828 0.0
N1230 N 0.75541 0.94021 0.2923 0.0
C1231 C 0.76404 0.95227 0.27949 0.0
C1232 C 0.75286 0.92832 0.26888 0.0
C1233 C 0.73643 0.90093 0.27531 0.0
C1234 C 0.73847 0.90949 0.28939 0.0
N1235 N 0.74946 0.91147 0.32043 0.0
C1236 C 0.73382 0.88296 0.31443 0.0
C1237 C 0.73028 0.84799 0.32257 0.0
C1238 C 0.74444 0.85485 0.33445 0.0
C1239 C 0.75522 0.89454 0.33313 0.0
N1240 N 0.7294 0.9912 0.312 0.0
C1241 C 0.69039 0.05415 0.3136 0.0
C1242 C 0.70134 0.04204 0.30068 0.0
C1243 C 0.72059 0.01124 0.30012 0.0
C1244 C 0.69789 0.03061 0.32556 0.0
C1245 C 0.71701 0.99907 0.32449 0.0
N1246 N 0.79861 0.93695 0.31046 0.0
C1247 C 0.82902 0.88331 0.30338 0.0
C1248 C 0.8503 0.90704 0.30823 0.0
C1249 C 0.84451 0.94564 0.31444 0.0
C1250 C 0.81907 0.96002 0.31523 0.0
C1251 C 0.80346 0.8986 0.30469 0.0
H1252 H 0.81618 0.99051 0.31966 0.0
H1253 H 0.7877 0.87973 0.30084 0.0
H1254 H 0.72943 0.00592 0.29004 0.0
H1255 H 0.72281 0.98287 0.33399 0.0
C1256 C 0.78001 0.05338 0.32319 0.0
C1257 C 0.76867 0.91654 0.34459 0.0
C1258 C 0.77944 0.98982 0.27683 0.0
C1259 C 0.72835 0.88474 0.3001 0.0
H1260 H 0.78202 0.98085 0.3648 0.0
H1261 H 0.78613 0.05681 0.35341 0.0
H1262 H 0.79561 0.11214 0.30163 0.0
H1263 H 0.79707 0.07576 0.27642 0.0
H1264 H 0.75561 0.93101 0.2576 0.0
H1265 H 0.72494 0.87688 0.27033 0.0
H1266 H 0.72026 0.81953 0.31975 0.0
H1267 H 0.74663 0.83271 0.34301 0.0
H1268 H 0.69571 0.05707 0.29092 0.0
H1269 H 0.69001 0.03759 0.33584 0.0
H1270 H 0.83191 0.85338 0.29838 0.0
H1271 H 0.85948 0.96518 0.31884 0.0
C1272 C 1.00345 0.61099 0.08382 0.0
C1273 C 0.99186 0.64985 0.08561 0.0
C1274 C 0.9777 0.65761 0.07377 0.0
C1275 C 0.98192 0.62391 0.06523 0.0
N1276 N 0.99797 0.59533 0.07094 0.0
Co1277 Co 1.01235 0.54547 0.06139 0.0
N1278 N 1.00372 0.56918 0.04259 0.0
C1279 C 0.98664 0.60001 0.03997 0.0
C1280 C 0.98433 0.60977 0.02596 0.0
C1281 C 1.00071 0.58308 0.01926 0.0
C1282 C 1.01212 0.55828 0.02965 0.0
N1283 N 1.02649 0.49579 0.05174 0.0
C1284 C 0.03187 0.48988 0.03789 0.0
C1285 C 0.04012 0.44923 0.03557 0.0
C1286 C 0.03946 0.42908 0.0484 0.0
C1287 C 0.0309 0.45842 0.05785 0.0
N1288 N 1.02076 0.52315 0.08038 0.0
C1289 C 1.02558 0.48285 0.0835 0.0
C1290 C 0.03075 0.47682 0.09759 0.0
C1291 C 0.02898 0.51577 0.10363 0.0
C1292 C 1.02291 0.54358 0.09287 0.0
N1293 N 0.97827 0.51608 0.06207 0.0
C1294 C 0.93958 0.45248 0.06354 0.0
C1295 C 0.94715 0.4753 0.07557 0.0
C1296 C 0.9661 0.50718 0.07458 0.0
C1297 C 0.95027 0.46564 0.05064 0.0
C1298 C 0.96938 0.49676 0.05014 0.0
N1299 N 0.0472 0.57152 0.0606 0.0
C1300 C 0.09319 0.56312 0.06442 0.0
C1301 C 0.09881 0.60223 0.05841 0.0
C1302 C 0.07737 0.62606 0.05375 0.0
C1303 C 0.05186 0.61036 0.05503 0.0
C1304 C 0.06782 0.54836 0.06518 0.0
H1305 H 0.03599 0.62933 0.05133 0.0
H1306 H 0.06512 0.5175 0.06943 0.0
H1307 H 0.97197 0.52279 0.08413 0.0
H1308 H 0.97802 0.50297 0.04004 0.0
C1309 C 0.97641 0.62349 0.0509 0.0
C1310 C 1.0176 0.58851 0.09495 0.0
C1311 C 1.02747 0.521 0.02663 0.0
C1312 C 0.02947 0.45379 0.07261 0.0
H1313 H 0.99353 0.67087 0.09446 0.0
H1314 H 0.96713 0.68588 0.07127 0.0
H1315 H 0.97264 0.63408 0.02121 0.0
H1316 H 1.00324 0.58134 0.00796 0.0
H1317 H 0.04564 0.43547 0.02561 0.0
H1318 H 0.04499 0.39709 0.0506 0.0
H1319 H 0.03619 0.44794 0.10277 0.0
H1320 H 0.03182 0.5229 0.11466 0.0
H1321 H 0.93947 0.46753 0.08586 0.0
H1322 H 0.94457 0.45123 0.04082 0.0
H1323 H 0.10825 0.54341 0.0687 0.0
H1324 H 0.08008 0.65639 0.0489 0.0
C1325 C 0.30192 0.65197 0.08398 0.0
C1326 C 0.31326 0.613 0.08609 0.0
C1327 C 0.32784 0.60489 0.07445 0.0
C1328 C 0.32409 0.63853 0.06571 0.0
N1329 N 0.30793 0.66734 0.0711 0.0
Co1330 Co 0.29405 0.71713 0.06118 0.0
N1331 N 0.30327 0.69302 0.04262 0.0
C1332 C 0.32052 0.66228 0.04032 0.0
C1333 C 0.3234 0.65245 0.02638 0.0
C1334 C 0.30719 0.67897 0.01939 0.0
C1335 C 0.29529 0.70369 0.02955 0.0
N1336 N 0.28039 0.76671 0.05114 0.0
C1337 C 0.27515 0.7721 0.03724 0.0
C1338 C 0.26699 0.81268 0.03459 0.0
C1339 C 0.26754 0.83331 0.04729 0.0
C1340 C 0.27595 0.80429 0.05698 0.0
N1341 N 0.28514 0.74 0.07995 0.0
C1342 C 0.28044 0.78042 0.0828 0.0
C1343 C 0.27493 0.78684 0.09681 0.0
C1344 C 0.27639 0.74802 0.10309 0.0
C1345 C 0.28261 0.7199 0.09253 0.0
N1346 N 0.32821 0.74609 0.06207 0.0
C1347 C 0.36815 0.80714 0.06377 0.0
C1348 C 0.35967 0.78507 0.07579 0.0
C1349 C 0.34017 0.75421 0.07468 0.0
C1350 C 0.35725 0.79563 0.05081 0.0
C1351 C 0.33751 0.76558 0.05019 0.0
N1352 N 0.25914 0.69139 0.06022 0.0
C1353 C 0.21312 0.70012 0.06377 0.0
C1354 C 0.20755 0.66065 0.05813 0.0
C1355 C 0.22902 0.63656 0.05375 0.0
C1356 C 0.25452 0.65229 0.05497 0.0
C1357 C 0.23849 0.71487 0.06448 0.0
H1358 H 0.27044 0.6331 0.05151 0.0
H1359 H 0.24116 0.74593 0.06847 0.0
H1360 H 0.33388 0.73852 0.08418 0.0
H1361 H 0.32875 0.76032 0.04008 0.0
C1362 C 0.33026 0.63881 0.05146 0.0
C1363 C 0.28771 0.67499 0.09489 0.0
C1364 C 0.2796 0.74045 0.02625 0.0
C1365 C 0.27699 0.8093 0.07172 0.0
H1366 H 0.31123 0.59223 0.09505 0.0
H1367 H 0.33842 0.57651 0.07222 0.0
H1368 H 0.33529 0.62815 0.02186 0.0
H1369 H 0.30503 0.68056 0.00805 0.0
H1370 H 0.26157 0.82608 0.02452 0.0
H1371 H 0.26196 0.86536 0.04924 0.0
H1372 H 0.2695 0.81591 0.10179 0.0
H1373 H 0.27325 0.74117 0.11414 0.0
H1374 H 0.36781 0.79191 0.08604 0.0
H1375 H 0.36295 0.81139 0.04117 0.0
H1376 H 0.19803 0.72009 0.06781 0.0
H1377 H 0.22633 0.60595 0.04919 0.0
C1378 C 1.00259 0.65115 0.16012 0.0
C1379 C 0.99098 0.61226 0.15839 0.0
C1380 C 0.97666 0.60481 0.17021 0.0
C1381 C 0.98082 0.63871 0.17867 0.0
N1382 N 0.99698 0.66708 0.17294 0.0
Co1383 Co 1.01132 0.7171 0.18241 0.0
N1384 N 1.00258 0.69376 0.20123 0.0
C1385 C 0.98528 0.66328 0.20388 0.0
C1386 C 0.98275 0.65399 0.21792 0.0
C1387 C 0.99926 0.68061 0.22458 0.0
C1388 C 1.01098 0.70484 0.21415 0.0
N1389 N 1.02543 0.76692 0.19198 0.0
C1390 C 0.0311 0.7728 0.2058 0.0
C1391 C 0.03945 0.81342 0.20807 0.0
C1392 C 0.03857 0.83357 0.19523 0.0
C1393 C 0.02978 0.80424 0.18583 0.0
N1394 N 1.01979 0.73913 0.1634 0.0
C1395 C 1.02452 0.77941 0.16021 0.0
C1396 C 0.02979 0.78519 0.14612 0.0
C1397 C 0.02816 0.74611 0.14016 0.0
C1398 C 1.02209 0.71845 0.15097 0.0
N1399 N 0.97726 0.7463 0.18162 0.0
C1400 C 0.93756 0.80774 0.17989 0.0
C1401 C 0.94559 0.78524 0.16793 0.0
C1402 C 0.96498 0.75421 0.16906 0.0
C1403 C 0.94879 0.79647 0.19282 0.0
C1404 C 0.96839 0.76622 0.19345 0.0
N1405 N 0.04613 0.69115 0.18327 0.0
C1406 C 0.09208 0.6997 0.17943 0.0
C1407 C 0.09764 0.66038 0.18527 0.0
C1408 C 0.07625 0.63637 0.18988 0.0
C1409 C 0.05076 0.65215 0.1887 0.0
C1410 C 0.06673 0.71446 0.17874 0.0
H1411 H 0.03487 0.63312 0.19236 0.0
H1412 H 0.06403 0.74541 0.17457 0.0
H1413 H 0.97094 0.7382 0.15961 0.0
H1414 H 0.97742 0.76116 0.20352 0.0
C1415 C 0.9751 0.63956 0.19298 0.0
C1416 C 1.01688 0.67342 0.14899 0.0
C1417 C 1.0269 0.74158 0.21706 0.0
C1418 C 0.02834 0.80868 0.17106 0.0
H1419 H 0.99274 0.59102 0.14961 0.0
H1420 H 0.96603 0.57663 0.17274 0.0
H1421 H 0.97087 0.62999 0.22271 0.0
H1422 H 1.00172 0.68261 0.23589 0.0
H1423 H 0.04522 0.82716 0.21799 0.0
H1424 H 0.04419 0.8655 0.193 0.0
H1425 H 0.03521 0.81401 0.14089 0.0
H1426 H 0.03109 0.73878 0.12915 0.0
H1427 H 0.93718 0.79188 0.15771 0.0
H1428 H 0.94347 0.81258 0.20241 0.0
H1429 H 0.10716 0.7195 0.17522 0.0
H1430 H 0.07903 0.60584 0.19458 0.0
C1431 C 0.30321 0.61106 0.16028 0.0
C1432 C 0.31541 0.64958 0.15875 0.0
C1433 C 0.32916 0.65622 0.17081 0.0
C1434 C 0.3241 0.62225 0.17919 0.0
N1435 N 0.30792 0.59459 0.17317 0.0
Co1436 Co 0.2923 0.54488 0.18235 0.0
N1437 N 0.29998 0.56757 0.20131 0.0
C1438 C 0.31736 0.59759 0.2043 0.0
C1439 C 0.31876 0.60695 0.21834 0.0
C1440 C 0.30145 0.5808 0.22466 0.0
C1441 C 0.29046 0.55664 0.21404 0.0
N1442 N 0.27671 0.49542 0.19159 0.0
C1443 C 0.27007 0.48935 0.20529 0.0
C1444 C 0.26105 0.44895 0.20738 0.0
C1445 C 0.2625 0.42913 0.19456 0.0
C1446 C 0.27228 0.45841 0.18535 0.0
N1447 N 0.28516 0.52341 0.16319 0.0
C1448 C 0.28035 0.48333 0.1599 0.0
C1449 C 0.27596 0.47809 0.14571 0.0
C1450 C 0.27821 0.51734 0.13981 0.0
C1451 C 0.28374 0.54452 0.15076 0.0
N1452 N 0.32601 0.51468 0.18237 0.0
C1453 C 0.36566 0.45235 0.18157 0.0
C1454 C 0.36006 0.47808 0.16977 0.0
C1455 C 0.34028 0.50875 0.17037 0.0
C1456 C 0.35162 0.46119 0.19393 0.0
C1457 C 0.33272 0.49246 0.19418 0.0
N1458 N 0.25776 0.5719 0.18247 0.0
C1459 C 0.21191 0.56451 0.17805 0.0
C1460 C 0.20626 0.60265 0.1846 0.0
C1461 C 0.2276 0.62574 0.1897 0.0
C1462 C 0.25307 0.61005 0.18844 0.0
C1463 C 0.23725 0.54969 0.17731 0.0
H1464 H 0.26887 0.62831 0.19256 0.0
H1465 H 0.23996 0.51938 0.17272 0.0
H1466 H 0.33582 0.52639 0.16094 0.0
H1467 H 0.32231 0.4964 0.20388 0.0
C1468 C 0.3287 0.62105 0.19361 0.0
C1469 C 0.28902 0.58962 0.14899 0.0
C1470 C 0.27447 0.51969 0.21671 0.0
C1471 C 0.27509 0.45407 0.17065 0.0
H1472 H 0.31434 0.67123 0.14999 0.0
H1473 H 0.33993 0.68403 0.17354 0.0
H1474 H 0.33044 0.63069 0.22335 0.0
H1475 H 0.29806 0.57898 0.2359 0.0
H1476 H 0.25463 0.43507 0.2172 0.0
H1477 H 0.25677 0.39738 0.19222 0.0
H1478 H 0.27053 0.44959 0.14037 0.0
H1479 H 0.27591 0.52511 0.12877 0.0
H1480 H 0.37041 0.47436 0.15996 0.0
H1481 H 0.35398 0.44308 0.20346 0.0
H1482 H 0.19687 0.54557 0.17341 0.0
H1483 H 0.22479 0.65536 0.19493 0.0
C1484 C 0.03223 0.46706 0.90091 0.0
C1485 C 1.02629 0.49466 0.89007 0.0
C1486 C 1.0245 0.53374 0.89601 0.0
C1487 C 0.02954 0.528 0.91012 0.0
N1488 N 0.0343 0.48776 0.91335 0.0
Co1489 Co 0.0425 0.46582 0.93242 0.0
N1490 N 0.02829 0.51572 0.9419 0.0
C1491 C 1.02397 0.55297 0.9357 0.0
C1492 C 1.01529 0.5825 0.94504 0.0
C1493 C 1.01446 0.56259 0.95792 0.0
C1494 C 1.02273 0.52189 0.95572 0.0
N1495 N 0.05093 0.44249 0.9513 0.0
C1496 C 0.04237 0.45364 0.96418 0.0
C1497 C 0.05366 0.42904 0.97466 0.0
C1498 C 0.07013 0.40223 0.96807 0.0
C1499 C 0.06798 0.41172 0.95404 0.0
N1500 N 0.05697 0.41575 0.92303 0.0
C1501 C 0.07298 0.38732 0.92885 0.0
C1502 C 0.07729 0.35343 0.9204 0.0
C1503 C 0.06322 0.36093 0.9085 0.0
C1504 C 0.05161 0.39983 0.91017 0.0
N1505 N 0.0766 0.49512 0.93177 0.0
C1506 C 0.11545 0.55845 0.93026 0.0
C1507 C 0.10458 0.54566 0.94316 0.0
C1508 C 0.08539 0.51468 0.94368 0.0
C1509 C 0.10794 0.5354 0.91826 0.0
C1510 C 0.08892 0.50366 0.91928 0.0
N1511 N 1.00764 0.43983 0.93316 0.0
C1512 C 0.97742 0.3854 0.94001 0.0
C1513 C 0.95604 0.40918 0.93525 0.0
C1514 C 0.9617 0.44821 0.92919 0.0
C1515 C 0.98708 0.46293 0.92848 0.0
C1516 C 1.00293 0.40107 0.93878 0.0
H1517 H 0.98983 0.49373 0.92418 0.0
H1518 H 1.01877 0.38215 0.94256 0.0
H1519 H 0.07662 0.50875 0.95376 0.0
H1520 H 0.08312 0.48786 0.90976 0.0
C1521 C 1.02556 0.5573 0.92093 0.0
C1522 C 0.03752 0.42208 0.89896 0.0
C1523 C 1.02699 0.49099 0.96706 0.0
C1524 C 0.07833 0.38803 0.94319 0.0
H1525 H 1.02355 0.4873 0.87904 0.0
H1526 H 1.01914 0.56253 0.89074 0.0
H1527 H 1.00979 0.61445 0.94276 0.0
H1528 H 1.00882 0.57655 0.96783 0.0
H1529 H 0.051 0.43099 0.98595 0.0
H1530 H 0.08176 0.37801 0.97292 0.0
H1531 H 0.08783 0.32522 0.923 0.0
H1532 H 0.06162 0.3397 0.89971 0.0
H1533 H 0.11022 0.56024 0.95296 0.0
H1534 H 0.11573 0.54289 0.90798 0.0
H1535 H 0.97464 0.35514 0.9449 0.0
H1536 H 0.94668 0.46785 0.92484 0.0
C1537 C 0.77241 0.29233 0.9006 0.0
C1538 C 0.7787 0.26456 0.88995 0.0
C1539 C 0.78023 0.22555 0.8961 0.0
C1540 C 0.77469 0.2315 0.91013 0.0
N1541 N 0.76988 0.2718 0.91311 0.0
Co1542 Co 0.76099 0.29405 0.93197 0.0
N1543 N 0.77488 0.24436 0.94184 0.0
C1544 C 0.77939 0.20697 0.93589 0.0
C1545 C 0.78796 0.17778 0.94548 0.0
C1546 C 0.78855 0.19809 0.95823 0.0
C1547 C 0.78024 0.23867 0.95572 0.0
N1548 N 0.75181 0.3176 0.95062 0.0
C1549 C 0.75992 0.3067 0.96364 0.0
C1550 C 0.74796 0.33102 0.97389 0.0
C1551 C 0.73158 0.3575 0.967 0.0
C1552 C 0.73442 0.34805 0.95303 0.0
N1553 N 0.74688 0.34395 0.9222 0.0
C1554 C 0.73058 0.37237 0.9277 0.0
C1555 C 0.72667 0.40621 0.91907 0.0
C1556 C 0.74128 0.39866 0.9074 0.0
C1557 C 0.75282 0.35977 0.90937 0.0
N1558 N 0.72693 0.26478 0.93107 0.0
C1559 C 0.68714 0.20342 0.92938 0.0
C1560 C 0.6981 0.21488 0.94233 0.0
C1561 C 0.71776 0.24507 0.94294 0.0
C1562 C 0.69551 0.22563 0.91737 0.0
C1563 C 0.71493 0.25663 0.91847 0.0
N1564 N 0.79582 0.32004 0.93295 0.0
C1565 C 0.82584 0.37477 0.93965 0.0
C1566 C 0.84734 0.35087 0.9352 0.0
C1567 C 0.84185 0.3116 0.92939 0.0
C1568 C 0.81651 0.2968 0.9286 0.0
C1569 C 0.80036 0.35899 0.93835 0.0
H1570 H 0.8139 0.26587 0.92449 0.0
H1571 H 0.7844 0.37799 0.94188 0.0
H1572 H 0.72657 0.25026 0.95305 0.0
H1573 H 0.72112 0.27244 0.90898 0.0
C1574 C 0.77828 0.20236 0.92113 0.0
C1575 C 0.76725 0.33733 0.8984 0.0
C1576 C 0.77579 0.27004 0.96681 0.0
C1577 C 0.72449 0.37164 0.94196 0.0
H1578 H 0.78186 0.27176 0.87893 0.0
H1579 H 0.78576 0.19668 0.89102 0.0
H1580 H 0.79363 0.14583 0.94342 0.0
H1581 H 0.79409 0.18449 0.96825 0.0
H1582 H 0.75017 0.32916 0.98522 0.0
H1583 H 0.71958 0.38152 0.97161 0.0
H1584 H 0.71597 0.43441 0.92141 0.0
H1585 H 0.74325 0.4198 0.89854 0.0
H1586 H 0.69251 0.199 0.95196 0.0
H1587 H 0.68733 0.21881 0.90713 0.0
H1588 H 0.82849 0.40522 0.94433 0.0
H1589 H 0.85699 0.29184 0.92529 0.0
C1590 C 0.03249 0.2924 0.8428 0.0
C1591 C 1.02628 0.26457 0.85353 0.0
C1592 C 1.02462 0.22562 0.84748 0.0
C1593 C 0.03001 0.23167 0.83342 0.0
N1594 N 0.03485 0.27198 0.83032 0.0
Co1595 Co 0.04356 0.29433 0.81138 0.0
N1596 N 0.02955 0.24467 0.80167 0.0
C1597 C 1.02506 0.20727 0.80774 0.0
C1598 C 1.01647 0.17804 0.79825 0.0
C1599 C 1.01589 0.19831 0.78543 0.0
C1600 C 1.0242 0.23891 0.78781 0.0
N1601 N 0.05253 0.31801 0.79263 0.0
C1602 C 0.04429 0.30714 0.77966 0.0
C1603 C 0.056 0.33174 0.76932 0.0
C1604 C 0.07237 0.35832 0.7761 0.0
C1605 C 0.06976 0.34867 0.7901 0.0
N1606 N 0.0578 0.34419 0.821 0.0
C1607 C 0.07402 0.37268 0.81538 0.0
C1608 C 0.07814 0.40637 0.82394 0.0
C1609 C 0.06376 0.39865 0.83571 0.0
C1610 C 0.05213 0.35983 0.83385 0.0
N1611 N 0.07763 0.26508 0.81223 0.0
C1612 C 0.11755 0.20395 0.8139 0.0
C1613 C 0.10644 0.21551 0.80097 0.0
C1614 C 0.08671 0.24557 0.80037 0.0
C1615 C 0.10925 0.22594 0.82591 0.0
C1616 C 0.08975 0.25683 0.82481 0.0
N1617 N 1.00875 0.32037 0.81043 0.0
C1618 C 0.97878 0.37517 0.80361 0.0
C1619 C 0.95726 0.35134 0.80815 0.0
C1620 C 0.96272 0.31206 0.81408 0.0
C1621 C 0.98805 0.29718 0.81489 0.0
C1622 C 1.00424 0.35933 0.80494 0.0
H1623 H 0.99065 0.26624 0.81908 0.0
H1624 H 1.0202 0.3783 0.80133 0.0
H1625 H 0.07781 0.25085 0.79028 0.0
H1626 H 0.08363 0.27248 0.8343 0.0
C1627 C 1.02629 0.2026 0.8225 0.0
C1628 C 0.03778 0.33734 0.8449 0.0
C1629 C 0.02869 0.27016 0.7766 0.0
C1630 C 0.07983 0.37217 0.80108 0.0
H1631 H 1.02326 0.27169 0.86455 0.0
H1632 H 1.01911 0.19672 0.85263 0.0
H1633 H 1.01084 0.14608 0.80041 0.0
H1634 H 1.01036 0.18467 0.77546 0.0
H1635 H 0.05365 0.32998 0.75801 0.0
H1636 H 0.08422 0.38251 0.7714 0.0
H1637 H 0.08883 0.43458 0.82151 0.0
H1638 H 0.06198 0.41965 0.84456 0.0
H1639 H 0.11198 0.19979 0.79134 0.0
H1640 H 0.11755 0.21903 0.83613 0.0
H1641 H 0.97617 0.40563 0.79884 0.0
H1642 H 0.94756 0.29234 0.81825 0.0
C1643 C 0.77308 0.46812 0.84232 0.0
C1644 C 0.77918 0.49544 0.85314 0.0
C1645 C 0.781 0.53466 0.84717 0.0
C1646 C 0.77582 0.52927 0.83308 0.0
N1647 N 0.77094 0.48913 0.82988 0.0
Co1648 Co 0.76251 0.46766 0.81085 0.0
N1649 N 0.77682 0.51763 0.80131 0.0
C1650 C 0.78127 0.55475 0.80747 0.0
C1651 C 0.79009 0.58432 0.79808 0.0
C1652 C 0.79089 0.56456 0.78523 0.0
C1653 C 0.78246 0.52391 0.78749 0.0
N1654 N 0.75382 0.44484 0.79202 0.0
C1655 C 0.76233 0.45618 0.77912 0.0
C1656 C 0.75068 0.43218 0.76867 0.0
C1657 C 0.73408 0.40548 0.7753 0.0
C1658 C 0.73649 0.41449 0.78933 0.0
N1659 N 0.74797 0.41751 0.82029 0.0
C1660 C 0.73178 0.38936 0.81454 0.0
C1661 C 0.72756 0.35521 0.82297 0.0
C1662 C 0.74186 0.36225 0.8348 0.0
C1663 C 0.7535 0.40117 0.83311 0.0
N1664 N 0.72852 0.49721 0.81157 0.0
C1665 C 0.6898 0.56063 0.81316 0.0
C1666 C 0.70062 0.54825 0.80024 0.0
C1667 C 0.71974 0.51721 0.79968 0.0
C1668 C 0.6973 0.53718 0.82514 0.0
C1669 C 0.71627 0.50541 0.82408 0.0
N1670 N 0.79727 0.44142 0.81004 0.0
C1671 C 0.82727 0.3868 0.80326 0.0
C1672 C 0.84874 0.41035 0.80796 0.0
C1673 C 0.84325 0.44937 0.81395 0.0
C1674 C 0.81793 0.46431 0.81466 0.0
C1675 C 0.80181 0.40269 0.80449 0.0
H1676 H 0.81531 0.49508 0.8189 0.0
H1677 H 0.78589 0.38395 0.80076 0.0
H1678 H 0.72849 0.51158 0.78959 0.0
H1679 H 0.72208 0.48928 0.83359 0.0
C1680 C 0.77979 0.5588 0.82223 0.0
C1681 C 0.76771 0.4231 0.84429 0.0
C1682 C 0.77817 0.4931 0.77621 0.0
C1683 C 0.72618 0.39059 0.80021 0.0
H1684 H 0.78202 0.48781 0.86415 0.0
H1685 H 0.7865 0.56329 0.85241 0.0
H1686 H 0.79575 0.61616 0.80032 0.0
H1687 H 0.79665 0.57857 0.77531 0.0
H1688 H 0.75322 0.4344 0.75737 0.0
H1689 H 0.72221 0.38163 0.77049 0.0
H1690 H 0.71692 0.32713 0.82041 0.0
H1691 H 0.74357 0.34072 0.84357 0.0
H1692 H 0.69499 0.5632 0.79046 0.0
H1693 H 0.68954 0.54437 0.83543 0.0
H1694 H 0.82993 0.35655 0.79844 0.0
H1695 H 0.85836 0.46884 0.81824 0.0
C1696 C 0.54175 0.11918 0.1154 0.0
C1697 C 0.51841 0.10755 0.10894 0.0
H1698 H 0.55971 0.14959 0.13316 0.0
C1699 C 0.49506 0.11893 0.1154 0.0
H1700 H 0.56 0.11099 0.11059 0.0
C1701 C 0.49493 0.14369 0.12744 0.0
C1702 C 0.5181 0.15433 0.13422 0.0
H1703 H 0.47678 0.11019 0.11071 0.0
H1704 H 0.47655 0.15297 0.13188 0.0
C1705 C 0.54159 0.14198 0.12809 0.0
C1706 C 0.80949 0.11474 0.12731 0.0
C1707 C 0.78607 0.10446 0.13392 0.0
H1708 H 0.82833 0.14849 0.11077 0.0
C1709 C 0.76283 0.11753 0.12763 0.0
H1710 H 0.82769 0.10521 0.13195 0.0
C1711 C 0.76317 0.14066 0.11495 0.0
C1712 C 0.78676 0.15199 0.10867 0.0
H1713 H 0.74455 0.1104 0.13262 0.0
H1714 H 0.74511 0.14951 0.11003 0.0
C1715 C 0.80985 0.13987 0.11528 0.0
C1716 C 0.56005 0.86819 0.86561 0.0
C1717 C 0.53682 0.85706 0.85899 0.0
H1718 H 0.57829 0.90177 0.88229 0.0
C1719 C 0.51336 0.8688 0.86529 0.0
H1720 H 0.57841 0.85939 0.86103 0.0
C1721 C 0.5133 0.89144 0.878 0.0
C1722 C 0.53669 0.90352 0.88432 0.0
H1723 H 0.4952 0.86079 0.86034 0.0
H1724 H 0.4951 0.89915 0.88296 0.0
C1725 C 0.55998 0.89274 0.8777 0.0
C1726 C 0.24516 0.8941 0.8657 0.0
C1727 C 0.26851 0.90462 0.85907 0.0
H1728 H 0.22653 0.86045 0.88233 0.0
C1729 C 0.29183 0.892 0.86537 0.0
H1730 H 0.2269 0.90349 0.8611 0.0
C1731 C 0.29163 0.86901 0.87808 0.0
C1732 C 0.26811 0.85748 0.88439 0.0
H1733 H 0.31008 0.89947 0.86039 0.0
H1734 H 0.30975 0.86051 0.88301 0.0
C1735 C 0.24494 0.86918 0.87778 0.0
C1736 C 0.49577 0.62418 0.61507 0.0
C1737 C 0.5188 0.61328 0.60821 0.0
H1738 H 0.47805 0.65695 0.6321 0.0
C1739 C 0.54245 0.62458 0.6144 0.0
H1740 H 0.47727 0.6156 0.61061 0.0
C1741 C 0.54291 0.64659 0.62723 0.0
C1742 C 0.51971 0.65843 0.63379 0.0
H1743 H 0.56046 0.61666 0.60927 0.0
H1744 H 0.56125 0.65393 0.63209 0.0
C1745 C 0.49621 0.64812 0.6273 0.0
C1746 C 0.76478 0.61687 0.62716 0.0
C1747 C 0.78776 0.60083 0.6329 0.0
H1748 H 0.74733 0.65144 0.61005 0.0
C1749 C 0.81107 0.60792 0.62574 0.0
H1750 H 0.74662 0.61227 0.6326 0.0
C1751 C 0.81171 0.63262 0.61361 0.0
C1752 C 0.7888 0.64806 0.60761 0.0
H1753 H 0.82908 0.59622 0.63003 0.0
H1754 H 0.83016 0.63881 0.60865 0.0
C1755 C 0.76525 0.63994 0.61448 0.0
C1756 C 0.55904 0.37946 0.37901 0.0
C1757 C 0.53572 0.3925 0.38512 0.0
H1758 H 0.5774 0.34501 0.36256 0.0
C1759 C 0.5124 0.38269 0.37831 0.0
H1760 H 0.57733 0.38712 0.3839 0.0
C1761 C 0.51253 0.36014 0.36559 0.0
C1762 C 0.53595 0.34634 0.35975 0.0
H1763 H 0.49418 0.39242 0.38282 0.0
H1764 H 0.49449 0.35413 0.3602 0.0
C1765 C 0.55907 0.35512 0.36687 0.0
C1766 C 0.29142 0.38968 0.36596 0.0
C1767 C 0.26854 0.40276 0.3593 0.0
H1768 H 0.30814 0.35805 0.38392 0.0
C1769 C 0.24476 0.39289 0.36559 0.0
H1770 H 0.30997 0.39659 0.36124 0.0
C1771 C 0.24371 0.36811 0.37768 0.0
C1772 C 0.26642 0.35599 0.38465 0.0
H1773 H 0.22683 0.40256 0.36068 0.0
H1774 H 0.22499 0.35981 0.38195 0.0
C1775 C 0.29037 0.36691 0.3787 0.0
C1776 C 0.04335 0.11745 0.6157 0.0
C1777 C 1.02004 0.10446 0.60951 0.0
H1778 H 0.06129 0.14889 0.63326 0.0
C1779 C 0.99671 0.11425 0.61626 0.0
H1780 H 0.06157 0.11059 0.61063 0.0
C1781 C 0.99648 0.13879 0.62835 0.0
C1782 C 1.01965 0.15088 0.63485 0.0
H1783 H 0.97846 0.10463 0.61172 0.0
H1784 H 0.97807 0.14697 0.633 0.0
C1785 C 0.04317 0.14007 0.62842 0.0
C1786 C 0.31153 0.14675 0.61582 0.0
C1787 C 0.28826 0.15742 0.60913 0.0
H1788 H 0.32996 0.11288 0.63247 0.0
C1789 C 0.26487 0.14473 0.61534 0.0
H1790 H 0.32984 0.15625 0.61131 0.0
C1791 C 0.26491 0.12158 0.62802 0.0
C1792 C 0.28836 0.10993 0.63439 0.0
H1793 H 0.24668 0.15235 0.61032 0.0
H1794 H 0.24674 0.11311 0.63289 0.0
C1795 C 0.3116 0.12164 0.62786 0.0
C1796 C 1.0127 0.86813 0.36468 0.0
C1797 C 0.03672 0.85654 0.35899 0.0
H1798 H 0.99281 0.89852 0.38181 0.0
C1799 C 0.05931 0.86814 0.36616 0.0
H1800 H 0.99501 0.85972 0.35931 0.0
C1801 C 0.0581 0.89288 0.3782 0.0
C1802 C 0.03422 0.90354 0.3842 0.0
H1803 H 0.07807 0.85938 0.36209 0.0
H1804 H 0.07596 0.90202 0.38328 0.0
C1805 C 1.01145 0.89105 0.37732 0.0
C1806 C 0.79184 0.86442 0.37872 0.0
C1807 C 0.7684 0.84959 0.38431 0.0
H1808 H 0.81043 0.89743 0.36159 0.0
C1809 C 0.74548 0.85764 0.37688 0.0
H1810 H 0.80977 0.85882 0.38429 0.0
C1811 C 0.74562 0.8826 0.36482 0.0
C1812 C 0.76896 0.89643 0.35889 0.0
H1813 H 0.72714 0.84636 0.38087 0.0
H1814 H 0.72739 0.88968 0.35975 0.0
C1815 C 0.79216 0.88721 0.36596 0.0
C1816 C 0.04138 0.64238 0.1284 0.0
C1817 C 1.01787 0.65399 0.13468 0.0
H1818 H 0.05982 0.61214 0.11076 0.0
C1819 C 0.9947 0.64275 0.12801 0.0
H1820 H 0.0595 0.65048 0.13339 0.0
C1821 C 0.99489 0.61825 0.1159 0.0
C1822 C 1.01824 0.60758 0.10932 0.0
H1823 H 0.9763 0.65147 0.13255 0.0
H1824 H 0.97662 0.60919 0.11125 0.0
C1825 C 0.04157 0.61974 0.11569 0.0
C1826 C 0.26432 0.62086 0.12846 0.0
C1827 C 0.28794 0.60993 0.13478 0.0
H1828 H 0.24564 0.65053 0.1107 0.0
C1829 C 0.31101 0.62196 0.12815 0.0
H1830 H 0.24628 0.61198 0.1334 0.0
C1831 C 0.3106 0.6466 0.11602 0.0
C1832 C 0.28716 0.65652 0.10938 0.0
H1833 H 0.32949 0.61352 0.13269 0.0
H1834 H 0.32878 0.65611 0.11134 0.0
C1835 C 0.26394 0.64359 0.11571 0.0
C1836 C 0.06011 0.36701 0.86598 0.0
C1837 C 0.03688 0.35638 0.85927 0.0
H1838 H 0.07841 0.40017 0.88275 0.0
C1839 C 1.01344 0.3685 0.86551 0.0
H1840 H 0.07846 0.35797 0.86144 0.0
C1841 C 1.01339 0.39108 0.87824 0.0
C1842 C 0.03679 0.40267 0.88464 0.0
H1843 H 0.99528 0.36091 0.86048 0.0
H1844 H 0.99519 0.39917 0.88312 0.0
C1845 C 0.06008 0.39146 0.8781 0.0
C1846 C 0.74502 0.36723 0.87725 0.0
C1847 C 0.76823 0.35648 0.884 0.0
H1848 H 0.72679 0.40084 0.86048 0.0
C1849 C 0.7917 0.36879 0.87779 0.0
H1850 H 0.72666 0.35807 0.88178 0.0
C1851 C 0.79179 0.39166 0.86505 0.0
C1852 C 0.76841 0.40338 0.85862 0.0
H1853 H 0.80984 0.36114 0.88285 0.0
H1854 H 0.81001 0.39988 0.86018 0.0
C1855 C 0.7451 0.39201 0.86514 0.0
C1856 C 0.386 0.87409 0.07481 0.0
C1857 C 0.38758 0.84252 0.0645 0.0
H1858 H 0.40027 0.93292 0.08247 0.0
C1859 C 0.40712 0.84641 0.05426 0.0
H1860 H 0.37113 0.87259 0.08282 0.0
C1861 C 0.42412 0.88072 0.05415 0.0
C1862 C 0.42211 0.91334 0.06411 0.0
H1863 H 0.40938 0.82262 0.04626 0.0
H1864 H 0.43903 0.88127 0.04617 0.0
C1865 C 0.40286 0.90895 0.07459 0.0
C1866 C 0.88565 0.37511 0.07501 0.0
C1867 C 0.88703 0.34385 0.06458 0.0
H1868 H 0.90005 0.43373 0.08278 0.0
C1869 C 0.90637 0.34806 0.05425 0.0
H1870 H 0.87093 0.37337 0.0831 0.0
C1871 C 0.92337 0.38239 0.05415 0.0
C1872 C 0.92157 0.41472 0.06423 0.0
H1873 H 0.90847 0.32452 0.04616 0.0
H1874 H 0.93813 0.38314 0.04609 0.0
C1875 C 0.9025 0.41 0.0748 0.0
C1876 C 0.41134 0.36361 0.19375 0.0
C1877 C 0.42045 0.34545 0.18112 0.0
H1878 H 0.39 0.41107 0.20396 0.0
C1879 C 0.41126 0.36374 0.16844 0.0
H1880 H 0.41659 0.35131 0.20395 0.0
C1881 C 0.39383 0.39794 0.16848 0.0
C1882 C 0.38516 0.41627 0.18119 0.0
H1883 H 0.41751 0.35209 0.15833 0.0
H1884 H 0.38708 0.40954 0.15841 0.0
C1885 C 0.39484 0.39841 0.19377 0.0
C1886 C 0.90299 0.9095 0.16867 0.0
C1887 C 0.88425 0.91467 0.17937 0.0
H1888 H 0.93413 0.87232 0.16034 0.0
C1889 C 0.8825 0.8826 0.18964 0.0
H1890 H 0.90535 0.93306 0.16056 0.0
C1891 C 0.89927 0.84801 0.18958 0.0
C1892 C 0.91832 0.84335 0.17912 0.0
H1893 H 0.86796 0.8838 0.19781 0.0
H1894 H 0.89722 0.82464 0.1978 0.0
C1895 C 0.91963 0.8744 0.16852 0.0
C1896 C 0.64834 0.16388 0.93897 0.0
C1897 C 0.66778 0.16794 0.92868 0.0
H1898 H 0.61659 0.12879 0.94713 0.0
C1899 C 0.66933 0.13643 0.91834 0.0
H1900 H 0.64611 0.18761 0.94698 0.0
C1901 C 0.65255 0.10147 0.91859 0.0
C1902 C 0.6334 0.09691 0.92912 0.0
H1903 H 0.68412 0.13805 0.91029 0.0
H1904 H 0.65511 0.07755 0.91069 0.0
C1905 C 0.63142 0.12946 0.93911 0.0
C1906 C 0.16957 0.63524 0.91865 0.0
C1907 C 0.16831 0.66665 0.92903 0.0
H1908 H 0.15501 0.57662 0.91099 0.0
C1909 C 0.14901 0.66271 0.9394 0.0
H1910 H 0.18427 0.63678 0.91055 0.0
C1911 C 0.1319 0.62852 0.93956 0.0
C1912 C 0.13358 0.59605 0.92952 0.0
H1913 H 0.14701 0.68636 0.94746 0.0
H1914 H 0.11716 0.628 0.94763 0.0
C1915 C 0.15264 0.60048 0.91893 0.0
C1916 C 0.63563 0.63699 0.82474 0.0
C1917 C 0.63705 0.66883 0.81442 0.0
H1918 H 0.65008 0.57804 0.83235 0.0
C1919 C 0.6565 0.66535 0.80413 0.0
H1920 H 0.62083 0.63819 0.83278 0.0
C1921 C 0.67358 0.63115 0.80397 0.0
C1922 C 0.67173 0.59825 0.81394 0.0
H1923 H 0.65862 0.68935 0.79612 0.0
H1924 H 0.68842 0.63094 0.79595 0.0
C1925 C 0.65256 0.60224 0.82446 0.0
C1926 C 0.13559 0.13689 0.82495 0.0
C1927 C 0.13701 0.16862 0.8146 0.0
H1928 H 0.14998 0.07796 0.83262 0.0
C1929 C 0.15641 0.16495 0.80428 0.0
H1930 H 0.12083 0.13822 0.83302 0.0
C1931 C 0.17342 0.13067 0.80414 0.0
C1932 C 0.17157 0.09789 0.81415 0.0
H1933 H 0.15854 0.18886 0.79625 0.0
H1934 H 0.18823 0.13029 0.7961 0.0
C1935 C 0.15246 0.10207 0.8247 0.0
C1936 C 0.42029 0.39282 0.57419 0.0
C1937 C 0.41878 0.42426 0.56373 0.0
H1938 H 0.40603 0.33406 0.58209 0.0
C1939 C 0.39935 0.4201 0.55345 0.0
H1940 H 0.43506 0.39449 0.58224 0.0
C1941 C 0.38237 0.38572 0.55346 0.0
C1942 C 0.38428 0.35325 0.56359 0.0
H1943 H 0.39712 0.44376 0.54534 0.0
H1944 H 0.36753 0.38505 0.54544 0.0
C1945 C 0.40347 0.35789 0.57409 0.0
C1946 C 0.88633 0.87525 0.55335 0.0
C1947 C 0.88755 0.84401 0.56392 0.0
H1948 H 0.9011 0.93298 0.54504 0.0
C1949 C 0.90554 0.85027 0.57492 0.0
H1950 H 0.87236 0.87312 0.5449 0.0
C1951 C 0.92199 0.88563 0.5751 0.0
C1952 C 0.92121 0.91599 0.56425 0.0
H1953 H 0.90744 0.82736 0.58328 0.0
H1954 H 0.93593 0.88848 0.58355 0.0
C1955 C 0.90285 0.9102 0.55347 0.0
C1956 C 0.42153 0.87593 0.66836 0.0
C1957 C 0.42006 0.84414 0.67869 0.0
H1958 H 0.40713 0.93486 0.66069 0.0
C1959 C 0.40056 0.84769 0.68895 0.0
H1960 H 0.43637 0.87469 0.66033 0.0
C1961 C 0.38349 0.8819 0.68907 0.0
C1962 C 0.38539 0.91475 0.67908 0.0
H1963 H 0.39838 0.82373 0.69697 0.0
H1964 H 0.3686 0.88217 0.69706 0.0
C1965 C 0.40462 0.9107 0.66858 0.0
C1966 C 0.88267 0.37806 0.68906 0.0
C1967 C 0.88444 0.4104 0.67889 0.0
H1968 H 0.89764 0.32025 0.69722 0.0
C1969 C 0.90351 0.4058 0.66833 0.0
H1970 H 0.86791 0.37878 0.69712 0.0
C1971 C 0.9204 0.37101 0.66822 0.0
C1972 C 0.91905 0.33973 0.67873 0.0
H1973 H 0.90593 0.42957 0.66029 0.0
H1974 H 0.93512 0.36936 0.66014 0.0
C1975 C 0.89971 0.34381 0.68906 0.0
C1976 C 0.6423 0.60281 0.41701 0.0
C1977 C 0.63289 0.58596 0.42988 0.0
H1978 H 0.66733 0.64705 0.40663 0.0
C1979 C 0.64225 0.60465 0.44234 0.0
H1980 H 0.63578 0.59054 0.40703 0.0
C1981 C 0.65918 0.63875 0.44205 0.0
C1982 C 0.66926 0.65495 0.42932 0.0
H1983 H 0.63686 0.59324 0.45264 0.0
H1984 H 0.66417 0.65225 0.45211 0.0
C1985 C 0.66031 0.63627 0.41675 0.0
C1986 C 0.14913 0.0999 0.41826 0.0
C1987 C 0.12987 0.09539 0.42872 0.0
H1988 H 0.18078 0.13655 0.41008 0.0
C1989 C 0.12759 0.12808 0.43863 0.0
H1990 H 0.15186 0.07585 0.41042 0.0
C1991 C 0.14441 0.16258 0.43852 0.0
C1992 C 0.16403 0.16653 0.42834 0.0
H1993 H 0.11262 0.12738 0.44658 0.0
H1994 H 0.14199 0.1864 0.44649 0.0
C1995 C 0.16583 0.13494 0.41804 0.0
C1996 C 0.65286 0.09528 0.32482 0.0
C1997 C 0.67222 0.09163 0.31438 0.0
H1998 H 0.6209 0.13084 0.33305 0.0
C1999 C 0.67415 0.12474 0.30449 0.0
H2000 H 0.65033 0.07091 0.33264 0.0
C2001 C 0.65698 0.15881 0.30464 0.0
C2002 C 0.63734 0.16196 0.31483 0.0
H2003 H 0.68914 0.12478 0.29655 0.0
H2004 H 0.6592 0.18299 0.2967 0.0
C2005 C 0.63584 0.1299 0.32508 0.0
C2006 C 0.15378 0.59965 0.32491 0.0
C2007 C 0.17275 0.59515 0.3143 0.0
H2008 H 0.12237 0.63619 0.33329 0.0
C2009 C 0.1746 0.62779 0.30423 0.0
H2010 H 0.15132 0.57566 0.33287 0.0
C2011 C 0.15771 0.66224 0.3044 0.0
C2012 C 0.13844 0.66623 0.31477 0.0
H2013 H 0.1893 0.62716 0.29614 0.0
H2014 H 0.15985 0.68604 0.29632 0.0
C2015 C 0.13704 0.63463 0.32518 0.0
C2016 C 0.54741 0.02953 0.00268 0.0
C2017 C 0.53023 0.00776 0.01148 0.0
H2018 H 0.5593 0.04221 0.98141 0.0
C2019 C 0.51081 0.98299 0.00543 0.0
H2020 H 0.56194 0.04988 0.00717 0.0
C2021 C 0.50872 0.97981 0.99079 0.0
C2022 C 0.52588 1.00163 0.98199 0.0
H2023 H 0.49682 0.96716 0.01206 0.0
H2024 H 0.49418 0.9595 0.9863 0.0
C2025 C 0.54532 0.02635 0.98804 0.0
C2026 C 0.7582 0.23136 0.00308 0.0
C2027 C 0.77523 0.25443 0.01152 0.0
H2028 H 0.74584 0.21704 0.98204 0.0
C2029 C 0.79388 0.27998 0.00507 0.0
H2030 H 0.74428 0.2104 0.00787 0.0
C2031 C 0.7954 0.28257 0.99038 0.0
C2032 C 0.77843 0.25938 0.98194 0.0
H2033 H 0.80779 0.29682 0.01141 0.0
H2034 H 0.80936 0.30344 0.98558 0.0
C2035 C 0.75971 0.23396 0.98839 0.0
C2036 C 0.51338 0.27509 0.23792 0.0
C2037 C 0.53261 0.25019 0.23177 0.0
H2038 H 0.49686 0.29806 0.25714 0.0
C2039 C 0.54972 0.22794 0.24047 0.0
H2040 H 0.49947 0.29135 0.23136 0.0
C2041 C 0.54764 0.23061 0.25513 0.0
C2042 C 0.5283 0.25528 0.26127 0.0
H2043 H 0.56412 0.20754 0.2359 0.0
H2044 H 0.56149 0.21424 0.26169 0.0
C2045 C 0.51132 0.27776 0.25257 0.0
C2046 C 0.79753 0.98493 0.23849 0.0
C2047 C 0.77788 0.00913 0.23236 0.0
H2048 H 0.81404 0.96127 0.2577 0.0
C2049 C 0.76042 0.03036 0.24106 0.0
H2050 H 0.81172 0.96951 0.23193 0.0
C2051 C 0.76231 0.02689 0.25571 0.0
C2052 C 0.78183 1.00239 0.26185 0.0
H2053 H 0.74567 0.05026 0.2365 0.0
H2054 H 0.74803 0.0421 0.26227 0.0
C2055 C 0.79941 0.98141 0.25315 0.0
C2056 C 0.29787 0.77845 0.99001 0.0
C2057 C 0.28072 0.7557 0.98155 0.0
H2058 H 0.31014 0.79264 0.01107 0.0
C2059 C 0.26186 0.73046 0.98796 0.0
H2060 H 0.31195 0.79916 0.98524 0.0
C2061 C 0.26021 0.72796 0.00264 0.0
C2062 C 0.27726 0.75091 0.0111 0.0
H2063 H 0.24788 0.71387 0.98159 0.0
H2064 H 0.24606 0.70738 0.00742 0.0
C2065 C 0.29622 0.77593 0.00469 0.0
C2066 C 0.51096 0.77771 0.7381 0.0
C2067 C 0.53021 0.75289 0.73195 0.0
H2068 H 0.4946 0.80096 0.75733 0.0
C2069 C 0.54726 0.73052 0.74064 0.0
H2070 H 0.49706 0.79401 0.73155 0.0
C2071 C 0.54528 0.7333 0.7553 0.0
C2072 C 0.52607 0.75822 0.76146 0.0
H2073 H 0.56166 0.71012 0.73606 0.0
H2074 H 0.55921 0.71707 0.76185 0.0
C2075 C 0.50897 0.7805 0.75276 0.0
C2076 C 0.25909 0.03053 0.74026 0.0
C2077 C 0.27626 0.00817 0.73171 0.0
H2078 H 0.24683 0.04393 0.76138 0.0
C2079 C 0.29527 0.98301 0.73801 0.0
H2080 H 0.24488 0.05118 0.73557 0.0
C2081 C 0.29698 0.98006 0.75268 0.0
C2082 C 0.27985 1.00252 0.76124 0.0
H2083 H 0.30927 0.96672 0.73157 0.0
H2084 H 0.31121 0.95946 0.75737 0.0
C2085 C 0.2608 0.02759 0.75494 0.0
C2086 C 0.53995 0.52877 0.48641 0.0
C2087 C 0.51982 0.50403 0.48107 0.0
H2088 H 0.55809 0.55404 0.50487 0.0
C2089 C 0.50255 0.4848 0.49047 0.0
H2090 H 0.55395 0.54274 0.47933 0.0
C2091 C 0.50547 0.49004 0.505 0.0
C2092 C 0.5258 0.51435 0.51034 0.0
H2093 H 0.48743 0.46454 0.48656 0.0
H2094 H 0.49161 0.47579 0.5121 0.0
C2095 C 0.54285 0.53405 0.50094 0.0
C2096 C 0.77468 0.80353 0.50564 0.0
C2097 C 0.79219 0.77497 0.51136 0.0
H2098 H 0.76182 0.83533 0.48742 0.0
C2099 C 0.81103 0.75806 0.50221 0.0
H2100 H 0.76034 0.81884 0.51209 0.0
C2101 C 0.80762 0.76021 0.48752 0.0
C2102 C 0.78661 0.78244 0.48188 0.0
H2103 H 0.82674 0.73936 0.50635 0.0
H2104 H 0.82091 0.74359 0.48081 0.0
C2105 C 0.77412 0.81045 0.49116 0.0
C2106 C 0.76197 0.52999 0.75483 0.0
C2107 C 0.78086 0.50463 0.76115 0.0
H2108 H 0.74603 0.55342 0.73544 0.0
C2109 C 0.79793 0.48204 0.7526 0.0
H2110 H 0.74806 0.5465 0.76126 0.0
C2111 C 0.79618 0.48481 0.73793 0.0
C2112 C 0.77718 0.50995 0.73161 0.0
H2113 H 0.81205 0.46125 0.7573 0.0
H2114 H 0.81 0.46813 0.73149 0.0
C2115 C 0.76023 0.53279 0.74015 0.0
C2116 C 0.25762 0.232 0.48882 0.0
C2117 C 0.2757 0.25779 0.48201 0.0
H2118 H 0.24329 0.20891 0.50862 0.0
C2119 C 0.29268 0.282 0.49011 0.0
H2120 H 0.24373 0.21429 0.48274 0.0
C2121 C 0.29178 0.28012 0.50482 0.0
C2122 C 0.27373 0.25428 0.51162 0.0
H2123 H 0.30614 0.30316 0.48502 0.0
H2124 H 0.30568 0.29782 0.51089 0.0
C2125 C 0.25672 0.2301 0.50353 0.0
C2126 C 0.29539 0.47904 0.25209 0.0
C2127 C 0.27838 0.50017 0.26108 0.0
H2128 H 0.30655 0.46729 0.23069 0.0
C2129 C 0.25834 0.52427 0.25528 0.0
H2130 H 0.31038 0.45914 0.2564 0.0
C2131 C 0.25557 0.5277 0.24067 0.0
C2132 C 0.2727 0.50681 0.23168 0.0
H2133 H 0.24447 0.53954 0.26208 0.0
H2134 H 0.24066 0.54776 0.23636 0.0
C2135 C 0.29262 0.48244 0.23748 0.0
C2136 C 1.00633 0.98323 0.49095 0.0
C2137 C 1.0235 1.00429 0.48196 0.0
H2138 H 0.99522 0.97068 0.51235 0.0
C2139 C 0.04357 0.02817 0.48778 0.0
H2140 H 0.99129 0.96353 0.48663 0.0
C2141 C 0.04636 0.03106 0.5024 0.0
C2142 C 0.02927 0.0098 0.51138 0.0
H2143 H 0.05755 0.04342 0.48099 0.0
H2144 H 0.06142 0.05069 0.50672 0.0
C2145 C 1.00915 0.98606 0.50556 0.0
C2146 C 0.0476 0.23079 0.74072 0.0
C2147 C 0.03041 0.25282 0.73201 0.0
H2148 H 0.05972 0.21784 0.76194 0.0
C2149 C 1.01126 0.27791 0.73815 0.0
H2150 H 0.06192 0.21021 0.73617 0.0
C2151 C 1.00943 0.2811 0.7528 0.0
C2152 C 1.02657 0.25895 0.76151 0.0
H2153 H 0.99726 0.29396 0.73159 0.0
H2154 H 0.99508 0.30162 0.75736 0.0
C2155 C 0.04576 0.23397 0.75538 0.0
C2156 C 1.01131 0.77804 0.23858 0.0
C2157 C 0.02985 0.75247 0.23214 0.0
H2158 H 0.99619 0.80173 0.25805 0.0
C2159 C 0.04698 0.7294 0.24059 0.0
H2160 H 0.99734 0.79491 0.23224 0.0
C2161 C 0.04572 0.73214 0.25528 0.0
C2162 C 1.02715 0.75768 0.26172 0.0
H2163 H 0.06083 0.70845 0.2358 0.0
H2164 H 0.05967 0.71525 0.26162 0.0
C2165 C 1.01005 0.78079 0.25327 0.0
C2166 C 0.0445 0.52751 0.9881 0.0
C2167 C 1.02499 0.50287 0.98209 0.0
H2168 H 0.06121 0.55112 0.0072 0.0
C2169 C 1.00769 0.48145 0.99091 0.0
H2170 H 0.05857 0.54309 0.98146 0.0
C2171 C 1.00977 0.48484 0.00556 0.0
C2172 C 0.02931 0.50942 0.01157 0.0
H2173 H 0.99308 0.46121 0.98646 0.0
H2174 H 0.99572 0.46923 0.0122 0.0
C2175 C 0.04658 0.53091 0.00275 0.0
C2176 C 0.63297 0.15963 0.05671 0.0
C2177 C 0.6268 0.11674 0.05701 0.0
H2178 H 0.66211 0.20676 0.05605 0.0
C2179 C 0.64778 0.08835 0.05666 0.0
H2180 H 0.6179 0.18299 0.05694 0.0
C2181 C 0.67362 0.10214 0.05678 0.0
C2182 C 0.67978 0.14503 0.05692 0.0
H2183 H 0.64447 0.055 0.05635 0.0
H2184 H 0.6887 0.0788 0.05708 0.0
C2185 C 0.6588 0.17342 0.05649 0.0
C2186 C 0.6448 0.16206 0.19201 0.0
C2187 C 0.62563 0.14046 0.18439 0.0
H2188 H 0.68454 0.16594 0.19819 0.0
C2189 C 0.63325 0.10559 0.17651 0.0
H2190 H 0.63963 0.18922 0.19817 0.0
C2191 C 0.65926 0.093 0.17607 0.0
C2192 C 0.67864 0.11407 0.18384 0.0
H2193 H 0.61918 0.08881 0.17025 0.0
H2194 H 0.66404 0.067 0.16932 0.0
C2195 C 0.67076 0.14888 0.19186 0.0
C2196 C 0.42265 0.85041 0.93626 0.0
C2197 C 0.42881 0.8933 0.93616 0.0
H2198 H 0.39352 0.80323 0.93668 0.0
C2199 C 0.40783 0.92166 0.93664 0.0
H2200 H 0.43773 0.82707 0.93592 0.0
C2201 C 0.382 0.90786 0.93644 0.0
C2202 C 0.37584 0.86498 0.9361 0.0
H2203 H 0.41113 0.95499 0.93711 0.0
H2204 H 0.36692 0.93122 0.93625 0.0
C2205 C 0.39682 0.83659 0.93639 0.0
C2206 C 0.40823 0.8379 0.80674 0.0
C2207 C 0.42923 0.86626 0.80706 0.0
H2208 H 0.36732 0.82836 0.80723 0.0
C2209 C 0.42308 0.90916 0.80678 0.0
H2210 H 0.4115 0.80455 0.8064 0.0
C2211 C 0.39725 0.92297 0.80661 0.0
C2212 C 0.37626 0.89461 0.80707 0.0
H2213 H 0.43816 0.93252 0.807 0.0
H2214 H 0.39398 0.95632 0.80617 0.0
C2215 C 0.3824 0.85171 0.80691 0.0
C2216 C 0.67209 0.61263 0.55677 0.0
C2217 C 0.67835 0.65553 0.55729 0.0
H2218 H 0.64313 0.56546 0.55575 0.0
C2219 C 0.65732 0.68385 0.55742 0.0
H2220 H 0.68701 0.58906 0.5568 0.0
C2221 C 0.63143 0.66986 0.55751 0.0
C2222 C 0.62531 0.62689 0.55721 0.0
H2223 H 0.66058 0.71721 0.55743 0.0
H2224 H 0.61627 0.69303 0.55807 0.0
C2225 C 0.64632 0.59876 0.55651 0.0
C2226 C 0.64882 0.67356 0.68588 0.0
C2227 C 0.62764 0.64553 0.68565 0.0
H2228 H 0.68976 0.68248 0.68521 0.0
C2229 C 0.63355 0.60254 0.68586 0.0
H2230 H 0.64577 0.70695 0.68627 0.0
C2231 C 0.6593 0.58833 0.68592 0.0
C2232 C 0.68046 0.61635 0.68539 0.0
H2233 H 0.61835 0.57938 0.6857 0.0
H2234 H 0.66236 0.55493 0.68636 0.0
C2235 C 0.67456 0.65934 0.68558 0.0
C2236 C 0.41789 0.3476 0.43731 0.0
C2237 C 0.42437 0.39024 0.43617 0.0
H2238 H 0.38836 0.30127 0.43874 0.0
C2239 C 0.40366 0.41913 0.43587 0.0
H2240 H 0.43278 0.32393 0.4376 0.0
C2241 C 0.37773 0.40587 0.43592 0.0
C2242 C 0.37129 0.36314 0.43658 0.0
H2243 H 0.40728 0.4524 0.43552 0.0
H2244 H 0.36281 0.42938 0.43508 0.0
C2245 C 0.39198 0.33442 0.43768 0.0
C2246 C 0.40875 0.33341 0.30677 0.0
C2247 C 0.42993 0.36139 0.30731 0.0
H2248 H 0.36781 0.32448 0.30707 0.0
C2249 C 0.42403 0.40439 0.30722 0.0
H2250 H 0.41179 0.30004 0.30626 0.0
C2251 C 0.39828 0.41864 0.30701 0.0
C2252 C 0.37709 0.39062 0.30724 0.0
H2253 H 0.43923 0.42752 0.30761 0.0
H2254 H 0.39525 0.45205 0.3067 0.0
C2255 C 0.38301 0.34764 0.30692 0.0
C2256 C 0.14862 0.08937 0.55699 0.0
C2257 C 0.12751 0.1175 0.55745 0.0
H2258 H 0.18958 0.08026 0.55737 0.0
C2259 C 0.13352 0.16046 0.55734 0.0
H2260 H 0.14547 0.05601 0.55652 0.0
C2261 C 0.1593 0.17454 0.55718 0.0
C2262 C 0.1804 0.1464 0.55749 0.0
H2263 H 0.11836 0.18366 0.55767 0.0
H2264 H 0.16244 0.20793 0.55686 0.0
C2265 C 0.17441 0.10345 0.55717 0.0
C2266 C 0.17411 0.15958 0.68668 0.0
C2267 C 0.18043 0.11676 0.6864 0.0
H2268 H 0.14478 0.20638 0.68733 0.0
C2269 C 0.15957 0.08813 0.68682 0.0
H2270 H 0.1891 0.18309 0.68639 0.0
C2271 C 0.13369 0.10164 0.68674 0.0
C2272 C 0.12737 0.14446 0.68657 0.0
H2273 H 0.16302 0.05482 0.68717 0.0
H2274 H 0.1187 0.07812 0.68649 0.0
C2275 C 0.14823 0.17308 0.68692 0.0
C2276 C 0.91747 0.85672 0.43951 0.0
C2277 C 0.9239 0.89932 0.43818 0.0
H2278 H 0.88806 0.81026 0.44101 0.0
C2279 C 0.90305 0.92811 0.43785 0.0
H2280 H 0.9323 0.83299 0.43986 0.0
C2281 C 0.87708 0.91463 0.43788 0.0
C2282 C 0.87085 0.87187 0.43851 0.0
H2283 H 0.90655 0.96139 0.43742 0.0
H2284 H 0.86195 0.9378 0.43695 0.0
C2285 C 0.89163 0.84344 0.43989 0.0
C2286 C 0.92491 0.90742 0.30711 0.0
C2287 C 0.93123 0.8646 0.30711 0.0
H2288 H 0.89557 0.95425 0.30678 0.0
C2289 C 0.91039 0.836 0.30649 0.0
H2290 H 0.93991 0.9309 0.30756 0.0
C2291 C 0.88451 0.84947 0.30667 0.0
C2292 C 0.87817 0.89226 0.30713 0.0
H2293 H 0.91384 0.80273 0.30592 0.0
H2294 H 0.86954 0.82591 0.30677 0.0
C2295 C 0.89902 0.92093 0.30697 0.0
C2296 C 0.15876 0.67389 0.0566 0.0
C2297 C 0.17971 0.64546 0.05715 0.0
H2298 H 0.11788 0.68364 0.05698 0.0
C2299 C 0.17346 0.60259 0.05718 0.0
H2300 H 0.16209 0.7072 0.05601 0.0
C2301 C 0.14761 0.58888 0.05708 0.0
C2302 C 0.12666 0.61734 0.0573 0.0
H2303 H 0.1885 0.57917 0.05758 0.0
H2304 H 0.14428 0.55553 0.05687 0.0
C2305 C 0.1329 0.66019 0.05684 0.0
C2306 C 0.14631 0.67379 0.1869 0.0
C2307 C 0.12544 0.64526 0.18622 0.0
H2308 H 0.18718 0.68377 0.18653 0.0
C2309 C 0.13171 0.60243 0.18596 0.0
H2310 H 0.14287 0.70704 0.18764 0.0
C2311 C 0.15758 0.58887 0.18593 0.0
C2312 C 0.17844 0.6175 0.18584 0.0
H2313 H 0.11668 0.57902 0.18545 0.0
H2314 H 0.16102 0.55554 0.18592 0.0
C2315 C 0.17217 0.66027 0.18655 0.0
C2316 C 0.8814 0.40891 0.93632 0.0
C2317 C 0.87516 0.36604 0.93629 0.0
H2318 H 0.91061 0.45593 0.93673 0.0
C2319 C 0.89608 0.33758 0.93688 0.0
H2320 H 0.86636 0.43232 0.9359 0.0
C2321 C 0.92194 0.35125 0.93671 0.0
C2322 C 0.92819 0.39411 0.9363 0.0
H2323 H 0.89272 0.30426 0.93742 0.0
H2324 H 0.93696 0.32781 0.9366 0.0
C2325 C 0.90725 0.42259 0.9365 0.0
C2326 C 0.90848 0.33831 0.80658 0.0
C2327 C 0.92948 0.36665 0.80703 0.0
H2328 H 0.86755 0.32883 0.80692 0.0
C2329 C 0.92336 0.40955 0.80683 0.0
H2330 H 0.91174 0.30497 0.80618 0.0
C2331 C 0.89754 0.4234 0.80661 0.0
C2332 C 0.87653 0.39506 0.80693 0.0
H2333 H 0.93845 0.43288 0.80715 0.0
H2334 H 0.89428 0.45676 0.80624 0.0
C2335 C 0.88266 0.35216 0.8067 0.0
loop_
_geom_bond_atom_site_label_1
_geom_bond_atom_site_label_2
_geom_bond_distance
_geom_bond_site_symmetry_2
_ccdc_geom_bond_type
C0 C1 1.443 . S
C0 N4 1.376 . S
C0 C38 1.389 . S
C1 C0 1.443 . S
C1 C2 1.340 . S
C1 H41 0.951 . S
C2 C1 1.340 . S
C2 C3 1.439 . S
C2 H42 0.950 . S
C3 C2 1.439 . S
C3 N4 1.374 . S
C3 C37 1.395 . S
N4 C0 1.376 . S
N4 C3 1.374 . S
N4 Co5 2.008 . S
Co5 N4 2.008 . S
Co5 N6 1.995 . S
Co5 N11 2.008 1_545 S
Co5 N16 1.995 1_545 S
Co5 N21 2.282 1_545 S
Co5 N27 2.282 . S
N6 Co5 1.995 . S
N6 C7 1.376 . S
N6 C10 1.383 . S
C7 N6 1.376 . S
C7 C8 1.446 . S
C7 C37 1.391 . S
C8 C7 1.446 . S
C8 C9 1.339 . S
C8 H43 0.949 . S
C9 C8 1.339 . S
C9 C10 1.439 . S
C9 H44 0.950 . S
C10 N6 1.383 . S
C10 C9 1.439 . S
C10 C39 1.392 1_545 S
N11 Co5 2.008 1_565 S
N11 C12 1.376 . S
N11 C15 1.374 . S
C12 N11 1.376 . S
C12 C13 1.443 . S
C12 C39 1.389 . S
C13 C12 1.443 . S
C13 C14 1.340 . S
C13 H45 0.951 . S
C14 C13 1.340 . S
C14 C15 1.439 . S
C14 H46 0.950 . S
C15 N11 1.374 . S
C15 C14 1.439 . S
C15 C40 1.395 . S
N16 Co5 1.995 1_565 S
N16 C17 1.376 . S
N16 C20 1.383 1_565 S
C17 N16 1.376 . S
C17 C18 1.446 . S
C17 C40 1.391 . S
C18 C17 1.446 . S
C18 C19 1.339 . S
C18 H47 0.949 . S
C19 C18 1.339 . S
C19 C20 1.439 1_565 S
C19 H48 0.950 . S
C20 N16 1.383 1_545 S
C20 C19 1.439 1_545 S
C20 C38 1.392 . S
N21 Co5 2.282 1_565 S
N21 C24 1.332 . S
N21 C26 1.333 1_565 S
C22 C23 1.386 . S
C22 C25 1.388 . S
C23 C22 1.386 . S
C23 C24 1.382 . S
C23 H49 0.950 . S
C24 N21 1.332 . S
C24 C23 1.382 . S
C24 H35 0.952 . S
C25 C22 1.388 . S
C25 C26 1.383 1_565 S
C25 H50 0.950 . S
C26 N21 1.333 1_545 S
C26 C25 1.383 1_545 S
C26 H36 0.946 . S
N27 Co5 2.282 . S
N27 C31 1.332 . S
N27 C32 1.332 . S
C28 C29 1.388 . S
C28 C32 1.382 . S
C28 H51 0.950 . S
C29 C28 1.388 . S
C29 C30 1.386 . S
C30 C29 1.386 . S
C30 C31 1.382 . S
C30 H52 0.950 . S
C31 N27 1.332 . S
C31 C30 1.382 . S
C31 H33 0.952 . S
C32 N27 1.332 . S
C32 C28 1.382 . S
C32 H34 0.948 . S
H33 C31 0.952 . S
H34 C32 0.948 . S
H35 C24 0.952 . S
H36 C26 0.946 . S
C37 C3 1.395 . S
C37 C7 1.391 . S
C38 C0 1.389 . S
C38 C20 1.392 . S
C39 C10 1.392 1_565 S
C39 C12 1.389 . S
C40 C15 1.395 . S
C40 C17 1.391 . S
H41 C1 0.951 . S
H42 C2 0.950 . S
H43 C8 0.949 . S
H44 C9 0.950 . S
H45 C13 0.951 . S
H46 C14 0.950 . S
H47 C18 0.949 . S
H48 C19 0.950 . S
H49 C23 0.950 . S
H50 C25 0.950 . S
H51 C28 0.950 . S
H52 C30 0.950 . S
C53 C54 1.443 . S
C53 N57 1.376 . S
C53 C91 1.389 . S
C54 C53 1.443 . S
C54 C55 1.340 . S
C54 H94 0.951 . S
C55 C54 1.340 . S
C55 C56 1.439 . S
C55 H95 0.950 . S
C56 C55 1.439 . S
C56 N57 1.374 . S
C56 C90 1.395 . S
N57 C53 1.376 . S
N57 C56 1.374 . S
N57 Co58 2.008 . S
Co58 N57 2.008 . S
Co58 N59 1.995 . S
Co58 N64 2.008 . S
Co58 N69 1.995 . S
Co58 N74 2.282 . S
Co58 N80 2.282 . S
N59 Co58 1.995 . S
N59 C60 1.376 . S
N59 C63 1.383 . S
C60 N59 1.376 . S
C60 C61 1.446 . S
C60 C90 1.391 . S
C61 C60 1.446 . S
C61 C62 1.339 . S
C61 H96 0.949 . S
C62 C61 1.339 . S
C62 C63 1.439 . S
C62 H97 0.950 . S
C63 N59 1.383 . S
C63 C62 1.439 . S
C63 C92 1.392 . S
N64 Co58 2.008 . S
N64 C65 1.376 . S
N64 C68 1.374 . S
C65 N64 1.376 . S
C65 C66 1.443 . S
C65 C92 1.389 . S
C66 C65 1.443 . S
C66 C67 1.340 . S
C66 H98 0.951 . S
C67 C66 1.340 . S
C67 C68 1.439 . S
C67 H99 0.950 . S
C68 N64 1.374 . S
C68 C67 1.439 . S
C68 C93 1.395 . S
N69 Co58 1.995 . S
N69 C70 1.376 . S
N69 C73 1.383 . S
C70 N69 1.376 . S
C70 C71 1.446 . S
C70 C93 1.391 . S
C71 C70 1.446 . S
C71 C72 1.339 . S
C71 H100 0.949 . S
C72 C71 1.339 . S
C72 C73 1.439 . S
C72 H101 0.950 . S
C73 N69 1.383 . S
C73 C72 1.439 . S
C73 C91 1.392 . S
N74 Co58 2.282 . S
N74 C77 1.332 . S
N74 C79 1.332 . S
C75 C76 1.386 . S
C75 C78 1.388 . S
C76 C75 1.386 . S
C76 C77 1.382 . S
C76 H102 0.950 . S
C77 N74 1.332 . S
C77 C76 1.382 . S
C77 H88 0.952 . S
C78 C75 1.388 . S
C78 C79 1.382 . S
C78 H103 0.950 . S
C79 N74 1.332 . S
C79 C78 1.382 . S
C79 H89 0.948 . S
N80 Co58 2.282 . S
N80 C84 1.332 . S
N80 C85 1.332 . S
C81 C82 1.388 . S
C81 C85 1.382 . S
C81 H104 0.950 . S
C82 C81 1.388 . S
C82 C83 1.386 . S
C83 C82 1.386 . S
C83 C84 1.382 . S
C83 H105 0.950 . S
C84 N80 1.332 . S
C84 C83 1.382 . S
C84 H86 0.952 . S
C85 N80 1.332 . S
C85 C81 1.382 . S
C85 H87 0.948 . S
H86 C84 0.952 . S
H87 C85 0.948 . S
H88 C77 0.952 . S
H89 C79 0.948 . S
C90 C56 1.395 . S
C90 C60 1.391 . S
C91 C53 1.389 . S
C91 C73 1.392 . S
C92 C63 1.392 . S
C92 C65 1.389 . S
C93 C68 1.395 . S
C93 C70 1.391 . S
H94 C54 0.951 . S
H95 C55 0.950 . S
H96 C61 0.949 . S
H97 C62 0.950 . S
H98 C66 0.951 . S
H99 C67 0.950 . S
H100 C71 0.949 . S
H101 C72 0.950 . S
H102 C76 0.950 . S
H103 C78 0.950 . S
H104 C81 0.950 . S
H105 C83 0.950 . S
C106 C107 1.443 . S
C106 N110 1.376 . S
C106 C144 1.389 . S
C107 C106 1.443 . S
C107 C108 1.340 . S
C107 H147 0.951 . S
C108 C107 1.340 . S
C108 C109 1.439 . S
C108 H148 0.950 . S
C109 C108 1.439 . S
C109 N110 1.374 . S
C109 C143 1.395 . S
N110 C106 1.376 . S
N110 C109 1.374 . S
N110 Co111 2.008 . S
Co111 N110 2.008 . S
Co111 N112 1.995 . S
Co111 N117 2.008 . S
Co111 N122 1.995 . S
Co111 N127 2.282 . S
Co111 N133 2.282 . S
N112 Co111 1.995 . S
N112 C113 1.376 . S
N112 C116 1.383 . S
C113 N112 1.376 . S
C113 C114 1.446 . S
C113 C143 1.391 . S
C114 C113 1.446 . S
C114 C115 1.339 . S
C114 H149 0.949 . S
C115 C114 1.339 . S
C115 C116 1.439 . S
C115 H150 0.950 . S
C116 N112 1.383 . S
C116 C115 1.439 . S
C116 C145 1.392 . S
N117 Co111 2.008 . S
N117 C118 1.376 . S
N117 C121 1.374 . S
C118 N117 1.376 . S
C118 C119 1.443 . S
C118 C145 1.389 . S
C119 C118 1.443 . S
C119 C120 1.340 . S
C119 H151 0.951 . S
C120 C119 1.340 . S
C120 C121 1.439 . S
C120 H152 0.950 . S
C121 N117 1.374 . S
C121 C120 1.439 . S
C121 C146 1.395 . S
N122 Co111 1.995 . S
N122 C123 1.376 . S
N122 C126 1.383 . S
C123 N122 1.376 . S
C123 C124 1.446 . S
C123 C146 1.391 . S
C124 C123 1.446 . S
C124 C125 1.339 . S
C124 H153 0.949 . S
C125 C124 1.339 . S
C125 C126 1.439 . S
C125 H154 0.950 . S
C126 N122 1.383 . S
C126 C125 1.439 . S
C126 C144 1.392 . S
N127 Co111 2.282 . S
N127 C130 1.332 . S
N127 C132 1.332 . S
C128 C129 1.386 . S
C128 C131 1.388 . S
C129 C128 1.386 . S
C129 C130 1.382 . S
C129 H155 0.950 . S
C130 N127 1.332 . S
C130 C129 1.382 . S
C130 H141 0.952 . S
C131 C128 1.388 . S
C131 C132 1.382 . S
C131 H156 0.950 . S
C132 N127 1.332 . S
C132 C131 1.382 . S
C132 H142 0.948 . S
N133 Co111 2.282 . S
N133 C137 1.332 . S
N133 C138 1.332 . S
C134 C135 1.388 . S
C134 C138 1.382 . S
C134 H157 0.950 . S
C135 C134 1.388 . S
C135 C136 1.386 . S
C136 C135 1.386 . S
C136 C137 1.382 . S
C136 H158 0.950 . S
C137 N133 1.332 . S
C137 C136 1.382 . S
C137 H139 0.952 . S
C138 N133 1.332 . S
C138 C134 1.382 . S
C138 H140 0.948 . S
H139 C137 0.952 . S
H140 C138 0.948 . S
H141 C130 0.952 . S
H142 C132 0.948 . S
C143 C109 1.395 . S
C143 C113 1.391 . S
C144 C106 1.389 . S
C144 C126 1.392 . S
C145 C116 1.392 . S
C145 C118 1.389 . S
C146 C121 1.395 . S
C146 C123 1.391 . S
H147 C107 0.951 . S
H148 C108 0.950 . S
H149 C114 0.949 . S
H150 C115 0.950 . S
H151 C119 0.951 . S
H152 C120 0.950 . S
H153 C124 0.949 . S
H154 C125 0.950 . S
H155 C129 0.950 . S
H156 C131 0.950 . S
H157 C134 0.950 . S
H158 C136 0.950 . S
C159 C160 1.443 . S
C159 N163 1.376 . S
C159 C197 1.389 . S
C160 C159 1.443 . S
C160 C161 1.340 . S
C160 H200 0.951 . S
C161 C160 1.340 . S
C161 C162 1.439 . S
C161 H201 0.950 . S
C162 C161 1.439 . S
C162 N163 1.374 . S
C162 C196 1.395 . S
N163 C159 1.376 . S
N163 C162 1.374 . S
N163 Co164 2.008 . S
Co164 N163 2.008 . S
Co164 N165 1.995 . S
Co164 N170 2.008 1_545 S
Co164 N175 1.995 1_545 S
Co164 N180 2.282 1_545 S
Co164 N186 2.282 . S
N165 Co164 1.995 . S
N165 C166 1.376 . S
N165 C169 1.383 . S
C166 N165 1.376 . S
C166 C167 1.446 . S
C166 C196 1.391 . S
C167 C166 1.446 . S
C167 C168 1.339 . S
C167 H202 0.949 . S
C168 C167 1.339 . S
C168 C169 1.439 . S
C168 H203 0.950 . S
C169 N165 1.383 . S
C169 C168 1.439 . S
C169 C198 1.392 1_545 S
N170 Co164 2.008 1_565 S
N170 C171 1.376 . S
N170 C174 1.374 . S
C171 N170 1.376 . S
C171 C172 1.443 . S
C171 C198 1.389 . S
C172 C171 1.443 . S
C172 C173 1.340 . S
C172 H204 0.951 . S
C173 C172 1.340 . S
C173 C174 1.439 . S
C173 H205 0.950 . S
C174 N170 1.374 . S
C174 C173 1.439 . S
C174 C199 1.395 . S
N175 Co164 1.995 1_565 S
N175 C176 1.376 . S
N175 C179 1.383 1_565 S
C176 N175 1.376 . S
C176 C177 1.446 . S
C176 C199 1.391 . S
C177 C176 1.446 . S
C177 C178 1.339 . S
C177 H206 0.949 . S
C178 C177 1.339 . S
C178 C179 1.439 1_565 S
C178 H207 0.950 . S
C179 N175 1.383 1_545 S
C179 C178 1.439 1_545 S
C179 C197 1.392 . S
N180 Co164 2.282 1_565 S
N180 C183 1.332 . S
N180 C185 1.333 . S
C181 C182 1.386 . S
C181 C184 1.388 . S
C182 C181 1.386 . S
C182 C183 1.382 . S
C182 H208 0.950 . S
C183 N180 1.332 . S
C183 C182 1.382 . S
C183 H194 0.952 . S
C184 C181 1.388 . S
C184 C185 1.384 . S
C184 H209 0.950 . S
C185 N180 1.333 . S
C185 C184 1.384 . S
C185 H195 0.945 1_565 S
N186 Co164 2.282 . S
N186 C190 1.332 . S
N186 C191 1.332 . S
C187 C188 1.388 . S
C187 C191 1.382 . S
C187 H210 0.950 . S
C188 C187 1.388 . S
C188 C189 1.386 . S
C189 C188 1.386 . S
C189 C190 1.382 . S
C189 H211 0.950 . S
C190 N186 1.332 . S
C190 C189 1.382 . S
C190 H192 0.952 . S
C191 N186 1.332 . S
C191 C187 1.382 . S
C191 H193 0.948 . S
H192 C190 0.952 . S
H193 C191 0.948 . S
H194 C183 0.952 . S
H195 C185 0.945 1_545 S
C196 C162 1.395 . S
C196 C166 1.391 . S
C197 C159 1.389 . S
C197 C179 1.392 . S
C198 C169 1.392 1_565 S
C198 C171 1.389 . S
C199 C174 1.395 . S
C199 C176 1.391 . S
H200 C160 0.951 . S
H201 C161 0.950 . S
H202 C167 0.949 . S
H203 C168 0.950 . S
H204 C172 0.951 . S
H205 C173 0.950 . S
H206 C177 0.949 . S
H207 C178 0.950 . S
H208 C182 0.950 . S
H209 C184 0.950 . S
H210 C187 0.950 . S
H211 C189 0.950 . S
C212 C213 1.443 1_565 S
C212 N216 1.376 1_565 S
C212 C250 1.389 . S
C213 C212 1.443 1_545 S
C213 C214 1.340 . S
C213 H253 0.951 1_545 S
C214 C213 1.340 . S
C214 C215 1.439 . S
C214 H254 0.950 . S
C215 C214 1.439 . S
C215 N216 1.374 . S
C215 C249 1.395 . S
N216 C212 1.376 1_545 S
N216 C215 1.374 . S
N216 Co217 2.008 1_545 S
Co217 N216 2.008 1_565 S
Co217 N218 1.995 1_565 S
Co217 N223 2.008 . S
Co217 N228 1.995 . S
Co217 N233 2.282 1_565 S
Co217 N239 2.282 . S
N218 Co217 1.995 1_545 S
N218 C219 1.376 . S
N218 C222 1.383 . S
C219 N218 1.376 . S
C219 C220 1.446 . S
C219 C249 1.391 . S
C220 C219 1.446 . S
C220 C221 1.339 . S
C220 H255 0.949 . S
C221 C220 1.339 . S
C221 C222 1.439 . S
C221 H256 0.950 . S
C222 N218 1.383 . S
C222 C221 1.439 . S
C222 C251 1.392 . S
N223 Co217 2.008 . S
N223 C224 1.376 . S
N223 C227 1.374 . S
C224 N223 1.376 . S
C224 C225 1.443 . S
C224 C251 1.389 1_565 S
C225 C224 1.443 . S
C225 C226 1.340 . S
C225 H257 0.951 . S
C226 C225 1.340 . S
C226 C227 1.439 . S
C226 H258 0.950 . S
C227 N223 1.374 . S
C227 C226 1.439 . S
C227 C252 1.395 . S
N228 Co217 1.995 . S
N228 C229 1.376 . S
N228 C232 1.383 . S
C229 N228 1.376 . S
C229 C230 1.446 . S
C229 C252 1.391 . S
C230 C229 1.446 . S
C230 C231 1.339 . S
C230 H259 0.949 . S
C231 C230 1.339 . S
C231 C232 1.439 . S
C231 H260 0.950 . S
C232 N228 1.383 . S
C232 C231 1.439 . S
C232 C250 1.392 . S
N233 Co217 2.282 1_545 S
N233 C236 1.331 1_545 S
N233 C238 1.332 . S
C234 C235 1.386 . S
C234 C237 1.388 . S
C235 C234 1.386 . S
C235 C236 1.381 1_545 S
C235 H261 0.950 . S
C236 N233 1.331 1_565 S
C236 C235 1.381 1_565 S
C236 H247 0.954 . S
C237 C234 1.388 . S
C237 C238 1.382 . S
C237 H262 0.950 . S
C238 N233 1.332 . S
C238 C237 1.382 . S
C238 H248 0.948 . S
N239 Co217 2.282 . S
N239 C243 1.332 . S
N239 C244 1.332 . S
C240 C241 1.388 . S
C240 C244 1.382 . S
C240 H263 0.950 . S
C241 C240 1.388 . S
C241 C242 1.386 . S
C242 C241 1.386 . S
C242 C243 1.382 . S
C242 H264 0.950 . S
C243 N239 1.332 . S
C243 C242 1.382 . S
C243 H245 0.952 . S
C244 N239 1.332 . S
C244 C240 1.382 . S
C244 H246 0.948 . S
H245 C243 0.952 . S
H246 C244 0.948 . S
H247 C236 0.954 . S
H248 C238 0.948 . S
C249 C215 1.395 . S
C249 C219 1.391 . S
C250 C212 1.389 . S
C250 C232 1.392 . S
C251 C222 1.392 . S
C251 C224 1.389 1_545 S
C252 C227 1.395 . S
C252 C229 1.391 . S
H253 C213 0.951 1_565 S
H254 C214 0.950 . S
H255 C220 0.949 . S
H256 C221 0.950 . S
H257 C225 0.951 . S
H258 C226 0.950 . S
H259 C230 0.949 . S
H260 C231 0.950 . S
H261 C235 0.950 . S
H262 C237 0.950 . S
H263 C240 0.950 . S
H264 C242 0.950 . S
C265 C266 1.443 . S
C265 N269 1.376 . S
C265 C303 1.389 . S
C266 C265 1.443 . S
C266 C267 1.340 . S
C266 H306 0.951 . S
C267 C266 1.340 . S
C267 C268 1.439 . S
C267 H307 0.950 . S
C268 C267 1.439 . S
C268 N269 1.374 . S
C268 C302 1.395 . S
N269 C265 1.376 . S
N269 C268 1.374 . S
N269 Co270 2.008 . S
Co270 N269 2.008 . S
Co270 N271 1.995 . S
Co270 N276 2.008 . S
Co270 N281 1.995 . S
Co270 N286 2.282 . S
Co270 N292 2.282 . S
N271 Co270 1.995 . S
N271 C272 1.376 . S
N271 C275 1.383 . S
C272 N271 1.376 . S
C272 C273 1.446 . S
C272 C302 1.391 . S
C273 C272 1.446 . S
C273 C274 1.339 . S
C273 H308 0.949 . S
C274 C273 1.339 . S
C274 C275 1.439 . S
C274 H309 0.950 . S
C275 N271 1.383 . S
C275 C274 1.439 . S
C275 C304 1.392 . S
N276 Co270 2.008 . S
N276 C277 1.376 . S
N276 C280 1.374 . S
C277 N276 1.376 . S
C277 C278 1.443 . S
C277 C304 1.389 . S
C278 C277 1.443 . S
C278 C279 1.340 . S
C278 H310 0.951 . S
C279 C278 1.340 . S
C279 C280 1.439 . S
C279 H311 0.950 . S
C280 N276 1.374 . S
C280 C279 1.439 . S
C280 C305 1.395 . S
N281 Co270 1.995 . S
N281 C282 1.376 . S
N281 C285 1.383 . S
C282 N281 1.376 . S
C282 C283 1.446 . S
C282 C305 1.391 . S
C283 C282 1.446 . S
C283 C284 1.339 . S
C283 H312 0.949 . S
C284 C283 1.339 . S
C284 C285 1.439 . S
C284 H313 0.950 . S
C285 N281 1.383 . S
C285 C284 1.439 . S
C285 C303 1.392 . S
N286 Co270 2.282 . S
N286 C289 1.332 . S
N286 C291 1.332 . S
C287 C288 1.386 . S
C287 C290 1.388 . S
C288 C287 1.386 . S
C288 C289 1.382 . S
C288 H314 0.950 . S
C289 N286 1.332 . S
C289 C288 1.382 . S
C289 H300 0.952 . S
C290 C287 1.388 . S
C290 C291 1.382 . S
C290 H315 0.950 . S
C291 N286 1.332 . S
C291 C290 1.382 . S
C291 H301 0.948 . S
N292 Co270 2.282 . S
N292 C296 1.332 . S
N292 C297 1.332 . S
C293 C294 1.388 . S
C293 C297 1.382 . S
C293 H316 0.950 . S
C294 C293 1.388 . S
C294 C295 1.386 . S
C295 C294 1.386 . S
C295 C296 1.382 . S
C295 H317 0.950 . S
C296 N292 1.332 . S
C296 C295 1.382 . S
C296 H298 0.952 . S
C297 N292 1.332 . S
C297 C293 1.382 . S
C297 H299 0.948 . S
H298 C296 0.952 . S
H299 C297 0.948 . S
H300 C289 0.952 . S
H301 C291 0.948 . S
C302 C268 1.395 . S
C302 C272 1.391 . S
C303 C265 1.389 . S
C303 C285 1.392 . S
C304 C275 1.392 . S
C304 C277 1.389 . S
C305 C280 1.395 . S
C305 C282 1.391 . S
H306 C266 0.951 . S
H307 C267 0.950 . S
H308 C273 0.949 . S
H309 C274 0.950 . S
H310 C278 0.951 . S
H311 C279 0.950 . S
H312 C283 0.949 . S
H313 C284 0.950 . S
H314 C288 0.950 . S
H315 C290 0.950 . S
H316 C293 0.950 . S
H317 C295 0.950 . S
C318 C319 1.443 . S
C318 N322 1.376 . S
C318 C356 1.389 . S
C319 C318 1.443 . S
C319 C320 1.340 . S
C319 H359 0.951 . S
C320 C319 1.340 . S
C320 C321 1.439 . S
C320 H360 0.950 . S
C321 C320 1.439 . S
C321 N322 1.374 . S
C321 C355 1.395 . S
N322 C318 1.376 . S
N322 C321 1.374 . S
N322 Co323 2.008 . S
Co323 N322 2.008 . S
Co323 N324 1.995 . S
Co323 N329 2.008 . S
Co323 N334 1.995 . S
Co323 N339 2.282 . S
Co323 N345 2.282 . S
N324 Co323 1.995 . S
N324 C325 1.376 . S
N324 C328 1.383 . S
C325 N324 1.376 . S
C325 C326 1.446 . S
C325 C355 1.391 . S
C326 C325 1.446 . S
C326 C327 1.339 . S
C326 H361 0.949 . S
C327 C326 1.339 . S
C327 C328 1.439 . S
C327 H362 0.950 . S
C328 N324 1.383 . S
C328 C327 1.439 . S
C328 C357 1.392 . S
N329 Co323 2.008 . S
N329 C330 1.376 . S
N329 C333 1.374 . S
C330 N329 1.376 . S
C330 C331 1.443 . S
C330 C357 1.389 . S
C331 C330 1.443 . S
C331 C332 1.340 . S
C331 H363 0.951 . S
C332 C331 1.340 . S
C332 C333 1.439 . S
C332 H364 0.950 . S
C333 N329 1.374 . S
C333 C332 1.439 . S
C333 C358 1.395 . S
N334 Co323 1.995 . S
N334 C335 1.376 . S
N334 C338 1.383 . S
C335 N334 1.376 . S
C335 C336 1.446 . S
C335 C358 1.391 . S
C336 C335 1.446 . S
C336 C337 1.339 . S
C336 H365 0.949 . S
C337 C336 1.339 . S
C337 C338 1.439 . S
C337 H366 0.950 . S
C338 N334 1.383 . S
C338 C337 1.439 . S
C338 C356 1.392 . S
N339 Co323 2.282 . S
N339 C342 1.332 . S
N339 C344 1.332 . S
C340 C341 1.386 . S
C340 C343 1.388 . S
C341 C340 1.386 . S
C341 C342 1.382 . S
C341 H367 0.950 . S
C342 N339 1.332 . S
C342 C341 1.382 . S
C342 H353 0.952 . S
C343 C340 1.388 . S
C343 C344 1.382 . S
C343 H368 0.950 . S
C344 N339 1.332 . S
C344 C343 1.382 . S
C344 H354 0.948 . S
N345 Co323 2.282 . S
N345 C349 1.332 . S
N345 C350 1.332 . S
C346 C347 1.388 . S
C346 C350 1.382 . S
C346 H369 0.950 . S
C347 C346 1.388 . S
C347 C348 1.386 . S
C348 C347 1.386 . S
C348 C349 1.382 . S
C348 H370 0.950 . S
C349 N345 1.332 . S
C349 C348 1.382 . S
C349 H351 0.952 . S
C350 N345 1.332 . S
C350 C346 1.382 . S
C350 H352 0.948 . S
H351 C349 0.952 . S
H352 C350 0.948 . S
H353 C342 0.952 . S
H354 C344 0.948 . S
C355 C321 1.395 . S
C355 C325 1.391 . S
C356 C318 1.389 . S
C356 C338 1.392 . S
C357 C328 1.392 . S
C357 C330 1.389 . S
C358 C333 1.395 . S
C358 C335 1.391 . S
H359 C319 0.951 . S
H360 C320 0.950 . S
H361 C326 0.949 . S
H362 C327 0.950 . S
H363 C331 0.951 . S
H364 C332 0.950 . S
H365 C336 0.949 . S
H366 C337 0.950 . S
H367 C341 0.950 . S
H368 C343 0.950 . S
H369 C346 0.950 . S
H370 C348 0.950 . S
C371 C372 1.443 1_565 S
C371 N375 1.376 1_565 S
C371 C409 1.389 . S
C372 C371 1.443 1_545 S
C372 C373 1.340 . S
C372 H412 0.951 1_545 S
C373 C372 1.340 . S
C373 C374 1.439 . S
C373 H413 0.950 . S
C374 C373 1.439 . S
C374 N375 1.374 . S
C374 C408 1.395 . S
N375 C371 1.376 1_545 S
N375 C374 1.374 . S
N375 Co376 2.008 1_545 S
Co376 N375 2.008 1_565 S
Co376 N377 1.995 1_565 S
Co376 N382 2.008 . S
Co376 N387 1.995 . S
Co376 N392 2.282 1_565 S
Co376 N398 2.282 . S
N377 Co376 1.995 1_545 S
N377 C378 1.376 . S
N377 C381 1.383 . S
C378 N377 1.376 . S
C378 C379 1.446 . S
C378 C408 1.391 . S
C379 C378 1.446 . S
C379 C380 1.339 . S
C379 H414 0.949 . S
C380 C379 1.339 . S
C380 C381 1.439 . S
C380 H415 0.950 . S
C381 N377 1.383 . S
C381 C380 1.439 . S
C381 C410 1.392 . S
N382 Co376 2.008 . S
N382 C383 1.376 . S
N382 C386 1.374 . S
C383 N382 1.376 . S
C383 C384 1.443 . S
C383 C410 1.389 1_565 S
C384 C383 1.443 . S
C384 C385 1.340 . S
C384 H416 0.951 . S
C385 C384 1.340 . S
C385 C386 1.439 . S
C385 H417 0.950 . S
C386 N382 1.374 . S
C386 C385 1.439 . S
C386 C411 1.395 . S
N387 Co376 1.995 . S
N387 C388 1.376 . S
N387 C391 1.383 . S
C388 N387 1.376 . S
C388 C389 1.446 . S
C388 C411 1.391 . S
C389 C388 1.446 . S
C389 C390 1.339 . S
C389 H418 0.949 . S
C390 C389 1.339 . S
C390 C391 1.439 . S
C390 H419 0.950 . S
C391 N387 1.383 . S
C391 C390 1.439 . S
C391 C409 1.392 . S
N392 Co376 2.282 1_545 S
N392 C395 1.332 . S
N392 C397 1.332 . S
C393 C394 1.386 . S
C393 C396 1.388 . S
C394 C393 1.386 . S
C394 C395 1.382 . S
C394 H420 0.950 . S
C395 N392 1.332 . S
C395 C394 1.382 . S
C395 H406 0.951 1_545 S
C396 C393 1.388 . S
C396 C397 1.382 . S
C396 H421 0.950 . S
C397 N392 1.332 . S
C397 C396 1.382 . S
C397 H407 0.948 . S
N398 Co376 2.282 . S
N398 C402 1.332 . S
N398 C403 1.332 . S
C399 C400 1.388 . S
C399 C403 1.382 . S
C399 H422 0.950 . S
C400 C399 1.388 . S
C400 C401 1.386 . S
C401 C400 1.386 . S
C401 C402 1.382 . S
C401 H423 0.950 . S
C402 N398 1.332 . S
C402 C401 1.382 . S
C402 H404 0.952 . S
C403 N398 1.332 . S
C403 C399 1.382 . S
C403 H405 0.948 . S
H404 C402 0.952 . S
H405 C403 0.948 . S
H406 C395 0.951 1_565 S
H407 C397 0.948 . S
C408 C374 1.395 . S
C408 C378 1.391 . S
C409 C371 1.389 . S
C409 C391 1.392 . S
C410 C381 1.392 . S
C410 C383 1.389 1_545 S
C411 C386 1.395 . S
C411 C388 1.391 . S
H412 C372 0.951 1_565 S
H413 C373 0.950 . S
H414 C379 0.949 . S
H415 C380 0.950 . S
H416 C384 0.951 . S
H417 C385 0.950 . S
H418 C389 0.949 . S
H419 C390 0.950 . S
H420 C394 0.950 . S
H421 C396 0.950 . S
H422 C399 0.950 . S
H423 C401 0.950 . S
C424 C425 1.443 . S
C424 N428 1.376 . S
C424 C462 1.389 . S
C425 C424 1.443 . S
C425 C426 1.340 . S
C425 H465 0.951 . S
C426 C425 1.340 . S
C426 C427 1.439 . S
C426 H466 0.950 . S
C427 C426 1.439 . S
C427 N428 1.374 . S
C427 C461 1.395 . S
N428 C424 1.376 . S
N428 C427 1.374 . S
N428 Co429 2.008 . S
Co429 N428 2.008 . S
Co429 N430 1.995 . S
Co429 N435 2.008 . S
Co429 N440 1.995 . S
Co429 N445 2.282 . S
Co429 N451 2.282 . S
N430 Co429 1.995 . S
N430 C431 1.376 . S
N430 C434 1.383 . S
C431 N430 1.376 . S
C431 C432 1.446 . S
C431 C461 1.391 . S
C432 C431 1.446 . S
C432 C433 1.339 . S
C432 H467 0.949 . S
C433 C432 1.339 . S
C433 C434 1.439 . S
C433 H468 0.950 . S
C434 N430 1.383 . S
C434 C433 1.439 . S
C434 C463 1.392 . S
N435 Co429 2.008 . S
N435 C436 1.376 . S
N435 C439 1.374 . S
C436 N435 1.376 . S
C436 C437 1.443 . S
C436 C463 1.389 . S
C437 C436 1.443 . S
C437 C438 1.340 . S
C437 H469 0.951 . S
C438 C437 1.340 . S
C438 C439 1.439 . S
C438 H470 0.950 . S
C439 N435 1.374 . S
C439 C438 1.439 . S
C439 C464 1.395 . S
N440 Co429 1.995 . S
N440 C441 1.376 . S
N440 C444 1.383 . S
C441 N440 1.376 . S
C441 C442 1.446 . S
C441 C464 1.391 . S
C442 C441 1.446 . S
C442 C443 1.339 . S
C442 H471 0.949 . S
C443 C442 1.339 . S
C443 C444 1.439 . S
C443 H472 0.950 . S
C444 N440 1.383 . S
C444 C443 1.439 . S
C444 C462 1.392 . S
N445 Co429 2.282 . S
N445 C448 1.332 . S
N445 C450 1.332 . S
C446 C447 1.386 . S
C446 C449 1.388 . S
C447 C446 1.386 . S
C447 C448 1.382 . S
C447 H473 0.950 . S
C448 N445 1.332 . S
C448 C447 1.382 . S
C448 H459 0.952 . S
C449 C446 1.388 . S
C449 C450 1.382 . S
C449 H474 0.950 . S
C450 N445 1.332 . S
C450 C449 1.382 . S
C450 H460 0.948 . S
N451 Co429 2.282 . S
N451 C455 1.332 . S
N451 C456 1.332 . S
C452 C453 1.388 . S
C452 C456 1.382 . S
C452 H475 0.950 . S
C453 C452 1.388 . S
C453 C454 1.386 . S
C454 C453 1.386 . S
C454 C455 1.382 . S
C454 H476 0.950 . S
C455 N451 1.332 . S
C455 C454 1.382 . S
C455 H457 0.952 . S
C456 N451 1.332 . S
C456 C452 1.382 . S
C456 H458 0.948 . S
H457 C455 0.952 . S
H458 C456 0.948 . S
H459 C448 0.952 . S
H460 C450 0.948 . S
C461 C427 1.395 . S
C461 C431 1.391 . S
C462 C424 1.389 . S
C462 C444 1.392 . S
C463 C434 1.392 . S
C463 C436 1.389 . S
C464 C439 1.395 . S
C464 C441 1.391 . S
H465 C425 0.951 . S
H466 C426 0.950 . S
H467 C432 0.949 . S
H468 C433 0.950 . S
H469 C437 0.951 . S
H470 C438 0.950 . S
H471 C442 0.949 . S
H472 C443 0.950 . S
H473 C447 0.950 . S
H474 C449 0.950 . S
H475 C452 0.950 . S
H476 C454 0.950 . S
C477 C478 1.443 . S
C477 N481 1.376 . S
C477 C515 1.389 . S
C478 C477 1.443 . S
C478 C479 1.340 . S
C478 H518 0.951 . S
C479 C478 1.340 . S
C479 C480 1.439 . S
C479 H519 0.950 . S
C480 C479 1.439 . S
C480 N481 1.374 . S
C480 C514 1.395 . S
N481 C477 1.376 . S
N481 C480 1.374 . S
N481 Co482 2.008 . S
Co482 N481 2.008 . S
Co482 N483 1.995 . S
Co482 N488 2.008 . S
Co482 N493 1.995 . S
Co482 N498 2.282 . S
Co482 N504 2.282 . S
N483 Co482 1.995 . S
N483 C484 1.376 . S
N483 C487 1.383 . S
C484 N483 1.376 . S
C484 C485 1.446 . S
C484 C514 1.391 . S
C485 C484 1.446 . S
C485 C486 1.339 . S
C485 H520 0.949 . S
C486 C485 1.339 . S
C486 C487 1.439 . S
C486 H521 0.950 . S
C487 N483 1.383 . S
C487 C486 1.439 . S
C487 C516 1.392 . S
N488 Co482 2.008 . S
N488 C489 1.376 . S
N488 C492 1.374 . S
C489 N488 1.376 . S
C489 C490 1.443 . S
C489 C516 1.389 . S
C490 C489 1.443 . S
C490 C491 1.340 . S
C490 H522 0.951 . S
C491 C490 1.340 . S
C491 C492 1.439 . S
C491 H523 0.950 . S
C492 N488 1.374 . S
C492 C491 1.439 . S
C492 C517 1.395 . S
N493 Co482 1.995 . S
N493 C494 1.376 . S
N493 C497 1.383 . S
C494 N493 1.376 . S
C494 C495 1.446 . S
C494 C517 1.391 . S
C495 C494 1.446 . S
C495 C496 1.339 . S
C495 H524 0.949 . S
C496 C495 1.339 . S
C496 C497 1.439 . S
C496 H525 0.950 . S
C497 N493 1.383 . S
C497 C496 1.439 . S
C497 C515 1.392 . S
N498 Co482 2.282 . S
N498 C501 1.332 . S
N498 C503 1.332 . S
C499 C500 1.386 . S
C499 C502 1.388 . S
C500 C499 1.386 . S
C500 C501 1.382 . S
C500 H526 0.950 . S
C501 N498 1.332 . S
C501 C500 1.382 . S
C501 H512 0.952 . S
C502 C499 1.388 . S
C502 C503 1.382 . S
C502 H527 0.950 . S
C503 N498 1.332 . S
C503 C502 1.382 . S
C503 H513 0.948 . S
N504 Co482 2.282 . S
N504 C508 1.332 . S
N504 C509 1.332 . S
C505 C506 1.388 . S
C505 C509 1.382 . S
C505 H528 0.950 . S
C506 C505 1.388 . S
C506 C507 1.386 . S
C507 C506 1.386 . S
C507 C508 1.382 . S
C507 H529 0.950 . S
C508 N504 1.332 . S
C508 C507 1.382 . S
C508 H510 0.952 . S
C509 N504 1.332 . S
C509 C505 1.382 . S
C509 H511 0.948 . S
H510 C508 0.952 . S
H511 C509 0.948 . S
H512 C501 0.952 . S
H513 C503 0.948 . S
C514 C480 1.395 . S
C514 C484 1.391 . S
C515 C477 1.389 . S
C515 C497 1.392 . S
C516 C487 1.392 . S
C516 C489 1.389 . S
C517 C492 1.395 . S
C517 C494 1.391 . S
H518 C478 0.951 . S
H519 C479 0.950 . S
H520 C485 0.949 . S
H521 C486 0.950 . S
H522 C490 0.951 . S
H523 C491 0.950 . S
H524 C495 0.949 . S
H525 C496 0.950 . S
H526 C500 0.950 . S
H527 C502 0.950 . S
H528 C505 0.950 . S
H529 C507 0.950 . S
C530 C531 1.443 . S
C530 N534 1.376 . S
C530 C568 1.389 . S
C531 C530 1.443 . S
C531 C532 1.340 . S
C531 H571 0.951 . S
C532 C531 1.340 . S
C532 C533 1.439 . S
C532 H572 0.950 . S
C533 C532 1.439 . S
C533 N534 1.374 . S
C533 C567 1.395 . S
N534 C530 1.376 . S
N534 C533 1.374 . S
N534 Co535 2.008 . S
Co535 N534 2.008 . S
Co535 N536 1.995 . S
Co535 N541 2.008 . S
Co535 N546 1.995 . S
Co535 N551 2.282 . S
Co535 N557 2.282 . S
N536 Co535 1.995 . S
N536 C537 1.376 . S
N536 C540 1.383 . S
C537 N536 1.376 . S
C537 C538 1.446 . S
C537 C567 1.391 . S
C538 C537 1.446 . S
C538 C539 1.339 . S
C538 H573 0.949 . S
C539 C538 1.339 . S
C539 C540 1.439 . S
C539 H574 0.950 . S
C540 N536 1.383 . S
C540 C539 1.439 . S
C540 C569 1.392 . S
N541 Co535 2.008 . S
N541 C542 1.376 . S
N541 C545 1.374 . S
C542 N541 1.376 . S
C542 C543 1.443 . S
C542 C569 1.389 . S
C543 C542 1.443 . S
C543 C544 1.340 . S
C543 H575 0.951 . S
C544 C543 1.340 . S
C544 C545 1.439 . S
C544 H576 0.950 . S
C545 N541 1.374 . S
C545 C544 1.439 . S
C545 C570 1.395 . S
N546 Co535 1.995 . S
N546 C547 1.376 . S
N546 C550 1.383 . S
C547 N546 1.376 . S
C547 C548 1.446 . S
C547 C570 1.391 . S
C548 C547 1.446 . S
C548 C549 1.339 . S
C548 H577 0.949 . S
C549 C548 1.339 . S
C549 C550 1.439 . S
C549 H578 0.950 . S
C550 N546 1.383 . S
C550 C549 1.439 . S
C550 C568 1.392 . S
N551 Co535 2.282 . S
N551 C554 1.332 . S
N551 C556 1.332 . S
C552 C553 1.386 . S
C552 C555 1.388 . S
C553 C552 1.386 . S
C553 C554 1.382 . S
C553 H579 0.950 . S
C554 N551 1.332 . S
C554 C553 1.382 . S
C554 H565 0.952 . S
C555 C552 1.388 . S
C555 C556 1.382 . S
C555 H580 0.950 . S
C556 N551 1.332 . S
C556 C555 1.382 . S
C556 H566 0.948 . S
N557 Co535 2.282 . S
N557 C561 1.332 . S
N557 C562 1.332 . S
C558 C559 1.388 . S
C558 C562 1.382 . S
C558 H581 0.950 . S
C559 C558 1.388 . S
C559 C560 1.386 . S
C560 C559 1.386 . S
C560 C561 1.382 . S
C560 H582 0.950 . S
C561 N557 1.332 . S
C561 C560 1.382 . S
C561 H563 0.952 . S
C562 N557 1.332 . S
C562 C558 1.382 . S
C562 H564 0.948 . S
H563 C561 0.952 . S
H564 C562 0.948 . S
H565 C554 0.952 . S
H566 C556 0.948 . S
C567 C533 1.395 . S
C567 C537 1.391 . S
C568 C530 1.389 . S
C568 C550 1.392 . S
C569 C540 1.392 . S
C569 C542 1.389 . S
C570 C545 1.395 . S
C570 C547 1.391 . S
H571 C531 0.951 . S
H572 C532 0.950 . S
H573 C538 0.949 . S
H574 C539 0.950 . S
H575 C543 0.951 . S
H576 C544 0.950 . S
H577 C548 0.949 . S
H578 C549 0.950 . S
H579 C553 0.950 . S
H580 C555 0.950 . S
H581 C558 0.950 . S
H582 C560 0.950 . S
C583 C584 1.443 . S
C583 N587 1.376 . S
C583 C621 1.389 . S
C584 C583 1.443 . S
C584 C585 1.340 . S
C584 H624 0.951 . S
C585 C584 1.340 . S
C585 C586 1.439 . S
C585 H625 0.950 . S
C586 C585 1.439 . S
C586 N587 1.374 . S
C586 C620 1.395 . S
N587 C583 1.376 . S
N587 C586 1.374 . S
N587 Co588 2.008 . S
Co588 N587 2.008 . S
Co588 N589 1.995 . S
Co588 N594 2.008 . S
Co588 N599 1.995 . S
Co588 N604 2.282 . S
Co588 N610 2.282 . S
N589 Co588 1.995 . S
N589 C590 1.376 . S
N589 C593 1.383 . S
C590 N589 1.376 . S
C590 C591 1.446 . S
C590 C620 1.391 . S
C591 C590 1.446 . S
C591 C592 1.339 . S
C591 H626 0.949 . S
C592 C591 1.339 . S
C592 C593 1.439 . S
C592 H627 0.950 . S
C593 N589 1.383 . S
C593 C592 1.439 . S
C593 C622 1.392 . S
N594 Co588 2.008 . S
N594 C595 1.376 . S
N594 C598 1.374 . S
C595 N594 1.376 . S
C595 C596 1.443 . S
C595 C622 1.389 . S
C596 C595 1.443 . S
C596 C597 1.340 . S
C596 H628 0.951 . S
C597 C596 1.340 . S
C597 C598 1.439 . S
C597 H629 0.950 . S
C598 N594 1.374 . S
C598 C597 1.439 . S
C598 C623 1.395 . S
N599 Co588 1.995 . S
N599 C600 1.376 . S
N599 C603 1.383 . S
C600 N599 1.376 . S
C600 C601 1.446 . S
C600 C623 1.391 . S
C601 C600 1.446 . S
C601 C602 1.339 . S
C601 H630 0.949 . S
C602 C601 1.339 . S
C602 C603 1.439 . S
C602 H631 0.950 . S
C603 N599 1.383 . S
C603 C602 1.439 . S
C603 C621 1.392 . S
N604 Co588 2.282 . S
N604 C607 1.332 . S
N604 C609 1.332 . S
C605 C606 1.386 . S
C605 C608 1.388 . S
C606 C605 1.386 . S
C606 C607 1.382 . S
C606 H632 0.950 . S
C607 N604 1.332 . S
C607 C606 1.382 . S
C607 H618 0.952 . S
C608 C605 1.388 . S
C608 C609 1.382 . S
C608 H633 0.950 . S
C609 N604 1.332 . S
C609 C608 1.382 . S
C609 H619 0.948 . S
N610 Co588 2.282 . S
N610 C614 1.332 . S
N610 C615 1.332 . S
C611 C612 1.388 . S
C611 C615 1.382 . S
C611 H634 0.950 . S
C612 C611 1.388 . S
C612 C613 1.386 . S
C613 C612 1.386 . S
C613 C614 1.382 . S
C613 H635 0.950 . S
C614 N610 1.332 . S
C614 C613 1.382 . S
C614 H616 0.952 . S
C615 N610 1.332 . S
C615 C611 1.382 . S
C615 H617 0.948 . S
H616 C614 0.952 . S
H617 C615 0.948 . S
H618 C607 0.952 . S
H619 C609 0.948 . S
C620 C586 1.395 . S
C620 C590 1.391 . S
C621 C583 1.389 . S
C621 C603 1.392 . S
C622 C593 1.392 . S
C622 C595 1.389 . S
C623 C598 1.395 . S
C623 C600 1.391 . S
H624 C584 0.951 . S
H625 C585 0.950 . S
H626 C591 0.949 . S
H627 C592 0.950 . S
H628 C596 0.951 . S
H629 C597 0.950 . S
H630 C601 0.949 . S
H631 C602 0.950 . S
H632 C606 0.950 . S
H633 C608 0.950 . S
H634 C611 0.950 . S
H635 C613 0.950 . S
C636 C637 1.443 . S
C636 N640 1.376 . S
C636 C674 1.389 . S
C637 C636 1.443 . S
C637 C638 1.340 . S
C637 H677 0.951 . S
C638 C637 1.340 . S
C638 C639 1.439 . S
C638 H678 0.950 . S
C639 C638 1.439 . S
C639 N640 1.374 . S
C639 C673 1.395 . S
N640 C636 1.376 . S
N640 C639 1.374 . S
N640 Co641 2.008 . S
Co641 N640 2.008 . S
Co641 N642 1.995 . S
Co641 N647 2.008 . S
Co641 N652 1.995 . S
Co641 N657 2.282 . S
Co641 N663 2.282 . S
N642 Co641 1.995 . S
N642 C643 1.376 . S
N642 C646 1.383 . S
C643 N642 1.376 . S
C643 C644 1.446 . S
C643 C673 1.391 . S
C644 C643 1.446 . S
C644 C645 1.339 . S
C644 H679 0.949 . S
C645 C644 1.339 . S
C645 C646 1.439 . S
C645 H680 0.950 . S
C646 N642 1.383 . S
C646 C645 1.439 . S
C646 C675 1.392 . S
N647 Co641 2.008 . S
N647 C648 1.376 . S
N647 C651 1.374 . S
C648 N647 1.376 . S
C648 C649 1.443 . S
C648 C675 1.389 . S
C649 C648 1.443 . S
C649 C650 1.340 . S
C649 H681 0.951 . S
C650 C649 1.340 . S
C650 C651 1.439 . S
C650 H682 0.950 . S
C651 N647 1.374 . S
C651 C650 1.439 . S
C651 C676 1.395 . S
N652 Co641 1.995 . S
N652 C653 1.376 . S
N652 C656 1.383 . S
C653 N652 1.376 . S
C653 C654 1.446 . S
C653 C676 1.391 . S
C654 C653 1.446 . S
C654 C655 1.339 . S
C654 H683 0.949 . S
C655 C654 1.339 . S
C655 C656 1.439 . S
C655 H684 0.950 . S
C656 N652 1.383 . S
C656 C655 1.439 . S
C656 C674 1.392 . S
N657 Co641 2.282 . S
N657 C660 1.332 . S
N657 C662 1.332 . S
C658 C659 1.386 . S
C658 C661 1.388 . S
C659 C658 1.386 . S
C659 C660 1.382 . S
C659 H685 0.950 . S
C660 N657 1.332 . S
C660 C659 1.382 . S
C660 H671 0.952 . S
C661 C658 1.388 . S
C661 C662 1.382 . S
C661 H686 0.950 . S
C662 N657 1.332 . S
C662 C661 1.382 . S
C662 H672 0.948 . S
N663 Co641 2.282 . S
N663 C667 1.332 . S
N663 C668 1.332 . S
C664 C665 1.388 . S
C664 C668 1.382 . S
C664 H687 0.950 . S
C665 C664 1.388 . S
C665 C666 1.386 . S
C666 C665 1.386 . S
C666 C667 1.382 . S
C666 H688 0.950 . S
C667 N663 1.332 . S
C667 C666 1.382 . S
C667 H669 0.952 . S
C668 N663 1.332 . S
C668 C664 1.382 . S
C668 H670 0.948 . S
H669 C667 0.952 . S
H670 C668 0.948 . S
H671 C660 0.952 . S
H672 C662 0.948 . S
C673 C639 1.395 . S
C673 C643 1.391 . S
C674 C636 1.389 . S
C674 C656 1.392 . S
C675 C646 1.392 . S
C675 C648 1.389 . S
C676 C651 1.395 . S
C676 C653 1.391 . S
H677 C637 0.951 . S
H678 C638 0.950 . S
H679 C644 0.949 . S
H680 C645 0.950 . S
H681 C649 0.951 . S
H682 C650 0.950 . S
H683 C654 0.949 . S
H684 C655 0.950 . S
H685 C659 0.950 . S
H686 C661 0.950 . S
H687 C664 0.950 . S
H688 C666 0.950 . S
C689 C690 1.443 . S
C689 N693 1.376 . S
C689 C727 1.389 . S
C690 C689 1.443 . S
C690 C691 1.340 . S
C690 H730 0.951 . S
C691 C690 1.340 . S
C691 C692 1.439 . S
C691 H731 0.950 . S
C692 C691 1.439 . S
C692 N693 1.374 . S
C692 C726 1.395 . S
N693 C689 1.376 . S
N693 C692 1.374 . S
N693 Co694 2.008 . S
Co694 N693 2.008 . S
Co694 N695 1.995 . S
Co694 N700 2.008 . S
Co694 N705 1.995 . S
Co694 N710 2.282 . S
Co694 N716 2.282 . S
N695 Co694 1.995 . S
N695 C696 1.376 . S
N695 C699 1.383 . S
C696 N695 1.376 . S
C696 C697 1.446 . S
C696 C726 1.391 . S
C697 C696 1.446 . S
C697 C698 1.339 . S
C697 H732 0.949 . S
C698 C697 1.339 . S
C698 C699 1.439 . S
C698 H733 0.950 . S
C699 N695 1.383 . S
C699 C698 1.439 . S
C699 C728 1.392 . S
N700 Co694 2.008 . S
N700 C701 1.376 . S
N700 C704 1.374 . S
C701 N700 1.376 . S
C701 C702 1.443 . S
C701 C728 1.389 . S
C702 C701 1.443 . S
C702 C703 1.340 . S
C702 H734 0.951 . S
C703 C702 1.340 . S
C703 C704 1.439 . S
C703 H735 0.950 . S
C704 N700 1.374 . S
C704 C703 1.439 . S
C704 C729 1.395 . S
N705 Co694 1.995 . S
N705 C706 1.376 . S
N705 C709 1.383 . S
C706 N705 1.376 . S
C706 C707 1.446 . S
C706 C729 1.391 . S
C707 C706 1.446 . S
C707 C708 1.339 . S
C707 H736 0.949 . S
C708 C707 1.339 . S
C708 C709 1.439 . S
C708 H737 0.950 . S
C709 N705 1.383 . S
C709 C708 1.439 . S
C709 C727 1.392 . S
N710 Co694 2.282 . S
N710 C713 1.332 . S
N710 C715 1.332 . S
C711 C712 1.386 . S
C711 C714 1.388 . S
C712 C711 1.386 . S
C712 C713 1.382 . S
C712 H738 0.950 . S
C713 N710 1.332 . S
C713 C712 1.382 . S
C713 H724 0.952 . S
C714 C711 1.388 . S
C714 C715 1.382 . S
C714 H739 0.950 . S
C715 N710 1.332 . S
C715 C714 1.382 . S
C715 H725 0.948 . S
N716 Co694 2.282 . S
N716 C720 1.332 . S
N716 C721 1.332 . S
C717 C718 1.388 . S
C717 C721 1.382 . S
C717 H740 0.950 . S
C718 C717 1.388 . S
C718 C719 1.386 . S
C719 C718 1.386 . S
C719 C720 1.382 . S
C719 H741 0.950 . S
C720 N716 1.332 . S
C720 C719 1.382 . S
C720 H722 0.952 . S
C721 N716 1.332 . S
C721 C717 1.382 . S
C721 H723 0.948 . S
H722 C720 0.952 . S
H723 C721 0.948 . S
H724 C713 0.952 . S
H725 C715 0.948 . S
C726 C692 1.395 . S
C726 C696 1.391 . S
C727 C689 1.389 . S
C727 C709 1.392 . S
C728 C699 1.392 . S
C728 C701 1.389 . S
C729 C704 1.395 . S
C729 C706 1.391 . S
H730 C690 0.951 . S
H731 C691 0.950 . S
H732 C697 0.949 . S
H733 C698 0.950 . S
H734 C702 0.951 . S
H735 C703 0.950 . S
H736 C707 0.949 . S
H737 C708 0.950 . S
H738 C712 0.950 . S
H739 C714 0.950 . S
H740 C717 0.950 . S
H741 C719 0.950 . S
C742 C743 1.443 . S
C742 N746 1.376 . S
C742 C780 1.389 . S
C743 C742 1.443 . S
C743 C744 1.340 . S
C743 H783 0.951 . S
C744 C743 1.340 . S
C744 C745 1.439 . S
C744 H784 0.950 . S
C745 C744 1.439 . S
C745 N746 1.374 . S
C745 C779 1.395 . S
N746 C742 1.376 . S
N746 C745 1.374 . S
N746 Co747 2.008 . S
Co747 N746 2.008 . S
Co747 N748 1.995 . S
Co747 N753 2.008 . S
Co747 N758 1.995 . S
Co747 N763 2.282 . S
Co747 N769 2.282 . S
N748 Co747 1.995 . S
N748 C749 1.376 . S
N748 C752 1.383 . S
C749 N748 1.376 . S
C749 C750 1.446 . S
C749 C779 1.391 . S
C750 C749 1.446 . S
C750 C751 1.339 . S
C750 H785 0.949 . S
C751 C750 1.339 . S
C751 C752 1.439 . S
C751 H786 0.950 . S
C752 N748 1.383 . S
C752 C751 1.439 . S
C752 C781 1.392 . S
N753 Co747 2.008 . S
N753 C754 1.376 . S
N753 C757 1.374 . S
C754 N753 1.376 . S
C754 C755 1.443 . S
C754 C781 1.389 . S
C755 C754 1.443 . S
C755 C756 1.340 . S
C755 H787 0.951 . S
C756 C755 1.340 . S
C756 C757 1.439 . S
C756 H788 0.950 . S
C757 N753 1.374 . S
C757 C756 1.439 . S
C757 C782 1.395 . S
N758 Co747 1.995 . S
N758 C759 1.376 . S
N758 C762 1.383 . S
C759 N758 1.376 . S
C759 C760 1.446 . S
C759 C782 1.391 . S
C760 C759 1.446 . S
C760 C761 1.339 . S
C760 H789 0.949 . S
C761 C760 1.339 . S
C761 C762 1.439 . S
C761 H790 0.950 . S
C762 N758 1.383 . S
C762 C761 1.439 . S
C762 C780 1.392 . S
N763 Co747 2.282 . S
N763 C766 1.332 . S
N763 C768 1.332 . S
C764 C765 1.386 . S
C764 C767 1.388 . S
C765 C764 1.386 . S
C765 C766 1.382 . S
C765 H791 0.950 . S
C766 N763 1.332 . S
C766 C765 1.382 . S
C766 H777 0.952 . S
C767 C764 1.388 . S
C767 C768 1.382 . S
C767 H792 0.950 . S
C768 N763 1.332 . S
C768 C767 1.382 . S
C768 H778 0.948 . S
N769 Co747 2.282 . S
N769 C773 1.332 . S
N769 C774 1.332 . S
C770 C771 1.388 . S
C770 C774 1.382 . S
C770 H793 0.950 . S
C771 C770 1.388 . S
C771 C772 1.386 . S
C772 C771 1.386 . S
C772 C773 1.382 . S
C772 H794 0.950 . S
C773 N769 1.332 . S
C773 C772 1.382 . S
C773 H775 0.952 . S
C774 N769 1.332 . S
C774 C770 1.382 . S
C774 H776 0.948 . S
H775 C773 0.952 . S
H776 C774 0.948 . S
H777 C766 0.952 . S
H778 C768 0.948 . S
C779 C745 1.395 . S
C779 C749 1.391 . S
C780 C742 1.389 . S
C780 C762 1.392 . S
C781 C752 1.392 . S
C781 C754 1.389 . S
C782 C757 1.395 . S
C782 C759 1.391 . S
H783 C743 0.951 . S
H784 C744 0.950 . S
H785 C750 0.949 . S
H786 C751 0.950 . S
H787 C755 0.951 . S
H788 C756 0.950 . S
H789 C760 0.949 . S
H790 C761 0.950 . S
H791 C765 0.950 . S
H792 C767 0.950 . S
H793 C770 0.950 . S
H794 C772 0.950 . S
C795 C796 1.443 . S
C795 N799 1.376 . S
C795 C833 1.389 . S
C796 C795 1.443 . S
C796 C797 1.340 . S
C796 H836 0.951 . S
C797 C796 1.340 . S
C797 C798 1.439 . S
C797 H837 0.950 . S
C798 C797 1.439 . S
C798 N799 1.374 . S
C798 C832 1.395 . S
N799 C795 1.376 . S
N799 C798 1.374 . S
N799 Co800 2.008 . S
Co800 N799 2.008 . S
Co800 N801 1.995 . S
Co800 N806 2.008 . S
Co800 N811 1.995 . S
Co800 N816 2.282 . S
Co800 N822 2.282 . S
N801 Co800 1.995 . S
N801 C802 1.376 . S
N801 C805 1.383 . S
C802 N801 1.376 . S
C802 C803 1.446 . S
C802 C832 1.391 . S
C803 C802 1.446 . S
C803 C804 1.339 . S
C803 H838 0.949 . S
C804 C803 1.339 . S
C804 C805 1.439 . S
C804 H839 0.950 . S
C805 N801 1.383 . S
C805 C804 1.439 . S
C805 C834 1.392 . S
N806 Co800 2.008 . S
N806 C807 1.376 . S
N806 C810 1.374 . S
C807 N806 1.376 . S
C807 C808 1.443 . S
C807 C834 1.389 . S
C808 C807 1.443 . S
C808 C809 1.340 . S
C808 H840 0.951 . S
C809 C808 1.340 . S
C809 C810 1.439 . S
C809 H841 0.950 . S
C810 N806 1.374 . S
C810 C809 1.439 . S
C810 C835 1.395 . S
N811 Co800 1.995 . S
N811 C812 1.376 . S
N811 C815 1.383 . S
C812 N811 1.376 . S
C812 C813 1.446 . S
C812 C835 1.391 . S
C813 C812 1.446 . S
C813 C814 1.339 . S
C813 H842 0.949 . S
C814 C813 1.339 . S
C814 C815 1.439 . S
C814 H843 0.950 . S
C815 N811 1.383 . S
C815 C814 1.439 . S
C815 C833 1.392 . S
N816 Co800 2.282 . S
N816 C819 1.332 . S
N816 C821 1.332 . S
C817 C818 1.386 . S
C817 C820 1.388 . S
C818 C817 1.386 . S
C818 C819 1.382 . S
C818 H844 0.950 . S
C819 N816 1.332 . S
C819 C818 1.382 . S
C819 H830 0.952 . S
C820 C817 1.388 . S
C820 C821 1.382 . S
C820 H845 0.950 . S
C821 N816 1.332 . S
C821 C820 1.382 . S
C821 H831 0.948 . S
N822 Co800 2.282 . S
N822 C826 1.332 . S
N822 C827 1.332 . S
C823 C824 1.388 . S
C823 C827 1.382 . S
C823 H846 0.950 . S
C824 C823 1.388 . S
C824 C825 1.386 . S
C825 C824 1.386 . S
C825 C826 1.382 . S
C825 H847 0.950 . S
C826 N822 1.332 . S
C826 C825 1.382 . S
C826 H828 0.952 . S
C827 N822 1.332 . S
C827 C823 1.382 . S
C827 H829 0.948 . S
H828 C826 0.952 . S
H829 C827 0.948 . S
H830 C819 0.952 . S
H831 C821 0.948 . S
C832 C798 1.395 . S
C832 C802 1.391 . S
C833 C795 1.389 . S
C833 C815 1.392 . S
C834 C805 1.392 . S
C834 C807 1.389 . S
C835 C810 1.395 . S
C835 C812 1.391 . S
H836 C796 0.951 . S
H837 C797 0.950 . S
H838 C803 0.949 . S
H839 C804 0.950 . S
H840 C808 0.951 . S
H841 C809 0.950 . S
H842 C813 0.949 . S
H843 C814 0.950 . S
H844 C818 0.950 . S
H845 C820 0.950 . S
H846 C823 0.950 . S
H847 C825 0.950 . S
C848 C849 1.443 . S
C848 N852 1.376 . S
C848 C886 1.389 1_655 S
C849 C848 1.443 . S
C849 C850 1.340 . S
C849 H889 0.951 . S
C850 C849 1.340 . S
C850 C851 1.439 . S
C850 H890 0.950 . S
C851 C850 1.439 . S
C851 N852 1.374 . S
C851 C885 1.395 . S
N852 C848 1.376 . S
N852 C851 1.374 . S
N852 Co853 2.008 . S
Co853 N852 2.008 . S
Co853 N854 1.995 . S
Co853 N859 2.008 1_645 S
Co853 N864 1.995 1_645 S
Co853 N869 2.282 1_545 S
Co853 N875 2.282 1_655 S
N854 Co853 1.995 . S
N854 C855 1.376 . S
N854 C858 1.383 . S
C855 N854 1.376 . S
C855 C856 1.446 . S
C855 C885 1.391 . S
C856 C855 1.446 . S
C856 C857 1.339 . S
C856 H891 0.949 . S
C857 C856 1.339 . S
C857 C858 1.439 . S
C857 H892 0.950 . S
C858 N854 1.383 . S
C858 C857 1.439 . S
C858 C887 1.392 1_545 S
N859 Co853 2.008 1_465 S
N859 C860 1.376 . S
N859 C863 1.374 . S
C860 N859 1.376 . S
C860 C861 1.443 . S
C860 C887 1.389 1_455 S
C861 C860 1.443 . S
C861 C862 1.340 . S
C861 H893 0.951 . S
C862 C861 1.340 . S
C862 C863 1.439 . S
C862 H894 0.950 . S
C863 N859 1.374 . S
C863 C862 1.439 . S
C863 C888 1.395 . S
N864 Co853 1.995 1_465 S
N864 C865 1.376 . S
N864 C868 1.383 1_565 S
C865 N864 1.376 . S
C865 C866 1.446 . S
C865 C888 1.391 . S
C866 C865 1.446 . S
C866 C867 1.339 . S
C866 H895 0.949 . S
C867 C866 1.339 . S
C867 C868 1.439 1_565 S
C867 H896 0.950 . S
C868 N864 1.383 1_545 S
C868 C867 1.439 1_545 S
C868 C886 1.392 . S
N869 Co853 2.282 1_565 S
N869 C872 1.332 . S
N869 C874 1.332 1_565 S
C870 C871 1.386 . S
C870 C873 1.388 . S
C871 C870 1.386 . S
C871 C872 1.382 . S
C871 H897 0.950 . S
C872 N869 1.332 . S
C872 C871 1.382 . S
C872 H883 0.952 . S
C873 C870 1.388 . S
C873 C874 1.382 1_565 S
C873 H898 0.950 . S
C874 N869 1.332 1_545 S
C874 C873 1.382 1_545 S
C874 H884 0.948 . S
N875 Co853 2.282 1_455 S
N875 C879 1.332 . S
N875 C880 1.332 . S
C876 C877 1.388 . S
C876 C880 1.382 . S
C876 H899 0.950 . S
C877 C876 1.388 . S
C877 C878 1.386 . S
C878 C877 1.386 . S
C878 C879 1.382 . S
C878 H900 0.950 . S
C879 N875 1.332 . S
C879 C878 1.382 . S
C879 H881 0.952 . S
C880 N875 1.332 . S
C880 C876 1.382 . S
C880 H882 0.948 . S
H881 C879 0.952 . S
H882 C880 0.948 . S
H883 C872 0.952 . S
H884 C874 0.948 . S
C885 C851 1.395 . S
C885 C855 1.391 . S
C886 C848 1.389 1_455 S
C886 C868 1.392 . S
C887 C858 1.392 1_565 S
C887 C860 1.389 1_655 S
C888 C863 1.395 . S
C888 C865 1.391 . S
H889 C849 0.951 . S
H890 C850 0.950 . S
H891 C856 0.949 . S
H892 C857 0.950 . S
H893 C861 0.951 . S
H894 C862 0.950 . S
H895 C866 0.949 . S
H896 C867 0.950 . S
H897 C871 0.950 . S
H898 C873 0.950 . S
H899 C876 0.950 . S
H900 C878 0.950 . S
C901 C902 1.443 . S
C901 N905 1.376 . S
C901 C939 1.389 . S
C902 C901 1.443 . S
C902 C903 1.340 . S
C902 H942 0.951 . S
C903 C902 1.340 . S
C903 C904 1.439 . S
C903 H943 0.950 . S
C904 C903 1.439 . S
C904 N905 1.374 . S
C904 C938 1.395 . S
N905 C901 1.376 . S
N905 C904 1.374 . S
N905 Co906 2.008 . S
Co906 N905 2.008 . S
Co906 N907 1.995 . S
Co906 N912 2.008 . S
Co906 N917 1.995 . S
Co906 N922 2.282 . S
Co906 N928 2.282 . S
N907 Co906 1.995 . S
N907 C908 1.376 . S
N907 C911 1.383 . S
C908 N907 1.376 . S
C908 C909 1.446 . S
C908 C938 1.391 . S
C909 C908 1.446 . S
C909 C910 1.339 . S
C909 H944 0.949 . S
C910 C909 1.339 . S
C910 C911 1.439 . S
C910 H945 0.950 . S
C911 N907 1.383 . S
C911 C910 1.439 . S
C911 C940 1.392 . S
N912 Co906 2.008 . S
N912 C913 1.376 . S
N912 C916 1.374 . S
C913 N912 1.376 . S
C913 C914 1.443 . S
C913 C940 1.389 . S
C914 C913 1.443 . S
C914 C915 1.340 . S
C914 H946 0.951 . S
C915 C914 1.340 . S
C915 C916 1.439 . S
C915 H947 0.950 . S
C916 N912 1.374 . S
C916 C915 1.439 . S
C916 C941 1.395 . S
N917 Co906 1.995 . S
N917 C918 1.376 . S
N917 C921 1.383 . S
C918 N917 1.376 . S
C918 C919 1.446 . S
C918 C941 1.391 . S
C919 C918 1.446 . S
C919 C920 1.339 . S
C919 H948 0.949 . S
C920 C919 1.339 . S
C920 C921 1.439 . S
C920 H949 0.950 . S
C921 N917 1.383 . S
C921 C920 1.439 . S
C921 C939 1.392 . S
N922 Co906 2.282 . S
N922 C925 1.332 . S
N922 C927 1.332 . S
C923 C924 1.386 . S
C923 C926 1.388 . S
C924 C923 1.386 . S
C924 C925 1.382 . S
C924 H950 0.950 . S
C925 N922 1.332 . S
C925 C924 1.382 . S
C925 H936 0.952 . S
C926 C923 1.388 . S
C926 C927 1.382 . S
C926 H951 0.950 . S
C927 N922 1.332 . S
C927 C926 1.382 . S
C927 H937 0.948 . S
N928 Co906 2.282 . S
N928 C932 1.332 . S
N928 C933 1.332 . S
C929 C930 1.388 . S
C929 C933 1.382 . S
C929 H952 0.950 . S
C930 C929 1.388 . S
C930 C931 1.386 . S
C931 C930 1.386 . S
C931 C932 1.382 . S
C931 H953 0.950 . S
C932 N928 1.332 . S
C932 C931 1.382 . S
C932 H934 0.952 . S
C933 N928 1.332 . S
C933 C929 1.382 . S
C933 H935 0.948 . S
H934 C932 0.952 . S
H935 C933 0.948 . S
H936 C925 0.952 . S
H937 C927 0.948 . S
C938 C904 1.395 . S
C938 C908 1.391 . S
C939 C901 1.389 . S
C939 C921 1.392 . S
C940 C911 1.392 . S
C940 C913 1.389 . S
C941 C916 1.395 . S
C941 C918 1.391 . S
H942 C902 0.951 . S
H943 C903 0.950 . S
H944 C909 0.949 . S
H945 C910 0.950 . S
H946 C914 0.951 . S
H947 C915 0.950 . S
H948 C919 0.949 . S
H949 C920 0.950 . S
H950 C924 0.950 . S
H951 C926 0.950 . S
H952 C929 0.950 . S
H953 C931 0.950 . S
C954 C955 1.443 . S
C954 N958 1.376 . S
C954 C992 1.389 1_655 S
C955 C954 1.443 . S
C955 C956 1.340 . S
C955 H995 0.951 . S
C956 C955 1.340 . S
C956 C957 1.439 . S
C956 H996 0.950 . S
C957 C956 1.439 . S
C957 N958 1.374 . S
C957 C991 1.395 . S
N958 C954 1.376 . S
N958 C957 1.374 . S
N958 Co959 2.008 . S
Co959 N958 2.008 . S
Co959 N960 1.995 . S
Co959 N965 2.008 1_655 S
Co959 N970 1.995 1_655 S
Co959 N975 2.282 . S
Co959 N981 2.282 1_655 S
N960 Co959 1.995 . S
N960 C961 1.376 . S
N960 C964 1.383 . S
C961 N960 1.376 . S
C961 C962 1.446 . S
C961 C991 1.391 . S
C962 C961 1.446 . S
C962 C963 1.339 . S
C962 H997 0.949 . S
C963 C962 1.339 . S
C963 C964 1.439 . S
C963 H998 0.950 . S
C964 N960 1.383 . S
C964 C963 1.439 . S
C964 C993 1.392 . S
N965 Co959 2.008 1_455 S
N965 C966 1.376 . S
N965 C969 1.374 . S
C966 N965 1.376 . S
C966 C967 1.443 . S
C966 C993 1.389 1_455 S
C967 C966 1.443 . S
C967 C968 1.340 . S
C967 H999 0.951 . S
C968 C967 1.340 . S
C968 C969 1.439 . S
C968 H1000 0.950 . S
C969 N965 1.374 . S
C969 C968 1.439 . S
C969 C994 1.395 . S
N970 Co959 1.995 1_455 S
N970 C971 1.376 . S
N970 C974 1.383 . S
C971 N970 1.376 . S
C971 C972 1.446 . S
C971 C994 1.391 . S
C972 C971 1.446 . S
C972 C973 1.339 . S
C972 H1001 0.949 . S
C973 C972 1.339 . S
C973 C974 1.439 . S
C973 H1002 0.950 . S
C974 N970 1.383 . S
C974 C973 1.439 . S
C974 C992 1.392 . S
N975 Co959 2.282 . S
N975 C978 1.332 . S
N975 C980 1.332 . S
C976 C977 1.386 . S
C976 C979 1.388 . S
C977 C976 1.386 . S
C977 C978 1.382 . S
C977 H1003 0.950 . S
C978 N975 1.332 . S
C978 C977 1.382 . S
C978 H989 0.952 . S
C979 C976 1.388 . S
C979 C980 1.382 . S
C979 H1004 0.950 . S
C980 N975 1.332 . S
C980 C979 1.382 . S
C980 H990 0.948 . S
N981 Co959 2.282 1_455 S
N981 C985 1.332 . S
N981 C986 1.332 . S
C982 C983 1.388 . S
C982 C986 1.382 . S
C982 H1005 0.950 . S
C983 C982 1.388 . S
C983 C984 1.386 . S
C984 C983 1.386 . S
C984 C985 1.382 . S
C984 H1006 0.950 . S
C985 N981 1.332 . S
C985 C984 1.382 . S
C985 H987 0.952 . S
C986 N981 1.332 . S
C986 C982 1.382 . S
C986 H988 0.948 . S
H987 C985 0.952 . S
H988 C986 0.948 . S
H989 C978 0.952 . S
H990 C980 0.948 . S
C991 C957 1.395 . S
C991 C961 1.391 . S
C992 C954 1.389 1_455 S
C992 C974 1.392 . S
C993 C964 1.392 . S
C993 C966 1.389 1_655 S
C994 C969 1.395 . S
C994 C971 1.391 . S
H995 C955 0.951 . S
H996 C956 0.950 . S
H997 C962 0.949 . S
H998 C963 0.950 . S
H999 C967 0.951 . S
H1000 C968 0.950 . S
H1001 C972 0.949 . S
H1002 C973 0.950 . S
H1003 C977 0.950 . S
H1004 C979 0.950 . S
H1005 C982 0.950 . S
H1006 C984 0.950 . S
C1007 C1008 1.443 . S
C1007 N1011 1.376 . S
C1007 C1045 1.389 . S
C1008 C1007 1.443 . S
C1008 C1009 1.340 . S
C1008 H1048 0.951 . S
C1009 C1008 1.340 . S
C1009 C1010 1.439 . S
C1009 H1049 0.950 . S
C1010 C1009 1.439 . S
C1010 N1011 1.374 . S
C1010 C1044 1.395 . S
N1011 C1007 1.376 . S
N1011 C1010 1.374 . S
N1011 Co1012 2.008 . S
Co1012 N1011 2.008 . S
Co1012 N1013 1.995 . S
Co1012 N1018 2.008 1_545 S
Co1012 N1023 1.995 1_545 S
Co1012 N1028 2.282 1_545 S
Co1012 N1034 2.282 . S
N1013 Co1012 1.995 . S
N1013 C1014 1.376 . S
N1013 C1017 1.383 . S
C1014 N1013 1.376 . S
C1014 C1015 1.446 . S
C1014 C1044 1.391 . S
C1015 C1014 1.446 . S
C1015 C1016 1.339 . S
C1015 H1050 0.949 . S
C1016 C1015 1.339 . S
C1016 C1017 1.439 . S
C1016 H1051 0.950 . S
C1017 N1013 1.383 . S
C1017 C1016 1.439 . S
C1017 C1046 1.392 1_545 S
N1018 Co1012 2.008 1_565 S
N1018 C1019 1.376 . S
N1018 C1022 1.374 . S
C1019 N1018 1.376 . S
C1019 C1020 1.443 . S
C1019 C1046 1.389 . S
C1020 C1019 1.443 . S
C1020 C1021 1.340 . S
C1020 H1052 0.951 . S
C1021 C1020 1.340 . S
C1021 C1022 1.439 . S
C1021 H1053 0.950 . S
C1022 N1018 1.374 . S
C1022 C1021 1.439 . S
C1022 C1047 1.395 . S
N1023 Co1012 1.995 1_565 S
N1023 C1024 1.376 . S
N1023 C1027 1.383 1_565 S
C1024 N1023 1.376 . S
C1024 C1025 1.446 . S
C1024 C1047 1.391 . S
C1025 C1024 1.446 . S
C1025 C1026 1.339 . S
C1025 H1054 0.949 . S
C1026 C1025 1.339 . S
C1026 C1027 1.439 1_565 S
C1026 H1055 0.950 . S
C1027 N1023 1.383 1_545 S
C1027 C1026 1.439 1_545 S
C1027 C1045 1.392 . S
N1028 Co1012 2.282 1_565 S
N1028 C1031 1.332 . S
N1028 C1033 1.332 . S
C1029 C1030 1.386 . S
C1029 C1032 1.388 . S
C1030 C1029 1.386 . S
C1030 C1031 1.382 . S
C1030 H1056 0.950 . S
C1031 N1028 1.332 . S
C1031 C1030 1.382 . S
C1031 H1042 0.952 . S
C1032 C1029 1.388 . S
C1032 C1033 1.382 . S
C1032 H1057 0.950 . S
C1033 N1028 1.332 . S
C1033 C1032 1.382 . S
C1033 H1043 0.948 1_565 S
N1034 Co1012 2.282 . S
N1034 C1038 1.332 . S
N1034 C1039 1.332 . S
C1035 C1036 1.388 . S
C1035 C1039 1.382 . S
C1035 H1058 0.950 . S
C1036 C1035 1.388 . S
C1036 C1037 1.386 . S
C1037 C1036 1.386 . S
C1037 C1038 1.382 . S
C1037 H1059 0.950 . S
C1038 N1034 1.332 . S
C1038 C1037 1.382 . S
C1038 H1040 0.952 . S
C1039 N1034 1.332 . S
C1039 C1035 1.382 . S
C1039 H1041 0.948 . S
H1040 C1038 0.952 . S
H1041 C1039 0.948 . S
H1042 C1031 0.952 . S
H1043 C1033 0.948 1_545 S
C1044 C1010 1.395 . S
C1044 C1014 1.391 . S
C1045 C1007 1.389 . S
C1045 C1027 1.392 . S
C1046 C1017 1.392 1_565 S
C1046 C1019 1.389 . S
C1047 C1022 1.395 . S
C1047 C1024 1.391 . S
H1048 C1008 0.951 . S
H1049 C1009 0.950 . S
H1050 C1015 0.949 . S
H1051 C1016 0.950 . S
H1052 C1020 0.951 . S
H1053 C1021 0.950 . S
H1054 C1025 0.949 . S
H1055 C1026 0.950 . S
H1056 C1030 0.950 . S
H1057 C1032 0.950 . S
H1058 C1035 0.950 . S
H1059 C1037 0.950 . S
C1060 C1061 1.443 1_565 S
C1060 N1064 1.376 1_565 S
C1060 C1098 1.389 . S
C1061 C1060 1.443 1_545 S
C1061 C1062 1.340 . S
C1061 H1101 0.951 1_545 S
C1062 C1061 1.340 . S
C1062 C1063 1.439 . S
C1062 H1102 0.950 . S
C1063 C1062 1.439 . S
C1063 N1064 1.374 . S
C1063 C1097 1.395 . S
N1064 C1060 1.376 1_545 S
N1064 C1063 1.374 . S
N1064 Co1065 2.008 1_645 S
Co1065 N1064 2.008 1_465 S
Co1065 N1066 1.995 1_465 S
Co1065 N1071 2.008 . S
Co1065 N1076 1.995 . S
Co1065 N1081 2.282 1_565 S
Co1065 N1087 2.282 1_455 S
N1066 Co1065 1.995 1_645 S
N1066 C1067 1.376 . S
N1066 C1070 1.383 . S
C1067 N1066 1.376 . S
C1067 C1068 1.446 . S
C1067 C1097 1.391 . S
C1068 C1067 1.446 . S
C1068 C1069 1.339 . S
C1068 H1103 0.949 . S
C1069 C1068 1.339 . S
C1069 C1070 1.439 . S
C1069 H1104 0.950 . S
C1070 N1066 1.383 . S
C1070 C1069 1.439 . S
C1070 C1099 1.392 1_655 S
N1071 Co1065 2.008 . S
N1071 C1072 1.376 . S
N1071 C1075 1.374 . S
C1072 N1071 1.376 . S
C1072 C1073 1.443 . S
C1072 C1099 1.389 1_565 S
C1073 C1072 1.443 . S
C1073 C1074 1.340 . S
C1073 H1105 0.951 . S
C1074 C1073 1.340 . S
C1074 C1075 1.439 . S
C1074 H1106 0.950 . S
C1075 N1071 1.374 . S
C1075 C1074 1.439 . S
C1075 C1100 1.395 . S
N1076 Co1065 1.995 . S
N1076 C1077 1.376 . S
N1076 C1080 1.383 . S
C1077 N1076 1.376 . S
C1077 C1078 1.446 . S
C1077 C1100 1.391 . S
C1078 C1077 1.446 . S
C1078 C1079 1.339 . S
C1078 H1107 0.949 . S
C1079 C1078 1.339 . S
C1079 C1080 1.439 . S
C1079 H1108 0.950 . S
C1080 N1076 1.383 . S
C1080 C1079 1.439 . S
C1080 C1098 1.392 1_455 S
N1081 Co1065 2.282 1_545 S
N1081 C1084 1.332 1_545 S
N1081 C1086 1.332 . S
C1082 C1083 1.386 . S
C1082 C1085 1.388 . S
C1083 C1082 1.386 . S
C1083 C1084 1.382 1_545 S
C1083 H1109 0.950 . S
C1084 N1081 1.332 1_565 S
C1084 C1083 1.382 1_565 S
C1084 H1095 0.952 . S
C1085 C1082 1.388 . S
C1085 C1086 1.382 . S
C1085 H1110 0.950 . S
C1086 N1081 1.332 . S
C1086 C1085 1.382 . S
C1086 H1096 0.948 . S
N1087 Co1065 2.282 1_655 S
N1087 C1091 1.332 . S
N1087 C1092 1.332 . S
C1088 C1089 1.388 . S
C1088 C1092 1.382 . S
C1088 H1111 0.950 . S
C1089 C1088 1.388 . S
C1089 C1090 1.386 . S
C1090 C1089 1.386 . S
C1090 C1091 1.382 . S
C1090 H1112 0.950 . S
C1091 N1087 1.332 . S
C1091 C1090 1.382 . S
C1091 H1093 0.952 . S
C1092 N1087 1.332 . S
C1092 C1088 1.382 . S
C1092 H1094 0.948 . S
H1093 C1091 0.952 . S
H1094 C1092 0.948 . S
H1095 C1084 0.952 . S
H1096 C1086 0.948 . S
C1097 C1063 1.395 . S
C1097 C1067 1.391 . S
C1098 C1060 1.389 . S
C1098 C1080 1.392 1_655 S
C1099 C1070 1.392 1_455 S
C1099 C1072 1.389 1_545 S
C1100 C1075 1.395 . S
C1100 C1077 1.391 . S
H1101 C1061 0.951 1_565 S
H1102 C1062 0.950 . S
H1103 C1068 0.949 . S
H1104 C1069 0.950 . S
H1105 C1073 0.951 . S
H1106 C1074 0.950 . S
H1107 C1078 0.949 . S
H1108 C1079 0.950 . S
H1109 C1083 0.950 . S
H1110 C1085 0.950 . S
H1111 C1088 0.950 . S
H1112 C1090 0.950 . S
C1113 C1114 1.443 . S
C1113 N1117 1.376 . S
C1113 C1151 1.389 . S
C1114 C1113 1.443 . S
C1114 C1115 1.340 . S
C1114 H1154 0.951 . S
C1115 C1114 1.340 . S
C1115 C1116 1.439 . S
C1115 H1155 0.950 . S
C1116 C1115 1.439 . S
C1116 N1117 1.374 . S
C1116 C1150 1.395 . S
N1117 C1113 1.376 . S
N1117 C1116 1.374 . S
N1117 Co1118 2.008 . S
Co1118 N1117 2.008 . S
Co1118 N1119 1.995 . S
Co1118 N1124 2.008 . S
Co1118 N1129 1.995 . S
Co1118 N1134 2.282 . S
Co1118 N1140 2.282 . S
N1119 Co1118 1.995 . S
N1119 C1120 1.376 . S
N1119 C1123 1.383 . S
C1120 N1119 1.376 . S
C1120 C1121 1.446 . S
C1120 C1150 1.391 . S
C1121 C1120 1.446 . S
C1121 C1122 1.339 . S
C1121 H1156 0.949 . S
C1122 C1121 1.339 . S
C1122 C1123 1.439 . S
C1122 H1157 0.950 . S
C1123 N1119 1.383 . S
C1123 C1122 1.439 . S
C1123 C1152 1.392 . S
N1124 Co1118 2.008 . S
N1124 C1125 1.376 . S
N1124 C1128 1.374 . S
C1125 N1124 1.376 . S
C1125 C1126 1.443 . S
C1125 C1152 1.389 . S
C1126 C1125 1.443 . S
C1126 C1127 1.340 . S
C1126 H1158 0.951 . S
C1127 C1126 1.340 . S
C1127 C1128 1.439 . S
C1127 H1159 0.950 . S
C1128 N1124 1.374 . S
C1128 C1127 1.439 . S
C1128 C1153 1.395 . S
N1129 Co1118 1.995 . S
N1129 C1130 1.376 . S
N1129 C1133 1.383 . S
C1130 N1129 1.376 . S
C1130 C1131 1.446 . S
C1130 C1153 1.391 . S
C1131 C1130 1.446 . S
C1131 C1132 1.339 . S
C1131 H1160 0.949 . S
C1132 C1131 1.339 . S
C1132 C1133 1.439 . S
C1132 H1161 0.950 . S
C1133 N1129 1.383 . S
C1133 C1132 1.439 . S
C1133 C1151 1.392 . S
N1134 Co1118 2.282 . S
N1134 C1137 1.332 . S
N1134 C1139 1.332 . S
C1135 C1136 1.386 . S
C1135 C1138 1.388 . S
C1136 C1135 1.386 . S
C1136 C1137 1.382 . S
C1136 H1162 0.950 . S
C1137 N1134 1.332 . S
C1137 C1136 1.382 . S
C1137 H1148 0.952 . S
C1138 C1135 1.388 . S
C1138 C1139 1.382 . S
C1138 H1163 0.950 . S
C1139 N1134 1.332 . S
C1139 C1138 1.382 . S
C1139 H1149 0.948 . S
N1140 Co1118 2.282 . S
N1140 C1144 1.332 . S
N1140 C1145 1.332 . S
C1141 C1142 1.388 . S
C1141 C1145 1.382 . S
C1141 H1164 0.950 . S
C1142 C1141 1.388 . S
C1142 C1143 1.386 . S
C1143 C1142 1.386 . S
C1143 C1144 1.382 . S
C1143 H1165 0.950 . S
C1144 N1140 1.332 . S
C1144 C1143 1.382 . S
C1144 H1146 0.952 . S
C1145 N1140 1.332 . S
C1145 C1141 1.382 . S
C1145 H1147 0.948 . S
H1146 C1144 0.952 . S
H1147 C1145 0.948 . S
H1148 C1137 0.952 . S
H1149 C1139 0.948 . S
C1150 C1116 1.395 . S
C1150 C1120 1.391 . S
C1151 C1113 1.389 . S
C1151 C1133 1.392 . S
C1152 C1123 1.392 . S
C1152 C1125 1.389 . S
C1153 C1128 1.395 . S
C1153 C1130 1.391 . S
H1154 C1114 0.951 . S
H1155 C1115 0.950 . S
H1156 C1121 0.949 . S
H1157 C1122 0.950 . S
H1158 C1126 0.951 . S
H1159 C1127 0.950 . S
H1160 C1131 0.949 . S
H1161 C1132 0.950 . S
H1162 C1136 0.950 . S
H1163 C1138 0.950 . S
H1164 C1141 0.950 . S
H1165 C1143 0.950 . S
C1166 C1167 1.443 . S
C1166 N1170 1.376 . S
C1166 C1204 1.389 . S
C1167 C1166 1.443 . S
C1167 C1168 1.340 . S
C1167 H1207 0.951 . S
C1168 C1167 1.340 . S
C1168 C1169 1.439 . S
C1168 H1208 0.950 . S
C1169 C1168 1.439 . S
C1169 N1170 1.374 . S
C1169 C1203 1.395 . S
N1170 C1166 1.376 . S
N1170 C1169 1.374 . S
N1170 Co1171 2.008 1_655 S
Co1171 N1170 2.008 1_455 S
Co1171 N1172 1.995 1_455 S
Co1171 N1177 2.008 . S
Co1171 N1182 1.995 . S
Co1171 N1187 2.282 . S
Co1171 N1193 2.282 1_455 S
N1172 Co1171 1.995 1_655 S
N1172 C1173 1.376 . S
N1172 C1176 1.383 . S
C1173 N1172 1.376 . S
C1173 C1174 1.446 . S
C1173 C1203 1.391 . S
C1174 C1173 1.446 . S
C1174 C1175 1.339 . S
C1174 H1209 0.949 . S
C1175 C1174 1.339 . S
C1175 C1176 1.439 . S
C1175 H1210 0.950 . S
C1176 N1172 1.383 . S
C1176 C1175 1.439 . S
C1176 C1205 1.392 1_655 S
N1177 Co1171 2.008 . S
N1177 C1178 1.376 . S
N1177 C1181 1.374 . S
C1178 N1177 1.376 . S
C1178 C1179 1.443 . S
C1178 C1205 1.389 . S
C1179 C1178 1.443 . S
C1179 C1180 1.340 . S
C1179 H1211 0.951 . S
C1180 C1179 1.340 . S
C1180 C1181 1.439 . S
C1180 H1212 0.950 . S
C1181 N1177 1.374 . S
C1181 C1180 1.439 . S
C1181 C1206 1.395 . S
N1182 Co1171 1.995 . S
N1182 C1183 1.376 . S
N1182 C1186 1.383 . S
C1183 N1182 1.376 . S
C1183 C1184 1.446 . S
C1183 C1206 1.391 . S
C1184 C1183 1.446 . S
C1184 C1185 1.339 . S
C1184 H1213 0.949 . S
C1185 C1184 1.339 . S
C1185 C1186 1.439 . S
C1185 H1214 0.950 . S
C1186 N1182 1.383 . S
C1186 C1185 1.439 . S
C1186 C1204 1.392 1_455 S
N1187 Co1171 2.282 . S
N1187 C1190 1.332 . S
N1187 C1192 1.332 . S
C1188 C1189 1.386 . S
C1188 C1191 1.388 . S
C1189 C1188 1.386 . S
C1189 C1190 1.382 . S
C1189 H1215 0.950 . S
C1190 N1187 1.332 . S
C1190 C1189 1.382 . S
C1190 H1201 0.952 . S
C1191 C1188 1.388 . S
C1191 C1192 1.382 . S
C1191 H1216 0.950 . S
C1192 N1187 1.332 . S
C1192 C1191 1.382 . S
C1192 H1202 0.948 . S
N1193 Co1171 2.282 1_655 S
N1193 C1197 1.332 . S
N1193 C1198 1.332 . S
C1194 C1195 1.388 . S
C1194 C1198 1.382 . S
C1194 H1217 0.950 . S
C1195 C1194 1.388 . S
C1195 C1196 1.386 . S
C1196 C1195 1.386 . S
C1196 C1197 1.382 . S
C1196 H1218 0.950 . S
C1197 N1193 1.332 . S
C1197 C1196 1.382 . S
C1197 H1199 0.952 . S
C1198 N1193 1.332 . S
C1198 C1194 1.382 . S
C1198 H1200 0.948 . S
H1199 C1197 0.952 . S
H1200 C1198 0.948 . S
H1201 C1190 0.952 . S
H1202 C1192 0.948 . S
C1203 C1169 1.395 . S
C1203 C1173 1.391 . S
C1204 C1166 1.389 . S
C1204 C1186 1.392 1_655 S
C1205 C1176 1.392 1_455 S
C1205 C1178 1.389 . S
C1206 C1181 1.395 . S
C1206 C1183 1.391 . S
H1207 C1167 0.951 . S
H1208 C1168 0.950 . S
H1209 C1174 0.949 . S
H1210 C1175 0.950 . S
H1211 C1179 0.951 . S
H1212 C1180 0.950 . S
H1213 C1184 0.949 . S
H1214 C1185 0.950 . S
H1215 C1189 0.950 . S
H1216 C1191 0.950 . S
H1217 C1194 0.950 . S
H1218 C1196 0.950 . S
C1219 C1220 1.443 1_565 S
C1219 N1223 1.376 1_565 S
C1219 C1257 1.389 . S
C1220 C1219 1.443 1_545 S
C1220 C1221 1.340 . S
C1220 H1260 0.951 1_545 S
C1221 C1220 1.340 . S
C1221 C1222 1.439 . S
C1221 H1261 0.950 . S
C1222 C1221 1.439 . S
C1222 N1223 1.374 . S
C1222 C1256 1.395 . S
N1223 C1219 1.376 1_545 S
N1223 C1222 1.374 . S
N1223 Co1224 2.008 1_545 S
Co1224 N1223 2.008 1_565 S
Co1224 N1225 1.995 1_565 S
Co1224 N1230 2.008 . S
Co1224 N1235 1.995 . S
Co1224 N1240 2.282 1_565 S
Co1224 N1246 2.282 . S
N1225 Co1224 1.995 1_545 S
N1225 C1226 1.376 . S
N1225 C1229 1.383 . S
C1226 N1225 1.376 . S
C1226 C1227 1.446 . S
C1226 C1256 1.391 . S
C1227 C1226 1.446 . S
C1227 C1228 1.339 . S
C1227 H1262 0.949 . S
C1228 C1227 1.339 . S
C1228 C1229 1.439 . S
C1228 H1263 0.950 . S
C1229 N1225 1.383 . S
C1229 C1228 1.439 . S
C1229 C1258 1.392 . S
N1230 Co1224 2.008 . S
N1230 C1231 1.376 . S
N1230 C1234 1.374 . S
C1231 N1230 1.376 . S
C1231 C1232 1.443 . S
C1231 C1258 1.389 1_565 S
C1232 C1231 1.443 . S
C1232 C1233 1.340 . S
C1232 H1264 0.951 . S
C1233 C1232 1.340 . S
C1233 C1234 1.439 . S
C1233 H1265 0.950 . S
C1234 N1230 1.374 . S
C1234 C1233 1.439 . S
C1234 C1259 1.395 . S
N1235 Co1224 1.995 . S
N1235 C1236 1.376 . S
N1235 C1239 1.383 . S
C1236 N1235 1.376 . S
C1236 C1237 1.446 . S
C1236 C1259 1.391 . S
C1237 C1236 1.446 . S
C1237 C1238 1.339 . S
C1237 H1266 0.949 . S
C1238 C1237 1.339 . S
C1238 C1239 1.439 . S
C1238 H1267 0.950 . S
C1239 N1235 1.383 . S
C1239 C1238 1.439 . S
C1239 C1257 1.392 . S
N1240 Co1224 2.282 1_545 S
N1240 C1243 1.332 . S
N1240 C1245 1.332 . S
C1241 C1242 1.386 . S
C1241 C1244 1.388 . S
C1242 C1241 1.386 . S
C1242 C1243 1.382 . S
C1242 H1268 0.950 . S
C1243 N1240 1.332 . S
C1243 C1242 1.382 . S
C1243 H1254 0.952 1_545 S
C1244 C1241 1.388 . S
C1244 C1245 1.382 . S
C1244 H1269 0.950 . S
C1245 N1240 1.332 . S
C1245 C1244 1.382 . S
C1245 H1255 0.948 . S
N1246 Co1224 2.282 . S
N1246 C1250 1.332 . S
N1246 C1251 1.332 . S
C1247 C1248 1.388 . S
C1247 C1251 1.382 . S
C1247 H1270 0.950 . S
C1248 C1247 1.388 . S
C1248 C1249 1.386 . S
C1249 C1248 1.386 . S
C1249 C1250 1.382 . S
C1249 H1271 0.950 . S
C1250 N1246 1.332 . S
C1250 C1249 1.382 . S
C1250 H1252 0.952 . S
C1251 N1246 1.332 . S
C1251 C1247 1.382 . S
C1251 H1253 0.948 . S
H1252 C1250 0.952 . S
H1253 C1251 0.948 . S
H1254 C1243 0.952 1_565 S
H1255 C1245 0.948 . S
C1256 C1222 1.395 . S
C1256 C1226 1.391 . S
C1257 C1219 1.389 . S
C1257 C1239 1.392 . S
C1258 C1229 1.392 . S
C1258 C1231 1.389 1_545 S
C1259 C1234 1.395 . S
C1259 C1236 1.391 . S
H1260 C1220 0.951 1_565 S
H1261 C1221 0.950 . S
H1262 C1227 0.949 . S
H1263 C1228 0.950 . S
H1264 C1232 0.951 . S
H1265 C1233 0.950 . S
H1266 C1237 0.949 . S
H1267 C1238 0.950 . S
H1268 C1242 0.950 . S
H1269 C1244 0.950 . S
H1270 C1247 0.950 . S
H1271 C1249 0.950 . S
C1272 C1273 1.443 . S
C1272 N1276 1.376 . S
C1272 C1310 1.389 1_655 S
C1273 C1272 1.443 . S
C1273 C1274 1.340 . S
C1273 H1313 0.951 . S
C1274 C1273 1.340 . S
C1274 C1275 1.439 . S
C1274 H1314 0.950 . S
C1275 C1274 1.439 . S
C1275 N1276 1.374 . S
C1275 C1309 1.395 . S
N1276 C1272 1.376 . S
N1276 C1275 1.374 . S
N1276 Co1277 2.008 . S
Co1277 N1276 2.008 . S
Co1277 N1278 1.995 . S
Co1277 N1283 2.008 1_655 S
Co1277 N1288 1.995 1_655 S
Co1277 N1293 2.282 . S
Co1277 N1299 2.282 1_655 S
N1278 Co1277 1.995 . S
N1278 C1279 1.376 . S
N1278 C1282 1.383 . S
C1279 N1278 1.376 . S
C1279 C1280 1.446 . S
C1279 C1309 1.391 . S
C1280 C1279 1.446 . S
C1280 C1281 1.339 . S
C1280 H1315 0.949 . S
C1281 C1280 1.339 . S
C1281 C1282 1.439 . S
C1281 H1316 0.950 . S
C1282 N1278 1.383 . S
C1282 C1281 1.439 . S
C1282 C1311 1.392 . S
N1283 Co1277 2.008 1_455 S
N1283 C1284 1.376 . S
N1283 C1287 1.374 . S
C1284 N1283 1.376 . S
C1284 C1285 1.443 . S
C1284 C1311 1.389 1_455 S
C1285 C1284 1.443 . S
C1285 C1286 1.340 . S
C1285 H1317 0.951 . S
C1286 C1285 1.340 . S
C1286 C1287 1.439 . S
C1286 H1318 0.950 . S
C1287 N1283 1.374 . S
C1287 C1286 1.439 . S
C1287 C1312 1.395 . S
N1288 Co1277 1.995 1_455 S
N1288 C1289 1.376 . S
N1288 C1292 1.383 . S
C1289 N1288 1.376 . S
C1289 C1290 1.446 . S
C1289 C1312 1.391 . S
C1290 C1289 1.446 . S
C1290 C1291 1.339 . S
C1290 H1319 0.949 . S
C1291 C1290 1.339 . S
C1291 C1292 1.439 . S
C1291 H1320 0.950 . S
C1292 N1288 1.383 . S
C1292 C1291 1.439 . S
C1292 C1310 1.392 . S
N1293 Co1277 2.282 . S
N1293 C1296 1.332 . S
N1293 C1298 1.332 . S
C1294 C1295 1.386 . S
C1294 C1297 1.388 . S
C1295 C1294 1.386 . S
C1295 C1296 1.382 . S
C1295 H1321 0.950 . S
C1296 N1293 1.332 . S
C1296 C1295 1.382 . S
C1296 H1307 0.952 . S
C1297 C1294 1.388 . S
C1297 C1298 1.382 . S
C1297 H1322 0.950 . S
C1298 N1293 1.332 . S
C1298 C1297 1.382 . S
C1298 H1308 0.948 . S
N1299 Co1277 2.282 1_455 S
N1299 C1303 1.332 . S
N1299 C1304 1.332 . S
C1300 C1301 1.388 . S
C1300 C1304 1.382 . S
C1300 H1323 0.950 . S
C1301 C1300 1.388 . S
C1301 C1302 1.386 . S
C1302 C1301 1.386 . S
C1302 C1303 1.382 . S
C1302 H1324 0.950 . S
C1303 N1299 1.332 . S
C1303 C1302 1.382 . S
C1303 H1305 0.952 . S
C1304 N1299 1.332 . S
C1304 C1300 1.382 . S
C1304 H1306 0.948 . S
H1305 C1303 0.952 . S
H1306 C1304 0.948 . S
H1307 C1296 0.952 . S
H1308 C1298 0.948 . S
C1309 C1275 1.395 . S
C1309 C1279 1.391 . S
C1310 C1272 1.389 1_455 S
C1310 C1292 1.392 . S
C1311 C1282 1.392 . S
C1311 C1284 1.389 1_655 S
C1312 C1287 1.395 . S
C1312 C1289 1.391 . S
H1313 C1273 0.951 . S
H1314 C1274 0.950 . S
H1315 C1280 0.949 . S
H1316 C1281 0.950 . S
H1317 C1285 0.951 . S
H1318 C1286 0.950 . S
H1319 C1290 0.949 . S
H1320 C1291 0.950 . S
H1321 C1295 0.950 . S
H1322 C1297 0.950 . S
H1323 C1300 0.950 . S
H1324 C1302 0.950 . S
C1325 C1326 1.443 . S
C1325 N1329 1.376 . S
C1325 C1363 1.389 . S
C1326 C1325 1.443 . S
C1326 C1327 1.340 . S
C1326 H1366 0.951 . S
C1327 C1326 1.340 . S
C1327 C1328 1.439 . S
C1327 H1367 0.950 . S
C1328 C1327 1.439 . S
C1328 N1329 1.374 . S
C1328 C1362 1.395 . S
N1329 C1325 1.376 . S
N1329 C1328 1.374 . S
N1329 Co1330 2.008 . S
Co1330 N1329 2.008 . S
Co1330 N1331 1.995 . S
Co1330 N1336 2.008 . S
Co1330 N1341 1.995 . S
Co1330 N1346 2.282 . S
Co1330 N1352 2.282 . S
N1331 Co1330 1.995 . S
N1331 C1332 1.376 . S
N1331 C1335 1.383 . S
C1332 N1331 1.376 . S
C1332 C1333 1.446 . S
C1332 C1362 1.391 . S
C1333 C1332 1.446 . S
C1333 C1334 1.339 . S
C1333 H1368 0.949 . S
C1334 C1333 1.339 . S
C1334 C1335 1.439 . S
C1334 H1369 0.950 . S
C1335 N1331 1.383 . S
C1335 C1334 1.439 . S
C1335 C1364 1.392 . S
N1336 Co1330 2.008 . S
N1336 C1337 1.376 . S
N1336 C1340 1.374 . S
C1337 N1336 1.376 . S
C1337 C1338 1.443 . S
C1337 C1364 1.389 . S
C1338 C1337 1.443 . S
C1338 C1339 1.340 . S
C1338 H1370 0.951 . S
C1339 C1338 1.340 . S
C1339 C1340 1.439 . S
C1339 H1371 0.950 . S
C1340 N1336 1.374 . S
C1340 C1339 1.439 . S
C1340 C1365 1.395 . S
N1341 Co1330 1.995 . S
N1341 C1342 1.376 . S
N1341 C1345 1.383 . S
C1342 N1341 1.376 . S
C1342 C1343 1.446 . S
C1342 C1365 1.391 . S
C1343 C1342 1.446 . S
C1343 C1344 1.339 . S
C1343 H1372 0.949 . S
C1344 C1343 1.339 . S
C1344 C1345 1.439 . S
C1344 H1373 0.950 . S
C1345 N1341 1.383 . S
C1345 C1344 1.439 . S
C1345 C1363 1.392 . S
N1346 Co1330 2.282 . S
N1346 C1349 1.332 . S
N1346 C1351 1.332 . S
C1347 C1348 1.386 . S
C1347 C1350 1.388 . S
C1348 C1347 1.386 . S
C1348 C1349 1.382 . S
C1348 H1374 0.950 . S
C1349 N1346 1.332 . S
C1349 C1348 1.382 . S
C1349 H1360 0.952 . S
C1350 C1347 1.388 . S
C1350 C1351 1.382 . S
C1350 H1375 0.950 . S
C1351 N1346 1.332 . S
C1351 C1350 1.382 . S
C1351 H1361 0.948 . S
N1352 Co1330 2.282 . S
N1352 C1356 1.332 . S
N1352 C1357 1.332 . S
C1353 C1354 1.388 . S
C1353 C1357 1.382 . S
C1353 H1376 0.950 . S
C1354 C1353 1.388 . S
C1354 C1355 1.386 . S
C1355 C1354 1.386 . S
C1355 C1356 1.382 . S
C1355 H1377 0.950 . S
C1356 N1352 1.332 . S
C1356 C1355 1.382 . S
C1356 H1358 0.952 . S
C1357 N1352 1.332 . S
C1357 C1353 1.382 . S
C1357 H1359 0.948 . S
H1358 C1356 0.952 . S
H1359 C1357 0.948 . S
H1360 C1349 0.952 . S
H1361 C1351 0.948 . S
C1362 C1328 1.395 . S
C1362 C1332 1.391 . S
C1363 C1325 1.389 . S
C1363 C1345 1.392 . S
C1364 C1335 1.392 . S
C1364 C1337 1.389 . S
C1365 C1340 1.395 . S
C1365 C1342 1.391 . S
H1366 C1326 0.951 . S
H1367 C1327 0.950 . S
H1368 C1333 0.949 . S
H1369 C1334 0.950 . S
H1370 C1338 0.951 . S
H1371 C1339 0.950 . S
H1372 C1343 0.949 . S
H1373 C1344 0.950 . S
H1374 C1348 0.950 . S
H1375 C1350 0.950 . S
H1376 C1353 0.950 . S
H1377 C1355 0.950 . S
C1378 C1379 1.443 . S
C1378 N1382 1.376 . S
C1378 C1416 1.389 1_655 S
C1379 C1378 1.443 . S
C1379 C1380 1.340 . S
C1379 H1419 0.951 . S
C1380 C1379 1.340 . S
C1380 C1381 1.439 . S
C1380 H1420 0.950 . S
C1381 C1380 1.439 . S
C1381 N1382 1.374 . S
C1381 C1415 1.395 . S
N1382 C1378 1.376 . S
N1382 C1381 1.374 . S
N1382 Co1383 2.008 . S
Co1383 N1382 2.008 . S
Co1383 N1384 1.995 . S
Co1383 N1389 2.008 1_655 S
Co1383 N1394 1.995 1_655 S
Co1383 N1399 2.282 . S
Co1383 N1405 2.282 1_655 S
N1384 Co1383 1.995 . S
N1384 C1385 1.376 . S
N1384 C1388 1.383 . S
C1385 N1384 1.376 . S
C1385 C1386 1.446 . S
C1385 C1415 1.391 . S
C1386 C1385 1.446 . S
C1386 C1387 1.339 . S
C1386 H1421 0.949 . S
C1387 C1386 1.339 . S
C1387 C1388 1.439 . S
C1387 H1422 0.950 . S
C1388 N1384 1.383 . S
C1388 C1387 1.439 . S
C1388 C1417 1.392 . S
N1389 Co1383 2.008 1_455 S
N1389 C1390 1.376 . S
N1389 C1393 1.374 . S
C1390 N1389 1.376 . S
C1390 C1391 1.443 . S
C1390 C1417 1.389 1_455 S
C1391 C1390 1.443 . S
C1391 C1392 1.340 . S
C1391 H1423 0.951 . S
C1392 C1391 1.340 . S
C1392 C1393 1.439 . S
C1392 H1424 0.950 . S
C1393 N1389 1.374 . S
C1393 C1392 1.439 . S
C1393 C1418 1.395 . S
N1394 Co1383 1.995 1_455 S
N1394 C1395 1.376 . S
N1394 C1398 1.383 . S
C1395 N1394 1.376 . S
C1395 C1396 1.446 . S
C1395 C1418 1.391 . S
C1396 C1395 1.446 . S
C1396 C1397 1.339 . S
C1396 H1425 0.949 . S
C1397 C1396 1.339 . S
C1397 C1398 1.439 . S
C1397 H1426 0.950 . S
C1398 N1394 1.383 . S
C1398 C1397 1.439 . S
C1398 C1416 1.392 . S
N1399 Co1383 2.282 . S
N1399 C1402 1.332 . S
N1399 C1404 1.332 . S
C1400 C1401 1.386 . S
C1400 C1403 1.388 . S
C1401 C1400 1.386 . S
C1401 C1402 1.382 . S
C1401 H1427 0.950 . S
C1402 N1399 1.332 . S
C1402 C1401 1.382 . S
C1402 H1413 0.952 . S
C1403 C1400 1.388 . S
C1403 C1404 1.382 . S
C1403 H1428 0.950 . S
C1404 N1399 1.332 . S
C1404 C1403 1.382 . S
C1404 H1414 0.948 . S
N1405 Co1383 2.282 1_455 S
N1405 C1409 1.332 . S
N1405 C1410 1.332 . S
C1406 C1407 1.388 . S
C1406 C1410 1.382 . S
C1406 H1429 0.950 . S
C1407 C1406 1.388 . S
C1407 C1408 1.386 . S
C1408 C1407 1.386 . S
C1408 C1409 1.382 . S
C1408 H1430 0.950 . S
C1409 N1405 1.332 . S
C1409 C1408 1.382 . S
C1409 H1411 0.952 . S
C1410 N1405 1.332 . S
C1410 C1406 1.382 . S
C1410 H1412 0.948 . S
H1411 C1409 0.952 . S
H1412 C1410 0.948 . S
H1413 C1402 0.952 . S
H1414 C1404 0.948 . S
C1415 C1381 1.395 . S
C1415 C1385 1.391 . S
C1416 C1378 1.389 1_455 S
C1416 C1398 1.392 . S
C1417 C1388 1.392 . S
C1417 C1390 1.389 1_655 S
C1418 C1393 1.395 . S
C1418 C1395 1.391 . S
H1419 C1379 0.951 . S
H1420 C1380 0.950 . S
H1421 C1386 0.949 . S
H1422 C1387 0.950 . S
H1423 C1391 0.951 . S
H1424 C1392 0.950 . S
H1425 C1396 0.949 . S
H1426 C1397 0.950 . S
H1427 C1401 0.950 . S
H1428 C1403 0.950 . S
H1429 C1406 0.950 . S
H1430 C1408 0.950 . S
C1431 C1432 1.443 . S
C1431 N1435 1.376 . S
C1431 C1469 1.389 . S
C1432 C1431 1.443 . S
C1432 C1433 1.340 . S
C1432 H1472 0.951 . S
C1433 C1432 1.340 . S
C1433 C1434 1.439 . S
C1433 H1473 0.950 . S
C1434 C1433 1.439 . S
C1434 N1435 1.374 . S
C1434 C1468 1.395 . S
N1435 C1431 1.376 . S
N1435 C1434 1.374 . S
N1435 Co1436 2.008 . S
Co1436 N1435 2.008 . S
Co1436 N1437 1.995 . S
Co1436 N1442 2.008 . S
Co1436 N1447 1.995 . S
Co1436 N1452 2.282 . S
Co1436 N1458 2.282 . S
N1437 Co1436 1.995 . S
N1437 C1438 1.376 . S
N1437 C1441 1.383 . S
C1438 N1437 1.376 . S
C1438 C1439 1.446 . S
C1438 C1468 1.391 . S
C1439 C1438 1.446 . S
C1439 C1440 1.339 . S
C1439 H1474 0.949 . S
C1440 C1439 1.339 . S
C1440 C1441 1.439 . S
C1440 H1475 0.950 . S
C1441 N1437 1.383 . S
C1441 C1440 1.439 . S
C1441 C1470 1.392 . S
N1442 Co1436 2.008 . S
N1442 C1443 1.376 . S
N1442 C1446 1.374 . S
C1443 N1442 1.376 . S
C1443 C1444 1.443 . S
C1443 C1470 1.389 . S
C1444 C1443 1.443 . S
C1444 C1445 1.340 . S
C1444 H1476 0.951 . S
C1445 C1444 1.340 . S
C1445 C1446 1.439 . S
C1445 H1477 0.950 . S
C1446 N1442 1.374 . S
C1446 C1445 1.439 . S
C1446 C1471 1.395 . S
N1447 Co1436 1.995 . S
N1447 C1448 1.376 . S
N1447 C1451 1.383 . S
C1448 N1447 1.376 . S
C1448 C1449 1.446 . S
C1448 C1471 1.391 . S
C1449 C1448 1.446 . S
C1449 C1450 1.339 . S
C1449 H1478 0.949 . S
C1450 C1449 1.339 . S
C1450 C1451 1.439 . S
C1450 H1479 0.950 . S
C1451 N1447 1.383 . S
C1451 C1450 1.439 . S
C1451 C1469 1.392 . S
N1452 Co1436 2.282 . S
N1452 C1455 1.332 . S
N1452 C1457 1.332 . S
C1453 C1454 1.386 . S
C1453 C1456 1.388 . S
C1454 C1453 1.386 . S
C1454 C1455 1.382 . S
C1454 H1480 0.950 . S
C1455 N1452 1.332 . S
C1455 C1454 1.382 . S
C1455 H1466 0.952 . S
C1456 C1453 1.388 . S
C1456 C1457 1.382 . S
C1456 H1481 0.950 . S
C1457 N1452 1.332 . S
C1457 C1456 1.382 . S
C1457 H1467 0.948 . S
N1458 Co1436 2.282 . S
N1458 C1462 1.332 . S
N1458 C1463 1.332 . S
C1459 C1460 1.388 . S
C1459 C1463 1.382 . S
C1459 H1482 0.950 . S
C1460 C1459 1.388 . S
C1460 C1461 1.386 . S
C1461 C1460 1.386 . S
C1461 C1462 1.382 . S
C1461 H1483 0.950 . S
C1462 N1458 1.332 . S
C1462 C1461 1.382 . S
C1462 H1464 0.952 . S
C1463 N1458 1.332 . S
C1463 C1459 1.382 . S
C1463 H1465 0.948 . S
H1464 C1462 0.952 . S
H1465 C1463 0.948 . S
H1466 C1455 0.952 . S
H1467 C1457 0.948 . S
C1468 C1434 1.395 . S
C1468 C1438 1.391 . S
C1469 C1431 1.389 . S
C1469 C1451 1.392 . S
C1470 C1441 1.392 . S
C1470 C1443 1.389 . S
C1471 C1446 1.395 . S
C1471 C1448 1.391 . S
H1472 C1432 0.951 . S
H1473 C1433 0.950 . S
H1474 C1439 0.949 . S
H1475 C1440 0.950 . S
H1476 C1444 0.951 . S
H1477 C1445 0.950 . S
H1478 C1449 0.949 . S
H1479 C1450 0.950 . S
H1480 C1454 0.950 . S
H1481 C1456 0.950 . S
H1482 C1459 0.950 . S
H1483 C1461 0.950 . S
C1484 C1485 1.443 . S
C1484 N1488 1.376 . S
C1484 C1522 1.389 . S
C1485 C1484 1.443 . S
C1485 C1486 1.340 . S
C1485 H1525 0.951 . S
C1486 C1485 1.340 . S
C1486 C1487 1.439 . S
C1486 H1526 0.950 . S
C1487 C1486 1.439 . S
C1487 N1488 1.374 . S
C1487 C1521 1.395 . S
N1488 C1484 1.376 . S
N1488 C1487 1.374 . S
N1488 Co1489 2.008 1_655 S
Co1489 N1488 2.008 1_455 S
Co1489 N1490 1.995 1_455 S
Co1489 N1495 2.008 . S
Co1489 N1500 1.995 . S
Co1489 N1505 2.282 . S
Co1489 N1511 2.282 1_455 S
N1490 Co1489 1.995 1_655 S
N1490 C1491 1.376 . S
N1490 C1494 1.383 . S
C1491 N1490 1.376 . S
C1491 C1492 1.446 . S
C1491 C1521 1.391 . S
C1492 C1491 1.446 . S
C1492 C1493 1.339 . S
C1492 H1527 0.949 . S
C1493 C1492 1.339 . S
C1493 C1494 1.439 . S
C1493 H1528 0.950 . S
C1494 N1490 1.383 . S
C1494 C1493 1.439 . S
C1494 C1523 1.392 1_655 S
N1495 Co1489 2.008 . S
N1495 C1496 1.376 . S
N1495 C1499 1.374 . S
C1496 N1495 1.376 . S
C1496 C1497 1.443 . S
C1496 C1523 1.389 . S
C1497 C1496 1.443 . S
C1497 C1498 1.340 . S
C1497 H1529 0.951 . S
C1498 C1497 1.340 . S
C1498 C1499 1.439 . S
C1498 H1530 0.950 . S
C1499 N1495 1.374 . S
C1499 C1498 1.439 . S
C1499 C1524 1.395 . S
N1500 Co1489 1.995 . S
N1500 C1501 1.376 . S
N1500 C1504 1.383 . S
C1501 N1500 1.376 . S
C1501 C1502 1.446 . S
C1501 C1524 1.391 . S
C1502 C1501 1.446 . S
C1502 C1503 1.339 . S
C1502 H1531 0.949 . S
C1503 C1502 1.339 . S
C1503 C1504 1.439 . S
C1503 H1532 0.950 . S
C1504 N1500 1.383 . S
C1504 C1503 1.439 . S
C1504 C1522 1.392 1_455 S
N1505 Co1489 2.282 . S
N1505 C1508 1.332 . S
N1505 C1510 1.332 . S
C1506 C1507 1.386 . S
C1506 C1509 1.388 . S
C1507 C1506 1.386 . S
C1507 C1508 1.382 . S
C1507 H1533 0.950 . S
C1508 N1505 1.332 . S
C1508 C1507 1.382 . S
C1508 H1519 0.952 . S
C1509 C1506 1.388 . S
C1509 C1510 1.382 . S
C1509 H1534 0.950 . S
C1510 N1505 1.332 . S
C1510 C1509 1.382 . S
C1510 H1520 0.948 . S
N1511 Co1489 2.282 1_655 S
N1511 C1515 1.332 . S
N1511 C1516 1.332 . S
C1512 C1513 1.388 . S
C1512 C1516 1.382 . S
C1512 H1535 0.950 . S
C1513 C1512 1.388 . S
C1513 C1514 1.386 . S
C1514 C1513 1.386 . S
C1514 C1515 1.382 . S
C1514 H1536 0.950 . S
C1515 N1511 1.332 . S
C1515 C1514 1.382 . S
C1515 H1517 0.952 . S
C1516 N1511 1.332 . S
C1516 C1512 1.382 . S
C1516 H1518 0.948 . S
H1517 C1515 0.952 . S
H1518 C1516 0.948 . S
H1519 C1508 0.952 . S
H1520 C1510 0.948 . S
C1521 C1487 1.395 . S
C1521 C1491 1.391 . S
C1522 C1484 1.389 . S
C1522 C1504 1.392 1_655 S
C1523 C1494 1.392 1_455 S
C1523 C1496 1.389 . S
C1524 C1499 1.395 . S
C1524 C1501 1.391 . S
H1525 C1485 0.951 . S
H1526 C1486 0.950 . S
H1527 C1492 0.949 . S
H1528 C1493 0.950 . S
H1529 C1497 0.951 . S
H1530 C1498 0.950 . S
H1531 C1502 0.949 . S
H1532 C1503 0.950 . S
H1533 C1507 0.950 . S
H1534 C1509 0.950 . S
H1535 C1512 0.950 . S
H1536 C1514 0.950 . S
C1537 C1538 1.443 . S
C1537 N1541 1.376 . S
C1537 C1575 1.389 . S
C1538 C1537 1.443 . S
C1538 C1539 1.340 . S
C1538 H1578 0.951 . S
C1539 C1538 1.340 . S
C1539 C1540 1.439 . S
C1539 H1579 0.950 . S
C1540 C1539 1.439 . S
C1540 N1541 1.374 . S
C1540 C1574 1.395 . S
N1541 C1537 1.376 . S
N1541 C1540 1.374 . S
N1541 Co1542 2.008 . S
Co1542 N1541 2.008 . S
Co1542 N1543 1.995 . S
Co1542 N1548 2.008 . S
Co1542 N1553 1.995 . S
Co1542 N1558 2.282 . S
Co1542 N1564 2.282 . S
N1543 Co1542 1.995 . S
N1543 C1544 1.376 . S
N1543 C1547 1.383 . S
C1544 N1543 1.376 . S
C1544 C1545 1.446 . S
C1544 C1574 1.391 . S
C1545 C1544 1.446 . S
C1545 C1546 1.339 . S
C1545 H1580 0.949 . S
C1546 C1545 1.339 . S
C1546 C1547 1.439 . S
C1546 H1581 0.950 . S
C1547 N1543 1.383 . S
C1547 C1546 1.439 . S
C1547 C1576 1.392 . S
N1548 Co1542 2.008 . S
N1548 C1549 1.376 . S
N1548 C1552 1.374 . S
C1549 N1548 1.376 . S
C1549 C1550 1.443 . S
C1549 C1576 1.389 . S
C1550 C1549 1.443 . S
C1550 C1551 1.340 . S
C1550 H1582 0.951 . S
C1551 C1550 1.340 . S
C1551 C1552 1.439 . S
C1551 H1583 0.950 . S
C1552 N1548 1.374 . S
C1552 C1551 1.439 . S
C1552 C1577 1.395 . S
N1553 Co1542 1.995 . S
N1553 C1554 1.376 . S
N1553 C1557 1.383 . S
C1554 N1553 1.376 . S
C1554 C1555 1.446 . S
C1554 C1577 1.391 . S
C1555 C1554 1.446 . S
C1555 C1556 1.339 . S
C1555 H1584 0.949 . S
C1556 C1555 1.339 . S
C1556 C1557 1.439 . S
C1556 H1585 0.950 . S
C1557 N1553 1.383 . S
C1557 C1556 1.439 . S
C1557 C1575 1.392 . S
N1558 Co1542 2.282 . S
N1558 C1561 1.332 . S
N1558 C1563 1.332 . S
C1559 C1560 1.386 . S
C1559 C1562 1.388 . S
C1560 C1559 1.386 . S
C1560 C1561 1.382 . S
C1560 H1586 0.950 . S
C1561 N1558 1.332 . S
C1561 C1560 1.382 . S
C1561 H1572 0.952 . S
C1562 C1559 1.388 . S
C1562 C1563 1.382 . S
C1562 H1587 0.950 . S
C1563 N1558 1.332 . S
C1563 C1562 1.382 . S
C1563 H1573 0.948 . S
N1564 Co1542 2.282 . S
N1564 C1568 1.332 . S
N1564 C1569 1.332 . S
C1565 C1566 1.388 . S
C1565 C1569 1.382 . S
C1565 H1588 0.950 . S
C1566 C1565 1.388 . S
C1566 C1567 1.386 . S
C1567 C1566 1.386 . S
C1567 C1568 1.382 . S
C1567 H1589 0.950 . S
C1568 N1564 1.332 . S
C1568 C1567 1.382 . S
C1568 H1570 0.952 . S
C1569 N1564 1.332 . S
C1569 C1565 1.382 . S
C1569 H1571 0.948 . S
H1570 C1568 0.952 . S
H1571 C1569 0.948 . S
H1572 C1561 0.952 . S
H1573 C1563 0.948 . S
C1574 C1540 1.395 . S
C1574 C1544 1.391 . S
C1575 C1537 1.389 . S
C1575 C1557 1.392 . S
C1576 C1547 1.392 . S
C1576 C1549 1.389 . S
C1577 C1552 1.395 . S
C1577 C1554 1.391 . S
H1578 C1538 0.951 . S
H1579 C1539 0.950 . S
H1580 C1545 0.949 . S
H1581 C1546 0.950 . S
H1582 C1550 0.951 . S
H1583 C1551 0.950 . S
H1584 C1555 0.949 . S
H1585 C1556 0.950 . S
H1586 C1560 0.950 . S
H1587 C1562 0.950 . S
H1588 C1565 0.950 . S
H1589 C1567 0.950 . S
C1590 C1591 1.443 . S
C1590 N1594 1.376 . S
C1590 C1628 1.389 . S
C1591 C1590 1.443 . S
C1591 C1592 1.340 . S
C1591 H1631 0.951 . S
C1592 C1591 1.340 . S
C1592 C1593 1.439 . S
C1592 H1632 0.950 . S
C1593 C1592 1.439 . S
C1593 N1594 1.374 . S
C1593 C1627 1.395 . S
N1594 C1590 1.376 . S
N1594 C1593 1.374 . S
N1594 Co1595 2.008 1_655 S
Co1595 N1594 2.008 1_455 S
Co1595 N1596 1.995 1_455 S
Co1595 N1601 2.008 . S
Co1595 N1606 1.995 . S
Co1595 N1611 2.282 . S
Co1595 N1617 2.282 1_455 S
N1596 Co1595 1.995 1_655 S
N1596 C1597 1.376 . S
N1596 C1600 1.383 . S
C1597 N1596 1.376 . S
C1597 C1598 1.446 . S
C1597 C1627 1.391 . S
C1598 C1597 1.446 . S
C1598 C1599 1.339 . S
C1598 H1633 0.949 . S
C1599 C1598 1.339 . S
C1599 C1600 1.439 . S
C1599 H1634 0.950 . S
C1600 N1596 1.383 . S
C1600 C1599 1.439 . S
C1600 C1629 1.392 1_655 S
N1601 Co1595 2.008 . S
N1601 C1602 1.376 . S
N1601 C1605 1.374 . S
C1602 N1601 1.376 . S
C1602 C1603 1.443 . S
C1602 C1629 1.389 . S
C1603 C1602 1.443 . S
C1603 C1604 1.340 . S
C1603 H1635 0.951 . S
C1604 C1603 1.340 . S
C1604 C1605 1.439 . S
C1604 H1636 0.950 . S
C1605 N1601 1.374 . S
C1605 C1604 1.439 . S
C1605 C1630 1.395 . S
N1606 Co1595 1.995 . S
N1606 C1607 1.376 . S
N1606 C1610 1.383 . S
C1607 N1606 1.376 . S
C1607 C1608 1.446 . S
C1607 C1630 1.391 . S
C1608 C1607 1.446 . S
C1608 C1609 1.339 . S
C1608 H1637 0.949 . S
C1609 C1608 1.339 . S
C1609 C1610 1.439 . S
C1609 H1638 0.950 . S
C1610 N1606 1.383 . S
C1610 C1609 1.439 . S
C1610 C1628 1.392 1_455 S
N1611 Co1595 2.282 . S
N1611 C1614 1.332 . S
N1611 C1616 1.332 . S
C1612 C1613 1.386 . S
C1612 C1615 1.388 . S
C1613 C1612 1.386 . S
C1613 C1614 1.382 . S
C1613 H1639 0.950 . S
C1614 N1611 1.332 . S
C1614 C1613 1.382 . S
C1614 H1625 0.952 . S
C1615 C1612 1.388 . S
C1615 C1616 1.382 . S
C1615 H1640 0.950 . S
C1616 N1611 1.332 . S
C1616 C1615 1.382 . S
C1616 H1626 0.948 . S
N1617 Co1595 2.282 1_655 S
N1617 C1621 1.332 . S
N1617 C1622 1.332 . S
C1618 C1619 1.388 . S
C1618 C1622 1.382 . S
C1618 H1641 0.950 . S
C1619 C1618 1.388 . S
C1619 C1620 1.386 . S
C1620 C1619 1.386 . S
C1620 C1621 1.382 . S
C1620 H1642 0.950 . S
C1621 N1617 1.332 . S
C1621 C1620 1.382 . S
C1621 H1623 0.952 . S
C1622 N1617 1.332 . S
C1622 C1618 1.382 . S
C1622 H1624 0.948 . S
H1623 C1621 0.952 . S
H1624 C1622 0.948 . S
H1625 C1614 0.952 . S
H1626 C1616 0.948 . S
C1627 C1593 1.395 . S
C1627 C1597 1.391 . S
C1628 C1590 1.389 . S
C1628 C1610 1.392 1_655 S
C1629 C1600 1.392 1_455 S
C1629 C1602 1.389 . S
C1630 C1605 1.395 . S
C1630 C1607 1.391 . S
H1631 C1591 0.951 . S
H1632 C1592 0.950 . S
H1633 C1598 0.949 . S
H1634 C1599 0.950 . S
H1635 C1603 0.951 . S
H1636 C1604 0.950 . S
H1637 C1608 0.949 . S
H1638 C1609 0.950 . S
H1639 C1613 0.950 . S
H1640 C1615 0.950 . S
H1641 C1618 0.950 . S
H1642 C1620 0.950 . S
C1643 C1644 1.443 . S
C1643 N1647 1.376 . S
C1643 C1681 1.389 . S
C1644 C1643 1.443 . S
C1644 C1645 1.340 . S
C1644 H1684 0.951 . S
C1645 C1644 1.340 . S
C1645 C1646 1.439 . S
C1645 H1685 0.950 . S
C1646 C1645 1.439 . S
C1646 N1647 1.374 . S
C1646 C1680 1.395 . S
N1647 C1643 1.376 . S
N1647 C1646 1.374 . S
N1647 Co1648 2.008 . S
Co1648 N1647 2.008 . S
Co1648 N1649 1.995 . S
Co1648 N1654 2.008 . S
Co1648 N1659 1.995 . S
Co1648 N1664 2.282 . S
Co1648 N1670 2.282 . S
N1649 Co1648 1.995 . S
N1649 C1650 1.376 . S
N1649 C1653 1.383 . S
C1650 N1649 1.376 . S
C1650 C1651 1.446 . S
C1650 C1680 1.391 . S
C1651 C1650 1.446 . S
C1651 C1652 1.339 . S
C1651 H1686 0.949 . S
C1652 C1651 1.339 . S
C1652 C1653 1.439 . S
C1652 H1687 0.950 . S
C1653 N1649 1.383 . S
C1653 C1652 1.439 . S
C1653 C1682 1.392 . S
N1654 Co1648 2.008 . S
N1654 C1655 1.376 . S
N1654 C1658 1.374 . S
C1655 N1654 1.376 . S
C1655 C1656 1.443 . S
C1655 C1682 1.389 . S
C1656 C1655 1.443 . S
C1656 C1657 1.340 . S
C1656 H1688 0.951 . S
C1657 C1656 1.340 . S
C1657 C1658 1.439 . S
C1657 H1689 0.950 . S
C1658 N1654 1.374 . S
C1658 C1657 1.439 . S
C1658 C1683 1.395 . S
N1659 Co1648 1.995 . S
N1659 C1660 1.376 . S
N1659 C1663 1.383 . S
C1660 N1659 1.376 . S
C1660 C1661 1.446 . S
C1660 C1683 1.391 . S
C1661 C1660 1.446 . S
C1661 C1662 1.339 . S
C1661 H1690 0.949 . S
C1662 C1661 1.339 . S
C1662 C1663 1.439 . S
C1662 H1691 0.950 . S
C1663 N1659 1.383 . S
C1663 C1662 1.439 . S
C1663 C1681 1.392 . S
N1664 Co1648 2.282 . S
N1664 C1667 1.332 . S
N1664 C1669 1.332 . S
C1665 C1666 1.386 . S
C1665 C1668 1.388 . S
C1666 C1665 1.386 . S
C1666 C1667 1.382 . S
C1666 H1692 0.950 . S
C1667 N1664 1.332 . S
C1667 C1666 1.382 . S
C1667 H1678 0.952 . S
C1668 C1665 1.388 . S
C1668 C1669 1.382 . S
C1668 H1693 0.950 . S
C1669 N1664 1.332 . S
C1669 C1668 1.382 . S
C1669 H1679 0.948 . S
N1670 Co1648 2.282 . S
N1670 C1674 1.332 . S
N1670 C1675 1.332 . S
C1671 C1672 1.388 . S
C1671 C1675 1.382 . S
C1671 H1694 0.950 . S
C1672 C1671 1.388 . S
C1672 C1673 1.386 . S
C1673 C1672 1.386 . S
C1673 C1674 1.382 . S
C1673 H1695 0.950 . S
C1674 N1670 1.332 . S
C1674 C1673 1.382 . S
C1674 H1676 0.952 . S
C1675 N1670 1.332 . S
C1675 C1671 1.382 . S
C1675 H1677 0.948 . S
H1676 C1674 0.952 . S
H1677 C1675 0.948 . S
H1678 C1667 0.952 . S
H1679 C1669 0.948 . S
C1680 C1646 1.395 . S
C1680 C1650 1.391 . S
C1681 C1643 1.389 . S
C1681 C1663 1.392 . S
C1682 C1653 1.392 . S
C1682 C1655 1.389 . S
C1683 C1658 1.395 . S
C1683 C1660 1.391 . S
H1684 C1644 0.951 . S
H1685 C1645 0.950 . S
H1686 C1651 0.949 . S
H1687 C1652 0.950 . S
H1688 C1656 0.951 . S
H1689 C1657 0.950 . S
H1690 C1661 0.949 . S
H1691 C1662 0.950 . S
H1692 C1666 0.950 . S
H1693 C1668 0.950 . S
H1694 C1671 0.950 . S
H1695 C1673 0.950 . S
C1696 C1697 1.387 . S
C1696 H1700 0.950 . S
C1696 C1705 1.390 . S
C1697 C1696 1.387 . S
C1697 C1699 1.387 . S
H1698 C1705 0.950 . S
C1699 C1697 1.387 . S
C1699 C1701 1.390 . S
C1699 H1703 0.950 . S
H1700 C1696 0.950 . S
C1701 C1699 1.390 . S
C1701 C1702 1.387 . S
C1701 H1704 0.950 . S
C1702 C1701 1.387 . S
C1702 C1705 1.387 . S
H1703 C1699 0.950 . S
H1704 C1701 0.950 . S
C1705 C1696 1.390 . S
C1705 H1698 0.950 . S
C1705 C1702 1.387 . S
C1706 C1707 1.387 . S
C1706 H1710 0.950 . S
C1706 C1715 1.390 . S
C1707 C1706 1.387 . S
C1707 C1709 1.387 . S
H1708 C1715 0.950 . S
C1709 C1707 1.387 . S
C1709 C1711 1.390 . S
C1709 H1713 0.950 . S
H1710 C1706 0.950 . S
C1711 C1709 1.390 . S
C1711 C1712 1.387 . S
C1711 H1714 0.950 . S
C1712 C1711 1.387 . S
C1712 C1715 1.387 . S
H1713 C1709 0.950 . S
H1714 C1711 0.950 . S
C1715 C1706 1.390 . S
C1715 H1708 0.950 . S
C1715 C1712 1.387 . S
C1716 C1717 1.387 . S
C1716 H1720 0.950 . S
C1716 C1725 1.390 . S
C1717 C1716 1.387 . S
C1717 C1719 1.387 . S
H1718 C1725 0.950 . S
C1719 C1717 1.387 . S
C1719 C1721 1.390 . S
C1719 H1723 0.950 . S
H1720 C1716 0.950 . S
C1721 C1719 1.390 . S
C1721 C1722 1.387 . S
C1721 H1724 0.950 . S
C1722 C1721 1.387 . S
C1722 C1725 1.387 . S
H1723 C1719 0.950 . S
H1724 C1721 0.950 . S
C1725 C1716 1.390 . S
C1725 H1718 0.950 . S
C1725 C1722 1.387 . S
C1726 C1727 1.387 . S
C1726 H1730 0.950 . S
C1726 C1735 1.390 . S
C1727 C1726 1.387 . S
C1727 C1729 1.387 . S
H1728 C1735 0.950 . S
C1729 C1727 1.387 . S
C1729 C1731 1.390 . S
C1729 H1733 0.950 . S
H1730 C1726 0.950 . S
C1731 C1729 1.390 . S
C1731 C1732 1.387 . S
C1731 H1734 0.950 . S
C1732 C1731 1.387 . S
C1732 C1735 1.387 . S
H1733 C1729 0.950 . S
H1734 C1731 0.950 . S
C1735 C1726 1.390 . S
C1735 H1728 0.950 . S
C1735 C1732 1.387 . S
C1736 C1737 1.387 . S
C1736 H1740 0.950 . S
C1736 C1745 1.390 . S
C1737 C1736 1.387 . S
C1737 C1739 1.387 . S
H1738 C1745 0.950 . S
C1739 C1737 1.387 . S
C1739 C1741 1.390 . S
C1739 H1743 0.950 . S
H1740 C1736 0.950 . S
C1741 C1739 1.390 . S
C1741 C1742 1.387 . S
C1741 H1744 0.950 . S
C1742 C1741 1.387 . S
C1742 C1745 1.387 . S
H1743 C1739 0.950 . S
H1744 C1741 0.950 . S
C1745 C1736 1.390 . S
C1745 H1738 0.950 . S
C1745 C1742 1.387 . S
C1746 C1747 1.387 . S
C1746 H1750 0.950 . S
C1746 C1755 1.390 . S
C1747 C1746 1.387 . S
C1747 C1749 1.387 . S
H1748 C1755 0.950 . S
C1749 C1747 1.387 . S
C1749 C1751 1.390 . S
C1749 H1753 0.950 . S
H1750 C1746 0.950 . S
C1751 C1749 1.390 . S
C1751 C1752 1.387 . S
C1751 H1754 0.950 . S
C1752 C1751 1.387 . S
C1752 C1755 1.387 . S
H1753 C1749 0.950 . S
H1754 C1751 0.950 . S
C1755 C1746 1.390 . S
C1755 H1748 0.950 . S
C1755 C1752 1.387 . S
C1756 C1757 1.387 . S
C1756 H1760 0.950 . S
C1756 C1765 1.390 . S
C1757 C1756 1.387 . S
C1757 C1759 1.387 . S
H1758 C1765 0.950 . S
C1759 C1757 1.387 . S
C1759 C1761 1.390 . S
C1759 H1763 0.950 . S
H1760 C1756 0.950 . S
C1761 C1759 1.390 . S
C1761 C1762 1.387 . S
C1761 H1764 0.950 . S
C1762 C1761 1.387 . S
C1762 C1765 1.387 . S
H1763 C1759 0.950 . S
H1764 C1761 0.950 . S
C1765 C1756 1.390 . S
C1765 H1758 0.950 . S
C1765 C1762 1.387 . S
C1766 C1767 1.387 . S
C1766 H1770 0.950 . S
C1766 C1775 1.390 . S
C1767 C1766 1.387 . S
C1767 C1769 1.387 . S
H1768 C1775 0.950 . S
C1769 C1767 1.387 . S
C1769 C1771 1.390 . S
C1769 H1773 0.950 . S
H1770 C1766 0.950 . S
C1771 C1769 1.390 . S
C1771 C1772 1.387 . S
C1771 H1774 0.950 . S
C1772 C1771 1.387 . S
C1772 C1775 1.387 . S
H1773 C1769 0.950 . S
H1774 C1771 0.950 . S
C1775 C1766 1.390 . S
C1775 H1768 0.950 . S
C1775 C1772 1.387 . S
C1776 C1777 1.387 . S
C1776 H1780 0.950 . S
C1776 C1785 1.390 . S
C1777 C1776 1.387 . S
C1777 C1779 1.387 1_455 S
H1778 C1785 0.950 . S
C1779 C1777 1.387 1_655 S
C1779 C1781 1.390 . S
C1779 H1783 0.950 . S
H1780 C1776 0.950 . S
C1781 C1779 1.390 . S
C1781 C1782 1.387 1_655 S
C1781 H1784 0.950 . S
C1782 C1781 1.387 1_455 S
C1782 C1785 1.387 . S
H1783 C1779 0.950 . S
H1784 C1781 0.950 . S
C1785 C1776 1.390 . S
C1785 H1778 0.950 . S
C1785 C1782 1.387 . S
C1786 C1787 1.387 . S
C1786 H1790 0.950 . S
C1786 C1795 1.390 . S
C1787 C1786 1.387 . S
C1787 C1789 1.387 . S
H1788 C1795 0.950 . S
C1789 C1787 1.387 . S
C1789 C1791 1.390 . S
C1789 H1793 0.950 . S
H1790 C1786 0.950 . S
C1791 C1789 1.390 . S
C1791 C1792 1.387 . S
C1791 H1794 0.950 . S
C1792 C1791 1.387 . S
C1792 C1795 1.387 . S
H1793 C1789 0.950 . S
H1794 C1791 0.950 . S
C1795 C1786 1.390 . S
C1795 H1788 0.950 . S
C1795 C1792 1.387 . S
C1796 C1797 1.387 . S
C1796 H1800 0.950 . S
C1796 C1805 1.390 . S
C1797 C1796 1.387 . S
C1797 C1799 1.387 1_655 S
H1798 C1805 0.950 . S
C1799 C1797 1.387 1_455 S
C1799 C1801 1.390 . S
C1799 H1803 0.950 . S
H1800 C1796 0.950 . S
C1801 C1799 1.390 . S
C1801 C1802 1.387 1_455 S
C1801 H1804 0.950 . S
C1802 C1801 1.387 1_655 S
C1802 C1805 1.387 . S
H1803 C1799 0.950 . S
H1804 C1801 0.950 . S
C1805 C1796 1.390 . S
C1805 H1798 0.950 . S
C1805 C1802 1.387 . S
C1806 C1807 1.387 . S
C1806 H1810 0.950 . S
C1806 C1815 1.390 . S
C1807 C1806 1.387 . S
C1807 C1809 1.387 . S
H1808 C1815 0.950 . S
C1809 C1807 1.387 . S
C1809 C1811 1.390 . S
C1809 H1813 0.950 . S
H1810 C1806 0.950 . S
C1811 C1809 1.390 . S
C1811 C1812 1.387 . S
C1811 H1814 0.950 . S
C1812 C1811 1.387 . S
C1812 C1815 1.387 . S
H1813 C1809 0.950 . S
H1814 C1811 0.950 . S
C1815 C1806 1.390 . S
C1815 H1808 0.950 . S
C1815 C1812 1.387 . S
C1816 C1817 1.387 . S
C1816 H1820 0.950 . S
C1816 C1825 1.390 . S
C1817 C1816 1.387 . S
C1817 C1819 1.387 1_455 S
H1818 C1825 0.950 . S
C1819 C1817 1.387 1_655 S
C1819 C1821 1.390 . S
C1819 H1823 0.950 . S
H1820 C1816 0.950 . S
C1821 C1819 1.390 . S
C1821 C1822 1.387 1_655 S
C1821 H1824 0.950 . S
C1822 C1821 1.387 1_455 S
C1822 C1825 1.387 . S
H1823 C1819 0.950 . S
H1824 C1821 0.950 . S
C1825 C1816 1.390 . S
C1825 H1818 0.950 . S
C1825 C1822 1.387 . S
C1826 C1827 1.387 . S
C1826 H1830 0.950 . S
C1826 C1835 1.390 . S
C1827 C1826 1.387 . S
C1827 C1829 1.387 . S
H1828 C1835 0.950 . S
C1829 C1827 1.387 . S
C1829 C1831 1.390 . S
C1829 H1833 0.950 . S
H1830 C1826 0.950 . S
C1831 C1829 1.390 . S
C1831 C1832 1.387 . S
C1831 H1834 0.950 . S
C1832 C1831 1.387 . S
C1832 C1835 1.387 . S
H1833 C1829 0.950 . S
H1834 C1831 0.950 . S
C1835 C1826 1.390 . S
C1835 H1828 0.950 . S
C1835 C1832 1.387 . S
C1836 C1837 1.387 1_455 S
C1836 H1840 0.950 . S
C1836 C1845 1.390 . S
C1837 C1836 1.387 1_655 S
C1837 C1839 1.387 . S
H1838 C1845 0.950 . S
C1839 C1837 1.387 . S
C1839 C1841 1.390 . S
C1839 H1843 0.950 . S
H1840 C1836 0.950 . S
C1841 C1839 1.390 . S
C1841 C1842 1.387 . S
C1841 H1844 0.950 . S
C1842 C1841 1.387 . S
C1842 C1845 1.387 1_655 S
H1843 C1839 0.950 . S
H1844 C1841 0.950 . S
C1845 C1836 1.390 . S
C1845 H1838 0.950 . S
C1845 C1842 1.387 1_455 S
C1846 C1847 1.387 . S
C1846 H1850 0.950 . S
C1846 C1855 1.390 . S
C1847 C1846 1.387 . S
C1847 C1849 1.387 . S
H1848 C1855 0.950 . S
C1849 C1847 1.387 . S
C1849 C1851 1.390 . S
C1849 H1853 0.950 . S
H1850 C1846 0.950 . S
C1851 C1849 1.390 . S
C1851 C1852 1.387 . S
C1851 H1854 0.950 . S
C1852 C1851 1.387 . S
C1852 C1855 1.387 . S
H1853 C1849 0.950 . S
H1854 C1851 0.950 . S
C1855 C1846 1.390 . S
C1855 H1848 0.950 . S
C1855 C1852 1.387 . S
C1856 C1857 1.387 . S
C1856 H1860 0.950 . S
C1856 C1865 1.390 . S
C1857 C1856 1.387 . S
C1857 C1859 1.387 . S
H1858 C1865 0.950 . S
C1859 C1857 1.387 . S
C1859 C1861 1.390 . S
C1859 H1863 0.950 . S
H1860 C1856 0.950 . S
C1861 C1859 1.390 . S
C1861 C1862 1.387 . S
C1861 H1864 0.950 . S
C1862 C1861 1.387 . S
C1862 C1865 1.387 . S
H1863 C1859 0.950 . S
H1864 C1861 0.950 . S
C1865 C1856 1.390 . S
C1865 H1858 0.950 . S
C1865 C1862 1.387 . S
C1866 C1867 1.387 . S
C1866 H1870 0.950 . S
C1866 C1875 1.390 . S
C1867 C1866 1.387 . S
C1867 C1869 1.387 . S
H1868 C1875 0.950 . S
C1869 C1867 1.387 . S
C1869 C1871 1.390 . S
C1869 H1873 0.950 . S
H1870 C1866 0.950 . S
C1871 C1869 1.390 . S
C1871 C1872 1.387 . S
C1871 H1874 0.950 . S
C1872 C1871 1.387 . S
C1872 C1875 1.387 . S
H1873 C1869 0.950 . S
H1874 C1871 0.950 . S
C1875 C1866 1.390 . S
C1875 H1868 0.950 . S
C1875 C1872 1.387 . S
C1876 C1877 1.387 . S
C1876 H1880 0.950 . S
C1876 C1885 1.390 . S
C1877 C1876 1.387 . S
C1877 C1879 1.387 . S
H1878 C1885 0.950 . S
C1879 C1877 1.387 . S
C1879 C1881 1.390 . S
C1879 H1883 0.950 . S
H1880 C1876 0.950 . S
C1881 C1879 1.390 . S
C1881 C1882 1.387 . S
C1881 H1884 0.950 . S
C1882 C1881 1.387 . S
C1882 C1885 1.387 . S
H1883 C1879 0.950 . S
H1884 C1881 0.950 . S
C1885 C1876 1.390 . S
C1885 H1878 0.950 . S
C1885 C1882 1.387 . S
C1886 C1887 1.387 . S
C1886 H1890 0.950 . S
C1886 C1895 1.390 . S
C1887 C1886 1.387 . S
C1887 C1889 1.387 . S
H1888 C1895 0.950 . S
C1889 C1887 1.387 . S
C1889 C1891 1.390 . S
C1889 H1893 0.950 . S
H1890 C1886 0.950 . S
C1891 C1889 1.390 . S
C1891 C1892 1.387 . S
C1891 H1894 0.950 . S
C1892 C1891 1.387 . S
C1892 C1895 1.387 . S
H1893 C1889 0.950 . S
H1894 C1891 0.950 . S
C1895 C1886 1.390 . S
C1895 H1888 0.950 . S
C1895 C1892 1.387 . S
C1896 C1897 1.387 . S
C1896 H1900 0.950 . S
C1896 C1905 1.390 . S
C1897 C1896 1.387 . S
C1897 C1899 1.387 . S
H1898 C1905 0.950 . S
C1899 C1897 1.387 . S
C1899 C1901 1.390 . S
C1899 H1903 0.950 . S
H1900 C1896 0.950 . S
C1901 C1899 1.390 . S
C1901 C1902 1.387 . S
C1901 H1904 0.950 . S
C1902 C1901 1.387 . S
C1902 C1905 1.387 . S
H1903 C1899 0.950 . S
H1904 C1901 0.950 . S
C1905 C1896 1.390 . S
C1905 H1898 0.950 . S
C1905 C1902 1.387 . S
C1906 C1907 1.387 . S
C1906 H1910 0.950 . S
C1906 C1915 1.390 . S
C1907 C1906 1.387 . S
C1907 C1909 1.387 . S
H1908 C1915 0.950 . S
C1909 C1907 1.387 . S
C1909 C1911 1.390 . S
C1909 H1913 0.950 . S
H1910 C1906 0.950 . S
C1911 C1909 1.390 . S
C1911 C1912 1.387 . S
C1911 H1914 0.950 . S
C1912 C1911 1.387 . S
C1912 C1915 1.387 . S
H1913 C1909 0.950 . S
H1914 C1911 0.950 . S
C1915 C1906 1.390 . S
C1915 H1908 0.950 . S
C1915 C1912 1.387 . S
C1916 C1917 1.387 . S
C1916 H1920 0.950 . S
C1916 C1925 1.390 . S
C1917 C1916 1.387 . S
C1917 C1919 1.387 . S
H1918 C1925 0.950 . S
C1919 C1917 1.387 . S
C1919 C1921 1.390 . S
C1919 H1923 0.950 . S
H1920 C1916 0.950 . S
C1921 C1919 1.390 . S
C1921 C1922 1.387 . S
C1921 H1924 0.950 . S
C1922 C1921 1.387 . S
C1922 C1925 1.387 . S
H1923 C1919 0.950 . S
H1924 C1921 0.950 . S
C1925 C1916 1.390 . S
C1925 H1918 0.950 . S
C1925 C1922 1.387 . S
C1926 C1927 1.387 . S
C1926 H1930 0.950 . S
C1926 C1935 1.390 . S
C1927 C1926 1.387 . S
C1927 C1929 1.387 . S
H1928 C1935 0.950 . S
C1929 C1927 1.387 . S
C1929 C1931 1.390 . S
C1929 H1933 0.950 . S
H1930 C1926 0.950 . S
C1931 C1929 1.390 . S
C1931 C1932 1.387 . S
C1931 H1934 0.950 . S
C1932 C1931 1.387 . S
C1932 C1935 1.387 . S
H1933 C1929 0.950 . S
H1934 C1931 0.950 . S
C1935 C1926 1.390 . S
C1935 H1928 0.950 . S
C1935 C1932 1.387 . S
C1936 C1937 1.387 . S
C1936 H1940 0.950 . S
C1936 C1945 1.390 . S
C1937 C1936 1.387 . S
C1937 C1939 1.387 . S
H1938 C1945 0.950 . S
C1939 C1937 1.387 . S
C1939 C1941 1.390 . S
C1939 H1943 0.950 . S
H1940 C1936 0.950 . S
C1941 C1939 1.390 . S
C1941 C1942 1.387 . S
C1941 H1944 0.950 . S
C1942 C1941 1.387 . S
C1942 C1945 1.387 . S
H1943 C1939 0.950 . S
H1944 C1941 0.950 . S
C1945 C1936 1.390 . S
C1945 H1938 0.950 . S
C1945 C1942 1.387 . S
C1946 C1947 1.387 . S
C1946 H1950 0.950 . S
C1946 C1955 1.390 . S
C1947 C1946 1.387 . S
C1947 C1949 1.387 . S
H1948 C1955 0.950 . S
C1949 C1947 1.387 . S
C1949 C1951 1.390 . S
C1949 H1953 0.950 . S
H1950 C1946 0.950 . S
C1951 C1949 1.390 . S
C1951 C1952 1.387 . S
C1951 H1954 0.950 . S
C1952 C1951 1.387 . S
C1952 C1955 1.387 . S
H1953 C1949 0.950 . S
H1954 C1951 0.950 . S
C1955 C1946 1.390 . S
C1955 H1948 0.950 . S
C1955 C1952 1.387 . S
C1956 C1957 1.387 . S
C1956 H1960 0.950 . S
C1956 C1965 1.390 . S
C1957 C1956 1.387 . S
C1957 C1959 1.387 . S
H1958 C1965 0.950 . S
C1959 C1957 1.387 . S
C1959 C1961 1.390 . S
C1959 H1963 0.950 . S
H1960 C1956 0.950 . S
C1961 C1959 1.390 . S
C1961 C1962 1.387 . S
C1961 H1964 0.950 . S
C1962 C1961 1.387 . S
C1962 C1965 1.387 . S
H1963 C1959 0.950 . S
H1964 C1961 0.950 . S
C1965 C1956 1.390 . S
C1965 H1958 0.950 . S
C1965 C1962 1.387 . S
C1966 C1967 1.387 . S
C1966 H1970 0.950 . S
C1966 C1975 1.390 . S
C1967 C1966 1.387 . S
C1967 C1969 1.387 . S
H1968 C1975 0.950 . S
C1969 C1967 1.387 . S
C1969 C1971 1.390 . S
C1969 H1973 0.950 . S
H1970 C1966 0.950 . S
C1971 C1969 1.390 . S
C1971 C1972 1.387 . S
C1971 H1974 0.950 . S
C1972 C1971 1.387 . S
C1972 C1975 1.387 . S
H1973 C1969 0.950 . S
H1974 C1971 0.950 . S
C1975 C1966 1.390 . S
C1975 H1968 0.950 . S
C1975 C1972 1.387 . S
C1976 C1977 1.387 . S
C1976 H1980 0.950 . S
C1976 C1985 1.390 . S
C1977 C1976 1.387 . S
C1977 C1979 1.387 . S
H1978 C1985 0.950 . S
C1979 C1977 1.387 . S
C1979 C1981 1.390 . S
C1979 H1983 0.950 . S
H1980 C1976 0.950 . S
C1981 C1979 1.390 . S
C1981 C1982 1.387 . S
C1981 H1984 0.950 . S
C1982 C1981 1.387 . S
C1982 C1985 1.387 . S
H1983 C1979 0.950 . S
H1984 C1981 0.950 . S
C1985 C1976 1.390 . S
C1985 H1978 0.950 . S
C1985 C1982 1.387 . S
C1986 C1987 1.387 . S
C1986 H1990 0.950 . S
C1986 C1995 1.390 . S
C1987 C1986 1.387 . S
C1987 C1989 1.387 . S
H1988 C1995 0.950 . S
C1989 C1987 1.387 . S
C1989 C1991 1.390 . S
C1989 H1993 0.950 . S
H1990 C1986 0.950 . S
C1991 C1989 1.390 . S
C1991 C1992 1.387 . S
C1991 H1994 0.950 . S
C1992 C1991 1.387 . S
C1992 C1995 1.387 . S
H1993 C1989 0.950 . S
H1994 C1991 0.950 . S
C1995 C1986 1.390 . S
C1995 H1988 0.950 . S
C1995 C1992 1.387 . S
C1996 C1997 1.387 . S
C1996 H2000 0.950 . S
C1996 C2005 1.390 . S
C1997 C1996 1.387 . S
C1997 C1999 1.387 . S
H1998 C2005 0.950 . S
C1999 C1997 1.387 . S
C1999 C2001 1.390 . S
C1999 H2003 0.950 . S
H2000 C1996 0.950 . S
C2001 C1999 1.390 . S
C2001 C2002 1.387 . S
C2001 H2004 0.950 . S
C2002 C2001 1.387 . S
C2002 C2005 1.387 . S
H2003 C1999 0.950 . S
H2004 C2001 0.950 . S
C2005 C1996 1.390 . S
C2005 H1998 0.950 . S
C2005 C2002 1.387 . S
C2006 C2007 1.387 . S
C2006 H2010 0.950 . S
C2006 C2015 1.390 . S
C2007 C2006 1.387 . S
C2007 C2009 1.387 . S
H2008 C2015 0.950 . S
C2009 C2007 1.387 . S
C2009 C2011 1.390 . S
C2009 H2013 0.950 . S
H2010 C2006 0.950 . S
C2011 C2009 1.390 . S
C2011 C2012 1.387 . S
C2011 H2014 0.950 . S
C2012 C2011 1.387 . S
C2012 C2015 1.387 . S
H2013 C2009 0.950 . S
H2014 C2011 0.950 . S
C2015 C2006 1.390 . S
C2015 H2008 0.950 . S
C2015 C2012 1.387 . S
C2016 C2017 1.387 . S
C2016 H2020 0.950 . S
C2016 C2025 1.390 1_554 S
C2017 C2016 1.387 . S
C2017 C2019 1.387 1_565 S
H2018 C2025 0.950 . S
C2019 C2017 1.387 1_545 S
C2019 C2021 1.390 1_554 S
C2019 H2023 0.950 . S
H2020 C2016 0.950 . S
C2021 C2019 1.390 1_556 S
C2021 C2022 1.387 . S
C2021 H2024 0.950 . S
C2022 C2021 1.387 . S
C2022 C2025 1.387 1_545 S
H2023 C2019 0.950 . S
H2024 C2021 0.950 . S
C2025 C2016 1.390 1_556 S
C2025 H2018 0.950 . S
C2025 C2022 1.387 1_565 S
C2026 C2027 1.387 . S
C2026 H2030 0.950 . S
C2026 C2035 1.390 1_554 S
C2027 C2026 1.387 . S
C2027 C2029 1.387 . S
H2028 C2035 0.950 . S
C2029 C2027 1.387 . S
C2029 C2031 1.390 1_554 S
C2029 H2033 0.950 . S
H2030 C2026 0.950 . S
C2031 C2029 1.390 1_556 S
C2031 C2032 1.387 . S
C2031 H2034 0.950 . S
C2032 C2031 1.387 . S
C2032 C2035 1.387 . S
H2033 C2029 0.950 . S
H2034 C2031 0.950 . S
C2035 C2026 1.390 1_556 S
C2035 H2028 0.950 . S
C2035 C2032 1.387 . S
C2036 C2037 1.387 . S
C2036 H2040 0.950 . S
C2036 C2045 1.390 . S
C2037 C2036 1.387 . S
C2037 C2039 1.387 . S
H2038 C2045 0.950 . S
C2039 C2037 1.387 . S
C2039 C2041 1.390 . S
C2039 H2043 0.950 . S
H2040 C2036 0.950 . S
C2041 C2039 1.390 . S
C2041 C2042 1.387 . S
C2041 H2044 0.950 . S
C2042 C2041 1.387 . S
C2042 C2045 1.387 . S
H2043 C2039 0.950 . S
H2044 C2041 0.950 . S
C2045 C2036 1.390 . S
C2045 H2038 0.950 . S
C2045 C2042 1.387 . S
C2046 C2047 1.387 1_545 S
C2046 H2050 0.950 . S
C2046 C2055 1.390 . S
C2047 C2046 1.387 1_565 S
C2047 C2049 1.387 . S
H2048 C2055 0.950 . S
C2049 C2047 1.387 . S
C2049 C2051 1.390 . S
C2049 H2053 0.950 . S
H2050 C2046 0.950 . S
C2051 C2049 1.390 . S
C2051 C2052 1.387 1_565 S
C2051 H2054 0.950 . S
C2052 C2051 1.387 1_545 S
C2052 C2055 1.387 . S
H2053 C2049 0.950 . S
H2054 C2051 0.950 . S
C2055 C2046 1.390 . S
C2055 H2048 0.950 . S
C2055 C2052 1.387 . S
C2056 C2057 1.387 . S
C2056 H2060 0.950 . S
C2056 C2065 1.390 1_556 S
C2057 C2056 1.387 . S
C2057 C2059 1.387 . S
H2058 C2065 0.950 . S
C2059 C2057 1.387 . S
C2059 C2061 1.390 1_556 S
C2059 H2063 0.950 . S
H2060 C2056 0.950 . S
C2061 C2059 1.390 1_554 S
C2061 C2062 1.387 . S
C2061 H2064 0.950 . S
C2062 C2061 1.387 . S
C2062 C2065 1.387 . S
H2063 C2059 0.950 . S
H2064 C2061 0.950 . S
C2065 C2056 1.390 1_554 S
C2065 H2058 0.950 . S
C2065 C2062 1.387 . S
C2066 C2067 1.387 . S
C2066 H2070 0.950 . S
C2066 C2075 1.390 . S
C2067 C2066 1.387 . S
C2067 C2069 1.387 . S
H2068 C2075 0.950 . S
C2069 C2067 1.387 . S
C2069 C2071 1.390 . S
C2069 H2073 0.950 . S
H2070 C2066 0.950 . S
C2071 C2069 1.390 . S
C2071 C2072 1.387 . S
C2071 H2074 0.950 . S
C2072 C2071 1.387 . S
C2072 C2075 1.387 . S
H2073 C2069 0.950 . S
H2074 C2071 0.950 . S
C2075 C2066 1.390 . S
C2075 H2068 0.950 . S
C2075 C2072 1.387 . S
C2076 C2077 1.387 . S
C2076 H2080 0.950 . S
C2076 C2085 1.390 1_565 S
C2077 C2076 1.387 . S
C2077 C2079 1.387 . S
H2078 C2085 0.950 . S
C2079 C2077 1.387 . S
C2079 C2081 1.390 1_565 S
C2079 H2083 0.950 . S
H2080 C2076 0.950 . S
C2081 C2079 1.390 1_545 S
C2081 C2082 1.387 . S
C2081 H2084 0.950 . S
C2082 C2081 1.387 . S
C2082 C2085 1.387 . S
H2083 C2079 0.950 . S
H2084 C2081 0.950 . S
C2085 C2076 1.390 1_545 S
C2085 H2078 0.950 . S
C2085 C2082 1.387 . S
C2086 C2087 1.387 . S
C2086 H2090 0.950 . S
C2086 C2095 1.390 . S
C2087 C2086 1.387 . S
C2087 C2089 1.387 . S
H2088 C2095 0.950 . S
C2089 C2087 1.387 . S
C2089 C2091 1.390 . S
C2089 H2093 0.950 . S
H2090 C2086 0.950 . S
C2091 C2089 1.390 . S
C2091 C2092 1.387 . S
C2091 H2094 0.950 . S
C2092 C2091 1.387 . S
C2092 C2095 1.387 . S
H2093 C2089 0.950 . S
H2094 C2091 0.950 . S
C2095 C2086 1.390 . S
C2095 H2088 0.950 . S
C2095 C2092 1.387 . S
C2096 C2097 1.387 . S
C2096 H2100 0.950 . S
C2096 C2105 1.390 . S
C2097 C2096 1.387 . S
C2097 C2099 1.387 . S
H2098 C2105 0.950 . S
C2099 C2097 1.387 . S
C2099 C2101 1.390 . S
C2099 H2103 0.950 . S
H2100 C2096 0.950 . S
C2101 C2099 1.390 . S
C2101 C2102 1.387 . S
C2101 H2104 0.950 . S
C2102 C2101 1.387 . S
C2102 C2105 1.387 . S
H2103 C2099 0.950 . S
H2104 C2101 0.950 . S
C2105 C2096 1.390 . S
C2105 H2098 0.950 . S
C2105 C2102 1.387 . S
C2106 C2107 1.387 . S
C2106 H2110 0.950 . S
C2106 C2115 1.390 . S
C2107 C2106 1.387 . S
C2107 C2109 1.387 . S
H2108 C2115 0.950 . S
C2109 C2107 1.387 . S
C2109 C2111 1.390 . S
C2109 H2113 0.950 . S
H2110 C2106 0.950 . S
C2111 C2109 1.390 . S
C2111 C2112 1.387 . S
C2111 H2114 0.950 . S
C2112 C2111 1.387 . S
C2112 C2115 1.387 . S
H2113 C2109 0.950 . S
H2114 C2111 0.950 . S
C2115 C2106 1.390 . S
C2115 H2108 0.950 . S
C2115 C2112 1.387 . S
C2116 C2117 1.387 . S
C2116 H2120 0.950 . S
C2116 C2125 1.390 . S
C2117 C2116 1.387 . S
C2117 C2119 1.387 . S
H2118 C2125 0.950 . S
C2119 C2117 1.387 . S
C2119 C2121 1.390 . S
C2119 H2123 0.950 . S
H2120 C2116 0.950 . S
C2121 C2119 1.390 . S
C2121 C2122 1.387 . S
C2121 H2124 0.950 . S
C2122 C2121 1.387 . S
C2122 C2125 1.387 . S
H2123 C2119 0.950 . S
H2124 C2121 0.950 . S
C2125 C2116 1.390 . S
C2125 H2118 0.950 . S
C2125 C2122 1.387 . S
C2126 C2127 1.387 . S
C2126 H2130 0.950 . S
C2126 C2135 1.390 . S
C2127 C2126 1.387 . S
C2127 C2129 1.387 . S
H2128 C2135 0.950 . S
C2129 C2127 1.387 . S
C2129 C2131 1.390 . S
C2129 H2133 0.950 . S
H2130 C2126 0.950 . S
C2131 C2129 1.390 . S
C2131 C2132 1.387 . S
C2131 H2134 0.950 . S
C2132 C2131 1.387 . S
C2132 C2135 1.387 . S
H2133 C2129 0.950 . S
H2134 C2131 0.950 . S
C2135 C2126 1.390 . S
C2135 H2128 0.950 . S
C2135 C2132 1.387 . S
C2136 C2137 1.387 1_655 S
C2136 H2140 0.950 . S
C2136 C2145 1.390 . S
C2137 C2136 1.387 1_455 S
C2137 C2139 1.387 1_545 S
H2138 C2145 0.950 . S
C2139 C2137 1.387 1_565 S
C2139 C2141 1.390 . S
C2139 H2143 0.950 . S
H2140 C2136 0.950 . S
C2141 C2139 1.390 . S
C2141 C2142 1.387 1_455 S
C2141 H2144 0.950 . S
C2142 C2141 1.387 1_655 S
C2142 C2145 1.387 1_565 S
H2143 C2139 0.950 . S
H2144 C2141 0.950 . S
C2145 C2136 1.390 . S
C2145 H2138 0.950 . S
C2145 C2142 1.387 1_545 S
C2146 C2147 1.387 1_455 S
C2146 H2150 0.950 . S
C2146 C2155 1.390 . S
C2147 C2146 1.387 1_655 S
C2147 C2149 1.387 . S
H2148 C2155 0.950 . S
C2149 C2147 1.387 . S
C2149 C2151 1.390 . S
C2149 H2153 0.950 . S
H2150 C2146 0.950 . S
C2151 C2149 1.390 . S
C2151 C2152 1.387 1_655 S
C2151 H2154 0.950 . S
C2152 C2151 1.387 1_455 S
C2152 C2155 1.387 . S
H2153 C2149 0.950 . S
H2154 C2151 0.950 . S
C2155 C2146 1.390 . S
C2155 H2148 0.950 . S
C2155 C2152 1.387 . S
C2156 C2157 1.387 . S
C2156 H2160 0.950 . S
C2156 C2165 1.390 . S
C2157 C2156 1.387 . S
C2157 C2159 1.387 1_655 S
H2158 C2165 0.950 . S
C2159 C2157 1.387 1_455 S
C2159 C2161 1.390 . S
C2159 H2163 0.950 . S
H2160 C2156 0.950 . S
C2161 C2159 1.390 . S
C2161 C2162 1.387 . S
C2161 H2164 0.950 . S
C2162 C2161 1.387 . S
C2162 C2165 1.387 1_455 S
H2163 C2159 0.950 . S
H2164 C2161 0.950 . S
C2165 C2156 1.390 . S
C2165 H2158 0.950 . S
C2165 C2162 1.387 1_655 S
C2166 C2167 1.387 . S
C2166 H2170 0.950 . S
C2166 C2175 1.390 1_556 S
C2167 C2166 1.387 . S
C2167 C2169 1.387 1_455 S
H2168 C2175 0.950 . S
C2169 C2167 1.387 1_655 S
C2169 C2171 1.390 1_556 S
C2169 H2173 0.950 . S
H2170 C2166 0.950 . S
C2171 C2169 1.390 1_554 S
C2171 C2172 1.387 . S
C2171 H2174 0.950 . S
C2172 C2171 1.387 . S
C2172 C2175 1.387 1_655 S
H2173 C2169 0.950 . S
H2174 C2171 0.950 . S
C2175 C2166 1.390 1_554 S
C2175 H2168 0.950 . S
C2175 C2172 1.387 1_455 S
C2176 C2177 1.387 . S
C2176 H2180 0.950 . S
C2176 C2185 1.390 . S
C2177 C2176 1.387 . S
C2177 C2179 1.387 . S
H2178 C2185 0.950 . S
C2179 C2177 1.387 . S
C2179 C2181 1.390 . S
C2179 H2183 0.950 . S
H2180 C2176 0.950 . S
C2181 C2179 1.390 . S
C2181 C2182 1.387 . S
C2181 H2184 0.950 . S
C2182 C2181 1.387 . S
C2182 C2185 1.387 . S
H2183 C2179 0.950 . S
H2184 C2181 0.950 . S
C2185 C2176 1.390 . S
C2185 H2178 0.950 . S
C2185 C2182 1.387 . S
C2186 C2187 1.387 . S
C2186 H2190 0.950 . S
C2186 C2195 1.390 . S
C2187 C2186 1.387 . S
C2187 C2189 1.387 . S
H2188 C2195 0.950 . S
C2189 C2187 1.387 . S
C2189 C2191 1.390 . S
C2189 H2193 0.950 . S
H2190 C2186 0.950 . S
C2191 C2189 1.390 . S
C2191 C2192 1.387 . S
C2191 H2194 0.950 . S
C2192 C2191 1.387 . S
C2192 C2195 1.387 . S
H2193 C2189 0.950 . S
H2194 C2191 0.950 . S
C2195 C2186 1.390 . S
C2195 H2188 0.950 . S
C2195 C2192 1.387 . S
C2196 C2197 1.387 . S
C2196 H2200 0.950 . S
C2196 C2205 1.390 . S
C2197 C2196 1.387 . S
C2197 C2199 1.387 . S
H2198 C2205 0.950 . S
C2199 C2197 1.387 . S
C2199 C2201 1.390 . S
C2199 H2203 0.950 . S
H2200 C2196 0.950 . S
C2201 C2199 1.390 . S
C2201 C2202 1.387 . S
C2201 H2204 0.950 . S
C2202 C2201 1.387 . S
C2202 C2205 1.387 . S
H2203 C2199 0.950 . S
H2204 C2201 0.950 . S
C2205 C2196 1.390 . S
C2205 H2198 0.950 . S
C2205 C2202 1.387 . S
C2206 C2207 1.387 . S
C2206 H2210 0.950 . S
C2206 C2215 1.390 . S
C2207 C2206 1.387 . S
C2207 C2209 1.387 . S
H2208 C2215 0.950 . S
C2209 C2207 1.387 . S
C2209 C2211 1.390 . S
C2209 H2213 0.950 . S
H2210 C2206 0.950 . S
C2211 C2209 1.390 . S
C2211 C2212 1.387 . S
C2211 H2214 0.950 . S
C2212 C2211 1.387 . S
C2212 C2215 1.387 . S
H2213 C2209 0.950 . S
H2214 C2211 0.950 . S
C2215 C2206 1.390 . S
C2215 H2208 0.950 . S
C2215 C2212 1.387 . S
C2216 C2217 1.387 . S
C2216 H2220 0.950 . S
C2216 C2225 1.390 . S
C2217 C2216 1.387 . S
C2217 C2219 1.387 . S
H2218 C2225 0.950 . S
C2219 C2217 1.387 . S
C2219 C2221 1.390 . S
C2219 H2223 0.950 . S
H2220 C2216 0.950 . S
C2221 C2219 1.390 . S
C2221 C2222 1.387 . S
C2221 H2224 0.950 . S
C2222 C2221 1.387 . S
C2222 C2225 1.387 . S
H2223 C2219 0.950 . S
H2224 C2221 0.950 . S
C2225 C2216 1.390 . S
C2225 H2218 0.950 . S
C2225 C2222 1.387 . S
C2226 C2227 1.387 . S
C2226 H2230 0.950 . S
C2226 C2235 1.390 . S
C2227 C2226 1.387 . S
C2227 C2229 1.387 . S
H2228 C2235 0.950 . S
C2229 C2227 1.387 . S
C2229 C2231 1.390 . S
C2229 H2233 0.950 . S
H2230 C2226 0.950 . S
C2231 C2229 1.390 . S
C2231 C2232 1.387 . S
C2231 H2234 0.950 . S
C2232 C2231 1.387 . S
C2232 C2235 1.387 . S
H2233 C2229 0.950 . S
H2234 C2231 0.950 . S
C2235 C2226 1.390 . S
C2235 H2228 0.950 . S
C2235 C2232 1.387 . S
C2236 C2237 1.387 . S
C2236 H2240 0.950 . S
C2236 C2245 1.390 . S
C2237 C2236 1.387 . S
C2237 C2239 1.387 . S
H2238 C2245 0.950 . S
C2239 C2237 1.387 . S
C2239 C2241 1.390 . S
C2239 H2243 0.950 . S
H2240 C2236 0.950 . S
C2241 C2239 1.390 . S
C2241 C2242 1.387 . S
C2241 H2244 0.950 . S
C2242 C2241 1.387 . S
C2242 C2245 1.387 . S
H2243 C2239 0.950 . S
H2244 C2241 0.950 . S
C2245 C2236 1.390 . S
C2245 H2238 0.950 . S
C2245 C2242 1.387 . S
C2246 C2247 1.387 . S
C2246 H2250 0.950 . S
C2246 C2255 1.390 . S
C2247 C2246 1.387 . S
C2247 C2249 1.387 . S
H2248 C2255 0.950 . S
C2249 C2247 1.387 . S
C2249 C2251 1.390 . S
C2249 H2253 0.950 . S
H2250 C2246 0.950 . S
C2251 C2249 1.390 . S
C2251 C2252 1.387 . S
C2251 H2254 0.950 . S
C2252 C2251 1.387 . S
C2252 C2255 1.387 . S
H2253 C2249 0.950 . S
H2254 C2251 0.950 . S
C2255 C2246 1.390 . S
C2255 H2248 0.950 . S
C2255 C2252 1.387 . S
C2256 C2257 1.387 . S
C2256 H2260 0.950 . S
C2256 C2265 1.390 . S
C2257 C2256 1.387 . S
C2257 C2259 1.387 . S
H2258 C2265 0.950 . S
C2259 C2257 1.387 . S
C2259 C2261 1.390 . S
C2259 H2263 0.950 . S
H2260 C2256 0.950 . S
C2261 C2259 1.390 . S
C2261 C2262 1.387 . S
C2261 H2264 0.950 . S
C2262 C2261 1.387 . S
C2262 C2265 1.387 . S
H2263 C2259 0.950 . S
H2264 C2261 0.950 . S
C2265 C2256 1.390 . S
C2265 H2258 0.950 . S
C2265 C2262 1.387 . S
C2266 C2267 1.387 . S
C2266 H2270 0.950 . S
C2266 C2275 1.390 . S
C2267 C2266 1.387 . S
C2267 C2269 1.387 . S
H2268 C2275 0.950 . S
C2269 C2267 1.387 . S
C2269 C2271 1.390 . S
C2269 H2273 0.950 . S
H2270 C2266 0.950 . S
C2271 C2269 1.390 . S
C2271 C2272 1.387 . S
C2271 H2274 0.950 . S
C2272 C2271 1.387 . S
C2272 C2275 1.387 . S
H2273 C2269 0.950 . S
H2274 C2271 0.950 . S
C2275 C2266 1.390 . S
C2275 H2268 0.950 . S
C2275 C2272 1.387 . S
C2276 C2277 1.387 . S
C2276 H2280 0.950 . S
C2276 C2285 1.390 . S
C2277 C2276 1.387 . S
C2277 C2279 1.387 . S
H2278 C2285 0.950 . S
C2279 C2277 1.387 . S
C2279 C2281 1.390 . S
C2279 H2283 0.950 . S
H2280 C2276 0.950 . S
C2281 C2279 1.390 . S
C2281 C2282 1.387 . S
C2281 H2284 0.950 . S
C2282 C2281 1.387 . S
C2282 C2285 1.387 . S
H2283 C2279 0.950 . S
H2284 C2281 0.950 . S
C2285 C2276 1.390 . S
C2285 H2278 0.950 . S
C2285 C2282 1.387 . S
C2286 C2287 1.387 . S
C2286 H2290 0.950 . S
C2286 C2295 1.390 . S
C2287 C2286 1.387 . S
C2287 C2289 1.387 . S
H2288 C2295 0.950 . S
C2289 C2287 1.387 . S
C2289 C2291 1.390 . S
C2289 H2293 0.950 . S
H2290 C2286 0.950 . S
C2291 C2289 1.390 . S
C2291 C2292 1.387 . S
C2291 H2294 0.950 . S
C2292 C2291 1.387 . S
C2292 C2295 1.387 . S
H2293 C2289 0.950 . S
H2294 C2291 0.950 . S
C2295 C2286 1.390 . S
C2295 H2288 0.950 . S
C2295 C2292 1.387 . S
C2296 C2297 1.387 . S
C2296 H2300 0.950 . S
C2296 C2305 1.390 . S
C2297 C2296 1.387 . S
C2297 C2299 1.387 . S
H2298 C2305 0.950 . S
C2299 C2297 1.387 . S
C2299 C2301 1.390 . S
C2299 H2303 0.950 . S
H2300 C2296 0.950 . S
C2301 C2299 1.390 . S
C2301 C2302 1.387 . S
C2301 H2304 0.950 . S
C2302 C2301 1.387 . S
C2302 C2305 1.387 . S
H2303 C2299 0.950 . S
H2304 C2301 0.950 . S
C2305 C2296 1.390 . S
C2305 H2298 0.950 . S
C2305 C2302 1.387 . S
C2306 C2307 1.387 . S
C2306 H2310 0.950 . S
C2306 C2315 1.390 . S
C2307 C2306 1.387 . S
C2307 C2309 1.387 . S
H2308 C2315 0.950 . S
C2309 C2307 1.387 . S
C2309 C2311 1.390 . S
C2309 H2313 0.950 . S
H2310 C2306 0.950 . S
C2311 C2309 1.390 . S
C2311 C2312 1.387 . S
C2311 H2314 0.950 . S
C2312 C2311 1.387 . S
C2312 C2315 1.387 . S
H2313 C2309 0.950 . S
H2314 C2311 0.950 . S
C2315 C2306 1.390 . S
C2315 H2308 0.950 . S
C2315 C2312 1.387 . S
C2316 C2317 1.387 . S
C2316 H2320 0.950 . S
C2316 C2325 1.390 . S
C2317 C2316 1.387 . S
C2317 C2319 1.387 . S
H2318 C2325 0.950 . S
C2319 C2317 1.387 . S
C2319 C2321 1.390 . S
C2319 H2323 0.950 . S
H2320 C2316 0.950 . S
C2321 C2319 1.390 . S
C2321 C2322 1.387 . S
C2321 H2324 0.950 . S
C2322 C2321 1.387 . S
C2322 C2325 1.387 . S
H2323 C2319 0.950 . S
H2324 C2321 0.950 . S
C2325 C2316 1.390 . S
C2325 H2318 0.950 . S
C2325 C2322 1.387 . S
C2326 C2327 1.387 . S
C2326 H2330 0.950 . S
C2326 C2335 1.390 . S
C2327 C2326 1.387 . S
C2327 C2329 1.387 . S
H2328 C2335 0.950 . S
C2329 C2327 1.387 . S
C2329 C2331 1.390 . S
C2329 H2333 0.950 . S
H2330 C2326 0.950 . S
C2331 C2329 1.390 . S
C2331 C2332 1.387 . S
C2331 H2334 0.950 . S
C2332 C2331 1.387 . S
C2332 C2335 1.387 . S
H2333 C2329 0.950 . S
H2334 C2331 0.950 . S
C2335 C2326 1.390 . S
C2335 H2328 0.950 . S
C2335 C2332 1.387 . S
C1697 C38 1.826 . S
C1702 C144 1.826 . S
C1707 C197 1.815 . S
C1712 C91 1.815 . S
C1717 C356 1.836 . S
C1722 C250 1.836 . S
C1727 C409 1.828 . S
C1732 C303 1.828 . S
C1737 C462 1.824 . S
C1742 C568 1.824 . S
C1747 C621 1.818 . S
C1752 C515 1.818 . S
C1757 C674 1.836 . S
C1762 C780 1.836 . S
C1767 C833 1.825 . S
C1772 C727 1.825 . S
C1777 C886 1.793 . S
C1782 C992 1.793 . S
C1787 C939 1.825 . S
C1792 C1045 1.825 . S
C1797 C1204 1.800 . S
C1802 C1098 1.800 . S
C1807 C1151 1.835 . S
C1812 C1257 1.835 . S
C1817 C1416 1.793 . S
C1822 C1310 1.793 . S
C1827 C1469 1.828 . S
C1832 C1363 1.828 . S
C1837 C1628 1.802 . S
C1842 C1522 1.802 . S
C1847 C1575 1.838 . S
C1852 C1681 1.838 . S
C1857 C1347 1.902 . S
C1862 C22 1.902 . S
C1867 C75 1.898 . S
C1872 C1294 1.893 . S
C1877 C128 1.902 . S
C1882 C1453 1.903 . S
C1887 C181 1.898 . S
C1892 C1400 1.893 . S
C1897 C1559 1.899 . S
C1902 C234 1.899 . S
C1907 C287 1.896 . S
C1912 C1506 1.891 . S
C1917 C340 1.900 . S
C1922 C1665 1.900 . S
C1927 C1612 1.896 . S
C1932 C393 1.892 . S
C1937 C446 1.902 . S
C1942 C923 1.902 . S
C1947 C499 1.899 . S
C1952 C870 1.894 . S
C1957 C552 1.902 . S
C1962 C1029 1.902 . S
C1967 C605 1.899 . S
C1972 C976 1.894 . S
C1977 C658 1.900 . S
C1982 C1135 1.900 . S
C1987 C1082 1.896 . S
C1992 C711 1.892 . S
C1997 C1241 1.900 . S
C2002 C764 1.900 . S
C2007 C817 1.896 . S
C2012 C1188 1.891 . S
C2017 C39 1.884 . S
C2022 C251 1.873 . S
C2027 C92 1.880 . S
C2032 C1576 1.868 . S
C2037 C145 1.887 . S
C2042 C781 1.876 . S
C2047 C198 1.883 . S
C2052 C1258 1.870 . S
C2057 C304 1.871 . S
C2062 C1364 1.881 . S
C2067 C569 1.886 . S
C2072 C357 1.876 . S
C2077 C1046 1.878 . S
C2082 C410 1.868 . S
C2087 C675 1.875 . S
C2092 C463 1.886 . S
C2097 C516 1.880 . S
C2102 C1152 1.867 . S
C2107 C1682 1.867 . S
C2112 C622 1.879 . S
C2117 C728 1.868 . S
C2122 C940 1.879 . S
C2127 C834 1.871 . S
C2132 C1470 1.881 . S
C2137 C1099 1.850 . S
C2142 C887 1.860 . S
C2147 C993 1.857 . S
C2152 C1629 1.847 . S
C2157 C1417 1.859 . S
C2162 C1205 1.849 . S
C2167 C1523 1.846 . S
C2172 C1311 1.857 . S
C2177 C29 1.193 . S
C2182 C82 1.193 . S
C2187 C135 1.191 . S
C2192 C188 1.191 . S
C2197 C241 1.194 . S
C2202 C294 1.194 . S
C2207 C347 1.196 . S
C2212 C400 1.196 . S
C2217 C506 1.193 . S
C2222 C453 1.193 . S
C2227 C559 1.191 . S
C2232 C612 1.191 . S
C2237 C665 1.194 . S
C2242 C718 1.194 . S
C2247 C771 1.196 . S
C2252 C824 1.196 . S
C2257 C877 1.205 . S
C2262 C930 1.210 . S
C2267 C1036 1.205 . S
C2272 C983 1.210 . S
C2277 C1089 1.207 . S
C2282 C1142 1.213 . S
C2287 C1195 1.207 . S
C2292 C1248 1.213 . S
C2297 C1354 1.203 . S
C2302 C1301 1.207 . S
C2307 C1407 1.205 . S
C2312 C1460 1.210 . S
C2317 C1566 1.206 . S
C2322 C1513 1.210 . S
C2327 C1619 1.205 . S
C2332 C1672 1.211 . S
