# Generated by pormake.
# Topology nov, (5)-cn, num edge types: 1
# Building blocks:
#     Node 0, Type 0, BuildingBlock: BEQFEK_clean_sbu_0, # of connection points: 5
#     Node 1, Type 0, BuildingBlock: BEQFEK_clean_sbu_0, # of connection points: 5
#     Node 2, Type 0, BuildingBlock: BEQFEK_clean_sbu_0, # of connection points: 5
#     Node 3, Type 0, BuildingBlock: BEQFEK_clean_sbu_0, # of connection points: 5
#     Node 4, Type 0, BuildingBlock: BEQFEK_clean_sbu_0, # of connection points: 5
#     Node 5, Type 0, BuildingBlock: BEQFEK_clean_sbu_0, # of connection points: 5
#     Node 6, Type 0, BuildingBlock: BEQFEK_clean_sbu_0, # of connection points: 5
#     Node 7, Type 0, BuildingBlock: BEQFEK_clean_sbu_0, # of connection points: 5
#     Edge 8, Type (0, 0), BuildingBlock: UVAHIK_clean_linker_0, # of connection points: 2
#     Edge 9, Type (0, 0), BuildingBlock: UVAHIK_clean_linker_0, # of connection points: 2
#     Edge 10, Type (0, 0), BuildingBlock: UVAHIK_clean_linker_0, # of connection points: 2
#     Edge 11, Type (0, 0), BuildingBlock: UVAHIK_clean_linker_0, # of connection points: 2
#     Edge 12, Type (0, 0), BuildingBlock: UVAHIK_clean_linker_0, # of connection points: 2
#     Edge 13, Type (0, 0), BuildingBlock: UVAHIK_clean_linker_0, # of connection points: 2
#     Edge 14, Type (0, 0), BuildingBlock: UVAHIK_clean_linker_0, # of connection points: 2
#     Edge 15, Type (0, 0), BuildingBlock: UVAHIK_clean_linker_0, # of connection points: 2
#     Edge 16, Type (0, 0), BuildingBlock: UVAHIK_clean_linker_0, # of connection points: 2
#     Edge 17, Type (0, 0), BuildingBlock: UVAHIK_clean_linker_0, # of connection points: 2
#     Edge 18, Type (0, 0), BuildingBlock: UVAHIK_clean_linker_0, # of connection points: 2
#     Edge 19, Type (0, 0), BuildingBlock: UVAHIK_clean_linker_0, # of connection points: 2
#     Edge 20, Type (0, 0), BuildingBlock: UVAHIK_clean_linker_0, # of connection points: 2
#     Edge 21, Type (0, 0), BuildingBlock: UVAHIK_clean_linker_0, # of connection points: 2
#     Edge 22, Type (0, 0), BuildingBlock: UVAHIK_clean_linker_0, # of connection points: 2
#     Edge 23, Type (0, 0), BuildingBlock: UVAHIK_clean_linker_0, # of connection points: 2
#     Edge 24, Type (0, 0), BuildingBlock: UVAHIK_clean_linker_0, # of connection points: 2
#     Edge 25, Type (0, 0), BuildingBlock: UVAHIK_clean_linker_0, # of connection points: 2
#     Edge 26, Type (0, 0), BuildingBlock: UVAHIK_clean_linker_0, # of connection points: 2
#     Edge 27, Type (0, 0), BuildingBlock: UVAHIK_clean_linker_0, # of connection points: 2
# Relax obj value: 0.072
# Max RMSD: 0.100
# Mean RMSD: 0.100
data_MOF--net-nov--node1-BEQFEK_clean_sbu_0--edge1-UVAHIK_clean_linker_0
_symmetry_space_group_name_H-M    P1
_symmetry_Int_Tables_number       1
_symmetry_cell_setting            triclinic
loop_
_symmetry_equiv_pos_as_xyz
'x, y, z'
_cell_length_a     47.582528
_cell_length_b     52.025554
_cell_length_c     32.863474
_cell_angle_alpha  89.946399
_cell_angle_beta   89.99209
_cell_angle_gamma 89.999612
loop_
_atom_site_label
_atom_site_type_symbol
_atom_site_fract_x
_atom_site_fract_y
_atom_site_fract_z
_atom_type_partial_charge
Co0 Co 0.95818 0.13977 0.19432 0.0
Co1 Co 0.02402 0.13503 0.18789 0.0
C2 C 0.98827 0.09398 0.15541 0.0
O3 O 0.96626 0.1066 0.16512 0.0
O4 O 0.01272 0.10232 0.16386 0.0
C5 C 0.90446 0.11961 0.21756 0.0
O6 O 0.91838 0.0978 0.21829 0.0
C7 C 0.08524 0.12209 0.19498 0.0
C8 C 0.10303 0.16056 0.18261 0.0
C9 C 0.11043 0.13537 0.19087 0.0
N10 N 0.06395 0.13884 0.18941 0.0
N11 N 0.07487 0.16175 0.18214 0.0
C12 C 0.08151 0.09391 0.2023 0.0
H13 H 0.0603 0.08755 0.19276 0.0
H14 H 0.0839 0.0899 0.23527 0.0
H15 H 0.09784 0.08284 0.18573 0.0
C16 C 0.97423 0.15308 0.27921 0.0
N17 N 0.98049 0.14375 0.24203 0.0
N18 N 0.0078 0.1401 0.23963 0.0
C19 C 0.01967 0.14612 0.27549 0.0
C20 C 0.99895 0.15504 0.30172 0.0
C21 C 0.94588 0.16339 0.29035 0.0
H22 H 0.93585 0.17232 0.26334 0.0
H23 H 0.93237 0.14725 0.3006 0.0
H24 H 0.94721 0.17783 0.31507 0.0
O25 O 0.96573 0.16864 0.1564 0.0
O26 O 0.0117 0.16269 0.15081 0.0
H27 H 0.06161 0.16031 0.26869 0.0
H28 H 0.05495 0.1448 0.31703 0.0
C29 C 0.05052 0.14419 0.2839 0.0
H30 H 0.05868 0.12589 0.27143 0.0
H31 H 0.06302 0.17825 0.17654 0.0
O32 O 0.91746 0.14019 0.2085 0.0
C33 C 0.98939 0.17466 0.14102 0.0
Co34 Co 0.55224 0.85651 0.69278 0.0
Co35 Co 0.4861 0.85723 0.69089 0.0
C36 C 0.51837 0.89848 0.65061 0.0
O37 O 0.54142 0.88793 0.66139 0.0
O38 O 0.4947 0.88891 0.66055 0.0
C39 C 0.60639 0.87878 0.70983 0.0
O40 O 0.59239 0.90053 0.70865 0.0
C41 C 0.42537 0.86878 0.70426 0.0
C42 C 0.40924 0.82905 0.70936 0.0
C43 C 0.40127 0.85457 0.71217 0.0
N44 N 0.44669 0.85225 0.69771 0.0
N45 N 0.43669 0.8286 0.70006 0.0
C46 C 0.42871 0.8973 0.70684 0.0
H47 H 0.45109 0.90247 0.71173 0.0
H48 H 0.41556 0.90517 0.7318 0.0
H49 H 0.42154 0.90605 0.67783 0.0
C50 C 0.54027 0.8469 0.78022 0.0
N51 N 0.53205 0.85377 0.74247 0.0
N52 N 0.50454 0.85625 0.74194 0.0
C53 C 0.49449 0.85205 0.77964 0.0
C54 C 0.51664 0.84542 0.8051 0.0
C55 C 0.56953 0.83842 0.79028 0.0
H56 H 0.57876 0.82798 0.76408 0.0
H57 H 0.58266 0.85564 0.79623 0.0
H58 H 0.57 0.82579 0.81746 0.0
O59 O 0.54473 0.82607 0.65845 0.0
O60 O 0.4981 0.82729 0.65805 0.0
H61 H 0.45284 0.83655 0.78012 0.0
H62 H 0.46139 0.85545 0.82446 0.0
C63 C 0.46409 0.85388 0.79101 0.0
H64 H 0.45468 0.87106 0.77655 0.0
H65 H 0.44893 0.81207 0.69691 0.0
O66 O 0.59332 0.85779 0.70392 0.0
C67 C 0.52115 0.81686 0.64744 0.0
Co68 Co 0.95898 0.8561 0.80402 0.0
Co69 Co 0.02507 0.8585 0.80871 0.0
C70 C 0.99038 0.89832 0.84879 0.0
O71 O 0.96788 0.88739 0.83674 0.0
O72 O 0.01449 0.88944 0.83954 0.0
C73 C 0.90572 0.87745 0.78116 0.0
O74 O 0.92033 0.89883 0.77874 0.0
C75 C 0.08621 0.87169 0.80116 0.0
C76 C 0.10402 0.83262 0.80693 0.0
C77 C 0.11139 0.85818 0.80236 0.0
N78 N 0.06494 0.85471 0.8049 0.0
N79 N 0.07587 0.83145 0.80815 0.0
C80 C 0.08253 0.90018 0.79821 0.0
H81 H 0.06119 0.90593 0.80818 0.0
H82 H 0.08536 0.90624 0.7661 0.0
H83 H 0.09868 0.91011 0.81682 0.0
C84 C 0.9732 0.84768 0.71699 0.0
N85 N 0.98042 0.85448 0.75516 0.0
N86 N 0.00786 0.85739 0.75697 0.0
C87 C 0.01889 0.8534 0.71983 0.0
C88 C 0.99742 0.84667 0.69322 0.0
C89 C 0.94441 0.83857 0.70557 0.0
H90 H 0.93462 0.82837 0.73159 0.0
H91 H 0.93116 0.85546 0.69801 0.0
H92 H 0.94496 0.82549 0.67897 0.0
O93 O 0.96664 0.82543 0.83805 0.0
O94 O 0.01317 0.82797 0.8402 0.0
H95 H 0.06045 0.83784 0.72272 0.0
H96 H 0.05345 0.85641 0.67725 0.0
C97 C 0.04962 0.85508 0.7105 0.0
H98 H 0.0586 0.87231 0.72536 0.0
H99 H 0.06406 0.81469 0.81153 0.0
O100 O 0.91812 0.85677 0.79128 0.0
C101 C 0.99034 0.81677 0.84971 0.0
Co102 Co 0.55047 0.13969 0.30506 0.0
Co103 Co 0.48449 0.13621 0.3066 0.0
C104 C 0.51799 0.09495 0.34327 0.0
O105 O 0.54057 0.10698 0.33433 0.0
O106 O 0.49397 0.10365 0.33313 0.0
C107 C 0.60456 0.11917 0.28417 0.0
O108 O 0.59044 0.09755 0.28136 0.0
C109 C 0.42403 0.12408 0.29227 0.0
C110 C 0.40697 0.16361 0.29134 0.0
C111 C 0.39962 0.13812 0.28596 0.0
N112 N 0.44497 0.1407 0.30048 0.0
N113 N 0.43443 0.1642 0.30064 0.0
C114 C 0.42795 0.09579 0.28674 0.0
H115 H 0.45044 0.09118 0.28161 0.0
H116 H 0.41509 0.0888 0.26082 0.0
H117 H 0.42074 0.08573 0.31464 0.0
C118 C 0.53795 0.15275 0.21892 0.0
N119 N 0.53019 0.14358 0.25564 0.0
N120 N 0.50284 0.13996 0.25585 0.0
C121 C 0.4925 0.14563 0.21882 0.0
C122 C 0.5142 0.15455 0.19433 0.0
C123 C 0.56666 0.16314 0.21012 0.0
H124 H 0.57544 0.17236 0.23776 0.0
H125 H 0.58069 0.14699 0.20154 0.0
H126 H 0.56631 0.17734 0.18493 0.0
O127 O 0.54202 0.16894 0.3415 0.0
O128 O 0.49569 0.16457 0.34324 0.0
H129 H 0.45022 0.15964 0.22022 0.0
H130 H 0.45949 0.14326 0.17375 0.0
C131 C 0.46217 0.14328 0.20729 0.0
H132 H 0.4535 0.12514 0.21967 0.0
H133 H 0.44629 0.18079 0.30548 0.0
O134 O 0.59158 0.13963 0.29384 0.0
C135 C 0.51802 0.17603 0.35441 0.0
Co136 Co 0.4591 0.6421 0.19414 0.0
Co137 Co 0.52527 0.64125 0.19044 0.0
C138 C 0.49204 0.60035 0.15059 0.0
O139 O 0.46907 0.61079 0.16192 0.0
O140 O 0.51575 0.60994 0.16014 0.0
C141 C 0.40531 0.61978 0.21284 0.0
O142 O 0.41943 0.5981 0.21125 0.0
C143 C 0.58647 0.62896 0.19867 0.0
C144 C 0.6038 0.6682 0.19249 0.0
C145 C 0.61147 0.64274 0.19734 0.0
N146 N 0.565 0.64569 0.19471 0.0
N147 N 0.57563 0.66906 0.19125 0.0
C148 C 0.58317 0.60045 0.20186 0.0
H149 H 0.5618 0.59443 0.19251 0.0
H150 H 0.58649 0.59448 0.23392 0.0
H151 H 0.59921 0.59064 0.18288 0.0
C152 C 0.47255 0.65106 0.28137 0.0
N153 N 0.48019 0.64443 0.2433 0.0
N154 N 0.50771 0.64217 0.24185 0.0
C155 C 0.5184 0.64642 0.27911 0.0
C156 C 0.49659 0.65266 0.30544 0.0
C157 C 0.4434 0.65936 0.29247 0.0
H158 H 0.43369 0.66983 0.26664 0.0
H159 H 0.43047 0.64206 0.2988 0.0
H160 H 0.44327 0.67194 0.31968 0.0
O161 O 0.46624 0.67277 0.15978 0.0
O162 O 0.51285 0.67136 0.15842 0.0
H163 H 0.55962 0.66276 0.27666 0.0
H164 H 0.55277 0.64414 0.32213 0.0
C165 C 0.54911 0.64534 0.28884 0.0
H166 H 0.55857 0.62826 0.27417 0.0
H167 H 0.5636 0.68567 0.18758 0.0
O168 O 0.41817 0.64084 0.2066 0.0
C169 C 0.48978 0.68195 0.14841 0.0
Co170 Co 0.0531 0.36233 0.6936 0.0
Co171 Co 0.98721 0.35719 0.68914 0.0
C172 C 0.01714 0.40178 0.6515 0.0
O173 O 0.04095 0.39313 0.66284 0.0
O174 O 0.99439 0.39005 0.66025 0.0
C175 C 0.1076 0.38591 0.70615 0.0
O176 O 0.09415 0.40754 0.69929 0.0
C177 C 0.92694 0.36684 0.70624 0.0
C178 C 0.90948 0.32811 0.695 0.0
C179 C 0.90232 0.35258 0.7078 0.0
N180 N 0.94777 0.35132 0.69344 0.0
N181 N 0.93703 0.32836 0.68612 0.0
C182 C 0.93116 0.39392 0.72007 0.0
H183 H 0.95379 0.39777 0.72562 0.0
H184 H 0.91881 0.39763 0.74813 0.0
H185 H 0.92351 0.40718 0.69605 0.0
C186 C 0.04095 0.3539 0.78099 0.0
N187 N 0.0323 0.35858 0.74269 0.0
N188 N 0.00483 0.35592 0.74089 0.0
C189 C 0.99518 0.34882 0.77781 0.0
C190 C 0.01776 0.34737 0.80463 0.0
C191 C 0.07111 0.35413 0.79387 0.0
H192 H 0.08232 0.33793 0.77909 0.0
H193 H 0.08109 0.37227 0.78361 0.0
H194 H 0.07326 0.35257 0.8274 0.0
O195 O 0.04796 0.33169 0.65803 0.0
O196 O 0.00145 0.32873 0.65575 0.0
H197 H 0.96016 0.32535 0.76084 0.0
H198 H 0.96358 0.32934 0.81471 0.0
C199 C 0.96591 0.33918 0.78504 0.0
H200 H 0.95106 0.35558 0.78384 0.0
H201 H 0.94874 0.31254 0.67647 0.0
O202 O 0.09407 0.36483 0.70547 0.0
C203 C 0.02566 0.32057 0.64576 0.0
Co204 Co 0.45982 0.36191 0.80184 0.0
Co205 Co 0.52588 0.35973 0.80891 0.0
C206 C 0.49324 0.4028 0.84538 0.0
O207 O 0.47008 0.39322 0.8331 0.0
O208 O 0.51667 0.39202 0.8376 0.0
C209 C 0.40673 0.38463 0.77956 0.0
O210 O 0.42126 0.4061 0.77903 0.0
C211 C 0.58744 0.37036 0.80116 0.0
C212 C 0.60382 0.33131 0.81297 0.0
C213 C 0.61219 0.35627 0.8048 0.0
N214 N 0.56557 0.35429 0.80694 0.0
N215 N 0.57563 0.33102 0.81388 0.0
C216 C 0.58456 0.39862 0.79388 0.0
H217 H 0.56391 0.40564 0.80478 0.0
H218 H 0.58595 0.40243 0.76072 0.0
H219 H 0.60177 0.40925 0.80925 0.0
C220 C 0.4744 0.35226 0.71553 0.0
N221 N 0.48184 0.35862 0.75377 0.0
N222 N 0.50944 0.35825 0.75663 0.0
C223 C 0.52037 0.35168 0.72032 0.0
C224 C 0.49859 0.34763 0.69305 0.0
C225 C 0.4448 0.34674 0.70286 0.0
H226 H 0.43515 0.33299 0.72458 0.0
H227 H 0.43245 0.3648 0.70399 0.0
H228 H 0.44374 0.33874 0.67161 0.0
O229 O 0.46517 0.33151 0.8377 0.0
O230 O 0.51171 0.33073 0.84153 0.0
H231 H 0.55705 0.329 0.73132 0.0
H232 H 0.5552 0.34234 0.68056 0.0
C233 C 0.55082 0.34607 0.7132 0.0
H234 H 0.56361 0.36266 0.72334 0.0
H235 H 0.56321 0.31488 0.81948 0.0
O236 O 0.41915 0.36367 0.78807 0.0
C237 C 0.48784 0.32142 0.85071 0.0
Co238 Co 0.0525 0.64183 0.30599 0.0
Co239 Co 0.98642 0.64188 0.30666 0.0
C240 C 0.01763 0.59985 0.34648 0.0
O241 O 0.04097 0.6102 0.33648 0.0
O242 O 0.99423 0.60984 0.33629 0.0
C243 C 0.10606 0.61958 0.28549 0.0
O244 O 0.09132 0.59836 0.28179 0.0
C245 C 0.92575 0.6309 0.29259 0.0
C246 C 0.91005 0.67074 0.28675 0.0
C247 C 0.90185 0.64528 0.28423 0.0
N248 N 0.94719 0.64728 0.29916 0.0
N249 N 0.93747 0.67101 0.29635 0.0
C250 C 0.92881 0.60233 0.29049 0.0
H251 H 0.95106 0.59697 0.28495 0.0
H252 H 0.91522 0.59432 0.26615 0.0
H253 H 0.92208 0.59388 0.31994 0.0
C254 C 0.04139 0.65216 0.21836 0.0
N255 N 0.03282 0.64523 0.25593 0.0
N256 N 0.00529 0.64299 0.256 0.0
C257 C 0.99556 0.64733 0.21817 0.0
C258 C 0.01796 0.65388 0.19311 0.0
C259 C 0.0708 0.66038 0.20871 0.0
H260 H 0.08023 0.67018 0.23537 0.0
H261 H 0.0836 0.6431 0.20183 0.0
H262 H 0.07146 0.67352 0.18214 0.0
O263 O 0.04511 0.67205 0.34085 0.0
O264 O 0.99847 0.6714 0.34039 0.0
H265 H 0.95398 0.66295 0.21669 0.0
H266 H 0.96288 0.64381 0.17277 0.0
C267 C 0.96527 0.64553 0.20624 0.0
H268 H 0.95565 0.62845 0.22073 0.0
H269 H 0.94986 0.68744 0.29944 0.0
O270 O 0.09365 0.64025 0.29562 0.0
C271 C 0.02157 0.68145 0.35165 0.0
C272 C 0.01296 0.93031 0.89531 0.0
C273 C 0.98849 0.92024 0.87742 0.0
C274 C 0.01114 0.94866 0.92615 0.0
C275 C 0.96495 0.99679 0.9734 0.0
H276 H 0.01189 0.98495 0.06808 0.0
C277 C 0.95959 0.06273 0.11452 0.0
C278 C 0.98575 0.07052 0.13015 0.0
C279 C 0.95796 0.0427 0.08622 0.0
C280 C 0.99878 0.98865 0.04178 0.0
H281 H 0.94293 0.92257 0.87659 0.0
H282 H 0.93986 0.95478 0.93037 0.0
H283 H 0.01336 0.95483 0.01142 0.0
H284 H 0.03054 0.06249 0.1297 0.0
H285 H 0.02771 0.02798 0.08036 0.0
H286 H 0.9508 0.03092 0.00339 0.0
C287 C 0.96041 0.94835 0.92053 0.0
C288 C 0.99967 0.97141 0.0093 0.0
C289 C 0.9622 0.92986 0.88978 0.0
C290 C 0.01003 0.05706 0.1183 0.0
C291 C 0.0084 0.03712 0.09008 0.0
C292 C 0.96418 0.01415 0.00585 0.0
C293 C 0.98485 0.95748 0.93967 0.0
C294 C 0.98304 0.97547 0.97455 0.0
C295 C 0.98244 0.03002 0.07307 0.0
C296 C 0.98136 0.01044 0.0402 0.0
H297 H 0.03357 0.92348 0.88643 0.0
H298 H 0.03036 0.95573 0.93982 0.0
H299 H 0.95201 0.00046 0.94691 0.0
H300 H 0.94045 0.07262 0.12309 0.0
H301 H 0.93759 0.03741 0.07416 0.0
C302 C 0.54515 0.06357 0.38604 0.0
C303 C 0.51936 0.07196 0.36985 0.0
C304 C 0.54587 0.04427 0.41568 0.0
C305 C 0.50131 0.01651 0.49557 0.0
H306 H 0.55682 0.962 0.49826 0.0
C307 C 0.49408 0.93108 0.60685 0.0
C308 C 0.51913 0.92097 0.62294 0.0
C309 C 0.49483 0.95033 0.57723 0.0
C310 C 0.54143 0.97734 0.49828 0.0
H311 H 0.47426 0.06551 0.37045 0.0
H312 H 0.47564 0.03182 0.42178 0.0
H313 H 0.55682 0.99264 0.44195 0.0
H314 H 0.56463 0.92405 0.62174 0.0
H315 H 0.56586 0.95798 0.57058 0.0
H316 H 0.48598 0.00142 0.5519 0.0
C317 C 0.49522 0.04051 0.41213 0.0
C318 C 0.54139 0.99481 0.46593 0.0
C319 C 0.49449 0.05971 0.38246 0.0
C320 C 0.54492 0.93128 0.60985 0.0
C321 C 0.54566 0.95059 0.58026 0.0
C322 C 0.50143 -0.00086 0.52797 0.0
C323 C 0.52083 0.03303 0.42978 0.0
C324 C 0.52118 0.01446 0.46408 0.0
C325 C 0.52063 0.96002 0.56309 0.0
C326 C 0.52136 0.97923 0.52959 0.0
H327 H 0.56472 0.07255 0.37698 0.0
H328 H 0.56593 0.03893 0.42878 0.0
H329 H 0.48583 0.03178 0.49544 0.0
H330 H 0.47383 0.92359 0.61615 0.0
H331 H 0.47516 0.95697 0.5644 0.0
C332 C 0.51646 0.56664 0.10935 0.0
C333 C 0.49129 0.57797 0.12279 0.0
C334 C 0.5161 0.54756 0.07954 0.0
C335 C 0.47046 0.50063 0.02725 0.0
H336 H 0.52584 0.50682 0.94115 0.0
C337 C 0.46699 0.43649 0.88447 0.0
C338 C 0.4927 0.42561 0.8723 0.0
C339 C 0.46632 0.45608 0.91351 0.0
C340 C 0.51039 0.5047 0.96512 0.0
H341 H 0.44587 0.57728 0.1166 0.0
H342 H 0.4453 0.54401 0.0644 0.0
H343 H 0.52566 0.53778 0.99675 0.0
H344 H 0.53798 0.42756 0.87998 0.0
H345 H 0.53675 0.46158 0.93069 0.0
H346 H 0.45527 0.46748 0.99567 0.0
C347 C 0.46531 0.54986 0.07708 0.0
C348 C 0.51032 0.52239 0.99704 0.0
C349 C 0.46565 0.56898 0.10694 0.0
C350 C 0.51779 0.43548 0.88864 0.0
C351 C 0.51711 0.45507 0.91764 0.0
C352 C 0.47053 0.48292 0.99532 0.0
C353 C 0.49057 0.53933 0.06247 0.0
C354 C 0.49046 0.52048 0.02858 0.0
C355 C 0.49134 0.46526 0.93094 0.0
C356 C 0.49058 0.48469 0.96398 0.0
H357 H 0.53659 0.57293 0.1211 0.0
H358 H 0.53588 0.53943 0.06952 0.0
H359 H 0.45507 0.49849 0.05131 0.0
H360 H 0.44726 0.42946 0.87238 0.0
H361 H 0.44617 0.46386 0.92262 0.0
C362 C 0.99062 0.43315 0.60794 0.0
C363 C 0.01623 0.42454 0.6244 0.0
C364 C 0.99023 0.45264 0.57862 0.0
C365 C 0.03324 0.50471 0.53329 0.0
H366 H 0.98524 0.49425 0.43935 0.0
C367 C 0.04293 0.56772 0.39005 0.0
C368 C 0.01763 0.57713 0.37368 0.0
C369 C 0.04265 0.54838 0.41956 0.0
C370 C 0.99859 0.49755 0.46553 0.0
H371 H 0.06142 0.43044 0.62407 0.0
H372 H 0.06069 0.46418 0.57291 0.0
H373 H 0.98428 0.46333 0.49518 0.0
H374 H 0.97225 0.57265 0.37417 0.0
H375 H 0.97184 0.53897 0.42565 0.0
H376 H 0.04764 0.53885 0.50356 0.0
C377 C 0.04089 0.45602 0.5828 0.0
C378 C 0.99796 0.4799 0.4976 0.0
C379 C 0.0413 0.43657 0.61208 0.0
C380 C 0.99214 0.56592 0.38618 0.0
C381 C 0.99188 0.54653 0.41561 0.0
C382 C 0.0339 0.52232 0.50121 0.0
C383 C 0.01542 0.46396 0.56518 0.0
C384 C 0.01533 0.48325 0.53182 0.0
C385 C 0.01709 0.53793 0.43324 0.0
C386 C 0.01664 0.5189 0.46693 0.0
H387 H 0.97091 0.4244 0.61686 0.0
H388 H 0.97021 0.45864 0.56615 0.0
H389 H 0.04659 0.50804 0.55945 0.0
H390 H 0.06296 0.57581 0.38099 0.0
H391 H 0.06245 0.54181 0.43205 0.0
C392 C 0.35638 0.11062 0.29082 0.0
C393 C 0.37214 0.12951 0.27055 0.0
C394 C 0.32837 0.10606 0.27956 0.0
C395 C 0.27052 0.14161 0.23101 0.0
H396 H 0.23095 0.07644 0.22937 0.0
C397 C 0.16012 0.13693 0.16849 0.0
C398 C 0.13974 0.12628 0.19433 0.0
C399 C 0.18857 0.13258 0.17548 0.0
C400 C 0.24182 0.09473 0.22993 0.0
H401 H 0.37228 0.15682 0.22085 0.0
H402 H 0.32414 0.14827 0.20019 0.0
H403 H 0.28143 0.07748 0.24561 0.0
H404 H 0.13309 0.10174 0.24681 0.0
H405 H 0.18325 0.09406 0.2591 0.0
H406 H 0.23139 0.15895 0.21533 0.0
C407 C 0.33272 0.13762 0.22567 0.0
C408 C 0.27061 0.09535 0.23926 0.0
C409 C 0.36033 0.14243 0.23727 0.0
C410 C 0.14831 0.10985 0.22598 0.0
C411 C 0.177 0.10553 0.23311 0.0
C412 C 0.24207 0.14097 0.2215 0.0
C413 C 0.31599 0.12021 0.2477 0.0
C414 C 0.28534 0.11882 0.23924 0.0
C415 C 0.19736 0.11768 0.20876 0.0
C416 C 0.22747 0.11755 0.22024 0.0
H417 H 0.36515 0.10053 0.3167 0.0
H418 H 0.31604 0.09252 0.29712 0.0
H419 H 0.28091 0.16012 0.2321 0.0
H420 H 0.15408 0.1495 0.14367 0.0
H421 H 0.20381 0.14182 0.15581 0.0
C422 C 0.36091 0.85023 0.75906 0.0
C423 C 0.37345 0.86322 0.7264 0.0
C424 C 0.33314 0.85516 0.76968 0.0
C425 C 0.2719 0.89809 0.75618 0.0
H426 H 0.23159 0.83444 0.77557 0.0
C427 C 0.14925 0.8848 0.76942 0.0
C428 C 0.14066 0.8674 0.79972 0.0
C429 C 0.17796 0.88907 0.76231 0.0
C430 C 0.24257 0.85243 0.77065 0.0
H431 H 0.36744 0.89246 0.68031 0.0
H432 H 0.3181 0.90081 0.69838 0.0
H433 H 0.28119 0.83307 0.75922 0.0
H434 H 0.15493 0.84247 0.84832 0.0
H435 H 0.20469 0.85017 0.83643 0.0
H436 H 0.23252 0.91726 0.76721 0.0
C437 C 0.33002 0.88706 0.71612 0.0
C438 C 0.27104 0.85166 0.76133 0.0
C439 C 0.35818 0.8823 0.70577 0.0
C440 C 0.16102 0.8558 0.82454 0.0
C441 C 0.18948 0.86015 0.81765 0.0
C442 C 0.24308 0.89885 0.7654 0.0
C443 C 0.31699 0.87285 0.74735 0.0
C444 C 0.28625 0.87444 0.75487 0.0
C445 C 0.19829 0.87594 0.78542 0.0
C446 C 0.22835 0.87599 0.77356 0.0
H447 H 0.37242 0.83569 0.77583 0.0
H448 H 0.32398 0.84442 0.79464 0.0
H449 H 0.28307 0.91595 0.75114 0.0
H450 H 0.13399 0.89368 0.74946 0.0
H451 H 0.18423 0.90128 0.73719 0.0
C452 C 0.86086 0.90071 0.76528 0.0
C453 C 0.8751 0.87752 0.77284 0.0
C454 C 0.83187 0.90085 0.75824 0.0
C455 C 0.76771 0.86166 0.77394 0.0
H456 H 0.73585 0.90741 0.69295 0.0
C457 C 0.65165 0.85539 0.72267 0.0
C458 C 0.63708 0.87869 0.71756 0.0
C459 C 0.68064 0.8553 0.72961 0.0
C460 C 0.74439 0.89471 0.71597 0.0
H461 H 0.87007 0.83622 0.77829 0.0
H462 H 0.81964 0.83642 0.76542 0.0
H463 H 0.78652 0.90701 0.70406 0.0
H464 H 0.64159 0.92017 0.71589 0.0
H465 H 0.69218 0.91998 0.72805 0.0
H466 H 0.72556 0.84925 0.7856 0.0
C467 C 0.83076 0.85458 0.76567 0.0
C468 C 0.77345 0.89449 0.72237 0.0
C469 C 0.85973 0.85445 0.77282 0.0
C470 C 0.65216 0.90188 0.71964 0.0
C471 C 0.68119 0.90178 0.72636 0.0
C472 C 0.73867 0.86182 0.76742 0.0
C473 C 0.81642 0.87779 0.75846 0.0
C474 C 0.78549 0.87797 0.75146 0.0
C475 C 0.69577 0.87848 0.7314 0.0
C476 C 0.72666 0.87836 0.73838 0.0
H477 H 0.87203 0.91885 0.7652 0.0
H478 H 0.82149 0.91912 0.75332 0.0
H479 H 0.77617 0.84901 0.79708 0.0
H480 H 0.64067 0.83717 0.72129 0.0
H481 H 0.69129 0.83702 0.73296 0.0
C482 C 0.65009 0.14302 0.27596 0.0
C483 C 0.63529 0.11963 0.2767 0.0
C484 C 0.67914 0.14338 0.26935 0.0
C485 C 0.7377 0.10362 0.22905 0.0
H486 H 0.78428 0.15111 0.29 0.0
C487 C 0.8588 0.0969 0.22993 0.0
C488 C 0.87382 0.12002 0.22573 0.0
C489 C 0.82975 0.09716 0.23628 0.0
C490 C 0.77152 0.1379 0.27247 0.0
H491 H 0.63946 0.07827 0.27111 0.0
H492 H 0.69008 0.07885 0.26032 0.0
H493 H 0.73353 0.15094 0.30054 0.0
H494 H 0.87012 0.16158 0.2256 0.0
H495 H 0.81937 0.162 0.23683 0.0
H496 H 0.77577 0.09041 0.20135 0.0
C497 C 0.67923 0.09698 0.26413 0.0
C498 C 0.74241 0.13783 0.27843 0.0
C499 C 0.65018 0.09664 0.27056 0.0
C500 C 0.85918 0.14342 0.22864 0.0
C501 C 0.83012 0.14367 0.23529 0.0
C502 C 0.76681 0.10361 0.22327 0.0
C503 C 0.69411 0.12035 0.26346 0.0
C504 C 0.72511 0.12066 0.25684 0.0
C505 C 0.81505 0.12053 0.23888 0.0
C506 C 0.78407 0.12072 0.24495 0.0
H507 H 0.63924 0.16111 0.28034 0.0
H508 H 0.6898 0.16175 0.26842 0.0
H509 H 0.72503 0.09046 0.21133 0.0
H510 H 0.86941 0.07853 0.22791 0.0
H511 H 0.8188 0.07901 0.23945 0.0
C512 C 0.85853 0.61794 0.29107 0.0
C513 C 0.87399 0.63675 0.27009 0.0
C514 C 0.83035 0.61332 0.28077 0.0
C515 C 0.77178 0.64888 0.235 0.0
H516 H 0.73248 0.58361 0.23112 0.0
C517 C 0.66094 0.6453 0.17448 0.0
C518 C 0.64082 0.63373 0.19971 0.0
C519 C 0.68946 0.6409 0.18077 0.0
C520 C 0.74326 0.60193 0.23235 0.0
H521 H 0.87328 0.66387 0.22009 0.0
H522 H 0.82478 0.65535 0.20136 0.0
H523 H 0.78312 0.58457 0.2465 0.0
H524 H 0.63458 0.60752 0.2502 0.0
H525 H 0.68489 0.59986 0.26145 0.0
H526 H 0.73244 0.66636 0.221 0.0
C527 C 0.83382 0.64475 0.22655 0.0
C528 C 0.77214 0.60249 0.24117 0.0
C529 C 0.86162 0.64956 0.23712 0.0
C530 C 0.64966 0.61637 0.22991 0.0
C531 C 0.67842 0.61206 0.23643 0.0
C532 C 0.74324 0.64831 0.2261 0.0
C533 C 0.81749 0.62738 0.24923 0.0
C534 C 0.78674 0.62601 0.24183 0.0
C535 C 0.69855 0.62509 0.21283 0.0
C536 C 0.72873 0.62487 0.22395 0.0
H537 H 0.86768 0.60793 0.31676 0.0
H538 H 0.81829 0.59983 0.2988 0.0
H539 H 0.78215 0.66739 0.23661 0.0
H540 H 0.65465 0.65858 0.15075 0.0
H541 H 0.70451 0.6508 0.1616 0.0
C542 C 0.85995 0.38132 0.70938 0.0
C543 C 0.87457 0.35978 0.72404 0.0
C544 C 0.83186 0.38539 0.72068 0.0
C545 C 0.77143 0.34727 0.75762 0.0
H546 H 0.73526 0.41311 0.77559 0.0
C547 C 0.66219 0.35176 0.82486 0.0
C548 C 0.6419 0.36435 0.80108 0.0
C549 C 0.69071 0.3555 0.81755 0.0
C550 C 0.74519 0.39467 0.77041 0.0
H551 H 0.87248 0.3268 0.76407 0.0
H552 H 0.82427 0.3344 0.78522 0.0
H553 H 0.78575 0.4115 0.75964 0.0
H554 H 0.63571 0.39159 0.75188 0.0
H555 H 0.68599 0.39843 0.73947 0.0
H556 H 0.73131 0.33037 0.76901 0.0
C557 C 0.83375 0.34762 0.76377 0.0
C558 C 0.77399 0.39371 0.76121 0.0
C559 C 0.86145 0.34335 0.75196 0.0
C560 C 0.65078 0.38199 0.77127 0.0
C561 C 0.67954 0.38582 0.764 0.0
C562 C 0.74298 0.34823 0.76718 0.0
C563 C 0.81821 0.36808 0.7471 0.0
C564 C 0.78751 0.36991 0.75537 0.0
C565 C 0.69966 0.37189 0.78622 0.0
C566 C 0.72965 0.37183 0.77425 0.0
H567 H 0.8697 0.39415 0.68758 0.0
H568 H 0.8205 0.4013 0.70723 0.0
H569 H 0.78081 0.32866 0.7519 0.0
H570 H 0.656 0.33821 0.84827 0.0
H571 H 0.70584 0.34476 0.83542 0.0
C572 C 0.36058 0.36187 0.77145 0.0
C573 C 0.37614 0.38485 0.77095 0.0
C574 C 0.33162 0.36212 0.76426 0.0
C575 C 0.27475 0.40136 0.71905 0.0
H576 H 0.22641 0.35844 0.78552 0.0
C577 C 0.15355 0.40911 0.71357 0.0
C578 C 0.13824 0.38601 0.71435 0.0
C579 C 0.18254 0.40913 0.72068 0.0
C580 C 0.23963 0.37034 0.76638 0.0
H581 H 0.37342 0.4261 0.76214 0.0
H582 H 0.32287 0.42654 0.7499 0.0
H583 H 0.27702 0.3581 0.79699 0.0
H584 H 0.14142 0.3448 0.72348 0.0
H585 H 0.19195 0.34482 0.73551 0.0
H586 H 0.23735 0.41358 0.68842 0.0
C587 C 0.33312 0.40829 0.75546 0.0
C588 C 0.26866 0.37013 0.77295 0.0
C589 C 0.36209 0.40805 0.76269 0.0
C590 C 0.15255 0.36295 0.72267 0.0
C591 C 0.18152 0.36298 0.72982 0.0
C592 C 0.24571 0.40156 0.71247 0.0
C593 C 0.3175 0.38534 0.75634 0.0
C594 C 0.28659 0.38562 0.74934 0.0
C595 C 0.19689 0.38606 0.72881 0.0
C596 C 0.22779 0.38602 0.73603 0.0
H597 H 0.37074 0.34363 0.7775 0.0
H598 H 0.32032 0.34405 0.76456 0.0
H599 H 0.28798 0.41325 0.69993 0.0
H600 H 0.14319 0.42723 0.70737 0.0
H601 H 0.19366 0.42729 0.72021 0.0
C602 C 0.15218 0.64254 0.27856 0.0
C603 C 0.13678 0.61948 0.27795 0.0
C604 C 0.18118 0.64247 0.27165 0.0
C605 C 0.2385 0.60298 0.22759 0.0
H606 H 0.28637 0.64805 0.29099 0.0
C607 C 0.35981 0.59635 0.22334 0.0
C608 C 0.3747 0.61965 0.22123 0.0
C609 C 0.33083 0.59622 0.23053 0.0
C610 C 0.27326 0.63553 0.27277 0.0
H611 H 0.13986 0.57823 0.26961 0.0
H612 H 0.19047 0.57804 0.2582 0.0
H613 H 0.2358 0.64793 0.30295 0.0
H614 H 0.37082 0.66112 0.22547 0.0
H615 H 0.32028 0.66087 0.238 0.0
H616 H 0.27606 0.59046 0.19765 0.0
C617 C 0.18008 0.59626 0.26339 0.0
C618 C 0.24425 0.63548 0.27957 0.0
C619 C 0.15106 0.59635 0.27017 0.0
C620 C 0.35999 0.64282 0.22686 0.0
C621 C 0.33105 0.64269 0.23428 0.0
C622 C 0.26754 0.60295 0.22093 0.0
C623 C 0.19553 0.61932 0.26408 0.0
C624 C 0.22647 0.61924 0.257 0.0
C625 C 0.3161 0.61939 0.23604 0.0
C626 C 0.28525 0.61927 0.24338 0.0
H627 H 0.14183 0.66074 0.28419 0.0
H628 H 0.19229 0.66063 0.27177 0.0
H629 H 0.22544 0.59052 0.20919 0.0
H630 H 0.37048 0.57815 0.2192 0.0
H631 H 0.32 0.57794 0.23218 0.0
C632 C 0.03544 0.3132 0.85125 0.0
C633 C 0.01782 0.3344 0.84471 0.0
C634 C 0.03274 0.2984 0.8864 0.0
C635 C 0.99899 0.29513 0.9887 0.0
H636 H 0.0075 0.22191 0.97021 0.0
C637 C 0.96929 0.21261 0.10317 0.0
C638 C 0.99146 0.19525 0.11007 0.0
C639 C 0.97161 0.23149 0.0729 0.0
C640 C 0.00509 0.24232 0.97578 0.0
H641 H 0.98459 0.35765 0.87045 0.0
H642 H 0.97895 0.33112 0.93142 0.0
H643 H 0.01403 0.25167 0.91401 0.0
H644 H 0.03354 0.18436 0.09094 0.0
H645 H 0.03715 0.21676 0.03795 0.0
H646 H 0.9893 0.28521 0.05067 0.0
C647 C 0.99524 0.32616 0.90982 0.0
C648 C 0.00909 0.25944 0.94371 0.0
C649 C 0.99833 0.34128 0.87486 0.0
C650 C 0.01602 0.19736 0.08648 0.0
C651 C 0.01812 0.21586 0.05603 0.0
C652 C 0.99457 0.27785 0.0208 0.0
C653 C 0.01191 0.30409 0.91543 0.0
C654 C 0.00665 0.28611 0.94985 0.0
C655 C 0.99591 0.23294 0.04873 0.0
C656 C 0.99807 0.25135 0.01464 0.0
H657 H 0.05049 0.30732 0.82835 0.0
H658 H 0.0465 0.28199 0.89019 0.0
H659 H 0.99702 0.31553 0.99457 0.0
H660 H 0.95018 0.21154 0.121 0.0
H661 H 0.95419 0.24449 0.06763 0.0
C662 C 0.49586 0.77888 0.61894 0.0
C663 C 0.52013 0.79423 0.62042 0.0
C664 C 0.49372 0.75882 0.59094 0.0
C665 C 0.53518 0.72056 0.51548 0.0
H666 H 0.46263 0.71352 0.46276 0.0
C667 C 0.51941 0.68382 0.35266 0.0
C668 C 0.49929 0.66449 0.34621 0.0
C669 C 0.52212 0.6954 0.39064 0.0
C670 C 0.48287 0.71498 0.47768 0.0
H671 H 0.56148 0.80023 0.59454 0.0
H672 H 0.55739 0.76601 0.54447 0.0
H673 H 0.46745 0.74192 0.52119 0.0
H674 H 0.46587 0.64241 0.37413 0.0
H675 H 0.4698 0.6637 0.44074 0.0
H676 H 0.55079 0.69483 0.46983 0.0
C677 C 0.54025 0.76885 0.56566 0.0
C678 C 0.48569 0.73118 0.5113 0.0
C679 C 0.54258 0.78863 0.59421 0.0
C680 C 0.48155 0.65726 0.3784 0.0
C681 C 0.48386 0.6693 0.41636 0.0
C682 C 0.53242 0.70472 0.48143 0.0
C683 C 0.51558 0.75393 0.5632 0.0
C684 C 0.51202 0.73458 0.5302 0.0
C685 C 0.5043 0.68837 0.42274 0.0
C686 C 0.50635 0.70217 0.46187 0.0
H687 H 0.47834 0.78256 0.63918 0.0
H688 H 0.4747 0.74739 0.59072 0.0
H689 H 0.55561 0.72217 0.52973 0.0
H690 H 0.53276 0.69041 0.3281 0.0
H691 H 0.53762 0.71045 0.39459 0.0
C692 C 0.01649 0.7792 0.8779 0.0
C693 C 0.99179 0.79397 0.87639 0.0
C694 C 0.01925 0.75924 0.90602 0.0
C695 C 0.97922 0.72023 0.9822 0.0
H696 H 0.052 0.71569 0.03501 0.0
C697 C 0.99569 0.68516 0.14558 0.0
C698 C 0.01601 0.66606 0.15248 0.0
C699 C 0.99306 0.69662 0.10749 0.0
C700 C 0.03172 0.71644 0.02006 0.0
H701 H 0.95028 0.79898 0.90222 0.0
H702 H 0.95541 0.7649 0.9525 0.0
H703 H 0.04616 0.74352 0.97598 0.0
H704 H 0.05012 0.64451 0.12535 0.0
H705 H 0.04631 0.66563 0.05846 0.0
H706 H 0.96455 0.69438 0.02839 0.0
C707 C 0.97244 0.76813 0.93127 0.0
C708 C 0.02831 0.73232 0.98611 0.0
C709 C 0.9695 0.78781 0.90258 0.0
C710 C 0.03426 0.65915 0.12072 0.0
C711 C 0.03201 0.67109 0.0826 0.0
C712 C 0.98256 0.70471 0.01656 0.0
C713 C 0.99758 0.75389 0.93387 0.0
C714 C 0.00186 0.73483 0.96719 0.0
C715 C 0.01116 0.68972 0.07568 0.0
C716 C 0.0087 0.70308 0.03617 0.0
H717 H 0.0339 0.7833 0.85767 0.0
H718 H 0.03861 0.74831 0.90633 0.0
H719 H 0.95874 0.72115 0.96795 0.0
H720 H 0.98197 0.69154 0.16983 0.0
H721 H 0.97726 0.71137 0.10314 0.0
C722 C 0.50854 0.30648 0.65806 0.0
C723 C 0.50039 0.33231 0.65554 0.0
C724 C 0.51002 0.29145 0.62307 0.0
C725 C 0.51925 0.29349 0.51326 0.0
H726 H 0.48342 0.22653 0.51656 0.0
C727 C 0.5395 0.21085 0.39747 0.0
C728 C 0.51565 0.19724 0.38421 0.0
C729 C 0.53707 0.22965 0.42771 0.0
C730 C 0.49337 0.24524 0.51507 0.0
H731 H 0.48751 0.36301 0.61527 0.0
H732 H 0.49047 0.3366 0.55322 0.0
H733 H 0.47997 0.255 0.57523 0.0
H734 H 0.47041 0.19352 0.39125 0.0
H735 H 0.4664 0.226 0.44399 0.0
H736 H 0.53299 0.2834 0.45311 0.0
C737 C 0.49571 0.32807 0.58232 0.0
C738 C 0.49155 0.26143 0.54871 0.0
C739 C 0.4939 0.34307 0.61758 0.0
C740 C 0.48928 0.20343 0.4009 0.0
C741 C 0.48693 0.22201 0.43122 0.0
C742 C 0.52137 0.27709 0.47964 0.0
C743 C 0.50357 0.30206 0.5849 0.0
C744 C 0.50458 0.28563 0.54823 0.0
C745 C 0.51083 0.23499 0.4454 0.0
C746 C 0.50844 0.25281 0.48032 0.0
H747 H 0.51356 0.29788 0.68722 0.0
H748 H 0.51637 0.27152 0.62583 0.0
H749 H 0.5296 0.31202 0.5123 0.0
H750 H 0.56009 0.20663 0.38511 0.0
H751 H 0.55585 0.23933 0.4383 0.0
C752 C 0.53228 0.84011 0.87776 0.0
C753 C 0.5143 0.83322 0.84569 0.0
C754 C 0.52983 0.82805 0.91575 0.0
C755 C 0.48026 0.79345 0.98068 0.0
H756 H 0.54452 0.75605 0.02239 0.0
C757 C 0.46855 0.71021 0.0949 0.0
C758 C 0.49079 0.70468 0.12152 0.0
C759 C 0.47117 0.72986 0.06608 0.0
C760 C 0.52646 0.76684 0.01193 0.0
H761 H 0.48043 0.80775 0.82769 0.0
H762 H 0.47539 0.78764 0.89413 0.0
H763 H 0.55014 0.78403 0.9635 0.0
H764 H 0.53242 0.71642 0.14086 0.0
H765 H 0.53653 0.75134 0.09198 0.0
H766 H 0.45646 0.77644 0.02885 0.0
C767 C 0.49115 0.80247 0.89014 0.0
C768 C 0.52975 0.78281 0.97806 0.0
C769 C 0.49397 0.81408 0.85218 0.0
C770 C 0.51507 0.72003 0.12029 0.0
C771 C 0.51749 0.73995 0.09205 0.0
C772 C 0.47704 0.77783 0.01496 0.0
C773 C 0.50904 0.80928 0.92223 0.0
C774 C 0.50653 0.7957 0.96156 0.0
C775 C 0.49592 0.74469 0.06378 0.0
C776 C 0.49993 0.76375 0.0304 0.0
H777 H 0.54814 0.8548 0.87345 0.0
H778 H 0.54397 0.83347 0.9401 0.0
H779 H 0.46209 0.8034 0.96858 0.0
H780 H 0.44966 0.69859 0.09503 0.0
H781 H 0.45423 0.73262 0.04454 0.0
C782 C 0.05057 0.296 0.59109 0.0
C783 C 0.0274 0.29874 0.6172 0.0
C784 C 0.05009 0.27766 0.56002 0.0
C785 C 0.01611 0.21881 0.52289 0.0
H786 H 0.02688 0.24886 0.41606 0.0
C787 C 0.98656 0.16504 0.37433 0.0
C788 C 0.00344 0.16941 0.34002 0.0
C789 C 0.99076 0.1793 0.40996 0.0
C790 C 0.02435 0.2399 0.44558 0.0
H791 H 0.98648 0.28331 0.63321 0.0
H792 H 0.98597 0.251 0.57944 0.0
H793 H 0.03424 0.27498 0.47629 0.0
H794 H 0.03755 0.19239 0.31571 0.0
H795 H 0.04611 0.21588 0.37801 0.0
H796 H 0.00657 0.18358 0.49226 0.0
C797 C 0.00431 0.26316 0.58275 0.0
C798 C 0.02853 0.25496 0.4801 0.0
C799 C 0.00456 0.28175 0.61332 0.0
C800 C 0.02461 0.18815 0.34196 0.0
C801 C 0.02915 0.202 0.37758 0.0
C802 C 0.01236 0.20354 0.48828 0.0
C803 C 0.02669 0.26147 0.55509 0.0
C804 C 0.02431 0.24463 0.51903 0.0
C805 C 0.01211 0.19804 0.41196 0.0
C806 C 0.01631 0.21395 0.44912 0.0
H807 H 0.06842 0.30884 0.59335 0.0
H808 H 0.06767 0.27657 0.53914 0.0
H809 H 0.01271 0.21044 0.55269 0.0
H810 H 0.97006 0.15071 0.37352 0.0
H811 H 0.97695 0.17594 0.4356 0.0
C812 C 0.46379 0.29588 0.9051 0.0
C813 C 0.48691 0.29948 0.87917 0.0
C814 C 0.46495 0.27754 0.93618 0.0
C815 C 0.50076 0.21977 0.97355 0.0
H816 H 0.48898 0.2495 0.08029 0.0
C817 C 0.52865 0.1654 0.12269 0.0
C818 C 0.51095 0.16945 0.15622 0.0
C819 C 0.52523 0.17998 0.08713 0.0
C820 C 0.49183 0.24063 0.05079 0.0
H821 H 0.5285 0.28555 0.86344 0.0
H822 H 0.53021 0.25317 0.9172 0.0
H823 H 0.48136 0.27558 0.01999 0.0
H824 H 0.47638 0.1923 0.17938 0.0
H825 H 0.46921 0.2163 0.11723 0.0
H826 H 0.51075 0.18462 0.00426 0.0
C827 C 0.51138 0.26469 0.91377 0.0
C828 C 0.48751 0.25567 0.01624 0.0
C829 C 0.51044 0.28331 0.8832 0.0
C830 C 0.48992 0.18829 0.15368 0.0
C831 C 0.48617 0.20245 0.11817 0.0
C832 C 0.50463 0.20451 0.0082 0.0
C833 C 0.48901 0.26219 0.94127 0.0
C834 C 0.49197 0.24542 0.97735 0.0
C835 C 0.50391 0.19873 0.08449 0.0
C836 C 0.50022 0.21477 0.04731 0.0
H837 H 0.44542 0.30809 0.90273 0.0
H838 H 0.44738 0.27581 0.95698 0.0
H839 H 0.5044 0.2115 0.94377 0.0
H840 H 0.54508 0.15102 0.12402 0.0
H841 H 0.53955 0.17681 0.06203 0.0
C842 C 0.04317 0.70927 0.40531 0.0
C843 C 0.02066 0.7039 0.37909 0.0
C844 C 0.04101 0.72897 0.43404 0.0
C845 C 0.9869 0.76699 0.48872 0.0
H846 H 0.05226 0.80334 0.52926 0.0
C847 C 0.98261 0.84153 0.62029 0.0
C848 C 0.0006 0.83487 0.65249 0.0
C849 C 0.98504 0.82924 0.58256 0.0
C850 C 0.03382 0.79344 0.51796 0.0
H851 H 0.97891 0.71587 0.36059 0.0
H852 H 0.97558 0.75087 0.40938 0.0
H853 H 0.0568 0.77562 0.46975 0.0
H854 H 0.03477 0.80979 0.67078 0.0
H855 H 0.03981 0.7893 0.60465 0.0
H856 H 0.96403 0.78501 0.53712 0.0
C857 C 0.99451 0.73933 0.40901 0.0
C858 C 0.03642 0.77738 0.48412 0.0
C859 C 0.99648 0.71935 0.38082 0.0
C860 C 0.0212 0.81595 0.6462 0.0
C861 C 0.02401 0.8041 0.60842 0.0
C862 C 0.98424 0.78339 0.52213 0.0
C863 C 0.01647 0.74403 0.43668 0.0
C864 C 0.01314 0.76341 0.46968 0.0
C865 C 0.00584 0.81047 0.57638 0.0
C866 C 0.00781 0.79624 0.53761 0.0
H867 H 0.06201 0.69758 0.40481 0.0
H868 H 0.05821 0.73167 0.45516 0.0
H869 H 0.96857 0.75629 0.47905 0.0
H870 H 0.96656 0.85607 0.62443 0.0
H871 H 0.97074 0.83437 0.55823 0.0
loop_
_geom_bond_atom_site_label_1
_geom_bond_atom_site_label_2
_geom_bond_distance
_geom_bond_site_symmetry_2
_ccdc_geom_bond_type
Co0 O3 1.970 . S
Co0 N17 1.989 . S
Co0 O25 1.967 . S
Co0 O32 1.920 . S
Co1 O4 1.966 . S
Co1 N10 2.022 . S
Co1 N18 1.993 . S
Co1 O26 1.941 . S
C2 O3 1.258 1_455 S
C2 O4 1.263 . S
O3 Co0 1.970 . S
O3 C2 1.258 1_655 S
O4 Co1 1.966 . S
O4 C2 1.263 . S
C5 O6 1.235 . S
C5 O32 1.289 . S
O6 C5 1.235 . S
C7 C9 1.400 . S
C7 N10 1.351 . S
C7 C12 1.501 . S
C8 C9 1.387 . S
C8 N11 1.341 . S
C9 C7 1.400 . S
C9 C8 1.387 . S
N10 Co1 2.022 . S
N10 C7 1.351 . S
N10 N11 1.365 . S
N11 C8 1.341 . S
N11 N10 1.365 . S
N11 H31 0.862 . S
C12 C7 1.501 . S
C12 H13 0.961 . S
C12 H14 0.961 . S
C12 H15 0.960 . S
H13 C12 0.961 . S
H14 C12 0.961 . S
H15 C12 0.960 . S
C16 N17 1.342 . S
C16 C20 1.401 1_655 S
C16 C21 1.499 . S
N17 Co0 1.989 . S
N17 C16 1.342 . S
N17 N18 1.388 1_655 S
N18 Co1 1.993 . S
N18 N17 1.388 1_455 S
N18 C19 1.346 . S
C19 N18 1.346 . S
C19 C20 1.396 . S
C19 C29 1.510 . S
C20 C16 1.401 1_455 S
C20 C19 1.396 . S
C21 C16 1.499 . S
C21 H22 0.959 . S
C21 H23 0.960 . S
C21 H24 0.961 . S
H22 C21 0.959 . S
H23 C21 0.960 . S
H24 C21 0.961 . S
O25 Co0 1.967 . S
O25 C33 1.260 1_655 S
O26 Co1 1.941 . S
O26 C33 1.263 . S
H27 C29 0.959 . S
H28 C29 0.961 . S
C29 C19 1.510 . S
C29 H27 0.959 . S
C29 H28 0.961 . S
C29 H30 0.960 . S
H30 C29 0.960 . S
H31 N11 0.862 . S
O32 Co0 1.920 . S
O32 C5 1.289 . S
C33 O25 1.260 1_455 S
C33 O26 1.263 . S
Co34 O37 1.970 . S
Co34 N51 1.989 . S
Co34 O59 1.967 . S
Co34 O66 1.920 . S
Co35 O38 1.966 . S
Co35 N44 2.022 . S
Co35 N52 1.993 . S
Co35 O60 1.941 . S
C36 O37 1.258 . S
C36 O38 1.263 . S
O37 Co34 1.970 . S
O37 C36 1.258 . S
O38 Co35 1.966 . S
O38 C36 1.263 . S
C39 O40 1.235 . S
C39 O66 1.289 . S
O40 C39 1.235 . S
C41 C43 1.400 . S
C41 N44 1.351 . S
C41 C46 1.501 . S
C42 C43 1.387 . S
C42 N45 1.341 . S
C43 C41 1.400 . S
C43 C42 1.387 . S
N44 Co35 2.022 . S
N44 C41 1.351 . S
N44 N45 1.365 . S
N45 C42 1.341 . S
N45 N44 1.365 . S
N45 H65 0.862 . S
C46 C41 1.501 . S
C46 H47 0.961 . S
C46 H48 0.961 . S
C46 H49 0.960 . S
H47 C46 0.961 . S
H48 C46 0.961 . S
H49 C46 0.960 . S
C50 N51 1.342 . S
C50 C54 1.401 . S
C50 C55 1.499 . S
N51 Co34 1.989 . S
N51 C50 1.342 . S
N51 N52 1.388 . S
N52 Co35 1.993 . S
N52 N51 1.388 . S
N52 C53 1.346 . S
C53 N52 1.346 . S
C53 C54 1.396 . S
C53 C63 1.510 . S
C54 C50 1.401 . S
C54 C53 1.396 . S
C55 C50 1.499 . S
C55 H56 0.959 . S
C55 H57 0.960 . S
C55 H58 0.961 . S
H56 C55 0.959 . S
H57 C55 0.960 . S
H58 C55 0.961 . S
O59 Co34 1.967 . S
O59 C67 1.258 . S
O60 Co35 1.941 . S
O60 C67 1.266 . S
H61 C63 0.959 . S
H62 C63 0.961 . S
C63 C53 1.510 . S
C63 H61 0.959 . S
C63 H62 0.961 . S
C63 H64 0.960 . S
H64 C63 0.960 . S
H65 N45 0.862 . S
O66 Co34 1.920 . S
O66 C39 1.289 . S
C67 O59 1.258 . S
C67 O60 1.266 . S
Co68 O71 1.970 . S
Co68 N85 1.989 . S
Co68 O93 1.967 . S
Co68 O100 1.920 . S
Co69 O72 1.966 . S
Co69 N78 2.022 . S
Co69 N86 1.993 . S
Co69 O94 1.941 . S
C70 O71 1.258 1_455 S
C70 O72 1.263 . S
O71 Co68 1.970 . S
O71 C70 1.258 1_655 S
O72 Co69 1.966 . S
O72 C70 1.263 . S
C73 O74 1.235 . S
C73 O100 1.289 . S
O74 C73 1.235 . S
C75 C77 1.400 . S
C75 N78 1.351 . S
C75 C80 1.501 . S
C76 C77 1.387 . S
C76 N79 1.341 . S
C77 C75 1.400 . S
C77 C76 1.387 . S
N78 Co69 2.022 . S
N78 C75 1.351 . S
N78 N79 1.365 . S
N79 C76 1.341 . S
N79 N78 1.365 . S
N79 H99 0.862 . S
C80 C75 1.501 . S
C80 H81 0.961 . S
C80 H82 0.961 . S
C80 H83 0.960 . S
H81 C80 0.961 . S
H82 C80 0.961 . S
H83 C80 0.960 . S
C84 N85 1.342 . S
C84 C88 1.401 1_655 S
C84 C89 1.499 . S
N85 Co68 1.989 . S
N85 C84 1.342 . S
N85 N86 1.388 1_655 S
N86 Co69 1.993 . S
N86 N85 1.388 1_455 S
N86 C87 1.346 . S
C87 N86 1.346 . S
C87 C88 1.396 . S
C87 C97 1.510 . S
C88 C84 1.401 1_455 S
C88 C87 1.396 . S
C89 C84 1.499 . S
C89 H90 0.959 . S
C89 H91 0.960 . S
C89 H92 0.961 . S
H90 C89 0.959 . S
H91 C89 0.960 . S
H92 C89 0.961 . S
O93 Co68 1.967 . S
O93 C101 1.260 1_655 S
O94 Co69 1.941 . S
O94 C101 1.263 . S
H95 C97 0.959 . S
H96 C97 0.961 . S
C97 C87 1.510 . S
C97 H95 0.959 . S
C97 H96 0.961 . S
C97 H98 0.960 . S
H98 C97 0.960 . S
H99 N79 0.862 . S
O100 Co68 1.920 . S
O100 C73 1.289 . S
C101 O93 1.260 1_455 S
C101 O94 1.263 . S
Co102 O105 1.970 . S
Co102 N119 1.989 . S
Co102 O127 1.967 . S
Co102 O134 1.920 . S
Co103 O106 1.966 . S
Co103 N112 2.022 . S
Co103 N120 1.993 . S
Co103 O128 1.941 . S
C104 O105 1.258 . S
C104 O106 1.263 . S
O105 Co102 1.970 . S
O105 C104 1.258 . S
O106 Co103 1.966 . S
O106 C104 1.263 . S
C107 O108 1.235 . S
C107 O134 1.289 . S
O108 C107 1.235 . S
C109 C111 1.400 . S
C109 N112 1.351 . S
C109 C114 1.501 . S
C110 C111 1.387 . S
C110 N113 1.341 . S
C111 C109 1.400 . S
C111 C110 1.387 . S
N112 Co103 2.022 . S
N112 C109 1.351 . S
N112 N113 1.365 . S
N113 C110 1.341 . S
N113 N112 1.365 . S
N113 H133 0.862 . S
C114 C109 1.501 . S
C114 H115 0.961 . S
C114 H116 0.961 . S
C114 H117 0.960 . S
H115 C114 0.961 . S
H116 C114 0.961 . S
H117 C114 0.960 . S
C118 N119 1.342 . S
C118 C122 1.401 . S
C118 C123 1.499 . S
N119 Co102 1.989 . S
N119 C118 1.342 . S
N119 N120 1.388 . S
N120 Co103 1.993 . S
N120 N119 1.388 . S
N120 C121 1.346 . S
C121 N120 1.346 . S
C121 C122 1.396 . S
C121 C131 1.510 . S
C122 C118 1.401 . S
C122 C121 1.396 . S
C123 C118 1.499 . S
C123 H124 0.959 . S
C123 H125 0.960 . S
C123 H126 0.961 . S
H124 C123 0.959 . S
H125 C123 0.960 . S
H126 C123 0.961 . S
O127 Co102 1.967 . S
O127 C135 1.258 . S
O128 Co103 1.941 . S
O128 C135 1.266 . S
H129 C131 0.959 . S
H130 C131 0.961 . S
C131 C121 1.510 . S
C131 H129 0.959 . S
C131 H130 0.961 . S
C131 H132 0.960 . S
H132 C131 0.960 . S
H133 N113 0.862 . S
O134 Co102 1.920 . S
O134 C107 1.289 . S
C135 O127 1.258 . S
C135 O128 1.266 . S
Co136 O139 1.970 . S
Co136 N153 1.989 . S
Co136 O161 1.967 . S
Co136 O168 1.920 . S
Co137 O140 1.966 . S
Co137 N146 2.022 . S
Co137 N154 1.993 . S
Co137 O162 1.941 . S
C138 O139 1.258 . S
C138 O140 1.263 . S
O139 Co136 1.970 . S
O139 C138 1.258 . S
O140 Co137 1.966 . S
O140 C138 1.263 . S
C141 O142 1.235 . S
C141 O168 1.289 . S
O142 C141 1.235 . S
C143 C145 1.400 . S
C143 N146 1.351 . S
C143 C148 1.501 . S
C144 C145 1.387 . S
C144 N147 1.341 . S
C145 C143 1.400 . S
C145 C144 1.387 . S
N146 Co137 2.022 . S
N146 C143 1.351 . S
N146 N147 1.365 . S
N147 C144 1.341 . S
N147 N146 1.365 . S
N147 H167 0.862 . S
C148 C143 1.501 . S
C148 H149 0.961 . S
C148 H150 0.961 . S
C148 H151 0.960 . S
H149 C148 0.961 . S
H150 C148 0.961 . S
H151 C148 0.960 . S
C152 N153 1.342 . S
C152 C156 1.401 . S
C152 C157 1.499 . S
N153 Co136 1.989 . S
N153 C152 1.342 . S
N153 N154 1.388 . S
N154 Co137 1.993 . S
N154 N153 1.388 . S
N154 C155 1.346 . S
C155 N154 1.346 . S
C155 C156 1.396 . S
C155 C165 1.510 . S
C156 C152 1.401 . S
C156 C155 1.396 . S
C157 C152 1.499 . S
C157 H158 0.959 . S
C157 H159 0.960 . S
C157 H160 0.961 . S
H158 C157 0.959 . S
H159 C157 0.960 . S
H160 C157 0.961 . S
O161 Co136 1.967 . S
O161 C169 1.258 . S
O162 Co137 1.941 . S
O162 C169 1.266 . S
H163 C165 0.959 . S
H164 C165 0.961 . S
C165 C155 1.510 . S
C165 H163 0.959 . S
C165 H164 0.961 . S
C165 H166 0.960 . S
H166 C165 0.960 . S
H167 N147 0.862 . S
O168 Co136 1.920 . S
O168 C141 1.289 . S
C169 O161 1.258 . S
C169 O162 1.266 . S
Co170 O173 1.970 . S
Co170 N187 1.989 . S
Co170 O195 1.967 . S
Co170 O202 1.920 . S
Co171 O174 1.966 . S
Co171 N180 2.022 . S
Co171 N188 1.993 . S
Co171 O196 1.941 . S
C172 O173 1.258 . S
C172 O174 1.263 1_455 S
O173 Co170 1.970 . S
O173 C172 1.258 . S
O174 Co171 1.966 . S
O174 C172 1.263 1_655 S
C175 O176 1.235 . S
C175 O202 1.289 . S
O176 C175 1.235 . S
C177 C179 1.400 . S
C177 N180 1.351 . S
C177 C182 1.501 . S
C178 C179 1.387 . S
C178 N181 1.341 . S
C179 C177 1.400 . S
C179 C178 1.387 . S
N180 Co171 2.022 . S
N180 C177 1.351 . S
N180 N181 1.365 . S
N181 C178 1.341 . S
N181 N180 1.365 . S
N181 H201 0.862 . S
C182 C177 1.501 . S
C182 H183 0.961 . S
C182 H184 0.961 . S
C182 H185 0.960 . S
H183 C182 0.961 . S
H184 C182 0.961 . S
H185 C182 0.960 . S
C186 N187 1.342 . S
C186 C190 1.401 . S
C186 C191 1.499 . S
N187 Co170 1.989 . S
N187 C186 1.342 . S
N187 N188 1.388 1_455 S
N188 Co171 1.993 . S
N188 N187 1.388 1_655 S
N188 C189 1.346 . S
C189 N188 1.346 . S
C189 C190 1.396 1_655 S
C189 C199 1.510 . S
C190 C186 1.401 . S
C190 C189 1.396 1_455 S
C191 C186 1.499 . S
C191 H192 0.959 . S
C191 H193 0.960 . S
C191 H194 0.961 . S
H192 C191 0.959 . S
H193 C191 0.960 . S
H194 C191 0.961 . S
O195 Co170 1.967 . S
O195 C203 1.258 . S
O196 Co171 1.941 . S
O196 C203 1.266 1_655 S
H197 C199 0.959 . S
H198 C199 0.961 . S
C199 C189 1.510 . S
C199 H197 0.959 . S
C199 H198 0.961 . S
C199 H200 0.960 . S
H200 C199 0.960 . S
H201 N181 0.862 . S
O202 Co170 1.920 . S
O202 C175 1.289 . S
C203 O195 1.258 . S
C203 O196 1.266 1_455 S
Co204 O207 1.970 . S
Co204 N221 1.989 . S
Co204 O229 1.967 . S
Co204 O236 1.920 . S
Co205 O208 1.966 . S
Co205 N214 2.022 . S
Co205 N222 1.993 . S
Co205 O230 1.941 . S
C206 O207 1.258 . S
C206 O208 1.263 . S
O207 Co204 1.970 . S
O207 C206 1.258 . S
O208 Co205 1.966 . S
O208 C206 1.263 . S
C209 O210 1.235 . S
C209 O236 1.289 . S
O210 C209 1.235 . S
C211 C213 1.400 . S
C211 N214 1.351 . S
C211 C216 1.501 . S
C212 C213 1.387 . S
C212 N215 1.341 . S
C213 C211 1.400 . S
C213 C212 1.387 . S
N214 Co205 2.022 . S
N214 C211 1.351 . S
N214 N215 1.365 . S
N215 C212 1.341 . S
N215 N214 1.365 . S
N215 H235 0.862 . S
C216 C211 1.501 . S
C216 H217 0.961 . S
C216 H218 0.961 . S
C216 H219 0.960 . S
H217 C216 0.961 . S
H218 C216 0.961 . S
H219 C216 0.960 . S
C220 N221 1.342 . S
C220 C224 1.401 . S
C220 C225 1.499 . S
N221 Co204 1.989 . S
N221 C220 1.342 . S
N221 N222 1.388 . S
N222 Co205 1.993 . S
N222 N221 1.388 . S
N222 C223 1.346 . S
C223 N222 1.346 . S
C223 C224 1.396 . S
C223 C233 1.510 . S
C224 C220 1.401 . S
C224 C223 1.396 . S
C225 C220 1.499 . S
C225 H226 0.959 . S
C225 H227 0.960 . S
C225 H228 0.961 . S
H226 C225 0.959 . S
H227 C225 0.960 . S
H228 C225 0.961 . S
O229 Co204 1.967 . S
O229 C237 1.258 . S
O230 Co205 1.941 . S
O230 C237 1.266 . S
H231 C233 0.959 . S
H232 C233 0.961 . S
C233 C223 1.510 . S
C233 H231 0.959 . S
C233 H232 0.961 . S
C233 H234 0.960 . S
H234 C233 0.960 . S
H235 N215 0.862 . S
O236 Co204 1.920 . S
O236 C209 1.289 . S
C237 O229 1.258 . S
C237 O230 1.266 . S
Co238 O241 1.970 . S
Co238 N255 1.989 . S
Co238 O263 1.967 . S
Co238 O270 1.920 . S
Co239 O242 1.966 . S
Co239 N248 2.022 . S
Co239 N256 1.993 . S
Co239 O264 1.941 . S
C240 O241 1.258 . S
C240 O242 1.263 1_455 S
O241 Co238 1.970 . S
O241 C240 1.258 . S
O242 Co239 1.966 . S
O242 C240 1.263 1_655 S
C243 O244 1.235 . S
C243 O270 1.289 . S
O244 C243 1.235 . S
C245 C247 1.400 . S
C245 N248 1.351 . S
C245 C250 1.501 . S
C246 C247 1.387 . S
C246 N249 1.341 . S
C247 C245 1.400 . S
C247 C246 1.387 . S
N248 Co239 2.022 . S
N248 C245 1.351 . S
N248 N249 1.365 . S
N249 C246 1.341 . S
N249 N248 1.365 . S
N249 H269 0.862 . S
C250 C245 1.501 . S
C250 H251 0.961 . S
C250 H252 0.961 . S
C250 H253 0.960 . S
H251 C250 0.961 . S
H252 C250 0.961 . S
H253 C250 0.960 . S
C254 N255 1.342 . S
C254 C258 1.401 . S
C254 C259 1.499 . S
N255 Co238 1.989 . S
N255 C254 1.342 . S
N255 N256 1.388 1_455 S
N256 Co239 1.993 . S
N256 N255 1.388 1_655 S
N256 C257 1.346 . S
C257 N256 1.346 . S
C257 C258 1.396 1_655 S
C257 C267 1.510 . S
C258 C254 1.401 . S
C258 C257 1.396 1_455 S
C259 C254 1.499 . S
C259 H260 0.959 . S
C259 H261 0.960 . S
C259 H262 0.961 . S
H260 C259 0.959 . S
H261 C259 0.960 . S
H262 C259 0.961 . S
O263 Co238 1.967 . S
O263 C271 1.258 . S
O264 Co239 1.941 . S
O264 C271 1.266 1_655 S
H265 C267 0.959 . S
H266 C267 0.961 . S
C267 C257 1.510 . S
C267 H265 0.959 . S
C267 H266 0.961 . S
C267 H268 0.960 . S
H268 C267 0.960 . S
H269 N249 0.862 . S
O270 Co238 1.920 . S
O270 C243 1.289 . S
C271 O263 1.258 . S
C271 O264 1.266 1_455 S
C272 C273 1.349 . S
C272 C274 1.327 . S
C272 H297 0.950 . S
C273 C272 1.349 . S
C273 C289 1.349 1_455 S
C274 C272 1.327 . S
C274 C293 1.429 . S
C274 H298 0.950 . S
C275 C292 1.574 . S
C275 C294 1.368 1_645 S
C275 H299 0.949 . S
H276 C280 0.949 . S
C277 C278 1.349 1_655 S
C277 C279 1.327 . S
C277 H300 0.950 . S
C278 C277 1.349 1_455 S
C278 C290 1.349 . S
C279 C277 1.327 . S
C279 C295 1.429 1_655 S
C279 H301 0.950 . S
C280 H276 0.949 . S
C280 C288 1.574 . S
C280 C296 1.368 1_565 S
H281 C289 0.950 . S
H282 C287 0.950 . S
H283 C288 0.949 . S
H284 C290 0.950 . S
H285 C291 0.950 . S
H286 C292 0.949 . S
C287 H282 0.950 . S
C287 C289 1.327 . S
C287 C293 1.429 1_655 S
C288 C280 1.574 . S
C288 H283 0.949 . S
C288 C294 1.368 1_554 S
C289 C273 1.349 1_655 S
C289 H281 0.950 . S
C289 C287 1.327 . S
C290 C278 1.349 . S
C290 H284 0.950 . S
C290 C291 1.327 . S
C291 H285 0.950 . S
C291 C290 1.327 . S
C291 C295 1.429 . S
C292 C275 1.574 . S
C292 H286 0.949 . S
C292 C296 1.368 1_656 S
C293 C274 1.429 . S
C293 C287 1.429 1_455 S
C293 C294 1.523 . S
C294 C275 1.368 1_465 S
C294 C288 1.368 1_556 S
C294 C293 1.523 . S
C295 C279 1.429 1_455 S
C295 C291 1.429 . S
C295 C296 1.523 . S
C296 C280 1.368 1_545 S
C296 C292 1.368 1_454 S
C296 C295 1.523 . S
H297 C272 0.950 . S
H298 C274 0.950 . S
H299 C275 0.949 . S
H300 C277 0.950 . S
H301 C279 0.950 . S
C302 C303 1.349 . S
C302 C304 1.327 . S
C302 H327 0.950 . S
C303 C302 1.349 . S
C303 C319 1.349 . S
C304 C302 1.327 . S
C304 C323 1.429 . S
C304 H328 0.950 . S
C305 C322 1.574 . S
C305 C324 1.368 . S
C305 H329 0.949 . S
H306 C310 0.949 . S
C307 C308 1.349 . S
C307 C309 1.327 . S
C307 H330 0.950 . S
C308 C307 1.349 . S
C308 C320 1.349 . S
C309 C307 1.327 . S
C309 C325 1.429 . S
C309 H331 0.950 . S
C310 H306 0.949 . S
C310 C318 1.574 . S
C310 C326 1.368 . S
H311 C319 0.950 . S
H312 C317 0.950 . S
H313 C318 0.949 . S
H314 C320 0.950 . S
H315 C321 0.950 . S
H316 C322 0.949 . S
C317 H312 0.950 . S
C317 C319 1.327 . S
C317 C323 1.429 . S
C318 C310 1.574 . S
C318 H313 0.949 . S
C318 C324 1.368 1_565 S
C319 C303 1.349 . S
C319 H311 0.950 . S
C319 C317 1.327 . S
C320 C308 1.349 . S
C320 H314 0.950 . S
C320 C321 1.327 . S
C321 H315 0.950 . S
C321 C320 1.327 . S
C321 C325 1.429 . S
C322 C305 1.574 . S
C322 H316 0.949 . S
C322 C326 1.368 1_545 S
C323 C304 1.429 . S
C323 C317 1.429 . S
C323 C324 1.523 . S
C324 C305 1.368 . S
C324 C318 1.368 1_545 S
C324 C323 1.523 . S
C325 C309 1.429 . S
C325 C321 1.429 . S
C325 C326 1.523 . S
C326 C310 1.368 . S
C326 C322 1.368 1_565 S
C326 C325 1.523 . S
H327 C302 0.950 . S
H328 C304 0.950 . S
H329 C305 0.949 . S
H330 C307 0.950 . S
H331 C309 0.950 . S
C332 C333 1.349 . S
C332 C334 1.327 . S
C332 H357 0.950 . S
C333 C332 1.349 . S
C333 C349 1.349 . S
C334 C332 1.327 . S
C334 C353 1.429 . S
C334 H358 0.950 . S
C335 C352 1.574 . S
C335 C354 1.368 . S
C335 H359 0.949 . S
H336 C340 0.949 . S
C337 C338 1.349 . S
C337 C339 1.327 . S
C337 H360 0.950 . S
C338 C337 1.349 . S
C338 C350 1.349 . S
C339 C337 1.327 . S
C339 C355 1.429 . S
C339 H361 0.950 . S
C340 H336 0.949 . S
C340 C348 1.574 . S
C340 C356 1.368 . S
H341 C349 0.950 . S
H342 C347 0.950 . S
H343 C348 0.949 . S
H344 C350 0.950 . S
H345 C351 0.950 . S
H346 C352 0.949 . S
C347 H342 0.950 . S
C347 C349 1.327 . S
C347 C353 1.429 . S
C348 C340 1.574 . S
C348 H343 0.949 . S
C348 C354 1.368 1_556 S
C349 C333 1.349 . S
C349 H341 0.950 . S
C349 C347 1.327 . S
C350 C338 1.349 . S
C350 H344 0.950 . S
C350 C351 1.327 . S
C351 H345 0.950 . S
C351 C350 1.327 . S
C351 C355 1.429 . S
C352 C335 1.574 . S
C352 H346 0.949 . S
C352 C356 1.368 1_554 S
C353 C334 1.429 . S
C353 C347 1.429 . S
C353 C354 1.523 . S
C354 C335 1.368 . S
C354 C348 1.368 1_554 S
C354 C353 1.523 . S
C355 C339 1.429 . S
C355 C351 1.429 . S
C355 C356 1.523 . S
C356 C340 1.368 . S
C356 C352 1.368 1_556 S
C356 C355 1.523 . S
H357 C332 0.950 . S
H358 C334 0.950 . S
H359 C335 0.949 . S
H360 C337 0.950 . S
H361 C339 0.950 . S
C362 C363 1.349 1_655 S
C362 C364 1.327 . S
C362 H387 0.950 . S
C363 C362 1.349 1_455 S
C363 C379 1.349 . S
C364 C362 1.327 . S
C364 C383 1.429 1_655 S
C364 H388 0.950 . S
C365 C382 1.574 . S
C365 C384 1.368 . S
C365 H389 0.949 . S
H366 C370 0.949 . S
C367 C368 1.349 . S
C367 C369 1.327 . S
C367 H390 0.950 . S
C368 C367 1.349 . S
C368 C380 1.349 1_455 S
C369 C367 1.327 . S
C369 C385 1.429 . S
C369 H391 0.950 . S
C370 H366 0.949 . S
C370 C378 1.574 . S
C370 C386 1.368 1_655 S
H371 C379 0.950 . S
H372 C377 0.950 . S
H373 C378 0.949 . S
H374 C380 0.950 . S
H375 C381 0.950 . S
H376 C382 0.949 . S
C377 H372 0.950 . S
C377 C379 1.327 . S
C377 C383 1.429 . S
C378 C370 1.574 . S
C378 H373 0.949 . S
C378 C384 1.368 1_655 S
C379 C363 1.349 . S
C379 H371 0.950 . S
C379 C377 1.327 . S
C380 C368 1.349 1_655 S
C380 H374 0.950 . S
C380 C381 1.327 . S
C381 H375 0.950 . S
C381 C380 1.327 . S
C381 C385 1.429 1_655 S
C382 C365 1.574 . S
C382 H376 0.949 . S
C382 C386 1.368 . S
C383 C364 1.429 1_455 S
C383 C377 1.429 . S
C383 C384 1.523 . S
C384 C365 1.368 . S
C384 C378 1.368 1_455 S
C384 C383 1.523 . S
C385 C369 1.429 . S
C385 C381 1.429 1_455 S
C385 C386 1.523 . S
C386 C370 1.368 1_455 S
C386 C382 1.368 . S
C386 C385 1.523 . S
H387 C362 0.950 . S
H388 C364 0.950 . S
H389 C365 0.949 . S
H390 C367 0.950 . S
H391 C369 0.950 . S
C392 C393 1.349 . S
C392 C394 1.327 . S
C392 H417 0.950 . S
C393 C392 1.349 . S
C393 C409 1.349 . S
C394 C392 1.327 . S
C394 C413 1.429 . S
C394 H418 0.950 . S
C395 C412 1.574 . S
C395 C414 1.368 . S
C395 H419 0.949 . S
H396 C400 0.949 . S
C397 C398 1.349 . S
C397 C399 1.327 . S
C397 H420 0.950 . S
C398 C397 1.349 . S
C398 C410 1.349 . S
C399 C397 1.327 . S
C399 C415 1.429 . S
C399 H421 0.950 . S
C400 H396 0.949 . S
C400 C408 1.574 . S
C400 C416 1.368 . S
H401 C409 0.950 . S
H402 C407 0.950 . S
H403 C408 0.949 . S
H404 C410 0.950 . S
H405 C411 0.950 . S
H406 C412 0.949 . S
C407 H402 0.950 . S
C407 C409 1.327 . S
C407 C413 1.429 . S
C408 C400 1.574 . S
C408 H403 0.949 . S
C408 C414 1.368 . S
C409 C393 1.349 . S
C409 H401 0.950 . S
C409 C407 1.327 . S
C410 C398 1.349 . S
C410 H404 0.950 . S
C410 C411 1.327 . S
C411 H405 0.950 . S
C411 C410 1.327 . S
C411 C415 1.429 . S
C412 C395 1.574 . S
C412 H406 0.949 . S
C412 C416 1.368 . S
C413 C394 1.429 . S
C413 C407 1.429 . S
C413 C414 1.523 . S
C414 C395 1.368 . S
C414 C408 1.368 . S
C414 C413 1.523 . S
C415 C399 1.429 . S
C415 C411 1.429 . S
C415 C416 1.523 . S
C416 C400 1.368 . S
C416 C412 1.368 . S
C416 C415 1.523 . S
H417 C392 0.950 . S
H418 C394 0.950 . S
H419 C395 0.949 . S
H420 C397 0.950 . S
H421 C399 0.950 . S
C422 C423 1.349 . S
C422 C424 1.327 . S
C422 H447 0.950 . S
C423 C422 1.349 . S
C423 C439 1.349 . S
C424 C422 1.327 . S
C424 C443 1.429 . S
C424 H448 0.950 . S
C425 C442 1.574 . S
C425 C444 1.368 . S
C425 H449 0.949 . S
H426 C430 0.949 . S
C427 C428 1.349 . S
C427 C429 1.327 . S
C427 H450 0.950 . S
C428 C427 1.349 . S
C428 C440 1.349 . S
C429 C427 1.327 . S
C429 C445 1.429 . S
C429 H451 0.950 . S
C430 H426 0.949 . S
C430 C438 1.574 . S
C430 C446 1.368 . S
H431 C439 0.950 . S
H432 C437 0.950 . S
H433 C438 0.949 . S
H434 C440 0.950 . S
H435 C441 0.950 . S
H436 C442 0.949 . S
C437 H432 0.950 . S
C437 C439 1.327 . S
C437 C443 1.429 . S
C438 C430 1.574 . S
C438 H433 0.949 . S
C438 C444 1.368 . S
C439 C423 1.349 . S
C439 H431 0.950 . S
C439 C437 1.327 . S
C440 C428 1.349 . S
C440 H434 0.950 . S
C440 C441 1.327 . S
C441 H435 0.950 . S
C441 C440 1.327 . S
C441 C445 1.429 . S
C442 C425 1.574 . S
C442 H436 0.949 . S
C442 C446 1.368 . S
C443 C424 1.429 . S
C443 C437 1.429 . S
C443 C444 1.523 . S
C444 C425 1.368 . S
C444 C438 1.368 . S
C444 C443 1.523 . S
C445 C429 1.429 . S
C445 C441 1.429 . S
C445 C446 1.523 . S
C446 C430 1.368 . S
C446 C442 1.368 . S
C446 C445 1.523 . S
H447 C422 0.950 . S
H448 C424 0.950 . S
H449 C425 0.949 . S
H450 C427 0.950 . S
H451 C429 0.950 . S
C452 C453 1.349 . S
C452 C454 1.327 . S
C452 H477 0.950 . S
C453 C452 1.349 . S
C453 C469 1.349 . S
C454 C452 1.327 . S
C454 C473 1.429 . S
C454 H478 0.950 . S
C455 C472 1.574 . S
C455 C474 1.368 . S
C455 H479 0.949 . S
H456 C460 0.949 . S
C457 C458 1.349 . S
C457 C459 1.327 . S
C457 H480 0.950 . S
C458 C457 1.349 . S
C458 C470 1.349 . S
C459 C457 1.327 . S
C459 C475 1.429 . S
C459 H481 0.950 . S
C460 H456 0.949 . S
C460 C468 1.574 . S
C460 C476 1.368 . S
H461 C469 0.950 . S
H462 C467 0.950 . S
H463 C468 0.949 . S
H464 C470 0.950 . S
H465 C471 0.950 . S
H466 C472 0.949 . S
C467 H462 0.950 . S
C467 C469 1.327 . S
C467 C473 1.429 . S
C468 C460 1.574 . S
C468 H463 0.949 . S
C468 C474 1.368 . S
C469 C453 1.349 . S
C469 H461 0.950 . S
C469 C467 1.327 . S
C470 C458 1.349 . S
C470 H464 0.950 . S
C470 C471 1.327 . S
C471 H465 0.950 . S
C471 C470 1.327 . S
C471 C475 1.429 . S
C472 C455 1.574 . S
C472 H466 0.949 . S
C472 C476 1.368 . S
C473 C454 1.429 . S
C473 C467 1.429 . S
C473 C474 1.523 . S
C474 C455 1.368 . S
C474 C468 1.368 . S
C474 C473 1.523 . S
C475 C459 1.429 . S
C475 C471 1.429 . S
C475 C476 1.523 . S
C476 C460 1.368 . S
C476 C472 1.368 . S
C476 C475 1.523 . S
H477 C452 0.950 . S
H478 C454 0.950 . S
H479 C455 0.949 . S
H480 C457 0.950 . S
H481 C459 0.950 . S
C482 C483 1.349 . S
C482 C484 1.327 . S
C482 H507 0.950 . S
C483 C482 1.349 . S
C483 C499 1.349 . S
C484 C482 1.327 . S
C484 C503 1.429 . S
C484 H508 0.950 . S
C485 C502 1.574 . S
C485 C504 1.368 . S
C485 H509 0.949 . S
H486 C490 0.949 . S
C487 C488 1.349 . S
C487 C489 1.327 . S
C487 H510 0.950 . S
C488 C487 1.349 . S
C488 C500 1.349 . S
C489 C487 1.327 . S
C489 C505 1.429 . S
C489 H511 0.950 . S
C490 H486 0.949 . S
C490 C498 1.574 . S
C490 C506 1.368 . S
H491 C499 0.950 . S
H492 C497 0.950 . S
H493 C498 0.949 . S
H494 C500 0.950 . S
H495 C501 0.950 . S
H496 C502 0.949 . S
C497 H492 0.950 . S
C497 C499 1.327 . S
C497 C503 1.429 . S
C498 C490 1.574 . S
C498 H493 0.949 . S
C498 C504 1.368 . S
C499 C483 1.349 . S
C499 H491 0.950 . S
C499 C497 1.327 . S
C500 C488 1.349 . S
C500 H494 0.950 . S
C500 C501 1.327 . S
C501 H495 0.950 . S
C501 C500 1.327 . S
C501 C505 1.429 . S
C502 C485 1.574 . S
C502 H496 0.949 . S
C502 C506 1.368 . S
C503 C484 1.429 . S
C503 C497 1.429 . S
C503 C504 1.523 . S
C504 C485 1.368 . S
C504 C498 1.368 . S
C504 C503 1.523 . S
C505 C489 1.429 . S
C505 C501 1.429 . S
C505 C506 1.523 . S
C506 C490 1.368 . S
C506 C502 1.368 . S
C506 C505 1.523 . S
H507 C482 0.950 . S
H508 C484 0.950 . S
H509 C485 0.949 . S
H510 C487 0.950 . S
H511 C489 0.950 . S
C512 C513 1.349 . S
C512 C514 1.327 . S
C512 H537 0.950 . S
C513 C512 1.349 . S
C513 C529 1.349 . S
C514 C512 1.327 . S
C514 C533 1.429 . S
C514 H538 0.950 . S
C515 C532 1.574 . S
C515 C534 1.368 . S
C515 H539 0.949 . S
H516 C520 0.949 . S
C517 C518 1.349 . S
C517 C519 1.327 . S
C517 H540 0.950 . S
C518 C517 1.349 . S
C518 C530 1.349 . S
C519 C517 1.327 . S
C519 C535 1.429 . S
C519 H541 0.950 . S
C520 H516 0.949 . S
C520 C528 1.574 . S
C520 C536 1.368 . S
H521 C529 0.950 . S
H522 C527 0.950 . S
H523 C528 0.949 . S
H524 C530 0.950 . S
H525 C531 0.950 . S
H526 C532 0.949 . S
C527 H522 0.950 . S
C527 C529 1.327 . S
C527 C533 1.429 . S
C528 C520 1.574 . S
C528 H523 0.949 . S
C528 C534 1.368 . S
C529 C513 1.349 . S
C529 H521 0.950 . S
C529 C527 1.327 . S
C530 C518 1.349 . S
C530 H524 0.950 . S
C530 C531 1.327 . S
C531 H525 0.950 . S
C531 C530 1.327 . S
C531 C535 1.429 . S
C532 C515 1.574 . S
C532 H526 0.949 . S
C532 C536 1.368 . S
C533 C514 1.429 . S
C533 C527 1.429 . S
C533 C534 1.523 . S
C534 C515 1.368 . S
C534 C528 1.368 . S
C534 C533 1.523 . S
C535 C519 1.429 . S
C535 C531 1.429 . S
C535 C536 1.523 . S
C536 C520 1.368 . S
C536 C532 1.368 . S
C536 C535 1.523 . S
H537 C512 0.950 . S
H538 C514 0.950 . S
H539 C515 0.949 . S
H540 C517 0.950 . S
H541 C519 0.950 . S
C542 C543 1.349 . S
C542 C544 1.327 . S
C542 H567 0.950 . S
C543 C542 1.349 . S
C543 C559 1.349 . S
C544 C542 1.327 . S
C544 C563 1.429 . S
C544 H568 0.950 . S
C545 C562 1.574 . S
C545 C564 1.368 . S
C545 H569 0.949 . S
H546 C550 0.949 . S
C547 C548 1.349 . S
C547 C549 1.327 . S
C547 H570 0.950 . S
C548 C547 1.349 . S
C548 C560 1.349 . S
C549 C547 1.327 . S
C549 C565 1.429 . S
C549 H571 0.950 . S
C550 H546 0.949 . S
C550 C558 1.574 . S
C550 C566 1.368 . S
H551 C559 0.950 . S
H552 C557 0.950 . S
H553 C558 0.949 . S
H554 C560 0.950 . S
H555 C561 0.950 . S
H556 C562 0.949 . S
C557 H552 0.950 . S
C557 C559 1.327 . S
C557 C563 1.429 . S
C558 C550 1.574 . S
C558 H553 0.949 . S
C558 C564 1.368 . S
C559 C543 1.349 . S
C559 H551 0.950 . S
C559 C557 1.327 . S
C560 C548 1.349 . S
C560 H554 0.950 . S
C560 C561 1.327 . S
C561 H555 0.950 . S
C561 C560 1.327 . S
C561 C565 1.429 . S
C562 C545 1.574 . S
C562 H556 0.949 . S
C562 C566 1.368 . S
C563 C544 1.429 . S
C563 C557 1.429 . S
C563 C564 1.523 . S
C564 C545 1.368 . S
C564 C558 1.368 . S
C564 C563 1.523 . S
C565 C549 1.429 . S
C565 C561 1.429 . S
C565 C566 1.523 . S
C566 C550 1.368 . S
C566 C562 1.368 . S
C566 C565 1.523 . S
H567 C542 0.950 . S
H568 C544 0.950 . S
H569 C545 0.949 . S
H570 C547 0.950 . S
H571 C549 0.950 . S
C572 C573 1.349 . S
C572 C574 1.327 . S
C572 H597 0.950 . S
C573 C572 1.349 . S
C573 C589 1.349 . S
C574 C572 1.327 . S
C574 C593 1.429 . S
C574 H598 0.950 . S
C575 C592 1.574 . S
C575 C594 1.368 . S
C575 H599 0.949 . S
H576 C580 0.949 . S
C577 C578 1.349 . S
C577 C579 1.327 . S
C577 H600 0.950 . S
C578 C577 1.349 . S
C578 C590 1.349 . S
C579 C577 1.327 . S
C579 C595 1.429 . S
C579 H601 0.950 . S
C580 H576 0.949 . S
C580 C588 1.574 . S
C580 C596 1.368 . S
H581 C589 0.950 . S
H582 C587 0.950 . S
H583 C588 0.949 . S
H584 C590 0.950 . S
H585 C591 0.950 . S
H586 C592 0.949 . S
C587 H582 0.950 . S
C587 C589 1.327 . S
C587 C593 1.429 . S
C588 C580 1.574 . S
C588 H583 0.949 . S
C588 C594 1.368 . S
C589 C573 1.349 . S
C589 H581 0.950 . S
C589 C587 1.327 . S
C590 C578 1.349 . S
C590 H584 0.950 . S
C590 C591 1.327 . S
C591 H585 0.950 . S
C591 C590 1.327 . S
C591 C595 1.429 . S
C592 C575 1.574 . S
C592 H586 0.949 . S
C592 C596 1.368 . S
C593 C574 1.429 . S
C593 C587 1.429 . S
C593 C594 1.523 . S
C594 C575 1.368 . S
C594 C588 1.368 . S
C594 C593 1.523 . S
C595 C579 1.429 . S
C595 C591 1.429 . S
C595 C596 1.523 . S
C596 C580 1.368 . S
C596 C592 1.368 . S
C596 C595 1.523 . S
H597 C572 0.950 . S
H598 C574 0.950 . S
H599 C575 0.949 . S
H600 C577 0.950 . S
H601 C579 0.950 . S
C602 C603 1.349 . S
C602 C604 1.327 . S
C602 H627 0.950 . S
C603 C602 1.349 . S
C603 C619 1.349 . S
C604 C602 1.327 . S
C604 C623 1.429 . S
C604 H628 0.950 . S
C605 C622 1.574 . S
C605 C624 1.368 . S
C605 H629 0.949 . S
H606 C610 0.949 . S
C607 C608 1.349 . S
C607 C609 1.327 . S
C607 H630 0.950 . S
C608 C607 1.349 . S
C608 C620 1.349 . S
C609 C607 1.327 . S
C609 C625 1.429 . S
C609 H631 0.950 . S
C610 H606 0.949 . S
C610 C618 1.574 . S
C610 C626 1.368 . S
H611 C619 0.950 . S
H612 C617 0.950 . S
H613 C618 0.949 . S
H614 C620 0.950 . S
H615 C621 0.950 . S
H616 C622 0.949 . S
C617 H612 0.950 . S
C617 C619 1.327 . S
C617 C623 1.429 . S
C618 C610 1.574 . S
C618 H613 0.949 . S
C618 C624 1.368 . S
C619 C603 1.349 . S
C619 H611 0.950 . S
C619 C617 1.327 . S
C620 C608 1.349 . S
C620 H614 0.950 . S
C620 C621 1.327 . S
C621 H615 0.950 . S
C621 C620 1.327 . S
C621 C625 1.429 . S
C622 C605 1.574 . S
C622 H616 0.949 . S
C622 C626 1.368 . S
C623 C604 1.429 . S
C623 C617 1.429 . S
C623 C624 1.523 . S
C624 C605 1.368 . S
C624 C618 1.368 . S
C624 C623 1.523 . S
C625 C609 1.429 . S
C625 C621 1.429 . S
C625 C626 1.523 . S
C626 C610 1.368 . S
C626 C622 1.368 . S
C626 C625 1.523 . S
H627 C602 0.950 . S
H628 C604 0.950 . S
H629 C605 0.949 . S
H630 C607 0.950 . S
H631 C609 0.950 . S
C632 C633 1.349 . S
C632 C634 1.327 . S
C632 H657 0.950 . S
C633 C632 1.349 . S
C633 C649 1.349 . S
C634 C632 1.327 . S
C634 C653 1.429 . S
C634 H658 0.950 . S
C635 C652 1.574 1_556 S
C635 C654 1.368 1_655 S
C635 H659 0.949 . S
H636 C640 0.949 . S
C637 C638 1.349 . S
C637 C639 1.327 . S
C637 H660 0.950 . S
C638 C637 1.349 . S
C638 C650 1.349 1_655 S
C639 C637 1.327 . S
C639 C655 1.419 1_655 S
C639 H661 0.950 . S
C640 H636 0.949 . S
C640 C648 1.574 . S
C640 C656 1.368 . S
H641 C649 0.950 1_655 S
H642 C647 0.950 1_655 S
H643 C648 0.949 . S
H644 C650 0.950 . S
H645 C651 0.950 . S
H646 C652 0.949 . S
C647 H642 0.950 1_455 S
C647 C649 1.327 . S
C647 C653 1.428 . S
C648 C640 1.574 . S
C648 H643 0.949 . S
C648 C654 1.368 . S
C649 C633 1.349 . S
C649 H641 0.950 1_455 S
C649 C647 1.327 . S
C650 C638 1.349 1_455 S
C650 H644 0.950 . S
C650 C651 1.327 . S
C651 H645 0.950 . S
C651 C650 1.327 . S
C651 C655 1.437 . S
C652 C635 1.574 1_554 S
C652 H646 0.949 . S
C652 C656 1.368 1_654 S
C653 C634 1.429 . S
C653 C647 1.428 . S
C653 C654 1.523 . S
C654 C635 1.368 1_455 S
C654 C648 1.368 . S
C654 C653 1.523 . S
C655 C639 1.419 1_455 S
C655 C651 1.437 . S
C655 C656 1.525 1_554 S
C656 C640 1.368 . S
C656 C652 1.368 1_456 S
C656 C655 1.525 1_556 S
H657 C632 0.950 . S
H658 C634 0.950 . S
H659 C635 0.949 . S
H660 C637 0.950 . S
H661 C639 0.950 . S
C662 C663 1.349 . S
C662 C664 1.327 . S
C662 H687 0.950 . S
C663 C662 1.349 . S
C663 C679 1.349 . S
C664 C662 1.327 . S
C664 C683 1.429 . S
C664 H688 0.950 . S
C665 C682 1.574 . S
C665 C684 1.368 . S
C665 H689 0.949 . S
H666 C670 0.949 . S
C667 C668 1.349 . S
C667 C669 1.327 . S
C667 H690 0.950 . S
C668 C667 1.349 . S
C668 C680 1.349 . S
C669 C667 1.327 . S
C669 C685 1.429 . S
C669 H691 0.950 . S
C670 H666 0.949 . S
C670 C678 1.574 . S
C670 C686 1.368 . S
H671 C679 0.950 . S
H672 C677 0.950 . S
H673 C678 0.949 . S
H674 C680 0.950 . S
H675 C681 0.950 . S
H676 C682 0.949 . S
C677 H672 0.950 . S
C677 C679 1.327 . S
C677 C683 1.429 . S
C678 C670 1.574 . S
C678 H673 0.949 . S
C678 C684 1.368 . S
C679 C663 1.349 . S
C679 H671 0.950 . S
C679 C677 1.327 . S
C680 C668 1.349 . S
C680 H674 0.950 . S
C680 C681 1.327 . S
C681 H675 0.950 . S
C681 C680 1.327 . S
C681 C685 1.429 . S
C682 C665 1.574 . S
C682 H676 0.949 . S
C682 C686 1.368 . S
C683 C664 1.429 . S
C683 C677 1.429 . S
C683 C684 1.523 . S
C684 C665 1.368 . S
C684 C678 1.368 . S
C684 C683 1.523 . S
C685 C669 1.429 . S
C685 C681 1.429 . S
C685 C686 1.523 . S
C686 C670 1.368 . S
C686 C682 1.368 . S
C686 C685 1.523 . S
H687 C662 0.950 . S
H688 C664 0.950 . S
H689 C665 0.949 . S
H690 C667 0.950 . S
H691 C669 0.950 . S
C692 C693 1.349 1_455 S
C692 C694 1.327 . S
C692 H717 0.950 . S
C693 C692 1.349 1_655 S
C693 C709 1.349 . S
C694 C692 1.327 . S
C694 C713 1.451 . S
C694 H718 0.950 . S
C695 C712 1.574 . S
C695 C714 1.368 1_655 S
C695 H719 0.949 . S
H696 C700 0.949 . S
C697 C698 1.349 1_655 S
C697 C699 1.327 . S
C697 H720 0.950 . S
C698 C697 1.349 1_455 S
C698 C710 1.349 . S
C699 C697 1.327 . S
C699 C715 1.429 1_655 S
C699 H721 0.950 . S
C700 H696 0.949 . S
C700 C708 1.574 . S
C700 C716 1.368 . S
H701 C709 0.950 . S
H702 C707 0.950 . S
H703 C708 0.949 1_556 S
H704 C710 0.950 . S
H705 C711 0.950 . S
H706 C712 0.949 . S
C707 H702 0.950 . S
C707 C709 1.327 . S
C707 C713 1.404 1_655 S
C708 C700 1.574 . S
C708 H703 0.949 1_554 S
C708 C714 1.368 . S
C709 C693 1.349 . S
C709 H701 0.950 . S
C709 C707 1.327 . S
C710 C698 1.349 . S
C710 H704 0.950 . S
C710 C711 1.327 . S
C711 H705 0.950 . S
C711 C710 1.327 . S
C711 C715 1.429 . S
C712 C695 1.574 . S
C712 H706 0.949 . S
C712 C716 1.368 1_655 S
C713 C694 1.451 . S
C713 C707 1.404 1_455 S
C713 C714 1.525 1_556 S
C714 C695 1.368 1_455 S
C714 C708 1.368 . S
C714 C713 1.525 1_554 S
C715 C699 1.429 1_455 S
C715 C711 1.429 . S
C715 C716 1.523 . S
C716 C700 1.368 . S
C716 C712 1.368 1_455 S
C716 C715 1.523 . S
H717 C692 0.950 . S
H718 C694 0.950 . S
H719 C695 0.949 . S
H720 C697 0.950 . S
H721 C699 0.950 . S
C722 C723 1.349 . S
C722 C724 1.327 . S
C722 H747 0.950 . S
C723 C722 1.349 . S
C723 C739 1.349 . S
C724 C722 1.327 . S
C724 C743 1.429 . S
C724 H748 0.950 . S
C725 C742 1.574 . S
C725 C744 1.368 . S
C725 H749 0.949 . S
H726 C730 0.949 . S
C727 C728 1.349 . S
C727 C729 1.327 . S
C727 H750 0.950 . S
C728 C727 1.349 . S
C728 C740 1.349 . S
C729 C727 1.327 . S
C729 C745 1.429 . S
C729 H751 0.950 . S
C730 H726 0.949 . S
C730 C738 1.574 . S
C730 C746 1.368 . S
H731 C739 0.950 . S
H732 C737 0.950 . S
H733 C738 0.949 . S
H734 C740 0.950 . S
H735 C741 0.950 . S
H736 C742 0.949 . S
C737 H732 0.950 . S
C737 C739 1.327 . S
C737 C743 1.429 . S
C738 C730 1.574 . S
C738 H733 0.949 . S
C738 C744 1.368 . S
C739 C723 1.349 . S
C739 H731 0.950 . S
C739 C737 1.327 . S
C740 C728 1.349 . S
C740 H734 0.950 . S
C740 C741 1.327 . S
C741 H735 0.950 . S
C741 C740 1.327 . S
C741 C745 1.429 . S
C742 C725 1.574 . S
C742 H736 0.949 . S
C742 C746 1.368 . S
C743 C724 1.429 . S
C743 C737 1.429 . S
C743 C744 1.523 . S
C744 C725 1.368 . S
C744 C738 1.368 . S
C744 C743 1.523 . S
C745 C729 1.429 . S
C745 C741 1.429 . S
C745 C746 1.523 . S
C746 C730 1.368 . S
C746 C742 1.368 . S
C746 C745 1.523 . S
H747 C722 0.950 . S
H748 C724 0.950 . S
H749 C725 0.949 . S
H750 C727 0.950 . S
H751 C729 0.950 . S
C752 C753 1.349 . S
C752 C754 1.327 . S
C752 H777 0.950 . S
C753 C752 1.349 . S
C753 C769 1.349 . S
C754 C752 1.327 . S
C754 C773 1.429 . S
C754 H778 0.950 . S
C755 C772 1.574 . S
C755 C774 1.368 . S
C755 H779 0.949 . S
H756 C760 0.949 1_554 S
C757 C758 1.349 . S
C757 C759 1.327 . S
C757 H780 0.950 . S
C758 C757 1.349 . S
C758 C770 1.349 . S
C759 C757 1.327 . S
C759 C775 1.429 . S
C759 H781 0.950 . S
C760 H756 0.949 1_556 S
C760 C768 1.574 . S
C760 C776 1.368 . S
H761 C769 0.950 . S
H762 C767 0.950 . S
H763 C768 0.949 . S
H764 C770 0.950 . S
H765 C771 0.950 . S
H766 C772 0.949 . S
C767 H762 0.950 . S
C767 C769 1.327 . S
C767 C773 1.429 . S
C768 C760 1.574 . S
C768 H763 0.949 . S
C768 C774 1.368 . S
C769 C753 1.349 . S
C769 H761 0.950 . S
C769 C767 1.327 . S
C770 C758 1.349 . S
C770 H764 0.950 . S
C770 C771 1.327 . S
C771 H765 0.950 . S
C771 C770 1.327 . S
C771 C775 1.429 . S
C772 C755 1.574 . S
C772 H766 0.949 . S
C772 C776 1.368 . S
C773 C754 1.429 . S
C773 C767 1.429 . S
C773 C774 1.523 . S
C774 C755 1.368 . S
C774 C768 1.368 . S
C774 C773 1.523 . S
C775 C759 1.429 . S
C775 C771 1.429 . S
C775 C776 1.523 1_554 S
C776 C760 1.368 . S
C776 C772 1.368 . S
C776 C775 1.523 1_556 S
H777 C752 0.950 . S
H778 C754 0.950 . S
H779 C755 0.949 . S
H780 C757 0.950 . S
H781 C759 0.950 . S
C782 C783 1.349 . S
C782 C784 1.327 . S
C782 H807 0.950 . S
C783 C782 1.349 . S
C783 C799 1.349 . S
C784 C782 1.327 . S
C784 C803 1.429 . S
C784 H808 0.950 . S
C785 C802 1.574 . S
C785 C804 1.368 1_655 S
C785 H809 0.949 . S
H786 C790 0.949 . S
C787 C788 1.349 1_655 S
C787 C789 1.327 . S
C787 H810 0.950 . S
C788 C787 1.349 1_455 S
C788 C800 1.349 . S
C789 C787 1.327 . S
C789 C805 1.429 1_655 S
C789 H811 0.950 . S
C790 H786 0.949 . S
C790 C798 1.574 . S
C790 C806 1.368 . S
H791 C799 0.950 1_655 S
H792 C797 0.956 . S
H793 C798 0.949 . S
H794 C800 0.950 . S
H795 C801 0.950 . S
H796 C802 0.949 . S
C797 H792 0.956 . S
C797 C799 1.326 1_655 S
C797 C803 1.424 1_655 S
C798 C790 1.574 . S
C798 H793 0.949 . S
C798 C804 1.368 . S
C799 C783 1.349 . S
C799 H791 0.950 1_455 S
C799 C797 1.326 1_455 S
C800 C788 1.349 . S
C800 H794 0.950 . S
C800 C801 1.327 . S
C801 H795 0.950 . S
C801 C800 1.327 . S
C801 C805 1.429 . S
C802 C785 1.574 . S
C802 H796 0.949 . S
C802 C806 1.368 1_655 S
C803 C784 1.429 . S
C803 C797 1.424 1_455 S
C803 C804 1.523 . S
C804 C785 1.368 1_455 S
C804 C798 1.368 . S
C804 C803 1.523 . S
C805 C789 1.429 1_455 S
C805 C801 1.429 . S
C805 C806 1.523 . S
C806 C790 1.368 . S
C806 C802 1.368 1_455 S
C806 C805 1.523 . S
H807 C782 0.950 . S
H808 C784 0.950 . S
H809 C785 0.949 . S
H810 C787 0.950 . S
H811 C789 0.950 . S
C812 C813 1.349 . S
C812 C814 1.327 . S
C812 H837 0.950 . S
C813 C812 1.349 . S
C813 C829 1.349 . S
C814 C812 1.327 . S
C814 C833 1.429 . S
C814 H838 0.950 . S
C815 C832 1.574 1_556 S
C815 C834 1.368 1_556 S
C815 H839 0.949 . S
H816 C820 0.949 . S
C817 C818 1.349 . S
C817 C819 1.327 . S
C817 H840 0.950 . S
C818 C817 1.349 . S
C818 C830 1.349 . S
C819 C817 1.327 . S
C819 C835 1.429 . S
C819 H841 0.950 . S
C820 H816 0.949 . S
C820 C828 1.574 . S
C820 C836 1.368 . S
H821 C829 0.950 . S
H822 C827 0.950 . S
H823 C828 0.949 . S
H824 C830 0.950 . S
H825 C831 0.950 . S
H826 C832 0.949 . S
C827 H822 0.950 . S
C827 C829 1.327 . S
C827 C833 1.429 . S
C828 C820 1.574 . S
C828 H823 0.949 . S
C828 C834 1.368 . S
C829 C813 1.349 . S
C829 H821 0.950 . S
C829 C827 1.327 . S
C830 C818 1.349 . S
C830 H824 0.950 . S
C830 C831 1.327 . S
C831 H825 0.950 . S
C831 C830 1.327 . S
C831 C835 1.429 . S
C832 C815 1.574 1_554 S
C832 H826 0.949 . S
C832 C836 1.368 . S
C833 C814 1.429 . S
C833 C827 1.429 . S
C833 C834 1.523 1_556 S
C834 C815 1.368 1_554 S
C834 C828 1.368 . S
C834 C833 1.523 1_554 S
C835 C819 1.429 . S
C835 C831 1.429 . S
C835 C836 1.523 . S
C836 C820 1.368 . S
C836 C832 1.368 . S
C836 C835 1.523 . S
H837 C812 0.950 . S
H838 C814 0.950 . S
H839 C815 0.949 . S
H840 C817 0.950 . S
H841 C819 0.950 . S
C842 C843 1.349 . S
C842 C844 1.327 . S
C842 H867 0.950 . S
C843 C842 1.349 . S
C843 C859 1.349 1_455 S
C844 C842 1.327 . S
C844 C863 1.429 . S
C844 H868 0.950 . S
C845 C862 1.574 . S
C845 C864 1.368 1_655 S
C845 H869 0.949 . S
H846 C850 0.949 . S
C847 C848 1.349 1_655 S
C847 C849 1.327 . S
C847 H870 0.950 . S
C848 C847 1.349 1_455 S
C848 C860 1.349 . S
C849 C847 1.327 . S
C849 C865 1.429 1_655 S
C849 H871 0.950 . S
C850 H846 0.949 . S
C850 C858 1.574 . S
C850 C866 1.368 . S
H851 C859 0.950 . S
H852 C857 0.950 . S
H853 C858 0.949 . S
H854 C860 0.950 . S
H855 C861 0.950 . S
H856 C862 0.949 . S
C857 H852 0.950 . S
C857 C859 1.327 . S
C857 C863 1.429 1_655 S
C858 C850 1.574 . S
C858 H853 0.949 . S
C858 C864 1.368 . S
C859 C843 1.349 1_655 S
C859 H851 0.950 . S
C859 C857 1.327 . S
C860 C848 1.349 . S
C860 H854 0.950 . S
C860 C861 1.327 . S
C861 H855 0.950 . S
C861 C860 1.327 . S
C861 C865 1.429 . S
C862 C845 1.574 . S
C862 H856 0.949 . S
C862 C866 1.368 1_655 S
C863 C844 1.429 . S
C863 C857 1.429 1_455 S
C863 C864 1.523 . S
C864 C845 1.368 1_455 S
C864 C858 1.368 . S
C864 C863 1.523 . S
C865 C849 1.429 1_455 S
C865 C861 1.429 . S
C865 C866 1.523 . S
C866 C850 1.368 . S
C866 C862 1.368 1_455 S
C866 C865 1.523 . S
H867 C842 0.950 . S
H868 C844 0.950 . S
H869 C845 0.949 . S
H870 C847 0.950 . S
H871 C849 0.950 . S
C273 C70 1.679 . S
C278 C2 1.679 . S
C303 C104 1.679 . S
C308 C36 1.679 . S
C333 C138 1.679 . S
C338 C206 1.679 . S
C363 C172 1.679 . S
C368 C240 1.679 . S
C393 C111 1.098 . S
C398 C9 1.098 . S
C423 C43 1.098 . S
C428 C77 1.098 . S
C453 C73 1.931 . S
C458 C39 1.931 . S
C483 C107 1.931 . S
C488 C5 1.931 . S
C513 C247 1.098 . S
C518 C145 1.098 . S
C543 C179 1.098 . S
C548 C213 1.098 . S
C573 C209 1.931 . S
C578 C175 1.931 . S
C603 C243 1.931 . S
C608 C141 1.931 . S
C633 C190 1.209 . S
C638 C33 1.208 1_655 S
C663 C67 1.208 . S
C668 C156 1.209 . S
C693 C101 1.208 1_655 S
C698 C258 1.209 . S
C723 C224 1.209 . S
C728 C135 1.208 . S
C753 C54 1.209 . S
C758 C169 1.208 . S
C783 C203 1.208 . S
C788 C20 1.209 . S
C813 C237 1.208 . S
C818 C122 1.209 . S
C843 C271 1.208 . S
C848 C88 1.209 . S
