# Generated by pormake.
# Topology fcr, (5)-cn, num edge types: 1
# Building blocks:
#     Node 0, Type 0, BuildingBlock: BEQFEK_clean_sbu_0, # of connection points: 5
#     Node 1, Type 0, BuildingBlock: BEQFEK_clean_sbu_0, # of connection points: 5
#     Node 2, Type 0, BuildingBlock: BEQFEK_clean_sbu_0, # of connection points: 5
#     Node 3, Type 0, BuildingBlock: BEQFEK_clean_sbu_0, # of connection points: 5
#     Node 4, Type 0, BuildingBlock: BEQFEK_clean_sbu_0, # of connection points: 5
#     Node 5, Type 0, BuildingBlock: BEQFEK_clean_sbu_0, # of connection points: 5
#     Node 6, Type 0, BuildingBlock: BEQFEK_clean_sbu_0, # of connection points: 5
#     Node 7, Type 0, BuildingBlock: BEQFEK_clean_sbu_0, # of connection points: 5
#     Node 8, Type 0, BuildingBlock: BEQFEK_clean_sbu_0, # of connection points: 5
#     Node 9, Type 0, BuildingBlock: BEQFEK_clean_sbu_0, # of connection points: 5
#     Node 10, Type 0, BuildingBlock: BEQFEK_clean_sbu_0, # of connection points: 5
#     Node 11, Type 0, BuildingBlock: BEQFEK_clean_sbu_0, # of connection points: 5
#     Node 12, Type 0, BuildingBlock: BEQFEK_clean_sbu_0, # of connection points: 5
#     Node 13, Type 0, BuildingBlock: BEQFEK_clean_sbu_0, # of connection points: 5
#     Node 14, Type 0, BuildingBlock: BEQFEK_clean_sbu_0, # of connection points: 5
#     Node 15, Type 0, BuildingBlock: BEQFEK_clean_sbu_0, # of connection points: 5
#     Node 16, Type 0, BuildingBlock: BEQFEK_clean_sbu_0, # of connection points: 5
#     Node 17, Type 0, BuildingBlock: BEQFEK_clean_sbu_0, # of connection points: 5
#     Node 18, Type 0, BuildingBlock: BEQFEK_clean_sbu_0, # of connection points: 5
#     Node 19, Type 0, BuildingBlock: BEQFEK_clean_sbu_0, # of connection points: 5
#     Node 20, Type 0, BuildingBlock: BEQFEK_clean_sbu_0, # of connection points: 5
#     Node 21, Type 0, BuildingBlock: BEQFEK_clean_sbu_0, # of connection points: 5
#     Node 22, Type 0, BuildingBlock: BEQFEK_clean_sbu_0, # of connection points: 5
#     Node 23, Type 0, BuildingBlock: BEQFEK_clean_sbu_0, # of connection points: 5
#     Node 24, Type 0, BuildingBlock: BEQFEK_clean_sbu_0, # of connection points: 5
#     Node 25, Type 0, BuildingBlock: BEQFEK_clean_sbu_0, # of connection points: 5
#     Node 26, Type 0, BuildingBlock: BEQFEK_clean_sbu_0, # of connection points: 5
#     Node 27, Type 0, BuildingBlock: BEQFEK_clean_sbu_0, # of connection points: 5
#     Node 28, Type 0, BuildingBlock: BEQFEK_clean_sbu_0, # of connection points: 5
#     Node 29, Type 0, BuildingBlock: BEQFEK_clean_sbu_0, # of connection points: 5
#     Node 30, Type 0, BuildingBlock: BEQFEK_clean_sbu_0, # of connection points: 5
#     Node 31, Type 0, BuildingBlock: BEQFEK_clean_sbu_0, # of connection points: 5
#     Node 32, Type 0, BuildingBlock: BEQFEK_clean_sbu_0, # of connection points: 5
#     Node 33, Type 0, BuildingBlock: BEQFEK_clean_sbu_0, # of connection points: 5
#     Node 34, Type 0, BuildingBlock: BEQFEK_clean_sbu_0, # of connection points: 5
#     Node 35, Type 0, BuildingBlock: BEQFEK_clean_sbu_0, # of connection points: 5
#     Node 36, Type 0, BuildingBlock: BEQFEK_clean_sbu_0, # of connection points: 5
#     Node 37, Type 0, BuildingBlock: BEQFEK_clean_sbu_0, # of connection points: 5
#     Node 38, Type 0, BuildingBlock: BEQFEK_clean_sbu_0, # of connection points: 5
#     Node 39, Type 0, BuildingBlock: BEQFEK_clean_sbu_0, # of connection points: 5
#     Node 40, Type 0, BuildingBlock: BEQFEK_clean_sbu_0, # of connection points: 5
#     Node 41, Type 0, BuildingBlock: BEQFEK_clean_sbu_0, # of connection points: 5
#     Node 42, Type 0, BuildingBlock: BEQFEK_clean_sbu_0, # of connection points: 5
#     Node 43, Type 0, BuildingBlock: BEQFEK_clean_sbu_0, # of connection points: 5
#     Node 44, Type 0, BuildingBlock: BEQFEK_clean_sbu_0, # of connection points: 5
#     Node 45, Type 0, BuildingBlock: BEQFEK_clean_sbu_0, # of connection points: 5
#     Node 46, Type 0, BuildingBlock: BEQFEK_clean_sbu_0, # of connection points: 5
#     Node 47, Type 0, BuildingBlock: BEQFEK_clean_sbu_0, # of connection points: 5
#     Edge 48, Type (0, 0), BuildingBlock: AJUNOK_clean_linker_0, # of connection points: 2
#     Edge 49, Type (0, 0), BuildingBlock: AJUNOK_clean_linker_0, # of connection points: 2
#     Edge 50, Type (0, 0), BuildingBlock: AJUNOK_clean_linker_0, # of connection points: 2
#     Edge 51, Type (0, 0), BuildingBlock: AJUNOK_clean_linker_0, # of connection points: 2
#     Edge 52, Type (0, 0), BuildingBlock: AJUNOK_clean_linker_0, # of connection points: 2
#     Edge 53, Type (0, 0), BuildingBlock: AJUNOK_clean_linker_0, # of connection points: 2
#     Edge 54, Type (0, 0), BuildingBlock: AJUNOK_clean_linker_0, # of connection points: 2
#     Edge 55, Type (0, 0), BuildingBlock: AJUNOK_clean_linker_0, # of connection points: 2
#     Edge 56, Type (0, 0), BuildingBlock: AJUNOK_clean_linker_0, # of connection points: 2
#     Edge 57, Type (0, 0), BuildingBlock: AJUNOK_clean_linker_0, # of connection points: 2
#     Edge 58, Type (0, 0), BuildingBlock: AJUNOK_clean_linker_0, # of connection points: 2
#     Edge 59, Type (0, 0), BuildingBlock: AJUNOK_clean_linker_0, # of connection points: 2
#     Edge 60, Type (0, 0), BuildingBlock: AJUNOK_clean_linker_0, # of connection points: 2
#     Edge 61, Type (0, 0), BuildingBlock: AJUNOK_clean_linker_0, # of connection points: 2
#     Edge 62, Type (0, 0), BuildingBlock: AJUNOK_clean_linker_0, # of connection points: 2
#     Edge 63, Type (0, 0), BuildingBlock: AJUNOK_clean_linker_0, # of connection points: 2
#     Edge 64, Type (0, 0), BuildingBlock: AJUNOK_clean_linker_0, # of connection points: 2
#     Edge 65, Type (0, 0), BuildingBlock: AJUNOK_clean_linker_0, # of connection points: 2
#     Edge 66, Type (0, 0), BuildingBlock: AJUNOK_clean_linker_0, # of connection points: 2
#     Edge 67, Type (0, 0), BuildingBlock: AJUNOK_clean_linker_0, # of connection points: 2
#     Edge 68, Type (0, 0), BuildingBlock: AJUNOK_clean_linker_0, # of connection points: 2
#     Edge 69, Type (0, 0), BuildingBlock: AJUNOK_clean_linker_0, # of connection points: 2
#     Edge 70, Type (0, 0), BuildingBlock: AJUNOK_clean_linker_0, # of connection points: 2
#     Edge 71, Type (0, 0), BuildingBlock: AJUNOK_clean_linker_0, # of connection points: 2
#     Edge 72, Type (0, 0), BuildingBlock: AJUNOK_clean_linker_0, # of connection points: 2
#     Edge 73, Type (0, 0), BuildingBlock: AJUNOK_clean_linker_0, # of connection points: 2
#     Edge 74, Type (0, 0), BuildingBlock: AJUNOK_clean_linker_0, # of connection points: 2
#     Edge 75, Type (0, 0), BuildingBlock: AJUNOK_clean_linker_0, # of connection points: 2
#     Edge 76, Type (0, 0), BuildingBlock: AJUNOK_clean_linker_0, # of connection points: 2
#     Edge 77, Type (0, 0), BuildingBlock: AJUNOK_clean_linker_0, # of connection points: 2
#     Edge 78, Type (0, 0), BuildingBlock: AJUNOK_clean_linker_0, # of connection points: 2
#     Edge 79, Type (0, 0), BuildingBlock: AJUNOK_clean_linker_0, # of connection points: 2
#     Edge 80, Type (0, 0), BuildingBlock: AJUNOK_clean_linker_0, # of connection points: 2
#     Edge 81, Type (0, 0), BuildingBlock: AJUNOK_clean_linker_0, # of connection points: 2
#     Edge 82, Type (0, 0), BuildingBlock: AJUNOK_clean_linker_0, # of connection points: 2
#     Edge 83, Type (0, 0), BuildingBlock: AJUNOK_clean_linker_0, # of connection points: 2
#     Edge 84, Type (0, 0), BuildingBlock: AJUNOK_clean_linker_0, # of connection points: 2
#     Edge 85, Type (0, 0), BuildingBlock: AJUNOK_clean_linker_0, # of connection points: 2
#     Edge 86, Type (0, 0), BuildingBlock: AJUNOK_clean_linker_0, # of connection points: 2
#     Edge 87, Type (0, 0), BuildingBlock: AJUNOK_clean_linker_0, # of connection points: 2
#     Edge 88, Type (0, 0), BuildingBlock: AJUNOK_clean_linker_0, # of connection points: 2
#     Edge 89, Type (0, 0), BuildingBlock: AJUNOK_clean_linker_0, # of connection points: 2
#     Edge 90, Type (0, 0), BuildingBlock: AJUNOK_clean_linker_0, # of connection points: 2
#     Edge 91, Type (0, 0), BuildingBlock: AJUNOK_clean_linker_0, # of connection points: 2
#     Edge 92, Type (0, 0), BuildingBlock: AJUNOK_clean_linker_0, # of connection points: 2
#     Edge 93, Type (0, 0), BuildingBlock: AJUNOK_clean_linker_0, # of connection points: 2
#     Edge 94, Type (0, 0), BuildingBlock: AJUNOK_clean_linker_0, # of connection points: 2
#     Edge 95, Type (0, 0), BuildingBlock: AJUNOK_clean_linker_0, # of connection points: 2
#     Edge 96, Type (0, 0), BuildingBlock: AJUNOK_clean_linker_0, # of connection points: 2
#     Edge 97, Type (0, 0), BuildingBlock: AJUNOK_clean_linker_0, # of connection points: 2
#     Edge 98, Type (0, 0), BuildingBlock: AJUNOK_clean_linker_0, # of connection points: 2
#     Edge 99, Type (0, 0), BuildingBlock: AJUNOK_clean_linker_0, # of connection points: 2
#     Edge 100, Type (0, 0), BuildingBlock: AJUNOK_clean_linker_0, # of connection points: 2
#     Edge 101, Type (0, 0), BuildingBlock: AJUNOK_clean_linker_0, # of connection points: 2
#     Edge 102, Type (0, 0), BuildingBlock: AJUNOK_clean_linker_0, # of connection points: 2
#     Edge 103, Type (0, 0), BuildingBlock: AJUNOK_clean_linker_0, # of connection points: 2
#     Edge 104, Type (0, 0), BuildingBlock: AJUNOK_clean_linker_0, # of connection points: 2
#     Edge 105, Type (0, 0), BuildingBlock: AJUNOK_clean_linker_0, # of connection points: 2
#     Edge 106, Type (0, 0), BuildingBlock: AJUNOK_clean_linker_0, # of connection points: 2
#     Edge 107, Type (0, 0), BuildingBlock: AJUNOK_clean_linker_0, # of connection points: 2
#     Edge 108, Type (0, 0), BuildingBlock: AJUNOK_clean_linker_0, # of connection points: 2
#     Edge 109, Type (0, 0), BuildingBlock: AJUNOK_clean_linker_0, # of connection points: 2
#     Edge 110, Type (0, 0), BuildingBlock: AJUNOK_clean_linker_0, # of connection points: 2
#     Edge 111, Type (0, 0), BuildingBlock: AJUNOK_clean_linker_0, # of connection points: 2
#     Edge 112, Type (0, 0), BuildingBlock: AJUNOK_clean_linker_0, # of connection points: 2
#     Edge 113, Type (0, 0), BuildingBlock: AJUNOK_clean_linker_0, # of connection points: 2
#     Edge 114, Type (0, 0), BuildingBlock: AJUNOK_clean_linker_0, # of connection points: 2
#     Edge 115, Type (0, 0), BuildingBlock: AJUNOK_clean_linker_0, # of connection points: 2
#     Edge 116, Type (0, 0), BuildingBlock: AJUNOK_clean_linker_0, # of connection points: 2
#     Edge 117, Type (0, 0), BuildingBlock: AJUNOK_clean_linker_0, # of connection points: 2
#     Edge 118, Type (0, 0), BuildingBlock: AJUNOK_clean_linker_0, # of connection points: 2
#     Edge 119, Type (0, 0), BuildingBlock: AJUNOK_clean_linker_0, # of connection points: 2
#     Edge 120, Type (0, 0), BuildingBlock: AJUNOK_clean_linker_0, # of connection points: 2
#     Edge 121, Type (0, 0), BuildingBlock: AJUNOK_clean_linker_0, # of connection points: 2
#     Edge 122, Type (0, 0), BuildingBlock: AJUNOK_clean_linker_0, # of connection points: 2
#     Edge 123, Type (0, 0), BuildingBlock: AJUNOK_clean_linker_0, # of connection points: 2
#     Edge 124, Type (0, 0), BuildingBlock: AJUNOK_clean_linker_0, # of connection points: 2
#     Edge 125, Type (0, 0), BuildingBlock: AJUNOK_clean_linker_0, # of connection points: 2
#     Edge 126, Type (0, 0), BuildingBlock: AJUNOK_clean_linker_0, # of connection points: 2
#     Edge 127, Type (0, 0), BuildingBlock: AJUNOK_clean_linker_0, # of connection points: 2
#     Edge 128, Type (0, 0), BuildingBlock: AJUNOK_clean_linker_0, # of connection points: 2
#     Edge 129, Type (0, 0), BuildingBlock: AJUNOK_clean_linker_0, # of connection points: 2
#     Edge 130, Type (0, 0), BuildingBlock: AJUNOK_clean_linker_0, # of connection points: 2
#     Edge 131, Type (0, 0), BuildingBlock: AJUNOK_clean_linker_0, # of connection points: 2
#     Edge 132, Type (0, 0), BuildingBlock: AJUNOK_clean_linker_0, # of connection points: 2
#     Edge 133, Type (0, 0), BuildingBlock: AJUNOK_clean_linker_0, # of connection points: 2
#     Edge 134, Type (0, 0), BuildingBlock: AJUNOK_clean_linker_0, # of connection points: 2
#     Edge 135, Type (0, 0), BuildingBlock: AJUNOK_clean_linker_0, # of connection points: 2
#     Edge 136, Type (0, 0), BuildingBlock: AJUNOK_clean_linker_0, # of connection points: 2
#     Edge 137, Type (0, 0), BuildingBlock: AJUNOK_clean_linker_0, # of connection points: 2
#     Edge 138, Type (0, 0), BuildingBlock: AJUNOK_clean_linker_0, # of connection points: 2
#     Edge 139, Type (0, 0), BuildingBlock: AJUNOK_clean_linker_0, # of connection points: 2
#     Edge 140, Type (0, 0), BuildingBlock: AJUNOK_clean_linker_0, # of connection points: 2
#     Edge 141, Type (0, 0), BuildingBlock: AJUNOK_clean_linker_0, # of connection points: 2
#     Edge 142, Type (0, 0), BuildingBlock: AJUNOK_clean_linker_0, # of connection points: 2
#     Edge 143, Type (0, 0), BuildingBlock: AJUNOK_clean_linker_0, # of connection points: 2
#     Edge 144, Type (0, 0), BuildingBlock: AJUNOK_clean_linker_0, # of connection points: 2
#     Edge 145, Type (0, 0), BuildingBlock: AJUNOK_clean_linker_0, # of connection points: 2
#     Edge 146, Type (0, 0), BuildingBlock: AJUNOK_clean_linker_0, # of connection points: 2
#     Edge 147, Type (0, 0), BuildingBlock: AJUNOK_clean_linker_0, # of connection points: 2
#     Edge 148, Type (0, 0), BuildingBlock: AJUNOK_clean_linker_0, # of connection points: 2
#     Edge 149, Type (0, 0), BuildingBlock: AJUNOK_clean_linker_0, # of connection points: 2
#     Edge 150, Type (0, 0), BuildingBlock: AJUNOK_clean_linker_0, # of connection points: 2
#     Edge 151, Type (0, 0), BuildingBlock: AJUNOK_clean_linker_0, # of connection points: 2
#     Edge 152, Type (0, 0), BuildingBlock: AJUNOK_clean_linker_0, # of connection points: 2
#     Edge 153, Type (0, 0), BuildingBlock: AJUNOK_clean_linker_0, # of connection points: 2
#     Edge 154, Type (0, 0), BuildingBlock: AJUNOK_clean_linker_0, # of connection points: 2
#     Edge 155, Type (0, 0), BuildingBlock: AJUNOK_clean_linker_0, # of connection points: 2
#     Edge 156, Type (0, 0), BuildingBlock: AJUNOK_clean_linker_0, # of connection points: 2
#     Edge 157, Type (0, 0), BuildingBlock: AJUNOK_clean_linker_0, # of connection points: 2
#     Edge 158, Type (0, 0), BuildingBlock: AJUNOK_clean_linker_0, # of connection points: 2
#     Edge 159, Type (0, 0), BuildingBlock: AJUNOK_clean_linker_0, # of connection points: 2
#     Edge 160, Type (0, 0), BuildingBlock: AJUNOK_clean_linker_0, # of connection points: 2
#     Edge 161, Type (0, 0), BuildingBlock: AJUNOK_clean_linker_0, # of connection points: 2
#     Edge 162, Type (0, 0), BuildingBlock: AJUNOK_clean_linker_0, # of connection points: 2
#     Edge 163, Type (0, 0), BuildingBlock: AJUNOK_clean_linker_0, # of connection points: 2
#     Edge 164, Type (0, 0), BuildingBlock: AJUNOK_clean_linker_0, # of connection points: 2
#     Edge 165, Type (0, 0), BuildingBlock: AJUNOK_clean_linker_0, # of connection points: 2
#     Edge 166, Type (0, 0), BuildingBlock: AJUNOK_clean_linker_0, # of connection points: 2
#     Edge 167, Type (0, 0), BuildingBlock: AJUNOK_clean_linker_0, # of connection points: 2
# Relax obj value: 0.294
# Max RMSD: 0.171
# Mean RMSD: 0.171
data_MOF--net-fcr--node1-BEQFEK_clean_sbu_0--edge1-AJUNOK_clean_linker_0
_symmetry_space_group_name_H-M    P1
_symmetry_Int_Tables_number       1
_symmetry_cell_setting            triclinic
loop_
_symmetry_equiv_pos_as_xyz
'x, y, z'
_cell_length_a     49.213462
_cell_length_b     49.308632
_cell_length_c     49.259331
_cell_angle_alpha  90.066967
_cell_angle_beta   90.023163
_cell_angle_gamma 89.954204
loop_
_atom_site_label
_atom_site_type_symbol
_atom_site_fract_x
_atom_site_fract_y
_atom_site_fract_z
_atom_type_partial_charge
Co0 Co 0.12579 0.30504 0.27404 0.0
Co1 Co 0.10059 0.35286 0.24133 0.0
C2 C 0.12519 0.35936 0.29868 0.0
O3 O 0.13039 0.33416 0.30072 0.0
O4 O 0.11348 0.3688 0.27749 0.0
C5 C 0.13748 0.2577 0.30649 0.0
O6 O 0.11947 0.26665 0.32401 0.0
C7 C 0.11369 0.40269 0.21205 0.0
C8 C 0.08097 0.40552 0.18164 0.0
C9 C 0.10568 0.41696 0.18903 0.0
N10 N 0.09487 0.38355 0.21759 0.0
N11 N 0.075 0.38585 0.1997 0.0
C12 C 0.14069 0.40433 0.22603 0.0
H13 H 0.14549 0.3851 0.23662 0.0
H14 H 0.15708 0.40917 0.21134 0.0
H15 H 0.13995 0.42071 0.24146 0.0
C16 C 0.16531 0.30686 0.22967 0.0
N17 N 0.14225 0.31533 0.24152 0.0
N18 N 0.13008 0.33309 0.22579 0.0
C19 C 0.14447 0.33535 0.20254 0.0
C20 C 0.16748 0.31929 0.20461 0.0
C21 C 0.18572 0.28868 0.243 0.0
H22 H 0.17965 0.26726 0.23976 0.0
H23 H 0.18636 0.2927 0.26515 0.0
H24 H 0.20632 0.29169 0.23438 0.0
O25 O 0.08809 0.29404 0.26709 0.0
O26 O 0.06762 0.32701 0.24422 0.0
H27 H 0.1128 0.3514 0.17705 0.0
H28 H 0.14254 0.33949 0.1591 0.0
C29 C 0.13527 0.3501 0.17762 0.0
H30 H 0.14401 0.37077 0.17734 0.0
H31 H 0.05843 0.37273 0.19856 0.0
O32 O 0.14351 0.27175 0.28583 0.0
C33 C 0.06729 0.30326 0.25494 0.0
Co34 Co 0.5587 0.66059 1.01498 0.0
Co35 Co 0.60552 0.68608 0.049 0.0
C36 C 0.61393 0.66086 0.99215 0.0
O37 O 0.58879 0.65551 0.98913 0.0
O38 O 0.62234 0.67305 1.01349 0.0
C39 C 0.5142 0.64448 0.9797 0.0
O40 O 0.52512 0.65956 0.96065 0.0
C41 C 0.6549 0.67295 0.07905 0.0
C42 C 0.65823 0.7062 0.1088 0.0
C43 C 0.66949 0.68133 0.10173 0.0
N44 N 0.63583 0.69179 0.07325 0.0
N45 N 0.63837 0.71193 0.09078 0.0
C46 C 0.65614 0.64558 0.06584 0.0
H47 H 0.63722 0.64117 0.05447 0.0
H48 H 0.65973 0.62952 0.08121 0.0
H49 H 0.67329 0.64514 0.0513 0.0
C50 C 0.55932 0.62172 0.05996 0.0
N51 N 0.5681 0.64458 0.04806 0.0
N52 N 0.58538 0.65693 0.06417 0.0
C53 C 0.58704 0.64294 0.08767 0.0
C54 C 0.57108 0.61993 0.08542 0.0
C55 C 0.54149 0.6012 0.04635 0.0
H56 H 0.52 0.60776 0.04813 0.0
H57 H 0.5467 0.59975 0.02449 0.0
H58 H 0.54368 0.58088 0.05575 0.0
O59 O 0.54728 0.69849 0.0213 0.0
O60 O 0.57968 0.71872 0.0453 0.0
H61 H 0.60236 0.67499 0.11311 0.0
H62 H 0.58998 0.64558 0.13118 0.0
C63 C 0.60111 0.65255 0.11287 0.0
H64 H 0.62184 0.6439 0.11389 0.0
H65 H 0.6254 0.72866 0.0916 0.0
O66 O 0.52585 0.64227 1.00253 0.0
C67 C 0.55628 0.71925 0.03373 0.0
Co68 Co 0.91468 0.22848 0.27559 0.0
Co69 Co 0.93908 0.1809 0.24179 0.0
C70 C 0.91471 0.17324 0.29887 0.0
O71 O 0.90993 0.19849 0.30149 0.0
O72 O 0.92628 0.16412 0.27747 0.0
C73 C 0.88137 0.26426 0.30874 0.0
O74 O 0.87455 0.24274 0.32286 0.0
C75 C 0.92625 0.13172 0.21114 0.0
C76 C 0.95879 0.13032 0.18045 0.0
C77 C 0.93419 0.11849 0.18753 0.0
N78 N 0.94488 0.15087 0.21727 0.0
N79 N 0.96469 0.14936 0.19924 0.0
C80 C 0.89941 0.12896 0.22519 0.0
H81 H 0.89486 0.14716 0.23761 0.0
H82 H 0.88287 0.12566 0.21021 0.0
H83 H 0.90013 0.11101 0.23872 0.0
C84 C 0.87468 0.22778 0.23121 0.0
N85 N 0.89781 0.21906 0.24281 0.0
N86 N 0.90962 0.20122 0.22686 0.0
C87 C 0.89498 0.19917 0.20373 0.0
C88 C 0.87209 0.21534 0.20613 0.0
C89 C 0.85459 0.24604 0.24493 0.0
H90 H 0.86263 0.26705 0.24509 0.0
H91 H 0.8518 0.23946 0.26626 0.0
H92 H 0.83459 0.24586 0.23457 0.0
O93 O 0.95259 0.23931 0.26854 0.0
O94 O 0.97219 0.2063 0.24498 0.0
H95 H 0.89649 0.1956 0.16022 0.0
H96 H 0.8951 0.16411 0.17796 0.0
C97 C 0.90391 0.18474 0.17851 0.0
H98 H 0.92636 0.18343 0.17768 0.0
H99 H 0.98112 0.16268 0.19851 0.0
O100 O 0.89766 0.26181 0.28897 0.0
C101 C 0.97315 0.22984 0.25612 0.0
Co102 Co 0.48081 0.87052 1.01324 0.0
Co103 Co 0.43328 0.84711 0.04755 0.0
C104 C 0.42554 0.87135 0.99032 0.0
O105 O 0.45084 0.87581 0.98758 0.0
O106 O 0.4164 0.85995 1.01179 0.0
C107 C 0.51847 0.90093 0.97919 0.0
O108 O 0.49795 0.90732 0.96337 0.0
C109 C 0.38446 0.86079 0.07856 0.0
C110 C 0.38278 0.82835 0.10925 0.0
C111 C 0.37123 0.85309 0.10224 0.0
N112 N 0.40334 0.84189 0.07233 0.0
N113 N 0.40167 0.82217 0.09039 0.0
C114 C 0.38188 0.88751 0.06437 0.0
H115 H 0.40017 0.89181 0.05198 0.0
H116 H 0.37864 0.90413 0.07924 0.0
H117 H 0.36393 0.88684 0.05075 0.0
C118 C 0.48248 0.90984 0.05778 0.0
N119 N 0.47226 0.88745 0.04607 0.0
N120 N 0.45422 0.8763 0.06225 0.0
C121 C 0.45339 0.89077 0.08557 0.0
C122 C 0.47095 0.91257 0.08325 0.0
C123 C 0.50124 0.92922 0.04381 0.0
H124 H 0.5221 0.92065 0.04373 0.0
H125 H 0.49468 0.93198 0.02245 0.0
H126 H 0.50159 0.94928 0.05401 0.0
O127 O 0.49113 0.83284 0.02032 0.0
O128 O 0.45847 0.8136 0.04459 0.0
H129 H 0.43529 0.86078 0.11159 0.0
H130 H 0.44928 0.88976 0.12905 0.0
C131 C 0.43811 0.88303 0.11065 0.0
H132 H 0.4181 0.89333 0.11081 0.0
H133 H 0.41478 0.80556 0.09105 0.0
O134 O 0.51446 0.88643 0.99997 0.0
C135 C 0.48191 0.81258 0.0332 0.0
Co136 Co 0.12446 0.7307 0.26394 0.0
Co137 Co 0.10073 0.68288 0.29793 0.0
C138 C 0.12554 0.67589 0.24048 0.0
O139 O 0.13027 0.70111 0.23797 0.0
O140 O 0.11385 0.66681 0.26182 0.0
C141 C 0.13959 0.77507 0.2283 0.0
O142 O 0.1253 0.76332 0.20909 0.0
C143 C 0.11875 0.63526 0.32877 0.0
C144 C 0.08455 0.62649 0.35621 0.0
C145 C 0.11112 0.6189 0.35045 0.0
N146 N 0.09804 0.65221 0.32258 0.0
N147 N 0.07752 0.64657 0.33892 0.0
C148 C 0.14538 0.63476 0.31406 0.0
H149 H 0.14201 0.63677 0.29195 0.0
H150 H 0.15801 0.65216 0.32066 0.0
H151 H 0.1566 0.61564 0.31805 0.0
C152 C 0.1626 0.73252 0.30965 0.0
N153 N 0.14091 0.72202 0.29687 0.0
N154 N 0.12859 0.7048 0.31297 0.0
C155 C 0.14102 0.70521 0.33735 0.0
C156 C 0.16332 0.72223 0.33581 0.0
C157 C 0.18298 0.75073 0.2964 0.0
H158 H 0.17565 0.77198 0.29755 0.0
H159 H 0.18531 0.7452 0.27468 0.0
H160 H 0.20305 0.74942 0.30659 0.0
O161 O 0.08615 0.74047 0.27093 0.0
O162 O 0.06678 0.70737 0.29471 0.0
H163 H 0.10769 0.68991 0.36106 0.0
H164 H 0.13469 0.70556 0.38054 0.0
C165 C 0.12998 0.69266 0.36266 0.0
H166 H 0.13971 0.6728 0.36599 0.0
H167 H 0.05909 0.65709 0.33899 0.0
O168 O 0.14161 0.76398 0.2514 0.0
C169 C 0.06564 0.73084 0.28336 0.0
Co170 Co 0.98145 0.6635 0.02418 0.0
Co171 Co 0.93405 0.68638 0.98903 0.0
C172 C 0.92615 0.66415 0.04691 0.0
O173 O 0.95144 0.65974 0.0499 0.0
O174 O 0.91703 0.67477 0.02502 0.0
C175 C 0.02058 0.63935 0.06176 0.0
O176 O 1.00314 0.64299 0.08161 0.0
C177 C 0.88444 0.67366 0.95843 0.0
C178 C 0.88471 0.70462 0.92621 0.0
C179 C 0.87183 0.68089 0.93422 0.0
N180 N 0.90428 0.69177 0.96394 0.0
N181 N 0.90375 0.71067 0.94495 0.0
C182 C 0.88025 0.64793 0.974 0.0
H183 H 0.87485 0.63097 0.96017 0.0
H184 H 0.86316 0.65086 0.98839 0.0
H185 H 0.8987 0.6426 0.98577 0.0
C186 C 0.98121 0.62179 0.98215 0.0
N187 N 0.97231 0.64551 0.99219 0.0
N188 N 0.95445 0.65622 0.97547 0.0
C189 C 0.95262 0.64006 0.95334 0.0
C190 C 0.96901 0.61764 0.95731 0.0
C191 C 1.00053 0.60318 0.99646 0.0
H192 H 0.02105 0.61245 0.9965 0.0
H193 H 0.99402 0.60053 1.01785 0.0
H194 H 1.00179 0.58309 0.98637 0.0
O195 O 0.99254 0.70063 1.01591 0.0
O196 O 0.95975 0.71948 0.99138 0.0
H197 H 0.9333 0.6677 0.92562 0.0
H198 H 0.94617 0.63714 0.91023 0.0
C199 C 0.93605 0.64562 0.92849 0.0
H200 H 0.91608 0.63545 0.93026 0.0
H201 H 0.91773 0.72651 0.94364 0.0
O202 O 1.0144 0.64657 0.03788 0.0
C203 C 0.98329 0.7206 1.00257 0.0
Co204 Co 0.91324 0.8081 0.26598 0.0
Co205 Co 0.93925 0.85467 0.29998 0.0
C206 C 0.91401 0.86312 0.24311 0.0
O207 O 0.90832 0.8381 0.24016 0.0
O208 O 0.92641 0.87144 0.26437 0.0
C209 C 0.90211 0.7608 0.23329 0.0
O210 O 0.92123 0.76925 0.21675 0.0
C211 C 0.92584 0.90368 0.33058 0.0
C212 C 0.95892 0.90648 0.36057 0.0
C213 C 0.93387 0.91755 0.35376 0.0
N214 N 0.94492 0.88497 0.32431 0.0
N215 N 0.96502 0.88731 0.34196 0.0
C216 C 0.89851 0.90542 0.31731 0.0
H217 H 0.89519 0.88827 0.30314 0.0
H218 H 0.88222 0.90564 0.33289 0.0
H219 H 0.8971 0.92476 0.30593 0.0
C220 C 0.87478 0.80835 0.31142 0.0
N221 N 0.89735 0.8175 0.29915 0.0
N222 N 0.90984 0.83476 0.31521 0.0
C223 C 0.89618 0.83603 0.33897 0.0
C224 C 0.87342 0.81971 0.33707 0.0
C225 C 0.85407 0.79057 0.29804 0.0
H226 H 0.85236 0.79574 0.2762 0.0
H227 H 0.83386 0.79274 0.3078 0.0
H228 H 0.86063 0.76913 0.29975 0.0
O229 O 0.95106 0.7966 0.27234 0.0
O230 O 0.97192 0.82853 0.29637 0.0
H231 H 0.92802 0.85266 0.36393 0.0
H232 H 0.89975 0.8385 0.3824 0.0
C233 C 0.90566 0.85023 0.36411 0.0
H234 H 0.89568 0.87031 0.36566 0.0
H235 H 0.98186 0.87447 0.34256 0.0
O236 O 0.89518 0.77515 0.2535 0.0
C237 C 0.97197 0.80513 0.28485 0.0
Co238 Co 0.05766 0.87084 0.02804 0.0
Co239 Co 0.10435 0.85001 0.99082 0.0
C240 C 0.11387 0.87168 0.0488 0.0
O241 O 0.08858 0.87535 0.0528 0.0
O242 O 0.12236 0.86149 0.02644 0.0
C243 C 0.02082 0.90033 0.06419 0.0
O244 O 0.04189 0.90779 0.07878 0.0
C245 C 0.15317 0.864 0.95964 0.0
C246 C 0.15359 0.83292 0.92741 0.0
C247 C 0.16628 0.85671 0.93564 0.0
N248 N 0.13352 0.84565 0.96491 0.0
N249 N 0.13434 0.82679 0.94587 0.0
C250 C 0.15661 0.88982 0.97533 0.0
H251 H 0.13751 0.8953 0.98595 0.0
H252 H 0.16289 0.90668 0.9618 0.0
H253 H 0.17261 0.88686 0.9909 0.0
C254 C 0.05508 0.91326 0.98656 0.0
N255 N 0.06492 0.88964 0.99594 0.0
N256 N 0.08267 0.87977 0.97856 0.0
C257 C 0.08355 0.89639 0.95678 0.0
C258 C 0.06658 0.91821 0.96154 0.0
C259 C 0.03616 0.9314 1.00195 0.0
H260 H 1.01617 0.92123 1.00405 0.0
H261 H 0.04439 0.93502 0.02261 0.0
H262 H 0.03314 0.9511 0.99151 0.0
O263 O 0.04751 0.83349 0.01929 0.0
O264 O 0.07965 0.81626 0.99289 0.0
H265 H 0.1034 0.87005 0.92811 0.0
H266 H 0.08922 0.90055 0.91374 0.0
C267 C 0.09994 0.89195 0.9316 0.0
H268 H 0.11961 0.90271 0.9334 0.0
H269 H 0.12063 0.81071 0.9445 0.0
O270 O 0.02431 0.88563 0.0434 0.0
C271 C 0.05666 0.81412 1.00499 0.0
Co272 Co 0.27433 0.12297 0.30802 0.0
Co273 Co 0.24175 0.09738 0.35554 0.0
C274 C 0.29868 0.12277 0.3625 0.0
O275 O 0.30071 0.12808 0.33732 0.0
O276 O 0.27765 0.11065 0.37178 0.0
C277 C 0.30687 0.13449 0.26089 0.0
O278 O 0.32422 0.11636 0.26991 0.0
C279 C 0.21135 0.11031 0.40471 0.0
C280 C 0.18175 0.07693 0.40738 0.0
C281 C 0.18812 0.10208 0.41842 0.0
N282 N 0.21789 0.09133 0.38603 0.0
N283 N 0.20053 0.07104 0.38831 0.0
C284 C 0.22463 0.13757 0.40659 0.0
H285 H 0.23742 0.1416 0.38854 0.0
H286 H 0.20911 0.15379 0.40874 0.0
H287 H 0.2377 0.13809 0.42494 0.0
C288 C 0.22865 0.16094 0.30838 0.0
N289 N 0.24131 0.13875 0.31785 0.0
N290 N 0.2257 0.12646 0.33561 0.0
C291 C 0.20176 0.13988 0.33691 0.0
C292 C 0.20311 0.16223 0.32 0.0
C293 C 0.24166 0.18145 0.29015 0.0
H294 H 0.23986 0.17453 0.2688 0.0
H295 H 0.26354 0.18347 0.29516 0.0
H296 H 0.23171 0.20156 0.29207 0.0
O297 O 0.26801 0.0853 0.29681 0.0
O298 O 0.24505 0.06459 0.32955 0.0
H299 H 0.17731 0.10827 0.35447 0.0
H300 H 0.15836 0.13634 0.34054 0.0
C301 C 0.17701 0.13056 0.35184 0.0
H302 H 0.17603 0.14068 0.3719 0.0
H303 H 0.20017 0.05424 0.37544 0.0
O304 O 0.2862 0.14075 0.27488 0.0
C305 C 0.2559 0.06444 0.30583 0.0
Co306 Co 0.37239 0.51294 0.98077 0.0
Co307 Co 0.34908 0.54718 0.93281 0.0
C308 C 0.37361 0.48986 0.92553 0.0
O309 O 0.37805 0.4872 0.95085 0.0
O310 O 0.36217 0.51129 0.91631 0.0
C311 C 0.38846 0.47681 0.0248 0.0
O312 O 0.37489 0.45738 1.01259 0.0
C313 C 0.36317 0.57715 0.88355 0.0
C314 C 0.33089 0.60804 0.88089 0.0
C315 C 0.35556 0.60043 0.86947 0.0
N316 N 0.34417 0.57167 0.90254 0.0
N317 N 0.32458 0.58987 0.90035 0.0
C318 C 0.38997 0.56278 0.88191 0.0
H319 H 0.39473 0.55244 0.9013 0.0
H320 H 0.40654 0.57714 0.87675 0.0
H321 H 0.38889 0.54711 0.86578 0.0
C322 C 0.41247 0.557 0.9808 0.0
N323 N 0.38928 0.54578 0.97178 0.0
N324 N 0.37799 0.56187 0.95379 0.0
C325 C 0.39295 0.58475 0.95197 0.0
C326 C 0.41558 0.58201 0.96845 0.0
C327 C 0.43226 0.54292 0.9991 0.0
H328 H 0.42525 0.54492 0.02041 0.0
H329 H 0.43321 0.52103 0.99396 0.0
H330 H 0.45292 0.55174 0.9974 0.0
O331 O 0.33396 0.5191 0.99068 0.0
O332 O 0.31566 0.54419 0.95787 0.0
H333 H 0.36224 0.61119 0.93565 0.0
H334 H 0.39233 0.62819 0.94799 0.0
C335 C 0.38466 0.60996 0.9372 0.0
H336 H 0.39364 0.61009 0.91661 0.0
H337 H 0.30792 0.59106 0.91338 0.0
O338 O 0.38971 0.50015 1.01411 0.0
C339 C 0.31391 0.53205 0.98085 0.0
Co340 Co 0.76056 0.4158 0.30706 0.0
Co341 Co 0.79825 0.43685 0.35321 0.0
C342 C 0.74025 0.41548 0.36322 0.0
O343 O 0.73584 0.4117 0.33804 0.0
O344 O 0.76271 0.42574 0.37131 0.0
C345 C 0.72385 0.38566 0.27197 0.0
O346 O 0.70996 0.37914 0.29377 0.0
C347 C 0.82965 0.42253 0.40192 0.0
C348 C 0.862 0.45339 0.40218 0.0
C349 C 0.85378 0.42956 0.4147 0.0
N350 N 0.82419 0.44099 0.3824 0.0
N351 N 0.8433 0.45979 0.38322 0.0
C352 C 0.81416 0.3967 0.40576 0.0
H353 H 0.80073 0.39258 0.38816 0.0
H354 H 0.82829 0.37941 0.40881 0.0
H355 H 0.8016 0.39846 0.42436 0.0
C356 C 0.80165 0.37264 0.30526 0.0
N357 N 0.79262 0.39669 0.31443 0.0
N358 N 0.81029 0.40683 0.33172 0.0
C359 C 0.83198 0.39002 0.33282 0.0
C360 C 0.82679 0.36767 0.31668 0.0
C361 C 0.7859 0.35423 0.28691 0.0
H362 H 0.78335 0.36412 0.26686 0.0
H363 H 0.76541 0.35072 0.2956 0.0
H364 H 0.79634 0.33449 0.28394 0.0
O365 O 0.76944 0.45311 0.29652 0.0
O366 O 0.79605 0.47051 0.32841 0.0
H367 H 0.86075 0.41677 0.35201 0.0
H368 H 0.87526 0.38654 0.33746 0.0
C369 C 0.8575 0.39483 0.34862 0.0
H370 H 0.85643 0.38398 0.36825 0.0
H371 H 0.8446 0.47592 0.3696 0.0
O372 O 0.74466 0.40059 0.27417 0.0
C373 C 0.78377 0.47255 0.30551 0.0
Co374 Co 0.66638 0.02514 0.97939 0.0
Co375 Co 0.68964 0.98584 0.93548 0.0
C376 C 0.66661 0.04299 0.92308 0.0
O377 O 0.6613 0.04863 0.94771 0.0
O378 O 0.67767 0.0205 0.91635 0.0
C379 C 0.65362 0.06193 0.02462 0.0
O380 O 0.67086 0.07984 1.01505 0.0
C381 C 0.67586 0.9546 0.88708 0.0
C382 C 0.70673 0.92218 0.88637 0.0
C383 C 0.68294 0.9307 0.87377 0.0
N384 N 0.69434 0.95963 0.90671 0.0
N385 N 0.71309 0.94046 0.90576 0.0
C386 C 0.64999 0.97035 0.88394 0.0
H387 H 0.64423 0.98019 0.90334 0.0
H388 H 0.63315 0.95709 0.87698 0.0
H389 H 0.65312 0.98658 0.86868 0.0
C390 C 0.62492 0.98255 0.98208 0.0
N391 N 0.6489 0.99191 0.97301 0.0
N392 N 0.65994 0.9738 0.9568 0.0
C393 C 0.64388 0.9516 0.95631 0.0
C394 C 0.62107 0.95678 0.97182 0.0
C395 C 0.60556 0.99853 0.99923 0.0
H396 H 0.61364 0.99969 0.02022 0.0
H397 H 0.6038 0.01949 0.99124 0.0
H398 H 0.58516 0.98898 0.99996 0.0
O399 O 0.70466 0.01944 0.98966 0.0
O400 O 0.72265 0.98968 0.96087 0.0
H401 H 0.67158 0.92303 0.93823 0.0
H402 H 0.641 0.90828 0.95181 0.0
C403 C 0.64946 0.92603 0.94089 0.0
H404 H 0.63926 0.92692 0.92086 0.0
H405 H 0.7292 0.9389 0.91941 0.0
O406 O 0.64929 0.04003 1.01186 0.0
C407 C 0.72448 1.00473 0.98206 0.0
Co408 Co 0.27467 0.91265 0.22947 0.0
Co409 Co 0.24153 0.93777 0.18182 0.0
C410 C 0.29856 0.91281 0.17465 0.0
O411 O 0.30083 0.90773 0.19986 0.0
O412 O 0.27737 0.92472 0.16541 0.0
C413 C 0.30949 0.89843 0.2746 0.0
O414 O 0.32767 0.91494 0.26426 0.0
C415 C 0.21119 0.9248 0.13248 0.0
C416 C 0.1805 0.95729 0.13067 0.0
C417 C 0.18761 0.93259 0.11909 0.0
N418 N 0.2173 0.94362 0.15147 0.0
N419 N 0.19927 0.9634 0.14969 0.0
C420 C 0.22514 0.89788 0.13011 0.0
H421 H 0.23766 0.89362 0.1483 0.0
H422 H 0.21006 0.8814 0.12719 0.0
H423 H 0.23857 0.89818 0.11203 0.0
C424 C 0.22988 0.87356 0.22829 0.0
N425 N 0.24185 0.89643 0.2196 0.0
N426 N 0.22608 0.90853 0.20182 0.0
C427 C 0.20269 0.89434 0.19978 0.0
C428 C 0.20472 0.87147 0.21592 0.0
C429 C 0.24315 0.85335 0.2467 0.0
H430 H 0.2411 0.86037 0.26801 0.0
H431 H 0.2651 0.85175 0.24185 0.0
H432 H 0.23369 0.83303 0.24479 0.0
O433 O 0.26812 0.95043 0.24064 0.0
O434 O 0.24493 0.97058 0.20766 0.0
H435 H 0.17715 0.92609 0.18406 0.0
H436 H 0.15917 0.89664 0.19632 0.0
C437 C 0.17758 0.90368 0.1854 0.0
H438 H 0.17688 0.89481 0.16477 0.0
H439 H 0.19847 0.97994 0.1629 0.0
O440 O 0.28716 0.89459 0.26237 0.0
C441 C 0.25599 0.97119 0.23129 0.0
Co442 Co 0.16398 0.51082 0.05976 0.0
Co443 Co 0.18881 0.54662 0.10587 0.0
C444 C 0.16416 0.48944 0.11531 0.0
O445 O 0.15879 0.48581 0.09027 0.0
O446 O 0.17623 0.51103 0.12331 0.0
C447 C 0.15019 0.47714 1.01265 0.0
O448 O 0.16692 0.45836 0.02149 0.0
C449 C 0.17593 0.57855 0.1546 0.0
C450 C 0.2085 0.60917 0.15516 0.0
C451 C 0.18391 0.60248 0.16726 0.0
N452 N 0.19449 0.57193 0.13547 0.0
N453 N 0.21429 0.58998 0.13649 0.0
C454 C 0.14915 0.56452 0.15795 0.0
H455 H 0.14498 0.55079 0.14062 0.0
H456 H 0.13247 0.57955 0.15995 0.0
H457 H 0.14962 0.55245 0.17692 0.0
C458 C 0.12382 0.55466 0.05991 0.0
N459 N 0.14741 0.5439 0.06845 0.0
N460 N 0.15916 0.56065 0.08559 0.0
C461 C 0.14393 0.58341 0.08727 0.0
C462 C 0.12099 0.57994 0.07156 0.0
C463 C 0.10335 0.54011 0.04278 0.0
H464 H 0.10263 0.51836 0.04846 0.0
H465 H 0.0828 0.54914 0.04503 0.0
H466 H 0.10944 0.54165 0.02119 0.0
O467 O 0.20217 0.51647 0.04902 0.0
O468 O 0.22143 0.54333 0.07965 0.0
H469 H 0.17388 0.61037 0.10426 0.0
H470 H 0.14442 0.62685 0.09006 0.0
C471 C 0.15159 0.60898 0.10175 0.0
H472 H 0.14136 0.60979 0.12176 0.0
H473 H 0.2307 0.59037 0.1231 0.0
O474 O 0.14605 0.49835 0.02659 0.0
C475 C 0.22254 0.53005 0.05721 0.0
Co476 Co 0.76718 0.62407 0.22891 0.0
Co477 Co 0.80119 0.59887 0.18228 0.0
C478 C 0.74418 0.62351 0.17383 0.0
O479 O 0.74134 0.62892 0.19892 0.0
O480 O 0.76552 0.61141 0.1653 0.0
C481 C 0.72986 0.64612 0.26863 0.0
O482 O 0.70988 0.63795 0.25295 0.0
C483 C 0.83151 0.61186 0.13322 0.0
C484 C 0.86189 0.57911 0.13082 0.0
C485 C 0.85471 0.60385 0.11943 0.0
N486 N 0.82553 0.59306 0.15219 0.0
N487 N 0.84339 0.57315 0.15013 0.0
C488 C 0.8179 0.63896 0.13113 0.0
H489 H 0.80426 0.64266 0.14863 0.0
H490 H 0.8333 0.65535 0.12996 0.0
H491 H 0.80585 0.63965 0.11212 0.0
C492 C 0.81232 0.66263 0.22978 0.0
N493 N 0.80021 0.64029 0.21995 0.0
N494 N 0.81633 0.62833 0.20238 0.0
C495 C 0.84 0.6422 0.20146 0.0
C496 C 0.83801 0.66446 0.21852 0.0
C497 C 0.79867 0.68273 0.2481 0.0
H498 H 0.77709 0.68517 0.24207 0.0
H499 H 0.80883 0.70279 0.24738 0.0
H500 H 0.79926 0.67504 0.26925 0.0
O501 O 0.77381 0.58649 0.24047 0.0
O502 O 0.79783 0.56616 0.20815 0.0
H503 H 0.86536 0.61114 0.18407 0.0
H504 H 0.88351 0.63976 0.19799 0.0
C505 C 0.86506 0.63344 0.18665 0.0
H506 H 0.8658 0.64346 0.16655 0.0
H507 H 0.84421 0.55655 0.16322 0.0
O508 O 0.75421 0.64211 0.26144 0.0
C509 C 0.78647 0.56583 0.23162 0.0
Co510 Co 0.8739 0.02436 0.05909 0.0
Co511 Co 0.85041 0.98923 0.10609 0.0
C512 C 0.87476 0.0467 0.11419 0.0
O513 O 0.87969 0.04971 0.08902 0.0
O514 O 0.86312 0.02517 0.12292 0.0
C515 C 0.88512 0.05785 1.01171 0.0
O516 O 0.86792 0.07595 0.02108 0.0
C517 C 0.86353 0.95937 0.1557 0.0
C518 C 0.83159 0.92809 0.15724 0.0
C519 C 0.85584 0.9359 0.16939 0.0
N520 N 0.84502 0.9647 0.13618 0.0
N521 N 0.8256 0.94629 0.13771 0.0
C522 C 0.88997 0.97421 0.15831 0.0
H523 H 0.8953 0.98444 0.13901 0.0
H524 H 0.9066 0.96023 0.1643 0.0
H525 H 0.88791 0.99 0.17423 0.0
C526 C 0.91464 0.9811 0.05916 0.0
N527 N 0.89087 0.99147 0.06768 0.0
N528 N 0.87973 0.97488 0.08532 0.0
C529 C 0.89546 0.95246 0.08721 0.0
C530 C 0.91823 0.95611 0.07123 0.0
C531 C 0.93413 0.99553 0.04087 0.0
H532 H 0.92609 0.99511 0.01986 0.0
H533 H 0.93602 1.01704 0.04724 0.0
H534 H 0.95446 0.9858 0.04088 0.0
O535 O 0.83549 0.01894 0.04958 0.0
O536 O 0.81719 0.99206 0.08078 0.0
H537 H 0.86723 0.92572 0.10707 0.0
H538 H 0.89704 0.90936 0.09362 0.0
C539 C 0.88938 0.92787 0.1039 0.0
H540 H 0.90006 0.92929 0.12364 0.0
H541 H 0.80933 0.94499 0.12418 0.0
O542 O 0.89068 0.0369 0.02552 0.0
C543 C 0.81544 1.00544 0.05853 0.0
Co544 Co 0.30909 0.27028 0.12541 0.0
Co545 Co 0.35681 0.23714 0.10029 0.0
C546 C 0.3642 0.29393 0.12542 0.0
O547 O 0.33894 0.29618 0.13044 0.0
O548 O 0.37349 0.27279 0.1135 0.0
C549 C 0.26475 0.30587 0.14066 0.0
O550 O 0.27583 0.3244 0.12507 0.0
C551 C 0.4061 0.2062 0.11231 0.0
C552 C 0.40763 0.17647 0.07892 0.0
C553 C 0.41941 0.18284 0.10375 0.0
N554 N 0.38694 0.21281 0.09383 0.0
N555 N 0.38851 0.19534 0.07354 0.0
C556 C 0.40889 0.21969 0.13943 0.0
H557 H 0.39067 0.23203 0.1442 0.0
H558 H 0.41218 0.2044 0.15562 0.0
H559 H 0.42687 0.23324 0.13901 0.0
C560 C 0.3087 0.22469 0.16339 0.0
N561 N 0.31855 0.23721 0.14129 0.0
N562 N 0.33665 0.22158 0.12942 0.0
C563 C 0.33785 0.19782 0.14305 0.0
C564 C 0.3205 0.19928 0.16509 0.0
C565 C 0.28983 0.23771 0.18339 0.0
H566 H 0.26878 0.2368 0.17537 0.0
H567 H 0.29538 0.25933 0.1862 0.0
H568 H 0.29049 0.22734 0.20336 0.0
O569 O 0.29776 0.26389 0.08765 0.0
O570 O 0.33079 0.24062 0.06761 0.0
H571 H 0.35559 0.17289 0.11185 0.0
H572 H 0.34216 0.15447 0.14045 0.0
C573 C 0.35313 0.1731 0.13418 0.0
H574 H 0.37329 0.17267 0.14416 0.0
H575 H 0.3752 0.19505 0.05705 0.0
O576 O 0.27626 0.28306 0.14357 0.0
C577 C 0.30712 0.25162 0.06696 0.0
Co578 Co 0.30776 0.76487 0.41285 0.0
Co579 Co 0.35573 0.79744 0.43832 0.0
C580 C 0.36218 0.74023 0.41318 0.0
O581 O 0.33692 0.73822 0.40802 0.0
O582 O 0.37163 0.76132 0.42512 0.0
C583 C 0.25907 0.73398 0.40167 0.0
O584 O 0.26681 0.71701 0.42069 0.0
C585 C 0.40539 0.8274 0.4252 0.0
C586 C 0.40757 0.85788 0.45785 0.0
C587 C 0.41903 0.8508 0.43307 0.0
N588 N 0.3864 0.82138 0.44406 0.0
N589 N 0.3884 0.83931 0.46392 0.0
C590 C 0.40758 0.81357 0.39821 0.0
H591 H 0.38944 0.80092 0.39409 0.0
H592 H 0.41017 0.82869 0.38174 0.0
H593 H 0.42582 0.80032 0.39827 0.0
C594 C 0.31003 0.80922 0.3735 0.0
N595 N 0.31829 0.79735 0.3966 0.0
N596 N 0.33589 0.81309 0.40899 0.0
C597 C 0.33812 0.83643 0.39481 0.0
C598 C 0.32231 0.83436 0.37162 0.0
C599 C 0.2923 0.7958 0.35275 0.0
H600 H 0.29614 0.77364 0.35244 0.0
H601 H 0.29602 0.80416 0.33218 0.0
H602 H 0.27071 0.79933 0.35811 0.0
O603 O 0.29677 0.77166 0.45064 0.0
O604 O 0.32979 0.79438 0.47126 0.0
H605 H 0.34136 0.87986 0.39739 0.0
H606 H 0.37305 0.8623 0.39588 0.0
C607 C 0.35231 0.86149 0.40448 0.0
H608 H 0.35343 0.86179 0.42693 0.0
H609 H 0.37525 0.84016 0.48051 0.0
O610 O 0.27426 0.75359 0.39494 0.0
C611 C 0.30599 0.78367 0.47152 0.0
Co612 Co 1.016 0.47842 0.87255 0.0
Co613 Co 0.05007 0.43084 0.84902 0.0
C614 C 0.99276 0.42323 0.87302 0.0
O615 O 0.99015 0.44849 0.87766 0.0
O616 O 1.01421 0.41408 0.86154 0.0
C617 C 0.98084 0.51536 0.90224 0.0
O618 O 0.96522 0.49453 0.90784 0.0
C619 C 0.08022 0.38176 0.86271 0.0
C620 C 0.11164 0.37994 0.8309 0.0
C621 C 0.10395 0.36839 0.85542 0.0
N622 N 0.07457 0.40074 0.84379 0.0
N623 N 0.09304 0.39897 0.82441 0.0
C624 C 0.06554 0.37932 0.88923 0.0
H625 H 0.05351 0.39782 0.89356 0.0
H626 H 0.08007 0.37561 0.90606 0.0
H627 H 0.05152 0.36175 0.88817 0.0
C628 C 0.06037 0.47931 0.91241 0.0
N629 N 0.04877 0.46965 0.88966 0.0
N630 N 0.06479 0.45147 0.87846 0.0
C631 C 0.08789 0.44997 0.89325 0.0
C632 C 0.08556 0.46714 0.91538 0.0
C633 C 0.0465 0.49815 0.93183 0.0
H634 H 0.02497 0.49201 0.9343 0.0
H635 H 0.05653 0.49819 0.952 0.0
H636 H 0.04685 0.51901 0.9234 0.0
O637 O 0.02323 0.48887 0.83476 0.0
O638 O 0.04735 0.45602 0.81562 0.0
H639 H 0.13134 0.44524 0.89266 0.0
H640 H 0.11266 0.41438 0.89568 0.0
C641 C 0.11286 0.43443 0.88558 0.0
H642 H 0.11405 0.43185 0.8633 0.0
H643 H 0.09419 0.41215 0.8079 0.0
O644 O 1.00234 0.5119 0.88856 0.0
C645 C 0.03603 0.47947 0.81445 0.0
Co646 Co 0.73058 0.77322 0.41434 0.0
Co647 Co 0.68241 0.73856 0.43726 0.0
C648 C 0.67524 0.79677 0.41512 0.0
O649 O 0.70062 0.79923 0.4107 0.0
O650 O 0.66571 0.77506 0.42581 0.0
C651 C 0.77778 0.80704 0.40287 0.0
O652 O 0.76887 0.82474 0.42071 0.0
C653 C 0.63107 0.70879 0.42737 0.0
C654 C 0.63664 0.67243 0.45266 0.0
C655 C 0.6204 0.68292 0.4321 0.0
N656 N 0.65325 0.71246 0.44315 0.0
N657 N 0.6559 0.69089 0.4588 0.0
C658 C 0.62008 0.73033 0.40912 0.0
H659 H 0.63323 0.73225 0.39092 0.0
H660 H 0.59877 0.72612 0.40312 0.0
H661 H 0.62049 0.74991 0.42007 0.0
C662 C 0.72962 0.73137 0.37241 0.0
N663 N 0.72085 0.74146 0.39621 0.0
N664 N 0.70219 0.72537 0.40648 0.0
C665 C 0.6994 0.70379 0.38973 0.0
C666 C 0.7163 0.70727 0.36764 0.0
C667 C 0.74863 0.74568 0.35353 0.0
H668 H 0.76971 0.74316 0.36101 0.0
H669 H 0.74377 0.76765 0.353 0.0
H670 H 0.74739 0.73734 0.33264 0.0
O671 O 0.74177 0.76497 0.45157 0.0
O672 O 0.70875 0.7407 0.47015 0.0
H673 H 0.68291 0.67397 0.41663 0.0
H674 H 0.6893 0.66178 0.38279 0.0
C675 C 0.68217 0.67941 0.39489 0.0
H676 H 0.66105 0.68383 0.38871 0.0
H677 H 0.67203 0.68786 0.4722 0.0
O678 O 0.76379 0.78624 0.39716 0.0
C679 C 0.73234 0.75179 0.47155 0.0
Co680 Co 0.52035 0.55615 0.37549 0.0
Co681 Co 0.48742 0.60335 0.34937 0.0
C682 C 0.54318 0.61112 0.37697 0.0
O683 O 0.54552 0.58613 0.38297 0.0
O684 O 0.52292 0.61988 0.36326 0.0
C685 C 0.55301 0.50896 0.3876 0.0
O686 O 0.57066 0.518 0.36979 0.0
C687 C 0.45716 0.65272 0.36204 0.0
C688 C 0.42704 0.65505 0.32903 0.0
C689 C 0.43394 0.6665 0.35387 0.0
N690 N 0.46329 0.63368 0.34328 0.0
N691 N 0.44558 0.63571 0.32321 0.0
C692 C 0.47071 0.65483 0.3892 0.0
H693 H 0.48242 0.6362 0.39385 0.0
H694 H 0.45549 0.65849 0.40541 0.0
H695 H 0.4849 0.6723 0.38895 0.0
C696 C 0.47459 0.55677 0.41328 0.0
N697 N 0.48687 0.56538 0.39055 0.0
N698 N 0.47125 0.58305 0.37812 0.0
C699 C 0.44755 0.58496 0.39188 0.0
C700 C 0.44926 0.56882 0.41482 0.0
C701 C 0.48799 0.53938 0.43431 0.0
H702 H 0.51009 0.54368 0.43509 0.0
H703 H 0.47913 0.54295 0.45472 0.0
H704 H 0.48503 0.51776 0.42889 0.0
O705 O 0.5154 0.54549 0.33699 0.0
O706 O 0.49172 0.57786 0.31651 0.0
H707 H 0.40409 0.58891 0.38916 0.0
H708 H 0.42215 0.62026 0.39088 0.0
C709 C 0.4227 0.59956 0.3822 0.0
H710 H 0.42254 0.60076 0.35975 0.0
H711 H 0.44489 0.62259 0.30661 0.0
O712 O 0.53211 0.52286 0.39332 0.0
C713 C 0.50345 0.55459 0.31598 0.0
Co714 Co 0.23054 0.76338 0.62412 0.0
Co715 Co 0.18277 0.79662 0.59927 0.0
C716 C 0.17578 0.73923 0.62339 0.0
O717 O 0.20105 0.73691 0.62848 0.0
O718 O 0.16648 0.76059 0.6119 0.0
C719 C 0.27782 0.73043 0.6369 0.0
O720 O 0.2689 0.71244 0.61935 0.0
C721 C 0.1335 0.82702 0.61259 0.0
C722 C 0.13155 0.85762 0.58009 0.0
C723 C 0.12008 0.85058 0.60486 0.0
N724 N 0.1524 0.82087 0.59367 0.0
N725 N 0.15055 0.83886 0.5739 0.0
C726 C 0.13125 0.81312 0.63951 0.0
H727 H 0.12907 0.82823 0.65609 0.0
H728 H 0.11276 0.80025 0.63951 0.0
H729 H 0.14918 0.80009 0.64342 0.0
C730 C 0.22865 0.8075 0.66411 0.0
N731 N 0.22026 0.79583 0.64092 0.0
N732 N 0.20277 0.81182 0.62872 0.0
C733 C 0.20077 0.83512 0.64305 0.0
C734 C 0.21659 0.83278 0.66621 0.0
C735 C 0.24634 0.79382 0.68471 0.0
H736 H 0.26794 0.79738 0.67945 0.0
H737 H 0.24249 0.77166 0.68474 0.0
H738 H 0.24258 0.80199 0.70537 0.0
O739 O 0.24173 0.7705 0.58627 0.0
O740 O 0.20854 0.7936 0.56636 0.0
H741 H 0.18598 0.86078 0.61097 0.0
H742 H 0.19815 0.87862 0.64065 0.0
C743 C 0.18699 0.86043 0.63343 0.0
H744 H 0.1662 0.86155 0.6419 0.0
H745 H 0.16367 0.83962 0.55729 0.0
O746 O 0.26384 0.7514 0.64207 0.0
C747 C 0.23225 0.78271 0.5656 0.0
Co748 Co 1.0129 0.55548 0.66412 0.0
Co749 Co 0.04885 0.60243 0.68649 0.0
C750 C 0.99036 0.6109 0.66559 0.0
O751 O 0.98715 0.58569 0.6611 0.0
O752 O 1.01259 0.61983 0.67575 0.0
C753 C 0.97777 0.51882 0.6333 0.0
O754 O 0.96316 0.53982 0.62579 0.0
C755 C 0.07975 0.65193 0.67386 0.0
C756 C 0.11242 0.65085 0.70446 0.0
C757 C 0.10423 0.66413 0.68098 0.0
N758 N 0.0743 0.63191 0.69176 0.0
N759 N 0.09356 0.63196 0.71044 0.0
C760 C 0.06373 0.65676 0.64846 0.0
H761 H 0.0517 0.63855 0.64299 0.0
H762 H 0.0773 0.66236 0.63137 0.0
H763 H 0.04951 0.67387 0.65199 0.0
C764 C 0.05385 0.55616 0.62094 0.0
N765 N 0.04459 0.56446 0.64523 0.0
N766 N 0.06162 0.58213 0.65577 0.0
C767 C 0.0832 0.58438 0.6389 0.0
C768 C 0.07846 0.56866 0.61612 0.0
C769 C 0.03893 0.53728 0.60238 0.0
H770 H 0.03713 0.51714 0.61223 0.0
H771 H 1.01814 0.54518 0.59876 0.0
H772 H 0.04957 0.53472 0.58269 0.0
O773 O 0.02204 0.54432 0.70111 0.0
O774 O 0.04719 0.57668 0.71968 0.0
H775 H 0.11155 0.60348 0.66612 0.0
H776 H 0.12628 0.59061 0.63529 0.0
C777 C 0.10821 0.60082 0.64407 0.0
H778 H 0.10635 0.62076 0.63392 0.0
H779 H 0.09495 0.61779 0.72609 0.0
O780 O 0.99826 0.52226 0.64844 0.0
C781 C 0.03586 0.55326 0.72091 0.0
Co782 Co 0.02701 0.97955 0.66582 0.0
Co783 Co 0.99127 0.93256 0.68821 0.0
C784 C 0.0489 0.92377 0.66549 0.0
O785 O 0.05221 0.949 0.66131 0.0
O786 O 0.02696 0.91502 0.67628 0.0
C787 C 0.06 1.01349 0.63113 0.0
O788 O 0.07087 0.99099 0.62184 0.0
C789 C 0.96113 0.88331 0.67413 0.0
C790 C 0.92901 0.88186 0.70525 0.0
C791 C 0.93732 0.86976 0.68115 0.0
N792 N 0.96618 0.9027 0.69286 0.0
N793 N 0.94725 0.9012 0.7118 0.0
C794 C 0.97661 0.88068 0.64806 0.0
H795 H 0.98701 0.89994 0.64298 0.0
H796 H 0.96297 0.87472 0.63113 0.0
H797 H 0.99233 0.86474 0.65046 0.0
C798 C 0.98383 0.9809 0.62444 0.0
N799 N 0.99438 0.97154 0.64782 0.0
N800 N 0.97769 0.95366 0.65851 0.0
C801 C 0.95523 0.95222 0.64274 0.0
C802 C 0.95884 0.96888 0.6205 0.0
C803 C 0.99772 1.00034 0.60574 0.0
H804 H 1.00166 0.01962 0.61664 0.0
H805 H 1.01746 0.99164 0.59924 0.0
H806 H 0.98522 1.00477 0.58752 0.0
O807 O 1.01911 0.99024 0.70341 0.0
O808 O 0.99398 0.95776 0.72181 0.0
H809 H 0.92799 0.93235 0.67045 0.0
H810 H 0.91205 0.9457 0.64044 0.0
C811 C 0.93051 0.93551 0.64837 0.0
H812 H 0.93217 0.91578 0.63773 0.0
H813 H 0.94566 0.91463 0.72811 0.0
O814 O 0.0422 1.01227 0.64967 0.0
C815 C 1.0057 0.981 0.72338 0.0
Co816 Co 0.6255 0.80608 0.7735 0.0
Co817 Co 0.60028 0.85349 0.73997 0.0
C818 C 0.6247 0.86076 0.79737 0.0
O819 O 0.62995 0.8356 0.79995 0.0
O820 O 0.61287 0.8697 0.77602 0.0
C821 C 0.63852 0.75903 0.80635 0.0
O822 O 0.62115 0.76799 0.82451 0.0
C823 C 0.61267 0.90321 0.70963 0.0
C824 C 0.57993 0.90448 0.67915 0.0
C825 C 0.60448 0.91648 0.68613 0.0
N826 N 0.59424 0.88385 0.71577 0.0
N827 N 0.57432 0.8853 0.69784 0.0
C828 C 0.63955 0.90628 0.72357 0.0
H829 H 0.64375 0.88884 0.7371 0.0
H830 H 0.65614 0.90836 0.70847 0.0
H831 H 0.63927 0.92517 0.7358 0.0
C832 C 0.66569 0.80822 0.72986 0.0
N833 N 0.64208 0.81619 0.74098 0.0
N834 N 0.63012 0.83384 0.72494 0.0
C835 C 0.64533 0.8365 0.70224 0.0
C836 C 0.66842 0.82086 0.70506 0.0
C837 C 0.68604 0.79028 0.74355 0.0
H838 H 0.67919 0.76893 0.74194 0.0
H839 H 0.6875 0.79562 0.76539 0.0
H840 H 0.70639 0.79199 0.734 0.0
O841 O 0.58785 0.79478 0.76648 0.0
O842 O 0.56751 0.82737 0.74295 0.0
H843 H 0.6153 0.85456 0.67605 0.0
H844 H 0.64458 0.84079 0.65891 0.0
C845 C 0.63759 0.85189 0.67725 0.0
H846 H 0.64796 0.87181 0.6771 0.0
H847 H 0.55799 0.87185 0.69709 0.0
O848 O 0.64359 0.77295 0.78535 0.0
C849 C 0.56714 0.80379 0.754 0.0
Co850 Co 0.05738 0.16411 0.50903 0.0
Co851 Co 0.104 0.18463 0.54715 0.0
C852 C 0.11371 0.1622 0.48901 0.0
O853 O 0.08845 0.15837 0.48509 0.0
O854 O 0.1222 0.17285 0.51124 0.0
C855 C 0.02028 0.13371 0.47393 0.0
O856 O 0.04147 0.12423 0.46078 0.0
C857 C 0.15409 0.17268 0.57832 0.0
C858 C 0.14915 0.19852 0.61447 0.0
C859 C 0.16485 0.17751 0.60408 0.0
N860 N 0.13237 0.189 0.5744 0.0
N861 N 0.13003 0.20488 0.5959 0.0
C862 C 0.16463 0.15367 0.55716 0.0
H863 H 0.16638 0.16485 0.53783 0.0
H864 H 0.15 0.13682 0.55412 0.0
H865 H 0.18501 0.14565 0.56245 0.0
C866 C 0.05389 0.12192 0.55079 0.0
N867 N 0.06374 0.14566 0.54165 0.0
N868 N 0.08193 0.15498 0.55889 0.0
C869 C 0.08313 0.13786 0.58026 0.0
C870 C 0.06597 0.11625 0.57542 0.0
C871 C 0.03456 0.10419 0.53544 0.0
H872 H 1.01513 0.11519 0.53241 0.0
H873 H 0.04325 0.09944 0.51521 0.0
H874 H 0.03033 0.08502 0.54643 0.0
O875 O 0.04882 0.2022 0.51569 0.0
O876 O 0.07922 0.21851 0.54471 0.0
H877 H 0.10195 0.16243 0.61079 0.0
H878 H 0.09385 0.12864 0.62177 0.0
C879 C 0.1012 0.14094 0.60443 0.0
H880 H 0.12175 0.13369 0.59914 0.0
H881 H 0.11434 0.21886 0.59867 0.0
O882 O 0.02375 0.15 0.49351 0.0
C883 C 0.05757 0.22136 0.53048 0.0
Co884 Co 0.4145 0.72798 0.7731 0.0
Co885 Co 0.43964 0.68105 0.73905 0.0
C886 C 0.4144 0.67285 0.79593 0.0
O887 O 0.40923 0.69799 0.79897 0.0
O888 O 0.42652 0.66434 0.77458 0.0
C889 C 0.40205 0.77528 0.80608 0.0
O890 O 0.42005 0.76669 0.82378 0.0
C891 C 0.42655 0.63216 0.70818 0.0
C892 C 0.45982 0.62969 0.67837 0.0
C893 C 0.43482 0.61846 0.68499 0.0
N894 N 0.44543 0.65096 0.71461 0.0
N895 N 0.46564 0.64885 0.69708 0.0
C896 C 0.39925 0.63014 0.72144 0.0
H897 H 0.39549 0.6476 0.73512 0.0
H898 H 0.38298 0.62907 0.70586 0.0
H899 H 0.39835 0.61113 0.73342 0.0
C900 C 0.37559 0.72799 0.72802 0.0
N901 N 0.39828 0.71871 0.74 0.0
N902 N 0.41047 0.70137 0.72381 0.0
C903 C 0.39656 0.70025 0.70017 0.0
C904 C 0.37392 0.7168 0.7023 0.0
C905 C 0.3548 0.74532 0.74189 0.0
H906 H 0.35368 0.74008 0.76376 0.0
H907 H 0.33442 0.74271 0.73258 0.0
H908 H 0.36078 0.76689 0.74005 0.0
O909 O 0.45258 0.73908 0.76676 0.0
O910 O 0.47256 0.70655 0.74279 0.0
H911 H 0.39948 0.6974 0.65671 0.0
H912 H 0.39558 0.66573 0.67379 0.0
C913 C 0.40561 0.68579 0.67502 0.0
H914 H 0.42796 0.68323 0.67494 0.0
H915 H 0.48239 0.66178 0.69665 0.0
O916 O 0.3965 0.7611 0.78534 0.0
C917 C 0.4733 0.7299 0.75434 0.0
Co918 Co 0.98063 0.37029 0.51044 0.0
Co919 Co 0.93398 0.34785 0.54666 0.0
C920 C 0.92509 0.37072 0.4888 0.0
O921 O 0.95027 0.37545 0.48559 0.0
O922 O 0.91637 0.35968 0.51067 0.0
C923 C 1.01735 0.4017 0.4763 0.0
O924 O 0.99616 0.40989 0.46228 0.0
C925 C 0.88481 0.36097 0.57773 0.0
C926 C 0.88527 0.33004 0.60999 0.0
C927 C 0.87247 0.35386 0.60209 0.0
N928 N 0.90449 0.3427 0.57205 0.0
N929 N 0.90406 0.32382 0.59105 0.0
C930 C 0.88061 0.3867 0.56215 0.0
H931 H 0.89904 0.39196 0.55035 0.0
H932 H 0.87526 0.40368 0.57596 0.0
H933 H 0.86349 0.38379 0.54779 0.0
C934 C 0.98228 0.41153 0.55335 0.0
N935 N 0.97296 0.38798 0.54323 0.0
N936 N 0.95505 0.37755 0.56006 0.0
C937 C 0.95363 0.39364 0.58227 0.0
C938 C 0.9703 0.41584 0.5783 0.0
C939 C 1.00143 0.4301 0.53885 0.0
H940 H 0.0213 0.41979 0.53629 0.0
H941 H 0.99324 0.43478 0.51841 0.0
H942 H 1.0047 0.44926 0.55022 0.0
O943 O 0.99008 0.33228 0.51657 0.0
O944 O 0.95934 0.31443 0.54418 0.0
H945 H 0.93381 0.36642 0.60999 0.0
H946 H 0.94687 0.39683 0.62534 0.0
C947 C 0.93682 0.38844 0.60702 0.0
H948 H 0.917 0.39889 0.60506 0.0
H949 H 0.91795 0.30788 0.59223 0.0
O950 O 1.01405 0.38566 0.49606 0.0
C951 C 0.98145 0.31248 0.53051 0.0
Co952 Co 0.62573 0.23016 0.76495 0.0
Co953 Co 0.60159 0.18273 0.79908 0.0
C954 C 0.62637 0.17532 0.74174 0.0
O955 O 0.63135 0.20047 0.73912 0.0
O956 O 0.61453 0.16645 0.76307 0.0
C957 C 0.64091 0.27404 0.72895 0.0
O958 O 0.62647 0.26211 0.70995 0.0
C959 C 0.61923 0.13507 0.82995 0.0
C960 C 0.58456 0.12583 0.85662 0.0
C961 C 0.61123 0.11836 0.85119 0.0
N962 N 0.59861 0.15207 0.82364 0.0
N963 N 0.57781 0.14617 0.83953 0.0
C964 C 0.64613 0.13478 0.8157 0.0
H965 H 0.65879 0.15186 0.82305 0.0
H966 H 0.65713 0.11547 0.81939 0.0
H967 H 0.64322 0.13746 0.79361 0.0
C968 C 0.66364 0.23209 0.81084 0.0
N969 N 0.64206 0.22151 0.79794 0.0
N970 N 0.62959 0.20442 0.81406 0.0
C971 C 0.6418 0.20499 0.83855 0.0
C972 C 0.66411 0.22198 0.83706 0.0
C973 C 0.68406 0.25035 0.79769 0.0
H974 H 0.67659 0.27156 0.79864 0.0
H975 H 0.68663 0.2447 0.77603 0.0
H976 H 0.70402 0.24921 0.8081 0.0
O977 O 0.58754 0.24028 0.77189 0.0
O978 O 0.56796 0.2075 0.79592 0.0
H979 H 0.60818 0.18989 0.862 0.0
H980 H 0.63495 0.20577 0.88165 0.0
C981 C 0.63046 0.19269 0.86384 0.0
H982 H 0.64015 0.17287 0.86747 0.0
H983 H 0.55935 0.15661 0.83937 0.0
O984 O 0.64306 0.26319 0.75215 0.0
C985 C 0.56701 0.23093 0.78449 0.0
Co986 Co 0.48039 0.16391 0.52621 0.0
Co987 Co 0.43406 0.18712 0.49003 0.0
C988 C 0.4246 0.16418 0.54756 0.0
O989 O 0.4498 0.15973 0.55139 0.0
O990 O 0.41631 0.17515 0.52553 0.0
C991 C 0.52558 0.15133 0.56215 0.0
O992 O 0.51587 0.16903 0.57957 0.0
C993 C 0.38532 0.17396 0.45833 0.0
C994 C 0.385 0.20583 0.42702 0.0
C995 C 0.37264 0.18161 0.43433 0.0
N996 N 0.40467 0.19239 0.46449 0.0
N997 N 0.40383 0.21178 0.44603 0.0
C998 C 0.38168 0.14757 0.47291 0.0
H999 H 0.39907 0.14339 0.48658 0.0
H1000 H 0.3793 0.13066 0.45821 0.0
H1001 H 0.36278 0.14856 0.48509 0.0
C1002 C 0.48058 0.12226 0.48385 0.0
N1003 N 0.47195 0.14615 0.49376 0.0
N1004 N 0.45482 0.15729 0.47658 0.0
C1005 C 0.45335 0.14133 0.45428 0.0
C1006 C 0.4691 0.11853 0.45857 0.0
C1007 C 0.4984 0.10281 0.49892 0.0
H1008 H 0.51949 0.11074 0.49909 0.0
H1009 H 0.49141 0.10109 0.52026 0.0
H1010 H 0.4985 0.08246 0.48927 0.0
O1011 O 0.49173 0.2014 0.51863 0.0
O1012 O 0.45955 0.22022 0.49329 0.0
H1013 H 0.43503 0.16971 0.42655 0.0
H1014 H 0.44951 0.13998 0.4109 0.0
C1015 C 0.43808 0.14759 0.42878 0.0
H1016 H 0.41829 0.13694 0.42891 0.0
H1017 H 0.41739 0.22801 0.44528 0.0
O1018 O 0.51292 0.14643 0.54029 0.0
C1019 C 0.48271 0.22151 0.50527 0.0
Co1020 Co 0.41605 0.3066 0.76331 0.0
Co1021 Co 0.43882 0.35384 0.79883 0.0
C1022 C 0.41613 0.3621 0.74103 0.0
O1023 O 0.41172 0.33687 0.73783 0.0
O1024 O 0.42698 0.37099 0.76293 0.0
C1025 C 0.38582 0.26926 0.7283 0.0
O1026 O 0.37855 0.29 0.71324 0.0
C1027 C 0.42577 0.40335 0.82956 0.0
C1028 C 0.45685 0.40318 0.86178 0.0
C1029 C 0.43297 0.41594 0.85382 0.0
N1030 N 0.44402 0.38361 0.82402 0.0
N1031 N 0.46299 0.38421 0.843 0.0
C1032 C 0.39998 0.40748 0.81396 0.0
H1033 H 0.39466 0.38901 0.80226 0.0
H1034 H 0.38299 0.41295 0.82774 0.0
H1035 H 0.4029 0.42446 0.79949 0.0
C1036 C 0.37439 0.30627 0.80573 0.0
N1037 N 0.39807 0.31523 0.79559 0.0
N1038 N 0.40878 0.33311 0.8123 0.0
C1039 C 0.39268 0.33489 0.83449 0.0
C1040 C 0.37024 0.31848 0.83061 0.0
C1041 C 0.35577 0.28698 0.79141 0.0
H1042 H 0.36588 0.26694 0.78964 0.0
H1043 H 0.35165 0.29453 0.77061 0.0
H1044 H 0.33631 0.28435 0.80247 0.0
O1045 O 0.45346 0.29603 0.77145 0.0
O1046 O 0.47228 0.32841 0.79644 0.0
H1047 H 0.42027 0.35466 0.862 0.0
H1048 H 0.38983 0.34192 0.87756 0.0
C1049 C 0.39817 0.35177 0.85915 0.0
H1050 H 0.3878 0.37161 0.85716 0.0
H1051 H 0.47895 0.37034 0.84429 0.0
O1052 O 0.40052 0.27307 0.74905 0.0
C1053 C 0.47348 0.30506 0.78491 0.0
Co1054 Co 0.55895 0.37344 0.52407 0.0
Co1055 Co 0.60545 0.34854 0.48929 0.0
C1056 C 0.61451 0.37361 0.54608 0.0
O1057 O 0.5894 0.37883 0.54946 0.0
O1058 O 0.62266 0.3615 0.52462 0.0
C1059 C 0.51359 0.38681 0.55923 0.0
O1060 O 0.52354 0.36963 0.577 0.0
C1061 C 0.65407 0.36292 0.45888 0.0
C1062 C 0.65811 0.32989 0.42898 0.0
C1063 C 0.66869 0.35505 0.43606 0.0
N1064 N 0.63563 0.34354 0.46476 0.0
N1065 N 0.63861 0.32353 0.44714 0.0
C1066 C 0.65466 0.39027 0.4722 0.0
H1067 H 0.63585 0.39404 0.48394 0.0
H1068 H 0.65741 0.40649 0.45683 0.0
H1069 H 0.6721 0.3912 0.48639 0.0
C1070 C 0.55723 0.41175 0.47867 0.0
N1071 N 0.56731 0.38952 0.49078 0.0
N1072 N 0.58463 0.3775 0.47444 0.0
C1073 C 0.58513 0.39116 0.45068 0.0
C1074 C 0.56809 0.4134 0.45282 0.0
C1075 C 0.53906 0.4319 0.49243 0.0
H1076 H 0.54516 0.43428 0.51398 0.0
H1077 H 0.53985 0.45197 0.48229 0.0
H1078 H 0.51784 0.42434 0.49185 0.0
O1079 O 0.54788 0.33558 0.51755 0.0
O1080 O 0.58001 0.31552 0.49297 0.0
H1081 H 0.60249 0.35998 0.42544 0.0
H1082 H 0.58789 0.38821 0.40721 0.0
C1083 C 0.59964 0.38226 0.42551 0.0
H1084 H 0.61964 0.39248 0.42428 0.0
H1085 H 0.62613 0.30646 0.44636 0.0
O1086 O 0.52614 0.39125 0.53723 0.0
C1087 C 0.5567 0.315 0.50471 0.0
Co1088 Co 0.77427 0.62171 0.80735 0.0
Co1089 Co 0.74045 0.59753 0.85504 0.0
C1090 C 0.79746 0.62203 0.86275 0.0
O1091 O 0.79995 0.62676 0.8375 0.0
O1092 O 0.77608 0.61051 0.87194 0.0
C1093 C 0.80777 0.65504 0.77245 0.0
O1094 O 0.82112 0.66194 0.79449 0.0
C1095 C 0.71024 0.61091 0.90429 0.0
C1096 C 0.6801 0.57801 0.90719 0.0
C1097 C 0.68721 0.60282 0.91855 0.0
N1098 N 0.71605 0.59204 0.88527 0.0
N1099 N 0.69831 0.57208 0.88759 0.0
C1100 C 0.72413 0.6379 0.9059 0.0
H1101 H 0.73433 0.64282 0.88647 0.0
H1102 H 0.70946 0.65419 0.91115 0.0
H1103 H 0.73992 0.63709 0.92194 0.0
C1104 C 0.72885 0.66036 0.80625 0.0
N1105 N 0.74109 0.63809 0.81614 0.0
N1106 N 0.72527 0.62655 0.83424 0.0
C1107 C 0.7017 0.64059 0.83546 0.0
C1108 C 0.70346 0.66258 0.81813 0.0
C1109 C 0.74226 0.68016 0.78753 0.0
H1110 H 0.74319 0.67134 0.76681 0.0
H1111 H 0.76334 0.68399 0.79449 0.0
H1112 H 0.73118 0.69973 0.78673 0.0
O1113 O 0.76765 0.58386 0.79678 0.0
O1114 O 0.744 0.56426 0.82972 0.0
H1115 H 0.67639 0.61008 0.85371 0.0
H1116 H 0.65828 0.63887 0.84018 0.0
C1117 C 0.67695 0.63236 0.85103 0.0
H1118 H 0.67691 0.64253 0.8711 0.0
H1119 H 0.69746 0.5554 0.87459 0.0
O1120 O 0.78809 0.63858 0.77419 0.0
C1121 C 0.7553 0.56331 0.80622 0.0
Co1122 Co 0.87136 1.01168 0.48143 0.0
Co1123 Co 0.84876 0.04657 0.43376 0.0
C1124 C 0.87245 0.98916 0.4259 0.0
O1125 O 0.87648 0.98618 0.45124 0.0
O1126 O 0.86139 1.01082 0.41677 0.0
C1127 C 0.90284 0.97756 0.51807 0.0
O1128 O 0.91075 0.96358 0.49677 0.0
C1129 C 0.86191 0.07708 0.38426 0.0
C1130 C 0.83069 0.10914 0.38416 0.0
C1131 C 0.85471 0.10126 0.37162 0.0
N1132 N 0.84352 0.07151 0.40385 0.0
N1133 N 0.82446 0.09037 0.40306 0.0
C1134 C 0.88785 0.06163 0.38043 0.0
H1135 H 0.89325 0.05034 0.39912 0.0
H1136 H 0.90473 0.07542 0.37476 0.0
H1137 H 0.88505 0.04683 0.36369 0.0
C1138 C 0.91266 0.05448 0.48195 0.0
N1139 N 0.88904 0.04416 0.47299 0.0
N1140 N 0.87833 0.06061 0.45489 0.0
C1141 C 0.89434 0.08282 0.45299 0.0
C1142 C 0.91677 0.07921 0.46952 0.0
C1143 C 0.93148 0.04032 0.50116 0.0
H1144 H 0.9213 0.03801 0.52111 0.0
H1145 H 0.93618 0.01978 0.49325 0.0
H1146 H 0.95065 0.05178 0.50415 0.0
O1147 O 0.8336 0.01921 0.49154 0.0
O1148 O 0.815 0.04373 0.45872 0.0
H1149 H 0.86682 0.10991 0.43262 0.0
H1150 H 0.89702 0.12576 0.44557 0.0
C1151 C 0.8889 0.1072 0.43577 0.0
H1152 H 0.89952 0.10505 0.41608 0.0
H1153 H 0.80839 0.09163 0.4168 0.0
O1154 O 0.88702 0.99757 0.51497 0.0
C1155 C 0.81347 0.03221 0.48205 0.0
Co1156 Co 0.26507 0.9113 0.8083 0.0
Co1157 Co 0.29942 0.93672 0.85502 0.0
C1158 C 0.24217 0.91271 0.86354 0.0
O1159 O 0.23922 0.90708 0.83848 0.0
O1160 O 0.26367 0.92459 0.87196 0.0
C1161 C 0.23023 0.89777 0.76277 0.0
O1162 O 0.21286 0.91572 0.77214 0.0
C1163 C 0.33017 0.92357 0.90408 0.0
C1164 C 0.3604 0.9564 0.90641 0.0
C1165 C 0.35346 0.9316 0.91779 0.0
N1166 N 0.32397 0.9424 0.88516 0.0
N1167 N 0.34176 0.96236 0.8872 0.0
C1168 C 0.31664 0.89646 0.90622 0.0
H1169 H 0.30247 0.89301 0.88908 0.0
H1170 H 0.33209 0.88006 0.90672 0.0
H1171 H 0.3052 0.89551 0.92558 0.0
C1172 C 0.31019 0.87246 0.80807 0.0
N1173 N 0.29809 0.89497 0.8176 0.0
N1174 N 0.31426 0.90709 0.83503 0.0
C1175 C 0.33793 0.89319 0.8361 0.0
C1176 C 0.33586 0.87071 0.8194 0.0
C1177 C 0.29663 0.85227 0.78984 0.0
H1178 H 0.29754 0.85969 0.76861 0.0
H1179 H 0.27496 0.85006 0.7956 0.0
H1180 H 0.30669 0.83215 0.79092 0.0
O1181 O 0.27197 0.94889 0.79665 0.0
O1182 O 0.29607 0.96927 0.82892 0.0
H1183 H 0.36329 0.92461 0.85283 0.0
H1184 H 0.38145 0.89606 0.8388 0.0
C1185 C 0.36315 0.90229 0.85043 0.0
H1186 H 0.36441 0.89241 0.87057 0.0
H1187 H 0.34241 0.979 0.87417 0.0
O1188 O 0.25198 0.89294 0.77569 0.0
C1189 C 0.28468 0.96955 0.80544 0.0
Co1190 Co 0.16633 0.52554 0.47886 0.0
Co1191 Co 0.18932 0.48672 0.43433 0.0
C1192 C 0.16765 0.54398 0.42219 0.0
O1193 O 0.1628 0.54944 0.44697 0.0
O1194 O 0.178 0.5213 0.41508 0.0
C1195 C 0.13311 0.56113 0.51276 0.0
O1196 O 0.12475 0.57312 0.49047 0.0
C1197 C 0.17662 0.45459 0.38592 0.0
C1198 C 0.20704 0.42179 0.38752 0.0
C1199 C 0.18362 0.42996 0.37406 0.0
N1200 N 0.19456 0.46022 0.4059 0.0
N1201 N 0.21314 0.44087 0.4062 0.0
C1202 C 0.1512 0.47058 0.38095 0.0
H1203 H 0.14521 0.48198 0.39942 0.0
H1204 H 0.13428 0.45717 0.37453 0.0
H1205 H 0.15506 0.48538 0.36444 0.0
C1206 C 0.12395 0.4835 0.48082 0.0
N1207 N 0.14795 0.4929 0.47184 0.0
N1208 N 0.1589 0.47499 0.45529 0.0
C1209 C 0.14263 0.45293 0.45438 0.0
C1210 C 0.11985 0.458 0.46999 0.0
C1211 C 0.10493 0.49899 0.49878 0.0
H1212 H 0.11487 0.5027 0.51865 0.0
H1213 H 0.10032 0.51889 0.48938 0.0
H1214 H 0.08571 0.48778 0.5023 0.0
O1215 O 0.20359 0.51725 0.4906 0.0
O1216 O 0.22228 0.49002 0.45995 0.0
H1217 H 0.1702 0.42416 0.43647 0.0
H1218 H 0.13916 0.40968 0.44903 0.0
C1219 C 0.14808 0.42751 0.43867 0.0
H1220 H 0.1383 0.42887 0.41847 0.0
H1221 H 0.22881 0.43965 0.4204 0.0
O1222 O 0.15016 0.54193 0.5112 0.0
C1223 C 0.22342 0.50281 0.48262 0.0
Co1224 Co 0.77531 0.41184 0.72908 0.0
Co1225 Co 0.74179 0.43731 0.68186 0.0
C1226 C 0.79913 0.41287 0.67434 0.0
O1227 O 0.80159 0.40751 0.69949 0.0
O1228 O 0.77776 0.42464 0.66533 0.0
C1229 C 0.80854 0.39952 0.77598 0.0
O1230 O 0.82638 0.41704 0.76678 0.0
C1231 C 0.71178 0.42434 0.63237 0.0
C1232 C 0.68128 0.457 0.62996 0.0
C1233 C 0.68853 0.43233 0.61837 0.0
N1234 N 0.71757 0.44312 0.65149 0.0
N1235 N 0.69962 0.46295 0.64945 0.0
C1236 C 0.72579 0.3974 0.63055 0.0
H1237 H 0.73661 0.39262 0.64967 0.0
H1238 H 0.71106 0.38102 0.62582 0.0
H1239 H 0.74108 0.39815 0.61403 0.0
C1240 C 0.73078 0.3725 0.72757 0.0
N1241 N 0.74263 0.39548 0.71904 0.0
N1242 N 0.72664 0.40776 0.70158 0.0
C1243 C 0.70327 0.39354 0.69956 0.0
C1244 C 0.70552 0.37052 0.71545 0.0
C1245 C 0.7442 0.35209 0.74566 0.0
H1246 H 0.74141 0.35834 0.76711 0.0
H1247 H 0.76629 0.35117 0.74129 0.0
H1248 H 0.73526 0.33162 0.7429 0.0
O1249 O 0.7682 0.44933 0.74059 0.0
O1250 O 0.7447 0.4699 0.70809 0.0
H1251 H 0.67761 0.42529 0.68403 0.0
H1252 H 0.65974 0.39572 0.69621 0.0
C1253 C 0.6781 0.40287 0.68526 0.0
H1254 H 0.67735 0.39412 0.66457 0.0
H1255 H 0.69866 0.47949 0.66264 0.0
O1256 O 0.78753 0.39396 0.76219 0.0
C1257 C 0.75566 0.47005 0.73176 0.0
Co1258 Co 0.66106 1.01522 0.55943 0.0
Co1259 Co 0.68804 0.04726 0.60685 0.0
C1260 C 0.66253 0.99041 0.61375 0.0
O1261 O 0.65676 0.98854 0.58863 0.0
O1262 O 0.67488 1.01133 0.62301 0.0
C1263 C 0.64708 0.98303 0.51241 0.0
O1264 O 0.66466 0.96497 0.52111 0.0
C1265 C 0.67642 0.07774 0.65644 0.0
C1266 C 0.70985 0.10739 0.658 0.0
C1267 C 0.68499 0.10109 0.66975 0.0
N1268 N 0.69491 0.07109 0.63729 0.0
N1269 N 0.71525 0.0885 0.63891 0.0
C1270 C 0.64915 0.06454 0.65905 0.0
H1271 H 0.6447 0.05152 0.64125 0.0
H1272 H 0.63297 0.08007 0.66134 0.0
H1273 H 0.64902 0.05175 0.67757 0.0
C1274 C 0.62249 0.06034 0.56251 0.0
N1275 N 0.64543 0.04791 0.57044 0.0
N1276 N 0.65846 0.0634 0.58781 0.0
C1277 C 0.64485 0.08709 0.59024 0.0
C1278 C 0.62138 0.08554 0.57481 0.0
C1279 C 0.60131 0.04754 0.54482 0.0
H1280 H 0.60682 0.05077 0.52324 0.0
H1281 H 0.60031 0.02542 0.54873 0.0
H1282 H 0.581 0.05661 0.54849 0.0
O1283 O 0.69866 0.02168 0.54737 0.0
O1284 O 0.72021 0.04392 0.58013 0.0
H1285 H 0.67788 0.11169 0.60486 0.0
H1286 H 0.64872 0.13047 0.59289 0.0
C1287 C 0.6554 0.11205 0.604 0.0
H1288 H 0.64702 0.11346 0.62479 0.0
H1289 H 0.7317 0.08882 0.62557 0.0
O1290 O 0.64213 1.00399 0.52647 0.0
C1291 C 0.71984 0.03346 0.55623 0.0
Co1292 Co 0.26367 0.12131 0.73058 0.0
Co1293 Co 0.29929 0.09814 0.68392 0.0
C1294 C 0.2425 0.12236 0.67477 0.0
O1295 O 0.23923 0.12774 0.69979 0.0
O1296 O 0.26376 0.11013 0.66627 0.0
C1297 C 0.23044 0.15517 0.76534 0.0
O1298 O 0.21946 0.16513 0.74317 0.0
C1299 C 0.3291 0.11171 0.63457 0.0
C1300 C 0.36123 0.08057 0.63304 0.0
C1301 C 0.3528 0.10457 0.62088 0.0
N1302 N 0.32421 0.09314 0.65408 0.0
N1303 N 0.34314 0.07418 0.65256 0.0
C1304 C 0.31356 0.13774 0.63199 0.0
H1305 H 0.30389 0.14325 0.65155 0.0
H1306 H 0.32696 0.15451 0.62523 0.0
H1307 H 0.29721 0.13502 0.61672 0.0
C1308 C 0.30734 0.16175 0.73261 0.0
N1309 N 0.29673 0.13844 0.72324 0.0
N1310 N 0.31324 0.12772 0.70517 0.0
C1311 C 0.33569 0.14348 0.70359 0.0
C1312 C 0.33223 0.16569 0.72039 0.0
C1313 C 0.29332 0.18063 0.75187 0.0
H1314 H 0.2893 0.16992 0.77124 0.0
H1315 H 0.27358 0.18697 0.74305 0.0
H1316 H 0.30576 0.19889 0.75621 0.0
O1317 O 0.27043 0.08328 0.74071 0.0
O1318 O 0.29612 0.06465 0.70873 0.0
H1319 H 0.3628 0.11596 0.68319 0.0
H1320 H 0.37872 0.14607 0.69639 0.0
C1321 C 0.36017 0.138 0.68645 0.0
H1322 H 0.3581 0.14861 0.66675 0.0
H1323 H 0.34482 0.05799 0.66607 0.0
O1324 O 0.24861 0.13707 0.7635 0.0
C1325 C 0.28379 0.06316 0.73164 0.0
Co1326 Co 0.37509 0.52102 0.55849 0.0
Co1327 Co 0.35033 0.48822 0.60641 0.0
C1328 C 0.37519 0.54523 0.61313 0.0
O1329 O 0.38008 0.54733 0.58787 0.0
O1330 O 0.3634 0.52412 0.62257 0.0
C1331 C 0.38727 0.55536 0.51289 0.0
O1332 O 0.36993 0.57275 0.5233 0.0
C1333 C 0.36355 0.45822 0.65584 0.0
C1334 C 0.33101 0.42763 0.6579 0.0
C1335 C 0.35577 0.4348 0.66939 0.0
N1336 N 0.34467 0.46419 0.63685 0.0
N1337 N 0.32487 0.44621 0.63877 0.0
C1338 C 0.3905 0.47215 0.65808 0.0
H1339 H 0.39472 0.48452 0.6398 0.0
H1340 H 0.40703 0.45711 0.66104 0.0
H1341 H 0.39022 0.48569 0.67608 0.0
C1342 C 0.41446 0.47646 0.55958 0.0
N1343 N 0.39157 0.4884 0.56837 0.0
N1344 N 0.37958 0.47272 0.58627 0.0
C1345 C 0.39387 0.4494 0.58829 0.0
C1346 C 0.41671 0.45139 0.57199 0.0
C1347 C 0.43454 0.48973 0.54102 0.0
H1348 H 0.43582 0.51172 0.54562 0.0
H1349 H 0.45504 0.48058 0.54306 0.0
H1350 H 0.42757 0.48733 0.51973 0.0
O1351 O 0.33726 0.51425 0.54764 0.0
O1352 O 0.31725 0.49136 0.58086 0.0
H1353 H 0.36208 0.42393 0.60398 0.0
H1354 H 0.39173 0.40596 0.59193 0.0
C1355 C 0.38454 0.42439 0.60273 0.0
H1356 H 0.39327 0.42384 0.62342 0.0
H1357 H 0.30827 0.44534 0.6256 0.0
O1358 O 0.39258 0.5335 0.52533 0.0
C1359 C 0.31655 0.5022 0.55717 0.0
Co1360 Co 0.80862 0.77628 0.6219 0.0
Co1361 Co 0.85463 0.73861 0.60038 0.0
C1362 C 0.86473 0.79682 0.62162 0.0
O1363 O 0.83954 0.8012 0.62562 0.0
O1364 O 0.87276 0.77432 0.61137 0.0
C1365 C 0.77032 0.81414 0.64793 0.0
O1366 O 0.78931 0.83283 0.6488 0.0
C1367 C 0.90319 0.70676 0.61466 0.0
C1368 C 0.90289 0.67436 0.58382 0.0
C1369 C 0.91557 0.6824 0.60768 0.0
N1370 N 0.88372 0.71247 0.59616 0.0
N1371 N 0.8842 0.69332 0.57738 0.0
C1372 C 0.9073 0.72224 0.64049 0.0
H1373 H 0.92627 0.73423 0.63884 0.0
H1374 H 0.89005 0.73617 0.64442 0.0
H1375 H 0.90984 0.70815 0.65786 0.0
C1376 C 0.80737 0.73557 0.66505 0.0
N1377 N 0.81647 0.7445 0.64097 0.0
N1378 N 0.83351 0.72671 0.63064 0.0
C1379 C 0.83448 0.70501 0.64737 0.0
C1380 C 0.81853 0.71035 0.66984 0.0
C1381 C 0.78897 0.75132 0.68344 0.0
H1382 H 0.76837 0.7521 0.67434 0.0
H1383 H 0.79653 0.77242 0.68543 0.0
H1384 H 0.78744 0.7419 0.70383 0.0
O1385 O 0.79752 0.76711 0.58472 0.0
O1386 O 0.82926 0.74055 0.5669 0.0
H1387 H 0.85292 0.67611 0.62022 0.0
H1388 H 0.83833 0.66171 0.65047 0.0
C1389 C 0.84976 0.67926 0.64224 0.0
H1390 H 0.86952 0.67988 0.65297 0.0
H1391 H 0.8705 0.69215 0.56125 0.0
O1392 O 0.77556 0.79113 0.63776 0.0
C1393 C 0.80618 0.75261 0.56525 0.0
Co1394 Co 0.80801 0.26618 0.91385 0.0
Co1395 Co 0.85654 0.29844 0.93848 0.0
C1396 C 0.86257 0.24159 0.91273 0.0
O1397 O 0.83721 0.23965 0.90799 0.0
O1398 O 0.87221 0.26252 0.92474 0.0
C1399 C 0.75937 0.23502 0.90322 0.0
O1400 O 0.76757 0.21797 0.92198 0.0
C1401 C 0.90633 0.32799 0.92527 0.0
C1402 C 0.90909 0.3582 0.95813 0.0
C1403 C 0.92031 0.35113 0.93323 0.0
N1404 N 0.88738 0.32208 0.94419 0.0
N1405 N 0.88971 0.33983 0.96417 0.0
C1406 C 0.90827 0.31417 0.89825 0.0
H1407 H 0.88958 0.30246 0.89381 0.0
H1408 H 0.91188 0.32918 0.88186 0.0
H1409 H 0.92579 0.29999 0.89857 0.0
C1410 C 0.80868 0.31127 0.87533 0.0
N1411 N 0.81794 0.29902 0.89784 0.0
N1412 N 0.83616 0.31451 0.90968 0.0
C1413 C 0.83792 0.338 0.89564 0.0
C1414 C 0.82084 0.33646 0.87337 0.0
C1415 C 0.79056 0.29798 0.85483 0.0
H1416 H 0.76912 0.30055 0.86117 0.0
H1417 H 0.79511 0.27597 0.85361 0.0
H1418 H 0.79312 0.30715 0.83443 0.0
O1419 O 0.7977 0.27237 0.95196 0.0
O1420 O 0.83124 0.295 0.97184 0.0
H1421 H 0.85659 0.36284 0.92635 0.0
H1422 H 0.84314 0.38125 0.89769 0.0
C1423 C 0.85382 0.36245 0.90406 0.0
H1424 H 0.87384 0.36232 0.8938 0.0
H1425 H 0.87669 0.34071 0.98086 0.0
O1426 O 0.77428 0.25482 0.89642 0.0
C1427 C 0.80752 0.28414 0.97272 0.0
Co1428 Co 0.51302 0.97945 0.37266 0.0
Co1429 Co 0.5482 0.93232 0.34935 0.0
C1430 C 0.4908 0.92381 0.37305 0.0
O1431 O 0.48767 0.94903 0.37755 0.0
O1432 O 0.51253 0.91499 0.36181 0.0
C1433 C 0.47772 1.01587 0.40314 0.0
O1434 O 0.46216 0.99486 0.40824 0.0
C1435 C 0.57967 0.88397 0.36352 0.0
C1436 C 0.61053 0.88214 0.33117 0.0
C1437 C 0.60351 0.87082 0.35601 0.0
N1438 N 0.57341 0.90263 0.34446 0.0
N1439 N 0.59159 0.90088 0.3248 0.0
C1440 C 0.56528 0.88154 0.39019 0.0
H1441 H 0.55261 0.89968 0.39424 0.0
H1442 H 0.58008 0.87868 0.40696 0.0
H1443 H 0.55188 0.86347 0.3896 0.0
C1444 C 0.5573 0.98132 0.41249 0.0
N1445 N 0.54586 0.97118 0.38989 0.0
N1446 N 0.56234 0.95341 0.3787 0.0
C1447 C 0.58559 0.95274 0.39331 0.0
C1448 C 0.5829 0.97002 0.41531 0.0
C1449 C 0.54296 0.99975 0.43197 0.0
H1450 H 0.52161 0.99301 0.43448 0.0
H1451 H 0.553 1.00001 0.45213 0.0
H1452 H 0.54275 0.02064 0.4236 0.0
O1453 O 0.52052 0.98995 0.33494 0.0
O1454 O 0.54528 0.95747 0.31587 0.0
H1455 H 0.62917 0.94944 0.39225 0.0
H1456 H 0.61158 0.91798 0.39569 0.0
C1457 C 0.61099 0.93796 0.38547 0.0
H1458 H 0.612 0.93523 0.36319 0.0
H1459 H 0.59222 0.9138 0.30806 0.0
O1460 O 0.49894 1.01279 0.38892 0.0
C1461 C 0.53374 0.98082 0.31476 0.0
Co1462 Co 0.23176 0.27535 0.91737 0.0
Co1463 Co 0.1843 0.23832 0.93794 0.0
C1464 C 0.17523 0.29639 0.91703 0.0
O1465 O 0.2006 0.29986 0.91338 0.0
O1466 O 0.16621 0.27416 0.92705 0.0
C1467 C 0.26765 0.31111 0.88652 0.0
O1468 O 0.2461 0.32415 0.87774 0.0
C1469 C 0.13284 0.20804 0.92892 0.0
C1470 C 0.14106 0.16989 0.95063 0.0
C1471 C 0.12308 0.18166 0.93236 0.0
N1472 N 0.15617 0.21095 0.94311 0.0
N1473 N 0.16042 0.18826 0.9567 0.0
C1474 C 0.11991 0.23062 0.91338 0.0
H1475 H 0.13245 0.23553 0.89533 0.0
H1476 H 0.09883 0.22559 0.90722 0.0
H1477 H 0.11924 0.2488 0.92657 0.0
C1478 C 0.23446 0.2341 0.87468 0.0
N1479 N 0.22443 0.24337 0.89832 0.0
N1480 N 0.20531 0.22688 0.90707 0.0
C1481 C 0.20312 0.20613 0.88923 0.0
C1482 C 0.22124 0.21033 0.86821 0.0
C1483 C 0.25556 0.24828 0.85805 0.0
H1484 H 0.2742 0.25106 0.87039 0.0
H1485 H 0.24787 0.26857 0.8521 0.0
H1486 H 0.26086 0.23662 0.83952 0.0
O1487 O 0.24222 0.26658 0.95434 0.0
O1488 O 0.20999 0.24027 0.97143 0.0
H1489 H 0.18318 0.17438 0.9109 0.0
H1490 H 0.18642 0.16792 0.87515 0.0
C1491 C 0.18263 0.18385 0.89059 0.0
H1492 H 0.1623 0.19243 0.88662 0.0
H1493 H 0.17759 0.18458 0.96857 0.0
O1494 O 0.26479 0.29129 0.90257 0.0
C1495 C 0.2331 0.25218 0.97355 0.0
Co1496 Co 0.02087 0.05722 0.87614 0.0
Co1497 Co 0.98808 0.1045 0.84996 0.0
C1498 C 0.04383 0.11242 0.87715 0.0
O1499 O 0.04583 0.08744 0.88318 0.0
O1500 O 0.02364 0.12136 0.86346 0.0
C1501 C 0.0551 0.02132 0.90771 0.0
O1502 O 0.07094 0.04231 0.91203 0.0
C1503 C 0.95768 0.15398 0.86199 0.0
C1504 C 0.92768 0.15586 0.82884 0.0
C1505 C 0.93441 0.16758 0.85361 0.0
N1506 N 0.96393 0.13475 0.84348 0.0
N1507 N 0.9463 0.13652 0.82332 0.0
C1508 C 0.97133 0.15655 0.88906 0.0
H1509 H 0.98285 0.13789 0.89407 0.0
H1510 H 0.95622 0.16075 0.90525 0.0
H1511 H 0.98574 0.17383 0.88836 0.0
C1512 C 0.9745 0.05655 0.91319 0.0
N1513 N 0.98724 0.06607 0.89108 0.0
N1514 N 0.97192 0.08431 0.87904 0.0
C1515 C 0.9481 0.08594 0.89264 0.0
C1516 C 0.94924 0.06877 0.91482 0.0
C1517 C 0.98741 0.03795 0.93347 0.0
H1518 H 0.98758 1.01701 0.9252 0.0
H1519 H 1.00875 0.04422 0.93705 0.0
H1520 H 0.97637 0.03805 0.9531 0.0
O1521 O 1.01568 0.04637 0.838 0.0
O1522 O 0.9921 0.07862 0.81717 0.0
H1523 H 0.92343 0.10413 0.86152 0.0
H1524 H 0.90477 0.09121 0.89022 0.0
C1525 C 0.92366 0.10173 0.88385 0.0
H1526 H 0.92372 0.12187 0.89382 0.0
H1527 H 0.94571 0.12322 0.80685 0.0
O1528 O 0.03381 0.02409 0.89351 0.0
C1529 C 1.00356 0.0552 0.81702 0.0
Co1530 Co 0.73075 0.26238 0.12473 0.0
Co1531 Co 0.68436 0.29784 0.10014 0.0
C1532 C 0.67525 0.24037 0.12354 0.0
O1533 O 0.70039 0.23678 0.12858 0.0
O1534 O 0.66705 0.26218 0.11209 0.0
C1535 C 0.77506 0.22642 0.14097 0.0
O1536 O 0.76441 0.20738 0.12565 0.0
C1537 C 0.63492 0.3287 0.11287 0.0
C1538 C 0.63434 0.36 0.081 0.0
C1539 C 0.62194 0.35252 0.10518 0.0
N1540 N 0.6545 0.32283 0.09453 0.0
N1541 N 0.65347 0.34128 0.07512 0.0
C1542 C 0.63136 0.31409 0.13927 0.0
H1543 H 0.64895 0.30072 0.14358 0.0
H1544 H 0.62863 0.32874 0.15617 0.0
H1545 H 0.61268 0.30159 0.13817 0.0
C1546 C 0.7288 0.30467 0.16632 0.0
N1547 N 0.72125 0.29472 0.14208 0.0
N1548 N 0.70435 0.31169 0.13031 0.0
C1549 C 0.70203 0.33396 0.14618 0.0
C1550 C 0.7168 0.32975 0.16966 0.0
C1551 C 0.74643 0.28996 0.18623 0.0
H1552 H 0.76765 0.28991 0.17865 0.0
H1553 H 0.73962 0.26858 0.18801 0.0
H1554 H 0.74614 0.29975 0.20652 0.0
O1555 O 0.74266 0.27005 0.0873 0.0
O1556 O 0.71059 0.29483 0.06751 0.0
H1557 H 0.68414 0.36119 0.11704 0.0
H1558 H 0.69802 0.3773 0.14677 0.0
C1559 C 0.68679 0.35929 0.13926 0.0
H1560 H 0.66682 0.35928 0.14962 0.0
H1561 H 0.66713 0.34226 0.05897 0.0
O1562 O 0.76333 0.2492 0.14311 0.0
C1563 C 0.734 0.28327 0.06692 0.0
Co1564 Co 0.51851 0.05577 0.16155 0.0
Co1565 Co 0.55012 0.10386 0.18767 0.0
C1566 C 0.49339 0.10999 0.16155 0.0
O1567 O 0.49169 0.0848 0.15612 0.0
O1568 O 0.51416 0.11944 0.174 0.0
C1569 C 0.48559 1.00939 0.14729 0.0
O1570 O 0.46685 0.01937 0.16345 0.0
C1571 C 0.57885 0.15388 0.1748 0.0
C1572 C 0.60891 0.15739 0.20777 0.0
C1573 C 0.60167 0.16847 0.18287 0.0
N1574 N 0.57331 0.13489 0.19374 0.0
N1575 N 0.59096 0.13761 0.21377 0.0
C1576 C 0.56521 0.15498 0.1476 0.0
H1577 H 0.55504 0.13552 0.14283 0.0
H1578 H 0.58004 0.15992 0.13138 0.0
H1579 H 0.54944 0.17106 0.14797 0.0
C1580 C 0.56389 0.05849 0.12306 0.0
N1581 N 0.55145 0.0664 0.14601 0.0
N1582 N 0.56667 0.08424 0.1587 0.0
C1583 C 0.5902 0.08708 0.14485 0.0
C1584 C 0.5888 0.0714 0.12155 0.0
C1585 C 0.55119 0.0405 0.1021 0.0
H1586 H 0.55464 0.01903 0.10783 0.0
H1587 H 0.52898 0.04419 0.10113 0.0
H1588 H 0.56015 0.044 0.08174 0.0
O1589 O 0.52439 0.04479 0.19963 0.0
O1590 O 0.54653 0.07807 0.22043 0.0
H1591 H 0.61476 0.10309 0.17726 0.0
H1592 H 0.63356 0.09145 0.14797 0.0
C1593 C 0.61479 0.10193 0.1548 0.0
H1594 H 0.61522 0.12263 0.14618 0.0
H1595 H 0.59209 0.12465 0.23045 0.0
O1596 O 0.50738 0.02245 0.14326 0.0
C1597 C 0.53582 0.05431 0.22074 0.0
Co1598 Co 0.52275 0.47827 0.16357 0.0
Co1599 Co 0.48997 0.43064 0.18882 0.0
C1600 C 0.54717 0.42367 0.16408 0.0
O1601 O 0.54919 0.44887 0.15897 0.0
O1602 O 0.52601 0.41427 0.17591 0.0
C1603 C 0.55748 0.5232 0.14952 0.0
O1604 O 0.57549 0.51281 0.16622 0.0
C1605 C 0.45984 0.38099 0.17638 0.0
C1606 C 0.42926 0.37946 0.20898 0.0
C1607 C 0.43637 0.36757 0.18441 0.0
N1608 N 0.46585 0.40029 0.19492 0.0
N1609 N 0.44787 0.39871 0.21476 0.0
C1610 C 0.47386 0.37823 0.14953 0.0
H1611 H 0.48614 0.39648 0.14493 0.0
H1612 H 0.45886 0.37479 0.13305 0.0
H1613 H 0.48756 0.36037 0.15023 0.0
C1614 C 0.47819 0.47673 0.12418 0.0
N1615 N 0.49008 0.46816 0.14717 0.0
N1616 N 0.4744 0.45029 0.1592 0.0
C1617 C 0.45113 0.44801 0.14477 0.0
C1618 C 0.45315 0.46418 0.12187 0.0
C1619 C 0.49145 0.49521 0.10406 0.0
H1620 H 0.48932 0.51647 0.11113 0.0
H1621 H 0.51343 0.4904 0.10254 0.0
H1622 H 0.48208 0.49333 0.08366 0.0
O1623 O 0.51599 0.48973 0.20122 0.0
O1624 O 0.49313 0.45679 0.22168 0.0
H1625 H 0.42549 0.4321 0.17632 0.0
H1626 H 0.40764 0.44398 0.14657 0.0
C1627 C 0.42613 0.43334 0.15388 0.0
H1628 H 0.42581 0.41267 0.14511 0.0
H1629 H 0.44702 0.41212 0.23113 0.0
O1630 O 0.53516 0.51106 0.14545 0.0
C1631 C 0.50387 0.48054 0.22202 0.0
C1632 C 0.17368 0.19857 0.33935 0.0
C1633 C 0.18289 0.18394 0.31663 0.0
C1634 C 0.15773 0.22192 0.33612 0.0
C1635 C 0.15082 0.23126 0.31008 0.0
H1636 H 0.17994 0.1927 0.3596 0.0
H1637 H 0.15196 0.23343 0.35397 0.0
S1638 S 0.16608 0.19718 0.24461 0.0
N1639 N 0.18112 0.17817 0.26774 0.0
N1640 N 0.15138 0.22214 0.2615 0.0
C1641 C 0.15845 0.21569 0.28738 0.0
C1642 C 0.17446 0.19195 0.29071 0.0
C1643 C 0.44854 0.60839 0.99591 0.0
C1644 C 0.43927 0.60013 0.97033 0.0
C1645 C 0.47252 0.62327 0.99854 0.0
C1646 C 0.48801 0.63054 0.97563 0.0
H1647 H 0.43743 0.60286 1.01407 0.0
H1648 H 0.47908 0.62888 1.01878 0.0
S1649 S 0.47212 0.61363 0.904 0.0
N1650 N 0.44712 0.59994 0.92162 0.0
N1651 N 0.49203 0.62867 0.92644 0.0
C1652 C 0.47849 0.62304 0.9498 0.0
C1653 C 0.45412 0.60763 0.94718 0.0
C1654 C 0.87873 0.31401 0.30011 0.0
C1655 C 0.86834 0.29089 0.31342 0.0
C1656 C 0.86555 0.33908 0.30179 0.0
C1657 C 0.84154 0.34182 0.31671 0.0
H1658 H 0.89695 0.31268 0.28785 0.0
H1659 H 0.87379 0.35626 0.29084 0.0
S1660 S 0.80655 0.28869 0.35654 0.0
N1661 N 0.83303 0.27306 0.34309 0.0
N1662 N 0.80832 0.32043 0.34605 0.0
C1663 C 0.8313 0.31936 0.33079 0.0
C1664 C 0.84473 0.2938 0.32923 0.0
C1665 C 0.54847 0.93626 0.95881 0.0
C1666 C 0.54554 0.91317 0.97528 0.0
C1667 C 0.57328 0.95004 0.95744 0.0
C1668 C 0.59586 0.94103 0.97232 0.0
H1669 H 0.53132 0.9443 0.94762 0.0
H1670 H 0.57472 0.96814 0.94507 0.0
S1671 S 0.59977 0.88078 1.0167 0.0
N1672 N 0.56815 0.88104 1.00549 0.0
N1673 N 0.61461 0.90739 1.00282 0.0
C1674 C 0.59365 0.91759 0.98802 0.0
C1675 C 0.56849 0.90351 0.98952 0.0
C1676 C 0.16141 0.81664 0.24658 0.0
C1677 C 0.15363 0.8011 0.22385 0.0
C1678 C 0.17704 0.84005 0.2437 0.0
C1679 C 0.1855 0.84875 0.21801 0.0
H1680 H 0.15578 0.81046 0.26691 0.0
H1681 H 0.18311 0.85109 0.26174 0.0
S1682 S 0.17012 0.81609 0.15196 0.0
N1683 N 0.15479 0.79677 0.17464 0.0
N1684 N 0.18478 0.84073 0.16934 0.0
C1685 C 0.17721 0.83408 0.195 0.0
C1686 C 0.16109 0.81023 0.19789 0.0
C1687 C 0.09008 0.61046 0.04657 0.0
C1688 C 0.09684 0.59723 0.0707 0.0
C1689 C 0.06572 0.62477 0.04436 0.0
C1690 C 0.04707 0.62593 0.0661 0.0
H1691 H 0.10351 0.60933 0.02917 0.0
H1692 H 0.06131 0.63451 0.02515 0.0
S1693 S 0.05611 0.59409 0.13375 0.0
N1694 N 0.08396 0.58602 0.11687 0.0
N1695 N 0.03763 0.61264 0.11279 0.0
C1696 C 0.05402 0.61305 0.09061 0.0
C1697 C 0.07907 0.5987 0.09287 0.0
C1698 C 0.86701 0.70136 0.19973 0.0
C1699 C 0.85775 0.68654 0.22227 0.0
C1700 C 0.88257 0.72492 0.20325 0.0
C1701 C 0.88902 0.7343 0.22941 0.0
H1702 H 0.86112 0.69544 0.17937 0.0
H1703 H 0.88843 0.73652 0.18554 0.0
S1704 S 0.87353 0.69989 0.29454 0.0
N1705 N 0.85903 0.68072 0.27116 0.0
N1706 N 0.88804 0.72508 0.27793 0.0
C1707 C 0.88133 0.7186 0.25194 0.0
C1708 C 0.86573 0.69464 0.24832 0.0
C1709 C 0.99098 0.93606 0.08428 0.0
C1710 C 0.99367 0.91217 0.06889 0.0
C1711 C 0.96612 0.94981 0.08555 0.0
C1712 C 0.94326 0.94 0.07163 0.0
H1713 H 1.00839 0.94482 0.09448 0.0
H1714 H 0.96492 0.96863 0.09687 0.0
S1715 S 0.93859 0.87731 0.03071 0.0
N1716 N 0.97048 0.87828 0.04113 0.0
N1717 N 0.92395 0.90462 0.04349 0.0
C1718 C 0.94518 0.91566 0.05725 0.0
C1719 C 0.97039 0.90159 0.0559 0.0
C1720 C 0.33663 0.15487 0.22537 0.0
C1721 C 0.31058 0.14756 0.23439 0.0
C1722 C 0.33986 0.17069 0.20197 0.0
C1723 C 0.31714 0.17936 0.18699 0.0
H1724 H 0.35443 0.14952 0.23716 0.0
H1725 H 0.36009 0.17724 0.19631 0.0
S1726 S 0.24523 0.16134 0.1994 0.0
N1727 N 0.26209 0.14712 0.22464 0.0
N1728 N 0.26833 0.17669 0.1806 0.0
C1729 C 0.29126 0.17054 0.19471 0.0
C1730 C 0.28793 0.15464 0.21849 0.0
C1731 C 0.41012 0.49494 0.06666 0.0
C1732 C 0.40255 0.47229 0.05091 0.0
C1733 C 0.42554 0.49198 0.09026 0.0
C1734 C 0.43402 0.4663 0.09897 0.0
H1735 H 0.40449 0.51527 0.06051 0.0
H1736 H 0.43144 0.50998 0.10145 0.0
S1737 S 0.41922 0.40045 0.06579 0.0
N1738 N 0.40399 0.42315 0.04639 0.0
N1739 N 0.43357 0.41773 0.09069 0.0
C1740 C 0.42596 0.44338 0.08407 0.0
C1741 C 0.41006 0.44634 0.06002 0.0
C1742 C 0.73169 0.38315 0.22212 0.0
C1743 C 0.71826 0.37308 0.24533 0.0
C1744 C 0.73029 0.36957 0.19725 0.0
C1745 C 0.71543 0.34556 0.19482 0.0
H1746 H 0.74414 0.40122 0.22332 0.0
H1747 H 0.74166 0.37734 0.18011 0.0
S1748 S 0.67458 0.31184 0.24804 0.0
N1749 N 0.68802 0.33843 0.26341 0.0
N1750 N 0.68544 0.31303 0.21635 0.0
C1751 C 0.7008 0.33591 0.21722 0.0
C1752 C 0.70214 0.34971 0.24259 0.0
C1753 C 0.63263 0.04262 0.06601 0.0
C1754 C 0.63995 0.06575 0.05095 0.0
C1755 C 0.61709 0.04481 0.08959 0.0
C1756 C 0.60827 0.07016 0.09892 0.0
H1757 H 0.63854 0.02254 0.05928 0.0
H1758 H 0.61131 0.02646 0.10022 0.0
S1759 S 0.62252 0.13697 0.06756 0.0
N1760 N 0.63814 0.1149 0.04767 0.0
N1761 N 0.60824 0.11896 0.09193 0.0
C1762 C 0.6162 0.09357 0.08474 0.0
C1763 C 0.63227 0.09137 0.06073 0.0
C1764 C 0.29422 0.86102 0.33956 0.0
C1765 C 0.32006 0.8536 0.34891 0.0
C1766 C 0.29119 0.87621 0.31587 0.0
C1767 C 0.31394 0.88468 0.30078 0.0
H1768 H 0.27616 0.85441 0.35026 0.0
H1769 H 0.27078 0.88097 0.30913 0.0
S1770 S 0.38615 0.87107 0.31741 0.0
N1771 N 0.36887 0.85602 0.34185 0.0
N1772 N 0.36325 0.88538 0.29749 0.0
C1773 C 0.34 0.87836 0.31056 0.0
C1774 C 0.34305 0.8626 0.33464 0.0
C1775 C 0.11224 0.44654 0.95317 0.0
C1776 C 0.10443 0.46969 0.93844 0.0
C1777 C 0.12803 0.44886 0.97676 0.0
C1778 C 0.13628 0.47442 0.9863 0.0
H1779 H 0.10526 0.42664 0.94697 0.0
H1780 H 0.13287 0.4307 0.98815 0.0
S1781 S 0.12456 0.54064 0.95238 0.0
N1782 N 0.10851 0.5184 0.93311 0.0
N1783 N 0.13817 0.52297 0.97739 0.0
C1784 C 0.12978 0.49753 0.97081 0.0
C1785 C 0.11384 0.49511 0.94687 0.0
C1786 C 0.74661 0.66364 0.31289 0.0
C1787 C 0.72486 0.6603 0.29454 0.0
C1788 C 0.74346 0.67843 0.33683 0.0
C1789 C 0.71843 0.69018 0.34337 0.0
H1790 H 0.76643 0.65505 0.30864 0.0
H1791 H 0.76078 0.68097 0.35019 0.0
S1792 S 0.65535 0.68821 0.30249 0.0
N1793 N 0.67744 0.67033 0.28469 0.0
N1794 N 0.6716 0.69813 0.33011 0.0
C1795 C 0.69637 0.68676 0.32568 0.0
C1796 C 0.69956 0.67177 0.30114 0.0
C1797 C 0.90599 0.0867 0.97563 0.0
C1798 C 0.898 0.061 0.98496 0.0
C1799 C 0.92161 0.08927 0.95196 0.0
C1800 C 0.92941 0.06624 0.937 0.0
H1801 H 0.90134 0.10471 0.98737 0.0
H1802 H 0.92871 0.10921 0.94607 0.0
S1803 S 0.90948 0.99514 0.9502 0.0
N1804 N 0.89602 1.01256 0.9755 0.0
N1805 N 0.92527 1.0176 0.93104 0.0
C1806 C 0.91993 0.04076 0.94505 0.0
C1807 C 0.90422 0.03808 0.96908 0.0
C1808 C 0.22291 0.288 0.16231 0.0
C1809 C 0.23859 0.31056 0.15449 0.0
C1810 C 0.19918 0.29117 0.17748 0.0
C1811 C 0.19033 0.31697 0.18549 0.0
H1812 H 0.2292 0.26761 0.15703 0.0
H1813 H 0.18803 0.27325 0.18359 0.0
S1814 S 0.22348 0.38262 0.16997 0.0
N1815 N 0.24301 0.35969 0.15517 0.0
N1816 N 0.1985 0.36555 0.18439 0.0
C1817 C 0.2052 0.3398 0.17718 0.0
C1818 C 0.22935 0.33661 0.16149 0.0
C1819 C 0.19892 0.70255 0.36577 0.0
C1820 C 0.18513 0.72552 0.35595 0.0
C1821 C 0.22231 0.70527 0.3818 0.0
C1822 C 0.2326 0.73107 0.38814 0.0
H1823 H 0.19237 0.68242 0.35992 0.0
H1824 H 0.2331 0.68717 0.38807 0.0
S1825 S 0.20107 0.79729 0.37107 0.0
N1826 N 0.18123 0.77456 0.35645 0.0
N1827 N 0.22533 0.77988 0.38632 0.0
C1828 C 0.21793 0.75411 0.37982 0.0
C1829 C 0.19412 0.75129 0.36374 0.0
C1830 C 0.95878 0.54473 0.93712 0.0
C1831 C 0.97543 0.54231 0.91405 0.0
C1832 C 0.95612 0.56958 0.95059 0.0
C1833 C 0.96977 0.59271 0.9412 0.0
H1834 H 0.94861 0.52714 0.94548 0.0
H1835 H 0.94392 0.57061 0.96887 0.0
S1836 S 1.01374 0.59799 0.88065 0.0
N1837 N 1.00427 0.56588 0.88142 0.0
N1838 N 0.99912 0.61249 0.90712 0.0
C1839 C 0.98547 0.591 0.91767 0.0
C1840 C 0.98833 0.56576 0.90396 0.0
C1841 C 0.83692 0.8394 0.36611 0.0
C1842 C 0.85146 0.81657 0.35702 0.0
C1843 C 0.81358 0.8364 0.38216 0.0
C1844 C 0.80422 0.81048 0.38938 0.0
H1845 H 0.8429 0.85955 0.35974 0.0
H1846 H 0.80215 0.85431 0.38783 0.0
S1847 S 0.83816 0.74485 0.3745 0.0
N1848 N 0.85707 0.76775 0.35904 0.0
N1849 N 0.81337 0.76193 0.38929 0.0
C1850 C 0.81974 0.7877 0.38186 0.0
C1851 C 0.84337 0.79079 0.36562 0.0
C1852 C 0.5831 0.47342 0.40767 0.0
C1853 C 0.55689 0.48268 0.40118 0.0
C1854 C 0.58671 0.4501 0.42352 0.0
C1855 C 0.5642 0.43539 0.43307 0.0
H1856 H 0.60083 0.48491 0.40156 0.0
H1857 H 0.60711 0.44424 0.42935 0.0
S1858 S 0.49178 0.4485 0.41764 0.0
N1859 N 0.50831 0.47346 0.40265 0.0
N1860 N 0.51527 0.42957 0.43226 0.0
C1861 C 0.53808 0.44339 0.42519 0.0
C1862 C 0.53437 0.4671 0.40926 0.0
C1863 C 0.3139 0.70092 0.65707 0.0
C1864 C 0.30415 0.72694 0.65069 0.0
C1865 C 0.33737 0.69765 0.67291 0.0
C1866 C 0.35174 0.72032 0.68257 0.0
H1867 H 0.3027 0.68305 0.65084 0.0
H1868 H 0.3436 0.67737 0.67861 0.0
S1869 S 0.33733 0.79245 0.66758 0.0
N1870 N 0.3126 0.77559 0.65248 0.0
N1871 N 0.35671 0.76925 0.68204 0.0
C1872 C 0.34323 0.74628 0.67486 0.0
C1873 C 0.31939 0.74965 0.65894 0.0
C1874 C 0.95865 0.48911 0.59695 0.0
C1875 C 0.97327 0.49173 0.62134 0.0
C1876 C 0.95733 0.46418 0.5834 0.0
C1877 C 0.97039 0.44116 0.59393 0.0
H1878 H 0.94904 0.50658 0.58772 0.0
H1879 H 0.94653 0.46298 0.56426 0.0
S1880 S 1.00936 0.43645 0.65791 0.0
N1881 N 0.9996 0.46846 0.65629 0.0
N1882 N 0.99713 0.42177 0.63035 0.0
C1883 C 0.98413 0.4431 0.61866 0.0
C1884 C 0.98556 0.46839 0.63251 0.0
C1885 C 0.05295 0.06345 0.62899 0.0
C1886 C 0.0644 0.03982 0.61752 0.0
C1887 C 0.05372 0.08824 0.61532 0.0
C1888 C 0.06594 0.09023 0.58979 0.0
H1889 H 0.04277 0.06277 0.64846 0.0
H1890 H 0.04433 0.10587 0.62456 0.0
S1891 S 0.10054 0.03556 0.55152 0.0
N1892 N 0.08958 0.02066 0.57946 0.0
N1893 N 0.09106 0.06761 0.55395 0.0
C1894 C 0.07824 0.06724 0.57838 0.0
C1895 C 0.07753 0.04193 0.59226 0.0
C1896 C 0.67584 0.69998 0.83813 0.0
C1897 C 0.68396 0.68503 0.81519 0.0
C1898 C 0.66 0.72346 0.83536 0.0
C1899 C 0.6521 0.73265 0.80956 0.0
H1900 H 0.68273 0.69413 0.85818 0.0
H1901 H 0.65499 0.7351 0.85334 0.0
S1902 S 0.66456 0.69798 0.74379 0.0
N1903 N 0.68035 0.679 0.76645 0.0
N1904 N 0.65075 0.7232 0.76104 0.0
C1905 C 0.65879 0.71689 0.78668 0.0
C1906 C 0.67471 0.69301 0.78956 0.0
C1907 C 0.96509 0.08349 0.45595 0.0
C1908 C 0.94221 0.09467 0.46878 0.0
C1909 C 0.99011 0.09697 0.45639 0.0
C1910 C 0.99297 0.12197 0.46985 0.0
H1911 H 0.96373 0.06392 0.44602 0.0
H1912 H 1.00747 0.08719 0.44707 0.0
S1913 S 0.93807 0.16033 0.50482 0.0
N1914 N 0.92319 0.13231 0.49405 0.0
N1915 N 0.97 0.15817 0.49474 0.0
C1916 C 0.96973 0.1338 0.4818 0.0
C1917 C 0.94436 0.11999 0.48133 0.0
C1918 C 0.36505 0.83418 0.83872 0.0
C1919 C 0.35569 0.84863 0.81597 0.0
C1920 C 0.38118 0.81092 0.83557 0.0
C1921 C 0.38818 0.80151 0.80956 0.0
H1922 H 0.3589 0.8402 0.85897 0.0
H1923 H 0.38713 0.79962 0.85346 0.0
S1924 S 0.37247 0.8351 0.74398 0.0
N1925 N 0.35722 0.85406 0.76706 0.0
N1926 N 0.38748 0.81041 0.76095 0.0
C1927 C 0.38031 0.81687 0.78682 0.0
C1928 C 0.36404 0.84046 0.79007 0.0
C1929 C 0.04685 0.43838 0.45761 0.0
C1930 C 0.04436 0.41412 0.47238 0.0
C1931 C 0.07159 0.45232 0.45667 0.0
C1932 C 0.09455 0.44234 0.47031 0.0
H1933 H 0.02942 0.44717 0.44747 0.0
H1934 H 0.07271 0.47125 0.44556 0.0
S1935 S 0.09957 0.37915 0.51029 0.0
N1936 N 0.06774 0.38002 0.4997 0.0
N1937 N 0.114 0.40677 0.49807 0.0
C1938 C 0.09273 0.41785 0.48439 0.0
C1939 C 0.06766 0.40356 0.48536 0.0
C1940 C 0.67808 0.33931 0.74359 0.0
C1941 C 0.68631 0.34785 0.71778 0.0
C1942 C 0.66261 0.31584 0.74675 0.0
C1943 C 0.65482 0.30007 0.72419 0.0
H1944 H 0.68422 0.35051 0.76151 0.0
H1945 H 0.65714 0.30979 0.76717 0.0
S1946 S 0.6709 0.31453 0.6521 0.0
N1947 N 0.68541 0.33945 0.66918 0.0
N1948 N 0.65581 0.29529 0.67502 0.0
C1949 C 0.66209 0.30902 0.69811 0.0
C1950 C 0.678 0.33296 0.69493 0.0
C1951 C 0.59013 0.11321 0.54686 0.0
C1952 C 0.59926 0.10548 0.57264 0.0
C1953 C 0.56675 0.12891 0.54389 0.0
C1954 C 0.55175 0.13758 0.56664 0.0
H1955 H 0.6007 0.10636 0.5288 0.0
H1956 H 0.5601 0.13386 0.52352 0.0
S1957 S 0.56817 0.1237 0.63873 0.0
N1958 N 0.59234 0.10813 0.62143 0.0
N1959 N 0.54848 0.13842 0.61589 0.0
C1960 C 0.56144 0.13112 0.59265 0.0
C1961 C 0.58523 0.11485 0.59565 0.0
C1962 C 0.35038 0.23895 0.70844 0.0
C1963 C 0.37438 0.24197 0.72362 0.0
C1964 C 0.33725 0.21383 0.70685 0.0
C1965 C 0.34787 0.19099 0.72013 0.0
H1966 H 0.34105 0.25627 0.69864 0.0
H1967 H 0.31828 0.21237 0.69575 0.0
S1968 S 0.41115 0.18727 0.76037 0.0
N1969 N 0.40919 0.21925 0.75063 0.0
N1970 N 0.38411 0.17216 0.74753 0.0
C1971 C 0.37232 0.1933 0.73433 0.0
C1972 C 0.38571 0.21881 0.73609 0.0
C1973 C 0.47213 0.40881 0.54096 0.0
C1974 C 0.48743 0.40062 0.56368 0.0
C1975 C 0.44854 0.42424 0.54395 0.0
C1976 C 0.43953 0.4322 0.56973 0.0
H1977 H 0.47863 0.4036 0.5206 0.0
H1978 H 0.43764 0.43059 0.52592 0.0
S1979 S 0.47172 0.41562 0.63573 0.0
N1980 N 0.4913 0.40073 0.61289 0.0
N1981 N 0.44717 0.43058 0.61847 0.0
C1982 C 0.45403 0.42349 0.59271 0.0
C1983 C 0.47798 0.40746 0.58969 0.0
C1984 C 0.80013 0.65826 0.72253 0.0
C1985 C 0.81318 0.66818 0.74605 0.0
C1986 C 0.80254 0.6716 0.69762 0.0
C1987 C 0.81799 0.69527 0.69546 0.0
H1988 H 0.78748 0.64031 0.7234 0.0
H1989 H 0.79173 0.66376 0.68013 0.0
S1990 S 0.85746 0.72898 0.74982 0.0
N1991 N 0.8432 0.70269 0.7649 0.0
N1992 N 0.84756 0.72767 0.71782 0.0
C1993 C 0.83184 0.70503 0.71833 0.0
C1994 C 0.82952 0.69146 0.74372 0.0
C1995 C 0.95304 0.95624 0.57215 0.0
C1996 C 0.94281 0.96913 0.59542 0.0
C1997 C 0.9393 0.95797 0.54734 0.0
C1998 C 0.91503 0.97286 0.54505 0.0
H1999 H 0.97211 0.94528 0.57306 0.0
H2000 H 0.94831 0.94842 0.52969 0.0
S2001 S 0.87929 1.00877 0.60108 0.0
N2002 N 0.90683 0.99606 0.61541 0.0
N2003 N 0.88054 0.99933 0.56892 0.0
C2004 C 0.90416 0.98501 0.56864 0.0
C2005 C 0.9182 0.98315 0.59383 0.0
C2006 C 0.24511 0.85894 0.69844 0.0
C2007 C 0.21917 0.85202 0.68898 0.0
C2008 C 0.24832 0.8744 0.72197 0.0
C2009 C 0.22567 0.88368 0.73677 0.0
H2010 H 0.26308 0.85182 0.68791 0.0
H2011 H 0.26878 0.87883 0.72879 0.0
S2012 S 0.15329 0.87158 0.71985 0.0
N2013 N 0.17037 0.85571 0.69573 0.0
N2014 N 0.17639 0.88565 0.73972 0.0
C2015 C 0.19955 0.87784 0.72689 0.0
C2016 C 0.1963 0.86177 0.70301 0.0
C2017 C 0.13186 0.55519 0.56298 0.0
C2018 C 0.12026 0.56655 0.53936 0.0
C2019 C 0.11859 0.55661 0.58803 0.0
C2020 C 0.09333 0.56942 0.5903 0.0
H2021 H 0.15104 0.54442 0.56203 0.0
H2022 H 0.12774 0.54694 0.60554 0.0
S2023 S 0.05501 0.60418 0.53578 0.0
N2024 N 0.08252 0.59244 0.52056 0.0
N2025 N 0.05775 0.5951 0.56793 0.0
C2026 C 0.08195 0.58182 0.56735 0.0
C2027 C 0.09542 0.58046 0.54179 0.0
C2028 C 0.83786 0.37935 0.81217 0.0
C2029 C 0.81194 0.38663 0.80268 0.0
C2030 C 0.84081 0.3641 0.83601 0.0
C2031 C 0.81792 0.35599 0.851 0.0
H2032 H 0.85581 0.38433 0.80047 0.0
H2033 H 0.86094 0.35754 0.84202 0.0
S2034 S 0.74619 0.37405 0.83736 0.0
N2035 N 0.76334 0.38752 0.81193 0.0
N2036 N 0.76906 0.35908 0.85678 0.0
C2037 C 0.79215 0.36474 0.84275 0.0
C2038 C 0.78911 0.38004 0.81853 0.0
C2039 C 0.62628 0.95379 0.47656 0.0
C2040 C 0.63323 0.97973 0.48613 0.0
C2041 C 0.61068 0.95072 0.45294 0.0
C2042 C 0.60185 0.97347 0.43818 0.0
H2043 H 0.63195 0.93588 0.48796 0.0
H2044 H 0.60462 0.9305 0.44678 0.0
S2045 S 0.6185 0.04531 0.45221 0.0
N2046 N 0.63276 0.02831 0.47732 0.0
N2047 N 0.60369 0.02233 0.43281 0.0
C2048 C 0.61004 0.99932 0.44661 0.0
C2049 C 0.6257 1.0025 0.47065 0.0
C2050 C 0.21367 0.20799 0.81843 0.0
C2051 C 0.22252 0.19549 0.84244 0.0
C2052 C 0.2151 0.19433 0.79356 0.0
C2053 C 0.2256 0.16784 0.79202 0.0
H2054 H 0.20585 0.22853 0.8189 0.0
H2055 H 0.20876 0.20493 0.77538 0.0
S2056 S 0.24999 0.12609 0.84993 0.0
N2057 N 0.24109 0.15529 0.86376 0.0
N2058 N 0.24368 0.1292 0.81715 0.0
C2059 C 0.23379 0.15494 0.81622 0.0
C2060 C 0.2323 0.1689 0.84144 0.0
C2061 C 0.40806 0.53741 0.47073 0.0
C2062 C 0.40001 0.56 0.48627 0.0
C2063 C 0.42262 0.54062 0.44667 0.0
C2064 C 0.42989 0.56648 0.43744 0.0
H2065 H 0.40354 0.51699 0.47748 0.0
H2066 H 0.42909 0.52268 0.43569 0.0
S2067 S 0.41313 0.63218 0.47005 0.0
N2068 N 0.39927 0.60917 0.49008 0.0
N2069 N 0.4276 0.61515 0.44504 0.0
C2070 C 0.42115 0.58932 0.45212 0.0
C2071 C 0.40597 0.58608 0.47655 0.0
C2072 C 0.69896 0.79892 0.67186 0.0
C2073 C 0.6928 0.82133 0.68808 0.0
C2074 C 0.72369 0.79747 0.65808 0.0
C2075 C 0.74332 0.81823 0.66047 0.0
H2076 H 0.68483 0.78214 0.67033 0.0
H2077 H 0.72767 0.77948 0.64608 0.0
S2078 S 0.73578 0.88163 0.70047 0.0
N2079 N 0.70706 0.86509 0.7055 0.0
N2080 N 0.75407 0.8624 0.67993 0.0
C2081 C 0.73687 0.84119 0.67619 0.0
C2082 C 0.71146 0.8427 0.68999 0.0
C2083 C 0.72285 0.20584 0.88361 0.0
C2084 C 0.73287 0.23178 0.88981 0.0
C2085 C 0.69955 0.20278 0.86752 0.0
C2086 C 0.68564 0.22557 0.85744 0.0
H2087 H 0.73379 0.18788 0.89003 0.0
H2088 H 0.6932 0.18255 0.86178 0.0
S2089 S 0.70077 0.29759 0.87218 0.0
N2090 N 0.72507 0.2805 0.88774 0.0
N2091 N 0.68127 0.27457 0.85758 0.0
C2092 C 0.69432 0.25147 0.86513 0.0
C2093 C 0.71799 0.25462 0.88133 0.0
C2094 C 0.4886 0.06502 0.40772 0.0
C2095 C 0.4727 0.04261 0.4158 0.0
C2096 C 0.48667 0.08998 0.42107 0.0
C2097 C 0.46878 0.09332 0.44284 0.0
H2098 H 0.50318 0.06317 0.39135 0.0
H2099 H 0.49975 0.10651 0.41484 0.0
S2100 S 0.42152 0.04233 0.47113 0.0
N2101 N 0.43745 0.02622 0.44638 0.0
N2102 N 0.43401 0.07341 0.47139 0.0
C2103 C 0.45207 0.07169 0.4506 0.0
C2104 C 0.45394 0.04623 0.43704 0.0
C2105 C 0.32179 0.3312 0.83597 0.0
C2106 C 0.34504 0.31847 0.84647 0.0
C2107 C 0.29698 0.32999 0.84978 0.0
C2108 C 0.2947 0.31583 0.87444 0.0
H2109 H 0.32271 0.34165 0.81665 0.0
H2110 H 0.27932 0.33929 0.84053 0.0
S2111 S 0.35071 0.28072 0.91101 0.0
N2112 N 0.36502 0.29249 0.8831 0.0
N2113 N 0.31859 0.29033 0.90959 0.0
C2114 C 0.3183 0.30394 0.8856 0.0
C2115 C 0.34346 0.30521 0.87145 0.0
C2116 C 0.04592 0.97181 0.91135 0.0
C2117 C 0.0605 0.99475 0.92039 0.0
C2118 C 0.0486 0.94673 0.92427 0.0
C2119 C 0.06587 0.94384 0.9466 0.0
H2120 H 0.03193 0.97327 0.89443 0.0
H2121 H 0.03665 0.92968 0.91718 0.0
S2122 S 0.10936 0.99656 0.97777 0.0
N2123 N 0.09362 1.01232 0.9527 0.0
N2124 N 0.09845 0.96491 0.97694 0.0
C2125 C 0.08113 0.96612 0.95548 0.0
C2126 C 0.07854 0.99169 0.94233 0.0
C2127 C 0.81632 0.24525 0.16309 0.0
C2128 C 0.80099 0.22235 0.15546 0.0
C2129 C 0.83987 0.24269 0.1787 0.0
C2130 C 0.84888 0.21717 0.18734 0.0
H2131 H 0.80994 0.26545 0.15723 0.0
H2132 H 0.85083 0.26085 0.18451 0.0
S2133 S 0.8166 0.15084 0.1727 0.0
N2134 N 0.79704 0.17321 0.15715 0.0
N2135 N 0.84117 0.1685 0.18716 0.0
C2136 C 0.83429 0.19401 0.17935 0.0
C2137 C 0.81035 0.19658 0.16322 0.0
C2138 C 0.45217 0.95041 0.11112 0.0
C2139 C 0.4747 0.93516 0.10244 0.0
C2140 C 0.45568 0.97402 0.1266 0.0
C2141 C 0.48183 0.98307 0.13362 0.0
H2142 H 0.43183 0.94468 0.10496 0.0
H2143 H 0.43793 0.98581 0.13211 0.0
S2144 S 0.54691 0.94772 0.1192 0.0
N2145 N 0.52352 0.92875 0.10448 0.0
N2146 N 0.53035 0.97322 0.13331 0.0
C2147 C 0.50436 0.96706 0.12627 0.0
C2148 C 0.50072 0.94303 0.11073 0.0
C2149 C 0.5427 0.58828 0.11218 0.0
C2150 C 0.5686 0.59728 0.10466 0.0
C2151 C 0.53949 0.56466 0.12742 0.0
C2152 C 0.56212 0.54931 0.1358 0.0
H2153 H 0.52474 0.59919 0.1056 0.0
H2154 H 0.51903 0.55817 0.13228 0.0
S2155 S 0.63442 0.56492 0.12175 0.0
N2156 N 0.61734 0.58959 0.10681 0.0
N2157 N 0.61138 0.54534 0.13621 0.0
C2158 C 0.58825 0.55873 0.12933 0.0
C2159 C 0.59148 0.58273 0.11355 0.0
C2160 C 1.01655 0.29444 0.25464 0.0
C2161 C 0.04328 0.28468 0.25265 0.0
C2162 C 0.99425 0.27649 0.25547 0.0
C2163 C 0.99755 0.24797 0.25376 0.0
H2164 H 1.01287 0.31602 0.25654 0.0
H2165 H 0.97412 0.28515 0.25762 0.0
S2166 S 0.06333 0.21214 0.246 0.0
N2167 N 0.07172 0.24452 0.24755 0.0
N2168 N 0.02987 0.21119 0.24848 0.0
C2169 C 0.0241 0.23806 0.25061 0.0
C2170 C 0.04687 0.25627 0.25026 0.0
C2171 C 0.50929 0.73988 0.03297 0.0
C2172 C 0.53776 0.74341 0.03561 0.0
C2173 C 0.49105 0.76198 0.03346 0.0
C2174 C 0.50052 0.7887 0.03606 0.0
H2175 H 0.50089 0.71974 0.03033 0.0
H2176 H 0.46954 0.75818 0.03081 0.0
S2177 S 0.57271 0.80927 0.04526 0.0
N2178 N 0.57409 0.77593 0.04243 0.0
N2179 N 0.54024 0.81739 0.04276 0.0
C2180 C 0.52885 0.7925 0.0394 0.0
C2181 C 0.54732 0.76996 0.03937 0.0
C2182 C 0.02259 0.79567 0.28601 0.0
C2183 C 0.99574 0.78613 0.28674 0.0
C2184 C 0.04478 0.77755 0.28522 0.0
C2185 C 0.04124 0.74902 0.28576 0.0
H2186 H 0.02651 0.81727 0.28513 0.0
H2187 H 0.06503 0.78608 0.28407 0.0
S2188 S 0.97502 0.71356 0.28992 0.0
N2189 N 0.96688 0.74606 0.28932 0.0
N2190 N 1.00854 0.71238 0.28853 0.0
C2191 C 1.01454 0.73925 0.28763 0.0
C2192 C 0.99188 0.75766 0.28789 0.0
C2193 C 0.99193 0.77112 1.0028 0.0
C2194 C 1.00165 0.74456 0.99961 0.0
C2195 C 1.00996 0.79329 1.00399 0.0
C2196 C 0.03848 0.78999 1.00151 0.0
H2197 H 0.97039 0.7747 1.00558 0.0
H2198 H 1.00139 0.81328 1.00724 0.0
S2199 S 0.074 0.72471 0.99011 0.0
N2200 N 0.04159 0.7163 0.99224 0.0
N2201 N 0.07512 0.75799 0.99384 0.0
C2202 C 0.04828 0.76367 0.99691 0.0
C2203 C 0.03 0.74103 0.99618 0.0
C2204 C 0.25565 0.99182 0.2782 0.0
C2205 C 0.25395 0.99541 0.24969 0.0
C2206 C 0.25516 1.01391 0.29642 0.0
C2207 C 0.25354 0.0407 0.28694 0.0
H2208 H 0.25752 0.97163 0.28664 0.0
H2209 H 0.25698 1.01001 0.31797 0.0
S2210 S 0.24705 0.06149 0.21456 0.0
N2211 N 0.24908 0.02807 0.21324 0.0
N2212 N 0.24876 0.06954 0.24707 0.0
C2213 C 0.25116 0.04459 0.25854 0.0
C2214 C 0.25118 0.02204 0.24006 0.0
C2215 C 0.27121 0.51164 0.99939 0.0
C2216 C 0.28909 0.53377 0.99807 0.0
C2217 C 0.25031 0.51056 1.01889 0.0
C2218 C 0.24666 0.53125 0.03851 0.0
H2219 H 0.27368 0.49476 0.98551 0.0
H2220 H 0.23699 0.49309 1.01871 0.0
S2221 S 0.28885 0.59338 0.04409 0.0
N2222 N 0.30228 0.5767 1.01824 0.0
N2223 N 0.26321 0.5747 0.05497 0.0
C2224 C 0.26468 0.55342 0.03751 0.0
C2225 C 0.28579 0.55464 1.01734 0.0
C2226 C 0.78606 0.51534 0.24069 0.0
C2227 C 0.78867 0.54201 0.25032 0.0
C2228 C 0.78495 0.49323 0.25878 0.0
C2229 C 0.78702 0.49667 0.28728 0.0
H2230 H 0.78381 0.5116 0.21914 0.0
H2231 H 0.7822 0.47315 0.25028 0.0
S2232 S 0.79669 0.56228 0.32269 0.0
N2233 N 0.7949 0.57053 0.29025 0.0
N2234 N 0.79351 0.52895 0.32387 0.0
C2235 C 0.79094 0.52312 0.29704 0.0
C2236 C 0.79154 0.54572 0.27869 0.0
C2237 C 0.78037 0.98043 0.03049 0.0
C2238 C 0.79064 1.00495 0.04111 0.0
C2239 C 0.75999 0.98029 1.01017 0.0
C2240 C 0.74898 1.00467 0.99997 0.0
H2241 H 0.78866 0.96128 0.03736 0.0
H2242 H 0.75236 0.96101 1.00289 0.0
S2243 S 0.76895 0.07414 0.02103 0.0
N2244 N 0.78848 0.05407 0.03946 0.0
N2245 N 0.74991 0.05384 1.00234 0.0
C2246 C 0.75903 0.02918 1.01065 0.0
C2247 C 0.77991 0.02931 0.03085 0.0
C2248 C 0.24194 0.25076 0.02417 0.0
C2249 C 0.2515 0.24847 0.99745 0.0
C2250 C 0.26014 0.25138 0.04632 0.0
C2251 C 0.28867 0.24925 0.04278 0.0
H2252 H 0.2204 0.25325 0.02795 0.0
H2253 H 0.25169 0.25386 0.06647 0.0
S2254 S 0.32382 0.24042 0.97684 0.0
N2255 N 0.29132 0.24247 0.96872 0.0
N2256 N 0.32513 0.24306 1.01024 0.0
C2257 C 0.29831 0.24566 1.01622 0.0
C2258 C 0.27986 0.24546 0.99365 0.0
C2259 C 0.29707 0.78396 0.52224 0.0
C2260 C 0.28733 0.78588 0.49551 0.0
C2261 C 0.27906 0.78321 0.54453 0.0
C2262 C 0.25049 0.78494 0.54122 0.0
H2263 H 0.31869 0.78208 0.52594 0.0
H2264 H 0.28771 0.78111 0.56465 0.0
S2265 S 0.21466 0.79248 0.47545 0.0
N2266 N 0.24711 0.79089 0.46708 0.0
N2267 N 0.21368 0.79011 0.50887 0.0
C2268 C 0.24059 0.78799 0.51467 0.0
C2269 C 0.25886 0.78826 0.49192 0.0
C2270 C 0.03689 0.52623 0.79369 0.0
C2271 C 0.03861 0.49772 0.79019 0.0
C2272 C 0.03746 0.54431 0.77151 0.0
C2273 C 0.03921 0.53469 0.74475 0.0
H2274 H 0.0348 0.53476 0.81386 0.0
H2275 H 0.03539 0.56586 0.77532 0.0
S2276 S 0.04606 0.46233 0.72422 0.0
N2277 N 0.04387 0.46115 0.75766 0.0
N2278 N 0.04428 0.49475 0.71604 0.0
C2279 C 0.04177 0.50632 0.74097 0.0
C2280 C 0.04169 0.48798 0.7636 0.0
C2281 C 0.77914 0.75008 0.49241 0.0
C2282 C 0.75056 0.74893 0.49586 0.0
C2283 C 0.79723 0.74985 0.51465 0.0
C2284 C 0.78753 0.74907 0.54143 0.0
H2285 H 0.78772 0.75155 0.47221 0.0
H2286 H 0.81885 0.75145 0.51086 0.0
S2287 S 0.71491 0.74394 0.56189 0.0
N2288 N 0.71381 0.74519 0.5284 0.0
N2289 N 0.74742 0.74542 0.57013 0.0
C2290 C 0.75907 0.74702 0.54517 0.0
C2291 C 0.74072 0.74674 0.52249 0.0
C2292 C 0.50406 0.48968 0.27274 0.0
C2293 C 0.50152 0.49921 0.24601 0.0
C2294 C 0.50461 0.50778 0.29498 0.0
C2295 C 0.50204 0.53623 0.29161 0.0
H2296 H 0.50653 0.46817 0.27648 0.0
H2297 H 0.50711 0.49929 0.3151 0.0
S2298 S 0.49279 0.57143 0.22579 0.0
N2299 N 0.49517 0.53905 0.21751 0.0
N2300 N 0.49552 0.57264 0.25919 0.0
C2301 C 0.49847 0.54588 0.26504 0.0
C2302 C 0.49842 0.52753 0.24236 0.0
C2303 C 1.00368 0.04589 0.76639 0.0
C2304 C 1.0017 0.03634 0.79315 0.0
C2305 C 1.00458 0.02776 0.74421 0.0
C2306 C 1.0029 0.99926 0.74766 0.0
H2307 H 1.00549 0.06744 0.76258 0.0
H2308 H 1.00677 0.03625 0.72406 0.0
S2309 S 0.99501 0.96395 0.81353 0.0
N2310 N 0.99655 0.99639 0.82176 0.0
N2311 N 0.99756 0.96273 0.78012 0.0
C2312 C 0.9997 0.98955 0.77423 0.0
C2313 C 0.99932 1.00795 0.79688 0.0
C2314 C 0.49419 0.77667 0.75429 0.0
C2315 C 0.49764 0.74819 0.75239 0.0
C2316 C 0.51643 0.79473 0.75362 0.0
C2317 C 0.54322 0.7851 0.75165 0.0
H2318 H 0.47402 0.78522 0.75641 0.0
H2319 H 0.51265 0.81629 0.75561 0.0
S2320 S 0.56362 0.7127 0.74471 0.0
N2321 N 0.53016 0.71159 0.74704 0.0
N2322 N 0.57186 0.74511 0.74648 0.0
C2323 C 0.54694 0.75672 0.74915 0.0
C2324 C 0.52426 0.73841 0.74931 0.0
C2325 C 1.00847 0.27634 0.55539 0.0
C2326 C 0.99906 0.28779 0.53088 0.0
C2327 C 0.0289 0.25603 0.55553 0.0
C2328 C 0.04051 0.2464 0.53116 0.0
H2329 H 1.0005 0.28356 0.57458 0.0
H2330 H 0.03505 0.24728 0.57473 0.0
S2331 S 0.02283 0.26954 0.46172 0.0
N2332 N 1.00322 0.28791 0.48178 0.0
N2333 N 0.0407 0.24976 0.48203 0.0
C2334 C 0.0311 0.25767 0.50668 0.0
C2335 C 1.0107 0.27833 0.50655 0.0
C2336 C 0.52413 0.29597 0.78547 0.0
C2337 C 0.49738 0.28648 0.78792 0.0
C2338 C 0.54628 0.27778 0.78471 0.0
C2339 C 0.54276 0.24931 0.78689 0.0
H2340 H 0.52793 0.31746 0.78306 0.0
H2341 H 0.56643 0.28621 0.78215 0.0
S2342 S 0.47683 0.21432 0.79618 0.0
N2343 N 0.46867 0.24675 0.79411 0.0
N2344 N 0.51023 0.21297 0.79331 0.0
C2345 C 0.51619 0.23973 0.7906 0.0
C2346 C 0.49359 0.25817 0.79091 0.0
C2347 C 0.54762 0.26444 0.50421 0.0
C2348 C 0.53796 0.29117 0.50238 0.0
C2349 C 0.52952 0.24227 0.50479 0.0
C2350 C 0.50099 0.24574 0.50291 0.0
H2351 H 0.56921 0.26066 0.50618 0.0
H2352 H 0.53806 0.22213 0.50689 0.0
S2353 S 0.46545 0.31158 0.49541 0.0
N2354 N 0.49793 0.31981 0.49725 0.0
N2355 N 0.46432 0.27818 0.49762 0.0
C2356 C 0.49119 0.27229 0.49988 0.0
C2357 C 0.50954 0.29492 0.49984 0.0
C2358 C 0.75431 0.54263 0.75941 0.0
C2359 C 0.75318 0.53903 0.78794 0.0
C2360 C 0.75397 0.52052 0.74122 0.0
C2361 C 0.7531 0.49372 0.75074 0.0
H2362 H 0.75563 0.56284 0.75094 0.0
H2363 H 0.75536 0.52445 0.71964 0.0
S2364 S 0.74822 0.47289 0.82323 0.0
N2365 N 0.74957 0.50634 0.8245 0.0
N2366 N 0.74957 0.46483 0.7907 0.0
C2367 C 0.75125 0.48981 0.77918 0.0
C2368 C 0.75109 0.51237 0.79764 0.0
C2369 C 0.77042 0.03435 0.54683 0.0
C2370 C 0.74358 0.03555 0.53724 0.0
C2371 C 0.7926 0.03372 0.52873 0.0
C2372 C 0.78909 0.03486 0.50019 0.0
H2373 H 0.77431 0.03297 0.56843 0.0
H2374 H 0.81282 0.03213 0.53729 0.0
S2375 S 0.72297 0.04056 0.46465 0.0
N2376 N 0.71478 0.03936 0.49714 0.0
N2377 N 0.75648 0.0388 0.4635 0.0
C2378 C 0.76243 0.03726 0.49039 0.0
C2379 C 0.73976 0.03739 0.50877 0.0
C2380 C 0.28504 0.02009 0.79637 0.0
C2381 C 0.2869 0.99337 0.78669 0.0
C2382 C 0.28433 0.04228 0.77834 0.0
C2383 C 0.2861 0.03885 0.74982 0.0
H2384 H 0.28317 0.02386 0.81796 0.0
H2385 H 0.28226 0.06241 0.78691 0.0
S2386 S 0.29353 0.97306 0.71418 0.0
N2387 N 0.29186 0.96478 0.74662 0.0
N2388 N 0.29127 1.00646 0.71311 0.0
C2389 C 0.28912 1.01231 0.73998 0.0
C2390 C 0.28929 0.98965 0.75827 0.0
C2391 C 0.29601 0.5003 0.51033 0.0
C2392 C 0.29229 0.49999 0.53886 0.0
C2393 C 0.27389 0.5 0.49211 0.0
C2394 C 0.24701 0.50002 0.50162 0.0
H2395 H 0.31632 0.50099 0.50188 0.0
H2396 H 0.27788 0.50077 0.47051 0.0
S2397 S 0.22586 0.49751 0.57412 0.0
N2398 N 0.25939 0.49808 0.57544 0.0
N2399 N 0.21788 0.49822 0.54155 0.0
C2400 C 0.24298 0.49899 0.53006 0.0
C2401 C 0.26553 0.49875 0.54856 0.0
C2402 C 0.74295 0.28552 1.01631 0.0
C2403 C 0.75278 0.28586 0.04306 0.0
C2404 C 0.76088 0.2853 0.99396 0.0
C2405 C 0.78949 0.28605 0.99726 0.0
H2406 H 0.72128 0.28448 1.01257 0.0
H2407 H 0.75214 0.28439 0.9738 0.0
S2408 S 0.82563 0.28945 0.06319 0.0
N2409 N 0.79316 0.28836 0.07159 0.0
N2410 N 0.82649 0.28864 0.02968 0.0
C2411 C 0.79952 0.28756 0.02389 0.0
C2412 C 0.78131 0.28724 0.04669 0.0
C2413 C 0.53542 0.98961 0.26406 0.0
C2414 C 0.53676 0.99934 0.29082 0.0
C2415 C 0.5354 1.00759 0.24177 0.0
C2416 C 0.53732 0.03609 0.24515 0.0
H2417 H 0.53342 0.96805 0.26032 0.0
H2418 H 0.53372 0.99896 0.2216 0.0
S2419 S 0.54371 0.07176 0.31111 0.0
N2420 N 0.54155 0.03939 0.31941 0.0
N2421 N 0.54212 0.07277 0.27764 0.0
C2422 C 0.53982 0.04594 0.27178 0.0
C2423 C 0.53935 0.02771 0.29449 0.0
C2424 C 0.1389 0.44646 0.12592 0.0
C2425 C 0.1526 0.46975 0.13542 0.0
C2426 C 0.12411 0.42962 0.14348 0.0
C2427 C 0.12243 0.43504 0.17145 0.0
H2428 H 0.13889 0.44145 0.10451 0.0
H2429 H 0.11374 0.4122 0.13496 0.0
S2430 S 0.15493 0.49272 0.2073 0.0
N2431 N 0.16406 0.49668 0.17529 0.0
N2432 N 0.13597 0.46512 0.20808 0.0
C2433 C 0.13657 0.45771 0.18152 0.0
C2434 C 0.15172 0.47497 0.1636 0.0
C2435 C 0.70079 0.64868 0.16429 0.0
C2436 C 0.72393 0.63503 0.15424 0.0
C2437 C 0.68342 0.66335 0.14711 0.0
C2438 C 0.68817 0.66495 0.11902 0.0
H2439 H 0.69632 0.6487 0.18582 0.0
H2440 H 0.66611 0.67366 0.15598 0.0
S2441 S 0.74535 0.63284 0.0819 0.0
N2442 N 0.75007 0.6237 0.1138 0.0
N2443 N 0.71758 0.65166 0.08176 0.0
C2444 C 0.71074 0.65097 0.10845 0.0
C2445 C 0.72851 0.63591 0.12596 0.0
C2446 C 0.9049 0.07735 0.17892 0.0
C2447 C 0.91709 0.10133 0.16944 0.0
C2448 C 0.88993 0.06039 0.16134 0.0
C2449 C 0.88635 0.06696 0.13367 0.0
H2450 H 0.90771 0.07119 0.19984 0.0
H2451 H 0.88198 0.04155 0.16931 0.0
S2452 S 0.91062 0.13004 0.10019 0.0
N2453 N 0.92221 0.13229 0.13155 0.0
N2454 N 0.89389 0.10108 0.09873 0.0
C2455 C 0.89714 0.09185 0.12452 0.0
C2456 C 0.91257 0.10882 0.14231 0.0
C2457 C 0.33036 0.88302 0.11031 0.0
C2458 C 0.35392 0.87021 0.1202 0.0
C2459 C 0.31321 0.89801 0.12769 0.0
C2460 C 0.31912 0.901 0.15559 0.0
H2461 H 0.32466 0.88068 0.0892 0.0
H2462 H 0.29467 0.90643 0.11934 0.0
S2463 S 0.38077 0.8746 0.19043 0.0
N2464 N 0.38371 0.86364 0.1589 0.0
N2465 N 0.35209 0.89194 0.19138 0.0
C2466 C 0.34354 0.88946 0.16525 0.0
C2467 C 0.36073 0.87402 0.14764 0.0
C2468 C 0.1164 0.57375 0.3732 0.0
C2469 C 0.12768 0.59905 0.36635 0.0
C2470 C 0.13032 0.55544 0.39011 0.0
C2471 C 0.1558 0.56196 0.4013 0.0
H2472 H 0.09647 0.56819 0.36571 0.0
H2473 H 0.12061 0.53642 0.39531 0.0
S2474 S 0.19426 0.62543 0.39046 0.0
N2475 N 0.16633 0.62935 0.37227 0.0
N2476 N 0.19182 0.59519 0.40461 0.0
C2477 C 0.16747 0.58694 0.39458 0.0
C2478 C 0.15359 0.60542 0.37694 0.0
C2479 C 0.81204 0.63787 0.90945 0.0
C2480 C 0.81823 0.63356 0.88178 0.0
C2481 C 0.82964 0.65264 0.92659 0.0
C2482 C 0.85398 0.66385 0.91667 0.0
H2483 H 0.79298 0.6307 0.91775 0.0
H2484 H 0.82373 0.65607 0.94749 0.0
S2485 S 0.88172 0.65531 0.84717 0.0
N2486 N 0.85221 0.63945 0.84634 0.0
N2487 N 0.88469 0.66734 0.8783 0.0
C2488 C 0.86102 0.65862 0.88952 0.0
C2489 C 0.84335 0.64343 0.87218 0.0
C2490 C 0.88837 0.97517 0.37907 0.0
C2491 C 0.88472 0.96888 0.4068 0.0
C2492 C 0.90385 0.95832 0.36181 0.0
C2493 C 0.91657 0.93474 0.37168 0.0
H2494 H 0.88003 0.99372 0.37078 0.0
H2495 H 0.90659 0.96425 0.34082 0.0
S2496 S 0.91059 0.90691 0.4413 0.0
N2497 N 0.893 0.93541 0.44223 0.0
N2498 N 0.92243 0.90453 0.41005 0.0
C2499 C 0.91217 0.92757 0.39889 0.0
C2500 C 0.89614 0.94438 0.41634 0.0
C2501 C 0.17995 0.87563 0.8906 0.0
C2502 C 0.18516 0.87308 0.91856 0.0
C2503 C 0.19771 0.88973 0.87339 0.0
C2504 C 0.22172 0.90187 0.88326 0.0
H2505 H 0.16199 0.86642 0.88182 0.0
H2506 H 0.19284 0.89045 0.85196 0.0
S2507 S 0.24474 0.90116 0.95516 0.0
N2508 N 0.21603 0.88386 0.95548 0.0
N2509 N 0.24924 0.91082 0.92339 0.0
C2510 C 0.2268 0.90012 0.91143 0.0
C2511 C 0.20863 0.8856 0.92897 0.0
C2512 C 0.17916 0.13328 0.45815 0.0
C2513 C 0.16963 0.11916 0.43522 0.0
C2514 C 0.16136 0.1485 0.47466 0.0
C2515 C 0.13331 0.15031 0.46885 0.0
H2516 H 0.20039 0.13194 0.46381 0.0
H2517 H 0.16962 0.15828 0.49244 0.0
S2518 S 0.09936 0.12073 0.40807 0.0
N2519 N 0.13118 0.11045 0.40568 0.0
N2520 N 0.0979 0.13912 0.43604 0.0
C2521 C 0.12405 0.13761 0.44481 0.0
C2522 C 0.1421 0.12197 0.42828 0.0
C2523 C 0.38894 0.66303 0.83908 0.0
C2524 C 0.40265 0.65316 0.81592 0.0
C2525 C 0.37412 0.64576 0.8562 0.0
C2526 C 0.3724 0.61773 0.85119 0.0
H2527 H 0.38898 0.6845 0.84375 0.0
H2528 H 0.36375 0.65454 0.87351 0.0
S2529 S 0.40467 0.58104 0.79384 0.0
N2530 N 0.41394 0.61292 0.78948 0.0
N2531 N 0.38573 0.58072 0.8215 0.0
C2532 C 0.38647 0.60733 0.8286 0.0
C2533 C 0.40168 0.62493 0.81108 0.0
C2534 C 0.87836 0.38713 0.47485 0.0
C2535 C 0.90575 0.38181 0.46814 0.0
C2536 C 0.86128 0.40195 0.45724 0.0
C2537 C 0.87105 0.41223 0.43245 0.0
H2538 H 0.87034 0.3808 0.4943 0.0
H2539 H 0.84063 0.40624 0.46351 0.0
S2540 S 0.93951 0.40063 0.40329 0.0
N2541 N 0.94054 0.38552 0.43315 0.0
N2542 N 0.90871 0.41363 0.40075 0.0
C2543 C 0.89781 0.40589 0.42488 0.0
C2544 C 0.91504 0.3906 0.4425 0.0
C2545 C 0.66325 0.88616 0.85948 0.0
C2546 C 0.66629 0.91409 0.85467 0.0
C2547 C 0.6485 0.86952 0.84166 0.0
C2548 C 0.63616 0.87996 0.818 0.0
H2549 H 0.67251 0.87697 0.87718 0.0
H2550 H 0.6474 0.84806 0.84621 0.0
S2551 S 0.63806 0.95206 0.7961 0.0
N2552 N 0.65587 0.9516 0.82451 0.0
N2553 N 0.6276 0.9206 0.79128 0.0
C2554 C 0.63845 0.90811 0.81333 0.0
C2555 C 0.65367 0.92506 0.83152 0.0
C2556 C 0.17871 0.90296 0.07819 0.0
C2557 C 0.16944 0.91517 0.1023 0.0
C2558 C 0.16107 0.88759 0.06164 0.0
C2559 C 0.13357 0.88354 0.06877 0.0
H2560 H 0.19948 0.90604 0.07163 0.0
H2561 H 0.16885 0.87968 0.04266 0.0
S2562 S 0.10081 0.90777 0.13241 0.0
N2563 N 0.13198 0.91997 0.13393 0.0
N2564 N 0.09915 0.89069 0.10363 0.0
C2565 C 0.12471 0.89432 0.09383 0.0
C2566 C 0.14252 0.91026 0.11033 0.0
C2567 C 0.15402 0.61108 0.20816 0.0
C2568 C 0.16721 0.62078 0.18476 0.0
C2569 C 0.13941 0.62869 0.22543 0.0
C2570 C 0.13724 0.65671 0.21988 0.0
H2571 H 0.15573 0.58989 0.21367 0.0
H2572 H 0.13055 0.62037 0.24373 0.0
S2573 S 0.16496 0.69135 0.1588 0.0
N2574 N 0.17499 0.65957 0.15552 0.0
N2575 N 0.14754 0.69251 0.1874 0.0
C2576 C 0.14921 0.66625 0.19565 0.0
C2577 C 0.16421 0.64838 0.17831 0.0
C2578 C 0.87946 0.64814 0.06094 0.0
C2579 C 0.90705 0.65255 0.06746 0.0
C2580 C 0.86239 0.63282 0.07802 0.0
C2581 C 0.87235 0.62105 0.10205 0.0
H2582 H 0.87119 0.65565 0.042 0.0
H2583 H 0.84151 0.62941 0.07195 0.0
S2584 S 0.94151 0.62956 0.13062 0.0
N2585 N 0.94234 0.64624 0.10161 0.0
N2586 N 0.9105 0.61707 0.13297 0.0
C2587 C 0.89936 0.62633 0.10948 0.0
C2588 C 0.91661 0.6422 0.09242 0.0
C2589 C 0.87457 0.89059 0.18248 0.0
C2590 C 0.87249 0.91855 0.18781 0.0
C2591 C 0.88926 0.87324 0.19965 0.0
C2592 C 0.9025 0.88295 0.22313 0.0
H2593 H 0.86459 0.88194 0.16488 0.0
H2594 H 0.8896 0.85183 0.19473 0.0
S2595 S 0.90341 0.95479 0.24615 0.0
N2596 N 0.8849 0.9553 0.21819 0.0
N2597 N 0.91296 0.92295 0.25026 0.0
C2598 C 0.90118 0.91111 0.2283 0.0
C2599 C 0.88606 0.9288 0.21076 0.0
C2600 C 0.47778 0.15699 0.14806 0.0
C2601 C 0.4726 0.12887 0.14983 0.0
C2602 C 0.46035 0.17449 0.13358 0.0
C2603 C 0.43717 0.16457 0.12011 0.0
H2604 H 0.49593 0.16548 0.15714 0.0
H2605 H 0.46551 0.1958 0.13223 0.0
S2606 S 0.4123 0.09358 0.1211 0.0
N2607 N 0.4408 0.09266 0.13874 0.0
N2608 N 0.40858 0.12541 0.11149 0.0
C2609 C 0.43113 0.13683 0.12261 0.0
C2610 C 0.44864 0.11907 0.1375 0.0
C2611 C 0.46019 0.85926 0.40359 0.0
C2612 C 0.43617 0.8688 0.41582 0.0
C2613 C 0.47715 0.87676 0.38853 0.0
C2614 C 0.47052 0.9044 0.38481 0.0
H2615 H 0.46639 0.83838 0.40645 0.0
H2616 H 0.49606 0.86876 0.38064 0.0
S2617 S 0.40737 0.938 0.40924 0.0
N2618 N 0.40521 0.90675 0.421 0.0
N2619 N 0.43626 0.93931 0.39231 0.0
C2620 C 0.44558 0.91357 0.39564 0.0
C2621 C 0.42867 0.8959 0.41125 0.0
C2622 C 0.12848 0.31055 0.90076 0.0
C2623 C 0.15611 0.31691 0.90517 0.0
C2624 C 0.11148 0.32747 0.88515 0.0
C2625 C 0.1215 0.35127 0.87308 0.0
H2626 H 0.12007 0.2919 0.90852 0.0
H2627 H 0.09059 0.32141 0.88176 0.0
S2628 S 0.1907 0.3797 0.88155 0.0
N2629 N 0.19145 0.3509 0.89859 0.0
N2630 N 0.15973 0.38198 0.86891 0.0
C2631 C 0.14852 0.35865 0.87841 0.0
C2632 C 0.16571 0.34173 0.89457 0.0
C2633 C 0.58492 0.64657 0.4313 0.0
C2634 C 0.59929 0.66677 0.41707 0.0
C2635 C 0.56697 0.62881 0.41806 0.0
C2636 C 0.56216 0.63063 0.38998 0.0
H2637 H 0.58781 0.64416 0.45297 0.0
H2638 H 0.55663 0.61353 0.43 0.0
S2639 S 0.59535 0.67808 0.34239 0.0
N2640 N 0.60868 0.68562 0.37221 0.0
N2641 N 0.57321 0.65362 0.34809 0.0
C2642 C 0.57589 0.65075 0.37537 0.0
C2643 C 0.59491 0.66843 0.38868 0.0
C2644 C 0.40903 0.72506 0.39837 0.0
C2645 C 0.38107 0.71944 0.40146 0.0
C2646 C 0.42624 0.70766 0.38345 0.0
C2647 C 0.41609 0.68416 0.37077 0.0
H2648 H 0.41757 0.74354 0.40667 0.0
H2649 H 0.44742 0.7131 0.38108 0.0
S2650 S 0.34563 0.65802 0.37555 0.0
N2651 N 0.34497 0.68677 0.39272 0.0
N2652 N 0.37711 0.65474 0.36448 0.0
C2653 C 0.38859 0.67766 0.37468 0.0
C2654 C 0.37117 0.69507 0.39009 0.0
C2655 C 0.07937 0.85913 0.63491 0.0
C2656 C 0.10314 0.86866 0.62225 0.0
C2657 C 0.06261 0.87666 0.65018 0.0
C2658 C 0.06915 0.90435 0.65364 0.0
H2659 H 0.07322 0.83822 0.63225 0.0
H2660 H 0.04391 0.86863 0.65847 0.0
S2661 S 0.13173 0.93799 0.62804 0.0
N2662 N 0.13386 0.90666 0.61642 0.0
N2663 N 0.1031 0.93934 0.64541 0.0
C2664 C 0.09387 0.91354 0.64238 0.0
C2665 C 0.11061 0.89581 0.62659 0.0
C2666 C 0.11183 0.70653 0.65312 0.0
C2667 C 0.12178 0.68212 0.6641 0.0
C2668 C 0.12901 0.72433 0.6387 0.0
C2669 C 0.15677 0.71829 0.63452 0.0
H2670 H 0.09088 0.71236 0.65651 0.0
H2671 H 0.12069 0.74343 0.63173 0.0
S2672 S 0.19156 0.65481 0.65583 0.0
N2673 N 0.16031 0.65156 0.6675 0.0
N2674 N 0.19238 0.68448 0.64037 0.0
C2675 C 0.16642 0.69314 0.64419 0.0
C2676 C 0.14903 0.67525 0.65899 0.0
C2677 C 0.87509 0.84044 0.64595 0.0
C2678 C 0.88475 0.81667 0.63317 0.0
C2679 C 0.89233 0.85739 0.66104 0.0
C2680 C 0.92016 0.85162 0.66396 0.0
H2681 H 0.85374 0.84572 0.64506 0.0
H2682 H 0.88367 0.87515 0.67071 0.0
S2683 S 0.95641 0.79277 0.63404 0.0
N2684 N 0.92468 0.78902 0.62377 0.0
N2685 N 0.95686 0.82075 0.65248 0.0
C2686 C 0.93044 0.8285 0.6507 0.0
C2687 C 0.91284 0.81113 0.63522 0.0
C2688 C 0.64834 0.97527 0.66075 0.0
C2689 C 0.65115 0.96961 0.63277 0.0
C2690 C 0.63375 0.95782 0.67812 0.0
C2691 C 0.62119 0.93417 0.66816 0.0
H2692 H 0.65656 0.99384 0.66915 0.0
H2693 H 0.63151 0.96334 0.69928 0.0
S2694 S 0.62538 0.90794 0.59768 0.0
N2695 N 0.64227 0.93683 0.59681 0.0
N2696 N 0.61475 0.90462 0.62927 0.0
C2697 C 0.62486 0.92764 0.64063 0.0
C2698 C 0.63988 0.94515 0.62303 0.0
C2699 C 0.22098 0.16363 0.65534 0.0
C2700 C 0.22373 0.13525 0.65512 0.0
C2701 C 0.20263 0.17691 0.63803 0.0
C2702 C 0.186 0.16238 0.61987 0.0
H2703 H 0.2331 0.17574 0.66917 0.0
H2704 H 0.20121 0.19881 0.63917 0.0
S2705 S 0.1838 0.08714 0.61353 0.0
N2706 N 0.20798 0.09279 0.6361 0.0
N2707 N 0.17229 0.11731 0.6046 0.0
C2708 C 0.18837 0.13377 0.61976 0.0
C2709 C 0.20756 0.12032 0.6371 0.0
C2710 C 0.40494 0.57761 0.67718 0.0
C2711 C 0.41795 0.6009 0.66705 0.0
C2712 C 0.38994 0.56035 0.65995 0.0
C2713 C 0.38711 0.56591 0.63197 0.0
H2714 H 0.40711 0.57221 0.69837 0.0
H2715 H 0.38134 0.54204 0.66848 0.0
S2716 S 0.41416 0.62675 0.5965 0.0
N2717 N 0.42498 0.63004 0.62804 0.0
N2718 N 0.3966 0.59825 0.59581 0.0
C2719 C 0.39889 0.59005 0.62206 0.0
C2720 C 0.41437 0.60733 0.63952 0.0
C2721 C 0.83062 0.38251 0.61013 0.0
C2722 C 0.85497 0.37108 0.61981 0.0
C2723 C 0.81328 0.39737 0.62746 0.0
C2724 C 0.81976 0.40153 0.65509 0.0
H2725 H 0.82447 0.37915 0.58928 0.0
H2726 H 0.79418 0.40468 0.61936 0.0
S2727 S 0.88345 0.37926 0.68908 0.0
N2728 N 0.88607 0.36732 0.65788 0.0
N2729 N 0.85401 0.39528 0.69023 0.0
C2730 C 0.84492 0.39146 0.66444 0.0
C2731 C 0.86233 0.37622 0.64691 0.0
C2732 C 0.63024 0.05421 0.88981 0.0
C2733 C 0.65527 0.06089 0.90187 0.0
C2734 C 0.61651 0.0727 0.87293 0.0
C2735 C 0.62758 0.09833 0.86701 0.0
H2736 H 0.62065 0.03497 0.89437 0.0
H2737 H 0.59687 0.06705 0.86477 0.0
S2738 S 0.69305 0.12515 0.89351 0.0
N2739 N 0.69067 0.09457 0.90693 0.0
N2740 N 0.6656 0.12903 0.87461 0.0
C2741 C 0.6531 0.10482 0.8784 0.0
C2742 C 0.66675 0.08618 0.89602 0.0
C2743 C 0.33105 0.15263 0.42652 0.0
C2744 C 0.35491 0.16474 0.41652 0.0
C2745 C 0.31357 0.13784 0.4093 0.0
C2746 C 0.31944 0.13439 0.38145 0.0
H2747 H 0.32536 0.15537 0.44759 0.0
H2748 H 0.29484 0.12996 0.4177 0.0
S2749 S 0.38167 0.15887 0.34638 0.0
N2750 N 0.38486 0.17012 0.37779 0.0
N2751 N 0.35259 0.14223 0.34559 0.0
C2752 C 0.3441 0.14524 0.37169 0.0
C2753 C 0.36163 0.16045 0.38913 0.0
C2754 C 0.40426 0.45784 0.86157 0.0
C2755 C 0.41583 0.43367 0.87145 0.0
C2756 C 0.38941 0.47533 0.87877 0.0
C2757 C 0.38537 0.46921 0.90649 0.0
H2758 H 0.40746 0.46371 0.84063 0.0
H2759 H 0.38193 0.49424 0.87047 0.0
S2760 S 0.40825 0.40619 0.94112 0.0
N2761 N 0.42 0.40321 0.90989 0.0
N2762 N 0.39206 0.43551 0.942 0.0
C2763 C 0.39567 0.44427 0.91609 0.0
C2764 C 0.41091 0.42671 0.89867 0.0
C2765 C 0.68106 0.37405 0.39071 0.0
C2766 C 0.68653 0.37212 0.41863 0.0
C2767 C 0.69759 0.38946 0.37341 0.0
C2768 C 0.72062 0.40352 0.38314 0.0
H2769 H 0.66384 0.36342 0.38206 0.0
H2770 H 0.69261 0.3896 0.35199 0.0
S2771 S 0.74343 0.40543 0.45507 0.0
N2772 N 0.71629 0.38577 0.4555 0.0
N2773 N 0.74722 0.4151 0.42321 0.0
C2774 C 0.72584 0.40237 0.4113 0.0
C2775 C 0.7089 0.38658 0.42895 0.0
C2776 C 0.64147 0.62034 0.93218 0.0
C2777 C 0.66963 0.6193 0.93695 0.0
C2778 C 0.62398 0.63499 0.94928 0.0
C2779 C 0.63375 0.64924 0.97215 0.0
H2780 H 0.63277 0.6096 0.91507 0.0
H2781 H 0.60243 0.63451 0.94481 0.0
S2782 S 0.70612 0.65309 0.99354 0.0
N2783 N 0.70664 0.63372 0.96618 0.0
N2784 N 0.67403 0.6618 0.99802 0.0
C2785 C 0.66209 0.64893 0.97674 0.0
C2786 C 0.67991 0.63383 0.95929 0.0
C2787 C 0.88372 0.10923 0.33003 0.0
C2788 C 0.87203 0.11896 0.35423 0.0
C2789 C 0.89878 0.12649 0.31285 0.0
C2790 C 0.90293 0.1541 0.31934 0.0
H2791 H 0.88045 0.08839 0.32389 0.0
H2792 H 0.90629 0.11834 0.29385 0.0
S2793 S 0.87985 0.18824 0.38262 0.0
N2794 N 0.86785 0.1571 0.38514 0.0
N2795 N 0.89628 0.18927 0.35344 0.0
C2796 C 0.89255 0.16351 0.34433 0.0
C2797 C 0.87706 0.14605 0.36157 0.0
C2798 C 0.36142 0.90229 0.95903 0.0
C2799 C 0.37131 0.91451 0.93521 0.0
C2800 C 0.37868 0.88712 0.97614 0.0
C2801 C 0.40643 0.88332 0.96988 0.0
H2802 H 0.34042 0.9052 0.96494 0.0
H2803 H 0.37039 0.87919 0.99489 0.0
S2804 S 0.441 0.90788 0.90742 0.0
N2805 N 0.40973 0.91969 0.90484 0.0
N2806 N 0.44192 0.89088 0.93625 0.0
C2807 C 0.416 0.89423 0.94518 0.0
C2808 C 0.39855 0.90992 0.92809 0.0
C2809 C 0.15573 0.42269 0.33158 0.0
C2810 C 0.16672 0.41257 0.35594 0.0
C2811 C 0.14099 0.40578 0.31376 0.0
C2812 C 0.13655 0.37813 0.31971 0.0
H2813 H 0.1593 0.44358 0.32583 0.0
H2814 H 0.13398 0.41423 0.29472 0.0
S2815 S 0.15785 0.34296 0.38298 0.0
N2816 N 0.1699 0.374 0.38635 0.0
N2817 N 0.1422 0.3424 0.35334 0.0
C2818 C 0.14627 0.36829 0.34479 0.0
C2819 C 0.16138 0.38541 0.36272 0.0
C2820 C 0.62508 0.39954 0.5888 0.0
C2821 C 0.63457 0.38537 0.56577 0.0
C2822 C 0.64273 0.41437 0.60557 0.0
C2823 C 0.67078 0.41568 0.6003 0.0
H2824 H 0.60361 0.39983 0.59365 0.0
H2825 H 0.63424 0.42504 0.62284 0.0
S2826 S 0.70658 0.38209 0.54313 0.0
N2827 N 0.6745 0.3731 0.53923 0.0
N2828 N 0.70739 0.40152 0.57045 0.0
C2829 C 0.6808 0.40119 0.5778 0.0
C2830 C 0.66282 0.38591 0.56069 0.0
C2831 C 0.64011 0.12796 0.72723 0.0
C2832 C 0.63809 0.15594 0.72139 0.0
C2833 C 0.65485 0.11016 0.7103 0.0
C2834 C 0.66836 0.11964 0.68699 0.0
H2835 H 0.63103 0.11984 0.74551 0.0
H2836 H 0.65638 0.08899 0.71595 0.0
S2837 S 0.66654 0.18993 0.66029 0.0
N2838 N 0.64879 0.1914 0.68868 0.0
N2839 N 0.67658 0.15812 0.65746 0.0
C2840 C 0.66552 0.14717 0.68024 0.0
C2841 C 0.65034 0.16523 0.69721 0.0
C2842 C 0.39764 0.12461 0.60818 0.0
C2843 C 0.36979 0.12164 0.60258 0.0
C2844 C 0.4147 0.13974 0.59115 0.0
C2845 C 0.40481 0.1525 0.56749 0.0
H2846 H 0.40645 0.115 0.62589 0.0
H2847 H 0.43608 0.14071 0.59628 0.0
S2848 S 0.33301 0.15142 0.54402 0.0
N2849 N 0.33283 0.13296 0.57197 0.0
N2850 N 0.36466 0.1618 0.5401 0.0
C2851 C 0.3767 0.15038 0.56211 0.0
C2852 C 0.3593 0.13484 0.57955 0.0
C2853 C 0.38537 0.42649 0.71043 0.0
C2854 C 0.37314 0.41688 0.68646 0.0
C2855 C 0.40059 0.40908 0.72733 0.0
C2856 C 0.40445 0.38146 0.72069 0.0
H2857 H 0.38238 0.44736 0.71664 0.0
H2858 H 0.40848 0.41713 0.74621 0.0
S2859 S 0.38016 0.34775 0.6576 0.0
N2860 N 0.36819 0.37894 0.65547 0.0
N2861 N 0.39714 0.34649 0.68647 0.0
C2862 C 0.39366 0.37223 0.69578 0.0
C2863 C 0.3779 0.38982 0.67891 0.0
C2864 C 0.97585 0.65764 0.65 0.0
C2865 C 0.96939 0.63016 0.65484 0.0
C2866 C 0.9581 0.67478 0.63543 0.0
C2867 C 0.93338 0.66502 0.62489 0.0
H2868 H 0.99524 0.66573 0.65651 0.0
H2869 H 0.96424 0.69549 0.63149 0.0
S2870 S 0.90483 0.59622 0.63513 0.0
N2871 N 0.9347 0.5952 0.65033 0.0
N2872 N 0.90201 0.62716 0.6227 0.0
C2873 C 0.92604 0.63814 0.63074 0.0
C2874 C 0.94383 0.62081 0.64579 0.0
C2875 C 0.96141 0.3591 0.90358 0.0
C2876 C 0.93764 0.36896 0.91603 0.0
C2877 C 0.97851 0.37638 0.88846 0.0
C2878 C 0.97228 0.40413 0.88491 0.0
H2879 H 0.96729 0.3381 0.90629 0.0
H2880 H 0.99721 0.36811 0.88035 0.0
S2881 S 0.90989 0.43863 0.91 0.0
N2882 N 0.90732 0.40737 0.92163 0.0
N2883 N 0.93868 0.43957 0.89285 0.0
C2884 C 0.94761 0.41367 0.896 0.0
C2885 C 0.93054 0.3962 0.91166 0.0
C2886 C 0.62822 0.8133 0.40191 0.0
C2887 C 0.65649 0.81793 0.40366 0.0
C2888 C 0.61103 0.83067 0.38699 0.0
C2889 C 0.62138 0.85335 0.37313 0.0
H2890 H 0.61932 0.79567 0.41136 0.0
H2891 H 0.58963 0.82577 0.38556 0.0
S2892 S 0.69279 0.87732 0.37441 0.0
N2893 N 0.69322 0.84915 0.39246 0.0
N2894 N 0.66101 0.88126 0.3645 0.0
C2895 C 0.64921 0.85909 0.37586 0.0
C2896 C 0.66667 0.84162 0.39116 0.0
C2897 C 0.08711 0.14587 0.93151 0.0
C2898 C 0.10125 0.1664 0.91759 0.0
C2899 C 0.06861 0.1288 0.91814 0.0
C2900 C 0.06311 0.13159 0.89025 0.0
H2901 H 0.09066 0.14266 0.95298 0.0
H2902 H 0.05847 0.1132 0.92984 0.0
S2903 S 0.09593 0.18022 0.84346 0.0
N2904 N 0.10976 0.18682 0.8733 0.0
N2905 N 0.07365 0.15577 0.84882 0.0
C2906 C 0.07673 0.15206 0.87596 0.0
C2907 C 0.09615 0.16916 0.88944 0.0
C2908 C 0.90939 0.22615 0.89807 0.0
C2909 C 0.8813 0.22084 0.90066 0.0
C2910 C 0.92662 0.2087 0.88326 0.0
C2911 C 0.91643 0.18542 0.87021 0.0
H2912 H 0.91803 0.24438 0.90678 0.0
H2913 H 0.94791 0.21389 0.88133 0.0
S2914 S 0.84551 0.16024 0.87331 0.0
N2915 N 0.84491 0.18882 0.89079 0.0
N2916 N 0.87715 0.15664 0.86284 0.0
C2917 C 0.88876 0.17928 0.8735 0.0
C2918 C 0.87128 0.19678 0.88876 0.0
C2919 C 0.56251 0.37701 0.14896 0.0
C2920 C 0.56813 0.40488 0.15248 0.0
C2921 C 0.58017 0.35996 0.13415 0.0
C2922 C 0.60399 0.37015 0.12207 0.0
H2923 H 0.54383 0.36846 0.1568 0.0
H2924 H 0.57468 0.33887 0.13137 0.0
S2925 S 0.63012 0.44044 0.1281 0.0
N2926 N 0.60102 0.44096 0.14472 0.0
N2927 N 0.63359 0.40911 0.11679 0.0
C2928 C 0.61045 0.39756 0.12643 0.0
C2929 C 0.59274 0.41483 0.14167 0.0
C2930 C 0.66488 0.19778 0.14954 0.0
C2931 C 0.65525 0.22062 0.1352 0.0
C2932 C 0.64735 0.18117 0.16463 0.0
C2933 C 0.61929 0.18638 0.16598 0.0
H2934 H 0.68636 0.19301 0.14986 0.0
H2935 H 0.65594 0.16408 0.17547 0.0
S2936 S 0.58309 0.24274 0.13165 0.0
N2937 N 0.61516 0.24676 0.12266 0.0
N2938 N 0.58245 0.21571 0.1514 0.0
C2939 C 0.60911 0.20856 0.1512 0.0
C2940 C 0.62698 0.22556 0.13571 0.0
C2941 C 0.42846 0.32625 0.15504 0.0
C2942 C 0.41846 0.34993 0.16753 0.0
C2943 C 0.41115 0.30885 0.14025 0.0
C2944 C 0.38321 0.31462 0.13713 0.0
H2945 H 0.44962 0.32068 0.15746 0.0
H2946 H 0.41958 0.29027 0.13207 0.0
S2947 S 0.34809 0.37645 0.16261 0.0
N2948 N 0.3796 0.37962 0.17361 0.0
N2949 N 0.34727 0.34757 0.14566 0.0
C2950 C 0.37344 0.33913 0.14833 0.0
C2951 C 0.39097 0.35656 0.16358 0.0
loop_
_geom_bond_atom_site_label_1
_geom_bond_atom_site_label_2
_geom_bond_distance
_geom_bond_site_symmetry_2
_ccdc_geom_bond_type
Co0 O3 1.970 . S
Co0 N17 1.989 . S
Co0 O25 1.967 . S
Co0 O32 1.920 . S
Co1 O4 1.966 . S
Co1 N10 2.022 . S
Co1 N18 1.993 . S
Co1 O26 1.941 . S
C2 O3 1.258 . S
C2 O4 1.263 . S
O3 Co0 1.970 . S
O3 C2 1.258 . S
O4 Co1 1.966 . S
O4 C2 1.263 . S
C5 O6 1.235 . S
C5 O32 1.289 . S
O6 C5 1.235 . S
C7 C9 1.400 . S
C7 N10 1.351 . S
C7 C12 1.501 . S
C8 C9 1.387 . S
C8 N11 1.341 . S
C9 C7 1.400 . S
C9 C8 1.387 . S
N10 Co1 2.022 . S
N10 C7 1.351 . S
N10 N11 1.365 . S
N11 C8 1.341 . S
N11 N10 1.365 . S
N11 H31 0.862 . S
C12 C7 1.501 . S
C12 H13 0.961 . S
C12 H14 0.961 . S
C12 H15 0.960 . S
H13 C12 0.961 . S
H14 C12 0.961 . S
H15 C12 0.960 . S
C16 N17 1.342 . S
C16 C20 1.401 . S
C16 C21 1.499 . S
N17 Co0 1.989 . S
N17 C16 1.342 . S
N17 N18 1.388 . S
N18 Co1 1.993 . S
N18 N17 1.388 . S
N18 C19 1.346 . S
C19 N18 1.346 . S
C19 C20 1.396 . S
C19 C29 1.510 . S
C20 C16 1.401 . S
C20 C19 1.396 . S
C21 C16 1.499 . S
C21 H22 0.959 . S
C21 H23 0.960 . S
C21 H24 0.961 . S
H22 C21 0.959 . S
H23 C21 0.960 . S
H24 C21 0.961 . S
O25 Co0 1.967 . S
O25 C33 1.258 . S
O26 Co1 1.941 . S
O26 C33 1.266 . S
H27 C29 0.959 . S
H28 C29 0.961 . S
C29 C19 1.510 . S
C29 H27 0.959 . S
C29 H28 0.961 . S
C29 H30 0.960 . S
H30 C29 0.960 . S
H31 N11 0.862 . S
O32 Co0 1.920 . S
O32 C5 1.289 . S
C33 O25 1.258 . S
C33 O26 1.266 . S
Co34 O37 1.970 1_554 S
Co34 N51 1.989 . S
Co34 O59 1.967 . S
Co34 O66 1.920 . S
Co35 O38 1.966 . S
Co35 N44 2.022 . S
Co35 N52 1.993 . S
Co35 O60 1.941 . S
C36 O37 1.258 1_554 S
C36 O38 1.262 . S
O37 Co34 1.970 1_556 S
O37 C36 1.258 1_556 S
O38 Co35 1.966 . S
O38 C36 1.262 . S
C39 O40 1.235 . S
C39 O66 1.289 1_556 S
O40 C39 1.235 . S
C41 C43 1.400 . S
C41 N44 1.351 . S
C41 C46 1.501 . S
C42 C43 1.387 . S
C42 N45 1.341 . S
C43 C41 1.400 . S
C43 C42 1.387 . S
N44 Co35 2.022 . S
N44 C41 1.351 . S
N44 N45 1.365 . S
N45 C42 1.341 . S
N45 N44 1.365 . S
N45 H65 0.862 . S
C46 C41 1.501 . S
C46 H47 0.961 . S
C46 H48 0.961 . S
C46 H49 0.960 . S
H47 C46 0.961 . S
H48 C46 0.961 . S
H49 C46 0.960 . S
C50 N51 1.342 . S
C50 C54 1.401 . S
C50 C55 1.499 . S
N51 Co34 1.989 . S
N51 C50 1.342 . S
N51 N52 1.388 . S
N52 Co35 1.993 . S
N52 N51 1.388 . S
N52 C53 1.346 . S
C53 N52 1.346 . S
C53 C54 1.396 . S
C53 C63 1.510 . S
C54 C50 1.401 . S
C54 C53 1.396 . S
C55 C50 1.499 . S
C55 H56 0.959 . S
C55 H57 0.960 . S
C55 H58 0.961 . S
H56 C55 0.959 . S
H57 C55 0.960 . S
H58 C55 0.961 . S
O59 Co34 1.967 . S
O59 C67 1.258 . S
O60 Co35 1.941 . S
O60 C67 1.266 . S
H61 C63 0.959 . S
H62 C63 0.961 . S
C63 C53 1.510 . S
C63 H61 0.959 . S
C63 H62 0.961 . S
C63 H64 0.960 . S
H64 C63 0.960 . S
H65 N45 0.862 . S
O66 Co34 1.920 . S
O66 C39 1.289 1_554 S
C67 O59 1.258 . S
C67 O60 1.266 . S
Co68 O71 1.970 . S
Co68 N85 1.989 . S
Co68 O93 1.967 . S
Co68 O100 1.920 . S
Co69 O72 1.966 . S
Co69 N78 2.022 . S
Co69 N86 1.993 . S
Co69 O94 1.941 . S
C70 O71 1.258 . S
C70 O72 1.263 . S
O71 Co68 1.970 . S
O71 C70 1.258 . S
O72 Co69 1.966 . S
O72 C70 1.263 . S
C73 O74 1.235 . S
C73 O100 1.289 . S
O74 C73 1.235 . S
C75 C77 1.400 . S
C75 N78 1.351 . S
C75 C80 1.501 . S
C76 C77 1.387 . S
C76 N79 1.341 . S
C77 C75 1.400 . S
C77 C76 1.387 . S
N78 Co69 2.022 . S
N78 C75 1.351 . S
N78 N79 1.365 . S
N79 C76 1.341 . S
N79 N78 1.365 . S
N79 H99 0.862 . S
C80 C75 1.501 . S
C80 H81 0.961 . S
C80 H82 0.961 . S
C80 H83 0.960 . S
H81 C80 0.961 . S
H82 C80 0.961 . S
H83 C80 0.960 . S
C84 N85 1.342 . S
C84 C88 1.401 . S
C84 C89 1.499 . S
N85 Co68 1.989 . S
N85 C84 1.342 . S
N85 N86 1.388 . S
N86 Co69 1.993 . S
N86 N85 1.388 . S
N86 C87 1.346 . S
C87 N86 1.346 . S
C87 C88 1.396 . S
C87 C97 1.510 . S
C88 C84 1.401 . S
C88 C87 1.396 . S
C89 C84 1.499 . S
C89 H90 0.959 . S
C89 H91 0.960 . S
C89 H92 0.961 . S
H90 C89 0.959 . S
H91 C89 0.960 . S
H92 C89 0.961 . S
O93 Co68 1.967 . S
O93 C101 1.258 . S
O94 Co69 1.941 . S
O94 C101 1.266 . S
H95 C97 0.959 . S
H96 C97 0.961 . S
C97 C87 1.510 . S
C97 H95 0.959 . S
C97 H96 0.961 . S
C97 H98 0.960 . S
H98 C97 0.960 . S
H99 N79 0.862 . S
O100 Co68 1.920 . S
O100 C73 1.289 . S
C101 O93 1.258 . S
C101 O94 1.266 . S
Co102 O105 1.970 1_554 S
Co102 N119 1.989 . S
Co102 O127 1.967 . S
Co102 O134 1.920 . S
Co103 O106 1.966 . S
Co103 N112 2.022 . S
Co103 N120 1.993 . S
Co103 O128 1.941 . S
C104 O105 1.258 1_554 S
C104 O106 1.262 . S
O105 Co102 1.970 1_556 S
O105 C104 1.258 1_556 S
O106 Co103 1.966 . S
O106 C104 1.262 . S
C107 O108 1.235 . S
C107 O134 1.289 1_556 S
O108 C107 1.235 . S
C109 C111 1.400 . S
C109 N112 1.351 . S
C109 C114 1.501 . S
C110 C111 1.387 . S
C110 N113 1.341 . S
C111 C109 1.400 . S
C111 C110 1.387 . S
N112 Co103 2.022 . S
N112 C109 1.351 . S
N112 N113 1.365 . S
N113 C110 1.341 . S
N113 N112 1.365 . S
N113 H133 0.862 . S
C114 C109 1.501 . S
C114 H115 0.961 . S
C114 H116 0.961 . S
C114 H117 0.960 . S
H115 C114 0.961 . S
H116 C114 0.961 . S
H117 C114 0.960 . S
C118 N119 1.342 . S
C118 C122 1.401 . S
C118 C123 1.499 . S
N119 Co102 1.989 . S
N119 C118 1.342 . S
N119 N120 1.388 . S
N120 Co103 1.993 . S
N120 N119 1.388 . S
N120 C121 1.346 . S
C121 N120 1.346 . S
C121 C122 1.396 . S
C121 C131 1.510 . S
C122 C118 1.401 . S
C122 C121 1.396 . S
C123 C118 1.499 . S
C123 H124 0.959 . S
C123 H125 0.960 . S
C123 H126 0.961 . S
H124 C123 0.959 . S
H125 C123 0.960 . S
H126 C123 0.961 . S
O127 Co102 1.967 . S
O127 C135 1.258 . S
O128 Co103 1.941 . S
O128 C135 1.266 . S
H129 C131 0.959 . S
H130 C131 0.961 . S
C131 C121 1.510 . S
C131 H129 0.959 . S
C131 H130 0.961 . S
C131 H132 0.960 . S
H132 C131 0.960 . S
H133 N113 0.862 . S
O134 Co102 1.920 . S
O134 C107 1.289 1_554 S
C135 O127 1.258 . S
C135 O128 1.266 . S
Co136 O139 1.970 . S
Co136 N153 1.989 . S
Co136 O161 1.967 . S
Co136 O168 1.920 . S
Co137 O140 1.966 . S
Co137 N146 2.022 . S
Co137 N154 1.993 . S
Co137 O162 1.941 . S
C138 O139 1.258 . S
C138 O140 1.263 . S
O139 Co136 1.970 . S
O139 C138 1.258 . S
O140 Co137 1.966 . S
O140 C138 1.263 . S
C141 O142 1.235 . S
C141 O168 1.289 . S
O142 C141 1.235 . S
C143 C145 1.400 . S
C143 N146 1.351 . S
C143 C148 1.501 . S
C144 C145 1.387 . S
C144 N147 1.341 . S
C145 C143 1.400 . S
C145 C144 1.387 . S
N146 Co137 2.022 . S
N146 C143 1.351 . S
N146 N147 1.365 . S
N147 C144 1.341 . S
N147 N146 1.365 . S
N147 H167 0.862 . S
C148 C143 1.501 . S
C148 H149 0.961 . S
C148 H150 0.961 . S
C148 H151 0.960 . S
H149 C148 0.961 . S
H150 C148 0.961 . S
H151 C148 0.960 . S
C152 N153 1.342 . S
C152 C156 1.401 . S
C152 C157 1.499 . S
N153 Co136 1.989 . S
N153 C152 1.342 . S
N153 N154 1.388 . S
N154 Co137 1.993 . S
N154 N153 1.388 . S
N154 C155 1.346 . S
C155 N154 1.346 . S
C155 C156 1.396 . S
C155 C165 1.510 . S
C156 C152 1.401 . S
C156 C155 1.396 . S
C157 C152 1.499 . S
C157 H158 0.959 . S
C157 H159 0.960 . S
C157 H160 0.961 . S
H158 C157 0.959 . S
H159 C157 0.960 . S
H160 C157 0.961 . S
O161 Co136 1.967 . S
O161 C169 1.258 . S
O162 Co137 1.941 . S
O162 C169 1.266 . S
H163 C165 0.959 . S
H164 C165 0.961 . S
C165 C155 1.510 . S
C165 H163 0.959 . S
C165 H164 0.961 . S
C165 H166 0.960 . S
H166 C165 0.960 . S
H167 N147 0.862 . S
O168 Co136 1.920 . S
O168 C141 1.289 . S
C169 O161 1.258 . S
C169 O162 1.266 . S
Co170 O173 1.970 1_556 S
Co170 N187 1.989 . S
Co170 O195 1.967 . S
Co170 O202 1.920 1_655 S
Co171 O174 1.966 . S
Co171 N180 2.022 . S
Co171 N188 1.993 . S
Co171 O196 1.941 . S
C172 O173 1.258 1_556 S
C172 O174 1.262 . S
O173 Co170 1.970 1_554 S
O173 C172 1.258 1_554 S
O174 Co171 1.966 . S
O174 C172 1.262 . S
C175 O176 1.235 1_455 S
C175 O202 1.289 1_554 S
O176 C175 1.235 1_655 S
C177 C179 1.400 . S
C177 N180 1.351 . S
C177 C182 1.501 . S
C178 C179 1.387 . S
C178 N181 1.341 . S
C179 C177 1.400 . S
C179 C178 1.387 . S
N180 Co171 2.022 . S
N180 C177 1.351 . S
N180 N181 1.365 . S
N181 C178 1.341 . S
N181 N180 1.365 . S
N181 H201 0.862 . S
C182 C177 1.501 . S
C182 H183 0.961 . S
C182 H184 0.961 . S
C182 H185 0.960 . S
H183 C182 0.961 . S
H184 C182 0.961 . S
H185 C182 0.960 . S
C186 N187 1.342 . S
C186 C190 1.401 . S
C186 C191 1.499 1_655 S
N187 Co170 1.989 . S
N187 C186 1.342 . S
N187 N188 1.388 . S
N188 Co171 1.993 . S
N188 N187 1.388 . S
N188 C189 1.346 . S
C189 N188 1.346 . S
C189 C190 1.396 . S
C189 C199 1.510 . S
C190 C186 1.401 . S
C190 C189 1.396 . S
C191 C186 1.499 1_455 S
C191 H192 0.959 . S
C191 H193 0.960 . S
C191 H194 0.961 . S
H192 C191 0.959 . S
H193 C191 0.960 . S
H194 C191 0.961 . S
O195 Co170 1.967 . S
O195 C203 1.258 . S
O196 Co171 1.941 . S
O196 C203 1.266 . S
H197 C199 0.959 . S
H198 C199 0.961 . S
C199 C189 1.510 . S
C199 H197 0.959 . S
C199 H198 0.961 . S
C199 H200 0.960 . S
H200 C199 0.960 . S
H201 N181 0.862 . S
O202 Co170 1.920 1_455 S
O202 C175 1.289 1_556 S
C203 O195 1.258 . S
C203 O196 1.266 . S
Co204 O207 1.970 . S
Co204 N221 1.989 . S
Co204 O229 1.967 . S
Co204 O236 1.920 . S
Co205 O208 1.966 . S
Co205 N214 2.022 . S
Co205 N222 1.993 . S
Co205 O230 1.941 . S
C206 O207 1.258 . S
C206 O208 1.263 . S
O207 Co204 1.970 . S
O207 C206 1.258 . S
O208 Co205 1.966 . S
O208 C206 1.263 . S
C209 O210 1.235 . S
C209 O236 1.289 . S
O210 C209 1.235 . S
C211 C213 1.400 . S
C211 N214 1.351 . S
C211 C216 1.501 . S
C212 C213 1.387 . S
C212 N215 1.341 . S
C213 C211 1.400 . S
C213 C212 1.387 . S
N214 Co205 2.022 . S
N214 C211 1.351 . S
N214 N215 1.365 . S
N215 C212 1.341 . S
N215 N214 1.365 . S
N215 H235 0.862 . S
C216 C211 1.501 . S
C216 H217 0.961 . S
C216 H218 0.961 . S
C216 H219 0.960 . S
H217 C216 0.961 . S
H218 C216 0.961 . S
H219 C216 0.960 . S
C220 N221 1.342 . S
C220 C224 1.401 . S
C220 C225 1.499 . S
N221 Co204 1.989 . S
N221 C220 1.342 . S
N221 N222 1.388 . S
N222 Co205 1.993 . S
N222 N221 1.388 . S
N222 C223 1.346 . S
C223 N222 1.346 . S
C223 C224 1.396 . S
C223 C233 1.510 . S
C224 C220 1.401 . S
C224 C223 1.396 . S
C225 C220 1.499 . S
C225 H226 0.959 . S
C225 H227 0.960 . S
C225 H228 0.961 . S
H226 C225 0.959 . S
H227 C225 0.960 . S
H228 C225 0.961 . S
O229 Co204 1.967 . S
O229 C237 1.258 . S
O230 Co205 1.941 . S
O230 C237 1.266 . S
H231 C233 0.959 . S
H232 C233 0.961 . S
C233 C223 1.510 . S
C233 H231 0.959 . S
C233 H232 0.961 . S
C233 H234 0.960 . S
H234 C233 0.960 . S
H235 N215 0.862 . S
O236 Co204 1.920 . S
O236 C209 1.289 . S
C237 O229 1.258 . S
C237 O230 1.266 . S
Co238 O241 1.970 1_556 S
Co238 N255 1.989 . S
Co238 O263 1.967 . S
Co238 O270 1.920 1_455 S
Co239 O242 1.966 . S
Co239 N248 2.022 . S
Co239 N256 1.993 . S
Co239 O264 1.941 . S
C240 O241 1.258 1_556 S
C240 O242 1.262 . S
O241 Co238 1.970 1_554 S
O241 C240 1.258 1_554 S
O242 Co239 1.966 . S
O242 C240 1.262 . S
C243 O244 1.235 1_655 S
C243 O270 1.289 1_554 S
O244 C243 1.235 1_455 S
C245 C247 1.400 . S
C245 N248 1.351 . S
C245 C250 1.501 . S
C246 C247 1.387 . S
C246 N249 1.341 . S
C247 C245 1.400 . S
C247 C246 1.387 . S
N248 Co239 2.022 . S
N248 C245 1.351 . S
N248 N249 1.365 . S
N249 C246 1.341 . S
N249 N248 1.365 . S
N249 H269 0.862 . S
C250 C245 1.501 . S
C250 H251 0.961 . S
C250 H252 0.961 . S
C250 H253 0.960 . S
H251 C250 0.961 . S
H252 C250 0.961 . S
H253 C250 0.960 . S
C254 N255 1.342 . S
C254 C258 1.401 . S
C254 C259 1.499 1_455 S
N255 Co238 1.989 . S
N255 C254 1.342 . S
N255 N256 1.388 . S
N256 Co239 1.993 . S
N256 N255 1.388 . S
N256 C257 1.346 . S
C257 N256 1.346 . S
C257 C258 1.396 . S
C257 C267 1.510 . S
C258 C254 1.401 . S
C258 C257 1.396 . S
C259 C254 1.499 1_655 S
C259 H260 0.959 . S
C259 H261 0.960 . S
C259 H262 0.961 . S
H260 C259 0.959 . S
H261 C259 0.960 . S
H262 C259 0.961 . S
O263 Co238 1.967 . S
O263 C271 1.258 . S
O264 Co239 1.941 . S
O264 C271 1.266 . S
H265 C267 0.959 . S
H266 C267 0.961 . S
C267 C257 1.510 . S
C267 H265 0.959 . S
C267 H266 0.961 . S
C267 H268 0.960 . S
H268 C267 0.960 . S
H269 N249 0.862 . S
O270 Co238 1.920 1_655 S
O270 C243 1.289 1_556 S
C271 O263 1.258 . S
C271 O264 1.266 . S
Co272 O275 1.970 . S
Co272 N289 1.989 . S
Co272 O297 1.967 . S
Co272 O304 1.920 . S
Co273 O276 1.966 . S
Co273 N282 2.022 . S
Co273 N290 1.993 . S
Co273 O298 1.941 . S
C274 O275 1.258 . S
C274 O276 1.263 . S
O275 Co272 1.970 . S
O275 C274 1.258 . S
O276 Co273 1.966 . S
O276 C274 1.263 . S
C277 O278 1.235 . S
C277 O304 1.289 . S
O278 C277 1.235 . S
C279 C281 1.400 . S
C279 N282 1.351 . S
C279 C284 1.501 . S
C280 C281 1.387 . S
C280 N283 1.341 . S
C281 C279 1.400 . S
C281 C280 1.387 . S
N282 Co273 2.022 . S
N282 C279 1.351 . S
N282 N283 1.365 . S
N283 C280 1.341 . S
N283 N282 1.365 . S
N283 H303 0.862 . S
C284 C279 1.501 . S
C284 H285 0.961 . S
C284 H286 0.961 . S
C284 H287 0.960 . S
H285 C284 0.961 . S
H286 C284 0.961 . S
H287 C284 0.960 . S
C288 N289 1.342 . S
C288 C292 1.401 . S
C288 C293 1.499 . S
N289 Co272 1.989 . S
N289 C288 1.342 . S
N289 N290 1.388 . S
N290 Co273 1.993 . S
N290 N289 1.388 . S
N290 C291 1.346 . S
C291 N290 1.346 . S
C291 C292 1.396 . S
C291 C301 1.510 . S
C292 C288 1.401 . S
C292 C291 1.396 . S
C293 C288 1.499 . S
C293 H294 0.959 . S
C293 H295 0.960 . S
C293 H296 0.961 . S
H294 C293 0.959 . S
H295 C293 0.960 . S
H296 C293 0.961 . S
O297 Co272 1.967 . S
O297 C305 1.258 . S
O298 Co273 1.941 . S
O298 C305 1.266 . S
H299 C301 0.959 . S
H300 C301 0.961 . S
C301 C291 1.510 . S
C301 H299 0.959 . S
C301 H300 0.961 . S
C301 H302 0.960 . S
H302 C301 0.960 . S
H303 N283 0.862 . S
O304 Co272 1.920 . S
O304 C277 1.289 . S
C305 O297 1.258 . S
C305 O298 1.266 . S
Co306 O309 1.970 . S
Co306 N323 1.989 . S
Co306 O331 1.967 . S
Co306 O338 1.920 1_556 S
Co307 O310 1.966 . S
Co307 N316 2.022 . S
Co307 N324 1.993 . S
Co307 O332 1.941 . S
C308 O309 1.258 . S
C308 O310 1.263 . S
O309 Co306 1.970 . S
O309 C308 1.258 . S
O310 Co307 1.966 . S
O310 C308 1.263 . S
C311 O312 1.235 1_554 S
C311 O338 1.289 . S
O312 C311 1.235 1_556 S
C313 C315 1.400 . S
C313 N316 1.351 . S
C313 C318 1.501 . S
C314 C315 1.387 . S
C314 N317 1.341 . S
C315 C313 1.400 . S
C315 C314 1.387 . S
N316 Co307 2.022 . S
N316 C313 1.351 . S
N316 N317 1.365 . S
N317 C314 1.341 . S
N317 N316 1.365 . S
N317 H337 0.862 . S
C318 C313 1.501 . S
C318 H319 0.961 . S
C318 H320 0.961 . S
C318 H321 0.960 . S
H319 C318 0.961 . S
H320 C318 0.961 . S
H321 C318 0.960 . S
C322 N323 1.342 . S
C322 C326 1.401 . S
C322 C327 1.499 1_556 S
N323 Co306 1.989 . S
N323 C322 1.342 . S
N323 N324 1.388 . S
N324 Co307 1.993 . S
N324 N323 1.388 . S
N324 C325 1.346 . S
C325 N324 1.346 . S
C325 C326 1.396 . S
C325 C335 1.510 . S
C326 C322 1.401 . S
C326 C325 1.396 . S
C327 C322 1.499 1_554 S
C327 H328 0.959 . S
C327 H329 0.960 . S
C327 H330 0.961 . S
H328 C327 0.959 . S
H329 C327 0.960 . S
H330 C327 0.961 . S
O331 Co306 1.967 . S
O331 C339 1.258 . S
O332 Co307 1.941 . S
O332 C339 1.266 . S
H333 C335 0.959 . S
H334 C335 0.961 . S
C335 C325 1.510 . S
C335 H333 0.959 . S
C335 H334 0.961 . S
C335 H336 0.960 . S
H336 C335 0.960 . S
H337 N317 0.862 . S
O338 Co306 1.920 1_554 S
O338 C311 1.289 . S
C339 O331 1.258 . S
C339 O332 1.266 . S
Co340 O343 1.970 . S
Co340 N357 1.989 . S
Co340 O365 1.967 . S
Co340 O372 1.920 . S
Co341 O344 1.966 . S
Co341 N350 2.022 . S
Co341 N358 1.993 . S
Co341 O366 1.941 . S
C342 O343 1.258 . S
C342 O344 1.263 . S
O343 Co340 1.970 . S
O343 C342 1.258 . S
O344 Co341 1.966 . S
O344 C342 1.263 . S
C345 O346 1.235 . S
C345 O372 1.289 . S
O346 C345 1.235 . S
C347 C349 1.400 . S
C347 N350 1.351 . S
C347 C352 1.501 . S
C348 C349 1.387 . S
C348 N351 1.341 . S
C349 C347 1.400 . S
C349 C348 1.387 . S
N350 Co341 2.022 . S
N350 C347 1.351 . S
N350 N351 1.365 . S
N351 C348 1.341 . S
N351 N350 1.365 . S
N351 H371 0.862 . S
C352 C347 1.501 . S
C352 H353 0.961 . S
C352 H354 0.961 . S
C352 H355 0.960 . S
H353 C352 0.961 . S
H354 C352 0.961 . S
H355 C352 0.960 . S
C356 N357 1.342 . S
C356 C360 1.401 . S
C356 C361 1.499 . S
N357 Co340 1.989 . S
N357 C356 1.342 . S
N357 N358 1.388 . S
N358 Co341 1.993 . S
N358 N357 1.388 . S
N358 C359 1.346 . S
C359 N358 1.346 . S
C359 C360 1.396 . S
C359 C369 1.510 . S
C360 C356 1.401 . S
C360 C359 1.396 . S
C361 C356 1.499 . S
C361 H362 0.959 . S
C361 H363 0.960 . S
C361 H364 0.961 . S
H362 C361 0.959 . S
H363 C361 0.960 . S
H364 C361 0.961 . S
O365 Co340 1.967 . S
O365 C373 1.258 . S
O366 Co341 1.941 . S
O366 C373 1.266 . S
H367 C369 0.959 . S
H368 C369 0.961 . S
C369 C359 1.510 . S
C369 H367 0.959 . S
C369 H368 0.961 . S
C369 H370 0.960 . S
H370 C369 0.960 . S
H371 N351 0.862 . S
O372 Co340 1.920 . S
O372 C345 1.289 . S
C373 O365 1.258 . S
C373 O366 1.266 . S
Co374 O377 1.970 1_565 S
Co374 N391 1.989 . S
Co374 O399 1.967 . S
Co374 O406 1.920 1_556 S
Co375 O378 1.966 . S
Co375 N384 2.022 . S
Co375 N392 1.993 . S
Co375 O400 1.941 . S
C376 O377 1.258 1_565 S
C376 O378 1.262 . S
O377 Co374 1.970 1_545 S
O377 C376 1.258 1_545 S
O378 Co375 1.966 . S
O378 C376 1.262 . S
C379 O380 1.235 1_554 S
C379 O406 1.289 1_545 S
O380 C379 1.235 1_556 S
C381 C383 1.400 . S
C381 N384 1.351 . S
C381 C386 1.501 . S
C382 C383 1.387 . S
C382 N385 1.341 . S
C383 C381 1.400 . S
C383 C382 1.387 . S
N384 Co375 2.022 . S
N384 C381 1.351 . S
N384 N385 1.365 . S
N385 C382 1.341 . S
N385 N384 1.365 . S
N385 H405 0.862 . S
C386 C381 1.501 . S
C386 H387 0.961 . S
C386 H388 0.961 . S
C386 H389 0.960 . S
H387 C386 0.961 . S
H388 C386 0.961 . S
H389 C386 0.960 . S
C390 N391 1.342 . S
C390 C394 1.401 . S
C390 C395 1.499 1_556 S
N391 Co374 1.989 . S
N391 C390 1.342 . S
N391 N392 1.388 . S
N392 Co375 1.993 . S
N392 N391 1.388 . S
N392 C393 1.346 . S
C393 N392 1.346 . S
C393 C394 1.396 . S
C393 C403 1.510 . S
C394 C390 1.401 . S
C394 C393 1.396 . S
C395 C390 1.499 1_554 S
C395 H396 0.959 . S
C395 H397 0.960 . S
C395 H398 0.961 . S
H396 C395 0.959 . S
H397 C395 0.960 . S
H398 C395 0.961 . S
O399 Co374 1.967 . S
O399 C407 1.258 . S
O400 Co375 1.941 . S
O400 C407 1.266 . S
H401 C403 0.959 . S
H402 C403 0.961 . S
C403 C393 1.510 . S
C403 H401 0.959 . S
C403 H402 0.961 . S
C403 H404 0.960 . S
H404 C403 0.960 . S
H405 N385 0.862 . S
O406 Co374 1.920 1_554 S
O406 C379 1.289 1_565 S
C407 O399 1.258 . S
C407 O400 1.266 . S
Co408 O411 1.970 . S
Co408 N425 1.989 . S
Co408 O433 1.967 . S
Co408 O440 1.920 . S
Co409 O412 1.966 . S
Co409 N418 2.022 . S
Co409 N426 1.993 . S
Co409 O434 1.941 . S
C410 O411 1.258 . S
C410 O412 1.263 . S
O411 Co408 1.970 . S
O411 C410 1.258 . S
O412 Co409 1.966 . S
O412 C410 1.263 . S
C413 O414 1.235 . S
C413 O440 1.289 . S
O414 C413 1.235 . S
C415 C417 1.400 . S
C415 N418 1.351 . S
C415 C420 1.501 . S
C416 C417 1.387 . S
C416 N419 1.341 . S
C417 C415 1.400 . S
C417 C416 1.387 . S
N418 Co409 2.022 . S
N418 C415 1.351 . S
N418 N419 1.365 . S
N419 C416 1.341 . S
N419 N418 1.365 . S
N419 H439 0.862 . S
C420 C415 1.501 . S
C420 H421 0.961 . S
C420 H422 0.961 . S
C420 H423 0.960 . S
H421 C420 0.961 . S
H422 C420 0.961 . S
H423 C420 0.960 . S
C424 N425 1.342 . S
C424 C428 1.401 . S
C424 C429 1.499 . S
N425 Co408 1.989 . S
N425 C424 1.342 . S
N425 N426 1.388 . S
N426 Co409 1.993 . S
N426 N425 1.388 . S
N426 C427 1.346 . S
C427 N426 1.346 . S
C427 C428 1.396 . S
C427 C437 1.510 . S
C428 C424 1.401 . S
C428 C427 1.396 . S
C429 C424 1.499 . S
C429 H430 0.959 . S
C429 H431 0.960 . S
C429 H432 0.961 . S
H430 C429 0.959 . S
H431 C429 0.960 . S
H432 C429 0.961 . S
O433 Co408 1.967 . S
O433 C441 1.258 . S
O434 Co409 1.941 . S
O434 C441 1.266 . S
H435 C437 0.959 . S
H436 C437 0.961 . S
C437 C427 1.510 . S
C437 H435 0.959 . S
C437 H436 0.961 . S
C437 H438 0.960 . S
H438 C437 0.960 . S
H439 N419 0.862 . S
O440 Co408 1.920 . S
O440 C413 1.289 . S
C441 O433 1.258 . S
C441 O434 1.266 . S
Co442 O445 1.970 . S
Co442 N459 1.989 . S
Co442 O467 1.967 . S
Co442 O474 1.920 1_554 S
Co443 O446 1.966 . S
Co443 N452 2.022 . S
Co443 N460 1.993 . S
Co443 O468 1.941 . S
C444 O445 1.258 . S
C444 O446 1.263 . S
O445 Co442 1.970 . S
O445 C444 1.258 . S
O446 Co443 1.966 . S
O446 C444 1.263 . S
C447 O448 1.235 1_556 S
C447 O474 1.289 . S
O448 C447 1.235 1_554 S
C449 C451 1.400 . S
C449 N452 1.351 . S
C449 C454 1.501 . S
C450 C451 1.387 . S
C450 N453 1.341 . S
C451 C449 1.400 . S
C451 C450 1.387 . S
N452 Co443 2.022 . S
N452 C449 1.351 . S
N452 N453 1.365 . S
N453 C450 1.341 . S
N453 N452 1.365 . S
N453 H473 0.862 . S
C454 C449 1.501 . S
C454 H455 0.961 . S
C454 H456 0.961 . S
C454 H457 0.960 . S
H455 C454 0.961 . S
H456 C454 0.961 . S
H457 C454 0.960 . S
C458 N459 1.342 . S
C458 C462 1.401 . S
C458 C463 1.499 1_554 S
N459 Co442 1.989 . S
N459 C458 1.342 . S
N459 N460 1.388 . S
N460 Co443 1.993 . S
N460 N459 1.388 . S
N460 C461 1.346 . S
C461 N460 1.346 . S
C461 C462 1.396 . S
C461 C471 1.510 . S
C462 C458 1.401 . S
C462 C461 1.396 . S
C463 C458 1.499 1_556 S
C463 H464 0.959 . S
C463 H465 0.960 . S
C463 H466 0.961 . S
H464 C463 0.959 . S
H465 C463 0.960 . S
H466 C463 0.961 . S
O467 Co442 1.967 . S
O467 C475 1.258 . S
O468 Co443 1.941 . S
O468 C475 1.266 . S
H469 C471 0.959 . S
H470 C471 0.961 . S
C471 C461 1.510 . S
C471 H469 0.959 . S
C471 H470 0.961 . S
C471 H472 0.960 . S
H472 C471 0.960 . S
H473 N453 0.862 . S
O474 Co442 1.920 1_556 S
O474 C447 1.289 . S
C475 O467 1.258 . S
C475 O468 1.266 . S
Co476 O479 1.970 . S
Co476 N493 1.989 . S
Co476 O501 1.967 . S
Co476 O508 1.920 . S
Co477 O480 1.966 . S
Co477 N486 2.022 . S
Co477 N494 1.993 . S
Co477 O502 1.941 . S
C478 O479 1.258 . S
C478 O480 1.263 . S
O479 Co476 1.970 . S
O479 C478 1.258 . S
O480 Co477 1.966 . S
O480 C478 1.263 . S
C481 O482 1.235 . S
C481 O508 1.289 . S
O482 C481 1.235 . S
C483 C485 1.400 . S
C483 N486 1.351 . S
C483 C488 1.501 . S
C484 C485 1.387 . S
C484 N487 1.341 . S
C485 C483 1.400 . S
C485 C484 1.387 . S
N486 Co477 2.022 . S
N486 C483 1.351 . S
N486 N487 1.365 . S
N487 C484 1.341 . S
N487 N486 1.365 . S
N487 H507 0.862 . S
C488 C483 1.501 . S
C488 H489 0.961 . S
C488 H490 0.961 . S
C488 H491 0.960 . S
H489 C488 0.961 . S
H490 C488 0.961 . S
H491 C488 0.960 . S
C492 N493 1.342 . S
C492 C496 1.401 . S
C492 C497 1.499 . S
N493 Co476 1.989 . S
N493 C492 1.342 . S
N493 N494 1.388 . S
N494 Co477 1.993 . S
N494 N493 1.388 . S
N494 C495 1.346 . S
C495 N494 1.346 . S
C495 C496 1.396 . S
C495 C505 1.510 . S
C496 C492 1.401 . S
C496 C495 1.396 . S
C497 C492 1.499 . S
C497 H498 0.959 . S
C497 H499 0.960 . S
C497 H500 0.961 . S
H498 C497 0.959 . S
H499 C497 0.960 . S
H500 C497 0.961 . S
O501 Co476 1.967 . S
O501 C509 1.258 . S
O502 Co477 1.941 . S
O502 C509 1.266 . S
H503 C505 0.959 . S
H504 C505 0.961 . S
C505 C495 1.510 . S
C505 H503 0.959 . S
C505 H504 0.961 . S
C505 H506 0.960 . S
H506 C505 0.960 . S
H507 N487 0.862 . S
O508 Co476 1.920 . S
O508 C481 1.289 . S
C509 O501 1.258 . S
C509 O502 1.266 . S
Co510 O513 1.970 1_565 S
Co510 N527 1.989 . S
Co510 O535 1.967 . S
Co510 O542 1.920 1_554 S
Co511 O514 1.966 . S
Co511 N520 2.022 . S
Co511 N528 1.993 . S
Co511 O536 1.941 . S
C512 O513 1.258 1_565 S
C512 O514 1.262 . S
O513 Co510 1.970 1_545 S
O513 C512 1.258 1_545 S
O514 Co511 1.966 . S
O514 C512 1.262 . S
C515 O516 1.235 1_556 S
C515 O542 1.289 1_545 S
O516 C515 1.235 1_554 S
C517 C519 1.400 . S
C517 N520 1.351 . S
C517 C522 1.501 . S
C518 C519 1.387 . S
C518 N521 1.341 . S
C519 C517 1.400 . S
C519 C518 1.387 . S
N520 Co511 2.022 . S
N520 C517 1.351 . S
N520 N521 1.365 . S
N521 C518 1.341 . S
N521 N520 1.365 . S
N521 H541 0.862 . S
C522 C517 1.501 . S
C522 H523 0.961 . S
C522 H524 0.961 . S
C522 H525 0.960 . S
H523 C522 0.961 . S
H524 C522 0.961 . S
H525 C522 0.960 . S
C526 N527 1.342 . S
C526 C530 1.401 . S
C526 C531 1.499 1_554 S
N527 Co510 1.989 . S
N527 C526 1.342 . S
N527 N528 1.388 . S
N528 Co511 1.993 . S
N528 N527 1.388 . S
N528 C529 1.346 . S
C529 N528 1.346 . S
C529 C530 1.396 . S
C529 C539 1.510 . S
C530 C526 1.401 . S
C530 C529 1.396 . S
C531 C526 1.499 1_556 S
C531 H532 0.959 . S
C531 H533 0.960 . S
C531 H534 0.961 . S
H532 C531 0.959 . S
H533 C531 0.960 . S
H534 C531 0.961 . S
O535 Co510 1.967 . S
O535 C543 1.258 . S
O536 Co511 1.941 . S
O536 C543 1.266 . S
H537 C539 0.959 . S
H538 C539 0.961 . S
C539 C529 1.510 . S
C539 H537 0.959 . S
C539 H538 0.961 . S
C539 H540 0.960 . S
H540 C539 0.960 . S
H541 N521 0.862 . S
O542 Co510 1.920 1_556 S
O542 C515 1.289 1_565 S
C543 O535 1.258 . S
C543 O536 1.266 . S
Co544 O547 1.970 . S
Co544 N561 1.989 . S
Co544 O569 1.967 . S
Co544 O576 1.920 . S
Co545 O548 1.966 . S
Co545 N554 2.022 . S
Co545 N562 1.993 . S
Co545 O570 1.941 . S
C546 O547 1.258 . S
C546 O548 1.263 . S
O547 Co544 1.970 . S
O547 C546 1.258 . S
O548 Co545 1.966 . S
O548 C546 1.263 . S
C549 O550 1.235 . S
C549 O576 1.289 . S
O550 C549 1.235 . S
C551 C553 1.400 . S
C551 N554 1.351 . S
C551 C556 1.501 . S
C552 C553 1.387 . S
C552 N555 1.341 . S
C553 C551 1.400 . S
C553 C552 1.387 . S
N554 Co545 2.022 . S
N554 C551 1.351 . S
N554 N555 1.365 . S
N555 C552 1.341 . S
N555 N554 1.365 . S
N555 H575 0.862 . S
C556 C551 1.501 . S
C556 H557 0.961 . S
C556 H558 0.961 . S
C556 H559 0.960 . S
H557 C556 0.961 . S
H558 C556 0.961 . S
H559 C556 0.960 . S
C560 N561 1.342 . S
C560 C564 1.401 . S
C560 C565 1.499 . S
N561 Co544 1.989 . S
N561 C560 1.342 . S
N561 N562 1.388 . S
N562 Co545 1.993 . S
N562 N561 1.388 . S
N562 C563 1.346 . S
C563 N562 1.346 . S
C563 C564 1.396 . S
C563 C573 1.510 . S
C564 C560 1.401 . S
C564 C563 1.396 . S
C565 C560 1.499 . S
C565 H566 0.959 . S
C565 H567 0.960 . S
C565 H568 0.961 . S
H566 C565 0.959 . S
H567 C565 0.960 . S
H568 C565 0.961 . S
O569 Co544 1.967 . S
O569 C577 1.258 . S
O570 Co545 1.941 . S
O570 C577 1.266 . S
H571 C573 0.959 . S
H572 C573 0.961 . S
C573 C563 1.510 . S
C573 H571 0.959 . S
C573 H572 0.961 . S
C573 H574 0.960 . S
H574 C573 0.960 . S
H575 N555 0.862 . S
O576 Co544 1.920 . S
O576 C549 1.289 . S
C577 O569 1.258 . S
C577 O570 1.266 . S
Co578 O581 1.970 . S
Co578 N595 1.989 . S
Co578 O603 1.967 . S
Co578 O610 1.920 . S
Co579 O582 1.966 . S
Co579 N588 2.022 . S
Co579 N596 1.993 . S
Co579 O604 1.941 . S
C580 O581 1.258 . S
C580 O582 1.263 . S
O581 Co578 1.970 . S
O581 C580 1.258 . S
O582 Co579 1.966 . S
O582 C580 1.263 . S
C583 O584 1.235 . S
C583 O610 1.289 . S
O584 C583 1.235 . S
C585 C587 1.400 . S
C585 N588 1.351 . S
C585 C590 1.501 . S
C586 C587 1.387 . S
C586 N589 1.341 . S
C587 C585 1.400 . S
C587 C586 1.387 . S
N588 Co579 2.022 . S
N588 C585 1.351 . S
N588 N589 1.365 . S
N589 C586 1.341 . S
N589 N588 1.365 . S
N589 H609 0.862 . S
C590 C585 1.501 . S
C590 H591 0.961 . S
C590 H592 0.961 . S
C590 H593 0.960 . S
H591 C590 0.961 . S
H592 C590 0.961 . S
H593 C590 0.960 . S
C594 N595 1.342 . S
C594 C598 1.401 . S
C594 C599 1.499 . S
N595 Co578 1.989 . S
N595 C594 1.342 . S
N595 N596 1.388 . S
N596 Co579 1.993 . S
N596 N595 1.388 . S
N596 C597 1.346 . S
C597 N596 1.346 . S
C597 C598 1.396 . S
C597 C607 1.510 . S
C598 C594 1.401 . S
C598 C597 1.396 . S
C599 C594 1.499 . S
C599 H600 0.959 . S
C599 H601 0.960 . S
C599 H602 0.961 . S
H600 C599 0.959 . S
H601 C599 0.960 . S
H602 C599 0.961 . S
O603 Co578 1.967 . S
O603 C611 1.258 . S
O604 Co579 1.941 . S
O604 C611 1.266 . S
H605 C607 0.959 . S
H606 C607 0.961 . S
C607 C597 1.510 . S
C607 H605 0.959 . S
C607 H606 0.961 . S
C607 H608 0.960 . S
H608 C607 0.960 . S
H609 N589 0.862 . S
O610 Co578 1.920 . S
O610 C583 1.289 . S
C611 O603 1.258 . S
C611 O604 1.266 . S
Co612 O615 1.970 1_455 S
Co612 N629 1.989 . S
Co612 O637 1.967 . S
Co612 O644 1.920 . S
Co613 O616 1.966 . S
Co613 N622 2.022 . S
Co613 N630 1.993 . S
Co613 O638 1.941 . S
C614 O615 1.258 1_455 S
C614 O616 1.262 . S
O615 Co612 1.970 1_655 S
O615 C614 1.258 1_655 S
O616 Co613 1.966 . S
O616 C614 1.262 . S
C617 O618 1.235 . S
C617 O644 1.289 1_655 S
O618 C617 1.235 . S
C619 C621 1.400 . S
C619 N622 1.351 . S
C619 C624 1.501 . S
C620 C621 1.387 . S
C620 N623 1.341 . S
C621 C619 1.400 . S
C621 C620 1.387 . S
N622 Co613 2.022 . S
N622 C619 1.351 . S
N622 N623 1.365 . S
N623 C620 1.341 . S
N623 N622 1.365 . S
N623 H643 0.862 . S
C624 C619 1.501 . S
C624 H625 0.961 . S
C624 H626 0.961 . S
C624 H627 0.960 . S
H625 C624 0.961 . S
H626 C624 0.961 . S
H627 C624 0.960 . S
C628 N629 1.342 . S
C628 C632 1.401 . S
C628 C633 1.499 . S
N629 Co612 1.989 . S
N629 C628 1.342 . S
N629 N630 1.388 . S
N630 Co613 1.993 . S
N630 N629 1.388 . S
N630 C631 1.346 . S
C631 N630 1.346 . S
C631 C632 1.396 . S
C631 C641 1.510 . S
C632 C628 1.401 . S
C632 C631 1.396 . S
C633 C628 1.499 . S
C633 H634 0.959 . S
C633 H635 0.960 . S
C633 H636 0.961 . S
H634 C633 0.959 . S
H635 C633 0.960 . S
H636 C633 0.961 . S
O637 Co612 1.967 . S
O637 C645 1.258 . S
O638 Co613 1.941 . S
O638 C645 1.266 . S
H639 C641 0.959 . S
H640 C641 0.961 . S
C641 C631 1.510 . S
C641 H639 0.959 . S
C641 H640 0.961 . S
C641 H642 0.960 . S
H642 C641 0.960 . S
H643 N623 0.862 . S
O644 Co612 1.920 . S
O644 C617 1.289 1_455 S
C645 O637 1.258 . S
C645 O638 1.266 . S
Co646 O649 1.970 . S
Co646 N663 1.989 . S
Co646 O671 1.967 . S
Co646 O678 1.920 . S
Co647 O650 1.966 . S
Co647 N656 2.022 . S
Co647 N664 1.993 . S
Co647 O672 1.941 . S
C648 O649 1.258 . S
C648 O650 1.263 . S
O649 Co646 1.970 . S
O649 C648 1.258 . S
O650 Co647 1.966 . S
O650 C648 1.263 . S
C651 O652 1.235 . S
C651 O678 1.289 . S
O652 C651 1.235 . S
C653 C655 1.400 . S
C653 N656 1.351 . S
C653 C658 1.501 . S
C654 C655 1.387 . S
C654 N657 1.341 . S
C655 C653 1.400 . S
C655 C654 1.387 . S
N656 Co647 2.022 . S
N656 C653 1.351 . S
N656 N657 1.365 . S
N657 C654 1.341 . S
N657 N656 1.365 . S
N657 H677 0.862 . S
C658 C653 1.501 . S
C658 H659 0.961 . S
C658 H660 0.961 . S
C658 H661 0.960 . S
H659 C658 0.961 . S
H660 C658 0.961 . S
H661 C658 0.960 . S
C662 N663 1.342 . S
C662 C666 1.401 . S
C662 C667 1.499 . S
N663 Co646 1.989 . S
N663 C662 1.342 . S
N663 N664 1.388 . S
N664 Co647 1.993 . S
N664 N663 1.388 . S
N664 C665 1.346 . S
C665 N664 1.346 . S
C665 C666 1.396 . S
C665 C675 1.510 . S
C666 C662 1.401 . S
C666 C665 1.396 . S
C667 C662 1.499 . S
C667 H668 0.959 . S
C667 H669 0.960 . S
C667 H670 0.961 . S
H668 C667 0.959 . S
H669 C667 0.960 . S
H670 C667 0.961 . S
O671 Co646 1.967 . S
O671 C679 1.258 . S
O672 Co647 1.941 . S
O672 C679 1.266 . S
H673 C675 0.959 . S
H674 C675 0.961 . S
C675 C665 1.510 . S
C675 H673 0.959 . S
C675 H674 0.961 . S
C675 H676 0.960 . S
H676 C675 0.960 . S
H677 N657 0.862 . S
O678 Co646 1.920 . S
O678 C651 1.289 . S
C679 O671 1.258 . S
C679 O672 1.266 . S
Co680 O683 1.970 . S
Co680 N697 1.989 . S
Co680 O705 1.967 . S
Co680 O712 1.920 . S
Co681 O684 1.966 . S
Co681 N690 2.022 . S
Co681 N698 1.993 . S
Co681 O706 1.941 . S
C682 O683 1.258 . S
C682 O684 1.263 . S
O683 Co680 1.970 . S
O683 C682 1.258 . S
O684 Co681 1.966 . S
O684 C682 1.263 . S
C685 O686 1.235 . S
C685 O712 1.289 . S
O686 C685 1.235 . S
C687 C689 1.400 . S
C687 N690 1.351 . S
C687 C692 1.501 . S
C688 C689 1.387 . S
C688 N691 1.341 . S
C689 C687 1.400 . S
C689 C688 1.387 . S
N690 Co681 2.022 . S
N690 C687 1.351 . S
N690 N691 1.365 . S
N691 C688 1.341 . S
N691 N690 1.365 . S
N691 H711 0.862 . S
C692 C687 1.501 . S
C692 H693 0.961 . S
C692 H694 0.961 . S
C692 H695 0.960 . S
H693 C692 0.961 . S
H694 C692 0.961 . S
H695 C692 0.960 . S
C696 N697 1.342 . S
C696 C700 1.401 . S
C696 C701 1.499 . S
N697 Co680 1.989 . S
N697 C696 1.342 . S
N697 N698 1.388 . S
N698 Co681 1.993 . S
N698 N697 1.388 . S
N698 C699 1.346 . S
C699 N698 1.346 . S
C699 C700 1.396 . S
C699 C709 1.510 . S
C700 C696 1.401 . S
C700 C699 1.396 . S
C701 C696 1.499 . S
C701 H702 0.959 . S
C701 H703 0.960 . S
C701 H704 0.961 . S
H702 C701 0.959 . S
H703 C701 0.960 . S
H704 C701 0.961 . S
O705 Co680 1.967 . S
O705 C713 1.258 . S
O706 Co681 1.941 . S
O706 C713 1.266 . S
H707 C709 0.959 . S
H708 C709 0.961 . S
C709 C699 1.510 . S
C709 H707 0.959 . S
C709 H708 0.961 . S
C709 H710 0.960 . S
H710 C709 0.960 . S
H711 N691 0.862 . S
O712 Co680 1.920 . S
O712 C685 1.289 . S
C713 O705 1.258 . S
C713 O706 1.266 . S
Co714 O717 1.970 . S
Co714 N731 1.989 . S
Co714 O739 1.967 . S
Co714 O746 1.920 . S
Co715 O718 1.966 . S
Co715 N724 2.022 . S
Co715 N732 1.993 . S
Co715 O740 1.941 . S
C716 O717 1.258 . S
C716 O718 1.263 . S
O717 Co714 1.970 . S
O717 C716 1.258 . S
O718 Co715 1.966 . S
O718 C716 1.263 . S
C719 O720 1.235 . S
C719 O746 1.289 . S
O720 C719 1.235 . S
C721 C723 1.400 . S
C721 N724 1.351 . S
C721 C726 1.501 . S
C722 C723 1.387 . S
C722 N725 1.341 . S
C723 C721 1.400 . S
C723 C722 1.387 . S
N724 Co715 2.022 . S
N724 C721 1.351 . S
N724 N725 1.365 . S
N725 C722 1.341 . S
N725 N724 1.365 . S
N725 H745 0.862 . S
C726 C721 1.501 . S
C726 H727 0.961 . S
C726 H728 0.961 . S
C726 H729 0.960 . S
H727 C726 0.961 . S
H728 C726 0.961 . S
H729 C726 0.960 . S
C730 N731 1.342 . S
C730 C734 1.401 . S
C730 C735 1.499 . S
N731 Co714 1.989 . S
N731 C730 1.342 . S
N731 N732 1.388 . S
N732 Co715 1.993 . S
N732 N731 1.388 . S
N732 C733 1.346 . S
C733 N732 1.346 . S
C733 C734 1.396 . S
C733 C743 1.510 . S
C734 C730 1.401 . S
C734 C733 1.396 . S
C735 C730 1.499 . S
C735 H736 0.959 . S
C735 H737 0.960 . S
C735 H738 0.961 . S
H736 C735 0.959 . S
H737 C735 0.960 . S
H738 C735 0.961 . S
O739 Co714 1.967 . S
O739 C747 1.258 . S
O740 Co715 1.941 . S
O740 C747 1.266 . S
H741 C743 0.959 . S
H742 C743 0.961 . S
C743 C733 1.510 . S
C743 H741 0.959 . S
C743 H742 0.961 . S
C743 H744 0.960 . S
H744 C743 0.960 . S
H745 N725 0.862 . S
O746 Co714 1.920 . S
O746 C719 1.289 . S
C747 O739 1.258 . S
C747 O740 1.266 . S
Co748 O751 1.970 1_455 S
Co748 N765 1.989 . S
Co748 O773 1.967 . S
Co748 O780 1.920 . S
Co749 O752 1.966 . S
Co749 N758 2.022 . S
Co749 N766 1.993 . S
Co749 O774 1.941 . S
C750 O751 1.258 1_455 S
C750 O752 1.262 . S
O751 Co748 1.970 1_655 S
O751 C750 1.258 1_655 S
O752 Co749 1.966 . S
O752 C750 1.262 . S
C753 O754 1.235 . S
C753 O780 1.289 1_655 S
O754 C753 1.235 . S
C755 C757 1.400 . S
C755 N758 1.351 . S
C755 C760 1.501 . S
C756 C757 1.387 . S
C756 N759 1.341 . S
C757 C755 1.400 . S
C757 C756 1.387 . S
N758 Co749 2.022 . S
N758 C755 1.351 . S
N758 N759 1.365 . S
N759 C756 1.341 . S
N759 N758 1.365 . S
N759 H779 0.862 . S
C760 C755 1.501 . S
C760 H761 0.961 . S
C760 H762 0.961 . S
C760 H763 0.960 . S
H761 C760 0.961 . S
H762 C760 0.961 . S
H763 C760 0.960 . S
C764 N765 1.342 . S
C764 C768 1.401 . S
C764 C769 1.499 . S
N765 Co748 1.989 . S
N765 C764 1.342 . S
N765 N766 1.388 . S
N766 Co749 1.993 . S
N766 N765 1.388 . S
N766 C767 1.346 . S
C767 N766 1.346 . S
C767 C768 1.396 . S
C767 C777 1.510 . S
C768 C764 1.401 . S
C768 C767 1.396 . S
C769 C764 1.499 . S
C769 H770 0.959 . S
C769 H771 0.960 . S
C769 H772 0.961 . S
H770 C769 0.959 . S
H771 C769 0.960 . S
H772 C769 0.961 . S
O773 Co748 1.967 . S
O773 C781 1.258 . S
O774 Co749 1.941 . S
O774 C781 1.266 . S
H775 C777 0.959 . S
H776 C777 0.961 . S
C777 C767 1.510 . S
C777 H775 0.959 . S
C777 H776 0.961 . S
C777 H778 0.960 . S
H778 C777 0.960 . S
H779 N759 0.862 . S
O780 Co748 1.920 . S
O780 C753 1.289 1_455 S
C781 O773 1.258 . S
C781 O774 1.266 . S
Co782 O785 1.970 1_655 S
Co782 N799 1.989 . S
Co782 O807 1.967 . S
Co782 O814 1.920 1_565 S
Co783 O786 1.966 . S
Co783 N792 2.022 . S
Co783 N800 1.993 . S
Co783 O808 1.941 . S
C784 O785 1.258 1_655 S
C784 O786 1.262 . S
O785 Co782 1.970 1_455 S
O785 C784 1.258 1_455 S
O786 Co783 1.966 . S
O786 C784 1.262 . S
C787 O788 1.235 1_545 S
C787 O814 1.289 1_455 S
O788 C787 1.235 1_565 S
C789 C791 1.400 . S
C789 N792 1.351 . S
C789 C794 1.501 . S
C790 C791 1.387 . S
C790 N793 1.341 . S
C791 C789 1.400 . S
C791 C790 1.387 . S
N792 Co783 2.022 . S
N792 C789 1.351 . S
N792 N793 1.365 . S
N793 C790 1.341 . S
N793 N792 1.365 . S
N793 H813 0.862 . S
C794 C789 1.501 . S
C794 H795 0.961 . S
C794 H796 0.961 . S
C794 H797 0.960 . S
H795 C794 0.961 . S
H796 C794 0.961 . S
H797 C794 0.960 . S
C798 N799 1.342 . S
C798 C802 1.401 . S
C798 C803 1.499 1_565 S
N799 Co782 1.989 . S
N799 C798 1.342 . S
N799 N800 1.388 . S
N800 Co783 1.993 . S
N800 N799 1.388 . S
N800 C801 1.346 . S
C801 N800 1.346 . S
C801 C802 1.396 . S
C801 C811 1.510 . S
C802 C798 1.401 . S
C802 C801 1.396 . S
C803 C798 1.499 1_545 S
C803 H804 0.959 . S
C803 H805 0.960 . S
C803 H806 0.961 . S
H804 C803 0.959 . S
H805 C803 0.960 . S
H806 C803 0.961 . S
O807 Co782 1.967 . S
O807 C815 1.258 . S
O808 Co783 1.941 . S
O808 C815 1.266 . S
H809 C811 0.959 . S
H810 C811 0.961 . S
C811 C801 1.510 . S
C811 H809 0.959 . S
C811 H810 0.961 . S
C811 H812 0.960 . S
H812 C811 0.960 . S
H813 N793 0.862 . S
O814 Co782 1.920 1_545 S
O814 C787 1.289 1_655 S
C815 O807 1.258 . S
C815 O808 1.266 . S
Co816 O819 1.970 . S
Co816 N833 1.989 . S
Co816 O841 1.967 . S
Co816 O848 1.920 . S
Co817 O820 1.966 . S
Co817 N826 2.022 . S
Co817 N834 1.993 . S
Co817 O842 1.941 . S
C818 O819 1.258 . S
C818 O820 1.263 . S
O819 Co816 1.970 . S
O819 C818 1.258 . S
O820 Co817 1.966 . S
O820 C818 1.263 . S
C821 O822 1.235 . S
C821 O848 1.289 . S
O822 C821 1.235 . S
C823 C825 1.400 . S
C823 N826 1.351 . S
C823 C828 1.501 . S
C824 C825 1.387 . S
C824 N827 1.341 . S
C825 C823 1.400 . S
C825 C824 1.387 . S
N826 Co817 2.022 . S
N826 C823 1.351 . S
N826 N827 1.365 . S
N827 C824 1.341 . S
N827 N826 1.365 . S
N827 H847 0.862 . S
C828 C823 1.501 . S
C828 H829 0.961 . S
C828 H830 0.961 . S
C828 H831 0.960 . S
H829 C828 0.961 . S
H830 C828 0.961 . S
H831 C828 0.960 . S
C832 N833 1.342 . S
C832 C836 1.401 . S
C832 C837 1.499 . S
N833 Co816 1.989 . S
N833 C832 1.342 . S
N833 N834 1.388 . S
N834 Co817 1.993 . S
N834 N833 1.388 . S
N834 C835 1.346 . S
C835 N834 1.346 . S
C835 C836 1.396 . S
C835 C845 1.510 . S
C836 C832 1.401 . S
C836 C835 1.396 . S
C837 C832 1.499 . S
C837 H838 0.959 . S
C837 H839 0.960 . S
C837 H840 0.961 . S
H838 C837 0.959 . S
H839 C837 0.960 . S
H840 C837 0.961 . S
O841 Co816 1.967 . S
O841 C849 1.258 . S
O842 Co817 1.941 . S
O842 C849 1.266 . S
H843 C845 0.959 . S
H844 C845 0.961 . S
C845 C835 1.510 . S
C845 H843 0.959 . S
C845 H844 0.961 . S
C845 H846 0.960 . S
H846 C845 0.960 . S
H847 N827 0.862 . S
O848 Co816 1.920 . S
O848 C821 1.289 . S
C849 O841 1.258 . S
C849 O842 1.266 . S
Co850 O853 1.970 . S
Co850 N867 1.989 . S
Co850 O875 1.967 . S
Co850 O882 1.920 1_455 S
Co851 O854 1.966 . S
Co851 N860 2.022 . S
Co851 N868 1.993 . S
Co851 O876 1.941 . S
C852 O853 1.258 . S
C852 O854 1.263 . S
O853 Co850 1.970 . S
O853 C852 1.258 . S
O854 Co851 1.966 . S
O854 C852 1.263 . S
C855 O856 1.235 1_655 S
C855 O882 1.289 . S
O856 C855 1.235 1_455 S
C857 C859 1.400 . S
C857 N860 1.351 . S
C857 C862 1.501 . S
C858 C859 1.387 . S
C858 N861 1.341 . S
C859 C857 1.400 . S
C859 C858 1.387 . S
N860 Co851 2.022 . S
N860 C857 1.351 . S
N860 N861 1.365 . S
N861 C858 1.341 . S
N861 N860 1.365 . S
N861 H881 0.862 . S
C862 C857 1.501 . S
C862 H863 0.961 . S
C862 H864 0.961 . S
C862 H865 0.960 . S
H863 C862 0.961 . S
H864 C862 0.961 . S
H865 C862 0.960 . S
C866 N867 1.342 . S
C866 C870 1.401 . S
C866 C871 1.499 1_455 S
N867 Co850 1.989 . S
N867 C866 1.342 . S
N867 N868 1.388 . S
N868 Co851 1.993 . S
N868 N867 1.388 . S
N868 C869 1.346 . S
C869 N868 1.346 . S
C869 C870 1.396 . S
C869 C879 1.510 . S
C870 C866 1.401 . S
C870 C869 1.396 . S
C871 C866 1.499 1_655 S
C871 H872 0.959 . S
C871 H873 0.960 . S
C871 H874 0.961 . S
H872 C871 0.959 . S
H873 C871 0.960 . S
H874 C871 0.961 . S
O875 Co850 1.967 . S
O875 C883 1.258 . S
O876 Co851 1.941 . S
O876 C883 1.266 . S
H877 C879 0.959 . S
H878 C879 0.961 . S
C879 C869 1.510 . S
C879 H877 0.959 . S
C879 H878 0.961 . S
C879 H880 0.960 . S
H880 C879 0.960 . S
H881 N861 0.862 . S
O882 Co850 1.920 1_655 S
O882 C855 1.289 . S
C883 O875 1.258 . S
C883 O876 1.266 . S
Co884 O887 1.970 . S
Co884 N901 1.989 . S
Co884 O909 1.967 . S
Co884 O916 1.920 . S
Co885 O888 1.966 . S
Co885 N894 2.022 . S
Co885 N902 1.993 . S
Co885 O910 1.941 . S
C886 O887 1.258 . S
C886 O888 1.263 . S
O887 Co884 1.970 . S
O887 C886 1.258 . S
O888 Co885 1.966 . S
O888 C886 1.263 . S
C889 O890 1.235 . S
C889 O916 1.289 . S
O890 C889 1.235 . S
C891 C893 1.400 . S
C891 N894 1.351 . S
C891 C896 1.501 . S
C892 C893 1.387 . S
C892 N895 1.341 . S
C893 C891 1.400 . S
C893 C892 1.387 . S
N894 Co885 2.022 . S
N894 C891 1.351 . S
N894 N895 1.365 . S
N895 C892 1.341 . S
N895 N894 1.365 . S
N895 H915 0.862 . S
C896 C891 1.501 . S
C896 H897 0.961 . S
C896 H898 0.961 . S
C896 H899 0.960 . S
H897 C896 0.961 . S
H898 C896 0.961 . S
H899 C896 0.960 . S
C900 N901 1.342 . S
C900 C904 1.401 . S
C900 C905 1.499 . S
N901 Co884 1.989 . S
N901 C900 1.342 . S
N901 N902 1.388 . S
N902 Co885 1.993 . S
N902 N901 1.388 . S
N902 C903 1.346 . S
C903 N902 1.346 . S
C903 C904 1.396 . S
C903 C913 1.510 . S
C904 C900 1.401 . S
C904 C903 1.396 . S
C905 C900 1.499 . S
C905 H906 0.959 . S
C905 H907 0.960 . S
C905 H908 0.961 . S
H906 C905 0.959 . S
H907 C905 0.960 . S
H908 C905 0.961 . S
O909 Co884 1.967 . S
O909 C917 1.258 . S
O910 Co885 1.941 . S
O910 C917 1.266 . S
H911 C913 0.959 . S
H912 C913 0.961 . S
C913 C903 1.510 . S
C913 H911 0.959 . S
C913 H912 0.961 . S
C913 H914 0.960 . S
H914 C913 0.960 . S
H915 N895 0.862 . S
O916 Co884 1.920 . S
O916 C889 1.289 . S
C917 O909 1.258 . S
C917 O910 1.266 . S
Co918 O921 1.970 . S
Co918 N935 1.989 . S
Co918 O943 1.967 . S
Co918 O950 1.920 1_655 S
Co919 O922 1.966 . S
Co919 N928 2.022 . S
Co919 N936 1.993 . S
Co919 O944 1.941 . S
C920 O921 1.258 . S
C920 O922 1.263 . S
O921 Co918 1.970 . S
O921 C920 1.258 . S
O922 Co919 1.966 . S
O922 C920 1.263 . S
C923 O924 1.235 1_455 S
C923 O950 1.289 . S
O924 C923 1.235 1_655 S
C925 C927 1.400 . S
C925 N928 1.351 . S
C925 C930 1.501 . S
C926 C927 1.387 . S
C926 N929 1.341 . S
C927 C925 1.400 . S
C927 C926 1.387 . S
N928 Co919 2.022 . S
N928 C925 1.351 . S
N928 N929 1.365 . S
N929 C926 1.341 . S
N929 N928 1.365 . S
N929 H949 0.862 . S
C930 C925 1.501 . S
C930 H931 0.961 . S
C930 H932 0.961 . S
C930 H933 0.960 . S
H931 C930 0.961 . S
H932 C930 0.961 . S
H933 C930 0.960 . S
C934 N935 1.342 . S
C934 C938 1.401 . S
C934 C939 1.499 1_655 S
N935 Co918 1.989 . S
N935 C934 1.342 . S
N935 N936 1.388 . S
N936 Co919 1.993 . S
N936 N935 1.388 . S
N936 C937 1.346 . S
C937 N936 1.346 . S
C937 C938 1.396 . S
C937 C947 1.510 . S
C938 C934 1.401 . S
C938 C937 1.396 . S
C939 C934 1.499 1_455 S
C939 H940 0.959 . S
C939 H941 0.960 . S
C939 H942 0.961 . S
H940 C939 0.959 . S
H941 C939 0.960 . S
H942 C939 0.961 . S
O943 Co918 1.967 . S
O943 C951 1.258 . S
O944 Co919 1.941 . S
O944 C951 1.266 . S
H945 C947 0.959 . S
H946 C947 0.961 . S
C947 C937 1.510 . S
C947 H945 0.959 . S
C947 H946 0.961 . S
C947 H948 0.960 . S
H948 C947 0.960 . S
H949 N929 0.862 . S
O950 Co918 1.920 1_455 S
O950 C923 1.289 . S
C951 O943 1.258 . S
C951 O944 1.266 . S
Co952 O955 1.970 . S
Co952 N969 1.989 . S
Co952 O977 1.967 . S
Co952 O984 1.920 . S
Co953 O956 1.966 . S
Co953 N962 2.022 . S
Co953 N970 1.993 . S
Co953 O978 1.941 . S
C954 O955 1.258 . S
C954 O956 1.263 . S
O955 Co952 1.970 . S
O955 C954 1.258 . S
O956 Co953 1.966 . S
O956 C954 1.263 . S
C957 O958 1.235 . S
C957 O984 1.289 . S
O958 C957 1.235 . S
C959 C961 1.400 . S
C959 N962 1.351 . S
C959 C964 1.501 . S
C960 C961 1.387 . S
C960 N963 1.341 . S
C961 C959 1.400 . S
C961 C960 1.387 . S
N962 Co953 2.022 . S
N962 C959 1.351 . S
N962 N963 1.365 . S
N963 C960 1.341 . S
N963 N962 1.365 . S
N963 H983 0.862 . S
C964 C959 1.501 . S
C964 H965 0.961 . S
C964 H966 0.961 . S
C964 H967 0.960 . S
H965 C964 0.961 . S
H966 C964 0.961 . S
H967 C964 0.960 . S
C968 N969 1.342 . S
C968 C972 1.401 . S
C968 C973 1.499 . S
N969 Co952 1.989 . S
N969 C968 1.342 . S
N969 N970 1.388 . S
N970 Co953 1.993 . S
N970 N969 1.388 . S
N970 C971 1.346 . S
C971 N970 1.346 . S
C971 C972 1.396 . S
C971 C981 1.510 . S
C972 C968 1.401 . S
C972 C971 1.396 . S
C973 C968 1.499 . S
C973 H974 0.959 . S
C973 H975 0.960 . S
C973 H976 0.961 . S
H974 C973 0.959 . S
H975 C973 0.960 . S
H976 C973 0.961 . S
O977 Co952 1.967 . S
O977 C985 1.258 . S
O978 Co953 1.941 . S
O978 C985 1.266 . S
H979 C981 0.959 . S
H980 C981 0.961 . S
C981 C971 1.510 . S
C981 H979 0.959 . S
C981 H980 0.961 . S
C981 H982 0.960 . S
H982 C981 0.960 . S
H983 N963 0.862 . S
O984 Co952 1.920 . S
O984 C957 1.289 . S
C985 O977 1.258 . S
C985 O978 1.266 . S
Co986 O989 1.970 . S
Co986 N1003 1.989 . S
Co986 O1011 1.967 . S
Co986 O1018 1.920 . S
Co987 O990 1.966 . S
Co987 N996 2.022 . S
Co987 N1004 1.993 . S
Co987 O1012 1.941 . S
C988 O989 1.258 . S
C988 O990 1.263 . S
O989 Co986 1.970 . S
O989 C988 1.258 . S
O990 Co987 1.966 . S
O990 C988 1.263 . S
C991 O992 1.235 . S
C991 O1018 1.289 . S
O992 C991 1.235 . S
C993 C995 1.400 . S
C993 N996 1.351 . S
C993 C998 1.501 . S
C994 C995 1.387 . S
C994 N997 1.341 . S
C995 C993 1.400 . S
C995 C994 1.387 . S
N996 Co987 2.022 . S
N996 C993 1.351 . S
N996 N997 1.365 . S
N997 C994 1.341 . S
N997 N996 1.365 . S
N997 H1017 0.862 . S
C998 C993 1.501 . S
C998 H999 0.961 . S
C998 H1000 0.961 . S
C998 H1001 0.960 . S
H999 C998 0.961 . S
H1000 C998 0.961 . S
H1001 C998 0.960 . S
C1002 N1003 1.342 . S
C1002 C1006 1.401 . S
C1002 C1007 1.499 . S
N1003 Co986 1.989 . S
N1003 C1002 1.342 . S
N1003 N1004 1.388 . S
N1004 Co987 1.993 . S
N1004 N1003 1.388 . S
N1004 C1005 1.346 . S
C1005 N1004 1.346 . S
C1005 C1006 1.396 . S
C1005 C1015 1.510 . S
C1006 C1002 1.401 . S
C1006 C1005 1.396 . S
C1007 C1002 1.499 . S
C1007 H1008 0.959 . S
C1007 H1009 0.960 . S
C1007 H1010 0.961 . S
H1008 C1007 0.959 . S
H1009 C1007 0.960 . S
H1010 C1007 0.961 . S
O1011 Co986 1.967 . S
O1011 C1019 1.258 . S
O1012 Co987 1.941 . S
O1012 C1019 1.266 . S
H1013 C1015 0.959 . S
H1014 C1015 0.961 . S
C1015 C1005 1.510 . S
C1015 H1013 0.959 . S
C1015 H1014 0.961 . S
C1015 H1016 0.960 . S
H1016 C1015 0.960 . S
H1017 N997 0.862 . S
O1018 Co986 1.920 . S
O1018 C991 1.289 . S
C1019 O1011 1.258 . S
C1019 O1012 1.266 . S
Co1020 O1023 1.970 . S
Co1020 N1037 1.989 . S
Co1020 O1045 1.967 . S
Co1020 O1052 1.920 . S
Co1021 O1024 1.966 . S
Co1021 N1030 2.022 . S
Co1021 N1038 1.993 . S
Co1021 O1046 1.941 . S
C1022 O1023 1.258 . S
C1022 O1024 1.263 . S
O1023 Co1020 1.970 . S
O1023 C1022 1.258 . S
O1024 Co1021 1.966 . S
O1024 C1022 1.263 . S
C1025 O1026 1.235 . S
C1025 O1052 1.289 . S
O1026 C1025 1.235 . S
C1027 C1029 1.400 . S
C1027 N1030 1.351 . S
C1027 C1032 1.501 . S
C1028 C1029 1.387 . S
C1028 N1031 1.341 . S
C1029 C1027 1.400 . S
C1029 C1028 1.387 . S
N1030 Co1021 2.022 . S
N1030 C1027 1.351 . S
N1030 N1031 1.365 . S
N1031 C1028 1.341 . S
N1031 N1030 1.365 . S
N1031 H1051 0.862 . S
C1032 C1027 1.501 . S
C1032 H1033 0.961 . S
C1032 H1034 0.961 . S
C1032 H1035 0.960 . S
H1033 C1032 0.961 . S
H1034 C1032 0.961 . S
H1035 C1032 0.960 . S
C1036 N1037 1.342 . S
C1036 C1040 1.401 . S
C1036 C1041 1.499 . S
N1037 Co1020 1.989 . S
N1037 C1036 1.342 . S
N1037 N1038 1.388 . S
N1038 Co1021 1.993 . S
N1038 N1037 1.388 . S
N1038 C1039 1.346 . S
C1039 N1038 1.346 . S
C1039 C1040 1.396 . S
C1039 C1049 1.510 . S
C1040 C1036 1.401 . S
C1040 C1039 1.396 . S
C1041 C1036 1.499 . S
C1041 H1042 0.959 . S
C1041 H1043 0.960 . S
C1041 H1044 0.961 . S
H1042 C1041 0.959 . S
H1043 C1041 0.960 . S
H1044 C1041 0.961 . S
O1045 Co1020 1.967 . S
O1045 C1053 1.258 . S
O1046 Co1021 1.941 . S
O1046 C1053 1.266 . S
H1047 C1049 0.959 . S
H1048 C1049 0.961 . S
C1049 C1039 1.510 . S
C1049 H1047 0.959 . S
C1049 H1048 0.961 . S
C1049 H1050 0.960 . S
H1050 C1049 0.960 . S
H1051 N1031 0.862 . S
O1052 Co1020 1.920 . S
O1052 C1025 1.289 . S
C1053 O1045 1.258 . S
C1053 O1046 1.266 . S
Co1054 O1057 1.970 . S
Co1054 N1071 1.989 . S
Co1054 O1079 1.967 . S
Co1054 O1086 1.920 . S
Co1055 O1058 1.966 . S
Co1055 N1064 2.022 . S
Co1055 N1072 1.993 . S
Co1055 O1080 1.941 . S
C1056 O1057 1.258 . S
C1056 O1058 1.263 . S
O1057 Co1054 1.970 . S
O1057 C1056 1.258 . S
O1058 Co1055 1.966 . S
O1058 C1056 1.263 . S
C1059 O1060 1.235 . S
C1059 O1086 1.289 . S
O1060 C1059 1.235 . S
C1061 C1063 1.400 . S
C1061 N1064 1.351 . S
C1061 C1066 1.501 . S
C1062 C1063 1.387 . S
C1062 N1065 1.341 . S
C1063 C1061 1.400 . S
C1063 C1062 1.387 . S
N1064 Co1055 2.022 . S
N1064 C1061 1.351 . S
N1064 N1065 1.365 . S
N1065 C1062 1.341 . S
N1065 N1064 1.365 . S
N1065 H1085 0.862 . S
C1066 C1061 1.501 . S
C1066 H1067 0.961 . S
C1066 H1068 0.961 . S
C1066 H1069 0.960 . S
H1067 C1066 0.961 . S
H1068 C1066 0.961 . S
H1069 C1066 0.960 . S
C1070 N1071 1.342 . S
C1070 C1074 1.401 . S
C1070 C1075 1.499 . S
N1071 Co1054 1.989 . S
N1071 C1070 1.342 . S
N1071 N1072 1.388 . S
N1072 Co1055 1.993 . S
N1072 N1071 1.388 . S
N1072 C1073 1.346 . S
C1073 N1072 1.346 . S
C1073 C1074 1.396 . S
C1073 C1083 1.510 . S
C1074 C1070 1.401 . S
C1074 C1073 1.396 . S
C1075 C1070 1.499 . S
C1075 H1076 0.959 . S
C1075 H1077 0.960 . S
C1075 H1078 0.961 . S
H1076 C1075 0.959 . S
H1077 C1075 0.960 . S
H1078 C1075 0.961 . S
O1079 Co1054 1.967 . S
O1079 C1087 1.258 . S
O1080 Co1055 1.941 . S
O1080 C1087 1.266 . S
H1081 C1083 0.959 . S
H1082 C1083 0.961 . S
C1083 C1073 1.510 . S
C1083 H1081 0.959 . S
C1083 H1082 0.961 . S
C1083 H1084 0.960 . S
H1084 C1083 0.960 . S
H1085 N1065 0.862 . S
O1086 Co1054 1.920 . S
O1086 C1059 1.289 . S
C1087 O1079 1.258 . S
C1087 O1080 1.266 . S
Co1088 O1091 1.970 . S
Co1088 N1105 1.989 . S
Co1088 O1113 1.967 . S
Co1088 O1120 1.920 . S
Co1089 O1092 1.966 . S
Co1089 N1098 2.022 . S
Co1089 N1106 1.993 . S
Co1089 O1114 1.941 . S
C1090 O1091 1.258 . S
C1090 O1092 1.263 . S
O1091 Co1088 1.970 . S
O1091 C1090 1.258 . S
O1092 Co1089 1.966 . S
O1092 C1090 1.263 . S
C1093 O1094 1.235 . S
C1093 O1120 1.289 . S
O1094 C1093 1.235 . S
C1095 C1097 1.400 . S
C1095 N1098 1.351 . S
C1095 C1100 1.501 . S
C1096 C1097 1.387 . S
C1096 N1099 1.341 . S
C1097 C1095 1.400 . S
C1097 C1096 1.387 . S
N1098 Co1089 2.022 . S
N1098 C1095 1.351 . S
N1098 N1099 1.365 . S
N1099 C1096 1.341 . S
N1099 N1098 1.365 . S
N1099 H1119 0.862 . S
C1100 C1095 1.501 . S
C1100 H1101 0.961 . S
C1100 H1102 0.961 . S
C1100 H1103 0.960 . S
H1101 C1100 0.961 . S
H1102 C1100 0.961 . S
H1103 C1100 0.960 . S
C1104 N1105 1.342 . S
C1104 C1108 1.401 . S
C1104 C1109 1.499 . S
N1105 Co1088 1.989 . S
N1105 C1104 1.342 . S
N1105 N1106 1.388 . S
N1106 Co1089 1.993 . S
N1106 N1105 1.388 . S
N1106 C1107 1.346 . S
C1107 N1106 1.346 . S
C1107 C1108 1.396 . S
C1107 C1117 1.510 . S
C1108 C1104 1.401 . S
C1108 C1107 1.396 . S
C1109 C1104 1.499 . S
C1109 H1110 0.959 . S
C1109 H1111 0.960 . S
C1109 H1112 0.961 . S
H1110 C1109 0.959 . S
H1111 C1109 0.960 . S
H1112 C1109 0.961 . S
O1113 Co1088 1.967 . S
O1113 C1121 1.258 . S
O1114 Co1089 1.941 . S
O1114 C1121 1.266 . S
H1115 C1117 0.959 . S
H1116 C1117 0.961 . S
C1117 C1107 1.510 . S
C1117 H1115 0.959 . S
C1117 H1116 0.961 . S
C1117 H1118 0.960 . S
H1118 C1117 0.960 . S
H1119 N1099 0.862 . S
O1120 Co1088 1.920 . S
O1120 C1093 1.289 . S
C1121 O1113 1.258 . S
C1121 O1114 1.266 . S
Co1122 O1125 1.970 1_545 S
Co1122 N1139 1.989 . S
Co1122 O1147 1.967 . S
Co1122 O1154 1.920 . S
Co1123 O1126 1.966 . S
Co1123 N1132 2.022 . S
Co1123 N1140 1.993 . S
Co1123 O1148 1.941 . S
C1124 O1125 1.258 1_545 S
C1124 O1126 1.262 . S
O1125 Co1122 1.970 1_565 S
O1125 C1124 1.258 1_565 S
O1126 Co1123 1.966 . S
O1126 C1124 1.262 . S
C1127 O1128 1.235 . S
C1127 O1154 1.289 1_565 S
O1128 C1127 1.235 . S
C1129 C1131 1.400 . S
C1129 N1132 1.351 . S
C1129 C1134 1.501 . S
C1130 C1131 1.387 . S
C1130 N1133 1.341 . S
C1131 C1129 1.400 . S
C1131 C1130 1.387 . S
N1132 Co1123 2.022 . S
N1132 C1129 1.351 . S
N1132 N1133 1.365 . S
N1133 C1130 1.341 . S
N1133 N1132 1.365 . S
N1133 H1153 0.862 . S
C1134 C1129 1.501 . S
C1134 H1135 0.961 . S
C1134 H1136 0.961 . S
C1134 H1137 0.960 . S
H1135 C1134 0.961 . S
H1136 C1134 0.961 . S
H1137 C1134 0.960 . S
C1138 N1139 1.342 . S
C1138 C1142 1.401 . S
C1138 C1143 1.499 . S
N1139 Co1122 1.989 . S
N1139 C1138 1.342 . S
N1139 N1140 1.388 . S
N1140 Co1123 1.993 . S
N1140 N1139 1.388 . S
N1140 C1141 1.346 . S
C1141 N1140 1.346 . S
C1141 C1142 1.396 . S
C1141 C1151 1.510 . S
C1142 C1138 1.401 . S
C1142 C1141 1.396 . S
C1143 C1138 1.499 . S
C1143 H1144 0.959 . S
C1143 H1145 0.960 . S
C1143 H1146 0.961 . S
H1144 C1143 0.959 . S
H1145 C1143 0.960 . S
H1146 C1143 0.961 . S
O1147 Co1122 1.967 . S
O1147 C1155 1.258 . S
O1148 Co1123 1.941 . S
O1148 C1155 1.266 . S
H1149 C1151 0.959 . S
H1150 C1151 0.961 . S
C1151 C1141 1.510 . S
C1151 H1149 0.959 . S
C1151 H1150 0.961 . S
C1151 H1152 0.960 . S
H1152 C1151 0.960 . S
H1153 N1133 0.862 . S
O1154 Co1122 1.920 . S
O1154 C1127 1.289 1_545 S
C1155 O1147 1.258 . S
C1155 O1148 1.266 . S
Co1156 O1159 1.970 . S
Co1156 N1173 1.989 . S
Co1156 O1181 1.967 . S
Co1156 O1188 1.920 . S
Co1157 O1160 1.966 . S
Co1157 N1166 2.022 . S
Co1157 N1174 1.993 . S
Co1157 O1182 1.941 . S
C1158 O1159 1.258 . S
C1158 O1160 1.263 . S
O1159 Co1156 1.970 . S
O1159 C1158 1.258 . S
O1160 Co1157 1.966 . S
O1160 C1158 1.263 . S
C1161 O1162 1.235 . S
C1161 O1188 1.289 . S
O1162 C1161 1.235 . S
C1163 C1165 1.400 . S
C1163 N1166 1.351 . S
C1163 C1168 1.501 . S
C1164 C1165 1.387 . S
C1164 N1167 1.341 . S
C1165 C1163 1.400 . S
C1165 C1164 1.387 . S
N1166 Co1157 2.022 . S
N1166 C1163 1.351 . S
N1166 N1167 1.365 . S
N1167 C1164 1.341 . S
N1167 N1166 1.365 . S
N1167 H1187 0.862 . S
C1168 C1163 1.501 . S
C1168 H1169 0.961 . S
C1168 H1170 0.961 . S
C1168 H1171 0.960 . S
H1169 C1168 0.961 . S
H1170 C1168 0.961 . S
H1171 C1168 0.960 . S
C1172 N1173 1.342 . S
C1172 C1176 1.401 . S
C1172 C1177 1.499 . S
N1173 Co1156 1.989 . S
N1173 C1172 1.342 . S
N1173 N1174 1.388 . S
N1174 Co1157 1.993 . S
N1174 N1173 1.388 . S
N1174 C1175 1.346 . S
C1175 N1174 1.346 . S
C1175 C1176 1.396 . S
C1175 C1185 1.510 . S
C1176 C1172 1.401 . S
C1176 C1175 1.396 . S
C1177 C1172 1.499 . S
C1177 H1178 0.959 . S
C1177 H1179 0.960 . S
C1177 H1180 0.961 . S
H1178 C1177 0.959 . S
H1179 C1177 0.960 . S
H1180 C1177 0.961 . S
O1181 Co1156 1.967 . S
O1181 C1189 1.258 . S
O1182 Co1157 1.941 . S
O1182 C1189 1.266 . S
H1183 C1185 0.959 . S
H1184 C1185 0.961 . S
C1185 C1175 1.510 . S
C1185 H1183 0.959 . S
C1185 H1184 0.961 . S
C1185 H1186 0.960 . S
H1186 C1185 0.960 . S
H1187 N1167 0.862 . S
O1188 Co1156 1.920 . S
O1188 C1161 1.289 . S
C1189 O1181 1.258 . S
C1189 O1182 1.266 . S
Co1190 O1193 1.970 . S
Co1190 N1207 1.989 . S
Co1190 O1215 1.967 . S
Co1190 O1222 1.920 . S
Co1191 O1194 1.966 . S
Co1191 N1200 2.022 . S
Co1191 N1208 1.993 . S
Co1191 O1216 1.941 . S
C1192 O1193 1.258 . S
C1192 O1194 1.263 . S
O1193 Co1190 1.970 . S
O1193 C1192 1.258 . S
O1194 Co1191 1.966 . S
O1194 C1192 1.263 . S
C1195 O1196 1.235 . S
C1195 O1222 1.289 . S
O1196 C1195 1.235 . S
C1197 C1199 1.400 . S
C1197 N1200 1.351 . S
C1197 C1202 1.501 . S
C1198 C1199 1.387 . S
C1198 N1201 1.341 . S
C1199 C1197 1.400 . S
C1199 C1198 1.387 . S
N1200 Co1191 2.022 . S
N1200 C1197 1.351 . S
N1200 N1201 1.365 . S
N1201 C1198 1.341 . S
N1201 N1200 1.365 . S
N1201 H1221 0.862 . S
C1202 C1197 1.501 . S
C1202 H1203 0.961 . S
C1202 H1204 0.961 . S
C1202 H1205 0.960 . S
H1203 C1202 0.961 . S
H1204 C1202 0.961 . S
H1205 C1202 0.960 . S
C1206 N1207 1.342 . S
C1206 C1210 1.401 . S
C1206 C1211 1.499 . S
N1207 Co1190 1.989 . S
N1207 C1206 1.342 . S
N1207 N1208 1.388 . S
N1208 Co1191 1.993 . S
N1208 N1207 1.388 . S
N1208 C1209 1.346 . S
C1209 N1208 1.346 . S
C1209 C1210 1.396 . S
C1209 C1219 1.510 . S
C1210 C1206 1.401 . S
C1210 C1209 1.396 . S
C1211 C1206 1.499 . S
C1211 H1212 0.959 . S
C1211 H1213 0.960 . S
C1211 H1214 0.961 . S
H1212 C1211 0.959 . S
H1213 C1211 0.960 . S
H1214 C1211 0.961 . S
O1215 Co1190 1.967 . S
O1215 C1223 1.258 . S
O1216 Co1191 1.941 . S
O1216 C1223 1.266 . S
H1217 C1219 0.959 . S
H1218 C1219 0.961 . S
C1219 C1209 1.510 . S
C1219 H1217 0.959 . S
C1219 H1218 0.961 . S
C1219 H1220 0.960 . S
H1220 C1219 0.960 . S
H1221 N1201 0.862 . S
O1222 Co1190 1.920 . S
O1222 C1195 1.289 . S
C1223 O1215 1.258 . S
C1223 O1216 1.266 . S
Co1224 O1227 1.970 . S
Co1224 N1241 1.989 . S
Co1224 O1249 1.967 . S
Co1224 O1256 1.920 . S
Co1225 O1228 1.966 . S
Co1225 N1234 2.022 . S
Co1225 N1242 1.993 . S
Co1225 O1250 1.941 . S
C1226 O1227 1.258 . S
C1226 O1228 1.263 . S
O1227 Co1224 1.970 . S
O1227 C1226 1.258 . S
O1228 Co1225 1.966 . S
O1228 C1226 1.263 . S
C1229 O1230 1.235 . S
C1229 O1256 1.289 . S
O1230 C1229 1.235 . S
C1231 C1233 1.400 . S
C1231 N1234 1.351 . S
C1231 C1236 1.501 . S
C1232 C1233 1.387 . S
C1232 N1235 1.341 . S
C1233 C1231 1.400 . S
C1233 C1232 1.387 . S
N1234 Co1225 2.022 . S
N1234 C1231 1.351 . S
N1234 N1235 1.365 . S
N1235 C1232 1.341 . S
N1235 N1234 1.365 . S
N1235 H1255 0.862 . S
C1236 C1231 1.501 . S
C1236 H1237 0.961 . S
C1236 H1238 0.961 . S
C1236 H1239 0.960 . S
H1237 C1236 0.961 . S
H1238 C1236 0.961 . S
H1239 C1236 0.960 . S
C1240 N1241 1.342 . S
C1240 C1244 1.401 . S
C1240 C1245 1.499 . S
N1241 Co1224 1.989 . S
N1241 C1240 1.342 . S
N1241 N1242 1.388 . S
N1242 Co1225 1.993 . S
N1242 N1241 1.388 . S
N1242 C1243 1.346 . S
C1243 N1242 1.346 . S
C1243 C1244 1.396 . S
C1243 C1253 1.510 . S
C1244 C1240 1.401 . S
C1244 C1243 1.396 . S
C1245 C1240 1.499 . S
C1245 H1246 0.959 . S
C1245 H1247 0.960 . S
C1245 H1248 0.961 . S
H1246 C1245 0.959 . S
H1247 C1245 0.960 . S
H1248 C1245 0.961 . S
O1249 Co1224 1.967 . S
O1249 C1257 1.258 . S
O1250 Co1225 1.941 . S
O1250 C1257 1.266 . S
H1251 C1253 0.959 . S
H1252 C1253 0.961 . S
C1253 C1243 1.510 . S
C1253 H1251 0.959 . S
C1253 H1252 0.961 . S
C1253 H1254 0.960 . S
H1254 C1253 0.960 . S
H1255 N1235 0.862 . S
O1256 Co1224 1.920 . S
O1256 C1229 1.289 . S
C1257 O1249 1.258 . S
C1257 O1250 1.266 . S
Co1258 O1261 1.970 1_545 S
Co1258 N1275 1.989 . S
Co1258 O1283 1.967 . S
Co1258 O1290 1.920 . S
Co1259 O1262 1.966 . S
Co1259 N1268 2.022 . S
Co1259 N1276 1.993 . S
Co1259 O1284 1.941 . S
C1260 O1261 1.258 1_545 S
C1260 O1262 1.262 . S
O1261 Co1258 1.970 1_565 S
O1261 C1260 1.258 1_565 S
O1262 Co1259 1.966 . S
O1262 C1260 1.262 . S
C1263 O1264 1.235 . S
C1263 O1290 1.289 1_565 S
O1264 C1263 1.235 . S
C1265 C1267 1.400 . S
C1265 N1268 1.351 . S
C1265 C1270 1.501 . S
C1266 C1267 1.387 . S
C1266 N1269 1.341 . S
C1267 C1265 1.400 . S
C1267 C1266 1.387 . S
N1268 Co1259 2.022 . S
N1268 C1265 1.351 . S
N1268 N1269 1.365 . S
N1269 C1266 1.341 . S
N1269 N1268 1.365 . S
N1269 H1289 0.862 . S
C1270 C1265 1.501 . S
C1270 H1271 0.961 . S
C1270 H1272 0.961 . S
C1270 H1273 0.960 . S
H1271 C1270 0.961 . S
H1272 C1270 0.961 . S
H1273 C1270 0.960 . S
C1274 N1275 1.342 . S
C1274 C1278 1.401 . S
C1274 C1279 1.499 . S
N1275 Co1258 1.989 . S
N1275 C1274 1.342 . S
N1275 N1276 1.388 . S
N1276 Co1259 1.993 . S
N1276 N1275 1.388 . S
N1276 C1277 1.346 . S
C1277 N1276 1.346 . S
C1277 C1278 1.396 . S
C1277 C1287 1.510 . S
C1278 C1274 1.401 . S
C1278 C1277 1.396 . S
C1279 C1274 1.499 . S
C1279 H1280 0.959 . S
C1279 H1281 0.960 . S
C1279 H1282 0.961 . S
H1280 C1279 0.959 . S
H1281 C1279 0.960 . S
H1282 C1279 0.961 . S
O1283 Co1258 1.967 . S
O1283 C1291 1.258 . S
O1284 Co1259 1.941 . S
O1284 C1291 1.266 . S
H1285 C1287 0.959 . S
H1286 C1287 0.961 . S
C1287 C1277 1.510 . S
C1287 H1285 0.959 . S
C1287 H1286 0.961 . S
C1287 H1288 0.960 . S
H1288 C1287 0.960 . S
H1289 N1269 0.862 . S
O1290 Co1258 1.920 . S
O1290 C1263 1.289 1_545 S
C1291 O1283 1.258 . S
C1291 O1284 1.266 . S
Co1292 O1295 1.970 . S
Co1292 N1309 1.989 . S
Co1292 O1317 1.967 . S
Co1292 O1324 1.920 . S
Co1293 O1296 1.966 . S
Co1293 N1302 2.022 . S
Co1293 N1310 1.993 . S
Co1293 O1318 1.941 . S
C1294 O1295 1.258 . S
C1294 O1296 1.263 . S
O1295 Co1292 1.970 . S
O1295 C1294 1.258 . S
O1296 Co1293 1.966 . S
O1296 C1294 1.263 . S
C1297 O1298 1.235 . S
C1297 O1324 1.289 . S
O1298 C1297 1.235 . S
C1299 C1301 1.400 . S
C1299 N1302 1.351 . S
C1299 C1304 1.501 . S
C1300 C1301 1.387 . S
C1300 N1303 1.341 . S
C1301 C1299 1.400 . S
C1301 C1300 1.387 . S
N1302 Co1293 2.022 . S
N1302 C1299 1.351 . S
N1302 N1303 1.365 . S
N1303 C1300 1.341 . S
N1303 N1302 1.365 . S
N1303 H1323 0.862 . S
C1304 C1299 1.501 . S
C1304 H1305 0.961 . S
C1304 H1306 0.961 . S
C1304 H1307 0.960 . S
H1305 C1304 0.961 . S
H1306 C1304 0.961 . S
H1307 C1304 0.960 . S
C1308 N1309 1.342 . S
C1308 C1312 1.401 . S
C1308 C1313 1.499 . S
N1309 Co1292 1.989 . S
N1309 C1308 1.342 . S
N1309 N1310 1.388 . S
N1310 Co1293 1.993 . S
N1310 N1309 1.388 . S
N1310 C1311 1.346 . S
C1311 N1310 1.346 . S
C1311 C1312 1.396 . S
C1311 C1321 1.510 . S
C1312 C1308 1.401 . S
C1312 C1311 1.396 . S
C1313 C1308 1.499 . S
C1313 H1314 0.959 . S
C1313 H1315 0.960 . S
C1313 H1316 0.961 . S
H1314 C1313 0.959 . S
H1315 C1313 0.960 . S
H1316 C1313 0.961 . S
O1317 Co1292 1.967 . S
O1317 C1325 1.258 . S
O1318 Co1293 1.941 . S
O1318 C1325 1.266 . S
H1319 C1321 0.959 . S
H1320 C1321 0.961 . S
C1321 C1311 1.510 . S
C1321 H1319 0.959 . S
C1321 H1320 0.961 . S
C1321 H1322 0.960 . S
H1322 C1321 0.960 . S
H1323 N1303 0.862 . S
O1324 Co1292 1.920 . S
O1324 C1297 1.289 . S
C1325 O1317 1.258 . S
C1325 O1318 1.266 . S
Co1326 O1329 1.970 . S
Co1326 N1343 1.989 . S
Co1326 O1351 1.967 . S
Co1326 O1358 1.920 . S
Co1327 O1330 1.966 . S
Co1327 N1336 2.022 . S
Co1327 N1344 1.993 . S
Co1327 O1352 1.941 . S
C1328 O1329 1.258 . S
C1328 O1330 1.263 . S
O1329 Co1326 1.970 . S
O1329 C1328 1.258 . S
O1330 Co1327 1.966 . S
O1330 C1328 1.263 . S
C1331 O1332 1.235 . S
C1331 O1358 1.289 . S
O1332 C1331 1.235 . S
C1333 C1335 1.400 . S
C1333 N1336 1.351 . S
C1333 C1338 1.501 . S
C1334 C1335 1.387 . S
C1334 N1337 1.341 . S
C1335 C1333 1.400 . S
C1335 C1334 1.387 . S
N1336 Co1327 2.022 . S
N1336 C1333 1.351 . S
N1336 N1337 1.365 . S
N1337 C1334 1.341 . S
N1337 N1336 1.365 . S
N1337 H1357 0.862 . S
C1338 C1333 1.501 . S
C1338 H1339 0.961 . S
C1338 H1340 0.961 . S
C1338 H1341 0.960 . S
H1339 C1338 0.961 . S
H1340 C1338 0.961 . S
H1341 C1338 0.960 . S
C1342 N1343 1.342 . S
C1342 C1346 1.401 . S
C1342 C1347 1.499 . S
N1343 Co1326 1.989 . S
N1343 C1342 1.342 . S
N1343 N1344 1.388 . S
N1344 Co1327 1.993 . S
N1344 N1343 1.388 . S
N1344 C1345 1.346 . S
C1345 N1344 1.346 . S
C1345 C1346 1.396 . S
C1345 C1355 1.510 . S
C1346 C1342 1.401 . S
C1346 C1345 1.396 . S
C1347 C1342 1.499 . S
C1347 H1348 0.959 . S
C1347 H1349 0.960 . S
C1347 H1350 0.961 . S
H1348 C1347 0.959 . S
H1349 C1347 0.960 . S
H1350 C1347 0.961 . S
O1351 Co1326 1.967 . S
O1351 C1359 1.258 . S
O1352 Co1327 1.941 . S
O1352 C1359 1.266 . S
H1353 C1355 0.959 . S
H1354 C1355 0.961 . S
C1355 C1345 1.510 . S
C1355 H1353 0.959 . S
C1355 H1354 0.961 . S
C1355 H1356 0.960 . S
H1356 C1355 0.960 . S
H1357 N1337 0.862 . S
O1358 Co1326 1.920 . S
O1358 C1331 1.289 . S
C1359 O1351 1.258 . S
C1359 O1352 1.266 . S
Co1360 O1363 1.970 . S
Co1360 N1377 1.989 . S
Co1360 O1385 1.967 . S
Co1360 O1392 1.920 . S
Co1361 O1364 1.966 . S
Co1361 N1370 2.022 . S
Co1361 N1378 1.993 . S
Co1361 O1386 1.941 . S
C1362 O1363 1.258 . S
C1362 O1364 1.263 . S
O1363 Co1360 1.970 . S
O1363 C1362 1.258 . S
O1364 Co1361 1.966 . S
O1364 C1362 1.263 . S
C1365 O1366 1.235 . S
C1365 O1392 1.289 . S
O1366 C1365 1.235 . S
C1367 C1369 1.400 . S
C1367 N1370 1.351 . S
C1367 C1372 1.501 . S
C1368 C1369 1.387 . S
C1368 N1371 1.341 . S
C1369 C1367 1.400 . S
C1369 C1368 1.387 . S
N1370 Co1361 2.022 . S
N1370 C1367 1.351 . S
N1370 N1371 1.365 . S
N1371 C1368 1.341 . S
N1371 N1370 1.365 . S
N1371 H1391 0.862 . S
C1372 C1367 1.501 . S
C1372 H1373 0.961 . S
C1372 H1374 0.961 . S
C1372 H1375 0.960 . S
H1373 C1372 0.961 . S
H1374 C1372 0.961 . S
H1375 C1372 0.960 . S
C1376 N1377 1.342 . S
C1376 C1380 1.401 . S
C1376 C1381 1.499 . S
N1377 Co1360 1.989 . S
N1377 C1376 1.342 . S
N1377 N1378 1.388 . S
N1378 Co1361 1.993 . S
N1378 N1377 1.388 . S
N1378 C1379 1.346 . S
C1379 N1378 1.346 . S
C1379 C1380 1.396 . S
C1379 C1389 1.510 . S
C1380 C1376 1.401 . S
C1380 C1379 1.396 . S
C1381 C1376 1.499 . S
C1381 H1382 0.959 . S
C1381 H1383 0.960 . S
C1381 H1384 0.961 . S
H1382 C1381 0.959 . S
H1383 C1381 0.960 . S
H1384 C1381 0.961 . S
O1385 Co1360 1.967 . S
O1385 C1393 1.258 . S
O1386 Co1361 1.941 . S
O1386 C1393 1.266 . S
H1387 C1389 0.959 . S
H1388 C1389 0.961 . S
C1389 C1379 1.510 . S
C1389 H1387 0.959 . S
C1389 H1388 0.961 . S
C1389 H1390 0.960 . S
H1390 C1389 0.960 . S
H1391 N1371 0.862 . S
O1392 Co1360 1.920 . S
O1392 C1365 1.289 . S
C1393 O1385 1.258 . S
C1393 O1386 1.266 . S
Co1394 O1397 1.970 . S
Co1394 N1411 1.989 . S
Co1394 O1419 1.967 . S
Co1394 O1426 1.920 . S
Co1395 O1398 1.966 . S
Co1395 N1404 2.022 . S
Co1395 N1412 1.993 . S
Co1395 O1420 1.941 . S
C1396 O1397 1.258 . S
C1396 O1398 1.263 . S
O1397 Co1394 1.970 . S
O1397 C1396 1.258 . S
O1398 Co1395 1.966 . S
O1398 C1396 1.263 . S
C1399 O1400 1.235 . S
C1399 O1426 1.289 . S
O1400 C1399 1.235 . S
C1401 C1403 1.400 . S
C1401 N1404 1.351 . S
C1401 C1406 1.501 . S
C1402 C1403 1.387 . S
C1402 N1405 1.341 . S
C1403 C1401 1.400 . S
C1403 C1402 1.387 . S
N1404 Co1395 2.022 . S
N1404 C1401 1.351 . S
N1404 N1405 1.365 . S
N1405 C1402 1.341 . S
N1405 N1404 1.365 . S
N1405 H1425 0.862 . S
C1406 C1401 1.501 . S
C1406 H1407 0.961 . S
C1406 H1408 0.961 . S
C1406 H1409 0.960 . S
H1407 C1406 0.961 . S
H1408 C1406 0.961 . S
H1409 C1406 0.960 . S
C1410 N1411 1.342 . S
C1410 C1414 1.401 . S
C1410 C1415 1.499 . S
N1411 Co1394 1.989 . S
N1411 C1410 1.342 . S
N1411 N1412 1.388 . S
N1412 Co1395 1.993 . S
N1412 N1411 1.388 . S
N1412 C1413 1.346 . S
C1413 N1412 1.346 . S
C1413 C1414 1.396 . S
C1413 C1423 1.510 . S
C1414 C1410 1.401 . S
C1414 C1413 1.396 . S
C1415 C1410 1.499 . S
C1415 H1416 0.959 . S
C1415 H1417 0.960 . S
C1415 H1418 0.961 . S
H1416 C1415 0.959 . S
H1417 C1415 0.960 . S
H1418 C1415 0.961 . S
O1419 Co1394 1.967 . S
O1419 C1427 1.258 . S
O1420 Co1395 1.941 . S
O1420 C1427 1.266 . S
H1421 C1423 0.959 . S
H1422 C1423 0.961 . S
C1423 C1413 1.510 . S
C1423 H1421 0.959 . S
C1423 H1422 0.961 . S
C1423 H1424 0.960 . S
H1424 C1423 0.960 . S
H1425 N1405 0.862 . S
O1426 Co1394 1.920 . S
O1426 C1399 1.289 . S
C1427 O1419 1.258 . S
C1427 O1420 1.266 . S
Co1428 O1431 1.970 . S
Co1428 N1445 1.989 . S
Co1428 O1453 1.967 . S
Co1428 O1460 1.920 1_565 S
Co1429 O1432 1.966 . S
Co1429 N1438 2.022 . S
Co1429 N1446 1.993 . S
Co1429 O1454 1.941 . S
C1430 O1431 1.258 . S
C1430 O1432 1.263 . S
O1431 Co1428 1.970 . S
O1431 C1430 1.258 . S
O1432 Co1429 1.966 . S
O1432 C1430 1.263 . S
C1433 O1434 1.235 1_545 S
C1433 O1460 1.289 . S
O1434 C1433 1.235 1_565 S
C1435 C1437 1.400 . S
C1435 N1438 1.351 . S
C1435 C1440 1.501 . S
C1436 C1437 1.387 . S
C1436 N1439 1.341 . S
C1437 C1435 1.400 . S
C1437 C1436 1.387 . S
N1438 Co1429 2.022 . S
N1438 C1435 1.351 . S
N1438 N1439 1.365 . S
N1439 C1436 1.341 . S
N1439 N1438 1.365 . S
N1439 H1459 0.862 . S
C1440 C1435 1.501 . S
C1440 H1441 0.961 . S
C1440 H1442 0.961 . S
C1440 H1443 0.960 . S
H1441 C1440 0.961 . S
H1442 C1440 0.961 . S
H1443 C1440 0.960 . S
C1444 N1445 1.342 . S
C1444 C1448 1.401 . S
C1444 C1449 1.499 1_565 S
N1445 Co1428 1.989 . S
N1445 C1444 1.342 . S
N1445 N1446 1.388 . S
N1446 Co1429 1.993 . S
N1446 N1445 1.388 . S
N1446 C1447 1.346 . S
C1447 N1446 1.346 . S
C1447 C1448 1.396 . S
C1447 C1457 1.510 . S
C1448 C1444 1.401 . S
C1448 C1447 1.396 . S
C1449 C1444 1.499 1_545 S
C1449 H1450 0.959 . S
C1449 H1451 0.960 . S
C1449 H1452 0.961 . S
H1450 C1449 0.959 . S
H1451 C1449 0.960 . S
H1452 C1449 0.961 . S
O1453 Co1428 1.967 . S
O1453 C1461 1.258 . S
O1454 Co1429 1.941 . S
O1454 C1461 1.266 . S
H1455 C1457 0.959 . S
H1456 C1457 0.961 . S
C1457 C1447 1.510 . S
C1457 H1455 0.959 . S
C1457 H1456 0.961 . S
C1457 H1458 0.960 . S
H1458 C1457 0.960 . S
H1459 N1439 0.862 . S
O1460 Co1428 1.920 1_545 S
O1460 C1433 1.289 . S
C1461 O1453 1.258 . S
C1461 O1454 1.266 . S
Co1462 O1465 1.970 . S
Co1462 N1479 1.989 . S
Co1462 O1487 1.967 . S
Co1462 O1494 1.920 . S
Co1463 O1466 1.966 . S
Co1463 N1472 2.022 . S
Co1463 N1480 1.993 . S
Co1463 O1488 1.941 . S
C1464 O1465 1.258 . S
C1464 O1466 1.263 . S
O1465 Co1462 1.970 . S
O1465 C1464 1.258 . S
O1466 Co1463 1.966 . S
O1466 C1464 1.263 . S
C1467 O1468 1.235 . S
C1467 O1494 1.289 . S
O1468 C1467 1.235 . S
C1469 C1471 1.400 . S
C1469 N1472 1.351 . S
C1469 C1474 1.501 . S
C1470 C1471 1.387 . S
C1470 N1473 1.341 . S
C1471 C1469 1.400 . S
C1471 C1470 1.387 . S
N1472 Co1463 2.022 . S
N1472 C1469 1.351 . S
N1472 N1473 1.365 . S
N1473 C1470 1.341 . S
N1473 N1472 1.365 . S
N1473 H1493 0.862 . S
C1474 C1469 1.501 . S
C1474 H1475 0.961 . S
C1474 H1476 0.961 . S
C1474 H1477 0.960 . S
H1475 C1474 0.961 . S
H1476 C1474 0.961 . S
H1477 C1474 0.960 . S
C1478 N1479 1.342 . S
C1478 C1482 1.401 . S
C1478 C1483 1.499 . S
N1479 Co1462 1.989 . S
N1479 C1478 1.342 . S
N1479 N1480 1.388 . S
N1480 Co1463 1.993 . S
N1480 N1479 1.388 . S
N1480 C1481 1.346 . S
C1481 N1480 1.346 . S
C1481 C1482 1.396 . S
C1481 C1491 1.510 . S
C1482 C1478 1.401 . S
C1482 C1481 1.396 . S
C1483 C1478 1.499 . S
C1483 H1484 0.959 . S
C1483 H1485 0.960 . S
C1483 H1486 0.961 . S
H1484 C1483 0.959 . S
H1485 C1483 0.960 . S
H1486 C1483 0.961 . S
O1487 Co1462 1.967 . S
O1487 C1495 1.258 . S
O1488 Co1463 1.941 . S
O1488 C1495 1.266 . S
H1489 C1491 0.959 . S
H1490 C1491 0.961 . S
C1491 C1481 1.510 . S
C1491 H1489 0.959 . S
C1491 H1490 0.961 . S
C1491 H1492 0.960 . S
H1492 C1491 0.960 . S
H1493 N1473 0.862 . S
O1494 Co1462 1.920 . S
O1494 C1467 1.289 . S
C1495 O1487 1.258 . S
C1495 O1488 1.266 . S
Co1496 O1499 1.970 1_655 S
Co1496 N1513 1.989 . S
Co1496 O1521 1.967 . S
Co1496 O1528 1.920 1_545 S
Co1497 O1500 1.966 . S
Co1497 N1506 2.022 . S
Co1497 N1514 1.993 . S
Co1497 O1522 1.941 . S
C1498 O1499 1.258 1_655 S
C1498 O1500 1.262 . S
O1499 Co1496 1.970 1_455 S
O1499 C1498 1.258 1_455 S
O1500 Co1497 1.966 . S
O1500 C1498 1.262 . S
C1501 O1502 1.235 1_565 S
C1501 O1528 1.289 1_455 S
O1502 C1501 1.235 1_545 S
C1503 C1505 1.400 . S
C1503 N1506 1.351 . S
C1503 C1508 1.501 . S
C1504 C1505 1.387 . S
C1504 N1507 1.341 . S
C1505 C1503 1.400 . S
C1505 C1504 1.387 . S
N1506 Co1497 2.022 . S
N1506 C1503 1.351 . S
N1506 N1507 1.365 . S
N1507 C1504 1.341 . S
N1507 N1506 1.365 . S
N1507 H1527 0.862 . S
C1508 C1503 1.501 . S
C1508 H1509 0.961 . S
C1508 H1510 0.961 . S
C1508 H1511 0.960 . S
H1509 C1508 0.961 . S
H1510 C1508 0.961 . S
H1511 C1508 0.960 . S
C1512 N1513 1.342 . S
C1512 C1516 1.401 . S
C1512 C1517 1.499 1_545 S
N1513 Co1496 1.989 . S
N1513 C1512 1.342 . S
N1513 N1514 1.388 . S
N1514 Co1497 1.993 . S
N1514 N1513 1.388 . S
N1514 C1515 1.346 . S
C1515 N1514 1.346 . S
C1515 C1516 1.396 . S
C1515 C1525 1.510 . S
C1516 C1512 1.401 . S
C1516 C1515 1.396 . S
C1517 C1512 1.499 1_565 S
C1517 H1518 0.959 . S
C1517 H1519 0.960 . S
C1517 H1520 0.961 . S
H1518 C1517 0.959 . S
H1519 C1517 0.960 . S
H1520 C1517 0.961 . S
O1521 Co1496 1.967 . S
O1521 C1529 1.258 . S
O1522 Co1497 1.941 . S
O1522 C1529 1.266 . S
H1523 C1525 0.959 . S
H1524 C1525 0.961 . S
C1525 C1515 1.510 . S
C1525 H1523 0.959 . S
C1525 H1524 0.961 . S
C1525 H1526 0.960 . S
H1526 C1525 0.960 . S
H1527 N1507 0.862 . S
O1528 Co1496 1.920 1_565 S
O1528 C1501 1.289 1_655 S
C1529 O1521 1.258 . S
C1529 O1522 1.266 . S
Co1530 O1533 1.970 . S
Co1530 N1547 1.989 . S
Co1530 O1555 1.967 . S
Co1530 O1562 1.920 . S
Co1531 O1534 1.966 . S
Co1531 N1540 2.022 . S
Co1531 N1548 1.993 . S
Co1531 O1556 1.941 . S
C1532 O1533 1.258 . S
C1532 O1534 1.263 . S
O1533 Co1530 1.970 . S
O1533 C1532 1.258 . S
O1534 Co1531 1.966 . S
O1534 C1532 1.263 . S
C1535 O1536 1.235 . S
C1535 O1562 1.289 . S
O1536 C1535 1.235 . S
C1537 C1539 1.400 . S
C1537 N1540 1.351 . S
C1537 C1542 1.501 . S
C1538 C1539 1.387 . S
C1538 N1541 1.341 . S
C1539 C1537 1.400 . S
C1539 C1538 1.387 . S
N1540 Co1531 2.022 . S
N1540 C1537 1.351 . S
N1540 N1541 1.365 . S
N1541 C1538 1.341 . S
N1541 N1540 1.365 . S
N1541 H1561 0.862 . S
C1542 C1537 1.501 . S
C1542 H1543 0.961 . S
C1542 H1544 0.961 . S
C1542 H1545 0.960 . S
H1543 C1542 0.961 . S
H1544 C1542 0.961 . S
H1545 C1542 0.960 . S
C1546 N1547 1.342 . S
C1546 C1550 1.401 . S
C1546 C1551 1.499 . S
N1547 Co1530 1.989 . S
N1547 C1546 1.342 . S
N1547 N1548 1.388 . S
N1548 Co1531 1.993 . S
N1548 N1547 1.388 . S
N1548 C1549 1.346 . S
C1549 N1548 1.346 . S
C1549 C1550 1.396 . S
C1549 C1559 1.510 . S
C1550 C1546 1.401 . S
C1550 C1549 1.396 . S
C1551 C1546 1.499 . S
C1551 H1552 0.959 . S
C1551 H1553 0.960 . S
C1551 H1554 0.961 . S
H1552 C1551 0.959 . S
H1553 C1551 0.960 . S
H1554 C1551 0.961 . S
O1555 Co1530 1.967 . S
O1555 C1563 1.258 . S
O1556 Co1531 1.941 . S
O1556 C1563 1.266 . S
H1557 C1559 0.959 . S
H1558 C1559 0.961 . S
C1559 C1549 1.510 . S
C1559 H1557 0.959 . S
C1559 H1558 0.961 . S
C1559 H1560 0.960 . S
H1560 C1559 0.960 . S
H1561 N1541 0.862 . S
O1562 Co1530 1.920 . S
O1562 C1535 1.289 . S
C1563 O1555 1.258 . S
C1563 O1556 1.266 . S
Co1564 O1567 1.970 . S
Co1564 N1581 1.989 . S
Co1564 O1589 1.967 . S
Co1564 O1596 1.920 1_545 S
Co1565 O1568 1.966 . S
Co1565 N1574 2.022 . S
Co1565 N1582 1.993 . S
Co1565 O1590 1.941 . S
C1566 O1567 1.258 . S
C1566 O1568 1.263 . S
O1567 Co1564 1.970 . S
O1567 C1566 1.258 . S
O1568 Co1565 1.966 . S
O1568 C1566 1.263 . S
C1569 O1570 1.235 1_565 S
C1569 O1596 1.289 . S
O1570 C1569 1.235 1_545 S
C1571 C1573 1.400 . S
C1571 N1574 1.351 . S
C1571 C1576 1.501 . S
C1572 C1573 1.387 . S
C1572 N1575 1.341 . S
C1573 C1571 1.400 . S
C1573 C1572 1.387 . S
N1574 Co1565 2.022 . S
N1574 C1571 1.351 . S
N1574 N1575 1.365 . S
N1575 C1572 1.341 . S
N1575 N1574 1.365 . S
N1575 H1595 0.862 . S
C1576 C1571 1.501 . S
C1576 H1577 0.961 . S
C1576 H1578 0.961 . S
C1576 H1579 0.960 . S
H1577 C1576 0.961 . S
H1578 C1576 0.961 . S
H1579 C1576 0.960 . S
C1580 N1581 1.342 . S
C1580 C1584 1.401 . S
C1580 C1585 1.499 1_545 S
N1581 Co1564 1.989 . S
N1581 C1580 1.342 . S
N1581 N1582 1.388 . S
N1582 Co1565 1.993 . S
N1582 N1581 1.388 . S
N1582 C1583 1.346 . S
C1583 N1582 1.346 . S
C1583 C1584 1.396 . S
C1583 C1593 1.510 . S
C1584 C1580 1.401 . S
C1584 C1583 1.396 . S
C1585 C1580 1.499 1_565 S
C1585 H1586 0.959 . S
C1585 H1587 0.960 . S
C1585 H1588 0.961 . S
H1586 C1585 0.959 . S
H1587 C1585 0.960 . S
H1588 C1585 0.961 . S
O1589 Co1564 1.967 . S
O1589 C1597 1.258 . S
O1590 Co1565 1.941 . S
O1590 C1597 1.266 . S
H1591 C1593 0.959 . S
H1592 C1593 0.961 . S
C1593 C1583 1.510 . S
C1593 H1591 0.959 . S
C1593 H1592 0.961 . S
C1593 H1594 0.960 . S
H1594 C1593 0.960 . S
H1595 N1575 0.862 . S
O1596 Co1564 1.920 1_565 S
O1596 C1569 1.289 . S
C1597 O1589 1.258 . S
C1597 O1590 1.266 . S
Co1598 O1601 1.970 . S
Co1598 N1615 1.989 . S
Co1598 O1623 1.967 . S
Co1598 O1630 1.920 . S
Co1599 O1602 1.966 . S
Co1599 N1608 2.022 . S
Co1599 N1616 1.993 . S
Co1599 O1624 1.941 . S
C1600 O1601 1.258 . S
C1600 O1602 1.263 . S
O1601 Co1598 1.970 . S
O1601 C1600 1.258 . S
O1602 Co1599 1.966 . S
O1602 C1600 1.263 . S
C1603 O1604 1.235 . S
C1603 O1630 1.289 . S
O1604 C1603 1.235 . S
C1605 C1607 1.400 . S
C1605 N1608 1.351 . S
C1605 C1610 1.501 . S
C1606 C1607 1.387 . S
C1606 N1609 1.341 . S
C1607 C1605 1.400 . S
C1607 C1606 1.387 . S
N1608 Co1599 2.022 . S
N1608 C1605 1.351 . S
N1608 N1609 1.365 . S
N1609 C1606 1.341 . S
N1609 N1608 1.365 . S
N1609 H1629 0.862 . S
C1610 C1605 1.501 . S
C1610 H1611 0.961 . S
C1610 H1612 0.961 . S
C1610 H1613 0.960 . S
H1611 C1610 0.961 . S
H1612 C1610 0.961 . S
H1613 C1610 0.960 . S
C1614 N1615 1.342 . S
C1614 C1618 1.401 . S
C1614 C1619 1.499 . S
N1615 Co1598 1.989 . S
N1615 C1614 1.342 . S
N1615 N1616 1.388 . S
N1616 Co1599 1.993 . S
N1616 N1615 1.388 . S
N1616 C1617 1.346 . S
C1617 N1616 1.346 . S
C1617 C1618 1.396 . S
C1617 C1627 1.510 . S
C1618 C1614 1.401 . S
C1618 C1617 1.396 . S
C1619 C1614 1.499 . S
C1619 H1620 0.959 . S
C1619 H1621 0.960 . S
C1619 H1622 0.961 . S
H1620 C1619 0.959 . S
H1621 C1619 0.960 . S
H1622 C1619 0.961 . S
O1623 Co1598 1.967 . S
O1623 C1631 1.258 . S
O1624 Co1599 1.941 . S
O1624 C1631 1.266 . S
H1625 C1627 0.959 . S
H1626 C1627 0.961 . S
C1627 C1617 1.510 . S
C1627 H1625 0.959 . S
C1627 H1626 0.961 . S
C1627 H1628 0.960 . S
H1628 C1627 0.960 . S
H1629 N1609 0.862 . S
O1630 Co1598 1.920 . S
O1630 C1603 1.289 . S
C1631 O1623 1.258 . S
C1631 O1624 1.266 . S
C1632 C1633 1.369 . S
C1632 C1634 1.419 . S
C1632 H1636 0.930 . S
C1633 C1632 1.369 . S
C1633 C1642 1.429 . S
C1634 C1632 1.419 . S
C1634 C1635 1.363 . S
C1634 H1637 0.929 . S
C1635 C1634 1.363 . S
C1635 C1641 1.428 . S
H1636 C1632 0.930 . S
H1637 C1634 0.929 . S
S1638 N1639 1.613 . S
S1638 N1640 1.610 . S
N1639 S1638 1.613 . S
N1639 C1642 1.350 . S
N1640 S1638 1.610 . S
N1640 C1641 1.351 . S
C1641 C1635 1.428 . S
C1641 N1640 1.351 . S
C1641 C1642 1.434 . S
C1642 C1633 1.429 . S
C1642 N1639 1.350 . S
C1642 C1641 1.434 . S
C1643 C1644 1.369 . S
C1643 C1645 1.419 . S
C1643 H1647 0.930 1_556 S
C1644 C1643 1.369 . S
C1644 C1653 1.429 . S
C1645 C1643 1.419 . S
C1645 C1646 1.363 . S
C1645 H1648 0.929 1_556 S
C1646 C1645 1.363 . S
C1646 C1652 1.428 . S
H1647 C1643 0.930 1_554 S
H1648 C1645 0.929 1_554 S
S1649 N1650 1.613 . S
S1649 N1651 1.610 . S
N1650 S1649 1.613 . S
N1650 C1653 1.350 . S
N1651 S1649 1.610 . S
N1651 C1652 1.351 . S
C1652 C1646 1.428 . S
C1652 N1651 1.351 . S
C1652 C1653 1.434 . S
C1653 C1644 1.429 . S
C1653 N1650 1.350 . S
C1653 C1652 1.434 . S
C1654 C1655 1.369 . S
C1654 C1656 1.419 . S
C1654 H1658 0.930 . S
C1655 C1654 1.369 . S
C1655 C1664 1.429 . S
C1656 C1654 1.419 . S
C1656 C1657 1.363 . S
C1656 H1659 0.929 . S
C1657 C1656 1.363 . S
C1657 C1663 1.428 . S
H1658 C1654 0.930 . S
H1659 C1656 0.929 . S
S1660 N1661 1.613 . S
S1660 N1662 1.610 . S
N1661 S1660 1.613 . S
N1661 C1664 1.350 . S
N1662 S1660 1.610 . S
N1662 C1663 1.351 . S
C1663 C1657 1.428 . S
C1663 N1662 1.351 . S
C1663 C1664 1.434 . S
C1664 C1655 1.429 . S
C1664 N1661 1.350 . S
C1664 C1663 1.434 . S
C1665 C1666 1.369 . S
C1665 C1667 1.419 . S
C1665 H1669 0.930 . S
C1666 C1665 1.369 . S
C1666 C1675 1.429 . S
C1667 C1665 1.419 . S
C1667 C1668 1.363 . S
C1667 H1670 0.929 . S
C1668 C1667 1.363 . S
C1668 C1674 1.428 . S
H1669 C1665 0.930 . S
H1670 C1667 0.929 . S
S1671 N1672 1.610 1_554 S
S1671 N1673 1.610 1_554 S
N1672 S1671 1.610 1_556 S
N1672 C1675 1.366 . S
N1673 S1671 1.610 1_556 S
N1673 C1674 1.351 . S
C1674 C1668 1.428 . S
C1674 N1673 1.351 . S
C1674 C1675 1.434 . S
C1675 C1666 1.429 . S
C1675 N1672 1.366 . S
C1675 C1674 1.434 . S
C1676 C1677 1.369 . S
C1676 C1678 1.419 . S
C1676 H1680 0.930 . S
C1677 C1676 1.369 . S
C1677 C1686 1.429 . S
C1678 C1676 1.419 . S
C1678 C1679 1.363 . S
C1678 H1681 0.929 . S
C1679 C1678 1.363 . S
C1679 C1685 1.428 . S
H1680 C1676 0.930 . S
H1681 C1678 0.929 . S
S1682 N1683 1.613 . S
S1682 N1684 1.610 . S
N1683 S1682 1.613 . S
N1683 C1686 1.350 . S
N1684 S1682 1.610 . S
N1684 C1685 1.351 . S
C1685 C1679 1.428 . S
C1685 N1684 1.351 . S
C1685 C1686 1.434 . S
C1686 C1677 1.429 . S
C1686 N1683 1.350 . S
C1686 C1685 1.434 . S
C1687 C1688 1.369 . S
C1687 C1689 1.419 . S
C1687 H1691 0.930 . S
C1688 C1687 1.369 . S
C1688 C1697 1.429 . S
C1689 C1687 1.419 . S
C1689 C1690 1.363 . S
C1689 H1692 0.929 . S
C1690 C1689 1.363 . S
C1690 C1696 1.428 . S
H1691 C1687 0.930 . S
H1692 C1689 0.929 . S
S1693 N1694 1.613 . S
S1693 N1695 1.610 . S
N1694 S1693 1.613 . S
N1694 C1697 1.350 . S
N1695 S1693 1.610 . S
N1695 C1696 1.351 . S
C1696 C1690 1.428 . S
C1696 N1695 1.351 . S
C1696 C1697 1.434 . S
C1697 C1688 1.429 . S
C1697 N1694 1.350 . S
C1697 C1696 1.434 . S
C1698 C1699 1.369 . S
C1698 C1700 1.419 . S
C1698 H1702 0.930 . S
C1699 C1698 1.369 . S
C1699 C1708 1.429 . S
C1700 C1698 1.419 . S
C1700 C1701 1.363 . S
C1700 H1703 0.929 . S
C1701 C1700 1.363 . S
C1701 C1707 1.428 . S
H1702 C1698 0.930 . S
H1703 C1700 0.929 . S
S1704 N1705 1.613 . S
S1704 N1706 1.610 . S
N1705 S1704 1.613 . S
N1705 C1708 1.350 . S
N1706 S1704 1.610 . S
N1706 C1707 1.351 . S
C1707 C1701 1.428 . S
C1707 N1706 1.351 . S
C1707 C1708 1.434 . S
C1708 C1699 1.429 . S
C1708 N1705 1.350 . S
C1708 C1707 1.434 . S
C1709 C1710 1.369 . S
C1709 C1711 1.419 . S
C1709 H1713 0.930 . S
C1710 C1709 1.369 . S
C1710 C1719 1.429 . S
C1711 C1709 1.419 . S
C1711 C1712 1.363 . S
C1711 H1714 0.929 . S
C1712 C1711 1.363 . S
C1712 C1718 1.428 . S
H1713 C1709 0.930 . S
H1714 C1711 0.929 . S
S1715 N1716 1.613 . S
S1715 N1717 1.610 . S
N1716 S1715 1.613 . S
N1716 C1719 1.350 . S
N1717 S1715 1.610 . S
N1717 C1718 1.351 . S
C1718 C1712 1.428 . S
C1718 N1717 1.351 . S
C1718 C1719 1.434 . S
C1719 C1710 1.429 . S
C1719 N1716 1.350 . S
C1719 C1718 1.434 . S
C1720 C1721 1.369 . S
C1720 C1722 1.419 . S
C1720 H1724 0.930 . S
C1721 C1720 1.369 . S
C1721 C1730 1.429 . S
C1722 C1720 1.419 . S
C1722 C1723 1.363 . S
C1722 H1725 0.929 . S
C1723 C1722 1.363 . S
C1723 C1729 1.428 . S
H1724 C1720 0.930 . S
H1725 C1722 0.929 . S
S1726 N1727 1.613 . S
S1726 N1728 1.610 . S
N1727 S1726 1.613 . S
N1727 C1730 1.350 . S
N1728 S1726 1.610 . S
N1728 C1729 1.351 . S
C1729 C1723 1.428 . S
C1729 N1728 1.351 . S
C1729 C1730 1.434 . S
C1730 C1721 1.429 . S
C1730 N1727 1.350 . S
C1730 C1729 1.434 . S
C1731 C1732 1.369 . S
C1731 C1733 1.419 . S
C1731 H1735 0.930 . S
C1732 C1731 1.369 . S
C1732 C1741 1.429 . S
C1733 C1731 1.419 . S
C1733 C1734 1.363 . S
C1733 H1736 0.929 . S
C1734 C1733 1.363 . S
C1734 C1740 1.428 . S
H1735 C1731 0.930 . S
H1736 C1733 0.929 . S
S1737 N1738 1.613 . S
S1737 N1739 1.610 . S
N1738 S1737 1.613 . S
N1738 C1741 1.350 . S
N1739 S1737 1.610 . S
N1739 C1740 1.351 . S
C1740 C1734 1.428 . S
C1740 N1739 1.351 . S
C1740 C1741 1.434 . S
C1741 C1732 1.429 . S
C1741 N1738 1.350 . S
C1741 C1740 1.434 . S
C1742 C1743 1.369 . S
C1742 C1744 1.419 . S
C1742 H1746 0.930 . S
C1743 C1742 1.369 . S
C1743 C1752 1.429 . S
C1744 C1742 1.419 . S
C1744 C1745 1.363 . S
C1744 H1747 0.929 . S
C1745 C1744 1.363 . S
C1745 C1751 1.428 . S
H1746 C1742 0.930 . S
H1747 C1744 0.929 . S
S1748 N1749 1.613 . S
S1748 N1750 1.610 . S
N1749 S1748 1.613 . S
N1749 C1752 1.350 . S
N1750 S1748 1.610 . S
N1750 C1751 1.351 . S
C1751 C1745 1.428 . S
C1751 N1750 1.351 . S
C1751 C1752 1.434 . S
C1752 C1743 1.429 . S
C1752 N1749 1.350 . S
C1752 C1751 1.434 . S
C1753 C1754 1.369 . S
C1753 C1755 1.419 . S
C1753 H1757 0.930 . S
C1754 C1753 1.369 . S
C1754 C1763 1.429 . S
C1755 C1753 1.419 . S
C1755 C1756 1.363 . S
C1755 H1758 0.929 . S
C1756 C1755 1.363 . S
C1756 C1762 1.428 . S
H1757 C1753 0.930 . S
H1758 C1755 0.929 . S
S1759 N1760 1.613 . S
S1759 N1761 1.610 . S
N1760 S1759 1.613 . S
N1760 C1763 1.350 . S
N1761 S1759 1.610 . S
N1761 C1762 1.351 . S
C1762 C1756 1.428 . S
C1762 N1761 1.351 . S
C1762 C1763 1.434 . S
C1763 C1754 1.429 . S
C1763 N1760 1.350 . S
C1763 C1762 1.434 . S
C1764 C1765 1.369 . S
C1764 C1766 1.419 . S
C1764 H1768 0.930 . S
C1765 C1764 1.369 . S
C1765 C1774 1.429 . S
C1766 C1764 1.419 . S
C1766 C1767 1.363 . S
C1766 H1769 0.929 . S
C1767 C1766 1.363 . S
C1767 C1773 1.428 . S
H1768 C1764 0.930 . S
H1769 C1766 0.929 . S
S1770 N1771 1.613 . S
S1770 N1772 1.610 . S
N1771 S1770 1.613 . S
N1771 C1774 1.350 . S
N1772 S1770 1.610 . S
N1772 C1773 1.351 . S
C1773 C1767 1.428 . S
C1773 N1772 1.351 . S
C1773 C1774 1.434 . S
C1774 C1765 1.429 . S
C1774 N1771 1.350 . S
C1774 C1773 1.434 . S
C1775 C1776 1.369 . S
C1775 C1777 1.419 . S
C1775 H1779 0.930 . S
C1776 C1775 1.369 . S
C1776 C1785 1.429 . S
C1777 C1775 1.419 . S
C1777 C1778 1.363 . S
C1777 H1780 0.929 . S
C1778 C1777 1.363 . S
C1778 C1784 1.428 . S
H1779 C1775 0.930 . S
H1780 C1777 0.929 . S
S1781 N1782 1.613 . S
S1781 N1783 1.610 . S
N1782 S1781 1.613 . S
N1782 C1785 1.350 . S
N1783 S1781 1.610 . S
N1783 C1784 1.351 . S
C1784 C1778 1.428 . S
C1784 N1783 1.351 . S
C1784 C1785 1.434 . S
C1785 C1776 1.429 . S
C1785 N1782 1.350 . S
C1785 C1784 1.434 . S
C1786 C1787 1.369 . S
C1786 C1788 1.419 . S
C1786 H1790 0.930 . S
C1787 C1786 1.369 . S
C1787 C1796 1.429 . S
C1788 C1786 1.419 . S
C1788 C1789 1.363 . S
C1788 H1791 0.929 . S
C1789 C1788 1.363 . S
C1789 C1795 1.428 . S
H1790 C1786 0.930 . S
H1791 C1788 0.929 . S
S1792 N1793 1.613 . S
S1792 N1794 1.610 . S
N1793 S1792 1.613 . S
N1793 C1796 1.350 . S
N1794 S1792 1.610 . S
N1794 C1795 1.351 . S
C1795 C1789 1.428 . S
C1795 N1794 1.351 . S
C1795 C1796 1.434 . S
C1796 C1787 1.429 . S
C1796 N1793 1.350 . S
C1796 C1795 1.434 . S
C1797 C1798 1.369 . S
C1797 C1799 1.419 . S
C1797 H1801 0.930 . S
C1798 C1797 1.369 . S
C1798 C1807 1.429 . S
C1799 C1797 1.419 . S
C1799 C1800 1.363 . S
C1799 H1802 0.929 . S
C1800 C1799 1.363 . S
C1800 C1806 1.428 . S
H1801 C1797 0.930 . S
H1802 C1799 0.929 . S
S1803 N1804 1.613 . S
S1803 N1805 1.610 . S
N1804 S1803 1.613 . S
N1804 C1807 1.350 1_565 S
N1805 S1803 1.610 . S
N1805 C1806 1.351 1_565 S
C1806 C1800 1.428 . S
C1806 N1805 1.351 1_545 S
C1806 C1807 1.434 . S
C1807 C1798 1.429 . S
C1807 N1804 1.350 1_545 S
C1807 C1806 1.434 . S
C1808 C1809 1.369 . S
C1808 C1810 1.419 . S
C1808 H1812 0.930 . S
C1809 C1808 1.369 . S
C1809 C1818 1.429 . S
C1810 C1808 1.419 . S
C1810 C1811 1.363 . S
C1810 H1813 0.929 . S
C1811 C1810 1.363 . S
C1811 C1817 1.428 . S
H1812 C1808 0.930 . S
H1813 C1810 0.929 . S
S1814 N1815 1.613 . S
S1814 N1816 1.610 . S
N1815 S1814 1.613 . S
N1815 C1818 1.350 . S
N1816 S1814 1.610 . S
N1816 C1817 1.351 . S
C1817 C1811 1.428 . S
C1817 N1816 1.351 . S
C1817 C1818 1.434 . S
C1818 C1809 1.429 . S
C1818 N1815 1.350 . S
C1818 C1817 1.434 . S
C1819 C1820 1.369 . S
C1819 C1821 1.419 . S
C1819 H1823 0.930 . S
C1820 C1819 1.369 . S
C1820 C1829 1.429 . S
C1821 C1819 1.419 . S
C1821 C1822 1.363 . S
C1821 H1824 0.929 . S
C1822 C1821 1.363 . S
C1822 C1828 1.428 . S
H1823 C1819 0.930 . S
H1824 C1821 0.929 . S
S1825 N1826 1.613 . S
S1825 N1827 1.610 . S
N1826 S1825 1.613 . S
N1826 C1829 1.350 . S
N1827 S1825 1.610 . S
N1827 C1828 1.351 . S
C1828 C1822 1.428 . S
C1828 N1827 1.351 . S
C1828 C1829 1.434 . S
C1829 C1820 1.429 . S
C1829 N1826 1.350 . S
C1829 C1828 1.434 . S
C1830 C1831 1.369 . S
C1830 C1832 1.419 . S
C1830 H1834 0.930 . S
C1831 C1830 1.369 . S
C1831 C1840 1.429 . S
C1832 C1830 1.419 . S
C1832 C1833 1.363 . S
C1832 H1835 0.929 . S
C1833 C1832 1.363 . S
C1833 C1839 1.428 . S
H1834 C1830 0.930 . S
H1835 C1832 0.929 . S
S1836 N1837 1.613 . S
S1836 N1838 1.610 . S
N1837 S1836 1.613 . S
N1837 C1840 1.350 . S
N1838 S1836 1.610 . S
N1838 C1839 1.351 . S
C1839 C1833 1.428 . S
C1839 N1838 1.351 . S
C1839 C1840 1.434 . S
C1840 C1831 1.429 . S
C1840 N1837 1.350 . S
C1840 C1839 1.434 . S
C1841 C1842 1.369 . S
C1841 C1843 1.419 . S
C1841 H1845 0.930 . S
C1842 C1841 1.369 . S
C1842 C1851 1.429 . S
C1843 C1841 1.419 . S
C1843 C1844 1.363 . S
C1843 H1846 0.929 . S
C1844 C1843 1.363 . S
C1844 C1850 1.428 . S
H1845 C1841 0.930 . S
H1846 C1843 0.929 . S
S1847 N1848 1.613 . S
S1847 N1849 1.610 . S
N1848 S1847 1.613 . S
N1848 C1851 1.350 . S
N1849 S1847 1.610 . S
N1849 C1850 1.351 . S
C1850 C1844 1.428 . S
C1850 N1849 1.351 . S
C1850 C1851 1.434 . S
C1851 C1842 1.429 . S
C1851 N1848 1.350 . S
C1851 C1850 1.434 . S
C1852 C1853 1.369 . S
C1852 C1854 1.419 . S
C1852 H1856 0.930 . S
C1853 C1852 1.369 . S
C1853 C1862 1.429 . S
C1854 C1852 1.419 . S
C1854 C1855 1.363 . S
C1854 H1857 0.929 . S
C1855 C1854 1.363 . S
C1855 C1861 1.428 . S
H1856 C1852 0.930 . S
H1857 C1854 0.929 . S
S1858 N1859 1.613 . S
S1858 N1860 1.610 . S
N1859 S1858 1.613 . S
N1859 C1862 1.350 . S
N1860 S1858 1.610 . S
N1860 C1861 1.351 . S
C1861 C1855 1.428 . S
C1861 N1860 1.351 . S
C1861 C1862 1.434 . S
C1862 C1853 1.429 . S
C1862 N1859 1.350 . S
C1862 C1861 1.434 . S
C1863 C1864 1.369 . S
C1863 C1865 1.419 . S
C1863 H1867 0.930 . S
C1864 C1863 1.369 . S
C1864 C1873 1.429 . S
C1865 C1863 1.419 . S
C1865 C1866 1.363 . S
C1865 H1868 0.929 . S
C1866 C1865 1.363 . S
C1866 C1872 1.428 . S
H1867 C1863 0.930 . S
H1868 C1865 0.929 . S
S1869 N1870 1.613 . S
S1869 N1871 1.610 . S
N1870 S1869 1.613 . S
N1870 C1873 1.350 . S
N1871 S1869 1.610 . S
N1871 C1872 1.351 . S
C1872 C1866 1.428 . S
C1872 N1871 1.351 . S
C1872 C1873 1.434 . S
C1873 C1864 1.429 . S
C1873 N1870 1.350 . S
C1873 C1872 1.434 . S
C1874 C1875 1.369 . S
C1874 C1876 1.419 . S
C1874 H1878 0.930 . S
C1875 C1874 1.369 . S
C1875 C1884 1.429 . S
C1876 C1874 1.419 . S
C1876 C1877 1.363 . S
C1876 H1879 0.929 . S
C1877 C1876 1.363 . S
C1877 C1883 1.428 . S
H1878 C1874 0.930 . S
H1879 C1876 0.929 . S
S1880 N1881 1.613 1_455 S
S1880 N1882 1.610 1_455 S
N1881 S1880 1.613 1_655 S
N1881 C1884 1.350 . S
N1882 S1880 1.610 1_655 S
N1882 C1883 1.351 . S
C1883 C1877 1.428 . S
C1883 N1882 1.351 . S
C1883 C1884 1.434 . S
C1884 C1875 1.429 . S
C1884 N1881 1.350 . S
C1884 C1883 1.434 . S
C1885 C1886 1.369 . S
C1885 C1887 1.419 . S
C1885 H1889 0.930 . S
C1886 C1885 1.369 . S
C1886 C1895 1.429 . S
C1887 C1885 1.419 . S
C1887 C1888 1.363 . S
C1887 H1890 0.929 . S
C1888 C1887 1.363 . S
C1888 C1894 1.428 . S
H1889 C1885 0.930 . S
H1890 C1887 0.929 . S
S1891 N1892 1.613 . S
S1891 N1893 1.610 . S
N1892 S1891 1.613 . S
N1892 C1895 1.350 . S
N1893 S1891 1.610 . S
N1893 C1894 1.351 . S
C1894 C1888 1.428 . S
C1894 N1893 1.351 . S
C1894 C1895 1.434 . S
C1895 C1886 1.429 . S
C1895 N1892 1.350 . S
C1895 C1894 1.434 . S
C1896 C1897 1.369 . S
C1896 C1898 1.419 . S
C1896 H1900 0.930 . S
C1897 C1896 1.369 . S
C1897 C1906 1.429 . S
C1898 C1896 1.419 . S
C1898 C1899 1.363 . S
C1898 H1901 0.929 . S
C1899 C1898 1.363 . S
C1899 C1905 1.428 . S
H1900 C1896 0.930 . S
H1901 C1898 0.929 . S
S1902 N1903 1.613 . S
S1902 N1904 1.610 . S
N1903 S1902 1.613 . S
N1903 C1906 1.350 . S
N1904 S1902 1.610 . S
N1904 C1905 1.351 . S
C1905 C1899 1.428 . S
C1905 N1904 1.351 . S
C1905 C1906 1.434 . S
C1906 C1897 1.429 . S
C1906 N1903 1.350 . S
C1906 C1905 1.434 . S
C1907 C1908 1.369 . S
C1907 C1909 1.419 . S
C1907 H1911 0.930 . S
C1908 C1907 1.369 . S
C1908 C1917 1.429 . S
C1909 C1907 1.419 . S
C1909 C1910 1.363 . S
C1909 H1912 0.929 . S
C1910 C1909 1.363 . S
C1910 C1916 1.428 . S
H1911 C1907 0.930 . S
H1912 C1909 0.929 . S
S1913 N1914 1.613 . S
S1913 N1915 1.610 . S
N1914 S1913 1.613 . S
N1914 C1917 1.350 . S
N1915 S1913 1.610 . S
N1915 C1916 1.351 . S
C1916 C1910 1.428 . S
C1916 N1915 1.351 . S
C1916 C1917 1.434 . S
C1917 C1908 1.429 . S
C1917 N1914 1.350 . S
C1917 C1916 1.434 . S
C1918 C1919 1.369 . S
C1918 C1920 1.419 . S
C1918 H1922 0.930 . S
C1919 C1918 1.369 . S
C1919 C1928 1.429 . S
C1920 C1918 1.419 . S
C1920 C1921 1.363 . S
C1920 H1923 0.929 . S
C1921 C1920 1.363 . S
C1921 C1927 1.428 . S
H1922 C1918 0.930 . S
H1923 C1920 0.929 . S
S1924 N1925 1.613 . S
S1924 N1926 1.610 . S
N1925 S1924 1.613 . S
N1925 C1928 1.350 . S
N1926 S1924 1.610 . S
N1926 C1927 1.351 . S
C1927 C1921 1.428 . S
C1927 N1926 1.351 . S
C1927 C1928 1.434 . S
C1928 C1919 1.429 . S
C1928 N1925 1.350 . S
C1928 C1927 1.434 . S
C1929 C1930 1.369 . S
C1929 C1931 1.419 . S
C1929 H1933 0.930 . S
C1930 C1929 1.369 . S
C1930 C1939 1.429 . S
C1931 C1929 1.419 . S
C1931 C1932 1.363 . S
C1931 H1934 0.929 . S
C1932 C1931 1.363 . S
C1932 C1938 1.428 . S
H1933 C1929 0.930 . S
H1934 C1931 0.929 . S
S1935 N1936 1.613 . S
S1935 N1937 1.610 . S
N1936 S1935 1.613 . S
N1936 C1939 1.350 . S
N1937 S1935 1.610 . S
N1937 C1938 1.351 . S
C1938 C1932 1.428 . S
C1938 N1937 1.351 . S
C1938 C1939 1.434 . S
C1939 C1930 1.429 . S
C1939 N1936 1.350 . S
C1939 C1938 1.434 . S
C1940 C1941 1.369 . S
C1940 C1942 1.419 . S
C1940 H1944 0.930 . S
C1941 C1940 1.369 . S
C1941 C1950 1.429 . S
C1942 C1940 1.419 . S
C1942 C1943 1.363 . S
C1942 H1945 0.929 . S
C1943 C1942 1.363 . S
C1943 C1949 1.428 . S
H1944 C1940 0.930 . S
H1945 C1942 0.929 . S
S1946 N1947 1.613 . S
S1946 N1948 1.610 . S
N1947 S1946 1.613 . S
N1947 C1950 1.350 . S
N1948 S1946 1.610 . S
N1948 C1949 1.351 . S
C1949 C1943 1.428 . S
C1949 N1948 1.351 . S
C1949 C1950 1.434 . S
C1950 C1941 1.429 . S
C1950 N1947 1.350 . S
C1950 C1949 1.434 . S
C1951 C1952 1.369 . S
C1951 C1953 1.419 . S
C1951 H1955 0.930 . S
C1952 C1951 1.369 . S
C1952 C1961 1.429 . S
C1953 C1951 1.419 . S
C1953 C1954 1.363 . S
C1953 H1956 0.929 . S
C1954 C1953 1.363 . S
C1954 C1960 1.428 . S
H1955 C1951 0.930 . S
H1956 C1953 0.929 . S
S1957 N1958 1.613 . S
S1957 N1959 1.610 . S
N1958 S1957 1.613 . S
N1958 C1961 1.350 . S
N1959 S1957 1.610 . S
N1959 C1960 1.351 . S
C1960 C1954 1.428 . S
C1960 N1959 1.351 . S
C1960 C1961 1.434 . S
C1961 C1952 1.429 . S
C1961 N1958 1.350 . S
C1961 C1960 1.434 . S
C1962 C1963 1.369 . S
C1962 C1964 1.419 . S
C1962 H1966 0.930 . S
C1963 C1962 1.369 . S
C1963 C1972 1.429 . S
C1964 C1962 1.419 . S
C1964 C1965 1.363 . S
C1964 H1967 0.929 . S
C1965 C1964 1.363 . S
C1965 C1971 1.428 . S
H1966 C1962 0.930 . S
H1967 C1964 0.929 . S
S1968 N1969 1.613 . S
S1968 N1970 1.610 . S
N1969 S1968 1.613 . S
N1969 C1972 1.350 . S
N1970 S1968 1.610 . S
N1970 C1971 1.351 . S
C1971 C1965 1.428 . S
C1971 N1970 1.351 . S
C1971 C1972 1.434 . S
C1972 C1963 1.429 . S
C1972 N1969 1.350 . S
C1972 C1971 1.434 . S
C1973 C1974 1.369 . S
C1973 C1975 1.419 . S
C1973 H1977 0.930 . S
C1974 C1973 1.369 . S
C1974 C1983 1.429 . S
C1975 C1973 1.419 . S
C1975 C1976 1.363 . S
C1975 H1978 0.929 . S
C1976 C1975 1.363 . S
C1976 C1982 1.428 . S
H1977 C1973 0.930 . S
H1978 C1975 0.929 . S
S1979 N1980 1.613 . S
S1979 N1981 1.610 . S
N1980 S1979 1.613 . S
N1980 C1983 1.350 . S
N1981 S1979 1.610 . S
N1981 C1982 1.351 . S
C1982 C1976 1.428 . S
C1982 N1981 1.351 . S
C1982 C1983 1.434 . S
C1983 C1974 1.429 . S
C1983 N1980 1.350 . S
C1983 C1982 1.434 . S
C1984 C1985 1.369 . S
C1984 C1986 1.419 . S
C1984 H1988 0.930 . S
C1985 C1984 1.369 . S
C1985 C1994 1.429 . S
C1986 C1984 1.419 . S
C1986 C1987 1.363 . S
C1986 H1989 0.929 . S
C1987 C1986 1.363 . S
C1987 C1993 1.428 . S
H1988 C1984 0.930 . S
H1989 C1986 0.929 . S
S1990 N1991 1.613 . S
S1990 N1992 1.610 . S
N1991 S1990 1.613 . S
N1991 C1994 1.350 . S
N1992 S1990 1.610 . S
N1992 C1993 1.351 . S
C1993 C1987 1.428 . S
C1993 N1992 1.351 . S
C1993 C1994 1.434 . S
C1994 C1985 1.429 . S
C1994 N1991 1.350 . S
C1994 C1993 1.434 . S
C1995 C1996 1.369 . S
C1995 C1997 1.419 . S
C1995 H1999 0.930 . S
C1996 C1995 1.369 . S
C1996 C2005 1.429 . S
C1997 C1995 1.419 . S
C1997 C1998 1.363 . S
C1997 H2000 0.929 . S
C1998 C1997 1.363 . S
C1998 C2004 1.428 . S
H1999 C1995 0.930 . S
H2000 C1997 0.929 . S
S2001 N2002 1.613 . S
S2001 N2003 1.610 . S
N2002 S2001 1.613 . S
N2002 C2005 1.350 . S
N2003 S2001 1.610 . S
N2003 C2004 1.351 . S
C2004 C1998 1.428 . S
C2004 N2003 1.351 . S
C2004 C2005 1.434 . S
C2005 C1996 1.429 . S
C2005 N2002 1.350 . S
C2005 C2004 1.434 . S
C2006 C2007 1.369 . S
C2006 C2008 1.419 . S
C2006 H2010 0.930 . S
C2007 C2006 1.369 . S
C2007 C2016 1.429 . S
C2008 C2006 1.419 . S
C2008 C2009 1.363 . S
C2008 H2011 0.929 . S
C2009 C2008 1.363 . S
C2009 C2015 1.428 . S
H2010 C2006 0.930 . S
H2011 C2008 0.929 . S
S2012 N2013 1.613 . S
S2012 N2014 1.610 . S
N2013 S2012 1.613 . S
N2013 C2016 1.350 . S
N2014 S2012 1.610 . S
N2014 C2015 1.351 . S
C2015 C2009 1.428 . S
C2015 N2014 1.351 . S
C2015 C2016 1.434 . S
C2016 C2007 1.429 . S
C2016 N2013 1.350 . S
C2016 C2015 1.434 . S
C2017 C2018 1.369 . S
C2017 C2019 1.419 . S
C2017 H2021 0.930 . S
C2018 C2017 1.369 . S
C2018 C2027 1.429 . S
C2019 C2017 1.419 . S
C2019 C2020 1.363 . S
C2019 H2022 0.929 . S
C2020 C2019 1.363 . S
C2020 C2026 1.428 . S
H2021 C2017 0.930 . S
H2022 C2019 0.929 . S
S2023 N2024 1.613 . S
S2023 N2025 1.610 . S
N2024 S2023 1.613 . S
N2024 C2027 1.350 . S
N2025 S2023 1.610 . S
N2025 C2026 1.351 . S
C2026 C2020 1.428 . S
C2026 N2025 1.351 . S
C2026 C2027 1.434 . S
C2027 C2018 1.429 . S
C2027 N2024 1.350 . S
C2027 C2026 1.434 . S
C2028 C2029 1.369 . S
C2028 C2030 1.419 . S
C2028 H2032 0.930 . S
C2029 C2028 1.369 . S
C2029 C2038 1.429 . S
C2030 C2028 1.419 . S
C2030 C2031 1.363 . S
C2030 H2033 0.929 . S
C2031 C2030 1.363 . S
C2031 C2037 1.428 . S
H2032 C2028 0.930 . S
H2033 C2030 0.929 . S
S2034 N2035 1.613 . S
S2034 N2036 1.610 . S
N2035 S2034 1.613 . S
N2035 C2038 1.350 . S
N2036 S2034 1.610 . S
N2036 C2037 1.351 . S
C2037 C2031 1.428 . S
C2037 N2036 1.351 . S
C2037 C2038 1.434 . S
C2038 C2029 1.429 . S
C2038 N2035 1.350 . S
C2038 C2037 1.434 . S
C2039 C2040 1.369 . S
C2039 C2041 1.419 . S
C2039 H2043 0.930 . S
C2040 C2039 1.369 . S
C2040 C2049 1.429 1_565 S
C2041 C2039 1.419 . S
C2041 C2042 1.363 . S
C2041 H2044 0.929 . S
C2042 C2041 1.363 . S
C2042 C2048 1.428 . S
H2043 C2039 0.930 . S
H2044 C2041 0.929 . S
S2045 N2046 1.613 . S
S2045 N2047 1.610 . S
N2046 S2045 1.613 . S
N2046 C2049 1.350 . S
N2047 S2045 1.610 . S
N2047 C2048 1.351 1_545 S
C2048 C2042 1.428 . S
C2048 N2047 1.351 1_565 S
C2048 C2049 1.434 1_565 S
C2049 C2040 1.429 1_545 S
C2049 N2046 1.350 . S
C2049 C2048 1.434 1_545 S
C2050 C2051 1.369 . S
C2050 C2052 1.419 . S
C2050 H2054 0.930 . S
C2051 C2050 1.369 . S
C2051 C2060 1.429 . S
C2052 C2050 1.419 . S
C2052 C2053 1.363 . S
C2052 H2055 0.929 . S
C2053 C2052 1.363 . S
C2053 C2059 1.428 . S
H2054 C2050 0.930 . S
H2055 C2052 0.929 . S
S2056 N2057 1.613 . S
S2056 N2058 1.610 . S
N2057 S2056 1.613 . S
N2057 C2060 1.350 . S
N2058 S2056 1.610 . S
N2058 C2059 1.351 . S
C2059 C2053 1.428 . S
C2059 N2058 1.351 . S
C2059 C2060 1.434 . S
C2060 C2051 1.429 . S
C2060 N2057 1.350 . S
C2060 C2059 1.434 . S
C2061 C2062 1.369 . S
C2061 C2063 1.419 . S
C2061 H2065 0.930 . S
C2062 C2061 1.369 . S
C2062 C2071 1.429 . S
C2063 C2061 1.419 . S
C2063 C2064 1.363 . S
C2063 H2066 0.929 . S
C2064 C2063 1.363 . S
C2064 C2070 1.428 . S
H2065 C2061 0.930 . S
H2066 C2063 0.929 . S
S2067 N2068 1.613 . S
S2067 N2069 1.610 . S
N2068 S2067 1.613 . S
N2068 C2071 1.350 . S
N2069 S2067 1.610 . S
N2069 C2070 1.351 . S
C2070 C2064 1.428 . S
C2070 N2069 1.351 . S
C2070 C2071 1.434 . S
C2071 C2062 1.429 . S
C2071 N2068 1.350 . S
C2071 C2070 1.434 . S
C2072 C2073 1.369 . S
C2072 C2074 1.419 . S
C2072 H2076 0.930 . S
C2073 C2072 1.369 . S
C2073 C2082 1.429 . S
C2074 C2072 1.419 . S
C2074 C2075 1.363 . S
C2074 H2077 0.929 . S
C2075 C2074 1.363 . S
C2075 C2081 1.428 . S
H2076 C2072 0.930 . S
H2077 C2074 0.929 . S
S2078 N2079 1.613 . S
S2078 N2080 1.610 . S
N2079 S2078 1.613 . S
N2079 C2082 1.350 . S
N2080 S2078 1.610 . S
N2080 C2081 1.351 . S
C2081 C2075 1.428 . S
C2081 N2080 1.351 . S
C2081 C2082 1.434 . S
C2082 C2073 1.429 . S
C2082 N2079 1.350 . S
C2082 C2081 1.434 . S
C2083 C2084 1.369 . S
C2083 C2085 1.419 . S
C2083 H2087 0.930 . S
C2084 C2083 1.369 . S
C2084 C2093 1.429 . S
C2085 C2083 1.419 . S
C2085 C2086 1.363 . S
C2085 H2088 0.929 . S
C2086 C2085 1.363 . S
C2086 C2092 1.428 . S
H2087 C2083 0.930 . S
H2088 C2085 0.929 . S
S2089 N2090 1.613 . S
S2089 N2091 1.610 . S
N2090 S2089 1.613 . S
N2090 C2093 1.350 . S
N2091 S2089 1.610 . S
N2091 C2092 1.351 . S
C2092 C2086 1.428 . S
C2092 N2091 1.351 . S
C2092 C2093 1.434 . S
C2093 C2084 1.429 . S
C2093 N2090 1.350 . S
C2093 C2092 1.434 . S
C2094 C2095 1.369 . S
C2094 C2096 1.419 . S
C2094 H2098 0.930 . S
C2095 C2094 1.369 . S
C2095 C2104 1.429 . S
C2096 C2094 1.419 . S
C2096 C2097 1.363 . S
C2096 H2099 0.929 . S
C2097 C2096 1.363 . S
C2097 C2103 1.428 . S
H2098 C2094 0.930 . S
H2099 C2096 0.929 . S
S2100 N2101 1.613 . S
S2100 N2102 1.610 . S
N2101 S2100 1.613 . S
N2101 C2104 1.350 . S
N2102 S2100 1.610 . S
N2102 C2103 1.351 . S
C2103 C2097 1.428 . S
C2103 N2102 1.351 . S
C2103 C2104 1.434 . S
C2104 C2095 1.429 . S
C2104 N2101 1.350 . S
C2104 C2103 1.434 . S
C2105 C2106 1.369 . S
C2105 C2107 1.419 . S
C2105 H2109 0.930 . S
C2106 C2105 1.369 . S
C2106 C2115 1.429 . S
C2107 C2105 1.419 . S
C2107 C2108 1.363 . S
C2107 H2110 0.929 . S
C2108 C2107 1.363 . S
C2108 C2114 1.428 . S
H2109 C2105 0.930 . S
H2110 C2107 0.929 . S
S2111 N2112 1.613 . S
S2111 N2113 1.610 . S
N2112 S2111 1.613 . S
N2112 C2115 1.350 . S
N2113 S2111 1.610 . S
N2113 C2114 1.351 . S
C2114 C2108 1.428 . S
C2114 N2113 1.351 . S
C2114 C2115 1.434 . S
C2115 C2106 1.429 . S
C2115 N2112 1.350 . S
C2115 C2114 1.434 . S
C2116 C2117 1.369 . S
C2116 C2118 1.419 . S
C2116 H2120 0.930 . S
C2117 C2116 1.369 . S
C2117 C2126 1.429 . S
C2118 C2116 1.419 . S
C2118 C2119 1.363 . S
C2118 H2121 0.929 . S
C2119 C2118 1.363 . S
C2119 C2125 1.428 . S
H2120 C2116 0.930 . S
H2121 C2118 0.929 . S
S2122 N2123 1.613 1_655 S
S2122 N2124 1.610 1_655 S
N2123 S2122 1.613 1_455 S
N2123 C2126 1.350 . S
N2124 S2122 1.610 1_455 S
N2124 C2125 1.351 . S
C2125 C2119 1.428 . S
C2125 N2124 1.351 . S
C2125 C2126 1.434 . S
C2126 C2117 1.429 . S
C2126 N2123 1.350 . S
C2126 C2125 1.434 . S
C2127 C2128 1.369 . S
C2127 C2129 1.419 . S
C2127 H2131 0.930 . S
C2128 C2127 1.369 . S
C2128 C2137 1.429 . S
C2129 C2127 1.419 . S
C2129 C2130 1.363 . S
C2129 H2132 0.929 . S
C2130 C2129 1.363 . S
C2130 C2136 1.428 . S
H2131 C2127 0.930 . S
H2132 C2129 0.929 . S
S2133 N2134 1.613 . S
S2133 N2135 1.610 . S
N2134 S2133 1.613 . S
N2134 C2137 1.350 . S
N2135 S2133 1.610 . S
N2135 C2136 1.351 . S
C2136 C2130 1.428 . S
C2136 N2135 1.351 . S
C2136 C2137 1.434 . S
C2137 C2128 1.429 . S
C2137 N2134 1.350 . S
C2137 C2136 1.434 . S
C2138 C2139 1.369 . S
C2138 C2140 1.419 . S
C2138 H2142 0.930 . S
C2139 C2138 1.369 . S
C2139 C2148 1.429 . S
C2140 C2138 1.419 . S
C2140 C2141 1.363 . S
C2140 H2143 0.929 . S
C2141 C2140 1.363 . S
C2141 C2147 1.428 . S
H2142 C2138 0.930 . S
H2143 C2140 0.929 . S
S2144 N2145 1.613 . S
S2144 N2146 1.610 . S
N2145 S2144 1.613 . S
N2145 C2148 1.350 . S
N2146 S2144 1.610 . S
N2146 C2147 1.351 . S
C2147 C2141 1.428 . S
C2147 N2146 1.351 . S
C2147 C2148 1.434 . S
C2148 C2139 1.429 . S
C2148 N2145 1.350 . S
C2148 C2147 1.434 . S
C2149 C2150 1.369 . S
C2149 C2151 1.419 . S
C2149 H2153 0.930 . S
C2150 C2149 1.369 . S
C2150 C2159 1.429 . S
C2151 C2149 1.419 . S
C2151 C2152 1.363 . S
C2151 H2154 0.929 . S
C2152 C2151 1.363 . S
C2152 C2158 1.428 . S
H2153 C2149 0.930 . S
H2154 C2151 0.929 . S
S2155 N2156 1.613 . S
S2155 N2157 1.610 . S
N2156 S2155 1.613 . S
N2156 C2159 1.350 . S
N2157 S2155 1.610 . S
N2157 C2158 1.351 . S
C2158 C2152 1.428 . S
C2158 N2157 1.351 . S
C2158 C2159 1.434 . S
C2159 C2150 1.429 . S
C2159 N2156 1.350 . S
C2159 C2158 1.434 . S
C2160 C2161 1.369 . S
C2160 C2162 1.419 1_455 S
C2160 H2164 0.930 . S
C2161 C2160 1.369 . S
C2161 C2170 1.429 . S
C2162 C2160 1.419 1_655 S
C2162 C2163 1.363 . S
C2162 H2165 0.929 . S
C2163 C2162 1.363 . S
C2163 C2169 1.428 . S
H2164 C2160 0.930 . S
H2165 C2162 0.929 . S
S2166 N2167 1.613 . S
S2166 N2168 1.610 1_455 S
N2167 S2166 1.613 . S
N2167 C2170 1.350 . S
N2168 S2166 1.610 1_655 S
N2168 C2169 1.351 . S
C2169 C2163 1.428 . S
C2169 N2168 1.351 . S
C2169 C2170 1.434 1_655 S
C2170 C2161 1.429 . S
C2170 N2167 1.350 . S
C2170 C2169 1.434 1_455 S
C2171 C2172 1.369 . S
C2171 C2173 1.419 . S
C2171 H2175 0.930 . S
C2172 C2171 1.369 . S
C2172 C2181 1.429 . S
C2173 C2171 1.419 . S
C2173 C2174 1.363 . S
C2173 H2176 0.929 . S
C2174 C2173 1.363 . S
C2174 C2180 1.428 . S
H2175 C2171 0.930 . S
H2176 C2173 0.929 . S
S2177 N2178 1.613 . S
S2177 N2179 1.610 . S
N2178 S2177 1.613 . S
N2178 C2181 1.350 . S
N2179 S2177 1.610 . S
N2179 C2180 1.351 . S
C2180 C2174 1.428 . S
C2180 N2179 1.351 . S
C2180 C2181 1.434 . S
C2181 C2172 1.429 . S
C2181 N2178 1.350 . S
C2181 C2180 1.434 . S
C2182 C2183 1.369 1_455 S
C2182 C2184 1.419 . S
C2182 H2186 0.930 . S
C2183 C2182 1.369 1_655 S
C2183 C2192 1.429 . S
C2184 C2182 1.419 . S
C2184 C2185 1.363 . S
C2184 H2187 0.929 . S
C2185 C2184 1.363 . S
C2185 C2191 1.428 1_455 S
H2186 C2182 0.930 . S
H2187 C2184 0.929 . S
S2188 N2189 1.613 . S
S2188 N2190 1.610 . S
N2189 S2188 1.613 . S
N2189 C2192 1.350 . S
N2190 S2188 1.610 . S
N2190 C2191 1.351 . S
C2191 C2185 1.428 1_655 S
C2191 N2190 1.351 . S
C2191 C2192 1.434 . S
C2192 C2183 1.429 . S
C2192 N2189 1.350 . S
C2192 C2191 1.434 . S
C2193 C2194 1.369 . S
C2193 C2195 1.419 . S
C2193 H2197 0.930 . S
C2194 C2193 1.369 . S
C2194 C2203 1.429 1_655 S
C2195 C2193 1.419 . S
C2195 C2196 1.363 1_655 S
C2195 H2198 0.929 . S
C2196 C2195 1.363 1_455 S
C2196 C2202 1.428 . S
H2197 C2193 0.930 . S
H2198 C2195 0.929 . S
S2199 N2200 1.613 . S
S2199 N2201 1.610 . S
N2200 S2199 1.613 . S
N2200 C2203 1.350 . S
N2201 S2199 1.610 . S
N2201 C2202 1.351 . S
C2202 C2196 1.428 . S
C2202 N2201 1.351 . S
C2202 C2203 1.434 . S
C2203 C2194 1.429 1_455 S
C2203 N2200 1.350 . S
C2203 C2202 1.434 . S
C2204 C2205 1.369 . S
C2204 C2206 1.426 . S
C2204 H2208 0.930 . S
C2205 C2204 1.369 . S
C2205 C2214 1.394 1_565 S
C2206 C2204 1.426 . S
C2206 C2207 1.355 1_565 S
C2206 H2209 0.930 . S
C2207 C2206 1.355 1_545 S
C2207 C2213 1.428 . S
H2208 C2204 0.930 . S
H2209 C2206 0.930 . S
S2210 N2211 1.613 . S
S2210 N2212 1.610 . S
N2211 S2210 1.613 . S
N2211 C2214 1.356 . S
N2212 S2210 1.610 . S
N2212 C2213 1.351 . S
C2213 C2207 1.428 . S
C2213 N2212 1.351 . S
C2213 C2214 1.467 . S
C2214 C2205 1.394 1_545 S
C2214 N2211 1.356 . S
C2214 C2213 1.467 . S
C2215 C2216 1.369 . S
C2215 C2217 1.419 1_556 S
C2215 H2219 0.930 . S
C2216 C2215 1.369 . S
C2216 C2225 1.429 . S
C2217 C2215 1.419 1_554 S
C2217 C2218 1.363 . S
C2217 H2220 0.929 . S
C2218 C2217 1.363 . S
C2218 C2224 1.428 . S
H2219 C2215 0.930 . S
H2220 C2217 0.929 . S
S2221 N2222 1.613 1_554 S
S2221 N2223 1.610 . S
N2222 S2221 1.613 1_556 S
N2222 C2225 1.350 . S
N2223 S2221 1.610 . S
N2223 C2224 1.351 . S
C2224 C2218 1.428 . S
C2224 N2223 1.351 . S
C2224 C2225 1.434 1_554 S
C2225 C2216 1.429 . S
C2225 N2222 1.350 . S
C2225 C2224 1.434 1_556 S
C2226 C2227 1.369 . S
C2226 C2228 1.419 . S
C2226 H2230 0.930 . S
C2227 C2226 1.369 . S
C2227 C2236 1.429 . S
C2228 C2226 1.419 . S
C2228 C2229 1.363 . S
C2228 H2231 0.929 . S
C2229 C2228 1.363 . S
C2229 C2235 1.428 . S
H2230 C2226 0.930 . S
H2231 C2228 0.929 . S
S2232 N2233 1.613 . S
S2232 N2234 1.610 . S
N2233 S2232 1.613 . S
N2233 C2236 1.350 . S
N2234 S2232 1.610 . S
N2234 C2235 1.351 . S
C2235 C2229 1.428 . S
C2235 N2234 1.351 . S
C2235 C2236 1.434 . S
C2236 C2227 1.429 . S
C2236 N2233 1.350 . S
C2236 C2235 1.434 . S
C2237 C2238 1.369 . S
C2237 C2239 1.419 1_554 S
C2237 H2241 0.930 . S
C2238 C2237 1.369 . S
C2238 C2247 1.429 . S
C2239 C2237 1.419 1_556 S
C2239 C2240 1.363 . S
C2239 H2242 0.929 . S
C2240 C2239 1.363 . S
C2240 C2246 1.428 . S
H2241 C2237 0.930 . S
H2242 C2239 0.929 . S
S2243 N2244 1.613 . S
S2243 N2245 1.610 1_554 S
N2244 S2243 1.613 . S
N2244 C2247 1.350 1_545 S
N2245 S2243 1.610 1_556 S
N2245 C2246 1.351 1_545 S
C2246 C2240 1.428 . S
C2246 N2245 1.351 1_565 S
C2246 C2247 1.434 1_556 S
C2247 C2238 1.429 . S
C2247 N2244 1.350 1_565 S
C2247 C2246 1.434 1_554 S
C2248 C2249 1.369 1_554 S
C2248 C2250 1.419 . S
C2248 H2252 0.930 . S
C2249 C2248 1.369 1_556 S
C2249 C2258 1.429 . S
C2250 C2248 1.419 . S
C2250 C2251 1.363 . S
C2250 H2253 0.929 . S
C2251 C2250 1.363 . S
C2251 C2257 1.428 1_554 S
H2252 C2248 0.930 . S
H2253 C2250 0.929 . S
S2254 N2255 1.613 . S
S2254 N2256 1.610 . S
N2255 S2254 1.613 . S
N2255 C2258 1.350 . S
N2256 S2254 1.610 . S
N2256 C2257 1.351 . S
C2257 C2251 1.428 1_556 S
C2257 N2256 1.351 . S
C2257 C2258 1.434 . S
C2258 C2249 1.429 . S
C2258 N2255 1.350 . S
C2258 C2257 1.434 . S
C2259 C2260 1.369 . S
C2259 C2261 1.419 . S
C2259 H2263 0.930 . S
C2260 C2259 1.369 . S
C2260 C2269 1.429 . S
C2261 C2259 1.419 . S
C2261 C2262 1.363 . S
C2261 H2264 0.929 . S
C2262 C2261 1.363 . S
C2262 C2268 1.428 . S
H2263 C2259 0.930 . S
H2264 C2261 0.929 . S
S2265 N2266 1.613 . S
S2265 N2267 1.610 . S
N2266 S2265 1.613 . S
N2266 C2269 1.350 . S
N2267 S2265 1.610 . S
N2267 C2268 1.351 . S
C2268 C2262 1.428 . S
C2268 N2267 1.351 . S
C2268 C2269 1.434 . S
C2269 C2260 1.429 . S
C2269 N2266 1.350 . S
C2269 C2268 1.434 . S
C2270 C2271 1.369 . S
C2270 C2272 1.419 . S
C2270 H2274 0.930 . S
C2271 C2270 1.369 . S
C2271 C2280 1.429 . S
C2272 C2270 1.419 . S
C2272 C2273 1.363 . S
C2272 H2275 0.929 . S
C2273 C2272 1.363 . S
C2273 C2279 1.428 . S
H2274 C2270 0.930 . S
H2275 C2272 0.929 . S
S2276 N2277 1.598 1_655 S
S2276 N2278 1.598 1_655 S
N2277 S2276 1.598 1_455 S
N2277 C2280 1.373 . S
N2278 S2276 1.598 1_455 S
N2278 C2279 1.369 . S
C2279 C2273 1.428 . S
C2279 N2278 1.369 . S
C2279 C2280 1.434 . S
C2280 C2271 1.429 . S
C2280 N2277 1.373 . S
C2280 C2279 1.434 . S
C2281 C2282 1.369 . S
C2281 C2283 1.419 . S
C2281 H2285 0.930 . S
C2282 C2281 1.369 . S
C2282 C2291 1.429 . S
C2283 C2281 1.419 . S
C2283 C2284 1.363 . S
C2283 H2286 0.929 . S
C2284 C2283 1.363 . S
C2284 C2290 1.428 . S
H2285 C2281 0.930 . S
H2286 C2283 0.929 . S
S2287 N2288 1.613 . S
S2287 N2289 1.610 . S
N2288 S2287 1.613 . S
N2288 C2291 1.350 . S
N2289 S2287 1.610 . S
N2289 C2290 1.351 . S
C2290 C2284 1.428 . S
C2290 N2289 1.351 . S
C2290 C2291 1.434 . S
C2291 C2282 1.429 . S
C2291 N2288 1.350 . S
C2291 C2290 1.434 . S
C2292 C2293 1.369 . S
C2292 C2294 1.419 . S
C2292 H2296 0.930 . S
C2293 C2292 1.369 . S
C2293 C2302 1.429 . S
C2294 C2292 1.419 . S
C2294 C2295 1.363 . S
C2294 H2297 0.929 . S
C2295 C2294 1.363 . S
C2295 C2301 1.428 . S
H2296 C2292 0.930 . S
H2297 C2294 0.929 . S
S2298 N2299 1.613 . S
S2298 N2300 1.610 . S
N2299 S2298 1.613 . S
N2299 C2302 1.350 . S
N2300 S2298 1.610 . S
N2300 C2301 1.351 . S
C2301 C2295 1.428 . S
C2301 N2300 1.351 . S
C2301 C2302 1.434 . S
C2302 C2293 1.429 . S
C2302 N2299 1.350 . S
C2302 C2301 1.434 . S
C2303 C2304 1.369 . S
C2303 C2305 1.416 . S
C2303 H2307 0.930 . S
C2304 C2303 1.369 . S
C2304 C2313 1.429 1_545 S
C2305 C2303 1.416 . S
C2305 C2306 1.366 1_545 S
C2305 H2308 0.928 . S
C2306 C2305 1.366 1_565 S
C2306 C2312 1.428 . S
H2307 C2303 0.930 . S
H2308 C2305 0.928 . S
S2309 N2310 1.613 . S
S2309 N2311 1.610 . S
N2310 S2309 1.613 . S
N2310 C2313 1.350 . S
N2311 S2309 1.610 . S
N2311 C2312 1.351 . S
C2312 C2306 1.428 . S
C2312 N2311 1.351 . S
C2312 C2313 1.434 . S
C2313 C2304 1.429 1_565 S
C2313 N2310 1.350 . S
C2313 C2312 1.434 . S
C2314 C2315 1.369 . S
C2314 C2316 1.419 . S
C2314 H2318 0.930 . S
C2315 C2314 1.369 . S
C2315 C2324 1.429 . S
C2316 C2314 1.419 . S
C2316 C2317 1.363 . S
C2316 H2319 0.929 . S
C2317 C2316 1.363 . S
C2317 C2323 1.428 . S
H2318 C2314 0.930 . S
H2319 C2316 0.929 . S
S2320 N2321 1.613 . S
S2320 N2322 1.610 . S
N2321 S2320 1.613 . S
N2321 C2324 1.350 . S
N2322 S2320 1.610 . S
N2322 C2323 1.351 . S
C2323 C2317 1.428 . S
C2323 N2322 1.351 . S
C2323 C2324 1.434 . S
C2324 C2315 1.429 . S
C2324 N2321 1.350 . S
C2324 C2323 1.434 . S
C2325 C2326 1.369 . S
C2325 C2327 1.419 1_655 S
C2325 H2329 0.930 . S
C2326 C2325 1.369 . S
C2326 C2335 1.429 . S
C2327 C2325 1.419 1_455 S
C2327 C2328 1.363 . S
C2327 H2330 0.929 . S
C2328 C2327 1.363 . S
C2328 C2334 1.428 . S
H2329 C2325 0.930 . S
H2330 C2327 0.929 . S
S2331 N2332 1.613 . S
S2331 N2333 1.610 1_655 S
N2332 S2331 1.613 . S
N2332 C2335 1.350 . S
N2333 S2331 1.610 1_455 S
N2333 C2334 1.351 . S
C2334 C2328 1.428 . S
C2334 N2333 1.351 . S
C2334 C2335 1.434 1_455 S
C2335 C2326 1.429 . S
C2335 N2332 1.350 . S
C2335 C2334 1.434 1_655 S
C2336 C2337 1.369 . S
C2336 C2338 1.419 . S
C2336 H2340 0.930 . S
C2337 C2336 1.369 . S
C2337 C2346 1.429 . S
C2338 C2336 1.419 . S
C2338 C2339 1.363 . S
C2338 H2341 0.929 . S
C2339 C2338 1.363 . S
C2339 C2345 1.428 . S
H2340 C2336 0.930 . S
H2341 C2338 0.929 . S
S2342 N2343 1.613 . S
S2342 N2344 1.610 . S
N2343 S2342 1.613 . S
N2343 C2346 1.350 . S
N2344 S2342 1.610 . S
N2344 C2345 1.351 . S
C2345 C2339 1.428 . S
C2345 N2344 1.351 . S
C2345 C2346 1.434 . S
C2346 C2337 1.429 . S
C2346 N2343 1.350 . S
C2346 C2345 1.434 . S
C2347 C2348 1.369 . S
C2347 C2349 1.419 . S
C2347 H2351 0.930 . S
C2348 C2347 1.369 . S
C2348 C2357 1.429 . S
C2349 C2347 1.419 . S
C2349 C2350 1.363 . S
C2349 H2352 0.929 . S
C2350 C2349 1.363 . S
C2350 C2356 1.428 . S
H2351 C2347 0.930 . S
H2352 C2349 0.929 . S
S2353 N2354 1.613 . S
S2353 N2355 1.610 . S
N2354 S2353 1.613 . S
N2354 C2357 1.350 . S
N2355 S2353 1.610 . S
N2355 C2356 1.351 . S
C2356 C2350 1.428 . S
C2356 N2355 1.351 . S
C2356 C2357 1.434 . S
C2357 C2348 1.429 . S
C2357 N2354 1.350 . S
C2357 C2356 1.434 . S
C2358 C2359 1.369 . S
C2358 C2360 1.419 . S
C2358 H2362 0.930 . S
C2359 C2358 1.369 . S
C2359 C2368 1.429 . S
C2360 C2358 1.419 . S
C2360 C2361 1.363 . S
C2360 H2363 0.929 . S
C2361 C2360 1.363 . S
C2361 C2367 1.428 . S
H2362 C2358 0.930 . S
H2363 C2360 0.929 . S
S2364 N2365 1.613 . S
S2364 N2366 1.610 . S
N2365 S2364 1.613 . S
N2365 C2368 1.350 . S
N2366 S2364 1.610 . S
N2366 C2367 1.351 . S
C2367 C2361 1.428 . S
C2367 N2366 1.351 . S
C2367 C2368 1.434 . S
C2368 C2359 1.429 . S
C2368 N2365 1.350 . S
C2368 C2367 1.434 . S
C2369 C2370 1.369 . S
C2369 C2371 1.419 . S
C2369 H2373 0.930 . S
C2370 C2369 1.369 . S
C2370 C2379 1.429 . S
C2371 C2369 1.419 . S
C2371 C2372 1.363 . S
C2371 H2374 0.929 . S
C2372 C2371 1.363 . S
C2372 C2378 1.428 . S
H2373 C2369 0.930 . S
H2374 C2371 0.929 . S
S2375 N2376 1.613 . S
S2375 N2377 1.610 . S
N2376 S2375 1.613 . S
N2376 C2379 1.350 . S
N2377 S2375 1.610 . S
N2377 C2378 1.351 . S
C2378 C2372 1.428 . S
C2378 N2377 1.351 . S
C2378 C2379 1.434 . S
C2379 C2370 1.429 . S
C2379 N2376 1.350 . S
C2379 C2378 1.434 . S
C2380 C2381 1.369 1_545 S
C2380 C2382 1.419 . S
C2380 H2384 0.930 . S
C2381 C2380 1.369 1_565 S
C2381 C2390 1.429 . S
C2382 C2380 1.419 . S
C2382 C2383 1.363 . S
C2382 H2385 0.929 . S
C2383 C2382 1.363 . S
C2383 C2389 1.428 1_545 S
H2384 C2380 0.930 . S
H2385 C2382 0.929 . S
S2386 N2387 1.613 . S
S2386 N2388 1.610 . S
N2387 S2386 1.613 . S
N2387 C2390 1.350 . S
N2388 S2386 1.610 . S
N2388 C2389 1.351 . S
C2389 C2383 1.428 1_565 S
C2389 N2388 1.351 . S
C2389 C2390 1.434 . S
C2390 C2381 1.429 . S
C2390 N2387 1.350 . S
C2390 C2389 1.434 . S
C2391 C2392 1.369 . S
C2391 C2393 1.419 . S
C2391 H2395 0.930 . S
C2392 C2391 1.369 . S
C2392 C2401 1.429 . S
C2393 C2391 1.419 . S
C2393 C2394 1.363 . S
C2393 H2396 0.929 . S
C2394 C2393 1.363 . S
C2394 C2400 1.428 . S
H2395 C2391 0.930 . S
H2396 C2393 0.929 . S
S2397 N2398 1.613 . S
S2397 N2399 1.610 . S
N2398 S2397 1.613 . S
N2398 C2401 1.350 . S
N2399 S2397 1.610 . S
N2399 C2400 1.351 . S
C2400 C2394 1.428 . S
C2400 N2399 1.351 . S
C2400 C2401 1.434 . S
C2401 C2392 1.429 . S
C2401 N2398 1.350 . S
C2401 C2400 1.434 . S
C2402 C2403 1.369 1_556 S
C2402 C2404 1.419 . S
C2402 H2406 0.930 . S
C2403 C2402 1.369 1_554 S
C2403 C2412 1.429 . S
C2404 C2402 1.419 . S
C2404 C2405 1.363 . S
C2404 H2407 0.929 . S
C2405 C2404 1.363 . S
C2405 C2411 1.428 1_556 S
H2406 C2402 0.930 . S
H2407 C2404 0.929 . S
S2408 N2409 1.613 . S
S2408 N2410 1.610 . S
N2409 S2408 1.613 . S
N2409 C2412 1.350 . S
N2410 S2408 1.610 . S
N2410 C2411 1.351 . S
C2411 C2405 1.428 1_554 S
C2411 N2410 1.351 . S
C2411 C2412 1.434 . S
C2412 C2403 1.429 . S
C2412 N2409 1.350 . S
C2412 C2411 1.434 . S
C2413 C2414 1.369 . S
C2413 C2415 1.419 . S
C2413 H2417 0.930 . S
C2414 C2413 1.369 . S
C2414 C2423 1.429 1_565 S
C2415 C2413 1.419 . S
C2415 C2416 1.363 1_565 S
C2415 H2418 0.929 . S
C2416 C2415 1.363 1_545 S
C2416 C2422 1.428 . S
H2417 C2413 0.930 . S
H2418 C2415 0.929 . S
S2419 N2420 1.613 . S
S2419 N2421 1.610 . S
N2420 S2419 1.613 . S
N2420 C2423 1.350 . S
N2421 S2419 1.610 . S
N2421 C2422 1.351 . S
C2422 C2416 1.428 . S
C2422 N2421 1.351 . S
C2422 C2423 1.434 . S
C2423 C2414 1.429 1_545 S
C2423 N2420 1.350 . S
C2423 C2422 1.434 . S
C2424 C2425 1.369 . S
C2424 C2426 1.419 . S
C2424 H2428 0.930 . S
C2425 C2424 1.369 . S
C2425 C2434 1.429 . S
C2426 C2424 1.419 . S
C2426 C2427 1.363 . S
C2426 H2429 0.929 . S
C2427 C2426 1.363 . S
C2427 C2433 1.428 . S
H2428 C2424 0.930 . S
H2429 C2426 0.929 . S
S2430 N2431 1.613 . S
S2430 N2432 1.610 . S
N2431 S2430 1.613 . S
N2431 C2434 1.350 . S
N2432 S2430 1.610 . S
N2432 C2433 1.351 . S
C2433 C2427 1.428 . S
C2433 N2432 1.351 . S
C2433 C2434 1.434 . S
C2434 C2425 1.429 . S
C2434 N2431 1.350 . S
C2434 C2433 1.434 . S
C2435 C2436 1.369 . S
C2435 C2437 1.419 . S
C2435 H2439 0.930 . S
C2436 C2435 1.369 . S
C2436 C2445 1.429 . S
C2437 C2435 1.419 . S
C2437 C2438 1.363 . S
C2437 H2440 0.929 . S
C2438 C2437 1.363 . S
C2438 C2444 1.428 . S
H2439 C2435 0.930 . S
H2440 C2437 0.929 . S
S2441 N2442 1.613 . S
S2441 N2443 1.610 . S
N2442 S2441 1.613 . S
N2442 C2445 1.350 . S
N2443 S2441 1.610 . S
N2443 C2444 1.351 . S
C2444 C2438 1.428 . S
C2444 N2443 1.351 . S
C2444 C2445 1.434 . S
C2445 C2436 1.429 . S
C2445 N2442 1.350 . S
C2445 C2444 1.434 . S
C2446 C2447 1.369 . S
C2446 C2448 1.419 . S
C2446 H2450 0.930 . S
C2447 C2446 1.369 . S
C2447 C2456 1.429 . S
C2448 C2446 1.419 . S
C2448 C2449 1.363 . S
C2448 H2451 0.929 . S
C2449 C2448 1.363 . S
C2449 C2455 1.428 . S
H2450 C2446 0.930 . S
H2451 C2448 0.929 . S
S2452 N2453 1.613 . S
S2452 N2454 1.610 . S
N2453 S2452 1.613 . S
N2453 C2456 1.350 . S
N2454 S2452 1.610 . S
N2454 C2455 1.351 . S
C2455 C2449 1.428 . S
C2455 N2454 1.351 . S
C2455 C2456 1.434 . S
C2456 C2447 1.429 . S
C2456 N2453 1.350 . S
C2456 C2455 1.434 . S
C2457 C2458 1.369 . S
C2457 C2459 1.419 . S
C2457 H2461 0.930 . S
C2458 C2457 1.369 . S
C2458 C2467 1.429 . S
C2459 C2457 1.419 . S
C2459 C2460 1.363 . S
C2459 H2462 0.929 . S
C2460 C2459 1.363 . S
C2460 C2466 1.428 . S
H2461 C2457 0.930 . S
H2462 C2459 0.929 . S
S2463 N2464 1.613 . S
S2463 N2465 1.610 . S
N2464 S2463 1.613 . S
N2464 C2467 1.350 . S
N2465 S2463 1.610 . S
N2465 C2466 1.351 . S
C2466 C2460 1.428 . S
C2466 N2465 1.351 . S
C2466 C2467 1.434 . S
C2467 C2458 1.429 . S
C2467 N2464 1.350 . S
C2467 C2466 1.434 . S
C2468 C2469 1.369 . S
C2468 C2470 1.419 . S
C2468 H2472 0.930 . S
C2469 C2468 1.369 . S
C2469 C2478 1.429 . S
C2470 C2468 1.419 . S
C2470 C2471 1.363 . S
C2470 H2473 0.929 . S
C2471 C2470 1.363 . S
C2471 C2477 1.428 . S
H2472 C2468 0.930 . S
H2473 C2470 0.929 . S
S2474 N2475 1.613 . S
S2474 N2476 1.610 . S
N2475 S2474 1.613 . S
N2475 C2478 1.350 . S
N2476 S2474 1.610 . S
N2476 C2477 1.351 . S
C2477 C2471 1.428 . S
C2477 N2476 1.351 . S
C2477 C2478 1.434 . S
C2478 C2469 1.429 . S
C2478 N2475 1.350 . S
C2478 C2477 1.434 . S
C2479 C2480 1.369 . S
C2479 C2481 1.419 . S
C2479 H2483 0.930 . S
C2480 C2479 1.369 . S
C2480 C2489 1.429 . S
C2481 C2479 1.419 . S
C2481 C2482 1.363 . S
C2481 H2484 0.929 . S
C2482 C2481 1.363 . S
C2482 C2488 1.428 . S
H2483 C2479 0.930 . S
H2484 C2481 0.929 . S
S2485 N2486 1.613 . S
S2485 N2487 1.610 . S
N2486 S2485 1.613 . S
N2486 C2489 1.350 . S
N2487 S2485 1.610 . S
N2487 C2488 1.351 . S
C2488 C2482 1.428 . S
C2488 N2487 1.351 . S
C2488 C2489 1.434 . S
C2489 C2480 1.429 . S
C2489 N2486 1.350 . S
C2489 C2488 1.434 . S
C2490 C2491 1.369 . S
C2490 C2492 1.419 . S
C2490 H2494 0.930 . S
C2491 C2490 1.369 . S
C2491 C2500 1.429 . S
C2492 C2490 1.419 . S
C2492 C2493 1.363 . S
C2492 H2495 0.929 . S
C2493 C2492 1.363 . S
C2493 C2499 1.428 . S
H2494 C2490 0.930 . S
H2495 C2492 0.929 . S
S2496 N2497 1.613 . S
S2496 N2498 1.610 . S
N2497 S2496 1.613 . S
N2497 C2500 1.350 . S
N2498 S2496 1.610 . S
N2498 C2499 1.351 . S
C2499 C2493 1.428 . S
C2499 N2498 1.351 . S
C2499 C2500 1.434 . S
C2500 C2491 1.429 . S
C2500 N2497 1.350 . S
C2500 C2499 1.434 . S
C2501 C2502 1.369 . S
C2501 C2503 1.419 . S
C2501 H2505 0.930 . S
C2502 C2501 1.369 . S
C2502 C2511 1.429 . S
C2503 C2501 1.419 . S
C2503 C2504 1.363 . S
C2503 H2506 0.929 . S
C2504 C2503 1.363 . S
C2504 C2510 1.428 . S
H2505 C2501 0.930 . S
H2506 C2503 0.929 . S
S2507 N2508 1.613 . S
S2507 N2509 1.610 . S
N2508 S2507 1.613 . S
N2508 C2511 1.350 . S
N2509 S2507 1.610 . S
N2509 C2510 1.351 . S
C2510 C2504 1.428 . S
C2510 N2509 1.351 . S
C2510 C2511 1.434 . S
C2511 C2502 1.429 . S
C2511 N2508 1.350 . S
C2511 C2510 1.434 . S
C2512 C2513 1.369 . S
C2512 C2514 1.419 . S
C2512 H2516 0.930 . S
C2513 C2512 1.369 . S
C2513 C2522 1.429 . S
C2514 C2512 1.419 . S
C2514 C2515 1.363 . S
C2514 H2517 0.929 . S
C2515 C2514 1.363 . S
C2515 C2521 1.428 . S
H2516 C2512 0.930 . S
H2517 C2514 0.929 . S
S2518 N2519 1.613 . S
S2518 N2520 1.610 . S
N2519 S2518 1.613 . S
N2519 C2522 1.350 . S
N2520 S2518 1.610 . S
N2520 C2521 1.351 . S
C2521 C2515 1.428 . S
C2521 N2520 1.351 . S
C2521 C2522 1.434 . S
C2522 C2513 1.429 . S
C2522 N2519 1.350 . S
C2522 C2521 1.434 . S
C2523 C2524 1.369 . S
C2523 C2525 1.419 . S
C2523 H2527 0.930 . S
C2524 C2523 1.369 . S
C2524 C2533 1.429 . S
C2525 C2523 1.419 . S
C2525 C2526 1.363 . S
C2525 H2528 0.929 . S
C2526 C2525 1.363 . S
C2526 C2532 1.428 . S
H2527 C2523 0.930 . S
H2528 C2525 0.929 . S
S2529 N2530 1.613 . S
S2529 N2531 1.610 . S
N2530 S2529 1.613 . S
N2530 C2533 1.350 . S
N2531 S2529 1.610 . S
N2531 C2532 1.351 . S
C2532 C2526 1.428 . S
C2532 N2531 1.351 . S
C2532 C2533 1.434 . S
C2533 C2524 1.429 . S
C2533 N2530 1.350 . S
C2533 C2532 1.434 . S
C2534 C2535 1.369 . S
C2534 C2536 1.419 . S
C2534 H2538 0.930 . S
C2535 C2534 1.369 . S
C2535 C2544 1.429 . S
C2536 C2534 1.419 . S
C2536 C2537 1.363 . S
C2536 H2539 0.929 . S
C2537 C2536 1.363 . S
C2537 C2543 1.428 . S
H2538 C2534 0.930 . S
H2539 C2536 0.929 . S
S2540 N2541 1.613 . S
S2540 N2542 1.610 . S
N2541 S2540 1.613 . S
N2541 C2544 1.350 . S
N2542 S2540 1.610 . S
N2542 C2543 1.351 . S
C2543 C2537 1.428 . S
C2543 N2542 1.351 . S
C2543 C2544 1.434 . S
C2544 C2535 1.429 . S
C2544 N2541 1.350 . S
C2544 C2543 1.434 . S
C2545 C2546 1.369 . S
C2545 C2547 1.419 . S
C2545 H2549 0.930 . S
C2546 C2545 1.369 . S
C2546 C2555 1.429 . S
C2547 C2545 1.419 . S
C2547 C2548 1.363 . S
C2547 H2550 0.929 . S
C2548 C2547 1.363 . S
C2548 C2554 1.428 . S
H2549 C2545 0.930 . S
H2550 C2547 0.929 . S
S2551 N2552 1.613 . S
S2551 N2553 1.610 . S
N2552 S2551 1.613 . S
N2552 C2555 1.350 . S
N2553 S2551 1.610 . S
N2553 C2554 1.351 . S
C2554 C2548 1.428 . S
C2554 N2553 1.351 . S
C2554 C2555 1.434 . S
C2555 C2546 1.429 . S
C2555 N2552 1.350 . S
C2555 C2554 1.434 . S
C2556 C2557 1.369 . S
C2556 C2558 1.419 . S
C2556 H2560 0.930 . S
C2557 C2556 1.369 . S
C2557 C2566 1.429 . S
C2558 C2556 1.419 . S
C2558 C2559 1.363 . S
C2558 H2561 0.929 . S
C2559 C2558 1.363 . S
C2559 C2565 1.428 . S
H2560 C2556 0.930 . S
H2561 C2558 0.929 . S
S2562 N2563 1.613 . S
S2562 N2564 1.610 . S
N2563 S2562 1.613 . S
N2563 C2566 1.350 . S
N2564 S2562 1.610 . S
N2564 C2565 1.351 . S
C2565 C2559 1.428 . S
C2565 N2564 1.351 . S
C2565 C2566 1.434 . S
C2566 C2557 1.429 . S
C2566 N2563 1.350 . S
C2566 C2565 1.434 . S
C2567 C2568 1.369 . S
C2567 C2569 1.419 . S
C2567 H2571 0.930 . S
C2568 C2567 1.369 . S
C2568 C2577 1.429 . S
C2569 C2567 1.419 . S
C2569 C2570 1.363 . S
C2569 H2572 0.929 . S
C2570 C2569 1.363 . S
C2570 C2576 1.428 . S
H2571 C2567 0.930 . S
H2572 C2569 0.929 . S
S2573 N2574 1.613 . S
S2573 N2575 1.610 . S
N2574 S2573 1.613 . S
N2574 C2577 1.350 . S
N2575 S2573 1.610 . S
N2575 C2576 1.351 . S
C2576 C2570 1.428 . S
C2576 N2575 1.351 . S
C2576 C2577 1.434 . S
C2577 C2568 1.429 . S
C2577 N2574 1.350 . S
C2577 C2576 1.434 . S
C2578 C2579 1.369 . S
C2578 C2580 1.419 . S
C2578 H2582 0.930 . S
C2579 C2578 1.369 . S
C2579 C2588 1.429 . S
C2580 C2578 1.419 . S
C2580 C2581 1.363 . S
C2580 H2583 0.929 . S
C2581 C2580 1.363 . S
C2581 C2587 1.428 . S
H2582 C2578 0.930 . S
H2583 C2580 0.929 . S
S2584 N2585 1.613 . S
S2584 N2586 1.610 . S
N2585 S2584 1.613 . S
N2585 C2588 1.350 . S
N2586 S2584 1.610 . S
N2586 C2587 1.351 . S
C2587 C2581 1.428 . S
C2587 N2586 1.351 . S
C2587 C2588 1.434 . S
C2588 C2579 1.429 . S
C2588 N2585 1.350 . S
C2588 C2587 1.434 . S
C2589 C2590 1.369 . S
C2589 C2591 1.419 . S
C2589 H2593 0.930 . S
C2590 C2589 1.369 . S
C2590 C2599 1.429 . S
C2591 C2589 1.419 . S
C2591 C2592 1.363 . S
C2591 H2594 0.929 . S
C2592 C2591 1.363 . S
C2592 C2598 1.428 . S
H2593 C2589 0.930 . S
H2594 C2591 0.929 . S
S2595 N2596 1.613 . S
S2595 N2597 1.610 . S
N2596 S2595 1.613 . S
N2596 C2599 1.350 . S
N2597 S2595 1.610 . S
N2597 C2598 1.351 . S
C2598 C2592 1.428 . S
C2598 N2597 1.351 . S
C2598 C2599 1.434 . S
C2599 C2590 1.429 . S
C2599 N2596 1.350 . S
C2599 C2598 1.434 . S
C2600 C2601 1.369 . S
C2600 C2602 1.419 . S
C2600 H2604 0.930 . S
C2601 C2600 1.369 . S
C2601 C2610 1.429 . S
C2602 C2600 1.419 . S
C2602 C2603 1.363 . S
C2602 H2605 0.929 . S
C2603 C2602 1.363 . S
C2603 C2609 1.428 . S
H2604 C2600 0.930 . S
H2605 C2602 0.929 . S
S2606 N2607 1.613 . S
S2606 N2608 1.610 . S
N2607 S2606 1.613 . S
N2607 C2610 1.350 . S
N2608 S2606 1.610 . S
N2608 C2609 1.351 . S
C2609 C2603 1.428 . S
C2609 N2608 1.351 . S
C2609 C2610 1.434 . S
C2610 C2601 1.429 . S
C2610 N2607 1.350 . S
C2610 C2609 1.434 . S
C2611 C2612 1.369 . S
C2611 C2613 1.419 . S
C2611 H2615 0.930 . S
C2612 C2611 1.369 . S
C2612 C2621 1.429 . S
C2613 C2611 1.419 . S
C2613 C2614 1.363 . S
C2613 H2616 0.929 . S
C2614 C2613 1.363 . S
C2614 C2620 1.428 . S
H2615 C2611 0.930 . S
H2616 C2613 0.929 . S
S2617 N2618 1.613 . S
S2617 N2619 1.610 . S
N2618 S2617 1.613 . S
N2618 C2621 1.350 . S
N2619 S2617 1.610 . S
N2619 C2620 1.351 . S
C2620 C2614 1.428 . S
C2620 N2619 1.351 . S
C2620 C2621 1.434 . S
C2621 C2612 1.429 . S
C2621 N2618 1.350 . S
C2621 C2620 1.434 . S
C2622 C2623 1.369 . S
C2622 C2624 1.419 . S
C2622 H2626 0.930 . S
C2623 C2622 1.369 . S
C2623 C2632 1.429 . S
C2624 C2622 1.419 . S
C2624 C2625 1.363 . S
C2624 H2627 0.929 . S
C2625 C2624 1.363 . S
C2625 C2631 1.428 . S
H2626 C2622 0.930 . S
H2627 C2624 0.929 . S
S2628 N2629 1.613 . S
S2628 N2630 1.610 . S
N2629 S2628 1.613 . S
N2629 C2632 1.350 . S
N2630 S2628 1.610 . S
N2630 C2631 1.351 . S
C2631 C2625 1.428 . S
C2631 N2630 1.351 . S
C2631 C2632 1.434 . S
C2632 C2623 1.429 . S
C2632 N2629 1.350 . S
C2632 C2631 1.434 . S
C2633 C2634 1.369 . S
C2633 C2635 1.419 . S
C2633 H2637 0.930 . S
C2634 C2633 1.369 . S
C2634 C2643 1.429 . S
C2635 C2633 1.419 . S
C2635 C2636 1.363 . S
C2635 H2638 0.929 . S
C2636 C2635 1.363 . S
C2636 C2642 1.428 . S
H2637 C2633 0.930 . S
H2638 C2635 0.929 . S
S2639 N2640 1.613 . S
S2639 N2641 1.610 . S
N2640 S2639 1.613 . S
N2640 C2643 1.350 . S
N2641 S2639 1.610 . S
N2641 C2642 1.351 . S
C2642 C2636 1.428 . S
C2642 N2641 1.351 . S
C2642 C2643 1.434 . S
C2643 C2634 1.429 . S
C2643 N2640 1.350 . S
C2643 C2642 1.434 . S
C2644 C2645 1.369 . S
C2644 C2646 1.419 . S
C2644 H2648 0.930 . S
C2645 C2644 1.369 . S
C2645 C2654 1.429 . S
C2646 C2644 1.419 . S
C2646 C2647 1.363 . S
C2646 H2649 0.929 . S
C2647 C2646 1.363 . S
C2647 C2653 1.428 . S
H2648 C2644 0.930 . S
H2649 C2646 0.929 . S
S2650 N2651 1.613 . S
S2650 N2652 1.610 . S
N2651 S2650 1.613 . S
N2651 C2654 1.350 . S
N2652 S2650 1.610 . S
N2652 C2653 1.351 . S
C2653 C2647 1.428 . S
C2653 N2652 1.351 . S
C2653 C2654 1.434 . S
C2654 C2645 1.429 . S
C2654 N2651 1.350 . S
C2654 C2653 1.434 . S
C2655 C2656 1.369 . S
C2655 C2657 1.419 . S
C2655 H2659 0.930 . S
C2656 C2655 1.369 . S
C2656 C2665 1.429 . S
C2657 C2655 1.419 . S
C2657 C2658 1.363 . S
C2657 H2660 0.929 . S
C2658 C2657 1.363 . S
C2658 C2664 1.428 . S
H2659 C2655 0.930 . S
H2660 C2657 0.929 . S
S2661 N2662 1.613 . S
S2661 N2663 1.610 . S
N2662 S2661 1.613 . S
N2662 C2665 1.350 . S
N2663 S2661 1.610 . S
N2663 C2664 1.351 . S
C2664 C2658 1.428 . S
C2664 N2663 1.351 . S
C2664 C2665 1.434 . S
C2665 C2656 1.429 . S
C2665 N2662 1.350 . S
C2665 C2664 1.434 . S
C2666 C2667 1.369 . S
C2666 C2668 1.419 . S
C2666 H2670 0.930 . S
C2667 C2666 1.369 . S
C2667 C2676 1.429 . S
C2668 C2666 1.419 . S
C2668 C2669 1.363 . S
C2668 H2671 0.929 . S
C2669 C2668 1.363 . S
C2669 C2675 1.428 . S
H2670 C2666 0.930 . S
H2671 C2668 0.929 . S
S2672 N2673 1.613 . S
S2672 N2674 1.610 . S
N2673 S2672 1.613 . S
N2673 C2676 1.350 . S
N2674 S2672 1.610 . S
N2674 C2675 1.351 . S
C2675 C2669 1.428 . S
C2675 N2674 1.351 . S
C2675 C2676 1.434 . S
C2676 C2667 1.429 . S
C2676 N2673 1.350 . S
C2676 C2675 1.434 . S
C2677 C2678 1.369 . S
C2677 C2679 1.419 . S
C2677 H2681 0.930 . S
C2678 C2677 1.369 . S
C2678 C2687 1.429 . S
C2679 C2677 1.419 . S
C2679 C2680 1.363 . S
C2679 H2682 0.929 . S
C2680 C2679 1.363 . S
C2680 C2686 1.428 . S
H2681 C2677 0.930 . S
H2682 C2679 0.929 . S
S2683 N2684 1.613 . S
S2683 N2685 1.610 . S
N2684 S2683 1.613 . S
N2684 C2687 1.350 . S
N2685 S2683 1.610 . S
N2685 C2686 1.351 . S
C2686 C2680 1.428 . S
C2686 N2685 1.351 . S
C2686 C2687 1.434 . S
C2687 C2678 1.429 . S
C2687 N2684 1.350 . S
C2687 C2686 1.434 . S
C2688 C2689 1.369 . S
C2688 C2690 1.419 . S
C2688 H2692 0.930 . S
C2689 C2688 1.369 . S
C2689 C2698 1.429 . S
C2690 C2688 1.419 . S
C2690 C2691 1.363 . S
C2690 H2693 0.929 . S
C2691 C2690 1.363 . S
C2691 C2697 1.428 . S
H2692 C2688 0.930 . S
H2693 C2690 0.929 . S
S2694 N2695 1.613 . S
S2694 N2696 1.610 . S
N2695 S2694 1.613 . S
N2695 C2698 1.350 . S
N2696 S2694 1.610 . S
N2696 C2697 1.351 . S
C2697 C2691 1.428 . S
C2697 N2696 1.351 . S
C2697 C2698 1.434 . S
C2698 C2689 1.429 . S
C2698 N2695 1.350 . S
C2698 C2697 1.434 . S
C2699 C2700 1.369 . S
C2699 C2701 1.419 . S
C2699 H2703 0.930 . S
C2700 C2699 1.369 . S
C2700 C2709 1.429 . S
C2701 C2699 1.419 . S
C2701 C2702 1.363 . S
C2701 H2704 0.929 . S
C2702 C2701 1.363 . S
C2702 C2708 1.428 . S
H2703 C2699 0.930 . S
H2704 C2701 0.929 . S
S2705 N2706 1.613 . S
S2705 N2707 1.610 . S
N2706 S2705 1.613 . S
N2706 C2709 1.350 . S
N2707 S2705 1.610 . S
N2707 C2708 1.351 . S
C2708 C2702 1.428 . S
C2708 N2707 1.351 . S
C2708 C2709 1.434 . S
C2709 C2700 1.429 . S
C2709 N2706 1.350 . S
C2709 C2708 1.434 . S
C2710 C2711 1.369 . S
C2710 C2712 1.419 . S
C2710 H2714 0.930 . S
C2711 C2710 1.369 . S
C2711 C2720 1.429 . S
C2712 C2710 1.419 . S
C2712 C2713 1.363 . S
C2712 H2715 0.929 . S
C2713 C2712 1.363 . S
C2713 C2719 1.428 . S
H2714 C2710 0.930 . S
H2715 C2712 0.929 . S
S2716 N2717 1.613 . S
S2716 N2718 1.610 . S
N2717 S2716 1.613 . S
N2717 C2720 1.350 . S
N2718 S2716 1.610 . S
N2718 C2719 1.351 . S
C2719 C2713 1.428 . S
C2719 N2718 1.351 . S
C2719 C2720 1.434 . S
C2720 C2711 1.429 . S
C2720 N2717 1.350 . S
C2720 C2719 1.434 . S
C2721 C2722 1.369 . S
C2721 C2723 1.419 . S
C2721 H2725 0.930 . S
C2722 C2721 1.369 . S
C2722 C2731 1.429 . S
C2723 C2721 1.419 . S
C2723 C2724 1.363 . S
C2723 H2726 0.929 . S
C2724 C2723 1.363 . S
C2724 C2730 1.428 . S
H2725 C2721 0.930 . S
H2726 C2723 0.929 . S
S2727 N2728 1.613 . S
S2727 N2729 1.610 . S
N2728 S2727 1.613 . S
N2728 C2731 1.350 . S
N2729 S2727 1.610 . S
N2729 C2730 1.351 . S
C2730 C2724 1.428 . S
C2730 N2729 1.351 . S
C2730 C2731 1.434 . S
C2731 C2722 1.429 . S
C2731 N2728 1.350 . S
C2731 C2730 1.434 . S
C2732 C2733 1.369 . S
C2732 C2734 1.419 . S
C2732 H2736 0.930 . S
C2733 C2732 1.369 . S
C2733 C2742 1.429 . S
C2734 C2732 1.419 . S
C2734 C2735 1.363 . S
C2734 H2737 0.929 . S
C2735 C2734 1.363 . S
C2735 C2741 1.428 . S
H2736 C2732 0.930 . S
H2737 C2734 0.929 . S
S2738 N2739 1.613 . S
S2738 N2740 1.610 . S
N2739 S2738 1.613 . S
N2739 C2742 1.350 . S
N2740 S2738 1.610 . S
N2740 C2741 1.351 . S
C2741 C2735 1.428 . S
C2741 N2740 1.351 . S
C2741 C2742 1.434 . S
C2742 C2733 1.429 . S
C2742 N2739 1.350 . S
C2742 C2741 1.434 . S
C2743 C2744 1.369 . S
C2743 C2745 1.419 . S
C2743 H2747 0.930 . S
C2744 C2743 1.369 . S
C2744 C2753 1.429 . S
C2745 C2743 1.419 . S
C2745 C2746 1.363 . S
C2745 H2748 0.929 . S
C2746 C2745 1.363 . S
C2746 C2752 1.428 . S
H2747 C2743 0.930 . S
H2748 C2745 0.929 . S
S2749 N2750 1.613 . S
S2749 N2751 1.610 . S
N2750 S2749 1.613 . S
N2750 C2753 1.350 . S
N2751 S2749 1.610 . S
N2751 C2752 1.351 . S
C2752 C2746 1.428 . S
C2752 N2751 1.351 . S
C2752 C2753 1.434 . S
C2753 C2744 1.429 . S
C2753 N2750 1.350 . S
C2753 C2752 1.434 . S
C2754 C2755 1.369 . S
C2754 C2756 1.419 . S
C2754 H2758 0.930 . S
C2755 C2754 1.369 . S
C2755 C2764 1.429 . S
C2756 C2754 1.419 . S
C2756 C2757 1.363 . S
C2756 H2759 0.929 . S
C2757 C2756 1.363 . S
C2757 C2763 1.428 . S
H2758 C2754 0.930 . S
H2759 C2756 0.929 . S
S2760 N2761 1.613 . S
S2760 N2762 1.610 . S
N2761 S2760 1.613 . S
N2761 C2764 1.350 . S
N2762 S2760 1.610 . S
N2762 C2763 1.351 . S
C2763 C2757 1.428 . S
C2763 N2762 1.351 . S
C2763 C2764 1.434 . S
C2764 C2755 1.429 . S
C2764 N2761 1.350 . S
C2764 C2763 1.434 . S
C2765 C2766 1.369 . S
C2765 C2767 1.419 . S
C2765 H2769 0.930 . S
C2766 C2765 1.369 . S
C2766 C2775 1.429 . S
C2767 C2765 1.419 . S
C2767 C2768 1.363 . S
C2767 H2770 0.929 . S
C2768 C2767 1.363 . S
C2768 C2774 1.428 . S
H2769 C2765 0.930 . S
H2770 C2767 0.929 . S
S2771 N2772 1.613 . S
S2771 N2773 1.610 . S
N2772 S2771 1.613 . S
N2772 C2775 1.350 . S
N2773 S2771 1.610 . S
N2773 C2774 1.351 . S
C2774 C2768 1.428 . S
C2774 N2773 1.351 . S
C2774 C2775 1.434 . S
C2775 C2766 1.429 . S
C2775 N2772 1.350 . S
C2775 C2774 1.434 . S
C2776 C2777 1.369 . S
C2776 C2778 1.419 . S
C2776 H2780 0.930 . S
C2777 C2776 1.369 . S
C2777 C2786 1.429 . S
C2778 C2776 1.419 . S
C2778 C2779 1.363 . S
C2778 H2781 0.929 . S
C2779 C2778 1.363 . S
C2779 C2785 1.428 . S
H2780 C2776 0.930 . S
H2781 C2778 0.929 . S
S2782 N2783 1.613 . S
S2782 N2784 1.610 . S
N2783 S2782 1.613 . S
N2783 C2786 1.350 . S
N2784 S2782 1.610 . S
N2784 C2785 1.351 . S
C2785 C2779 1.428 . S
C2785 N2784 1.351 . S
C2785 C2786 1.434 . S
C2786 C2777 1.429 . S
C2786 N2783 1.350 . S
C2786 C2785 1.434 . S
C2787 C2788 1.369 . S
C2787 C2789 1.419 . S
C2787 H2791 0.930 . S
C2788 C2787 1.369 . S
C2788 C2797 1.429 . S
C2789 C2787 1.419 . S
C2789 C2790 1.363 . S
C2789 H2792 0.929 . S
C2790 C2789 1.363 . S
C2790 C2796 1.428 . S
H2791 C2787 0.930 . S
H2792 C2789 0.929 . S
S2793 N2794 1.613 . S
S2793 N2795 1.610 . S
N2794 S2793 1.613 . S
N2794 C2797 1.350 . S
N2795 S2793 1.610 . S
N2795 C2796 1.351 . S
C2796 C2790 1.428 . S
C2796 N2795 1.351 . S
C2796 C2797 1.434 . S
C2797 C2788 1.429 . S
C2797 N2794 1.350 . S
C2797 C2796 1.434 . S
C2798 C2799 1.369 . S
C2798 C2800 1.419 . S
C2798 H2802 0.930 . S
C2799 C2798 1.369 . S
C2799 C2808 1.429 . S
C2800 C2798 1.419 . S
C2800 C2801 1.363 . S
C2800 H2803 0.929 . S
C2801 C2800 1.363 . S
C2801 C2807 1.428 . S
H2802 C2798 0.930 . S
H2803 C2800 0.929 . S
S2804 N2805 1.613 . S
S2804 N2806 1.610 . S
N2805 S2804 1.613 . S
N2805 C2808 1.350 . S
N2806 S2804 1.610 . S
N2806 C2807 1.351 . S
C2807 C2801 1.428 . S
C2807 N2806 1.351 . S
C2807 C2808 1.434 . S
C2808 C2799 1.429 . S
C2808 N2805 1.350 . S
C2808 C2807 1.434 . S
C2809 C2810 1.369 . S
C2809 C2811 1.419 . S
C2809 H2813 0.930 . S
C2810 C2809 1.369 . S
C2810 C2819 1.429 . S
C2811 C2809 1.419 . S
C2811 C2812 1.363 . S
C2811 H2814 0.929 . S
C2812 C2811 1.363 . S
C2812 C2818 1.428 . S
H2813 C2809 0.930 . S
H2814 C2811 0.929 . S
S2815 N2816 1.613 . S
S2815 N2817 1.610 . S
N2816 S2815 1.613 . S
N2816 C2819 1.350 . S
N2817 S2815 1.610 . S
N2817 C2818 1.351 . S
C2818 C2812 1.428 . S
C2818 N2817 1.351 . S
C2818 C2819 1.434 . S
C2819 C2810 1.429 . S
C2819 N2816 1.350 . S
C2819 C2818 1.434 . S
C2820 C2821 1.369 . S
C2820 C2822 1.419 . S
C2820 H2824 0.930 . S
C2821 C2820 1.369 . S
C2821 C2830 1.429 . S
C2822 C2820 1.419 . S
C2822 C2823 1.363 . S
C2822 H2825 0.929 . S
C2823 C2822 1.363 . S
C2823 C2829 1.428 . S
H2824 C2820 0.930 . S
H2825 C2822 0.929 . S
S2826 N2827 1.613 . S
S2826 N2828 1.610 . S
N2827 S2826 1.613 . S
N2827 C2830 1.350 . S
N2828 S2826 1.610 . S
N2828 C2829 1.351 . S
C2829 C2823 1.428 . S
C2829 N2828 1.351 . S
C2829 C2830 1.434 . S
C2830 C2821 1.429 . S
C2830 N2827 1.350 . S
C2830 C2829 1.434 . S
C2831 C2832 1.369 . S
C2831 C2833 1.419 . S
C2831 H2835 0.930 . S
C2832 C2831 1.369 . S
C2832 C2841 1.429 . S
C2833 C2831 1.419 . S
C2833 C2834 1.363 . S
C2833 H2836 0.929 . S
C2834 C2833 1.363 . S
C2834 C2840 1.428 . S
H2835 C2831 0.930 . S
H2836 C2833 0.929 . S
S2837 N2838 1.613 . S
S2837 N2839 1.610 . S
N2838 S2837 1.613 . S
N2838 C2841 1.350 . S
N2839 S2837 1.610 . S
N2839 C2840 1.351 . S
C2840 C2834 1.428 . S
C2840 N2839 1.351 . S
C2840 C2841 1.434 . S
C2841 C2832 1.429 . S
C2841 N2838 1.350 . S
C2841 C2840 1.434 . S
C2842 C2843 1.369 . S
C2842 C2844 1.419 . S
C2842 H2846 0.930 . S
C2843 C2842 1.369 . S
C2843 C2852 1.429 . S
C2844 C2842 1.419 . S
C2844 C2845 1.363 . S
C2844 H2847 0.929 . S
C2845 C2844 1.363 . S
C2845 C2851 1.428 . S
H2846 C2842 0.930 . S
H2847 C2844 0.929 . S
S2848 N2849 1.613 . S
S2848 N2850 1.610 . S
N2849 S2848 1.613 . S
N2849 C2852 1.350 . S
N2850 S2848 1.610 . S
N2850 C2851 1.351 . S
C2851 C2845 1.428 . S
C2851 N2850 1.351 . S
C2851 C2852 1.434 . S
C2852 C2843 1.429 . S
C2852 N2849 1.350 . S
C2852 C2851 1.434 . S
C2853 C2854 1.369 . S
C2853 C2855 1.419 . S
C2853 H2857 0.930 . S
C2854 C2853 1.369 . S
C2854 C2863 1.429 . S
C2855 C2853 1.419 . S
C2855 C2856 1.363 . S
C2855 H2858 0.929 . S
C2856 C2855 1.363 . S
C2856 C2862 1.428 . S
H2857 C2853 0.930 . S
H2858 C2855 0.929 . S
S2859 N2860 1.613 . S
S2859 N2861 1.610 . S
N2860 S2859 1.613 . S
N2860 C2863 1.350 . S
N2861 S2859 1.610 . S
N2861 C2862 1.351 . S
C2862 C2856 1.428 . S
C2862 N2861 1.351 . S
C2862 C2863 1.434 . S
C2863 C2854 1.429 . S
C2863 N2860 1.350 . S
C2863 C2862 1.434 . S
C2864 C2865 1.369 . S
C2864 C2866 1.419 . S
C2864 H2868 0.930 . S
C2865 C2864 1.369 . S
C2865 C2874 1.429 . S
C2866 C2864 1.419 . S
C2866 C2867 1.363 . S
C2866 H2869 0.929 . S
C2867 C2866 1.363 . S
C2867 C2873 1.428 . S
H2868 C2864 0.930 . S
H2869 C2866 0.929 . S
S2870 N2871 1.613 . S
S2870 N2872 1.610 . S
N2871 S2870 1.613 . S
N2871 C2874 1.350 . S
N2872 S2870 1.610 . S
N2872 C2873 1.351 . S
C2873 C2867 1.428 . S
C2873 N2872 1.351 . S
C2873 C2874 1.434 . S
C2874 C2865 1.429 . S
C2874 N2871 1.350 . S
C2874 C2873 1.434 . S
C2875 C2876 1.369 . S
C2875 C2877 1.419 . S
C2875 H2879 0.930 . S
C2876 C2875 1.369 . S
C2876 C2885 1.429 . S
C2877 C2875 1.419 . S
C2877 C2878 1.363 . S
C2877 H2880 0.929 . S
C2878 C2877 1.363 . S
C2878 C2884 1.428 . S
H2879 C2875 0.930 . S
H2880 C2877 0.929 . S
S2881 N2882 1.613 . S
S2881 N2883 1.610 . S
N2882 S2881 1.613 . S
N2882 C2885 1.350 . S
N2883 S2881 1.610 . S
N2883 C2884 1.351 . S
C2884 C2878 1.428 . S
C2884 N2883 1.351 . S
C2884 C2885 1.434 . S
C2885 C2876 1.429 . S
C2885 N2882 1.350 . S
C2885 C2884 1.434 . S
C2886 C2887 1.369 . S
C2886 C2888 1.419 . S
C2886 H2890 0.930 . S
C2887 C2886 1.369 . S
C2887 C2896 1.429 . S
C2888 C2886 1.419 . S
C2888 C2889 1.363 . S
C2888 H2891 0.929 . S
C2889 C2888 1.363 . S
C2889 C2895 1.428 . S
H2890 C2886 0.930 . S
H2891 C2888 0.929 . S
S2892 N2893 1.613 . S
S2892 N2894 1.610 . S
N2893 S2892 1.613 . S
N2893 C2896 1.350 . S
N2894 S2892 1.610 . S
N2894 C2895 1.351 . S
C2895 C2889 1.428 . S
C2895 N2894 1.351 . S
C2895 C2896 1.434 . S
C2896 C2887 1.429 . S
C2896 N2893 1.350 . S
C2896 C2895 1.434 . S
C2897 C2898 1.369 . S
C2897 C2899 1.419 . S
C2897 H2901 0.930 . S
C2898 C2897 1.369 . S
C2898 C2907 1.429 . S
C2899 C2897 1.419 . S
C2899 C2900 1.363 . S
C2899 H2902 0.929 . S
C2900 C2899 1.363 . S
C2900 C2906 1.428 . S
H2901 C2897 0.930 . S
H2902 C2899 0.929 . S
S2903 N2904 1.613 . S
S2903 N2905 1.610 . S
N2904 S2903 1.613 . S
N2904 C2907 1.350 . S
N2905 S2903 1.610 . S
N2905 C2906 1.351 . S
C2906 C2900 1.428 . S
C2906 N2905 1.351 . S
C2906 C2907 1.434 . S
C2907 C2898 1.429 . S
C2907 N2904 1.350 . S
C2907 C2906 1.434 . S
C2908 C2909 1.369 . S
C2908 C2910 1.419 . S
C2908 H2912 0.930 . S
C2909 C2908 1.369 . S
C2909 C2918 1.429 . S
C2910 C2908 1.419 . S
C2910 C2911 1.363 . S
C2910 H2913 0.929 . S
C2911 C2910 1.363 . S
C2911 C2917 1.428 . S
H2912 C2908 0.930 . S
H2913 C2910 0.929 . S
S2914 N2915 1.613 . S
S2914 N2916 1.610 . S
N2915 S2914 1.613 . S
N2915 C2918 1.350 . S
N2916 S2914 1.610 . S
N2916 C2917 1.351 . S
C2917 C2911 1.428 . S
C2917 N2916 1.351 . S
C2917 C2918 1.434 . S
C2918 C2909 1.429 . S
C2918 N2915 1.350 . S
C2918 C2917 1.434 . S
C2919 C2920 1.369 . S
C2919 C2921 1.419 . S
C2919 H2923 0.930 . S
C2920 C2919 1.369 . S
C2920 C2929 1.429 . S
C2921 C2919 1.419 . S
C2921 C2922 1.363 . S
C2921 H2924 0.929 . S
C2922 C2921 1.363 . S
C2922 C2928 1.428 . S
H2923 C2919 0.930 . S
H2924 C2921 0.929 . S
S2925 N2926 1.613 . S
S2925 N2927 1.610 . S
N2926 S2925 1.613 . S
N2926 C2929 1.350 . S
N2927 S2925 1.610 . S
N2927 C2928 1.351 . S
C2928 C2922 1.428 . S
C2928 N2927 1.351 . S
C2928 C2929 1.434 . S
C2929 C2920 1.429 . S
C2929 N2926 1.350 . S
C2929 C2928 1.434 . S
C2930 C2931 1.369 . S
C2930 C2932 1.419 . S
C2930 H2934 0.930 . S
C2931 C2930 1.369 . S
C2931 C2940 1.429 . S
C2932 C2930 1.419 . S
C2932 C2933 1.363 . S
C2932 H2935 0.929 . S
C2933 C2932 1.363 . S
C2933 C2939 1.428 . S
H2934 C2930 0.930 . S
H2935 C2932 0.929 . S
S2936 N2937 1.613 . S
S2936 N2938 1.610 . S
N2937 S2936 1.613 . S
N2937 C2940 1.350 . S
N2938 S2936 1.610 . S
N2938 C2939 1.351 . S
C2939 C2933 1.428 . S
C2939 N2938 1.351 . S
C2939 C2940 1.434 . S
C2940 C2931 1.429 . S
C2940 N2937 1.350 . S
C2940 C2939 1.434 . S
C2941 C2942 1.369 . S
C2941 C2943 1.419 . S
C2941 H2945 0.930 . S
C2942 C2941 1.369 . S
C2942 C2951 1.429 . S
C2943 C2941 1.419 . S
C2943 C2944 1.363 . S
C2943 H2946 0.929 . S
C2944 C2943 1.363 . S
C2944 C2950 1.428 . S
H2945 C2941 0.930 . S
H2946 C2943 0.929 . S
S2947 N2948 1.613 . S
S2947 N2949 1.610 . S
N2948 S2947 1.613 . S
N2948 C2951 1.350 . S
N2949 S2947 1.610 . S
N2949 C2950 1.351 . S
C2950 C2944 1.428 . S
C2950 N2949 1.351 . S
C2950 C2951 1.434 . S
C2951 C2942 1.429 . S
C2951 N2948 1.350 . S
C2951 C2950 1.434 . S
C1633 C292 1.023 . S
C1635 C5 1.044 . S
C1644 C326 1.012 . S
C1646 C39 1.048 . S
C1655 C73 1.042 . S
C1657 C360 1.018 . S
C1666 C107 1.046 . S
C1668 C394 1.024 . S
C1677 C141 1.042 . S
C1679 C428 1.018 . S
C1688 C462 1.014 . S
C1690 C175 1.044 . S
C1699 C496 1.019 . S
C1701 C209 1.043 . S
C1710 C243 1.046 . S
C1712 C530 1.024 . S
C1721 C277 1.046 . S
C1723 C564 1.024 . S
C1732 C311 1.050 . S
C1734 C1618 1.016 . S
C1743 C345 1.044 . S
C1745 C1550 1.013 . S
C1754 C379 1.047 . S
C1756 C1584 1.013 . S
C1765 C598 1.020 . S
C1767 C413 1.050 . S
C1776 C632 1.024 . S
C1778 C447 1.044 . S
C1787 C481 1.048 . S
C1789 C666 1.014 . S
C1798 C515 1.044 . S
C1800 C1516 1.023 . S
C1809 C549 1.043 . S
C1811 C20 1.014 . S
C1820 C156 1.022 . S
C1822 C583 1.044 . S
C1831 C617 1.048 . S
C1833 C190 1.024 . S
C1842 C224 1.024 . S
C1844 C651 1.045 . S
C1853 C685 1.043 . S
C1855 C1074 1.021 . S
C1864 C719 1.044 . S
C1866 C904 1.022 . S
C1875 C753 1.046 . S
C1877 C938 1.024 . S
C1886 C787 1.046 . S
C1888 C870 1.013 . S
C1897 C1108 1.022 . S
C1899 C821 1.044 . S
C1908 C1142 1.026 . S
C1910 C855 1.048 . S
C1919 C1176 1.020 . S
C1921 C889 1.043 . S
C1930 C923 1.044 . S
C1932 C1210 1.023 . S
C1941 C1244 1.015 . S
C1943 C957 1.049 . S
C1952 C1278 1.013 . S
C1954 C991 1.044 . S
C1963 C1025 1.051 . S
C1965 C1312 1.021 . S
C1974 C1059 1.051 . S
C1976 C1346 1.017 . S
C1985 C1093 1.042 . S
C1987 C1380 1.019 . S
C1996 C802 1.022 . S
C1998 C1127 1.050 . S
C2007 C734 1.012 . S
C2009 C1161 1.044 . S
C2018 C1195 1.048 . S
C2020 C768 1.014 . S
C2029 C1229 1.049 . S
C2031 C1414 1.024 . S
C2040 C1263 1.042 . S
C2042 C1448 1.017 . S
C2051 C1482 1.026 . S
C2053 C1297 1.049 . S
C2062 C1331 1.051 . S
C2064 C700 1.020 . S
C2073 C836 1.011 . S
C2075 C1365 1.045 . S
C2084 C1399 1.046 . S
C2086 C972 1.024 . S
C2095 C1433 1.044 . S
C2097 C1006 1.014 . S
C2106 C1040 1.024 . S
C2108 C1467 1.045 . S
C2117 C1501 1.044 . S
C2119 C258 1.013 . S
C2128 C1535 1.050 . S
C2130 C88 1.016 . S
C2139 C122 1.026 . S
C2141 C1569 1.047 . S
C2150 C54 1.013 . S
C2152 C1603 1.049 . S
C2161 C33 2.098 . S
C2163 C101 2.098 . S
C2172 C67 2.098 . S
C2174 C135 2.098 . S
C2183 C237 2.097 . S
C2185 C169 2.099 . S
C2194 C203 2.096 . S
C2196 C271 2.099 . S
C2205 C441 2.098 . S
C2207 C305 2.097 . S
C2216 C339 2.097 . S
C2218 C475 2.099 . S
C2227 C509 2.096 . S
C2229 C373 2.098 . S
C2238 C543 2.099 . S
C2240 C407 2.097 . S
C2249 C1495 2.097 . S
C2251 C577 2.099 . S
C2260 C611 2.096 . S
C2262 C747 2.099 . S
C2271 C645 2.099 . S
C2273 C781 2.097 . S
C2282 C679 2.100 . S
C2284 C1393 2.097 . S
C2293 C1631 2.097 . S
C2295 C713 2.098 . S
C2304 C1529 2.097 . S
C2306 C815 2.099 . S
C2315 C917 2.099 . S
C2317 C849 2.097 . S
C2326 C951 2.099 . S
C2328 C883 2.097 . S
C2337 C1053 2.099 . S
C2339 C985 2.098 . S
C2348 C1087 2.097 . S
C2350 C1019 2.099 . S
C2359 C1121 2.100 . S
C2361 C1257 2.097 . S
C2370 C1291 2.096 . S
C2372 C1155 2.099 . S
C2381 C1189 2.096 . S
C2383 C1325 2.099 . S
C2392 C1359 2.099 . S
C2394 C1223 2.097 . S
C2403 C1563 2.096 . S
C2405 C1427 2.099 . S
C2414 C1461 2.096 . S
C2416 C1597 2.099 . S
C2425 C444 1.850 . S
C2427 C9 1.881 . S
C2436 C478 1.850 . S
C2438 C43 1.881 . S
C2447 C77 1.877 . S
C2449 C512 1.851 1_545 S
C2458 C111 1.880 . S
C2460 C410 1.849 . S
C2469 C145 1.880 . S
C2471 C1192 1.855 . S
C2480 C1090 1.849 . S
C2482 C179 1.879 . S
C2491 C1124 1.851 1_565 S
C2493 C213 1.877 . S
C2502 C247 1.882 . S
C2504 C1158 1.851 . S
C2513 C281 1.878 . S
C2515 C852 1.849 . S
C2524 C886 1.852 . S
C2526 C315 1.881 . S
C2535 C920 1.850 . S
C2537 C349 1.877 . S
C2546 C383 1.881 . S
C2548 C818 1.851 . S
C2557 C417 1.877 . S
C2559 C240 1.853 1_554 S
C2568 C451 1.876 . S
C2570 C138 1.852 . S
C2579 C172 1.849 1_554 S
C2581 C485 1.879 . S
C2590 C519 1.881 . S
C2592 C206 1.851 . S
C2601 C1566 1.849 . S
C2603 C553 1.879 . S
C2612 C587 1.877 . S
C2614 C1430 1.854 . S
C2623 C1464 1.855 . S
C2625 C621 1.878 . S
C2634 C655 1.880 . S
C2636 C682 1.855 . S
C2645 C580 1.855 . S
C2647 C689 1.879 . S
C2656 C723 1.879 . S
C2658 C784 1.850 1_455 S
C2667 C757 1.879 . S
C2669 C716 1.849 . S
C2678 C1362 1.850 . S
C2680 C791 1.881 . S
C2689 C1260 1.850 1_565 S
C2691 C825 1.879 . S
C2700 C1294 1.855 . S
C2702 C859 1.881 . S
C2711 C893 1.876 . S
C2713 C1328 1.852 . S
C2722 C927 1.876 . S
C2724 C1226 1.852 . S
C2733 C376 1.856 1_545 S
C2735 C961 1.878 . S
C2744 C995 1.876 . S
C2746 C274 1.852 . S
C2755 C1029 1.877 . S
C2757 C308 1.852 . S
C2766 C1063 1.882 . S
C2768 C342 1.852 . S
C2777 C1097 1.880 . S
C2779 C36 1.851 1_556 S
C2788 C1131 1.877 . S
C2790 C70 1.850 . S
C2799 C1165 1.880 . S
C2801 C104 1.856 1_556 S
C2810 C1199 1.878 . S
C2812 C2 1.850 . S
C2821 C1056 1.855 . S
C2823 C1233 1.881 . S
C2832 C954 1.849 . S
C2834 C1267 1.878 . S
C2843 C1301 1.879 . S
C2845 C988 1.849 . S
C2854 C1335 1.877 . S
C2856 C1022 1.851 . S
C2865 C750 1.854 1_655 S
C2867 C1369 1.877 . S
C2876 C1403 1.877 . S
C2878 C614 1.854 1_655 S
C2887 C648 1.855 . S
C2889 C1437 1.878 . S
C2898 C1471 1.880 . S
C2900 C1498 1.856 1_455 S
C2909 C1396 1.855 . S
C2911 C1505 1.878 . S
C2920 C1600 1.852 . S
C2922 C1539 1.877 . S
C2931 C1532 1.848 . S
C2933 C1573 1.879 . S
C2942 C1607 1.877 . S
C2944 C546 1.853 . S
