# Generated by pormake.
# Topology xfx, (5)-cn, num edge types: 1
# Building blocks:
#     Node 0, Type 0, BuildingBlock: BEQFEK_clean_sbu_0, # of connection points: 5
#     Node 1, Type 0, BuildingBlock: BEQFEK_clean_sbu_0, # of connection points: 5
#     Node 2, Type 0, BuildingBlock: BEQFEK_clean_sbu_0, # of connection points: 5
#     Node 3, Type 0, BuildingBlock: BEQFEK_clean_sbu_0, # of connection points: 5
#     Node 4, Type 0, BuildingBlock: BEQFEK_clean_sbu_0, # of connection points: 5
#     Node 5, Type 0, BuildingBlock: BEQFEK_clean_sbu_0, # of connection points: 5
#     Node 6, Type 0, BuildingBlock: BEQFEK_clean_sbu_0, # of connection points: 5
#     Node 7, Type 0, BuildingBlock: BEQFEK_clean_sbu_0, # of connection points: 5
#     Edge 8, Type (0, 0), BuildingBlock: MIFKUJ_clean_linker_0, # of connection points: 2
#     Edge 9, Type (0, 0), BuildingBlock: MIFKUJ_clean_linker_0, # of connection points: 2
#     Edge 10, Type (0, 0), BuildingBlock: MIFKUJ_clean_linker_0, # of connection points: 2
#     Edge 11, Type (0, 0), BuildingBlock: MIFKUJ_clean_linker_0, # of connection points: 2
#     Edge 12, Type (0, 0), BuildingBlock: MIFKUJ_clean_linker_0, # of connection points: 2
#     Edge 13, Type (0, 0), BuildingBlock: MIFKUJ_clean_linker_0, # of connection points: 2
#     Edge 14, Type (0, 0), BuildingBlock: MIFKUJ_clean_linker_0, # of connection points: 2
#     Edge 15, Type (0, 0), BuildingBlock: MIFKUJ_clean_linker_0, # of connection points: 2
#     Edge 16, Type (0, 0), BuildingBlock: MIFKUJ_clean_linker_0, # of connection points: 2
#     Edge 17, Type (0, 0), BuildingBlock: MIFKUJ_clean_linker_0, # of connection points: 2
#     Edge 18, Type (0, 0), BuildingBlock: MIFKUJ_clean_linker_0, # of connection points: 2
#     Edge 19, Type (0, 0), BuildingBlock: MIFKUJ_clean_linker_0, # of connection points: 2
#     Edge 20, Type (0, 0), BuildingBlock: MIFKUJ_clean_linker_0, # of connection points: 2
#     Edge 21, Type (0, 0), BuildingBlock: MIFKUJ_clean_linker_0, # of connection points: 2
#     Edge 22, Type (0, 0), BuildingBlock: MIFKUJ_clean_linker_0, # of connection points: 2
#     Edge 23, Type (0, 0), BuildingBlock: MIFKUJ_clean_linker_0, # of connection points: 2
#     Edge 24, Type (0, 0), BuildingBlock: MIFKUJ_clean_linker_0, # of connection points: 2
#     Edge 25, Type (0, 0), BuildingBlock: MIFKUJ_clean_linker_0, # of connection points: 2
#     Edge 26, Type (0, 0), BuildingBlock: MIFKUJ_clean_linker_0, # of connection points: 2
#     Edge 27, Type (0, 0), BuildingBlock: MIFKUJ_clean_linker_0, # of connection points: 2
# Relax obj value: 0.362
# Max RMSD: 0.205
# Mean RMSD: 0.205
data_MOF--net-xfx--node1-BEQFEK_clean_sbu_0--edge1-MIFKUJ_clean_linker_0
_symmetry_space_group_name_H-M    P1
_symmetry_Int_Tables_number       1
_symmetry_cell_setting            triclinic
loop_
_symmetry_equiv_pos_as_xyz
'x, y, z'
_cell_length_a     49.500503
_cell_length_b     49.497892
_cell_length_c     40.854789
_cell_angle_alpha  89.979067
_cell_angle_beta   90.018539
_cell_angle_gamma 79.995321
loop_
_atom_site_label
_atom_site_type_symbol
_atom_site_fract_x
_atom_site_fract_y
_atom_site_fract_z
_atom_type_partial_charge
Co0 Co 0.33624 0.03256 0.42234 0.0
Co1 Co 0.32513 0.98166 0.46194 0.0
C2 C 0.3395 0.97738 0.39084 0.0
O3 O 0.34173 0.00254 0.39018 0.0
O4 O 0.33258 0.96635 0.41696 0.0
C5 C 0.32746 0.06875 0.36899 0.0
O6 O 0.31399 0.0498 0.35843 0.0
C7 C 0.29327 0.93967 0.4781 0.0
C8 C 0.31241 0.9217 0.52383 0.0
C9 C 0.29207 0.91948 0.5012 0.0
N10 N 0.3132 0.95348 0.48678 0.0
N11 N 0.32454 0.94276 0.51421 0.0
C12 C 0.27771 0.94406 0.44655 0.0
H13 H 0.2822 0.9625 0.43366 0.0
H14 H 0.25536 0.94662 0.45112 0.0
H15 H 0.2835 0.92575 0.43072 0.0
C16 C 0.28113 0.05594 0.44694 0.0
N17 N 0.3024 0.03508 0.44428 0.0
N18 N 0.29758 0.01416 0.4619 0.0
C19 C 0.27294 0.02131 0.47671 0.0
C20 C 0.26172 0.04796 0.46762 0.0
C21 C 0.27908 0.08244 0.4286 0.0
H22 H 0.2974 0.09183 0.43378 0.0
H23 H 0.27857 0.07818 0.40203 0.0
H24 H 0.2603 0.09723 0.43463 0.0
O25 O 0.36689 0.02646 0.45375 0.0
O26 O 0.36052 0.989 0.48062 0.0
H27 H 0.27761 0.99203 0.51601 0.0
H28 H 0.24596 0.01658 0.51705 0.0
C29 C 0.26109 0.00386 0.50085 0.0
H30 H 0.25045 0.9893 0.48747 0.0
H31 H 0.34093 0.94941 0.52594 0.0
O32 O 0.33832 0.06621 0.39725 0.0
C33 C 0.37448 0.0079 0.47505 0.0
Co34 Co 0.00641 0.68994 0.58559 0.0
Co35 Co 0.05105 0.69608 0.53353 0.0
C36 C 0.06412 0.68827 0.60558 0.0
O37 O 0.03911 0.68861 0.61259 0.0
O38 O 0.07193 0.69 0.57607 0.0
C39 C 0.97592 0.69586 0.64508 0.0
O40 O 0.99727 0.7056 0.65596 0.0
C41 C 0.08949 0.72786 0.50687 0.0
C42 C 0.10498 0.70533 0.4621 0.0
C43 C 0.10772 0.7278 0.48124 0.0
N44 N 0.0762 0.70667 0.50298 0.0
N45 N 0.0854 0.6933 0.47608 0.0
C46 C 0.08681 0.74599 0.53647 0.0
H47 H 0.10692 0.74381 0.54913 0.0
H48 H 0.07112 0.74067 0.55353 0.0
H49 H 0.08095 0.76777 0.52909 0.0
C50 C 0.98015 0.74291 0.55844 0.0
N51 N 0.00101 0.72158 0.55957 0.0
N52 N 0.01902 0.72429 0.53665 0.0
C53 C 0.00962 0.74741 0.5195 0.0
C54 C 0.98473 0.75995 0.53285 0.0
C55 C 0.9569 0.74723 0.5824 0.0
H56 H 0.94348 0.73185 0.57787 0.0
H57 H 0.96516 0.74412 0.60759 0.0
H58 H 0.94459 0.76816 0.58071 0.0
O59 O 0.00999 0.65665 0.55804 0.0
O60 O 0.04061 0.66071 0.51946 0.0
H61 H 0.03328 0.73798 0.47558 0.0
H62 H 0.00733 0.76856 0.47314 0.0
C63 C 0.02279 0.75615 0.48924 0.0
H64 H 0.03812 0.76897 0.49624 0.0
H65 H 0.07886 0.67557 0.46776 0.0
O66 O 0.97508 0.6889 0.61521 0.0
C67 C 0.02368 0.64739 0.53283 0.0
Co68 Co 0.69577 0.99149 0.40997 0.0
Co69 Co 0.70032 0.04086 0.45594 0.0
C70 C 0.68786 0.04839 0.38388 0.0
O71 O 0.6895 0.02277 0.37949 0.0
O72 O 0.69143 0.05807 0.4121 0.0
C73 C 0.70886 0.95698 0.35507 0.0
O74 O 0.72156 0.97695 0.34593 0.0
C75 C 0.72997 0.08345 0.47627 0.0
C76 C 0.70757 0.10107 0.52022 0.0
C77 C 0.7293 0.1037 0.49976 0.0
N78 N 0.7098 0.06927 0.48267 0.0
N79 N 0.69649 0.0798 0.50903 0.0
C80 C 0.74773 0.07925 0.44639 0.0
H81 H 0.741 0.06407 0.42968 0.0
H82 H 0.7693 0.07162 0.45354 0.0
H83 H 0.74711 0.09909 0.43349 0.0
C84 C 0.75017 0.9702 0.43793 0.0
N85 N 0.72831 0.99029 0.4342 0.0
N86 N 0.73015 0.01035 0.45477 0.0
C87 C 0.75325 0.00327 0.47278 0.0
C88 C 0.76668 0.97767 0.46254 0.0
C89 C 0.75489 0.94422 0.41837 0.0
H90 H 0.75585 0.94939 0.39208 0.0
H91 H 0.77437 0.93064 0.42492 0.0
H92 H 0.73749 0.93312 0.42203 0.0
O93 O 0.66404 0.99362 0.44014 0.0
O94 O 0.66644 0.02912 0.47282 0.0
H95 H 0.77356 0.00517 0.51929 0.0
H96 H 0.77258 0.03466 0.49345 0.0
C97 C 0.76067 0.01894 0.50177 0.0
H98 H 0.7419 0.02934 0.51439 0.0
H99 H 0.67951 0.07287 0.51895 0.0
O100 O 0.69704 0.9584 0.38278 0.0
C101 C 0.65461 0.00947 0.46361 0.0
Co102 Co 0.02663 0.33031 0.58976 0.0
Co103 Co 0.97686 0.32562 0.54444 0.0
C104 C 0.96976 0.33865 0.61614 0.0
O105 O 0.99534 0.33796 0.6193 0.0
O106 O 0.95944 0.3337 0.58871 0.0
C107 C 0.05937 0.31738 0.6457 0.0
O108 O 0.03861 0.3055 0.65399 0.0
C109 C 0.93494 0.29551 0.52341 0.0
C110 C 0.91707 0.31794 0.47957 0.0
C111 C 0.91493 0.29588 0.4997 0.0
N112 N 0.94861 0.31614 0.51744 0.0
N113 N 0.93792 0.3295 0.49115 0.0
C114 C 0.93942 0.27746 0.55304 0.0
H115 H 0.95486 0.28393 0.5696 0.0
H116 H 0.94674 0.25591 0.54559 0.0
H117 H 0.91972 0.27814 0.56625 0.0
C118 C 0.04739 0.27567 0.5626 0.0
N119 N 0.02736 0.29759 0.56612 0.0
N120 N 0.00737 0.29581 0.54543 0.0
C121 C 0.01453 0.27278 0.52735 0.0
C122 C 0.04005 0.25924 0.5378 0.0
C123 C 0.07318 0.27088 0.58253 0.0
H124 H 0.06775 0.27088 0.6088 0.0
H125 H 0.08633 0.25093 0.57696 0.0
H126 H 0.08483 0.28777 0.57818 0.0
O127 O 0.02474 0.36169 0.55967 0.0
O128 O 0.98893 0.35966 0.52741 0.0
H129 H 0.01326 0.25342 0.48015 0.0
H130 H 0.98373 0.25325 0.50556 0.0
C131 C 0.99919 0.2657 0.49788 0.0
H132 H 0.98857 0.28459 0.48569 0.0
H133 H 0.94451 0.34677 0.48149 0.0
O134 O 0.05932 0.3287 0.61777 0.0
C135 C 0.00875 0.37139 0.53644 0.0
Co136 Co 0.82698 0.53106 0.91622 0.0
Co137 Co 0.82098 0.48238 0.96252 0.0
C138 C 0.83557 0.47381 0.89104 0.0
O139 O 0.83455 0.49939 0.88659 0.0
O140 O 0.83074 0.46438 0.91906 0.0
C141 C 0.81933 0.5668 0.86055 0.0
O142 O 0.80871 0.54698 0.84695 0.0
C143 C 0.79749 0.43515 0.98177 0.0
C144 C 0.80529 0.43192 0.035 0.0
C145 C 0.79369 0.41988 0.00917 0.0
N146 N 0.81107 0.45516 0.99071 0.0
N147 N 0.81587 0.45307 0.02254 0.0
C148 C 0.78626 0.43231 0.94816 0.0
H149 H 0.78263 0.45245 0.93548 0.0
H150 H 0.76681 0.42405 0.94929 0.0
H151 H 0.80135 0.4178 0.93385 0.0
C152 C 0.77121 0.5519 0.93977 0.0
N153 N 0.79366 0.53231 0.93848 0.0
N154 N 0.79087 0.51238 0.95882 0.0
C155 C 0.76632 0.51887 0.97399 0.0
C156 C 0.75315 0.54424 0.96249 0.0
C157 C 0.76717 0.57732 0.91916 0.0
H158 H 0.78289 0.58988 0.92565 0.0
H159 H 0.76992 0.57141 0.89308 0.0
H160 H 0.74641 0.58973 0.9221 0.0
O161 O 0.85736 0.52943 0.94756 0.0
O162 O 0.85436 0.49464 0.98083 0.0
H163 H 0.77287 0.49753 0.01959 0.0
H164 H 0.73754 0.51298 0.01219 0.0
C165 C 0.75668 0.50215 0.00066 0.0
H166 H 0.75295 0.4824 0.99035 0.0
H167 H 0.82595 0.46634 0.03583 0.0
O168 O 0.82726 0.56441 0.89013 0.0
C169 C 0.86628 0.51423 0.97171 0.0
Co170 Co 0.49494 0.19575 0.08511 0.0
Co171 Co 0.54371 0.20295 0.03931 0.0
C172 C 0.5522 0.18922 0.1105 0.0
O173 O 0.52666 0.19032 0.11499 0.0
O174 O 0.56183 0.19306 0.08234 0.0
C175 C 0.46141 0.20721 0.14111 0.0
O176 O 0.48148 0.21962 0.15057 0.0
C177 C 0.58918 0.22917 0.02039 0.0
C178 C 0.59313 0.22154 0.96715 0.0
C179 C 0.60363 0.23473 0.99287 0.0
N180 N 0.57058 0.21389 0.01129 0.0
N181 N 0.57315 0.20913 0.9795 0.0
C182 C 0.59355 0.23692 0.05523 0.0
H183 H 0.57355 0.24566 0.06654 0.0
H184 H 0.60804 0.25149 0.05765 0.0
H185 H 0.6022 0.21813 0.06908 0.0
C186 C 0.47278 0.25116 0.06097 0.0
N187 N 0.49259 0.22884 0.06206 0.0
N188 N 0.51304 0.23255 0.04298 0.0
C189 C 0.50679 0.25773 0.02919 0.0
C190 C 0.48117 0.27038 0.04044 0.0
C191 C 0.44549 0.25319 0.07749 0.0
H192 H 0.43816 0.23332 0.07571 0.0
H193 H 0.44771 0.25812 0.10373 0.0
H194 H 0.42991 0.26939 0.0663 0.0
O195 O 0.4978 0.16434 0.05465 0.0
O196 O 0.53233 0.16909 0.02155 0.0
H197 H 0.53095 0.25572 0.98556 0.0
H198 H 0.51565 0.29023 0.99741 0.0
C199 C 0.52532 0.26974 0.00656 0.0
H200 H 0.54437 0.27192 0.01978 0.0
H201 H 0.56095 0.19789 0.96616 0.0
O202 O 0.46254 0.19597 0.11307 0.0
C203 C 0.51357 0.15603 0.03073 0.0
Co204 Co 0.18541 0.49373 0.91948 0.0
Co205 Co 0.19299 0.54574 0.95892 0.0
C206 C 0.17897 0.5487 0.88723 0.0
O207 O 0.17897 0.52302 0.88606 0.0
O208 O 0.18419 0.56019 0.91381 0.0
C209 C 0.19559 0.4542 0.86854 0.0
O210 O 0.20837 0.47257 0.85513 0.0
C211 C 0.22072 0.59125 0.97348 0.0
C212 C 0.20521 0.60464 0.02263 0.0
C213 C 0.22261 0.61016 0.99792 0.0
N214 N 0.2032 0.57504 0.98332 0.0
N215 N 0.19387 0.58316 0.01267 0.0
C216 C 0.23382 0.58961 0.94033 0.0
H217 H 0.22151 0.60501 0.92407 0.0
H218 H 0.23439 0.56894 0.92956 0.0
H219 H 0.25488 0.5943 0.9415 0.0
C220 C 0.24118 0.47353 0.9446 0.0
N221 N 0.21884 0.49319 0.94174 0.0
N222 N 0.22248 0.51489 0.95866 0.0
C223 C 0.24756 0.50964 0.97283 0.0
C224 C 0.26032 0.48334 0.96401 0.0
C225 C 0.24326 0.44511 0.9311 0.0
H226 H 0.22351 0.4378 0.93446 0.0
H227 H 0.24778 0.44545 0.90453 0.0
H228 H 0.25969 0.43048 0.94334 0.0
O229 O 0.15457 0.49886 0.95038 0.0
O230 O 0.15893 0.53604 0.97882 0.0
H231 H 0.24394 0.53907 0.01178 0.0
H232 H 0.27829 0.51999 0.00632 0.0
C233 C 0.25933 0.52968 0.99354 0.0
H234 H 0.26458 0.54617 0.9777 0.0
H235 H 0.1798 0.57405 0.02587 0.0
O236 O 0.18482 0.45885 0.89663 0.0
C237 C 0.14611 0.51642 0.97246 0.0
Co238 Co 0.52573 0.83541 0.08291 0.0
Co239 Co 0.4747 0.8287 0.04072 0.0
C240 C 0.47016 0.8407 0.11297 0.0
O241 O 0.49571 0.84104 0.1151 0.0
O242 O 0.4593 0.83597 0.08577 0.0
C243 C 0.5631 0.82758 0.13643 0.0
O244 O 0.54304 0.81785 0.15072 0.0
C245 C 0.4323 0.79817 0.0217 0.0
C246 C 0.41405 0.82016 0.97774 0.0
C247 C 0.41199 0.7984 0.99838 0.0
N248 N 0.44602 0.81863 0.01502 0.0
N249 N 0.4351 0.8317 0.98866 0.0
C250 C 0.43704 0.78048 0.05162 0.0
H251 H 0.45354 0.78634 0.06702 0.0
H252 H 0.44297 0.75866 0.04452 0.0
H253 H 0.41774 0.78244 0.06594 0.0
C254 C 0.54669 0.78052 0.05659 0.0
N255 N 0.52668 0.80249 0.05971 0.0
N256 N 0.50611 0.7998 0.04028 0.0
C257 C 0.51285 0.77607 0.0234 0.0
C258 C 0.53874 0.76306 0.03334 0.0
C259 C 0.57262 0.77623 0.07625 0.0
H260 H 0.56745 0.77903 0.10254 0.0
H261 H 0.58475 0.75538 0.07294 0.0
H262 H 0.5852 0.79178 0.06915 0.0
O263 O 0.52132 0.86684 0.05234 0.0
O264 O 0.48395 0.86363 0.02338 0.0
H265 H 0.50967 0.75436 0.97817 0.0
H266 H 0.48153 0.75501 0.00601 0.0
C267 C 0.49629 0.76731 0.99598 0.0
H268 H 0.48478 0.78546 0.98316 0.0
H269 H 0.44169 0.84877 0.97848 0.0
O270 O 0.56035 0.83554 0.10686 0.0
C271 C 0.50375 0.87596 0.03048 0.0
H272 H 0.61529 0.04926 0.4893 0.0
H273 H 0.56867 0.04486 0.5049 0.0
H274 H 0.58778 0.95752 0.48781 0.0
H275 H 0.63393 0.96222 0.47026 0.0
H276 H 0.54386 0.97463 0.4593 0.0
H277 H 0.57294 0.98875 0.56758 0.0
H278 H 0.59437 0.01052 0.61267 0.0
H279 H 0.53651 0.08501 0.59907 0.0
H280 H 0.51495 0.06383 0.55358 0.0
H281 H 0.4081 0.96293 0.50016 0.0
H282 H 0.4569 0.95927 0.51334 0.0
H283 H 0.45141 0.04612 0.49708 0.0
H284 H 0.40281 0.04993 0.48351 0.0
H285 H 0.48884 0.02304 0.54993 0.0
H286 H 0.46669 0.00839 0.43485 0.0
H287 H 0.44466 0.98472 0.39188 0.0
H288 H 0.49076 0.9073 0.4228 0.0
H289 H 0.51275 0.93053 0.4663 0.0
C290 C 0.60969 0.02905 0.48952 0.0
C291 C 0.62816 0.00611 0.47842 0.0
C292 C 0.58302 0.02649 0.49867 0.0
C293 C 0.57457 0.00078 0.49789 0.0
C294 C 0.59363 0.97761 0.4885 0.0
C295 C 0.62004 0.98029 0.47856 0.0
C296 C 0.54525 0.99854 0.50332 0.0
C297 C 0.53217 0.98466 0.4797 0.0
C298 C 0.52956 0.01186 0.5296 0.0
C299 C 0.54243 0.02473 0.55699 0.0
C300 C 0.5649 0.00984 0.57404 0.0
C301 C 0.57705 0.02207 0.5997 0.0
C302 C 0.56684 0.04914 0.60869 0.0
C303 C 0.54441 0.06404 0.59207 0.0
C304 C 0.53218 0.05191 0.56638 0.0
C305 C 0.41708 0.98139 0.50039 0.0
C306 C 0.40174 0.00666 0.49038 0.0
C307 C 0.44495 0.97925 0.50789 0.0
C308 C 0.45773 0.0024 0.50587 0.0
C309 C 0.44189 0.02805 0.49882 0.0
C310 C 0.41416 0.03014 0.49089 0.0
C311 C 0.48801 0.99942 0.50591 0.0
C312 C 0.50104 0.01247 0.53023 0.0
C313 C 0.50384 0.98498 0.48064 0.0
C314 C 0.49112 0.97114 0.45401 0.0
C315 C 0.47199 0.9863 0.4326 0.0
C316 C 0.45953 0.97297 0.40814 0.0
C317 C 0.46625 0.94451 0.40467 0.0
C318 C 0.48554 0.92934 0.42556 0.0
C319 C 0.49801 0.94257 0.4501 0.0
H320 H 0.45656 0.93422 0.38575 0.0
H321 H 0.57628 0.05858 0.62857 0.0
H322 H 0.0471 0.62044 0.47801 0.0
H323 H 0.04321 0.57406 0.45971 0.0
H324 H 0.99013 0.56598 0.54159 0.0
H325 H 0.99317 0.61208 0.55925 0.0
H326 H 0.05933 0.52729 0.48647 0.0
H327 H 0.946 0.52573 0.52866 0.0
H328 H 0.90127 0.55668 0.52694 0.0
H329 H 0.92907 0.60101 0.44697 0.0
H330 H 0.97384 0.5701 0.44784 0.0
H331 H 0.04363 0.40492 0.55656 0.0
H332 H 0.04623 0.4507 0.53764 0.0
H333 H 0.98524 0.44455 0.46376 0.0
H334 H 0.98162 0.39856 0.48375 0.0
H335 H 0.97229 0.49062 0.4911 0.0
H336 H 0.0546 0.4483 0.44348 0.0
H337 H 0.09915 0.41748 0.43787 0.0
H338 H 0.13284 0.46089 0.51444 0.0
H339 H 0.0884 0.49173 0.52089 0.0
C340 C 0.03429 0.60889 0.49179 0.0
C341 C 0.02043 0.62006 0.52009 0.0
C342 C 0.0321 0.58237 0.48132 0.0
C343 C 0.016 0.5666 0.49891 0.0
C344 C 0.00204 0.5779 0.52696 0.0
C345 C 0.00402 0.60432 0.53724 0.0
C346 C 0.01534 0.53754 0.49012 0.0
C347 C 0.04029 0.51928 0.48703 0.0
C348 C 0.99045 0.5271 0.48925 0.0
C349 C 0.96337 0.54559 0.4884 0.0
C350 C 0.94253 0.54194 0.51053 0.0
C351 C 0.91717 0.55952 0.50975 0.0
C352 C 0.91234 0.58082 0.48689 0.0
C353 C 0.93286 0.58455 0.46472 0.0
C354 C 0.95825 0.56702 0.46538 0.0
C355 C 0.03099 0.41298 0.53594 0.0
C356 C 0.01233 0.39798 0.52176 0.0
C357 C 0.03273 0.43924 0.52487 0.0
C358 C 0.01634 0.45108 0.49879 0.0
C359 C 0.99822 0.43587 0.48382 0.0
C360 C 0.9962 0.40955 0.49523 0.0
C361 C 0.0164 0.48027 0.48993 0.0
C362 C 0.99133 0.49859 0.48961 0.0
C363 C 0.04114 0.49076 0.48645 0.0
C364 C 0.06807 0.47234 0.48268 0.0
C365 C 0.07145 0.4512 0.45925 0.0
C366 C 0.09671 0.43372 0.45591 0.0
C367 C 0.11881 0.43722 0.47579 0.0
C368 C 0.11571 0.45823 0.49903 0.0
C369 C 0.0905 0.47577 0.50248 0.0
H370 H 0.13834 0.42365 0.47318 0.0
H371 H 0.8927 0.59441 0.48634 0.0
H372 H 0.90215 0.47762 0.00839 0.0
H373 H 0.94934 0.48161 0.02307 0.0
H374 H 0.93669 0.56373 0.98376 0.0
H375 H 0.8899 0.55983 0.96877 0.0
H376 H 0.97879 0.53163 0.955 0.0
H377 H 0.9485 0.5526 0.06481 0.0
H378 H 0.92572 0.54547 0.11698 0.0
H379 H 0.98096 0.46933 0.13126 0.0
H380 H 0.00383 0.4758 0.07892 0.0
H381 H 0.11513 0.55499 0.01197 0.0
H382 H 0.06686 0.55675 0.02711 0.0
H383 H 0.06804 0.47767 0.98256 0.0
H384 H 0.11598 0.47545 0.96772 0.0
H385 H 0.03182 0.51322 0.05817 0.0
H386 H 0.01997 0.49609 0.92207 0.0
H387 H 0.04338 0.5026 0.87004 0.0
H388 H 0.07088 0.57349 0.90964 0.0
H389 H 0.04723 0.56764 0.96164 0.0
C390 C 0.90921 0.49678 0.0037 0.0
C391 C 0.89244 0.51824 0.98695 0.0
C392 C 0.93616 0.49906 0.01218 0.0
C393 C 0.94658 0.52293 0.00432 0.0
C394 C 0.92914 0.54507 0.98986 0.0
C395 C 0.90239 0.54277 0.98126 0.0
C396 C 0.97638 0.52355 0.00672 0.0
C397 C 0.99019 0.52794 0.97773 0.0
C398 C 0.99141 0.51853 0.03627 0.0
C399 C 0.97774 0.51459 0.06778 0.0
C400 C 0.95565 0.53422 0.07892 0.0
C401 C 0.94275 0.53032 0.10856 0.0
C402 C 0.95185 0.50693 0.12739 0.0
C403 C 0.97392 0.48742 0.11664 0.0
C404 C 0.98688 0.49122 0.08701 0.0
C405 C 0.10537 0.53759 0.00632 0.0
C406 C 0.11928 0.51532 0.98807 0.0
C407 C 0.07785 0.53858 0.01516 0.0
C408 C 0.06399 0.51739 0.00575 0.0
C409 C 0.07847 0.49418 0.99004 0.0
C410 C 0.10586 0.49309 0.98137 0.0
C411 C 0.03372 0.52136 0.00656 0.0
C412 C 0.02005 0.51744 0.03579 0.0
C413 C 0.01856 0.52701 0.97732 0.0
C414 C 0.03208 0.53125 0.9458 0.0
C415 C 0.03089 0.51314 0.91957 0.0
C416 C 0.04421 0.51671 0.89011 0.0
C417 C 0.05869 0.53839 0.88657 0.0
C418 C 0.05974 0.55664 0.91244 0.0
C419 C 0.04641 0.55319 0.94192 0.0
H420 H 0.06903 0.54108 0.86378 0.0
H421 H 0.94183 0.50395 0.15033 0.0
H422 H 0.54949 0.8955 0.01207 0.0
H423 H 0.55255 0.94271 0.9971 0.0
H424 H 0.46444 0.96489 0.00386 0.0
H425 H 0.46129 0.9172 0.01662 0.0
H426 H 0.48087 0.99546 0.95999 0.0
H427 H 0.5097 0.9713 0.07013 0.0
H428 H 0.53706 0.94426 0.11318 0.0
H429 H 0.61094 0.96419 0.07196 0.0
H430 H 0.58402 0.99105 0.02838 0.0
H431 H 0.46963 0.12953 0.0307 0.0
H432 H 0.46932 0.08178 0.01564 0.0
H433 H 0.55347 0.07323 0.98404 0.0
H434 H 0.55384 0.1212 0.99855 0.0
H435 H 0.54268 0.03592 0.03389 0.0
H436 H 0.50876 0.0676 0.92834 0.0
H437 H 0.47787 0.09644 0.88993 0.0
H438 H 0.40903 0.06479 0.92875 0.0
H439 H 0.43945 0.03605 0.96774 0.0
C440 C 0.53077 0.91035 0.00949 0.0
C441 C 0.50518 0.90287 0.01574 0.0
C442 C 0.53252 0.93736 0.00119 0.0
C443 C 0.5088 0.95764 0.00043 0.0
C444 C 0.48306 0.94973 0.00448 0.0
C445 C 0.48125 0.92248 0.01179 0.0
C446 C 0.51095 0.98724 0.99852 0.0
C447 C 0.4943 0.0043 0.97625 0.0
C448 C 0.52868 0.99889 0.0195 0.0
C449 C 0.54489 0.9829 0.04579 0.0
C450 C 0.5318 0.96976 0.07014 0.0
C451 C 0.54722 0.95449 0.09464 0.0
C452 C 0.57573 0.95244 0.09525 0.0
C453 C 0.58886 0.96574 0.07141 0.0
C454 C 0.57354 0.981 0.04681 0.0
C455 C 0.48787 0.1177 0.01979 0.0
C456 C 0.51182 0.12908 0.016 0.0
C457 C 0.48761 0.09046 0.01107 0.0
C458 C 0.51137 0.07402 0.99873 0.0
C459 C 0.5349 0.08566 0.99341 0.0
C460 C 0.53504 0.11308 0.00162 0.0
C461 C 0.51254 0.04403 0.99556 0.0
C462 C 0.52967 0.02694 0.01716 0.0
C463 C 0.49474 0.03261 0.97466 0.0
C464 C 0.47639 0.0498 0.95114 0.0
C465 C 0.48701 0.06695 0.92889 0.0
C466 C 0.46958 0.08325 0.90696 0.0
C467 C 0.4415 0.08249 0.90694 0.0
C468 C 0.43079 0.06537 0.9288 0.0
C469 C 0.44812 0.04904 0.95079 0.0
H470 H 0.42804 0.09513 0.88995 0.0
H471 H 0.58764 0.9406 0.11423 0.0
H472 H 0.09194 0.25588 0.51534 0.0
H473 H 0.12342 0.21487 0.49855 0.0
H474 H 0.0588 0.167 0.50879 0.0
H475 H 0.02743 0.20829 0.52738 0.0
H476 H 0.10289 0.14088 0.53662 0.0
H477 H 0.08558 0.1801 0.43197 0.0
H478 H 0.07897 0.21591 0.38936 0.0
H479 H 0.16247 0.22729 0.40102 0.0
H480 H 0.1695 0.19185 0.44407 0.0
H481 H 0.21053 0.03471 0.46254 0.0
H482 H 0.16639 0.06554 0.47151 0.0
H483 H 0.2097 0.12946 0.50277 0.0
H484 H 0.25352 0.09857 0.49499 0.0
H485 H 0.16934 0.14057 0.4457 0.0
H486 H 0.18125 0.10527 0.55802 0.0
H487 H 0.18639 0.0678 0.59857 0.0
H488 H 0.11003 0.04641 0.5672 0.0
H489 H 0.10466 0.08354 0.5261 0.0
C490 C 0.08443 0.23662 0.51381 0.0
C491 C 0.0575 0.23503 0.52311 0.0
C492 C 0.10233 0.21321 0.50383 0.0
C493 C 0.09348 0.18778 0.502 0.0
C494 C 0.06612 0.18637 0.50999 0.0
C495 C 0.04819 0.20991 0.52037 0.0
C496 C 0.11363 0.16268 0.49411 0.0
C497 C 0.11696 0.14056 0.51622 0.0
C498 C 0.13204 0.16204 0.46745 0.0
C499 C 0.12803 0.18333 0.44138 0.0
C500 C 0.1025 0.19034 0.4256 0.0
C501 C 0.09868 0.21057 0.40135 0.0
C502 C 0.12028 0.22388 0.39251 0.0
C503 C 0.14576 0.21695 0.40788 0.0
C504 C 0.14969 0.19674 0.43217 0.0
C505 C 0.21046 0.05515 0.47205 0.0
C506 C 0.23526 0.06458 0.47756 0.0
C507 C 0.18536 0.0727 0.47699 0.0
C508 C 0.18495 0.0998 0.48735 0.0
C509 C 0.20969 0.10868 0.49444 0.0
C510 C 0.23463 0.09109 0.48999 0.0
C511 C 0.15907 0.11977 0.48895 0.0
C512 C 0.15473 0.14076 0.46554 0.0
C513 C 0.13951 0.11908 0.51393 0.0
C514 C 0.14275 0.0969 0.53871 0.0
C515 C 0.16571 0.09238 0.55953 0.0
C516 C 0.16863 0.07126 0.58267 0.0
C517 C 0.1486 0.05467 0.58538 0.0
C518 C 0.12556 0.05923 0.56502 0.0
C519 C 0.12257 0.08031 0.54182 0.0
H520 H 0.15089 0.03833 0.60332 0.0
H521 H 0.11728 0.23954 0.37373 0.0
H522 H 0.30738 0.86415 0.50525 0.0
H523 H 0.27756 0.82942 0.50117 0.0
H524 H 0.20678 0.89365 0.493 0.0
H525 H 0.23647 0.92826 0.49738 0.0
H526 H 0.19912 0.85153 0.53567 0.0
H527 H 0.23262 0.86266 0.42622 0.0
H528 H 0.26879 0.86329 0.38488 0.0
H529 H 0.30126 0.77876 0.40524 0.0
H530 H 0.26551 0.77777 0.44711 0.0
H531 H 0.09718 0.78329 0.47788 0.0
H532 H 0.13061 0.81433 0.47927 0.0
H533 H 0.19671 0.74483 0.47727 0.0
H534 H 0.16308 0.71371 0.47522 0.0
H535 H 0.20931 0.78703 0.44164 0.0
H536 H 0.1754 0.77455 0.54904 0.0
H537 H 0.13958 0.77311 0.59061 0.0
H538 H 0.10918 0.8589 0.57583 0.0
H539 H 0.14451 0.86074 0.5337 0.0
C540 C 0.28543 0.87072 0.50279 0.0
C541 C 0.27414 0.89871 0.50091 0.0
C542 C 0.26849 0.85097 0.50033 0.0
C543 C 0.24006 0.85904 0.49634 0.0
C544 C 0.2287 0.88705 0.49581 0.0
C545 C 0.24564 0.90675 0.49796 0.0
C546 C 0.22205 0.8384 0.49203 0.0
C547 C 0.20117 0.83757 0.51499 0.0
C548 C 0.2253 0.81975 0.4655 0.0
C549 C 0.24658 0.82023 0.44005 0.0
C550 C 0.2476 0.84427 0.42207 0.0
C551 C 0.26801 0.84469 0.39851 0.0
C552 C 0.28736 0.8211 0.3925 0.0
C553 C 0.28628 0.79703 0.40996 0.0
C554 C 0.26595 0.79652 0.4336 0.0
C555 C 0.11886 0.77473 0.47748 0.0
C556 C 0.12774 0.74626 0.47712 0.0
C557 C 0.13791 0.7924 0.47824 0.0
C558 C 0.16613 0.78183 0.47924 0.0
C559 C 0.17503 0.75338 0.47676 0.0
C560 C 0.1559 0.73566 0.47559 0.0
C561 C 0.18606 0.80045 0.485 0.0
C562 C 0.20734 0.80085 0.46244 0.0
C563 C 0.18335 0.81859 0.51209 0.0
C564 C 0.16249 0.81773 0.53802 0.0
C565 C 0.16099 0.79308 0.55453 0.0
C566 C 0.14077 0.79219 0.57818 0.0
C567 C 0.12209 0.81589 0.58581 0.0
C568 C 0.12365 0.84055 0.56987 0.0
C569 C 0.14379 0.84154 0.54611 0.0
H570 H 0.10642 0.81515 0.60411 0.0
H571 H 0.30315 0.82146 0.37426 0.0
H572 H 0.81819 0.98981 0.46861 0.0
H573 H 0.86005 0.95815 0.48482 0.0
H574 H 0.81173 0.89512 0.50371 0.0
H575 H 0.77014 0.92686 0.48845 0.0
H576 H 0.85092 0.89233 0.54768 0.0
H577 H 0.84457 0.90044 0.42962 0.0
H578 H 0.84155 0.9256 0.37726 0.0
H579 H 0.91822 0.9516 0.39756 0.0
H580 H 0.92148 0.92688 0.4503 0.0
H581 H 0.93065 0.765 0.51868 0.0
H582 H 0.8981 0.80736 0.50885 0.0
H583 H 0.96427 0.85366 0.51204 0.0
H584 H 0.99706 0.81102 0.5223 0.0
H585 H 0.92221 0.87053 0.46167 0.0
H586 H 0.93053 0.8542 0.5773 0.0
H587 H 0.93252 0.82527 0.62668 0.0
H588 H 0.85042 0.81191 0.60857 0.0
H589 H 0.84811 0.84033 0.5587 0.0
C590 C 0.81663 0.96935 0.4769 0.0
C591 C 0.79121 0.96046 0.47681 0.0
C592 C 0.84047 0.95125 0.48592 0.0
C593 C 0.8391 0.92406 0.49485 0.0
C594 C 0.81337 0.91591 0.49677 0.0
C595 C 0.78965 0.93396 0.48792 0.0
C596 C 0.86428 0.90331 0.50006 0.0
C597 C 0.86651 0.88764 0.52888 0.0
C598 C 0.88495 0.89743 0.47581 0.0
C599 C 0.8831 0.91212 0.44405 0.0
C600 C 0.86068 0.91169 0.42301 0.0
C601 C 0.85894 0.92585 0.39326 0.0
C602 C 0.87964 0.94026 0.38413 0.0
C603 C 0.90217 0.94048 0.4047 0.0
C604 C 0.90398 0.92641 0.43452 0.0
C605 C 0.93826 0.78419 0.51695 0.0
C606 C 0.96618 0.78495 0.52178 0.0
C607 C 0.91971 0.80832 0.51131 0.0
C608 C 0.92876 0.83363 0.51032 0.0
C609 C 0.95693 0.83429 0.51291 0.0
C610 C 0.97558 0.81002 0.51869 0.0
C611 C 0.9083 0.85926 0.50881 0.0
C612 C 0.90697 0.87574 0.48076 0.0
C613 C 0.88823 0.8657 0.53358 0.0
C614 C 0.88921 0.8493 0.56415 0.0
C615 C 0.91294 0.84499 0.58375 0.0
C616 C 0.91413 0.82867 0.61183 0.0
C617 C 0.89162 0.81673 0.62073 0.0
C618 C 0.86784 0.82117 0.60164 0.0
C619 C 0.86657 0.83742 0.57348 0.0
H620 H 0.8926 0.80407 0.64245 0.0
H621 H 0.87826 0.95121 0.36109 0.0
H622 H 0.78502 0.09591 0.49685 0.0
H623 H 0.81425 0.13098 0.49754 0.0
H624 H 0.74279 0.19391 0.5091 0.0
H625 H 0.71334 0.15869 0.50807 0.0
H626 H 0.7799 0.20543 0.45996 0.0
H627 H 0.78118 0.17825 0.57274 0.0
H628 H 0.78671 0.14537 0.61862 0.0
H629 H 0.87048 0.11696 0.59085 0.0
H630 H 0.86534 0.14941 0.5445 0.0
H631 H 0.85955 0.31014 0.49358 0.0
H632 H 0.82565 0.27936 0.49396 0.0
H633 H 0.89119 0.20945 0.49941 0.0
H634 H 0.92486 0.24018 0.49966 0.0
H635 H 0.85383 0.20393 0.5423 0.0
H636 H 0.85291 0.22772 0.42818 0.0
H637 H 0.8483 0.2588 0.38055 0.0
H638 H 0.76549 0.29167 0.40848 0.0
H639 H 0.76973 0.26101 0.45654 0.0
C640 C 0.77554 0.11723 0.49915 0.0
C641 C 0.74696 0.12474 0.50182 0.0
C642 C 0.79225 0.1372 0.49989 0.0
C643 C 0.78064 0.165 0.50336 0.0
C644 C 0.75208 0.17255 0.50631 0.0
C645 C 0.73536 0.15249 0.50591 0.0
C646 C 0.79851 0.18606 0.50357 0.0
C647 C 0.7958 0.20548 0.47825 0.0
C648 C 0.81959 0.18557 0.52701 0.0
C649 C 0.82279 0.16612 0.55498 0.0
C650 C 0.80072 0.16484 0.57626 0.0
C651 C 0.8038 0.14631 0.60238 0.0
C652 C 0.82892 0.12905 0.6076 0.0
C653 C 0.85103 0.13033 0.58676 0.0
C654 C 0.84805 0.14881 0.56058 0.0
C655 C 0.86658 0.28817 0.49459 0.0
C656 C 0.89465 0.27744 0.49718 0.0
C657 C 0.84727 0.27061 0.49473 0.0
C658 C 0.85587 0.24204 0.49668 0.0
C659 C 0.88405 0.23139 0.49826 0.0
C660 C 0.90326 0.24893 0.49853 0.0
C661 C 0.83566 0.22314 0.49827 0.0
C662 C 0.83787 0.2041 0.52405 0.0
C663 C 0.81433 0.22382 0.47501 0.0
C664 C 0.81175 0.24229 0.44616 0.0
C665 C 0.8338 0.24174 0.42432 0.0
C666 C 0.83124 0.25925 0.39722 0.0
C667 C 0.80665 0.27726 0.39155 0.0
C668 C 0.78454 0.27774 0.41293 0.0
C669 C 0.78701 0.26029 0.4401 0.0
H670 H 0.8047 0.29079 0.37055 0.0
H671 H 0.83126 0.11471 0.62784 0.0
H672 H 0.59077 0.75675 0.01046 0.0
H673 H 0.62075 0.71421 0.99535 0.0
H674 H 0.55429 0.66948 0.01061 0.0
H675 H 0.52439 0.71235 0.02724 0.0
H676 H 0.59934 0.64302 0.03849 0.0
H677 H 0.57853 0.67895 0.93263 0.0
H678 H 0.57125 0.71347 0.88856 0.0
H679 H 0.65589 0.72233 0.89398 0.0
H680 H 0.66362 0.68817 0.93844 0.0
H681 H 0.70148 0.53141 0.96386 0.0
H682 H 0.65826 0.56332 0.97465 0.0
H683 H 0.70433 0.62751 0.99629 0.0
H684 H 0.7472 0.59573 0.98651 0.0
H685 H 0.66173 0.63716 0.94278 0.0
H686 H 0.67811 0.60591 0.05599 0.0
H687 H 0.68415 0.57029 0.09887 0.0
H688 H 0.60525 0.55046 0.07573 0.0
H689 H 0.59893 0.58573 0.03235 0.0
C690 C 0.58253 0.73785 0.01044 0.0
C691 C 0.55545 0.73767 0.02033 0.0
C692 C 0.59958 0.71356 0.00148 0.0
C693 C 0.58973 0.6886 0.00144 0.0
C694 C 0.56232 0.68848 0.01038 0.0
C695 C 0.54524 0.71292 0.01963 0.0
C696 C 0.60885 0.66274 0.99385 0.0
C697 C 0.61251 0.64146 0.01711 0.0
C698 C 0.62606 0.66054 0.96594 0.0
C699 C 0.62162 0.68102 0.939 0.0
C700 C 0.59557 0.68836 0.92457 0.0
C701 C 0.59136 0.70787 0.89949 0.0
C702 C 0.61309 0.7201 0.88849 0.0
C703 C 0.63909 0.71282 0.90251 0.0
C704 C 0.6434 0.69334 0.92761 0.0
C705 C 0.70223 0.55215 0.97174 0.0
C706 C 0.72747 0.56135 0.97404 0.0
C707 C 0.67766 0.57032 0.97772 0.0
C708 C 0.67824 0.59777 0.98587 0.0
C709 C 0.70353 0.60645 0.98977 0.0
C710 C 0.72793 0.58832 0.98423 0.0
C711 C 0.65281 0.61835 0.98805 0.0
C712 C 0.64801 0.63852 0.96365 0.0
C713 C 0.63439 0.61928 0.01456 0.0
C714 C 0.63823 0.59816 0.04063 0.0
C715 C 0.66219 0.59374 0.05979 0.0
C716 C 0.66563 0.57367 0.08425 0.0
C717 C 0.64515 0.55804 0.08993 0.0
C718 C 0.62114 0.56253 0.07124 0.0
C719 C 0.61761 0.58256 0.04673 0.0
H720 H 0.64785 0.54252 0.10889 0.0
H721 H 0.60979 0.73521 0.86909 0.0
H722 H 0.80299 0.37323 0.97317 0.0
H723 H 0.77454 0.33745 0.97076 0.0
H724 H 0.72125 0.38 0.04493 0.0
H725 H 0.75062 0.41501 0.04846 0.0
H726 H 0.72493 0.32779 0.05368 0.0
H727 H 0.7079 0.38755 0.96041 0.0
H728 H 0.72087 0.41151 0.91147 0.0
H729 H 0.7506 0.33413 0.8653 0.0
H730 H 0.7382 0.3097 0.91422 0.0
H731 H 0.59967 0.28651 0.01636 0.0
H732 H 0.63569 0.31464 0.01793 0.0
H733 H 0.68947 0.25259 0.96366 0.0
H734 H 0.6535 0.22389 0.96284 0.0
H735 H 0.68843 0.31045 0.94388 0.0
H736 H 0.70033 0.25164 0.0389 0.0
H737 H 0.68359 0.23058 0.08789 0.0
H738 H 0.65916 0.31026 0.13079 0.0
H739 H 0.67529 0.33184 0.08176 0.0
C740 C 0.78542 0.37458 0.98927 0.0
C741 C 0.77866 0.39681 0.01075 0.0
C742 C 0.76911 0.35429 0.98778 0.0
C743 C 0.74532 0.35643 0.00701 0.0
C744 C 0.73942 0.37797 0.02974 0.0
C745 C 0.75612 0.39794 0.03176 0.0
C746 C 0.72575 0.33722 0.00221 0.0
C747 C 0.71688 0.32416 0.02968 0.0
C748 C 0.71543 0.33215 0.97081 0.0
C749 C 0.72237 0.3468 0.9411 0.0
C750 C 0.71732 0.37564 0.93988 0.0
C751 C 0.72458 0.38931 0.91215 0.0
C752 C 0.73662 0.37435 0.88532 0.0
C753 C 0.74132 0.34569 0.88612 0.0
C754 C 0.73417 0.33192 0.91384 0.0
C755 C 0.61927 0.2788 0.00502 0.0
C756 C 0.62434 0.2527 0.99057 0.0
C757 C 0.63968 0.29493 0.00569 0.0
C758 C 0.66531 0.28538 0.99145 0.0
C759 C 0.66983 0.26011 0.975 0.0
C760 C 0.64939 0.2438 0.97457 0.0
C761 C 0.68761 0.30141 0.99533 0.0
C762 C 0.69687 0.31388 0.96773 0.0
C763 C 0.69789 0.30636 0.02665 0.0
C764 C 0.68885 0.29337 0.05654 0.0
C765 C 0.69123 0.26469 0.05869 0.0
C766 C 0.68186 0.25265 0.08647 0.0
C767 C 0.67027 0.26907 0.11241 0.0
C768 C 0.66813 0.29756 0.11067 0.0
C769 C 0.67741 0.30971 0.0829 0.0
H770 H 0.663 0.25972 0.13389 0.0
H771 H 0.74225 0.38497 0.86389 0.0
H772 H 0.46628 0.29174 0.9801 0.0
H773 H 0.43401 0.33418 0.96823 0.0
H774 H 0.42736 0.35225 0.07152 0.0
H775 H 0.45979 0.31009 0.0833 0.0
H776 H 0.37756 0.35197 0.04218 0.0
H777 H 0.45803 0.39158 0.02223 0.0
H778 H 0.50261 0.3943 0.9967 0.0
H779 H 0.46515 0.39963 0.90157 0.0
H780 H 0.4204 0.39654 0.92649 0.0
H781 H 0.28194 0.4733 0.02528 0.0
H782 H 0.32511 0.44342 0.03978 0.0
H783 H 0.34245 0.42776 0.93731 0.0
H784 H 0.30009 0.45884 0.92286 0.0
H785 H 0.38871 0.42888 0.96836 0.0
H786 H 0.31093 0.3846 0.98478 0.0
H787 H 0.26584 0.37938 0.00708 0.0
H788 H 0.29768 0.37939 0.10487 0.0
H789 H 0.34289 0.38504 0.08313 0.0
C790 C 0.45853 0.30525 9e-05 0.0
C791 C 0.46546 0.29782 0.03257 0.0
C792 C 0.44007 0.32941 0.99334 0.0
C793 C 0.42831 0.34637 0.01903 0.0
C794 C 0.43617 0.33945 0.05137 0.0
C795 C 0.45467 0.31544 0.05807 0.0
C796 C 0.40587 0.36978 0.01254 0.0
C797 C 0.38014 0.36908 0.02656 0.0
C798 C 0.40904 0.39155 0.99124 0.0
C799 C 0.4359 0.3936 0.97623 0.0
C800 C 0.45933 0.39311 0.99585 0.0
C801 C 0.48463 0.39476 0.98149 0.0
C802 C 0.48672 0.39708 0.94754 0.0
C803 C 0.4635 0.39782 0.92787 0.0
C804 C 0.43816 0.39615 0.9421 0.0
C805 C 0.29545 0.46418 0.00592 0.0
C806 C 0.28783 0.46836 0.97299 0.0
C807 C 0.31993 0.44685 0.01417 0.0
C808 C 0.3368 0.4329 0.98964 0.0
C809 C 0.32981 0.43822 0.95668 0.0
C810 C 0.30555 0.45582 0.94844 0.0
C811 C 0.36041 0.41113 0.99818 0.0
C812 C 0.38625 0.41198 0.98437 0.0
C813 C 0.35729 0.38913 0.01922 0.0
C814 C 0.33019 0.38555 0.03235 0.0
C815 C 0.30826 0.38368 0.01105 0.0
C816 C 0.28269 0.38062 0.02358 0.0
C817 C 0.27888 0.37912 0.05738 0.0
C818 C 0.30065 0.3806 0.0787 0.0
C819 C 0.32625 0.38373 0.06629 0.0
H820 H 0.25907 0.37675 0.06704 0.0
H821 H 0.50633 0.39835 0.93647 0.0
H822 H 0.27795 0.60133 0.99245 0.0
H823 H 0.30813 0.63567 0.99329 0.0
H824 H 0.23794 0.69971 0.00721 0.0
H825 H 0.20762 0.6652 0.00638 0.0
H826 H 0.27577 0.71054 0.95726 0.0
H827 H 0.2756 0.68273 0.06995 0.0
H828 H 0.28013 0.64937 0.11531 0.0
H829 H 0.36369 0.61938 0.08787 0.0
H830 H 0.35952 0.65229 0.04202 0.0
H831 H 0.35671 0.81328 0.99274 0.0
H832 H 0.32237 0.78302 0.99293 0.0
H833 H 0.38714 0.71242 0.99865 0.0
H834 H 0.42128 0.74267 0.99905 0.0
H835 H 0.34912 0.70704 0.04074 0.0
H836 H 0.34997 0.7313 0.92706 0.0
H837 H 0.3466 0.76244 0.87954 0.0
H838 H 0.26377 0.79672 0.90595 0.0
H839 H 0.26678 0.766 0.9539 0.0
C840 C 0.26902 0.62278 0.99539 0.0
C841 C 0.24058 0.63086 0.99883 0.0
C842 C 0.28622 0.64229 0.99611 0.0
C843 C 0.2752 0.67015 0.00032 0.0
C844 C 0.24674 0.67828 0.00384 0.0
C845 C 0.22953 0.65866 0.00349 0.0
C846 C 0.29361 0.69067 0.00097 0.0
C847 C 0.29154 0.71017 0.97579 0.0
C848 C 0.31455 0.68954 0.02469 0.0
C849 C 0.31716 0.66983 0.05237 0.0
C850 C 0.29487 0.66887 0.07342 0.0
C851 C 0.29739 0.65007 0.09925 0.0
C852 C 0.32216 0.63223 0.10442 0.0
C853 C 0.3445 0.6332 0.08382 0.0
C854 C 0.34208 0.65194 0.05792 0.0
C855 C 0.36348 0.79128 0.99387 0.0
C856 C 0.39147 0.78021 0.99651 0.0
C857 C 0.34393 0.77401 0.99387 0.0
C858 C 0.35218 0.74541 0.99572 0.0
C859 C 0.38027 0.73441 0.99755 0.0
C860 C 0.39974 0.75167 0.99795 0.0
C861 C 0.33166 0.72685 0.99668 0.0
C862 C 0.33329 0.70766 0.02225 0.0
C863 C 0.31055 0.72805 0.97304 0.0
C864 C 0.30871 0.74657 0.94427 0.0
C865 C 0.33112 0.74564 0.92289 0.0
C866 C 0.32926 0.76318 0.89585 0.0
C867 C 0.30502 0.78161 0.88979 0.0
C868 C 0.28255 0.78247 0.91071 0.0
C869 C 0.28432 0.76499 0.93781 0.0
H870 H 0.30361 0.79516 0.86883 0.0
H871 H 0.32407 0.61768 0.12444 0.0
H872 H 0.35719 0.1093 0.38146 0.0
H873 H 0.37007 0.14212 0.34228 0.0
H874 H 0.32058 0.1122 0.26819 0.0
H875 H 0.30782 0.07914 0.30706 0.0
H876 H 0.37313 0.10918 0.24952 0.0
H877 H 0.30362 0.1773 0.2967 0.0
H878 H 0.27853 0.20427 0.34134 0.0
H879 H 0.35124 0.23549 0.3677 0.0
H880 H 0.3769 0.20839 0.32351 0.0
H881 H 0.41315 0.19045 0.12685 0.0
H882 H 0.38076 0.17645 0.16575 0.0
H883 H 0.42791 0.20063 0.24605 0.0
H884 H 0.46016 0.2152 0.20726 0.0
H885 H 0.37189 0.20932 0.25954 0.0
H886 H 0.44257 0.13726 0.22098 0.0
H887 H 0.47044 0.10954 0.17892 0.0
H888 H 0.39804 0.08456 0.13995 0.0
H889 H 0.3697 0.11248 0.18157 0.0
C890 C 0.34861 0.11007 0.35702 0.0
C891 C 0.33182 0.09136 0.34718 0.0
C892 C 0.35583 0.12898 0.33473 0.0
C893 C 0.34622 0.12959 0.30238 0.0
C894 C 0.32819 0.11202 0.29307 0.0
C895 C 0.32098 0.09311 0.31531 0.0
C896 C 0.35793 0.1457 0.27727 0.0
C897 C 0.37223 0.1312 0.2513 0.0
C898 C 0.35764 0.17422 0.28036 0.0
C899 C 0.34224 0.19063 0.30691 0.0
C900 C 0.31433 0.18974 0.31217 0.0
C901 C 0.29999 0.20509 0.33737 0.0
C902 C 0.31329 0.22154 0.35738 0.0
C903 C 0.34096 0.22273 0.35218 0.0
C904 C 0.3554 0.2074 0.32703 0.0
C905 C 0.4163 0.19334 0.15276 0.0
C906 C 0.43944 0.20342 0.16408 0.0
C907 C 0.39774 0.18543 0.17492 0.0
C908 C 0.40227 0.1871 0.20871 0.0
C909 C 0.4241 0.1992 0.22004 0.0
C910 C 0.44258 0.20736 0.19785 0.0
C911 C 0.38674 0.17275 0.23187 0.0
C912 C 0.37213 0.18743 0.25752 0.0
C913 C 0.38702 0.14423 0.22894 0.0
C914 C 0.40401 0.12719 0.20411 0.0
C915 C 0.43259 0.126 0.20329 0.0
C916 C 0.44847 0.11024 0.17956 0.0
C917 C 0.436 0.09536 0.15671 0.0
C918 C 0.40765 0.09614 0.15763 0.0
C919 C 0.39168 0.11192 0.18129 0.0
H920 H 0.44832 0.08318 0.13834 0.0
H921 H 0.30215 0.23341 0.37687 0.0
H922 H 0.11488 0.65593 0.60505 0.0
H923 H 0.14113 0.63758 0.65358 0.0
H924 H 0.08463 0.69098 0.71525 0.0
H925 H 0.05789 0.70853 0.66717 0.0
H926 H 0.16586 0.65483 0.71234 0.0
H927 H 0.06203 0.65381 0.77016 0.0
H928 H 0.01379 0.66012 0.75169 0.0
H929 H 0.03925 0.61961 0.66113 0.0
H930 H 0.08756 0.61294 0.67913 0.0
H931 H 0.18143 0.60317 0.87765 0.0
H932 H 0.16696 0.63103 0.82906 0.0
H933 H 0.14497 0.56033 0.78113 0.0
H934 H 0.15935 0.53237 0.82932 0.0
H935 H 0.10425 0.6058 0.77674 0.0
H936 H 0.20205 0.58244 0.75909 0.0
H937 H 0.25067 0.57993 0.7742 0.0
H938 H 0.23863 0.66771 0.78211 0.0
H939 H 0.18983 0.67071 0.76748 0.0
C940 C 0.10868 0.6644 0.62888 0.0
C941 C 0.08417 0.68326 0.63254 0.0
C942 C 0.1237 0.65396 0.65656 0.0
C943 C 0.11447 0.66255 0.68802 0.0
C944 C 0.09186 0.68381 0.69123 0.0
C945 C 0.0766 0.69379 0.66376 0.0
C946 C 0.12495 0.6461 0.71714 0.0
C947 C 0.15245 0.64419 0.72656 0.0
C948 C 0.10747 0.63193 0.73536 0.0
C949 C 0.07835 0.63298 0.72595 0.0
C950 C 0.05726 0.64591 0.74652 0.0
C951 C 0.02995 0.64974 0.73603 0.0
C952 C 0.02352 0.64047 0.70516 0.0
C953 C 0.04429 0.62689 0.68496 0.0
C954 C 0.07161 0.62306 0.6953 0.0
C955 C 0.17366 0.59351 0.8567 0.0
C956 C 0.17155 0.56551 0.85743 0.0
C957 C 0.16547 0.60945 0.82893 0.0
C958 C 0.15494 0.59772 0.80148 0.0
C959 C 0.15298 0.5698 0.80208 0.0
C960 C 0.16134 0.55382 0.82964 0.0
C961 C 0.14529 0.61456 0.77231 0.0
C962 C 0.11777 0.6165 0.76277 0.0
C963 C 0.16287 0.62856 0.75397 0.0
C964 C 0.19224 0.62678 0.76249 0.0
C965 C 0.20973 0.60119 0.76429 0.0
C966 C 0.23732 0.59968 0.77273 0.0
C967 C 0.24772 0.62364 0.77919 0.0
C968 C 0.23055 0.64916 0.77714 0.0
C969 C 0.20293 0.65079 0.76874 0.0
H970 H 0.26909 0.62242 0.78573 0.0
H971 H 0.00243 0.6437 0.69693 0.0
H972 H 0.73103 0.94807 0.29392 0.0
H973 H 0.7192 0.91633 0.25264 0.0
H974 H 0.66746 0.88449 0.32258 0.0
H975 H 0.67956 0.91567 0.36412 0.0
H976 H 0.69173 0.84449 0.28055 0.0
H977 H 0.64142 0.93809 0.27469 0.0
H978 H 0.6379 0.98824 0.26941 0.0
H979 H 0.6788 0.97763 0.17642 0.0
H980 H 0.6829 0.92736 0.18142 0.0
H981 H 0.57258 0.81874 0.20168 0.0
H982 H 0.60988 0.83129 0.23398 0.0
H983 H 0.64658 0.85733 0.14624 0.0
H984 H 0.60895 0.84532 0.11374 0.0
H985 H 0.63966 0.89653 0.19008 0.0
H986 H 0.67935 0.80212 0.19158 0.0
H987 H 0.68076 0.75237 0.19788 0.0
H988 H 0.65817 0.76393 0.29902 0.0
H989 H 0.65622 0.81381 0.29324 0.0
C990 C 0.71761 0.93389 0.30073 0.0
C991 C 0.70575 0.93477 0.33205 0.0
C992 C 0.71093 0.91574 0.27713 0.0
C993 C 0.69207 0.89847 0.28443 0.0
C994 C 0.68201 0.89772 0.31644 0.0
C995 C 0.6888 0.91571 0.3401 0.0
C996 C 0.67977 0.8841 0.25808 0.0
C997 C 0.68039 0.85574 0.26065 0.0
C998 C 0.6655 0.8988 0.23179 0.0
C999 C 0.66278 0.929 0.22862 0.0
C1000 C 0.64982 0.94647 0.25323 0.0
C1001 C 0.64771 0.9749 0.25028 0.0
C1002 C 0.65821 0.98611 0.22265 0.0
C1003 C 0.67075 0.96891 0.19785 0.0
C1004 C 0.67298 0.94046 0.20073 0.0
C1005 C 0.58885 0.82664 0.18914 0.0
C1006 C 0.58765 0.83135 0.15522 0.0
C1007 C 0.61032 0.83359 0.20763 0.0
C1008 C 0.63115 0.84506 0.19249 0.0
C1009 C 0.63074 0.84846 0.15839 0.0
C1010 C 0.60919 0.84163 0.13988 0.0
C1011 C 0.65103 0.85683 0.21277 0.0
C1012 C 0.65169 0.8849 0.20922 0.0
C1013 C 0.66625 0.84182 0.23821 0.0
C1014 C 0.66753 0.81177 0.24191 0.0
C1015 C 0.67451 0.79409 0.21512 0.0
C1016 C 0.67543 0.76585 0.21861 0.0
C1017 C 0.66953 0.755 0.24882 0.0
C1018 C 0.66275 0.77236 0.27563 0.0
C1019 C 0.66178 0.80063 0.27227 0.0
H1020 H 0.67024 0.73313 0.25147 0.0
H1021 H 0.65656 0.00813 0.22041 0.0
H1022 H 0.91962 0.32505 0.63193 0.0
H1023 H 0.89186 0.33954 0.68083 0.0
H1024 H 0.95203 0.38781 0.71194 0.0
H1025 H 0.98014 0.37223 0.66479 0.0
H1026 H 0.9382 0.36462 0.76163 0.0
H1027 H 0.88631 0.41433 0.67236 0.0
H1028 H 0.8604 0.41821 0.62045 0.0
H1029 H 0.80322 0.3715 0.66149 0.0
H1030 H 0.82898 0.36713 0.71354 0.0
H1031 H 0.85583 0.48626 0.83192 0.0
H1032 H 0.87303 0.45493 0.78769 0.0
H1033 H 0.85137 0.38724 0.84211 0.0
H1034 H 0.83471 0.4184 0.88732 0.0
H1035 H 0.84094 0.41026 0.75431 0.0
H1036 H 0.89885 0.36287 0.84687 0.0
H1037 H 0.9267 0.36601 0.89641 0.0
H1038 H 0.97479 0.41644 0.84457 0.0
H1039 H 0.94678 0.41405 0.79498 0.0
C1040 C 0.92679 0.3387 0.64937 0.0
C1041 C 0.95206 0.34742 0.64467 0.0
C1042 C 0.91091 0.34707 0.67722 0.0
C1043 C 0.9197 0.36495 0.70016 0.0
C1044 C 0.94482 0.37377 0.69501 0.0
C1045 C 0.96089 0.36492 0.66787 0.0
C1046 C 0.90321 0.37498 0.72961 0.0
C1047 C 0.91682 0.37428 0.7599 0.0
C1048 C 0.87519 0.38743 0.72784 0.0
C1049 C 0.85974 0.39011 0.69663 0.0
C1050 C 0.86831 0.40474 0.6702 0.0
C1051 C 0.85365 0.40705 0.64079 0.0
C1052 C 0.83024 0.39503 0.63764 0.0
C1053 C 0.82139 0.38075 0.66394 0.0
C1054 C 0.83601 0.37835 0.69339 0.0
C1055 C 0.85452 0.46475 0.83458 0.0
C1056 C 0.84403 0.45483 0.86336 0.0
C1057 C 0.86435 0.4469 0.8092 0.0
C1058 C 0.86369 0.41882 0.81185 0.0
C1059 C 0.85234 0.40884 0.83988 0.0
C1060 C 0.84278 0.42669 0.86561 0.0
C1061 C 0.87623 0.40022 0.78559 0.0
C1062 C 0.86198 0.39958 0.756 0.0
C1063 C 0.90385 0.38709 0.78766 0.0
C1064 C 0.92044 0.38868 0.81751 0.0
C1065 C 0.91508 0.37496 0.84624 0.0
C1066 C 0.93095 0.37654 0.87427 0.0
C1067 C 0.95241 0.39154 0.8737 0.0
C1068 C 0.95808 0.40494 0.84505 0.0
C1069 C 0.9422 0.40352 0.81701 0.0
H1070 H 0.96471 0.39268 0.8954 0.0
H1071 H 0.81891 0.39683 0.61485 0.0
H1072 H 0.69252 0.03663 0.31862 0.0
H1073 H 0.67382 0.06609 0.27292 0.0
H1074 H 0.64428 0.13144 0.34046 0.0
H1075 H 0.66351 0.10235 0.38635 0.0
H1076 H 0.60396 0.11314 0.29356 0.0
H1077 H 0.69182 0.14311 0.29796 0.0
H1078 H 0.74238 0.13563 0.2988 0.0
H1079 H 0.74494 0.09585 0.20519 0.0
H1080 H 0.69438 0.10274 0.20402 0.0
H1081 H 0.54451 0.20515 0.1739 0.0
H1082 H 0.57222 0.18718 0.22117 0.0
H1083 H 0.62831 0.13544 0.15713 0.0
H1084 H 0.60166 0.15504 0.10963 0.0
H1085 H 0.65621 0.1488 0.20451 0.0
H1086 H 0.57241 0.11304 0.19935 0.0
H1087 H 0.52228 0.11565 0.19581 0.0
H1088 H 0.51209 0.15896 0.28724 0.0
H1089 H 0.56218 0.15691 0.29112 0.0
C1090 C 0.68244 0.05743 0.32372 0.0
C1091 C 0.67945 0.06718 0.3561 0.0
C1092 C 0.67182 0.07421 0.29759 0.0
C1093 C 0.6577 0.10087 0.30341 0.0
C1094 C 0.65519 0.11091 0.33557 0.0
C1095 C 0.66628 0.09432 0.36169 0.0
C1096 C 0.64397 0.11746 0.27607 0.0
C1097 C 0.61528 0.12143 0.27435 0.0
C1098 C 0.65892 0.12718 0.25049 0.0
C1099 C 0.68931 0.12323 0.25105 0.0
C1100 C 0.70317 0.13255 0.27769 0.0
C1101 C 0.73183 0.12847 0.27819 0.0
C1102 C 0.74687 0.11522 0.2521 0.0
C1103 C 0.73327 0.10609 0.2254 0.0
C1104 C 0.70461 0.11011 0.22478 0.0
C1105 C 0.56308 0.19036 0.16996 0.0
C1106 C 0.57089 0.18127 0.13827 0.0
C1107 C 0.57879 0.1799 0.19697 0.0
C1108 C 0.60188 0.15919 0.19292 0.0
C1109 C 0.61051 0.15123 0.16102 0.0
C1110 C 0.59528 0.1624 0.13388 0.0
C1111 C 0.61595 0.1447 0.22184 0.0
C1112 C 0.64472 0.14087 0.2238 0.0
C1113 C 0.6011 0.13431 0.24726 0.0
C1114 C 0.57102 0.13506 0.24536 0.0
C1115 C 0.55947 0.12322 0.21864 0.0
C1116 C 0.53106 0.1246 0.21656 0.0
C1117 C 0.51401 0.13754 0.24123 0.0
C1118 C 0.52533 0.14899 0.26812 0.0
C1119 C 0.55373 0.1477 0.27029 0.0
H1120 H 0.49202 0.13864 0.23955 0.0
H1121 H 0.76906 0.11207 0.25254 0.0
H1122 H 0.06426 0.29746 0.70818 0.0
H1123 H 0.09553 0.30835 0.75055 0.0
H1124 H 0.13412 0.3545 0.68033 0.0
H1125 H 0.10326 0.34341 0.63772 0.0
H1126 H 0.17123 0.32765 0.72475 0.0
H1127 H 0.08129 0.38574 0.72497 0.0
H1128 H 0.03077 0.39483 0.7284 0.0
H1129 H 0.03467 0.35775 0.8237 0.0
H1130 H 0.08525 0.34801 0.82057 0.0
H1131 H 0.20713 0.44275 0.80415 0.0
H1132 H 0.19216 0.40693 0.77136 0.0
H1133 H 0.15863 0.37488 0.85768 0.0
H1134 H 0.17309 0.411 0.89059 0.0
H1135 H 0.12119 0.38573 0.81189 0.0
H1136 H 0.2123 0.33645 0.81557 0.0
H1137 H 0.26274 0.3292 0.81184 0.0
H1138 H 0.25727 0.3509 0.70999 0.0
H1139 H 0.20678 0.35869 0.71319 0.0
C1140 C 0.07976 0.30946 0.70158 0.0
C1141 C 0.08098 0.32003 0.66977 0.0
C1142 C 0.09761 0.31562 0.72582 0.0
C1143 C 0.11677 0.33259 0.71863 0.0
C1144 C 0.11941 0.34141 0.68635 0.0
C1145 C 0.10164 0.33519 0.66208 0.0
C1146 C 0.13168 0.344 0.74515 0.0
C1147 C 0.16041 0.34035 0.74389 0.0
C1148 C 0.11744 0.35999 0.77049 0.0
C1149 C 0.08703 0.3658 0.77234 0.0
C1150 C 0.07136 0.37929 0.74652 0.0
C1151 C 0.04272 0.38459 0.74842 0.0
C1152 C 0.02951 0.37678 0.7762 0.0
C1153 C 0.04493 0.3637 0.80216 0.0
C1154 C 0.07358 0.35827 0.80032 0.0
C1155 C 0.19711 0.42773 0.8163 0.0
C1156 C 0.19092 0.42993 0.84985 0.0
C1157 C 0.18873 0.40711 0.79755 0.0
C1158 C 0.17434 0.38817 0.8121 0.0
C1159 C 0.16968 0.38931 0.84597 0.0
C1160 C 0.17792 0.41 0.86471 0.0
C1161 C 0.1609 0.36989 0.79131 0.0
C1162 C 0.13228 0.37241 0.79346 0.0
C1163 C 0.17529 0.35301 0.7668 0.0
C1164 C 0.20569 0.3483 0.76468 0.0
C1165 C 0.22183 0.33988 0.79242 0.0
C1166 C 0.25045 0.33563 0.79039 0.0
C1167 C 0.2632 0.33962 0.76071 0.0
C1168 C 0.24736 0.34782 0.73297 0.0
C1169 C 0.21873 0.3521 0.73487 0.0
H1170 H 0.28536 0.33633 0.75919 0.0
H1171 H 0.00733 0.38094 0.77766 0.0
H1172 H 0.33083 0.92492 0.37812 0.0
H1173 H 0.34592 0.89683 0.32989 0.0
H1174 H 0.38077 0.96353 0.2891 0.0
H1175 H 0.36498 0.99182 0.33618 0.0
H1176 H 0.35876 0.94056 0.24244 0.0
H1177 H 0.42002 0.90769 0.33211 0.0
H1178 H 0.43101 0.8886 0.38729 0.0
H1179 H 0.39618 0.81762 0.36249 0.0
H1180 H 0.38479 0.83644 0.30724 0.0
H1181 H 0.48691 0.85013 0.17495 0.0
H1182 H 0.45852 0.86751 0.22153 0.0
H1183 H 0.38555 0.8647 0.16479 0.0
H1184 H 0.41394 0.84763 0.11756 0.0
H1185 H 0.42071 0.85148 0.25921 0.0
H1186 H 0.33846 0.92207 0.18412 0.0
H1187 H 0.33325 0.94524 0.13038 0.0
H1188 H 0.41966 0.94703 0.12812 0.0
H1189 H 0.42529 0.92422 0.18198 0.0
C1190 C 0.34149 0.93363 0.35869 0.0
C1191 C 0.34683 0.96056 0.36111 0.0
C1192 C 0.35018 0.91753 0.33119 0.0
C1193 C 0.36482 0.92791 0.30598 0.0
C1194 C 0.36944 0.95503 0.30807 0.0
C1195 C 0.36046 0.9712 0.33518 0.0
C1196 C 0.37662 0.91052 0.27803 0.0
C1197 C 0.37201 0.92091 0.24612 0.0
C1198 C 0.39422 0.88502 0.2827 0.0
C1199 C 0.40131 0.87358 0.31573 0.0
C1200 C 0.41459 0.88808 0.33851 0.0
C1201 C 0.42091 0.8773 0.36977 0.0
C1202 C 0.41422 0.85195 0.37842 0.0
C1203 C 0.40131 0.83727 0.35578 0.0
C1204 C 0.39494 0.84796 0.32448 0.0
C1205 C 0.46483 0.85288 0.17235 0.0
C1206 C 0.45273 0.84783 0.1423 0.0
C1207 C 0.4486 0.86269 0.19916 0.0
C1208 C 0.41991 0.86772 0.19658 0.0
C1209 C 0.40767 0.86129 0.1672 0.0
C1210 C 0.42394 0.85148 0.14026 0.0
C1211 C 0.40323 0.88182 0.22381 0.0
C1212 C 0.40688 0.87079 0.25549 0.0
C1213 C 0.38551 0.90723 0.21911 0.0
C1214 C 0.38232 0.92109 0.18682 0.0
C1215 C 0.35632 0.92745 0.17214 0.0
C1216 C 0.3533 0.94052 0.14168 0.0
C1217 C 0.37613 0.94749 0.12578 0.0
C1218 C 0.40201 0.94151 0.14038 0.0
C1219 C 0.40513 0.92849 0.17085 0.0
H1220 H 0.37375 0.95759 0.1022 0.0
H1221 H 0.4191 0.84365 0.40264 0.0
H1222 H 0.9754 0.70097 0.71158 0.0
H1223 H 0.94257 0.68681 0.74974 0.0
H1224 H 0.89524 0.66413 0.66874 0.0
H1225 H 0.92794 0.67836 0.63029 0.0
H1226 H 0.86213 0.68854 0.71826 0.0
H1227 H 0.93733 0.61437 0.7054 0.0
H1228 H 0.98509 0.58964 0.70439 0.0
H1229 H 0.99568 0.61192 0.80453 0.0
H1230 H 0.94791 0.63676 0.80615 0.0
H1231 H 0.80803 0.57734 0.79569 0.0
H1232 H 0.82717 0.60964 0.76096 0.0
H1233 H 0.86478 0.63986 0.84547 0.0
H1234 H 0.8456 0.608 0.88039 0.0
H1235 H 0.90116 0.61477 0.7957 0.0
H1236 H 0.82037 0.68305 0.808 0.0
H1237 H 0.77074 0.70112 0.80651 0.0
H1238 H 0.76912 0.68472 0.7034 0.0
H1239 H 0.81869 0.66615 0.70435 0.0
C1240 C 0.95778 0.69339 0.70183 0.0
C1241 C 0.95439 0.69051 0.66794 0.0
C1242 C 0.93911 0.68523 0.72368 0.0
C1243 C 0.91672 0.67414 0.712 0.0
C1244 C 0.91244 0.67262 0.67818 0.0
C1245 C 0.9312 0.68065 0.65629 0.0
C1246 C 0.89893 0.66238 0.73507 0.0
C1247 C 0.87056 0.67231 0.73511 0.0
C1248 C 0.91005 0.64133 0.75709 0.0
C1249 C 0.93918 0.62767 0.75578 0.0
C1250 C 0.94994 0.61423 0.7271 0.0
C1251 C 0.97692 0.6 0.7265 0.0
C1252 C 0.99337 0.59914 0.75441 0.0
C1253 C 0.98289 0.61255 0.78296 0.0
C1254 C 0.95585 0.62666 0.78376 0.0
C1255 C 0.81974 0.59138 0.807 0.0
C1256 C 0.82577 0.58975 0.84065 0.0
C1257 C 0.83051 0.60991 0.78716 0.0
C1258 C 0.84742 0.62696 0.80075 0.0
C1259 C 0.85172 0.62682 0.83464 0.0
C1260 C 0.84081 0.60852 0.8545 0.0
C1261 C 0.8644 0.64113 0.77929 0.0
C1262 C 0.89271 0.63138 0.77932 0.0
C1263 C 0.85306 0.66182 0.75697 0.0
C1264 C 0.82323 0.67295 0.75632 0.0
C1265 C 0.80939 0.68303 0.78506 0.0
C1266 C 0.78127 0.69343 0.7843 0.0
C1267 C 0.76677 0.694 0.75489 0.0
C1268 C 0.78037 0.68424 0.72617 0.0
C1269 C 0.80849 0.6738 0.7268 0.0
H1270 H 0.745 0.70207 0.75435 0.0
H1271 H 0.01429 0.58819 0.75386 0.0
loop_
_geom_bond_atom_site_label_1
_geom_bond_atom_site_label_2
_geom_bond_distance
_geom_bond_site_symmetry_2
_ccdc_geom_bond_type
Co0 O3 1.936 1_545 S
Co0 N17 1.989 . S
Co0 O25 1.967 . S
Co0 O32 1.920 . S
Co1 O4 1.966 . S
Co1 N10 2.022 . S
Co1 N18 1.993 1_565 S
Co1 O26 1.941 . S
C2 O3 1.300 . S
C2 O4 1.263 . S
O3 Co0 1.936 1_565 S
O3 C2 1.300 . S
O4 Co1 1.966 . S
O4 C2 1.263 . S
C5 O6 1.235 . S
C5 O32 1.289 . S
O6 C5 1.235 . S
C7 C9 1.400 . S
C7 N10 1.351 . S
C7 C12 1.501 . S
C8 C9 1.387 . S
C8 N11 1.341 . S
C9 C7 1.400 . S
C9 C8 1.387 . S
N10 Co1 2.022 . S
N10 C7 1.351 . S
N10 N11 1.365 . S
N11 C8 1.341 . S
N11 N10 1.365 . S
N11 H31 0.862 . S
C12 C7 1.501 . S
C12 H13 0.961 . S
C12 H14 0.961 . S
C12 H15 0.960 . S
H13 C12 0.961 . S
H14 C12 0.961 . S
H15 C12 0.960 . S
C16 N17 1.342 . S
C16 C20 1.401 . S
C16 C21 1.499 . S
N17 Co0 1.989 . S
N17 C16 1.342 . S
N17 N18 1.388 . S
N18 Co1 1.993 1_545 S
N18 N17 1.388 . S
N18 C19 1.346 . S
C19 N18 1.346 . S
C19 C20 1.396 . S
C19 C29 1.510 . S
C20 C16 1.401 . S
C20 C19 1.396 . S
C21 C16 1.499 . S
C21 H22 0.959 . S
C21 H23 0.960 . S
C21 H24 0.961 . S
H22 C21 0.959 . S
H23 C21 0.960 . S
H24 C21 0.961 . S
O25 Co0 1.967 . S
O25 C33 1.259 . S
O26 Co1 1.941 . S
O26 C33 1.265 1_565 S
H27 C29 0.959 . S
H28 C29 0.961 . S
C29 C19 1.510 . S
C29 H27 0.959 . S
C29 H28 0.961 . S
C29 H30 0.960 1_545 S
H30 C29 0.960 1_565 S
H31 N11 0.862 . S
O32 Co0 1.920 . S
O32 C5 1.289 . S
C33 O25 1.259 . S
C33 O26 1.265 1_545 S
Co34 O37 1.970 1_655 S
Co34 N51 1.989 . S
Co34 O59 1.967 1_655 S
Co34 O66 1.920 . S
Co35 O38 1.966 . S
Co35 N44 2.022 . S
Co35 N52 1.993 . S
Co35 O60 1.941 . S
C36 O37 1.258 . S
C36 O38 1.263 . S
O37 Co34 1.970 1_455 S
O37 C36 1.258 . S
O38 Co35 1.966 . S
O38 C36 1.263 . S
C39 O40 1.235 . S
C39 O66 1.289 . S
O40 C39 1.235 . S
C41 C43 1.400 . S
C41 N44 1.351 . S
C41 C46 1.501 . S
C42 C43 1.387 . S
C42 N45 1.341 . S
C43 C41 1.400 . S
C43 C42 1.387 . S
N44 Co35 2.022 . S
N44 C41 1.351 . S
N44 N45 1.365 . S
N45 C42 1.341 . S
N45 N44 1.365 . S
N45 H65 0.862 . S
C46 C41 1.501 . S
C46 H47 0.961 . S
C46 H48 0.961 . S
C46 H49 0.960 . S
H47 C46 0.961 . S
H48 C46 0.961 . S
H49 C46 0.960 . S
C50 N51 1.342 . S
C50 C54 1.401 . S
C50 C55 1.499 . S
N51 Co34 1.989 . S
N51 C50 1.342 . S
N51 N52 1.388 1_655 S
N52 Co35 1.993 . S
N52 N51 1.388 1_455 S
N52 C53 1.346 1_455 S
C53 N52 1.346 1_655 S
C53 C54 1.396 . S
C53 C63 1.510 1_655 S
C54 C50 1.401 . S
C54 C53 1.396 . S
C55 C50 1.499 . S
C55 H56 0.959 . S
C55 H57 0.960 . S
C55 H58 0.961 . S
H56 C55 0.959 . S
H57 C55 0.960 . S
H58 C55 0.961 . S
O59 Co34 1.967 1_455 S
O59 C67 1.258 . S
O60 Co35 1.941 . S
O60 C67 1.266 . S
H61 C63 0.963 . S
H62 C63 0.961 . S
C63 C53 1.510 1_455 S
C63 H61 0.963 . S
C63 H62 0.961 . S
C63 H64 0.960 . S
H64 C63 0.960 . S
H65 N45 0.862 . S
O66 Co34 1.920 . S
O66 C39 1.289 . S
C67 O59 1.258 . S
C67 O60 1.266 . S
Co68 O71 1.970 1_565 S
Co68 N85 1.989 . S
Co68 O93 1.967 1_565 S
Co68 O100 1.920 . S
Co69 O72 1.966 . S
Co69 N78 2.022 . S
Co69 N86 1.993 . S
Co69 O94 1.941 . S
C70 O71 1.258 . S
C70 O72 1.263 . S
O71 Co68 1.970 1_545 S
O71 C70 1.258 . S
O72 Co69 1.966 . S
O72 C70 1.263 . S
C73 O74 1.235 . S
C73 O100 1.289 . S
O74 C73 1.235 . S
C75 C77 1.400 . S
C75 N78 1.351 . S
C75 C80 1.501 . S
C76 C77 1.387 . S
C76 N79 1.341 . S
C77 C75 1.400 . S
C77 C76 1.387 . S
N78 Co69 2.022 . S
N78 C75 1.351 . S
N78 N79 1.365 . S
N79 C76 1.341 . S
N79 N78 1.365 . S
N79 H99 0.862 . S
C80 C75 1.501 . S
C80 H81 0.961 . S
C80 H82 0.961 . S
C80 H83 0.960 . S
H81 C80 0.961 . S
H82 C80 0.961 . S
H83 C80 0.960 . S
C84 N85 1.342 . S
C84 C88 1.401 . S
C84 C89 1.499 . S
N85 Co68 1.989 . S
N85 C84 1.342 . S
N85 N86 1.388 1_565 S
N86 Co69 1.993 . S
N86 N85 1.388 1_545 S
N86 C87 1.346 1_545 S
C87 N86 1.346 1_565 S
C87 C88 1.396 . S
C87 C97 1.510 1_565 S
C88 C84 1.401 . S
C88 C87 1.396 . S
C89 C84 1.499 . S
C89 H90 0.959 . S
C89 H91 0.960 . S
C89 H92 0.961 . S
H90 C89 0.959 . S
H91 C89 0.960 . S
H92 C89 0.961 . S
O93 Co68 1.967 1_545 S
O93 C101 1.258 . S
O94 Co69 1.941 . S
O94 C101 1.266 . S
H95 C97 0.963 . S
H96 C97 0.961 . S
C97 C87 1.510 1_545 S
C97 H95 0.963 . S
C97 H96 0.961 . S
C97 H98 0.960 . S
H98 C97 0.960 . S
H99 N79 0.862 . S
O100 Co68 1.920 . S
O100 C73 1.289 . S
C101 O93 1.258 . S
C101 O94 1.266 . S
Co102 O105 1.936 1_455 S
Co102 N119 1.989 . S
Co102 O127 1.967 . S
Co102 O134 1.920 . S
Co103 O106 1.966 . S
Co103 N112 2.022 . S
Co103 N120 1.993 1_655 S
Co103 O128 1.941 . S
C104 O105 1.300 . S
C104 O106 1.263 . S
O105 Co102 1.936 1_655 S
O105 C104 1.300 . S
O106 Co103 1.966 . S
O106 C104 1.263 . S
C107 O108 1.235 . S
C107 O134 1.289 . S
O108 C107 1.235 . S
C109 C111 1.400 . S
C109 N112 1.351 . S
C109 C114 1.501 . S
C110 C111 1.387 . S
C110 N113 1.341 . S
C111 C109 1.400 . S
C111 C110 1.387 . S
N112 Co103 2.022 . S
N112 C109 1.351 . S
N112 N113 1.365 . S
N113 C110 1.341 . S
N113 N112 1.365 . S
N113 H133 0.862 . S
C114 C109 1.501 . S
C114 H115 0.961 . S
C114 H116 0.961 . S
C114 H117 0.960 . S
H115 C114 0.961 . S
H116 C114 0.961 . S
H117 C114 0.960 . S
C118 N119 1.342 . S
C118 C122 1.401 . S
C118 C123 1.499 . S
N119 Co102 1.989 . S
N119 C118 1.342 . S
N119 N120 1.388 . S
N120 Co103 1.993 1_455 S
N120 N119 1.388 . S
N120 C121 1.346 . S
C121 N120 1.346 . S
C121 C122 1.396 . S
C121 C131 1.510 . S
C122 C118 1.401 . S
C122 C121 1.396 . S
C123 C118 1.499 . S
C123 H124 0.959 . S
C123 H125 0.960 . S
C123 H126 0.961 . S
H124 C123 0.959 . S
H125 C123 0.960 . S
H126 C123 0.961 . S
O127 Co102 1.967 . S
O127 C135 1.259 . S
O128 Co103 1.941 . S
O128 C135 1.265 1_655 S
H129 C131 0.959 . S
H130 C131 0.961 . S
C131 C121 1.510 . S
C131 H129 0.959 . S
C131 H130 0.961 . S
C131 H132 0.960 1_455 S
H132 C131 0.960 1_655 S
H133 N113 0.862 . S
O134 Co102 1.920 . S
O134 C107 1.289 . S
C135 O127 1.259 . S
C135 O128 1.265 1_455 S
Co136 O139 1.970 . S
Co136 N153 1.989 . S
Co136 O161 1.967 . S
Co136 O168 1.920 . S
Co137 O140 1.966 . S
Co137 N146 2.022 . S
Co137 N154 1.993 . S
Co137 O162 1.941 . S
C138 O139 1.258 . S
C138 O140 1.263 . S
O139 Co136 1.970 . S
O139 C138 1.258 . S
O140 Co137 1.966 . S
O140 C138 1.263 . S
C141 O142 1.235 . S
C141 O168 1.289 . S
O142 C141 1.235 . S
C143 C145 1.400 . S
C143 N146 1.351 . S
C143 C148 1.501 . S
C144 C145 1.387 1_554 S
C144 N147 1.341 . S
C145 C143 1.400 . S
C145 C144 1.387 1_556 S
N146 Co137 2.022 . S
N146 C143 1.351 . S
N146 N147 1.365 1_556 S
N147 C144 1.341 . S
N147 N146 1.365 1_554 S
N147 H167 0.862 . S
C148 C143 1.501 . S
C148 H149 0.961 . S
C148 H150 0.961 . S
C148 H151 0.960 . S
H149 C148 0.961 . S
H150 C148 0.961 . S
H151 C148 0.960 . S
C152 N153 1.342 . S
C152 C156 1.401 . S
C152 C157 1.499 . S
N153 Co136 1.989 . S
N153 C152 1.342 . S
N153 N154 1.388 . S
N154 Co137 1.993 . S
N154 N153 1.388 . S
N154 C155 1.346 . S
C155 N154 1.346 . S
C155 C156 1.396 . S
C155 C165 1.510 . S
C156 C152 1.401 . S
C156 C155 1.396 . S
C157 C152 1.499 . S
C157 H158 0.959 . S
C157 H159 0.960 . S
C157 H160 0.961 . S
H158 C157 0.959 . S
H159 C157 0.960 . S
H160 C157 0.961 . S
O161 Co136 1.967 . S
O161 C169 1.258 . S
O162 Co137 1.941 . S
O162 C169 1.266 . S
H163 C165 0.959 1_554 S
H164 C165 0.961 . S
C165 C155 1.510 . S
C165 H163 0.959 1_556 S
C165 H164 0.961 . S
C165 H166 0.960 . S
H166 C165 0.960 . S
H167 N147 0.862 . S
O168 Co136 1.920 . S
O168 C141 1.289 . S
C169 O161 1.258 . S
C169 O162 1.266 . S
Co170 O173 1.970 . S
Co170 N187 1.989 . S
Co170 O195 1.967 . S
Co170 O202 1.920 . S
Co171 O174 1.966 . S
Co171 N180 2.022 . S
Co171 N188 1.993 . S
Co171 O196 1.941 . S
C172 O173 1.258 . S
C172 O174 1.263 . S
O173 Co170 1.970 . S
O173 C172 1.258 . S
O174 Co171 1.966 . S
O174 C172 1.263 . S
C175 O176 1.235 . S
C175 O202 1.289 . S
O176 C175 1.235 . S
C177 C179 1.400 . S
C177 N180 1.351 . S
C177 C182 1.501 . S
C178 C179 1.387 1_556 S
C178 N181 1.341 . S
C179 C177 1.400 . S
C179 C178 1.387 1_554 S
N180 Co171 2.022 . S
N180 C177 1.351 . S
N180 N181 1.365 1_554 S
N181 C178 1.341 . S
N181 N180 1.365 1_556 S
N181 H201 0.862 . S
C182 C177 1.501 . S
C182 H183 0.961 . S
C182 H184 0.961 . S
C182 H185 0.960 . S
H183 C182 0.961 . S
H184 C182 0.961 . S
H185 C182 0.960 . S
C186 N187 1.342 . S
C186 C190 1.401 . S
C186 C191 1.499 . S
N187 Co170 1.989 . S
N187 C186 1.342 . S
N187 N188 1.388 . S
N188 Co171 1.993 . S
N188 N187 1.388 . S
N188 C189 1.346 . S
C189 N188 1.346 . S
C189 C190 1.396 . S
C189 C199 1.510 . S
C190 C186 1.401 . S
C190 C189 1.396 . S
C191 C186 1.499 . S
C191 H192 0.959 . S
C191 H193 0.960 . S
C191 H194 0.961 . S
H192 C191 0.959 . S
H193 C191 0.960 . S
H194 C191 0.961 . S
O195 Co170 1.967 . S
O195 C203 1.258 . S
O196 Co171 1.941 . S
O196 C203 1.266 . S
H197 C199 0.959 1_556 S
H198 C199 0.961 . S
C199 C189 1.510 . S
C199 H197 0.959 1_554 S
C199 H198 0.961 . S
C199 H200 0.960 . S
H200 C199 0.960 . S
H201 N181 0.862 . S
O202 Co170 1.920 . S
O202 C175 1.289 . S
C203 O195 1.258 . S
C203 O196 1.266 . S
Co204 O207 1.970 . S
Co204 N221 1.989 . S
Co204 O229 1.967 . S
Co204 O236 1.920 . S
Co205 O208 1.966 . S
Co205 N214 2.022 . S
Co205 N222 1.993 . S
Co205 O230 1.941 . S
C206 O207 1.258 . S
C206 O208 1.263 . S
O207 Co204 1.970 . S
O207 C206 1.258 . S
O208 Co205 1.966 . S
O208 C206 1.263 . S
C209 O210 1.235 . S
C209 O236 1.289 . S
O210 C209 1.235 . S
C211 C213 1.400 . S
C211 N214 1.351 . S
C211 C216 1.501 . S
C212 C213 1.387 1_554 S
C212 N215 1.341 . S
C213 C211 1.400 . S
C213 C212 1.387 1_556 S
N214 Co205 2.022 . S
N214 C211 1.351 . S
N214 N215 1.365 1_556 S
N215 C212 1.341 . S
N215 N214 1.365 1_554 S
N215 H235 0.862 . S
C216 C211 1.501 . S
C216 H217 0.961 . S
C216 H218 0.961 . S
C216 H219 0.960 . S
H217 C216 0.961 . S
H218 C216 0.961 . S
H219 C216 0.960 . S
C220 N221 1.342 . S
C220 C224 1.401 . S
C220 C225 1.499 . S
N221 Co204 1.989 . S
N221 C220 1.342 . S
N221 N222 1.388 . S
N222 Co205 1.993 . S
N222 N221 1.388 . S
N222 C223 1.346 . S
C223 N222 1.346 . S
C223 C224 1.396 . S
C223 C233 1.510 . S
C224 C220 1.401 . S
C224 C223 1.396 . S
C225 C220 1.499 . S
C225 H226 0.959 . S
C225 H227 0.960 . S
C225 H228 0.961 . S
H226 C225 0.959 . S
H227 C225 0.960 . S
H228 C225 0.961 . S
O229 Co204 1.967 . S
O229 C237 1.258 . S
O230 Co205 1.941 . S
O230 C237 1.266 . S
H231 C233 0.959 1_554 S
H232 C233 0.961 . S
C233 C223 1.510 . S
C233 H231 0.959 1_556 S
C233 H232 0.961 . S
C233 H234 0.960 . S
H234 C233 0.960 . S
H235 N215 0.862 . S
O236 Co204 1.920 . S
O236 C209 1.289 . S
C237 O229 1.258 . S
C237 O230 1.266 . S
Co238 O241 1.970 . S
Co238 N255 1.989 . S
Co238 O263 1.967 . S
Co238 O270 1.920 . S
Co239 O242 1.966 . S
Co239 N248 2.022 . S
Co239 N256 1.993 . S
Co239 O264 1.941 . S
C240 O241 1.258 . S
C240 O242 1.263 . S
O241 Co238 1.970 . S
O241 C240 1.258 . S
O242 Co239 1.966 . S
O242 C240 1.263 . S
C243 O244 1.235 . S
C243 O270 1.289 . S
O244 C243 1.235 . S
C245 C247 1.400 . S
C245 N248 1.351 . S
C245 C250 1.501 . S
C246 C247 1.387 1_556 S
C246 N249 1.341 . S
C247 C245 1.400 . S
C247 C246 1.387 1_554 S
N248 Co239 2.022 . S
N248 C245 1.351 . S
N248 N249 1.365 1_554 S
N249 C246 1.341 . S
N249 N248 1.365 1_556 S
N249 H269 0.862 . S
C250 C245 1.501 . S
C250 H251 0.961 . S
C250 H252 0.961 . S
C250 H253 0.960 . S
H251 C250 0.961 . S
H252 C250 0.961 . S
H253 C250 0.960 . S
C254 N255 1.342 . S
C254 C258 1.401 . S
C254 C259 1.499 . S
N255 Co238 1.989 . S
N255 C254 1.342 . S
N255 N256 1.388 . S
N256 Co239 1.993 . S
N256 N255 1.388 . S
N256 C257 1.346 . S
C257 N256 1.346 . S
C257 C258 1.396 . S
C257 C267 1.510 . S
C258 C254 1.401 . S
C258 C257 1.396 . S
C259 C254 1.499 . S
C259 H260 0.959 . S
C259 H261 0.960 . S
C259 H262 0.961 . S
H260 C259 0.959 . S
H261 C259 0.960 . S
H262 C259 0.961 . S
O263 Co238 1.967 . S
O263 C271 1.258 . S
O264 Co239 1.941 . S
O264 C271 1.266 . S
H265 C267 0.959 1_556 S
H266 C267 0.961 . S
C267 C257 1.510 . S
C267 H265 0.959 1_554 S
C267 H266 0.961 . S
C267 H268 0.960 . S
H268 C267 0.960 . S
H269 N249 0.862 . S
O270 Co238 1.920 . S
O270 C243 1.289 . S
C271 O263 1.258 . S
C271 O264 1.266 . S
H272 C290 0.951 . S
H273 C292 0.951 . S
H274 C294 0.950 . S
H275 C295 0.950 . S
H276 C297 0.950 . S
H277 C300 0.950 . S
H278 C301 0.950 . S
H279 C303 0.950 . S
H280 C304 0.950 . S
H281 C305 0.951 . S
H282 C307 0.951 . S
H283 C309 0.950 . S
H284 C310 0.950 . S
H285 C312 0.950 . S
H286 C315 0.950 1_545 S
H287 C316 0.950 . S
H288 C318 0.950 . S
H289 C319 0.950 . S
C290 H272 0.951 . S
C290 C291 1.366 . S
C290 C292 1.388 . S
C291 C290 1.366 . S
C291 C295 1.385 1_545 S
C292 H273 0.951 . S
C292 C290 1.388 . S
C292 C293 1.366 . S
C293 C292 1.366 . S
C293 C294 1.414 1_545 S
C293 C296 1.499 . S
C294 H274 0.950 . S
C294 C293 1.414 1_565 S
C294 C295 1.374 . S
C295 H275 0.950 . S
C295 C291 1.385 1_565 S
C295 C294 1.374 . S
C296 C293 1.499 . S
C296 C297 1.373 1_545 S
C296 C298 1.389 . S
C297 H276 0.950 . S
C297 C296 1.373 1_565 S
C297 C313 1.377 . S
C298 C296 1.389 . S
C298 C299 1.524 . S
C298 C312 1.377 . S
C299 C298 1.524 . S
C299 C300 1.397 . S
C299 C304 1.363 . S
C300 H277 0.950 . S
C300 C299 1.397 . S
C300 C301 1.334 . S
C301 H278 0.950 . S
C301 C300 1.334 . S
C301 C302 1.287 . S
C302 C301 1.287 . S
C302 C303 1.524 . S
C302 H321 0.913 . S
C303 H279 0.950 . S
C303 C302 1.524 . S
C303 C304 1.415 . S
C304 H280 0.950 . S
C304 C299 1.363 . S
C304 C303 1.415 . S
C305 H281 0.951 . S
C305 C306 1.384 . S
C305 C307 1.388 . S
C306 C305 1.384 . S
C306 C310 1.358 1_565 S
C307 H282 0.951 . S
C307 C305 1.388 . S
C307 C308 1.366 1_565 S
C308 C307 1.366 1_545 S
C308 C309 1.414 . S
C308 C311 1.499 . S
C309 H283 0.950 . S
C309 C308 1.414 . S
C309 C310 1.374 . S
C310 H284 0.950 . S
C310 C306 1.358 1_545 S
C310 C309 1.374 . S
C311 C308 1.499 . S
C311 C312 1.373 . S
C311 C313 1.389 1_545 S
C312 H285 0.950 . S
C312 C298 1.377 . S
C312 C311 1.373 . S
C313 C297 1.377 . S
C313 C311 1.389 1_565 S
C313 C314 1.524 . S
C314 C313 1.524 . S
C314 C315 1.397 . S
C314 C319 1.363 . S
C315 H286 0.950 1_565 S
C315 C314 1.397 . S
C315 C316 1.334 . S
C316 H287 0.950 . S
C316 C315 1.334 . S
C316 C317 1.287 . S
C317 C316 1.287 . S
C317 C318 1.524 . S
C317 H320 0.999 . S
C318 H288 0.950 . S
C318 C317 1.524 . S
C318 C319 1.415 . S
C319 H289 0.950 . S
C319 C314 1.363 . S
C319 C318 1.415 . S
H320 C317 0.999 . S
H321 C302 0.913 . S
H322 C340 0.951 . S
H323 C342 0.951 . S
H324 C344 0.950 . S
H325 C345 0.950 . S
H326 C347 0.950 . S
H327 C350 0.950 . S
H328 C351 0.950 . S
H329 C353 0.950 . S
H330 C354 0.950 . S
H331 C355 0.951 . S
H332 C357 0.951 . S
H333 C359 0.950 . S
H334 C360 0.950 . S
H335 C362 0.950 . S
H336 C365 0.950 . S
H337 C366 0.950 . S
H338 C368 0.950 . S
H339 C369 0.950 . S
C340 H322 0.951 . S
C340 C341 1.366 . S
C340 C342 1.388 . S
C341 C340 1.366 . S
C341 C345 1.385 . S
C342 H323 0.951 . S
C342 C340 1.388 . S
C342 C343 1.366 . S
C343 C342 1.366 . S
C343 C344 1.414 . S
C343 C346 1.499 . S
C344 H324 0.950 . S
C344 C343 1.414 . S
C344 C345 1.374 . S
C345 H325 0.950 . S
C345 C341 1.385 . S
C345 C344 1.374 . S
C346 C343 1.499 . S
C346 C347 1.373 . S
C346 C348 1.389 1_455 S
C347 H326 0.950 . S
C347 C346 1.373 . S
C347 C363 1.377 . S
C348 C346 1.389 1_655 S
C348 C349 1.524 . S
C348 C362 1.377 . S
C349 C348 1.524 . S
C349 C350 1.397 . S
C349 C354 1.363 . S
C350 H327 0.950 . S
C350 C349 1.397 . S
C350 C351 1.334 . S
C351 H328 0.950 . S
C351 C350 1.334 . S
C351 C352 1.287 . S
C352 C351 1.287 . S
C352 C353 1.524 . S
C352 H371 0.913 . S
C353 H329 0.950 . S
C353 C352 1.524 . S
C353 C354 1.415 . S
C354 H330 0.950 . S
C354 C349 1.363 . S
C354 C353 1.415 . S
C355 H331 0.951 . S
C355 C356 1.359 1_455 S
C355 C357 1.388 . S
C356 C355 1.359 1_655 S
C356 C360 1.383 . S
C357 H332 0.951 . S
C357 C355 1.388 . S
C357 C358 1.366 . S
C358 C357 1.366 . S
C358 C359 1.414 . S
C358 C361 1.499 . S
C359 H333 0.950 . S
C359 C358 1.414 . S
C359 C360 1.374 1_455 S
C360 H334 0.950 . S
C360 C356 1.383 . S
C360 C359 1.374 1_655 S
C361 C358 1.499 . S
C361 C362 1.373 1_455 S
C361 C363 1.389 . S
C362 H335 0.950 . S
C362 C348 1.377 . S
C362 C361 1.373 1_655 S
C363 C347 1.377 . S
C363 C361 1.389 . S
C363 C364 1.524 . S
C364 C363 1.524 . S
C364 C365 1.397 . S
C364 C369 1.363 . S
C365 H336 0.950 . S
C365 C364 1.397 . S
C365 C366 1.334 . S
C366 H337 0.950 . S
C366 C365 1.334 . S
C366 C367 1.287 . S
C367 C366 1.287 . S
C367 C368 1.524 . S
C367 H370 0.999 . S
C368 H338 0.950 . S
C368 C367 1.524 . S
C368 C369 1.415 . S
C369 H339 0.950 . S
C369 C364 1.363 . S
C369 C368 1.415 . S
H370 C367 0.999 . S
H371 C352 0.913 . S
H372 C390 0.951 1_554 S
H373 C392 0.951 1_554 S
H374 C394 0.950 . S
H375 C395 0.950 . S
H376 C397 0.950 . S
H377 C400 0.950 . S
H378 C401 0.950 . S
H379 C403 0.950 . S
H380 C404 0.950 1_455 S
H381 C405 0.951 . S
H382 C407 0.951 . S
H383 C409 0.950 1_554 S
H384 C410 0.950 1_554 S
H385 C412 0.955 . S
H386 C415 0.950 . S
H387 C416 0.950 . S
H388 C418 0.950 . S
H389 C419 0.950 . S
C390 H372 0.951 1_556 S
C390 C391 1.366 . S
C390 C392 1.388 . S
C391 C390 1.366 . S
C391 C395 1.385 . S
C392 H373 0.951 1_556 S
C392 C390 1.388 . S
C392 C393 1.366 . S
C393 C392 1.366 . S
C393 C394 1.414 . S
C393 C396 1.499 . S
C394 H374 0.950 . S
C394 C393 1.414 . S
C394 C395 1.374 . S
C395 H375 0.950 . S
C395 C391 1.385 . S
C395 C394 1.374 . S
C396 C393 1.499 . S
C396 C397 1.373 . S
C396 C398 1.369 1_556 S
C397 H376 0.950 . S
C397 C396 1.373 . S
C397 C413 1.377 1_655 S
C398 C396 1.369 1_554 S
C398 C399 1.546 . S
C398 C412 1.376 1_655 S
C399 C398 1.546 . S
C399 C400 1.397 . S
C399 C404 1.363 . S
C400 H377 0.950 . S
C400 C399 1.397 . S
C400 C401 1.334 . S
C401 H378 0.950 . S
C401 C400 1.334 . S
C401 C402 1.287 . S
C402 C401 1.287 . S
C402 C403 1.524 . S
C402 H421 0.913 . S
C403 H379 0.950 . S
C403 C402 1.524 . S
C403 C404 1.415 . S
C404 H380 0.950 1_655 S
C404 C399 1.363 . S
C404 C403 1.415 . S
C405 H381 0.951 . S
C405 C406 1.366 . S
C405 C407 1.388 . S
C406 C405 1.366 . S
C406 C410 1.385 . S
C407 H382 0.951 . S
C407 C405 1.388 . S
C407 C408 1.366 . S
C408 C407 1.366 . S
C408 C409 1.414 . S
C408 C411 1.499 . S
C409 H383 0.950 1_556 S
C409 C408 1.414 . S
C409 C410 1.374 . S
C410 H384 0.950 1_556 S
C410 C406 1.385 . S
C410 C409 1.374 . S
C411 C408 1.499 . S
C411 C412 1.368 1_556 S
C411 C413 1.389 . S
C412 H385 0.955 . S
C412 C398 1.376 1_455 S
C412 C411 1.368 1_554 S
C413 C397 1.377 1_455 S
C413 C411 1.389 . S
C413 C414 1.524 . S
C414 C413 1.524 . S
C414 C415 1.397 . S
C414 C419 1.363 . S
C415 H386 0.950 . S
C415 C414 1.397 . S
C415 C416 1.334 . S
C416 H387 0.950 . S
C416 C415 1.334 . S
C416 C417 1.287 . S
C417 C416 1.287 . S
C417 C418 1.524 . S
C417 H420 0.999 . S
C418 H388 0.950 . S
C418 C417 1.524 . S
C418 C419 1.415 . S
C419 H389 0.950 . S
C419 C414 1.363 . S
C419 C418 1.415 . S
H420 C417 0.999 . S
H421 C402 0.913 . S
H422 C440 0.951 1_556 S
H423 C442 0.950 1_556 S
H424 C444 0.950 . S
H425 C445 0.950 . S
H426 C447 0.936 1_565 S
H427 C450 0.950 . S
H428 C451 0.950 . S
H429 C453 0.950 . S
H430 C454 0.950 . S
H431 C455 0.951 . S
H432 C457 0.951 . S
H433 C459 0.950 1_556 S
H434 C460 0.950 1_556 S
H435 C462 0.950 . S
H436 C465 0.950 . S
H437 C466 0.950 . S
H438 C468 0.950 . S
H439 C469 0.950 . S
C440 H422 0.951 1_554 S
C440 C441 1.366 . S
C440 C442 1.388 . S
C441 C440 1.366 . S
C441 C445 1.385 . S
C442 H423 0.950 1_554 S
C442 C440 1.388 . S
C442 C443 1.366 . S
C443 C442 1.366 . S
C443 C444 1.414 . S
C443 C446 1.499 . S
C444 H424 0.950 . S
C444 C443 1.414 . S
C444 C445 1.374 . S
C445 H425 0.950 . S
C445 C441 1.385 . S
C445 C444 1.374 . S
C446 C443 1.499 . S
C446 C447 1.373 1_565 S
C446 C448 1.389 . S
C447 H426 0.936 1_545 S
C447 C446 1.373 1_545 S
C447 C463 1.377 . S
C448 C446 1.389 . S
C448 C449 1.524 . S
C448 C462 1.377 1_565 S
C449 C448 1.524 . S
C449 C450 1.397 . S
C449 C454 1.363 . S
C450 H427 0.950 . S
C450 C449 1.397 . S
C450 C451 1.334 . S
C451 H428 0.950 . S
C451 C450 1.334 . S
C451 C452 1.287 . S
C452 C451 1.287 . S
C452 C453 1.524 . S
C452 H471 0.913 . S
C453 H429 0.950 . S
C453 C452 1.524 . S
C453 C454 1.415 . S
C454 H430 0.950 . S
C454 C449 1.363 . S
C454 C453 1.415 . S
C455 H431 0.951 . S
C455 C456 1.366 . S
C455 C457 1.388 . S
C456 C455 1.366 . S
C456 C460 1.385 . S
C457 H432 0.951 . S
C457 C455 1.388 . S
C457 C458 1.366 . S
C458 C457 1.366 . S
C458 C459 1.414 . S
C458 C461 1.499 . S
C459 H433 0.950 1_554 S
C459 C458 1.414 . S
C459 C460 1.374 . S
C460 H434 0.950 1_554 S
C460 C456 1.385 . S
C460 C459 1.374 . S
C461 C458 1.499 . S
C461 C462 1.373 . S
C461 C463 1.389 . S
C462 H435 0.950 . S
C462 C448 1.377 1_545 S
C462 C461 1.373 . S
C463 C447 1.377 . S
C463 C461 1.389 . S
C463 C464 1.524 . S
C464 C463 1.524 . S
C464 C465 1.397 1_554 S
C464 C469 1.363 . S
C465 H436 0.950 . S
C465 C464 1.397 1_556 S
C465 C466 1.334 . S
C466 H437 0.950 . S
C466 C465 1.334 . S
C466 C467 1.287 . S
C467 C466 1.287 . S
C467 C468 1.524 1_556 S
C467 H470 0.999 . S
C468 H438 0.950 . S
C468 C467 1.524 1_554 S
C468 C469 1.415 . S
C469 H439 0.950 . S
C469 C464 1.363 . S
C469 C468 1.415 . S
H470 C467 0.999 . S
H471 C452 0.913 . S
H472 C490 0.951 . S
H473 C492 0.951 . S
H474 C494 0.950 . S
H475 C495 0.950 . S
H476 C497 0.950 . S
H477 C500 0.950 . S
H478 C501 0.950 . S
H479 C503 0.950 . S
H480 C504 0.950 . S
H481 C505 0.951 . S
H482 C507 0.951 . S
H483 C509 0.950 . S
H484 C510 0.950 . S
H485 C512 0.950 . S
H486 C515 0.950 . S
H487 C516 0.950 . S
H488 C518 0.950 . S
H489 C519 0.950 . S
C490 H472 0.951 . S
C490 C491 1.366 . S
C490 C492 1.388 . S
C491 C490 1.366 . S
C491 C495 1.385 . S
C492 H473 0.951 . S
C492 C490 1.388 . S
C492 C493 1.366 . S
C493 C492 1.366 . S
C493 C494 1.414 . S
C493 C496 1.499 . S
C494 H474 0.950 . S
C494 C493 1.414 . S
C494 C495 1.374 . S
C495 H475 0.950 . S
C495 C491 1.385 . S
C495 C494 1.374 . S
C496 C493 1.499 . S
C496 C497 1.373 . S
C496 C498 1.389 . S
C497 H476 0.950 . S
C497 C496 1.373 . S
C497 C513 1.377 . S
C498 C496 1.389 . S
C498 C499 1.524 . S
C498 C512 1.377 . S
C499 C498 1.524 . S
C499 C500 1.397 . S
C499 C504 1.363 . S
C500 H477 0.950 . S
C500 C499 1.397 . S
C500 C501 1.334 . S
C501 H478 0.950 . S
C501 C500 1.334 . S
C501 C502 1.287 . S
C502 C501 1.287 . S
C502 C503 1.524 . S
C502 H521 0.913 . S
C503 H479 0.950 . S
C503 C502 1.524 . S
C503 C504 1.415 . S
C504 H480 0.950 . S
C504 C499 1.363 . S
C504 C503 1.415 . S
C505 H481 0.951 . S
C505 C506 1.366 . S
C505 C507 1.388 . S
C506 C505 1.366 . S
C506 C510 1.385 . S
C507 H482 0.951 . S
C507 C505 1.388 . S
C507 C508 1.366 . S
C508 C507 1.366 . S
C508 C509 1.414 . S
C508 C511 1.499 . S
C509 H483 0.950 . S
C509 C508 1.414 . S
C509 C510 1.374 . S
C510 H484 0.950 . S
C510 C506 1.385 . S
C510 C509 1.374 . S
C511 C508 1.499 . S
C511 C512 1.373 . S
C511 C513 1.389 . S
C512 H485 0.950 . S
C512 C498 1.377 . S
C512 C511 1.373 . S
C513 C497 1.377 . S
C513 C511 1.389 . S
C513 C514 1.524 . S
C514 C513 1.524 . S
C514 C515 1.397 . S
C514 C519 1.363 . S
C515 H486 0.950 . S
C515 C514 1.397 . S
C515 C516 1.334 . S
C516 H487 0.950 . S
C516 C515 1.334 . S
C516 C517 1.287 . S
C517 C516 1.287 . S
C517 C518 1.524 . S
C517 H520 0.999 . S
C518 H488 0.950 . S
C518 C517 1.524 . S
C518 C519 1.415 . S
C519 H489 0.950 . S
C519 C514 1.363 . S
C519 C518 1.415 . S
H520 C517 0.999 . S
H521 C502 0.913 . S
H522 C540 0.951 . S
H523 C542 0.951 . S
H524 C544 0.950 . S
H525 C545 0.950 . S
H526 C547 0.950 . S
H527 C550 0.950 . S
H528 C551 0.950 . S
H529 C553 0.950 . S
H530 C554 0.950 . S
H531 C555 0.951 . S
H532 C557 0.951 . S
H533 C559 0.950 . S
H534 C560 0.950 . S
H535 C562 0.950 . S
H536 C565 0.950 . S
H537 C566 0.950 . S
H538 C568 0.950 . S
H539 C569 0.950 . S
C540 H522 0.951 . S
C540 C541 1.366 . S
C540 C542 1.388 . S
C541 C540 1.366 . S
C541 C545 1.385 . S
C542 H523 0.951 . S
C542 C540 1.388 . S
C542 C543 1.366 . S
C543 C542 1.366 . S
C543 C544 1.414 . S
C543 C546 1.499 . S
C544 H524 0.950 . S
C544 C543 1.414 . S
C544 C545 1.374 . S
C545 H525 0.950 . S
C545 C541 1.385 . S
C545 C544 1.374 . S
C546 C543 1.499 . S
C546 C547 1.373 . S
C546 C548 1.389 . S
C547 H526 0.950 . S
C547 C546 1.373 . S
C547 C563 1.377 . S
C548 C546 1.389 . S
C548 C549 1.524 . S
C548 C562 1.377 . S
C549 C548 1.524 . S
C549 C550 1.397 . S
C549 C554 1.363 . S
C550 H527 0.950 . S
C550 C549 1.397 . S
C550 C551 1.334 . S
C551 H528 0.950 . S
C551 C550 1.334 . S
C551 C552 1.287 . S
C552 C551 1.287 . S
C552 C553 1.524 . S
C552 H571 0.913 . S
C553 H529 0.950 . S
C553 C552 1.524 . S
C553 C554 1.415 . S
C554 H530 0.950 . S
C554 C549 1.363 . S
C554 C553 1.415 . S
C555 H531 0.951 . S
C555 C556 1.366 . S
C555 C557 1.388 . S
C556 C555 1.366 . S
C556 C560 1.385 . S
C557 H532 0.951 . S
C557 C555 1.388 . S
C557 C558 1.366 . S
C558 C557 1.366 . S
C558 C559 1.414 . S
C558 C561 1.499 . S
C559 H533 0.950 . S
C559 C558 1.414 . S
C559 C560 1.374 . S
C560 H534 0.950 . S
C560 C556 1.385 . S
C560 C559 1.374 . S
C561 C558 1.499 . S
C561 C562 1.373 . S
C561 C563 1.389 . S
C562 H535 0.950 . S
C562 C548 1.377 . S
C562 C561 1.373 . S
C563 C547 1.377 . S
C563 C561 1.389 . S
C563 C564 1.524 . S
C564 C563 1.524 . S
C564 C565 1.397 . S
C564 C569 1.363 . S
C565 H536 0.950 . S
C565 C564 1.397 . S
C565 C566 1.334 . S
C566 H537 0.950 . S
C566 C565 1.334 . S
C566 C567 1.287 . S
C567 C566 1.287 . S
C567 C568 1.524 . S
C567 H570 0.999 . S
C568 H538 0.950 . S
C568 C567 1.524 . S
C568 C569 1.415 . S
C569 H539 0.950 . S
C569 C564 1.363 . S
C569 C568 1.415 . S
H570 C567 0.999 . S
H571 C552 0.913 . S
H572 C590 0.951 . S
H573 C592 0.951 . S
H574 C594 0.950 . S
H575 C595 0.950 . S
H576 C597 0.950 . S
H577 C600 0.950 . S
H578 C601 0.950 . S
H579 C603 0.950 . S
H580 C604 0.950 . S
H581 C605 0.951 . S
H582 C607 0.951 . S
H583 C609 0.950 . S
H584 C610 0.950 . S
H585 C612 0.950 . S
H586 C615 0.950 . S
H587 C616 0.950 . S
H588 C618 0.950 . S
H589 C619 0.950 . S
C590 H572 0.951 . S
C590 C591 1.366 . S
C590 C592 1.388 . S
C591 C590 1.366 . S
C591 C595 1.385 . S
C592 H573 0.951 . S
C592 C590 1.388 . S
C592 C593 1.366 . S
C593 C592 1.366 . S
C593 C594 1.414 . S
C593 C596 1.499 . S
C594 H574 0.950 . S
C594 C593 1.414 . S
C594 C595 1.374 . S
C595 H575 0.950 . S
C595 C591 1.385 . S
C595 C594 1.374 . S
C596 C593 1.499 . S
C596 C597 1.373 . S
C596 C598 1.389 . S
C597 H576 0.950 . S
C597 C596 1.373 . S
C597 C613 1.377 . S
C598 C596 1.389 . S
C598 C599 1.524 . S
C598 C612 1.377 . S
C599 C598 1.524 . S
C599 C600 1.397 . S
C599 C604 1.363 . S
C600 H577 0.950 . S
C600 C599 1.397 . S
C600 C601 1.334 . S
C601 H578 0.950 . S
C601 C600 1.334 . S
C601 C602 1.287 . S
C602 C601 1.287 . S
C602 C603 1.524 . S
C602 H621 0.913 . S
C603 H579 0.950 . S
C603 C602 1.524 . S
C603 C604 1.415 . S
C604 H580 0.950 . S
C604 C599 1.363 . S
C604 C603 1.415 . S
C605 H581 0.951 . S
C605 C606 1.366 . S
C605 C607 1.388 . S
C606 C605 1.366 . S
C606 C610 1.385 . S
C607 H582 0.951 . S
C607 C605 1.388 . S
C607 C608 1.366 . S
C608 C607 1.366 . S
C608 C609 1.414 . S
C608 C611 1.499 . S
C609 H583 0.950 . S
C609 C608 1.414 . S
C609 C610 1.374 . S
C610 H584 0.950 . S
C610 C606 1.385 . S
C610 C609 1.374 . S
C611 C608 1.499 . S
C611 C612 1.373 . S
C611 C613 1.389 . S
C612 H585 0.950 . S
C612 C598 1.377 . S
C612 C611 1.373 . S
C613 C597 1.377 . S
C613 C611 1.389 . S
C613 C614 1.524 . S
C614 C613 1.524 . S
C614 C615 1.397 . S
C614 C619 1.363 . S
C615 H586 0.950 . S
C615 C614 1.397 . S
C615 C616 1.334 . S
C616 H587 0.950 . S
C616 C615 1.334 . S
C616 C617 1.287 . S
C617 C616 1.287 . S
C617 C618 1.524 . S
C617 H620 0.999 . S
C618 H588 0.950 . S
C618 C617 1.524 . S
C618 C619 1.415 . S
C619 H589 0.950 . S
C619 C614 1.363 . S
C619 C618 1.415 . S
H620 C617 0.999 . S
H621 C602 0.913 . S
H622 C640 0.951 . S
H623 C642 0.951 . S
H624 C644 0.950 . S
H625 C645 0.950 . S
H626 C647 0.950 . S
H627 C650 0.950 . S
H628 C651 0.950 . S
H629 C653 0.950 . S
H630 C654 0.950 . S
H631 C655 0.951 . S
H632 C657 0.951 . S
H633 C659 0.950 . S
H634 C660 0.950 . S
H635 C662 0.950 . S
H636 C665 0.950 . S
H637 C666 0.950 . S
H638 C668 0.950 . S
H639 C669 0.950 . S
C640 H622 0.951 . S
C640 C641 1.366 . S
C640 C642 1.388 . S
C641 C640 1.366 . S
C641 C645 1.385 . S
C642 H623 0.951 . S
C642 C640 1.388 . S
C642 C643 1.366 . S
C643 C642 1.366 . S
C643 C644 1.414 . S
C643 C646 1.499 . S
C644 H624 0.950 . S
C644 C643 1.414 . S
C644 C645 1.374 . S
C645 H625 0.950 . S
C645 C641 1.385 . S
C645 C644 1.374 . S
C646 C643 1.499 . S
C646 C647 1.373 . S
C646 C648 1.389 . S
C647 H626 0.950 . S
C647 C646 1.373 . S
C647 C663 1.377 . S
C648 C646 1.389 . S
C648 C649 1.524 . S
C648 C662 1.377 . S
C649 C648 1.524 . S
C649 C650 1.397 . S
C649 C654 1.363 . S
C650 H627 0.950 . S
C650 C649 1.397 . S
C650 C651 1.334 . S
C651 H628 0.950 . S
C651 C650 1.334 . S
C651 C652 1.287 . S
C652 C651 1.287 . S
C652 C653 1.524 . S
C652 H671 0.913 . S
C653 H629 0.950 . S
C653 C652 1.524 . S
C653 C654 1.415 . S
C654 H630 0.950 . S
C654 C649 1.363 . S
C654 C653 1.415 . S
C655 H631 0.951 . S
C655 C656 1.366 . S
C655 C657 1.388 . S
C656 C655 1.366 . S
C656 C660 1.385 . S
C657 H632 0.951 . S
C657 C655 1.388 . S
C657 C658 1.366 . S
C658 C657 1.366 . S
C658 C659 1.414 . S
C658 C661 1.499 . S
C659 H633 0.950 . S
C659 C658 1.414 . S
C659 C660 1.374 . S
C660 H634 0.950 . S
C660 C656 1.385 . S
C660 C659 1.374 . S
C661 C658 1.499 . S
C661 C662 1.373 . S
C661 C663 1.389 . S
C662 H635 0.950 . S
C662 C648 1.377 . S
C662 C661 1.373 . S
C663 C647 1.377 . S
C663 C661 1.389 . S
C663 C664 1.524 . S
C664 C663 1.524 . S
C664 C665 1.397 . S
C664 C669 1.363 . S
C665 H636 0.950 . S
C665 C664 1.397 . S
C665 C666 1.334 . S
C666 H637 0.950 . S
C666 C665 1.334 . S
C666 C667 1.287 . S
C667 C666 1.287 . S
C667 C668 1.524 . S
C667 H670 0.999 . S
C668 H638 0.950 . S
C668 C667 1.524 . S
C668 C669 1.415 . S
C669 H639 0.950 . S
C669 C664 1.363 . S
C669 C668 1.415 . S
H670 C667 0.999 . S
H671 C652 0.913 . S
H672 C690 0.951 . S
H673 C692 0.951 . S
H674 C694 0.950 . S
H675 C695 0.950 . S
H676 C697 0.950 . S
H677 C700 0.950 . S
H678 C701 0.950 . S
H679 C703 0.950 . S
H680 C704 0.950 . S
H681 C705 0.951 . S
H682 C707 0.951 . S
H683 C709 0.950 . S
H684 C710 0.950 . S
H685 C712 0.950 . S
H686 C715 0.950 . S
H687 C716 0.950 . S
H688 C718 0.950 . S
H689 C719 0.950 . S
C690 H672 0.951 . S
C690 C691 1.366 . S
C690 C692 1.388 . S
C691 C690 1.366 . S
C691 C695 1.385 . S
C692 H673 0.951 . S
C692 C690 1.388 . S
C692 C693 1.366 . S
C693 C692 1.366 . S
C693 C694 1.414 . S
C693 C696 1.499 . S
C694 H674 0.950 . S
C694 C693 1.414 . S
C694 C695 1.374 . S
C695 H675 0.950 . S
C695 C691 1.385 . S
C695 C694 1.374 . S
C696 C693 1.499 . S
C696 C697 1.373 . S
C696 C698 1.389 1_554 S
C697 H676 0.950 . S
C697 C696 1.373 . S
C697 C713 1.377 . S
C698 C696 1.389 1_556 S
C698 C699 1.524 . S
C698 C712 1.377 . S
C699 C698 1.524 . S
C699 C700 1.397 . S
C699 C704 1.363 . S
C700 H677 0.950 . S
C700 C699 1.397 . S
C700 C701 1.334 . S
C701 H678 0.950 . S
C701 C700 1.334 . S
C701 C702 1.287 . S
C702 C701 1.287 . S
C702 C703 1.524 . S
C702 H721 0.913 . S
C703 H679 0.950 . S
C703 C702 1.524 . S
C703 C704 1.415 . S
C704 H680 0.950 . S
C704 C699 1.363 . S
C704 C703 1.415 . S
C705 H681 0.951 . S
C705 C706 1.366 . S
C705 C707 1.388 . S
C706 C705 1.366 . S
C706 C710 1.385 . S
C707 H682 0.951 . S
C707 C705 1.388 . S
C707 C708 1.366 . S
C708 C707 1.366 . S
C708 C709 1.414 . S
C708 C711 1.499 . S
C709 H683 0.950 . S
C709 C708 1.414 . S
C709 C710 1.374 . S
C710 H684 0.950 . S
C710 C706 1.385 . S
C710 C709 1.374 . S
C711 C708 1.499 . S
C711 C712 1.373 . S
C711 C713 1.389 1_556 S
C712 H685 0.950 . S
C712 C698 1.377 . S
C712 C711 1.373 . S
C713 C697 1.377 . S
C713 C711 1.389 1_554 S
C713 C714 1.524 . S
C714 C713 1.524 . S
C714 C715 1.397 . S
C714 C719 1.363 . S
C715 H686 0.950 . S
C715 C714 1.397 . S
C715 C716 1.334 . S
C716 H687 0.950 . S
C716 C715 1.334 . S
C716 C717 1.287 . S
C717 C716 1.287 . S
C717 C718 1.524 . S
C717 H720 0.999 . S
C718 H688 0.950 . S
C718 C717 1.524 . S
C718 C719 1.415 . S
C719 H689 0.950 . S
C719 C714 1.363 . S
C719 C718 1.415 . S
H720 C717 0.999 . S
H721 C702 0.913 . S
H722 C740 0.951 . S
H723 C742 0.951 . S
H724 C744 0.950 . S
H725 C745 0.950 . S
H726 C747 0.950 . S
H727 C750 0.950 . S
H728 C751 0.950 . S
H729 C753 0.950 . S
H730 C754 0.950 . S
H731 C755 0.951 . S
H732 C757 0.951 . S
H733 C759 0.950 . S
H734 C760 0.950 . S
H735 C762 0.950 . S
H736 C765 0.950 . S
H737 C766 0.950 . S
H738 C768 0.950 . S
H739 C769 0.950 . S
C740 H722 0.951 . S
C740 C741 1.366 . S
C740 C742 1.388 . S
C741 C740 1.366 . S
C741 C745 1.385 1_556 S
C742 H723 0.951 . S
C742 C740 1.388 . S
C742 C743 1.366 . S
C743 C742 1.366 . S
C743 C744 1.414 1_556 S
C743 C746 1.499 . S
C744 H724 0.950 . S
C744 C743 1.414 1_554 S
C744 C745 1.374 . S
C745 H725 0.950 . S
C745 C741 1.385 1_554 S
C745 C744 1.374 . S
C746 C743 1.499 . S
C746 C747 1.373 1_556 S
C746 C748 1.389 . S
C747 H726 0.950 . S
C747 C746 1.373 1_554 S
C747 C763 1.377 . S
C748 C746 1.389 . S
C748 C749 1.524 . S
C748 C762 1.377 . S
C749 C748 1.524 . S
C749 C750 1.397 . S
C749 C754 1.363 . S
C750 H727 0.950 . S
C750 C749 1.397 . S
C750 C751 1.334 . S
C751 H728 0.950 . S
C751 C750 1.334 . S
C751 C752 1.287 . S
C752 C751 1.287 . S
C752 C753 1.524 . S
C752 H771 0.913 . S
C753 H729 0.950 . S
C753 C752 1.524 . S
C753 C754 1.415 . S
C754 H730 0.950 . S
C754 C749 1.363 . S
C754 C753 1.415 . S
C755 H731 0.951 . S
C755 C756 1.366 . S
C755 C757 1.388 . S
C756 C755 1.366 . S
C756 C760 1.385 1_554 S
C757 H732 0.951 . S
C757 C755 1.388 . S
C757 C758 1.366 . S
C758 C757 1.366 . S
C758 C759 1.414 1_554 S
C758 C761 1.499 . S
C759 H733 0.950 . S
C759 C758 1.414 1_556 S
C759 C760 1.374 . S
C760 H734 0.950 . S
C760 C756 1.385 1_556 S
C760 C759 1.374 . S
C761 C758 1.499 . S
C761 C762 1.373 1_554 S
C761 C763 1.389 . S
C762 H735 0.950 . S
C762 C748 1.377 . S
C762 C761 1.373 1_556 S
C763 C747 1.377 . S
C763 C761 1.389 . S
C763 C764 1.524 . S
C764 C763 1.524 . S
C764 C765 1.397 . S
C764 C769 1.363 . S
C765 H736 0.950 . S
C765 C764 1.397 . S
C765 C766 1.334 . S
C766 H737 0.950 . S
C766 C765 1.334 . S
C766 C767 1.287 . S
C767 C766 1.287 . S
C767 C768 1.524 . S
C767 H770 0.999 . S
C768 H738 0.950 . S
C768 C767 1.524 . S
C768 C769 1.415 . S
C769 H739 0.950 . S
C769 C764 1.363 . S
C769 C768 1.415 . S
H770 C767 0.999 . S
H771 C752 0.913 . S
H772 C790 0.951 1_556 S
H773 C792 0.951 . S
H774 C794 0.950 . S
H775 C795 0.950 . S
H776 C797 0.950 . S
H777 C800 0.950 . S
H778 C801 0.950 . S
H779 C803 0.950 . S
H780 C804 0.950 . S
H781 C805 0.951 1_554 S
H782 C807 0.951 . S
H783 C809 0.950 . S
H784 C810 0.950 . S
H785 C812 0.950 . S
H786 C815 0.950 . S
H787 C816 0.950 . S
H788 C818 0.950 . S
H789 C819 0.950 . S
C790 H772 0.951 1_554 S
C790 C791 1.366 . S
C790 C792 1.388 1_554 S
C791 C790 1.366 . S
C791 C795 1.385 . S
C792 H773 0.951 . S
C792 C790 1.388 1_556 S
C792 C793 1.366 1_556 S
C793 C792 1.366 1_554 S
C793 C794 1.414 . S
C793 C796 1.499 . S
C794 H774 0.950 . S
C794 C793 1.414 . S
C794 C795 1.374 . S
C795 H775 0.950 . S
C795 C791 1.385 . S
C795 C794 1.374 . S
C796 C793 1.499 . S
C796 C797 1.373 . S
C796 C798 1.389 1_554 S
C797 H776 0.950 . S
C797 C796 1.373 . S
C797 C813 1.377 . S
C798 C796 1.389 1_556 S
C798 C799 1.524 . S
C798 C812 1.377 . S
C799 C798 1.524 . S
C799 C800 1.397 . S
C799 C804 1.363 . S
C800 H777 0.950 . S
C800 C799 1.397 . S
C800 C801 1.334 . S
C801 H778 0.950 . S
C801 C800 1.334 . S
C801 C802 1.287 . S
C802 C801 1.287 . S
C802 C803 1.524 . S
C802 H821 0.913 . S
C803 H779 0.950 . S
C803 C802 1.524 . S
C803 C804 1.415 . S
C804 H780 0.950 . S
C804 C799 1.363 . S
C804 C803 1.415 . S
C805 H781 0.951 1_556 S
C805 C806 1.366 . S
C805 C807 1.388 1_556 S
C806 C805 1.366 . S
C806 C810 1.385 . S
C807 H782 0.951 . S
C807 C805 1.388 1_554 S
C807 C808 1.366 1_554 S
C808 C807 1.366 1_556 S
C808 C809 1.414 . S
C808 C811 1.499 . S
C809 H783 0.950 . S
C809 C808 1.414 . S
C809 C810 1.374 . S
C810 H784 0.950 . S
C810 C806 1.385 . S
C810 C809 1.374 . S
C811 C808 1.499 . S
C811 C812 1.373 . S
C811 C813 1.389 1_556 S
C812 H785 0.950 . S
C812 C798 1.377 . S
C812 C811 1.373 . S
C813 C797 1.377 . S
C813 C811 1.389 1_554 S
C813 C814 1.524 . S
C814 C813 1.524 . S
C814 C815 1.397 . S
C814 C819 1.363 . S
C815 H786 0.950 . S
C815 C814 1.397 . S
C815 C816 1.334 . S
C816 H787 0.950 . S
C816 C815 1.334 . S
C816 C817 1.287 . S
C817 C816 1.287 . S
C817 C818 1.524 . S
C817 H820 0.999 . S
C818 H788 0.950 . S
C818 C817 1.524 . S
C818 C819 1.415 . S
C819 H789 0.950 . S
C819 C814 1.363 . S
C819 C818 1.415 . S
H820 C817 0.999 . S
H821 C802 0.913 . S
H822 C840 0.951 . S
H823 C842 0.951 . S
H824 C844 0.952 . S
H825 C845 0.950 . S
H826 C847 0.950 . S
H827 C850 0.950 . S
H828 C851 0.950 . S
H829 C853 0.950 . S
H830 C854 0.950 . S
H831 C855 0.951 . S
H832 C857 0.951 . S
H833 C859 0.952 . S
H834 C860 0.950 . S
H835 C862 0.950 . S
H836 C865 0.950 . S
H837 C866 0.950 . S
H838 C868 0.950 . S
H839 C869 0.950 . S
C840 H822 0.951 . S
C840 C841 1.366 . S
C840 C842 1.388 . S
C841 C840 1.366 . S
C841 C845 1.385 . S
C842 H823 0.951 . S
C842 C840 1.388 . S
C842 C843 1.367 . S
C843 C842 1.367 . S
C843 C844 1.414 . S
C843 C846 1.498 1_556 S
C844 H824 0.952 . S
C844 C843 1.414 . S
C844 C845 1.374 . S
C845 H825 0.950 . S
C845 C841 1.385 . S
C845 C844 1.374 . S
C846 C843 1.498 1_554 S
C846 C847 1.354 1_554 S
C846 C848 1.408 . S
C847 H826 0.950 . S
C847 C846 1.354 1_556 S
C847 C863 1.377 . S
C848 C846 1.408 . S
C848 C849 1.524 . S
C848 C862 1.377 . S
C849 C848 1.524 . S
C849 C850 1.397 . S
C849 C854 1.363 . S
C850 H827 0.950 . S
C850 C849 1.397 . S
C850 C851 1.334 . S
C851 H828 0.950 . S
C851 C850 1.334 . S
C851 C852 1.287 . S
C852 C851 1.287 . S
C852 C853 1.524 . S
C852 H871 0.913 . S
C853 H829 0.950 . S
C853 C852 1.524 . S
C853 C854 1.415 . S
C854 H830 0.950 . S
C854 C849 1.363 . S
C854 C853 1.415 . S
C855 H831 0.951 . S
C855 C856 1.366 . S
C855 C857 1.388 . S
C856 C855 1.366 . S
C856 C860 1.385 . S
C857 H832 0.951 . S
C857 C855 1.388 . S
C857 C858 1.367 . S
C858 C857 1.367 . S
C858 C859 1.414 . S
C858 C861 1.498 1_554 S
C859 H833 0.952 . S
C859 C858 1.414 . S
C859 C860 1.374 . S
C860 H834 0.950 . S
C860 C856 1.385 . S
C860 C859 1.374 . S
C861 C858 1.498 1_556 S
C861 C862 1.354 1_556 S
C861 C863 1.408 . S
C862 H835 0.950 . S
C862 C848 1.377 . S
C862 C861 1.354 1_554 S
C863 C847 1.377 . S
C863 C861 1.408 . S
C863 C864 1.524 . S
C864 C863 1.524 . S
C864 C865 1.397 . S
C864 C869 1.363 . S
C865 H836 0.950 . S
C865 C864 1.397 . S
C865 C866 1.334 . S
C866 H837 0.950 . S
C866 C865 1.334 . S
C866 C867 1.287 . S
C867 C866 1.287 . S
C867 C868 1.524 . S
C867 H870 0.999 . S
C868 H838 0.950 . S
C868 C867 1.524 . S
C868 C869 1.415 . S
C869 H839 0.950 . S
C869 C864 1.363 . S
C869 C868 1.415 . S
H870 C867 0.999 . S
H871 C852 0.913 . S
H872 C890 0.951 . S
H873 C892 0.951 . S
H874 C894 0.950 . S
H875 C895 0.950 . S
H876 C897 0.950 . S
H877 C900 0.950 . S
H878 C901 0.950 . S
H879 C903 0.950 . S
H880 C904 0.950 . S
H881 C905 0.951 . S
H882 C907 0.951 . S
H883 C909 0.950 . S
H884 C910 0.950 . S
H885 C912 0.950 . S
H886 C915 0.950 . S
H887 C916 0.950 . S
H888 C918 0.950 . S
H889 C919 0.950 . S
C890 H872 0.951 . S
C890 C891 1.366 . S
C890 C892 1.388 . S
C891 C890 1.366 . S
C891 C895 1.385 . S
C892 H873 0.951 . S
C892 C890 1.388 . S
C892 C893 1.366 . S
C893 C892 1.366 . S
C893 C894 1.414 . S
C893 C896 1.499 . S
C894 H874 0.950 . S
C894 C893 1.414 . S
C894 C895 1.374 . S
C895 H875 0.950 . S
C895 C891 1.385 . S
C895 C894 1.374 . S
C896 C893 1.499 . S
C896 C897 1.373 . S
C896 C898 1.389 . S
C897 H876 0.950 . S
C897 C896 1.373 . S
C897 C913 1.377 . S
C898 C896 1.389 . S
C898 C899 1.524 . S
C898 C912 1.377 . S
C899 C898 1.524 . S
C899 C900 1.397 . S
C899 C904 1.363 . S
C900 H877 0.950 . S
C900 C899 1.397 . S
C900 C901 1.334 . S
C901 H878 0.950 . S
C901 C900 1.334 . S
C901 C902 1.287 . S
C902 C901 1.287 . S
C902 C903 1.524 . S
C902 H921 0.913 . S
C903 H879 0.950 . S
C903 C902 1.524 . S
C903 C904 1.415 . S
C904 H880 0.950 . S
C904 C899 1.363 . S
C904 C903 1.415 . S
C905 H881 0.951 . S
C905 C906 1.366 . S
C905 C907 1.388 . S
C906 C905 1.366 . S
C906 C910 1.385 . S
C907 H882 0.951 . S
C907 C905 1.388 . S
C907 C908 1.366 . S
C908 C907 1.366 . S
C908 C909 1.414 . S
C908 C911 1.499 . S
C909 H883 0.950 . S
C909 C908 1.414 . S
C909 C910 1.374 . S
C910 H884 0.950 . S
C910 C906 1.385 . S
C910 C909 1.374 . S
C911 C908 1.499 . S
C911 C912 1.373 . S
C911 C913 1.389 . S
C912 H885 0.950 . S
C912 C898 1.377 . S
C912 C911 1.373 . S
C913 C897 1.377 . S
C913 C911 1.389 . S
C913 C914 1.524 . S
C914 C913 1.524 . S
C914 C915 1.397 . S
C914 C919 1.363 . S
C915 H886 0.950 . S
C915 C914 1.397 . S
C915 C916 1.334 . S
C916 H887 0.950 . S
C916 C915 1.334 . S
C916 C917 1.287 . S
C917 C916 1.287 . S
C917 C918 1.524 . S
C917 H920 0.999 . S
C918 H888 0.950 . S
C918 C917 1.524 . S
C918 C919 1.415 . S
C919 H889 0.950 . S
C919 C914 1.363 . S
C919 C918 1.415 . S
H920 C917 0.999 . S
H921 C902 0.913 . S
H922 C940 0.951 . S
H923 C942 0.951 . S
H924 C944 0.950 . S
H925 C945 0.950 . S
H926 C947 0.950 . S
H927 C950 0.950 . S
H928 C951 0.950 . S
H929 C953 0.950 . S
H930 C954 0.950 . S
H931 C955 0.951 . S
H932 C957 0.951 . S
H933 C959 0.950 . S
H934 C960 0.950 . S
H935 C962 0.950 . S
H936 C965 0.950 . S
H937 C966 0.950 . S
H938 C968 0.950 . S
H939 C969 0.950 . S
C940 H922 0.951 . S
C940 C941 1.366 . S
C940 C942 1.388 . S
C941 C940 1.366 . S
C941 C945 1.385 . S
C942 H923 0.951 . S
C942 C940 1.388 . S
C942 C943 1.366 . S
C943 C942 1.366 . S
C943 C944 1.414 . S
C943 C946 1.499 . S
C944 H924 0.950 . S
C944 C943 1.414 . S
C944 C945 1.374 . S
C945 H925 0.950 . S
C945 C941 1.385 . S
C945 C944 1.374 . S
C946 C943 1.499 . S
C946 C947 1.373 . S
C946 C948 1.389 . S
C947 H926 0.950 . S
C947 C946 1.373 . S
C947 C963 1.377 . S
C948 C946 1.389 . S
C948 C949 1.524 . S
C948 C962 1.377 . S
C949 C948 1.524 . S
C949 C950 1.397 . S
C949 C954 1.363 . S
C950 H927 0.950 . S
C950 C949 1.397 . S
C950 C951 1.334 . S
C951 H928 0.950 . S
C951 C950 1.334 . S
C951 C952 1.287 . S
C952 C951 1.287 . S
C952 C953 1.524 . S
C952 H971 0.913 . S
C953 H929 0.950 . S
C953 C952 1.524 . S
C953 C954 1.415 . S
C954 H930 0.950 . S
C954 C949 1.363 . S
C954 C953 1.415 . S
C955 H931 0.951 . S
C955 C956 1.366 . S
C955 C957 1.388 . S
C956 C955 1.366 . S
C956 C960 1.385 . S
C957 H932 0.951 . S
C957 C955 1.388 . S
C957 C958 1.366 . S
C958 C957 1.366 . S
C958 C959 1.414 . S
C958 C961 1.499 . S
C959 H933 0.950 . S
C959 C958 1.414 . S
C959 C960 1.374 . S
C960 H934 0.950 . S
C960 C956 1.385 . S
C960 C959 1.374 . S
C961 C958 1.499 . S
C961 C962 1.373 . S
C961 C963 1.389 . S
C962 H935 0.950 . S
C962 C948 1.377 . S
C962 C961 1.373 . S
C963 C947 1.377 . S
C963 C961 1.389 . S
C963 C964 1.524 . S
C964 C963 1.524 . S
C964 C965 1.397 . S
C964 C969 1.363 . S
C965 H936 0.950 . S
C965 C964 1.397 . S
C965 C966 1.334 . S
C966 H937 0.950 . S
C966 C965 1.334 . S
C966 C967 1.287 . S
C967 C966 1.287 . S
C967 C968 1.524 . S
C967 H970 0.999 . S
C968 H938 0.950 . S
C968 C967 1.524 . S
C968 C969 1.415 . S
C969 H939 0.950 . S
C969 C964 1.363 . S
C969 C968 1.415 . S
H970 C967 0.999 . S
H971 C952 0.913 . S
H972 C990 0.951 . S
H973 C992 0.951 . S
H974 C994 0.950 . S
H975 C995 0.950 . S
H976 C997 0.950 . S
H977 C1000 0.950 . S
H978 C1001 0.950 1_545 S
H979 C1003 0.950 . S
H980 C1004 0.950 . S
H981 C1005 0.951 . S
H982 C1007 0.951 . S
H983 C1009 0.950 . S
H984 C1010 0.950 . S
H985 C1012 0.950 . S
H986 C1015 0.950 . S
H987 C1016 0.950 . S
H988 C1018 0.950 . S
H989 C1019 0.950 . S
C990 H972 0.951 . S
C990 C991 1.366 . S
C990 C992 1.388 . S
C991 C990 1.366 . S
C991 C995 1.385 . S
C992 H973 0.951 . S
C992 C990 1.388 . S
C992 C993 1.366 . S
C993 C992 1.366 . S
C993 C994 1.414 . S
C993 C996 1.499 . S
C994 H974 0.950 . S
C994 C993 1.414 . S
C994 C995 1.374 . S
C995 H975 0.950 . S
C995 C991 1.385 . S
C995 C994 1.374 . S
C996 C993 1.499 . S
C996 C997 1.373 . S
C996 C998 1.389 . S
C997 H976 0.950 . S
C997 C996 1.373 . S
C997 C1013 1.377 . S
C998 C996 1.389 . S
C998 C999 1.524 . S
C998 C1012 1.377 . S
C999 C998 1.524 . S
C999 C1000 1.397 . S
C999 C1004 1.363 . S
C1000 H977 0.950 . S
C1000 C999 1.397 . S
C1000 C1001 1.334 . S
C1001 H978 0.950 1_565 S
C1001 C1000 1.334 . S
C1001 C1002 1.287 . S
C1002 C1001 1.287 . S
C1002 C1003 1.524 . S
C1002 H1021 0.913 1_565 S
C1003 H979 0.950 . S
C1003 C1002 1.524 . S
C1003 C1004 1.415 . S
C1004 H980 0.950 . S
C1004 C999 1.363 . S
C1004 C1003 1.415 . S
C1005 H981 0.951 . S
C1005 C1006 1.366 . S
C1005 C1007 1.388 . S
C1006 C1005 1.366 . S
C1006 C1010 1.385 . S
C1007 H982 0.951 . S
C1007 C1005 1.388 . S
C1007 C1008 1.366 . S
C1008 C1007 1.366 . S
C1008 C1009 1.414 . S
C1008 C1011 1.499 . S
C1009 H983 0.950 . S
C1009 C1008 1.414 . S
C1009 C1010 1.374 . S
C1010 H984 0.950 . S
C1010 C1006 1.385 . S
C1010 C1009 1.374 . S
C1011 C1008 1.499 . S
C1011 C1012 1.373 . S
C1011 C1013 1.389 . S
C1012 H985 0.950 . S
C1012 C998 1.377 . S
C1012 C1011 1.373 . S
C1013 C997 1.377 . S
C1013 C1011 1.389 . S
C1013 C1014 1.524 . S
C1014 C1013 1.524 . S
C1014 C1015 1.397 . S
C1014 C1019 1.363 . S
C1015 H986 0.950 . S
C1015 C1014 1.397 . S
C1015 C1016 1.334 . S
C1016 H987 0.950 . S
C1016 C1015 1.334 . S
C1016 C1017 1.287 . S
C1017 C1016 1.287 . S
C1017 C1018 1.524 . S
C1017 H1020 0.999 . S
C1018 H988 0.950 . S
C1018 C1017 1.524 . S
C1018 C1019 1.415 . S
C1019 H989 0.950 . S
C1019 C1014 1.363 . S
C1019 C1018 1.415 . S
H1020 C1017 0.999 . S
H1021 C1002 0.913 1_545 S
H1022 C1040 0.951 . S
H1023 C1042 0.951 . S
H1024 C1044 0.950 . S
H1025 C1045 0.950 . S
H1026 C1047 0.950 . S
H1027 C1050 0.950 . S
H1028 C1051 0.950 . S
H1029 C1053 0.950 . S
H1030 C1054 0.950 . S
H1031 C1055 0.951 . S
H1032 C1057 0.951 . S
H1033 C1059 0.950 . S
H1034 C1060 0.950 . S
H1035 C1062 0.950 . S
H1036 C1065 0.950 . S
H1037 C1066 0.950 . S
H1038 C1068 0.950 . S
H1039 C1069 0.950 . S
C1040 H1022 0.951 . S
C1040 C1041 1.366 . S
C1040 C1042 1.388 . S
C1041 C1040 1.366 . S
C1041 C1045 1.385 . S
C1042 H1023 0.951 . S
C1042 C1040 1.388 . S
C1042 C1043 1.366 . S
C1043 C1042 1.366 . S
C1043 C1044 1.414 . S
C1043 C1046 1.499 . S
C1044 H1024 0.950 . S
C1044 C1043 1.414 . S
C1044 C1045 1.374 . S
C1045 H1025 0.950 . S
C1045 C1041 1.385 . S
C1045 C1044 1.374 . S
C1046 C1043 1.499 . S
C1046 C1047 1.373 . S
C1046 C1048 1.389 . S
C1047 H1026 0.950 . S
C1047 C1046 1.373 . S
C1047 C1063 1.377 . S
C1048 C1046 1.389 . S
C1048 C1049 1.524 . S
C1048 C1062 1.377 . S
C1049 C1048 1.524 . S
C1049 C1050 1.397 . S
C1049 C1054 1.363 . S
C1050 H1027 0.950 . S
C1050 C1049 1.397 . S
C1050 C1051 1.334 . S
C1051 H1028 0.950 . S
C1051 C1050 1.334 . S
C1051 C1052 1.287 . S
C1052 C1051 1.287 . S
C1052 C1053 1.524 . S
C1052 H1071 0.913 . S
C1053 H1029 0.950 . S
C1053 C1052 1.524 . S
C1053 C1054 1.415 . S
C1054 H1030 0.950 . S
C1054 C1049 1.363 . S
C1054 C1053 1.415 . S
C1055 H1031 0.951 . S
C1055 C1056 1.366 . S
C1055 C1057 1.388 . S
C1056 C1055 1.366 . S
C1056 C1060 1.385 . S
C1057 H1032 0.951 . S
C1057 C1055 1.388 . S
C1057 C1058 1.366 . S
C1058 C1057 1.366 . S
C1058 C1059 1.414 . S
C1058 C1061 1.499 . S
C1059 H1033 0.950 . S
C1059 C1058 1.414 . S
C1059 C1060 1.374 . S
C1060 H1034 0.950 . S
C1060 C1056 1.385 . S
C1060 C1059 1.374 . S
C1061 C1058 1.499 . S
C1061 C1062 1.373 . S
C1061 C1063 1.389 . S
C1062 H1035 0.950 . S
C1062 C1048 1.377 . S
C1062 C1061 1.373 . S
C1063 C1047 1.377 . S
C1063 C1061 1.389 . S
C1063 C1064 1.524 . S
C1064 C1063 1.524 . S
C1064 C1065 1.397 . S
C1064 C1069 1.363 . S
C1065 H1036 0.950 . S
C1065 C1064 1.397 . S
C1065 C1066 1.334 . S
C1066 H1037 0.950 . S
C1066 C1065 1.334 . S
C1066 C1067 1.287 . S
C1067 C1066 1.287 . S
C1067 C1068 1.524 . S
C1067 H1070 0.999 . S
C1068 H1038 0.950 . S
C1068 C1067 1.524 . S
C1068 C1069 1.415 . S
C1069 H1039 0.950 . S
C1069 C1064 1.363 . S
C1069 C1068 1.415 . S
H1070 C1067 0.999 . S
H1071 C1052 0.913 . S
H1072 C1090 0.951 . S
H1073 C1092 0.951 . S
H1074 C1094 0.950 . S
H1075 C1095 0.950 . S
H1076 C1097 0.950 . S
H1077 C1100 0.950 . S
H1078 C1101 0.950 . S
H1079 C1103 0.950 . S
H1080 C1104 0.950 . S
H1081 C1105 0.951 . S
H1082 C1107 0.951 . S
H1083 C1109 0.950 . S
H1084 C1110 0.950 . S
H1085 C1112 0.950 . S
H1086 C1115 0.950 . S
H1087 C1116 0.950 . S
H1088 C1118 0.950 . S
H1089 C1119 0.950 . S
C1090 H1072 0.951 . S
C1090 C1091 1.366 . S
C1090 C1092 1.388 . S
C1091 C1090 1.366 . S
C1091 C1095 1.385 . S
C1092 H1073 0.951 . S
C1092 C1090 1.388 . S
C1092 C1093 1.366 . S
C1093 C1092 1.366 . S
C1093 C1094 1.414 . S
C1093 C1096 1.499 . S
C1094 H1074 0.950 . S
C1094 C1093 1.414 . S
C1094 C1095 1.374 . S
C1095 H1075 0.950 . S
C1095 C1091 1.385 . S
C1095 C1094 1.374 . S
C1096 C1093 1.499 . S
C1096 C1097 1.373 . S
C1096 C1098 1.389 . S
C1097 H1076 0.950 . S
C1097 C1096 1.373 . S
C1097 C1113 1.377 . S
C1098 C1096 1.389 . S
C1098 C1099 1.524 . S
C1098 C1112 1.377 . S
C1099 C1098 1.524 . S
C1099 C1100 1.397 . S
C1099 C1104 1.363 . S
C1100 H1077 0.950 . S
C1100 C1099 1.397 . S
C1100 C1101 1.334 . S
C1101 H1078 0.950 . S
C1101 C1100 1.334 . S
C1101 C1102 1.287 . S
C1102 C1101 1.287 . S
C1102 C1103 1.524 . S
C1102 H1121 0.913 . S
C1103 H1079 0.950 . S
C1103 C1102 1.524 . S
C1103 C1104 1.415 . S
C1104 H1080 0.950 . S
C1104 C1099 1.363 . S
C1104 C1103 1.415 . S
C1105 H1081 0.951 . S
C1105 C1106 1.366 . S
C1105 C1107 1.388 . S
C1106 C1105 1.366 . S
C1106 C1110 1.385 . S
C1107 H1082 0.951 . S
C1107 C1105 1.388 . S
C1107 C1108 1.366 . S
C1108 C1107 1.366 . S
C1108 C1109 1.414 . S
C1108 C1111 1.499 . S
C1109 H1083 0.950 . S
C1109 C1108 1.414 . S
C1109 C1110 1.374 . S
C1110 H1084 0.950 . S
C1110 C1106 1.385 . S
C1110 C1109 1.374 . S
C1111 C1108 1.499 . S
C1111 C1112 1.373 . S
C1111 C1113 1.389 . S
C1112 H1085 0.950 . S
C1112 C1098 1.377 . S
C1112 C1111 1.373 . S
C1113 C1097 1.377 . S
C1113 C1111 1.389 . S
C1113 C1114 1.524 . S
C1114 C1113 1.524 . S
C1114 C1115 1.397 . S
C1114 C1119 1.363 . S
C1115 H1086 0.950 . S
C1115 C1114 1.397 . S
C1115 C1116 1.334 . S
C1116 H1087 0.950 . S
C1116 C1115 1.334 . S
C1116 C1117 1.287 . S
C1117 C1116 1.287 . S
C1117 C1118 1.524 . S
C1117 H1120 0.999 . S
C1118 H1088 0.950 . S
C1118 C1117 1.524 . S
C1118 C1119 1.415 . S
C1119 H1089 0.950 . S
C1119 C1114 1.363 . S
C1119 C1118 1.415 . S
H1120 C1117 0.999 . S
H1121 C1102 0.913 . S
H1122 C1140 0.951 . S
H1123 C1142 0.951 . S
H1124 C1144 0.950 . S
H1125 C1145 0.950 . S
H1126 C1147 0.950 . S
H1127 C1150 0.950 . S
H1128 C1151 0.950 . S
H1129 C1153 0.950 . S
H1130 C1154 0.950 . S
H1131 C1155 0.951 . S
H1132 C1157 0.951 . S
H1133 C1159 0.950 . S
H1134 C1160 0.950 . S
H1135 C1162 0.950 . S
H1136 C1165 0.950 . S
H1137 C1166 0.950 . S
H1138 C1168 0.950 . S
H1139 C1169 0.950 . S
C1140 H1122 0.951 . S
C1140 C1141 1.366 . S
C1140 C1142 1.388 . S
C1141 C1140 1.366 . S
C1141 C1145 1.385 . S
C1142 H1123 0.951 . S
C1142 C1140 1.388 . S
C1142 C1143 1.366 . S
C1143 C1142 1.366 . S
C1143 C1144 1.414 . S
C1143 C1146 1.499 . S
C1144 H1124 0.950 . S
C1144 C1143 1.414 . S
C1144 C1145 1.374 . S
C1145 H1125 0.950 . S
C1145 C1141 1.385 . S
C1145 C1144 1.374 . S
C1146 C1143 1.499 . S
C1146 C1147 1.373 . S
C1146 C1148 1.389 . S
C1147 H1126 0.950 . S
C1147 C1146 1.373 . S
C1147 C1163 1.377 . S
C1148 C1146 1.389 . S
C1148 C1149 1.524 . S
C1148 C1162 1.377 . S
C1149 C1148 1.524 . S
C1149 C1150 1.397 . S
C1149 C1154 1.363 . S
C1150 H1127 0.950 . S
C1150 C1149 1.397 . S
C1150 C1151 1.334 . S
C1151 H1128 0.950 . S
C1151 C1150 1.334 . S
C1151 C1152 1.287 . S
C1152 C1151 1.287 . S
C1152 C1153 1.524 . S
C1152 H1171 0.913 1_455 S
C1153 H1129 0.950 . S
C1153 C1152 1.524 . S
C1153 C1154 1.415 . S
C1154 H1130 0.950 . S
C1154 C1149 1.363 . S
C1154 C1153 1.415 . S
C1155 H1131 0.951 . S
C1155 C1156 1.366 . S
C1155 C1157 1.388 . S
C1156 C1155 1.366 . S
C1156 C1160 1.385 . S
C1157 H1132 0.951 . S
C1157 C1155 1.388 . S
C1157 C1158 1.366 . S
C1158 C1157 1.366 . S
C1158 C1159 1.414 . S
C1158 C1161 1.499 . S
C1159 H1133 0.950 . S
C1159 C1158 1.414 . S
C1159 C1160 1.374 . S
C1160 H1134 0.950 . S
C1160 C1156 1.385 . S
C1160 C1159 1.374 . S
C1161 C1158 1.499 . S
C1161 C1162 1.373 . S
C1161 C1163 1.389 . S
C1162 H1135 0.950 . S
C1162 C1148 1.377 . S
C1162 C1161 1.373 . S
C1163 C1147 1.377 . S
C1163 C1161 1.389 . S
C1163 C1164 1.524 . S
C1164 C1163 1.524 . S
C1164 C1165 1.397 . S
C1164 C1169 1.363 . S
C1165 H1136 0.950 . S
C1165 C1164 1.397 . S
C1165 C1166 1.334 . S
C1166 H1137 0.950 . S
C1166 C1165 1.334 . S
C1166 C1167 1.287 . S
C1167 C1166 1.287 . S
C1167 C1168 1.524 . S
C1167 H1170 0.999 . S
C1168 H1138 0.950 . S
C1168 C1167 1.524 . S
C1168 C1169 1.415 . S
C1169 H1139 0.950 . S
C1169 C1164 1.363 . S
C1169 C1168 1.415 . S
H1170 C1167 0.999 . S
H1171 C1152 0.913 1_655 S
H1172 C1190 0.951 . S
H1173 C1192 0.951 . S
H1174 C1194 0.950 . S
H1175 C1195 0.950 . S
H1176 C1197 0.950 . S
H1177 C1200 0.950 . S
H1178 C1201 0.950 . S
H1179 C1203 0.950 . S
H1180 C1204 0.950 . S
H1181 C1205 0.951 . S
H1182 C1207 0.951 . S
H1183 C1209 0.950 . S
H1184 C1210 0.950 . S
H1185 C1212 0.950 . S
H1186 C1215 0.950 . S
H1187 C1216 0.950 . S
H1188 C1218 0.950 1_545 S
H1189 C1219 0.950 . S
C1190 H1172 0.951 . S
C1190 C1191 1.366 . S
C1190 C1192 1.388 . S
C1191 C1190 1.366 . S
C1191 C1195 1.385 . S
C1192 H1173 0.951 . S
C1192 C1190 1.388 . S
C1192 C1193 1.366 . S
C1193 C1192 1.366 . S
C1193 C1194 1.414 . S
C1193 C1196 1.499 . S
C1194 H1174 0.950 . S
C1194 C1193 1.414 . S
C1194 C1195 1.374 . S
C1195 H1175 0.950 . S
C1195 C1191 1.385 . S
C1195 C1194 1.374 . S
C1196 C1193 1.499 . S
C1196 C1197 1.373 . S
C1196 C1198 1.389 . S
C1197 H1176 0.950 . S
C1197 C1196 1.373 . S
C1197 C1213 1.377 . S
C1198 C1196 1.389 . S
C1198 C1199 1.524 . S
C1198 C1212 1.377 . S
C1199 C1198 1.524 . S
C1199 C1200 1.397 . S
C1199 C1204 1.363 . S
C1200 H1177 0.950 . S
C1200 C1199 1.397 . S
C1200 C1201 1.334 . S
C1201 H1178 0.950 . S
C1201 C1200 1.334 . S
C1201 C1202 1.287 . S
C1202 C1201 1.287 . S
C1202 C1203 1.524 . S
C1202 H1221 0.913 . S
C1203 H1179 0.950 . S
C1203 C1202 1.524 . S
C1203 C1204 1.415 . S
C1204 H1180 0.950 . S
C1204 C1199 1.363 . S
C1204 C1203 1.415 . S
C1205 H1181 0.951 . S
C1205 C1206 1.366 . S
C1205 C1207 1.388 . S
C1206 C1205 1.366 . S
C1206 C1210 1.385 . S
C1207 H1182 0.951 . S
C1207 C1205 1.388 . S
C1207 C1208 1.366 . S
C1208 C1207 1.366 . S
C1208 C1209 1.414 . S
C1208 C1211 1.499 . S
C1209 H1183 0.950 . S
C1209 C1208 1.414 . S
C1209 C1210 1.374 . S
C1210 H1184 0.950 . S
C1210 C1206 1.385 . S
C1210 C1209 1.374 . S
C1211 C1208 1.499 . S
C1211 C1212 1.373 . S
C1211 C1213 1.389 . S
C1212 H1185 0.950 . S
C1212 C1198 1.377 . S
C1212 C1211 1.373 . S
C1213 C1197 1.377 . S
C1213 C1211 1.389 . S
C1213 C1214 1.524 . S
C1214 C1213 1.524 . S
C1214 C1215 1.397 . S
C1214 C1219 1.363 . S
C1215 H1186 0.950 . S
C1215 C1214 1.397 . S
C1215 C1216 1.334 . S
C1216 H1187 0.950 . S
C1216 C1215 1.334 . S
C1216 C1217 1.287 . S
C1217 C1216 1.287 . S
C1217 C1218 1.524 . S
C1217 H1220 0.999 . S
C1218 H1188 0.950 1_565 S
C1218 C1217 1.524 . S
C1218 C1219 1.415 . S
C1219 H1189 0.950 . S
C1219 C1214 1.363 . S
C1219 C1218 1.415 . S
H1220 C1217 0.999 . S
H1221 C1202 0.913 . S
H1222 C1240 0.951 . S
H1223 C1242 0.951 . S
H1224 C1244 0.950 . S
H1225 C1245 0.950 . S
H1226 C1247 0.950 . S
H1227 C1250 0.950 . S
H1228 C1251 0.950 . S
H1229 C1253 0.950 1_455 S
H1230 C1254 0.950 . S
H1231 C1255 0.951 . S
H1232 C1257 0.951 . S
H1233 C1259 0.950 . S
H1234 C1260 0.950 . S
H1235 C1262 0.950 . S
H1236 C1265 0.950 . S
H1237 C1266 0.950 . S
H1238 C1268 0.950 . S
H1239 C1269 0.950 . S
C1240 H1222 0.951 . S
C1240 C1241 1.366 . S
C1240 C1242 1.388 . S
C1241 C1240 1.366 . S
C1241 C1245 1.385 . S
C1242 H1223 0.951 . S
C1242 C1240 1.388 . S
C1242 C1243 1.366 . S
C1243 C1242 1.366 . S
C1243 C1244 1.414 . S
C1243 C1246 1.499 . S
C1244 H1224 0.950 . S
C1244 C1243 1.414 . S
C1244 C1245 1.374 . S
C1245 H1225 0.950 . S
C1245 C1241 1.385 . S
C1245 C1244 1.374 . S
C1246 C1243 1.499 . S
C1246 C1247 1.373 . S
C1246 C1248 1.389 . S
C1247 H1226 0.950 . S
C1247 C1246 1.373 . S
C1247 C1263 1.377 . S
C1248 C1246 1.389 . S
C1248 C1249 1.524 . S
C1248 C1262 1.377 . S
C1249 C1248 1.524 . S
C1249 C1250 1.397 . S
C1249 C1254 1.363 . S
C1250 H1227 0.950 . S
C1250 C1249 1.397 . S
C1250 C1251 1.334 . S
C1251 H1228 0.950 . S
C1251 C1250 1.334 . S
C1251 C1252 1.287 . S
C1252 C1251 1.287 . S
C1252 C1253 1.524 . S
C1252 H1271 0.913 1_655 S
C1253 H1229 0.950 1_655 S
C1253 C1252 1.524 . S
C1253 C1254 1.415 . S
C1254 H1230 0.950 . S
C1254 C1249 1.363 . S
C1254 C1253 1.415 . S
C1255 H1231 0.951 . S
C1255 C1256 1.366 . S
C1255 C1257 1.388 . S
C1256 C1255 1.366 . S
C1256 C1260 1.385 . S
C1257 H1232 0.951 . S
C1257 C1255 1.388 . S
C1257 C1258 1.366 . S
C1258 C1257 1.366 . S
C1258 C1259 1.414 . S
C1258 C1261 1.499 . S
C1259 H1233 0.950 . S
C1259 C1258 1.414 . S
C1259 C1260 1.374 . S
C1260 H1234 0.950 . S
C1260 C1256 1.385 . S
C1260 C1259 1.374 . S
C1261 C1258 1.499 . S
C1261 C1262 1.373 . S
C1261 C1263 1.389 . S
C1262 H1235 0.950 . S
C1262 C1248 1.377 . S
C1262 C1261 1.373 . S
C1263 C1247 1.377 . S
C1263 C1261 1.389 . S
C1263 C1264 1.524 . S
C1264 C1263 1.524 . S
C1264 C1265 1.397 . S
C1264 C1269 1.363 . S
C1265 H1236 0.950 . S
C1265 C1264 1.397 . S
C1265 C1266 1.334 . S
C1266 H1237 0.950 . S
C1266 C1265 1.334 . S
C1266 C1267 1.287 . S
C1267 C1266 1.287 . S
C1267 C1268 1.524 . S
C1267 H1270 0.999 . S
C1268 H1238 0.950 . S
C1268 C1267 1.524 . S
C1268 C1269 1.415 . S
C1269 H1239 0.950 . S
C1269 C1264 1.363 . S
C1269 C1268 1.415 . S
H1270 C1267 0.999 . S
H1271 C1252 0.913 1_455 S
C291 C101 0.749 . S
C306 C33 0.754 1_565 S
C341 C67 0.750 . S
C356 C135 0.754 1_655 S
C391 C169 0.749 . S
C406 C237 0.751 . S
C441 C271 0.751 . S
C456 C203 0.749 . S
C491 C122 1.549 . S
C506 C20 1.548 . S
C541 C9 1.663 . S
C556 C43 1.663 . S
C591 C88 1.549 . S
C606 C54 1.549 . S
C641 C77 1.664 . S
C656 C111 1.664 . S
C691 C258 1.549 . S
C706 C156 1.548 . S
C741 C145 1.663 . S
C756 C179 1.663 . S
C791 C190 1.549 . S
C806 C224 1.549 . S
C841 C213 1.664 . S
C856 C247 1.664 . S
C891 C5 0.408 . S
C906 C175 0.409 . S
C941 C36 1.107 . S
C956 C206 1.106 . S
C991 C73 0.412 . S
C1006 C243 0.411 . S
C1041 C104 1.105 . S
C1056 C138 1.106 . S
C1091 C70 1.106 . S
C1106 C172 1.107 . S
C1141 C107 0.411 . S
C1156 C209 0.410 . S
C1191 C2 1.105 . S
C1206 C240 1.106 . S
C1241 C39 0.409 . S
C1256 C141 0.408 . S
