# Generated by pormake.
# Topology oob, (7)-cn, num edge types: 1
# Building blocks:
#     Node 0, Type 0, BuildingBlock: HICVOG_clean_sbu_0, # of connection points: 7
#     Node 1, Type 0, BuildingBlock: HICVOG_clean_sbu_0, # of connection points: 7
#     Node 2, Type 0, BuildingBlock: HICVOG_clean_sbu_0, # of connection points: 7
#     Node 3, Type 0, BuildingBlock: HICVOG_clean_sbu_0, # of connection points: 7
#     Edge 4, Type (0, 0), BuildingBlock: ZUJKAS_clean_linker_0, # of connection points: 2
#     Edge 5, Type (0, 0), BuildingBlock: ZUJKAS_clean_linker_0, # of connection points: 2
#     Edge 6, Type (0, 0), BuildingBlock: ZUJKAS_clean_linker_0, # of connection points: 2
#     Edge 7, Type (0, 0), BuildingBlock: ZUJKAS_clean_linker_0, # of connection points: 2
#     Edge 8, Type (0, 0), BuildingBlock: ZUJKAS_clean_linker_0, # of connection points: 2
#     Edge 9, Type (0, 0), BuildingBlock: ZUJKAS_clean_linker_0, # of connection points: 2
#     Edge 10, Type (0, 0), BuildingBlock: ZUJKAS_clean_linker_0, # of connection points: 2
#     Edge 11, Type (0, 0), BuildingBlock: ZUJKAS_clean_linker_0, # of connection points: 2
#     Edge 12, Type (0, 0), BuildingBlock: ZUJKAS_clean_linker_0, # of connection points: 2
#     Edge 13, Type (0, 0), BuildingBlock: ZUJKAS_clean_linker_0, # of connection points: 2
#     Edge 14, Type (0, 0), BuildingBlock: ZUJKAS_clean_linker_0, # of connection points: 2
#     Edge 15, Type (0, 0), BuildingBlock: ZUJKAS_clean_linker_0, # of connection points: 2
#     Edge 16, Type (0, 0), BuildingBlock: ZUJKAS_clean_linker_0, # of connection points: 2
#     Edge 17, Type (0, 0), BuildingBlock: ZUJKAS_clean_linker_0, # of connection points: 2
# Relax obj value: 0.253
# Max RMSD: 0.252
# Mean RMSD: 0.252
data_MOF--net-oob--node1-HICVOG_clean_sbu_0--edge1-ZUJKAS_clean_linker_0
_symmetry_space_group_name_H-M    P1
_symmetry_Int_Tables_number       1
_symmetry_cell_setting            triclinic
loop_
_symmetry_equiv_pos_as_xyz
'x, y, z'
_cell_length_a     21.946296
_cell_length_b     48.745286
_cell_length_c     35.317414
_cell_angle_alpha  90.368789
_cell_angle_beta   105.70279
_cell_angle_gamma 90.061384
loop_
_atom_site_label
_atom_site_type_symbol
_atom_site_fract_x
_atom_site_fract_y
_atom_site_fract_z
_atom_type_partial_charge
Zn0 Zn 0.22926 0.03949 0.80695 0.0
C1 C 0.17917 0.98984 0.8853 0.0
N2 N 0.22978 1.00169 0.91012 0.0
C3 C 0.25165 0.01791 0.88618 0.0
N4 N 0.21616 0.01629 0.84852 0.0
N5 N 0.17063 0.99831 0.84788 0.0
C6 C 0.9991 0.99683 0.81125 0.0
O7 O 0.02574 0.02 0.80535 0.0
O8 O 0.32173 0.03711 0.80787 0.0
Zn9 Zn 0.11502 0.98048 0.8026 0.0
N10 N 0.21004 0.0764 0.82042 0.0
C11 C 0.14618 0.10456 0.84936 0.0
C12 C 0.16117 0.07889 0.83699 0.0
C13 C 0.2436 0.09875 0.81456 0.0
N14 N 0.17983 0.12683 0.84389 0.0
C15 C 0.22802 0.12484 0.82651 0.0
O16 O 0.10096 1.00053 0.75129 0.0
C17 C 0.12545 0.01815 0.73336 0.0
O18 O 0.17403 0.03213 0.75116 0.0
H19 H 0.13481 0.06094 0.8412 0.0
H20 H 0.28224 0.09611 0.80127 0.0
C21 C 0.13605 0.92057 0.79641 0.0
C22 C 0.16953 0.89878 0.78483 0.0
C23 C 0.24007 0.93096 0.76894 0.0
C24 C 0.20611 0.95233 0.77943 0.0
N25 N 0.15535 0.94687 0.79318 0.0
N26 N 0.22081 0.90484 0.77162 0.0
H27 H 0.09428 0.91683 0.80634 0.0
C28 C 0.35005 0.01423 0.81563 0.0
O29 O 0.31823 0.99279 0.82215 0.0
O30 O 0.02965 0.97463 0.81183 0.0
H31 H 0.21902 0.97334 0.77585 0.0
H32 H 0.108 0.10681 0.86311 0.0
H33 H 0.28069 0.93507 0.75802 0.0
Zn34 Zn 0.7893 0.04629 0.23882 0.0
C35 C 0.87417 0.01639 0.15995 0.0
N36 N 0.83598 0.03465 0.13678 0.0
C37 C 0.80003 0.04341 0.15967 0.0
N38 N 0.81561 0.03121 0.19512 0.0
N39 N 0.86207 0.01388 0.19527 0.0
C40 C 0.021 0.99916 0.23291 0.0
O41 O 0.99801 0.02325 0.2386 0.0
O42 O 0.69577 0.03979 0.23237 0.0
Zn43 Zn 0.89698 0.98632 0.23441 0.0
N44 N 0.80648 0.08517 0.23654 0.0
C45 C 0.88048 0.11731 0.22432 0.0
C46 C 0.8639 0.09051 0.23046 0.0
C47 C 0.76529 0.10583 0.23802 0.0
N48 N 0.8393 0.13785 0.22506 0.0
C49 C 0.78221 0.13301 0.232 0.0
O50 O 0.90529 0.99869 0.29074 0.0
C51 C 0.88266 0.01642 0.3099 0.0
O52 O 0.84083 0.03364 0.29257 0.0
H53 H 0.89605 0.07387 0.22954 0.0
H54 H 0.71976 0.10113 0.24281 0.0
C55 C 0.85797 0.92878 0.23731 0.0
C56 C 0.81331 0.90719 0.22758 0.0
C57 C 0.73936 0.93781 0.18757 0.0
C58 C 0.78328 0.95898 0.19737 0.0
N59 N 0.84163 0.95425 0.22204 0.0
N60 N 0.75526 0.9126 0.2029 0.0
H61 H 0.90431 0.92567 0.25735 0.0
C62 C 0.67521 0.01624 0.2383 0.0
O63 O 0.71572 0.99607 0.24914 0.0
O64 O 0.98582 0.97807 0.23052 0.0
H65 H 0.77035 0.97914 0.18555 0.0
H66 H 0.92564 0.12177 0.21886 0.0
H67 H 0.69275 0.94138 0.16813 0.0
Zn68 Zn 0.74055 0.54568 0.31229 0.0
C69 C 0.67438 0.51306 0.39812 0.0
N70 N 0.71772 0.52988 0.42088 0.0
C71 C 0.74623 0.54044 0.39509 0.0
N72 N 0.72208 0.53033 0.35838 0.0
N73 N 0.67664 0.51294 0.36033 0.0
C74 C 0.50871 0.50021 0.30927 0.0
O75 O 0.53104 0.52096 0.29349 0.0
O76 O 0.8339 0.54318 0.31698 0.0
Zn77 Zn 0.63663 0.48508 0.32251 0.0
N78 N 0.71466 0.58361 0.31223 0.0
C79 C 0.63087 0.61272 0.31813 0.0
C80 C 0.65483 0.58661 0.31561 0.0
C81 C 0.75182 0.60583 0.31084 0.0
N82 N 0.66763 0.63487 0.31691 0.0
C83 C 0.72759 0.63242 0.3132 0.0
O84 O 0.63175 0.49391 0.26613 0.0
C85 C 0.65221 0.5104 0.24458 0.0
O86 O 0.69162 0.5294 0.25934 0.0
H87 H 0.6263 0.56869 0.31682 0.0
H88 H 0.79961 0.60276 0.30874 0.0
C89 C 0.65999 0.42619 0.32222 0.0
C90 C 0.69433 0.40221 0.33633 0.0
C91 C 0.77199 0.42935 0.38076 0.0
C92 C 0.73826 0.45296 0.36657 0.0
N93 N 0.68258 0.45102 0.338 0.0
N94 N 0.74929 0.40465 0.36545 0.0
H95 H 0.61555 0.42518 0.29956 0.0
C96 C 0.86021 0.51976 0.32042 0.0
O97 O 0.82581 0.49782 0.32138 0.0
O98 O 0.54606 0.48086 0.32437 0.0
H99 H 0.75642 0.47267 0.3786 0.0
H100 H 0.58345 0.61541 0.32109 0.0
H101 H 0.816 0.43062 0.40374 0.0
Zn102 Zn 0.28069 0.53944 0.75711 0.0
C103 C 0.35713 0.51084 0.67311 0.0
N104 N 0.31816 0.52936 0.65117 0.0
C105 C 0.28679 0.53899 0.67619 0.0
N106 N 0.3053 0.52675 0.71162 0.0
N107 N 0.34959 0.50883 0.70963 0.0
C108 C 0.51067 0.49446 0.75957 0.0
O109 O 0.48691 0.515 0.77516 0.0
O110 O 0.18758 0.53306 0.74905 0.0
Zn111 Zn 0.38408 0.47955 0.74555 0.0
N112 N 0.29967 0.57821 0.75994 0.0
C113 C 0.37673 0.61132 0.75499 0.0
C114 C 0.35845 0.58413 0.75651 0.0
C115 C 0.25836 0.5985 0.76274 0.0
N116 N 0.3355 0.63156 0.75713 0.0
C117 C 0.27676 0.62606 0.76118 0.0
O118 O 0.38894 0.48746 0.80259 0.0
C119 C 0.36876 0.50424 0.82416 0.0
O120 O 0.33009 0.52331 0.80942 0.0
H121 H 0.39045 0.56771 0.75427 0.0
H122 H 0.21155 0.59325 0.76501 0.0
C123 C 0.35353 0.42104 0.74061 0.0
C124 C 0.31797 0.398 0.72294 0.0
C125 C 0.24679 0.42732 0.6788 0.0
C126 C 0.28179 0.45004 0.69637 0.0
N127 N 0.33499 0.44656 0.72646 0.0
N128 N 0.26577 0.40193 0.69231 0.0
H129 H 0.396 0.41871 0.76455 0.0
C130 C 0.16365 0.53313 0.77801 0.0
O131 O 0.20046 0.53793 0.8135 0.0
O132 O 0.47439 0.47471 0.74405 0.0
H133 H 0.26683 0.47028 0.68557 0.0
H134 H 0.42313 0.61633 0.75184 0.0
H135 H 0.20488 0.42982 0.65453 0.0
H136 H 0.92569 0.04135 0.81417 0.0
H137 H 0.81838 0.04202 0.8214 0.0
H138 H 0.82007 0.95381 0.83012 0.0
H139 H 0.92794 0.95287 0.82256 0.0
H140 H 0.71379 0.97505 0.77484 0.0
H141 H 0.75356 0.02887 0.91826 0.0
H142 H 0.78762 0.04629 0.88421 0.0
H143 H 0.8169 0.01308 0.9023 0.0
C144 C 0.9036 0.02206 0.81795 0.0
C145 C 0.93523 0.99703 0.8176 0.0
C146 C 0.84238 0.02252 0.82241 0.0
C147 C 0.81168 0.99802 0.82686 0.0
C148 C 0.84325 0.97297 0.82699 0.0
H149 H 0.421 0.96764 0.8282 0.0
H150 H 0.53347 0.96296 0.83264 0.0
C151 C 0.90474 0.97247 0.82261 0.0
C152 C 0.74497 0.99862 0.82838 0.0
H153 H 0.64648 0.02639 0.87839 0.0
C154 C 0.69907 0.98596 0.79773 0.0
C155 C 0.72606 0.01298 0.85823 0.0
C156 C 0.77365 0.02587 0.89283 0.0
C157 C 0.63442 0.98806 0.79537 0.0
C158 C 0.61543 1.00292 0.82474 0.0
C159 C 0.66134 0.01517 0.8558 0.0
C160 C 0.5479 1.00603 0.82347 0.0
C161 C 0.58678 0.9751 0.76084 0.0
C162 C 0.51922 0.03195 0.81772 0.0
C163 C 0.4548 0.03474 0.81514 0.0
C164 C 0.41827 1.01165 0.81855 0.0
C165 C 0.44765 0.98582 0.82514 0.0
C166 C 0.51188 0.98306 0.8276 0.0
H167 H 0.60818 0.96955 0.7367 0.0
H168 H 0.56786 0.95609 0.77062 0.0
H169 H 0.54642 0.98917 0.74907 0.0
H170 H 0.54651 0.04993 0.81467 0.0
H171 H 0.43367 0.05494 0.81039 0.0
H172 H 0.57904 0.05379 0.21889 0.0
H173 H 0.4667 0.04627 0.21349 0.0
H174 H 0.50331 0.96064 0.23996 0.0
H175 H 0.61582 0.96805 0.24613 0.0
H176 H 0.37747 1.01177 0.16486 0.0
H177 H 0.41393 0.9842 0.32187 0.0
H178 H 0.4754 0.99957 0.30385 0.0
H179 H 0.45759 0.96363 0.29599 0.0
C180 C 0.56327 0.03336 0.22364 0.0
C181 C 0.60664 1.0116 0.23346 0.0
C182 C 0.49896 0.02907 0.22042 0.0
C183 C 0.4767 1.00299 0.22701 0.0
C184 C 0.51957 0.98107 0.23565 0.0
H185 H 0.09374 0.95307 0.23397 0.0
H186 H 0.20322 0.95118 0.22881 0.0
C187 C 0.5839 0.98534 0.239 0.0
C188 C 0.40881 0.99892 0.22526 0.0
H189 H 0.30947 0.98135 0.28095 0.0
C190 C 0.36264 1.00502 0.1902 0.0
C191 C 0.3894 0.99001 0.25831 0.0
C192 C 0.43653 0.98418 0.29726 0.0
C193 C 0.29771 1.0027 0.18745 0.0
C194 C 0.27846 0.99438 0.22073 0.0
C195 C 0.32447 0.98758 0.25543 0.0
C196 C 0.21111 0.99493 0.22127 0.0
C197 C 0.25007 1.00928 0.14901 0.0
C198 C 0.17954 0.02011 0.21886 0.0
C199 C 0.11767 0.02128 0.22222 0.0
C200 C 0.08584 0.99725 0.22798 0.0
C201 C 0.11703 0.97192 0.2296 0.0
C202 C 0.17946 0.97081 0.22664 0.0
H203 H 0.27147 1.00827 0.1239 0.0
H204 H 0.20916 0.99494 0.14321 0.0
H205 H 0.23199 0.03039 0.15057 0.0
H206 H 0.20336 0.039 0.21526 0.0
H207 H 0.09495 0.04112 0.22056 0.0
H208 H 0.42219 0.54106 0.28619 0.0
H209 H 0.31404 0.54273 0.29196 0.0
H210 H 0.33636 0.46216 0.34365 0.0
H211 H 0.44569 0.46064 0.33898 0.0
H212 H 0.21519 0.51006 0.25859 0.0
H213 H 0.26612 0.50443 0.42114 0.0
H214 H 0.3271 0.51071 0.39672 0.0
H215 H 0.29816 0.47646 0.39944 0.0
C216 C 0.40431 0.52369 0.29892 0.0
C217 C 0.44261 0.5007 0.31211 0.0
C218 C 0.34239 0.52469 0.30221 0.0
C219 C 0.31728 0.50276 0.31874 0.0
C220 C 0.35514 0.47961 0.33162 0.0
H221 H 0.93259 0.47333 0.33378 0.0
H222 H 0.04421 0.46878 0.33485 0.0
C223 C 0.41742 0.47865 0.32858 0.0
C224 C 0.25077 0.50399 0.32106 0.0
H225 H 0.15789 0.50229 0.38472 0.0
C226 C 0.20278 0.50841 0.2862 0.0
C227 C 0.23456 0.50184 0.35714 0.0
C228 C 0.28418 0.49835 0.3958 0.0
C229 C 0.13916 0.51071 0.28639 0.0
C230 C 0.12307 0.50864 0.32237 0.0
C231 C 0.17066 0.50385 0.3572 0.0
C232 C 0.05685 0.51175 0.32415 0.0
C233 C 0.08933 0.51523 0.2481 0.0
C234 C 0.02757 0.53752 0.31844 0.0
C235 C 0.96395 0.54025 0.31794 0.0
C236 C 0.92843 0.51717 0.32294 0.0
C237 C 0.95846 0.49147 0.32956 0.0
C238 C 0.02224 0.48882 0.33031 0.0
H239 H 0.10804 0.51183 0.2222 0.0
H240 H 0.04836 0.50131 0.24576 0.0
H241 H 0.07186 0.53664 0.24721 0.0
H242 H 0.05381 0.55548 0.31392 0.0
H243 H 0.94238 0.56035 0.31299 0.0
H244 H 0.59762 0.53432 0.78944 0.0
H245 H 0.70623 0.53748 0.78485 0.0
H246 H 0.68333 0.461 0.72048 0.0
H247 H 0.57387 0.45755 0.72497 0.0
H248 H 0.79683 0.46543 0.78366 0.0
H249 H 0.76266 0.55542 0.68511 0.0
H250 H 0.73235 0.5604 0.72706 0.0
H251 H 0.69758 0.53466 0.69094 0.0
C252 C 0.61546 0.51812 0.77425 0.0
C253 C 0.57708 0.49566 0.75757 0.0
C254 C 0.67747 0.52008 0.77145 0.0
C255 C 0.70236 0.49971 0.75179 0.0
C256 C 0.66468 0.47702 0.73554 0.0
H257 H 0.07354 0.52444 0.70825 0.0
H258 H 0.96133 0.51379 0.69872 0.0
C259 C 0.60233 0.47505 0.73824 0.0
C260 C 0.76854 0.50198 0.74957 0.0
H261 H 0.86965 0.54487 0.72007 0.0
C262 C 0.81273 0.48257 0.76932 0.0
C263 C 0.78888 0.52414 0.73033 0.0
C264 C 0.74281 0.54471 0.70681 0.0
C265 C 0.87741 0.48553 0.77205 0.0
C266 C 0.89827 0.5087 0.75505 0.0
C267 C 0.85363 0.52732 0.73354 0.0
C268 C 0.96637 0.51465 0.76075 0.0
C269 C 0.92289 0.46396 0.79342 0.0
C270 C 1.00604 0.51915 0.79873 0.0
C271 C 0.07005 0.52528 0.80429 0.0
C272 C 0.09555 0.52716 0.77193 0.0
C273 C 0.05547 0.523 0.73382 0.0
C274 C 0.99136 0.51691 0.7283 0.0
H275 H 0.8985 0.44408 0.79429 0.0
H276 H 0.96179 0.46064 0.7793 0.0
H277 H 0.94406 0.47082 0.82421 0.0
H278 H 0.98734 0.51816 0.8241 0.0
H279 H 0.09949 0.52851 0.83399 0.0
H280 H 0.15792 0.0552 0.68337 0.0
H281 H 0.11535 0.05805 0.61175 0.0
H282 H 0.9919 0.98949 0.61356 0.0
H283 H 0.03263 0.98692 0.68475 0.0
H284 H 0.11819 0.0213 0.55509 0.0
H285 H 0.86829 0.0428 0.54855 0.0
H286 H 0.93078 0.04503 0.59377 0.0
H287 H 0.89609 1.01232 0.57588 0.0
C288 C 0.12119 0.04092 0.66858 0.0
C289 C 0.09849 0.02097 0.69005 0.0
C290 C 0.09698 0.04254 0.62758 0.0
C291 C 0.04949 0.0243 0.60719 0.0
C292 C 0.02714 1.00431 0.62857 0.0
H293 H 0.95919 0.97949 0.35915 0.0
H294 H 1.00012 0.98224 0.43072 0.0
C295 C 0.05091 1.00278 0.66943 0.0
C296 C 0.025 0.02531 0.56348 0.0
H297 H 0.88865 0.0276 0.48854 0.0
C298 C 0.06803 0.02293 0.54055 0.0
C299 C 0.95963 0.02784 0.54432 0.0
C300 C 0.91113 0.03244 0.56691 0.0
C301 C 0.04743 0.02222 0.49919 0.0
C302 C 0.98175 0.02322 0.4801 0.0
C303 C 0.93891 0.0264 0.50302 0.0
C304 C 0.9564 0.02128 0.43645 0.0
C305 C 0.09647 0.02084 0.47642 0.0
C306 C 0.91614 0.04176 0.41573 0.0
C307 C 0.89174 0.04002 0.37482 0.0
C308 C 0.90709 0.01774 0.35355 0.0
C309 C 0.94679 0.99707 0.37443 0.0
C310 C 0.97072 0.99872 0.41542 0.0
H311 H 0.14307 0.02872 0.49413 0.0
H312 H 0.10293 0.99914 0.46866 0.0
H313 H 0.08165 0.03282 0.44883 0.0
H314 H 0.90399 0.0593 0.4312 0.0
H315 H 0.8614 0.05635 0.35984 0.0
H316 H 0.47387 0.4766 0.86568 0.0
H317 H 0.52145 0.47691 0.93661 0.0
H318 H 0.37088 0.52871 0.95243 0.0
H319 H 0.32412 0.52932 0.88115 0.0
H320 H 0.48064 0.5472 0.99551 0.0
H321 H 0.47252 0.43558 1.02085 0.0
H322 H 0.51477 0.44337 0.98534 0.0
H323 H 0.43157 0.45102 0.97475 0.0
C324 C 0.45031 0.4878 0.88422 0.0
C325 C 0.3948 0.50278 0.86762 0.0
C326 C 0.47752 0.48784 0.92493 0.0
C327 C 0.44924 0.50238 0.95017 0.0
C328 C 0.39356 0.51722 0.93369 0.0
H329 H 0.54746 0.48186 0.20375 0.0
H330 H 0.49941 0.48075 0.13292 0.0
C331 C 0.36672 0.51749 0.89289 0.0
C332 C 0.47908 0.50303 0.9935 0.0
H333 H 0.53717 0.46224 0.07348 0.0
C334 C 0.49263 0.5286 1.01258 0.0
C335 C 0.49412 0.47881 1.01606 0.0
C336 C 0.47688 0.45067 0.99828 0.0
C337 C 0.52126 0.53064 0.05328 0.0
C338 C 0.53886 0.50641 0.07551 0.0
C339 C 0.52464 0.48085 0.0565 0.0
C340 C 0.56963 0.50701 0.11875 0.0
C341 C 0.53067 0.55877 0.0721 0.0
C342 C 0.62596 0.52177 0.13469 0.0
C343 C 0.6533 0.52275 0.17547 0.0
C344 C 0.62561 0.50848 0.20115 0.0
C345 C 0.57034 0.49303 0.18496 0.0
C346 C 0.54265 0.49239 0.14434 0.0
H347 H 0.49823 0.57407 0.05393 0.0
H348 H 0.5227 0.55852 0.10183 0.0
H349 H 0.57989 0.56571 0.07499 0.0
H350 H 0.6489 0.53257 0.11562 0.0
H351 H 0.69614 0.53465 0.18686 0.0
H352 H 0.36947 0.99794 0.90623 0.0
H353 H 0.46268 0.01989 0.94947 0.0
H354 H 0.35804 0.0952 0.94589 0.0
H355 H 0.26371 0.07267 0.90362 0.0
H356 H 0.53743 0.06415 0.95083 0.0
H357 H 0.3996 0.07604 0.06121 0.0
H358 H 0.36932 0.05717 1.01596 0.0
H359 H 0.37044 0.09403 1.01568 0.0
C360 C 0.36718 0.01949 0.91347 0.0
C361 C 0.3101 0.03386 0.90089 0.0
C362 C 0.42032 0.03202 0.93834 0.0
C363 C 0.41706 0.05906 0.95159 0.0
C364 C 0.36134 0.07418 0.93658 0.0
H365 H 0.78497 0.09182 0.1205 0.0
H366 H 0.68741 0.10643 0.07237 0.0
C367 C 0.30782 0.0615 0.91175 0.0
C368 C 0.46983 0.0696 0.98431 0.0
H369 H 0.50875 0.08281 0.08315 0.0
C370 C 0.53125 0.06887 0.97963 0.0
C371 C 0.46146 0.0755 1.02194 0.0
C372 C 0.39682 0.07559 0.02932 0.0
C373 C 0.58472 0.07173 1.01193 0.0
C374 C 0.57645 0.07654 0.0499 0.0
C375 C 0.51494 0.07933 0.05405 0.0
C376 C 0.62989 0.0738 0.08598 0.0
C377 C 0.64923 0.06719 1.0054 0.0
C378 C 0.62835 0.05245 0.11226 0.0
C379 C 0.6834 0.04469 0.14044 0.0
C380 C 0.74073 0.05817 0.14276 0.0
C381 C 0.74097 0.08131 0.11935 0.0
C382 C 0.68555 0.08939 0.09153 0.0
H383 H 0.64618 0.05875 0.97563 0.0
H384 H 0.67499 0.08702 1.0084 0.0
H385 H 0.6775 0.0528 1.02752 0.0
H386 H 0.58601 0.04012 0.10867 0.0
H387 H 0.68249 0.02621 0.15714 0.0
H388 H 0.27733 0.58914 0.64268 0.0
H389 H 0.18231 0.60698 0.59576 0.0
H390 H 0.07313 0.54043 0.62443 0.0
H391 H 0.16738 0.52332 0.67187 0.0
H392 H 0.13015 0.5798 0.53283 0.0
H393 H 0.94228 0.59817 0.60609 0.0
H394 H 0.02425 0.59501 0.63357 0.0
H395 H 0.97531 0.56489 0.6193 0.0
C396 C 0.23211 0.57938 0.64053 0.0
C397 C 0.2291 0.55533 0.66157 0.0
C398 C 0.17797 0.58937 0.6134 0.0
C399 C 0.12013 0.57519 0.60645 0.0
C400 C 0.11636 0.55232 0.62984 0.0
H401 H 0.86338 0.52171 0.40118 0.0
H402 H 0.95914 0.53831 0.44813 0.0
C403 C 0.17033 0.54259 0.65734 0.0
C404 C 0.06761 0.58099 0.57066 0.0
H405 H 0.90661 0.58287 0.53738 0.0
C406 C 0.08136 0.58121 0.53397 0.0
C407 C 1.00385 0.58332 0.57171 0.0
C408 C 0.98577 0.58564 0.60989 0.0
C409 C 0.03308 0.58161 0.49851 0.0
C410 C 0.96915 0.58102 0.49961 0.0
C411 C 0.95551 0.58294 0.53625 0.0
C412 C 0.91612 0.57511 0.46401 0.0
C413 C 0.05133 0.58203 0.46028 0.0
C414 C 0.86003 0.59054 0.45606 0.0
C415 C 0.80503 0.58092 0.42896 0.0
C416 C 0.8055 0.55595 0.40905 0.0
C417 C 0.86264 0.54172 0.41455 0.0
C418 C 0.91743 0.55115 0.44184 0.0
H419 H 0.09626 0.59353 0.46369 0.0
H420 H 0.05928 0.56069 0.45158 0.0
H421 H 0.01398 0.59149 0.43628 0.0
H422 H 0.85759 0.60898 0.47286 0.0
H423 H 0.76095 0.59178 0.42602 0.0
H424 H 0.97224 0.03669 0.13764 0.0
H425 H 0.02704 0.01432 0.09435 0.0
H426 H 0.93081 0.93834 0.10313 0.0
H427 H 0.87527 0.96106 0.14664 0.0
H428 H 0.10215 0.96878 0.09396 0.0
H429 H 0.865 0.95812 0.98631 0.0
H430 H 0.87679 0.97793 0.03101 0.0
H431 H 0.87701 0.94113 0.03279 0.0
C432 C 0.9646 0.01495 0.13145 0.0
C433 C 0.92001 1.00049 0.14542 0.0
C434 C 0.99572 1.00218 0.10664 0.0
C435 C 0.98195 0.97482 0.09477 0.0
C436 C 0.94132 0.9596 0.11142 0.0
H437 H 0.19219 0.94008 0.92063 0.0
H438 H 0.13718 0.92604 0.9694 0.0
C439 C 0.91031 0.97244 0.13663 0.0
C440 C 1.0046 0.96408 0.06156 0.0
H441 H 0.95346 0.95221 0.96246 0.0
C442 C 0.06988 0.96439 0.06536 0.0
C443 C 0.9621 0.95874 1.02419 0.0
C444 C 0.89127 0.95907 1.01797 0.0
C445 C 0.09373 0.9615 0.03245 0.0
C446 C 0.05104 0.95735 0.99472 0.0
C447 C 0.98603 0.95513 0.99138 0.0
C448 C 0.0719 0.96018 0.95823 0.0
C449 C 0.16395 0.96529 0.03804 0.0
C450 C 0.04963 0.98247 0.93332 0.0
C451 C 0.08001 0.99005 0.90496 0.0
C452 C 0.13252 0.97527 0.90068 0.0
C453 C 0.15078 0.95138 0.92282 0.0
C454 C 0.12006 0.94364 0.95108 0.0
H455 H 0.18852 0.97293 0.068 0.0
H456 H 0.18536 0.94533 0.03362 0.0
H457 H 0.17289 0.98001 1.01626 0.0
H458 H 0.01263 0.99558 0.93824 0.0
H459 H 0.06693 1.00923 0.88961 0.0
H460 H 0.48278 0.51666 0.68313 0.0
H461 H 0.53997 0.50113 0.63643 0.0
H462 H 0.37582 0.45507 0.57291 0.0
H463 H 0.31989 0.46943 0.62102 0.0
H464 H 0.49792 0.43328 0.56585 0.0
H465 H 0.45851 0.54428 0.53387 0.0
H466 H 0.50415 0.53717 0.58321 0.0
H467 H 0.42278 0.52637 0.56694 0.0
C468 C 0.46076 0.50159 0.66098 0.0
C469 C 0.39776 0.49361 0.65615 0.0
C470 C 0.49302 0.49305 0.63392 0.0
C471 C 0.46162 0.47735 0.60088 0.0
C472 C 0.40092 0.46707 0.59828 0.0
H473 H 0.54819 0.51879 0.38537 0.0
H474 H 0.48485 0.50163 0.42734 0.0
C475 C 0.36908 0.47524 0.62578 0.0
C476 C 0.48555 0.4771 0.56553 0.0
H477 H 0.51752 0.52028 0.49793 0.0
C478 C 0.50218 0.45221 0.55079 0.0
C479 C 0.48878 0.50173 0.54521 0.0
C480 C 0.46704 0.52888 0.55779 0.0
C481 C 0.5245 0.45155 0.51696 0.0
C482 C 0.53101 0.47646 0.49797 0.0
C483 C 0.51242 0.50112 0.51225 0.0
C484 C 0.56132 0.47839 0.46522 0.0
C485 C 0.54031 0.42424 0.50179 0.0
C486 C 0.62408 0.46963 0.47085 0.0
C487 C 0.65925 0.4785 0.44563 0.0
C488 C 0.6324 0.49639 0.41467 0.0
C489 C 0.56867 0.50373 0.40752 0.0
C490 C 0.53294 0.49433 0.43208 0.0
H491 H 0.51182 0.40746 0.50972 0.0
H492 H 0.53202 0.42436 0.46935 0.0
H493 H 0.59096 0.41961 0.51549 0.0
H494 H 0.64778 0.45806 0.49669 0.0
H495 H 0.70903 0.47331 0.45232 0.0
H496 H 0.27165 0.13803 0.76283 0.0
H497 H 0.30923 0.183 0.74793 0.0
H498 H 0.29262 0.21455 0.85896 0.0
H499 H 0.25483 0.16977 0.87407 0.0
H500 H 0.22538 0.23164 0.74834 0.0
H501 H 0.46908 0.24411 0.84666 0.0
H502 H 0.43452 0.21084 0.83091 0.0
H503 H 0.41014 0.22989 0.86787 0.0
C504 C 0.27783 0.15427 0.78462 0.0
C505 C 0.26045 0.15032 0.81973 0.0
C506 C 0.29907 0.17998 0.77597 0.0
C507 C 0.30431 0.20197 0.80254 0.0
C508 C 0.28984 0.19773 0.83836 0.0
H509 H 0.34852 0.37853 0.79846 0.0
H510 H 0.35226 0.33013 0.81803 0.0
C511 C 0.26787 0.17219 0.8468 0.0
C512 C 0.31636 0.23014 0.79078 0.0
H513 H 0.42111 0.28363 0.81231 0.0
C514 C 0.26845 0.24294 0.76195 0.0
C515 C 0.37204 0.24489 0.80924 0.0
C516 C 0.42478 0.2318 0.84028 0.0
C517 C 0.27402 0.27035 0.75154 0.0
C518 C 0.3302 0.28514 0.7695 0.0
C519 C 0.37836 0.27225 0.79834 0.0
C520 C 0.33856 0.31411 0.75897 0.0
C521 C 0.21842 0.28347 0.7225 0.0
C522 C 0.33283 0.32114 0.71969 0.0
C523 C 0.32969 0.34862 0.70848 0.0
C524 C 0.33419 0.36964 0.7365 0.0
C525 C 0.3454 0.3627 0.77635 0.0
C526 C 0.34732 0.33508 0.78749 0.0
H527 H 0.17361 0.2722 0.72052 0.0
H528 H 0.21226 0.30512 0.7307 0.0
H529 H 0.22661 0.28316 0.69285 0.0
H530 H 0.32786 0.30534 0.69735 0.0
H531 H 0.32154 0.35346 0.67761 0.0
H532 H 0.70737 0.35459 0.37687 0.0
H533 H 0.69334 0.30791 0.3502 0.0
H534 H 0.6249 0.33995 0.23292 0.0
H535 H 0.63867 0.38694 0.25942 0.0
H536 H 0.57882 0.27841 0.2891 0.0
H537 H 0.80178 0.29628 0.24572 0.0
H538 H 0.78192 0.31652 0.28365 0.0
H539 H 0.73993 0.32158 0.2331 0.0
C540 C 0.68796 0.35173 0.34545 0.0
C541 C 0.67428 0.37446 0.32026 0.0
C542 C 0.67968 0.32504 0.33032 0.0
C543 C 0.65821 0.32054 0.28966 0.0
C544 C 0.64122 0.34308 0.26445 0.0
H545 H 0.74603 0.17262 0.17744 0.0
H546 H 0.7001 0.21716 0.18587 0.0
C547 C 0.64889 0.3699 0.27965 0.0
C548 C 0.66196 0.29258 0.27386 0.0
H549 H 0.75977 0.25196 0.23777 0.0
C550 C 0.61777 0.27258 0.27731 0.0
C551 C 0.71292 0.28514 0.25866 0.0
C552 C 0.76223 0.30585 0.25506 0.0
C553 C 0.62362 0.24512 0.26616 0.0
C554 C 0.67612 0.23743 0.25235 0.0
C555 C 0.71933 0.25774 0.24814 0.0
C556 C 0.68996 0.20845 0.24392 0.0
C557 C 0.5734 0.22476 0.26915 0.0
C558 C 0.69721 0.18817 0.27299 0.0
C559 C 0.72207 0.16239 0.26771 0.0
C560 C 0.74135 0.15676 0.23367 0.0
C561 C 0.73114 0.17648 0.20385 0.0
C562 C 0.70514 0.20195 0.20874 0.0
H563 H 0.52723 0.23505 0.26626 0.0
H564 H 0.56695 0.2085 0.24623 0.0
H565 H 0.58757 0.21494 0.29848 0.0
H566 H 0.68762 0.1928 0.30083 0.0
H567 H 0.73072 0.14769 0.29144 0.0
H568 H 0.72714 0.87141 0.24083 0.0
H569 H 0.74146 0.82337 0.25911 0.0
H570 H 0.94064 0.8298 0.26778 0.0
H571 H 0.92675 0.87837 0.24892 0.0
H572 H 0.79506 0.78334 0.21329 0.0
H573 H 0.92378 0.79028 0.37246 0.0
H574 H 0.87554 0.81823 0.34756 0.0
H575 H 0.9495 0.81087 0.33737 0.0
C576 C 0.77427 0.86282 0.24685 0.0
C577 C 0.82573 0.87888 0.24331 0.0
C578 C 0.78231 0.8353 0.25737 0.0
C579 C 0.842 0.82303 0.26476 0.0
C580 C 0.89422 0.839 0.2625 0.0
H581 H 0.81732 0.64196 0.27257 0.0
H582 H 0.86276 0.68645 0.26255 0.0
C583 C 0.88621 0.86679 0.2519 0.0
C584 C 0.84724 0.79315 0.27265 0.0
H585 H 0.8854 0.74687 0.34751 0.0
C586 C 0.81609 0.77516 0.2424 0.0
C587 C 0.87441 0.78272 0.3107 0.0
C588 C 0.90769 0.80138 0.34413 0.0
C589 C 0.80815 0.74728 0.24962 0.0
C590 C 0.83287 0.737 0.28812 0.0
C591 C 0.86695 0.75473 0.31797 0.0
C592 C 0.81531 0.70925 0.29898 0.0
C593 C 0.76944 0.72951 0.21661 0.0
C594 C 0.77606 0.70709 0.32422 0.0
C595 C 0.75049 0.6818 0.33021 0.0
C596 C 0.7638 0.65795 0.31129 0.0
C597 C 0.80635 0.65981 0.28786 0.0
C598 C 0.83193 0.68529 0.2818 0.0
H599 H 0.74572 0.74168 0.19025 0.0
H600 H 0.80082 0.71434 0.20784 0.0
H601 H 0.73272 0.71804 0.22637 0.0
H602 H 0.76263 0.72526 0.33785 0.0
H603 H 0.71846 0.6811 0.34875 0.0
H604 H 0.2037 0.63411 0.81248 0.0
H605 H 0.14941 0.67682 0.82186 0.0
H606 H 0.20346 0.71328 0.72477 0.0
H607 H 0.25796 0.67117 0.71571 0.0
H608 H 0.21805 0.72875 0.83776 0.0
H609 H 0.01427 0.73475 0.70579 0.0
H610 H 0.05196 0.70269 0.72413 0.0
H611 H 0.08598 0.72462 0.69441 0.0
C612 C 0.20234 0.65103 0.79254 0.0
C613 C 0.23477 0.64939 0.76327 0.0
C614 C 0.17162 0.67539 0.79801 0.0
C615 C 0.17174 0.69807 0.77368 0.0
C616 C 0.20174 0.69589 0.74341 0.0
H617 H 0.17975 0.85999 0.73213 0.0
H618 H 0.16344 0.81084 0.73479 0.0
C619 C 0.23317 0.67187 0.73839 0.0
C620 C 0.14786 0.72525 0.78208 0.0
H621 H 0.0577 0.7782 0.73497 0.0
C622 C 0.18149 0.73942 0.81603 0.0
C623 C 0.10008 0.73901 0.7537 0.0
C624 C 0.06053 0.72439 0.71762 0.0
C625 C 0.17318 0.76776 0.82035 0.0
C626 C 0.12925 0.78205 0.79018 0.0
C627 C 0.09148 0.76727 0.75804 0.0
C628 C 0.13104 0.81241 0.78743 0.0
C629 C 0.21551 0.7826 0.85532 0.0
C630 C 0.11668 0.82988 0.81567 0.0
C631 C 0.12621 0.85834 0.81427 0.0
C632 C 0.15039 0.86956 0.78465 0.0
C633 C 0.16177 0.85201 0.75559 0.0
C634 C 0.15208 0.82386 0.75691 0.0
H635 H 0.25143 0.76883 0.87406 0.0
H636 H 0.24042 0.79982 0.84538 0.0
H637 H 0.18634 0.79135 0.87363 0.0
H638 H 0.09971 0.82147 0.83925 0.0
H639 H 0.11734 0.87128 0.83722 0.0
loop_
_geom_bond_atom_site_label_1
_geom_bond_atom_site_label_2
_geom_bond_distance
_geom_bond_site_symmetry_2
_ccdc_geom_bond_type
Zn0 N4 2.020 . S
Zn0 O8 2.019 . S
Zn0 N10 2.119 . S
Zn0 O18 1.975 . S
C1 N2 1.334 . S
C1 N5 1.336 . S
N2 C1 1.334 . S
N2 C3 1.334 1_565 S
C3 N2 1.334 1_545 S
C3 N4 1.336 . S
N4 Zn0 2.020 . S
N4 C3 1.336 . S
N4 N5 1.354 1_545 S
N5 C1 1.336 . S
N5 N4 1.354 1_565 S
N5 Zn9 2.020 . S
C6 O7 1.244 1_665 S
C6 O30 1.257 1_655 S
O7 C6 1.244 1_445 S
O8 Zn0 2.019 . S
O8 C28 1.257 . S
Zn9 N5 2.020 . S
Zn9 O16 1.975 . S
Zn9 N25 2.119 . S
Zn9 O30 2.019 . S
N10 Zn0 2.119 . S
N10 C12 1.334 . S
N10 C13 1.328 . S
C11 C12 1.391 . S
C11 N14 1.329 . S
C11 H32 0.930 . S
C12 N10 1.334 . S
C12 C11 1.391 . S
C12 H19 0.930 . S
C13 N10 1.328 . S
C13 C15 1.392 . S
C13 H20 0.930 . S
N14 C11 1.329 . S
N14 C15 1.331 . S
C15 C13 1.392 . S
C15 N14 1.331 . S
O16 Zn9 1.975 . S
O16 C17 1.250 1_565 S
C17 O16 1.250 1_545 S
C17 O18 1.254 . S
O18 Zn0 1.975 . S
O18 C17 1.254 . S
H19 C12 0.930 . S
H20 C13 0.930 . S
C21 C22 1.392 . S
C21 N25 1.328 . S
C21 H27 0.930 . S
C22 C21 1.392 . S
C22 N26 1.331 . S
C23 C24 1.391 . S
C23 N26 1.329 . S
C23 H33 0.930 . S
C24 C23 1.391 . S
C24 N25 1.334 . S
C24 H31 0.930 . S
N25 Zn9 2.119 . S
N25 C21 1.328 . S
N25 C24 1.334 . S
N26 C22 1.331 . S
N26 C23 1.329 . S
H27 C21 0.930 . S
C28 O8 1.257 . S
C28 O29 1.244 1_545 S
O29 C28 1.244 1_565 S
O30 C6 1.257 1_455 S
O30 Zn9 2.019 . S
H31 C24 0.930 . S
H32 C11 0.930 . S
H33 C23 0.930 . S
Zn34 N38 2.020 . S
Zn34 O42 2.019 . S
Zn34 N44 2.119 . S
Zn34 O52 1.975 . S
C35 N36 1.334 . S
C35 N39 1.336 . S
N36 C35 1.334 . S
N36 C37 1.334 1_565 S
C37 N36 1.334 1_545 S
C37 N38 1.336 . S
N38 Zn34 2.020 . S
N38 C37 1.336 . S
N38 N39 1.354 1_545 S
N39 C35 1.336 . S
N39 N38 1.354 1_565 S
N39 Zn43 2.020 . S
C40 O41 1.244 1_465 S
C40 O64 1.257 1_455 S
O41 C40 1.244 1_645 S
O42 Zn34 2.019 . S
O42 C62 1.257 . S
Zn43 N39 2.020 . S
Zn43 O50 1.975 . S
Zn43 N59 2.119 . S
Zn43 O64 2.019 . S
N44 Zn34 2.119 . S
N44 C46 1.334 . S
N44 C47 1.328 . S
C45 C46 1.391 . S
C45 N48 1.329 . S
C45 H66 0.930 . S
C46 N44 1.334 . S
C46 C45 1.391 . S
C46 H53 0.930 . S
C47 N44 1.328 . S
C47 C49 1.392 . S
C47 H54 0.930 . S
N48 C45 1.329 . S
N48 C49 1.331 . S
C49 C47 1.392 . S
C49 N48 1.331 . S
O50 Zn43 1.975 . S
O50 C51 1.250 1_565 S
C51 O50 1.250 1_545 S
C51 O52 1.254 . S
O52 Zn34 1.975 . S
O52 C51 1.254 . S
H53 C46 0.930 . S
H54 C47 0.930 . S
C55 C56 1.392 . S
C55 N59 1.328 . S
C55 H61 0.930 . S
C56 C55 1.392 . S
C56 N60 1.331 . S
C57 C58 1.391 . S
C57 N60 1.329 . S
C57 H67 0.930 . S
C58 C57 1.391 . S
C58 N59 1.334 . S
C58 H65 0.930 . S
N59 Zn43 2.119 . S
N59 C55 1.328 . S
N59 C58 1.334 . S
N60 C56 1.331 . S
N60 C57 1.329 . S
H61 C55 0.930 . S
C62 O42 1.257 . S
C62 O63 1.244 1_545 S
O63 C62 1.244 1_565 S
O64 C40 1.257 1_655 S
O64 Zn43 2.019 . S
H65 C58 0.930 . S
H66 C45 0.930 . S
H67 C57 0.930 . S
Zn68 N72 2.020 . S
Zn68 O76 2.019 . S
Zn68 N78 2.119 . S
Zn68 O86 1.975 . S
C69 N70 1.334 . S
C69 N73 1.336 . S
N70 C69 1.334 . S
N70 C71 1.334 . S
C71 N70 1.334 . S
C71 N72 1.336 . S
N72 Zn68 2.020 . S
N72 C71 1.336 . S
N72 N73 1.354 . S
N73 C69 1.336 . S
N73 N72 1.354 . S
N73 Zn77 2.020 . S
C74 O75 1.244 . S
C74 O98 1.257 . S
O75 C74 1.244 . S
O76 Zn68 2.019 . S
O76 C96 1.257 . S
Zn77 N73 2.020 . S
Zn77 O84 1.975 . S
Zn77 N93 2.119 . S
Zn77 O98 2.019 . S
N78 Zn68 2.119 . S
N78 C80 1.334 . S
N78 C81 1.328 . S
C79 C80 1.391 . S
C79 N82 1.329 . S
C79 H100 0.930 . S
C80 N78 1.334 . S
C80 C79 1.391 . S
C80 H87 0.930 . S
C81 N78 1.328 . S
C81 C83 1.392 . S
C81 H88 0.930 . S
N82 C79 1.329 . S
N82 C83 1.331 . S
C83 C81 1.392 . S
C83 N82 1.331 . S
O84 Zn77 1.975 . S
O84 C85 1.252 . S
C85 O84 1.252 . S
C85 O86 1.252 . S
O86 Zn68 1.975 . S
O86 C85 1.252 . S
H87 C80 0.930 . S
H88 C81 0.930 . S
C89 C90 1.392 . S
C89 N93 1.328 . S
C89 H95 0.930 . S
C90 C89 1.392 . S
C90 N94 1.331 . S
C91 C92 1.391 . S
C91 N94 1.329 . S
C91 H101 0.930 . S
C92 C91 1.391 . S
C92 N93 1.334 . S
C92 H99 0.930 . S
N93 Zn77 2.119 . S
N93 C89 1.328 . S
N93 C92 1.334 . S
N94 C90 1.331 . S
N94 C91 1.329 . S
H95 C89 0.930 . S
C96 O76 1.257 . S
C96 O97 1.244 . S
O97 C96 1.244 . S
O98 C74 1.257 . S
O98 Zn77 2.019 . S
H99 C92 0.930 . S
H100 C79 0.930 . S
H101 C91 0.930 . S
Zn102 N106 2.020 . S
Zn102 O110 2.019 . S
Zn102 N112 2.119 . S
Zn102 O120 1.975 . S
C103 N104 1.334 . S
C103 N107 1.336 . S
N104 C103 1.334 . S
N104 C105 1.334 . S
C105 N104 1.334 . S
C105 N106 1.336 . S
N106 Zn102 2.020 . S
N106 C105 1.336 . S
N106 N107 1.354 . S
N107 C103 1.336 . S
N107 N106 1.354 . S
N107 Zn111 2.020 . S
C108 O109 1.244 . S
C108 O132 1.257 . S
O109 C108 1.244 . S
O110 Zn102 2.019 . S
O110 C130 1.257 . S
Zn111 N107 2.020 . S
Zn111 O118 1.975 . S
Zn111 N127 2.119 . S
Zn111 O132 2.019 . S
N112 Zn102 2.119 . S
N112 C114 1.334 . S
N112 C115 1.328 . S
C113 C114 1.391 . S
C113 N116 1.329 . S
C113 H134 0.930 . S
C114 N112 1.334 . S
C114 C113 1.391 . S
C114 H121 0.930 . S
C115 N112 1.328 . S
C115 C117 1.392 . S
C115 H122 0.930 . S
N116 C113 1.329 . S
N116 C117 1.331 . S
C117 C115 1.392 . S
C117 N116 1.331 . S
O118 Zn111 1.975 . S
O118 C119 1.252 . S
C119 O118 1.252 . S
C119 O120 1.252 . S
O120 Zn102 1.975 . S
O120 C119 1.252 . S
H121 C114 0.930 . S
H122 C115 0.930 . S
C123 C124 1.392 . S
C123 N127 1.328 . S
C123 H129 0.930 . S
C124 C123 1.392 . S
C124 N128 1.331 . S
C125 C126 1.391 . S
C125 N128 1.329 . S
C125 H135 0.930 . S
C126 C125 1.391 . S
C126 N127 1.334 . S
C126 H133 0.930 . S
N127 Zn111 2.119 . S
N127 C123 1.328 . S
N127 C126 1.334 . S
N128 C124 1.331 . S
N128 C125 1.329 . S
H129 C123 0.930 . S
C130 O110 1.257 . S
C130 O131 1.244 . S
O131 C130 1.244 . S
O132 C108 1.257 . S
O132 Zn111 2.019 . S
H133 C126 0.930 . S
H134 C113 0.930 . S
H135 C125 0.930 . S
H136 C144 0.945 . S
H137 C146 0.930 . S
H138 C148 0.930 . S
H139 C151 0.929 . S
H140 C154 0.930 . S
H141 C156 0.960 . S
H142 C156 0.960 . S
H143 C156 0.960 . S
C144 H136 0.945 . S
C144 C145 1.358 1_545 S
C144 C146 1.389 . S
C145 C144 1.358 1_565 S
C145 C151 1.390 . S
C146 H137 0.930 . S
C146 C144 1.389 . S
C146 C147 1.372 1_545 S
C147 C146 1.372 1_565 S
C147 C148 1.400 . S
C147 C152 1.490 . S
C148 H138 0.930 . S
C148 C147 1.400 . S
C148 C151 1.386 . S
H149 C165 0.930 . S
H150 C166 0.931 . S
C151 H139 0.929 . S
C151 C145 1.390 . S
C151 C148 1.386 . S
C152 C147 1.490 . S
C152 C154 1.395 . S
C152 C155 1.403 1_565 S
H153 C159 0.930 . S
C154 H140 0.930 . S
C154 C152 1.395 . S
C154 C157 1.403 . S
C155 C152 1.403 1_545 S
C155 C156 1.524 . S
C155 C159 1.400 . S
C156 H141 0.960 . S
C156 H142 0.960 . S
C156 H143 0.960 . S
C156 C155 1.524 . S
C157 C154 1.403 . S
C157 C158 1.392 1_565 S
C157 C161 1.495 . S
C158 C157 1.392 1_545 S
C158 C159 1.385 . S
C158 C160 1.478 . S
C159 H153 0.930 . S
C159 C155 1.400 . S
C159 C158 1.385 . S
C160 C158 1.478 . S
C160 C162 1.381 . S
C160 C166 1.383 1_545 S
C161 C157 1.495 . S
C161 H167 0.959 . S
C161 H168 0.961 . S
C161 H169 0.960 . S
C162 C160 1.381 . S
C162 C163 1.394 . S
C162 H170 0.930 . S
C163 C162 1.394 . S
C163 C164 1.383 . S
C163 H171 0.929 . S
C164 C163 1.383 . S
C164 C165 1.377 1_545 S
C165 H149 0.930 . S
C165 C164 1.377 1_565 S
C165 C166 1.379 . S
C166 H150 0.931 . S
C166 C160 1.383 1_565 S
C166 C165 1.379 . S
H167 C161 0.959 . S
H168 C161 0.961 . S
H169 C161 0.960 . S
H170 C162 0.930 . S
H171 C163 0.929 . S
H172 C180 0.929 . S
H173 C182 0.930 . S
H174 C184 0.930 . S
H175 C187 0.929 . S
H176 C190 0.930 . S
H177 C192 0.960 . S
H178 C192 0.960 . S
H179 C192 0.960 . S
C180 H172 0.929 . S
C180 C181 1.377 . S
C180 C182 1.384 . S
C181 C180 1.377 . S
C181 C187 1.390 1_545 S
C182 H173 0.930 . S
C182 C180 1.384 . S
C182 C183 1.372 . S
C183 C182 1.372 . S
C183 C184 1.400 1_545 S
C183 C188 1.490 . S
C184 H174 0.930 . S
C184 C183 1.400 1_565 S
C184 C187 1.386 . S
H185 C201 0.930 . S
H186 C202 0.931 . S
C187 H175 0.929 . S
C187 C181 1.390 1_565 S
C187 C184 1.386 . S
C188 C183 1.490 . S
C188 C190 1.395 . S
C188 C191 1.403 1_545 S
H189 C195 0.930 . S
C190 H176 0.930 . S
C190 C188 1.395 . S
C190 C193 1.403 . S
C191 C188 1.403 1_565 S
C191 C192 1.524 . S
C191 C195 1.400 . S
C192 H177 0.960 . S
C192 H178 0.960 . S
C192 H179 0.960 . S
C192 C191 1.524 . S
C193 C190 1.403 . S
C193 C194 1.392 . S
C193 C197 1.495 . S
C194 C193 1.392 . S
C194 C195 1.385 1_545 S
C194 C196 1.475 1_545 S
C195 H189 0.930 . S
C195 C191 1.400 . S
C195 C194 1.385 1_565 S
C196 C194 1.475 1_565 S
C196 C198 1.369 1_565 S
C196 C202 1.400 . S
C197 C193 1.495 . S
C197 H203 0.959 . S
C197 H204 0.961 . S
C197 H205 0.960 . S
C198 C196 1.369 1_545 S
C198 C199 1.394 . S
C198 H206 0.930 . S
C199 C198 1.394 . S
C199 C200 1.383 1_545 S
C199 H207 0.929 . S
C200 C199 1.383 1_565 S
C200 C201 1.377 . S
C201 H185 0.930 . S
C201 C200 1.377 . S
C201 C202 1.379 . S
C202 H186 0.931 . S
C202 C196 1.400 . S
C202 C201 1.379 . S
H203 C197 0.959 . S
H204 C197 0.961 . S
H205 C197 0.960 . S
H206 C198 0.930 . S
H207 C199 0.929 . S
H208 C216 0.929 . S
H209 C218 0.930 . S
H210 C220 0.930 . S
H211 C223 0.929 . S
H212 C226 0.930 . S
H213 C228 0.960 . S
H214 C228 0.960 . S
H215 C228 0.960 . S
C216 H208 0.929 . S
C216 C217 1.377 . S
C216 C218 1.384 . S
C217 C216 1.377 . S
C217 C223 1.390 . S
C218 H209 0.930 . S
C218 C216 1.384 . S
C218 C219 1.372 . S
C219 C218 1.372 . S
C219 C220 1.400 . S
C219 C224 1.490 . S
C220 H210 0.930 . S
C220 C219 1.400 . S
C220 C223 1.386 . S
H221 C237 0.930 . S
H222 C238 0.931 . S
C223 H211 0.929 . S
C223 C217 1.390 . S
C223 C220 1.386 . S
C224 C219 1.490 . S
C224 C226 1.395 . S
C224 C227 1.403 . S
H225 C231 0.930 . S
C226 H212 0.930 . S
C226 C224 1.395 . S
C226 C229 1.403 . S
C227 C224 1.403 . S
C227 C228 1.524 . S
C227 C231 1.400 . S
C228 H213 0.960 . S
C228 H214 0.960 . S
C228 H215 0.960 . S
C228 C227 1.524 . S
C229 C226 1.403 . S
C229 C230 1.392 . S
C229 C233 1.495 . S
C230 C229 1.392 . S
C230 C231 1.385 . S
C230 C232 1.478 . S
C231 H225 0.930 . S
C231 C227 1.400 . S
C231 C230 1.385 . S
C232 C230 1.478 . S
C232 C234 1.381 . S
C232 C238 1.383 . S
C233 C229 1.495 . S
C233 H239 0.959 . S
C233 H240 0.961 . S
C233 H241 0.960 . S
C234 C232 1.381 . S
C234 C235 1.394 1_455 S
C234 H242 0.930 . S
C235 C234 1.394 1_655 S
C235 C236 1.383 . S
C235 H243 0.929 . S
C236 C235 1.383 . S
C236 C237 1.377 . S
C237 H221 0.930 . S
C237 C236 1.377 . S
C237 C238 1.379 1_655 S
C238 H222 0.931 . S
C238 C232 1.383 . S
C238 C237 1.379 1_455 S
H239 C233 0.959 . S
H240 C233 0.961 . S
H241 C233 0.960 . S
H242 C234 0.930 . S
H243 C235 0.929 . S
H244 C252 0.929 . S
H245 C254 0.930 . S
H246 C256 0.930 . S
H247 C259 0.929 . S
H248 C262 0.930 . S
H249 C264 0.960 . S
H250 C264 0.960 . S
H251 C264 0.960 . S
C252 H244 0.929 . S
C252 C253 1.377 . S
C252 C254 1.384 . S
C253 C252 1.377 . S
C253 C259 1.390 . S
C254 H245 0.930 . S
C254 C252 1.384 . S
C254 C255 1.372 . S
C255 C254 1.372 . S
C255 C256 1.400 . S
C255 C260 1.490 . S
C256 H246 0.930 . S
C256 C255 1.400 . S
C256 C259 1.386 . S
H257 C273 0.930 . S
H258 C274 0.931 . S
C259 H247 0.929 . S
C259 C253 1.390 . S
C259 C256 1.386 . S
C260 C255 1.490 . S
C260 C262 1.395 . S
C260 C263 1.403 . S
H261 C267 0.930 . S
C262 H248 0.930 . S
C262 C260 1.395 . S
C262 C265 1.403 . S
C263 C260 1.403 . S
C263 C264 1.524 . S
C263 C267 1.400 . S
C264 H249 0.960 . S
C264 H250 0.960 . S
C264 H251 0.960 . S
C264 C263 1.524 . S
C265 C262 1.403 . S
C265 C266 1.392 . S
C265 C269 1.495 . S
C266 C265 1.392 . S
C266 C267 1.385 . S
C266 C268 1.478 . S
C267 H261 0.930 . S
C267 C263 1.400 . S
C267 C266 1.385 . S
C268 C266 1.478 . S
C268 C270 1.381 1_655 S
C268 C274 1.383 . S
C269 C265 1.495 . S
C269 H275 0.959 . S
C269 H276 0.961 . S
C269 H277 0.960 . S
C270 C268 1.381 1_455 S
C270 C271 1.394 . S
C270 H278 0.930 1_455 S
C271 C270 1.394 . S
C271 C272 1.383 . S
C271 H279 0.929 . S
C272 C271 1.383 . S
C272 C273 1.377 . S
C273 H257 0.930 . S
C273 C272 1.377 . S
C273 C274 1.379 1_455 S
C274 H258 0.931 . S
C274 C268 1.383 . S
C274 C273 1.379 1_655 S
H275 C269 0.959 . S
H276 C269 0.961 . S
H277 C269 0.960 . S
H278 C270 0.930 1_655 S
H279 C271 0.929 . S
H280 C288 0.929 . S
H281 C290 0.930 . S
H282 C292 0.930 . S
H283 C295 0.929 . S
H284 C298 0.930 . S
H285 C300 0.960 . S
H286 C300 0.960 . S
H287 C300 0.960 1_455 S
C288 H280 0.929 . S
C288 C289 1.390 . S
C288 C290 1.384 . S
C289 C288 1.390 . S
C289 C295 1.378 1_545 S
C290 H281 0.930 . S
C290 C288 1.384 . S
C290 C291 1.372 . S
C291 C290 1.372 . S
C291 C292 1.400 1_545 S
C291 C296 1.490 . S
C292 H282 0.930 . S
C292 C291 1.400 1_565 S
C292 C295 1.386 . S
H293 C309 0.930 . S
H294 C310 0.931 . S
C295 H283 0.929 . S
C295 C289 1.378 1_565 S
C295 C292 1.386 . S
C296 C291 1.490 . S
C296 C298 1.395 . S
C296 C299 1.403 1_445 S
H297 C303 0.930 . S
C298 H284 0.930 . S
C298 C296 1.395 . S
C298 C301 1.403 . S
C299 C296 1.403 1_665 S
C299 C300 1.524 . S
C299 C303 1.400 . S
C300 H285 0.960 . S
C300 H286 0.960 . S
C300 H287 0.960 1_655 S
C300 C299 1.524 . S
C301 C298 1.403 . S
C301 C302 1.392 1_455 S
C301 C305 1.495 . S
C302 C301 1.392 1_655 S
C302 C303 1.385 1_545 S
C302 C304 1.478 . S
C303 H297 0.930 . S
C303 C299 1.400 . S
C303 C302 1.385 1_565 S
C304 C302 1.478 . S
C304 C306 1.381 . S
C304 C310 1.383 1_545 S
C305 C301 1.495 . S
C305 H311 0.959 . S
C305 H312 0.961 . S
C305 H313 0.960 1_455 S
C306 C304 1.381 . S
C306 C307 1.394 . S
C306 H314 0.930 . S
C307 C306 1.394 . S
C307 C308 1.383 . S
C307 H315 0.929 . S
C308 C307 1.383 . S
C308 C309 1.377 1_545 S
C309 H293 0.930 . S
C309 C308 1.377 1_565 S
C309 C310 1.379 . S
C310 H294 0.931 . S
C310 C304 1.383 1_565 S
C310 C309 1.379 . S
H311 C305 0.959 . S
H312 C305 0.961 . S
H313 C305 0.960 1_655 S
H314 C306 0.930 . S
H315 C307 0.929 . S
H316 C324 0.929 . S
H317 C326 0.930 . S
H318 C328 0.930 . S
H319 C331 0.929 . S
H320 C334 0.930 . S
H321 C336 0.960 . S
H322 C336 0.960 . S
H323 C336 0.960 . S
C324 H316 0.929 . S
C324 C325 1.377 . S
C324 C326 1.384 . S
C325 C324 1.377 . S
C325 C331 1.390 . S
C326 H317 0.930 . S
C326 C324 1.384 . S
C326 C327 1.372 . S
C327 C326 1.372 . S
C327 C328 1.400 . S
C327 C332 1.490 . S
C328 H318 0.930 . S
C328 C327 1.400 . S
C328 C331 1.386 . S
H329 C345 0.930 . S
H330 C346 0.931 . S
C331 H319 0.929 . S
C331 C325 1.390 . S
C331 C328 1.386 . S
C332 C327 1.490 . S
C332 C334 1.395 . S
C332 C335 1.403 . S
H333 C339 0.930 . S
C334 H320 0.930 . S
C334 C332 1.395 . S
C334 C337 1.403 1_556 S
C335 C332 1.403 . S
C335 C336 1.524 . S
C335 C339 1.400 1_556 S
C336 H321 0.960 . S
C336 H322 0.960 . S
C336 H323 0.960 . S
C336 C335 1.524 . S
C337 C334 1.403 1_554 S
C337 C338 1.392 . S
C337 C341 1.495 . S
C338 C337 1.392 . S
C338 C339 1.385 . S
C338 C340 1.478 . S
C339 H333 0.930 . S
C339 C335 1.400 1_554 S
C339 C338 1.385 . S
C340 C338 1.478 . S
C340 C342 1.381 . S
C340 C346 1.383 . S
C341 C337 1.495 . S
C341 H347 0.959 . S
C341 H348 0.961 . S
C341 H349 0.960 . S
C342 C340 1.381 . S
C342 C343 1.394 . S
C342 H350 0.930 . S
C343 C342 1.394 . S
C343 C344 1.383 . S
C343 H351 0.929 . S
C344 C343 1.383 . S
C344 C345 1.377 . S
C345 H329 0.930 . S
C345 C344 1.377 . S
C345 C346 1.379 . S
C346 H330 0.931 . S
C346 C340 1.383 . S
C346 C345 1.379 . S
H347 C341 0.959 . S
H348 C341 0.961 . S
H349 C341 0.960 . S
H350 C342 0.930 . S
H351 C343 0.929 . S
H352 C360 0.929 1_565 S
H353 C362 0.930 1_565 S
H354 C364 0.930 . S
H355 C367 0.929 . S
H356 C370 0.930 . S
H357 C372 0.960 . S
H358 C372 0.960 1_556 S
H359 C372 0.960 1_546 S
C360 H352 0.929 1_545 S
C360 C361 1.377 . S
C360 C362 1.384 . S
C361 C360 1.377 . S
C361 C367 1.390 . S
C362 H353 0.930 1_545 S
C362 C360 1.384 . S
C362 C363 1.372 . S
C363 C362 1.372 . S
C363 C364 1.400 . S
C363 C368 1.490 . S
C364 H354 0.930 . S
C364 C363 1.400 . S
C364 C367 1.386 . S
H365 C381 0.930 . S
H366 C382 0.931 . S
C367 H355 0.929 . S
C367 C361 1.390 . S
C367 C364 1.386 . S
C368 C363 1.490 . S
C368 C370 1.395 . S
C368 C371 1.412 . S
H369 C375 0.930 . S
C370 H356 0.930 . S
C370 C368 1.395 . S
C370 C373 1.403 . S
C371 C368 1.412 . S
C371 C372 1.521 1_546 S
C371 C375 1.394 1_556 S
C372 H357 0.960 . S
C372 H358 0.960 1_554 S
C372 H359 0.960 1_564 S
C372 C371 1.521 1_564 S
C373 C370 1.403 . S
C373 C374 1.392 1_556 S
C373 C377 1.495 . S
C374 C373 1.392 1_554 S
C374 C375 1.385 . S
C374 C376 1.478 . S
C375 H369 0.930 . S
C375 C371 1.394 1_554 S
C375 C374 1.385 . S
C376 C374 1.478 . S
C376 C378 1.381 . S
C376 C382 1.383 . S
C377 C373 1.495 . S
C377 H383 0.959 . S
C377 H384 0.961 1_556 S
C377 H385 0.958 1_556 S
C378 C376 1.381 . S
C378 C379 1.394 . S
C378 H386 0.930 1_545 S
C379 C378 1.394 . S
C379 C380 1.383 . S
C379 H387 0.929 1_545 S
C380 C379 1.383 . S
C380 C381 1.377 . S
C381 H365 0.930 . S
C381 C380 1.377 . S
C381 C382 1.379 . S
C382 H366 0.931 . S
C382 C376 1.383 . S
C382 C381 1.379 . S
H383 C377 0.959 . S
H384 C377 0.961 1_554 S
H385 C377 0.958 1_554 S
H386 C378 0.930 1_565 S
H387 C379 0.929 1_565 S
H388 C396 0.929 . S
H389 C398 0.930 . S
H390 C400 0.930 . S
H391 C403 0.929 . S
H392 C406 0.930 . S
H393 C408 0.960 . S
H394 C408 0.960 . S
H395 C408 0.960 . S
C396 H388 0.929 . S
C396 C397 1.377 . S
C396 C398 1.384 . S
C397 C396 1.377 . S
C397 C403 1.390 . S
C398 H389 0.930 . S
C398 C396 1.384 . S
C398 C399 1.372 . S
C399 C398 1.372 . S
C399 C400 1.400 . S
C399 C404 1.490 . S
C400 H390 0.930 . S
C400 C399 1.400 . S
C400 C403 1.386 . S
H401 C417 0.930 . S
H402 C418 0.931 . S
C403 H391 0.929 . S
C403 C397 1.390 . S
C403 C400 1.386 . S
C404 C399 1.490 . S
C404 C406 1.395 . S
C404 C407 1.403 1_455 S
H405 C411 0.930 . S
C406 H392 0.930 . S
C406 C404 1.395 . S
C406 C409 1.403 . S
C407 C404 1.403 1_655 S
C407 C408 1.524 . S
C407 C411 1.400 . S
C408 H393 0.960 . S
C408 H394 0.960 . S
C408 H395 0.960 . S
C408 C407 1.524 . S
C409 C406 1.403 . S
C409 C410 1.392 1_455 S
C409 C413 1.495 . S
C410 C409 1.392 1_655 S
C410 C411 1.385 . S
C410 C412 1.478 . S
C411 H405 0.930 . S
C411 C407 1.400 . S
C411 C410 1.385 . S
C412 C410 1.478 . S
C412 C414 1.381 . S
C412 C418 1.383 . S
C413 C409 1.495 . S
C413 H419 0.959 . S
C413 H420 0.961 . S
C413 H421 0.960 . S
C414 C412 1.381 . S
C414 C415 1.394 . S
C414 H422 0.930 . S
C415 C414 1.394 . S
C415 C416 1.383 . S
C415 H423 0.929 . S
C416 C415 1.383 . S
C416 C417 1.377 . S
C417 H401 0.930 . S
C417 C416 1.377 . S
C417 C418 1.379 . S
C418 H402 0.931 . S
C418 C412 1.383 . S
C418 C417 1.379 . S
H419 C413 0.959 . S
H420 C413 0.961 . S
H421 C413 0.960 . S
H422 C414 0.930 . S
H423 C415 0.929 . S
H424 C432 0.929 . S
H425 C434 0.930 . S
H426 C436 0.930 . S
H427 C439 0.929 . S
H428 C442 0.930 1_545 S
H429 C444 0.960 . S
H430 C444 0.960 . S
H431 C444 0.960 1_554 S
C432 H424 0.929 . S
C432 C433 1.377 1_545 S
C432 C434 1.384 . S
C433 C432 1.377 1_565 S
C433 C439 1.390 . S
C434 H425 0.930 . S
C434 C432 1.384 . S
C434 C435 1.372 1_545 S
C435 C434 1.372 1_565 S
C435 C436 1.400 . S
C435 C440 1.490 . S
C436 H426 0.930 . S
C436 C435 1.400 . S
C436 C439 1.386 . S
H437 C453 0.930 . S
H438 C454 0.931 . S
C439 H427 0.929 . S
C439 C433 1.390 . S
C439 C436 1.386 . S
C440 C435 1.490 . S
C440 C442 1.395 1_655 S
C440 C443 1.403 1_554 S
H441 C447 0.930 . S
C442 H428 0.930 1_565 S
C442 C440 1.395 1_455 S
C442 C445 1.403 . S
C443 C440 1.403 1_556 S
C443 C444 1.524 . S
C443 C447 1.400 . S
C444 H429 0.960 . S
C444 H430 0.960 . S
C444 H431 0.960 1_556 S
C444 C443 1.524 . S
C445 C442 1.403 . S
C445 C446 1.392 1_554 S
C445 C449 1.495 1_565 S
C446 C445 1.392 1_556 S
C446 C447 1.385 1_455 S
C446 C448 1.478 . S
C447 H441 0.930 . S
C447 C443 1.400 . S
C447 C446 1.385 1_655 S
C448 C446 1.478 . S
C448 C450 1.381 1_565 S
C448 C454 1.383 . S
C449 C445 1.495 1_545 S
C449 H455 0.959 . S
C449 H456 0.961 1_545 S
C449 H457 0.962 1_554 S
C450 C448 1.381 1_545 S
C450 C451 1.394 . S
C450 H458 0.930 . S
C451 C450 1.394 . S
C451 C452 1.383 1_545 S
C451 H459 0.929 . S
C452 C451 1.383 1_565 S
C452 C453 1.377 . S
C453 H437 0.930 . S
C453 C452 1.377 . S
C453 C454 1.379 . S
C454 H438 0.931 . S
C454 C448 1.383 . S
C454 C453 1.379 . S
H455 C449 0.959 . S
H456 C449 0.961 1_565 S
H457 C449 0.962 1_556 S
H458 C450 0.930 . S
H459 C451 0.929 . S
H460 C468 0.929 . S
H461 C470 0.930 . S
H462 C472 0.930 . S
H463 C475 0.929 . S
H464 C478 0.930 . S
H465 C480 0.960 . S
H466 C480 0.960 . S
H467 C480 0.960 . S
C468 H460 0.929 . S
C468 C469 1.377 . S
C468 C470 1.384 . S
C469 C468 1.377 . S
C469 C475 1.390 . S
C470 H461 0.930 . S
C470 C468 1.384 . S
C470 C471 1.372 . S
C471 C470 1.372 . S
C471 C472 1.400 . S
C471 C476 1.490 . S
C472 H462 0.930 . S
C472 C471 1.400 . S
C472 C475 1.386 . S
H473 C489 0.930 . S
H474 C490 0.931 . S
C475 H463 0.929 . S
C475 C469 1.390 . S
C475 C472 1.386 . S
C476 C471 1.490 . S
C476 C478 1.395 . S
C476 C479 1.403 . S
H477 C483 0.930 . S
C478 H464 0.930 . S
C478 C476 1.395 . S
C478 C481 1.403 . S
C479 C476 1.403 . S
C479 C480 1.524 . S
C479 C483 1.400 . S
C480 H465 0.960 . S
C480 H466 0.960 . S
C480 H467 0.960 . S
C480 C479 1.524 . S
C481 C478 1.403 . S
C481 C482 1.392 . S
C481 C485 1.495 . S
C482 C481 1.392 . S
C482 C483 1.385 . S
C482 C484 1.478 . S
C483 H477 0.930 . S
C483 C479 1.400 . S
C483 C482 1.385 . S
C484 C482 1.478 . S
C484 C486 1.381 . S
C484 C490 1.383 . S
C485 C481 1.495 . S
C485 H491 0.959 . S
C485 H492 0.961 . S
C485 H493 0.960 . S
C486 C484 1.381 . S
C486 C487 1.394 . S
C486 H494 0.930 . S
C487 C486 1.394 . S
C487 C488 1.383 . S
C487 H495 0.929 . S
C488 C487 1.383 . S
C488 C489 1.377 . S
C489 H473 0.930 . S
C489 C488 1.377 . S
C489 C490 1.379 . S
C490 H474 0.931 . S
C490 C484 1.383 . S
C490 C489 1.379 . S
H491 C485 0.959 . S
H492 C485 0.961 . S
H493 C485 0.960 . S
H494 C486 0.930 . S
H495 C487 0.929 . S
H496 C504 0.929 . S
H497 C506 0.930 . S
H498 C508 0.930 . S
H499 C511 0.929 . S
H500 C514 0.930 . S
H501 C516 0.960 . S
H502 C516 0.960 . S
H503 C516 0.960 . S
C504 H496 0.929 . S
C504 C505 1.377 . S
C504 C506 1.384 . S
C505 C504 1.377 . S
C505 C511 1.390 . S
C506 H497 0.930 . S
C506 C504 1.384 . S
C506 C507 1.372 . S
C507 C506 1.372 . S
C507 C508 1.400 . S
C507 C512 1.490 . S
C508 H498 0.930 . S
C508 C507 1.400 . S
C508 C511 1.386 . S
H509 C525 0.930 . S
H510 C526 0.931 . S
C511 H499 0.929 . S
C511 C505 1.390 . S
C511 C508 1.386 . S
C512 C507 1.490 . S
C512 C514 1.395 . S
C512 C515 1.403 . S
H513 C519 0.930 . S
C514 H500 0.930 . S
C514 C512 1.395 . S
C514 C517 1.403 . S
C515 C512 1.403 . S
C515 C516 1.524 . S
C515 C519 1.400 . S
C516 H501 0.960 . S
C516 H502 0.960 . S
C516 H503 0.960 . S
C516 C515 1.524 . S
C517 C514 1.403 . S
C517 C518 1.392 . S
C517 C521 1.495 . S
C518 C517 1.392 . S
C518 C519 1.385 . S
C518 C520 1.478 . S
C519 H513 0.930 . S
C519 C515 1.400 . S
C519 C518 1.385 . S
C520 C518 1.478 . S
C520 C522 1.381 . S
C520 C526 1.383 . S
C521 C517 1.495 . S
C521 H527 0.959 . S
C521 H528 0.961 . S
C521 H529 0.960 . S
C522 C520 1.381 . S
C522 C523 1.394 . S
C522 H530 0.930 . S
C523 C522 1.394 . S
C523 C524 1.383 . S
C523 H531 0.929 . S
C524 C523 1.383 . S
C524 C525 1.377 . S
C525 H509 0.930 . S
C525 C524 1.377 . S
C525 C526 1.379 . S
C526 H510 0.931 . S
C526 C520 1.383 . S
C526 C525 1.379 . S
H527 C521 0.959 . S
H528 C521 0.961 . S
H529 C521 0.960 . S
H530 C522 0.930 . S
H531 C523 0.929 . S
H532 C540 0.929 . S
H533 C542 0.930 . S
H534 C544 0.930 . S
H535 C547 0.929 . S
H536 C550 0.930 . S
H537 C552 0.960 . S
H538 C552 0.960 . S
H539 C552 0.960 . S
C540 H532 0.929 . S
C540 C541 1.377 . S
C540 C542 1.384 . S
C541 C540 1.377 . S
C541 C547 1.390 . S
C542 H533 0.930 . S
C542 C540 1.384 . S
C542 C543 1.372 . S
C543 C542 1.372 . S
C543 C544 1.400 . S
C543 C548 1.490 . S
C544 H534 0.930 . S
C544 C543 1.400 . S
C544 C547 1.386 . S
H545 C561 0.930 . S
H546 C562 0.931 . S
C547 H535 0.929 . S
C547 C541 1.390 . S
C547 C544 1.386 . S
C548 C543 1.490 . S
C548 C550 1.395 . S
C548 C551 1.403 . S
H549 C555 0.930 . S
C550 H536 0.930 . S
C550 C548 1.395 . S
C550 C553 1.403 . S
C551 C548 1.403 . S
C551 C552 1.524 . S
C551 C555 1.400 . S
C552 H537 0.960 . S
C552 H538 0.960 . S
C552 H539 0.960 . S
C552 C551 1.524 . S
C553 C550 1.403 . S
C553 C554 1.392 . S
C553 C557 1.495 . S
C554 C553 1.392 . S
C554 C555 1.385 . S
C554 C556 1.478 . S
C555 H549 0.930 . S
C555 C551 1.400 . S
C555 C554 1.385 . S
C556 C554 1.478 . S
C556 C558 1.381 . S
C556 C562 1.383 . S
C557 C553 1.495 . S
C557 H563 0.959 . S
C557 H564 0.961 . S
C557 H565 0.960 . S
C558 C556 1.381 . S
C558 C559 1.394 . S
C558 H566 0.930 . S
C559 C558 1.394 . S
C559 C560 1.383 . S
C559 H567 0.929 . S
C560 C559 1.383 . S
C560 C561 1.377 . S
C561 H545 0.930 . S
C561 C560 1.377 . S
C561 C562 1.379 . S
C562 H546 0.931 . S
C562 C556 1.383 . S
C562 C561 1.379 . S
H563 C557 0.959 . S
H564 C557 0.961 . S
H565 C557 0.960 . S
H566 C558 0.930 . S
H567 C559 0.929 . S
H568 C576 0.929 . S
H569 C578 0.930 . S
H570 C580 0.930 . S
H571 C583 0.929 . S
H572 C586 0.930 . S
H573 C588 0.960 . S
H574 C588 0.960 . S
H575 C588 0.960 . S
C576 H568 0.929 . S
C576 C577 1.377 . S
C576 C578 1.384 . S
C577 C576 1.377 . S
C577 C583 1.390 . S
C578 H569 0.930 . S
C578 C576 1.384 . S
C578 C579 1.372 . S
C579 C578 1.372 . S
C579 C580 1.400 . S
C579 C584 1.490 . S
C580 H570 0.930 . S
C580 C579 1.400 . S
C580 C583 1.386 . S
H581 C597 0.930 . S
H582 C598 0.931 . S
C583 H571 0.929 . S
C583 C577 1.390 . S
C583 C580 1.386 . S
C584 C579 1.490 . S
C584 C586 1.395 . S
C584 C587 1.403 . S
H585 C591 0.930 . S
C586 H572 0.930 . S
C586 C584 1.395 . S
C586 C589 1.403 . S
C587 C584 1.403 . S
C587 C588 1.524 . S
C587 C591 1.400 . S
C588 H573 0.960 . S
C588 H574 0.960 . S
C588 H575 0.960 . S
C588 C587 1.524 . S
C589 C586 1.403 . S
C589 C590 1.392 . S
C589 C593 1.495 . S
C590 C589 1.392 . S
C590 C591 1.385 . S
C590 C592 1.478 . S
C591 H585 0.930 . S
C591 C587 1.400 . S
C591 C590 1.385 . S
C592 C590 1.478 . S
C592 C594 1.381 . S
C592 C598 1.383 . S
C593 C589 1.495 . S
C593 H599 0.959 . S
C593 H600 0.961 . S
C593 H601 0.960 . S
C594 C592 1.381 . S
C594 C595 1.394 . S
C594 H602 0.930 . S
C595 C594 1.394 . S
C595 C596 1.383 . S
C595 H603 0.929 . S
C596 C595 1.383 . S
C596 C597 1.377 . S
C597 H581 0.930 . S
C597 C596 1.377 . S
C597 C598 1.379 . S
C598 H582 0.931 . S
C598 C592 1.383 . S
C598 C597 1.379 . S
H599 C593 0.959 . S
H600 C593 0.961 . S
H601 C593 0.960 . S
H602 C594 0.930 . S
H603 C595 0.929 . S
H604 C612 0.929 . S
H605 C614 0.930 . S
H606 C616 0.930 . S
H607 C619 0.929 . S
H608 C622 0.930 . S
H609 C624 0.960 . S
H610 C624 0.960 . S
H611 C624 0.960 . S
C612 H604 0.929 . S
C612 C613 1.377 . S
C612 C614 1.384 . S
C613 C612 1.377 . S
C613 C619 1.390 . S
C614 H605 0.930 . S
C614 C612 1.384 . S
C614 C615 1.372 . S
C615 C614 1.372 . S
C615 C616 1.400 . S
C615 C620 1.490 . S
C616 H606 0.930 . S
C616 C615 1.400 . S
C616 C619 1.386 . S
H617 C633 0.930 . S
H618 C634 0.931 . S
C619 H607 0.929 . S
C619 C613 1.390 . S
C619 C616 1.386 . S
C620 C615 1.490 . S
C620 C622 1.395 . S
C620 C623 1.403 . S
H621 C627 0.930 . S
C622 H608 0.930 . S
C622 C620 1.395 . S
C622 C625 1.403 . S
C623 C620 1.403 . S
C623 C624 1.524 . S
C623 C627 1.400 . S
C624 H609 0.960 . S
C624 H610 0.960 . S
C624 H611 0.960 . S
C624 C623 1.524 . S
C625 C622 1.403 . S
C625 C626 1.392 . S
C625 C629 1.495 . S
C626 C625 1.392 . S
C626 C627 1.385 . S
C626 C628 1.478 . S
C627 H621 0.930 . S
C627 C623 1.400 . S
C627 C626 1.385 . S
C628 C626 1.478 . S
C628 C630 1.381 . S
C628 C634 1.383 . S
C629 C625 1.495 . S
C629 H635 0.959 . S
C629 H636 0.961 . S
C629 H637 0.960 . S
C630 C628 1.381 . S
C630 C631 1.394 . S
C630 H638 0.930 . S
C631 C630 1.394 . S
C631 C632 1.383 . S
C631 H639 0.929 . S
C632 C631 1.383 . S
C632 C633 1.377 . S
C633 H617 0.930 . S
C633 C632 1.377 . S
C633 C634 1.379 . S
C634 H618 0.931 . S
C634 C628 1.383 . S
C634 C633 1.379 . S
H635 C629 0.959 . S
H636 C629 0.961 . S
H637 C629 0.960 . S
H638 C630 0.930 . S
H639 C631 0.929 . S
C145 C6 1.035 . S
C164 C28 1.034 . S
C181 C62 1.038 . S
C200 C40 1.022 . S
C217 C74 1.034 . S
C236 C96 1.045 . S
C253 C108 1.036 . S
C272 C130 1.028 . S
C289 C17 1.971 . S
C308 C51 1.966 . S
C325 C119 1.971 . S
C344 C85 1.972 . S
C361 C3 1.101 . S
C380 C37 1.090 . S
C397 C105 1.118 . S
C416 C71 1.141 . S
C433 C35 1.958 . S
C452 C1 1.936 . S
C469 C103 1.963 . S
C488 C69 1.971 . S
C505 C15 1.849 . S
C524 C124 1.662 . S
C541 C90 1.693 . S
C560 C49 1.860 . S
C577 C56 1.696 . S
C596 C83 1.825 . S
C613 C117 1.847 . S
C632 C22 1.655 . S
