# Generated by pormake.
# Topology wgh, (5)-cn, num edge types: 1
# Building blocks:
#     Node 0, Type 0, BuildingBlock: BEQFEK_clean_sbu_0, # of connection points: 5
#     Node 1, Type 0, BuildingBlock: BEQFEK_clean_sbu_0, # of connection points: 5
#     Node 2, Type 0, BuildingBlock: BEQFEK_clean_sbu_0, # of connection points: 5
#     Node 3, Type 0, BuildingBlock: BEQFEK_clean_sbu_0, # of connection points: 5
#     Node 4, Type 0, BuildingBlock: BEQFEK_clean_sbu_0, # of connection points: 5
#     Node 5, Type 0, BuildingBlock: BEQFEK_clean_sbu_0, # of connection points: 5
#     Node 6, Type 0, BuildingBlock: BEQFEK_clean_sbu_0, # of connection points: 5
#     Node 7, Type 0, BuildingBlock: BEQFEK_clean_sbu_0, # of connection points: 5
#     Node 8, Type 0, BuildingBlock: BEQFEK_clean_sbu_0, # of connection points: 5
#     Node 9, Type 0, BuildingBlock: BEQFEK_clean_sbu_0, # of connection points: 5
#     Node 10, Type 0, BuildingBlock: BEQFEK_clean_sbu_0, # of connection points: 5
#     Node 11, Type 0, BuildingBlock: BEQFEK_clean_sbu_0, # of connection points: 5
#     Node 12, Type 0, BuildingBlock: BEQFEK_clean_sbu_0, # of connection points: 5
#     Node 13, Type 0, BuildingBlock: BEQFEK_clean_sbu_0, # of connection points: 5
#     Node 14, Type 0, BuildingBlock: BEQFEK_clean_sbu_0, # of connection points: 5
#     Node 15, Type 0, BuildingBlock: BEQFEK_clean_sbu_0, # of connection points: 5
#     Node 16, Type 0, BuildingBlock: BEQFEK_clean_sbu_0, # of connection points: 5
#     Node 17, Type 0, BuildingBlock: BEQFEK_clean_sbu_0, # of connection points: 5
#     Node 18, Type 0, BuildingBlock: BEQFEK_clean_sbu_0, # of connection points: 5
#     Node 19, Type 0, BuildingBlock: BEQFEK_clean_sbu_0, # of connection points: 5
#     Node 20, Type 0, BuildingBlock: BEQFEK_clean_sbu_0, # of connection points: 5
#     Node 21, Type 0, BuildingBlock: BEQFEK_clean_sbu_0, # of connection points: 5
#     Node 22, Type 0, BuildingBlock: BEQFEK_clean_sbu_0, # of connection points: 5
#     Node 23, Type 0, BuildingBlock: BEQFEK_clean_sbu_0, # of connection points: 5
#     Node 24, Type 0, BuildingBlock: BEQFEK_clean_sbu_0, # of connection points: 5
#     Node 25, Type 0, BuildingBlock: BEQFEK_clean_sbu_0, # of connection points: 5
#     Node 26, Type 0, BuildingBlock: BEQFEK_clean_sbu_0, # of connection points: 5
#     Node 27, Type 0, BuildingBlock: BEQFEK_clean_sbu_0, # of connection points: 5
#     Node 28, Type 0, BuildingBlock: BEQFEK_clean_sbu_0, # of connection points: 5
#     Node 29, Type 0, BuildingBlock: BEQFEK_clean_sbu_0, # of connection points: 5
#     Node 30, Type 0, BuildingBlock: BEQFEK_clean_sbu_0, # of connection points: 5
#     Node 31, Type 0, BuildingBlock: BEQFEK_clean_sbu_0, # of connection points: 5
#     Edge 32, Type (0, 0), BuildingBlock: UVAHIK_clean_linker_0, # of connection points: 2
#     Edge 33, Type (0, 0), BuildingBlock: UVAHIK_clean_linker_0, # of connection points: 2
#     Edge 34, Type (0, 0), BuildingBlock: UVAHIK_clean_linker_0, # of connection points: 2
#     Edge 35, Type (0, 0), BuildingBlock: UVAHIK_clean_linker_0, # of connection points: 2
#     Edge 36, Type (0, 0), BuildingBlock: UVAHIK_clean_linker_0, # of connection points: 2
#     Edge 37, Type (0, 0), BuildingBlock: UVAHIK_clean_linker_0, # of connection points: 2
#     Edge 38, Type (0, 0), BuildingBlock: UVAHIK_clean_linker_0, # of connection points: 2
#     Edge 39, Type (0, 0), BuildingBlock: UVAHIK_clean_linker_0, # of connection points: 2
#     Edge 40, Type (0, 0), BuildingBlock: UVAHIK_clean_linker_0, # of connection points: 2
#     Edge 41, Type (0, 0), BuildingBlock: UVAHIK_clean_linker_0, # of connection points: 2
#     Edge 42, Type (0, 0), BuildingBlock: UVAHIK_clean_linker_0, # of connection points: 2
#     Edge 43, Type (0, 0), BuildingBlock: UVAHIK_clean_linker_0, # of connection points: 2
#     Edge 44, Type (0, 0), BuildingBlock: UVAHIK_clean_linker_0, # of connection points: 2
#     Edge 45, Type (0, 0), BuildingBlock: UVAHIK_clean_linker_0, # of connection points: 2
#     Edge 46, Type (0, 0), BuildingBlock: UVAHIK_clean_linker_0, # of connection points: 2
#     Edge 47, Type (0, 0), BuildingBlock: UVAHIK_clean_linker_0, # of connection points: 2
#     Edge 48, Type (0, 0), BuildingBlock: UVAHIK_clean_linker_0, # of connection points: 2
#     Edge 49, Type (0, 0), BuildingBlock: UVAHIK_clean_linker_0, # of connection points: 2
#     Edge 50, Type (0, 0), BuildingBlock: UVAHIK_clean_linker_0, # of connection points: 2
#     Edge 51, Type (0, 0), BuildingBlock: UVAHIK_clean_linker_0, # of connection points: 2
#     Edge 52, Type (0, 0), BuildingBlock: UVAHIK_clean_linker_0, # of connection points: 2
#     Edge 53, Type (0, 0), BuildingBlock: UVAHIK_clean_linker_0, # of connection points: 2
#     Edge 54, Type (0, 0), BuildingBlock: UVAHIK_clean_linker_0, # of connection points: 2
#     Edge 55, Type (0, 0), BuildingBlock: UVAHIK_clean_linker_0, # of connection points: 2
#     Edge 56, Type (0, 0), BuildingBlock: UVAHIK_clean_linker_0, # of connection points: 2
#     Edge 57, Type (0, 0), BuildingBlock: UVAHIK_clean_linker_0, # of connection points: 2
#     Edge 58, Type (0, 0), BuildingBlock: UVAHIK_clean_linker_0, # of connection points: 2
#     Edge 59, Type (0, 0), BuildingBlock: UVAHIK_clean_linker_0, # of connection points: 2
#     Edge 60, Type (0, 0), BuildingBlock: UVAHIK_clean_linker_0, # of connection points: 2
#     Edge 61, Type (0, 0), BuildingBlock: UVAHIK_clean_linker_0, # of connection points: 2
#     Edge 62, Type (0, 0), BuildingBlock: UVAHIK_clean_linker_0, # of connection points: 2
#     Edge 63, Type (0, 0), BuildingBlock: UVAHIK_clean_linker_0, # of connection points: 2
#     Edge 64, Type (0, 0), BuildingBlock: UVAHIK_clean_linker_0, # of connection points: 2
#     Edge 65, Type (0, 0), BuildingBlock: UVAHIK_clean_linker_0, # of connection points: 2
#     Edge 66, Type (0, 0), BuildingBlock: UVAHIK_clean_linker_0, # of connection points: 2
#     Edge 67, Type (0, 0), BuildingBlock: UVAHIK_clean_linker_0, # of connection points: 2
#     Edge 68, Type (0, 0), BuildingBlock: UVAHIK_clean_linker_0, # of connection points: 2
#     Edge 69, Type (0, 0), BuildingBlock: UVAHIK_clean_linker_0, # of connection points: 2
#     Edge 70, Type (0, 0), BuildingBlock: UVAHIK_clean_linker_0, # of connection points: 2
#     Edge 71, Type (0, 0), BuildingBlock: UVAHIK_clean_linker_0, # of connection points: 2
#     Edge 72, Type (0, 0), BuildingBlock: UVAHIK_clean_linker_0, # of connection points: 2
#     Edge 73, Type (0, 0), BuildingBlock: UVAHIK_clean_linker_0, # of connection points: 2
#     Edge 74, Type (0, 0), BuildingBlock: UVAHIK_clean_linker_0, # of connection points: 2
#     Edge 75, Type (0, 0), BuildingBlock: UVAHIK_clean_linker_0, # of connection points: 2
#     Edge 76, Type (0, 0), BuildingBlock: UVAHIK_clean_linker_0, # of connection points: 2
#     Edge 77, Type (0, 0), BuildingBlock: UVAHIK_clean_linker_0, # of connection points: 2
#     Edge 78, Type (0, 0), BuildingBlock: UVAHIK_clean_linker_0, # of connection points: 2
#     Edge 79, Type (0, 0), BuildingBlock: UVAHIK_clean_linker_0, # of connection points: 2
#     Edge 80, Type (0, 0), BuildingBlock: UVAHIK_clean_linker_0, # of connection points: 2
#     Edge 81, Type (0, 0), BuildingBlock: UVAHIK_clean_linker_0, # of connection points: 2
#     Edge 82, Type (0, 0), BuildingBlock: UVAHIK_clean_linker_0, # of connection points: 2
#     Edge 83, Type (0, 0), BuildingBlock: UVAHIK_clean_linker_0, # of connection points: 2
#     Edge 84, Type (0, 0), BuildingBlock: UVAHIK_clean_linker_0, # of connection points: 2
#     Edge 85, Type (0, 0), BuildingBlock: UVAHIK_clean_linker_0, # of connection points: 2
#     Edge 86, Type (0, 0), BuildingBlock: UVAHIK_clean_linker_0, # of connection points: 2
#     Edge 87, Type (0, 0), BuildingBlock: UVAHIK_clean_linker_0, # of connection points: 2
#     Edge 88, Type (0, 0), BuildingBlock: UVAHIK_clean_linker_0, # of connection points: 2
#     Edge 89, Type (0, 0), BuildingBlock: UVAHIK_clean_linker_0, # of connection points: 2
#     Edge 90, Type (0, 0), BuildingBlock: UVAHIK_clean_linker_0, # of connection points: 2
#     Edge 91, Type (0, 0), BuildingBlock: UVAHIK_clean_linker_0, # of connection points: 2
#     Edge 92, Type (0, 0), BuildingBlock: UVAHIK_clean_linker_0, # of connection points: 2
#     Edge 93, Type (0, 0), BuildingBlock: UVAHIK_clean_linker_0, # of connection points: 2
#     Edge 94, Type (0, 0), BuildingBlock: UVAHIK_clean_linker_0, # of connection points: 2
#     Edge 95, Type (0, 0), BuildingBlock: UVAHIK_clean_linker_0, # of connection points: 2
#     Edge 96, Type (0, 0), BuildingBlock: UVAHIK_clean_linker_0, # of connection points: 2
#     Edge 97, Type (0, 0), BuildingBlock: UVAHIK_clean_linker_0, # of connection points: 2
#     Edge 98, Type (0, 0), BuildingBlock: UVAHIK_clean_linker_0, # of connection points: 2
#     Edge 99, Type (0, 0), BuildingBlock: UVAHIK_clean_linker_0, # of connection points: 2
#     Edge 100, Type (0, 0), BuildingBlock: UVAHIK_clean_linker_0, # of connection points: 2
#     Edge 101, Type (0, 0), BuildingBlock: UVAHIK_clean_linker_0, # of connection points: 2
#     Edge 102, Type (0, 0), BuildingBlock: UVAHIK_clean_linker_0, # of connection points: 2
#     Edge 103, Type (0, 0), BuildingBlock: UVAHIK_clean_linker_0, # of connection points: 2
#     Edge 104, Type (0, 0), BuildingBlock: UVAHIK_clean_linker_0, # of connection points: 2
#     Edge 105, Type (0, 0), BuildingBlock: UVAHIK_clean_linker_0, # of connection points: 2
#     Edge 106, Type (0, 0), BuildingBlock: UVAHIK_clean_linker_0, # of connection points: 2
#     Edge 107, Type (0, 0), BuildingBlock: UVAHIK_clean_linker_0, # of connection points: 2
#     Edge 108, Type (0, 0), BuildingBlock: UVAHIK_clean_linker_0, # of connection points: 2
#     Edge 109, Type (0, 0), BuildingBlock: UVAHIK_clean_linker_0, # of connection points: 2
#     Edge 110, Type (0, 0), BuildingBlock: UVAHIK_clean_linker_0, # of connection points: 2
#     Edge 111, Type (0, 0), BuildingBlock: UVAHIK_clean_linker_0, # of connection points: 2
# Relax obj value: 0.145
# Max RMSD: 0.125
# Mean RMSD: 0.125
data_MOF--net-wgh--node1-BEQFEK_clean_sbu_0--edge1-UVAHIK_clean_linker_0
_symmetry_space_group_name_H-M    P1
_symmetry_Int_Tables_number       1
_symmetry_cell_setting            triclinic
loop_
_symmetry_equiv_pos_as_xyz
'x, y, z'
_cell_length_a     115.43964
_cell_length_b     115.46914
_cell_length_c     28.679785
_cell_angle_alpha  90.0007
_cell_angle_beta   89.997943
_cell_angle_gamma 90.000681
loop_
_atom_site_label
_atom_site_type_symbol
_atom_site_fract_x
_atom_site_fract_y
_atom_site_fract_z
_atom_type_partial_charge
Co0 Co 0.18557 0.19601 0.29182 0.0
Co1 Co 0.17934 0.17966 0.37503 0.0
C2 C 0.17512 0.20474 0.38288 0.0
O3 O 0.17942 0.20615 0.3424 0.0
O4 O 0.17396 0.19467 0.40028 0.0
C5 C 0.17725 0.21271 0.22999 0.0
O6 O 0.16879 0.2122 0.26054 0.0
C7 C 0.16664 0.16691 0.44639 0.0
C8 C 0.17795 0.15165 0.4569 0.0
C9 C 0.16769 0.1567 0.47143 0.0
N10 N 0.17582 0.16776 0.41792 0.0
N11 N 0.18257 0.15866 0.42444 0.0
C12 C 0.15774 0.17624 0.45174 0.0
H13 H 0.15472 0.17911 0.41688 0.0
H14 H 0.15028 0.17349 0.47334 0.0
H15 H 0.16184 0.18381 0.4689 0.0
C16 C 0.17013 0.1789 0.24195 0.0
N17 N 0.17565 0.18288 0.28041 0.0
N18 N 0.17279 0.1763 0.31604 0.0
C19 C 0.1653 0.16806 0.30163 0.0
C20 C 0.1633 0.16944 0.25427 0.0
C21 C 0.17093 0.18441 0.19487 0.0
H22 H 0.17998 0.18715 0.18795 0.0
H23 H 0.16534 0.19221 0.19418 0.0
H24 H 0.16799 0.17841 0.16707 0.0
O25 O 0.20159 0.19166 0.31376 0.0
O26 O 0.19637 0.18025 0.37251 0.0
H27 H 0.16756 0.15416 0.35012 0.0
H28 H 0.15524 0.1524 0.3123 0.0
C29 C 0.16041 0.15879 0.33234 0.0
H30 H 0.15481 0.1628 0.35926 0.0
H31 H 0.19032 0.15723 0.40662 0.0
O32 O 0.18597 0.20606 0.23518 0.0
C33 C 0.20418 0.18521 0.34842 0.0
Co34 Co 0.06027 0.93577 0.5422 0.0
Co35 Co 0.07662 0.92943 0.62514 0.0
C36 C 0.05155 0.92471 0.63191 0.0
O37 O 0.05011 0.92905 0.59152 0.0
O38 O 0.06162 0.9238 0.64957 0.0
C39 C 0.0452 0.92679 0.47606 0.0
O40 O 0.04736 0.91769 0.50218 0.0
C41 C 0.08959 0.91617 0.69405 0.0
C42 C 0.10468 0.92757 0.70642 0.0
C43 C 0.09993 0.91697 0.71851 0.0
N44 N 0.08837 0.92583 0.66854 0.0
N45 N 0.09732 0.93268 0.6765 0.0
C46 C 0.08151 0.90605 0.6913 0.0
H47 H 0.07655 0.90626 0.65818 0.0
H48 H 0.08636 0.89778 0.69385 0.0
H49 H 0.07528 0.90651 0.72068 0.0
C50 C 0.07792 0.92101 0.49112 0.0
N51 N 0.07368 0.92619 0.52997 0.0
N52 N 0.08024 0.92324 0.56562 0.0
C53 C 0.08868 0.91604 0.55079 0.0
C54 C 0.08746 0.91428 0.50324 0.0
C55 C 0.0727 0.92211 0.44359 0.0
H56 H 0.06885 0.93082 0.43902 0.0
H57 H 0.06581 0.91549 0.4395 0.0
H58 H 0.07928 0.92059 0.41605 0.0
O59 O 0.06428 0.95174 0.56574 0.0
O60 O 0.07589 0.94645 0.62378 0.0
H61 H 0.1021 0.91831 0.60156 0.0
H62 H 0.10497 0.90696 0.56025 0.0
C63 C 0.09809 0.91124 0.58108 0.0
H64 H 0.09435 0.90482 0.60547 0.0
H65 H 0.09855 0.94071 0.66052 0.0
O66 O 0.05016 0.93633 0.4859 0.0
C67 C 0.07078 0.95427 0.60035 0.0
Co68 Co 0.32078 0.81008 0.79292 0.0
Co69 Co 0.32646 0.82704 0.87483 0.0
C70 C 0.33112 0.80208 0.88524 0.0
O71 O 0.32696 0.80034 0.84474 0.0
O72 O 0.33206 0.81228 0.90164 0.0
C73 C 0.32948 0.79322 0.73254 0.0
O74 O 0.33793 0.79406 0.76304 0.0
C75 C 0.33867 0.84058 0.94538 0.0
C76 C 0.32678 0.85543 0.95466 0.0
C77 C 0.33721 0.85085 0.96967 0.0
N78 N 0.32955 0.83924 0.91689 0.0
N79 N 0.32245 0.8481 0.92269 0.0
C80 C 0.34794 0.83163 0.95147 0.0
H81 H 0.34417 0.82406 0.96983 0.0
H82 H 0.35096 0.82857 0.91685 0.0
H83 H 0.35534 0.83485 0.97227 0.0
C84 C 0.33611 0.82716 0.74223 0.0
N85 N 0.3305 0.82333 0.78074 0.0
N86 N 0.33311 0.8302 0.81583 0.0
C87 C 0.34048 0.83849 0.80102 0.0
C88 C 0.34271 0.83683 0.75397 0.0
C89 C 0.33564 0.82131 0.69575 0.0
H90 H 0.3414 0.81362 0.69637 0.0
H91 H 0.33859 0.82716 0.66748 0.0
H92 H 0.32668 0.81833 0.68849 0.0
O93 O 0.30462 0.81425 0.8137 0.0
O94 O 0.30947 0.8261 0.87152 0.0
H95 H 0.33775 0.85251 0.84855 0.0
H96 H 0.34997 0.85455 0.81042 0.0
C97 C 0.34505 0.84807 0.831 0.0
H98 H 0.35082 0.84439 0.85811 0.0
H99 H 0.31466 0.84915 0.9047 0.0
O100 O 0.32064 0.79971 0.73718 0.0
C101 C 0.30182 0.82087 0.84757 0.0
Co102 Co 0.44624 0.07116 0.04501 0.0
Co103 Co 0.42865 0.076 0.12572 0.0
C104 C 0.45354 0.08156 0.13768 0.0
O105 O 0.45565 0.07786 0.09673 0.0
O106 O 0.44325 0.0817 0.15368 0.0
C107 C 0.46344 0.07967 0.9846 0.0
O108 O 0.4632 0.08797 0.01592 0.0
C109 C 0.41473 0.08799 0.19545 0.0
C110 C 0.40004 0.07587 0.20433 0.0
C111 C 0.4044 0.0864 0.21927 0.0
N112 N 0.41629 0.07886 0.16725 0.0
N113 N 0.40754 0.07162 0.17283 0.0
C114 C 0.42349 0.09743 0.20161 0.0
H115 H 0.4312 0.09379 0.21946 0.0
H116 H 0.42639 0.10061 0.16701 0.0
H117 H 0.42017 0.10471 0.22288 0.0
C118 C 0.429 0.08616 0.99371 0.0
N119 N 0.43274 0.08047 0.03217 0.0
N120 N 0.4256 0.08273 0.06676 0.0
C121 C 0.41719 0.08992 0.05162 0.0
C122 C 0.41907 0.09242 0.00493 0.0
C123 C 0.43519 0.08612 0.9479 0.0
H124 H 0.43809 0.07721 0.93943 0.0
H125 H 0.44296 0.09173 0.9505 0.0
H126 H 0.42959 0.08946 0.91948 0.0
O127 O 0.44254 0.05486 0.06623 0.0
O128 O 0.42986 0.05908 0.12196 0.0
H129 H 0.40305 0.08664 0.0981 0.0
H130 H 0.40074 0.09878 0.05986 0.0
C131 C 0.4073 0.09411 0.08092 0.0
H132 H 0.41063 0.1 0.10829 0.0
H133 H 0.40667 0.06379 0.15497 0.0
O134 O 0.45658 0.0711 0.98912 0.0
C135 C 0.43565 0.05172 0.09875 0.0
Co136 Co 0.18567 0.8104 0.21187 0.0
Co137 Co 0.17851 0.82597 0.12741 0.0
C138 C 0.17419 0.80089 0.12394 0.0
O139 O 0.17889 0.79982 0.16391 0.0
O140 O 0.1729 0.8108 0.10528 0.0
C141 C 0.17688 0.79601 0.28052 0.0
O142 O 0.16762 0.79841 0.25567 0.0
C143 C 0.16636 0.83788 0.05152 0.0
C144 C 0.17579 0.85454 0.04913 0.0
C145 C 0.16674 0.84848 0.02898 0.0
N146 N 0.17472 0.83776 0.08407 0.0
N147 N 0.18037 0.8477 0.08227 0.0
C148 C 0.1588 0.82769 0.04072 0.0
H149 H 0.15398 0.82509 0.07252 0.0
H150 H 0.15267 0.82946 0.01187 0.0
H151 H 0.16436 0.82031 0.03032 0.0
C152 C 0.17112 0.82839 0.26194 0.0
N153 N 0.17598 0.82375 0.22321 0.0
N154 N 0.17254 0.82977 0.18685 0.0
C155 C 0.16523 0.83818 0.20088 0.0
C156 C 0.16413 0.83772 0.2491 0.0
C157 C 0.17351 0.82431 0.31049 0.0
H158 H 0.18227 0.82042 0.31267 0.0
H159 H 0.16702 0.81765 0.32019 0.0
H160 H 0.1728 0.83158 0.33565 0.0
O161 O 0.20146 0.81451 0.187 0.0
O162 O 0.19559 0.8254 0.12761 0.0
H163 H 0.1645 0.85289 0.15572 0.0
H164 H 0.15101 0.84983 0.18516 0.0
C165 C 0.15869 0.84589 0.16818 0.0
H166 H 0.15571 0.84082 0.1377 0.0
H167 H 0.18731 0.84983 0.10397 0.0
O168 O 0.18648 0.80064 0.26906 0.0
C169 C 0.20366 0.8207 0.15113 0.0
Co170 Co 0.44593 0.93534 0.46077 0.0
Co171 Co 0.42971 0.92896 0.37713 0.0
C172 C 0.45462 0.92437 0.37012 0.0
O173 O 0.45596 0.92889 0.41029 0.0
O174 O 0.44459 0.92316 0.35243 0.0
C175 C 0.46229 0.9267 0.52327 0.0
O176 O 0.46145 0.9181 0.49344 0.0
C177 C 0.4166 0.91788 0.3015 0.0
C178 C 0.40038 0.92809 0.30311 0.0
C179 C 0.40581 0.91896 0.28075 0.0
N180 N 0.41743 0.92593 0.33512 0.0
N181 N 0.40776 0.93205 0.33568 0.0
C182 C 0.42628 0.90991 0.28818 0.0
H183 H 0.43397 0.91515 0.27867 0.0
H184 H 0.42869 0.90447 0.31856 0.0
H185 H 0.42402 0.90434 0.25807 0.0
C186 C 0.42834 0.92049 0.51089 0.0
N187 N 0.43261 0.9257 0.47227 0.0
N188 N 0.42623 0.92266 0.43635 0.0
C189 C 0.41787 0.91531 0.45057 0.0
C190 C 0.41879 0.91373 0.49851 0.0
C191 C 0.43312 0.92223 0.55885 0.0
H192 H 0.43658 0.93114 0.56251 0.0
H193 H 0.44033 0.91603 0.56455 0.0
H194 H 0.42638 0.92069 0.58573 0.0
O195 O 0.44189 0.95138 0.43844 0.0
O196 O 0.43077 0.94599 0.37908 0.0
H197 H 0.40277 0.91515 0.40739 0.0
H198 H 0.40593 0.90136 0.43442 0.0
C199 C 0.4098 0.90915 0.41806 0.0
H200 H 0.41457 0.9064 0.38647 0.0
H201 H 0.40616 0.93888 0.35862 0.0
O202 O 0.45598 0.93562 0.5174 0.0
C203 C 0.43565 0.95386 0.40303 0.0
Co204 Co 0.32055 0.19548 0.71067 0.0
Co205 Co 0.32686 0.17911 0.62748 0.0
C206 C 0.33151 0.20399 0.61967 0.0
O207 O 0.32703 0.20541 0.65986 0.0
O208 O 0.33267 0.19393 0.60224 0.0
C209 C 0.32951 0.21164 0.77287 0.0
O210 O 0.33816 0.21033 0.74356 0.0
C211 C 0.33775 0.16587 0.55184 0.0
C212 C 0.32754 0.14966 0.55434 0.0
C213 C 0.3366 0.15506 0.53139 0.0
N214 N 0.32981 0.16675 0.58584 0.0
N215 N 0.32369 0.15708 0.58696 0.0
C216 C 0.34567 0.17553 0.53785 0.0
H217 H 0.34039 0.18317 0.52814 0.0
H218 H 0.35116 0.17804 0.56797 0.0
H219 H 0.3512 0.1732 0.50769 0.0
C220 C 0.33536 0.1779 0.7612 0.0
N221 N 0.33017 0.18215 0.7225 0.0
N222 N 0.33321 0.17573 0.68668 0.0
C223 C 0.34056 0.16739 0.70101 0.0
C224 C 0.34213 0.16834 0.74895 0.0
C225 C 0.33358 0.18268 0.80912 0.0
H226 H 0.32471 0.18629 0.81248 0.0
H227 H 0.33989 0.18977 0.81517 0.0
H228 H 0.33495 0.1759 0.83598 0.0
O229 O 0.30448 0.19146 0.68862 0.0
O230 O 0.30983 0.18019 0.62967 0.0
H231 H 0.34077 0.15222 0.65831 0.0
H232 H 0.35458 0.15553 0.6849 0.0
C233 C 0.34673 0.15931 0.66858 0.0
H234 H 0.3494 0.16404 0.63677 0.0
H235 H 0.31692 0.15553 0.61026 0.0
O236 O 0.32037 0.20566 0.7669 0.0
C237 C 0.30198 0.18512 0.65352 0.0
Co238 Co 0.06014 0.07113 0.95928 0.0
Co239 Co 0.07707 0.07694 0.87743 0.0
C240 C 0.05214 0.08165 0.86711 0.0
O241 O 0.05045 0.07749 0.90766 0.0
O242 O 0.06232 0.08251 0.85044 0.0
C243 C 0.04322 0.07981 0.01941 0.0
O244 O 0.04405 0.08827 0.98902 0.0
C245 C 0.09054 0.08869 0.80513 0.0
C246 C 0.10659 0.07823 0.80481 0.0
C247 C 0.10138 0.08782 0.78469 0.0
N248 N 0.08942 0.08003 0.836 0.0
N249 N 0.09897 0.07372 0.83525 0.0
C250 C 0.08184 0.09822 0.79935 0.0
H251 H 0.07654 0.09916 0.83136 0.0
H252 H 0.0862 0.10657 0.79159 0.0
H253 H 0.07599 0.09605 0.76994 0.0
C254 C 0.07748 0.08592 0.01087 0.0
N255 N 0.07343 0.0807 0.97188 0.0
N256 N 0.08021 0.08347 0.93675 0.0
C257 C 0.08865 0.09061 0.95195 0.0
C258 C 0.08732 0.09237 0.99963 0.0
C259 C 0.07224 0.08444 0.05818 0.0
H260 H 0.06878 0.07553 0.0621 0.0
H261 H 0.06494 0.09063 0.06212 0.0
H262 H 0.07869 0.08617 0.086 0.0
O263 O 0.06424 0.05501 0.93807 0.0
O264 O 0.07609 0.05993 0.88032 0.0
H265 H 0.10379 0.0898 0.9091 0.0
H266 H 0.10184 0.10359 0.938 0.0
C267 C 0.09732 0.0963 0.92061 0.0
H268 H 0.09287 0.09977 0.88947 0.0
H269 H 0.10039 0.06651 0.85642 0.0
O270 O 0.04975 0.07099 0.01485 0.0
C271 C 0.07084 0.05226 0.90407 0.0
Co272 Co 0.82093 0.81011 0.70845 0.0
Co273 Co 0.82563 0.82778 0.6281 0.0
C274 C 0.83118 0.80289 0.61548 0.0
O275 O 0.82759 0.80074 0.65655 0.0
O276 O 0.83123 0.81319 0.59965 0.0
C277 C 0.82979 0.79315 0.76846 0.0
O278 O 0.83822 0.79398 0.73787 0.0
C279 C 0.83798 0.84163 0.55955 0.0
C280 C 0.82627 0.85664 0.55105 0.0
C281 C 0.83679 0.85212 0.53654 0.0
N282 N 0.8286 0.84007 0.58646 0.0
N283 N 0.82157 0.84899 0.5809 0.0
C284 C 0.8482 0.83366 0.55959 0.0
H285 H 0.84846 0.82854 0.59232 0.0
H286 H 0.85639 0.83861 0.55575 0.0
H287 H 0.84743 0.82755 0.52989 0.0
C288 C 0.83601 0.82727 0.75996 0.0
N289 N 0.83027 0.82359 0.72152 0.0
N290 N 0.83245 0.83079 0.68707 0.0
C291 C 0.83965 0.83919 0.70235 0.0
C292 C 0.84224 0.83722 0.74888 0.0
C293 C 0.83603 0.82104 0.80567 0.0
H294 H 0.84191 0.81347 0.80325 0.0
H295 H 0.83912 0.82673 0.83427 0.0
H296 H 0.82719 0.81786 0.81376 0.0
O297 O 0.80462 0.81385 0.68746 0.0
O298 O 0.80869 0.82666 0.63202 0.0
H299 H 0.84814 0.85585 0.69507 0.0
H300 H 0.85002 0.84599 0.647 0.0
C301 C 0.84379 0.84917 0.67346 0.0
H302 H 0.83636 0.85322 0.65531 0.0
H303 H 0.81369 0.84996 0.5983 0.0
O304 O 0.82094 0.79963 0.76386 0.0
C305 C 0.80139 0.82078 0.65522 0.0
Co306 Co 0.9459 0.071 0.45772 0.0
Co307 Co 0.92824 0.07531 0.37648 0.0
C308 C 0.95313 0.08089 0.36425 0.0
O309 O 0.95518 0.07719 0.40519 0.0
O310 O 0.94284 0.08119 0.34828 0.0
C311 C 0.96402 0.07914 0.51533 0.0
O312 O 0.96445 0.08688 0.48181 0.0
C313 C 0.914 0.08702 0.30668 0.0
C314 C 0.89992 0.07428 0.29609 0.0
C315 C 0.90384 0.08506 0.28207 0.0
N316 N 0.91588 0.07786 0.33442 0.0
N317 N 0.90749 0.07025 0.32782 0.0
C318 C 0.92236 0.09686 0.30167 0.0
H319 H 0.93066 0.09347 0.28789 0.0
H320 H 0.92417 0.10067 0.33643 0.0
H321 H 0.9192 0.10364 0.27748 0.0
C322 C 0.92898 0.08673 0.50691 0.0
N323 N 0.93248 0.08052 0.46945 0.0
N324 N 0.92503 0.08211 0.43535 0.0
C325 C 0.91644 0.08912 0.45021 0.0
C326 C 0.91868 0.09247 0.49592 0.0
C327 C 0.93597 0.08791 0.5506 0.0
H328 H 0.93786 0.07919 0.56495 0.0
H329 H 0.94435 0.09208 0.54203 0.0
H330 H 0.93155 0.09324 0.5773 0.0
O331 O 0.94214 0.05457 0.4381 0.0
O332 O 0.92971 0.05844 0.38106 0.0
H333 H 0.9027 0.08423 0.40396 0.0
H334 H 0.89886 0.09555 0.444 0.0
C335 C 0.90594 0.09208 0.42193 0.0
H336 H 0.90827 0.09863 0.3953 0.0
H337 H 0.90691 0.06231 0.34509 0.0
O338 O 0.95638 0.07118 0.51339 0.0
C339 C 0.93544 0.05123 0.40526 0.0
Co340 Co 0.68536 0.19583 0.20963 0.0
Co341 Co 0.67972 0.17868 0.12827 0.0
C342 C 0.67468 0.20352 0.1174 0.0
O343 O 0.67891 0.20531 0.15778 0.0
O344 O 0.67384 0.19331 0.10098 0.0
C345 C 0.67697 0.21316 0.2693 0.0
O346 O 0.66866 0.21283 0.23801 0.0
C347 C 0.66749 0.16431 0.06028 0.0
C348 C 0.67962 0.1496 0.05298 0.0
C349 C 0.66894 0.1537 0.03836 0.0
N350 N 0.67685 0.16631 0.08681 0.0
N351 N 0.68414 0.15757 0.08187 0.0
C352 C 0.65705 0.172 0.05966 0.0
H353 H 0.65682 0.17752 0.09132 0.0
H354 H 0.64899 0.16677 0.05753 0.0
H355 H 0.65748 0.17774 0.02867 0.0
C356 C 0.67028 0.17877 0.26127 0.0
N357 N 0.67583 0.1825 0.22249 0.0
N358 N 0.67328 0.17549 0.18779 0.0
C359 C 0.66605 0.16715 0.2033 0.0
C360 C 0.66381 0.16897 0.25022 0.0
C361 C 0.67062 0.18489 0.30722 0.0
H362 H 0.66508 0.19272 0.30527 0.0
H363 H 0.66736 0.17928 0.33577 0.0
H364 H 0.6796 0.18768 0.31501 0.0
O365 O 0.70155 0.19187 0.18836 0.0
O366 O 0.69669 0.17994 0.13087 0.0
H367 H 0.65733 0.15062 0.19588 0.0
H368 H 0.65525 0.16069 0.14866 0.0
C369 C 0.66161 0.15733 0.17425 0.0
H370 H 0.66887 0.15325 0.15511 0.0
H371 H 0.69206 0.15691 0.09922 0.0
O372 O 0.68551 0.20626 0.26522 0.0
C373 C 0.70433 0.18528 0.15439 0.0
Co374 Co 0.56032 0.93563 0.96088 0.0
Co375 Co 0.57707 0.92981 0.8785 0.0
C376 C 0.55203 0.92522 0.86928 0.0
O377 O 0.55042 0.92938 0.90987 0.0
O378 O 0.56217 0.92431 0.85232 0.0
C379 C 0.54341 0.92723 0.02185 0.0
O380 O 0.54387 0.91885 0.99094 0.0
C381 C 0.59035 0.91688 0.80973 0.0
C382 C 0.60542 0.92839 0.79865 0.0
C383 C 0.60074 0.91781 0.78574 0.0
N384 N 0.58902 0.92644 0.8357 0.0
N385 N 0.59796 0.93336 0.82855 0.0
C386 C 0.5823 0.90672 0.81161 0.0
H387 H 0.57726 0.9068 0.84456 0.0
H388 H 0.58719 0.89847 0.8088 0.0
H389 H 0.57613 0.90726 0.78204 0.0
C390 C 0.57738 0.92028 0.01136 0.0
N391 N 0.57355 0.92586 0.97282 0.0
N392 N 0.5804 0.92325 0.93767 0.0
C393 C 0.58873 0.91593 0.95262 0.0
C394 C 0.58707 0.9137 0.99966 0.0
C395 C 0.57152 0.92074 0.05781 0.0
H396 H 0.56874 0.92973 0.06546 0.0
H397 H 0.56369 0.91517 0.05682 0.0
H398 H 0.57728 0.91757 0.08602 0.0
O399 O 0.5645 0.95173 0.93929 0.0
O400 O 0.57629 0.94681 0.8813 0.0
H401 H 0.60241 0.91867 0.90332 0.0
H402 H 0.60525 0.90723 0.94432 0.0
C403 C 0.59843 0.91145 0.92301 0.0
H404 H 0.59497 0.90503 0.8979 0.0
H405 H 0.5991 0.94134 0.84501 0.0
O406 O 0.55013 0.9359 0.01713 0.0
C407 C 0.57109 0.95448 0.90521 0.0
Co408 Co 0.82118 0.19612 0.79523 0.0
Co409 Co 0.82636 0.17842 0.87545 0.0
C410 C 0.83169 0.20326 0.88815 0.0
O411 O 0.82761 0.20534 0.84777 0.0
O412 O 0.83235 0.19294 0.90364 0.0
C413 C 0.82991 0.21341 0.73631 0.0
O414 O 0.8383 0.21264 0.76708 0.0
C415 C 0.83756 0.16415 0.94706 0.0
C416 C 0.82614 0.14876 0.94756 0.0
C417 C 0.836 0.1534 0.96769 0.0
N418 N 0.82907 0.16569 0.91565 0.0
N419 N 0.82224 0.15651 0.9163 0.0
C420 C 0.84634 0.17323 0.95892 0.0
H421 H 0.84176 0.18112 0.97099 0.0
H422 H 0.8513 0.17558 0.92716 0.0
H423 H 0.85233 0.17043 0.9869 0.0
C424 C 0.83626 0.17914 0.74312 0.0
N425 N 0.83063 0.18279 0.78183 0.0
N426 N 0.83279 0.17547 0.8159 0.0
C427 C 0.83974 0.16694 0.79996 0.0
C428 C 0.84219 0.16896 0.75335 0.0
C429 C 0.83596 0.18524 0.69715 0.0
H430 H 0.82706 0.18841 0.68997 0.0
H431 H 0.84184 0.19283 0.69855 0.0
H432 H 0.83883 0.17944 0.66852 0.0
O433 O 0.80493 0.1922 0.81589 0.0
O434 O 0.80942 0.17988 0.87256 0.0
H435 H 0.83712 0.15182 0.84163 0.0
H436 H 0.85064 0.15183 0.80997 0.0
C437 C 0.8444 0.15731 0.82941 0.0
H438 H 0.8488 0.16098 0.86037 0.0
H439 H 0.81495 0.15552 0.89518 0.0
O440 O 0.82116 0.20677 0.74035 0.0
C441 C 0.80194 0.18548 0.84918 0.0
Co442 Co 0.56001 0.0709 0.54264 0.0
Co443 Co 0.5761 0.07741 0.6263 0.0
C444 C 0.5512 0.08222 0.63234 0.0
O445 O 0.54988 0.07769 0.59217 0.0
O446 O 0.56122 0.0833 0.65035 0.0
C447 C 0.54526 0.08007 0.47555 0.0
O448 O 0.54772 0.08926 0.50071 0.0
C449 C 0.58906 0.08827 0.70295 0.0
C450 C 0.60536 0.07819 0.70062 0.0
C451 C 0.59982 0.08712 0.72388 0.0
N452 N 0.58835 0.08045 0.66843 0.0
N453 N 0.59807 0.07442 0.66738 0.0
C454 C 0.57929 0.09604 0.71705 0.0
H455 H 0.57684 0.10166 0.68724 0.0
H456 H 0.58147 0.10142 0.74779 0.0
H457 H 0.57165 0.09064 0.72586 0.0
C458 C 0.57797 0.08542 0.49224 0.0
N459 N 0.57347 0.0804 0.53088 0.0
N460 N 0.57969 0.08359 0.56705 0.0
C461 C 0.5881 0.09091 0.55306 0.0
C462 C 0.58743 0.09227 0.50496 0.0
C463 C 0.57361 0.08335 0.44386 0.0
H464 H 0.56962 0.07464 0.44125 0.0
H465 H 0.56695 0.08995 0.43536 0.0
H466 H 0.58075 0.08412 0.41812 0.0
O467 O 0.5639 0.0549 0.56581 0.0
O468 O 0.57506 0.06038 0.62488 0.0
H469 H 0.60313 0.09144 0.59654 0.0
H470 H 0.59964 0.10514 0.56957 0.0
C471 C 0.59595 0.09725 0.58584 0.0
H472 H 0.59107 0.09986 0.61738 0.0
H473 H 0.59974 0.06774 0.64379 0.0
O474 O 0.54996 0.07046 0.48622 0.0
C475 C 0.57016 0.05248 0.6012 0.0
Co476 Co 0.68514 0.80988 0.29252 0.0
Co477 Co 0.67822 0.8258 0.37633 0.0
C478 C 0.67406 0.80078 0.38222 0.0
O479 O 0.67872 0.79958 0.34226 0.0
O480 O 0.67264 0.81076 0.40008 0.0
C481 C 0.67666 0.79373 0.22926 0.0
O482 O 0.66797 0.79473 0.25857 0.0
C483 C 0.66646 0.83817 0.45196 0.0
C484 C 0.67599 0.85479 0.45224 0.0
C485 C 0.667 0.84889 0.47355 0.0
N486 N 0.67467 0.83783 0.41884 0.0
N487 N 0.68039 0.84775 0.41938 0.0
C488 C 0.65888 0.82809 0.46414 0.0
H489 H 0.65388 0.82538 0.43294 0.0
H490 H 0.65291 0.83004 0.49334 0.0
H491 H 0.66444 0.82071 0.47464 0.0
C492 C 0.67026 0.82743 0.24217 0.0
N493 N 0.67533 0.82308 0.28097 0.0
N494 N 0.67205 0.82931 0.31697 0.0
C495 C 0.66467 0.83763 0.30263 0.0
C496 C 0.66334 0.83686 0.25453 0.0
C497 C 0.67232 0.82287 0.19408 0.0
H498 H 0.68127 0.81945 0.19109 0.0
H499 H 0.66617 0.81568 0.18719 0.0
H500 H 0.67093 0.82973 0.16755 0.0
O501 O 0.70104 0.81414 0.31594 0.0
O502 O 0.69529 0.82512 0.37521 0.0
H503 H 0.66413 0.8526 0.34642 0.0
H504 H 0.65051 0.84935 0.31827 0.0
C505 C 0.65827 0.84553 0.33505 0.0
H506 H 0.65543 0.84064 0.36623 0.0
H507 H 0.68724 0.84972 0.39701 0.0
O508 O 0.68566 0.79992 0.23563 0.0
C509 C 0.70331 0.82039 0.35154 0.0
Co510 Co 0.9463 0.93476 0.044 0.0
Co511 Co 0.92937 0.92886 0.12594 0.0
C512 C 0.95435 0.9239 0.13532 0.0
O513 O 0.95612 0.92799 0.09468 0.0
O514 O 0.94416 0.92327 0.15209 0.0
C515 C 0.96283 0.92624 0.98148 0.0
O516 O 0.9621 0.91762 0.01121 0.0
C517 C 0.91624 0.91741 0.20013 0.0
C518 C 0.89994 0.9275 0.1996 0.0
C519 C 0.90545 0.91827 0.221 0.0
N520 N 0.917 0.92566 0.16733 0.0
N521 N 0.90728 0.93171 0.16735 0.0
C522 C 0.926 0.90947 0.21272 0.0
H523 H 0.92893 0.90471 0.18124 0.0
H524 H 0.92363 0.90328 0.24064 0.0
H525 H 0.93338 0.91475 0.22526 0.0
C526 C 0.92874 0.92011 0.99238 0.0
N527 N 0.93288 0.92531 0.0313 0.0
N528 N 0.92622 0.92244 0.06663 0.0
C529 C 0.91783 0.9152 0.05178 0.0
C530 C 0.919 0.91353 0.00398 0.0
C531 C 0.93383 0.92169 0.94485 0.0
H532 H 0.93735 0.93058 0.94115 0.0
H533 H 0.94104 0.91544 0.94014 0.0
H534 H 0.92725 0.92011 0.91735 0.0
O535 O 0.9424 0.95085 0.06688 0.0
O536 O 0.93034 0.94584 0.12377 0.0
H537 H 0.90258 0.91536 0.09413 0.0
H538 H 0.90547 0.90154 0.06693 0.0
C539 C 0.90948 0.9092 0.08366 0.0
H540 H 0.91408 0.90626 0.11538 0.0
H541 H 0.90563 0.93866 0.14509 0.0
O542 O 0.95646 0.93512 0.98762 0.0
C543 C 0.93573 0.95355 0.10076 0.0
Co544 Co 0.68553 0.69558 0.79264 0.0
Co545 Co 0.67972 0.67889 0.87531 0.0
C546 C 0.67481 0.70371 0.88463 0.0
O547 O 0.67905 0.70528 0.8441 0.0
O548 O 0.67388 0.69358 0.90184 0.0
C549 C 0.67667 0.71207 0.73077 0.0
O550 O 0.66816 0.71134 0.76106 0.0
C551 C 0.66872 0.66473 0.94823 0.0
C552 C 0.67977 0.64908 0.94559 0.0
C553 C 0.67014 0.65377 0.96736 0.0
N554 N 0.67711 0.66635 0.91643 0.0
N555 N 0.68376 0.65704 0.91545 0.0
C556 C 0.65901 0.67307 0.95636 0.0
H557 H 0.65782 0.67878 0.92563 0.0
H558 H 0.65081 0.66839 0.96361 0.0
H559 H 0.66112 0.67858 0.98691 0.0
C560 C 0.67085 0.67801 0.74179 0.0
N561 N 0.67608 0.68218 0.78057 0.0
N562 N 0.67327 0.67555 0.81606 0.0
C563 C 0.66608 0.6671 0.80134 0.0
C564 C 0.66434 0.66826 0.75357 0.0
C565 C 0.67236 0.68308 0.69418 0.0
H566 H 0.68125 0.68659 0.69023 0.0
H567 H 0.66612 0.6903 0.68961 0.0
H568 H 0.67073 0.6765 0.66676 0.0
O569 O 0.7017 0.69172 0.81382 0.0
O570 O 0.69673 0.68021 0.8725 0.0
H571 H 0.66662 0.65201 0.84454 0.0
H572 H 0.6528 0.65429 0.81632 0.0
C573 C 0.66026 0.65864 0.83324 0.0
H574 H 0.65702 0.66323 0.86445 0.0
H575 H 0.69086 0.65602 0.89331 0.0
O576 O 0.68559 0.70575 0.73645 0.0
C577 C 0.70443 0.68535 0.84851 0.0
Co578 Co 0.56012 0.43535 0.04304 0.0
Co579 Co 0.57655 0.42907 0.12601 0.0
C580 C 0.55149 0.42469 0.13383 0.0
O581 O 0.55005 0.42907 0.09351 0.0
O582 O 0.56157 0.42357 0.15113 0.0
C583 C 0.54336 0.42702 0.98155 0.0
O584 O 0.54398 0.41854 0.01196 0.0
C585 C 0.58928 0.4162 0.19676 0.0
C586 C 0.60448 0.42752 0.20841 0.0
C587 C 0.59944 0.41719 0.22214 0.0
N588 N 0.58844 0.42548 0.16885 0.0
N589 N 0.5975 0.43224 0.17602 0.0
C590 C 0.57996 0.40725 0.20134 0.0
H591 H 0.57697 0.40454 0.16623 0.0
H592 H 0.58279 0.39961 0.22168 0.0
H593 H 0.57246 0.4112 0.21954 0.0
C594 C 0.57726 0.42001 0.99275 0.0
N595 N 0.57331 0.42551 0.0313 0.0
N596 N 0.57993 0.42265 0.06681 0.0
C597 C 0.58818 0.4152 0.05222 0.0
C598 C 0.58675 0.41321 0.00488 0.0
C599 C 0.57167 0.42078 0.94581 0.0
H600 H 0.56389 0.41514 0.94535 0.0
H601 H 0.57764 0.41786 0.91787 0.0
H602 H 0.56887 0.42981 0.93894 0.0
O603 O 0.56439 0.45136 0.06552 0.0
O604 O 0.57585 0.44611 0.12407 0.0
H605 H 0.60393 0.40526 0.06252 0.0
H606 H 0.59351 0.40456 0.10933 0.0
C607 C 0.59748 0.41029 0.08277 0.0
H608 H 0.60203 0.41743 0.10099 0.0
H609 H 0.59892 0.44007 0.15875 0.0
O610 O 0.54999 0.43576 0.98657 0.0
C611 C 0.57083 0.45392 0.10027 0.0
Co612 Co 0.8206 0.30992 0.29418 0.0
Co613 Co 0.82656 0.32713 0.37492 0.0
C614 C 0.83138 0.30226 0.38628 0.0
O615 O 0.82711 0.30037 0.34605 0.0
O616 O 0.83226 0.3125 0.40223 0.0
C617 C 0.82943 0.29311 0.23421 0.0
O618 O 0.83802 0.29437 0.26385 0.0
C619 C 0.83847 0.34068 0.4464 0.0
C620 C 0.82807 0.35677 0.44675 0.0
C621 C 0.83767 0.35155 0.4667 0.0
N622 N 0.82975 0.33957 0.41579 0.0
N623 N 0.82348 0.34914 0.41654 0.0
C624 C 0.84798 0.33197 0.45208 0.0
H625 H 0.84893 0.32671 0.41995 0.0
H626 H 0.85634 0.33629 0.45996 0.0
H627 H 0.84579 0.32608 0.48134 0.0
C628 C 0.83526 0.32719 0.24125 0.0
N629 N 0.83012 0.32323 0.28056 0.0
N630 N 0.83292 0.33012 0.31528 0.0
C631 C 0.84001 0.33854 0.29952 0.0
C632 C 0.84169 0.33709 0.25187 0.0
C633 C 0.83374 0.32182 0.1942 0.0
H634 H 0.82487 0.31825 0.19072 0.0
H635 H 0.84002 0.3146 0.19031 0.0
H636 H 0.83534 0.32823 0.16609 0.0
O637 O 0.8045 0.31401 0.31599 0.0
O638 O 0.80955 0.32609 0.3728 0.0
H639 H 0.83925 0.35379 0.34177 0.0
H640 H 0.85298 0.35179 0.31254 0.0
C641 C 0.84574 0.3473 0.33033 0.0
H642 H 0.84928 0.34294 0.36154 0.0
H643 H 0.81623 0.35056 0.39556 0.0
O644 O 0.82042 0.29935 0.23909 0.0
C645 C 0.80182 0.32073 0.34973 0.0
Co646 Co 0.94617 0.57107 0.54561 0.0
Co647 Co 0.92865 0.57611 0.6265 0.0
C648 C 0.95338 0.58181 0.63834 0.0
O649 O 0.95546 0.57797 0.59751 0.0
O650 O 0.94312 0.582 0.6545 0.0
C651 C 0.96281 0.58019 0.48461 0.0
O652 O 0.96167 0.58877 0.51435 0.0
C653 C 0.91424 0.58722 0.69794 0.0
C654 C 0.8988 0.57589 0.69681 0.0
C655 C 0.90332 0.58576 0.71735 0.0
N656 N 0.916 0.57864 0.66716 0.0
N657 N 0.90682 0.57181 0.66709 0.0
C658 C 0.92242 0.59715 0.70464 0.0
H659 H 0.92816 0.59812 0.67388 0.0
H660 H 0.91759 0.60534 0.71033 0.0
H661 H 0.92791 0.59545 0.73565 0.0
C662 C 0.92845 0.58535 0.49333 0.0
N663 N 0.93254 0.58015 0.53234 0.0
N664 N 0.92558 0.58264 0.5672 0.0
C665 C 0.91698 0.58958 0.55186 0.0
C666 C 0.9184 0.59149 0.50433 0.0
C667 C 0.93388 0.58415 0.44623 0.0
H668 H 0.93767 0.57538 0.44221 0.0
H669 H 0.94094 0.59061 0.44276 0.0
H670 H 0.92744 0.58568 0.41817 0.0
O671 O 0.94263 0.55477 0.56706 0.0
O672 O 0.93013 0.55918 0.62318 0.0
H673 H 0.9018 0.58834 0.59436 0.0
H674 H 0.90344 0.60221 0.56576 0.0
C675 C 0.90812 0.59502 0.58307 0.0
H676 H 0.91244 0.59858 0.61431 0.0
H677 H 0.90592 0.56453 0.64584 0.0
O678 O 0.95665 0.57114 0.49012 0.0
C679 C 0.93584 0.55174 0.60008 0.0
Co680 Co 0.68526 0.31003 0.71083 0.0
Co681 Co 0.6792 0.32671 0.62845 0.0
C682 C 0.67464 0.30176 0.61919 0.0
O683 O 0.67889 0.30018 0.65966 0.0
O684 O 0.67366 0.31189 0.60219 0.0
C685 C 0.67658 0.29335 0.7719 0.0
O686 O 0.66806 0.29423 0.74177 0.0
C687 C 0.66728 0.33996 0.55591 0.0
C688 C 0.67761 0.3561 0.55512 0.0
C689 C 0.66804 0.35079 0.53527 0.0
N690 N 0.67599 0.33896 0.58667 0.0
N691 N 0.68222 0.34856 0.58561 0.0
C692 C 0.65782 0.33119 0.55045 0.0
H693 H 0.65692 0.32595 0.58263 0.0
H694 H 0.64943 0.33547 0.54261 0.0
H695 H 0.66002 0.3253 0.52121 0.0
C696 C 0.67042 0.32741 0.76207 0.0
N697 N 0.67562 0.3233 0.72315 0.0
N698 N 0.67276 0.32996 0.6878 0.0
C699 C 0.66557 0.33839 0.7028 0.0
C700 C 0.66388 0.33717 0.75056 0.0
C701 C 0.67198 0.3223 0.80957 0.0
H702 H 0.6809 0.31887 0.81343 0.0
H703 H 0.6658 0.31502 0.814 0.0
H704 H 0.67029 0.32883 0.83714 0.0
O705 O 0.70134 0.31417 0.68904 0.0
O706 O 0.69623 0.32582 0.63092 0.0
H707 H 0.66617 0.35343 0.65931 0.0
H708 H 0.65244 0.3514 0.68854 0.0
C709 C 0.65975 0.34692 0.6712 0.0
H710 H 0.65629 0.34235 0.64032 0.0
H711 H 0.68944 0.35006 0.60665 0.0
O712 O 0.68548 0.29975 0.76679 0.0
C713 C 0.70399 0.32069 0.65465 0.0
Co714 Co 0.94577 0.43513 0.9613 0.0
Co715 Co 0.92954 0.42894 0.87766 0.0
C716 C 0.9546 0.42453 0.87067 0.0
O717 O 0.95595 0.42888 0.91108 0.0
O718 O 0.94455 0.42341 0.853 0.0
C719 C 0.96227 0.42665 0.02344 0.0
O720 O 0.96166 0.41818 0.99298 0.0
C721 C 0.91687 0.41632 0.8059 0.0
C722 C 0.90168 0.42769 0.7949 0.0
C723 C 0.90672 0.41742 0.78051 0.0
N724 N 0.9177 0.42549 0.83443 0.0
N725 N 0.90865 0.43228 0.82763 0.0
C726 C 0.92619 0.40738 0.8008 0.0
H727 H 0.92901 0.40437 0.83575 0.0
H728 H 0.92343 0.39993 0.77923 0.0
H729 H 0.93379 0.41145 0.78374 0.0
C730 C 0.92846 0.41981 0.01079 0.0
N731 N 0.93254 0.42531 0.97243 0.0
N732 N 0.92601 0.42246 0.93661 0.0
C733 C 0.91772 0.41501 0.95078 0.0
C734 C 0.919 0.41301 0.99819 0.0
C735 C 0.93388 0.4206 0.05804 0.0
H736 H 0.93672 0.42961 0.06491 0.0
H737 H 0.94162 0.4149 0.05907 0.0
H738 H 0.92779 0.41775 0.08566 0.0
O739 O 0.94159 0.45117 0.93903 0.0
O740 O 0.93029 0.44596 0.87993 0.0
H741 H 0.90393 0.41725 0.90177 0.0
H742 H 0.90208 0.40495 0.93958 0.0
C743 C 0.90852 0.4101 0.91975 0.0
H744 H 0.91259 0.4045 0.893 0.0
H745 H 0.90722 0.44003 0.84543 0.0
O746 O 0.95575 0.43545 0.01814 0.0
C747 C 0.93524 0.45376 0.90404 0.0
Co748 Co 0.82121 0.69636 0.20973 0.0
Co749 Co 0.82754 0.68005 0.12653 0.0
C750 C 0.8326 0.70486 0.11964 0.0
O751 O 0.82807 0.70636 0.15974 0.0
O752 O 0.83359 0.69478 0.10211 0.0
C753 C 0.8304 0.71118 0.27697 0.0
O754 O 0.83965 0.70868 0.25222 0.0
C755 C 0.83838 0.66674 0.05078 0.0
C756 C 0.82786 0.65073 0.05267 0.0
C757 C 0.83704 0.65599 0.03001 0.0
N758 N 0.83041 0.66772 0.08467 0.0
N759 N 0.82411 0.65816 0.08543 0.0
C760 C 0.8465 0.67627 0.03717 0.0
H761 H 0.85195 0.67868 0.06753 0.0
H762 H 0.85208 0.67383 0.00728 0.0
H763 H 0.84138 0.68401 0.02725 0.0
C764 C 0.83553 0.67824 0.26055 0.0
N765 N 0.83059 0.6828 0.22183 0.0
N766 N 0.83372 0.67652 0.18575 0.0
C767 C 0.84093 0.66804 0.1998 0.0
C768 C 0.84226 0.66868 0.24792 0.0
C769 C 0.83347 0.68264 0.30889 0.0
H770 H 0.82482 0.68678 0.31129 0.0
H771 H 0.84017 0.68918 0.31752 0.0
H772 H 0.83408 0.67549 0.33463 0.0
O773 O 0.80516 0.69259 0.18675 0.0
O774 O 0.81053 0.68126 0.12806 0.0
H775 H 0.84132 0.65305 0.15606 0.0
H776 H 0.85504 0.65633 0.18336 0.0
C777 C 0.84721 0.66013 0.16703 0.0
H778 H 0.84993 0.66501 0.13567 0.0
H779 H 0.81728 0.6567 0.10855 0.0
O780 O 0.82081 0.70648 0.26598 0.0
C781 C 0.80267 0.68627 0.1516 0.0
Co782 Co 0.55988 0.57126 0.45824 0.0
Co783 Co 0.57754 0.57631 0.37788 0.0
C784 C 0.55268 0.58177 0.36548 0.0
O785 O 0.55054 0.578 0.40631 0.0
O786 O 0.56298 0.582 0.34969 0.0
C787 C 0.54282 0.57998 0.5184 0.0
O788 O 0.54362 0.58845 0.48802 0.0
C789 C 0.59155 0.58806 0.30734 0.0
C790 C 0.60657 0.57622 0.30187 0.0
C791 C 0.60205 0.58647 0.28472 0.0
N792 N 0.59004 0.57919 0.33697 0.0
N793 N 0.599 0.57212 0.33342 0.0
C794 C 0.5826 0.59719 0.2987 0.0
H795 H 0.57484 0.59307 0.2831 0.0
H796 H 0.57989 0.6011 0.33233 0.0
H797 H 0.58567 0.60401 0.27453 0.0
C798 C 0.57707 0.5862 0.51021 0.0
N799 N 0.57334 0.58059 0.47156 0.0
N800 N 0.58045 0.58299 0.437 0.0
C801 C 0.58879 0.59024 0.45228 0.0
C802 C 0.58693 0.59259 0.49909 0.0
C803 C 0.57098 0.58595 0.5562 0.0
H804 H 0.56784 0.57706 0.56363 0.0
H805 H 0.56337 0.59181 0.55465 0.0
H806 H 0.57674 0.58891 0.58477 0.0
O807 O 0.56365 0.55499 0.4368 0.0
O808 O 0.57634 0.55937 0.38128 0.0
H809 H 0.6032 0.58728 0.40697 0.0
H810 H 0.6048 0.59986 0.44347 0.0
C811 C 0.59854 0.59468 0.42285 0.0
H812 H 0.595 0.60013 0.39443 0.0
H813 H 0.59995 0.56451 0.35267 0.0
O814 O 0.54936 0.57117 0.51363 0.0
C815 C 0.57057 0.55194 0.40423 0.0
Co816 Co 0.32127 0.30978 0.20997 0.0
Co817 Co 0.32705 0.32663 0.12784 0.0
C818 C 0.33175 0.3017 0.11789 0.0
O819 O 0.32751 0.3 0.15832 0.0
O820 O 0.33274 0.31188 0.10132 0.0
C821 C 0.3297 0.29275 0.27071 0.0
O822 O 0.33805 0.29311 0.23964 0.0
C823 C 0.33886 0.34019 0.05596 0.0
C824 C 0.32715 0.35529 0.04977 0.0
C825 C 0.33731 0.35058 0.03257 0.0
N826 N 0.33005 0.33891 0.08602 0.0
N827 N 0.32306 0.34792 0.08206 0.0
C828 C 0.34788 0.33111 0.0476 0.0
H829 H 0.35172 0.32837 0.08132 0.0
H830 H 0.35477 0.33406 0.0235 0.0
H831 H 0.34365 0.3234 0.03203 0.0
C832 C 0.33655 0.32691 0.26055 0.0
N833 N 0.33097 0.32304 0.22205 0.0
N834 N 0.33365 0.32983 0.18682 0.0
C835 C 0.34106 0.3381 0.20149 0.0
C836 C 0.34321 0.33653 0.24865 0.0
C837 C 0.336 0.32114 0.30717 0.0
H838 H 0.34159 0.31333 0.30664 0.0
H839 H 0.33909 0.32698 0.33526 0.0
H840 H 0.32699 0.31835 0.31458 0.0
O841 O 0.30512 0.31391 0.18898 0.0
O842 O 0.31005 0.32562 0.13084 0.0
H843 H 0.35114 0.35377 0.19115 0.0
H844 H 0.35114 0.34365 0.14311 0.0
C845 C 0.34579 0.34753 0.17114 0.0
H846 H 0.33853 0.3523 0.15471 0.0
H847 H 0.31549 0.34903 0.10149 0.0
O848 O 0.32108 0.29953 0.26608 0.0
C849 C 0.30237 0.32044 0.15479 0.0
Co850 Co 0.44606 0.57097 0.96043 0.0
Co851 Co 0.42934 0.57695 0.87834 0.0
C852 C 0.45426 0.58197 0.86966 0.0
O853 O 0.45595 0.57766 0.90997 0.0
O854 O 0.4441 0.58281 0.8528 0.0
C855 C 0.46146 0.58011 0.02541 0.0
O856 O 0.45927 0.58919 0.99924 0.0
C857 C 0.41598 0.58904 0.80683 0.0
C858 C 0.4011 0.57716 0.79774 0.0
C859 C 0.40576 0.5875 0.7822 0.0
N860 N 0.41721 0.58004 0.83597 0.0
N861 N 0.40834 0.57295 0.83031 0.0
C862 C 0.42498 0.59824 0.80037 0.0
H863 H 0.43258 0.59436 0.78261 0.0
H864 H 0.42795 0.60142 0.83486 0.0
H865 H 0.42183 0.60555 0.77886 0.0
C866 C 0.42844 0.58578 0.01178 0.0
N867 N 0.43258 0.58046 0.97308 0.0
N868 N 0.42593 0.58329 0.93758 0.0
C869 C 0.41755 0.59058 0.95221 0.0
C870 C 0.41886 0.59248 0.99964 0.0
C871 C 0.43378 0.58487 0.05914 0.0
H872 H 0.43767 0.57617 0.06403 0.0
H873 H 0.44068 0.5915 0.06251 0.0
H874 H 0.42726 0.58648 0.08682 0.0
O875 O 0.44218 0.55487 0.93796 0.0
O876 O 0.43041 0.55996 0.88027 0.0
H877 H 0.40363 0.58824 0.90392 0.0
H878 H 0.40184 0.60058 0.94155 0.0
C879 C 0.40824 0.59542 0.92153 0.0
H880 H 0.41222 0.601 0.89445 0.0
H881 H 0.40723 0.56523 0.84872 0.0
O882 O 0.45637 0.5706 0.01613 0.0
C883 C 0.43564 0.55222 0.90364 0.0
Co884 Co 0.18461 0.69623 0.71049 0.0
Co885 Co 0.17972 0.67907 0.62808 0.0
C886 C 0.17474 0.70424 0.61824 0.0
O887 O 0.17819 0.70612 0.6597 0.0
O888 O 0.17461 0.69404 0.60149 0.0
C889 C 0.17621 0.71308 0.77248 0.0
O890 O 0.16787 0.71295 0.7413 0.0
C891 C 0.16744 0.66521 0.55738 0.0
C892 C 0.18044 0.65157 0.54351 0.0
C893 C 0.16951 0.65538 0.53094 0.0
N894 N 0.17672 0.66706 0.58472 0.0
N895 N 0.18444 0.65888 0.57622 0.0
C896 C 0.15714 0.67308 0.55469 0.0
H897 H 0.15901 0.68158 0.57072 0.0
H898 H 0.14977 0.66917 0.57378 0.0
H899 H 0.15447 0.67427 0.51781 0.0
C900 C 0.16932 0.67888 0.75989 0.0
N901 N 0.17506 0.68279 0.72181 0.0
N902 N 0.17287 0.67578 0.68669 0.0
C903 C 0.16573 0.66726 0.70123 0.0
C904 C 0.16312 0.66896 0.74792 0.0
C905 C 0.1693 0.68486 0.80615 0.0
H906 H 0.16376 0.69269 0.80391 0.0
H907 H 0.16585 0.67917 0.83405 0.0
H908 H 0.17822 0.68765 0.81515 0.0
O909 O 0.20088 0.69237 0.68917 0.0
O910 O 0.19666 0.67991 0.63263 0.0
H911 H 0.15777 0.65039 0.6928 0.0
H912 H 0.15537 0.66049 0.64595 0.0
C913 C 0.16181 0.65734 0.67159 0.0
H914 H 0.16928 0.65365 0.65248 0.0
H915 H 0.19249 0.65832 0.59263 0.0
O916 O 0.18477 0.70625 0.76734 0.0
C917 C 0.20403 0.68556 0.6564 0.0
Co918 Co 0.06019 0.43502 0.46076 0.0
Co919 Co 0.07663 0.42929 0.3772 0.0
C920 C 0.05165 0.42445 0.36965 0.0
O921 O 0.05019 0.42868 0.41022 0.0
O922 O 0.06173 0.42355 0.35204 0.0
C923 C 0.04355 0.42647 0.52272 0.0
O924 O 0.04399 0.41806 0.49193 0.0
C925 C 0.08985 0.41712 0.30548 0.0
C926 C 0.10458 0.4291 0.29494 0.0
C927 C 0.09999 0.41864 0.28033 0.0
N928 N 0.0886 0.42624 0.33405 0.0
N929 N 0.09738 0.43339 0.32748 0.0
C930 C 0.08093 0.40779 0.30018 0.0
H931 H 0.07313 0.41156 0.28351 0.0
H932 H 0.07829 0.40457 0.33504 0.0
H933 H 0.084 0.40053 0.27821 0.0
C934 C 0.07762 0.41985 0.51005 0.0
N935 N 0.07356 0.42539 0.4718 0.0
N936 N 0.08021 0.42276 0.43609 0.0
C937 C 0.08862 0.41544 0.45028 0.0
C938 C 0.08725 0.41328 0.49755 0.0
C939 C 0.07201 0.42034 0.55699 0.0
H940 H 0.06918 0.42933 0.56462 0.0
H941 H 0.06423 0.4147 0.55684 0.0
H942 H 0.07795 0.41729 0.58477 0.0
O943 O 0.06414 0.45117 0.43914 0.0
O944 O 0.07559 0.44629 0.38009 0.0
H945 H 0.10234 0.41816 0.40128 0.0
H946 H 0.10467 0.40603 0.43953 0.0
C947 C 0.09804 0.41087 0.41947 0.0
H948 H 0.09422 0.40505 0.39288 0.0
H949 H 0.09848 0.44119 0.34537 0.0
O950 O 0.05018 0.43519 0.51756 0.0
C951 C 0.07049 0.45394 0.40442 0.0
Co952 Co 0.32027 0.69584 0.29332 0.0
Co953 Co 0.32665 0.67922 0.37556 0.0
C954 C 0.33147 0.70408 0.38409 0.0
O955 O 0.32689 0.70568 0.34419 0.0
O956 O 0.33262 0.69395 0.40086 0.0
C957 C 0.32905 0.71216 0.23121 0.0
O958 O 0.33776 0.71086 0.26025 0.0
C959 C 0.33795 0.6659 0.44984 0.0
C960 C 0.32771 0.64971 0.44833 0.0
C961 C 0.33695 0.65506 0.47019 0.0
N962 N 0.32975 0.66682 0.41686 0.0
N963 N 0.3236 0.65717 0.41637 0.0
C964 C 0.346 0.67553 0.46296 0.0
H965 H 0.3408 0.68315 0.47381 0.0
H966 H 0.35119 0.67812 0.43211 0.0
H967 H 0.35181 0.67314 0.49215 0.0
C968 C 0.33493 0.6783 0.24158 0.0
N969 N 0.32981 0.68248 0.28059 0.0
N970 N 0.33282 0.67591 0.316 0.0
C971 C 0.34006 0.66753 0.30109 0.0
C972 C 0.34159 0.66862 0.25321 0.0
C973 C 0.33323 0.68329 0.19397 0.0
H974 H 0.32436 0.68689 0.19064 0.0
H975 H 0.33953 0.69042 0.18861 0.0
H976 H 0.33465 0.67663 0.16665 0.0
O977 O 0.30422 0.69186 0.31612 0.0
O978 O 0.30964 0.68039 0.37435 0.0
H979 H 0.34006 0.65233 0.34366 0.0
H980 H 0.35382 0.65526 0.31599 0.0
C981 C 0.34616 0.65925 0.33293 0.0
H982 H 0.34913 0.66389 0.36452 0.0
H983 H 0.31667 0.65564 0.39386 0.0
O984 O 0.31995 0.70611 0.23734 0.0
C985 C 0.30176 0.68546 0.35111 0.0
Co986 Co 0.0597 0.57073 0.04395 0.0
Co987 Co 0.07659 0.57711 0.12503 0.0
C988 C 0.05181 0.58215 0.13493 0.0
O989 O 0.05007 0.57766 0.0949 0.0
O990 O 0.06199 0.58312 0.15149 0.0
C991 C 0.04458 0.57996 0.9782 0.0
O992 O 0.04725 0.58917 0.0029 0.0
C993 C 0.09091 0.58855 0.19628 0.0
C994 C 0.10671 0.57773 0.19292 0.0
C995 C 0.102 0.58738 0.21443 0.0
N996 N 0.08924 0.58001 0.16521 0.0
N997 N 0.09864 0.57349 0.16384 0.0
C998 C 0.08249 0.5982 0.2045 0.0
H999 H 0.07666 0.59925 0.17408 0.0
H1000 H 0.08711 0.60647 0.21111 0.0
H1001 H 0.07713 0.59611 0.23548 0.0
C1002 C 0.07743 0.58491 0.99047 0.0
N1003 N 0.07318 0.58005 0.02993 0.0
N1004 N 0.07977 0.58319 0.06509 0.0
C1005 C 0.0882 0.5903 0.04957 0.0
C1006 C 0.08713 0.59159 1.00156 0.0
C1007 C 0.0726 0.58285 0.9428 0.0
H1008 H 0.06848 0.57419 0.94093 0.0
H1009 H 0.06596 0.58953 0.93517 0.0
H1010 H 0.07951 0.58351 0.91602 0.0
O1011 O 0.06356 0.5547 0.06686 0.0
O1012 O 0.07532 0.5601 0.12411 0.0
H1013 H 0.10334 0.59042 0.09254 0.0
H1014 H 0.10063 0.60401 0.06322 0.0
C1015 C 0.09651 0.59652 0.08085 0.0
H1016 H 0.09186 0.5998 0.11182 0.0
H1017 H 0.09965 0.56633 0.14204 0.0
O1018 O 0.04923 0.57032 0.9888 0.0
C1019 C 0.0701 0.55223 0.10138 0.0
Co1020 Co 0.18608 0.31052 0.79206 0.0
Co1021 Co 0.17951 0.32672 0.87544 0.0
C1022 C 0.17505 0.30178 0.88249 0.0
O1023 O 0.17961 0.30045 0.84239 0.0
O1024 O 0.17378 0.31181 0.90011 0.0
C1025 C 0.17748 0.29424 0.72928 0.0
O1026 O 0.16885 0.29514 0.7589 0.0
C1027 C 0.16816 0.33976 0.95056 0.0
C1028 C 0.17827 0.35603 0.94947 0.0
C1029 C 0.1691 0.35055 0.97134 0.0
N1030 N 0.17632 0.33898 0.91737 0.0
N1031 N 0.18239 0.34868 0.91713 0.0
C1032 C 0.1602 0.33004 0.96344 0.0
H1033 H 0.16545 0.32239 0.97337 0.0
H1034 H 0.15489 0.32758 0.93273 0.0
H1035 H 0.15449 0.33228 0.99317 0.0
C1036 C 0.17125 0.32803 0.74147 0.0
N1037 N 0.17639 0.32378 0.78027 0.0
N1038 N 0.17326 0.33016 0.81608 0.0
C1039 C 0.16591 0.33849 0.80159 0.0
C1040 C 0.16443 0.33756 0.75361 0.0
C1041 C 0.17312 0.32328 0.69356 0.0
H1042 H 0.18205 0.31984 0.69024 0.0
H1043 H 0.16694 0.31607 0.68752 0.0
H1044 H 0.17164 0.33003 0.66666 0.0
O1045 O 0.20207 0.31463 0.81476 0.0
O1046 O 0.19656 0.32578 0.87382 0.0
H1047 H 0.16566 0.35358 0.84478 0.0
H1048 H 0.15194 0.35045 0.81719 0.0
C1049 C 0.15968 0.34657 0.83387 0.0
H1050 H 0.15684 0.3418 0.86533 0.0
H1051 H 0.18929 0.35032 0.89453 0.0
O1052 O 0.18645 0.30048 0.73544 0.0
C1053 C 0.20448 0.32092 0.85008 0.0
Co1054 Co 0.44578 0.4355 0.54302 0.0
Co1055 Co 0.42906 0.42956 0.62539 0.0
C1056 C 0.4539 0.42473 0.63488 0.0
O1057 O 0.45548 0.42902 0.59445 0.0
O1058 O 0.44377 0.42376 0.65196 0.0
C1059 C 0.46241 0.42676 0.48158 0.0
O1060 O 0.46167 0.41825 0.51184 0.0
C1061 C 0.41498 0.4183 0.69779 0.0
C1062 C 0.39925 0.42923 0.69563 0.0
C1063 C 0.40401 0.41957 0.71693 0.0
N1064 N 0.41654 0.4268 0.66642 0.0
N1065 N 0.40718 0.43337 0.66574 0.0
C1066 C 0.42339 0.40862 0.70543 0.0
H1067 H 0.4291 0.40755 0.67462 0.0
H1068 H 0.41876 0.40037 0.71231 0.0
H1069 H 0.42889 0.41068 0.73606 0.0
C1070 C 0.42834 0.42076 0.49176 0.0
N1071 N 0.43244 0.42599 0.53064 0.0
N1072 N 0.42578 0.42315 0.566 0.0
C1073 C 0.41736 0.41593 0.55109 0.0
C1074 C 0.41859 0.41421 0.50334 0.0
C1075 C 0.43348 0.42226 0.44428 0.0
H1076 H 0.43693 0.43117 0.44031 0.0
H1077 H 0.44074 0.41607 0.43998 0.0
H1078 H 0.42695 0.42056 0.41669 0.0
O1079 O 0.44184 0.45163 0.56447 0.0
O1080 O 0.43028 0.44656 0.6229 0.0
H1081 H 0.40228 0.41642 0.59436 0.0
H1082 H 0.40452 0.40266 0.56567 0.0
C1083 C 0.40889 0.41007 0.5828 0.0
H1084 H 0.41348 0.40676 0.61388 0.0
H1085 H 0.40611 0.44053 0.64392 0.0
O1086 O 0.45602 0.43564 0.48702 0.0
C1087 C 0.43542 0.4543 0.59911 0.0
C1088 C 0.10087 0.10108 0.71565 0.0
C1089 C 0.10704 0.09595 0.75242 0.0
C1090 C 0.10634 0.10891 0.68583 0.0
C1091 C 0.13164 0.12823 0.67855 0.0
H1092 H 0.1281 0.12465 0.54485 0.0
C1093 C 0.16396 0.14698 0.54706 0.0
C1094 C 0.15964 0.15167 0.50551 0.0
C1095 C 0.15652 0.14149 0.57831 0.0
C1096 C 0.12901 0.1259 0.5821 0.0
H1097 H 0.12376 0.09472 0.78644 0.0
H1098 H 0.13336 0.1083 0.73411 0.0
H1099 H 0.11684 0.11246 0.59744 0.0
H1100 H 0.14435 0.15397 0.46273 0.0
H1101 H 0.13122 0.14459 0.51796 0.0
H1102 H 0.14398 0.1415 0.66325 0.0
C1103 C 0.12425 0.10646 0.72883 0.0
C1104 C 0.12258 0.11892 0.61217 0.0
C1105 C 0.1188 0.09861 0.75844 0.0
C1106 C 0.14779 0.15075 0.49538 0.0
C1107 C 0.14033 0.14524 0.5266 0.0
C1108 C 0.13805 0.13522 0.64852 0.0
C1109 C 0.11807 0.11172 0.69237 0.0
C1110 C 0.12401 0.11986 0.66063 0.0
C1111 C 0.14465 0.1405 0.56824 0.0
C1112 C 0.13697 0.13396 0.60001 0.0
H1113 H 0.09186 0.09895 0.70958 0.0
H1114 H 0.10139 0.11283 0.65789 0.0
H1115 H 0.13275 0.12926 0.71582 0.0
H1116 H 0.17312 0.14746 0.55517 0.0
H1117 H 0.16013 0.13772 0.6097 0.0
C1118 C 0.09918 0.90122 0.77857 0.0
C1119 C 0.10559 0.90814 0.74769 0.0
C1120 C 0.10475 0.893 0.80636 0.0
C1121 C 0.132 0.8765 0.81704 0.0
H1122 H 0.12481 0.87611 0.94912 0.0
C1123 C 0.16344 0.85926 0.95526 0.0
C1124 C 0.1589 0.85306 0.99306 0.0
C1125 C 0.15605 0.86431 0.92266 0.0
C1126 C 0.12677 0.87595 0.91219 0.0
H1127 H 0.1228 0.91202 0.72177 0.0
H1128 H 0.13255 0.89779 0.77061 0.0
H1129 H 0.1133 0.88805 0.89659 0.0
H1130 H 0.14316 0.84758 0.02778 0.0
H1131 H 0.13017 0.85621 0.97017 0.0
H1132 H 0.14567 0.86463 0.83285 0.0
C1133 C 0.12321 0.89854 0.77277 0.0
C1134 C 0.12018 0.88278 0.88214 0.0
C1135 C 0.11765 0.90676 0.74521 0.0
C1136 C 0.14686 0.85201 0.99802 0.0
C1137 C 0.13944 0.85708 0.96546 0.0
C1138 C 0.13858 0.86966 0.84707 0.0
C1139 C 0.11682 0.89159 0.80367 0.0
C1140 C 0.1229 0.88332 0.83447 0.0
C1141 C 0.14397 0.86335 0.92766 0.0
C1142 C 0.1362 0.86952 0.89508 0.0
H1143 H 0.08991 0.90231 0.78202 0.0
H1144 H 0.09963 0.88777 0.82998 0.0
H1145 H 0.13415 0.87661 0.78028 0.0
H1146 H 0.17272 0.86029 0.95118 0.0
H1147 H 0.15979 0.86928 0.89438 0.0
C1148 C 0.4009 0.89949 0.24868 0.0
C1149 C 0.40042 0.9116 0.24503 0.0
C1150 C 0.39485 0.89255 0.21715 0.0
C1151 C 0.36957 0.89364 0.14015 0.0
H1152 H 0.38194 0.86496 0.0904 0.0
C1153 C 0.34062 0.86119 0.04422 0.0
C1154 C 0.34508 0.85643 0.00302 0.0
C1155 C 0.34781 0.86736 0.07429 0.0
C1156 C 0.3784 0.87298 0.10385 0.0
H1157 H 0.39337 0.92601 0.20608 0.0
H1158 H 0.3829 0.91391 0.15037 0.0
H1159 H 0.39414 0.87722 0.13952 0.0
H1160 H 0.36035 0.85466 0.95974 0.0
H1161 H 0.37301 0.86544 0.01245 0.0
H1162 H 0.35393 0.88956 0.10399 0.0
C1163 C 0.38788 0.90976 0.17768 0.0
C1164 C 0.38535 0.87994 0.13222 0.0
C1165 C 0.3939 0.91668 0.20929 0.0
C1166 C 0.35683 0.85791 0.99221 0.0
C1167 C 0.36404 0.86412 0.02223 0.0
C1168 C 0.36265 0.88671 0.11186 0.0
C1169 C 0.38816 0.89763 0.18171 0.0
C1170 C 0.38099 0.89034 0.15065 0.0
C1171 C 0.35957 0.86902 0.0633 0.0
C1172 C 0.36697 0.87629 0.09354 0.0
H1173 H 0.40557 0.89539 0.27698 0.0
H1174 H 0.39506 0.88324 0.22164 0.0
H1175 H 0.36591 0.90153 0.15436 0.0
H1176 H 0.33154 0.8602 0.05298 0.0
H1177 H 0.34416 0.87092 0.10599 0.0
C1178 C 0.39377 0.0898 0.29317 0.0
C1179 C 0.39859 0.09424 0.25208 0.0
C1180 C 0.3875 0.09699 0.32293 0.0
C1181 C 0.38194 0.12758 0.35212 0.0
H1182 H 0.35345 0.11517 0.40356 0.0
C1183 C 0.35594 0.15008 0.49826 0.0
C1184 C 0.34382 0.14964 0.49528 0.0
C1185 C 0.36274 0.14403 0.46629 0.0
C1186 C 0.36132 0.11881 0.38907 0.0
H1187 H 0.40034 0.10947 0.20851 0.0
H1188 H 0.3894 0.12212 0.26067 0.0
H1189 H 0.36528 0.10316 0.35274 0.0
H1190 H 0.32923 0.14265 0.45709 0.0
H1191 H 0.34111 0.13218 0.40061 0.0
H1192 H 0.37783 0.14332 0.38798 0.0
C1193 C 0.39074 0.11317 0.27063 0.0
C1194 C 0.36818 0.11187 0.36052 0.0
C1195 C 0.39703 0.10597 0.24093 0.0
C1196 C 0.33858 0.14315 0.45978 0.0
C1197 C 0.34537 0.13713 0.42773 0.0
C1198 C 0.37506 0.13454 0.38073 0.0
C1199 C 0.38582 0.10873 0.31171 0.0
C1200 C 0.37858 0.11617 0.34193 0.0
C1201 C 0.35752 0.13737 0.43107 0.0
C1202 C 0.36469 0.1302 0.39954 0.0
H1203 H 0.39482 0.08075 0.30217 0.0
H1204 H 0.38392 0.09336 0.35464 0.0
H1205 H 0.38995 0.13109 0.33847 0.0
H1206 H 0.36015 0.15473 0.52635 0.0
H1207 H 0.37207 0.1442 0.47027 0.0
C1208 C 0.84642 0.87008 0.50885 0.0
C1209 C 0.84516 0.85802 0.50596 0.0
C1210 C 0.85427 0.87582 0.48012 0.0
C1211 C 0.86919 0.87315 0.36834 0.0
H1212 H 0.8879 0.89837 0.41647 0.0
C1213 C 0.90079 0.89865 0.25197 0.0
C1214 C 0.90026 0.91073 0.25655 0.0
C1215 C 0.8953 0.89153 0.28443 0.0
C1216 C 0.88269 0.89137 0.40256 0.0
H1217 H 0.85072 0.84254 0.46952 0.0
H1218 H 0.86463 0.85256 0.41975 0.0
H1219 H 0.87597 0.88701 0.46981 0.0
H1220 H 0.89346 0.92493 0.29748 0.0
H1221 H 0.88372 0.9125 0.3542 0.0
H1222 H 0.87571 0.87765 0.30098 0.0
C1223 C 0.85961 0.85755 0.44451 0.0
C1224 C 0.87587 0.88488 0.43302 0.0
C1225 C 0.85176 0.8518 0.47338 0.0
C1226 C 0.89409 0.91561 0.29374 0.0
C1227 C 0.88861 0.90851 0.32626 0.0
C1228 C 0.876 0.87963 0.33787 0.0
C1229 C 0.86094 0.86962 0.44766 0.0
C1230 C 0.86891 0.87584 0.41607 0.0
C1231 C 0.88911 0.8964 0.32175 0.0
C1232 C 0.88267 0.88892 0.3546 0.0
H1233 H 0.84138 0.87508 0.53357 0.0
H1234 H 0.85496 0.88516 0.48271 0.0
H1235 H 0.8638 0.86631 0.35423 0.0
H1236 H 0.9052 0.8947 0.22265 0.0
H1237 H 0.89583 0.88222 0.28013 0.0
C1238 C 0.83815 0.14132 0.03884 0.0
C1239 C 0.84332 0.14749 0.00222 0.0
C1240 C 0.84497 0.13509 0.07015 0.0
C1241 C 0.8747 0.13206 0.11477 0.0
H1242 H 0.86451 0.10107 0.14717 0.0
C1243 C 0.89617 0.10444 0.25888 0.0
C1244 C 0.89788 0.09267 0.24875 0.0
C1245 C 0.88989 0.11144 0.22831 0.0
C1246 C 0.8675 0.10968 0.13818 0.0
H1247 H 0.85955 0.15159 0.96803 0.0
H1248 H 0.87152 0.14079 0.02315 0.0
H1249 H 0.85275 0.11287 0.09507 0.0
H1250 H 0.89429 0.07889 0.19965 0.0
H1251 H 0.88334 0.09113 0.14592 0.0
H1252 H 0.88956 0.12876 0.15747 0.0
C1253 C 0.86224 0.14104 0.02843 0.0
C1254 C 0.86071 0.11648 0.10883 0.0
C1255 C 0.8554 0.14726 0.99709 0.0
C1256 C 0.89314 0.08797 0.20792 0.0
C1257 C 0.88685 0.09496 0.17739 0.0
C1258 C 0.88149 0.12526 0.14431 0.0
C1259 C 0.85707 0.13482 0.06506 0.0
C1260 C 0.86424 0.12773 0.09682 0.0
C1261 C 0.8851 0.10674 0.18745 0.0
C1262 C 0.87797 0.11399 0.15615 0.0
H1263 H 0.82883 0.14132 0.04319 0.0
H1264 H 0.84077 0.13046 0.0983 0.0
H1265 H 0.87759 0.14073 0.10629 0.0
H1266 H 0.89938 0.10814 0.29109 0.0
H1267 H 0.88849 0.12044 0.23735 0.0
C1268 C 0.61142 0.08862 0.79645 0.0
C1269 C 0.60502 0.0941 0.76124 0.0
C1270 C 0.61732 0.09518 0.82958 0.0
C1271 C 0.6199 0.12446 0.88036 0.0
H1272 H 0.65135 0.11452 0.90621 0.0
C1273 C 0.65369 0.15287 0.97618 0.0
C1274 C 0.66071 0.14722 0.00905 0.0
C1275 C 0.64619 0.1465 0.94784 0.0
C1276 C 0.64254 0.11733 0.89982 0.0
H1277 H 0.59995 0.11063 0.732 0.0
H1278 H 0.61028 0.12216 0.79006 0.0
H1279 H 0.63928 0.1031 0.85416 0.0
H1280 H 0.6654 0.13057 0.03837 0.0
H1281 H 0.6523 0.11946 0.98911 0.0
H1282 H 0.62328 0.1388 0.92581 0.0
C1283 C 0.61047 0.11281 0.79287 0.0
C1284 C 0.63562 0.11078 0.87008 0.0
C1285 C 0.60453 0.10623 0.75979 0.0
C1286 C 0.66011 0.13513 0.01313 0.0
C1287 C 0.65264 0.12878 0.98492 0.0
C1288 C 0.62685 0.13104 0.91018 0.0
C1289 C 0.61707 0.10734 0.82766 0.0
C1290 C 0.62423 0.11426 0.86011 0.0
C1291 C 0.64567 0.13438 0.95173 0.0
C1292 C 0.63822 0.12751 0.92024 0.0
H1293 H 0.61194 0.07926 0.79803 0.0
H1294 H 0.62222 0.09073 0.85636 0.0
H1295 H 0.61112 0.12729 0.87352 0.0
H1296 H 0.65421 0.16215 0.97134 0.0
H1297 H 0.64105 0.15102 0.922 0.0
C1298 C 0.66406 0.86004 0.54661 0.0
C1299 C 0.65933 0.85369 0.50956 0.0
C1300 C 0.65682 0.86528 0.57928 0.0
C1301 C 0.62767 0.87713 0.59077 0.0
H1302 H 0.63532 0.87796 0.72241 0.0
C1303 C 0.60013 0.90227 0.72483 0.0
C1304 C 0.60649 0.90914 0.75608 0.0
C1305 C 0.60576 0.89415 0.69675 0.0
C1306 C 0.6331 0.87782 0.68571 0.0
H1307 H 0.64343 0.84815 0.47622 0.0
H1308 H 0.63072 0.85714 0.53394 0.0
H1309 H 0.64673 0.86591 0.66969 0.0
H1310 H 0.62366 0.91307 0.78219 0.0
H1311 H 0.63352 0.89904 0.73274 0.0
H1312 H 0.61423 0.88926 0.60654 0.0
C1313 C 0.64001 0.85797 0.53801 0.0
C1314 C 0.63962 0.87093 0.65561 0.0
C1315 C 0.64726 0.8527 0.50541 0.0
C1316 C 0.61856 0.90784 0.75849 0.0
C1317 C 0.62418 0.89973 0.73058 0.0
C1318 C 0.62115 0.88402 0.62088 0.0
C1319 C 0.64472 0.86438 0.57507 0.0
C1320 C 0.6371 0.8707 0.60772 0.0
C1321 C 0.61784 0.89281 0.69941 0.0
C1322 C 0.62396 0.88461 0.66846 0.0
H1323 H 0.67336 0.86102 0.55004 0.0
H1324 H 0.66069 0.87035 0.60699 0.0
H1325 H 0.62562 0.87723 0.55392 0.0
H1326 H 0.59086 0.90331 0.72135 0.0
H1327 H 0.60067 0.88894 0.67295 0.0
C1328 C 0.66088 0.63559 0.99442 0.0
C1329 C 0.66259 0.64753 1.00025 0.0
C1330 C 0.65393 0.62943 0.02541 0.0
C1331 C 0.63085 0.63268 0.11244 0.0
H1332 H 0.64175 0.60259 0.15364 0.0
C1333 C 0.60882 0.60595 0.25855 0.0
C1334 C 0.60781 0.594 0.25056 0.0
C1335 C 0.61508 0.61289 0.22764 0.0
C1336 C 0.63853 0.61092 0.14204 0.0
H1337 H 0.65872 0.66235 0.04398 0.0
H1338 H 0.64646 0.65157 0.09822 0.0
H1339 H 0.65364 0.61407 0.10101 0.0
H1340 H 0.61251 0.57986 0.20479 0.0
H1341 H 0.62337 0.59198 0.15041 0.0
H1342 H 0.61571 0.62948 0.15371 0.0
C1343 C 0.65031 0.64704 0.06901 0.0
C1344 C 0.64534 0.61749 0.11197 0.0
C1345 C 0.65728 0.65322 0.03788 0.0
C1346 C 0.61313 0.58908 0.21139 0.0
C1347 C 0.61938 0.59599 0.18052 0.0
C1348 C 0.62402 0.62609 0.14264 0.0
C1349 C 0.64863 0.63508 0.06314 0.0
C1350 C 0.64153 0.62839 0.09652 0.0
C1351 C 0.62052 0.60794 0.18862 0.0
C1352 C 0.62776 0.6151 0.15735 0.0
H1353 H 0.66483 0.631 0.96557 0.0
H1354 H 0.65265 0.62025 0.01962 0.0
H1355 H 0.62766 0.64101 0.10074 0.0
H1356 H 0.60512 0.60986 0.28949 0.0
H1357 H 0.61598 0.62204 0.23514 0.0
C1358 C 0.60543 0.39725 0.24526 0.0
C1359 C 0.60441 0.40906 0.25602 0.0
C1360 C 0.61082 0.3897 0.27645 0.0
C1361 C 0.62036 0.38707 0.39893 0.0
H1362 H 0.64341 0.36611 0.3482 0.0
C1363 C 0.65701 0.36807 0.50925 0.0
C1364 C 0.65981 0.35635 0.50313 0.0
C1365 C 0.64909 0.37344 0.47968 0.0
C1366 C 0.63687 0.37177 0.36281 0.0
H1367 H 0.60834 0.42237 0.30673 0.0
H1368 H 0.6179 0.40923 0.36117 0.0
H1369 H 0.63132 0.37743 0.29544 0.0
H1370 H 0.65698 0.34115 0.46028 0.0
H1371 H 0.643 0.35054 0.40855 0.0
H1372 H 0.62615 0.38164 0.46633 0.0
C1373 C 0.61428 0.40572 0.32933 0.0
C1374 C 0.62994 0.37824 0.33265 0.0
C1375 C 0.6089 0.41325 0.29813 0.0
C1376 C 0.65475 0.35012 0.46637 0.0
C1377 C 0.64685 0.35552 0.43656 0.0
C1378 C 0.6273 0.38062 0.42906 0.0
C1379 C 0.61536 0.39388 0.31867 0.0
C1380 C 0.62179 0.38612 0.35045 0.0
C1381 C 0.64392 0.36721 0.44315 0.0
C1382 C 0.63578 0.3731 0.41127 0.0
H1383 H 0.60236 0.39391 0.2122 0.0
H1384 H 0.61154 0.38063 0.26733 0.0
H1385 H 0.614 0.39292 0.41358 0.0
H1386 H 0.66084 0.37306 0.53727 0.0
H1387 H 0.64715 0.38252 0.48501 0.0
C1388 C 0.90073 0.39756 0.75635 0.0
C1389 C 0.90173 0.40941 0.74624 0.0
C1390 C 0.89525 0.39013 0.72497 0.0
C1391 C 0.88533 0.3879 0.60287 0.0
H1392 H 0.86237 0.36687 0.65378 0.0
C1393 C 0.84859 0.3689 0.49278 0.0
C1394 C 0.84585 0.35716 0.49889 0.0
C1395 C 0.85649 0.3743 0.52235 0.0
C1396 C 0.86888 0.37256 0.63909 0.0
H1397 H 0.8977 0.42289 0.69644 0.0
H1398 H 0.88798 0.40996 0.64164 0.0
H1399 H 0.87462 0.37805 0.70644 0.0
H1400 H 0.84872 0.34199 0.54185 0.0
H1401 H 0.86268 0.35142 0.59346 0.0
H1402 H 0.87937 0.38264 0.53551 0.0
C1403 C 0.89168 0.40633 0.67313 0.0
C1404 C 0.8759 0.37894 0.66921 0.0
C1405 C 0.89714 0.41374 0.70453 0.0
C1406 C 0.85092 0.35097 0.53571 0.0
C1407 C 0.8588 0.35639 0.56548 0.0
C1408 C 0.8783 0.38154 0.57278 0.0
C1409 C 0.8906 0.39447 0.68321 0.0
C1410 C 0.88403 0.38684 0.65136 0.0
C1411 C 0.8617 0.36809 0.55886 0.0
C1412 C 0.86986 0.37398 0.59064 0.0
H1413 H 0.90387 0.3941 0.78911 0.0
H1414 H 0.89453 0.38103 0.73361 0.0
H1415 H 0.89167 0.39378 0.58818 0.0
H1416 H 0.84474 0.37387 0.46474 0.0
H1417 H 0.8584 0.38339 0.51701 0.0
C1418 C 0.90258 0.59952 0.78506 0.0
C1419 C 0.89693 0.59353 0.74903 0.0
C1420 C 0.89634 0.60688 0.81442 0.0
C1421 C 0.86702 0.61198 0.85829 0.0
H1422 H 0.87834 0.6427 0.8885 0.0
C1423 C 0.83877 0.64426 0.95791 0.0
C1424 C 0.84415 0.65049 0.9938 0.0
C1425 C 0.8454 0.63802 0.92602 0.0
C1426 C 0.87513 0.63411 0.88067 0.0
H1427 H 0.88035 0.59036 0.71584 0.0
H1428 H 0.86946 0.60314 0.76719 0.0
H1429 H 0.88977 0.63012 0.83761 0.0
H1430 H 0.86058 0.65495 0.02557 0.0
H1431 H 0.87224 0.64399 0.96988 0.0
H1432 H 0.85248 0.61582 0.9016 0.0
C1433 C 0.87869 0.60216 0.77277 0.0
C1434 C 0.88166 0.62692 0.85163 0.0
C1435 C 0.88492 0.59486 0.7434 0.0
C1436 C 0.85627 0.65049 0.99723 0.0
C1437 C 0.86292 0.64419 0.96548 0.0
C1438 C 0.86053 0.61912 0.88739 0.0
C1439 C 0.88434 0.60824 0.80854 0.0
C1440 C 0.87762 0.61582 0.84003 0.0
C1441 C 0.85754 0.63775 0.92998 0.0
C1442 C 0.86447 0.63028 0.8987 0.0
H1443 H 0.91175 0.59837 0.79123 0.0
H1444 H 0.90085 0.61132 0.84229 0.0
H1445 H 0.8638 0.60338 0.85053 0.0
H1446 H 0.82941 0.64412 0.95484 0.0
H1447 H 0.84102 0.63329 0.89861 0.0
C1448 C 0.38591 0.40994 0.74284 0.0
C1449 C 0.39781 0.41182 0.74919 0.0
C1450 C 0.37982 0.40277 0.77318 0.0
C1451 C 0.38326 0.37949 0.85926 0.0
H1452 H 0.35297 0.38987 0.90024 0.0
C1453 C 0.35676 0.35718 0.00544 0.0
C1454 C 0.34481 0.35612 0.99772 0.0
C1455 C 0.36364 0.36339 0.97417 0.0
C1456 C 0.36135 0.38679 0.88866 0.0
H1457 H 0.41262 0.40804 0.79314 0.0
H1458 H 0.40193 0.39541 0.84632 0.0
H1459 H 0.36432 0.40202 0.84818 0.0
H1460 H 0.3306 0.3606 0.9519 0.0
H1461 H 0.34262 0.37136 0.89686 0.0
H1462 H 0.38024 0.36424 0.9001 0.0
C1463 C 0.3974 0.39929 0.81717 0.0
C1464 C 0.36785 0.39375 0.85892 0.0
C1465 C 0.40352 0.40647 0.78668 0.0
C1466 C 0.33983 0.36127 0.9583 0.0
C1467 C 0.34668 0.36746 0.92705 0.0
C1468 C 0.37673 0.37251 0.88915 0.0
C1469 C 0.38547 0.39743 0.81079 0.0
C1470 C 0.37883 0.39013 0.8436 0.0
C1471 C 0.35863 0.36872 0.93503 0.0
C1472 C 0.36568 0.37606 0.90378 0.0
H1473 H 0.38132 0.41392 0.71406 0.0
H1474 H 0.37067 0.40136 0.767 0.0
H1475 H 0.39166 0.37645 0.84766 0.0
H1476 H 0.36072 0.35361 0.03652 0.0
H1477 H 0.37279 0.36439 0.98155 0.0
C1478 C 0.39881 0.60701 0.75773 0.0
C1479 C 0.40032 0.59521 0.74792 0.0
C1480 C 0.39266 0.61406 0.72694 0.0
C1481 C 0.37011 0.61212 0.63751 0.0
H1482 H 0.37931 0.64359 0.60799 0.0
C1483 C 0.3396 0.64306 0.54118 0.0
C1484 C 0.3445 0.64959 0.50505 0.0
C1485 C 0.34668 0.63705 0.57223 0.0
C1486 C 0.37667 0.63479 0.61578 0.0
H1487 H 0.39669 0.58143 0.69888 0.0
H1488 H 0.38605 0.59377 0.64453 0.0
H1489 H 0.39176 0.63163 0.65733 0.0
H1490 H 0.36053 0.65473 0.47167 0.0
H1491 H 0.37297 0.64425 0.52607 0.0
H1492 H 0.35516 0.61515 0.5954 0.0
C1493 C 0.38955 0.59758 0.67603 0.0
C1494 C 0.38374 0.628 0.64427 0.0
C1495 C 0.39567 0.59055 0.70688 0.0
C1496 C 0.35658 0.65006 0.50031 0.0
C1497 C 0.36368 0.64403 0.53129 0.0
C1498 C 0.36306 0.6189 0.60911 0.0
C1499 C 0.38784 0.60937 0.6861 0.0
C1500 C 0.38053 0.61659 0.65532 0.0
C1501 C 0.35879 0.63736 0.56723 0.0
C1502 C 0.36626 0.63031 0.59801 0.0
H1503 H 0.40199 0.61069 0.79004 0.0
H1504 H 0.3913 0.62306 0.73599 0.0
H1505 H 0.36732 0.60341 0.64597 0.0
H1506 H 0.33028 0.64253 0.5452 0.0
H1507 H 0.34268 0.63209 0.59994 0.0
C1508 C 0.10281 0.60046 0.28413 0.0
C1509 C 0.10832 0.59521 0.24596 0.0
C1510 C 0.10907 0.60764 0.31416 0.0
C1511 C 0.13882 0.61316 0.35323 0.0
H1512 H 0.12644 0.64229 0.39858 0.0
C1513 C 0.16694 0.645 0.45584 0.0
C1514 C 0.162 0.6498 0.49612 0.0
C1515 C 0.16007 0.63902 0.42397 0.0
C1516 C 0.12996 0.63413 0.38642 0.0
H1517 H 0.12458 0.59332 0.20895 0.0
H1518 H 0.13547 0.60589 0.26107 0.0
H1519 H 0.11487 0.63037 0.34562 0.0
H1520 H 0.14608 0.65181 0.53547 0.0
H1521 H 0.13405 0.64145 0.47954 0.0
H1522 H 0.15386 0.61683 0.39398 0.0
C1523 C 0.12638 0.6044 0.26817 0.0
C1524 C 0.12334 0.62732 0.35623 0.0
C1525 C 0.12015 0.59723 0.23831 0.0
C1526 C 0.15006 0.64858 0.50391 0.0
C1527 C 0.14318 0.64258 0.47203 0.0
C1528 C 0.14542 0.61995 0.38328 0.0
C1529 C 0.12093 0.60961 0.30659 0.0
C1530 C 0.12775 0.6168 0.33919 0.0
C1531 C 0.14815 0.63762 0.43205 0.0
C1532 C 0.14108 0.63052 0.4 0.0
H1533 H 0.09377 0.5988 0.29152 0.0
H1534 H 0.1047 0.61141 0.34394 0.0
H1535 H 0.14235 0.60498 0.34139 0.0
H1536 H 0.17614 0.64584 0.44908 0.0
H1537 H 0.16411 0.63541 0.39313 0.0
C1538 C 0.10705 0.39904 0.25746 0.0
C1539 C 0.10549 0.41079 0.24671 0.0
C1540 C 0.11327 0.39188 0.22734 0.0
C1541 C 0.13592 0.39349 0.13818 0.0
H1542 H 0.1268 0.36191 0.11027 0.0
C1543 C 0.16648 0.36247 0.04259 0.0
C1544 C 0.16157 0.3559 0.00657 0.0
C1545 C 0.1594 0.36845 0.07376 0.0
C1546 C 0.12942 0.37073 0.11764 0.0
H1547 H 0.10912 0.42435 0.19668 0.0
H1548 H 0.11989 0.41181 0.14353 0.0
H1549 H 0.11431 0.374 0.15893 0.0
H1550 H 0.14551 0.35064 0.97366 0.0
H1551 H 0.13309 0.36106 0.02827 0.0
H1552 H 0.15088 0.39036 0.0963 0.0
C1553 C 0.11637 0.40812 0.17524 0.0
C1554 C 0.12233 0.37761 0.14574 0.0
C1555 C 0.11017 0.41528 0.2054 0.0
C1556 C 0.14948 0.35534 0.00219 0.0
C1557 C 0.14238 0.36134 0.0333 0.0
C1558 C 0.143 0.38663 0.1102 0.0
C1559 C 0.11813 0.39639 0.18625 0.0
C1560 C 0.1255 0.38907 0.15614 0.0
C1561 C 0.14728 0.36807 0.06902 0.0
C1562 C 0.13983 0.37519 0.09964 0.0
H1563 H 0.10386 0.39551 0.28999 0.0
H1564 H 0.11466 0.38292 0.2371 0.0
H1565 H 0.13868 0.40224 0.14615 0.0
H1566 H 0.1758 0.36307 0.04636 0.0
H1567 H 0.16341 0.37346 0.1013 0.0
C1568 C 0.22244 0.19507 0.37353 0.0
C1569 C 0.21612 0.18479 0.36716 0.0
C1570 C 0.2321 0.19528 0.40324 0.0
C1571 C 0.25412 0.17741 0.46142 0.0
H1572 H 0.25194 0.1994 0.56323 0.0
C1573 C 0.28597 0.17441 0.61456 0.0
C1574 C 0.29011 0.18475 0.63415 0.0
C1575 C 0.27641 0.17446 0.5846 0.0
C1576 C 0.25283 0.1933 0.5348 0.0
H1577 H 0.21533 0.16656 0.38458 0.0
H1578 H 0.23251 0.16679 0.43437 0.0
H1579 H 0.23758 0.19978 0.50074 0.0
H1580 H 0.28725 0.20322 0.63902 0.0
H1581 H 0.27078 0.20345 0.58568 0.0
H1582 H 0.26949 0.17111 0.49399 0.0
C1583 C 0.22993 0.17471 0.41705 0.0
C1584 C 0.24457 0.19353 0.49893 0.0
C1585 C 0.22013 0.17457 0.38834 0.0
C1586 C 0.28409 0.19508 0.62521 0.0
C1587 C 0.27466 0.19519 0.59428 0.0
C1588 C 0.26249 0.1773 0.49672 0.0
C1589 C 0.23576 0.18515 0.42619 0.0
C1590 C 0.24507 0.18551 0.4621 0.0
C1591 C 0.27093 0.18492 0.57218 0.0
C1592 C 0.26192 0.18515 0.53441 0.0
H1593 H 0.2194 0.20312 0.35844 0.0
H1594 H 0.23649 0.20342 0.40945 0.0
H1595 H 0.25476 0.17117 0.43332 0.0
H1596 H 0.2905 0.16633 0.62068 0.0
H1597 H 0.27361 0.16629 0.56989 0.0
C1598 C 0.06081 0.97218 0.62842 0.0
C1599 C 0.07114 0.96614 0.61975 0.0
C1600 C 0.06068 0.98162 0.65926 0.0
C1601 C 0.07842 0.99373 0.75721 0.0
H1602 H 0.05617 0.01881 0.75212 0.0
C1603 C 0.08137 0.03609 0.86511 0.0
C1604 C 0.07114 0.04029 0.88562 0.0
C1605 C 0.08116 0.02626 0.83664 0.0
C1606 C 0.06234 0.01177 0.75423 0.0
H1607 H 0.08956 0.96573 0.63352 0.0
H1608 H 0.08955 0.98263 0.68423 0.0
H1609 H 0.05656 0.00442 0.6898 0.0
H1610 H 0.05272 0.03729 0.8935 0.0
H1611 H 0.05233 0.02014 0.84291 0.0
H1612 H 0.08448 1.00144 0.82076 0.0
C1613 C 0.0814 0.97983 0.66936 0.0
C1614 C 0.06258 0.00349 0.71846 0.0
C1615 C 0.08147 0.97027 0.63947 0.0
C1616 C 0.06078 0.03412 0.8789 0.0
C1617 C 0.06052 0.02441 0.84944 0.0
C1618 C 0.07831 1.00211 0.79243 0.0
C1619 C 0.07093 0.98533 0.68152 0.0
C1620 C 0.07067 0.99435 0.71924 0.0
C1621 C 0.07067 0.02057 0.82709 0.0
C1622 C 0.07028 0.01123 0.79134 0.0
H1623 H 0.05267 0.96903 0.61446 0.0
H1624 H 0.05242 0.98552 0.66767 0.0
H1625 H 0.08456 0.98668 0.76019 0.0
H1626 H 0.08944 0.04078 0.86919 0.0
H1627 H 0.08911 0.02353 0.81979 0.0
C1628 C 0.22205 0.81108 0.12582 0.0
C1629 C 0.21546 0.82123 0.13108 0.0
C1630 C 0.23168 0.81091 0.0959 0.0
C1631 C 0.25323 0.82893 0.036 0.0
H1632 H 0.25173 0.80626 0.93642 0.0
C1633 C 0.28545 0.83158 0.88407 0.0
C1634 C 0.28985 0.82118 0.86588 0.0
C1635 C 0.27578 0.83155 0.91343 0.0
C1636 C 0.25243 0.81255 0.96424 0.0
H1637 H 0.21412 0.83928 0.11136 0.0
H1638 H 0.23124 0.83914 0.06113 0.0
H1639 H 0.23728 0.80594 0.99858 0.0
H1640 H 0.28733 0.80264 0.86278 0.0
H1641 H 0.27068 0.80246 0.91512 0.0
H1642 H 0.26851 0.83537 0.00324 0.0
C1643 C 0.22889 0.83128 0.07948 0.0
C1644 C 0.24412 0.81235 0.9999 0.0
C1645 C 0.21913 0.83138 0.1084 0.0
C1646 C 0.28397 0.81081 0.8755 0.0
C1647 C 0.27443 0.81074 0.90585 0.0
C1648 C 0.26166 0.829 1.00093 0.0
C1649 C 0.23503 0.82096 0.07163 0.0
C1650 C 0.24437 0.8206 0.03591 0.0
C1651 C 0.27044 0.82107 0.92666 0.0
C1652 C 0.26134 0.82091 0.96407 0.0
H1653 H 0.21929 0.80308 0.14215 0.0
H1654 H 0.2363 0.80285 0.09067 0.0
H1655 H 0.25367 0.83535 0.06349 0.0
H1656 H 0.28987 0.83969 0.87741 0.0
H1657 H 0.27278 0.83975 0.92711 0.0
C1658 C 0.42526 0.03494 0.13363 0.0
C1659 C 0.43564 0.03971 0.11681 0.0
C1660 C 0.4254 0.02534 0.16332 0.0
C1661 C 0.44465 1.00272 0.21733 0.0
H1662 H 0.42129 0.00382 0.31447 0.0
C1663 C 0.44555 0.97217 0.37837 0.0
C1664 C 0.43529 0.96575 0.38371 0.0
C1665 C 0.44585 0.98181 0.34855 0.0
C1666 C 0.42787 0.0034 0.28759 0.0
H1667 H 0.45428 0.03787 0.11628 0.0
H1668 H 0.45463 0.02129 0.16902 0.0
H1669 H 0.42133 0.01848 0.25355 0.0
H1670 H 0.41719 0.96475 0.36429 0.0
H1671 H 0.41758 0.98184 0.31418 0.0
H1672 H 0.45131 0.98775 0.25273 0.0
C1673 C 0.44631 0.02473 0.15853 0.0
C1674 C 0.42784 0.01174 0.25216 0.0
C1675 C 0.44614 0.03422 0.12793 0.0
C1676 C 0.42518 0.96962 0.3613 0.0
C1677 C 0.42542 0.97938 0.33242 0.0
C1678 C 0.44478 0.99448 0.25329 0.0
C1679 C 0.43595 0.02043 0.17813 0.0
C1680 C 0.43613 0.01146 0.21602 0.0
C1681 C 0.43584 0.98534 0.32439 0.0
C1682 C 0.43631 0.99466 0.28855 0.0
H1683 H 0.41705 0.03905 0.1258 0.0
H1684 H 0.41721 0.02207 0.17609 0.0
H1685 H 0.45112 1.00209 0.19012 0.0
H1686 H 0.45352 0.96925 0.39447 0.0
H1687 H 0.45398 0.9863 0.34327 0.0
C1688 C 0.71888 0.83113 0.39332 0.0
C1689 C 0.71512 0.8209 0.37158 0.0
C1690 C 0.7284 0.83104 0.42344 0.0
C1691 C 0.7527 0.81256 0.46936 0.0
H1692 H 0.74985 0.8332 0.57548 0.0
C1693 C 0.78365 0.81021 0.62869 0.0
C1694 C 0.78933 0.82075 0.63757 0.0
C1695 C 0.77392 0.80987 0.59939 0.0
C1696 C 0.75076 0.82738 0.54608 0.0
H1697 H 0.71865 0.80263 0.36303 0.0
H1698 H 0.73508 0.80233 0.41657 0.0
H1699 H 0.73509 0.8334 0.51493 0.0
H1700 H 0.78888 0.83924 0.62518 0.0
H1701 H 0.77159 0.83873 0.5761 0.0
H1702 H 0.76828 0.80637 0.50182 0.0
C1703 C 0.73091 0.81054 0.4096 0.0
C1704 C 0.74236 0.82757 0.51088 0.0
C1705 C 0.7215 0.81069 0.37856 0.0
C1706 C 0.78458 0.83102 0.61947 0.0
C1707 C 0.77472 0.83071 0.59114 0.0
C1708 C 0.76101 0.81224 0.50506 0.0
C1709 C 0.73425 0.82064 0.4338 0.0
C1710 C 0.74326 0.82028 0.47154 0.0
C1711 C 0.76954 0.8201 0.57934 0.0
C1712 C 0.76019 0.81973 0.54357 0.0
H1713 H 0.71409 0.83912 0.38869 0.0
H1714 H 0.7309 0.8391 0.43984 0.0
H1715 H 0.75385 0.80689 0.43964 0.0
H1716 H 0.78725 0.80214 0.64138 0.0
H1717 H 0.77004 0.80158 0.59115 0.0
C1718 C 0.92535 0.03433 0.36982 0.0
C1719 C 0.93556 0.03913 0.38819 0.0
C1720 C 0.92574 0.02449 0.34144 0.0
C1721 C 0.94464 0.01076 0.25627 0.0
H1722 H 0.92279 0.98536 0.26266 0.0
C1723 C 0.94591 0.97136 0.12887 0.0
C1724 C 0.93551 0.96542 0.12025 0.0
C1725 C 0.94617 0.98073 0.16008 0.0
C1726 C 0.92883 0.99248 0.25963 0.0
H1727 H 0.95418 0.03714 0.39252 0.0
H1728 H 0.9549 0.01992 0.34237 0.0
H1729 H 0.92297 0.99991 0.32398 0.0
H1730 H 0.91711 0.96518 0.13446 0.0
H1731 H 0.91736 0.9819 0.18606 0.0
H1732 H 0.95025 0.00361 0.19114 0.0
C1733 C 0.94658 0.02376 0.35035 0.0
C1734 C 0.929 1.00077 0.29524 0.0
C1735 C 0.94615 0.03349 0.37965 0.0
C1736 C 0.92525 0.96962 0.14036 0.0
C1737 C 0.92546 0.97909 0.17073 0.0
C1738 C 0.94436 1.00255 0.2202 0.0
C1739 C 0.9364 0.01935 0.32989 0.0
C1740 C 0.93686 0.01004 0.29393 0.0
C1741 C 0.93599 0.98446 0.18286 0.0
C1742 C 0.93638 0.99332 0.2211 0.0
H1743 H 0.9171 0.0386 0.37523 0.0
H1744 H 0.91776 0.02135 0.3261 0.0
H1745 H 0.95069 0.01791 0.2539 0.0
H1746 H 0.954 0.96817 0.11461 0.0
H1747 H 0.95447 0.98456 0.16843 0.0
C1748 C 0.7221 0.19553 0.12641 0.0
C1749 C 0.71625 0.18511 0.13543 0.0
C1750 C 0.73152 0.19578 0.09541 0.0
C1751 C 0.74356 0.17822 0.99709 0.0
H1752 H 0.76862 0.20052 1.0015 0.0
C1753 C 0.78548 0.17516 0.88695 0.0
C1754 C 0.78994 0.18539 0.86741 0.0
C1755 C 0.77569 0.17544 0.91563 0.0
C1756 C 0.76158 0.19434 0.99953 0.0
H1757 H 0.7162 0.16666 0.12222 0.0
H1758 H 0.73302 0.1669 0.07109 0.0
H1759 H 0.75433 0.20007 0.06431 0.0
H1760 H 0.78742 0.20391 0.8614 0.0
H1761 H 0.7703 0.20445 0.91219 0.0
H1762 H 0.7511 0.17224 0.93311 0.0
C1763 C 0.7301 0.17502 0.08589 0.0
C1764 C 0.75337 0.19406 0.03561 0.0
C1765 C 0.72058 0.17482 0.11601 0.0
C1766 C 0.78404 0.19586 0.87523 0.0
C1767 C 0.77436 0.19619 0.90485 0.0
C1768 C 0.75185 0.17839 0.9615 0.0
C1769 C 0.73537 0.18557 0.07328 0.0
C1770 C 0.74427 0.18593 0.03515 0.0
C1771 C 0.77027 0.18602 0.92632 0.0
C1772 C 0.76098 0.18642 0.96234 0.0
H1773 H 0.7188 0.20363 0.14012 0.0
H1774 H 0.73526 0.20409 0.08667 0.0
H1775 H 0.73653 0.17205 0.99439 0.0
H1776 H 0.78995 0.167 0.88204 0.0
H1777 H 0.77279 0.16747 0.93177 0.0
C1778 C 0.58084 0.03669 0.64191 0.0
C1779 C 0.57059 0.04061 0.62061 0.0
C1780 C 0.58075 0.02692 0.67072 0.0
C1781 C 0.56204 0.01204 0.75242 0.0
H1782 H 0.58479 0.98741 0.74727 0.0
C1783 C 0.56094 0.97233 0.87773 0.0
C1784 C 0.57134 0.96643 0.88657 0.0
C1785 C 0.56073 0.98183 0.84715 0.0
C1786 C 0.5785 0.99433 0.75005 0.0
H1787 H 0.55228 0.0372 0.61185 0.0
H1788 H 0.55208 0.02015 0.66308 0.0
H1789 H 0.58455 1.00217 0.68675 0.0
H1790 H 0.58979 0.96633 0.87343 0.0
H1791 H 0.58964 0.98333 0.82326 0.0
H1792 H 0.55625 0.00455 0.81661 0.0
C1793 C 0.5602 0.02459 0.65687 0.0
C1794 C 0.5783 1.00272 0.71485 0.0
C1795 C 0.56034 0.03424 0.62707 0.0
C1796 C 0.58165 0.97076 0.86737 0.0
C1797 C 0.5815 0.98038 0.83775 0.0
C1798 C 0.56237 0.00376 0.78819 0.0
C1799 C 0.57036 0.02101 0.67984 0.0
C1800 C 0.57008 0.01167 0.71562 0.0
C1801 C 0.57097 0.98574 0.82533 0.0
C1802 C 0.57064 0.99478 0.78771 0.0
H1803 H 0.58882 0.04153 0.63806 0.0
H1804 H 0.5887 0.02439 0.68805 0.0
H1805 H 0.55572 0.01895 0.75429 0.0
H1806 H 0.55282 0.96903 0.89125 0.0
H1807 H 0.55243 0.9856 0.83854 0.0
C1808 C 0.7206 0.67501 0.88826 0.0
C1809 C 0.71638 0.68516 0.86719 0.0
C1810 C 0.73044 0.67533 0.91668 0.0
C1811 C 0.74503 0.69439 0.99791 0.0
H1812 H 0.77014 0.67219 0.9923 0.0
C1813 C 0.78478 0.69622 0.12311 0.0
C1814 C 0.79081 0.6859 0.13209 0.0
C1815 C 0.77532 0.69629 0.09233 0.0
C1816 C 0.76309 0.67833 0.9952 0.0
H1817 H 0.71934 0.70355 0.85837 0.0
H1818 H 0.73651 0.70414 0.90888 0.0
H1819 H 0.75529 0.67209 0.9321 0.0
H1820 H 0.79121 0.66747 0.11886 0.0
H1821 H 0.77429 0.66737 0.0683 0.0
H1822 H 0.75249 0.70036 0.06191 0.0
C1823 C 0.73224 0.69592 0.90282 0.0
C1824 C 0.75465 0.67834 0.96018 0.0
C1825 C 0.72253 0.69555 0.8734 0.0
C1826 C 0.78668 0.67554 0.11268 0.0
C1827 C 0.77709 0.67555 0.08286 0.0
C1828 C 0.75337 0.69426 0.03349 0.0
C1829 C 0.73612 0.68585 0.92563 0.0
C1830 C 0.74552 0.68636 0.96114 0.0
C1831 C 0.77158 0.686 0.07043 0.0
C1832 C 0.76252 0.68617 0.03286 0.0
H1833 H 0.71593 0.66692 0.8846 0.0
H1834 H 0.73319 0.66744 0.9339 0.0
H1835 H 0.73799 0.70057 0.99992 0.0
H1836 H 0.78793 0.70437 0.13682 0.0
H1837 H 0.77141 0.70454 0.0837 0.0
C1838 C 0.56093 0.47223 0.12484 0.0
C1839 C 0.5712 0.46584 0.11938 0.0
C1840 C 0.56062 0.48189 0.15458 0.0
C1841 C 0.57856 0.50359 0.21513 0.0
H1842 H 0.55538 0.50222 0.31287 0.0
C1843 C 0.58105 0.53529 0.36876 0.0
C1844 C 0.57065 0.53996 0.38587 0.0
C1845 C 0.58096 0.52568 0.33905 0.0
C1846 C 0.56183 0.50288 0.28558 0.0
H1847 H 0.58932 0.46492 0.1385 0.0
H1848 H 0.58893 0.48205 0.18846 0.0
H1849 H 0.55523 0.48783 0.25044 0.0
H1850 H 0.55203 0.53794 0.38678 0.0
H1851 H 0.55177 0.52137 0.33399 0.0
H1852 H 0.58503 0.51874 0.2489 0.0
C1853 C 0.58108 0.47954 0.17038 0.0
C1854 C 0.56172 0.49461 0.24972 0.0
C1855 C 0.58132 0.46977 0.14157 0.0
C1856 C 0.56019 0.53438 0.37492 0.0
C1857 C 0.56007 0.52489 0.34429 0.0
C1858 C 0.57856 0.51196 0.25045 0.0
C1859 C 0.57064 0.48547 0.17855 0.0
C1860 C 0.57016 0.49481 0.21436 0.0
C1861 C 0.57044 0.52067 0.32448 0.0
C1862 C 0.5703 0.51166 0.28669 0.0
H1863 H 0.55294 0.46928 0.10892 0.0
H1864 H 0.55247 0.48635 0.15996 0.0
H1865 H 0.58512 0.50403 0.18817 0.0
H1866 H 0.58924 0.53946 0.37646 0.0
H1867 H 0.58917 0.52249 0.32613 0.0
C1868 C 0.72 0.33124 0.6148 0.0
C1869 C 0.71592 0.32103 0.63584 0.0
C1870 C 0.7298 0.33106 0.58608 0.0
C1871 C 0.74444 0.31213 0.50431 0.0
H1872 H 0.76922 0.33472 0.50857 0.0
C1873 C 0.78402 0.31064 0.3783 0.0
C1874 C 0.78993 0.32102 0.36895 0.0
C1875 C 0.77458 0.31052 0.40916 0.0
C1876 C 0.76226 0.32847 0.50605 0.0
H1877 H 0.7191 0.30268 0.64437 0.0
H1878 H 0.7362 0.30231 0.5934 0.0
H1879 H 0.75451 0.33465 0.56934 0.0
H1880 H 0.79008 0.33949 0.3815 0.0
H1881 H 0.77318 0.33946 0.43224 0.0
H1882 H 0.75184 0.3062 0.44016 0.0
C1883 C 0.73185 0.31048 0.59967 0.0
C1884 C 0.7539 0.32837 0.5414 0.0
C1885 C 0.72218 0.31072 0.62936 0.0
C1886 C 0.78565 0.33137 0.38797 0.0
C1887 C 0.77608 0.33129 0.4179 0.0
C1888 C 0.7527 0.31235 0.46843 0.0
C1889 C 0.73558 0.3206 0.57683 0.0
C1890 C 0.74489 0.32021 0.54094 0.0
C1891 C 0.77073 0.3208 0.43077 0.0
C1892 C 0.76173 0.32057 0.46858 0.0
H1893 H 0.71525 0.33928 0.61868 0.0
H1894 H 0.73243 0.33898 0.56886 0.0
H1895 H 0.73749 0.30584 0.50267 0.0
H1896 H 0.78728 0.3025 0.36491 0.0
H1897 H 0.77079 0.30224 0.41812 0.0
C1898 C 0.94624 0.53423 0.62976 0.0
C1899 C 0.93577 0.53977 0.61851 0.0
C1900 C 0.94635 0.52476 0.66047 0.0
C1901 C 0.92776 0.51183 0.75397 0.0
H1902 H 0.9511 0.48771 0.75456 0.0
C1903 C 0.92483 0.46964 0.86268 0.0
C1904 C 0.93492 0.46569 0.88507 0.0
C1905 C 0.92513 0.47943 0.83395 0.0
C1906 C 0.94461 0.49449 0.75512 0.0
H1907 H 0.91718 0.53921 0.62748 0.0
H1908 H 0.91723 0.52226 0.67795 0.0
H1909 H 0.95103 0.50209 0.69209 0.0
H1910 H 0.95316 0.4691 0.89597 0.0
H1911 H 0.95372 0.48619 0.84506 0.0
H1912 H 0.92113 0.50391 0.81613 0.0
C1913 C 0.92545 0.52548 0.66519 0.0
C1914 C 0.94455 0.50275 0.71924 0.0
C1915 C 0.92537 0.53507 0.6354 0.0
C1916 C 0.94521 0.47207 0.8799 0.0
C1917 C 0.94556 0.48174 0.85023 0.0
C1918 C 0.92772 0.50347 0.78932 0.0
C1919 C 0.93597 0.52051 0.68006 0.0
C1920 C 0.93608 0.51153 0.71791 0.0
C1921 C 0.93558 0.48534 0.82605 0.0
C1922 C 0.93612 0.49469 0.79028 0.0
H1923 H 0.95441 0.53783 0.61807 0.0
H1924 H 0.95465 0.52127 0.671 0.0
H1925 H 0.9213 0.5186 0.75536 0.0
H1926 H 0.91682 0.4648 0.86554 0.0
H1927 H 0.91731 0.48195 0.8157 0.0
C1928 C 0.22032 0.33157 0.89043 0.0
C1929 C 0.21632 0.3213 0.86982 0.0
C1930 C 0.22987 0.33146 0.92047 0.0
C1931 C 0.25368 0.31263 0.96847 0.0
H1932 H 0.25148 0.33413 0.07204 0.0
C1933 C 0.28426 0.31041 0.1291 0.0
C1934 C 0.2904 0.32076 0.1364 0.0
C1935 C 0.27456 0.31021 0.09954 0.0
C1936 C 0.25219 0.32807 0.04335 0.0
H1937 H 0.2194 0.3029 0.86319 0.0
H1938 H 0.23584 0.30255 0.91665 0.0
H1939 H 0.23673 0.33434 0.01144 0.0
H1940 H 0.29084 0.3391 0.12081 0.0
H1941 H 0.2736 0.33887 0.0713 0.0
H1942 H 0.26903 0.30618 0.00182 0.0
C1943 C 0.23187 0.31082 0.90882 0.0
C1944 C 0.24381 0.32826 0.0081 0.0
C1945 C 0.22245 0.31099 0.87783 0.0
C1946 C 0.28617 0.33103 0.11633 0.0
C1947 C 0.27635 0.33089 0.08778 0.0
C1948 C 0.26195 0.3123 0.00426 0.0
C1949 C 0.23547 0.321 0.93191 0.0
C1950 C 0.24448 0.32065 0.96967 0.0
C1951 C 0.27069 0.32041 0.07767 0.0
C1952 C 0.26136 0.3201 0.04184 0.0
H1953 H 0.21571 0.33964 0.88502 0.0
H1954 H 0.23257 0.33957 0.93597 0.0
H1955 H 0.25465 0.30671 0.93946 0.0
H1956 H 0.28745 0.30232 0.14332 0.0
H1957 H 0.27032 0.30202 0.09258 0.0
C1958 C 0.42498 0.47037 0.63905 0.0
C1959 C 0.43516 0.46623 0.618 0.0
C1960 C 0.42522 0.48017 0.66773 0.0
C1961 C 0.44422 0.49477 0.74938 0.0
H1962 H 0.42174 0.51964 0.74468 0.0
C1963 C 0.44574 0.53441 0.87518 0.0
C1964 C 0.43537 0.54033 0.88442 0.0
C1965 C 0.44588 0.52496 0.84435 0.0
C1966 C 0.42796 0.51266 0.74732 0.0
H1967 H 0.45355 0.46928 0.60949 0.0
H1968 H 0.45402 0.48638 0.66041 0.0
H1969 H 0.42177 0.5049 0.68408 0.0
H1970 H 0.4169 0.5405 0.87165 0.0
H1971 H 0.41694 0.5236 0.82096 0.0
H1972 H 0.45016 0.50219 0.81349 0.0
C1973 C 0.44583 0.48209 0.65415 0.0
C1974 C 0.42804 0.50428 0.71207 0.0
C1975 C 0.44553 0.47242 0.62449 0.0
C1976 C 0.42502 0.53606 0.86527 0.0
C1977 C 0.42511 0.52649 0.83538 0.0
C1978 C 0.44402 0.50306 0.78517 0.0
C1979 C 0.43572 0.48589 0.67695 0.0
C1980 C 0.43615 0.49523 0.71271 0.0
C1981 C 0.4356 0.52112 0.82263 0.0
C1982 C 0.43584 0.51211 0.78487 0.0
H1983 H 0.41691 0.46567 0.63518 0.0
H1984 H 0.41731 0.48285 0.68492 0.0
H1985 H 0.45048 0.48779 0.75115 0.0
H1986 H 0.45389 0.53766 0.88867 0.0
H1987 H 0.45416 0.52116 0.83549 0.0
C1988 C 0.28387 0.69551 0.37926 0.0
C1989 C 0.28994 0.68517 0.37112 0.0
C1990 C 0.2745 0.69575 0.41054 0.0
C1991 C 0.26278 0.67847 0.51058 0.0
H1992 H 0.23733 0.70028 0.50407 0.0
C1993 C 0.2207 0.67525 0.62 0.0
C1994 C 0.21609 0.6855 0.63881 0.0
C1995 C 0.23054 0.67554 0.59155 0.0
C1996 C 0.24448 0.69424 0.50662 0.0
H1997 H 0.29046 0.66683 0.3864 0.0
H1998 H 0.27373 0.66702 0.43799 0.0
H1999 H 0.25167 0.69978 0.44151 0.0
H2000 H 0.21842 0.70407 0.64376 0.0
H2001 H 0.23561 0.7046 0.59338 0.0
H2002 H 0.25527 0.67266 0.57488 0.0
C2003 C 0.27644 0.6751 0.42229 0.0
C2004 C 0.25272 0.69393 0.47068 0.0
C2005 C 0.28591 0.67492 0.39191 0.0
C2006 C 0.22191 0.696 0.63054 0.0
C2007 C 0.23163 0.69633 0.60114 0.0
C2008 C 0.25445 0.67866 0.54602 0.0
C2009 C 0.27091 0.68559 0.43384 0.0
C2010 C 0.26198 0.68598 0.47191 0.0
C2011 C 0.23586 0.68613 0.58035 0.0
C2012 C 0.24518 0.68651 0.54443 0.0
H2013 H 0.28693 0.70359 0.36449 0.0
H2014 H 0.27057 0.70402 0.41843 0.0
H2015 H 0.26993 0.67245 0.51389 0.0
H2016 H 0.2163 0.66706 0.62522 0.0
H2017 H 0.23355 0.66754 0.57595 0.0
C2018 C 0.08088 0.47022 0.36563 0.0
C2019 C 0.07068 0.46592 0.38606 0.0
C2020 C 0.08061 0.48008 0.33729 0.0
C2021 C 0.06177 0.49455 0.25492 0.0
H2022 H 0.08371 0.51986 0.26228 0.0
C2023 C 0.06014 0.53429 0.12963 0.0
C2024 C 0.07045 0.54041 0.12133 0.0
C2025 C 0.06001 0.52484 0.16047 0.0
C2026 C 0.07765 0.51276 0.2589 0.0
H2027 H 0.05224 0.46874 0.39375 0.0
H2028 H 0.05172 0.48594 0.34335 0.0
H2029 H 0.08368 0.50499 0.32238 0.0
H2030 H 0.08883 0.54094 0.13585 0.0
H2031 H 0.08883 0.52406 0.18662 0.0
H2032 H 0.05601 0.50197 0.19055 0.0
C2033 C 0.05995 0.48173 0.3499 0.0
C2034 C 0.07756 0.5043 0.29386 0.0
C2035 C 0.06027 0.472 0.37926 0.0
C2036 C 0.08076 0.53636 0.14153 0.0
C2037 C 0.08069 0.52679 0.17145 0.0
C2038 C 0.06198 0.50291 0.21942 0.0
C2039 C 0.07008 0.48569 0.32774 0.0
C2040 C 0.06964 0.4951 0.29227 0.0
C2041 C 0.07024 0.5212 0.18314 0.0
C2042 C 0.06997 0.51213 0.22068 0.0
H2043 H 0.08899 0.4656 0.36971 0.0
H2044 H 0.08854 0.48289 0.32057 0.0
H2045 H 0.05567 0.48745 0.25243 0.0
H2046 H 0.05202 0.53736 0.11527 0.0
H2047 H 0.05176 0.52087 0.16851 0.0
C2048 C 0.16858 0.2302 0.19287 0.0
C2049 C 0.17649 0.22098 0.19071 0.0
C2050 C 0.16771 0.23812 0.15629 0.0
C2051 C 0.18355 0.24899 0.0523 0.0
H2052 H 0.15385 0.26319 0.02479 0.0
C2053 C 0.17742 0.28061 0.89887 0.0
C2054 C 0.17268 0.2914 0.91145 0.0
C2055 C 0.17692 0.27123 0.92954 0.0
C2056 C 0.16219 0.25929 0.03216 0.0
H2057 H 0.18959 0.2127 0.14813 0.0
H2058 H 0.18782 0.22632 0.08329 0.0
H2059 H 0.15508 0.24808 0.08406 0.0
H2060 H 0.16304 0.30053 0.96495 0.0
H2061 H 0.16197 0.28402 0.01815 0.0
H2062 H 0.19058 0.26014 0.99972 0.0
C2063 C 0.18248 0.22763 0.11386 0.0
C2064 C 0.16294 0.25068 0.06631 0.0
C2065 C 0.18348 0.21978 0.15092 0.0
C2066 C 0.16681 0.29237 0.95425 0.0
C2067 C 0.16617 0.28291 0.98467 0.0
C2068 C 0.18276 0.25748 0.01767 0.0
C2069 C 0.17459 0.23693 0.11611 0.0
C2070 C 0.17366 0.24553 0.07742 0.0
C2071 C 0.17151 0.27236 0.97314 0.0
C2072 C 0.17211 0.26281 0.00768 0.0
H2073 H 0.16314 0.23144 0.22326 0.0
H2074 H 0.16174 0.24529 0.16 0.0
H2075 H 0.19198 0.24541 0.06025 0.0
H2076 H 0.182 0.27953 0.86619 0.0
H2077 H 0.18098 0.26314 0.91959 0.0
C2078 C 0.9758 0.92244 0.14891 0.0
C2079 C 0.96442 0.92128 0.16577 0.0
C2080 C 0.98526 0.92175 0.17934 0.0
C2081 C 1.00229 0.92863 0.2553 0.0
H2082 H 1.00249 0.90817 0.36243 0.0
C2083 C 0.03278 0.93562 0.41338 0.0
C2084 C 0.03709 0.92576 0.43625 0.0
C2085 C 0.02459 0.9345 0.37761 0.0
C2086 C 1.00268 0.91386 0.33243 0.0
H2087 H 0.95414 0.91796 0.2277 0.0
H2088 H 0.97052 0.91687 0.28049 0.0
H2089 H 0.98725 0.90633 0.3044 0.0
H2090 H 0.03655 0.90698 0.43819 0.0
H2091 H 0.02256 0.90504 0.37542 0.0
H2092 H 0.01784 0.93604 0.28305 0.0
C2093 C 0.9722 0.91819 0.24373 0.0
C2094 C 0.99384 0.91289 0.29938 0.0
C2095 C 0.96276 0.91885 0.21335 0.0
C2096 C 0.03331 0.91477 0.42169 0.0
C2097 C 0.02522 0.91365 0.3858 0.0
C2098 C 0.01117 0.92957 0.28829 0.0
C2099 C 0.98355 0.91989 0.22733 0.0
C2100 C 0.99345 0.92034 0.26064 0.0
C2101 C 0.02061 0.9235 0.36372 0.0
C2102 C 0.01143 0.92227 0.32752 0.0
H2103 H 0.97742 0.92425 0.11244 0.0
H2104 H 0.9939 0.92287 0.16535 0.0
H2105 H 1.00221 0.93461 0.22623 0.0
H2106 H 0.03551 0.94421 0.42386 0.0
H2107 H 0.02115 0.94229 0.36176 0.0
C2108 C 0.32304 0.78527 0.65502 0.0
C2109 C 0.33036 0.7847 0.69414 0.0
C2110 C 0.32404 0.7771 0.6191 0.0
C2111 C 0.33343 0.74737 0.59735 0.0
H2112 H 0.33537 0.75641 0.46742 0.0
C2113 C 0.34041 0.713 0.45534 0.0
C2114 C 0.33399 0.71424 0.41405 0.0
C2115 C 0.34118 0.72214 0.48722 0.0
C2116 C 0.3347 0.75371 0.50346 0.0
H2117 H 0.34442 0.7751 0.72627 0.0
H2118 H 0.34598 0.7608 0.6642 0.0
H2119 H 0.33357 0.77127 0.52769 0.0
H2120 H 0.32377 0.72626 0.3729 0.0
H2121 H 0.32481 0.742 0.42883 0.0
H2122 H 0.33413 0.72986 0.57372 0.0
C2123 C 0.33953 0.76757 0.66117 0.0
C2124 C 0.33369 0.76224 0.53794 0.0
C2125 C 0.33866 0.77581 0.69661 0.0
C2126 C 0.32884 0.72501 0.40429 0.0
C2127 C 0.32947 0.73408 0.43645 0.0
C2128 C 0.33427 0.73885 0.56297 0.0
C2129 C 0.33223 0.76811 0.6221 0.0
C2130 C 0.33308 0.75914 0.58522 0.0
C2131 C 0.3354 0.73268 0.47892 0.0
C2132 C 0.33495 0.74188 0.5155 0.0
H2133 H 0.3166 0.79205 0.65207 0.0
H2134 H 0.31826 0.77766 0.58942 0.0
H2135 H 0.33283 0.74473 0.63353 0.0
H2136 H 0.34459 0.70486 0.46366 0.0
H2137 H 0.34612 0.72082 0.51887 0.0
C2138 C 0.48086 0.08833 0.94662 0.0
C2139 C 0.47155 0.0805 0.94477 0.0
C2140 C 0.48857 0.0893 0.90935 0.0
C2141 C 0.49878 0.07379 0.80356 0.0
H2142 H 0.51292 0.10351 0.7762 0.0
C2143 C 0.53002 0.07998 0.64888 0.0
C2144 C 0.54083 0.08472 0.66114 0.0
C2145 C 0.52067 0.08051 0.67979 0.0
C2146 C 0.50904 0.09516 0.78349 0.0
H2147 H 0.46294 0.06765 0.90206 0.0
H2148 H 0.47622 0.06956 0.83618 0.0
H2149 H 0.49813 0.10215 0.83671 0.0
H2150 H 0.55002 0.09445 0.71422 0.0
H2151 H 0.53361 0.09554 0.76782 0.0
H2152 H 0.50965 0.06687 0.74982 0.0
C2153 C 0.47774 0.07477 0.86696 0.0
C2154 C 0.50061 0.09434 0.81836 0.0
C2155 C 0.47009 0.07369 0.90463 0.0
C2156 C 0.54185 0.09066 0.70378 0.0
C2157 C 0.53244 0.09132 0.73443 0.0
C2158 C 0.5071 0.07464 0.76827 0.0
C2159 C 0.48711 0.08258 0.86886 0.0
C2160 C 0.49549 0.0836 0.82943 0.0
C2161 C 0.52187 0.08594 0.72331 0.0
C2162 C 0.51242 0.0853 0.75831 0.0
H2163 H 0.48229 0.09364 0.97722 0.0
H2164 H 0.49581 0.09521 0.91276 0.0
H2165 H 0.49521 0.06534 0.81143 0.0
H2166 H 0.5289 0.07534 0.61635 0.0
H2167 H 0.51258 0.07641 0.67013 0.0
C2168 C 0.17011 0.71248 0.53944 0.0
C2169 C 0.17222 0.71422 0.58722 0.0
C2170 C 0.1695 0.72188 0.50883 0.0
C2171 C 0.16401 0.74353 0.45298 0.0
H2172 H 0.1867 0.76789 0.47124 0.0
C2173 C 0.16512 0.78377 0.33456 0.0
C2174 C 0.17604 0.78774 0.31989 0.0
C2175 C 0.16418 0.77543 0.36961 0.0
C2176 C 0.18035 0.76113 0.46547 0.0
H2177 H 0.17467 0.72733 0.6406 0.0
H2178 H 0.17337 0.74371 0.58732 0.0
H2179 H 0.18544 0.75206 0.52724 0.0
H2180 H 0.19454 0.78626 0.33131 0.0
H2181 H 0.19292 0.77153 0.39215 0.0
H2182 H 0.15921 0.75234 0.39036 0.0
C2183 C 0.17247 0.73505 0.57336 0.0
C2184 C 0.17952 0.75213 0.49796 0.0
C2185 C 0.17311 0.72564 0.60398 0.0
C2186 C 0.186 0.78339 0.3419 0.0
C2187 C 0.18506 0.77498 0.37692 0.0
C2188 C 0.16486 0.75251 0.42048 0.0
C2189 C 0.17093 0.73327 0.52524 0.0
C2190 C 0.17138 0.74317 0.49198 0.0
C2191 C 0.17413 0.77079 0.39079 0.0
C2192 C 0.17308 0.7614 0.42617 0.0
H2193 H 0.1694 0.70381 0.52524 0.0
H2194 H 0.16839 0.72016 0.47197 0.0
H2195 H 0.15758 0.73684 0.44746 0.0
H2196 H 0.15725 0.78702 0.31868 0.0
H2197 H 0.15562 0.77259 0.38004 0.0
C2198 C 0.47993 0.91803 0.55933 0.0
C2199 C 0.47073 0.92595 0.56199 0.0
C2200 C 0.48806 0.91725 0.59521 0.0
C2201 C 0.49935 0.93335 0.69814 0.0
H2202 H 0.51407 0.90387 0.72477 0.0
C2203 C 0.53087 0.92719 0.85197 0.0
C2204 C 0.54182 0.92287 0.83931 0.0
C2205 C 0.52158 0.92665 0.82084 0.0
C2206 C 0.51003 0.91215 0.7176 0.0
H2207 H 0.46268 0.93914 0.60478 0.0
H2208 H 0.47662 0.9375 0.66852 0.0
H2209 H 0.49874 0.90488 0.66633 0.0
H2210 H 0.5514 0.91395 0.785 0.0
H2211 H 0.53501 0.91275 0.73103 0.0
H2212 H 0.51052 0.9405 0.75039 0.0
C2213 C 0.47779 0.9321 0.63803 0.0
C2214 C 0.50129 0.91278 0.6839 0.0
C2215 C 0.46974 0.93302 0.60162 0.0
C2216 C 0.54309 0.91739 0.7958 0.0
C2217 C 0.53372 0.91668 0.76493 0.0
C2218 C 0.50794 0.93267 0.73238 0.0
C2219 C 0.4871 0.92423 0.63523 0.0
C2220 C 0.49593 0.92342 0.67319 0.0
C2221 C 0.52297 0.9216 0.77671 0.0
C2222 C 0.51345 0.92209 0.74208 0.0
H2223 H 0.481 0.91253 0.52902 0.0
H2224 H 0.49522 0.91129 0.59102 0.0
H2225 H 0.49563 0.94174 0.69047 0.0
H2226 H 0.52956 0.93148 0.88516 0.0
H2227 H 0.51334 0.9304 0.83092 0.0
C2228 C 0.32295 0.22 0.84948 0.0
C2229 C 0.33042 0.22028 0.8108 0.0
C2230 C 0.32395 0.22831 0.88488 0.0
C2231 C 0.33339 0.25798 0.90515 0.0
H2232 H 0.33565 0.24939 0.03548 0.0
C2233 C 0.34025 0.29289 0.04549 0.0
C2234 C 0.33411 0.2916 0.08746 0.0
C2235 C 0.34098 0.28372 0.01373 0.0
C2236 C 0.33488 0.25198 0.99934 0.0
H2237 H 0.34475 0.2295 0.77884 0.0
H2238 H 0.34629 0.24408 0.83994 0.0
H2239 H 0.33383 0.23433 0.97613 0.0
H2240 H 0.32429 0.27948 0.12971 0.0
H2241 H 0.3252 0.26372 0.07399 0.0
H2242 H 0.33397 0.27558 0.92776 0.0
C2243 C 0.33974 0.23741 0.84306 0.0
C2244 C 0.33386 0.24333 0.96539 0.0
C2245 C 0.33888 0.22902 0.80821 0.0
C2246 C 0.32914 0.28078 0.09781 0.0
C2247 C 0.32971 0.27168 0.06577 0.0
C2248 C 0.33421 0.26663 0.93903 0.0
C2249 C 0.33229 0.23715 0.88171 0.0
C2250 C 0.33315 0.24626 0.91799 0.0
C2251 C 0.33542 0.27309 0.02279 0.0
C2252 C 0.33499 0.26378 0.98667 0.0
H2253 H 0.31638 0.21334 0.85248 0.0
H2254 H 0.31807 0.22796 0.91428 0.0
H2255 H 0.33273 0.26048 0.86883 0.0
H2256 H 0.34427 0.30107 0.03666 0.0
H2257 H 0.34573 0.28506 0.98165 0.0
C2258 C 0.03565 0.07392 0.09804 0.0
C2259 C 0.03456 0.08055 0.05725 0.0
C2260 C 0.02741 0.07485 0.13367 0.0
C2261 C 1.00287 0.09356 0.17468 0.0
H2262 H 0.99483 0.06623 0.24611 0.0
C2263 C 0.96135 0.08812 0.28834 0.0
C2264 C 0.96306 0.0834 0.33303 0.0
C2265 C 0.97058 0.08892 0.25682 0.0
C2266 C 0.99707 0.07395 0.22663 0.0
H2267 H 0.02389 0.09316 0.02132 0.0
H2268 H 0.0093 0.09438 0.082 0.0
H2269 H 0.00984 0.06499 0.18668 0.0
H2270 H 0.97596 0.07629 0.3802 0.0
H2271 H 0.99192 0.07749 0.3249 0.0
H2272 H 0.98964 0.10232 0.21368 0.0
C2273 C 0.0167 0.08879 0.0877 0.0
C2274 C 0.00573 0.07328 0.19271 0.0
C2275 C 0.02503 0.08802 0.05259 0.0
C2276 C 0.9743 0.07996 0.34609 0.0
C2277 C 0.98345 0.08057 0.31439 0.0
C2278 C 0.99406 0.09416 0.20806 0.0
C2279 C 0.01777 0.08226 0.1289 0.0
C2280 C 0.00876 0.08307 0.16613 0.0
C2281 C 0.98164 0.08484 0.2692 0.0
C2282 C 0.99109 0.08437 0.23434 0.0
H2283 H 0.04297 0.06816 0.10272 0.0
H2284 H 0.02867 0.06982 0.16513 0.0
H2285 H 0.0051 0.10136 0.15577 0.0
H2286 H 0.95282 0.09087 0.27719 0.0
H2287 H 0.96898 0.09223 0.22209 0.0
C2288 C 0.82988 0.72578 0.09957 0.0
C2289 C 0.83517 0.71507 0.0901 0.0
C2290 C 0.83045 0.73483 0.06727 0.0
C2291 C 0.83527 0.73936 0.94068 0.0
H2292 H 0.83406 0.77187 0.97441 0.0
C2293 C 0.83913 0.77591 0.80511 0.0
C2294 C 0.83074 0.78473 0.80719 0.0
C2295 C 0.8401 0.76781 0.84098 0.0
C2296 C 0.83433 0.76281 0.96459 0.0
H2297 H 0.84601 0.70579 0.041 0.0
H2298 H 0.84745 0.72171 0.98561 0.0
H2299 H 0.83604 0.75721 0.03541 0.0
H2300 H 0.81694 0.79209 0.84903 0.0
H2301 H 0.81878 0.77792 0.9124 0.0
H2302 H 0.83377 0.74501 0.86985 0.0
C2303 C 0.84244 0.72299 0.0171 0.0
C2304 C 0.83544 0.7544 0.99949 0.0
C2305 C 0.84172 0.71388 0.04909 0.0
C2306 C 0.82345 0.78536 0.84636 0.0
C2307 C 0.82454 0.77731 0.8827 0.0
C2308 C 0.83432 0.74776 0.90589 0.0
C2309 C 0.83647 0.73345 0.02497 0.0
C2310 C 0.83589 0.74254 0.98801 0.0
C2311 C 0.83283 0.7684 0.88011 0.0
C2312 C 0.83379 0.75957 0.91745 0.0
H2313 H 0.82471 0.72698 0.13073 0.0
H2314 H 0.82567 0.74269 0.07456 0.0
H2315 H 0.83527 0.73034 0.93035 0.0
H2316 H 0.84489 0.77518 0.77544 0.0
H2317 H 0.84663 0.7611 0.83825 0.0
C2318 C 0.04348 0.08909 0.7925 0.0
C2319 C 0.04202 0.08408 0.83681 0.0
C2320 C 0.03418 0.08976 0.76134 0.0
C2321 C 0.00765 0.07438 0.73195 0.0
H2322 H 1.00068 0.10121 0.65582 0.0
C2323 C 0.97034 0.07399 0.59668 0.0
C2324 C 0.97228 0.07994 0.55468 0.0
C2325 C 0.97816 0.07508 0.63383 0.0
C2326 C 1.00259 0.09358 0.67635 0.0
H2327 H 0.02944 0.07636 0.88383 0.0
H2328 H 0.0133 0.07744 0.82922 0.0
H2329 H 0.01563 0.10251 0.71571 0.0
H2330 H 0.98401 0.09151 0.51835 0.0
H2331 H 0.99775 0.09307 0.58197 0.0
H2332 H 0.995 0.06528 0.69168 0.0
C2333 C 0.02166 0.08079 0.81863 0.0
C2334 C 0.01112 0.09437 0.71083 0.0
C2335 C 0.03091 0.08025 0.84998 0.0
C2336 C 0.98221 0.08689 0.55042 0.0
C2337 C 0.99006 0.08787 0.58717 0.0
C2338 C 0.99923 0.07354 0.69707 0.0
C2339 C 0.02326 0.08533 0.77367 0.0
C2340 C 0.01378 0.08476 0.73878 0.0
C2341 C 0.98814 0.08204 0.62953 0.0
C2342 C 0.99665 0.0831 0.66847 0.0
H2343 H 0.05191 0.09214 0.78126 0.0
H2344 H 0.03566 0.09328 0.72683 0.0
H2345 H 0.00963 0.06678 0.75261 0.0
H2346 H 0.96272 0.06864 0.60111 0.0
H2347 H 0.97629 0.07058 0.66607 0.0
C2348 C 0.66864 0.23099 0.30517 0.0
C2349 C 0.6762 0.2215 0.30836 0.0
C2350 C 0.66773 0.23893 0.34167 0.0
C2351 C 0.68302 0.24919 0.44806 0.0
H2352 H 0.65359 0.26432 0.47179 0.0
C2353 C 0.67649 0.28058 0.602 0.0
C2354 C 0.67225 0.29156 0.58927 0.0
C2355 C 0.67599 0.27131 0.57076 0.0
C2356 C 0.66185 0.26016 0.46547 0.0
H2357 H 0.68865 0.21277 0.35263 0.0
H2358 H 0.68681 0.22644 0.41726 0.0
H2359 H 0.65484 0.24929 0.41221 0.0
H2360 H 0.66349 0.3012 0.53471 0.0
H2361 H 0.66238 0.28488 0.48052 0.0
H2362 H 0.68994 0.25999 0.50205 0.0
C2363 C 0.68178 0.22794 0.38599 0.0
C2364 C 0.66262 0.25159 0.43114 0.0
C2365 C 0.68281 0.22007 0.34904 0.0
C2366 C 0.66686 0.29287 0.54559 0.0
C2367 C 0.66621 0.28353 0.51458 0.0
C2368 C 0.6822 0.25763 0.48286 0.0
C2369 C 0.67423 0.23751 0.38275 0.0
C2370 C 0.67325 0.2461 0.42144 0.0
C2371 C 0.67106 0.27276 0.5264 0.0
C2372 C 0.67165 0.26329 0.49152 0.0
H2373 H 0.66349 0.2324 0.27409 0.0
H2374 H 0.66204 0.2463 0.33721 0.0
H2375 H 0.6914 0.24534 0.44123 0.0
H2376 H 0.6807 0.27925 0.63534 0.0
H2377 H 0.67967 0.26306 0.58092 0.0
C2378 C 0.46401 0.91621 0.2982 0.0
C2379 C 0.465 0.92199 0.34118 0.0
C2380 C 0.47347 0.9156 0.26776 0.0
C2381 C 0.49891 0.93222 0.23529 0.0
H2382 H 0.5082 0.90472 0.16748 0.0
C2383 C 0.53645 0.93325 0.10132 0.0
C2384 C 0.53517 0.9264 0.0612 0.0
C2385 C 0.52865 0.93216 0.1385 0.0
C2386 C 0.50563 0.91253 0.18564 0.0
H2387 H 0.4769 0.93117 0.38677 0.0
H2388 H 0.4933 0.9302 0.33334 0.0
H2389 H 0.49316 0.90335 0.22699 0.0
H2390 H 0.52462 0.91319 0.02819 0.0
H2391 H 0.51085 0.91162 0.09172 0.0
H2392 H 0.51095 0.94154 0.1929 0.0
C2393 C 0.4852 0.92618 0.32326 0.0
C2394 C 0.49706 0.9117 0.21993 0.0
C2395 C 0.47581 0.92665 0.35394 0.0
C2396 C 0.52591 0.91853 0.05883 0.0
C2397 C 0.51804 0.91756 0.09556 0.0
C2398 C 0.50736 0.93309 0.20054 0.0
C2399 C 0.48405 0.92088 0.27947 0.0
C2400 C 0.49357 0.92155 0.24489 0.0
C2401 C 0.51932 0.92431 0.13606 0.0
C2402 C 0.51077 0.92327 0.17491 0.0
H2403 H 0.45583 0.91249 0.28737 0.0
H2404 H 0.47234 0.91148 0.23414 0.0
H2405 H 0.49628 0.93999 0.25363 0.0
H2406 H 0.54356 0.93932 0.10427 0.0
H2407 H 0.53002 0.93739 0.16932 0.0
C2408 C 0.8237 0.22122 0.65834 0.0
C2409 C 0.83073 0.22202 0.69823 0.0
C2410 C 0.82466 0.22944 0.62259 0.0
C2411 C 0.83312 0.25945 0.60163 0.0
H2412 H 0.83654 0.25037 0.47224 0.0
C2413 C 0.83984 0.29392 0.45959 0.0
C2414 C 0.83392 0.2923 0.4173 0.0
C2415 C 0.84068 0.2849 0.49196 0.0
C2416 C 0.83545 0.25308 0.5081 0.0
H2417 H 0.84423 0.23206 0.732 0.0
H2418 H 0.84571 0.24646 0.6702 0.0
H2419 H 0.83484 0.23552 0.53251 0.0
H2420 H 0.82463 0.27977 0.37508 0.0
H2421 H 0.82576 0.26423 0.43182 0.0
H2422 H 0.83329 0.27695 0.57774 0.0
C2423 C 0.83952 0.23947 0.66643 0.0
C2424 C 0.8345 0.24455 0.54258 0.0
C2425 C 0.83869 0.23119 0.7017 0.0
C2426 C 0.82931 0.28131 0.40723 0.0
C2427 C 0.83 0.27235 0.43986 0.0
C2428 C 0.8339 0.26797 0.56719 0.0
C2429 C 0.83253 0.23869 0.62653 0.0
C2430 C 0.83336 0.24767 0.58967 0.0
C2431 C 0.83546 0.27409 0.48316 0.0
C2432 C 0.8351 0.26492 0.5199 0.0
H2433 H 0.81752 0.21422 0.65462 0.0
H2434 H 0.81913 0.22869 0.59225 0.0
H2435 H 0.83211 0.26209 0.63765 0.0
H2436 H 0.84358 0.30225 0.46825 0.0
H2437 H 0.84524 0.28649 0.52432 0.0
C2438 C 0.53261 0.0919 0.42316 0.0
C2439 C 0.53686 0.08099 0.43664 0.0
C2440 C 0.52422 0.09286 0.38833 0.0
C2441 C 0.51036 0.07694 0.29077 0.0
H2442 H 0.48547 0.09897 0.31054 0.0
C2443 C 0.47484 0.0839 0.15246 0.0
C2444 C 0.46338 0.08434 0.16907 0.0
C2445 C 0.48419 0.08471 0.18328 0.0
C2446 C 0.49233 0.09275 0.30453 0.0
H2447 H 0.53578 0.06254 0.42339 0.0
H2448 H 0.52096 0.0642 0.36296 0.0
H2449 H 0.50099 0.09741 0.36771 0.0
H2450 H 0.45281 0.08654 0.23104 0.0
H2451 H 0.46908 0.08786 0.28467 0.0
H2452 H 0.50148 0.07198 0.22844 0.0
C2453 C 0.52424 0.07203 0.37895 0.0
C2454 C 0.50131 0.09194 0.33707 0.0
C2455 C 0.5327 0.07107 0.41375 0.0
C2456 C 0.46151 0.0862 0.21694 0.0
C2457 C 0.47087 0.08698 0.24777 0.0
C2458 C 0.50137 0.07773 0.25825 0.0
C2459 C 0.5198 0.08294 0.36616 0.0
C2460 C 0.51042 0.08398 0.33076 0.0
C2461 C 0.48232 0.08597 0.23147 0.0
C2462 C 0.4922 0.0856 0.26485 0.0
H2463 H 0.53571 0.09973 0.43978 0.0
H2464 H 0.52118 0.10141 0.37878 0.0
H2465 H 0.51729 0.07081 0.28451 0.0
H2466 H 0.47661 0.08256 0.11576 0.0
H2467 H 0.49289 0.08415 0.16941 0.0
C2468 C 0.66696 0.71273 0.95796 0.0
C2469 C 0.67242 0.71395 0.91436 0.0
C2470 C 0.6663 0.72213 0.9887 0.0
C2471 C 0.68242 0.74784 0.02083 0.0
H2472 H 0.6547 0.75728 0.0868 0.0
C2473 C 0.68304 0.78613 0.15121 0.0
C2474 C 0.67592 0.78525 0.19072 0.0
C2475 C 0.6821 0.77806 0.11492 0.0
C2476 C 0.66258 0.75467 0.06926 0.0
H2477 H 0.68101 0.72616 0.86823 0.0
H2478 H 0.68 0.74242 0.92225 0.0
H2479 H 0.65358 0.74192 0.0286 0.0
H2480 H 0.6624 0.77511 0.22368 0.0
H2481 H 0.66111 0.76083 0.16196 0.0
H2482 H 0.69159 0.76012 0.06256 0.0
C2483 C 0.67625 0.7342 0.93249 0.0
C2484 C 0.66189 0.7459 0.03569 0.0
C2485 C 0.67674 0.72489 0.90148 0.0
C2486 C 0.66793 0.77611 0.19344 0.0
C2487 C 0.66713 0.76794 0.1577 0.0
C2488 C 0.68317 0.75645 0.05496 0.0
C2489 C 0.67123 0.73286 0.97672 0.0
C2490 C 0.6718 0.7424 0.01124 0.0
C2491 C 0.67414 0.76881 0.11775 0.0
C2492 C 0.67327 0.75996 0.07989 0.0
H2493 H 0.66354 0.70444 0.96894 0.0
H2494 H 0.6624 0.72087 0.02269 0.0
H2495 H 0.69024 0.74519 0.00282 0.0
H2496 H 0.68922 0.79315 0.14803 0.0
H2497 H 0.68753 0.77915 0.08448 0.0
C2498 C 0.03037 0.92678 0.64888 0.0
C2499 C 0.04126 0.92223 0.66122 0.0
C2500 C 0.02106 0.92622 0.67994 0.0
C2501 C 0.00944 0.91152 0.78301 0.0
H2502 H 0.9955 0.94123 0.81182 0.0
C2503 C 0.98028 0.91755 0.94396 0.0
C2504 C 0.97111 0.92553 0.94218 0.0
C2505 C 0.98821 0.91674 0.90735 0.0
C2506 C 0.9991 0.93281 0.80369 0.0
H2507 H 0.05067 0.91288 0.71479 0.0
H2508 H 0.03427 0.91166 0.76859 0.0
H2509 H 0.01014 0.93991 0.75089 0.0
H2510 H 0.96293 0.93881 0.90025 0.0
H2511 H 0.97653 0.93714 0.83533 0.0
H2512 H 0.99831 0.90431 0.83497 0.0
C2513 C 0.03303 0.91577 0.73501 0.0
C2514 C 0.00754 0.93208 0.76884 0.0
C2515 C 0.04242 0.91648 0.70423 0.0
C2516 C 0.96997 0.93264 0.90274 0.0
C2517 C 0.97782 0.93171 0.86564 0.0
C2518 C 1.00086 0.9122 0.81735 0.0
C2519 C 0.02237 0.92092 0.72368 0.0
C2520 C 0.01289 0.92146 0.75856 0.0
C2521 C 0.98708 0.92376 0.8675 0.0
C2522 C 0.99569 0.92289 0.82873 0.0
H2523 H 0.02916 0.93128 0.6161 0.0
H2524 H 0.0129 0.93016 0.67019 0.0
H2525 H 0.01336 0.9032 0.77543 0.0
H2526 H 0.98146 0.91201 0.97408 0.0
H2527 H 0.99534 0.91072 0.91082 0.0
C2528 C 0.6768 0.77967 0.39878 0.0
C2529 C 0.67172 0.79034 0.41082 0.0
C2530 C 0.67632 0.77028 0.42943 0.0
C2531 C 0.66126 0.75802 0.53074 0.0
H2532 H 0.69123 0.74498 0.56196 0.0
C2533 C 0.66755 0.72922 0.69257 0.0
C2534 C 0.67577 0.72025 0.69123 0.0
C2535 C 0.66662 0.73707 0.65575 0.0
C2536 C 0.68275 0.74832 0.55313 0.0
H2537 H 0.66148 0.79923 0.46316 0.0
H2538 H 0.66046 0.78271 0.51629 0.0
H2539 H 0.6898 0.7596 0.50104 0.0
H2540 H 0.68932 0.71234 0.64982 0.0
H2541 H 0.68745 0.72582 0.58463 0.0
H2542 H 0.65414 0.74668 0.5822 0.0
C2543 C 0.66491 0.7817 0.4833 0.0
C2544 C 0.68195 0.75674 0.51827 0.0
C2545 C 0.66553 0.79117 0.45293 0.0
C2546 C 0.68297 0.71922 0.65199 0.0
C2547 C 0.68192 0.727 0.61473 0.0
C2548 C 0.66203 0.74947 0.56515 0.0
C2549 C 0.67059 0.77128 0.47242 0.0
C2550 C 0.67122 0.76178 0.50714 0.0
C2551 C 0.67375 0.73607 0.61619 0.0
C2552 C 0.67281 0.74462 0.57735 0.0
H2553 H 0.68164 0.77871 0.36665 0.0
H2554 H 0.68065 0.76229 0.41998 0.0
H2555 H 0.65287 0.76169 0.52251 0.0
H2556 H 0.66193 0.7303 0.7225 0.0
H2557 H 0.66041 0.74406 0.65883 0.0
C2558 C 0.53613 0.43307 0.90247 0.0
C2559 C 0.53494 0.42628 0.94279 0.0
C2560 C 0.52815 0.43205 0.86588 0.0
C2561 C 0.50453 0.41273 0.82113 0.0
H2562 H 0.49568 0.44011 0.75159 0.0
C2563 C 0.46288 0.41699 0.70846 0.0
C2564 C 0.46413 0.42233 0.66466 0.0
C2565 C 0.47226 0.41635 0.73927 0.0
C2566 C 0.49816 0.43237 0.77044 0.0
H2567 H 0.52433 0.41329 0.97685 0.0
H2568 H 0.51023 0.41188 0.91449 0.0
H2569 H 0.51051 0.44158 0.81173 0.0
H2570 H 0.47641 0.43071 0.6182 0.0
H2571 H 0.49267 0.42972 0.67229 0.0
H2572 H 0.49174 0.40368 0.78087 0.0
C2573 C 0.51751 0.41768 0.90993 0.0
C2574 C 0.50671 0.43318 0.80482 0.0
C2575 C 0.52557 0.41856 0.94601 0.0
C2576 C 0.47511 0.42654 0.65163 0.0
C2577 C 0.48442 0.42606 0.68267 0.0
C2578 C 0.49585 0.41197 0.78726 0.0
C2579 C 0.5187 0.42435 0.86917 0.0
C2580 C 0.50997 0.42339 0.83091 0.0
C2581 C 0.48303 0.42117 0.72712 0.0
C2582 C 0.49255 0.42179 0.76172 0.0
H2583 H 0.54333 0.43902 0.89889 0.0
H2584 H 0.52948 0.43722 0.83485 0.0
H2585 H 0.50697 0.40492 0.83961 0.0
H2586 H 0.45455 0.41365 0.71958 0.0
H2587 H 0.47096 0.41256 0.77342 0.0
C2588 C 0.82324 0.2848 0.15706 0.0
C2589 C 0.83031 0.28431 0.19691 0.0
C2590 C 0.82429 0.27641 0.12201 0.0
C2591 C 0.83287 0.24642 0.10307 0.0
H2592 H 0.83708 0.25507 0.9736 0.0
C2593 C 0.83976 0.21144 0.96266 0.0
C2594 C 0.83418 0.21314 0.91966 0.0
C2595 C 0.84054 0.22049 0.99501 0.0
C2596 C 0.83576 0.25247 0.00947 0.0
H2597 H 0.84392 0.27459 0.23148 0.0
H2598 H 0.84552 0.25985 0.17096 0.0
H2599 H 0.83512 0.27011 0.0329 0.0
H2600 H 0.82543 0.22583 0.87631 0.0
H2601 H 0.82643 0.24137 0.93288 0.0
H2602 H 0.83301 0.22884 0.0801 0.0
C2603 C 0.83926 0.26676 0.16664 0.0
C2604 C 0.83467 0.26111 0.04339 0.0
C2605 C 0.83837 0.27524 0.20114 0.0
C2606 C 0.82985 0.22421 0.909 0.0
C2607 C 0.83047 0.23319 0.94155 0.0
C2608 C 0.83375 0.23778 0.06915 0.0
C2609 C 0.83226 0.26727 0.12671 0.0
C2610 C 0.83323 0.25816 0.0905 0.0
C2611 C 0.83561 0.2314 0.98544 0.0
C2612 C 0.83521 0.24066 0.0218 0.0
H2613 H 0.81699 0.29171 0.1528 0.0
H2614 H 0.81875 0.27694 0.09159 0.0
H2615 H 0.83166 0.24392 0.13916 0.0
H2616 H 0.84328 0.20306 0.97181 0.0
H2617 H 0.84485 0.21884 0.02788 0.0
C2618 C 0.97091 0.5737 0.40741 0.0
C2619 C 0.97136 0.58111 0.44628 0.0
C2620 C 0.97909 0.57473 0.37152 0.0
C2621 C 0.00873 0.58429 0.34947 0.0
H2622 H 0.99963 0.58624 0.21962 0.0
C2623 C 0.04313 0.59096 0.20697 0.0
C2624 C 0.04173 0.58471 0.16532 0.0
C2625 C 0.03404 0.59177 0.23911 0.0
C2626 C 1.00236 0.58556 0.25562 0.0
H2627 H 0.98075 0.59535 0.47803 0.0
H2628 H 0.9951 0.59695 0.41605 0.0
H2629 H 0.9848 0.58443 0.27996 0.0
H2630 H 0.0295 0.57479 0.12403 0.0
H2631 H 0.01388 0.57585 0.1804 0.0
H2632 H 0.02623 0.58494 0.32575 0.0
C2633 C 0.9884 0.59042 0.41317 0.0
C2634 C 0.99384 0.58455 0.29015 0.0
C2635 C 0.98014 0.58952 0.44855 0.0
C2636 C 0.03087 0.57974 0.15563 0.0
C2637 C 0.02186 0.58038 0.18807 0.0
C2638 C 0.01724 0.58511 0.31502 0.0
C2639 C 0.98798 0.58304 0.37431 0.0
C2640 C 0.99695 0.58394 0.33741 0.0
C2641 C 0.02339 0.58618 0.23081 0.0
C2642 C 0.0142 0.58578 0.26753 0.0
H2643 H 0.96421 0.56717 0.40461 0.0
H2644 H 0.97861 0.5689 0.34201 0.0
H2645 H 0.01137 0.5837 0.38564 0.0
H2646 H 0.05136 0.59497 0.21534 0.0
H2647 H 0.03548 0.5966 0.27095 0.0
C2648 C 0.66703 0.21217 0.043 0.0
C2649 C 0.67221 0.21362 0.087 0.0
C2650 C 0.66632 0.22148 0.01181 0.0
C2651 C 0.68206 0.24746 0.9803 0.0
H2652 H 0.65455 0.25626 0.91155 0.0
C2653 C 0.68262 0.2858 0.85042 0.0
C2654 C 0.67578 0.2848 0.81015 0.0
C2655 C 0.68162 0.27767 0.88646 0.0
C2656 C 0.66237 0.25382 0.92988 0.0
H2657 H 0.68025 0.22615 0.1334 0.0
H2658 H 0.67916 0.24224 0.07866 0.0
H2659 H 0.65341 0.24091 0.96986 0.0
H2660 H 0.66271 0.2744 0.7756 0.0
H2661 H 0.66134 0.26003 0.83699 0.0
H2662 H 0.69121 0.25991 0.93934 0.0
C2663 C 0.67566 0.23392 0.06842 0.0
C2664 C 0.66167 0.24507 0.96349 0.0
C2665 C 0.67621 0.22469 0.09982 0.0
C2666 C 0.66802 0.27548 0.80644 0.0
C2667 C 0.66717 0.26727 0.84196 0.0
C2668 C 0.68283 0.25606 0.94615 0.0
C2669 C 0.67094 0.23234 0.0238 0.0
C2670 C 0.67151 0.24181 0.98898 0.0
C2671 C 0.67391 0.26825 0.88264 0.0
C2672 C 0.673 0.25935 0.92029 0.0
H2673 H 0.66385 0.20377 0.03206 0.0
H2674 H 0.66264 0.22005 0.97754 0.0
H2675 H 0.68982 0.245 0.99911 0.0
H2676 H 0.68861 0.29296 0.85437 0.0
H2677 H 0.68683 0.27887 0.91748 0.0
C2678 C 0.96937 0.4327 0.10269 0.0
C2679 C 0.97057 0.42583 0.06257 0.0
C2680 C 0.97726 0.43165 0.13957 0.0
C2681 C 1.00063 0.4122 0.18554 0.0
H2682 H 0.00975 0.4397 0.25377 0.0
C2683 C 0.04246 0.41653 0.29685 0.0
C2684 C 0.04134 0.42202 0.3404 0.0
C2685 C 0.033 0.41583 0.26646 0.0
C2686 C 0.00719 0.43192 0.23532 0.0
H2687 H 0.98109 0.41265 0.02924 0.0
H2688 H 0.99503 0.41118 0.09214 0.0
H2689 H 0.99492 0.44113 0.19362 0.0
H2690 H 0.02922 0.43059 0.38693 0.0
H2691 H 0.01282 0.42951 0.33354 0.0
H2692 H 0.01336 0.40316 0.22615 0.0
C2693 C 0.98782 0.41708 0.09629 0.0
C2694 C 0.99864 0.43272 0.20093 0.0
C2695 C 0.97985 0.41799 0.0599 0.0
C2696 C 0.03042 0.42631 0.35367 0.0
C2697 C 0.02103 0.42577 0.32303 0.0
C2698 C 0.00931 0.41146 0.21941 0.0
C2699 C 0.98663 0.42384 0.1368 0.0
C2700 C 0.9953 0.42288 0.17525 0.0
C2701 C 0.02229 0.42074 0.27878 0.0
C2702 C 0.01271 0.42132 0.24446 0.0
H2703 H 0.96224 0.43875 0.10585 0.0
H2704 H 0.97594 0.43689 0.17041 0.0
H2705 H 0.99812 0.40437 0.16738 0.0
H2706 H 0.05074 0.41311 0.28558 0.0
H2707 H 0.0342 0.41192 0.23246 0.0
C2708 C 0.84208 0.72398 0.32934 0.0
C2709 C 0.83122 0.71964 0.31571 0.0
C2710 C 0.84294 0.73242 0.36406 0.0
C2711 C 0.82678 0.7462 0.4612 0.0
H2712 H 0.84873 0.77119 0.4421 0.0
C2713 C 0.83586 0.79502 0.53605 0.0
C2714 C 0.83395 0.79309 0.58386 0.0
C2715 C 0.83667 0.78571 0.50502 0.0
C2716 C 0.84253 0.76431 0.44792 0.0
H2717 H 0.81274 0.72062 0.32855 0.0
H2718 H 0.81422 0.7355 0.38877 0.0
H2719 H 0.84733 0.75569 0.3848 0.0
H2720 H 0.8321 0.77979 0.63682 0.0
H2721 H 0.83374 0.76358 0.58284 0.0
H2722 H 0.82169 0.75504 0.52347 0.0
C2723 C 0.8221 0.73226 0.373 0.0
C2724 C 0.84181 0.75533 0.4153 0.0
C2725 C 0.82124 0.72377 0.33831 0.0
C2726 C 0.83348 0.78161 0.60019 0.0
C2727 C 0.83432 0.77231 0.56916 0.0
C2728 C 0.82749 0.75519 0.49378 0.0
C2729 C 0.83296 0.73678 0.38597 0.0
C2730 C 0.83389 0.74619 0.42139 0.0
C2731 C 0.83563 0.77424 0.52104 0.0
C2732 C 0.83533 0.76439 0.48745 0.0
H2733 H 0.84996 0.72093 0.31295 0.0
H2734 H 0.85146 0.73553 0.37375 0.0
H2735 H 0.82068 0.73925 0.4673 0.0
H2736 H 0.83624 0.80374 0.52219 0.0
H2737 H 0.83759 0.78754 0.46818 0.0
C2738 C 0.52537 0.58902 0.55459 0.0
C2739 C 0.53433 0.5808 0.55693 0.0
C2740 C 0.51718 0.58987 0.59025 0.0
C2741 C 0.51213 0.58416 0.71379 0.0
H2742 H 0.47967 0.58435 0.67908 0.0
C2743 C 0.47518 0.57945 0.84901 0.0
C2744 C 0.46436 0.58449 0.83935 0.0
C2745 C 0.4842 0.58004 0.81652 0.0
C2746 C 0.48868 0.58456 0.68954 0.0
H2747 H 0.54186 0.56714 0.59903 0.0
H2748 H 0.52756 0.56876 0.66206 0.0
H2749 H 0.49443 0.58305 0.61882 0.0
H2750 H 0.4548 0.59485 0.78947 0.0
H2751 H 0.47065 0.59634 0.73372 0.0
H2752 H 0.50644 0.58591 0.78446 0.0
C2753 C 0.5269 0.5745 0.63229 0.0
C2754 C 0.49714 0.58372 0.65489 0.0
C2755 C 0.53502 0.57353 0.59615 0.0
C2756 C 0.46299 0.59077 0.79776 0.0
C2757 C 0.47206 0.59151 0.76556 0.0
C2758 C 0.50366 0.58517 0.74853 0.0
C2759 C 0.51784 0.58262 0.62944 0.0
C2760 C 0.50894 0.58346 0.66663 0.0
C2761 C 0.48267 0.58583 0.77378 0.0
C2762 C 0.4918 0.58534 0.73691 0.0
H2763 H 0.52457 0.59476 0.52486 0.0
H2764 H 0.51036 0.59627 0.58731 0.0
H2765 H 0.52118 0.5841 0.72374 0.0
H2766 H 0.47653 0.57448 0.8806 0.0
H2767 H 0.49216 0.57546 0.82411 0.0
C2768 C 0.3236 0.28582 0.35013 0.0
C2769 C 0.33047 0.28449 0.31005 0.0
C2770 C 0.32458 0.27799 0.38724 0.0
C2771 C 0.34391 0.25472 0.43442 0.0
H2772 H 0.31629 0.24571 0.50212 0.0
C2773 C 0.33974 0.21323 0.54754 0.0
C2774 C 0.33394 0.21431 0.59045 0.0
C2775 C 0.34044 0.22264 0.51691 0.0
C2776 C 0.3241 0.24824 0.48386 0.0
H2777 H 0.3436 0.27384 0.27713 0.0
H2778 H 0.34498 0.26002 0.34055 0.0
H2779 H 0.31495 0.26038 0.44136 0.0
H2780 H 0.32481 0.22633 0.63567 0.0
H2781 H 0.32594 0.24265 0.58193 0.0
H2782 H 0.35291 0.24214 0.47591 0.0
C2783 C 0.33912 0.26727 0.34439 0.0
C2784 C 0.32336 0.2567 0.44909 0.0
C2785 C 0.33825 0.27516 0.30771 0.0
C2786 C 0.32934 0.22517 0.60291 0.0
C2787 C 0.3299 0.23451 0.57204 0.0
C2788 C 0.34461 0.24614 0.46874 0.0
C2789 C 0.33234 0.26858 0.38481 0.0
C2790 C 0.33324 0.25999 0.42359 0.0
C2791 C 0.33524 0.23327 0.52835 0.0
C2792 C 0.3347 0.24278 0.49363 0.0
H2793 H 0.31759 0.29298 0.35307 0.0
H2794 H 0.31933 0.27939 0.41801 0.0
H2795 H 0.35177 0.25719 0.41636 0.0
H2796 H 0.34342 0.20501 0.53692 0.0
H2797 H 0.34459 0.22144 0.48337 0.0
C2798 C 0.4742 0.59196 0.0773 0.0
C2799 C 0.46983 0.58106 0.06437 0.0
C2800 C 0.48252 0.59295 0.11242 0.0
C2801 C 0.49599 0.57718 0.21137 0.0
H2802 H 0.52103 0.59903 0.19171 0.0
C2803 C 0.54478 0.58635 0.28608 0.0
C2804 C 0.54286 0.58453 0.33395 0.0
C2805 C 0.53546 0.58712 0.25509 0.0
C2806 C 0.51413 0.59285 0.1977 0.0
H2807 H 0.47064 0.56265 0.07882 0.0
H2808 H 0.48535 0.56435 0.13967 0.0
H2809 H 0.50565 0.59742 0.13405 0.0
H2810 H 0.52958 0.58279 0.38705 0.0
H2811 H 0.51335 0.58437 0.3331 0.0
H2812 H 0.50472 0.57229 0.27415 0.0
C2813 C 0.48221 0.57217 0.12308 0.0
C2814 C 0.50522 0.59202 0.16486 0.0
C2815 C 0.47382 0.57118 0.08803 0.0
C2816 C 0.53139 0.58411 0.35037 0.0
C2817 C 0.52207 0.58492 0.31937 0.0
C2818 C 0.50492 0.57798 0.24416 0.0
C2819 C 0.48675 0.58307 0.13539 0.0
C2820 C 0.49606 0.58413 0.17113 0.0
C2821 C 0.52399 0.58614 0.2712 0.0
C2822 C 0.51415 0.58578 0.2376 0.0
H2823 H 0.47124 0.59977 0.0601 0.0
H2824 H 0.48563 0.60151 0.12158 0.0
H2825 H 0.48901 0.5711 0.21763 0.0
H2826 H 0.55349 0.58667 0.27212 0.0
H2827 H 0.53729 0.58796 0.21822 0.0
C2828 C 0.18248 0.71963 0.85225 0.0
C2829 C 0.17543 0.72106 0.81276 0.0
C2830 C 0.18149 0.7272 0.89024 0.0
C2831 C 0.16183 0.74964 0.94131 0.0
H2832 H 0.18961 0.75929 0.00655 0.0
C2833 C 0.1654 0.7911 0.05423 0.0
C2834 C 0.17173 0.79036 0.09601 0.0
C2835 C 0.16473 0.78159 0.0241 0.0
C2836 C 0.18175 0.75656 0.98907 0.0
H2837 H 0.16193 0.73164 0.78188 0.0
H2838 H 0.16049 0.74499 0.8469 0.0
H2839 H 0.19098 0.74484 0.94494 0.0
H2840 H 0.18184 0.77885 0.13993 0.0
H2841 H 0.18073 0.76233 0.08706 0.0
H2842 H 0.15272 0.76179 0.98439 0.0
C2843 C 0.16654 0.73785 0.84953 0.0
C2844 C 0.18253 0.74824 0.95377 0.0
C2845 C 0.16743 0.73023 0.81194 0.0
C2846 C 0.17688 0.77973 0.10805 0.0
C2847 C 0.17633 0.77028 0.07764 0.0
C2848 C 0.16109 0.75807 0.9762 0.0
C2849 C 0.17351 0.73644 0.88934 0.0
C2850 C 0.1726 0.74475 0.92901 0.0
C2851 C 0.17048 0.7712 0.03488 0.0
C2852 C 0.17106 0.76168 1.00017 0.0
H2853 H 0.18867 0.71259 0.85403 0.0
H2854 H 0.18691 0.72573 0.92048 0.0
H2855 H 0.15395 0.747 0.92384 0.0
H2856 H 0.16128 0.79913 0.04402 0.0
H2857 H 0.16018 0.78256 0.9913 0.0
C2858 C 0.96395 0.41638 0.79864 0.0
C2859 C 0.96496 0.42217 0.8416 0.0
C2860 C 0.97341 0.41569 0.76828 0.0
C2861 C 0.99898 0.43206 0.73557 0.0
H2862 H 0.00824 0.40432 0.66928 0.0
C2863 C 0.0366 0.43264 0.60202 0.0
C2864 C 0.03535 0.42567 0.56221 0.0
C2865 C 0.02879 0.43165 0.63921 0.0
C2866 C 0.00568 0.4122 0.68699 0.0
H2867 H 0.97689 0.43131 0.88714 0.0
H2868 H 0.9933 0.43023 0.83379 0.0
H2869 H 0.99311 0.40319 0.72853 0.0
H2870 H 0.02484 0.41234 0.52983 0.0
H2871 H 0.01105 0.41093 0.59332 0.0
H2872 H 0.01109 0.44121 0.69296 0.0
C2873 C 0.98518 0.42625 0.82372 0.0
C2874 C 0.99706 0.4115 0.72114 0.0
C2875 C 0.97578 0.42679 0.85435 0.0
C2876 C 0.02611 0.41776 0.56021 0.0
C2877 C 0.01823 0.41689 0.59693 0.0
C2878 C 0.00747 0.4328 0.70094 0.0
C2879 C 0.98402 0.42091 0.78001 0.0
C2880 C 0.99358 0.42144 0.74557 0.0
C2881 C 0.01946 0.42378 0.63709 0.0
C2882 C 0.01087 0.42289 0.67584 0.0
H2883 H 0.95575 0.4127 0.78781 0.0
H2884 H 0.97228 0.41154 0.73471 0.0
H2885 H 0.99635 0.43989 0.7535 0.0
H2886 H 0.04369 0.43874 0.60469 0.0
H2887 H 0.03014 0.43698 0.66976 0.0
C2888 C 0.32851 0.78117 0.90562 0.0
C2889 C 0.33344 0.79201 0.91593 0.0
C2890 C 0.32904 0.7721 0.93781 0.0
C2891 C 0.33342 0.76715 0.06474 0.0
H2892 H 0.33317 0.73483 0.02795 0.0
C2893 C 0.33826 0.72961 0.19583 0.0
C2894 C 0.32987 0.72081 0.19331 0.0
C2895 C 0.33906 0.738 0.16096 0.0
C2896 C 0.33317 0.74383 0.03861 0.0
H2897 H 0.34348 0.80156 0.96688 0.0
H2898 H 0.3449 0.7856 0.02215 0.0
H2899 H 0.33497 0.74986 0.96847 0.0
H2900 H 0.31585 0.71378 0.15174 0.0
H2901 H 0.31743 0.72841 0.08989 0.0
H2902 H 0.33192 0.76103 0.13499 0.0
C2903 C 0.34019 0.78422 0.98997 0.0
C2904 C 0.33417 0.75246 0.00458 0.0
C2905 C 0.33949 0.79336 0.95806 0.0
C2906 C 0.32238 0.72049 0.15469 0.0
C2907 C 0.32332 0.7288 0.11926 0.0
C2908 C 0.33261 0.75852 0.0987 0.0
C2909 C 0.33468 0.77356 0.98092 0.0
C2910 C 0.33424 0.76427 0.01714 0.0
C2911 C 0.33161 0.73769 0.12235 0.0
C2912 C 0.33242 0.74678 0.08598 0.0
H2913 H 0.32371 0.77984 0.87361 0.0
H2914 H 0.32456 0.76412 0.92958 0.0
H2915 H 0.33314 0.7761 0.07592 0.0
H2916 H 0.34415 0.73013 0.22516 0.0
H2917 H 0.34558 0.74471 0.16402 0.0
C2918 C 0.03212 0.59187 0.9254 0.0
C2919 C 0.03616 0.58092 0.93941 0.0
C2920 C 0.02379 0.59289 0.89031 0.0
C2921 C 0.00985 0.57691 0.79305 0.0
H2922 H 0.98541 0.59955 0.81046 0.0
C2923 C 0.96134 0.58684 0.71718 0.0
C2924 C 0.96324 0.58464 0.66955 0.0
C2925 C 0.97067 0.58761 0.74815 0.0
C2926 C 0.99214 0.59316 0.8051 0.0
H2927 H 0.03475 0.56246 0.92697 0.0
H2928 H 0.02004 0.56422 0.86618 0.0
H2929 H 1.00075 0.59788 0.86833 0.0
H2930 H 0.9765 0.5823 0.61673 0.0
H2931 H 0.99274 0.58389 0.67059 0.0
H2932 H 1.001 0.57189 0.73074 0.0
C2933 C 0.02344 0.57204 0.88189 0.0
C2934 C 1.00102 0.59229 0.83805 0.0
C2935 C 0.03183 0.57102 0.91691 0.0
C2936 C 0.97471 0.5839 0.65324 0.0
C2937 C 0.98403 0.58471 0.6842 0.0
C2938 C 1.00095 0.57777 0.76015 0.0
C2939 C 0.01924 0.58299 0.86845 0.0
C2940 C 0.00996 0.5841 0.83261 0.0
C2941 C 0.98212 0.58627 0.73222 0.0
C2942 C 0.99194 0.58586 0.7659 0.0
H2943 H 0.03534 0.59969 0.9417 0.0
H2944 H 0.02094 0.60147 0.88028 0.0
H2945 H 0.01665 0.57061 0.78743 0.0
H2946 H 0.95264 0.58744 0.73104 0.0
H2947 H 0.96885 0.58874 0.78491 0.0
C2948 C 0.16861 0.27681 0.69241 0.0
C2949 C 0.1767 0.28588 0.69033 0.0
C2950 C 0.16776 0.26878 0.65622 0.0
C2951 C 0.18388 0.25736 0.55367 0.0
H2952 H 0.15414 0.24336 0.5253 0.0
C2953 C 0.17761 0.22587 0.3998 0.0
C2954 C 0.17289 0.21506 0.41232 0.0
C2955 C 0.17717 0.23521 0.43068 0.0
C2956 C 0.16249 0.24721 0.53293 0.0
H2957 H 0.19013 0.29378 0.64828 0.0
H2958 H 0.18839 0.27999 0.58404 0.0
H2959 H 0.15533 0.25859 0.58409 0.0
H2960 H 0.16338 0.20586 0.466 0.0
H2961 H 0.16239 0.22233 0.51951 0.0
H2962 H 0.19094 0.24608 0.50163 0.0
C2963 C 0.1829 0.27886 0.61429 0.0
C2964 C 0.16321 0.25588 0.56683 0.0
C2965 C 0.18388 0.28682 0.65099 0.0
C2966 C 0.16713 0.21404 0.45534 0.0
C2967 C 0.16654 0.22346 0.48593 0.0
C2968 C 0.18311 0.24883 0.51924 0.0
C2969 C 0.17485 0.2697 0.61649 0.0
C2970 C 0.17395 0.26097 0.57821 0.0
C2971 C 0.17184 0.23404 0.47439 0.0
C2972 C 0.17243 0.24357 0.50893 0.0
H2973 H 0.16302 0.27579 0.72248 0.0
H2974 H 0.16165 0.26172 0.65995 0.0
H2975 H 0.19232 0.26088 0.56185 0.0
H2976 H 0.18212 0.22698 0.36699 0.0
H2977 H 0.18122 0.24332 0.42076 0.0
C2978 C 0.53033 0.42692 0.15073 0.0
C2979 C 0.54119 0.42233 0.16323 0.0
C2980 C 0.521 0.42639 0.18164 0.0
C2981 C 0.50924 0.4117 0.28444 0.0
H2982 H 0.49533 0.44145 0.31283 0.0
C2983 C 0.47988 0.41793 0.44468 0.0
C2984 C 0.47072 0.42592 0.44246 0.0
C2985 C 0.48785 0.41705 0.40826 0.0
C2986 C 0.49891 0.43302 0.3048 0.0
H2987 H 0.55051 0.41292 0.21687 0.0
H2988 H 0.53407 0.41177 0.27046 0.0
H2989 H 0.51005 0.4401 0.25229 0.0
H2990 H 0.46259 0.43912 0.39993 0.0
H2991 H 0.47627 0.43733 0.33538 0.0
H2992 H 0.49802 0.40453 0.33618 0.0
C2993 C 0.53288 0.41589 0.23687 0.0
C2994 C 0.5074 0.43227 0.27018 0.0
C2995 C 0.54229 0.41658 0.20623 0.0
C2996 C 0.46962 0.43295 0.40277 0.0
C2997 C 0.47752 0.43195 0.36588 0.0
C2998 C 0.50062 0.41241 0.31857 0.0
C2999 C 0.52225 0.42108 0.22537 0.0
C3000 C 0.51274 0.42164 0.26005 0.0
C3001 C 0.48678 0.42401 0.36822 0.0
C3002 C 0.49544 0.42312 0.32974 0.0
H3003 H 0.52916 0.43141 0.11791 0.0
H3004 H 0.51285 0.43035 0.17175 0.0
H3005 H 0.51316 0.40338 0.27697 0.0
H3006 H 0.48102 0.41246 0.475 0.0
H3007 H 0.49498 0.41104 0.41204 0.0
C3008 C 0.14339 0.16224 0.2356 0.0
C3009 C 0.15526 0.16254 0.22493 0.0
C3010 C 0.13588 0.15488 0.21117 0.0
C3011 C 0.13565 0.12761 0.14491 0.0
H3012 H 0.10545 0.13775 0.10223 0.0
C3013 C 0.10693 0.09866 0.02757 0.0
C3014 C 0.09482 0.09956 0.03052 0.0
C3015 C 0.11411 0.10617 0.0527 0.0
C3016 C 0.11375 0.13467 0.11457 0.0
H3017 H 0.16861 0.1555 0.18037 0.0
H3018 H 0.15551 0.14254 0.13759 0.0
H3019 H 0.11828 0.15143 0.1414 0.0
H3020 H 0.08073 0.10873 0.0639 0.0
H3021 H 0.09323 0.12154 0.10953 0.0
H3022 H 0.13111 0.11082 0.11933 0.0
C3023 C 0.15199 0.14801 0.1648 0.0
C3024 C 0.12115 0.14257 0.13682 0.0
C3025 C 0.15947 0.15549 0.1889 0.0
C3026 C 0.09004 0.10781 0.06092 0.0
C3027 C 0.09724 0.11528 0.08655 0.0
C3028 C 0.12821 0.11968 0.12319 0.0
C3029 C 0.14011 0.14753 0.17594 0.0
C3030 C 0.13223 0.13916 0.152 0.0
C3031 C 0.1094 0.1147 0.08225 0.0
C3032 C 0.11716 0.12308 0.10733 0.0
H3033 H 0.13996 0.16755 0.26352 0.0
H3034 H 0.12682 0.15467 0.22092 0.0
H3035 H 0.14403 0.12463 0.15691 0.0
H3036 H 0.11087 0.09228 0.00487 0.0
H3037 H 0.12338 0.10546 0.04777 0.0
C3038 C 0.0949 0.89444 0.48531 0.0
C3039 C 0.09438 0.90625 0.47385 0.0
C3040 C 0.10223 0.88693 0.46085 0.0
C3041 C 0.11987 0.88432 0.352 0.0
H3042 H 0.13555 0.86018 0.42172 0.0
C3043 C 0.15719 0.85752 0.27185 0.0
C3044 C 0.15699 0.84548 0.27907 0.0
C3045 C 0.14969 0.86483 0.29646 0.0
C3046 C 0.13117 0.86681 0.40162 0.0
H3047 H 0.10108 0.9195 0.42797 0.0
H3048 H 0.11401 0.90645 0.38531 0.0
H3049 H 0.12208 0.87309 0.46153 0.0
H3050 H 0.14904 0.83171 0.31905 0.0
H3051 H 0.13604 0.8445 0.3628 0.0
H3052 H 0.12913 0.87811 0.29225 0.0
C3053 C 0.10859 0.90288 0.41256 0.0
C3054 C 0.12339 0.87421 0.42443 0.0
C3055 C 0.10119 0.91039 0.43693 0.0
C3056 C 0.14946 0.84096 0.31297 0.0
C3057 C 0.14199 0.8483 0.33791 0.0
C3058 C 0.12771 0.87697 0.32929 0.0
C3059 C 0.10933 0.89105 0.42451 0.0
C3060 C 0.1176 0.88309 0.39998 0.0
C3061 C 0.14186 0.86031 0.32936 0.0
C3062 C 0.13348 0.86811 0.35378 0.0
H3063 H 0.08972 0.89105 0.51372 0.0
H3064 H 0.10233 0.87787 0.4706 0.0
H3065 H 0.11547 0.89089 0.33168 0.0
H3066 H 0.16305 0.86129 0.24658 0.0
H3067 H 0.15003 0.87405 0.28965 0.0
C3068 C 0.3626 0.84429 0.73669 0.0
C3069 C 0.35084 0.84362 0.72456 0.0
C3070 C 0.37016 0.85153 0.712 0.0
C3071 C 0.37283 0.86889 0.60205 0.0
H3072 H 0.39705 0.88462 0.67118 0.0
C3073 C 0.39913 0.9067 0.52292 0.0
C3074 C 0.41122 0.90639 0.52856 0.0
C3075 C 0.39196 0.89908 0.54753 0.0
C3076 C 0.3904 0.88022 0.65129 0.0
H3077 H 0.33773 0.84993 0.67721 0.0
H3078 H 0.35081 0.86278 0.63444 0.0
H3079 H 0.3842 0.87117 0.71138 0.0
H3080 H 0.42524 0.89806 0.56585 0.0
H3081 H 0.41268 0.88488 0.60991 0.0
H3082 H 0.37892 0.87821 0.54221 0.0
C3083 C 0.35434 0.85753 0.66228 0.0
C3084 C 0.38302 0.87244 0.67429 0.0
C3085 C 0.3468 0.85018 0.68678 0.0
C3086 C 0.41595 0.89858 0.56099 0.0
C3087 C 0.40875 0.89101 0.58608 0.0
C3088 C 0.38013 0.87677 0.57921 0.0
C3089 C 0.36613 0.85841 0.67482 0.0
C3090 C 0.37411 0.86664 0.65005 0.0
C3091 C 0.39668 0.89102 0.579 0.0
C3092 C 0.389 0.88255 0.60351 0.0
H3093 H 0.36591 0.8393 0.76577 0.0
H3094 H 0.37919 0.85172 0.72226 0.0
H3095 H 0.36627 0.86448 0.5818 0.0
H3096 H 0.3952 0.91278 0.49887 0.0
H3097 H 0.38269 0.89949 0.54189 0.0
C3098 C 0.40596 0.09647 0.93696 0.0
C3099 C 0.41226 0.10052 0.97549 0.0
C3100 C 0.39853 0.10393 0.91247 0.0
C3101 C 0.39218 0.13482 0.88905 0.0
H3102 H 0.36116 0.12385 0.86229 0.0
C3103 C 0.35714 0.16546 0.81198 0.0
C3104 C 0.34942 0.16076 0.77916 0.0
C3105 C 0.36462 0.15825 0.83744 0.0
C3106 C 0.36983 0.12705 0.86874 0.0
H3107 H 0.41599 0.1155 0.01817 0.0
H3108 H 0.40322 0.12862 0.97493 0.0
H3109 H 0.37497 0.11104 0.9005 0.0
H3110 H 0.34317 0.14477 0.74883 0.0
H3111 H 0.35641 0.13228 0.7914 0.0
H3112 H 0.38719 0.15073 0.85645 0.0
C3113 C 0.40397 0.11971 0.96353 0.0
C3114 C 0.37775 0.11967 0.89081 0.0
C3115 C 0.41126 0.11221 0.98832 0.0
C3116 C 0.34913 0.14868 0.7734 0.0
C3117 C 0.35666 0.14149 0.79838 0.0
C3118 C 0.3843 0.14217 0.86642 0.0
C3119 C 0.39736 0.11562 0.92572 0.0
C3120 C 0.38903 0.12345 0.90128 0.0
C3121 C 0.36462 0.14614 0.83056 0.0
C3122 C 0.37298 0.1384 0.85586 0.0
H3123 H 0.40651 0.08746 0.92669 0.0
H3124 H 0.39364 0.10053 0.88328 0.0
H3125 H 0.40083 0.13798 0.89626 0.0
H3126 H 0.35761 0.17474 0.8171 0.0
H3127 H 0.37044 0.16219 0.86243 0.0
C3128 C 0.91617 0.89833 0.94159 0.0
C3129 C 0.91144 0.90629 0.97343 0.0
C3130 C 0.90894 0.89081 0.91634 0.0
C3131 C 0.88027 0.87682 0.92288 0.0
H3132 H 0.88407 0.87131 0.79053 0.0
C3133 C 0.84663 0.85029 0.81666 0.0
C3134 C 0.8505 0.84391 0.77809 0.0
C3135 C 0.85426 0.85759 0.84094 0.0
C3136 C 0.88297 0.87255 0.82768 0.0
H3137 H 0.89541 0.91304 0.00172 0.0
H3138 H 0.88286 0.8998 0.95862 0.0
H3139 H 0.89708 0.88465 0.83056 0.0
H3140 H 0.86535 0.83986 0.73519 0.0
H3141 H 0.87881 0.85213 0.77843 0.0
H3142 H 0.86638 0.86457 0.92064 0.0
C3143 C 0.89214 0.89925 0.95353 0.0
C3144 C 0.89043 0.88027 0.85057 0.0
C3145 C 0.89933 0.90684 0.97819 0.0
C3146 C 0.86218 0.8447 0.76493 0.0
C3147 C 0.86984 0.85187 0.78947 0.0
C3148 C 0.87291 0.86898 0.90019 0.0
C3149 C 0.89684 0.89102 0.92275 0.0
C3150 C 0.88912 0.88258 0.89838 0.0
C3151 C 0.86599 0.85859 0.82746 0.0
C3152 C 0.87407 0.86676 0.8521 0.0
H3153 H 0.92546 0.89764 0.93737 0.0
H3154 H 0.91284 0.88456 0.89298 0.0
H3155 H 0.87913 0.87826 0.95992 0.0
H3156 H 0.83761 0.84994 0.82703 0.0
H3157 H 0.85084 0.86271 0.86939 0.0
C3158 C 0.84658 0.15056 0.71094 0.0
C3159 C 0.84977 0.16191 0.72274 0.0
C3160 C 0.85417 0.14343 0.68583 0.0
C3161 C 0.88181 0.14385 0.61611 0.0
H3162 H 0.88066 0.11085 0.64006 0.0
C3163 C 0.90823 0.11141 0.50466 0.0
C3164 C 0.91187 0.10088 0.52437 0.0
C3165 C 0.90106 0.119 0.52949 0.0
C3166 C 0.88129 0.12005 0.63328 0.0
H3167 H 0.86329 0.17477 0.71782 0.0
H3168 H 0.87679 0.16228 0.67559 0.0
H3169 H 0.8677 0.12369 0.68164 0.0
H3170 H 0.91099 0.09017 0.58614 0.0
H3171 H 0.89911 0.10369 0.63081 0.0
H3172 H 0.89585 0.14028 0.56974 0.0
C3173 C 0.86831 0.15888 0.68416 0.0
C3174 C 0.87362 0.12746 0.65663 0.0
C3175 C 0.86061 0.16608 0.70855 0.0
C3176 C 0.90845 0.09828 0.57016 0.0
C3177 C 0.90144 0.10598 0.59545 0.0
C3178 C 0.88962 0.13646 0.59338 0.0
C3179 C 0.86527 0.14738 0.67273 0.0
C3180 C 0.87365 0.13949 0.64815 0.0
C3181 C 0.89748 0.11641 0.57529 0.0
C3182 C 0.88944 0.12441 0.6012 0.0
H3183 H 0.83824 0.14717 0.72163 0.0
H3184 H 0.85128 0.1348 0.67688 0.0
H3185 H 0.88211 0.15299 0.60793 0.0
H3186 H 0.91079 0.11371 0.46951 0.0
H3187 H 0.89813 0.12678 0.51205 0.0
C3188 C 0.59049 0.1071 0.44147 0.0
C3189 C 0.5951 0.09954 0.47508 0.0
C3190 C 0.59774 0.11465 0.41654 0.0
C3191 C 0.62611 0.12934 0.42521 0.0
H3192 H 0.62274 0.13428 0.29231 0.0
C3193 C 0.6596 0.15598 0.31846 0.0
C3194 C 0.65564 0.16229 0.27984 0.0
C3195 C 0.65206 0.14864 0.34298 0.0
C3196 C 0.62371 0.13319 0.32959 0.0
H3197 H 0.61101 0.09354 0.50701 0.0
H3198 H 0.62362 0.10678 0.46423 0.0
H3199 H 0.60986 0.1208 0.33226 0.0
H3200 H 0.6407 0.16619 0.23723 0.0
H3201 H 0.62741 0.15379 0.28073 0.0
H3202 H 0.6398 0.14183 0.42299 0.0
C3203 C 0.61438 0.10703 0.45757 0.0
C3204 C 0.61633 0.12539 0.35246 0.0
C3205 C 0.60716 0.09943 0.48205 0.0
C3206 C 0.64395 0.16139 0.26695 0.0
C3207 C 0.63638 0.15417 0.29164 0.0
C3208 C 0.63342 0.13722 0.40248 0.0
C3209 C 0.60977 0.11486 0.42492 0.0
C3210 C 0.61748 0.12331 0.40052 0.0
C3211 C 0.64035 0.14751 0.32959 0.0
C3212 C 0.63238 0.13925 0.35423 0.0
H3213 H 0.58123 0.10747 0.43558 0.0
H3214 H 0.59389 0.1206 0.39179 0.0
H3215 H 0.62713 0.12808 0.46242 0.0
H3216 H 0.66863 0.15641 0.32864 0.0
H3217 H 0.65554 0.14357 0.37149 0.0
C3218 C 0.65647 0.85661 0.23074 0.0
C3219 C 0.65618 0.84455 0.22427 0.0
C3220 C 0.64903 0.8639 0.20576 0.0
C3221 C 0.62155 0.86353 0.13692 0.0
H3222 H 0.6311 0.89467 0.10404 0.0
C3223 C 0.59469 0.89383 0.01623 0.0
C3224 C 0.59386 0.90555 0.029 0.0
C3225 C 0.60195 0.88627 0.04081 0.0
C3226 C 0.62825 0.88604 0.1134 0.0
H3227 H 0.64811 0.83072 0.1851 0.0
H3228 H 0.63542 0.84344 0.1399 0.0
H3229 H 0.64479 0.8817 0.14207 0.0
H3230 H 0.59988 0.91856 0.07746 0.0
H3231 H 0.61265 0.90535 0.12062 0.0
H3232 H 0.60506 0.86788 0.10711 0.0
C3233 C 0.64117 0.84729 0.16537 0.0
C3234 C 0.63611 0.87857 0.13534 0.0
C3235 C 0.64857 0.83998 0.19078 0.0
C3236 C 0.6003 0.90954 0.06727 0.0
C3237 C 0.60768 0.902 0.09159 0.0
C3238 C 0.61373 0.87098 0.1145 0.0
C3239 C 0.64117 0.85937 0.17295 0.0
C3240 C 0.63288 0.8672 0.14776 0.0
C3241 C 0.60868 0.89028 0.0784 0.0
C3242 C 0.61695 0.88235 0.10268 0.0
H3243 H 0.66234 0.86042 0.25588 0.0
H3244 H 0.64927 0.87309 0.21324 0.0
H3245 H 0.61861 0.85496 0.14654 0.0
H3246 H 0.58987 0.89058 0.98658 0.0
H3247 H 0.60258 0.87735 0.02941 0.0
C3248 C 0.60045 0.59645 0.56587 0.0
C3249 C 0.59372 0.60064 0.52879 0.0
C3250 C 0.60793 0.60389 0.59019 0.0
C3251 C 0.61386 0.63472 0.61647 0.0
H3252 H 0.64536 0.62424 0.63675 0.0
C3253 C 0.64893 0.66552 0.69209 0.0
C3254 C 0.65704 0.66075 0.72312 0.0
C3255 C 0.6414 0.65834 0.66671 0.0
C3256 C 0.63657 0.62729 0.63212 0.0
H3257 H 0.58927 0.61584 0.48855 0.0
H3258 H 0.60213 0.62893 0.53158 0.0
H3259 H 0.63144 0.61142 0.59919 0.0
H3260 H 0.66397 0.64469 0.75024 0.0
H3261 H 0.65066 0.63222 0.70782 0.0
H3262 H 0.61885 0.65048 0.65027 0.0
C3263 C 0.60167 0.61992 0.54197 0.0
C3264 C 0.62858 0.61991 0.61042 0.0
C3265 C 0.59432 0.61245 0.51732 0.0
C3266 C 0.65771 0.64864 0.72705 0.0
C3267 C 0.65013 0.64147 0.70217 0.0
C3268 C 0.62181 0.64206 0.63873 0.0
C3269 C 0.60872 0.61571 0.57822 0.0
C3270 C 0.61712 0.62352 0.6023 0.0
C3271 C 0.64175 0.64619 0.67192 0.0
C3272 C 0.63331 0.63847 0.64696 0.0
H3273 H 0.60019 0.58736 0.57504 0.0
H3274 H 0.61316 0.60039 0.61819 0.0
H3275 H 0.60508 0.63774 0.61107 0.0
H3276 H 0.64819 0.67483 0.68838 0.0
H3277 H 0.63526 0.66235 0.64318 0.0
C3278 C 0.64843 0.33989 0.8119 0.0
C3279 C 0.65664 0.34467 0.78123 0.0
C3280 C 0.64086 0.34708 0.83707 0.0
C3281 C 0.62743 0.37607 0.83188 0.0
H3282 H 0.62049 0.37121 0.96257 0.0
C3283 C 0.60054 0.40923 0.93903 0.0
C3284 C 0.59359 0.40511 0.9755 0.0
C3285 C 0.60795 0.4017 0.9148 0.0
C3286 C 0.62214 0.37261 0.92585 0.0
H3287 H 0.66379 0.36074 0.75502 0.0
H3288 H 0.65051 0.37325 0.79816 0.0
H3289 H 0.63402 0.35832 0.9229 0.0
H3290 H 0.58862 0.38989 0.01461 0.0
H3291 H 0.60113 0.37663 0.97143 0.0
H3292 H 0.61543 0.39018 0.83422 0.0
C3293 C 0.64978 0.36396 0.80232 0.0
C3294 C 0.62997 0.36522 0.90317 0.0
C3295 C 0.6574 0.35679 0.77768 0.0
C3296 C 0.59392 0.39327 0.98653 0.0
C3297 C 0.6012 0.38571 0.96206 0.0
C3298 C 0.6195 0.38338 0.85436 0.0
C3299 C 0.64129 0.35921 0.83181 0.0
C3300 C 0.63278 0.3669 0.85598 0.0
C3301 C 0.60849 0.38982 0.92626 0.0
C3302 C 0.61677 0.38182 0.90182 0.0
H3303 H 0.64759 0.33059 0.81519 0.0
H3304 H 0.63441 0.34313 0.8594 0.0
H3305 H 0.62925 0.37751 0.79528 0.0
H3306 H 0.60055 0.41836 0.93035 0.0
H3307 H 0.6135 0.40529 0.88806 0.0
C3308 C 0.90488 0.40917 0.063 0.0
C3309 C 0.91205 0.40496 0.02729 0.0
C3310 C 0.89736 0.40168 0.08682 0.0
C3311 C 0.89192 0.37084 0.11478 0.0
H3312 H 0.8601 0.38073 0.13096 0.0
C3313 C 0.85711 0.33973 0.19039 0.0
C3314 C 0.84882 0.34453 0.22053 0.0
C3315 C 0.86458 0.34691 0.16467 0.0
C3316 C 0.86898 0.37784 0.12746 0.0
H3317 H 0.91719 0.38967 0.98899 0.0
H3318 H 0.90423 0.37651 0.03112 0.0
H3319 H 0.87397 0.39365 0.09376 0.0
H3320 H 0.84145 0.36061 0.24554 0.0
H3321 H 0.85461 0.37308 0.20244 0.0
H3322 H 0.88706 0.35515 0.14938 0.0
C3323 C 0.90439 0.38557 0.04083 0.0
C3324 C 0.87694 0.38529 0.10597 0.0
C3325 C 0.9118 0.39309 0.01667 0.0
C3326 C 0.84786 0.35665 0.22303 0.0
C3327 C 0.85536 0.36381 0.1978 0.0
C3328 C 0.88399 0.36344 0.13681 0.0
C3329 C 0.89694 0.38979 0.07573 0.0
C3330 C 0.88852 0.3819 0.09937 0.0
C3331 C 0.86396 0.35908 0.1686 0.0
C3332 C 0.87238 0.36682 0.1436 0.0
H3333 H 0.90486 0.41831 0.07149 0.0
H3334 H 0.89181 0.40519 0.11379 0.0
H3335 H 0.9008 0.36799 0.11058 0.0
H3336 H 0.85807 0.33042 0.18776 0.0
H3337 H 0.8709 0.34289 0.14195 0.0
C3338 C 0.91529 0.60693 0.44318 0.0
C3339 C 0.91074 0.59851 0.47343 0.0
C3340 C 0.90789 0.61427 0.41787 0.0
C3341 C 0.87663 0.61804 0.38324 0.0
H3342 H 0.88625 0.64966 0.36003 0.0
C3343 C 0.84893 0.64874 0.26982 0.0
C3344 C 0.84925 0.66074 0.27785 0.0
C3345 C 0.85629 0.64123 0.29403 0.0
C3346 C 0.8833 0.64092 0.36675 0.0
H3347 H 0.89488 0.59081 0.49904 0.0
H3348 H 0.88204 0.60382 0.45728 0.0
H3349 H 0.89929 0.63646 0.40006 0.0
H3350 H 0.85722 0.6742 0.31937 0.0
H3351 H 0.86963 0.66106 0.36378 0.0
H3352 H 0.86043 0.62261 0.35245 0.0
C3353 C 0.89127 0.60474 0.45193 0.0
C3354 C 0.89093 0.63323 0.38905 0.0
C3355 C 0.89866 0.59733 0.47652 0.0
C3356 C 0.85674 0.665 0.31243 0.0
C3357 C 0.86401 0.65744 0.33734 0.0
C3358 C 0.86895 0.62576 0.36173 0.0
C3359 C 0.89574 0.61343 0.42247 0.0
C3360 C 0.88773 0.62164 0.39761 0.0
C3361 C 0.86404 0.64544 0.32802 0.0
C3362 C 0.87216 0.63732 0.35278 0.0
H3363 H 0.92457 0.60806 0.44009 0.0
H3364 H 0.91173 0.62064 0.3949 0.0
H3365 H 0.87381 0.60919 0.38826 0.0
H3366 H 0.84312 0.64514 0.24395 0.0
H3367 H 0.85607 0.63214 0.285 0.0
C3368 C 0.34711 0.35023 0.31479 0.0
C3369 C 0.35128 0.34337 0.2781 0.0
C3370 C 0.35459 0.35767 0.33912 0.0
C3371 C 0.38355 0.37215 0.32807 0.0
H3372 H 0.37862 0.3791 0.45876 0.0
C3373 C 0.41602 0.3987 0.44215 0.0
C3374 C 0.41115 0.40686 0.4728 0.0
C3375 C 0.4089 0.39106 0.41699 0.0
C3376 C 0.38006 0.37732 0.42213 0.0
H3377 H 0.36651 0.3386 0.23873 0.0
H3378 H 0.3797 0.35116 0.28208 0.0
H3379 H 0.36608 0.36517 0.41971 0.0
H3380 H 0.39501 0.41383 0.49906 0.0
H3381 H 0.38263 0.40042 0.45597 0.0
H3382 H 0.39771 0.38417 0.3311 0.0
C3383 C 0.37062 0.35114 0.29154 0.0
C3384 C 0.37283 0.36933 0.39959 0.0
C3385 C 0.36311 0.34382 0.26697 0.0
C3386 C 0.39903 0.40749 0.47641 0.0
C3387 C 0.39193 0.39979 0.45179 0.0
C3388 C 0.39087 0.38003 0.35081 0.0
C3389 C 0.36646 0.35834 0.32755 0.0
C3390 C 0.3744 0.36666 0.35208 0.0
C3391 C 0.39677 0.39136 0.42227 0.0
C3392 C 0.38917 0.38279 0.39805 0.0
H3393 H 0.33798 0.35014 0.32357 0.0
H3394 H 0.35097 0.36315 0.36602 0.0
H3395 H 0.38495 0.37055 0.29132 0.0
H3396 H 0.42534 0.39796 0.43884 0.0
H3397 H 0.41292 0.38465 0.39464 0.0
C3398 C 0.34821 0.64896 0.22721 0.0
C3399 C 0.3488 0.66106 0.22259 0.0
C3400 C 0.35572 0.64174 0.20224 0.0
C3401 C 0.38388 0.64214 0.13811 0.0
H3402 H 0.37407 0.61154 0.09885 0.0
C3403 C 0.4116 0.61237 0.01835 0.0
C3404 C 0.41193 0.6005 0.02903 0.0
C3405 C 0.40422 0.61987 0.0427 0.0
C3406 C 0.377 0.62001 0.11002 0.0
H3407 H 0.35748 0.67506 0.18664 0.0
H3408 H 0.37034 0.66247 0.14149 0.0
H3409 H 0.36024 0.62445 0.13642 0.0
H3410 H 0.40489 0.58715 0.07358 0.0
H3411 H 0.39193 0.60023 0.1164 0.0
H3412 H 0.4006 0.63769 0.11071 0.0
C3413 C 0.36427 0.65853 0.1655 0.0
C3414 C 0.36905 0.62745 0.13168 0.0
C3415 C 0.35678 0.66577 0.19086 0.0
C3416 C 0.40487 0.59628 0.06505 0.0
C3417 C 0.39738 0.60376 0.08915 0.0
C3418 C 0.3918 0.63472 0.11602 0.0
C3419 C 0.36398 0.64639 0.17132 0.0
C3420 C 0.37237 0.63862 0.14638 0.0
C3421 C 0.39687 0.61564 0.07797 0.0
C3422 C 0.38848 0.62353 0.1019 0.0
H3423 H 0.34205 0.64505 0.251 0.0
H3424 H 0.35524 0.6325 0.20832 0.0
H3425 H 0.38688 0.65055 0.14954 0.0
H3426 H 0.41691 0.6158 0.99043 0.0
H3427 H 0.40399 0.62892 0.03283 0.0
C3428 C 0.10679 0.59827 0.97551 0.0
C3429 C 0.09468 0.59867 0.97041 0.0
C3430 C 0.11395 0.60587 0.95071 0.0
C3431 C 0.11565 0.62473 0.84734 0.0
H3432 H 0.13916 0.64098 0.91838 0.0
C3433 C 0.14335 0.66092 0.76285 0.0
C3434 C 0.15496 0.66201 0.77661 0.0
C3435 C 0.13579 0.65356 0.78698 0.0
C3436 C 0.13279 0.63642 0.89766 0.0
H3437 H 0.08064 0.60703 0.93337 0.0
H3438 H 0.0932 0.62012 0.88873 0.0
H3439 H 0.12657 0.62707 0.95721 0.0
H3440 H 0.16784 0.65629 0.82617 0.0
H3441 H 0.1548 0.64319 0.86785 0.0
H3442 H 0.12202 0.63377 0.7875 0.0
C3443 C 0.09713 0.61398 0.91251 0.0
C3444 C 0.12552 0.62845 0.9201 0.0
C3445 C 0.08993 0.60645 0.9379 0.0
C3446 C 0.15887 0.65572 0.81534 0.0
C3447 C 0.15135 0.64822 0.83923 0.0
C3448 C 0.12303 0.63259 0.82471 0.0
C3449 C 0.10921 0.61396 0.91943 0.0
C3450 C 0.11686 0.62249 0.89525 0.0
C3451 C 0.13969 0.64693 0.82517 0.0
C3452 C 0.13173 0.63859 0.8495 0.0
H3453 H 0.11073 0.5922 0.99956 0.0
H3454 H 0.12322 0.60545 0.95619 0.0
H3455 H 0.10916 0.62021 0.82708 0.0
H3456 H 0.14014 0.66569 0.73299 0.0
H3457 H 0.12687 0.65307 0.7755 0.0
C3458 C 0.15749 0.3572 0.72872 0.0
C3459 C 0.15716 0.34512 0.72324 0.0
C3460 C 0.14998 0.36438 0.70352 0.0
C3461 C 0.1223 0.36371 0.63602 0.0
H3462 H 0.13182 0.39465 0.6 0.0
C3463 C 0.09502 0.39348 0.51461 0.0
C3464 C 0.09426 0.40525 0.5266 0.0
C3465 C 0.10239 0.38601 0.53918 0.0
C3466 C 0.12898 0.38607 0.61023 0.0
H3467 H 0.14894 0.3311 0.68564 0.0
H3468 H 0.13613 0.34362 0.64006 0.0
H3469 H 0.14559 0.38185 0.6385 0.0
H3470 H 0.10052 0.41846 0.57366 0.0
H3471 H 0.11348 0.40544 0.61678 0.0
H3472 H 0.10573 0.36794 0.60665 0.0
C3473 C 0.14196 0.34758 0.66492 0.0
C3474 C 0.13689 0.3787 0.63245 0.0
C3475 C 0.14943 0.34039 0.69054 0.0
C3476 C 0.10089 0.4094 0.56405 0.0
C3477 C 0.10837 0.40196 0.58836 0.0
C3478 C 0.11442 0.37105 0.61333 0.0
C3479 C 0.14201 0.3597 0.67148 0.0
C3480 C 0.13366 0.36742 0.64602 0.0
C3481 C 0.10929 0.39019 0.57598 0.0
C3482 C 0.11764 0.38236 0.60038 0.0
H3483 H 0.16345 0.36113 0.75324 0.0
H3484 H 0.15026 0.3736 0.71022 0.0
H3485 H 0.11937 0.3552 0.64653 0.0
H3486 H 0.09004 0.3901 0.48563 0.0
H3487 H 0.10295 0.37704 0.52842 0.0
loop_
_geom_bond_atom_site_label_1
_geom_bond_atom_site_label_2
_geom_bond_distance
_geom_bond_site_symmetry_2
_ccdc_geom_bond_type
Co0 O3 1.970 . S
Co0 N17 1.989 . S
Co0 O25 1.967 . S
Co0 O32 1.920 . S
Co1 O4 1.966 . S
Co1 N10 2.022 . S
Co1 N18 1.993 . S
Co1 O26 1.941 . S
C2 O3 1.258 . S
C2 O4 1.263 . S
O3 Co0 1.970 . S
O3 C2 1.258 . S
O4 Co1 1.966 . S
O4 C2 1.263 . S
C5 O6 1.235 . S
C5 O32 1.289 . S
O6 C5 1.235 . S
C7 C9 1.400 . S
C7 N10 1.351 . S
C7 C12 1.501 . S
C8 C9 1.387 . S
C8 N11 1.341 . S
C9 C7 1.400 . S
C9 C8 1.387 . S
N10 Co1 2.022 . S
N10 C7 1.351 . S
N10 N11 1.365 . S
N11 C8 1.341 . S
N11 N10 1.365 . S
N11 H31 0.862 . S
C12 C7 1.501 . S
C12 H13 0.961 . S
C12 H14 0.961 . S
C12 H15 0.960 . S
H13 C12 0.961 . S
H14 C12 0.961 . S
H15 C12 0.960 . S
C16 N17 1.342 . S
C16 C20 1.401 . S
C16 C21 1.499 . S
N17 Co0 1.989 . S
N17 C16 1.342 . S
N17 N18 1.388 . S
N18 Co1 1.993 . S
N18 N17 1.388 . S
N18 C19 1.346 . S
C19 N18 1.346 . S
C19 C20 1.396 . S
C19 C29 1.510 . S
C20 C16 1.401 . S
C20 C19 1.396 . S
C21 C16 1.499 . S
C21 H22 0.959 . S
C21 H23 0.960 . S
C21 H24 0.961 . S
H22 C21 0.959 . S
H23 C21 0.960 . S
H24 C21 0.961 . S
O25 Co0 1.967 . S
O25 C33 1.258 . S
O26 Co1 1.941 . S
O26 C33 1.266 . S
H27 C29 0.959 . S
H28 C29 0.961 . S
C29 C19 1.510 . S
C29 H27 0.959 . S
C29 H28 0.961 . S
C29 H30 0.960 . S
H30 C29 0.960 . S
H31 N11 0.862 . S
O32 Co0 1.920 . S
O32 C5 1.289 . S
C33 O25 1.258 . S
C33 O26 1.266 . S
Co34 O37 1.970 . S
Co34 N51 1.989 . S
Co34 O59 1.967 . S
Co34 O66 1.920 . S
Co35 O38 1.966 . S
Co35 N44 2.022 . S
Co35 N52 1.993 . S
Co35 O60 1.941 . S
C36 O37 1.258 . S
C36 O38 1.263 . S
O37 Co34 1.970 . S
O37 C36 1.258 . S
O38 Co35 1.966 . S
O38 C36 1.263 . S
C39 O40 1.235 . S
C39 O66 1.289 . S
O40 C39 1.235 . S
C41 C43 1.400 . S
C41 N44 1.351 . S
C41 C46 1.501 . S
C42 C43 1.387 . S
C42 N45 1.341 . S
C43 C41 1.400 . S
C43 C42 1.387 . S
N44 Co35 2.022 . S
N44 C41 1.351 . S
N44 N45 1.365 . S
N45 C42 1.341 . S
N45 N44 1.365 . S
N45 H65 0.862 . S
C46 C41 1.501 . S
C46 H47 0.961 . S
C46 H48 0.961 . S
C46 H49 0.960 . S
H47 C46 0.961 . S
H48 C46 0.961 . S
H49 C46 0.960 . S
C50 N51 1.342 . S
C50 C54 1.401 . S
C50 C55 1.499 . S
N51 Co34 1.989 . S
N51 C50 1.342 . S
N51 N52 1.388 . S
N52 Co35 1.993 . S
N52 N51 1.388 . S
N52 C53 1.346 . S
C53 N52 1.346 . S
C53 C54 1.396 . S
C53 C63 1.510 . S
C54 C50 1.401 . S
C54 C53 1.396 . S
C55 C50 1.499 . S
C55 H56 0.959 . S
C55 H57 0.960 . S
C55 H58 0.961 . S
H56 C55 0.959 . S
H57 C55 0.960 . S
H58 C55 0.961 . S
O59 Co34 1.967 . S
O59 C67 1.258 . S
O60 Co35 1.941 . S
O60 C67 1.266 . S
H61 C63 0.959 . S
H62 C63 0.961 . S
C63 C53 1.510 . S
C63 H61 0.959 . S
C63 H62 0.961 . S
C63 H64 0.960 . S
H64 C63 0.960 . S
H65 N45 0.862 . S
O66 Co34 1.920 . S
O66 C39 1.289 . S
C67 O59 1.258 . S
C67 O60 1.266 . S
Co68 O71 1.970 . S
Co68 N85 1.989 . S
Co68 O93 1.967 . S
Co68 O100 1.920 . S
Co69 O72 1.966 . S
Co69 N78 2.022 . S
Co69 N86 1.993 . S
Co69 O94 1.941 . S
C70 O71 1.258 . S
C70 O72 1.263 . S
O71 Co68 1.970 . S
O71 C70 1.258 . S
O72 Co69 1.966 . S
O72 C70 1.263 . S
C73 O74 1.235 . S
C73 O100 1.289 . S
O74 C73 1.235 . S
C75 C77 1.400 . S
C75 N78 1.351 . S
C75 C80 1.501 . S
C76 C77 1.387 . S
C76 N79 1.341 . S
C77 C75 1.400 . S
C77 C76 1.387 . S
N78 Co69 2.022 . S
N78 C75 1.351 . S
N78 N79 1.365 . S
N79 C76 1.341 . S
N79 N78 1.365 . S
N79 H99 0.862 . S
C80 C75 1.501 . S
C80 H81 0.961 . S
C80 H82 0.961 . S
C80 H83 0.960 1_556 S
H81 C80 0.961 . S
H82 C80 0.961 . S
H83 C80 0.960 1_554 S
C84 N85 1.342 . S
C84 C88 1.401 . S
C84 C89 1.499 . S
N85 Co68 1.989 . S
N85 C84 1.342 . S
N85 N86 1.388 . S
N86 Co69 1.993 . S
N86 N85 1.388 . S
N86 C87 1.346 . S
C87 N86 1.346 . S
C87 C88 1.396 . S
C87 C97 1.510 . S
C88 C84 1.401 . S
C88 C87 1.396 . S
C89 C84 1.499 . S
C89 H90 0.959 . S
C89 H91 0.960 . S
C89 H92 0.961 . S
H90 C89 0.959 . S
H91 C89 0.960 . S
H92 C89 0.961 . S
O93 Co68 1.967 . S
O93 C101 1.258 . S
O94 Co69 1.941 . S
O94 C101 1.266 . S
H95 C97 0.959 . S
H96 C97 0.961 . S
C97 C87 1.510 . S
C97 H95 0.959 . S
C97 H96 0.961 . S
C97 H98 0.960 . S
H98 C97 0.960 . S
H99 N79 0.862 . S
O100 Co68 1.920 . S
O100 C73 1.289 . S
C101 O93 1.258 . S
C101 O94 1.266 . S
Co102 O105 1.970 . S
Co102 N119 1.989 . S
Co102 O127 1.967 . S
Co102 O134 1.920 . S
Co103 O106 1.966 . S
Co103 N112 2.022 . S
Co103 N120 1.993 . S
Co103 O128 1.941 . S
C104 O105 1.258 . S
C104 O106 1.263 . S
O105 Co102 1.970 . S
O105 C104 1.258 . S
O106 Co103 1.966 . S
O106 C104 1.263 . S
C107 O108 1.235 . S
C107 O134 1.289 . S
O108 C107 1.235 . S
C109 C111 1.400 . S
C109 N112 1.351 . S
C109 C114 1.501 . S
C110 C111 1.387 . S
C110 N113 1.341 . S
C111 C109 1.400 . S
C111 C110 1.387 . S
N112 Co103 2.022 . S
N112 C109 1.351 . S
N112 N113 1.365 . S
N113 C110 1.341 . S
N113 N112 1.365 . S
N113 H133 0.862 . S
C114 C109 1.501 . S
C114 H115 0.961 . S
C114 H116 0.961 . S
C114 H117 0.960 . S
H115 C114 0.961 . S
H116 C114 0.961 . S
H117 C114 0.960 . S
C118 N119 1.342 . S
C118 C122 1.401 . S
C118 C123 1.499 1_554 S
N119 Co102 1.989 . S
N119 C118 1.342 . S
N119 N120 1.388 . S
N120 Co103 1.993 . S
N120 N119 1.388 . S
N120 C121 1.346 . S
C121 N120 1.346 . S
C121 C122 1.396 . S
C121 C131 1.510 . S
C122 C118 1.401 . S
C122 C121 1.396 . S
C123 C118 1.499 1_556 S
C123 H124 0.959 . S
C123 H125 0.960 . S
C123 H126 0.961 . S
H124 C123 0.959 . S
H125 C123 0.960 . S
H126 C123 0.961 . S
O127 Co102 1.967 . S
O127 C135 1.258 . S
O128 Co103 1.941 . S
O128 C135 1.266 . S
H129 C131 0.959 . S
H130 C131 0.961 . S
C131 C121 1.510 . S
C131 H129 0.959 . S
C131 H130 0.961 . S
C131 H132 0.960 . S
H132 C131 0.960 . S
H133 N113 0.862 . S
O134 Co102 1.920 . S
O134 C107 1.289 . S
C135 O127 1.258 . S
C135 O128 1.266 . S
Co136 O139 1.970 . S
Co136 N153 1.989 . S
Co136 O161 1.967 . S
Co136 O168 1.920 . S
Co137 O140 1.966 . S
Co137 N146 2.022 . S
Co137 N154 1.993 . S
Co137 O162 1.941 . S
C138 O139 1.258 . S
C138 O140 1.263 . S
O139 Co136 1.970 . S
O139 C138 1.258 . S
O140 Co137 1.966 . S
O140 C138 1.263 . S
C141 O142 1.235 . S
C141 O168 1.289 . S
O142 C141 1.235 . S
C143 C145 1.400 . S
C143 N146 1.351 . S
C143 C148 1.501 . S
C144 C145 1.387 . S
C144 N147 1.341 . S
C145 C143 1.400 . S
C145 C144 1.387 . S
N146 Co137 2.022 . S
N146 C143 1.351 . S
N146 N147 1.365 . S
N147 C144 1.341 . S
N147 N146 1.365 . S
N147 H167 0.862 . S
C148 C143 1.501 . S
C148 H149 0.961 . S
C148 H150 0.961 . S
C148 H151 0.960 1_554 S
H149 C148 0.961 . S
H150 C148 0.961 . S
H151 C148 0.960 1_556 S
C152 N153 1.342 . S
C152 C156 1.401 . S
C152 C157 1.499 . S
N153 Co136 1.989 . S
N153 C152 1.342 . S
N153 N154 1.388 . S
N154 Co137 1.993 . S
N154 N153 1.388 . S
N154 C155 1.346 . S
C155 N154 1.346 . S
C155 C156 1.396 . S
C155 C165 1.510 . S
C156 C152 1.401 . S
C156 C155 1.396 . S
C157 C152 1.499 . S
C157 H158 0.959 . S
C157 H159 0.960 . S
C157 H160 0.961 . S
H158 C157 0.959 . S
H159 C157 0.960 . S
H160 C157 0.961 . S
O161 Co136 1.967 . S
O161 C169 1.258 . S
O162 Co137 1.941 . S
O162 C169 1.266 . S
H163 C165 0.959 . S
H164 C165 0.961 . S
C165 C155 1.510 . S
C165 H163 0.959 . S
C165 H164 0.961 . S
C165 H166 0.960 . S
H166 C165 0.960 . S
H167 N147 0.862 . S
O168 Co136 1.920 . S
O168 C141 1.289 . S
C169 O161 1.258 . S
C169 O162 1.266 . S
Co170 O173 1.970 . S
Co170 N187 1.989 . S
Co170 O195 1.967 . S
Co170 O202 1.920 . S
Co171 O174 1.966 . S
Co171 N180 2.022 . S
Co171 N188 1.993 . S
Co171 O196 1.941 . S
C172 O173 1.258 . S
C172 O174 1.263 . S
O173 Co170 1.970 . S
O173 C172 1.258 . S
O174 Co171 1.966 . S
O174 C172 1.263 . S
C175 O176 1.235 . S
C175 O202 1.289 . S
O176 C175 1.235 . S
C177 C179 1.400 . S
C177 N180 1.351 . S
C177 C182 1.501 . S
C178 C179 1.387 . S
C178 N181 1.341 . S
C179 C177 1.400 . S
C179 C178 1.387 . S
N180 Co171 2.022 . S
N180 C177 1.351 . S
N180 N181 1.365 . S
N181 C178 1.341 . S
N181 N180 1.365 . S
N181 H201 0.862 . S
C182 C177 1.501 . S
C182 H183 0.961 . S
C182 H184 0.961 . S
C182 H185 0.960 . S
H183 C182 0.961 . S
H184 C182 0.961 . S
H185 C182 0.960 . S
C186 N187 1.342 . S
C186 C190 1.401 . S
C186 C191 1.499 . S
N187 Co170 1.989 . S
N187 C186 1.342 . S
N187 N188 1.388 . S
N188 Co171 1.993 . S
N188 N187 1.388 . S
N188 C189 1.346 . S
C189 N188 1.346 . S
C189 C190 1.396 . S
C189 C199 1.510 . S
C190 C186 1.401 . S
C190 C189 1.396 . S
C191 C186 1.499 . S
C191 H192 0.959 . S
C191 H193 0.960 . S
C191 H194 0.961 . S
H192 C191 0.959 . S
H193 C191 0.960 . S
H194 C191 0.961 . S
O195 Co170 1.967 . S
O195 C203 1.258 . S
O196 Co171 1.941 . S
O196 C203 1.266 . S
H197 C199 0.959 . S
H198 C199 0.961 . S
C199 C189 1.510 . S
C199 H197 0.959 . S
C199 H198 0.961 . S
C199 H200 0.960 . S
H200 C199 0.960 . S
H201 N181 0.862 . S
O202 Co170 1.920 . S
O202 C175 1.289 . S
C203 O195 1.258 . S
C203 O196 1.266 . S
Co204 O207 1.970 . S
Co204 N221 1.989 . S
Co204 O229 1.967 . S
Co204 O236 1.920 . S
Co205 O208 1.966 . S
Co205 N214 2.022 . S
Co205 N222 1.993 . S
Co205 O230 1.941 . S
C206 O207 1.258 . S
C206 O208 1.263 . S
O207 Co204 1.970 . S
O207 C206 1.258 . S
O208 Co205 1.966 . S
O208 C206 1.263 . S
C209 O210 1.235 . S
C209 O236 1.289 . S
O210 C209 1.235 . S
C211 C213 1.400 . S
C211 N214 1.351 . S
C211 C216 1.501 . S
C212 C213 1.387 . S
C212 N215 1.341 . S
C213 C211 1.400 . S
C213 C212 1.387 . S
N214 Co205 2.022 . S
N214 C211 1.351 . S
N214 N215 1.365 . S
N215 C212 1.341 . S
N215 N214 1.365 . S
N215 H235 0.862 . S
C216 C211 1.501 . S
C216 H217 0.961 . S
C216 H218 0.961 . S
C216 H219 0.960 . S
H217 C216 0.961 . S
H218 C216 0.961 . S
H219 C216 0.960 . S
C220 N221 1.342 . S
C220 C224 1.401 . S
C220 C225 1.499 . S
N221 Co204 1.989 . S
N221 C220 1.342 . S
N221 N222 1.388 . S
N222 Co205 1.993 . S
N222 N221 1.388 . S
N222 C223 1.346 . S
C223 N222 1.346 . S
C223 C224 1.396 . S
C223 C233 1.510 . S
C224 C220 1.401 . S
C224 C223 1.396 . S
C225 C220 1.499 . S
C225 H226 0.959 . S
C225 H227 0.960 . S
C225 H228 0.961 . S
H226 C225 0.959 . S
H227 C225 0.960 . S
H228 C225 0.961 . S
O229 Co204 1.967 . S
O229 C237 1.258 . S
O230 Co205 1.941 . S
O230 C237 1.266 . S
H231 C233 0.959 . S
H232 C233 0.961 . S
C233 C223 1.510 . S
C233 H231 0.959 . S
C233 H232 0.961 . S
C233 H234 0.960 . S
H234 C233 0.960 . S
H235 N215 0.862 . S
O236 Co204 1.920 . S
O236 C209 1.289 . S
C237 O229 1.258 . S
C237 O230 1.266 . S
Co238 O241 1.970 . S
Co238 N255 1.989 . S
Co238 O263 1.967 . S
Co238 O270 1.920 . S
Co239 O242 1.966 . S
Co239 N248 2.022 . S
Co239 N256 1.993 . S
Co239 O264 1.941 . S
C240 O241 1.258 . S
C240 O242 1.263 . S
O241 Co238 1.970 . S
O241 C240 1.258 . S
O242 Co239 1.966 . S
O242 C240 1.263 . S
C243 O244 1.235 . S
C243 O270 1.289 . S
O244 C243 1.235 . S
C245 C247 1.400 . S
C245 N248 1.351 . S
C245 C250 1.501 . S
C246 C247 1.387 . S
C246 N249 1.341 . S
C247 C245 1.400 . S
C247 C246 1.387 . S
N248 Co239 2.022 . S
N248 C245 1.351 . S
N248 N249 1.365 . S
N249 C246 1.341 . S
N249 N248 1.365 . S
N249 H269 0.862 . S
C250 C245 1.501 . S
C250 H251 0.961 . S
C250 H252 0.961 . S
C250 H253 0.960 . S
H251 C250 0.961 . S
H252 C250 0.961 . S
H253 C250 0.960 . S
C254 N255 1.342 . S
C254 C258 1.401 . S
C254 C259 1.499 1_556 S
N255 Co238 1.989 . S
N255 C254 1.342 . S
N255 N256 1.388 . S
N256 Co239 1.993 . S
N256 N255 1.388 . S
N256 C257 1.346 . S
C257 N256 1.346 . S
C257 C258 1.396 . S
C257 C267 1.510 . S
C258 C254 1.401 . S
C258 C257 1.396 . S
C259 C254 1.499 1_554 S
C259 H260 0.959 . S
C259 H261 0.960 . S
C259 H262 0.961 . S
H260 C259 0.959 . S
H261 C259 0.960 . S
H262 C259 0.961 . S
O263 Co238 1.967 . S
O263 C271 1.258 . S
O264 Co239 1.941 . S
O264 C271 1.266 . S
H265 C267 0.959 . S
H266 C267 0.961 . S
C267 C257 1.510 . S
C267 H265 0.959 . S
C267 H266 0.961 . S
C267 H268 0.960 . S
H268 C267 0.960 . S
H269 N249 0.862 . S
O270 Co238 1.920 . S
O270 C243 1.289 . S
C271 O263 1.258 . S
C271 O264 1.266 . S
Co272 O275 1.970 . S
Co272 N289 1.989 . S
Co272 O297 1.967 . S
Co272 O304 1.920 . S
Co273 O276 1.966 . S
Co273 N282 2.022 . S
Co273 N290 1.993 . S
Co273 O298 1.941 . S
C274 O275 1.258 . S
C274 O276 1.263 . S
O275 Co272 1.970 . S
O275 C274 1.258 . S
O276 Co273 1.966 . S
O276 C274 1.263 . S
C277 O278 1.235 . S
C277 O304 1.289 . S
O278 C277 1.235 . S
C279 C281 1.400 . S
C279 N282 1.351 . S
C279 C284 1.501 . S
C280 C281 1.387 . S
C280 N283 1.341 . S
C281 C279 1.400 . S
C281 C280 1.387 . S
N282 Co273 2.022 . S
N282 C279 1.351 . S
N282 N283 1.365 . S
N283 C280 1.341 . S
N283 N282 1.365 . S
N283 H303 0.862 . S
C284 C279 1.501 . S
C284 H285 0.961 . S
C284 H286 0.961 . S
C284 H287 0.960 . S
H285 C284 0.961 . S
H286 C284 0.961 . S
H287 C284 0.960 . S
C288 N289 1.342 . S
C288 C292 1.401 . S
C288 C293 1.499 . S
N289 Co272 1.989 . S
N289 C288 1.342 . S
N289 N290 1.388 . S
N290 Co273 1.993 . S
N290 N289 1.388 . S
N290 C291 1.346 . S
C291 N290 1.346 . S
C291 C292 1.396 . S
C291 C301 1.510 . S
C292 C288 1.401 . S
C292 C291 1.396 . S
C293 C288 1.499 . S
C293 H294 0.959 . S
C293 H295 0.960 . S
C293 H296 0.961 . S
H294 C293 0.959 . S
H295 C293 0.960 . S
H296 C293 0.961 . S
O297 Co272 1.967 . S
O297 C305 1.258 . S
O298 Co273 1.941 . S
O298 C305 1.266 . S
H299 C301 0.959 . S
H300 C301 0.961 . S
C301 C291 1.510 . S
C301 H299 0.959 . S
C301 H300 0.961 . S
C301 H302 0.960 . S
H302 C301 0.960 . S
H303 N283 0.862 . S
O304 Co272 1.920 . S
O304 C277 1.289 . S
C305 O297 1.258 . S
C305 O298 1.266 . S
Co306 O309 1.970 . S
Co306 N323 1.989 . S
Co306 O331 1.967 . S
Co306 O338 1.920 . S
Co307 O310 1.966 . S
Co307 N316 2.022 . S
Co307 N324 1.993 . S
Co307 O332 1.941 . S
C308 O309 1.258 . S
C308 O310 1.263 . S
O309 Co306 1.970 . S
O309 C308 1.258 . S
O310 Co307 1.966 . S
O310 C308 1.263 . S
C311 O312 1.235 . S
C311 O338 1.289 . S
O312 C311 1.235 . S
C313 C315 1.400 . S
C313 N316 1.351 . S
C313 C318 1.501 . S
C314 C315 1.387 . S
C314 N317 1.341 . S
C315 C313 1.400 . S
C315 C314 1.387 . S
N316 Co307 2.022 . S
N316 C313 1.351 . S
N316 N317 1.365 . S
N317 C314 1.341 . S
N317 N316 1.365 . S
N317 H337 0.862 . S
C318 C313 1.501 . S
C318 H319 0.961 . S
C318 H320 0.961 . S
C318 H321 0.960 . S
H319 C318 0.961 . S
H320 C318 0.961 . S
H321 C318 0.960 . S
C322 N323 1.342 . S
C322 C326 1.401 . S
C322 C327 1.499 . S
N323 Co306 1.989 . S
N323 C322 1.342 . S
N323 N324 1.388 . S
N324 Co307 1.993 . S
N324 N323 1.388 . S
N324 C325 1.346 . S
C325 N324 1.346 . S
C325 C326 1.396 . S
C325 C335 1.510 . S
C326 C322 1.401 . S
C326 C325 1.396 . S
C327 C322 1.499 . S
C327 H328 0.959 . S
C327 H329 0.960 . S
C327 H330 0.961 . S
H328 C327 0.959 . S
H329 C327 0.960 . S
H330 C327 0.961 . S
O331 Co306 1.967 . S
O331 C339 1.258 . S
O332 Co307 1.941 . S
O332 C339 1.266 . S
H333 C335 0.959 . S
H334 C335 0.961 . S
C335 C325 1.510 . S
C335 H333 0.959 . S
C335 H334 0.961 . S
C335 H336 0.960 . S
H336 C335 0.960 . S
H337 N317 0.862 . S
O338 Co306 1.920 . S
O338 C311 1.289 . S
C339 O331 1.258 . S
C339 O332 1.266 . S
Co340 O343 1.970 . S
Co340 N357 1.989 . S
Co340 O365 1.967 . S
Co340 O372 1.920 . S
Co341 O344 1.966 . S
Co341 N350 2.022 . S
Co341 N358 1.993 . S
Co341 O366 1.941 . S
C342 O343 1.258 . S
C342 O344 1.263 . S
O343 Co340 1.970 . S
O343 C342 1.258 . S
O344 Co341 1.966 . S
O344 C342 1.263 . S
C345 O346 1.235 . S
C345 O372 1.289 . S
O346 C345 1.235 . S
C347 C349 1.400 . S
C347 N350 1.351 . S
C347 C352 1.501 . S
C348 C349 1.387 . S
C348 N351 1.341 . S
C349 C347 1.400 . S
C349 C348 1.387 . S
N350 Co341 2.022 . S
N350 C347 1.351 . S
N350 N351 1.365 . S
N351 C348 1.341 . S
N351 N350 1.365 . S
N351 H371 0.862 . S
C352 C347 1.501 . S
C352 H353 0.961 . S
C352 H354 0.961 . S
C352 H355 0.960 1_554 S
H353 C352 0.961 . S
H354 C352 0.961 . S
H355 C352 0.960 1_556 S
C356 N357 1.342 . S
C356 C360 1.401 . S
C356 C361 1.499 . S
N357 Co340 1.989 . S
N357 C356 1.342 . S
N357 N358 1.388 . S
N358 Co341 1.993 . S
N358 N357 1.388 . S
N358 C359 1.346 . S
C359 N358 1.346 . S
C359 C360 1.396 . S
C359 C369 1.510 . S
C360 C356 1.401 . S
C360 C359 1.396 . S
C361 C356 1.499 . S
C361 H362 0.959 . S
C361 H363 0.960 . S
C361 H364 0.961 . S
H362 C361 0.959 . S
H363 C361 0.960 . S
H364 C361 0.961 . S
O365 Co340 1.967 . S
O365 C373 1.258 . S
O366 Co341 1.941 . S
O366 C373 1.266 . S
H367 C369 0.959 . S
H368 C369 0.961 . S
C369 C359 1.510 . S
C369 H367 0.959 . S
C369 H368 0.961 . S
C369 H370 0.960 . S
H370 C369 0.960 . S
H371 N351 0.862 . S
O372 Co340 1.920 . S
O372 C345 1.289 . S
C373 O365 1.258 . S
C373 O366 1.266 . S
Co374 O377 1.970 . S
Co374 N391 1.989 . S
Co374 O399 1.967 . S
Co374 O406 1.920 . S
Co375 O378 1.966 . S
Co375 N384 2.022 . S
Co375 N392 1.993 . S
Co375 O400 1.941 . S
C376 O377 1.258 . S
C376 O378 1.263 . S
O377 Co374 1.970 . S
O377 C376 1.258 . S
O378 Co375 1.966 . S
O378 C376 1.263 . S
C379 O380 1.235 . S
C379 O406 1.289 . S
O380 C379 1.235 . S
C381 C383 1.400 . S
C381 N384 1.351 . S
C381 C386 1.501 . S
C382 C383 1.387 . S
C382 N385 1.341 . S
C383 C381 1.400 . S
C383 C382 1.387 . S
N384 Co375 2.022 . S
N384 C381 1.351 . S
N384 N385 1.365 . S
N385 C382 1.341 . S
N385 N384 1.365 . S
N385 H405 0.862 . S
C386 C381 1.501 . S
C386 H387 0.961 . S
C386 H388 0.961 . S
C386 H389 0.960 . S
H387 C386 0.961 . S
H388 C386 0.961 . S
H389 C386 0.960 . S
C390 N391 1.342 . S
C390 C394 1.401 . S
C390 C395 1.499 1_556 S
N391 Co374 1.989 . S
N391 C390 1.342 . S
N391 N392 1.388 . S
N392 Co375 1.993 . S
N392 N391 1.388 . S
N392 C393 1.346 . S
C393 N392 1.346 . S
C393 C394 1.396 . S
C393 C403 1.510 . S
C394 C390 1.401 . S
C394 C393 1.396 . S
C395 C390 1.499 1_554 S
C395 H396 0.959 . S
C395 H397 0.960 . S
C395 H398 0.961 . S
H396 C395 0.959 . S
H397 C395 0.960 . S
H398 C395 0.961 . S
O399 Co374 1.967 . S
O399 C407 1.258 . S
O400 Co375 1.941 . S
O400 C407 1.266 . S
H401 C403 0.959 . S
H402 C403 0.961 . S
C403 C393 1.510 . S
C403 H401 0.959 . S
C403 H402 0.961 . S
C403 H404 0.960 . S
H404 C403 0.960 . S
H405 N385 0.862 . S
O406 Co374 1.920 . S
O406 C379 1.289 . S
C407 O399 1.258 . S
C407 O400 1.266 . S
Co408 O411 1.970 . S
Co408 N425 1.989 . S
Co408 O433 1.967 . S
Co408 O440 1.920 . S
Co409 O412 1.966 . S
Co409 N418 2.022 . S
Co409 N426 1.993 . S
Co409 O434 1.941 . S
C410 O411 1.258 . S
C410 O412 1.263 . S
O411 Co408 1.970 . S
O411 C410 1.258 . S
O412 Co409 1.966 . S
O412 C410 1.263 . S
C413 O414 1.235 . S
C413 O440 1.289 . S
O414 C413 1.235 . S
C415 C417 1.400 . S
C415 N418 1.351 . S
C415 C420 1.501 . S
C416 C417 1.387 . S
C416 N419 1.341 . S
C417 C415 1.400 . S
C417 C416 1.387 . S
N418 Co409 2.022 . S
N418 C415 1.351 . S
N418 N419 1.365 . S
N419 C416 1.341 . S
N419 N418 1.365 . S
N419 H439 0.862 . S
C420 C415 1.501 . S
C420 H421 0.961 . S
C420 H422 0.961 . S
C420 H423 0.960 1_556 S
H421 C420 0.961 . S
H422 C420 0.961 . S
H423 C420 0.960 1_554 S
C424 N425 1.342 . S
C424 C428 1.401 . S
C424 C429 1.499 . S
N425 Co408 1.989 . S
N425 C424 1.342 . S
N425 N426 1.388 . S
N426 Co409 1.993 . S
N426 N425 1.388 . S
N426 C427 1.346 . S
C427 N426 1.346 . S
C427 C428 1.396 . S
C427 C437 1.510 . S
C428 C424 1.401 . S
C428 C427 1.396 . S
C429 C424 1.499 . S
C429 H430 0.959 . S
C429 H431 0.960 . S
C429 H432 0.961 . S
H430 C429 0.959 . S
H431 C429 0.960 . S
H432 C429 0.961 . S
O433 Co408 1.967 . S
O433 C441 1.258 . S
O434 Co409 1.941 . S
O434 C441 1.266 . S
H435 C437 0.959 . S
H436 C437 0.961 . S
C437 C427 1.510 . S
C437 H435 0.959 . S
C437 H436 0.961 . S
C437 H438 0.960 . S
H438 C437 0.960 . S
H439 N419 0.862 . S
O440 Co408 1.920 . S
O440 C413 1.289 . S
C441 O433 1.258 . S
C441 O434 1.266 . S
Co442 O445 1.970 . S
Co442 N459 1.989 . S
Co442 O467 1.967 . S
Co442 O474 1.920 . S
Co443 O446 1.966 . S
Co443 N452 2.022 . S
Co443 N460 1.993 . S
Co443 O468 1.941 . S
C444 O445 1.258 . S
C444 O446 1.263 . S
O445 Co442 1.970 . S
O445 C444 1.258 . S
O446 Co443 1.966 . S
O446 C444 1.263 . S
C447 O448 1.235 . S
C447 O474 1.289 . S
O448 C447 1.235 . S
C449 C451 1.400 . S
C449 N452 1.351 . S
C449 C454 1.501 . S
C450 C451 1.387 . S
C450 N453 1.341 . S
C451 C449 1.400 . S
C451 C450 1.387 . S
N452 Co443 2.022 . S
N452 C449 1.351 . S
N452 N453 1.365 . S
N453 C450 1.341 . S
N453 N452 1.365 . S
N453 H473 0.862 . S
C454 C449 1.501 . S
C454 H455 0.961 . S
C454 H456 0.961 . S
C454 H457 0.960 . S
H455 C454 0.961 . S
H456 C454 0.961 . S
H457 C454 0.960 . S
C458 N459 1.342 . S
C458 C462 1.401 . S
C458 C463 1.499 . S
N459 Co442 1.989 . S
N459 C458 1.342 . S
N459 N460 1.388 . S
N460 Co443 1.993 . S
N460 N459 1.388 . S
N460 C461 1.346 . S
C461 N460 1.346 . S
C461 C462 1.396 . S
C461 C471 1.510 . S
C462 C458 1.401 . S
C462 C461 1.396 . S
C463 C458 1.499 . S
C463 H464 0.959 . S
C463 H465 0.960 . S
C463 H466 0.961 . S
H464 C463 0.959 . S
H465 C463 0.960 . S
H466 C463 0.961 . S
O467 Co442 1.967 . S
O467 C475 1.258 . S
O468 Co443 1.941 . S
O468 C475 1.266 . S
H469 C471 0.959 . S
H470 C471 0.961 . S
C471 C461 1.510 . S
C471 H469 0.959 . S
C471 H470 0.961 . S
C471 H472 0.960 . S
H472 C471 0.960 . S
H473 N453 0.862 . S
O474 Co442 1.920 . S
O474 C447 1.289 . S
C475 O467 1.258 . S
C475 O468 1.266 . S
Co476 O479 1.970 . S
Co476 N493 1.989 . S
Co476 O501 1.967 . S
Co476 O508 1.920 . S
Co477 O480 1.966 . S
Co477 N486 2.022 . S
Co477 N494 1.993 . S
Co477 O502 1.941 . S
C478 O479 1.258 . S
C478 O480 1.263 . S
O479 Co476 1.970 . S
O479 C478 1.258 . S
O480 Co477 1.966 . S
O480 C478 1.263 . S
C481 O482 1.235 . S
C481 O508 1.289 . S
O482 C481 1.235 . S
C483 C485 1.400 . S
C483 N486 1.351 . S
C483 C488 1.501 . S
C484 C485 1.387 . S
C484 N487 1.341 . S
C485 C483 1.400 . S
C485 C484 1.387 . S
N486 Co477 2.022 . S
N486 C483 1.351 . S
N486 N487 1.365 . S
N487 C484 1.341 . S
N487 N486 1.365 . S
N487 H507 0.862 . S
C488 C483 1.501 . S
C488 H489 0.961 . S
C488 H490 0.961 . S
C488 H491 0.960 . S
H489 C488 0.961 . S
H490 C488 0.961 . S
H491 C488 0.960 . S
C492 N493 1.342 . S
C492 C496 1.401 . S
C492 C497 1.499 . S
N493 Co476 1.989 . S
N493 C492 1.342 . S
N493 N494 1.388 . S
N494 Co477 1.993 . S
N494 N493 1.388 . S
N494 C495 1.346 . S
C495 N494 1.346 . S
C495 C496 1.396 . S
C495 C505 1.510 . S
C496 C492 1.401 . S
C496 C495 1.396 . S
C497 C492 1.499 . S
C497 H498 0.959 . S
C497 H499 0.960 . S
C497 H500 0.961 . S
H498 C497 0.959 . S
H499 C497 0.960 . S
H500 C497 0.961 . S
O501 Co476 1.967 . S
O501 C509 1.258 . S
O502 Co477 1.941 . S
O502 C509 1.266 . S
H503 C505 0.959 . S
H504 C505 0.961 . S
C505 C495 1.510 . S
C505 H503 0.959 . S
C505 H504 0.961 . S
C505 H506 0.960 . S
H506 C505 0.960 . S
H507 N487 0.862 . S
O508 Co476 1.920 . S
O508 C481 1.289 . S
C509 O501 1.258 . S
C509 O502 1.266 . S
Co510 O513 1.970 . S
Co510 N527 1.989 . S
Co510 O535 1.967 . S
Co510 O542 1.920 . S
Co511 O514 1.966 . S
Co511 N520 2.022 . S
Co511 N528 1.993 . S
Co511 O536 1.941 . S
C512 O513 1.258 . S
C512 O514 1.263 . S
O513 Co510 1.970 . S
O513 C512 1.258 . S
O514 Co511 1.966 . S
O514 C512 1.263 . S
C515 O516 1.235 . S
C515 O542 1.289 . S
O516 C515 1.235 . S
C517 C519 1.400 . S
C517 N520 1.351 . S
C517 C522 1.501 . S
C518 C519 1.387 . S
C518 N521 1.341 . S
C519 C517 1.400 . S
C519 C518 1.387 . S
N520 Co511 2.022 . S
N520 C517 1.351 . S
N520 N521 1.365 . S
N521 C518 1.341 . S
N521 N520 1.365 . S
N521 H541 0.862 . S
C522 C517 1.501 . S
C522 H523 0.961 . S
C522 H524 0.961 . S
C522 H525 0.960 . S
H523 C522 0.961 . S
H524 C522 0.961 . S
H525 C522 0.960 . S
C526 N527 1.342 . S
C526 C530 1.401 . S
C526 C531 1.499 1_554 S
N527 Co510 1.989 . S
N527 C526 1.342 . S
N527 N528 1.388 . S
N528 Co511 1.993 . S
N528 N527 1.388 . S
N528 C529 1.346 . S
C529 N528 1.346 . S
C529 C530 1.396 . S
C529 C539 1.510 . S
C530 C526 1.401 . S
C530 C529 1.396 . S
C531 C526 1.499 1_556 S
C531 H532 0.959 . S
C531 H533 0.960 . S
C531 H534 0.961 . S
H532 C531 0.959 . S
H533 C531 0.960 . S
H534 C531 0.961 . S
O535 Co510 1.967 . S
O535 C543 1.258 . S
O536 Co511 1.941 . S
O536 C543 1.266 . S
H537 C539 0.959 . S
H538 C539 0.961 . S
C539 C529 1.510 . S
C539 H537 0.959 . S
C539 H538 0.961 . S
C539 H540 0.960 . S
H540 C539 0.960 . S
H541 N521 0.862 . S
O542 Co510 1.920 . S
O542 C515 1.289 . S
C543 O535 1.258 . S
C543 O536 1.266 . S
Co544 O547 1.970 . S
Co544 N561 1.989 . S
Co544 O569 1.967 . S
Co544 O576 1.920 . S
Co545 O548 1.966 . S
Co545 N554 2.022 . S
Co545 N562 1.993 . S
Co545 O570 1.941 . S
C546 O547 1.258 . S
C546 O548 1.263 . S
O547 Co544 1.970 . S
O547 C546 1.258 . S
O548 Co545 1.966 . S
O548 C546 1.263 . S
C549 O550 1.235 . S
C549 O576 1.289 . S
O550 C549 1.235 . S
C551 C553 1.400 . S
C551 N554 1.351 . S
C551 C556 1.501 . S
C552 C553 1.387 . S
C552 N555 1.341 . S
C553 C551 1.400 . S
C553 C552 1.387 . S
N554 Co545 2.022 . S
N554 C551 1.351 . S
N554 N555 1.365 . S
N555 C552 1.341 . S
N555 N554 1.365 . S
N555 H575 0.862 . S
C556 C551 1.501 . S
C556 H557 0.961 . S
C556 H558 0.961 . S
C556 H559 0.960 1_556 S
H557 C556 0.961 . S
H558 C556 0.961 . S
H559 C556 0.960 1_554 S
C560 N561 1.342 . S
C560 C564 1.401 . S
C560 C565 1.499 . S
N561 Co544 1.989 . S
N561 C560 1.342 . S
N561 N562 1.388 . S
N562 Co545 1.993 . S
N562 N561 1.388 . S
N562 C563 1.346 . S
C563 N562 1.346 . S
C563 C564 1.396 . S
C563 C573 1.510 . S
C564 C560 1.401 . S
C564 C563 1.396 . S
C565 C560 1.499 . S
C565 H566 0.959 . S
C565 H567 0.960 . S
C565 H568 0.961 . S
H566 C565 0.959 . S
H567 C565 0.960 . S
H568 C565 0.961 . S
O569 Co544 1.967 . S
O569 C577 1.258 . S
O570 Co545 1.941 . S
O570 C577 1.266 . S
H571 C573 0.959 . S
H572 C573 0.961 . S
C573 C563 1.510 . S
C573 H571 0.959 . S
C573 H572 0.961 . S
C573 H574 0.960 . S
H574 C573 0.960 . S
H575 N555 0.862 . S
O576 Co544 1.920 . S
O576 C549 1.289 . S
C577 O569 1.258 . S
C577 O570 1.266 . S
Co578 O581 1.970 . S
Co578 N595 1.989 . S
Co578 O603 1.967 . S
Co578 O610 1.920 . S
Co579 O582 1.966 . S
Co579 N588 2.022 . S
Co579 N596 1.993 . S
Co579 O604 1.941 . S
C580 O581 1.258 . S
C580 O582 1.263 . S
O581 Co578 1.970 . S
O581 C580 1.258 . S
O582 Co579 1.966 . S
O582 C580 1.263 . S
C583 O584 1.235 . S
C583 O610 1.289 . S
O584 C583 1.235 . S
C585 C587 1.400 . S
C585 N588 1.351 . S
C585 C590 1.501 . S
C586 C587 1.387 . S
C586 N589 1.341 . S
C587 C585 1.400 . S
C587 C586 1.387 . S
N588 Co579 2.022 . S
N588 C585 1.351 . S
N588 N589 1.365 . S
N589 C586 1.341 . S
N589 N588 1.365 . S
N589 H609 0.862 . S
C590 C585 1.501 . S
C590 H591 0.961 . S
C590 H592 0.961 . S
C590 H593 0.960 . S
H591 C590 0.961 . S
H592 C590 0.961 . S
H593 C590 0.960 . S
C594 N595 1.342 . S
C594 C598 1.401 . S
C594 C599 1.499 1_554 S
N595 Co578 1.989 . S
N595 C594 1.342 . S
N595 N596 1.388 . S
N596 Co579 1.993 . S
N596 N595 1.388 . S
N596 C597 1.346 . S
C597 N596 1.346 . S
C597 C598 1.396 . S
C597 C607 1.510 . S
C598 C594 1.401 . S
C598 C597 1.396 . S
C599 C594 1.499 1_556 S
C599 H600 0.959 . S
C599 H601 0.960 . S
C599 H602 0.961 . S
H600 C599 0.959 . S
H601 C599 0.960 . S
H602 C599 0.961 . S
O603 Co578 1.967 . S
O603 C611 1.258 . S
O604 Co579 1.941 . S
O604 C611 1.266 . S
H605 C607 0.959 . S
H606 C607 0.961 . S
C607 C597 1.510 . S
C607 H605 0.959 . S
C607 H606 0.961 . S
C607 H608 0.960 . S
H608 C607 0.960 . S
H609 N589 0.862 . S
O610 Co578 1.920 . S
O610 C583 1.289 . S
C611 O603 1.258 . S
C611 O604 1.266 . S
Co612 O615 1.970 . S
Co612 N629 1.989 . S
Co612 O637 1.967 . S
Co612 O644 1.920 . S
Co613 O616 1.966 . S
Co613 N622 2.022 . S
Co613 N630 1.993 . S
Co613 O638 1.941 . S
C614 O615 1.258 . S
C614 O616 1.263 . S
O615 Co612 1.970 . S
O615 C614 1.258 . S
O616 Co613 1.966 . S
O616 C614 1.263 . S
C617 O618 1.235 . S
C617 O644 1.289 . S
O618 C617 1.235 . S
C619 C621 1.400 . S
C619 N622 1.351 . S
C619 C624 1.501 . S
C620 C621 1.387 . S
C620 N623 1.341 . S
C621 C619 1.400 . S
C621 C620 1.387 . S
N622 Co613 2.022 . S
N622 C619 1.351 . S
N622 N623 1.365 . S
N623 C620 1.341 . S
N623 N622 1.365 . S
N623 H643 0.862 . S
C624 C619 1.501 . S
C624 H625 0.961 . S
C624 H626 0.961 . S
C624 H627 0.960 . S
H625 C624 0.961 . S
H626 C624 0.961 . S
H627 C624 0.960 . S
C628 N629 1.342 . S
C628 C632 1.401 . S
C628 C633 1.499 . S
N629 Co612 1.989 . S
N629 C628 1.342 . S
N629 N630 1.388 . S
N630 Co613 1.993 . S
N630 N629 1.388 . S
N630 C631 1.346 . S
C631 N630 1.346 . S
C631 C632 1.396 . S
C631 C641 1.510 . S
C632 C628 1.401 . S
C632 C631 1.396 . S
C633 C628 1.499 . S
C633 H634 0.959 . S
C633 H635 0.960 . S
C633 H636 0.961 . S
H634 C633 0.959 . S
H635 C633 0.960 . S
H636 C633 0.961 . S
O637 Co612 1.967 . S
O637 C645 1.258 . S
O638 Co613 1.941 . S
O638 C645 1.266 . S
H639 C641 0.959 . S
H640 C641 0.961 . S
C641 C631 1.510 . S
C641 H639 0.959 . S
C641 H640 0.961 . S
C641 H642 0.960 . S
H642 C641 0.960 . S
H643 N623 0.862 . S
O644 Co612 1.920 . S
O644 C617 1.289 . S
C645 O637 1.258 . S
C645 O638 1.266 . S
Co646 O649 1.970 . S
Co646 N663 1.989 . S
Co646 O671 1.967 . S
Co646 O678 1.920 . S
Co647 O650 1.966 . S
Co647 N656 2.022 . S
Co647 N664 1.993 . S
Co647 O672 1.941 . S
C648 O649 1.258 . S
C648 O650 1.263 . S
O649 Co646 1.970 . S
O649 C648 1.258 . S
O650 Co647 1.966 . S
O650 C648 1.263 . S
C651 O652 1.235 . S
C651 O678 1.289 . S
O652 C651 1.235 . S
C653 C655 1.400 . S
C653 N656 1.351 . S
C653 C658 1.501 . S
C654 C655 1.387 . S
C654 N657 1.341 . S
C655 C653 1.400 . S
C655 C654 1.387 . S
N656 Co647 2.022 . S
N656 C653 1.351 . S
N656 N657 1.365 . S
N657 C654 1.341 . S
N657 N656 1.365 . S
N657 H677 0.862 . S
C658 C653 1.501 . S
C658 H659 0.961 . S
C658 H660 0.961 . S
C658 H661 0.960 . S
H659 C658 0.961 . S
H660 C658 0.961 . S
H661 C658 0.960 . S
C662 N663 1.342 . S
C662 C666 1.401 . S
C662 C667 1.499 . S
N663 Co646 1.989 . S
N663 C662 1.342 . S
N663 N664 1.388 . S
N664 Co647 1.993 . S
N664 N663 1.388 . S
N664 C665 1.346 . S
C665 N664 1.346 . S
C665 C666 1.396 . S
C665 C675 1.510 . S
C666 C662 1.401 . S
C666 C665 1.396 . S
C667 C662 1.499 . S
C667 H668 0.959 . S
C667 H669 0.960 . S
C667 H670 0.961 . S
H668 C667 0.959 . S
H669 C667 0.960 . S
H670 C667 0.961 . S
O671 Co646 1.967 . S
O671 C679 1.258 . S
O672 Co647 1.941 . S
O672 C679 1.266 . S
H673 C675 0.959 . S
H674 C675 0.961 . S
C675 C665 1.510 . S
C675 H673 0.959 . S
C675 H674 0.961 . S
C675 H676 0.960 . S
H676 C675 0.960 . S
H677 N657 0.862 . S
O678 Co646 1.920 . S
O678 C651 1.289 . S
C679 O671 1.258 . S
C679 O672 1.266 . S
Co680 O683 1.970 . S
Co680 N697 1.989 . S
Co680 O705 1.967 . S
Co680 O712 1.920 . S
Co681 O684 1.966 . S
Co681 N690 2.022 . S
Co681 N698 1.993 . S
Co681 O706 1.941 . S
C682 O683 1.258 . S
C682 O684 1.263 . S
O683 Co680 1.970 . S
O683 C682 1.258 . S
O684 Co681 1.966 . S
O684 C682 1.263 . S
C685 O686 1.235 . S
C685 O712 1.289 . S
O686 C685 1.235 . S
C687 C689 1.400 . S
C687 N690 1.351 . S
C687 C692 1.501 . S
C688 C689 1.387 . S
C688 N691 1.341 . S
C689 C687 1.400 . S
C689 C688 1.387 . S
N690 Co681 2.022 . S
N690 C687 1.351 . S
N690 N691 1.365 . S
N691 C688 1.341 . S
N691 N690 1.365 . S
N691 H711 0.862 . S
C692 C687 1.501 . S
C692 H693 0.961 . S
C692 H694 0.961 . S
C692 H695 0.960 . S
H693 C692 0.961 . S
H694 C692 0.961 . S
H695 C692 0.960 . S
C696 N697 1.342 . S
C696 C700 1.401 . S
C696 C701 1.499 . S
N697 Co680 1.989 . S
N697 C696 1.342 . S
N697 N698 1.388 . S
N698 Co681 1.993 . S
N698 N697 1.388 . S
N698 C699 1.346 . S
C699 N698 1.346 . S
C699 C700 1.396 . S
C699 C709 1.510 . S
C700 C696 1.401 . S
C700 C699 1.396 . S
C701 C696 1.499 . S
C701 H702 0.959 . S
C701 H703 0.960 . S
C701 H704 0.961 . S
H702 C701 0.959 . S
H703 C701 0.960 . S
H704 C701 0.961 . S
O705 Co680 1.967 . S
O705 C713 1.258 . S
O706 Co681 1.941 . S
O706 C713 1.266 . S
H707 C709 0.959 . S
H708 C709 0.961 . S
C709 C699 1.510 . S
C709 H707 0.959 . S
C709 H708 0.961 . S
C709 H710 0.960 . S
H710 C709 0.960 . S
H711 N691 0.862 . S
O712 Co680 1.920 . S
O712 C685 1.289 . S
C713 O705 1.258 . S
C713 O706 1.266 . S
Co714 O717 1.970 . S
Co714 N731 1.989 . S
Co714 O739 1.967 . S
Co714 O746 1.920 . S
Co715 O718 1.966 . S
Co715 N724 2.022 . S
Co715 N732 1.993 . S
Co715 O740 1.941 . S
C716 O717 1.258 . S
C716 O718 1.263 . S
O717 Co714 1.970 . S
O717 C716 1.258 . S
O718 Co715 1.966 . S
O718 C716 1.263 . S
C719 O720 1.235 . S
C719 O746 1.289 . S
O720 C719 1.235 . S
C721 C723 1.400 . S
C721 N724 1.351 . S
C721 C726 1.501 . S
C722 C723 1.387 . S
C722 N725 1.341 . S
C723 C721 1.400 . S
C723 C722 1.387 . S
N724 Co715 2.022 . S
N724 C721 1.351 . S
N724 N725 1.365 . S
N725 C722 1.341 . S
N725 N724 1.365 . S
N725 H745 0.862 . S
C726 C721 1.501 . S
C726 H727 0.961 . S
C726 H728 0.961 . S
C726 H729 0.960 . S
H727 C726 0.961 . S
H728 C726 0.961 . S
H729 C726 0.960 . S
C730 N731 1.342 . S
C730 C734 1.401 . S
C730 C735 1.499 1_556 S
N731 Co714 1.989 . S
N731 C730 1.342 . S
N731 N732 1.388 . S
N732 Co715 1.993 . S
N732 N731 1.388 . S
N732 C733 1.346 . S
C733 N732 1.346 . S
C733 C734 1.396 . S
C733 C743 1.510 . S
C734 C730 1.401 . S
C734 C733 1.396 . S
C735 C730 1.499 1_554 S
C735 H736 0.959 . S
C735 H737 0.960 . S
C735 H738 0.961 . S
H736 C735 0.959 . S
H737 C735 0.960 . S
H738 C735 0.961 . S
O739 Co714 1.967 . S
O739 C747 1.258 . S
O740 Co715 1.941 . S
O740 C747 1.266 . S
H741 C743 0.959 . S
H742 C743 0.961 . S
C743 C733 1.510 . S
C743 H741 0.959 . S
C743 H742 0.961 . S
C743 H744 0.960 . S
H744 C743 0.960 . S
H745 N725 0.862 . S
O746 Co714 1.920 . S
O746 C719 1.289 . S
C747 O739 1.258 . S
C747 O740 1.266 . S
Co748 O751 1.970 . S
Co748 N765 1.989 . S
Co748 O773 1.967 . S
Co748 O780 1.920 . S
Co749 O752 1.966 . S
Co749 N758 2.022 . S
Co749 N766 1.993 . S
Co749 O774 1.941 . S
C750 O751 1.258 . S
C750 O752 1.263 . S
O751 Co748 1.970 . S
O751 C750 1.258 . S
O752 Co749 1.966 . S
O752 C750 1.263 . S
C753 O754 1.235 . S
C753 O780 1.289 . S
O754 C753 1.235 . S
C755 C757 1.400 . S
C755 N758 1.351 . S
C755 C760 1.501 . S
C756 C757 1.387 . S
C756 N759 1.341 . S
C757 C755 1.400 . S
C757 C756 1.387 . S
N758 Co749 2.022 . S
N758 C755 1.351 . S
N758 N759 1.365 . S
N759 C756 1.341 . S
N759 N758 1.365 . S
N759 H779 0.862 . S
C760 C755 1.501 . S
C760 H761 0.961 . S
C760 H762 0.961 . S
C760 H763 0.960 1_554 S
H761 C760 0.961 . S
H762 C760 0.961 . S
H763 C760 0.960 1_556 S
C764 N765 1.342 . S
C764 C768 1.401 . S
C764 C769 1.499 . S
N765 Co748 1.989 . S
N765 C764 1.342 . S
N765 N766 1.388 . S
N766 Co749 1.993 . S
N766 N765 1.388 . S
N766 C767 1.346 . S
C767 N766 1.346 . S
C767 C768 1.396 . S
C767 C777 1.510 . S
C768 C764 1.401 . S
C768 C767 1.396 . S
C769 C764 1.499 . S
C769 H770 0.959 . S
C769 H771 0.960 . S
C769 H772 0.961 . S
H770 C769 0.959 . S
H771 C769 0.960 . S
H772 C769 0.961 . S
O773 Co748 1.967 . S
O773 C781 1.258 . S
O774 Co749 1.941 . S
O774 C781 1.266 . S
H775 C777 0.959 . S
H776 C777 0.961 . S
C777 C767 1.510 . S
C777 H775 0.959 . S
C777 H776 0.961 . S
C777 H778 0.960 . S
H778 C777 0.960 . S
H779 N759 0.862 . S
O780 Co748 1.920 . S
O780 C753 1.289 . S
C781 O773 1.258 . S
C781 O774 1.266 . S
Co782 O785 1.970 . S
Co782 N799 1.989 . S
Co782 O807 1.967 . S
Co782 O814 1.920 . S
Co783 O786 1.966 . S
Co783 N792 2.022 . S
Co783 N800 1.993 . S
Co783 O808 1.941 . S
C784 O785 1.258 . S
C784 O786 1.263 . S
O785 Co782 1.970 . S
O785 C784 1.258 . S
O786 Co783 1.966 . S
O786 C784 1.263 . S
C787 O788 1.235 . S
C787 O814 1.289 . S
O788 C787 1.235 . S
C789 C791 1.400 . S
C789 N792 1.351 . S
C789 C794 1.501 . S
C790 C791 1.387 . S
C790 N793 1.341 . S
C791 C789 1.400 . S
C791 C790 1.387 . S
N792 Co783 2.022 . S
N792 C789 1.351 . S
N792 N793 1.365 . S
N793 C790 1.341 . S
N793 N792 1.365 . S
N793 H813 0.862 . S
C794 C789 1.501 . S
C794 H795 0.961 . S
C794 H796 0.961 . S
C794 H797 0.960 . S
H795 C794 0.961 . S
H796 C794 0.961 . S
H797 C794 0.960 . S
C798 N799 1.342 . S
C798 C802 1.401 . S
C798 C803 1.499 . S
N799 Co782 1.989 . S
N799 C798 1.342 . S
N799 N800 1.388 . S
N800 Co783 1.993 . S
N800 N799 1.388 . S
N800 C801 1.346 . S
C801 N800 1.346 . S
C801 C802 1.396 . S
C801 C811 1.510 . S
C802 C798 1.401 . S
C802 C801 1.396 . S
C803 C798 1.499 . S
C803 H804 0.959 . S
C803 H805 0.960 . S
C803 H806 0.961 . S
H804 C803 0.959 . S
H805 C803 0.960 . S
H806 C803 0.961 . S
O807 Co782 1.967 . S
O807 C815 1.258 . S
O808 Co783 1.941 . S
O808 C815 1.266 . S
H809 C811 0.959 . S
H810 C811 0.961 . S
C811 C801 1.510 . S
C811 H809 0.959 . S
C811 H810 0.961 . S
C811 H812 0.960 . S
H812 C811 0.960 . S
H813 N793 0.862 . S
O814 Co782 1.920 . S
O814 C787 1.289 . S
C815 O807 1.258 . S
C815 O808 1.266 . S
Co816 O819 1.970 . S
Co816 N833 1.989 . S
Co816 O841 1.967 . S
Co816 O848 1.920 . S
Co817 O820 1.966 . S
Co817 N826 2.022 . S
Co817 N834 1.993 . S
Co817 O842 1.941 . S
C818 O819 1.258 . S
C818 O820 1.263 . S
O819 Co816 1.970 . S
O819 C818 1.258 . S
O820 Co817 1.966 . S
O820 C818 1.263 . S
C821 O822 1.235 . S
C821 O848 1.289 . S
O822 C821 1.235 . S
C823 C825 1.400 . S
C823 N826 1.351 . S
C823 C828 1.501 . S
C824 C825 1.387 . S
C824 N827 1.341 . S
C825 C823 1.400 . S
C825 C824 1.387 . S
N826 Co817 2.022 . S
N826 C823 1.351 . S
N826 N827 1.365 . S
N827 C824 1.341 . S
N827 N826 1.365 . S
N827 H847 0.862 . S
C828 C823 1.501 . S
C828 H829 0.961 . S
C828 H830 0.961 . S
C828 H831 0.960 1_554 S
H829 C828 0.961 . S
H830 C828 0.961 . S
H831 C828 0.960 1_556 S
C832 N833 1.342 . S
C832 C836 1.401 . S
C832 C837 1.499 . S
N833 Co816 1.989 . S
N833 C832 1.342 . S
N833 N834 1.388 . S
N834 Co817 1.993 . S
N834 N833 1.388 . S
N834 C835 1.346 . S
C835 N834 1.346 . S
C835 C836 1.396 . S
C835 C845 1.510 . S
C836 C832 1.401 . S
C836 C835 1.396 . S
C837 C832 1.499 . S
C837 H838 0.959 . S
C837 H839 0.960 . S
C837 H840 0.961 . S
H838 C837 0.959 . S
H839 C837 0.960 . S
H840 C837 0.961 . S
O841 Co816 1.967 . S
O841 C849 1.258 . S
O842 Co817 1.941 . S
O842 C849 1.266 . S
H843 C845 0.959 . S
H844 C845 0.961 . S
C845 C835 1.510 . S
C845 H843 0.959 . S
C845 H844 0.961 . S
C845 H846 0.960 . S
H846 C845 0.960 . S
H847 N827 0.862 . S
O848 Co816 1.920 . S
O848 C821 1.289 . S
C849 O841 1.258 . S
C849 O842 1.266 . S
Co850 O853 1.970 . S
Co850 N867 1.989 . S
Co850 O875 1.967 . S
Co850 O882 1.920 . S
Co851 O854 1.966 . S
Co851 N860 2.022 . S
Co851 N868 1.993 . S
Co851 O876 1.941 . S
C852 O853 1.258 . S
C852 O854 1.263 . S
O853 Co850 1.970 . S
O853 C852 1.258 . S
O854 Co851 1.966 . S
O854 C852 1.263 . S
C855 O856 1.235 . S
C855 O882 1.289 . S
O856 C855 1.235 . S
C857 C859 1.400 . S
C857 N860 1.351 . S
C857 C862 1.501 . S
C858 C859 1.387 . S
C858 N861 1.341 . S
C859 C857 1.400 . S
C859 C858 1.387 . S
N860 Co851 2.022 . S
N860 C857 1.351 . S
N860 N861 1.365 . S
N861 C858 1.341 . S
N861 N860 1.365 . S
N861 H881 0.862 . S
C862 C857 1.501 . S
C862 H863 0.961 . S
C862 H864 0.961 . S
C862 H865 0.960 . S
H863 C862 0.961 . S
H864 C862 0.961 . S
H865 C862 0.960 . S
C866 N867 1.342 . S
C866 C870 1.401 . S
C866 C871 1.499 1_556 S
N867 Co850 1.989 . S
N867 C866 1.342 . S
N867 N868 1.388 . S
N868 Co851 1.993 . S
N868 N867 1.388 . S
N868 C869 1.346 . S
C869 N868 1.346 . S
C869 C870 1.396 . S
C869 C879 1.510 . S
C870 C866 1.401 . S
C870 C869 1.396 . S
C871 C866 1.499 1_554 S
C871 H872 0.959 . S
C871 H873 0.960 . S
C871 H874 0.961 . S
H872 C871 0.959 . S
H873 C871 0.960 . S
H874 C871 0.961 . S
O875 Co850 1.967 . S
O875 C883 1.258 . S
O876 Co851 1.941 . S
O876 C883 1.266 . S
H877 C879 0.959 . S
H878 C879 0.961 . S
C879 C869 1.510 . S
C879 H877 0.959 . S
C879 H878 0.961 . S
C879 H880 0.960 . S
H880 C879 0.960 . S
H881 N861 0.862 . S
O882 Co850 1.920 . S
O882 C855 1.289 . S
C883 O875 1.258 . S
C883 O876 1.266 . S
Co884 O887 1.970 . S
Co884 N901 1.989 . S
Co884 O909 1.967 . S
Co884 O916 1.920 . S
Co885 O888 1.966 . S
Co885 N894 2.022 . S
Co885 N902 1.993 . S
Co885 O910 1.941 . S
C886 O887 1.258 . S
C886 O888 1.263 . S
O887 Co884 1.970 . S
O887 C886 1.258 . S
O888 Co885 1.966 . S
O888 C886 1.263 . S
C889 O890 1.235 . S
C889 O916 1.289 . S
O890 C889 1.235 . S
C891 C893 1.400 . S
C891 N894 1.351 . S
C891 C896 1.501 . S
C892 C893 1.387 . S
C892 N895 1.341 . S
C893 C891 1.400 . S
C893 C892 1.387 . S
N894 Co885 2.022 . S
N894 C891 1.351 . S
N894 N895 1.365 . S
N895 C892 1.341 . S
N895 N894 1.365 . S
N895 H915 0.862 . S
C896 C891 1.501 . S
C896 H897 0.961 . S
C896 H898 0.961 . S
C896 H899 0.960 . S
H897 C896 0.961 . S
H898 C896 0.961 . S
H899 C896 0.960 . S
C900 N901 1.342 . S
C900 C904 1.401 . S
C900 C905 1.499 . S
N901 Co884 1.989 . S
N901 C900 1.342 . S
N901 N902 1.388 . S
N902 Co885 1.993 . S
N902 N901 1.388 . S
N902 C903 1.346 . S
C903 N902 1.346 . S
C903 C904 1.396 . S
C903 C913 1.510 . S
C904 C900 1.401 . S
C904 C903 1.396 . S
C905 C900 1.499 . S
C905 H906 0.959 . S
C905 H907 0.960 . S
C905 H908 0.961 . S
H906 C905 0.959 . S
H907 C905 0.960 . S
H908 C905 0.961 . S
O909 Co884 1.967 . S
O909 C917 1.258 . S
O910 Co885 1.941 . S
O910 C917 1.266 . S
H911 C913 0.959 . S
H912 C913 0.961 . S
C913 C903 1.510 . S
C913 H911 0.959 . S
C913 H912 0.961 . S
C913 H914 0.960 . S
H914 C913 0.960 . S
H915 N895 0.862 . S
O916 Co884 1.920 . S
O916 C889 1.289 . S
C917 O909 1.258 . S
C917 O910 1.266 . S
Co918 O921 1.970 . S
Co918 N935 1.989 . S
Co918 O943 1.967 . S
Co918 O950 1.920 . S
Co919 O922 1.966 . S
Co919 N928 2.022 . S
Co919 N936 1.993 . S
Co919 O944 1.941 . S
C920 O921 1.258 . S
C920 O922 1.263 . S
O921 Co918 1.970 . S
O921 C920 1.258 . S
O922 Co919 1.966 . S
O922 C920 1.263 . S
C923 O924 1.235 . S
C923 O950 1.289 . S
O924 C923 1.235 . S
C925 C927 1.400 . S
C925 N928 1.351 . S
C925 C930 1.501 . S
C926 C927 1.387 . S
C926 N929 1.341 . S
C927 C925 1.400 . S
C927 C926 1.387 . S
N928 Co919 2.022 . S
N928 C925 1.351 . S
N928 N929 1.365 . S
N929 C926 1.341 . S
N929 N928 1.365 . S
N929 H949 0.862 . S
C930 C925 1.501 . S
C930 H931 0.961 . S
C930 H932 0.961 . S
C930 H933 0.960 . S
H931 C930 0.961 . S
H932 C930 0.961 . S
H933 C930 0.960 . S
C934 N935 1.342 . S
C934 C938 1.401 . S
C934 C939 1.499 . S
N935 Co918 1.989 . S
N935 C934 1.342 . S
N935 N936 1.388 . S
N936 Co919 1.993 . S
N936 N935 1.388 . S
N936 C937 1.346 . S
C937 N936 1.346 . S
C937 C938 1.396 . S
C937 C947 1.510 . S
C938 C934 1.401 . S
C938 C937 1.396 . S
C939 C934 1.499 . S
C939 H940 0.959 . S
C939 H941 0.960 . S
C939 H942 0.961 . S
H940 C939 0.959 . S
H941 C939 0.960 . S
H942 C939 0.961 . S
O943 Co918 1.967 . S
O943 C951 1.258 . S
O944 Co919 1.941 . S
O944 C951 1.266 . S
H945 C947 0.959 . S
H946 C947 0.961 . S
C947 C937 1.510 . S
C947 H945 0.959 . S
C947 H946 0.961 . S
C947 H948 0.960 . S
H948 C947 0.960 . S
H949 N929 0.862 . S
O950 Co918 1.920 . S
O950 C923 1.289 . S
C951 O943 1.258 . S
C951 O944 1.266 . S
Co952 O955 1.970 . S
Co952 N969 1.989 . S
Co952 O977 1.967 . S
Co952 O984 1.920 . S
Co953 O956 1.966 . S
Co953 N962 2.022 . S
Co953 N970 1.993 . S
Co953 O978 1.941 . S
C954 O955 1.258 . S
C954 O956 1.263 . S
O955 Co952 1.970 . S
O955 C954 1.258 . S
O956 Co953 1.966 . S
O956 C954 1.263 . S
C957 O958 1.235 . S
C957 O984 1.289 . S
O958 C957 1.235 . S
C959 C961 1.400 . S
C959 N962 1.351 . S
C959 C964 1.501 . S
C960 C961 1.387 . S
C960 N963 1.341 . S
C961 C959 1.400 . S
C961 C960 1.387 . S
N962 Co953 2.022 . S
N962 C959 1.351 . S
N962 N963 1.365 . S
N963 C960 1.341 . S
N963 N962 1.365 . S
N963 H983 0.862 . S
C964 C959 1.501 . S
C964 H965 0.961 . S
C964 H966 0.961 . S
C964 H967 0.960 . S
H965 C964 0.961 . S
H966 C964 0.961 . S
H967 C964 0.960 . S
C968 N969 1.342 . S
C968 C972 1.401 . S
C968 C973 1.499 . S
N969 Co952 1.989 . S
N969 C968 1.342 . S
N969 N970 1.388 . S
N970 Co953 1.993 . S
N970 N969 1.388 . S
N970 C971 1.346 . S
C971 N970 1.346 . S
C971 C972 1.396 . S
C971 C981 1.510 . S
C972 C968 1.401 . S
C972 C971 1.396 . S
C973 C968 1.499 . S
C973 H974 0.959 . S
C973 H975 0.960 . S
C973 H976 0.961 . S
H974 C973 0.959 . S
H975 C973 0.960 . S
H976 C973 0.961 . S
O977 Co952 1.967 . S
O977 C985 1.258 . S
O978 Co953 1.941 . S
O978 C985 1.266 . S
H979 C981 0.959 . S
H980 C981 0.961 . S
C981 C971 1.510 . S
C981 H979 0.959 . S
C981 H980 0.961 . S
C981 H982 0.960 . S
H982 C981 0.960 . S
H983 N963 0.862 . S
O984 Co952 1.920 . S
O984 C957 1.289 . S
C985 O977 1.258 . S
C985 O978 1.266 . S
Co986 O989 1.970 . S
Co986 N1003 1.989 . S
Co986 O1011 1.967 . S
Co986 O1018 1.920 . S
Co987 O990 1.966 . S
Co987 N996 2.022 . S
Co987 N1004 1.993 . S
Co987 O1012 1.941 . S
C988 O989 1.258 . S
C988 O990 1.263 . S
O989 Co986 1.970 . S
O989 C988 1.258 . S
O990 Co987 1.966 . S
O990 C988 1.263 . S
C991 O992 1.235 . S
C991 O1018 1.289 . S
O992 C991 1.235 . S
C993 C995 1.400 . S
C993 N996 1.351 . S
C993 C998 1.501 . S
C994 C995 1.387 . S
C994 N997 1.341 . S
C995 C993 1.400 . S
C995 C994 1.387 . S
N996 Co987 2.022 . S
N996 C993 1.351 . S
N996 N997 1.365 . S
N997 C994 1.341 . S
N997 N996 1.365 . S
N997 H1017 0.862 . S
C998 C993 1.501 . S
C998 H999 0.961 . S
C998 H1000 0.961 . S
C998 H1001 0.960 . S
H999 C998 0.961 . S
H1000 C998 0.961 . S
H1001 C998 0.960 . S
C1002 N1003 1.342 . S
C1002 C1006 1.401 . S
C1002 C1007 1.499 1_554 S
N1003 Co986 1.989 . S
N1003 C1002 1.342 . S
N1003 N1004 1.388 . S
N1004 Co987 1.993 . S
N1004 N1003 1.388 . S
N1004 C1005 1.346 . S
C1005 N1004 1.346 . S
C1005 C1006 1.396 . S
C1005 C1015 1.510 . S
C1006 C1002 1.401 . S
C1006 C1005 1.396 . S
C1007 C1002 1.499 1_556 S
C1007 H1008 0.959 . S
C1007 H1009 0.960 . S
C1007 H1010 0.961 . S
H1008 C1007 0.959 . S
H1009 C1007 0.960 . S
H1010 C1007 0.961 . S
O1011 Co986 1.967 . S
O1011 C1019 1.258 . S
O1012 Co987 1.941 . S
O1012 C1019 1.266 . S
H1013 C1015 0.959 . S
H1014 C1015 0.961 . S
C1015 C1005 1.510 . S
C1015 H1013 0.959 . S
C1015 H1014 0.961 . S
C1015 H1016 0.960 . S
H1016 C1015 0.960 . S
H1017 N997 0.862 . S
O1018 Co986 1.920 . S
O1018 C991 1.289 . S
C1019 O1011 1.258 . S
C1019 O1012 1.266 . S
Co1020 O1023 1.970 . S
Co1020 N1037 1.989 . S
Co1020 O1045 1.967 . S
Co1020 O1052 1.920 . S
Co1021 O1024 1.966 . S
Co1021 N1030 2.022 . S
Co1021 N1038 1.993 . S
Co1021 O1046 1.941 . S
C1022 O1023 1.258 . S
C1022 O1024 1.263 . S
O1023 Co1020 1.970 . S
O1023 C1022 1.258 . S
O1024 Co1021 1.966 . S
O1024 C1022 1.263 . S
C1025 O1026 1.235 . S
C1025 O1052 1.289 . S
O1026 C1025 1.235 . S
C1027 C1029 1.400 . S
C1027 N1030 1.351 . S
C1027 C1032 1.501 . S
C1028 C1029 1.387 . S
C1028 N1031 1.341 . S
C1029 C1027 1.400 . S
C1029 C1028 1.387 . S
N1030 Co1021 2.022 . S
N1030 C1027 1.351 . S
N1030 N1031 1.365 . S
N1031 C1028 1.341 . S
N1031 N1030 1.365 . S
N1031 H1051 0.862 . S
C1032 C1027 1.501 . S
C1032 H1033 0.961 . S
C1032 H1034 0.961 . S
C1032 H1035 0.960 1_556 S
H1033 C1032 0.961 . S
H1034 C1032 0.961 . S
H1035 C1032 0.960 1_554 S
C1036 N1037 1.342 . S
C1036 C1040 1.401 . S
C1036 C1041 1.499 . S
N1037 Co1020 1.989 . S
N1037 C1036 1.342 . S
N1037 N1038 1.388 . S
N1038 Co1021 1.993 . S
N1038 N1037 1.388 . S
N1038 C1039 1.346 . S
C1039 N1038 1.346 . S
C1039 C1040 1.396 . S
C1039 C1049 1.510 . S
C1040 C1036 1.401 . S
C1040 C1039 1.396 . S
C1041 C1036 1.499 . S
C1041 H1042 0.959 . S
C1041 H1043 0.960 . S
C1041 H1044 0.961 . S
H1042 C1041 0.959 . S
H1043 C1041 0.960 . S
H1044 C1041 0.961 . S
O1045 Co1020 1.967 . S
O1045 C1053 1.258 . S
O1046 Co1021 1.941 . S
O1046 C1053 1.266 . S
H1047 C1049 0.959 . S
H1048 C1049 0.961 . S
C1049 C1039 1.510 . S
C1049 H1047 0.959 . S
C1049 H1048 0.961 . S
C1049 H1050 0.960 . S
H1050 C1049 0.960 . S
H1051 N1031 0.862 . S
O1052 Co1020 1.920 . S
O1052 C1025 1.289 . S
C1053 O1045 1.258 . S
C1053 O1046 1.266 . S
Co1054 O1057 1.970 . S
Co1054 N1071 1.989 . S
Co1054 O1079 1.967 . S
Co1054 O1086 1.920 . S
Co1055 O1058 1.966 . S
Co1055 N1064 2.022 . S
Co1055 N1072 1.993 . S
Co1055 O1080 1.941 . S
C1056 O1057 1.258 . S
C1056 O1058 1.263 . S
O1057 Co1054 1.970 . S
O1057 C1056 1.258 . S
O1058 Co1055 1.966 . S
O1058 C1056 1.263 . S
C1059 O1060 1.235 . S
C1059 O1086 1.289 . S
O1060 C1059 1.235 . S
C1061 C1063 1.400 . S
C1061 N1064 1.351 . S
C1061 C1066 1.501 . S
C1062 C1063 1.387 . S
C1062 N1065 1.341 . S
C1063 C1061 1.400 . S
C1063 C1062 1.387 . S
N1064 Co1055 2.022 . S
N1064 C1061 1.351 . S
N1064 N1065 1.365 . S
N1065 C1062 1.341 . S
N1065 N1064 1.365 . S
N1065 H1085 0.862 . S
C1066 C1061 1.501 . S
C1066 H1067 0.961 . S
C1066 H1068 0.961 . S
C1066 H1069 0.960 . S
H1067 C1066 0.961 . S
H1068 C1066 0.961 . S
H1069 C1066 0.960 . S
C1070 N1071 1.342 . S
C1070 C1074 1.401 . S
C1070 C1075 1.499 . S
N1071 Co1054 1.989 . S
N1071 C1070 1.342 . S
N1071 N1072 1.388 . S
N1072 Co1055 1.993 . S
N1072 N1071 1.388 . S
N1072 C1073 1.346 . S
C1073 N1072 1.346 . S
C1073 C1074 1.396 . S
C1073 C1083 1.510 . S
C1074 C1070 1.401 . S
C1074 C1073 1.396 . S
C1075 C1070 1.499 . S
C1075 H1076 0.959 . S
C1075 H1077 0.960 . S
C1075 H1078 0.961 . S
H1076 C1075 0.959 . S
H1077 C1075 0.960 . S
H1078 C1075 0.961 . S
O1079 Co1054 1.967 . S
O1079 C1087 1.258 . S
O1080 Co1055 1.941 . S
O1080 C1087 1.266 . S
H1081 C1083 0.959 . S
H1082 C1083 0.961 . S
C1083 C1073 1.510 . S
C1083 H1081 0.959 . S
C1083 H1082 0.961 . S
C1083 H1084 0.960 . S
H1084 C1083 0.960 . S
H1085 N1065 0.862 . S
O1086 Co1054 1.920 . S
O1086 C1059 1.289 . S
C1087 O1079 1.258 . S
C1087 O1080 1.266 . S
C1088 C1089 1.349 . S
C1088 C1090 1.327 . S
C1088 H1113 0.950 . S
C1089 C1088 1.349 . S
C1089 C1105 1.349 . S
C1090 C1088 1.327 . S
C1090 C1109 1.429 . S
C1090 H1114 0.950 . S
C1091 C1108 1.574 . S
C1091 C1110 1.368 . S
C1091 H1115 0.949 . S
H1092 C1096 0.949 . S
C1093 C1094 1.349 . S
C1093 C1095 1.327 . S
C1093 H1116 0.950 . S
C1094 C1093 1.349 . S
C1094 C1106 1.349 . S
C1095 C1093 1.327 . S
C1095 C1111 1.429 . S
C1095 H1117 0.950 . S
C1096 H1092 0.949 . S
C1096 C1104 1.574 . S
C1096 C1112 1.368 . S
H1097 C1105 0.950 . S
H1098 C1103 0.950 . S
H1099 C1104 0.949 . S
H1100 C1106 0.950 . S
H1101 C1107 0.950 . S
H1102 C1108 0.949 . S
C1103 H1098 0.950 . S
C1103 C1105 1.327 . S
C1103 C1109 1.429 . S
C1104 C1096 1.574 . S
C1104 H1099 0.949 . S
C1104 C1110 1.368 . S
C1105 C1089 1.349 . S
C1105 H1097 0.950 . S
C1105 C1103 1.327 . S
C1106 C1094 1.349 . S
C1106 H1100 0.950 . S
C1106 C1107 1.327 . S
C1107 H1101 0.950 . S
C1107 C1106 1.327 . S
C1107 C1111 1.429 . S
C1108 C1091 1.574 . S
C1108 H1102 0.949 . S
C1108 C1112 1.368 . S
C1109 C1090 1.429 . S
C1109 C1103 1.429 . S
C1109 C1110 1.523 . S
C1110 C1091 1.368 . S
C1110 C1104 1.368 . S
C1110 C1109 1.523 . S
C1111 C1095 1.429 . S
C1111 C1107 1.429 . S
C1111 C1112 1.523 . S
C1112 C1096 1.368 . S
C1112 C1108 1.368 . S
C1112 C1111 1.523 . S
H1113 C1088 0.950 . S
H1114 C1090 0.950 . S
H1115 C1091 0.949 . S
H1116 C1093 0.950 . S
H1117 C1095 0.950 . S
C1118 C1119 1.349 . S
C1118 C1120 1.327 . S
C1118 H1143 0.950 . S
C1119 C1118 1.349 . S
C1119 C1135 1.349 . S
C1120 C1118 1.327 . S
C1120 C1139 1.429 . S
C1120 H1144 0.950 . S
C1121 C1138 1.574 . S
C1121 C1140 1.368 . S
C1121 H1145 0.949 . S
H1122 C1126 0.949 . S
C1123 C1124 1.349 . S
C1123 C1125 1.327 . S
C1123 H1146 0.950 . S
C1124 C1123 1.349 . S
C1124 C1136 1.349 1_556 S
C1125 C1123 1.327 . S
C1125 C1141 1.429 . S
C1125 H1147 0.950 . S
C1126 H1122 0.949 . S
C1126 C1134 1.574 . S
C1126 C1142 1.368 . S
H1127 C1135 0.950 . S
H1128 C1133 0.950 . S
H1129 C1134 0.949 . S
H1130 C1136 0.950 . S
H1131 C1137 0.955 . S
H1132 C1138 0.949 . S
C1133 H1128 0.950 . S
C1133 C1135 1.327 . S
C1133 C1139 1.429 . S
C1134 C1126 1.574 . S
C1134 H1129 0.949 . S
C1134 C1140 1.368 . S
C1135 C1119 1.349 . S
C1135 H1127 0.950 . S
C1135 C1133 1.327 . S
C1136 C1124 1.349 1_554 S
C1136 H1130 0.950 . S
C1136 C1137 1.327 1_554 S
C1137 H1131 0.955 . S
C1137 C1136 1.327 1_556 S
C1137 C1141 1.429 . S
C1138 C1121 1.574 . S
C1138 H1132 0.949 . S
C1138 C1142 1.368 . S
C1139 C1120 1.429 . S
C1139 C1133 1.429 . S
C1139 C1140 1.523 . S
C1140 C1121 1.368 . S
C1140 C1134 1.368 . S
C1140 C1139 1.523 . S
C1141 C1125 1.429 . S
C1141 C1137 1.429 . S
C1141 C1142 1.523 . S
C1142 C1126 1.368 . S
C1142 C1138 1.368 . S
C1142 C1141 1.523 . S
H1143 C1118 0.950 . S
H1144 C1120 0.950 . S
H1145 C1121 0.949 . S
H1146 C1123 0.950 . S
H1147 C1125 0.950 . S
C1148 C1149 1.349 . S
C1148 C1150 1.327 . S
C1148 H1173 0.950 . S
C1149 C1148 1.349 . S
C1149 C1165 1.349 . S
C1150 C1148 1.327 . S
C1150 C1169 1.429 . S
C1150 H1174 0.950 . S
C1151 C1168 1.574 . S
C1151 C1170 1.368 . S
C1151 H1175 0.949 . S
H1152 C1156 0.949 . S
C1153 C1154 1.349 . S
C1153 C1155 1.327 . S
C1153 H1176 0.950 . S
C1154 C1153 1.349 . S
C1154 C1166 1.349 . S
C1155 C1153 1.327 . S
C1155 C1171 1.429 . S
C1155 H1177 0.950 . S
C1156 H1152 0.949 . S
C1156 C1164 1.574 . S
C1156 C1172 1.368 . S
H1157 C1165 0.950 . S
H1158 C1163 0.950 . S
H1159 C1164 0.949 . S
H1160 C1166 0.950 . S
H1161 C1167 0.950 . S
H1162 C1168 0.949 . S
C1163 H1158 0.950 . S
C1163 C1165 1.327 . S
C1163 C1169 1.429 . S
C1164 C1156 1.574 . S
C1164 H1159 0.949 . S
C1164 C1170 1.368 . S
C1165 C1149 1.349 . S
C1165 H1157 0.950 . S
C1165 C1163 1.327 . S
C1166 C1154 1.349 . S
C1166 H1160 0.950 . S
C1166 C1167 1.327 . S
C1167 H1161 0.950 . S
C1167 C1166 1.327 . S
C1167 C1171 1.429 . S
C1168 C1151 1.574 . S
C1168 H1162 0.949 . S
C1168 C1172 1.368 . S
C1169 C1150 1.429 . S
C1169 C1163 1.429 . S
C1169 C1170 1.523 . S
C1170 C1151 1.368 . S
C1170 C1164 1.368 . S
C1170 C1169 1.523 . S
C1171 C1155 1.429 . S
C1171 C1167 1.429 . S
C1171 C1172 1.523 . S
C1172 C1156 1.368 . S
C1172 C1168 1.368 . S
C1172 C1171 1.523 . S
H1173 C1148 0.950 . S
H1174 C1150 0.950 . S
H1175 C1151 0.949 . S
H1176 C1153 0.950 . S
H1177 C1155 0.950 . S
C1178 C1179 1.349 . S
C1178 C1180 1.327 . S
C1178 H1203 0.950 . S
C1179 C1178 1.349 . S
C1179 C1195 1.349 . S
C1180 C1178 1.327 . S
C1180 C1199 1.429 . S
C1180 H1204 0.950 . S
C1181 C1198 1.574 . S
C1181 C1200 1.368 . S
C1181 H1205 0.949 . S
H1182 C1186 0.949 . S
C1183 C1184 1.349 . S
C1183 C1185 1.327 . S
C1183 H1206 0.950 . S
C1184 C1183 1.349 . S
C1184 C1196 1.349 . S
C1185 C1183 1.327 . S
C1185 C1201 1.429 . S
C1185 H1207 0.950 . S
C1186 H1182 0.949 . S
C1186 C1194 1.574 . S
C1186 C1202 1.368 . S
H1187 C1195 0.950 . S
H1188 C1193 0.950 . S
H1189 C1194 0.949 . S
H1190 C1196 0.950 . S
H1191 C1197 0.950 . S
H1192 C1198 0.949 . S
C1193 H1188 0.950 . S
C1193 C1195 1.327 . S
C1193 C1199 1.429 . S
C1194 C1186 1.574 . S
C1194 H1189 0.949 . S
C1194 C1200 1.368 . S
C1195 C1179 1.349 . S
C1195 H1187 0.950 . S
C1195 C1193 1.327 . S
C1196 C1184 1.349 . S
C1196 H1190 0.950 . S
C1196 C1197 1.327 . S
C1197 H1191 0.950 . S
C1197 C1196 1.327 . S
C1197 C1201 1.429 . S
C1198 C1181 1.574 . S
C1198 H1192 0.949 . S
C1198 C1202 1.368 . S
C1199 C1180 1.429 . S
C1199 C1193 1.429 . S
C1199 C1200 1.523 . S
C1200 C1181 1.368 . S
C1200 C1194 1.368 . S
C1200 C1199 1.523 . S
C1201 C1185 1.429 . S
C1201 C1197 1.429 . S
C1201 C1202 1.523 . S
C1202 C1186 1.368 . S
C1202 C1198 1.368 . S
C1202 C1201 1.523 . S
H1203 C1178 0.950 . S
H1204 C1180 0.950 . S
H1205 C1181 0.949 . S
H1206 C1183 0.950 . S
H1207 C1185 0.950 . S
C1208 C1209 1.349 . S
C1208 C1210 1.327 . S
C1208 H1233 0.950 . S
C1209 C1208 1.349 . S
C1209 C1225 1.349 . S
C1210 C1208 1.327 . S
C1210 C1229 1.429 . S
C1210 H1234 0.950 . S
C1211 C1228 1.574 . S
C1211 C1230 1.368 . S
C1211 H1235 0.949 . S
H1212 C1216 0.949 . S
C1213 C1214 1.349 . S
C1213 C1215 1.327 . S
C1213 H1236 0.950 . S
C1214 C1213 1.349 . S
C1214 C1226 1.349 . S
C1215 C1213 1.327 . S
C1215 C1231 1.429 . S
C1215 H1237 0.950 . S
C1216 H1212 0.949 . S
C1216 C1224 1.574 . S
C1216 C1232 1.368 . S
H1217 C1225 0.950 . S
H1218 C1223 0.950 . S
H1219 C1224 0.949 . S
H1220 C1226 0.950 . S
H1221 C1227 0.950 . S
H1222 C1228 0.949 . S
C1223 H1218 0.950 . S
C1223 C1225 1.327 . S
C1223 C1229 1.429 . S
C1224 C1216 1.574 . S
C1224 H1219 0.949 . S
C1224 C1230 1.368 . S
C1225 C1209 1.349 . S
C1225 H1217 0.950 . S
C1225 C1223 1.327 . S
C1226 C1214 1.349 . S
C1226 H1220 0.950 . S
C1226 C1227 1.327 . S
C1227 H1221 0.950 . S
C1227 C1226 1.327 . S
C1227 C1231 1.429 . S
C1228 C1211 1.574 . S
C1228 H1222 0.949 . S
C1228 C1232 1.368 . S
C1229 C1210 1.429 . S
C1229 C1223 1.429 . S
C1229 C1230 1.523 . S
C1230 C1211 1.368 . S
C1230 C1224 1.368 . S
C1230 C1229 1.523 . S
C1231 C1215 1.429 . S
C1231 C1227 1.429 . S
C1231 C1232 1.523 . S
C1232 C1216 1.368 . S
C1232 C1228 1.368 . S
C1232 C1231 1.523 . S
H1233 C1208 0.950 . S
H1234 C1210 0.950 . S
H1235 C1211 0.949 . S
H1236 C1213 0.950 . S
H1237 C1215 0.950 . S
C1238 C1239 1.349 . S
C1238 C1240 1.327 . S
C1238 H1263 0.950 1_554 S
C1239 C1238 1.349 . S
C1239 C1255 1.349 . S
C1240 C1238 1.327 . S
C1240 C1259 1.429 . S
C1240 H1264 0.950 . S
C1241 C1258 1.574 . S
C1241 C1260 1.368 . S
C1241 H1265 0.949 . S
H1242 C1246 0.949 . S
C1243 C1244 1.349 . S
C1243 C1245 1.327 . S
C1243 H1266 0.950 . S
C1244 C1243 1.349 . S
C1244 C1256 1.349 . S
C1245 C1243 1.327 . S
C1245 C1261 1.429 . S
C1245 H1267 0.950 . S
C1246 H1242 0.949 . S
C1246 C1254 1.574 . S
C1246 C1262 1.368 . S
H1247 C1255 0.950 . S
H1248 C1253 0.950 . S
H1249 C1254 0.949 . S
H1250 C1256 0.950 . S
H1251 C1257 0.950 . S
H1252 C1258 0.949 . S
C1253 H1248 0.950 . S
C1253 C1255 1.327 . S
C1253 C1259 1.429 . S
C1254 C1246 1.574 . S
C1254 H1249 0.949 . S
C1254 C1260 1.368 . S
C1255 C1239 1.349 . S
C1255 H1247 0.950 . S
C1255 C1253 1.327 . S
C1256 C1244 1.349 . S
C1256 H1250 0.950 . S
C1256 C1257 1.327 . S
C1257 H1251 0.950 . S
C1257 C1256 1.327 . S
C1257 C1261 1.429 . S
C1258 C1241 1.574 . S
C1258 H1252 0.949 . S
C1258 C1262 1.368 . S
C1259 C1240 1.429 . S
C1259 C1253 1.429 . S
C1259 C1260 1.523 . S
C1260 C1241 1.368 . S
C1260 C1254 1.368 . S
C1260 C1259 1.523 . S
C1261 C1245 1.429 . S
C1261 C1257 1.429 . S
C1261 C1262 1.523 . S
C1262 C1246 1.368 . S
C1262 C1258 1.368 . S
C1262 C1261 1.523 . S
H1263 C1238 0.950 1_556 S
H1264 C1240 0.950 . S
H1265 C1241 0.949 . S
H1266 C1243 0.950 . S
H1267 C1245 0.950 . S
C1268 C1269 1.349 . S
C1268 C1270 1.327 . S
C1268 H1293 0.950 . S
C1269 C1268 1.349 . S
C1269 C1285 1.349 . S
C1270 C1268 1.327 . S
C1270 C1289 1.429 . S
C1270 H1294 0.950 . S
C1271 C1288 1.574 . S
C1271 C1290 1.368 . S
C1271 H1295 0.949 . S
H1272 C1276 0.949 . S
C1273 C1274 1.349 . S
C1273 C1275 1.327 . S
C1273 H1296 0.950 . S
C1274 C1273 1.349 . S
C1274 C1286 1.349 1_556 S
C1275 C1273 1.327 . S
C1275 C1291 1.429 . S
C1275 H1297 0.950 . S
C1276 H1272 0.949 . S
C1276 C1284 1.574 . S
C1276 C1292 1.368 . S
H1277 C1285 0.950 . S
H1278 C1283 0.950 . S
H1279 C1284 0.949 . S
H1280 C1286 0.950 . S
H1281 C1287 0.950 . S
H1282 C1288 0.949 . S
C1283 H1278 0.950 . S
C1283 C1285 1.327 . S
C1283 C1289 1.429 . S
C1284 C1276 1.574 . S
C1284 H1279 0.949 . S
C1284 C1290 1.368 . S
C1285 C1269 1.349 . S
C1285 H1277 0.950 . S
C1285 C1283 1.327 . S
C1286 C1274 1.349 1_554 S
C1286 H1280 0.950 . S
C1286 C1287 1.327 1_554 S
C1287 H1281 0.950 . S
C1287 C1286 1.327 1_556 S
C1287 C1291 1.429 . S
C1288 C1271 1.574 . S
C1288 H1282 0.949 . S
C1288 C1292 1.368 . S
C1289 C1270 1.429 . S
C1289 C1283 1.429 . S
C1289 C1290 1.523 . S
C1290 C1271 1.368 . S
C1290 C1284 1.368 . S
C1290 C1289 1.523 . S
C1291 C1275 1.429 . S
C1291 C1287 1.429 . S
C1291 C1292 1.523 . S
C1292 C1276 1.368 . S
C1292 C1288 1.368 . S
C1292 C1291 1.523 . S
H1293 C1268 0.950 . S
H1294 C1270 0.950 . S
H1295 C1271 0.949 . S
H1296 C1273 0.950 . S
H1297 C1275 0.950 . S
C1298 C1299 1.349 . S
C1298 C1300 1.327 . S
C1298 H1323 0.950 . S
C1299 C1298 1.349 . S
C1299 C1315 1.349 . S
C1300 C1298 1.327 . S
C1300 C1319 1.429 . S
C1300 H1324 0.950 . S
C1301 C1318 1.574 . S
C1301 C1320 1.368 . S
C1301 H1325 0.949 . S
H1302 C1306 0.949 . S
C1303 C1304 1.349 . S
C1303 C1305 1.327 . S
C1303 H1326 0.950 . S
C1304 C1303 1.349 . S
C1304 C1316 1.349 . S
C1305 C1303 1.327 . S
C1305 C1321 1.429 . S
C1305 H1327 0.950 . S
C1306 H1302 0.949 . S
C1306 C1314 1.574 . S
C1306 C1322 1.368 . S
H1307 C1315 0.950 . S
H1308 C1313 0.950 . S
H1309 C1314 0.949 . S
H1310 C1316 0.950 . S
H1311 C1317 0.950 . S
H1312 C1318 0.949 . S
C1313 H1308 0.950 . S
C1313 C1315 1.327 . S
C1313 C1319 1.429 . S
C1314 C1306 1.574 . S
C1314 H1309 0.949 . S
C1314 C1320 1.368 . S
C1315 C1299 1.349 . S
C1315 H1307 0.950 . S
C1315 C1313 1.327 . S
C1316 C1304 1.349 . S
C1316 H1310 0.950 . S
C1316 C1317 1.327 . S
C1317 H1311 0.950 . S
C1317 C1316 1.327 . S
C1317 C1321 1.429 . S
C1318 C1301 1.574 . S
C1318 H1312 0.949 . S
C1318 C1322 1.368 . S
C1319 C1300 1.429 . S
C1319 C1313 1.429 . S
C1319 C1320 1.523 . S
C1320 C1301 1.368 . S
C1320 C1314 1.368 . S
C1320 C1319 1.523 . S
C1321 C1305 1.429 . S
C1321 C1317 1.429 . S
C1321 C1322 1.523 . S
C1322 C1306 1.368 . S
C1322 C1318 1.368 . S
C1322 C1321 1.523 . S
H1323 C1298 0.950 . S
H1324 C1300 0.950 . S
H1325 C1301 0.949 . S
H1326 C1303 0.950 . S
H1327 C1305 0.950 . S
C1328 C1329 1.349 . S
C1328 C1330 1.327 . S
C1328 H1353 0.950 1_554 S
C1329 C1328 1.349 . S
C1329 C1345 1.349 . S
C1330 C1328 1.327 . S
C1330 C1349 1.429 . S
C1330 H1354 0.950 . S
C1331 C1348 1.574 . S
C1331 C1350 1.368 . S
C1331 H1355 0.949 . S
H1332 C1336 0.949 . S
C1333 C1334 1.349 . S
C1333 C1335 1.327 . S
C1333 H1356 0.950 . S
C1334 C1333 1.349 . S
C1334 C1346 1.349 . S
C1335 C1333 1.327 . S
C1335 C1351 1.429 . S
C1335 H1357 0.950 . S
C1336 H1332 0.949 . S
C1336 C1344 1.574 . S
C1336 C1352 1.368 . S
H1337 C1345 0.950 . S
H1338 C1343 0.950 . S
H1339 C1344 0.949 . S
H1340 C1346 0.950 . S
H1341 C1347 0.950 . S
H1342 C1348 0.949 . S
C1343 H1338 0.950 . S
C1343 C1345 1.327 . S
C1343 C1349 1.429 . S
C1344 C1336 1.574 . S
C1344 H1339 0.949 . S
C1344 C1350 1.368 . S
C1345 C1329 1.349 . S
C1345 H1337 0.950 . S
C1345 C1343 1.327 . S
C1346 C1334 1.349 . S
C1346 H1340 0.950 . S
C1346 C1347 1.327 . S
C1347 H1341 0.950 . S
C1347 C1346 1.327 . S
C1347 C1351 1.429 . S
C1348 C1331 1.574 . S
C1348 H1342 0.949 . S
C1348 C1352 1.368 . S
C1349 C1330 1.429 . S
C1349 C1343 1.429 . S
C1349 C1350 1.523 . S
C1350 C1331 1.368 . S
C1350 C1344 1.368 . S
C1350 C1349 1.523 . S
C1351 C1335 1.429 . S
C1351 C1347 1.429 . S
C1351 C1352 1.523 . S
C1352 C1336 1.368 . S
C1352 C1348 1.368 . S
C1352 C1351 1.523 . S
H1353 C1328 0.950 1_556 S
H1354 C1330 0.950 . S
H1355 C1331 0.949 . S
H1356 C1333 0.950 . S
H1357 C1335 0.950 . S
C1358 C1359 1.349 . S
C1358 C1360 1.327 . S
C1358 H1383 0.950 . S
C1359 C1358 1.349 . S
C1359 C1375 1.349 . S
C1360 C1358 1.327 . S
C1360 C1379 1.429 . S
C1360 H1384 0.950 . S
C1361 C1378 1.574 . S
C1361 C1380 1.368 . S
C1361 H1385 0.949 . S
H1362 C1366 0.949 . S
C1363 C1364 1.349 . S
C1363 C1365 1.327 . S
C1363 H1386 0.950 . S
C1364 C1363 1.349 . S
C1364 C1376 1.349 . S
C1365 C1363 1.327 . S
C1365 C1381 1.429 . S
C1365 H1387 0.950 . S
C1366 H1362 0.949 . S
C1366 C1374 1.574 . S
C1366 C1382 1.368 . S
H1367 C1375 0.950 . S
H1368 C1373 0.950 . S
H1369 C1374 0.949 . S
H1370 C1376 0.950 . S
H1371 C1377 0.950 . S
H1372 C1378 0.949 . S
C1373 H1368 0.950 . S
C1373 C1375 1.327 . S
C1373 C1379 1.429 . S
C1374 C1366 1.574 . S
C1374 H1369 0.949 . S
C1374 C1380 1.368 . S
C1375 C1359 1.349 . S
C1375 H1367 0.950 . S
C1375 C1373 1.327 . S
C1376 C1364 1.349 . S
C1376 H1370 0.950 . S
C1376 C1377 1.327 . S
C1377 H1371 0.950 . S
C1377 C1376 1.327 . S
C1377 C1381 1.429 . S
C1378 C1361 1.574 . S
C1378 H1372 0.949 . S
C1378 C1382 1.368 . S
C1379 C1360 1.429 . S
C1379 C1373 1.429 . S
C1379 C1380 1.523 . S
C1380 C1361 1.368 . S
C1380 C1374 1.368 . S
C1380 C1379 1.523 . S
C1381 C1365 1.429 . S
C1381 C1377 1.429 . S
C1381 C1382 1.523 . S
C1382 C1366 1.368 . S
C1382 C1378 1.368 . S
C1382 C1381 1.523 . S
H1383 C1358 0.950 . S
H1384 C1360 0.950 . S
H1385 C1361 0.949 . S
H1386 C1363 0.950 . S
H1387 C1365 0.950 . S
C1388 C1389 1.349 . S
C1388 C1390 1.327 . S
C1388 H1413 0.950 . S
C1389 C1388 1.349 . S
C1389 C1405 1.349 . S
C1390 C1388 1.327 . S
C1390 C1409 1.429 . S
C1390 H1414 0.950 . S
C1391 C1408 1.574 . S
C1391 C1410 1.368 . S
C1391 H1415 0.949 . S
H1392 C1396 0.949 . S
C1393 C1394 1.349 . S
C1393 C1395 1.327 . S
C1393 H1416 0.950 . S
C1394 C1393 1.349 . S
C1394 C1406 1.349 . S
C1395 C1393 1.327 . S
C1395 C1411 1.429 . S
C1395 H1417 0.950 . S
C1396 H1392 0.949 . S
C1396 C1404 1.574 . S
C1396 C1412 1.368 . S
H1397 C1405 0.950 . S
H1398 C1403 0.950 . S
H1399 C1404 0.949 . S
H1400 C1406 0.950 . S
H1401 C1407 0.950 . S
H1402 C1408 0.949 . S
C1403 H1398 0.950 . S
C1403 C1405 1.327 . S
C1403 C1409 1.429 . S
C1404 C1396 1.574 . S
C1404 H1399 0.949 . S
C1404 C1410 1.368 . S
C1405 C1389 1.349 . S
C1405 H1397 0.950 . S
C1405 C1403 1.327 . S
C1406 C1394 1.349 . S
C1406 H1400 0.950 . S
C1406 C1407 1.327 . S
C1407 H1401 0.950 . S
C1407 C1406 1.327 . S
C1407 C1411 1.429 . S
C1408 C1391 1.574 . S
C1408 H1402 0.949 . S
C1408 C1412 1.368 . S
C1409 C1390 1.429 . S
C1409 C1403 1.429 . S
C1409 C1410 1.523 . S
C1410 C1391 1.368 . S
C1410 C1404 1.368 . S
C1410 C1409 1.523 . S
C1411 C1395 1.429 . S
C1411 C1407 1.429 . S
C1411 C1412 1.523 . S
C1412 C1396 1.368 . S
C1412 C1408 1.368 . S
C1412 C1411 1.523 . S
H1413 C1388 0.950 . S
H1414 C1390 0.950 . S
H1415 C1391 0.949 . S
H1416 C1393 0.950 . S
H1417 C1395 0.950 . S
C1418 C1419 1.349 . S
C1418 C1420 1.327 . S
C1418 H1443 0.950 . S
C1419 C1418 1.349 . S
C1419 C1435 1.349 . S
C1420 C1418 1.327 . S
C1420 C1439 1.429 . S
C1420 H1444 0.950 . S
C1421 C1438 1.574 . S
C1421 C1440 1.368 . S
C1421 H1445 0.949 . S
H1422 C1426 0.949 . S
C1423 C1424 1.349 . S
C1423 C1425 1.327 . S
C1423 H1446 0.950 . S
C1424 C1423 1.349 . S
C1424 C1436 1.349 1_556 S
C1425 C1423 1.327 . S
C1425 C1441 1.429 . S
C1425 H1447 0.950 . S
C1426 H1422 0.949 . S
C1426 C1434 1.574 . S
C1426 C1442 1.368 . S
H1427 C1435 0.950 . S
H1428 C1433 0.950 . S
H1429 C1434 0.949 . S
H1430 C1436 0.950 . S
H1431 C1437 0.950 . S
H1432 C1438 0.949 . S
C1433 H1428 0.950 . S
C1433 C1435 1.327 . S
C1433 C1439 1.429 . S
C1434 C1426 1.574 . S
C1434 H1429 0.949 . S
C1434 C1440 1.368 . S
C1435 C1419 1.349 . S
C1435 H1427 0.950 . S
C1435 C1433 1.327 . S
C1436 C1424 1.349 1_554 S
C1436 H1430 0.950 . S
C1436 C1437 1.327 1_554 S
C1437 H1431 0.950 . S
C1437 C1436 1.327 1_556 S
C1437 C1441 1.429 . S
C1438 C1421 1.574 . S
C1438 H1432 0.949 . S
C1438 C1442 1.368 . S
C1439 C1420 1.429 . S
C1439 C1433 1.429 . S
C1439 C1440 1.523 . S
C1440 C1421 1.368 . S
C1440 C1434 1.368 . S
C1440 C1439 1.523 . S
C1441 C1425 1.429 . S
C1441 C1437 1.429 . S
C1441 C1442 1.523 . S
C1442 C1426 1.368 . S
C1442 C1438 1.368 . S
C1442 C1441 1.523 . S
H1443 C1418 0.950 . S
H1444 C1420 0.950 . S
H1445 C1421 0.949 . S
H1446 C1423 0.950 . S
H1447 C1425 0.950 . S
C1448 C1449 1.349 . S
C1448 C1450 1.327 . S
C1448 H1473 0.950 . S
C1449 C1448 1.349 . S
C1449 C1465 1.349 . S
C1450 C1448 1.327 . S
C1450 C1469 1.429 . S
C1450 H1474 0.950 . S
C1451 C1468 1.574 . S
C1451 C1470 1.368 . S
C1451 H1475 0.949 . S
H1452 C1456 0.949 . S
C1453 C1454 1.349 1_554 S
C1453 C1455 1.327 1_554 S
C1453 H1476 0.950 . S
C1454 C1453 1.349 1_556 S
C1454 C1466 1.349 . S
C1455 C1453 1.327 1_556 S
C1455 C1471 1.429 . S
C1455 H1477 0.950 . S
C1456 H1452 0.949 . S
C1456 C1464 1.574 . S
C1456 C1472 1.368 . S
H1457 C1465 0.950 . S
H1458 C1463 0.950 . S
H1459 C1464 0.949 . S
H1460 C1466 0.950 . S
H1461 C1467 0.950 . S
H1462 C1468 0.949 . S
C1463 H1458 0.950 . S
C1463 C1465 1.327 . S
C1463 C1469 1.429 . S
C1464 C1456 1.574 . S
C1464 H1459 0.949 . S
C1464 C1470 1.368 . S
C1465 C1449 1.349 . S
C1465 H1457 0.950 . S
C1465 C1463 1.327 . S
C1466 C1454 1.349 . S
C1466 H1460 0.950 . S
C1466 C1467 1.327 . S
C1467 H1461 0.950 . S
C1467 C1466 1.327 . S
C1467 C1471 1.429 . S
C1468 C1451 1.574 . S
C1468 H1462 0.949 . S
C1468 C1472 1.368 . S
C1469 C1450 1.429 . S
C1469 C1463 1.429 . S
C1469 C1470 1.523 . S
C1470 C1451 1.368 . S
C1470 C1464 1.368 . S
C1470 C1469 1.523 . S
C1471 C1455 1.429 . S
C1471 C1467 1.429 . S
C1471 C1472 1.523 . S
C1472 C1456 1.368 . S
C1472 C1468 1.368 . S
C1472 C1471 1.523 . S
H1473 C1448 0.950 . S
H1474 C1450 0.950 . S
H1475 C1451 0.949 . S
H1476 C1453 0.950 . S
H1477 C1455 0.950 . S
C1478 C1479 1.349 . S
C1478 C1480 1.327 . S
C1478 H1503 0.950 . S
C1479 C1478 1.349 . S
C1479 C1495 1.349 . S
C1480 C1478 1.327 . S
C1480 C1499 1.429 . S
C1480 H1504 0.950 . S
C1481 C1498 1.574 . S
C1481 C1500 1.368 . S
C1481 H1505 0.949 . S
H1482 C1486 0.949 . S
C1483 C1484 1.349 . S
C1483 C1485 1.327 . S
C1483 H1506 0.950 . S
C1484 C1483 1.349 . S
C1484 C1496 1.349 . S
C1485 C1483 1.327 . S
C1485 C1501 1.429 . S
C1485 H1507 0.950 . S
C1486 H1482 0.949 . S
C1486 C1494 1.574 . S
C1486 C1502 1.368 . S
H1487 C1495 0.950 . S
H1488 C1493 0.950 . S
H1489 C1494 0.949 . S
H1490 C1496 0.950 . S
H1491 C1497 0.950 . S
H1492 C1498 0.949 . S
C1493 H1488 0.950 . S
C1493 C1495 1.327 . S
C1493 C1499 1.429 . S
C1494 C1486 1.574 . S
C1494 H1489 0.949 . S
C1494 C1500 1.368 . S
C1495 C1479 1.349 . S
C1495 H1487 0.950 . S
C1495 C1493 1.327 . S
C1496 C1484 1.349 . S
C1496 H1490 0.950 . S
C1496 C1497 1.327 . S
C1497 H1491 0.950 . S
C1497 C1496 1.327 . S
C1497 C1501 1.429 . S
C1498 C1481 1.574 . S
C1498 H1492 0.949 . S
C1498 C1502 1.368 . S
C1499 C1480 1.429 . S
C1499 C1493 1.429 . S
C1499 C1500 1.523 . S
C1500 C1481 1.368 . S
C1500 C1494 1.368 . S
C1500 C1499 1.523 . S
C1501 C1485 1.429 . S
C1501 C1497 1.429 . S
C1501 C1502 1.523 . S
C1502 C1486 1.368 . S
C1502 C1498 1.368 . S
C1502 C1501 1.523 . S
H1503 C1478 0.950 . S
H1504 C1480 0.950 . S
H1505 C1481 0.949 . S
H1506 C1483 0.950 . S
H1507 C1485 0.950 . S
C1508 C1509 1.349 . S
C1508 C1510 1.327 . S
C1508 H1533 0.950 . S
C1509 C1508 1.349 . S
C1509 C1525 1.349 . S
C1510 C1508 1.327 . S
C1510 C1529 1.429 . S
C1510 H1534 0.950 . S
C1511 C1528 1.574 . S
C1511 C1530 1.368 . S
C1511 H1535 0.949 . S
H1512 C1516 0.949 . S
C1513 C1514 1.349 . S
C1513 C1515 1.327 . S
C1513 H1536 0.950 . S
C1514 C1513 1.349 . S
C1514 C1526 1.349 . S
C1515 C1513 1.327 . S
C1515 C1531 1.429 . S
C1515 H1537 0.950 . S
C1516 H1512 0.949 . S
C1516 C1524 1.574 . S
C1516 C1532 1.368 . S
H1517 C1525 0.950 . S
H1518 C1523 0.950 . S
H1519 C1524 0.949 . S
H1520 C1526 0.950 . S
H1521 C1527 0.950 . S
H1522 C1528 0.949 . S
C1523 H1518 0.950 . S
C1523 C1525 1.327 . S
C1523 C1529 1.429 . S
C1524 C1516 1.574 . S
C1524 H1519 0.949 . S
C1524 C1530 1.368 . S
C1525 C1509 1.349 . S
C1525 H1517 0.950 . S
C1525 C1523 1.327 . S
C1526 C1514 1.349 . S
C1526 H1520 0.950 . S
C1526 C1527 1.327 . S
C1527 H1521 0.950 . S
C1527 C1526 1.327 . S
C1527 C1531 1.429 . S
C1528 C1511 1.574 . S
C1528 H1522 0.949 . S
C1528 C1532 1.368 . S
C1529 C1510 1.429 . S
C1529 C1523 1.429 . S
C1529 C1530 1.523 . S
C1530 C1511 1.368 . S
C1530 C1524 1.368 . S
C1530 C1529 1.523 . S
C1531 C1515 1.429 . S
C1531 C1527 1.429 . S
C1531 C1532 1.523 . S
C1532 C1516 1.368 . S
C1532 C1528 1.368 . S
C1532 C1531 1.523 . S
H1533 C1508 0.950 . S
H1534 C1510 0.950 . S
H1535 C1511 0.949 . S
H1536 C1513 0.950 . S
H1537 C1515 0.950 . S
C1538 C1539 1.349 . S
C1538 C1540 1.327 . S
C1538 H1563 0.950 . S
C1539 C1538 1.349 . S
C1539 C1555 1.349 . S
C1540 C1538 1.327 . S
C1540 C1559 1.429 . S
C1540 H1564 0.950 . S
C1541 C1558 1.574 . S
C1541 C1560 1.368 . S
C1541 H1565 0.949 . S
H1542 C1546 0.949 . S
C1543 C1544 1.349 . S
C1543 C1545 1.327 . S
C1543 H1566 0.950 . S
C1544 C1543 1.349 . S
C1544 C1556 1.349 . S
C1545 C1543 1.327 . S
C1545 C1561 1.429 . S
C1545 H1567 0.950 . S
C1546 H1542 0.949 . S
C1546 C1554 1.574 . S
C1546 C1562 1.368 . S
H1547 C1555 0.950 . S
H1548 C1553 0.950 . S
H1549 C1554 0.949 . S
H1550 C1556 0.950 . S
H1551 C1557 0.950 . S
H1552 C1558 0.949 . S
C1553 H1548 0.950 . S
C1553 C1555 1.327 . S
C1553 C1559 1.429 . S
C1554 C1546 1.574 . S
C1554 H1549 0.949 . S
C1554 C1560 1.368 . S
C1555 C1539 1.349 . S
C1555 H1547 0.950 . S
C1555 C1553 1.327 . S
C1556 C1544 1.349 . S
C1556 H1550 0.950 . S
C1556 C1557 1.327 . S
C1557 H1551 0.950 . S
C1557 C1556 1.327 . S
C1557 C1561 1.429 . S
C1558 C1541 1.574 . S
C1558 H1552 0.949 . S
C1558 C1562 1.368 . S
C1559 C1540 1.429 . S
C1559 C1553 1.429 . S
C1559 C1560 1.523 . S
C1560 C1541 1.368 . S
C1560 C1554 1.368 . S
C1560 C1559 1.523 . S
C1561 C1545 1.429 . S
C1561 C1557 1.429 . S
C1561 C1562 1.523 . S
C1562 C1546 1.368 . S
C1562 C1558 1.368 . S
C1562 C1561 1.523 . S
H1563 C1538 0.950 . S
H1564 C1540 0.950 . S
H1565 C1541 0.949 . S
H1566 C1543 0.950 . S
H1567 C1545 0.950 . S
C1568 C1569 1.349 . S
C1568 C1570 1.327 . S
C1568 H1593 0.950 . S
C1569 C1568 1.349 . S
C1569 C1585 1.349 . S
C1570 C1568 1.327 . S
C1570 C1589 1.429 . S
C1570 H1594 0.950 . S
C1571 C1588 1.574 . S
C1571 C1590 1.368 . S
C1571 H1595 0.949 . S
H1572 C1576 0.949 . S
C1573 C1574 1.349 . S
C1573 C1575 1.327 . S
C1573 H1596 0.950 . S
C1574 C1573 1.349 . S
C1574 C1586 1.349 . S
C1575 C1573 1.327 . S
C1575 C1591 1.429 . S
C1575 H1597 0.950 . S
C1576 H1572 0.949 . S
C1576 C1584 1.574 . S
C1576 C1592 1.368 . S
H1577 C1585 0.950 . S
H1578 C1583 0.950 . S
H1579 C1584 0.949 . S
H1580 C1586 0.950 . S
H1581 C1587 0.950 . S
H1582 C1588 0.949 . S
C1583 H1578 0.950 . S
C1583 C1585 1.327 . S
C1583 C1589 1.429 . S
C1584 C1576 1.574 . S
C1584 H1579 0.949 . S
C1584 C1590 1.368 . S
C1585 C1569 1.349 . S
C1585 H1577 0.950 . S
C1585 C1583 1.327 . S
C1586 C1574 1.349 . S
C1586 H1580 0.950 . S
C1586 C1587 1.327 . S
C1587 H1581 0.950 . S
C1587 C1586 1.327 . S
C1587 C1591 1.429 . S
C1588 C1571 1.574 . S
C1588 H1582 0.949 . S
C1588 C1592 1.368 . S
C1589 C1570 1.429 . S
C1589 C1583 1.429 . S
C1589 C1590 1.523 . S
C1590 C1571 1.368 . S
C1590 C1584 1.368 . S
C1590 C1589 1.523 . S
C1591 C1575 1.429 . S
C1591 C1587 1.429 . S
C1591 C1592 1.523 . S
C1592 C1576 1.368 . S
C1592 C1588 1.368 . S
C1592 C1591 1.523 . S
H1593 C1568 0.950 . S
H1594 C1570 0.950 . S
H1595 C1571 0.949 . S
H1596 C1573 0.950 . S
H1597 C1575 0.950 . S
C1598 C1599 1.349 . S
C1598 C1600 1.327 . S
C1598 H1623 0.950 . S
C1599 C1598 1.349 . S
C1599 C1615 1.349 . S
C1600 C1598 1.327 . S
C1600 C1619 1.429 . S
C1600 H1624 0.950 . S
C1601 C1618 1.574 1_565 S
C1601 C1620 1.368 . S
C1601 H1625 0.949 . S
H1602 C1606 0.949 . S
C1603 C1604 1.349 . S
C1603 C1605 1.327 . S
C1603 H1626 0.950 . S
C1604 C1603 1.349 . S
C1604 C1616 1.349 . S
C1605 C1603 1.327 . S
C1605 C1621 1.429 . S
C1605 H1627 0.950 . S
C1606 H1602 0.949 . S
C1606 C1614 1.574 1_545 S
C1606 C1622 1.368 . S
H1607 C1615 0.950 . S
H1608 C1613 0.950 . S
H1609 C1614 0.949 . S
H1610 C1616 0.950 . S
H1611 C1617 0.950 . S
H1612 C1618 0.949 . S
C1613 H1608 0.950 . S
C1613 C1615 1.327 . S
C1613 C1619 1.429 . S
C1614 C1606 1.574 1_565 S
C1614 H1609 0.949 . S
C1614 C1620 1.368 . S
C1615 C1599 1.349 . S
C1615 H1607 0.950 . S
C1615 C1613 1.327 . S
C1616 C1604 1.349 . S
C1616 H1610 0.950 . S
C1616 C1617 1.327 . S
C1617 H1611 0.950 . S
C1617 C1616 1.327 . S
C1617 C1621 1.429 . S
C1618 C1601 1.574 1_545 S
C1618 H1612 0.949 . S
C1618 C1622 1.368 . S
C1619 C1600 1.429 . S
C1619 C1613 1.429 . S
C1619 C1620 1.523 . S
C1620 C1601 1.368 . S
C1620 C1614 1.368 . S
C1620 C1619 1.523 . S
C1621 C1605 1.429 . S
C1621 C1617 1.429 . S
C1621 C1622 1.523 . S
C1622 C1606 1.368 . S
C1622 C1618 1.368 . S
C1622 C1621 1.523 . S
H1623 C1598 0.950 . S
H1624 C1600 0.950 . S
H1625 C1601 0.949 . S
H1626 C1603 0.950 . S
H1627 C1605 0.950 . S
C1628 C1629 1.349 . S
C1628 C1630 1.327 . S
C1628 H1653 0.950 . S
C1629 C1628 1.349 . S
C1629 C1645 1.349 . S
C1630 C1628 1.327 . S
C1630 C1649 1.429 . S
C1630 H1654 0.950 . S
C1631 C1648 1.574 . S
C1631 C1650 1.368 . S
C1631 H1655 0.949 . S
H1632 C1636 0.949 . S
C1633 C1634 1.349 . S
C1633 C1635 1.327 . S
C1633 H1656 0.950 . S
C1634 C1633 1.349 . S
C1634 C1646 1.349 . S
C1635 C1633 1.327 . S
C1635 C1651 1.429 . S
C1635 H1657 0.950 . S
C1636 H1632 0.949 . S
C1636 C1644 1.574 . S
C1636 C1652 1.368 . S
H1637 C1645 0.950 . S
H1638 C1643 0.950 . S
H1639 C1644 0.949 . S
H1640 C1646 0.950 . S
H1641 C1647 0.950 . S
H1642 C1648 0.949 . S
C1643 H1638 0.950 . S
C1643 C1645 1.327 . S
C1643 C1649 1.429 . S
C1644 C1636 1.574 . S
C1644 H1639 0.949 . S
C1644 C1650 1.368 1_556 S
C1645 C1629 1.349 . S
C1645 H1637 0.950 . S
C1645 C1643 1.327 . S
C1646 C1634 1.349 . S
C1646 H1640 0.950 . S
C1646 C1647 1.327 . S
C1647 H1641 0.950 . S
C1647 C1646 1.327 . S
C1647 C1651 1.429 . S
C1648 C1631 1.574 . S
C1648 H1642 0.949 . S
C1648 C1652 1.368 1_554 S
C1649 C1630 1.429 . S
C1649 C1643 1.429 . S
C1649 C1650 1.523 . S
C1650 C1631 1.368 . S
C1650 C1644 1.368 1_554 S
C1650 C1649 1.523 . S
C1651 C1635 1.429 . S
C1651 C1647 1.429 . S
C1651 C1652 1.523 . S
C1652 C1636 1.368 . S
C1652 C1648 1.368 1_556 S
C1652 C1651 1.523 . S
H1653 C1628 0.950 . S
H1654 C1630 0.950 . S
H1655 C1631 0.949 . S
H1656 C1633 0.950 . S
H1657 C1635 0.950 . S
C1658 C1659 1.349 . S
C1658 C1660 1.327 . S
C1658 H1683 0.950 . S
C1659 C1658 1.349 . S
C1659 C1675 1.349 . S
C1660 C1658 1.327 . S
C1660 C1679 1.429 . S
C1660 H1684 0.950 . S
C1661 C1678 1.574 1_545 S
C1661 C1680 1.368 . S
C1661 H1685 0.949 . S
H1662 C1666 0.949 . S
C1663 C1664 1.349 . S
C1663 C1665 1.327 . S
C1663 H1686 0.950 . S
C1664 C1663 1.349 . S
C1664 C1676 1.349 . S
C1665 C1663 1.327 . S
C1665 C1681 1.429 . S
C1665 H1687 0.950 . S
C1666 H1662 0.949 . S
C1666 C1674 1.574 1_565 S
C1666 C1682 1.368 . S
H1667 C1675 0.950 . S
H1668 C1673 0.950 . S
H1669 C1674 0.949 . S
H1670 C1676 0.950 . S
H1671 C1677 0.950 . S
H1672 C1678 0.949 . S
C1673 H1668 0.950 . S
C1673 C1675 1.327 . S
C1673 C1679 1.429 . S
C1674 C1666 1.574 1_545 S
C1674 H1669 0.949 . S
C1674 C1680 1.368 . S
C1675 C1659 1.349 . S
C1675 H1667 0.950 . S
C1675 C1673 1.327 . S
C1676 C1664 1.349 . S
C1676 H1670 0.950 . S
C1676 C1677 1.327 . S
C1677 H1671 0.950 . S
C1677 C1676 1.327 . S
C1677 C1681 1.429 . S
C1678 C1661 1.574 1_565 S
C1678 H1672 0.949 . S
C1678 C1682 1.368 . S
C1679 C1660 1.429 . S
C1679 C1673 1.429 . S
C1679 C1680 1.523 . S
C1680 C1661 1.368 . S
C1680 C1674 1.368 . S
C1680 C1679 1.523 . S
C1681 C1665 1.429 . S
C1681 C1677 1.429 . S
C1681 C1682 1.523 . S
C1682 C1666 1.368 . S
C1682 C1678 1.368 . S
C1682 C1681 1.523 . S
H1683 C1658 0.950 . S
H1684 C1660 0.950 . S
H1685 C1661 0.949 . S
H1686 C1663 0.950 . S
H1687 C1665 0.950 . S
C1688 C1689 1.349 . S
C1688 C1690 1.327 . S
C1688 H1713 0.950 . S
C1689 C1688 1.349 . S
C1689 C1705 1.349 . S
C1690 C1688 1.327 . S
C1690 C1709 1.429 . S
C1690 H1714 0.950 . S
C1691 C1708 1.574 . S
C1691 C1710 1.368 . S
C1691 H1715 0.949 . S
H1692 C1696 0.949 . S
C1693 C1694 1.349 . S
C1693 C1695 1.327 . S
C1693 H1716 0.950 . S
C1694 C1693 1.349 . S
C1694 C1706 1.349 . S
C1695 C1693 1.327 . S
C1695 C1711 1.429 . S
C1695 H1717 0.950 . S
C1696 H1692 0.949 . S
C1696 C1704 1.574 . S
C1696 C1712 1.368 . S
H1697 C1705 0.950 . S
H1698 C1703 0.950 . S
H1699 C1704 0.949 . S
H1700 C1706 0.950 . S
H1701 C1707 0.950 . S
H1702 C1708 0.949 . S
C1703 H1698 0.950 . S
C1703 C1705 1.327 . S
C1703 C1709 1.429 . S
C1704 C1696 1.574 . S
C1704 H1699 0.949 . S
C1704 C1710 1.368 . S
C1705 C1689 1.349 . S
C1705 H1697 0.950 . S
C1705 C1703 1.327 . S
C1706 C1694 1.349 . S
C1706 H1700 0.950 . S
C1706 C1707 1.327 . S
C1707 H1701 0.950 . S
C1707 C1706 1.327 . S
C1707 C1711 1.429 . S
C1708 C1691 1.574 . S
C1708 H1702 0.949 . S
C1708 C1712 1.368 . S
C1709 C1690 1.429 . S
C1709 C1703 1.429 . S
C1709 C1710 1.523 . S
C1710 C1691 1.368 . S
C1710 C1704 1.368 . S
C1710 C1709 1.523 . S
C1711 C1695 1.429 . S
C1711 C1707 1.429 . S
C1711 C1712 1.523 . S
C1712 C1696 1.368 . S
C1712 C1708 1.368 . S
C1712 C1711 1.523 . S
H1713 C1688 0.950 . S
H1714 C1690 0.950 . S
H1715 C1691 0.949 . S
H1716 C1693 0.950 . S
H1717 C1695 0.950 . S
C1718 C1719 1.349 . S
C1718 C1720 1.327 . S
C1718 H1743 0.950 . S
C1719 C1718 1.349 . S
C1719 C1735 1.349 . S
C1720 C1718 1.327 . S
C1720 C1739 1.429 . S
C1720 H1744 0.950 . S
C1721 C1738 1.574 1_545 S
C1721 C1740 1.368 . S
C1721 H1745 0.949 . S
H1722 C1726 0.949 . S
C1723 C1724 1.349 . S
C1723 C1725 1.327 . S
C1723 H1746 0.950 . S
C1724 C1723 1.349 . S
C1724 C1736 1.349 . S
C1725 C1723 1.327 . S
C1725 C1741 1.429 . S
C1725 H1747 0.950 . S
C1726 H1722 0.949 . S
C1726 C1734 1.574 1_565 S
C1726 C1742 1.368 . S
H1727 C1735 0.950 . S
H1728 C1733 0.950 . S
H1729 C1734 0.949 . S
H1730 C1736 0.950 . S
H1731 C1737 0.950 . S
H1732 C1738 0.949 . S
C1733 H1728 0.950 . S
C1733 C1735 1.327 . S
C1733 C1739 1.429 . S
C1734 C1726 1.574 1_545 S
C1734 H1729 0.949 . S
C1734 C1740 1.368 . S
C1735 C1719 1.349 . S
C1735 H1727 0.950 . S
C1735 C1733 1.327 . S
C1736 C1724 1.349 . S
C1736 H1730 0.950 . S
C1736 C1737 1.327 . S
C1737 H1731 0.950 . S
C1737 C1736 1.327 . S
C1737 C1741 1.429 . S
C1738 C1721 1.574 1_565 S
C1738 H1732 0.949 . S
C1738 C1742 1.368 . S
C1739 C1720 1.429 . S
C1739 C1733 1.429 . S
C1739 C1740 1.523 . S
C1740 C1721 1.368 . S
C1740 C1734 1.368 . S
C1740 C1739 1.523 . S
C1741 C1725 1.429 . S
C1741 C1737 1.429 . S
C1741 C1742 1.523 . S
C1742 C1726 1.368 . S
C1742 C1738 1.368 . S
C1742 C1741 1.523 . S
H1743 C1718 0.950 . S
H1744 C1720 0.950 . S
H1745 C1721 0.949 . S
H1746 C1723 0.950 . S
H1747 C1725 0.950 . S
C1748 C1749 1.349 . S
C1748 C1750 1.327 . S
C1748 H1773 0.950 . S
C1749 C1748 1.349 . S
C1749 C1765 1.349 . S
C1750 C1748 1.327 . S
C1750 C1769 1.429 . S
C1750 H1774 0.950 . S
C1751 C1768 1.574 . S
C1751 C1770 1.368 1_556 S
C1751 H1775 0.949 . S
H1752 C1756 0.949 . S
C1753 C1754 1.349 . S
C1753 C1755 1.327 . S
C1753 H1776 0.950 . S
C1754 C1753 1.349 . S
C1754 C1766 1.349 . S
C1755 C1753 1.327 . S
C1755 C1771 1.429 . S
C1755 H1777 0.950 . S
C1756 H1752 0.949 . S
C1756 C1764 1.574 . S
C1756 C1772 1.368 1_554 S
H1757 C1765 0.950 . S
H1758 C1763 0.950 . S
H1759 C1764 0.949 . S
H1760 C1766 0.950 . S
H1761 C1767 0.950 . S
H1762 C1768 0.949 . S
C1763 H1758 0.950 . S
C1763 C1765 1.327 . S
C1763 C1769 1.429 . S
C1764 C1756 1.574 . S
C1764 H1759 0.949 . S
C1764 C1770 1.368 . S
C1765 C1749 1.349 . S
C1765 H1757 0.950 . S
C1765 C1763 1.327 . S
C1766 C1754 1.349 . S
C1766 H1760 0.950 . S
C1766 C1767 1.327 . S
C1767 H1761 0.950 . S
C1767 C1766 1.327 . S
C1767 C1771 1.429 . S
C1768 C1751 1.574 . S
C1768 H1762 0.949 . S
C1768 C1772 1.368 . S
C1769 C1750 1.429 . S
C1769 C1763 1.429 . S
C1769 C1770 1.523 . S
C1770 C1751 1.368 1_554 S
C1770 C1764 1.368 . S
C1770 C1769 1.523 . S
C1771 C1755 1.429 . S
C1771 C1767 1.429 . S
C1771 C1772 1.523 . S
C1772 C1756 1.368 1_556 S
C1772 C1768 1.368 . S
C1772 C1771 1.523 . S
H1773 C1748 0.950 . S
H1774 C1750 0.950 . S
H1775 C1751 0.949 . S
H1776 C1753 0.950 . S
H1777 C1755 0.950 . S
C1778 C1779 1.349 . S
C1778 C1780 1.327 . S
C1778 H1803 0.950 . S
C1779 C1778 1.349 . S
C1779 C1795 1.349 . S
C1780 C1778 1.327 . S
C1780 C1799 1.429 . S
C1780 H1804 0.950 . S
C1781 C1798 1.574 1_545 S
C1781 C1800 1.368 . S
C1781 H1805 0.949 . S
H1782 C1786 0.949 . S
C1783 C1784 1.349 . S
C1783 C1785 1.327 . S
C1783 H1806 0.950 . S
C1784 C1783 1.349 . S
C1784 C1796 1.349 . S
C1785 C1783 1.327 . S
C1785 C1801 1.429 . S
C1785 H1807 0.950 . S
C1786 H1782 0.949 . S
C1786 C1794 1.574 1_565 S
C1786 C1802 1.368 . S
H1787 C1795 0.950 . S
H1788 C1793 0.950 . S
H1789 C1794 0.949 . S
H1790 C1796 0.950 . S
H1791 C1797 0.950 . S
H1792 C1798 0.949 . S
C1793 H1788 0.950 . S
C1793 C1795 1.327 . S
C1793 C1799 1.429 . S
C1794 C1786 1.574 1_545 S
C1794 H1789 0.949 . S
C1794 C1800 1.368 . S
C1795 C1779 1.349 . S
C1795 H1787 0.950 . S
C1795 C1793 1.327 . S
C1796 C1784 1.349 . S
C1796 H1790 0.950 . S
C1796 C1797 1.327 . S
C1797 H1791 0.950 . S
C1797 C1796 1.327 . S
C1797 C1801 1.429 . S
C1798 C1781 1.574 1_565 S
C1798 H1792 0.949 . S
C1798 C1802 1.368 . S
C1799 C1780 1.429 . S
C1799 C1793 1.429 . S
C1799 C1800 1.523 . S
C1800 C1781 1.368 . S
C1800 C1794 1.368 . S
C1800 C1799 1.523 . S
C1801 C1785 1.429 . S
C1801 C1797 1.429 . S
C1801 C1802 1.523 . S
C1802 C1786 1.368 . S
C1802 C1798 1.368 . S
C1802 C1801 1.523 . S
H1803 C1778 0.950 . S
H1804 C1780 0.950 . S
H1805 C1781 0.949 . S
H1806 C1783 0.950 . S
H1807 C1785 0.950 . S
C1808 C1809 1.349 . S
C1808 C1810 1.327 . S
C1808 H1833 0.950 . S
C1809 C1808 1.349 . S
C1809 C1825 1.349 . S
C1810 C1808 1.327 . S
C1810 C1829 1.429 . S
C1810 H1834 0.950 . S
C1811 C1828 1.574 . S
C1811 C1830 1.368 1_554 S
C1811 H1835 0.949 . S
H1812 C1816 0.949 . S
C1813 C1814 1.349 . S
C1813 C1815 1.327 . S
C1813 H1836 0.950 . S
C1814 C1813 1.349 . S
C1814 C1826 1.349 . S
C1815 C1813 1.327 . S
C1815 C1831 1.429 . S
C1815 H1837 0.950 . S
C1816 H1812 0.949 . S
C1816 C1824 1.574 . S
C1816 C1832 1.368 1_556 S
H1817 C1825 0.950 . S
H1818 C1823 0.950 . S
H1819 C1824 0.949 . S
H1820 C1826 0.950 . S
H1821 C1827 0.950 . S
H1822 C1828 0.949 . S
C1823 H1818 0.950 . S
C1823 C1825 1.327 . S
C1823 C1829 1.429 . S
C1824 C1816 1.574 . S
C1824 H1819 0.949 . S
C1824 C1830 1.368 . S
C1825 C1809 1.349 . S
C1825 H1817 0.950 . S
C1825 C1823 1.327 . S
C1826 C1814 1.349 . S
C1826 H1820 0.950 . S
C1826 C1827 1.327 . S
C1827 H1821 0.950 . S
C1827 C1826 1.327 . S
C1827 C1831 1.429 . S
C1828 C1811 1.574 . S
C1828 H1822 0.949 . S
C1828 C1832 1.368 . S
C1829 C1810 1.429 . S
C1829 C1823 1.429 . S
C1829 C1830 1.523 . S
C1830 C1811 1.368 1_556 S
C1830 C1824 1.368 . S
C1830 C1829 1.523 . S
C1831 C1815 1.429 . S
C1831 C1827 1.429 . S
C1831 C1832 1.523 . S
C1832 C1816 1.368 1_554 S
C1832 C1828 1.368 . S
C1832 C1831 1.523 . S
H1833 C1808 0.950 . S
H1834 C1810 0.950 . S
H1835 C1811 0.949 . S
H1836 C1813 0.950 . S
H1837 C1815 0.950 . S
C1838 C1839 1.349 . S
C1838 C1840 1.327 . S
C1838 H1863 0.950 . S
C1839 C1838 1.349 . S
C1839 C1855 1.349 . S
C1840 C1838 1.327 . S
C1840 C1859 1.429 . S
C1840 H1864 0.950 . S
C1841 C1858 1.574 . S
C1841 C1860 1.368 . S
C1841 H1865 0.949 . S
H1842 C1846 0.949 . S
C1843 C1844 1.349 . S
C1843 C1845 1.327 . S
C1843 H1866 0.950 . S
C1844 C1843 1.349 . S
C1844 C1856 1.349 . S
C1845 C1843 1.327 . S
C1845 C1861 1.429 . S
C1845 H1867 0.950 . S
C1846 H1842 0.949 . S
C1846 C1854 1.574 . S
C1846 C1862 1.368 . S
H1847 C1855 0.950 . S
H1848 C1853 0.950 . S
H1849 C1854 0.949 . S
H1850 C1856 0.950 . S
H1851 C1857 0.950 . S
H1852 C1858 0.949 . S
C1853 H1848 0.950 . S
C1853 C1855 1.327 . S
C1853 C1859 1.429 . S
C1854 C1846 1.574 . S
C1854 H1849 0.949 . S
C1854 C1860 1.368 . S
C1855 C1839 1.349 . S
C1855 H1847 0.950 . S
C1855 C1853 1.327 . S
C1856 C1844 1.349 . S
C1856 H1850 0.950 . S
C1856 C1857 1.327 . S
C1857 H1851 0.950 . S
C1857 C1856 1.327 . S
C1857 C1861 1.429 . S
C1858 C1841 1.574 . S
C1858 H1852 0.949 . S
C1858 C1862 1.368 . S
C1859 C1840 1.429 . S
C1859 C1853 1.429 . S
C1859 C1860 1.523 . S
C1860 C1841 1.368 . S
C1860 C1854 1.368 . S
C1860 C1859 1.523 . S
C1861 C1845 1.429 . S
C1861 C1857 1.429 . S
C1861 C1862 1.523 . S
C1862 C1846 1.368 . S
C1862 C1858 1.368 . S
C1862 C1861 1.523 . S
H1863 C1838 0.950 . S
H1864 C1840 0.950 . S
H1865 C1841 0.949 . S
H1866 C1843 0.950 . S
H1867 C1845 0.950 . S
C1868 C1869 1.349 . S
C1868 C1870 1.327 . S
C1868 H1893 0.950 . S
C1869 C1868 1.349 . S
C1869 C1885 1.349 . S
C1870 C1868 1.327 . S
C1870 C1889 1.429 . S
C1870 H1894 0.950 . S
C1871 C1888 1.574 . S
C1871 C1890 1.368 . S
C1871 H1895 0.949 . S
H1872 C1876 0.949 . S
C1873 C1874 1.349 . S
C1873 C1875 1.327 . S
C1873 H1896 0.950 . S
C1874 C1873 1.349 . S
C1874 C1886 1.349 . S
C1875 C1873 1.327 . S
C1875 C1891 1.429 . S
C1875 H1897 0.950 . S
C1876 H1872 0.949 . S
C1876 C1884 1.574 . S
C1876 C1892 1.368 . S
H1877 C1885 0.950 . S
H1878 C1883 0.950 . S
H1879 C1884 0.949 . S
H1880 C1886 0.950 . S
H1881 C1887 0.950 . S
H1882 C1888 0.949 . S
C1883 H1878 0.950 . S
C1883 C1885 1.327 . S
C1883 C1889 1.429 . S
C1884 C1876 1.574 . S
C1884 H1879 0.949 . S
C1884 C1890 1.368 . S
C1885 C1869 1.349 . S
C1885 H1877 0.950 . S
C1885 C1883 1.327 . S
C1886 C1874 1.349 . S
C1886 H1880 0.950 . S
C1886 C1887 1.327 . S
C1887 H1881 0.950 . S
C1887 C1886 1.327 . S
C1887 C1891 1.429 . S
C1888 C1871 1.574 . S
C1888 H1882 0.949 . S
C1888 C1892 1.368 . S
C1889 C1870 1.429 . S
C1889 C1883 1.429 . S
C1889 C1890 1.523 . S
C1890 C1871 1.368 . S
C1890 C1884 1.368 . S
C1890 C1889 1.523 . S
C1891 C1875 1.429 . S
C1891 C1887 1.429 . S
C1891 C1892 1.523 . S
C1892 C1876 1.368 . S
C1892 C1888 1.368 . S
C1892 C1891 1.523 . S
H1893 C1868 0.950 . S
H1894 C1870 0.950 . S
H1895 C1871 0.949 . S
H1896 C1873 0.950 . S
H1897 C1875 0.950 . S
C1898 C1899 1.349 . S
C1898 C1900 1.327 . S
C1898 H1923 0.950 . S
C1899 C1898 1.349 . S
C1899 C1915 1.349 . S
C1900 C1898 1.327 . S
C1900 C1919 1.429 . S
C1900 H1924 0.950 . S
C1901 C1918 1.574 . S
C1901 C1920 1.368 . S
C1901 H1925 0.949 . S
H1902 C1906 0.949 . S
C1903 C1904 1.349 . S
C1903 C1905 1.327 . S
C1903 H1926 0.950 . S
C1904 C1903 1.349 . S
C1904 C1916 1.349 . S
C1905 C1903 1.327 . S
C1905 C1921 1.429 . S
C1905 H1927 0.950 . S
C1906 H1902 0.949 . S
C1906 C1914 1.574 . S
C1906 C1922 1.368 . S
H1907 C1915 0.950 . S
H1908 C1913 0.950 . S
H1909 C1914 0.949 . S
H1910 C1916 0.950 . S
H1911 C1917 0.950 . S
H1912 C1918 0.949 . S
C1913 H1908 0.950 . S
C1913 C1915 1.327 . S
C1913 C1919 1.429 . S
C1914 C1906 1.574 . S
C1914 H1909 0.949 . S
C1914 C1920 1.368 . S
C1915 C1899 1.349 . S
C1915 H1907 0.950 . S
C1915 C1913 1.327 . S
C1916 C1904 1.349 . S
C1916 H1910 0.950 . S
C1916 C1917 1.327 . S
C1917 H1911 0.950 . S
C1917 C1916 1.327 . S
C1917 C1921 1.429 . S
C1918 C1901 1.574 . S
C1918 H1912 0.949 . S
C1918 C1922 1.368 . S
C1919 C1900 1.429 . S
C1919 C1913 1.429 . S
C1919 C1920 1.523 . S
C1920 C1901 1.368 . S
C1920 C1914 1.368 . S
C1920 C1919 1.523 . S
C1921 C1905 1.429 . S
C1921 C1917 1.429 . S
C1921 C1922 1.523 . S
C1922 C1906 1.368 . S
C1922 C1918 1.368 . S
C1922 C1921 1.523 . S
H1923 C1898 0.950 . S
H1924 C1900 0.950 . S
H1925 C1901 0.949 . S
H1926 C1903 0.950 . S
H1927 C1905 0.950 . S
C1928 C1929 1.349 . S
C1928 C1930 1.327 . S
C1928 H1953 0.950 . S
C1929 C1928 1.349 . S
C1929 C1945 1.349 . S
C1930 C1928 1.327 . S
C1930 C1949 1.429 . S
C1930 H1954 0.950 . S
C1931 C1948 1.574 . S
C1931 C1950 1.368 . S
C1931 H1955 0.949 . S
H1932 C1936 0.949 . S
C1933 C1934 1.349 . S
C1933 C1935 1.327 . S
C1933 H1956 0.950 . S
C1934 C1933 1.349 . S
C1934 C1946 1.349 . S
C1935 C1933 1.327 . S
C1935 C1951 1.429 . S
C1935 H1957 0.950 . S
C1936 H1932 0.949 . S
C1936 C1944 1.574 . S
C1936 C1952 1.368 . S
H1937 C1945 0.950 . S
H1938 C1943 0.950 . S
H1939 C1944 0.949 . S
H1940 C1946 0.950 . S
H1941 C1947 0.950 . S
H1942 C1948 0.949 . S
C1943 H1938 0.950 . S
C1943 C1945 1.327 . S
C1943 C1949 1.429 . S
C1944 C1936 1.574 . S
C1944 H1939 0.949 . S
C1944 C1950 1.368 1_554 S
C1945 C1929 1.349 . S
C1945 H1937 0.950 . S
C1945 C1943 1.327 . S
C1946 C1934 1.349 . S
C1946 H1940 0.950 . S
C1946 C1947 1.327 . S
C1947 H1941 0.950 . S
C1947 C1946 1.327 . S
C1947 C1951 1.429 . S
C1948 C1931 1.574 . S
C1948 H1942 0.949 . S
C1948 C1952 1.368 1_556 S
C1949 C1930 1.429 . S
C1949 C1943 1.429 . S
C1949 C1950 1.523 . S
C1950 C1931 1.368 . S
C1950 C1944 1.368 1_556 S
C1950 C1949 1.523 . S
C1951 C1935 1.429 . S
C1951 C1947 1.429 . S
C1951 C1952 1.523 . S
C1952 C1936 1.368 . S
C1952 C1948 1.368 1_554 S
C1952 C1951 1.523 . S
H1953 C1928 0.950 . S
H1954 C1930 0.950 . S
H1955 C1931 0.949 . S
H1956 C1933 0.950 . S
H1957 C1935 0.950 . S
C1958 C1959 1.349 . S
C1958 C1960 1.327 . S
C1958 H1983 0.950 . S
C1959 C1958 1.349 . S
C1959 C1975 1.349 . S
C1960 C1958 1.327 . S
C1960 C1979 1.429 . S
C1960 H1984 0.950 . S
C1961 C1978 1.574 . S
C1961 C1980 1.368 . S
C1961 H1985 0.949 . S
H1962 C1966 0.949 . S
C1963 C1964 1.349 . S
C1963 C1965 1.327 . S
C1963 H1986 0.950 . S
C1964 C1963 1.349 . S
C1964 C1976 1.349 . S
C1965 C1963 1.327 . S
C1965 C1981 1.429 . S
C1965 H1987 0.950 . S
C1966 H1962 0.949 . S
C1966 C1974 1.574 . S
C1966 C1982 1.368 . S
H1967 C1975 0.950 . S
H1968 C1973 0.950 . S
H1969 C1974 0.949 . S
H1970 C1976 0.950 . S
H1971 C1977 0.950 . S
H1972 C1978 0.949 . S
C1973 H1968 0.950 . S
C1973 C1975 1.327 . S
C1973 C1979 1.429 . S
C1974 C1966 1.574 . S
C1974 H1969 0.949 . S
C1974 C1980 1.368 . S
C1975 C1959 1.349 . S
C1975 H1967 0.950 . S
C1975 C1973 1.327 . S
C1976 C1964 1.349 . S
C1976 H1970 0.950 . S
C1976 C1977 1.327 . S
C1977 H1971 0.950 . S
C1977 C1976 1.327 . S
C1977 C1981 1.429 . S
C1978 C1961 1.574 . S
C1978 H1972 0.949 . S
C1978 C1982 1.368 . S
C1979 C1960 1.429 . S
C1979 C1973 1.429 . S
C1979 C1980 1.523 . S
C1980 C1961 1.368 . S
C1980 C1974 1.368 . S
C1980 C1979 1.523 . S
C1981 C1965 1.429 . S
C1981 C1977 1.429 . S
C1981 C1982 1.523 . S
C1982 C1966 1.368 . S
C1982 C1978 1.368 . S
C1982 C1981 1.523 . S
H1983 C1958 0.950 . S
H1984 C1960 0.950 . S
H1985 C1961 0.949 . S
H1986 C1963 0.950 . S
H1987 C1965 0.950 . S
C1988 C1989 1.349 . S
C1988 C1990 1.327 . S
C1988 H2013 0.950 . S
C1989 C1988 1.349 . S
C1989 C2005 1.349 . S
C1990 C1988 1.327 . S
C1990 C2009 1.429 . S
C1990 H2014 0.950 . S
C1991 C2008 1.574 . S
C1991 C2010 1.368 . S
C1991 H2015 0.949 . S
H1992 C1996 0.949 . S
C1993 C1994 1.349 . S
C1993 C1995 1.327 . S
C1993 H2016 0.950 . S
C1994 C1993 1.349 . S
C1994 C2006 1.349 . S
C1995 C1993 1.327 . S
C1995 C2011 1.429 . S
C1995 H2017 0.950 . S
C1996 H1992 0.949 . S
C1996 C2004 1.574 . S
C1996 C2012 1.368 . S
H1997 C2005 0.950 . S
H1998 C2003 0.950 . S
H1999 C2004 0.949 . S
H2000 C2006 0.950 . S
H2001 C2007 0.950 . S
H2002 C2008 0.949 . S
C2003 H1998 0.950 . S
C2003 C2005 1.327 . S
C2003 C2009 1.429 . S
C2004 C1996 1.574 . S
C2004 H1999 0.949 . S
C2004 C2010 1.368 . S
C2005 C1989 1.349 . S
C2005 H1997 0.950 . S
C2005 C2003 1.327 . S
C2006 C1994 1.349 . S
C2006 H2000 0.950 . S
C2006 C2007 1.327 . S
C2007 H2001 0.950 . S
C2007 C2006 1.327 . S
C2007 C2011 1.429 . S
C2008 C1991 1.574 . S
C2008 H2002 0.949 . S
C2008 C2012 1.368 . S
C2009 C1990 1.429 . S
C2009 C2003 1.429 . S
C2009 C2010 1.523 . S
C2010 C1991 1.368 . S
C2010 C2004 1.368 . S
C2010 C2009 1.523 . S
C2011 C1995 1.429 . S
C2011 C2007 1.429 . S
C2011 C2012 1.523 . S
C2012 C1996 1.368 . S
C2012 C2008 1.368 . S
C2012 C2011 1.523 . S
H2013 C1988 0.950 . S
H2014 C1990 0.950 . S
H2015 C1991 0.949 . S
H2016 C1993 0.950 . S
H2017 C1995 0.950 . S
C2018 C2019 1.349 . S
C2018 C2020 1.327 . S
C2018 H2043 0.950 . S
C2019 C2018 1.349 . S
C2019 C2035 1.349 . S
C2020 C2018 1.327 . S
C2020 C2039 1.429 . S
C2020 H2044 0.950 . S
C2021 C2038 1.574 . S
C2021 C2040 1.368 . S
C2021 H2045 0.949 . S
H2022 C2026 0.949 . S
C2023 C2024 1.349 . S
C2023 C2025 1.327 . S
C2023 H2046 0.950 . S
C2024 C2023 1.349 . S
C2024 C2036 1.349 . S
C2025 C2023 1.327 . S
C2025 C2041 1.429 . S
C2025 H2047 0.950 . S
C2026 H2022 0.949 . S
C2026 C2034 1.574 . S
C2026 C2042 1.368 . S
H2027 C2035 0.950 . S
H2028 C2033 0.950 . S
H2029 C2034 0.949 . S
H2030 C2036 0.950 . S
H2031 C2037 0.950 . S
H2032 C2038 0.949 . S
C2033 H2028 0.950 . S
C2033 C2035 1.327 . S
C2033 C2039 1.429 . S
C2034 C2026 1.574 . S
C2034 H2029 0.949 . S
C2034 C2040 1.368 . S
C2035 C2019 1.349 . S
C2035 H2027 0.950 . S
C2035 C2033 1.327 . S
C2036 C2024 1.349 . S
C2036 H2030 0.950 . S
C2036 C2037 1.327 . S
C2037 H2031 0.950 . S
C2037 C2036 1.327 . S
C2037 C2041 1.429 . S
C2038 C2021 1.574 . S
C2038 H2032 0.949 . S
C2038 C2042 1.368 . S
C2039 C2020 1.429 . S
C2039 C2033 1.429 . S
C2039 C2040 1.523 . S
C2040 C2021 1.368 . S
C2040 C2034 1.368 . S
C2040 C2039 1.523 . S
C2041 C2025 1.429 . S
C2041 C2037 1.429 . S
C2041 C2042 1.523 . S
C2042 C2026 1.368 . S
C2042 C2038 1.368 . S
C2042 C2041 1.523 . S
H2043 C2018 0.950 . S
H2044 C2020 0.950 . S
H2045 C2021 0.949 . S
H2046 C2023 0.950 . S
H2047 C2025 0.950 . S
C2048 C2049 1.349 . S
C2048 C2050 1.327 . S
C2048 H2073 0.950 . S
C2049 C2048 1.349 . S
C2049 C2065 1.349 . S
C2050 C2048 1.327 . S
C2050 C2069 1.429 . S
C2050 H2074 0.950 . S
C2051 C2068 1.574 . S
C2051 C2070 1.368 . S
C2051 H2075 0.949 . S
H2052 C2056 0.949 . S
C2053 C2054 1.349 . S
C2053 C2055 1.327 . S
C2053 H2076 0.950 . S
C2054 C2053 1.349 . S
C2054 C2066 1.349 1_556 S
C2055 C2053 1.327 . S
C2055 C2071 1.429 1_556 S
C2055 H2077 0.950 . S
C2056 H2052 0.949 . S
C2056 C2064 1.574 . S
C2056 C2072 1.368 . S
H2057 C2065 0.950 . S
H2058 C2063 0.950 . S
H2059 C2064 0.949 . S
H2060 C2066 0.950 . S
H2061 C2067 0.950 . S
H2062 C2068 0.949 . S
C2063 H2058 0.950 . S
C2063 C2065 1.327 . S
C2063 C2069 1.429 . S
C2064 C2056 1.574 . S
C2064 H2059 0.949 . S
C2064 C2070 1.368 . S
C2065 C2049 1.349 . S
C2065 H2057 0.950 . S
C2065 C2063 1.327 . S
C2066 C2054 1.349 1_554 S
C2066 H2060 0.950 . S
C2066 C2067 1.327 . S
C2067 H2061 0.950 . S
C2067 C2066 1.327 . S
C2067 C2071 1.429 . S
C2068 C2051 1.574 . S
C2068 H2062 0.949 . S
C2068 C2072 1.368 . S
C2069 C2050 1.429 . S
C2069 C2063 1.429 . S
C2069 C2070 1.523 . S
C2070 C2051 1.368 . S
C2070 C2064 1.368 . S
C2070 C2069 1.523 . S
C2071 C2055 1.429 1_554 S
C2071 C2067 1.429 . S
C2071 C2072 1.523 . S
C2072 C2056 1.368 . S
C2072 C2068 1.368 . S
C2072 C2071 1.523 . S
H2073 C2048 0.950 . S
H2074 C2050 0.950 . S
H2075 C2051 0.949 . S
H2076 C2053 0.950 . S
H2077 C2055 0.950 . S
C2078 C2079 1.349 . S
C2078 C2080 1.327 . S
C2078 H2103 0.950 . S
C2079 C2078 1.349 . S
C2079 C2095 1.349 . S
C2080 C2078 1.327 . S
C2080 C2099 1.429 . S
C2080 H2104 0.950 . S
C2081 C2098 1.574 . S
C2081 C2100 1.368 . S
C2081 H2105 0.949 . S
H2082 C2086 0.949 . S
C2083 C2084 1.349 . S
C2083 C2085 1.327 . S
C2083 H2106 0.950 . S
C2084 C2083 1.349 . S
C2084 C2096 1.349 . S
C2085 C2083 1.327 . S
C2085 C2101 1.429 . S
C2085 H2107 0.950 . S
C2086 H2082 0.949 . S
C2086 C2094 1.574 1_455 S
C2086 C2102 1.368 . S
H2087 C2095 0.950 . S
H2088 C2093 0.950 . S
H2089 C2094 0.949 . S
H2090 C2096 0.950 . S
H2091 C2097 0.950 . S
H2092 C2098 0.949 . S
C2093 H2088 0.950 . S
C2093 C2095 1.327 . S
C2093 C2099 1.429 . S
C2094 C2086 1.574 1_655 S
C2094 H2089 0.949 . S
C2094 C2100 1.368 . S
C2095 C2079 1.349 . S
C2095 H2087 0.950 . S
C2095 C2093 1.327 . S
C2096 C2084 1.349 . S
C2096 H2090 0.950 . S
C2096 C2097 1.327 . S
C2097 H2091 0.950 . S
C2097 C2096 1.327 . S
C2097 C2101 1.429 . S
C2098 C2081 1.574 . S
C2098 H2092 0.949 . S
C2098 C2102 1.368 1_655 S
C2099 C2080 1.429 . S
C2099 C2093 1.429 . S
C2099 C2100 1.523 . S
C2100 C2081 1.368 . S
C2100 C2094 1.368 . S
C2100 C2099 1.523 . S
C2101 C2085 1.429 . S
C2101 C2097 1.429 . S
C2101 C2102 1.523 . S
C2102 C2086 1.368 . S
C2102 C2098 1.368 1_455 S
C2102 C2101 1.523 . S
H2103 C2078 0.950 . S
H2104 C2080 0.950 . S
H2105 C2081 0.949 . S
H2106 C2083 0.950 . S
H2107 C2085 0.950 . S
C2108 C2109 1.349 . S
C2108 C2110 1.327 . S
C2108 H2133 0.950 . S
C2109 C2108 1.349 . S
C2109 C2125 1.349 . S
C2110 C2108 1.327 . S
C2110 C2129 1.429 . S
C2110 H2134 0.950 . S
C2111 C2128 1.574 . S
C2111 C2130 1.368 . S
C2111 H2135 0.949 . S
H2112 C2116 0.949 . S
C2113 C2114 1.349 . S
C2113 C2115 1.327 . S
C2113 H2136 0.950 . S
C2114 C2113 1.349 . S
C2114 C2126 1.349 . S
C2115 C2113 1.327 . S
C2115 C2131 1.429 . S
C2115 H2137 0.950 . S
C2116 H2112 0.949 . S
C2116 C2124 1.574 . S
C2116 C2132 1.368 . S
H2117 C2125 0.950 . S
H2118 C2123 0.950 . S
H2119 C2124 0.949 . S
H2120 C2126 0.950 . S
H2121 C2127 0.950 . S
H2122 C2128 0.949 . S
C2123 H2118 0.950 . S
C2123 C2125 1.327 . S
C2123 C2129 1.429 . S
C2124 C2116 1.574 . S
C2124 H2119 0.949 . S
C2124 C2130 1.368 . S
C2125 C2109 1.349 . S
C2125 H2117 0.950 . S
C2125 C2123 1.327 . S
C2126 C2114 1.349 . S
C2126 H2120 0.950 . S
C2126 C2127 1.327 . S
C2127 H2121 0.950 . S
C2127 C2126 1.327 . S
C2127 C2131 1.429 . S
C2128 C2111 1.574 . S
C2128 H2122 0.949 . S
C2128 C2132 1.368 . S
C2129 C2110 1.429 . S
C2129 C2123 1.429 . S
C2129 C2130 1.523 . S
C2130 C2111 1.368 . S
C2130 C2124 1.368 . S
C2130 C2129 1.523 . S
C2131 C2115 1.429 . S
C2131 C2127 1.429 . S
C2131 C2132 1.523 . S
C2132 C2116 1.368 . S
C2132 C2128 1.368 . S
C2132 C2131 1.523 . S
H2133 C2108 0.950 . S
H2134 C2110 0.950 . S
H2135 C2111 0.949 . S
H2136 C2113 0.950 . S
H2137 C2115 0.950 . S
C2138 C2139 1.349 . S
C2138 C2140 1.327 . S
C2138 H2163 0.950 1_556 S
C2139 C2138 1.349 . S
C2139 C2155 1.349 . S
C2140 C2138 1.327 . S
C2140 C2159 1.429 . S
C2140 H2164 0.950 . S
C2141 C2158 1.574 . S
C2141 C2160 1.368 . S
C2141 H2165 0.949 . S
H2142 C2146 0.949 . S
C2143 C2144 1.349 . S
C2143 C2145 1.327 . S
C2143 H2166 0.950 . S
C2144 C2143 1.349 . S
C2144 C2156 1.349 . S
C2145 C2143 1.327 . S
C2145 C2161 1.429 . S
C2145 H2167 0.950 . S
C2146 H2142 0.949 . S
C2146 C2154 1.574 . S
C2146 C2162 1.368 . S
H2147 C2155 0.950 . S
H2148 C2153 0.950 . S
H2149 C2154 0.949 . S
H2150 C2156 0.950 . S
H2151 C2157 0.950 . S
H2152 C2158 0.949 . S
C2153 H2148 0.950 . S
C2153 C2155 1.327 . S
C2153 C2159 1.429 . S
C2154 C2146 1.574 . S
C2154 H2149 0.949 . S
C2154 C2160 1.368 . S
C2155 C2139 1.349 . S
C2155 H2147 0.950 . S
C2155 C2153 1.327 . S
C2156 C2144 1.349 . S
C2156 H2150 0.950 . S
C2156 C2157 1.327 . S
C2157 H2151 0.950 . S
C2157 C2156 1.327 . S
C2157 C2161 1.429 . S
C2158 C2141 1.574 . S
C2158 H2152 0.949 . S
C2158 C2162 1.368 . S
C2159 C2140 1.429 . S
C2159 C2153 1.429 . S
C2159 C2160 1.523 . S
C2160 C2141 1.368 . S
C2160 C2154 1.368 . S
C2160 C2159 1.523 . S
C2161 C2145 1.429 . S
C2161 C2157 1.429 . S
C2161 C2162 1.523 . S
C2162 C2146 1.368 . S
C2162 C2158 1.368 . S
C2162 C2161 1.523 . S
H2163 C2138 0.950 1_554 S
H2164 C2140 0.950 . S
H2165 C2141 0.949 . S
H2166 C2143 0.950 . S
H2167 C2145 0.950 . S
C2168 C2169 1.349 . S
C2168 C2170 1.327 . S
C2168 H2193 0.950 . S
C2169 C2168 1.349 . S
C2169 C2185 1.349 . S
C2170 C2168 1.327 . S
C2170 C2189 1.429 . S
C2170 H2194 0.950 . S
C2171 C2188 1.574 . S
C2171 C2190 1.368 . S
C2171 H2195 0.949 . S
H2172 C2176 0.949 . S
C2173 C2174 1.349 . S
C2173 C2175 1.327 . S
C2173 H2196 0.950 . S
C2174 C2173 1.349 . S
C2174 C2186 1.349 . S
C2175 C2173 1.327 . S
C2175 C2191 1.429 . S
C2175 H2197 0.950 . S
C2176 H2172 0.949 . S
C2176 C2184 1.574 . S
C2176 C2192 1.368 . S
H2177 C2185 0.950 . S
H2178 C2183 0.950 . S
H2179 C2184 0.949 . S
H2180 C2186 0.950 . S
H2181 C2187 0.950 . S
H2182 C2188 0.949 . S
C2183 H2178 0.950 . S
C2183 C2185 1.327 . S
C2183 C2189 1.429 . S
C2184 C2176 1.574 . S
C2184 H2179 0.949 . S
C2184 C2190 1.368 . S
C2185 C2169 1.349 . S
C2185 H2177 0.950 . S
C2185 C2183 1.327 . S
C2186 C2174 1.349 . S
C2186 H2180 0.950 . S
C2186 C2187 1.327 . S
C2187 H2181 0.950 . S
C2187 C2186 1.327 . S
C2187 C2191 1.429 . S
C2188 C2171 1.574 . S
C2188 H2182 0.949 . S
C2188 C2192 1.368 . S
C2189 C2170 1.429 . S
C2189 C2183 1.429 . S
C2189 C2190 1.523 . S
C2190 C2171 1.368 . S
C2190 C2184 1.368 . S
C2190 C2189 1.523 . S
C2191 C2175 1.429 . S
C2191 C2187 1.429 . S
C2191 C2192 1.523 . S
C2192 C2176 1.368 . S
C2192 C2188 1.368 . S
C2192 C2191 1.523 . S
H2193 C2168 0.950 . S
H2194 C2170 0.950 . S
H2195 C2171 0.949 . S
H2196 C2173 0.950 . S
H2197 C2175 0.950 . S
C2198 C2199 1.349 . S
C2198 C2200 1.327 . S
C2198 H2223 0.950 . S
C2199 C2198 1.349 . S
C2199 C2215 1.349 . S
C2200 C2198 1.327 . S
C2200 C2219 1.429 . S
C2200 H2224 0.950 . S
C2201 C2218 1.574 . S
C2201 C2220 1.368 . S
C2201 H2225 0.949 . S
H2202 C2206 0.949 . S
C2203 C2204 1.349 . S
C2203 C2205 1.327 . S
C2203 H2226 0.950 . S
C2204 C2203 1.349 . S
C2204 C2216 1.349 . S
C2205 C2203 1.327 . S
C2205 C2221 1.429 . S
C2205 H2227 0.950 . S
C2206 H2202 0.949 . S
C2206 C2214 1.574 . S
C2206 C2222 1.368 . S
H2207 C2215 0.950 . S
H2208 C2213 0.950 . S
H2209 C2214 0.949 . S
H2210 C2216 0.950 . S
H2211 C2217 0.950 . S
H2212 C2218 0.949 . S
C2213 H2208 0.950 . S
C2213 C2215 1.327 . S
C2213 C2219 1.429 . S
C2214 C2206 1.574 . S
C2214 H2209 0.949 . S
C2214 C2220 1.368 . S
C2215 C2199 1.349 . S
C2215 H2207 0.950 . S
C2215 C2213 1.327 . S
C2216 C2204 1.349 . S
C2216 H2210 0.950 . S
C2216 C2217 1.327 . S
C2217 H2211 0.950 . S
C2217 C2216 1.327 . S
C2217 C2221 1.429 . S
C2218 C2201 1.574 . S
C2218 H2212 0.949 . S
C2218 C2222 1.368 . S
C2219 C2200 1.429 . S
C2219 C2213 1.429 . S
C2219 C2220 1.523 . S
C2220 C2201 1.368 . S
C2220 C2214 1.368 . S
C2220 C2219 1.523 . S
C2221 C2205 1.429 . S
C2221 C2217 1.429 . S
C2221 C2222 1.523 . S
C2222 C2206 1.368 . S
C2222 C2218 1.368 . S
C2222 C2221 1.523 . S
H2223 C2198 0.950 . S
H2224 C2200 0.950 . S
H2225 C2201 0.949 . S
H2226 C2203 0.950 . S
H2227 C2205 0.950 . S
C2228 C2229 1.349 . S
C2228 C2230 1.327 . S
C2228 H2253 0.950 . S
C2229 C2228 1.349 . S
C2229 C2245 1.349 . S
C2230 C2228 1.327 . S
C2230 C2249 1.429 . S
C2230 H2254 0.950 . S
C2231 C2248 1.574 . S
C2231 C2250 1.368 . S
C2231 H2255 0.949 . S
H2232 C2236 0.949 . S
C2233 C2234 1.349 1_556 S
C2233 C2235 1.327 . S
C2233 H2256 0.950 . S
C2234 C2233 1.349 1_554 S
C2234 C2246 1.349 . S
C2235 C2233 1.327 . S
C2235 C2251 1.429 . S
C2235 H2257 0.950 . S
C2236 H2232 0.949 . S
C2236 C2244 1.574 . S
C2236 C2252 1.368 . S
H2237 C2245 0.950 . S
H2238 C2243 0.950 . S
H2239 C2244 0.949 . S
H2240 C2246 0.950 . S
H2241 C2247 0.950 . S
H2242 C2248 0.949 . S
C2243 H2238 0.950 . S
C2243 C2245 1.327 . S
C2243 C2249 1.429 . S
C2244 C2236 1.574 . S
C2244 H2239 0.949 . S
C2244 C2250 1.368 . S
C2245 C2229 1.349 . S
C2245 H2237 0.950 . S
C2245 C2243 1.327 . S
C2246 C2234 1.349 . S
C2246 H2240 0.950 . S
C2246 C2247 1.327 . S
C2247 H2241 0.950 . S
C2247 C2246 1.327 . S
C2247 C2251 1.429 1_554 S
C2248 C2231 1.574 . S
C2248 H2242 0.949 . S
C2248 C2252 1.368 . S
C2249 C2230 1.429 . S
C2249 C2243 1.429 . S
C2249 C2250 1.523 . S
C2250 C2231 1.368 . S
C2250 C2244 1.368 . S
C2250 C2249 1.523 . S
C2251 C2235 1.429 . S
C2251 C2247 1.429 1_556 S
C2251 C2252 1.523 . S
C2252 C2236 1.368 . S
C2252 C2248 1.368 . S
C2252 C2251 1.523 . S
H2253 C2228 0.950 . S
H2254 C2230 0.950 . S
H2255 C2231 0.949 . S
H2256 C2233 0.950 . S
H2257 C2235 0.950 . S
C2258 C2259 1.349 . S
C2258 C2260 1.327 . S
C2258 H2283 0.950 . S
C2259 C2258 1.349 . S
C2259 C2275 1.349 . S
C2260 C2258 1.327 . S
C2260 C2279 1.429 . S
C2260 H2284 0.950 . S
C2261 C2278 1.574 . S
C2261 C2280 1.368 1_655 S
C2261 H2285 0.949 . S
H2262 C2266 0.949 . S
C2263 C2264 1.349 . S
C2263 C2265 1.327 . S
C2263 H2286 0.950 . S
C2264 C2263 1.349 . S
C2264 C2276 1.349 . S
C2265 C2263 1.327 . S
C2265 C2281 1.429 . S
C2265 H2287 0.950 . S
C2266 H2262 0.949 . S
C2266 C2274 1.574 1_655 S
C2266 C2282 1.368 . S
H2267 C2275 0.950 1_556 S
H2268 C2273 0.950 . S
H2269 C2274 0.949 . S
H2270 C2276 0.950 . S
H2271 C2277 0.950 . S
H2272 C2278 0.949 . S
C2273 H2268 0.950 . S
C2273 C2275 1.327 . S
C2273 C2279 1.429 . S
C2274 C2266 1.574 1_455 S
C2274 H2269 0.949 . S
C2274 C2280 1.368 . S
C2275 C2259 1.349 . S
C2275 H2267 0.950 1_554 S
C2275 C2273 1.327 . S
C2276 C2264 1.349 . S
C2276 H2270 0.950 . S
C2276 C2277 1.327 . S
C2277 H2271 0.950 . S
C2277 C2276 1.327 . S
C2277 C2281 1.429 . S
C2278 C2261 1.574 . S
C2278 H2272 0.949 . S
C2278 C2282 1.368 . S
C2279 C2260 1.429 . S
C2279 C2273 1.429 . S
C2279 C2280 1.523 . S
C2280 C2261 1.368 1_455 S
C2280 C2274 1.368 . S
C2280 C2279 1.523 . S
C2281 C2265 1.429 . S
C2281 C2277 1.429 . S
C2281 C2282 1.523 . S
C2282 C2266 1.368 . S
C2282 C2278 1.368 . S
C2282 C2281 1.523 . S
H2283 C2258 0.950 . S
H2284 C2260 0.950 . S
H2285 C2261 0.949 . S
H2286 C2263 0.950 . S
H2287 C2265 0.950 . S
C2288 C2289 1.349 . S
C2288 C2290 1.327 . S
C2288 H2313 0.950 . S
C2289 C2288 1.349 . S
C2289 C2305 1.349 1_554 S
C2290 C2288 1.327 . S
C2290 C2309 1.429 1_554 S
C2290 H2314 0.950 . S
C2291 C2308 1.574 . S
C2291 C2310 1.368 . S
C2291 H2315 0.949 . S
H2292 C2296 0.949 . S
C2293 C2294 1.349 . S
C2293 C2295 1.327 . S
C2293 H2316 0.950 . S
C2294 C2293 1.349 . S
C2294 C2306 1.349 . S
C2295 C2293 1.327 . S
C2295 C2311 1.429 . S
C2295 H2317 0.950 . S
C2296 H2292 0.949 . S
C2296 C2304 1.574 . S
C2296 C2312 1.368 . S
H2297 C2305 0.950 . S
H2298 C2303 0.950 . S
H2299 C2304 0.949 . S
H2300 C2306 0.950 . S
H2301 C2307 0.950 . S
H2302 C2308 0.949 . S
C2303 H2298 0.950 . S
C2303 C2305 1.327 . S
C2303 C2309 1.429 . S
C2304 C2296 1.574 . S
C2304 H2299 0.949 . S
C2304 C2310 1.368 . S
C2305 C2289 1.349 1_556 S
C2305 H2297 0.950 . S
C2305 C2303 1.327 . S
C2306 C2294 1.349 . S
C2306 H2300 0.950 . S
C2306 C2307 1.327 . S
C2307 H2301 0.950 . S
C2307 C2306 1.327 . S
C2307 C2311 1.429 . S
C2308 C2291 1.574 . S
C2308 H2302 0.949 . S
C2308 C2312 1.368 . S
C2309 C2290 1.429 1_556 S
C2309 C2303 1.429 . S
C2309 C2310 1.523 . S
C2310 C2291 1.368 . S
C2310 C2304 1.368 . S
C2310 C2309 1.523 . S
C2311 C2295 1.429 . S
C2311 C2307 1.429 . S
C2311 C2312 1.523 . S
C2312 C2296 1.368 . S
C2312 C2308 1.368 . S
C2312 C2311 1.523 . S
H2313 C2288 0.950 . S
H2314 C2290 0.950 . S
H2315 C2291 0.949 . S
H2316 C2293 0.950 . S
H2317 C2295 0.950 . S
C2318 C2319 1.349 . S
C2318 C2320 1.327 . S
C2318 H2343 0.950 . S
C2319 C2318 1.349 . S
C2319 C2335 1.349 . S
C2320 C2318 1.327 . S
C2320 C2339 1.429 . S
C2320 H2344 0.950 . S
C2321 C2338 1.574 1_455 S
C2321 C2340 1.368 . S
C2321 H2345 0.949 . S
H2322 C2326 0.949 . S
C2323 C2324 1.349 . S
C2323 C2325 1.327 . S
C2323 H2346 0.950 . S
C2324 C2323 1.349 . S
C2324 C2336 1.349 . S
C2325 C2323 1.327 . S
C2325 C2341 1.429 . S
C2325 H2347 0.950 . S
C2326 H2322 0.949 . S
C2326 C2334 1.574 . S
C2326 C2342 1.368 1_455 S
H2327 C2335 0.950 . S
H2328 C2333 0.950 . S
H2329 C2334 0.949 . S
H2330 C2336 0.950 . S
H2331 C2337 0.950 . S
H2332 C2338 0.949 . S
C2333 H2328 0.950 . S
C2333 C2335 1.327 . S
C2333 C2339 1.429 . S
C2334 C2326 1.574 . S
C2334 H2329 0.949 . S
C2334 C2340 1.368 . S
C2335 C2319 1.349 . S
C2335 H2327 0.950 . S
C2335 C2333 1.327 . S
C2336 C2324 1.349 . S
C2336 H2330 0.950 . S
C2336 C2337 1.327 . S
C2337 H2331 0.950 . S
C2337 C2336 1.327 . S
C2337 C2341 1.429 . S
C2338 C2321 1.574 1_655 S
C2338 H2332 0.949 . S
C2338 C2342 1.368 . S
C2339 C2320 1.429 . S
C2339 C2333 1.429 . S
C2339 C2340 1.523 . S
C2340 C2321 1.368 . S
C2340 C2334 1.368 . S
C2340 C2339 1.523 . S
C2341 C2325 1.429 . S
C2341 C2337 1.429 . S
C2341 C2342 1.523 . S
C2342 C2326 1.368 1_655 S
C2342 C2338 1.368 . S
C2342 C2341 1.523 . S
H2343 C2318 0.950 . S
H2344 C2320 0.950 . S
H2345 C2321 0.949 . S
H2346 C2323 0.950 . S
H2347 C2325 0.950 . S
C2348 C2349 1.349 . S
C2348 C2350 1.327 . S
C2348 H2373 0.950 . S
C2349 C2348 1.349 . S
C2349 C2365 1.349 . S
C2350 C2348 1.327 . S
C2350 C2369 1.429 . S
C2350 H2374 0.950 . S
C2351 C2368 1.574 . S
C2351 C2370 1.368 . S
C2351 H2375 0.949 . S
H2352 C2356 0.949 . S
C2353 C2354 1.349 . S
C2353 C2355 1.327 . S
C2353 H2376 0.950 . S
C2354 C2353 1.349 . S
C2354 C2366 1.349 . S
C2355 C2353 1.327 . S
C2355 C2371 1.429 . S
C2355 H2377 0.950 . S
C2356 H2352 0.949 . S
C2356 C2364 1.574 . S
C2356 C2372 1.368 . S
H2357 C2365 0.950 . S
H2358 C2363 0.950 . S
H2359 C2364 0.949 . S
H2360 C2366 0.950 . S
H2361 C2367 0.950 . S
H2362 C2368 0.949 . S
C2363 H2358 0.950 . S
C2363 C2365 1.327 . S
C2363 C2369 1.429 . S
C2364 C2356 1.574 . S
C2364 H2359 0.949 . S
C2364 C2370 1.368 . S
C2365 C2349 1.349 . S
C2365 H2357 0.950 . S
C2365 C2363 1.327 . S
C2366 C2354 1.349 . S
C2366 H2360 0.950 . S
C2366 C2367 1.327 . S
C2367 H2361 0.950 . S
C2367 C2366 1.327 . S
C2367 C2371 1.429 . S
C2368 C2351 1.574 . S
C2368 H2362 0.949 . S
C2368 C2372 1.368 . S
C2369 C2350 1.429 . S
C2369 C2363 1.429 . S
C2369 C2370 1.523 . S
C2370 C2351 1.368 . S
C2370 C2364 1.368 . S
C2370 C2369 1.523 . S
C2371 C2355 1.429 . S
C2371 C2367 1.429 . S
C2371 C2372 1.523 . S
C2372 C2356 1.368 . S
C2372 C2368 1.368 . S
C2372 C2371 1.523 . S
H2373 C2348 0.950 . S
H2374 C2350 0.950 . S
H2375 C2351 0.949 . S
H2376 C2353 0.950 . S
H2377 C2355 0.950 . S
C2378 C2379 1.349 . S
C2378 C2380 1.327 . S
C2378 H2403 0.950 . S
C2379 C2378 1.349 . S
C2379 C2395 1.349 . S
C2380 C2378 1.327 . S
C2380 C2399 1.429 . S
C2380 H2404 0.950 . S
C2381 C2398 1.574 . S
C2381 C2400 1.368 . S
C2381 H2405 0.949 . S
H2382 C2386 0.949 . S
C2383 C2384 1.349 . S
C2383 C2385 1.327 . S
C2383 H2406 0.950 . S
C2384 C2383 1.349 . S
C2384 C2396 1.349 . S
C2385 C2383 1.327 . S
C2385 C2401 1.429 . S
C2385 H2407 0.950 . S
C2386 H2382 0.949 . S
C2386 C2394 1.574 . S
C2386 C2402 1.368 . S
H2387 C2395 0.950 . S
H2388 C2393 0.950 . S
H2389 C2394 0.949 . S
H2390 C2396 0.950 . S
H2391 C2397 0.950 . S
H2392 C2398 0.949 . S
C2393 H2388 0.950 . S
C2393 C2395 1.327 . S
C2393 C2399 1.429 . S
C2394 C2386 1.574 . S
C2394 H2389 0.949 . S
C2394 C2400 1.368 . S
C2395 C2379 1.349 . S
C2395 H2387 0.950 . S
C2395 C2393 1.327 . S
C2396 C2384 1.349 . S
C2396 H2390 0.950 . S
C2396 C2397 1.327 . S
C2397 H2391 0.950 . S
C2397 C2396 1.327 . S
C2397 C2401 1.429 . S
C2398 C2381 1.574 . S
C2398 H2392 0.949 . S
C2398 C2402 1.368 . S
C2399 C2380 1.429 . S
C2399 C2393 1.429 . S
C2399 C2400 1.523 . S
C2400 C2381 1.368 . S
C2400 C2394 1.368 . S
C2400 C2399 1.523 . S
C2401 C2385 1.429 . S
C2401 C2397 1.429 . S
C2401 C2402 1.523 . S
C2402 C2386 1.368 . S
C2402 C2398 1.368 . S
C2402 C2401 1.523 . S
H2403 C2378 0.950 . S
H2404 C2380 0.950 . S
H2405 C2381 0.949 . S
H2406 C2383 0.950 . S
H2407 C2385 0.950 . S
C2408 C2409 1.349 . S
C2408 C2410 1.327 . S
C2408 H2433 0.950 . S
C2409 C2408 1.349 . S
C2409 C2425 1.349 . S
C2410 C2408 1.327 . S
C2410 C2429 1.429 . S
C2410 H2434 0.950 . S
C2411 C2428 1.574 . S
C2411 C2430 1.368 . S
C2411 H2435 0.949 . S
H2412 C2416 0.949 . S
C2413 C2414 1.349 . S
C2413 C2415 1.327 . S
C2413 H2436 0.950 . S
C2414 C2413 1.349 . S
C2414 C2426 1.349 . S
C2415 C2413 1.327 . S
C2415 C2431 1.429 . S
C2415 H2437 0.950 . S
C2416 H2412 0.949 . S
C2416 C2424 1.574 . S
C2416 C2432 1.368 . S
H2417 C2425 0.950 . S
H2418 C2423 0.950 . S
H2419 C2424 0.949 . S
H2420 C2426 0.950 . S
H2421 C2427 0.950 . S
H2422 C2428 0.949 . S
C2423 H2418 0.950 . S
C2423 C2425 1.327 . S
C2423 C2429 1.429 . S
C2424 C2416 1.574 . S
C2424 H2419 0.949 . S
C2424 C2430 1.368 . S
C2425 C2409 1.349 . S
C2425 H2417 0.950 . S
C2425 C2423 1.327 . S
C2426 C2414 1.349 . S
C2426 H2420 0.950 . S
C2426 C2427 1.327 . S
C2427 H2421 0.950 . S
C2427 C2426 1.327 . S
C2427 C2431 1.429 . S
C2428 C2411 1.574 . S
C2428 H2422 0.949 . S
C2428 C2432 1.368 . S
C2429 C2410 1.429 . S
C2429 C2423 1.429 . S
C2429 C2430 1.523 . S
C2430 C2411 1.368 . S
C2430 C2424 1.368 . S
C2430 C2429 1.523 . S
C2431 C2415 1.429 . S
C2431 C2427 1.429 . S
C2431 C2432 1.523 . S
C2432 C2416 1.368 . S
C2432 C2428 1.368 . S
C2432 C2431 1.523 . S
H2433 C2408 0.950 . S
H2434 C2410 0.950 . S
H2435 C2411 0.949 . S
H2436 C2413 0.950 . S
H2437 C2415 0.950 . S
C2438 C2439 1.349 . S
C2438 C2440 1.327 . S
C2438 H2463 0.950 . S
C2439 C2438 1.349 . S
C2439 C2455 1.349 . S
C2440 C2438 1.327 . S
C2440 C2459 1.429 . S
C2440 H2464 0.950 . S
C2441 C2458 1.574 . S
C2441 C2460 1.368 . S
C2441 H2465 0.949 . S
H2442 C2446 0.949 . S
C2443 C2444 1.349 . S
C2443 C2445 1.327 . S
C2443 H2466 0.950 . S
C2444 C2443 1.349 . S
C2444 C2456 1.349 . S
C2445 C2443 1.327 . S
C2445 C2461 1.429 . S
C2445 H2467 0.950 . S
C2446 H2442 0.949 . S
C2446 C2454 1.574 . S
C2446 C2462 1.368 . S
H2447 C2455 0.950 . S
H2448 C2453 0.950 . S
H2449 C2454 0.949 . S
H2450 C2456 0.950 . S
H2451 C2457 0.950 . S
H2452 C2458 0.949 . S
C2453 H2448 0.950 . S
C2453 C2455 1.327 . S
C2453 C2459 1.429 . S
C2454 C2446 1.574 . S
C2454 H2449 0.949 . S
C2454 C2460 1.368 . S
C2455 C2439 1.349 . S
C2455 H2447 0.950 . S
C2455 C2453 1.327 . S
C2456 C2444 1.349 . S
C2456 H2450 0.950 . S
C2456 C2457 1.327 . S
C2457 H2451 0.950 . S
C2457 C2456 1.327 . S
C2457 C2461 1.429 . S
C2458 C2441 1.574 . S
C2458 H2452 0.949 . S
C2458 C2462 1.368 . S
C2459 C2440 1.429 . S
C2459 C2453 1.429 . S
C2459 C2460 1.523 . S
C2460 C2441 1.368 . S
C2460 C2454 1.368 . S
C2460 C2459 1.523 . S
C2461 C2445 1.429 . S
C2461 C2457 1.429 . S
C2461 C2462 1.523 . S
C2462 C2446 1.368 . S
C2462 C2458 1.368 . S
C2462 C2461 1.523 . S
H2463 C2438 0.950 . S
H2464 C2440 0.950 . S
H2465 C2441 0.949 . S
H2466 C2443 0.950 . S
H2467 C2445 0.950 . S
C2468 C2469 1.349 1_554 S
C2468 C2470 1.327 . S
C2468 H2493 0.950 . S
C2469 C2468 1.349 1_556 S
C2469 C2485 1.349 . S
C2470 C2468 1.327 . S
C2470 C2489 1.429 . S
C2470 H2494 0.950 . S
C2471 C2488 1.574 . S
C2471 C2490 1.368 . S
C2471 H2495 0.949 . S
H2472 C2476 0.949 . S
C2473 C2474 1.349 . S
C2473 C2475 1.327 . S
C2473 H2496 0.950 . S
C2474 C2473 1.349 . S
C2474 C2486 1.349 . S
C2475 C2473 1.327 . S
C2475 C2491 1.429 . S
C2475 H2497 0.950 . S
C2476 H2472 0.949 . S
C2476 C2484 1.574 . S
C2476 C2492 1.368 . S
H2477 C2485 0.950 . S
H2478 C2483 0.950 . S
H2479 C2484 0.949 . S
H2480 C2486 0.950 . S
H2481 C2487 0.950 . S
H2482 C2488 0.949 . S
C2483 H2478 0.950 . S
C2483 C2485 1.327 . S
C2483 C2489 1.429 1_556 S
C2484 C2476 1.574 . S
C2484 H2479 0.949 . S
C2484 C2490 1.368 . S
C2485 C2469 1.349 . S
C2485 H2477 0.950 . S
C2485 C2483 1.327 . S
C2486 C2474 1.349 . S
C2486 H2480 0.950 . S
C2486 C2487 1.327 . S
C2487 H2481 0.950 . S
C2487 C2486 1.327 . S
C2487 C2491 1.429 . S
C2488 C2471 1.574 . S
C2488 H2482 0.949 . S
C2488 C2492 1.368 . S
C2489 C2470 1.429 . S
C2489 C2483 1.429 1_554 S
C2489 C2490 1.523 . S
C2490 C2471 1.368 . S
C2490 C2484 1.368 . S
C2490 C2489 1.523 . S
C2491 C2475 1.429 . S
C2491 C2487 1.429 . S
C2491 C2492 1.523 . S
C2492 C2476 1.368 . S
C2492 C2488 1.368 . S
C2492 C2491 1.523 . S
H2493 C2468 0.950 . S
H2494 C2470 0.950 . S
H2495 C2471 0.949 . S
H2496 C2473 0.950 . S
H2497 C2475 0.950 . S
C2498 C2499 1.349 . S
C2498 C2500 1.327 . S
C2498 H2523 0.950 . S
C2499 C2498 1.349 . S
C2499 C2515 1.349 . S
C2500 C2498 1.327 . S
C2500 C2519 1.429 . S
C2500 H2524 0.950 . S
C2501 C2518 1.574 . S
C2501 C2520 1.368 . S
C2501 H2525 0.949 . S
H2502 C2506 0.949 . S
C2503 C2504 1.349 . S
C2503 C2505 1.327 . S
C2503 H2526 0.950 . S
C2504 C2503 1.349 . S
C2504 C2516 1.349 . S
C2505 C2503 1.327 . S
C2505 C2521 1.429 . S
C2505 H2527 0.950 . S
C2506 H2502 0.949 . S
C2506 C2514 1.574 1_655 S
C2506 C2522 1.368 . S
H2507 C2515 0.950 . S
H2508 C2513 0.950 . S
H2509 C2514 0.949 . S
H2510 C2516 0.950 . S
H2511 C2517 0.950 . S
H2512 C2518 0.949 . S
C2513 H2508 0.950 . S
C2513 C2515 1.327 . S
C2513 C2519 1.429 . S
C2514 C2506 1.574 1_455 S
C2514 H2509 0.949 . S
C2514 C2520 1.368 . S
C2515 C2499 1.349 . S
C2515 H2507 0.950 . S
C2515 C2513 1.327 . S
C2516 C2504 1.349 . S
C2516 H2510 0.950 . S
C2516 C2517 1.327 . S
C2517 H2511 0.950 . S
C2517 C2516 1.327 . S
C2517 C2521 1.429 . S
C2518 C2501 1.574 . S
C2518 H2512 0.949 . S
C2518 C2522 1.368 1_455 S
C2519 C2500 1.429 . S
C2519 C2513 1.429 . S
C2519 C2520 1.523 . S
C2520 C2501 1.368 . S
C2520 C2514 1.368 . S
C2520 C2519 1.523 . S
C2521 C2505 1.429 . S
C2521 C2517 1.429 . S
C2521 C2522 1.523 . S
C2522 C2506 1.368 . S
C2522 C2518 1.368 1_655 S
C2522 C2521 1.523 . S
H2523 C2498 0.950 . S
H2524 C2500 0.950 . S
H2525 C2501 0.949 . S
H2526 C2503 0.950 . S
H2527 C2505 0.950 . S
C2528 C2529 1.349 . S
C2528 C2530 1.327 . S
C2528 H2553 0.950 . S
C2529 C2528 1.349 . S
C2529 C2545 1.349 . S
C2530 C2528 1.327 . S
C2530 C2549 1.429 . S
C2530 H2554 0.950 . S
C2531 C2548 1.574 . S
C2531 C2550 1.368 . S
C2531 H2555 0.949 . S
H2532 C2536 0.949 . S
C2533 C2534 1.349 . S
C2533 C2535 1.327 . S
C2533 H2556 0.950 . S
C2534 C2533 1.349 . S
C2534 C2546 1.349 . S
C2535 C2533 1.327 . S
C2535 C2551 1.429 . S
C2535 H2557 0.950 . S
C2536 H2532 0.949 . S
C2536 C2544 1.574 . S
C2536 C2552 1.368 . S
H2537 C2545 0.950 . S
H2538 C2543 0.950 . S
H2539 C2544 0.949 . S
H2540 C2546 0.950 . S
H2541 C2547 0.950 . S
H2542 C2548 0.949 . S
C2543 H2538 0.950 . S
C2543 C2545 1.327 . S
C2543 C2549 1.429 . S
C2544 C2536 1.574 . S
C2544 H2539 0.949 . S
C2544 C2550 1.368 . S
C2545 C2529 1.349 . S
C2545 H2537 0.950 . S
C2545 C2543 1.327 . S
C2546 C2534 1.349 . S
C2546 H2540 0.950 . S
C2546 C2547 1.327 . S
C2547 H2541 0.950 . S
C2547 C2546 1.327 . S
C2547 C2551 1.429 . S
C2548 C2531 1.574 . S
C2548 H2542 0.949 . S
C2548 C2552 1.368 . S
C2549 C2530 1.429 . S
C2549 C2543 1.429 . S
C2549 C2550 1.523 . S
C2550 C2531 1.368 . S
C2550 C2544 1.368 . S
C2550 C2549 1.523 . S
C2551 C2535 1.429 . S
C2551 C2547 1.429 . S
C2551 C2552 1.523 . S
C2552 C2536 1.368 . S
C2552 C2548 1.368 . S
C2552 C2551 1.523 . S
H2553 C2528 0.950 . S
H2554 C2530 0.950 . S
H2555 C2531 0.949 . S
H2556 C2533 0.950 . S
H2557 C2535 0.950 . S
C2558 C2559 1.349 . S
C2558 C2560 1.327 . S
C2558 H2583 0.950 . S
C2559 C2558 1.349 . S
C2559 C2575 1.349 . S
C2560 C2558 1.327 . S
C2560 C2579 1.429 . S
C2560 H2584 0.950 . S
C2561 C2578 1.574 . S
C2561 C2580 1.368 . S
C2561 H2585 0.949 . S
H2562 C2566 0.949 . S
C2563 C2564 1.349 . S
C2563 C2565 1.327 . S
C2563 H2586 0.950 . S
C2564 C2563 1.349 . S
C2564 C2576 1.349 . S
C2565 C2563 1.327 . S
C2565 C2581 1.429 . S
C2565 H2587 0.950 . S
C2566 H2562 0.949 . S
C2566 C2574 1.574 . S
C2566 C2582 1.368 . S
H2567 C2575 0.939 1_554 S
H2568 C2573 0.950 . S
H2569 C2574 0.949 . S
H2570 C2576 0.950 . S
H2571 C2577 0.950 . S
H2572 C2578 0.949 . S
C2573 H2568 0.950 . S
C2573 C2575 1.327 . S
C2573 C2579 1.429 . S
C2574 C2566 1.574 . S
C2574 H2569 0.949 . S
C2574 C2580 1.368 . S
C2575 C2559 1.349 . S
C2575 H2567 0.939 1_556 S
C2575 C2573 1.327 . S
C2576 C2564 1.349 . S
C2576 H2570 0.950 . S
C2576 C2577 1.327 . S
C2577 H2571 0.950 . S
C2577 C2576 1.327 . S
C2577 C2581 1.429 . S
C2578 C2561 1.574 . S
C2578 H2572 0.949 . S
C2578 C2582 1.368 . S
C2579 C2560 1.429 . S
C2579 C2573 1.429 . S
C2579 C2580 1.523 . S
C2580 C2561 1.368 . S
C2580 C2574 1.368 . S
C2580 C2579 1.523 . S
C2581 C2565 1.429 . S
C2581 C2577 1.429 . S
C2581 C2582 1.523 . S
C2582 C2566 1.368 . S
C2582 C2578 1.368 . S
C2582 C2581 1.523 . S
H2583 C2558 0.950 . S
H2584 C2560 0.950 . S
H2585 C2561 0.949 . S
H2586 C2563 0.950 . S
H2587 C2565 0.950 . S
C2588 C2589 1.349 . S
C2588 C2590 1.327 . S
C2588 H2613 0.950 . S
C2589 C2588 1.349 . S
C2589 C2605 1.349 . S
C2590 C2588 1.327 . S
C2590 C2609 1.429 . S
C2590 H2614 0.950 . S
C2591 C2608 1.574 . S
C2591 C2610 1.368 . S
C2591 H2615 0.949 . S
H2592 C2596 0.949 . S
C2593 C2594 1.349 . S
C2593 C2595 1.327 1_556 S
C2593 H2616 0.950 1_556 S
C2594 C2593 1.349 . S
C2594 C2606 1.349 . S
C2595 C2593 1.327 1_554 S
C2595 C2611 1.429 . S
C2595 H2617 0.950 . S
C2596 H2592 0.949 . S
C2596 C2604 1.574 . S
C2596 C2612 1.368 . S
H2597 C2605 0.950 . S
H2598 C2603 0.950 . S
H2599 C2604 0.949 . S
H2600 C2606 0.950 . S
H2601 C2607 0.950 . S
H2602 C2608 0.949 . S
C2603 H2598 0.950 . S
C2603 C2605 1.327 . S
C2603 C2609 1.429 . S
C2604 C2596 1.574 . S
C2604 H2599 0.949 . S
C2604 C2610 1.368 . S
C2605 C2589 1.349 . S
C2605 H2597 0.950 . S
C2605 C2603 1.327 . S
C2606 C2594 1.349 . S
C2606 H2600 0.950 . S
C2606 C2607 1.327 . S
C2607 H2601 0.950 . S
C2607 C2606 1.327 . S
C2607 C2611 1.429 1_556 S
C2608 C2591 1.574 . S
C2608 H2602 0.949 . S
C2608 C2612 1.368 . S
C2609 C2590 1.429 . S
C2609 C2603 1.429 . S
C2609 C2610 1.523 . S
C2610 C2591 1.368 . S
C2610 C2604 1.368 . S
C2610 C2609 1.523 . S
C2611 C2595 1.429 . S
C2611 C2607 1.429 1_554 S
C2611 C2612 1.523 . S
C2612 C2596 1.368 . S
C2612 C2608 1.368 . S
C2612 C2611 1.523 . S
H2613 C2588 0.950 . S
H2614 C2590 0.950 . S
H2615 C2591 0.949 . S
H2616 C2593 0.950 1_554 S
H2617 C2595 0.950 . S
C2618 C2619 1.349 . S
C2618 C2620 1.327 . S
C2618 H2643 0.950 . S
C2619 C2618 1.349 . S
C2619 C2635 1.349 . S
C2620 C2618 1.327 . S
C2620 C2639 1.429 . S
C2620 H2644 0.950 . S
C2621 C2638 1.574 . S
C2621 C2640 1.368 1_455 S
C2621 H2645 0.949 . S
H2622 C2626 0.949 . S
C2623 C2624 1.349 . S
C2623 C2625 1.327 . S
C2623 H2646 0.950 . S
C2624 C2623 1.349 . S
C2624 C2636 1.349 . S
C2625 C2623 1.327 . S
C2625 C2641 1.429 . S
C2625 H2647 0.950 . S
C2626 H2622 0.949 . S
C2626 C2634 1.574 1_455 S
C2626 C2642 1.368 . S
H2627 C2635 0.950 . S
H2628 C2633 0.950 . S
H2629 C2634 0.949 . S
H2630 C2636 0.950 . S
H2631 C2637 0.950 . S
H2632 C2638 0.949 . S
C2633 H2628 0.950 . S
C2633 C2635 1.327 . S
C2633 C2639 1.429 . S
C2634 C2626 1.574 1_655 S
C2634 H2629 0.949 . S
C2634 C2640 1.368 . S
C2635 C2619 1.349 . S
C2635 H2627 0.950 . S
C2635 C2633 1.327 . S
C2636 C2624 1.349 . S
C2636 H2630 0.950 . S
C2636 C2637 1.327 . S
C2637 H2631 0.950 . S
C2637 C2636 1.327 . S
C2637 C2641 1.429 . S
C2638 C2621 1.574 . S
C2638 H2632 0.949 . S
C2638 C2642 1.368 . S
C2639 C2620 1.429 . S
C2639 C2633 1.429 . S
C2639 C2640 1.523 . S
C2640 C2621 1.368 1_655 S
C2640 C2634 1.368 . S
C2640 C2639 1.523 . S
C2641 C2625 1.429 . S
C2641 C2637 1.429 . S
C2641 C2642 1.523 . S
C2642 C2626 1.368 . S
C2642 C2638 1.368 . S
C2642 C2641 1.523 . S
H2643 C2618 0.950 . S
H2644 C2620 0.950 . S
H2645 C2621 0.949 . S
H2646 C2623 0.950 . S
H2647 C2625 0.950 . S
C2648 C2649 1.349 1_556 S
C2648 C2650 1.327 . S
C2648 H2673 0.950 . S
C2649 C2648 1.349 1_554 S
C2649 C2665 1.349 . S
C2650 C2648 1.327 . S
C2650 C2669 1.429 . S
C2650 H2674 0.950 . S
C2651 C2668 1.574 . S
C2651 C2670 1.368 . S
C2651 H2675 0.949 . S
H2652 C2656 0.949 . S
C2653 C2654 1.349 . S
C2653 C2655 1.327 . S
C2653 H2676 0.950 . S
C2654 C2653 1.349 . S
C2654 C2666 1.349 . S
C2655 C2653 1.327 . S
C2655 C2671 1.429 . S
C2655 H2677 0.950 . S
C2656 H2652 0.949 . S
C2656 C2664 1.574 . S
C2656 C2672 1.368 . S
H2657 C2665 0.950 . S
H2658 C2663 0.950 . S
H2659 C2664 0.949 . S
H2660 C2666 0.950 . S
H2661 C2667 0.950 . S
H2662 C2668 0.949 . S
C2663 H2658 0.950 . S
C2663 C2665 1.327 . S
C2663 C2669 1.429 1_554 S
C2664 C2656 1.574 . S
C2664 H2659 0.949 . S
C2664 C2670 1.368 . S
C2665 C2649 1.349 . S
C2665 H2657 0.950 . S
C2665 C2663 1.327 . S
C2666 C2654 1.349 . S
C2666 H2660 0.950 . S
C2666 C2667 1.327 . S
C2667 H2661 0.950 . S
C2667 C2666 1.327 . S
C2667 C2671 1.429 . S
C2668 C2651 1.574 . S
C2668 H2662 0.949 . S
C2668 C2672 1.368 . S
C2669 C2650 1.429 . S
C2669 C2663 1.429 1_556 S
C2669 C2670 1.523 . S
C2670 C2651 1.368 . S
C2670 C2664 1.368 . S
C2670 C2669 1.523 . S
C2671 C2655 1.429 . S
C2671 C2667 1.429 . S
C2671 C2672 1.523 . S
C2672 C2656 1.368 . S
C2672 C2668 1.368 . S
C2672 C2671 1.523 . S
H2673 C2648 0.950 . S
H2674 C2650 0.950 . S
H2675 C2651 0.949 . S
H2676 C2653 0.950 . S
H2677 C2655 0.950 . S
C2678 C2679 1.349 . S
C2678 C2680 1.327 . S
C2678 H2703 0.950 . S
C2679 C2678 1.349 . S
C2679 C2695 1.349 . S
C2680 C2678 1.327 . S
C2680 C2699 1.429 . S
C2680 H2704 0.950 . S
C2681 C2698 1.574 . S
C2681 C2700 1.368 1_455 S
C2681 H2705 0.949 . S
H2682 C2686 0.949 . S
C2683 C2684 1.349 . S
C2683 C2685 1.327 . S
C2683 H2706 0.950 . S
C2684 C2683 1.349 . S
C2684 C2696 1.349 . S
C2685 C2683 1.327 . S
C2685 C2701 1.429 . S
C2685 H2707 0.950 . S
C2686 H2682 0.949 . S
C2686 C2694 1.574 1_455 S
C2686 C2702 1.368 . S
H2687 C2695 0.966 . S
H2688 C2693 0.950 . S
H2689 C2694 0.949 . S
H2690 C2696 0.950 . S
H2691 C2697 0.950 . S
H2692 C2698 0.949 . S
C2693 H2688 0.950 . S
C2693 C2695 1.327 . S
C2693 C2699 1.429 . S
C2694 C2686 1.574 1_655 S
C2694 H2689 0.949 . S
C2694 C2700 1.368 . S
C2695 C2679 1.349 . S
C2695 H2687 0.966 . S
C2695 C2693 1.327 . S
C2696 C2684 1.349 . S
C2696 H2690 0.950 . S
C2696 C2697 1.327 . S
C2697 H2691 0.950 . S
C2697 C2696 1.327 . S
C2697 C2701 1.429 . S
C2698 C2681 1.574 . S
C2698 H2692 0.949 . S
C2698 C2702 1.368 . S
C2699 C2680 1.429 . S
C2699 C2693 1.429 . S
C2699 C2700 1.523 . S
C2700 C2681 1.368 1_655 S
C2700 C2694 1.368 . S
C2700 C2699 1.523 . S
C2701 C2685 1.429 . S
C2701 C2697 1.429 . S
C2701 C2702 1.523 . S
C2702 C2686 1.368 . S
C2702 C2698 1.368 . S
C2702 C2701 1.523 . S
H2703 C2678 0.950 . S
H2704 C2680 0.950 . S
H2705 C2681 0.949 . S
H2706 C2683 0.950 . S
H2707 C2685 0.950 . S
C2708 C2709 1.349 . S
C2708 C2710 1.327 . S
C2708 H2733 0.950 . S
C2709 C2708 1.349 . S
C2709 C2725 1.349 . S
C2710 C2708 1.327 . S
C2710 C2729 1.429 . S
C2710 H2734 0.950 . S
C2711 C2728 1.574 . S
C2711 C2730 1.368 . S
C2711 H2735 0.949 . S
H2712 C2716 0.949 . S
C2713 C2714 1.349 . S
C2713 C2715 1.327 . S
C2713 H2736 0.950 . S
C2714 C2713 1.349 . S
C2714 C2726 1.349 . S
C2715 C2713 1.327 . S
C2715 C2731 1.429 . S
C2715 H2737 0.950 . S
C2716 H2712 0.949 . S
C2716 C2724 1.574 . S
C2716 C2732 1.368 . S
H2717 C2725 0.950 . S
H2718 C2723 0.950 . S
H2719 C2724 0.949 . S
H2720 C2726 0.950 . S
H2721 C2727 0.950 . S
H2722 C2728 0.949 . S
C2723 H2718 0.950 . S
C2723 C2725 1.327 . S
C2723 C2729 1.429 . S
C2724 C2716 1.574 . S
C2724 H2719 0.949 . S
C2724 C2730 1.368 . S
C2725 C2709 1.349 . S
C2725 H2717 0.950 . S
C2725 C2723 1.327 . S
C2726 C2714 1.349 . S
C2726 H2720 0.950 . S
C2726 C2727 1.327 . S
C2727 H2721 0.950 . S
C2727 C2726 1.327 . S
C2727 C2731 1.429 . S
C2728 C2711 1.574 . S
C2728 H2722 0.949 . S
C2728 C2732 1.368 . S
C2729 C2710 1.429 . S
C2729 C2723 1.429 . S
C2729 C2730 1.523 . S
C2730 C2711 1.368 . S
C2730 C2724 1.368 . S
C2730 C2729 1.523 . S
C2731 C2715 1.429 . S
C2731 C2727 1.429 . S
C2731 C2732 1.523 . S
C2732 C2716 1.368 . S
C2732 C2728 1.368 . S
C2732 C2731 1.523 . S
H2733 C2708 0.950 . S
H2734 C2710 0.950 . S
H2735 C2711 0.949 . S
H2736 C2713 0.950 . S
H2737 C2715 0.950 . S
C2738 C2739 1.349 . S
C2738 C2740 1.327 . S
C2738 H2763 0.950 . S
C2739 C2738 1.349 . S
C2739 C2755 1.349 . S
C2740 C2738 1.327 . S
C2740 C2759 1.429 . S
C2740 H2764 0.950 . S
C2741 C2758 1.574 . S
C2741 C2760 1.368 . S
C2741 H2765 0.949 . S
H2742 C2746 0.949 . S
C2743 C2744 1.349 . S
C2743 C2745 1.327 . S
C2743 H2766 0.950 . S
C2744 C2743 1.349 . S
C2744 C2756 1.349 . S
C2745 C2743 1.327 . S
C2745 C2761 1.429 . S
C2745 H2767 0.950 . S
C2746 H2742 0.949 . S
C2746 C2754 1.574 . S
C2746 C2762 1.368 . S
H2747 C2755 0.950 . S
H2748 C2753 0.950 . S
H2749 C2754 0.949 . S
H2750 C2756 0.950 . S
H2751 C2757 0.950 . S
H2752 C2758 0.949 . S
C2753 H2748 0.950 . S
C2753 C2755 1.327 . S
C2753 C2759 1.429 . S
C2754 C2746 1.574 . S
C2754 H2749 0.949 . S
C2754 C2760 1.368 . S
C2755 C2739 1.349 . S
C2755 H2747 0.950 . S
C2755 C2753 1.327 . S
C2756 C2744 1.349 . S
C2756 H2750 0.950 . S
C2756 C2757 1.327 . S
C2757 H2751 0.950 . S
C2757 C2756 1.327 . S
C2757 C2761 1.429 . S
C2758 C2741 1.574 . S
C2758 H2752 0.949 . S
C2758 C2762 1.368 . S
C2759 C2740 1.429 . S
C2759 C2753 1.429 . S
C2759 C2760 1.523 . S
C2760 C2741 1.368 . S
C2760 C2754 1.368 . S
C2760 C2759 1.523 . S
C2761 C2745 1.429 . S
C2761 C2757 1.429 . S
C2761 C2762 1.523 . S
C2762 C2746 1.368 . S
C2762 C2758 1.368 . S
C2762 C2761 1.523 . S
H2763 C2738 0.950 . S
H2764 C2740 0.950 . S
H2765 C2741 0.949 . S
H2766 C2743 0.950 . S
H2767 C2745 0.950 . S
C2768 C2769 1.349 . S
C2768 C2770 1.327 . S
C2768 H2793 0.950 . S
C2769 C2768 1.349 . S
C2769 C2785 1.349 . S
C2770 C2768 1.327 . S
C2770 C2789 1.429 . S
C2770 H2794 0.950 . S
C2771 C2788 1.574 . S
C2771 C2790 1.368 . S
C2771 H2795 0.949 . S
H2772 C2776 0.949 . S
C2773 C2774 1.349 . S
C2773 C2775 1.327 . S
C2773 H2796 0.950 . S
C2774 C2773 1.349 . S
C2774 C2786 1.349 . S
C2775 C2773 1.327 . S
C2775 C2791 1.429 . S
C2775 H2797 0.950 . S
C2776 H2772 0.949 . S
C2776 C2784 1.574 . S
C2776 C2792 1.368 . S
H2777 C2785 0.950 . S
H2778 C2783 0.950 . S
H2779 C2784 0.949 . S
H2780 C2786 0.950 . S
H2781 C2787 0.950 . S
H2782 C2788 0.949 . S
C2783 H2778 0.950 . S
C2783 C2785 1.327 . S
C2783 C2789 1.429 . S
C2784 C2776 1.574 . S
C2784 H2779 0.949 . S
C2784 C2790 1.368 . S
C2785 C2769 1.349 . S
C2785 H2777 0.950 . S
C2785 C2783 1.327 . S
C2786 C2774 1.349 . S
C2786 H2780 0.950 . S
C2786 C2787 1.327 . S
C2787 H2781 0.950 . S
C2787 C2786 1.327 . S
C2787 C2791 1.429 . S
C2788 C2771 1.574 . S
C2788 H2782 0.949 . S
C2788 C2792 1.368 . S
C2789 C2770 1.429 . S
C2789 C2783 1.429 . S
C2789 C2790 1.523 . S
C2790 C2771 1.368 . S
C2790 C2784 1.368 . S
C2790 C2789 1.523 . S
C2791 C2775 1.429 . S
C2791 C2787 1.429 . S
C2791 C2792 1.523 . S
C2792 C2776 1.368 . S
C2792 C2788 1.368 . S
C2792 C2791 1.523 . S
H2793 C2768 0.950 . S
H2794 C2770 0.950 . S
H2795 C2771 0.949 . S
H2796 C2773 0.950 . S
H2797 C2775 0.950 . S
C2798 C2799 1.349 . S
C2798 C2800 1.327 . S
C2798 H2823 0.950 . S
C2799 C2798 1.349 . S
C2799 C2815 1.349 . S
C2800 C2798 1.327 . S
C2800 C2819 1.429 . S
C2800 H2824 0.950 . S
C2801 C2818 1.574 . S
C2801 C2820 1.368 . S
C2801 H2825 0.949 . S
H2802 C2806 0.949 . S
C2803 C2804 1.349 . S
C2803 C2805 1.327 . S
C2803 H2826 0.950 . S
C2804 C2803 1.349 . S
C2804 C2816 1.349 . S
C2805 C2803 1.327 . S
C2805 C2821 1.429 . S
C2805 H2827 0.950 . S
C2806 H2802 0.949 . S
C2806 C2814 1.574 . S
C2806 C2822 1.368 . S
H2807 C2815 0.950 . S
H2808 C2813 0.950 . S
H2809 C2814 0.949 . S
H2810 C2816 0.950 . S
H2811 C2817 0.950 . S
H2812 C2818 0.949 . S
C2813 H2808 0.950 . S
C2813 C2815 1.327 . S
C2813 C2819 1.429 . S
C2814 C2806 1.574 . S
C2814 H2809 0.949 . S
C2814 C2820 1.368 . S
C2815 C2799 1.349 . S
C2815 H2807 0.950 . S
C2815 C2813 1.327 . S
C2816 C2804 1.349 . S
C2816 H2810 0.950 . S
C2816 C2817 1.327 . S
C2817 H2811 0.950 . S
C2817 C2816 1.327 . S
C2817 C2821 1.429 . S
C2818 C2801 1.574 . S
C2818 H2812 0.949 . S
C2818 C2822 1.368 . S
C2819 C2800 1.429 . S
C2819 C2813 1.429 . S
C2819 C2820 1.523 . S
C2820 C2801 1.368 . S
C2820 C2814 1.368 . S
C2820 C2819 1.523 . S
C2821 C2805 1.429 . S
C2821 C2817 1.429 . S
C2821 C2822 1.523 . S
C2822 C2806 1.368 . S
C2822 C2818 1.368 . S
C2822 C2821 1.523 . S
H2823 C2798 0.950 . S
H2824 C2800 0.950 . S
H2825 C2801 0.949 . S
H2826 C2803 0.950 . S
H2827 C2805 0.950 . S
C2828 C2829 1.349 . S
C2828 C2830 1.327 . S
C2828 H2853 0.950 . S
C2829 C2828 1.349 . S
C2829 C2845 1.349 . S
C2830 C2828 1.327 . S
C2830 C2849 1.429 . S
C2830 H2854 0.950 . S
C2831 C2848 1.574 . S
C2831 C2850 1.368 . S
C2831 H2855 0.949 . S
H2832 C2836 0.949 . S
C2833 C2834 1.349 1_556 S
C2833 C2835 1.327 . S
C2833 H2856 0.950 . S
C2834 C2833 1.349 1_554 S
C2834 C2846 1.349 . S
C2835 C2833 1.327 . S
C2835 C2851 1.429 . S
C2835 H2857 0.950 . S
C2836 H2832 0.949 . S
C2836 C2844 1.574 . S
C2836 C2852 1.368 . S
H2837 C2845 0.950 . S
H2838 C2843 0.950 . S
H2839 C2844 0.949 . S
H2840 C2846 0.950 . S
H2841 C2847 0.950 . S
H2842 C2848 0.949 . S
C2843 H2838 0.950 . S
C2843 C2845 1.327 . S
C2843 C2849 1.429 . S
C2844 C2836 1.574 . S
C2844 H2839 0.949 . S
C2844 C2850 1.368 . S
C2845 C2829 1.349 . S
C2845 H2837 0.950 . S
C2845 C2843 1.327 . S
C2846 C2834 1.349 . S
C2846 H2840 0.950 . S
C2846 C2847 1.327 . S
C2847 H2841 0.950 . S
C2847 C2846 1.327 . S
C2847 C2851 1.429 1_554 S
C2848 C2831 1.574 . S
C2848 H2842 0.949 . S
C2848 C2852 1.368 . S
C2849 C2830 1.429 . S
C2849 C2843 1.429 . S
C2849 C2850 1.523 . S
C2850 C2831 1.368 . S
C2850 C2844 1.368 . S
C2850 C2849 1.523 . S
C2851 C2835 1.429 . S
C2851 C2847 1.429 1_556 S
C2851 C2852 1.523 . S
C2852 C2836 1.368 . S
C2852 C2848 1.368 . S
C2852 C2851 1.523 . S
H2853 C2828 0.950 . S
H2854 C2830 0.950 . S
H2855 C2831 0.949 . S
H2856 C2833 0.950 . S
H2857 C2835 0.950 . S
C2858 C2859 1.349 . S
C2858 C2860 1.327 . S
C2858 H2883 0.950 . S
C2859 C2858 1.349 . S
C2859 C2875 1.349 . S
C2860 C2858 1.327 . S
C2860 C2879 1.429 . S
C2860 H2884 0.950 . S
C2861 C2878 1.574 1_655 S
C2861 C2880 1.368 . S
C2861 H2885 0.949 . S
H2862 C2866 0.949 . S
C2863 C2864 1.349 . S
C2863 C2865 1.327 . S
C2863 H2886 0.950 . S
C2864 C2863 1.349 . S
C2864 C2876 1.349 . S
C2865 C2863 1.327 . S
C2865 C2881 1.429 . S
C2865 H2887 0.950 . S
C2866 H2862 0.949 . S
C2866 C2874 1.574 . S
C2866 C2882 1.368 1_655 S
H2867 C2875 0.950 . S
H2868 C2873 0.950 . S
H2869 C2874 0.949 . S
H2870 C2876 0.950 . S
H2871 C2877 0.950 . S
H2872 C2878 0.949 . S
C2873 H2868 0.950 . S
C2873 C2875 1.327 . S
C2873 C2879 1.429 . S
C2874 C2866 1.574 . S
C2874 H2869 0.949 . S
C2874 C2880 1.368 . S
C2875 C2859 1.349 . S
C2875 H2867 0.950 . S
C2875 C2873 1.327 . S
C2876 C2864 1.349 . S
C2876 H2870 0.950 . S
C2876 C2877 1.327 . S
C2877 H2871 0.950 . S
C2877 C2876 1.327 . S
C2877 C2881 1.429 . S
C2878 C2861 1.574 1_455 S
C2878 H2872 0.949 . S
C2878 C2882 1.368 . S
C2879 C2860 1.429 . S
C2879 C2873 1.429 . S
C2879 C2880 1.523 . S
C2880 C2861 1.368 . S
C2880 C2874 1.368 . S
C2880 C2879 1.523 . S
C2881 C2865 1.429 . S
C2881 C2877 1.429 . S
C2881 C2882 1.523 . S
C2882 C2866 1.368 1_455 S
C2882 C2878 1.368 . S
C2882 C2881 1.523 . S
H2883 C2858 0.950 . S
H2884 C2860 0.950 . S
H2885 C2861 0.949 . S
H2886 C2863 0.950 . S
H2887 C2865 0.950 . S
C2888 C2889 1.349 . S
C2888 C2890 1.327 1_556 S
C2888 H2913 0.950 . S
C2889 C2888 1.349 . S
C2889 C2905 1.349 . S
C2890 C2888 1.327 1_554 S
C2890 C2909 1.429 . S
C2890 H2914 0.950 . S
C2891 C2908 1.574 . S
C2891 C2910 1.368 . S
C2891 H2915 0.949 . S
H2892 C2896 0.949 . S
C2893 C2894 1.349 . S
C2893 C2895 1.327 . S
C2893 H2916 0.950 . S
C2894 C2893 1.349 . S
C2894 C2906 1.349 . S
C2895 C2893 1.327 . S
C2895 C2911 1.429 . S
C2895 H2917 0.950 . S
C2896 H2892 0.949 . S
C2896 C2904 1.574 . S
C2896 C2912 1.368 . S
H2897 C2905 0.950 . S
H2898 C2903 0.950 . S
H2899 C2904 0.949 . S
H2900 C2906 0.950 . S
H2901 C2907 0.950 . S
H2902 C2908 0.949 . S
C2903 H2898 0.950 . S
C2903 C2905 1.327 1_554 S
C2903 C2909 1.429 . S
C2904 C2896 1.574 . S
C2904 H2899 0.949 . S
C2904 C2910 1.368 . S
C2905 C2889 1.349 . S
C2905 H2897 0.950 . S
C2905 C2903 1.327 1_556 S
C2906 C2894 1.349 . S
C2906 H2900 0.950 . S
C2906 C2907 1.327 . S
C2907 H2901 0.950 . S
C2907 C2906 1.327 . S
C2907 C2911 1.429 . S
C2908 C2891 1.574 . S
C2908 H2902 0.949 . S
C2908 C2912 1.368 . S
C2909 C2890 1.429 . S
C2909 C2903 1.429 . S
C2909 C2910 1.523 . S
C2910 C2891 1.368 . S
C2910 C2904 1.368 . S
C2910 C2909 1.523 . S
C2911 C2895 1.429 . S
C2911 C2907 1.429 . S
C2911 C2912 1.523 . S
C2912 C2896 1.368 . S
C2912 C2908 1.368 . S
C2912 C2911 1.523 . S
H2913 C2888 0.950 . S
H2914 C2890 0.950 . S
H2915 C2891 0.949 . S
H2916 C2893 0.950 . S
H2917 C2895 0.950 . S
C2918 C2919 1.349 . S
C2918 C2920 1.327 . S
C2918 H2943 0.950 . S
C2919 C2918 1.349 . S
C2919 C2935 1.349 . S
C2920 C2918 1.327 . S
C2920 C2939 1.429 . S
C2920 H2944 0.950 . S
C2921 C2938 1.574 . S
C2921 C2940 1.368 1_655 S
C2921 H2945 0.949 . S
H2922 C2926 0.949 . S
C2923 C2924 1.349 . S
C2923 C2925 1.327 . S
C2923 H2946 0.950 . S
C2924 C2923 1.349 . S
C2924 C2936 1.349 . S
C2925 C2923 1.327 . S
C2925 C2941 1.429 . S
C2925 H2947 0.950 . S
C2926 H2922 0.949 . S
C2926 C2934 1.574 1_655 S
C2926 C2942 1.368 . S
H2927 C2935 0.950 . S
H2928 C2933 0.950 . S
H2929 C2934 0.949 . S
H2930 C2936 0.950 . S
H2931 C2937 0.950 . S
H2932 C2938 0.949 . S
C2933 H2928 0.950 . S
C2933 C2935 1.327 . S
C2933 C2939 1.429 . S
C2934 C2926 1.574 1_455 S
C2934 H2929 0.949 . S
C2934 C2940 1.368 . S
C2935 C2919 1.349 . S
C2935 H2927 0.950 . S
C2935 C2933 1.327 . S
C2936 C2924 1.349 . S
C2936 H2930 0.950 . S
C2936 C2937 1.327 . S
C2937 H2931 0.950 . S
C2937 C2936 1.327 . S
C2937 C2941 1.429 . S
C2938 C2921 1.574 . S
C2938 H2932 0.949 . S
C2938 C2942 1.368 . S
C2939 C2920 1.429 . S
C2939 C2933 1.429 . S
C2939 C2940 1.523 . S
C2940 C2921 1.368 1_455 S
C2940 C2934 1.368 . S
C2940 C2939 1.523 . S
C2941 C2925 1.429 . S
C2941 C2937 1.429 . S
C2941 C2942 1.523 . S
C2942 C2926 1.368 . S
C2942 C2938 1.368 . S
C2942 C2941 1.523 . S
H2943 C2918 0.950 . S
H2944 C2920 0.950 . S
H2945 C2921 0.949 . S
H2946 C2923 0.950 . S
H2947 C2925 0.950 . S
C2948 C2949 1.349 . S
C2948 C2950 1.327 . S
C2948 H2973 0.950 . S
C2949 C2948 1.349 . S
C2949 C2965 1.349 . S
C2950 C2948 1.327 . S
C2950 C2969 1.429 . S
C2950 H2974 0.950 . S
C2951 C2968 1.574 . S
C2951 C2970 1.368 . S
C2951 H2975 0.949 . S
H2952 C2956 0.949 . S
C2953 C2954 1.349 . S
C2953 C2955 1.327 . S
C2953 H2976 0.950 . S
C2954 C2953 1.349 . S
C2954 C2966 1.349 . S
C2955 C2953 1.327 . S
C2955 C2971 1.429 . S
C2955 H2977 0.950 . S
C2956 H2952 0.949 . S
C2956 C2964 1.574 . S
C2956 C2972 1.368 . S
H2957 C2965 0.950 . S
H2958 C2963 0.950 . S
H2959 C2964 0.949 . S
H2960 C2966 0.950 . S
H2961 C2967 0.950 . S
H2962 C2968 0.949 . S
C2963 H2958 0.950 . S
C2963 C2965 1.327 . S
C2963 C2969 1.429 . S
C2964 C2956 1.574 . S
C2964 H2959 0.949 . S
C2964 C2970 1.368 . S
C2965 C2949 1.349 . S
C2965 H2957 0.950 . S
C2965 C2963 1.327 . S
C2966 C2954 1.349 . S
C2966 H2960 0.950 . S
C2966 C2967 1.327 . S
C2967 H2961 0.950 . S
C2967 C2966 1.327 . S
C2967 C2971 1.429 . S
C2968 C2951 1.574 . S
C2968 H2962 0.949 . S
C2968 C2972 1.368 . S
C2969 C2950 1.429 . S
C2969 C2963 1.429 . S
C2969 C2970 1.523 . S
C2970 C2951 1.368 . S
C2970 C2964 1.368 . S
C2970 C2969 1.523 . S
C2971 C2955 1.429 . S
C2971 C2967 1.429 . S
C2971 C2972 1.523 . S
C2972 C2956 1.368 . S
C2972 C2968 1.368 . S
C2972 C2971 1.523 . S
H2973 C2948 0.950 . S
H2974 C2950 0.950 . S
H2975 C2951 0.949 . S
H2976 C2953 0.950 . S
H2977 C2955 0.950 . S
C2978 C2979 1.349 . S
C2978 C2980 1.327 . S
C2978 H3003 0.950 . S
C2979 C2978 1.349 . S
C2979 C2995 1.349 . S
C2980 C2978 1.327 . S
C2980 C2999 1.429 . S
C2980 H3004 0.950 . S
C2981 C2998 1.574 . S
C2981 C3000 1.368 . S
C2981 H3005 0.949 . S
H2982 C2986 0.949 . S
C2983 C2984 1.349 . S
C2983 C2985 1.327 . S
C2983 H3006 0.950 . S
C2984 C2983 1.349 . S
C2984 C2996 1.349 . S
C2985 C2983 1.327 . S
C2985 C3001 1.429 . S
C2985 H3007 0.950 . S
C2986 H2982 0.949 . S
C2986 C2994 1.574 . S
C2986 C3002 1.368 . S
H2987 C2995 0.950 . S
H2988 C2993 0.950 . S
H2989 C2994 0.949 . S
H2990 C2996 0.950 . S
H2991 C2997 0.950 . S
H2992 C2998 0.949 . S
C2993 H2988 0.950 . S
C2993 C2995 1.327 . S
C2993 C2999 1.429 . S
C2994 C2986 1.574 . S
C2994 H2989 0.949 . S
C2994 C3000 1.368 . S
C2995 C2979 1.349 . S
C2995 H2987 0.950 . S
C2995 C2993 1.327 . S
C2996 C2984 1.349 . S
C2996 H2990 0.950 . S
C2996 C2997 1.327 . S
C2997 H2991 0.950 . S
C2997 C2996 1.327 . S
C2997 C3001 1.429 . S
C2998 C2981 1.574 . S
C2998 H2992 0.949 . S
C2998 C3002 1.368 . S
C2999 C2980 1.429 . S
C2999 C2993 1.429 . S
C2999 C3000 1.523 . S
C3000 C2981 1.368 . S
C3000 C2994 1.368 . S
C3000 C2999 1.523 . S
C3001 C2985 1.429 . S
C3001 C2997 1.429 . S
C3001 C3002 1.523 . S
C3002 C2986 1.368 . S
C3002 C2998 1.368 . S
C3002 C3001 1.523 . S
H3003 C2978 0.950 . S
H3004 C2980 0.950 . S
H3005 C2981 0.949 . S
H3006 C2983 0.950 . S
H3007 C2985 0.950 . S
C3008 C3009 1.349 . S
C3008 C3010 1.327 . S
C3008 H3033 0.950 . S
C3009 C3008 1.349 . S
C3009 C3025 1.349 . S
C3010 C3008 1.327 . S
C3010 C3029 1.429 . S
C3010 H3034 0.950 . S
C3011 C3028 1.574 . S
C3011 C3030 1.368 . S
C3011 H3035 0.949 . S
H3012 C3016 0.949 . S
C3013 C3014 1.349 . S
C3013 C3015 1.327 . S
C3013 H3036 0.950 1_554 S
C3014 C3013 1.349 . S
C3014 C3026 1.349 . S
C3015 C3013 1.327 . S
C3015 C3031 1.429 . S
C3015 H3037 0.950 . S
C3016 H3012 0.949 . S
C3016 C3024 1.574 . S
C3016 C3032 1.368 . S
H3017 C3025 0.950 . S
H3018 C3023 0.950 . S
H3019 C3024 0.949 . S
H3020 C3026 0.950 . S
H3021 C3027 0.950 . S
H3022 C3028 0.949 . S
C3023 H3018 0.950 . S
C3023 C3025 1.327 . S
C3023 C3029 1.429 . S
C3024 C3016 1.574 . S
C3024 H3019 0.949 . S
C3024 C3030 1.368 . S
C3025 C3009 1.349 . S
C3025 H3017 0.950 . S
C3025 C3023 1.327 . S
C3026 C3014 1.349 . S
C3026 H3020 0.950 . S
C3026 C3027 1.327 . S
C3027 H3021 0.950 . S
C3027 C3026 1.327 . S
C3027 C3031 1.429 . S
C3028 C3011 1.574 . S
C3028 H3022 0.949 . S
C3028 C3032 1.368 . S
C3029 C3010 1.429 . S
C3029 C3023 1.429 . S
C3029 C3030 1.523 . S
C3030 C3011 1.368 . S
C3030 C3024 1.368 . S
C3030 C3029 1.523 . S
C3031 C3015 1.429 . S
C3031 C3027 1.429 . S
C3031 C3032 1.523 . S
C3032 C3016 1.368 . S
C3032 C3028 1.368 . S
C3032 C3031 1.523 . S
H3033 C3008 0.950 . S
H3034 C3010 0.950 . S
H3035 C3011 0.949 . S
H3036 C3013 0.950 1_556 S
H3037 C3015 0.950 . S
C3038 C3039 1.349 . S
C3038 C3040 1.327 . S
C3038 H3063 0.950 . S
C3039 C3038 1.349 . S
C3039 C3055 1.349 . S
C3040 C3038 1.327 . S
C3040 C3059 1.429 . S
C3040 H3064 0.950 . S
C3041 C3058 1.574 . S
C3041 C3060 1.368 . S
C3041 H3065 0.949 . S
H3042 C3046 0.949 . S
C3043 C3044 1.349 . S
C3043 C3045 1.327 . S
C3043 H3066 0.950 . S
C3044 C3043 1.349 . S
C3044 C3056 1.349 . S
C3045 C3043 1.327 . S
C3045 C3061 1.429 . S
C3045 H3067 0.950 . S
C3046 H3042 0.949 . S
C3046 C3054 1.574 . S
C3046 C3062 1.368 . S
H3047 C3055 0.950 . S
H3048 C3053 0.950 . S
H3049 C3054 0.949 . S
H3050 C3056 0.950 . S
H3051 C3057 0.950 . S
H3052 C3058 0.949 . S
C3053 H3048 0.950 . S
C3053 C3055 1.327 . S
C3053 C3059 1.429 . S
C3054 C3046 1.574 . S
C3054 H3049 0.949 . S
C3054 C3060 1.368 . S
C3055 C3039 1.349 . S
C3055 H3047 0.950 . S
C3055 C3053 1.327 . S
C3056 C3044 1.349 . S
C3056 H3050 0.950 . S
C3056 C3057 1.327 . S
C3057 H3051 0.950 . S
C3057 C3056 1.327 . S
C3057 C3061 1.429 . S
C3058 C3041 1.574 . S
C3058 H3052 0.949 . S
C3058 C3062 1.368 . S
C3059 C3040 1.429 . S
C3059 C3053 1.429 . S
C3059 C3060 1.523 . S
C3060 C3041 1.368 . S
C3060 C3054 1.368 . S
C3060 C3059 1.523 . S
C3061 C3045 1.429 . S
C3061 C3057 1.429 . S
C3061 C3062 1.523 . S
C3062 C3046 1.368 . S
C3062 C3058 1.368 . S
C3062 C3061 1.523 . S
H3063 C3038 0.950 . S
H3064 C3040 0.950 . S
H3065 C3041 0.949 . S
H3066 C3043 0.950 . S
H3067 C3045 0.950 . S
C3068 C3069 1.349 . S
C3068 C3070 1.327 . S
C3068 H3093 0.950 . S
C3069 C3068 1.349 . S
C3069 C3085 1.349 . S
C3070 C3068 1.327 . S
C3070 C3089 1.429 . S
C3070 H3094 0.950 . S
C3071 C3088 1.574 . S
C3071 C3090 1.368 . S
C3071 H3095 0.949 . S
H3072 C3076 0.949 . S
C3073 C3074 1.349 . S
C3073 C3075 1.327 . S
C3073 H3096 0.950 . S
C3074 C3073 1.349 . S
C3074 C3086 1.349 . S
C3075 C3073 1.327 . S
C3075 C3091 1.429 . S
C3075 H3097 0.950 . S
C3076 H3072 0.949 . S
C3076 C3084 1.574 . S
C3076 C3092 1.368 . S
H3077 C3085 0.950 . S
H3078 C3083 0.950 . S
H3079 C3084 0.949 . S
H3080 C3086 0.950 . S
H3081 C3087 0.950 . S
H3082 C3088 0.949 . S
C3083 H3078 0.950 . S
C3083 C3085 1.327 . S
C3083 C3089 1.429 . S
C3084 C3076 1.574 . S
C3084 H3079 0.949 . S
C3084 C3090 1.368 . S
C3085 C3069 1.349 . S
C3085 H3077 0.950 . S
C3085 C3083 1.327 . S
C3086 C3074 1.349 . S
C3086 H3080 0.950 . S
C3086 C3087 1.327 . S
C3087 H3081 0.950 . S
C3087 C3086 1.327 . S
C3087 C3091 1.429 . S
C3088 C3071 1.574 . S
C3088 H3082 0.949 . S
C3088 C3092 1.368 . S
C3089 C3070 1.429 . S
C3089 C3083 1.429 . S
C3089 C3090 1.523 . S
C3090 C3071 1.368 . S
C3090 C3084 1.368 . S
C3090 C3089 1.523 . S
C3091 C3075 1.429 . S
C3091 C3087 1.429 . S
C3091 C3092 1.523 . S
C3092 C3076 1.368 . S
C3092 C3088 1.368 . S
C3092 C3091 1.523 . S
H3093 C3068 0.950 . S
H3094 C3070 0.950 . S
H3095 C3071 0.949 . S
H3096 C3073 0.950 . S
H3097 C3075 0.950 . S
C3098 C3099 1.349 . S
C3098 C3100 1.327 . S
C3098 H3123 0.950 . S
C3099 C3098 1.349 . S
C3099 C3115 1.349 . S
C3100 C3098 1.327 . S
C3100 C3119 1.429 . S
C3100 H3124 0.950 . S
C3101 C3118 1.574 . S
C3101 C3120 1.368 . S
C3101 H3125 0.949 . S
H3102 C3106 0.949 . S
C3103 C3104 1.349 . S
C3103 C3105 1.327 . S
C3103 H3126 0.950 . S
C3104 C3103 1.349 . S
C3104 C3116 1.349 . S
C3105 C3103 1.327 . S
C3105 C3121 1.429 . S
C3105 H3127 0.950 . S
C3106 H3102 0.949 . S
C3106 C3114 1.574 . S
C3106 C3122 1.368 . S
H3107 C3115 0.950 . S
H3108 C3113 0.950 . S
H3109 C3114 0.949 . S
H3110 C3116 0.950 . S
H3111 C3117 0.950 . S
H3112 C3118 0.949 . S
C3113 H3108 0.950 . S
C3113 C3115 1.327 . S
C3113 C3119 1.429 . S
C3114 C3106 1.574 . S
C3114 H3109 0.949 . S
C3114 C3120 1.368 . S
C3115 C3099 1.349 . S
C3115 H3107 0.950 . S
C3115 C3113 1.327 . S
C3116 C3104 1.349 . S
C3116 H3110 0.950 . S
C3116 C3117 1.327 . S
C3117 H3111 0.950 . S
C3117 C3116 1.327 . S
C3117 C3121 1.429 . S
C3118 C3101 1.574 . S
C3118 H3112 0.949 . S
C3118 C3122 1.368 . S
C3119 C3100 1.429 . S
C3119 C3113 1.429 . S
C3119 C3120 1.523 . S
C3120 C3101 1.368 . S
C3120 C3114 1.368 . S
C3120 C3119 1.523 . S
C3121 C3105 1.429 . S
C3121 C3117 1.429 . S
C3121 C3122 1.523 . S
C3122 C3106 1.368 . S
C3122 C3118 1.368 . S
C3122 C3121 1.523 . S
H3123 C3098 0.950 . S
H3124 C3100 0.950 . S
H3125 C3101 0.949 . S
H3126 C3103 0.950 . S
H3127 C3105 0.950 . S
C3128 C3129 1.349 . S
C3128 C3130 1.327 . S
C3128 H3153 0.950 . S
C3129 C3128 1.349 . S
C3129 C3145 1.349 1_556 S
C3130 C3128 1.327 . S
C3130 C3149 1.429 . S
C3130 H3154 0.950 . S
C3131 C3148 1.574 . S
C3131 C3150 1.368 . S
C3131 H3155 0.949 . S
H3132 C3136 0.949 . S
C3133 C3134 1.349 . S
C3133 C3135 1.327 . S
C3133 H3156 0.950 . S
C3134 C3133 1.349 . S
C3134 C3146 1.349 . S
C3135 C3133 1.327 . S
C3135 C3151 1.429 . S
C3135 H3157 0.950 . S
C3136 H3132 0.949 . S
C3136 C3144 1.574 . S
C3136 C3152 1.368 . S
H3137 C3145 0.950 . S
H3138 C3143 0.950 . S
H3139 C3144 0.949 . S
H3140 C3146 0.950 . S
H3141 C3147 0.950 . S
H3142 C3148 0.949 . S
C3143 H3138 0.950 . S
C3143 C3145 1.327 1_556 S
C3143 C3149 1.429 . S
C3144 C3136 1.574 . S
C3144 H3139 0.949 . S
C3144 C3150 1.368 . S
C3145 C3129 1.349 1_554 S
C3145 H3137 0.950 . S
C3145 C3143 1.327 1_554 S
C3146 C3134 1.349 . S
C3146 H3140 0.950 . S
C3146 C3147 1.327 . S
C3147 H3141 0.950 . S
C3147 C3146 1.327 . S
C3147 C3151 1.429 . S
C3148 C3131 1.574 . S
C3148 H3142 0.949 . S
C3148 C3152 1.368 . S
C3149 C3130 1.429 . S
C3149 C3143 1.429 . S
C3149 C3150 1.523 . S
C3150 C3131 1.368 . S
C3150 C3144 1.368 . S
C3150 C3149 1.523 . S
C3151 C3135 1.429 . S
C3151 C3147 1.429 . S
C3151 C3152 1.523 . S
C3152 C3136 1.368 . S
C3152 C3148 1.368 . S
C3152 C3151 1.523 . S
H3153 C3128 0.950 . S
H3154 C3130 0.950 . S
H3155 C3131 0.949 . S
H3156 C3133 0.950 . S
H3157 C3135 0.950 . S
C3158 C3159 1.349 . S
C3158 C3160 1.327 . S
C3158 H3183 0.950 . S
C3159 C3158 1.349 . S
C3159 C3175 1.349 . S
C3160 C3158 1.327 . S
C3160 C3179 1.429 . S
C3160 H3184 0.950 . S
C3161 C3178 1.574 . S
C3161 C3180 1.368 . S
C3161 H3185 0.949 . S
H3162 C3166 0.949 . S
C3163 C3164 1.349 . S
C3163 C3165 1.327 . S
C3163 H3186 0.950 . S
C3164 C3163 1.349 . S
C3164 C3176 1.349 . S
C3165 C3163 1.327 . S
C3165 C3181 1.429 . S
C3165 H3187 0.950 . S
C3166 H3162 0.949 . S
C3166 C3174 1.574 . S
C3166 C3182 1.368 . S
H3167 C3175 0.950 . S
H3168 C3173 0.950 . S
H3169 C3174 0.949 . S
H3170 C3176 0.950 . S
H3171 C3177 0.950 . S
H3172 C3178 0.949 . S
C3173 H3168 0.950 . S
C3173 C3175 1.327 . S
C3173 C3179 1.429 . S
C3174 C3166 1.574 . S
C3174 H3169 0.949 . S
C3174 C3180 1.368 . S
C3175 C3159 1.349 . S
C3175 H3167 0.950 . S
C3175 C3173 1.327 . S
C3176 C3164 1.349 . S
C3176 H3170 0.950 . S
C3176 C3177 1.327 . S
C3177 H3171 0.950 . S
C3177 C3176 1.327 . S
C3177 C3181 1.429 . S
C3178 C3161 1.574 . S
C3178 H3172 0.949 . S
C3178 C3182 1.368 . S
C3179 C3160 1.429 . S
C3179 C3173 1.429 . S
C3179 C3180 1.523 . S
C3180 C3161 1.368 . S
C3180 C3174 1.368 . S
C3180 C3179 1.523 . S
C3181 C3165 1.429 . S
C3181 C3177 1.429 . S
C3181 C3182 1.523 . S
C3182 C3166 1.368 . S
C3182 C3178 1.368 . S
C3182 C3181 1.523 . S
H3183 C3158 0.950 . S
H3184 C3160 0.950 . S
H3185 C3161 0.949 . S
H3186 C3163 0.950 . S
H3187 C3165 0.950 . S
C3188 C3189 1.349 . S
C3188 C3190 1.327 . S
C3188 H3213 0.950 . S
C3189 C3188 1.349 . S
C3189 C3205 1.349 . S
C3190 C3188 1.327 . S
C3190 C3209 1.429 . S
C3190 H3214 0.950 . S
C3191 C3208 1.574 . S
C3191 C3210 1.368 . S
C3191 H3215 0.949 . S
H3192 C3196 0.949 . S
C3193 C3194 1.349 . S
C3193 C3195 1.327 . S
C3193 H3216 0.950 . S
C3194 C3193 1.349 . S
C3194 C3206 1.349 . S
C3195 C3193 1.327 . S
C3195 C3211 1.429 . S
C3195 H3217 0.950 . S
C3196 H3192 0.949 . S
C3196 C3204 1.574 . S
C3196 C3212 1.368 . S
H3197 C3205 0.950 . S
H3198 C3203 0.950 . S
H3199 C3204 0.949 . S
H3200 C3206 0.950 . S
H3201 C3207 0.950 . S
H3202 C3208 0.949 . S
C3203 H3198 0.950 . S
C3203 C3205 1.327 . S
C3203 C3209 1.429 . S
C3204 C3196 1.574 . S
C3204 H3199 0.949 . S
C3204 C3210 1.368 . S
C3205 C3189 1.349 . S
C3205 H3197 0.950 . S
C3205 C3203 1.327 . S
C3206 C3194 1.349 . S
C3206 H3200 0.950 . S
C3206 C3207 1.327 . S
C3207 H3201 0.950 . S
C3207 C3206 1.327 . S
C3207 C3211 1.429 . S
C3208 C3191 1.574 . S
C3208 H3202 0.949 . S
C3208 C3212 1.368 . S
C3209 C3190 1.429 . S
C3209 C3203 1.429 . S
C3209 C3210 1.523 . S
C3210 C3191 1.368 . S
C3210 C3204 1.368 . S
C3210 C3209 1.523 . S
C3211 C3195 1.429 . S
C3211 C3207 1.429 . S
C3211 C3212 1.523 . S
C3212 C3196 1.368 . S
C3212 C3208 1.368 . S
C3212 C3211 1.523 . S
H3213 C3188 0.950 . S
H3214 C3190 0.950 . S
H3215 C3191 0.949 . S
H3216 C3193 0.950 . S
H3217 C3195 0.950 . S
C3218 C3219 1.349 . S
C3218 C3220 1.327 . S
C3218 H3243 0.950 . S
C3219 C3218 1.349 . S
C3219 C3235 1.349 . S
C3220 C3218 1.327 . S
C3220 C3239 1.429 . S
C3220 H3244 0.950 . S
C3221 C3238 1.574 . S
C3221 C3240 1.368 . S
C3221 H3245 0.949 . S
H3222 C3226 0.949 . S
C3223 C3224 1.349 . S
C3223 C3225 1.327 . S
C3223 H3246 0.950 . S
C3224 C3223 1.349 . S
C3224 C3236 1.349 . S
C3225 C3223 1.327 . S
C3225 C3241 1.429 . S
C3225 H3247 0.950 . S
C3226 H3222 0.949 . S
C3226 C3234 1.574 . S
C3226 C3242 1.368 . S
H3227 C3235 0.950 . S
H3228 C3233 0.950 . S
H3229 C3234 0.949 . S
H3230 C3236 0.950 . S
H3231 C3237 0.950 . S
H3232 C3238 0.949 . S
C3233 H3228 0.950 . S
C3233 C3235 1.327 . S
C3233 C3239 1.429 . S
C3234 C3226 1.574 . S
C3234 H3229 0.949 . S
C3234 C3240 1.368 . S
C3235 C3219 1.349 . S
C3235 H3227 0.950 . S
C3235 C3233 1.327 . S
C3236 C3224 1.349 . S
C3236 H3230 0.950 . S
C3236 C3237 1.327 . S
C3237 H3231 0.950 . S
C3237 C3236 1.327 . S
C3237 C3241 1.429 . S
C3238 C3221 1.574 . S
C3238 H3232 0.949 . S
C3238 C3242 1.368 . S
C3239 C3220 1.429 . S
C3239 C3233 1.429 . S
C3239 C3240 1.523 . S
C3240 C3221 1.368 . S
C3240 C3234 1.368 . S
C3240 C3239 1.523 . S
C3241 C3225 1.429 . S
C3241 C3237 1.429 . S
C3241 C3242 1.523 . S
C3242 C3226 1.368 . S
C3242 C3238 1.368 . S
C3242 C3241 1.523 . S
H3243 C3218 0.950 . S
H3244 C3220 0.950 . S
H3245 C3221 0.949 . S
H3246 C3223 0.950 . S
H3247 C3225 0.950 . S
C3248 C3249 1.349 . S
C3248 C3250 1.327 . S
C3248 H3273 0.950 . S
C3249 C3248 1.349 . S
C3249 C3265 1.349 . S
C3250 C3248 1.327 . S
C3250 C3269 1.429 . S
C3250 H3274 0.950 . S
C3251 C3268 1.574 . S
C3251 C3270 1.368 . S
C3251 H3275 0.949 . S
H3252 C3256 0.949 . S
C3253 C3254 1.349 . S
C3253 C3255 1.327 . S
C3253 H3276 0.950 . S
C3254 C3253 1.349 . S
C3254 C3266 1.349 . S
C3255 C3253 1.327 . S
C3255 C3271 1.429 . S
C3255 H3277 0.950 . S
C3256 H3252 0.949 . S
C3256 C3264 1.574 . S
C3256 C3272 1.368 . S
H3257 C3265 0.950 . S
H3258 C3263 0.950 . S
H3259 C3264 0.949 . S
H3260 C3266 0.950 . S
H3261 C3267 0.950 . S
H3262 C3268 0.949 . S
C3263 H3258 0.950 . S
C3263 C3265 1.327 . S
C3263 C3269 1.429 . S
C3264 C3256 1.574 . S
C3264 H3259 0.949 . S
C3264 C3270 1.368 . S
C3265 C3249 1.349 . S
C3265 H3257 0.950 . S
C3265 C3263 1.327 . S
C3266 C3254 1.349 . S
C3266 H3260 0.950 . S
C3266 C3267 1.327 . S
C3267 H3261 0.950 . S
C3267 C3266 1.327 . S
C3267 C3271 1.429 . S
C3268 C3251 1.574 . S
C3268 H3262 0.949 . S
C3268 C3272 1.368 . S
C3269 C3250 1.429 . S
C3269 C3263 1.429 . S
C3269 C3270 1.523 . S
C3270 C3251 1.368 . S
C3270 C3264 1.368 . S
C3270 C3269 1.523 . S
C3271 C3255 1.429 . S
C3271 C3267 1.429 . S
C3271 C3272 1.523 . S
C3272 C3256 1.368 . S
C3272 C3268 1.368 . S
C3272 C3271 1.523 . S
H3273 C3248 0.950 . S
H3274 C3250 0.950 . S
H3275 C3251 0.949 . S
H3276 C3253 0.950 . S
H3277 C3255 0.950 . S
C3278 C3279 1.349 . S
C3278 C3280 1.327 . S
C3278 H3303 0.950 . S
C3279 C3278 1.349 . S
C3279 C3295 1.349 . S
C3280 C3278 1.327 . S
C3280 C3299 1.429 . S
C3280 H3304 0.950 . S
C3281 C3298 1.574 . S
C3281 C3300 1.368 . S
C3281 H3305 0.949 . S
H3282 C3286 0.949 . S
C3283 C3284 1.349 . S
C3283 C3285 1.327 . S
C3283 H3306 0.950 . S
C3284 C3283 1.349 . S
C3284 C3296 1.349 1_556 S
C3285 C3283 1.327 . S
C3285 C3301 1.429 . S
C3285 H3307 0.950 . S
C3286 H3282 0.949 . S
C3286 C3294 1.574 . S
C3286 C3302 1.368 . S
H3287 C3295 0.950 . S
H3288 C3293 0.950 . S
H3289 C3294 0.949 . S
H3290 C3296 0.950 . S
H3291 C3297 0.950 . S
H3292 C3298 0.949 . S
C3293 H3288 0.950 . S
C3293 C3295 1.327 . S
C3293 C3299 1.429 . S
C3294 C3286 1.574 . S
C3294 H3289 0.949 . S
C3294 C3300 1.368 . S
C3295 C3279 1.349 . S
C3295 H3287 0.950 . S
C3295 C3293 1.327 . S
C3296 C3284 1.349 1_554 S
C3296 H3290 0.950 . S
C3296 C3297 1.327 1_554 S
C3297 H3291 0.950 . S
C3297 C3296 1.327 1_556 S
C3297 C3301 1.429 . S
C3298 C3281 1.574 . S
C3298 H3292 0.949 . S
C3298 C3302 1.368 . S
C3299 C3280 1.429 . S
C3299 C3293 1.429 . S
C3299 C3300 1.523 . S
C3300 C3281 1.368 . S
C3300 C3294 1.368 . S
C3300 C3299 1.523 . S
C3301 C3285 1.429 . S
C3301 C3297 1.429 . S
C3301 C3302 1.523 . S
C3302 C3286 1.368 . S
C3302 C3298 1.368 . S
C3302 C3301 1.523 . S
H3303 C3278 0.950 . S
H3304 C3280 0.950 . S
H3305 C3281 0.949 . S
H3306 C3283 0.950 . S
H3307 C3285 0.950 . S
C3308 C3309 1.349 . S
C3308 C3310 1.327 . S
C3308 H3333 0.950 . S
C3309 C3308 1.349 . S
C3309 C3325 1.349 . S
C3310 C3308 1.327 . S
C3310 C3329 1.429 . S
C3310 H3334 0.950 . S
C3311 C3328 1.574 . S
C3311 C3330 1.368 . S
C3311 H3335 0.949 . S
H3312 C3316 0.949 . S
C3313 C3314 1.349 . S
C3313 C3315 1.327 . S
C3313 H3336 0.950 . S
C3314 C3313 1.349 . S
C3314 C3326 1.349 . S
C3315 C3313 1.327 . S
C3315 C3331 1.429 . S
C3315 H3337 0.950 . S
C3316 H3312 0.949 . S
C3316 C3324 1.574 . S
C3316 C3332 1.368 . S
H3317 C3325 0.950 1_556 S
H3318 C3323 0.950 . S
H3319 C3324 0.949 . S
H3320 C3326 0.950 . S
H3321 C3327 0.950 . S
H3322 C3328 0.949 . S
C3323 H3318 0.950 . S
C3323 C3325 1.327 . S
C3323 C3329 1.429 . S
C3324 C3316 1.574 . S
C3324 H3319 0.949 . S
C3324 C3330 1.368 . S
C3325 C3309 1.349 . S
C3325 H3317 0.950 1_554 S
C3325 C3323 1.327 . S
C3326 C3314 1.349 . S
C3326 H3320 0.950 . S
C3326 C3327 1.327 . S
C3327 H3321 0.950 . S
C3327 C3326 1.327 . S
C3327 C3331 1.429 . S
C3328 C3311 1.574 . S
C3328 H3322 0.949 . S
C3328 C3332 1.368 . S
C3329 C3310 1.429 . S
C3329 C3323 1.429 . S
C3329 C3330 1.523 . S
C3330 C3311 1.368 . S
C3330 C3324 1.368 . S
C3330 C3329 1.523 . S
C3331 C3315 1.429 . S
C3331 C3327 1.429 . S
C3331 C3332 1.523 . S
C3332 C3316 1.368 . S
C3332 C3328 1.368 . S
C3332 C3331 1.523 . S
H3333 C3308 0.950 . S
H3334 C3310 0.950 . S
H3335 C3311 0.949 . S
H3336 C3313 0.950 . S
H3337 C3315 0.950 . S
C3338 C3339 1.349 . S
C3338 C3340 1.327 . S
C3338 H3363 0.950 . S
C3339 C3338 1.349 . S
C3339 C3355 1.349 . S
C3340 C3338 1.327 . S
C3340 C3359 1.429 . S
C3340 H3364 0.950 . S
C3341 C3358 1.574 . S
C3341 C3360 1.368 . S
C3341 H3365 0.949 . S
H3342 C3346 0.949 . S
C3343 C3344 1.349 . S
C3343 C3345 1.327 . S
C3343 H3366 0.950 . S
C3344 C3343 1.349 . S
C3344 C3356 1.349 . S
C3345 C3343 1.327 . S
C3345 C3361 1.429 . S
C3345 H3367 0.950 . S
C3346 H3342 0.949 . S
C3346 C3354 1.574 . S
C3346 C3362 1.368 . S
H3347 C3355 0.950 . S
H3348 C3353 0.950 . S
H3349 C3354 0.949 . S
H3350 C3356 0.950 . S
H3351 C3357 0.950 . S
H3352 C3358 0.949 . S
C3353 H3348 0.950 . S
C3353 C3355 1.327 . S
C3353 C3359 1.429 . S
C3354 C3346 1.574 . S
C3354 H3349 0.949 . S
C3354 C3360 1.368 . S
C3355 C3339 1.349 . S
C3355 H3347 0.950 . S
C3355 C3353 1.327 . S
C3356 C3344 1.349 . S
C3356 H3350 0.950 . S
C3356 C3357 1.327 . S
C3357 H3351 0.950 . S
C3357 C3356 1.327 . S
C3357 C3361 1.429 . S
C3358 C3341 1.574 . S
C3358 H3352 0.949 . S
C3358 C3362 1.368 . S
C3359 C3340 1.429 . S
C3359 C3353 1.429 . S
C3359 C3360 1.523 . S
C3360 C3341 1.368 . S
C3360 C3354 1.368 . S
C3360 C3359 1.523 . S
C3361 C3345 1.429 . S
C3361 C3357 1.429 . S
C3361 C3362 1.523 . S
C3362 C3346 1.368 . S
C3362 C3358 1.368 . S
C3362 C3361 1.523 . S
H3363 C3338 0.950 . S
H3364 C3340 0.950 . S
H3365 C3341 0.949 . S
H3366 C3343 0.950 . S
H3367 C3345 0.950 . S
C3368 C3369 1.349 . S
C3368 C3370 1.327 . S
C3368 H3393 0.950 . S
C3369 C3368 1.349 . S
C3369 C3385 1.349 . S
C3370 C3368 1.327 . S
C3370 C3389 1.429 . S
C3370 H3394 0.950 . S
C3371 C3388 1.574 . S
C3371 C3390 1.368 . S
C3371 H3395 0.949 . S
H3372 C3376 0.949 . S
C3373 C3374 1.349 . S
C3373 C3375 1.327 . S
C3373 H3396 0.950 . S
C3374 C3373 1.349 . S
C3374 C3386 1.349 . S
C3375 C3373 1.327 . S
C3375 C3391 1.429 . S
C3375 H3397 0.950 . S
C3376 H3372 0.949 . S
C3376 C3384 1.574 . S
C3376 C3392 1.368 . S
H3377 C3385 0.950 . S
H3378 C3383 0.950 . S
H3379 C3384 0.949 . S
H3380 C3386 0.950 . S
H3381 C3387 0.950 . S
H3382 C3388 0.949 . S
C3383 H3378 0.950 . S
C3383 C3385 1.327 . S
C3383 C3389 1.429 . S
C3384 C3376 1.574 . S
C3384 H3379 0.949 . S
C3384 C3390 1.368 . S
C3385 C3369 1.349 . S
C3385 H3377 0.950 . S
C3385 C3383 1.327 . S
C3386 C3374 1.349 . S
C3386 H3380 0.950 . S
C3386 C3387 1.327 . S
C3387 H3381 0.950 . S
C3387 C3386 1.327 . S
C3387 C3391 1.429 . S
C3388 C3371 1.574 . S
C3388 H3382 0.949 . S
C3388 C3392 1.368 . S
C3389 C3370 1.429 . S
C3389 C3383 1.429 . S
C3389 C3390 1.523 . S
C3390 C3371 1.368 . S
C3390 C3384 1.368 . S
C3390 C3389 1.523 . S
C3391 C3375 1.429 . S
C3391 C3387 1.429 . S
C3391 C3392 1.523 . S
C3392 C3376 1.368 . S
C3392 C3388 1.368 . S
C3392 C3391 1.523 . S
H3393 C3368 0.950 . S
H3394 C3370 0.950 . S
H3395 C3371 0.949 . S
H3396 C3373 0.950 . S
H3397 C3375 0.950 . S
C3398 C3399 1.349 . S
C3398 C3400 1.327 . S
C3398 H3423 0.950 . S
C3399 C3398 1.349 . S
C3399 C3415 1.349 . S
C3400 C3398 1.327 . S
C3400 C3419 1.429 . S
C3400 H3424 0.950 . S
C3401 C3418 1.574 . S
C3401 C3420 1.368 . S
C3401 H3425 0.949 . S
H3402 C3406 0.949 . S
C3403 C3404 1.349 . S
C3403 C3405 1.327 . S
C3403 H3426 0.950 . S
C3404 C3403 1.349 . S
C3404 C3416 1.349 . S
C3405 C3403 1.327 . S
C3405 C3421 1.429 . S
C3405 H3427 0.950 . S
C3406 H3402 0.949 . S
C3406 C3414 1.574 . S
C3406 C3422 1.368 . S
H3407 C3415 0.950 . S
H3408 C3413 0.950 . S
H3409 C3414 0.949 . S
H3410 C3416 0.950 . S
H3411 C3417 0.950 . S
H3412 C3418 0.949 . S
C3413 H3408 0.950 . S
C3413 C3415 1.327 . S
C3413 C3419 1.429 . S
C3414 C3406 1.574 . S
C3414 H3409 0.949 . S
C3414 C3420 1.368 . S
C3415 C3399 1.349 . S
C3415 H3407 0.950 . S
C3415 C3413 1.327 . S
C3416 C3404 1.349 . S
C3416 H3410 0.950 . S
C3416 C3417 1.327 . S
C3417 H3411 0.950 . S
C3417 C3416 1.327 . S
C3417 C3421 1.429 . S
C3418 C3401 1.574 . S
C3418 H3412 0.949 . S
C3418 C3422 1.368 . S
C3419 C3400 1.429 . S
C3419 C3413 1.429 . S
C3419 C3420 1.523 . S
C3420 C3401 1.368 . S
C3420 C3414 1.368 . S
C3420 C3419 1.523 . S
C3421 C3405 1.429 . S
C3421 C3417 1.429 . S
C3421 C3422 1.523 . S
C3422 C3406 1.368 . S
C3422 C3418 1.368 . S
C3422 C3421 1.523 . S
H3423 C3398 0.950 . S
H3424 C3400 0.950 . S
H3425 C3401 0.949 . S
H3426 C3403 0.950 . S
H3427 C3405 0.950 . S
C3428 C3429 1.349 1_554 S
C3428 C3430 1.327 1_554 S
C3428 H3453 0.950 . S
C3429 C3428 1.349 1_556 S
C3429 C3445 1.349 . S
C3430 C3428 1.327 1_556 S
C3430 C3449 1.429 . S
C3430 H3454 0.950 . S
C3431 C3448 1.574 . S
C3431 C3450 1.368 . S
C3431 H3455 0.949 . S
H3432 C3436 0.949 . S
C3433 C3434 1.349 . S
C3433 C3435 1.327 . S
C3433 H3456 0.950 . S
C3434 C3433 1.349 . S
C3434 C3446 1.349 . S
C3435 C3433 1.327 . S
C3435 C3451 1.429 . S
C3435 H3457 0.950 . S
C3436 H3432 0.949 . S
C3436 C3444 1.574 . S
C3436 C3452 1.368 . S
H3437 C3445 0.950 . S
H3438 C3443 0.950 . S
H3439 C3444 0.949 . S
H3440 C3446 0.950 . S
H3441 C3447 0.950 . S
H3442 C3448 0.949 . S
C3443 H3438 0.950 . S
C3443 C3445 1.327 . S
C3443 C3449 1.429 . S
C3444 C3436 1.574 . S
C3444 H3439 0.949 . S
C3444 C3450 1.368 . S
C3445 C3429 1.349 . S
C3445 H3437 0.950 . S
C3445 C3443 1.327 . S
C3446 C3434 1.349 . S
C3446 H3440 0.950 . S
C3446 C3447 1.327 . S
C3447 H3441 0.950 . S
C3447 C3446 1.327 . S
C3447 C3451 1.429 . S
C3448 C3431 1.574 . S
C3448 H3442 0.949 . S
C3448 C3452 1.368 . S
C3449 C3430 1.429 . S
C3449 C3443 1.429 . S
C3449 C3450 1.523 . S
C3450 C3431 1.368 . S
C3450 C3444 1.368 . S
C3450 C3449 1.523 . S
C3451 C3435 1.429 . S
C3451 C3447 1.429 . S
C3451 C3452 1.523 . S
C3452 C3436 1.368 . S
C3452 C3448 1.368 . S
C3452 C3451 1.523 . S
H3453 C3428 0.950 . S
H3454 C3430 0.950 . S
H3455 C3431 0.949 . S
H3456 C3433 0.950 . S
H3457 C3435 0.950 . S
C3458 C3459 1.349 . S
C3458 C3460 1.327 . S
C3458 H3483 0.950 . S
C3459 C3458 1.349 . S
C3459 C3475 1.349 . S
C3460 C3458 1.327 . S
C3460 C3479 1.429 . S
C3460 H3484 0.950 . S
C3461 C3478 1.574 . S
C3461 C3480 1.368 . S
C3461 H3485 0.949 . S
H3462 C3466 0.949 . S
C3463 C3464 1.349 . S
C3463 C3465 1.327 . S
C3463 H3486 0.950 . S
C3464 C3463 1.349 . S
C3464 C3476 1.349 . S
C3465 C3463 1.327 . S
C3465 C3481 1.429 . S
C3465 H3487 0.950 . S
C3466 H3462 0.949 . S
C3466 C3474 1.574 . S
C3466 C3482 1.368 . S
H3467 C3475 0.950 . S
H3468 C3473 0.950 . S
H3469 C3474 0.949 . S
H3470 C3476 0.950 . S
H3471 C3477 0.950 . S
H3472 C3478 0.949 . S
C3473 H3468 0.950 . S
C3473 C3475 1.327 . S
C3473 C3479 1.429 . S
C3474 C3466 1.574 . S
C3474 H3469 0.949 . S
C3474 C3480 1.368 . S
C3475 C3459 1.349 . S
C3475 H3467 0.950 . S
C3475 C3473 1.327 . S
C3476 C3464 1.349 . S
C3476 H3470 0.950 . S
C3476 C3477 1.327 . S
C3477 H3471 0.950 . S
C3477 C3476 1.327 . S
C3477 C3481 1.429 . S
C3478 C3461 1.574 . S
C3478 H3472 0.949 . S
C3478 C3482 1.368 . S
C3479 C3460 1.429 . S
C3479 C3473 1.429 . S
C3479 C3480 1.523 . S
C3480 C3461 1.368 . S
C3480 C3474 1.368 . S
C3480 C3479 1.523 . S
C3481 C3465 1.429 . S
C3481 C3477 1.429 . S
C3481 C3482 1.523 . S
C3482 C3466 1.368 . S
C3482 C3478 1.368 . S
C3482 C3481 1.523 . S
H3483 C3458 0.950 . S
H3484 C3460 0.950 . S
H3485 C3461 0.949 . S
H3486 C3463 0.950 . S
H3487 C3465 0.950 . S
C1089 C247 0.540 . S
C1094 C9 0.540 . S
C1119 C43 0.540 . S
C1124 C145 0.540 1_556 S
C1149 C179 0.540 . S
C1154 C77 0.540 1_554 S
C1179 C111 0.540 . S
C1184 C213 0.540 . S
C1209 C281 0.540 . S
C1214 C519 0.540 . S
C1239 C417 0.540 1_554 S
C1244 C315 0.540 . S
C1269 C451 0.540 . S
C1274 C349 0.540 1_556 S
C1299 C485 0.540 . S
C1304 C383 0.540 . S
C1329 C553 0.540 1_554 S
C1334 C791 0.540 . S
C1359 C587 0.539 . S
C1364 C689 0.539 . S
C1389 C723 0.539 . S
C1394 C621 0.539 . S
C1419 C655 0.540 . S
C1424 C757 0.540 1_556 S
C1449 C1063 0.540 . S
C1454 C825 0.540 1_556 S
C1479 C859 0.539 . S
C1484 C961 0.539 . S
C1509 C995 0.539 . S
C1514 C893 0.539 . S
C1539 C927 0.540 . S
C1544 C1029 0.540 1_554 S
C1569 C33 1.327 . S
C1574 C237 1.327 . S
C1599 C67 1.328 . S
C1604 C271 1.328 . S
C1629 C169 1.327 . S
C1634 C101 1.327 . S
C1659 C135 1.328 . S
C1664 C203 1.328 . S
C1689 C509 1.327 . S
C1694 C305 1.327 . S
C1719 C339 1.328 . S
C1724 C543 1.328 . S
C1749 C373 1.327 . S
C1754 C441 1.327 . S
C1779 C475 1.328 . S
C1784 C407 1.328 . S
C1809 C577 1.327 . S
C1814 C781 1.327 . S
C1839 C611 1.328 . S
C1844 C815 1.328 . S
C1869 C713 1.327 . S
C1874 C645 1.327 . S
C1899 C679 1.328 . S
C1904 C747 1.328 . S
C1929 C1053 1.327 . S
C1934 C849 1.327 . S
C1959 C1087 1.328 . S
C1964 C883 1.328 . S
C1989 C985 1.327 . S
C1994 C917 1.327 . S
C2019 C951 1.328 . S
C2024 C1019 1.328 . S
C2049 C5 1.688 . S
C2054 C1022 1.745 . S
C2079 C512 1.745 . S
C2084 C39 1.687 . S
C2109 C73 1.687 . S
C2114 C954 1.745 . S
C2139 C107 1.688 1_556 S
C2144 C444 1.745 . S
C2169 C886 1.745 . S
C2174 C141 1.687 . S
C2199 C175 1.687 . S
C2204 C376 1.745 . S
C2229 C209 1.688 . S
C2234 C818 1.745 . S
C2259 C243 1.688 1_554 S
C2264 C308 1.745 . S
C2289 C750 1.745 . S
C2294 C277 1.688 . S
C2319 C240 1.745 . S
C2324 C311 1.687 . S
C2349 C345 1.687 . S
C2354 C682 1.745 . S
C2379 C172 1.745 . S
C2384 C379 1.688 1_554 S
C2409 C413 1.687 . S
C2414 C614 1.745 . S
C2439 C447 1.687 . S
C2444 C104 1.745 . S
C2469 C546 1.745 . S
C2474 C481 1.688 . S
C2499 C36 1.745 . S
C2504 C515 1.688 1_556 S
C2529 C478 1.745 . S
C2534 C549 1.688 . S
C2559 C583 1.687 1_556 S
C2564 C1056 1.745 . S
C2589 C617 1.688 . S
C2594 C410 1.745 . S
C2619 C651 1.688 . S
C2624 C988 1.745 . S
C2649 C342 1.745 . S
C2654 C685 1.688 . S
C2679 C719 1.687 1_554 S
C2684 C920 1.745 . S
C2709 C753 1.688 . S
C2714 C274 1.745 . S
C2739 C787 1.688 . S
C2744 C852 1.745 . S
C2769 C821 1.688 . S
C2774 C206 1.745 . S
C2799 C855 1.687 1_554 S
C2804 C784 1.745 . S
C2829 C889 1.688 . S
C2834 C138 1.745 . S
C2859 C716 1.745 . S
C2864 C923 1.688 . S
C2889 C70 1.745 . S
C2894 C957 1.688 . S
C2919 C991 1.687 1_556 S
C2924 C648 1.745 . S
C2949 C1025 1.688 . S
C2954 C2 1.745 . S
C2979 C580 1.745 . S
C2984 C1059 1.688 . S
C3009 C20 1.918 . S
C3014 C258 1.918 1_554 S
C3039 C54 1.918 . S
C3044 C156 1.918 . S
C3069 C88 1.918 . S
C3074 C190 1.918 . S
C3099 C122 1.918 1_556 S
C3104 C224 1.918 . S
C3129 C530 1.918 1_556 S
C3134 C292 1.918 . S
C3159 C428 1.918 . S
C3164 C326 1.918 . S
C3189 C462 1.918 . S
C3194 C360 1.918 . S
C3219 C496 1.918 . S
C3224 C394 1.918 1_554 S
C3249 C802 1.918 . S
C3254 C564 1.918 . S
C3279 C700 1.918 . S
C3284 C598 1.918 1_556 S
C3309 C734 1.918 1_554 S
C3314 C632 1.918 . S
C3339 C666 1.918 . S
C3344 C768 1.918 . S
C3369 C836 1.918 . S
C3374 C1074 1.918 . S
C3399 C972 1.918 . S
C3404 C870 1.918 1_554 S
C3429 C1006 1.918 1_556 S
C3434 C904 1.918 . S
C3459 C1040 1.918 . S
C3464 C938 1.918 . S
