# Generated by pormake.
# Topology sma, (6)-cn, num edge types: 1
# Building blocks:
#     Node 0, Type 0, BuildingBlock: PAMTUU_clean_sbu_0, # of connection points: 6
#     Node 1, Type 0, BuildingBlock: PAMTUU_clean_sbu_0, # of connection points: 6
#     Node 2, Type 0, BuildingBlock: PAMTUU_clean_sbu_0, # of connection points: 6
#     Edge 3, Type (0, 0), BuildingBlock: ZUJKAS_clean_linker_0, # of connection points: 2
#     Edge 4, Type (0, 0), BuildingBlock: ZUJKAS_clean_linker_0, # of connection points: 2
#     Edge 5, Type (0, 0), BuildingBlock: ZUJKAS_clean_linker_0, # of connection points: 2
#     Edge 6, Type (0, 0), BuildingBlock: ZUJKAS_clean_linker_0, # of connection points: 2
#     Edge 7, Type (0, 0), BuildingBlock: ZUJKAS_clean_linker_0, # of connection points: 2
#     Edge 8, Type (0, 0), BuildingBlock: ZUJKAS_clean_linker_0, # of connection points: 2
#     Edge 9, Type (0, 0), BuildingBlock: ZUJKAS_clean_linker_0, # of connection points: 2
#     Edge 10, Type (0, 0), BuildingBlock: ZUJKAS_clean_linker_0, # of connection points: 2
#     Edge 11, Type (0, 0), BuildingBlock: ZUJKAS_clean_linker_0, # of connection points: 2
# Relax obj value: 0.081
# Max RMSD: 0.187
# Mean RMSD: 0.182
data_MOF--net-sma--node1-PAMTUU_clean_sbu_0--edge1-ZUJKAS_clean_linker_0
_symmetry_space_group_name_H-M    P1
_symmetry_Int_Tables_number       1
_symmetry_cell_setting            triclinic
loop_
_symmetry_equiv_pos_as_xyz
'x, y, z'
_cell_length_a     47.97894
_cell_length_b     48.148901
_cell_length_c     18.017872
_cell_angle_alpha  96.641871
_cell_angle_beta   90.970043
_cell_angle_gamma 120.15454
loop_
_atom_site_label
_atom_site_type_symbol
_atom_site_fract_x
_atom_site_fract_y
_atom_site_fract_z
_atom_type_partial_charge
Tb0 Tb 1.04052 0.54639 0.17933 0.0
Tb1 Tb 0.08341 0.51265 0.11631 0.0
C2 C 0.04746 0.53133 0.01207 0.0
C3 C 0.97395 0.56434 0.18401 0.0
C4 C 0.91787 0.55951 0.11629 0.0
C5 C 0.93321 0.5443 0.07861 0.0
C6 C 0.96101 0.5467 0.1122 0.0
C7 C 0.95854 0.57911 0.2223 0.0
C8 C 0.93074 0.57669 0.18886 0.0
C9 C 1.00407 0.56838 0.21811 0.0
O10 O 1.00728 0.49511 0.14063 0.0
O11 O 1.0411 0.47574 0.16228 0.0
O12 O 0.10406 0.53402 0.22969 0.0
O13 O 0.06204 0.53938 0.27735 0.0
O14 O 0.10551 0.50407 0.02415 0.0
O15 O 0.10308 0.48255 0.12445 0.0
O16 O 0.11404 0.56494 0.11521 0.0
O17 O 0.09059 0.58549 0.19906 0.0
O18 O 0.04836 0.55311 0.06391 0.0
O19 O 0.04761 0.50604 0.03097 0.0
C20 C 1.01188 0.47164 0.15611 0.0
O21 O 1.0021 0.54271 0.24053 0.0
O22 O 1.02948 0.58345 0.18158 0.0
C23 C 0.0893 0.53918 0.28545 0.0
C24 C 0.14919 0.49617 0.056 0.0
C25 C 0.2127 0.50782 0.0406 0.0
C26 C 0.19219 0.48538 0.08636 0.0
C27 C 0.16078 0.47953 0.09366 0.0
C28 C 0.16987 0.51913 0.01151 0.0
C29 C 0.20124 0.52488 0.00396 0.0
C30 C 0.11501 0.4877 0.05956 0.0
C31 C 0.11491 0.58917 0.15995 0.0
H32 H 0.9242 0.53117 0.02247 0.0
H33 H 0.9727 0.53521 0.08172 0.0
H34 H 0.96818 0.59275 0.27784 0.0
H35 H 0.91927 0.58824 0.22002 0.0
H36 H 0.20033 0.47214 0.11631 0.0
H37 H 0.14535 0.46157 0.12797 0.0
H38 H 0.16167 0.53222 -0.01886 0.0
H39 H 0.21614 0.542 -0.03256 0.0
Tb40 Tb 0.54883 1.0192 0.49783 0.0
Tb41 Tb 0.62925 0.06803 0.5127 0.0
C42 C 0.59063 1.02293 0.36294 0.0
C43 C 0.46141 0.95499 0.43904 0.0
C44 C 0.40752 0.89609 0.36988 0.0
C45 C 0.40536 0.92419 0.38683 0.0
C46 C 0.432 0.95327 0.42119 0.0
C47 C 0.4642 0.92743 0.41958 0.0
C48 C 0.43747 0.89823 0.3853 0.0
C49 C 0.48774 0.98495 0.48295 0.0
O50 O 0.56905 0.9874 0.49036 0.0
O51 O 0.62013 1.02292 0.55022 0.0
O52 O 0.61505 0.06871 0.62582 0.0
O53 O 0.56359 1.02364 0.61413 0.0
O54 O 0.67601 0.07902 0.4871 0.0
O55 O 0.66851 0.11379 0.55673 0.0
O56 O 0.60595 0.09186 0.46723 0.0
O57 O 0.56173 0.06912 0.53275 0.0
O58 O 0.56342 1.02012 0.38443 0.0
O59 O 0.6178 0.03817 0.40591 0.0
C60 C 0.59602 0.99321 0.52658 0.0
O61 O 0.50617 0.98157 0.53061 0.0
O62 O 0.50433 1.00966 0.44738 0.0
C63 C 0.59037 0.04568 0.65409 0.0
C64 C 0.71235 0.13454 0.48178 0.0
C65 C 0.75723 0.18595 0.40878 0.0
C66 C 0.76738 0.17752 0.47192 0.0
C67 C 0.74515 0.15208 0.50793 0.0
C68 C 0.70193 0.14261 0.41873 0.0
C69 C 0.72419 0.16811 0.3825 0.0
C70 C 0.68944 0.10854 0.52229 0.0
C71 C 0.58277 0.09355 0.50097 0.0
H72 H 0.3829 0.92363 0.37441 0.0
H73 H 0.42939 0.97428 0.43555 0.0
H74 H 0.48672 0.9282 0.43278 0.0
H75 H 0.43996 0.87705 0.37346 0.0
H76 H 0.79245 0.19102 0.4946 0.0
H77 H 0.75357 0.14631 0.55683 0.0
H78 H 0.67662 0.1293 0.39783 0.0
H79 H 0.71557 0.17371 0.33366 0.0
Tb80 Tb 0.56236 0.51226 0.82423 0.0
Tb81 Tb 0.59585 0.59275 0.85173 0.0
C82 C 0.55427 0.54986 0.7056 0.0
C83 C 0.55121 0.42846 0.78149 0.0
C84 C 0.56568 0.37869 0.74298 0.0
C85 C 0.58177 0.40786 0.71216 0.0
C86 C 0.57471 0.43252 0.73139 0.0
C87 C 0.53619 0.40006 0.81483 0.0
C88 C 0.54344 0.37551 0.79616 0.0
C89 C 0.53975 0.45181 0.79393 0.0
O90 O 0.6115 0.53407 0.79038 0.0
O91 O 0.63347 0.58141 0.87138 0.0
O92 O 0.58708 0.57723 0.96097 0.0
O93 O 0.58551 0.52839 0.93689 0.0
O94 O 0.63206 0.63665 0.82018 0.0
O95 O 0.60092 0.63623 0.90576 0.0
O96 O 0.54401 0.574 0.85212 0.0
O97 O 0.52617 0.52143 0.8751 0.0
O98 O 0.53965 0.52473 0.74087 0.0
O99 O 0.58206 0.57533 0.73285 0.0
C100 C 0.63645 0.55867 0.83133 0.0
O101 O 0.54381 0.46674 0.8619 0.0
O102 O 0.54581 0.47116 0.74379 0.0
C103 C 0.58555 0.55151 -0.01678 0.0
C104 C 0.61943 0.67842 0.83047 0.0
C105 C 0.61391 0.72782 0.77298 0.0
C106 C 0.58608 0.69898 0.78572 0.0
C107 C 0.58881 0.67447 0.81404 0.0
C108 C 0.64713 0.70679 0.81649 0.0
C109 C 0.64444 0.73119 0.78787 0.0
C110 C 0.62327 0.65388 0.86397 0.0
C111 C 0.52191 0.54645 0.87326 0.0
H112 H 0.59884 0.41117 0.67067 0.0
H113 H 0.5868 0.45425 0.70491 0.0
H114 H 0.51807 0.39643 0.85376 0.0
H115 H 0.53112 0.35376 0.82241 0.0
H116 H 0.56221 0.69564 0.77554 0.0
H117 H 0.56702 0.65269 0.82405 0.0
H118 H 0.67096 0.71021 0.82833 0.0
H119 H 0.66635 0.75272 0.77735 0.0
H120 H 0.26923 0.5646 0.02987 0.0
H121 H 0.32199 0.57138 0.00322 0.0
H122 H 0.28336 0.46878 0.00082 0.0
H123 H 0.2303 0.46152 0.0242 0.0
H124 H 0.36291 0.55781 0.08189 0.0
H125 H 0.32209 0.48372 0.80016 0.0
H126 H 0.29787 0.49741 0.84993 0.0
H127 H 0.29905 0.46267 0.87335 0.0
C128 C 0.27185 0.5434 0.02294 0.0
C129 C 0.24537 0.51246 0.02868 0.0
C130 C 0.3021 0.54737 0.00826 0.0
C131 C 0.30648 0.52051 -0.00127 0.0
C132 C 0.28039 0.48977 0.00644 0.0
H133 H 0.46821 0.49227 0.90794 0.0
H134 H 0.41664 0.48681 0.94104 0.0
C135 C 0.25013 0.48574 0.02085 0.0
C136 C 0.33829 0.52459 -0.0194 0.0
H137 H 0.37501 0.49975 0.84998 0.0
C138 C 0.36561 0.54526 0.03102 0.0
C139 C 0.34177 0.50822 0.91409 0.0
C140 C 0.31372 0.487 0.85588 0.0
C141 C 0.39617 0.54949 0.0174 0.0
C142 C 0.39952 0.5329 0.95125 0.0
C143 C 0.37228 0.51232 0.90079 0.0
C144 C 0.43114 0.53668 0.93303 0.0
C145 C 0.42456 0.57114 0.07445 0.0
C146 C 0.45628 0.56649 0.91696 0.0
C147 C 0.48577 0.5697 0.89757 0.0
C148 C 0.49066 0.5431 0.89388 0.0
C149 C 0.46535 0.51327 0.91021 0.0
C150 C 0.43584 0.51007 0.92917 0.0
H151 H 0.41673 0.57666 0.12912 0.0
H152 H 0.43922 0.55968 0.08369 0.0
H153 H 0.44034 0.5944 0.0532 0.0
H154 H 0.45295 0.58719 0.91856 0.0
H155 H 0.50467 0.59303 0.88539 0.0
H156 H 0.81931 0.20228 0.3813 0.0
H157 H 0.85964 0.2498 0.32915 0.0
H158 H 0.78944 0.27919 0.2974 0.0
H159 H 0.74923 0.23236 0.3522 0.0
H160 H 0.86021 0.26991 0.19036 0.0
H161 H 0.86448 0.35993 0.41998 0.0
H162 H 0.84519 0.3172 0.42692 0.0
H163 H 0.82495 0.33224 0.37348 0.0
C164 C 0.81246 0.21897 0.36385 0.0
C165 C 0.78107 0.21363 0.37187 0.0
C166 C 0.83551 0.24601 0.33347 0.0
C167 C 0.82775 0.26837 0.31056 0.0
C168 C 0.79617 0.26261 0.31607 0.0
H169 H 0.94812 0.4549 0.15338 0.0
H170 H 0.90233 0.40468 0.18379 0.0
C171 C 0.77308 0.23558 0.34662 0.0
C172 C 0.85297 0.29789 0.28198 0.0
H173 H 0.89579 0.38071 0.31903 0.0
C174 C 0.86797 0.29415 0.21841 0.0
C175 C 0.86306 0.32951 0.31859 0.0
C176 C 0.84884 0.33511 0.3889 0.0
C177 C 0.89271 0.32115 0.19035 0.0
C178 C 0.90309 0.35274 0.22758 0.0
C179 C 0.88776 0.35649 0.29044 0.0
C180 C 0.93055 0.38223 0.20404 0.0
C181 C 0.90727 0.31563 0.12063 0.0
C182 C 0.96168 0.38634 0.20527 0.0
C183 C 0.98794 0.41501 0.18783 0.0
C184 C 0.98366 0.4403 0.16923 0.0
C185 C 0.95234 0.43593 0.16716 0.0
C186 C 0.9261 0.40724 0.18466 0.0
H187 H 0.89081 0.29152 0.08725 0.0
H188 H 0.91296 0.33471 0.08455 0.0
H189 H 0.93012 0.31649 0.13708 0.0
H190 H 0.96584 0.36768 0.22162 0.0
H191 H 1.0117 0.41757 0.19049 0.0
H192 H 0.64282 0.9947 0.61886 0.0
H193 H 0.64503 0.94861 0.65629 0.0
H194 H 0.55655 0.88251 0.51807 0.0
H195 H 0.55422 0.92841 0.47957 0.0
H196 H 0.59773 0.89907 0.72964 0.0
H197 H 0.61753 0.84878 0.45539 0.0
H198 H 0.62403 0.88938 0.47377 0.0
H199 H 0.58369 0.85513 0.45399 0.0
C200 C 0.62403 0.97039 0.59548 0.0
C201 C 0.59845 0.96531 0.5457 0.0
C202 C 0.62528 0.94407 0.61725 0.0
C203 C 0.60118 0.91215 0.58926 0.0
C204 C 0.57573 0.90695 0.53925 0.0
H205 H 0.56892 0.72316 0.66801 0.0
H206 H 0.56451 0.76742 0.62556 0.0
C207 C 0.57438 0.93325 0.51759 0.0
C208 C 0.60202 0.88438 0.61497 0.0
H209 H 0.60792 0.81775 0.55476 0.0
C210 C 0.60006 0.88132 0.69149 0.0
C211 C 0.60479 0.86116 0.56495 0.0
C212 C 0.6079 0.86378 0.48251 0.0
C213 C 0.60055 0.8555 0.71937 0.0
C214 C 0.6038 0.83249 0.66956 0.0
C215 C 0.60544 0.8354 0.59286 0.0
C216 C 0.60622 0.80564 0.69615 0.0
C217 C 0.59696 0.85281 0.8017 0.0
C218 C 0.63133 0.81241 0.74927 0.0
C219 C 0.63372 0.7872 0.77422 0.0
C220 C 0.61126 0.7546 0.74591 0.0
C221 C 0.58634 0.74792 0.69189 0.0
C222 C 0.58392 0.7732 0.66714 0.0
H223 H 0.58528 0.86615 0.8269 0.0
H224 H 0.58244 0.82706 0.81087 0.0
H225 H 0.62128 0.86358 0.83185 0.0
H226 H 0.64923 0.83726 0.7713 0.0
H227 H 0.65303 0.79331 0.8164 0.0
H228 H 0.69425 0.60828 0.89844 0.0
H229 H 0.74222 0.60602 0.93442 0.0
H230 H 0.6961 0.50655 0.82811 0.0
H231 H 0.64787 0.50864 0.79102 0.0
H232 H 0.74058 0.5631 0.02839 0.0
H233 H 0.78795 0.54669 0.75738 0.0
H234 H 0.75993 0.56134 0.76574 0.0
H235 H 0.74573 0.51894 0.76433 0.0
C236 C 0.69445 0.58606 0.88134 0.0
C237 C 0.66713 0.5586 0.842 0.0
C238 C 0.72192 0.58482 0.90209 0.0
C239 C 0.72282 0.55618 0.8838 0.0
C240 C 0.69615 0.52907 0.84182 0.0
H241 H 0.86643 0.50755 0.02929 0.0
H242 H 0.81867 0.50534 -0.02892 0.0
C243 C 0.66857 0.53031 0.82075 0.0
C244 C 0.75052 0.55415 0.91481 0.0
H245 H 0.81387 0.54407 0.8672 0.0
C246 C 0.75661 0.55896 -0.00691 0.0
C247 C 0.77119 0.5484 0.8687 0.0
C248 C 0.76615 0.54377 0.78433 0.0
C249 C 0.78292 0.55845 0.0266 0.0
C250 C 0.80411 0.55355 -0.01938 0.0
C251 C 0.79765 0.54796 0.90229 0.0
C252 C 0.83359 0.55515 0.01323 0.0
C253 C 0.78767 0.56292 0.11108 0.0
C254 C 0.85806 0.58405 0.05504 0.0
C255 C 0.88538 0.58546 0.08808 0.0
C256 C 0.88892 0.55799 0.0798 0.0
C257 C 0.86462 0.52922 0.03644 0.0
C258 C 0.83726 0.52787 0.0033 0.0
H259 H 0.76503 0.55766 0.13723 0.0
H260 H 0.79604 0.54695 0.12988 0.0
H261 H 0.80635 0.58847 0.13186 0.0
H262 H 0.85602 0.6056 0.06211 0.0
H263 H 0.90391 0.60821 0.11956 0.0
H264 H 0.34577 0.87185 0.41079 0.0
H265 H 0.29774 0.81985 0.36313 0.0
H266 H 0.35449 0.79621 0.21399 0.0
H267 H 0.40283 0.84853 0.26094 0.0
H268 H 0.26863 0.79488 0.21521 0.0
H269 H 0.30981 0.71732 0.3272 0.0
H270 H 0.32917 0.7604 0.3584 0.0
H271 H 0.3369 0.74573 0.26949 0.0
C272 C 0.34807 0.85582 0.36724 0.0
C273 C 0.37823 0.86447 0.33963 0.0
C274 C 0.32058 0.82599 0.34036 0.0
C275 C 0.32259 0.804 0.28565 0.0
C276 C 0.35252 0.81257 0.25725 0.0
H277 H 0.17192 0.60663 0.09572 0.0
H278 H 0.22247 0.65903 0.11897 0.0
C279 C 0.38011 0.84248 0.28415 0.0
C280 C 0.29315 0.77224 0.25853 0.0
H281 H 0.25918 0.69047 0.25636 0.0
C282 C 0.2666 0.77203 0.22393 0.0
C283 C 0.29059 0.74246 0.26972 0.0
C284 C 0.31798 0.74128 0.30873 0.0
C285 C 0.23746 0.74287 0.20068 0.0
C286 C 0.23461 0.71316 0.21358 0.0
C287 C 0.26142 0.71328 0.24652 0.0
C288 C 0.20357 0.68184 0.19674 0.0
C289 C 0.21003 0.74415 0.16222 0.0
C290 C 0.17622 0.67721 0.23303 0.0
C291 C 0.14731 0.64736 0.2199 0.0
C292 C 0.14515 0.62135 0.17046 0.0
C293 C 0.17261 0.62612 0.13388 0.0
C294 C 0.20157 0.65604 0.14718 0.0
H295 H 0.2189 0.76685 0.13707 0.0
H296 H 0.19641 0.72307 0.11748 0.0
H297 H 0.19307 0.74348 0.20405 0.0
H298 H 0.17739 0.69654 0.27275 0.0
H299 H 0.12681 0.64459 0.24955 0.0
H300 H 0.52016 0.31387 0.71848 0.0
H301 H 0.52741 0.26858 0.67164 0.0
H302 H 0.62863 0.33509 0.65444 0.0
H303 H 0.62202 0.38058 0.70529 0.0
H304 H 0.54615 0.25628 0.53716 0.0
H305 H 0.63297 0.26882 0.76486 0.0
H306 H 0.61108 0.29028 0.77389 0.0
H307 H 0.64604 0.30458 0.72121 0.0
C308 C 0.54419 0.31894 0.70656 0.0
C309 C 0.57056 0.35101 0.71653 0.0
C310 C 0.5482 0.29297 0.67889 0.0
C311 C 0.57863 0.29832 0.66028 0.0
C312 C 0.60504 0.33025 0.66977 0.0
H313 H 0.63128 0.1544 0.48134 0.0
H314 H 0.6319 0.20576 0.51205 0.0
C315 C 0.60111 0.3563 0.69802 0.0
C316 C 0.58216 0.27041 0.62891 0.0
H317 H 0.62033 0.22854 0.66072 0.0
C318 C 0.56245 0.2503 0.56413 0.0
C319 C 0.60356 0.26266 0.66384 0.0
C320 C 0.62443 0.28251 0.73515 0.0
C321 C 0.56319 0.22247 0.53407 0.0
C322 C 0.58404 0.21439 0.5699 0.0
C323 C 0.60447 0.23493 0.63326 0.0
C324 C 0.58313 0.18341 0.54605 0.0
C325 C 0.54148 0.20173 0.46448 0.0
C326 C 0.55549 0.15392 0.55475 0.0
C327 C 0.5551 0.12469 0.53772 0.0
C328 C 0.58236 0.12431 0.51142 0.0
C329 C 0.6098 0.15384 0.50091 0.0
C330 C 0.61026 0.18319 0.51872 0.0
H331 H 0.53322 0.21526 0.43327 0.0
H332 H 0.55409 0.19268 0.4265 0.0
H333 H 0.51978 0.1804 0.48082 0.0
H334 H 0.53446 0.15361 0.57671 0.0
H335 H 0.5336 0.10241 0.54656 0.0
H336 H 0.07393 0.59171 -0.02831 0.0
H337 H 0.09973 0.6089 0.85704 0.0
H338 H 0.06969 0.5096 0.77114 0.0
H339 H 1.04468 0.49221 0.88694 0.0
H340 H 0.13585 0.55437 0.75949 0.0
H341 H 0.05472 0.59536 0.65187 0.0
H342 H 0.07462 0.6132 0.74451 0.0
H343 H 1.04437 0.57087 0.72659 0.0
C344 C 0.0722 0.57339 0.92781 0.0
C345 C 0.05713 0.54053 0.9379 0.0
C346 C 0.08713 0.58334 0.86263 0.0
C347 C 0.08657 0.5605 0.80616 0.0
C348 C 0.07054 0.52756 0.81481 0.0
H349 H 0.09028 0.50081 0.38203 0.0
H350 H 0.10659 0.51719 0.51644 0.0
C351 C 0.05597 0.51762 0.88038 0.0
C352 C 0.10233 0.57048 0.73717 0.0
H353 H 0.09173 0.5935 0.57288 0.0
C354 C 0.12673 0.56354 0.71897 0.0
C355 C 0.09086 0.58319 0.68567 0.0
C356 C 0.0646 0.59097 0.70258 0.0
C357 C 0.13796 0.56627 0.64752 0.0
C358 C 0.1241 0.57585 0.5936 0.0
C359 C 0.10227 0.58608 0.61454 0.0
C360 C 0.12553 0.56846 0.51276 0.0
C361 C 0.16313 0.55717 0.62915 0.0
C362 C 0.13164 0.59194 0.46607 0.0
C363 C 0.12165 0.5824 0.38986 0.0
C364 C 0.10589 0.54945 0.36005 0.0
C365 C 0.10258 0.52634 0.40482 0.0
C366 C 0.11232 0.53581 0.48117 0.0
H367 H 0.18021 0.56359 0.67914 0.0
H368 H 0.15101 0.53052 0.61222 0.0
H369 H 0.17704 0.56941 0.58263 0.0
H370 H 0.14147 0.61714 0.48965 0.0
H371 H 0.12434 0.60042 0.35521 0.0
H372 H 0.63231 1.00299 0.31889 0.0
H373 H 0.63858 0.98552 0.19063 0.0
H374 H 0.55615 0.99062 0.11113 0.0
H375 H 0.5493 1.00749 0.23938 0.0
H376 H 0.56751 0.94069 0.02411 0.0
H377 H 0.67516 0.06627 0.07962 0.0
H378 H 0.6711 0.03621 0.13609 0.0
H379 H 0.64461 0.05242 0.14515 0.0
C380 C 0.61518 0.99983 0.27409 0.0
C381 C 0.59104 1.00775 0.28808 0.0
C382 C 0.61855 0.9894 0.2013 0.0
C383 C 0.59814 0.98733 0.14199 0.0
C384 C 0.57206 0.99205 0.15673 0.0
H385 H 0.5467 1.01768 0.75508 0.0
H386 H 0.55485 0.99615 0.8645 0.0
C387 C 0.56841 1.00209 0.22965 0.0
C388 C 0.60783 0.98823 0.06527 0.0
H389 H 0.65158 0.04655 0.95763 0.0
C390 C 0.58663 0.96332 0.00893 0.0
C391 C 0.63338 1.01749 0.046 0.0
C392 C 0.65746 0.04473 0.10457 0.0
C393 C 0.5879 0.96858 0.934 0.0
C394 C 0.61003 0.99979 0.91679 0.0
C395 C 0.63412 1.02288 -0.02851 0.0
C396 C 0.60496 1.01124 0.84841 0.0
C397 C 0.56425 0.94143 0.87501 0.0
C398 C 0.63101 0.02883 0.80663 0.0
C399 C 0.62679 0.04255 0.74674 0.0
C400 C 0.59632 0.03843 0.72715 0.0
C401 C 0.57045 1.02139 0.7698 0.0
C402 C 0.57488 1.00833 0.83079 0.0
H403 H 0.56025 0.91771 0.8877 0.0
H404 H 0.54056 0.94026 0.87518 0.0
H405 H 0.57286 0.94495 0.81812 0.0
H406 H 0.65453 0.03181 0.82017 0.0
H407 H 0.64696 0.05488 0.71342 0.0
H408 H 0.49372 0.5046 0.64305 0.0
H409 H 0.47319 0.49571 0.51246 0.0
H410 H 0.55978 0.58271 0.47335 0.0
H411 H 0.58059 0.59196 0.60374 0.0
H412 H 0.49634 0.56332 0.38217 0.0
H413 H 0.53036 0.46803 0.38352 0.0
H414 H 0.50116 0.46856 0.44414 0.0
H415 H 0.54301 0.4995 0.46276 0.0
C416 C 0.5081 0.52228 0.60707 0.0
C417 C 0.53932 0.54835 0.63246 0.0
C418 C 0.49608 0.51731 0.53294 0.0
C419 C 0.51522 0.53833 0.48383 0.0
C420 C 0.54473 0.56631 0.51108 0.0
H421 H 0.59923 0.59482 0.10836 0.0
H422 H 0.57053 0.58396 0.22171 0.0
C423 C 0.55676 0.57135 0.58521 0.0
C424 C 0.50926 0.52787 0.40277 0.0
H425 H 0.53376 0.48957 0.27271 0.0
C426 C 0.5033 0.54632 0.3573 0.0
C427 C 0.51765 0.50511 0.37077 0.0
C428 C 0.52345 0.48406 0.41743 0.0
C429 C 0.50917 0.54522 0.28156 0.0
C430 C 0.52247 0.52623 0.25274 0.0
C431 C 0.52424 0.50464 0.29569 0.0
C432 C 0.5397 0.53232 0.18442 0.0
C433 C 0.50289 0.5658 0.23455 0.0
C434 C 0.53376 0.50651 0.12925 0.0
C435 C 0.55115 0.51251 0.0662 0.0
C436 C 0.57442 0.54445 0.05733 0.0
C437 C 0.58143 0.57002 0.11425 0.0
C438 C 0.56448 0.56392 0.17788 0.0
H439 H 0.4813 0.56697 0.25152 0.0
H440 H 0.52388 0.59096 0.24374 0.0
H441 H 0.49904 0.55623 0.17384 0.0
H442 H 0.5152 0.48187 0.13422 0.0
H443 H 0.5449 0.49241 0.02237 0.0
loop_
_geom_bond_atom_site_label_1
_geom_bond_atom_site_label_2
_geom_bond_distance
_geom_bond_site_symmetry_2
_ccdc_geom_bond_type
Tb0 C9 2.764 1_455 S
Tb0 O10 2.325 1_455 S
Tb0 O13 2.303 . S
Tb0 O17 2.322 . S
Tb0 O18 2.349 . S
Tb0 O21 2.415 1_455 S
Tb0 O22 2.399 1_455 S
Tb1 O11 2.306 1_455 S
Tb1 O12 2.349 . S
Tb1 O14 2.415 . S
Tb1 O15 2.399 . S
Tb1 O16 2.325 . S
Tb1 O19 2.303 . S
Tb1 C30 2.764 . S
C2 O18 1.261 . S
C2 O19 1.257 . S
C3 C6 1.358 . S
C3 C7 1.332 . S
C3 C9 1.504 . S
C4 C5 1.373 . S
C4 C8 1.308 . S
C5 C4 1.373 . S
C5 C6 1.429 . S
C5 H32 0.932 . S
C6 C3 1.358 . S
C6 C5 1.429 . S
C6 H33 0.930 . S
C7 C3 1.332 . S
C7 C8 1.394 . S
C7 H34 0.932 . S
C8 C4 1.308 . S
C8 C7 1.394 . S
C8 H35 0.929 . S
C9 Tb0 2.764 1_655 S
C9 C3 1.504 . S
C9 O21 1.239 . S
C9 O22 1.263 . S
O10 Tb0 2.325 1_655 S
O10 C20 1.236 . S
O11 Tb1 2.306 1_655 S
O11 C20 1.277 . S
O12 Tb1 2.349 . S
O12 C23 1.261 . S
O13 Tb0 2.303 . S
O13 C23 1.257 . S
O14 Tb1 2.415 . S
O14 C30 1.239 . S
O15 Tb1 2.399 . S
O15 C30 1.263 . S
O16 Tb1 2.325 . S
O16 C31 1.236 . S
O17 Tb0 2.322 . S
O17 C31 1.257 . S
O18 Tb0 2.349 . S
O18 C2 1.261 . S
O19 Tb1 2.303 . S
O19 C2 1.257 . S
C20 O10 1.236 . S
C20 O11 1.277 . S
O21 Tb0 2.415 1_655 S
O21 C9 1.239 . S
O22 Tb0 2.399 1_655 S
O22 C9 1.263 . S
C23 O12 1.261 . S
C23 O13 1.257 . S
C24 C27 1.358 . S
C24 C28 1.332 . S
C24 C30 1.504 . S
C25 C26 1.373 . S
C25 C29 1.308 . S
C26 C25 1.373 . S
C26 C27 1.429 . S
C26 H36 0.932 . S
C27 C24 1.358 . S
C27 C26 1.429 . S
C27 H37 0.930 . S
C28 C24 1.332 . S
C28 C29 1.394 . S
C28 H38 0.932 . S
C29 C25 1.308 . S
C29 C28 1.394 . S
C29 H39 0.929 . S
C30 Tb1 2.764 . S
C30 O14 1.239 . S
C30 O15 1.263 . S
C30 C24 1.504 . S
C31 O16 1.236 . S
C31 O17 1.257 . S
H32 C5 0.932 . S
H33 C6 0.930 . S
H34 C7 0.932 . S
H35 C8 0.929 . S
H36 C26 0.932 . S
H37 C27 0.930 . S
H38 C28 0.932 . S
H39 C29 0.929 . S
Tb40 C49 2.764 . S
Tb40 O50 2.325 . S
Tb40 O53 2.303 1_565 S
Tb40 O57 2.322 1_565 S
Tb40 O58 2.349 . S
Tb40 O61 2.415 . S
Tb40 O62 2.399 . S
Tb41 O51 2.322 1_545 S
Tb41 O52 2.349 . S
Tb41 O54 2.415 . S
Tb41 O55 2.399 . S
Tb41 O56 2.325 . S
Tb41 O59 2.303 . S
Tb41 C70 2.764 . S
C42 O58 1.261 1_545 S
C42 O59 1.257 . S
C43 C46 1.358 . S
C43 C47 1.332 . S
C43 C49 1.504 . S
C44 C45 1.373 . S
C44 C48 1.308 . S
C45 C44 1.373 . S
C45 C46 1.429 . S
C45 H72 0.932 . S
C46 C43 1.358 . S
C46 C45 1.429 . S
C46 H73 0.930 . S
C47 C43 1.332 . S
C47 C48 1.394 . S
C47 H74 0.932 . S
C48 C44 1.308 . S
C48 C47 1.394 . S
C48 H75 0.929 . S
C49 Tb40 2.764 . S
C49 C43 1.504 . S
C49 O61 1.239 . S
C49 O62 1.263 . S
O50 Tb40 2.325 . S
O50 C60 1.236 . S
O51 Tb41 2.322 1_565 S
O51 C60 1.257 . S
O52 Tb41 2.349 . S
O52 C63 1.261 . S
O53 Tb40 2.303 1_545 S
O53 C63 1.257 . S
O54 Tb41 2.415 . S
O54 C70 1.239 . S
O55 Tb41 2.399 . S
O55 C70 1.263 . S
O56 Tb41 2.325 . S
O56 C71 1.236 . S
O57 Tb40 2.322 1_545 S
O57 C71 1.257 . S
O58 Tb40 2.349 . S
O58 C42 1.261 1_565 S
O59 Tb41 2.303 . S
O59 C42 1.257 . S
C60 O50 1.236 . S
C60 O51 1.257 . S
O61 Tb40 2.415 . S
O61 C49 1.239 . S
O62 Tb40 2.399 . S
O62 C49 1.263 . S
C63 O52 1.261 . S
C63 O53 1.257 . S
C64 C67 1.358 . S
C64 C68 1.332 . S
C64 C70 1.504 . S
C65 C66 1.373 . S
C65 C69 1.308 . S
C66 C65 1.373 . S
C66 C67 1.429 . S
C66 H76 0.932 . S
C67 C64 1.358 . S
C67 C66 1.429 . S
C67 H77 0.930 . S
C68 C64 1.332 . S
C68 C69 1.394 . S
C68 H78 0.932 . S
C69 C65 1.308 . S
C69 C68 1.394 . S
C69 H79 0.929 . S
C70 Tb41 2.764 . S
C70 O54 1.239 . S
C70 O55 1.263 . S
C70 C64 1.504 . S
C71 O56 1.236 . S
C71 O57 1.257 . S
H72 C45 0.932 . S
H73 C46 0.930 . S
H74 C47 0.932 . S
H75 C48 0.929 . S
H76 C66 0.932 . S
H77 C67 0.930 . S
H78 C68 0.932 . S
H79 C69 0.929 . S
Tb80 C89 2.764 . S
Tb80 O90 2.325 . S
Tb80 O93 2.303 . S
Tb80 O97 2.322 . S
Tb80 O98 2.349 . S
Tb80 O101 2.415 . S
Tb80 O102 2.399 . S
Tb81 O91 2.322 . S
Tb81 O92 2.349 . S
Tb81 O94 2.415 . S
Tb81 O95 2.399 . S
Tb81 O96 2.325 . S
Tb81 O99 2.303 . S
Tb81 C110 2.764 . S
C82 O98 1.261 . S
C82 O99 1.257 . S
C83 C86 1.358 . S
C83 C87 1.332 . S
C83 C89 1.504 . S
C84 C85 1.373 . S
C84 C88 1.308 . S
C85 C84 1.373 . S
C85 C86 1.429 . S
C85 H112 0.932 . S
C86 C83 1.358 . S
C86 C85 1.429 . S
C86 H113 0.930 . S
C87 C83 1.332 . S
C87 C88 1.394 . S
C87 H114 0.932 . S
C88 C84 1.308 . S
C88 C87 1.394 . S
C88 H115 0.929 . S
C89 Tb80 2.764 . S
C89 C83 1.504 . S
C89 O101 1.239 . S
C89 O102 1.263 . S
O90 Tb80 2.325 . S
O90 C100 1.236 . S
O91 Tb81 2.322 . S
O91 C100 1.257 . S
O92 Tb81 2.349 . S
O92 C103 1.261 . S
O93 Tb80 2.303 . S
O93 C103 1.257 . S
O94 Tb81 2.415 . S
O94 C110 1.239 . S
O95 Tb81 2.399 . S
O95 C110 1.263 . S
O96 Tb81 2.325 . S
O96 C111 1.236 . S
O97 Tb80 2.322 . S
O97 C111 1.257 . S
O98 Tb80 2.349 . S
O98 C82 1.261 . S
O99 Tb81 2.303 . S
O99 C82 1.257 . S
C100 O90 1.236 . S
C100 O91 1.257 . S
O101 Tb80 2.415 . S
O101 C89 1.239 . S
O102 Tb80 2.399 . S
O102 C89 1.263 . S
C103 O92 1.261 . S
C103 O93 1.257 . S
C104 C107 1.358 . S
C104 C108 1.332 . S
C104 C110 1.504 . S
C105 C106 1.373 . S
C105 C109 1.308 . S
C106 C105 1.373 . S
C106 C107 1.429 . S
C106 H116 0.932 . S
C107 C104 1.358 . S
C107 C106 1.429 . S
C107 H117 0.930 . S
C108 C104 1.332 . S
C108 C109 1.394 . S
C108 H118 0.932 . S
C109 C105 1.308 . S
C109 C108 1.394 . S
C109 H119 0.929 . S
C110 Tb81 2.764 . S
C110 O94 1.239 . S
C110 O95 1.263 . S
C110 C104 1.504 . S
C111 O96 1.236 . S
C111 O97 1.257 . S
H112 C85 0.932 . S
H113 C86 0.930 . S
H114 C87 0.932 . S
H115 C88 0.929 . S
H116 C106 0.932 . S
H117 C107 0.930 . S
H118 C108 0.932 . S
H119 C109 0.929 . S
H120 C128 0.929 . S
H121 C130 0.930 1_556 S
H122 C132 0.930 . S
H123 C135 0.929 . S
H124 C138 0.930 . S
H125 C140 0.960 . S
H126 C140 0.960 . S
H127 C140 0.960 . S
C128 H120 0.929 . S
C128 C129 1.377 . S
C128 C130 1.384 . S
C129 C128 1.377 . S
C129 C135 1.390 . S
C130 H121 0.930 1_554 S
C130 C128 1.384 . S
C130 C131 1.372 . S
C131 C130 1.372 . S
C131 C132 1.400 . S
C131 C136 1.490 1_554 S
C132 H122 0.930 . S
C132 C131 1.400 . S
C132 C135 1.386 . S
H133 C149 0.930 . S
H134 C150 0.931 . S
C135 H123 0.929 . S
C135 C129 1.390 . S
C135 C132 1.386 . S
C136 C131 1.490 1_556 S
C136 C138 1.395 1_556 S
C136 C139 1.403 . S
H137 C143 0.930 . S
C138 H124 0.930 . S
C138 C136 1.395 1_554 S
C138 C141 1.403 . S
C139 C136 1.403 . S
C139 C140 1.524 . S
C139 C143 1.400 . S
C140 H125 0.960 . S
C140 H126 0.960 . S
C140 H127 0.960 . S
C140 C139 1.524 . S
C141 C138 1.403 . S
C141 C142 1.392 1_554 S
C141 C145 1.495 . S
C142 C141 1.392 1_556 S
C142 C143 1.385 . S
C142 C144 1.478 . S
C143 H137 0.930 . S
C143 C139 1.400 . S
C143 C142 1.385 . S
C144 C142 1.478 . S
C144 C146 1.381 . S
C144 C150 1.383 . S
C145 C141 1.495 . S
C145 H151 0.959 . S
C145 H152 0.961 . S
C145 H153 0.960 1_554 S
C146 C144 1.381 . S
C146 C147 1.394 . S
C146 H154 0.930 . S
C147 C146 1.394 . S
C147 C148 1.383 . S
C147 H155 0.929 . S
C148 C147 1.383 . S
C148 C149 1.377 . S
C149 H133 0.930 . S
C149 C148 1.377 . S
C149 C150 1.379 . S
C150 H134 0.931 . S
C150 C144 1.383 . S
C150 C149 1.379 . S
H151 C145 0.959 . S
H152 C145 0.961 . S
H153 C145 0.960 1_556 S
H154 C146 0.930 . S
H155 C147 0.929 . S
H156 C164 0.929 . S
H157 C166 0.930 . S
H158 C168 0.930 . S
H159 C171 0.929 . S
H160 C174 0.930 . S
H161 C176 0.960 . S
H162 C176 0.960 . S
H163 C176 0.960 . S
C164 H156 0.929 . S
C164 C165 1.377 . S
C164 C166 1.384 . S
C165 C164 1.377 . S
C165 C171 1.390 . S
C166 H157 0.930 . S
C166 C164 1.384 . S
C166 C167 1.372 . S
C167 C166 1.372 . S
C167 C168 1.400 . S
C167 C172 1.490 . S
C168 H158 0.930 . S
C168 C167 1.400 . S
C168 C171 1.386 . S
H169 C185 0.930 . S
H170 C186 0.931 . S
C171 H159 0.929 . S
C171 C165 1.390 . S
C171 C168 1.386 . S
C172 C167 1.490 . S
C172 C174 1.395 . S
C172 C175 1.403 . S
H173 C179 0.930 . S
C174 H160 0.930 . S
C174 C172 1.395 . S
C174 C177 1.403 . S
C175 C172 1.403 . S
C175 C176 1.524 . S
C175 C179 1.400 . S
C176 H161 0.960 . S
C176 H162 0.960 . S
C176 H163 0.960 . S
C176 C175 1.524 . S
C177 C174 1.403 . S
C177 C178 1.392 . S
C177 C181 1.495 . S
C178 C177 1.392 . S
C178 C179 1.385 . S
C178 C180 1.478 . S
C179 H173 0.930 . S
C179 C175 1.400 . S
C179 C178 1.385 . S
C180 C178 1.478 . S
C180 C182 1.381 . S
C180 C186 1.383 . S
C181 C177 1.495 . S
C181 H187 0.959 . S
C181 H188 0.961 . S
C181 H189 0.960 . S
C182 C180 1.381 . S
C182 C183 1.394 . S
C182 H190 0.930 . S
C183 C182 1.394 . S
C183 C184 1.383 . S
C183 H191 0.929 . S
C184 C183 1.383 . S
C184 C185 1.377 . S
C185 H169 0.930 . S
C185 C184 1.377 . S
C185 C186 1.379 . S
C186 H170 0.931 . S
C186 C180 1.383 . S
C186 C185 1.379 . S
H187 C181 0.959 . S
H188 C181 0.961 . S
H189 C181 0.960 . S
H190 C182 0.930 . S
H191 C183 0.929 . S
H192 C200 0.929 . S
H193 C202 0.930 . S
H194 C204 0.930 . S
H195 C207 0.929 . S
H196 C210 0.930 . S
H197 C212 0.960 . S
H198 C212 0.960 . S
H199 C212 0.960 . S
C200 H192 0.929 . S
C200 C201 1.377 . S
C200 C202 1.384 . S
C201 C200 1.377 . S
C201 C207 1.390 . S
C202 H193 0.930 . S
C202 C200 1.384 . S
C202 C203 1.372 . S
C203 C202 1.372 . S
C203 C204 1.400 . S
C203 C208 1.490 . S
C204 H194 0.930 . S
C204 C203 1.400 . S
C204 C207 1.386 . S
H205 C221 0.930 . S
H206 C222 0.931 . S
C207 H195 0.929 . S
C207 C201 1.390 . S
C207 C204 1.386 . S
C208 C203 1.490 . S
C208 C210 1.395 . S
C208 C211 1.403 . S
H209 C215 0.930 . S
C210 H196 0.930 . S
C210 C208 1.395 . S
C210 C213 1.403 . S
C211 C208 1.403 . S
C211 C212 1.524 . S
C211 C215 1.400 . S
C212 H197 0.960 . S
C212 H198 0.960 . S
C212 H199 0.960 . S
C212 C211 1.524 . S
C213 C210 1.403 . S
C213 C214 1.392 . S
C213 C217 1.495 . S
C214 C213 1.392 . S
C214 C215 1.385 . S
C214 C216 1.478 . S
C215 H209 0.930 . S
C215 C211 1.400 . S
C215 C214 1.385 . S
C216 C214 1.478 . S
C216 C218 1.381 . S
C216 C222 1.383 . S
C217 C213 1.495 . S
C217 H223 0.959 . S
C217 H224 0.961 . S
C217 H225 0.960 . S
C218 C216 1.381 . S
C218 C219 1.394 . S
C218 H226 0.930 . S
C219 C218 1.394 . S
C219 C220 1.383 . S
C219 H227 0.929 . S
C220 C219 1.383 . S
C220 C221 1.377 . S
C221 H205 0.930 . S
C221 C220 1.377 . S
C221 C222 1.379 . S
C222 H206 0.931 . S
C222 C216 1.383 . S
C222 C221 1.379 . S
H223 C217 0.959 . S
H224 C217 0.961 . S
H225 C217 0.960 . S
H226 C218 0.930 . S
H227 C219 0.929 . S
H228 C236 0.929 . S
H229 C238 0.930 1_554 S
H230 C240 0.930 . S
H231 C243 0.929 . S
H232 C246 0.930 . S
H233 C248 0.960 . S
H234 C248 0.960 . S
H235 C248 0.960 . S
C236 H228 0.929 . S
C236 C237 1.377 . S
C236 C238 1.384 . S
C237 C236 1.377 . S
C237 C243 1.390 . S
C238 H229 0.930 1_556 S
C238 C236 1.384 . S
C238 C239 1.372 . S
C239 C238 1.372 . S
C239 C240 1.400 . S
C239 C244 1.489 . S
C240 H230 0.930 . S
C240 C239 1.400 . S
C240 C243 1.386 . S
H241 C257 0.930 . S
H242 C258 0.931 . S
C243 H231 0.929 . S
C243 C237 1.390 . S
C243 C240 1.386 . S
C244 C239 1.489 . S
C244 C246 1.396 1_556 S
C244 C247 1.402 . S
H245 C251 0.930 1_556 S
C246 H232 0.930 . S
C246 C244 1.396 1_554 S
C246 C249 1.403 . S
C247 C244 1.402 . S
C247 C248 1.524 . S
C247 C251 1.400 1_556 S
C248 H233 0.960 . S
C248 H234 0.960 . S
C248 H235 0.960 . S
C248 C247 1.524 . S
C249 C246 1.403 . S
C249 C250 1.392 . S
C249 C253 1.495 . S
C250 C249 1.392 . S
C250 C251 1.385 . S
C250 C252 1.478 . S
C251 H245 0.930 1_554 S
C251 C247 1.400 1_554 S
C251 C250 1.385 . S
C252 C250 1.478 . S
C252 C254 1.381 . S
C252 C258 1.383 . S
C253 C249 1.495 . S
C253 H259 0.959 . S
C253 H260 0.961 . S
C253 H261 0.960 . S
C254 C252 1.381 . S
C254 C255 1.394 . S
C254 H262 0.930 . S
C255 C254 1.394 . S
C255 C256 1.383 . S
C255 H263 0.929 . S
C256 C255 1.383 . S
C256 C257 1.377 . S
C257 H241 0.930 . S
C257 C256 1.377 . S
C257 C258 1.379 . S
C258 H242 0.931 . S
C258 C252 1.383 . S
C258 C257 1.379 . S
H259 C253 0.959 . S
H260 C253 0.961 . S
H261 C253 0.960 . S
H262 C254 0.930 . S
H263 C255 0.929 . S
H264 C272 0.929 . S
H265 C274 0.930 . S
H266 C276 0.930 . S
H267 C279 0.929 . S
H268 C282 0.930 . S
H269 C284 0.960 . S
H270 C284 0.960 . S
H271 C284 0.960 . S
C272 H264 0.929 . S
C272 C273 1.377 . S
C272 C274 1.384 . S
C273 C272 1.377 . S
C273 C279 1.390 . S
C274 H265 0.930 . S
C274 C272 1.384 . S
C274 C275 1.372 . S
C275 C274 1.372 . S
C275 C276 1.400 . S
C275 C280 1.490 . S
C276 H266 0.930 . S
C276 C275 1.400 . S
C276 C279 1.386 . S
H277 C293 0.930 . S
H278 C294 0.931 . S
C279 H267 0.929 . S
C279 C273 1.390 . S
C279 C276 1.386 . S
C280 C275 1.490 . S
C280 C282 1.395 . S
C280 C283 1.403 . S
H281 C287 0.930 . S
C282 H268 0.930 . S
C282 C280 1.395 . S
C282 C285 1.403 . S
C283 C280 1.403 . S
C283 C284 1.524 . S
C283 C287 1.400 . S
C284 H269 0.960 . S
C284 H270 0.960 . S
C284 H271 0.960 . S
C284 C283 1.524 . S
C285 C282 1.403 . S
C285 C286 1.392 . S
C285 C289 1.495 . S
C286 C285 1.392 . S
C286 C287 1.385 . S
C286 C288 1.478 . S
C287 H281 0.930 . S
C287 C283 1.400 . S
C287 C286 1.385 . S
C288 C286 1.478 . S
C288 C290 1.381 . S
C288 C294 1.383 . S
C289 C285 1.495 . S
C289 H295 0.959 . S
C289 H296 0.961 . S
C289 H297 0.960 . S
C290 C288 1.381 . S
C290 C291 1.394 . S
C290 H298 0.930 . S
C291 C290 1.394 . S
C291 C292 1.383 . S
C291 H299 0.929 . S
C292 C291 1.383 . S
C292 C293 1.377 . S
C293 H277 0.930 . S
C293 C292 1.377 . S
C293 C294 1.379 . S
C294 H278 0.931 . S
C294 C288 1.383 . S
C294 C293 1.379 . S
H295 C289 0.959 . S
H296 C289 0.961 . S
H297 C289 0.960 . S
H298 C290 0.930 . S
H299 C291 0.929 . S
H300 C308 0.929 . S
H301 C310 0.930 . S
H302 C312 0.930 . S
H303 C315 0.929 . S
H304 C318 0.930 . S
H305 C320 0.960 . S
H306 C320 0.960 . S
H307 C320 0.960 . S
C308 H300 0.929 . S
C308 C309 1.377 . S
C308 C310 1.384 . S
C309 C308 1.377 . S
C309 C315 1.390 . S
C310 H301 0.930 . S
C310 C308 1.384 . S
C310 C311 1.372 . S
C311 C310 1.372 . S
C311 C312 1.400 . S
C311 C316 1.490 . S
C312 H302 0.930 . S
C312 C311 1.400 . S
C312 C315 1.386 . S
H313 C329 0.930 . S
H314 C330 0.931 . S
C315 H303 0.929 . S
C315 C309 1.390 . S
C315 C312 1.386 . S
C316 C311 1.490 . S
C316 C318 1.395 . S
C316 C319 1.403 . S
H317 C323 0.930 . S
C318 H304 0.930 . S
C318 C316 1.395 . S
C318 C321 1.403 . S
C319 C316 1.403 . S
C319 C320 1.524 . S
C319 C323 1.400 . S
C320 H305 0.960 . S
C320 H306 0.960 . S
C320 H307 0.960 . S
C320 C319 1.524 . S
C321 C318 1.403 . S
C321 C322 1.392 . S
C321 C325 1.495 . S
C322 C321 1.392 . S
C322 C323 1.385 . S
C322 C324 1.478 . S
C323 H317 0.930 . S
C323 C319 1.400 . S
C323 C322 1.385 . S
C324 C322 1.478 . S
C324 C326 1.381 . S
C324 C330 1.383 . S
C325 C321 1.495 . S
C325 H331 0.959 . S
C325 H332 0.961 . S
C325 H333 0.960 . S
C326 C324 1.381 . S
C326 C327 1.394 . S
C326 H334 0.930 . S
C327 C326 1.394 . S
C327 C328 1.383 . S
C327 H335 0.929 . S
C328 C327 1.383 . S
C328 C329 1.377 . S
C329 H313 0.930 . S
C329 C328 1.377 . S
C329 C330 1.379 . S
C330 H314 0.931 . S
C330 C324 1.383 . S
C330 C329 1.379 . S
H331 C325 0.959 . S
H332 C325 0.961 . S
H333 C325 0.960 . S
H334 C326 0.930 . S
H335 C327 0.929 . S
H336 C344 0.929 1_554 S
H337 C346 0.930 . S
H338 C348 0.930 . S
H339 C351 0.929 . S
H340 C354 0.930 . S
H341 C356 0.960 . S
H342 C356 0.960 . S
H343 C356 0.960 . S
C344 H336 0.929 1_556 S
C344 C345 1.377 1_556 S
C344 C346 1.384 . S
C345 C344 1.377 1_554 S
C345 C351 1.390 1_554 S
C346 H337 0.930 . S
C346 C344 1.384 . S
C346 C347 1.372 . S
C347 C346 1.372 . S
C347 C348 1.400 . S
C347 C352 1.490 . S
C348 H338 0.930 . S
C348 C347 1.400 . S
C348 C351 1.386 . S
H349 C365 0.930 . S
H350 C366 0.931 . S
C351 H339 0.929 . S
C351 C345 1.390 1_556 S
C351 C348 1.386 . S
C352 C347 1.490 . S
C352 C354 1.395 . S
C352 C355 1.403 . S
H353 C359 0.930 1_655 S
C354 H340 0.930 . S
C354 C352 1.395 . S
C354 C357 1.403 . S
C355 C352 1.403 . S
C355 C356 1.524 1_455 S
C355 C359 1.400 . S
C356 H341 0.960 . S
C356 H342 0.960 . S
C356 H343 0.960 . S
C356 C355 1.524 1_655 S
C357 C354 1.403 . S
C357 C358 1.392 . S
C357 C361 1.495 . S
C358 C357 1.392 . S
C358 C359 1.385 . S
C358 C360 1.478 . S
C359 H353 0.930 1_455 S
C359 C355 1.400 . S
C359 C358 1.385 . S
C360 C358 1.478 . S
C360 C362 1.381 . S
C360 C366 1.383 . S
C361 C357 1.495 . S
C361 H367 0.959 . S
C361 H368 0.961 . S
C361 H369 0.960 . S
C362 C360 1.381 . S
C362 C363 1.394 . S
C362 H370 0.930 . S
C363 C362 1.394 . S
C363 C364 1.383 . S
C363 H371 0.929 . S
C364 C363 1.383 . S
C364 C365 1.377 . S
C365 H349 0.930 . S
C365 C364 1.377 . S
C365 C366 1.379 . S
C366 H350 0.931 . S
C366 C360 1.383 . S
C366 C365 1.379 . S
H367 C361 0.959 . S
H368 C361 0.961 . S
H369 C361 0.960 . S
H370 C362 0.930 . S
H371 C363 0.929 . S
H372 C380 0.929 . S
H373 C382 0.930 . S
H374 C384 0.930 1_565 S
H375 C387 0.929 1_565 S
H376 C390 0.930 . S
H377 C392 0.960 . S
H378 C392 0.960 . S
H379 C392 0.960 . S
C380 H372 0.929 . S
C380 C381 1.377 . S
C380 C382 1.384 . S
C381 C380 1.377 . S
C381 C387 1.390 . S
C382 H373 0.930 . S
C382 C380 1.384 . S
C382 C383 1.372 . S
C383 C382 1.372 . S
C383 C384 1.400 . S
C383 C388 1.490 . S
C384 H374 0.930 1_545 S
C384 C383 1.400 . S
C384 C387 1.386 . S
H385 C401 0.930 . S
H386 C402 0.931 . S
C387 H375 0.929 1_545 S
C387 C381 1.390 . S
C387 C384 1.386 . S
C388 C383 1.490 . S
C388 C390 1.395 1_545 S
C388 C391 1.403 . S
H389 C395 0.930 . S
C390 H376 0.930 . S
C390 C388 1.395 1_565 S
C390 C393 1.403 1_554 S
C391 C388 1.403 . S
C391 C392 1.524 . S
C391 C395 1.400 1_554 S
C392 H377 0.960 . S
C392 H378 0.960 . S
C392 H379 0.960 . S
C392 C391 1.524 . S
C393 C390 1.403 1_556 S
C393 C394 1.392 1_565 S
C393 C397 1.495 . S
C394 C393 1.392 1_545 S
C394 C395 1.385 . S
C394 C396 1.478 . S
C395 H389 0.930 . S
C395 C391 1.400 1_556 S
C395 C394 1.385 . S
C396 C394 1.478 . S
C396 C398 1.381 . S
C396 C402 1.383 1_545 S
C397 C393 1.495 . S
C397 H403 0.959 . S
C397 H404 0.961 . S
C397 H405 0.960 . S
C398 C396 1.381 . S
C398 C399 1.394 . S
C398 H406 0.930 . S
C399 C398 1.394 . S
C399 C400 1.383 . S
C399 H407 0.929 . S
C400 C399 1.383 . S
C400 C401 1.377 1_545 S
C401 H385 0.930 . S
C401 C400 1.377 1_565 S
C401 C402 1.379 . S
C402 H386 0.931 . S
C402 C396 1.383 1_565 S
C402 C401 1.379 . S
H403 C397 0.959 . S
H404 C397 0.961 . S
H405 C397 0.960 . S
H406 C398 0.930 . S
H407 C399 0.929 . S
H408 C416 0.929 . S
H409 C418 0.930 . S
H410 C420 0.930 . S
H411 C423 0.929 . S
H412 C426 0.930 . S
H413 C428 0.960 . S
H414 C428 0.960 . S
H415 C428 0.960 . S
C416 H408 0.929 . S
C416 C417 1.377 . S
C416 C418 1.384 . S
C417 C416 1.377 . S
C417 C423 1.390 . S
C418 H409 0.930 . S
C418 C416 1.384 . S
C418 C419 1.372 . S
C419 C418 1.372 . S
C419 C420 1.400 . S
C419 C424 1.490 . S
C420 H410 0.930 . S
C420 C419 1.400 . S
C420 C423 1.386 . S
H421 C437 0.930 . S
H422 C438 0.931 . S
C423 H411 0.929 . S
C423 C417 1.390 . S
C423 C420 1.386 . S
C424 C419 1.490 . S
C424 C426 1.395 . S
C424 C427 1.403 . S
H425 C431 0.930 . S
C426 H412 0.930 . S
C426 C424 1.395 . S
C426 C429 1.403 . S
C427 C424 1.403 . S
C427 C428 1.524 . S
C427 C431 1.400 . S
C428 H413 0.960 . S
C428 H414 0.960 . S
C428 H415 0.960 . S
C428 C427 1.524 . S
C429 C426 1.403 . S
C429 C430 1.392 . S
C429 C433 1.495 . S
C430 C429 1.392 . S
C430 C431 1.385 . S
C430 C432 1.478 . S
C431 H425 0.930 . S
C431 C427 1.400 . S
C431 C430 1.385 . S
C432 C430 1.478 . S
C432 C434 1.381 . S
C432 C438 1.383 . S
C433 C429 1.495 . S
C433 H439 0.959 . S
C433 H440 0.961 . S
C433 H441 0.960 . S
C434 C432 1.381 . S
C434 C435 1.394 . S
C434 H442 0.930 . S
C435 C434 1.394 . S
C435 C436 1.383 1_554 S
C435 H443 0.929 1_554 S
C436 C435 1.383 1_556 S
C436 C437 1.377 1_556 S
C437 H421 0.930 . S
C437 C436 1.377 1_554 S
C437 C438 1.379 . S
C438 H422 0.931 . S
C438 C432 1.383 . S
C438 C437 1.379 . S
H439 C433 0.959 . S
H440 C433 0.961 . S
H441 C433 0.960 . S
H442 C434 0.930 . S
H443 C435 0.929 1_556 S
C129 C25 1.891 . S
C148 C111 1.834 . S
C165 C65 2.129 . S
C184 C20 2.153 . S
C201 C60 2.147 . S
C220 C105 2.115 . S
C237 C100 2.091 . S
C256 C4 2.061 . S
C273 C44 1.772 . S
C292 C31 1.763 . S
C309 C84 1.778 . S
C328 C71 1.745 . S
C345 C2 0.382 . S
C364 C23 0.374 . S
C381 C42 0.366 . S
C400 C63 0.363 . S
C417 C82 0.343 . S
C436 C103 0.327 . S
