# Generated by pormake.
# Topology wje, (4)-cn, num edge types: 1
# Building blocks:
#     Node 0, Type 0, BuildingBlock: QUQFOY_clean_sbu_3, # of connection points: 4
#     Node 1, Type 0, BuildingBlock: QUQFOY_clean_sbu_3, # of connection points: 4
#     Node 2, Type 0, BuildingBlock: QUQFOY_clean_sbu_3, # of connection points: 4
#     Node 3, Type 0, BuildingBlock: QUQFOY_clean_sbu_3, # of connection points: 4
#     Node 4, Type 0, BuildingBlock: QUQFOY_clean_sbu_3, # of connection points: 4
#     Node 5, Type 0, BuildingBlock: QUQFOY_clean_sbu_3, # of connection points: 4
#     Node 6, Type 0, BuildingBlock: QUQFOY_clean_sbu_3, # of connection points: 4
#     Node 7, Type 0, BuildingBlock: QUQFOY_clean_sbu_3, # of connection points: 4
#     Node 8, Type 0, BuildingBlock: QUQFOY_clean_sbu_3, # of connection points: 4
#     Node 9, Type 0, BuildingBlock: QUQFOY_clean_sbu_3, # of connection points: 4
#     Node 10, Type 0, BuildingBlock: QUQFOY_clean_sbu_3, # of connection points: 4
#     Node 11, Type 0, BuildingBlock: QUQFOY_clean_sbu_3, # of connection points: 4
#     Edge 12, Type (0, 0), BuildingBlock: OJICUG_clean_linker_0, # of connection points: 2
#     Edge 13, Type (0, 0), BuildingBlock: OJICUG_clean_linker_0, # of connection points: 2
#     Edge 14, Type (0, 0), BuildingBlock: OJICUG_clean_linker_0, # of connection points: 2
#     Edge 15, Type (0, 0), BuildingBlock: OJICUG_clean_linker_0, # of connection points: 2
#     Edge 16, Type (0, 0), BuildingBlock: OJICUG_clean_linker_0, # of connection points: 2
#     Edge 17, Type (0, 0), BuildingBlock: OJICUG_clean_linker_0, # of connection points: 2
#     Edge 18, Type (0, 0), BuildingBlock: OJICUG_clean_linker_0, # of connection points: 2
#     Edge 19, Type (0, 0), BuildingBlock: OJICUG_clean_linker_0, # of connection points: 2
#     Edge 20, Type (0, 0), BuildingBlock: OJICUG_clean_linker_0, # of connection points: 2
#     Edge 21, Type (0, 0), BuildingBlock: OJICUG_clean_linker_0, # of connection points: 2
#     Edge 22, Type (0, 0), BuildingBlock: OJICUG_clean_linker_0, # of connection points: 2
#     Edge 23, Type (0, 0), BuildingBlock: OJICUG_clean_linker_0, # of connection points: 2
#     Edge 24, Type (0, 0), BuildingBlock: OJICUG_clean_linker_0, # of connection points: 2
#     Edge 25, Type (0, 0), BuildingBlock: OJICUG_clean_linker_0, # of connection points: 2
#     Edge 26, Type (0, 0), BuildingBlock: OJICUG_clean_linker_0, # of connection points: 2
#     Edge 27, Type (0, 0), BuildingBlock: OJICUG_clean_linker_0, # of connection points: 2
#     Edge 28, Type (0, 0), BuildingBlock: OJICUG_clean_linker_0, # of connection points: 2
#     Edge 29, Type (0, 0), BuildingBlock: OJICUG_clean_linker_0, # of connection points: 2
#     Edge 30, Type (0, 0), BuildingBlock: OJICUG_clean_linker_0, # of connection points: 2
#     Edge 31, Type (0, 0), BuildingBlock: OJICUG_clean_linker_0, # of connection points: 2
#     Edge 32, Type (0, 0), BuildingBlock: OJICUG_clean_linker_0, # of connection points: 2
#     Edge 33, Type (0, 0), BuildingBlock: OJICUG_clean_linker_0, # of connection points: 2
#     Edge 34, Type (0, 0), BuildingBlock: OJICUG_clean_linker_0, # of connection points: 2
#     Edge 35, Type (0, 0), BuildingBlock: OJICUG_clean_linker_0, # of connection points: 2
# Relax obj value: 0.140
# Max RMSD: 0.092
# Mean RMSD: 0.092
data_MOF--net-wje--node1-QUQFOY_clean_sbu_3--edge1-OJICUG_clean_linker_0
_symmetry_space_group_name_H-M    P1
_symmetry_Int_Tables_number       1
_symmetry_cell_setting            triclinic
loop_
_symmetry_equiv_pos_as_xyz
'x, y, z'
_cell_length_a     30.920514
_cell_length_b     30.438531
_cell_length_c     29.553105
_cell_angle_alpha  90.067143
_cell_angle_beta   89.907266
_cell_angle_gamma 120.01251
loop_
_atom_site_label
_atom_site_type_symbol
_atom_site_fract_x
_atom_site_fract_y
_atom_site_fract_z
_atom_type_partial_charge
C0 C 0.20395 0.91516 0.25814 0.0
O1 O 0.22002 0.88496 0.24969 0.0
Cd2 Cd 0.30099 0.90657 0.27686 0.0
O3 O 0.234 0.96117 0.26845 0.0
Cd4 Cd 0.32451 0.02198 0.26571 0.0
C5 C 0.30746 0.97677 0.37278 0.0
O6 O 0.35915 0.97412 0.23153 0.0
O7 O 0.411 0.04119 0.26896 0.0
O8 O 0.31515 0.0559 0.19499 0.0
C9 C 0.40326 0.00276 0.24576 0.0
O10 O 0.30058 0.93589 0.35426 0.0
C11 C 0.32747 0.0997 0.21002 0.0
O12 O 0.31808 0.01601 0.34906 0.0
O13 O 0.33889 0.10809 0.2518 0.0
C14 C 0.32302 0.26814 0.65408 0.0
O15 O 0.36865 0.30206 0.65791 0.0
Cd16 Cd 0.4023 0.38989 0.65735 0.0
O17 O 0.28947 0.27925 0.64393 0.0
Cd18 Cd 0.28751 0.35945 0.62782 0.0
C19 C 0.31501 0.37451 0.73995 0.0
O20 O 0.36652 0.40067 0.59151 0.0
O21 O 0.34306 0.45244 0.61348 0.0
O22 O 0.233 0.31266 0.56433 0.0
C23 C 0.37486 0.44566 0.59211 0.0
O24 O 0.35913 0.38779 0.72676 0.0
C25 C 0.20974 0.33718 0.56445 0.0
O26 O 0.27975 0.36234 0.71141 0.0
O27 O 0.21951 0.36885 0.59635 0.0
C28 C 0.01063 0.22804 0.93813 0.0
O29 O 0.03651 0.25981 0.90791 0.0
Cd30 Cd 0.04728 0.33728 0.94018 0.0
O31 O -0.02055 0.23549 0.95979 0.0
Cd32 Cd 0.94692 0.29226 0.93984 0.0
C33 C -0.01125 0.31361 0.04414 0.0
O34 O 0.00558 0.37266 0.90067 0.0
O35 O 0.96035 0.37545 0.95585 0.0
O36 O 0.91159 0.25449 0.86763 0.0
C37 C -0.00836 0.39824 0.92435 0.0
O38 O 0.0297 0.33144 0.02228 0.0
C39 C 0.86613 0.23603 0.87894 0.0
O40 O 0.94726 0.29377 0.02284 0.0
O41 O 0.8573 0.24325 0.91968 0.0
C42 C 0.74723 0.06098 0.28768 0.0
O43 O 0.72406 0.08482 0.28002 0.0
Cd44 Cd 0.63753 0.04879 0.29414 0.0
O45 O 0.7242 0.01308 0.29309 0.0
Cd46 Cd 0.63913 0.9399 0.28052 0.0
C47 C 0.63453 0.97657 0.38836 0.0
O48 O 0.60171 0.98146 0.24324 0.0
O49 O 0.54846 0.90865 0.27065 0.0
O50 O 0.67096 0.9249 0.21128 0.0
C51 C 0.55644 0.94852 0.2498 0.0
O52 O 0.6342 0.01411 0.36956 0.0
C53 C 0.65903 0.87933 0.21968 0.0
O54 O 0.63541 0.94171 0.36471 0.0
O55 O 0.63878 0.8614 0.258 0.0
C56 C 0.73169 0.7879 0.63732 0.0
O57 O 0.71457 0.77616 0.59755 0.0
Cd58 Cd 0.67545 0.68597 0.61579 0.0
O59 O 0.72797 0.7524 0.66217 0.0
Cd60 Cd 0.68334 0.66588 0.62005 0.0
C61 C 0.6577 0.65531 0.71856 0.0
O62 O 0.599 0.64776 0.58381 0.0
O63 O 0.606 0.58522 0.60947 0.0
O64 O 0.73975 0.70159 0.5546 0.0
C65 C 0.57918 0.6004 0.59019 0.0
O66 O 0.64516 0.68136 0.69446 0.0
C67 C 0.75003 0.66618 0.55216 0.0
O68 O 0.68096 0.63602 0.69898 0.0
O69 O 0.7313 0.63175 0.58228 0.0
C70 C 0.87298 0.60487 0.9475 0.0
O71 O 0.87052 0.56203 0.94517 0.0
Cd72 Cd 0.93894 0.5508 0.95816 0.0
O73 O 0.91509 0.64602 0.94691 0.0
Cd74 Cd 0.00547 0.67218 0.93696 0.0
C75 C -0.01544 0.63912 0.04707 0.0
O76 O -0.00382 0.59827 0.90098 0.0
O77 O 0.06345 0.63794 0.93972 0.0
O78 O 0.0123 0.71412 0.86516 0.0
C79 C 0.03694 0.60176 0.91285 0.0
O80 O 0.96161 0.59392 0.03166 0.0
C81 C 0.05204 0.75502 0.8748 0.0
O82 O 0.00607 0.67727 0.02051 0.0
O83 O 0.06846 0.75924 0.91504 0.0
C84 C 0.02737 0.77738 0.33453 0.0
O85 O 0.04681 0.76814 0.36814 0.0
Cd86 Cd 0.04346 0.69163 0.34231 0.0
O87 O -0.00887 0.74018 0.31478 0.0
Cd88 Cd 0.93851 0.65349 0.34577 0.0
C89 C -0.0224 0.66036 0.24102 0.0
O90 O -0.01217 0.62415 0.38879 0.0
O91 O 0.92642 0.56911 0.34741 0.0
O92 O 0.91745 0.69012 0.40829 0.0
C93 C 0.96191 0.57882 0.37455 0.0
O94 O 0.01898 0.67786 0.26202 0.0
C95 C 0.87057 0.66028 0.40595 0.0
O96 O 0.93684 0.64552 0.26279 0.0
O97 O 0.8543 0.62782 0.37391 0.0
C98 C 0.31021 0.07848 0.68071 0.0
O99 O 0.35527 0.08854 0.6821 0.0
Cd100 Cd 0.38356 0.03275 0.66222 0.0
O101 O 0.27424 0.03322 0.67534 0.0
Cd102 Cd 0.26499 0.94654 0.67618 0.0
C103 C 0.30504 0.97839 0.56827 0.0
O104 O 0.3407 0.96646 0.71374 0.0
O105 O 0.31166 0.89956 0.67289 0.0
O106 O 0.22034 0.93152 0.74685 0.0
C107 C 0.34483 0.92937 0.70048 0.0
O108 O 0.34734 0.00741 0.5865 0.0
C109 C 0.18287 0.88918 0.73624 0.0
O110 O 0.26644 0.95042 0.59233 0.0
O111 O 0.18182 0.8736 0.69595 0.0
C112 C 0.15926 0.23258 0.03081 0.0
O113 O 0.16379 0.26033 0.06439 0.0
Cd114 Cd 0.2335 0.33686 0.03436 0.0
O115 O 0.19825 0.24384 0.00809 0.0
Cd116 Cd 0.2846 0.30033 0.03501 0.0
C117 C 0.27359 0.32946 0.93093 0.0
O118 O 0.30779 0.38191 0.07667 0.0
O119 O 0.36016 0.37815 0.02913 0.0
O120 O 0.27864 0.25607 0.10464 0.0
C121 C 0.35103 0.40269 0.0587 0.0
O122 O 0.2458 0.34244 0.95197 0.0
C123 C 0.30518 0.23739 0.09146 0.0
O124 O 0.2956 0.31019 0.95282 0.0
O125 O 0.32199 0.24732 0.05112 0.0
C126 C 0.91336 0.23228 0.34288 0.0
O127 O 0.88891 0.25501 0.34954 0.0
Cd128 Cd 0.9233 0.34187 0.33204 0.0
O129 O 0.9605 0.25661 0.33719 0.0
Cd130 Cd 0.03098 0.34456 0.34787 0.0
C131 C -0.00516 0.34085 0.23921 0.0
O132 O -0.01295 0.3802 0.38531 0.0
O133 O 0.05708 0.43548 0.3561 0.0
O134 O 0.04755 0.30575 0.41227 0.0
C135 C 0.01835 0.42644 0.37834 0.0
O136 O 0.95773 0.3416 0.25733 0.0
C137 C 0.09475 0.33216 0.40952 0.0
O138 O 0.02986 0.34261 0.26363 0.0
O139 O 0.11293 0.36245 0.37609 0.0
C140 C 0.6837 0.92692 0.70124 0.0
O141 O 0.6398 0.89584 0.71456 0.0
Cd142 Cd 0.57492 0.90703 0.68313 0.0
O143 O 0.69417 0.97019 0.68614 0.0
Cd144 Cd 0.65441 0.023 0.69005 0.0
C145 C 0.63182 0.97547 0.58454 0.0
O146 O 0.5721 0.9724 0.72316 0.0
O147 O 0.58055 0.02861 0.67357 0.0
O148 O 0.68956 0.05727 0.76334 0.0
C149 C 0.55261 -0.00607 0.7012 0.0
O150 O 0.6008 0.93431 0.60433 0.0
C151 C 0.71873 0.10242 0.7503 0.0
O152 O 0.65828 0.01611 0.60724 0.0
O153 O 0.71807 0.11172 0.70828 0.0
C154 C 0.69163 0.59953 0.00296 0.0
O155 O 0.65286 0.55592 0.00561 0.0
Cd156 Cd 0.57125 0.54135 -0.00127 0.0
O157 O 0.68867 0.63984 0.00579 0.0
Cd158 Cd 0.62281 0.66349 0.01914 0.0
C159 C 0.60754 0.62767 0.90913 0.0
O160 O 0.56532 0.58938 0.05816 0.0
O161 O 0.5309 0.62782 0.027 0.0
O162 O 0.662 0.70792 0.08866 0.0
C163 C 0.52648 0.59252 0.05289 0.0
O164 O 0.58704 0.58275 0.92499 0.0
C165 C 0.65951 0.7474 0.07982 0.0
O166 O 0.62347 0.66608 0.93539 0.0
O167 O 0.64415 0.75017 0.04051 0.0
C168 C 0.33042 0.1348 0.13296 0.0
C169 C 0.32635 0.13796 0.18012 0.0
H170 H 0.32795 0.16457 0.06788 0.0
C171 C 0.31811 0.17589 0.19795 0.0
H172 H 0.33697 0.10599 0.11831 0.0
C173 C 0.31184 0.20862 0.16903 0.0
C174 C 0.31493 0.2048 0.12183 0.0
H175 H 0.31467 0.17906 0.23413 0.0
H176 H 0.30415 0.23668 0.18362 0.0
C177 C 0.32538 0.16834 0.1041 0.0
C178 C 0.14403 0.28821 0.50622 0.0
C179 C 0.17898 0.3348 0.52551 0.0
H180 H 0.08878 0.25081 0.45431 0.0
C181 C 0.1877 0.3801 0.50501 0.0
H182 H 0.13719 0.25284 0.52124 0.0
C183 C 0.16215 0.37896 0.46569 0.0
C184 C 0.12617 0.33249 0.44707 0.0
H185 H 0.21514 0.41648 0.51889 0.0
H186 H 0.16929 0.41446 0.4507 0.0
C187 C 0.11686 0.28707 0.46786 0.0
C188 C 0.79974 0.18109 0.76788 0.0
C189 C 0.75379 0.14087 0.78268 0.0
H190 H 0.87159 0.24242 0.78699 0.0
C191 C 0.7434 0.1349 0.82939 0.0
H192 H 0.80886 0.1865 0.73217 0.0
C193 C 0.7789 0.16749 0.86077 0.0
C194 C 0.82593 0.20587 0.84607 0.0
H195 H 0.70815 0.10426 0.84176 0.0
H196 H 0.77038 0.16114 0.89655 0.0
C197 C 0.83569 0.2129 0.79931 0.0
C198 C 0.67226 0.83174 0.10492 0.0
C199 C 0.66717 0.78452 0.11577 0.0
H200 H 0.67461 0.89904 0.12942 0.0
C201 C 0.66342 0.77043 0.16162 0.0
H202 H 0.67511 0.84358 0.06997 0.0
C203 C 0.66195 0.80165 0.1957 0.0
C204 C 0.6653 0.84807 0.18468 0.0
H205 H 0.65909 0.73407 0.17108 0.0
H206 H 0.65712 0.78895 0.23052 0.0
C207 C 0.67189 0.86342 0.13905 0.0
C208 C 0.79802 0.61649 0.45874 0.0
C209 C 0.83745 0.66169 0.44114 0.0
H210 H 0.7404 0.58248 0.50912 0.0
C211 C 0.84795 0.70823 0.4603 0.0
H212 H 0.78968 0.58012 0.44488 0.0
C213 C 0.81922 0.70964 0.49622 0.0
C214 C 0.78071 0.66443 0.51471 0.0
H215 H 0.8784 0.74355 0.44744 0.0
H216 H 0.82774 0.74605 0.51012 0.0
C217 C 0.77034 0.61781 0.49575 0.0
C218 C 0.15407 0.87207 0.81683 0.0
C219 C 0.14514 0.85798 0.7709 0.0
H220 H 0.13171 0.85071 0.88572 0.0
C221 C 0.10224 0.81216 0.75936 0.0
H222 H 0.18675 0.9072 0.82696 0.0
C223 C 0.07024 0.7801 0.79317 0.0
C224 C 0.08089 0.79286 0.83923 0.0
H225 H 0.09421 0.8003 0.72434 0.0
H226 H 0.03847 0.74415 0.78323 0.0
C227 C 0.12252 0.83973 0.85062 0.0
C228 C 0.42897 0.937 0.24228 0.0
C229 C 0.44193 -0.01168 0.24164 0.0
H230 H 0.45542 0.88397 0.24618 0.0
C231 C 0.49242 0.02597 0.24036 0.0
H232 H 0.39015 0.90729 0.24351 0.0
C233 C 0.52951 0.01267 0.2407 0.0
C234 C 0.51679 0.96149 0.2438 0.0
H235 H 0.50323 0.06577 0.23967 0.0
H236 H 0.56818 0.04271 0.24034 0.0
C237 C 0.46619 0.92368 0.24398 0.0
C238 C 0.48931 0.5768 0.58919 0.0
C239 C 0.52653 0.56434 0.58034 0.0
H240 H 0.41107 0.54836 0.60025 0.0
C241 C 0.51274 0.5144 0.56876 0.0
H242 H 0.49929 0.61519 0.5984 0.0
C243 C 0.46275 0.47663 0.56913 0.0
C244 C 0.42559 0.48784 0.5822 0.0
H245 H 0.54088 0.50407 0.56152 0.0
H246 H 0.45367 0.43804 0.56194 0.0
C247 C 0.439 0.5386 0.59046 0.0
C248 C 0.04527 0.53562 0.95374 0.0
C249 C 0.04 0.55527 0.91254 0.0
H250 H 0.03252 0.46913 -0.01031 0.0
C251 C 0.02535 0.52452 0.87369 0.0
H252 H 0.05555 0.55834 -0.01571 0.0
C253 C 0.01313 0.47375 0.87662 0.0
C254 C 0.01383 0.45309 0.91874 0.0
H255 H 0.02037 0.5389 0.84177 0.0
H256 H -0.00047 0.44984 0.84685 0.0
C257 C 0.03149 0.48458 0.95694 0.0
C258 C 0.93985 0.48903 0.38504 0.0
C259 C -0.02359 0.54052 0.38364 0.0
H260 H 0.92464 0.41243 0.38602 0.0
C261 C 0.0271 0.55456 0.38536 0.0
H262 H 0.90054 0.47743 0.38379 0.0
C263 C 0.04103 0.51737 0.38524 0.0
C264 C 0.0044 0.46576 0.38468 0.0
H265 H 0.05593 0.59415 0.38397 0.0
H266 H 0.08033 0.52893 0.38424 0.0
C267 C 0.95371 0.45194 0.3863 0.0
C268 C 0.47382 0.96977 0.66002 0.0
C269 C 0.49825 0.97271 0.70085 0.0
H270 H 0.4046 0.95088 0.62789 0.0
C271 C 0.47034 0.95498 0.74091 0.0
H272 H 0.49458 0.98264 0.62862 0.0
C273 C 0.41903 0.93759 0.74055 0.0
C274 C 0.39492 0.93569 0.69984 0.0
H275 H 0.48855 0.95675 0.7727 0.0
H276 H 0.39851 0.92721 0.77218 0.0
C277 C 0.42239 0.9508 0.65944 0.0
C278 C 0.43223 0.4621 0.09247 0.0
C279 C 0.38956 0.45442 0.06947 0.0
H280 H 0.50912 0.51316 0.10649 0.0
C281 C 0.38946 0.49515 0.04743 0.0
H282 H 0.43293 0.43077 0.10915 0.0
C283 C 0.43334 0.54227 0.04504 0.0
C284 C 0.47751 0.54869 0.0646 0.0
H285 H 0.35683 0.48936 0.02885 0.0
H286 H 0.43356 0.57218 0.02504 0.0
C287 C 0.47579 0.50911 0.09053 0.0
C288 C 0.09233 0.86825 0.33121 0.0
C289 C 0.05983 0.82326 0.30834 0.0
H290 H 0.16431 0.93509 0.33133 0.0
C291 C 0.06935 0.8176 0.26277 0.0
H292 H 0.08561 0.87336 0.3663 0.0
C293 C 0.11519 0.85182 0.24336 0.0
C294 C 0.15073 0.89299 0.26871 0.0
H295 H 0.04475 0.78328 0.24428 0.0
H296 H 0.12478 0.84324 0.21051 0.0
C297 C 0.13735 0.90349 0.31112 0.0
C298 C 0.33679 0.20994 0.70147 0.0
C299 C 0.30969 0.2162 0.66652 0.0
H300 H 0.35668 0.16021 0.73417 0.0
C301 C 0.27441 0.17363 0.64221 0.0
H302 H 0.36326 0.24202 0.72153 0.0
C303 C 0.27041 0.12622 0.6498 0.0
C304 C 0.30153 0.12158 0.68177 0.0
H305 H 0.25286 0.17771 0.61538 0.0
H306 H 0.24627 0.09452 0.62824 0.0
C307 C 0.33276 0.16312 0.70902 0.0
C308 C 0.1076 0.19506 0.9622 0.0
C309 C 0.10988 0.20251 0.00933 0.0
H310 H 0.0716 0.19652 0.90099 0.0
C311 C 0.06713 0.19582 0.03209 0.0
H312 H 0.1393 0.19817 0.94371 0.0
C313 C 0.02763 0.19359 0.00744 0.0
C314 C 0.03156 0.19929 0.9601 0.0
H315 H 0.06714 0.1996 0.06856 0.0
H316 H -0.0015 0.19586 0.02589 0.0
C317 C 0.06863 0.19394 0.93754 0.0
C318 C 0.87772 0.167 0.28417 0.0
C319 C 0.88452 0.17888 0.33045 0.0
H320 H 0.82661 0.11826 0.23353 0.0
C321 C 0.852 0.14371 0.36218 0.0
H322 H 0.90207 0.19438 0.25925 0.0
C323 C 0.80987 0.09948 0.34747 0.0
C324 C 0.79939 0.0913 0.30106 0.0
H325 H 0.85633 0.15288 0.39792 0.0
H326 H 0.78238 0.07525 0.37227 0.0
C327 C 0.8347 0.12365 0.26943 0.0
C328 C 0.74703 0.87601 0.62993 0.0
C329 C 0.74153 0.83616 0.65767 0.0
H330 H 0.73438 0.93863 0.62345 0.0
C331 C 0.73166 0.83699 0.70407 0.0
H332 H 0.75508 0.87647 0.59418 0.0
C333 C 0.71836 0.87155 0.72047 0.0
C334 C 0.71682 0.90674 0.69104 0.0
H335 H 0.72764 0.80698 0.72644 0.0
H336 H 0.70446 0.86742 0.7548 0.0
C337 C 0.7353 0.91166 0.64677 0.0
C338 C 0.78373 0.64908 -0.01439 0.0
C339 C 0.73908 0.6024 -0.01015 0.0
H340 H 0.86156 0.68686 0.96819 0.0
C341 C 0.73863 0.55764 0.97737 0.0
H342 H 0.78505 0.68429 -0.0056 0.0
C343 C 0.78159 0.55922 0.9614 0.0
C344 C 0.82661 0.60552 0.95804 0.0
H345 H 0.70483 0.52101 0.9794 0.0
H346 H 0.77951 0.52365 0.9526 0.0
C347 C 0.8273 0.65062 0.97001 0.0
C348 C 0.33317 0.02321 0.44669 0.0
C349 C 0.30364 0.97813 0.42267 0.0
H350 H 0.35711 0.05823 0.51171 0.0
C351 C 0.27196 0.93354 0.4469 0.0
H352 H 0.35795 0.05806 0.42897 0.0
C353 C 0.27055 0.93385 0.4943 0.0
C354 C 0.30184 0.97844 0.51831 0.0
H355 H 0.2485 0.89827 0.42919 0.0
H356 H 0.24648 0.89885 0.51214 0.0
C357 C 0.33279 0.02319 0.49402 0.0
C358 C 0.32657 0.34536 0.86234 0.0
C359 C 0.28293 0.34018 0.88187 0.0
H360 H 0.3713 0.36149 0.80307 0.0
C361 C 0.24994 0.34786 0.85458 0.0
H362 H 0.35298 0.3402 0.88244 0.0
C363 C 0.26017 0.35969 0.80846 0.0
C364 C 0.30423 0.36534 0.78913 0.0
H365 H 0.21599 0.34423 0.86878 0.0
H366 H 0.23376 0.36446 0.78803 0.0
C367 C 0.33731 0.35823 0.8168 0.0
C368 C 0.03629 0.33998 0.16564 0.0
C369 C -0.00578 0.33402 0.18927 0.0
H370 H 0.06763 0.33823 0.10132 0.0
C371 C 0.95003 0.31976 0.16479 0.0
H372 H 0.07079 0.35063 0.18338 0.0
C373 C 0.94794 0.31194 0.11804 0.0
C374 C -0.00986 0.3187 0.09425 0.0
H375 H 0.91661 0.31425 0.18178 0.0
H376 H 0.91338 0.3014 0.10046 0.0
C377 C 0.03437 0.33275 0.11861 0.0
C378 C 0.65406 0.02131 0.46299 0.0
C379 C 0.63595 0.97568 0.43855 0.0
H380 H 0.66781 0.05719 0.52792 0.0
C381 C 0.61874 0.93018 0.4626 0.0
H382 H 0.66815 0.05718 0.44551 0.0
C383 C 0.61799 0.93019 0.51007 0.0
C384 C 0.6354 0.97583 0.53442 0.0
H385 H 0.60469 0.89448 0.4448 0.0
H386 H 0.60351 0.89437 0.5277 0.0
C387 C 0.6542 0.02144 0.51029 0.0
C388 C 0.62619 0.67831 0.8372 0.0
C389 C 0.61876 0.63466 0.86001 0.0
H390 H 0.64375 0.71862 0.77424 0.0
C391 C 0.62496 0.59814 0.83596 0.0
H392 H 0.62204 0.7072 0.85485 0.0
C393 C 0.63871 0.60527 0.7903 0.0
C394 C 0.64538 0.64847 0.76736 0.0
H395 H 0.62022 0.56437 0.85271 0.0
H396 H 0.64337 0.57661 0.77279 0.0
C397 C 0.63869 0.68479 0.79114 0.0
C398 C 0.02009 0.6919 0.16615 0.0
C399 C -0.02209 0.65697 0.19107 0.0
H400 H 0.05498 0.71438 0.10079 0.0
C401 C 0.93758 0.61745 0.16805 0.0
H402 H 0.05172 0.7229 0.18307 0.0
C403 C 0.94012 0.61185 0.1213 0.0
C404 C -0.01754 0.64645 0.09639 0.0
H405 H 0.90476 0.58992 0.18637 0.0
H406 H 0.90875 0.5804 0.10455 0.0
C407 C 0.02203 0.68714 0.11913 0.0
loop_
_geom_bond_atom_site_label_1
_geom_bond_atom_site_label_2
_geom_bond_distance
_geom_bond_site_symmetry_2
_ccdc_geom_bond_type
C0 O1 1.306 . S
C0 O3 1.160 . S
O1 C0 1.306 . S
O1 Cd2 2.228 . S
Cd2 O1 2.228 . S
Cd2 O6 2.273 . S
Cd2 O10 2.277 . S
O3 C0 1.160 . S
O3 Cd4 2.203 1_565 S
Cd4 O3 2.203 1_545 S
Cd4 O6 2.411 1_545 S
Cd4 O7 2.333 . S
Cd4 O8 2.352 . S
Cd4 O12 2.277 . S
Cd4 O13 2.356 . S
C5 O10 1.209 1_545 S
C5 O12 1.226 . S
O6 Cd2 2.273 . S
O6 Cd4 2.411 1_565 S
O6 C9 1.320 1_565 S
O7 Cd4 2.333 . S
O7 C9 1.214 . S
O8 Cd4 2.352 . S
O8 C11 1.258 . S
C9 O6 1.320 1_545 S
C9 O7 1.214 . S
O10 Cd2 2.277 . S
O10 C5 1.209 1_565 S
C11 O8 1.258 . S
C11 O13 1.282 . S
O12 Cd4 2.277 . S
O12 C5 1.226 . S
O13 Cd4 2.356 . S
O13 C11 1.282 . S
C14 O15 1.306 . S
C14 O17 1.160 . S
O15 C14 1.306 . S
O15 Cd16 2.228 . S
Cd16 O15 2.228 . S
Cd16 O20 2.273 . S
Cd16 O24 2.277 . S
O17 C14 1.160 . S
O17 Cd18 2.203 . S
Cd18 O17 2.203 . S
Cd18 O20 2.411 . S
Cd18 O21 2.333 . S
Cd18 O22 2.352 . S
Cd18 O26 2.277 . S
Cd18 O27 2.356 . S
C19 O24 1.209 . S
C19 O26 1.226 . S
O20 Cd16 2.273 . S
O20 Cd18 2.411 . S
O20 C23 1.320 . S
O21 Cd18 2.333 . S
O21 C23 1.214 . S
O22 Cd18 2.352 . S
O22 C25 1.258 . S
C23 O20 1.320 . S
C23 O21 1.214 . S
O24 Cd16 2.277 . S
O24 C19 1.209 . S
C25 O22 1.258 . S
C25 O27 1.282 . S
O26 Cd18 2.277 . S
O26 C19 1.226 . S
O27 Cd18 2.356 . S
O27 C25 1.282 . S
C28 O29 1.306 . S
C28 O31 1.160 . S
O29 C28 1.306 . S
O29 Cd30 2.228 1_556 S
Cd30 O29 2.228 1_554 S
Cd30 O34 2.273 1_554 S
Cd30 O38 2.277 . S
O31 C28 1.160 . S
O31 Cd32 2.203 1_455 S
Cd32 O31 2.203 1_655 S
Cd32 O34 2.411 1_655 S
Cd32 O35 2.333 . S
Cd32 O36 2.352 . S
Cd32 O40 2.277 1_556 S
Cd32 O41 2.356 . S
C33 O38 1.209 1_655 S
C33 O40 1.226 . S
O34 Cd30 2.273 1_556 S
O34 Cd32 2.411 1_455 S
O34 C37 1.320 1_455 S
O35 Cd32 2.333 . S
O35 C37 1.214 . S
O36 Cd32 2.352 . S
O36 C39 1.258 . S
C37 O34 1.320 1_655 S
C37 O35 1.214 . S
O38 Cd30 2.277 . S
O38 C33 1.209 1_455 S
C39 O36 1.258 . S
C39 O41 1.282 . S
O40 Cd32 2.277 1_554 S
O40 C33 1.226 . S
O41 Cd32 2.356 . S
O41 C39 1.282 . S
C42 O43 1.306 . S
C42 O45 1.160 . S
O43 C42 1.306 . S
O43 Cd44 2.228 . S
Cd44 O43 2.228 . S
Cd44 O48 2.273 . S
Cd44 O52 2.277 . S
O45 C42 1.160 . S
O45 Cd46 2.203 1_545 S
Cd46 O45 2.203 1_565 S
Cd46 O48 2.411 1_565 S
Cd46 O49 2.333 . S
Cd46 O50 2.352 . S
Cd46 O54 2.277 . S
Cd46 O55 2.356 . S
C47 O52 1.209 1_565 S
C47 O54 1.226 . S
O48 Cd44 2.273 . S
O48 Cd46 2.411 1_545 S
O48 C51 1.320 1_545 S
O49 Cd46 2.333 . S
O49 C51 1.214 . S
O50 Cd46 2.352 . S
O50 C53 1.258 . S
C51 O48 1.320 1_565 S
C51 O49 1.214 . S
O52 Cd44 2.277 . S
O52 C47 1.209 1_545 S
C53 O50 1.258 . S
C53 O55 1.282 . S
O54 Cd46 2.277 . S
O54 C47 1.226 . S
O55 Cd46 2.356 . S
O55 C53 1.282 . S
C56 O57 1.306 . S
C56 O59 1.160 . S
O57 C56 1.306 . S
O57 Cd58 2.228 . S
Cd58 O57 2.228 . S
Cd58 O62 2.273 . S
Cd58 O66 2.277 . S
O59 C56 1.160 . S
O59 Cd60 2.203 . S
Cd60 O59 2.203 . S
Cd60 O62 2.411 . S
Cd60 O63 2.333 . S
Cd60 O64 2.352 . S
Cd60 O68 2.277 . S
Cd60 O69 2.356 . S
C61 O66 1.209 . S
C61 O68 1.226 . S
O62 Cd58 2.273 . S
O62 Cd60 2.411 . S
O62 C65 1.320 . S
O63 Cd60 2.333 . S
O63 C65 1.214 . S
O64 Cd60 2.352 . S
O64 C67 1.258 . S
C65 O62 1.320 . S
C65 O63 1.214 . S
O66 Cd58 2.277 . S
O66 C61 1.209 . S
C67 O64 1.258 . S
C67 O69 1.282 . S
O68 Cd60 2.277 . S
O68 C61 1.226 . S
O69 Cd60 2.356 . S
O69 C67 1.282 . S
C70 O71 1.306 . S
C70 O73 1.160 . S
O71 C70 1.306 . S
O71 Cd72 2.228 1_556 S
Cd72 O71 2.228 1_554 S
Cd72 O76 2.273 1_554 S
Cd72 O80 2.277 . S
O73 C70 1.160 . S
O73 Cd74 2.203 1_655 S
Cd74 O73 2.203 1_455 S
Cd74 O76 2.411 1_455 S
Cd74 O77 2.333 . S
Cd74 O78 2.352 . S
Cd74 O82 2.277 1_556 S
Cd74 O83 2.356 . S
C75 O80 1.209 1_455 S
C75 O82 1.226 . S
O76 Cd72 2.273 1_556 S
O76 Cd74 2.411 1_655 S
O76 C79 1.320 1_655 S
O77 Cd74 2.333 . S
O77 C79 1.214 . S
O78 Cd74 2.352 . S
O78 C81 1.258 . S
C79 O76 1.320 1_455 S
C79 O77 1.214 . S
O80 Cd72 2.277 . S
O80 C75 1.209 1_655 S
C81 O78 1.258 . S
C81 O83 1.282 . S
O82 Cd74 2.277 1_554 S
O82 C75 1.226 . S
O83 Cd74 2.356 . S
O83 C81 1.282 . S
C84 O85 1.306 . S
C84 O87 1.160 . S
O85 C84 1.306 . S
O85 Cd86 2.228 . S
Cd86 O85 2.228 . S
Cd86 O90 2.273 . S
Cd86 O94 2.277 . S
O87 C84 1.160 . S
O87 Cd88 2.203 1_455 S
Cd88 O87 2.203 1_655 S
Cd88 O90 2.411 1_655 S
Cd88 O91 2.333 . S
Cd88 O92 2.352 . S
Cd88 O96 2.277 . S
Cd88 O97 2.356 . S
C89 O94 1.209 1_655 S
C89 O96 1.226 . S
O90 Cd86 2.273 . S
O90 Cd88 2.411 1_455 S
O90 C93 1.320 1_455 S
O91 Cd88 2.333 . S
O91 C93 1.214 . S
O92 Cd88 2.352 . S
O92 C95 1.258 . S
C93 O90 1.320 1_655 S
C93 O91 1.214 . S
O94 Cd86 2.277 . S
O94 C89 1.209 1_455 S
C95 O92 1.258 . S
C95 O97 1.282 . S
O96 Cd88 2.277 . S
O96 C89 1.226 . S
O97 Cd88 2.356 . S
O97 C95 1.282 . S
C98 O99 1.306 . S
C98 O101 1.160 . S
O99 C98 1.306 . S
O99 Cd100 2.228 . S
Cd100 O99 2.228 . S
Cd100 O104 2.273 . S
Cd100 O108 2.277 . S
O101 C98 1.160 . S
O101 Cd102 2.203 1_545 S
Cd102 O101 2.203 1_565 S
Cd102 O104 2.411 1_565 S
Cd102 O105 2.333 . S
Cd102 O106 2.352 . S
Cd102 O110 2.277 . S
Cd102 O111 2.356 . S
C103 O108 1.209 1_565 S
C103 O110 1.226 . S
O104 Cd100 2.273 . S
O104 Cd102 2.411 1_545 S
O104 C107 1.320 1_545 S
O105 Cd102 2.333 . S
O105 C107 1.214 . S
O106 Cd102 2.352 . S
O106 C109 1.258 . S
C107 O104 1.320 1_565 S
C107 O105 1.214 . S
O108 Cd100 2.277 . S
O108 C103 1.209 1_545 S
C109 O106 1.258 . S
C109 O111 1.282 . S
O110 Cd102 2.277 . S
O110 C103 1.226 . S
O111 Cd102 2.356 . S
O111 C109 1.282 . S
C112 O113 1.306 . S
C112 O115 1.160 . S
O113 C112 1.306 . S
O113 Cd114 2.228 1_554 S
Cd114 O113 2.228 1_556 S
Cd114 O118 2.273 1_556 S
Cd114 O122 2.277 . S
O115 C112 1.160 . S
O115 Cd116 2.203 . S
Cd116 O115 2.203 . S
Cd116 O118 2.411 . S
Cd116 O119 2.333 . S
Cd116 O120 2.352 . S
Cd116 O124 2.277 1_554 S
Cd116 O125 2.356 . S
C117 O122 1.209 . S
C117 O124 1.226 . S
O118 Cd114 2.273 1_554 S
O118 Cd116 2.411 . S
O118 C121 1.320 . S
O119 Cd116 2.333 . S
O119 C121 1.214 . S
O120 Cd116 2.352 . S
O120 C123 1.258 . S
C121 O118 1.320 . S
C121 O119 1.214 . S
O122 Cd114 2.277 . S
O122 C117 1.209 . S
C123 O120 1.258 . S
C123 O125 1.282 . S
O124 Cd116 2.277 1_556 S
O124 C117 1.226 . S
O125 Cd116 2.356 . S
O125 C123 1.282 . S
C126 O127 1.306 . S
C126 O129 1.160 . S
O127 C126 1.306 . S
O127 Cd128 2.228 . S
Cd128 O127 2.228 . S
Cd128 O132 2.273 . S
Cd128 O136 2.277 . S
O129 C126 1.160 . S
O129 Cd130 2.203 1_655 S
Cd130 O129 2.203 1_455 S
Cd130 O132 2.411 1_455 S
Cd130 O133 2.333 . S
Cd130 O134 2.352 . S
Cd130 O138 2.277 . S
Cd130 O139 2.356 . S
C131 O136 1.209 1_455 S
C131 O138 1.226 . S
O132 Cd128 2.273 . S
O132 Cd130 2.411 1_655 S
O132 C135 1.320 1_655 S
O133 Cd130 2.333 . S
O133 C135 1.214 . S
O134 Cd130 2.352 . S
O134 C137 1.258 . S
C135 O132 1.320 1_455 S
C135 O133 1.214 . S
O136 Cd128 2.277 . S
O136 C131 1.209 1_655 S
C137 O134 1.258 . S
C137 O139 1.282 . S
O138 Cd130 2.277 . S
O138 C131 1.226 . S
O139 Cd130 2.356 . S
O139 C137 1.282 . S
C140 O141 1.306 . S
C140 O143 1.160 . S
O141 C140 1.306 . S
O141 Cd142 2.228 . S
Cd142 O141 2.228 . S
Cd142 O146 2.273 . S
Cd142 O150 2.277 . S
O143 C140 1.160 . S
O143 Cd144 2.203 1_565 S
Cd144 O143 2.203 1_545 S
Cd144 O146 2.411 1_545 S
Cd144 O147 2.333 . S
Cd144 O148 2.352 . S
Cd144 O152 2.277 . S
Cd144 O153 2.356 . S
C145 O150 1.209 1_545 S
C145 O152 1.226 . S
O146 Cd142 2.273 . S
O146 Cd144 2.411 1_565 S
O146 C149 1.320 1_565 S
O147 Cd144 2.333 . S
O147 C149 1.214 . S
O148 Cd144 2.352 . S
O148 C151 1.258 . S
C149 O146 1.320 1_545 S
C149 O147 1.214 . S
O150 Cd142 2.277 . S
O150 C145 1.209 1_565 S
C151 O148 1.258 . S
C151 O153 1.282 . S
O152 Cd144 2.277 . S
O152 C145 1.226 . S
O153 Cd144 2.356 . S
O153 C151 1.282 . S
C154 O155 1.306 . S
C154 O157 1.160 . S
O155 C154 1.306 . S
O155 Cd156 2.228 1_554 S
Cd156 O155 2.228 1_556 S
Cd156 O160 2.273 1_556 S
Cd156 O164 2.277 . S
O157 C154 1.160 . S
O157 Cd158 2.203 . S
Cd158 O157 2.203 . S
Cd158 O160 2.411 . S
Cd158 O161 2.333 . S
Cd158 O162 2.352 . S
Cd158 O166 2.277 1_554 S
Cd158 O167 2.356 . S
C159 O164 1.209 . S
C159 O166 1.226 . S
O160 Cd156 2.273 1_554 S
O160 Cd158 2.411 . S
O160 C163 1.320 . S
O161 Cd158 2.333 . S
O161 C163 1.214 . S
O162 Cd158 2.352 . S
O162 C165 1.258 . S
C163 O160 1.320 . S
C163 O161 1.214 . S
O164 Cd156 2.277 . S
O164 C159 1.209 . S
C165 O162 1.258 . S
C165 O167 1.282 . S
O166 Cd158 2.277 1_556 S
O166 C159 1.226 . S
O167 Cd158 2.356 . S
O167 C165 1.282 . S
C168 C169 1.387 . S
C168 H172 0.950 . S
C168 C177 1.390 . S
C169 C168 1.387 . S
C169 C171 1.387 . S
H170 C177 0.950 . S
C171 C169 1.387 . S
C171 C173 1.390 . S
C171 H175 0.950 . S
H172 C168 0.950 . S
C173 C171 1.390 . S
C173 C174 1.387 . S
C173 H176 0.950 . S
C174 C173 1.387 . S
C174 C177 1.387 . S
H175 C171 0.950 . S
H176 C173 0.950 . S
C177 C168 1.390 . S
C177 H170 0.950 . S
C177 C174 1.387 . S
C178 C179 1.387 . S
C178 H182 0.950 . S
C178 C187 1.390 . S
C179 C178 1.387 . S
C179 C181 1.387 . S
H180 C187 0.950 . S
C181 C179 1.387 . S
C181 C183 1.390 . S
C181 H185 0.950 . S
H182 C178 0.950 . S
C183 C181 1.390 . S
C183 C184 1.387 . S
C183 H186 0.950 . S
C184 C183 1.387 . S
C184 C187 1.387 . S
H185 C181 0.950 . S
H186 C183 0.950 . S
C187 C178 1.390 . S
C187 H180 0.950 . S
C187 C184 1.387 . S
C188 C189 1.387 . S
C188 H192 0.950 . S
C188 C197 1.390 . S
C189 C188 1.387 . S
C189 C191 1.387 . S
H190 C197 0.950 . S
C191 C189 1.387 . S
C191 C193 1.390 . S
C191 H195 0.950 . S
H192 C188 0.950 . S
C193 C191 1.390 . S
C193 C194 1.387 . S
C193 H196 0.950 . S
C194 C193 1.387 . S
C194 C197 1.387 . S
H195 C191 0.950 . S
H196 C193 0.950 . S
C197 C188 1.390 . S
C197 H190 0.950 . S
C197 C194 1.387 . S
C198 C199 1.387 . S
C198 H202 0.950 . S
C198 C207 1.390 . S
C199 C198 1.387 . S
C199 C201 1.387 . S
H200 C207 0.950 . S
C201 C199 1.387 . S
C201 C203 1.390 . S
C201 H205 0.950 . S
H202 C198 0.950 . S
C203 C201 1.390 . S
C203 C204 1.387 . S
C203 H206 0.950 . S
C204 C203 1.387 . S
C204 C207 1.387 . S
H205 C201 0.950 . S
H206 C203 0.950 . S
C207 C198 1.390 . S
C207 H200 0.950 . S
C207 C204 1.387 . S
C208 C209 1.387 . S
C208 H212 0.950 . S
C208 C217 1.390 . S
C209 C208 1.387 . S
C209 C211 1.387 . S
H210 C217 0.950 . S
C211 C209 1.387 . S
C211 C213 1.390 . S
C211 H215 0.950 . S
H212 C208 0.950 . S
C213 C211 1.390 . S
C213 C214 1.387 . S
C213 H216 0.950 . S
C214 C213 1.387 . S
C214 C217 1.387 . S
H215 C211 0.950 . S
H216 C213 0.950 . S
C217 C208 1.390 . S
C217 H210 0.950 . S
C217 C214 1.387 . S
C218 C219 1.387 . S
C218 H222 0.950 . S
C218 C227 1.390 . S
C219 C218 1.387 . S
C219 C221 1.387 . S
H220 C227 0.950 . S
C221 C219 1.387 . S
C221 C223 1.390 . S
C221 H225 0.950 . S
H222 C218 0.950 . S
C223 C221 1.390 . S
C223 C224 1.387 . S
C223 H226 0.950 . S
C224 C223 1.387 . S
C224 C227 1.387 . S
H225 C221 0.950 . S
H226 C223 0.950 . S
C227 C218 1.390 . S
C227 H220 0.950 . S
C227 C224 1.387 . S
C228 C229 1.387 . S
C228 H232 0.950 . S
C228 C237 1.390 1_545 S
C229 C228 1.387 . S
C229 C231 1.387 . S
H230 C237 0.950 . S
C231 C229 1.387 . S
C231 C233 1.390 1_545 S
C231 H235 0.950 . S
H232 C228 0.950 . S
C233 C231 1.390 1_565 S
C233 C234 1.387 . S
C233 H236 0.950 . S
C234 C233 1.387 . S
C234 C237 1.387 . S
H235 C231 0.950 . S
H236 C233 0.950 . S
C237 C228 1.390 1_565 S
C237 H230 0.950 . S
C237 C234 1.387 . S
C238 C239 1.387 . S
C238 H242 0.950 . S
C238 C247 1.390 . S
C239 C238 1.387 . S
C239 C241 1.387 . S
H240 C247 0.950 . S
C241 C239 1.387 . S
C241 C243 1.390 . S
C241 H245 0.950 . S
H242 C238 0.950 . S
C243 C241 1.390 . S
C243 C244 1.387 . S
C243 H246 0.950 . S
C244 C243 1.387 . S
C244 C247 1.387 . S
H245 C241 0.950 . S
H246 C243 0.950 . S
C247 C238 1.390 . S
C247 H240 0.950 . S
C247 C244 1.387 . S
C248 C249 1.387 1_554 S
C248 H252 0.950 . S
C248 C257 1.390 1_455 S
C249 C248 1.387 1_556 S
C249 C251 1.387 . S
H250 C257 0.950 . S
C251 C249 1.387 . S
C251 C253 1.390 1_455 S
C251 H255 0.950 . S
H252 C248 0.950 . S
C253 C251 1.390 1_655 S
C253 C254 1.387 . S
C253 H256 0.950 . S
C254 C253 1.387 . S
C254 C257 1.387 1_556 S
H255 C251 0.950 . S
H256 C253 0.950 . S
C257 C248 1.390 1_655 S
C257 H250 0.950 . S
C257 C254 1.387 1_554 S
C258 C259 1.387 . S
C258 H262 0.950 . S
C258 C267 1.390 1_655 S
C259 C258 1.387 . S
C259 C261 1.387 . S
H260 C267 0.950 . S
C261 C259 1.387 . S
C261 C263 1.390 1_655 S
C261 H265 0.950 . S
H262 C258 0.950 . S
C263 C261 1.390 1_455 S
C263 C264 1.387 . S
C263 H266 0.950 . S
C264 C263 1.387 . S
C264 C267 1.387 . S
H265 C261 0.950 . S
H266 C263 0.950 . S
C267 C258 1.390 1_455 S
C267 H260 0.950 . S
C267 C264 1.387 . S
C268 C269 1.387 . S
C268 H272 0.950 . S
C268 C277 1.390 1_545 S
C269 C268 1.387 . S
C269 C271 1.387 . S
H270 C277 0.950 . S
C271 C269 1.387 . S
C271 C273 1.390 1_545 S
C271 H275 0.950 . S
H272 C268 0.950 . S
C273 C271 1.390 1_565 S
C273 C274 1.387 . S
C273 H276 0.950 . S
C274 C273 1.387 . S
C274 C277 1.387 . S
H275 C271 0.950 . S
H276 C273 0.950 . S
C277 C268 1.390 1_565 S
C277 H270 0.950 . S
C277 C274 1.387 . S
C278 C279 1.387 . S
C278 H282 0.950 . S
C278 C287 1.390 . S
C279 C278 1.387 . S
C279 C281 1.387 1_554 S
H280 C287 0.950 . S
C281 C279 1.387 1_556 S
C281 C283 1.390 . S
C281 H285 0.950 . S
H282 C278 0.950 . S
C283 C281 1.390 . S
C283 C284 1.387 1_556 S
C283 H286 0.950 . S
C284 C283 1.387 1_554 S
C284 C287 1.387 . S
H285 C281 0.950 . S
H286 C283 0.950 . S
C287 C278 1.390 . S
C287 H280 0.950 . S
C287 C284 1.387 . S
C288 C289 1.387 . S
C288 H292 0.950 . S
C288 C297 1.390 . S
C289 C288 1.387 . S
C289 C291 1.387 . S
H290 C297 0.950 . S
C291 C289 1.387 . S
C291 C293 1.390 . S
C291 H295 0.950 . S
H292 C288 0.950 . S
C293 C291 1.390 . S
C293 C294 1.387 . S
C293 H296 0.950 . S
C294 C293 1.387 . S
C294 C297 1.387 . S
H295 C291 0.950 . S
H296 C293 0.950 . S
C297 C288 1.390 . S
C297 H290 0.950 . S
C297 C294 1.387 . S
C298 C299 1.387 . S
C298 H302 0.950 . S
C298 C307 1.390 . S
C299 C298 1.387 . S
C299 C301 1.387 . S
H300 C307 0.950 . S
C301 C299 1.387 . S
C301 C303 1.390 . S
C301 H305 0.950 . S
H302 C298 0.950 . S
C303 C301 1.390 . S
C303 C304 1.387 . S
C303 H306 0.950 . S
C304 C303 1.387 . S
C304 C307 1.387 . S
H305 C301 0.950 . S
H306 C303 0.950 . S
C307 C298 1.390 . S
C307 H300 0.950 . S
C307 C304 1.387 . S
C308 C309 1.387 . S
C308 H312 0.950 . S
C308 C317 1.390 1_554 S
C309 C308 1.387 . S
C309 C311 1.387 . S
H310 C317 0.950 . S
C311 C309 1.387 . S
C311 C313 1.390 1_554 S
C311 H315 0.950 . S
H312 C308 0.950 . S
C313 C311 1.390 1_556 S
C313 C314 1.387 . S
C313 H316 0.950 . S
C314 C313 1.387 . S
C314 C317 1.387 . S
H315 C311 0.950 . S
H316 C313 0.950 . S
C317 C308 1.390 1_556 S
C317 H310 0.950 . S
C317 C314 1.387 . S
C318 C319 1.387 . S
C318 H322 0.950 . S
C318 C327 1.390 . S
C319 C318 1.387 . S
C319 C321 1.387 . S
H320 C327 0.950 . S
C321 C319 1.387 . S
C321 C323 1.390 . S
C321 H325 0.950 . S
H322 C318 0.950 . S
C323 C321 1.390 . S
C323 C324 1.387 . S
C323 H326 0.950 . S
C324 C323 1.387 . S
C324 C327 1.387 . S
H325 C321 0.950 . S
H326 C323 0.950 . S
C327 C318 1.390 . S
C327 H320 0.950 . S
C327 C324 1.387 . S
C328 C329 1.387 . S
C328 H332 0.950 . S
C328 C337 1.390 . S
C329 C328 1.387 . S
C329 C331 1.387 . S
H330 C337 0.950 . S
C331 C329 1.387 . S
C331 C333 1.390 . S
C331 H335 0.950 . S
H332 C328 0.950 . S
C333 C331 1.390 . S
C333 C334 1.387 . S
C333 H336 0.950 . S
C334 C333 1.387 . S
C334 C337 1.387 . S
H335 C331 0.950 . S
H336 C333 0.950 . S
C337 C328 1.390 . S
C337 H330 0.950 . S
C337 C334 1.387 . S
C338 C339 1.387 . S
C338 H342 0.950 . S
C338 C347 1.390 1_554 S
C339 C338 1.387 . S
C339 C341 1.387 . S
H340 C347 0.950 . S
C341 C339 1.387 . S
C341 C343 1.390 1_554 S
C341 H345 0.950 . S
H342 C338 0.950 . S
C343 C341 1.390 1_556 S
C343 C344 1.387 . S
C343 H346 0.950 . S
C344 C343 1.387 . S
C344 C347 1.387 . S
H345 C341 0.950 . S
H346 C343 0.950 . S
C347 C338 1.390 1_556 S
C347 H340 0.950 . S
C347 C344 1.387 . S
C348 C349 1.387 . S
C348 H352 0.950 . S
C348 C357 1.390 1_545 S
C349 C348 1.387 . S
C349 C351 1.387 . S
H350 C357 0.950 . S
C351 C349 1.387 . S
C351 C353 1.390 1_545 S
C351 H355 0.950 . S
H352 C348 0.950 . S
C353 C351 1.390 1_565 S
C353 C354 1.387 . S
C353 H356 0.950 . S
C354 C353 1.387 . S
C354 C357 1.387 . S
H355 C351 0.950 . S
H356 C353 0.950 . S
C357 C348 1.390 1_565 S
C357 H350 0.950 . S
C357 C354 1.387 . S
C358 C359 1.387 . S
C358 H362 0.950 . S
C358 C367 1.390 . S
C359 C358 1.387 . S
C359 C361 1.387 . S
H360 C367 0.950 . S
C361 C359 1.387 . S
C361 C363 1.390 . S
C361 H365 0.950 . S
H362 C358 0.950 . S
C363 C361 1.390 . S
C363 C364 1.387 . S
C363 H366 0.950 . S
C364 C363 1.387 . S
C364 C367 1.387 . S
H365 C361 0.950 . S
H366 C363 0.950 . S
C367 C358 1.390 . S
C367 H360 0.950 . S
C367 C364 1.387 . S
C368 C369 1.387 . S
C368 H372 0.950 . S
C368 C377 1.390 . S
C369 C368 1.387 . S
C369 C371 1.387 1_455 S
H370 C377 0.950 . S
C371 C369 1.387 1_655 S
C371 C373 1.390 . S
C371 H375 0.950 . S
H372 C368 0.950 . S
C373 C371 1.390 . S
C373 C374 1.387 . S
C373 H376 0.950 . S
C374 C373 1.387 . S
C374 C377 1.387 1_655 S
H375 C371 0.950 . S
H376 C373 0.950 . S
C377 C368 1.390 . S
C377 H370 0.950 . S
C377 C374 1.387 1_455 S
C378 C379 1.387 . S
C378 H382 0.950 . S
C378 C387 1.390 1_565 S
C379 C378 1.387 . S
C379 C381 1.387 . S
H380 C387 0.950 . S
C381 C379 1.387 . S
C381 C383 1.390 1_565 S
C381 H385 0.950 . S
H382 C378 0.950 . S
C383 C381 1.390 1_545 S
C383 C384 1.387 . S
C383 H386 0.950 . S
C384 C383 1.387 . S
C384 C387 1.387 . S
H385 C381 0.950 . S
H386 C383 0.950 . S
C387 C378 1.390 1_545 S
C387 H380 0.950 . S
C387 C384 1.387 . S
C388 C389 1.387 . S
C388 H392 0.950 . S
C388 C397 1.390 . S
C389 C388 1.387 . S
C389 C391 1.387 . S
H390 C397 0.950 . S
C391 C389 1.387 . S
C391 C393 1.390 . S
C391 H395 0.950 . S
H392 C388 0.950 . S
C393 C391 1.390 . S
C393 C394 1.387 . S
C393 H396 0.950 . S
C394 C393 1.387 . S
C394 C397 1.387 . S
H395 C391 0.950 . S
H396 C393 0.950 . S
C397 C388 1.390 . S
C397 H390 0.950 . S
C397 C394 1.387 . S
C398 C399 1.387 1_455 S
C398 H402 0.950 . S
C398 C407 1.390 . S
C399 C398 1.387 1_655 S
C399 C401 1.387 . S
H400 C407 0.950 . S
C401 C399 1.387 . S
C401 C403 1.390 . S
C401 H405 0.950 . S
H402 C398 0.950 . S
C403 C401 1.390 . S
C403 C404 1.387 1_655 S
C403 H406 0.950 . S
C404 C403 1.387 1_455 S
C404 C407 1.387 . S
H405 C401 0.950 . S
H406 C403 0.950 . S
C407 C398 1.390 . S
C407 H400 0.950 . S
C407 C404 1.387 . S
C169 C11 1.703 . S
C174 C123 1.703 . S
C179 C25 1.704 . S
C184 C137 1.704 . S
C189 C151 1.704 . S
C194 C39 1.704 . S
C199 C165 1.703 . S
C204 C53 1.703 . S
C209 C95 1.703 . S
C214 C67 1.703 . S
C219 C109 1.704 . S
C224 C81 1.704 . S
C229 C9 1.598 . S
C234 C51 1.598 . S
C239 C65 1.599 . S
C244 C23 1.599 . S
C249 C79 1.598 . S
C254 C37 1.598 . S
C259 C93 1.597 . S
C264 C135 1.597 . S
C269 C149 1.598 . S
C274 C107 1.598 . S
C279 C121 1.598 . S
C284 C163 1.598 . S
C289 C84 1.101 . S
C294 C0 1.100 . S
C299 C14 1.099 . S
C304 C98 1.101 . S
C309 C112 1.099 . S
C314 C28 1.099 . S
C319 C126 1.102 . S
C324 C42 1.104 . S
C329 C56 1.102 . S
C334 C140 1.100 . S
C339 C154 1.099 . S
C344 C70 1.099 . S
C349 C5 1.209 . S
C354 C103 1.209 . S
C359 C117 1.209 . S
C364 C19 1.209 . S
C369 C131 1.206 . S
C374 C33 1.207 . S
C379 C47 1.206 . S
C384 C145 1.206 . S
C389 C159 1.209 . S
C394 C61 1.209 . S
C399 C89 1.209 . S
C404 C75 1.209 . S
