# Generated by pormake.
# Topology uou, (4)-cn, num edge types: 1
# Building blocks:
#     Node 0, Type 0, BuildingBlock: UXUYUI_clean_sbu_0, # of connection points: 4
#     Node 1, Type 0, BuildingBlock: UXUYUI_clean_sbu_0, # of connection points: 4
#     Node 2, Type 0, BuildingBlock: UXUYUI_clean_sbu_0, # of connection points: 4
#     Node 3, Type 0, BuildingBlock: UXUYUI_clean_sbu_0, # of connection points: 4
#     Node 4, Type 0, BuildingBlock: UXUYUI_clean_sbu_0, # of connection points: 4
#     Node 5, Type 0, BuildingBlock: UXUYUI_clean_sbu_0, # of connection points: 4
#     Node 6, Type 0, BuildingBlock: UXUYUI_clean_sbu_0, # of connection points: 4
#     Node 7, Type 0, BuildingBlock: UXUYUI_clean_sbu_0, # of connection points: 4
#     Node 8, Type 0, BuildingBlock: UXUYUI_clean_sbu_0, # of connection points: 4
#     Node 9, Type 0, BuildingBlock: UXUYUI_clean_sbu_0, # of connection points: 4
#     Node 10, Type 0, BuildingBlock: UXUYUI_clean_sbu_0, # of connection points: 4
#     Node 11, Type 0, BuildingBlock: UXUYUI_clean_sbu_0, # of connection points: 4
#     Node 12, Type 0, BuildingBlock: UXUYUI_clean_sbu_0, # of connection points: 4
#     Node 13, Type 0, BuildingBlock: UXUYUI_clean_sbu_0, # of connection points: 4
#     Node 14, Type 0, BuildingBlock: UXUYUI_clean_sbu_0, # of connection points: 4
#     Node 15, Type 0, BuildingBlock: UXUYUI_clean_sbu_0, # of connection points: 4
#     Edge 16, Type (0, 0), BuildingBlock: TEMPAE_clean_linker_10, # of connection points: 2
#     Edge 17, Type (0, 0), BuildingBlock: TEMPAE_clean_linker_10, # of connection points: 2
#     Edge 18, Type (0, 0), BuildingBlock: TEMPAE_clean_linker_10, # of connection points: 2
#     Edge 19, Type (0, 0), BuildingBlock: TEMPAE_clean_linker_10, # of connection points: 2
#     Edge 20, Type (0, 0), BuildingBlock: TEMPAE_clean_linker_10, # of connection points: 2
#     Edge 21, Type (0, 0), BuildingBlock: TEMPAE_clean_linker_10, # of connection points: 2
#     Edge 22, Type (0, 0), BuildingBlock: TEMPAE_clean_linker_10, # of connection points: 2
#     Edge 23, Type (0, 0), BuildingBlock: TEMPAE_clean_linker_10, # of connection points: 2
#     Edge 24, Type (0, 0), BuildingBlock: TEMPAE_clean_linker_10, # of connection points: 2
#     Edge 25, Type (0, 0), BuildingBlock: TEMPAE_clean_linker_10, # of connection points: 2
#     Edge 26, Type (0, 0), BuildingBlock: TEMPAE_clean_linker_10, # of connection points: 2
#     Edge 27, Type (0, 0), BuildingBlock: TEMPAE_clean_linker_10, # of connection points: 2
#     Edge 28, Type (0, 0), BuildingBlock: TEMPAE_clean_linker_10, # of connection points: 2
#     Edge 29, Type (0, 0), BuildingBlock: TEMPAE_clean_linker_10, # of connection points: 2
#     Edge 30, Type (0, 0), BuildingBlock: TEMPAE_clean_linker_10, # of connection points: 2
#     Edge 31, Type (0, 0), BuildingBlock: TEMPAE_clean_linker_10, # of connection points: 2
#     Edge 32, Type (0, 0), BuildingBlock: TEMPAE_clean_linker_10, # of connection points: 2
#     Edge 33, Type (0, 0), BuildingBlock: TEMPAE_clean_linker_10, # of connection points: 2
#     Edge 34, Type (0, 0), BuildingBlock: TEMPAE_clean_linker_10, # of connection points: 2
#     Edge 35, Type (0, 0), BuildingBlock: TEMPAE_clean_linker_10, # of connection points: 2
#     Edge 36, Type (0, 0), BuildingBlock: TEMPAE_clean_linker_10, # of connection points: 2
#     Edge 37, Type (0, 0), BuildingBlock: TEMPAE_clean_linker_10, # of connection points: 2
#     Edge 38, Type (0, 0), BuildingBlock: TEMPAE_clean_linker_10, # of connection points: 2
#     Edge 39, Type (0, 0), BuildingBlock: TEMPAE_clean_linker_10, # of connection points: 2
#     Edge 40, Type (0, 0), BuildingBlock: TEMPAE_clean_linker_10, # of connection points: 2
#     Edge 41, Type (0, 0), BuildingBlock: TEMPAE_clean_linker_10, # of connection points: 2
#     Edge 42, Type (0, 0), BuildingBlock: TEMPAE_clean_linker_10, # of connection points: 2
#     Edge 43, Type (0, 0), BuildingBlock: TEMPAE_clean_linker_10, # of connection points: 2
#     Edge 44, Type (0, 0), BuildingBlock: TEMPAE_clean_linker_10, # of connection points: 2
#     Edge 45, Type (0, 0), BuildingBlock: TEMPAE_clean_linker_10, # of connection points: 2
#     Edge 46, Type (0, 0), BuildingBlock: TEMPAE_clean_linker_10, # of connection points: 2
#     Edge 47, Type (0, 0), BuildingBlock: TEMPAE_clean_linker_10, # of connection points: 2
# Relax obj value: 0.194
# Max RMSD: 0.198
# Mean RMSD: 0.197
data_MOF--net-uou--node1-UXUYUI_clean_sbu_0--edge1-TEMPAE_clean_linker_10
_symmetry_space_group_name_H-M    P1
_symmetry_Int_Tables_number       1
_symmetry_cell_setting            triclinic
loop_
_symmetry_equiv_pos_as_xyz
'x, y, z'
_cell_length_a     57.624249
_cell_length_b     55.789986
_cell_length_c     78.753405
_cell_angle_alpha  89.984639
_cell_angle_beta   90.010072
_cell_angle_gamma 89.992424
loop_
_atom_site_label
_atom_site_type_symbol
_atom_site_fract_x
_atom_site_fract_y
_atom_site_fract_z
_atom_type_partial_charge
Li0 Li 0.05595 0.0474 0.10643 0.0
Li1 Li 0.0908 0.05357 0.12221 0.0
Li2 Li 0.05537 0.04445 0.13677 0.0
Li3 Li 0.06045 0.08283 0.12353 0.0
C4 C 0.06182 0.00173 0.12009 0.0
N5 N 0.04052 0.9574 0.11878 0.0
C6 C 0.07509 0.98082 0.12101 0.0
C7 C 0.0377 0.00012 0.11852 0.0
C8 C 0.064 0.95857 0.12031 0.0
C9 C 0.02727 0.97754 0.11788 0.0
C10 C 0.09122 0.06964 0.08876 0.0
C11 C 0.10761 0.08399 0.06248 0.0
N12 N 0.11589 0.06163 0.05921 0.0
C13 C 0.09989 0.0468 0.08514 0.0
C14 C 0.09508 0.0884 0.07734 0.0
C15 C 0.11233 0.04312 0.07014 0.0
C16 C 0.02865 0.05192 0.07763 0.0
N17 N 0.04353 0.03669 0.08555 0.0
C18 C 0.04176 0.00928 0.06233 0.0
C19 C 0.05024 0.01571 0.07827 0.0
C20 C 0.02659 0.0248 0.05375 0.0
C21 C 0.01996 0.04633 0.06159 0.0
H22 H 0.0239 0.06861 0.08369 0.0
H23 H 0.06256 0.0042 0.08465 0.0
C24 C 0.12898 0.02845 0.13314 0.0
N25 N 0.12303 0.04744 0.12328 0.0
C26 C 0.15207 0.02126 0.13434 0.0
C27 C 0.16257 0.05357 0.11533 0.0
C28 C 0.13923 0.06029 0.11464 0.0
C29 C 0.16915 0.03371 0.1252 0.0
H30 H 0.11565 0.01866 0.13989 0.0
H31 H 0.13403 0.07551 0.10704 0.0
C32 C 0.01501 0.07127 0.13117 0.0
N33 N 0.97893 0.09125 0.14944 0.0
C34 C 0.01859 0.07901 0.14786 0.0
C35 C 0.9931 0.07372 0.12379 0.0
C36 C 0.00013 0.08905 0.15688 0.0
C37 C 0.97507 0.08386 0.13323 0.0
C38 C 0.09407 0.08593 0.14857 0.0
C39 C 0.09912 0.08728 0.1659 0.0
C40 C 0.10513 0.10148 0.13724 0.0
C41 C 0.11519 0.1042 0.17162 0.0
C42 C 0.1211 0.11814 0.14346 0.0
N43 N 0.12576 0.11914 0.16038 0.0
C44 C 0.05945 0.02484 0.16873 0.0
C45 C 0.02119 0.02179 0.15783 0.0
C46 C 0.05227 0.01594 0.18439 0.0
N47 N 0.04381 0.02821 0.15606 0.0
C48 C 0.0132 0.01291 0.17334 0.0
C49 C 0.02872 0.01062 0.18702 0.0
H50 H 0.07738 0.02994 0.16683 0.0
H51 H 0.00915 0.02458 0.14749 0.0
C52 C 0.04623 0.12662 0.10986 0.0
N53 N 0.05211 0.1157 0.12466 0.0
C54 C 0.03735 0.14991 0.10996 0.0
C55 C 0.04107 0.15033 0.14055 0.0
C56 C 0.05004 0.12712 0.13984 0.0
C57 C 0.03431 0.16188 0.12549 0.0
H58 H 0.04778 0.11693 0.09801 0.0
H59 H 0.05468 0.11795 0.15145 0.0
O60 O 0.07257 0.02358 0.12083 0.0
O61 O 0.07881 0.07379 0.10327 0.0
O62 O 0.0328 0.06157 0.12195 0.0
O63 O 0.07836 0.06938 0.14288 0.0
H64 H 0.09378 0.98178 0.12223 0.0
H65 H 0.02711 0.01606 0.11774 0.0
H66 H 0.07407 0.94223 0.121 0.0
H67 H 0.00863 0.97602 0.11665 0.0
H68 H 0.11072 0.09835 0.05353 0.0
H69 H 0.09714 0.03205 0.0938 0.0
H70 H 0.08845 0.10617 0.07995 0.0
H71 H 0.11914 0.02554 0.06719 0.0
H72 H 0.04751 0.99269 0.05655 0.0
H73 H 0.0082 0.05868 0.05536 0.0
H74 H 0.15644 0.00573 0.14195 0.0
H75 H 0.17532 0.06374 0.10824 0.0
H76 H 0.03541 0.07731 0.1538 0.0
H77 H 0.99007 0.06786 0.11087 0.0
H78 H 0.00266 0.09511 0.1698 0.0
H79 H 0.95802 0.08586 0.12766 0.0
H80 H 0.09067 0.07539 0.17483 0.0
H81 H 0.10144 0.1008 0.1238 0.0
H82 H 0.11926 0.10545 0.185 0.0
H83 H 0.12978 0.13028 0.13484 0.0
H84 H 0.06483 0.01412 0.19454 0.0
H85 H 0.99487 0.00922 0.17489 0.0
H86 H 0.03213 0.15811 0.09809 0.0
H87 H 0.03918 0.15906 0.15276 0.0
Li88 Li 0.43957 0.91234 0.12287 0.0
Li89 Li 0.44583 0.95223 0.13657 0.0
Li90 Li 0.40853 0.94206 0.12257 0.0
Li91 Li 0.44311 0.94805 0.10627 0.0
C92 C 0.40746 0.91057 0.14969 0.0
N93 N 0.37634 0.87843 0.16358 0.0
C94 C 0.40399 0.90991 0.16724 0.0
C95 C 0.39506 0.89494 0.13918 0.0
C96 C 0.38819 0.89351 0.17402 0.0
C97 C 0.37942 0.87881 0.14646 0.0
C98 C 0.48636 0.93702 0.112 0.0
C99 C 0.51573 0.96282 0.10008 0.0
N100 N 0.52452 0.94389 0.09131 0.0
C101 C 0.4958 0.91778 0.10299 0.0
C102 C 0.49651 0.9597 0.11065 0.0
C103 C 0.51506 0.92162 0.09256 0.0
C104 C 0.45163 0.8679 0.1092 0.0
N105 N 0.4474 0.87946 0.12407 0.0
C106 C 0.45841 0.84483 0.14 0.0
C107 C 0.45041 0.86845 0.13932 0.0
C108 C 0.4638 0.83282 0.12485 0.0
C109 C 0.46012 0.84448 0.1093 0.0
H110 H 0.44919 0.87723 0.09729 0.0
H111 H 0.4472 0.87821 0.15094 0.0
C112 C 0.44391 0.97786 0.16685 0.0
N113 N 0.45871 0.96828 0.15529 0.0
C114 C 0.45251 0.98791 0.1818 0.0
C115 C 0.49144 0.97901 0.17216 0.0
C116 C 0.48207 0.96897 0.15747 0.0
C117 C 0.47656 0.98805 0.18478 0.0
H118 H 0.42539 0.97688 0.16471 0.0
H119 H 0.49338 0.96108 0.14807 0.0
C120 C 0.40655 0.92478 0.08931 0.0
N121 N 0.37934 0.93058 0.06072 0.0
C122 C 0.4001 0.94772 0.08399 0.0
C123 C 0.39926 0.90478 0.08007 0.0
C124 C 0.38632 0.95029 0.06951 0.0
C125 C 0.38547 0.90808 0.06566 0.0
C126 C 0.42709 0.99552 0.11877 0.0
C127 C 0.40769 0.00684 0.11173 0.0
C128 C 0.44611 0.00927 0.12393 0.0
C129 C 0.40781 0.03172 0.10971 0.0
C130 C 0.44555 0.0341 0.12169 0.0
N131 N 0.42659 0.04472 0.11467 0.0
C132 C 0.37137 0.9668 0.13547 0.0
C133 C 0.35979 0.9381 0.11495 0.0
C134 C 0.34876 0.97545 0.13672 0.0
N135 N 0.3765 0.94885 0.12446 0.0
C136 C 0.33692 0.94633 0.1157 0.0
C137 C 0.33126 0.96559 0.12646 0.0
H138 H 0.38506 0.97484 0.14295 0.0
H139 H 0.36427 0.92361 0.10647 0.0
C140 C 0.45938 0.94154 0.07346 0.0
N141 N 0.4546 0.959 0.08498 0.0
C142 C 0.46781 0.94749 0.05743 0.0
C143 C 0.46612 0.98933 0.06534 0.0
C144 C 0.45785 0.98255 0.08127 0.0
C145 C 0.47117 0.97166 0.05321 0.0
H146 H 0.45661 0.92294 0.07678 0.0
H147 H 0.45416 0.99612 0.0906 0.0
O148 O 0.42279 0.92664 0.14289 0.0
O149 O 0.4671 0.93374 0.12191 0.0
O150 O 0.42009 0.92173 0.10342 0.0
O151 O 0.42714 0.9712 0.12105 0.0
H152 H 0.41341 0.92197 0.17552 0.0
H153 H 0.39746 0.89523 0.12557 0.0
H154 H 0.38534 0.89277 0.18759 0.0
H155 H 0.36973 0.8666 0.13849 0.0
H156 H 0.52361 0.98033 0.09879 0.0
H157 H 0.48829 0.90009 0.10394 0.0
H158 H 0.48941 0.9748 0.11748 0.0
H159 H 0.52246 0.90691 0.08544 0.0
H160 H 0.46123 0.83637 0.15221 0.0
H161 H 0.46404 0.83566 0.09739 0.0
H162 H 0.44039 0.99432 0.19127 0.0
H163 H 0.51009 0.97898 0.17388 0.0
H164 H 0.40573 0.96336 0.0909 0.0
H165 H 0.40417 0.8869 0.08402 0.0
H166 H 0.3812 0.96795 0.06525 0.0
H167 H 0.37966 0.89276 0.0584 0.0
H168 H 0.39265 0.99657 0.1079 0.0
H169 H 0.46117 0.00091 0.12954 0.0
H170 H 0.39295 0.0407 0.10423 0.0
H171 H 0.4602 0.04494 0.12555 0.0
H172 H 0.34511 0.98994 0.14547 0.0
H173 H 0.32402 0.93824 0.10751 0.0
H174 H 0.47132 0.93336 0.04835 0.0
H175 H 0.46876 0.00816 0.0626 0.0
Li176 Li 0.5892 0.93855 0.36979 0.0
Li177 Li 0.55111 0.94757 0.38369 0.0
Li178 Li 0.55638 0.91097 0.36823 0.0
Li179 Li 0.55286 0.94766 0.35353 0.0
C180 C 0.57479 0.90209 0.39843 0.0
N181 N 0.57573 0.86058 0.4175 0.0
C182 C 0.55567 0.89578 0.40838 0.0
C183 C 0.59445 0.88744 0.39825 0.0
C184 C 0.55646 0.87466 0.41791 0.0
C185 C 0.59457 0.86649 0.40798 0.0
C186 C 0.57071 0.98957 0.37831 0.0
C187 C 0.55108 0.02422 0.38972 0.0
N188 N 0.57091 0.03072 0.39787 0.0
C189 C 0.59095 0.99672 0.3867 0.0
C190 C 0.55067 0.00355 0.37972 0.0
C191 C 0.59068 0.01753 0.39655 0.0
C192 C 0.63237 0.95237 0.35711 0.0
N193 N 0.62134 0.94422 0.37122 0.0
C194 C 0.65516 0.95064 0.3881 0.0
C195 C 0.63224 0.94286 0.38649 0.0
C196 C 0.66683 0.95974 0.37384 0.0
C197 C 0.65535 0.9601 0.35811 0.0
H198 H 0.62303 0.95361 0.34523 0.0
H199 H 0.62281 0.93672 0.39754 0.0
C200 C 0.51521 0.95988 0.40646 0.0
N201 N 0.53851 0.96018 0.4039 0.0
C202 C 0.50603 0.96731 0.42197 0.0
C203 C 0.54506 0.97506 0.43188 0.0
C204 C 0.55347 0.96741 0.4162 0.0
C205 C 0.52105 0.97487 0.43495 0.0
H206 H 0.50379 0.95328 0.39664 0.0
H207 H 0.57196 0.96671 0.41395 0.0
C208 C 0.58391 0.90119 0.34203 0.0
N209 N 0.59875 0.85886 0.32733 0.0
C210 C 0.56864 0.88747 0.33222 0.0
C211 C 0.60674 0.89333 0.34434 0.0
C212 C 0.57646 0.86613 0.32492 0.0
C213 C 0.61391 0.87191 0.3368 0.0
C214 C 0.51013 0.93707 0.35823 0.0
C215 C 0.50277 0.92049 0.34604 0.0
C216 C 0.49839 0.95888 0.35984 0.0
C217 C 0.48385 0.92605 0.33566 0.0
C218 C 0.47959 0.9638 0.3492 0.0
N219 N 0.47276 0.94742 0.33743 0.0
C220 C 0.52464 0.87354 0.37185 0.0
C221 C 0.563 0.85934 0.36812 0.0
C222 C 0.51614 0.8502 0.3724 0.0
N223 N 0.54759 0.87775 0.36925 0.0
C224 C 0.55528 0.83561 0.36875 0.0
C225 C 0.53148 0.83079 0.37071 0.0
H226 H 0.51281 0.88836 0.37349 0.0
H227 H 0.5813 0.86301 0.36674 0.0
C228 C 0.53966 0.98718 0.33238 0.0
N229 N 0.54212 0.96296 0.33344 0.0
C230 C 0.53081 0.99763 0.31757 0.0
C231 C 0.52743 0.95799 0.30539 0.0
C232 C 0.53665 0.94844 0.32022 0.0
C233 C 0.52426 0.98282 0.30401 0.0
H234 H 0.54446 0.99837 0.343 0.0
H235 H 0.53905 0.92936 0.32131 0.0
O236 O 0.57412 0.92236 0.38871 0.0
O237 O 0.57052 0.96901 0.36882 0.0
O238 O 0.57669 0.9223 0.34916 0.0
O239 O 0.52896 0.93217 0.36828 0.0
H240 H 0.54029 0.90693 0.40858 0.0
H241 H 0.60932 0.89204 0.39051 0.0
H242 H 0.54175 0.86945 0.42559 0.0
H243 H 0.60961 0.85488 0.40789 0.0
H244 H 0.53563 0.03508 0.39101 0.0
H245 H 0.60668 0.98631 0.38568 0.0
H246 H 0.53487 0.99836 0.37331 0.0
H247 H 0.60619 0.02319 0.40317 0.0
H248 H 0.6635 0.95004 0.40042 0.0
H249 H 0.66368 0.96728 0.34688 0.0
H250 H 0.48741 0.96696 0.42383 0.0
H251 H 0.55724 0.98031 0.44167 0.0
H252 H 0.55079 0.89287 0.33057 0.0
H253 H 0.6188 0.90354 0.35196 0.0
H254 H 0.56477 0.85527 0.31742 0.0
H255 H 0.63151 0.86562 0.33852 0.0
H256 H 0.51184 0.9037 0.34433 0.0
H257 H 0.50383 0.972 0.36911 0.0
H258 H 0.4781 0.91345 0.32611 0.0
H259 H 0.47045 0.98067 0.35027 0.0
H260 H 0.49764 0.84748 0.37385 0.0
H261 H 0.56784 0.82123 0.36783 0.0
H262 H 0.52877 0.0169 0.31682 0.0
H263 H 0.52297 0.94608 0.29502 0.0
Li264 Li 0.93915 0.05305 0.38412 0.0
Li265 Li 0.90132 0.06132 0.37168 0.0
Li266 Li 0.93572 0.05246 0.35381 0.0
Li267 Li 0.93265 0.09123 0.36778 0.0
C268 C 0.92174 0.00948 0.37779 0.0
N269 N 0.92614 0.96577 0.39401 0.0
C270 C 0.90268 0.99923 0.38603 0.0
C271 C 0.94294 0.99732 0.3776 0.0
C272 C 0.90527 0.97716 0.3942 0.0
C273 C 0.94485 0.9753 0.38593 0.0
C274 C 0.90517 0.09261 0.40092 0.0
C275 C 0.88495 0.12846 0.40962 0.0
N276 N 0.88018 0.11811 0.42486 0.0
C277 C 0.90039 0.08251 0.41679 0.0
C278 C 0.89766 0.11593 0.39741 0.0
C279 C 0.8876 0.0956 0.42867 0.0
C280 C 0.97689 0.04419 0.40604 0.0
N281 N 0.95385 0.0403 0.40362 0.0
C282 C 0.95076 0.02071 0.43046 0.0
C283 C 0.94076 0.02872 0.41538 0.0
C284 C 0.97445 0.02479 0.43348 0.0
C285 C 0.98764 0.03649 0.42096 0.0
H286 H 0.98681 0.05369 0.39653 0.0
H287 H 0.92241 0.02617 0.41323 0.0
C288 C 0.85618 0.05275 0.35979 0.0
N289 N 0.8691 0.05516 0.37413 0.0
C290 C 0.83322 0.04498 0.36077 0.0
C291 C 0.83728 0.04222 0.39127 0.0
C292 C 0.8601 0.05029 0.38971 0.0
C293 C 0.82368 0.03916 0.37664 0.0
H294 H 0.86399 0.05596 0.34752 0.0
H295 H 0.87097 0.05143 0.40083 0.0
C296 C 0.97899 0.06699 0.35754 0.0
N297 N 0.0172 0.06217 0.33661 0.0
C298 C 0.98518 0.08552 0.34649 0.0
C299 C 0.99243 0.04615 0.35812 0.0
C300 C 0.00451 0.08271 0.33597 0.0
C301 C 0.01163 0.04401 0.34739 0.0
C302 C 0.89711 0.09416 0.34302 0.0
C303 C 0.89821 0.09871 0.32558 0.0
C304 C 0.88088 0.10636 0.35296 0.0
C305 C 0.88336 0.11578 0.31845 0.0
C306 C 0.86632 0.12327 0.34537 0.0
N307 N 0.86788 0.12762 0.32842 0.0
C308 C 0.94752 0.01446 0.33079 0.0
C309 C 0.95038 0.05433 0.32057 0.0
C310 C 0.95452 0.00546 0.31502 0.0
N311 N 0.94565 0.03852 0.33319 0.0
C312 C 0.95736 0.04619 0.30469 0.0
C313 C 0.95935 0.02146 0.30171 0.0
H314 H 0.94339 0.00227 0.34101 0.0
H315 H 0.94879 0.07335 0.3229 0.0
C316 C 0.95244 0.13297 0.38056 0.0
N317 N 0.94159 0.12395 0.36664 0.0
C318 C 0.96171 0.15608 0.38025 0.0
C319 C 0.94824 0.16027 0.35133 0.0
C320 C 0.93929 0.13705 0.35219 0.0
C321 C 0.95988 0.16998 0.36543 0.0
H322 H 0.95438 0.12193 0.39176 0.0
H323 H 0.93119 0.12929 0.34113 0.0
O324 O 0.91959 0.03122 0.36989 0.0
O325 O 0.91809 0.08018 0.38926 0.0
O326 O 0.95984 0.06921 0.36769 0.0
O327 O 0.91161 0.07753 0.35018 0.0
H328 H 0.88607 0.00821 0.38615 0.0
H329 H 0.95781 0.00489 0.37121 0.0
H330 H 0.89069 0.96909 0.40069 0.0
H331 H 0.96122 0.9658 0.38599 0.0
H332 H 0.87895 0.14647 0.40701 0.0
H333 H 0.90633 0.06469 0.41989 0.0
H334 H 0.90173 0.12443 0.38545 0.0
H335 H 0.88362 0.08788 0.44093 0.0
H336 H 0.93988 0.01211 0.43987 0.0
H337 H 0.00599 0.03982 0.42275 0.0
H338 H 0.82342 0.04244 0.34917 0.0
H339 H 0.83052 0.03784 0.40372 0.0
H340 H 0.97502 0.10178 0.34587 0.0
H341 H 0.98811 0.03177 0.36675 0.0
H342 H 0.00938 0.09683 0.32725 0.0
H343 H 0.0221 0.02792 0.34764 0.0
H344 H 0.91042 0.08923 0.31761 0.0
H345 H 0.87924 0.10251 0.36633 0.0
H346 H 0.88413 0.11957 0.305 0.0
H347 H 0.8537 0.13284 0.35295 0.0
H348 H 0.95578 0.98626 0.31318 0.0
H349 H 0.96139 0.05916 0.29489 0.0
H350 H 0.97086 0.16265 0.39132 0.0
H351 H 0.94627 0.17041 0.33969 0.0
Li352 Li 0.93782 0.91188 0.8694 0.0
Li353 Li 0.94338 0.94882 0.88572 0.0
Li354 Li 0.90596 0.94161 0.87032 0.0
Li355 Li 0.94147 0.95201 0.8554 0.0
C356 C 0.90869 0.90748 0.89974 0.0
N357 N 0.8858 0.87566 0.9208 0.0
C358 C 0.91763 0.90216 0.91581 0.0
C359 C 0.88792 0.89686 0.89449 0.0
C360 C 0.90587 0.88595 0.92623 0.0
C361 C 0.87666 0.88076 0.90529 0.0
C362 C 0.98601 0.93495 0.87647 0.0
C363 C 0.0195 0.95718 0.8859 0.0
N364 N 0.02865 0.9367 0.89246 0.0
C365 C 0.99581 0.91408 0.88319 0.0
C366 C -0.00199 0.95664 0.8777 0.0
C367 C 0.01737 0.91535 0.89126 0.0
C368 C 0.95826 0.87298 0.8532 0.0
N369 N 0.94663 0.87914 0.86756 0.0
C370 C 0.95178 0.8398 0.87894 0.0
C371 C 0.94314 0.86309 0.8803 0.0
C372 C 0.96432 0.83308 0.86441 0.0
C373 C 0.96735 0.84993 0.85135 0.0
H374 H 0.96091 0.88621 0.84334 0.0
H375 H 0.93422 0.86841 0.89171 0.0
C376 C 0.95153 0.98404 0.91066 0.0
N377 N 0.9562 0.96106 0.90607 0.0
C378 C 0.95977 0.993 0.92608 0.0
C379 C 0.97773 0.95457 0.93155 0.0
C380 C 0.96892 0.94629 0.91615 0.0
C381 C 0.97299 0.97813 0.93672 0.0
H382 H 0.94108 0.99527 0.9025 0.0
H383 H 0.97185 0.92792 0.91239 0.0
C384 C 0.90505 0.91164 0.84065 0.0
N385 N 0.87593 0.88343 0.82121 0.0
C386 C 0.89936 0.91851 0.82409 0.0
C387 C 0.89622 0.89024 0.84722 0.0
C388 C 0.88452 0.90406 0.8145 0.0
C389 C 0.88145 0.87627 0.83722 0.0
C390 C 0.92432 0.99379 0.86514 0.0
C391 C 0.90421 0.00255 0.85739 0.0
C392 C 0.94439 0.00785 0.86536 0.0
C393 C 0.90462 0.02514 0.84975 0.0
C394 C 0.94411 0.03034 0.85756 0.0
N395 N 0.9244 0.03844 0.84997 0.0
C396 C 0.86474 0.95337 0.88667 0.0
C397 C 0.86053 0.94816 0.85694 0.0
C398 C 0.84175 0.96093 0.88805 0.0
N399 N 0.87365 0.94738 0.87127 0.0
C400 C 0.83743 0.95555 0.85774 0.0
C401 C 0.82791 0.96246 0.87341 0.0
H402 H 0.87575 0.95294 0.89779 0.0
H403 H 0.86822 0.9441 0.84479 0.0
C404 C 0.97532 0.96733 0.8318 0.0
N405 N 0.95234 0.9676 0.83563 0.0
C406 C 0.98298 0.97594 0.81613 0.0
C407 C 0.94328 0.98585 0.80904 0.0
C408 C 0.9364 0.97692 0.82478 0.0
C409 C 0.96678 0.98478 0.80434 0.0
H410 H 0.98755 0.95944 0.84058 0.0
H411 H 0.91819 0.97656 0.82808 0.0
O412 O 0.91999 0.9234 0.88942 0.0
O413 O 0.96484 0.9341 0.86864 0.0
O414 O 0.91967 0.92556 0.85015 0.0
O415 O 0.92434 0.9716 0.87253 0.0
H416 H 0.93356 0.91034 0.92016 0.0
H417 H 0.88041 0.90113 0.88229 0.0
H418 H 0.91267 0.88157 0.93865 0.0
H419 H 0.86061 0.87238 0.90136 0.0
H420 H 0.02891 0.97388 0.88704 0.0
H421 H 0.98681 0.89712 0.88232 0.0
H422 H 0.99075 0.97291 0.87246 0.0
H423 H 0.0251 0.89937 0.89661 0.0
H424 H 0.94935 0.82745 0.8894 0.0
H425 H 0.97678 0.84538 0.8399 0.0
H426 H 0.95581 0.01129 0.92966 0.0
H427 H 0.98754 0.94246 0.93956 0.0
H428 H 0.90624 0.93487 0.81872 0.0
H429 H 0.90088 0.88431 0.85981 0.0
H430 H 0.87986 0.90924 0.8017 0.0
H431 H 0.87446 0.85969 0.84217 0.0
H432 H 0.8885 0.99196 0.85718 0.0
H433 H 0.96002 0.00142 0.87143 0.0
H434 H 0.88923 0.03209 0.84362 0.0
H435 H 0.95955 0.04136 0.85755 0.0
H436 H 0.835 0.96596 0.90038 0.0
H437 H 0.82745 0.95687 0.84612 0.0
H438 H 0.0012 0.97439 0.81293 0.0
H439 H 0.93025 0.99269 0.80039 0.0
Li440 Li 0.56055 0.08884 0.87084 0.0
Li441 Li 0.55449 0.05205 0.88579 0.0
Li442 Li 0.59049 0.05814 0.8717 0.0
Li443 Li 0.55429 0.05066 0.85537 0.0
C444 C 0.57254 0.09029 0.90486 0.0
N445 N 0.5611 0.11725 0.93308 0.0
C446 C 0.54933 0.0956 0.90839 0.0
C447 C 0.58993 0.09868 0.91571 0.0
C448 C 0.5439 0.10925 0.92271 0.0
C449 C 0.5838 0.11229 0.9299 0.0
C450 C 0.50953 0.06497 0.87105 0.0
C451 C 0.47543 0.041 0.86583 0.0
N452 N 0.46201 0.05862 0.87261 0.0
C453 C 0.49537 0.08294 0.87781 0.0
C454 C 0.49947 0.0439 0.86487 0.0
C455 C 0.4714 0.07935 0.87855 0.0
C456 C 0.53513 0.12743 0.8591 0.0
N457 N 0.55309 0.12185 0.86955 0.0
C458 C 0.55616 0.16259 0.8786 0.0
C459 C 0.56397 0.13888 0.87899 0.0
C460 C 0.5372 0.16874 0.86825 0.0
C461 C 0.52687 0.15088 0.85823 0.0
H462 H 0.52687 0.11346 0.85173 0.0
H463 H 0.57841 0.13402 0.88704 0.0
C464 C 0.55819 0.03526 0.91872 0.0
N465 N 0.54229 0.03861 0.9062 0.0
C466 C 0.55141 0.02645 0.93449 0.0
C467 C 0.51193 0.0244 0.92421 0.0
C468 C 0.51953 0.03317 0.90858 0.0
C469 C 0.52795 0.02115 0.93746 0.0
H470 H 0.57622 0.03961 0.91644 0.0
H471 H 0.50715 0.03582 0.89853 0.0
C472 C 0.59417 0.09265 0.84591 0.0
N473 N 0.62541 0.12678 0.83482 0.0
C474 C 0.59627 0.09762 0.82859 0.0
C475 C 0.60793 0.10504 0.8576 0.0
C476 C 0.61218 0.11494 0.82323 0.0
C477 C 0.62363 0.12222 0.85174 0.0
C478 C 0.56907 0.00843 0.88014 0.0
C479 C 0.58714 0.00128 0.89084 0.0
C480 C 0.54872 0.99484 0.87941 0.0
C481 C 0.58439 0.98079 0.90085 0.0
C482 C 0.54664 0.97449 0.88963 0.0
N483 N 0.56436 0.96796 0.90006 0.0
C484 C 0.63394 0.05157 0.88712 0.0
C485 C 0.633 0.04463 0.8574 0.0
C486 C 0.65694 0.04385 0.88794 0.0
N487 N 0.62248 0.05146 0.87205 0.0
C488 C 0.65602 0.0369 0.85761 0.0
C489 C 0.66813 0.03604 0.87309 0.0
H490 H 0.62494 0.05687 0.89857 0.0
H491 H 0.62325 0.04449 0.84566 0.0
C492 C 0.53185 0.05448 0.82479 0.0
N493 N 0.54189 0.03817 0.83523 0.0
C494 C 0.52302 0.04738 0.80915 0.0
C495 C 0.53476 0.00666 0.8154 0.0
C496 C 0.54345 0.01462 0.83099 0.0
C497 C 0.52449 0.0232 0.80422 0.0
H498 H 0.53109 0.07311 0.82856 0.0
H499 H 0.55167 0.00212 0.8396 0.0
O500 O 0.57838 0.07698 0.89091 0.0
O501 O 0.533 0.06838 0.87 0.0
O502 O 0.57857 0.07582 0.85131 0.0
O503 O 0.5712 0.02878 0.87058 0.0
H504 H 0.53566 0.0892 0.90021 0.0
H505 H 0.60799 0.09476 0.91314 0.0
H506 H 0.526 0.11346 0.92558 0.0
H507 H 0.59709 0.11892 0.93839 0.0
H508 H 0.46744 0.02473 0.86117 0.0
H509 H 0.50279 0.09954 0.88241 0.0
H510 H 0.51007 0.02988 0.85948 0.0
H511 H 0.46026 0.09307 0.88381 0.0
H512 H 0.56476 0.17593 0.88636 0.0
H513 H 0.51209 0.15483 0.8502 0.0
H514 H 0.5644 0.02384 0.94426 0.0
H515 H 0.49364 0.02077 0.92602 0.0
H516 H 0.58569 0.0882 0.8194 0.0
H517 H 0.60653 0.10147 0.87106 0.0
H518 H 0.614 0.11898 0.80987 0.0
H519 H 0.63438 0.13195 0.86064 0.0
H520 H 0.60301 0.01156 0.89156 0.0
H521 H 0.53461 6e-05 0.87115 0.0
H522 H 0.59817 0.97514 0.90928 0.0
H523 H 0.53091 0.96391 0.88929 0.0
H524 H 0.66576 0.04363 0.90008 0.0
H525 H 0.66395 0.03078 0.84593 0.0
H526 H 0.51574 0.06084 0.80079 0.0
H527 H 0.53614 0.98787 0.81212 0.0
Li528 Li 0.40568 0.05751 0.62124 0.0
Li529 Li 0.44376 0.05123 0.63358 0.0
Li530 Li 0.43471 0.08834 0.6185 0.0
Li531 Li 0.43949 0.05045 0.60349 0.0
C532 C 0.40314 0.07838 0.65088 0.0
N533 N 0.3662 0.08132 0.67313 0.0
C534 C 0.40078 0.06158 0.66394 0.0
C535 C 0.38683 0.09677 0.64921 0.0
C536 C 0.38195 0.06336 0.67504 0.0
C537 C 0.36824 0.09792 0.66056 0.0
C538 C 0.42502 0.0077 0.61124 0.0
C539 C 0.44473 0.97351 0.59927 0.0
N540 N 0.42472 0.96682 0.59143 0.0
C541 C 0.40464 0.00048 0.60308 0.0
C542 C 0.44523 0.99409 0.60936 0.0
C543 C 0.40484 0.97975 0.59313 0.0
C544 C 0.35714 0.06058 0.61467 0.0
N545 N 0.37396 0.0498 0.62405 0.0
C546 C 0.34651 0.02264 0.63606 0.0
C547 C 0.36909 0.03137 0.63474 0.0
C548 C 0.32884 0.03294 0.6262 0.0
C549 C 0.33426 0.05246 0.61563 0.0
H550 H 0.36161 0.07488 0.60603 0.0
H551 H 0.38294 0.02294 0.64184 0.0
C552 C 0.46494 0.05631 0.66466 0.0
N553 N 0.45919 0.03944 0.653 0.0
C554 C 0.47526 0.04964 0.6799 0.0
C555 C 0.47368 0.00823 0.67085 0.0
C556 C 0.46331 0.01576 0.65571 0.0
C557 C 0.47969 0.02531 0.68321 0.0
H558 H 0.46106 0.07496 0.66221 0.0
H559 H 0.45823 0.00272 0.64627 0.0
C560 C 0.40978 0.09368 0.59031 0.0
N561 N 0.40115 0.13331 0.57022 0.0
C562 C 0.42007 0.09564 0.57429 0.0
C563 C 0.39499 0.1118 0.59606 0.0
C564 C 0.4155 0.11583 0.56434 0.0
C565 C 0.39089 0.13172 0.58574 0.0
C566 C 0.48389 0.06806 0.6244 0.0
C567 C 0.49188 0.08861 0.6327 0.0
C568 C 0.49708 0.04704 0.62496 0.0
C569 C 0.51289 0.08773 0.64154 0.0
C570 C 0.51797 0.04687 0.63396 0.0
N571 N 0.52537 0.06705 0.642 0.0
C572 C 0.43895 0.13542 0.63161 0.0
C573 C 0.45245 0.13001 0.60345 0.0
C574 C 0.44727 0.15894 0.63177 0.0
N575 N 0.44186 0.12149 0.61762 0.0
C576 C 0.46052 0.15354 0.6029 0.0
C577 C 0.45852 0.16825 0.61733 0.0
H578 H 0.43108 0.12793 0.64289 0.0
H579 H 0.45527 0.11829 0.59274 0.0
C580 C 0.43325 0.03039 0.57125 0.0
N581 N 0.44956 0.03699 0.5828 0.0
C582 C 0.43995 0.02176 0.55539 0.0
C583 C 0.48009 0.02671 0.5637 0.0
C584 C 0.4726 0.03526 0.57941 0.0
C585 C 0.46364 0.02007 0.55141 0.0
H586 H 0.41504 0.0323 0.57428 0.0
H587 H 0.48514 0.04105 0.58873 0.0
O588 O 0.42116 0.07667 0.63967 0.0
O589 O 0.42531 0.02818 0.62078 0.0
O590 O 0.41416 0.07414 0.6003 0.0
O591 O 0.46308 0.06838 0.61603 0.0
H592 H 0.41317 0.04715 0.66535 0.0
H593 H 0.38847 0.10995 0.63921 0.0
H594 H 0.37982 0.05041 0.68515 0.0
H595 H 0.35543 0.11199 0.65937 0.0
H596 H 0.46028 0.9629 0.59762 0.0
H597 H 0.3889 0.0109 0.60422 0.0
H598 H 0.46121 -0.00046 0.61544 0.0
H599 H 0.38922 0.97401 0.58669 0.0
H600 H 0.34299 0.00771 0.64447 0.0
H601 H 0.32116 0.06068 0.60767 0.0
H602 H 0.47906 0.06337 0.68921 0.0
H603 H 0.47682 0.98931 0.67291 0.0
H604 H 0.43165 0.08186 0.56966 0.0
H605 H 0.38695 0.11061 0.60843 0.0
H606 H 0.42342 0.11763 0.55195 0.0
H607 H 0.37959 0.14594 0.59007 0.0
H608 H 0.48191 0.10502 0.63246 0.0
H609 H 0.49107 0.03092 0.61874 0.0
H610 H 0.51922 0.10347 0.64808 0.0
H611 H 0.52825 0.03068 0.63461 0.0
H612 H 0.4457 0.16932 0.64332 0.0
H613 H 0.46864 0.15991 0.59136 0.0
H614 H 0.42674 0.01664 0.5463 0.0
H615 H 0.49851 0.02603 0.56103 0.0
Li616 Li 0.05356 0.94972 0.63328 0.0
Li617 Li 0.08928 0.94248 0.61933 0.0
Li618 Li 0.05608 0.94875 0.60197 0.0
Li619 Li 0.06055 0.91236 0.61909 0.0
C620 C 0.05954 0.99359 0.61659 0.0
N621 N 0.03727 0.03732 0.61406 0.0
C622 C 0.07241 0.01481 0.61618 0.0
C623 C 0.03532 0.99461 0.61569 0.0
C624 C 0.06084 0.03674 0.61492 0.0
C625 C 0.0244 0.01689 0.61442 0.0
C626 C 0.08792 0.93144 0.65373 0.0
C627 C 0.10295 0.92159 0.68145 0.0
N628 N 0.1098 0.94474 0.6835 0.0
C629 C 0.09508 0.95516 0.65612 0.0
C630 C 0.09185 0.91453 0.6665 0.0
C631 C 0.10612 0.96151 0.67126 0.0
C632 C 0.02855 0.94588 0.66272 0.0
N633 N 0.03965 0.96249 0.6531 0.0
C634 C 0.03485 0.99211 0.67475 0.0
C635 C 0.0429 0.98532 0.65871 0.0
C636 C 0.02376 0.97511 0.68509 0.0
C637 C 0.02028 0.95186 0.67876 0.0
H638 H 0.027 0.92768 0.65816 0.0
H639 H 0.05259 0.99797 0.65114 0.0
C640 C 0.12818 0.96858 0.61029 0.0
N641 N 0.12146 0.94951 0.61981 0.0
C642 C 0.15122 0.97611 0.61045 0.0
C643 C 0.16008 0.94399 0.63005 0.0
C644 C 0.13685 0.93694 0.62941 0.0
C645 C 0.16743 0.96394 0.62058 0.0
H646 H 0.1155 0.97812 0.60274 0.0
H647 H 0.13104 0.92166 0.6367 0.0
C648 C 0.0157 0.91748 0.61295 0.0
N649 N 0.98283 0.88322 0.60498 0.0
C650 C 0.01584 0.90651 0.59699 0.0
C651 C -0.00128 0.91117 0.6248 0.0
C652 C -0.0009 0.8892 0.59322 0.0
C653 C 0.98228 0.89377 0.62054 0.0
C654 C 0.10022 0.91382 0.59479 0.0
C655 C 0.11212 0.92366 0.581 0.0
C656 C 0.11036 0.89528 0.60415 0.0
C657 C 0.13409 0.91484 0.57684 0.0
C658 C 0.13235 0.88694 0.59958 0.0
N659 N 0.14367 0.89683 0.58614 0.0
C660 C 0.06175 0.97169 0.57089 0.0
C661 C 0.02264 0.96193 0.57717 0.0
C662 C 0.05537 0.98054 0.555 0.0
N663 N 0.04549 0.96216 0.58139 0.0
C664 C 0.01547 0.97055 0.56139 0.0
C665 C 0.032 0.97967 0.54997 0.0
H666 H 0.07971 0.97221 0.57484 0.0
H667 H 0.01001 0.95474 0.58594 0.0
C668 C 0.04328 0.87086 0.63459 0.0
N669 N 0.05292 0.87936 0.62005 0.0
C670 C 0.03439 0.8476 0.63517 0.0
C671 C 0.04617 0.84216 0.60594 0.0
C672 C 0.05485 0.86551 0.60593 0.0
C673 C 0.03544 0.83308 0.62062 0.0
H674 H 0.0417 0.8825 0.64552 0.0
H675 H 0.06234 0.87291 0.59449 0.0
O676 O 0.07083 0.97206 0.61774 0.0
O677 O 0.07677 0.92469 0.63915 0.0
O678 O 0.03246 0.93387 0.61707 0.0
O679 O 0.07899 0.92264 0.59941 0.0
H680 H 0.09117 0.01432 0.61686 0.0
H681 H 0.02499 0.97847 0.61602 0.0
H682 H 0.07059 0.0533 0.6146 0.0
H683 H 0.00568 0.01795 0.61373 0.0
H684 H 0.1061 0.90868 0.69144 0.0
H685 H 0.09217 0.96856 0.64645 0.0
H686 H 0.08631 0.89613 0.66486 0.0
H687 H 0.11176 0.97979 0.67327 0.0
H688 H 0.03817 0.01011 0.67929 0.0
H689 H 0.01166 0.93827 0.68629 0.0
H690 H 0.15617 0.99169 0.60308 0.0
H691 H 0.17215 0.934 0.63787 0.0
H692 H 0.02903 0.91099 0.58773 0.0
H693 H -0.00176 0.91955 0.63717 0.0
H694 H -0.00086 0.88042 0.58097 0.0
H695 H 0.9691 0.88864 0.62962 0.0
H696 H 0.10455 0.93801 0.57362 0.0
H697 H 0.10151 0.88766 0.61501 0.0
H698 H 0.14355 0.92235 0.56623 0.0
H699 H 0.14047 0.8727 0.60677 0.0
H700 H 0.06858 0.98791 0.54673 0.0
H701 H 0.99728 0.96947 0.558 0.0
H702 H 0.02601 0.8414 0.64667 0.0
H703 H 0.04754 0.83146 0.59451 0.0
Li704 Li 0.55982 0.58883 0.12414 0.0
Li705 Li 0.55339 0.54897 0.13616 0.0
Li706 Li 0.58949 0.55857 0.12157 0.0
Li707 Li 0.55322 0.55394 0.1061 0.0
C708 C 0.58042 0.59045 0.15428 0.0
N709 N 0.5854 0.6273 0.17742 0.0
C710 C 0.56692 0.59085 0.16902 0.0
C711 C 0.59657 0.60868 0.15136 0.0
C712 C 0.56968 0.60966 0.18056 0.0
C713 C 0.59878 0.62719 0.16319 0.0
C714 C 0.51168 0.56941 0.11366 0.0
C715 C 0.47928 0.54955 0.1003 0.0
N716 N 0.47225 0.57088 0.0937 0.0
C717 C 0.50408 0.59116 0.10681 0.0
C718 C 0.49913 0.54845 0.11046 0.0
C719 C 0.48411 0.59152 0.09674 0.0
C720 C 0.55797 0.63684 0.11325 0.0
N721 N 0.55263 0.62189 0.12631 0.0
C722 C 0.53203 0.65313 0.14057 0.0
C723 C 0.53988 0.62949 0.1398 0.0
C724 C 0.53675 0.66874 0.12705 0.0
C725 C 0.55003 0.66048 0.11332 0.0
H726 H 0.5676 0.63014 0.10247 0.0
H727 H 0.53505 0.61696 0.14965 0.0
C728 C 0.55552 0.52548 0.16751 0.0
N729 N 0.54078 0.53249 0.155 0.0
C730 C 0.54686 0.51552 0.18246 0.0
C731 C 0.50805 0.51934 0.17104 0.0
C732 C 0.51748 0.52931 0.15634 0.0
C733 C 0.52277 0.51286 0.18452 0.0
H734 H 0.57396 0.52854 0.16613 0.0
H735 H 0.50617 0.53523 0.14624 0.0
C736 C 0.5954 0.58349 0.09343 0.0
N737 N 0.63439 0.59022 0.07359 0.0
C738 C 0.59853 0.56997 0.07867 0.0
C739 C 0.61198 0.60058 0.09803 0.0
C740 C 0.61838 0.57361 0.06882 0.0
C741 C 0.63161 0.60366 0.08786 0.0
C742 C 0.56988 0.50772 0.12686 0.0
C743 C 0.58938 0.49991 0.13586 0.0
C744 C 0.54988 0.49355 0.12658 0.0
C745 C 0.5885 0.47805 0.1445 0.0
C746 C 0.54968 0.47183 0.13541 0.0
N747 N 0.56883 0.46459 0.14411 0.0
C748 C 0.63623 0.55839 0.13329 0.0
C749 C 0.62875 0.53685 0.10793 0.0
C750 C 0.65921 0.55038 0.1334 0.0
N751 N 0.62157 0.55138 0.12073 0.0
C752 C 0.65155 0.5286 0.10745 0.0
C753 C 0.66703 0.53497 0.12048 0.0
H754 H 0.62988 0.56947 0.14354 0.0
H755 H 0.61652 0.5311 0.09835 0.0
C756 C 0.53344 0.56158 0.07417 0.0
N757 N 0.5404 0.54424 0.08517 0.0
C758 C 0.52419 0.55537 0.05843 0.0
C759 C 0.52984 0.51357 0.06555 0.0
C760 C 0.53889 0.5206 0.08119 0.0
C761 C 0.52239 0.53109 0.05394 0.0
H762 H 0.53526 0.58025 0.07763 0.0
H763 H 0.54486 0.50725 0.09011 0.0
O764 O 0.57787 0.57229 0.14277 0.0
O765 O 0.53145 0.56859 0.12327 0.0
O766 O 0.57627 0.57995 0.10338 0.0
O767 O 0.57022 0.52931 0.11862 0.0
H768 H 0.55425 0.57697 0.17145 0.0
H769 H 0.60717 0.6086 0.14004 0.0
H770 H 0.55927 0.61027 0.19198 0.0
H771 H 0.61112 0.64148 0.16106 0.0
H772 H 0.46953 0.53343 0.0976 0.0
H773 H 0.51355 0.60756 0.10911 0.0
H774 H 0.50488 0.53142 0.11551 0.0
H775 H 0.47808 0.6082 0.0913 0.0
H776 H 0.52148 0.65884 0.15121 0.0
H777 H 0.55386 0.67209 0.10265 0.0
H778 H 0.5588 0.51117 0.19261 0.0
H779 H 0.4894 0.51743 0.17208 0.0
H780 H 0.5859 0.55662 0.07495 0.0
H781 H 0.60974 0.61127 0.10936 0.0
H782 H 0.62111 0.56318 0.05742 0.0
H783 H 0.64464 0.61674 0.0913 0.0
H784 H 0.60495 0.5107 0.13635 0.0
H785 H 0.53455 0.49942 0.11983 0.0
H786 H 0.60343 0.47183 0.15157 0.0
H787 H 0.53426 0.46076 0.13539 0.0
H788 H 0.67042 0.55545 0.14383 0.0
H789 H 0.65689 0.51702 0.09713 0.0
H790 H 0.51896 0.5694 0.04972 0.0
H791 H 0.52861 0.49466 0.06258 0.0
Li792 Li 0.93453 0.40462 0.12418 0.0
Li793 Li 0.9413 0.44272 0.13835 0.0
Li794 Li 0.90452 0.43626 0.12224 0.0
Li795 Li 0.94165 0.4427 0.10784 0.0
C796 C 0.90284 0.40319 0.15164 0.0
N797 N 0.87584 0.37104 0.1696 0.0
C798 C 0.90867 0.3971 0.16833 0.0
C799 C 0.88305 0.39324 0.14421 0.0
C800 C 0.89487 0.38071 0.17716 0.0
C801 C 0.86968 0.37694 0.15346 0.0
C802 C 0.98381 0.42753 0.13097 0.0
C803 C 0.01666 0.45195 0.13877 0.0
N804 N 0.02582 0.43309 0.14743 0.0
C805 C 0.99366 0.40832 0.1398 0.0
C806 C 0.9955 0.44945 0.1303 0.0
C807 C 0.01487 0.41152 0.14809 0.0
C808 C 0.94486 0.3593 0.11033 0.0
N809 N 0.94153 0.37141 0.12511 0.0
C810 C 0.95373 0.33741 0.14125 0.0
C811 C 0.94563 0.36095 0.1404 0.0
C812 C 0.9577 0.32457 0.12619 0.0
C813 C 0.95278 0.33565 0.11058 0.0
H814 H 0.94212 0.36828 0.09833 0.0
H815 H 0.94362 0.37123 0.15193 0.0
C816 C 0.95348 0.47955 0.16188 0.0
N817 N 0.95398 0.45568 0.15845 0.0
C818 C 0.96201 0.48813 0.17735 0.0
C819 C 0.97162 0.44739 0.18518 0.0
C820 C 0.9628 0.43964 0.16969 0.0
C821 C 0.97099 0.47188 0.18931 0.0
H822 H 0.94606 0.49185 0.15277 0.0
H823 H 0.96276 0.42075 0.16664 0.0
C824 C 0.90394 0.40535 0.09266 0.0
N825 N 0.87469 0.38165 0.07048 0.0
C826 C 0.90027 0.41431 0.0763 0.0
C827 C 0.89299 0.38412 0.09764 0.0
C828 C 0.88534 0.40213 0.06531 0.0
C829 C 0.8782 0.37246 0.08627 0.0
C830 C 0.92504 0.48681 0.11516 0.0
C831 C 0.90516 0.49517 0.10687 0.0
C832 C 0.94514 0.50083 0.11523 0.0
C833 C 0.90587 0.51727 0.09853 0.0
C834 C 0.94516 0.52281 0.10672 0.0
N835 N 0.9257 0.53049 0.0986 0.0
C836 C 0.86463 0.45554 0.13627 0.0
C837 C 0.85861 0.4411 0.10832 0.0
C838 C 0.84207 0.4646 0.13686 0.0
N839 N 0.87248 0.44429 0.12209 0.0
C840 C 0.83589 0.44977 0.10838 0.0
C841 C 0.82747 0.46205 0.12269 0.0
H842 H 0.8762 0.4581 0.14694 0.0
H843 H 0.86523 0.43246 0.0971 0.0
C844 C 0.97817 0.45059 0.08473 0.0
N845 N 0.95546 0.45535 0.08795 0.0
C846 C 0.98849 0.45889 0.06981 0.0
C847 C 0.95189 0.47697 0.06192 0.0
C848 C 0.94223 0.4681 0.07688 0.0
C849 C 0.97526 0.47224 0.05822 0.0
H850 H 0.98817 0.44005 0.09362 0.0
H851 H 0.92406 0.47102 0.0795 0.0
O852 O 0.91614 0.41933 0.14288 0.0
O853 O 0.96286 0.42488 0.12301 0.0
O854 O 0.91858 0.41704 0.10355 0.0
O855 O 0.92472 0.46516 0.12331 0.0
H856 H 0.92375 0.40486 0.17438 0.0
H857 H 0.8779 0.39819 0.13151 0.0
H858 H 0.89928 0.37572 0.19004 0.0
H859 H 0.85435 0.36906 0.14782 0.0
H860 H 0.02582 0.46887 0.13844 0.0
H861 H 0.98496 0.39118 0.14034 0.0
H862 H 0.98827 0.46439 0.12335 0.0
H863 H 0.02261 0.39685 0.15507 0.0
H864 H 0.95729 0.32949 0.15354 0.0
H865 H 0.95597 0.32649 0.09868 0.0
H866 H 0.96101 0.50712 0.1801 0.0
H867 H 0.97876 0.43428 0.19387 0.0
H868 H 0.90875 0.43057 0.07216 0.0
H869 H 0.89606 0.37653 0.11006 0.0
H870 H 0.88224 0.40896 0.05265 0.0
H871 H 0.86959 0.35604 0.08998 0.0
H872 H 0.88942 0.48465 0.10671 0.0
H873 H 0.96057 0.4948 0.12175 0.0
H874 H 0.89067 0.52388 0.09196 0.0
H875 H 0.96065 0.53376 0.10659 0.0
H876 H 0.83643 0.47421 0.14807 0.0
H877 H 0.82514 0.44712 0.09726 0.0
H878 H 0.00658 0.4549 0.06736 0.0
H879 H 0.94103 0.48683 0.05313 0.0
Li880 Li 0.054 0.44778 0.38754 0.0
Li881 Li 0.09028 0.44197 0.37198 0.0
Li882 Li 0.0539 0.45322 0.35642 0.0
Li883 Li 0.05974 0.4128 0.36804 0.0
C884 C 0.06859 0.49532 0.37696 0.0
N885 N 0.06313 0.54369 0.38332 0.0
C886 C 0.08668 0.50848 0.38423 0.0
C887 C 0.04786 0.50683 0.37269 0.0
C888 C 0.08354 0.53289 0.38742 0.0
C889 C 0.0454 0.53127 0.37607 0.0
C890 C 0.09408 0.41379 0.39964 0.0
C891 C 0.1291 0.39103 0.4042 0.0
N892 N 0.13075 0.40033 0.42012 0.0
C893 C 0.096 0.42298 0.41608 0.0
C894 C 0.11063 0.39753 0.39367 0.0
C895 C 0.11471 0.41601 0.42623 0.0
C896 C 0.02392 0.4433 0.4151 0.0
N897 N 0.04094 0.45732 0.40847 0.0
C898 C 0.03958 0.48333 0.43248 0.0
C899 C 0.04902 0.4769 0.41684 0.0
C900 C 0.02191 0.46926 0.43963 0.0
C901 C 0.01407 0.44898 0.43077 0.0
H902 H 0.01809 0.42765 0.40822 0.0
H903 H 0.06304 0.4873 0.41156 0.0
C904 C 0.13502 0.44764 0.35826 0.0
N905 N 0.12248 0.44853 0.37285 0.0
C906 C 0.15809 0.45528 0.35811 0.0
C907 C 0.15505 0.4638 0.38812 0.0
C908 C 0.13196 0.45643 0.38761 0.0
C909 C 0.16837 0.46378 0.37316 0.0
H910 H 0.12683 0.44183 0.34661 0.0
H911 H 0.12138 0.45774 0.39889 0.0
C912 C 0.00904 0.43874 0.36965 0.0
N913 N 0.96202 0.44823 0.36793 0.0
C914 C 0.99413 0.42274 0.36144 0.0
C915 C -1e-05 0.45946 0.37712 0.0
C916 C 0.97042 0.42789 0.36066 0.0
C917 C 0.97619 0.46396 0.37608 0.0
C918 C 0.08114 0.41259 0.33783 0.0
C919 C 0.06719 0.41303 0.32331 0.0
C920 C 0.0981 0.39486 0.33961 0.0
C921 C 0.07025 0.39545 0.31088 0.0
C922 C 0.10059 0.37759 0.3269 0.0
N923 N 0.08672 0.37823 0.31293 0.0
C924 C 0.06007 0.48011 0.32735 0.0
C925 C 0.02039 0.47207 0.33288 0.0
C926 C 0.05453 0.49 0.31159 0.0
N927 N 0.04313 0.47081 0.33738 0.0
C928 C 0.01406 0.48191 0.31728 0.0
C929 C 0.03132 0.49031 0.30618 0.0
H930 H 0.07802 0.47874 0.33126 0.0
H931 H 0.0072 0.46447 0.34093 0.0
C932 C 0.05707 0.36403 0.37732 0.0
N933 N 0.05177 0.38007 0.36492 0.0
C934 C 0.04902 0.34047 0.3763 0.0
C935 C 0.03071 0.35024 0.34956 0.0
C936 C 0.03901 0.37362 0.35115 0.0
C937 C 0.03532 0.3334 0.3624 0.0
H938 H 0.06684 0.36975 0.38831 0.0
H939 H 0.03461 0.38685 0.34166 0.0
O940 O 0.07145 0.47141 0.37373 0.0
O941 O 0.07595 0.4205 0.3895 0.0
O942 O 0.03229 0.43388 0.37055 0.0
O943 O 0.07836 0.42957 0.35018 0.0
H944 H 0.10292 0.49989 0.38748 0.0
H945 H 0.03388 0.49708 0.36671 0.0
H946 H 0.09734 0.54327 0.39314 0.0
H947 H 0.02941 0.5404 0.37287 0.0
H948 H 0.14211 0.37856 0.39972 0.0
H949 H 0.08325 0.43548 0.42092 0.0
H950 H 0.10925 0.3901 0.38104 0.0
H951 H 0.1165 0.42307 0.43895 0.0
H952 H 0.04639 0.49883 0.4391 0.0
H953 H 0.00042 0.43774 0.43586 0.0
H954 H 0.16744 0.45534 0.34619 0.0
H955 H 0.16223 0.46983 0.40009 0.0
H956 H 0.00076 0.40655 0.35568 0.0
H957 H 0.01116 0.47191 0.38372 0.0
H958 H 0.9587 0.41571 0.35429 0.0
H959 H 0.96898 0.47995 0.38179 0.0
H960 H 0.05399 0.42663 0.32173 0.0
H961 H 0.10919 0.39445 0.35068 0.0
H962 H 0.05949 0.39548 0.29962 0.0
H963 H 0.11357 0.36369 0.32813 0.0
H964 H 0.06833 0.49639 0.30342 0.0
H965 H 0.99599 0.48147 0.3135 0.0
H966 H 0.05269 0.32823 0.38663 0.0
H967 H 0.02045 0.34554 0.33853 0.0
Li968 Li 0.44662 0.5494 0.38491 0.0
Li969 Li 0.40904 0.55392 0.37045 0.0
Li970 Li 0.44484 0.54502 0.35502 0.0
Li971 Li 0.43902 0.585 0.36762 0.0
C972 C 0.42929 0.50339 0.3642 0.0
N973 N 0.43051 0.46085 0.34625 0.0
C974 C 0.40951 0.49529 0.35568 0.0
C975 C 0.44964 0.48977 0.3637 0.0
C976 C 0.41049 0.47375 0.34666 0.0
C977 C 0.44993 0.46835 0.35452 0.0
C978 C 0.40635 0.58331 0.39881 0.0
C979 C 0.37469 0.61043 0.4044 0.0
N980 N 0.37214 0.60059 0.4201 0.0
C981 C 0.40356 0.57359 0.41504 0.0
C982 C 0.39194 0.60198 0.39347 0.0
C983 C 0.38611 0.58252 0.4256 0.0
C984 C 0.46658 0.55798 0.4164 0.0
N985 N 0.46051 0.54015 0.40554 0.0
C986 C 0.47425 0.51042 0.42483 0.0
C987 C 0.46406 0.51671 0.40939 0.0
C988 C 0.48068 0.52848 0.43635 0.0
C989 C 0.47679 0.55254 0.43195 0.0
H990 H 0.46331 0.57646 0.41296 0.0
H991 H 0.45891 0.50293 0.40051 0.0
C992 C 0.36429 0.54728 0.35697 0.0
N993 N 0.37685 0.54729 0.37157 0.0
C994 C 0.34124 0.53962 0.35704 0.0
C995 C 0.34428 0.53292 0.38728 0.0
C996 C 0.36739 0.54025 0.38655 0.0
C997 C 0.33095 0.53206 0.37233 0.0
H998 H 0.37248 0.55226 0.34513 0.0
H999 H 0.37796 0.53962 0.39786 0.0
C1000 C 0.48775 0.56507 0.37644 0.0
N1001 N 0.5282 0.56565 0.39531 0.0
C1002 C 0.49608 0.5866 0.38316 0.0
C1003 C 0.50016 0.54388 0.37916 0.0
C1004 C 0.51653 0.58651 0.39269 0.0
C1005 C 0.52051 0.54452 0.38879 0.0
C1006 C 0.41377 0.58546 0.33782 0.0
C1007 C 0.42578 0.5875 0.32247 0.0
C1008 C 0.39488 0.60047 0.34106 0.0
C1009 C 0.41886 0.60481 0.31069 0.0
C1010 C 0.3885 0.61757 0.32897 0.0
N1011 N 0.40054 0.61938 0.31416 0.0
C1012 C 0.44092 0.52332 0.32315 0.0
C1013 C 0.47947 0.52569 0.33357 0.0
C1014 C 0.44877 0.51404 0.30775 0.0
N1015 N 0.45632 0.52931 0.3355 0.0
C1016 C 0.48808 0.51633 0.31842 0.0
C1017 C 0.4727 0.51097 0.3051 0.0
H1018 H 0.42261 0.52665 0.32505 0.0
H1019 H 0.4913 0.53076 0.34358 0.0
C1020 C 0.44527 0.63079 0.38104 0.0
N1021 N 0.44563 0.61827 0.36624 0.0
C1022 C 0.45343 0.6543 0.38158 0.0
C1023 C 0.46138 0.65198 0.35148 0.0
C1024 C 0.45345 0.62833 0.35158 0.0
C1025 C 0.46186 0.66502 0.3667 0.0
H1026 H 0.43971 0.62213 0.39262 0.0
H1027 H 0.45453 0.61772 0.34016 0.0
O1028 O 0.42883 0.52472 0.37276 0.0
O1029 O 0.42334 0.57478 0.38831 0.0
O1030 O 0.46747 0.56471 0.36739 0.0
O1031 O 0.42026 0.56858 0.34947 0.0
H1032 H 0.39362 0.50556 0.35592 0.0
H1033 H 0.46514 0.49582 0.37013 0.0
H1034 H 0.39534 0.46732 0.33994 0.0
H1035 H 0.46561 0.45772 0.35392 0.0
H1036 H 0.36337 0.62484 0.40043 0.0
H1037 H 0.41462 0.55915 0.41937 0.0
H1038 H 0.39413 0.60995 0.38106 0.0
H1039 H 0.38365 0.57508 0.43815 0.0
H1040 H 0.47713 0.49167 0.42769 0.0
H1041 H 0.48115 0.56697 0.44057 0.0
H1042 H 0.33191 0.5388 0.34512 0.0
H1043 H 0.3371 0.52762 0.39942 0.0
H1044 H 0.48685 0.60321 0.38112 0.0
H1045 H 0.49392 0.52702 0.37416 0.0
H1046 H 0.52311 0.60304 0.39803 0.0
H1047 H 0.53014 0.52821 0.39113 0.0
H1048 H 0.44045 0.576 0.31975 0.0
H1049 H 0.38517 0.59885 0.35275 0.0
H1050 H 0.42808 0.6067 0.2988 0.0
H1051 H 0.37395 0.62935 0.33133 0.0
H1052 H 0.43634 0.51051 0.29775 0.0
H1053 H 0.50664 0.51403 0.31694 0.0
H1054 H 0.45363 0.66385 0.39356 0.0
H1055 H 0.46812 0.65961 0.33983 0.0
Li1056 Li 0.43979 0.44871 0.88689 0.0
Li1057 Li 0.43605 0.4115 0.87208 0.0
Li1058 Li 0.441 0.44989 0.8564 0.0
Li1059 Li 0.40456 0.44072 0.87217 0.0
C1060 C 0.48593 0.43666 0.87303 0.0
N1061 N 0.53342 0.4427 0.87541 0.0
C1062 C 0.49967 0.41892 0.88053 0.0
C1063 C 0.49641 0.45729 0.86649 0.0
C1064 C 0.52363 0.42236 0.88169 0.0
C1065 C 0.52042 0.46006 0.86789 0.0
C1066 C 0.4223 0.40982 0.9059 0.0
C1067 C 0.41029 0.38764 0.93067 0.0
N1068 N 0.43293 0.38374 0.9347 0.0
C1069 C 0.44544 0.40562 0.9103 0.0
C1070 C 0.40456 0.40081 0.91617 0.0
C1071 C 0.45047 0.39239 0.9249 0.0
C1072 C 0.43493 0.46525 0.91991 0.0
N1073 N 0.45095 0.4629 0.90735 0.0
C1074 C 0.48051 0.47897 0.92528 0.0
C1075 C 0.47335 0.46981 0.90966 0.0
C1076 C 0.46444 0.48107 0.9386 0.0
C1077 C 0.44131 0.47435 0.9357 0.0
H1078 H 0.41717 0.45986 0.91766 0.0
H1079 H 0.48575 0.46807 0.89952 0.0
C1080 C 0.46311 0.3745 0.86013 0.0
N1081 N 0.44524 0.37896 0.87091 0.0
C1082 C 0.47272 0.35162 0.85911 0.0
C1083 C 0.44485 0.3381 0.87997 0.0
C1084 C 0.43569 0.36129 0.88052 0.0
C1085 C 0.46386 0.33312 0.86933 0.0
H1086 H 0.47018 0.38891 0.85253 0.0
H1087 H 0.42129 0.36525 0.88885 0.0
C1088 C 0.42494 0.49172 0.8804 0.0
N1089 N 0.43018 0.53276 0.89965 0.0
C1090 C 0.40709 0.49929 0.89115 0.0
C1091 C 0.44534 0.50516 0.8793 0.0
C1092 C 0.4101 0.52006 0.90081 0.0
C1093 C 0.4477 0.52581 0.88917 0.0
C1094 C 0.40396 0.40552 0.8464 0.0
C1095 C 0.4034 0.40005 0.8291 0.0
C1096 C 0.39022 0.39247 0.85774 0.0
C1097 C 0.38898 0.3816 0.82339 0.0
C1098 C 0.37605 0.37415 0.85153 0.0
N1099 N 0.37572 0.36915 0.83463 0.0
C1100 C 0.46373 0.44643 0.82596 0.0
C1101 C 0.45149 0.48612 0.83201 0.0
C1102 C 0.47244 0.45358 0.81029 0.0
N1103 N 0.45342 0.46263 0.83634 0.0
C1104 C 0.46011 0.49414 0.81642 0.0
C1105 C 0.47062 0.47771 0.80529 0.0
H1106 H 0.46473 0.42782 0.82978 0.0
H1107 H 0.44299 0.49852 0.84053 0.0
C1108 C 0.36112 0.44963 0.8868 0.0
N1109 N 0.37228 0.44596 0.87184 0.0
C1110 C 0.33798 0.45699 0.88689 0.0
C1111 C 0.338 0.45527 0.8562 0.0
C1112 C 0.36124 0.44831 0.8567 0.0
C1113 C 0.32621 0.46034 0.87141 0.0
H1114 H 0.37053 0.44787 0.89862 0.0
H1115 H 0.37068 0.44547 0.84501 0.0
O1116 O 0.46247 0.43342 0.87156 0.0
O1117 O 0.41686 0.42273 0.89168 0.0
O1118 O 0.42258 0.47105 0.87121 0.0
O1119 O 0.41815 0.4234 0.85217 0.0
H1120 H 0.49197 0.4026 0.88536 0.0
H1121 H 0.48615 0.47108 0.86046 0.0
H1122 H 0.53446 0.40883 0.88752 0.0
H1123 H 0.52873 0.47601 0.86297 0.0
H1124 H 0.39673 0.38052 0.93872 0.0
H1125 H 0.45934 0.41261 0.90259 0.0
H1126 H 0.38655 0.40393 0.91293 0.0
H1127 H 0.46831 0.38903 0.92845 0.0
H1128 H 0.49857 0.48378 0.92702 0.0
H1129 H 0.42829 0.47605 0.94554 0.0
H1130 H 0.48702 0.3485 0.85047 0.0
H1131 H 0.43754 0.32442 0.88813 0.0
H1132 H 0.39119 0.48914 0.89215 0.0
H1133 H 0.45932 0.49958 0.87105 0.0
H1134 H 0.39649 0.52604 0.90927 0.0
H1135 H 0.46347 0.53628 0.88854 0.0
H1136 H 0.41402 0.40996 0.82019 0.0
H1137 H 0.39049 0.39639 0.87119 0.0
H1138 H 0.38836 0.37717 0.81002 0.0
H1139 H 0.36532 0.3639 0.86015 0.0
H1140 H 0.47988 0.44017 0.80198 0.0
H1141 H 0.45845 0.51289 0.81309 0.0
H1142 H 0.32977 0.461 0.89892 0.0
H1143 H 0.32955 0.45713 0.84399 0.0
Li1144 Li 0.05311 0.55333 0.88985 0.0
Li1145 Li 0.05856 0.58833 0.87182 0.0
Li1146 Li 0.05088 0.54834 0.85875 0.0
Li1147 Li 0.08853 0.55806 0.87142 0.0
C1148 C 0.00779 0.56153 0.87599 0.0
N1149 N 0.96183 0.54879 0.88031 0.0
C1150 C 0.99126 0.57893 0.88009 0.0
C1151 C 0.00088 0.53772 0.87386 0.0
C1152 C 0.96813 0.57211 0.88229 0.0
C1153 C 0.97759 0.53161 0.87615 0.0
C1154 C 0.08218 0.59819 0.89997 0.0
C1155 C 0.10262 0.63552 0.90368 0.0
N1156 N 0.08921 0.64048 0.91745 0.0
C1157 C 0.06875 0.60351 0.91426 0.0
C1158 C 0.0994 0.61417 0.89472 0.0
C1159 C 0.07252 0.62504 0.92289 0.0
C1160 C 0.05761 0.52791 0.92004 0.0
N1161 N 0.04282 0.54223 0.91122 0.0
C1162 C 0.01513 0.54089 0.93372 0.0
C1163 C 0.02201 0.549 0.91775 0.0
C1164 C 0.03003 0.52602 0.9431 0.0
C1165 C 0.05154 0.51956 0.93613 0.0
H1166 H 0.07417 0.52306 0.91455 0.0
H1167 H 0.01088 0.56099 0.91074 0.0
C1168 C 0.05766 0.63466 0.85666 0.0
N1169 N 0.05112 0.62139 0.87032 0.0
C1170 C 0.05047 0.65849 0.85517 0.0
C1171 C 0.03026 0.65454 0.88194 0.0
C1172 C 0.03763 0.63077 0.88281 0.0
C1173 C 0.0365 0.66864 0.8679 0.0
H1174 H 0.06802 0.62662 0.84675 0.0
H1175 H 0.03217 0.61959 0.89329 0.0
C1176 C 0.06781 0.50496 0.87535 0.0
N1177 N 0.06597 0.45545 0.87585 0.0
C1178 C 0.08549 0.49148 0.86784 0.0
C1179 C 0.04939 0.49322 0.88338 0.0
C1180 C 0.08419 0.46648 0.86815 0.0
C1181 C 0.04872 0.46819 0.88343 0.0
C1182 C 0.08965 0.57745 0.83958 0.0
C1183 C 0.08918 0.56447 0.8244 0.0
C1184 C 0.10712 0.59438 0.8423 0.0
C1185 C 0.10644 0.56845 0.81227 0.0
C1186 C 0.12409 0.59781 0.82987 0.0
N1187 N 0.12341 0.58487 0.81524 0.0
C1188 C 0.01932 0.54521 0.83235 0.0
C1189 C 0.04476 0.51187 0.83376 0.0
C1190 C 0.01003 0.53692 0.81711 0.0
N1191 N 0.03655 0.53284 0.84018 0.0
C1192 C 0.03593 0.50286 0.81854 0.0
C1193 C 0.0187 0.51574 0.80982 0.0
H1194 H 0.01352 0.56211 0.83758 0.0
H1195 H 0.05886 0.5027 0.83998 0.0
C1196 C 0.13389 0.55357 0.88418 0.0
N1197 N 0.1205 0.55047 0.87015 0.0
C1198 C 0.15672 0.54517 0.88441 0.0
C1199 C 0.15173 0.53141 0.85553 0.0
C1200 C 0.12895 0.53973 0.85596 0.0
C1201 C 0.16582 0.53357 0.87001 0.0
H1202 H 0.12654 0.56174 0.89541 0.0
H1203 H 0.11775 0.53676 0.84518 0.0
O1204 O 0.0305 0.56797 0.87382 0.0
O1205 O 0.07854 0.57737 0.89122 0.0
O1206 O 0.06901 0.52948 0.87536 0.0
O1207 O 0.07294 0.57372 0.85162 0.0
H1208 H 0.99627 0.59749 0.88165 0.0
H1209 H 0.01329 0.52415 0.87027 0.0
H1210 H 0.95518 0.58537 0.88557 0.0
H1211 H 0.97202 0.51323 0.87455 0.0
H1212 H 0.1158 0.64813 0.8997 0.0
H1213 H 0.05541 0.59128 0.91853 0.0
H1214 H 0.11014 0.61014 0.88383 0.0
H1215 H 0.06214 0.62949 0.93389 0.0
H1216 H -0.00143 0.54656 0.93883 0.0
H1217 H 0.06344 0.50806 0.943 0.0
H1218 H 0.05565 0.66883 0.84416 0.0
H1219 H 0.01917 0.66157 0.89186 0.0
H1220 H 0.09998 0.5002 0.86172 0.0
H1221 H 0.03585 0.50325 0.88967 0.0
H1222 H 0.09768 0.45585 0.86227 0.0
H1223 H 0.03454 0.4589 0.88956 0.0
H1224 H 0.07569 0.55141 0.82203 0.0
H1225 H 0.10762 0.60468 0.85392 0.0
H1226 H 0.10636 0.55846 0.80049 0.0
H1227 H 0.13779 0.61076 0.83185 0.0
H1228 H 0.99713 0.54772 0.81067 0.0
H1229 H 0.04305 0.48644 0.81338 0.0
H1230 H 0.16678 0.54693 0.89595 0.0
H1231 H 0.15804 0.52293 0.84406 0.0
Li1232 Li 0.9052 0.55951 0.62434 0.0
Li1233 Li 0.9428 0.55068 0.63756 0.0
Li1234 Li 0.93636 0.58937 0.62194 0.0
Li1235 Li 0.94078 0.55184 0.6065 0.0
C1236 C 0.90602 0.58725 0.65422 0.0
N1237 N 0.87517 0.60704 0.67712 0.0
C1238 C 0.90521 0.57886 0.67094 0.0
C1239 C 0.89133 0.60587 0.64921 0.0
C1240 C 0.88944 0.58905 0.68231 0.0
C1241 C 0.8758 0.6156 0.66095 0.0
C1242 C 0.92409 0.50651 0.62713 0.0
C1243 C 0.94162 0.46724 0.62757 0.0
N1244 N 0.92347 0.45892 0.63689 0.0
C1245 C 0.90545 0.49747 0.63651 0.0
C1246 C 0.94219 0.49121 0.62244 0.0
C1247 C 0.90552 0.47341 0.64141 0.0
C1248 C 0.86184 0.54805 0.611 0.0
N1249 N 0.87303 0.55286 0.62579 0.0
C1250 C 0.83948 0.54207 0.64185 0.0
C1251 C 0.86234 0.55016 0.64105 0.0
C1252 C 0.82766 0.53618 0.62681 0.0
C1253 C 0.83903 0.53965 0.6112 0.0
H1254 H 0.87098 0.54986 0.59907 0.0
H1255 H 0.87179 0.55324 0.65266 0.0
C1256 C 0.97832 0.54362 0.66155 0.0
N1257 N 0.9565 0.53687 0.65709 0.0
C1258 C 0.98778 0.53609 0.67695 0.0
C1259 C 0.95228 0.51448 0.68276 0.0
C1260 C 0.94349 0.5225 0.66727 0.0
C1261 C 0.97451 0.52171 0.68791 0.0
H1262 H 0.98805 0.55562 0.65347 0.0
H1263 H 0.92584 0.51831 0.66381 0.0
C1264 C 0.90791 0.59488 0.594 0.0
N1265 N 0.8913 0.63234 0.57454 0.0
C1266 C 0.91948 0.60163 0.57916 0.0
C1267 C 0.88761 0.60682 0.59874 0.0
C1268 C 0.9109 0.62073 0.56955 0.0
C1269 C 0.87956 0.62581 0.58878 0.0
C1270 C 0.98572 0.56157 0.61669 0.0
C1271 C 0.00038 0.57865 0.60936 0.0
C1272 C 0.99368 0.53817 0.61908 0.0
C1273 C 0.02265 0.57186 0.60425 0.0
C1274 C 0.01606 0.53208 0.61382 0.0
N1275 N 0.02995 0.5489 0.60655 0.0
C1276 C 0.94192 0.6367 0.6349 0.0
C1277 C 0.95567 0.63024 0.60692 0.0
C1278 C 0.95018 0.66023 0.63465 0.0
N1279 N 0.94477 0.62229 0.62114 0.0
C1280 C 0.96422 0.65359 0.60611 0.0
C1281 C 0.96175 0.66885 0.62018 0.0
H1282 H 0.93396 0.62973 0.64629 0.0
H1283 H 0.95838 0.61818 0.59637 0.0
C1284 C 0.94242 0.51733 0.58046 0.0
N1285 N 0.95146 0.53844 0.58595 0.0
C1286 C 0.94956 0.50759 0.56499 0.0
C1287 C 0.97506 0.54161 0.56117 0.0
C1288 C 0.96727 0.55077 0.5766 0.0
C1289 C 0.96614 0.51978 0.55519 0.0
H1290 H 0.92946 0.5082 0.58799 0.0
H1291 H 0.97351 0.56794 0.58098 0.0
O1292 O 0.92121 0.57729 0.6429 0.0
O1293 O 0.9242 0.53001 0.62211 0.0
O1294 O 0.91606 0.57622 0.60356 0.0
O1295 O 0.96376 0.56784 0.62161 0.0
H1296 H 0.91656 0.56456 0.67507 0.0
H1297 H 0.89204 0.61287 0.63643 0.0
H1298 H 0.88855 0.58266 0.69526 0.0
H1299 H 0.8643 0.63 0.65723 0.0
H1300 H 0.95555 0.45523 0.62406 0.0
H1301 H 0.89118 0.50896 0.64012 0.0
H1302 H 0.95641 0.49765 0.61474 0.0
H1303 H 0.89129 0.46624 0.6488 0.0
H1304 H 0.83136 0.53994 0.65415 0.0
H1305 H 0.83078 0.53499 0.5993 0.0
H1306 H 0.005 0.54206 0.6805 0.0
H1307 H 0.9413 0.50389 0.69103 0.0
H1308 H 0.93502 0.59233 0.57517 0.0
H1309 H 0.87804 0.60135 0.60989 0.0
H1310 H 0.91981 0.62629 0.55812 0.0
H1311 H 0.86392 0.63528 0.59235 0.0
H1312 H 0.99459 0.59691 0.60755 0.0
H1313 H 0.98277 0.52492 0.6251 0.0
H1314 H 0.03412 0.58485 0.59846 0.0
H1315 H 0.02241 0.514 0.61557 0.0
H1316 H 0.9483 0.67126 0.64588 0.0
H1317 H 0.97294 0.65953 0.59468 0.0
H1318 H 0.94228 0.49072 0.56077 0.0
H1319 H 0.9875 0.55178 0.55379 0.0
Li1320 Li 0.55162 0.44957 0.63491 0.0
Li1321 Li 0.59015 0.44134 0.62307 0.0
Li1322 Li 0.55694 0.45124 0.60513 0.0
Li1323 Li 0.55868 0.41206 0.61952 0.0
C1324 C 0.57417 0.49265 0.61389 0.0
N1325 N 0.57798 0.53416 0.59494 0.0
C1326 C 0.59553 0.49922 0.60689 0.0
C1327 C 0.5548 0.50731 0.61138 0.0
C1328 C 0.59709 0.52026 0.59733 0.0
C1329 C 0.55706 0.52818 0.60171 0.0
C1330 C 0.58855 0.41373 0.65193 0.0
C1331 C 0.61769 0.38448 0.65922 0.0
N1332 N 0.62055 0.39531 0.67455 0.0
C1333 C 0.59162 0.42447 0.6678 0.0
C1334 C 0.60154 0.39348 0.64763 0.0
C1335 C 0.60795 0.41493 0.67904 0.0
C1336 C 0.52994 0.4447 0.66583 0.0
N1337 N 0.53642 0.46153 0.65434 0.0
C1338 C 0.52225 0.49294 0.67214 0.0
C1339 C 0.5328 0.48529 0.6571 0.0
C1340 C 0.51556 0.4759 0.68435 0.0
C1341 C 0.51948 0.4515 0.68098 0.0
H1342 H 0.53329 0.42596 0.66329 0.0
H1343 H 0.53831 0.49827 0.64775 0.0
C1344 C 0.63657 0.44354 0.61226 0.0
N1345 N 0.62235 0.44633 0.62587 0.0
C1346 C 0.6597 0.4508 0.61316 0.0
C1347 C 0.65328 0.46286 0.64227 0.0
C1348 C 0.6302 0.45569 0.64072 0.0
C1349 C 0.66826 0.46102 0.62824 0.0
H1350 H 0.62965 0.43684 0.60042 0.0
H1351 H 0.61832 0.45852 0.65113 0.0
C1352 C 0.51075 0.43614 0.62484 0.0
N1353 N 0.46896 0.4404 0.64179 0.0
C1354 C 0.50084 0.41619 0.63274 0.0
C1355 C 0.49929 0.45822 0.62542 0.0
C1356 C 0.47972 0.41871 0.64127 0.0
C1357 C 0.47822 0.46002 0.6341 0.0
C1358 C 0.58693 0.40822 0.59095 0.0
C1359 C 0.57663 0.40687 0.57491 0.0
C1360 C 0.60418 0.39179 0.59544 0.0
C1361 C 0.58355 0.38883 0.56369 0.0
C1362 C 0.61061 0.37401 0.58387 0.0
N1363 N 0.60024 0.37291 0.56838 0.0
C1364 C 0.56625 0.47154 0.57342 0.0
C1365 C 0.52627 0.46978 0.58049 0.0
C1366 C 0.56105 0.48108 0.55751 0.0
N1367 N 0.54891 0.46601 0.58443 0.0
C1368 C 0.52027 0.47937 0.56475 0.0
C1369 C 0.53777 0.48486 0.55297 0.0
H1370 H 0.5841 0.46807 0.5769 0.0
H1371 H 0.51286 0.46484 0.58941 0.0
C1372 C 0.54792 0.36713 0.63348 0.0
N1373 N 0.55026 0.37916 0.61858 0.0
C1374 C 0.53898 0.34387 0.63367 0.0
C1375 C 0.53583 0.34552 0.6031 0.0
C1376 C 0.54433 0.36892 0.60355 0.0
C1377 C 0.53258 0.33276 0.61833 0.0
H1378 H 0.55204 0.37598 0.64532 0.0
H1379 H 0.54551 0.37911 0.59195 0.0
O1380 O 0.57218 0.47187 0.623 0.0
O1381 O 0.57268 0.42285 0.64075 0.0
O1382 O 0.53173 0.43417 0.6168 0.0
O1383 O 0.58042 0.42579 0.60208 0.0
H1384 H 0.61072 0.48815 0.6087 0.0
H1385 H 0.53812 0.50247 0.61664 0.0
H1386 H 0.61349 0.5255 0.59177 0.0
H1387 H 0.54216 0.53958 0.59956 0.0
H1388 H 0.62791 0.36884 0.65605 0.0
H1389 H 0.58164 0.44013 0.67133 0.0
H1390 H 0.59908 0.38474 0.63551 0.0
H1391 H 0.61062 0.42314 0.69133 0.0
H1392 H 0.51948 0.51191 0.67422 0.0
H1393 H 0.51514 0.43777 0.69017 0.0
H1394 H 0.6704 0.44949 0.6019 0.0
H1395 H 0.65914 0.47037 0.6542 0.0
H1396 H 0.50939 0.39896 0.6324 0.0
H1397 H 0.50676 0.47388 0.61947 0.0
H1398 H 0.47192 0.40344 0.64751 0.0
H1399 H 0.46928 0.47704 0.63478 0.0
H1400 H 0.56323 0.41942 0.57122 0.0
H1401 H 0.61259 0.39283 0.60769 0.0
H1402 H 0.57563 0.38748 0.55128 0.0
H1403 H 0.62389 0.36114 0.5872 0.0
H1404 H 0.57503 0.48522 0.5488 0.0
H1405 H 0.5021 0.48167 0.56161 0.0
H1406 H 0.53634 0.33511 0.64578 0.0
H1407 H 0.5315 0.33771 0.59092 0.0
C1408 C 0.28792 0.96113 0.12552 0.0
C1409 C 0.30752 0.97597 0.12655 0.0
C1410 C 0.26547 0.97087 0.12529 0.0
C1411 C 0.26257 0.99603 0.12624 0.0
C1412 C 0.28223 0.01111 0.12738 0.0
C1413 C 0.30446 0.00091 0.12741 0.0
C1414 C 0.24487 0.95425 0.12399 0.0
C1415 C 0.27979 0.03802 0.12848 0.0
C1416 C 0.20593 0.02255 0.11038 0.0
C1417 C 0.19353 0.02536 0.12555 0.0
C1418 C 0.22849 0.01312 0.11042 0.0
C1419 C 0.23892 0.00659 0.12603 0.0
C1420 C 0.22666 0.00989 0.14143 0.0
C1421 C 0.20404 0.01915 0.14099 0.0
C1422 C 0.24099 0.00969 0.09374 0.0
C1423 C 0.23735 0.00345 0.15833 0.0
H1424 H 0.29012 0.94185 0.12504 0.0
H1425 H 0.3195 0.01255 0.12787 0.0
H1426 H 0.2335 0.9565 0.13525 0.0
H1427 H 0.23438 0.95884 0.11263 0.0
H1428 H 0.25011 0.93512 0.12312 0.0
H1429 H 0.29683 0.04719 0.12967 0.0
H1430 H 0.27086 0.04492 0.117 0.0
H1431 H 0.26893 0.04289 0.13959 0.0
H1432 H 0.19771 0.02708 0.09842 0.0
H1433 H 0.19454 0.02154 0.15275 0.0
H1434 H 0.24499 0.99042 0.09187 0.0
H1435 H 0.25776 0.01945 0.09389 0.0
H1436 H 0.23061 0.01609 0.08275 0.0
H1437 H 0.24139 0.98401 0.15867 0.0
H1438 H 0.22572 0.00774 0.16916 0.0
H1439 H 0.25395 0.01323 0.16005 0.0
C1440 C 0.7076 0.96492 0.36357 0.0
C1441 C 0.69031 0.97029 0.37548 0.0
C1442 C 0.72944 0.97594 0.36442 0.0
C1443 C 0.73395 0.99292 0.37737 0.0
C1444 C 0.71664 0.99819 0.38956 0.0
C1445 C 0.69503 0.98671 0.38851 0.0
C1446 C 0.74759 0.96966 0.35132 0.0
C1447 C 0.72075 0.01635 0.40345 0.0
C1448 C 0.79684 0.00738 0.38728 0.0
C1449 C 0.80028 0.02829 0.37772 0.0
C1450 C 0.77524 0.9958 0.38744 0.0
C1451 C 0.75664 0.00551 0.37793 0.0
C1452 C 0.75987 0.02694 0.36858 0.0
C1453 C 0.78172 0.03801 0.36852 0.0
C1454 C 0.7725 0.97287 0.39743 0.0
C1455 C 0.74034 0.03797 0.35845 0.0
H1456 H 0.70401 0.95209 0.35357 0.0
H1457 H 0.68156 0.99114 0.39759 0.0
H1458 H 0.75215 0.98582 0.34382 0.0
H1459 H 0.76368 0.96344 0.35769 0.0
H1460 H 0.74161 0.95546 0.34246 0.0
H1461 H 0.70568 0.01796 0.41217 0.0
H1462 H 0.73627 0.01131 0.41098 0.0
H1463 H 0.72425 0.03418 0.39776 0.0
H1464 H 0.81127 -0.00036 0.39421 0.0
H1465 H 0.78434 0.05427 0.36122 0.0
H1466 H 0.76818 0.95792 0.38869 0.0
H1467 H 0.75793 0.97456 0.40656 0.0
H1468 H 0.78848 0.96808 0.40456 0.0
H1469 H 0.73475 0.02541 0.34833 0.0
H1470 H 0.74544 0.05521 0.35246 0.0
H1471 H 0.72512 0.04118 0.36677 0.0
C1472 C 0.8 0.99356 0.88363 0.0
C1473 C 0.80417 0.97261 0.87428 0.0
C1474 C 0.77794 0.00414 0.88392 0.0
C1475 C 0.75962 0.99345 0.87466 0.0
C1476 C 0.76362 0.97211 0.86539 0.0
C1477 C 0.7859 0.96197 0.86527 0.0
C1478 C 0.77434 0.02698 0.89387 0.0
C1479 C 0.74442 0.96011 0.85549 0.0
C1480 C 0.69769 0.00928 0.88652 0.0
C1481 C 0.69186 0.02586 0.87383 0.0
C1482 C 0.71972 0.99863 0.88698 0.0
C1483 C 0.73632 0.00481 0.87449 0.0
C1484 C 0.73063 0.02174 0.86176 0.0
C1485 C 0.70842 0.03203 0.86156 0.0
C1486 C 0.72513 0.98054 0.90069 0.0
C1487 C 0.74797 0.0289 0.8483 0.0
H1488 H 0.81417 0.00205 0.8904 0.0
H1489 H 0.78903 0.94566 0.85816 0.0
H1490 H 0.76888 0.04159 0.88519 0.0
H1491 H 0.76025 0.0245 0.9033 0.0
H1492 H 0.7903 0.03273 0.90066 0.0
H1493 H 0.75028 0.9433 0.84926 0.0
H1494 H 0.72968 0.95587 0.86403 0.0
H1495 H 0.73781 0.97248 0.84557 0.0
H1496 H 0.68481 0.00419 0.89588 0.0
H1497 H 0.70402 0.045 0.85182 0.0
H1498 H 0.74051 0.9864 0.90808 0.0
H1499 H 0.72949 0.96301 0.89485 0.0
H1500 H 0.71038 0.97793 0.90958 0.0
H1501 H 0.76387 0.03617 0.85435 0.0
H1502 H 0.74092 0.04259 0.83945 0.0
H1503 H 0.75322 0.01293 0.84083 0.0
C1504 C 0.20366 0.97922 0.6069 0.0
C1505 C 0.19166 0.97263 0.62166 0.0
C1506 C 0.22617 0.98868 0.6078 0.0
C1507 C 0.23682 0.99173 0.62385 0.0
C1508 C 0.22489 0.98484 0.63879 0.0
C1509 C 0.20244 0.97528 0.6375 0.0
C1510 C 0.23847 0.99558 0.59159 0.0
C1511 C 0.23567 0.98795 0.65612 0.0
C1512 C 0.30233 0.99754 0.62518 0.0
C1513 C 0.30521 0.02247 0.62619 0.0
C1514 C 0.28016 0.98728 0.62455 0.0
C1515 C 0.2604 0.00231 0.625 0.0
C1516 C 0.26317 0.02747 0.62621 0.0
C1517 C 0.28558 0.03727 0.62674 0.0
C1518 C 0.27788 0.96038 0.62312 0.0
C1519 C 0.24246 0.04404 0.62683 0.0
H1520 H 0.19542 0.97695 0.59463 0.0
H1521 H 0.19308 0.97046 0.64894 0.0
H1522 H 0.24249 0.01502 0.59171 0.0
H1523 H 0.25521 0.98586 0.59062 0.0
H1524 H 0.22795 0.99156 0.58011 0.0
H1525 H 0.22422 0.98135 0.66646 0.0
H1526 H 0.25241 0.97818 0.65677 0.0
H1527 H 0.23947 0.00718 0.6584 0.0
H1528 H 0.31748 0.98606 0.62448 0.0
H1529 H 0.28776 0.05653 0.62766 0.0
H1530 H 0.26878 0.95569 0.61116 0.0
H1531 H 0.26725 0.95335 0.63376 0.0
H1532 H 0.29499 0.9512 0.62327 0.0
H1533 H 0.23205 0.04208 0.61505 0.0
H1534 H 0.24758 0.06314 0.62819 0.0
H1535 H 0.23105 0.03913 0.63763 0.0
C1536 C 0.78983 0.472 0.13709 0.0
C1537 C 0.80392 0.4729 0.12258 0.0
C1538 C 0.7677 0.48251 0.13717 0.0
C1539 C 0.75943 0.49406 0.12236 0.0
C1540 C 0.77355 0.49507 0.10768 0.0
C1541 C 0.79565 0.48456 0.10799 0.0
C1542 C 0.75311 0.48111 0.15307 0.0
C1543 C 0.76529 0.50718 0.09162 0.0
C1544 C 0.6944 0.50053 0.11663 0.0
C1545 C 0.6908 0.52465 0.12097 0.0
C1546 C 0.71664 0.49038 0.11702 0.0
C1547 C 0.73576 0.50461 0.12205 0.0
C1548 C 0.73228 0.5289 0.12659 0.0
C1549 C 0.70984 0.53866 0.12595 0.0
C1550 C 0.71968 0.46442 0.11204 0.0
C1551 C 0.75228 0.54458 0.13208 0.0
H1552 H 0.79599 0.46282 0.14835 0.0
H1553 H 0.8066 0.48574 0.09683 0.0
H1554 H 0.7481 0.4994 0.15722 0.0
H1555 H 0.73685 0.47115 0.15042 0.0
H1556 H 0.76235 0.47208 0.16368 0.0
H1557 H 0.77846 0.50652 0.08133 0.0
H1558 H 0.74918 0.49843 0.08703 0.0
H1559 H 0.76102 0.52621 0.09425 0.0
H1560 H 0.67974 0.48942 0.11311 0.0
H1561 H 0.70724 0.55735 0.12917 0.0
H1562 H 0.72728 0.45418 0.12276 0.0
H1563 H 0.73194 0.46303 0.10122 0.0
H1564 H 0.70302 0.45586 0.10834 0.0
H1565 H 0.76117 0.53646 0.14318 0.0
H1566 H 0.74659 0.56297 0.13553 0.0
H1567 H 0.76523 0.54586 0.1217 0.0
C1568 C 0.30113 0.50312 0.38332 0.0
C1569 C 0.30688 0.52232 0.37256 0.0
C1570 C 0.27864 0.49357 0.38361 0.0
C1571 C 0.26157 0.503 0.37257 0.0
C1572 C 0.26722 0.52216 0.36155 0.0
C1573 C 0.28972 0.53176 0.36181 0.0
C1574 C 0.27315 0.47337 0.39574 0.0
C1575 C 0.24952 0.53246 0.34943 0.0
C1576 C 0.20964 0.46348 0.36273 0.0
C1577 C 0.19241 0.47358 0.37311 0.0
C1578 C 0.23214 0.47307 0.36226 0.0
C1579 C 0.23772 0.49291 0.37268 0.0
C1580 C 0.22056 0.50304 0.38332 0.0
C1581 C 0.19808 0.49345 0.38326 0.0
C1582 C 0.24994 0.46201 0.35056 0.0
C1583 C 0.22596 0.52399 0.39481 0.0
H1584 H 0.3143 0.49527 0.39141 0.0
H1585 H 0.29381 0.54679 0.35363 0.0
H1586 H 0.25844 0.47852 0.40407 0.0
H1587 H 0.26771 0.45724 0.38855 0.0
H1588 H 0.28821 0.46855 0.40386 0.0
H1589 H 0.2569 0.54683 0.34129 0.0
H1590 H 0.24258 0.51808 0.34112 0.0
H1591 H 0.23466 0.53996 0.35663 0.0
H1592 H 0.20561 0.44794 0.35503 0.0
H1593 H 0.18485 0.5018 0.39103 0.0
H1594 H 0.26473 0.45497 0.35808 0.0
H1595 H 0.25696 0.47585 0.34184 0.0
H1596 H 0.24262 0.44714 0.34286 0.0
H1597 H 0.24058 0.51938 0.40337 0.0
H1598 H 0.21082 0.52934 0.40268 0.0
H1599 H 0.23147 0.53964 0.38712 0.0
C1600 C 0.20775 0.53416 0.87882 0.0
C1601 C 0.18941 0.52274 0.87033 0.0
C1602 C 0.22994 0.52382 0.87939 0.0
C1603 C 0.23397 0.50174 0.87105 0.0
C1604 C 0.21561 0.49016 0.86242 0.0
C1605 C 0.19353 0.50067 0.8623 0.0
C1606 C 0.24909 0.53656 0.88888 0.0
C1607 C 0.21932 0.46671 0.85322 0.0
C1608 C 0.29585 0.48694 0.85854 0.0
C1609 C 0.30228 0.47036 0.87111 0.0
C1610 C 0.27361 0.4971 0.85829 0.0
C1611 C 0.2575 0.4909 0.87111 0.0
C1612 C 0.26382 0.47428 0.88387 0.0
C1613 C 0.28607 0.46405 0.88364 0.0
C1614 C 0.26739 0.51456 0.84435 0.0
C1615 C 0.24712 0.46741 0.89783 0.0
H1616 H 0.20484 0.55132 0.8849 0.0
H1617 H 0.1794 0.4914 0.85604 0.0
H1618 H 0.25657 0.5245 0.89865 0.0
H1619 H 0.26329 0.54133 0.87999 0.0
H1620 H 0.24291 0.55318 0.89519 0.0
H1621 H 0.20327 0.46017 0.84693 0.0
H1622 H 0.23304 0.46884 0.84345 0.0
H1623 H 0.22538 0.45281 0.86227 0.0
H1624 H 0.30835 0.49237 0.84901 0.0
H1625 H 0.29072 0.45104 0.89327 0.0
H1626 H 0.26306 0.53227 0.84991 0.0
H1627 H 0.25179 0.50818 0.83744 0.0
H1628 H 0.28172 0.51699 0.83507 0.0
H1629 H 0.24152 0.48366 0.90483 0.0
H1630 H 0.25489 0.45458 0.907 0.0
H1631 H 0.23133 0.45916 0.89228 0.0
C1632 C 0.69623 0.49286 0.63748 0.0
C1633 C 0.69209 0.47121 0.62891 0.0
C1634 C 0.71833 0.50334 0.63761 0.0
C1635 C 0.73668 0.49214 0.62871 0.0
C1636 C 0.73272 0.47025 0.62011 0.0
C1637 C 0.71052 0.45995 0.62042 0.0
C1638 C 0.72197 0.52657 0.6471 0.0
C1639 C 0.75187 0.45789 0.61038 0.0
C1640 C 0.78735 0.53119 0.61524 0.0
C1641 C 0.80414 0.5253 0.62745 0.0
C1642 C 0.76537 0.52038 0.61542 0.0
C1643 C 0.75995 0.50352 0.62825 0.0
C1644 C 0.7767 0.49764 0.64071 0.0
C1645 C 0.79863 0.50846 0.64008 0.0
C1646 C 0.74796 0.52696 0.60186 0.0
C1647 C 0.77146 0.47989 0.65467 0.0
H1648 H 0.68206 0.50199 0.6438 0.0
H1649 H 0.70758 0.44308 0.61396 0.0
H1650 H 0.73631 0.52456 0.65639 0.0
H1651 H 0.72708 0.54091 0.63809 0.0
H1652 H 0.70613 0.53244 0.65398 0.0
H1653 H 0.74595 0.44095 0.60437 0.0
H1654 H 0.75857 0.46997 0.60032 0.0
H1655 H 0.76658 0.45377 0.61899 0.0
H1656 H 0.79134 0.54437 0.60556 0.0
H1657 H 0.81162 0.5034 0.64937 0.0
H1658 H 0.73224 0.53481 0.60778 0.0
H1659 H 0.74243 0.51064 0.5949 0.0
H1660 H 0.75506 0.54004 0.59257 0.0
H1661 H 0.75605 0.48587 0.66199 0.0
H1662 H 0.78624 0.47765 0.66359 0.0
H1663 H 0.7672 0.46216 0.64911 0.0
C1664 C 0.98415 0.99532 0.28323 0.0
C1665 C 0.96683 0.01285 0.28478 0.0
C1666 C 0.9938 0.98989 0.26731 0.0
C1667 C 0.98601 0.00243 0.25276 0.0
C1668 C 0.96735 0.01881 0.25413 0.0
C1669 C 0.95792 0.02372 0.27012 0.0
C1670 C 0.01339 0.972 0.26627 0.0
C1671 C 0.95846 0.03253 0.23891 0.0
C1672 C 0.02758 0.01997 0.21791 0.0
C1673 C 0.01996 0.00568 0.20437 0.0
C1674 C 0.01749 0.01805 0.234 0.0
C1675 C -0.00066 0.00138 0.23665 0.0
C1676 C 0.99244 0.98592 0.22333 0.0
C1677 C 0.00275 0.98838 0.20725 0.0
C1678 C 0.02527 0.035 0.24784 0.0
C1679 C 0.97345 0.96764 0.2258 0.0
H1680 H 0.99105 0.98683 0.29453 0.0
H1681 H 0.94412 0.03684 0.27125 0.0
H1682 H 0.01128 0.96018 0.25505 0.0
H1683 H 0.03008 0.98169 0.2648 0.0
H1684 H 0.01446 0.9607 0.27787 0.0
H1685 H 0.94244 0.04281 0.24184 0.0
H1686 H 0.97197 0.0453 0.23455 0.0
H1687 H 0.95477 0.02014 0.22824 0.0
H1688 H 0.04062 0.03362 0.21572 0.0
H1689 H 0.997 0.97713 0.19685 0.0
H1690 H 0.02945 0.02491 0.25959 0.0
H1691 H 0.01098 0.04761 0.25093 0.0
H1692 H 0.04075 0.04562 0.24409 0.0
H1693 H 0.97588 0.95784 0.23794 0.0
H1694 H 0.97283 0.95447 0.21523 0.0
H1695 H 0.95643 0.97689 0.22647 0.0
C1696 C 0.47628 0.01408 0.21084 0.0
C1697 C 0.48574 0.9948 0.20172 0.0
C1698 C 0.48245 0.01812 0.22786 0.0
C1699 C 0.49827 0.00237 0.23587 0.0
C1700 C 0.50896 0.98385 0.22639 0.0
C1701 C 0.50254 0.98029 0.20946 0.0
C1702 C 0.47098 0.03827 0.23748 0.0
C1703 C 0.52597 0.96664 0.23446 0.0
C1704 C 0.52728 0.00941 0.27861 0.0
C1705 C 0.51464 0.99272 0.28814 0.0
C1706 C 0.52092 0.01462 0.26179 0.0
C1707 C 0.50154 0.00281 0.25455 0.0
C1708 C 0.48747 0.98781 0.26476 0.0
C1709 C 0.49426 0.98289 0.28145 0.0
C1710 C 0.5361 0.03102 0.25137 0.0
C1711 C 0.46648 0.9751 0.25762 0.0
H1712 H 0.46353 0.02559 0.20483 0.0
H1713 H 0.50972 0.96516 0.20261 0.0
H1714 H 0.45717 0.03084 0.24576 0.0
H1715 H 0.48366 0.04758 0.24579 0.0
H1716 H 0.46295 0.05159 0.22879 0.0
H1717 H 0.53425 0.95463 0.22498 0.0
H1718 H 0.5398 0.97662 0.24124 0.0
H1719 H 0.51683 0.95538 0.24396 0.0
H1720 H 0.54304 0.01703 0.28385 0.0
H1721 H 0.48435 0.97024 0.28899 0.0
H1722 H 0.52547 0.04266 0.24301 0.0
H1723 H 0.54756 0.02008 0.24312 0.0
H1724 H 0.54722 0.0425 0.25954 0.0
H1725 H 0.45543 0.98776 0.25038 0.0
H1726 H 0.45581 0.96664 0.26772 0.0
H1727 H 0.47224 0.96088 0.24871 0.0
C1728 C 0.02146 0.96464 0.7158 0.0
C1729 C 0.01683 0.98099 0.70272 0.0
C1730 C 0.01376 0.96887 0.73238 0.0
C1731 C 0.00122 0.99008 0.736 0.0
C1732 C 0.99737 0.0072 0.72304 0.0
C1733 C 0.00524 0.00244 0.70649 0.0
C1734 C 0.01835 0.95019 0.74587 0.0
C1735 C 0.9842 0.03007 0.72649 0.0
C1736 C 0.96058 0.98145 0.77307 0.0
C1737 C 0.97398 0.99004 0.78663 0.0
C1738 C 0.96862 0.98286 0.75632 0.0
C1739 C 0.99066 0.99305 0.75306 0.0
C1740 C 0.00364 0.00314 0.76653 0.0
C1741 C 0.99516 0.00146 0.78321 0.0
C1742 C 0.95425 0.97185 0.7423 0.0
C1743 C 0.02709 0.01439 0.7635 0.0
H1744 H 0.03093 0.94831 0.71302 0.0
H1745 H 0.00166 0.01513 0.6964 0.0
H1746 H 0.02701 0.95849 0.75699 0.0
H1747 H 0.00166 0.94256 0.75035 0.0
H1748 H 0.02941 0.9353 0.74115 0.0
H1749 H 0.98503 0.04273 0.71562 0.0
H1750 H 0.96573 0.02581 0.72905 0.0
H1751 H 0.99117 0.03911 0.73796 0.0
H1752 H 0.94434 0.97231 0.77559 0.0
H1753 H 0.00543 0.00845 0.79362 0.0
H1754 H 0.96288 0.95532 0.73767 0.0
H1755 H 0.95284 0.98434 0.73139 0.0
H1756 H 0.93648 0.96711 0.74663 0.0
H1757 H 0.03994 0.00015 0.76061 0.0
H1758 H 0.03329 0.02458 0.77474 0.0
H1759 H 0.02649 0.02662 0.7524 0.0
C1760 C 0.50645 0.03215 0.70765 0.0
C1761 C 0.48928 0.0181 0.69992 0.0
C1762 C 0.51279 0.02841 0.72459 0.0
C1763 C 0.50198 0.00985 0.73395 0.0
C1764 C 0.48612 0.99426 0.72582 0.0
C1765 C 0.47979 0.99869 0.70889 0.0
C1766 C 0.52983 0.04543 0.73278 0.0
C1767 C 0.47471 0.9739 0.73528 0.0
C1768 C 0.52996 0.00064 0.77695 0.0
C1769 C 0.51645 0.01593 0.78708 0.0
C1770 C 0.52444 0.99688 0.7598 0.0
C1771 C 0.50521 0.00899 0.75263 0.0
C1772 C 0.49059 0.02303 0.7631 0.0
C1773 C 0.49628 0.02614 0.78024 0.0
C1774 C 0.54004 0.98124 0.74912 0.0
C1775 C 0.46987 0.03622 0.75597 0.0
H1776 H 0.51428 0.04678 0.70062 0.0
H1777 H 0.46649 0.98774 0.70301 0.0
H1778 H 0.52078 0.0563 0.74255 0.0
H1779 H 0.54381 0.03531 0.73928 0.0
H1780 H 0.53789 0.05782 0.72344 0.0
H1781 H 0.46658 0.9608 0.72647 0.0
H1782 H 0.48748 0.96437 0.74339 0.0
H1783 H 0.461 0.98113 0.74373 0.0
H1784 H 0.54558 0.99266 0.78214 0.0
H1785 H 0.48542 0.03742 0.78813 0.0
H1786 H 0.5514 0.99272 0.74117 0.0
H1787 H 0.52968 0.96981 0.74044 0.0
H1788 H 0.55125 0.96956 0.75708 0.0
H1789 H 0.47588 0.05032 0.74705 0.0
H1790 H 0.45929 0.04486 0.76605 0.0
H1791 H 0.45861 0.02379 0.74871 0.0
C1792 C 0.52372 0.48835 0.21125 0.0
C1793 C 0.5131 0.50611 0.2013 0.0
C1794 C 0.51688 0.48457 0.22815 0.0
C1795 C 0.49912 0.49898 0.2352 0.0
C1796 C 0.48738 0.51586 0.22489 0.0
C1797 C 0.49453 0.51922 0.20807 0.0
C1798 C 0.52958 0.46619 0.23871 0.0
C1799 C 0.46835 0.5316 0.23194 0.0
C1800 C 0.47025 0.48796 0.27774 0.0
C1801 C 0.4816 0.50491 0.28796 0.0
C1802 C 0.47664 0.4847 0.2607 0.0
C1803 C 0.4947 0.49883 0.25376 0.0
C1804 C 0.50704 0.51498 0.26427 0.0
C1805 C 0.50032 0.51783 0.28122 0.0
C1806 C 0.46329 0.46711 0.24991 0.0
C1807 C 0.52641 0.53041 0.25735 0.0
H1808 H 0.53786 0.47792 0.20598 0.0
H1809 H 0.48641 0.53317 0.20055 0.0
H1810 H 0.54121 0.47547 0.24781 0.0
H1811 H 0.51716 0.45532 0.24623 0.0
H1812 H 0.54026 0.45399 0.23076 0.0
H1813 H 0.45945 0.54209 0.22186 0.0
H1814 H 0.45523 0.52062 0.23869 0.0
H1815 H 0.47583 0.54433 0.24129 0.0
H1816 H 0.45596 0.47769 0.28296 0.0
H1817 H 0.50899 0.5312 0.28894 0.0
H1818 H 0.47531 0.45601 0.24222 0.0
H1819 H 0.45197 0.47705 0.24094 0.0
H1820 H 0.45221 0.45508 0.2577 0.0
H1821 H 0.53928 0.51923 0.2505 0.0
H1822 H 0.53554 0.54051 0.2675 0.0
H1823 H 0.51921 0.54346 0.2481 0.0
C1824 C 0.03814 0.48544 0.27516 0.0
C1825 C 0.02533 0.49595 0.28833 0.0
C1826 C 0.0301 0.48605 0.25839 0.0
C1827 C 0.00879 0.49757 0.25471 0.0
C1828 C 0.99687 0.51008 0.26769 0.0
C1829 C 0.00522 0.50899 0.28441 0.0
C1830 C 0.04331 0.47241 0.24494 0.0
C1831 C 0.97438 0.52302 0.26418 0.0
C1832 C 0.99264 0.50082 0.20798 0.0
C1833 C 0.97913 0.48003 0.20622 0.0
C1834 C 0.00167 0.50749 0.22387 0.0
C1835 C 0.99725 0.49287 0.2382 0.0
C1836 C 0.98291 0.4724 0.23658 0.0
C1837 C 0.9739 0.46637 0.22066 0.0
C1838 C 0.0166 0.52964 0.2252 0.0
C1839 C 0.97773 0.45631 0.25156 0.0
H1840 H 0.05359 0.47516 0.27812 0.0
H1841 H 0.99546 0.51743 0.29455 0.0
H1842 H 0.03362 0.45586 0.24161 0.0
H1843 H 0.04498 0.48325 0.2332 0.0
H1844 H 0.06094 0.4672 0.24929 0.0
H1845 H 0.9697 0.53547 0.27464 0.0
H1846 H 0.97546 0.5333 0.25214 0.0
H1847 H 0.96019 0.50972 0.26277 0.0
H1848 H 0.99676 0.51144 0.19686 0.0
H1849 H 0.96294 0.45067 0.21947 0.0
H1850 H 0.03493 0.52432 0.22725 0.0
H1851 H 0.01126 0.54067 0.23625 0.0
H1852 H 0.01567 0.54082 0.21354 0.0
H1853 H 0.9941 0.44841 0.25643 0.0
H1854 H 0.9657 0.44149 0.24823 0.0
H1855 H 0.96991 0.46687 0.26203 0.0
C1856 C 0.51536 0.50251 0.71004 0.0
C1857 C 0.5058 0.48321 0.701 0.0
C1858 C 0.50887 0.50696 0.72694 0.0
C1859 C 0.49283 0.49147 0.73497 0.0
C1860 C 0.48193 0.47307 0.72551 0.0
C1861 C 0.48837 0.46935 0.70859 0.0
C1862 C 0.52032 0.52722 0.73647 0.0
C1863 C 0.46471 0.45613 0.7336 0.0
C1864 C 0.49867 0.47484 0.78119 0.0
C1865 C 0.47855 0.48503 0.78812 0.0
C1866 C 0.50426 0.47799 0.76405 0.0
C1867 C 0.48963 0.49215 0.75365 0.0
C1868 C 0.47046 0.50425 0.76089 0.0
C1869 C 0.46499 0.50037 0.77805 0.0
C1870 C 0.52489 0.46476 0.75682 0.0
C1871 C 0.45488 0.52007 0.75031 0.0
H1872 H 0.52883 0.51335 0.70428 0.0
H1873 H 0.48044 0.45485 0.7015 0.0
H1874 H 0.50757 0.53673 0.7446 0.0
H1875 H 0.53402 0.51989 0.7449 0.0
H1876 H 0.52849 0.54036 0.72771 0.0
H1877 H 0.4566 0.44389 0.72419 0.0
H1878 H 0.47362 0.44512 0.74336 0.0
H1879 H 0.45078 0.46632 0.74009 0.0
H1880 H 0.50959 0.46353 0.78904 0.0
H1881 H 0.44941 0.50834 0.78328 0.0
H1882 H 0.53627 0.47724 0.7497 0.0
H1883 H 0.5188 0.45088 0.74776 0.0
H1884 H 0.53539 0.45584 0.76684 0.0
H1885 H 0.46525 0.53142 0.74157 0.0
H1886 H 0.44387 0.53184 0.75834 0.0
H1887 H 0.44333 0.50872 0.74242 0.0
C1888 C 0.98849 0.51183 0.78713 0.0
C1889 C 0.01156 0.50885 0.79239 0.0
C1890 C 0.98239 0.50996 0.76996 0.0
C1891 C -0.00023 0.50477 0.7578 0.0
C1892 C 0.02267 0.49971 0.76319 0.0
C1893 C 0.02833 0.50193 0.78043 0.0
C1894 C 0.95774 0.5154 0.76471 0.0
C1895 C 0.04161 0.49382 0.75063 0.0
C1896 C 0.98002 0.49361 0.71246 0.0
C1897 C 0.98272 0.51648 0.70533 0.0
C1898 C 0.98612 0.48922 0.72944 0.0
C1899 C 0.99478 0.50825 0.73949 0.0
C1900 C -0.00207 0.53124 0.73223 0.0
C1901 C 0.99193 0.53504 0.71523 0.0
C1902 C 0.98287 0.46442 0.73673 0.0
C1903 C 0.00698 0.55207 0.74256 0.0
H1904 H 0.97536 0.51669 0.79637 0.0
H1905 H 0.04624 0.49973 0.78434 0.0
H1906 H 0.9572 0.53299 0.75813 0.0
H1907 H 0.95129 0.50172 0.75566 0.0
H1908 H 0.94578 0.51614 0.77577 0.0
H1909 H 0.05727 0.48641 0.75697 0.0
H1910 H 0.03539 0.48071 0.74107 0.0
H1911 H 0.0467 0.51034 0.74373 0.0
H1912 H 0.97301 0.47922 0.70477 0.0
H1913 H 0.99366 0.55283 0.70985 0.0
H1914 H 0.96935 0.46486 0.74675 0.0
H1915 H -0.00083 0.45818 0.74278 0.0
H1916 H 0.9776 0.4512 0.72691 0.0
H1917 H 0.99494 0.55584 0.75323 0.0
H1918 H 0.0089 0.56864 0.73487 0.0
H1919 H 0.02409 0.54752 0.74814 0.0
C1920 C 0.00555 0.19063 0.13777 0.0
C1921 C 0.02324 0.18586 0.12602 0.0
C1922 C 0.99438 0.21297 0.13811 0.0
C1923 C 0.00121 0.23102 0.1265 0.0
C1924 C 0.01918 0.22637 0.11469 0.0
C1925 C 0.02991 0.20379 0.11454 0.0
C1926 C 0.97515 0.2172 0.15078 0.0
C1927 C 0.02709 0.24526 0.10224 0.0
C1928 C 0.95959 0.28188 0.11639 0.0
C1929 C 0.96821 0.30032 0.1267 0.0
C1930 C 0.96999 0.25913 0.11634 0.0
C1931 C 0.9896 0.25482 0.12675 0.0
C1932 C -0.0017 0.27333 0.13726 0.0
C1933 C 0.98745 0.29583 0.13715 0.0
C1934 C 0.96008 0.23974 0.1051 0.0
C1935 C 0.01929 0.26947 0.14842 0.0
H1936 H 0.00011 0.17669 0.14649 0.0
H1937 H 0.04371 0.20021 0.10554 0.0
H1938 H 0.97958 0.23259 0.15909 0.0
H1939 H 0.95887 0.22186 0.14402 0.0
H1940 H 0.97187 0.20126 0.1589 0.0
H1941 H 0.04144 0.23885 0.09398 0.0
H1942 H 0.01236 0.25081 0.09406 0.0
H1943 H 0.03306 0.26143 0.10919 0.0
H1944 H 0.94461 0.28525 0.1084 0.0
H1945 H 0.99439 0.31015 0.14495 0.0
H1946 H 0.95538 0.22386 0.11286 0.0
H1947 H 0.97334 0.23386 0.09577 0.0
H1948 H 0.94444 0.24583 0.09807 0.0
H1949 H 0.01615 0.25433 0.15726 0.0
H1950 H 0.02371 0.28565 0.15598 0.0
H1951 H 0.03449 0.26462 0.14048 0.0
C1952 C 0.49567 0.80467 0.11721 0.0
C1953 C 0.47437 0.8087 0.12529 0.0
C1954 C 0.5063 0.78207 0.11776 0.0
C1955 C 0.49505 0.76296 0.12626 0.0
C1956 C 0.4734 0.76692 0.13431 0.0
C1957 C 0.46344 0.78989 0.13391 0.0
C1958 C 0.52961 0.77868 0.10934 0.0
C1959 C 0.46065 0.74686 0.14317 0.0
C1960 C 0.5123 0.69994 0.11323 0.0
C1961 C 0.52653 0.69301 0.12678 0.0
C1962 C 0.50166 0.72255 0.11302 0.0
C1963 C 0.50583 0.73875 0.12652 0.0
C1964 C 0.52046 0.7319 0.14014 0.0
C1965 C 0.53041 0.70894 0.14022 0.0
C1966 C 0.48578 0.729 0.09846 0.0
C1967 C 0.52572 0.74889 0.15456 0.0
H1968 H 0.5042 0.81936 0.11071 0.0
H1969 H 0.44691 0.79308 0.14009 0.0
H1970 H 0.54239 0.77188 0.11873 0.0
H1971 H 0.52825 0.76508 0.09912 0.0
H1972 H 0.53638 0.79558 0.10376 0.0
H1973 H 0.44381 0.75283 0.14858 0.0
H1974 H 0.45733 0.73202 0.1341 0.0
H1975 H 0.47148 0.73949 0.15358 0.0
H1976 H 0.50911 0.68743 0.10295 0.0
H1977 H 0.54148 0.70349 0.15066 0.0
H1978 H 0.49262 0.74491 0.09166 0.0
H1979 H 0.46836 0.73382 0.10339 0.0
H1980 H 0.48385 0.71409 0.08922 0.0
H1981 H 0.53349 0.76563 0.14951 0.0
H1982 H 0.53784 0.74098 0.16399 0.0
H1983 H 0.50943 0.75393 0.16116 0.0
C1984 C 0.49017 0.69394 0.37903 0.0
C1985 C 0.47247 0.68911 0.36732 0.0
C1986 C 0.50075 0.71655 0.37967 0.0
C1987 C 0.49309 0.73485 0.36855 0.0
C1988 C 0.47514 0.73006 0.35672 0.0
C1989 C 0.4652 0.7071 0.35613 0.0
C1990 C 0.52014 0.72084 0.3922 0.0
C1991 C 0.46624 0.74925 0.34488 0.0
C1992 C 0.50396 0.79938 0.38141 0.0
C1993 C 0.52249 0.80579 0.37076 0.0
C1994 C 0.49423 0.77637 0.3808 0.0
C1995 C 0.50354 0.75915 0.36951 0.0
C1996 C 0.52265 0.76522 0.35907 0.0
C1997 C 0.53179 0.78852 0.35973 0.0
C1998 C 0.47376 0.77059 0.39206 0.0
C1999 C 0.53325 0.7472 0.34706 0.0
H2000 H 0.49598 0.67986 0.38752 0.0
H2001 H 0.45145 0.70331 0.34712 0.0
H2002 H 0.53593 0.727 0.38542 0.0
H2003 H 0.51516 0.73523 0.40121 0.0
H2004 H 0.52452 0.70449 0.39959 0.0
H2005 H 0.45214 0.74262 0.33648 0.0
H2006 H 0.45956 0.76464 0.35235 0.0
H2007 H 0.4806 0.75606 0.33683 0.0
H2008 H 0.49696 0.8124 0.39024 0.0
H2009 H 0.5459 0.79335 0.3513 0.0
H2010 H 0.47805 0.75534 0.40053 0.0
H2011 H 0.45874 0.76505 0.38416 0.0
H2012 H 0.46846 0.78609 0.40003 0.0
H2013 H 0.53837 0.7308 0.35411 0.0
H2014 H 0.54875 0.75441 0.34041 0.0
H2015 H 0.52026 0.74175 0.3374 0.0
C2016 C 0.00174 0.30612 0.35643 0.0
C2017 C 0.02479 0.30908 0.3618 0.0
C2018 C 0.99115 0.28349 0.35649 0.0
C2019 C 0.00384 0.26332 0.3622 0.0
C2020 C 0.02718 0.26609 0.36747 0.0
C2021 C 0.03739 0.28893 0.36717 0.0
C2022 C 0.96625 0.28123 0.35072 0.0
C2023 C 0.04125 0.24498 0.37364 0.0
C2024 C 0.96976 0.20976 0.3784 0.0
C2025 C 0.97079 0.19409 0.36449 0.0
C2026 C 0.98053 0.2323 0.37785 0.0
C2027 C 0.9925 0.23941 0.36298 0.0
C2028 C 0.99351 0.22377 0.34886 0.0
C2029 C 0.9827 0.20128 0.3498 0.0
C2030 C 0.97909 0.2485 0.39317 0.0
C2031 C 0.00607 0.23077 0.33278 0.0
H2032 H 0.99173 0.32162 0.35254 0.0
H2033 H 0.05529 0.29101 0.37114 0.0
H2034 H 0.96491 0.26777 0.3404 0.0
H2035 H 0.95532 0.27481 0.36138 0.0
H2036 H 0.95908 0.29851 0.34606 0.0
H2037 H 0.0593 0.25008 0.37704 0.0
H2038 H 0.03284 0.23695 0.38496 0.0
H2039 H 0.04189 0.23091 0.3637 0.0
H2040 H 0.96036 0.20446 0.38972 0.0
H2041 H 0.98392 0.18913 0.3391 0.0
H2042 H 0.97047 0.26559 0.38967 0.0
H2043 H 0.99681 0.25301 0.39767 0.0
H2044 H 0.96933 0.24018 0.40381 0.0
H2045 H -0.00141 0.24757 0.32758 0.0
H2046 H 0.00505 0.21664 0.32287 0.0
H2047 H 0.02461 0.23435 0.3356 0.0
C2048 C 0.02815 0.70902 0.88026 0.0
C2049 C 0.02758 0.69346 0.86629 0.0
C2050 C 0.01848 0.73205 0.87926 0.0
C2051 C 0.00782 0.73959 0.86397 0.0
C2052 C 0.00755 0.72412 0.84972 0.0
C2053 C 0.01754 0.70124 0.85104 0.0
C2054 C 0.01935 0.74815 0.89466 0.0
C2055 C 0.99618 0.73149 0.83325 0.0
C2056 C 0.96246 0.78856 0.86816 0.0
C2057 C 0.97502 0.80895 0.8633 0.0
C2058 C 0.97279 0.76579 0.86807 0.0
C2059 C 0.9963 0.7634 0.86311 0.0
C2060 C 0.00896 0.78386 0.8579 0.0
C2061 C -0.00186 0.8064 0.85801 0.0
C2062 C 0.95866 0.74434 0.87355 0.0
C2063 C 0.03409 0.78204 0.85264 0.0
H2064 H 0.03613 0.70311 0.89201 0.0
H2065 H 0.01684 0.68915 0.84028 0.0
H2066 H 0.02757 0.7655 0.89133 0.0
H2067 H 0.00146 0.7521 0.89905 0.0
H2068 H 0.02915 0.73996 0.90533 0.0
H2069 H -0.00177 0.71771 0.82318 0.0
H2070 H 0.97738 0.7346 0.83537 0.0
H2071 H 0.00371 0.74859 0.82865 0.0
H2072 H 0.94451 0.79044 0.87207 0.0
H2073 H 0.008 0.82216 0.85444 0.0
H2074 H 0.96643 0.73627 0.8851 0.0
H2075 H 0.9589 0.73044 0.86348 0.0
H2076 H 0.94033 0.7491 0.87634 0.0
H2077 H 0.04466 0.77558 0.8635 0.0
H2078 H 0.04121 0.7995 0.8483 0.0
H2079 H 0.03604 0.76877 0.84225 0.0
C2080 C 0.46121 0.28819 0.86975 0.0
C2081 C 0.47484 0.30901 0.86917 0.0
C2082 C 0.47148 0.26538 0.86965 0.0
C2083 C 0.49595 0.26334 0.86887 0.0
C2084 C 0.5098 0.28425 0.86826 0.0
C2085 C 0.49909 0.30682 0.86849 0.0
C2086 C 0.45616 0.24345 0.87034 0.0
C2087 C 0.53595 0.2828 0.86741 0.0
C2088 C 0.52379 0.20534 0.88376 0.0
C2089 C 0.52758 0.19339 0.86835 0.0
C2090 C 0.51355 0.22815 0.88412 0.0
C2091 C 0.50709 0.23931 0.86868 0.0
C2092 C 0.5112 0.22749 0.85306 0.0
C2093 C 0.52134 0.20463 0.85309 0.0
C2094 C 0.50931 0.24014 0.90102 0.0
C2095 C 0.50478 0.23895 0.83633 0.0
H2096 H 0.44247 0.28973 0.87008 0.0
H2097 H 0.50978 0.3228 0.86835 0.0
H2098 H 0.45897 0.23228 0.85887 0.0
H2099 H 0.4608 0.23231 0.88152 0.0
H2100 H 0.43745 0.24811 0.87115 0.0
H2101 H 0.5442 0.30077 0.86677 0.0
H2102 H 0.54273 0.27325 0.87873 0.0
H2103 H 0.5413 0.27235 0.85608 0.0
H2104 H 0.52831 0.19657 0.89559 0.0
H2105 H 0.52446 0.19554 0.84114 0.0
H2106 H 0.49047 0.24348 0.90272 0.0
H2107 H 0.51813 0.25781 0.90139 0.0
H2108 H 0.51561 0.22917 0.91186 0.0
H2109 H 0.48584 0.24251 0.83595 0.0
H2110 H 0.50943 0.22752 0.8253 0.0
H2111 H 0.51371 0.25647 0.835 0.0
C2112 C 0.48993 0.19709 0.60883 0.0
C2113 C 0.46908 0.19266 0.61753 0.0
C2114 C 0.50016 0.21989 0.60884 0.0
C2115 C 0.48969 0.23863 0.61819 0.0
C2116 C 0.46888 0.2343 0.62722 0.0
C2117 C 0.45867 0.21146 0.62662 0.0
C2118 C 0.52215 0.22392 0.5988 0.0
C2119 C 0.45745 0.25378 0.63758 0.0
C2120 C 0.52843 0.29104 0.63014 0.0
C2121 C 0.52171 0.3085 0.61827 0.0
C2122 C 0.51783 0.2684 0.63048 0.0
C2123 C 0.5005 0.26281 0.61838 0.0
C2124 C 0.49379 0.28017 0.60625 0.0
C2125 C 0.50422 0.30288 0.60648 0.0
C2126 C 0.52518 0.25045 0.6438 0.0
C2127 C 0.47566 0.27472 0.59294 0.0
H2128 H 0.49852 0.18266 0.60211 0.0
H2129 H 0.44243 0.20843 0.6332 0.0
H2130 H 0.51959 0.23875 0.58959 0.0
H2131 H 0.53643 0.22932 0.60743 0.0
H2132 H 0.52766 0.20766 0.59172 0.0
H2133 H 0.44178 0.24726 0.64439 0.0
H2134 H 0.4699 0.26098 0.64704 0.0
H2135 H 0.45232 0.26886 0.62921 0.0
H2136 H 0.54213 0.29496 0.63914 0.0
H2137 H 0.49843 0.3163 0.5975 0.0
H2138 H 0.53284 0.23444 0.63761 0.0
H2139 H 0.50984 0.2443 0.65111 0.0
H2140 H 0.53811 0.25798 0.6528 0.0
H2141 H 0.48102 0.25888 0.58538 0.0
H2142 H 0.47278 0.29002 0.58415 0.0
H2143 H 0.45893 0.2702 0.59912 0.0
C2144 C 0.01119 0.80152 0.60663 0.0
C2145 C 0.02459 0.80895 0.62054 0.0
C2146 C 0.00053 0.77892 0.60643 0.0
C2147 C 0.00334 0.76338 0.62048 0.0
C2148 C 0.01678 0.77078 0.63459 0.0
C2149 C 0.02723 0.7935 0.63445 0.0
C2150 C 0.98626 0.77168 0.59118 0.0
C2151 C 0.02022 0.75465 0.64978 0.0
C2152 C 0.95999 0.71283 0.6267 0.0
C2153 C 0.97216 0.69319 0.62004 0.0
C2154 C 0.96989 0.73581 0.62689 0.0
C2155 C 0.99252 0.7392 0.6203 0.0
C2156 C 0.00487 0.71946 0.61354 0.0
C2157 C 0.99454 0.69671 0.61349 0.0
C2158 C 0.95616 0.75647 0.63413 0.0
C2159 C 0.02907 0.72236 0.60646 0.0
H2160 H 0.00874 0.81356 0.59597 0.0
H2161 H 0.03773 0.79907 0.64517 0.0
H2162 H 0.99361 0.75522 0.58539 0.0
H2163 H 0.96826 0.76744 0.59516 0.0
H2164 H 0.98564 0.78595 0.58134 0.0
H2165 H 0.03092 0.76322 0.65982 0.0
H2166 H 0.00316 0.74972 0.6553 0.0
H2167 H 0.02881 0.73777 0.64579 0.0
H2168 H 0.9426 0.71024 0.63163 0.0
H2169 H 0.00419 0.68154 0.60859 0.0
H2170 H 0.9539 0.77059 0.62435 0.0
H2171 H 0.96578 0.76465 0.64487 0.0
H2172 H 0.93876 0.75085 0.63871 0.0
H2173 H 0.02897 0.73565 0.59598 0.0
H2174 H 0.03626 0.70522 0.60157 0.0
H2175 H 0.04084 0.72932 0.61645 0.0
C2176 C 0.96559 0.99803 0.96458 0.0
C2177 C 0.98109 0.98674 0.95345 0.0
C2178 C 0.97264 0.00498 0.98089 0.0
C2179 C 0.9958 0.00075 0.98606 0.0
C2180 C 0.01168 0.98985 0.97472 0.0
C2181 C 0.00407 0.98283 0.95856 0.0
C2182 C 0.95518 0.01631 0.99272 0.0
C2183 C 0.0366 0.98536 0.97973 0.0
C2184 C 0.01949 0.03586 0.02347 0.0
C2185 C 0.01822 0.01883 0.03652 0.0
C2186 C 0.01225 0.03023 0.00695 0.0
C2187 C 0.0033 0.00712 0.00351 0.0
C2188 C 0.00171 0.98995 0.0167 0.0
C2189 C 0.00934 0.99598 0.03305 0.0
C2190 C 0.01446 0.04888 0.99314 0.0
C2191 C 0.99198 0.96521 0.01353 0.0
H2192 H 0.94774 0.0008 0.96068 0.0
H2193 H 0.0161 0.97428 0.94988 0.0
H2194 H 0.9529 0.00487 0.00413 0.0
H2195 H 0.96158 0.03398 -0.00286 0.0
H2196 H 0.93798 0.01885 0.9866 0.0
H2197 H 0.04696 0.97765 0.96916 0.0
H2198 H 0.04486 0.00236 0.98386 0.0
H2199 H 0.03725 0.97283 0.99065 0.0
H2200 H 0.02661 0.05346 0.02613 0.0
H2201 H 0.00818 0.98288 0.04319 0.0
H2202 H 0.99723 0.05247 0.98739 0.0
H2203 H 0.0259 0.04209 0.98289 0.0
H2204 H 0.02169 0.06604 -0.00205 0.0
H2205 H 0.97414 0.9666 0.00832 0.0
H2206 H 0.99143 0.95417 0.02527 0.0
H2207 H 0.0027 0.95576 0.00394 0.0
C2208 C 0.52917 0.02363 0.96915 0.0
C2209 C 0.52016 0.01296 0.95443 0.0
C2210 C 0.52165 0.0165 0.98529 0.0
C2211 C 0.50458 0.9984 0.98673 0.0
C2212 C 0.4955 0.98743 0.97195 0.0
C2213 C 0.50345 0.99481 0.95596 0.0
C2214 C 0.53174 0.02857 0.00079 0.0
C2215 C 0.47725 0.96807 0.97304 0.0
C2216 C 0.49852 0.96624 0.0289 0.0
C2217 C 0.47972 0.97843 0.03617 0.0
C2218 C 0.50679 0.97251 0.01276 0.0
C2219 C 0.49588 0.99131 0.00371 0.0
C2220 C 0.47682 0.0036 0.01096 0.0
C2221 C 0.469 0.99704 0.02715 0.0
C2222 C 0.52729 0.95918 0.00546 0.0
C2223 C 0.46468 0.02364 0.00161 0.0
H2224 H 0.54182 0.03793 0.96805 0.0
H2225 H 0.49666 0.98629 0.94463 0.0
H2226 H 0.51783 0.03799 0.00787 0.0
H2227 H 0.53926 0.01495 0.00947 0.0
H2228 H 0.54547 0.04175 -0.00251 0.0
H2229 H 0.47214 0.9612 0.96034 0.0
H2230 H 0.48376 0.95287 0.98077 0.0
H2231 H 0.46155 0.97514 0.97949 0.0
H2232 H 0.50697 0.95201 0.03595 0.0
H2233 H 0.45428 0.00627 0.03269 0.0
H2234 H 0.54173 0.97186 0.00298 0.0
H2235 H 0.5225 0.95097 0.99311 0.0
H2236 H 0.53365 0.94483 0.01407 0.0
H2237 H 0.47715 0.03828 -0.00116 0.0
H2238 H 0.44995 0.03119 0.00898 0.0
H2239 H 0.45801 0.01702 0.98926 0.0
C2240 C 0.46002 0.02153 0.51981 0.0
C2241 C 0.47119 0.01246 0.53427 0.0
C2242 C 0.46754 0.0153 0.50348 0.0
C2243 C 0.48668 -0.00035 0.5016 0.0
C2244 C 0.49785 0.99018 0.51613 0.0
C2245 C 0.48997 0.99672 0.53232 0.0
C2246 C 0.45524 0.02577 0.48825 0.0
C2247 C 0.51826 0.97334 0.51458 0.0
C2248 C 0.49461 0.96759 0.45958 0.0
C2249 C 0.51184 0.98158 0.45184 0.0
C2250 C 0.48619 0.9733 0.47577 0.0
C2251 C 0.49525 0.99348 0.4844 0.0
C2252 C 0.51255 0.00776 0.47662 0.0
C2253 C 0.52065 0.00163 0.46042 0.0
C2254 C 0.46777 0.95764 0.48371 0.0
C2255 C 0.52253 0.02947 0.48545 0.0
H2256 H 0.44571 0.03398 0.52126 0.0
H2257 H 0.49847 0.98947 0.54347 0.0
H2258 H 0.46754 0.03672 0.48069 0.0
H2259 H 0.44888 0.01118 0.47988 0.0
H2260 H 0.44027 0.03721 0.4919 0.0
H2261 H 0.52473 0.96722 0.52714 0.0
H2262 H 0.51331 0.95739 0.50699 0.0
H2263 H 0.53267 0.98237 0.50777 0.0
H2264 H 0.48801 0.95187 0.45309 0.0
H2265 H 0.5338 0.01261 0.45439 0.0
H2266 H 0.45226 0.96854 0.48686 0.0
H2267 H 0.47434 0.9499 0.49577 0.0
H2268 H 0.46238 0.94275 0.47522 0.0
H2269 H 0.50848 0.04238 0.48846 0.0
H2270 H 0.53582 0.03874 0.47761 0.0
H2271 H 0.5306 0.02407 0.49765 0.0
C2272 C 0.03847 0.98115 0.51856 0.0
C2273 C 0.02499 0.98748 0.5327 0.0
C2274 C 0.03155 0.98743 0.50208 0.0
C2275 C 0.01062 0.00025 0.4997 0.0
C2276 C 0.99712 0.00703 0.51393 0.0
C2277 C 0.00449 0.00058 0.53027 0.0
C2278 C 0.0464 0.97993 0.4872 0.0
C2279 C 0.97472 0.02077 0.51187 0.0
C2280 C -0.00012 0.03363 0.45848 0.0
C2281 C 0.98497 0.01782 0.44994 0.0
C2282 C 0.00873 0.02796 0.47458 0.0
C2283 C 0.00244 0.006 0.48231 0.0
C2284 C 0.98781 0.98975 0.47361 0.0
C2285 C 0.97927 0.99585 0.45751 0.0
C2286 C 0.02435 0.04569 0.48348 0.0
C2287 C 0.98081 0.96611 0.48144 0.0
H2288 H 0.05417 0.97074 0.52033 0.0
H2289 H 0.99419 0.0058 0.54118 0.0
H2290 H 0.03652 0.96746 0.47894 0.0
H2291 H 0.05095 0.99579 0.47937 0.0
H2292 H 0.06268 0.97094 0.49126 0.0
H2293 H 0.96655 0.02518 0.52426 0.0
H2294 H 0.97793 0.0377 0.50485 0.0
H2295 H 0.96224 0.01008 0.50427 0.0
H2296 H 0.00411 0.05077 0.45279 0.0
H2297 H 0.96801 0.98344 0.45086 0.0
H2298 H 0.04084 0.0369 0.48723 0.0
H2299 H 0.01587 0.05209 0.49529 0.0
H2300 H 0.02844 0.06146 0.4754 0.0
H2301 H 0.99647 0.95557 0.48482 0.0
H2302 H 0.96982 0.95521 0.4728 0.0
H2303 H 0.97103 0.96936 0.49335 0.0
C2304 C 0.49333 0.53513 0.03052 0.0
C2305 C 0.51327 0.5241 0.03709 0.0
C2306 C 0.48468 0.52882 0.0145 0.0
C2307 C 0.49632 0.51114 0.00484 0.0
C2308 C 0.51647 0.49996 0.01139 0.0
C2309 C 0.52468 0.50656 0.02747 0.0
C2310 C 0.46305 0.54098 0.00793 0.0
C2311 C 0.52939 0.4811 0.0014 0.0
C2312 C 0.46397 0.47782 0.97026 0.0
C2313 C 0.47192 0.48948 0.95559 0.0
C2314 C 0.47147 0.48497 0.9864 0.0
C2315 C 0.48739 0.50415 0.98789 0.0
C2316 C 0.49528 0.5162 0.97316 0.0
C2317 C 0.48742 0.50873 0.95717 0.0
C2318 C 0.46269 0.47171 0.00184 0.0
C2319 C 0.51225 0.53676 0.9743 0.0
H2320 H 0.48435 0.54852 0.03802 0.0
H2321 H 0.54029 0.49824 0.03242 0.0
H2322 H 0.46678 0.55003 0.99569 0.0
H2323 H 0.44937 0.52742 0.00547 0.0
H2324 H 0.45614 0.55447 0.01699 0.0
H2325 H 0.5448 0.47418 0.00832 0.0
H2326 H 0.5177 0.46584 -0.00147 0.0
H2327 H 0.53521 0.48865 0.98908 0.0
H2328 H 0.45225 0.46271 0.9691 0.0
H2329 H 0.49337 0.51799 0.94588 0.0
H2330 H 0.45476 0.48448 0.01095 0.0
H2331 H 0.47741 0.46289 0.00844 0.0
H2332 H 0.44963 0.45783 -0.00146 0.0
H2333 H 0.50512 0.5511 0.98254 0.0
H2334 H 0.51629 0.54456 0.96165 0.0
H2335 H 0.52867 0.53053 0.98019 0.0
C2336 C 0.99784 0.46445 0.03174 0.0
C2337 C 0.98542 0.48047 0.04199 0.0
C2338 C 0.0062 0.47154 0.01579 0.0
C2339 C 0.00221 0.49525 0.0101 0.0
C2340 C 0.99025 0.51169 0.02063 0.0
C2341 C 0.98187 0.50404 0.03644 0.0
C2342 C 0.01868 0.45346 0.00482 0.0
C2343 C 0.98594 0.53722 0.01507 0.0
C2344 C 0.03861 0.51962 0.97387 0.0
C2345 C 0.0232 0.51759 0.96018 0.0
C2346 C 0.03205 0.51236 0.99023 0.0
C2347 C 0.00966 0.50261 0.99285 0.0
C2348 C 0.99417 0.50019 0.979 0.0
C2349 C 0.00109 0.50785 0.96283 0.0
C2350 C 0.04891 0.51546 0.00475 0.0
C2351 C 0.97025 0.48959 0.98128 0.0
H2352 H 0.00038 0.44614 0.03597 0.0
H2353 H 0.97245 0.51648 0.04446 0.0
H2354 H 0.00862 0.45032 0.99301 0.0
H2355 H 0.03591 0.46048 0.00101 0.0
H2356 H 0.02116 0.43602 0.01139 0.0
H2357 H 0.97748 0.54808 0.02515 0.0
H2358 H 0.00256 0.54592 0.01152 0.0
H2359 H 0.97467 0.53737 0.00365 0.0
H2360 H 0.05564 0.52737 0.97183 0.0
H2361 H 0.98927 0.50605 0.9522 0.0
H2362 H 0.0522 0.49794 0.01096 0.0
H2363 H 0.04131 0.5275 0.01448 0.0
H2364 H 0.06576 0.52308 0.00053 0.0
H2365 H 0.9716 0.47138 0.98686 0.0
H2366 H 0.96057 0.48836 0.96911 0.0
H2367 H 0.96005 0.50072 0.99025 0.0
C2368 C 0.95726 0.50231 0.52671 0.0
C2369 C 0.97369 0.51023 0.53857 0.0
C2370 C 0.96413 0.49457 0.51053 0.0
C2371 C 0.98798 0.4946 0.50624 0.0
C2372 C 0.00467 0.502 0.51834 0.0
C2373 C 0.9973 0.50983 0.53435 0.0
C2374 C 0.94585 0.48697 0.49789 0.0
C2375 C 0.03029 0.50203 0.51426 0.0
C2376 C 0.00929 0.45778 0.46889 0.0
C2377 C 0.01212 0.47548 0.45643 0.0
C2378 C 0.0011 0.46367 0.48513 0.0
C2379 C 0.9955 0.48779 0.48889 0.0
C2380 C 0.99783 0.50563 0.47623 0.0
C2381 C 0.0062 0.49926 0.46015 0.0
C2382 C -0.00103 0.44421 0.49838 0.0
C2383 C 0.9918 0.53151 0.47974 0.0
H2384 H 0.93897 0.50283 0.52991 0.0
H2385 H 0.01002 0.5157 0.54361 0.0
H2386 H 0.94608 0.49924 0.4868 0.0
H2387 H 0.94966 0.4687 0.49309 0.0
H2388 H 0.92814 0.48706 0.50346 0.0
H2389 H 0.04107 0.50729 0.52535 0.0
H2390 H 0.0358 0.48398 0.50996 0.0
H2391 H 0.0338 0.5147 0.50371 0.0
H2392 H 0.01408 0.43941 0.46608 0.0
H2393 H 0.0081 0.51291 0.45044 0.0
H2394 H 0.98108 0.44382 0.50357 0.0
H2395 H 0.01086 0.44806 0.50912 0.0
H2396 H 0.00319 0.4262 0.49321 0.0
H2397 H 0.97367 0.5329 0.48438 0.0
H2398 H 0.99371 0.543 0.4683 0.0
H2399 H 0.00324 0.53865 0.48988 0.0
C2400 C 0.54227 0.48292 0.52146 0.0
C2401 C 0.53162 0.49322 0.53571 0.0
C2402 C 0.53536 0.48924 0.505 0.0
C2403 C 0.51742 0.50627 0.50278 0.0
C2404 C 0.50711 0.51728 0.51711 0.0
C2405 C 0.51432 0.51058 0.53343 0.0
C2406 C 0.54668 0.47708 0.49 0.0
C2407 C 0.48805 0.53567 0.5152 0.0
C2408 C 0.50927 0.53559 0.45975 0.0
C2409 C 0.49072 0.52229 0.4531 0.0
C2410 C 0.5183 0.53049 0.47589 0.0
C2411 C 0.50855 0.51161 0.48553 0.0
C2412 C 0.49002 0.49793 0.4788 0.0
C2413 C 0.48131 0.50347 0.46267 0.0
C2414 C 0.53811 0.54539 0.48267 0.0
C2415 C 0.47919 0.47765 0.48874 0.0
H2416 H 0.55546 0.46928 0.52319 0.0
H2417 H 0.50628 0.51877 0.54444 0.0
H2418 H 0.53368 0.46596 0.48322 0.0
H2419 H 0.55318 0.49064 0.48087 0.0
H2420 H 0.56137 0.46538 0.49386 0.0
H2421 H 0.48275 0.54349 0.52758 0.0
H2422 H 0.4938 0.55038 0.50671 0.0
H2423 H 0.47263 0.52725 0.50923 0.0
H2424 H 0.51679 0.54997 0.4523 0.0
H2425 H 0.46675 0.49337 0.45768 0.0
H2426 H 0.55308 0.53368 0.48579 0.0
H2427 H 0.53277 0.55441 0.4946 0.0
H2428 H 0.54391 0.55925 0.47348 0.0
H2429 H 0.49264 0.4643 0.49223 0.0
H2430 H 0.46528 0.4684 0.4815 0.0
H2431 H 0.47169 0.48464 0.50073 0.0
loop_
_geom_bond_atom_site_label_1
_geom_bond_atom_site_label_2
_geom_bond_distance
_geom_bond_site_symmetry_2
_ccdc_geom_bond_type
Li0 N17 1.990 . S
Li0 O60 1.956 . S
Li0 O61 1.970 . S
Li0 O62 1.961 . S
Li1 N25 1.990 . S
Li1 O60 1.970 . S
Li1 O61 1.956 . S
Li1 O63 1.961 . S
Li2 N47 1.990 . S
Li2 O60 1.961 . S
Li2 O62 1.956 . S
Li2 O63 1.970 . S
Li3 N53 1.990 . S
Li3 O61 1.961 . S
Li3 O62 1.970 . S
Li3 O63 1.956 . S
C4 C6 1.366 . S
C4 C7 1.380 . S
C4 O60 1.286 1_565 S
N5 C8 1.314 . S
N5 C9 1.279 . S
C6 C4 1.366 . S
C6 C8 1.353 . S
C6 H64 0.929 . S
C7 C4 1.380 . S
C7 C9 1.358 . S
C7 H65 0.930 . S
C8 N5 1.314 . S
C8 C6 1.353 . S
C8 H66 0.930 . S
C9 N5 1.279 . S
C9 C7 1.358 . S
C9 H67 0.930 . S
C10 C13 1.348 . S
C10 C14 1.356 . S
C10 O61 1.325 . S
C11 N12 1.279 . S
C11 C14 1.358 . S
C11 H68 0.930 . S
N12 C11 1.279 . S
N12 C15 1.314 . S
C13 C10 1.348 . S
C13 C15 1.353 . S
C13 H69 0.929 . S
C14 C10 1.356 . S
C14 C11 1.358 . S
C14 H70 0.930 . S
C15 N12 1.314 . S
C15 C13 1.353 . S
C15 H71 0.930 . S
C16 N17 1.314 . S
C16 C21 1.353 . S
C16 H22 0.930 . S
N17 Li0 1.990 . S
N17 C16 1.314 . S
N17 C19 1.255 1_545 S
C18 C19 1.371 . S
C18 C20 1.372 . S
C18 H72 0.930 . S
C19 N17 1.255 1_565 S
C19 C18 1.371 . S
C19 H23 0.944 . S
C20 C18 1.372 . S
C20 C21 1.318 1_565 S
C21 C16 1.353 . S
C21 C20 1.318 1_545 S
C21 H73 0.929 1_455 S
H22 C16 0.930 . S
H23 C19 0.944 . S
C24 N25 1.314 . S
C24 C26 1.353 . S
C24 H30 0.930 . S
N25 Li1 1.990 . S
N25 C24 1.314 . S
N25 C28 1.279 . S
C26 C24 1.353 . S
C26 C29 1.348 . S
C26 H74 0.929 . S
C27 C28 1.358 . S
C27 C29 1.356 . S
C27 H75 0.930 . S
C28 N25 1.279 . S
C28 C27 1.358 . S
C28 H31 0.930 . S
C29 C26 1.348 . S
C29 C27 1.356 . S
H30 C24 0.930 . S
H31 C28 0.930 . S
C32 C34 1.348 1_455 S
C32 C35 1.356 1_455 S
C32 O62 1.325 . S
N33 C36 1.314 . S
N33 C37 1.279 . S
C34 C32 1.348 1_655 S
C34 C36 1.353 . S
C34 H76 0.929 1_655 S
C35 C32 1.356 1_655 S
C35 C37 1.358 . S
C35 H77 0.930 . S
C36 N33 1.314 . S
C36 C34 1.353 . S
C36 H78 0.930 . S
C37 N33 1.279 . S
C37 C35 1.358 . S
C37 H79 0.930 . S
C38 C39 1.348 . S
C38 C40 1.356 . S
C38 O63 1.325 . S
C39 C38 1.348 . S
C39 C41 1.353 . S
C39 H80 0.929 . S
C40 C38 1.356 . S
C40 C42 1.358 . S
C40 H81 0.930 . S
C41 C39 1.353 . S
C41 N43 1.314 . S
C41 H82 0.930 . S
C42 C40 1.358 . S
C42 N43 1.279 . S
C42 H83 0.930 . S
N43 C41 1.314 . S
N43 C42 1.279 . S
C44 C46 1.353 . S
C44 N47 1.314 . S
C44 H50 0.930 . S
C45 N47 1.279 . S
C45 C48 1.368 . S
C45 H51 0.930 . S
C46 C44 1.353 . S
C46 C49 1.348 . S
C46 H84 0.929 1_545 S
N47 Li2 1.990 . S
N47 C44 1.314 . S
N47 C45 1.279 . S
C48 C45 1.368 . S
C48 C49 1.367 . S
C48 H85 0.910 1_455 S
C49 C46 1.348 . S
C49 C48 1.367 . S
H50 C44 0.930 . S
H51 C45 0.930 . S
C52 N53 1.314 . S
C52 C54 1.353 . S
C52 H58 0.930 . S
N53 Li3 1.990 . S
N53 C52 1.314 . S
N53 C56 1.279 . S
C54 C52 1.353 . S
C54 C57 1.348 . S
C54 H86 0.929 . S
C55 C56 1.358 . S
C55 C57 1.356 . S
C55 H87 0.930 . S
C56 N53 1.279 . S
C56 C55 1.358 . S
C56 H59 0.930 . S
C57 C54 1.348 . S
C57 C55 1.356 . S
H58 C52 0.930 . S
H59 C56 0.930 . S
O60 Li0 1.956 . S
O60 Li1 1.970 . S
O60 Li2 1.961 . S
O60 C4 1.286 1_545 S
O61 Li0 1.970 . S
O61 Li1 1.956 . S
O61 Li3 1.961 . S
O61 C10 1.325 . S
O62 Li0 1.961 . S
O62 Li2 1.956 . S
O62 Li3 1.970 . S
O62 C32 1.325 . S
O63 Li1 1.961 . S
O63 Li2 1.970 . S
O63 Li3 1.956 . S
O63 C38 1.325 . S
H64 C6 0.929 . S
H65 C7 0.930 . S
H66 C8 0.930 . S
H67 C9 0.930 . S
H68 C11 0.930 . S
H69 C13 0.929 . S
H70 C14 0.930 . S
H71 C15 0.930 . S
H72 C18 0.930 . S
H73 C21 0.929 1_655 S
H74 C26 0.929 . S
H75 C27 0.930 . S
H76 C34 0.929 1_455 S
H77 C35 0.930 . S
H78 C36 0.930 . S
H79 C37 0.930 . S
H80 C39 0.929 . S
H81 C40 0.930 . S
H82 C41 0.930 . S
H83 C42 0.930 . S
H84 C46 0.929 1_565 S
H85 C48 0.910 1_655 S
H86 C54 0.929 . S
H87 C55 0.930 . S
Li88 N105 1.990 . S
Li88 O148 1.956 . S
Li88 O149 1.970 . S
Li88 O150 1.961 . S
Li89 N113 1.990 . S
Li89 O148 1.970 . S
Li89 O149 1.956 . S
Li89 O151 1.961 . S
Li90 N135 1.990 . S
Li90 O148 1.961 . S
Li90 O150 1.956 . S
Li90 O151 1.970 . S
Li91 N141 1.990 . S
Li91 O149 1.961 . S
Li91 O150 1.970 . S
Li91 O151 1.956 . S
C92 C94 1.348 . S
C92 C95 1.356 . S
C92 O148 1.325 . S
N93 C96 1.314 . S
N93 C97 1.279 . S
C94 C92 1.348 . S
C94 C96 1.353 . S
C94 H152 0.929 . S
C95 C92 1.356 . S
C95 C97 1.358 . S
C95 H153 0.930 . S
C96 N93 1.314 . S
C96 C94 1.353 . S
C96 H154 0.930 . S
C97 N93 1.279 . S
C97 C95 1.358 . S
C97 H155 0.930 . S
C98 C101 1.348 . S
C98 C102 1.356 . S
C98 O149 1.325 . S
C99 N100 1.279 . S
C99 C102 1.358 . S
C99 H156 0.930 . S
N100 C99 1.279 . S
N100 C103 1.314 . S
C101 C98 1.348 . S
C101 C103 1.353 . S
C101 H157 0.929 . S
C102 C98 1.356 . S
C102 C99 1.358 . S
C102 H158 0.930 . S
C103 N100 1.314 . S
C103 C101 1.353 . S
C103 H159 0.930 . S
C104 N105 1.314 . S
C104 C109 1.353 . S
C104 H110 0.930 . S
N105 Li88 1.990 . S
N105 C104 1.314 . S
N105 C107 1.279 . S
C106 C107 1.358 . S
C106 C108 1.356 . S
C106 H160 0.930 . S
C107 N105 1.279 . S
C107 C106 1.358 . S
C107 H111 0.930 . S
C108 C106 1.356 . S
C108 C109 1.348 . S
C109 C104 1.353 . S
C109 C108 1.348 . S
C109 H161 0.929 . S
H110 C104 0.930 . S
H111 C107 0.930 . S
C112 N113 1.314 . S
C112 C114 1.353 . S
C112 H118 0.930 . S
N113 Li89 1.990 . S
N113 C112 1.314 . S
N113 C116 1.279 . S
C114 C112 1.353 . S
C114 C117 1.348 . S
C114 H162 0.929 1_565 S
C115 C116 1.358 . S
C115 C117 1.356 . S
C115 H163 0.930 . S
C116 N113 1.279 . S
C116 C115 1.358 . S
C116 H119 0.930 . S
C117 C114 1.348 . S
C117 C115 1.356 . S
H118 C112 0.930 . S
H119 C116 0.930 . S
C120 C122 1.348 . S
C120 C123 1.356 . S
C120 O150 1.325 . S
N121 C124 1.314 . S
N121 C125 1.279 . S
C122 C120 1.348 . S
C122 C124 1.353 . S
C122 H164 0.929 . S
C123 C120 1.356 . S
C123 C125 1.358 . S
C123 H165 0.930 . S
C124 N121 1.314 . S
C124 C122 1.353 . S
C124 H166 0.930 . S
C125 N121 1.279 . S
C125 C123 1.358 . S
C125 H167 0.930 . S
C126 C127 1.366 . S
C126 C128 1.380 . S
C126 O151 1.286 1_545 S
C127 C126 1.366 . S
C127 C129 1.353 . S
C127 H168 0.929 . S
C128 C126 1.380 . S
C128 C130 1.358 . S
C128 H169 0.930 . S
C129 C127 1.353 . S
C129 N131 1.314 . S
C129 H170 0.930 . S
C130 C128 1.358 . S
C130 N131 1.279 . S
C130 H171 0.930 . S
N131 C129 1.314 . S
N131 C130 1.279 . S
C132 C134 1.353 . S
C132 N135 1.314 . S
C132 H138 0.930 . S
C133 N135 1.279 . S
C133 C136 1.358 . S
C133 H139 0.930 . S
C134 C132 1.353 . S
C134 C137 1.348 . S
C134 H172 0.929 . S
N135 Li90 1.990 . S
N135 C132 1.314 . S
N135 C133 1.279 . S
C136 C133 1.358 . S
C136 C137 1.356 . S
C136 H173 0.930 . S
C137 C134 1.348 . S
C137 C136 1.356 . S
H138 C132 0.930 . S
H139 C133 0.930 . S
C140 N141 1.314 . S
C140 C142 1.353 . S
C140 H146 0.930 . S
N141 Li91 1.990 . S
N141 C140 1.314 . S
N141 C144 1.255 1_565 S
C142 C140 1.353 . S
C142 C145 1.318 1_565 S
C142 H174 0.929 . S
C143 C144 1.371 . S
C143 C145 1.372 . S
C143 H175 0.930 . S
C144 N141 1.255 1_545 S
C144 C143 1.371 . S
C144 H147 0.944 . S
C145 C142 1.318 1_545 S
C145 C143 1.372 . S
H146 C140 0.930 . S
H147 C144 0.944 . S
O148 Li88 1.956 . S
O148 Li89 1.970 . S
O148 Li90 1.961 . S
O148 C92 1.325 . S
O149 Li88 1.970 . S
O149 Li89 1.956 . S
O149 Li91 1.961 . S
O149 C98 1.325 . S
O150 Li88 1.961 . S
O150 Li90 1.956 . S
O150 Li91 1.970 . S
O150 C120 1.325 . S
O151 Li89 1.961 . S
O151 Li90 1.970 . S
O151 Li91 1.956 . S
O151 C126 1.286 1_565 S
H152 C94 0.929 . S
H153 C95 0.930 . S
H154 C96 0.930 . S
H155 C97 0.930 . S
H156 C99 0.930 . S
H157 C101 0.929 . S
H158 C102 0.930 . S
H159 C103 0.930 . S
H160 C106 0.930 . S
H161 C109 0.929 . S
H162 C114 0.929 1_545 S
H163 C115 0.930 . S
H164 C122 0.929 . S
H165 C123 0.930 . S
H166 C124 0.930 . S
H167 C125 0.930 . S
H168 C127 0.929 . S
H169 C128 0.930 . S
H170 C129 0.930 . S
H171 C130 0.930 . S
H172 C134 0.929 . S
H173 C136 0.930 . S
H174 C142 0.929 . S
H175 C143 0.930 . S
Li176 N193 1.990 . S
Li176 O236 1.956 . S
Li176 O237 1.970 . S
Li176 O238 1.961 . S
Li177 N201 1.990 . S
Li177 O236 1.970 . S
Li177 O237 1.956 . S
Li177 O239 1.961 . S
Li178 N223 1.990 . S
Li178 O236 1.961 . S
Li178 O238 1.956 . S
Li178 O239 1.970 . S
Li179 N229 1.990 . S
Li179 O237 1.961 . S
Li179 O238 1.970 . S
Li179 O239 1.956 . S
C180 C182 1.348 . S
C180 C183 1.356 . S
C180 O236 1.325 . S
N181 C184 1.314 . S
N181 C185 1.279 . S
C182 C180 1.348 . S
C182 C184 1.353 . S
C182 H240 0.929 . S
C183 C180 1.356 . S
C183 C185 1.358 . S
C183 H241 0.930 . S
C184 N181 1.314 . S
C184 C182 1.353 . S
C184 H242 0.930 . S
C185 N181 1.279 . S
C185 C183 1.358 . S
C185 H243 0.930 . S
C186 C189 1.366 . S
C186 C190 1.380 . S
C186 O237 1.286 1_545 S
C187 N188 1.279 . S
C187 C190 1.358 . S
C187 H244 0.930 . S
N188 C187 1.279 . S
N188 C191 1.314 . S
C189 C186 1.366 . S
C189 C191 1.353 . S
C189 H245 0.929 . S
C190 C186 1.380 . S
C190 C187 1.358 . S
C190 H246 0.930 . S
C191 N188 1.314 . S
C191 C189 1.353 . S
C191 H247 0.930 . S
C192 N193 1.314 . S
C192 C197 1.353 . S
C192 H198 0.930 . S
N193 Li176 1.990 . S
N193 C192 1.314 . S
N193 C195 1.279 . S
C194 C195 1.358 . S
C194 C196 1.356 . S
C194 H248 0.930 . S
C195 N193 1.279 . S
C195 C194 1.358 . S
C195 H199 0.930 . S
C196 C194 1.356 . S
C196 C197 1.348 . S
C197 C192 1.353 . S
C197 C196 1.348 . S
C197 H249 0.929 . S
H198 C192 0.930 . S
H199 C195 0.930 . S
C200 N201 1.314 . S
C200 C202 1.353 . S
C200 H206 0.930 . S
N201 Li177 1.990 . S
N201 C200 1.314 . S
N201 C204 1.255 1_565 S
C202 C200 1.353 . S
C202 C205 1.318 1_565 S
C202 H250 0.929 . S
C203 C204 1.371 . S
C203 C205 1.372 . S
C203 H251 0.930 . S
C204 N201 1.255 1_545 S
C204 C203 1.371 . S
C204 H207 0.944 . S
C205 C202 1.318 1_545 S
C205 C203 1.372 . S
H206 C200 0.930 . S
H207 C204 0.944 . S
C208 C210 1.348 . S
C208 C211 1.356 . S
C208 O238 1.325 . S
N209 C212 1.314 . S
N209 C213 1.279 . S
C210 C208 1.348 . S
C210 C212 1.353 . S
C210 H252 0.929 . S
C211 C208 1.356 . S
C211 C213 1.358 . S
C211 H253 0.930 . S
C212 N209 1.314 . S
C212 C210 1.353 . S
C212 H254 0.930 . S
C213 N209 1.279 . S
C213 C211 1.358 . S
C213 H255 0.930 . S
C214 C215 1.348 . S
C214 C216 1.356 . S
C214 O239 1.325 . S
C215 C214 1.348 . S
C215 C217 1.353 . S
C215 H256 0.929 . S
C216 C214 1.356 . S
C216 C218 1.358 . S
C216 H257 0.930 . S
C217 C215 1.353 . S
C217 N219 1.314 . S
C217 H258 0.930 . S
C218 C216 1.358 . S
C218 N219 1.279 . S
C218 H259 0.930 . S
N219 C217 1.314 . S
N219 C218 1.279 . S
C220 C222 1.353 . S
C220 N223 1.314 . S
C220 H226 0.930 . S
C221 N223 1.279 . S
C221 C224 1.358 . S
C221 H227 0.930 . S
C222 C220 1.353 . S
C222 C225 1.348 . S
C222 H260 0.929 . S
N223 Li178 1.990 . S
N223 C220 1.314 . S
N223 C221 1.279 . S
C224 C221 1.358 . S
C224 C225 1.356 . S
C224 H261 0.930 . S
C225 C222 1.348 . S
C225 C224 1.356 . S
H226 C220 0.930 . S
H227 C221 0.930 . S
C228 N229 1.314 . S
C228 C230 1.353 . S
C228 H234 0.930 . S
N229 Li179 1.990 . S
N229 C228 1.314 . S
N229 C232 1.279 . S
C230 C228 1.353 . S
C230 C233 1.348 . S
C230 H262 0.929 1_565 S
C231 C232 1.358 . S
C231 C233 1.356 . S
C231 H263 0.930 . S
C232 N229 1.279 . S
C232 C231 1.358 . S
C232 H235 0.930 . S
C233 C230 1.348 . S
C233 C231 1.356 . S
H234 C228 0.930 . S
H235 C232 0.930 . S
O236 Li176 1.956 . S
O236 Li177 1.970 . S
O236 Li178 1.961 . S
O236 C180 1.325 . S
O237 Li176 1.970 . S
O237 Li177 1.956 . S
O237 Li179 1.961 . S
O237 C186 1.286 1_565 S
O238 Li176 1.961 . S
O238 Li178 1.956 . S
O238 Li179 1.970 . S
O238 C208 1.325 . S
O239 Li177 1.961 . S
O239 Li178 1.970 . S
O239 Li179 1.956 . S
O239 C214 1.325 . S
H240 C182 0.929 . S
H241 C183 0.930 . S
H242 C184 0.930 . S
H243 C185 0.930 . S
H244 C187 0.930 . S
H245 C189 0.929 . S
H246 C190 0.930 . S
H247 C191 0.930 . S
H248 C194 0.930 . S
H249 C197 0.929 . S
H250 C202 0.929 . S
H251 C203 0.930 . S
H252 C210 0.929 . S
H253 C211 0.930 . S
H254 C212 0.930 . S
H255 C213 0.930 . S
H256 C215 0.929 . S
H257 C216 0.930 . S
H258 C217 0.930 . S
H259 C218 0.930 . S
H260 C222 0.929 . S
H261 C224 0.930 . S
H262 C230 0.929 1_545 S
H263 C231 0.930 . S
Li264 N281 1.990 . S
Li264 O324 1.956 . S
Li264 O325 1.970 . S
Li264 O326 1.961 . S
Li265 N289 1.990 . S
Li265 O324 1.970 . S
Li265 O325 1.956 . S
Li265 O327 1.961 . S
Li266 N311 1.990 . S
Li266 O324 1.961 . S
Li266 O326 1.956 . S
Li266 O327 1.970 . S
Li267 N317 1.990 . S
Li267 O325 1.961 . S
Li267 O326 1.970 . S
Li267 O327 1.956 . S
C268 C270 1.366 . S
C268 C271 1.380 . S
C268 O324 1.286 1_565 S
N269 C272 1.314 . S
N269 C273 1.279 . S
C270 C268 1.366 . S
C270 C272 1.353 . S
C270 H328 0.929 . S
C271 C268 1.380 . S
C271 C273 1.358 . S
C271 H329 0.930 . S
C272 N269 1.314 . S
C272 C270 1.353 . S
C272 H330 0.930 . S
C273 N269 1.279 . S
C273 C271 1.358 . S
C273 H331 0.930 . S
C274 C277 1.348 . S
C274 C278 1.356 . S
C274 O325 1.325 . S
C275 N276 1.279 . S
C275 C278 1.358 . S
C275 H332 0.930 . S
N276 C275 1.279 . S
N276 C279 1.314 . S
C277 C274 1.348 . S
C277 C279 1.353 . S
C277 H333 0.929 . S
C278 C274 1.356 . S
C278 C275 1.358 . S
C278 H334 0.930 . S
C279 N276 1.314 . S
C279 C277 1.353 . S
C279 H335 0.930 . S
C280 N281 1.314 . S
C280 C285 1.353 . S
C280 H286 0.930 . S
N281 Li264 1.990 . S
N281 C280 1.314 . S
N281 C283 1.255 1_545 S
C282 C283 1.371 . S
C282 C284 1.372 . S
C282 H336 0.930 . S
C283 N281 1.255 1_565 S
C283 C282 1.371 . S
C283 H287 0.944 . S
C284 C282 1.372 . S
C284 C285 1.318 1_565 S
C285 C280 1.353 . S
C285 C284 1.318 1_545 S
C285 H337 0.929 1_655 S
H286 C280 0.930 . S
H287 C283 0.944 . S
C288 N289 1.314 . S
C288 C290 1.353 . S
C288 H294 0.930 . S
N289 Li265 1.990 . S
N289 C288 1.314 . S
N289 C292 1.279 . S
C290 C288 1.353 . S
C290 C293 1.348 . S
C290 H338 0.929 . S
C291 C292 1.358 . S
C291 C293 1.356 . S
C291 H339 0.930 . S
C292 N289 1.279 . S
C292 C291 1.358 . S
C292 H295 0.930 . S
C293 C290 1.348 . S
C293 C291 1.356 . S
H294 C288 0.930 . S
H295 C292 0.930 . S
C296 C298 1.348 1_655 S
C296 C299 1.356 1_655 S
C296 O326 1.325 . S
N297 C300 1.314 . S
N297 C301 1.279 . S
C298 C296 1.348 1_455 S
C298 C300 1.353 . S
C298 H340 0.929 1_455 S
C299 C296 1.356 1_455 S
C299 C301 1.358 . S
C299 H341 0.930 . S
C300 N297 1.314 . S
C300 C298 1.353 . S
C300 H342 0.930 . S
C301 N297 1.279 . S
C301 C299 1.358 . S
C301 H343 0.930 . S
C302 C303 1.348 . S
C302 C304 1.356 . S
C302 O327 1.325 . S
C303 C302 1.348 . S
C303 C305 1.353 . S
C303 H344 0.929 . S
C304 C302 1.356 . S
C304 C306 1.358 . S
C304 H345 0.930 . S
C305 C303 1.353 . S
C305 N307 1.314 . S
C305 H346 0.930 . S
C306 C304 1.358 . S
C306 N307 1.279 . S
C306 H347 0.930 . S
N307 C305 1.314 . S
N307 C306 1.279 . S
C308 C310 1.353 . S
C308 N311 1.314 . S
C308 H314 0.930 . S
C309 N311 1.279 . S
C309 C312 1.368 . S
C309 H315 0.930 . S
C310 C308 1.353 . S
C310 C313 1.348 . S
C310 H348 0.929 1_545 S
N311 Li266 1.990 . S
N311 C308 1.314 . S
N311 C309 1.279 . S
C312 C309 1.368 . S
C312 C313 1.367 . S
C312 H349 0.910 1_655 S
C313 C310 1.348 . S
C313 C312 1.367 . S
H314 C308 0.930 . S
H315 C309 0.930 . S
C316 N317 1.314 . S
C316 C318 1.353 . S
C316 H322 0.930 . S
N317 Li267 1.990 . S
N317 C316 1.314 . S
N317 C320 1.279 . S
C318 C316 1.353 . S
C318 C321 1.348 . S
C318 H350 0.929 . S
C319 C320 1.358 . S
C319 C321 1.356 . S
C319 H351 0.930 . S
C320 N317 1.279 . S
C320 C319 1.358 . S
C320 H323 0.930 . S
C321 C318 1.348 . S
C321 C319 1.356 . S
H322 C316 0.930 . S
H323 C320 0.930 . S
O324 Li264 1.956 . S
O324 Li265 1.970 . S
O324 Li266 1.961 . S
O324 C268 1.286 1_545 S
O325 Li264 1.970 . S
O325 Li265 1.956 . S
O325 Li267 1.961 . S
O325 C274 1.325 . S
O326 Li264 1.961 . S
O326 Li266 1.956 . S
O326 Li267 1.970 . S
O326 C296 1.325 . S
O327 Li265 1.961 . S
O327 Li266 1.970 . S
O327 Li267 1.956 . S
O327 C302 1.325 . S
H328 C270 0.929 . S
H329 C271 0.930 . S
H330 C272 0.930 . S
H331 C273 0.930 . S
H332 C275 0.930 . S
H333 C277 0.929 . S
H334 C278 0.930 . S
H335 C279 0.930 . S
H336 C282 0.930 . S
H337 C285 0.929 1_455 S
H338 C290 0.929 . S
H339 C291 0.930 . S
H340 C298 0.929 1_655 S
H341 C299 0.930 . S
H342 C300 0.930 . S
H343 C301 0.930 . S
H344 C303 0.929 . S
H345 C304 0.930 . S
H346 C305 0.930 . S
H347 C306 0.930 . S
H348 C310 0.929 1_565 S
H349 C312 0.910 1_455 S
H350 C318 0.929 . S
H351 C319 0.930 . S
Li352 N369 1.990 . S
Li352 O412 1.956 . S
Li352 O413 1.970 . S
Li352 O414 1.961 . S
Li353 N377 1.990 . S
Li353 O412 1.970 . S
Li353 O413 1.956 . S
Li353 O415 1.961 . S
Li354 N399 1.990 . S
Li354 O412 1.961 . S
Li354 O414 1.956 . S
Li354 O415 1.970 . S
Li355 N405 1.990 . S
Li355 O413 1.961 . S
Li355 O414 1.970 . S
Li355 O415 1.956 . S
C356 C358 1.348 . S
C356 C359 1.356 . S
C356 O412 1.325 . S
N357 C360 1.314 . S
N357 C361 1.279 . S
C358 C356 1.348 . S
C358 C360 1.353 . S
C358 H416 0.929 . S
C359 C356 1.356 . S
C359 C361 1.358 . S
C359 H417 0.930 . S
C360 N357 1.314 . S
C360 C358 1.353 . S
C360 H418 0.930 . S
C361 N357 1.279 . S
C361 C359 1.358 . S
C361 H419 0.930 . S
C362 C365 1.348 1_655 S
C362 C366 1.356 1_655 S
C362 O413 1.325 . S
C363 N364 1.279 . S
C363 C366 1.358 . S
C363 H420 0.930 . S
N364 C363 1.279 . S
N364 C367 1.314 . S
C365 C362 1.348 1_455 S
C365 C367 1.353 . S
C365 H421 0.929 1_455 S
C366 C362 1.356 1_455 S
C366 C363 1.358 . S
C366 H422 0.930 . S
C367 N364 1.314 . S
C367 C365 1.353 . S
C367 H423 0.930 . S
C368 N369 1.314 . S
C368 C373 1.353 . S
C368 H374 0.930 . S
N369 Li352 1.990 . S
N369 C368 1.314 . S
N369 C371 1.279 . S
C370 C371 1.358 . S
C370 C372 1.356 . S
C370 H424 0.930 . S
C371 N369 1.279 . S
C371 C370 1.358 . S
C371 H375 0.930 . S
C372 C370 1.356 . S
C372 C373 1.348 . S
C373 C368 1.353 . S
C373 C372 1.348 . S
C373 H425 0.929 . S
H374 C368 0.930 . S
H375 C371 0.930 . S
C376 N377 1.314 . S
C376 C378 1.353 1_565 S
C376 H382 0.940 . S
N377 Li353 1.990 . S
N377 C376 1.314 . S
N377 C380 1.279 . S
C378 C376 1.353 1_545 S
C378 C381 1.354 . S
C378 H426 0.929 . S
C379 C380 1.358 1_455 S
C379 C381 1.339 1_465 S
C379 H427 0.930 . S
C380 N377 1.279 . S
C380 C379 1.358 1_655 S
C380 H383 0.923 1_655 S
C381 C378 1.354 . S
C381 C379 1.339 1_645 S
H382 C376 0.940 . S
H383 C380 0.923 1_455 S
C384 C386 1.348 . S
C384 C387 1.356 . S
C384 O414 1.325 . S
N385 C388 1.314 . S
N385 C389 1.279 . S
C386 C384 1.348 . S
C386 C388 1.353 . S
C386 H428 0.929 . S
C387 C384 1.356 . S
C387 C389 1.358 . S
C387 H429 0.930 . S
C388 N385 1.314 . S
C388 C386 1.353 . S
C388 H430 0.930 . S
C389 N385 1.279 . S
C389 C387 1.358 . S
C389 H431 0.930 . S
C390 C391 1.363 . S
C390 C392 1.380 . S
C390 O415 1.289 1_545 S
C391 C390 1.363 . S
C391 C393 1.353 . S
C391 H432 0.929 . S
C392 C390 1.380 . S
C392 C394 1.358 . S
C392 H433 0.930 . S
C393 C391 1.353 . S
C393 N395 1.314 . S
C393 H434 0.930 . S
C394 C392 1.358 . S
C394 N395 1.279 . S
C394 H435 0.930 . S
N395 C393 1.314 . S
N395 C394 1.279 . S
C396 C398 1.353 . S
C396 N399 1.314 . S
C396 H402 0.930 . S
C397 N399 1.279 . S
C397 C400 1.358 . S
C397 H403 0.930 . S
C398 C396 1.353 . S
C398 C401 1.348 . S
C398 H436 0.929 . S
N399 Li354 1.990 . S
N399 C396 1.314 . S
N399 C397 1.279 . S
C400 C397 1.358 . S
C400 C401 1.356 . S
C400 H437 0.930 . S
C401 C398 1.348 . S
C401 C400 1.356 . S
H402 C396 0.930 . S
H403 C397 0.930 . S
C404 N405 1.314 . S
C404 C406 1.353 . S
C404 H410 0.930 . S
N405 Li355 1.990 . S
N405 C404 1.314 . S
N405 C408 1.279 . S
C406 C404 1.353 . S
C406 C409 1.348 . S
C406 H438 0.929 1_655 S
C407 C408 1.358 . S
C407 C409 1.356 . S
C407 H439 0.930 1_565 S
C408 N405 1.279 . S
C408 C407 1.358 . S
C408 H411 0.956 . S
C409 C406 1.348 . S
C409 C407 1.356 . S
H410 C404 0.930 . S
H411 C408 0.956 . S
O412 Li352 1.956 . S
O412 Li353 1.970 . S
O412 Li354 1.961 . S
O412 C356 1.325 . S
O413 Li352 1.970 . S
O413 Li353 1.956 . S
O413 Li355 1.961 . S
O413 C362 1.325 . S
O414 Li352 1.961 . S
O414 Li354 1.956 . S
O414 Li355 1.970 . S
O414 C384 1.325 . S
O415 Li353 1.961 . S
O415 Li354 1.970 . S
O415 Li355 1.956 . S
O415 C390 1.289 1_565 S
H416 C358 0.929 . S
H417 C359 0.930 . S
H418 C360 0.930 . S
H419 C361 0.930 . S
H420 C363 0.930 . S
H421 C365 0.929 1_655 S
H422 C366 0.930 . S
H423 C367 0.930 . S
H424 C370 0.930 . S
H425 C373 0.929 . S
H426 C378 0.929 . S
H427 C379 0.930 . S
H428 C386 0.929 . S
H429 C387 0.930 . S
H430 C388 0.930 . S
H431 C389 0.930 . S
H432 C391 0.929 . S
H433 C392 0.930 . S
H434 C393 0.930 . S
H435 C394 0.930 . S
H436 C398 0.929 . S
H437 C400 0.930 . S
H438 C406 0.929 1_455 S
H439 C407 0.930 1_545 S
Li440 N457 1.990 . S
Li440 O500 1.956 . S
Li440 O501 1.970 . S
Li440 O502 1.961 . S
Li441 N465 1.990 . S
Li441 O500 1.970 . S
Li441 O501 1.956 . S
Li441 O503 1.961 . S
Li442 N487 1.990 . S
Li442 O500 1.961 . S
Li442 O502 1.956 . S
Li442 O503 1.970 . S
Li443 N493 1.990 . S
Li443 O501 1.961 . S
Li443 O502 1.970 . S
Li443 O503 1.956 . S
C444 C446 1.348 . S
C444 C447 1.356 . S
C444 O500 1.325 . S
N445 C448 1.314 . S
N445 C449 1.279 . S
C446 C444 1.348 . S
C446 C448 1.353 . S
C446 H504 0.929 . S
C447 C444 1.356 . S
C447 C449 1.358 . S
C447 H505 0.930 . S
C448 N445 1.314 . S
C448 C446 1.353 . S
C448 H506 0.930 . S
C449 N445 1.279 . S
C449 C447 1.358 . S
C449 H507 0.930 . S
C450 C453 1.348 . S
C450 C454 1.356 . S
C450 O501 1.325 . S
C451 N452 1.279 . S
C451 C454 1.358 . S
C451 H508 0.930 . S
N452 C451 1.279 . S
N452 C455 1.314 . S
C453 C450 1.348 . S
C453 C455 1.353 . S
C453 H509 0.929 . S
C454 C450 1.356 . S
C454 C451 1.358 . S
C454 H510 0.930 . S
C455 N452 1.314 . S
C455 C453 1.353 . S
C455 H511 0.930 . S
C456 N457 1.314 . S
C456 C461 1.353 . S
C456 H462 0.930 . S
N457 Li440 1.990 . S
N457 C456 1.314 . S
N457 C459 1.279 . S
C458 C459 1.358 . S
C458 C460 1.356 . S
C458 H512 0.930 . S
C459 N457 1.279 . S
C459 C458 1.358 . S
C459 H463 0.930 . S
C460 C458 1.356 . S
C460 C461 1.348 . S
C461 C456 1.353 . S
C461 C460 1.348 . S
C461 H513 0.929 . S
H462 C456 0.930 . S
H463 C459 0.930 . S
C464 N465 1.314 . S
C464 C466 1.353 1_545 S
C464 H470 0.940 . S
N465 Li441 1.990 . S
N465 C464 1.314 . S
N465 C468 1.279 . S
C466 C464 1.353 1_565 S
C466 C469 1.354 . S
C466 H514 0.929 . S
C467 C468 1.358 . S
C467 C469 1.339 1_545 S
C467 H515 0.930 . S
C468 N465 1.279 . S
C468 C467 1.358 . S
C468 H471 0.930 . S
C469 C466 1.354 . S
C469 C467 1.339 1_565 S
H470 C464 0.940 . S
H471 C468 0.930 . S
C472 C474 1.348 . S
C472 C475 1.356 . S
C472 O502 1.325 . S
N473 C476 1.314 . S
N473 C477 1.279 . S
C474 C472 1.348 . S
C474 C476 1.353 . S
C474 H516 0.929 . S
C475 C472 1.356 . S
C475 C477 1.358 . S
C475 H517 0.930 . S
C476 N473 1.314 . S
C476 C474 1.353 . S
C476 H518 0.930 . S
C477 N473 1.279 . S
C477 C475 1.358 . S
C477 H519 0.930 . S
C478 C479 1.363 . S
C478 C480 1.380 . S
C478 O503 1.289 1_565 S
C479 C478 1.363 . S
C479 C481 1.353 . S
C479 H520 0.929 . S
C480 C478 1.380 . S
C480 C482 1.358 . S
C480 H521 0.930 . S
C481 C479 1.353 . S
C481 N483 1.314 . S
C481 H522 0.930 . S
C482 C480 1.358 . S
C482 N483 1.279 . S
C482 H523 0.930 . S
N483 C481 1.314 . S
N483 C482 1.279 . S
C484 C486 1.353 . S
C484 N487 1.314 . S
C484 H490 0.930 . S
C485 N487 1.279 . S
C485 C488 1.358 . S
C485 H491 0.930 . S
C486 C484 1.353 . S
C486 C489 1.348 . S
C486 H524 0.929 . S
N487 Li442 1.990 . S
N487 C484 1.314 . S
N487 C485 1.279 . S
C488 C485 1.358 . S
C488 C489 1.356 . S
C488 H525 0.930 . S
C489 C486 1.348 . S
C489 C488 1.356 . S
H490 C484 0.930 . S
H491 C485 0.930 . S
C492 N493 1.314 . S
C492 C494 1.353 . S
C492 H498 0.930 . S
N493 Li443 1.990 . S
N493 C492 1.314 . S
N493 C496 1.279 . S
C494 C492 1.353 . S
C494 C497 1.348 . S
C494 H526 0.929 . S
C495 C496 1.358 . S
C495 C497 1.356 . S
C495 H527 0.930 1_545 S
C496 N493 1.279 . S
C496 C495 1.358 . S
C496 H499 0.956 . S
C497 C494 1.348 . S
C497 C495 1.356 . S
H498 C492 0.930 . S
H499 C496 0.956 . S
O500 Li440 1.956 . S
O500 Li441 1.970 . S
O500 Li442 1.961 . S
O500 C444 1.325 . S
O501 Li440 1.970 . S
O501 Li441 1.956 . S
O501 Li443 1.961 . S
O501 C450 1.325 . S
O502 Li440 1.961 . S
O502 Li442 1.956 . S
O502 Li443 1.970 . S
O502 C472 1.325 . S
O503 Li441 1.961 . S
O503 Li442 1.970 . S
O503 Li443 1.956 . S
O503 C478 1.289 1_545 S
H504 C446 0.929 . S
H505 C447 0.930 . S
H506 C448 0.930 . S
H507 C449 0.930 . S
H508 C451 0.930 . S
H509 C453 0.929 . S
H510 C454 0.930 . S
H511 C455 0.930 . S
H512 C458 0.930 . S
H513 C461 0.929 . S
H514 C466 0.929 . S
H515 C467 0.930 . S
H516 C474 0.929 . S
H517 C475 0.930 . S
H518 C476 0.930 . S
H519 C477 0.930 . S
H520 C479 0.929 . S
H521 C480 0.930 . S
H522 C481 0.930 . S
H523 C482 0.930 . S
H524 C486 0.929 . S
H525 C488 0.930 . S
H526 C494 0.929 . S
H527 C495 0.930 1_565 S
Li528 N545 1.990 . S
Li528 O588 1.956 . S
Li528 O589 1.970 . S
Li528 O590 1.961 . S
Li529 N553 1.990 . S
Li529 O588 1.970 . S
Li529 O589 1.956 . S
Li529 O591 1.961 . S
Li530 N575 1.990 . S
Li530 O588 1.961 . S
Li530 O590 1.956 . S
Li530 O591 1.970 . S
Li531 N581 1.990 . S
Li531 O589 1.961 . S
Li531 O590 1.970 . S
Li531 O591 1.956 . S
C532 C534 1.348 . S
C532 C535 1.356 . S
C532 O588 1.325 . S
N533 C536 1.314 . S
N533 C537 1.279 . S
C534 C532 1.348 . S
C534 C536 1.353 . S
C534 H592 0.929 . S
C535 C532 1.356 . S
C535 C537 1.358 . S
C535 H593 0.930 . S
C536 N533 1.314 . S
C536 C534 1.353 . S
C536 H594 0.930 . S
C537 N533 1.279 . S
C537 C535 1.358 . S
C537 H595 0.930 . S
C538 C541 1.363 . S
C538 C542 1.380 . S
C538 O589 1.289 1_565 S
C539 N540 1.279 . S
C539 C542 1.358 . S
C539 H596 0.930 . S
N540 C539 1.279 . S
N540 C543 1.314 . S
C541 C538 1.363 . S
C541 C543 1.353 . S
C541 H597 0.929 . S
C542 C538 1.380 . S
C542 C539 1.358 . S
C542 H598 0.930 . S
C543 N540 1.314 . S
C543 C541 1.353 . S
C543 H599 0.930 . S
C544 N545 1.314 . S
C544 C549 1.353 . S
C544 H550 0.930 . S
N545 Li528 1.990 . S
N545 C544 1.314 . S
N545 C547 1.279 . S
C546 C547 1.358 . S
C546 C548 1.356 . S
C546 H600 0.930 . S
C547 N545 1.279 . S
C547 C546 1.358 . S
C547 H551 0.930 . S
C548 C546 1.356 . S
C548 C549 1.348 . S
C549 C544 1.353 . S
C549 C548 1.348 . S
C549 H601 0.929 . S
H550 C544 0.930 . S
H551 C547 0.930 . S
C552 N553 1.314 . S
C552 C554 1.353 . S
C552 H558 0.930 . S
N553 Li529 1.990 . S
N553 C552 1.314 . S
N553 C556 1.279 . S
C554 C552 1.353 . S
C554 C557 1.348 . S
C554 H602 0.929 . S
C555 C556 1.358 . S
C555 C557 1.356 . S
C555 H603 0.930 1_545 S
C556 N553 1.279 . S
C556 C555 1.358 . S
C556 H559 0.956 . S
C557 C554 1.348 . S
C557 C555 1.356 . S
H558 C552 0.930 . S
H559 C556 0.956 . S
C560 C562 1.348 . S
C560 C563 1.356 . S
C560 O590 1.325 . S
N561 C564 1.314 . S
N561 C565 1.279 . S
C562 C560 1.348 . S
C562 C564 1.353 . S
C562 H604 0.929 . S
C563 C560 1.356 . S
C563 C565 1.358 . S
C563 H605 0.930 . S
C564 N561 1.314 . S
C564 C562 1.353 . S
C564 H606 0.930 . S
C565 N561 1.279 . S
C565 C563 1.358 . S
C565 H607 0.930 . S
C566 C567 1.348 . S
C566 C568 1.356 . S
C566 O591 1.325 . S
C567 C566 1.348 . S
C567 C569 1.353 . S
C567 H608 0.929 . S
C568 C566 1.356 . S
C568 C570 1.358 . S
C568 H609 0.930 . S
C569 C567 1.353 . S
C569 N571 1.314 . S
C569 H610 0.930 . S
C570 C568 1.358 . S
C570 N571 1.279 . S
C570 H611 0.930 . S
N571 C569 1.314 . S
N571 C570 1.279 . S
C572 C574 1.353 . S
C572 N575 1.314 . S
C572 H578 0.930 . S
C573 N575 1.279 . S
C573 C576 1.358 . S
C573 H579 0.930 . S
C574 C572 1.353 . S
C574 C577 1.348 . S
C574 H612 0.929 . S
N575 Li530 1.990 . S
N575 C572 1.314 . S
N575 C573 1.279 . S
C576 C573 1.358 . S
C576 C577 1.356 . S
C576 H613 0.930 . S
C577 C574 1.348 . S
C577 C576 1.356 . S
H578 C572 0.930 . S
H579 C573 0.930 . S
C580 N581 1.314 . S
C580 C582 1.353 1_545 S
C580 H586 0.940 . S
N581 Li531 1.990 . S
N581 C580 1.314 . S
N581 C584 1.279 . S
C582 C580 1.353 1_565 S
C582 C585 1.354 . S
C582 H614 0.929 . S
C583 C584 1.358 . S
C583 C585 1.339 1_545 S
C583 H615 0.930 . S
C584 N581 1.279 . S
C584 C583 1.358 . S
C584 H587 0.930 . S
C585 C582 1.354 . S
C585 C583 1.339 1_565 S
H586 C580 0.940 . S
H587 C584 0.930 . S
O588 Li528 1.956 . S
O588 Li529 1.970 . S
O588 Li530 1.961 . S
O588 C532 1.325 . S
O589 Li528 1.970 . S
O589 Li529 1.956 . S
O589 Li531 1.961 . S
O589 C538 1.289 1_545 S
O590 Li528 1.961 . S
O590 Li530 1.956 . S
O590 Li531 1.970 . S
O590 C560 1.325 . S
O591 Li529 1.961 . S
O591 Li530 1.970 . S
O591 Li531 1.956 . S
O591 C566 1.325 . S
H592 C534 0.929 . S
H593 C535 0.930 . S
H594 C536 0.930 . S
H595 C537 0.930 . S
H596 C539 0.930 . S
H597 C541 0.929 . S
H598 C542 0.930 . S
H599 C543 0.930 . S
H600 C546 0.930 . S
H601 C549 0.929 . S
H602 C554 0.929 . S
H603 C555 0.930 1_565 S
H604 C562 0.929 . S
H605 C563 0.930 . S
H606 C564 0.930 . S
H607 C565 0.930 . S
H608 C567 0.929 . S
H609 C568 0.930 . S
H610 C569 0.930 . S
H611 C570 0.930 . S
H612 C574 0.929 . S
H613 C576 0.930 . S
H614 C582 0.929 . S
H615 C583 0.930 . S
Li616 N633 1.990 . S
Li616 O676 1.956 . S
Li616 O677 1.970 . S
Li616 O678 1.961 . S
Li617 N641 1.990 . S
Li617 O676 1.970 . S
Li617 O677 1.956 . S
Li617 O679 1.961 . S
Li618 N663 1.990 . S
Li618 O676 1.961 . S
Li618 O678 1.956 . S
Li618 O679 1.970 . S
Li619 N669 1.990 . S
Li619 O677 1.961 . S
Li619 O678 1.970 . S
Li619 O679 1.956 . S
C620 C622 1.363 . S
C620 C623 1.380 . S
C620 O676 1.289 1_545 S
N621 C624 1.314 . S
N621 C625 1.279 . S
C622 C620 1.363 . S
C622 C624 1.353 . S
C622 H680 0.929 . S
C623 C620 1.380 . S
C623 C625 1.358 . S
C623 H681 0.930 . S
C624 N621 1.314 . S
C624 C622 1.353 . S
C624 H682 0.930 . S
C625 N621 1.279 . S
C625 C623 1.358 . S
C625 H683 0.930 . S
C626 C629 1.348 . S
C626 C630 1.356 . S
C626 O677 1.325 . S
C627 N628 1.279 . S
C627 C630 1.358 . S
C627 H684 0.930 . S
N628 C627 1.279 . S
N628 C631 1.314 . S
C629 C626 1.348 . S
C629 C631 1.353 . S
C629 H685 0.929 . S
C630 C626 1.356 . S
C630 C627 1.358 . S
C630 H686 0.930 . S
C631 N628 1.314 . S
C631 C629 1.353 . S
C631 H687 0.930 . S
C632 N633 1.314 . S
C632 C637 1.353 . S
C632 H638 0.930 . S
N633 Li616 1.990 . S
N633 C632 1.314 . S
N633 C635 1.279 . S
C634 C635 1.358 . S
C634 C636 1.356 . S
C634 H688 0.930 1_565 S
C635 N633 1.279 . S
C635 C634 1.358 . S
C635 H639 0.956 . S
C636 C634 1.356 . S
C636 C637 1.348 . S
C637 C632 1.353 . S
C637 C636 1.348 . S
C637 H689 0.929 1_455 S
H638 C632 0.930 . S
H639 C635 0.956 . S
C640 N641 1.314 . S
C640 C642 1.353 . S
C640 H646 0.930 . S
N641 Li617 1.990 . S
N641 C640 1.314 . S
N641 C644 1.279 . S
C642 C640 1.353 . S
C642 C645 1.348 . S
C642 H690 0.929 . S
C643 C644 1.358 . S
C643 C645 1.356 . S
C643 H691 0.930 . S
C644 N641 1.279 . S
C644 C643 1.358 . S
C644 H647 0.930 . S
C645 C642 1.348 . S
C645 C643 1.356 . S
H646 C640 0.930 . S
H647 C644 0.930 . S
C648 C650 1.348 1_455 S
C648 C651 1.356 1_455 S
C648 O678 1.325 . S
N649 C652 1.314 . S
N649 C653 1.279 . S
C650 C648 1.348 1_655 S
C650 C652 1.353 . S
C650 H692 0.929 1_655 S
C651 C648 1.356 1_655 S
C651 C653 1.358 . S
C651 H693 0.930 . S
C652 N649 1.314 . S
C652 C650 1.353 . S
C652 H694 0.930 . S
C653 N649 1.279 . S
C653 C651 1.358 . S
C653 H695 0.930 . S
C654 C655 1.348 . S
C654 C656 1.356 . S
C654 O679 1.325 . S
C655 C654 1.348 . S
C655 C657 1.353 . S
C655 H696 0.929 . S
C656 C654 1.356 . S
C656 C658 1.358 . S
C656 H697 0.930 . S
C657 C655 1.353 . S
C657 N659 1.314 . S
C657 H698 0.930 . S
C658 C656 1.358 . S
C658 N659 1.279 . S
C658 H699 0.930 . S
N659 C657 1.314 . S
N659 C658 1.279 . S
C660 C662 1.353 1_565 S
C660 N663 1.314 . S
C660 H666 0.940 . S
C661 N663 1.279 . S
C661 C664 1.358 1_455 S
C661 H667 0.923 1_455 S
C662 C660 1.353 1_545 S
C662 C665 1.354 . S
C662 H700 0.929 . S
N663 Li618 1.990 . S
N663 C660 1.314 . S
N663 C661 1.279 . S
C664 C661 1.358 1_655 S
C664 C665 1.339 1_665 S
C664 H701 0.930 . S
C665 C662 1.354 . S
C665 C664 1.339 1_445 S
H666 C660 0.940 . S
H667 C661 0.923 1_655 S
C668 N669 1.314 . S
C668 C670 1.353 . S
C668 H674 0.930 . S
N669 Li619 1.990 . S
N669 C668 1.314 . S
N669 C672 1.279 . S
C670 C668 1.353 . S
C670 C673 1.348 . S
C670 H702 0.929 . S
C671 C672 1.358 . S
C671 C673 1.356 . S
C671 H703 0.930 . S
C672 N669 1.279 . S
C672 C671 1.358 . S
C672 H675 0.930 . S
C673 C670 1.348 . S
C673 C671 1.356 . S
H674 C668 0.930 . S
H675 C672 0.930 . S
O676 Li616 1.956 . S
O676 Li617 1.970 . S
O676 Li618 1.961 . S
O676 C620 1.289 1_565 S
O677 Li616 1.970 . S
O677 Li617 1.956 . S
O677 Li619 1.961 . S
O677 C626 1.325 . S
O678 Li616 1.961 . S
O678 Li618 1.956 . S
O678 Li619 1.970 . S
O678 C648 1.325 . S
O679 Li617 1.961 . S
O679 Li618 1.970 . S
O679 Li619 1.956 . S
O679 C654 1.325 . S
H680 C622 0.929 . S
H681 C623 0.930 . S
H682 C624 0.930 . S
H683 C625 0.930 . S
H684 C627 0.930 . S
H685 C629 0.929 . S
H686 C630 0.930 . S
H687 C631 0.930 . S
H688 C634 0.930 1_545 S
H689 C637 0.929 1_655 S
H690 C642 0.929 . S
H691 C643 0.930 . S
H692 C650 0.929 1_455 S
H693 C651 0.930 . S
H694 C652 0.930 . S
H695 C653 0.930 . S
H696 C655 0.929 . S
H697 C656 0.930 . S
H698 C657 0.930 . S
H699 C658 0.930 . S
H700 C662 0.929 . S
H701 C664 0.930 . S
H702 C670 0.929 . S
H703 C671 0.930 . S
Li704 N721 1.990 . S
Li704 O764 1.956 . S
Li704 O765 1.970 . S
Li704 O766 1.961 . S
Li705 N729 1.990 . S
Li705 O764 1.970 . S
Li705 O765 1.956 . S
Li705 O767 1.961 . S
Li706 N751 1.990 . S
Li706 O764 1.961 . S
Li706 O766 1.956 . S
Li706 O767 1.970 . S
Li707 N757 1.990 . S
Li707 O765 1.961 . S
Li707 O766 1.970 . S
Li707 O767 1.956 . S
C708 C710 1.348 . S
C708 C711 1.356 . S
C708 O764 1.325 . S
N709 C712 1.314 . S
N709 C713 1.279 . S
C710 C708 1.348 . S
C710 C712 1.353 . S
C710 H768 0.929 . S
C711 C708 1.356 . S
C711 C713 1.358 . S
C711 H769 0.930 . S
C712 N709 1.314 . S
C712 C710 1.353 . S
C712 H770 0.930 . S
C713 N709 1.279 . S
C713 C711 1.358 . S
C713 H771 0.930 . S
C714 C717 1.348 . S
C714 C718 1.356 . S
C714 O765 1.325 . S
C715 N716 1.279 . S
C715 C718 1.358 . S
C715 H772 0.930 . S
N716 C715 1.279 . S
N716 C719 1.314 . S
C717 C714 1.348 . S
C717 C719 1.353 . S
C717 H773 0.929 . S
C718 C714 1.356 . S
C718 C715 1.358 . S
C718 H774 0.930 . S
C719 N716 1.314 . S
C719 C717 1.353 . S
C719 H775 0.930 . S
C720 N721 1.314 . S
C720 C725 1.353 . S
C720 H726 0.930 . S
N721 Li704 1.990 . S
N721 C720 1.314 . S
N721 C723 1.279 . S
C722 C723 1.358 . S
C722 C724 1.356 . S
C722 H776 0.930 . S
C723 N721 1.279 . S
C723 C722 1.358 . S
C723 H727 0.930 . S
C724 C722 1.356 . S
C724 C725 1.348 . S
C725 C720 1.353 . S
C725 C724 1.348 . S
C725 H777 0.929 . S
H726 C720 0.930 . S
H727 C723 0.930 . S
C728 N729 1.314 . S
C728 C730 1.353 . S
C728 H734 0.930 . S
N729 Li705 1.990 . S
N729 C728 1.314 . S
N729 C732 1.279 . S
C730 C728 1.353 . S
C730 C733 1.348 . S
C730 H778 0.929 . S
C731 C732 1.358 . S
C731 C733 1.356 . S
C731 H779 0.930 . S
C732 N729 1.279 . S
C732 C731 1.358 . S
C732 H735 0.930 . S
C733 C730 1.348 . S
C733 C731 1.356 . S
H734 C728 0.930 . S
H735 C732 0.930 . S
C736 C738 1.348 . S
C736 C739 1.356 . S
C736 O766 1.325 . S
N737 C740 1.314 . S
N737 C741 1.279 . S
C738 C736 1.348 . S
C738 C740 1.353 . S
C738 H780 0.929 . S
C739 C736 1.356 . S
C739 C741 1.358 . S
C739 H781 0.930 . S
C740 N737 1.314 . S
C740 C738 1.353 . S
C740 H782 0.930 . S
C741 N737 1.279 . S
C741 C739 1.358 . S
C741 H783 0.930 . S
C742 C743 1.348 . S
C742 C744 1.356 . S
C742 O767 1.325 . S
C743 C742 1.348 . S
C743 C745 1.353 . S
C743 H784 0.929 . S
C744 C742 1.356 . S
C744 C746 1.358 . S
C744 H785 0.930 . S
C745 C743 1.353 . S
C745 N747 1.314 . S
C745 H786 0.930 . S
C746 C744 1.358 . S
C746 N747 1.279 . S
C746 H787 0.930 . S
N747 C745 1.314 . S
N747 C746 1.279 . S
C748 C750 1.353 . S
C748 N751 1.314 . S
C748 H754 0.930 . S
C749 N751 1.279 . S
C749 C752 1.358 . S
C749 H755 0.930 . S
C750 C748 1.353 . S
C750 C753 1.348 . S
C750 H788 0.929 . S
N751 Li706 1.990 . S
N751 C748 1.314 . S
N751 C749 1.279 . S
C752 C749 1.358 . S
C752 C753 1.356 . S
C752 H789 0.930 . S
C753 C750 1.348 . S
C753 C752 1.356 . S
H754 C748 0.930 . S
H755 C749 0.930 . S
C756 N757 1.314 . S
C756 C758 1.353 . S
C756 H762 0.930 . S
N757 Li707 1.990 . S
N757 C756 1.314 . S
N757 C760 1.279 . S
C758 C756 1.353 . S
C758 C761 1.348 . S
C758 H790 0.929 . S
C759 C760 1.358 . S
C759 C761 1.356 . S
C759 H791 0.930 . S
C760 N757 1.279 . S
C760 C759 1.358 . S
C760 H763 0.930 . S
C761 C758 1.348 . S
C761 C759 1.356 . S
H762 C756 0.930 . S
H763 C760 0.930 . S
O764 Li704 1.956 . S
O764 Li705 1.970 . S
O764 Li706 1.961 . S
O764 C708 1.325 . S
O765 Li704 1.970 . S
O765 Li705 1.956 . S
O765 Li707 1.961 . S
O765 C714 1.325 . S
O766 Li704 1.961 . S
O766 Li706 1.956 . S
O766 Li707 1.970 . S
O766 C736 1.325 . S
O767 Li705 1.961 . S
O767 Li706 1.970 . S
O767 Li707 1.956 . S
O767 C742 1.325 . S
H768 C710 0.929 . S
H769 C711 0.930 . S
H770 C712 0.930 . S
H771 C713 0.930 . S
H772 C715 0.930 . S
H773 C717 0.929 . S
H774 C718 0.930 . S
H775 C719 0.930 . S
H776 C722 0.930 . S
H777 C725 0.929 . S
H778 C730 0.929 . S
H779 C731 0.930 . S
H780 C738 0.929 . S
H781 C739 0.930 . S
H782 C740 0.930 . S
H783 C741 0.930 . S
H784 C743 0.929 . S
H785 C744 0.930 . S
H786 C745 0.930 . S
H787 C746 0.930 . S
H788 C750 0.929 . S
H789 C752 0.930 . S
H790 C758 0.929 . S
H791 C759 0.930 . S
Li792 N809 1.990 . S
Li792 O852 1.956 . S
Li792 O853 1.970 . S
Li792 O854 1.961 . S
Li793 N817 1.990 . S
Li793 O852 1.970 . S
Li793 O853 1.956 . S
Li793 O855 1.961 . S
Li794 N839 1.990 . S
Li794 O852 1.961 . S
Li794 O854 1.956 . S
Li794 O855 1.970 . S
Li795 N845 1.990 . S
Li795 O853 1.961 . S
Li795 O854 1.970 . S
Li795 O855 1.956 . S
C796 C798 1.348 . S
C796 C799 1.356 . S
C796 O852 1.325 . S
N797 C800 1.314 . S
N797 C801 1.279 . S
C798 C796 1.348 . S
C798 C800 1.353 . S
C798 H856 0.929 . S
C799 C796 1.356 . S
C799 C801 1.358 . S
C799 H857 0.930 . S
C800 N797 1.314 . S
C800 C798 1.353 . S
C800 H858 0.930 . S
C801 N797 1.279 . S
C801 C799 1.358 . S
C801 H859 0.930 . S
C802 C805 1.348 1_655 S
C802 C806 1.356 1_655 S
C802 O853 1.325 . S
C803 N804 1.279 . S
C803 C806 1.358 . S
C803 H860 0.930 . S
N804 C803 1.279 . S
N804 C807 1.314 . S
C805 C802 1.348 1_455 S
C805 C807 1.353 . S
C805 H861 0.929 1_455 S
C806 C802 1.356 1_455 S
C806 C803 1.358 . S
C806 H862 0.930 . S
C807 N804 1.314 . S
C807 C805 1.353 . S
C807 H863 0.930 . S
C808 N809 1.314 . S
C808 C813 1.353 . S
C808 H814 0.930 . S
N809 Li792 1.990 . S
N809 C808 1.314 . S
N809 C811 1.279 . S
C810 C811 1.358 . S
C810 C812 1.356 . S
C810 H864 0.930 . S
C811 N809 1.279 . S
C811 C810 1.358 . S
C811 H815 0.930 . S
C812 C810 1.356 . S
C812 C813 1.348 . S
C813 C808 1.353 . S
C813 C812 1.348 . S
C813 H865 0.929 . S
H814 C808 0.930 . S
H815 C811 0.930 . S
C816 N817 1.314 . S
C816 C818 1.353 . S
C816 H822 0.930 . S
N817 Li793 1.990 . S
N817 C816 1.314 . S
N817 C820 1.279 . S
C818 C816 1.353 . S
C818 C821 1.348 . S
C818 H866 0.929 . S
C819 C820 1.368 . S
C819 C821 1.367 . S
C819 H867 0.910 1_655 S
C820 N817 1.279 . S
C820 C819 1.368 . S
C820 H823 0.930 . S
C821 C818 1.348 . S
C821 C819 1.367 . S
H822 C816 0.930 . S
H823 C820 0.930 . S
C824 C826 1.348 . S
C824 C827 1.356 . S
C824 O854 1.325 . S
N825 C828 1.314 . S
N825 C829 1.279 . S
C826 C824 1.348 . S
C826 C828 1.353 . S
C826 H868 0.929 . S
C827 C824 1.356 . S
C827 C829 1.358 . S
C827 H869 0.930 . S
C828 N825 1.314 . S
C828 C826 1.353 . S
C828 H870 0.930 . S
C829 N825 1.279 . S
C829 C827 1.358 . S
C829 H871 0.930 . S
C830 C831 1.348 . S
C830 C832 1.356 . S
C830 O855 1.325 . S
C831 C830 1.348 . S
C831 C833 1.353 . S
C831 H872 0.929 . S
C832 C830 1.356 . S
C832 C834 1.358 . S
C832 H873 0.930 . S
C833 C831 1.353 . S
C833 N835 1.314 . S
C833 H874 0.930 . S
C834 C832 1.358 . S
C834 N835 1.279 . S
C834 H875 0.930 . S
N835 C833 1.314 . S
N835 C834 1.279 . S
C836 C838 1.353 . S
C836 N839 1.314 . S
C836 H842 0.930 . S
C837 N839 1.279 . S
C837 C840 1.358 . S
C837 H843 0.930 . S
C838 C836 1.353 . S
C838 C841 1.348 . S
C838 H876 0.929 . S
N839 Li794 1.990 . S
N839 C836 1.314 . S
N839 C837 1.279 . S
C840 C837 1.358 . S
C840 C841 1.356 . S
C840 H877 0.930 . S
C841 C838 1.348 . S
C841 C840 1.356 . S
H842 C836 0.930 . S
H843 C837 0.930 . S
C844 N845 1.314 . S
C844 C846 1.353 . S
C844 H850 0.930 . S
N845 Li795 1.990 . S
N845 C844 1.314 . S
N845 C848 1.279 . S
C846 C844 1.353 . S
C846 C849 1.348 . S
C846 H878 0.929 1_655 S
C847 C848 1.358 . S
C847 C849 1.356 . S
C847 H879 0.930 . S
C848 N845 1.279 . S
C848 C847 1.358 . S
C848 H851 0.930 . S
C849 C846 1.348 . S
C849 C847 1.356 . S
H850 C844 0.930 . S
H851 C848 0.930 . S
O852 Li792 1.956 . S
O852 Li793 1.970 . S
O852 Li794 1.961 . S
O852 C796 1.325 . S
O853 Li792 1.970 . S
O853 Li793 1.956 . S
O853 Li795 1.961 . S
O853 C802 1.325 . S
O854 Li792 1.961 . S
O854 Li794 1.956 . S
O854 Li795 1.970 . S
O854 C824 1.325 . S
O855 Li793 1.961 . S
O855 Li794 1.970 . S
O855 Li795 1.956 . S
O855 C830 1.325 . S
H856 C798 0.929 . S
H857 C799 0.930 . S
H858 C800 0.930 . S
H859 C801 0.930 . S
H860 C803 0.930 . S
H861 C805 0.929 1_655 S
H862 C806 0.930 . S
H863 C807 0.930 . S
H864 C810 0.930 . S
H865 C813 0.929 . S
H866 C818 0.929 . S
H867 C819 0.910 1_455 S
H868 C826 0.929 . S
H869 C827 0.930 . S
H870 C828 0.930 . S
H871 C829 0.930 . S
H872 C831 0.929 . S
H873 C832 0.930 . S
H874 C833 0.930 . S
H875 C834 0.930 . S
H876 C838 0.929 . S
H877 C840 0.930 . S
H878 C846 0.929 1_455 S
H879 C847 0.930 . S
Li880 N897 1.990 . S
Li880 O940 1.956 . S
Li880 O941 1.970 . S
Li880 O942 1.961 . S
Li881 N905 1.990 . S
Li881 O940 1.970 . S
Li881 O941 1.956 . S
Li881 O943 1.961 . S
Li882 N927 1.990 . S
Li882 O940 1.961 . S
Li882 O942 1.956 . S
Li882 O943 1.970 . S
Li883 N933 1.990 . S
Li883 O941 1.961 . S
Li883 O942 1.970 . S
Li883 O943 1.956 . S
C884 C886 1.348 . S
C884 C887 1.356 . S
C884 O940 1.325 . S
N885 C888 1.314 . S
N885 C889 1.279 . S
C886 C884 1.348 . S
C886 C888 1.353 . S
C886 H944 0.929 . S
C887 C884 1.356 . S
C887 C889 1.358 . S
C887 H945 0.930 . S
C888 N885 1.314 . S
C888 C886 1.353 . S
C888 H946 0.930 . S
C889 N885 1.279 . S
C889 C887 1.358 . S
C889 H947 0.930 . S
C890 C893 1.348 . S
C890 C894 1.356 . S
C890 O941 1.325 . S
C891 N892 1.279 . S
C891 C894 1.358 . S
C891 H948 0.930 . S
N892 C891 1.279 . S
N892 C895 1.314 . S
C893 C890 1.348 . S
C893 C895 1.353 . S
C893 H949 0.929 . S
C894 C890 1.356 . S
C894 C891 1.358 . S
C894 H950 0.930 . S
C895 N892 1.314 . S
C895 C893 1.353 . S
C895 H951 0.930 . S
C896 N897 1.314 . S
C896 C901 1.353 . S
C896 H902 0.930 . S
N897 Li880 1.990 . S
N897 C896 1.314 . S
N897 C899 1.279 . S
C898 C899 1.358 . S
C898 C900 1.356 . S
C898 H952 0.930 . S
C899 N897 1.279 . S
C899 C898 1.358 . S
C899 H903 0.930 . S
C900 C898 1.356 . S
C900 C901 1.348 . S
C901 C896 1.353 . S
C901 C900 1.348 . S
C901 H953 0.929 1_455 S
H902 C896 0.930 . S
H903 C899 0.930 . S
C904 N905 1.314 . S
C904 C906 1.353 . S
C904 H910 0.930 . S
N905 Li881 1.990 . S
N905 C904 1.314 . S
N905 C908 1.279 . S
C906 C904 1.353 . S
C906 C909 1.348 . S
C906 H954 0.929 . S
C907 C908 1.358 . S
C907 C909 1.356 . S
C907 H955 0.930 . S
C908 N905 1.279 . S
C908 C907 1.358 . S
C908 H911 0.930 . S
C909 C906 1.348 . S
C909 C907 1.356 . S
H910 C904 0.930 . S
H911 C908 0.930 . S
C912 C914 1.348 1_455 S
C912 C915 1.356 1_455 S
C912 O942 1.325 . S
N913 C916 1.314 . S
N913 C917 1.279 . S
C914 C912 1.348 1_655 S
C914 C916 1.353 . S
C914 H956 0.929 1_655 S
C915 C912 1.356 1_655 S
C915 C917 1.358 . S
C915 H957 0.930 . S
C916 N913 1.314 . S
C916 C914 1.353 . S
C916 H958 0.930 . S
C917 N913 1.279 . S
C917 C915 1.358 . S
C917 H959 0.930 . S
C918 C919 1.348 . S
C918 C920 1.356 . S
C918 O943 1.325 . S
C919 C918 1.348 . S
C919 C921 1.353 . S
C919 H960 0.929 . S
C920 C918 1.356 . S
C920 C922 1.358 . S
C920 H961 0.930 . S
C921 C919 1.353 . S
C921 N923 1.314 . S
C921 H962 0.930 . S
C922 C920 1.358 . S
C922 N923 1.279 . S
C922 H963 0.930 . S
N923 C921 1.314 . S
N923 C922 1.279 . S
C924 C926 1.353 . S
C924 N927 1.314 . S
C924 H930 0.930 . S
C925 N927 1.279 . S
C925 C928 1.368 . S
C925 H931 0.930 . S
C926 C924 1.353 . S
C926 C929 1.348 . S
C926 H964 0.929 . S
N927 Li882 1.990 . S
N927 C924 1.314 . S
N927 C925 1.279 . S
C928 C925 1.368 . S
C928 C929 1.367 . S
C928 H965 0.910 1_455 S
C929 C926 1.348 . S
C929 C928 1.367 . S
H930 C924 0.930 . S
H931 C925 0.930 . S
C932 N933 1.314 . S
C932 C934 1.353 . S
C932 H938 0.930 . S
N933 Li883 1.990 . S
N933 C932 1.314 . S
N933 C936 1.279 . S
C934 C932 1.353 . S
C934 C937 1.348 . S
C934 H966 0.929 . S
C935 C936 1.358 . S
C935 C937 1.356 . S
C935 H967 0.930 . S
C936 N933 1.279 . S
C936 C935 1.358 . S
C936 H939 0.930 . S
C937 C934 1.348 . S
C937 C935 1.356 . S
H938 C932 0.930 . S
H939 C936 0.930 . S
O940 Li880 1.956 . S
O940 Li881 1.970 . S
O940 Li882 1.961 . S
O940 C884 1.325 . S
O941 Li880 1.970 . S
O941 Li881 1.956 . S
O941 Li883 1.961 . S
O941 C890 1.325 . S
O942 Li880 1.961 . S
O942 Li882 1.956 . S
O942 Li883 1.970 . S
O942 C912 1.325 . S
O943 Li881 1.961 . S
O943 Li882 1.970 . S
O943 Li883 1.956 . S
O943 C918 1.325 . S
H944 C886 0.929 . S
H945 C887 0.930 . S
H946 C888 0.930 . S
H947 C889 0.930 . S
H948 C891 0.930 . S
H949 C893 0.929 . S
H950 C894 0.930 . S
H951 C895 0.930 . S
H952 C898 0.930 . S
H953 C901 0.929 1_655 S
H954 C906 0.929 . S
H955 C907 0.930 . S
H956 C914 0.929 1_455 S
H957 C915 0.930 . S
H958 C916 0.930 . S
H959 C917 0.930 . S
H960 C919 0.929 . S
H961 C920 0.930 . S
H962 C921 0.930 . S
H963 C922 0.930 . S
H964 C926 0.929 . S
H965 C928 0.910 1_655 S
H966 C934 0.929 . S
H967 C935 0.930 . S
Li968 N985 1.990 . S
Li968 O1028 1.956 . S
Li968 O1029 1.970 . S
Li968 O1030 1.961 . S
Li969 N993 1.990 . S
Li969 O1028 1.970 . S
Li969 O1029 1.956 . S
Li969 O1031 1.961 . S
Li970 N1015 1.990 . S
Li970 O1028 1.961 . S
Li970 O1030 1.956 . S
Li970 O1031 1.970 . S
Li971 N1021 1.990 . S
Li971 O1029 1.961 . S
Li971 O1030 1.970 . S
Li971 O1031 1.956 . S
C972 C974 1.348 . S
C972 C975 1.356 . S
C972 O1028 1.325 . S
N973 C976 1.314 . S
N973 C977 1.279 . S
C974 C972 1.348 . S
C974 C976 1.353 . S
C974 H1032 0.929 . S
C975 C972 1.356 . S
C975 C977 1.358 . S
C975 H1033 0.930 . S
C976 N973 1.314 . S
C976 C974 1.353 . S
C976 H1034 0.930 . S
C977 N973 1.279 . S
C977 C975 1.358 . S
C977 H1035 0.930 . S
C978 C981 1.348 . S
C978 C982 1.356 . S
C978 O1029 1.325 . S
C979 N980 1.279 . S
C979 C982 1.358 . S
C979 H1036 0.930 . S
N980 C979 1.279 . S
N980 C983 1.314 . S
C981 C978 1.348 . S
C981 C983 1.353 . S
C981 H1037 0.929 . S
C982 C978 1.356 . S
C982 C979 1.358 . S
C982 H1038 0.930 . S
C983 N980 1.314 . S
C983 C981 1.353 . S
C983 H1039 0.930 . S
C984 N985 1.314 . S
C984 C989 1.353 . S
C984 H990 0.930 . S
N985 Li968 1.990 . S
N985 C984 1.314 . S
N985 C987 1.279 . S
C986 C987 1.358 . S
C986 C988 1.356 . S
C986 H1040 0.930 . S
C987 N985 1.279 . S
C987 C986 1.358 . S
C987 H991 0.930 . S
C988 C986 1.356 . S
C988 C989 1.348 . S
C989 C984 1.353 . S
C989 C988 1.348 . S
C989 H1041 0.929 . S
H990 C984 0.930 . S
H991 C987 0.930 . S
C992 N993 1.314 . S
C992 C994 1.353 . S
C992 H998 0.930 . S
N993 Li969 1.990 . S
N993 C992 1.314 . S
N993 C996 1.279 . S
C994 C992 1.353 . S
C994 C997 1.348 . S
C994 H1042 0.929 . S
C995 C996 1.358 . S
C995 C997 1.356 . S
C995 H1043 0.930 . S
C996 N993 1.279 . S
C996 C995 1.358 . S
C996 H999 0.930 . S
C997 C994 1.348 . S
C997 C995 1.356 . S
H998 C992 0.930 . S
H999 C996 0.930 . S
C1000 C1002 1.348 . S
C1000 C1003 1.356 . S
C1000 O1030 1.325 . S
N1001 C1004 1.314 . S
N1001 C1005 1.279 . S
C1002 C1000 1.348 . S
C1002 C1004 1.353 . S
C1002 H1044 0.929 . S
C1003 C1000 1.356 . S
C1003 C1005 1.358 . S
C1003 H1045 0.930 . S
C1004 N1001 1.314 . S
C1004 C1002 1.353 . S
C1004 H1046 0.930 . S
C1005 N1001 1.279 . S
C1005 C1003 1.358 . S
C1005 H1047 0.930 . S
C1006 C1007 1.348 . S
C1006 C1008 1.356 . S
C1006 O1031 1.325 . S
C1007 C1006 1.348 . S
C1007 C1009 1.353 . S
C1007 H1048 0.929 . S
C1008 C1006 1.356 . S
C1008 C1010 1.358 . S
C1008 H1049 0.930 . S
C1009 C1007 1.353 . S
C1009 N1011 1.314 . S
C1009 H1050 0.930 . S
C1010 C1008 1.358 . S
C1010 N1011 1.279 . S
C1010 H1051 0.930 . S
N1011 C1009 1.314 . S
N1011 C1010 1.279 . S
C1012 C1014 1.353 . S
C1012 N1015 1.314 . S
C1012 H1018 0.930 . S
C1013 N1015 1.279 . S
C1013 C1016 1.358 . S
C1013 H1019 0.930 . S
C1014 C1012 1.353 . S
C1014 C1017 1.348 . S
C1014 H1052 0.929 . S
N1015 Li970 1.990 . S
N1015 C1012 1.314 . S
N1015 C1013 1.279 . S
C1016 C1013 1.358 . S
C1016 C1017 1.356 . S
C1016 H1053 0.930 . S
C1017 C1014 1.348 . S
C1017 C1016 1.356 . S
H1018 C1012 0.930 . S
H1019 C1013 0.930 . S
C1020 N1021 1.314 . S
C1020 C1022 1.353 . S
C1020 H1026 0.930 . S
N1021 Li971 1.990 . S
N1021 C1020 1.314 . S
N1021 C1024 1.279 . S
C1022 C1020 1.353 . S
C1022 C1025 1.348 . S
C1022 H1054 0.929 . S
C1023 C1024 1.358 . S
C1023 C1025 1.356 . S
C1023 H1055 0.930 . S
C1024 N1021 1.279 . S
C1024 C1023 1.358 . S
C1024 H1027 0.930 . S
C1025 C1022 1.348 . S
C1025 C1023 1.356 . S
H1026 C1020 0.930 . S
H1027 C1024 0.930 . S
O1028 Li968 1.956 . S
O1028 Li969 1.970 . S
O1028 Li970 1.961 . S
O1028 C972 1.325 . S
O1029 Li968 1.970 . S
O1029 Li969 1.956 . S
O1029 Li971 1.961 . S
O1029 C978 1.325 . S
O1030 Li968 1.961 . S
O1030 Li970 1.956 . S
O1030 Li971 1.970 . S
O1030 C1000 1.325 . S
O1031 Li969 1.961 . S
O1031 Li970 1.970 . S
O1031 Li971 1.956 . S
O1031 C1006 1.325 . S
H1032 C974 0.929 . S
H1033 C975 0.930 . S
H1034 C976 0.930 . S
H1035 C977 0.930 . S
H1036 C979 0.930 . S
H1037 C981 0.929 . S
H1038 C982 0.930 . S
H1039 C983 0.930 . S
H1040 C986 0.930 . S
H1041 C989 0.929 . S
H1042 C994 0.929 . S
H1043 C995 0.930 . S
H1044 C1002 0.929 . S
H1045 C1003 0.930 . S
H1046 C1004 0.930 . S
H1047 C1005 0.930 . S
H1048 C1007 0.929 . S
H1049 C1008 0.930 . S
H1050 C1009 0.930 . S
H1051 C1010 0.930 . S
H1052 C1014 0.929 . S
H1053 C1016 0.930 . S
H1054 C1022 0.929 . S
H1055 C1023 0.930 . S
Li1056 N1073 1.990 . S
Li1056 O1116 1.956 . S
Li1056 O1117 1.970 . S
Li1056 O1118 1.961 . S
Li1057 N1081 1.990 . S
Li1057 O1116 1.970 . S
Li1057 O1117 1.956 . S
Li1057 O1119 1.961 . S
Li1058 N1103 1.990 . S
Li1058 O1116 1.961 . S
Li1058 O1118 1.956 . S
Li1058 O1119 1.970 . S
Li1059 N1109 1.990 . S
Li1059 O1117 1.961 . S
Li1059 O1118 1.970 . S
Li1059 O1119 1.956 . S
C1060 C1062 1.348 . S
C1060 C1063 1.356 . S
C1060 O1116 1.325 . S
N1061 C1064 1.314 . S
N1061 C1065 1.279 . S
C1062 C1060 1.348 . S
C1062 C1064 1.353 . S
C1062 H1120 0.929 . S
C1063 C1060 1.356 . S
C1063 C1065 1.358 . S
C1063 H1121 0.930 . S
C1064 N1061 1.314 . S
C1064 C1062 1.353 . S
C1064 H1122 0.930 . S
C1065 N1061 1.279 . S
C1065 C1063 1.358 . S
C1065 H1123 0.930 . S
C1066 C1069 1.348 . S
C1066 C1070 1.356 . S
C1066 O1117 1.325 . S
C1067 N1068 1.279 . S
C1067 C1070 1.358 . S
C1067 H1124 0.930 . S
N1068 C1067 1.279 . S
N1068 C1071 1.314 . S
C1069 C1066 1.348 . S
C1069 C1071 1.353 . S
C1069 H1125 0.929 . S
C1070 C1066 1.356 . S
C1070 C1067 1.358 . S
C1070 H1126 0.930 . S
C1071 N1068 1.314 . S
C1071 C1069 1.353 . S
C1071 H1127 0.930 . S
C1072 N1073 1.314 . S
C1072 C1077 1.353 . S
C1072 H1078 0.930 . S
N1073 Li1056 1.990 . S
N1073 C1072 1.314 . S
N1073 C1075 1.279 . S
C1074 C1075 1.358 . S
C1074 C1076 1.356 . S
C1074 H1128 0.930 . S
C1075 N1073 1.279 . S
C1075 C1074 1.358 . S
C1075 H1079 0.930 . S
C1076 C1074 1.356 . S
C1076 C1077 1.348 . S
C1077 C1072 1.353 . S
C1077 C1076 1.348 . S
C1077 H1129 0.929 . S
H1078 C1072 0.930 . S
H1079 C1075 0.930 . S
C1080 N1081 1.314 . S
C1080 C1082 1.353 . S
C1080 H1086 0.930 . S
N1081 Li1057 1.990 . S
N1081 C1080 1.314 . S
N1081 C1084 1.279 . S
C1082 C1080 1.353 . S
C1082 C1085 1.348 . S
C1082 H1130 0.929 . S
C1083 C1084 1.358 . S
C1083 C1085 1.356 . S
C1083 H1131 0.930 . S
C1084 N1081 1.279 . S
C1084 C1083 1.358 . S
C1084 H1087 0.930 . S
C1085 C1082 1.348 . S
C1085 C1083 1.356 . S
H1086 C1080 0.930 . S
H1087 C1084 0.930 . S
C1088 C1090 1.348 . S
C1088 C1091 1.356 . S
C1088 O1118 1.325 . S
N1089 C1092 1.314 . S
N1089 C1093 1.279 . S
C1090 C1088 1.348 . S
C1090 C1092 1.353 . S
C1090 H1132 0.929 . S
C1091 C1088 1.356 . S
C1091 C1093 1.358 . S
C1091 H1133 0.930 . S
C1092 N1089 1.314 . S
C1092 C1090 1.353 . S
C1092 H1134 0.930 . S
C1093 N1089 1.279 . S
C1093 C1091 1.358 . S
C1093 H1135 0.930 . S
C1094 C1095 1.348 . S
C1094 C1096 1.356 . S
C1094 O1119 1.325 . S
C1095 C1094 1.348 . S
C1095 C1097 1.353 . S
C1095 H1136 0.929 . S
C1096 C1094 1.356 . S
C1096 C1098 1.358 . S
C1096 H1137 0.930 . S
C1097 C1095 1.353 . S
C1097 N1099 1.314 . S
C1097 H1138 0.930 . S
C1098 C1096 1.358 . S
C1098 N1099 1.279 . S
C1098 H1139 0.930 . S
N1099 C1097 1.314 . S
N1099 C1098 1.279 . S
C1100 C1102 1.353 . S
C1100 N1103 1.314 . S
C1100 H1106 0.930 . S
C1101 N1103 1.279 . S
C1101 C1104 1.358 . S
C1101 H1107 0.930 . S
C1102 C1100 1.353 . S
C1102 C1105 1.348 . S
C1102 H1140 0.929 . S
N1103 Li1058 1.990 . S
N1103 C1100 1.314 . S
N1103 C1101 1.279 . S
C1104 C1101 1.358 . S
C1104 C1105 1.356 . S
C1104 H1141 0.930 . S
C1105 C1102 1.348 . S
C1105 C1104 1.356 . S
H1106 C1100 0.930 . S
H1107 C1101 0.930 . S
C1108 N1109 1.314 . S
C1108 C1110 1.353 . S
C1108 H1114 0.930 . S
N1109 Li1059 1.990 . S
N1109 C1108 1.314 . S
N1109 C1112 1.279 . S
C1110 C1108 1.353 . S
C1110 C1113 1.348 . S
C1110 H1142 0.929 . S
C1111 C1112 1.358 . S
C1111 C1113 1.356 . S
C1111 H1143 0.930 . S
C1112 N1109 1.279 . S
C1112 C1111 1.358 . S
C1112 H1115 0.930 . S
C1113 C1110 1.348 . S
C1113 C1111 1.356 . S
H1114 C1108 0.930 . S
H1115 C1112 0.930 . S
O1116 Li1056 1.956 . S
O1116 Li1057 1.970 . S
O1116 Li1058 1.961 . S
O1116 C1060 1.325 . S
O1117 Li1056 1.970 . S
O1117 Li1057 1.956 . S
O1117 Li1059 1.961 . S
O1117 C1066 1.325 . S
O1118 Li1056 1.961 . S
O1118 Li1058 1.956 . S
O1118 Li1059 1.970 . S
O1118 C1088 1.325 . S
O1119 Li1057 1.961 . S
O1119 Li1058 1.970 . S
O1119 Li1059 1.956 . S
O1119 C1094 1.325 . S
H1120 C1062 0.929 . S
H1121 C1063 0.930 . S
H1122 C1064 0.930 . S
H1123 C1065 0.930 . S
H1124 C1067 0.930 . S
H1125 C1069 0.929 . S
H1126 C1070 0.930 . S
H1127 C1071 0.930 . S
H1128 C1074 0.930 . S
H1129 C1077 0.929 . S
H1130 C1082 0.929 . S
H1131 C1083 0.930 . S
H1132 C1090 0.929 . S
H1133 C1091 0.930 . S
H1134 C1092 0.930 . S
H1135 C1093 0.930 . S
H1136 C1095 0.929 . S
H1137 C1096 0.930 . S
H1138 C1097 0.930 . S
H1139 C1098 0.930 . S
H1140 C1102 0.929 . S
H1141 C1104 0.930 . S
H1142 C1110 0.929 . S
H1143 C1111 0.930 . S
Li1144 N1161 1.990 . S
Li1144 O1204 1.956 . S
Li1144 O1205 1.970 . S
Li1144 O1206 1.961 . S
Li1145 N1169 1.990 . S
Li1145 O1204 1.970 . S
Li1145 O1205 1.956 . S
Li1145 O1207 1.961 . S
Li1146 N1191 1.990 . S
Li1146 O1204 1.961 . S
Li1146 O1206 1.956 . S
Li1146 O1207 1.970 . S
Li1147 N1197 1.990 . S
Li1147 O1205 1.961 . S
Li1147 O1206 1.970 . S
Li1147 O1207 1.956 . S
C1148 C1150 1.348 1_455 S
C1148 C1151 1.356 1_455 S
C1148 O1204 1.325 . S
N1149 C1152 1.314 . S
N1149 C1153 1.279 . S
C1150 C1148 1.348 1_655 S
C1150 C1152 1.353 . S
C1150 H1208 0.929 1_655 S
C1151 C1148 1.356 1_655 S
C1151 C1153 1.358 . S
C1151 H1209 0.930 . S
C1152 N1149 1.314 . S
C1152 C1150 1.353 . S
C1152 H1210 0.930 . S
C1153 N1149 1.279 . S
C1153 C1151 1.358 . S
C1153 H1211 0.930 . S
C1154 C1157 1.348 . S
C1154 C1158 1.356 . S
C1154 O1205 1.325 . S
C1155 N1156 1.279 . S
C1155 C1158 1.358 . S
C1155 H1212 0.930 . S
N1156 C1155 1.279 . S
N1156 C1159 1.314 . S
C1157 C1154 1.348 . S
C1157 C1159 1.353 . S
C1157 H1213 0.929 . S
C1158 C1154 1.356 . S
C1158 C1155 1.358 . S
C1158 H1214 0.930 . S
C1159 N1156 1.314 . S
C1159 C1157 1.353 . S
C1159 H1215 0.930 . S
C1160 N1161 1.314 . S
C1160 C1165 1.353 . S
C1160 H1166 0.930 . S
N1161 Li1144 1.990 . S
N1161 C1160 1.314 . S
N1161 C1163 1.279 . S
C1162 C1163 1.358 1_655 S
C1162 C1164 1.356 1_655 S
C1162 H1216 0.930 . S
C1163 N1161 1.279 . S
C1163 C1162 1.358 1_455 S
C1163 H1167 0.923 1_455 S
C1164 C1162 1.356 1_455 S
C1164 C1165 1.348 . S
C1165 C1160 1.353 . S
C1165 C1164 1.348 . S
C1165 H1217 0.929 . S
H1166 C1160 0.930 . S
H1167 C1163 0.923 1_655 S
C1168 N1169 1.314 . S
C1168 C1170 1.353 . S
C1168 H1174 0.930 . S
N1169 Li1145 1.990 . S
N1169 C1168 1.314 . S
N1169 C1172 1.279 . S
C1170 C1168 1.353 . S
C1170 C1173 1.348 . S
C1170 H1218 0.929 . S
C1171 C1172 1.358 . S
C1171 C1173 1.356 . S
C1171 H1219 0.930 . S
C1172 N1169 1.279 . S
C1172 C1171 1.358 . S
C1172 H1175 0.930 . S
C1173 C1170 1.348 . S
C1173 C1171 1.356 . S
H1174 C1168 0.930 . S
H1175 C1172 0.930 . S
C1176 C1178 1.348 . S
C1176 C1179 1.356 . S
C1176 O1206 1.325 . S
N1177 C1180 1.314 . S
N1177 C1181 1.279 . S
C1178 C1176 1.348 . S
C1178 C1180 1.353 . S
C1178 H1220 0.929 . S
C1179 C1176 1.356 . S
C1179 C1181 1.358 . S
C1179 H1221 0.930 . S
C1180 N1177 1.314 . S
C1180 C1178 1.353 . S
C1180 H1222 0.930 . S
C1181 N1177 1.279 . S
C1181 C1179 1.358 . S
C1181 H1223 0.930 . S
C1182 C1183 1.348 . S
C1182 C1184 1.356 . S
C1182 O1207 1.325 . S
C1183 C1182 1.348 . S
C1183 C1185 1.353 . S
C1183 H1224 0.929 . S
C1184 C1182 1.356 . S
C1184 C1186 1.358 . S
C1184 H1225 0.930 . S
C1185 C1183 1.353 . S
C1185 N1187 1.314 . S
C1185 H1226 0.930 . S
C1186 C1184 1.358 . S
C1186 N1187 1.279 . S
C1186 H1227 0.930 . S
N1187 C1185 1.314 . S
N1187 C1186 1.279 . S
C1188 C1190 1.353 . S
C1188 N1191 1.314 . S
C1188 H1194 0.930 . S
C1189 N1191 1.279 . S
C1189 C1192 1.358 . S
C1189 H1195 0.930 . S
C1190 C1188 1.353 . S
C1190 C1193 1.348 . S
C1190 H1228 0.929 1_455 S
N1191 Li1146 1.990 . S
N1191 C1188 1.314 . S
N1191 C1189 1.279 . S
C1192 C1189 1.358 . S
C1192 C1193 1.356 . S
C1192 H1229 0.930 . S
C1193 C1190 1.348 . S
C1193 C1192 1.356 . S
H1194 C1188 0.930 . S
H1195 C1189 0.930 . S
C1196 N1197 1.314 . S
C1196 C1198 1.353 . S
C1196 H1202 0.930 . S
N1197 Li1147 1.990 . S
N1197 C1196 1.314 . S
N1197 C1200 1.279 . S
C1198 C1196 1.353 . S
C1198 C1201 1.348 . S
C1198 H1230 0.929 . S
C1199 C1200 1.358 . S
C1199 C1201 1.356 . S
C1199 H1231 0.930 . S
C1200 N1197 1.279 . S
C1200 C1199 1.358 . S
C1200 H1203 0.930 . S
C1201 C1198 1.348 . S
C1201 C1199 1.356 . S
H1202 C1196 0.930 . S
H1203 C1200 0.930 . S
O1204 Li1144 1.956 . S
O1204 Li1145 1.970 . S
O1204 Li1146 1.961 . S
O1204 C1148 1.325 . S
O1205 Li1144 1.970 . S
O1205 Li1145 1.956 . S
O1205 Li1147 1.961 . S
O1205 C1154 1.325 . S
O1206 Li1144 1.961 . S
O1206 Li1146 1.956 . S
O1206 Li1147 1.970 . S
O1206 C1176 1.325 . S
O1207 Li1145 1.961 . S
O1207 Li1146 1.970 . S
O1207 Li1147 1.956 . S
O1207 C1182 1.325 . S
H1208 C1150 0.929 1_455 S
H1209 C1151 0.930 . S
H1210 C1152 0.930 . S
H1211 C1153 0.930 . S
H1212 C1155 0.930 . S
H1213 C1157 0.929 . S
H1214 C1158 0.930 . S
H1215 C1159 0.930 . S
H1216 C1162 0.930 . S
H1217 C1165 0.929 . S
H1218 C1170 0.929 . S
H1219 C1171 0.930 . S
H1220 C1178 0.929 . S
H1221 C1179 0.930 . S
H1222 C1180 0.930 . S
H1223 C1181 0.930 . S
H1224 C1183 0.929 . S
H1225 C1184 0.930 . S
H1226 C1185 0.930 . S
H1227 C1186 0.930 . S
H1228 C1190 0.929 1_655 S
H1229 C1192 0.930 . S
H1230 C1198 0.929 . S
H1231 C1199 0.930 . S
Li1232 N1249 1.990 . S
Li1232 O1292 1.956 . S
Li1232 O1293 1.970 . S
Li1232 O1294 1.961 . S
Li1233 N1257 1.990 . S
Li1233 O1292 1.970 . S
Li1233 O1293 1.956 . S
Li1233 O1295 1.961 . S
Li1234 N1279 1.990 . S
Li1234 O1292 1.961 . S
Li1234 O1294 1.956 . S
Li1234 O1295 1.970 . S
Li1235 N1285 1.990 . S
Li1235 O1293 1.961 . S
Li1235 O1294 1.970 . S
Li1235 O1295 1.956 . S
C1236 C1238 1.348 . S
C1236 C1239 1.356 . S
C1236 O1292 1.325 . S
N1237 C1240 1.314 . S
N1237 C1241 1.279 . S
C1238 C1236 1.348 . S
C1238 C1240 1.353 . S
C1238 H1296 0.929 . S
C1239 C1236 1.356 . S
C1239 C1241 1.358 . S
C1239 H1297 0.930 . S
C1240 N1237 1.314 . S
C1240 C1238 1.353 . S
C1240 H1298 0.930 . S
C1241 N1237 1.279 . S
C1241 C1239 1.358 . S
C1241 H1299 0.930 . S
C1242 C1245 1.348 . S
C1242 C1246 1.356 . S
C1242 O1293 1.325 . S
C1243 N1244 1.279 . S
C1243 C1246 1.358 . S
C1243 H1300 0.930 . S
N1244 C1243 1.279 . S
N1244 C1247 1.314 . S
C1245 C1242 1.348 . S
C1245 C1247 1.353 . S
C1245 H1301 0.929 . S
C1246 C1242 1.356 . S
C1246 C1243 1.358 . S
C1246 H1302 0.930 . S
C1247 N1244 1.314 . S
C1247 C1245 1.353 . S
C1247 H1303 0.930 . S
C1248 N1249 1.314 . S
C1248 C1253 1.353 . S
C1248 H1254 0.930 . S
N1249 Li1232 1.990 . S
N1249 C1248 1.314 . S
N1249 C1251 1.279 . S
C1250 C1251 1.358 . S
C1250 C1252 1.356 . S
C1250 H1304 0.930 . S
C1251 N1249 1.279 . S
C1251 C1250 1.358 . S
C1251 H1255 0.930 . S
C1252 C1250 1.356 . S
C1252 C1253 1.348 . S
C1253 C1248 1.353 . S
C1253 C1252 1.348 . S
C1253 H1305 0.929 . S
H1254 C1248 0.930 . S
H1255 C1251 0.930 . S
C1256 N1257 1.314 . S
C1256 C1258 1.353 . S
C1256 H1262 0.930 . S
N1257 Li1233 1.990 . S
N1257 C1256 1.314 . S
N1257 C1260 1.279 . S
C1258 C1256 1.353 . S
C1258 C1261 1.348 . S
C1258 H1306 0.929 1_655 S
C1259 C1260 1.358 . S
C1259 C1261 1.356 . S
C1259 H1307 0.930 . S
C1260 N1257 1.279 . S
C1260 C1259 1.358 . S
C1260 H1263 0.930 . S
C1261 C1258 1.348 . S
C1261 C1259 1.356 . S
H1262 C1256 0.930 . S
H1263 C1260 0.930 . S
C1264 C1266 1.348 . S
C1264 C1267 1.356 . S
C1264 O1294 1.325 . S
N1265 C1268 1.314 . S
N1265 C1269 1.279 . S
C1266 C1264 1.348 . S
C1266 C1268 1.353 . S
C1266 H1308 0.929 . S
C1267 C1264 1.356 . S
C1267 C1269 1.358 . S
C1267 H1309 0.930 . S
C1268 N1265 1.314 . S
C1268 C1266 1.353 . S
C1268 H1310 0.930 . S
C1269 N1265 1.279 . S
C1269 C1267 1.358 . S
C1269 H1311 0.930 . S
C1270 C1271 1.348 1_655 S
C1270 C1272 1.356 1_655 S
C1270 O1295 1.325 . S
C1271 C1270 1.348 1_455 S
C1271 C1273 1.353 . S
C1271 H1312 0.929 1_455 S
C1272 C1270 1.356 1_455 S
C1272 C1274 1.358 . S
C1272 H1313 0.930 . S
C1273 C1271 1.353 . S
C1273 N1275 1.314 . S
C1273 H1314 0.930 . S
C1274 C1272 1.358 . S
C1274 N1275 1.279 . S
C1274 H1315 0.930 . S
N1275 C1273 1.314 . S
N1275 C1274 1.279 . S
C1276 C1278 1.353 . S
C1276 N1279 1.314 . S
C1276 H1282 0.930 . S
C1277 N1279 1.279 . S
C1277 C1280 1.358 . S
C1277 H1283 0.930 . S
C1278 C1276 1.353 . S
C1278 C1281 1.348 . S
C1278 H1316 0.929 . S
N1279 Li1234 1.990 . S
N1279 C1276 1.314 . S
N1279 C1277 1.279 . S
C1280 C1277 1.358 . S
C1280 C1281 1.356 . S
C1280 H1317 0.930 . S
C1281 C1278 1.348 . S
C1281 C1280 1.356 . S
H1282 C1276 0.930 . S
H1283 C1277 0.930 . S
C1284 N1285 1.314 . S
C1284 C1286 1.353 . S
C1284 H1290 0.930 . S
N1285 Li1235 1.990 . S
N1285 C1284 1.314 . S
N1285 C1288 1.279 . S
C1286 C1284 1.353 . S
C1286 C1289 1.348 . S
C1286 H1318 0.929 . S
C1287 C1288 1.358 1_455 S
C1287 C1289 1.356 1_455 S
C1287 H1319 0.930 . S
C1288 N1285 1.279 . S
C1288 C1287 1.358 1_655 S
C1288 H1291 0.923 1_655 S
C1289 C1286 1.348 . S
C1289 C1287 1.356 1_655 S
H1290 C1284 0.930 . S
H1291 C1288 0.923 1_455 S
O1292 Li1232 1.956 . S
O1292 Li1233 1.970 . S
O1292 Li1234 1.961 . S
O1292 C1236 1.325 . S
O1293 Li1232 1.970 . S
O1293 Li1233 1.956 . S
O1293 Li1235 1.961 . S
O1293 C1242 1.325 . S
O1294 Li1232 1.961 . S
O1294 Li1234 1.956 . S
O1294 Li1235 1.970 . S
O1294 C1264 1.325 . S
O1295 Li1233 1.961 . S
O1295 Li1234 1.970 . S
O1295 Li1235 1.956 . S
O1295 C1270 1.325 . S
H1296 C1238 0.929 . S
H1297 C1239 0.930 . S
H1298 C1240 0.930 . S
H1299 C1241 0.930 . S
H1300 C1243 0.930 . S
H1301 C1245 0.929 . S
H1302 C1246 0.930 . S
H1303 C1247 0.930 . S
H1304 C1250 0.930 . S
H1305 C1253 0.929 . S
H1306 C1258 0.929 1_455 S
H1307 C1259 0.930 . S
H1308 C1266 0.929 . S
H1309 C1267 0.930 . S
H1310 C1268 0.930 . S
H1311 C1269 0.930 . S
H1312 C1271 0.929 1_655 S
H1313 C1272 0.930 . S
H1314 C1273 0.930 . S
H1315 C1274 0.930 . S
H1316 C1278 0.929 . S
H1317 C1280 0.930 . S
H1318 C1286 0.929 . S
H1319 C1287 0.930 . S
Li1320 N1337 1.990 . S
Li1320 O1380 1.956 . S
Li1320 O1381 1.970 . S
Li1320 O1382 1.961 . S
Li1321 N1345 1.990 . S
Li1321 O1380 1.970 . S
Li1321 O1381 1.956 . S
Li1321 O1383 1.961 . S
Li1322 N1367 1.990 . S
Li1322 O1380 1.961 . S
Li1322 O1382 1.956 . S
Li1322 O1383 1.970 . S
Li1323 N1373 1.990 . S
Li1323 O1381 1.961 . S
Li1323 O1382 1.970 . S
Li1323 O1383 1.956 . S
C1324 C1326 1.348 . S
C1324 C1327 1.356 . S
C1324 O1380 1.325 . S
N1325 C1328 1.314 . S
N1325 C1329 1.279 . S
C1326 C1324 1.348 . S
C1326 C1328 1.353 . S
C1326 H1384 0.929 . S
C1327 C1324 1.356 . S
C1327 C1329 1.358 . S
C1327 H1385 0.930 . S
C1328 N1325 1.314 . S
C1328 C1326 1.353 . S
C1328 H1386 0.930 . S
C1329 N1325 1.279 . S
C1329 C1327 1.358 . S
C1329 H1387 0.930 . S
C1330 C1333 1.348 . S
C1330 C1334 1.356 . S
C1330 O1381 1.325 . S
C1331 N1332 1.279 . S
C1331 C1334 1.358 . S
C1331 H1388 0.930 . S
N1332 C1331 1.279 . S
N1332 C1335 1.314 . S
C1333 C1330 1.348 . S
C1333 C1335 1.353 . S
C1333 H1389 0.929 . S
C1334 C1330 1.356 . S
C1334 C1331 1.358 . S
C1334 H1390 0.930 . S
C1335 N1332 1.314 . S
C1335 C1333 1.353 . S
C1335 H1391 0.930 . S
C1336 N1337 1.314 . S
C1336 C1341 1.353 . S
C1336 H1342 0.930 . S
N1337 Li1320 1.990 . S
N1337 C1336 1.314 . S
N1337 C1339 1.279 . S
C1338 C1339 1.358 . S
C1338 C1340 1.356 . S
C1338 H1392 0.930 . S
C1339 N1337 1.279 . S
C1339 C1338 1.358 . S
C1339 H1343 0.930 . S
C1340 C1338 1.356 . S
C1340 C1341 1.348 . S
C1341 C1336 1.353 . S
C1341 C1340 1.348 . S
C1341 H1393 0.929 . S
H1342 C1336 0.930 . S
H1343 C1339 0.930 . S
C1344 N1345 1.314 . S
C1344 C1346 1.353 . S
C1344 H1350 0.930 . S
N1345 Li1321 1.990 . S
N1345 C1344 1.314 . S
N1345 C1348 1.279 . S
C1346 C1344 1.353 . S
C1346 C1349 1.348 . S
C1346 H1394 0.929 . S
C1347 C1348 1.358 . S
C1347 C1349 1.356 . S
C1347 H1395 0.930 . S
C1348 N1345 1.279 . S
C1348 C1347 1.358 . S
C1348 H1351 0.930 . S
C1349 C1346 1.348 . S
C1349 C1347 1.356 . S
H1350 C1344 0.930 . S
H1351 C1348 0.930 . S
C1352 C1354 1.348 . S
C1352 C1355 1.356 . S
C1352 O1382 1.325 . S
N1353 C1356 1.314 . S
N1353 C1357 1.279 . S
C1354 C1352 1.348 . S
C1354 C1356 1.353 . S
C1354 H1396 0.929 . S
C1355 C1352 1.356 . S
C1355 C1357 1.358 . S
C1355 H1397 0.930 . S
C1356 N1353 1.314 . S
C1356 C1354 1.353 . S
C1356 H1398 0.930 . S
C1357 N1353 1.279 . S
C1357 C1355 1.358 . S
C1357 H1399 0.930 . S
C1358 C1359 1.348 . S
C1358 C1360 1.356 . S
C1358 O1383 1.325 . S
C1359 C1358 1.348 . S
C1359 C1361 1.353 . S
C1359 H1400 0.929 . S
C1360 C1358 1.356 . S
C1360 C1362 1.358 . S
C1360 H1401 0.930 . S
C1361 C1359 1.353 . S
C1361 N1363 1.314 . S
C1361 H1402 0.930 . S
C1362 C1360 1.358 . S
C1362 N1363 1.279 . S
C1362 H1403 0.930 . S
N1363 C1361 1.314 . S
N1363 C1362 1.279 . S
C1364 C1366 1.353 . S
C1364 N1367 1.314 . S
C1364 H1370 0.930 . S
C1365 N1367 1.279 . S
C1365 C1368 1.358 . S
C1365 H1371 0.930 . S
C1366 C1364 1.353 . S
C1366 C1369 1.348 . S
C1366 H1404 0.929 . S
N1367 Li1322 1.990 . S
N1367 C1364 1.314 . S
N1367 C1365 1.279 . S
C1368 C1365 1.358 . S
C1368 C1369 1.356 . S
C1368 H1405 0.930 . S
C1369 C1366 1.348 . S
C1369 C1368 1.356 . S
H1370 C1364 0.930 . S
H1371 C1365 0.930 . S
C1372 N1373 1.314 . S
C1372 C1374 1.353 . S
C1372 H1378 0.930 . S
N1373 Li1323 1.990 . S
N1373 C1372 1.314 . S
N1373 C1376 1.279 . S
C1374 C1372 1.353 . S
C1374 C1377 1.348 . S
C1374 H1406 0.929 . S
C1375 C1376 1.358 . S
C1375 C1377 1.356 . S
C1375 H1407 0.930 . S
C1376 N1373 1.279 . S
C1376 C1375 1.358 . S
C1376 H1379 0.930 . S
C1377 C1374 1.348 . S
C1377 C1375 1.356 . S
H1378 C1372 0.930 . S
H1379 C1376 0.930 . S
O1380 Li1320 1.956 . S
O1380 Li1321 1.970 . S
O1380 Li1322 1.961 . S
O1380 C1324 1.325 . S
O1381 Li1320 1.970 . S
O1381 Li1321 1.956 . S
O1381 Li1323 1.961 . S
O1381 C1330 1.325 . S
O1382 Li1320 1.961 . S
O1382 Li1322 1.956 . S
O1382 Li1323 1.970 . S
O1382 C1352 1.325 . S
O1383 Li1321 1.961 . S
O1383 Li1322 1.970 . S
O1383 Li1323 1.956 . S
O1383 C1358 1.325 . S
H1384 C1326 0.929 . S
H1385 C1327 0.930 . S
H1386 C1328 0.930 . S
H1387 C1329 0.930 . S
H1388 C1331 0.930 . S
H1389 C1333 0.929 . S
H1390 C1334 0.930 . S
H1391 C1335 0.930 . S
H1392 C1338 0.930 . S
H1393 C1341 0.929 . S
H1394 C1346 0.929 . S
H1395 C1347 0.930 . S
H1396 C1354 0.929 . S
H1397 C1355 0.930 . S
H1398 C1356 0.930 . S
H1399 C1357 0.930 . S
H1400 C1359 0.929 . S
H1401 C1360 0.930 . S
H1402 C1361 0.930 . S
H1403 C1362 0.930 . S
H1404 C1366 0.929 . S
H1405 C1368 0.930 . S
H1406 C1374 0.929 . S
H1407 C1375 0.930 . S
C1408 C1409 1.391 . S
C1408 C1410 1.394 . S
C1408 H1424 0.931 . S
C1409 C1408 1.391 . S
C1409 C1413 1.376 1_565 S
C1410 C1408 1.394 . S
C1410 C1411 1.369 . S
C1410 C1414 1.531 . S
C1411 C1410 1.369 . S
C1411 C1412 1.410 1_565 S
C1411 C1419 1.503 1_565 S
C1412 C1411 1.410 1_545 S
C1412 C1413 1.392 . S
C1412 C1415 1.511 . S
C1413 C1409 1.376 1_545 S
C1413 C1412 1.392 . S
C1413 H1425 0.929 . S
C1414 C1410 1.531 . S
C1414 H1426 0.960 . S
C1414 H1427 0.962 . S
C1414 H1428 0.960 . S
C1415 C1412 1.511 . S
C1415 H1429 0.961 . S
C1415 H1430 0.961 . S
C1415 H1431 0.961 . S
C1416 C1417 1.370 . S
C1416 C1418 1.363 . S
C1416 H1432 0.931 . S
C1417 C1416 1.370 . S
C1417 C1421 1.408 . S
C1418 C1416 1.363 . S
C1418 C1419 1.370 . S
C1418 C1422 1.524 . S
C1419 C1411 1.503 1_545 S
C1419 C1418 1.370 . S
C1419 C1420 1.403 . S
C1420 C1419 1.403 . S
C1420 C1421 1.404 . S
C1420 C1423 1.539 . S
C1421 C1417 1.408 . S
C1421 C1420 1.404 . S
C1421 H1433 0.930 . S
C1422 C1418 1.524 . S
C1422 H1434 0.956 1_545 S
C1422 H1435 0.961 . S
C1422 H1436 0.961 . S
C1423 C1420 1.539 . S
C1423 H1437 0.958 1_545 S
C1423 H1438 0.961 . S
C1423 H1439 0.960 . S
H1424 C1408 0.931 . S
H1425 C1413 0.929 . S
H1426 C1414 0.960 . S
H1427 C1414 0.962 . S
H1428 C1414 0.960 . S
H1429 C1415 0.961 . S
H1430 C1415 0.961 . S
H1431 C1415 0.961 . S
H1432 C1416 0.931 . S
H1433 C1421 0.930 . S
H1434 C1422 0.956 1_565 S
H1435 C1422 0.961 . S
H1436 C1422 0.961 . S
H1437 C1423 0.958 1_565 S
H1438 C1423 0.961 . S
H1439 C1423 0.960 . S
C1440 C1441 1.391 . S
C1440 C1442 1.394 . S
C1440 H1456 0.931 . S
C1441 C1440 1.391 . S
C1441 C1445 1.376 1_565 S
C1442 C1440 1.394 . S
C1442 C1443 1.369 . S
C1442 C1446 1.531 . S
C1443 C1442 1.369 . S
C1443 C1444 1.410 1_565 S
C1443 C1451 1.503 1_565 S
C1444 C1443 1.410 1_545 S
C1444 C1445 1.392 . S
C1444 C1447 1.511 . S
C1445 C1441 1.376 1_545 S
C1445 C1444 1.392 . S
C1445 H1457 0.929 . S
C1446 C1442 1.531 . S
C1446 H1458 0.960 . S
C1446 H1459 0.962 . S
C1446 H1460 0.960 . S
C1447 C1444 1.511 . S
C1447 H1461 0.961 . S
C1447 H1462 0.961 . S
C1447 H1463 0.961 . S
C1448 C1449 1.370 . S
C1448 C1450 1.369 . S
C1448 H1464 0.931 . S
C1449 C1448 1.370 . S
C1449 C1453 1.408 . S
C1450 C1448 1.369 . S
C1450 C1451 1.375 . S
C1450 C1454 1.514 1_545 S
C1451 C1443 1.503 1_545 S
C1451 C1450 1.375 . S
C1451 C1452 1.403 . S
C1452 C1451 1.403 . S
C1452 C1453 1.404 . S
C1452 C1455 1.539 . S
C1453 C1449 1.408 . S
C1453 C1452 1.404 . S
C1453 H1465 0.930 . S
C1454 C1450 1.514 1_565 S
C1454 H1466 0.956 . S
C1454 H1467 0.961 . S
C1454 H1468 0.961 . S
C1455 C1452 1.539 . S
C1455 H1469 0.958 . S
C1455 H1470 0.961 . S
C1455 H1471 0.960 . S
H1456 C1440 0.931 . S
H1457 C1445 0.929 . S
H1458 C1446 0.960 . S
H1459 C1446 0.962 . S
H1460 C1446 0.960 . S
H1461 C1447 0.961 . S
H1462 C1447 0.961 . S
H1463 C1447 0.961 . S
H1464 C1448 0.931 . S
H1465 C1453 0.930 . S
H1466 C1454 0.956 . S
H1467 C1454 0.961 . S
H1468 C1454 0.961 . S
H1469 C1455 0.958 . S
H1470 C1455 0.961 . S
H1471 C1455 0.960 . S
C1472 C1473 1.391 . S
C1472 C1474 1.394 1_565 S
C1472 H1488 0.929 1_565 S
C1473 C1472 1.391 . S
C1473 C1477 1.376 . S
C1474 C1472 1.394 1_545 S
C1474 C1475 1.368 1_545 S
C1474 C1478 1.531 . S
C1475 C1474 1.368 1_565 S
C1475 C1476 1.413 . S
C1475 C1483 1.502 1_565 S
C1476 C1475 1.413 . S
C1476 C1477 1.392 . S
C1476 C1479 1.511 . S
C1477 C1473 1.376 . S
C1477 C1476 1.392 . S
C1477 H1489 0.929 . S
C1478 C1474 1.531 . S
C1478 H1490 0.960 . S
C1478 H1491 0.962 . S
C1478 H1492 0.960 . S
C1479 C1476 1.511 . S
C1479 H1493 0.961 . S
C1479 H1494 0.961 . S
C1479 H1495 0.961 . S
C1480 C1481 1.370 . S
C1480 C1482 1.363 1_545 S
C1480 H1496 0.931 1_545 S
C1481 C1480 1.370 . S
C1481 C1485 1.408 . S
C1482 C1480 1.363 1_565 S
C1482 C1483 1.370 1_565 S
C1482 C1486 1.524 . S
C1483 C1475 1.502 1_545 S
C1483 C1482 1.370 1_545 S
C1483 C1484 1.403 . S
C1484 C1483 1.403 . S
C1484 C1485 1.404 . S
C1484 C1487 1.539 . S
C1485 C1481 1.408 . S
C1485 C1484 1.404 . S
C1485 H1497 0.930 . S
C1486 C1482 1.524 . S
C1486 H1498 0.956 . S
C1486 H1499 0.961 . S
C1486 H1500 0.961 . S
C1487 C1484 1.539 . S
C1487 H1501 0.958 . S
C1487 H1502 0.961 . S
C1487 H1503 0.960 . S
H1488 C1472 0.929 1_545 S
H1489 C1477 0.929 . S
H1490 C1478 0.960 . S
H1491 C1478 0.962 . S
H1492 C1478 0.960 . S
H1493 C1479 0.961 . S
H1494 C1479 0.961 . S
H1495 C1479 0.961 . S
H1496 C1480 0.931 1_565 S
H1497 C1485 0.930 . S
H1498 C1486 0.956 . S
H1499 C1486 0.961 . S
H1500 C1486 0.961 . S
H1501 C1487 0.958 . S
H1502 C1487 0.961 . S
H1503 C1487 0.960 . S
C1504 C1505 1.391 . S
C1504 C1506 1.394 . S
C1504 H1520 0.931 . S
C1505 C1504 1.391 . S
C1505 C1509 1.376 1_565 S
C1506 C1504 1.394 . S
C1506 C1507 1.369 . S
C1506 C1510 1.531 . S
C1507 C1506 1.369 . S
C1507 C1508 1.410 1_565 S
C1507 C1515 1.503 1_565 S
C1508 C1507 1.410 1_545 S
C1508 C1509 1.392 . S
C1508 C1511 1.511 . S
C1509 C1505 1.376 1_545 S
C1509 C1508 1.392 . S
C1509 H1521 0.929 . S
C1510 C1506 1.531 . S
C1510 H1522 0.960 . S
C1510 H1523 0.962 . S
C1510 H1524 0.960 . S
C1511 C1508 1.511 . S
C1511 H1525 0.961 . S
C1511 H1526 0.961 . S
C1511 H1527 0.961 . S
C1512 C1513 1.370 . S
C1512 C1514 1.363 . S
C1512 H1528 0.931 . S
C1513 C1512 1.370 . S
C1513 C1517 1.408 . S
C1514 C1512 1.363 . S
C1514 C1515 1.370 . S
C1514 C1518 1.524 1_545 S
C1515 C1507 1.503 1_545 S
C1515 C1514 1.370 . S
C1515 C1516 1.403 . S
C1516 C1515 1.403 . S
C1516 C1517 1.404 . S
C1516 C1519 1.539 . S
C1517 C1513 1.408 . S
C1517 C1516 1.404 . S
C1517 H1529 0.930 . S
C1518 C1514 1.524 1_565 S
C1518 H1530 0.956 . S
C1518 H1531 0.957 1_565 S
C1518 H1532 0.961 . S
C1519 C1516 1.539 . S
C1519 H1533 0.958 . S
C1519 H1534 0.961 . S
C1519 H1535 0.960 . S
H1520 C1504 0.931 . S
H1521 C1509 0.929 . S
H1522 C1510 0.960 . S
H1523 C1510 0.962 . S
H1524 C1510 0.960 . S
H1525 C1511 0.961 . S
H1526 C1511 0.961 . S
H1527 C1511 0.961 . S
H1528 C1512 0.931 . S
H1529 C1517 0.930 . S
H1530 C1518 0.956 . S
H1531 C1518 0.957 1_545 S
H1532 C1518 0.961 . S
H1533 C1519 0.958 . S
H1534 C1519 0.961 . S
H1535 C1519 0.960 . S
C1536 C1537 1.391 . S
C1536 C1538 1.394 . S
C1536 H1552 0.931 . S
C1537 C1536 1.391 . S
C1537 C1541 1.376 . S
C1538 C1536 1.394 . S
C1538 C1539 1.369 . S
C1538 C1542 1.531 . S
C1539 C1538 1.369 . S
C1539 C1540 1.410 . S
C1539 C1547 1.503 . S
C1540 C1539 1.410 . S
C1540 C1541 1.392 . S
C1540 C1543 1.511 . S
C1541 C1537 1.376 . S
C1541 C1540 1.392 . S
C1541 H1553 0.929 . S
C1542 C1538 1.531 . S
C1542 H1554 0.960 . S
C1542 H1555 0.962 . S
C1542 H1556 0.960 . S
C1543 C1540 1.511 . S
C1543 H1557 0.961 . S
C1543 H1558 0.961 . S
C1543 H1559 0.961 . S
C1544 C1545 1.370 . S
C1544 C1546 1.363 . S
C1544 H1560 0.931 . S
C1545 C1544 1.370 . S
C1545 C1549 1.408 . S
C1546 C1544 1.363 . S
C1546 C1547 1.370 . S
C1546 C1550 1.524 . S
C1547 C1539 1.503 . S
C1547 C1546 1.370 . S
C1547 C1548 1.403 . S
C1548 C1547 1.403 . S
C1548 C1549 1.404 . S
C1548 C1551 1.539 . S
C1549 C1545 1.408 . S
C1549 C1548 1.404 . S
C1549 H1561 0.930 . S
C1550 C1546 1.524 . S
C1550 H1562 0.956 . S
C1550 H1563 0.961 . S
C1550 H1564 0.961 . S
C1551 C1548 1.539 . S
C1551 H1565 0.958 . S
C1551 H1566 0.961 . S
C1551 H1567 0.960 . S
H1552 C1536 0.931 . S
H1553 C1541 0.929 . S
H1554 C1542 0.960 . S
H1555 C1542 0.962 . S
H1556 C1542 0.960 . S
H1557 C1543 0.961 . S
H1558 C1543 0.961 . S
H1559 C1543 0.961 . S
H1560 C1544 0.931 . S
H1561 C1549 0.930 . S
H1562 C1550 0.956 . S
H1563 C1550 0.961 . S
H1564 C1550 0.961 . S
H1565 C1551 0.958 . S
H1566 C1551 0.961 . S
H1567 C1551 0.960 . S
C1568 C1569 1.391 . S
C1568 C1570 1.394 . S
C1568 H1584 0.931 . S
C1569 C1568 1.391 . S
C1569 C1573 1.376 . S
C1570 C1568 1.394 . S
C1570 C1571 1.369 . S
C1570 C1574 1.531 . S
C1571 C1570 1.369 . S
C1571 C1572 1.410 . S
C1571 C1579 1.503 . S
C1572 C1571 1.410 . S
C1572 C1573 1.392 . S
C1572 C1575 1.511 . S
C1573 C1569 1.376 . S
C1573 C1572 1.392 . S
C1573 H1585 0.929 . S
C1574 C1570 1.531 . S
C1574 H1586 0.960 . S
C1574 H1587 0.962 . S
C1574 H1588 0.960 . S
C1575 C1572 1.511 . S
C1575 H1589 0.961 . S
C1575 H1590 0.961 . S
C1575 H1591 0.961 . S
C1576 C1577 1.370 . S
C1576 C1578 1.363 . S
C1576 H1592 0.931 . S
C1577 C1576 1.370 . S
C1577 C1581 1.408 . S
C1578 C1576 1.363 . S
C1578 C1579 1.370 . S
C1578 C1582 1.524 . S
C1579 C1571 1.503 . S
C1579 C1578 1.370 . S
C1579 C1580 1.403 . S
C1580 C1579 1.403 . S
C1580 C1581 1.404 . S
C1580 C1583 1.539 . S
C1581 C1577 1.408 . S
C1581 C1580 1.404 . S
C1581 H1593 0.930 . S
C1582 C1578 1.524 . S
C1582 H1594 0.956 . S
C1582 H1595 0.961 . S
C1582 H1596 0.961 . S
C1583 C1580 1.539 . S
C1583 H1597 0.958 . S
C1583 H1598 0.961 . S
C1583 H1599 0.960 . S
H1584 C1568 0.931 . S
H1585 C1573 0.929 . S
H1586 C1574 0.960 . S
H1587 C1574 0.962 . S
H1588 C1574 0.960 . S
H1589 C1575 0.961 . S
H1590 C1575 0.961 . S
H1591 C1575 0.961 . S
H1592 C1576 0.931 . S
H1593 C1581 0.930 . S
H1594 C1582 0.956 . S
H1595 C1582 0.961 . S
H1596 C1582 0.961 . S
H1597 C1583 0.958 . S
H1598 C1583 0.961 . S
H1599 C1583 0.960 . S
C1600 C1601 1.391 . S
C1600 C1602 1.394 . S
C1600 H1616 0.931 . S
C1601 C1600 1.391 . S
C1601 C1605 1.376 . S
C1602 C1600 1.394 . S
C1602 C1603 1.369 . S
C1602 C1606 1.531 . S
C1603 C1602 1.369 . S
C1603 C1604 1.410 . S
C1603 C1611 1.503 . S
C1604 C1603 1.410 . S
C1604 C1605 1.392 . S
C1604 C1607 1.511 . S
C1605 C1601 1.376 . S
C1605 C1604 1.392 . S
C1605 H1617 0.929 . S
C1606 C1602 1.531 . S
C1606 H1618 0.960 . S
C1606 H1619 0.962 . S
C1606 H1620 0.960 . S
C1607 C1604 1.511 . S
C1607 H1621 0.961 . S
C1607 H1622 0.961 . S
C1607 H1623 0.961 . S
C1608 C1609 1.370 . S
C1608 C1610 1.363 . S
C1608 H1624 0.931 . S
C1609 C1608 1.370 . S
C1609 C1613 1.408 . S
C1610 C1608 1.363 . S
C1610 C1611 1.370 . S
C1610 C1614 1.524 . S
C1611 C1603 1.503 . S
C1611 C1610 1.370 . S
C1611 C1612 1.403 . S
C1612 C1611 1.403 . S
C1612 C1613 1.404 . S
C1612 C1615 1.539 . S
C1613 C1609 1.408 . S
C1613 C1612 1.404 . S
C1613 H1625 0.930 . S
C1614 C1610 1.524 . S
C1614 H1626 0.956 . S
C1614 H1627 0.961 . S
C1614 H1628 0.961 . S
C1615 C1612 1.539 . S
C1615 H1629 0.958 . S
C1615 H1630 0.961 . S
C1615 H1631 0.960 . S
H1616 C1600 0.931 . S
H1617 C1605 0.929 . S
H1618 C1606 0.960 . S
H1619 C1606 0.962 . S
H1620 C1606 0.960 . S
H1621 C1607 0.961 . S
H1622 C1607 0.961 . S
H1623 C1607 0.961 . S
H1624 C1608 0.931 . S
H1625 C1613 0.930 . S
H1626 C1614 0.956 . S
H1627 C1614 0.961 . S
H1628 C1614 0.961 . S
H1629 C1615 0.958 . S
H1630 C1615 0.961 . S
H1631 C1615 0.960 . S
C1632 C1633 1.391 . S
C1632 C1634 1.394 . S
C1632 H1648 0.931 . S
C1633 C1632 1.391 . S
C1633 C1637 1.376 . S
C1634 C1632 1.394 . S
C1634 C1635 1.369 . S
C1634 C1638 1.531 . S
C1635 C1634 1.369 . S
C1635 C1636 1.410 . S
C1635 C1643 1.503 . S
C1636 C1635 1.410 . S
C1636 C1637 1.392 . S
C1636 C1639 1.511 . S
C1637 C1633 1.376 . S
C1637 C1636 1.392 . S
C1637 H1649 0.929 . S
C1638 C1634 1.531 . S
C1638 H1650 0.960 . S
C1638 H1651 0.962 . S
C1638 H1652 0.960 . S
C1639 C1636 1.511 . S
C1639 H1653 0.961 . S
C1639 H1654 0.961 . S
C1639 H1655 0.961 . S
C1640 C1641 1.370 . S
C1640 C1642 1.363 . S
C1640 H1656 0.931 . S
C1641 C1640 1.370 . S
C1641 C1645 1.408 . S
C1642 C1640 1.363 . S
C1642 C1643 1.370 . S
C1642 C1646 1.524 . S
C1643 C1635 1.503 . S
C1643 C1642 1.370 . S
C1643 C1644 1.403 . S
C1644 C1643 1.403 . S
C1644 C1645 1.404 . S
C1644 C1647 1.539 . S
C1645 C1641 1.408 . S
C1645 C1644 1.404 . S
C1645 H1657 0.930 . S
C1646 C1642 1.524 . S
C1646 H1658 0.956 . S
C1646 H1659 0.961 . S
C1646 H1660 0.961 . S
C1647 C1644 1.539 . S
C1647 H1661 0.958 . S
C1647 H1662 0.961 . S
C1647 H1663 0.960 . S
H1648 C1632 0.931 . S
H1649 C1637 0.929 . S
H1650 C1638 0.960 . S
H1651 C1638 0.962 . S
H1652 C1638 0.960 . S
H1653 C1639 0.961 . S
H1654 C1639 0.961 . S
H1655 C1639 0.961 . S
H1656 C1640 0.931 . S
H1657 C1645 0.930 . S
H1658 C1646 0.956 . S
H1659 C1646 0.961 . S
H1660 C1646 0.961 . S
H1661 C1647 0.958 . S
H1662 C1647 0.961 . S
H1663 C1647 0.960 . S
C1664 C1665 1.391 1_465 S
C1664 C1666 1.394 . S
C1664 H1680 0.931 . S
C1665 C1664 1.391 1_645 S
C1665 C1669 1.376 . S
C1666 C1664 1.394 . S
C1666 C1667 1.369 1_465 S
C1666 C1670 1.531 . S
C1667 C1666 1.369 1_645 S
C1667 C1668 1.410 . S
C1667 C1675 1.503 . S
C1668 C1667 1.410 . S
C1668 C1669 1.392 . S
C1668 C1671 1.511 . S
C1669 C1665 1.376 . S
C1669 C1668 1.392 . S
C1669 H1681 0.929 . S
C1670 C1666 1.531 . S
C1670 H1682 0.960 . S
C1670 H1683 0.962 . S
C1670 H1684 0.960 . S
C1671 C1668 1.511 . S
C1671 H1685 0.961 . S
C1671 H1686 0.961 . S
C1671 H1687 0.961 . S
C1672 C1673 1.370 . S
C1672 C1674 1.363 . S
C1672 H1688 0.931 . S
C1673 C1672 1.370 . S
C1673 C1677 1.381 1_445 S
C1674 C1672 1.363 . S
C1674 C1675 1.370 1_455 S
C1674 C1678 1.524 . S
C1675 C1667 1.503 . S
C1675 C1674 1.370 1_655 S
C1675 C1676 1.403 1_545 S
C1676 C1675 1.403 1_565 S
C1676 C1677 1.407 . S
C1676 C1679 1.539 . S
C1677 C1673 1.381 1_665 S
C1677 C1676 1.407 . S
C1677 H1689 0.956 . S
C1678 C1674 1.524 . S
C1678 H1690 0.956 . S
C1678 H1691 0.961 . S
C1678 H1692 0.961 . S
C1679 C1676 1.539 . S
C1679 H1693 0.958 . S
C1679 H1694 0.961 . S
C1679 H1695 0.960 . S
H1680 C1664 0.931 . S
H1681 C1669 0.929 . S
H1682 C1670 0.960 . S
H1683 C1670 0.962 . S
H1684 C1670 0.960 . S
H1685 C1671 0.961 . S
H1686 C1671 0.961 . S
H1687 C1671 0.961 . S
H1688 C1672 0.931 . S
H1689 C1677 0.956 . S
H1690 C1678 0.956 . S
H1691 C1678 0.961 . S
H1692 C1678 0.961 . S
H1693 C1679 0.958 . S
H1694 C1679 0.961 . S
H1695 C1679 0.960 . S
C1696 C1697 1.391 1_545 S
C1696 C1698 1.394 . S
C1696 H1712 0.931 . S
C1697 C1696 1.391 1_565 S
C1697 C1701 1.376 . S
C1698 C1696 1.394 . S
C1698 C1699 1.369 1_545 S
C1698 C1702 1.531 . S
C1699 C1698 1.369 1_565 S
C1699 C1700 1.410 . S
C1699 C1707 1.503 . S
C1700 C1699 1.410 . S
C1700 C1701 1.392 . S
C1700 C1703 1.511 . S
C1701 C1697 1.376 . S
C1701 C1700 1.392 . S
C1701 H1713 0.929 . S
C1702 C1698 1.531 . S
C1702 H1714 0.960 . S
C1702 H1715 0.962 . S
C1702 H1716 0.960 . S
C1703 C1700 1.511 . S
C1703 H1717 0.961 . S
C1703 H1718 0.961 . S
C1703 H1719 0.961 . S
C1704 C1705 1.370 . S
C1704 C1706 1.363 . S
C1704 H1720 0.931 . S
C1705 C1704 1.370 . S
C1705 C1709 1.408 . S
C1706 C1704 1.363 . S
C1706 C1707 1.370 . S
C1706 C1710 1.524 . S
C1707 C1699 1.503 . S
C1707 C1706 1.370 . S
C1707 C1708 1.403 . S
C1708 C1707 1.403 . S
C1708 C1709 1.404 . S
C1708 C1711 1.539 . S
C1709 C1705 1.408 . S
C1709 C1708 1.404 . S
C1709 H1721 0.930 . S
C1710 C1706 1.524 . S
C1710 H1722 0.956 1_565 S
C1710 H1723 0.961 . S
C1710 H1724 0.961 . S
C1711 C1708 1.539 . S
C1711 H1725 0.958 . S
C1711 H1726 0.961 . S
C1711 H1727 0.960 . S
H1712 C1696 0.931 . S
H1713 C1701 0.929 . S
H1714 C1702 0.960 . S
H1715 C1702 0.962 . S
H1716 C1702 0.960 . S
H1717 C1703 0.961 . S
H1718 C1703 0.961 . S
H1719 C1703 0.961 . S
H1720 C1704 0.931 . S
H1721 C1709 0.930 . S
H1722 C1710 0.956 1_545 S
H1723 C1710 0.961 . S
H1724 C1710 0.961 . S
H1725 C1711 0.958 . S
H1726 C1711 0.961 . S
H1727 C1711 0.960 . S
C1728 C1729 1.391 . S
C1728 C1730 1.394 . S
C1728 H1744 0.931 . S
C1729 C1728 1.391 . S
C1729 C1733 1.376 1_465 S
C1730 C1728 1.394 . S
C1730 C1731 1.369 . S
C1730 C1734 1.531 . S
C1731 C1730 1.369 . S
C1731 C1732 1.410 1_465 S
C1731 C1739 1.503 . S
C1732 C1731 1.410 1_645 S
C1732 C1733 1.392 . S
C1732 C1735 1.511 . S
C1733 C1729 1.376 1_645 S
C1733 C1732 1.392 . S
C1733 H1745 0.929 . S
C1734 C1730 1.531 . S
C1734 H1746 0.960 . S
C1734 H1747 0.962 . S
C1734 H1748 0.960 . S
C1735 C1732 1.511 . S
C1735 H1749 0.961 . S
C1735 H1750 0.961 . S
C1735 H1751 0.961 . S
C1736 C1737 1.370 . S
C1736 C1738 1.363 . S
C1736 H1752 0.931 . S
C1737 C1736 1.370 . S
C1737 C1741 1.408 1_665 S
C1738 C1736 1.363 . S
C1738 C1739 1.370 1_655 S
C1738 C1742 1.524 . S
C1739 C1731 1.503 . S
C1739 C1738 1.370 1_455 S
C1739 C1740 1.403 1_565 S
C1740 C1739 1.403 1_545 S
C1740 C1741 1.404 . S
C1740 C1743 1.539 . S
C1741 C1737 1.408 1_445 S
C1741 C1740 1.404 . S
C1741 H1753 0.930 . S
C1742 C1738 1.524 . S
C1742 H1754 0.956 . S
C1742 H1755 0.961 . S
C1742 H1756 0.961 . S
C1743 C1740 1.539 . S
C1743 H1757 0.958 . S
C1743 H1758 0.961 . S
C1743 H1759 0.960 . S
H1744 C1728 0.931 . S
H1745 C1733 0.929 . S
H1746 C1734 0.960 . S
H1747 C1734 0.962 . S
H1748 C1734 0.960 . S
H1749 C1735 0.961 . S
H1750 C1735 0.961 . S
H1751 C1735 0.961 . S
H1752 C1736 0.931 . S
H1753 C1741 0.930 . S
H1754 C1742 0.956 . S
H1755 C1742 0.961 . S
H1756 C1742 0.961 . S
H1757 C1743 0.958 . S
H1758 C1743 0.961 . S
H1759 C1743 0.960 . S
C1760 C1761 1.391 . S
C1760 C1762 1.394 . S
C1760 H1776 0.931 . S
C1761 C1760 1.391 . S
C1761 C1765 1.376 . S
C1762 C1760 1.394 . S
C1762 C1763 1.369 . S
C1762 C1766 1.531 . S
C1763 C1762 1.369 . S
C1763 C1764 1.410 . S
C1763 C1771 1.503 . S
C1764 C1763 1.410 . S
C1764 C1765 1.392 . S
C1764 C1767 1.511 1_545 S
C1765 C1761 1.376 . S
C1765 C1764 1.392 . S
C1765 H1777 0.929 1_545 S
C1766 C1762 1.531 . S
C1766 H1778 0.960 . S
C1766 H1779 0.962 . S
C1766 H1780 0.960 . S
C1767 C1764 1.511 1_565 S
C1767 H1781 0.961 . S
C1767 H1782 0.961 . S
C1767 H1783 0.961 1_565 S
C1768 C1769 1.370 1_565 S
C1768 C1770 1.363 . S
C1768 H1784 0.931 . S
C1769 C1768 1.370 1_545 S
C1769 C1773 1.408 . S
C1770 C1768 1.363 . S
C1770 C1771 1.370 1_565 S
C1770 C1774 1.524 . S
C1771 C1763 1.503 . S
C1771 C1770 1.370 1_545 S
C1771 C1772 1.403 . S
C1772 C1771 1.403 . S
C1772 C1773 1.404 . S
C1772 C1775 1.539 . S
C1773 C1769 1.408 . S
C1773 C1772 1.404 . S
C1773 H1785 0.930 . S
C1774 C1770 1.524 . S
C1774 H1786 0.956 . S
C1774 H1787 0.961 . S
C1774 H1788 0.961 . S
C1775 C1772 1.539 . S
C1775 H1789 0.958 . S
C1775 H1790 0.961 . S
C1775 H1791 0.960 . S
H1776 C1760 0.931 . S
H1777 C1765 0.929 1_565 S
H1778 C1766 0.960 . S
H1779 C1766 0.962 . S
H1780 C1766 0.960 . S
H1781 C1767 0.961 . S
H1782 C1767 0.961 . S
H1783 C1767 0.961 1_545 S
H1784 C1768 0.931 . S
H1785 C1773 0.930 . S
H1786 C1774 0.956 . S
H1787 C1774 0.961 . S
H1788 C1774 0.961 . S
H1789 C1775 0.958 . S
H1790 C1775 0.961 . S
H1791 C1775 0.960 . S
C1792 C1793 1.391 . S
C1792 C1794 1.394 . S
C1792 H1808 0.931 . S
C1793 C1792 1.391 . S
C1793 C1797 1.376 . S
C1794 C1792 1.394 . S
C1794 C1795 1.369 . S
C1794 C1798 1.531 . S
C1795 C1794 1.369 . S
C1795 C1796 1.410 . S
C1795 C1803 1.503 . S
C1796 C1795 1.410 . S
C1796 C1797 1.392 . S
C1796 C1799 1.511 . S
C1797 C1793 1.376 . S
C1797 C1796 1.392 . S
C1797 H1809 0.929 . S
C1798 C1794 1.531 . S
C1798 H1810 0.960 . S
C1798 H1811 0.962 . S
C1798 H1812 0.960 . S
C1799 C1796 1.511 . S
C1799 H1813 0.961 . S
C1799 H1814 0.961 . S
C1799 H1815 0.961 . S
C1800 C1801 1.370 . S
C1800 C1802 1.363 . S
C1800 H1816 0.931 . S
C1801 C1800 1.370 . S
C1801 C1805 1.408 . S
C1802 C1800 1.363 . S
C1802 C1803 1.370 . S
C1802 C1806 1.524 . S
C1803 C1795 1.503 . S
C1803 C1802 1.370 . S
C1803 C1804 1.403 . S
C1804 C1803 1.403 . S
C1804 C1805 1.404 . S
C1804 C1807 1.539 . S
C1805 C1801 1.408 . S
C1805 C1804 1.404 . S
C1805 H1817 0.930 . S
C1806 C1802 1.524 . S
C1806 H1818 0.956 . S
C1806 H1819 0.961 . S
C1806 H1820 0.961 . S
C1807 C1804 1.539 . S
C1807 H1821 0.958 . S
C1807 H1822 0.961 . S
C1807 H1823 0.960 . S
H1808 C1792 0.931 . S
H1809 C1797 0.929 . S
H1810 C1798 0.960 . S
H1811 C1798 0.962 . S
H1812 C1798 0.960 . S
H1813 C1799 0.961 . S
H1814 C1799 0.961 . S
H1815 C1799 0.961 . S
H1816 C1800 0.931 . S
H1817 C1805 0.930 . S
H1818 C1806 0.956 . S
H1819 C1806 0.961 . S
H1820 C1806 0.961 . S
H1821 C1807 0.958 . S
H1822 C1807 0.961 . S
H1823 C1807 0.960 . S
C1824 C1825 1.391 . S
C1824 C1826 1.394 . S
C1824 H1840 0.931 . S
C1825 C1824 1.391 . S
C1825 C1829 1.376 1_455 S
C1826 C1824 1.394 . S
C1826 C1827 1.333 1_455 S
C1826 C1830 1.531 . S
C1827 C1826 1.333 1_655 S
C1827 C1828 1.440 . S
C1827 C1835 1.508 . S
C1828 C1827 1.440 . S
C1828 C1829 1.392 . S
C1828 C1831 1.511 . S
C1829 C1825 1.376 1_655 S
C1829 C1828 1.392 . S
C1829 H1841 0.929 . S
C1830 C1826 1.531 . S
C1830 H1842 0.960 . S
C1830 H1843 0.962 . S
C1830 H1844 0.960 . S
C1831 C1828 1.511 . S
C1831 H1845 0.961 . S
C1831 H1846 0.961 . S
C1831 H1847 0.961 . S
C1832 C1833 1.370 1_455 S
C1832 C1834 1.363 . S
C1832 H1848 0.931 . S
C1833 C1832 1.370 1_655 S
C1833 C1837 1.408 . S
C1834 C1832 1.363 . S
C1834 C1835 1.370 1_455 S
C1834 C1838 1.524 . S
C1835 C1827 1.508 . S
C1835 C1834 1.370 1_655 S
C1835 C1836 1.403 . S
C1836 C1835 1.403 . S
C1836 C1837 1.404 . S
C1836 C1839 1.539 . S
C1837 C1833 1.408 . S
C1837 C1836 1.404 . S
C1837 H1849 0.930 . S
C1838 C1834 1.524 . S
C1838 H1850 0.956 . S
C1838 H1851 0.961 . S
C1838 H1852 0.961 . S
C1839 C1836 1.539 . S
C1839 H1853 0.958 . S
C1839 H1854 0.961 . S
C1839 H1855 0.960 . S
H1840 C1824 0.931 . S
H1841 C1829 0.929 . S
H1842 C1830 0.960 . S
H1843 C1830 0.962 . S
H1844 C1830 0.960 . S
H1845 C1831 0.961 . S
H1846 C1831 0.961 . S
H1847 C1831 0.961 . S
H1848 C1832 0.931 . S
H1849 C1837 0.930 . S
H1850 C1838 0.956 . S
H1851 C1838 0.961 . S
H1852 C1838 0.961 . S
H1853 C1839 0.958 . S
H1854 C1839 0.961 . S
H1855 C1839 0.960 . S
C1856 C1857 1.391 . S
C1856 C1858 1.394 . S
C1856 H1872 0.931 . S
C1857 C1856 1.391 . S
C1857 C1861 1.376 . S
C1858 C1856 1.394 . S
C1858 C1859 1.369 . S
C1858 C1862 1.531 . S
C1859 C1858 1.369 . S
C1859 C1860 1.410 . S
C1859 C1867 1.503 . S
C1860 C1859 1.410 . S
C1860 C1861 1.392 . S
C1860 C1863 1.511 . S
C1861 C1857 1.376 . S
C1861 C1860 1.392 . S
C1861 H1873 0.929 . S
C1862 C1858 1.531 . S
C1862 H1874 0.960 . S
C1862 H1875 0.962 . S
C1862 H1876 0.960 . S
C1863 C1860 1.511 . S
C1863 H1877 0.961 . S
C1863 H1878 0.961 . S
C1863 H1879 0.961 . S
C1864 C1865 1.370 . S
C1864 C1866 1.363 . S
C1864 H1880 0.931 . S
C1865 C1864 1.370 . S
C1865 C1869 1.408 . S
C1866 C1864 1.363 . S
C1866 C1867 1.370 . S
C1866 C1870 1.524 . S
C1867 C1859 1.503 . S
C1867 C1866 1.370 . S
C1867 C1868 1.403 . S
C1868 C1867 1.403 . S
C1868 C1869 1.404 . S
C1868 C1871 1.539 . S
C1869 C1865 1.408 . S
C1869 C1868 1.404 . S
C1869 H1881 0.930 . S
C1870 C1866 1.524 . S
C1870 H1882 0.956 . S
C1870 H1883 0.961 . S
C1870 H1884 0.961 . S
C1871 C1868 1.539 . S
C1871 H1885 0.958 . S
C1871 H1886 0.961 . S
C1871 H1887 0.960 . S
H1872 C1856 0.931 . S
H1873 C1861 0.929 . S
H1874 C1862 0.960 . S
H1875 C1862 0.962 . S
H1876 C1862 0.960 . S
H1877 C1863 0.961 . S
H1878 C1863 0.961 . S
H1879 C1863 0.961 . S
H1880 C1864 0.931 . S
H1881 C1869 0.930 . S
H1882 C1870 0.956 . S
H1883 C1870 0.961 . S
H1884 C1870 0.961 . S
H1885 C1871 0.958 . S
H1886 C1871 0.961 . S
H1887 C1871 0.960 . S
C1888 C1889 1.391 1_655 S
C1888 C1890 1.394 . S
C1888 H1904 0.931 . S
C1889 C1888 1.391 1_455 S
C1889 C1893 1.376 . S
C1890 C1888 1.394 . S
C1890 C1891 1.369 1_655 S
C1890 C1894 1.531 . S
C1891 C1890 1.369 1_455 S
C1891 C1892 1.410 . S
C1891 C1899 1.504 . S
C1892 C1891 1.410 . S
C1892 C1893 1.392 . S
C1892 C1895 1.511 . S
C1893 C1889 1.376 . S
C1893 C1892 1.392 . S
C1893 H1905 0.929 . S
C1894 C1890 1.531 . S
C1894 H1906 0.960 . S
C1894 H1907 0.962 . S
C1894 H1908 0.960 . S
C1895 C1892 1.511 . S
C1895 H1909 0.961 . S
C1895 H1910 0.961 . S
C1895 H1911 0.961 . S
C1896 C1897 1.370 . S
C1896 C1898 1.363 . S
C1896 H1912 0.931 . S
C1897 C1896 1.370 . S
C1897 C1901 1.408 1_655 S
C1898 C1896 1.363 . S
C1898 C1899 1.367 1_655 S
C1898 C1902 1.524 . S
C1899 C1891 1.504 . S
C1899 C1898 1.367 1_455 S
C1899 C1900 1.405 . S
C1900 C1899 1.405 . S
C1900 C1901 1.404 . S
C1900 C1903 1.539 . S
C1901 C1897 1.408 1_455 S
C1901 C1900 1.404 . S
C1901 H1913 0.930 . S
C1902 C1898 1.524 . S
C1902 H1914 0.956 . S
C1902 H1915 0.961 . S
C1902 H1916 0.961 . S
C1903 C1900 1.539 . S
C1903 H1917 0.958 . S
C1903 H1918 0.961 . S
C1903 H1919 0.960 . S
H1904 C1888 0.931 . S
H1905 C1893 0.929 . S
H1906 C1894 0.960 . S
H1907 C1894 0.962 . S
H1908 C1894 0.960 . S
H1909 C1895 0.961 . S
H1910 C1895 0.961 . S
H1911 C1895 0.961 . S
H1912 C1896 0.931 . S
H1913 C1901 0.930 . S
H1914 C1902 0.956 . S
H1915 C1902 0.961 . S
H1916 C1902 0.961 . S
H1917 C1903 0.958 . S
H1918 C1903 0.961 . S
H1919 C1903 0.960 . S
C1920 C1921 1.391 . S
C1920 C1922 1.394 1_455 S
C1920 H1936 0.931 . S
C1921 C1920 1.391 . S
C1921 C1925 1.376 . S
C1922 C1920 1.394 1_655 S
C1922 C1923 1.369 1_655 S
C1922 C1926 1.531 . S
C1923 C1922 1.369 1_455 S
C1923 C1924 1.410 . S
C1923 C1931 1.503 1_455 S
C1924 C1923 1.410 . S
C1924 C1925 1.392 . S
C1924 C1927 1.511 . S
C1925 C1921 1.376 . S
C1925 C1924 1.392 . S
C1925 H1937 0.929 . S
C1926 C1922 1.531 . S
C1926 H1938 0.960 . S
C1926 H1939 0.962 . S
C1926 H1940 0.960 . S
C1927 C1924 1.511 . S
C1927 H1941 0.961 . S
C1927 H1942 0.961 . S
C1927 H1943 0.961 . S
C1928 C1929 1.370 . S
C1928 C1930 1.363 . S
C1928 H1944 0.931 . S
C1929 C1928 1.370 . S
C1929 C1933 1.408 . S
C1930 C1928 1.363 . S
C1930 C1931 1.370 . S
C1930 C1934 1.524 . S
C1931 C1923 1.503 1_655 S
C1931 C1930 1.370 . S
C1931 C1932 1.403 . S
C1932 C1931 1.403 . S
C1932 C1933 1.404 . S
C1932 C1935 1.539 1_655 S
C1933 C1929 1.408 . S
C1933 C1932 1.404 . S
C1933 H1945 0.930 . S
C1934 C1930 1.524 . S
C1934 H1946 0.956 . S
C1934 H1947 0.961 1_655 S
C1934 H1948 0.961 . S
C1935 C1932 1.539 1_455 S
C1935 H1949 0.958 1_455 S
C1935 H1950 0.961 . S
C1935 H1951 0.960 . S
H1936 C1920 0.931 . S
H1937 C1925 0.929 . S
H1938 C1926 0.960 . S
H1939 C1926 0.962 . S
H1940 C1926 0.960 . S
H1941 C1927 0.961 . S
H1942 C1927 0.961 . S
H1943 C1927 0.961 . S
H1944 C1928 0.931 . S
H1945 C1933 0.930 . S
H1946 C1934 0.956 . S
H1947 C1934 0.961 1_455 S
H1948 C1934 0.961 . S
H1949 C1935 0.958 1_655 S
H1950 C1935 0.961 . S
H1951 C1935 0.960 . S
C1952 C1953 1.391 . S
C1952 C1954 1.394 . S
C1952 H1968 0.931 . S
C1953 C1952 1.391 . S
C1953 C1957 1.376 . S
C1954 C1952 1.394 . S
C1954 C1955 1.369 . S
C1954 C1958 1.531 . S
C1955 C1954 1.369 . S
C1955 C1956 1.410 . S
C1955 C1963 1.503 . S
C1956 C1955 1.410 . S
C1956 C1957 1.392 . S
C1956 C1959 1.511 . S
C1957 C1953 1.376 . S
C1957 C1956 1.392 . S
C1957 H1969 0.929 . S
C1958 C1954 1.531 . S
C1958 H1970 0.960 . S
C1958 H1971 0.962 . S
C1958 H1972 0.960 . S
C1959 C1956 1.511 . S
C1959 H1973 0.961 . S
C1959 H1974 0.961 . S
C1959 H1975 0.961 . S
C1960 C1961 1.370 . S
C1960 C1962 1.363 . S
C1960 H1976 0.931 . S
C1961 C1960 1.370 . S
C1961 C1965 1.408 . S
C1962 C1960 1.363 . S
C1962 C1963 1.370 . S
C1962 C1966 1.524 . S
C1963 C1955 1.503 . S
C1963 C1962 1.370 . S
C1963 C1964 1.403 . S
C1964 C1963 1.403 . S
C1964 C1965 1.404 . S
C1964 C1967 1.539 . S
C1965 C1961 1.408 . S
C1965 C1964 1.404 . S
C1965 H1977 0.930 . S
C1966 C1962 1.524 . S
C1966 H1978 0.956 . S
C1966 H1979 0.961 . S
C1966 H1980 0.961 . S
C1967 C1964 1.539 . S
C1967 H1981 0.958 . S
C1967 H1982 0.961 . S
C1967 H1983 0.960 . S
H1968 C1952 0.931 . S
H1969 C1957 0.929 . S
H1970 C1958 0.960 . S
H1971 C1958 0.962 . S
H1972 C1958 0.960 . S
H1973 C1959 0.961 . S
H1974 C1959 0.961 . S
H1975 C1959 0.961 . S
H1976 C1960 0.931 . S
H1977 C1965 0.930 . S
H1978 C1966 0.956 . S
H1979 C1966 0.961 . S
H1980 C1966 0.961 . S
H1981 C1967 0.958 . S
H1982 C1967 0.961 . S
H1983 C1967 0.960 . S
C1984 C1985 1.391 . S
C1984 C1986 1.394 . S
C1984 H2000 0.931 . S
C1985 C1984 1.391 . S
C1985 C1989 1.376 . S
C1986 C1984 1.394 . S
C1986 C1987 1.369 . S
C1986 C1990 1.531 . S
C1987 C1986 1.369 . S
C1987 C1988 1.410 . S
C1987 C1995 1.503 . S
C1988 C1987 1.410 . S
C1988 C1989 1.392 . S
C1988 C1991 1.511 . S
C1989 C1985 1.376 . S
C1989 C1988 1.392 . S
C1989 H2001 0.929 . S
C1990 C1986 1.531 . S
C1990 H2002 0.960 . S
C1990 H2003 0.962 . S
C1990 H2004 0.960 . S
C1991 C1988 1.511 . S
C1991 H2005 0.961 . S
C1991 H2006 0.961 . S
C1991 H2007 0.961 . S
C1992 C1993 1.370 . S
C1992 C1994 1.363 . S
C1992 H2008 0.931 . S
C1993 C1992 1.370 . S
C1993 C1997 1.408 . S
C1994 C1992 1.363 . S
C1994 C1995 1.370 . S
C1994 C1998 1.524 . S
C1995 C1987 1.503 . S
C1995 C1994 1.370 . S
C1995 C1996 1.403 . S
C1996 C1995 1.403 . S
C1996 C1997 1.404 . S
C1996 C1999 1.539 . S
C1997 C1993 1.408 . S
C1997 C1996 1.404 . S
C1997 H2009 0.930 . S
C1998 C1994 1.524 . S
C1998 H2010 0.956 . S
C1998 H2011 0.961 . S
C1998 H2012 0.961 . S
C1999 C1996 1.539 . S
C1999 H2013 0.958 . S
C1999 H2014 0.961 . S
C1999 H2015 0.960 . S
H2000 C1984 0.931 . S
H2001 C1989 0.929 . S
H2002 C1990 0.960 . S
H2003 C1990 0.962 . S
H2004 C1990 0.960 . S
H2005 C1991 0.961 . S
H2006 C1991 0.961 . S
H2007 C1991 0.961 . S
H2008 C1992 0.931 . S
H2009 C1997 0.930 . S
H2010 C1998 0.956 . S
H2011 C1998 0.961 . S
H2012 C1998 0.961 . S
H2013 C1999 0.958 . S
H2014 C1999 0.961 . S
H2015 C1999 0.960 . S
C2016 C2017 1.391 . S
C2016 C2018 1.405 . S
C2016 H2032 0.931 . S
C2017 C2016 1.391 . S
C2017 C2021 1.376 . S
C2018 C2016 1.405 . S
C2018 C2019 1.377 . S
C2018 C2022 1.511 1_455 S
C2019 C2018 1.377 . S
C2019 C2020 1.410 . S
C2019 C2027 1.503 1_455 S
C2020 C2019 1.410 . S
C2020 C2021 1.392 . S
C2020 C2023 1.511 . S
C2021 C2017 1.376 . S
C2021 C2020 1.392 . S
C2021 H2033 0.929 . S
C2022 C2018 1.511 1_655 S
C2022 H2034 0.960 . S
C2022 H2035 0.962 . S
C2022 H2036 0.960 . S
C2023 C2020 1.511 . S
C2023 H2037 0.961 . S
C2023 H2038 0.961 . S
C2023 H2039 0.961 . S
C2024 C2025 1.370 . S
C2024 C2026 1.363 . S
C2024 H2040 0.931 . S
C2025 C2024 1.370 . S
C2025 C2029 1.408 . S
C2026 C2024 1.363 . S
C2026 C2027 1.370 . S
C2026 C2030 1.524 . S
C2027 C2019 1.503 1_655 S
C2027 C2026 1.370 . S
C2027 C2028 1.403 . S
C2028 C2027 1.403 . S
C2028 C2029 1.404 . S
C2028 C2031 1.539 1_655 S
C2029 C2025 1.408 . S
C2029 C2028 1.404 . S
C2029 H2041 0.930 . S
C2030 C2026 1.524 . S
C2030 H2042 0.956 . S
C2030 H2043 0.961 . S
C2030 H2044 0.961 . S
C2031 C2028 1.539 1_455 S
C2031 H2045 0.958 . S
C2031 H2046 0.961 . S
C2031 H2047 0.960 . S
H2032 C2016 0.931 . S
H2033 C2021 0.929 . S
H2034 C2022 0.960 . S
H2035 C2022 0.962 . S
H2036 C2022 0.960 . S
H2037 C2023 0.961 . S
H2038 C2023 0.961 . S
H2039 C2023 0.961 . S
H2040 C2024 0.931 . S
H2041 C2029 0.930 . S
H2042 C2030 0.956 . S
H2043 C2030 0.961 . S
H2044 C2030 0.961 . S
H2045 C2031 0.958 . S
H2046 C2031 0.961 . S
H2047 C2031 0.960 . S
C2048 C2049 1.391 . S
C2048 C2050 1.394 . S
C2048 H2064 0.931 . S
C2049 C2048 1.391 . S
C2049 C2053 1.376 . S
C2050 C2048 1.394 . S
C2050 C2051 1.369 . S
C2050 C2054 1.531 . S
C2051 C2050 1.369 . S
C2051 C2052 1.410 . S
C2051 C2059 1.503 1_455 S
C2052 C2051 1.410 . S
C2052 C2053 1.392 . S
C2052 C2055 1.511 . S
C2053 C2049 1.376 . S
C2053 C2052 1.392 . S
C2053 H2065 0.929 . S
C2054 C2050 1.531 . S
C2054 H2066 0.960 . S
C2054 H2067 0.962 . S
C2054 H2068 0.960 . S
C2055 C2052 1.511 . S
C2055 H2069 0.961 1_455 S
C2055 H2070 0.961 1_455 S
C2055 H2071 0.961 . S
C2056 C2057 1.370 . S
C2056 C2058 1.363 . S
C2056 H2072 0.931 . S
C2057 C2056 1.370 . S
C2057 C2061 1.408 . S
C2058 C2056 1.363 . S
C2058 C2059 1.370 . S
C2058 C2062 1.524 . S
C2059 C2051 1.503 1_655 S
C2059 C2058 1.370 . S
C2059 C2060 1.403 1_655 S
C2060 C2059 1.403 1_455 S
C2060 C2061 1.404 1_455 S
C2060 C2063 1.539 . S
C2061 C2057 1.408 . S
C2061 C2060 1.404 1_655 S
C2061 H2073 0.943 . S
C2062 C2058 1.524 . S
C2062 H2074 0.956 . S
C2062 H2075 0.961 . S
C2062 H2076 0.961 . S
C2063 C2060 1.539 . S
C2063 H2077 0.958 . S
C2063 H2078 0.961 . S
C2063 H2079 0.960 . S
H2064 C2048 0.931 . S
H2065 C2053 0.929 . S
H2066 C2054 0.960 . S
H2067 C2054 0.962 . S
H2068 C2054 0.960 . S
H2069 C2055 0.961 1_655 S
H2070 C2055 0.961 1_655 S
H2071 C2055 0.961 . S
H2072 C2056 0.931 . S
H2073 C2061 0.943 . S
H2074 C2062 0.956 . S
H2075 C2062 0.961 . S
H2076 C2062 0.961 . S
H2077 C2063 0.958 . S
H2078 C2063 0.961 . S
H2079 C2063 0.960 . S
C2080 C2081 1.391 . S
C2080 C2082 1.394 . S
C2080 H2096 0.931 . S
C2081 C2080 1.391 . S
C2081 C2085 1.376 . S
C2082 C2080 1.394 . S
C2082 C2083 1.369 . S
C2082 C2086 1.531 . S
C2083 C2082 1.369 . S
C2083 C2084 1.410 . S
C2083 C2091 1.503 . S
C2084 C2083 1.410 . S
C2084 C2085 1.392 . S
C2084 C2087 1.511 . S
C2085 C2081 1.376 . S
C2085 C2084 1.392 . S
C2085 H2097 0.929 . S
C2086 C2082 1.531 . S
C2086 H2098 0.960 . S
C2086 H2099 0.962 . S
C2086 H2100 0.960 . S
C2087 C2084 1.511 . S
C2087 H2101 0.961 . S
C2087 H2102 0.961 . S
C2087 H2103 0.961 . S
C2088 C2089 1.370 . S
C2088 C2090 1.363 . S
C2088 H2104 0.931 . S
C2089 C2088 1.370 . S
C2089 C2093 1.408 . S
C2090 C2088 1.363 . S
C2090 C2091 1.370 . S
C2090 C2094 1.524 . S
C2091 C2083 1.503 . S
C2091 C2090 1.370 . S
C2091 C2092 1.403 . S
C2092 C2091 1.403 . S
C2092 C2093 1.404 . S
C2092 C2095 1.539 . S
C2093 C2089 1.408 . S
C2093 C2092 1.404 . S
C2093 H2105 0.930 . S
C2094 C2090 1.524 . S
C2094 H2106 0.956 . S
C2094 H2107 0.961 . S
C2094 H2108 0.961 . S
C2095 C2092 1.539 . S
C2095 H2109 0.958 . S
C2095 H2110 0.961 . S
C2095 H2111 0.960 . S
H2096 C2080 0.931 . S
H2097 C2085 0.929 . S
H2098 C2086 0.960 . S
H2099 C2086 0.962 . S
H2100 C2086 0.960 . S
H2101 C2087 0.961 . S
H2102 C2087 0.961 . S
H2103 C2087 0.961 . S
H2104 C2088 0.931 . S
H2105 C2093 0.930 . S
H2106 C2094 0.956 . S
H2107 C2094 0.961 . S
H2108 C2094 0.961 . S
H2109 C2095 0.958 . S
H2110 C2095 0.961 . S
H2111 C2095 0.960 . S
C2112 C2113 1.391 . S
C2112 C2114 1.394 . S
C2112 H2128 0.931 . S
C2113 C2112 1.391 . S
C2113 C2117 1.376 . S
C2114 C2112 1.394 . S
C2114 C2115 1.369 . S
C2114 C2118 1.531 . S
C2115 C2114 1.369 . S
C2115 C2116 1.410 . S
C2115 C2123 1.503 . S
C2116 C2115 1.410 . S
C2116 C2117 1.392 . S
C2116 C2119 1.511 . S
C2117 C2113 1.376 . S
C2117 C2116 1.392 . S
C2117 H2129 0.929 . S
C2118 C2114 1.531 . S
C2118 H2130 0.960 . S
C2118 H2131 0.962 . S
C2118 H2132 0.960 . S
C2119 C2116 1.511 . S
C2119 H2133 0.961 . S
C2119 H2134 0.961 . S
C2119 H2135 0.961 . S
C2120 C2121 1.370 . S
C2120 C2122 1.363 . S
C2120 H2136 0.931 . S
C2121 C2120 1.370 . S
C2121 C2125 1.408 . S
C2122 C2120 1.363 . S
C2122 C2123 1.370 . S
C2122 C2126 1.524 . S
C2123 C2115 1.503 . S
C2123 C2122 1.370 . S
C2123 C2124 1.403 . S
C2124 C2123 1.403 . S
C2124 C2125 1.404 . S
C2124 C2127 1.539 . S
C2125 C2121 1.408 . S
C2125 C2124 1.404 . S
C2125 H2137 0.930 . S
C2126 C2122 1.524 . S
C2126 H2138 0.956 . S
C2126 H2139 0.961 . S
C2126 H2140 0.961 . S
C2127 C2124 1.539 . S
C2127 H2141 0.958 . S
C2127 H2142 0.961 . S
C2127 H2143 0.960 . S
H2128 C2112 0.931 . S
H2129 C2117 0.929 . S
H2130 C2118 0.960 . S
H2131 C2118 0.962 . S
H2132 C2118 0.960 . S
H2133 C2119 0.961 . S
H2134 C2119 0.961 . S
H2135 C2119 0.961 . S
H2136 C2120 0.931 . S
H2137 C2125 0.930 . S
H2138 C2126 0.956 . S
H2139 C2126 0.961 . S
H2140 C2126 0.961 . S
H2141 C2127 0.958 . S
H2142 C2127 0.961 . S
H2143 C2127 0.960 . S
C2144 C2145 1.391 . S
C2144 C2146 1.394 . S
C2144 H2160 0.931 . S
C2145 C2144 1.391 . S
C2145 C2149 1.376 . S
C2146 C2144 1.394 . S
C2146 C2147 1.369 . S
C2146 C2150 1.531 . S
C2147 C2146 1.369 . S
C2147 C2148 1.410 . S
C2147 C2155 1.503 1_455 S
C2148 C2147 1.410 . S
C2148 C2149 1.392 . S
C2148 C2151 1.511 . S
C2149 C2145 1.376 . S
C2149 C2148 1.392 . S
C2149 H2161 0.929 . S
C2150 C2146 1.531 . S
C2150 H2162 0.960 . S
C2150 H2163 0.962 1_455 S
C2150 H2164 0.960 . S
C2151 C2148 1.511 . S
C2151 H2165 0.961 . S
C2151 H2166 0.961 . S
C2151 H2167 0.961 . S
C2152 C2153 1.370 . S
C2152 C2154 1.363 . S
C2152 H2168 0.931 . S
C2153 C2152 1.370 . S
C2153 C2157 1.408 . S
C2154 C2152 1.363 . S
C2154 C2155 1.370 . S
C2154 C2158 1.524 . S
C2155 C2147 1.503 1_655 S
C2155 C2154 1.370 . S
C2155 C2156 1.403 1_655 S
C2156 C2155 1.403 1_455 S
C2156 C2157 1.404 1_455 S
C2156 C2159 1.539 . S
C2157 C2153 1.408 . S
C2157 C2156 1.404 1_655 S
C2157 H2169 0.927 1_655 S
C2158 C2154 1.524 . S
C2158 H2170 0.956 . S
C2158 H2171 0.961 . S
C2158 H2172 0.961 . S
C2159 C2156 1.539 . S
C2159 H2173 0.958 . S
C2159 H2174 0.961 . S
C2159 H2175 0.960 . S
H2160 C2144 0.931 . S
H2161 C2149 0.929 . S
H2162 C2150 0.960 . S
H2163 C2150 0.962 1_655 S
H2164 C2150 0.960 . S
H2165 C2151 0.961 . S
H2166 C2151 0.961 . S
H2167 C2151 0.961 . S
H2168 C2152 0.931 . S
H2169 C2157 0.927 1_455 S
H2170 C2158 0.956 . S
H2171 C2158 0.961 . S
H2172 C2158 0.961 . S
H2173 C2159 0.958 . S
H2174 C2159 0.961 . S
H2175 C2159 0.960 . S
C2176 C2177 1.391 . S
C2176 C2178 1.394 1_545 S
C2176 H2192 0.931 . S
C2177 C2176 1.391 . S
C2177 C2181 1.376 1_655 S
C2178 C2176 1.394 1_565 S
C2178 C2179 1.369 . S
C2178 C2182 1.531 . S
C2179 C2178 1.369 . S
C2179 C2180 1.410 1_655 S
C2179 C2187 1.503 1_656 S
C2180 C2179 1.410 1_455 S
C2180 C2181 1.392 1_565 S
C2180 C2183 1.511 . S
C2181 C2177 1.376 1_455 S
C2181 C2180 1.392 1_545 S
C2181 H2193 0.929 . S
C2182 C2178 1.531 . S
C2182 H2194 0.960 1_556 S
C2182 H2195 0.962 1_565 S
C2182 H2196 0.960 . S
C2183 C2180 1.511 . S
C2183 H2197 0.961 1_565 S
C2183 H2198 0.943 1_566 S
C2183 H2199 0.961 . S
C2184 C2185 1.370 1_545 S
C2184 C2186 1.365 . S
C2184 H2200 0.931 . S
C2185 C2184 1.370 1_565 S
C2185 C2189 1.408 . S
C2186 C2184 1.365 . S
C2186 C2187 1.370 1_545 S
C2186 C2190 1.524 . S
C2187 C2179 1.503 1_454 S
C2187 C2186 1.370 1_565 S
C2187 C2188 1.402 . S
C2188 C2187 1.402 . S
C2188 C2189 1.407 . S
C2188 C2191 1.541 . S
C2189 C2185 1.408 . S
C2189 C2188 1.407 . S
C2189 H2201 0.930 . S
C2190 C2186 1.524 . S
C2190 H2202 0.951 1_455 S
C2190 H2203 0.965 . S
C2190 H2204 0.961 . S
C2191 C2188 1.541 . S
C2191 H2205 0.958 1_455 S
C2191 H2206 0.961 . S
C2191 H2207 0.960 1_554 S
H2192 C2176 0.931 . S
H2193 C2181 0.929 . S
H2194 C2182 0.960 1_554 S
H2195 C2182 0.962 1_545 S
H2196 C2182 0.960 . S
H2197 C2183 0.961 1_545 S
H2198 C2183 0.943 1_544 S
H2199 C2183 0.961 . S
H2200 C2184 0.931 . S
H2201 C2189 0.930 . S
H2202 C2190 0.951 1_655 S
H2203 C2190 0.965 . S
H2204 C2190 0.961 . S
H2205 C2191 0.958 1_655 S
H2206 C2191 0.961 . S
H2207 C2191 0.960 1_556 S
C2208 C2209 1.391 1_545 S
C2208 C2210 1.394 . S
C2208 H2224 0.931 . S
C2209 C2208 1.391 1_565 S
C2209 C2213 1.376 . S
C2210 C2208 1.394 . S
C2210 C2211 1.369 . S
C2210 C2214 1.531 . S
C2211 C2210 1.369 . S
C2211 C2212 1.410 1_545 S
C2211 C2219 1.503 1_556 S
C2212 C2211 1.410 1_565 S
C2212 C2213 1.392 . S
C2212 C2215 1.511 . S
C2213 C2209 1.376 . S
C2213 C2212 1.392 . S
C2213 H2225 0.929 . S
C2214 C2210 1.531 . S
C2214 H2226 1.002 . S
C2214 H2227 0.962 . S
C2214 H2228 0.960 . S
C2215 C2212 1.511 . S
C2215 H2229 0.961 . S
C2215 H2230 0.961 1_556 S
C2215 H2231 0.961 . S
C2216 C2217 1.370 1_565 S
C2216 C2218 1.363 . S
C2216 H2232 0.931 . S
C2217 C2216 1.370 1_545 S
C2217 C2221 1.408 . S
C2218 C2216 1.363 . S
C2218 C2219 1.370 1_565 S
C2218 C2222 1.524 . S
C2219 C2211 1.503 1_554 S
C2219 C2218 1.370 1_545 S
C2219 C2220 1.403 . S
C2220 C2219 1.403 . S
C2220 C2221 1.404 . S
C2220 C2223 1.539 . S
C2221 C2217 1.408 . S
C2221 C2220 1.404 . S
C2221 H2233 0.930 . S
C2222 C2218 1.524 . S
C2222 H2234 0.956 . S
C2222 H2235 0.961 . S
C2222 H2236 0.961 . S
C2223 C2220 1.539 . S
C2223 H2237 0.958 . S
C2223 H2238 0.961 . S
C2223 H2239 0.960 1_554 S
H2224 C2208 0.931 . S
H2225 C2213 0.929 . S
H2226 C2214 1.002 . S
H2227 C2214 0.962 . S
H2228 C2214 0.960 . S
H2229 C2215 0.961 . S
H2230 C2215 0.961 1_554 S
H2231 C2215 0.961 . S
H2232 C2216 0.931 . S
H2233 C2221 0.930 . S
H2234 C2222 0.956 . S
H2235 C2222 0.961 . S
H2236 C2222 0.961 . S
H2237 C2223 0.958 . S
H2238 C2223 0.961 . S
H2239 C2223 0.960 1_556 S
C2240 C2241 1.391 1_545 S
C2240 C2242 1.394 . S
C2240 H2256 0.931 . S
C2241 C2240 1.391 1_565 S
C2241 C2245 1.376 . S
C2242 C2240 1.394 . S
C2242 C2243 1.369 . S
C2242 C2246 1.531 . S
C2243 C2242 1.369 . S
C2243 C2244 1.410 1_545 S
C2243 C2251 1.503 . S
C2244 C2243 1.410 1_565 S
C2244 C2245 1.392 . S
C2244 C2247 1.511 . S
C2245 C2241 1.376 . S
C2245 C2244 1.392 . S
C2245 H2257 0.929 . S
C2246 C2242 1.531 . S
C2246 H2258 0.960 . S
C2246 H2259 0.962 . S
C2246 H2260 0.960 . S
C2247 C2244 1.511 . S
C2247 H2261 0.961 . S
C2247 H2262 0.961 . S
C2247 H2263 0.961 1_565 S
C2248 C2249 1.370 1_565 S
C2248 C2250 1.363 . S
C2248 H2264 0.931 . S
C2249 C2248 1.370 1_545 S
C2249 C2253 1.408 . S
C2250 C2248 1.363 . S
C2250 C2251 1.370 1_565 S
C2250 C2254 1.524 . S
C2251 C2243 1.503 . S
C2251 C2250 1.370 1_545 S
C2251 C2252 1.403 . S
C2252 C2251 1.403 . S
C2252 C2253 1.404 . S
C2252 C2255 1.539 . S
C2253 C2249 1.408 . S
C2253 C2252 1.404 . S
C2253 H2265 0.930 . S
C2254 C2250 1.524 . S
C2254 H2266 0.956 . S
C2254 H2267 0.961 . S
C2254 H2268 0.961 . S
C2255 C2252 1.539 . S
C2255 H2269 0.958 . S
C2255 H2270 0.961 . S
C2255 H2271 0.960 . S
H2256 C2240 0.931 . S
H2257 C2245 0.929 . S
H2258 C2246 0.960 . S
H2259 C2246 0.962 . S
H2260 C2246 0.960 . S
H2261 C2247 0.961 . S
H2262 C2247 0.961 . S
H2263 C2247 0.961 1_545 S
H2264 C2248 0.931 . S
H2265 C2253 0.930 . S
H2266 C2254 0.956 . S
H2267 C2254 0.961 . S
H2268 C2254 0.961 . S
H2269 C2255 0.958 . S
H2270 C2255 0.961 . S
H2271 C2255 0.960 . S
C2272 C2273 1.391 1_565 S
C2272 C2274 1.394 . S
C2272 H2288 0.931 . S
C2273 C2272 1.391 1_545 S
C2273 C2277 1.376 1_455 S
C2274 C2272 1.394 . S
C2274 C2275 1.330 1_455 S
C2274 C2278 1.531 . S
C2275 C2274 1.330 1_655 S
C2275 C2276 1.446 1_565 S
C2275 C2283 1.506 . S
C2276 C2275 1.446 1_545 S
C2276 C2277 1.392 . S
C2276 C2279 1.511 . S
C2277 C2273 1.376 1_655 S
C2277 C2276 1.392 . S
C2277 H2289 0.929 . S
C2278 C2274 1.531 . S
C2278 H2290 0.960 . S
C2278 H2291 0.962 . S
C2278 H2292 0.960 . S
C2279 C2276 1.511 . S
C2279 H2293 0.961 . S
C2279 H2294 0.961 . S
C2279 H2295 0.961 1_545 S
C2280 C2281 1.370 1_445 S
C2280 C2282 1.363 . S
C2280 H2296 0.931 . S
C2281 C2280 1.370 1_665 S
C2281 C2285 1.408 . S
C2282 C2280 1.363 . S
C2282 C2283 1.370 1_445 S
C2282 C2286 1.524 . S
C2283 C2275 1.506 . S
C2283 C2282 1.370 1_665 S
C2283 C2284 1.403 . S
C2284 C2283 1.403 . S
C2284 C2285 1.404 . S
C2284 C2287 1.539 . S
C2285 C2281 1.408 . S
C2285 C2284 1.404 . S
C2285 H2297 0.930 . S
C2286 C2282 1.524 . S
C2286 H2298 0.956 . S
C2286 H2299 0.961 . S
C2286 H2300 0.961 . S
C2287 C2284 1.539 . S
C2287 H2301 0.958 . S
C2287 H2302 0.961 . S
C2287 H2303 0.960 . S
H2288 C2272 0.931 . S
H2289 C2277 0.929 . S
H2290 C2278 0.960 . S
H2291 C2278 0.962 . S
H2292 C2278 0.960 . S
H2293 C2279 0.961 . S
H2294 C2279 0.961 . S
H2295 C2279 0.961 1_565 S
H2296 C2280 0.931 . S
H2297 C2285 0.930 . S
H2298 C2286 0.956 . S
H2299 C2286 0.961 . S
H2300 C2286 0.961 . S
H2301 C2287 0.958 . S
H2302 C2287 0.961 . S
H2303 C2287 0.960 . S
C2304 C2305 1.391 . S
C2304 C2306 1.394 . S
C2304 H2320 0.931 . S
C2305 C2304 1.391 . S
C2305 C2309 1.376 . S
C2306 C2304 1.394 . S
C2306 C2307 1.369 . S
C2306 C2310 1.531 . S
C2307 C2306 1.369 . S
C2307 C2308 1.410 . S
C2307 C2315 1.503 1_554 S
C2308 C2307 1.410 . S
C2308 C2309 1.392 . S
C2308 C2311 1.511 . S
C2309 C2305 1.376 . S
C2309 C2308 1.392 . S
C2309 H2321 0.929 . S
C2310 C2306 1.531 . S
C2310 H2322 0.960 . S
C2310 H2323 0.962 . S
C2310 H2324 0.960 . S
C2311 C2308 1.511 . S
C2311 H2325 0.961 . S
C2311 H2326 0.961 1_554 S
C2311 H2327 0.961 . S
C2312 C2313 1.370 . S
C2312 C2314 1.363 . S
C2312 H2328 0.931 . S
C2313 C2312 1.370 . S
C2313 C2317 1.408 . S
C2314 C2312 1.363 . S
C2314 C2315 1.370 . S
C2314 C2318 1.524 . S
C2315 C2307 1.503 1_556 S
C2315 C2314 1.370 . S
C2315 C2316 1.403 . S
C2316 C2315 1.403 . S
C2316 C2317 1.404 . S
C2316 C2319 1.539 . S
C2317 C2313 1.408 . S
C2317 C2316 1.404 . S
C2317 H2329 0.930 . S
C2318 C2314 1.524 . S
C2318 H2330 0.956 . S
C2318 H2331 0.961 . S
C2318 H2332 0.961 . S
C2319 C2316 1.539 . S
C2319 H2333 0.958 . S
C2319 H2334 0.961 . S
C2319 H2335 0.909 1_556 S
H2320 C2304 0.931 . S
H2321 C2309 0.929 . S
H2322 C2310 0.960 . S
H2323 C2310 0.962 . S
H2324 C2310 0.960 . S
H2325 C2311 0.961 . S
H2326 C2311 0.961 1_556 S
H2327 C2311 0.961 . S
H2328 C2312 0.931 . S
H2329 C2317 0.930 . S
H2330 C2318 0.956 . S
H2331 C2318 0.961 . S
H2332 C2318 0.961 . S
H2333 C2319 0.958 . S
H2334 C2319 0.961 . S
H2335 C2319 0.909 1_554 S
C2336 C2337 1.391 1_455 S
C2336 C2338 1.394 . S
C2336 H2352 0.931 . S
C2337 C2336 1.391 1_655 S
C2337 C2341 1.376 . S
C2338 C2336 1.394 . S
C2338 C2339 1.369 1_455 S
C2338 C2342 1.531 . S
C2339 C2338 1.369 1_655 S
C2339 C2340 1.410 . S
C2339 C2347 1.503 1_554 S
C2340 C2339 1.410 . S
C2340 C2341 1.392 . S
C2340 C2343 1.511 . S
C2341 C2337 1.376 . S
C2341 C2340 1.392 . S
C2341 H2353 0.929 . S
C2342 C2338 1.531 . S
C2342 H2354 0.960 . S
C2342 H2355 0.962 . S
C2342 H2356 0.960 . S
C2343 C2340 1.511 . S
C2343 H2357 0.961 . S
C2343 H2358 0.961 1_554 S
C2343 H2359 0.961 . S
C2344 C2345 1.370 . S
C2344 C2346 1.363 . S
C2344 H2360 0.931 . S
C2345 C2344 1.370 . S
C2345 C2349 1.408 1_455 S
C2346 C2344 1.363 . S
C2346 C2347 1.370 1_455 S
C2346 C2350 1.524 . S
C2347 C2339 1.503 1_556 S
C2347 C2346 1.370 1_655 S
C2347 C2348 1.403 . S
C2348 C2347 1.403 . S
C2348 C2349 1.404 . S
C2348 C2351 1.539 . S
C2349 C2345 1.408 1_655 S
C2349 C2348 1.404 . S
C2349 H2361 0.930 . S
C2350 C2346 1.524 . S
C2350 H2362 0.939 1_556 S
C2350 H2363 0.961 1_556 S
C2350 H2364 0.961 . S
C2351 C2348 1.539 . S
C2351 H2365 0.958 . S
C2351 H2366 0.961 . S
C2351 H2367 0.960 . S
H2352 C2336 0.931 . S
H2353 C2341 0.929 . S
H2354 C2342 0.960 . S
H2355 C2342 0.962 . S
H2356 C2342 0.960 . S
H2357 C2343 0.961 . S
H2358 C2343 0.961 1_556 S
H2359 C2343 0.961 . S
H2360 C2344 0.931 . S
H2361 C2349 0.930 . S
H2362 C2350 0.939 1_554 S
H2363 C2350 0.961 1_554 S
H2364 C2350 0.961 . S
H2365 C2351 0.958 . S
H2366 C2351 0.961 . S
H2367 C2351 0.960 . S
C2368 C2369 1.391 . S
C2368 C2370 1.394 . S
C2368 H2384 0.931 . S
C2369 C2368 1.391 . S
C2369 C2373 1.376 1_655 S
C2370 C2368 1.394 . S
C2370 C2371 1.330 1_655 S
C2370 C2374 1.531 . S
C2371 C2370 1.330 1_455 S
C2371 C2372 1.447 . S
C2371 C2379 1.506 . S
C2372 C2371 1.447 . S
C2372 C2373 1.392 . S
C2372 C2375 1.511 . S
C2373 C2369 1.376 1_455 S
C2373 C2372 1.392 . S
C2373 H2385 0.929 . S
C2374 C2370 1.531 . S
C2374 H2386 0.960 . S
C2374 H2387 0.962 . S
C2374 H2388 0.960 . S
C2375 C2372 1.511 . S
C2375 H2389 0.961 . S
C2375 H2390 0.961 . S
C2375 H2391 0.961 . S
C2376 C2377 1.370 1_655 S
C2376 C2378 1.363 . S
C2376 H2392 0.931 . S
C2377 C2376 1.370 1_455 S
C2377 C2381 1.408 . S
C2378 C2376 1.363 . S
C2378 C2379 1.370 1_655 S
C2378 C2382 1.524 . S
C2379 C2371 1.506 . S
C2379 C2378 1.370 1_455 S
C2379 C2380 1.403 . S
C2380 C2379 1.403 . S
C2380 C2381 1.404 . S
C2380 C2383 1.539 . S
C2381 C2377 1.408 . S
C2381 C2380 1.404 . S
C2381 H2393 0.930 . S
C2382 C2378 1.524 . S
C2382 H2394 0.956 . S
C2382 H2395 0.961 . S
C2382 H2396 0.961 . S
C2383 C2380 1.539 . S
C2383 H2397 0.958 . S
C2383 H2398 0.961 . S
C2383 H2399 0.960 . S
H2384 C2368 0.931 . S
H2385 C2373 0.929 . S
H2386 C2374 0.960 . S
H2387 C2374 0.962 . S
H2388 C2374 0.960 . S
H2389 C2375 0.961 . S
H2390 C2375 0.961 . S
H2391 C2375 0.961 . S
H2392 C2376 0.931 . S
H2393 C2381 0.930 . S
H2394 C2382 0.956 . S
H2395 C2382 0.961 . S
H2396 C2382 0.961 . S
H2397 C2383 0.958 . S
H2398 C2383 0.961 . S
H2399 C2383 0.960 . S
C2400 C2401 1.391 . S
C2400 C2402 1.394 . S
C2400 H2416 0.931 . S
C2401 C2400 1.391 . S
C2401 C2405 1.376 . S
C2402 C2400 1.394 . S
C2402 C2403 1.369 . S
C2402 C2406 1.531 . S
C2403 C2402 1.369 . S
C2403 C2404 1.410 . S
C2403 C2411 1.503 . S
C2404 C2403 1.410 . S
C2404 C2405 1.392 . S
C2404 C2407 1.511 . S
C2405 C2401 1.376 . S
C2405 C2404 1.392 . S
C2405 H2417 0.929 . S
C2406 C2402 1.531 . S
C2406 H2418 0.960 . S
C2406 H2419 0.962 . S
C2406 H2420 0.960 . S
C2407 C2404 1.511 . S
C2407 H2421 0.961 . S
C2407 H2422 0.961 . S
C2407 H2423 0.961 . S
C2408 C2409 1.370 . S
C2408 C2410 1.363 . S
C2408 H2424 0.931 . S
C2409 C2408 1.370 . S
C2409 C2413 1.408 . S
C2410 C2408 1.363 . S
C2410 C2411 1.370 . S
C2410 C2414 1.524 . S
C2411 C2403 1.503 . S
C2411 C2410 1.370 . S
C2411 C2412 1.403 . S
C2412 C2411 1.403 . S
C2412 C2413 1.404 . S
C2412 C2415 1.539 . S
C2413 C2409 1.408 . S
C2413 C2412 1.404 . S
C2413 H2425 0.930 . S
C2414 C2410 1.524 . S
C2414 H2426 0.956 . S
C2414 H2427 0.961 . S
C2414 H2428 0.961 . S
C2415 C2412 1.539 . S
C2415 H2429 0.958 . S
C2415 H2430 0.961 . S
C2415 H2431 0.960 . S
H2416 C2400 0.931 . S
H2417 C2405 0.929 . S
H2418 C2406 0.960 . S
H2419 C2406 0.962 . S
H2420 C2406 0.960 . S
H2421 C2407 0.961 . S
H2422 C2407 0.961 . S
H2423 C2407 0.961 . S
H2424 C2408 0.931 . S
H2425 C2413 0.930 . S
H2426 C2414 0.956 . S
H2427 C2414 0.961 . S
H2428 C2414 0.961 . S
H2429 C2415 0.958 . S
H2430 C2415 0.961 . S
H2431 C2415 0.960 . S
C1409 C137 1.512 . S
C1417 C29 1.515 . S
C1441 C196 1.508 . S
C1449 C293 1.517 . S
C1473 C401 1.497 . S
C1481 C489 1.509 . S
C1505 C645 1.502 . S
C1513 C548 1.509 . S
C1537 C841 1.508 . S
C1545 C753 1.517 . S
C1569 C997 1.514 . S
C1577 C909 1.512 . S
C1601 C1201 1.498 . S
C1609 C1113 1.510 . S
C1633 C1349 1.508 . S
C1641 C1252 1.505 . S
C1665 C313 1.113 . S
C1673 C49 1.130 . S
C1697 C117 1.090 . S
C1705 C233 1.123 . S
C1729 C636 1.111 . S
C1737 C409 1.130 . S
C1761 C557 1.083 . S
C1769 C497 1.117 . S
C1793 C733 1.083 . S
C1801 C1017 1.115 . S
C1825 C929 1.105 . S
C1833 C821 1.104 . S
C1857 C1340 1.146 . S
C1865 C1105 1.117 . S
C1889 C1193 1.084 . S
C1897 C1261 1.116 . S
C1921 C57 1.693 . S
C1929 C812 1.692 . S
C1953 C108 1.680 . S
C1961 C724 1.698 . S
C1985 C1025 1.686 . S
C1993 C225 1.695 . S
C2017 C937 1.699 . S
C2025 C321 1.691 . S
C2049 C1173 1.712 . S
C2057 C372 1.691 . S
C2081 C1085 1.693 . S
C2089 C460 1.698 . S
C2113 C577 1.709 . S
C2121 C1377 1.695 . S
C2145 C673 1.714 . S
C2153 C1281 1.691 . S
C2177 C381 1.111 . S
C2185 C20 1.175 . S
C2209 C469 1.148 . S
C2217 C145 1.159 . S
C2241 C585 1.125 . S
C2249 C205 1.168 . S
C2273 C665 1.125 . S
C2281 C284 1.168 . S
C2305 C761 1.099 . S
C2313 C1076 1.171 . S
C2337 C849 1.105 . S
C2345 C1164 1.166 . S
C2369 C1289 1.121 . S
C2377 C900 1.159 . S
C2401 C1369 1.127 . S
C2409 C988 1.156 . S
