# Generated by pormake.
# Topology wji, (4)-cn, num edge types: 1
# Building blocks:
#     Node 0, Type 0, BuildingBlock: UXUYUI_clean_sbu_0, # of connection points: 4
#     Node 1, Type 0, BuildingBlock: UXUYUI_clean_sbu_0, # of connection points: 4
#     Node 2, Type 0, BuildingBlock: UXUYUI_clean_sbu_0, # of connection points: 4
#     Node 3, Type 0, BuildingBlock: UXUYUI_clean_sbu_0, # of connection points: 4
#     Node 4, Type 0, BuildingBlock: UXUYUI_clean_sbu_0, # of connection points: 4
#     Node 5, Type 0, BuildingBlock: UXUYUI_clean_sbu_0, # of connection points: 4
#     Node 6, Type 0, BuildingBlock: UXUYUI_clean_sbu_0, # of connection points: 4
#     Node 7, Type 0, BuildingBlock: UXUYUI_clean_sbu_0, # of connection points: 4
#     Node 8, Type 0, BuildingBlock: UXUYUI_clean_sbu_0, # of connection points: 4
#     Node 9, Type 0, BuildingBlock: UXUYUI_clean_sbu_0, # of connection points: 4
#     Node 10, Type 0, BuildingBlock: UXUYUI_clean_sbu_0, # of connection points: 4
#     Node 11, Type 0, BuildingBlock: UXUYUI_clean_sbu_0, # of connection points: 4
#     Edge 12, Type (0, 0), BuildingBlock: CIFDUS_clean_linker_0, # of connection points: 2
#     Edge 13, Type (0, 0), BuildingBlock: CIFDUS_clean_linker_0, # of connection points: 2
#     Edge 14, Type (0, 0), BuildingBlock: CIFDUS_clean_linker_0, # of connection points: 2
#     Edge 15, Type (0, 0), BuildingBlock: CIFDUS_clean_linker_0, # of connection points: 2
#     Edge 16, Type (0, 0), BuildingBlock: CIFDUS_clean_linker_0, # of connection points: 2
#     Edge 17, Type (0, 0), BuildingBlock: CIFDUS_clean_linker_0, # of connection points: 2
#     Edge 18, Type (0, 0), BuildingBlock: CIFDUS_clean_linker_0, # of connection points: 2
#     Edge 19, Type (0, 0), BuildingBlock: CIFDUS_clean_linker_0, # of connection points: 2
#     Edge 20, Type (0, 0), BuildingBlock: CIFDUS_clean_linker_0, # of connection points: 2
#     Edge 21, Type (0, 0), BuildingBlock: CIFDUS_clean_linker_0, # of connection points: 2
#     Edge 22, Type (0, 0), BuildingBlock: CIFDUS_clean_linker_0, # of connection points: 2
#     Edge 23, Type (0, 0), BuildingBlock: CIFDUS_clean_linker_0, # of connection points: 2
#     Edge 24, Type (0, 0), BuildingBlock: CIFDUS_clean_linker_0, # of connection points: 2
#     Edge 25, Type (0, 0), BuildingBlock: CIFDUS_clean_linker_0, # of connection points: 2
#     Edge 26, Type (0, 0), BuildingBlock: CIFDUS_clean_linker_0, # of connection points: 2
#     Edge 27, Type (0, 0), BuildingBlock: CIFDUS_clean_linker_0, # of connection points: 2
#     Edge 28, Type (0, 0), BuildingBlock: CIFDUS_clean_linker_0, # of connection points: 2
#     Edge 29, Type (0, 0), BuildingBlock: CIFDUS_clean_linker_0, # of connection points: 2
#     Edge 30, Type (0, 0), BuildingBlock: CIFDUS_clean_linker_0, # of connection points: 2
#     Edge 31, Type (0, 0), BuildingBlock: CIFDUS_clean_linker_0, # of connection points: 2
#     Edge 32, Type (0, 0), BuildingBlock: CIFDUS_clean_linker_0, # of connection points: 2
#     Edge 33, Type (0, 0), BuildingBlock: CIFDUS_clean_linker_0, # of connection points: 2
#     Edge 34, Type (0, 0), BuildingBlock: CIFDUS_clean_linker_0, # of connection points: 2
#     Edge 35, Type (0, 0), BuildingBlock: CIFDUS_clean_linker_0, # of connection points: 2
# Relax obj value: 0.267
# Max RMSD: 0.141
# Mean RMSD: 0.141
data_MOF--net-wji--node1-UXUYUI_clean_sbu_0--edge1-CIFDUS_clean_linker_0
_symmetry_space_group_name_H-M    P1
_symmetry_Int_Tables_number       1
_symmetry_cell_setting            triclinic
loop_
_symmetry_equiv_pos_as_xyz
'x, y, z'
_cell_length_a     76.566278
_cell_length_b     76.58525
_cell_length_c     30.521601
_cell_angle_alpha  89.990102
_cell_angle_beta   90.016764
_cell_angle_gamma 120.00686
loop_
_atom_site_label
_atom_site_type_symbol
_atom_site_fract_x
_atom_site_fract_y
_atom_site_fract_z
_atom_type_partial_charge
Li0 Li 0.41222 0.32563 0.4509 0.0
Li1 Li 0.41684 0.29801 0.42739 0.0
Li2 Li 0.44214 0.33454 0.40816 0.0
Li3 Li 0.40889 0.31714 0.37199 0.0
C4 C 0.43643 0.32477 0.5101 0.0
N5 N 0.43853 0.33253 0.59898 0.0
C6 C 0.42628 0.30895 0.53984 0.0
C7 C 0.44783 0.34452 0.52565 0.0
C8 C 0.42749 0.31318 0.58462 0.0
C9 C 0.44865 0.34814 0.57067 0.0
C10 C 0.37568 0.28233 0.40908 0.0
C11 C 0.35987 0.25489 0.35752 0.0
N12 N 0.34277 0.24652 0.38212 0.0
C13 C 0.3579 0.27355 0.43368 0.0
C14 C 0.37664 0.27301 0.37057 0.0
C15 C 0.34145 0.2554 0.41959 0.0
C16 C 0.40723 0.35278 0.50571 0.0
N17 N 0.40144 0.33314 0.49827 0.0
C18 C 0.3812 0.32297 0.56295 0.0
C19 C 0.38853 0.31827 0.52563 0.0
C20 C 0.38722 0.34319 0.57203 0.0
C21 C 0.40033 0.35818 0.54267 0.0
H22 H 0.41744 0.36428 0.4834 0.0
H23 H 0.38426 0.30277 0.51884 0.0
C24 C 0.43097 0.2712 0.44703 0.0
N25 N 0.41444 0.27341 0.44866 0.0
C26 C 0.43146 0.25582 0.47079 0.0
C27 C 0.39767 0.24489 0.49627 0.0
C28 C 0.39783 0.26045 0.47204 0.0
C29 C 0.41484 0.24272 0.49681 0.0
H30 H 0.44418 0.28205 0.42917 0.0
H31 H 0.38514 0.26289 0.4742 0.0
C32 C 0.43298 0.36384 0.38802 0.0
N33 N 0.45491 0.40377 0.3624 0.0
C34 C 0.43041 0.36959 0.34611 0.0
C35 C 0.44658 0.37847 0.41701 0.0
C36 C 0.44166 0.38983 0.33376 0.0
C37 C 0.45758 0.39855 0.4034 0.0
C38 C 0.43488 0.30295 0.33313 0.0
C39 C 0.44807 0.31646 0.30194 0.0
C40 C 0.42658 0.28222 0.32664 0.0
C41 C 0.45234 0.30899 0.26415 0.0
C42 C 0.43124 0.27534 0.28845 0.0
N43 N 0.4439 0.28876 0.25823 0.0
C44 C 0.48312 0.35613 0.43362 0.0
C45 C 0.47632 0.36687 0.36615 0.0
C46 C 0.50293 0.37228 0.43334 0.0
N47 N 0.47012 0.3541 0.40102 0.0
C48 C 0.49588 0.38337 0.36485 0.0
C49 C 0.50929 0.38649 0.3993 0.0
H50 H 0.47788 0.34567 0.46078 0.0
H51 H 0.4658 0.36487 0.34041 0.0
C52 C 0.37616 0.31534 0.32702 0.0
N53 N 0.39444 0.31691 0.32026 0.0
C54 C 0.36602 0.31855 0.29264 0.0
C55 C 0.39347 0.32449 0.2445 0.0
C56 C 0.40304 0.32105 0.27981 0.0
C57 C 0.37488 0.32371 0.25084 0.0
H58 H 0.36979 0.3124 0.35964 0.0
H59 H 0.41781 0.32285 0.27534 0.0
O60 O 0.43491 0.32098 0.46601 0.0
O61 O 0.39189 0.3001 0.42254 0.0
O62 O 0.42222 0.34402 0.40048 0.0
O63 O 0.4308 0.30997 0.37075 0.0
H64 H 0.41735 0.29359 0.52851 0.0
H65 H 0.45587 0.35694 0.50322 0.0
H66 H 0.41958 0.30109 0.60794 0.0
H67 H 0.45732 0.36337 0.5831 0.0
H68 H 0.36043 0.24752 0.32775 0.0
H69 H 0.35685 0.28066 0.46345 0.0
H70 H 0.39009 0.27981 0.35069 0.0
H71 H 0.32763 0.24839 0.43841 0.0
H72 H 0.37093 0.31092 0.58439 0.0
H73 H 0.40558 0.37398 0.54866 0.0
H74 H 0.44512 0.2549 0.4706 0.0
H75 H 0.38445 0.23504 0.51545 0.0
H76 H 0.41986 0.35858 0.32332 0.0
H77 H 0.44893 0.37433 0.44938 0.0
H78 H 0.43985 0.39446 0.30138 0.0
H79 H 0.4683 0.40997 0.42538 0.0
H80 H 0.45478 0.33253 0.30661 0.0
H81 H 0.41673 0.27154 0.35093 0.0
H82 H 0.4624 0.31929 0.23956 0.0
H83 H 0.42485 0.25934 0.28292 0.0
H84 H 0.51282 0.3742 0.46056 0.0
H85 H 0.50032 0.39391 0.33781 0.0
H86 H 0.35161 0.31747 0.29907 0.0
H87 H 0.40109 0.32873 0.21315 0.0
Li88 Li 0.11887 0.41561 0.59451 0.0
Li89 Li 0.08584 0.40842 0.61974 0.0
Li90 Li 0.09156 0.40817 0.54112 0.0
Li91 Li 0.10582 0.44003 0.58162 0.0
C92 C 0.09538 0.37531 0.5699 0.0
N93 N 0.10096 0.34524 0.53463 0.0
C94 C 0.08579 0.35606 0.58854 0.0
C95 C 0.10778 0.37926 0.53335 0.0
C96 C 0.08882 0.34106 0.57025 0.0
C97 C 0.1104 0.36386 0.51596 0.0
C98 C 0.11028 0.43209 0.68145 0.0
C99 C 0.09509 0.43899 0.74342 0.0
N100 N 0.10501 0.43292 0.77089 0.0
C101 C 0.12049 0.42612 0.71034 0.0
C102 C 0.09764 0.43878 0.69814 0.0
C103 C 0.11758 0.42659 0.75542 0.0
C104 C 0.16012 0.4304 0.61246 0.0
N105 N 0.14147 0.41378 0.61462 0.0
C106 C 0.15318 0.39817 0.66558 0.0
C107 C 0.13789 0.39759 0.63952 0.0
C108 C 0.17233 0.41563 0.66623 0.0
C109 C 0.17589 0.43159 0.63786 0.0
H110 H 0.16241 0.44325 0.59324 0.0
H111 H 0.12275 0.38489 0.64203 0.0
C112 C 0.05036 0.39639 0.66895 0.0
N113 N 0.06751 0.39535 0.66584 0.0
C114 C 0.03788 0.38835 0.70541 0.0
C115 C 0.0607 0.37787 0.73398 0.0
C116 C 0.07261 0.3859 0.69672 0.0
C117 C 0.04323 0.37928 0.73879 0.0
H118 H 0.04662 0.40381 0.64361 0.0
H119 H 0.08627 0.38515 0.69292 0.0
C120 C 0.128 0.43621 0.49902 0.0
N121 N 0.14379 0.44654 0.41549 0.0
C122 C 0.12034 0.44465 0.46952 0.0
C123 C 0.14376 0.4331 0.48614 0.0
C124 C 0.12851 0.44975 0.42741 0.0
C125 C 0.15151 0.43839 0.44373 0.0
C126 C 0.06841 0.43075 0.55911 0.0
C127 C 0.06522 0.43235 0.51451 0.0
C128 C 0.06295 0.44072 0.58983 0.0
C129 C 0.05673 0.44396 0.50143 0.0
C130 C 0.05456 0.45223 0.57542 0.0
N131 N 0.05164 0.4536 0.53189 0.0
C132 C 0.05679 0.38279 0.49699 0.0
C133 C 0.08455 0.39593 0.44821 0.0
C134 C 0.04326 0.37375 0.46242 0.0
N135 N 0.07694 0.39411 0.48932 0.0
C136 C 0.07149 0.38726 0.41247 0.0
C137 C 0.05049 0.37637 0.41928 0.0
H138 H 0.05115 0.38154 0.53001 0.0
H139 H 0.10062 0.40452 0.44279 0.0
C140 C 0.12117 0.47831 0.6201 0.0
N141 N 0.11302 0.46803 0.58228 0.0
C142 C 0.12371 0.49749 0.62638 0.0
C143 C 0.11103 0.49603 0.55324 0.0
C144 C 0.10854 0.47676 0.54854 0.0
C145 C 0.11814 0.50637 0.59308 0.0
H146 H 0.12514 0.47139 0.6461 0.0
H147 H 0.10217 0.4685 0.51867 0.0
O148 O 0.09261 0.39013 0.58769 0.0
O149 O 0.11254 0.43128 0.63708 0.0
O150 O 0.12037 0.43123 0.54054 0.0
O151 O 0.07682 0.41953 0.57264 0.0
H152 H 0.07617 0.35279 0.61693 0.0
H153 H 0.11524 0.39402 0.51849 0.0
H154 H 0.08153 0.3261 0.58437 0.0
H155 H 0.11995 0.36671 0.48763 0.0
H156 H 0.08519 0.44394 0.75671 0.0
H157 H 0.1305 0.42112 0.6982 0.0
H158 H 0.0897 0.44355 0.67633 0.0
H159 H 0.1253 0.4219 0.77811 0.0
H160 H 0.14958 0.38563 0.68729 0.0
H161 H 0.19047 0.44523 0.63674 0.0
H162 H 0.02455 0.38979 0.70814 0.0
H163 H 0.06516 0.37078 0.75886 0.0
H164 H 0.10794 0.4468 0.47867 0.0
H165 H 0.14992 0.42666 0.5087 0.0
H166 H 0.12262 0.45616 0.40413 0.0
H167 H 0.16367 0.43603 0.43328 0.0
H168 H 0.06948 0.42495 0.49012 0.0
H169 H 0.0653 0.43971 0.62443 0.0
H170 H 0.05427 0.44539 0.46703 0.0
H171 H 0.05038 0.46011 0.59885 0.0
H172 H 0.02724 0.36566 0.46928 0.0
H173 H 0.07772 0.38939 0.37977 0.0
H174 H 0.12956 0.50513 0.65734 0.0
H175 H 0.10647 0.50233 0.52681 0.0
Li176 Li 0.70276 0.11535 0.7651 0.0
Li177 Li 0.67671 0.08192 0.78847 0.0
Li178 Li 0.68347 0.08868 0.71028 0.0
Li179 Li 0.66559 0.10264 0.75063 0.0
C180 C 0.71976 0.09251 0.73784 0.0
N181 N 0.75505 0.09894 0.69883 0.0
C182 C 0.72813 0.0806 0.74939 0.0
C183 C 0.72931 0.10767 0.70644 0.0
C184 C 0.74599 0.08409 0.72931 0.0
C185 C 0.74714 0.11069 0.68709 0.0
C186 C 0.67636 0.10692 0.85055 0.0
C187 C 0.65271 0.09367 0.91048 0.0
N188 N 0.66815 0.10363 0.93928 0.0
C189 C 0.69197 0.1172 0.88071 0.0
C190 C 0.65655 0.09522 0.86549 0.0
C191 C 0.68752 0.11529 0.92544 0.0
C192 C 0.72939 0.15661 0.78301 0.0
N193 N 0.72701 0.13784 0.78613 0.0
C194 C 0.7553 0.14989 0.83448 0.0
C195 C 0.73972 0.13428 0.81068 0.0
C196 C 0.75776 0.16934 0.83323 0.0
C197 C 0.74481 0.17268 0.80623 0.0
H198 H 0.7187 0.15888 0.76422 0.0
H199 H 0.73714 0.11909 0.81358 0.0
C200 C 0.65426 0.04354 0.82646 0.0
N201 N 0.67025 0.06237 0.8325 0.0
C202 C 0.64879 0.02902 0.85917 0.0
C203 C 0.67659 0.05346 0.90322 0.0
C204 C 0.68175 0.06738 0.86932 0.0
C205 C 0.65985 0.03409 0.89832 0.0
H206 H 0.64571 0.03984 0.79635 0.0
H207 H 0.69481 0.08226 0.87249 0.0
C208 C 0.68943 0.12439 0.66916 0.0
N209 N 0.68975 0.13838 0.58557 0.0
C210 C 0.67213 0.11495 0.64312 0.0
C211 C 0.7069 0.14096 0.65276 0.0
C212 C 0.67259 0.12224 0.60092 0.0
C213 C 0.70676 0.14781 0.61039 0.0
C214 C 0.6373 0.06376 0.729 0.0
C215 C 0.63166 0.05953 0.68498 0.0
C216 C 0.62241 0.05732 0.7613 0.0
C217 C 0.61121 0.04916 0.67401 0.0
C218 C 0.60211 0.04703 0.74899 0.0
N219 N 0.59698 0.0432 0.70597 0.0
C220 C 0.67432 0.05439 0.66514 0.0
C221 C 0.68898 0.08249 0.61728 0.0
C222 C 0.66991 0.04112 0.63014 0.0
N223 N 0.68313 0.07457 0.65812 0.0
C224 C 0.68479 0.06971 0.58112 0.0
C225 C 0.67467 0.04865 0.58722 0.0
H226 H 0.66984 0.04851 0.69798 0.0
H227 H 0.69633 0.09861 0.61245 0.0
C228 C 0.64546 0.12155 0.78612 0.0
N229 N 0.64511 0.11019 0.75151 0.0
C230 C 0.62967 0.12541 0.79286 0.0
C231 C 0.61399 0.10697 0.7266 0.0
C232 C 0.63003 0.10335 0.72131 0.0
C233 C 0.61345 0.11773 0.76334 0.0
H234 H 0.65776 0.12718 0.8093 0.0
H235 H 0.62997 0.0945 0.69383 0.0
O236 O 0.70222 0.08915 0.75716 0.0
O237 O 0.68044 0.10841 0.80661 0.0
O238 O 0.68935 0.11748 0.7105 0.0
O239 O 0.65727 0.0739 0.74045 0.0
H240 H 0.72089 0.06878 0.77363 0.0
H241 H 0.72308 0.11704 0.6971 0.0
H242 H 0.75265 0.07499 0.73793 0.0
H243 H 0.75469 0.12238 0.66274 0.0
H244 H 0.63746 0.08457 0.9225 0.0
H245 H 0.70736 0.12647 0.86977 0.0
H246 H 0.64428 0.08741 0.84259 0.0
H247 H 0.69947 0.12306 0.94916 0.0
H248 H 0.76504 0.14665 0.85442 0.0
H249 H 0.74595 0.18734 0.80466 0.0
H250 H 0.63578 0.01417 0.8544 0.0
H251 H 0.68559 0.05774 0.93284 0.0
H252 H 0.65866 0.10192 0.65503 0.0
H253 H 0.72042 0.14844 0.67258 0.0
H254 H 0.65933 0.11499 0.58031 0.0
H255 H 0.72018 0.16061 0.59725 0.0
H256 H 0.64291 0.06437 0.65943 0.0
H257 H 0.62645 0.0602 0.79553 0.0
H258 H 0.60664 0.0459 0.64007 0.0
H259 H 0.59044 0.04205 0.77366 0.0
H260 H 0.66192 0.02506 0.63655 0.0
H261 H 0.68906 0.07621 0.54868 0.0
H262 H 0.63 0.13406 0.82125 0.0
H263 H 0.60172 0.10066 0.70316 0.0
Li264 Li 0.59067 0.67667 0.95076 0.0
Li265 Li 0.58358 0.70341 0.92531 0.0
Li266 Li 0.55962 0.66632 0.91127 0.0
Li267 Li 0.5916 0.68379 0.87326 0.0
C268 C 0.56825 0.67881 0.01235 0.0
N269 N 0.57018 0.67469 0.10193 0.0
C270 C 0.57702 0.69586 0.0393 0.0
C271 C 0.56042 0.65966 0.03104 0.0
C272 C 0.57784 0.69345 0.0845 0.0
C273 C 0.56158 0.6579 0.07636 0.0
C274 C 0.62787 0.71157 0.90461 0.0
C275 C 0.65329 0.73555 0.85568 0.0
N276 N 0.66616 0.72922 0.86905 0.0
C277 C 0.6414 0.70539 0.91811 0.0
C278 C 0.63389 0.72686 0.87338 0.0
C279 C 0.66067 0.71447 0.89965 0.0
C280 C 0.60118 0.65119 0.99508 0.0
N281 N 0.60331 0.66988 0.99545 0.0
C282 C 0.62355 0.67863 0.06005 0.0
C283 C 0.61444 0.68368 0.02661 0.0
C284 C 0.6213 0.65927 0.06094 0.0
C285 C 0.61 0.6455 0.02779 0.0
H286 H 0.59262 0.64068 0.96941 0.0
H287 H 0.6162 0.6986 0.02545 0.0
C288 C 0.56776 0.72647 0.95967 0.0
N289 N 0.58513 0.72771 0.94517 0.0
C290 C 0.56837 0.74213 0.98436 0.0
C291 C 0.60464 0.76056 0.97658 0.0
C292 C 0.60336 0.74443 0.9524 0.0
C293 C 0.58703 0.75925 0.99403 0.0
H294 H 0.55353 0.71277 0.9543 0.0
H295 H 0.61697 0.74478 0.94153 0.0
C296 C 0.56793 0.63788 0.88902 0.0
N297 N 0.5435 0.59852 0.86155 0.0
C298 C 0.56693 0.63296 0.84461 0.0
C299 C 0.55653 0.62273 0.91943 0.0
C300 C 0.55451 0.61298 0.8314 0.0
C301 C 0.54424 0.60295 0.90489 0.0
C302 C 0.56948 0.6989 0.83144 0.0
C303 C 0.5572 0.6877 0.79644 0.0
C304 C 0.58215 0.7197 0.82697 0.0
C305 C 0.55808 0.69749 0.75717 0.0
C306 C 0.58262 0.72893 0.78716 0.0
N307 N 0.57068 0.71773 0.75337 0.0
C308 C 0.52046 0.64004 0.94443 0.0
C309 C 0.52474 0.6355 0.86921 0.0
C310 C 0.50151 0.6226 0.9446 0.0
N311 N 0.53192 0.64571 0.90749 0.0
C312 C 0.50598 0.61787 0.86799 0.0
C313 C 0.49438 0.61092 0.90639 0.0
H314 H 0.52637 0.64857 0.97429 0.0
H315 H 0.53407 0.6404 0.84021 0.0
C316 C 0.61776 0.67465 0.83276 0.0
N317 N 0.60617 0.68291 0.82251 0.0
C318 C 0.62782 0.67036 0.80025 0.0
C319 C 0.61387 0.68303 0.74638 0.0
C320 C 0.60437 0.68751 0.7803 0.0
C321 C 0.62552 0.67393 0.75605 0.0
H322 H 0.61868 0.67076 0.8664 0.0
H323 H 0.59507 0.69399 0.77252 0.0
O324 O 0.5677 0.68085 0.96787 0.0
O325 O 0.60883 0.70264 0.92182 0.0
O326 O 0.57975 0.65743 0.90259 0.0
O327 O 0.56866 0.68961 0.87024 0.0
H328 H 0.58339 0.71081 0.02555 0.0
H329 H 0.55378 0.64631 0.01072 0.0
H330 H 0.58465 0.70652 0.10569 0.0
H331 H 0.55569 0.64318 0.09119 0.0
H332 H 0.65811 0.74732 0.8313 0.0
H333 H 0.637 0.69356 0.94218 0.0
H334 H 0.62368 0.73189 0.86269 0.0
H335 H 0.67124 0.70975 0.90958 0.0
H336 H 0.63238 0.68978 0.08465 0.0
H337 H 0.60773 0.63036 0.02746 0.0
H338 H 0.55443 0.7406 0.99688 0.0
H339 H 0.61935 0.77339 0.98363 0.0
H340 H 0.57539 0.64443 0.82043 0.0
H341 H 0.55692 0.62624 0.95384 0.0
H342 H 0.55354 0.60899 0.79713 0.0
H343 H 0.53522 0.59113 0.92804 0.0
H344 H 0.54719 0.67161 0.79946 0.0
H345 H 0.59143 0.72864 0.85402 0.0
H346 H 0.54875 0.689 0.72972 0.0
H347 H 0.59241 0.74501 0.78319 0.0
H348 H 0.49304 0.61773 0.97491 0.0
H349 H 0.50089 0.60941 0.83772 0.0
H350 H 0.63701 0.66392 0.80985 0.0
H351 H 0.61143 0.68596 0.7129 0.0
Li352 Li 0.91192 0.5883 0.11527 0.0
Li353 Li 0.87881 0.58086 0.08465 0.0
Li354 Li 0.89359 0.55823 0.07126 0.0
Li355 Li 0.90838 0.59102 0.03693 0.0
C356 C 0.88508 0.56263 0.17152 0.0
N357 N 0.88653 0.55991 0.26166 0.0
C358 C 0.873 0.56714 0.19817 0.0
C359 C 0.89777 0.55658 0.19081 0.0
C360 C 0.87397 0.56569 0.24364 0.0
C361 C 0.89834 0.55536 0.23641 0.0
C362 C 0.91517 0.62607 0.07147 0.0
C363 C 0.91804 0.65318 0.02616 0.0
N364 N 0.93712 0.66525 0.04128 0.0
C365 C 0.93474 0.63878 0.08684 0.0
C366 C 0.90668 0.63334 0.04114 0.0
C367 C 0.94561 0.65853 0.07108 0.0
C368 C 0.94669 0.60002 0.16598 0.0
N369 N 0.92897 0.60001 0.1641 0.0
C370 C 0.93478 0.6155 0.23451 0.0
C371 C 0.92302 0.6079 0.19686 0.0
C372 C 0.95296 0.61531 0.23777 0.0
C373 C 0.95901 0.60765 0.20276 0.0
H374 H 0.95114 0.59392 0.1391 0.0
H375 H 0.90897 0.60796 0.19398 0.0
C376 C 0.83736 0.56393 0.10393 0.0
N377 N 0.85533 0.58143 0.10271 0.0
C378 C 0.82144 0.5626 0.12901 0.0
C379 C 0.84254 0.5976 0.14916 0.0
C380 C 0.85801 0.59827 0.12358 0.0
C381 C 0.82417 0.57938 0.15346 0.0
H382 H 0.83584 0.55064 0.08792 0.0
H383 H 0.87267 0.6118 0.12316 0.0
C384 C 0.93106 0.5681 0.05404 0.0
N385 N 0.94718 0.54483 0.02586 0.0
C386 C 0.93474 0.56715 0.00947 0.0
C387 C 0.93566 0.55727 0.08426 0.0
C388 C 0.94292 0.55532 0.9959 0.0
C389 C 0.94374 0.54555 0.06935 0.0
C390 C 0.8724 0.56962 0.98987 0.0
C391 C 0.87218 0.55856 0.95324 0.0
C392 C 0.86429 0.58236 0.98685 0.0
C393 C 0.86408 0.56067 0.9139 0.0
C394 C 0.85635 0.58407 0.94691 0.0
N395 N 0.85642 0.57329 0.91156 0.0
C396 C 0.88243 0.51915 0.10187 0.0
C397 C 0.89052 0.52419 0.02635 0.0
C398 C 0.88124 0.50037 0.10064 0.0
N399 N 0.88764 0.5309 0.06542 0.0
C400 C 0.88945 0.50547 0.02357 0.0
C401 C 0.8853 0.49351 0.06136 0.0
H402 H 0.87988 0.52463 0.13236 0.0
H403 H 0.89451 0.53374 0.99775 0.0
C404 C 0.94477 0.61822 1.00035 0.0
N405 N 0.92502 0.60714 0.98862 0.0
C406 C 0.95956 0.62946 0.96933 0.0
C407 C 0.93359 0.61771 0.91395 0.0
C408 C 0.91917 0.60696 0.9464 0.0
C409 C 0.95411 0.62901 0.92532 0.0
H410 H 0.94914 0.61782 0.03386 0.0
H411 H 0.90349 0.59817 0.93744 0.0
O412 O 0.88464 0.56434 0.12689 0.0
O413 O 0.90443 0.60658 0.08591 0.0
O414 O 0.92267 0.57927 0.06794 0.0
O415 O 0.88009 0.5676 0.02872 0.0
H416 H 0.86304 0.57178 0.18405 0.0
H417 H 0.90734 0.55318 0.17081 0.0
H418 H 0.86475 0.5692 0.26461 0.0
H419 H 0.90824 0.55087 0.25171 0.0
H420 H 0.9117 0.65897 0.00248 0.0
H421 H 0.94157 0.63341 0.1103 0.0
H422 H 0.89152 0.62376 0.02912 0.0
H423 H 0.96082 0.66849 0.08245 0.0
H424 H 0.92977 0.62151 0.26067 0.0
H425 H 0.97289 0.60716 0.20421 0.0
H426 H 0.80747 0.54833 0.13079 0.0
H427 H 0.8455 0.61084 0.16777 0.0
H428 H 0.93104 0.57518 0.98547 0.0
H429 H 0.93281 0.55771 0.11881 0.0
H430 H 0.94575 0.55437 0.96151 0.0
H431 H 0.94723 0.53698 0.09236 0.0
H432 H 0.87829 0.54854 0.9551 0.0
H433 H 0.86406 0.59078 0.01504 0.0
H434 H 0.8639 0.55229 0.88521 0.0
H435 H 0.85009 0.59394 0.94405 0.0
H436 H 0.87811 0.49179 0.13068 0.0
H437 H 0.89234 0.50064 0.9924 0.0
H438 H 0.97522 0.63772 0.97938 0.0
H439 H 0.92881 0.61703 0.8803 0.0
Li440 Li 0.32613 0.91711 0.2913 0.0
Li441 Li 0.29992 0.8844 0.26588 0.0
Li442 Li 0.33598 0.89688 0.25106 0.0
Li443 Li 0.32005 0.91268 0.21163 0.0
C444 C 0.32458 0.89249 0.35158 0.0
N445 N 0.3305 0.89846 0.4409 0.0
C446 C 0.30807 0.88579 0.37975 0.0
C447 C 0.3441 0.90204 0.3689 0.0
C448 C 0.31137 0.88898 0.4248 0.0
C449 C 0.34678 0.90497 0.41412 0.0
C450 C 0.28399 0.90906 0.24112 0.0
C451 C 0.25657 0.89305 0.18953 0.0
N452 N 0.24955 0.90533 0.20308 0.0
C453 C 0.27653 0.92153 0.2545 0.0
C454 C 0.27398 0.89471 0.20833 0.0
C455 C 0.25908 0.9194 0.23488 0.0
C456 C 0.35162 0.94967 0.34597 0.0
N457 N 0.33218 0.93534 0.33824 0.0
C458 C 0.32108 0.94534 0.40161 0.0
C459 C 0.31693 0.93312 0.3647 0.0
C460 C 0.34112 0.96 0.41104 0.0
C461 C 0.35647 0.96216 0.38247 0.0
H462 H 0.3634 0.95119 0.32427 0.0
H463 H 0.30158 0.92158 0.35752 0.0
C464 C 0.27413 0.84373 0.28882 0.0
N465 N 0.27512 0.86192 0.28604 0.0
C466 C 0.25829 0.82775 0.31126 0.0
C467 C 0.24477 0.8495 0.32806 0.0
C468 C 0.26077 0.86501 0.30485 0.0
C469 C 0.24354 0.83064 0.33199 0.0
H470 H 0.28624 0.84194 0.27572 0.0
H471 H 0.26228 0.87981 0.30399 0.0
C472 C 0.36564 0.93487 0.2307 0.0
N473 N 0.40549 0.95248 0.20464 0.0
C474 C 0.37108 0.94154 0.18755 0.0
C475 C 0.38053 0.93732 0.26065 0.0
C476 C 0.39129 0.95037 0.17501 0.0
C477 C 0.40057 0.9462 0.24682 0.0
C478 C 0.31894 0.87405 0.18009 0.0
C479 C 0.33385 0.88512 0.14903 0.0
C480 C 0.31061 0.85315 0.18223 0.0
C481 C 0.34027 0.87511 0.12077 0.0
C482 C 0.31742 0.84368 0.15339 0.0
N483 N 0.332 0.85476 0.12353 0.0
C484 C 0.35562 0.87699 0.28391 0.0
C485 C 0.37072 0.895 0.21873 0.0
C486 C 0.37136 0.87302 0.29013 0.0
N487 N 0.35592 0.88845 0.24956 0.0
C488 C 0.38675 0.89133 0.22358 0.0
C489 C 0.38752 0.88075 0.26044 0.0
H490 H 0.34352 0.87155 0.30756 0.0
H491 H 0.37076 0.90401 0.19151 0.0
C492 C 0.32399 0.9466 0.17085 0.0
N493 N 0.32009 0.92766 0.16125 0.0
C494 C 0.32765 0.96048 0.13745 0.0
C495 C 0.32259 0.93495 0.08448 0.0
C496 C 0.3187 0.92142 0.11903 0.0
C497 C 0.32767 0.955 0.09346 0.0
H498 H 0.32495 0.95115 0.20473 0.0
H499 H 0.31537 0.90623 0.11208 0.0
O500 O 0.3217 0.89006 0.30723 0.0
O501 O 0.30114 0.91111 0.25992 0.0
O502 O 0.34591 0.9263 0.24362 0.0
O503 O 0.31249 0.88364 0.20802 0.0
H504 H 0.29286 0.87842 0.36703 0.0
H505 H 0.35706 0.90731 0.34763 0.0
H506 H 0.29873 0.884 0.44694 0.0
H507 H 0.36181 0.91247 0.42791 0.0
H508 H 0.24865 0.88201 0.16415 0.0
H509 H 0.28417 0.93274 0.27979 0.0
H510 H 0.27951 0.88492 0.1975 0.0
H511 H 0.25312 0.92895 0.24493 0.0
H512 H 0.30878 0.94333 0.42248 0.0
H513 H 0.37215 0.97306 0.38877 0.0
H514 H 0.25813 0.81358 0.31418 0.0
H515 H 0.23372 0.85236 0.34354 0.0
H516 H 0.35986 0.93989 0.16389 0.0
H517 H 0.37665 0.93208 0.29401 0.0
H518 H 0.39568 0.95552 0.1417 0.0
H519 H 0.4122 0.94801 0.26957 0.0
H520 H 0.34068 0.90133 0.14731 0.0
H521 H 0.29892 0.84429 0.20566 0.0
H522 H 0.3519 0.88353 0.09681 0.0
H523 H 0.3111 0.8275 0.15471 0.0
H524 H 0.37115 0.86444 0.31854 0.0
H525 H 0.39894 0.89766 0.19997 0.0
H526 H 0.33088 0.9755 0.14622 0.0
H527 H 0.32247 0.92993 0.05128 0.0
Li528 Li 0.67922 0.59461 0.46303 0.0
Li529 Li 0.66077 0.56216 0.4211 0.0
Li530 Li 0.69764 0.58662 0.40766 0.0
Li531 Li 0.67239 0.5948 0.38579 0.0
C532 C 0.69205 0.57016 0.50146 0.0
N533 N 0.70765 0.56874 0.58212 0.0
C534 C 0.67918 0.55837 0.53511 0.0
C535 C 0.71287 0.58089 0.50847 0.0
C536 C 0.68735 0.55795 0.57577 0.0
C537 C 0.72046 0.58007 0.54958 0.0
C538 C 0.63862 0.58728 0.42313 0.0
C539 C 0.60861 0.58056 0.38367 0.0
N540 N 0.61099 0.59848 0.39772 0.0
C541 C 0.64075 0.6056 0.4373 0.0
C542 C 0.62241 0.57461 0.39619 0.0
C543 C 0.62663 0.611 0.42406 0.0
C544 C 0.68658 0.62653 0.52333 0.0
N545 N 0.6773 0.60622 0.5173 0.0
C546 C 0.65752 0.60069 0.58194 0.0
C547 C 0.66301 0.59333 0.54576 0.0
C548 C 0.66668 0.62161 0.58894 0.0
C549 C 0.68169 0.63456 0.55936 0.0
H550 H 0.69701 0.63661 0.4991 0.0
H551 H 0.65501 0.57734 0.53897 0.0
C552 C 0.63955 0.52049 0.39786 0.0
N553 N 0.63932 0.53509 0.42279 0.0
C554 C 0.62234 0.50135 0.39514 0.0
C555 C 0.6053 0.51266 0.44444 0.0
C556 C 0.62285 0.53143 0.44662 0.0
C557 C 0.60478 0.49746 0.41779 0.0
H558 H 0.65284 0.52392 0.37895 0.0
H559 H 0.62311 0.54337 0.46604 0.0
C560 C 0.71615 0.62889 0.42404 0.0
N561 N 0.75394 0.66193 0.43813 0.0
C562 C 0.72518 0.6438 0.3919 0.0
C563 C 0.72629 0.63084 0.46343 0.0
C564 C 0.74432 0.66036 0.39961 0.0
C565 C 0.74538 0.64765 0.46993 0.0
C566 C 0.68224 0.57492 0.32253 0.0
C567 C 0.69734 0.59401 0.30899 0.0
C568 C 0.67478 0.55876 0.2932 0.0
C569 C 0.70482 0.59659 0.26633 0.0
C570 C 0.68263 0.56196 0.25077 0.0
N571 N 0.69738 0.58065 0.23834 0.0
C572 C 0.71818 0.56998 0.36473 0.0
C573 C 0.73979 0.6044 0.3818 0.0
C574 C 0.73265 0.57009 0.33656 0.0
N575 N 0.7216 0.58719 0.38524 0.0
C576 C 0.75474 0.60514 0.35432 0.0
C577 C 0.75098 0.58807 0.32978 0.0
H578 H 0.70357 0.55649 0.36762 0.0
H579 H 0.7425 0.61791 0.39834 0.0
C580 C 0.67137 0.62753 0.34579 0.0
N581 N 0.665 0.60753 0.34264 0.0
C582 C 0.66609 0.63698 0.31353 0.0
C583 C 0.64775 0.60497 0.27589 0.0
C584 C 0.65322 0.59614 0.30897 0.0
C585 C 0.65432 0.62566 0.27781 0.0
H586 H 0.68056 0.63611 0.37332 0.0
H587 H 0.64808 0.58018 0.30787 0.0
O588 O 0.68433 0.57076 0.46147 0.0
O589 O 0.65262 0.58202 0.43465 0.0
O590 O 0.69745 0.61258 0.41683 0.0
O591 O 0.67492 0.57192 0.36443 0.0
H592 H 0.66305 0.54968 0.52987 0.0
H593 H 0.72307 0.58971 0.4824 0.0
H594 H 0.67756 0.54901 0.60224 0.0
H595 H 0.73654 0.58839 0.55557 0.0
H596 H 0.59605 0.57097 0.36262 0.0
H597 H 0.65331 0.61564 0.45788 0.0
H598 H 0.62068 0.56048 0.38458 0.0
H599 H 0.62813 0.62517 0.43459 0.0
H600 H 0.64548 0.59006 0.60291 0.0
H601 H 0.68924 0.65077 0.56329 0.0
H602 H 0.62245 0.49003 0.37405 0.0
H603 H 0.59212 0.51016 0.46272 0.0
H604 H 0.71754 0.64254 0.36123 0.0
H605 H 0.71942 0.61961 0.48886 0.0
H606 H 0.75152 0.67197 0.37496 0.0
H607 H 0.75339 0.64935 0.50027 0.0
H608 H 0.70331 0.60668 0.33125 0.0
H609 H 0.66309 0.54389 0.3032 0.0
H610 H 0.71657 0.61127 0.25549 0.0
H611 H 0.67703 0.54959 0.22774 0.0
H612 H 0.72895 0.55655 0.3183 0.0
H613 H 0.76885 0.61921 0.35111 0.0
H614 H 0.67143 0.65298 0.31603 0.0
H615 H 0.63835 0.5957 0.24922 0.0
Li616 Li 0.08383 0.67734 0.62449 0.0
Li617 Li 0.10041 0.66109 0.58777 0.0
Li618 Li 0.11092 0.6969 0.57314 0.0
Li619 Li 0.079 0.67 0.54572 0.0
C620 C 0.11515 0.68595 0.67323 0.0
N621 N 0.11782 0.68815 0.76349 0.0
C622 C 0.11256 0.66936 0.69753 0.0
C623 C 0.11929 0.70373 0.69471 0.0
C624 C 0.11392 0.67075 0.74318 0.0
C625 C 0.12053 0.70452 0.74041 0.0
C626 C 0.05239 0.63678 0.58203 0.0
C627 C 0.02992 0.60844 0.53706 0.0
N628 N 0.01398 0.60964 0.55304 0.0
C629 C 0.03577 0.63775 0.59797 0.0
C630 C 0.04946 0.62201 0.55134 0.0
C631 C 0.01648 0.62387 0.58295 0.0
C632 C 0.06097 0.68687 0.68621 0.0
N633 N 0.06868 0.67471 0.67653 0.0
C634 C 0.04774 0.65083 0.73068 0.0
C635 C 0.06272 0.65724 0.69875 0.0
C636 C 0.03874 0.6625 0.73999 0.0
C637 C 0.046 0.68109 0.71845 0.0
H638 H 0.06552 0.70039 0.66724 0.0
H639 H 0.06867 0.64758 0.68959 0.0
C640 C 0.1276 0.64546 0.58651 0.0
N641 N 0.1083 0.64113 0.59376 0.0
C642 C 0.13224 0.62997 0.58542 0.0
C643 C 0.09749 0.6062 0.60311 0.0
C644 C 0.09346 0.62206 0.60312 0.0
C645 C 0.11698 0.61 0.59319 0.0
H646 H 0.13924 0.66082 0.58017 0.0
H647 H 0.07834 0.61906 0.60963 0.0
C648 C 0.0882 0.71379 0.5682 0.0
N649 N 0.09867 0.75312 0.54934 0.0
C650 C 0.08438 0.7188 0.52664 0.0
C651 C 0.09716 0.72872 0.60029 0.0
C652 C 0.08984 0.73879 0.51772 0.0
C653 C 0.1024 0.74853 0.59007 0.0
C654 C 0.11762 0.66931 0.5088 0.0
C655 C 0.13841 0.68236 0.50479 0.0
C656 C 0.10892 0.64987 0.49123 0.0
C657 C 0.15012 0.67574 0.48316 0.0
C658 C 0.12116 0.64381 0.46996 0.0
N659 N 0.14133 0.65676 0.46638 0.0
C660 C 0.14891 0.73583 0.57279 0.0
C661 C 0.12966 0.72406 0.5076 0.0
C662 C 0.16417 0.75247 0.55023 0.0
N663 N 0.13218 0.72197 0.55098 0.0
C664 C 0.14439 0.74031 0.48399 0.0
C665 C 0.16214 0.75463 0.50495 0.0
H666 H 0.15066 0.7337 0.60722 0.0
H667 H 0.11631 0.7127 0.49099 0.0
C668 C 0.04393 0.66428 0.50225 0.0
N669 N 0.06104 0.66321 0.49797 0.0
C670 C 0.03112 0.66023 0.46642 0.0
C671 C 0.05393 0.65422 0.42264 0.0
C672 C 0.06626 0.65843 0.4592 0.0
C673 C 0.03615 0.65521 0.42588 0.0
H674 H 0.04042 0.66859 0.53334 0.0
H675 H 0.08014 0.65814 0.45643 0.0
O676 O 0.11347 0.68474 0.62863 0.0
O677 O 0.07147 0.65053 0.59549 0.0
O678 O 0.08337 0.69441 0.5773 0.0
O679 O 0.10587 0.67545 0.53013 0.0
H680 H 0.10932 0.65549 0.68135 0.0
H681 H 0.12149 0.71674 0.67629 0.0
H682 H 0.11182 0.65799 0.76246 0.0
H683 H 0.12365 0.71815 0.75752 0.0
H684 H 0.02745 0.59699 0.51318 0.0
H685 H 0.03773 0.64925 0.62119 0.0
H686 H 0.06214 0.62114 0.53836 0.0
H687 H 0.0035 0.62449 0.5949 0.0
H688 H 0.04266 0.63647 0.74674 0.0
H689 H 0.03932 0.69043 0.72451 0.0
H690 H 0.14752 0.63352 0.5782 0.0
H691 H 0.0853 0.59101 0.60919 0.0
H692 H 0.07751 0.70743 0.5014 0.0
H693 H 0.10016 0.72506 0.63262 0.0
H694 H 0.0871 0.74292 0.48562 0.0
H695 H 0.10945 0.76027 0.61451 0.0
H696 H 0.14551 0.69735 0.5186 0.0
H697 H 0.09293 0.63945 0.49456 0.0
H698 H 0.16622 0.68567 0.47991 0.0
H699 H 0.11464 0.62876 0.45648 0.0
H700 H 0.17767 0.76312 0.56764 0.0
H701 H 0.14195 0.74152 0.44943 0.0
H702 H 0.01769 0.66142 0.47016 0.0
H703 H 0.05826 0.65018 0.39218 0.0
Li704 Li 0.44368 0.10529 0.76562 0.0
Li705 Li 0.40944 0.08834 0.80212 0.0
Li706 Li 0.41285 0.08436 0.72418 0.0
Li707 Li 0.41848 0.11631 0.75036 0.0
C708 C 0.41973 0.05748 0.76118 0.0
N709 N 0.40985 0.01935 0.73307 0.0
C710 C 0.40047 0.04114 0.76904 0.0
C711 C 0.43399 0.05445 0.73917 0.0
C712 C 0.39576 0.02198 0.75452 0.0
C713 C 0.4287 0.03504 0.72519 0.0
C714 C 0.42716 0.12731 0.83815 0.0
C715 C 0.40236 0.13293 0.87414 0.0
N716 N 0.41717 0.14746 0.89929 0.0
C717 C 0.44213 0.14228 0.86432 0.0
C718 C 0.40711 0.12257 0.84306 0.0
C719 C 0.43677 0.1523 0.89507 0.0
C720 C 0.48558 0.13024 0.7511 0.0
N721 N 0.47133 0.11312 0.77101 0.0
C722 C 0.49593 0.10393 0.78991 0.0
C723 C 0.47616 0.10029 0.79117 0.0
C724 C 0.51082 0.12092 0.76752 0.0
C725 C 0.50554 0.1344 0.74875 0.0
H726 H 0.48125 0.14014 0.73526 0.0
H727 H 0.46446 0.08677 0.80666 0.0
C728 C 0.37591 0.06131 0.85527 0.0
N729 N 0.39622 0.07388 0.85405 0.0
C730 C 0.36696 0.04835 0.89096 0.0
C731 C 0.39997 0.06175 0.92359 0.0
C732 C 0.40824 0.07449 0.88744 0.0
C733 C 0.37906 0.04818 0.92552 0.0
H734 H 0.36676 0.06076 0.82776 0.0
H735 H 0.4244 0.08429 0.88507 0.0
C736 C 0.44192 0.11416 0.66714 0.0
N737 N 0.45553 0.12053 0.58149 0.0
C738 C 0.43291 0.12036 0.63559 0.0
C739 C 0.45807 0.11149 0.65514 0.0
C740 C 0.43996 0.12343 0.59247 0.0
C741 C 0.46465 0.11468 0.61168 0.0
C742 C 0.37763 0.09053 0.73278 0.0
C743 C 0.37878 0.09423 0.68775 0.0
C744 C 0.36089 0.08807 0.75632 0.0
C745 C 0.36322 0.09553 0.66699 0.0
C746 C 0.34562 0.08947 0.73437 0.0
N747 N 0.34709 0.09316 0.69054 0.0
C748 C 0.38213 0.05348 0.67173 0.0
C749 C 0.41558 0.06426 0.64901 0.0
C750 C 0.37443 0.04081 0.63535 0.0
N751 N 0.4024 0.06541 0.677 0.0
C752 C 0.4086 0.05195 0.61216 0.0
C753 C 0.38779 0.04036 0.6045 0.0
H754 H 0.37191 0.05401 0.69539 0.0
H755 H 0.43154 0.07284 0.6553 0.0
C756 C 0.43374 0.15357 0.70994 0.0
N757 N 0.41717 0.13964 0.73204 0.0
C758 C 0.43312 0.16876 0.68593 0.0
C759 C 0.39897 0.1562 0.711 0.0
C760 C 0.40024 0.14116 0.7345 0.0
C761 C 0.41532 0.16981 0.68498 0.0
H762 H 0.44712 0.1522 0.70891 0.0
H763 H 0.38736 0.13019 0.7529 0.0
O764 O 0.42442 0.07643 0.77408 0.0
O765 O 0.43221 0.11743 0.80784 0.0
O766 O 0.43552 0.11144 0.70984 0.0
O767 O 0.39287 0.08952 0.75395 0.0
H768 H 0.3892 0.04328 0.78569 0.0
H769 H 0.44889 0.06699 0.73237 0.0
H770 H 0.38088 0.0092 0.76017 0.0
H771 H 0.43954 0.03248 0.70789 0.0
H772 H 0.38691 0.12942 0.87827 0.0
H773 H 0.45772 0.14611 0.86087 0.0
H774 H 0.39532 0.11102 0.82317 0.0
H775 H 0.4482 0.16392 0.91556 0.0
H776 H 0.49929 0.09304 0.80444 0.0
H777 H 0.5166 0.14777 0.73157 0.0
H778 H 0.35078 0.03834 0.89109 0.0
H779 H 0.41001 0.06198 0.94882 0.0
H780 H 0.42076 0.12302 0.64423 0.0
H781 H 0.46515 0.10654 0.67889 0.0
H782 H 0.43309 0.1282 0.56778 0.0
H783 H 0.47699 0.11246 0.60192 0.0
H784 H 0.39148 0.09592 0.66902 0.0
H785 H 0.35978 0.08532 0.79125 0.0
H786 H 0.36394 0.0984 0.63214 0.0
H787 H 0.33261 0.08769 0.75221 0.0
H788 H 0.35826 0.03191 0.63079 0.0
H789 H 0.41937 0.05148 0.58988 0.0
H790 H 0.44625 0.17923 0.66725 0.0
H791 H 0.38498 0.1565 0.71142 0.0
Li792 Li 0.34026 0.44101 0.93267 0.0
Li793 Li 0.32254 0.40572 0.96418 0.0
Li794 Li 0.33192 0.41176 0.88692 0.0
Li795 Li 0.30464 0.41589 0.91205 0.0
C796 C 0.36477 0.41773 0.92564 0.0
N797 N 0.39367 0.40906 0.89588 0.0
C798 C 0.36246 0.39866 0.93268 0.0
C799 C 0.38179 0.43241 0.90349 0.0
C800 C 0.37723 0.39456 0.91737 0.0
C801 C 0.39624 0.42773 0.88871 0.0
C802 C 0.29976 0.42207 1.00012 0.0
C803 C 0.26892 0.39618 0.03271 0.0
N804 N 0.26785 0.41043 0.05727 0.0
C805 C 0.29837 0.43646 0.02565 0.0
C806 C 0.28494 0.40176 0.00363 0.0
C807 C 0.28212 0.43028 0.05437 0.0
C808 C 0.35581 0.48334 0.93006 0.0
N809 N 0.35955 0.4685 0.94284 0.0
C810 C 0.39376 0.49265 0.95954 0.0
C811 C 0.37785 0.4728 0.95872 0.0
C812 C 0.39068 0.50822 0.94445 0.0
C813 C 0.37128 0.5035 0.93082 0.0
H814 H 0.34112 0.47942 0.91728 0.0
H815 H 0.38031 0.4607 0.96909 0.0
C816 C 0.31698 0.3712 0.01153 0.0
N817 N 0.32247 0.391 0.01472 0.0
C818 C 0.32034 0.36144 0.04656 0.0
C819 C 0.33429 0.39246 0.08788 0.0
C820 C 0.3307 0.40161 0.05208 0.0
C821 C 0.32948 0.37219 0.08517 0.0
H822 H 0.31084 0.36323 0.98109 0.0
H823 H 0.33528 0.41745 0.05334 0.0
C824 C 0.33315 0.44252 0.83386 0.0
N825 N 0.34451 0.45895 0.75097 0.0
C826 C 0.31995 0.43394 0.79846 0.0
C827 C 0.35203 0.45965 0.82712 0.0
C828 C 0.326 0.44241 0.75681 0.0
C829 C 0.35752 0.46767 0.78496 0.0
C830 C 0.2902 0.37559 0.89149 0.0
C831 C 0.28765 0.37716 0.84661 0.0
C832 C 0.27598 0.35859 0.91444 0.0
C833 C 0.27079 0.36178 0.82545 0.0
C834 C 0.25931 0.34352 0.8921 0.0
N835 N 0.25707 0.34542 0.84846 0.0
C836 C 0.33339 0.3825 0.83246 0.0
C837 C 0.35586 0.41631 0.81176 0.0
C838 C 0.33895 0.37541 0.79596 0.0
N839 N 0.34141 0.40266 0.83891 0.0
C840 C 0.36178 0.40993 0.77482 0.0
C841 C 0.35301 0.38925 0.76613 0.0
H842 H 0.32247 0.3719 0.85534 0.0
H843 H 0.36293 0.43218 0.81878 0.0
C844 C 0.28261 0.43001 0.86707 0.0
N845 N 0.28002 0.41407 0.89161 0.0
C846 C 0.26687 0.42863 0.84145 0.0
C847 C 0.24537 0.3951 0.86991 0.0
C848 C 0.26162 0.39712 0.89495 0.0
C849 C 0.24808 0.41074 0.84143 0.0
H850 H 0.2973 0.44342 0.86531 0.0
H851 H 0.25974 0.38477 0.91534 0.0
O852 O 0.35018 0.42182 0.93935 0.0
O853 O 0.31554 0.42792 0.97173 0.0
O854 O 0.32741 0.43461 0.8751 0.0
O855 O 0.30644 0.39065 0.91302 0.0
H856 H 0.34928 0.38706 0.94933 0.0
H857 H 0.38365 0.44714 0.897 0.0
H858 H 0.37559 0.37984 0.92243 0.0
H859 H 0.40942 0.43891 0.87128 0.0
H860 H 0.25734 0.38051 0.03574 0.0
H861 H 0.30974 0.45225 0.02324 0.0
H862 H 0.28578 0.39043 0.98418 0.0
H863 H 0.28084 0.44125 0.07435 0.0
H864 H 0.40846 0.49576 0.97082 0.0
H865 H 0.36839 0.51512 0.91878 0.0
H866 H 0.3162 0.34576 0.04309 0.0
H867 H 0.34163 0.40147 0.11659 0.0
H868 H 0.30511 0.42099 0.80303 0.0
H869 H 0.36254 0.46644 0.85389 0.0
H870 H 0.31595 0.43588 0.72915 0.0
H871 H 0.37216 0.4808 0.77926 0.0
H872 H 0.29862 0.39008 0.82833 0.0
H873 H 0.2777 0.35712 0.94921 0.0
H874 H 0.26861 0.36285 0.79074 0.0
H875 H 0.24813 0.33032 0.90949 0.0
H876 H 0.33197 0.35932 0.79055 0.0
H877 H 0.37315 0.42107 0.75331 0.0
H878 H 0.26983 0.44108 0.82001 0.0
H879 H 0.23104 0.38121 0.87187 0.0
Li880 Li 0.90089 0.33828 0.096 0.0
Li881 Li 0.916 0.32049 0.13148 0.0
Li882 Li 0.92084 0.32809 0.05292 0.0
Li883 Li 0.88846 0.30219 0.08031 0.0
C884 C 0.94899 0.36007 0.08892 0.0
N885 N 0.98778 0.38463 0.05835 0.0
C886 C 0.9649 0.35796 0.10521 0.0
C887 C 0.95281 0.37464 0.05694 0.0
C888 C 0.98441 0.37055 0.08942 0.0
C889 C 0.97252 0.3869 0.04192 0.0
C890 C 0.88544 0.31325 0.18089 0.0
C891 C 0.87896 0.29407 0.24753 0.0
N892 N 0.88353 0.31088 0.27119 0.0
C893 C 0.88996 0.3303 0.20579 0.0
C894 C 0.87978 0.29495 0.2018 0.0
C895 C 0.88894 0.32881 0.25145 0.0
C896 C 0.8746 0.3548 0.10105 0.0
N897 N 0.89409 0.359 0.10244 0.0
C898 C 0.90594 0.39436 0.10401 0.0
C899 C 0.90961 0.37828 0.10524 0.0
C900 C 0.88608 0.39059 0.10005 0.0
C901 C 0.87022 0.37047 0.09964 0.0
H902 H 0.86251 0.3393 0.09937 0.0
H903 H 0.92491 0.38122 0.10752 0.0
C904 C 0.93499 0.30699 0.19486 0.0
N905 N 0.93044 0.32146 0.18369 0.0
C906 C 0.94859 0.31041 0.22903 0.0
C907 C 0.95226 0.34334 0.23972 0.0
C908 C 0.93846 0.33921 0.20591 0.0
C909 C 0.95781 0.32903 0.25111 0.0
H910 H 0.92877 0.29319 0.17614 0.0
H911 H 0.93485 0.35059 0.1959 0.0
C912 C 0.88283 0.33107 0.01907 0.0
N913 N 0.85941 0.34531 0.98191 0.0
C914 C 0.86184 0.31888 0.01785 0.0
C915 C 0.89189 0.35051 0.0014 0.0
C916 C 0.85027 0.32635 0.99885 0.0
C917 C 0.8798 0.35744 0.98282 0.0
C918 C 0.90942 0.28352 0.07389 0.0
C919 C 0.9134 0.27849 0.0325 0.0
C920 C 0.89917 0.26838 0.10501 0.0
C921 C 0.90685 0.25832 0.0228 0.0
C922 C 0.89286 0.24838 0.09403 0.0
N923 N 0.89678 0.2438 0.05349 0.0
C924 C 0.95476 0.33199 0.007 0.0
C925 C 0.93293 0.33945 0.96625 0.0
C926 C 0.96698 0.33556 0.9703 0.0
N927 N 0.93818 0.33408 0.00426 0.0
C928 C 0.94471 0.34324 0.92891 0.0
C929 C 0.96193 0.3412 0.93053 0.0
H930 H 0.9583 0.32726 0.03753 0.0
H931 H 0.91947 0.34058 0.96472 0.0
C932 C 0.8494 0.26418 0.0787 0.0
N933 N 0.86649 0.27776 0.05752 0.0
C934 C 0.83401 0.24788 0.05556 0.0
C935 C 0.85439 0.25979 0.99009 0.0
C936 C 0.86917 0.27577 0.0142 0.0
C937 C 0.83631 0.24571 0.01037 0.0
H938 H 0.84754 0.26623 0.1131 0.0
H939 H 0.88283 0.28691 0.99811 0.0
O940 O 0.92969 0.34757 0.10318 0.0
O941 O 0.88683 0.31454 0.13626 0.0
O942 O 0.89444 0.32415 0.03806 0.0
O943 O 0.91531 0.30312 0.08369 0.0
H944 H 0.96224 0.34654 0.12929 0.0
H945 H 0.94066 0.37626 0.04335 0.0
H946 H 0.99685 0.36904 0.10167 0.0
H947 H 0.97566 0.39816 0.01704 0.0
H948 H 0.87468 0.28003 0.2642 0.0
H949 H 0.89441 0.34459 0.19004 0.0
H950 H 0.87612 0.28159 0.18292 0.0
H951 H 0.89252 0.34191 0.27118 0.0
H952 H 0.91858 0.40961 0.10568 0.0
H953 H 0.85468 0.36688 0.09663 0.0
H954 H 0.95257 0.29903 0.23672 0.0
H955 H 0.95885 0.35779 0.25621 0.0
H956 H 0.85448 0.30391 0.03181 0.0
H957 H 0.90807 0.36031 0.00271 0.0
H958 H 0.83402 0.31709 0.99778 0.0
H959 H 0.88661 0.3725 0.96933 0.0
H960 H 0.92123 0.29001 0.00794 0.0
H961 H 0.89594 0.27202 0.13712 0.0
H962 H 0.9097 0.25419 0.99081 0.0
H963 H 0.8848 0.23649 0.11771 0.0
H964 H 0.97998 0.33357 0.97282 0.0
H965 H 0.9404 0.34781 0.89913 0.0
H966 H 0.82027 0.23745 0.07252 0.0
H967 H 0.85712 0.25858 0.95572 0.0
Li968 Li 0.59293 0.91292 0.30125 0.0
Li969 Li 0.55965 0.89738 0.26882 0.0
Li970 Li 0.58285 0.88404 0.25224 0.0
Li971 Li 0.58997 0.91787 0.22343 0.0
C972 C 0.56157 0.88211 0.3505 0.0
N973 N 0.54362 0.87767 0.43141 0.0
C974 C 0.55905 0.89762 0.36772 0.0
C975 C 0.55494 0.86433 0.37441 0.0
C976 C 0.54995 0.89509 0.40867 0.0
C977 C 0.54591 0.86238 0.41527 0.0
C978 C 0.57386 0.94027 0.26996 0.0
C979 C 0.55976 0.95703 0.22833 0.0
N980 N 0.5615 0.96845 0.26397 0.0
C981 C 0.57564 0.95226 0.3061 0.0
C982 C 0.56597 0.94272 0.23068 0.0
C983 C 0.56925 0.96638 0.30245 0.0
C984 C 0.62015 0.94899 0.33892 0.0
N985 N 0.60894 0.92915 0.34951 0.0
C986 C 0.61924 0.93662 0.42448 0.0
C987 C 0.60858 0.92267 0.39118 0.0
C988 C 0.63045 0.95737 0.41465 0.0
C989 C 0.63116 0.96334 0.37085 0.0
H990 H 0.62017 0.95373 0.30553 0.0
H991 H 0.59958 0.9068 0.39889 0.0
C992 C 0.51808 0.87289 0.25276 0.0
N993 N 0.53186 0.88992 0.27378 0.0
C994 C 0.49804 0.86833 0.24918 0.0
C995 C 0.50641 0.89811 0.29173 0.0
C996 C 0.52631 0.90217 0.29419 0.0
C997 C 0.49209 0.88128 0.268 0.0
H998 H 0.52286 0.86329 0.23714 0.0
H999 H 0.5374 0.91547 0.31124 0.0
C1000 C 0.62653 0.91615 0.27162 0.0
N1001 N 0.66243 0.92873 0.31542 0.0
C1002 C 0.64312 0.93517 0.26312 0.0
C1003 C 0.6282 0.90347 0.30215 0.0
C1004 C 0.66114 0.94127 0.28568 0.0
C1005 C 0.64648 0.91012 0.32402 0.0
C1006 C 0.5572 0.88554 0.17237 0.0
C1007 C 0.56105 0.87386 0.143 0.0
C1008 C 0.54368 0.89201 0.16071 0.0
C1009 C 0.55129 0.86883 0.10244 0.0
C1010 C 0.53422 0.88665 0.11985 0.0
N1011 N 0.53819 0.87527 0.0918 0.0
C1012 C 0.56603 0.84321 0.22802 0.0
C1013 C 0.60103 0.86354 0.21402 0.0
C1014 C 0.56527 0.8274 0.20357 0.0
N1015 N 0.58366 0.86094 0.23203 0.0
C1016 C 0.60097 0.8481 0.18944 0.0
C1017 C 0.5828 0.8299 0.18287 0.0
H1018 H 0.55232 0.84182 0.24151 0.0
H1019 H 0.61474 0.87796 0.21676 0.0
C1020 C 0.61441 0.95603 0.18868 0.0
N1021 N 0.60123 0.93667 0.17715 0.0
C1022 C 0.62336 0.97093 0.15664 0.0
C1023 C 0.60476 0.94566 0.10153 0.0
C1024 C 0.59644 0.93123 0.13457 0.0
C1025 C 0.61849 0.96584 0.11231 0.0
H1026 H 0.61798 0.95987 0.22287 0.0
H1027 H 0.58614 0.91576 0.12601 0.0
O1028 O 0.57037 0.88415 0.31041 0.0
O1029 O 0.58006 0.92638 0.27311 0.0
O1030 O 0.60859 0.91009 0.25082 0.0
O1031 O 0.56663 0.89058 0.21228 0.0
H1032 H 0.56419 0.91152 0.34989 0.0
H1033 H 0.55677 0.85218 0.36149 0.0
H1034 H 0.54795 0.907 0.4224 0.0
H1035 H 0.54072 0.8487 0.43415 0.0
H1036 H 0.55361 0.95908 0.19813 0.0
H1037 H 0.58177 0.95057 0.33675 0.0
H1038 H 0.56477 0.93381 0.20223 0.0
H1039 H 0.57045 0.9757 0.33022 0.0
H1040 H 0.61809 0.93125 0.45774 0.0
H1041 H 0.63994 0.97902 0.36127 0.0
H1042 H 0.48741 0.85504 0.23113 0.0
H1043 H 0.50252 0.90855 0.30658 0.0
H1044 H 0.64203 0.94516 0.23961 0.0
H1045 H 0.61542 0.88873 0.30917 0.0
H1046 H 0.67409 0.95599 0.27961 0.0
H1047 H 0.64798 0.90052 0.34791 0.0
H1048 H 0.57161 0.86888 0.1512 0.0
H1049 H 0.54042 0.90096 0.18298 0.0
H1050 H 0.55416 0.85983 0.07937 0.0
H1051 H 0.5237 0.89152 0.11046 0.0
H1052 H 0.55086 0.81379 0.19897 0.0
H1053 H 0.61491 0.85064 0.17466 0.0
H1054 H 0.63408 0.98619 0.16653 0.0
H1055 H 0.60025 0.94103 0.06797 0.0
H1056 H 0.34507 0.34704 0.07853 0.0
H1057 H 0.32676 0.37648 0.17361 0.0
H1058 H 0.33861 0.36365 0.2329 0.0
H1059 H 0.35571 0.34556 0.25761 0.0
H1060 H 0.3732 0.31527 0.16295 0.0
H1061 H 0.3601 0.32695 0.10375 0.0
C1062 C 0.34331 0.35036 0.11224 0.0
C1063 C 0.33509 0.36283 0.12141 0.0
C1064 C 0.35017 0.34291 0.14631 0.0
C1065 C 0.33329 0.3672 0.1654 0.0
C1066 C 0.34 0.35979 0.19941 0.0
C1067 C 0.35633 0.34114 0.22416 0.0
C1068 C 0.36552 0.32955 0.21495 0.0
C1069 C 0.34869 0.34785 0.19023 0.0
C1070 C 0.3665 0.3244 0.17112 0.0
C1071 C 0.35891 0.33099 0.1372 0.0
H1072 H 0.01558 0.34016 0.41032 0.0
H1073 H 0.05281 0.39676 0.34429 0.0
H1074 H 0.02775 0.38686 0.28607 0.0
H1075 H 0.99446 0.36295 0.25577 0.0
H1076 H 0.95713 0.3062 0.32084 0.0
H1077 H 0.98294 0.3153 0.37757 0.0
C1078 C 0.01823 0.35028 0.38308 0.0
C1079 C 0.03607 0.36921 0.3818 0.0
C1080 C 0.00366 0.34452 0.34971 0.0
C1081 C 0.03937 0.38203 0.34593 0.0
C1082 C 0.02495 0.37645 0.31278 0.0
C1083 C 0.99198 0.3526 0.28245 0.0
C1084 C 0.97381 0.33403 0.28444 0.0
C1085 C 0.00692 0.35788 0.31466 0.0
C1086 C 0.97097 0.32057 0.31863 0.0
C1087 C 0.98571 0.32581 0.3511 0.0
H1088 H 0.63382 0.9945 0.42065 0.0
H1089 H 0.65009 0.95512 0.48813 0.0
H1090 H 0.66587 0.98011 0.54639 0.0
H1091 H 0.6746 0.01298 0.57881 0.0
H1092 H 0.65841 0.0522 0.5104 0.0
H1093 H 0.64387 0.02776 0.45101 0.0
C1094 C 0.64111 0.99144 0.44761 0.0
C1095 C 0.64069 0.97283 0.44974 0.0
C1096 C 0.65038 0.00597 0.48074 0.0
C1097 C 0.64987 0.96911 0.48573 0.0
C1098 C 0.65905 0.98348 0.51897 0.0
C1099 C 0.66791 0.0162 0.55089 0.0
C1100 C 0.66764 0.03447 0.54925 0.0
C1101 C 0.65928 0.00192 0.51697 0.0
C1102 C 0.65914 0.03846 0.51241 0.0
C1103 C 0.65061 0.02438 0.47856 0.0
H1104 H 0.66278 0.65535 0.58884 0.0
H1105 H 0.65483 0.60611 0.67155 0.0
H1106 H 0.64106 0.61763 0.72929 0.0
H1107 H 0.6303 0.64085 0.75556 0.0
H1108 H 0.64077 0.69186 0.67599 0.0
H1109 H 0.65436 0.68028 0.61771 0.0
C1110 C 0.65842 0.64731 0.61974 0.0
C1111 C 0.65977 0.62972 0.62541 0.0
C1112 C 0.65076 0.6542 0.65331 0.0
C1113 C 0.65364 0.61941 0.66565 0.0
C1114 C 0.64584 0.62606 0.69891 0.0
C1115 C 0.63593 0.64979 0.72598 0.0
C1116 C 0.63445 0.66731 0.72061 0.0
C1117 C 0.64419 0.64334 0.69297 0.0
C1118 C 0.64135 0.67817 0.68113 0.0
C1119 C 0.6493 0.67164 0.6478 0.0
H1120 H 0.03174 0.68102 0.80898 0.0
H1121 H 0.00532 0.62543 0.73583 0.0
H1122 H 0.97608 0.61074 0.78442 0.0
H1123 H 0.95872 0.61297 0.85001 0.0
H1124 H 0.98563 0.66776 0.92586 0.0
H1125 H 0.01378 0.68353 0.87404 0.0
C1126 C 0.01948 0.66577 0.8036 0.0
C1127 C 0.02077 0.65428 0.7691 0.0
C1128 C 0.00278 0.65726 0.83221 0.0
C1129 C 0.00482 0.63448 0.76257 0.0
C1130 C 0.98805 0.62609 0.79022 0.0
C1131 C 0.97059 0.62847 0.85472 0.0
C1132 C 0.97005 0.63923 0.89152 0.0
C1133 C 0.98695 0.63724 0.82544 0.0
C1134 C 0.98573 0.65918 0.89774 0.0
C1135 C 0.00184 0.66818 0.86817 0.0
H1136 H 0.34854 0.00877 0.92215 0.0
H1137 H 0.38976 0.05424 0.01225 0.0
H1138 H 0.37755 0.02959 0.07143 0.0
H1139 H 0.35634 0.99496 0.09705 0.0
H1140 H 0.31346 0.9498 0.00868 0.0
H1141 H 0.32528 0.97454 0.94949 0.0
C1142 C 0.35463 0.01344 0.95486 0.0
C1143 C 0.37024 0.03341 0.96236 0.0
C1144 C 0.34738 0.99919 0.98909 0.0
C1145 C 0.37806 0.03895 0.00505 0.0
C1146 C 0.371 0.02486 0.03909 0.0
C1147 C 0.34919 0.99051 0.06519 0.0
C1148 C 0.33398 0.97037 0.05769 0.0
C1149 C 0.35582 0.0049 0.03139 0.0
C1150 C 0.3254 0.96501 0.01556 0.0
C1151 C 0.33206 0.97922 0.98164 0.0
H1152 H 0.59848 0.45913 0.42285 0.0
H1153 H 0.56809 0.49279 0.39862 0.0
H1154 H 0.53613 0.46147 0.38892 0.0
H1155 H 0.51662 0.42458 0.38898 0.0
H1156 H 0.54625 0.39047 0.41605 0.0
H1157 H 0.5787 0.42182 0.42293 0.0
C1158 C 0.58485 0.45953 0.41522 0.0
C1159 C 0.58559 0.47821 0.41163 0.0
C1160 C 0.56642 0.44141 0.41021 0.0
C1161 C 0.56782 0.47858 0.40208 0.0
C1162 C 0.54957 0.46069 0.39633 0.0
C1163 C 0.53025 0.42402 0.39583 0.0
C1164 C 0.52914 0.40529 0.40158 0.0
C1165 C 0.54868 0.44204 0.40051 0.0
C1166 C 0.54679 0.40476 0.41147 0.0
C1167 C 0.56531 0.42266 0.41537 0.0
H1168 H 0.13305 0.5395 0.54026 0.0
H1169 H 0.10318 0.51599 0.66393 0.0
H1170 H 0.10108 0.5464 0.67602 0.0
H1171 H 0.10622 0.57896 0.64985 0.0
H1172 H 0.13642 0.60289 0.52675 0.0
H1173 H 0.14011 0.57321 0.51618 0.0
C1174 C 0.12616 0.54113 0.56988 0.0
C1175 C 0.11825 0.52553 0.60111 0.0
C1176 C 0.12507 0.55872 0.57671 0.0
C1177 C 0.10954 0.52787 0.63959 0.0
C1178 C 0.10824 0.5452 0.64643 0.0
C1179 C 0.11369 0.57768 0.62083 0.0
C1180 C 0.12095 0.593 0.58903 0.0
C1181 C 0.11574 0.56061 0.615 0.0
C1182 C 0.13083 0.59133 0.55183 0.0
C1183 C 0.13282 0.57432 0.54564 0.0
H1184 H 0.5344 0.11629 0.82791 0.0
H1185 H 0.53295 0.1313 0.69222 0.0
H1186 H 0.56511 0.13271 0.67934 0.0
H1187 H 0.59267 0.12768 0.70559 0.0
H1188 H 0.59381 0.11217 0.84105 0.0
H1189 H 0.56286 0.11303 0.85506 0.0
C1190 C 0.54117 0.11993 0.79557 0.0
C1191 C 0.53126 0.12362 0.76108 0.0
C1192 C 0.55959 0.12055 0.7883 0.0
C1193 C 0.54036 0.1286 0.71947 0.0
C1194 C 0.55868 0.12925 0.71198 0.0
C1195 C 0.58614 0.12453 0.73817 0.0
C1196 C 0.5955 0.11981 0.77216 0.0
C1197 C 0.56827 0.12495 0.74598 0.0
C1198 C 0.58703 0.11604 0.81439 0.0
C1199 C 0.56925 0.1164 0.82238 0.0
H1200 H 0.4578 0.60052 0.94253 0.0
H1201 H 0.48991 0.57594 0.87377 0.0
H1202 H 0.46065 0.54214 0.87935 0.0
H1203 H 0.42633 0.51939 0.9054 0.0
H1204 H 0.39357 0.54348 0.97289 0.0
H1205 H 0.42265 0.57766 0.96628 0.0
C1206 C 0.45832 0.58774 0.92872 0.0
C1207 C 0.47596 0.59073 0.90764 0.0
C1208 C 0.44139 0.56828 0.93203 0.0
C1209 C 0.47641 0.57408 0.88958 0.0
C1210 C 0.45975 0.55472 0.89305 0.0
C1211 C 0.42563 0.53214 0.91887 0.0
C1212 C 0.408 0.52898 0.94009 0.0
C1213 C 0.44224 0.55163 0.91448 0.0
C1214 C 0.40705 0.54561 0.95651 0.0
C1215 C 0.42366 0.5651 0.95279 0.0
H1216 H 0.9069 0.42416 0.05024 0.0
H1217 H 0.85626 0.39521 0.13852 0.0
H1218 H 0.85069 0.42392 0.13212 0.0
H1219 H 0.86114 0.45787 0.10373 0.0
H1220 H 0.91287 0.48718 0.01819 0.0
H1221 H 0.91693 0.45762 0.02099 0.0
C1222 C 0.89473 0.42418 0.06838 0.0
C1223 C 0.88215 0.40765 0.0952 0.0
C1224 C 0.89175 0.44077 0.06488 0.0
C1225 C 0.86612 0.4077 0.11753 0.0
C1226 C 0.86299 0.42415 0.11404 0.0
C1227 C 0.87333 0.45781 0.08577 0.0
C1228 C 0.88665 0.47478 0.06074 0.0
C1229 C 0.87585 0.44087 0.08817 0.0
C1230 C 0.90217 0.47427 0.03713 0.0
C1231 C 0.90464 0.45742 0.03903 0.0
H1232 H 0.40951 0.87207 0.2031 0.0
H1233 H 0.40676 0.88641 0.33874 0.0
H1234 H 0.43815 0.88662 0.35369 0.0
H1235 H 0.46741 0.8846 0.32752 0.0
H1236 H 0.47067 0.87101 0.19163 0.0
H1237 H 0.43808 0.8685 0.17763 0.0
C1238 C 0.41578 0.8752 0.23593 0.0
C1239 C 0.40578 0.87923 0.26969 0.0
C1240 C 0.43396 0.87546 0.24429 0.0
C1241 C 0.41397 0.883 0.31222 0.0
C1242 C 0.43202 0.88328 0.32077 0.0
C1243 C 0.46096 0.88106 0.29487 0.0
C1244 C 0.4715 0.87807 0.26068 0.0
C1245 C 0.44229 0.8798 0.28695 0.0
C1246 C 0.46279 0.87318 0.21867 0.0
C1247 C 0.44421 0.87189 0.21054 0.0
H1248 H 0.36209 0.35931 0.75827 0.0
H1249 H 0.35579 0.40367 0.6835 0.0
H1250 H 0.36527 0.39294 0.61668 0.0
H1251 H 0.3756 0.37123 0.57971 0.0
H1252 H 0.38304 0.32755 0.65451 0.0
H1253 H 0.37232 0.33736 0.72092 0.0
C1254 C 0.36264 0.36648 0.72724 0.0
C1255 C 0.35834 0.38229 0.72576 0.0
C1256 C 0.36819 0.3603 0.68899 0.0
C1257 C 0.3593 0.39163 0.68549 0.0
C1258 C 0.36462 0.38545 0.64728 0.0
C1259 C 0.37504 0.36396 0.61059 0.0
C1260 C 0.38015 0.34872 0.61212 0.0
C1261 C 0.36922 0.36991 0.64871 0.0
C1262 C 0.37894 0.33917 0.65228 0.0
C1263 C 0.37296 0.34486 0.69035 0.0
H1264 H 0.00289 0.36091 0.92543 0.0
H1265 H 0.94907 0.33007 0.84637 0.0
H1266 H 0.96954 0.33865 0.78015 0.0
H1267 H 0.00264 0.35604 0.74445 0.0
H1268 H 0.0565 0.3864 0.82322 0.0
H1269 H 0.0361 0.37642 0.88999 0.0
C1270 C 0.99565 0.35579 0.89379 0.0
C1271 C 0.97449 0.34508 0.89083 0.0
C1272 C 0.0075 0.36066 0.85584 0.0
C1273 C 0.96533 0.33871 0.8495 0.0
C1274 C 0.97701 0.3435 0.81162 0.0
C1275 C 0.00987 0.36042 0.77629 0.0
C1276 C 0.03096 0.37199 0.77907 0.0
C1277 C 0.99808 0.35471 0.81437 0.0
C1278 C 0.04024 0.37735 0.82041 0.0
C1279 C 0.0286 0.37176 0.85852 0.0
H1280 H 0.63012 0.96171 0.03042 0.0
H1281 H 0.62705 0.00511 0.11575 0.0
H1282 H 0.64097 0.0304 0.05792 0.0
H1283 H 0.65244 0.03975 0.98192 0.0
H1284 H 0.65281 0.9956 0.89494 0.0
H1285 H 0.64104 0.97082 0.95442 0.0
C1286 C 0.63225 0.97661 0.03633 0.0
C1287 C 0.62748 0.98142 0.07748 0.0
C1288 C 0.63966 0.99091 0.00255 0.0
C1289 C 0.63085 0.00101 0.08471 0.0
C1290 C 0.63866 0.01547 0.05152 0.0
C1291 C 0.65009 0.02473 0.97627 0.0
C1292 C 0.65351 0.01941 0.93447 0.0
C1293 C 0.64295 0.01053 0.01025 0.0
C1294 C 0.65018 0.9999 0.92702 0.0
C1295 C 0.6435 0.9858 0.96093 0.0
H1296 H 0.62224 0.66726 0.14801 0.0
H1297 H 0.64059 0.63759 0.05361 0.0
H1298 H 0.65298 0.62513 0.11252 0.0
H1299 H 0.65737 0.62153 0.1908 0.0
H1300 H 0.6394 0.6513 0.28555 0.0
H1301 H 0.62854 0.66534 0.22641 0.0
C1302 C 0.62925 0.65835 0.1403 0.0
C1303 C 0.63032 0.6532 0.09655 0.0
C1304 C 0.6364 0.65127 0.17433 0.0
C1305 C 0.63925 0.64145 0.0871 0.0
C1306 C 0.64643 0.6344 0.12071 0.0
C1307 C 0.65105 0.63109 0.19842 0.0
C1308 C 0.64898 0.63525 0.24229 0.0
C1309 C 0.6448 0.63897 0.16442 0.0
C1310 C 0.64117 0.64796 0.2519 0.0
C1311 C 0.63489 0.65589 0.21816 0.0
H1312 H 0.99515 0.63364 0.42261 0.0
H1313 H 0.04785 0.66753 0.34173 0.0
H1314 H 0.02665 0.65869 0.27661 0.0
H1315 H 0.99332 0.6403 0.24228 0.0
H1316 H 0.94051 0.60668 0.32271 0.0
H1317 H 0.96153 0.61691 0.3886 0.0
C1318 C 0.00196 0.63935 0.39082 0.0
C1319 C 0.02305 0.65102 0.38698 0.0
C1320 C 0.98968 0.63429 0.35349 0.0
C1321 C 0.03167 0.65816 0.34548 0.0
C1322 C 0.01957 0.65321 0.30824 0.0
C1323 C 0.98645 0.63524 0.27428 0.0
C1324 C 0.96548 0.62267 0.27775 0.0
C1325 C 0.9986 0.64106 0.31181 0.0
C1326 C 0.95666 0.61647 0.31935 0.0
C1327 C 0.96866 0.62221 0.35695 0.0
H1328 H 0.36833 0.9999 0.41801 0.0
H1329 H 0.3253 0.94866 0.49345 0.0
H1330 H 0.33516 0.9693 0.55975 0.0
H1331 H 0.35744 0.00148 0.59699 0.0
H1332 H 0.4013 0.05215 0.52146 0.0
H1333 H 0.39 0.03201 0.4546 0.0
C1334 C 0.36119 0.9932 0.449 0.0
C1335 C 0.34619 0.97276 0.45079 0.0
C1336 C 0.36721 0.005 0.48703 0.0
C1337 C 0.33675 0.96442 0.49105 0.0
C1338 C 0.34249 0.97617 0.52905 0.0
C1339 C 0.36435 0.00812 0.56578 0.0
C1340 C 0.38024 0.02819 0.56409 0.0
C1341 C 0.35787 0.99641 0.5275 0.0
C1342 C 0.38922 0.03661 0.52358 0.0
C1343 C 0.38272 0.02516 0.48536 0.0
H1344 H 0.40126 0.23327 0.58095 0.0
H1345 H 0.43106 0.21867 0.47936 0.0
H1346 H 0.43408 0.1952 0.52874 0.0
H1347 H 0.42817 0.17873 0.60058 0.0
H1348 H 0.39817 0.19309 0.7021 0.0
H1349 H 0.39492 0.21642 0.65256 0.0
C1350 C 0.40816 0.22476 0.56934 0.0
C1351 C 0.41588 0.22775 0.52634 0.0
C1352 C 0.40981 0.21123 0.5979 0.0
C1353 C 0.42516 0.21685 0.51232 0.0
C1354 C 0.42682 0.20336 0.54051 0.0
C1355 C 0.42111 0.18713 0.61207 0.0
C1356 C 0.41355 0.18425 0.65517 0.0
C1357 C 0.41929 0.20051 0.58342 0.0
C1358 C 0.40403 0.19492 0.66909 0.0
C1359 C 0.40223 0.20832 0.64081 0.0
H1360 H 0.23801 0.43869 0.81475 0.0
H1361 H 0.22229 0.37666 0.79557 0.0
H1362 H 0.19773 0.37269 0.73983 0.0
H1363 H 0.18147 0.38713 0.69446 0.0
H1364 H 0.19757 0.44928 0.7135 0.0
H1365 H 0.22173 0.45303 0.76984 0.0
C1366 C 0.22932 0.42431 0.79827 0.0
C1367 C 0.23207 0.40801 0.80964 0.0
C1368 C 0.21548 0.42222 0.7655 0.0
C1369 C 0.22032 0.38941 0.78826 0.0
C1370 C 0.2064 0.38717 0.75592 0.0
C1371 C 0.19019 0.40148 0.71102 0.0
C1372 C 0.18775 0.41793 0.69921 0.0
C1373 C 0.20394 0.40351 0.74403 0.0
C1374 C 0.19938 0.43645 0.72097 0.0
C1375 C 0.21308 0.43858 0.75365 0.0
H1376 H 0.8246 0.24815 0.92738 0.0
H1377 H 0.8113 0.20611 0.03359 0.0
H1378 H 0.78578 0.1789 0.98844 0.0
H1379 H 0.76776 0.16692 0.91813 0.0
H1380 H 0.78227 0.20897 0.81139 0.0
H1381 H 0.80697 0.23624 0.85737 0.0
C1382 C 0.8163 0.233 0.94064 0.0
C1383 C 0.82005 0.22921 0.98384 0.0
C1384 C 0.8019 0.21739 0.9143 0.0
C1385 C 0.80867 0.20955 0.00066 0.0
C1386 C 0.79417 0.19393 0.97471 0.0
C1387 C 0.77649 0.182 0.90473 0.0
C1388 C 0.77316 0.18583 0.86119 0.0
C1389 C 0.79077 0.19765 0.93135 0.0
C1390 C 0.78434 0.20559 0.8448 0.0
C1391 C 0.79854 0.22119 0.87105 0.0
H1392 H 0.60214 0.83547 0.10454 0.0
H1393 H 0.56111 0.78881 0.19261 0.0
H1394 H 0.55834 0.76303 0.14147 0.0
H1395 H 0.56772 0.75366 0.07195 0.0
H1396 H 0.6094 0.80023 0.98478 0.0
H1397 H 0.61204 0.82612 0.03575 0.0
C1398 C 0.59281 0.81967 0.11295 0.0
C1399 C 0.58187 0.81416 0.15257 0.0
C1400 C 0.59139 0.80489 0.08348 0.0
C1401 C 0.56954 0.79355 0.16226 0.0
C1402 C 0.568 0.77877 0.13307 0.0
C1403 C 0.57722 0.76948 0.0639 0.0
C1404 C 0.58824 0.77501 0.02444 0.0
C1405 C 0.57878 0.78426 0.09351 0.0
C1406 C 0.60082 0.79558 0.01496 0.0
C1407 C 0.6023 0.81037 0.04406 0.0
H1408 H 0.76148 0.55987 0.30725 0.0
H1409 H 0.77261 0.61931 0.27327 0.0
H1410 H 0.79565 0.62169 0.21549 0.0
H1411 H 0.81257 0.60692 0.17396 0.0
H1412 H 0.80156 0.54754 0.20802 0.0
H1413 H 0.77807 0.5449 0.265 0.0
C1414 C 0.76883 0.5733 0.28707 0.0
C1415 C 0.76539 0.58945 0.29514 0.0
C1416 C 0.78194 0.57452 0.25333 0.0
C1417 C 0.77526 0.6068 0.26869 0.0
C1418 C 0.78832 0.60812 0.23523 0.0
C1419 C 0.80509 0.59341 0.19389 0.0
C1420 C 0.80884 0.57743 0.1863 0.0
C1421 C 0.7918 0.59209 0.22726 0.0
C1422 C 0.79875 0.55995 0.2123 0.0
C1423 C 0.78543 0.55849 0.24533 0.0
H1424 H 0.17566 0.75198 0.4243 0.0
H1425 H 0.18546 0.7946 0.52708 0.0
H1426 H 0.21129 0.82192 0.48251 0.0
H1427 H 0.23079 0.83372 0.41367 0.0
H1428 H 0.22059 0.7908 0.3113 0.0
H1429 H 0.19502 0.76361 0.35617 0.0
C1430 C 0.18331 0.76727 0.43688 0.0
C1431 C 0.17848 0.77123 0.4789 0.0
C1432 C 0.19801 0.78287 0.41102 0.0
C1433 C 0.18894 0.79108 0.49501 0.0
C1434 C 0.20362 0.80673 0.4694 0.0
C1435 C 0.22281 0.81844 0.40105 0.0
C1436 C 0.22753 0.81431 0.35906 0.0
C1437 C 0.20819 0.80282 0.42723 0.0
C1438 C 0.21733 0.79437 0.34353 0.0
C1439 C 0.20268 0.77882 0.36915 0.0
loop_
_geom_bond_atom_site_label_1
_geom_bond_atom_site_label_2
_geom_bond_distance
_geom_bond_site_symmetry_2
_ccdc_geom_bond_type
Li0 N17 1.990 . S
Li0 O60 1.956 . S
Li0 O61 1.970 . S
Li0 O62 1.961 . S
Li1 N25 1.990 . S
Li1 O60 1.970 . S
Li1 O61 1.956 . S
Li1 O63 1.961 . S
Li2 N47 1.990 . S
Li2 O60 1.961 . S
Li2 O62 1.956 . S
Li2 O63 1.970 . S
Li3 N53 1.990 . S
Li3 O61 1.961 . S
Li3 O62 1.970 . S
Li3 O63 1.956 . S
C4 C6 1.348 . S
C4 C7 1.356 . S
C4 O60 1.325 . S
N5 C8 1.314 . S
N5 C9 1.279 . S
C6 C4 1.348 . S
C6 C8 1.353 . S
C6 H64 0.929 . S
C7 C4 1.356 . S
C7 C9 1.358 . S
C7 H65 0.930 . S
C8 N5 1.314 . S
C8 C6 1.353 . S
C8 H66 0.930 . S
C9 N5 1.279 . S
C9 C7 1.358 . S
C9 H67 0.930 . S
C10 C13 1.348 . S
C10 C14 1.356 . S
C10 O61 1.325 . S
C11 N12 1.279 . S
C11 C14 1.358 . S
C11 H68 0.930 . S
N12 C11 1.279 . S
N12 C15 1.314 . S
C13 C10 1.348 . S
C13 C15 1.353 . S
C13 H69 0.929 . S
C14 C10 1.356 . S
C14 C11 1.358 . S
C14 H70 0.930 . S
C15 N12 1.314 . S
C15 C13 1.353 . S
C15 H71 0.930 . S
C16 N17 1.314 . S
C16 C21 1.353 . S
C16 H22 0.930 . S
N17 Li0 1.990 . S
N17 C16 1.314 . S
N17 C19 1.279 . S
C18 C19 1.358 . S
C18 C20 1.356 . S
C18 H72 0.930 . S
C19 N17 1.279 . S
C19 C18 1.358 . S
C19 H23 0.930 . S
C20 C18 1.356 . S
C20 C21 1.348 . S
C21 C16 1.353 . S
C21 C20 1.348 . S
C21 H73 0.929 . S
H22 C16 0.930 . S
H23 C19 0.930 . S
C24 N25 1.314 . S
C24 C26 1.353 . S
C24 H30 0.930 . S
N25 Li1 1.990 . S
N25 C24 1.314 . S
N25 C28 1.279 . S
C26 C24 1.353 . S
C26 C29 1.348 . S
C26 H74 0.929 . S
C27 C28 1.358 . S
C27 C29 1.356 . S
C27 H75 0.930 . S
C28 N25 1.279 . S
C28 C27 1.358 . S
C28 H31 0.930 . S
C29 C26 1.348 . S
C29 C27 1.356 . S
H30 C24 0.930 . S
H31 C28 0.930 . S
C32 C34 1.348 . S
C32 C35 1.356 . S
C32 O62 1.325 . S
N33 C36 1.314 . S
N33 C37 1.279 . S
C34 C32 1.348 . S
C34 C36 1.353 . S
C34 H76 0.929 . S
C35 C32 1.356 . S
C35 C37 1.358 . S
C35 H77 0.930 . S
C36 N33 1.314 . S
C36 C34 1.353 . S
C36 H78 0.930 . S
C37 N33 1.279 . S
C37 C35 1.358 . S
C37 H79 0.930 . S
C38 C39 1.348 . S
C38 C40 1.356 . S
C38 O63 1.325 . S
C39 C38 1.348 . S
C39 C41 1.353 . S
C39 H80 0.929 . S
C40 C38 1.356 . S
C40 C42 1.358 . S
C40 H81 0.930 . S
C41 C39 1.353 . S
C41 N43 1.314 . S
C41 H82 0.930 . S
C42 C40 1.358 . S
C42 N43 1.279 . S
C42 H83 0.930 . S
N43 C41 1.314 . S
N43 C42 1.279 . S
C44 C46 1.353 . S
C44 N47 1.314 . S
C44 H50 0.930 . S
C45 N47 1.279 . S
C45 C48 1.358 . S
C45 H51 0.930 . S
C46 C44 1.353 . S
C46 C49 1.348 . S
C46 H84 0.929 . S
N47 Li2 1.990 . S
N47 C44 1.314 . S
N47 C45 1.279 . S
C48 C45 1.358 . S
C48 C49 1.356 . S
C48 H85 0.930 . S
C49 C46 1.348 . S
C49 C48 1.356 . S
H50 C44 0.930 . S
H51 C45 0.930 . S
C52 N53 1.314 . S
C52 C54 1.353 . S
C52 H58 0.930 . S
N53 Li3 1.990 . S
N53 C52 1.314 . S
N53 C56 1.279 . S
C54 C52 1.353 . S
C54 C57 1.348 . S
C54 H86 0.929 . S
C55 C56 1.358 . S
C55 C57 1.356 . S
C55 H87 0.930 . S
C56 N53 1.279 . S
C56 C55 1.358 . S
C56 H59 0.930 . S
C57 C54 1.348 . S
C57 C55 1.356 . S
H58 C52 0.930 . S
H59 C56 0.930 . S
O60 Li0 1.956 . S
O60 Li1 1.970 . S
O60 Li2 1.961 . S
O60 C4 1.325 . S
O61 Li0 1.970 . S
O61 Li1 1.956 . S
O61 Li3 1.961 . S
O61 C10 1.325 . S
O62 Li0 1.961 . S
O62 Li2 1.956 . S
O62 Li3 1.970 . S
O62 C32 1.325 . S
O63 Li1 1.961 . S
O63 Li2 1.970 . S
O63 Li3 1.956 . S
O63 C38 1.325 . S
H64 C6 0.929 . S
H65 C7 0.930 . S
H66 C8 0.930 . S
H67 C9 0.930 . S
H68 C11 0.930 . S
H69 C13 0.929 . S
H70 C14 0.930 . S
H71 C15 0.930 . S
H72 C18 0.930 . S
H73 C21 0.929 . S
H74 C26 0.929 . S
H75 C27 0.930 . S
H76 C34 0.929 . S
H77 C35 0.930 . S
H78 C36 0.930 . S
H79 C37 0.930 . S
H80 C39 0.929 . S
H81 C40 0.930 . S
H82 C41 0.930 . S
H83 C42 0.930 . S
H84 C46 0.929 . S
H85 C48 0.930 . S
H86 C54 0.929 . S
H87 C55 0.930 . S
Li88 N105 1.990 . S
Li88 O148 1.956 . S
Li88 O149 1.970 . S
Li88 O150 1.961 . S
Li89 N113 1.990 . S
Li89 O148 1.970 . S
Li89 O149 1.956 . S
Li89 O151 1.961 . S
Li90 N135 1.990 . S
Li90 O148 1.961 . S
Li90 O150 1.956 . S
Li90 O151 1.970 . S
Li91 N141 1.990 . S
Li91 O149 1.961 . S
Li91 O150 1.970 . S
Li91 O151 1.956 . S
C92 C94 1.348 . S
C92 C95 1.356 . S
C92 O148 1.325 . S
N93 C96 1.314 . S
N93 C97 1.279 . S
C94 C92 1.348 . S
C94 C96 1.353 . S
C94 H152 0.929 . S
C95 C92 1.356 . S
C95 C97 1.358 . S
C95 H153 0.930 . S
C96 N93 1.314 . S
C96 C94 1.353 . S
C96 H154 0.930 . S
C97 N93 1.279 . S
C97 C95 1.358 . S
C97 H155 0.930 . S
C98 C101 1.348 . S
C98 C102 1.356 . S
C98 O149 1.325 . S
C99 N100 1.279 . S
C99 C102 1.358 . S
C99 H156 0.930 . S
N100 C99 1.279 . S
N100 C103 1.314 . S
C101 C98 1.348 . S
C101 C103 1.353 . S
C101 H157 0.929 . S
C102 C98 1.356 . S
C102 C99 1.358 . S
C102 H158 0.930 . S
C103 N100 1.314 . S
C103 C101 1.353 . S
C103 H159 0.930 . S
C104 N105 1.314 . S
C104 C109 1.353 . S
C104 H110 0.930 . S
N105 Li88 1.990 . S
N105 C104 1.314 . S
N105 C107 1.279 . S
C106 C107 1.358 . S
C106 C108 1.356 . S
C106 H160 0.930 . S
C107 N105 1.279 . S
C107 C106 1.358 . S
C107 H111 0.930 . S
C108 C106 1.356 . S
C108 C109 1.348 . S
C109 C104 1.353 . S
C109 C108 1.348 . S
C109 H161 0.929 . S
H110 C104 0.930 . S
H111 C107 0.930 . S
C112 N113 1.314 . S
C112 C114 1.353 . S
C112 H118 0.930 . S
N113 Li89 1.990 . S
N113 C112 1.314 . S
N113 C116 1.279 . S
C114 C112 1.353 . S
C114 C117 1.348 . S
C114 H162 0.929 . S
C115 C116 1.358 . S
C115 C117 1.356 . S
C115 H163 0.930 . S
C116 N113 1.279 . S
C116 C115 1.358 . S
C116 H119 0.930 . S
C117 C114 1.348 . S
C117 C115 1.356 . S
H118 C112 0.930 . S
H119 C116 0.930 . S
C120 C122 1.348 . S
C120 C123 1.356 . S
C120 O150 1.325 . S
N121 C124 1.314 . S
N121 C125 1.279 . S
C122 C120 1.348 . S
C122 C124 1.353 . S
C122 H164 0.929 . S
C123 C120 1.356 . S
C123 C125 1.358 . S
C123 H165 0.930 . S
C124 N121 1.314 . S
C124 C122 1.353 . S
C124 H166 0.930 . S
C125 N121 1.279 . S
C125 C123 1.358 . S
C125 H167 0.930 . S
C126 C127 1.348 . S
C126 C128 1.356 . S
C126 O151 1.325 . S
C127 C126 1.348 . S
C127 C129 1.353 . S
C127 H168 0.929 . S
C128 C126 1.356 . S
C128 C130 1.358 . S
C128 H169 0.930 . S
C129 C127 1.353 . S
C129 N131 1.314 . S
C129 H170 0.930 . S
C130 C128 1.358 . S
C130 N131 1.279 . S
C130 H171 0.930 . S
N131 C129 1.314 . S
N131 C130 1.279 . S
C132 C134 1.353 . S
C132 N135 1.314 . S
C132 H138 0.930 . S
C133 N135 1.279 . S
C133 C136 1.358 . S
C133 H139 0.930 . S
C134 C132 1.353 . S
C134 C137 1.348 . S
C134 H172 0.929 . S
N135 Li90 1.990 . S
N135 C132 1.314 . S
N135 C133 1.279 . S
C136 C133 1.358 . S
C136 C137 1.356 . S
C136 H173 0.930 . S
C137 C134 1.348 . S
C137 C136 1.356 . S
H138 C132 0.930 . S
H139 C133 0.930 . S
C140 N141 1.314 . S
C140 C142 1.353 . S
C140 H146 0.930 . S
N141 Li91 1.990 . S
N141 C140 1.314 . S
N141 C144 1.279 . S
C142 C140 1.353 . S
C142 C145 1.348 . S
C142 H174 0.929 . S
C143 C144 1.358 . S
C143 C145 1.356 . S
C143 H175 0.930 . S
C144 N141 1.279 . S
C144 C143 1.358 . S
C144 H147 0.930 . S
C145 C142 1.348 . S
C145 C143 1.356 . S
H146 C140 0.930 . S
H147 C144 0.930 . S
O148 Li88 1.956 . S
O148 Li89 1.970 . S
O148 Li90 1.961 . S
O148 C92 1.325 . S
O149 Li88 1.970 . S
O149 Li89 1.956 . S
O149 Li91 1.961 . S
O149 C98 1.325 . S
O150 Li88 1.961 . S
O150 Li90 1.956 . S
O150 Li91 1.970 . S
O150 C120 1.325 . S
O151 Li89 1.961 . S
O151 Li90 1.970 . S
O151 Li91 1.956 . S
O151 C126 1.325 . S
H152 C94 0.929 . S
H153 C95 0.930 . S
H154 C96 0.930 . S
H155 C97 0.930 . S
H156 C99 0.930 . S
H157 C101 0.929 . S
H158 C102 0.930 . S
H159 C103 0.930 . S
H160 C106 0.930 . S
H161 C109 0.929 . S
H162 C114 0.929 . S
H163 C115 0.930 . S
H164 C122 0.929 . S
H165 C123 0.930 . S
H166 C124 0.930 . S
H167 C125 0.930 . S
H168 C127 0.929 . S
H169 C128 0.930 . S
H170 C129 0.930 . S
H171 C130 0.930 . S
H172 C134 0.929 . S
H173 C136 0.930 . S
H174 C142 0.929 . S
H175 C143 0.930 . S
Li176 N193 1.990 . S
Li176 O236 1.956 . S
Li176 O237 1.970 . S
Li176 O238 1.961 . S
Li177 N201 1.990 . S
Li177 O236 1.970 . S
Li177 O237 1.956 . S
Li177 O239 1.961 . S
Li178 N223 1.990 . S
Li178 O236 1.961 . S
Li178 O238 1.956 . S
Li178 O239 1.970 . S
Li179 N229 1.990 . S
Li179 O237 1.961 . S
Li179 O238 1.970 . S
Li179 O239 1.956 . S
C180 C182 1.348 . S
C180 C183 1.356 . S
C180 O236 1.325 . S
N181 C184 1.314 . S
N181 C185 1.279 . S
C182 C180 1.348 . S
C182 C184 1.353 . S
C182 H240 0.929 . S
C183 C180 1.356 . S
C183 C185 1.358 . S
C183 H241 0.930 . S
C184 N181 1.314 . S
C184 C182 1.353 . S
C184 H242 0.930 . S
C185 N181 1.279 . S
C185 C183 1.358 . S
C185 H243 0.930 . S
C186 C189 1.348 . S
C186 C190 1.356 . S
C186 O237 1.325 . S
C187 N188 1.279 . S
C187 C190 1.358 . S
C187 H244 0.930 . S
N188 C187 1.279 . S
N188 C191 1.314 . S
C189 C186 1.348 . S
C189 C191 1.353 . S
C189 H245 0.929 . S
C190 C186 1.356 . S
C190 C187 1.358 . S
C190 H246 0.930 . S
C191 N188 1.314 . S
C191 C189 1.353 . S
C191 H247 0.930 . S
C192 N193 1.314 . S
C192 C197 1.353 . S
C192 H198 0.930 . S
N193 Li176 1.990 . S
N193 C192 1.314 . S
N193 C195 1.279 . S
C194 C195 1.358 . S
C194 C196 1.356 . S
C194 H248 0.930 . S
C195 N193 1.279 . S
C195 C194 1.358 . S
C195 H199 0.930 . S
C196 C194 1.356 . S
C196 C197 1.348 . S
C197 C192 1.353 . S
C197 C196 1.348 . S
C197 H249 0.929 . S
H198 C192 0.930 . S
H199 C195 0.930 . S
C200 N201 1.314 . S
C200 C202 1.353 . S
C200 H206 0.930 . S
N201 Li177 1.990 . S
N201 C200 1.314 . S
N201 C204 1.279 . S
C202 C200 1.353 . S
C202 C205 1.348 . S
C202 H250 0.929 . S
C203 C204 1.358 . S
C203 C205 1.356 . S
C203 H251 0.930 . S
C204 N201 1.279 . S
C204 C203 1.358 . S
C204 H207 0.930 . S
C205 C202 1.348 . S
C205 C203 1.356 . S
H206 C200 0.930 . S
H207 C204 0.930 . S
C208 C210 1.348 . S
C208 C211 1.356 . S
C208 O238 1.325 . S
N209 C212 1.314 . S
N209 C213 1.279 . S
C210 C208 1.348 . S
C210 C212 1.353 . S
C210 H252 0.929 . S
C211 C208 1.356 . S
C211 C213 1.358 . S
C211 H253 0.930 . S
C212 N209 1.314 . S
C212 C210 1.353 . S
C212 H254 0.930 . S
C213 N209 1.279 . S
C213 C211 1.358 . S
C213 H255 0.930 . S
C214 C215 1.348 . S
C214 C216 1.356 . S
C214 O239 1.325 . S
C215 C214 1.348 . S
C215 C217 1.353 . S
C215 H256 0.929 . S
C216 C214 1.356 . S
C216 C218 1.358 . S
C216 H257 0.930 . S
C217 C215 1.353 . S
C217 N219 1.314 . S
C217 H258 0.930 . S
C218 C216 1.358 . S
C218 N219 1.279 . S
C218 H259 0.930 . S
N219 C217 1.314 . S
N219 C218 1.279 . S
C220 C222 1.353 . S
C220 N223 1.314 . S
C220 H226 0.930 . S
C221 N223 1.279 . S
C221 C224 1.358 . S
C221 H227 0.930 . S
C222 C220 1.353 . S
C222 C225 1.348 . S
C222 H260 0.929 . S
N223 Li178 1.990 . S
N223 C220 1.314 . S
N223 C221 1.279 . S
C224 C221 1.358 . S
C224 C225 1.356 . S
C224 H261 0.930 . S
C225 C222 1.348 . S
C225 C224 1.356 . S
H226 C220 0.930 . S
H227 C221 0.930 . S
C228 N229 1.314 . S
C228 C230 1.353 . S
C228 H234 0.930 . S
N229 Li179 1.990 . S
N229 C228 1.314 . S
N229 C232 1.279 . S
C230 C228 1.353 . S
C230 C233 1.348 . S
C230 H262 0.929 . S
C231 C232 1.358 . S
C231 C233 1.356 . S
C231 H263 0.930 . S
C232 N229 1.279 . S
C232 C231 1.358 . S
C232 H235 0.930 . S
C233 C230 1.348 . S
C233 C231 1.356 . S
H234 C228 0.930 . S
H235 C232 0.930 . S
O236 Li176 1.956 . S
O236 Li177 1.970 . S
O236 Li178 1.961 . S
O236 C180 1.325 . S
O237 Li176 1.970 . S
O237 Li177 1.956 . S
O237 Li179 1.961 . S
O237 C186 1.325 . S
O238 Li176 1.961 . S
O238 Li178 1.956 . S
O238 Li179 1.970 . S
O238 C208 1.325 . S
O239 Li177 1.961 . S
O239 Li178 1.970 . S
O239 Li179 1.956 . S
O239 C214 1.325 . S
H240 C182 0.929 . S
H241 C183 0.930 . S
H242 C184 0.930 . S
H243 C185 0.930 . S
H244 C187 0.930 . S
H245 C189 0.929 . S
H246 C190 0.930 . S
H247 C191 0.930 . S
H248 C194 0.930 . S
H249 C197 0.929 . S
H250 C202 0.929 . S
H251 C203 0.930 . S
H252 C210 0.929 . S
H253 C211 0.930 . S
H254 C212 0.930 . S
H255 C213 0.930 . S
H256 C215 0.929 . S
H257 C216 0.930 . S
H258 C217 0.930 . S
H259 C218 0.930 . S
H260 C222 0.929 . S
H261 C224 0.930 . S
H262 C230 0.929 . S
H263 C231 0.930 . S
Li264 N281 1.990 1_556 S
Li264 O324 1.956 . S
Li264 O325 1.970 . S
Li264 O326 1.961 . S
Li265 N289 1.990 . S
Li265 O324 1.970 . S
Li265 O325 1.956 . S
Li265 O327 1.961 . S
Li266 N311 1.990 . S
Li266 O324 1.961 . S
Li266 O326 1.956 . S
Li266 O327 1.970 . S
Li267 N317 1.990 . S
Li267 O325 1.961 . S
Li267 O326 1.970 . S
Li267 O327 1.956 . S
C268 C270 1.348 . S
C268 C271 1.356 . S
C268 O324 1.325 1_554 S
N269 C272 1.314 . S
N269 C273 1.279 . S
C270 C268 1.348 . S
C270 C272 1.353 . S
C270 H328 0.929 . S
C271 C268 1.356 . S
C271 C273 1.358 . S
C271 H329 0.930 . S
C272 N269 1.314 . S
C272 C270 1.353 . S
C272 H330 0.930 . S
C273 N269 1.279 . S
C273 C271 1.358 . S
C273 H331 0.930 . S
C274 C277 1.348 . S
C274 C278 1.356 . S
C274 O325 1.325 . S
C275 N276 1.279 . S
C275 C278 1.358 . S
C275 H332 0.930 . S
N276 C275 1.279 . S
N276 C279 1.314 . S
C277 C274 1.348 . S
C277 C279 1.353 . S
C277 H333 0.929 . S
C278 C274 1.356 . S
C278 C275 1.358 . S
C278 H334 0.930 . S
C279 N276 1.314 . S
C279 C277 1.353 . S
C279 H335 0.930 . S
C280 N281 1.314 . S
C280 C285 1.353 . S
C280 H286 0.930 1_554 S
N281 Li264 1.990 1_554 S
N281 C280 1.314 . S
N281 C283 1.279 . S
C282 C283 1.358 . S
C282 C284 1.356 . S
C282 H336 0.930 . S
C283 N281 1.279 . S
C283 C282 1.358 . S
C283 H287 0.930 . S
C284 C282 1.356 . S
C284 C285 1.348 . S
C285 C280 1.353 . S
C285 C284 1.348 . S
C285 H337 0.929 . S
H286 C280 0.930 1_556 S
H287 C283 0.930 . S
C288 N289 1.314 . S
C288 C290 1.353 . S
C288 H294 0.930 . S
N289 Li265 1.990 . S
N289 C288 1.314 . S
N289 C292 1.279 . S
C290 C288 1.353 . S
C290 C293 1.348 . S
C290 H338 0.929 . S
C291 C292 1.358 . S
C291 C293 1.356 . S
C291 H339 0.930 . S
C292 N289 1.279 . S
C292 C291 1.358 . S
C292 H295 0.930 . S
C293 C290 1.348 . S
C293 C291 1.356 . S
H294 C288 0.930 . S
H295 C292 0.930 . S
C296 C298 1.348 . S
C296 C299 1.356 . S
C296 O326 1.325 . S
N297 C300 1.314 . S
N297 C301 1.279 . S
C298 C296 1.348 . S
C298 C300 1.353 . S
C298 H340 0.929 . S
C299 C296 1.356 . S
C299 C301 1.358 . S
C299 H341 0.930 . S
C300 N297 1.314 . S
C300 C298 1.353 . S
C300 H342 0.930 . S
C301 N297 1.279 . S
C301 C299 1.358 . S
C301 H343 0.930 . S
C302 C303 1.348 . S
C302 C304 1.356 . S
C302 O327 1.325 . S
C303 C302 1.348 . S
C303 C305 1.353 . S
C303 H344 0.929 . S
C304 C302 1.356 . S
C304 C306 1.358 . S
C304 H345 0.930 . S
C305 C303 1.353 . S
C305 N307 1.314 . S
C305 H346 0.930 . S
C306 C304 1.358 . S
C306 N307 1.279 . S
C306 H347 0.930 . S
N307 C305 1.314 . S
N307 C306 1.279 . S
C308 C310 1.353 . S
C308 N311 1.314 . S
C308 H314 0.930 . S
C309 N311 1.279 . S
C309 C312 1.358 . S
C309 H315 0.930 . S
C310 C308 1.353 . S
C310 C313 1.348 . S
C310 H348 0.929 . S
N311 Li266 1.990 . S
N311 C308 1.314 . S
N311 C309 1.279 . S
C312 C309 1.358 . S
C312 C313 1.356 . S
C312 H349 0.930 . S
C313 C310 1.348 . S
C313 C312 1.356 . S
H314 C308 0.930 . S
H315 C309 0.930 . S
C316 N317 1.314 . S
C316 C318 1.353 . S
C316 H322 0.930 . S
N317 Li267 1.990 . S
N317 C316 1.314 . S
N317 C320 1.279 . S
C318 C316 1.353 . S
C318 C321 1.348 . S
C318 H350 0.929 . S
C319 C320 1.358 . S
C319 C321 1.356 . S
C319 H351 0.930 . S
C320 N317 1.279 . S
C320 C319 1.358 . S
C320 H323 0.930 . S
C321 C318 1.348 . S
C321 C319 1.356 . S
H322 C316 0.930 . S
H323 C320 0.930 . S
O324 Li264 1.956 . S
O324 Li265 1.970 . S
O324 Li266 1.961 . S
O324 C268 1.325 1_556 S
O325 Li264 1.970 . S
O325 Li265 1.956 . S
O325 Li267 1.961 . S
O325 C274 1.325 . S
O326 Li264 1.961 . S
O326 Li266 1.956 . S
O326 Li267 1.970 . S
O326 C296 1.325 . S
O327 Li265 1.961 . S
O327 Li266 1.970 . S
O327 Li267 1.956 . S
O327 C302 1.325 . S
H328 C270 0.929 . S
H329 C271 0.930 . S
H330 C272 0.930 . S
H331 C273 0.930 . S
H332 C275 0.930 . S
H333 C277 0.929 . S
H334 C278 0.930 . S
H335 C279 0.930 . S
H336 C282 0.930 . S
H337 C285 0.929 . S
H338 C290 0.929 . S
H339 C291 0.930 . S
H340 C298 0.929 . S
H341 C299 0.930 . S
H342 C300 0.930 . S
H343 C301 0.930 . S
H344 C303 0.929 . S
H345 C304 0.930 . S
H346 C305 0.930 . S
H347 C306 0.930 . S
H348 C310 0.929 . S
H349 C312 0.930 . S
H350 C318 0.929 . S
H351 C319 0.930 . S
Li352 N369 1.990 . S
Li352 O412 1.956 . S
Li352 O413 1.970 . S
Li352 O414 1.961 . S
Li353 N377 1.990 . S
Li353 O412 1.970 . S
Li353 O413 1.956 . S
Li353 O415 1.961 . S
Li354 N399 1.990 . S
Li354 O412 1.961 . S
Li354 O414 1.956 . S
Li354 O415 1.970 . S
Li355 N405 1.990 1_554 S
Li355 O413 1.961 . S
Li355 O414 1.970 . S
Li355 O415 1.956 . S
C356 C358 1.348 . S
C356 C359 1.356 . S
C356 O412 1.325 . S
N357 C360 1.314 . S
N357 C361 1.279 . S
C358 C356 1.348 . S
C358 C360 1.353 . S
C358 H416 0.929 . S
C359 C356 1.356 . S
C359 C361 1.358 . S
C359 H417 0.930 . S
C360 N357 1.314 . S
C360 C358 1.353 . S
C360 H418 0.930 . S
C361 N357 1.279 . S
C361 C359 1.358 . S
C361 H419 0.930 . S
C362 C365 1.348 . S
C362 C366 1.356 . S
C362 O413 1.325 . S
C363 N364 1.279 . S
C363 C366 1.358 . S
C363 H420 0.930 . S
N364 C363 1.279 . S
N364 C367 1.314 . S
C365 C362 1.348 . S
C365 C367 1.353 . S
C365 H421 0.929 . S
C366 C362 1.356 . S
C366 C363 1.358 . S
C366 H422 0.930 . S
C367 N364 1.314 . S
C367 C365 1.353 . S
C367 H423 0.930 . S
C368 N369 1.314 . S
C368 C373 1.353 . S
C368 H374 0.930 . S
N369 Li352 1.990 . S
N369 C368 1.314 . S
N369 C371 1.279 . S
C370 C371 1.358 . S
C370 C372 1.356 . S
C370 H424 0.930 . S
C371 N369 1.279 . S
C371 C370 1.358 . S
C371 H375 0.930 . S
C372 C370 1.356 . S
C372 C373 1.348 . S
C373 C368 1.353 . S
C373 C372 1.348 . S
C373 H425 0.929 . S
H374 C368 0.930 . S
H375 C371 0.930 . S
C376 N377 1.314 . S
C376 C378 1.353 . S
C376 H382 0.930 . S
N377 Li353 1.990 . S
N377 C376 1.314 . S
N377 C380 1.279 . S
C378 C376 1.353 . S
C378 C381 1.348 . S
C378 H426 0.929 . S
C379 C380 1.358 . S
C379 C381 1.356 . S
C379 H427 0.930 . S
C380 N377 1.279 . S
C380 C379 1.358 . S
C380 H383 0.930 . S
C381 C378 1.348 . S
C381 C379 1.356 . S
H382 C376 0.930 . S
H383 C380 0.930 . S
C384 C386 1.348 . S
C384 C387 1.356 . S
C384 O414 1.325 . S
N385 C388 1.314 . S
N385 C389 1.279 . S
C386 C384 1.348 . S
C386 C388 1.353 . S
C386 H428 0.929 . S
C387 C384 1.356 . S
C387 C389 1.358 . S
C387 H429 0.930 . S
C388 N385 1.314 . S
C388 C386 1.353 . S
C388 H430 0.930 . S
C389 N385 1.279 . S
C389 C387 1.358 . S
C389 H431 0.930 . S
C390 C391 1.348 . S
C390 C392 1.356 . S
C390 O415 1.325 . S
C391 C390 1.348 . S
C391 C393 1.353 1_554 S
C391 H432 0.929 . S
C392 C390 1.356 . S
C392 C394 1.358 1_554 S
C392 H433 0.930 . S
C393 C391 1.353 1_556 S
C393 N395 1.314 . S
C393 H434 0.930 . S
C394 C392 1.358 1_556 S
C394 N395 1.279 . S
C394 H435 0.930 . S
N395 C393 1.314 . S
N395 C394 1.279 . S
C396 C398 1.353 . S
C396 N399 1.314 . S
C396 H402 0.930 . S
C397 N399 1.279 . S
C397 C400 1.358 . S
C397 H403 0.930 . S
C398 C396 1.353 . S
C398 C401 1.348 . S
C398 H436 0.929 . S
N399 Li354 1.990 . S
N399 C396 1.314 . S
N399 C397 1.279 . S
C400 C397 1.358 . S
C400 C401 1.356 . S
C400 H437 0.930 . S
C401 C398 1.348 . S
C401 C400 1.356 . S
H402 C396 0.930 . S
H403 C397 0.930 . S
C404 N405 1.314 . S
C404 C406 1.353 . S
C404 H410 0.930 1_556 S
N405 Li355 1.990 1_556 S
N405 C404 1.314 . S
N405 C408 1.279 . S
C406 C404 1.353 . S
C406 C409 1.348 . S
C406 H438 0.929 . S
C407 C408 1.358 . S
C407 C409 1.356 . S
C407 H439 0.930 . S
C408 N405 1.279 . S
C408 C407 1.358 . S
C408 H411 0.930 . S
C409 C406 1.348 . S
C409 C407 1.356 . S
H410 C404 0.930 1_554 S
H411 C408 0.930 . S
O412 Li352 1.956 . S
O412 Li353 1.970 . S
O412 Li354 1.961 . S
O412 C356 1.325 . S
O413 Li352 1.970 . S
O413 Li353 1.956 . S
O413 Li355 1.961 . S
O413 C362 1.325 . S
O414 Li352 1.961 . S
O414 Li354 1.956 . S
O414 Li355 1.970 . S
O414 C384 1.325 . S
O415 Li353 1.961 . S
O415 Li354 1.970 . S
O415 Li355 1.956 . S
O415 C390 1.325 . S
H416 C358 0.929 . S
H417 C359 0.930 . S
H418 C360 0.930 . S
H419 C361 0.930 . S
H420 C363 0.930 . S
H421 C365 0.929 . S
H422 C366 0.930 . S
H423 C367 0.930 . S
H424 C370 0.930 . S
H425 C373 0.929 . S
H426 C378 0.929 . S
H427 C379 0.930 . S
H428 C386 0.929 . S
H429 C387 0.930 . S
H430 C388 0.930 . S
H431 C389 0.930 . S
H432 C391 0.929 . S
H433 C392 0.930 . S
H434 C393 0.930 . S
H435 C394 0.930 . S
H436 C398 0.929 . S
H437 C400 0.930 . S
H438 C406 0.929 . S
H439 C407 0.930 . S
Li440 N457 1.990 . S
Li440 O500 1.956 . S
Li440 O501 1.970 . S
Li440 O502 1.961 . S
Li441 N465 1.990 . S
Li441 O500 1.970 . S
Li441 O501 1.956 . S
Li441 O503 1.961 . S
Li442 N487 1.990 . S
Li442 O500 1.961 . S
Li442 O502 1.956 . S
Li442 O503 1.970 . S
Li443 N493 1.990 . S
Li443 O501 1.961 . S
Li443 O502 1.970 . S
Li443 O503 1.956 . S
C444 C446 1.348 . S
C444 C447 1.356 . S
C444 O500 1.325 . S
N445 C448 1.314 . S
N445 C449 1.279 . S
C446 C444 1.348 . S
C446 C448 1.353 . S
C446 H504 0.929 . S
C447 C444 1.356 . S
C447 C449 1.358 . S
C447 H505 0.930 . S
C448 N445 1.314 . S
C448 C446 1.353 . S
C448 H506 0.930 . S
C449 N445 1.279 . S
C449 C447 1.358 . S
C449 H507 0.930 . S
C450 C453 1.348 . S
C450 C454 1.356 . S
C450 O501 1.325 . S
C451 N452 1.279 . S
C451 C454 1.358 . S
C451 H508 0.930 . S
N452 C451 1.279 . S
N452 C455 1.314 . S
C453 C450 1.348 . S
C453 C455 1.353 . S
C453 H509 0.929 . S
C454 C450 1.356 . S
C454 C451 1.358 . S
C454 H510 0.930 . S
C455 N452 1.314 . S
C455 C453 1.353 . S
C455 H511 0.930 . S
C456 N457 1.314 . S
C456 C461 1.353 . S
C456 H462 0.930 . S
N457 Li440 1.990 . S
N457 C456 1.314 . S
N457 C459 1.279 . S
C458 C459 1.358 . S
C458 C460 1.356 . S
C458 H512 0.930 . S
C459 N457 1.279 . S
C459 C458 1.358 . S
C459 H463 0.930 . S
C460 C458 1.356 . S
C460 C461 1.348 . S
C461 C456 1.353 . S
C461 C460 1.348 . S
C461 H513 0.929 . S
H462 C456 0.930 . S
H463 C459 0.930 . S
C464 N465 1.314 . S
C464 C466 1.353 . S
C464 H470 0.930 . S
N465 Li441 1.990 . S
N465 C464 1.314 . S
N465 C468 1.279 . S
C466 C464 1.353 . S
C466 C469 1.348 . S
C466 H514 0.929 . S
C467 C468 1.358 . S
C467 C469 1.356 . S
C467 H515 0.930 . S
C468 N465 1.279 . S
C468 C467 1.358 . S
C468 H471 0.930 . S
C469 C466 1.348 . S
C469 C467 1.356 . S
H470 C464 0.930 . S
H471 C468 0.930 . S
C472 C474 1.348 . S
C472 C475 1.356 . S
C472 O502 1.325 . S
N473 C476 1.314 . S
N473 C477 1.279 . S
C474 C472 1.348 . S
C474 C476 1.353 . S
C474 H516 0.929 . S
C475 C472 1.356 . S
C475 C477 1.358 . S
C475 H517 0.930 . S
C476 N473 1.314 . S
C476 C474 1.353 . S
C476 H518 0.930 . S
C477 N473 1.279 . S
C477 C475 1.358 . S
C477 H519 0.930 . S
C478 C479 1.348 . S
C478 C480 1.356 . S
C478 O503 1.325 . S
C479 C478 1.348 . S
C479 C481 1.353 . S
C479 H520 0.929 . S
C480 C478 1.356 . S
C480 C482 1.358 . S
C480 H521 0.930 . S
C481 C479 1.353 . S
C481 N483 1.314 . S
C481 H522 0.930 . S
C482 C480 1.358 . S
C482 N483 1.279 . S
C482 H523 0.930 . S
N483 C481 1.314 . S
N483 C482 1.279 . S
C484 C486 1.353 . S
C484 N487 1.314 . S
C484 H490 0.930 . S
C485 N487 1.279 . S
C485 C488 1.358 . S
C485 H491 0.930 . S
C486 C484 1.353 . S
C486 C489 1.348 . S
C486 H524 0.929 . S
N487 Li442 1.990 . S
N487 C484 1.314 . S
N487 C485 1.279 . S
C488 C485 1.358 . S
C488 C489 1.356 . S
C488 H525 0.930 . S
C489 C486 1.348 . S
C489 C488 1.356 . S
H490 C484 0.930 . S
H491 C485 0.930 . S
C492 N493 1.314 . S
C492 C494 1.353 . S
C492 H498 0.930 . S
N493 Li443 1.990 . S
N493 C492 1.314 . S
N493 C496 1.279 . S
C494 C492 1.353 . S
C494 C497 1.348 . S
C494 H526 0.929 . S
C495 C496 1.358 . S
C495 C497 1.356 . S
C495 H527 0.930 . S
C496 N493 1.279 . S
C496 C495 1.358 . S
C496 H499 0.930 . S
C497 C494 1.348 . S
C497 C495 1.356 . S
H498 C492 0.930 . S
H499 C496 0.930 . S
O500 Li440 1.956 . S
O500 Li441 1.970 . S
O500 Li442 1.961 . S
O500 C444 1.325 . S
O501 Li440 1.970 . S
O501 Li441 1.956 . S
O501 Li443 1.961 . S
O501 C450 1.325 . S
O502 Li440 1.961 . S
O502 Li442 1.956 . S
O502 Li443 1.970 . S
O502 C472 1.325 . S
O503 Li441 1.961 . S
O503 Li442 1.970 . S
O503 Li443 1.956 . S
O503 C478 1.325 . S
H504 C446 0.929 . S
H505 C447 0.930 . S
H506 C448 0.930 . S
H507 C449 0.930 . S
H508 C451 0.930 . S
H509 C453 0.929 . S
H510 C454 0.930 . S
H511 C455 0.930 . S
H512 C458 0.930 . S
H513 C461 0.929 . S
H514 C466 0.929 . S
H515 C467 0.930 . S
H516 C474 0.929 . S
H517 C475 0.930 . S
H518 C476 0.930 . S
H519 C477 0.930 . S
H520 C479 0.929 . S
H521 C480 0.930 . S
H522 C481 0.930 . S
H523 C482 0.930 . S
H524 C486 0.929 . S
H525 C488 0.930 . S
H526 C494 0.929 . S
H527 C495 0.930 . S
Li528 N545 1.990 . S
Li528 O588 1.956 . S
Li528 O589 1.970 . S
Li528 O590 1.961 . S
Li529 N553 1.990 . S
Li529 O588 1.970 . S
Li529 O589 1.956 . S
Li529 O591 1.961 . S
Li530 N575 1.990 . S
Li530 O588 1.961 . S
Li530 O590 1.956 . S
Li530 O591 1.970 . S
Li531 N581 1.990 . S
Li531 O589 1.961 . S
Li531 O590 1.970 . S
Li531 O591 1.956 . S
C532 C534 1.348 . S
C532 C535 1.356 . S
C532 O588 1.325 . S
N533 C536 1.314 . S
N533 C537 1.279 . S
C534 C532 1.348 . S
C534 C536 1.353 . S
C534 H592 0.929 . S
C535 C532 1.356 . S
C535 C537 1.358 . S
C535 H593 0.930 . S
C536 N533 1.314 . S
C536 C534 1.353 . S
C536 H594 0.930 . S
C537 N533 1.279 . S
C537 C535 1.358 . S
C537 H595 0.930 . S
C538 C541 1.348 . S
C538 C542 1.356 . S
C538 O589 1.325 . S
C539 N540 1.279 . S
C539 C542 1.358 . S
C539 H596 0.930 . S
N540 C539 1.279 . S
N540 C543 1.314 . S
C541 C538 1.348 . S
C541 C543 1.353 . S
C541 H597 0.929 . S
C542 C538 1.356 . S
C542 C539 1.358 . S
C542 H598 0.930 . S
C543 N540 1.314 . S
C543 C541 1.353 . S
C543 H599 0.930 . S
C544 N545 1.314 . S
C544 C549 1.353 . S
C544 H550 0.930 . S
N545 Li528 1.990 . S
N545 C544 1.314 . S
N545 C547 1.279 . S
C546 C547 1.358 . S
C546 C548 1.356 . S
C546 H600 0.930 . S
C547 N545 1.279 . S
C547 C546 1.358 . S
C547 H551 0.930 . S
C548 C546 1.356 . S
C548 C549 1.348 . S
C549 C544 1.353 . S
C549 C548 1.348 . S
C549 H601 0.929 . S
H550 C544 0.930 . S
H551 C547 0.930 . S
C552 N553 1.314 . S
C552 C554 1.353 . S
C552 H558 0.930 . S
N553 Li529 1.990 . S
N553 C552 1.314 . S
N553 C556 1.279 . S
C554 C552 1.353 . S
C554 C557 1.348 . S
C554 H602 0.929 . S
C555 C556 1.358 . S
C555 C557 1.356 . S
C555 H603 0.930 . S
C556 N553 1.279 . S
C556 C555 1.358 . S
C556 H559 0.930 . S
C557 C554 1.348 . S
C557 C555 1.356 . S
H558 C552 0.930 . S
H559 C556 0.930 . S
C560 C562 1.348 . S
C560 C563 1.356 . S
C560 O590 1.325 . S
N561 C564 1.314 . S
N561 C565 1.279 . S
C562 C560 1.348 . S
C562 C564 1.353 . S
C562 H604 0.929 . S
C563 C560 1.356 . S
C563 C565 1.358 . S
C563 H605 0.930 . S
C564 N561 1.314 . S
C564 C562 1.353 . S
C564 H606 0.930 . S
C565 N561 1.279 . S
C565 C563 1.358 . S
C565 H607 0.930 . S
C566 C567 1.348 . S
C566 C568 1.356 . S
C566 O591 1.325 . S
C567 C566 1.348 . S
C567 C569 1.353 . S
C567 H608 0.929 . S
C568 C566 1.356 . S
C568 C570 1.358 . S
C568 H609 0.930 . S
C569 C567 1.353 . S
C569 N571 1.314 . S
C569 H610 0.930 . S
C570 C568 1.358 . S
C570 N571 1.279 . S
C570 H611 0.930 . S
N571 C569 1.314 . S
N571 C570 1.279 . S
C572 C574 1.353 . S
C572 N575 1.314 . S
C572 H578 0.930 . S
C573 N575 1.279 . S
C573 C576 1.358 . S
C573 H579 0.930 . S
C574 C572 1.353 . S
C574 C577 1.348 . S
C574 H612 0.929 . S
N575 Li530 1.990 . S
N575 C572 1.314 . S
N575 C573 1.279 . S
C576 C573 1.358 . S
C576 C577 1.356 . S
C576 H613 0.930 . S
C577 C574 1.348 . S
C577 C576 1.356 . S
H578 C572 0.930 . S
H579 C573 0.930 . S
C580 N581 1.314 . S
C580 C582 1.353 . S
C580 H586 0.930 . S
N581 Li531 1.990 . S
N581 C580 1.314 . S
N581 C584 1.279 . S
C582 C580 1.353 . S
C582 C585 1.348 . S
C582 H614 0.929 . S
C583 C584 1.358 . S
C583 C585 1.356 . S
C583 H615 0.930 . S
C584 N581 1.279 . S
C584 C583 1.358 . S
C584 H587 0.930 . S
C585 C582 1.348 . S
C585 C583 1.356 . S
H586 C580 0.930 . S
H587 C584 0.930 . S
O588 Li528 1.956 . S
O588 Li529 1.970 . S
O588 Li530 1.961 . S
O588 C532 1.325 . S
O589 Li528 1.970 . S
O589 Li529 1.956 . S
O589 Li531 1.961 . S
O589 C538 1.325 . S
O590 Li528 1.961 . S
O590 Li530 1.956 . S
O590 Li531 1.970 . S
O590 C560 1.325 . S
O591 Li529 1.961 . S
O591 Li530 1.970 . S
O591 Li531 1.956 . S
O591 C566 1.325 . S
H592 C534 0.929 . S
H593 C535 0.930 . S
H594 C536 0.930 . S
H595 C537 0.930 . S
H596 C539 0.930 . S
H597 C541 0.929 . S
H598 C542 0.930 . S
H599 C543 0.930 . S
H600 C546 0.930 . S
H601 C549 0.929 . S
H602 C554 0.929 . S
H603 C555 0.930 . S
H604 C562 0.929 . S
H605 C563 0.930 . S
H606 C564 0.930 . S
H607 C565 0.930 . S
H608 C567 0.929 . S
H609 C568 0.930 . S
H610 C569 0.930 . S
H611 C570 0.930 . S
H612 C574 0.929 . S
H613 C576 0.930 . S
H614 C582 0.929 . S
H615 C583 0.930 . S
Li616 N633 1.990 . S
Li616 O676 1.956 . S
Li616 O677 1.970 . S
Li616 O678 1.961 . S
Li617 N641 1.990 . S
Li617 O676 1.970 . S
Li617 O677 1.956 . S
Li617 O679 1.961 . S
Li618 N663 1.990 . S
Li618 O676 1.961 . S
Li618 O678 1.956 . S
Li618 O679 1.970 . S
Li619 N669 1.990 . S
Li619 O677 1.961 . S
Li619 O678 1.970 . S
Li619 O679 1.956 . S
C620 C622 1.348 . S
C620 C623 1.356 . S
C620 O676 1.325 . S
N621 C624 1.314 . S
N621 C625 1.279 . S
C622 C620 1.348 . S
C622 C624 1.353 . S
C622 H680 0.929 . S
C623 C620 1.356 . S
C623 C625 1.358 . S
C623 H681 0.930 . S
C624 N621 1.314 . S
C624 C622 1.353 . S
C624 H682 0.930 . S
C625 N621 1.279 . S
C625 C623 1.358 . S
C625 H683 0.930 . S
C626 C629 1.348 . S
C626 C630 1.356 . S
C626 O677 1.325 . S
C627 N628 1.279 . S
C627 C630 1.358 . S
C627 H684 0.930 . S
N628 C627 1.279 . S
N628 C631 1.314 . S
C629 C626 1.348 . S
C629 C631 1.353 . S
C629 H685 0.929 . S
C630 C626 1.356 . S
C630 C627 1.358 . S
C630 H686 0.930 . S
C631 N628 1.314 . S
C631 C629 1.353 . S
C631 H687 0.930 . S
C632 N633 1.314 . S
C632 C637 1.353 . S
C632 H638 0.930 . S
N633 Li616 1.990 . S
N633 C632 1.314 . S
N633 C635 1.279 . S
C634 C635 1.358 . S
C634 C636 1.356 . S
C634 H688 0.930 . S
C635 N633 1.279 . S
C635 C634 1.358 . S
C635 H639 0.930 . S
C636 C634 1.356 . S
C636 C637 1.348 . S
C637 C632 1.353 . S
C637 C636 1.348 . S
C637 H689 0.929 . S
H638 C632 0.930 . S
H639 C635 0.930 . S
C640 N641 1.314 . S
C640 C642 1.353 . S
C640 H646 0.930 . S
N641 Li617 1.990 . S
N641 C640 1.314 . S
N641 C644 1.279 . S
C642 C640 1.353 . S
C642 C645 1.348 . S
C642 H690 0.929 . S
C643 C644 1.358 . S
C643 C645 1.356 . S
C643 H691 0.930 . S
C644 N641 1.279 . S
C644 C643 1.358 . S
C644 H647 0.930 . S
C645 C642 1.348 . S
C645 C643 1.356 . S
H646 C640 0.930 . S
H647 C644 0.930 . S
C648 C650 1.348 . S
C648 C651 1.356 . S
C648 O678 1.325 . S
N649 C652 1.314 . S
N649 C653 1.279 . S
C650 C648 1.348 . S
C650 C652 1.353 . S
C650 H692 0.929 . S
C651 C648 1.356 . S
C651 C653 1.358 . S
C651 H693 0.930 . S
C652 N649 1.314 . S
C652 C650 1.353 . S
C652 H694 0.930 . S
C653 N649 1.279 . S
C653 C651 1.358 . S
C653 H695 0.930 . S
C654 C655 1.348 . S
C654 C656 1.356 . S
C654 O679 1.325 . S
C655 C654 1.348 . S
C655 C657 1.353 . S
C655 H696 0.929 . S
C656 C654 1.356 . S
C656 C658 1.358 . S
C656 H697 0.930 . S
C657 C655 1.353 . S
C657 N659 1.314 . S
C657 H698 0.930 . S
C658 C656 1.358 . S
C658 N659 1.279 . S
C658 H699 0.930 . S
N659 C657 1.314 . S
N659 C658 1.279 . S
C660 C662 1.353 . S
C660 N663 1.314 . S
C660 H666 0.930 . S
C661 N663 1.279 . S
C661 C664 1.358 . S
C661 H667 0.930 . S
C662 C660 1.353 . S
C662 C665 1.348 . S
C662 H700 0.929 . S
N663 Li618 1.990 . S
N663 C660 1.314 . S
N663 C661 1.279 . S
C664 C661 1.358 . S
C664 C665 1.356 . S
C664 H701 0.930 . S
C665 C662 1.348 . S
C665 C664 1.356 . S
H666 C660 0.930 . S
H667 C661 0.930 . S
C668 N669 1.314 . S
C668 C670 1.353 . S
C668 H674 0.930 . S
N669 Li619 1.990 . S
N669 C668 1.314 . S
N669 C672 1.279 . S
C670 C668 1.353 . S
C670 C673 1.348 . S
C670 H702 0.929 . S
C671 C672 1.358 . S
C671 C673 1.356 . S
C671 H703 0.930 . S
C672 N669 1.279 . S
C672 C671 1.358 . S
C672 H675 0.930 . S
C673 C670 1.348 . S
C673 C671 1.356 . S
H674 C668 0.930 . S
H675 C672 0.930 . S
O676 Li616 1.956 . S
O676 Li617 1.970 . S
O676 Li618 1.961 . S
O676 C620 1.325 . S
O677 Li616 1.970 . S
O677 Li617 1.956 . S
O677 Li619 1.961 . S
O677 C626 1.325 . S
O678 Li616 1.961 . S
O678 Li618 1.956 . S
O678 Li619 1.970 . S
O678 C648 1.325 . S
O679 Li617 1.961 . S
O679 Li618 1.970 . S
O679 Li619 1.956 . S
O679 C654 1.325 . S
H680 C622 0.929 . S
H681 C623 0.930 . S
H682 C624 0.930 . S
H683 C625 0.930 . S
H684 C627 0.930 . S
H685 C629 0.929 . S
H686 C630 0.930 . S
H687 C631 0.930 . S
H688 C634 0.930 . S
H689 C637 0.929 . S
H690 C642 0.929 . S
H691 C643 0.930 . S
H692 C650 0.929 . S
H693 C651 0.930 . S
H694 C652 0.930 . S
H695 C653 0.930 . S
H696 C655 0.929 . S
H697 C656 0.930 . S
H698 C657 0.930 . S
H699 C658 0.930 . S
H700 C662 0.929 . S
H701 C664 0.930 . S
H702 C670 0.929 . S
H703 C671 0.930 . S
Li704 N721 1.990 . S
Li704 O764 1.956 . S
Li704 O765 1.970 . S
Li704 O766 1.961 . S
Li705 N729 1.990 . S
Li705 O764 1.970 . S
Li705 O765 1.956 . S
Li705 O767 1.961 . S
Li706 N751 1.990 . S
Li706 O764 1.961 . S
Li706 O766 1.956 . S
Li706 O767 1.970 . S
Li707 N757 1.990 . S
Li707 O765 1.961 . S
Li707 O766 1.970 . S
Li707 O767 1.956 . S
C708 C710 1.348 . S
C708 C711 1.356 . S
C708 O764 1.325 . S
N709 C712 1.314 . S
N709 C713 1.279 . S
C710 C708 1.348 . S
C710 C712 1.353 . S
C710 H768 0.929 . S
C711 C708 1.356 . S
C711 C713 1.358 . S
C711 H769 0.930 . S
C712 N709 1.314 . S
C712 C710 1.353 . S
C712 H770 0.930 . S
C713 N709 1.279 . S
C713 C711 1.358 . S
C713 H771 0.930 . S
C714 C717 1.348 . S
C714 C718 1.356 . S
C714 O765 1.325 . S
C715 N716 1.279 . S
C715 C718 1.358 . S
C715 H772 0.930 . S
N716 C715 1.279 . S
N716 C719 1.314 . S
C717 C714 1.348 . S
C717 C719 1.353 . S
C717 H773 0.929 . S
C718 C714 1.356 . S
C718 C715 1.358 . S
C718 H774 0.930 . S
C719 N716 1.314 . S
C719 C717 1.353 . S
C719 H775 0.930 . S
C720 N721 1.314 . S
C720 C725 1.353 . S
C720 H726 0.930 . S
N721 Li704 1.990 . S
N721 C720 1.314 . S
N721 C723 1.279 . S
C722 C723 1.358 . S
C722 C724 1.356 . S
C722 H776 0.930 . S
C723 N721 1.279 . S
C723 C722 1.358 . S
C723 H727 0.930 . S
C724 C722 1.356 . S
C724 C725 1.348 . S
C725 C720 1.353 . S
C725 C724 1.348 . S
C725 H777 0.929 . S
H726 C720 0.930 . S
H727 C723 0.930 . S
C728 N729 1.314 . S
C728 C730 1.353 . S
C728 H734 0.930 . S
N729 Li705 1.990 . S
N729 C728 1.314 . S
N729 C732 1.279 . S
C730 C728 1.353 . S
C730 C733 1.348 . S
C730 H778 0.929 . S
C731 C732 1.358 . S
C731 C733 1.356 . S
C731 H779 0.930 . S
C732 N729 1.279 . S
C732 C731 1.358 . S
C732 H735 0.930 . S
C733 C730 1.348 . S
C733 C731 1.356 . S
H734 C728 0.930 . S
H735 C732 0.930 . S
C736 C738 1.348 . S
C736 C739 1.356 . S
C736 O766 1.325 . S
N737 C740 1.314 . S
N737 C741 1.279 . S
C738 C736 1.348 . S
C738 C740 1.353 . S
C738 H780 0.929 . S
C739 C736 1.356 . S
C739 C741 1.358 . S
C739 H781 0.930 . S
C740 N737 1.314 . S
C740 C738 1.353 . S
C740 H782 0.930 . S
C741 N737 1.279 . S
C741 C739 1.358 . S
C741 H783 0.930 . S
C742 C743 1.348 . S
C742 C744 1.356 . S
C742 O767 1.325 . S
C743 C742 1.348 . S
C743 C745 1.353 . S
C743 H784 0.929 . S
C744 C742 1.356 . S
C744 C746 1.358 . S
C744 H785 0.930 . S
C745 C743 1.353 . S
C745 N747 1.314 . S
C745 H786 0.930 . S
C746 C744 1.358 . S
C746 N747 1.279 . S
C746 H787 0.930 . S
N747 C745 1.314 . S
N747 C746 1.279 . S
C748 C750 1.353 . S
C748 N751 1.314 . S
C748 H754 0.930 . S
C749 N751 1.279 . S
C749 C752 1.358 . S
C749 H755 0.930 . S
C750 C748 1.353 . S
C750 C753 1.348 . S
C750 H788 0.929 . S
N751 Li706 1.990 . S
N751 C748 1.314 . S
N751 C749 1.279 . S
C752 C749 1.358 . S
C752 C753 1.356 . S
C752 H789 0.930 . S
C753 C750 1.348 . S
C753 C752 1.356 . S
H754 C748 0.930 . S
H755 C749 0.930 . S
C756 N757 1.314 . S
C756 C758 1.353 . S
C756 H762 0.930 . S
N757 Li707 1.990 . S
N757 C756 1.314 . S
N757 C760 1.279 . S
C758 C756 1.353 . S
C758 C761 1.348 . S
C758 H790 0.929 . S
C759 C760 1.358 . S
C759 C761 1.356 . S
C759 H791 0.930 . S
C760 N757 1.279 . S
C760 C759 1.358 . S
C760 H763 0.930 . S
C761 C758 1.348 . S
C761 C759 1.356 . S
H762 C756 0.930 . S
H763 C760 0.930 . S
O764 Li704 1.956 . S
O764 Li705 1.970 . S
O764 Li706 1.961 . S
O764 C708 1.325 . S
O765 Li704 1.970 . S
O765 Li705 1.956 . S
O765 Li707 1.961 . S
O765 C714 1.325 . S
O766 Li704 1.961 . S
O766 Li706 1.956 . S
O766 Li707 1.970 . S
O766 C736 1.325 . S
O767 Li705 1.961 . S
O767 Li706 1.970 . S
O767 Li707 1.956 . S
O767 C742 1.325 . S
H768 C710 0.929 . S
H769 C711 0.930 . S
H770 C712 0.930 . S
H771 C713 0.930 . S
H772 C715 0.930 . S
H773 C717 0.929 . S
H774 C718 0.930 . S
H775 C719 0.930 . S
H776 C722 0.930 . S
H777 C725 0.929 . S
H778 C730 0.929 . S
H779 C731 0.930 . S
H780 C738 0.929 . S
H781 C739 0.930 . S
H782 C740 0.930 . S
H783 C741 0.930 . S
H784 C743 0.929 . S
H785 C744 0.930 . S
H786 C745 0.930 . S
H787 C746 0.930 . S
H788 C750 0.929 . S
H789 C752 0.930 . S
H790 C758 0.929 . S
H791 C759 0.930 . S
Li792 N809 1.990 . S
Li792 O852 1.956 . S
Li792 O853 1.970 . S
Li792 O854 1.961 . S
Li793 N817 1.990 1_556 S
Li793 O852 1.970 . S
Li793 O853 1.956 . S
Li793 O855 1.961 . S
Li794 N839 1.990 . S
Li794 O852 1.961 . S
Li794 O854 1.956 . S
Li794 O855 1.970 . S
Li795 N845 1.990 . S
Li795 O853 1.961 . S
Li795 O854 1.970 . S
Li795 O855 1.956 . S
C796 C798 1.348 . S
C796 C799 1.356 . S
C796 O852 1.325 . S
N797 C800 1.314 . S
N797 C801 1.279 . S
C798 C796 1.348 . S
C798 C800 1.353 . S
C798 H856 0.929 . S
C799 C796 1.356 . S
C799 C801 1.358 . S
C799 H857 0.930 . S
C800 N797 1.314 . S
C800 C798 1.353 . S
C800 H858 0.930 . S
C801 N797 1.279 . S
C801 C799 1.358 . S
C801 H859 0.930 . S
C802 C805 1.348 . S
C802 C806 1.356 . S
C802 O853 1.325 . S
C803 N804 1.279 . S
C803 C806 1.358 1_554 S
C803 H860 0.930 . S
N804 C803 1.279 . S
N804 C807 1.314 . S
C805 C802 1.348 . S
C805 C807 1.353 1_556 S
C805 H861 0.929 . S
C806 C802 1.356 . S
C806 C803 1.358 1_556 S
C806 H862 0.930 . S
C807 N804 1.314 . S
C807 C805 1.353 1_554 S
C807 H863 0.930 . S
C808 N809 1.314 . S
C808 C813 1.353 . S
C808 H814 0.930 . S
N809 Li792 1.990 . S
N809 C808 1.314 . S
N809 C811 1.279 . S
C810 C811 1.358 . S
C810 C812 1.356 . S
C810 H864 0.930 . S
C811 N809 1.279 . S
C811 C810 1.358 . S
C811 H815 0.930 . S
C812 C810 1.356 . S
C812 C813 1.348 . S
C813 C808 1.353 . S
C813 C812 1.348 . S
C813 H865 0.929 . S
H814 C808 0.930 . S
H815 C811 0.930 . S
C816 N817 1.314 . S
C816 C818 1.353 . S
C816 H822 0.930 1_554 S
N817 Li793 1.990 1_554 S
N817 C816 1.314 . S
N817 C820 1.279 . S
C818 C816 1.353 . S
C818 C821 1.348 . S
C818 H866 0.929 . S
C819 C820 1.358 . S
C819 C821 1.356 . S
C819 H867 0.930 . S
C820 N817 1.279 . S
C820 C819 1.358 . S
C820 H823 0.930 . S
C821 C818 1.348 . S
C821 C819 1.356 . S
H822 C816 0.930 1_556 S
H823 C820 0.930 . S
C824 C826 1.348 . S
C824 C827 1.356 . S
C824 O854 1.325 . S
N825 C828 1.314 . S
N825 C829 1.279 . S
C826 C824 1.348 . S
C826 C828 1.353 . S
C826 H868 0.929 . S
C827 C824 1.356 . S
C827 C829 1.358 . S
C827 H869 0.930 . S
C828 N825 1.314 . S
C828 C826 1.353 . S
C828 H870 0.930 . S
C829 N825 1.279 . S
C829 C827 1.358 . S
C829 H871 0.930 . S
C830 C831 1.348 . S
C830 C832 1.356 . S
C830 O855 1.325 . S
C831 C830 1.348 . S
C831 C833 1.353 . S
C831 H872 0.929 . S
C832 C830 1.356 . S
C832 C834 1.358 . S
C832 H873 0.930 . S
C833 C831 1.353 . S
C833 N835 1.314 . S
C833 H874 0.930 . S
C834 C832 1.358 . S
C834 N835 1.279 . S
C834 H875 0.930 . S
N835 C833 1.314 . S
N835 C834 1.279 . S
C836 C838 1.353 . S
C836 N839 1.314 . S
C836 H842 0.930 . S
C837 N839 1.279 . S
C837 C840 1.358 . S
C837 H843 0.930 . S
C838 C836 1.353 . S
C838 C841 1.348 . S
C838 H876 0.929 . S
N839 Li794 1.990 . S
N839 C836 1.314 . S
N839 C837 1.279 . S
C840 C837 1.358 . S
C840 C841 1.356 . S
C840 H877 0.930 . S
C841 C838 1.348 . S
C841 C840 1.356 . S
H842 C836 0.930 . S
H843 C837 0.930 . S
C844 N845 1.314 . S
C844 C846 1.353 . S
C844 H850 0.930 . S
N845 Li795 1.990 . S
N845 C844 1.314 . S
N845 C848 1.279 . S
C846 C844 1.353 . S
C846 C849 1.348 . S
C846 H878 0.929 . S
C847 C848 1.358 . S
C847 C849 1.356 . S
C847 H879 0.930 . S
C848 N845 1.279 . S
C848 C847 1.358 . S
C848 H851 0.930 . S
C849 C846 1.348 . S
C849 C847 1.356 . S
H850 C844 0.930 . S
H851 C848 0.930 . S
O852 Li792 1.956 . S
O852 Li793 1.970 . S
O852 Li794 1.961 . S
O852 C796 1.325 . S
O853 Li792 1.970 . S
O853 Li793 1.956 . S
O853 Li795 1.961 . S
O853 C802 1.325 . S
O854 Li792 1.961 . S
O854 Li794 1.956 . S
O854 Li795 1.970 . S
O854 C824 1.325 . S
O855 Li793 1.961 . S
O855 Li794 1.970 . S
O855 Li795 1.956 . S
O855 C830 1.325 . S
H856 C798 0.929 . S
H857 C799 0.930 . S
H858 C800 0.930 . S
H859 C801 0.930 . S
H860 C803 0.930 . S
H861 C805 0.929 . S
H862 C806 0.930 . S
H863 C807 0.930 . S
H864 C810 0.930 . S
H865 C813 0.929 . S
H866 C818 0.929 . S
H867 C819 0.930 . S
H868 C826 0.929 . S
H869 C827 0.930 . S
H870 C828 0.930 . S
H871 C829 0.930 . S
H872 C831 0.929 . S
H873 C832 0.930 . S
H874 C833 0.930 . S
H875 C834 0.930 . S
H876 C838 0.929 . S
H877 C840 0.930 . S
H878 C846 0.929 . S
H879 C847 0.930 . S
Li880 N897 1.990 . S
Li880 O940 1.956 . S
Li880 O941 1.970 . S
Li880 O942 1.961 . S
Li881 N905 1.990 . S
Li881 O940 1.970 . S
Li881 O941 1.956 . S
Li881 O943 1.961 . S
Li882 N927 1.990 1_554 S
Li882 O940 1.961 . S
Li882 O942 1.956 . S
Li882 O943 1.970 . S
Li883 N933 1.990 . S
Li883 O941 1.961 . S
Li883 O942 1.970 . S
Li883 O943 1.956 . S
C884 C886 1.348 . S
C884 C887 1.356 . S
C884 O940 1.325 . S
N885 C888 1.314 . S
N885 C889 1.279 . S
C886 C884 1.348 . S
C886 C888 1.353 . S
C886 H944 0.929 . S
C887 C884 1.356 . S
C887 C889 1.358 . S
C887 H945 0.930 . S
C888 N885 1.314 . S
C888 C886 1.353 . S
C888 H946 0.930 . S
C889 N885 1.279 . S
C889 C887 1.358 . S
C889 H947 0.930 . S
C890 C893 1.348 . S
C890 C894 1.356 . S
C890 O941 1.325 . S
C891 N892 1.279 . S
C891 C894 1.358 . S
C891 H948 0.930 . S
N892 C891 1.279 . S
N892 C895 1.314 . S
C893 C890 1.348 . S
C893 C895 1.353 . S
C893 H949 0.929 . S
C894 C890 1.356 . S
C894 C891 1.358 . S
C894 H950 0.930 . S
C895 N892 1.314 . S
C895 C893 1.353 . S
C895 H951 0.930 . S
C896 N897 1.314 . S
C896 C901 1.353 . S
C896 H902 0.930 . S
N897 Li880 1.990 . S
N897 C896 1.314 . S
N897 C899 1.279 . S
C898 C899 1.358 . S
C898 C900 1.356 . S
C898 H952 0.930 . S
C899 N897 1.279 . S
C899 C898 1.358 . S
C899 H903 0.930 . S
C900 C898 1.356 . S
C900 C901 1.348 . S
C901 C896 1.353 . S
C901 C900 1.348 . S
C901 H953 0.929 . S
H902 C896 0.930 . S
H903 C899 0.930 . S
C904 N905 1.314 . S
C904 C906 1.353 . S
C904 H910 0.930 . S
N905 Li881 1.990 . S
N905 C904 1.314 . S
N905 C908 1.279 . S
C906 C904 1.353 . S
C906 C909 1.348 . S
C906 H954 0.929 . S
C907 C908 1.358 . S
C907 C909 1.356 . S
C907 H955 0.930 . S
C908 N905 1.279 . S
C908 C907 1.358 . S
C908 H911 0.930 . S
C909 C906 1.348 . S
C909 C907 1.356 . S
H910 C904 0.930 . S
H911 C908 0.930 . S
C912 C914 1.348 . S
C912 C915 1.356 . S
C912 O942 1.325 1_556 S
N913 C916 1.314 . S
N913 C917 1.279 . S
C914 C912 1.348 . S
C914 C916 1.353 . S
C914 H956 0.929 . S
C915 C912 1.356 . S
C915 C917 1.358 . S
C915 H957 0.930 . S
C916 N913 1.314 . S
C916 C914 1.353 . S
C916 H958 0.930 . S
C917 N913 1.279 . S
C917 C915 1.358 . S
C917 H959 0.930 . S
C918 C919 1.348 . S
C918 C920 1.356 . S
C918 O943 1.325 . S
C919 C918 1.348 . S
C919 C921 1.353 . S
C919 H960 0.929 . S
C920 C918 1.356 . S
C920 C922 1.358 . S
C920 H961 0.930 . S
C921 C919 1.353 . S
C921 N923 1.314 . S
C921 H962 0.930 . S
C922 C920 1.358 . S
C922 N923 1.279 . S
C922 H963 0.930 . S
N923 C921 1.314 . S
N923 C922 1.279 . S
C924 C926 1.353 . S
C924 N927 1.314 . S
C924 H930 0.930 1_556 S
C925 N927 1.279 . S
C925 C928 1.358 . S
C925 H931 0.930 . S
C926 C924 1.353 . S
C926 C929 1.348 . S
C926 H964 0.929 . S
N927 Li882 1.990 1_556 S
N927 C924 1.314 . S
N927 C925 1.279 . S
C928 C925 1.358 . S
C928 C929 1.356 . S
C928 H965 0.930 . S
C929 C926 1.348 . S
C929 C928 1.356 . S
H930 C924 0.930 1_554 S
H931 C925 0.930 . S
C932 N933 1.314 . S
C932 C934 1.353 . S
C932 H938 0.930 . S
N933 Li883 1.990 . S
N933 C932 1.314 . S
N933 C936 1.279 . S
C934 C932 1.353 . S
C934 C937 1.348 . S
C934 H966 0.929 . S
C935 C936 1.358 . S
C935 C937 1.356 . S
C935 H967 0.930 . S
C936 N933 1.279 . S
C936 C935 1.358 . S
C936 H939 0.930 . S
C937 C934 1.348 . S
C937 C935 1.356 . S
H938 C932 0.930 . S
H939 C936 0.930 . S
O940 Li880 1.956 . S
O940 Li881 1.970 . S
O940 Li882 1.961 . S
O940 C884 1.325 . S
O941 Li880 1.970 . S
O941 Li881 1.956 . S
O941 Li883 1.961 . S
O941 C890 1.325 . S
O942 Li880 1.961 . S
O942 Li882 1.956 . S
O942 Li883 1.970 . S
O942 C912 1.325 1_554 S
O943 Li881 1.961 . S
O943 Li882 1.970 . S
O943 Li883 1.956 . S
O943 C918 1.325 . S
H944 C886 0.929 . S
H945 C887 0.930 . S
H946 C888 0.930 . S
H947 C889 0.930 . S
H948 C891 0.930 . S
H949 C893 0.929 . S
H950 C894 0.930 . S
H951 C895 0.930 . S
H952 C898 0.930 . S
H953 C901 0.929 . S
H954 C906 0.929 . S
H955 C907 0.930 . S
H956 C914 0.929 . S
H957 C915 0.930 . S
H958 C916 0.930 . S
H959 C917 0.930 . S
H960 C919 0.929 . S
H961 C920 0.930 . S
H962 C921 0.930 . S
H963 C922 0.930 . S
H964 C926 0.929 . S
H965 C928 0.930 . S
H966 C934 0.929 . S
H967 C935 0.930 . S
Li968 N985 1.990 . S
Li968 O1028 1.956 . S
Li968 O1029 1.970 . S
Li968 O1030 1.961 . S
Li969 N993 1.990 . S
Li969 O1028 1.970 . S
Li969 O1029 1.956 . S
Li969 O1031 1.961 . S
Li970 N1015 1.990 . S
Li970 O1028 1.961 . S
Li970 O1030 1.956 . S
Li970 O1031 1.970 . S
Li971 N1021 1.990 . S
Li971 O1029 1.961 . S
Li971 O1030 1.970 . S
Li971 O1031 1.956 . S
C972 C974 1.348 . S
C972 C975 1.356 . S
C972 O1028 1.325 . S
N973 C976 1.314 . S
N973 C977 1.279 . S
C974 C972 1.348 . S
C974 C976 1.353 . S
C974 H1032 0.929 . S
C975 C972 1.356 . S
C975 C977 1.358 . S
C975 H1033 0.930 . S
C976 N973 1.314 . S
C976 C974 1.353 . S
C976 H1034 0.930 . S
C977 N973 1.279 . S
C977 C975 1.358 . S
C977 H1035 0.930 . S
C978 C981 1.348 . S
C978 C982 1.356 . S
C978 O1029 1.325 . S
C979 N980 1.279 . S
C979 C982 1.358 . S
C979 H1036 0.930 . S
N980 C979 1.279 . S
N980 C983 1.314 . S
C981 C978 1.348 . S
C981 C983 1.353 . S
C981 H1037 0.929 . S
C982 C978 1.356 . S
C982 C979 1.358 . S
C982 H1038 0.930 . S
C983 N980 1.314 . S
C983 C981 1.353 . S
C983 H1039 0.930 . S
C984 N985 1.314 . S
C984 C989 1.353 . S
C984 H990 0.930 . S
N985 Li968 1.990 . S
N985 C984 1.314 . S
N985 C987 1.279 . S
C986 C987 1.358 . S
C986 C988 1.356 . S
C986 H1040 0.930 . S
C987 N985 1.279 . S
C987 C986 1.358 . S
C987 H991 0.930 . S
C988 C986 1.356 . S
C988 C989 1.348 . S
C989 C984 1.353 . S
C989 C988 1.348 . S
C989 H1041 0.929 . S
H990 C984 0.930 . S
H991 C987 0.930 . S
C992 N993 1.314 . S
C992 C994 1.353 . S
C992 H998 0.930 . S
N993 Li969 1.990 . S
N993 C992 1.314 . S
N993 C996 1.279 . S
C994 C992 1.353 . S
C994 C997 1.348 . S
C994 H1042 0.929 . S
C995 C996 1.358 . S
C995 C997 1.356 . S
C995 H1043 0.930 . S
C996 N993 1.279 . S
C996 C995 1.358 . S
C996 H999 0.930 . S
C997 C994 1.348 . S
C997 C995 1.356 . S
H998 C992 0.930 . S
H999 C996 0.930 . S
C1000 C1002 1.348 . S
C1000 C1003 1.356 . S
C1000 O1030 1.325 . S
N1001 C1004 1.314 . S
N1001 C1005 1.279 . S
C1002 C1000 1.348 . S
C1002 C1004 1.353 . S
C1002 H1044 0.929 . S
C1003 C1000 1.356 . S
C1003 C1005 1.358 . S
C1003 H1045 0.930 . S
C1004 N1001 1.314 . S
C1004 C1002 1.353 . S
C1004 H1046 0.930 . S
C1005 N1001 1.279 . S
C1005 C1003 1.358 . S
C1005 H1047 0.930 . S
C1006 C1007 1.348 . S
C1006 C1008 1.356 . S
C1006 O1031 1.325 . S
C1007 C1006 1.348 . S
C1007 C1009 1.353 . S
C1007 H1048 0.929 . S
C1008 C1006 1.356 . S
C1008 C1010 1.358 . S
C1008 H1049 0.930 . S
C1009 C1007 1.353 . S
C1009 N1011 1.314 . S
C1009 H1050 0.930 . S
C1010 C1008 1.358 . S
C1010 N1011 1.279 . S
C1010 H1051 0.930 . S
N1011 C1009 1.314 . S
N1011 C1010 1.279 . S
C1012 C1014 1.353 . S
C1012 N1015 1.314 . S
C1012 H1018 0.930 . S
C1013 N1015 1.279 . S
C1013 C1016 1.358 . S
C1013 H1019 0.930 . S
C1014 C1012 1.353 . S
C1014 C1017 1.348 . S
C1014 H1052 0.929 . S
N1015 Li970 1.990 . S
N1015 C1012 1.314 . S
N1015 C1013 1.279 . S
C1016 C1013 1.358 . S
C1016 C1017 1.356 . S
C1016 H1053 0.930 . S
C1017 C1014 1.348 . S
C1017 C1016 1.356 . S
H1018 C1012 0.930 . S
H1019 C1013 0.930 . S
C1020 N1021 1.314 . S
C1020 C1022 1.353 . S
C1020 H1026 0.930 . S
N1021 Li971 1.990 . S
N1021 C1020 1.314 . S
N1021 C1024 1.279 . S
C1022 C1020 1.353 . S
C1022 C1025 1.348 . S
C1022 H1054 0.929 . S
C1023 C1024 1.358 . S
C1023 C1025 1.356 . S
C1023 H1055 0.930 . S
C1024 N1021 1.279 . S
C1024 C1023 1.358 . S
C1024 H1027 0.930 . S
C1025 C1022 1.348 . S
C1025 C1023 1.356 . S
H1026 C1020 0.930 . S
H1027 C1024 0.930 . S
O1028 Li968 1.956 . S
O1028 Li969 1.970 . S
O1028 Li970 1.961 . S
O1028 C972 1.325 . S
O1029 Li968 1.970 . S
O1029 Li969 1.956 . S
O1029 Li971 1.961 . S
O1029 C978 1.325 . S
O1030 Li968 1.961 . S
O1030 Li970 1.956 . S
O1030 Li971 1.970 . S
O1030 C1000 1.325 . S
O1031 Li969 1.961 . S
O1031 Li970 1.970 . S
O1031 Li971 1.956 . S
O1031 C1006 1.325 . S
H1032 C974 0.929 . S
H1033 C975 0.930 . S
H1034 C976 0.930 . S
H1035 C977 0.930 . S
H1036 C979 0.930 . S
H1037 C981 0.929 . S
H1038 C982 0.930 . S
H1039 C983 0.930 . S
H1040 C986 0.930 . S
H1041 C989 0.929 . S
H1042 C994 0.929 . S
H1043 C995 0.930 . S
H1044 C1002 0.929 . S
H1045 C1003 0.930 . S
H1046 C1004 0.930 . S
H1047 C1005 0.930 . S
H1048 C1007 0.929 . S
H1049 C1008 0.930 . S
H1050 C1009 0.930 . S
H1051 C1010 0.930 . S
H1052 C1014 0.929 . S
H1053 C1016 0.930 . S
H1054 C1022 0.929 . S
H1055 C1023 0.930 . S
H1056 C1062 0.930 . S
H1057 C1065 0.930 . S
H1058 C1066 0.930 . S
H1059 C1067 0.930 . S
H1060 C1070 0.930 . S
H1061 C1071 0.930 . S
C1062 H1056 0.930 . S
C1062 C1063 1.355 . S
C1062 C1064 1.415 . S
C1063 C1062 1.355 . S
C1063 C1065 1.419 . S
C1064 C1062 1.415 . S
C1064 C1069 1.425 . S
C1064 C1071 1.409 . S
C1065 H1057 0.930 . S
C1065 C1063 1.419 . S
C1065 C1066 1.362 . S
C1066 H1058 0.930 . S
C1066 C1065 1.362 . S
C1066 C1069 1.409 . S
C1067 H1059 0.930 . S
C1067 C1068 1.355 . S
C1067 C1069 1.415 . S
C1068 C1067 1.355 . S
C1068 C1070 1.419 . S
C1069 C1064 1.425 . S
C1069 C1066 1.409 . S
C1069 C1067 1.415 . S
C1070 H1060 0.930 . S
C1070 C1068 1.419 . S
C1070 C1071 1.362 . S
C1071 H1061 0.930 . S
C1071 C1064 1.409 . S
C1071 C1070 1.362 . S
H1072 C1078 0.930 . S
H1073 C1081 0.930 . S
H1074 C1082 0.930 . S
H1075 C1083 0.930 . S
H1076 C1086 0.930 . S
H1077 C1087 0.930 . S
C1078 H1072 0.930 . S
C1078 C1079 1.355 . S
C1078 C1080 1.415 . S
C1079 C1078 1.355 . S
C1079 C1081 1.419 . S
C1080 C1078 1.415 . S
C1080 C1085 1.425 1_455 S
C1080 C1087 1.409 1_455 S
C1081 H1073 0.930 . S
C1081 C1079 1.419 . S
C1081 C1082 1.362 . S
C1082 H1074 0.930 . S
C1082 C1081 1.362 . S
C1082 C1085 1.409 1_455 S
C1083 H1075 0.930 . S
C1083 C1084 1.355 . S
C1083 C1085 1.415 . S
C1084 C1083 1.355 . S
C1084 C1086 1.419 . S
C1085 C1080 1.425 1_655 S
C1085 C1082 1.409 1_655 S
C1085 C1083 1.415 . S
C1086 H1076 0.930 . S
C1086 C1084 1.419 . S
C1086 C1087 1.362 . S
C1087 H1077 0.930 . S
C1087 C1080 1.409 1_655 S
C1087 C1086 1.362 . S
H1088 C1094 0.930 . S
H1089 C1097 0.930 . S
H1090 C1098 0.930 . S
H1091 C1099 0.930 . S
H1092 C1102 0.930 . S
H1093 C1103 0.930 . S
C1094 H1088 0.930 . S
C1094 C1095 1.355 . S
C1094 C1096 1.428 . S
C1095 C1094 1.355 . S
C1095 C1097 1.419 . S
C1096 C1094 1.428 . S
C1096 C1101 1.441 1_565 S
C1096 C1103 1.389 1_565 S
C1097 H1089 0.930 . S
C1097 C1095 1.419 . S
C1097 C1098 1.362 . S
C1098 H1090 0.930 . S
C1098 C1097 1.362 . S
C1098 C1101 1.388 1_565 S
C1099 H1091 0.930 . S
C1099 C1100 1.355 . S
C1099 C1101 1.428 . S
C1100 C1099 1.355 . S
C1100 C1102 1.419 . S
C1101 C1096 1.441 1_545 S
C1101 C1098 1.388 1_545 S
C1101 C1099 1.428 . S
C1102 H1092 0.930 . S
C1102 C1100 1.419 . S
C1102 C1103 1.362 . S
C1103 H1093 0.930 . S
C1103 C1096 1.389 1_545 S
C1103 C1102 1.362 . S
H1104 C1110 0.930 . S
H1105 C1113 0.930 . S
H1106 C1114 0.930 . S
H1107 C1115 0.930 . S
H1108 C1118 0.930 . S
H1109 C1119 0.930 . S
C1110 H1104 0.930 . S
C1110 C1111 1.355 . S
C1110 C1112 1.415 . S
C1111 C1110 1.355 . S
C1111 C1113 1.419 . S
C1112 C1110 1.415 . S
C1112 C1117 1.425 . S
C1112 C1119 1.409 . S
C1113 H1105 0.930 . S
C1113 C1111 1.419 . S
C1113 C1114 1.362 . S
C1114 H1106 0.930 . S
C1114 C1113 1.362 . S
C1114 C1117 1.409 . S
C1115 H1107 0.930 . S
C1115 C1116 1.355 . S
C1115 C1117 1.415 . S
C1116 C1115 1.355 . S
C1116 C1118 1.419 . S
C1117 C1112 1.425 . S
C1117 C1114 1.409 . S
C1117 C1115 1.415 . S
C1118 H1108 0.930 . S
C1118 C1116 1.419 . S
C1118 C1119 1.362 . S
C1119 H1109 0.930 . S
C1119 C1112 1.409 . S
C1119 C1118 1.362 . S
H1120 C1126 0.930 . S
H1121 C1129 0.930 . S
H1122 C1130 0.930 1_655 S
H1123 C1131 0.930 . S
H1124 C1134 0.930 . S
H1125 C1135 0.930 1_455 S
C1126 H1120 0.930 . S
C1126 C1127 1.355 . S
C1126 C1128 1.415 . S
C1127 C1126 1.355 . S
C1127 C1129 1.419 . S
C1128 C1126 1.415 . S
C1128 C1133 1.425 1_455 S
C1128 C1135 1.409 1_455 S
C1129 H1121 0.930 . S
C1129 C1127 1.419 . S
C1129 C1130 1.362 . S
C1130 H1122 0.930 1_455 S
C1130 C1129 1.362 . S
C1130 C1133 1.409 1_455 S
C1131 H1123 0.930 . S
C1131 C1132 1.355 . S
C1131 C1133 1.415 . S
C1132 C1131 1.355 . S
C1132 C1134 1.419 . S
C1133 C1128 1.425 1_655 S
C1133 C1130 1.409 1_655 S
C1133 C1131 1.415 . S
C1134 H1124 0.930 . S
C1134 C1132 1.419 . S
C1134 C1135 1.362 . S
C1135 H1125 0.930 1_655 S
C1135 C1128 1.409 1_655 S
C1135 C1134 1.362 . S
H1136 C1142 0.930 . S
H1137 C1145 0.930 . S
H1138 C1146 0.930 . S
H1139 C1147 0.930 . S
H1140 C1150 0.930 . S
H1141 C1151 0.930 . S
C1142 H1136 0.930 . S
C1142 C1143 1.355 . S
C1142 C1144 1.415 1_545 S
C1143 C1142 1.355 . S
C1143 C1145 1.419 1_556 S
C1144 C1142 1.415 1_565 S
C1144 C1149 1.425 1_566 S
C1144 C1151 1.409 . S
C1145 H1137 0.930 . S
C1145 C1143 1.419 1_554 S
C1145 C1146 1.362 . S
C1146 H1138 0.930 . S
C1146 C1145 1.362 . S
C1146 C1149 1.409 . S
C1147 H1139 0.930 . S
C1147 C1148 1.355 . S
C1147 C1149 1.415 1_565 S
C1148 C1147 1.355 . S
C1148 C1150 1.419 1_554 S
C1149 C1144 1.425 1_544 S
C1149 C1146 1.409 . S
C1149 C1147 1.415 1_545 S
C1150 H1140 0.930 . S
C1150 C1148 1.419 1_556 S
C1150 C1151 1.362 . S
C1151 H1141 0.930 . S
C1151 C1144 1.409 . S
C1151 C1150 1.362 . S
H1152 C1158 0.930 . S
H1153 C1161 0.930 . S
H1154 C1162 0.930 . S
H1155 C1163 0.930 . S
H1156 C1166 0.930 . S
H1157 C1167 0.930 . S
C1158 H1152 0.930 . S
C1158 C1159 1.355 . S
C1158 C1160 1.415 . S
C1159 C1158 1.355 . S
C1159 C1161 1.419 . S
C1160 C1158 1.415 . S
C1160 C1165 1.425 . S
C1160 C1167 1.409 . S
C1161 H1153 0.930 . S
C1161 C1159 1.419 . S
C1161 C1162 1.362 . S
C1162 H1154 0.930 . S
C1162 C1161 1.362 . S
C1162 C1165 1.409 . S
C1163 H1155 0.930 . S
C1163 C1164 1.355 . S
C1163 C1165 1.415 . S
C1164 C1163 1.355 . S
C1164 C1166 1.419 . S
C1165 C1160 1.425 . S
C1165 C1162 1.409 . S
C1165 C1163 1.415 . S
C1166 H1156 0.930 . S
C1166 C1164 1.419 . S
C1166 C1167 1.362 . S
C1167 H1157 0.930 . S
C1167 C1160 1.409 . S
C1167 C1166 1.362 . S
H1168 C1174 0.930 . S
H1169 C1177 0.930 . S
H1170 C1178 0.930 . S
H1171 C1179 0.930 . S
H1172 C1182 0.930 . S
H1173 C1183 0.930 . S
C1174 H1168 0.930 . S
C1174 C1175 1.355 . S
C1174 C1176 1.415 . S
C1175 C1174 1.355 . S
C1175 C1177 1.419 . S
C1176 C1174 1.415 . S
C1176 C1181 1.425 . S
C1176 C1183 1.409 . S
C1177 H1169 0.930 . S
C1177 C1175 1.419 . S
C1177 C1178 1.362 . S
C1178 H1170 0.930 . S
C1178 C1177 1.362 . S
C1178 C1181 1.409 . S
C1179 H1171 0.930 . S
C1179 C1180 1.355 . S
C1179 C1181 1.415 . S
C1180 C1179 1.355 . S
C1180 C1182 1.419 . S
C1181 C1176 1.425 . S
C1181 C1178 1.409 . S
C1181 C1179 1.415 . S
C1182 H1172 0.930 . S
C1182 C1180 1.419 . S
C1182 C1183 1.362 . S
C1183 H1173 0.930 . S
C1183 C1176 1.409 . S
C1183 C1182 1.362 . S
H1184 C1190 0.930 . S
H1185 C1193 0.930 . S
H1186 C1194 0.930 . S
H1187 C1195 0.930 . S
H1188 C1198 0.930 . S
H1189 C1199 0.930 . S
C1190 H1184 0.930 . S
C1190 C1191 1.355 . S
C1190 C1192 1.415 . S
C1191 C1190 1.355 . S
C1191 C1193 1.419 . S
C1192 C1190 1.415 . S
C1192 C1197 1.425 . S
C1192 C1199 1.409 . S
C1193 H1185 0.930 . S
C1193 C1191 1.419 . S
C1193 C1194 1.362 . S
C1194 H1186 0.930 . S
C1194 C1193 1.362 . S
C1194 C1197 1.409 . S
C1195 H1187 0.930 . S
C1195 C1196 1.355 . S
C1195 C1197 1.415 . S
C1196 C1195 1.355 . S
C1196 C1198 1.419 . S
C1197 C1192 1.425 . S
C1197 C1194 1.409 . S
C1197 C1195 1.415 . S
C1198 H1188 0.930 . S
C1198 C1196 1.419 . S
C1198 C1199 1.362 . S
C1199 H1189 0.930 . S
C1199 C1192 1.409 . S
C1199 C1198 1.362 . S
H1200 C1206 0.930 . S
H1201 C1209 0.930 . S
H1202 C1210 0.930 . S
H1203 C1211 0.930 . S
H1204 C1214 0.930 . S
H1205 C1215 0.930 . S
C1206 H1200 0.930 . S
C1206 C1207 1.355 . S
C1206 C1208 1.415 . S
C1207 C1206 1.355 . S
C1207 C1209 1.419 . S
C1208 C1206 1.415 . S
C1208 C1213 1.425 . S
C1208 C1215 1.409 . S
C1209 H1201 0.930 . S
C1209 C1207 1.419 . S
C1209 C1210 1.362 . S
C1210 H1202 0.930 . S
C1210 C1209 1.362 . S
C1210 C1213 1.409 . S
C1211 H1203 0.930 . S
C1211 C1212 1.355 . S
C1211 C1213 1.415 . S
C1212 C1211 1.355 . S
C1212 C1214 1.419 . S
C1213 C1208 1.425 . S
C1213 C1210 1.409 . S
C1213 C1211 1.415 . S
C1214 H1204 0.930 . S
C1214 C1212 1.419 . S
C1214 C1215 1.362 . S
C1215 H1205 0.930 . S
C1215 C1208 1.409 . S
C1215 C1214 1.362 . S
H1216 C1222 0.930 . S
H1217 C1225 0.930 . S
H1218 C1226 0.930 . S
H1219 C1227 0.930 . S
H1220 C1230 0.930 . S
H1221 C1231 0.930 . S
C1222 H1216 0.930 . S
C1222 C1223 1.355 . S
C1222 C1224 1.415 . S
C1223 C1222 1.355 . S
C1223 C1225 1.419 . S
C1224 C1222 1.415 . S
C1224 C1229 1.425 . S
C1224 C1231 1.409 . S
C1225 H1217 0.930 . S
C1225 C1223 1.419 . S
C1225 C1226 1.362 . S
C1226 H1218 0.930 . S
C1226 C1225 1.362 . S
C1226 C1229 1.409 . S
C1227 H1219 0.930 . S
C1227 C1228 1.355 . S
C1227 C1229 1.415 . S
C1228 C1227 1.355 . S
C1228 C1230 1.419 . S
C1229 C1224 1.425 . S
C1229 C1226 1.409 . S
C1229 C1227 1.415 . S
C1230 H1220 0.930 . S
C1230 C1228 1.419 . S
C1230 C1231 1.362 . S
C1231 H1221 0.930 . S
C1231 C1224 1.409 . S
C1231 C1230 1.362 . S
H1232 C1238 0.930 . S
H1233 C1241 0.930 . S
H1234 C1242 0.930 . S
H1235 C1243 0.930 . S
H1236 C1246 0.930 . S
H1237 C1247 0.930 . S
C1238 H1232 0.930 . S
C1238 C1239 1.355 . S
C1238 C1240 1.415 . S
C1239 C1238 1.355 . S
C1239 C1241 1.419 . S
C1240 C1238 1.415 . S
C1240 C1245 1.425 . S
C1240 C1247 1.409 . S
C1241 H1233 0.930 . S
C1241 C1239 1.419 . S
C1241 C1242 1.362 . S
C1242 H1234 0.930 . S
C1242 C1241 1.362 . S
C1242 C1245 1.409 . S
C1243 H1235 0.930 . S
C1243 C1244 1.355 . S
C1243 C1245 1.415 . S
C1244 C1243 1.355 . S
C1244 C1246 1.419 . S
C1245 C1240 1.425 . S
C1245 C1242 1.409 . S
C1245 C1243 1.415 . S
C1246 H1236 0.930 . S
C1246 C1244 1.419 . S
C1246 C1247 1.362 . S
C1247 H1237 0.930 . S
C1247 C1240 1.409 . S
C1247 C1246 1.362 . S
H1248 C1254 0.930 . S
H1249 C1257 0.930 . S
H1250 C1258 0.930 . S
H1251 C1259 0.930 . S
H1252 C1262 0.930 . S
H1253 C1263 0.930 . S
C1254 H1248 0.930 . S
C1254 C1255 1.355 . S
C1254 C1256 1.415 . S
C1255 C1254 1.355 . S
C1255 C1257 1.419 . S
C1256 C1254 1.415 . S
C1256 C1261 1.425 . S
C1256 C1263 1.409 . S
C1257 H1249 0.930 . S
C1257 C1255 1.419 . S
C1257 C1258 1.362 . S
C1258 H1250 0.930 . S
C1258 C1257 1.362 . S
C1258 C1261 1.409 . S
C1259 H1251 0.930 . S
C1259 C1260 1.355 . S
C1259 C1261 1.415 . S
C1260 C1259 1.355 . S
C1260 C1262 1.419 . S
C1261 C1256 1.425 . S
C1261 C1258 1.409 . S
C1261 C1259 1.415 . S
C1262 H1252 0.930 . S
C1262 C1260 1.419 . S
C1262 C1263 1.362 . S
C1263 H1253 0.930 . S
C1263 C1256 1.409 . S
C1263 C1262 1.362 . S
H1264 C1270 0.930 . S
H1265 C1273 0.930 . S
H1266 C1274 0.930 . S
H1267 C1275 0.930 . S
H1268 C1278 0.930 . S
H1269 C1279 0.930 . S
C1270 H1264 0.930 . S
C1270 C1271 1.355 . S
C1270 C1272 1.393 1_655 S
C1271 C1270 1.355 . S
C1271 C1273 1.419 . S
C1272 C1270 1.393 1_455 S
C1272 C1277 1.457 1_455 S
C1272 C1279 1.417 . S
C1273 H1265 0.930 . S
C1273 C1271 1.419 . S
C1273 C1274 1.362 . S
C1274 H1266 0.930 . S
C1274 C1273 1.362 . S
C1274 C1277 1.417 . S
C1275 H1267 0.930 . S
C1275 C1276 1.355 . S
C1275 C1277 1.393 1_455 S
C1276 C1275 1.355 . S
C1276 C1278 1.419 . S
C1277 C1272 1.457 1_655 S
C1277 C1274 1.417 . S
C1277 C1275 1.393 1_655 S
C1278 H1268 0.930 . S
C1278 C1276 1.419 . S
C1278 C1279 1.362 . S
C1279 H1269 0.930 . S
C1279 C1272 1.417 . S
C1279 C1278 1.362 . S
H1280 C1286 0.930 . S
H1281 C1289 0.930 . S
H1282 C1290 0.930 . S
H1283 C1291 0.930 . S
H1284 C1294 0.930 . S
H1285 C1295 0.930 . S
C1286 H1280 0.930 . S
C1286 C1287 1.355 . S
C1286 C1288 1.415 1_554 S
C1287 C1286 1.355 . S
C1287 C1289 1.419 . S
C1288 C1286 1.415 1_556 S
C1288 C1293 1.425 1_566 S
C1288 C1295 1.409 . S
C1289 H1281 0.930 . S
C1289 C1287 1.419 . S
C1289 C1290 1.362 1_565 S
C1290 H1282 0.930 . S
C1290 C1289 1.362 1_545 S
C1290 C1293 1.409 . S
C1291 H1283 0.930 . S
C1291 C1292 1.355 . S
C1291 C1293 1.415 1_556 S
C1292 C1291 1.355 . S
C1292 C1294 1.419 . S
C1293 C1288 1.425 1_544 S
C1293 C1290 1.409 . S
C1293 C1291 1.415 1_554 S
C1294 H1284 0.930 . S
C1294 C1292 1.419 . S
C1294 C1295 1.362 1_545 S
C1295 H1285 0.930 . S
C1295 C1288 1.409 . S
C1295 C1294 1.362 1_565 S
H1296 C1302 0.930 . S
H1297 C1305 0.930 . S
H1298 C1306 0.930 . S
H1299 C1307 0.930 . S
H1300 C1310 0.930 . S
H1301 C1311 0.930 . S
C1302 H1296 0.930 . S
C1302 C1303 1.355 . S
C1302 C1304 1.415 . S
C1303 C1302 1.355 . S
C1303 C1305 1.419 . S
C1304 C1302 1.415 . S
C1304 C1309 1.425 . S
C1304 C1311 1.409 . S
C1305 H1297 0.930 . S
C1305 C1303 1.419 . S
C1305 C1306 1.362 . S
C1306 H1298 0.930 . S
C1306 C1305 1.362 . S
C1306 C1309 1.409 . S
C1307 H1299 0.930 . S
C1307 C1308 1.355 . S
C1307 C1309 1.415 . S
C1308 C1307 1.355 . S
C1308 C1310 1.419 . S
C1309 C1304 1.425 . S
C1309 C1306 1.409 . S
C1309 C1307 1.415 . S
C1310 H1300 0.930 . S
C1310 C1308 1.419 . S
C1310 C1311 1.362 . S
C1311 H1301 0.930 . S
C1311 C1304 1.409 . S
C1311 C1310 1.362 . S
H1312 C1318 0.929 1_655 S
H1313 C1321 0.930 . S
H1314 C1322 0.930 . S
H1315 C1323 0.929 1_455 S
H1316 C1326 0.930 . S
H1317 C1327 0.930 . S
C1318 H1312 0.929 1_455 S
C1318 C1319 1.355 . S
C1318 C1320 1.415 1_455 S
C1319 C1318 1.355 . S
C1319 C1321 1.419 . S
C1320 C1318 1.415 1_655 S
C1320 C1325 1.425 1_655 S
C1320 C1327 1.409 . S
C1321 H1313 0.930 . S
C1321 C1319 1.419 . S
C1321 C1322 1.362 . S
C1322 H1314 0.930 . S
C1322 C1321 1.362 . S
C1322 C1325 1.409 . S
C1323 H1315 0.929 1_655 S
C1323 C1324 1.355 . S
C1323 C1325 1.415 1_655 S
C1324 C1323 1.355 . S
C1324 C1326 1.419 . S
C1325 C1320 1.425 1_455 S
C1325 C1322 1.409 . S
C1325 C1323 1.415 1_455 S
C1326 H1316 0.930 . S
C1326 C1324 1.419 . S
C1326 C1327 1.362 . S
C1327 H1317 0.930 . S
C1327 C1320 1.409 . S
C1327 C1326 1.362 . S
H1328 C1334 0.930 . S
H1329 C1337 0.930 . S
H1330 C1338 0.930 . S
H1331 C1339 0.930 . S
H1332 C1342 0.930 . S
H1333 C1343 0.930 . S
C1334 H1328 0.930 . S
C1334 C1335 1.355 . S
C1334 C1336 1.415 1_565 S
C1335 C1334 1.355 . S
C1335 C1337 1.419 . S
C1336 C1334 1.415 1_545 S
C1336 C1341 1.425 1_545 S
C1336 C1343 1.409 . S
C1337 H1329 0.930 . S
C1337 C1335 1.419 . S
C1337 C1338 1.362 . S
C1338 H1330 0.930 . S
C1338 C1337 1.362 . S
C1338 C1341 1.409 . S
C1339 H1331 0.930 . S
C1339 C1340 1.355 . S
C1339 C1341 1.415 1_545 S
C1340 C1339 1.355 . S
C1340 C1342 1.419 . S
C1341 C1336 1.425 1_565 S
C1341 C1338 1.409 . S
C1341 C1339 1.415 1_565 S
C1342 H1332 0.930 . S
C1342 C1340 1.419 . S
C1342 C1343 1.362 . S
C1343 H1333 0.930 . S
C1343 C1336 1.409 . S
C1343 C1342 1.362 . S
H1344 C1350 0.930 . S
H1345 C1353 0.930 . S
H1346 C1354 0.930 . S
H1347 C1355 0.930 . S
H1348 C1358 0.930 . S
H1349 C1359 0.930 . S
C1350 H1344 0.930 . S
C1350 C1351 1.355 . S
C1350 C1352 1.415 . S
C1351 C1350 1.355 . S
C1351 C1353 1.419 . S
C1352 C1350 1.415 . S
C1352 C1357 1.425 . S
C1352 C1359 1.409 . S
C1353 H1345 0.930 . S
C1353 C1351 1.419 . S
C1353 C1354 1.362 . S
C1354 H1346 0.930 . S
C1354 C1353 1.362 . S
C1354 C1357 1.409 . S
C1355 H1347 0.930 . S
C1355 C1356 1.355 . S
C1355 C1357 1.415 . S
C1356 C1355 1.355 . S
C1356 C1358 1.419 . S
C1357 C1352 1.425 . S
C1357 C1354 1.409 . S
C1357 C1355 1.415 . S
C1358 H1348 0.930 . S
C1358 C1356 1.419 . S
C1358 C1359 1.362 . S
C1359 H1349 0.930 . S
C1359 C1352 1.409 . S
C1359 C1358 1.362 . S
H1360 C1366 0.930 . S
H1361 C1369 0.930 . S
H1362 C1370 0.930 . S
H1363 C1371 0.930 . S
H1364 C1374 0.930 . S
H1365 C1375 0.930 . S
C1366 H1360 0.930 . S
C1366 C1367 1.355 . S
C1366 C1368 1.415 . S
C1367 C1366 1.355 . S
C1367 C1369 1.419 . S
C1368 C1366 1.415 . S
C1368 C1373 1.425 . S
C1368 C1375 1.409 . S
C1369 H1361 0.930 . S
C1369 C1367 1.419 . S
C1369 C1370 1.362 . S
C1370 H1362 0.930 . S
C1370 C1369 1.362 . S
C1370 C1373 1.409 . S
C1371 H1363 0.930 . S
C1371 C1372 1.355 . S
C1371 C1373 1.415 . S
C1372 C1371 1.355 . S
C1372 C1374 1.419 . S
C1373 C1368 1.425 . S
C1373 C1370 1.409 . S
C1373 C1371 1.415 . S
C1374 H1364 0.930 . S
C1374 C1372 1.419 . S
C1374 C1375 1.362 . S
C1375 H1365 0.930 . S
C1375 C1368 1.409 . S
C1375 C1374 1.362 . S
H1376 C1382 0.930 . S
H1377 C1385 0.930 1_554 S
H1378 C1386 0.930 . S
H1379 C1387 0.930 . S
H1380 C1390 0.930 . S
H1381 C1391 0.930 . S
C1382 H1376 0.930 . S
C1382 C1383 1.355 . S
C1382 C1384 1.415 . S
C1383 C1382 1.355 . S
C1383 C1385 1.419 . S
C1384 C1382 1.415 . S
C1384 C1389 1.425 . S
C1384 C1391 1.409 . S
C1385 H1377 0.930 1_556 S
C1385 C1383 1.419 . S
C1385 C1386 1.362 . S
C1386 H1378 0.930 . S
C1386 C1385 1.362 . S
C1386 C1389 1.409 . S
C1387 H1379 0.930 . S
C1387 C1388 1.355 . S
C1387 C1389 1.415 . S
C1388 C1387 1.355 . S
C1388 C1390 1.419 . S
C1389 C1384 1.425 . S
C1389 C1386 1.409 . S
C1389 C1387 1.415 . S
C1390 H1380 0.930 . S
C1390 C1388 1.419 . S
C1390 C1391 1.362 . S
C1391 H1381 0.930 . S
C1391 C1384 1.409 . S
C1391 C1390 1.362 . S
H1392 C1398 0.930 . S
H1393 C1401 0.930 . S
H1394 C1402 0.930 . S
H1395 C1403 0.930 . S
H1396 C1406 0.930 1_556 S
H1397 C1407 0.930 . S
C1398 H1392 0.930 . S
C1398 C1399 1.355 . S
C1398 C1400 1.415 . S
C1399 C1398 1.355 . S
C1399 C1401 1.419 . S
C1400 C1398 1.415 . S
C1400 C1405 1.425 . S
C1400 C1407 1.409 . S
C1401 H1393 0.930 . S
C1401 C1399 1.419 . S
C1401 C1402 1.362 . S
C1402 H1394 0.930 . S
C1402 C1401 1.362 . S
C1402 C1405 1.409 . S
C1403 H1395 0.930 . S
C1403 C1404 1.355 . S
C1403 C1405 1.415 . S
C1404 C1403 1.355 . S
C1404 C1406 1.419 . S
C1405 C1400 1.425 . S
C1405 C1402 1.409 . S
C1405 C1403 1.415 . S
C1406 H1396 0.930 1_554 S
C1406 C1404 1.419 . S
C1406 C1407 1.362 . S
C1407 H1397 0.930 . S
C1407 C1400 1.409 . S
C1407 C1406 1.362 . S
H1408 C1414 0.930 . S
H1409 C1417 0.930 . S
H1410 C1418 0.930 . S
H1411 C1419 0.930 . S
H1412 C1422 0.930 . S
H1413 C1423 0.930 . S
C1414 H1408 0.930 . S
C1414 C1415 1.355 . S
C1414 C1416 1.415 . S
C1415 C1414 1.355 . S
C1415 C1417 1.419 . S
C1416 C1414 1.415 . S
C1416 C1421 1.425 . S
C1416 C1423 1.409 . S
C1417 H1409 0.930 . S
C1417 C1415 1.419 . S
C1417 C1418 1.362 . S
C1418 H1410 0.930 . S
C1418 C1417 1.362 . S
C1418 C1421 1.409 . S
C1419 H1411 0.930 . S
C1419 C1420 1.355 . S
C1419 C1421 1.415 . S
C1420 C1419 1.355 . S
C1420 C1422 1.419 . S
C1421 C1416 1.425 . S
C1421 C1418 1.409 . S
C1421 C1419 1.415 . S
C1422 H1412 0.930 . S
C1422 C1420 1.419 . S
C1422 C1423 1.362 . S
C1423 H1413 0.930 . S
C1423 C1416 1.409 . S
C1423 C1422 1.362 . S
H1424 C1430 0.930 . S
H1425 C1433 0.930 . S
H1426 C1434 0.930 . S
H1427 C1435 0.930 . S
H1428 C1438 0.930 . S
H1429 C1439 0.930 . S
C1430 H1424 0.930 . S
C1430 C1431 1.355 . S
C1430 C1432 1.415 . S
C1431 C1430 1.355 . S
C1431 C1433 1.419 . S
C1432 C1430 1.415 . S
C1432 C1437 1.425 . S
C1432 C1439 1.409 . S
C1433 H1425 0.930 . S
C1433 C1431 1.419 . S
C1433 C1434 1.362 . S
C1434 H1426 0.930 . S
C1434 C1433 1.362 . S
C1434 C1437 1.409 . S
C1435 H1427 0.930 . S
C1435 C1436 1.355 . S
C1435 C1437 1.415 . S
C1436 C1435 1.355 . S
C1436 C1438 1.419 . S
C1437 C1432 1.425 . S
C1437 C1434 1.409 . S
C1437 C1435 1.415 . S
C1438 H1428 0.930 . S
C1438 C1436 1.419 . S
C1438 C1439 1.362 . S
C1439 H1429 0.930 . S
C1439 C1432 1.409 . S
C1439 C1438 1.362 . S
C1063 C821 1.815 . S
C1068 C57 1.816 . S
C1079 C137 1.774 . S
C1084 C909 1.807 . S
C1095 C988 1.809 . S
C1100 C225 1.777 . S
C1111 C548 1.812 . S
C1116 C321 1.818 . S
C1127 C636 1.765 . S
C1132 C409 1.798 . S
C1143 C733 1.812 . S
C1148 C497 1.818 . S
C1159 C557 1.529 . S
C1164 C49 1.555 . S
C1175 C145 1.536 . S
C1180 C645 1.544 . S
C1191 C724 1.559 . S
C1196 C233 1.528 . S
C1207 C313 1.528 . S
C1212 C812 1.558 . S
C1223 C900 1.563 . S
C1228 C401 1.530 . S
C1239 C489 1.545 . S
C1244 C997 1.536 . S
C1255 C841 0.542 . S
C1260 C20 0.532 . S
C1271 C929 0.571 . S
C1276 C117 0.517 . S
C1287 C1025 0.564 . S
C1292 C205 0.588 . S
C1303 C284 0.592 . S
C1308 C585 0.555 . S
C1319 C673 0.546 . S
C1324 C372 0.528 . S
C1335 C460 0.517 . S
C1340 C753 0.581 . S
C1351 C29 1.846 . S
C1356 C761 1.846 . S
C1367 C849 1.781 . S
C1372 C108 1.781 . S
C1383 C937 1.860 1_556 S
C1388 C196 1.860 . S
C1399 C1017 1.830 . S
C1404 C293 1.830 1_554 S
C1415 C577 1.780 . S
C1420 C381 1.780 . S
C1431 C665 1.860 . S
C1436 C469 1.860 . S
