# Generated by pormake.
# Topology ato, (4)-cn, num edge types: 1
# Building blocks:
#     Node 0, Type 0, BuildingBlock: QUQFOY_clean_sbu_3, # of connection points: 4
#     Node 1, Type 0, BuildingBlock: QUQFOY_clean_sbu_3, # of connection points: 4
#     Node 2, Type 0, BuildingBlock: QUQFOY_clean_sbu_3, # of connection points: 4
#     Node 3, Type 0, BuildingBlock: QUQFOY_clean_sbu_3, # of connection points: 4
#     Node 4, Type 0, BuildingBlock: QUQFOY_clean_sbu_3, # of connection points: 4
#     Node 5, Type 0, BuildingBlock: QUQFOY_clean_sbu_3, # of connection points: 4
#     Node 6, Type 0, BuildingBlock: QUQFOY_clean_sbu_3, # of connection points: 4
#     Node 7, Type 0, BuildingBlock: QUQFOY_clean_sbu_3, # of connection points: 4
#     Node 8, Type 0, BuildingBlock: QUQFOY_clean_sbu_3, # of connection points: 4
#     Node 9, Type 0, BuildingBlock: QUQFOY_clean_sbu_3, # of connection points: 4
#     Node 10, Type 0, BuildingBlock: QUQFOY_clean_sbu_3, # of connection points: 4
#     Node 11, Type 0, BuildingBlock: QUQFOY_clean_sbu_3, # of connection points: 4
#     Node 12, Type 0, BuildingBlock: QUQFOY_clean_sbu_3, # of connection points: 4
#     Node 13, Type 0, BuildingBlock: QUQFOY_clean_sbu_3, # of connection points: 4
#     Node 14, Type 0, BuildingBlock: QUQFOY_clean_sbu_3, # of connection points: 4
#     Node 15, Type 0, BuildingBlock: QUQFOY_clean_sbu_3, # of connection points: 4
#     Node 16, Type 0, BuildingBlock: QUQFOY_clean_sbu_3, # of connection points: 4
#     Node 17, Type 0, BuildingBlock: QUQFOY_clean_sbu_3, # of connection points: 4
#     Node 18, Type 0, BuildingBlock: QUQFOY_clean_sbu_3, # of connection points: 4
#     Node 19, Type 0, BuildingBlock: QUQFOY_clean_sbu_3, # of connection points: 4
#     Node 20, Type 0, BuildingBlock: QUQFOY_clean_sbu_3, # of connection points: 4
#     Node 21, Type 0, BuildingBlock: QUQFOY_clean_sbu_3, # of connection points: 4
#     Node 22, Type 0, BuildingBlock: QUQFOY_clean_sbu_3, # of connection points: 4
#     Node 23, Type 0, BuildingBlock: QUQFOY_clean_sbu_3, # of connection points: 4
#     Node 24, Type 0, BuildingBlock: QUQFOY_clean_sbu_3, # of connection points: 4
#     Node 25, Type 0, BuildingBlock: QUQFOY_clean_sbu_3, # of connection points: 4
#     Node 26, Type 0, BuildingBlock: QUQFOY_clean_sbu_3, # of connection points: 4
#     Node 27, Type 0, BuildingBlock: QUQFOY_clean_sbu_3, # of connection points: 4
#     Node 28, Type 0, BuildingBlock: QUQFOY_clean_sbu_3, # of connection points: 4
#     Node 29, Type 0, BuildingBlock: QUQFOY_clean_sbu_3, # of connection points: 4
#     Node 30, Type 0, BuildingBlock: QUQFOY_clean_sbu_3, # of connection points: 4
#     Node 31, Type 0, BuildingBlock: QUQFOY_clean_sbu_3, # of connection points: 4
#     Node 32, Type 0, BuildingBlock: QUQFOY_clean_sbu_3, # of connection points: 4
#     Node 33, Type 0, BuildingBlock: QUQFOY_clean_sbu_3, # of connection points: 4
#     Node 34, Type 0, BuildingBlock: QUQFOY_clean_sbu_3, # of connection points: 4
#     Node 35, Type 0, BuildingBlock: QUQFOY_clean_sbu_3, # of connection points: 4
#     Edge 36, Type (0, 0), BuildingBlock: ZUJKAS_clean_linker_0, # of connection points: 2
#     Edge 37, Type (0, 0), BuildingBlock: ZUJKAS_clean_linker_0, # of connection points: 2
#     Edge 38, Type (0, 0), BuildingBlock: ZUJKAS_clean_linker_0, # of connection points: 2
#     Edge 39, Type (0, 0), BuildingBlock: ZUJKAS_clean_linker_0, # of connection points: 2
#     Edge 40, Type (0, 0), BuildingBlock: ZUJKAS_clean_linker_0, # of connection points: 2
#     Edge 41, Type (0, 0), BuildingBlock: ZUJKAS_clean_linker_0, # of connection points: 2
#     Edge 42, Type (0, 0), BuildingBlock: ZUJKAS_clean_linker_0, # of connection points: 2
#     Edge 43, Type (0, 0), BuildingBlock: ZUJKAS_clean_linker_0, # of connection points: 2
#     Edge 44, Type (0, 0), BuildingBlock: ZUJKAS_clean_linker_0, # of connection points: 2
#     Edge 45, Type (0, 0), BuildingBlock: ZUJKAS_clean_linker_0, # of connection points: 2
#     Edge 46, Type (0, 0), BuildingBlock: ZUJKAS_clean_linker_0, # of connection points: 2
#     Edge 47, Type (0, 0), BuildingBlock: ZUJKAS_clean_linker_0, # of connection points: 2
#     Edge 48, Type (0, 0), BuildingBlock: ZUJKAS_clean_linker_0, # of connection points: 2
#     Edge 49, Type (0, 0), BuildingBlock: ZUJKAS_clean_linker_0, # of connection points: 2
#     Edge 50, Type (0, 0), BuildingBlock: ZUJKAS_clean_linker_0, # of connection points: 2
#     Edge 51, Type (0, 0), BuildingBlock: ZUJKAS_clean_linker_0, # of connection points: 2
#     Edge 52, Type (0, 0), BuildingBlock: ZUJKAS_clean_linker_0, # of connection points: 2
#     Edge 53, Type (0, 0), BuildingBlock: ZUJKAS_clean_linker_0, # of connection points: 2
#     Edge 54, Type (0, 0), BuildingBlock: ZUJKAS_clean_linker_0, # of connection points: 2
#     Edge 55, Type (0, 0), BuildingBlock: ZUJKAS_clean_linker_0, # of connection points: 2
#     Edge 56, Type (0, 0), BuildingBlock: ZUJKAS_clean_linker_0, # of connection points: 2
#     Edge 57, Type (0, 0), BuildingBlock: ZUJKAS_clean_linker_0, # of connection points: 2
#     Edge 58, Type (0, 0), BuildingBlock: ZUJKAS_clean_linker_0, # of connection points: 2
#     Edge 59, Type (0, 0), BuildingBlock: ZUJKAS_clean_linker_0, # of connection points: 2
#     Edge 60, Type (0, 0), BuildingBlock: ZUJKAS_clean_linker_0, # of connection points: 2
#     Edge 61, Type (0, 0), BuildingBlock: ZUJKAS_clean_linker_0, # of connection points: 2
#     Edge 62, Type (0, 0), BuildingBlock: ZUJKAS_clean_linker_0, # of connection points: 2
#     Edge 63, Type (0, 0), BuildingBlock: ZUJKAS_clean_linker_0, # of connection points: 2
#     Edge 64, Type (0, 0), BuildingBlock: ZUJKAS_clean_linker_0, # of connection points: 2
#     Edge 65, Type (0, 0), BuildingBlock: ZUJKAS_clean_linker_0, # of connection points: 2
#     Edge 66, Type (0, 0), BuildingBlock: ZUJKAS_clean_linker_0, # of connection points: 2
#     Edge 67, Type (0, 0), BuildingBlock: ZUJKAS_clean_linker_0, # of connection points: 2
#     Edge 68, Type (0, 0), BuildingBlock: ZUJKAS_clean_linker_0, # of connection points: 2
#     Edge 69, Type (0, 0), BuildingBlock: ZUJKAS_clean_linker_0, # of connection points: 2
#     Edge 70, Type (0, 0), BuildingBlock: ZUJKAS_clean_linker_0, # of connection points: 2
#     Edge 71, Type (0, 0), BuildingBlock: ZUJKAS_clean_linker_0, # of connection points: 2
#     Edge 72, Type (0, 0), BuildingBlock: ZUJKAS_clean_linker_0, # of connection points: 2
#     Edge 73, Type (0, 0), BuildingBlock: ZUJKAS_clean_linker_0, # of connection points: 2
#     Edge 74, Type (0, 0), BuildingBlock: ZUJKAS_clean_linker_0, # of connection points: 2
#     Edge 75, Type (0, 0), BuildingBlock: ZUJKAS_clean_linker_0, # of connection points: 2
#     Edge 76, Type (0, 0), BuildingBlock: ZUJKAS_clean_linker_0, # of connection points: 2
#     Edge 77, Type (0, 0), BuildingBlock: ZUJKAS_clean_linker_0, # of connection points: 2
#     Edge 78, Type (0, 0), BuildingBlock: ZUJKAS_clean_linker_0, # of connection points: 2
#     Edge 79, Type (0, 0), BuildingBlock: ZUJKAS_clean_linker_0, # of connection points: 2
#     Edge 80, Type (0, 0), BuildingBlock: ZUJKAS_clean_linker_0, # of connection points: 2
#     Edge 81, Type (0, 0), BuildingBlock: ZUJKAS_clean_linker_0, # of connection points: 2
#     Edge 82, Type (0, 0), BuildingBlock: ZUJKAS_clean_linker_0, # of connection points: 2
#     Edge 83, Type (0, 0), BuildingBlock: ZUJKAS_clean_linker_0, # of connection points: 2
#     Edge 84, Type (0, 0), BuildingBlock: ZUJKAS_clean_linker_0, # of connection points: 2
#     Edge 85, Type (0, 0), BuildingBlock: ZUJKAS_clean_linker_0, # of connection points: 2
#     Edge 86, Type (0, 0), BuildingBlock: ZUJKAS_clean_linker_0, # of connection points: 2
#     Edge 87, Type (0, 0), BuildingBlock: ZUJKAS_clean_linker_0, # of connection points: 2
#     Edge 88, Type (0, 0), BuildingBlock: ZUJKAS_clean_linker_0, # of connection points: 2
#     Edge 89, Type (0, 0), BuildingBlock: ZUJKAS_clean_linker_0, # of connection points: 2
#     Edge 90, Type (0, 0), BuildingBlock: ZUJKAS_clean_linker_0, # of connection points: 2
#     Edge 91, Type (0, 0), BuildingBlock: ZUJKAS_clean_linker_0, # of connection points: 2
#     Edge 92, Type (0, 0), BuildingBlock: ZUJKAS_clean_linker_0, # of connection points: 2
#     Edge 93, Type (0, 0), BuildingBlock: ZUJKAS_clean_linker_0, # of connection points: 2
#     Edge 94, Type (0, 0), BuildingBlock: ZUJKAS_clean_linker_0, # of connection points: 2
#     Edge 95, Type (0, 0), BuildingBlock: ZUJKAS_clean_linker_0, # of connection points: 2
#     Edge 96, Type (0, 0), BuildingBlock: ZUJKAS_clean_linker_0, # of connection points: 2
#     Edge 97, Type (0, 0), BuildingBlock: ZUJKAS_clean_linker_0, # of connection points: 2
#     Edge 98, Type (0, 0), BuildingBlock: ZUJKAS_clean_linker_0, # of connection points: 2
#     Edge 99, Type (0, 0), BuildingBlock: ZUJKAS_clean_linker_0, # of connection points: 2
#     Edge 100, Type (0, 0), BuildingBlock: ZUJKAS_clean_linker_0, # of connection points: 2
#     Edge 101, Type (0, 0), BuildingBlock: ZUJKAS_clean_linker_0, # of connection points: 2
#     Edge 102, Type (0, 0), BuildingBlock: ZUJKAS_clean_linker_0, # of connection points: 2
#     Edge 103, Type (0, 0), BuildingBlock: ZUJKAS_clean_linker_0, # of connection points: 2
#     Edge 104, Type (0, 0), BuildingBlock: ZUJKAS_clean_linker_0, # of connection points: 2
#     Edge 105, Type (0, 0), BuildingBlock: ZUJKAS_clean_linker_0, # of connection points: 2
#     Edge 106, Type (0, 0), BuildingBlock: ZUJKAS_clean_linker_0, # of connection points: 2
#     Edge 107, Type (0, 0), BuildingBlock: ZUJKAS_clean_linker_0, # of connection points: 2
# Relax obj value: 0.073
# Max RMSD: 0.087
# Mean RMSD: 0.087
data_MOF--net-ato--node1-QUQFOY_clean_sbu_3--edge1-ZUJKAS_clean_linker_0
_symmetry_space_group_name_H-M    P1
_symmetry_Int_Tables_number       1
_symmetry_cell_setting            triclinic
loop_
_symmetry_equiv_pos_as_xyz
'x, y, z'
_cell_length_a     135.53352
_cell_length_b     135.60904
_cell_length_c     31.615918
_cell_angle_alpha  90.009345
_cell_angle_beta   89.958462
_cell_angle_gamma 119.95509
loop_
_atom_site_label
_atom_site_type_symbol
_atom_site_fract_x
_atom_site_fract_y
_atom_site_fract_z
_atom_type_partial_charge
C0 C 0.23159 0.0664 0.23524 0.0
O1 O 0.23163 0.06631 0.19507 0.0
Cd2 Cd 0.23826 0.05634 0.15196 0.0
O3 O 0.23491 0.06058 0.25627 0.0
Cd4 Cd 0.2414 0.04683 0.24114 0.0
C5 C 0.26529 0.0668 0.19264 0.0
O6 O 0.22924 0.03768 0.18059 0.0
O7 O 0.24231 0.03337 0.19213 0.0
O8 O 0.2288 0.03545 0.2975 0.0
C9 C 0.23375 0.03178 0.1706 0.0
O10 O 0.25889 0.06578 0.16147 0.0
C11 C 0.23604 0.03371 0.31646 0.0
O12 O 0.26108 0.06146 0.2271 0.0
O13 O 0.24604 0.03845 0.30106 0.0
C14 C 0.9191 0.16255 0.23529 0.0
O15 O 0.91942 0.16247 0.19515 0.0
Cd16 Cd 0.93001 0.17865 0.15129 0.0
O17 O 0.92509 0.17174 0.25588 0.0
Cd18 Cd 0.93961 0.19179 0.23946 0.0
C19 C 0.92012 0.19601 0.18808 0.0
O20 O 0.94858 0.18751 0.1815 0.0
O21 O 0.95418 0.20527 0.19084 0.0
O22 O 0.95027 0.19086 0.29928 0.0
C23 C 0.95524 0.19774 0.17101 0.0
O24 O 0.92046 0.18981 0.15852 0.0
C25 C 0.95192 0.20004 0.31627 0.0
O26 O 0.92597 0.19784 0.22163 0.0
O27 O 0.94754 0.20529 0.29801 0.0
C28 C 0.8234 0.75523 0.23121 0.0
O29 O 0.82302 0.75556 0.19112 0.0
Cd30 Cd 0.80629 0.75002 0.14996 0.0
O31 O 0.81443 0.75191 0.25334 0.0
Cd32 Cd 0.79414 0.74579 0.24037 0.0
C33 C 0.78948 0.72252 0.18461 0.0
O34 O 0.79752 0.75931 0.1843 0.0
O35 O 0.77995 0.74677 0.19487 0.0
O36 O 0.79538 0.75673 0.30274 0.0
C37 C 0.78717 0.75557 0.17516 0.0
O38 O 0.7948 0.72928 0.15421 0.0
C39 C 0.7863 0.74904 0.31977 0.0
O40 O 0.78862 0.72634 0.2204 0.0
O41 O 0.78095 0.73961 0.3003 0.0
C42 C 0.06353 0.23563 0.74588 0.0
O43 O 0.06271 0.235 0.78594 0.0
Cd44 Cd 0.05068 0.23927 0.82813 0.0
O45 O 0.05748 0.23852 0.7241 0.0
Cd46 Cd 0.0423 0.2432 0.73805 0.0
C47 C 0.05974 0.26664 0.79524 0.0
O48 O 0.03271 0.22934 0.79387 0.0
O49 O 0.02693 0.24135 0.78391 0.0
O50 O 0.03262 0.23199 0.67628 0.0
C51 C 0.02574 0.23263 0.80319 0.0
O52 O 0.05869 0.2599 0.8252 0.0
C53 C 0.03082 0.23944 0.65945 0.0
O54 O 0.05529 0.26281 0.75917 0.0
O55 O 0.03477 0.24891 0.67856 0.0
C56 C 0.74996 0.82561 0.74291 0.0
O57 O 0.75007 0.8255 0.78308 0.0
Cd58 Cd 0.74505 0.8093 0.82672 0.0
O59 O 0.74729 0.8166 0.72185 0.0
Cd60 Cd 0.74221 0.79671 0.73802 0.0
C61 C 0.71809 0.79123 0.78957 0.0
O62 O 0.75524 0.80089 0.79693 0.0
O63 O 0.74319 0.78315 0.78634 0.0
O64 O 0.75405 0.79767 0.67886 0.0
C65 C 0.75166 0.79061 0.80686 0.0
O66 O 0.72444 0.79711 0.82007 0.0
C67 C 0.74658 0.78851 0.66161 0.0
O68 O 0.72239 0.79024 0.75512 0.0
O69 O 0.73687 0.78331 0.67928 0.0
C70 C 0.16404 0.92196 0.76426 0.0
O71 O 0.16638 0.92326 0.80346 0.0
Cd72 Cd 0.18342 0.93766 0.83565 0.0
O73 O 0.17128 0.9284 0.73675 0.0
Cd74 Cd 0.19135 0.94408 0.7395 0.0
C75 C 0.20103 0.92902 0.79429 0.0
O76 O 0.18865 0.95451 0.79616 0.0
O77 O 0.20604 0.96078 0.77761 0.0
O78 O 0.18793 0.95249 0.67725 0.0
C79 C 0.19901 0.96201 0.80021 0.0
O80 O 0.19686 0.93091 0.82729 0.0
C81 C 0.19663 0.95381 0.6572 0.0
O82 O 0.1995 0.93208 0.75794 0.0
O83 O 0.20259 0.95014 0.67481 0.0
C84 C 0.75248 0.92249 0.74537 0.0
O85 O 0.75263 0.92216 0.7855 0.0
Cd86 Cd 0.74656 0.93189 0.83224 0.0
O87 O 0.7494 0.92879 0.72631 0.0
Cd88 Cd 0.74389 0.94308 0.7469 0.0
C89 C 0.71969 0.92314 0.79413 0.0
O90 O 0.7564 0.95107 0.80776 0.0
O91 O 0.74413 0.95658 0.79847 0.0
O92 O 0.75591 0.95523 0.69039 0.0
C93 C 0.75248 0.95739 0.81929 0.0
O94 O 0.7259 0.92283 0.82368 0.0
C95 C 0.74827 0.95673 0.67347 0.0
O96 O 0.72408 0.92945 0.76183 0.0
O97 O 0.73844 0.95162 0.69021 0.0
C98 C 0.05915 0.82364 0.75452 0.0
O99 O 0.05729 0.8231 0.79399 0.0
Cd100 Cd 0.04875 0.80548 0.83126 0.0
O101 O 0.05521 0.81465 0.73215 0.0
Cd102 Cd 0.04158 0.79402 0.74183 0.0
C103 C 0.06248 0.79192 0.7895 0.0
O104 O 0.03036 0.79422 0.80104 0.0
O105 O 0.02928 0.77807 0.78781 0.0
O106 O 0.02864 0.79404 0.68986 0.0
C107 C 0.0257 0.78365 0.80868 0.0
O108 O 0.0611 0.79721 0.82018 0.0
C109 C 0.02924 0.78707 0.66478 0.0
O110 O 0.05659 0.78973 0.7559 0.0
O111 O 0.03596 0.78345 0.67483 0.0
C112 C 0.16194 0.23811 0.75204 0.0
O113 O 0.16217 0.23797 0.79219 0.0
Cd114 Cd 0.17819 0.24191 0.83504 0.0
O115 O 0.17073 0.24025 0.73041 0.0
Cd116 Cd 0.19031 0.24406 0.74498 0.0
C117 C 0.19771 0.26845 0.79844 0.0
O118 O 0.18541 0.23082 0.80344 0.0
O119 O 0.20334 0.24157 0.79105 0.0
O120 O 0.18851 0.23221 0.68471 0.0
C121 C 0.19556 0.23355 0.81237 0.0
O122 O 0.19133 0.26235 0.8285 0.0
C123 C 0.19769 0.23953 0.66704 0.0
O124 O 0.19849 0.26398 0.76413 0.0
O125 O 0.20331 0.24913 0.68519 0.0
C126 C 0.91992 0.75467 0.23166 0.0
O127 O 0.91995 0.75411 0.19158 0.0
Cd128 Cd 0.92921 0.74622 0.15097 0.0
O129 O 0.9255 0.75129 0.25387 0.0
Cd130 Cd 0.93838 0.74362 0.24013 0.0
C131 C 0.91779 0.71956 0.19558 0.0
O132 O 0.9481 0.75423 0.17701 0.0
O133 O 0.94982 0.73958 0.19129 0.0
O134 O 0.95314 0.75691 0.28645 0.0
C135 C 0.95272 0.74832 0.16861 0.0
O136 O 0.91895 0.72574 0.16352 0.0
C137 C 0.95263 0.74956 0.31245 0.0
O138 O 0.92331 0.72396 0.22956 0.0
O139 O 0.94508 0.73925 0.30593 0.0
C140 C 0.23167 0.16253 0.23699 0.0
O141 O 0.2314 0.16291 0.19688 0.0
Cd142 Cd 0.2363 0.17947 0.15556 0.0
O143 O 0.23464 0.17143 0.2591 0.0
Cd144 Cd 0.24024 0.19154 0.24601 0.0
C145 C 0.26369 0.19677 0.19022 0.0
O146 O 0.2266 0.18776 0.19008 0.0
O147 O 0.2389 0.20543 0.20037 0.0
O148 O 0.22906 0.19001 0.30787 0.0
C149 C 0.2301 0.19807 0.18103 0.0
O150 O 0.257 0.19142 0.1597 0.0
C151 C 0.23658 0.19918 0.32495 0.0
O152 O 0.25978 0.19744 0.22608 0.0
O153 O 0.24606 0.20466 0.30585 0.0
C154 C 0.82323 0.06534 0.24066 0.0
O155 O 0.82319 0.06414 0.2008 0.0
Cd156 Cd 0.80668 0.0525 0.15909 0.0
O157 O 0.81408 0.05991 0.262 0.0
Cd158 Cd 0.79396 0.04544 0.2488 0.0
C159 C 0.78958 0.06344 0.18815 0.0
O160 O 0.79757 0.03476 0.19548 0.0
O161 O 0.77998 0.02997 0.20451 0.0
O162 O 0.79543 0.03651 0.31263 0.0
C163 C 0.78722 0.02811 0.18633 0.0
O164 O 0.79517 0.0618 0.1593 0.0
C165 C 0.78625 0.03502 0.32914 0.0
O166 O 0.78844 0.05905 0.22472 0.0
O167 O 0.78072 0.03875 0.3087 0.0
C168 C 0.89752 0.39672 0.56565 0.0
O169 O 0.8966 0.39449 0.52634 0.0
Cd170 Cd 0.9014 0.38167 0.49273 0.0
O171 O 0.90101 0.39181 0.59102 0.0
Cd172 Cd 0.9067 0.37711 0.58703 0.0
C173 C 0.92928 0.39341 0.52456 0.0
O174 O 0.89265 0.365 0.53549 0.0
O175 O 0.90595 0.36112 0.54831 0.0
O176 O 0.89621 0.36935 0.65195 0.0
C177 C 0.89669 0.35847 0.52961 0.0
O178 O 0.9222 0.39082 0.49431 0.0
C179 C 0.90397 0.36835 0.67043 0.0
O180 O 0.92586 0.39022 0.56226 0.0
O181 O 0.9133 0.3719 0.65062 0.0
C182 C 0.5871 0.49797 0.56169 0.0
O183 O 0.58786 0.49905 0.52172 0.0
Cd184 Cd 0.5992 0.51639 0.48408 0.0
O185 O 0.59287 0.50651 0.58568 0.0
Cd186 Cd 0.60723 0.52688 0.57686 0.0
C187 C 0.58861 0.53255 0.52674 0.0
O188 O 0.61732 0.52478 0.51736 0.0
O189 O 0.62185 0.542 0.5327 0.0
O190 O 0.61753 0.52472 0.63542 0.0
C191 C 0.6236 0.53531 0.51015 0.0
O192 O 0.59007 0.52782 0.49438 0.0
C193 C 0.61892 0.53343 0.65547 0.0
O194 O 0.59325 0.53272 0.56198 0.0
O195 O 0.61447 0.53891 0.63962 0.0
C196 C 0.48944 0.08828 0.56601 0.0
O197 O 0.48866 0.08877 0.52613 0.0
Cd198 Cd 0.47131 0.08184 0.48797 0.0
O199 O 0.4806 0.08437 0.58935 0.0
Cd200 Cd 0.45993 0.07745 0.57969 0.0
C201 C 0.45634 0.05438 0.52593 0.0
O202 O 0.46153 0.09011 0.52252 0.0
O203 O 0.44461 0.07628 0.53538 0.0
O204 O 0.46095 0.08888 0.64023 0.0
C205 C 0.45097 0.08528 0.51481 0.0
O206 O 0.46153 0.0611 0.49529 0.0
C207 C 0.45241 0.08099 0.65928 0.0
O208 O 0.45497 0.05814 0.56106 0.0
O209 O 0.44753 0.07125 0.64188 0.0
C210 C 0.72922 0.56742 0.09042 0.0
O211 O 0.72835 0.56763 0.13037 0.0
Cd212 Cd 0.71752 0.57439 0.16726 0.0
O213 O 0.7239 0.57073 0.06638 0.0
Cd214 Cd 0.71021 0.57765 0.07443 0.0
C215 C 0.72922 0.60143 0.12629 0.0
O216 O 0.69954 0.56534 0.13272 0.0
O217 O 0.69552 0.57841 0.11755 0.0
O218 O 0.70026 0.56563 0.0146 0.0
C219 C 0.69342 0.56979 0.1397 0.0
O220 O 0.72742 0.59505 0.15831 0.0
C221 C 0.69918 0.57315 -0.00541 0.0
O222 O 0.72464 0.59722 0.09072 0.0
O223 O 0.7036 0.58298 0.01118 0.0
C224 C 0.4204 0.15901 0.08521 0.0
O225 O 0.42077 0.1587 0.1253 0.0
Cd226 Cd 0.41375 0.14183 0.16693 0.0
O227 O 0.41642 0.14991 0.0635 0.0
Cd228 Cd 0.40907 0.12941 0.07717 0.0
C229 C 0.38619 0.12669 0.12963 0.0
O230 O 0.42154 0.13131 0.13552 0.0
O231 O 0.40723 0.1145 0.12538 0.0
O232 O 0.42082 0.12982 0.01894 0.0
C233 C 0.41632 0.12087 0.14546 0.0
O234 O 0.39299 0.13165 0.1603 0.0
C235 C 0.41308 0.12108 0.00036 0.0
O236 O 0.38988 0.12546 0.09408 0.0
O237 O 0.4032 0.11635 0.0168 0.0
C238 C 0.82473 0.25604 0.0887 0.0
O239 O 0.82478 0.25595 0.12885 0.0
Cd240 Cd 0.84129 0.26518 0.1722 0.0
O241 O 0.83394 0.26181 0.06795 0.0
Cd242 Cd 0.85426 0.27538 0.0851 0.0
C243 C 0.85773 0.25477 0.13014 0.0
O244 O 0.85118 0.28423 0.14653 0.0
O245 O 0.86846 0.28803 0.13628 0.0
O246 O 0.85426 0.28779 0.03005 0.0
C247 C 0.86155 0.28983 0.15731 0.0
O248 O 0.85184 0.25509 0.16096 0.0
C249 C 0.86314 0.28909 0.01157 0.0
O250 O 0.85952 0.26093 0.09747 0.0
O251 O 0.86776 0.28369 0.02663 0.0
C252 C 0.41779 0.25427 0.0893 0.0
O253 O 0.41752 0.25461 0.12942 0.0
Cd254 Cd 0.41179 0.26572 0.17033 0.0
O255 O 0.415 0.26028 0.0668 0.0
Cd256 Cd 0.40896 0.27452 0.07924 0.0
C257 C 0.38487 0.25584 0.13055 0.0
O258 O 0.42154 0.28401 0.13841 0.0
O259 O 0.40908 0.28905 0.12546 0.0
O260 O 0.42102 0.28506 0.02024 0.0
C261 C 0.41756 0.29047 0.147 0.0
O262 O 0.39119 0.25698 0.16214 0.0
C263 C 0.41358 0.28656 0.0016 0.0
O264 O 0.38919 0.26063 0.09537 0.0
O265 O 0.40377 0.2821 0.01848 0.0
C266 C 0.72955 0.15886 0.08612 0.0
O267 O 0.72958 0.15812 0.12614 0.0
Cd268 Cd 0.72006 0.14075 0.16516 0.0
O269 O 0.7238 0.15002 0.06358 0.0
Cd270 Cd 0.71055 0.12947 0.07613 0.0
C271 C 0.73095 0.12527 0.11874 0.0
O272 O 0.70101 0.13058 0.13945 0.0
O273 O 0.69853 0.11396 0.12419 0.0
O274 O 0.69622 0.12874 0.02877 0.0
C275 C 0.69592 0.11999 0.14712 0.0
O276 O 0.73016 0.13039 0.15122 0.0
C277 C 0.69671 0.12195 0.0024 0.0
O278 O 0.72519 0.12422 0.08554 0.0
O279 O 0.70394 0.11879 0.00955 0.0
C280 C 0.82662 0.56565 0.09103 0.0
O281 O 0.8276 0.56534 0.13089 0.0
Cd282 Cd 0.84494 0.57133 0.16846 0.0
O283 O 0.8353 0.56917 0.06705 0.0
Cd284 Cd 0.85586 0.57588 0.07526 0.0
C285 C 0.86037 0.59887 0.1322 0.0
O286 O 0.85419 0.56301 0.13136 0.0
O287 O 0.87123 0.57645 0.118 0.0
O288 O 0.85415 0.56441 0.01414 0.0
C289 C 0.86473 0.56756 0.13893 0.0
O290 O 0.85573 0.59203 0.16306 0.0
C291 C 0.86284 0.5721 -0.00494 0.0
O292 O 0.86083 0.59519 0.09558 0.0
O293 O 0.86807 0.58183 0.01255 0.0
C294 C 0.5875 0.08732 0.56074 0.0
O295 O 0.58812 0.08698 0.52075 0.0
Cd296 Cd 0.59819 0.07946 0.48329 0.0
O297 O 0.59291 0.08401 0.58429 0.0
Cd298 Cd 0.60648 0.07692 0.57457 0.0
C299 C 0.58646 0.05277 0.52818 0.0
O300 O 0.61674 0.08803 0.51327 0.0
O301 O 0.6192 0.07388 0.52836 0.0
O302 O 0.61991 0.0904 0.62436 0.0
C303 C 0.62198 0.08265 0.50605 0.0
O304 O 0.58776 0.05896 0.49601 0.0
C305 C 0.61954 0.08308 0.65024 0.0
O306 O 0.59183 0.05716 0.56242 0.0
O307 O 0.61269 0.07267 0.64185 0.0
C308 C 0.90052 0.49829 0.55892 0.0
O309 O 0.90046 0.49955 0.51914 0.0
Cd310 Cd 0.90599 0.517 0.48332 0.0
O311 O 0.90349 0.50671 0.58381 0.0
Cd312 Cd 0.90941 0.52716 0.57713 0.0
C313 C 0.93316 0.53299 0.52252 0.0
O314 O 0.8965 0.52503 0.52069 0.0
O315 O 0.90928 0.54229 0.53455 0.0
O316 O 0.89761 0.52482 0.63815 0.0
C317 C 0.90052 0.53552 0.51357 0.0
O318 O 0.92664 0.52838 0.49085 0.0
C319 C 0.90507 0.5336 0.65749 0.0
O320 O 0.92906 0.53306 0.55873 0.0
O321 O 0.9148 0.53916 0.64017 0.0
C322 C 0.48993 0.39787 0.56594 0.0
O323 O 0.48893 0.39673 0.52602 0.0
Cd324 Cd 0.47179 0.3847 0.4882 0.0
O325 O 0.48138 0.39219 0.59006 0.0
Cd326 Cd 0.46114 0.37738 0.58145 0.0
C327 C 0.45464 0.39471 0.52606 0.0
O328 O 0.46385 0.36702 0.52437 0.0
O329 O 0.44644 0.36202 0.5388 0.0
O330 O 0.46323 0.36781 0.64254 0.0
C331 C 0.45337 0.36035 0.5174 0.0
O332 O 0.45961 0.39317 0.49466 0.0
C333 C 0.4544 0.36652 0.66146 0.0
O334 O 0.45464 0.39059 0.56227 0.0
O335 O 0.44892 0.37073 0.64383 0.0
C336 C 0.56627 0.73382 0.90937 0.0
O337 O 0.56539 0.73287 0.86938 0.0
Cd338 Cd 0.56969 0.72095 0.82696 0.0
O339 O 0.56939 0.72791 0.93092 0.0
Cd340 Cd 0.57413 0.71276 0.9168 0.0
C341 C 0.59728 0.73028 0.85822 0.0
O342 O 0.56 0.70306 0.8621 0.0
O343 O 0.57196 0.69718 0.87133 0.0
O344 O 0.56344 0.70332 0.97984 0.0
C345 C 0.5632 0.69603 0.85254 0.0
O346 O 0.5904 0.72935 0.82896 0.0
C347 C 0.5711 0.70172 -0.00404 0.0
O348 O 0.59359 0.72562 0.8941 0.0
O349 O 0.58041 0.70562 0.97572 0.0
C350 C 0.25415 0.83078 0.90252 0.0
O351 O 0.25549 0.83146 0.86263 0.0
Cd352 Cd 0.26858 0.84807 0.82403 0.0
O353 O 0.26009 0.83938 0.92602 0.0
Cd354 Cd 0.27558 0.85927 0.91666 0.0
C355 C 0.25957 0.86649 0.85585 0.0
O356 O 0.28586 0.85529 0.86281 0.0
O357 O 0.29201 0.87303 0.87539 0.0
O358 O 0.28381 0.85682 0.98093 0.0
C359 C 0.29322 0.86558 0.85567 0.0
O360 O 0.26098 0.86106 0.82577 0.0
C361 C 0.28543 0.86595 -0.0017 0.0
O362 O 0.26334 0.86654 0.89278 0.0
O363 O 0.28208 0.87184 0.97814 0.0
C364 C 0.15542 0.41898 0.90401 0.0
O365 O 0.15522 0.41906 0.86383 0.0
Cd366 Cd 0.13887 0.41448 0.82135 0.0
O367 O 0.14653 0.41654 0.92543 0.0
Cd368 Cd 0.12676 0.41193 0.9114 0.0
C369 C 0.12029 0.38766 0.85842 0.0
O370 O 0.13121 0.4251 0.85307 0.0
O371 O 0.11335 0.41427 0.86635 0.0
O372 O 0.12907 0.42383 0.97183 0.0
C373 C 0.12102 0.42228 0.84461 0.0
O374 O 0.12607 0.39398 0.82769 0.0
C375 C 0.11985 0.41671 0.98981 0.0
O376 O 0.1197 0.39199 0.89345 0.0
O377 O 0.11395 0.40713 0.97179 0.0
C378 C 0.39812 0.90041 0.41467 0.0
O379 O 0.39858 0.90051 0.4548 0.0
Cd380 Cd 0.38905 0.9069 0.50089 0.0
O381 O 0.39185 0.9035 0.39542 0.0
Cd382 Cd 0.37788 0.90952 0.41511 0.0
C383 C 0.39831 0.93372 0.4608 0.0
O384 O 0.36991 0.8971 0.47594 0.0
O385 O 0.36433 0.90931 0.46669 0.0
O386 O 0.366 0.89721 0.35892 0.0
C387 C 0.36354 0.90096 0.48746 0.0
O388 O 0.39851 0.92749 0.49055 0.0
C389 C 0.36423 0.9046 0.34141 0.0
O390 O 0.39185 0.92936 0.42885 0.0
O391 O 0.36907 0.91448 0.35773 0.0
C392 C 0.0795 0.49114 0.42035 0.0
O393 O 0.07873 0.49032 0.46041 0.0
Cd394 Cd 0.07606 0.47445 0.5023 0.0
O395 O 0.07867 0.48298 0.39782 0.0
Cd396 Cd 0.07528 0.46358 0.4105 0.0
C397 C 0.05021 0.45474 0.46235 0.0
O398 O 0.08813 0.46849 0.47046 0.0
O399 O 0.07856 0.45067 0.45411 0.0
O400 O 0.08754 0.46628 0.35041 0.0
C401 C 0.08603 0.45842 0.47724 0.0
O402 O 0.05603 0.46035 0.49426 0.0
C403 C 0.08057 0.45702 0.33233 0.0
O404 O 0.05503 0.45507 0.42737 0.0
O405 O 0.07095 0.45102 0.34996 0.0
C406 C 0.49349 0.59004 0.42001 0.0
O407 O 0.4934 0.59063 0.4601 0.0
Cd408 Cd 0.50943 0.60209 0.5041 0.0
O409 O 0.5026 0.59608 0.39911 0.0
Cd410 Cd 0.52243 0.6109 0.41511 0.0
C411 C 0.52747 0.59265 0.47131 0.0
O412 O 0.51802 0.62027 0.4713 0.0
O413 O 0.53581 0.62575 0.4629 0.0
O414 O 0.52163 0.62123 0.35406 0.0
C415 C 0.52825 0.62698 0.48182 0.0
O416 O 0.52168 0.59364 0.50108 0.0
C417 C 0.53091 0.62288 0.33786 0.0
O418 O 0.52847 0.59744 0.43569 0.0
O419 O 0.53609 0.61855 0.35694 0.0
C420 C 0.0871 0.5919 0.41088 0.0
O421 O 0.08779 0.59271 0.45092 0.0
Cd422 Cd 0.08169 0.60334 0.49295 0.0
O423 O 0.08335 0.59733 0.38969 0.0
Cd424 Cd 0.07699 0.61119 0.40437 0.0
C425 C 0.05405 0.59175 0.4584 0.0
O426 O 0.09007 0.62172 0.46144 0.0
O427 O 0.07602 0.62473 0.45247 0.0
O428 O 0.08823 0.62205 0.34439 0.0
C429 C 0.08522 0.62732 0.47148 0.0
O430 O 0.06086 0.59339 0.48882 0.0
C431 C 0.08035 0.62307 0.32696 0.0
O432 O 0.05776 0.59656 0.42275 0.0
O433 O 0.07068 0.61819 0.34497 0.0
C434 C 0.39909 0.4903 0.42025 0.0
O435 O 0.3983 0.48966 0.46033 0.0
Cd436 Cd 0.38521 0.47327 0.50002 0.0
O437 O 0.39259 0.4818 0.39724 0.0
Cd438 Cd 0.3768 0.46218 0.40801 0.0
C439 C 0.39299 0.45426 0.46486 0.0
O440 O 0.36766 0.46697 0.46386 0.0
O441 O 0.35989 0.44911 0.44914 0.0
O442 O 0.36867 0.4652 0.34455 0.0
C443 C 0.35967 0.45692 0.47037 0.0
O444 O 0.39221 0.45987 0.49572 0.0
C445 C 0.36641 0.45587 0.32714 0.0
O446 O 0.38873 0.45424 0.42896 0.0
O447 O 0.36937 0.44961 0.34688 0.0
C448 C 0.49137 0.89866 0.41153 0.0
O449 O 0.49095 0.89813 0.45166 0.0
Cd450 Cd 0.50704 0.90449 0.49742 0.0
O451 O 0.50081 0.90246 0.39214 0.0
Cd452 Cd 0.52092 0.90916 0.4106 0.0
C453 C 0.52369 0.93212 0.4634 0.0
O454 O 0.51746 0.89615 0.46903 0.0
O455 O 0.53488 0.90943 0.45984 0.0
O456 O 0.52104 0.89797 0.35129 0.0
C457 C 0.52781 0.90062 0.47992 0.0
O458 O 0.51782 0.92528 0.49285 0.0
C459 C 0.53001 0.90587 0.33438 0.0
O460 O 0.52553 0.92843 0.42895 0.0
O461 O 0.53469 0.91552 0.35255 0.0
C462 C 0.25135 0.41796 0.9019 0.0
O463 O 0.25152 0.41787 0.86171 0.0
Cd464 Cd 0.26446 0.41566 0.81692 0.0
O465 O 0.25869 0.41685 0.92342 0.0
Cd466 Cd 0.27512 0.41416 0.90822 0.0
C467 C 0.25889 0.38957 0.85332 0.0
O468 O 0.28248 0.42726 0.84926 0.0
O469 O 0.29141 0.41824 0.86316 0.0
O470 O 0.28492 0.4259 0.96907 0.0
C471 C 0.29055 0.42546 0.84044 0.0
O472 O 0.25828 0.39554 0.82343 0.0
C473 C 0.28708 0.41868 0.98587 0.0
O474 O 0.26409 0.39415 0.88762 0.0
O475 O 0.2833 0.40918 0.96714 0.0
C476 C 0.56693 0.83161 0.90632 0.0
O477 O 0.56616 0.83166 0.86629 0.0
Cd478 Cd 0.57117 0.84797 0.82368 0.0
O479 O 0.57015 0.84069 0.92765 0.0
Cd480 Cd 0.57521 0.86069 0.91351 0.0
C481 C 0.59861 0.86549 0.85833 0.0
O482 O 0.56171 0.85676 0.85672 0.0
O483 O 0.57392 0.87446 0.86743 0.0
O484 O 0.56391 0.85938 0.97479 0.0
C485 C 0.56529 0.86708 0.84738 0.0
O486 O 0.5919 0.85939 0.82895 0.0
C487 C 0.57148 0.8685 0.99199 0.0
O488 O 0.59477 0.86703 0.89297 0.0
O489 O 0.58102 0.87387 0.97321 0.0
C490 C 0.15701 0.73257 0.90142 0.0
O491 O 0.15694 0.73182 0.86138 0.0
Cd492 Cd 0.14021 0.72201 0.81946 0.0
O493 O 0.14778 0.72737 0.92249 0.0
Cd494 Cd 0.12737 0.71375 0.90799 0.0
C495 C 0.12475 0.73409 0.85645 0.0
O496 O 0.13005 0.7035 0.85042 0.0
O497 O 0.11286 0.70004 0.86004 0.0
O498 O 0.12791 0.70301 0.96816 0.0
C499 C 0.11963 0.69774 0.8405 0.0
O500 O 0.13044 0.73303 0.82651 0.0
C501 C 0.11903 0.70199 0.9858 0.0
O502 O 0.12273 0.72837 0.89043 0.0
O503 O 0.11411 0.70671 0.96762 0.0
H504 H 0.21594 0.95973 0.61169 0.0
H505 H 0.22311 0.9726 0.55087 0.0
H506 H 0.19289 0.97557 0.5521 0.0
H507 H 0.18561 0.96268 0.61279 0.0
H508 H 0.20073 0.97277 0.46894 0.0
H509 H 0.23454 0.00732 0.56634 0.0
H510 H 0.23384 0.99373 0.56804 0.0
H511 H 0.22236 -0.00484 0.58954 0.0
C512 C 0.21074 0.963 0.59867 0.0
C513 C 0.20025 0.96028 0.61722 0.0
C514 C 0.21488 0.97038 0.56412 0.0
C515 C 0.2086 0.97514 0.54766 0.0
C516 C 0.19787 0.972 0.56467 0.0
H517 H 0.21574 0.0237 0.35807 0.0
H518 H 0.2095 0.00945 0.41414 0.0
C519 C 0.19373 0.96465 0.59928 0.0
C520 C 0.21338 0.98378 0.51384 0.0
H521 H 0.23399 0.01119 0.49399 0.0
C522 C 0.20802 0.98116 0.47426 0.0
C523 C 0.22289 -0.00532 0.52112 0.0
C524 C 0.22873 -0.00201 0.5636 0.0
C525 C 0.21196 0.9892 0.44152 0.0
C526 C 0.22133 0.0002 0.44906 0.0
C527 C 0.2268 0.00275 0.48845 0.0
C528 C 0.22537 0.00927 0.41678 0.0
C529 C 0.20612 0.98582 0.39905 0.0
C530 C 0.23653 0.01426 0.40115 0.0
C531 C 0.24018 0.02252 0.36938 0.0
C532 C 0.2327 0.02591 0.35293 0.0
C533 C 0.22166 0.0212 0.36985 0.0
C534 C 0.21806 0.01299 0.40165 0.0
H535 H 0.2014 0.97643 0.39489 0.0
H536 H 0.1999 0.98885 0.39664 0.0
H537 H 0.21236 0.9897 0.37283 0.0
H538 H 0.24233 0.01157 0.41282 0.0
H539 H 0.24873 0.02601 0.35699 0.0
H540 H 0.02364 0.25281 0.62082 0.0
H541 H 0.00988 0.24734 0.56287 0.0
H542 H 0.00808 0.21475 0.55439 0.0
H543 H 0.02171 0.22006 0.61232 0.0
H544 H 0.01015 0.23961 0.4783 0.0
H545 H 0.9748 0.20696 0.57547 0.0
H546 H 0.98796 0.21791 0.59827 0.0
H547 H 0.98727 0.20553 0.57458 0.0
C548 C 0.0204 0.24453 0.60629 0.0
C549 C 0.02366 0.23681 0.62135 0.0
C550 C 0.01254 0.24142 0.57331 0.0
C551 C 0.00782 0.23057 0.55514 0.0
C552 C 0.01147 0.22308 0.56873 0.0
H553 H 0.9616 0.19016 0.36246 0.0
H554 H 0.97479 0.19841 0.42169 0.0
C555 C 0.0193 0.22615 0.60164 0.0
C556 C -0.00112 0.2269 0.52256 0.0
H557 H 0.97146 0.20655 0.50131 0.0
C558 C 0.00164 0.23247 0.48335 0.0
C559 C 0.98779 0.21764 0.5296 0.0
C560 C 0.98421 0.21171 0.57188 0.0
C561 C -0.00628 0.22866 0.45014 0.0
C562 C 0.98276 0.21916 0.45679 0.0
C563 C 0.9799 0.21382 0.49642 0.0
C564 C 0.97438 0.21415 0.42221 0.0
C565 C -0.00273 0.23452 0.40774 0.0
C566 C 0.96962 0.22021 0.40364 0.0
C567 C 0.96205 0.21551 0.36979 0.0
C568 C 0.95914 0.20468 0.35415 0.0
C569 C 0.9637 0.19853 0.37371 0.0
C570 C 0.97123 0.20322 0.40753 0.0
H571 H 0.00662 0.24039 0.40576 0.0
H572 H -0.00532 0.22815 0.38188 0.0
H573 H -0.00704 0.23954 0.40245 0.0
H574 H 0.97184 0.22859 0.41509 0.0
H575 H 0.95865 0.22043 0.3554 0.0
H576 H 0.79674 0.76784 0.36985 0.0
H577 H 0.7887 0.77245 0.43072 0.0
H578 H 0.75774 0.74011 0.41906 0.0
H579 H 0.76571 0.73542 0.35773 0.0
H580 H 0.75468 0.75941 0.4235 0.0
H581 H 0.7826 0.7596 0.55198 0.0
H582 H 0.79027 0.76781 0.50658 0.0
H583 H 0.78122 0.75266 0.50177 0.0
C584 C 0.78828 0.76163 0.38054 0.0
C585 C 0.78185 0.75127 0.35903 0.0
C586 C 0.78373 0.76425 0.41545 0.0
C587 C 0.77269 0.75656 0.42955 0.0
C588 C 0.76631 0.74611 0.40869 0.0
H589 H 0.73305 0.76809 0.62263 0.0
H590 H 0.73846 0.75953 0.56546 0.0
C591 C 0.77088 0.74345 0.3738 0.0
C592 C 0.76762 0.75985 0.46423 0.0
H593 H 0.77193 0.76891 0.56664 0.0
C594 C 0.75832 0.76133 0.45503 0.0
C595 C 0.77243 0.76234 0.50516 0.0
C596 C 0.78211 0.76042 0.51718 0.0
C597 C 0.75402 0.76578 0.48529 0.0
C598 C 0.75908 0.76863 0.52579 0.0
C599 C 0.76814 0.76678 0.53538 0.0
C600 C 0.75545 0.77397 0.55834 0.0
C601 C 0.74443 0.76784 0.47318 0.0
C602 C 0.76323 0.78489 0.57317 0.0
C603 C 0.7602 0.78976 0.60584 0.0
C604 C 0.74934 0.78377 0.62437 0.0
C605 C 0.74146 0.77293 0.60879 0.0
C606 C 0.74452 0.76804 0.5761 0.0
H607 H 0.74309 0.7674 0.43841 0.0
H608 H 0.73642 0.76126 0.48817 0.0
H609 H 0.74614 0.7763 0.4846 0.0
H610 H 0.77171 0.78957 0.5598 0.0
H611 H 0.76645 0.79813 0.61715 0.0
H612 H 0.76827 0.96796 0.63014 0.0
H613 H 0.77293 0.98145 0.57206 0.0
H614 H 0.73895 0.97651 0.57629 0.0
H615 H 0.73418 0.96299 0.63475 0.0
H616 H 0.76128 0.97722 0.49174 0.0
H617 H 0.76061 0.01173 0.5852 0.0
H618 H 0.76178 0.00034 0.60984 0.0
H619 H 0.74835 -0.0023 0.58917 0.0
C620 C 0.76177 0.96971 0.6187 0.0
C621 C 0.75087 0.96444 0.63705 0.0
C622 C 0.76445 0.97742 0.58558 0.0
C623 C 0.75632 0.98005 0.57042 0.0
C624 C 0.74537 0.97469 0.58812 0.0
H625 H 0.76542 0.02758 0.36612 0.0
H626 H 0.7573 0.01431 0.42574 0.0
C627 C 0.74266 0.96693 0.62125 0.0
C628 C 0.75938 0.98831 0.53559 0.0
H629 H 0.76523 0.01531 0.51281 0.0
C630 C 0.76207 0.98552 0.49621 0.0
C631 C 0.76032 -0.00093 0.54167 0.0
C632 C 0.75769 0.00249 0.58377 0.0
C633 C 0.7659 0.99333 0.46277 0.0
C634 C 0.76727 0.00426 0.46929 0.0
C635 C 0.7642 0.00692 0.50819 0.0
C636 C 0.77245 0.01316 0.43655 0.0
C637 C 0.76854 0.98985 0.4208 0.0
C638 C 0.78376 0.01717 0.42424 0.0
C639 C 0.7884 0.02469 0.39039 0.0
C640 C 0.78182 0.02838 0.36844 0.0
C641 C 0.77068 0.02485 0.38239 0.0
C642 C 0.76603 0.01728 0.41633 0.0
H643 H 0.76425 0.98045 0.41756 0.0
H644 H 0.76589 0.99332 0.3941 0.0
H645 H 0.77786 0.99327 0.41832 0.0
H646 H 0.78889 0.01422 0.44009 0.0
H647 H 0.79703 0.02734 0.38065 0.0
H648 H 0.03235 0.77737 0.59372 0.0
H649 H 0.02029 0.77107 0.53031 0.0
H650 H -0.00243 0.78077 0.58842 0.0
H651 H 0.0098 0.78756 0.65048 0.0
H652 H -0.00103 0.7552 0.51784 0.0
H653 H 0.00301 0.79671 0.47814 0.0
H654 H 0.01184 0.7953 0.51755 0.0
H655 H -0.00223 0.7926 0.53095 0.0
C656 C 0.02482 0.77824 0.59264 0.0
C657 C 0.02208 0.7831 0.62663 0.0
C658 C 0.01794 0.77462 0.55654 0.0
C659 C 0.00818 0.77571 0.55422 0.0
C660 C 0.00527 0.78022 0.58882 0.0
H661 H 0.95012 0.73865 0.38788 0.0
H662 H 0.96394 0.74474 0.44585 0.0
C663 C 0.01224 0.78404 0.6244 0.0
C664 C 0.00084 0.77194 0.51616 0.0
H665 H 0.9873 0.78033 0.44646 0.0
C666 C -0.00348 0.76073 0.50183 0.0
C667 C -0.00217 0.77922 0.49478 0.0
C668 C 0.00297 0.79166 0.50589 0.0
C669 C 0.98899 0.75649 0.46744 0.0
C670 C 0.98536 0.76354 0.44799 0.0
C671 C 0.98993 0.77484 0.46171 0.0
C672 C 0.977 0.75956 0.41288 0.0
C673 C 0.9852 0.7446 0.45198 0.0
C674 C 0.97955 0.76606 0.37576 0.0
C675 C 0.97154 0.76282 0.34347 0.0
C676 C 0.96088 0.7529 0.34729 0.0
C677 C 0.95833 0.74629 0.38413 0.0
C678 C 0.96626 0.7497 0.417 0.0
H679 H 0.99148 0.74193 0.46029 0.0
H680 H 0.97701 0.73855 0.46738 0.0
H681 H 0.98395 0.74392 0.41717 0.0
H682 H 0.98775 0.77369 0.37181 0.0
H683 H 0.97376 0.76803 0.31522 0.0
H684 H 0.24995 0.21972 0.36342 0.0
H685 H 0.24456 0.22792 0.42189 0.0
H686 H 0.21207 0.19703 0.43126 0.0
H687 H 0.2173 0.18882 0.37268 0.0
H688 H 0.21084 0.21718 0.42344 0.0
H689 H 0.24101 0.22067 0.54972 0.0
H690 H 0.24724 0.22663 0.49922 0.0
H691 H 0.23797 0.21154 0.50421 0.0
C692 C 0.24173 0.21461 0.37842 0.0
C693 C 0.23403 0.20364 0.36342 0.0
C694 C 0.23869 0.2193 0.41185 0.0
C695 C 0.22795 0.21304 0.4309 0.0
C696 C 0.2204 0.20197 0.41688 0.0
H697 H 0.18713 0.21995 0.62104 0.0
H698 H 0.19486 0.21464 0.56111 0.0
C699 C 0.22342 0.19729 0.38349 0.0
C700 C 0.2242 0.21825 0.46348 0.0
H701 H 0.22906 0.22827 0.5647 0.0
C702 C 0.21483 0.21964 0.45432 0.0
C703 C 0.22951 0.22152 0.50346 0.0
C704 C 0.23944 0.21996 0.51507 0.0
C705 C 0.21052 0.22409 0.48439 0.0
C706 C 0.21563 0.22706 0.52477 0.0
C707 C 0.22519 0.22597 0.5336 0.0
C708 C 0.21075 0.23064 0.55917 0.0
C709 C 0.20055 0.22557 0.47273 0.0
C710 C 0.21718 0.24137 0.57798 0.0
C711 C 0.21279 0.24444 0.61231 0.0
C712 C 0.20195 0.23675 0.62854 0.0
C713 C 0.19548 0.22607 0.60915 0.0
C714 C 0.19986 0.22304 0.57481 0.0
H715 H 0.19972 0.22597 0.43789 0.0
H716 H 0.19259 0.21819 0.48479 0.0
H717 H 0.20137 0.23342 0.48707 0.0
H718 H 0.22563 0.24732 0.56638 0.0
H719 H 0.21799 0.25271 0.62672 0.0
H720 H 0.91734 0.36143 0.71065 0.0
H721 H 0.91191 0.34836 0.77091 0.0
H722 H 0.88016 0.34831 0.78161 0.0
H723 H 0.88543 0.36122 0.72131 0.0
H724 H 0.90448 0.34894 0.85675 0.0
H725 H 0.87105 0.31466 0.75822 0.0
H726 H 0.88238 0.32767 0.73592 0.0
H727 H 0.87026 0.32749 0.75988 0.0
C728 C 0.9093 0.35879 0.72633 0.0
C729 C 0.90173 0.36221 0.71094 0.0
C730 C 0.90621 0.35133 0.76065 0.0
C731 C 0.89554 0.34722 0.7799 0.0
C732 C 0.88834 0.35124 0.76649 0.0
H733 H 0.85423 0.30051 0.97054 0.0
H734 H 0.86298 0.31447 0.91381 0.0
C735 C 0.89138 0.35865 0.73218 0.0
C736 C 0.89157 0.33818 0.81218 0.0
H737 H 0.87059 0.31092 0.8319 0.0
C738 C 0.89715 0.34058 0.85132 0.0
C739 C 0.88207 0.32727 0.80459 0.0
C740 C 0.87614 0.32405 0.76225 0.0
C741 C 0.89313 0.33247 0.88394 0.0
C742 C 0.88339 0.32172 0.87674 0.0
C743 C 0.87803 0.31922 0.8372 0.0
C744 C 0.87821 0.31314 0.91056 0.0
C745 C 0.89904 0.33557 0.92629 0.0
C746 C 0.88383 0.30765 0.92679 0.0
C747 C 0.87883 0.2996 0.95909 0.0
C748 C 0.86815 0.29698 0.97555 0.0
C749 C 0.86247 0.30236 0.95858 0.0
C750 C 0.86746 0.31035 0.92624 0.0
H751 H 0.90532 0.34481 0.9287 0.0
H752 H 0.89271 0.33319 0.95222 0.0
H753 H 0.9036 0.33077 0.93101 0.0
H754 H 0.89208 0.3096 0.91452 0.0
H755 H 0.88339 0.29558 0.97156 0.0
H756 H 0.62839 0.52274 0.69806 0.0
H757 H 0.64207 0.53035 0.75614 0.0
H758 H 0.6399 0.56102 0.7558 0.0
H759 H 0.62604 0.55338 0.69817 0.0
H760 H 0.66307 0.55002 0.75163 0.0
H761 H 0.63683 0.55283 0.88111 0.0
H762 H 0.63064 0.5445 0.83394 0.0
H763 H 0.63664 0.55969 0.83278 0.0
C764 C 0.63068 0.53102 0.7108 0.0
C765 C 0.62615 0.53747 0.69358 0.0
C766 C 0.63851 0.53536 0.74389 0.0
C767 C 0.64193 0.5462 0.76038 0.0
C768 C 0.63721 0.55255 0.744 0.0
H769 H 0.6925 0.58634 0.95176 0.0
H770 H 0.67937 0.58063 0.89165 0.0
C771 C 0.62933 0.54819 0.711 0.0
C772 C 0.65097 0.5511 0.79281 0.0
H773 H 0.65664 0.56118 0.89395 0.0
C774 C 0.66167 0.55245 0.78278 0.0
C775 C 0.64911 0.55432 0.83325 0.0
C776 C 0.63766 0.55269 0.84618 0.0
C777 C 0.67057 0.55691 0.81224 0.0
C778 C 0.66867 0.55999 0.8528 0.0
C779 C 0.65804 0.55884 0.86265 0.0
C780 C 0.67736 0.56382 0.88636 0.0
C781 C 0.68196 0.55833 0.79976 0.0
C782 C 0.68061 0.55627 0.90283 0.0
C783 C 0.68806 0.55948 0.9371 0.0
C784 C 0.69236 0.57029 0.9555 0.0
C785 C 0.68935 0.57797 0.93812 0.0
C786 C 0.68184 0.57472 0.90393 0.0
H787 H 0.68292 0.55834 0.76485 0.0
H788 H 0.68904 0.56637 0.81272 0.0
H789 H 0.68273 0.55115 0.81286 0.0
H790 H 0.6771 0.54776 0.89003 0.0
H791 H 0.69019 0.55337 0.94985 0.0
H792 H 0.43252 0.06679 0.70049 0.0
H793 H 0.42431 0.07149 0.76105 0.0
H794 H 0.45386 0.10507 0.76611 0.0
H795 H 0.46213 0.10048 0.70583 0.0
H796 H 0.44559 0.09289 0.84723 0.0
H797 H 0.41216 0.09456 0.75 0.0
H798 H 0.41351 0.08205 0.74578 0.0
H799 H 0.42475 0.09543 0.7267 0.0
C800 C 0.43731 0.07513 0.71481 0.0
C801 C 0.44793 0.0833 0.6983 0.0
C802 C 0.43259 0.07781 0.74918 0.0
C803 C 0.43844 0.08866 0.76749 0.0
C804 C 0.44922 0.09667 0.75215 0.0
H805 H 0.433 0.13036 0.9565 0.0
H806 H 0.43824 0.12153 0.90022 0.0
C807 C 0.45392 0.09403 0.71774 0.0
C808 C 0.43329 0.09191 0.80196 0.0
H809 H 0.41308 0.0993 0.82201 0.0
C810 C 0.43842 0.0942 0.84192 0.0
C811 C 0.4239 0.09353 0.79473 0.0
C812 C 0.41825 0.09134 0.75198 0.0
C813 C 0.43455 0.09831 0.87484 0.0
C814 C 0.42548 0.10041 0.86714 0.0
C815 C 0.42007 0.09772 0.82761 0.0
C816 C 0.42193 0.10597 0.89911 0.0
C817 C 0.44023 0.10042 0.91753 0.0
C818 C 0.41083 0.10035 0.91559 0.0
C819 C 0.40776 0.10543 0.94756 0.0
C820 C 0.41575 0.11622 0.96331 0.0
C821 C 0.42669 0.122 0.94532 0.0
C822 C 0.42973 0.11694 0.91337 0.0
H823 H 0.44452 0.09533 0.92178 0.0
H824 H 0.44681 0.10955 0.92017 0.0
H825 H 0.43398 0.09834 0.94353 0.0
H826 H 0.40467 0.09191 0.90458 0.0
H827 H 0.39926 0.10078 0.96079 0.0
H828 H 0.46484 0.35725 0.70684 0.0
H829 H 0.45676 0.34362 0.76493 0.0
H830 H 0.42624 0.34606 0.7608 0.0
H831 H 0.43433 0.35985 0.7029 0.0
H832 H 0.43419 0.34571 0.84371 0.0
H833 H 0.43114 0.31068 0.74359 0.0
H834 H 0.44514 0.32298 0.74518 0.0
H835 H 0.4336 0.32403 0.72186 0.0
C836 C 0.45646 0.35499 0.7186 0.0
C837 C 0.45016 0.35952 0.70006 0.0
C838 C 0.45184 0.34716 0.75157 0.0
C839 C 0.44082 0.34366 0.76632 0.0
C840 C 0.43473 0.3486 0.74947 0.0
H841 H 0.40035 0.29354 0.96066 0.0
H842 H 0.40602 0.30707 0.9018 0.0
C843 C 0.43937 0.35648 0.7165 0.0
C844 C 0.43556 0.33459 0.79847 0.0
H845 H 0.42801 0.30694 0.81744 0.0
C846 C 0.43272 0.3372 0.83795 0.0
C847 C 0.43359 0.32349 0.79051 0.0
C848 C 0.43592 0.32006 0.74786 0.0
C849 C 0.42838 0.32907 0.87045 0.0
C850 C 0.42675 0.31808 0.86284 0.0
C851 C 0.42932 0.3154 0.82304 0.0
C852 C 0.42299 0.30943 0.89656 0.0
C853 C 0.42598 0.3324 0.91312 0.0
C854 C 0.43054 0.30606 0.91192 0.0
C855 C 0.42735 0.29835 0.94531 0.0
C856 C 0.41649 0.29383 0.96368 0.0
C857 C 0.40878 0.2969 0.94717 0.0
C858 C 0.41201 0.30467 0.9138 0.0
H859 H 0.42955 0.34175 0.91591 0.0
H860 H 0.41663 0.32818 0.91797 0.0
H861 H 0.42957 0.32955 0.93877 0.0
H862 H 0.43903 0.30962 0.89873 0.0
H863 H 0.43346 0.29611 0.95725 0.0
H864 H 0.6995 0.11332 0.92804 0.0
H865 H 0.68651 0.10665 0.86732 0.0
H866 H 0.66304 0.11356 0.9357 0.0
H867 H 0.67622 0.12078 -0.0048 0.0
H868 H 0.66571 0.08986 0.85711 0.0
H869 H 0.66552 0.12999 0.82902 0.0
H870 H 0.67532 0.12913 0.86523 0.0
H871 H 0.66101 0.12492 0.88178 0.0
C872 C 0.6916 0.11349 0.92983 0.0
C873 C 0.68892 0.11771 0.96595 0.0
C874 C 0.68418 0.10966 0.89525 0.0
C875 C 0.67392 0.10987 0.89655 0.0
C876 C 0.67109 0.11371 0.93331 0.0
H877 H 0.61694 0.07139 0.72389 0.0
H878 H 0.62997 0.0776 0.78445 0.0
C879 C 0.67859 0.11776 0.9674 0.0
C880 C 0.66608 0.10591 0.85983 0.0
H881 H 0.65088 0.11345 0.79483 0.0
C882 C 0.66254 0.09505 0.84319 0.0
C883 C 0.66208 0.11276 0.84126 0.0
C884 C 0.66629 0.12489 0.85496 0.0
C885 C 0.655 0.09078 0.80882 0.0
C886 C 0.65054 0.0974 0.79175 0.0
C887 C 0.65417 0.1083 0.80822 0.0
C888 C 0.64249 0.09349 0.75562 0.0
C889 C 0.65218 0.07939 0.79056 0.0
C890 C 0.64494 0.10053 0.72005 0.0
C891 C 0.63735 0.09718 0.68626 0.0
C892 C 0.62723 0.08662 0.68699 0.0
C893 C 0.62474 0.07953 0.72246 0.0
C894 C 0.63223 0.08302 0.75684 0.0
H895 H 0.65887 0.07721 0.79818 0.0
H896 H 0.64406 0.07268 0.80442 0.0
H897 H 0.65122 0.07925 0.75567 0.0
H898 H 0.65278 0.10864 0.71832 0.0
H899 H 0.63952 0.10278 0.65918 0.0
H900 H 0.88527 0.52291 0.7023 0.0
H901 H 0.87954 0.53067 0.76102 0.0
H902 H 0.91243 0.56121 0.75889 0.0
H903 H 0.91826 0.55355 0.69984 0.0
H904 H 0.89009 0.53907 0.84271 0.0
H905 H 0.88887 0.5722 0.74235 0.0
H906 H 0.8891 0.56004 0.72016 0.0
H907 H 0.90187 0.57167 0.74162 0.0
C908 C 0.89134 0.53123 0.71459 0.0
C909 C 0.90219 0.53766 0.69628 0.0
C910 C 0.88805 0.53564 0.74809 0.0
C911 C 0.89551 0.54657 0.76365 0.0
C912 C 0.90651 0.55283 0.74673 0.0
H913 H 0.88305 0.58562 0.9545 0.0
H914 H 0.89145 0.57996 0.89745 0.0
C915 C 0.90984 0.5484 0.71326 0.0
C916 C 0.89156 0.55145 0.79681 0.0
H917 H 0.88396 0.57162 0.8142 0.0
C918 C 0.8888 0.54622 0.83663 0.0
C919 C 0.88993 0.56079 0.78857 0.0
C920 C 0.89251 0.56649 0.74582 0.0
C921 C 0.88435 0.55004 0.86855 0.0
C922 C 0.8824 0.55917 0.85996 0.0
C923 C 0.88543 0.56459 0.82047 0.0
C924 C 0.87696 0.56298 0.8914 0.0
C925 C 0.88182 0.54431 0.91125 0.0
C926 C 0.86587 0.55545 0.90547 0.0
C927 C 0.86107 0.55863 0.93794 0.0
C928 C 0.86725 0.56944 0.95663 0.0
C929 C 0.8781 0.57722 0.94075 0.0
C930 C 0.88292 0.574 0.90829 0.0
H931 H 0.8866 0.53972 0.91623 0.0
H932 H 0.88397 0.55059 0.93716 0.0
H933 H 0.87259 0.538 0.91334 0.0
H934 H 0.86105 0.54699 0.89204 0.0
H935 H 0.85265 0.55249 0.94924 0.0
H936 H 0.55147 0.62952 0.30007 0.0
H937 H 0.56043 0.64357 0.24331 0.0
H938 H 0.53052 0.64699 0.235 0.0
H939 H 0.52154 0.63306 0.29164 0.0
H940 H 0.5526 0.64402 0.1585 0.0
H941 H 0.55711 0.67971 0.25825 0.0
H942 H 0.55436 0.66627 0.28013 0.0
H943 H 0.54295 0.66764 0.25741 0.0
C944 C 0.54676 0.63318 0.28583 0.0
C945 C 0.53584 0.63027 0.30053 0.0
C946 C 0.5519 0.64121 0.25355 0.0
C947 C 0.54621 0.64645 0.23578 0.0
C948 C 0.53512 0.64318 0.24905 0.0
H949 H 0.55225 0.69299 0.04598 0.0
H950 H 0.54774 0.68014 0.10607 0.0
C951 C 0.52998 0.63518 0.28122 0.0
C952 C 0.55183 0.65548 0.20373 0.0
H953 H 0.5598 0.6832 0.18397 0.0
C954 C 0.55434 0.65264 0.1641 0.0
C955 C 0.55414 0.6667 0.21151 0.0
C956 C 0.55211 0.67032 0.25426 0.0
C957 C 0.55856 0.66062 0.13111 0.0
C958 C 0.56043 0.67172 0.13844 0.0
C959 C 0.55832 0.67466 0.17857 0.0
C960 C 0.56368 0.6801 0.10396 0.0
C961 C 0.56046 0.65699 0.08817 0.0
C962 C 0.57427 0.68455 0.08372 0.0
C963 C 0.57688 0.69193 0.04935 0.0
C964 C 0.56894 0.69495 0.03486 0.0
C965 C 0.55852 0.69079 0.0563 0.0
C966 C 0.55594 0.68346 0.09062 0.0
H967 H 0.55677 0.64762 0.08598 0.0
H968 H 0.55664 0.65975 0.06301 0.0
H969 H 0.56974 0.66109 0.08196 0.0
H970 H 0.58041 0.68218 0.09412 0.0
H971 H 0.58499 0.69502 0.03351 0.0
H972 H 0.35361 0.88444 0.2991 0.0
H973 H 0.34007 0.87912 0.24092 0.0
H974 H 0.34371 0.91258 0.24287 0.0
H975 H 0.35727 0.918 0.30153 0.0
H976 H 0.3206 0.89388 0.24209 0.0
H977 H 0.34726 0.89011 0.11694 0.0
H978 H 0.34631 0.88246 0.16457 0.0
H979 H 0.35315 0.89773 0.16572 0.0
C980 C 0.35161 0.89071 0.28698 0.0
C981 C 0.35653 0.90165 0.30476 0.0
C982 C 0.34391 0.88766 0.25367 0.0
C983 C 0.34102 0.89551 0.23743 0.0
C984 C 0.3459 0.90644 0.25497 0.0
H985 H 0.29263 0.88637 0.03779 0.0
H986 H 0.30558 0.89397 0.09828 0.0
C987 C 0.35366 0.90953 0.28831 0.0
C988 C 0.33261 0.89207 0.20293 0.0
H989 H 0.32749 0.88199 0.10189 0.0
C990 C 0.32212 0.89139 0.21122 0.0
C991 C 0.33468 0.88887 0.16284 0.0
C992 C 0.346 0.88992 0.15173 0.0
C993 C 0.31342 0.88713 0.18081 0.0
C994 C 0.31539 0.88362 0.14115 0.0
C995 C 0.326 0.8846 0.13255 0.0
C996 C 0.30654 0.87868 0.10811 0.0
C997 C 0.30208 0.88603 0.19175 0.0
C998 C 0.30276 0.86756 0.09399 0.0
C999 C 0.29544 0.86323 0.05943 0.0
C1000 C 0.29182 0.86997 0.03828 0.0
C1001 C 0.29525 0.88096 0.05358 0.0
C1002 C 0.30261 0.8853 0.08818 0.0
H1003 H 0.30116 0.88685 0.2263 0.0
H1004 H 0.30129 0.89285 0.17544 0.0
H1005 H 0.29497 0.87771 0.18089 0.0
H1006 H 0.30574 0.86234 0.10903 0.0
H1007 H 0.29293 0.85473 0.04845 0.0
H1008 H 0.06799 0.4369 0.29047 0.0
H1009 H 0.07431 0.42937 0.2327 0.0
H1010 H 0.1068 0.46041 0.23085 0.0
H1011 H 0.10062 0.46797 0.2889 0.0
H1012 H 0.08254 0.43806 0.15072 0.0
H1013 H 0.11507 0.43528 0.24865 0.0
H1014 H 0.10395 0.43726 0.27132 0.0
H1015 H 0.11629 0.44909 0.24811 0.0
C1016 C 0.07644 0.44217 0.27752 0.0
C1017 C 0.08385 0.45299 0.29444 0.0
C1018 C 0.08004 0.43784 0.24461 0.0
C1019 C 0.09109 0.44425 0.22827 0.0
C1020 C 0.09832 0.45525 0.24378 0.0
H1021 H 0.13095 0.43643 0.03481 0.0
H1022 H 0.12354 0.44235 0.09409 0.0
C1023 C 0.09475 0.45958 0.27671 0.0
C1024 C 0.09512 0.43938 0.19538 0.0
H1025 H 0.11529 0.43196 0.17495 0.0
C1026 C 0.08964 0.43664 0.15601 0.0
C1027 C 0.10436 0.43752 0.20267 0.0
C1028 C 0.11021 0.43984 0.24508 0.0
C1029 C 0.09339 0.43238 0.12311 0.0
C1030 C 0.10274 0.43068 0.13023 0.0
C1031 C 0.10812 0.43329 0.16977 0.0
C1032 C 0.10736 0.42667 0.09636 0.0
C1033 C 0.08757 0.43007 0.08065 0.0
C1034 C 0.1008 0.41577 0.07896 0.0
C1035 C 0.105 0.41235 0.0451 0.0
C1036 C 0.11584 0.41978 0.02829 0.0
C1037 C 0.12255 0.43053 0.04695 0.0
C1038 C 0.11835 0.43393 0.08079 0.0
H1039 H 0.08211 0.434 0.07791 0.0
H1040 H 0.09393 0.43334 0.05465 0.0
H1041 H 0.08209 0.42074 0.07633 0.0
H1042 H 0.09237 0.41 0.09115 0.0
H1043 H 0.09966 0.404 0.03146 0.0
H1044 H 0.06619 0.62938 0.28914 0.0
H1045 H 0.07101 0.64319 0.23174 0.0
H1046 H 0.10447 0.64693 0.2228 0.0
H1047 H 0.09982 0.63331 0.28032 0.0
H1048 H 0.10432 0.66759 0.23147 0.0
H1049 H 0.07516 0.64029 0.10383 0.0
H1050 H 0.06875 0.63962 0.15435 0.0
H1051 H 0.07856 0.63444 0.14916 0.0
C1052 C 0.07451 0.63302 0.27446 0.0
C1053 C 0.08264 0.6303 0.28926 0.0
C1054 C 0.07723 0.64087 0.24166 0.0
C1055 C 0.08807 0.64601 0.22302 0.0
C1056 C 0.09606 0.64304 0.23689 0.0
H1057 H 0.12897 0.69284 0.0345 0.0
H1058 H 0.12071 0.68013 0.09502 0.0
C1059 C 0.09338 0.63525 0.26967 0.0
C1060 C 0.09143 0.65501 0.19079 0.0
H1061 H 0.08683 0.65981 0.08873 0.0
C1062 C 0.10045 0.66592 0.20033 0.0
C1063 C 0.08627 0.65279 0.15046 0.0
C1064 C 0.07669 0.64114 0.1385 0.0
C1065 C 0.10468 0.67463 0.17012 0.0
C1066 C 0.09983 0.6723 0.12927 0.0
C1067 C 0.0905 0.66153 0.1202 0.0
C1068 C 0.10497 0.68058 0.09449 0.0
C1069 C 0.1144 0.68622 0.18192 0.0
C1070 C 0.0988 0.68497 0.07413 0.0
C1071 C 0.10351 0.69226 0.03949 0.0
C1072 C 0.11439 0.69512 0.02448 0.0
C1073 C 0.12058 0.69081 0.04538 0.0
C1074 C 0.1159 0.6836 0.08006 0.0
H1075 H 0.11498 0.68753 0.21672 0.0
H1076 H 0.12252 0.68697 0.17089 0.0
H1077 H 0.11345 0.69308 0.1667 0.0
H1078 H 0.09031 0.68265 0.08478 0.0
H1079 H 0.09852 0.69541 0.02385 0.0
H1080 H 0.35857 0.43551 0.28655 0.0
H1081 H 0.3458 0.42857 0.2254 0.0
H1082 H 0.34634 0.4606 0.21816 0.0
H1083 H 0.35917 0.46765 0.27879 0.0
H1084 H 0.32416 0.42659 0.22393 0.0
H1085 H 0.3516 0.45475 0.0953 0.0
H1086 H 0.3573 0.45297 0.1445 0.0
H1087 H 0.35148 0.46231 0.14172 0.0
C1088 C 0.35614 0.44115 0.27142 0.0
C1089 C 0.35986 0.45212 0.28745 0.0
C1090 C 0.34883 0.43716 0.23662 0.0
C1091 C 0.34523 0.44411 0.21714 0.0
C1092 C 0.3492 0.45518 0.23231 0.0
H1093 H 0.29676 0.4385 0.03075 0.0
H1094 H 0.31047 0.44393 0.0886 0.0
C1095 C 0.35648 0.45917 0.26709 0.0
C1096 C 0.33663 0.43956 0.18316 0.0
H1097 H 0.3316 0.44442 0.08182 0.0
C1098 C 0.3258 0.43038 0.19266 0.0
C1099 C 0.33884 0.44457 0.14258 0.0
C1100 C 0.35047 0.45413 0.13019 0.0
C1101 C 0.31695 0.42633 0.16296 0.0
C1102 C 0.31909 0.43152 0.12269 0.0
C1103 C 0.32999 0.44054 0.11292 0.0
C1104 C 0.31013 0.42781 0.09018 0.0
C1105 C 0.3053 0.4168 0.17531 0.0
C1106 C 0.30535 0.41691 0.0724 0.0
C1107 C 0.29749 0.41377 0.03945 0.0
C1108 C 0.29438 0.42152 0.02364 0.0
C1109 C 0.29899 0.43234 0.04228 0.0
C1110 C 0.30683 0.43546 0.07522 0.0
H1111 H 0.30443 0.41552 0.21012 0.0
H1112 H 0.29855 0.41853 0.16391 0.0
H1113 H 0.30384 0.40877 0.16052 0.0
H1114 H 0.30794 0.41096 0.08316 0.0
H1115 H 0.29413 0.40539 0.02557 0.0
H1116 H 0.55052 0.92013 0.29696 0.0
H1117 H 0.55916 0.91583 0.23664 0.0
H1118 H 0.52947 0.88244 0.22674 0.0
H1119 H 0.52079 0.88663 0.28657 0.0
H1120 H 0.56354 0.89709 0.23247 0.0
H1121 H 0.53462 0.89539 0.10512 0.0
H1122 H 0.53589 0.90234 0.1552 0.0
H1123 H 0.52732 0.88712 0.15095 0.0
C1124 C 0.54579 0.91193 0.28156 0.0
C1125 C 0.53497 0.90372 0.29639 0.0
C1126 C 0.55074 0.90949 0.24728 0.0
C1127 C 0.54488 0.89888 0.22712 0.0
C1128 C 0.53403 0.89075 0.24152 0.0
H1129 H 0.55217 0.85827 0.03957 0.0
H1130 H 0.54699 0.86654 0.09808 0.0
C1131 C 0.52911 0.89315 0.27581 0.0
C1132 C 0.55021 0.89598 0.19226 0.0
H1133 H 0.54594 0.88682 0.09001 0.0
C1134 C 0.55983 0.895 0.20108 0.0
C1135 C 0.54531 0.8933 0.15149 0.0
C1136 C 0.53528 0.89468 0.1399 0.0
C1137 C 0.56435 0.89083 0.1706 0.0
C1138 C 0.55917 0.88773 0.13035 0.0
C1139 C 0.54982 0.88913 0.1211 0.0
C1140 C 0.56292 0.88251 0.09776 0.0
C1141 C 0.5743 0.88929 0.1822 0.0
C1142 C 0.57367 0.88871 0.07875 0.0
C1143 C 0.57668 0.88399 0.04534 0.0
C1144 C 0.56893 0.87303 0.03034 0.0
C1145 C 0.55831 0.86673 0.05036 0.0
C1146 C 0.55533 0.87145 0.08372 0.0
H1147 H 0.5759 0.89003 0.21684 0.0
H1148 H 0.57281 0.88086 0.17143 0.0
H1149 H 0.58208 0.89593 0.16621 0.0
H1150 H 0.57957 0.89733 0.08881 0.0
H1151 H 0.58491 0.88905 0.03038 0.0
H1152 H 0.22082 0.97817 0.82012 0.0
H1153 H 0.2271 0.99067 0.88216 0.0
H1154 H 0.19216 0.97714 0.92068 0.0
H1155 H 0.18578 0.9646 0.85899 0.0
H1156 H 0.22058 0.00727 0.91074 0.0
H1157 H 0.20856 0.97123 0.02188 0.0
H1158 H 0.2103 0.9701 0.96575 0.0
H1159 H 0.19761 0.96955 0.98561 0.0
C1160 C 0.21447 0.97793 0.84162 0.0
C1161 C 0.20281 0.97034 0.83499 0.0
C1162 C 0.21808 0.98507 0.87693 0.0
C1163 C 0.21008 0.98465 0.90608 0.0
C1164 C 0.19844 0.97742 0.8987 0.0
H1165 H 0.2174 0.02896 0.1139 0.0
H1166 H 0.21202 0.01765 0.049 0.0
C1167 C 0.19482 0.97031 0.86341 0.0
C1168 C 0.21391 0.9915 0.94501 0.0
H1169 H 0.21437 0.98928 0.05233 0.0
C1170 C 0.21927 0.00338 0.94174 0.0
C1171 C 0.21228 0.98633 0.98515 0.0
C1172 C 0.20696 0.97361 0.99004 0.0
C1173 C 0.22284 0.01025 0.97795 0.0
C1174 C 0.22089 0.00505 0.01818 0.0
C1175 C 0.21576 0.99319 0.02135 0.0
C1176 C 0.22408 0.01178 0.05747 0.0
C1177 C 0.22875 0.02301 0.97298 0.0
C1178 C 0.23243 0.01194 0.08406 0.0
C1179 C 0.23551 0.01835 0.12121 0.0
C1180 C 0.2302 0.02462 0.13238 0.0
C1181 C 0.22167 0.02424 0.10603 0.0
C1182 C 0.21863 0.01786 0.06886 0.0
H1183 H 0.2319 0.02572 0.94019 0.0
H1184 H 0.22265 0.02598 0.9804 0.0
H1185 H 0.23604 0.02727 -0.00483 0.0
H1186 H 0.23665 0.00721 0.07579 0.0
H1187 H 0.24208 0.01846 0.14098 0.0
H1188 H 0.95715 0.18304 0.11738 0.0
H1189 H 0.96934 0.18779 0.05488 0.0
H1190 H 0.98281 0.22355 0.0793 0.0
H1191 H 0.97067 0.2189 0.14197 0.0
H1192 H 0.96908 0.20108 0.98423 0.0
H1193 H 0.01133 0.21986 0.06272 0.0
H1194 H -0.00186 0.21075 0.09013 0.0
H1195 H 0.00241 0.22539 0.0803 0.0
C1196 C 0.96278 0.19192 0.10966 0.0
C1197 C 0.96297 0.20061 0.13453 0.0
C1198 C 0.96971 0.1946 0.07398 0.0
C1199 C 0.97701 0.20599 0.0629 0.0
C1200 C 0.97733 0.2147 0.08784 0.0
H1201 H 0.00971 0.23783 0.82972 0.0
H1202 H -0.00268 0.23028 0.8917 0.0
C1203 C 0.97036 0.21203 0.12345 0.0
C1204 C 0.98394 0.2088 0.02412 0.0
H1205 H 0.01132 0.22241 0.98829 0.0
C1206 C 0.97831 0.20567 0.98502 0.0
C1207 C -0.00405 0.21467 0.02553 0.0
C1208 C 0.00235 0.2178 0.0669 0.0
C1209 C 0.98445 0.20859 0.94699 0.0
C1210 C -0.00354 0.21485 0.94839 0.0
C1211 C 0.00209 0.21767 0.98751 0.0
C1212 C 0.00338 0.21883 0.90958 0.0
C1213 C 0.97806 0.20499 0.90565 0.0
C1214 C 0.01088 0.21489 0.89946 0.0
C1215 C 0.01796 0.21917 0.86414 0.0
C1216 C 0.01771 0.22755 0.83874 0.0
C1217 C 0.01007 0.23137 0.8487 0.0
C1218 C 0.00296 0.22704 0.88392 0.0
H1219 H 0.96912 0.19803 0.91013 0.0
H1220 H 0.97787 0.21236 0.89136 0.0
H1221 H 0.98235 0.20209 0.88301 0.0
H1222 H 0.01133 0.20858 0.91914 0.0
H1223 H 0.02378 0.21608 0.85728 0.0
H1224 H 0.76756 0.80503 0.86326 0.0
H1225 H 0.77453 0.79992 0.92621 0.0
H1226 H 0.7531 0.76432 0.89688 0.0
H1227 H 0.74607 0.76933 0.83383 0.0
H1228 H 0.76022 0.78551 -0.0053 0.0
H1229 H 0.78565 0.76885 0.9161 0.0
H1230 H 0.78159 0.77808 0.88957 0.0
H1231 H 0.77138 0.76327 0.89662 0.0
C1232 C 0.7644 0.79611 0.87001 0.0
C1233 C 0.75627 0.78757 0.84365 0.0
C1234 C 0.76837 0.79322 0.90597 0.0
C1235 C 0.76438 0.78177 0.9158 0.0
C1236 C 0.75637 0.77322 0.88937 0.0
H1237 H 0.76567 0.74913 0.14789 0.0
H1238 H 0.76035 0.75629 0.08595 0.0
C1239 C 0.75234 0.77609 0.85353 0.0
C1240 C 0.76826 0.77873 0.95461 0.0
H1241 H 0.78271 0.76577 0.99006 0.0
C1242 C 0.76519 0.78124 0.99381 0.0
C1243 C 0.77481 0.77327 0.95305 0.0
C1244 C 0.77865 0.77077 0.91163 0.0
C1245 C 0.7683 0.77819 0.03176 0.0
C1246 C 0.77455 0.77241 0.03017 0.0
C1247 C 0.77784 0.77013 0.99098 0.0
C1248 C 0.7777 0.76857 0.06884 0.0
C1249 C 0.76494 0.78119 0.07323 0.0
C1250 C 0.7892 0.77311 0.07936 0.0
C1251 C 0.79227 0.76905 0.1146 0.0
C1252 C 0.78387 0.76032 0.13957 0.0
C1253 C 0.77233 0.75589 0.12922 0.0
C1254 C 0.76927 0.75998 0.09404 0.0
H1255 H 0.76243 0.78778 0.06922 0.0
H1256 H 0.75757 0.77346 0.08671 0.0
H1257 H 0.77204 0.78432 0.09634 0.0
H1258 H 0.79581 0.77972 0.06007 0.0
H1259 H 0.80122 0.77262 0.12176 0.0
H1260 H 0.74676 0.97286 0.84767 0.0
H1261 H 0.75352 0.98445 0.91184 0.0
H1262 H 0.77444 0.96967 0.94124 0.0
H1263 H 0.76776 0.95805 0.87702 0.0
H1264 H 0.75948 0.97012 0.00982 0.0
H1265 H 0.78701 0.01179 0.93121 0.0
H1266 H 0.77286 0.00339 0.91019 0.0
H1267 H 0.78279 -0.00166 0.90564 0.0
C1268 C 0.75283 0.97211 0.86769 0.0
C1269 C 0.75676 0.96458 0.85733 0.0
C1270 C 0.7567 0.97874 0.9042 0.0
C1271 C 0.76451 0.97792 0.93087 0.0
C1272 C 0.76842 0.9704 0.9208 0.0
H1273 H 0.80127 0.02408 0.13664 0.0
H1274 H 0.79591 0.01104 0.07656 0.0
C1275 C 0.76463 0.96382 0.88413 0.0
C1276 C 0.76844 0.98481 0.96969 0.0
H1277 H 0.78382 0.01216 0.00474 0.0
C1278 C 0.76486 0.97931 0.00888 0.0
C1279 C 0.77552 -0.00325 0.96802 0.0
C1280 C 0.77987 0.00296 0.92658 0.0
C1281 C 0.76796 0.98553 0.04673 0.0
C1282 C 0.77475 -0.00249 0.04498 0.0
C1283 C 0.77857 0.00297 0.0058 0.0
C1284 C 0.77783 0.00461 0.08334 0.0
C1285 C 0.764 0.97926 0.08823 0.0
C1286 C 0.7694 0.00523 0.10696 0.0
C1287 C 0.77242 0.01268 0.14121 0.0
C1288 C 0.78393 0.01965 0.15217 0.0
C1289 C 0.79233 0.01882 0.12895 0.0
C1290 C 0.7893 0.01139 0.09466 0.0
H1291 H 0.76122 0.97008 0.08476 0.0
H1292 H 0.77087 0.98305 0.11231 0.0
H1293 H 0.75666 0.97995 0.10011 0.0
H1294 H 0.76051 0.00018 0.09819 0.0
H1295 H 0.76577 0.01316 0.1585 0.0
H1296 H 0.01706 0.76227 0.84179 0.0
H1297 H 0.00358 0.75396 0.90072 0.0
H1298 H 0.00194 0.78481 0.91144 0.0
H1299 H 0.01538 0.79319 0.85292 0.0
H1300 H 0.00724 0.76449 0.98562 0.0
H1301 H 0.968 0.75813 0.90573 0.0
H1302 H 0.98014 0.75945 0.87704 0.0
H1303 H 0.98038 0.77189 0.89782 0.0
C1304 C 0.01375 0.76724 0.85652 0.0
C1305 C 0.01726 0.77838 0.84284 0.0
C1306 C 0.00608 0.76249 0.89009 0.0
C1307 C 0.00172 0.76875 0.90988 0.0
C1308 C 0.00512 0.77981 0.89603 0.0
H1309 H 0.9606 0.76663 0.11615 0.0
H1310 H 0.97249 0.77055 0.05334 0.0
C1311 C 0.01283 0.78459 0.86278 0.0
C1312 C -0.00595 0.76406 0.94651 0.0
H1313 H 0.96754 0.75717 0.981 0.0
C1314 C -0.0015 0.76271 0.98466 0.0
C1315 C 0.9827 0.7618 0.94479 0.0
C1316 C 0.97746 0.76279 0.90408 0.0
C1317 C -0.00797 0.75967 0.02193 0.0
C1318 C 0.98077 0.75774 0.02049 0.0
C1319 C 0.9762 0.7587 0.98193 0.0
C1320 C 0.97378 0.75532 0.05898 0.0
C1321 C -0.00254 0.75909 0.06281 0.0
C1322 C 0.97057 0.74545 0.08277 0.0
C1323 C 0.96383 0.74323 0.11886 0.0
C1324 C 0.96012 0.75079 0.13134 0.0
C1325 C 0.96333 0.76065 0.10732 0.0
C1326 C 0.9701 0.76289 0.07142 0.0
H1327 H 0.00687 0.76323 0.06008 0.0
H1328 H -0.00463 0.76322 0.08891 0.0
H1329 H -0.00587 0.75004 0.07147 0.0
H1330 H 0.97316 0.73941 0.07317 0.0
H1331 H 0.96143 0.73552 0.13664 0.0
H1332 H 0.23636 0.21941 0.15246 0.0
H1333 H 0.22885 0.2244 0.09076 0.0
H1334 H 0.20517 0.18885 0.06825 0.0
H1335 H 0.21265 0.18376 0.12967 0.0
H1336 H 0.21847 0.20109 -0.00287 0.0
H1337 H 0.19773 0.22282 0.07473 0.0
H1338 H 0.21216 0.22778 0.09101 0.0
H1339 H 0.20131 0.21345 0.10296 0.0
C1340 C 0.22947 0.21267 0.13463 0.0
C1341 C 0.2251 0.2012 0.14578 0.0
C1342 C 0.22516 0.21554 0.09959 0.0
C1343 C 0.21641 0.20698 0.07537 0.0
C1344 C 0.21191 0.19555 0.08678 0.0
H1345 H 0.18066 0.21836 0.86967 0.0
H1346 H 0.18525 0.21101 0.93284 0.0
C1347 C 0.21618 0.19267 0.12184 0.0
C1348 C 0.21243 0.20993 0.03657 0.0
H1349 H 0.20001 0.22479 -3e-05 0.0
C1350 C 0.21436 0.2062 -0.00232 0.0
C1351 C 0.20698 0.21649 0.03767 0.0
C1352 C 0.20431 0.2203 0.07883 0.0
C1353 C 0.21124 0.20914 0.95953 0.0
C1354 C 0.20619 0.21607 0.96055 0.0
C1355 C 0.20397 0.21953 -0.00052 0.0
C1356 C 0.20341 0.22007 0.92145 0.0
C1357 C 0.21337 0.20483 0.91848 0.0
C1358 C 0.21214 0.22758 0.89439 0.0
C1359 C 0.20957 0.23181 0.85841 0.0
C1360 C 0.19823 0.2286 0.84907 0.0
C1361 C 0.18948 0.22096 0.87602 0.0
C1362 C 0.19207 0.21677 0.91209 0.0
H1363 H 0.2147 0.19747 0.92358 0.0
H1364 H 0.20614 0.20225 0.8963 0.0
H1365 H 0.22114 0.21174 0.90331 0.0
H1366 H 0.22096 0.23033 0.90155 0.0
H1367 H 0.21648 0.2377 0.83826 0.0
H1368 H 0.87654 0.35037 0.48808 0.0
H1369 H 0.86981 0.33737 0.42778 0.0
H1370 H 0.89989 0.33419 0.43465 0.0
H1371 H 0.90654 0.34695 0.49566 0.0
H1372 H 0.88089 0.34169 0.35279 0.0
H1373 H 0.87511 0.30137 0.42011 0.0
H1374 H 0.87663 0.31296 0.45282 0.0
H1375 H 0.88897 0.31336 0.42984 0.0
C1376 C 0.88162 0.34674 0.4772 0.0
C1377 C 0.89207 0.34969 0.49643 0.0
C1378 C 0.87777 0.33933 0.44279 0.0
C1379 C 0.88431 0.33475 0.42705 0.0
C1380 C 0.8946 0.33743 0.4469 0.0
H1381 H 0.88238 0.29981 0.19559 0.0
H1382 H 0.88795 0.31091 0.26117 0.0
C1383 C 0.89842 0.34477 0.48159 0.0
C1384 C 0.88084 0.32801 0.38766 0.0
H1385 H 0.87489 0.30253 0.34478 0.0
C1386 C 0.87948 0.3331 0.35112 0.0
C1387 C 0.87907 0.31682 0.38564 0.0
C1388 C 0.87991 0.31076 0.42428 0.0
C1389 C 0.87653 0.32733 0.31238 0.0
C1390 C 0.87488 0.31622 0.31034 0.0
C1391 C 0.87623 0.3111 0.34672 0.0
C1392 C 0.87158 0.3097 0.27065 0.0
C1393 C 0.87535 0.33318 0.27372 0.0
C1394 C 0.86054 0.30541 0.25468 0.0
C1395 C 0.85732 0.29905 0.21746 0.0
C1396 C 0.86511 0.29692 0.19569 0.0
C1397 C 0.87621 0.30134 0.21165 0.0
C1398 C 0.87939 0.30764 0.24906 0.0
H1399 H 0.87871 0.34241 0.27913 0.0
H1400 H 0.87992 0.33213 0.24646 0.0
H1401 H 0.86622 0.32921 0.26509 0.0
H1402 H 0.85441 0.3069 0.27126 0.0
H1403 H 0.84872 0.29574 0.2059 0.0
H1404 H 0.67953 0.57806 0.16346 0.0
H1405 H 0.66754 0.57297 0.22685 0.0
H1406 H 0.67772 0.54857 0.2613 0.0
H1407 H 0.6897 0.55357 0.19824 0.0
H1408 H 0.64932 0.55022 0.25316 0.0
H1409 H 0.68561 0.5705 0.3656 0.0
H1410 H 0.68706 0.57398 0.30994 0.0
H1411 H 0.68639 0.56106 0.32748 0.0
C1412 C 0.67917 0.57157 0.18444 0.0
C1413 C 0.6856 0.56626 0.1761 0.0
C1414 C 0.67233 0.56869 0.22054 0.0
C1415 C 0.67193 0.56054 0.24882 0.0
C1416 C 0.67809 0.55501 0.24002 0.0
H1417 H 0.62644 0.5225 0.45019 0.0
H1418 H 0.63822 0.52925 0.38652 0.0
C1419 C 0.68487 0.55784 0.20392 0.0
C1420 C 0.66509 0.55779 0.28776 0.0
H1421 H 0.66724 0.55883 0.39533 0.0
C1422 C 0.6532 0.55216 0.28427 0.0
C1423 C 0.67027 0.56048 0.3281 0.0
C1424 C 0.68304 0.56692 0.33324 0.0
C1425 C 0.64629 0.54878 0.3204 0.0
C1426 C 0.65146 0.55107 0.36074 0.0
C1427 C 0.66335 0.55703 0.36422 0.0
C1428 C 0.64462 0.54708 0.39971 0.0
C1429 C 0.63353 0.54278 0.31527 0.0
C1430 C 0.64463 0.55493 0.42854 0.0
C1431 C 0.63793 0.55112 0.46497 0.0
C1432 C 0.63122 0.5394 0.47314 0.0
C1433 C 0.6315 0.53158 0.44468 0.0
C1434 C 0.63815 0.53541 0.40821 0.0
H1435 H 0.63103 0.54398 0.28303 0.0
H1436 H 0.62995 0.53353 0.32059 0.0
H1437 H 0.62965 0.54592 0.33884 0.0
H1438 H 0.64967 0.56399 0.42248 0.0
H1439 H 0.63791 0.55734 0.48646 0.0
H1440 H 0.40467 0.09991 0.18244 0.0
H1441 H 0.40966 0.09362 0.24745 0.0
H1442 H 0.44051 0.12612 0.25747 0.0
H1443 H 0.43548 0.13257 0.19309 0.0
H1444 H 0.4284 0.0917 0.26641 0.0
H1445 H 0.42591 0.12291 0.37284 0.0
H1446 H 0.42035 0.12027 0.31964 0.0
H1447 H 0.43535 0.12943 0.32884 0.0
C1448 C 0.41252 0.10571 0.19848 0.0
C1449 C 0.41965 0.11676 0.18295 0.0
C1450 C 0.41534 0.10211 0.23559 0.0
C1451 C 0.42531 0.1095 0.25766 0.0
C1452 C 0.43262 0.12041 0.24146 0.0
H1453 H 0.46257 0.1045 0.46733 0.0
H1454 H 0.45557 0.11011 0.40579 0.0
C1455 C 0.42978 0.12404 0.20454 0.0
C1456 C 0.42819 0.10576 0.29728 0.0
H1457 H 0.43445 0.11264 0.40145 0.0
C1458 C 0.42962 0.0962 0.29604 0.0
C1459 C 0.4297 0.11164 0.33586 0.0
C1460 C 0.42764 0.12156 0.3396 0.0
C1461 C 0.43288 0.09258 0.3322 0.0
C1462 C 0.43468 0.09864 0.37038 0.0
C1463 C 0.43309 0.10807 0.37189 0.0
C1464 C 0.43859 0.0955 0.4088 0.0
C1465 C 0.43469 0.08248 0.32923 0.0
C1466 C 0.43124 0.08556 0.43104 0.0
C1467 C 0.43518 0.08236 0.46628 0.0
C1468 C 0.44654 0.08905 0.47954 0.0
C1469 C 0.45379 0.09915 0.45771 0.0
C1470 C 0.44982 0.10238 0.42266 0.0
H1471 H 0.43446 0.0797 0.29601 0.0
H1472 H 0.44299 0.08456 0.34348 0.0
H1473 H 0.4279 0.07525 0.34727 0.0
H1474 H 0.42251 0.08023 0.4208 0.0
H1475 H 0.4294 0.07454 0.48256 0.0
H1476 H 0.43375 0.29302 0.20399 0.0
H1477 H 0.4396 0.30476 0.2678 0.0
H1478 H 0.41627 0.31667 0.238 0.0
H1479 H 0.41036 0.30496 0.17391 0.0
H1480 H 0.43914 0.334 0.26248 0.0
H1481 H 0.41897 0.29764 0.37481 0.0
H1482 H 0.42806 0.29672 0.33545 0.0
H1483 H 0.41514 0.29631 0.31953 0.0
C1484 C 0.42989 0.29816 0.2109 0.0
C1485 C 0.42155 0.29803 0.18414 0.0
C1486 C 0.4332 0.30481 0.24743 0.0
C1487 C 0.42822 0.3114 0.25771 0.0
C1488 C 0.42013 0.31154 0.23055 0.0
H1489 H 0.43151 0.34546 0.49359 0.0
H1490 H 0.42526 0.33336 0.43051 0.0
C1491 C 0.41677 0.30487 0.19405 0.0
C1492 C 0.43151 0.31819 0.29686 0.0
H1493 H 0.43078 0.31593 0.40442 0.0
C1494 C 0.4373 0.33008 0.29354 0.0
C1495 C 0.42895 0.31298 0.33716 0.0
C1496 C 0.42236 0.30021 0.3422 0.0
C1497 C 0.44083 0.33695 0.32974 0.0
C1498 C 0.43857 0.33174 0.37 0.0
C1499 C 0.43257 0.31985 0.37335 0.0
C1500 C 0.44233 0.33855 0.40905 0.0
C1501 C 0.44687 0.34972 0.32473 0.0
C1502 C 0.45397 0.3452 0.41809 0.0
C1503 C 0.45756 0.35207 0.45404 0.0
C1504 C 0.44954 0.35239 0.48143 0.0
C1505 C 0.43787 0.34542 0.47293 0.0
C1506 C 0.43429 0.33852 0.43701 0.0
H1507 H 0.44581 0.35227 0.29241 0.0
H1508 H 0.44365 0.35356 0.34807 0.0
H1509 H 0.45611 0.35327 0.33055 0.0
H1510 H 0.46027 0.34517 0.39706 0.0
H1511 H 0.46661 0.35731 0.45987 0.0
H1512 H 0.68647 0.09842 0.17901 0.0
H1513 H 0.67357 0.09054 0.23975 0.0
H1514 H 0.67472 0.12263 0.2571 0.0
H1515 H 0.68763 0.13061 0.19678 0.0
H1516 H 0.67844 0.10127 0.32797 0.0
H1517 H 0.63979 0.09669 0.24829 0.0
H1518 H 0.65154 0.09715 0.21946 0.0
H1519 H 0.65274 0.11 0.24049 0.0
C1520 C 0.68395 0.10378 0.19571 0.0
C1521 C 0.68804 0.11512 0.18317 0.0
C1522 C 0.67662 0.09928 0.23034 0.0
C1523 C 0.67319 0.10601 0.25243 0.0
C1524 C 0.67723 0.11731 0.24003 0.0
H1525 H 0.63031 0.10166 0.45719 0.0
H1526 H 0.64303 0.10661 0.39638 0.0
C1527 C 0.68462 0.12184 0.20569 0.0
C1528 C 0.66548 0.10136 0.289 0.0
H1529 H 0.63891 0.09441 0.32273 0.0
C1530 C 0.66975 0.09963 0.32693 0.0
C1531 C 0.65421 0.0993 0.28713 0.0
C1532 C 0.64921 0.10079 0.24662 0.0
C1533 C 0.66311 0.0963 0.36385 0.0
C1534 C 0.65188 0.09445 0.36221 0.0
C1535 C 0.64754 0.09588 0.32385 0.0
C1536 C 0.64461 0.09153 0.40022 0.0
C1537 C 0.66833 0.09525 0.40455 0.0
C1538 C 0.64133 0.08141 0.42251 0.0
C1539 C 0.63412 0.07859 0.45754 0.0
C1540 C 0.62999 0.08579 0.47035 0.0
C1541 C 0.63334 0.09593 0.448 0.0
C1542 C 0.64059 0.09877 0.41326 0.0
H1543 H 0.67776 0.09954 0.40253 0.0
H1544 H 0.66599 0.09896 0.43142 0.0
H1545 H 0.66507 0.08612 0.41146 0.0
H1546 H 0.64417 0.0756 0.4124 0.0
H1547 H 0.63162 0.07068 0.47404 0.0
H1548 H 0.90828 0.55743 0.48768 0.0
H1549 H 0.90256 0.56364 0.42405 0.0
H1550 H 0.87824 0.52872 0.39425 0.0
H1551 H 0.88385 0.52242 0.45754 0.0
H1552 H 0.89463 0.54262 0.32716 0.0
H1553 H 0.8711 0.56222 0.40052 0.0
H1554 H 0.88488 0.56609 0.42188 0.0
H1555 H 0.87334 0.55178 0.42777 0.0
C1556 C 0.90163 0.55109 0.46779 0.0
C1557 C 0.89652 0.53944 0.47746 0.0
C1558 C 0.89837 0.55465 0.43161 0.0
C1559 C 0.88998 0.54661 0.40478 0.0
C1560 C 0.88473 0.53502 0.41475 0.0
H1561 H 0.85214 0.55109 0.19653 0.0
H1562 H 0.85897 0.54621 0.2603 0.0
C1563 C 0.88793 0.53145 0.45092 0.0
C1564 C 0.88696 0.55017 0.36523 0.0
H1565 H 0.87293 0.56319 0.3262 0.0
C1566 C 0.88994 0.54717 0.32681 0.0
C1567 C 0.88081 0.55604 0.36529 0.0
C1568 C 0.87725 0.5592 0.40598 0.0
C1569 C 0.88682 0.54985 0.28809 0.0
C1570 C 0.88064 0.55568 0.28815 0.0
C1571 C 0.87772 0.55875 0.32656 0.0
C1572 C 0.87673 0.55832 0.2486 0.0
C1573 C 0.8899 0.5462 0.24744 0.0
C1574 C 0.88452 0.56668 0.22102 0.0
C1575 C 0.88065 0.5695 0.1846 0.0
C1576 C 0.86895 0.564 0.17541 0.0
C1577 C 0.86121 0.55546 0.20275 0.0
C1578 C 0.86508 0.55269 0.2392 0.0
H1579 H 0.89319 0.54027 0.25308 0.0
H1580 H 0.88237 0.542 0.22628 0.0
H1581 H 0.89658 0.55382 0.23073 0.0
H1582 H 0.89354 0.57115 0.22812 0.0
H1583 H 0.8868 0.57613 0.16409 0.0
H1584 H 0.51344 0.62875 0.53539 0.0
H1585 H 0.51809 0.64068 0.59857 0.0
H1586 H 0.5539 0.65433 0.57425 0.0
H1587 H 0.54935 0.64245 0.51096 0.0
H1588 H 0.53152 0.64002 0.66876 0.0
H1589 H 0.54994 0.68266 0.59357 0.0
H1590 H 0.5408 0.66962 0.56546 0.0
H1591 H 0.55548 0.67388 0.57453 0.0
C1592 C 0.52231 0.63438 0.54324 0.0
C1593 C 0.53105 0.63468 0.5183 0.0
C1594 C 0.52493 0.64115 0.57932 0.0
C1595 C 0.53632 0.64841 0.59067 0.0
C1596 C 0.54506 0.64887 0.56554 0.0
H1597 H 0.56837 0.6801 0.82464 0.0
H1598 H 0.56069 0.66788 0.76232 0.0
C1599 C 0.54245 0.64206 0.52956 0.0
C1600 C 0.53907 0.65509 0.62998 0.0
H1601 H 0.55253 0.68225 0.6678 0.0
C1602 C 0.53604 0.64925 0.66867 0.0
C1603 C 0.54485 0.6671 0.62945 0.0
C1604 C 0.54789 0.67372 0.58857 0.0
C1605 C 0.53896 0.65516 0.70715 0.0
C1606 C 0.54513 0.66718 0.70661 0.0
C1607 C 0.54786 0.67302 0.66792 0.0
C1608 C 0.54911 0.6739 0.74585 0.0
C1609 C 0.53547 0.64855 0.74803 0.0
C1610 C 0.54512 0.6813 0.75692 0.0
C1611 C 0.54948 0.68827 0.79241 0.0
C1612 C 0.55799 0.68803 0.81705 0.0
C1613 C 0.56182 0.68045 0.80625 0.0
C1614 C 0.55741 0.67345 0.77084 0.0
H1615 H 0.52856 0.63962 0.74311 0.0
H1616 H 0.54291 0.64836 0.76169 0.0
H1617 H 0.53255 0.65266 0.7714 0.0
H1618 H 0.53874 0.68177 0.73777 0.0
H1619 H 0.54637 0.69403 0.79994 0.0
H1620 H 0.29576 0.85127 0.80195 0.0
H1621 H 0.30862 0.8565 0.7413 0.0
H1622 H 0.32236 0.89204 0.77074 0.0
H1623 H 0.30957 0.88691 0.83163 0.0
H1624 H 0.30858 0.87022 0.67324 0.0
H1625 H 0.35082 0.88866 0.75147 0.0
H1626 H 0.33764 0.87942 0.77868 0.0
H1627 H 0.34194 0.89412 0.77004 0.0
C1628 C 0.30162 0.8602 0.79587 0.0
C1629 C 0.30164 0.86869 0.82142 0.0
C1630 C 0.30894 0.86315 0.76124 0.0
C1631 C 0.31646 0.87463 0.75192 0.0
C1632 C 0.31672 0.88313 0.77793 0.0
H1633 H 0.34856 0.90712 0.51799 0.0
H1634 H 0.33691 0.90009 0.582 0.0
C1635 C 0.30937 0.88018 0.81251 0.0
C1636 C 0.32343 0.87774 0.71318 0.0
H1637 H 0.35082 0.89174 0.6773 0.0
C1638 C 0.31782 0.87486 0.67404 0.0
C1639 C 0.33546 0.88369 0.71458 0.0
C1640 C 0.34185 0.88659 0.75592 0.0
C1641 C 0.32394 0.87805 0.63603 0.0
C1642 C 0.33596 0.88436 0.63744 0.0
C1643 C 0.34159 0.88698 0.67654 0.0
C1644 C 0.34283 0.88844 0.59857 0.0
C1645 C 0.31754 0.87465 0.59467 0.0
C1646 C 0.35007 0.88428 0.58724 0.0
C1647 C 0.35672 0.88826 0.55077 0.0
C1648 C 0.35629 0.89655 0.52536 0.0
C1649 C 0.34904 0.90072 0.53692 0.0
C1650 C 0.34236 0.89669 0.5733 0.0
H1651 H 0.3086 0.86771 0.59892 0.0
H1652 H 0.3174 0.88211 0.58098 0.0
H1653 H 0.32181 0.87182 0.57162 0.0
H1654 H 0.35055 0.87794 0.60658 0.0
H1655 H 0.36226 0.88492 0.54271 0.0
H1656 H 0.10152 0.42293 0.83128 0.0
H1657 H 0.09654 0.43017 0.76876 0.0
H1658 H 0.12894 0.43907 0.71219 0.0
H1659 H 0.13419 0.43243 0.77555 0.0
H1660 H 0.12408 0.45502 0.69704 0.0
H1661 H 0.08609 0.41353 0.65968 0.0
H1662 H 0.08508 0.41851 0.71113 0.0
H1663 H 0.09607 0.41506 0.70031 0.0
C1664 C 0.10758 0.42649 0.80552 0.0
C1665 C 0.11819 0.42706 0.80796 0.0
C1666 C 0.1047 0.43053 0.76973 0.0
C1667 C 0.11224 0.43486 0.73532 0.0
C1668 C 0.12297 0.4357 0.73825 0.0
H1669 H 0.08893 0.44009 0.48547 0.0
H1670 H 0.09654 0.43503 0.5466 0.0
C1671 C 0.12595 0.4319 0.77442 0.0
C1672 C 0.10896 0.43846 0.69612 0.0
H1673 H 0.08817 0.42956 0.62125 0.0
C1674 C 0.11626 0.44943 0.68025 0.0
C1675 C 0.09889 0.43108 0.67375 0.0
C1676 C 0.09116 0.41885 0.68683 0.0
C1677 C 0.11369 0.45327 0.64294 0.0
C1678 C 0.10331 0.4461 0.62193 0.0
C1679 C 0.09608 0.43509 0.63755 0.0
C1680 C 0.09967 0.44975 0.58371 0.0
C1681 C 0.12228 0.46484 0.62605 0.0
C1682 C 0.09898 0.45975 0.5841 0.0
C1683 C 0.0949 0.46278 0.54881 0.0
C1684 C 0.09112 0.45568 0.51313 0.0
C1685 C 0.09178 0.44569 0.51271 0.0
C1686 C 0.09612 0.4428 0.54759 0.0
H1687 H 0.13104 0.46739 0.63685 0.0
H1688 H 0.12224 0.46503 0.59095 0.0
H1689 H 0.12019 0.47127 0.63811 0.0
H1690 H 0.10131 0.46506 0.61204 0.0
H1691 H 0.09433 0.47046 0.55005 0.0
H1692 H 0.09864 0.68712 0.80344 0.0
H1693 H 0.09277 0.67483 0.74086 0.0
H1694 H 0.1261 0.67822 0.73358 0.0
H1695 H 0.13209 0.69055 0.79595 0.0
H1696 H 0.10546 0.68209 0.658 0.0
H1697 H 0.10199 0.64286 0.72857 0.0
H1698 H 0.10095 0.65345 0.75991 0.0
H1699 H 0.11456 0.65615 0.74102 0.0
C1700 C 0.10469 0.68517 0.78873 0.0
C1701 C 0.11583 0.6898 0.80448 0.0
C1702 C 0.10132 0.67818 0.75305 0.0
C1703 C 0.109 0.67562 0.73303 0.0
C1704 C 0.12005 0.68005 0.74903 0.0
H1705 H 0.10484 0.63476 0.51647 0.0
H1706 H 0.11093 0.64712 0.57872 0.0
C1707 C 0.12345 0.6871 0.7845 0.0
C1708 C 0.10563 0.66873 0.69417 0.0
H1709 H 0.09982 0.64302 0.65452 0.0
C1710 C 0.10418 0.67353 0.6571 0.0
C1711 C 0.10409 0.65765 0.69342 0.0
C1712 C 0.1054 0.65214 0.73284 0.0
C1713 C 0.10134 0.66753 0.61881 0.0
C1714 C 0.09965 0.65637 0.61808 0.0
C1715 C 0.10113 0.65159 0.65526 0.0
C1716 C 0.09623 0.64941 0.5792 0.0
C1717 C 0.10043 0.6733 0.57939 0.0
C1718 C 0.08595 0.64663 0.55897 0.0
C1719 C 0.0825 0.63967 0.52325 0.0
C1720 C 0.0892 0.63523 0.5076 0.0
C1721 C 0.09951 0.63807 0.52783 0.0
C1722 C 0.10299 0.6451 0.56338 0.0
H1723 H 0.10512 0.68272 0.58274 0.0
H1724 H 0.10379 0.67099 0.55136 0.0
H1725 H 0.09134 0.67055 0.57351 0.0
H1726 H 0.08049 0.64967 0.57129 0.0
H1727 H 0.07448 0.63756 0.5085 0.0
H1728 H 0.28523 0.43345 0.77007 0.0
H1729 H 0.29566 0.43902 0.70303 0.0
H1730 H 0.32191 0.43382 0.75753 0.0
H1731 H 0.31124 0.42772 0.82386 0.0
H1732 H 0.31587 0.45532 0.67894 0.0
H1733 H 0.31379 0.41394 0.65546 0.0
H1734 H 0.30584 0.41615 0.69642 0.0
H1735 H 0.32057 0.42028 0.70459 0.0
C1736 C 0.29325 0.43355 0.76772 0.0
C1737 C 0.29739 0.43003 0.80181 0.0
C1738 C 0.29919 0.43672 0.72946 0.0
C1739 C 0.30939 0.43652 0.72496 0.0
C1740 C 0.31384 0.43364 0.75985 0.0
H1741 H 0.36182 0.46985 0.53913 0.0
H1742 H 0.34853 0.46494 0.59798 0.0
C1743 C 0.30781 0.43025 0.79779 0.0
C1744 C 0.31534 0.4392 0.68375 0.0
H1745 H 0.32732 0.42938 0.61274 0.0
C1746 C 0.31827 0.4496 0.66416 0.0
C1747 C 0.31816 0.43159 0.66386 0.0
C1748 C 0.3143 0.41982 0.68095 0.0
C1749 C 0.32439 0.4528 0.62606 0.0
C1750 C 0.32802 0.44559 0.60804 0.0
C1751 C 0.32468 0.435 0.6268 0.0
C1752 C 0.33567 0.44896 0.57085 0.0
C1753 C 0.32679 0.46382 0.60549 0.0
C1754 C 0.33304 0.44148 0.53653 0.0
C1755 C 0.3408 0.44411 0.50351 0.0
C1756 C 0.35124 0.45435 0.50402 0.0
C1757 C 0.35376 0.46196 0.53778 0.0
C1758 C 0.34612 0.45921 0.57123 0.0
H1759 H 0.32011 0.46598 0.61363 0.0
H1760 H 0.33503 0.47083 0.61733 0.0
H1761 H 0.32726 0.46341 0.57052 0.0
H1762 H 0.32505 0.43349 0.53567 0.0
H1763 H 0.33866 0.43812 0.4777 0.0
H1764 H 0.54866 0.85284 0.79283 0.0
H1765 H 0.54159 0.85814 0.73068 0.0
H1766 H 0.56403 0.89365 0.75847 0.0
H1767 H 0.57116 0.88846 0.82079 0.0
H1768 H 0.54034 0.88684 0.73671 0.0
H1769 H 0.56164 0.87237 0.62196 0.0
H1770 H 0.55312 0.86231 0.66218 0.0
H1771 H 0.5658 0.87518 0.67685 0.0
C1772 C 0.55205 0.86178 0.78586 0.0
C1773 C 0.56052 0.87025 0.81146 0.0
C1774 C 0.54803 0.86477 0.75033 0.0
C1775 C 0.55241 0.87626 0.73994 0.0
C1776 C 0.5606 0.88474 0.76606 0.0
H1777 H 0.54938 0.90814 0.5086 0.0
H1778 H 0.55504 0.90195 0.57222 0.0
C1779 C 0.56467 0.88176 0.80152 0.0
C1780 C 0.54861 0.87945 0.7013 0.0
H1781 H 0.54971 0.87879 0.59362 0.0
C1782 C 0.54235 0.88508 0.70539 0.0
C1783 C 0.55138 0.87721 0.66069 0.0
C1784 C 0.55843 0.87151 0.65487 0.0
C1785 C 0.53869 0.88846 0.66961 0.0
C1786 C 0.54132 0.88606 0.62901 0.0
C1787 C 0.54766 0.88052 0.62494 0.0
C1788 C 0.53783 0.88953 0.59027 0.0
C1789 C 0.53221 0.89474 0.67539 0.0
C1790 C 0.5263 0.88443 0.57926 0.0
C1791 C 0.52303 0.8879 0.54291 0.0
C1792 C 0.53127 0.89654 0.51714 0.0
C1793 C 0.54284 0.90149 0.52794 0.0
C1794 C 0.54609 0.89797 0.56418 0.0
H1795 H 0.53274 0.89779 0.70839 0.0
H1796 H 0.53551 0.90216 0.65366 0.0
H1797 H 0.5231 0.88896 0.66766 0.0
H1798 H 0.51984 0.87779 0.59886 0.0
H1799 H 0.51406 0.88392 0.53532 0.0
H1800 H 0.36924 0.11775 0.07011 0.0
H1801 H 0.34869 0.10877 0.0822 0.0
H1802 H 0.35455 0.11554 0.21575 0.0
H1803 H 0.37509 0.1246 0.20417 0.0
H1804 H 0.33814 0.09118 0.18508 0.0
H1805 H 0.32984 0.12488 0.12399 0.0
H1806 H 0.33894 0.12146 0.09326 0.0
H1807 H 0.34361 0.12805 0.14405 0.0
C1808 C 0.36618 0.11743 0.10201 0.0
C1809 C 0.37381 0.12188 0.13618 0.0
C1810 C 0.35445 0.11233 0.1088 0.0
C1811 C 0.35018 0.11158 0.1498 0.0
C1812 C 0.35774 0.11611 0.18387 0.0
H1813 H 0.28156 0.07361 0.25449 0.0
H1814 H 0.30223 0.08491 0.24572 0.0
C1815 C 0.36946 0.12129 0.17712 0.0
C1816 C 0.33779 0.10549 0.15746 0.0
H1817 H 0.31387 0.10745 0.14427 0.0
C1818 C 0.3328 0.09472 0.1764 0.0
C1819 C 0.33095 0.11018 0.14575 0.0
C1820 C 0.33605 0.12181 0.12581 0.0
C1821 C 0.32102 0.08835 0.18324 0.0
C1822 C 0.31413 0.09306 0.17189 0.0
C1823 C 0.31917 0.10389 0.15312 0.0
C1824 C 0.30162 0.08672 0.17789 0.0
C1825 C 0.31604 0.07649 0.20123 0.0
C1826 C 0.29441 0.08438 0.14295 0.0
C1827 C 0.28262 0.07809 0.14793 0.0
C1828 C 0.27778 0.07398 0.188 0.0
C1829 C 0.28502 0.07655 0.22314 0.0
C1830 C 0.29683 0.08295 0.21816 0.0
H1831 H 0.32191 0.07307 0.19725 0.0
H1832 H 0.31451 0.07673 0.2356 0.0
H1833 H 0.3078 0.07055 0.1859 0.0
H1834 H 0.29793 0.08726 0.11162 0.0
H1835 H 0.2773 0.07628 0.12018 0.0
H1836 H 0.87707 0.25802 0.09133 0.0
H1837 H 0.88662 0.24695 0.10076 0.0
H1838 H 0.85971 0.22401 0.18446 0.0
H1839 H 0.85046 0.23546 0.17693 0.0
H1840 H 0.87898 0.22909 0.21724 0.0
H1841 H 0.88029 0.21768 0.05048 0.0
H1842 H 0.88716 0.23281 0.05655 0.0
H1843 H 0.87213 0.22416 0.0673 0.0
C1844 C 0.87313 0.25053 0.11135 0.0
C1845 C 0.863 0.24756 0.13327 0.0
C1846 C 0.87855 0.24416 0.11649 0.0
C1847 C 0.87377 0.23448 0.14257 0.0
C1848 C 0.86355 0.23142 0.16403 0.0
H1849 H 0.90085 0.18817 0.14084 0.0
H1850 H 0.8889 0.19683 0.13226 0.0
C1851 C 0.85826 0.23794 0.15967 0.0
C1852 C 0.87974 0.22795 0.14942 0.0
H1853 H 0.89294 0.2156 0.09803 0.0
C1854 C 0.88191 0.22602 0.19114 0.0
C1855 C 0.8834 0.22375 0.11547 0.0
C1856 C 0.8805 0.2246 0.07 0.0
C1857 C 0.88785 0.22024 0.19985 0.0
C1858 C 0.89218 0.21673 0.16586 0.0
C1859 C 0.88978 0.21843 0.12415 0.0
C1860 C 0.89921 0.21129 0.17264 0.0
C1861 C 0.88919 0.2178 0.24542 0.0
C1862 C 0.90902 0.21654 0.19804 0.0
C1863 C 0.91569 0.21145 0.20379 0.0
C1864 C 0.91289 0.20122 0.18313 0.0
C1865 C 0.90321 0.19608 0.15708 0.0
C1866 C 0.89639 0.20102 0.15214 0.0
H1867 H 0.88226 0.21739 0.26547 0.0
H1868 H 0.88918 0.20964 0.24868 0.0
H1869 H 0.89737 0.22478 0.25783 0.0
H1870 H 0.91161 0.22465 0.21299 0.0
H1871 H 0.9232 0.21568 0.22356 0.0
H1872 H 0.73695 0.61761 0.06391 0.0
H1873 H 0.74837 0.63827 0.07236 0.0
H1874 H 0.74884 0.63414 0.20749 0.0
H1875 H 0.7377 0.61352 0.19934 0.0
H1876 H 0.74285 0.65215 0.11515 0.0
H1877 H 0.78211 0.65561 0.18337 0.0
H1878 H 0.77122 0.64273 0.15885 0.0
H1879 H 0.76955 0.64609 0.21252 0.0
C1880 C 0.73958 0.62109 0.0954 0.0
C1881 C 0.73646 0.61391 0.13094 0.0
C1882 C 0.7461 0.6329 0.10016 0.0
C1883 C 0.74961 0.63773 0.14048 0.0
C1884 C 0.74648 0.63059 0.17598 0.0
H1885 H 0.77947 0.7056 0.24382 0.0
H1886 H 0.77 0.68502 0.23197 0.0
C1887 C 0.74005 0.61879 0.17126 0.0
C1888 C 0.75602 0.65025 0.14567 0.0
H1889 H 0.78023 0.67219 0.18802 0.0
C1890 C 0.75107 0.65654 0.1307 0.0
C1891 C 0.76675 0.65596 0.16602 0.0
C1892 C 0.77278 0.64976 0.18073 0.0
C1893 C 0.75645 0.66836 0.13641 0.0
C1894 C 0.76705 0.67401 0.15743 0.0
C1895 C 0.77206 0.66777 0.17211 0.0
C1896 C 0.77304 0.68642 0.16452 0.0
C1897 C 0.75069 0.67473 0.12076 0.0
C1898 C 0.77799 0.69393 0.1305 0.0
C1899 C 0.78346 0.70568 0.13712 0.0
C1900 C 0.78402 0.71009 0.1779 0.0
C1901 C 0.77915 0.70249 0.212 0.0
C1902 C 0.77375 0.69074 0.20536 0.0
H1903 H 0.74172 0.6689 0.11127 0.0
H1904 H 0.75083 0.68059 0.1456 0.0
H1905 H 0.75538 0.67995 0.09289 0.0
H1906 H 0.77759 0.69071 0.09882 0.0
H1907 H 0.78712 0.71128 0.11016 0.0
H1908 H 0.06756 0.27774 0.87063 0.0
H1909 H 0.07786 0.2983 0.88297 0.0
H1910 H 0.0767 0.30424 0.74962 0.0
H1911 H 0.06632 0.28369 0.73679 0.0
H1912 H 0.09966 0.31694 0.79828 0.0
H1913 H 0.06333 0.32003 0.86607 0.0
H1914 H 0.06556 0.3087 0.88421 0.0
H1915 H 0.06122 0.30868 0.83065 0.0
C1916 C 0.06949 0.2834 0.84387 0.0
C1917 C 0.0661 0.27907 0.8027 0.0
C1918 C 0.07534 0.29513 0.85104 0.0
C1919 C 0.07794 0.3027 0.81722 0.0
C1920 C 0.0747 0.29846 0.77608 0.0
H1921 H 0.11682 0.37566 0.78524 0.0
H1922 H 0.10669 0.35505 0.77631 0.0
C1923 C 0.06877 0.28673 0.76887 0.0
C1924 C 0.08419 0.31509 0.82471 0.0
H1925 H 0.08116 0.33687 0.86374 0.0
C1926 C 0.09565 0.32134 0.81255 0.0
C1927 C 0.0789 0.32068 0.8437 0.0
C1928 C 0.06656 0.31424 0.85684 0.0
C1929 C 0.10203 0.33313 0.81912 0.0
C1930 C 0.09668 0.33881 0.83724 0.0
C1931 C 0.08523 0.3325 0.84977 0.0
C1932 C 0.10276 0.35132 0.84278 0.0
C1933 C 0.11449 0.33933 0.80735 0.0
C1934 C 0.10357 0.35609 0.88293 0.0
C1935 C 0.10923 0.3679 0.8881 0.0
C1936 C 0.11418 0.37515 0.85316 0.0
C1937 C 0.11323 0.37033 0.81291 0.0
C1938 C 0.10749 0.35854 0.80775 0.0
H1939 H 0.11799 0.33347 0.80635 0.0
H1940 H 0.11552 0.34311 0.77539 0.0
H1941 H 0.11959 0.34629 0.83005 0.0
H1942 H 0.0999 0.35066 0.91033 0.0
H1943 H 0.10979 0.37133 0.91951 0.0
H1944 H 0.70186 0.77642 0.73448 0.0
H1945 H 0.68118 0.76634 0.74392 0.0
H1946 H 0.68529 0.78242 0.86535 0.0
H1947 H 0.70595 0.79257 0.85629 0.0
H1948 H 0.66868 0.75128 0.81263 0.0
H1949 H 0.66205 0.78846 0.80109 0.0
H1950 H 0.67481 0.78883 0.78222 0.0
H1951 H 0.67288 0.79006 0.83778 0.0
C1952 C 0.69838 0.77788 0.76309 0.0
C1953 C 0.70557 0.78533 0.79459 0.0
C1954 C 0.68657 0.7721 0.76843 0.0
C1955 C 0.68175 0.77375 0.80509 0.0
C1956 C 0.68887 0.78118 0.83655 0.0
H1957 H 0.6144 0.73268 0.91064 0.0
H1958 H 0.63488 0.74309 0.89659 0.0
C1959 C 0.70067 0.78693 0.83136 0.0
C1960 C 0.66928 0.76745 0.81109 0.0
H1961 H 0.64622 0.77098 0.82337 0.0
C1962 C 0.66374 0.75556 0.81481 0.0
C1963 C 0.66291 0.77309 0.81352 0.0
C1964 C 0.66842 0.78581 0.8081 0.0
C1965 C 0.65196 0.74915 0.8218 0.0
C1966 C 0.64564 0.75483 0.82548 0.0
C1967 C 0.65114 0.76669 0.82087 0.0
C1968 C 0.63328 0.74858 0.83402 0.0
C1969 C 0.64635 0.73637 0.82486 0.0
C1970 C 0.62566 0.74844 0.80376 0.0
C1971 C 0.61396 0.74252 0.81164 0.0
C1972 C 0.60969 0.73672 0.85014 0.0
C1973 C 0.61739 0.73703 0.88063 0.0
C1974 C 0.62909 0.74291 0.87261 0.0
H1975 H 0.65187 0.73318 0.81195 0.0
H1976 H 0.64458 0.73379 0.85856 0.0
H1977 H 0.63812 0.7322 0.80759 0.0
H1978 H 0.62877 0.75283 0.77387 0.0
H1979 H 0.60827 0.74249 0.78753 0.0
H1980 H 0.20914 0.92114 0.73095 0.0
H1981 H 0.21906 0.91031 0.7387 0.0
H1982 H 0.21769 0.91256 0.87443 0.0
H1983 H 0.20764 0.92318 0.86716 0.0
H1984 H 0.23957 0.91603 0.77867 0.0
H1985 H 0.2035 0.87844 0.85459 0.0
H1986 H 0.20181 0.8893 0.82813 0.0
H1987 H 0.20733 0.89156 0.88116 0.0
C1988 C 0.21095 0.91934 0.76245 0.0
C1989 C 0.20749 0.92293 0.79844 0.0
C1990 C 0.21661 0.91315 0.76679 0.0
C1991 C 0.21888 0.91045 0.80712 0.0
C1992 C 0.21576 0.91432 0.84303 0.0
H1993 H 0.25333 0.87746 0.9133 0.0
H1994 H 0.24361 0.88822 0.89934 0.0
C1995 C 0.21006 0.92044 0.83877 0.0
C1996 C 0.2246 0.90366 0.81191 0.0
H1997 H 0.22154 0.87939 0.8568 0.0
C1998 C 0.23561 0.90797 0.79539 0.0
C1999 C 0.21936 0.89313 0.83364 0.0
C2000 C 0.20731 0.88776 0.85004 0.0
C2001 C 0.24168 0.90219 0.80123 0.0
C2002 C 0.23652 0.89181 0.82381 0.0
C2003 C 0.22546 0.88741 0.83974 0.0
C2004 C 0.24253 0.88543 0.83175 0.0
C2005 C 0.25365 0.90734 0.78424 0.0
C2006 C 0.24499 0.88022 0.79832 0.0
C2007 C 0.25049 0.87402 0.80614 0.0
C2008 C 0.25362 0.87293 0.84759 0.0
C2009 C 0.25107 0.87815 0.88102 0.0
C2010 C 0.24552 0.88429 0.87315 0.0
H2011 H 0.25713 0.91635 0.77452 0.0
H2012 H 0.25939 0.90692 0.80834 0.0
H2013 H 0.25366 0.90242 0.75621 0.0
H2014 H 0.24259 0.88088 0.76622 0.0
H2015 H 0.25231 0.8701 0.77968 0.0
H2016 H 0.70417 0.92789 0.75927 0.0
H2017 H 0.68359 0.91778 0.77053 0.0
H2018 H 0.68636 0.89302 0.84779 0.0
H2019 H 0.70704 0.9035 0.83854 0.0
H2020 H 0.66729 0.89769 0.75168 0.0
H2021 H 0.66892 0.90144 0.92619 0.0
H2022 H 0.68146 0.90888 0.89367 0.0
H2023 H 0.67606 0.89417 0.90751 0.0
C2024 C 0.70038 0.92029 0.77866 0.0
C2025 C 0.70719 0.91653 0.7984 0.0
C2026 C 0.68862 0.91452 0.78509 0.0
C2027 C 0.68344 0.90478 0.81085 0.0
C2028 C 0.69019 0.90073 0.82904 0.0
H2029 H 0.61005 0.85835 0.80746 0.0
H2030 H 0.63061 0.86759 0.79619 0.0
C2031 C 0.70199 0.90666 0.82344 0.0
C2032 C 0.67097 0.8989 0.81838 0.0
H2033 H 0.6508 0.88892 0.8961 0.0
C2034 C 0.66368 0.89583 0.78329 0.0
C2035 C 0.66627 0.89666 0.85963 0.0
C2036 C 0.67359 0.90057 0.89886 0.0
C2037 C 0.65184 0.89055 0.78823 0.0
C2038 C 0.64711 0.8878 0.82942 0.0
C2039 C 0.65441 0.89091 0.86451 0.0
C2040 C 0.63465 0.88195 0.83704 0.0
C2041 C 0.64459 0.88835 0.74926 0.0
C2042 C 0.63011 0.88664 0.86534 0.0
C2043 C 0.6184 0.88117 0.87286 0.0
C2044 C 0.61101 0.87101 0.85171 0.0
C2045 C 0.61555 0.86626 0.82372 0.0
C2046 C 0.62729 0.87159 0.81698 0.0
H2047 H 0.64956 0.89417 0.72299 0.0
H2048 H 0.64148 0.87951 0.73825 0.0
H2049 H 0.63713 0.88941 0.75587 0.0
H2050 H 0.63562 0.89459 0.88136 0.0
H2051 H 0.61511 0.88503 0.89454 0.0
H2052 H 0.08188 0.80122 0.83693 0.0
H2053 H 0.09513 0.79404 0.84571 0.0
H2054 H 0.07431 0.76584 0.76307 0.0
H2055 H 0.06149 0.77337 0.75224 0.0
H2056 H 0.09231 0.77593 0.88004 0.0
H2057 H 0.10429 0.77445 0.71461 0.0
H2058 H 0.09656 0.78154 0.72956 0.0
H2059 H 0.08912 0.76641 0.71973 0.0
C2060 C 0.08026 0.79359 0.82016 0.0
C2061 C 0.07073 0.78789 0.79366 0.0
C2062 C 0.08782 0.78949 0.82519 0.0
C2063 C 0.08587 0.77952 0.80437 0.0
C2064 C 0.07627 0.77378 0.77821 0.0
H2065 H 0.1057 0.73224 0.89277 0.0
H2066 H 0.09735 0.74431 0.88092 0.0
C2067 C 0.06887 0.77803 0.77233 0.0
C2068 C 0.09338 0.77464 0.81237 0.0
H2069 H 0.1067 0.76207 0.76344 0.0
C2070 C 0.09562 0.77308 0.85447 0.0
C2071 C 0.09796 0.77115 0.77918 0.0
C2072 C 0.09696 0.77361 0.7333 0.0
C2073 C 0.10186 0.76768 0.86427 0.0
C2074 C 0.1055 0.76323 0.8311 0.0
C2075 C 0.10373 0.76527 0.78899 0.0
C2076 C 0.11078 0.7561 0.83922 0.0
C2077 C 0.10452 0.76692 0.9101 0.0
C2078 C 0.12088 0.7584 0.81843 0.0
C2079 C 0.12546 0.75127 0.82409 0.0
C2080 C 0.12012 0.74181 0.85115 0.0
C2081 C 0.11009 0.73958 0.87225 0.0
C2082 C 0.10537 0.74654 0.86578 0.0
H2083 H 0.10511 0.77416 0.92862 0.0
H2084 H 0.09753 0.75898 0.92403 0.0
H2085 H 0.11264 0.76687 0.91363 0.0
H2086 H 0.12519 0.76568 0.79759 0.0
H2087 H 0.13321 0.75318 0.80746 0.0
H2088 H 0.21807 0.28294 0.76162 0.0
H2089 H 0.22985 0.30344 0.77302 0.0
H2090 H 0.20429 0.30255 0.85703 0.0
H2091 H 0.19281 0.28195 0.84763 0.0
H2092 H 0.22687 0.32011 0.75542 0.0
H2093 H 0.23146 0.31996 0.92887 0.0
H2094 H 0.22538 0.30706 0.89804 0.0
H2095 H 0.21672 0.31304 0.91448 0.0
C2096 C 0.21501 0.28713 0.78269 0.0
C2097 C 0.20458 0.28087 0.804 0.0
C2098 C 0.22175 0.29883 0.78923 0.0
C2099 C 0.2181 0.30452 0.81668 0.0
C2100 C 0.2075 0.29831 0.83697 0.0
H2101 H 0.24057 0.37608 0.8043 0.0
H2102 H 0.23127 0.35549 0.79564 0.0
C2103 C 0.20089 0.28656 0.83125 0.0
C2104 C 0.22514 0.31701 0.82263 0.0
H2105 H 0.23577 0.33785 0.89773 0.0
C2106 C 0.22893 0.32398 0.78658 0.0
C2107 C 0.22809 0.32207 0.86322 0.0
C2108 C 0.22531 0.31512 0.90327 0.0
C2109 C 0.23526 0.33586 0.78995 0.0
C2110 C 0.23741 0.34094 0.83052 0.0
C2111 C 0.23396 0.33397 0.86659 0.0
C2112 C 0.243 0.35344 0.83627 0.0
C2113 C 0.2397 0.34278 0.74993 0.0
C2114 C 0.25235 0.35911 0.86365 0.0
C2115 C 0.25745 0.37086 0.8697 0.0
C2116 C 0.25339 0.37714 0.84799 0.0
C2117 C 0.24399 0.37146 0.82089 0.0
C2118 C 0.23873 0.3597 0.81563 0.0
H2119 H 0.24097 0.33783 0.72462 0.0
H2120 H 0.23338 0.34505 0.73819 0.0
H2121 H 0.24791 0.35073 0.75539 0.0
H2122 H 0.25574 0.35445 0.88017 0.0
H2123 H 0.2647 0.37504 0.89077 0.0
H2124 H 0.90683 0.70728 0.1253 0.0
H2125 H 0.89615 0.68661 0.11773 0.0
H2126 H 0.90151 0.68277 0.24963 0.0
H2127 H 0.91233 0.70352 0.25773 0.0
H2128 H 0.90687 0.67208 0.14424 0.0
H2129 H 0.86565 0.66133 0.22104 0.0
H2130 H 0.87475 0.67508 0.19719 0.0
H2131 H 0.87875 0.6715 0.24638 0.0
C2132 C 0.90565 0.70208 0.15292 0.0
C2133 C 0.91047 0.70706 0.19214 0.0
C2134 C 0.89955 0.69028 0.14845 0.0
C2135 C 0.89805 0.68325 0.18314 0.0
C2136 C 0.90255 0.68812 0.22262 0.0
H2137 H 0.86393 0.60985 0.20791 0.0
H2138 H 0.87319 0.63033 0.2203 0.0
C2139 C 0.90873 0.69995 0.22712 0.0
C2140 C 0.89238 0.67083 0.17716 0.0
H2141 H 0.86758 0.64608 0.19515 0.0
C2142 C 0.89828 0.66636 0.15533 0.0
C2143 C 0.88125 0.66348 0.19206 0.0
C2144 C 0.87464 0.66802 0.21538 0.0
C2145 C 0.89331 0.65464 0.14806 0.0
C2146 C 0.88203 0.64727 0.16199 0.0
C2147 C 0.87619 0.65176 0.18428 0.0
C2148 C 0.87619 0.63487 0.15405 0.0
C2149 C 0.90029 0.65026 0.12635 0.0
C2150 C 0.87463 0.63063 0.11261 0.0
C2151 C 0.86943 0.61892 0.10538 0.0
C2152 C 0.86554 0.61124 0.13949 0.0
C2153 C 0.86683 0.61552 0.18091 0.0
C2154 C 0.87212 0.62722 0.18809 0.0
H2155 H 0.90957 0.6564 0.12887 0.0
H2156 H 0.89855 0.642 0.13999 0.0
H2157 H 0.89807 0.64897 0.09225 0.0
H2158 H 0.87746 0.63638 0.08583 0.0
H2159 H 0.86846 0.6159 0.0731 0.0
H2160 H 0.36869 0.24909 0.06846 0.0
H2161 H 0.348 0.23852 0.07713 0.0
H2162 H 0.35203 0.23715 0.21194 0.0
H2163 H 0.3727 0.24743 0.20354 0.0
H2164 H 0.33587 0.21682 0.18041 0.0
H2165 H 0.32879 0.25139 0.12197 0.0
H2166 H 0.33614 0.2473 0.08493 0.0
H2167 H 0.34277 0.25369 0.13448 0.0
C2168 C 0.36518 0.24654 0.09996 0.0
C2169 C 0.37235 0.24916 0.13534 0.0
C2170 C 0.35335 0.24056 0.10487 0.0
C2171 C 0.34849 0.23726 0.14527 0.0
C2172 C 0.35562 0.23968 0.18051 0.0
H2173 H 0.28048 0.20638 0.24999 0.0
H2174 H 0.30109 0.21585 0.23865 0.0
C2175 C 0.36743 0.24556 0.17562 0.0
C2176 C 0.33598 0.2312 0.15095 0.0
H2177 H 0.31229 0.23346 0.13456 0.0
C2178 C 0.33072 0.22047 0.17051 0.0
C2179 C 0.3293 0.23602 0.13813 0.0
C2180 C 0.33453 0.24778 0.11908 0.0
C2181 C 0.31891 0.21437 0.17719 0.0
C2182 C 0.31226 0.21916 0.16406 0.0
C2183 C 0.31747 0.22984 0.14436 0.0
C2184 C 0.29984 0.21324 0.17095 0.0
C2185 C 0.31358 0.20281 0.19785 0.0
C2186 C 0.2924 0.20874 0.1365 0.0
C2187 C 0.28064 0.20329 0.14282 0.0
C2188 C 0.27614 0.20236 0.18369 0.0
C2189 C 0.28367 0.20695 0.21812 0.0
C2190 C 0.29542 0.21232 0.21178 0.0
H2191 H 0.31961 0.19952 0.19988 0.0
H2192 H 0.31084 0.2034 0.23038 0.0
H2193 H 0.30591 0.1966 0.18002 0.0
H2194 H 0.29571 0.20944 0.10476 0.0
H2195 H 0.2751 0.19989 0.11559 0.0
H2196 H 0.74559 0.12719 0.18179 0.0
H2197 H 0.7564 0.11725 0.18763 0.0
H2198 H 0.74346 0.10126 0.06684 0.0
H2199 H 0.73262 0.11123 0.06034 0.0
H2200 H 0.74093 0.08692 0.15109 0.0
H2201 H 0.78433 0.12106 0.104 0.0
H2202 H 0.77579 0.12483 0.13663 0.0
H2203 H 0.77156 0.12032 0.08317 0.0
C2204 C 0.74512 0.12166 0.15619 0.0
C2205 C 0.73821 0.11998 0.12063 0.0
C2206 C 0.75132 0.11602 0.15959 0.0
C2207 C 0.75071 0.10859 0.12761 0.0
C2208 C 0.74403 0.10703 0.09171 0.0
H2209 H 0.78888 0.07279 0.11226 0.0
H2210 H 0.77929 0.08356 0.09622 0.0
C2211 C 0.73787 0.11273 0.08809 0.0
C2212 C 0.7565 0.10194 0.13317 0.0
H2213 H 0.78264 0.10405 0.13128 0.0
C2214 C 0.75003 0.09061 0.14655 0.0
C2215 C 0.76833 0.10682 0.12691 0.0
C2216 C 0.77548 0.11892 0.11169 0.0
C2217 C 0.75518 0.08404 0.15473 0.0
C2218 C 0.7671 0.08903 0.14982 0.0
C2219 C 0.77352 0.10029 0.13532 0.0
C2220 C 0.77308 0.08271 0.1599 0.0
C2221 C 0.7478 0.07182 0.16833 0.0
C2222 C 0.77291 0.07885 0.2012 0.0
C2223 C 0.77834 0.07267 0.21051 0.0
C2224 C 0.78413 0.07031 0.17868 0.0
C2225 C 0.78449 0.07442 0.1375 0.0
C2226 C 0.77902 0.08058 0.12825 0.0
H2227 H 0.73873 0.06848 0.1598 0.0
H2228 H 0.75074 0.06629 0.1537 0.0
H2229 H 0.7483 0.07125 0.2032 0.0
H2230 H 0.76856 0.08062 0.22626 0.0
H2231 H 0.77797 0.06971 0.2426 0.0
H2232 H 0.0374 0.45023 0.53394 0.0
H2233 H 0.0167 0.43951 0.54002 0.0
H2234 H 0.01385 0.43342 0.4055 0.0
H2235 H 0.03462 0.44396 0.39911 0.0
H2236 H 0.0014 0.4444 0.50224 0.0
H2237 H -0.00656 0.40165 0.45338 0.0
H2238 H 0.00743 0.41309 0.46721 0.0
H2239 H 0.0015 0.41284 0.41615 0.0
C2240 C 0.03239 0.44656 0.50561 0.0
C2241 C 0.03767 0.44794 0.46602 0.0
C2242 C 0.02056 0.44044 0.50918 0.0
C2243 C 0.01376 0.43558 0.47331 0.0
C2244 C 0.01896 0.43691 0.4337 0.0
H2245 H 0.9398 0.39907 0.44729 0.0
H2246 H 0.96028 0.40964 0.43291 0.0
C2247 C 0.03083 0.44299 0.4301 0.0
C2248 C 0.00122 0.4295 0.47749 0.0
H2249 H 0.97723 0.40361 0.46502 0.0
C2250 C -0.00389 0.43548 0.49409 0.0
C2251 C -0.00564 0.41788 0.46668 0.0
C2252 C -0.00056 0.41094 0.4502 0.0
C2253 C 0.98432 0.43012 0.50043 0.0
C2254 C 0.97751 0.41849 0.49018 0.0
C2255 C 0.98254 0.41255 0.47277 0.0
C2256 C 0.96516 0.41224 0.49883 0.0
C2257 C 0.97921 0.43693 0.518 0.0
C2258 C 0.96121 0.41017 0.54066 0.0
C2259 C 0.94954 0.4041 0.54905 0.0
C2260 C 0.94163 0.40002 0.51567 0.0
C2261 C 0.94566 0.40214 0.47372 0.0
C2262 C 0.95734 0.40815 0.4654 0.0
H2263 H 0.98519 0.44624 0.51564 0.0
H2264 H 0.97122 0.43484 0.50108 0.0
H2265 H 0.97709 0.43475 0.55187 0.0
H2266 H 0.96716 0.41317 0.56683 0.0
H2267 H 0.94673 0.4026 0.58169 0.0
H2268 H 0.5814 0.54121 0.5902 0.0
H2269 H 0.57002 0.55056 0.58323 0.0
H2270 H 0.56899 0.54608 0.44792 0.0
H2271 H 0.58009 0.53651 0.45457 0.0
H2272 H 0.57512 0.56995 0.54075 0.0
H2273 H 0.53575 0.53386 0.47487 0.0
H2274 H 0.54686 0.53204 0.49845 0.0
H2275 H 0.54818 0.53695 0.44472 0.0
C2276 C 0.57867 0.54214 0.55899 0.0
C2277 C 0.58159 0.53805 0.52297 0.0
C2278 C 0.57217 0.54748 0.55508 0.0
C2279 C 0.56848 0.54882 0.51514 0.0
C2280 C 0.57148 0.54485 0.47914 0.0
H2281 H 0.53818 0.58634 0.41288 0.0
H2282 H 0.54799 0.57557 0.42529 0.0
C2283 C 0.57789 0.53945 0.48302 0.0
C2284 C 0.56193 0.55481 0.51082 0.0
H2285 H 0.53744 0.55225 0.4699 0.0
C2286 C 0.56683 0.56604 0.52567 0.0
C2287 C 0.5511 0.54967 0.49118 0.0
C2288 C 0.54511 0.53743 0.47678 0.0
C2289 C 0.56132 0.57238 0.52034 0.0
C2290 C 0.55066 0.56733 0.49977 0.0
C2291 C 0.54567 0.55608 0.48541 0.0
C2292 C 0.5446 0.57368 0.49251 0.0
C2293 C 0.56701 0.58453 0.53578 0.0
C2294 C 0.53939 0.57602 0.52625 0.0
C2295 C 0.53373 0.5821 0.51931 0.0
C2296 C 0.53324 0.58597 0.47848 0.0
C2297 C 0.53843 0.58352 0.44471 0.0
C2298 C 0.54402 0.57736 0.45167 0.0
H2299 H 0.57594 0.58767 0.54594 0.0
H2300 H 0.56698 0.5902 0.51052 0.0
H2301 H 0.56218 0.5851 0.56309 0.0
H2302 H 0.53971 0.57315 0.55792 0.0
H2303 H 0.52982 0.58385 0.54601 0.0
H2304 H 0.43798 0.03724 0.56592 0.0
H2305 H 0.42936 0.01682 0.55343 0.0
H2306 H 0.45543 0.0232 0.46141 0.0
H2307 H 0.46371 0.04369 0.4721 0.0
H2308 H 0.43608 0.0082 0.43181 0.0
H2309 H 0.43858 -0.00484 0.59504 0.0
H2310 H 0.43073 0.00256 0.59375 0.0
H2311 H 0.4456 0.00989 0.57928 0.0
C2312 C 0.44193 0.03427 0.54331 0.0
C2313 C 0.45154 0.04203 0.52013 0.0
C2314 C 0.43704 0.02259 0.53641 0.0
C2315 C 0.4419 0.01842 0.50722 0.0
C2316 C 0.45156 0.02619 0.48425 0.0
H2317 H 0.41852 0.94574 0.50216 0.0
H2318 H 0.43002 0.9664 0.50987 0.0
C2319 C 0.45629 0.03789 0.4904 0.0
C2320 C 0.43658 0.00602 0.49918 0.0
H2321 H 0.42571 0.9803 0.54845 0.0
C2322 C 0.43395 0.00211 0.4573 0.0
C2323 C 0.43398 -0.00195 0.53225 0.0
C2324 C 0.43749 0.00165 0.57749 0.0
C2325 C 0.42853 0.99046 0.44769 0.0
C2326 C 0.4252 0.98246 0.48107 0.0
C2327 C 0.4281 0.98639 0.52283 0.0
C2328 C 0.4186 0.96999 0.47371 0.0
C2329 C 0.42666 0.98693 0.40179 0.0
C2330 C 0.40836 0.9651 0.45072 0.0
C2331 C 0.40194 0.95332 0.44538 0.0
C2332 C 0.40545 0.94619 0.46414 0.0
C2333 C 0.41562 0.95105 0.48744 0.0
C2334 C 0.42218 0.96285 0.49188 0.0
H2335 H 0.43309 0.99374 0.38115 0.0
H2336 H 0.42707 0.97905 0.39652 0.0
H2337 H 0.41815 0.98537 0.39179 0.0
H2338 H 0.40519 0.97036 0.43765 0.0
H2339 H 0.39404 0.94977 0.42778 0.0
H2340 H 0.58319 0.03644 0.58659 0.0
H2341 H 0.57149 0.01576 0.57871 0.0
H2342 H 0.56103 0.02021 0.45478 0.0
H2343 H 0.5726 0.04083 0.46228 0.0
H2344 H 0.54298 0.00369 0.50819 0.0
H2345 H 0.58044 -0.00264 0.49677 0.0
H2346 H 0.58005 0.00521 0.542 0.0
H2347 H 0.58158 0.01112 0.49 0.0
C2348 C 0.57834 0.03303 0.55776 0.0
C2349 C 0.5789 0.0403 0.52493 0.0
C2350 C 0.57171 0.02122 0.55328 0.0
C2351 C 0.56553 0.01651 0.51598 0.0
C2352 C 0.56578 0.02372 0.48375 0.0
H2353 H 0.53823 0.9493 0.41079 0.0
H2354 H 0.54777 0.96977 0.42416 0.0
C2355 C 0.57242 0.0355 0.4881 0.0
C2356 C 0.55904 0.00405 0.50976 0.0
H2357 H 0.56227 0.98089 0.49521 0.0
C2358 C 0.54716 -0.00133 0.50553 0.0
C2359 C 0.56459 -0.00238 0.50578 0.0
C2360 C 0.57738 0.00309 0.50852 0.0
C2361 C 0.54065 0.98694 0.49753 0.0
C2362 C 0.54619 0.9805 0.49397 0.0
C2363 C 0.55807 0.98589 0.49814 0.0
C2364 C 0.53987 0.96815 0.48518 0.0
C2365 C 0.52794 0.98158 0.492 0.0
C2366 C 0.53226 0.9605 0.51509 0.0
C2367 C 0.5268 0.94879 0.50763 0.0
C2368 C 0.52889 0.94454 0.47012 0.0
C2369 C 0.5364 0.95227 0.43995 0.0
C2370 C 0.54188 0.96397 0.44753 0.0
H2371 H 0.52533 0.98806 0.48694 0.0
H2372 H 0.52497 0.9756 0.4648 0.0
H2373 H 0.5236 0.97666 0.52086 0.0
H2374 H 0.53073 0.96358 0.5446 0.0
H2375 H 0.52109 0.94308 0.53157 0.0
H2376 H 0.9497 0.54163 0.58363 0.0
H2377 H 0.97035 0.55103 0.57334 0.0
H2378 H 0.96548 0.54616 0.43864 0.0
H2379 H 0.94486 0.53673 0.44837 0.0
H2380 H 0.98322 0.54144 0.52574 0.0
H2381 H 0.98759 0.58151 0.4601 0.0
H2382 H 0.9756 0.57184 0.49228 0.0
H2383 H 0.97648 0.5684 0.43812 0.0
C2384 C 0.95301 0.54254 0.55181 0.0
C2385 C 0.94563 0.53846 0.51681 0.0
C2386 C 0.96479 0.54789 0.54605 0.0
C2387 C 0.96937 0.54934 0.50525 0.0
C2388 C 0.96206 0.54518 0.47033 0.0
H2389 H 0.03715 0.5845 0.39913 0.0
H2390 H 0.01661 0.57346 0.41095 0.0
C2391 C 0.95029 0.53978 0.47602 0.0
C2392 C 0.98181 0.55526 0.49896 0.0
H2393 H 0.00398 0.57964 0.4592 0.0
C2394 C 0.98781 0.54981 0.51137 0.0
C2395 C 0.98766 0.56613 0.48001 0.0
C2396 C 0.98156 0.5724 0.46704 0.0
C2397 C -0.00042 0.55489 0.50452 0.0
C2398 C 0.00548 0.56581 0.4857 0.0
C2399 C -0.00056 0.57126 0.47351 0.0
C2400 C 0.01793 0.57182 0.4785 0.0
C2401 C 0.00553 0.5484 0.51649 0.0
C2402 C 0.02547 0.57453 0.51258 0.0
C2403 C 0.03722 0.58076 0.50591 0.0
C2404 C 0.04163 0.58454 0.46508 0.0
C2405 C 0.03404 0.58173 0.43097 0.0
C2406 C 0.0223 0.57543 0.43765 0.0
H2407 H -0.00055 0.53911 0.51891 0.0
H2408 H 0.01222 0.5498 0.49309 0.0
H2409 H 0.00964 0.55139 0.54781 0.0
H2410 H 0.02228 0.57206 0.5445 0.0
H2411 H 0.04283 0.58285 0.53293 0.0
H2412 H 0.4008 0.45022 0.53886 0.0
H2413 H 0.41119 0.43994 0.54835 0.0
H2414 H 0.40935 0.43348 0.41427 0.0
H2415 H 0.3989 0.44372 0.40428 0.0
H2416 H 0.40348 0.41597 0.51932 0.0
H2417 H 0.44428 0.44945 0.44918 0.0
H2418 H 0.43364 0.45251 0.46964 0.0
H2419 H 0.43144 0.44541 0.41977 0.0
C2420 C 0.40259 0.44662 0.51133 0.0
C2421 C 0.39906 0.44783 0.47076 0.0
C2422 C 0.40851 0.44074 0.51687 0.0
C2423 C 0.41109 0.43608 0.48196 0.0
C2424 C 0.4075 0.43714 0.4415 0.0
H2425 H 0.45017 0.40194 0.45157 0.0
H2426 H 0.43932 0.41171 0.44131 0.0
C2427 C 0.40151 0.44295 0.43592 0.0
C2428 C 0.41754 0.43007 0.48795 0.0
H2429 H 0.44339 0.43232 0.46987 0.0
C2430 C 0.41221 0.41952 0.50862 0.0
C2431 C 0.42888 0.43475 0.47369 0.0
C2432 C 0.43498 0.44619 0.45203 0.0
C2433 C 0.41792 0.41341 0.51498 0.0
C2434 C 0.42935 0.41816 0.50126 0.0
C2435 C 0.43464 0.42872 0.48045 0.0
C2436 C 0.43595 0.41229 0.50789 0.0
C2437 C 0.41158 0.40181 0.53541 0.0
C2438 C 0.43782 0.40957 0.54882 0.0
C2439 C 0.44395 0.40391 0.55482 0.0
C2440 C 0.44847 0.40103 0.51999 0.0
C2441 C 0.44681 0.40403 0.4791 0.0
C2442 C 0.44061 0.40961 0.47314 0.0
H2443 H 0.4022 0.3981 0.53294 0.0
H2444 H 0.41392 0.39582 0.52073 0.0
H2445 H 0.41379 0.4026 0.56949 0.0
H2446 H 0.43455 0.41183 0.57616 0.0
H2447 H 0.44515 0.40182 0.58675 0.0
H2448 H 0.23528 0.07327 0.31817 0.0
H2449 H 0.23125 0.08721 0.35169 0.0
H2450 H 0.21593 0.08983 0.23577 0.0
H2451 H 0.21985 0.07601 0.20239 0.0
H2452 H 0.24082 0.10892 0.32161 0.0
H2453 H 0.19435 0.09043 0.32312 0.0
H2454 H 0.20101 0.08174 0.32019 0.0
H2455 H 0.19868 0.08774 0.2729 0.0
C2456 C 0.23081 0.07663 0.30023 0.0
C2457 C 0.22798 0.07365 0.2575 0.0
C2458 C 0.22848 0.08455 0.31948 0.0
C2459 C 0.2231 0.08938 0.2965 0.0
C2460 C 0.2198 0.08597 0.25453 0.0
H2461 H 0.22287 0.1417 0.2001 0.0
H2462 H 0.21941 0.12401 0.23261 0.0
C2463 C 0.2222 0.07818 0.23524 0.0
C2464 C 0.22266 0.09938 0.31265 0.0
H2465 H 0.20553 0.11102 0.30537 0.0
C2466 C 0.23306 0.10936 0.31999 0.0
C2467 C 0.2125 0.09988 0.31117 0.0
C2468 C 0.201 0.08931 0.30688 0.0
C2469 C 0.23377 0.12003 0.31955 0.0
C2470 C 0.22378 0.1206 0.31206 0.0
C2471 C 0.2132 0.11054 0.31053 0.0
C2472 C 0.22453 0.13111 0.2954 0.0
C2473 C 0.24533 0.13063 0.32214 0.0
C2474 C 0.22837 0.14092 0.32023 0.0
C2475 C 0.23043 0.15114 0.30158 0.0
C2476 C 0.2287 0.15165 0.25789 0.0
C2477 C 0.22441 0.14166 0.2337 0.0
C2478 C 0.22233 0.1315 0.2523 0.0
H2479 H 0.25228 0.12865 0.32675 0.0
H2480 H 0.24705 0.13571 0.29272 0.0
H2481 H 0.24548 0.13598 0.34897 0.0
H2482 H 0.23005 0.14074 0.35362 0.0
H2483 H 0.23367 0.15869 0.32111 0.0
H2484 H 0.84467 0.075 0.20835 0.0
H2485 H 0.8622 0.08962 0.24045 0.0
H2486 H 0.84384 0.08855 0.35348 0.0
H2487 H 0.82609 0.07381 0.32132 0.0
H2488 H 0.85609 0.10989 0.31886 0.0
H2489 H 0.88395 0.09136 0.33244 0.0
H2490 H 0.87716 0.08803 0.28171 0.0
H2491 H 0.86862 0.08268 0.32893 0.0
C2492 C 0.84435 0.07771 0.24032 0.0
C2493 C 0.83397 0.07332 0.26214 0.0
C2494 C 0.85442 0.08597 0.25889 0.0
C2495 C 0.85436 0.09 0.2997 0.0
C2496 C 0.84408 0.08541 0.32221 0.0
H2497 H 0.91272 0.15971 0.31905 0.0
H2498 H 0.89825 0.14208 0.35318 0.0
C2499 C 0.83396 0.07703 0.30372 0.0
C2500 C 0.86472 0.10023 0.31497 0.0
H2501 H 0.89352 0.11172 0.31224 0.0
C2502 C 0.86428 0.1103 0.31928 0.0
C2503 C 0.87536 0.10069 0.31614 0.0
C2504 C 0.87628 0.09006 0.31502 0.0
C2505 C 0.87427 0.12095 0.31856 0.0
C2506 C 0.88488 0.12141 0.31394 0.0
C2507 C 0.88535 0.11132 0.3153 0.0
C2508 C 0.89484 0.13173 0.29709 0.0
C2509 C 0.87333 0.13157 0.31785 0.0
C2510 C 0.89791 0.13161 0.25485 0.0
C2511 C 0.90607 0.14157 0.23538 0.0
C2512 C 0.91136 0.15188 0.2578 0.0
C2513 C 0.90872 0.1519 0.30088 0.0
C2514 C 0.90048 0.14187 0.32042 0.0
H2515 H 0.86436 0.12966 0.32015 0.0
H2516 H 0.87816 0.13715 0.34477 0.0
H2517 H 0.87708 0.13639 0.28818 0.0
H2518 H 0.89362 0.12387 0.23629 0.0
H2519 H 0.90798 0.14121 0.20233 0.0
H2520 H 0.91423 0.75331 0.31577 0.0
H2521 H 0.90002 0.75731 0.3471 0.0
H2522 H 0.89505 0.76863 0.22561 0.0
H2523 H 0.90921 0.76484 0.19433 0.0
H2524 H 0.8946 0.78178 0.29685 0.0
H2525 H 0.86632 0.73487 0.31692 0.0
H2526 H 0.8801 0.74184 0.34177 0.0
H2527 H 0.87908 0.74052 0.28525 0.0
C2528 C 0.91026 0.75686 0.29596 0.0
C2529 C 0.91269 0.75857 0.25239 0.0
C2530 C 0.90214 0.75911 0.31391 0.0
C2531 C 0.89641 0.76312 0.28851 0.0
C2532 C 0.8994 0.76554 0.24576 0.0
H2533 H 0.8445 0.76667 0.19604 0.0
H2534 H 0.86245 0.77056 0.22734 0.0
C2535 C 0.90744 0.76328 0.22784 0.0
C2536 C 0.88635 0.76357 0.30389 0.0
H2537 H 0.85768 0.74599 0.31296 0.0
C2538 C 0.88656 0.77401 0.30188 0.0
C2539 C 0.8759 0.75343 0.31107 0.0
C2540 C 0.87523 0.74199 0.31386 0.0
C2541 C 0.87643 0.77441 0.30219 0.0
C2542 C 0.86591 0.76412 0.30386 0.0
C2543 C 0.86578 0.75386 0.31125 0.0
C2544 C 0.85527 0.76343 0.2886 0.0
C2545 C 0.87705 0.78578 0.2977 0.0
C2546 C 0.84521 0.75802 0.31253 0.0
C2547 C 0.83484 0.7557 0.29449 0.0
C2548 C 0.83438 0.75857 0.25203 0.0
C2549 C 0.84454 0.76429 0.22873 0.0
C2550 C 0.85486 0.76668 0.24681 0.0
H2551 H 0.88479 0.79259 0.31342 0.0
H2552 H 0.8776 0.78798 0.26365 0.0
H2553 H 0.86942 0.78562 0.31141 0.0
H2554 H 0.84534 0.75529 0.34462 0.0
H2555 H 0.82714 0.75128 0.31324 0.0
H2556 H 0.07184 0.24105 0.66486 0.0
H2557 H 0.08701 0.23855 0.63323 0.0
H2558 H 0.08899 0.22235 0.74778 0.0
H2559 H 0.07399 0.22477 0.77934 0.0
H2560 H 0.10862 0.24842 0.66759 0.0
H2561 H 0.09107 0.20213 0.65727 0.0
H2562 H 0.0821 0.20848 0.65982 0.0
H2563 H 0.08759 0.20571 0.70755 0.0
C2564 C 0.07537 0.23675 0.68291 0.0
C2565 C 0.07179 0.23318 0.72472 0.0
C2566 C 0.08399 0.2353 0.66474 0.0
C2567 C 0.08895 0.23006 0.68784 0.0
C2568 C 0.08506 0.22613 0.72893 0.0
H2569 H 0.14105 0.22997 0.78771 0.0
H2570 H 0.12369 0.22716 0.75429 0.0
C2571 C 0.07658 0.22767 0.74718 0.0
C2572 C 0.0993 0.23015 0.67267 0.0
H2573 H 0.11141 0.21341 0.67769 0.0
C2574 C 0.10923 0.24075 0.66785 0.0
C2575 C 0.10004 0.22012 0.67241 0.0
C2576 C 0.08958 0.20847 0.67407 0.0
C2577 C 0.12 0.24167 0.66893 0.0
C2578 C 0.12074 0.23172 0.67465 0.0
C2579 C 0.1108 0.22103 0.6738 0.0
C2580 C 0.13116 0.23243 0.69206 0.0
C2581 C 0.1305 0.25332 0.66888 0.0
C2582 C 0.14108 0.2362 0.66785 0.0
C2583 C 0.15111 0.23784 0.687 0.0
C2584 C 0.15131 0.2358 0.73059 0.0
C2585 C 0.14124 0.23172 0.75421 0.0
C2586 C 0.13127 0.23003 0.7351 0.0
H2587 H 0.12844 0.26021 0.66393 0.0
H2588 H 0.13506 0.25482 0.69947 0.0
H2589 H 0.13637 0.25384 0.64341 0.0
H2590 H 0.1411 0.23806 0.63452 0.0
H2591 H 0.15873 0.24096 0.66795 0.0
H2592 H 0.75955 0.84682 0.77687 0.0
H2593 H 0.76265 0.86423 0.74293 0.0
H2594 H 0.74991 0.84627 0.62509 0.0
H2595 H 0.74671 0.8286 0.65907 0.0
H2596 H 0.77544 0.87616 0.66493 0.0
H2597 H 0.72854 0.85937 0.65812 0.0
H2598 H 0.73423 0.85268 0.69187 0.0
H2599 H 0.7346 0.85137 0.63552 0.0
C2600 C 0.75748 0.84653 0.74364 0.0
C2601 C 0.75275 0.83629 0.72081 0.0
C2602 C 0.75935 0.85652 0.7242 0.0
C2603 C 0.75647 0.8565 0.68162 0.0
C2604 C 0.75215 0.84642 0.65806 0.0
H2605 H 0.74681 0.91508 0.66346 0.0
H2606 H 0.74964 0.90057 0.62786 0.0
C2607 C 0.75033 0.83636 0.67752 0.0
C2608 C 0.7571 0.8669 0.66437 0.0
H2609 H 0.74045 0.87913 0.66043 0.0
C2610 C 0.7678 0.87681 0.66226 0.0
C2611 C 0.74713 0.86769 0.66016 0.0
C2612 C 0.73544 0.85725 0.66147 0.0
C2613 C 0.76876 0.88758 0.6612 0.0
C2614 C 0.75877 0.88839 0.66317 0.0
C2615 C 0.7481 0.87848 0.65941 0.0
C2616 C 0.75902 0.89871 0.67965 0.0
C2617 C 0.78045 0.898 0.66144 0.0
C2618 C 0.76342 0.90252 0.72031 0.0
C2619 C 0.7617 0.91062 0.74078 0.0
C2620 C 0.75552 0.9151 0.72104 0.0
C2621 C 0.75162 0.91177 0.67939 0.0
C2622 C 0.75325 0.90352 0.65898 0.0
H2623 H 0.78652 0.89648 0.6428 0.0
H2624 H 0.78032 0.90553 0.64835 0.0
H2625 H 0.78366 0.8999 0.69443 0.0
H2626 H 0.76762 0.89871 0.73739 0.0
H2627 H 0.76487 0.91306 0.77274 0.0
H2628 H 0.15194 0.9013 0.80059 0.0
H2629 H 0.13275 0.88631 0.78303 0.0
H2630 H 0.13124 0.90704 0.68238 0.0
H2631 H 0.15085 0.92191 0.69859 0.0
H2632 H 0.11445 0.88798 0.78966 0.0
H2633 H 0.11819 0.87688 0.62341 0.0
H2634 H 0.13048 0.8856 0.65575 0.0
H2635 H 0.12252 0.89156 0.63255 0.0
C2636 C 0.14757 0.90259 0.77433 0.0
C2637 C 0.1528 0.91273 0.751 0.0
C2638 C 0.13661 0.89404 0.76431 0.0
C2639 C 0.13054 0.89552 0.73133 0.0
C2640 C 0.13582 0.9056 0.70738 0.0
H2641 H 0.05892 0.84351 0.7613 0.0
H2642 H 0.07468 0.86255 0.74418 0.0
C2643 C 0.14698 0.9141 0.7168 0.0
C2644 C 0.11847 0.88672 0.72477 0.0
H2645 H 0.10009 0.86676 0.65517 0.0
C2646 C 0.11127 0.88338 0.76016 0.0
C2647 C 0.11435 0.8808 0.68614 0.0
C2648 C 0.12179 0.8838 0.64733 0.0
C2649 C 0.1004 0.87375 0.7592 0.0
C2650 C 0.09629 0.86766 0.72076 0.0
C2651 C 0.10322 0.87147 0.68448 0.0
C2652 C 0.08561 0.85649 0.71943 0.0
C2653 C 0.0939 0.86977 0.80039 0.0
C2654 C 0.08606 0.84678 0.7069 0.0
C2655 C 0.07686 0.83593 0.71475 0.0
C2656 C 0.06724 0.83469 0.73607 0.0
C2657 C 0.06636 0.84434 0.74524 0.0
C2658 C 0.07539 0.85519 0.73585 0.0
H2659 H 0.09946 0.87386 0.82826 0.0
H2660 H 0.08707 0.87201 0.80095 0.0
H2661 H 0.08995 0.86041 0.80403 0.0
H2662 H 0.09381 0.84755 0.69388 0.0
H2663 H 0.07769 0.82857 0.70751 0.0
H2664 H 0.90147 0.40619 0.64489 0.0
H2665 H 0.89851 0.42174 0.66857 0.0
H2666 H 0.88476 0.42231 0.54619 0.0
H2667 H 0.88757 0.40683 0.52246 0.0
H2668 H 0.9091 0.44282 0.63118 0.0
H2669 H 0.86262 0.42508 0.62524 0.0
H2670 H 0.86904 0.41618 0.62757 0.0
H2671 H 0.86759 0.42178 0.57771 0.0
C2672 C 0.89762 0.4095 0.62331 0.0
C2673 C 0.89482 0.40533 0.58169 0.0
C2674 C 0.89591 0.41834 0.63696 0.0
C2675 C 0.89122 0.42302 0.6094 0.0
C2676 C 0.8881 0.41862 0.56836 0.0
H2677 H 0.89185 0.47835 0.51551 0.0
H2678 H 0.88837 0.46002 0.54161 0.0
C2679 C 0.88985 0.40985 0.55466 0.0
C2680 C 0.89099 0.43347 0.62068 0.0
H2681 H 0.87425 0.4455 0.61006 0.0
C2682 C 0.90144 0.4434 0.6281 0.0
C2683 C 0.88096 0.43416 0.61696 0.0
C2684 C 0.86941 0.42368 0.61189 0.0
C2685 C 0.9023 0.45414 0.62716 0.0
C2686 C 0.89243 0.45487 0.61916 0.0
C2687 C 0.88182 0.44489 0.61589 0.0
C2688 C 0.89329 0.46571 0.60607 0.0
C2689 C 0.91391 0.46464 0.63079 0.0
C2690 C 0.89699 0.47493 0.634 0.0
C2691 C 0.89905 0.48551 0.61909 0.0
C2692 C 0.89745 0.48697 0.57604 0.0
C2693 C 0.89328 0.47756 0.54873 0.0
C2694 C 0.89121 0.46704 0.56364 0.0
H2695 H 0.92084 0.46255 0.63347 0.0
H2696 H 0.91562 0.47021 0.60278 0.0
H2697 H 0.91417 0.46955 0.65925 0.0
H2698 H 0.89854 0.474 0.66697 0.0
H2699 H 0.90218 0.49258 0.64097 0.0
H2700 H 0.51043 0.40824 0.52591 0.0
H2701 H 0.52852 0.42321 0.55315 0.0
H2702 H 0.51297 0.42129 0.67426 0.0
H2703 H 0.49465 0.4062 0.64702 0.0
H2704 H 0.52395 0.44282 0.64004 0.0
H2705 H 0.55262 0.42504 0.63429 0.0
H2706 H 0.54467 0.42198 0.58607 0.0
H2707 H 0.53729 0.41614 0.63523 0.0
C2708 C 0.51086 0.41085 0.55857 0.0
C2709 C 0.50108 0.4061 0.5842 0.0
C2710 C 0.52126 0.41931 0.57429 0.0
C2711 C 0.52214 0.4232 0.61599 0.0
C2712 C 0.51249 0.41827 0.64218 0.0
H2713 H 0.58068 0.49277 0.64486 0.0
H2714 H 0.56612 0.47434 0.67336 0.0
C2715 C 0.50204 0.4097 0.62651 0.0
C2716 C 0.53273 0.4335 0.62915 0.0
H2717 H 0.56147 0.44553 0.61851 0.0
C2718 C 0.5322 0.4434 0.63704 0.0
C2719 C 0.54344 0.43418 0.62565 0.0
C2720 C 0.54453 0.42371 0.62031 0.0
C2721 C 0.54206 0.45414 0.63618 0.0
C2722 C 0.55266 0.45489 0.6277 0.0
C2723 C 0.55331 0.44491 0.6246 0.0
C2724 C 0.56248 0.46566 0.61311 0.0
C2725 C 0.54095 0.46464 0.64001 0.0
C2726 C 0.56541 0.46673 0.57017 0.0
C2727 C 0.57364 0.47716 0.55384 0.0
C2728 C 0.57913 0.48675 0.58019 0.0
C2729 C 0.57654 0.48555 0.6237 0.0
C2730 C 0.56824 0.47505 0.64005 0.0
H2731 H 0.53196 0.46254 0.64413 0.0
H2732 H 0.54592 0.46974 0.66766 0.0
H2733 H 0.54446 0.47003 0.61136 0.0
H2734 H 0.56102 0.45956 0.54889 0.0
H2735 H 0.57548 0.47775 0.52029 0.0
H2736 H 0.58082 0.08569 0.64373 0.0
H2737 H 0.56619 0.08949 0.67223 0.0
H2738 H 0.56223 0.10074 0.54909 0.0
H2739 H 0.5768 0.09712 0.52054 0.0
H2740 H 0.56146 0.11405 0.61986 0.0
H2741 H 0.53262 0.06719 0.63804 0.0
H2742 H 0.54625 0.07385 0.66404 0.0
H2743 H 0.54556 0.07286 0.60743 0.0
C2744 C 0.57696 0.08916 0.62293 0.0
C2745 C 0.57984 0.09094 0.57971 0.0
C2746 C 0.56861 0.0913 0.63926 0.0
C2747 C 0.56307 0.09527 0.6126 0.0
C2748 C 0.56642 0.09768 0.57016 0.0
H2749 H 0.51013 0.10021 0.52796 0.0
H2750 H 0.52842 0.10383 0.55489 0.0
C2751 C 0.57471 0.09553 0.55384 0.0
C2752 C 0.55297 0.09583 0.62667 0.0
H2753 H 0.52428 0.07862 0.63714 0.0
C2754 C 0.55336 0.10635 0.62492 0.0
C2755 C 0.54245 0.08577 0.63376 0.0
C2756 C 0.54158 0.07424 0.63586 0.0
C2757 C 0.54334 0.10697 0.62636 0.0
C2758 C 0.53272 0.09679 0.62878 0.0
C2759 C 0.53244 0.08641 0.63502 0.0
C2760 C 0.52199 0.09637 0.61647 0.0
C2761 C 0.54418 0.11845 0.62287 0.0
C2762 C 0.51224 0.09091 0.64207 0.0
C2763 C 0.50167 0.08873 0.62651 0.0
C2764 C 0.5007 0.09181 0.58488 0.0
C2765 C 0.51057 0.09768 0.56008 0.0
C2766 C 0.52108 0.0999 0.57567 0.0
H2767 H 0.55212 0.12514 0.638 0.0
H2768 H 0.54451 0.12072 0.58897 0.0
H2769 H 0.53676 0.11845 0.63778 0.0
H2770 H 0.51275 0.08798 0.67345 0.0
H2771 H 0.49421 0.08419 0.64638 0.0
H2772 H 0.73681 0.56977 0.00856 0.0
H2773 H 0.75093 0.56516 0.98078 0.0
H2774 H 0.75276 0.552 0.10293 0.0
H2775 H 0.73873 0.55648 0.13072 0.0
H2776 H 0.77254 0.57507 0.01311 0.0
H2777 H 0.75303 0.52851 0.02387 0.0
H2778 H 0.74465 0.53552 0.02282 0.0
H2779 H 0.75061 0.53405 0.07179 0.0
C2780 C 0.74005 0.56567 0.02921 0.0
C2781 C 0.73674 0.56358 0.07196 0.0
C2782 C 0.74807 0.56301 0.01322 0.0
C2783 C 0.75272 0.55805 0.03956 0.0
C2784 C 0.74906 0.55553 0.0817 0.0
H2785 H 0.80639 0.55691 0.13271 0.0
H2786 H 0.78823 0.55344 0.10472 0.0
C2787 C 0.74114 0.55825 0.09773 0.0
C2788 C 0.76266 0.55712 0.02603 0.0
H2789 H 0.77368 0.53954 0.03756 0.0
C2790 C 0.77276 0.56724 0.01679 0.0
C2791 C 0.76288 0.54686 0.03043 0.0
C2792 C 0.75215 0.53561 0.03732 0.0
C2793 C 0.7833 0.56764 0.0172 0.0
C2794 C 0.78362 0.5576 0.02645 0.0
C2795 C 0.7734 0.54724 0.03088 0.0
C2796 C 0.79428 0.55816 0.04046 0.0
C2797 C 0.79405 0.579 0.0121 0.0
C2798 C 0.80363 0.5617 0.01328 0.0
C2799 C 0.81412 0.5638 0.02933 0.0
C2800 C 0.81536 0.56236 0.07274 0.0
C2801 C 0.80578 0.55823 0.09924 0.0
C2802 C 0.79536 0.55615 0.08323 0.0
H2803 H 0.79228 0.58612 0.0086 0.0
H2804 H 0.7997 0.58076 0.03986 0.0
H2805 H 0.79872 0.57881 0.98357 0.0
H2806 H 0.8029 0.56317 0.98005 0.0
H2807 H 0.82132 0.56688 0.00801 0.0
H2808 H 0.41674 0.16282 0.00293 0.0
H2809 H 0.42065 0.18098 0.9718 0.0
H2810 H 0.43606 0.19805 0.08893 0.0
H2811 H 0.43234 0.18013 0.11987 0.0
H2812 H 0.41089 0.19246 0.00319 0.0
H2813 H 0.45718 0.22128 0.00467 0.0
H2814 H 0.45091 0.20598 0.00674 0.0
H2815 H 0.4529 0.21406 0.05449 0.0
C2816 C 0.42123 0.1705 0.02162 0.0
C2817 C 0.42412 0.17003 0.06403 0.0
C2818 C 0.42349 0.18087 0.00372 0.0
C2819 C 0.42882 0.1909 0.02776 0.0
C2820 C 0.43223 0.19049 0.06931 0.0
H2821 H 0.42672 0.24249 0.12733 0.0
H2822 H 0.43087 0.22865 0.09538 0.0
C2823 C 0.42994 0.18019 0.08722 0.0
C2824 C 0.42902 0.20137 0.0133 0.0
H2825 H 0.44549 0.23013 0.02355 0.0
C2826 C 0.41852 0.20073 0.00577 0.0
C2827 C 0.439 0.21214 0.01608 0.0
C2828 C 0.45063 0.21338 0.02046 0.0
C2829 C 0.4175 0.21052 0.00696 0.0
C2830 C 0.42728 0.22114 0.01548 0.0
C2831 C 0.43799 0.22193 0.01758 0.0
C2832 C 0.42616 0.23071 0.03201 0.0
C2833 C 0.40582 0.20928 0.00384 0.0
C2834 C 0.42232 0.23661 0.00667 0.0
C2835 C 0.41987 0.24455 0.02498 0.0
C2836 C 0.4212 0.24663 0.06884 0.0
C2837 C 0.42549 0.24101 0.09358 0.0
C2838 C 0.42796 0.23316 0.07531 0.0
H2839 H 0.39904 0.20031 -0.00135 0.0
H2840 H 0.40385 0.21243 0.03328 0.0
H2841 H 0.40563 0.21449 0.97716 0.0
H2842 H 0.42094 0.23485 0.97312 0.0
H2843 H 0.41665 0.24879 0.00503 0.0
H2844 H 0.73514 0.16342 0.00203 0.0
H2845 H 0.74912 0.18174 0.97094 0.0
H2846 H 0.75429 0.1977 0.09318 0.0
H2847 H 0.74039 0.17961 0.12431 0.0
H2848 H 0.75384 0.21114 0.02115 0.0
H2849 H 0.78325 0.19381 0.0005 0.0
H2850 H 0.76931 0.18651 0.97692 0.0
H2851 H 0.77074 0.18656 0.03333 0.0
C2852 C 0.73912 0.17088 0.0221 0.0
C2853 C 0.7368 0.17003 0.06578 0.0
C2854 C 0.74709 0.18132 0.00427 0.0
C2855 C 0.75278 0.19101 0.02989 0.0
C2856 C 0.74996 0.1903 0.07288 0.0
H2857 H 0.80343 0.24712 0.12126 0.0
H2858 H 0.78563 0.23321 0.08887 0.0
C2859 C 0.74207 0.17993 0.09069 0.0
C2860 C 0.7626 0.20165 0.01426 0.0
H2861 H 0.79134 0.21351 0.00434 0.0
C2862 C 0.76201 0.21168 0.01597 0.0
C2863 C 0.77321 0.20231 0.00683 0.0
C2864 C 0.77428 0.19177 0.00428 0.0
C2865 C 0.77192 0.22238 0.01501 0.0
C2866 C 0.78263 0.22299 0.0132 0.0
C2867 C 0.78312 0.21302 0.00614 0.0
C2868 C 0.79311 0.23313 0.02839 0.0
C2869 C 0.77087 0.2329 0.01892 0.0
C2870 C 0.80331 0.23775 0.00523 0.0
C2871 C 0.81361 0.24571 0.02397 0.0
C2872 C 0.81385 0.24898 0.06637 0.0
C2873 C 0.80355 0.24473 0.08865 0.0
C2874 C 0.79331 0.23688 0.0699 0.0
H2875 H 0.76311 0.2317 0.00245 0.0
H2876 H 0.77003 0.23449 0.05282 0.0
H2877 H 0.77843 0.2405 0.00563 0.0
H2878 H 0.80335 0.23483 0.97336 0.0
H2879 H 0.82142 0.24885 0.00603 0.0
H2880 H 0.5724 0.74269 0.98937 0.0
H2881 H 0.56981 0.75779 0.02095 0.0
H2882 H 0.55211 0.75855 0.90873 0.0
H2883 H 0.55464 0.74361 0.87721 0.0
H2884 H 0.57884 0.77916 0.98393 0.0
H2885 H 0.53252 0.76053 0.00264 0.0
H2886 H 0.53924 0.75191 -0.00069 0.0
H2887 H 0.53572 0.75689 0.95194 0.0
C2888 C 0.56776 0.74594 0.97186 0.0
C2889 C 0.5638 0.74204 0.93067 0.0
C2890 C 0.56626 0.75452 0.98999 0.0
C2891 C 0.56057 0.75911 0.96752 0.0
C2892 C 0.55625 0.75491 0.92711 0.0
H2893 H 0.55697 0.81039 0.87222 0.0
H2894 H 0.5546 0.79308 0.90456 0.0
C2895 C 0.55784 0.74647 0.90887 0.0
C2896 C 0.56053 0.76941 0.98245 0.0
H2897 H 0.54309 0.78078 0.98165 0.0
C2898 C 0.57103 0.77953 0.98527 0.0
C2899 C 0.55033 0.76983 0.98469 0.0
C2900 C 0.53882 0.75916 0.98495 0.0
C2901 C 0.57162 0.79015 0.98441 0.0
C2902 C 0.56142 0.79055 0.98117 0.0
C2903 C 0.5509 0.78043 0.9837 0.0
C2904 C 0.56155 0.80084 0.96519 0.0
C2905 C 0.58314 0.80082 0.98225 0.0
C2906 C 0.56603 0.81089 0.989 0.0
C2907 C 0.56744 0.82089 0.97043 0.0
C2908 C 0.56444 0.82093 0.92783 0.0
C2909 C 0.55948 0.81069 0.90492 0.0
C2910 C 0.55805 0.80076 0.92345 0.0
H2911 H 0.59024 0.79896 0.98339 0.0
H2912 H 0.58388 0.80553 0.9526 0.0
H2913 H 0.5841 0.80646 0.00922 0.0
H2914 H 0.56871 0.81107 0.02138 0.0
H2915 H 0.57123 0.82864 0.98896 0.0
H2916 H 0.17836 0.74145 0.86909 0.0
H2917 H 0.19603 0.75605 0.90016 0.0
H2918 H 0.17814 0.75549 0.01386 0.0
H2919 H 0.16021 0.74081 0.98256 0.0
H2920 H 0.18979 0.77644 0.97908 0.0
H2921 H 0.21866 0.75905 0.98908 0.0
H2922 H 0.21178 0.75559 0.93853 0.0
H2923 H 0.20337 0.75 0.98594 0.0
C2924 C 0.17818 0.74423 0.90107 0.0
C2925 C 0.16787 0.74007 0.92317 0.0
C2926 C 0.18835 0.75248 0.91908 0.0
C2927 C 0.18845 0.75673 0.95964 0.0
C2928 C 0.17825 0.75221 0.98273 0.0
H2929 H 0.24699 0.8265 0.98524 0.0
H2930 H 0.23198 0.80848 0.01502 0.0
C2931 C 0.16803 0.74386 0.96475 0.0
C2932 C 0.1988 0.76716 0.97373 0.0
H2933 H 0.22766 0.77937 0.96795 0.0
C2934 C 0.19809 0.77707 0.97849 0.0
C2935 C 0.20959 0.76794 0.97343 0.0
C2936 C 0.21087 0.75752 0.97194 0.0
C2937 C 0.20789 0.78786 0.97726 0.0
C2938 C 0.2186 0.78863 0.9715 0.0
C2939 C 0.2194 0.77871 0.97184 0.0
C2940 C 0.22844 0.79925 0.95603 0.0
C2941 C 0.20666 0.79832 0.9776 0.0
C2942 C 0.23148 0.7999 0.91332 0.0
C2943 C 0.23993 0.8101 0.89621 0.0
C2944 C 0.24557 0.81988 0.92158 0.0
C2945 C 0.24276 0.81913 0.96483 0.0
C2946 C 0.23422 0.80886 0.98193 0.0
H2947 H 0.19765 0.79619 0.98118 0.0
H2948 H 0.21166 0.80395 0.00415 0.0
H2949 H 0.21009 0.80317 0.94775 0.0
H2950 H 0.22705 0.79255 0.89284 0.0
H2951 H 0.24192 0.81034 0.86291 0.0
H2952 H 0.15817 0.41488 0.98691 0.0
H2953 H 0.17567 0.41759 0.02053 0.0
H2954 H 0.19401 0.43152 0.90404 0.0
H2955 H 0.17673 0.42886 0.87046 0.0
H2956 H 0.18698 0.4067 0.99106 0.0
H2957 H 0.2166 0.45293 0.99163 0.0
H2958 H 0.20131 0.44688 0.98916 0.0
H2959 H 0.20943 0.44869 0.94168 0.0
C2960 C 0.166 0.41872 0.96878 0.0
C2961 C 0.16607 0.42157 0.92592 0.0
C2962 C 0.17598 0.42031 0.9881 0.0
C2963 C 0.18617 0.42498 0.96505 0.0
C2964 C 0.18631 0.42821 0.9228 0.0
H2965 H 0.23206 0.41567 0.86684 0.0
H2966 H 0.21706 0.4176 0.90125 0.0
C2967 C 0.17637 0.42653 0.90343 0.0
C2968 C 0.19629 0.42488 0.98181 0.0
H2969 H 0.22517 0.44091 0.97457 0.0
C2970 C 0.19534 0.41425 0.98952 0.0
C2971 C 0.20719 0.43474 0.98052 0.0
C2972 C 0.20867 0.44646 0.97576 0.0
C2973 C 0.20502 0.41304 0.98951 0.0
C2974 C 0.21577 0.42268 0.98165 0.0
C2975 C 0.21686 0.43351 0.98014 0.0
C2976 C 0.22495 0.42131 0.96303 0.0
C2977 C 0.20361 0.40132 0.9929 0.0
C2978 C 0.23433 0.4228 0.98667 0.0
C2979 C 0.24296 0.42162 0.96704 0.0
C2980 C 0.24232 0.41911 0.92353 0.0
C2981 C 0.23287 0.41767 0.90028 0.0
C2982 C 0.22427 0.41873 0.91989 0.0
H2983 H 0.19552 0.3953 0.00901 0.0
H2984 H 0.20348 0.39803 0.96063 0.0
H2985 H 0.21085 0.40162 0.01041 0.0
H2986 H 0.23496 0.42484 0.02003 0.0
H2987 H 0.25017 0.42279 0.98572 0.0
H2988 H 0.40926 0.88994 0.44524 0.0
H2989 H 0.42275 0.88618 0.40829 0.0
H2990 H 0.41666 0.89906 0.29238 0.0
H2991 H 0.40306 0.90301 0.32955 0.0
H2992 H 0.42162 0.87346 0.33237 0.0
H2993 H 0.45102 0.92035 0.31836 0.0
H2994 H 0.43877 0.91487 0.35267 0.0
H2995 H 0.4369 0.9139 0.29635 0.0
C2996 C 0.41066 0.89188 0.41179 0.0
C2997 C 0.40524 0.89696 0.3905 0.0
C2998 C 0.4183 0.88963 0.3906 0.0
C2999 C 0.42074 0.89242 0.34772 0.0
C3000 C 0.41492 0.89692 0.32558 0.0
H3001 H 0.48924 0.90341 0.32878 0.0
H3002 H 0.47169 0.8997 0.29265 0.0
C3003 C 0.40718 0.89916 0.34686 0.0
C3004 C 0.43039 0.89177 0.32907 0.0
H3005 H 0.45917 0.90875 0.32227 0.0
C3006 C 0.4298 0.88115 0.3284 0.0
C3007 C 0.44101 0.90179 0.32305 0.0
C3008 C 0.44207 0.91341 0.32258 0.0
C3009 C 0.43974 0.88038 0.32763 0.0
C3010 C 0.45043 0.8905 0.32822 0.0
C3011 C 0.45094 0.901 0.32246 0.0
C3012 C 0.46066 0.89068 0.34537 0.0
C3013 C 0.43872 0.86881 0.32989 0.0
C3014 C 0.46025 0.88677 0.3868 0.0
C3015 C 0.4702 0.88899 0.4076 0.0
C3016 C 0.4808 0.8952 0.38744 0.0
C3017 C 0.48118 0.89861 0.34514 0.0
C3018 C 0.47118 0.89646 0.32438 0.0
H3019 H 0.43115 0.86246 0.31194 0.0
H3020 H 0.44644 0.86896 0.31719 0.0
H3021 H 0.43754 0.86596 0.36335 0.0
H3022 H 0.45229 0.88259 0.40412 0.0
H3023 H 0.46961 0.88619 0.44005 0.0
H3024 H 0.09833 0.58172 0.44369 0.0
H3025 H 0.10003 0.56622 0.41296 0.0
H3026 H 0.08385 0.56837 0.2986 0.0
H3027 H 0.08202 0.58395 0.32949 0.0
H3028 H 0.0727 0.54758 0.334 0.0
H3029 H 0.11802 0.56029 0.32514 0.0
H3030 H 0.11523 0.56456 0.37525 0.0
H3031 H 0.11329 0.57061 0.3273 0.0
C3032 C 0.09538 0.57911 0.41161 0.0
C3033 C 0.0899 0.58395 0.38926 0.0
C3034 C 0.0965 0.57033 0.39378 0.0
C3035 C 0.09222 0.56624 0.3532 0.0
C3036 C 0.08734 0.5715 0.32976 0.0
H3037 H 0.0864 0.49836 0.33891 0.0
H3038 H 0.08953 0.51617 0.30631 0.0
C3039 C 0.08626 0.58037 0.34754 0.0
C3040 C 0.09093 0.55522 0.33976 0.0
H3041 H 0.10495 0.5403 0.3479 0.0
C3042 C 0.0798 0.54603 0.33518 0.0
C3043 C 0.10018 0.55316 0.3406 0.0
C3044 C 0.11235 0.56273 0.34186 0.0
C3045 C 0.0776 0.5348 0.33732 0.0
C3046 C 0.08673 0.5328 0.34429 0.0
C3047 C 0.09795 0.5419 0.3432 0.0
C3048 C 0.08465 0.5219 0.36216 0.0
C3049 C 0.06544 0.52516 0.33618 0.0
C3050 C 0.081 0.51941 0.40425 0.0
C3051 C 0.07934 0.50941 0.423 0.0
C3052 C 0.08124 0.50168 0.39987 0.0
C3053 C 0.08483 0.50416 0.35745 0.0
C3054 C 0.08663 0.51429 0.33879 0.0
H3055 H 0.05984 0.52767 0.31932 0.0
H3056 H 0.06485 0.51755 0.32054 0.0
H3057 H 0.06225 0.52279 0.36907 0.0
H3058 H 0.07953 0.52528 0.42279 0.0
H3059 H 0.07653 0.50775 0.45563 0.0
H3060 H 0.49115 0.58204 0.33875 0.0
H3061 H 0.4738 0.56677 0.30608 0.0
H3062 H 0.45486 0.56443 0.41904 0.0
H3063 H 0.47197 0.57957 0.45152 0.0
H3064 H 0.46264 0.54538 0.33974 0.0
H3065 H 0.43244 0.56114 0.32807 0.0
H3066 H 0.44765 0.57064 0.33163 0.0
H3067 H 0.4392 0.56481 0.37882 0.0
C3068 C 0.48321 0.57844 0.35615 0.0
C3069 C 0.48293 0.58192 0.39785 0.0
C3070 C 0.47332 0.56976 0.33739 0.0
C3071 C 0.46301 0.56463 0.35981 0.0
C3072 C 0.46265 0.56848 0.40066 0.0
H3073 H 0.41222 0.51069 0.45899 0.0
H3074 H 0.42671 0.5284 0.42714 0.0
C3075 C 0.47249 0.57704 0.41946 0.0
C3076 C 0.45302 0.55406 0.34456 0.0
H3077 H 0.42408 0.54088 0.34968 0.0
C3078 C 0.45419 0.5444 0.33993 0.0
C3079 C 0.44203 0.55282 0.34423 0.0
C3080 C 0.44029 0.56296 0.34549 0.0
C3081 C 0.44464 0.53344 0.34107 0.0
C3082 C 0.43376 0.53223 0.34678 0.0
C3083 C 0.43249 0.54188 0.34585 0.0
C3084 C 0.4243 0.52158 0.36372 0.0
C3085 C 0.44631 0.52325 0.34103 0.0
C3086 C 0.41814 0.51193 0.33834 0.0
C3087 C 0.4098 0.50173 0.35652 0.0
C3088 C 0.40761 0.50108 0.40031 0.0
C3089 C 0.41373 0.51087 0.42527 0.0
C3090 C 0.42196 0.52101 0.4071 0.0
H3091 H 0.45531 0.52563 0.33483 0.0
H3092 H 0.44372 0.51887 0.37213 0.0
H3093 H 0.44084 0.51709 0.31648 0.0
H3094 H 0.41988 0.51227 0.30477 0.0
H3095 H 0.40521 0.49434 0.33645 0.0
loop_
_geom_bond_atom_site_label_1
_geom_bond_atom_site_label_2
_geom_bond_distance
_geom_bond_site_symmetry_2
_ccdc_geom_bond_type
C0 O1 1.306 . S
C0 O3 1.160 . S
O1 C0 1.306 . S
O1 Cd2 2.228 . S
Cd2 O1 2.228 . S
Cd2 O6 2.273 . S
Cd2 O10 2.277 . S
O3 C0 1.160 . S
O3 Cd4 2.203 . S
Cd4 O3 2.203 . S
Cd4 O6 2.411 . S
Cd4 O7 2.333 . S
Cd4 O8 2.352 . S
Cd4 O12 2.277 . S
Cd4 O13 2.356 . S
C5 O10 1.209 . S
C5 O12 1.226 . S
O6 Cd2 2.273 . S
O6 Cd4 2.411 . S
O6 C9 1.320 . S
O7 Cd4 2.333 . S
O7 C9 1.214 . S
O8 Cd4 2.352 . S
O8 C11 1.258 . S
C9 O6 1.320 . S
C9 O7 1.214 . S
O10 Cd2 2.277 . S
O10 C5 1.209 . S
C11 O8 1.258 . S
C11 O13 1.282 . S
O12 Cd4 2.277 . S
O12 C5 1.226 . S
O13 Cd4 2.356 . S
O13 C11 1.282 . S
C14 O15 1.306 . S
C14 O17 1.160 . S
O15 C14 1.306 . S
O15 Cd16 2.228 . S
Cd16 O15 2.228 . S
Cd16 O20 2.273 . S
Cd16 O24 2.277 . S
O17 C14 1.160 . S
O17 Cd18 2.203 . S
Cd18 O17 2.203 . S
Cd18 O20 2.411 . S
Cd18 O21 2.333 . S
Cd18 O22 2.352 . S
Cd18 O26 2.277 . S
Cd18 O27 2.356 . S
C19 O24 1.209 . S
C19 O26 1.226 . S
O20 Cd16 2.273 . S
O20 Cd18 2.411 . S
O20 C23 1.320 . S
O21 Cd18 2.333 . S
O21 C23 1.214 . S
O22 Cd18 2.352 . S
O22 C25 1.258 . S
C23 O20 1.320 . S
C23 O21 1.214 . S
O24 Cd16 2.277 . S
O24 C19 1.209 . S
C25 O22 1.258 . S
C25 O27 1.282 . S
O26 Cd18 2.277 . S
O26 C19 1.226 . S
O27 Cd18 2.356 . S
O27 C25 1.282 . S
C28 O29 1.306 . S
C28 O31 1.160 . S
O29 C28 1.306 . S
O29 Cd30 2.228 . S
Cd30 O29 2.228 . S
Cd30 O34 2.273 . S
Cd30 O38 2.277 . S
O31 C28 1.160 . S
O31 Cd32 2.203 . S
Cd32 O31 2.203 . S
Cd32 O34 2.411 . S
Cd32 O35 2.333 . S
Cd32 O36 2.352 . S
Cd32 O40 2.277 . S
Cd32 O41 2.356 . S
C33 O38 1.209 . S
C33 O40 1.226 . S
O34 Cd30 2.273 . S
O34 Cd32 2.411 . S
O34 C37 1.320 . S
O35 Cd32 2.333 . S
O35 C37 1.214 . S
O36 Cd32 2.352 . S
O36 C39 1.258 . S
C37 O34 1.320 . S
C37 O35 1.214 . S
O38 Cd30 2.277 . S
O38 C33 1.209 . S
C39 O36 1.258 . S
C39 O41 1.282 . S
O40 Cd32 2.277 . S
O40 C33 1.226 . S
O41 Cd32 2.356 . S
O41 C39 1.282 . S
C42 O43 1.306 . S
C42 O45 1.160 . S
O43 C42 1.306 . S
O43 Cd44 2.228 . S
Cd44 O43 2.228 . S
Cd44 O48 2.273 . S
Cd44 O52 2.277 . S
O45 C42 1.160 . S
O45 Cd46 2.203 . S
Cd46 O45 2.203 . S
Cd46 O48 2.411 . S
Cd46 O49 2.333 . S
Cd46 O50 2.352 . S
Cd46 O54 2.277 . S
Cd46 O55 2.356 . S
C47 O52 1.209 . S
C47 O54 1.226 . S
O48 Cd44 2.273 . S
O48 Cd46 2.411 . S
O48 C51 1.320 . S
O49 Cd46 2.333 . S
O49 C51 1.214 . S
O50 Cd46 2.352 . S
O50 C53 1.258 . S
C51 O48 1.320 . S
C51 O49 1.214 . S
O52 Cd44 2.277 . S
O52 C47 1.209 . S
C53 O50 1.258 . S
C53 O55 1.282 . S
O54 Cd46 2.277 . S
O54 C47 1.226 . S
O55 Cd46 2.356 . S
O55 C53 1.282 . S
C56 O57 1.306 . S
C56 O59 1.160 . S
O57 C56 1.306 . S
O57 Cd58 2.228 . S
Cd58 O57 2.228 . S
Cd58 O62 2.273 . S
Cd58 O66 2.277 . S
O59 C56 1.160 . S
O59 Cd60 2.203 . S
Cd60 O59 2.203 . S
Cd60 O62 2.411 . S
Cd60 O63 2.333 . S
Cd60 O64 2.352 . S
Cd60 O68 2.277 . S
Cd60 O69 2.356 . S
C61 O66 1.209 . S
C61 O68 1.226 . S
O62 Cd58 2.273 . S
O62 Cd60 2.411 . S
O62 C65 1.320 . S
O63 Cd60 2.333 . S
O63 C65 1.214 . S
O64 Cd60 2.352 . S
O64 C67 1.258 . S
C65 O62 1.320 . S
C65 O63 1.214 . S
O66 Cd58 2.277 . S
O66 C61 1.209 . S
C67 O64 1.258 . S
C67 O69 1.282 . S
O68 Cd60 2.277 . S
O68 C61 1.226 . S
O69 Cd60 2.356 . S
O69 C67 1.282 . S
C70 O71 1.306 . S
C70 O73 1.160 . S
O71 C70 1.306 . S
O71 Cd72 2.228 . S
Cd72 O71 2.228 . S
Cd72 O76 2.273 . S
Cd72 O80 2.277 . S
O73 C70 1.160 . S
O73 Cd74 2.203 . S
Cd74 O73 2.203 . S
Cd74 O76 2.411 . S
Cd74 O77 2.333 . S
Cd74 O78 2.352 . S
Cd74 O82 2.277 . S
Cd74 O83 2.356 . S
C75 O80 1.209 . S
C75 O82 1.226 . S
O76 Cd72 2.273 . S
O76 Cd74 2.411 . S
O76 C79 1.320 . S
O77 Cd74 2.333 . S
O77 C79 1.214 . S
O78 Cd74 2.352 . S
O78 C81 1.258 . S
C79 O76 1.320 . S
C79 O77 1.214 . S
O80 Cd72 2.277 . S
O80 C75 1.209 . S
C81 O78 1.258 . S
C81 O83 1.282 . S
O82 Cd74 2.277 . S
O82 C75 1.226 . S
O83 Cd74 2.356 . S
O83 C81 1.282 . S
C84 O85 1.306 . S
C84 O87 1.160 . S
O85 C84 1.306 . S
O85 Cd86 2.228 . S
Cd86 O85 2.228 . S
Cd86 O90 2.273 . S
Cd86 O94 2.277 . S
O87 C84 1.160 . S
O87 Cd88 2.203 . S
Cd88 O87 2.203 . S
Cd88 O90 2.411 . S
Cd88 O91 2.333 . S
Cd88 O92 2.352 . S
Cd88 O96 2.277 . S
Cd88 O97 2.356 . S
C89 O94 1.209 . S
C89 O96 1.226 . S
O90 Cd86 2.273 . S
O90 Cd88 2.411 . S
O90 C93 1.320 . S
O91 Cd88 2.333 . S
O91 C93 1.214 . S
O92 Cd88 2.352 . S
O92 C95 1.258 . S
C93 O90 1.320 . S
C93 O91 1.214 . S
O94 Cd86 2.277 . S
O94 C89 1.209 . S
C95 O92 1.258 . S
C95 O97 1.282 . S
O96 Cd88 2.277 . S
O96 C89 1.226 . S
O97 Cd88 2.356 . S
O97 C95 1.282 . S
C98 O99 1.306 . S
C98 O101 1.160 . S
O99 C98 1.306 . S
O99 Cd100 2.228 . S
Cd100 O99 2.228 . S
Cd100 O104 2.273 . S
Cd100 O108 2.277 . S
O101 C98 1.160 . S
O101 Cd102 2.203 . S
Cd102 O101 2.203 . S
Cd102 O104 2.411 . S
Cd102 O105 2.333 . S
Cd102 O106 2.352 . S
Cd102 O110 2.277 . S
Cd102 O111 2.356 . S
C103 O108 1.209 . S
C103 O110 1.226 . S
O104 Cd100 2.273 . S
O104 Cd102 2.411 . S
O104 C107 1.320 . S
O105 Cd102 2.333 . S
O105 C107 1.214 . S
O106 Cd102 2.352 . S
O106 C109 1.258 . S
C107 O104 1.320 . S
C107 O105 1.214 . S
O108 Cd100 2.277 . S
O108 C103 1.209 . S
C109 O106 1.258 . S
C109 O111 1.282 . S
O110 Cd102 2.277 . S
O110 C103 1.226 . S
O111 Cd102 2.356 . S
O111 C109 1.282 . S
C112 O113 1.306 . S
C112 O115 1.160 . S
O113 C112 1.306 . S
O113 Cd114 2.228 . S
Cd114 O113 2.228 . S
Cd114 O118 2.273 . S
Cd114 O122 2.277 . S
O115 C112 1.160 . S
O115 Cd116 2.203 . S
Cd116 O115 2.203 . S
Cd116 O118 2.411 . S
Cd116 O119 2.333 . S
Cd116 O120 2.352 . S
Cd116 O124 2.277 . S
Cd116 O125 2.356 . S
C117 O122 1.209 . S
C117 O124 1.226 . S
O118 Cd114 2.273 . S
O118 Cd116 2.411 . S
O118 C121 1.320 . S
O119 Cd116 2.333 . S
O119 C121 1.214 . S
O120 Cd116 2.352 . S
O120 C123 1.258 . S
C121 O118 1.320 . S
C121 O119 1.214 . S
O122 Cd114 2.277 . S
O122 C117 1.209 . S
C123 O120 1.258 . S
C123 O125 1.282 . S
O124 Cd116 2.277 . S
O124 C117 1.226 . S
O125 Cd116 2.356 . S
O125 C123 1.282 . S
C126 O127 1.306 . S
C126 O129 1.160 . S
O127 C126 1.306 . S
O127 Cd128 2.228 . S
Cd128 O127 2.228 . S
Cd128 O132 2.273 . S
Cd128 O136 2.277 . S
O129 C126 1.160 . S
O129 Cd130 2.203 . S
Cd130 O129 2.203 . S
Cd130 O132 2.411 . S
Cd130 O133 2.333 . S
Cd130 O134 2.352 . S
Cd130 O138 2.277 . S
Cd130 O139 2.356 . S
C131 O136 1.209 . S
C131 O138 1.226 . S
O132 Cd128 2.273 . S
O132 Cd130 2.411 . S
O132 C135 1.320 . S
O133 Cd130 2.333 . S
O133 C135 1.214 . S
O134 Cd130 2.352 . S
O134 C137 1.258 . S
C135 O132 1.320 . S
C135 O133 1.214 . S
O136 Cd128 2.277 . S
O136 C131 1.209 . S
C137 O134 1.258 . S
C137 O139 1.282 . S
O138 Cd130 2.277 . S
O138 C131 1.226 . S
O139 Cd130 2.356 . S
O139 C137 1.282 . S
C140 O141 1.306 . S
C140 O143 1.160 . S
O141 C140 1.306 . S
O141 Cd142 2.228 . S
Cd142 O141 2.228 . S
Cd142 O146 2.273 . S
Cd142 O150 2.277 . S
O143 C140 1.160 . S
O143 Cd144 2.203 . S
Cd144 O143 2.203 . S
Cd144 O146 2.411 . S
Cd144 O147 2.333 . S
Cd144 O148 2.352 . S
Cd144 O152 2.277 . S
Cd144 O153 2.356 . S
C145 O150 1.209 . S
C145 O152 1.226 . S
O146 Cd142 2.273 . S
O146 Cd144 2.411 . S
O146 C149 1.320 . S
O147 Cd144 2.333 . S
O147 C149 1.214 . S
O148 Cd144 2.352 . S
O148 C151 1.258 . S
C149 O146 1.320 . S
C149 O147 1.214 . S
O150 Cd142 2.277 . S
O150 C145 1.209 . S
C151 O148 1.258 . S
C151 O153 1.282 . S
O152 Cd144 2.277 . S
O152 C145 1.226 . S
O153 Cd144 2.356 . S
O153 C151 1.282 . S
C154 O155 1.306 . S
C154 O157 1.160 . S
O155 C154 1.306 . S
O155 Cd156 2.228 . S
Cd156 O155 2.228 . S
Cd156 O160 2.273 . S
Cd156 O164 2.277 . S
O157 C154 1.160 . S
O157 Cd158 2.203 . S
Cd158 O157 2.203 . S
Cd158 O160 2.411 . S
Cd158 O161 2.333 . S
Cd158 O162 2.352 . S
Cd158 O166 2.277 . S
Cd158 O167 2.356 . S
C159 O164 1.209 . S
C159 O166 1.226 . S
O160 Cd156 2.273 . S
O160 Cd158 2.411 . S
O160 C163 1.320 . S
O161 Cd158 2.333 . S
O161 C163 1.214 . S
O162 Cd158 2.352 . S
O162 C165 1.258 . S
C163 O160 1.320 . S
C163 O161 1.214 . S
O164 Cd156 2.277 . S
O164 C159 1.209 . S
C165 O162 1.258 . S
C165 O167 1.282 . S
O166 Cd158 2.277 . S
O166 C159 1.226 . S
O167 Cd158 2.356 . S
O167 C165 1.282 . S
C168 O169 1.306 . S
C168 O171 1.160 . S
O169 C168 1.306 . S
O169 Cd170 2.228 . S
Cd170 O169 2.228 . S
Cd170 O174 2.273 . S
Cd170 O178 2.277 . S
O171 C168 1.160 . S
O171 Cd172 2.203 . S
Cd172 O171 2.203 . S
Cd172 O174 2.411 . S
Cd172 O175 2.333 . S
Cd172 O176 2.352 . S
Cd172 O180 2.277 . S
Cd172 O181 2.356 . S
C173 O178 1.209 . S
C173 O180 1.226 . S
O174 Cd170 2.273 . S
O174 Cd172 2.411 . S
O174 C177 1.320 . S
O175 Cd172 2.333 . S
O175 C177 1.214 . S
O176 Cd172 2.352 . S
O176 C179 1.258 . S
C177 O174 1.320 . S
C177 O175 1.214 . S
O178 Cd170 2.277 . S
O178 C173 1.209 . S
C179 O176 1.258 . S
C179 O181 1.282 . S
O180 Cd172 2.277 . S
O180 C173 1.226 . S
O181 Cd172 2.356 . S
O181 C179 1.282 . S
C182 O183 1.306 . S
C182 O185 1.160 . S
O183 C182 1.306 . S
O183 Cd184 2.228 . S
Cd184 O183 2.228 . S
Cd184 O188 2.273 . S
Cd184 O192 2.277 . S
O185 C182 1.160 . S
O185 Cd186 2.203 . S
Cd186 O185 2.203 . S
Cd186 O188 2.411 . S
Cd186 O189 2.333 . S
Cd186 O190 2.352 . S
Cd186 O194 2.277 . S
Cd186 O195 2.356 . S
C187 O192 1.209 . S
C187 O194 1.226 . S
O188 Cd184 2.273 . S
O188 Cd186 2.411 . S
O188 C191 1.320 . S
O189 Cd186 2.333 . S
O189 C191 1.214 . S
O190 Cd186 2.352 . S
O190 C193 1.258 . S
C191 O188 1.320 . S
C191 O189 1.214 . S
O192 Cd184 2.277 . S
O192 C187 1.209 . S
C193 O190 1.258 . S
C193 O195 1.282 . S
O194 Cd186 2.277 . S
O194 C187 1.226 . S
O195 Cd186 2.356 . S
O195 C193 1.282 . S
C196 O197 1.306 . S
C196 O199 1.160 . S
O197 C196 1.306 . S
O197 Cd198 2.228 . S
Cd198 O197 2.228 . S
Cd198 O202 2.273 . S
Cd198 O206 2.277 . S
O199 C196 1.160 . S
O199 Cd200 2.203 . S
Cd200 O199 2.203 . S
Cd200 O202 2.411 . S
Cd200 O203 2.333 . S
Cd200 O204 2.352 . S
Cd200 O208 2.277 . S
Cd200 O209 2.356 . S
C201 O206 1.209 . S
C201 O208 1.226 . S
O202 Cd198 2.273 . S
O202 Cd200 2.411 . S
O202 C205 1.320 . S
O203 Cd200 2.333 . S
O203 C205 1.214 . S
O204 Cd200 2.352 . S
O204 C207 1.258 . S
C205 O202 1.320 . S
C205 O203 1.214 . S
O206 Cd198 2.277 . S
O206 C201 1.209 . S
C207 O204 1.258 . S
C207 O209 1.282 . S
O208 Cd200 2.277 . S
O208 C201 1.226 . S
O209 Cd200 2.356 . S
O209 C207 1.282 . S
C210 O211 1.306 . S
C210 O213 1.160 . S
O211 C210 1.306 . S
O211 Cd212 2.228 . S
Cd212 O211 2.228 . S
Cd212 O216 2.273 . S
Cd212 O220 2.277 . S
O213 C210 1.160 . S
O213 Cd214 2.203 . S
Cd214 O213 2.203 . S
Cd214 O216 2.411 . S
Cd214 O217 2.333 . S
Cd214 O218 2.352 . S
Cd214 O222 2.277 . S
Cd214 O223 2.356 . S
C215 O220 1.209 . S
C215 O222 1.226 . S
O216 Cd212 2.273 . S
O216 Cd214 2.411 . S
O216 C219 1.320 . S
O217 Cd214 2.333 . S
O217 C219 1.214 . S
O218 Cd214 2.352 . S
O218 C221 1.258 . S
C219 O216 1.320 . S
C219 O217 1.214 . S
O220 Cd212 2.277 . S
O220 C215 1.209 . S
C221 O218 1.258 . S
C221 O223 1.282 . S
O222 Cd214 2.277 . S
O222 C215 1.226 . S
O223 Cd214 2.356 . S
O223 C221 1.282 . S
C224 O225 1.306 . S
C224 O227 1.160 . S
O225 C224 1.306 . S
O225 Cd226 2.228 . S
Cd226 O225 2.228 . S
Cd226 O230 2.273 . S
Cd226 O234 2.277 . S
O227 C224 1.160 . S
O227 Cd228 2.203 . S
Cd228 O227 2.203 . S
Cd228 O230 2.411 . S
Cd228 O231 2.333 . S
Cd228 O232 2.352 . S
Cd228 O236 2.277 . S
Cd228 O237 2.356 . S
C229 O234 1.209 . S
C229 O236 1.226 . S
O230 Cd226 2.273 . S
O230 Cd228 2.411 . S
O230 C233 1.320 . S
O231 Cd228 2.333 . S
O231 C233 1.214 . S
O232 Cd228 2.352 . S
O232 C235 1.258 . S
C233 O230 1.320 . S
C233 O231 1.214 . S
O234 Cd226 2.277 . S
O234 C229 1.209 . S
C235 O232 1.258 . S
C235 O237 1.282 . S
O236 Cd228 2.277 . S
O236 C229 1.226 . S
O237 Cd228 2.356 . S
O237 C235 1.282 . S
C238 O239 1.306 . S
C238 O241 1.160 . S
O239 C238 1.306 . S
O239 Cd240 2.228 . S
Cd240 O239 2.228 . S
Cd240 O244 2.273 . S
Cd240 O248 2.277 . S
O241 C238 1.160 . S
O241 Cd242 2.203 . S
Cd242 O241 2.203 . S
Cd242 O244 2.411 . S
Cd242 O245 2.333 . S
Cd242 O246 2.352 . S
Cd242 O250 2.277 . S
Cd242 O251 2.356 . S
C243 O248 1.209 . S
C243 O250 1.226 . S
O244 Cd240 2.273 . S
O244 Cd242 2.411 . S
O244 C247 1.320 . S
O245 Cd242 2.333 . S
O245 C247 1.214 . S
O246 Cd242 2.352 . S
O246 C249 1.258 . S
C247 O244 1.320 . S
C247 O245 1.214 . S
O248 Cd240 2.277 . S
O248 C243 1.209 . S
C249 O246 1.258 . S
C249 O251 1.282 . S
O250 Cd242 2.277 . S
O250 C243 1.226 . S
O251 Cd242 2.356 . S
O251 C249 1.282 . S
C252 O253 1.306 . S
C252 O255 1.160 . S
O253 C252 1.306 . S
O253 Cd254 2.228 . S
Cd254 O253 2.228 . S
Cd254 O258 2.273 . S
Cd254 O262 2.277 . S
O255 C252 1.160 . S
O255 Cd256 2.203 . S
Cd256 O255 2.203 . S
Cd256 O258 2.411 . S
Cd256 O259 2.333 . S
Cd256 O260 2.352 . S
Cd256 O264 2.277 . S
Cd256 O265 2.356 . S
C257 O262 1.209 . S
C257 O264 1.226 . S
O258 Cd254 2.273 . S
O258 Cd256 2.411 . S
O258 C261 1.320 . S
O259 Cd256 2.333 . S
O259 C261 1.214 . S
O260 Cd256 2.352 . S
O260 C263 1.258 . S
C261 O258 1.320 . S
C261 O259 1.214 . S
O262 Cd254 2.277 . S
O262 C257 1.209 . S
C263 O260 1.258 . S
C263 O265 1.282 . S
O264 Cd256 2.277 . S
O264 C257 1.226 . S
O265 Cd256 2.356 . S
O265 C263 1.282 . S
C266 O267 1.306 . S
C266 O269 1.160 . S
O267 C266 1.306 . S
O267 Cd268 2.228 . S
Cd268 O267 2.228 . S
Cd268 O272 2.273 . S
Cd268 O276 2.277 . S
O269 C266 1.160 . S
O269 Cd270 2.203 . S
Cd270 O269 2.203 . S
Cd270 O272 2.411 . S
Cd270 O273 2.333 . S
Cd270 O274 2.352 . S
Cd270 O278 2.277 . S
Cd270 O279 2.356 . S
C271 O276 1.209 . S
C271 O278 1.226 . S
O272 Cd268 2.273 . S
O272 Cd270 2.411 . S
O272 C275 1.320 . S
O273 Cd270 2.333 . S
O273 C275 1.214 . S
O274 Cd270 2.352 . S
O274 C277 1.258 . S
C275 O272 1.320 . S
C275 O273 1.214 . S
O276 Cd268 2.277 . S
O276 C271 1.209 . S
C277 O274 1.258 . S
C277 O279 1.282 . S
O278 Cd270 2.277 . S
O278 C271 1.226 . S
O279 Cd270 2.356 . S
O279 C277 1.282 . S
C280 O281 1.306 . S
C280 O283 1.160 . S
O281 C280 1.306 . S
O281 Cd282 2.228 . S
Cd282 O281 2.228 . S
Cd282 O286 2.273 . S
Cd282 O290 2.277 . S
O283 C280 1.160 . S
O283 Cd284 2.203 . S
Cd284 O283 2.203 . S
Cd284 O286 2.411 . S
Cd284 O287 2.333 . S
Cd284 O288 2.352 . S
Cd284 O292 2.277 . S
Cd284 O293 2.356 . S
C285 O290 1.209 . S
C285 O292 1.226 . S
O286 Cd282 2.273 . S
O286 Cd284 2.411 . S
O286 C289 1.320 . S
O287 Cd284 2.333 . S
O287 C289 1.214 . S
O288 Cd284 2.352 . S
O288 C291 1.258 . S
C289 O286 1.320 . S
C289 O287 1.214 . S
O290 Cd282 2.277 . S
O290 C285 1.209 . S
C291 O288 1.258 . S
C291 O293 1.282 . S
O292 Cd284 2.277 . S
O292 C285 1.226 . S
O293 Cd284 2.356 . S
O293 C291 1.282 . S
C294 O295 1.306 . S
C294 O297 1.160 . S
O295 C294 1.306 . S
O295 Cd296 2.228 . S
Cd296 O295 2.228 . S
Cd296 O300 2.273 . S
Cd296 O304 2.277 . S
O297 C294 1.160 . S
O297 Cd298 2.203 . S
Cd298 O297 2.203 . S
Cd298 O300 2.411 . S
Cd298 O301 2.333 . S
Cd298 O302 2.352 . S
Cd298 O306 2.277 . S
Cd298 O307 2.356 . S
C299 O304 1.209 . S
C299 O306 1.226 . S
O300 Cd296 2.273 . S
O300 Cd298 2.411 . S
O300 C303 1.320 . S
O301 Cd298 2.333 . S
O301 C303 1.214 . S
O302 Cd298 2.352 . S
O302 C305 1.258 . S
C303 O300 1.320 . S
C303 O301 1.214 . S
O304 Cd296 2.277 . S
O304 C299 1.209 . S
C305 O302 1.258 . S
C305 O307 1.282 . S
O306 Cd298 2.277 . S
O306 C299 1.226 . S
O307 Cd298 2.356 . S
O307 C305 1.282 . S
C308 O309 1.306 . S
C308 O311 1.160 . S
O309 C308 1.306 . S
O309 Cd310 2.228 . S
Cd310 O309 2.228 . S
Cd310 O314 2.273 . S
Cd310 O318 2.277 . S
O311 C308 1.160 . S
O311 Cd312 2.203 . S
Cd312 O311 2.203 . S
Cd312 O314 2.411 . S
Cd312 O315 2.333 . S
Cd312 O316 2.352 . S
Cd312 O320 2.277 . S
Cd312 O321 2.356 . S
C313 O318 1.209 . S
C313 O320 1.226 . S
O314 Cd310 2.273 . S
O314 Cd312 2.411 . S
O314 C317 1.320 . S
O315 Cd312 2.333 . S
O315 C317 1.214 . S
O316 Cd312 2.352 . S
O316 C319 1.258 . S
C317 O314 1.320 . S
C317 O315 1.214 . S
O318 Cd310 2.277 . S
O318 C313 1.209 . S
C319 O316 1.258 . S
C319 O321 1.282 . S
O320 Cd312 2.277 . S
O320 C313 1.226 . S
O321 Cd312 2.356 . S
O321 C319 1.282 . S
C322 O323 1.306 . S
C322 O325 1.160 . S
O323 C322 1.306 . S
O323 Cd324 2.228 . S
Cd324 O323 2.228 . S
Cd324 O328 2.273 . S
Cd324 O332 2.277 . S
O325 C322 1.160 . S
O325 Cd326 2.203 . S
Cd326 O325 2.203 . S
Cd326 O328 2.411 . S
Cd326 O329 2.333 . S
Cd326 O330 2.352 . S
Cd326 O334 2.277 . S
Cd326 O335 2.356 . S
C327 O332 1.209 . S
C327 O334 1.226 . S
O328 Cd324 2.273 . S
O328 Cd326 2.411 . S
O328 C331 1.320 . S
O329 Cd326 2.333 . S
O329 C331 1.214 . S
O330 Cd326 2.352 . S
O330 C333 1.258 . S
C331 O328 1.320 . S
C331 O329 1.214 . S
O332 Cd324 2.277 . S
O332 C327 1.209 . S
C333 O330 1.258 . S
C333 O335 1.282 . S
O334 Cd326 2.277 . S
O334 C327 1.226 . S
O335 Cd326 2.356 . S
O335 C333 1.282 . S
C336 O337 1.306 . S
C336 O339 1.160 . S
O337 C336 1.306 . S
O337 Cd338 2.228 . S
Cd338 O337 2.228 . S
Cd338 O342 2.273 . S
Cd338 O346 2.277 . S
O339 C336 1.160 . S
O339 Cd340 2.203 . S
Cd340 O339 2.203 . S
Cd340 O342 2.411 . S
Cd340 O343 2.333 . S
Cd340 O344 2.352 . S
Cd340 O348 2.277 . S
Cd340 O349 2.356 . S
C341 O346 1.209 . S
C341 O348 1.226 . S
O342 Cd338 2.273 . S
O342 Cd340 2.411 . S
O342 C345 1.320 . S
O343 Cd340 2.333 . S
O343 C345 1.214 . S
O344 Cd340 2.352 . S
O344 C347 1.258 . S
C345 O342 1.320 . S
C345 O343 1.214 . S
O346 Cd338 2.277 . S
O346 C341 1.209 . S
C347 O344 1.258 . S
C347 O349 1.282 . S
O348 Cd340 2.277 . S
O348 C341 1.226 . S
O349 Cd340 2.356 . S
O349 C347 1.282 . S
C350 O351 1.306 . S
C350 O353 1.160 . S
O351 C350 1.306 . S
O351 Cd352 2.228 . S
Cd352 O351 2.228 . S
Cd352 O356 2.273 . S
Cd352 O360 2.277 . S
O353 C350 1.160 . S
O353 Cd354 2.203 . S
Cd354 O353 2.203 . S
Cd354 O356 2.411 . S
Cd354 O357 2.333 . S
Cd354 O358 2.352 . S
Cd354 O362 2.277 . S
Cd354 O363 2.356 . S
C355 O360 1.209 . S
C355 O362 1.226 . S
O356 Cd352 2.273 . S
O356 Cd354 2.411 . S
O356 C359 1.320 . S
O357 Cd354 2.333 . S
O357 C359 1.214 . S
O358 Cd354 2.352 . S
O358 C361 1.258 . S
C359 O356 1.320 . S
C359 O357 1.214 . S
O360 Cd352 2.277 . S
O360 C355 1.209 . S
C361 O358 1.258 . S
C361 O363 1.282 . S
O362 Cd354 2.277 . S
O362 C355 1.226 . S
O363 Cd354 2.356 . S
O363 C361 1.282 . S
C364 O365 1.306 . S
C364 O367 1.160 . S
O365 C364 1.306 . S
O365 Cd366 2.228 . S
Cd366 O365 2.228 . S
Cd366 O370 2.273 . S
Cd366 O374 2.277 . S
O367 C364 1.160 . S
O367 Cd368 2.203 . S
Cd368 O367 2.203 . S
Cd368 O370 2.411 . S
Cd368 O371 2.333 . S
Cd368 O372 2.352 . S
Cd368 O376 2.277 . S
Cd368 O377 2.356 . S
C369 O374 1.209 . S
C369 O376 1.226 . S
O370 Cd366 2.273 . S
O370 Cd368 2.411 . S
O370 C373 1.320 . S
O371 Cd368 2.333 . S
O371 C373 1.214 . S
O372 Cd368 2.352 . S
O372 C375 1.258 . S
C373 O370 1.320 . S
C373 O371 1.214 . S
O374 Cd366 2.277 . S
O374 C369 1.209 . S
C375 O372 1.258 . S
C375 O377 1.282 . S
O376 Cd368 2.277 . S
O376 C369 1.226 . S
O377 Cd368 2.356 . S
O377 C375 1.282 . S
C378 O379 1.306 . S
C378 O381 1.160 . S
O379 C378 1.306 . S
O379 Cd380 2.228 . S
Cd380 O379 2.228 . S
Cd380 O384 2.273 . S
Cd380 O388 2.277 . S
O381 C378 1.160 . S
O381 Cd382 2.203 . S
Cd382 O381 2.203 . S
Cd382 O384 2.411 . S
Cd382 O385 2.333 . S
Cd382 O386 2.352 . S
Cd382 O390 2.277 . S
Cd382 O391 2.356 . S
C383 O388 1.209 . S
C383 O390 1.226 . S
O384 Cd380 2.273 . S
O384 Cd382 2.411 . S
O384 C387 1.320 . S
O385 Cd382 2.333 . S
O385 C387 1.214 . S
O386 Cd382 2.352 . S
O386 C389 1.258 . S
C387 O384 1.320 . S
C387 O385 1.214 . S
O388 Cd380 2.277 . S
O388 C383 1.209 . S
C389 O386 1.258 . S
C389 O391 1.282 . S
O390 Cd382 2.277 . S
O390 C383 1.226 . S
O391 Cd382 2.356 . S
O391 C389 1.282 . S
C392 O393 1.306 . S
C392 O395 1.160 . S
O393 C392 1.306 . S
O393 Cd394 2.228 . S
Cd394 O393 2.228 . S
Cd394 O398 2.273 . S
Cd394 O402 2.277 . S
O395 C392 1.160 . S
O395 Cd396 2.203 . S
Cd396 O395 2.203 . S
Cd396 O398 2.411 . S
Cd396 O399 2.333 . S
Cd396 O400 2.352 . S
Cd396 O404 2.277 . S
Cd396 O405 2.356 . S
C397 O402 1.209 . S
C397 O404 1.226 . S
O398 Cd394 2.273 . S
O398 Cd396 2.411 . S
O398 C401 1.320 . S
O399 Cd396 2.333 . S
O399 C401 1.214 . S
O400 Cd396 2.352 . S
O400 C403 1.258 . S
C401 O398 1.320 . S
C401 O399 1.214 . S
O402 Cd394 2.277 . S
O402 C397 1.209 . S
C403 O400 1.258 . S
C403 O405 1.282 . S
O404 Cd396 2.277 . S
O404 C397 1.226 . S
O405 Cd396 2.356 . S
O405 C403 1.282 . S
C406 O407 1.306 . S
C406 O409 1.160 . S
O407 C406 1.306 . S
O407 Cd408 2.228 . S
Cd408 O407 2.228 . S
Cd408 O412 2.273 . S
Cd408 O416 2.277 . S
O409 C406 1.160 . S
O409 Cd410 2.203 . S
Cd410 O409 2.203 . S
Cd410 O412 2.411 . S
Cd410 O413 2.333 . S
Cd410 O414 2.352 . S
Cd410 O418 2.277 . S
Cd410 O419 2.356 . S
C411 O416 1.209 . S
C411 O418 1.226 . S
O412 Cd408 2.273 . S
O412 Cd410 2.411 . S
O412 C415 1.320 . S
O413 Cd410 2.333 . S
O413 C415 1.214 . S
O414 Cd410 2.352 . S
O414 C417 1.258 . S
C415 O412 1.320 . S
C415 O413 1.214 . S
O416 Cd408 2.277 . S
O416 C411 1.209 . S
C417 O414 1.258 . S
C417 O419 1.282 . S
O418 Cd410 2.277 . S
O418 C411 1.226 . S
O419 Cd410 2.356 . S
O419 C417 1.282 . S
C420 O421 1.306 . S
C420 O423 1.160 . S
O421 C420 1.306 . S
O421 Cd422 2.228 . S
Cd422 O421 2.228 . S
Cd422 O426 2.273 . S
Cd422 O430 2.277 . S
O423 C420 1.160 . S
O423 Cd424 2.203 . S
Cd424 O423 2.203 . S
Cd424 O426 2.411 . S
Cd424 O427 2.333 . S
Cd424 O428 2.352 . S
Cd424 O432 2.277 . S
Cd424 O433 2.356 . S
C425 O430 1.209 . S
C425 O432 1.226 . S
O426 Cd422 2.273 . S
O426 Cd424 2.411 . S
O426 C429 1.320 . S
O427 Cd424 2.333 . S
O427 C429 1.214 . S
O428 Cd424 2.352 . S
O428 C431 1.258 . S
C429 O426 1.320 . S
C429 O427 1.214 . S
O430 Cd422 2.277 . S
O430 C425 1.209 . S
C431 O428 1.258 . S
C431 O433 1.282 . S
O432 Cd424 2.277 . S
O432 C425 1.226 . S
O433 Cd424 2.356 . S
O433 C431 1.282 . S
C434 O435 1.306 . S
C434 O437 1.160 . S
O435 C434 1.306 . S
O435 Cd436 2.228 . S
Cd436 O435 2.228 . S
Cd436 O440 2.273 . S
Cd436 O444 2.277 . S
O437 C434 1.160 . S
O437 Cd438 2.203 . S
Cd438 O437 2.203 . S
Cd438 O440 2.411 . S
Cd438 O441 2.333 . S
Cd438 O442 2.352 . S
Cd438 O446 2.277 . S
Cd438 O447 2.356 . S
C439 O444 1.209 . S
C439 O446 1.226 . S
O440 Cd436 2.273 . S
O440 Cd438 2.411 . S
O440 C443 1.320 . S
O441 Cd438 2.333 . S
O441 C443 1.214 . S
O442 Cd438 2.352 . S
O442 C445 1.258 . S
C443 O440 1.320 . S
C443 O441 1.214 . S
O444 Cd436 2.277 . S
O444 C439 1.209 . S
C445 O442 1.258 . S
C445 O447 1.282 . S
O446 Cd438 2.277 . S
O446 C439 1.226 . S
O447 Cd438 2.356 . S
O447 C445 1.282 . S
C448 O449 1.306 . S
C448 O451 1.160 . S
O449 C448 1.306 . S
O449 Cd450 2.228 . S
Cd450 O449 2.228 . S
Cd450 O454 2.273 . S
Cd450 O458 2.277 . S
O451 C448 1.160 . S
O451 Cd452 2.203 . S
Cd452 O451 2.203 . S
Cd452 O454 2.411 . S
Cd452 O455 2.333 . S
Cd452 O456 2.352 . S
Cd452 O460 2.277 . S
Cd452 O461 2.356 . S
C453 O458 1.209 . S
C453 O460 1.226 . S
O454 Cd450 2.273 . S
O454 Cd452 2.411 . S
O454 C457 1.320 . S
O455 Cd452 2.333 . S
O455 C457 1.214 . S
O456 Cd452 2.352 . S
O456 C459 1.258 . S
C457 O454 1.320 . S
C457 O455 1.214 . S
O458 Cd450 2.277 . S
O458 C453 1.209 . S
C459 O456 1.258 . S
C459 O461 1.282 . S
O460 Cd452 2.277 . S
O460 C453 1.226 . S
O461 Cd452 2.356 . S
O461 C459 1.282 . S
C462 O463 1.306 . S
C462 O465 1.160 . S
O463 C462 1.306 . S
O463 Cd464 2.228 . S
Cd464 O463 2.228 . S
Cd464 O468 2.273 . S
Cd464 O472 2.277 . S
O465 C462 1.160 . S
O465 Cd466 2.203 . S
Cd466 O465 2.203 . S
Cd466 O468 2.411 . S
Cd466 O469 2.333 . S
Cd466 O470 2.352 . S
Cd466 O474 2.277 . S
Cd466 O475 2.356 . S
C467 O472 1.209 . S
C467 O474 1.226 . S
O468 Cd464 2.273 . S
O468 Cd466 2.411 . S
O468 C471 1.320 . S
O469 Cd466 2.333 . S
O469 C471 1.214 . S
O470 Cd466 2.352 . S
O470 C473 1.258 . S
C471 O468 1.320 . S
C471 O469 1.214 . S
O472 Cd464 2.277 . S
O472 C467 1.209 . S
C473 O470 1.258 . S
C473 O475 1.282 . S
O474 Cd466 2.277 . S
O474 C467 1.226 . S
O475 Cd466 2.356 . S
O475 C473 1.282 . S
C476 O477 1.306 . S
C476 O479 1.160 . S
O477 C476 1.306 . S
O477 Cd478 2.228 . S
Cd478 O477 2.228 . S
Cd478 O482 2.273 . S
Cd478 O486 2.277 . S
O479 C476 1.160 . S
O479 Cd480 2.203 . S
Cd480 O479 2.203 . S
Cd480 O482 2.411 . S
Cd480 O483 2.333 . S
Cd480 O484 2.352 . S
Cd480 O488 2.277 . S
Cd480 O489 2.356 . S
C481 O486 1.209 . S
C481 O488 1.226 . S
O482 Cd478 2.273 . S
O482 Cd480 2.411 . S
O482 C485 1.320 . S
O483 Cd480 2.333 . S
O483 C485 1.214 . S
O484 Cd480 2.352 . S
O484 C487 1.258 . S
C485 O482 1.320 . S
C485 O483 1.214 . S
O486 Cd478 2.277 . S
O486 C481 1.209 . S
C487 O484 1.258 . S
C487 O489 1.282 . S
O488 Cd480 2.277 . S
O488 C481 1.226 . S
O489 Cd480 2.356 . S
O489 C487 1.282 . S
C490 O491 1.306 . S
C490 O493 1.160 . S
O491 C490 1.306 . S
O491 Cd492 2.228 . S
Cd492 O491 2.228 . S
Cd492 O496 2.273 . S
Cd492 O500 2.277 . S
O493 C490 1.160 . S
O493 Cd494 2.203 . S
Cd494 O493 2.203 . S
Cd494 O496 2.411 . S
Cd494 O497 2.333 . S
Cd494 O498 2.352 . S
Cd494 O502 2.277 . S
Cd494 O503 2.356 . S
C495 O500 1.209 . S
C495 O502 1.226 . S
O496 Cd492 2.273 . S
O496 Cd494 2.411 . S
O496 C499 1.320 . S
O497 Cd494 2.333 . S
O497 C499 1.214 . S
O498 Cd494 2.352 . S
O498 C501 1.258 . S
C499 O496 1.320 . S
C499 O497 1.214 . S
O500 Cd492 2.277 . S
O500 C495 1.209 . S
C501 O498 1.258 . S
C501 O503 1.282 . S
O502 Cd494 2.277 . S
O502 C495 1.226 . S
O503 Cd494 2.356 . S
O503 C501 1.282 . S
H504 C512 0.929 . S
H505 C514 0.930 . S
H506 C516 0.930 . S
H507 C519 0.929 . S
H508 C522 0.930 . S
H509 C524 0.960 . S
H510 C524 0.960 . S
H511 C524 0.960 . S
C512 H504 0.929 . S
C512 C513 1.377 . S
C512 C514 1.384 . S
C513 C512 1.377 . S
C513 C519 1.390 . S
C514 H505 0.930 . S
C514 C512 1.384 . S
C514 C515 1.372 . S
C515 C514 1.372 . S
C515 C516 1.400 . S
C515 C520 1.490 . S
C516 H506 0.930 . S
C516 C515 1.400 . S
C516 C519 1.386 . S
H517 C533 0.930 . S
H518 C534 0.931 . S
C519 H507 0.929 . S
C519 C513 1.390 . S
C519 C516 1.386 . S
C520 C515 1.490 . S
C520 C522 1.395 . S
C520 C523 1.403 1_565 S
H521 C527 0.930 . S
C522 H508 0.930 . S
C522 C520 1.395 . S
C522 C525 1.403 . S
C523 C520 1.403 1_545 S
C523 C524 1.524 . S
C523 C527 1.400 . S
C524 H509 0.960 . S
C524 H510 0.960 . S
C524 H511 0.960 . S
C524 C523 1.524 . S
C525 C522 1.403 . S
C525 C526 1.392 1_565 S
C525 C529 1.495 . S
C526 C525 1.392 1_545 S
C526 C527 1.385 . S
C526 C528 1.478 . S
C527 H521 0.930 . S
C527 C523 1.400 . S
C527 C526 1.385 . S
C528 C526 1.478 . S
C528 C530 1.381 . S
C528 C534 1.383 . S
C529 C525 1.495 . S
C529 H535 0.959 . S
C529 H536 0.961 . S
C529 H537 0.960 . S
C530 C528 1.381 . S
C530 C531 1.394 . S
C530 H538 0.930 . S
C531 C530 1.394 . S
C531 C532 1.383 . S
C531 H539 0.929 . S
C532 C531 1.383 . S
C532 C533 1.377 . S
C533 H517 0.930 . S
C533 C532 1.377 . S
C533 C534 1.379 . S
C534 H518 0.931 . S
C534 C528 1.383 . S
C534 C533 1.379 . S
H535 C529 0.959 . S
H536 C529 0.961 . S
H537 C529 0.960 . S
H538 C530 0.930 . S
H539 C531 0.929 . S
H540 C548 0.929 . S
H541 C550 0.930 . S
H542 C552 0.930 . S
H543 C555 0.929 . S
H544 C558 0.930 . S
H545 C560 0.960 . S
H546 C560 0.960 . S
H547 C560 0.960 . S
C548 H540 0.929 . S
C548 C549 1.377 . S
C548 C550 1.384 . S
C549 C548 1.377 . S
C549 C555 1.390 . S
C550 H541 0.930 . S
C550 C548 1.384 . S
C550 C551 1.372 . S
C551 C550 1.372 . S
C551 C552 1.400 . S
C551 C556 1.490 . S
C552 H542 0.930 . S
C552 C551 1.400 . S
C552 C555 1.386 . S
H553 C569 0.930 . S
H554 C570 0.931 . S
C555 H543 0.929 . S
C555 C549 1.390 . S
C555 C552 1.386 . S
C556 C551 1.490 . S
C556 C558 1.395 . S
C556 C559 1.403 . S
H557 C563 0.930 . S
C558 H544 0.930 . S
C558 C556 1.395 . S
C558 C561 1.403 1_455 S
C559 C556 1.403 . S
C559 C560 1.524 . S
C559 C563 1.400 1_455 S
C560 H545 0.960 . S
C560 H546 0.960 . S
C560 H547 0.960 . S
C560 C559 1.524 . S
C561 C558 1.403 1_655 S
C561 C562 1.392 . S
C561 C565 1.495 . S
C562 C561 1.392 . S
C562 C563 1.385 . S
C562 C564 1.478 . S
C563 H557 0.930 . S
C563 C559 1.400 1_655 S
C563 C562 1.385 . S
C564 C562 1.478 . S
C564 C566 1.381 . S
C564 C570 1.383 . S
C565 C561 1.495 . S
C565 H571 0.959 . S
C565 H572 0.961 . S
C565 H573 0.960 . S
C566 C564 1.381 . S
C566 C567 1.394 . S
C566 H574 0.930 . S
C567 C566 1.394 . S
C567 C568 1.383 . S
C567 H575 0.929 . S
C568 C567 1.383 . S
C568 C569 1.377 . S
C569 H553 0.930 . S
C569 C568 1.377 . S
C569 C570 1.379 . S
C570 H554 0.931 . S
C570 C564 1.383 . S
C570 C569 1.379 . S
H571 C565 0.959 . S
H572 C565 0.961 . S
H573 C565 0.960 . S
H574 C566 0.930 . S
H575 C567 0.929 . S
H576 C584 0.929 . S
H577 C586 0.930 . S
H578 C588 0.930 . S
H579 C591 0.929 . S
H580 C594 0.930 . S
H581 C596 0.960 . S
H582 C596 0.960 . S
H583 C596 0.960 . S
C584 H576 0.929 . S
C584 C585 1.377 . S
C584 C586 1.384 . S
C585 C584 1.377 . S
C585 C591 1.390 . S
C586 H577 0.930 . S
C586 C584 1.384 . S
C586 C587 1.372 . S
C587 C586 1.372 . S
C587 C588 1.400 . S
C587 C592 1.490 . S
C588 H578 0.930 . S
C588 C587 1.400 . S
C588 C591 1.386 . S
H589 C605 0.930 . S
H590 C606 0.931 . S
C591 H579 0.929 . S
C591 C585 1.390 . S
C591 C588 1.386 . S
C592 C587 1.490 . S
C592 C594 1.395 . S
C592 C595 1.403 . S
H593 C599 0.930 . S
C594 H580 0.930 . S
C594 C592 1.395 . S
C594 C597 1.403 . S
C595 C592 1.403 . S
C595 C596 1.524 . S
C595 C599 1.400 . S
C596 H581 0.960 . S
C596 H582 0.960 . S
C596 H583 0.960 . S
C596 C595 1.524 . S
C597 C594 1.403 . S
C597 C598 1.392 . S
C597 C601 1.495 . S
C598 C597 1.392 . S
C598 C599 1.385 . S
C598 C600 1.478 . S
C599 H593 0.930 . S
C599 C595 1.400 . S
C599 C598 1.385 . S
C600 C598 1.478 . S
C600 C602 1.381 . S
C600 C606 1.383 . S
C601 C597 1.495 . S
C601 H607 0.959 . S
C601 H608 0.961 . S
C601 H609 0.960 . S
C602 C600 1.381 . S
C602 C603 1.394 . S
C602 H610 0.930 . S
C603 C602 1.394 . S
C603 C604 1.383 . S
C603 H611 0.929 . S
C604 C603 1.383 . S
C604 C605 1.377 . S
C605 H589 0.930 . S
C605 C604 1.377 . S
C605 C606 1.379 . S
C606 H590 0.931 . S
C606 C600 1.383 . S
C606 C605 1.379 . S
H607 C601 0.959 . S
H608 C601 0.961 . S
H609 C601 0.960 . S
H610 C602 0.930 . S
H611 C603 0.929 . S
H612 C620 0.929 . S
H613 C622 0.930 . S
H614 C624 0.930 . S
H615 C627 0.929 . S
H616 C630 0.930 . S
H617 C632 0.960 1_545 S
H618 C632 0.962 1_545 S
H619 C632 0.960 . S
C620 H612 0.929 . S
C620 C621 1.377 . S
C620 C622 1.384 . S
C621 C620 1.377 . S
C621 C627 1.390 . S
C622 H613 0.930 . S
C622 C620 1.384 . S
C622 C623 1.372 . S
C623 C622 1.372 . S
C623 C624 1.400 . S
C623 C628 1.490 . S
C624 H614 0.930 . S
C624 C623 1.400 . S
C624 C627 1.386 . S
H625 C641 0.930 . S
H626 C642 0.931 . S
C627 H615 0.929 . S
C627 C621 1.390 . S
C627 C624 1.386 . S
C628 C623 1.490 . S
C628 C630 1.395 . S
C628 C631 1.403 . S
H629 C635 0.930 . S
C630 H616 0.930 . S
C630 C628 1.395 . S
C630 C633 1.403 1_565 S
C631 C628 1.403 . S
C631 C632 1.524 . S
C631 C635 1.400 1_565 S
C632 H617 0.960 1_565 S
C632 H618 0.962 1_565 S
C632 H619 0.960 . S
C632 C631 1.524 . S
C633 C630 1.403 1_545 S
C633 C634 1.392 . S
C633 C637 1.495 . S
C634 C633 1.392 . S
C634 C635 1.385 . S
C634 C636 1.478 . S
C635 H629 0.930 . S
C635 C631 1.400 1_545 S
C635 C634 1.385 . S
C636 C634 1.478 . S
C636 C638 1.381 . S
C636 C642 1.383 . S
C637 C633 1.495 . S
C637 H643 0.915 1_545 S
C637 H644 0.961 . S
C637 H645 0.960 . S
C638 C636 1.381 . S
C638 C639 1.394 . S
C638 H646 0.930 . S
C639 C638 1.394 . S
C639 C640 1.383 . S
C639 H647 0.929 . S
C640 C639 1.383 . S
C640 C641 1.377 . S
C641 H625 0.930 . S
C641 C640 1.377 . S
C641 C642 1.379 . S
C642 H626 0.931 . S
C642 C636 1.383 . S
C642 C641 1.379 . S
H643 C637 0.915 1_565 S
H644 C637 0.961 . S
H645 C637 0.960 . S
H646 C638 0.930 . S
H647 C639 0.929 . S
H648 C656 0.929 . S
H649 C658 0.930 . S
H650 C660 0.930 . S
H651 C663 0.929 . S
H652 C666 0.930 . S
H653 C668 0.960 1_655 S
H654 C668 0.960 . S
H655 C668 0.965 . S
C656 H648 0.929 . S
C656 C657 1.377 . S
C656 C658 1.384 . S
C657 C656 1.377 . S
C657 C663 1.390 . S
C658 H649 0.930 . S
C658 C656 1.384 . S
C658 C659 1.372 . S
C659 C658 1.372 . S
C659 C660 1.400 . S
C659 C664 1.490 . S
C660 H650 0.930 . S
C660 C659 1.400 . S
C660 C663 1.386 . S
H661 C677 0.930 . S
H662 C678 0.931 . S
C663 H651 0.929 . S
C663 C657 1.390 . S
C663 C660 1.386 . S
C664 C659 1.490 . S
C664 C666 1.395 . S
C664 C667 1.403 . S
H665 C671 0.930 . S
C666 H652 0.930 . S
C666 C664 1.395 . S
C666 C669 1.403 1_455 S
C667 C664 1.403 . S
C667 C668 1.524 . S
C667 C671 1.400 1_455 S
C668 H653 0.960 1_455 S
C668 H654 0.960 . S
C668 H655 0.965 . S
C668 C667 1.524 . S
C669 C666 1.403 1_655 S
C669 C670 1.394 . S
C669 C673 1.529 . S
C670 C669 1.394 . S
C670 C671 1.385 . S
C670 C672 1.478 . S
C671 H665 0.930 . S
C671 C667 1.400 1_655 S
C671 C670 1.385 . S
C672 C670 1.478 . S
C672 C674 1.381 . S
C672 C678 1.383 . S
C673 C669 1.529 . S
C673 H679 0.888 1_655 S
C673 H680 1.014 . S
C673 H681 0.951 1_655 S
C674 C672 1.381 . S
C674 C675 1.394 . S
C674 H682 0.930 . S
C675 C674 1.394 . S
C675 C676 1.383 . S
C675 H683 0.929 . S
C676 C675 1.383 . S
C676 C677 1.377 . S
C677 H661 0.930 . S
C677 C676 1.377 . S
C677 C678 1.379 . S
C678 H662 0.931 . S
C678 C672 1.383 . S
C678 C677 1.379 . S
H679 C673 0.888 1_455 S
H680 C673 1.014 . S
H681 C673 0.951 1_455 S
H682 C674 0.930 . S
H683 C675 0.929 . S
H684 C692 0.929 . S
H685 C694 0.930 . S
H686 C696 0.930 . S
H687 C699 0.929 . S
H688 C702 0.930 . S
H689 C704 0.960 . S
H690 C704 0.960 . S
H691 C704 0.960 . S
C692 H684 0.929 . S
C692 C693 1.377 . S
C692 C694 1.384 . S
C693 C692 1.377 . S
C693 C699 1.390 . S
C694 H685 0.930 . S
C694 C692 1.384 . S
C694 C695 1.372 . S
C695 C694 1.372 . S
C695 C696 1.400 . S
C695 C700 1.490 . S
C696 H686 0.930 . S
C696 C695 1.400 . S
C696 C699 1.386 . S
H697 C713 0.930 . S
H698 C714 0.931 . S
C699 H687 0.929 . S
C699 C693 1.390 . S
C699 C696 1.386 . S
C700 C695 1.490 . S
C700 C702 1.395 . S
C700 C703 1.403 . S
H701 C707 0.930 . S
C702 H688 0.930 . S
C702 C700 1.395 . S
C702 C705 1.403 . S
C703 C700 1.403 . S
C703 C704 1.524 . S
C703 C707 1.400 . S
C704 H689 0.960 . S
C704 H690 0.960 . S
C704 H691 0.960 . S
C704 C703 1.524 . S
C705 C702 1.403 . S
C705 C706 1.392 . S
C705 C709 1.495 . S
C706 C705 1.392 . S
C706 C707 1.385 . S
C706 C708 1.478 . S
C707 H701 0.930 . S
C707 C703 1.400 . S
C707 C706 1.385 . S
C708 C706 1.478 . S
C708 C710 1.381 . S
C708 C714 1.383 . S
C709 C705 1.495 . S
C709 H715 0.959 . S
C709 H716 0.961 . S
C709 H717 0.960 . S
C710 C708 1.381 . S
C710 C711 1.394 . S
C710 H718 0.930 . S
C711 C710 1.394 . S
C711 C712 1.383 . S
C711 H719 0.929 . S
C712 C711 1.383 . S
C712 C713 1.377 . S
C713 H697 0.930 . S
C713 C712 1.377 . S
C713 C714 1.379 . S
C714 H698 0.931 . S
C714 C708 1.383 . S
C714 C713 1.379 . S
H715 C709 0.959 . S
H716 C709 0.961 . S
H717 C709 0.960 . S
H718 C710 0.930 . S
H719 C711 0.929 . S
H720 C728 0.929 . S
H721 C730 0.930 . S
H722 C732 0.930 . S
H723 C735 0.929 . S
H724 C738 0.930 . S
H725 C740 0.960 . S
H726 C740 0.960 . S
H727 C740 0.960 . S
C728 H720 0.929 . S
C728 C729 1.377 . S
C728 C730 1.384 . S
C729 C728 1.377 . S
C729 C735 1.390 . S
C730 H721 0.930 . S
C730 C728 1.384 . S
C730 C731 1.372 . S
C731 C730 1.372 . S
C731 C732 1.400 . S
C731 C736 1.490 . S
C732 H722 0.930 . S
C732 C731 1.400 . S
C732 C735 1.386 . S
H733 C749 0.930 . S
H734 C750 0.931 . S
C735 H723 0.929 . S
C735 C729 1.390 . S
C735 C732 1.386 . S
C736 C731 1.490 . S
C736 C738 1.395 . S
C736 C739 1.403 . S
H737 C743 0.930 . S
C738 H724 0.930 . S
C738 C736 1.395 . S
C738 C741 1.403 . S
C739 C736 1.403 . S
C739 C740 1.524 . S
C739 C743 1.400 . S
C740 H725 0.960 . S
C740 H726 0.960 . S
C740 H727 0.960 . S
C740 C739 1.524 . S
C741 C738 1.403 . S
C741 C742 1.392 . S
C741 C745 1.495 . S
C742 C741 1.392 . S
C742 C743 1.385 . S
C742 C744 1.478 . S
C743 H737 0.930 . S
C743 C739 1.400 . S
C743 C742 1.385 . S
C744 C742 1.478 . S
C744 C746 1.381 . S
C744 C750 1.383 . S
C745 C741 1.495 . S
C745 H751 0.959 . S
C745 H752 0.961 . S
C745 H753 0.960 . S
C746 C744 1.381 . S
C746 C747 1.394 . S
C746 H754 0.930 . S
C747 C746 1.394 . S
C747 C748 1.383 . S
C747 H755 0.929 . S
C748 C747 1.383 . S
C748 C749 1.377 . S
C749 H733 0.930 . S
C749 C748 1.377 . S
C749 C750 1.379 . S
C750 H734 0.931 . S
C750 C744 1.383 . S
C750 C749 1.379 . S
H751 C745 0.959 . S
H752 C745 0.961 . S
H753 C745 0.960 . S
H754 C746 0.930 . S
H755 C747 0.929 . S
H756 C764 0.929 . S
H757 C766 0.930 . S
H758 C768 0.930 . S
H759 C771 0.929 . S
H760 C774 0.930 . S
H761 C776 0.960 . S
H762 C776 0.960 . S
H763 C776 0.960 . S
C764 H756 0.929 . S
C764 C765 1.377 . S
C764 C766 1.384 . S
C765 C764 1.377 . S
C765 C771 1.390 . S
C766 H757 0.930 . S
C766 C764 1.384 . S
C766 C767 1.372 . S
C767 C766 1.372 . S
C767 C768 1.400 . S
C767 C772 1.490 . S
C768 H758 0.930 . S
C768 C767 1.400 . S
C768 C771 1.386 . S
H769 C785 0.930 . S
H770 C786 0.931 . S
C771 H759 0.929 . S
C771 C765 1.390 . S
C771 C768 1.386 . S
C772 C767 1.490 . S
C772 C774 1.395 . S
C772 C775 1.403 . S
H773 C779 0.930 . S
C774 H760 0.930 . S
C774 C772 1.395 . S
C774 C777 1.403 . S
C775 C772 1.403 . S
C775 C776 1.524 . S
C775 C779 1.400 . S
C776 H761 0.960 . S
C776 H762 0.960 . S
C776 H763 0.960 . S
C776 C775 1.524 . S
C777 C774 1.403 . S
C777 C778 1.392 . S
C777 C781 1.495 . S
C778 C777 1.392 . S
C778 C779 1.385 . S
C778 C780 1.478 . S
C779 H773 0.930 . S
C779 C775 1.400 . S
C779 C778 1.385 . S
C780 C778 1.478 . S
C780 C782 1.381 . S
C780 C786 1.383 . S
C781 C777 1.495 . S
C781 H787 0.959 . S
C781 H788 0.961 . S
C781 H789 0.960 . S
C782 C780 1.381 . S
C782 C783 1.394 . S
C782 H790 0.930 . S
C783 C782 1.394 . S
C783 C784 1.383 . S
C783 H791 0.929 . S
C784 C783 1.383 . S
C784 C785 1.377 . S
C785 H769 0.930 . S
C785 C784 1.377 . S
C785 C786 1.379 . S
C786 H770 0.931 . S
C786 C780 1.383 . S
C786 C785 1.379 . S
H787 C781 0.959 . S
H788 C781 0.961 . S
H789 C781 0.960 . S
H790 C782 0.930 . S
H791 C783 0.929 . S
H792 C800 0.929 . S
H793 C802 0.930 . S
H794 C804 0.930 . S
H795 C807 0.929 . S
H796 C810 0.930 . S
H797 C812 0.960 . S
H798 C812 0.960 . S
H799 C812 0.960 . S
C800 H792 0.929 . S
C800 C801 1.377 . S
C800 C802 1.384 . S
C801 C800 1.377 . S
C801 C807 1.390 . S
C802 H793 0.930 . S
C802 C800 1.384 . S
C802 C803 1.372 . S
C803 C802 1.372 . S
C803 C804 1.400 . S
C803 C808 1.490 . S
C804 H794 0.930 . S
C804 C803 1.400 . S
C804 C807 1.386 . S
H805 C821 0.930 . S
H806 C822 0.931 . S
C807 H795 0.929 . S
C807 C801 1.390 . S
C807 C804 1.386 . S
C808 C803 1.490 . S
C808 C810 1.395 . S
C808 C811 1.403 . S
H809 C815 0.930 . S
C810 H796 0.930 . S
C810 C808 1.395 . S
C810 C813 1.403 . S
C811 C808 1.403 . S
C811 C812 1.524 . S
C811 C815 1.400 . S
C812 H797 0.960 . S
C812 H798 0.960 . S
C812 H799 0.960 . S
C812 C811 1.524 . S
C813 C810 1.403 . S
C813 C814 1.392 . S
C813 C817 1.495 . S
C814 C813 1.392 . S
C814 C815 1.385 . S
C814 C816 1.478 . S
C815 H809 0.930 . S
C815 C811 1.400 . S
C815 C814 1.385 . S
C816 C814 1.478 . S
C816 C818 1.381 . S
C816 C822 1.383 . S
C817 C813 1.495 . S
C817 H823 0.959 . S
C817 H824 0.961 . S
C817 H825 0.960 . S
C818 C816 1.381 . S
C818 C819 1.394 . S
C818 H826 0.930 . S
C819 C818 1.394 . S
C819 C820 1.383 . S
C819 H827 0.929 1_556 S
C820 C819 1.383 . S
C820 C821 1.377 . S
C821 H805 0.930 . S
C821 C820 1.377 . S
C821 C822 1.379 . S
C822 H806 0.931 . S
C822 C816 1.383 . S
C822 C821 1.379 . S
H823 C817 0.959 . S
H824 C817 0.961 . S
H825 C817 0.960 . S
H826 C818 0.930 . S
H827 C819 0.929 1_554 S
H828 C836 0.929 . S
H829 C838 0.930 . S
H830 C840 0.930 . S
H831 C843 0.929 . S
H832 C846 0.930 . S
H833 C848 0.960 . S
H834 C848 0.960 . S
H835 C848 0.960 . S
C836 H828 0.929 . S
C836 C837 1.377 . S
C836 C838 1.384 . S
C837 C836 1.377 . S
C837 C843 1.390 . S
C838 H829 0.930 . S
C838 C836 1.384 . S
C838 C839 1.372 . S
C839 C838 1.372 . S
C839 C840 1.400 . S
C839 C844 1.490 . S
C840 H830 0.930 . S
C840 C839 1.400 . S
C840 C843 1.386 . S
H841 C857 0.930 . S
H842 C858 0.931 . S
C843 H831 0.929 . S
C843 C837 1.390 . S
C843 C840 1.386 . S
C844 C839 1.490 . S
C844 C846 1.395 . S
C844 C847 1.403 . S
H845 C851 0.930 . S
C846 H832 0.930 . S
C846 C844 1.395 . S
C846 C849 1.403 . S
C847 C844 1.403 . S
C847 C848 1.524 . S
C847 C851 1.400 . S
C848 H833 0.960 . S
C848 H834 0.960 . S
C848 H835 0.960 . S
C848 C847 1.524 . S
C849 C846 1.403 . S
C849 C850 1.392 . S
C849 C853 1.495 . S
C850 C849 1.392 . S
C850 C851 1.385 . S
C850 C852 1.478 . S
C851 H845 0.930 . S
C851 C847 1.400 . S
C851 C850 1.385 . S
C852 C850 1.478 . S
C852 C854 1.381 . S
C852 C858 1.383 . S
C853 C849 1.495 . S
C853 H859 0.959 . S
C853 H860 0.961 . S
C853 H861 0.960 . S
C854 C852 1.381 . S
C854 C855 1.394 . S
C854 H862 0.930 . S
C855 C854 1.394 . S
C855 C856 1.383 . S
C855 H863 0.929 1_556 S
C856 C855 1.383 . S
C856 C857 1.377 . S
C857 H841 0.930 . S
C857 C856 1.377 . S
C857 C858 1.379 . S
C858 H842 0.931 . S
C858 C852 1.383 . S
C858 C857 1.379 . S
H859 C853 0.959 . S
H860 C853 0.961 . S
H861 C853 0.960 . S
H862 C854 0.930 . S
H863 C855 0.929 1_554 S
H864 C872 0.929 . S
H865 C874 0.930 . S
H866 C876 0.930 . S
H867 C879 0.929 1_554 S
H868 C882 0.930 . S
H869 C884 0.960 . S
H870 C884 0.960 . S
H871 C884 0.960 . S
C872 H864 0.929 . S
C872 C873 1.377 . S
C872 C874 1.384 . S
C873 C872 1.377 . S
C873 C879 1.390 . S
C874 H865 0.930 . S
C874 C872 1.384 . S
C874 C875 1.372 . S
C875 C874 1.372 . S
C875 C876 1.400 . S
C875 C880 1.490 . S
C876 H866 0.930 . S
C876 C875 1.400 . S
C876 C879 1.386 . S
H877 C893 0.930 . S
H878 C894 0.931 . S
C879 H867 0.929 1_556 S
C879 C873 1.390 . S
C879 C876 1.386 . S
C880 C875 1.490 . S
C880 C882 1.395 . S
C880 C883 1.403 . S
H881 C887 0.930 . S
C882 H868 0.930 . S
C882 C880 1.395 . S
C882 C885 1.403 . S
C883 C880 1.403 . S
C883 C884 1.524 . S
C883 C887 1.400 . S
C884 H869 0.960 . S
C884 H870 0.960 . S
C884 H871 0.960 . S
C884 C883 1.524 . S
C885 C882 1.403 . S
C885 C886 1.392 . S
C885 C889 1.495 . S
C886 C885 1.392 . S
C886 C887 1.385 . S
C886 C888 1.478 . S
C887 H881 0.930 . S
C887 C883 1.400 . S
C887 C886 1.385 . S
C888 C886 1.478 . S
C888 C890 1.381 . S
C888 C894 1.383 . S
C889 C885 1.495 . S
C889 H895 0.959 . S
C889 H896 0.961 . S
C889 H897 0.960 . S
C890 C888 1.381 . S
C890 C891 1.394 . S
C890 H898 0.930 . S
C891 C890 1.394 . S
C891 C892 1.383 . S
C891 H899 0.929 . S
C892 C891 1.383 . S
C892 C893 1.377 . S
C893 H877 0.930 . S
C893 C892 1.377 . S
C893 C894 1.379 . S
C894 H878 0.931 . S
C894 C888 1.383 . S
C894 C893 1.379 . S
H895 C889 0.959 . S
H896 C889 0.961 . S
H897 C889 0.960 . S
H898 C890 0.930 . S
H899 C891 0.929 . S
H900 C908 0.929 . S
H901 C910 0.930 . S
H902 C912 0.930 . S
H903 C915 0.929 . S
H904 C918 0.930 . S
H905 C920 0.960 . S
H906 C920 0.960 . S
H907 C920 0.960 . S
C908 H900 0.929 . S
C908 C909 1.377 . S
C908 C910 1.384 . S
C909 C908 1.377 . S
C909 C915 1.390 . S
C910 H901 0.930 . S
C910 C908 1.384 . S
C910 C911 1.372 . S
C911 C910 1.372 . S
C911 C912 1.400 . S
C911 C916 1.490 . S
C912 H902 0.930 . S
C912 C911 1.400 . S
C912 C915 1.386 . S
H913 C929 0.944 . S
H914 C930 0.931 . S
C915 H903 0.929 . S
C915 C909 1.390 . S
C915 C912 1.386 . S
C916 C911 1.490 . S
C916 C918 1.395 . S
C916 C919 1.403 . S
H917 C923 0.930 . S
C918 H904 0.930 . S
C918 C916 1.395 . S
C918 C921 1.403 . S
C919 C916 1.403 . S
C919 C920 1.524 . S
C919 C923 1.400 . S
C920 H905 0.960 . S
C920 H906 0.960 . S
C920 H907 0.960 . S
C920 C919 1.524 . S
C921 C918 1.403 . S
C921 C922 1.392 . S
C921 C925 1.495 . S
C922 C921 1.392 . S
C922 C923 1.385 . S
C922 C924 1.478 . S
C923 H917 0.930 . S
C923 C919 1.400 . S
C923 C922 1.385 . S
C924 C922 1.478 . S
C924 C926 1.381 . S
C924 C930 1.383 . S
C925 C921 1.495 . S
C925 H931 0.959 . S
C925 H932 0.961 . S
C925 H933 0.960 . S
C926 C924 1.381 . S
C926 C927 1.394 . S
C926 H934 0.930 . S
C927 C926 1.394 . S
C927 C928 1.383 . S
C927 H935 0.929 . S
C928 C927 1.383 . S
C928 C929 1.377 . S
C929 H913 0.944 . S
C929 C928 1.377 . S
C929 C930 1.379 . S
C930 H914 0.931 . S
C930 C924 1.383 . S
C930 C929 1.379 . S
H931 C925 0.959 . S
H932 C925 0.961 . S
H933 C925 0.960 . S
H934 C926 0.930 . S
H935 C927 0.929 . S
H936 C944 0.929 . S
H937 C946 0.930 . S
H938 C948 0.930 . S
H939 C951 0.929 . S
H940 C954 0.930 . S
H941 C956 0.960 . S
H942 C956 0.960 . S
H943 C956 0.960 . S
C944 H936 0.929 . S
C944 C945 1.377 . S
C944 C946 1.384 . S
C945 C944 1.377 . S
C945 C951 1.390 . S
C946 H937 0.930 . S
C946 C944 1.384 . S
C946 C947 1.372 . S
C947 C946 1.372 . S
C947 C948 1.400 . S
C947 C952 1.490 . S
C948 H938 0.930 . S
C948 C947 1.400 . S
C948 C951 1.386 . S
H949 C965 0.930 . S
H950 C966 0.931 . S
C951 H939 0.929 . S
C951 C945 1.390 . S
C951 C948 1.386 . S
C952 C947 1.490 . S
C952 C954 1.395 . S
C952 C955 1.403 . S
H953 C959 0.930 . S
C954 H940 0.930 . S
C954 C952 1.395 . S
C954 C957 1.403 . S
C955 C952 1.403 . S
C955 C956 1.524 . S
C955 C959 1.400 . S
C956 H941 0.960 . S
C956 H942 0.960 . S
C956 H943 0.960 . S
C956 C955 1.524 . S
C957 C954 1.403 . S
C957 C958 1.392 . S
C957 C961 1.495 . S
C958 C957 1.392 . S
C958 C959 1.385 . S
C958 C960 1.478 . S
C959 H953 0.930 . S
C959 C955 1.400 . S
C959 C958 1.385 . S
C960 C958 1.478 . S
C960 C962 1.381 . S
C960 C966 1.383 . S
C961 C957 1.495 . S
C961 H967 0.959 . S
C961 H968 0.961 . S
C961 H969 0.960 . S
C962 C960 1.381 . S
C962 C963 1.394 . S
C962 H970 0.930 . S
C963 C962 1.394 . S
C963 C964 1.383 . S
C963 H971 0.929 . S
C964 C963 1.383 . S
C964 C965 1.377 . S
C965 H949 0.930 . S
C965 C964 1.377 . S
C965 C966 1.379 . S
C966 H950 0.931 . S
C966 C960 1.383 . S
C966 C965 1.379 . S
H967 C961 0.959 . S
H968 C961 0.961 . S
H969 C961 0.960 . S
H970 C962 0.930 . S
H971 C963 0.929 . S
H972 C980 0.929 . S
H973 C982 0.930 . S
H974 C984 0.930 . S
H975 C987 0.929 . S
H976 C990 0.930 . S
H977 C992 0.960 . S
H978 C992 0.960 . S
H979 C992 0.960 . S
C980 H972 0.929 . S
C980 C981 1.377 . S
C980 C982 1.384 . S
C981 C980 1.377 . S
C981 C987 1.390 . S
C982 H973 0.930 . S
C982 C980 1.384 . S
C982 C983 1.372 . S
C983 C982 1.372 . S
C983 C984 1.400 . S
C983 C988 1.490 . S
C984 H974 0.930 . S
C984 C983 1.400 . S
C984 C987 1.386 . S
H985 C1001 0.930 1_556 S
H986 C1002 0.931 . S
C987 H975 0.929 . S
C987 C981 1.390 . S
C987 C984 1.386 . S
C988 C983 1.490 . S
C988 C990 1.395 . S
C988 C991 1.403 . S
H989 C995 0.930 . S
C990 H976 0.930 . S
C990 C988 1.395 . S
C990 C993 1.403 . S
C991 C988 1.403 . S
C991 C992 1.524 . S
C991 C995 1.400 . S
C992 H977 0.960 . S
C992 H978 0.960 . S
C992 H979 0.960 . S
C992 C991 1.524 . S
C993 C990 1.403 . S
C993 C994 1.392 . S
C993 C997 1.495 . S
C994 C993 1.392 . S
C994 C995 1.385 . S
C994 C996 1.478 . S
C995 H989 0.930 . S
C995 C991 1.400 . S
C995 C994 1.385 . S
C996 C994 1.478 . S
C996 C998 1.381 . S
C996 C1002 1.383 . S
C997 C993 1.495 . S
C997 H1003 0.959 . S
C997 H1004 0.961 . S
C997 H1005 0.960 . S
C998 C996 1.381 . S
C998 C999 1.394 . S
C998 H1006 0.930 . S
C999 C998 1.394 . S
C999 C1000 1.383 . S
C999 H1007 0.929 . S
C1000 C999 1.383 . S
C1000 C1001 1.377 . S
C1001 H985 0.930 1_554 S
C1001 C1000 1.377 . S
C1001 C1002 1.379 . S
C1002 H986 0.931 . S
C1002 C996 1.383 . S
C1002 C1001 1.379 . S
H1003 C997 0.959 . S
H1004 C997 0.961 . S
H1005 C997 0.960 . S
H1006 C998 0.930 . S
H1007 C999 0.929 . S
H1008 C1016 0.929 . S
H1009 C1018 0.930 . S
H1010 C1020 0.930 . S
H1011 C1023 0.929 . S
H1012 C1026 0.930 . S
H1013 C1028 0.960 . S
H1014 C1028 0.960 . S
H1015 C1028 0.960 . S
C1016 H1008 0.929 . S
C1016 C1017 1.377 . S
C1016 C1018 1.384 . S
C1017 C1016 1.377 . S
C1017 C1023 1.390 . S
C1018 H1009 0.930 . S
C1018 C1016 1.384 . S
C1018 C1019 1.372 . S
C1019 C1018 1.372 . S
C1019 C1020 1.400 . S
C1019 C1024 1.490 . S
C1020 H1010 0.930 . S
C1020 C1019 1.400 . S
C1020 C1023 1.386 . S
H1021 C1037 0.930 1_556 S
H1022 C1038 0.931 . S
C1023 H1011 0.929 . S
C1023 C1017 1.390 . S
C1023 C1020 1.386 . S
C1024 C1019 1.490 . S
C1024 C1026 1.395 . S
C1024 C1027 1.403 . S
H1025 C1031 0.930 . S
C1026 H1012 0.930 . S
C1026 C1024 1.395 . S
C1026 C1029 1.403 . S
C1027 C1024 1.403 . S
C1027 C1028 1.524 . S
C1027 C1031 1.400 . S
C1028 H1013 0.960 . S
C1028 H1014 0.960 . S
C1028 H1015 0.960 . S
C1028 C1027 1.524 . S
C1029 C1026 1.403 . S
C1029 C1030 1.392 . S
C1029 C1033 1.495 . S
C1030 C1029 1.392 . S
C1030 C1031 1.385 . S
C1030 C1032 1.478 . S
C1031 H1025 0.930 . S
C1031 C1027 1.400 . S
C1031 C1030 1.385 . S
C1032 C1030 1.478 . S
C1032 C1034 1.381 . S
C1032 C1038 1.383 . S
C1033 C1029 1.495 . S
C1033 H1039 0.959 . S
C1033 H1040 0.961 . S
C1033 H1041 0.960 . S
C1034 C1032 1.381 . S
C1034 C1035 1.394 . S
C1034 H1042 0.930 . S
C1035 C1034 1.394 . S
C1035 C1036 1.383 . S
C1035 H1043 0.929 . S
C1036 C1035 1.383 . S
C1036 C1037 1.377 . S
C1037 H1021 0.930 1_554 S
C1037 C1036 1.377 . S
C1037 C1038 1.379 . S
C1038 H1022 0.931 . S
C1038 C1032 1.383 . S
C1038 C1037 1.379 . S
H1039 C1033 0.959 . S
H1040 C1033 0.961 . S
H1041 C1033 0.960 . S
H1042 C1034 0.930 . S
H1043 C1035 0.929 . S
H1044 C1052 0.929 . S
H1045 C1054 0.930 . S
H1046 C1056 0.930 . S
H1047 C1059 0.929 . S
H1048 C1062 0.930 . S
H1049 C1064 0.960 . S
H1050 C1064 0.960 . S
H1051 C1064 0.960 . S
C1052 H1044 0.929 . S
C1052 C1053 1.377 . S
C1052 C1054 1.384 . S
C1053 C1052 1.377 . S
C1053 C1059 1.390 . S
C1054 H1045 0.930 . S
C1054 C1052 1.384 . S
C1054 C1055 1.372 . S
C1055 C1054 1.372 . S
C1055 C1056 1.400 . S
C1055 C1060 1.490 . S
C1056 H1046 0.930 . S
C1056 C1055 1.400 . S
C1056 C1059 1.386 . S
H1057 C1073 0.930 . S
H1058 C1074 0.931 . S
C1059 H1047 0.929 . S
C1059 C1053 1.390 . S
C1059 C1056 1.386 . S
C1060 C1055 1.490 . S
C1060 C1062 1.395 . S
C1060 C1063 1.403 . S
H1061 C1067 0.930 . S
C1062 H1048 0.930 . S
C1062 C1060 1.395 . S
C1062 C1065 1.403 . S
C1063 C1060 1.403 . S
C1063 C1064 1.524 . S
C1063 C1067 1.400 . S
C1064 H1049 0.960 . S
C1064 H1050 0.960 . S
C1064 H1051 0.960 . S
C1064 C1063 1.524 . S
C1065 C1062 1.403 . S
C1065 C1066 1.392 . S
C1065 C1069 1.495 . S
C1066 C1065 1.392 . S
C1066 C1067 1.385 . S
C1066 C1068 1.478 . S
C1067 H1061 0.930 . S
C1067 C1063 1.400 . S
C1067 C1066 1.385 . S
C1068 C1066 1.478 . S
C1068 C1070 1.381 . S
C1068 C1074 1.383 . S
C1069 C1065 1.495 . S
C1069 H1075 0.959 . S
C1069 H1076 0.961 . S
C1069 H1077 0.960 . S
C1070 C1068 1.381 . S
C1070 C1071 1.394 . S
C1070 H1078 0.930 . S
C1071 C1070 1.394 . S
C1071 C1072 1.383 . S
C1071 H1079 0.929 . S
C1072 C1071 1.383 . S
C1072 C1073 1.377 . S
C1073 H1057 0.930 . S
C1073 C1072 1.377 . S
C1073 C1074 1.379 . S
C1074 H1058 0.931 . S
C1074 C1068 1.383 . S
C1074 C1073 1.379 . S
H1075 C1069 0.959 . S
H1076 C1069 0.961 . S
H1077 C1069 0.960 . S
H1078 C1070 0.930 . S
H1079 C1071 0.929 . S
H1080 C1088 0.929 . S
H1081 C1090 0.930 . S
H1082 C1092 0.930 . S
H1083 C1095 0.929 . S
H1084 C1098 0.930 . S
H1085 C1100 0.960 . S
H1086 C1100 0.960 . S
H1087 C1100 0.960 . S
C1088 H1080 0.929 . S
C1088 C1089 1.377 . S
C1088 C1090 1.384 . S
C1089 C1088 1.377 . S
C1089 C1095 1.390 . S
C1090 H1081 0.930 . S
C1090 C1088 1.384 . S
C1090 C1091 1.372 . S
C1091 C1090 1.372 . S
C1091 C1092 1.400 . S
C1091 C1096 1.490 . S
C1092 H1082 0.930 . S
C1092 C1091 1.400 . S
C1092 C1095 1.386 . S
H1093 C1109 0.930 . S
H1094 C1110 0.931 . S
C1095 H1083 0.929 . S
C1095 C1089 1.390 . S
C1095 C1092 1.386 . S
C1096 C1091 1.490 . S
C1096 C1098 1.395 . S
C1096 C1099 1.403 . S
H1097 C1103 0.930 . S
C1098 H1084 0.930 . S
C1098 C1096 1.395 . S
C1098 C1101 1.403 . S
C1099 C1096 1.403 . S
C1099 C1100 1.524 . S
C1099 C1103 1.400 . S
C1100 H1085 0.960 . S
C1100 H1086 0.960 . S
C1100 H1087 0.960 . S
C1100 C1099 1.524 . S
C1101 C1098 1.403 . S
C1101 C1102 1.392 . S
C1101 C1105 1.495 . S
C1102 C1101 1.392 . S
C1102 C1103 1.385 . S
C1102 C1104 1.478 . S
C1103 H1097 0.930 . S
C1103 C1099 1.400 . S
C1103 C1102 1.385 . S
C1104 C1102 1.478 . S
C1104 C1106 1.381 . S
C1104 C1110 1.383 . S
C1105 C1101 1.495 . S
C1105 H1111 0.959 . S
C1105 H1112 0.961 . S
C1105 H1113 0.960 . S
C1106 C1104 1.381 . S
C1106 C1107 1.394 . S
C1106 H1114 0.930 . S
C1107 C1106 1.394 . S
C1107 C1108 1.383 . S
C1107 H1115 0.929 . S
C1108 C1107 1.383 . S
C1108 C1109 1.377 . S
C1109 H1093 0.930 . S
C1109 C1108 1.377 . S
C1109 C1110 1.379 . S
C1110 H1094 0.931 . S
C1110 C1104 1.383 . S
C1110 C1109 1.379 . S
H1111 C1105 0.959 . S
H1112 C1105 0.961 . S
H1113 C1105 0.960 . S
H1114 C1106 0.930 . S
H1115 C1107 0.929 . S
H1116 C1124 0.929 . S
H1117 C1126 0.930 . S
H1118 C1128 0.930 . S
H1119 C1131 0.929 . S
H1120 C1134 0.930 . S
H1121 C1136 0.960 . S
H1122 C1136 0.960 . S
H1123 C1136 0.960 . S
C1124 H1116 0.929 . S
C1124 C1125 1.377 . S
C1124 C1126 1.384 . S
C1125 C1124 1.377 . S
C1125 C1131 1.390 . S
C1126 H1117 0.930 . S
C1126 C1124 1.384 . S
C1126 C1127 1.372 . S
C1127 C1126 1.372 . S
C1127 C1128 1.400 . S
C1127 C1132 1.490 . S
C1128 H1118 0.930 . S
C1128 C1127 1.400 . S
C1128 C1131 1.386 . S
H1129 C1145 0.930 . S
H1130 C1146 0.931 . S
C1131 H1119 0.929 . S
C1131 C1125 1.390 . S
C1131 C1128 1.386 . S
C1132 C1127 1.490 . S
C1132 C1134 1.395 . S
C1132 C1135 1.403 . S
H1133 C1139 0.930 . S
C1134 H1120 0.930 . S
C1134 C1132 1.395 . S
C1134 C1137 1.403 . S
C1135 C1132 1.403 . S
C1135 C1136 1.524 . S
C1135 C1139 1.400 . S
C1136 H1121 0.960 . S
C1136 H1122 0.960 . S
C1136 H1123 0.960 . S
C1136 C1135 1.524 . S
C1137 C1134 1.403 . S
C1137 C1138 1.392 . S
C1137 C1141 1.495 . S
C1138 C1137 1.392 . S
C1138 C1139 1.385 . S
C1138 C1140 1.478 . S
C1139 H1133 0.930 . S
C1139 C1135 1.400 . S
C1139 C1138 1.385 . S
C1140 C1138 1.478 . S
C1140 C1142 1.381 . S
C1140 C1146 1.383 . S
C1141 C1137 1.495 . S
C1141 H1147 0.959 . S
C1141 H1148 0.961 . S
C1141 H1149 0.960 . S
C1142 C1140 1.381 . S
C1142 C1143 1.394 . S
C1142 H1150 0.930 . S
C1143 C1142 1.394 . S
C1143 C1144 1.383 . S
C1143 H1151 0.929 . S
C1144 C1143 1.383 . S
C1144 C1145 1.377 . S
C1145 H1129 0.930 . S
C1145 C1144 1.377 . S
C1145 C1146 1.379 . S
C1146 H1130 0.931 . S
C1146 C1140 1.383 . S
C1146 C1145 1.379 . S
H1147 C1141 0.959 . S
H1148 C1141 0.961 . S
H1149 C1141 0.960 . S
H1150 C1142 0.930 . S
H1151 C1143 0.929 . S
H1152 C1160 0.929 . S
H1153 C1162 0.930 . S
H1154 C1164 0.930 . S
H1155 C1167 0.929 . S
H1156 C1170 0.930 . S
H1157 C1172 0.960 . S
H1158 C1172 0.960 . S
H1159 C1172 0.960 . S
C1160 H1152 0.929 . S
C1160 C1161 1.377 . S
C1160 C1162 1.384 . S
C1161 C1160 1.377 . S
C1161 C1167 1.390 . S
C1162 H1153 0.930 . S
C1162 C1160 1.384 . S
C1162 C1163 1.372 . S
C1163 C1162 1.372 . S
C1163 C1164 1.400 . S
C1163 C1168 1.490 . S
C1164 H1154 0.930 . S
C1164 C1163 1.400 . S
C1164 C1167 1.386 . S
H1165 C1181 0.930 . S
H1166 C1182 0.931 . S
C1167 H1155 0.929 . S
C1167 C1161 1.390 . S
C1167 C1164 1.386 . S
C1168 C1163 1.490 . S
C1168 C1170 1.395 1_565 S
C1168 C1171 1.403 1_556 S
H1169 C1175 0.930 . S
C1170 H1156 0.930 . S
C1170 C1168 1.395 1_545 S
C1170 C1173 1.403 . S
C1171 C1168 1.403 1_554 S
C1171 C1172 1.524 . S
C1171 C1175 1.400 . S
C1172 H1157 0.960 . S
C1172 H1158 0.960 . S
C1172 H1159 0.960 . S
C1172 C1171 1.524 . S
C1173 C1170 1.403 . S
C1173 C1174 1.392 1_556 S
C1173 C1177 1.495 . S
C1174 C1173 1.392 1_554 S
C1174 C1175 1.385 1_545 S
C1174 C1176 1.478 . S
C1175 H1169 0.930 . S
C1175 C1171 1.400 . S
C1175 C1174 1.385 1_565 S
C1176 C1174 1.478 . S
C1176 C1178 1.381 . S
C1176 C1182 1.383 . S
C1177 C1173 1.495 . S
C1177 H1183 0.959 . S
C1177 H1184 0.961 . S
C1177 H1185 0.960 . S
C1178 C1176 1.381 . S
C1178 C1179 1.394 . S
C1178 H1186 0.930 . S
C1179 C1178 1.394 . S
C1179 C1180 1.383 . S
C1179 H1187 0.929 . S
C1180 C1179 1.383 . S
C1180 C1181 1.377 . S
C1181 H1165 0.930 . S
C1181 C1180 1.377 . S
C1181 C1182 1.379 . S
C1182 H1166 0.931 . S
C1182 C1176 1.383 . S
C1182 C1181 1.379 . S
H1183 C1177 0.959 . S
H1184 C1177 0.961 . S
H1185 C1177 0.960 . S
H1186 C1178 0.930 . S
H1187 C1179 0.929 . S
H1188 C1196 0.929 . S
H1189 C1198 0.930 . S
H1190 C1200 0.930 . S
H1191 C1203 0.929 . S
H1192 C1206 0.929 1_554 S
H1193 C1208 0.960 . S
H1194 C1208 0.960 . S
H1195 C1208 0.960 . S
C1196 H1188 0.929 . S
C1196 C1197 1.377 . S
C1196 C1198 1.384 . S
C1197 C1196 1.377 . S
C1197 C1203 1.390 . S
C1198 H1189 0.930 . S
C1198 C1196 1.384 . S
C1198 C1199 1.372 . S
C1199 C1198 1.372 . S
C1199 C1200 1.400 . S
C1199 C1204 1.490 . S
C1200 H1190 0.930 . S
C1200 C1199 1.400 . S
C1200 C1203 1.386 . S
H1201 C1217 0.930 . S
H1202 C1218 0.931 . S
C1203 H1191 0.929 . S
C1203 C1197 1.390 . S
C1203 C1200 1.386 . S
C1204 C1199 1.490 . S
C1204 C1206 1.385 1_554 S
C1204 C1207 1.403 1_655 S
H1205 C1211 0.930 . S
C1206 H1192 0.929 1_556 S
C1206 C1204 1.385 1_556 S
C1206 C1209 1.413 . S
C1207 C1204 1.403 1_455 S
C1207 C1208 1.524 . S
C1207 C1211 1.400 1_554 S
C1208 H1193 0.960 . S
C1208 H1194 0.960 . S
C1208 H1195 0.960 . S
C1208 C1207 1.524 . S
C1209 C1206 1.413 . S
C1209 C1210 1.392 1_655 S
C1209 C1213 1.495 . S
C1210 C1209 1.392 1_455 S
C1210 C1211 1.385 . S
C1210 C1212 1.478 . S
C1211 H1205 0.930 . S
C1211 C1207 1.400 1_556 S
C1211 C1210 1.385 . S
C1212 C1210 1.478 . S
C1212 C1214 1.381 . S
C1212 C1218 1.383 . S
C1213 C1209 1.495 . S
C1213 H1219 0.959 . S
C1213 H1220 0.961 . S
C1213 H1221 0.960 . S
C1214 C1212 1.381 . S
C1214 C1215 1.394 . S
C1214 H1222 0.930 . S
C1215 C1214 1.394 . S
C1215 C1216 1.383 . S
C1215 H1223 0.929 . S
C1216 C1215 1.383 . S
C1216 C1217 1.377 . S
C1217 H1201 0.930 . S
C1217 C1216 1.377 . S
C1217 C1218 1.379 . S
C1218 H1202 0.931 . S
C1218 C1212 1.383 . S
C1218 C1217 1.379 . S
H1219 C1213 0.959 . S
H1220 C1213 0.961 . S
H1221 C1213 0.960 . S
H1222 C1214 0.930 . S
H1223 C1215 0.929 . S
H1224 C1232 0.929 . S
H1225 C1234 0.930 . S
H1226 C1236 0.930 . S
H1227 C1239 0.929 . S
H1228 C1242 0.930 . S
H1229 C1244 0.960 . S
H1230 C1244 0.960 . S
H1231 C1244 0.960 . S
C1232 H1224 0.929 . S
C1232 C1233 1.377 . S
C1232 C1234 1.384 . S
C1233 C1232 1.377 . S
C1233 C1239 1.390 . S
C1234 H1225 0.930 . S
C1234 C1232 1.384 . S
C1234 C1235 1.372 . S
C1235 C1234 1.372 . S
C1235 C1236 1.400 . S
C1235 C1240 1.490 . S
C1236 H1226 0.930 . S
C1236 C1235 1.400 . S
C1236 C1239 1.386 . S
H1237 C1253 0.930 . S
H1238 C1254 0.931 . S
C1239 H1227 0.929 . S
C1239 C1233 1.390 . S
C1239 C1236 1.386 . S
C1240 C1235 1.490 . S
C1240 C1242 1.395 1_556 S
C1240 C1243 1.403 . S
H1241 C1247 0.931 . S
C1242 H1228 0.930 . S
C1242 C1240 1.395 1_554 S
C1242 C1245 1.403 . S
C1243 C1240 1.403 . S
C1243 C1244 1.524 . S
C1243 C1247 1.400 1_556 S
C1244 H1229 0.960 . S
C1244 H1230 0.960 . S
C1244 H1231 0.960 . S
C1244 C1243 1.524 . S
C1245 C1242 1.403 . S
C1245 C1246 1.392 . S
C1245 C1249 1.495 . S
C1246 C1245 1.392 . S
C1246 C1247 1.385 . S
C1246 C1248 1.478 . S
C1247 H1241 0.931 . S
C1247 C1243 1.400 1_554 S
C1247 C1246 1.385 . S
C1248 C1246 1.478 . S
C1248 C1250 1.381 . S
C1248 C1254 1.383 . S
C1249 C1245 1.495 . S
C1249 H1255 0.959 . S
C1249 H1256 0.961 . S
C1249 H1257 0.960 . S
C1250 C1248 1.381 . S
C1250 C1251 1.394 . S
C1250 H1258 0.930 . S
C1251 C1250 1.394 . S
C1251 C1252 1.383 . S
C1251 H1259 0.929 . S
C1252 C1251 1.383 . S
C1252 C1253 1.377 . S
C1253 H1237 0.930 . S
C1253 C1252 1.377 . S
C1253 C1254 1.379 . S
C1254 H1238 0.931 . S
C1254 C1248 1.383 . S
C1254 C1253 1.379 . S
H1255 C1249 0.959 . S
H1256 C1249 0.961 . S
H1257 C1249 0.960 . S
H1258 C1250 0.930 . S
H1259 C1251 0.929 . S
H1260 C1268 0.929 . S
H1261 C1270 0.930 . S
H1262 C1272 0.930 . S
H1263 C1275 0.929 . S
H1264 C1278 0.930 . S
H1265 C1280 0.960 . S
H1266 C1280 0.960 . S
H1267 C1280 0.863 1_565 S
C1268 H1260 0.929 . S
C1268 C1269 1.377 . S
C1268 C1270 1.384 . S
C1269 C1268 1.377 . S
C1269 C1275 1.390 . S
C1270 H1261 0.930 . S
C1270 C1268 1.384 . S
C1270 C1271 1.372 . S
C1271 C1270 1.372 . S
C1271 C1272 1.400 . S
C1271 C1276 1.490 . S
C1272 H1262 0.930 . S
C1272 C1271 1.400 . S
C1272 C1275 1.386 . S
H1273 C1289 0.930 . S
H1274 C1290 0.931 . S
C1275 H1263 0.929 . S
C1275 C1269 1.390 . S
C1275 C1272 1.386 . S
C1276 C1271 1.490 . S
C1276 C1278 1.395 . S
C1276 C1279 1.403 1_565 S
H1277 C1283 0.930 . S
C1278 H1264 0.930 . S
C1278 C1276 1.395 . S
C1278 C1281 1.403 1_556 S
C1279 C1276 1.403 1_545 S
C1279 C1280 1.524 . S
C1279 C1283 1.400 1_556 S
C1280 H1265 0.960 . S
C1280 H1266 0.960 . S
C1280 H1267 0.863 1_545 S
C1280 C1279 1.524 . S
C1281 C1278 1.403 1_554 S
C1281 C1282 1.392 1_565 S
C1281 C1285 1.495 . S
C1282 C1281 1.392 1_545 S
C1282 C1283 1.385 . S
C1282 C1284 1.478 . S
C1283 H1277 0.930 . S
C1283 C1279 1.400 1_554 S
C1283 C1282 1.385 . S
C1284 C1282 1.478 . S
C1284 C1286 1.381 . S
C1284 C1290 1.383 . S
C1285 C1281 1.495 . S
C1285 H1291 0.959 . S
C1285 H1292 0.961 . S
C1285 H1293 0.860 1_565 S
C1286 C1284 1.381 . S
C1286 C1287 1.394 . S
C1286 H1294 0.930 . S
C1287 C1286 1.394 . S
C1287 C1288 1.383 . S
C1287 H1295 0.929 . S
C1288 C1287 1.383 . S
C1288 C1289 1.377 . S
C1289 H1273 0.930 . S
C1289 C1288 1.377 . S
C1289 C1290 1.379 . S
C1290 H1274 0.931 . S
C1290 C1284 1.383 . S
C1290 C1289 1.379 . S
H1291 C1285 0.959 . S
H1292 C1285 0.961 . S
H1293 C1285 0.860 1_545 S
H1294 C1286 0.930 . S
H1295 C1287 0.929 . S
H1296 C1304 0.929 . S
H1297 C1306 0.930 . S
H1298 C1308 0.930 . S
H1299 C1311 0.929 . S
H1300 C1314 0.930 . S
H1301 C1316 0.960 . S
H1302 C1316 0.960 . S
H1303 C1316 0.960 . S
C1304 H1296 0.929 . S
C1304 C1305 1.377 . S
C1304 C1306 1.384 . S
C1305 C1304 1.377 . S
C1305 C1311 1.390 . S
C1306 H1297 0.930 . S
C1306 C1304 1.384 . S
C1306 C1307 1.372 . S
C1307 C1306 1.372 . S
C1307 C1308 1.400 . S
C1307 C1312 1.490 . S
C1308 H1298 0.930 . S
C1308 C1307 1.400 . S
C1308 C1311 1.386 . S
H1309 C1325 0.930 . S
H1310 C1326 0.931 . S
C1311 H1299 0.929 . S
C1311 C1305 1.390 . S
C1311 C1308 1.386 . S
C1312 C1307 1.490 . S
C1312 C1314 1.395 1_556 S
C1312 C1315 1.403 1_455 S
H1313 C1319 0.930 . S
C1314 H1300 0.930 . S
C1314 C1312 1.395 1_554 S
C1314 C1317 1.403 . S
C1315 C1312 1.403 1_655 S
C1315 C1316 1.524 . S
C1315 C1319 1.400 1_556 S
C1316 H1301 0.960 . S
C1316 H1302 0.960 . S
C1316 H1303 0.960 . S
C1316 C1315 1.524 . S
C1317 C1314 1.403 . S
C1317 C1318 1.392 1_455 S
C1317 C1321 1.495 . S
C1318 C1317 1.392 1_655 S
C1318 C1319 1.385 . S
C1318 C1320 1.478 . S
C1319 H1313 0.930 . S
C1319 C1315 1.400 1_554 S
C1319 C1318 1.385 . S
C1320 C1318 1.478 . S
C1320 C1322 1.381 . S
C1320 C1326 1.383 . S
C1321 C1317 1.495 . S
C1321 H1327 0.959 . S
C1321 H1328 0.961 . S
C1321 H1329 0.960 . S
C1322 C1320 1.381 . S
C1322 C1323 1.394 . S
C1322 H1330 0.930 . S
C1323 C1322 1.394 . S
C1323 C1324 1.383 . S
C1323 H1331 0.929 . S
C1324 C1323 1.383 . S
C1324 C1325 1.377 . S
C1325 H1309 0.930 . S
C1325 C1324 1.377 . S
C1325 C1326 1.379 . S
C1326 H1310 0.931 . S
C1326 C1320 1.383 . S
C1326 C1325 1.379 . S
H1327 C1321 0.959 . S
H1328 C1321 0.961 . S
H1329 C1321 0.960 . S
H1330 C1322 0.930 . S
H1331 C1323 0.929 . S
H1332 C1340 0.929 . S
H1333 C1342 0.930 . S
H1334 C1344 0.930 . S
H1335 C1347 0.929 . S
H1336 C1350 0.930 . S
H1337 C1352 0.960 . S
H1338 C1352 0.960 . S
H1339 C1352 0.960 . S
C1340 H1332 0.929 . S
C1340 C1341 1.377 . S
C1340 C1342 1.384 . S
C1341 C1340 1.377 . S
C1341 C1347 1.390 . S
C1342 H1333 0.930 . S
C1342 C1340 1.384 . S
C1342 C1343 1.372 . S
C1343 C1342 1.372 . S
C1343 C1344 1.400 . S
C1343 C1348 1.490 . S
C1344 H1334 0.930 . S
C1344 C1343 1.400 . S
C1344 C1347 1.386 . S
H1345 C1361 0.930 . S
H1346 C1362 0.931 . S
C1347 H1335 0.929 . S
C1347 C1341 1.390 . S
C1347 C1344 1.386 . S
C1348 C1343 1.490 . S
C1348 C1350 1.395 1_554 S
C1348 C1351 1.403 . S
H1349 C1355 0.930 . S
C1350 H1336 0.930 . S
C1350 C1348 1.395 1_556 S
C1350 C1353 1.403 . S
C1351 C1348 1.403 . S
C1351 C1352 1.524 . S
C1351 C1355 1.400 1_554 S
C1352 H1337 0.960 . S
C1352 H1338 0.960 . S
C1352 H1339 0.960 . S
C1352 C1351 1.524 . S
C1353 C1350 1.403 . S
C1353 C1354 1.392 . S
C1353 C1357 1.495 . S
C1354 C1353 1.392 . S
C1354 C1355 1.385 . S
C1354 C1356 1.478 . S
C1355 H1349 0.930 . S
C1355 C1351 1.400 1_556 S
C1355 C1354 1.385 . S
C1356 C1354 1.478 . S
C1356 C1358 1.381 . S
C1356 C1362 1.383 . S
C1357 C1353 1.495 . S
C1357 H1363 0.959 . S
C1357 H1364 0.961 . S
C1357 H1365 0.960 . S
C1358 C1356 1.381 . S
C1358 C1359 1.394 . S
C1358 H1366 0.930 . S
C1359 C1358 1.394 . S
C1359 C1360 1.383 . S
C1359 H1367 0.929 . S
C1360 C1359 1.383 . S
C1360 C1361 1.377 . S
C1361 H1345 0.930 . S
C1361 C1360 1.377 . S
C1361 C1362 1.379 . S
C1362 H1346 0.931 . S
C1362 C1356 1.383 . S
C1362 C1361 1.379 . S
H1363 C1357 0.959 . S
H1364 C1357 0.961 . S
H1365 C1357 0.960 . S
H1366 C1358 0.930 . S
H1367 C1359 0.929 . S
H1368 C1376 0.929 . S
H1369 C1378 0.930 . S
H1370 C1380 0.930 . S
H1371 C1383 0.929 . S
H1372 C1386 0.930 . S
H1373 C1388 0.960 . S
H1374 C1388 0.960 . S
H1375 C1388 0.960 . S
C1376 H1368 0.929 . S
C1376 C1377 1.377 . S
C1376 C1378 1.384 . S
C1377 C1376 1.377 . S
C1377 C1383 1.390 . S
C1378 H1369 0.930 . S
C1378 C1376 1.384 . S
C1378 C1379 1.372 . S
C1379 C1378 1.372 . S
C1379 C1380 1.400 . S
C1379 C1384 1.490 . S
C1380 H1370 0.930 . S
C1380 C1379 1.400 . S
C1380 C1383 1.386 . S
H1381 C1397 0.930 . S
H1382 C1398 0.931 . S
C1383 H1371 0.929 . S
C1383 C1377 1.390 . S
C1383 C1380 1.386 . S
C1384 C1379 1.490 . S
C1384 C1386 1.395 . S
C1384 C1387 1.403 . S
H1385 C1391 0.930 . S
C1386 H1372 0.930 . S
C1386 C1384 1.395 . S
C1386 C1389 1.403 . S
C1387 C1384 1.403 . S
C1387 C1388 1.524 . S
C1387 C1391 1.400 . S
C1388 H1373 0.960 . S
C1388 H1374 0.960 . S
C1388 H1375 0.960 . S
C1388 C1387 1.524 . S
C1389 C1386 1.403 . S
C1389 C1390 1.392 . S
C1389 C1393 1.495 . S
C1390 C1389 1.392 . S
C1390 C1391 1.385 . S
C1390 C1392 1.478 . S
C1391 H1385 0.930 . S
C1391 C1387 1.400 . S
C1391 C1390 1.385 . S
C1392 C1390 1.478 . S
C1392 C1394 1.381 . S
C1392 C1398 1.383 . S
C1393 C1389 1.495 . S
C1393 H1399 0.959 . S
C1393 H1400 0.961 . S
C1393 H1401 0.960 . S
C1394 C1392 1.381 . S
C1394 C1395 1.394 . S
C1394 H1402 0.930 . S
C1395 C1394 1.394 . S
C1395 C1396 1.383 . S
C1395 H1403 0.929 . S
C1396 C1395 1.383 . S
C1396 C1397 1.377 . S
C1397 H1381 0.930 . S
C1397 C1396 1.377 . S
C1397 C1398 1.379 . S
C1398 H1382 0.931 . S
C1398 C1392 1.383 . S
C1398 C1397 1.379 . S
H1399 C1393 0.959 . S
H1400 C1393 0.961 . S
H1401 C1393 0.960 . S
H1402 C1394 0.930 . S
H1403 C1395 0.929 . S
H1404 C1412 0.929 . S
H1405 C1414 0.930 . S
H1406 C1416 0.930 . S
H1407 C1419 0.929 . S
H1408 C1422 0.930 . S
H1409 C1424 0.960 . S
H1410 C1424 0.960 . S
H1411 C1424 0.960 . S
C1412 H1404 0.929 . S
C1412 C1413 1.377 . S
C1412 C1414 1.384 . S
C1413 C1412 1.377 . S
C1413 C1419 1.390 . S
C1414 H1405 0.930 . S
C1414 C1412 1.384 . S
C1414 C1415 1.372 . S
C1415 C1414 1.372 . S
C1415 C1416 1.400 . S
C1415 C1420 1.490 . S
C1416 H1406 0.930 . S
C1416 C1415 1.400 . S
C1416 C1419 1.386 . S
H1417 C1433 0.930 . S
H1418 C1434 0.931 . S
C1419 H1407 0.929 . S
C1419 C1413 1.390 . S
C1419 C1416 1.386 . S
C1420 C1415 1.490 . S
C1420 C1422 1.395 . S
C1420 C1423 1.403 . S
H1421 C1427 0.930 . S
C1422 H1408 0.930 . S
C1422 C1420 1.395 . S
C1422 C1425 1.403 . S
C1423 C1420 1.403 . S
C1423 C1424 1.524 . S
C1423 C1427 1.400 . S
C1424 H1409 0.960 . S
C1424 H1410 0.960 . S
C1424 H1411 0.960 . S
C1424 C1423 1.524 . S
C1425 C1422 1.403 . S
C1425 C1426 1.392 . S
C1425 C1429 1.495 . S
C1426 C1425 1.392 . S
C1426 C1427 1.385 . S
C1426 C1428 1.478 . S
C1427 H1421 0.930 . S
C1427 C1423 1.400 . S
C1427 C1426 1.385 . S
C1428 C1426 1.478 . S
C1428 C1430 1.381 . S
C1428 C1434 1.383 . S
C1429 C1425 1.495 . S
C1429 H1435 0.959 . S
C1429 H1436 0.961 . S
C1429 H1437 0.960 . S
C1430 C1428 1.381 . S
C1430 C1431 1.394 . S
C1430 H1438 0.930 . S
C1431 C1430 1.394 . S
C1431 C1432 1.383 . S
C1431 H1439 0.929 . S
C1432 C1431 1.383 . S
C1432 C1433 1.377 . S
C1433 H1417 0.930 . S
C1433 C1432 1.377 . S
C1433 C1434 1.379 . S
C1434 H1418 0.931 . S
C1434 C1428 1.383 . S
C1434 C1433 1.379 . S
H1435 C1429 0.959 . S
H1436 C1429 0.961 . S
H1437 C1429 0.960 . S
H1438 C1430 0.930 . S
H1439 C1431 0.929 . S
H1440 C1448 0.929 . S
H1441 C1450 0.930 . S
H1442 C1452 0.930 . S
H1443 C1455 0.929 . S
H1444 C1458 0.930 . S
H1445 C1460 0.960 . S
H1446 C1460 0.960 . S
H1447 C1460 0.960 . S
C1448 H1440 0.929 . S
C1448 C1449 1.377 . S
C1448 C1450 1.384 . S
C1449 C1448 1.377 . S
C1449 C1455 1.390 . S
C1450 H1441 0.930 . S
C1450 C1448 1.384 . S
C1450 C1451 1.372 . S
C1451 C1450 1.372 . S
C1451 C1452 1.400 . S
C1451 C1456 1.490 . S
C1452 H1442 0.930 . S
C1452 C1451 1.400 . S
C1452 C1455 1.386 . S
H1453 C1469 0.930 . S
H1454 C1470 0.931 . S
C1455 H1443 0.929 . S
C1455 C1449 1.390 . S
C1455 C1452 1.386 . S
C1456 C1451 1.490 . S
C1456 C1458 1.395 . S
C1456 C1459 1.403 . S
H1457 C1463 0.930 . S
C1458 H1444 0.930 . S
C1458 C1456 1.395 . S
C1458 C1461 1.403 . S
C1459 C1456 1.403 . S
C1459 C1460 1.524 . S
C1459 C1463 1.400 . S
C1460 H1445 0.960 . S
C1460 H1446 0.960 . S
C1460 H1447 0.960 . S
C1460 C1459 1.524 . S
C1461 C1458 1.403 . S
C1461 C1462 1.392 . S
C1461 C1465 1.495 . S
C1462 C1461 1.392 . S
C1462 C1463 1.385 . S
C1462 C1464 1.478 . S
C1463 H1457 0.930 . S
C1463 C1459 1.400 . S
C1463 C1462 1.385 . S
C1464 C1462 1.478 . S
C1464 C1466 1.381 . S
C1464 C1470 1.383 . S
C1465 C1461 1.495 . S
C1465 H1471 0.959 . S
C1465 H1472 0.961 . S
C1465 H1473 0.960 . S
C1466 C1464 1.381 . S
C1466 C1467 1.394 . S
C1466 H1474 0.930 . S
C1467 C1466 1.394 . S
C1467 C1468 1.383 . S
C1467 H1475 0.929 . S
C1468 C1467 1.383 . S
C1468 C1469 1.377 . S
C1469 H1453 0.930 . S
C1469 C1468 1.377 . S
C1469 C1470 1.379 . S
C1470 H1454 0.931 . S
C1470 C1464 1.383 . S
C1470 C1469 1.379 . S
H1471 C1465 0.959 . S
H1472 C1465 0.961 . S
H1473 C1465 0.960 . S
H1474 C1466 0.930 . S
H1475 C1467 0.929 . S
H1476 C1484 0.929 . S
H1477 C1486 0.930 . S
H1478 C1488 0.930 . S
H1479 C1491 0.929 . S
H1480 C1494 0.930 . S
H1481 C1496 0.960 . S
H1482 C1496 0.960 . S
H1483 C1496 0.960 . S
C1484 H1476 0.929 . S
C1484 C1485 1.377 . S
C1484 C1486 1.384 . S
C1485 C1484 1.377 . S
C1485 C1491 1.390 . S
C1486 H1477 0.930 . S
C1486 C1484 1.384 . S
C1486 C1487 1.372 . S
C1487 C1486 1.372 . S
C1487 C1488 1.400 . S
C1487 C1492 1.490 . S
C1488 H1478 0.930 . S
C1488 C1487 1.400 . S
C1488 C1491 1.386 . S
H1489 C1505 0.930 . S
H1490 C1506 0.931 . S
C1491 H1479 0.929 . S
C1491 C1485 1.390 . S
C1491 C1488 1.386 . S
C1492 C1487 1.490 . S
C1492 C1494 1.395 . S
C1492 C1495 1.403 . S
H1493 C1499 0.930 . S
C1494 H1480 0.930 . S
C1494 C1492 1.395 . S
C1494 C1497 1.403 . S
C1495 C1492 1.403 . S
C1495 C1496 1.524 . S
C1495 C1499 1.400 . S
C1496 H1481 0.960 . S
C1496 H1482 0.960 . S
C1496 H1483 0.960 . S
C1496 C1495 1.524 . S
C1497 C1494 1.403 . S
C1497 C1498 1.392 . S
C1497 C1501 1.495 . S
C1498 C1497 1.392 . S
C1498 C1499 1.385 . S
C1498 C1500 1.478 . S
C1499 H1493 0.930 . S
C1499 C1495 1.400 . S
C1499 C1498 1.385 . S
C1500 C1498 1.478 . S
C1500 C1502 1.381 . S
C1500 C1506 1.383 . S
C1501 C1497 1.495 . S
C1501 H1507 0.959 . S
C1501 H1508 0.961 . S
C1501 H1509 0.960 . S
C1502 C1500 1.381 . S
C1502 C1503 1.394 . S
C1502 H1510 0.930 . S
C1503 C1502 1.394 . S
C1503 C1504 1.383 . S
C1503 H1511 0.929 . S
C1504 C1503 1.383 . S
C1504 C1505 1.377 . S
C1505 H1489 0.930 . S
C1505 C1504 1.377 . S
C1505 C1506 1.379 . S
C1506 H1490 0.931 . S
C1506 C1500 1.383 . S
C1506 C1505 1.379 . S
H1507 C1501 0.959 . S
H1508 C1501 0.961 . S
H1509 C1501 0.960 . S
H1510 C1502 0.930 . S
H1511 C1503 0.929 . S
H1512 C1520 0.929 . S
H1513 C1522 0.930 . S
H1514 C1524 0.930 . S
H1515 C1527 0.929 . S
H1516 C1530 0.930 . S
H1517 C1532 0.960 . S
H1518 C1532 0.960 . S
H1519 C1532 0.960 . S
C1520 H1512 0.929 . S
C1520 C1521 1.377 . S
C1520 C1522 1.384 . S
C1521 C1520 1.377 . S
C1521 C1527 1.390 . S
C1522 H1513 0.930 . S
C1522 C1520 1.384 . S
C1522 C1523 1.372 . S
C1523 C1522 1.372 . S
C1523 C1524 1.400 . S
C1523 C1528 1.490 . S
C1524 H1514 0.930 . S
C1524 C1523 1.400 . S
C1524 C1527 1.386 . S
H1525 C1541 0.930 . S
H1526 C1542 0.931 . S
C1527 H1515 0.929 . S
C1527 C1521 1.390 . S
C1527 C1524 1.386 . S
C1528 C1523 1.490 . S
C1528 C1530 1.395 . S
C1528 C1531 1.403 . S
H1529 C1535 0.930 . S
C1530 H1516 0.930 . S
C1530 C1528 1.395 . S
C1530 C1533 1.403 . S
C1531 C1528 1.403 . S
C1531 C1532 1.524 . S
C1531 C1535 1.400 . S
C1532 H1517 0.960 . S
C1532 H1518 0.960 . S
C1532 H1519 0.960 . S
C1532 C1531 1.524 . S
C1533 C1530 1.403 . S
C1533 C1534 1.392 . S
C1533 C1537 1.495 . S
C1534 C1533 1.392 . S
C1534 C1535 1.385 . S
C1534 C1536 1.478 . S
C1535 H1529 0.930 . S
C1535 C1531 1.400 . S
C1535 C1534 1.385 . S
C1536 C1534 1.478 . S
C1536 C1538 1.381 . S
C1536 C1542 1.383 . S
C1537 C1533 1.495 . S
C1537 H1543 0.959 . S
C1537 H1544 0.961 . S
C1537 H1545 0.960 . S
C1538 C1536 1.381 . S
C1538 C1539 1.394 . S
C1538 H1546 0.930 . S
C1539 C1538 1.394 . S
C1539 C1540 1.383 . S
C1539 H1547 0.929 . S
C1540 C1539 1.383 . S
C1540 C1541 1.377 . S
C1541 H1525 0.930 . S
C1541 C1540 1.377 . S
C1541 C1542 1.379 . S
C1542 H1526 0.931 . S
C1542 C1536 1.383 . S
C1542 C1541 1.379 . S
H1543 C1537 0.959 . S
H1544 C1537 0.961 . S
H1545 C1537 0.960 . S
H1546 C1538 0.930 . S
H1547 C1539 0.929 . S
H1548 C1556 0.929 . S
H1549 C1558 0.930 . S
H1550 C1560 0.930 . S
H1551 C1563 0.929 . S
H1552 C1566 0.930 . S
H1553 C1568 0.960 . S
H1554 C1568 0.960 . S
H1555 C1568 0.960 . S
C1556 H1548 0.929 . S
C1556 C1557 1.377 . S
C1556 C1558 1.384 . S
C1557 C1556 1.377 . S
C1557 C1563 1.390 . S
C1558 H1549 0.930 . S
C1558 C1556 1.384 . S
C1558 C1559 1.372 . S
C1559 C1558 1.372 . S
C1559 C1560 1.400 . S
C1559 C1564 1.490 . S
C1560 H1550 0.930 . S
C1560 C1559 1.400 . S
C1560 C1563 1.386 . S
H1561 C1577 0.930 . S
H1562 C1578 0.931 . S
C1563 H1551 0.929 . S
C1563 C1557 1.390 . S
C1563 C1560 1.386 . S
C1564 C1559 1.490 . S
C1564 C1566 1.395 . S
C1564 C1567 1.403 . S
H1565 C1571 0.930 . S
C1566 H1552 0.930 . S
C1566 C1564 1.395 . S
C1566 C1569 1.403 . S
C1567 C1564 1.403 . S
C1567 C1568 1.524 . S
C1567 C1571 1.400 . S
C1568 H1553 0.960 . S
C1568 H1554 0.960 . S
C1568 H1555 0.960 . S
C1568 C1567 1.524 . S
C1569 C1566 1.403 . S
C1569 C1570 1.392 . S
C1569 C1573 1.495 . S
C1570 C1569 1.392 . S
C1570 C1571 1.385 . S
C1570 C1572 1.478 . S
C1571 H1565 0.930 . S
C1571 C1567 1.400 . S
C1571 C1570 1.385 . S
C1572 C1570 1.478 . S
C1572 C1574 1.381 . S
C1572 C1578 1.383 . S
C1573 C1569 1.495 . S
C1573 H1579 0.959 . S
C1573 H1580 0.961 . S
C1573 H1581 0.960 . S
C1574 C1572 1.381 . S
C1574 C1575 1.394 . S
C1574 H1582 0.930 . S
C1575 C1574 1.394 . S
C1575 C1576 1.383 . S
C1575 H1583 0.929 . S
C1576 C1575 1.383 . S
C1576 C1577 1.377 . S
C1577 H1561 0.930 . S
C1577 C1576 1.377 . S
C1577 C1578 1.379 . S
C1578 H1562 0.931 . S
C1578 C1572 1.383 . S
C1578 C1577 1.379 . S
H1579 C1573 0.959 . S
H1580 C1573 0.961 . S
H1581 C1573 0.960 . S
H1582 C1574 0.930 . S
H1583 C1575 0.929 . S
H1584 C1592 0.929 . S
H1585 C1594 0.930 . S
H1586 C1596 0.930 . S
H1587 C1599 0.929 . S
H1588 C1602 0.930 . S
H1589 C1604 0.960 . S
H1590 C1604 0.960 . S
H1591 C1604 0.960 . S
C1592 H1584 0.929 . S
C1592 C1593 1.377 . S
C1592 C1594 1.384 . S
C1593 C1592 1.377 . S
C1593 C1599 1.390 . S
C1594 H1585 0.930 . S
C1594 C1592 1.384 . S
C1594 C1595 1.372 . S
C1595 C1594 1.372 . S
C1595 C1596 1.400 . S
C1595 C1600 1.490 . S
C1596 H1586 0.930 . S
C1596 C1595 1.400 . S
C1596 C1599 1.386 . S
H1597 C1613 0.930 . S
H1598 C1614 0.931 . S
C1599 H1587 0.929 . S
C1599 C1593 1.390 . S
C1599 C1596 1.386 . S
C1600 C1595 1.490 . S
C1600 C1602 1.395 . S
C1600 C1603 1.403 . S
H1601 C1607 0.930 . S
C1602 H1588 0.930 . S
C1602 C1600 1.395 . S
C1602 C1605 1.403 . S
C1603 C1600 1.403 . S
C1603 C1604 1.524 . S
C1603 C1607 1.400 . S
C1604 H1589 0.960 . S
C1604 H1590 0.960 . S
C1604 H1591 0.960 . S
C1604 C1603 1.524 . S
C1605 C1602 1.403 . S
C1605 C1606 1.392 . S
C1605 C1609 1.495 . S
C1606 C1605 1.392 . S
C1606 C1607 1.385 . S
C1606 C1608 1.478 . S
C1607 H1601 0.930 . S
C1607 C1603 1.400 . S
C1607 C1606 1.385 . S
C1608 C1606 1.478 . S
C1608 C1610 1.381 . S
C1608 C1614 1.383 . S
C1609 C1605 1.495 . S
C1609 H1615 0.959 . S
C1609 H1616 0.961 . S
C1609 H1617 0.960 . S
C1610 C1608 1.381 . S
C1610 C1611 1.394 . S
C1610 H1618 0.930 . S
C1611 C1610 1.394 . S
C1611 C1612 1.383 . S
C1611 H1619 0.929 . S
C1612 C1611 1.383 . S
C1612 C1613 1.377 . S
C1613 H1597 0.930 . S
C1613 C1612 1.377 . S
C1613 C1614 1.379 . S
C1614 H1598 0.931 . S
C1614 C1608 1.383 . S
C1614 C1613 1.379 . S
H1615 C1609 0.959 . S
H1616 C1609 0.961 . S
H1617 C1609 0.960 . S
H1618 C1610 0.930 . S
H1619 C1611 0.929 . S
H1620 C1628 0.929 . S
H1621 C1630 0.930 . S
H1622 C1632 0.930 . S
H1623 C1635 0.929 . S
H1624 C1638 0.930 . S
H1625 C1640 0.960 . S
H1626 C1640 0.960 . S
H1627 C1640 0.960 . S
C1628 H1620 0.929 . S
C1628 C1629 1.377 . S
C1628 C1630 1.384 . S
C1629 C1628 1.377 . S
C1629 C1635 1.390 . S
C1630 H1621 0.930 . S
C1630 C1628 1.384 . S
C1630 C1631 1.372 . S
C1631 C1630 1.372 . S
C1631 C1632 1.400 . S
C1631 C1636 1.490 . S
C1632 H1622 0.930 . S
C1632 C1631 1.400 . S
C1632 C1635 1.386 . S
H1633 C1649 0.930 . S
H1634 C1650 0.931 . S
C1635 H1623 0.929 . S
C1635 C1629 1.390 . S
C1635 C1632 1.386 . S
C1636 C1631 1.490 . S
C1636 C1638 1.395 . S
C1636 C1639 1.403 . S
H1637 C1643 0.930 . S
C1638 H1624 0.930 . S
C1638 C1636 1.395 . S
C1638 C1641 1.403 . S
C1639 C1636 1.403 . S
C1639 C1640 1.524 . S
C1639 C1643 1.400 . S
C1640 H1625 0.960 . S
C1640 H1626 0.960 . S
C1640 H1627 0.960 . S
C1640 C1639 1.524 . S
C1641 C1638 1.403 . S
C1641 C1642 1.392 . S
C1641 C1645 1.495 . S
C1642 C1641 1.392 . S
C1642 C1643 1.385 . S
C1642 C1644 1.478 . S
C1643 H1637 0.930 . S
C1643 C1639 1.400 . S
C1643 C1642 1.385 . S
C1644 C1642 1.478 . S
C1644 C1646 1.381 . S
C1644 C1650 1.383 . S
C1645 C1641 1.495 . S
C1645 H1651 0.959 . S
C1645 H1652 0.961 . S
C1645 H1653 0.960 . S
C1646 C1644 1.381 . S
C1646 C1647 1.394 . S
C1646 H1654 0.930 . S
C1647 C1646 1.394 . S
C1647 C1648 1.383 . S
C1647 H1655 0.929 . S
C1648 C1647 1.383 . S
C1648 C1649 1.377 . S
C1649 H1633 0.930 . S
C1649 C1648 1.377 . S
C1649 C1650 1.379 . S
C1650 H1634 0.931 . S
C1650 C1644 1.383 . S
C1650 C1649 1.379 . S
H1651 C1645 0.959 . S
H1652 C1645 0.961 . S
H1653 C1645 0.960 . S
H1654 C1646 0.930 . S
H1655 C1647 0.929 . S
H1656 C1664 0.929 . S
H1657 C1666 0.930 . S
H1658 C1668 0.930 . S
H1659 C1671 0.929 . S
H1660 C1674 0.930 . S
H1661 C1676 0.960 . S
H1662 C1676 0.960 . S
H1663 C1676 0.960 . S
C1664 H1656 0.929 . S
C1664 C1665 1.377 . S
C1664 C1666 1.384 . S
C1665 C1664 1.377 . S
C1665 C1671 1.390 . S
C1666 H1657 0.930 . S
C1666 C1664 1.384 . S
C1666 C1667 1.372 . S
C1667 C1666 1.372 . S
C1667 C1668 1.400 . S
C1667 C1672 1.490 . S
C1668 H1658 0.930 . S
C1668 C1667 1.400 . S
C1668 C1671 1.386 . S
H1669 C1685 0.930 . S
H1670 C1686 0.931 . S
C1671 H1659 0.929 . S
C1671 C1665 1.390 . S
C1671 C1668 1.386 . S
C1672 C1667 1.490 . S
C1672 C1674 1.395 . S
C1672 C1675 1.403 . S
H1673 C1679 0.930 . S
C1674 H1660 0.930 . S
C1674 C1672 1.395 . S
C1674 C1677 1.403 . S
C1675 C1672 1.403 . S
C1675 C1676 1.524 . S
C1675 C1679 1.400 . S
C1676 H1661 0.960 . S
C1676 H1662 0.960 . S
C1676 H1663 0.960 . S
C1676 C1675 1.524 . S
C1677 C1674 1.403 . S
C1677 C1678 1.392 . S
C1677 C1681 1.495 . S
C1678 C1677 1.392 . S
C1678 C1679 1.385 . S
C1678 C1680 1.478 . S
C1679 H1673 0.930 . S
C1679 C1675 1.400 . S
C1679 C1678 1.385 . S
C1680 C1678 1.478 . S
C1680 C1682 1.381 . S
C1680 C1686 1.383 . S
C1681 C1677 1.495 . S
C1681 H1687 0.959 . S
C1681 H1688 0.961 . S
C1681 H1689 0.960 . S
C1682 C1680 1.381 . S
C1682 C1683 1.394 . S
C1682 H1690 0.930 . S
C1683 C1682 1.394 . S
C1683 C1684 1.383 . S
C1683 H1691 0.929 . S
C1684 C1683 1.383 . S
C1684 C1685 1.377 . S
C1685 H1669 0.930 . S
C1685 C1684 1.377 . S
C1685 C1686 1.379 . S
C1686 H1670 0.931 . S
C1686 C1680 1.383 . S
C1686 C1685 1.379 . S
H1687 C1681 0.959 . S
H1688 C1681 0.961 . S
H1689 C1681 0.960 . S
H1690 C1682 0.930 . S
H1691 C1683 0.929 . S
H1692 C1700 0.929 . S
H1693 C1702 0.930 . S
H1694 C1704 0.930 . S
H1695 C1707 0.929 . S
H1696 C1710 0.930 . S
H1697 C1712 0.960 . S
H1698 C1712 0.960 . S
H1699 C1712 0.960 . S
C1700 H1692 0.929 . S
C1700 C1701 1.377 . S
C1700 C1702 1.384 . S
C1701 C1700 1.377 . S
C1701 C1707 1.390 . S
C1702 H1693 0.930 . S
C1702 C1700 1.384 . S
C1702 C1703 1.372 . S
C1703 C1702 1.372 . S
C1703 C1704 1.400 . S
C1703 C1708 1.490 . S
C1704 H1694 0.930 . S
C1704 C1703 1.400 . S
C1704 C1707 1.386 . S
H1705 C1721 0.930 . S
H1706 C1722 0.931 . S
C1707 H1695 0.929 . S
C1707 C1701 1.390 . S
C1707 C1704 1.386 . S
C1708 C1703 1.490 . S
C1708 C1710 1.395 . S
C1708 C1711 1.403 . S
H1709 C1715 0.930 . S
C1710 H1696 0.930 . S
C1710 C1708 1.395 . S
C1710 C1713 1.403 . S
C1711 C1708 1.403 . S
C1711 C1712 1.524 . S
C1711 C1715 1.400 . S
C1712 H1697 0.960 . S
C1712 H1698 0.960 . S
C1712 H1699 0.960 . S
C1712 C1711 1.524 . S
C1713 C1710 1.403 . S
C1713 C1714 1.392 . S
C1713 C1717 1.495 . S
C1714 C1713 1.392 . S
C1714 C1715 1.385 . S
C1714 C1716 1.478 . S
C1715 H1709 0.930 . S
C1715 C1711 1.400 . S
C1715 C1714 1.385 . S
C1716 C1714 1.478 . S
C1716 C1718 1.381 . S
C1716 C1722 1.383 . S
C1717 C1713 1.495 . S
C1717 H1723 0.959 . S
C1717 H1724 0.961 . S
C1717 H1725 0.960 . S
C1718 C1716 1.381 . S
C1718 C1719 1.394 . S
C1718 H1726 0.930 . S
C1719 C1718 1.394 . S
C1719 C1720 1.383 . S
C1719 H1727 0.929 . S
C1720 C1719 1.383 . S
C1720 C1721 1.377 . S
C1721 H1705 0.930 . S
C1721 C1720 1.377 . S
C1721 C1722 1.379 . S
C1722 H1706 0.931 . S
C1722 C1716 1.383 . S
C1722 C1721 1.379 . S
H1723 C1717 0.959 . S
H1724 C1717 0.961 . S
H1725 C1717 0.960 . S
H1726 C1718 0.930 . S
H1727 C1719 0.929 . S
H1728 C1736 0.929 . S
H1729 C1738 0.930 . S
H1730 C1740 0.930 . S
H1731 C1743 0.929 . S
H1732 C1746 0.930 . S
H1733 C1748 0.960 . S
H1734 C1748 0.960 . S
H1735 C1748 0.960 . S
C1736 H1728 0.929 . S
C1736 C1737 1.377 . S
C1736 C1738 1.384 . S
C1737 C1736 1.377 . S
C1737 C1743 1.390 . S
C1738 H1729 0.930 . S
C1738 C1736 1.384 . S
C1738 C1739 1.372 . S
C1739 C1738 1.372 . S
C1739 C1740 1.400 . S
C1739 C1744 1.490 . S
C1740 H1730 0.930 . S
C1740 C1739 1.400 . S
C1740 C1743 1.386 . S
H1741 C1757 0.930 . S
H1742 C1758 0.931 . S
C1743 H1731 0.929 . S
C1743 C1737 1.390 . S
C1743 C1740 1.386 . S
C1744 C1739 1.490 . S
C1744 C1746 1.395 . S
C1744 C1747 1.403 . S
H1745 C1751 0.930 . S
C1746 H1732 0.930 . S
C1746 C1744 1.395 . S
C1746 C1749 1.403 . S
C1747 C1744 1.403 . S
C1747 C1748 1.524 . S
C1747 C1751 1.400 . S
C1748 H1733 0.960 . S
C1748 H1734 0.960 . S
C1748 H1735 0.960 . S
C1748 C1747 1.524 . S
C1749 C1746 1.403 . S
C1749 C1750 1.392 . S
C1749 C1753 1.495 . S
C1750 C1749 1.392 . S
C1750 C1751 1.385 . S
C1750 C1752 1.478 . S
C1751 H1745 0.930 . S
C1751 C1747 1.400 . S
C1751 C1750 1.385 . S
C1752 C1750 1.478 . S
C1752 C1754 1.381 . S
C1752 C1758 1.383 . S
C1753 C1749 1.495 . S
C1753 H1759 0.959 . S
C1753 H1760 0.961 . S
C1753 H1761 0.960 . S
C1754 C1752 1.381 . S
C1754 C1755 1.394 . S
C1754 H1762 0.930 . S
C1755 C1754 1.394 . S
C1755 C1756 1.383 . S
C1755 H1763 0.929 . S
C1756 C1755 1.383 . S
C1756 C1757 1.377 . S
C1757 H1741 0.930 . S
C1757 C1756 1.377 . S
C1757 C1758 1.379 . S
C1758 H1742 0.931 . S
C1758 C1752 1.383 . S
C1758 C1757 1.379 . S
H1759 C1753 0.959 . S
H1760 C1753 0.961 . S
H1761 C1753 0.960 . S
H1762 C1754 0.930 . S
H1763 C1755 0.929 . S
H1764 C1772 0.929 . S
H1765 C1774 0.930 . S
H1766 C1776 0.930 . S
H1767 C1779 0.929 . S
H1768 C1782 0.930 . S
H1769 C1784 0.960 . S
H1770 C1784 0.960 . S
H1771 C1784 0.960 . S
C1772 H1764 0.929 . S
C1772 C1773 1.377 . S
C1772 C1774 1.384 . S
C1773 C1772 1.377 . S
C1773 C1779 1.390 . S
C1774 H1765 0.930 . S
C1774 C1772 1.384 . S
C1774 C1775 1.372 . S
C1775 C1774 1.372 . S
C1775 C1776 1.400 . S
C1775 C1780 1.490 . S
C1776 H1766 0.930 . S
C1776 C1775 1.400 . S
C1776 C1779 1.386 . S
H1777 C1793 0.930 . S
H1778 C1794 0.931 . S
C1779 H1767 0.929 . S
C1779 C1773 1.390 . S
C1779 C1776 1.386 . S
C1780 C1775 1.490 . S
C1780 C1782 1.395 . S
C1780 C1783 1.403 . S
H1781 C1787 0.930 . S
C1782 H1768 0.930 . S
C1782 C1780 1.395 . S
C1782 C1785 1.403 . S
C1783 C1780 1.403 . S
C1783 C1784 1.524 . S
C1783 C1787 1.400 . S
C1784 H1769 0.960 . S
C1784 H1770 0.960 . S
C1784 H1771 0.960 . S
C1784 C1783 1.524 . S
C1785 C1782 1.403 . S
C1785 C1786 1.392 . S
C1785 C1789 1.495 . S
C1786 C1785 1.392 . S
C1786 C1787 1.385 . S
C1786 C1788 1.478 . S
C1787 H1781 0.930 . S
C1787 C1783 1.400 . S
C1787 C1786 1.385 . S
C1788 C1786 1.478 . S
C1788 C1790 1.381 . S
C1788 C1794 1.383 . S
C1789 C1785 1.495 . S
C1789 H1795 0.959 . S
C1789 H1796 0.961 . S
C1789 H1797 0.960 . S
C1790 C1788 1.381 . S
C1790 C1791 1.394 . S
C1790 H1798 0.930 . S
C1791 C1790 1.394 . S
C1791 C1792 1.383 . S
C1791 H1799 0.929 . S
C1792 C1791 1.383 . S
C1792 C1793 1.377 . S
C1793 H1777 0.930 . S
C1793 C1792 1.377 . S
C1793 C1794 1.379 . S
C1794 H1778 0.931 . S
C1794 C1788 1.383 . S
C1794 C1793 1.379 . S
H1795 C1789 0.959 . S
H1796 C1789 0.961 . S
H1797 C1789 0.960 . S
H1798 C1790 0.930 . S
H1799 C1791 0.929 . S
H1800 C1808 0.929 . S
H1801 C1810 0.930 . S
H1802 C1812 0.930 . S
H1803 C1815 0.929 . S
H1804 C1818 0.930 . S
H1805 C1820 0.960 . S
H1806 C1820 0.960 . S
H1807 C1820 0.960 . S
C1808 H1800 0.929 . S
C1808 C1809 1.377 . S
C1808 C1810 1.384 . S
C1809 C1808 1.377 . S
C1809 C1815 1.390 . S
C1810 H1801 0.930 . S
C1810 C1808 1.384 . S
C1810 C1811 1.372 . S
C1811 C1810 1.372 . S
C1811 C1812 1.400 . S
C1811 C1816 1.490 . S
C1812 H1802 0.930 . S
C1812 C1811 1.400 . S
C1812 C1815 1.386 . S
H1813 C1829 0.930 . S
H1814 C1830 0.931 . S
C1815 H1803 0.929 . S
C1815 C1809 1.390 . S
C1815 C1812 1.386 . S
C1816 C1811 1.490 . S
C1816 C1818 1.395 . S
C1816 C1819 1.403 . S
H1817 C1823 0.930 . S
C1818 H1804 0.930 . S
C1818 C1816 1.395 . S
C1818 C1821 1.403 . S
C1819 C1816 1.403 . S
C1819 C1820 1.524 . S
C1819 C1823 1.400 . S
C1820 H1805 0.960 . S
C1820 H1806 0.960 . S
C1820 H1807 0.960 . S
C1820 C1819 1.524 . S
C1821 C1818 1.403 . S
C1821 C1822 1.392 . S
C1821 C1825 1.495 . S
C1822 C1821 1.392 . S
C1822 C1823 1.385 . S
C1822 C1824 1.478 . S
C1823 H1817 0.930 . S
C1823 C1819 1.400 . S
C1823 C1822 1.385 . S
C1824 C1822 1.478 . S
C1824 C1826 1.381 . S
C1824 C1830 1.383 . S
C1825 C1821 1.495 . S
C1825 H1831 0.959 . S
C1825 H1832 0.961 . S
C1825 H1833 0.960 . S
C1826 C1824 1.381 . S
C1826 C1827 1.394 . S
C1826 H1834 0.930 . S
C1827 C1826 1.394 . S
C1827 C1828 1.383 . S
C1827 H1835 0.929 . S
C1828 C1827 1.383 . S
C1828 C1829 1.377 . S
C1829 H1813 0.930 . S
C1829 C1828 1.377 . S
C1829 C1830 1.379 . S
C1830 H1814 0.931 . S
C1830 C1824 1.383 . S
C1830 C1829 1.379 . S
H1831 C1825 0.959 . S
H1832 C1825 0.961 . S
H1833 C1825 0.960 . S
H1834 C1826 0.930 . S
H1835 C1827 0.929 . S
H1836 C1844 0.929 . S
H1837 C1846 0.930 . S
H1838 C1848 0.930 . S
H1839 C1851 0.929 . S
H1840 C1854 0.930 . S
H1841 C1856 0.960 . S
H1842 C1856 0.960 . S
H1843 C1856 0.960 . S
C1844 H1836 0.929 . S
C1844 C1845 1.377 . S
C1844 C1846 1.384 . S
C1845 C1844 1.377 . S
C1845 C1851 1.390 . S
C1846 H1837 0.930 . S
C1846 C1844 1.384 . S
C1846 C1847 1.372 . S
C1847 C1846 1.372 . S
C1847 C1848 1.400 . S
C1847 C1852 1.490 . S
C1848 H1838 0.930 . S
C1848 C1847 1.400 . S
C1848 C1851 1.386 . S
H1849 C1865 0.930 . S
H1850 C1866 0.931 . S
C1851 H1839 0.929 . S
C1851 C1845 1.390 . S
C1851 C1848 1.386 . S
C1852 C1847 1.490 . S
C1852 C1854 1.395 . S
C1852 C1855 1.403 . S
H1853 C1859 0.930 . S
C1854 H1840 0.930 . S
C1854 C1852 1.395 . S
C1854 C1857 1.403 . S
C1855 C1852 1.403 . S
C1855 C1856 1.524 . S
C1855 C1859 1.400 . S
C1856 H1841 0.960 . S
C1856 H1842 0.960 . S
C1856 H1843 0.960 . S
C1856 C1855 1.524 . S
C1857 C1854 1.403 . S
C1857 C1858 1.392 . S
C1857 C1861 1.495 . S
C1858 C1857 1.392 . S
C1858 C1859 1.385 . S
C1858 C1860 1.478 . S
C1859 H1853 0.930 . S
C1859 C1855 1.400 . S
C1859 C1858 1.385 . S
C1860 C1858 1.478 . S
C1860 C1862 1.381 . S
C1860 C1866 1.383 . S
C1861 C1857 1.495 . S
C1861 H1867 0.959 . S
C1861 H1868 0.961 . S
C1861 H1869 0.960 . S
C1862 C1860 1.381 . S
C1862 C1863 1.394 . S
C1862 H1870 0.930 . S
C1863 C1862 1.394 . S
C1863 C1864 1.383 . S
C1863 H1871 0.929 . S
C1864 C1863 1.383 . S
C1864 C1865 1.377 . S
C1865 H1849 0.930 . S
C1865 C1864 1.377 . S
C1865 C1866 1.379 . S
C1866 H1850 0.931 . S
C1866 C1860 1.383 . S
C1866 C1865 1.379 . S
H1867 C1861 0.959 . S
H1868 C1861 0.961 . S
H1869 C1861 0.960 . S
H1870 C1862 0.930 . S
H1871 C1863 0.929 . S
H1872 C1880 0.929 . S
H1873 C1882 0.930 . S
H1874 C1884 0.930 . S
H1875 C1887 0.929 . S
H1876 C1890 0.930 . S
H1877 C1892 0.960 . S
H1878 C1892 0.960 . S
H1879 C1892 0.960 . S
C1880 H1872 0.929 . S
C1880 C1881 1.377 . S
C1880 C1882 1.384 . S
C1881 C1880 1.377 . S
C1881 C1887 1.390 . S
C1882 H1873 0.930 . S
C1882 C1880 1.384 . S
C1882 C1883 1.372 . S
C1883 C1882 1.372 . S
C1883 C1884 1.400 . S
C1883 C1888 1.490 . S
C1884 H1874 0.930 . S
C1884 C1883 1.400 . S
C1884 C1887 1.386 . S
H1885 C1901 0.930 . S
H1886 C1902 0.931 . S
C1887 H1875 0.929 . S
C1887 C1881 1.390 . S
C1887 C1884 1.386 . S
C1888 C1883 1.490 . S
C1888 C1890 1.395 . S
C1888 C1891 1.403 . S
H1889 C1895 0.930 . S
C1890 H1876 0.930 . S
C1890 C1888 1.395 . S
C1890 C1893 1.403 . S
C1891 C1888 1.403 . S
C1891 C1892 1.524 . S
C1891 C1895 1.400 . S
C1892 H1877 0.960 . S
C1892 H1878 0.960 . S
C1892 H1879 0.960 . S
C1892 C1891 1.524 . S
C1893 C1890 1.403 . S
C1893 C1894 1.392 . S
C1893 C1897 1.495 . S
C1894 C1893 1.392 . S
C1894 C1895 1.385 . S
C1894 C1896 1.478 . S
C1895 H1889 0.930 . S
C1895 C1891 1.400 . S
C1895 C1894 1.385 . S
C1896 C1894 1.478 . S
C1896 C1898 1.381 . S
C1896 C1902 1.383 . S
C1897 C1893 1.495 . S
C1897 H1903 0.959 . S
C1897 H1904 0.961 . S
C1897 H1905 0.960 . S
C1898 C1896 1.381 . S
C1898 C1899 1.394 . S
C1898 H1906 0.930 . S
C1899 C1898 1.394 . S
C1899 C1900 1.383 . S
C1899 H1907 0.929 . S
C1900 C1899 1.383 . S
C1900 C1901 1.377 . S
C1901 H1885 0.930 . S
C1901 C1900 1.377 . S
C1901 C1902 1.379 . S
C1902 H1886 0.931 . S
C1902 C1896 1.383 . S
C1902 C1901 1.379 . S
H1903 C1897 0.959 . S
H1904 C1897 0.961 . S
H1905 C1897 0.960 . S
H1906 C1898 0.930 . S
H1907 C1899 0.929 . S
H1908 C1916 0.929 . S
H1909 C1918 0.930 . S
H1910 C1920 0.930 . S
H1911 C1923 0.929 . S
H1912 C1926 0.930 . S
H1913 C1928 0.960 . S
H1914 C1928 0.960 . S
H1915 C1928 0.960 . S
C1916 H1908 0.929 . S
C1916 C1917 1.377 . S
C1916 C1918 1.384 . S
C1917 C1916 1.377 . S
C1917 C1923 1.390 . S
C1918 H1909 0.930 . S
C1918 C1916 1.384 . S
C1918 C1919 1.372 . S
C1919 C1918 1.372 . S
C1919 C1920 1.400 . S
C1919 C1924 1.490 . S
C1920 H1910 0.930 . S
C1920 C1919 1.400 . S
C1920 C1923 1.386 . S
H1921 C1937 0.930 . S
H1922 C1938 0.931 . S
C1923 H1911 0.929 . S
C1923 C1917 1.390 . S
C1923 C1920 1.386 . S
C1924 C1919 1.490 . S
C1924 C1926 1.395 . S
C1924 C1927 1.403 . S
H1925 C1931 0.930 . S
C1926 H1912 0.930 . S
C1926 C1924 1.395 . S
C1926 C1929 1.403 . S
C1927 C1924 1.403 . S
C1927 C1928 1.524 . S
C1927 C1931 1.400 . S
C1928 H1913 0.960 . S
C1928 H1914 0.960 . S
C1928 H1915 0.960 . S
C1928 C1927 1.524 . S
C1929 C1926 1.403 . S
C1929 C1930 1.392 . S
C1929 C1933 1.495 . S
C1930 C1929 1.392 . S
C1930 C1931 1.385 . S
C1930 C1932 1.478 . S
C1931 H1925 0.930 . S
C1931 C1927 1.400 . S
C1931 C1930 1.385 . S
C1932 C1930 1.478 . S
C1932 C1934 1.381 . S
C1932 C1938 1.383 . S
C1933 C1929 1.495 . S
C1933 H1939 0.959 . S
C1933 H1940 0.961 . S
C1933 H1941 0.960 . S
C1934 C1932 1.381 . S
C1934 C1935 1.394 . S
C1934 H1942 0.930 . S
C1935 C1934 1.394 . S
C1935 C1936 1.383 . S
C1935 H1943 0.929 . S
C1936 C1935 1.383 . S
C1936 C1937 1.377 . S
C1937 H1921 0.930 . S
C1937 C1936 1.377 . S
C1937 C1938 1.379 . S
C1938 H1922 0.931 . S
C1938 C1932 1.383 . S
C1938 C1937 1.379 . S
H1939 C1933 0.959 . S
H1940 C1933 0.961 . S
H1941 C1933 0.960 . S
H1942 C1934 0.930 . S
H1943 C1935 0.929 . S
H1944 C1952 0.929 . S
H1945 C1954 0.930 . S
H1946 C1956 0.930 . S
H1947 C1959 0.929 . S
H1948 C1962 0.930 . S
H1949 C1964 0.960 . S
H1950 C1964 0.960 . S
H1951 C1964 0.960 . S
C1952 H1944 0.929 . S
C1952 C1953 1.377 . S
C1952 C1954 1.384 . S
C1953 C1952 1.377 . S
C1953 C1959 1.390 . S
C1954 H1945 0.930 . S
C1954 C1952 1.384 . S
C1954 C1955 1.372 . S
C1955 C1954 1.372 . S
C1955 C1956 1.400 . S
C1955 C1960 1.490 . S
C1956 H1946 0.930 . S
C1956 C1955 1.400 . S
C1956 C1959 1.386 . S
H1957 C1973 0.930 . S
H1958 C1974 0.931 . S
C1959 H1947 0.929 . S
C1959 C1953 1.390 . S
C1959 C1956 1.386 . S
C1960 C1955 1.490 . S
C1960 C1962 1.395 . S
C1960 C1963 1.403 . S
H1961 C1967 0.930 . S
C1962 H1948 0.930 . S
C1962 C1960 1.395 . S
C1962 C1965 1.403 . S
C1963 C1960 1.403 . S
C1963 C1964 1.524 . S
C1963 C1967 1.400 . S
C1964 H1949 0.960 . S
C1964 H1950 0.960 . S
C1964 H1951 0.960 . S
C1964 C1963 1.524 . S
C1965 C1962 1.403 . S
C1965 C1966 1.392 . S
C1965 C1969 1.495 . S
C1966 C1965 1.392 . S
C1966 C1967 1.385 . S
C1966 C1968 1.478 . S
C1967 H1961 0.930 . S
C1967 C1963 1.400 . S
C1967 C1966 1.385 . S
C1968 C1966 1.478 . S
C1968 C1970 1.381 . S
C1968 C1974 1.383 . S
C1969 C1965 1.495 . S
C1969 H1975 0.959 . S
C1969 H1976 0.961 . S
C1969 H1977 0.960 . S
C1970 C1968 1.381 . S
C1970 C1971 1.394 . S
C1970 H1978 0.930 . S
C1971 C1970 1.394 . S
C1971 C1972 1.383 . S
C1971 H1979 0.929 . S
C1972 C1971 1.383 . S
C1972 C1973 1.377 . S
C1973 H1957 0.930 . S
C1973 C1972 1.377 . S
C1973 C1974 1.379 . S
C1974 H1958 0.931 . S
C1974 C1968 1.383 . S
C1974 C1973 1.379 . S
H1975 C1969 0.959 . S
H1976 C1969 0.961 . S
H1977 C1969 0.960 . S
H1978 C1970 0.930 . S
H1979 C1971 0.929 . S
H1980 C1988 0.929 . S
H1981 C1990 0.930 . S
H1982 C1992 0.930 . S
H1983 C1995 0.929 . S
H1984 C1998 0.930 . S
H1985 C2000 0.960 . S
H1986 C2000 0.960 . S
H1987 C2000 0.960 . S
C1988 H1980 0.929 . S
C1988 C1989 1.377 . S
C1988 C1990 1.384 . S
C1989 C1988 1.377 . S
C1989 C1995 1.390 . S
C1990 H1981 0.930 . S
C1990 C1988 1.384 . S
C1990 C1991 1.372 . S
C1991 C1990 1.372 . S
C1991 C1992 1.400 . S
C1991 C1996 1.490 . S
C1992 H1982 0.930 . S
C1992 C1991 1.400 . S
C1992 C1995 1.386 . S
H1993 C2009 0.930 . S
H1994 C2010 0.931 . S
C1995 H1983 0.929 . S
C1995 C1989 1.390 . S
C1995 C1992 1.386 . S
C1996 C1991 1.490 . S
C1996 C1998 1.395 . S
C1996 C1999 1.403 . S
H1997 C2003 0.930 . S
C1998 H1984 0.930 . S
C1998 C1996 1.395 . S
C1998 C2001 1.403 . S
C1999 C1996 1.403 . S
C1999 C2000 1.524 . S
C1999 C2003 1.400 . S
C2000 H1985 0.960 . S
C2000 H1986 0.960 . S
C2000 H1987 0.960 . S
C2000 C1999 1.524 . S
C2001 C1998 1.403 . S
C2001 C2002 1.392 . S
C2001 C2005 1.495 . S
C2002 C2001 1.392 . S
C2002 C2003 1.385 . S
C2002 C2004 1.478 . S
C2003 H1997 0.930 . S
C2003 C1999 1.400 . S
C2003 C2002 1.385 . S
C2004 C2002 1.478 . S
C2004 C2006 1.381 . S
C2004 C2010 1.383 . S
C2005 C2001 1.495 . S
C2005 H2011 0.959 . S
C2005 H2012 0.961 . S
C2005 H2013 0.960 . S
C2006 C2004 1.381 . S
C2006 C2007 1.394 . S
C2006 H2014 0.930 . S
C2007 C2006 1.394 . S
C2007 C2008 1.383 . S
C2007 H2015 0.929 . S
C2008 C2007 1.383 . S
C2008 C2009 1.377 . S
C2009 H1993 0.930 . S
C2009 C2008 1.377 . S
C2009 C2010 1.379 . S
C2010 H1994 0.931 . S
C2010 C2004 1.383 . S
C2010 C2009 1.379 . S
H2011 C2005 0.959 . S
H2012 C2005 0.961 . S
H2013 C2005 0.960 . S
H2014 C2006 0.930 . S
H2015 C2007 0.929 . S
H2016 C2024 0.929 . S
H2017 C2026 0.930 . S
H2018 C2028 0.930 . S
H2019 C2031 0.929 . S
H2020 C2034 0.930 . S
H2021 C2036 0.960 . S
H2022 C2036 0.960 . S
H2023 C2036 0.960 . S
C2024 H2016 0.929 . S
C2024 C2025 1.377 . S
C2024 C2026 1.384 . S
C2025 C2024 1.377 . S
C2025 C2031 1.390 . S
C2026 H2017 0.930 . S
C2026 C2024 1.384 . S
C2026 C2027 1.372 . S
C2027 C2026 1.372 . S
C2027 C2028 1.400 . S
C2027 C2032 1.490 . S
C2028 H2018 0.930 . S
C2028 C2027 1.400 . S
C2028 C2031 1.386 . S
H2029 C2045 0.930 . S
H2030 C2046 0.931 . S
C2031 H2019 0.929 . S
C2031 C2025 1.390 . S
C2031 C2028 1.386 . S
C2032 C2027 1.490 . S
C2032 C2034 1.395 . S
C2032 C2035 1.403 . S
H2033 C2039 0.930 . S
C2034 H2020 0.930 . S
C2034 C2032 1.395 . S
C2034 C2037 1.403 . S
C2035 C2032 1.403 . S
C2035 C2036 1.524 . S
C2035 C2039 1.400 . S
C2036 H2021 0.960 . S
C2036 H2022 0.960 . S
C2036 H2023 0.960 . S
C2036 C2035 1.524 . S
C2037 C2034 1.403 . S
C2037 C2038 1.392 . S
C2037 C2041 1.495 . S
C2038 C2037 1.392 . S
C2038 C2039 1.385 . S
C2038 C2040 1.478 . S
C2039 H2033 0.930 . S
C2039 C2035 1.400 . S
C2039 C2038 1.385 . S
C2040 C2038 1.478 . S
C2040 C2042 1.381 . S
C2040 C2046 1.383 . S
C2041 C2037 1.495 . S
C2041 H2047 0.959 . S
C2041 H2048 0.961 . S
C2041 H2049 0.960 . S
C2042 C2040 1.381 . S
C2042 C2043 1.394 . S
C2042 H2050 0.930 . S
C2043 C2042 1.394 . S
C2043 C2044 1.383 . S
C2043 H2051 0.929 . S
C2044 C2043 1.383 . S
C2044 C2045 1.377 . S
C2045 H2029 0.930 . S
C2045 C2044 1.377 . S
C2045 C2046 1.379 . S
C2046 H2030 0.931 . S
C2046 C2040 1.383 . S
C2046 C2045 1.379 . S
H2047 C2041 0.959 . S
H2048 C2041 0.961 . S
H2049 C2041 0.960 . S
H2050 C2042 0.930 . S
H2051 C2043 0.929 . S
H2052 C2060 0.929 . S
H2053 C2062 0.930 . S
H2054 C2064 0.930 . S
H2055 C2067 0.929 . S
H2056 C2070 0.930 . S
H2057 C2072 0.960 . S
H2058 C2072 0.960 . S
H2059 C2072 0.960 . S
C2060 H2052 0.929 . S
C2060 C2061 1.377 . S
C2060 C2062 1.384 . S
C2061 C2060 1.377 . S
C2061 C2067 1.390 . S
C2062 H2053 0.930 . S
C2062 C2060 1.384 . S
C2062 C2063 1.372 . S
C2063 C2062 1.372 . S
C2063 C2064 1.400 . S
C2063 C2068 1.490 . S
C2064 H2054 0.930 . S
C2064 C2063 1.400 . S
C2064 C2067 1.386 . S
H2065 C2081 0.930 . S
H2066 C2082 0.931 . S
C2067 H2055 0.929 . S
C2067 C2061 1.390 . S
C2067 C2064 1.386 . S
C2068 C2063 1.490 . S
C2068 C2070 1.395 . S
C2068 C2071 1.403 . S
H2069 C2075 0.930 . S
C2070 H2056 0.930 . S
C2070 C2068 1.395 . S
C2070 C2073 1.403 . S
C2071 C2068 1.403 . S
C2071 C2072 1.524 . S
C2071 C2075 1.400 . S
C2072 H2057 0.960 . S
C2072 H2058 0.960 . S
C2072 H2059 0.960 . S
C2072 C2071 1.524 . S
C2073 C2070 1.403 . S
C2073 C2074 1.392 . S
C2073 C2077 1.495 . S
C2074 C2073 1.392 . S
C2074 C2075 1.385 . S
C2074 C2076 1.478 . S
C2075 H2069 0.930 . S
C2075 C2071 1.400 . S
C2075 C2074 1.385 . S
C2076 C2074 1.478 . S
C2076 C2078 1.381 . S
C2076 C2082 1.383 . S
C2077 C2073 1.495 . S
C2077 H2083 0.959 . S
C2077 H2084 0.961 . S
C2077 H2085 0.960 . S
C2078 C2076 1.381 . S
C2078 C2079 1.394 . S
C2078 H2086 0.930 . S
C2079 C2078 1.394 . S
C2079 C2080 1.383 . S
C2079 H2087 0.929 . S
C2080 C2079 1.383 . S
C2080 C2081 1.377 . S
C2081 H2065 0.930 . S
C2081 C2080 1.377 . S
C2081 C2082 1.379 . S
C2082 H2066 0.931 . S
C2082 C2076 1.383 . S
C2082 C2081 1.379 . S
H2083 C2077 0.959 . S
H2084 C2077 0.961 . S
H2085 C2077 0.960 . S
H2086 C2078 0.930 . S
H2087 C2079 0.929 . S
H2088 C2096 0.929 . S
H2089 C2098 0.930 . S
H2090 C2100 0.930 . S
H2091 C2103 0.929 . S
H2092 C2106 0.930 . S
H2093 C2108 0.960 . S
H2094 C2108 0.960 . S
H2095 C2108 0.960 . S
C2096 H2088 0.929 . S
C2096 C2097 1.377 . S
C2096 C2098 1.384 . S
C2097 C2096 1.377 . S
C2097 C2103 1.390 . S
C2098 H2089 0.930 . S
C2098 C2096 1.384 . S
C2098 C2099 1.372 . S
C2099 C2098 1.372 . S
C2099 C2100 1.400 . S
C2099 C2104 1.490 . S
C2100 H2090 0.930 . S
C2100 C2099 1.400 . S
C2100 C2103 1.386 . S
H2101 C2117 0.930 . S
H2102 C2118 0.931 . S
C2103 H2091 0.929 . S
C2103 C2097 1.390 . S
C2103 C2100 1.386 . S
C2104 C2099 1.490 . S
C2104 C2106 1.395 . S
C2104 C2107 1.403 . S
H2105 C2111 0.930 . S
C2106 H2092 0.930 . S
C2106 C2104 1.395 . S
C2106 C2109 1.403 . S
C2107 C2104 1.403 . S
C2107 C2108 1.524 . S
C2107 C2111 1.400 . S
C2108 H2093 0.960 . S
C2108 H2094 0.960 . S
C2108 H2095 0.960 . S
C2108 C2107 1.524 . S
C2109 C2106 1.403 . S
C2109 C2110 1.392 . S
C2109 C2113 1.495 . S
C2110 C2109 1.392 . S
C2110 C2111 1.385 . S
C2110 C2112 1.478 . S
C2111 H2105 0.930 . S
C2111 C2107 1.400 . S
C2111 C2110 1.385 . S
C2112 C2110 1.478 . S
C2112 C2114 1.381 . S
C2112 C2118 1.383 . S
C2113 C2109 1.495 . S
C2113 H2119 0.959 . S
C2113 H2120 0.961 . S
C2113 H2121 0.960 . S
C2114 C2112 1.381 . S
C2114 C2115 1.394 . S
C2114 H2122 0.930 . S
C2115 C2114 1.394 . S
C2115 C2116 1.383 . S
C2115 H2123 0.929 . S
C2116 C2115 1.383 . S
C2116 C2117 1.377 . S
C2117 H2101 0.930 . S
C2117 C2116 1.377 . S
C2117 C2118 1.379 . S
C2118 H2102 0.931 . S
C2118 C2112 1.383 . S
C2118 C2117 1.379 . S
H2119 C2113 0.959 . S
H2120 C2113 0.961 . S
H2121 C2113 0.960 . S
H2122 C2114 0.930 . S
H2123 C2115 0.929 . S
H2124 C2132 0.929 . S
H2125 C2134 0.930 . S
H2126 C2136 0.930 . S
H2127 C2139 0.929 . S
H2128 C2142 0.930 . S
H2129 C2144 0.960 . S
H2130 C2144 0.960 . S
H2131 C2144 0.960 . S
C2132 H2124 0.929 . S
C2132 C2133 1.377 . S
C2132 C2134 1.384 . S
C2133 C2132 1.377 . S
C2133 C2139 1.390 . S
C2134 H2125 0.930 . S
C2134 C2132 1.384 . S
C2134 C2135 1.372 . S
C2135 C2134 1.372 . S
C2135 C2136 1.400 . S
C2135 C2140 1.490 . S
C2136 H2126 0.930 . S
C2136 C2135 1.400 . S
C2136 C2139 1.386 . S
H2137 C2153 0.930 . S
H2138 C2154 0.931 . S
C2139 H2127 0.929 . S
C2139 C2133 1.390 . S
C2139 C2136 1.386 . S
C2140 C2135 1.490 . S
C2140 C2142 1.395 . S
C2140 C2143 1.403 . S
H2141 C2147 0.930 . S
C2142 H2128 0.930 . S
C2142 C2140 1.395 . S
C2142 C2145 1.403 . S
C2143 C2140 1.403 . S
C2143 C2144 1.524 . S
C2143 C2147 1.400 . S
C2144 H2129 0.960 . S
C2144 H2130 0.960 . S
C2144 H2131 0.960 . S
C2144 C2143 1.524 . S
C2145 C2142 1.403 . S
C2145 C2146 1.392 . S
C2145 C2149 1.495 . S
C2146 C2145 1.392 . S
C2146 C2147 1.385 . S
C2146 C2148 1.478 . S
C2147 H2141 0.930 . S
C2147 C2143 1.400 . S
C2147 C2146 1.385 . S
C2148 C2146 1.478 . S
C2148 C2150 1.381 . S
C2148 C2154 1.383 . S
C2149 C2145 1.495 . S
C2149 H2155 0.959 . S
C2149 H2156 0.961 . S
C2149 H2157 0.960 . S
C2150 C2148 1.381 . S
C2150 C2151 1.394 . S
C2150 H2158 0.930 . S
C2151 C2150 1.394 . S
C2151 C2152 1.383 . S
C2151 H2159 0.929 . S
C2152 C2151 1.383 . S
C2152 C2153 1.377 . S
C2153 H2137 0.930 . S
C2153 C2152 1.377 . S
C2153 C2154 1.379 . S
C2154 H2138 0.931 . S
C2154 C2148 1.383 . S
C2154 C2153 1.379 . S
H2155 C2149 0.959 . S
H2156 C2149 0.961 . S
H2157 C2149 0.960 . S
H2158 C2150 0.930 . S
H2159 C2151 0.929 . S
H2160 C2168 0.929 . S
H2161 C2170 0.930 . S
H2162 C2172 0.930 . S
H2163 C2175 0.929 . S
H2164 C2178 0.930 . S
H2165 C2180 0.960 . S
H2166 C2180 0.960 . S
H2167 C2180 0.960 . S
C2168 H2160 0.929 . S
C2168 C2169 1.377 . S
C2168 C2170 1.384 . S
C2169 C2168 1.377 . S
C2169 C2175 1.390 . S
C2170 H2161 0.930 . S
C2170 C2168 1.384 . S
C2170 C2171 1.372 . S
C2171 C2170 1.372 . S
C2171 C2172 1.400 . S
C2171 C2176 1.490 . S
C2172 H2162 0.930 . S
C2172 C2171 1.400 . S
C2172 C2175 1.386 . S
H2173 C2189 0.930 . S
H2174 C2190 0.931 . S
C2175 H2163 0.929 . S
C2175 C2169 1.390 . S
C2175 C2172 1.386 . S
C2176 C2171 1.490 . S
C2176 C2178 1.395 . S
C2176 C2179 1.403 . S
H2177 C2183 0.930 . S
C2178 H2164 0.930 . S
C2178 C2176 1.395 . S
C2178 C2181 1.403 . S
C2179 C2176 1.403 . S
C2179 C2180 1.524 . S
C2179 C2183 1.400 . S
C2180 H2165 0.960 . S
C2180 H2166 0.960 . S
C2180 H2167 0.960 . S
C2180 C2179 1.524 . S
C2181 C2178 1.403 . S
C2181 C2182 1.392 . S
C2181 C2185 1.495 . S
C2182 C2181 1.392 . S
C2182 C2183 1.385 . S
C2182 C2184 1.478 . S
C2183 H2177 0.930 . S
C2183 C2179 1.400 . S
C2183 C2182 1.385 . S
C2184 C2182 1.478 . S
C2184 C2186 1.381 . S
C2184 C2190 1.383 . S
C2185 C2181 1.495 . S
C2185 H2191 0.959 . S
C2185 H2192 0.961 . S
C2185 H2193 0.960 . S
C2186 C2184 1.381 . S
C2186 C2187 1.394 . S
C2186 H2194 0.930 . S
C2187 C2186 1.394 . S
C2187 C2188 1.383 . S
C2187 H2195 0.929 . S
C2188 C2187 1.383 . S
C2188 C2189 1.377 . S
C2189 H2173 0.930 . S
C2189 C2188 1.377 . S
C2189 C2190 1.379 . S
C2190 H2174 0.931 . S
C2190 C2184 1.383 . S
C2190 C2189 1.379 . S
H2191 C2185 0.959 . S
H2192 C2185 0.961 . S
H2193 C2185 0.960 . S
H2194 C2186 0.930 . S
H2195 C2187 0.929 . S
H2196 C2204 0.929 . S
H2197 C2206 0.930 . S
H2198 C2208 0.930 . S
H2199 C2211 0.929 . S
H2200 C2214 0.930 . S
H2201 C2216 0.960 . S
H2202 C2216 0.960 . S
H2203 C2216 0.960 . S
C2204 H2196 0.929 . S
C2204 C2205 1.377 . S
C2204 C2206 1.384 . S
C2205 C2204 1.377 . S
C2205 C2211 1.390 . S
C2206 H2197 0.930 . S
C2206 C2204 1.384 . S
C2206 C2207 1.372 . S
C2207 C2206 1.372 . S
C2207 C2208 1.400 . S
C2207 C2212 1.490 . S
C2208 H2198 0.930 . S
C2208 C2207 1.400 . S
C2208 C2211 1.386 . S
H2209 C2225 0.930 . S
H2210 C2226 0.931 . S
C2211 H2199 0.929 . S
C2211 C2205 1.390 . S
C2211 C2208 1.386 . S
C2212 C2207 1.490 . S
C2212 C2214 1.395 . S
C2212 C2215 1.403 . S
H2213 C2219 0.930 . S
C2214 H2200 0.930 . S
C2214 C2212 1.395 . S
C2214 C2217 1.403 . S
C2215 C2212 1.403 . S
C2215 C2216 1.524 . S
C2215 C2219 1.400 . S
C2216 H2201 0.960 . S
C2216 H2202 0.960 . S
C2216 H2203 0.960 . S
C2216 C2215 1.524 . S
C2217 C2214 1.403 . S
C2217 C2218 1.392 . S
C2217 C2221 1.495 . S
C2218 C2217 1.392 . S
C2218 C2219 1.385 . S
C2218 C2220 1.478 . S
C2219 H2213 0.930 . S
C2219 C2215 1.400 . S
C2219 C2218 1.385 . S
C2220 C2218 1.478 . S
C2220 C2222 1.381 . S
C2220 C2226 1.383 . S
C2221 C2217 1.495 . S
C2221 H2227 0.959 . S
C2221 H2228 0.961 . S
C2221 H2229 0.960 . S
C2222 C2220 1.381 . S
C2222 C2223 1.394 . S
C2222 H2230 0.930 . S
C2223 C2222 1.394 . S
C2223 C2224 1.383 . S
C2223 H2231 0.929 . S
C2224 C2223 1.383 . S
C2224 C2225 1.377 . S
C2225 H2209 0.930 . S
C2225 C2224 1.377 . S
C2225 C2226 1.379 . S
C2226 H2210 0.931 . S
C2226 C2220 1.383 . S
C2226 C2225 1.379 . S
H2227 C2221 0.959 . S
H2228 C2221 0.961 . S
H2229 C2221 0.960 . S
H2230 C2222 0.930 . S
H2231 C2223 0.929 . S
H2232 C2240 0.929 . S
H2233 C2242 0.930 . S
H2234 C2244 0.930 . S
H2235 C2247 0.929 . S
H2236 C2250 0.930 . S
H2237 C2252 0.993 . S
H2238 C2252 0.960 . S
H2239 C2252 0.960 . S
C2240 H2232 0.929 . S
C2240 C2241 1.377 . S
C2240 C2242 1.384 . S
C2241 C2240 1.377 . S
C2241 C2247 1.390 . S
C2242 H2233 0.930 . S
C2242 C2240 1.384 . S
C2242 C2243 1.372 . S
C2243 C2242 1.372 . S
C2243 C2244 1.400 . S
C2243 C2248 1.490 . S
C2244 H2234 0.930 . S
C2244 C2243 1.400 . S
C2244 C2247 1.386 . S
H2245 C2261 0.930 . S
H2246 C2262 0.931 . S
C2247 H2235 0.929 . S
C2247 C2241 1.390 . S
C2247 C2244 1.386 . S
C2248 C2243 1.490 . S
C2248 C2250 1.395 . S
C2248 C2251 1.403 . S
H2249 C2255 0.930 . S
C2250 H2236 0.930 . S
C2250 C2248 1.395 . S
C2250 C2253 1.403 1_455 S
C2251 C2248 1.403 . S
C2251 C2252 1.524 . S
C2251 C2255 1.400 1_455 S
C2252 H2237 0.993 . S
C2252 H2238 0.960 . S
C2252 H2239 0.960 . S
C2252 C2251 1.524 . S
C2253 C2250 1.403 1_655 S
C2253 C2254 1.392 . S
C2253 C2257 1.495 . S
C2254 C2253 1.392 . S
C2254 C2255 1.385 . S
C2254 C2256 1.478 . S
C2255 H2249 0.930 . S
C2255 C2251 1.400 1_655 S
C2255 C2254 1.385 . S
C2256 C2254 1.478 . S
C2256 C2258 1.381 . S
C2256 C2262 1.383 . S
C2257 C2253 1.495 . S
C2257 H2263 0.983 . S
C2257 H2264 0.961 . S
C2257 H2265 0.960 . S
C2258 C2256 1.381 . S
C2258 C2259 1.394 . S
C2258 H2266 0.930 . S
C2259 C2258 1.394 . S
C2259 C2260 1.383 . S
C2259 H2267 0.929 . S
C2260 C2259 1.383 . S
C2260 C2261 1.377 . S
C2261 H2245 0.930 . S
C2261 C2260 1.377 . S
C2261 C2262 1.379 . S
C2262 H2246 0.931 . S
C2262 C2256 1.383 . S
C2262 C2261 1.379 . S
H2263 C2257 0.983 . S
H2264 C2257 0.961 . S
H2265 C2257 0.960 . S
H2266 C2258 0.930 . S
H2267 C2259 0.929 . S
H2268 C2276 0.929 . S
H2269 C2278 0.930 . S
H2270 C2280 0.930 . S
H2271 C2283 0.929 . S
H2272 C2286 0.930 . S
H2273 C2288 0.960 . S
H2274 C2288 0.960 . S
H2275 C2288 0.960 . S
C2276 H2268 0.929 . S
C2276 C2277 1.377 . S
C2276 C2278 1.384 . S
C2277 C2276 1.377 . S
C2277 C2283 1.390 . S
C2278 H2269 0.930 . S
C2278 C2276 1.384 . S
C2278 C2279 1.372 . S
C2279 C2278 1.372 . S
C2279 C2280 1.400 . S
C2279 C2284 1.490 . S
C2280 H2270 0.930 . S
C2280 C2279 1.400 . S
C2280 C2283 1.386 . S
H2281 C2297 0.930 . S
H2282 C2298 0.931 . S
C2283 H2271 0.929 . S
C2283 C2277 1.390 . S
C2283 C2280 1.386 . S
C2284 C2279 1.490 . S
C2284 C2286 1.395 . S
C2284 C2287 1.403 . S
H2285 C2291 0.930 . S
C2286 H2272 0.930 . S
C2286 C2284 1.395 . S
C2286 C2289 1.403 . S
C2287 C2284 1.403 . S
C2287 C2288 1.524 . S
C2287 C2291 1.400 . S
C2288 H2273 0.960 . S
C2288 H2274 0.960 . S
C2288 H2275 0.960 . S
C2288 C2287 1.524 . S
C2289 C2286 1.403 . S
C2289 C2290 1.392 . S
C2289 C2293 1.495 . S
C2290 C2289 1.392 . S
C2290 C2291 1.385 . S
C2290 C2292 1.478 . S
C2291 H2285 0.930 . S
C2291 C2287 1.400 . S
C2291 C2290 1.385 . S
C2292 C2290 1.478 . S
C2292 C2294 1.381 . S
C2292 C2298 1.383 . S
C2293 C2289 1.495 . S
C2293 H2299 0.959 . S
C2293 H2300 0.961 . S
C2293 H2301 0.960 . S
C2294 C2292 1.381 . S
C2294 C2295 1.394 . S
C2294 H2302 0.930 . S
C2295 C2294 1.394 . S
C2295 C2296 1.383 . S
C2295 H2303 0.929 . S
C2296 C2295 1.383 . S
C2296 C2297 1.377 . S
C2297 H2281 0.930 . S
C2297 C2296 1.377 . S
C2297 C2298 1.379 . S
C2298 H2282 0.931 . S
C2298 C2292 1.383 . S
C2298 C2297 1.379 . S
H2299 C2293 0.959 . S
H2300 C2293 0.961 . S
H2301 C2293 0.960 . S
H2302 C2294 0.930 . S
H2303 C2295 0.929 . S
H2304 C2312 0.929 . S
H2305 C2314 0.930 . S
H2306 C2316 0.930 . S
H2307 C2319 0.929 . S
H2308 C2322 0.930 . S
H2309 C2324 0.960 1_565 S
H2310 C2324 0.960 . S
H2311 C2324 0.960 . S
C2312 H2304 0.929 . S
C2312 C2313 1.377 . S
C2312 C2314 1.384 . S
C2313 C2312 1.377 . S
C2313 C2319 1.390 . S
C2314 H2305 0.930 . S
C2314 C2312 1.384 . S
C2314 C2315 1.372 . S
C2315 C2314 1.372 . S
C2315 C2316 1.400 . S
C2315 C2320 1.490 . S
C2316 H2306 0.930 . S
C2316 C2315 1.400 . S
C2316 C2319 1.386 . S
H2317 C2333 0.930 . S
H2318 C2334 0.931 . S
C2319 H2307 0.929 . S
C2319 C2313 1.390 . S
C2319 C2316 1.386 . S
C2320 C2315 1.490 . S
C2320 C2322 1.395 . S
C2320 C2323 1.403 . S
H2321 C2327 0.930 . S
C2322 H2308 0.930 . S
C2322 C2320 1.395 . S
C2322 C2325 1.403 1_545 S
C2323 C2320 1.403 . S
C2323 C2324 1.524 . S
C2323 C2327 1.400 1_545 S
C2324 H2309 0.960 1_545 S
C2324 H2310 0.960 . S
C2324 H2311 0.960 . S
C2324 C2323 1.524 . S
C2325 C2322 1.403 1_565 S
C2325 C2326 1.392 . S
C2325 C2329 1.495 . S
C2326 C2325 1.392 . S
C2326 C2327 1.385 . S
C2326 C2328 1.478 . S
C2327 H2321 0.930 . S
C2327 C2323 1.400 1_565 S
C2327 C2326 1.385 . S
C2328 C2326 1.478 . S
C2328 C2330 1.381 . S
C2328 C2334 1.383 . S
C2329 C2325 1.495 . S
C2329 H2335 0.959 1_565 S
C2329 H2336 0.961 . S
C2329 H2337 0.960 . S
C2330 C2328 1.381 . S
C2330 C2331 1.394 . S
C2330 H2338 0.930 . S
C2331 C2330 1.394 . S
C2331 C2332 1.383 . S
C2331 H2339 0.929 . S
C2332 C2331 1.383 . S
C2332 C2333 1.377 . S
C2333 H2317 0.930 . S
C2333 C2332 1.377 . S
C2333 C2334 1.379 . S
C2334 H2318 0.931 . S
C2334 C2328 1.383 . S
C2334 C2333 1.379 . S
H2335 C2329 0.959 1_545 S
H2336 C2329 0.961 . S
H2337 C2329 0.960 . S
H2338 C2330 0.930 . S
H2339 C2331 0.929 . S
H2340 C2348 0.929 . S
H2341 C2350 0.930 . S
H2342 C2352 0.930 . S
H2343 C2355 0.929 . S
H2344 C2358 0.930 . S
H2345 C2360 0.960 . S
H2346 C2360 0.960 . S
H2347 C2360 0.960 . S
C2348 H2340 0.929 . S
C2348 C2349 1.377 . S
C2348 C2350 1.384 . S
C2349 C2348 1.377 . S
C2349 C2355 1.390 . S
C2350 H2341 0.930 . S
C2350 C2348 1.384 . S
C2350 C2351 1.372 . S
C2351 C2350 1.372 . S
C2351 C2352 1.400 . S
C2351 C2356 1.490 . S
C2352 H2342 0.930 . S
C2352 C2351 1.400 . S
C2352 C2355 1.386 . S
H2353 C2369 0.930 . S
H2354 C2370 0.931 . S
C2355 H2343 0.929 . S
C2355 C2349 1.390 . S
C2355 C2352 1.386 . S
C2356 C2351 1.490 . S
C2356 C2358 1.395 . S
C2356 C2359 1.403 . S
H2357 C2363 0.930 . S
C2358 H2344 0.930 . S
C2358 C2356 1.395 . S
C2358 C2361 1.403 1_545 S
C2359 C2356 1.403 . S
C2359 C2360 1.524 . S
C2359 C2363 1.400 1_545 S
C2360 H2345 0.960 . S
C2360 H2346 0.960 . S
C2360 H2347 0.960 . S
C2360 C2359 1.524 . S
C2361 C2358 1.403 1_565 S
C2361 C2362 1.392 . S
C2361 C2365 1.495 . S
C2362 C2361 1.392 . S
C2362 C2363 1.385 . S
C2362 C2364 1.478 . S
C2363 H2357 0.930 . S
C2363 C2359 1.400 1_565 S
C2363 C2362 1.385 . S
C2364 C2362 1.478 . S
C2364 C2366 1.381 . S
C2364 C2370 1.383 . S
C2365 C2361 1.495 . S
C2365 H2371 0.959 . S
C2365 H2372 0.961 . S
C2365 H2373 0.960 . S
C2366 C2364 1.381 . S
C2366 C2367 1.394 . S
C2366 H2374 0.930 . S
C2367 C2366 1.394 . S
C2367 C2368 1.383 . S
C2367 H2375 0.929 . S
C2368 C2367 1.383 . S
C2368 C2369 1.377 . S
C2369 H2353 0.930 . S
C2369 C2368 1.377 . S
C2369 C2370 1.379 . S
C2370 H2354 0.931 . S
C2370 C2364 1.383 . S
C2370 C2369 1.379 . S
H2371 C2365 0.959 . S
H2372 C2365 0.961 . S
H2373 C2365 0.960 . S
H2374 C2366 0.930 . S
H2375 C2367 0.929 . S
H2376 C2384 0.929 . S
H2377 C2386 0.930 . S
H2378 C2388 0.930 . S
H2379 C2391 0.929 . S
H2380 C2394 0.930 . S
H2381 C2396 0.960 . S
H2382 C2396 0.960 . S
H2383 C2396 0.960 . S
C2384 H2376 0.929 . S
C2384 C2385 1.377 . S
C2384 C2386 1.384 . S
C2385 C2384 1.377 . S
C2385 C2391 1.390 . S
C2386 H2377 0.930 . S
C2386 C2384 1.384 . S
C2386 C2387 1.372 . S
C2387 C2386 1.372 . S
C2387 C2388 1.400 . S
C2387 C2392 1.490 . S
C2388 H2378 0.930 . S
C2388 C2387 1.400 . S
C2388 C2391 1.386 . S
H2389 C2405 0.930 . S
H2390 C2406 0.931 . S
C2391 H2379 0.929 . S
C2391 C2385 1.390 . S
C2391 C2388 1.386 . S
C2392 C2387 1.490 . S
C2392 C2394 1.395 . S
C2392 C2395 1.403 . S
H2393 C2399 0.930 . S
C2394 H2380 0.930 . S
C2394 C2392 1.395 . S
C2394 C2397 1.403 1_655 S
C2395 C2392 1.403 . S
C2395 C2396 1.524 . S
C2395 C2399 1.400 1_655 S
C2396 H2381 0.960 . S
C2396 H2382 0.960 . S
C2396 H2383 0.960 . S
C2396 C2395 1.524 . S
C2397 C2394 1.403 1_455 S
C2397 C2398 1.392 . S
C2397 C2401 1.495 . S
C2398 C2397 1.392 . S
C2398 C2399 1.385 . S
C2398 C2400 1.478 . S
C2399 H2393 0.930 . S
C2399 C2395 1.400 1_455 S
C2399 C2398 1.385 . S
C2400 C2398 1.478 . S
C2400 C2402 1.381 . S
C2400 C2406 1.383 . S
C2401 C2397 1.495 . S
C2401 H2407 0.959 . S
C2401 H2408 0.961 . S
C2401 H2409 0.960 . S
C2402 C2400 1.381 . S
C2402 C2403 1.394 . S
C2402 H2410 0.930 . S
C2403 C2402 1.394 . S
C2403 C2404 1.383 . S
C2403 H2411 0.929 . S
C2404 C2403 1.383 . S
C2404 C2405 1.377 . S
C2405 H2389 0.930 . S
C2405 C2404 1.377 . S
C2405 C2406 1.379 . S
C2406 H2390 0.931 . S
C2406 C2400 1.383 . S
C2406 C2405 1.379 . S
H2407 C2401 0.959 . S
H2408 C2401 0.961 . S
H2409 C2401 0.960 . S
H2410 C2402 0.930 . S
H2411 C2403 0.929 . S
H2412 C2420 0.929 . S
H2413 C2422 0.930 . S
H2414 C2424 0.930 . S
H2415 C2427 0.929 . S
H2416 C2430 0.930 . S
H2417 C2432 0.960 . S
H2418 C2432 0.960 . S
H2419 C2432 0.960 . S
C2420 H2412 0.929 . S
C2420 C2421 1.377 . S
C2420 C2422 1.384 . S
C2421 C2420 1.377 . S
C2421 C2427 1.390 . S
C2422 H2413 0.930 . S
C2422 C2420 1.384 . S
C2422 C2423 1.372 . S
C2423 C2422 1.372 . S
C2423 C2424 1.400 . S
C2423 C2428 1.490 . S
C2424 H2414 0.930 . S
C2424 C2423 1.400 . S
C2424 C2427 1.386 . S
H2425 C2441 0.930 . S
H2426 C2442 0.931 . S
C2427 H2415 0.929 . S
C2427 C2421 1.390 . S
C2427 C2424 1.386 . S
C2428 C2423 1.490 . S
C2428 C2430 1.395 . S
C2428 C2431 1.403 . S
H2429 C2435 0.930 . S
C2430 H2416 0.930 . S
C2430 C2428 1.395 . S
C2430 C2433 1.403 . S
C2431 C2428 1.403 . S
C2431 C2432 1.524 . S
C2431 C2435 1.400 . S
C2432 H2417 0.960 . S
C2432 H2418 0.960 . S
C2432 H2419 0.960 . S
C2432 C2431 1.524 . S
C2433 C2430 1.403 . S
C2433 C2434 1.392 . S
C2433 C2437 1.495 . S
C2434 C2433 1.392 . S
C2434 C2435 1.385 . S
C2434 C2436 1.478 . S
C2435 H2429 0.930 . S
C2435 C2431 1.400 . S
C2435 C2434 1.385 . S
C2436 C2434 1.478 . S
C2436 C2438 1.381 . S
C2436 C2442 1.383 . S
C2437 C2433 1.495 . S
C2437 H2443 0.959 . S
C2437 H2444 0.961 . S
C2437 H2445 0.960 . S
C2438 C2436 1.381 . S
C2438 C2439 1.394 . S
C2438 H2446 0.930 . S
C2439 C2438 1.394 . S
C2439 C2440 1.383 . S
C2439 H2447 0.929 . S
C2440 C2439 1.383 . S
C2440 C2441 1.377 . S
C2441 H2425 0.930 . S
C2441 C2440 1.377 . S
C2441 C2442 1.379 . S
C2442 H2426 0.931 . S
C2442 C2436 1.383 . S
C2442 C2441 1.379 . S
H2443 C2437 0.959 . S
H2444 C2437 0.961 . S
H2445 C2437 0.960 . S
H2446 C2438 0.930 . S
H2447 C2439 0.929 . S
H2448 C2456 0.929 . S
H2449 C2458 0.930 . S
H2450 C2460 0.930 . S
H2451 C2463 0.929 . S
H2452 C2466 0.930 . S
H2453 C2468 0.960 . S
H2454 C2468 0.960 . S
H2455 C2468 0.960 . S
C2456 H2448 0.929 . S
C2456 C2457 1.377 . S
C2456 C2458 1.384 . S
C2457 C2456 1.377 . S
C2457 C2463 1.390 . S
C2458 H2449 0.930 . S
C2458 C2456 1.384 . S
C2458 C2459 1.372 . S
C2459 C2458 1.372 . S
C2459 C2460 1.400 . S
C2459 C2464 1.490 . S
C2460 H2450 0.930 . S
C2460 C2459 1.400 . S
C2460 C2463 1.386 . S
H2461 C2477 0.930 . S
H2462 C2478 0.931 . S
C2463 H2451 0.929 . S
C2463 C2457 1.390 . S
C2463 C2460 1.386 . S
C2464 C2459 1.490 . S
C2464 C2466 1.395 . S
C2464 C2467 1.403 . S
H2465 C2471 0.930 . S
C2466 H2452 0.930 . S
C2466 C2464 1.395 . S
C2466 C2469 1.403 . S
C2467 C2464 1.403 . S
C2467 C2468 1.524 . S
C2467 C2471 1.400 . S
C2468 H2453 0.960 . S
C2468 H2454 0.960 . S
C2468 H2455 0.960 . S
C2468 C2467 1.524 . S
C2469 C2466 1.403 . S
C2469 C2470 1.392 . S
C2469 C2473 1.495 . S
C2470 C2469 1.392 . S
C2470 C2471 1.385 . S
C2470 C2472 1.478 . S
C2471 H2465 0.930 . S
C2471 C2467 1.400 . S
C2471 C2470 1.385 . S
C2472 C2470 1.478 . S
C2472 C2474 1.381 . S
C2472 C2478 1.383 . S
C2473 C2469 1.495 . S
C2473 H2479 0.959 . S
C2473 H2480 0.961 . S
C2473 H2481 0.960 . S
C2474 C2472 1.381 . S
C2474 C2475 1.394 . S
C2474 H2482 0.930 . S
C2475 C2474 1.394 . S
C2475 C2476 1.383 . S
C2475 H2483 0.929 . S
C2476 C2475 1.383 . S
C2476 C2477 1.377 . S
C2477 H2461 0.930 . S
C2477 C2476 1.377 . S
C2477 C2478 1.379 . S
C2478 H2462 0.931 . S
C2478 C2472 1.383 . S
C2478 C2477 1.379 . S
H2479 C2473 0.959 . S
H2480 C2473 0.961 . S
H2481 C2473 0.960 . S
H2482 C2474 0.930 . S
H2483 C2475 0.929 . S
H2484 C2492 0.929 . S
H2485 C2494 0.930 . S
H2486 C2496 0.930 . S
H2487 C2499 0.929 . S
H2488 C2502 0.930 . S
H2489 C2504 0.960 . S
H2490 C2504 0.960 . S
H2491 C2504 0.960 . S
C2492 H2484 0.929 . S
C2492 C2493 1.377 . S
C2492 C2494 1.384 . S
C2493 C2492 1.377 . S
C2493 C2499 1.390 . S
C2494 H2485 0.930 . S
C2494 C2492 1.384 . S
C2494 C2495 1.372 . S
C2495 C2494 1.372 . S
C2495 C2496 1.400 . S
C2495 C2500 1.490 . S
C2496 H2486 0.930 . S
C2496 C2495 1.400 . S
C2496 C2499 1.386 . S
H2497 C2513 0.930 . S
H2498 C2514 0.931 . S
C2499 H2487 0.929 . S
C2499 C2493 1.390 . S
C2499 C2496 1.386 . S
C2500 C2495 1.490 . S
C2500 C2502 1.395 . S
C2500 C2503 1.403 . S
H2501 C2507 0.930 . S
C2502 H2488 0.930 . S
C2502 C2500 1.395 . S
C2502 C2505 1.403 . S
C2503 C2500 1.403 . S
C2503 C2504 1.524 . S
C2503 C2507 1.400 . S
C2504 H2489 0.960 . S
C2504 H2490 0.960 . S
C2504 H2491 0.960 . S
C2504 C2503 1.524 . S
C2505 C2502 1.403 . S
C2505 C2506 1.392 . S
C2505 C2509 1.495 . S
C2506 C2505 1.392 . S
C2506 C2507 1.385 . S
C2506 C2508 1.478 . S
C2507 H2501 0.930 . S
C2507 C2503 1.400 . S
C2507 C2506 1.385 . S
C2508 C2506 1.478 . S
C2508 C2510 1.381 . S
C2508 C2514 1.383 . S
C2509 C2505 1.495 . S
C2509 H2515 0.959 . S
C2509 H2516 0.961 . S
C2509 H2517 0.960 . S
C2510 C2508 1.381 . S
C2510 C2511 1.394 . S
C2510 H2518 0.930 . S
C2511 C2510 1.394 . S
C2511 C2512 1.383 . S
C2511 H2519 0.929 . S
C2512 C2511 1.383 . S
C2512 C2513 1.377 . S
C2513 H2497 0.930 . S
C2513 C2512 1.377 . S
C2513 C2514 1.379 . S
C2514 H2498 0.931 . S
C2514 C2508 1.383 . S
C2514 C2513 1.379 . S
H2515 C2509 0.959 . S
H2516 C2509 0.961 . S
H2517 C2509 0.960 . S
H2518 C2510 0.930 . S
H2519 C2511 0.929 . S
H2520 C2528 0.929 . S
H2521 C2530 0.930 . S
H2522 C2532 0.930 . S
H2523 C2535 0.929 . S
H2524 C2538 0.930 . S
H2525 C2540 0.960 . S
H2526 C2540 0.960 . S
H2527 C2540 0.960 . S
C2528 H2520 0.929 . S
C2528 C2529 1.377 . S
C2528 C2530 1.384 . S
C2529 C2528 1.377 . S
C2529 C2535 1.390 . S
C2530 H2521 0.930 . S
C2530 C2528 1.384 . S
C2530 C2531 1.372 . S
C2531 C2530 1.372 . S
C2531 C2532 1.400 . S
C2531 C2536 1.490 . S
C2532 H2522 0.930 . S
C2532 C2531 1.400 . S
C2532 C2535 1.386 . S
H2533 C2549 0.930 . S
H2534 C2550 0.931 . S
C2535 H2523 0.929 . S
C2535 C2529 1.390 . S
C2535 C2532 1.386 . S
C2536 C2531 1.490 . S
C2536 C2538 1.395 . S
C2536 C2539 1.403 . S
H2537 C2543 0.930 . S
C2538 H2524 0.930 . S
C2538 C2536 1.395 . S
C2538 C2541 1.403 . S
C2539 C2536 1.403 . S
C2539 C2540 1.524 . S
C2539 C2543 1.400 . S
C2540 H2525 0.960 . S
C2540 H2526 0.960 . S
C2540 H2527 0.960 . S
C2540 C2539 1.524 . S
C2541 C2538 1.403 . S
C2541 C2542 1.392 . S
C2541 C2545 1.495 . S
C2542 C2541 1.392 . S
C2542 C2543 1.385 . S
C2542 C2544 1.478 . S
C2543 H2537 0.930 . S
C2543 C2539 1.400 . S
C2543 C2542 1.385 . S
C2544 C2542 1.478 . S
C2544 C2546 1.381 . S
C2544 C2550 1.383 . S
C2545 C2541 1.495 . S
C2545 H2551 0.959 . S
C2545 H2552 0.961 . S
C2545 H2553 0.960 . S
C2546 C2544 1.381 . S
C2546 C2547 1.394 . S
C2546 H2554 0.930 . S
C2547 C2546 1.394 . S
C2547 C2548 1.383 . S
C2547 H2555 0.929 . S
C2548 C2547 1.383 . S
C2548 C2549 1.377 . S
C2549 H2533 0.930 . S
C2549 C2548 1.377 . S
C2549 C2550 1.379 . S
C2550 H2534 0.931 . S
C2550 C2544 1.383 . S
C2550 C2549 1.379 . S
H2551 C2545 0.959 . S
H2552 C2545 0.961 . S
H2553 C2545 0.960 . S
H2554 C2546 0.930 . S
H2555 C2547 0.929 . S
H2556 C2564 0.929 . S
H2557 C2566 0.930 . S
H2558 C2568 0.930 . S
H2559 C2571 0.929 . S
H2560 C2574 0.930 . S
H2561 C2576 0.960 . S
H2562 C2576 0.960 . S
H2563 C2576 0.960 . S
C2564 H2556 0.929 . S
C2564 C2565 1.377 . S
C2564 C2566 1.384 . S
C2565 C2564 1.377 . S
C2565 C2571 1.390 . S
C2566 H2557 0.930 . S
C2566 C2564 1.384 . S
C2566 C2567 1.372 . S
C2567 C2566 1.372 . S
C2567 C2568 1.400 . S
C2567 C2572 1.490 . S
C2568 H2558 0.930 . S
C2568 C2567 1.400 . S
C2568 C2571 1.386 . S
H2569 C2585 0.930 . S
H2570 C2586 0.931 . S
C2571 H2559 0.929 . S
C2571 C2565 1.390 . S
C2571 C2568 1.386 . S
C2572 C2567 1.490 . S
C2572 C2574 1.395 . S
C2572 C2575 1.403 . S
H2573 C2579 0.930 . S
C2574 H2560 0.930 . S
C2574 C2572 1.395 . S
C2574 C2577 1.403 . S
C2575 C2572 1.403 . S
C2575 C2576 1.524 . S
C2575 C2579 1.400 . S
C2576 H2561 0.960 . S
C2576 H2562 0.960 . S
C2576 H2563 0.960 . S
C2576 C2575 1.524 . S
C2577 C2574 1.403 . S
C2577 C2578 1.392 . S
C2577 C2581 1.495 . S
C2578 C2577 1.392 . S
C2578 C2579 1.385 . S
C2578 C2580 1.478 . S
C2579 H2573 0.930 . S
C2579 C2575 1.400 . S
C2579 C2578 1.385 . S
C2580 C2578 1.478 . S
C2580 C2582 1.381 . S
C2580 C2586 1.383 . S
C2581 C2577 1.495 . S
C2581 H2587 0.959 . S
C2581 H2588 0.961 . S
C2581 H2589 0.960 . S
C2582 C2580 1.381 . S
C2582 C2583 1.394 . S
C2582 H2590 0.930 . S
C2583 C2582 1.394 . S
C2583 C2584 1.383 . S
C2583 H2591 0.929 . S
C2584 C2583 1.383 . S
C2584 C2585 1.377 . S
C2585 H2569 0.930 . S
C2585 C2584 1.377 . S
C2585 C2586 1.379 . S
C2586 H2570 0.931 . S
C2586 C2580 1.383 . S
C2586 C2585 1.379 . S
H2587 C2581 0.959 . S
H2588 C2581 0.961 . S
H2589 C2581 0.960 . S
H2590 C2582 0.930 . S
H2591 C2583 0.929 . S
H2592 C2600 0.929 . S
H2593 C2602 0.930 . S
H2594 C2604 0.930 . S
H2595 C2607 0.929 . S
H2596 C2610 0.930 . S
H2597 C2612 0.960 . S
H2598 C2612 0.960 . S
H2599 C2612 0.960 . S
C2600 H2592 0.929 . S
C2600 C2601 1.377 . S
C2600 C2602 1.384 . S
C2601 C2600 1.377 . S
C2601 C2607 1.390 . S
C2602 H2593 0.930 . S
C2602 C2600 1.384 . S
C2602 C2603 1.372 . S
C2603 C2602 1.372 . S
C2603 C2604 1.400 . S
C2603 C2608 1.490 . S
C2604 H2594 0.930 . S
C2604 C2603 1.400 . S
C2604 C2607 1.386 . S
H2605 C2621 0.930 . S
H2606 C2622 0.931 . S
C2607 H2595 0.929 . S
C2607 C2601 1.390 . S
C2607 C2604 1.386 . S
C2608 C2603 1.490 . S
C2608 C2610 1.395 . S
C2608 C2611 1.403 . S
H2609 C2615 0.930 . S
C2610 H2596 0.930 . S
C2610 C2608 1.395 . S
C2610 C2613 1.403 . S
C2611 C2608 1.403 . S
C2611 C2612 1.524 . S
C2611 C2615 1.400 . S
C2612 H2597 0.960 . S
C2612 H2598 0.960 . S
C2612 H2599 0.960 . S
C2612 C2611 1.524 . S
C2613 C2610 1.403 . S
C2613 C2614 1.392 . S
C2613 C2617 1.495 . S
C2614 C2613 1.392 . S
C2614 C2615 1.385 . S
C2614 C2616 1.478 . S
C2615 H2609 0.930 . S
C2615 C2611 1.400 . S
C2615 C2614 1.385 . S
C2616 C2614 1.478 . S
C2616 C2618 1.381 . S
C2616 C2622 1.383 . S
C2617 C2613 1.495 . S
C2617 H2623 0.959 . S
C2617 H2624 0.961 . S
C2617 H2625 0.960 . S
C2618 C2616 1.381 . S
C2618 C2619 1.394 . S
C2618 H2626 0.930 . S
C2619 C2618 1.394 . S
C2619 C2620 1.383 . S
C2619 H2627 0.929 . S
C2620 C2619 1.383 . S
C2620 C2621 1.377 . S
C2621 H2605 0.930 . S
C2621 C2620 1.377 . S
C2621 C2622 1.379 . S
C2622 H2606 0.931 . S
C2622 C2616 1.383 . S
C2622 C2621 1.379 . S
H2623 C2617 0.959 . S
H2624 C2617 0.961 . S
H2625 C2617 0.960 . S
H2626 C2618 0.930 . S
H2627 C2619 0.929 . S
H2628 C2636 0.929 . S
H2629 C2638 0.930 . S
H2630 C2640 0.930 . S
H2631 C2643 0.929 . S
H2632 C2646 0.930 . S
H2633 C2648 0.960 . S
H2634 C2648 0.960 . S
H2635 C2648 0.960 . S
C2636 H2628 0.929 . S
C2636 C2637 1.377 . S
C2636 C2638 1.384 . S
C2637 C2636 1.377 . S
C2637 C2643 1.390 . S
C2638 H2629 0.930 . S
C2638 C2636 1.384 . S
C2638 C2639 1.372 . S
C2639 C2638 1.372 . S
C2639 C2640 1.400 . S
C2639 C2644 1.490 . S
C2640 H2630 0.930 . S
C2640 C2639 1.400 . S
C2640 C2643 1.386 . S
H2641 C2657 0.930 . S
H2642 C2658 0.931 . S
C2643 H2631 0.929 . S
C2643 C2637 1.390 . S
C2643 C2640 1.386 . S
C2644 C2639 1.490 . S
C2644 C2646 1.395 . S
C2644 C2647 1.403 . S
H2645 C2651 0.930 . S
C2646 H2632 0.930 . S
C2646 C2644 1.395 . S
C2646 C2649 1.403 . S
C2647 C2644 1.403 . S
C2647 C2648 1.524 . S
C2647 C2651 1.400 . S
C2648 H2633 0.960 . S
C2648 H2634 0.960 . S
C2648 H2635 0.960 . S
C2648 C2647 1.524 . S
C2649 C2646 1.403 . S
C2649 C2650 1.392 . S
C2649 C2653 1.495 . S
C2650 C2649 1.392 . S
C2650 C2651 1.385 . S
C2650 C2652 1.478 . S
C2651 H2645 0.930 . S
C2651 C2647 1.400 . S
C2651 C2650 1.385 . S
C2652 C2650 1.478 . S
C2652 C2654 1.381 . S
C2652 C2658 1.383 . S
C2653 C2649 1.495 . S
C2653 H2659 0.959 . S
C2653 H2660 0.961 . S
C2653 H2661 0.960 . S
C2654 C2652 1.381 . S
C2654 C2655 1.394 . S
C2654 H2662 0.930 . S
C2655 C2654 1.394 . S
C2655 C2656 1.383 . S
C2655 H2663 0.929 . S
C2656 C2655 1.383 . S
C2656 C2657 1.377 . S
C2657 H2641 0.930 . S
C2657 C2656 1.377 . S
C2657 C2658 1.379 . S
C2658 H2642 0.931 . S
C2658 C2652 1.383 . S
C2658 C2657 1.379 . S
H2659 C2653 0.959 . S
H2660 C2653 0.961 . S
H2661 C2653 0.960 . S
H2662 C2654 0.930 . S
H2663 C2655 0.929 . S
H2664 C2672 0.929 . S
H2665 C2674 0.930 . S
H2666 C2676 0.930 . S
H2667 C2679 0.929 . S
H2668 C2682 0.930 . S
H2669 C2684 0.960 . S
H2670 C2684 0.960 . S
H2671 C2684 0.960 . S
C2672 H2664 0.929 . S
C2672 C2673 1.377 . S
C2672 C2674 1.384 . S
C2673 C2672 1.377 . S
C2673 C2679 1.390 . S
C2674 H2665 0.930 . S
C2674 C2672 1.384 . S
C2674 C2675 1.372 . S
C2675 C2674 1.372 . S
C2675 C2676 1.400 . S
C2675 C2680 1.490 . S
C2676 H2666 0.930 . S
C2676 C2675 1.400 . S
C2676 C2679 1.386 . S
H2677 C2693 0.930 . S
H2678 C2694 0.931 . S
C2679 H2667 0.929 . S
C2679 C2673 1.390 . S
C2679 C2676 1.386 . S
C2680 C2675 1.490 . S
C2680 C2682 1.395 . S
C2680 C2683 1.403 . S
H2681 C2687 0.930 . S
C2682 H2668 0.930 . S
C2682 C2680 1.395 . S
C2682 C2685 1.403 . S
C2683 C2680 1.403 . S
C2683 C2684 1.524 . S
C2683 C2687 1.400 . S
C2684 H2669 0.960 . S
C2684 H2670 0.960 . S
C2684 H2671 0.960 . S
C2684 C2683 1.524 . S
C2685 C2682 1.403 . S
C2685 C2686 1.392 . S
C2685 C2689 1.495 . S
C2686 C2685 1.392 . S
C2686 C2687 1.385 . S
C2686 C2688 1.478 . S
C2687 H2681 0.930 . S
C2687 C2683 1.400 . S
C2687 C2686 1.385 . S
C2688 C2686 1.478 . S
C2688 C2690 1.381 . S
C2688 C2694 1.383 . S
C2689 C2685 1.495 . S
C2689 H2695 0.959 . S
C2689 H2696 0.961 . S
C2689 H2697 0.960 . S
C2690 C2688 1.381 . S
C2690 C2691 1.394 . S
C2690 H2698 0.930 . S
C2691 C2690 1.394 . S
C2691 C2692 1.383 . S
C2691 H2699 0.929 . S
C2692 C2691 1.383 . S
C2692 C2693 1.377 . S
C2693 H2677 0.930 . S
C2693 C2692 1.377 . S
C2693 C2694 1.379 . S
C2694 H2678 0.931 . S
C2694 C2688 1.383 . S
C2694 C2693 1.379 . S
H2695 C2689 0.959 . S
H2696 C2689 0.961 . S
H2697 C2689 0.960 . S
H2698 C2690 0.930 . S
H2699 C2691 0.929 . S
H2700 C2708 0.929 . S
H2701 C2710 0.930 . S
H2702 C2712 0.930 . S
H2703 C2715 0.929 . S
H2704 C2718 0.930 . S
H2705 C2720 0.960 . S
H2706 C2720 0.960 . S
H2707 C2720 0.960 . S
C2708 H2700 0.929 . S
C2708 C2709 1.377 . S
C2708 C2710 1.384 . S
C2709 C2708 1.377 . S
C2709 C2715 1.390 . S
C2710 H2701 0.930 . S
C2710 C2708 1.384 . S
C2710 C2711 1.372 . S
C2711 C2710 1.372 . S
C2711 C2712 1.400 . S
C2711 C2716 1.490 . S
C2712 H2702 0.930 . S
C2712 C2711 1.400 . S
C2712 C2715 1.386 . S
H2713 C2729 0.930 . S
H2714 C2730 0.931 . S
C2715 H2703 0.929 . S
C2715 C2709 1.390 . S
C2715 C2712 1.386 . S
C2716 C2711 1.490 . S
C2716 C2718 1.395 . S
C2716 C2719 1.403 . S
H2717 C2723 0.930 . S
C2718 H2704 0.930 . S
C2718 C2716 1.395 . S
C2718 C2721 1.403 . S
C2719 C2716 1.403 . S
C2719 C2720 1.524 . S
C2719 C2723 1.400 . S
C2720 H2705 0.960 . S
C2720 H2706 0.960 . S
C2720 H2707 0.960 . S
C2720 C2719 1.524 . S
C2721 C2718 1.403 . S
C2721 C2722 1.392 . S
C2721 C2725 1.495 . S
C2722 C2721 1.392 . S
C2722 C2723 1.385 . S
C2722 C2724 1.478 . S
C2723 H2717 0.930 . S
C2723 C2719 1.400 . S
C2723 C2722 1.385 . S
C2724 C2722 1.478 . S
C2724 C2726 1.381 . S
C2724 C2730 1.383 . S
C2725 C2721 1.495 . S
C2725 H2731 0.959 . S
C2725 H2732 0.961 . S
C2725 H2733 0.960 . S
C2726 C2724 1.381 . S
C2726 C2727 1.394 . S
C2726 H2734 0.930 . S
C2727 C2726 1.394 . S
C2727 C2728 1.383 . S
C2727 H2735 0.929 . S
C2728 C2727 1.383 . S
C2728 C2729 1.377 . S
C2729 H2713 0.930 . S
C2729 C2728 1.377 . S
C2729 C2730 1.379 . S
C2730 H2714 0.931 . S
C2730 C2724 1.383 . S
C2730 C2729 1.379 . S
H2731 C2725 0.959 . S
H2732 C2725 0.961 . S
H2733 C2725 0.960 . S
H2734 C2726 0.930 . S
H2735 C2727 0.929 . S
H2736 C2744 0.929 . S
H2737 C2746 0.930 . S
H2738 C2748 0.930 . S
H2739 C2751 0.929 . S
H2740 C2754 0.930 . S
H2741 C2756 0.960 . S
H2742 C2756 0.960 . S
H2743 C2756 0.960 . S
C2744 H2736 0.929 . S
C2744 C2745 1.377 . S
C2744 C2746 1.384 . S
C2745 C2744 1.377 . S
C2745 C2751 1.390 . S
C2746 H2737 0.930 . S
C2746 C2744 1.384 . S
C2746 C2747 1.372 . S
C2747 C2746 1.372 . S
C2747 C2748 1.400 . S
C2747 C2752 1.490 . S
C2748 H2738 0.930 . S
C2748 C2747 1.400 . S
C2748 C2751 1.386 . S
H2749 C2765 0.930 . S
H2750 C2766 0.931 . S
C2751 H2739 0.929 . S
C2751 C2745 1.390 . S
C2751 C2748 1.386 . S
C2752 C2747 1.490 . S
C2752 C2754 1.395 . S
C2752 C2755 1.403 . S
H2753 C2759 0.930 . S
C2754 H2740 0.930 . S
C2754 C2752 1.395 . S
C2754 C2757 1.403 . S
C2755 C2752 1.403 . S
C2755 C2756 1.524 . S
C2755 C2759 1.400 . S
C2756 H2741 0.960 . S
C2756 H2742 0.960 . S
C2756 H2743 0.960 . S
C2756 C2755 1.524 . S
C2757 C2754 1.403 . S
C2757 C2758 1.392 . S
C2757 C2761 1.495 . S
C2758 C2757 1.392 . S
C2758 C2759 1.385 . S
C2758 C2760 1.478 . S
C2759 H2753 0.930 . S
C2759 C2755 1.400 . S
C2759 C2758 1.385 . S
C2760 C2758 1.478 . S
C2760 C2762 1.381 . S
C2760 C2766 1.383 . S
C2761 C2757 1.495 . S
C2761 H2767 0.959 . S
C2761 H2768 0.961 . S
C2761 H2769 0.960 . S
C2762 C2760 1.381 . S
C2762 C2763 1.394 . S
C2762 H2770 0.930 . S
C2763 C2762 1.394 . S
C2763 C2764 1.383 . S
C2763 H2771 0.929 . S
C2764 C2763 1.383 . S
C2764 C2765 1.377 . S
C2765 H2749 0.930 . S
C2765 C2764 1.377 . S
C2765 C2766 1.379 . S
C2766 H2750 0.931 . S
C2766 C2760 1.383 . S
C2766 C2765 1.379 . S
H2767 C2761 0.959 . S
H2768 C2761 0.961 . S
H2769 C2761 0.960 . S
H2770 C2762 0.930 . S
H2771 C2763 0.929 . S
H2772 C2780 0.929 . S
H2773 C2782 0.930 . S
H2774 C2784 0.930 . S
H2775 C2787 0.929 . S
H2776 C2790 0.930 . S
H2777 C2792 0.960 . S
H2778 C2792 0.960 . S
H2779 C2792 0.960 . S
C2780 H2772 0.929 . S
C2780 C2781 1.377 . S
C2780 C2782 1.384 . S
C2781 C2780 1.377 . S
C2781 C2787 1.390 . S
C2782 H2773 0.930 . S
C2782 C2780 1.384 . S
C2782 C2783 1.372 . S
C2783 C2782 1.372 . S
C2783 C2784 1.400 . S
C2783 C2788 1.490 . S
C2784 H2774 0.930 . S
C2784 C2783 1.400 . S
C2784 C2787 1.386 . S
H2785 C2801 0.930 . S
H2786 C2802 0.931 . S
C2787 H2775 0.929 . S
C2787 C2781 1.390 . S
C2787 C2784 1.386 . S
C2788 C2783 1.490 . S
C2788 C2790 1.395 . S
C2788 C2791 1.403 . S
H2789 C2795 0.930 . S
C2790 H2776 0.930 . S
C2790 C2788 1.395 . S
C2790 C2793 1.403 . S
C2791 C2788 1.403 . S
C2791 C2792 1.524 . S
C2791 C2795 1.400 . S
C2792 H2777 0.960 . S
C2792 H2778 0.960 . S
C2792 H2779 0.960 . S
C2792 C2791 1.524 . S
C2793 C2790 1.403 . S
C2793 C2794 1.392 . S
C2793 C2797 1.495 . S
C2794 C2793 1.392 . S
C2794 C2795 1.385 . S
C2794 C2796 1.478 . S
C2795 H2789 0.930 . S
C2795 C2791 1.400 . S
C2795 C2794 1.385 . S
C2796 C2794 1.478 . S
C2796 C2798 1.381 . S
C2796 C2802 1.383 . S
C2797 C2793 1.495 . S
C2797 H2803 0.959 1_554 S
C2797 H2804 0.961 . S
C2797 H2805 0.960 1_554 S
C2798 C2796 1.381 . S
C2798 C2799 1.394 . S
C2798 H2806 0.930 . S
C2799 C2798 1.394 . S
C2799 C2800 1.383 . S
C2799 H2807 0.929 . S
C2800 C2799 1.383 . S
C2800 C2801 1.377 . S
C2801 H2785 0.930 . S
C2801 C2800 1.377 . S
C2801 C2802 1.379 . S
C2802 H2786 0.931 . S
C2802 C2796 1.383 . S
C2802 C2801 1.379 . S
H2803 C2797 0.959 1_556 S
H2804 C2797 0.961 . S
H2805 C2797 0.960 1_556 S
H2806 C2798 0.930 . S
H2807 C2799 0.929 . S
H2808 C2816 0.929 . S
H2809 C2818 0.930 . S
H2810 C2820 0.930 . S
H2811 C2823 0.929 . S
H2812 C2826 0.930 . S
H2813 C2828 0.960 . S
H2814 C2828 0.960 . S
H2815 C2828 0.960 . S
C2816 H2808 0.929 . S
C2816 C2817 1.377 . S
C2816 C2818 1.384 . S
C2817 C2816 1.377 . S
C2817 C2823 1.390 . S
C2818 H2809 0.930 . S
C2818 C2816 1.384 . S
C2818 C2819 1.372 . S
C2819 C2818 1.372 . S
C2819 C2820 1.400 . S
C2819 C2824 1.490 . S
C2820 H2810 0.930 . S
C2820 C2819 1.400 . S
C2820 C2823 1.386 . S
H2821 C2837 0.930 . S
H2822 C2838 0.931 . S
C2823 H2811 0.929 . S
C2823 C2817 1.390 . S
C2823 C2820 1.386 . S
C2824 C2819 1.490 . S
C2824 C2826 1.395 . S
C2824 C2827 1.403 . S
H2825 C2831 0.930 . S
C2826 H2812 0.930 . S
C2826 C2824 1.395 . S
C2826 C2829 1.403 . S
C2827 C2824 1.403 . S
C2827 C2828 1.524 . S
C2827 C2831 1.400 . S
C2828 H2813 0.960 . S
C2828 H2814 0.960 . S
C2828 H2815 0.960 . S
C2828 C2827 1.524 . S
C2829 C2826 1.403 . S
C2829 C2830 1.392 . S
C2829 C2833 1.495 . S
C2830 C2829 1.392 . S
C2830 C2831 1.385 . S
C2830 C2832 1.478 . S
C2831 H2825 0.930 . S
C2831 C2827 1.400 . S
C2831 C2830 1.385 . S
C2832 C2830 1.478 . S
C2832 C2834 1.381 . S
C2832 C2838 1.383 . S
C2833 C2829 1.495 . S
C2833 H2839 0.959 . S
C2833 H2840 0.961 . S
C2833 H2841 0.960 . S
C2834 C2832 1.381 . S
C2834 C2835 1.394 . S
C2834 H2842 0.930 . S
C2835 C2834 1.394 . S
C2835 C2836 1.383 . S
C2835 H2843 0.929 . S
C2836 C2835 1.383 . S
C2836 C2837 1.377 . S
C2837 H2821 0.930 . S
C2837 C2836 1.377 . S
C2837 C2838 1.379 . S
C2838 H2822 0.931 . S
C2838 C2832 1.383 . S
C2838 C2837 1.379 . S
H2839 C2833 0.959 . S
H2840 C2833 0.961 . S
H2841 C2833 0.960 . S
H2842 C2834 0.930 . S
H2843 C2835 0.929 . S
H2844 C2852 0.929 . S
H2845 C2854 0.930 . S
H2846 C2856 0.930 . S
H2847 C2859 0.929 . S
H2848 C2862 0.930 . S
H2849 C2864 0.960 . S
H2850 C2864 0.960 . S
H2851 C2864 0.960 . S
C2852 H2844 0.929 . S
C2852 C2853 1.377 . S
C2852 C2854 1.384 . S
C2853 C2852 1.377 . S
C2853 C2859 1.390 . S
C2854 H2845 0.930 . S
C2854 C2852 1.384 . S
C2854 C2855 1.372 . S
C2855 C2854 1.372 . S
C2855 C2856 1.400 . S
C2855 C2860 1.490 . S
C2856 H2846 0.930 . S
C2856 C2855 1.400 . S
C2856 C2859 1.386 . S
H2857 C2873 0.930 . S
H2858 C2874 0.931 . S
C2859 H2847 0.929 . S
C2859 C2853 1.390 . S
C2859 C2856 1.386 . S
C2860 C2855 1.490 . S
C2860 C2862 1.395 . S
C2860 C2863 1.403 . S
H2861 C2867 0.930 . S
C2862 H2848 0.930 . S
C2862 C2860 1.395 . S
C2862 C2865 1.403 . S
C2863 C2860 1.403 . S
C2863 C2864 1.524 . S
C2863 C2867 1.400 . S
C2864 H2849 0.960 . S
C2864 H2850 0.960 . S
C2864 H2851 0.960 . S
C2864 C2863 1.524 . S
C2865 C2862 1.403 . S
C2865 C2866 1.392 . S
C2865 C2869 1.495 . S
C2866 C2865 1.392 . S
C2866 C2867 1.385 . S
C2866 C2868 1.478 . S
C2867 H2861 0.930 . S
C2867 C2863 1.400 . S
C2867 C2866 1.385 . S
C2868 C2866 1.478 . S
C2868 C2870 1.381 . S
C2868 C2874 1.383 . S
C2869 C2865 1.495 . S
C2869 H2875 0.959 . S
C2869 H2876 0.961 . S
C2869 H2877 0.960 . S
C2870 C2868 1.381 . S
C2870 C2871 1.394 . S
C2870 H2878 0.930 . S
C2871 C2870 1.394 . S
C2871 C2872 1.383 . S
C2871 H2879 0.929 . S
C2872 C2871 1.383 . S
C2872 C2873 1.377 . S
C2873 H2857 0.930 . S
C2873 C2872 1.377 . S
C2873 C2874 1.379 . S
C2874 H2858 0.931 . S
C2874 C2868 1.383 . S
C2874 C2873 1.379 . S
H2875 C2869 0.959 . S
H2876 C2869 0.961 . S
H2877 C2869 0.960 . S
H2878 C2870 0.930 . S
H2879 C2871 0.929 . S
H2880 C2888 0.929 . S
H2881 C2890 0.930 . S
H2882 C2892 0.930 . S
H2883 C2895 0.929 . S
H2884 C2898 0.930 . S
H2885 C2900 0.960 . S
H2886 C2900 0.960 . S
H2887 C2900 0.960 . S
C2888 H2880 0.929 . S
C2888 C2889 1.377 . S
C2888 C2890 1.384 . S
C2889 C2888 1.377 . S
C2889 C2895 1.390 . S
C2890 H2881 0.930 . S
C2890 C2888 1.384 . S
C2890 C2891 1.372 . S
C2891 C2890 1.372 . S
C2891 C2892 1.400 . S
C2891 C2896 1.490 . S
C2892 H2882 0.930 . S
C2892 C2891 1.400 . S
C2892 C2895 1.386 . S
H2893 C2909 0.930 . S
H2894 C2910 0.931 . S
C2895 H2883 0.929 . S
C2895 C2889 1.390 . S
C2895 C2892 1.386 . S
C2896 C2891 1.490 . S
C2896 C2898 1.395 . S
C2896 C2899 1.403 . S
H2897 C2903 0.930 . S
C2898 H2884 0.930 . S
C2898 C2896 1.395 . S
C2898 C2901 1.403 . S
C2899 C2896 1.403 . S
C2899 C2900 1.524 1_556 S
C2899 C2903 1.400 . S
C2900 H2885 0.960 . S
C2900 H2886 0.960 . S
C2900 H2887 0.960 . S
C2900 C2899 1.524 1_554 S
C2901 C2898 1.403 . S
C2901 C2902 1.392 . S
C2901 C2905 1.495 . S
C2902 C2901 1.392 . S
C2902 C2903 1.385 . S
C2902 C2904 1.478 . S
C2903 H2897 0.930 . S
C2903 C2899 1.400 . S
C2903 C2902 1.385 . S
C2904 C2902 1.478 . S
C2904 C2906 1.381 . S
C2904 C2910 1.383 . S
C2905 C2901 1.495 . S
C2905 H2911 0.959 . S
C2905 H2912 0.961 . S
C2905 H2913 0.960 . S
C2906 C2904 1.381 . S
C2906 C2907 1.394 . S
C2906 H2914 0.930 . S
C2907 C2906 1.394 . S
C2907 C2908 1.383 . S
C2907 H2915 0.929 . S
C2908 C2907 1.383 . S
C2908 C2909 1.377 . S
C2909 H2893 0.930 . S
C2909 C2908 1.377 . S
C2909 C2910 1.379 . S
C2910 H2894 0.931 . S
C2910 C2904 1.383 . S
C2910 C2909 1.379 . S
H2911 C2905 0.959 . S
H2912 C2905 0.961 . S
H2913 C2905 0.960 . S
H2914 C2906 0.930 . S
H2915 C2907 0.929 . S
H2916 C2924 0.929 . S
H2917 C2926 0.930 . S
H2918 C2928 0.930 . S
H2919 C2931 0.929 . S
H2920 C2934 0.930 . S
H2921 C2936 0.960 . S
H2922 C2936 0.960 . S
H2923 C2936 0.960 . S
C2924 H2916 0.929 . S
C2924 C2925 1.377 . S
C2924 C2926 1.384 . S
C2925 C2924 1.377 . S
C2925 C2931 1.390 . S
C2926 H2917 0.930 . S
C2926 C2924 1.384 . S
C2926 C2927 1.372 . S
C2927 C2926 1.372 . S
C2927 C2928 1.400 . S
C2927 C2932 1.490 . S
C2928 H2918 0.930 . S
C2928 C2927 1.400 . S
C2928 C2931 1.386 . S
H2929 C2945 0.930 . S
H2930 C2946 0.931 . S
C2931 H2919 0.929 . S
C2931 C2925 1.390 . S
C2931 C2928 1.386 . S
C2932 C2927 1.490 . S
C2932 C2934 1.395 . S
C2932 C2935 1.403 . S
H2933 C2939 0.930 . S
C2934 H2920 0.930 . S
C2934 C2932 1.395 . S
C2934 C2937 1.403 . S
C2935 C2932 1.403 . S
C2935 C2936 1.524 . S
C2935 C2939 1.400 . S
C2936 H2921 0.960 . S
C2936 H2922 0.960 . S
C2936 H2923 0.960 . S
C2936 C2935 1.524 . S
C2937 C2934 1.403 . S
C2937 C2938 1.392 . S
C2937 C2941 1.495 . S
C2938 C2937 1.392 . S
C2938 C2939 1.385 . S
C2938 C2940 1.478 . S
C2939 H2933 0.930 . S
C2939 C2935 1.400 . S
C2939 C2938 1.385 . S
C2940 C2938 1.478 . S
C2940 C2942 1.381 . S
C2940 C2946 1.383 . S
C2941 C2937 1.495 . S
C2941 H2947 0.959 . S
C2941 H2948 0.961 . S
C2941 H2949 0.960 . S
C2942 C2940 1.381 . S
C2942 C2943 1.394 . S
C2942 H2950 0.930 . S
C2943 C2942 1.394 . S
C2943 C2944 1.383 . S
C2943 H2951 0.929 . S
C2944 C2943 1.383 . S
C2944 C2945 1.377 . S
C2945 H2929 0.930 . S
C2945 C2944 1.377 . S
C2945 C2946 1.379 . S
C2946 H2930 0.931 . S
C2946 C2940 1.383 . S
C2946 C2945 1.379 . S
H2947 C2941 0.959 . S
H2948 C2941 0.961 . S
H2949 C2941 0.960 . S
H2950 C2942 0.930 . S
H2951 C2943 0.929 . S
H2952 C2960 0.929 . S
H2953 C2962 0.930 . S
H2954 C2964 0.930 . S
H2955 C2967 0.929 . S
H2956 C2970 0.930 . S
H2957 C2972 0.960 . S
H2958 C2972 0.960 . S
H2959 C2972 0.960 . S
C2960 H2952 0.929 . S
C2960 C2961 1.377 . S
C2960 C2962 1.384 . S
C2961 C2960 1.377 . S
C2961 C2967 1.390 . S
C2962 H2953 0.930 . S
C2962 C2960 1.384 . S
C2962 C2963 1.372 . S
C2963 C2962 1.372 . S
C2963 C2964 1.400 . S
C2963 C2968 1.490 . S
C2964 H2954 0.930 . S
C2964 C2963 1.400 . S
C2964 C2967 1.386 . S
H2965 C2981 0.930 . S
H2966 C2982 0.931 . S
C2967 H2955 0.929 . S
C2967 C2961 1.390 . S
C2967 C2964 1.386 . S
C2968 C2963 1.490 . S
C2968 C2970 1.395 . S
C2968 C2971 1.403 . S
H2969 C2975 0.930 . S
C2970 H2956 0.930 . S
C2970 C2968 1.395 . S
C2970 C2973 1.403 . S
C2971 C2968 1.403 . S
C2971 C2972 1.524 . S
C2971 C2975 1.400 . S
C2972 H2957 0.960 . S
C2972 H2958 0.960 . S
C2972 H2959 0.960 . S
C2972 C2971 1.524 . S
C2973 C2970 1.403 . S
C2973 C2974 1.392 . S
C2973 C2977 1.495 1_556 S
C2974 C2973 1.392 . S
C2974 C2975 1.385 . S
C2974 C2976 1.478 . S
C2975 H2969 0.930 . S
C2975 C2971 1.400 . S
C2975 C2974 1.385 . S
C2976 C2974 1.478 . S
C2976 C2978 1.381 . S
C2976 C2982 1.383 . S
C2977 C2973 1.495 1_554 S
C2977 H2983 0.959 . S
C2977 H2984 0.961 . S
C2977 H2985 0.960 . S
C2978 C2976 1.381 . S
C2978 C2979 1.394 . S
C2978 H2986 0.930 . S
C2979 C2978 1.394 . S
C2979 C2980 1.383 . S
C2979 H2987 0.929 . S
C2980 C2979 1.383 . S
C2980 C2981 1.377 . S
C2981 H2965 0.930 . S
C2981 C2980 1.377 . S
C2981 C2982 1.379 . S
C2982 H2966 0.931 . S
C2982 C2976 1.383 . S
C2982 C2981 1.379 . S
H2983 C2977 0.959 . S
H2984 C2977 0.961 . S
H2985 C2977 0.960 . S
H2986 C2978 0.930 . S
H2987 C2979 0.929 . S
H2988 C2996 0.929 . S
H2989 C2998 0.930 . S
H2990 C3000 0.930 . S
H2991 C3003 0.929 . S
H2992 C3006 0.930 . S
H2993 C3008 0.960 . S
H2994 C3008 0.960 . S
H2995 C3008 0.960 . S
C2996 H2988 0.929 . S
C2996 C2997 1.377 . S
C2996 C2998 1.384 . S
C2997 C2996 1.377 . S
C2997 C3003 1.390 . S
C2998 H2989 0.930 . S
C2998 C2996 1.384 . S
C2998 C2999 1.372 . S
C2999 C2998 1.372 . S
C2999 C3000 1.400 . S
C2999 C3004 1.490 . S
C3000 H2990 0.930 . S
C3000 C2999 1.400 . S
C3000 C3003 1.386 . S
H3001 C3017 0.930 . S
H3002 C3018 0.931 . S
C3003 H2991 0.929 . S
C3003 C2997 1.390 . S
C3003 C3000 1.386 . S
C3004 C2999 1.490 . S
C3004 C3006 1.395 . S
C3004 C3007 1.403 . S
H3005 C3011 0.930 . S
C3006 H2992 0.930 . S
C3006 C3004 1.395 . S
C3006 C3009 1.403 . S
C3007 C3004 1.403 . S
C3007 C3008 1.524 . S
C3007 C3011 1.400 . S
C3008 H2993 0.960 . S
C3008 H2994 0.960 . S
C3008 H2995 0.960 . S
C3008 C3007 1.524 . S
C3009 C3006 1.403 . S
C3009 C3010 1.392 . S
C3009 C3013 1.495 . S
C3010 C3009 1.392 . S
C3010 C3011 1.385 . S
C3010 C3012 1.478 . S
C3011 H3005 0.930 . S
C3011 C3007 1.400 . S
C3011 C3010 1.385 . S
C3012 C3010 1.478 . S
C3012 C3014 1.381 . S
C3012 C3018 1.383 . S
C3013 C3009 1.495 . S
C3013 H3019 0.959 . S
C3013 H3020 0.961 . S
C3013 H3021 0.960 . S
C3014 C3012 1.381 . S
C3014 C3015 1.394 . S
C3014 H3022 0.930 . S
C3015 C3014 1.394 . S
C3015 C3016 1.383 . S
C3015 H3023 0.929 . S
C3016 C3015 1.383 . S
C3016 C3017 1.377 . S
C3017 H3001 0.930 . S
C3017 C3016 1.377 . S
C3017 C3018 1.379 . S
C3018 H3002 0.931 . S
C3018 C3012 1.383 . S
C3018 C3017 1.379 . S
H3019 C3013 0.959 . S
H3020 C3013 0.961 . S
H3021 C3013 0.960 . S
H3022 C3014 0.930 . S
H3023 C3015 0.929 . S
H3024 C3032 0.929 . S
H3025 C3034 0.930 . S
H3026 C3036 0.930 . S
H3027 C3039 0.929 . S
H3028 C3042 0.930 . S
H3029 C3044 0.960 . S
H3030 C3044 0.960 . S
H3031 C3044 0.960 . S
C3032 H3024 0.929 . S
C3032 C3033 1.377 . S
C3032 C3034 1.384 . S
C3033 C3032 1.377 . S
C3033 C3039 1.390 . S
C3034 H3025 0.930 . S
C3034 C3032 1.384 . S
C3034 C3035 1.372 . S
C3035 C3034 1.372 . S
C3035 C3036 1.400 . S
C3035 C3040 1.490 . S
C3036 H3026 0.930 . S
C3036 C3035 1.400 . S
C3036 C3039 1.386 . S
H3037 C3053 0.930 . S
H3038 C3054 0.931 . S
C3039 H3027 0.929 . S
C3039 C3033 1.390 . S
C3039 C3036 1.386 . S
C3040 C3035 1.490 . S
C3040 C3042 1.395 . S
C3040 C3043 1.403 . S
H3041 C3047 0.930 . S
C3042 H3028 0.930 . S
C3042 C3040 1.395 . S
C3042 C3045 1.403 . S
C3043 C3040 1.403 . S
C3043 C3044 1.524 . S
C3043 C3047 1.400 . S
C3044 H3029 0.960 . S
C3044 H3030 0.960 . S
C3044 H3031 0.960 . S
C3044 C3043 1.524 . S
C3045 C3042 1.403 . S
C3045 C3046 1.392 . S
C3045 C3049 1.495 . S
C3046 C3045 1.392 . S
C3046 C3047 1.385 . S
C3046 C3048 1.478 . S
C3047 H3041 0.930 . S
C3047 C3043 1.400 . S
C3047 C3046 1.385 . S
C3048 C3046 1.478 . S
C3048 C3050 1.381 . S
C3048 C3054 1.383 . S
C3049 C3045 1.495 . S
C3049 H3055 0.959 . S
C3049 H3056 0.961 . S
C3049 H3057 0.960 . S
C3050 C3048 1.381 . S
C3050 C3051 1.394 . S
C3050 H3058 0.930 . S
C3051 C3050 1.394 . S
C3051 C3052 1.383 . S
C3051 H3059 0.929 . S
C3052 C3051 1.383 . S
C3052 C3053 1.377 . S
C3053 H3037 0.930 . S
C3053 C3052 1.377 . S
C3053 C3054 1.379 . S
C3054 H3038 0.931 . S
C3054 C3048 1.383 . S
C3054 C3053 1.379 . S
H3055 C3049 0.959 . S
H3056 C3049 0.961 . S
H3057 C3049 0.960 . S
H3058 C3050 0.930 . S
H3059 C3051 0.929 . S
H3060 C3068 0.929 . S
H3061 C3070 0.930 . S
H3062 C3072 0.930 . S
H3063 C3075 0.929 . S
H3064 C3078 0.930 . S
H3065 C3080 0.960 . S
H3066 C3080 0.960 . S
H3067 C3080 0.960 . S
C3068 H3060 0.929 . S
C3068 C3069 1.377 . S
C3068 C3070 1.384 . S
C3069 C3068 1.377 . S
C3069 C3075 1.390 . S
C3070 H3061 0.930 . S
C3070 C3068 1.384 . S
C3070 C3071 1.372 . S
C3071 C3070 1.372 . S
C3071 C3072 1.400 . S
C3071 C3076 1.490 . S
C3072 H3062 0.930 . S
C3072 C3071 1.400 . S
C3072 C3075 1.386 . S
H3073 C3089 0.930 . S
H3074 C3090 0.931 . S
C3075 H3063 0.929 . S
C3075 C3069 1.390 . S
C3075 C3072 1.386 . S
C3076 C3071 1.490 . S
C3076 C3078 1.395 . S
C3076 C3079 1.403 . S
H3077 C3083 0.930 . S
C3078 H3064 0.930 . S
C3078 C3076 1.395 . S
C3078 C3081 1.403 . S
C3079 C3076 1.403 . S
C3079 C3080 1.524 . S
C3079 C3083 1.400 . S
C3080 H3065 0.960 . S
C3080 H3066 0.960 . S
C3080 H3067 0.960 . S
C3080 C3079 1.524 . S
C3081 C3078 1.403 . S
C3081 C3082 1.392 . S
C3081 C3085 1.495 . S
C3082 C3081 1.392 . S
C3082 C3083 1.385 . S
C3082 C3084 1.478 . S
C3083 H3077 0.930 . S
C3083 C3079 1.400 . S
C3083 C3082 1.385 . S
C3084 C3082 1.478 . S
C3084 C3086 1.381 . S
C3084 C3090 1.383 . S
C3085 C3081 1.495 . S
C3085 H3091 0.959 . S
C3085 H3092 0.961 . S
C3085 H3093 0.960 . S
C3086 C3084 1.381 . S
C3086 C3087 1.394 . S
C3086 H3094 0.930 . S
C3087 C3086 1.394 . S
C3087 C3088 1.383 . S
C3087 H3095 0.929 . S
C3088 C3087 1.383 . S
C3088 C3089 1.377 . S
C3089 H3073 0.930 . S
C3089 C3088 1.377 . S
C3089 C3090 1.379 . S
C3090 H3074 0.931 . S
C3090 C3084 1.383 . S
C3090 C3089 1.379 . S
H3091 C3085 0.959 . S
H3092 C3085 0.961 . S
H3093 C3085 0.960 . S
H3094 C3086 0.930 . S
H3095 C3087 0.929 . S
C513 C81 1.470 . S
C532 C11 1.471 . S
C549 C53 1.474 . S
C568 C25 1.455 . S
C585 C39 1.476 . S
C604 C67 1.466 . S
C621 C95 1.472 . S
C640 C165 1.483 . S
C657 C109 1.476 . S
C676 C137 1.455 . S
C693 C151 1.470 . S
C712 C123 1.480 . S
C729 C179 1.470 . S
C748 C249 1.464 1_556 S
C765 C193 1.476 . S
C784 C221 1.475 1_556 S
C801 C207 1.471 . S
C820 C235 1.479 1_556 S
C837 C333 1.477 . S
C856 C263 1.457 1_556 S
C873 C277 1.476 1_556 S
C892 C305 1.455 . S
C909 C319 1.472 . S
C928 C291 1.482 1_556 S
C945 C417 1.471 . S
C964 C347 1.462 1_554 S
C981 C389 1.475 . S
C1000 C361 1.459 1_554 S
C1017 C403 1.474 . S
C1036 C375 1.455 1_554 S
C1053 C431 1.470 . S
C1072 C501 1.482 1_554 S
C1089 C445 1.470 . S
C1108 C473 1.478 1_554 S
C1125 C459 1.474 . S
C1144 C487 1.458 1_554 S
C1161 C79 1.583 . S
C1180 C9 1.582 . S
C1197 C23 1.584 . S
C1216 C51 1.581 . S
C1233 C65 1.585 . S
C1252 C37 1.579 . S
C1269 C93 1.583 . S
C1288 C163 1.576 . S
C1305 C107 1.583 . S
C1324 C135 1.577 . S
C1341 C149 1.583 . S
C1360 C121 1.582 . S
C1377 C177 1.583 . S
C1396 C247 1.583 . S
C1413 C219 1.583 . S
C1432 C191 1.584 . S
C1449 C233 1.585 . S
C1468 C205 1.577 . S
C1485 C261 1.585 . S
C1504 C331 1.580 . S
C1521 C275 1.584 . S
C1540 C303 1.576 . S
C1557 C317 1.583 . S
C1576 C289 1.579 . S
C1593 C415 1.585 . S
C1612 C345 1.577 . S
C1629 C359 1.584 . S
C1648 C387 1.580 . S
C1665 C373 1.583 . S
C1684 C401 1.586 . S
C1701 C499 1.583 . S
C1720 C429 1.575 . S
C1737 C471 1.584 . S
C1756 C443 1.585 . S
C1773 C485 1.585 . S
C1792 C457 1.580 . S
C1809 C229 1.674 . S
C1828 C5 1.670 . S
C1845 C243 1.674 . S
C1864 C19 1.670 . S
C1881 C215 1.675 . S
C1900 C33 1.672 . S
C1917 C47 1.675 . S
C1936 C369 1.672 . S
C1953 C61 1.674 . S
C1972 C341 1.671 . S
C1989 C75 1.675 . S
C2008 C355 1.671 . S
C2025 C89 1.675 . S
C2044 C481 1.672 . S
C2061 C103 1.674 . S
C2080 C495 1.670 . S
C2097 C117 1.675 . S
C2116 C467 1.673 . S
C2133 C131 1.674 . S
C2152 C285 1.669 . S
C2169 C257 1.674 . S
C2188 C145 1.670 . S
C2205 C271 1.675 . S
C2224 C159 1.671 . S
C2241 C397 1.675 . S
C2260 C173 1.670 . S
C2277 C187 1.675 . S
C2296 C411 1.673 . S
C2313 C201 1.674 . S
C2332 C383 1.670 . S
C2349 C299 1.674 . S
C2368 C453 1.671 . S
C2385 C313 1.674 . S
C2404 C425 1.672 . S
C2421 C439 1.675 . S
C2440 C327 1.671 . S
C2457 C0 1.263 . S
C2476 C140 1.252 . S
C2493 C154 1.255 . S
C2512 C14 1.249 . S
C2529 C126 1.256 . S
C2548 C28 1.277 . S
C2565 C42 1.259 . S
C2584 C112 1.273 . S
C2601 C56 1.258 . S
C2620 C84 1.276 . S
C2637 C70 1.258 . S
C2656 C98 1.238 . S
C2673 C168 1.259 . S
C2692 C308 1.237 . S
C2709 C322 1.258 . S
C2728 C182 1.237 . S
C2745 C294 1.254 . S
C2764 C196 1.270 . S
C2781 C210 1.262 . S
C2800 C280 1.262 . S
C2817 C224 1.263 . S
C2836 C252 1.250 . S
C2853 C266 1.260 . S
C2872 C238 1.269 . S
C2889 C336 1.259 . S
C2908 C476 1.237 . S
C2925 C490 1.255 . S
C2944 C350 1.250 . S
C2961 C364 1.259 . S
C2980 C462 1.275 . S
C2997 C378 1.254 . S
C3016 C448 1.264 . S
C3033 C420 1.258 . S
C3052 C392 1.239 . S
C3069 C406 1.263 . S
C3088 C434 1.240 . S
