# Generated by pormake.
# Topology nfa, (4)-cn, num edge types: 1
# Building blocks:
#     Node 0, Type 0, BuildingBlock: NAWXER_clean_sbu_0, # of connection points: 4
#     Node 1, Type 0, BuildingBlock: NAWXER_clean_sbu_0, # of connection points: 4
#     Node 2, Type 0, BuildingBlock: NAWXER_clean_sbu_0, # of connection points: 4
#     Node 3, Type 0, BuildingBlock: NAWXER_clean_sbu_0, # of connection points: 4
#     Node 4, Type 0, BuildingBlock: NAWXER_clean_sbu_0, # of connection points: 4
#     Node 5, Type 0, BuildingBlock: NAWXER_clean_sbu_0, # of connection points: 4
#     Node 6, Type 0, BuildingBlock: NAWXER_clean_sbu_0, # of connection points: 4
#     Node 7, Type 0, BuildingBlock: NAWXER_clean_sbu_0, # of connection points: 4
#     Node 8, Type 0, BuildingBlock: NAWXER_clean_sbu_0, # of connection points: 4
#     Node 9, Type 0, BuildingBlock: NAWXER_clean_sbu_0, # of connection points: 4
#     Node 10, Type 0, BuildingBlock: NAWXER_clean_sbu_0, # of connection points: 4
#     Node 11, Type 0, BuildingBlock: NAWXER_clean_sbu_0, # of connection points: 4
#     Node 12, Type 0, BuildingBlock: NAWXER_clean_sbu_0, # of connection points: 4
#     Node 13, Type 0, BuildingBlock: NAWXER_clean_sbu_0, # of connection points: 4
#     Node 14, Type 0, BuildingBlock: NAWXER_clean_sbu_0, # of connection points: 4
#     Node 15, Type 0, BuildingBlock: NAWXER_clean_sbu_0, # of connection points: 4
#     Node 16, Type 0, BuildingBlock: NAWXER_clean_sbu_0, # of connection points: 4
#     Node 17, Type 0, BuildingBlock: NAWXER_clean_sbu_0, # of connection points: 4
#     Node 18, Type 0, BuildingBlock: NAWXER_clean_sbu_0, # of connection points: 4
#     Node 19, Type 0, BuildingBlock: NAWXER_clean_sbu_0, # of connection points: 4
#     Node 20, Type 0, BuildingBlock: NAWXER_clean_sbu_0, # of connection points: 4
#     Node 21, Type 0, BuildingBlock: NAWXER_clean_sbu_0, # of connection points: 4
#     Node 22, Type 0, BuildingBlock: NAWXER_clean_sbu_0, # of connection points: 4
#     Node 23, Type 0, BuildingBlock: NAWXER_clean_sbu_0, # of connection points: 4
#     Edge 24, Type (0, 0), BuildingBlock: KIFKEQ_clean_linker_1, # of connection points: 2
#     Edge 25, Type (0, 0), BuildingBlock: KIFKEQ_clean_linker_1, # of connection points: 2
#     Edge 26, Type (0, 0), BuildingBlock: KIFKEQ_clean_linker_1, # of connection points: 2
#     Edge 27, Type (0, 0), BuildingBlock: KIFKEQ_clean_linker_1, # of connection points: 2
#     Edge 28, Type (0, 0), BuildingBlock: KIFKEQ_clean_linker_1, # of connection points: 2
#     Edge 29, Type (0, 0), BuildingBlock: KIFKEQ_clean_linker_1, # of connection points: 2
#     Edge 30, Type (0, 0), BuildingBlock: KIFKEQ_clean_linker_1, # of connection points: 2
#     Edge 31, Type (0, 0), BuildingBlock: KIFKEQ_clean_linker_1, # of connection points: 2
#     Edge 32, Type (0, 0), BuildingBlock: KIFKEQ_clean_linker_1, # of connection points: 2
#     Edge 33, Type (0, 0), BuildingBlock: KIFKEQ_clean_linker_1, # of connection points: 2
#     Edge 34, Type (0, 0), BuildingBlock: KIFKEQ_clean_linker_1, # of connection points: 2
#     Edge 35, Type (0, 0), BuildingBlock: KIFKEQ_clean_linker_1, # of connection points: 2
#     Edge 36, Type (0, 0), BuildingBlock: KIFKEQ_clean_linker_1, # of connection points: 2
#     Edge 37, Type (0, 0), BuildingBlock: KIFKEQ_clean_linker_1, # of connection points: 2
#     Edge 38, Type (0, 0), BuildingBlock: KIFKEQ_clean_linker_1, # of connection points: 2
#     Edge 39, Type (0, 0), BuildingBlock: KIFKEQ_clean_linker_1, # of connection points: 2
#     Edge 40, Type (0, 0), BuildingBlock: KIFKEQ_clean_linker_1, # of connection points: 2
#     Edge 41, Type (0, 0), BuildingBlock: KIFKEQ_clean_linker_1, # of connection points: 2
#     Edge 42, Type (0, 0), BuildingBlock: KIFKEQ_clean_linker_1, # of connection points: 2
#     Edge 43, Type (0, 0), BuildingBlock: KIFKEQ_clean_linker_1, # of connection points: 2
#     Edge 44, Type (0, 0), BuildingBlock: KIFKEQ_clean_linker_1, # of connection points: 2
#     Edge 45, Type (0, 0), BuildingBlock: KIFKEQ_clean_linker_1, # of connection points: 2
#     Edge 46, Type (0, 0), BuildingBlock: KIFKEQ_clean_linker_1, # of connection points: 2
#     Edge 47, Type (0, 0), BuildingBlock: KIFKEQ_clean_linker_1, # of connection points: 2
#     Edge 48, Type (0, 0), BuildingBlock: KIFKEQ_clean_linker_1, # of connection points: 2
#     Edge 49, Type (0, 0), BuildingBlock: KIFKEQ_clean_linker_1, # of connection points: 2
#     Edge 50, Type (0, 0), BuildingBlock: KIFKEQ_clean_linker_1, # of connection points: 2
#     Edge 51, Type (0, 0), BuildingBlock: KIFKEQ_clean_linker_1, # of connection points: 2
#     Edge 52, Type (0, 0), BuildingBlock: KIFKEQ_clean_linker_1, # of connection points: 2
#     Edge 53, Type (0, 0), BuildingBlock: KIFKEQ_clean_linker_1, # of connection points: 2
#     Edge 54, Type (0, 0), BuildingBlock: KIFKEQ_clean_linker_1, # of connection points: 2
#     Edge 55, Type (0, 0), BuildingBlock: KIFKEQ_clean_linker_1, # of connection points: 2
#     Edge 56, Type (0, 0), BuildingBlock: KIFKEQ_clean_linker_1, # of connection points: 2
#     Edge 57, Type (0, 0), BuildingBlock: KIFKEQ_clean_linker_1, # of connection points: 2
#     Edge 58, Type (0, 0), BuildingBlock: KIFKEQ_clean_linker_1, # of connection points: 2
#     Edge 59, Type (0, 0), BuildingBlock: KIFKEQ_clean_linker_1, # of connection points: 2
#     Edge 60, Type (0, 0), BuildingBlock: KIFKEQ_clean_linker_1, # of connection points: 2
#     Edge 61, Type (0, 0), BuildingBlock: KIFKEQ_clean_linker_1, # of connection points: 2
#     Edge 62, Type (0, 0), BuildingBlock: KIFKEQ_clean_linker_1, # of connection points: 2
#     Edge 63, Type (0, 0), BuildingBlock: KIFKEQ_clean_linker_1, # of connection points: 2
#     Edge 64, Type (0, 0), BuildingBlock: KIFKEQ_clean_linker_1, # of connection points: 2
#     Edge 65, Type (0, 0), BuildingBlock: KIFKEQ_clean_linker_1, # of connection points: 2
#     Edge 66, Type (0, 0), BuildingBlock: KIFKEQ_clean_linker_1, # of connection points: 2
#     Edge 67, Type (0, 0), BuildingBlock: KIFKEQ_clean_linker_1, # of connection points: 2
#     Edge 68, Type (0, 0), BuildingBlock: KIFKEQ_clean_linker_1, # of connection points: 2
#     Edge 69, Type (0, 0), BuildingBlock: KIFKEQ_clean_linker_1, # of connection points: 2
#     Edge 70, Type (0, 0), BuildingBlock: KIFKEQ_clean_linker_1, # of connection points: 2
#     Edge 71, Type (0, 0), BuildingBlock: KIFKEQ_clean_linker_1, # of connection points: 2
# Relax obj value: 0.171
# Max RMSD: 0.184
# Mean RMSD: 0.184
data_MOF--net-nfa--node1-NAWXER_clean_sbu_0--edge1-KIFKEQ_clean_linker_1
_symmetry_space_group_name_H-M    P1
_symmetry_Int_Tables_number       1
_symmetry_cell_setting            triclinic
loop_
_symmetry_equiv_pos_as_xyz
'x, y, z'
_cell_length_a     40.569097
_cell_length_b     40.628463
_cell_length_c     40.602022
_cell_angle_alpha  89.978213
_cell_angle_beta   89.935115
_cell_angle_gamma 90.02594
loop_
_atom_site_label
_atom_site_type_symbol
_atom_site_fract_x
_atom_site_fract_y
_atom_site_fract_z
_atom_type_partial_charge
C0 C 0.16345 0.2896 0.38549 0.0
C1 C 0.13757 0.39648 0.33259 0.0
O2 O 0.16281 0.31434 0.40499 0.0
Zn3 Zn 0.15284 0.3658 0.40431 0.0
O4 O 0.16097 0.29458 0.35459 0.0
Zn5 Zn 0.15261 0.34263 0.357 0.0
O6 O 0.19854 0.36573 0.37013 0.0
O7 O 0.19314 0.38578 0.42031 0.0
O8 O 0.14054 0.36867 0.3184 0.0
O9 O 0.14077 0.39812 0.36399 0.0
O10 O 0.11346 0.36363 0.43217 0.0
O11 O 0.10763 0.33935 0.38394 0.0
C12 C 0.21053 0.38188 0.3945 0.0
C13 C 0.09623 0.34627 0.41252 0.0
C14 C 0.897 0.82239 0.62135 0.0
C15 C 0.80177 0.88816 0.6604 0.0
O16 O 0.89951 0.85361 0.61764 0.0
Zn17 Zn 0.8732 0.8978 0.62802 0.0
O18 O 0.87077 0.81048 0.63401 0.0
Zn19 Zn 0.84826 0.85251 0.64273 0.0
O20 O 0.83726 0.86929 0.59498 0.0
O21 O 0.86284 0.91597 0.58401 0.0
O22 O 0.80351 0.85685 0.66155 0.0
O23 O 0.82638 0.90475 0.64982 0.0
O24 O 0.9037 0.91792 0.65974 0.0
O25 O 0.88082 0.87237 0.67855 0.0
C26 C 0.84277 0.89336 0.57547 0.0
C27 C 0.90106 0.89627 0.68235 0.0
C28 C 0.3228 0.72734 0.88229 0.0
C29 C 0.35394 0.62703 0.82171 0.0
O30 O 0.3307 0.70282 0.90043 0.0
Zn31 Zn 0.34809 0.65379 0.89608 0.0
O32 O 0.32155 0.72368 0.85116 0.0
Zn33 Zn 0.33726 0.67784 0.85038 0.0
O34 O 0.29783 0.64843 0.87021 0.0
O35 O 0.31431 0.62743 0.9175 0.0
O36 O 0.34462 0.65422 0.80916 0.0
O37 O 0.35704 0.6247 0.85305 0.0
O38 O 0.39118 0.66031 0.91644 0.0
O39 O 0.38579 0.68664 0.8692 0.0
C40 C 0.2924 0.62986 0.89521 0.0
C41 C 0.40282 0.67994 0.8949 0.0
C42 C 0.55391 0.10462 0.14081 0.0
C43 C 0.64812 0.13399 0.07034 0.0
O44 O 0.57945 0.11372 0.15689 0.0
Zn45 Zn 0.62775 0.13216 0.147 0.0
O46 O 0.55598 0.10049 0.10978 0.0
Zn47 Zn 0.60123 0.11662 0.10458 0.0
O48 O 0.63385 0.08024 0.12475 0.0
O49 O 0.65758 0.10205 0.16847 0.0
O50 O 0.62064 0.12197 0.0612 0.0
O51 O 0.65303 0.13984 0.101 0.0
O52 O 0.62025 0.17558 0.16561 0.0
O53 O 0.5915 0.16559 0.12054 0.0
C54 C 0.65473 0.07823 0.14838 0.0
C55 C 0.59825 0.18424 0.14502 0.0
C56 C 0.16938 0.57543 0.10123 0.0
C57 C 0.08829 0.66067 0.12828 0.0
O58 O 0.18011 0.59753 0.12098 0.0
Zn59 Zn 0.16229 0.63975 0.14642 0.0
O60 O 0.14032 0.57759 0.08961 0.0
Zn61 Zn 0.12714 0.61699 0.11337 0.0
O62 O 0.15503 0.65616 0.09218 0.0
O63 O 0.1882 0.6774 0.12961 0.0
O64 O 0.08322 0.63651 0.10892 0.0
O65 O 0.11565 0.66268 0.14377 0.0
O66 O 0.16432 0.62293 0.19211 0.0
O67 O 0.12746 0.59717 0.16181 0.0
C68 C 0.17602 0.67813 0.10065 0.0
C69 C 0.14274 0.60027 0.18919 0.0
C70 C 0.59043 0.92501 0.3114 0.0
C71 C 0.66071 0.8973 0.40652 0.0
O72 O 0.61489 0.90619 0.30474 0.0
Zn73 Zn 0.65417 0.88159 0.32943 0.0
O74 O 0.58628 0.93538 0.34075 0.0
Zn75 Zn 0.62338 0.91221 0.36068 0.0
O76 O 0.66532 0.93613 0.3405 0.0
O77 O 0.69434 0.90105 0.31072 0.0
O78 O 0.63512 0.91546 0.40782 0.0
O79 O 0.66837 0.88338 0.37934 0.0
O80 O 0.64113 0.83534 0.32316 0.0
O81 O 0.60619 0.86322 0.35409 0.0
C82 C 0.6909 0.92964 0.3232 0.0
C83 C 0.61409 0.83664 0.33912 0.0
C84 C 0.37743 0.46694 0.60287 0.0
C85 C 0.43176 0.36504 0.64022 0.0
O86 O 0.35751 0.44392 0.61088 0.0
Zn87 Zn 0.35898 0.39509 0.62951 0.0
O88 O 0.40831 0.46129 0.60252 0.0
Zn89 Zn 0.40665 0.4159 0.61916 0.0
O90 O 0.38725 0.38595 0.58075 0.0
O91 O 0.33795 0.36832 0.59532 0.0
O92 O 0.44612 0.39062 0.62903 0.0
O93 O 0.40022 0.36444 0.64233 0.0
O94 O 0.33785 0.40491 0.67184 0.0
O95 O 0.3874 0.42685 0.66651 0.0
C96 C 0.36164 0.36852 0.57472 0.0
C97 C 0.36099 0.42282 0.68326 0.0
C98 C 0.83905 0.12801 0.91362 0.0
C99 C 0.88523 0.09952 0.80529 0.0
O100 O 0.83182 0.14841 0.89072 0.0
Zn101 Zn 0.83836 0.15391 0.83888 0.0
O102 O 0.85788 0.10371 0.90732 0.0
Zn103 Zn 0.8625 0.11208 0.86018 0.0
O104 O 0.89177 0.1557 0.85719 0.0
O105 O 0.86246 0.19572 0.83516 0.0
O106 O 0.88855 0.08348 0.83203 0.0
O107 O 0.86633 0.12481 0.80465 0.0
O108 O 0.79174 0.14932 0.82674 0.0
O109 O 0.81249 0.10348 0.8471 0.0
C110 C 0.8898 0.18535 0.84661 0.0
C111 C 0.78781 0.11965 0.83612 0.0
C112 C 0.37397 0.18292 0.28875 0.0
C113 C 0.28028 0.1758 0.36637 0.0
O114 O 0.37966 0.16685 0.31524 0.0
Zn115 Zn 0.35513 0.15099 0.35846 0.0
O116 O 0.34596 0.1965 0.28469 0.0
Zn117 Zn 0.32525 0.18156 0.32617 0.0
O118 O 0.3494 0.20724 0.3649 0.0
O119 O 0.37883 0.17263 0.39465 0.0
O120 O 0.27966 0.19185 0.33936 0.0
O121 O 0.30612 0.15983 0.37467 0.0
O122 O 0.35521 0.10319 0.35089 0.0
O123 O 0.32291 0.13031 0.31665 0.0
C124 C 0.36776 0.20162 0.38992 0.0
C125 C 0.3353 0.10311 0.32661 0.0
C126 C 0.09209 0.11482 0.53612 0.0
C127 C 0.13697 0.05505 0.63219 0.0
O128 O 0.09792 0.13292 0.56126 0.0
Zn129 Zn 0.11841 0.12865 0.60953 0.0
O130 O 0.09465 0.08365 0.53874 0.0
Zn131 Zn 0.1113 0.08307 0.58432 0.0
O132 O 0.07073 0.09721 0.61553 0.0
O133 O 0.08413 0.14442 0.63877 0.0
O134 O 0.1262 0.04255 0.60554 0.0
O135 O 0.13598 0.08638 0.63593 0.0
O136 O 0.15758 0.15532 0.60041 0.0
O137 O 0.15599 0.10838 0.57317 0.0
C138 C 0.06392 0.1207 0.63555 0.0
C139 C 0.16989 0.13608 0.57889 0.0
C140 C 0.16064 0.91564 0.83634 0.0
C141 C 0.12882 0.85388 0.93653 0.0
O142 O 0.15767 0.88447 0.83202 0.0
Zn143 Zn 0.143 0.8417 0.85984 0.0
O144 O 0.15559 0.92769 0.86488 0.0
Zn145 Zn 0.14247 0.88711 0.88695 0.0
O146 O 0.18698 0.86009 0.88947 0.0
O147 O 0.18208 0.8133 0.8623 0.0
O148 O 0.13259 0.88497 0.93463 0.0
O149 O 0.13008 0.83661 0.91025 0.0
O150 O 0.10337 0.82855 0.83628 0.0
O151 O 0.09782 0.87667 0.86078 0.0
C152 C 0.19867 0.83208 0.88118 0.0
C153 C 0.08626 0.85423 0.84181 0.0
C154 C 0.33925 0.94214 0.14137 0.0
C155 C 0.38626 0.89198 0.04209 0.0
O156 O 0.34405 0.91109 0.14455 0.0
Zn157 Zn 0.36344 0.87133 0.11526 0.0
O158 O 0.34547 0.95589 0.11391 0.0
Zn159 Zn 0.364 0.91809 0.09171 0.0
O160 O 0.32226 0.88801 0.08086 0.0
O161 O 0.32674 0.84088 0.10734 0.0
O162 O 0.38033 0.9224 0.0467 0.0
O163 O 0.38277 0.87173 0.06607 0.0
O164 O 0.40018 0.85811 0.14255 0.0
O165 O 0.40641 0.90803 0.122 0.0
C166 C 0.31153 0.85894 0.08672 0.0
C167 C 0.41667 0.88469 0.14068 0.0
C168 C 0.37987 0.28231 0.15124 0.0
C169 C 0.31531 0.38429 0.15447 0.0
O170 O 0.38949 0.30477 0.13135 0.0
Zn171 Zn 0.37878 0.35414 0.11837 0.0
O172 O 0.35454 0.28697 0.16921 0.0
Zn173 Zn 0.34588 0.33193 0.15411 0.0
O174 O 0.33104 0.32681 0.10424 0.0
O175 O 0.36708 0.35142 0.07175 0.0
O176 O 0.3092 0.35814 0.17066 0.0
O177 O 0.3406 0.38563 0.13563 0.0
O178 O 0.41988 0.37424 0.13414 0.0
O179 O 0.38881 0.3541 0.17399 0.0
C180 C 0.34014 0.33568 0.07536 0.0
C181 C 0.41558 0.36792 0.1646 0.0
C182 C 0.89645 0.89898 0.19611 0.0
C183 C 0.8642 0.82064 0.11004 0.0
O184 O 0.90381 0.90769 0.16675 0.0
Zn185 Zn 0.89664 0.89217 0.11757 0.0
O186 O 0.87963 0.87298 0.2012 0.0
Zn187 Zn 0.87584 0.85963 0.15504 0.0
O188 O 0.92578 0.85155 0.14242 0.0
O189 O 0.94211 0.88512 0.1026 0.0
O190 O 0.8583 0.81682 0.14066 0.0
O191 O 0.87667 0.8477 0.09982 0.0
O192 O 0.86794 0.9266 0.10032 0.0
O193 O 0.84243 0.89528 0.13675 0.0
C194 C 0.94804 0.86152 0.12246 0.0
C195 C 0.84213 0.91967 0.11678 0.0
C196 C 0.10692 0.61335 0.66367 0.0
C197 C 0.17169 0.62777 0.56189 0.0
O198 O 0.12582 0.63864 0.66417 0.0
Zn199 Zn 0.15898 0.66358 0.6312 0.0
O200 O 0.1071 0.59441 0.6387 0.0
Zn201 Zn 0.13805 0.61936 0.6118 0.0
O202 O 0.18504 0.61314 0.63473 0.0
O203 O 0.20247 0.6616 0.65199 0.0
O204 O 0.15121 0.6047 0.56774 0.0
O205 O 0.17497 0.65118 0.5827 0.0
O206 O 0.13519 0.70507 0.62527 0.0
O207 O 0.10885 0.66256 0.60425 0.0
C208 C 0.20759 0.63097 0.64765 0.0
C209 C 0.10972 0.69332 0.6112 0.0
C210 C 0.65139 0.87197 0.97224 0.0
C211 C 0.62409 0.91234 0.86271 0.0
O212 O 0.62573 0.89031 0.97182 0.0
Zn213 Zn 0.5969 0.91614 0.9368 0.0
O214 O 0.66735 0.86691 0.94575 0.0
Zn215 Zn 0.63906 0.89115 0.91632 0.0
O216 O 0.64732 0.94182 0.92726 0.0
O217 O 0.60133 0.96329 0.94668 0.0
O218 O 0.64879 0.89412 0.86936 0.0
O219 O 0.60363 0.92008 0.8854 0.0
O220 O 0.55484 0.89264 0.93954 0.0
O221 O 0.59445 0.86266 0.91749 0.0
C222 C 0.63105 0.96688 0.93717 0.0
C223 C 0.56442 0.86554 0.92699 0.0
C224 C 0.93896 0.09764 0.3305 0.0
C225 C 0.89432 0.18742 0.3969 0.0
O226 O 0.93811 0.0913 0.36142 0.0
Zn227 Zn 0.92135 0.11393 0.4058 0.0
O228 O 0.93007 0.12586 0.32015 0.0
Zn229 Zn 0.91602 0.1435 0.36203 0.0
O230 O 0.96019 0.15138 0.38847 0.0
O231 O 0.9606 0.12084 0.43344 0.0
O232 O 0.89859 0.18803 0.36584 0.0
O233 O 0.90021 0.16106 0.41308 0.0
O234 O 0.88602 0.08311 0.4172 0.0
O235 O 0.87574 0.11126 0.37188 0.0
C236 C 0.97383 0.143 0.41556 0.0
C237 C 0.8675 0.08886 0.39252 0.0
C238 C 0.63439 0.06436 0.62774 0.0
C239 C 0.5507 0.14943 0.6519 0.0
O240 O 0.64543 0.09013 0.64221 0.0
Zn241 Zn 0.62822 0.13562 0.66201 0.0
O242 O 0.60425 0.06335 0.61897 0.0
Zn243 Zn 0.59072 0.10617 0.63713 0.0
O244 O 0.61334 0.14223 0.60794 0.0
O245 O 0.65025 0.17017 0.63636 0.0
O246 O 0.54557 0.12308 0.63562 0.0
O247 O 0.57953 0.15557 0.66314 0.0
O248 O 0.63735 0.127 0.70867 0.0
O249 O 0.59782 0.0963 0.68722 0.0
C250 C 0.63414 0.1658 0.60978 0.0
C251 C 0.6159 0.10424 0.71172 0.0
C252 C 0.14247 0.36511 0.93154 0.0
C253 C 0.03918 0.40208 0.88065 0.0
O254 O 0.14421 0.36851 0.90017 0.0
Zn255 Zn 0.11341 0.38472 0.86045 0.0
O256 O 0.11565 0.37195 0.94635 0.0
Zn257 Zn 0.09077 0.38663 0.90837 0.0
O258 O 0.08368 0.3421 0.88221 0.0
O259 O 0.10658 0.34537 0.83298 0.0
O260 O 0.04389 0.39819 0.91142 0.0
O261 O 0.06349 0.39969 0.86075 0.0
O262 O 0.13689 0.42338 0.84465 0.0
O263 O 0.11677 0.4305 0.89463 0.0
C264 C 0.08916 0.32962 0.85385 0.0
C265 C 0.13366 0.44131 0.87017 0.0
C266 C 0.38582 0.61171 0.43751 0.0
C267 C 0.48936 0.57656 0.38421 0.0
O268 O 0.38537 0.61373 0.406 0.0
Zn269 Zn 0.41685 0.60255 0.36511 0.0
O270 O 0.41192 0.60188 0.45184 0.0
Zn271 Zn 0.43807 0.5924 0.41247 0.0
O272 O 0.45008 0.6392 0.39224 0.0
O273 O 0.42559 0.64548 0.3442 0.0
O274 O 0.48343 0.57629 0.41505 0.0
O275 O 0.46632 0.58406 0.36402 0.0
O276 O 0.39104 0.56804 0.34362 0.0
O277 O 0.4102 0.5528 0.39206 0.0
C278 C 0.44555 0.65606 0.366 0.0
C279 C 0.39287 0.54658 0.36642 0.0
C280 C 0.91378 0.64989 0.93706 0.0
C281 C 0.90102 0.54878 0.87213 0.0
O282 O 0.89652 0.65253 0.91086 0.0
Zn283 Zn 0.87866 0.62413 0.87143 0.0
O284 O 0.92932 0.62319 0.94261 0.0
Zn285 Zn 0.91178 0.59854 0.90459 0.0
O286 O 0.93537 0.61879 0.86205 0.0
O287 O 0.89749 0.64259 0.83118 0.0
O288 O 0.92042 0.5516 0.89664 0.0
O289 O 0.88463 0.57365 0.86203 0.0
O290 O 0.83192 0.62738 0.88241 0.0
O291 O 0.86074 0.59871 0.91867 0.0
C292 C 0.92731 0.63395 0.83559 0.0
C293 C 0.83328 0.61103 0.90919 0.0
C294 C 0.63214 0.69439 0.1366 0.0
C295 C 0.6333 0.57882 0.16794 0.0
O296 O 0.65849 0.68604 0.15179 0.0
Zn297 Zn 0.67952 0.64273 0.17213 0.0
O298 O 0.60944 0.6733 0.13211 0.0
Zn299 Zn 0.63132 0.63594 0.15146 0.0
O300 O 0.63168 0.64532 0.20322 0.0
O301 O 0.68326 0.65002 0.2197 0.0
O302 O 0.60961 0.59333 0.15337 0.0
O303 O 0.65989 0.59446 0.17442 0.0
O304 O 0.71805 0.63718 0.14401 0.0
O305 O 0.67136 0.62776 0.11773 0.0
C306 C 0.65263 0.64881 0.22648 0.0
C307 C 0.70293 0.62947 0.11765 0.0
C308 C 0.60505 0.33964 0.43675 0.0
C309 C 0.63656 0.42512 0.35771 0.0
O310 O 0.6212 0.32984 0.41155 0.0
Zn311 Zn 0.64511 0.3476 0.36941 0.0
O312 O 0.59784 0.37001 0.43984 0.0
Zn313 Zn 0.61972 0.38485 0.39931 0.0
O314 O 0.59154 0.36398 0.36061 0.0
O315 O 0.62061 0.32753 0.33266 0.0
O316 O 0.62012 0.43053 0.38395 0.0
O317 O 0.64725 0.39613 0.35166 0.0
O318 O 0.6909 0.33712 0.38123 0.0
O319 O 0.6693 0.37612 0.41242 0.0
C320 C 0.594 0.34383 0.33649 0.0
C321 C 0.69357 0.35746 0.40499 0.0
C322 C 0.9144 0.32355 0.69488 0.0
C323 C 0.83854 0.35279 0.60525 0.0
O324 O 0.9267 0.3433 0.67353 0.0
Zn325 Zn 0.91184 0.36926 0.63026 0.0
O326 O 0.88607 0.31101 0.68981 0.0
Zn327 Zn 0.87591 0.33586 0.64984 0.0
O328 O 0.90613 0.31636 0.61141 0.0
O329 O 0.94103 0.35486 0.59523 0.0
O330 O 0.83289 0.33268 0.62865 0.0
O331 O 0.86608 0.36823 0.60437 0.0
O332 O 0.91509 0.41365 0.64797 0.0
O333 O 0.87648 0.38349 0.6716 0.0
C334 C 0.92887 0.3262 0.59176 0.0
C335 C 0.89323 0.41017 0.67024 0.0
H336 H 0.17321 0.27289 0.4494 0.0
H337 H 0.14098 0.23164 0.3568 0.0
H338 H 0.1496 0.2264 0.47844 0.0
H339 H 0.119 0.18337 0.38652 0.0
H340 H 0.12376 0.0962 0.47932 0.0
H341 H 0.14264 0.13429 0.43615 0.0
H342 H 0.08338 0.21115 0.47879 0.0
H343 H 0.06402 0.17343 0.52118 0.0
C344 C 0.1622 0.25334 0.43499 0.0
C345 C 0.15887 0.25637 0.40061 0.0
C346 C 0.14864 0.22662 0.4518 0.0
C347 C 0.13237 0.20137 0.43483 0.0
C348 C 0.13146 0.20256 0.4002 0.0
C349 C 0.14436 0.23004 0.3832 0.0
C350 C 0.11322 0.12067 0.47828 0.0
C351 C 0.09219 0.13172 0.50366 0.0
C352 C 0.12437 0.14257 0.45374 0.0
C353 C 0.11465 0.17577 0.45431 0.0
C354 C 0.09119 0.18574 0.47771 0.0
C355 C 0.07993 0.164 0.5019 0.0
H356 H 0.9543 0.93649 0.69604 0.0
H357 H 0.90084 0.85203 0.73278 0.0
H358 H 0.99698 0.92715 0.73777 0.0
H359 H 0.94339 0.84271 0.77377 0.0
H360 H 0.04976 0.81107 0.80455 0.0
H361 H 1.00277 0.82396 0.76911 0.0
H362 H 0.0069 0.92546 0.80011 0.0
H363 H 0.05356 0.91267 0.83575 0.0
C364 C 0.95128 0.91639 0.71331 0.0
C365 C 0.92417 0.89495 0.7108 0.0
C366 C 0.97576 0.91098 0.73717 0.0
C367 C 0.97376 0.88386 0.75873 0.0
C368 C 0.94593 0.86344 0.75717 0.0
C369 C 0.92141 0.86902 0.73371 0.0
C370 C 0.04035 0.83601 0.8042 0.0
C371 C 0.0554 0.86072 0.82315 0.0
C372 C 0.01342 0.84342 0.78391 0.0
C373 C 1.00122 0.8758 0.78171 0.0
C374 C 0.0159 0.90038 0.80105 0.0
C375 C 0.04247 0.89289 0.82171 0.0
H376 H 0.41568 0.83505 0.0232 0.0
H377 H 0.35657 0.9152 0.98609 0.0
H378 H 0.39784 0.80074 0.97732 0.0
H379 H 0.33896 0.88064 0.93978 0.0
H380 H 0.3425 0.78664 0.85565 0.0
H381 H 0.36314 0.83386 0.88766 0.0
H382 H 0.32948 0.78751 0.977 0.0
H383 H 0.30759 0.7416 0.94551 0.0
C384 C 0.40013 0.84587 0.00441 0.0
C385 C 0.38732 0.87774 0.0085 0.0
C386 C 0.38971 0.82613 0.97828 0.0
C387 C 0.36641 0.83787 0.95558 0.0
C388 C 0.35675 0.871 0.95715 0.0
C389 C 0.36716 0.89087 0.98349 0.0
C390 C 0.33799 0.7874 0.88193 0.0
C391 C 0.32359 0.76024 0.89808 0.0
C392 C 0.35023 0.81418 0.90023 0.0
C393 C 0.34845 0.8138 0.93479 0.0
C394 C 0.33138 0.78816 0.95042 0.0
C395 C 0.31867 0.76198 0.9323 0.0
H396 H 0.44027 0.18543 0.29487 0.0
H397 H 0.36352 0.17216 0.22274 0.0
H398 H 0.48093 0.16521 0.25581 0.0
H399 H 0.40422 0.15058 0.18355 0.0
H400 H 0.49771 0.13263 0.11632 0.0
H401 H 0.45282 0.15625 0.149 0.0
H402 H 0.49378 0.11184 0.23652 0.0
H403 H 0.53882 0.08927 0.20406 0.0
C404 C 0.43223 0.17884 0.2703 0.0
C405 C 0.3987 0.18032 0.26194 0.0
C406 C 0.45545 0.16664 0.24802 0.0
C407 C 0.44577 0.15488 0.21688 0.0
C408 C 0.4126 0.15902 0.2074 0.0
C409 C 0.38927 0.17169 0.22975 0.0
C410 C 0.49634 0.12688 0.14234 0.0
C411 C 0.52168 0.10876 0.15757 0.0
C412 C 0.47081 0.14084 0.16119 0.0
C413 C 0.47013 0.13695 0.19566 0.0
C414 C 0.49404 0.11647 0.21026 0.0
C415 C 0.51955 0.10284 0.19155 0.0
H416 H 0.09625 0.79826 0.9533 0.0
H417 H 0.16949 0.86628 0.98916 0.0
H418 H 0.11276 0.75833 0.99481 0.0
H419 H 0.18649 0.82587 0.0309 0.0
H420 H 0.18257 0.74357 0.11727 0.0
H421 H 0.1704 0.79068 0.08123 0.0
H422 H 0.16333 0.72485 0.99815 0.0
H423 H 0.17492 0.67822 0.03393 0.0
C424 C 0.11515 0.80512 0.97085 0.0
C425 C 0.13119 0.83563 0.96814 0.0
C426 C 0.12508 0.78199 0.99431 0.0
C427 C 0.15161 0.78848 0.01565 0.0
C428 C 0.16604 0.82002 0.0148 0.0
C429 C 0.15598 0.84337 0.99117 0.0
C430 C 0.17962 0.73939 0.09109 0.0
C431 C 0.17966 0.70709 0.07848 0.0
C432 C 0.1723 0.76636 0.07049 0.0
C433 C 0.16481 0.76144 0.03698 0.0
C434 C 0.16789 0.72946 0.02403 0.0
C435 C 0.17504 0.70272 0.04447 0.0
H436 H 0.52369 0.92715 0.31995 0.0
H437 H 0.59935 0.92905 0.24517 0.0
H438 H 0.48186 0.91855 0.27729 0.0
H439 H 0.55757 0.92101 0.20258 0.0
H440 H 0.46423 0.9322 0.13554 0.0
H441 H 0.50564 0.94731 0.17664 0.0
H442 H 0.47255 0.86793 0.23911 0.0
H443 H 0.43146 0.85246 0.19793 0.0
C444 C 0.53123 0.92692 0.29435 0.0
C445 C 0.56475 0.92894 0.28586 0.0
C446 C 0.50738 0.92152 0.26999 0.0
C447 C 0.51655 0.91867 0.23667 0.0
C448 C 0.54978 0.9231 0.22803 0.0
C449 C 0.57366 0.92784 0.25239 0.0
C450 C 0.4661 0.91766 0.15783 0.0
C451 C 0.44465 0.89098 0.16335 0.0
C452 C 0.48972 0.92643 0.18139 0.0
C453 C 0.49197 0.90912 0.21127 0.0
C454 C 0.47099 0.88206 0.21653 0.0
C455 C 0.44778 0.87292 0.19273 0.0
H456 H 0.30984 0.33619 0.54491 0.0
H457 H 0.41558 0.34822 0.54048 0.0
H458 H 0.31295 0.29608 0.49976 0.0
H459 H 0.41857 0.30792 0.49616 0.0
H460 H 0.40775 0.20361 0.44507 0.0
H461 H 0.40633 0.2446 0.48959 0.0
H462 H 0.33074 0.29837 0.43784 0.0
H463 H 0.33252 0.25842 0.39341 0.0
C464 C 0.33363 0.33045 0.53425 0.0
C465 C 0.36235 0.3457 0.54611 0.0
C466 C 0.33545 0.30749 0.50848 0.0
C467 C 0.36608 0.29878 0.4946 0.0
C468 C 0.39471 0.31392 0.50655 0.0
C469 C 0.39286 0.33729 0.53174 0.0
C470 C 0.39125 0.22445 0.44299 0.0
C471 C 0.37049 0.22773 0.41548 0.0
C472 C 0.39034 0.24783 0.46849 0.0
C473 C 0.36813 0.27447 0.46728 0.0
C474 C 0.34779 0.27792 0.43964 0.0
C475 C 0.34915 0.25509 0.41399 0.0
H476 H 0.05516 0.14854 0.69612 0.0
H477 H 0.00731 0.08531 0.62529 0.0
H478 H 0.0105 0.13822 0.73535 0.0
H479 H 0.96204 0.07589 0.66441 0.0
H480 H 0.87515 0.11457 0.74042 0.0
H481 H 0.91714 0.11807 0.69705 0.0
H482 H 0.98968 0.07914 0.76407 0.0
H483 H 0.94764 0.07462 0.80715 0.0
C484 C 0.03483 0.13295 0.68868 0.0
C485 C 0.03475 0.11784 0.65752 0.0
C486 C 0.00946 0.1268 0.71127 0.0
C487 C 0.98305 0.10602 0.70296 0.0
C488 C 0.9822 0.0919 0.67141 0.0
C489 C 0.00803 0.0974 0.64906 0.0
C490 C 0.89981 0.10575 0.74556 0.0
C491 C 0.908 0.09412 0.77717 0.0
C492 C 0.92382 0.10791 0.72079 0.0
C493 C 0.95665 0.09925 0.72741 0.0
C494 C 0.96454 0.08616 0.75846 0.0
C495 C 0.94038 0.08323 0.78297 0.0
H496 H 0.23412 0.56738 0.08602 0.0
H497 H 0.14716 0.51463 0.11653 0.0
H498 H 0.26796 0.51962 0.09895 0.0
H499 H 0.18085 0.46771 0.1323 0.0
H500 H 0.24995 0.37916 0.14131 0.0
H501 H 0.21357 0.42314 0.12281 0.0
H502 H 0.29028 0.49433 0.14349 0.0
H503 H 0.32708 0.44979 0.15922 0.0
C504 C 0.22224 0.54514 0.0948 0.0
C505 C 0.18805 0.54439 0.09965 0.0
C506 C 0.24167 0.51795 0.10309 0.0
C507 C 0.22753 0.48977 0.11776 0.0
C508 C 0.19292 0.48856 0.1209 0.0
C509 C 0.17342 0.51545 0.11162 0.0
C510 C 0.25858 0.40437 0.14259 0.0
C511 C 0.29111 0.41122 0.15207 0.0
C512 C 0.23779 0.42972 0.13178 0.0
C513 C 0.2489 0.46262 0.13087 0.0
C514 C 0.28096 0.4694 0.14248 0.0
C515 C 0.30196 0.44396 0.15231 0.0
H516 H 0.75683 0.06578 0.81032 0.0
H517 H 0.74755 0.14151 0.88404 0.0
H518 H 0.71169 0.035 0.83646 0.0
H519 H 0.70347 0.11013 0.91101 0.0
H520 H 0.68042 1.00314 0.9655 0.0
H521 H 0.71207 0.04709 0.93832 0.0
H522 H 0.64581 0.0434 0.8554 0.0
H523 H 0.61348 1.00066 0.8832 0.0
C524 C 0.74416 0.07647 0.83124 0.0
C525 C 0.75487 0.10655 0.84446 0.0
C526 C 0.71858 0.05877 0.84639 0.0
C527 C 0.70409 0.07024 0.87574 0.0
C528 C 0.71403 0.10086 0.88831 0.0
C529 C 0.73889 0.11901 0.87259 0.0
C530 C 0.67172 0.01298 0.94229 0.0
C531 C 0.6439 0.99934 0.92696 0.0
C532 C 0.68994 0.03787 0.92658 0.0
C533 C 0.68134 0.04861 0.89474 0.0
C534 C 0.65284 0.03575 0.87997 0.0
C535 C 0.63413 0.01163 0.89609 0.0
H536 H 0.85385 0.02653 0.41547 0.0
H537 H 0.81847 0.10126 0.34861 0.0
H538 H 0.81255 0.98809 0.39397 0.0
H539 H 0.77787 0.06297 0.32695 0.0
H540 H 0.68551 0.99601 0.32626 0.0
H541 H 0.72777 0.03485 0.34346 0.0
H542 H 0.80017 0.95695 0.34221 0.0
H543 H 0.75741 0.91779 0.32517 0.0
C544 C 0.83695 0.03494 0.39664 0.0
C545 C 0.83936 0.06707 0.38396 0.0
C546 C 0.81367 0.01276 0.3839 0.0
C547 C 0.79214 0.02232 0.35843 0.0
C548 C 0.79393 0.05477 0.3466 0.0
C549 C 0.81722 0.07678 0.35913 0.0
C550 C 0.71065 0.98734 0.32871 0.0
C551 C 0.71816 0.95388 0.32411 0.0
C552 C 0.73489 0.0096 0.33873 0.0
C553 C 0.76729 0.99896 0.34471 0.0
C554 C 0.77529 0.96582 0.33836 0.0
C555 C 0.75098 0.94351 0.32797 0.0
H556 H 0.71572 0.07764 0.17684 0.0
H557 H 0.6502 0.01881 0.11714 0.0
H558 H 0.76028 0.03854 0.16642 0.0
H559 H 0.69476 0.97952 0.10715 0.0
H560 H 0.77882 0.9026 0.13073 0.0
H561 H 0.73199 0.93934 0.13965 0.0
H562 H 0.79256 0.02262 0.11314 0.0
H563 H 0.83946 0.98574 0.10374 0.0
C564 C 0.71057 0.05598 0.16217 0.0
C565 C 0.67936 0.05131 0.14788 0.0
C566 C 0.73624 0.03386 0.15583 0.0
C567 C 0.73108 0.00631 0.13555 0.0
C568 C 0.69943 1.00062 0.12278 0.0
C569 C 0.67391 0.02303 0.12864 0.0
C570 C 0.78198 0.92869 0.1262 0.0
C571 C 0.81279 0.94131 0.11647 0.0
C572 C 0.75518 0.94969 0.13136 0.0
C573 C 0.75879 0.98383 0.12752 0.0
C574 C 0.78926 0.99639 0.1167 0.0
C575 C 0.81596 0.97529 0.11092 0.0
H576 H 0.25386 0.64376 0.60213 0.0
H577 H 0.23509 0.5848 0.68839 0.0
H578 H 0.30199 0.60979 0.58902 0.0
H579 H 0.28425 0.5516 0.67617 0.0
H580 H 0.38681 0.51023 0.65202 0.0
H581 H 0.35075 0.55656 0.66598 0.0
H582 H 0.29974 0.54452 0.5736 0.0
H583 H 0.33493 0.49716 0.56039 0.0
C584 C 0.26109 0.62459 0.61922 0.0
C585 C 0.24136 0.61749 0.64684 0.0
C586 C 0.28837 0.60491 0.61147 0.0
C587 C 0.29693 0.57816 0.63162 0.0
C588 C 0.27844 0.57235 0.66044 0.0
C589 C 0.2505 0.59145 0.66763 0.0
C590 C 0.3689 0.51848 0.63403 0.0
C591 C 0.3643 0.50077 0.60463 0.0
C592 C 0.34796 0.54466 0.64227 0.0
C593 C 0.32249 0.55415 0.62088 0.0
C594 C 0.31942 0.53796 0.59038 0.0
C595 C 0.33973 0.5111 0.58262 0.0
H596 H 0.24493 0.4171 0.44083 0.0
H597 H 0.24753 0.38821 0.33846 0.0
H598 H 0.29236 0.45294 0.43169 0.0
H599 H 0.29497 0.42401 0.32942 0.0
H600 H 0.39217 0.49697 0.41174 0.0
H601 H 0.35168 0.45322 0.41777 0.0
H602 H 0.30417 0.48468 0.32805 0.0
H603 H 0.34491 0.52869 0.32184 0.0
C604 C 0.25595 0.4179 0.41654 0.0
C605 C 0.24231 0.39973 0.39043 0.0
C606 C 0.28321 0.43843 0.41128 0.0
C607 C 0.29737 0.44151 0.37973 0.0
C608 C 0.28444 0.4225 0.3539 0.0
C609 C 0.25739 0.40174 0.35921 0.0
C610 C 0.37346 0.49434 0.39291 0.0
C611 C 0.37174 0.51662 0.36637 0.0
C612 C 0.35007 0.46932 0.39656 0.0
C613 C 0.32441 0.46568 0.37368 0.0
C614 C 0.32372 0.48671 0.34608 0.0
C615 C 0.34709 0.51196 0.3425 0.0
H616 H 0.27431 0.58351 0.94124 0.0
H617 H 0.24505 0.62481 0.84764 0.0
H618 H 0.23238 0.54073 0.93526 0.0
H619 H 0.20327 0.58218 0.84181 0.0
H620 H 0.13805 0.48079 0.92452 0.0
H621 H 0.17232 0.52947 0.93213 0.0
H622 H 0.20543 0.52209 0.83132 0.0
H623 H 0.17103 0.47332 0.82356 0.0
C624 C 0.25853 0.58392 0.91975 0.0
C625 C 0.26326 0.60758 0.89489 0.0
C626 C 0.23446 0.55938 0.9163 0.0
C627 C 0.21473 0.55778 0.88783 0.0
C628 C 0.21841 0.58236 0.86376 0.0
C629 C 0.24224 0.607 0.86731 0.0
C630 C 0.15229 0.48971 0.90378 0.0
C631 C 0.15178 0.473 0.87339 0.0
C632 C 0.17213 0.51755 0.90827 0.0
C633 C 0.19175 0.52961 0.88243 0.0
C634 C 0.19038 0.51362 0.85168 0.0
C635 C 0.17073 0.48558 0.84725 0.0
H636 H 0.68071 0.81177 0.975 0.0
H637 H 0.63366 0.88556 0.0356 0.0
H638 H 0.67523 0.7719 0.01979 0.0
H639 H 0.62894 0.84558 0.08059 0.0
H640 H 0.66795 0.74948 0.15081 0.0
H641 H 0.677 0.79686 0.11443 0.0
H642 H 0.60635 0.75747 0.04567 0.0
H643 H 0.59661 0.7105 0.08207 0.0
C644 C 0.67042 0.81986 0.99826 0.0
C645 C 0.65742 0.85171 1.00176 0.0
C646 C 0.66703 0.79698 0.0237 0.0
C647 C 0.65129 0.80583 0.05317 0.0
C648 C 0.64104 0.83838 0.05791 0.0
C649 C 0.64389 0.86116 0.03226 0.0
C650 C 0.65366 0.75143 0.12837 0.0
C651 C 0.6316 0.72628 0.11922 0.0
C652 C 0.65899 0.77838 0.10762 0.0
C653 C 0.64271 0.78021 0.07729 0.0
C654 C 0.61931 0.7562 0.06897 0.0
C655 C 0.61352 0.72958 0.08993 0.0
H656 H 0.59299 0.31601 0.27409 0.0
H657 H 0.53481 0.37417 0.34166 0.0
H658 H 0.55077 0.32416 0.23147 0.0
H659 H 0.49436 0.38363 0.2994 0.0
H660 H 0.40965 0.366 0.23093 0.0
H661 H 0.45248 0.35716 0.27113 0.0
H662 H 0.52645 0.36542 0.19486 0.0
H663 H 0.48269 0.37277 0.15376 0.0
C664 C 0.57115 0.33015 0.27999 0.0
C665 C 0.56728 0.34416 0.31145 0.0
C666 C 0.54722 0.33531 0.25543 0.0
C667 C 0.51906 0.35465 0.26187 0.0
C668 C 0.51525 0.36812 0.2935 0.0
C669 C 0.53872 0.36272 0.31788 0.0
C670 C 0.43504 0.36651 0.22261 0.0
C671 C 0.44266 0.37033 0.18905 0.0
C672 C 0.45977 0.36143 0.24582 0.0
C673 C 0.49312 0.36051 0.23641 0.0
C674 C 0.50101 0.36553 0.20295 0.0
C675 C 0.476 0.37041 0.17948 0.0
H676 H 0.92234 0.26026 0.58368 0.0
H677 H 0.94456 0.34954 0.53039 0.0
H678 H 0.91258 0.23175 0.53192 0.0
H679 H 0.93412 0.32102 0.47828 0.0
H680 H 0.93541 0.23978 0.39285 0.0
H681 H 0.94945 0.27545 0.43932 0.0
H682 H 0.86624 0.23689 0.49347 0.0
H683 H 0.85308 0.20063 0.44751 0.0
C684 C 0.92601 0.27356 0.56082 0.0
C685 C 0.934 0.30717 0.56115 0.0
C686 C 0.91988 0.2574 0.53116 0.0
C687 C 0.9213 0.27451 0.50108 0.0
C688 C 0.93241 0.3073 0.50109 0.0
C689 C 0.93875 0.32352 0.53093 0.0
C690 C 0.91913 0.24029 0.41402 0.0
C691 C 0.89286 0.21779 0.41649 0.0
C692 C 0.9275 0.26033 0.44086 0.0
C693 C 0.90956 0.25823 0.47043 0.0
C694 C 0.88116 0.23833 0.47138 0.0
C695 C 0.87308 0.21813 0.4448 0.0
H696 H 0.92078 0.60823 0.77452 0.0
H697 H 0.98928 0.65998 0.83668 0.0
H698 H 0.96386 0.59924 0.73398 0.0
H699 H 0.03201 0.65429 0.79494 0.0
H700 H 0.11358 0.61769 0.7304 0.0
H701 H 0.06984 0.62252 0.77118 0.0
H702 H 0.99731 0.6141 0.69335 0.0
H703 H 0.04133 0.60598 0.65371 0.0
C704 C 0.9449 0.61887 0.7788 0.0
C705 C 0.95159 0.63526 0.80844 0.0
C706 C 0.96988 0.61374 0.75547 0.0
C707 C 1.00216 0.62572 0.76068 0.0
C708 C 0.00814 0.64356 0.78997 0.0
C709 C 0.98341 0.64759 0.8138 0.0
C710 C 0.08817 0.61588 0.72241 0.0
C711 C 0.08084 0.61075 0.68907 0.0
C712 C 0.06285 0.6194 0.74569 0.0
C713 C 0.02937 0.61938 0.73606 0.0
C714 C 0.02233 0.61368 0.70246 0.0
C715 C 0.04768 0.60895 0.67945 0.0
H716 H 0.59952 0.27415 0.42984 0.0
H717 H 0.60307 0.3504 0.50377 0.0
H718 H 0.60949 0.23297 0.47119 0.0
H719 H 0.61086 0.3083 0.54649 0.0
H720 H 0.66297 0.22762 0.60772 0.0
H721 H 0.65193 0.27097 0.56707 0.0
H722 H 0.58832 0.20405 0.51397 0.0
H723 H 0.60134 0.16097 0.55212 0.0
C724 C 0.60122 0.28199 0.4553 0.0
C725 C 0.60052 0.31552 0.46353 0.0
C726 C 0.60692 0.25824 0.47922 0.0
C727 C 0.61122 0.26713 0.5124 0.0
C728 C 0.60832 0.30061 0.52109 0.0
C729 C 0.60306 0.32467 0.49679 0.0
C730 C 0.64749 0.22208 0.58673 0.0
C731 C 0.63332 0.1907 0.58312 0.0
C732 C 0.64056 0.24708 0.56382 0.0
C733 C 0.61904 0.24119 0.53718 0.0
C734 C 0.60552 0.20959 0.53357 0.0
C735 C 0.61298 0.18469 0.55575 0.0
H736 H 0.99408 0.35466 0.89447 0.0
H737 H 0.01324 0.43685 0.83 0.0
H738 H 0.95865 0.32991 0.85242 0.0
H739 H 0.97787 0.41223 0.78815 0.0
H740 H 0.97887 0.33239 0.70985 0.0
H741 H 1.00023 0.35414 0.76148 0.0
H742 H 0.90522 0.34055 0.80717 0.0
H743 H 0.88341 0.31888 0.75499 0.0
C744 C 0.98899 0.36851 0.87225 0.0
C745 C 0.0064 0.39777 0.86555 0.0
C746 C 0.96914 0.354 0.84793 0.0
C747 C 0.96638 0.36872 0.81676 0.0
C748 C 0.98013 0.4001 0.81182 0.0
C749 C 0.99989 0.41452 0.836 0.0
C750 C 0.96274 0.33292 0.73113 0.0
C751 C 0.9294 0.32404 0.72818 0.0
C752 C 0.97485 0.34584 0.76056 0.0
C753 C 0.95405 0.34996 0.7879 0.0
C754 C 0.9216 0.33798 0.78625 0.0
C755 C 0.90932 0.32512 0.75652 0.0
H756 H 0.94004 0.65375 1.00024 0.0
H757 H 0.8743 0.70332 0.93274 0.0
H758 H 0.92444 0.69317 0.04347 0.0
H759 H 0.85714 0.73998 0.97554 0.0
H760 H 0.85994 0.82576 0.04408 0.0
H761 H 0.87446 0.78486 0.00382 0.0
H762 H 0.88165 0.71135 0.08058 0.0
H763 H 0.86907 0.75381 0.12179 0.0
C764 C 0.92262 0.6731 0.9945 0.0
C765 C 0.90894 0.67553 0.96276 0.0
C766 C 0.91317 0.69531 0.01941 0.0
C767 C 0.88951 0.72001 0.01314 0.0
C768 C 0.87603 0.7221 0.98138 0.0
C769 C 0.88595 0.70072 0.9566 0.0
C770 C 0.86392 0.80075 0.05247 0.0
C771 C 0.86324 0.7931 0.08619 0.0
C772 C 0.87225 0.77705 0.02922 0.0
C773 C 0.87939 0.74452 0.03871 0.0
C774 C 0.87687 0.73625 0.07236 0.0
C775 C 0.86891 0.76036 0.09593 0.0
H776 H 0.51319 0.5478 0.32857 0.0
H777 H 0.54071 0.61182 0.40867 0.0
H778 H 0.56155 0.56609 0.29736 0.0
H779 H 0.58842 0.63106 0.37679 0.0
H780 H 0.60672 0.68279 0.26184 0.0
H781 H 0.5746 0.66103 0.30831 0.0
H782 H 0.6357 0.57425 0.30978 0.0
H783 H 0.66876 0.59671 0.26439 0.0
C784 C 0.5304 0.56462 0.3401 0.0
C785 C 0.52347 0.5779 0.37131 0.0
C786 C 0.55792 0.57526 0.32216 0.0
C787 C 0.57864 0.5999 0.33477 0.0
C788 C 0.57296 0.61179 0.36674 0.0
C789 C 0.54588 0.60047 0.38509 0.0
C790 C 0.61437 0.65996 0.27332 0.0
C791 C 0.64082 0.64192 0.2602 0.0
C792 C 0.59588 0.64739 0.29968 0.0
C793 C 0.60285 0.61605 0.31261 0.0
C794 C 0.63017 0.59864 0.30052 0.0
C795 C 0.64928 0.61168 0.27483 0.0
H796 H 0.74209 0.87492 0.63215 0.0
H797 H 0.79229 0.94425 0.69484 0.0
H798 H 0.69849 0.91555 0.62206 0.0
H799 H 0.74858 0.98431 0.68583 0.0
H800 H 0.70116 0.06319 0.62617 0.0
H801 H 0.73721 0.01691 0.63759 0.0
H802 H 0.65297 0.95201 0.64165 0.0
H803 H 0.61659 0.99881 0.62948 0.0
C804 C 0.74292 0.89822 0.6451 0.0
C805 C 0.77044 0.90635 0.66452 0.0
C806 C 0.71813 0.92167 0.63902 0.0
C807 C 0.72048 0.95361 0.65233 0.0
C808 C 0.74644 0.96036 0.67431 0.0
C809 C 0.77122 0.93719 0.68005 0.0
C810 C 0.69028 0.03897 0.62884 0.0
C811 C 0.65596 0.03478 0.62694 0.0
C812 C 0.71095 0.01242 0.63589 0.0
C813 C 0.69798 0.9808 0.64162 0.0
C814 C 0.6638 0.97605 0.63763 0.0
C815 C 0.64297 1.00281 0.63037 0.0
H816 H 0.09628 0.55185 0.18946 0.0
H817 H 0.17843 0.58875 0.24613 0.0
H818 H 0.09283 0.50397 0.22507 0.0
H819 H 0.17483 0.54033 0.2821 0.0
H820 H 0.14058 0.45994 0.35513 0.0
H821 H 0.13975 0.5108 0.32318 0.0
H822 H 0.12678 0.45452 0.23398 0.0
H823 H 0.12754 0.40354 0.26592 0.0
C824 C 0.11341 0.55005 0.20982 0.0
C825 C 0.13778 0.5743 0.21474 0.0
C826 C 0.11155 0.52231 0.23012 0.0
C827 C 0.13382 0.51794 0.25619 0.0
C828 C 0.1572 0.54293 0.26227 0.0
C829 C 0.15923 0.57076 0.2417 0.0
C830 C 0.13718 0.45832 0.32872 0.0
C831 C 0.13398 0.42747 0.31316 0.0
C832 C 0.13701 0.48758 0.31038 0.0
C833 C 0.13328 0.48687 0.27599 0.0
C834 C 0.12937 0.45607 0.26048 0.0
C835 C 0.12985 0.42676 0.27879 0.0
H836 H 0.81697 0.84264 0.54153 0.0
H837 H 0.81842 0.9488 0.54452 0.0
H838 H 0.77154 0.84389 0.50317 0.0
H839 H 0.77311 0.95027 0.50433 0.0
H840 H 0.66734 0.93749 0.46128 0.0
H841 H 0.71384 0.93831 0.50006 0.0
H842 H 0.75721 0.85559 0.4491 0.0
H843 H 0.71079 0.85377 0.41215 0.0
C844 C 0.80817 0.86639 0.53313 0.0
C845 C 0.82152 0.89562 0.5459 0.0
C846 C 0.78196 0.86713 0.51103 0.0
C847 C 0.76837 0.89719 0.50058 0.0
C848 C 0.78264 0.92666 0.5122 0.0
C849 C 0.80905 0.92588 0.53465 0.0
C850 C 0.68645 0.91902 0.45904 0.0
C851 C 0.6851 0.8954 0.43375 0.0
C852 C 0.71341 0.91985 0.48084 0.0
C853 C 0.7395 0.89711 0.47771 0.0
C854 C 0.73754 0.87322 0.45277 0.0
C855 C 0.71074 0.87222 0.4314 0.0
H856 H 0.38126 0.56862 0.84002 0.0
H857 H 0.33222 0.61606 0.75842 0.0
H858 H 0.37976 0.51643 0.81078 0.0
H859 H 0.33113 0.56356 0.7288 0.0
H860 H 0.30602 0.45869 0.6977 0.0
H861 H 0.30429 0.50844 0.73179 0.0
H862 H 0.40438 0.49015 0.763 0.0
H863 H 0.40591 0.44072 0.72909 0.0
C864 C 0.37055 0.56805 0.8156 0.0
C865 C 0.35702 0.59667 0.80153 0.0
C866 C 0.36966 0.53803 0.79884 0.0
C867 C 0.35507 0.53567 0.76756 0.0
C868 C 0.34208 0.5644 0.75311 0.0
C869 C 0.34315 0.5946 0.76986 0.0
C870 C 0.32708 0.4646 0.71297 0.0
C871 C 0.3559 0.44551 0.71123 0.0
C872 C 0.32638 0.49348 0.73193 0.0
C873 C 0.35435 0.50353 0.74982 0.0
C874 C 0.38233 0.48312 0.74972 0.0
C875 C 0.38315 0.4546 0.73051 0.0
H876 H 0.81184 0.07637 0.9467 0.0
H877 H 0.81775 0.1824 0.94628 0.0
H878 H 0.76536 0.07913 0.98515 0.0
H879 H 0.77176 0.18516 0.98518 0.0
H880 H 0.70435 0.17025 0.07771 0.0
H881 H 0.754 0.16863 0.04356 0.0
H882 H 0.70605 0.10097 0.97715 0.0
H883 H 0.65619 0.10281 0.01106 0.0
C884 C 0.80412 0.10018 0.95588 0.0
C885 C 0.81873 0.12916 0.94385 0.0
C886 C 0.77713 0.10179 0.97741 0.0
C887 C 0.76468 0.13239 0.98783 0.0
C888 C 0.78082 0.16125 0.97762 0.0
C889 C 0.80732 0.15966 0.95558 0.0
C890 C 0.7042 0.15542 0.05555 0.0
C891 C 0.67622 0.1368 0.04703 0.0
C892 C 0.73269 0.15442 0.03607 0.0
C893 C 0.73407 0.13432 0.00796 0.0
C894 C 0.70587 0.11629 0.99898 0.0
C895 C 0.67716 0.11771 0.01816 0.0
H896 H 0.27158 0.22582 0.40931 0.0
H897 H 0.2344 0.13021 0.3825 0.0
H898 H 0.24708 0.22018 0.46411 0.0
H899 H 0.2087 0.12486 0.43659 0.0
H900 H 0.21175 0.09918 0.54231 0.0
H901 H 0.23377 0.11367 0.48862 0.0
H902 H 0.2016 0.21401 0.5023 0.0
H903 H 0.17888 0.19922 0.55623 0.0
C904 C 0.25653 0.2044 0.41458 0.0
C905 C 0.25437 0.17864 0.39156 0.0
C906 C 0.24284 0.20095 0.44615 0.0
C907 C 0.22687 0.17156 0.45523 0.0
C908 C 0.22183 0.14736 0.43087 0.0
C909 C 0.23582 0.15068 0.39955 0.0
C910 C 0.21011 0.12457 0.53429 0.0
C911 C 0.19334 0.14795 0.55351 0.0
C912 C 0.22211 0.13277 0.50313 0.0
C913 C 0.21781 0.16462 0.49026 0.0
C914 C 0.20433 0.18898 0.51095 0.0
C915 C 0.19195 0.18067 0.54221 0.0
H916 H 0.1297 0.98818 0.63951 0.0
H917 H 0.16747 0.07426 0.6891 0.0
H918 H 0.14019 0.95535 0.68866 0.0
H919 H 0.17896 0.04133 0.73786 0.0
H920 H 0.15158 0.9825 0.83167 0.0
H921 H 0.15021 0.01571 0.78167 0.0
H922 H 0.17915 0.93086 0.7244 0.0
H923 H 0.17947 0.89753 0.77424 0.0
C924 C 0.14089 0.99998 0.66064 0.0
C925 C 0.14756 0.03394 0.66029 0.0
C926 C 0.14705 0.98111 0.68892 0.0
C927 C 0.16026 0.99561 0.71759 0.0
C928 C 0.16816 0.02933 0.71665 0.0
C929 C 0.16181 0.04821 0.68848 0.0
C930 C 0.15824 0.97107 0.8085 0.0
C931 C 0.16548 0.93726 0.80707 0.0
C932 C 0.1575 0.99016 0.77969 0.0
C933 C 0.16421 0.97602 0.74868 0.0
C934 C 0.17308 0.94256 0.74759 0.0
C935 C 0.17359 0.92345 0.77632 0.0
H936 H 0.26561 0.89249 0.05195 0.0
H937 H 0.30487 0.79469 0.06579 0.0
H938 H 0.24247 0.87584 0.99932 0.0
H939 H 0.2805 0.77772 0.01297 0.0
H940 H 0.25763 0.86024 0.89375 0.0
H941 H 0.28238 0.85957 0.94835 0.0
H942 H 0.22085 0.77756 0.97589 0.0
H943 H 0.19561 0.77845 0.92102 0.0
C944 C 0.26827 0.86706 0.04435 0.0
C945 C 0.28753 0.8451 0.06289 0.0
C946 C 0.25533 0.85764 0.014 0.0
C947 C 0.26091 0.8259 1.00156 0.0
C948 C 0.27652 0.80257 0.02177 0.0
C949 C 0.29002 0.81218 0.05221 0.0
C950 C 0.25084 0.84074 0.91066 0.0
C951 C 0.22475 0.81941 0.90302 0.0
C952 C 0.26456 0.84074 0.94216 0.0
C953 C 0.25283 0.81911 0.96653 0.0
C954 C 0.23016 0.7946 0.95758 0.0
C955 C 0.21619 0.79473 0.92592 0.0
H956 H 0.37229 0.04635 0.32251 0.0
H957 H 0.28486 0.09309 0.28393 0.0
H958 H 0.36826 0.0041 0.27959 0.0
H959 H 0.28088 0.05114 0.24144 0.0
H960 H 0.32141 0.00712 0.1436 0.0
H961 H 0.31605 0.04184 0.19228 0.0
H962 H 0.33482 0.9579 0.25473 0.0
H963 H 0.34017 0.92304 0.20601 0.0
C964 C 0.35171 0.04708 0.30555 0.0
C965 C 0.32915 0.07329 0.30643 0.0
C966 C 0.34943 0.02294 0.28089 0.0
C967 C 0.32458 0.02467 0.25672 0.0
C968 C 0.3007 0.04952 0.25922 0.0
C969 C 0.30292 0.07345 0.28376 0.0
C970 C 0.32381 0.99592 0.16769 0.0
C971 C 0.33116 0.96228 0.17081 0.0
C972 C 0.32067 0.0158 0.19564 0.0
C973 C 0.3251 1.00263 0.22742 0.0
C974 C 0.33152 0.96882 0.23062 0.0
C975 C 0.33428 0.94882 0.20265 0.0
H976 H 0.5662 0.18785 0.20351 0.0
H977 H 0.56888 0.22952 0.10587 0.0
H978 H 0.509 0.2056 0.20976 0.0
H979 H 0.51226 0.24829 0.11236 0.0
H980 H 0.40578 0.23938 0.10763 0.0
H981 H 0.4615 0.21745 0.11134 0.0
H982 H 0.46716 0.2491 0.21274 0.0
H983 H 0.41072 0.26996 0.20912 0.0
C984 C 0.55519 0.20252 0.18414 0.0
C985 C 0.5721 0.20762 0.15427 0.0
C986 C 0.52216 0.21214 0.18749 0.0
C987 C 0.50562 0.22719 0.16107 0.0
C988 C 0.52384 0.23556 0.13273 0.0
C989 C 0.55661 0.22567 0.12928 0.0
C990 C 0.41829 0.23999 0.13119 0.0
C991 C 0.40393 0.25617 0.15809 0.0
C992 C 0.45056 0.22829 0.13313 0.0
C993 C 0.46935 0.233 0.16187 0.0
C994 C 0.45357 0.24552 0.19009 0.0
C995 C 0.421 0.25696 0.1882 0.0
H996 H 0.89852 0.24883 0.82319 0.0
H997 H 0.95133 0.16657 0.86518 0.0
H998 H 0.95038 0.27952 0.81919 0.0
H999 H 1.00258 0.19652 0.86031 0.0
H1000 H 0.07683 0.27599 0.89089 0.0
H1001 H 0.02911 0.24033 0.88659 0.0
H1002 H 0.00396 0.28507 0.79335 0.0
H1003 H 0.05179 0.32167 0.79841 0.0
C1004 C 0.92105 0.23734 0.83167 0.0
C1005 C 0.9205 0.20541 0.84508 0.0
C1006 C 0.95089 0.25479 0.82902 0.0
C1007 C 0.9808 0.24071 0.83972 0.0
C1008 C 0.98011 0.20856 0.85247 0.0
C1009 C 0.9505 0.1913 0.85525 0.0
C1010 C 0.0619 0.27726 0.8688 0.0
C1011 C 0.06846 0.30114 0.8447 0.0
C1012 C 0.03428 0.25693 0.86637 0.0
C1013 C 0.01231 0.25989 0.83972 0.0
C1014 C 0.02004 0.28241 0.81444 0.0
C1015 C 0.04792 0.30281 0.81689 0.0
H1016 H 0.03453 0.67494 0.08897 0.0
H1017 H 0.09434 0.71391 0.16793 0.0
H1018 H 0.00562 0.72781 0.08532 0.0
H1019 H 0.06739 0.76646 0.16292 0.0
H1020 H 0.98417 0.84099 0.17361 0.0
H1021 H 0.01793 0.79195 0.17483 0.0
H1022 H 0.01156 0.78479 0.06873 0.0
H1023 H 0.97622 0.8338 0.068 0.0
C1024 C 0.04123 0.69454 0.10576 0.0
C1025 C 0.06654 0.68998 0.12892 0.0
C1026 C 0.02518 0.72506 0.10323 0.0
C1027 C 0.03435 0.75161 0.12364 0.0
C1028 C 0.05926 0.74663 0.14707 0.0
C1029 C 0.0748 0.71627 0.14992 0.0
C1030 C 0.99113 0.82971 0.15043 0.0
C1031 C 0.97799 0.84134 0.12071 0.0
C1032 C 0.01035 0.80136 0.15107 0.0
C1033 C 0.01718 0.78399 0.1219 0.0
C1034 C 0.00621 0.79719 0.09172 0.0
C1035 C 0.98673 0.82571 0.09114 0.0
H1036 H 0.43955 0.70822 0.32224 0.0
H1037 H 0.50544 0.66501 0.39375 0.0
H1038 H 0.48097 0.75124 0.31102 0.0
H1039 H 0.54645 0.70675 0.38185 0.0
H1040 H 0.62487 0.77002 0.33062 0.0
H1041 H 0.5834 0.72585 0.33293 0.0
H1042 H 0.50683 0.79812 0.34735 0.0
H1043 H 0.54786 0.84186 0.34564 0.0
C1044 C 0.46268 0.7079 0.33553 0.0
C1045 C 0.46885 0.6835 0.35927 0.0
C1046 C 0.48642 0.73233 0.32901 0.0
C1047 C 0.51706 0.73211 0.34538 0.0
C1048 C 0.52331 0.70738 0.36858 0.0
C1049 C 0.49947 0.68368 0.37566 0.0
C1050 C 0.59918 0.77638 0.33408 0.0
C1051 C 0.58975 0.80934 0.3385 0.0
C1052 C 0.57546 0.75119 0.33538 0.0
C1053 C 0.54186 0.75862 0.34029 0.0
C1054 C 0.53241 0.79166 0.34327 0.0
C1055 C 0.55606 0.81665 0.34267 0.0
H1056 H 0.04984 0.67253 0.58849 0.0
H1057 H 0.09987 0.75895 0.62517 0.0
H1058 H 0.99794 0.70258 0.5878 0.0
H1059 H 0.04768 0.78902 0.62453 0.0
H1060 H 0.95454 0.84194 0.59268 0.0
H1061 H 0.00556 0.81123 0.587 0.0
H1062 H 0.95844 0.72541 0.6285 0.0
H1063 H 0.90687 0.7563 0.6342 0.0
C1064 C 0.04994 0.6981 0.59602 0.0
C1065 C 0.07924 0.71331 0.60684 0.0
C1066 C 0.02 0.71522 0.59591 0.0
C1067 C 0.0185 0.74814 0.60632 0.0
C1068 C 0.04796 0.76374 0.6161 0.0
C1069 C 0.07793 0.74651 0.61647 0.0
C1070 C 0.95476 0.8164 0.60034 0.0
C1071 C 0.92643 0.80168 0.61406 0.0
C1072 C 0.98424 0.79887 0.59727 0.0
C1073 C 0.98632 0.76597 0.60763 0.0
C1074 C 0.95767 0.7507 0.62012 0.0
C1075 C 0.92807 0.76838 0.62338 0.0
H1076 H 0.0439 0.32449 0.3774 0.0
H1077 H 0.08922 0.3176 0.47327 0.0
H1078 H 0.01611 0.27215 0.38678 0.0
H1079 H 0.06058 0.26527 0.48292 0.0
H1080 H 0.97201 0.17784 0.47281 0.0
H1081 H 0.99754 0.23224 0.48006 0.0
H1082 H 0.05478 0.21679 0.39186 0.0
H1083 H 0.02932 0.16287 0.3846 0.0
C1084 C 0.04664 0.31262 0.40115 0.0
C1085 C 0.06898 0.3251 0.42444 0.0
C1086 C 0.0311 0.28241 0.40633 0.0
C1087 C 0.03722 0.26416 0.43504 0.0
C1088 C 0.05597 0.27857 0.46029 0.0
C1089 C 0.07189 0.30887 0.45497 0.0
C1090 C 0.99148 0.18529 0.45612 0.0
C1091 C 0.99897 0.16597 0.42828 0.0
C1092 C 0.00564 0.21665 0.45998 0.0
C1093 C 0.02739 0.22894 0.43601 0.0
C1094 C 0.03753 0.20809 0.41032 0.0
C1095 C 0.02346 0.17697 0.40648 0.0
H1096 H 0.44546 0.70602 0.85027 0.0
H1097 H 0.4247 0.70257 0.95447 0.0
H1098 H 0.48546 0.7499 0.8595 0.0
H1099 H 0.46463 0.74696 0.96374 0.0
H1100 H 0.50264 0.85648 0.95411 0.0
H1101 H 0.46667 0.80823 0.94848 0.0
H1102 H 0.5395 0.76144 0.88668 0.0
H1103 H 0.57523 0.80922 0.89221 0.0
C1104 C 0.45012 0.71406 0.87528 0.0
C1105 C 0.43224 0.70051 0.90167 0.0
C1106 C 0.47293 0.73933 0.88057 0.0
C1107 C 0.47804 0.75213 0.91233 0.0
C1108 C 0.46102 0.73781 0.93895 0.0
C1109 C 0.43857 0.71203 0.93371 0.0
C1110 C 0.51092 0.83591 0.93931 0.0
C1111 C 0.5418 0.83687 0.92352 0.0
C1112 C 0.49046 0.80815 0.93633 0.0
C1113 C 0.50029 0.78096 0.91717 0.0
C1114 C 0.53111 0.78202 0.90143 0.0
C1115 C 0.55162 0.80947 0.90469 0.0
H1116 H 0.67502 0.93474 0.82412 0.0
H1117 H 0.56936 0.9377 0.83586 0.0
H1118 H 0.6725 0.98383 0.78945 0.0
H1119 H 0.56691 0.98799 0.80535 0.0
H1120 H 0.56477 0.0664 0.72961 0.0
H1121 H 0.56769 0.01602 0.75968 0.0
H1122 H 0.66705 0.04006 0.79063 0.0
H1123 H 0.66514 0.08951 0.75626 0.0
C1124 C 0.65118 0.94526 0.8184 0.0
C1125 C 0.62236 0.93237 0.83259 0.0
C1126 C 0.64976 0.9741 0.79946 0.0
C1127 C 0.61959 0.99078 0.79494 0.0
C1128 C 0.59067 0.97615 0.80736 0.0
C1129 C 0.59199 0.94697 0.82506 0.0
C1130 C 0.58714 0.06132 0.74328 0.0
C1131 C 0.61487 0.08173 0.74016 0.0
C1132 C 0.58883 0.03217 0.76092 0.0
C1133 C 0.61781 0.02319 0.77763 0.0
C1134 C 0.64463 0.04539 0.77725 0.0
C1135 C 0.6433 0.0743 0.75836 0.0
H1136 H 0.14813 0.35262 0.99769 0.0
H1137 H 0.20485 0.35612 0.90759 0.0
H1138 H 0.19831 0.34069 0.02852 0.0
H1139 H 0.25493 0.34398 0.93846 0.0
H1140 H 0.3376 0.36948 0.01672 0.0
H1141 H 0.29036 0.37267 0.97942 0.0
H1142 H 0.24046 0.29765 0.03601 0.0
H1143 H 0.28731 0.29458 0.0732 0.0
C1144 C 0.1712 0.35048 0.9844 0.0
C1145 C 0.17238 0.35535 0.95018 0.0
C1146 C 0.19997 0.34348 1.00204 0.0
C1147 C 0.23065 0.34134 0.98591 0.0
C1148 C 0.23176 0.34571 0.95163 0.0
C1149 C 0.20297 0.35248 0.93395 0.0
C1150 C 0.31697 0.353 0.02059 0.0
C1151 C 0.31611 0.33203 0.04812 0.0
C1152 C 0.28982 0.3549 0.9993 0.0
C1153 C 0.26137 0.33587 0.00519 0.0
C1154 C 0.26165 0.31318 0.03126 0.0
C1155 C 0.28867 0.31125 0.05241 0.0
H1156 H 0.90807 0.08976 0.27167 0.0
H1157 H 0.97414 0.04112 0.33935 0.0
H1158 H 0.89939 0.03765 0.24284 0.0
H1159 H 0.96607 0.98913 0.30972 0.0
H1160 H 0.95814 0.91888 0.21077 0.0
H1161 H 0.97329 0.96721 0.24366 0.0
H1162 H 0.87129 0.98039 0.27076 0.0
H1163 H 0.85631 0.93136 0.23867 0.0
C1164 C 0.92172 0.06827 0.27961 0.0
C1165 C 0.94192 0.06954 0.30767 0.0
C1166 C 0.91631 0.03839 0.26345 0.0
C1167 C 0.93159 0.00947 0.2746 0.0
C1168 C 0.95385 0.01115 0.30094 0.0
C1169 C 0.95868 0.0409 0.31761 0.0
C1170 C 0.93924 0.93139 0.2249 0.0
C1171 C 0.9062 0.92125 0.22282 0.0
C1172 C 0.94786 0.95908 0.24339 0.0
C1173 C 0.92337 0.97756 0.25923 0.0
C1174 C 0.89052 0.96651 0.2585 0.0
C1175 C 0.88202 0.93831 0.24063 0.0
H1176 H 0.20076 0.67702 0.52697 0.0
H1177 H 0.20301 0.57189 0.54165 0.0
H1178 H 0.25269 0.67403 0.49651 0.0
H1179 H 0.2554 0.56892 0.51166 0.0
H1180 H 0.36822 0.58727 0.49814 0.0
H1181 H 0.31393 0.59015 0.52455 0.0
H1182 H 0.27818 0.65019 0.44451 0.0
H1183 H 0.33216 0.64709 0.41799 0.0
C1184 C 0.21186 0.65313 0.52277 0.0
C1185 C 0.19746 0.62462 0.53618 0.0
C1186 C 0.24174 0.65145 0.50557 0.0
C1187 C 0.25836 0.6213 0.50201 0.0
C1188 C 0.24333 0.59256 0.51429 0.0
C1189 C 0.21303 0.59416 0.53092 0.0
C1190 C 0.34893 0.60149 0.48644 0.0
C1191 C 0.35462 0.61709 0.45602 0.0
C1192 C 0.31771 0.60277 0.50134 0.0
C1193 C 0.29165 0.62012 0.48643 0.0
C1194 C 0.29771 0.63664 0.45662 0.0
C1195 C 0.32869 0.63491 0.44148 0.0
H1196 H 0.76094 0.65765 0.09781 0.0
H1197 H 0.68488 0.59038 0.0662 0.0
H1198 H 0.78757 0.65284 0.04369 0.0
H1199 H 0.71219 0.58479 0.01257 0.0
H1200 H 0.81104 0.55981 0.94609 0.0
H1201 H 0.77694 0.56339 0.9959 0.0
H1202 H 0.76363 0.66735 0.97919 0.0
H1203 H 0.7967 0.66355 0.92865 0.0
C1204 C 0.7502 0.6415 0.0795 0.0
C1205 C 0.7209 0.62431 0.08626 0.0
C1206 C 0.76523 0.63902 0.0485 0.0
C1207 C 0.75169 0.61867 0.02399 0.0
C1208 C 0.72297 0.60074 0.03103 0.0
C1209 C 0.70747 0.6039 0.0617 0.0
C1210 C 0.79969 0.58312 0.95238 0.0
C1211 C 0.80593 0.61127 0.93321 0.0
C1212 C 0.78047 0.58521 0.98096 0.0
C1213 C 0.76801 0.61569 0.99143 0.0
C1214 C 0.77308 0.6436 0.9716 0.0
C1215 C 0.79155 0.64133 0.94248 0.0
H1216 H 0.6049 0.48508 0.35132 0.0
H1217 H 0.67165 0.41868 0.3015 0.0
H1218 H 0.60129 0.51823 0.30105 0.0
H1219 H 0.66583 0.44949 0.25146 0.0
H1220 H 0.67925 0.53241 0.17831 0.0
H1221 H 0.68089 0.49645 0.22554 0.0
H1222 H 0.57897 0.51955 0.24705 0.0
H1223 H 0.57831 0.55753 0.2003 0.0
C1224 C 0.61906 0.4778 0.3299 0.0
C1225 C 0.6386 0.44929 0.33055 0.0
C1226 C 0.61642 0.49633 0.30085 0.0
C1227 C 0.63292 0.48639 0.2719 0.0
C1228 C 0.6531 0.45839 0.27314 0.0
C1229 C 0.65635 0.44052 0.30209 0.0
C1230 C 0.65678 0.52876 0.19234 0.0
C1231 C 0.62868 0.54765 0.18562 0.0
C1232 C 0.65771 0.50824 0.21971 0.0
C1233 C 0.6302 0.50541 0.24068 0.0
C1234 C 0.60089 0.5218 0.23197 0.0
C1235 C 0.60014 0.54281 0.20462 0.0
H1236 H 0.84053 0.39859 0.55637 0.0
H1237 H 0.78749 0.31178 0.58767 0.0
H1238 H 0.81027 0.39869 0.50477 0.0
H1239 H 0.75661 0.31225 0.53584 0.0
H1240 H 0.72944 0.30452 0.42666 0.0
H1241 H 0.76536 0.30339 0.47531 0.0
H1242 H 0.75469 0.40871 0.48524 0.0
H1243 H 0.71937 0.40973 0.43692 0.0
C1244 C 0.82202 0.37977 0.55248 0.0
C1245 C 0.8163 0.35529 0.57634 0.0
C1246 C 0.80471 0.3798 0.52277 0.0
C1247 C 0.78121 0.35532 0.516 0.0
C1248 C 0.77496 0.33114 0.54008 0.0
C1249 C 0.79225 0.33119 0.57 0.0
C1250 C 0.7358 0.32748 0.43863 0.0
C1251 C 0.72187 0.35725 0.42788 0.0
C1252 C 0.75582 0.32679 0.46682 0.0
C1253 C 0.76253 0.35591 0.48443 0.0
C1254 C 0.7502 0.38585 0.47227 0.0
C1255 C 0.73004 0.38647 0.44446 0.0
H1256 H 0.95234 0.51147 0.84925 0.0
H1257 H 0.84661 0.5219 0.84596 0.0
H1258 H 0.95028 0.47616 0.80024 0.0
H1259 H 0.84441 0.48789 0.79701 0.0
H1260 H 0.84747 0.40974 0.71906 0.0
H1261 H 0.85105 0.43598 0.77242 0.0
H1262 H 0.93968 0.4865 0.74175 0.0
H1263 H 0.93691 0.45879 0.68831 0.0
C1264 C 0.92861 0.5051 0.83884 0.0
C1265 C 0.89959 0.51912 0.85142 0.0
C1266 C 0.92745 0.48555 0.81037 0.0
C1267 C 0.89724 0.47974 0.79425 0.0
C1268 C 0.86809 0.49162 0.80871 0.0
C1269 C 0.86928 0.51102 0.83693 0.0
C1270 C 0.86752 0.42683 0.72337 0.0
C1271 C 0.89178 0.43232 0.69919 0.0
C1272 C 0.86963 0.44181 0.75415 0.0
C1273 C 0.89582 0.46314 0.7616 0.0
C1274 C 0.91954 0.46965 0.73707 0.0
C1275 C 0.91756 0.45437 0.70617 0.0
H1276 H 0.53641 0.18805 0.70457 0.0
H1277 H 0.51197 0.17267 0.60235 0.0
H1278 H 0.50645 0.24047 0.70393 0.0
H1279 H 0.48301 0.22574 0.60142 0.0
H1280 H 0.48715 0.34296 0.60899 0.0
H1281 H 0.51176 0.28795 0.61297 0.0
H1282 H 0.4422 0.26214 0.6891 0.0
H1283 H 0.41681 0.31674 0.68444 0.0
C1284 C 0.52381 0.19548 0.68225 0.0
C1285 C 0.526 0.17609 0.65366 0.0
C1286 C 0.50694 0.22553 0.68184 0.0
C1287 C 0.49281 0.2372 0.65255 0.0
C1288 C 0.49388 0.21727 0.62426 0.0
C1289 C 0.51 0.18675 0.62492 0.0
C1290 C 0.47749 0.32576 0.62697 0.0
C1291 C 0.45022 0.33423 0.64659 0.0
C1292 C 0.49128 0.2942 0.62893 0.0
C1293 C 0.47857 0.2708 0.65108 0.0
C1294 C 0.45231 0.27972 0.67175 0.0
C1295 C 0.43795 0.31097 0.66918 0.0
loop_
_geom_bond_atom_site_label_1
_geom_bond_atom_site_label_2
_geom_bond_distance
_geom_bond_site_symmetry_2
_ccdc_geom_bond_type
C0 O2 1.247 . S
C0 O4 1.258 . S
C1 O8 1.247 . S
C1 O9 1.258 . S
O2 C0 1.247 . S
O2 Zn3 2.028 . S
Zn3 O2 2.028 . S
Zn3 O7 2.035 . S
Zn3 O9 2.035 . S
Zn3 O10 2.028 . S
O4 C0 1.258 . S
O4 Zn5 2.035 . S
Zn5 O4 2.035 . S
Zn5 O6 2.028 . S
Zn5 O8 2.028 . S
Zn5 O11 2.035 . S
O6 Zn5 2.028 . S
O6 C12 1.247 . S
O7 Zn3 2.035 . S
O7 C12 1.258 . S
O8 C1 1.247 . S
O8 Zn5 2.028 . S
O9 C1 1.258 . S
O9 Zn3 2.035 . S
O10 Zn3 2.028 . S
O10 C13 1.247 . S
O11 Zn5 2.035 . S
O11 C13 1.258 . S
C12 O6 1.247 . S
C12 O7 1.258 . S
C13 O10 1.247 . S
C13 O11 1.258 . S
C14 O16 1.247 . S
C14 O18 1.258 . S
C15 O22 1.247 . S
C15 O23 1.258 . S
O16 C14 1.247 . S
O16 Zn17 2.028 . S
Zn17 O16 2.028 . S
Zn17 O21 2.035 . S
Zn17 O23 2.035 . S
Zn17 O24 2.028 . S
O18 C14 1.258 . S
O18 Zn19 2.035 . S
Zn19 O18 2.035 . S
Zn19 O20 2.028 . S
Zn19 O22 2.028 . S
Zn19 O25 2.035 . S
O20 Zn19 2.028 . S
O20 C26 1.247 . S
O21 Zn17 2.035 . S
O21 C26 1.258 . S
O22 C15 1.247 . S
O22 Zn19 2.028 . S
O23 C15 1.258 . S
O23 Zn17 2.035 . S
O24 Zn17 2.028 . S
O24 C27 1.247 . S
O25 Zn19 2.035 . S
O25 C27 1.258 . S
C26 O20 1.247 . S
C26 O21 1.258 . S
C27 O24 1.247 . S
C27 O25 1.258 . S
C28 O30 1.247 . S
C28 O32 1.258 . S
C29 O36 1.247 . S
C29 O37 1.258 . S
O30 C28 1.247 . S
O30 Zn31 2.028 . S
Zn31 O30 2.028 . S
Zn31 O35 2.035 . S
Zn31 O37 2.035 . S
Zn31 O38 2.028 . S
O32 C28 1.258 . S
O32 Zn33 2.035 . S
Zn33 O32 2.035 . S
Zn33 O34 2.028 . S
Zn33 O36 2.028 . S
Zn33 O39 2.035 . S
O34 Zn33 2.028 . S
O34 C40 1.247 . S
O35 Zn31 2.035 . S
O35 C40 1.258 . S
O36 C29 1.247 . S
O36 Zn33 2.028 . S
O37 C29 1.258 . S
O37 Zn31 2.035 . S
O38 Zn31 2.028 . S
O38 C41 1.247 . S
O39 Zn33 2.035 . S
O39 C41 1.258 . S
C40 O34 1.247 . S
C40 O35 1.258 . S
C41 O38 1.247 . S
C41 O39 1.258 . S
C42 O44 1.247 . S
C42 O46 1.258 . S
C43 O50 1.247 . S
C43 O51 1.258 . S
O44 C42 1.247 . S
O44 Zn45 2.028 . S
Zn45 O44 2.028 . S
Zn45 O49 2.035 . S
Zn45 O51 2.035 . S
Zn45 O52 2.028 . S
O46 C42 1.258 . S
O46 Zn47 2.035 . S
Zn47 O46 2.035 . S
Zn47 O48 2.028 . S
Zn47 O50 2.028 . S
Zn47 O53 2.035 . S
O48 Zn47 2.028 . S
O48 C54 1.247 . S
O49 Zn45 2.035 . S
O49 C54 1.258 . S
O50 C43 1.247 . S
O50 Zn47 2.028 . S
O51 C43 1.258 . S
O51 Zn45 2.035 . S
O52 Zn45 2.028 . S
O52 C55 1.247 . S
O53 Zn47 2.035 . S
O53 C55 1.258 . S
C54 O48 1.247 . S
C54 O49 1.258 . S
C55 O52 1.247 . S
C55 O53 1.258 . S
C56 O58 1.247 . S
C56 O60 1.258 . S
C57 O64 1.247 . S
C57 O65 1.258 . S
O58 C56 1.247 . S
O58 Zn59 2.028 . S
Zn59 O58 2.028 . S
Zn59 O63 2.035 . S
Zn59 O65 2.035 . S
Zn59 O66 2.028 . S
O60 C56 1.258 . S
O60 Zn61 2.035 . S
Zn61 O60 2.035 . S
Zn61 O62 2.028 . S
Zn61 O64 2.028 . S
Zn61 O67 2.035 . S
O62 Zn61 2.028 . S
O62 C68 1.247 . S
O63 Zn59 2.035 . S
O63 C68 1.258 . S
O64 C57 1.247 . S
O64 Zn61 2.028 . S
O65 C57 1.258 . S
O65 Zn59 2.035 . S
O66 Zn59 2.028 . S
O66 C69 1.247 . S
O67 Zn61 2.035 . S
O67 C69 1.258 . S
C68 O62 1.247 . S
C68 O63 1.258 . S
C69 O66 1.247 . S
C69 O67 1.258 . S
C70 O72 1.247 . S
C70 O74 1.258 . S
C71 O78 1.247 . S
C71 O79 1.258 . S
O72 C70 1.247 . S
O72 Zn73 2.028 . S
Zn73 O72 2.028 . S
Zn73 O77 2.035 . S
Zn73 O79 2.035 . S
Zn73 O80 2.028 . S
O74 C70 1.258 . S
O74 Zn75 2.035 . S
Zn75 O74 2.035 . S
Zn75 O76 2.028 . S
Zn75 O78 2.028 . S
Zn75 O81 2.035 . S
O76 Zn75 2.028 . S
O76 C82 1.247 . S
O77 Zn73 2.035 . S
O77 C82 1.258 . S
O78 C71 1.247 . S
O78 Zn75 2.028 . S
O79 C71 1.258 . S
O79 Zn73 2.035 . S
O80 Zn73 2.028 . S
O80 C83 1.247 . S
O81 Zn75 2.035 . S
O81 C83 1.258 . S
C82 O76 1.247 . S
C82 O77 1.258 . S
C83 O80 1.247 . S
C83 O81 1.258 . S
C84 O86 1.247 . S
C84 O88 1.258 . S
C85 O92 1.247 . S
C85 O93 1.258 . S
O86 C84 1.247 . S
O86 Zn87 2.028 . S
Zn87 O86 2.028 . S
Zn87 O91 2.035 . S
Zn87 O93 2.035 . S
Zn87 O94 2.028 . S
O88 C84 1.258 . S
O88 Zn89 2.035 . S
Zn89 O88 2.035 . S
Zn89 O90 2.028 . S
Zn89 O92 2.028 . S
Zn89 O95 2.035 . S
O90 Zn89 2.028 . S
O90 C96 1.247 . S
O91 Zn87 2.035 . S
O91 C96 1.258 . S
O92 C85 1.247 . S
O92 Zn89 2.028 . S
O93 C85 1.258 . S
O93 Zn87 2.035 . S
O94 Zn87 2.028 . S
O94 C97 1.247 . S
O95 Zn89 2.035 . S
O95 C97 1.258 . S
C96 O90 1.247 . S
C96 O91 1.258 . S
C97 O94 1.247 . S
C97 O95 1.258 . S
C98 O100 1.247 . S
C98 O102 1.258 . S
C99 O106 1.247 . S
C99 O107 1.258 . S
O100 C98 1.247 . S
O100 Zn101 2.028 . S
Zn101 O100 2.028 . S
Zn101 O105 2.035 . S
Zn101 O107 2.035 . S
Zn101 O108 2.028 . S
O102 C98 1.258 . S
O102 Zn103 2.035 . S
Zn103 O102 2.035 . S
Zn103 O104 2.028 . S
Zn103 O106 2.028 . S
Zn103 O109 2.035 . S
O104 Zn103 2.028 . S
O104 C110 1.247 . S
O105 Zn101 2.035 . S
O105 C110 1.258 . S
O106 C99 1.247 . S
O106 Zn103 2.028 . S
O107 C99 1.258 . S
O107 Zn101 2.035 . S
O108 Zn101 2.028 . S
O108 C111 1.247 . S
O109 Zn103 2.035 . S
O109 C111 1.258 . S
C110 O104 1.247 . S
C110 O105 1.258 . S
C111 O108 1.247 . S
C111 O109 1.258 . S
C112 O114 1.247 . S
C112 O116 1.258 . S
C113 O120 1.247 . S
C113 O121 1.258 . S
O114 C112 1.247 . S
O114 Zn115 2.028 . S
Zn115 O114 2.028 . S
Zn115 O119 2.035 . S
Zn115 O121 2.035 . S
Zn115 O122 2.028 . S
O116 C112 1.258 . S
O116 Zn117 2.035 . S
Zn117 O116 2.035 . S
Zn117 O118 2.028 . S
Zn117 O120 2.028 . S
Zn117 O123 2.035 . S
O118 Zn117 2.028 . S
O118 C124 1.247 . S
O119 Zn115 2.035 . S
O119 C124 1.258 . S
O120 C113 1.247 . S
O120 Zn117 2.028 . S
O121 C113 1.258 . S
O121 Zn115 2.035 . S
O122 Zn115 2.028 . S
O122 C125 1.247 . S
O123 Zn117 2.035 . S
O123 C125 1.258 . S
C124 O118 1.247 . S
C124 O119 1.258 . S
C125 O122 1.247 . S
C125 O123 1.258 . S
C126 O128 1.247 . S
C126 O130 1.258 . S
C127 O134 1.247 . S
C127 O135 1.258 . S
O128 C126 1.247 . S
O128 Zn129 2.028 . S
Zn129 O128 2.028 . S
Zn129 O133 2.035 . S
Zn129 O135 2.035 . S
Zn129 O136 2.028 . S
O130 C126 1.258 . S
O130 Zn131 2.035 . S
Zn131 O130 2.035 . S
Zn131 O132 2.028 . S
Zn131 O134 2.028 . S
Zn131 O137 2.035 . S
O132 Zn131 2.028 . S
O132 C138 1.247 . S
O133 Zn129 2.035 . S
O133 C138 1.258 . S
O134 C127 1.247 . S
O134 Zn131 2.028 . S
O135 C127 1.258 . S
O135 Zn129 2.035 . S
O136 Zn129 2.028 . S
O136 C139 1.247 . S
O137 Zn131 2.035 . S
O137 C139 1.258 . S
C138 O132 1.247 . S
C138 O133 1.258 . S
C139 O136 1.247 . S
C139 O137 1.258 . S
C140 O142 1.247 . S
C140 O144 1.258 . S
C141 O148 1.247 . S
C141 O149 1.258 . S
O142 C140 1.247 . S
O142 Zn143 2.028 . S
Zn143 O142 2.028 . S
Zn143 O147 2.035 . S
Zn143 O149 2.035 . S
Zn143 O150 2.028 . S
O144 C140 1.258 . S
O144 Zn145 2.035 . S
Zn145 O144 2.035 . S
Zn145 O146 2.028 . S
Zn145 O148 2.028 . S
Zn145 O151 2.035 . S
O146 Zn145 2.028 . S
O146 C152 1.247 . S
O147 Zn143 2.035 . S
O147 C152 1.258 . S
O148 C141 1.247 . S
O148 Zn145 2.028 . S
O149 C141 1.258 . S
O149 Zn143 2.035 . S
O150 Zn143 2.028 . S
O150 C153 1.247 . S
O151 Zn145 2.035 . S
O151 C153 1.258 . S
C152 O146 1.247 . S
C152 O147 1.258 . S
C153 O150 1.247 . S
C153 O151 1.258 . S
C154 O156 1.247 . S
C154 O158 1.258 . S
C155 O162 1.247 . S
C155 O163 1.258 . S
O156 C154 1.247 . S
O156 Zn157 2.028 . S
Zn157 O156 2.028 . S
Zn157 O161 2.035 . S
Zn157 O163 2.035 . S
Zn157 O164 2.028 . S
O158 C154 1.258 . S
O158 Zn159 2.035 . S
Zn159 O158 2.035 . S
Zn159 O160 2.028 . S
Zn159 O162 2.028 . S
Zn159 O165 2.035 . S
O160 Zn159 2.028 . S
O160 C166 1.247 . S
O161 Zn157 2.035 . S
O161 C166 1.258 . S
O162 C155 1.247 . S
O162 Zn159 2.028 . S
O163 C155 1.258 . S
O163 Zn157 2.035 . S
O164 Zn157 2.028 . S
O164 C167 1.247 . S
O165 Zn159 2.035 . S
O165 C167 1.258 . S
C166 O160 1.247 . S
C166 O161 1.258 . S
C167 O164 1.247 . S
C167 O165 1.258 . S
C168 O170 1.247 . S
C168 O172 1.258 . S
C169 O176 1.247 . S
C169 O177 1.258 . S
O170 C168 1.247 . S
O170 Zn171 2.028 . S
Zn171 O170 2.028 . S
Zn171 O175 2.035 . S
Zn171 O177 2.035 . S
Zn171 O178 2.028 . S
O172 C168 1.258 . S
O172 Zn173 2.035 . S
Zn173 O172 2.035 . S
Zn173 O174 2.028 . S
Zn173 O176 2.028 . S
Zn173 O179 2.035 . S
O174 Zn173 2.028 . S
O174 C180 1.247 . S
O175 Zn171 2.035 . S
O175 C180 1.258 . S
O176 C169 1.247 . S
O176 Zn173 2.028 . S
O177 C169 1.258 . S
O177 Zn171 2.035 . S
O178 Zn171 2.028 . S
O178 C181 1.247 . S
O179 Zn173 2.035 . S
O179 C181 1.258 . S
C180 O174 1.247 . S
C180 O175 1.258 . S
C181 O178 1.247 . S
C181 O179 1.258 . S
C182 O184 1.247 . S
C182 O186 1.258 . S
C183 O190 1.247 . S
C183 O191 1.258 . S
O184 C182 1.247 . S
O184 Zn185 2.028 . S
Zn185 O184 2.028 . S
Zn185 O189 2.035 . S
Zn185 O191 2.035 . S
Zn185 O192 2.028 . S
O186 C182 1.258 . S
O186 Zn187 2.035 . S
Zn187 O186 2.035 . S
Zn187 O188 2.028 . S
Zn187 O190 2.028 . S
Zn187 O193 2.035 . S
O188 Zn187 2.028 . S
O188 C194 1.247 . S
O189 Zn185 2.035 . S
O189 C194 1.258 . S
O190 C183 1.247 . S
O190 Zn187 2.028 . S
O191 C183 1.258 . S
O191 Zn185 2.035 . S
O192 Zn185 2.028 . S
O192 C195 1.247 . S
O193 Zn187 2.035 . S
O193 C195 1.258 . S
C194 O188 1.247 . S
C194 O189 1.258 . S
C195 O192 1.247 . S
C195 O193 1.258 . S
C196 O198 1.247 . S
C196 O200 1.258 . S
C197 O204 1.247 . S
C197 O205 1.258 . S
O198 C196 1.247 . S
O198 Zn199 2.028 . S
Zn199 O198 2.028 . S
Zn199 O203 2.035 . S
Zn199 O205 2.035 . S
Zn199 O206 2.028 . S
O200 C196 1.258 . S
O200 Zn201 2.035 . S
Zn201 O200 2.035 . S
Zn201 O202 2.028 . S
Zn201 O204 2.028 . S
Zn201 O207 2.035 . S
O202 Zn201 2.028 . S
O202 C208 1.247 . S
O203 Zn199 2.035 . S
O203 C208 1.258 . S
O204 C197 1.247 . S
O204 Zn201 2.028 . S
O205 C197 1.258 . S
O205 Zn199 2.035 . S
O206 Zn199 2.028 . S
O206 C209 1.247 . S
O207 Zn201 2.035 . S
O207 C209 1.258 . S
C208 O202 1.247 . S
C208 O203 1.258 . S
C209 O206 1.247 . S
C209 O207 1.258 . S
C210 O212 1.247 . S
C210 O214 1.258 . S
C211 O218 1.247 . S
C211 O219 1.258 . S
O212 C210 1.247 . S
O212 Zn213 2.028 . S
Zn213 O212 2.028 . S
Zn213 O217 2.035 . S
Zn213 O219 2.035 . S
Zn213 O220 2.028 . S
O214 C210 1.258 . S
O214 Zn215 2.035 . S
Zn215 O214 2.035 . S
Zn215 O216 2.028 . S
Zn215 O218 2.028 . S
Zn215 O221 2.035 . S
O216 Zn215 2.028 . S
O216 C222 1.247 . S
O217 Zn213 2.035 . S
O217 C222 1.258 . S
O218 C211 1.247 . S
O218 Zn215 2.028 . S
O219 C211 1.258 . S
O219 Zn213 2.035 . S
O220 Zn213 2.028 . S
O220 C223 1.247 . S
O221 Zn215 2.035 . S
O221 C223 1.258 . S
C222 O216 1.247 . S
C222 O217 1.258 . S
C223 O220 1.247 . S
C223 O221 1.258 . S
C224 O226 1.247 . S
C224 O228 1.258 . S
C225 O232 1.247 . S
C225 O233 1.258 . S
O226 C224 1.247 . S
O226 Zn227 2.028 . S
Zn227 O226 2.028 . S
Zn227 O231 2.035 . S
Zn227 O233 2.035 . S
Zn227 O234 2.028 . S
O228 C224 1.258 . S
O228 Zn229 2.035 . S
Zn229 O228 2.035 . S
Zn229 O230 2.028 . S
Zn229 O232 2.028 . S
Zn229 O235 2.035 . S
O230 Zn229 2.028 . S
O230 C236 1.247 . S
O231 Zn227 2.035 . S
O231 C236 1.258 . S
O232 C225 1.247 . S
O232 Zn229 2.028 . S
O233 C225 1.258 . S
O233 Zn227 2.035 . S
O234 Zn227 2.028 . S
O234 C237 1.247 . S
O235 Zn229 2.035 . S
O235 C237 1.258 . S
C236 O230 1.247 . S
C236 O231 1.258 . S
C237 O234 1.247 . S
C237 O235 1.258 . S
C238 O240 1.247 . S
C238 O242 1.258 . S
C239 O246 1.247 . S
C239 O247 1.258 . S
O240 C238 1.247 . S
O240 Zn241 2.028 . S
Zn241 O240 2.028 . S
Zn241 O245 2.035 . S
Zn241 O247 2.035 . S
Zn241 O248 2.028 . S
O242 C238 1.258 . S
O242 Zn243 2.035 . S
Zn243 O242 2.035 . S
Zn243 O244 2.028 . S
Zn243 O246 2.028 . S
Zn243 O249 2.035 . S
O244 Zn243 2.028 . S
O244 C250 1.247 . S
O245 Zn241 2.035 . S
O245 C250 1.258 . S
O246 C239 1.247 . S
O246 Zn243 2.028 . S
O247 C239 1.258 . S
O247 Zn241 2.035 . S
O248 Zn241 2.028 . S
O248 C251 1.247 . S
O249 Zn243 2.035 . S
O249 C251 1.258 . S
C250 O244 1.247 . S
C250 O245 1.258 . S
C251 O248 1.247 . S
C251 O249 1.258 . S
C252 O254 1.247 . S
C252 O256 1.258 . S
C253 O260 1.247 . S
C253 O261 1.258 . S
O254 C252 1.247 . S
O254 Zn255 2.028 . S
Zn255 O254 2.028 . S
Zn255 O259 2.035 . S
Zn255 O261 2.035 . S
Zn255 O262 2.028 . S
O256 C252 1.258 . S
O256 Zn257 2.035 . S
Zn257 O256 2.035 . S
Zn257 O258 2.028 . S
Zn257 O260 2.028 . S
Zn257 O263 2.035 . S
O258 Zn257 2.028 . S
O258 C264 1.247 . S
O259 Zn255 2.035 . S
O259 C264 1.258 . S
O260 C253 1.247 . S
O260 Zn257 2.028 . S
O261 C253 1.258 . S
O261 Zn255 2.035 . S
O262 Zn255 2.028 . S
O262 C265 1.247 . S
O263 Zn257 2.035 . S
O263 C265 1.258 . S
C264 O258 1.247 . S
C264 O259 1.258 . S
C265 O262 1.247 . S
C265 O263 1.258 . S
C266 O268 1.247 . S
C266 O270 1.258 . S
C267 O274 1.247 . S
C267 O275 1.258 . S
O268 C266 1.247 . S
O268 Zn269 2.028 . S
Zn269 O268 2.028 . S
Zn269 O273 2.035 . S
Zn269 O275 2.035 . S
Zn269 O276 2.028 . S
O270 C266 1.258 . S
O270 Zn271 2.035 . S
Zn271 O270 2.035 . S
Zn271 O272 2.028 . S
Zn271 O274 2.028 . S
Zn271 O277 2.035 . S
O272 Zn271 2.028 . S
O272 C278 1.247 . S
O273 Zn269 2.035 . S
O273 C278 1.258 . S
O274 C267 1.247 . S
O274 Zn271 2.028 . S
O275 C267 1.258 . S
O275 Zn269 2.035 . S
O276 Zn269 2.028 . S
O276 C279 1.247 . S
O277 Zn271 2.035 . S
O277 C279 1.258 . S
C278 O272 1.247 . S
C278 O273 1.258 . S
C279 O276 1.247 . S
C279 O277 1.258 . S
C280 O282 1.247 . S
C280 O284 1.258 . S
C281 O288 1.247 . S
C281 O289 1.258 . S
O282 C280 1.247 . S
O282 Zn283 2.028 . S
Zn283 O282 2.028 . S
Zn283 O287 2.035 . S
Zn283 O289 2.035 . S
Zn283 O290 2.028 . S
O284 C280 1.258 . S
O284 Zn285 2.035 . S
Zn285 O284 2.035 . S
Zn285 O286 2.028 . S
Zn285 O288 2.028 . S
Zn285 O291 2.035 . S
O286 Zn285 2.028 . S
O286 C292 1.247 . S
O287 Zn283 2.035 . S
O287 C292 1.258 . S
O288 C281 1.247 . S
O288 Zn285 2.028 . S
O289 C281 1.258 . S
O289 Zn283 2.035 . S
O290 Zn283 2.028 . S
O290 C293 1.247 . S
O291 Zn285 2.035 . S
O291 C293 1.258 . S
C292 O286 1.247 . S
C292 O287 1.258 . S
C293 O290 1.247 . S
C293 O291 1.258 . S
C294 O296 1.247 . S
C294 O298 1.258 . S
C295 O302 1.247 . S
C295 O303 1.258 . S
O296 C294 1.247 . S
O296 Zn297 2.028 . S
Zn297 O296 2.028 . S
Zn297 O301 2.035 . S
Zn297 O303 2.035 . S
Zn297 O304 2.028 . S
O298 C294 1.258 . S
O298 Zn299 2.035 . S
Zn299 O298 2.035 . S
Zn299 O300 2.028 . S
Zn299 O302 2.028 . S
Zn299 O305 2.035 . S
O300 Zn299 2.028 . S
O300 C306 1.247 . S
O301 Zn297 2.035 . S
O301 C306 1.258 . S
O302 C295 1.247 . S
O302 Zn299 2.028 . S
O303 C295 1.258 . S
O303 Zn297 2.035 . S
O304 Zn297 2.028 . S
O304 C307 1.247 . S
O305 Zn299 2.035 . S
O305 C307 1.258 . S
C306 O300 1.247 . S
C306 O301 1.258 . S
C307 O304 1.247 . S
C307 O305 1.258 . S
C308 O310 1.247 . S
C308 O312 1.258 . S
C309 O316 1.247 . S
C309 O317 1.258 . S
O310 C308 1.247 . S
O310 Zn311 2.028 . S
Zn311 O310 2.028 . S
Zn311 O315 2.035 . S
Zn311 O317 2.035 . S
Zn311 O318 2.028 . S
O312 C308 1.258 . S
O312 Zn313 2.035 . S
Zn313 O312 2.035 . S
Zn313 O314 2.028 . S
Zn313 O316 2.028 . S
Zn313 O319 2.035 . S
O314 Zn313 2.028 . S
O314 C320 1.247 . S
O315 Zn311 2.035 . S
O315 C320 1.258 . S
O316 C309 1.247 . S
O316 Zn313 2.028 . S
O317 C309 1.258 . S
O317 Zn311 2.035 . S
O318 Zn311 2.028 . S
O318 C321 1.247 . S
O319 Zn313 2.035 . S
O319 C321 1.258 . S
C320 O314 1.247 . S
C320 O315 1.258 . S
C321 O318 1.247 . S
C321 O319 1.258 . S
C322 O324 1.247 . S
C322 O326 1.258 . S
C323 O330 1.247 . S
C323 O331 1.258 . S
O324 C322 1.247 . S
O324 Zn325 2.028 . S
Zn325 O324 2.028 . S
Zn325 O329 2.035 . S
Zn325 O331 2.035 . S
Zn325 O332 2.028 . S
O326 C322 1.258 . S
O326 Zn327 2.035 . S
Zn327 O326 2.035 . S
Zn327 O328 2.028 . S
Zn327 O330 2.028 . S
Zn327 O333 2.035 . S
O328 Zn327 2.028 . S
O328 C334 1.247 . S
O329 Zn325 2.035 . S
O329 C334 1.258 . S
O330 C323 1.247 . S
O330 Zn327 2.028 . S
O331 C323 1.258 . S
O331 Zn325 2.035 . S
O332 Zn325 2.028 . S
O332 C335 1.247 . S
O333 Zn327 2.035 . S
O333 C335 1.258 . S
C334 O328 1.247 . S
C334 O329 1.258 . S
C335 O332 1.247 . S
C335 O333 1.258 . S
H336 C344 0.950 . S
H337 C349 0.950 . S
H338 C346 0.950 . S
H339 C348 0.950 . S
H340 C350 0.950 . S
H341 C352 0.950 . S
H342 C354 0.950 . S
H343 C355 0.950 . S
C344 H336 0.950 . S
C344 C345 1.386 . S
C344 C346 1.391 . S
C345 C344 1.386 . S
C345 C349 1.393 . S
C346 H338 0.950 . S
C346 C344 1.391 . S
C346 C347 1.400 . S
C347 C346 1.400 . S
C347 C348 1.398 . S
C347 C353 1.491 . S
C348 H339 0.950 . S
C348 C347 1.398 . S
C348 C349 1.391 . S
C349 H337 0.950 . S
C349 C345 1.393 . S
C349 C348 1.391 . S
C350 H340 0.950 . S
C350 C351 1.386 . S
C350 C352 1.391 . S
C351 C350 1.386 . S
C351 C355 1.393 . S
C352 H341 0.950 . S
C352 C350 1.391 . S
C352 C353 1.400 . S
C353 C347 1.491 . S
C353 C352 1.400 . S
C353 C354 1.398 . S
C354 H342 0.950 . S
C354 C353 1.398 . S
C354 C355 1.391 . S
C355 H343 0.950 . S
C355 C351 1.393 . S
C355 C354 1.391 . S
H356 C364 0.950 . S
H357 C369 0.950 . S
H358 C366 0.950 . S
H359 C368 0.950 . S
H360 C370 0.950 . S
H361 C372 0.950 . S
H362 C374 0.950 . S
H363 C375 0.950 . S
C364 H356 0.950 . S
C364 C365 1.386 . S
C364 C366 1.391 . S
C365 C364 1.386 . S
C365 C369 1.393 . S
C366 H358 0.950 . S
C366 C364 1.391 . S
C366 C367 1.400 . S
C367 C366 1.400 . S
C367 C368 1.398 . S
C367 C373 1.491 1_655 S
C368 H359 0.950 . S
C368 C367 1.398 . S
C368 C369 1.391 . S
C369 H357 0.950 . S
C369 C365 1.393 . S
C369 C368 1.391 . S
C370 H360 0.950 . S
C370 C371 1.386 . S
C370 C372 1.391 . S
C371 C370 1.386 . S
C371 C375 1.393 . S
C372 H361 0.950 . S
C372 C370 1.391 . S
C372 C373 1.400 . S
C373 C367 1.491 1_455 S
C373 C372 1.400 . S
C373 C374 1.398 . S
C374 H362 0.950 . S
C374 C373 1.398 . S
C374 C375 1.391 . S
C375 H363 0.950 . S
C375 C371 1.393 . S
C375 C374 1.391 . S
H376 C384 0.950 . S
H377 C389 0.950 . S
H378 C386 0.950 . S
H379 C388 0.950 1_556 S
H380 C390 0.950 . S
H381 C392 0.950 . S
H382 C394 0.950 1_554 S
H383 C395 0.950 . S
C384 H376 0.950 . S
C384 C385 1.386 . S
C384 C386 1.391 . S
C385 C384 1.386 . S
C385 C389 1.393 . S
C386 H378 0.950 . S
C386 C384 1.391 . S
C386 C387 1.400 . S
C387 C386 1.400 . S
C387 C388 1.398 . S
C387 C393 1.491 1_554 S
C388 H379 0.950 1_554 S
C388 C387 1.398 . S
C388 C389 1.391 . S
C389 H377 0.950 . S
C389 C385 1.393 . S
C389 C388 1.391 . S
C390 H380 0.950 . S
C390 C391 1.386 . S
C390 C392 1.391 . S
C391 C390 1.386 . S
C391 C395 1.393 . S
C392 H381 0.950 . S
C392 C390 1.391 . S
C392 C393 1.400 . S
C393 C387 1.491 1_556 S
C393 C392 1.400 . S
C393 C394 1.398 . S
C394 H382 0.950 1_556 S
C394 C393 1.398 . S
C394 C395 1.391 . S
C395 H383 0.950 . S
C395 C391 1.393 . S
C395 C394 1.391 . S
H396 C404 0.950 . S
H397 C409 0.950 . S
H398 C406 0.950 . S
H399 C408 0.950 . S
H400 C410 0.950 . S
H401 C412 0.950 . S
H402 C414 0.950 . S
H403 C415 0.950 . S
C404 H396 0.950 . S
C404 C405 1.386 . S
C404 C406 1.391 . S
C405 C404 1.386 . S
C405 C409 1.393 . S
C406 H398 0.950 . S
C406 C404 1.391 . S
C406 C407 1.400 . S
C407 C406 1.400 . S
C407 C408 1.398 . S
C407 C413 1.491 . S
C408 H399 0.950 . S
C408 C407 1.398 . S
C408 C409 1.391 . S
C409 H397 0.950 . S
C409 C405 1.393 . S
C409 C408 1.391 . S
C410 H400 0.950 . S
C410 C411 1.386 . S
C410 C412 1.391 . S
C411 C410 1.386 . S
C411 C415 1.393 . S
C412 H401 0.950 . S
C412 C410 1.391 . S
C412 C413 1.400 . S
C413 C407 1.491 . S
C413 C412 1.400 . S
C413 C414 1.398 . S
C414 H402 0.950 . S
C414 C413 1.398 . S
C414 C415 1.391 . S
C415 H403 0.950 . S
C415 C411 1.393 . S
C415 C414 1.391 . S
H416 C424 0.950 . S
H417 C429 0.950 . S
H418 C426 0.950 . S
H419 C428 0.950 1_554 S
H420 C430 0.950 . S
H421 C432 0.950 . S
H422 C434 0.950 1_556 S
H423 C435 0.950 . S
C424 H416 0.950 . S
C424 C425 1.386 . S
C424 C426 1.391 . S
C425 C424 1.386 . S
C425 C429 1.393 . S
C426 H418 0.950 . S
C426 C424 1.391 . S
C426 C427 1.400 . S
C427 C426 1.400 . S
C427 C428 1.398 . S
C427 C433 1.491 1_556 S
C428 H419 0.950 1_556 S
C428 C427 1.398 . S
C428 C429 1.391 . S
C429 H417 0.950 . S
C429 C425 1.393 . S
C429 C428 1.391 . S
C430 H420 0.950 . S
C430 C431 1.386 . S
C430 C432 1.391 . S
C431 C430 1.386 . S
C431 C435 1.393 . S
C432 H421 0.950 . S
C432 C430 1.391 . S
C432 C433 1.400 . S
C433 C427 1.491 1_554 S
C433 C432 1.400 . S
C433 C434 1.398 . S
C434 H422 0.950 1_554 S
C434 C433 1.398 . S
C434 C435 1.391 . S
C435 H423 0.950 . S
C435 C431 1.393 . S
C435 C434 1.391 . S
H436 C444 0.950 . S
H437 C449 0.950 . S
H438 C446 0.950 . S
H439 C448 0.950 . S
H440 C450 0.950 . S
H441 C452 0.950 . S
H442 C454 0.950 . S
H443 C455 0.950 . S
C444 H436 0.950 . S
C444 C445 1.386 . S
C444 C446 1.391 . S
C445 C444 1.386 . S
C445 C449 1.393 . S
C446 H438 0.950 . S
C446 C444 1.391 . S
C446 C447 1.400 . S
C447 C446 1.400 . S
C447 C448 1.398 . S
C447 C453 1.491 . S
C448 H439 0.950 . S
C448 C447 1.398 . S
C448 C449 1.391 . S
C449 H437 0.950 . S
C449 C445 1.393 . S
C449 C448 1.391 . S
C450 H440 0.950 . S
C450 C451 1.386 . S
C450 C452 1.391 . S
C451 C450 1.386 . S
C451 C455 1.393 . S
C452 H441 0.950 . S
C452 C450 1.391 . S
C452 C453 1.400 . S
C453 C447 1.491 . S
C453 C452 1.400 . S
C453 C454 1.398 . S
C454 H442 0.950 . S
C454 C453 1.398 . S
C454 C455 1.391 . S
C455 H443 0.950 . S
C455 C451 1.393 . S
C455 C454 1.391 . S
H456 C464 0.950 . S
H457 C469 0.950 . S
H458 C466 0.950 . S
H459 C468 0.950 . S
H460 C470 0.950 . S
H461 C472 0.950 . S
H462 C474 0.950 . S
H463 C475 0.950 . S
C464 H456 0.950 . S
C464 C465 1.386 . S
C464 C466 1.391 . S
C465 C464 1.386 . S
C465 C469 1.393 . S
C466 H458 0.950 . S
C466 C464 1.391 . S
C466 C467 1.400 . S
C467 C466 1.400 . S
C467 C468 1.398 . S
C467 C473 1.491 . S
C468 H459 0.950 . S
C468 C467 1.398 . S
C468 C469 1.391 . S
C469 H457 0.950 . S
C469 C465 1.393 . S
C469 C468 1.391 . S
C470 H460 0.950 . S
C470 C471 1.386 . S
C470 C472 1.391 . S
C471 C470 1.386 . S
C471 C475 1.393 . S
C472 H461 0.950 . S
C472 C470 1.391 . S
C472 C473 1.400 . S
C473 C467 1.491 . S
C473 C472 1.400 . S
C473 C474 1.398 . S
C474 H462 0.950 . S
C474 C473 1.398 . S
C474 C475 1.391 . S
C475 H463 0.950 . S
C475 C471 1.393 . S
C475 C474 1.391 . S
H476 C484 0.950 . S
H477 C489 0.950 . S
H478 C486 0.950 . S
H479 C488 0.950 1_655 S
H480 C490 0.950 . S
H481 C492 0.950 . S
H482 C494 0.950 1_455 S
H483 C495 0.950 . S
C484 H476 0.950 . S
C484 C485 1.386 . S
C484 C486 1.391 . S
C485 C484 1.386 . S
C485 C489 1.393 . S
C486 H478 0.950 . S
C486 C484 1.391 . S
C486 C487 1.400 . S
C487 C486 1.400 . S
C487 C488 1.398 . S
C487 C493 1.491 1_455 S
C488 H479 0.950 1_455 S
C488 C487 1.398 . S
C488 C489 1.391 . S
C489 H477 0.950 . S
C489 C485 1.393 . S
C489 C488 1.391 . S
C490 H480 0.950 . S
C490 C491 1.386 . S
C490 C492 1.391 . S
C491 C490 1.386 . S
C491 C495 1.393 . S
C492 H481 0.950 . S
C492 C490 1.391 . S
C492 C493 1.400 . S
C493 C487 1.491 1_655 S
C493 C492 1.400 . S
C493 C494 1.398 . S
C494 H482 0.950 1_655 S
C494 C493 1.398 . S
C494 C495 1.391 . S
C495 H483 0.950 . S
C495 C491 1.393 . S
C495 C494 1.391 . S
H496 C504 0.950 . S
H497 C509 0.950 . S
H498 C506 0.950 . S
H499 C508 0.950 . S
H500 C510 0.950 . S
H501 C512 0.950 . S
H502 C514 0.950 . S
H503 C515 0.950 . S
C504 H496 0.950 . S
C504 C505 1.386 . S
C504 C506 1.391 . S
C505 C504 1.386 . S
C505 C509 1.393 . S
C506 H498 0.950 . S
C506 C504 1.391 . S
C506 C507 1.400 . S
C507 C506 1.400 . S
C507 C508 1.398 . S
C507 C513 1.491 . S
C508 H499 0.950 . S
C508 C507 1.398 . S
C508 C509 1.391 . S
C509 H497 0.950 . S
C509 C505 1.393 . S
C509 C508 1.391 . S
C510 H500 0.950 . S
C510 C511 1.386 . S
C510 C512 1.391 . S
C511 C510 1.386 . S
C511 C515 1.393 . S
C512 H501 0.950 . S
C512 C510 1.391 . S
C512 C513 1.400 . S
C513 C507 1.491 . S
C513 C512 1.400 . S
C513 C514 1.398 . S
C514 H502 0.950 . S
C514 C513 1.398 . S
C514 C515 1.391 . S
C515 H503 0.950 . S
C515 C511 1.393 . S
C515 C514 1.391 . S
H516 C524 0.950 . S
H517 C529 0.950 . S
H518 C526 0.950 1_565 S
H519 C528 0.950 . S
H520 C530 0.950 . S
H521 C532 0.950 1_545 S
H522 C534 0.950 . S
H523 C535 0.950 . S
C524 H516 0.950 . S
C524 C525 1.386 . S
C524 C526 1.391 . S
C525 C524 1.386 . S
C525 C529 1.393 . S
C526 H518 0.950 1_545 S
C526 C524 1.391 . S
C526 C527 1.400 . S
C527 C526 1.400 . S
C527 C528 1.398 . S
C527 C533 1.491 1_545 S
C528 H519 0.950 . S
C528 C527 1.398 . S
C528 C529 1.391 . S
C529 H517 0.950 . S
C529 C525 1.393 . S
C529 C528 1.391 . S
C530 H520 0.950 . S
C530 C531 1.386 . S
C530 C532 1.391 . S
C531 C530 1.386 . S
C531 C535 1.393 . S
C532 H521 0.950 1_565 S
C532 C530 1.391 . S
C532 C533 1.400 . S
C533 C527 1.491 1_565 S
C533 C532 1.400 . S
C533 C534 1.398 . S
C534 H522 0.950 . S
C534 C533 1.398 . S
C534 C535 1.391 . S
C535 H523 0.950 . S
C535 C531 1.393 . S
C535 C534 1.391 . S
H536 C544 0.950 . S
H537 C549 0.950 . S
H538 C546 0.950 1_565 S
H539 C548 0.950 . S
H540 C550 0.950 . S
H541 C552 0.950 1_545 S
H542 C554 0.950 . S
H543 C555 0.950 . S
C544 H536 0.950 . S
C544 C545 1.386 . S
C544 C546 1.391 . S
C545 C544 1.386 . S
C545 C549 1.393 . S
C546 H538 0.950 1_545 S
C546 C544 1.391 . S
C546 C547 1.400 . S
C547 C546 1.400 . S
C547 C548 1.398 . S
C547 C553 1.491 1_545 S
C548 H539 0.950 . S
C548 C547 1.398 . S
C548 C549 1.391 . S
C549 H537 0.950 . S
C549 C545 1.393 . S
C549 C548 1.391 . S
C550 H540 0.950 . S
C550 C551 1.386 . S
C550 C552 1.391 . S
C551 C550 1.386 . S
C551 C555 1.393 . S
C552 H541 0.950 1_565 S
C552 C550 1.391 . S
C552 C553 1.400 . S
C553 C547 1.491 1_565 S
C553 C552 1.400 . S
C553 C554 1.398 . S
C554 H542 0.950 . S
C554 C553 1.398 . S
C554 C555 1.391 . S
C555 H543 0.950 . S
C555 C551 1.393 . S
C555 C554 1.391 . S
H556 C564 0.950 . S
H557 C569 0.950 . S
H558 C566 0.950 . S
H559 C568 0.950 1_565 S
H560 C570 0.950 . S
H561 C572 0.950 . S
H562 C574 0.950 1_545 S
H563 C575 0.950 . S
C564 H556 0.950 . S
C564 C565 1.386 . S
C564 C566 1.391 . S
C565 C564 1.386 . S
C565 C569 1.393 . S
C566 H558 0.950 . S
C566 C564 1.391 . S
C566 C567 1.400 . S
C567 C566 1.400 . S
C567 C568 1.398 . S
C567 C573 1.491 1_545 S
C568 H559 0.950 1_545 S
C568 C567 1.398 . S
C568 C569 1.391 . S
C569 H557 0.950 . S
C569 C565 1.393 . S
C569 C568 1.391 . S
C570 H560 0.950 . S
C570 C571 1.386 . S
C570 C572 1.391 . S
C571 C570 1.386 . S
C571 C575 1.393 . S
C572 H561 0.950 . S
C572 C570 1.391 . S
C572 C573 1.400 . S
C573 C567 1.491 1_565 S
C573 C572 1.400 . S
C573 C574 1.398 . S
C574 H562 0.950 1_565 S
C574 C573 1.398 . S
C574 C575 1.391 . S
C575 H563 0.950 . S
C575 C571 1.393 . S
C575 C574 1.391 . S
H576 C584 0.950 . S
H577 C589 0.950 . S
H578 C586 0.950 . S
H579 C588 0.950 . S
H580 C590 0.950 . S
H581 C592 0.950 . S
H582 C594 0.950 . S
H583 C595 0.950 . S
C584 H576 0.950 . S
C584 C585 1.386 . S
C584 C586 1.391 . S
C585 C584 1.386 . S
C585 C589 1.393 . S
C586 H578 0.950 . S
C586 C584 1.391 . S
C586 C587 1.400 . S
C587 C586 1.400 . S
C587 C588 1.398 . S
C587 C593 1.491 . S
C588 H579 0.950 . S
C588 C587 1.398 . S
C588 C589 1.391 . S
C589 H577 0.950 . S
C589 C585 1.393 . S
C589 C588 1.391 . S
C590 H580 0.950 . S
C590 C591 1.386 . S
C590 C592 1.391 . S
C591 C590 1.386 . S
C591 C595 1.393 . S
C592 H581 0.950 . S
C592 C590 1.391 . S
C592 C593 1.400 . S
C593 C587 1.491 . S
C593 C592 1.400 . S
C593 C594 1.398 . S
C594 H582 0.950 . S
C594 C593 1.398 . S
C594 C595 1.391 . S
C595 H583 0.950 . S
C595 C591 1.393 . S
C595 C594 1.391 . S
H596 C604 0.950 . S
H597 C609 0.950 . S
H598 C606 0.950 . S
H599 C608 0.950 . S
H600 C610 0.950 . S
H601 C612 0.950 . S
H602 C614 0.950 . S
H603 C615 0.950 . S
C604 H596 0.950 . S
C604 C605 1.386 . S
C604 C606 1.391 . S
C605 C604 1.386 . S
C605 C609 1.393 . S
C606 H598 0.950 . S
C606 C604 1.391 . S
C606 C607 1.400 . S
C607 C606 1.400 . S
C607 C608 1.398 . S
C607 C613 1.491 . S
C608 H599 0.950 . S
C608 C607 1.398 . S
C608 C609 1.391 . S
C609 H597 0.950 . S
C609 C605 1.393 . S
C609 C608 1.391 . S
C610 H600 0.950 . S
C610 C611 1.386 . S
C610 C612 1.391 . S
C611 C610 1.386 . S
C611 C615 1.393 . S
C612 H601 0.950 . S
C612 C610 1.391 . S
C612 C613 1.400 . S
C613 C607 1.491 . S
C613 C612 1.400 . S
C613 C614 1.398 . S
C614 H602 0.950 . S
C614 C613 1.398 . S
C614 C615 1.391 . S
C615 H603 0.950 . S
C615 C611 1.393 . S
C615 C614 1.391 . S
H616 C624 0.950 . S
H617 C629 0.950 . S
H618 C626 0.950 . S
H619 C628 0.950 . S
H620 C630 0.950 . S
H621 C632 0.950 . S
H622 C634 0.950 . S
H623 C635 0.950 . S
C624 H616 0.950 . S
C624 C625 1.386 . S
C624 C626 1.391 . S
C625 C624 1.386 . S
C625 C629 1.393 . S
C626 H618 0.950 . S
C626 C624 1.391 . S
C626 C627 1.400 . S
C627 C626 1.400 . S
C627 C628 1.398 . S
C627 C633 1.491 . S
C628 H619 0.950 . S
C628 C627 1.398 . S
C628 C629 1.391 . S
C629 H617 0.950 . S
C629 C625 1.393 . S
C629 C628 1.391 . S
C630 H620 0.950 . S
C630 C631 1.386 . S
C630 C632 1.391 . S
C631 C630 1.386 . S
C631 C635 1.393 . S
C632 H621 0.950 . S
C632 C630 1.391 . S
C632 C633 1.400 . S
C633 C627 1.491 . S
C633 C632 1.400 . S
C633 C634 1.398 . S
C634 H622 0.950 . S
C634 C633 1.398 . S
C634 C635 1.391 . S
C635 H623 0.950 . S
C635 C631 1.393 . S
C635 C634 1.391 . S
H636 C644 0.950 . S
H637 C649 0.950 . S
H638 C646 0.950 . S
H639 C648 0.950 1_554 S
H640 C650 0.950 . S
H641 C652 0.950 . S
H642 C654 0.950 1_556 S
H643 C655 0.950 . S
C644 H636 0.950 . S
C644 C645 1.386 . S
C644 C646 1.391 . S
C645 C644 1.386 . S
C645 C649 1.393 . S
C646 H638 0.950 . S
C646 C644 1.391 . S
C646 C647 1.400 . S
C647 C646 1.400 . S
C647 C648 1.398 . S
C647 C653 1.491 1_556 S
C648 H639 0.950 1_556 S
C648 C647 1.398 . S
C648 C649 1.391 . S
C649 H637 0.950 . S
C649 C645 1.393 . S
C649 C648 1.391 . S
C650 H640 0.950 . S
C650 C651 1.386 . S
C650 C652 1.391 . S
C651 C650 1.386 . S
C651 C655 1.393 . S
C652 H641 0.950 . S
C652 C650 1.391 . S
C652 C653 1.400 . S
C653 C647 1.491 1_554 S
C653 C652 1.400 . S
C653 C654 1.398 . S
C654 H642 0.950 1_554 S
C654 C653 1.398 . S
C654 C655 1.391 . S
C655 H643 0.950 . S
C655 C651 1.393 . S
C655 C654 1.391 . S
H656 C664 0.950 . S
H657 C669 0.950 . S
H658 C666 0.950 . S
H659 C668 0.950 . S
H660 C670 0.950 . S
H661 C672 0.950 . S
H662 C674 0.950 . S
H663 C675 0.950 . S
C664 H656 0.950 . S
C664 C665 1.386 . S
C664 C666 1.391 . S
C665 C664 1.386 . S
C665 C669 1.393 . S
C666 H658 0.950 . S
C666 C664 1.391 . S
C666 C667 1.400 . S
C667 C666 1.400 . S
C667 C668 1.398 . S
C667 C673 1.491 . S
C668 H659 0.950 . S
C668 C667 1.398 . S
C668 C669 1.391 . S
C669 H657 0.950 . S
C669 C665 1.393 . S
C669 C668 1.391 . S
C670 H660 0.950 . S
C670 C671 1.386 . S
C670 C672 1.391 . S
C671 C670 1.386 . S
C671 C675 1.393 . S
C672 H661 0.950 . S
C672 C670 1.391 . S
C672 C673 1.400 . S
C673 C667 1.491 . S
C673 C672 1.400 . S
C673 C674 1.398 . S
C674 H662 0.950 . S
C674 C673 1.398 . S
C674 C675 1.391 . S
C675 H663 0.950 . S
C675 C671 1.393 . S
C675 C674 1.391 . S
H676 C684 0.950 . S
H677 C689 0.950 . S
H678 C686 0.950 . S
H679 C688 0.950 . S
H680 C690 0.950 . S
H681 C692 0.950 . S
H682 C694 0.950 . S
H683 C695 0.950 . S
C684 H676 0.950 . S
C684 C685 1.386 . S
C684 C686 1.391 . S
C685 C684 1.386 . S
C685 C689 1.393 . S
C686 H678 0.950 . S
C686 C684 1.391 . S
C686 C687 1.400 . S
C687 C686 1.400 . S
C687 C688 1.398 . S
C687 C693 1.491 . S
C688 H679 0.950 . S
C688 C687 1.398 . S
C688 C689 1.391 . S
C689 H677 0.950 . S
C689 C685 1.393 . S
C689 C688 1.391 . S
C690 H680 0.950 . S
C690 C691 1.386 . S
C690 C692 1.391 . S
C691 C690 1.386 . S
C691 C695 1.393 . S
C692 H681 0.950 . S
C692 C690 1.391 . S
C692 C693 1.400 . S
C693 C687 1.491 . S
C693 C692 1.400 . S
C693 C694 1.398 . S
C694 H682 0.950 . S
C694 C693 1.398 . S
C694 C695 1.391 . S
C695 H683 0.950 . S
C695 C691 1.393 . S
C695 C694 1.391 . S
H696 C704 0.950 . S
H697 C709 0.950 . S
H698 C706 0.950 . S
H699 C708 0.950 . S
H700 C710 0.950 . S
H701 C712 0.950 . S
H702 C714 0.950 . S
H703 C715 0.950 . S
C704 H696 0.950 . S
C704 C705 1.386 . S
C704 C706 1.391 . S
C705 C704 1.386 . S
C705 C709 1.393 . S
C706 H698 0.950 . S
C706 C704 1.391 . S
C706 C707 1.400 . S
C707 C706 1.400 . S
C707 C708 1.398 . S
C707 C713 1.491 1_655 S
C708 H699 0.950 . S
C708 C707 1.398 . S
C708 C709 1.391 . S
C709 H697 0.950 . S
C709 C705 1.393 . S
C709 C708 1.391 . S
C710 H700 0.950 . S
C710 C711 1.386 . S
C710 C712 1.391 . S
C711 C710 1.386 . S
C711 C715 1.393 . S
C712 H701 0.950 . S
C712 C710 1.391 . S
C712 C713 1.400 . S
C713 C707 1.491 1_455 S
C713 C712 1.400 . S
C713 C714 1.398 . S
C714 H702 0.950 . S
C714 C713 1.398 . S
C714 C715 1.391 . S
C715 H703 0.950 . S
C715 C711 1.393 . S
C715 C714 1.391 . S
H716 C724 0.950 . S
H717 C729 0.950 . S
H718 C726 0.950 . S
H719 C728 0.950 . S
H720 C730 0.950 . S
H721 C732 0.950 . S
H722 C734 0.950 . S
H723 C735 0.950 . S
C724 H716 0.950 . S
C724 C725 1.386 . S
C724 C726 1.391 . S
C725 C724 1.386 . S
C725 C729 1.393 . S
C726 H718 0.950 . S
C726 C724 1.391 . S
C726 C727 1.400 . S
C727 C726 1.400 . S
C727 C728 1.398 . S
C727 C733 1.491 . S
C728 H719 0.950 . S
C728 C727 1.398 . S
C728 C729 1.391 . S
C729 H717 0.950 . S
C729 C725 1.393 . S
C729 C728 1.391 . S
C730 H720 0.950 . S
C730 C731 1.386 . S
C730 C732 1.391 . S
C731 C730 1.386 . S
C731 C735 1.393 . S
C732 H721 0.950 . S
C732 C730 1.391 . S
C732 C733 1.400 . S
C733 C727 1.491 . S
C733 C732 1.400 . S
C733 C734 1.398 . S
C734 H722 0.950 . S
C734 C733 1.398 . S
C734 C735 1.391 . S
C735 H723 0.950 . S
C735 C731 1.393 . S
C735 C734 1.391 . S
H736 C744 0.950 . S
H737 C749 0.950 . S
H738 C746 0.950 . S
H739 C748 0.950 . S
H740 C750 0.950 . S
H741 C752 0.950 . S
H742 C754 0.950 . S
H743 C755 0.950 . S
C744 H736 0.950 . S
C744 C745 1.386 . S
C744 C746 1.391 . S
C745 C744 1.386 . S
C745 C749 1.393 . S
C746 H738 0.950 . S
C746 C744 1.391 . S
C746 C747 1.400 . S
C747 C746 1.400 . S
C747 C748 1.398 . S
C747 C753 1.491 1_455 S
C748 H739 0.950 . S
C748 C747 1.398 . S
C748 C749 1.391 . S
C749 H737 0.950 . S
C749 C745 1.393 . S
C749 C748 1.391 . S
C750 H740 0.950 . S
C750 C751 1.386 . S
C750 C752 1.391 . S
C751 C750 1.386 . S
C751 C755 1.393 . S
C752 H741 0.950 . S
C752 C750 1.391 . S
C752 C753 1.400 . S
C753 C747 1.491 1_655 S
C753 C752 1.400 . S
C753 C754 1.398 . S
C754 H742 0.950 . S
C754 C753 1.398 . S
C754 C755 1.391 . S
C755 H743 0.950 . S
C755 C751 1.393 . S
C755 C754 1.391 . S
H756 C764 0.950 . S
H757 C769 0.950 . S
H758 C766 0.950 1_554 S
H759 C768 0.950 . S
H760 C770 0.950 . S
H761 C772 0.950 1_556 S
H762 C774 0.950 . S
H763 C775 0.950 . S
C764 H756 0.950 . S
C764 C765 1.386 . S
C764 C766 1.391 . S
C765 C764 1.386 . S
C765 C769 1.393 . S
C766 H758 0.950 1_556 S
C766 C764 1.391 . S
C766 C767 1.400 . S
C767 C766 1.400 . S
C767 C768 1.398 . S
C767 C773 1.491 1_556 S
C768 H759 0.950 . S
C768 C767 1.398 . S
C768 C769 1.391 . S
C769 H757 0.950 . S
C769 C765 1.393 . S
C769 C768 1.391 . S
C770 H760 0.950 . S
C770 C771 1.386 . S
C770 C772 1.391 . S
C771 C770 1.386 . S
C771 C775 1.393 . S
C772 H761 0.950 1_554 S
C772 C770 1.391 . S
C772 C773 1.400 . S
C773 C767 1.491 1_554 S
C773 C772 1.400 . S
C773 C774 1.398 . S
C774 H762 0.950 . S
C774 C773 1.398 . S
C774 C775 1.391 . S
C775 H763 0.950 . S
C775 C771 1.393 . S
C775 C774 1.391 . S
H776 C784 0.950 . S
H777 C789 0.950 . S
H778 C786 0.950 . S
H779 C788 0.950 . S
H780 C790 0.950 . S
H781 C792 0.950 . S
H782 C794 0.950 . S
H783 C795 0.950 . S
C784 H776 0.950 . S
C784 C785 1.386 . S
C784 C786 1.391 . S
C785 C784 1.386 . S
C785 C789 1.393 . S
C786 H778 0.950 . S
C786 C784 1.391 . S
C786 C787 1.400 . S
C787 C786 1.400 . S
C787 C788 1.398 . S
C787 C793 1.491 . S
C788 H779 0.950 . S
C788 C787 1.398 . S
C788 C789 1.391 . S
C789 H777 0.950 . S
C789 C785 1.393 . S
C789 C788 1.391 . S
C790 H780 0.950 . S
C790 C791 1.386 . S
C790 C792 1.391 . S
C791 C790 1.386 . S
C791 C795 1.393 . S
C792 H781 0.950 . S
C792 C790 1.391 . S
C792 C793 1.400 . S
C793 C787 1.491 . S
C793 C792 1.400 . S
C793 C794 1.398 . S
C794 H782 0.950 . S
C794 C793 1.398 . S
C794 C795 1.391 . S
C795 H783 0.950 . S
C795 C791 1.393 . S
C795 C794 1.391 . S
H796 C804 0.950 . S
H797 C809 0.950 . S
H798 C806 0.950 . S
H799 C808 0.950 . S
H800 C810 0.950 . S
H801 C812 0.950 . S
H802 C814 0.950 . S
H803 C815 0.950 . S
C804 H796 0.950 . S
C804 C805 1.386 . S
C804 C806 1.391 . S
C805 C804 1.386 . S
C805 C809 1.393 . S
C806 H798 0.950 . S
C806 C804 1.391 . S
C806 C807 1.400 . S
C807 C806 1.400 . S
C807 C808 1.398 . S
C807 C813 1.491 1_565 S
C808 H799 0.950 . S
C808 C807 1.398 . S
C808 C809 1.391 . S
C809 H797 0.950 . S
C809 C805 1.393 . S
C809 C808 1.391 . S
C810 H800 0.950 . S
C810 C811 1.386 . S
C810 C812 1.391 . S
C811 C810 1.386 . S
C811 C815 1.393 . S
C812 H801 0.950 . S
C812 C810 1.391 . S
C812 C813 1.400 . S
C813 C807 1.491 1_545 S
C813 C812 1.400 . S
C813 C814 1.398 . S
C814 H802 0.950 . S
C814 C813 1.398 . S
C814 C815 1.391 . S
C815 H803 0.950 . S
C815 C811 1.393 . S
C815 C814 1.391 . S
H816 C824 0.950 . S
H817 C829 0.950 . S
H818 C826 0.950 . S
H819 C828 0.950 . S
H820 C830 0.950 . S
H821 C832 0.950 . S
H822 C834 0.950 . S
H823 C835 0.950 . S
C824 H816 0.950 . S
C824 C825 1.386 . S
C824 C826 1.391 . S
C825 C824 1.386 . S
C825 C829 1.393 . S
C826 H818 0.950 . S
C826 C824 1.391 . S
C826 C827 1.400 . S
C827 C826 1.400 . S
C827 C828 1.398 . S
C827 C833 1.491 . S
C828 H819 0.950 . S
C828 C827 1.398 . S
C828 C829 1.391 . S
C829 H817 0.950 . S
C829 C825 1.393 . S
C829 C828 1.391 . S
C830 H820 0.950 . S
C830 C831 1.386 . S
C830 C832 1.391 . S
C831 C830 1.386 . S
C831 C835 1.393 . S
C832 H821 0.950 . S
C832 C830 1.391 . S
C832 C833 1.400 . S
C833 C827 1.491 . S
C833 C832 1.400 . S
C833 C834 1.398 . S
C834 H822 0.950 . S
C834 C833 1.398 . S
C834 C835 1.391 . S
C835 H823 0.950 . S
C835 C831 1.393 . S
C835 C834 1.391 . S
H836 C844 0.950 . S
H837 C849 0.950 . S
H838 C846 0.950 . S
H839 C848 0.950 . S
H840 C850 0.950 . S
H841 C852 0.950 . S
H842 C854 0.950 . S
H843 C855 0.950 . S
C844 H836 0.950 . S
C844 C845 1.386 . S
C844 C846 1.391 . S
C845 C844 1.386 . S
C845 C849 1.393 . S
C846 H838 0.950 . S
C846 C844 1.391 . S
C846 C847 1.400 . S
C847 C846 1.400 . S
C847 C848 1.398 . S
C847 C853 1.491 . S
C848 H839 0.950 . S
C848 C847 1.398 . S
C848 C849 1.391 . S
C849 H837 0.950 . S
C849 C845 1.393 . S
C849 C848 1.391 . S
C850 H840 0.950 . S
C850 C851 1.386 . S
C850 C852 1.391 . S
C851 C850 1.386 . S
C851 C855 1.393 . S
C852 H841 0.950 . S
C852 C850 1.391 . S
C852 C853 1.400 . S
C853 C847 1.491 . S
C853 C852 1.400 . S
C853 C854 1.398 . S
C854 H842 0.950 . S
C854 C853 1.398 . S
C854 C855 1.391 . S
C855 H843 0.950 . S
C855 C851 1.393 . S
C855 C854 1.391 . S
H856 C864 0.950 . S
H857 C869 0.950 . S
H858 C866 0.950 . S
H859 C868 0.950 . S
H860 C870 0.950 . S
H861 C872 0.950 . S
H862 C874 0.950 . S
H863 C875 0.950 . S
C864 H856 0.950 . S
C864 C865 1.386 . S
C864 C866 1.391 . S
C865 C864 1.386 . S
C865 C869 1.393 . S
C866 H858 0.950 . S
C866 C864 1.391 . S
C866 C867 1.400 . S
C867 C866 1.400 . S
C867 C868 1.398 . S
C867 C873 1.491 . S
C868 H859 0.950 . S
C868 C867 1.398 . S
C868 C869 1.391 . S
C869 H857 0.950 . S
C869 C865 1.393 . S
C869 C868 1.391 . S
C870 H860 0.950 . S
C870 C871 1.386 . S
C870 C872 1.391 . S
C871 C870 1.386 . S
C871 C875 1.393 . S
C872 H861 0.950 . S
C872 C870 1.391 . S
C872 C873 1.400 . S
C873 C867 1.491 . S
C873 C872 1.400 . S
C873 C874 1.398 . S
C874 H862 0.950 . S
C874 C873 1.398 . S
C874 C875 1.391 . S
C875 H863 0.950 . S
C875 C871 1.393 . S
C875 C874 1.391 . S
H876 C884 0.950 . S
H877 C889 0.950 . S
H878 C886 0.950 . S
H879 C888 0.972 . S
H880 C890 0.950 . S
H881 C892 0.950 . S
H882 C894 0.972 . S
H883 C895 0.950 . S
C884 H876 0.950 . S
C884 C885 1.386 . S
C884 C886 1.391 . S
C885 C884 1.386 . S
C885 C889 1.393 . S
C886 H878 0.950 . S
C886 C884 1.391 . S
C886 C887 1.400 . S
C887 C886 1.400 . S
C887 C888 1.391 1_556 S
C887 C893 1.491 1_556 S
C888 H879 0.972 . S
C888 C887 1.391 1_554 S
C888 C889 1.377 1_554 S
C889 H877 0.950 . S
C889 C885 1.393 . S
C889 C888 1.377 1_556 S
C890 H880 0.950 . S
C890 C891 1.386 . S
C890 C892 1.391 . S
C891 C890 1.386 . S
C891 C895 1.393 . S
C892 H881 0.950 . S
C892 C890 1.391 . S
C892 C893 1.400 . S
C893 C887 1.491 1_554 S
C893 C892 1.400 . S
C893 C894 1.391 1_554 S
C894 H882 0.972 . S
C894 C893 1.391 1_556 S
C894 C895 1.377 1_556 S
C895 H883 0.950 . S
C895 C891 1.393 . S
C895 C894 1.377 1_554 S
H896 C904 0.950 . S
H897 C909 0.950 . S
H898 C906 0.950 . S
H899 C908 0.950 . S
H900 C910 0.950 . S
H901 C912 0.950 . S
H902 C914 0.950 . S
H903 C915 0.950 . S
C904 H896 0.950 . S
C904 C905 1.386 . S
C904 C906 1.391 . S
C905 C904 1.386 . S
C905 C909 1.393 . S
C906 H898 0.950 . S
C906 C904 1.391 . S
C906 C907 1.400 . S
C907 C906 1.400 . S
C907 C908 1.398 . S
C907 C913 1.491 . S
C908 H899 0.950 . S
C908 C907 1.398 . S
C908 C909 1.391 . S
C909 H897 0.950 . S
C909 C905 1.393 . S
C909 C908 1.391 . S
C910 H900 0.950 . S
C910 C911 1.386 . S
C910 C912 1.391 . S
C911 C910 1.386 . S
C911 C915 1.393 . S
C912 H901 0.950 . S
C912 C910 1.391 . S
C912 C913 1.400 . S
C913 C907 1.491 . S
C913 C912 1.400 . S
C913 C914 1.398 . S
C914 H902 0.950 . S
C914 C913 1.398 . S
C914 C915 1.391 . S
C915 H903 0.950 . S
C915 C911 1.393 . S
C915 C914 1.391 . S
H916 C924 0.950 . S
H917 C929 0.950 . S
H918 C926 0.950 . S
H919 C928 0.950 . S
H920 C930 0.950 . S
H921 C932 0.950 . S
H922 C934 0.950 . S
H923 C935 0.950 . S
C924 H916 0.950 . S
C924 C925 1.386 . S
C924 C926 1.391 1_545 S
C925 C924 1.386 . S
C925 C929 1.393 . S
C926 H918 0.950 . S
C926 C924 1.391 1_565 S
C926 C927 1.400 1_565 S
C927 C926 1.400 1_545 S
C927 C928 1.398 . S
C927 C933 1.491 1_545 S
C928 H919 0.950 . S
C928 C927 1.398 . S
C928 C929 1.391 . S
C929 H917 0.950 . S
C929 C925 1.393 . S
C929 C928 1.391 . S
C930 H920 0.950 . S
C930 C931 1.386 . S
C930 C932 1.391 1_565 S
C931 C930 1.386 . S
C931 C935 1.393 . S
C932 H921 0.950 . S
C932 C930 1.391 1_545 S
C932 C933 1.400 1_545 S
C933 C927 1.491 1_565 S
C933 C932 1.400 1_565 S
C933 C934 1.398 . S
C934 H922 0.950 . S
C934 C933 1.398 . S
C934 C935 1.391 . S
C935 H923 0.950 . S
C935 C931 1.393 . S
C935 C934 1.391 . S
H936 C944 0.950 . S
H937 C949 0.950 . S
H938 C946 0.950 . S
H939 C948 0.950 . S
H940 C950 0.950 . S
H941 C952 0.950 . S
H942 C954 0.950 . S
H943 C955 0.950 . S
C944 H936 0.950 . S
C944 C945 1.386 . S
C944 C946 1.391 . S
C945 C944 1.386 . S
C945 C949 1.393 . S
C946 H938 0.950 . S
C946 C944 1.391 . S
C946 C947 1.400 . S
C947 C946 1.400 . S
C947 C948 1.398 . S
C947 C953 1.491 1_554 S
C948 H939 0.950 . S
C948 C947 1.398 . S
C948 C949 1.391 . S
C949 H937 0.950 . S
C949 C945 1.393 . S
C949 C948 1.391 . S
C950 H940 0.950 . S
C950 C951 1.386 . S
C950 C952 1.391 . S
C951 C950 1.386 . S
C951 C955 1.393 . S
C952 H941 0.950 . S
C952 C950 1.391 . S
C952 C953 1.400 . S
C953 C947 1.491 1_556 S
C953 C952 1.400 . S
C953 C954 1.398 . S
C954 H942 0.950 . S
C954 C953 1.398 . S
C954 C955 1.391 . S
C955 H943 0.950 . S
C955 C951 1.393 . S
C955 C954 1.391 . S
H956 C964 0.950 . S
H957 C969 0.950 . S
H958 C966 0.950 . S
H959 C968 0.950 . S
H960 C970 0.950 . S
H961 C972 0.950 . S
H962 C974 0.950 . S
H963 C975 0.950 . S
C964 H956 0.950 . S
C964 C965 1.386 . S
C964 C966 1.391 1_545 S
C965 C964 1.386 . S
C965 C969 1.393 . S
C966 H958 0.950 . S
C966 C964 1.391 1_565 S
C966 C967 1.400 1_565 S
C967 C966 1.400 1_545 S
C967 C968 1.398 . S
C967 C973 1.491 1_545 S
C968 H959 0.950 . S
C968 C967 1.398 . S
C968 C969 1.391 . S
C969 H957 0.950 . S
C969 C965 1.393 . S
C969 C968 1.391 . S
C970 H960 0.950 . S
C970 C971 1.386 . S
C970 C972 1.391 1_565 S
C971 C970 1.386 . S
C971 C975 1.393 . S
C972 H961 0.950 . S
C972 C970 1.391 1_545 S
C972 C973 1.400 1_545 S
C973 C967 1.491 1_565 S
C973 C972 1.400 1_565 S
C973 C974 1.398 . S
C974 H962 0.950 . S
C974 C973 1.398 . S
C974 C975 1.391 . S
C975 H963 0.950 . S
C975 C971 1.393 . S
C975 C974 1.391 . S
H976 C984 0.950 . S
H977 C989 0.950 . S
H978 C986 0.950 . S
H979 C988 0.950 . S
H980 C990 0.950 . S
H981 C992 0.950 . S
H982 C994 0.950 . S
H983 C995 0.950 . S
C984 H976 0.950 . S
C984 C985 1.386 . S
C984 C986 1.391 . S
C985 C984 1.386 . S
C985 C989 1.393 . S
C986 H978 0.950 . S
C986 C984 1.391 . S
C986 C987 1.400 . S
C987 C986 1.400 . S
C987 C988 1.398 . S
C987 C993 1.491 . S
C988 H979 0.950 . S
C988 C987 1.398 . S
C988 C989 1.391 . S
C989 H977 0.950 . S
C989 C985 1.393 . S
C989 C988 1.391 . S
C990 H980 0.950 . S
C990 C991 1.386 . S
C990 C992 1.391 . S
C991 C990 1.386 . S
C991 C995 1.393 . S
C992 H981 0.950 . S
C992 C990 1.391 . S
C992 C993 1.400 . S
C993 C987 1.491 . S
C993 C992 1.400 . S
C993 C994 1.398 . S
C994 H982 0.950 . S
C994 C993 1.398 . S
C994 C995 1.391 . S
C995 H983 0.950 . S
C995 C991 1.393 . S
C995 C994 1.391 . S
H996 C1004 0.950 . S
H997 C1009 0.950 . S
H998 C1006 0.950 . S
H999 C1008 0.950 1_455 S
H1000 C1010 0.950 . S
H1001 C1012 0.950 . S
H1002 C1014 0.950 1_655 S
H1003 C1015 0.950 . S
C1004 H996 0.950 . S
C1004 C1005 1.386 . S
C1004 C1006 1.391 . S
C1005 C1004 1.386 . S
C1005 C1009 1.393 . S
C1006 H998 0.950 . S
C1006 C1004 1.391 . S
C1006 C1007 1.400 . S
C1007 C1006 1.400 . S
C1007 C1008 1.398 . S
C1007 C1013 1.491 1_655 S
C1008 H999 0.950 1_655 S
C1008 C1007 1.398 . S
C1008 C1009 1.391 . S
C1009 H997 0.950 . S
C1009 C1005 1.393 . S
C1009 C1008 1.391 . S
C1010 H1000 0.950 . S
C1010 C1011 1.386 . S
C1010 C1012 1.391 . S
C1011 C1010 1.386 . S
C1011 C1015 1.393 . S
C1012 H1001 0.950 . S
C1012 C1010 1.391 . S
C1012 C1013 1.400 . S
C1013 C1007 1.491 1_455 S
C1013 C1012 1.400 . S
C1013 C1014 1.398 . S
C1014 H1002 0.950 1_455 S
C1014 C1013 1.398 . S
C1014 C1015 1.391 . S
C1015 H1003 0.950 . S
C1015 C1011 1.393 . S
C1015 C1014 1.391 . S
H1016 C1024 0.950 . S
H1017 C1029 0.950 . S
H1018 C1026 0.950 . S
H1019 C1028 0.923 1_655 S
H1020 C1030 0.950 . S
H1021 C1032 0.950 . S
H1022 C1034 0.923 1_455 S
H1023 C1035 0.950 . S
C1024 H1016 0.950 . S
C1024 C1025 1.386 . S
C1024 C1026 1.391 . S
C1025 C1024 1.386 . S
C1025 C1029 1.393 . S
C1026 H1018 0.950 . S
C1026 C1024 1.391 . S
C1026 C1027 1.400 . S
C1027 C1026 1.400 . S
C1027 C1028 1.407 . S
C1027 C1033 1.491 1_455 S
C1028 H1019 0.923 1_455 S
C1028 C1027 1.407 . S
C1028 C1029 1.409 . S
C1029 H1017 0.950 . S
C1029 C1025 1.393 . S
C1029 C1028 1.409 . S
C1030 H1020 0.950 . S
C1030 C1031 1.386 . S
C1030 C1032 1.391 . S
C1031 C1030 1.386 . S
C1031 C1035 1.393 . S
C1032 H1021 0.950 . S
C1032 C1030 1.391 . S
C1032 C1033 1.400 . S
C1033 C1027 1.491 1_655 S
C1033 C1032 1.400 . S
C1033 C1034 1.407 . S
C1034 H1022 0.923 1_655 S
C1034 C1033 1.407 . S
C1034 C1035 1.409 . S
C1035 H1023 0.950 . S
C1035 C1031 1.393 . S
C1035 C1034 1.409 . S
H1036 C1044 0.950 . S
H1037 C1049 0.950 . S
H1038 C1046 0.950 . S
H1039 C1048 0.950 . S
H1040 C1050 0.950 . S
H1041 C1052 0.950 . S
H1042 C1054 0.950 . S
H1043 C1055 0.950 . S
C1044 H1036 0.950 . S
C1044 C1045 1.386 . S
C1044 C1046 1.391 . S
C1045 C1044 1.386 . S
C1045 C1049 1.393 . S
C1046 H1038 0.950 . S
C1046 C1044 1.391 . S
C1046 C1047 1.400 . S
C1047 C1046 1.400 . S
C1047 C1048 1.398 . S
C1047 C1053 1.491 . S
C1048 H1039 0.950 . S
C1048 C1047 1.398 . S
C1048 C1049 1.391 . S
C1049 H1037 0.950 . S
C1049 C1045 1.393 . S
C1049 C1048 1.391 . S
C1050 H1040 0.950 . S
C1050 C1051 1.386 . S
C1050 C1052 1.391 . S
C1051 C1050 1.386 . S
C1051 C1055 1.393 . S
C1052 H1041 0.950 . S
C1052 C1050 1.391 . S
C1052 C1053 1.400 . S
C1053 C1047 1.491 . S
C1053 C1052 1.400 . S
C1053 C1054 1.398 . S
C1054 H1042 0.950 . S
C1054 C1053 1.398 . S
C1054 C1055 1.391 . S
C1055 H1043 0.950 . S
C1055 C1051 1.393 . S
C1055 C1054 1.391 . S
H1056 C1064 0.950 . S
H1057 C1069 0.950 . S
H1058 C1066 0.950 1_655 S
H1059 C1068 0.950 . S
H1060 C1070 0.950 . S
H1061 C1072 0.950 1_455 S
H1062 C1074 0.950 . S
H1063 C1075 0.950 . S
C1064 H1056 0.950 . S
C1064 C1065 1.386 . S
C1064 C1066 1.391 . S
C1065 C1064 1.386 . S
C1065 C1069 1.393 . S
C1066 H1058 0.950 1_455 S
C1066 C1064 1.391 . S
C1066 C1067 1.400 . S
C1067 C1066 1.400 . S
C1067 C1068 1.398 . S
C1067 C1073 1.491 1_455 S
C1068 H1059 0.950 . S
C1068 C1067 1.398 . S
C1068 C1069 1.391 . S
C1069 H1057 0.950 . S
C1069 C1065 1.393 . S
C1069 C1068 1.391 . S
C1070 H1060 0.950 . S
C1070 C1071 1.386 . S
C1070 C1072 1.391 . S
C1071 C1070 1.386 . S
C1071 C1075 1.393 . S
C1072 H1061 0.950 1_655 S
C1072 C1070 1.391 . S
C1072 C1073 1.400 . S
C1073 C1067 1.491 1_655 S
C1073 C1072 1.400 . S
C1073 C1074 1.398 . S
C1074 H1062 0.950 . S
C1074 C1073 1.398 . S
C1074 C1075 1.391 . S
C1075 H1063 0.950 . S
C1075 C1071 1.393 . S
C1075 C1074 1.391 . S
H1076 C1084 0.950 . S
H1077 C1089 0.950 . S
H1078 C1086 0.950 1_655 S
H1079 C1088 0.950 . S
H1080 C1090 0.950 . S
H1081 C1092 0.950 1_455 S
H1082 C1094 0.950 . S
H1083 C1095 0.950 . S
C1084 H1076 0.950 . S
C1084 C1085 1.386 . S
C1084 C1086 1.391 . S
C1085 C1084 1.386 . S
C1085 C1089 1.393 . S
C1086 H1078 0.950 1_455 S
C1086 C1084 1.391 . S
C1086 C1087 1.400 . S
C1087 C1086 1.400 . S
C1087 C1088 1.398 . S
C1087 C1093 1.491 1_455 S
C1088 H1079 0.950 . S
C1088 C1087 1.398 . S
C1088 C1089 1.391 . S
C1089 H1077 0.950 . S
C1089 C1085 1.393 . S
C1089 C1088 1.391 . S
C1090 H1080 0.950 . S
C1090 C1091 1.386 . S
C1090 C1092 1.391 . S
C1091 C1090 1.386 . S
C1091 C1095 1.393 . S
C1092 H1081 0.950 1_655 S
C1092 C1090 1.391 . S
C1092 C1093 1.400 . S
C1093 C1087 1.491 1_655 S
C1093 C1092 1.400 . S
C1093 C1094 1.398 . S
C1094 H1082 0.950 . S
C1094 C1093 1.398 . S
C1094 C1095 1.391 . S
C1095 H1083 0.950 . S
C1095 C1091 1.393 . S
C1095 C1094 1.391 . S
H1096 C1104 0.950 . S
H1097 C1109 0.950 . S
H1098 C1106 0.950 . S
H1099 C1108 0.950 . S
H1100 C1110 0.950 . S
H1101 C1112 0.950 . S
H1102 C1114 0.950 . S
H1103 C1115 0.950 . S
C1104 H1096 0.950 . S
C1104 C1105 1.386 . S
C1104 C1106 1.391 . S
C1105 C1104 1.386 . S
C1105 C1109 1.393 . S
C1106 H1098 0.950 . S
C1106 C1104 1.391 . S
C1106 C1107 1.400 . S
C1107 C1106 1.400 . S
C1107 C1108 1.398 . S
C1107 C1113 1.491 . S
C1108 H1099 0.950 . S
C1108 C1107 1.398 . S
C1108 C1109 1.391 . S
C1109 H1097 0.950 . S
C1109 C1105 1.393 . S
C1109 C1108 1.391 . S
C1110 H1100 0.950 . S
C1110 C1111 1.386 . S
C1110 C1112 1.391 . S
C1111 C1110 1.386 . S
C1111 C1115 1.393 . S
C1112 H1101 0.950 . S
C1112 C1110 1.391 . S
C1112 C1113 1.400 . S
C1113 C1107 1.491 . S
C1113 C1112 1.400 . S
C1113 C1114 1.398 . S
C1114 H1102 0.950 . S
C1114 C1113 1.398 . S
C1114 C1115 1.391 . S
C1115 H1103 0.950 . S
C1115 C1111 1.393 . S
C1115 C1114 1.391 . S
H1116 C1124 0.950 . S
H1117 C1129 0.950 . S
H1118 C1126 0.950 . S
H1119 C1128 0.950 . S
H1120 C1130 0.950 . S
H1121 C1132 0.950 . S
H1122 C1134 0.950 . S
H1123 C1135 0.950 . S
C1124 H1116 0.950 . S
C1124 C1125 1.386 . S
C1124 C1126 1.391 . S
C1125 C1124 1.386 . S
C1125 C1129 1.393 . S
C1126 H1118 0.950 . S
C1126 C1124 1.391 . S
C1126 C1127 1.400 . S
C1127 C1126 1.400 . S
C1127 C1128 1.398 . S
C1127 C1133 1.491 1_565 S
C1128 H1119 0.950 . S
C1128 C1127 1.398 . S
C1128 C1129 1.391 . S
C1129 H1117 0.950 . S
C1129 C1125 1.393 . S
C1129 C1128 1.391 . S
C1130 H1120 0.950 . S
C1130 C1131 1.386 . S
C1130 C1132 1.391 . S
C1131 C1130 1.386 . S
C1131 C1135 1.393 . S
C1132 H1121 0.950 . S
C1132 C1130 1.391 . S
C1132 C1133 1.400 . S
C1133 C1127 1.491 1_545 S
C1133 C1132 1.400 . S
C1133 C1134 1.398 . S
C1134 H1122 0.950 . S
C1134 C1133 1.398 . S
C1134 C1135 1.391 . S
C1135 H1123 0.950 . S
C1135 C1131 1.393 . S
C1135 C1134 1.391 . S
H1136 C1144 0.950 . S
H1137 C1149 0.950 . S
H1138 C1146 0.950 1_554 S
H1139 C1148 0.950 . S
H1140 C1150 0.950 . S
H1141 C1152 0.950 1_556 S
H1142 C1154 0.950 . S
H1143 C1155 0.950 . S
C1144 H1136 0.950 . S
C1144 C1145 1.386 . S
C1144 C1146 1.391 . S
C1145 C1144 1.386 . S
C1145 C1149 1.393 . S
C1146 H1138 0.950 1_556 S
C1146 C1144 1.391 . S
C1146 C1147 1.400 . S
C1147 C1146 1.400 . S
C1147 C1148 1.398 . S
C1147 C1153 1.491 1_556 S
C1148 H1139 0.950 . S
C1148 C1147 1.398 . S
C1148 C1149 1.391 . S
C1149 H1137 0.950 . S
C1149 C1145 1.393 . S
C1149 C1148 1.391 . S
C1150 H1140 0.950 . S
C1150 C1151 1.386 . S
C1150 C1152 1.391 . S
C1151 C1150 1.386 . S
C1151 C1155 1.393 . S
C1152 H1141 0.950 1_554 S
C1152 C1150 1.391 . S
C1152 C1153 1.400 . S
C1153 C1147 1.491 1_554 S
C1153 C1152 1.400 . S
C1153 C1154 1.398 . S
C1154 H1142 0.950 . S
C1154 C1153 1.398 . S
C1154 C1155 1.391 . S
C1155 H1143 0.950 . S
C1155 C1151 1.393 . S
C1155 C1154 1.391 . S
H1156 C1164 0.950 . S
H1157 C1169 0.950 . S
H1158 C1166 0.950 . S
H1159 C1168 0.950 . S
H1160 C1170 0.950 . S
H1161 C1172 0.950 . S
H1162 C1174 0.950 . S
H1163 C1175 0.950 . S
C1164 H1156 0.950 . S
C1164 C1165 1.386 . S
C1164 C1166 1.391 . S
C1165 C1164 1.386 . S
C1165 C1169 1.393 . S
C1166 H1158 0.950 . S
C1166 C1164 1.391 . S
C1166 C1167 1.400 . S
C1167 C1166 1.400 . S
C1167 C1168 1.398 . S
C1167 C1173 1.491 1_545 S
C1168 H1159 0.950 . S
C1168 C1167 1.398 . S
C1168 C1169 1.391 . S
C1169 H1157 0.950 . S
C1169 C1165 1.393 . S
C1169 C1168 1.391 . S
C1170 H1160 0.950 . S
C1170 C1171 1.386 . S
C1170 C1172 1.391 . S
C1171 C1170 1.386 . S
C1171 C1175 1.393 . S
C1172 H1161 0.950 . S
C1172 C1170 1.391 . S
C1172 C1173 1.400 . S
C1173 C1167 1.491 1_565 S
C1173 C1172 1.400 . S
C1173 C1174 1.398 . S
C1174 H1162 0.950 . S
C1174 C1173 1.398 . S
C1174 C1175 1.391 . S
C1175 H1163 0.950 . S
C1175 C1171 1.393 . S
C1175 C1174 1.391 . S
H1176 C1184 0.950 . S
H1177 C1189 0.950 . S
H1178 C1186 0.950 . S
H1179 C1188 0.950 . S
H1180 C1190 0.950 . S
H1181 C1192 0.950 . S
H1182 C1194 0.950 . S
H1183 C1195 0.950 . S
C1184 H1176 0.950 . S
C1184 C1185 1.386 . S
C1184 C1186 1.391 . S
C1185 C1184 1.386 . S
C1185 C1189 1.393 . S
C1186 H1178 0.950 . S
C1186 C1184 1.391 . S
C1186 C1187 1.400 . S
C1187 C1186 1.400 . S
C1187 C1188 1.398 . S
C1187 C1193 1.491 . S
C1188 H1179 0.950 . S
C1188 C1187 1.398 . S
C1188 C1189 1.391 . S
C1189 H1177 0.950 . S
C1189 C1185 1.393 . S
C1189 C1188 1.391 . S
C1190 H1180 0.950 . S
C1190 C1191 1.386 . S
C1190 C1192 1.391 . S
C1191 C1190 1.386 . S
C1191 C1195 1.393 . S
C1192 H1181 0.950 . S
C1192 C1190 1.391 . S
C1192 C1193 1.400 . S
C1193 C1187 1.491 . S
C1193 C1192 1.400 . S
C1193 C1194 1.398 . S
C1194 H1182 0.950 . S
C1194 C1193 1.398 . S
C1194 C1195 1.391 . S
C1195 H1183 0.950 . S
C1195 C1191 1.393 . S
C1195 C1194 1.391 . S
H1196 C1204 0.950 . S
H1197 C1209 0.950 . S
H1198 C1206 0.950 1_556 S
H1199 C1208 0.950 . S
H1200 C1210 0.950 . S
H1201 C1212 0.950 1_554 S
H1202 C1214 0.950 . S
H1203 C1215 0.950 . S
C1204 H1196 0.950 . S
C1204 C1205 1.386 . S
C1204 C1206 1.391 . S
C1205 C1204 1.386 . S
C1205 C1209 1.393 . S
C1206 H1198 0.950 1_554 S
C1206 C1204 1.391 . S
C1206 C1207 1.400 . S
C1207 C1206 1.400 . S
C1207 C1208 1.398 . S
C1207 C1213 1.491 1_554 S
C1208 H1199 0.950 . S
C1208 C1207 1.398 . S
C1208 C1209 1.391 . S
C1209 H1197 0.950 . S
C1209 C1205 1.393 . S
C1209 C1208 1.391 . S
C1210 H1200 0.950 . S
C1210 C1211 1.386 . S
C1210 C1212 1.391 . S
C1211 C1210 1.386 . S
C1211 C1215 1.393 . S
C1212 H1201 0.950 1_556 S
C1212 C1210 1.391 . S
C1212 C1213 1.400 . S
C1213 C1207 1.491 1_556 S
C1213 C1212 1.400 . S
C1213 C1214 1.398 . S
C1214 H1202 0.950 . S
C1214 C1213 1.398 . S
C1214 C1215 1.391 . S
C1215 H1203 0.950 . S
C1215 C1211 1.393 . S
C1215 C1214 1.391 . S
H1216 C1224 0.950 . S
H1217 C1229 0.950 . S
H1218 C1226 0.950 . S
H1219 C1228 0.950 . S
H1220 C1230 0.950 . S
H1221 C1232 0.950 . S
H1222 C1234 0.950 . S
H1223 C1235 0.950 . S
C1224 H1216 0.950 . S
C1224 C1225 1.386 . S
C1224 C1226 1.391 . S
C1225 C1224 1.386 . S
C1225 C1229 1.393 . S
C1226 H1218 0.950 . S
C1226 C1224 1.391 . S
C1226 C1227 1.400 . S
C1227 C1226 1.400 . S
C1227 C1228 1.398 . S
C1227 C1233 1.491 . S
C1228 H1219 0.950 . S
C1228 C1227 1.398 . S
C1228 C1229 1.391 . S
C1229 H1217 0.950 . S
C1229 C1225 1.393 . S
C1229 C1228 1.391 . S
C1230 H1220 0.950 . S
C1230 C1231 1.386 . S
C1230 C1232 1.391 . S
C1231 C1230 1.386 . S
C1231 C1235 1.393 . S
C1232 H1221 0.950 . S
C1232 C1230 1.391 . S
C1232 C1233 1.400 . S
C1233 C1227 1.491 . S
C1233 C1232 1.400 . S
C1233 C1234 1.398 . S
C1234 H1222 0.950 . S
C1234 C1233 1.398 . S
C1234 C1235 1.391 . S
C1235 H1223 0.950 . S
C1235 C1231 1.393 . S
C1235 C1234 1.391 . S
H1236 C1244 0.950 . S
H1237 C1249 0.950 . S
H1238 C1246 0.950 . S
H1239 C1248 0.950 . S
H1240 C1250 0.950 . S
H1241 C1252 0.950 . S
H1242 C1254 0.950 . S
H1243 C1255 0.950 . S
C1244 H1236 0.950 . S
C1244 C1245 1.386 . S
C1244 C1246 1.391 . S
C1245 C1244 1.386 . S
C1245 C1249 1.393 . S
C1246 H1238 0.950 . S
C1246 C1244 1.391 . S
C1246 C1247 1.400 . S
C1247 C1246 1.400 . S
C1247 C1248 1.398 . S
C1247 C1253 1.491 . S
C1248 H1239 0.950 . S
C1248 C1247 1.398 . S
C1248 C1249 1.391 . S
C1249 H1237 0.950 . S
C1249 C1245 1.393 . S
C1249 C1248 1.391 . S
C1250 H1240 0.950 . S
C1250 C1251 1.386 . S
C1250 C1252 1.391 . S
C1251 C1250 1.386 . S
C1251 C1255 1.393 . S
C1252 H1241 0.950 . S
C1252 C1250 1.391 . S
C1252 C1253 1.400 . S
C1253 C1247 1.491 . S
C1253 C1252 1.400 . S
C1253 C1254 1.398 . S
C1254 H1242 0.950 . S
C1254 C1253 1.398 . S
C1254 C1255 1.391 . S
C1255 H1243 0.950 . S
C1255 C1251 1.393 . S
C1255 C1254 1.391 . S
H1256 C1264 0.950 . S
H1257 C1269 0.950 . S
H1258 C1266 0.950 . S
H1259 C1268 0.950 . S
H1260 C1270 0.950 . S
H1261 C1272 0.950 . S
H1262 C1274 0.950 . S
H1263 C1275 0.950 . S
C1264 H1256 0.950 . S
C1264 C1265 1.386 . S
C1264 C1266 1.391 . S
C1265 C1264 1.386 . S
C1265 C1269 1.393 . S
C1266 H1258 0.950 . S
C1266 C1264 1.391 . S
C1266 C1267 1.400 . S
C1267 C1266 1.400 . S
C1267 C1268 1.398 . S
C1267 C1273 1.491 . S
C1268 H1259 0.950 . S
C1268 C1267 1.398 . S
C1268 C1269 1.391 . S
C1269 H1257 0.950 . S
C1269 C1265 1.393 . S
C1269 C1268 1.391 . S
C1270 H1260 0.950 . S
C1270 C1271 1.386 . S
C1270 C1272 1.391 . S
C1271 C1270 1.386 . S
C1271 C1275 1.393 . S
C1272 H1261 0.950 . S
C1272 C1270 1.391 . S
C1272 C1273 1.400 . S
C1273 C1267 1.491 . S
C1273 C1272 1.400 . S
C1273 C1274 1.398 . S
C1274 H1262 0.950 . S
C1274 C1273 1.398 . S
C1274 C1275 1.391 . S
C1275 H1263 0.950 . S
C1275 C1271 1.393 . S
C1275 C1274 1.391 . S
H1276 C1284 0.950 . S
H1277 C1289 0.950 . S
H1278 C1286 0.950 . S
H1279 C1288 0.950 . S
H1280 C1290 0.950 . S
H1281 C1292 0.950 . S
H1282 C1294 0.950 . S
H1283 C1295 0.950 . S
C1284 H1276 0.950 . S
C1284 C1285 1.386 . S
C1284 C1286 1.391 . S
C1285 C1284 1.386 . S
C1285 C1289 1.393 . S
C1286 H1278 0.950 . S
C1286 C1284 1.391 . S
C1286 C1287 1.400 . S
C1287 C1286 1.400 . S
C1287 C1288 1.398 . S
C1287 C1293 1.491 . S
C1288 H1279 0.950 . S
C1288 C1287 1.398 . S
C1288 C1289 1.391 . S
C1289 H1277 0.950 . S
C1289 C1285 1.393 . S
C1289 C1288 1.391 . S
C1290 H1280 0.950 . S
C1290 C1291 1.386 . S
C1290 C1292 1.391 . S
C1291 C1290 1.386 . S
C1291 C1295 1.393 . S
C1292 H1281 0.950 . S
C1292 C1290 1.391 . S
C1292 C1293 1.400 . S
C1293 C1287 1.491 . S
C1293 C1292 1.400 . S
C1293 C1294 1.398 . S
C1294 H1282 0.950 . S
C1294 C1293 1.398 . S
C1294 C1295 1.391 . S
C1295 H1283 0.950 . S
C1295 C1291 1.393 . S
C1295 C1294 1.391 . S
C345 C0 1.446 . S
C351 C126 1.447 . S
C365 C27 1.449 . S
C371 C153 1.447 . S
C385 C155 1.447 . S
C391 C28 1.445 . S
C405 C112 1.445 . S
C411 C42 1.446 . S
C425 C141 1.445 . S
C431 C68 1.445 . S
C445 C70 1.452 . S
C451 C167 1.451 . S
C465 C96 1.450 . S
C471 C124 1.449 . S
C485 C138 1.452 . S
C491 C99 1.451 . S
C505 C56 1.447 . S
C511 C169 1.446 . S
C525 C111 1.445 . S
C531 C222 1.445 . S
C545 C237 1.452 . S
C551 C82 1.451 . S
C565 C54 1.452 . S
C571 C195 1.451 . S
C585 C208 1.445 . S
C591 C84 1.446 . S
C605 C12 1.452 . S
C611 C279 1.450 . S
C625 C40 1.452 . S
C631 C265 1.451 . S
C645 C210 1.452 . S
C651 C294 1.452 . S
C665 C320 1.452 . S
C671 C181 1.452 . S
C685 C334 1.448 . S
C691 C225 1.450 . S
C705 C292 1.447 . S
C711 C196 1.448 . S
C725 C308 1.445 . S
C731 C250 1.445 . S
C745 C253 1.451 . S
C751 C322 1.449 . S
C765 C280 1.452 . S
C771 C183 1.452 . S
C785 C267 1.445 . S
C791 C306 1.444 . S
C805 C15 1.449 . S
C811 C238 1.450 . S
C825 C69 0.925 . S
C831 C1 0.932 . S
C845 C26 0.918 . S
C851 C71 0.917 . S
C865 C29 0.917 . S
C871 C97 0.921 . S
C885 C98 0.926 . S
C891 C43 0.933 . S
C905 C113 0.930 . S
C911 C139 0.934 . S
C925 C127 0.927 . S
C931 C140 0.919 . S
C945 C166 0.929 . S
C951 C152 0.934 . S
C965 C125 0.928 . S
C971 C154 0.920 . S
C985 C55 0.925 . S
C991 C168 0.932 . S
C1005 C110 0.932 . S
C1011 C264 0.925 . S
C1025 C57 0.927 . S
C1031 C194 0.933 . S
C1045 C278 0.927 . S
C1051 C83 0.919 . S
C1065 C209 0.928 . S
C1071 C14 0.933 . S
C1085 C13 0.920 . S
C1091 C236 0.916 . S
C1105 C41 0.920 . S
C1111 C223 0.917 . S
C1125 C211 0.934 . S
C1131 C251 0.929 . S
C1145 C252 0.923 . S
C1151 C180 0.917 . S
C1165 C224 0.932 . S
C1171 C182 0.933 . S
C1185 C197 0.923 . S
C1191 C266 0.917 . S
C1205 C307 0.927 . S
C1211 C293 0.933 . S
C1225 C309 0.934 . S
C1231 C295 0.928 . S
C1245 C323 0.918 . S
C1251 C321 0.917 . S
C1265 C281 0.931 . S
C1271 C335 0.933 . S
C1285 C239 0.919 . S
C1291 C85 0.917 . S
