# Generated by pormake.
# Topology rob, (6)-cn, num edge types: 1
# Building blocks:
#     Node 0, Type 0, BuildingBlock: KUMJIN_clean_sbu_0, # of connection points: 6
#     Node 1, Type 0, BuildingBlock: KUMJIN_clean_sbu_0, # of connection points: 6
#     Node 2, Type 0, BuildingBlock: KUMJIN_clean_sbu_0, # of connection points: 6
#     Node 3, Type 0, BuildingBlock: KUMJIN_clean_sbu_0, # of connection points: 6
#     Edge 4, Type (0, 0), BuildingBlock: TEMPAE_clean_linker_10, # of connection points: 2
#     Edge 5, Type (0, 0), BuildingBlock: TEMPAE_clean_linker_10, # of connection points: 2
#     Edge 6, Type (0, 0), BuildingBlock: TEMPAE_clean_linker_10, # of connection points: 2
#     Edge 7, Type (0, 0), BuildingBlock: TEMPAE_clean_linker_10, # of connection points: 2
#     Edge 8, Type (0, 0), BuildingBlock: TEMPAE_clean_linker_10, # of connection points: 2
#     Edge 9, Type (0, 0), BuildingBlock: TEMPAE_clean_linker_10, # of connection points: 2
#     Edge 10, Type (0, 0), BuildingBlock: TEMPAE_clean_linker_10, # of connection points: 2
#     Edge 11, Type (0, 0), BuildingBlock: TEMPAE_clean_linker_10, # of connection points: 2
#     Edge 12, Type (0, 0), BuildingBlock: TEMPAE_clean_linker_10, # of connection points: 2
#     Edge 13, Type (0, 0), BuildingBlock: TEMPAE_clean_linker_10, # of connection points: 2
#     Edge 14, Type (0, 0), BuildingBlock: TEMPAE_clean_linker_10, # of connection points: 2
#     Edge 15, Type (0, 0), BuildingBlock: TEMPAE_clean_linker_10, # of connection points: 2
# Relax obj value: 0.035
# Max RMSD: 0.159
# Mean RMSD: 0.159
data_MOF--net-rob--node1-KUMJIN_clean_sbu_0--edge1-TEMPAE_clean_linker_10
_symmetry_space_group_name_H-M    P1
_symmetry_Int_Tables_number       1
_symmetry_cell_setting            triclinic
loop_
_symmetry_equiv_pos_as_xyz
'x, y, z'
_cell_length_a     16.427693
_cell_length_b     26.184306
_cell_length_c     34.124896
_cell_angle_alpha  118.73365
_cell_angle_beta   89.736537
_cell_angle_gamma 90.079303
loop_
_atom_site_label
_atom_site_type_symbol
_atom_site_fract_x
_atom_site_fract_y
_atom_site_fract_z
_atom_type_partial_charge
Eu0 Eu 0.16342 0.30233 0.05367 0.0
C1 C 0.43048 0.10451 0.983 0.0
C2 C 0.54264 0.15037 0.03396 0.0
C3 C 0.5292 0.04518 0.99582 0.0
C4 C 0.47214 0.15435 1.01208 0.0
C5 C 0.45917 0.04926 0.97412 0.0
C6 C 0.57038 0.09556 0.02603 0.0
C7 C 0.35165 1.00585 0.91987 0.0
N8 N 0.3642 0.1098 0.9617 0.0
C9 C 0.32645 0.06156 0.92919 0.0
C10 C 0.41791 0.9997 0.94276 0.0
Eu11 Eu 0.32672 0.20498 0.97785 0.0
N12 N 0.44523 0.20657 1.01798 0.0
C13 C 0.48823 0.25625 0.0439 0.0
C14 C 0.58441 0.20145 0.06229 0.0
C15 C 0.55737 0.25457 0.06701 0.0
H16 H 0.27573 0.06643 0.91115 0.0
H17 H 0.58994 0.29429 0.08832 0.0
H18 H 0.62444 0.09158 0.04245 0.0
H19 H 0.32033 0.96779 0.89488 0.0
H20 H 0.46865 0.29778 0.04801 0.0
H21 H 0.89774 0.23183 0.9436 0.0
H22 H 0.63841 0.20021 0.07993 0.0
H23 H 0.21833 0.43643 0.12915 0.0
H24 H 0.01869 0.21929 0.97985 0.0
H25 H 0.17774 0.53853 0.15417 0.0
H26 H 0.55243 1.00322 0.98924 0.0
H27 H 0.85289 0.33052 0.96081 0.0
H28 H 0.87112 0.43855 1.00605 0.0
H29 H 0.4377 0.9566 0.93545 0.0
H30 H 0.94732 0.52147 0.06315 0.0
N31 N 0.04675 0.30985 1.01574 0.0
C32 C 0.00125 0.2627 0.98754 0.0
C33 C 0.9072 0.32524 0.97642 0.0
C34 C 0.95127 0.37357 1.00714 0.0
C35 C 0.93214 0.26955 0.96676 0.0
C36 C 0.02201 0.36437 0.0263 0.0
H37 H 0.06187 0.55929 0.11776 0.0
N38 N 0.13025 0.40073 0.07743 0.0
C39 C 0.14579 0.50315 0.12697 0.0
C40 C 0.06509 0.41122 0.05813 0.0
C41 C 0.16882 0.44544 0.11264 0.0
C42 C 0.08051 0.51475 0.10639 0.0
C43 C 0.03816 0.46854 0.07226 0.0
O44 O 0.15116 0.32945 0.1248 0.0
O45 O 0.27438 0.25025 0.04632 0.0
O46 O 0.24785 0.15061 0.99795 0.0
O47 O 0.12839 0.20623 0.01919 0.0
O48 O 0.26773 0.33018 0.103 0.0
O49 O 0.05744 0.27649 0.07925 0.0
O50 O 0.33884 0.16547 0.90541 0.0
O51 O 0.21646 0.25742 0.98509 0.0
O52 O 0.24292 0.36061 0.03783 0.0
O53 O 0.35739 0.30091 1.00488 0.0
O54 O 0.22213 0.17686 0.92865 0.0
O55 O 0.42891 0.22785 0.94781 0.0
C56 C 0.30997 0.28295 0.08246 0.0
C57 C 0.01892 0.33979 0.15442 0.0
C58 C 0.94636 0.36269 0.22362 0.0
C59 C 0.00037 0.32706 0.18906 0.0
C60 C 0.91052 0.41087 0.22281 0.0
C61 C 0.98169 0.38759 0.15385 0.0
C62 C 0.9277 0.42288 0.1879 0.0
C63 C 0.16932 0.1575 1.00794 0.0
C64 C 0.08065 0.30483 0.12079 0.0
C65 C 0.96835 0.47785 0.05305 0.0
C66 C 0.92521 0.43056 0.02036 0.0
C67 C 0.18105 0.22473 0.94887 0.0
C68 C 0.46971 0.15811 0.8744 0.0
C69 C 0.49133 0.17189 0.84068 0.0
C70 C 0.54671 0.13679 0.80675 0.0
C71 C 0.58096 0.088 0.80739 0.0
C72 C 0.50516 0.10967 0.87479 0.0
C73 C 0.56065 0.07488 0.84141 0.0
C74 C 0.31839 0.3515 0.022 0.0
C75 C 0.40623 0.19265 0.90691 0.0
H76 H 0.0297 0.29046 0.18982 0.0
H77 H 0.86881 0.43897 0.24901 0.0
H78 H 0.99495 0.39798 0.12745 0.0
H79 H 0.89957 0.45995 0.18744 0.0
H80 H 0.46299 0.20888 0.84004 0.0
H81 H 0.62372 0.06021 0.78171 0.0
H82 H 0.48917 0.09833 0.90041 0.0
H83 H 0.58742 0.03726 0.84163 0.0
Eu84 Eu 0.67682 0.80835 0.06223 0.0
C85 C 0.91309 0.59293 0.97786 0.0
C86 C 0.03262 0.62775 0.02483 0.0
C87 C 0.00371 0.52429 0.98434 0.0
C88 C 0.96208 0.6386 1.00649 0.0
C89 C 0.93384 0.53516 0.96611 0.0
C90 C 0.05265 0.57038 1.01396 0.0
C91 C 0.8179 0.50273 0.9167 0.0
N92 N 0.84685 0.60472 0.96009 0.0
C93 C 0.80048 0.56073 0.92887 0.0
C94 C 0.88463 0.48994 0.93567 0.0
Eu95 Eu 0.82217 0.70319 0.98098 0.0
N96 N 0.94232 0.69338 1.01528 0.0
C97 C 0.99265 0.739 0.04071 0.0
C98 C 0.08201 0.67471 0.05268 0.0
C99 C 0.0622 0.73053 0.06036 0.0
H100 H 0.74917 0.57075 0.91401 0.0
H101 H 0.10067 0.7671 0.0813 0.0
H102 H 0.10639 0.56109 0.02776 0.0
H103 H 0.78024 0.46797 0.89258 0.0
H104 H 0.9789 0.78253 0.0471 0.0
H105 H 0.40468 0.77458 0.96079 0.0
H106 H 0.13632 0.66817 0.06764 0.0
H107 H 0.75346 0.93273 0.14303 0.0
H108 H 0.51871 0.74573 0.99242 0.0
H109 H 0.73448 0.03857 0.17399 0.0
H110 H 0.02011 0.48035 0.97594 0.0
H111 H 0.38212 0.87856 0.98351 0.0
H112 H 0.42173 0.98293 0.03254 0.0
H113 H 0.89843 0.44511 0.92617 0.0
H114 H 0.51373 0.0545 0.08955 0.0
N115 N 0.56397 0.83204 0.03086 0.0
C116 C 0.51057 0.79118 1.00231 0.0
C117 C 0.433 0.86604 0.99717 0.0
C118 C 0.48496 0.908 0.02852 0.0
C119 C 0.44546 0.80736 0.98433 0.0
C120 C 0.55087 0.88937 0.04488 0.0
H121 H 0.62873 0.07554 0.14286 0.0
N122 N 0.66143 0.91019 0.09373 0.0
C123 C 0.69684 0.00841 0.14666 0.0
C124 C 0.6012 0.92968 0.07734 0.0
C125 C 0.70744 0.94839 0.12897 0.0
C126 C 0.63718 0.02916 0.12895 0.0
C127 C 0.58755 0.98975 0.09441 0.0
O128 O 0.66857 0.82982 0.13245 0.0
O129 O 0.77996 0.7479 0.05142 0.0
O130 O 0.73918 0.65408 1.00424 0.0
O131 O 0.62649 0.71575 0.02561 0.0
O132 O 0.78721 0.82874 0.1067 0.0
O133 O 0.56803 0.78645 0.08808 0.0
O134 O 0.82858 0.66317 0.90825 0.0
O135 O 0.71999 0.76394 0.99148 0.0
O136 O 0.76026 0.86248 0.0441 0.0
O137 O 0.8675 0.79646 1.0095 0.0
O138 O 0.71185 0.68276 0.93627 0.0
O139 O 0.92141 0.72484 0.94887 0.0
C140 C 0.82181 0.77849 0.08575 0.0
C141 C 0.5384 0.8439 0.1651 0.0
C142 C 0.46982 0.85995 0.23357 0.0
C143 C 0.52636 0.82923 0.1992 0.0
C144 C 0.42625 0.90629 0.23386 0.0
C145 C 0.4953 0.89064 0.16599 0.0
C146 C 0.43955 0.92177 0.2004 0.0
C147 C 0.66123 0.66503 1.01485 0.0
C148 C 0.59542 0.8091 0.12882 0.0
C149 C 0.52367 0.00854 0.07738 0.0
C150 C 0.47192 0.96779 0.04477 0.0
C151 C 0.67914 0.73389 0.95655 0.0
C152 C 0.95554 0.65847 0.87383 0.0
C153 C 0.96838 0.67439 0.8405 0.0
C154 C 0.0276 0.646 0.8072 0.0
C155 C 0.07341 0.60079 0.80739 0.0
C156 C 0.00107 0.6131 0.87357 0.0
C157 C 0.05974 0.58429 0.84029 0.0
C158 C 0.8346 0.84913 0.02691 0.0
C159 C 0.89482 0.69079 0.90855 0.0
H160 H 0.55945 0.79285 0.19832 0.0
H161 H 0.38221 0.93054 0.26002 0.0
H162 H 0.50426 0.90264 0.14002 0.0
H163 H 0.40597 0.95761 0.2009 0.0
H164 H 0.93347 0.70992 0.84111 0.0
H165 H 0.11939 0.57813 0.78202 0.0
H166 H 0.99156 0.6003 0.89908 0.0
H167 H 0.09508 0.54935 0.84015 0.0
Eu168 Eu 0.16737 0.71037 0.48643 0.0
C169 C 0.41008 0.91921 0.55838 0.0
C170 C 0.52322 0.88305 0.50635 0.0
C171 C 0.48722 0.98557 0.54157 0.0
C172 C 0.45831 0.87336 0.52918 0.0
C173 C 0.42426 0.97599 0.56524 0.0
C174 C 0.53709 0.93932 0.51251 0.0
C175 C 0.31815 0.01029 0.62148 0.0
N176 N 0.35044 0.90847 0.58099 0.0
C177 C 0.30695 0.95323 0.61375 0.0
C178 C 0.37607 0.02159 0.59653 0.0
Eu179 Eu 0.32693 0.80993 0.56156 0.0
N180 N 0.44285 0.81948 0.52381 0.0
C181 C 0.493 0.77387 0.49795 0.0
C182 C 0.57277 0.83599 0.47841 0.0
C183 C 0.55802 0.78127 0.47454 0.0
H184 H 0.26113 0.94435 0.6325 0.0
H185 H 0.59648 0.74467 0.45337 0.0
H186 H 0.58678 0.94762 0.49536 0.0
H187 H 0.28183 0.04542 0.64644 0.0
H188 H 0.48222 0.73119 0.4942 0.0
H189 H 0.8959 0.76995 0.59288 0.0
H190 H 0.62307 0.8416 0.46017 0.0
H191 H 0.23815 0.57773 0.41471 0.0
H192 H 0.01345 0.78685 0.55583 0.0
H193 H 0.21655 0.47536 0.39675 0.0
H194 H 0.49911 0.02886 0.54633 0.0
H195 H 0.86473 0.67042 0.57952 0.0
H196 H 0.89759 0.5637 0.53884 0.0
H197 H 0.38449 0.0658 0.60249 0.0
H198 H 0.98633 0.48399 0.48687 0.0
N199 N 0.0507 0.69798 0.52227 0.0
C200 C 0.00102 0.74314 0.54947 0.0
C201 C 0.91671 0.67759 0.5631 0.0
C202 C 0.96599 0.63118 0.53391 0.0
C203 C 0.93406 0.73378 0.57068 0.0
C204 C 0.03327 0.6429 0.51366 0.0
H205 H 0.10824 0.45093 0.43547 0.0
N206 N 0.14427 0.61079 0.46386 0.0
C207 C 0.17827 0.50942 0.4213 0.0
C208 C 0.08211 0.59799 0.48386 0.0
C209 C 0.19012 0.56735 0.43143 0.0
C210 C 0.11697 0.49582 0.44322 0.0
C211 C 0.06636 0.54009 0.47395 0.0
O212 O 0.15424 0.67748 0.41455 0.0
O213 O 0.27691 0.76341 0.49279 0.0
O214 O 0.24715 0.86127 0.53944 0.0
O215 O 0.12797 0.806 0.52097 0.0
O216 O 0.27266 0.6827 0.4372 0.0
O217 O 0.06535 0.7381 0.46026 0.0
O218 O 0.33942 0.84558 0.63372 0.0
O219 O 0.21804 0.75632 0.55504 0.0
O220 O 0.24645 0.65838 0.50808 0.0
O221 O 0.36555 0.7141 0.52877 0.0
O222 O 0.22175 0.83653 0.61108 0.0
O223 O 0.43061 0.78588 0.58936 0.0
C224 C 0.31351 0.73053 0.45679 0.0
C225 C 0.0236 0.67637 0.38565 0.0
C226 C 0.9524 0.66162 0.31835 0.0
C227 C 0.01475 0.68813 0.34983 0.0
C228 C 0.89953 0.62249 0.32289 0.0
C229 C 0.97103 0.63679 0.3895 0.0
C230 C 0.90933 0.60987 0.35807 0.0
C231 C 0.16847 0.85442 0.53043 0.0
C232 C 0.08769 0.70658 0.41863 0.0
C233 C -6e-05 0.52822 0.49432 0.0
C234 C 0.94952 0.5736 0.524 0.0
C235 C 0.18155 0.78837 0.59124 0.0
C236 C 0.4695 0.8499 0.66434 0.0
C237 C 0.48119 0.83679 0.69934 0.0
C238 C 0.5413 0.86568 0.73184 0.0
C239 C 0.589 0.90853 0.72916 0.0
C240 C 0.51697 0.89313 0.66236 0.0
C241 C 0.57638 0.92239 0.69479 0.0
C242 C 0.32486 0.66522 0.51781 0.0
C243 C 0.40694 0.81794 0.63071 0.0
H244 H 0.05533 0.71895 0.34701 0.0
H245 H 0.85111 0.60138 0.29901 0.0
H246 H 0.97751 0.62701 0.41679 0.0
H247 H 0.86869 0.57937 0.36111 0.0
H248 H 0.44447 0.80328 0.70081 0.0
H249 H 0.63552 0.93157 0.75385 0.0
H250 H 0.50813 0.90408 0.63582 0.0
H251 H 0.613 0.95576 0.69321 0.0
Eu252 Eu 0.687 0.19975 0.46982 0.0
C253 C 0.87113 0.4361 0.5877 0.0
C254 C 0.00043 0.42286 0.54962 0.0
C255 C 0.94993 0.52045 0.59852 0.0
C256 C 0.9299 0.39946 0.55869 0.0
C257 C 0.88086 0.49705 0.60831 0.0
C258 C 0.00986 0.48342 0.56952 0.0
C259 C 0.75872 0.50713 0.65114 0.0
N260 N 0.80732 0.41217 0.59828 0.0
C261 C 0.75302 0.44646 0.63075 0.0
C262 C 0.82263 0.53258 0.6396 0.0
Eu263 Eu 0.80312 0.30963 0.56458 0.0
N264 N 0.92093 0.34114 0.54184 0.0
C265 C 0.98194 0.30401 0.51714 0.0
C266 C 0.06098 0.38477 0.52226 0.0
C267 C 0.05197 0.32508 0.50629 0.0
H268 H 0.70439 0.42677 0.64029 0.0
H269 H 0.09925 0.29524 0.48591 0.0
H270 H 0.06397 0.50184 0.56308 0.0
H271 H 0.71442 0.53417 0.67608 0.0
H272 H 0.97689 0.25782 0.50515 0.0
H273 H 0.38833 0.22158 0.54828 0.0
H274 H 0.11579 0.40109 0.51432 0.0
H275 H 0.78386 0.08023 0.39651 0.0
H276 H 0.51391 0.25605 0.52963 0.0
H277 H 0.76931 0.97314 0.36155 0.0
H278 H 0.95822 0.56706 0.61388 0.0
H279 H 0.36663 0.11627 0.52021 0.0
H280 H 0.41497 0.0144 0.47244 0.0
H281 H 0.82772 0.57954 0.65594 0.0
H282 H 0.51953 0.94661 0.42249 0.0
N283 N 0.56639 0.17143 0.49288 0.0
C284 C 0.50661 0.21 0.51747 0.0
C285 C 0.4228 0.13124 0.51235 0.0
C286 C 0.48244 0.09175 0.48544 0.0
C287 C 0.43471 0.19063 0.52811 0.0
C288 C 0.55478 0.1134 0.47643 0.0
H289 H 0.6517 0.93085 0.38124 0.0
N290 N 0.67893 0.09756 0.4376 0.0
C291 C 0.7251 1.00135 0.38597 0.0
C292 C 0.613 0.07532 0.44805 0.0
C293 C 0.73333 0.06182 0.40589 0.0
C294 C 0.65875 0.97763 0.39727 0.0
C295 C 0.60079 0.01465 0.42792 0.0
O296 O 0.69521 0.17086 0.39821 0.0
O297 O 0.7779 0.27082 0.4919 0.0
O298 O 0.71754 0.36064 0.54513 0.0
O299 O 0.62348 0.28836 0.50143 0.0
O300 O 0.80762 0.19513 0.43579 0.0
O301 O 0.58956 0.21925 0.43584 0.0
O302 O 0.7972 0.33547 0.63571 0.0
O303 O 0.71275 0.23831 0.54237 0.0
O304 O 0.77198 0.1493 0.4905 0.0
O305 O 0.86773 0.2214 0.53199 0.0
O306 O 0.68339 0.3128 0.59914 0.0
O307 O 0.90456 0.29167 0.59704 0.0
C308 C 0.82884 0.24874 0.46033 0.0
C309 C 0.5718 0.1553 0.35892 0.0
C310 C 0.50125 0.14031 0.29165 0.0
C311 C 0.55539 0.17251 0.32668 0.0
C312 C 0.46479 0.09 0.28864 0.0
C313 C 0.53555 0.10475 0.3554 0.0
C314 C 0.4826 0.07206 0.32018 0.0
C315 C 0.64729 0.34345 0.52399 0.0
C316 C 0.6244 0.19209 0.39667 0.0
C317 C 0.52974 0.99299 0.43754 0.0
C318 C 0.47047 0.03146 0.466 0.0
C319 C 0.66217 0.2593 0.57415 0.0
C320 C 0.92183 0.35401 0.67417 0.0
C321 C 0.93827 0.33715 0.70652 0.0
C322 C 0.99166 0.36988 0.74168 0.0
C323 C 0.02755 0.42039 0.74481 0.0
C324 C 0.95732 0.4048 0.67766 0.0
C325 C 0.00965 0.43805 0.7131 0.0
C326 C 0.84294 0.16643 0.51099 0.0
C327 C 0.87009 0.31644 0.63637 0.0
H328 H 0.58267 0.21197 0.32964 0.0
H329 H 0.4225 0.06481 0.26198 0.0
H330 H 0.54733 0.09097 0.38001 0.0
H331 H 0.45444 0.03321 0.31768 0.0
H332 H 0.91153 0.29753 0.70358 0.0
H333 H 0.06935 0.44592 0.77165 0.0
H334 H 0.94548 0.41828 0.65289 0.0
H335 H 0.03723 0.4771 0.71565 0.0
C336 C 0.64385 0.57683 0.02407 0.0
C337 C 0.60991 0.61871 1.01461 0.0
C338 C 0.59469 0.53462 0.02656 0.0
C339 C 0.51013 0.53341 1.01809 0.0
C340 C 0.47595 0.57495 1.00763 0.0
C341 C 0.52615 0.61766 1.00664 0.0
C342 C 0.6331 0.49178 0.03873 0.0
C343 C 0.38658 0.57393 0.99703 0.0
C344 C 0.40395 0.38917 0.98181 0.0
C345 C 0.36244 0.39957 0.02088 0.0
C346 C 0.45062 0.43287 0.98015 0.0
C347 C 0.45775 0.4877 0.01898 0.0
C348 C 0.41542 0.4985 0.05855 0.0
C349 C 0.36714 0.45434 0.05882 0.0
C350 C 0.49259 0.42022 0.93692 0.0
C351 C 0.42308 0.556 0.10088 0.0
H352 H 0.70853 0.57798 0.03067 0.0
H353 H 0.49993 0.64985 0.99904 0.0
H354 H 0.60178 0.49381 0.06833 0.0
H355 H 0.62591 0.44679 1.01085 0.0
H356 H 0.69901 0.50032 0.04628 0.0
H357 H 0.37 0.60862 0.98861 0.0
H358 H 0.37043 0.53106 0.96842 0.0
H359 H 0.34912 0.57959 0.02597 0.0
H360 H 0.39954 0.34669 0.95238 0.0
H361 H 0.33578 0.46186 0.08913 0.0
H362 H 0.55954 0.423 0.94154 0.0
H363 H 0.47497 0.45328 0.92699 0.0
H364 H 0.47738 0.37631 0.9092 0.0
H365 H 0.48772 0.56372 0.11148 0.0
H366 H 0.38576 0.55753 0.12866 0.0
H367 H 0.40396 0.59219 0.09481 0.0
C368 C 0.454 0.61149 0.51116 0.0
C369 C 0.36928 0.61561 0.51666 0.0
C370 C 0.49699 0.56511 0.51089 0.0
C371 C 0.45429 0.52262 0.51724 0.0
C372 C 0.36864 0.52646 0.52268 0.0
C373 C 0.32704 0.5727 0.52193 0.0
C374 C 0.58818 0.56182 0.50412 0.0
C375 C 0.32111 0.48253 0.53026 0.0
C376 C 0.5594 0.37808 0.48253 0.0
C377 C 0.59411 0.38783 0.52295 0.0
C378 C 0.51309 0.42145 0.48015 0.0
C379 C 0.49989 0.47515 0.5194 0.0
C380 C 0.53292 0.4844 0.56057 0.0
C381 C 0.58034 0.44069 0.56171 0.0
C382 C 0.48055 0.41051 0.43547 0.0
C383 C 0.51896 0.54067 0.60328 0.0
H384 H 0.4868 0.64432 0.50676 0.0
H385 H 0.26152 0.57596 0.52655 0.0
H386 H 0.61891 0.5658 0.53434 0.0
H387 H 0.60544 0.5189 0.47579 0.0
H388 H 0.61154 0.59663 0.49729 0.0
H389 H 0.25456 0.49132 0.53321 0.0
H390 H 0.33194 0.438 0.50233 0.0
H391 H 0.34233 0.48314 0.56131 0.0
H392 H 0.57084 0.33724 0.45245 0.0
H393 H 0.60584 0.44761 0.59304 0.0
H394 H 0.50766 0.44223 0.42634 0.0
H395 H 0.41366 0.41709 0.43742 0.0
H396 H 0.49434 0.36578 0.40841 0.0
H397 H 0.54636 0.57746 0.60038 0.0
H398 H 0.54571 0.53979 0.6328 0.0
H399 H 0.45274 0.54952 0.60916 0.0
C400 C 0.16114 0.0715 0.02054 0.0
C401 C 0.12377 0.10879 1.00735 0.0
C402 C 0.11568 0.02884 0.02459 0.0
C403 C 0.0317 0.02259 1.01393 0.0
C404 C 0.99461 0.05884 0.999 0.0
C405 C 0.04094 0.10206 0.99648 0.0
C406 C 0.15693 0.99161 0.04137 0.0
C407 C 0.90588 0.05225 0.98595 0.0
C408 C 0.92912 0.87948 0.98532 0.0
C409 C 0.88384 0.89416 0.02419 0.0
C410 C 0.97766 0.92087 0.98155 0.0
C411 C 0.98228 0.97795 1.018 0.0
C412 C 0.93712 0.9929 0.05757 0.0
C413 C 0.88744 0.95082 0.05997 0.0
C414 C 0.02276 0.90376 0.9383 0.0
C415 C 0.94164 0.05315 0.09738 0.0
H416 H 0.22513 0.07711 0.02931 0.0
H417 H 0.01223 0.1306 0.98589 0.0
H418 H 0.12668 0.99796 0.07255 0.0
H419 H 0.15096 0.94487 1.01646 0.0
H420 H 0.22264 1.0021 0.04826 0.0
H421 H 0.88746 0.08222 0.97306 0.0
H422 H 0.89345 1.00684 0.95985 0.0
H423 H 0.86706 0.06115 1.01523 0.0
H424 H 0.92535 0.83571 0.9574 0.0
H425 H 0.85314 0.96179 0.09015 0.0
H426 H 0.08903 0.91095 0.94463 0.0
H427 H 0.00262 0.93157 0.92383 0.0
H428 H 0.01269 0.85742 0.9132 0.0
H429 H 0.00591 0.0643 0.10798 0.0
H430 H 0.90528 0.05699 0.12621 0.0
H431 H 0.91898 0.0858 0.08813 0.0
C432 C 0.93344 0.13593 0.55413 0.0
C433 C 0.89548 0.12274 0.51367 0.0
C434 C 0.97992 0.09402 0.55841 0.0
C435 C 0.99016 0.03812 0.52097 0.0
C436 C 0.95351 0.02512 0.4797 0.0
C437 C 0.90579 0.06751 0.47672 0.0
C438 C 0.01602 0.10905 0.6033 0.0
C439 C 0.96424 0.96635 0.4388 0.0
C440 C 0.16462 0.94322 0.52116 0.0
C441 C 0.12359 0.90304 0.53024 0.0
C442 C 0.12207 0.98756 0.51809 0.0
C443 C 0.03679 0.99251 0.52527 0.0
C444 C 0.99549 0.95305 0.53574 0.0
C445 C 0.0393 0.9083 0.53753 0.0
C446 C 0.16809 0.02816 0.50612 0.0
C447 C 0.90492 0.95782 0.5447 0.0
H448 H 0.92454 0.17849 0.58292 0.0
H449 H 0.87753 0.05768 0.44533 0.0
H450 H 0.99038 0.07985 0.61536 0.0
H451 H 0.08283 0.10205 0.6002 0.0
H452 H 0.00365 0.15489 0.62883 0.0
H453 H 0.93466 0.96415 0.40881 0.0
H454 H 0.02999 0.95646 0.43156 0.0
H455 H 0.93779 0.93188 0.445 0.0
H456 H 0.22977 0.93901 0.51516 0.0
H457 H 0.00752 0.87757 0.54489 0.0
H458 H 0.15905 0.07397 0.53238 0.0
H459 H 0.14406 0.02427 0.47446 0.0
H460 H 0.23447 0.01874 0.50201 0.0
H461 H 0.88933 1.00226 0.57151 0.0
H462 H 0.8829 0.92573 0.55485 0.0
H463 H 0.87159 0.95062 0.51427 0.0
C464 C 0.53888 0.16782 0.23314 0.0
C465 C 0.47926 0.1612 0.25987 0.0
C466 C 0.51798 0.18789 0.203 0.0
C467 C 0.43606 0.20284 0.20053 0.0
C468 C 0.37613 0.19726 0.2282 0.0
C469 C 0.39834 0.17573 0.25713 0.0
C470 C 0.58282 0.19169 0.17298 0.0
C471 C 0.28841 0.21365 0.22705 0.0
C472 C 0.38972 0.30041 0.14959 0.0
C473 C 0.35415 0.26098 0.10893 0.0
C474 C 0.41838 0.28188 0.17939 0.0
C475 C 0.41212 0.2223 0.16786 0.0
C476 C 0.37803 0.18213 0.12624 0.0
C477 C 0.34937 0.20211 0.09751 0.0
C478 C 0.44957 0.32674 0.22453 0.0
C479 C 0.36541 0.11859 0.1124 0.0
H480 H 0.60144 0.15628 0.2353 0.0
H481 H 0.35262 0.17103 0.2782 0.0
H482 H 0.56844 0.16046 0.13764 0.0
H483 H 0.58387 0.2357 0.17589 0.0
H484 H 0.64449 0.18188 0.18085 0.0
H485 H 0.25169 0.21368 0.25449 0.0
H486 H 0.28463 0.25748 0.22961 0.0
H487 H 0.26088 0.18214 0.19473 0.0
H488 H 0.39184 0.34626 0.15892 0.0
H489 H 0.31992 0.17156 0.06694 0.0
H490 H 0.5099 0.31384 0.23131 0.0
H491 H 0.40725 0.32956 0.25096 0.0
H492 H 0.45491 0.37065 0.22727 0.0
H493 H 0.38324 0.09131 0.07682 0.0
H494 H 0.29957 0.11075 0.11475 0.0
H495 H 0.39934 0.10394 0.13319 0.0
C496 C 0.51771 0.83712 0.29308 0.0
C497 C 0.45383 0.84178 0.26785 0.0
C498 C 0.50293 0.8191 0.3252 0.0
C499 C 0.42266 0.80441 0.33147 0.0
C500 C 0.35836 0.80797 0.30534 0.0
C501 C 0.3746 0.82739 0.27428 0.0
C502 C 0.5728 0.81654 0.35283 0.0
C503 C 0.27229 0.79134 0.31018 0.0
C504 C 0.38996 0.71136 0.38796 0.0
C505 C 0.35557 0.75164 0.42894 0.0
C506 C 0.41399 0.72815 0.35625 0.0
C507 C 0.40502 0.78703 0.36625 0.0
C508 C 0.37305 0.82821 0.40837 0.0
C509 C 0.34821 0.80984 0.43886 0.0
C510 C 0.44187 0.68181 0.31067 0.0
C511 C 0.35859 0.89115 0.42107 0.0
H512 H 0.579 0.84839 0.28809 0.0
H513 H 0.32548 0.8303 0.25432 0.0
H514 H 0.56186 0.84782 0.38859 0.0
H515 H 0.57707 0.77274 0.35015 0.0
H516 H 0.63213 0.82661 0.34238 0.0
H517 H 0.23174 0.78911 0.28343 0.0
H518 H 0.27147 0.74845 0.30938 0.0
H519 H 0.24703 0.824 0.34293 0.0
H520 H 0.39383 0.66593 0.3797 0.0
H521 H 0.31929 0.84096 0.4696 0.0
H522 H 0.49779 0.69545 0.29992 0.0
H523 H 0.3939 0.67506 0.28583 0.0
H524 H 0.45382 0.63954 0.30983 0.0
H525 H 0.29219 0.89864 0.4206 0.0
H526 H 0.3893 0.90474 0.39862 0.0
H527 H 0.37921 0.9194 0.45589 0.0
C528 C 0.65081 0.81661 0.94078 0.0
C529 C 0.64149 0.75784 0.92934 0.0
C530 C 0.6281 0.8369 0.911 0.0
C531 C 0.59717 0.79728 0.8683 0.0
C532 C 0.58489 0.73835 0.85728 0.0
C533 C 0.60648 0.71954 0.88807 0.0
C534 C 0.6406 0.90028 0.92451 0.0
C535 C 0.55331 0.69436 0.81197 0.0
C536 C 0.49131 0.85012 0.79499 0.0
C537 C 0.5556 0.84993 0.76771 0.0
C538 C 0.50411 0.83445 0.82858 0.0
C539 C 0.58264 0.81651 0.83415 0.0
C540 C 0.64753 0.8157 0.80629 0.0
C541 C 0.63344 0.83323 0.77389 0.0
C542 C 0.43291 0.83584 0.85722 0.0
C543 C 0.73151 0.79487 0.80987 0.0
H544 H 0.6787 0.8464 0.97227 0.0
H545 H 0.59949 0.67399 0.87896 0.0
H546 H 0.65447 0.92667 0.96068 0.0
H547 H 0.69205 0.90473 0.90522 0.0
H548 H 0.58561 0.91817 0.91667 0.0
H549 H 0.54581 0.65042 0.80891 0.0
H550 H 0.49376 0.70873 0.80555 0.0
H551 H 0.59608 0.69102 0.78556 0.0
H552 H 0.43102 0.863 0.79024 0.0
H553 H 0.68294 0.83235 0.75245 0.0
H554 H 0.4518 0.85016 0.89215 0.0
H555 H 0.40709 0.79141 0.84357 0.0
H556 H 0.38382 0.86509 0.85743 0.0
H557 H 0.75646 0.82279 0.84375 0.0
H558 H 0.7747 0.79528 0.78487 0.0
H559 H 0.72801 0.74983 0.80496 0.0
C560 C 0.56366 0.23494 0.61876 0.0
C561 C 0.64001 0.22711 0.59832 0.0
C562 C 0.54782 0.2143 0.64925 0.0
C563 C 0.61181 0.18942 0.66232 0.0
C564 C 0.68908 0.18114 0.64151 0.0
C565 C 0.70165 0.19907 0.60919 0.0
C566 C 0.4633 0.22101 0.66866 0.0
C567 C 0.76047 0.15771 0.65574 0.0
C568 C 0.58873 0.20634 0.77924 0.0
C569 C 0.56644 0.1499 0.76992 0.0
C570 C 0.60613 0.21934 0.74458 0.0
C571 C 0.5988 0.17523 0.69946 0.0
C572 C 0.57713 0.11808 0.69003 0.0
C573 C 0.56193 0.10598 0.72529 0.0
C574 C 0.63269 0.28023 0.75628 0.0
C575 C 0.56897 0.06982 0.64267 0.0
H576 H 0.51699 0.25882 0.61201 0.0
H577 H 0.76188 0.19524 0.59498 0.0
H578 H 0.44309 0.17947 0.66687 0.0
H579 H 0.46364 0.25461 0.7044 0.0
H580 H 0.41832 0.23403 0.65086 0.0
H581 H 0.81295 0.14671 0.63238 0.0
H582 H 0.78049 0.19113 0.68945 0.0
H583 H 0.74316 0.11838 0.65812 0.0
H584 H 0.59345 0.24022 0.81375 0.0
H585 H 0.54443 0.06232 0.71791 0.0
H586 H 0.58634 0.30088 0.74486 0.0
H587 H 0.69056 0.27865 0.73881 0.0
H588 H 0.64158 0.30822 0.79279 0.0
H589 H 0.54001 0.03039 0.64088 0.0
H590 H 0.62986 0.05745 0.6267 0.0
H591 H 0.53254 0.08524 0.62318 0.0
C592 C 0.85089 0.69794 0.10369 0.0
C593 C 0.86317 0.75546 0.11251 0.0
C594 C 0.87298 0.68025 0.1351 0.0
C595 C 0.90767 0.72111 0.17637 0.0
C596 C 0.92461 0.77826 0.1842 0.0
C597 C 0.9026 0.79457 0.15205 0.0
C598 C 0.85435 0.61884 0.12527 0.0
C599 C 0.96049 0.82346 0.22787 0.0
C600 C 0.86559 0.69562 0.27537 0.0
C601 C 0.94126 0.67604 0.28159 0.0
C602 C 0.85442 0.71127 0.24173 0.0
C603 C 0.91993 0.70548 0.21264 0.0
C604 C -0.00352 0.68526 0.21861 0.0
C605 C 0.00646 0.67155 0.25342 0.0
C606 C 0.77291 0.73529 0.23802 0.0
C607 C 0.06864 0.67927 0.18912 0.0
H608 H 0.8199 0.66757 0.07349 0.0
H609 H 0.91199 0.83916 0.15901 0.0
H610 H 0.90707 0.60005 0.13417 0.0
H611 H 0.80195 0.61911 0.14596 0.0
H612 H 0.83855 0.5904 0.08959 0.0
H613 H 0.97226 0.86544 0.22816 0.0
H614 H 0.91813 0.83155 0.2557 0.0
H615 H 0.01849 0.80745 0.23448 0.0
H616 H 0.81555 0.70006 0.29763 0.0
H617 H 0.06519 0.65666 0.25834 0.0
H618 H 0.74547 0.7066 0.20496 0.0
H619 H 0.78109 0.77886 0.24056 0.0
H620 H 0.72943 0.7394 0.26444 0.0
H621 H 0.0499 0.66562 0.15426 0.0
H622 H 0.11366 0.64747 0.18882 0.0
H623 H 0.09972 0.72195 0.20228 0.0
C624 C 0.92878 0.26835 0.41391 0.0
C625 C 0.85338 0.27981 0.43574 0.0
C626 C 0.94597 0.28758 0.38273 0.0
C627 C 0.88408 0.31503 0.37063 0.0
C628 C 0.80794 0.32725 0.39301 0.0
C629 C 0.7942 0.31048 0.42589 0.0
C630 C 0.02943 0.27656 0.36153 0.0
C631 C 0.73859 0.35366 0.3799 0.0
C632 C 0.93861 0.39462 0.30543 0.0
C633 C 0.92903 0.35062 0.26114 0.0
C634 C 0.92416 0.38369 0.34134 0.0
C635 C 0.89771 0.32782 0.33288 0.0
C636 C 0.8856 0.2837 0.28814 0.0
C637 C 0.90268 0.29537 0.25278 0.0
C638 C 0.93771 0.43185 0.3883 0.0
C639 C 0.85386 0.22432 0.27761 0.0
H640 H 0.97353 0.24286 0.42025 0.0
H641 H 0.73458 0.3173 0.44133 0.0
H642 H 0.02557 0.2428 0.32592 0.0
H643 H 0.05335 0.31687 0.36255 0.0
H644 H 0.07339 0.26164 0.37856 0.0
H645 H 0.68745 0.36737 0.4043 0.0
H646 H 0.75928 0.39185 0.37679 0.0
H647 H 0.7153 0.32096 0.34673 0.0
H648 H 0.95904 0.43738 0.31195 0.0
H649 H 0.89413 0.26156 0.21853 0.0
H650 H 0.97427 0.4154 0.40711 0.0
H651 H 0.8785 0.44676 0.40588 0.0
H652 H 0.96893 0.46992 0.38898 0.0
H653 H 0.89842 0.20201 0.28854 0.0
H654 H 0.84227 0.19627 0.24135 0.0
H655 H 0.79636 0.22885 0.29624 0.0
C656 C 0.95355 0.34517 0.80138 0.0
C657 C 0.0131 0.34912 0.77347 0.0
C658 C 0.97328 0.32409 0.83099 0.0
C659 C 0.05378 0.30515 0.83154 0.0
C660 C 0.1135 0.30784 0.80251 0.0
C661 C 0.0926 0.33062 0.77421 0.0
C662 C 0.90837 0.32241 0.8618 0.0
C663 C 0.19937 0.28647 0.80119 0.0
C664 C 0.14193 0.30558 0.93391 0.0
C665 C 0.13701 0.24667 0.92244 0.0
C666 C 0.11211 0.32549 0.90535 0.0
C667 C 0.0771 0.28538 0.86406 0.0
C668 C 0.06959 0.22604 0.85285 0.0
C669 C 0.09971 0.20738 0.88229 0.0
C670 C 0.12307 0.38885 0.9183 0.0
C671 C 0.03457 0.18168 0.80862 0.0
H672 H 0.89191 0.35922 0.80034 0.0
H673 H 0.13797 0.33297 0.75195 0.0
H674 H 0.89326 0.27656 0.85203 0.0
H675 H 0.9311 0.34297 0.89664 0.0
H676 H 0.85167 0.34492 0.86092 0.0
H677 H 0.23647 0.28727 0.77419 0.0
H678 H 0.22978 0.31405 0.83358 0.0
H679 H 0.19843 0.24128 0.79605 0.0
H680 H 0.17212 0.33596 0.96438 0.0
H681 H 0.09682 0.16163 0.87319 0.0
H682 H 0.0695 0.40568 0.90839 0.0
H683 H 0.17696 0.39363 0.90065 0.0
H684 H 0.1334 0.41599 0.95478 0.0
H685 H 0.97449 0.19627 0.80306 0.0
H686 H 0.02733 0.13822 0.80649 0.0
H687 H 0.07541 0.17714 0.78113 0.0
C688 C 0.14326 0.70681 0.60611 0.0
C689 C 0.1395 0.76601 0.61838 0.0
C690 C 0.11792 0.68642 0.6353 0.0
C691 C 0.0896 0.72651 0.6786 0.0
C692 C 0.08348 0.78636 0.69093 0.0
C693 C 0.10783 0.80527 0.66047 0.0
C694 C 0.12787 0.62233 0.62006 0.0
C695 C 0.05758 0.8311 0.73744 0.0
C696 C 0.97884 0.67165 0.74929 0.0
C697 C 0.04325 0.66532 0.7735 0.0
C698 C 0.99286 0.69162 0.71828 0.0
C699 C 0.07292 0.70659 0.71203 0.0
C700 C 0.13794 0.70084 0.73678 0.0
C701 C 0.12241 0.67966 0.76685 0.0
C702 C 0.9223 0.69635 0.69199 0.0
C703 C 0.22398 0.71723 0.73163 0.0
H704 H 0.1695 0.67622 0.57441 0.0
H705 H 0.10618 0.85133 0.67049 0.0
H706 H 0.19271 0.61324 0.62338 0.0
H707 H 0.09032 0.60731 0.63959 0.0
H708 H 0.11212 0.59646 0.58414 0.0
H709 H 0.04844 0.87483 0.74035 0.0
H710 H 0.00044 0.81775 0.74737 0.0
H711 H 0.10517 0.83457 0.76159 0.0
H712 H 0.91758 0.66036 0.75433 0.0
H713 H 0.17203 0.6755 0.78598 0.0
H714 H 0.93458 0.66971 0.65566 0.0
H715 H 0.91509 0.74201 0.69889 0.0
H716 H 0.864 0.68208 0.70021 0.0
H717 H 0.24698 0.6868 0.69765 0.0
H718 H 0.26602 0.71576 0.75648 0.0
H719 H 0.22536 0.76173 0.73535 0.0
loop_
_geom_bond_atom_site_label_1
_geom_bond_atom_site_label_2
_geom_bond_distance
_geom_bond_site_symmetry_2
_ccdc_geom_bond_type
Eu0 N31 2.657 . S
Eu0 N38 2.609 . S
Eu0 O44 2.558 . S
Eu0 O45 2.612 . S
Eu0 O47 2.339 . S
Eu0 O48 2.563 . S
Eu0 O49 2.419 . S
Eu0 O51 2.380 1_554 S
Eu0 O52 2.432 . S
Eu0 C64 2.848 . S
C1 C4 1.429 . S
C1 C5 1.411 . S
C1 N8 1.377 . S
C2 C4 1.420 1_554 S
C2 C6 1.423 . S
C2 C14 1.392 . S
C3 C5 1.420 . S
C3 C6 1.351 1_556 S
C3 H26 0.931 . S
C4 C1 1.429 . S
C4 C2 1.420 1_556 S
C4 N12 1.362 . S
C5 C1 1.411 . S
C5 C3 1.420 . S
C5 C10 1.395 . S
C6 C2 1.423 . S
C6 C3 1.351 1_554 S
C6 H18 0.930 . S
C7 C9 1.381 1_565 S
C7 C10 1.389 1_565 S
C7 H19 0.944 . S
N8 C1 1.377 . S
N8 C9 1.321 . S
N8 Eu11 2.609 . S
C9 C7 1.381 1_545 S
C9 N8 1.321 . S
C9 H16 0.930 . S
C10 C5 1.395 . S
C10 C7 1.389 1_545 S
C10 H29 0.930 1_545 S
Eu11 N8 2.609 . S
Eu11 N12 2.657 . S
Eu11 O45 2.380 1_556 S
Eu11 O46 2.432 . S
Eu11 O50 2.558 . S
Eu11 O51 2.612 . S
Eu11 O53 2.339 . S
Eu11 O54 2.563 . S
Eu11 O55 2.419 . S
Eu11 C75 2.848 . S
N12 C4 1.362 . S
N12 Eu11 2.657 . S
N12 C13 1.334 1_556 S
C13 N12 1.334 1_554 S
C13 C15 1.413 . S
C13 H20 0.929 . S
C14 C2 1.392 . S
C14 C15 1.367 . S
C14 H22 0.930 . S
C15 C13 1.413 . S
C15 C14 1.367 . S
C15 H17 0.930 . S
H16 C9 0.930 . S
H17 C15 0.930 . S
H18 C6 0.930 . S
H19 C7 0.944 . S
H20 C13 0.929 . S
H21 C35 0.930 . S
H22 C14 0.930 . S
H23 C41 0.930 . S
H24 C32 0.929 1_455 S
H25 C39 0.930 . S
H26 C3 0.931 . S
H27 C33 0.930 . S
H28 C66 0.930 . S
H29 C10 0.930 1_565 S
H30 C65 0.931 . S
N31 Eu0 2.657 . S
N31 C32 1.334 1_454 S
N31 C36 1.362 1_455 S
C32 H24 0.929 1_655 S
C32 N31 1.334 1_656 S
C32 C35 1.413 . S
C33 H27 0.930 . S
C33 C34 1.392 . S
C33 C35 1.367 . S
C34 C33 1.392 . S
C34 C36 1.420 1_556 S
C34 C66 1.423 . S
C35 H21 0.930 . S
C35 C32 1.413 . S
C35 C33 1.367 . S
C36 N31 1.362 1_655 S
C36 C34 1.420 1_554 S
C36 C40 1.429 1_655 S
H37 C42 0.930 1_655 S
N38 Eu0 2.609 . S
N38 C40 1.377 . S
N38 C41 1.321 . S
C39 H25 0.930 . S
C39 C41 1.400 . S
C39 C42 1.386 . S
C40 C36 1.429 1_455 S
C40 N38 1.377 . S
C40 C43 1.411 1_455 S
C41 H23 0.930 . S
C41 N38 1.321 . S
C41 C39 1.400 . S
C42 H37 0.930 1_455 S
C42 C39 1.386 . S
C42 C43 1.395 1_455 S
C43 C40 1.411 1_655 S
C43 C42 1.395 1_655 S
C43 C65 1.420 . S
O44 Eu0 2.558 . S
O44 C64 1.257 . S
O45 Eu0 2.612 . S
O45 Eu11 2.380 1_554 S
O45 C56 1.276 . S
O46 Eu11 2.432 . S
O46 C63 1.264 . S
O47 Eu0 2.339 . S
O47 C63 1.254 1_554 S
O48 Eu0 2.563 . S
O48 C56 1.235 . S
O49 Eu0 2.419 . S
O49 C64 1.249 . S
O50 Eu11 2.558 . S
O50 C75 1.257 . S
O51 Eu0 2.380 1_556 S
O51 Eu11 2.612 . S
O51 C67 1.276 . S
O52 Eu0 2.432 . S
O52 C74 1.264 . S
O53 Eu11 2.339 . S
O53 C74 1.254 1_556 S
O54 Eu11 2.563 . S
O54 C67 1.235 . S
O55 Eu11 2.419 . S
O55 C75 1.249 . S
C56 O45 1.276 . S
C56 O48 1.235 . S
C57 C59 1.393 . S
C57 C61 1.395 . S
C57 C64 1.492 . S
C58 C59 1.392 1_655 S
C58 C60 1.386 . S
C59 C57 1.393 . S
C59 C58 1.392 1_455 S
C59 H76 0.930 . S
C60 C58 1.386 . S
C60 C62 1.395 . S
C60 H77 0.930 . S
C61 C57 1.395 . S
C61 C62 1.379 1_455 S
C61 H78 0.930 . S
C62 C60 1.395 . S
C62 C61 1.379 1_655 S
C62 H79 0.930 . S
C63 O46 1.264 . S
C63 O47 1.254 1_556 S
C64 Eu0 2.848 . S
C64 O44 1.257 . S
C64 O49 1.249 . S
C64 C57 1.492 . S
C65 H30 0.931 . S
C65 C43 1.420 . S
C65 C66 1.351 1_554 S
C66 H28 0.930 . S
C66 C34 1.423 . S
C66 C65 1.351 1_556 S
C67 O51 1.276 . S
C67 O54 1.235 . S
C68 C69 1.393 . S
C68 C72 1.395 . S
C68 C75 1.492 . S
C69 C68 1.393 . S
C69 C70 1.392 . S
C69 H80 0.930 . S
C70 C69 1.392 . S
C70 C71 1.386 . S
C71 C70 1.386 . S
C71 C73 1.395 . S
C71 H81 0.930 . S
C72 C68 1.395 . S
C72 C73 1.379 . S
C72 H82 0.930 . S
C73 C71 1.395 . S
C73 C72 1.379 . S
C73 H83 0.930 . S
C74 O52 1.264 . S
C74 O53 1.254 1_554 S
C75 Eu11 2.848 . S
C75 O50 1.257 . S
C75 O55 1.249 . S
C75 C68 1.492 . S
H76 C59 0.930 . S
H77 C60 0.930 . S
H78 C61 0.930 . S
H79 C62 0.930 . S
H80 C69 0.930 . S
H81 C71 0.930 . S
H82 C72 0.930 . S
H83 C73 0.930 . S
Eu84 N115 2.657 . S
Eu84 N122 2.609 . S
Eu84 O128 2.558 . S
Eu84 O129 2.612 . S
Eu84 O131 2.339 . S
Eu84 O132 2.563 . S
Eu84 O133 2.419 . S
Eu84 O135 2.380 1_554 S
Eu84 O136 2.432 . S
Eu84 C148 2.848 . S
C85 C88 1.429 1_655 S
C85 C89 1.411 1_655 S
C85 N92 1.377 . S
C86 C88 1.420 1_554 S
C86 C90 1.423 . S
C86 C98 1.392 . S
C87 C89 1.420 . S
C87 C90 1.351 1_556 S
C87 H110 0.931 . S
C88 C85 1.429 1_455 S
C88 C86 1.420 1_556 S
C88 N96 1.362 1_455 S
C89 C85 1.411 1_455 S
C89 C87 1.420 . S
C89 C94 1.395 1_455 S
C90 C86 1.423 . S
C90 C87 1.351 1_554 S
C90 H102 0.930 . S
C91 C93 1.400 . S
C91 C94 1.386 . S
C91 H103 0.930 . S
N92 C85 1.377 . S
N92 C93 1.321 . S
N92 Eu95 2.609 . S
C93 C91 1.400 . S
C93 N92 1.321 . S
C93 H100 0.930 . S
C94 C89 1.395 1_655 S
C94 C91 1.386 . S
C94 H113 0.930 1_655 S
Eu95 N92 2.609 . S
Eu95 N96 2.657 . S
Eu95 O129 2.380 1_556 S
Eu95 O130 2.432 . S
Eu95 O134 2.558 . S
Eu95 O135 2.612 . S
Eu95 O137 2.339 . S
Eu95 O138 2.563 . S
Eu95 O139 2.419 . S
Eu95 C159 2.848 . S
N96 C88 1.362 1_655 S
N96 Eu95 2.657 . S
N96 C97 1.334 1_656 S
C97 N96 1.334 1_454 S
C97 C99 1.413 . S
C97 H104 0.929 1_455 S
C98 C86 1.392 . S
C98 C99 1.367 . S
C98 H106 0.930 . S
C99 C97 1.413 . S
C99 C98 1.367 . S
C99 H101 0.930 . S
H100 C93 0.930 . S
H101 C99 0.930 . S
H102 C90 0.930 . S
H103 C91 0.930 . S
H104 C97 0.929 1_655 S
H105 C119 0.930 . S
H106 C98 0.930 . S
H107 C125 0.930 . S
H108 C116 0.929 . S
H109 C123 0.944 . S
H110 C87 0.931 . S
H111 C117 0.930 . S
H112 C150 0.930 . S
H113 C94 0.930 1_455 S
H114 C149 0.931 . S
N115 Eu84 2.657 . S
N115 C116 1.334 1_554 S
N115 C120 1.362 . S
C116 H108 0.929 . S
C116 N115 1.334 1_556 S
C116 C119 1.413 . S
C117 H111 0.930 . S
C117 C118 1.392 . S
C117 C119 1.367 . S
C118 C117 1.392 . S
C118 C120 1.420 1_556 S
C118 C150 1.423 . S
C119 H105 0.930 . S
C119 C116 1.413 . S
C119 C117 1.367 . S
C120 N115 1.362 . S
C120 C118 1.420 1_554 S
C120 C124 1.429 . S
H121 C126 0.930 1_545 S
N122 Eu84 2.609 . S
N122 C124 1.377 . S
N122 C125 1.321 . S
C123 H109 0.944 . S
C123 C125 1.381 1_545 S
C123 C126 1.389 1_545 S
C124 C120 1.429 . S
C124 N122 1.377 . S
C124 C127 1.411 . S
C125 H107 0.930 . S
C125 N122 1.321 . S
C125 C123 1.381 1_565 S
C126 H121 0.930 1_565 S
C126 C123 1.389 1_565 S
C126 C127 1.395 . S
C127 C124 1.411 . S
C127 C126 1.395 . S
C127 C149 1.420 . S
O128 Eu84 2.558 . S
O128 C148 1.257 . S
O129 Eu84 2.612 . S
O129 Eu95 2.380 1_554 S
O129 C140 1.276 . S
O130 Eu95 2.432 . S
O130 C147 1.264 . S
O131 Eu84 2.339 . S
O131 C147 1.254 1_554 S
O132 Eu84 2.563 . S
O132 C140 1.235 . S
O133 Eu84 2.419 . S
O133 C148 1.249 . S
O134 Eu95 2.558 . S
O134 C159 1.257 . S
O135 Eu84 2.380 1_556 S
O135 Eu95 2.612 . S
O135 C151 1.276 . S
O136 Eu84 2.432 . S
O136 C158 1.264 . S
O137 Eu95 2.339 . S
O137 C158 1.254 1_556 S
O138 Eu95 2.563 . S
O138 C151 1.235 . S
O139 Eu95 2.419 . S
O139 C159 1.249 . S
C140 O129 1.276 . S
C140 O132 1.235 . S
C141 C143 1.393 . S
C141 C145 1.395 . S
C141 C148 1.492 . S
C142 C143 1.392 . S
C142 C144 1.386 . S
C143 C141 1.393 . S
C143 C142 1.392 . S
C143 H160 0.930 . S
C144 C142 1.386 . S
C144 C146 1.395 . S
C144 H161 0.930 . S
C145 C141 1.395 . S
C145 C146 1.379 . S
C145 H162 0.930 . S
C146 C144 1.395 . S
C146 C145 1.379 . S
C146 H163 0.930 . S
C147 O130 1.264 . S
C147 O131 1.254 1_556 S
C148 Eu84 2.848 . S
C148 O128 1.257 . S
C148 O133 1.249 . S
C148 C141 1.492 . S
C149 H114 0.931 . S
C149 C127 1.420 . S
C149 C150 1.351 1_554 S
C150 H112 0.930 . S
C150 C118 1.423 . S
C150 C149 1.351 1_556 S
C151 O135 1.276 . S
C151 O138 1.235 . S
C152 C153 1.393 . S
C152 C156 1.395 . S
C152 C159 1.492 . S
C153 C152 1.393 . S
C153 C154 1.392 1_655 S
C153 H164 0.930 . S
C154 C153 1.392 1_455 S
C154 C155 1.386 . S
C155 C154 1.386 . S
C155 C157 1.395 . S
C155 H165 0.930 . S
C156 C152 1.395 . S
C156 C157 1.379 1_655 S
C156 H166 0.930 . S
C157 C155 1.395 . S
C157 C156 1.379 1_455 S
C157 H167 0.930 . S
C158 O136 1.264 . S
C158 O137 1.254 1_554 S
C159 Eu95 2.848 . S
C159 O134 1.257 . S
C159 O139 1.249 . S
C159 C152 1.492 . S
H160 C143 0.930 . S
H161 C144 0.930 . S
H162 C145 0.930 . S
H163 C146 0.930 . S
H164 C153 0.930 . S
H165 C155 0.930 . S
H166 C156 0.930 . S
H167 C157 0.930 . S
Eu168 N199 2.657 . S
Eu168 N206 2.609 . S
Eu168 O212 2.558 . S
Eu168 O213 2.612 . S
Eu168 O215 2.339 . S
Eu168 O216 2.563 . S
Eu168 O217 2.419 . S
Eu168 O219 2.380 . S
Eu168 O220 2.432 . S
Eu168 C232 2.848 . S
C169 C172 1.429 . S
C169 C173 1.411 . S
C169 N176 1.377 . S
C170 C172 1.420 . S
C170 C174 1.423 . S
C170 C182 1.392 . S
C171 C173 1.420 . S
C171 C174 1.351 . S
C171 H194 0.931 . S
C172 C169 1.429 . S
C172 C170 1.420 . S
C172 N180 1.362 . S
C173 C169 1.411 . S
C173 C171 1.420 . S
C173 C178 1.395 . S
C174 C170 1.423 . S
C174 C171 1.351 . S
C174 H186 0.930 . S
C175 C177 1.381 1_545 S
C175 C178 1.389 1_545 S
C175 H187 0.944 . S
N176 C169 1.377 . S
N176 C177 1.321 . S
N176 Eu179 2.609 . S
C177 C175 1.381 1_565 S
C177 N176 1.321 . S
C177 H184 0.930 . S
C178 C173 1.395 . S
C178 C175 1.389 1_565 S
C178 H197 0.930 1_565 S
Eu179 N176 2.609 . S
Eu179 N180 2.657 . S
Eu179 O213 2.380 . S
Eu179 O214 2.432 . S
Eu179 O218 2.558 . S
Eu179 O219 2.612 . S
Eu179 O221 2.339 . S
Eu179 O222 2.563 . S
Eu179 O223 2.419 . S
Eu179 C243 2.848 . S
N180 C172 1.362 . S
N180 Eu179 2.657 . S
N180 C181 1.334 . S
C181 N180 1.334 . S
C181 C183 1.413 . S
C181 H188 0.929 . S
C182 C170 1.392 . S
C182 C183 1.367 . S
C182 H190 0.930 . S
C183 C181 1.413 . S
C183 C182 1.367 . S
C183 H185 0.930 . S
H184 C177 0.930 . S
H185 C183 0.930 . S
H186 C174 0.930 . S
H187 C175 0.944 . S
H188 C181 0.929 . S
H189 C203 0.930 . S
H190 C182 0.930 . S
H191 C209 0.930 . S
H192 C200 0.929 1_455 S
H193 C207 0.930 . S
H194 C171 0.931 . S
H195 C201 0.930 . S
H196 C234 0.930 . S
H197 C178 0.930 1_545 S
H198 C233 0.931 . S
N199 Eu168 2.657 . S
N199 C200 1.334 1_455 S
N199 C204 1.362 1_455 S
C200 H192 0.929 1_655 S
C200 N199 1.334 1_655 S
C200 C203 1.413 . S
C201 H195 0.930 . S
C201 C202 1.392 . S
C201 C203 1.367 . S
C202 C201 1.392 . S
C202 C204 1.420 . S
C202 C234 1.423 . S
C203 H189 0.930 . S
C203 C200 1.413 . S
C203 C201 1.367 . S
C204 N199 1.362 1_655 S
C204 C202 1.420 . S
C204 C208 1.429 1_655 S
H205 C210 0.930 1_655 S
N206 Eu168 2.609 . S
N206 C208 1.377 . S
N206 C209 1.321 . S
C207 H193 0.930 . S
C207 C209 1.400 . S
C207 C210 1.386 . S
C208 C204 1.429 1_455 S
C208 N206 1.377 . S
C208 C211 1.411 1_455 S
C209 H191 0.930 . S
C209 N206 1.321 . S
C209 C207 1.400 . S
C210 H205 0.930 1_455 S
C210 C207 1.386 . S
C210 C211 1.395 1_455 S
C211 C208 1.411 1_655 S
C211 C210 1.395 1_655 S
C211 C233 1.420 . S
O212 Eu168 2.558 . S
O212 C232 1.257 . S
O213 Eu168 2.612 . S
O213 Eu179 2.380 . S
O213 C224 1.276 . S
O214 Eu179 2.432 . S
O214 C231 1.264 . S
O215 Eu168 2.339 . S
O215 C231 1.254 . S
O216 Eu168 2.563 . S
O216 C224 1.235 . S
O217 Eu168 2.419 . S
O217 C232 1.249 . S
O218 Eu179 2.558 . S
O218 C243 1.257 . S
O219 Eu168 2.380 . S
O219 Eu179 2.612 . S
O219 C235 1.276 . S
O220 Eu168 2.432 . S
O220 C242 1.264 . S
O221 Eu179 2.339 . S
O221 C242 1.254 . S
O222 Eu179 2.563 . S
O222 C235 1.235 . S
O223 Eu179 2.419 . S
O223 C243 1.249 . S
C224 O213 1.276 . S
C224 O216 1.235 . S
C225 C227 1.393 . S
C225 C229 1.395 . S
C225 C232 1.492 . S
C226 C227 1.392 1_655 S
C226 C228 1.386 . S
C227 C225 1.393 . S
C227 C226 1.392 1_455 S
C227 H244 0.930 . S
C228 C226 1.386 . S
C228 C230 1.395 . S
C228 H245 0.930 . S
C229 C225 1.395 . S
C229 C230 1.379 1_455 S
C229 H246 0.930 . S
C230 C228 1.395 . S
C230 C229 1.379 1_655 S
C230 H247 0.930 . S
C231 O214 1.264 . S
C231 O215 1.254 . S
C232 Eu168 2.848 . S
C232 O212 1.257 . S
C232 O217 1.249 . S
C232 C225 1.492 . S
C233 H198 0.931 . S
C233 C211 1.420 . S
C233 C234 1.351 . S
C234 H196 0.930 . S
C234 C202 1.423 . S
C234 C233 1.351 . S
C235 O219 1.276 . S
C235 O222 1.235 . S
C236 C237 1.393 . S
C236 C240 1.395 . S
C236 C243 1.492 . S
C237 C236 1.393 . S
C237 C238 1.392 . S
C237 H248 0.930 . S
C238 C237 1.392 . S
C238 C239 1.386 . S
C239 C238 1.386 . S
C239 C241 1.395 . S
C239 H249 0.930 . S
C240 C236 1.395 . S
C240 C241 1.379 . S
C240 H250 0.930 . S
C241 C239 1.395 . S
C241 C240 1.379 . S
C241 H251 0.930 . S
C242 O220 1.264 . S
C242 O221 1.254 . S
C243 Eu179 2.848 . S
C243 O218 1.257 . S
C243 O223 1.249 . S
C243 C236 1.492 . S
H244 C227 0.930 . S
H245 C228 0.930 . S
H246 C229 0.930 . S
H247 C230 0.930 . S
H248 C237 0.930 . S
H249 C239 0.930 . S
H250 C240 0.930 . S
H251 C241 0.930 . S
Eu252 N283 2.657 . S
Eu252 N290 2.609 . S
Eu252 O296 2.558 . S
Eu252 O297 2.612 . S
Eu252 O299 2.339 . S
Eu252 O300 2.563 . S
Eu252 O301 2.419 . S
Eu252 O303 2.380 . S
Eu252 O304 2.432 . S
Eu252 C316 2.848 . S
C253 C256 1.429 1_655 S
C253 C257 1.411 1_655 S
C253 N260 1.377 . S
C254 C256 1.420 . S
C254 C258 1.423 . S
C254 C266 1.392 . S
C255 C257 1.420 . S
C255 C258 1.351 . S
C255 H278 0.931 . S
C256 C253 1.429 1_455 S
C256 C254 1.420 . S
C256 N264 1.362 1_455 S
C257 C253 1.411 1_455 S
C257 C255 1.420 . S
C257 C262 1.395 1_455 S
C258 C254 1.423 . S
C258 C255 1.351 . S
C258 H270 0.930 . S
C259 C261 1.400 . S
C259 C262 1.386 . S
C259 H271 0.930 . S
N260 C253 1.377 . S
N260 C261 1.321 . S
N260 Eu263 2.609 . S
C261 C259 1.400 . S
C261 N260 1.321 . S
C261 H268 0.930 . S
C262 C257 1.395 1_655 S
C262 C259 1.386 . S
C262 H281 0.930 1_655 S
Eu263 N260 2.609 . S
Eu263 N264 2.657 . S
Eu263 O297 2.380 . S
Eu263 O298 2.432 . S
Eu263 O302 2.558 . S
Eu263 O303 2.612 . S
Eu263 O305 2.339 . S
Eu263 O306 2.563 . S
Eu263 O307 2.419 . S
Eu263 C327 2.848 . S
N264 C256 1.362 1_655 S
N264 Eu263 2.657 . S
N264 C265 1.334 1_655 S
C265 N264 1.334 1_455 S
C265 C267 1.413 . S
C265 H272 0.929 1_455 S
C266 C254 1.392 . S
C266 C267 1.367 . S
C266 H274 0.930 . S
C267 C265 1.413 . S
C267 C266 1.367 . S
C267 H269 0.930 . S
H268 C261 0.930 . S
H269 C267 0.930 . S
H270 C258 0.930 . S
H271 C259 0.930 . S
H272 C265 0.929 1_655 S
H273 C287 0.930 . S
H274 C266 0.930 . S
H275 C293 0.930 . S
H276 C284 0.929 . S
H277 C291 0.944 . S
H278 C255 0.931 . S
H279 C285 0.930 . S
H280 C318 0.930 . S
H281 C262 0.930 1_455 S
H282 C317 0.931 . S
N283 Eu252 2.657 . S
N283 C284 1.334 . S
N283 C288 1.362 . S
C284 H276 0.929 . S
C284 N283 1.334 . S
C284 C287 1.413 . S
C285 H279 0.930 . S
C285 C286 1.392 . S
C285 C287 1.367 . S
C286 C285 1.392 . S
C286 C288 1.420 . S
C286 C318 1.423 . S
C287 H273 0.930 . S
C287 C284 1.413 . S
C287 C285 1.367 . S
C288 N283 1.362 . S
C288 C286 1.420 . S
C288 C292 1.429 . S
H289 C294 0.930 1_565 S
N290 Eu252 2.609 . S
N290 C292 1.377 . S
N290 C293 1.321 . S
C291 H277 0.944 . S
C291 C293 1.381 1_565 S
C291 C294 1.389 1_565 S
C292 C288 1.429 . S
C292 N290 1.377 . S
C292 C295 1.411 . S
C293 H275 0.930 . S
C293 N290 1.321 . S
C293 C291 1.381 1_545 S
C294 H289 0.930 1_545 S
C294 C291 1.389 1_545 S
C294 C295 1.395 . S
C295 C292 1.411 . S
C295 C294 1.395 . S
C295 C317 1.420 . S
O296 Eu252 2.558 . S
O296 C316 1.257 . S
O297 Eu252 2.612 . S
O297 Eu263 2.380 . S
O297 C308 1.276 . S
O298 Eu263 2.432 . S
O298 C315 1.264 . S
O299 Eu252 2.339 . S
O299 C315 1.254 . S
O300 Eu252 2.563 . S
O300 C308 1.235 . S
O301 Eu252 2.419 . S
O301 C316 1.249 . S
O302 Eu263 2.558 . S
O302 C327 1.257 . S
O303 Eu252 2.380 . S
O303 Eu263 2.612 . S
O303 C319 1.276 . S
O304 Eu252 2.432 . S
O304 C326 1.264 . S
O305 Eu263 2.339 . S
O305 C326 1.254 . S
O306 Eu263 2.563 . S
O306 C319 1.235 . S
O307 Eu263 2.419 . S
O307 C327 1.249 . S
C308 O297 1.276 . S
C308 O300 1.235 . S
C309 C311 1.393 . S
C309 C313 1.395 . S
C309 C316 1.492 . S
C310 C311 1.392 . S
C310 C312 1.386 . S
C311 C309 1.393 . S
C311 C310 1.392 . S
C311 H328 0.930 . S
C312 C310 1.386 . S
C312 C314 1.395 . S
C312 H329 0.930 . S
C313 C309 1.395 . S
C313 C314 1.379 . S
C313 H330 0.930 . S
C314 C312 1.395 . S
C314 C313 1.379 . S
C314 H331 0.930 . S
C315 O298 1.264 . S
C315 O299 1.254 . S
C316 Eu252 2.848 . S
C316 O296 1.257 . S
C316 O301 1.249 . S
C316 C309 1.492 . S
C317 H282 0.931 . S
C317 C295 1.420 . S
C317 C318 1.351 . S
C318 H280 0.930 . S
C318 C286 1.423 . S
C318 C317 1.351 . S
C319 O303 1.276 . S
C319 O306 1.235 . S
C320 C321 1.393 . S
C320 C324 1.395 . S
C320 C327 1.492 . S
C321 C320 1.393 . S
C321 C322 1.392 1_655 S
C321 H332 0.930 . S
C322 C321 1.392 1_455 S
C322 C323 1.386 . S
C323 C322 1.386 . S
C323 C325 1.395 . S
C323 H333 0.930 . S
C324 C320 1.395 . S
C324 C325 1.379 1_655 S
C324 H334 0.930 . S
C325 C323 1.395 . S
C325 C324 1.379 1_455 S
C325 H335 0.930 . S
C326 O304 1.264 . S
C326 O305 1.254 . S
C327 Eu263 2.848 . S
C327 O302 1.257 . S
C327 O307 1.249 . S
C327 C320 1.492 . S
H328 C311 0.930 . S
H329 C312 0.930 . S
H330 C313 0.930 . S
H331 C314 0.930 . S
H332 C321 0.930 . S
H333 C323 0.930 . S
H334 C324 0.930 . S
H335 C325 0.930 . S
C336 C337 1.391 . S
C336 C338 1.394 . S
C336 H352 0.931 . S
C337 C336 1.391 . S
C337 C341 1.376 1_554 S
C338 C336 1.394 . S
C338 C339 1.369 . S
C338 C342 1.531 . S
C339 C338 1.369 . S
C339 C340 1.410 1_554 S
C339 C347 1.503 . S
C340 C339 1.410 1_556 S
C340 C341 1.392 . S
C340 C343 1.511 . S
C341 C337 1.376 1_556 S
C341 C340 1.392 . S
C341 H353 0.929 . S
C342 C338 1.531 . S
C342 H354 0.960 . S
C342 H355 0.962 . S
C342 H356 0.960 . S
C343 C340 1.511 . S
C343 H357 0.961 . S
C343 H358 0.961 . S
C343 H359 0.961 1_556 S
C344 C345 1.370 1_556 S
C344 C346 1.363 . S
C344 H360 0.931 . S
C345 C344 1.370 1_554 S
C345 C349 1.408 . S
C346 C344 1.363 . S
C346 C347 1.370 1_556 S
C346 C350 1.524 . S
C347 C339 1.503 . S
C347 C346 1.370 1_554 S
C347 C348 1.403 . S
C348 C347 1.403 . S
C348 C349 1.404 . S
C348 C351 1.539 . S
C349 C345 1.408 . S
C349 C348 1.404 . S
C349 H361 0.930 . S
C350 C346 1.524 . S
C350 H362 0.956 . S
C350 H363 0.961 . S
C350 H364 0.961 . S
C351 C348 1.539 . S
C351 H365 0.958 . S
C351 H366 0.961 . S
C351 H367 0.960 . S
H352 C336 0.931 . S
H353 C341 0.929 . S
H354 C342 0.960 . S
H355 C342 0.962 . S
H356 C342 0.960 . S
H357 C343 0.961 . S
H358 C343 0.961 . S
H359 C343 0.961 1_554 S
H360 C344 0.931 . S
H361 C349 0.930 . S
H362 C350 0.956 . S
H363 C350 0.961 . S
H364 C350 0.961 . S
H365 C351 0.958 . S
H366 C351 0.961 . S
H367 C351 0.960 . S
C368 C369 1.391 . S
C368 C370 1.394 . S
C368 H384 0.931 . S
C369 C368 1.391 . S
C369 C373 1.376 . S
C370 C368 1.394 . S
C370 C371 1.369 . S
C370 C374 1.531 . S
C371 C370 1.369 . S
C371 C372 1.410 . S
C371 C379 1.503 . S
C372 C371 1.410 . S
C372 C373 1.392 . S
C372 C375 1.511 . S
C373 C369 1.376 . S
C373 C372 1.392 . S
C373 H385 0.929 . S
C374 C370 1.531 . S
C374 H386 0.960 . S
C374 H387 0.962 . S
C374 H388 0.960 . S
C375 C372 1.511 . S
C375 H389 0.961 . S
C375 H390 0.961 . S
C375 H391 0.961 . S
C376 C377 1.370 . S
C376 C378 1.363 . S
C376 H392 0.931 . S
C377 C376 1.370 . S
C377 C381 1.408 . S
C378 C376 1.363 . S
C378 C379 1.370 . S
C378 C382 1.524 . S
C379 C371 1.503 . S
C379 C378 1.370 . S
C379 C380 1.403 . S
C380 C379 1.403 . S
C380 C381 1.404 . S
C380 C383 1.539 . S
C381 C377 1.408 . S
C381 C380 1.404 . S
C381 H393 0.930 . S
C382 C378 1.524 . S
C382 H394 0.956 . S
C382 H395 0.961 . S
C382 H396 0.961 . S
C383 C380 1.539 . S
C383 H397 0.958 . S
C383 H398 0.961 . S
C383 H399 0.960 . S
H384 C368 0.931 . S
H385 C373 0.929 . S
H386 C374 0.960 . S
H387 C374 0.962 . S
H388 C374 0.960 . S
H389 C375 0.961 . S
H390 C375 0.961 . S
H391 C375 0.961 . S
H392 C376 0.931 . S
H393 C381 0.930 . S
H394 C382 0.956 . S
H395 C382 0.961 . S
H396 C382 0.961 . S
H397 C383 0.958 . S
H398 C383 0.961 . S
H399 C383 0.960 . S
C400 C401 1.391 . S
C400 C402 1.394 . S
C400 H416 0.931 . S
C401 C400 1.391 . S
C401 C405 1.376 1_554 S
C402 C400 1.394 . S
C402 C403 1.369 . S
C402 C406 1.531 . S
C403 C402 1.369 . S
C403 C404 1.410 1_454 S
C403 C411 1.503 1_445 S
C404 C403 1.410 1_656 S
C404 C405 1.392 1_655 S
C404 C407 1.511 . S
C405 C401 1.376 1_556 S
C405 C404 1.392 1_455 S
C405 H417 0.929 . S
C406 C402 1.531 . S
C406 H418 0.960 1_545 S
C406 H419 0.962 1_545 S
C406 H420 0.960 . S
C407 C404 1.511 . S
C407 H421 0.961 . S
C407 H422 0.961 . S
C407 H423 0.961 . S
C408 C409 1.370 1_556 S
C408 C410 1.363 . S
C408 H424 0.931 . S
C409 C408 1.370 1_554 S
C409 C413 1.408 . S
C410 C408 1.363 . S
C410 C411 1.370 1_556 S
C410 C414 1.524 1_655 S
C411 C403 1.503 1_665 S
C411 C410 1.370 1_554 S
C411 C412 1.403 . S
C412 C411 1.403 . S
C412 C413 1.404 . S
C412 C415 1.539 1_565 S
C413 C409 1.408 . S
C413 C412 1.404 . S
C413 H425 0.930 . S
C414 C410 1.524 1_455 S
C414 H426 0.956 . S
C414 H427 0.961 . S
C414 H428 0.961 . S
C415 C412 1.539 1_545 S
C415 H429 0.958 . S
C415 H430 0.961 . S
C415 H431 0.960 . S
H416 C400 0.931 . S
H417 C405 0.929 . S
H418 C406 0.960 1_565 S
H419 C406 0.962 1_565 S
H420 C406 0.960 . S
H421 C407 0.961 . S
H422 C407 0.961 . S
H423 C407 0.961 . S
H424 C408 0.931 . S
H425 C413 0.930 . S
H426 C414 0.956 . S
H427 C414 0.961 . S
H428 C414 0.961 . S
H429 C415 0.958 . S
H430 C415 0.961 . S
H431 C415 0.960 . S
C432 C433 1.391 . S
C432 C434 1.394 . S
C432 H448 0.931 . S
C433 C432 1.391 . S
C433 C437 1.376 . S
C434 C432 1.394 . S
C434 C435 1.369 . S
C434 C438 1.531 1_655 S
C435 C434 1.369 . S
C435 C436 1.410 . S
C435 C443 1.503 1_645 S
C436 C435 1.410 . S
C436 C437 1.392 . S
C436 C439 1.511 1_545 S
C437 C433 1.376 . S
C437 C436 1.392 . S
C437 H449 0.929 . S
C438 C434 1.531 1_455 S
C438 H450 0.960 . S
C438 H451 0.962 . S
C438 H452 0.960 . S
C439 C436 1.511 1_565 S
C439 H453 0.961 . S
C439 H454 0.961 . S
C439 H455 0.961 . S
C440 C441 1.370 . S
C440 C442 1.363 . S
C440 H456 0.931 . S
C441 C440 1.370 . S
C441 C445 1.408 . S
C442 C440 1.363 . S
C442 C443 1.370 . S
C442 C446 1.524 . S
C443 C435 1.503 1_465 S
C443 C442 1.370 . S
C443 C444 1.403 . S
C444 C443 1.403 . S
C444 C445 1.404 . S
C444 C447 1.539 1_455 S
C445 C441 1.408 . S
C445 C444 1.404 . S
C445 H457 0.930 . S
C446 C442 1.524 . S
C446 H458 0.956 1_565 S
C446 H459 0.961 . S
C446 H460 0.961 . S
C447 C444 1.539 1_655 S
C447 H461 0.958 1_565 S
C447 H462 0.961 . S
C447 H463 0.960 1_565 S
H448 C432 0.931 . S
H449 C437 0.929 . S
H450 C438 0.960 . S
H451 C438 0.962 . S
H452 C438 0.960 . S
H453 C439 0.961 . S
H454 C439 0.961 . S
H455 C439 0.961 . S
H456 C440 0.931 . S
H457 C445 0.930 . S
H458 C446 0.956 1_545 S
H459 C446 0.961 . S
H460 C446 0.961 . S
H461 C447 0.958 1_545 S
H462 C447 0.961 . S
H463 C447 0.960 1_545 S
C464 C465 1.391 . S
C464 C466 1.394 . S
C464 H480 0.931 . S
C465 C464 1.391 . S
C465 C469 1.376 . S
C466 C464 1.394 . S
C466 C467 1.369 . S
C466 C470 1.531 . S
C467 C466 1.369 . S
C467 C468 1.410 . S
C467 C475 1.503 . S
C468 C467 1.410 . S
C468 C469 1.392 . S
C468 C471 1.511 . S
C469 C465 1.376 . S
C469 C468 1.392 . S
C469 H481 0.929 . S
C470 C466 1.531 . S
C470 H482 0.960 . S
C470 H483 0.962 . S
C470 H484 0.960 . S
C471 C468 1.511 . S
C471 H485 0.961 . S
C471 H486 0.961 . S
C471 H487 0.961 . S
C472 C473 1.370 . S
C472 C474 1.363 . S
C472 H488 0.931 . S
C473 C472 1.370 . S
C473 C477 1.408 . S
C474 C472 1.363 . S
C474 C475 1.370 . S
C474 C478 1.524 . S
C475 C467 1.503 . S
C475 C474 1.370 . S
C475 C476 1.403 . S
C476 C475 1.403 . S
C476 C477 1.404 . S
C476 C479 1.539 . S
C477 C473 1.408 . S
C477 C476 1.404 . S
C477 H489 0.930 . S
C478 C474 1.524 . S
C478 H490 0.956 . S
C478 H491 0.961 . S
C478 H492 0.961 . S
C479 C476 1.539 . S
C479 H493 0.958 . S
C479 H494 0.961 . S
C479 H495 0.960 . S
H480 C464 0.931 . S
H481 C469 0.929 . S
H482 C470 0.960 . S
H483 C470 0.962 . S
H484 C470 0.960 . S
H485 C471 0.961 . S
H486 C471 0.961 . S
H487 C471 0.961 . S
H488 C472 0.931 . S
H489 C477 0.930 . S
H490 C478 0.956 . S
H491 C478 0.961 . S
H492 C478 0.961 . S
H493 C479 0.958 . S
H494 C479 0.961 . S
H495 C479 0.960 . S
C496 C497 1.391 . S
C496 C498 1.394 . S
C496 H512 0.931 . S
C497 C496 1.391 . S
C497 C501 1.376 . S
C498 C496 1.394 . S
C498 C499 1.369 . S
C498 C502 1.531 . S
C499 C498 1.369 . S
C499 C500 1.410 . S
C499 C507 1.503 . S
C500 C499 1.410 . S
C500 C501 1.392 . S
C500 C503 1.511 . S
C501 C497 1.376 . S
C501 C500 1.392 . S
C501 H513 0.929 . S
C502 C498 1.531 . S
C502 H514 0.960 . S
C502 H515 0.962 . S
C502 H516 0.960 . S
C503 C500 1.511 . S
C503 H517 0.961 . S
C503 H518 0.961 . S
C503 H519 0.961 . S
C504 C505 1.370 . S
C504 C506 1.363 . S
C504 H520 0.931 . S
C505 C504 1.370 . S
C505 C509 1.408 . S
C506 C504 1.363 . S
C506 C507 1.370 . S
C506 C510 1.524 . S
C507 C499 1.503 . S
C507 C506 1.370 . S
C507 C508 1.403 . S
C508 C507 1.403 . S
C508 C509 1.404 . S
C508 C511 1.539 . S
C509 C505 1.408 . S
C509 C508 1.404 . S
C509 H521 0.930 . S
C510 C506 1.524 . S
C510 H522 0.956 . S
C510 H523 0.961 . S
C510 H524 0.961 . S
C511 C508 1.539 . S
C511 H525 0.958 . S
C511 H526 0.961 . S
C511 H527 0.960 . S
H512 C496 0.931 . S
H513 C501 0.929 . S
H514 C502 0.960 . S
H515 C502 0.962 . S
H516 C502 0.960 . S
H517 C503 0.961 . S
H518 C503 0.961 . S
H519 C503 0.961 . S
H520 C504 0.931 . S
H521 C509 0.930 . S
H522 C510 0.956 . S
H523 C510 0.961 . S
H524 C510 0.961 . S
H525 C511 0.958 . S
H526 C511 0.961 . S
H527 C511 0.960 . S
C528 C529 1.391 . S
C528 C530 1.394 . S
C528 H544 0.931 . S
C529 C528 1.391 . S
C529 C533 1.376 . S
C530 C528 1.394 . S
C530 C531 1.369 . S
C530 C534 1.531 . S
C531 C530 1.369 . S
C531 C532 1.410 . S
C531 C539 1.503 . S
C532 C531 1.410 . S
C532 C533 1.392 . S
C532 C535 1.511 . S
C533 C529 1.376 . S
C533 C532 1.392 . S
C533 H545 0.929 . S
C534 C530 1.531 . S
C534 H546 0.960 . S
C534 H547 0.962 . S
C534 H548 0.960 . S
C535 C532 1.511 . S
C535 H549 0.961 . S
C535 H550 0.961 . S
C535 H551 0.961 . S
C536 C537 1.370 . S
C536 C538 1.363 . S
C536 H552 0.931 . S
C537 C536 1.370 . S
C537 C541 1.408 . S
C538 C536 1.363 . S
C538 C539 1.370 . S
C538 C542 1.524 . S
C539 C531 1.503 . S
C539 C538 1.370 . S
C539 C540 1.403 . S
C540 C539 1.403 . S
C540 C541 1.404 . S
C540 C543 1.539 . S
C541 C537 1.408 . S
C541 C540 1.404 . S
C541 H553 0.930 . S
C542 C538 1.524 . S
C542 H554 0.956 . S
C542 H555 0.961 . S
C542 H556 0.961 . S
C543 C540 1.539 . S
C543 H557 0.958 . S
C543 H558 0.961 . S
C543 H559 0.960 . S
H544 C528 0.931 . S
H545 C533 0.929 . S
H546 C534 0.960 . S
H547 C534 0.962 . S
H548 C534 0.960 . S
H549 C535 0.961 . S
H550 C535 0.961 . S
H551 C535 0.961 . S
H552 C536 0.931 . S
H553 C541 0.930 . S
H554 C542 0.956 . S
H555 C542 0.961 . S
H556 C542 0.961 . S
H557 C543 0.958 . S
H558 C543 0.961 . S
H559 C543 0.960 . S
C560 C561 1.391 . S
C560 C562 1.394 . S
C560 H576 0.931 . S
C561 C560 1.391 . S
C561 C565 1.376 . S
C562 C560 1.394 . S
C562 C563 1.369 . S
C562 C566 1.531 . S
C563 C562 1.369 . S
C563 C564 1.410 . S
C563 C571 1.503 . S
C564 C563 1.410 . S
C564 C565 1.392 . S
C564 C567 1.511 . S
C565 C561 1.376 . S
C565 C564 1.392 . S
C565 H577 0.929 . S
C566 C562 1.531 . S
C566 H578 0.960 . S
C566 H579 0.962 . S
C566 H580 0.960 . S
C567 C564 1.511 . S
C567 H581 0.961 . S
C567 H582 0.961 . S
C567 H583 0.961 . S
C568 C569 1.370 . S
C568 C570 1.363 . S
C568 H584 0.931 . S
C569 C568 1.370 . S
C569 C573 1.408 . S
C570 C568 1.363 . S
C570 C571 1.370 . S
C570 C574 1.524 . S
C571 C563 1.503 . S
C571 C570 1.370 . S
C571 C572 1.403 . S
C572 C571 1.403 . S
C572 C573 1.404 . S
C572 C575 1.539 . S
C573 C569 1.408 . S
C573 C572 1.404 . S
C573 H585 0.930 . S
C574 C570 1.524 . S
C574 H586 0.956 . S
C574 H587 0.961 . S
C574 H588 0.961 . S
C575 C572 1.539 . S
C575 H589 0.958 . S
C575 H590 0.961 . S
C575 H591 0.960 . S
H576 C560 0.931 . S
H577 C565 0.929 . S
H578 C566 0.960 . S
H579 C566 0.962 . S
H580 C566 0.960 . S
H581 C567 0.961 . S
H582 C567 0.961 . S
H583 C567 0.961 . S
H584 C568 0.931 . S
H585 C573 0.930 . S
H586 C574 0.956 . S
H587 C574 0.961 . S
H588 C574 0.961 . S
H589 C575 0.958 . S
H590 C575 0.961 . S
H591 C575 0.960 . S
C592 C593 1.391 . S
C592 C594 1.394 . S
C592 H608 0.931 . S
C593 C592 1.391 . S
C593 C597 1.376 . S
C594 C592 1.394 . S
C594 C595 1.369 . S
C594 C598 1.531 . S
C595 C594 1.369 . S
C595 C596 1.410 . S
C595 C603 1.503 . S
C596 C595 1.410 . S
C596 C597 1.392 . S
C596 C599 1.511 1_655 S
C597 C593 1.376 . S
C597 C596 1.392 . S
C597 H609 0.929 . S
C598 C594 1.531 . S
C598 H610 0.960 . S
C598 H611 0.962 . S
C598 H612 0.960 . S
C599 C596 1.511 1_455 S
C599 H613 0.961 . S
C599 H614 0.961 . S
C599 H615 0.961 . S
C600 C601 1.370 . S
C600 C602 1.363 . S
C600 H616 0.931 . S
C601 C600 1.370 . S
C601 C605 1.408 1_655 S
C602 C600 1.363 . S
C602 C603 1.370 . S
C602 C606 1.524 . S
C603 C595 1.503 . S
C603 C602 1.370 . S
C603 C604 1.403 . S
C604 C603 1.403 . S
C604 C605 1.404 1_655 S
C604 C607 1.539 1_655 S
C605 C601 1.408 1_455 S
C605 C604 1.404 1_455 S
C605 H617 0.930 . S
C606 C602 1.524 . S
C606 H618 0.956 . S
C606 H619 0.961 . S
C606 H620 0.961 . S
C607 C604 1.539 1_455 S
C607 H621 0.958 1_455 S
C607 H622 0.961 . S
C607 H623 0.960 . S
H608 C592 0.931 . S
H609 C597 0.929 . S
H610 C598 0.960 . S
H611 C598 0.962 . S
H612 C598 0.960 . S
H613 C599 0.961 . S
H614 C599 0.961 . S
H615 C599 0.961 . S
H616 C600 0.931 . S
H617 C605 0.930 . S
H618 C606 0.956 . S
H619 C606 0.961 . S
H620 C606 0.961 . S
H621 C607 0.958 1_655 S
H622 C607 0.961 . S
H623 C607 0.960 . S
C624 C625 1.391 . S
C624 C626 1.394 . S
C624 H640 0.931 . S
C625 C624 1.391 . S
C625 C629 1.376 . S
C626 C624 1.394 . S
C626 C627 1.369 . S
C626 C630 1.531 1_655 S
C627 C626 1.369 . S
C627 C628 1.410 . S
C627 C635 1.503 . S
C628 C627 1.410 . S
C628 C629 1.392 . S
C628 C631 1.511 . S
C629 C625 1.376 . S
C629 C628 1.392 . S
C629 H641 0.929 . S
C630 C626 1.531 1_455 S
C630 H642 0.960 . S
C630 H643 0.962 . S
C630 H644 0.960 . S
C631 C628 1.511 . S
C631 H645 0.961 . S
C631 H646 0.961 . S
C631 H647 0.961 . S
C632 C633 1.370 . S
C632 C634 1.363 . S
C632 H648 0.931 1_655 S
C633 C632 1.370 . S
C633 C637 1.408 . S
C634 C632 1.363 . S
C634 C635 1.370 . S
C634 C638 1.524 . S
C635 C627 1.503 . S
C635 C634 1.370 . S
C635 C636 1.403 . S
C636 C635 1.403 . S
C636 C637 1.404 . S
C636 C639 1.539 . S
C637 C633 1.408 . S
C637 C636 1.404 . S
C637 H649 0.930 . S
C638 C634 1.524 . S
C638 H650 0.956 . S
C638 H651 0.961 . S
C638 H652 0.961 . S
C639 C636 1.539 . S
C639 H653 0.958 . S
C639 H654 0.961 . S
C639 H655 0.960 . S
H640 C624 0.931 . S
H641 C629 0.929 . S
H642 C630 0.960 . S
H643 C630 0.962 . S
H644 C630 0.960 . S
H645 C631 0.961 . S
H646 C631 0.961 . S
H647 C631 0.961 . S
H648 C632 0.931 1_455 S
H649 C637 0.930 . S
H650 C638 0.956 . S
H651 C638 0.961 . S
H652 C638 0.961 . S
H653 C639 0.958 . S
H654 C639 0.961 . S
H655 C639 0.960 . S
C656 C657 1.391 1_655 S
C656 C658 1.394 1_655 S
C656 H672 0.931 . S
C657 C656 1.391 1_455 S
C657 C661 1.376 . S
C658 C656 1.394 1_455 S
C658 C659 1.369 . S
C658 C662 1.531 1_455 S
C659 C658 1.369 . S
C659 C660 1.410 . S
C659 C667 1.503 . S
C660 C659 1.410 . S
C660 C661 1.392 . S
C660 C663 1.511 . S
C661 C657 1.376 . S
C661 C660 1.392 . S
C661 H673 0.929 . S
C662 C658 1.531 1_655 S
C662 H674 0.960 1_655 S
C662 H675 0.962 . S
C662 H676 0.960 . S
C663 C660 1.511 . S
C663 H677 0.961 . S
C663 H678 0.961 . S
C663 H679 0.961 . S
C664 C665 1.370 . S
C664 C666 1.363 . S
C664 H680 0.931 . S
C665 C664 1.370 . S
C665 C669 1.408 . S
C666 C664 1.363 . S
C666 C667 1.370 . S
C666 C670 1.524 . S
C667 C659 1.503 . S
C667 C666 1.370 . S
C667 C668 1.403 . S
C668 C667 1.403 . S
C668 C669 1.404 . S
C668 C671 1.539 . S
C669 C665 1.408 . S
C669 C668 1.404 . S
C669 H681 0.930 . S
C670 C666 1.524 . S
C670 H682 0.956 1_455 S
C670 H683 0.961 . S
C670 H684 0.961 1_455 S
C671 C668 1.539 . S
C671 H685 0.958 . S
C671 H686 0.961 . S
C671 H687 0.960 . S
H672 C656 0.931 . S
H673 C661 0.929 . S
H674 C662 0.960 1_455 S
H675 C662 0.962 . S
H676 C662 0.960 . S
H677 C663 0.961 . S
H678 C663 0.961 . S
H679 C663 0.961 . S
H680 C664 0.931 . S
H681 C669 0.930 . S
H682 C670 0.956 1_655 S
H683 C670 0.961 . S
H684 C670 0.961 1_655 S
H685 C671 0.958 . S
H686 C671 0.961 . S
H687 C671 0.960 . S
C688 C689 1.391 . S
C688 C690 1.394 . S
C688 H704 0.931 . S
C689 C688 1.391 . S
C689 C693 1.376 . S
C690 C688 1.394 . S
C690 C691 1.369 . S
C690 C694 1.531 1_455 S
C691 C690 1.369 . S
C691 C692 1.410 . S
C691 C699 1.503 . S
C692 C691 1.410 . S
C692 C693 1.392 . S
C692 C695 1.511 . S
C693 C689 1.376 . S
C693 C692 1.392 . S
C693 H705 0.929 . S
C694 C690 1.531 1_655 S
C694 H706 0.960 . S
C694 H707 0.962 . S
C694 H708 0.960 . S
C695 C692 1.511 . S
C695 H709 0.961 . S
C695 H710 0.961 . S
C695 H711 0.961 . S
C696 C697 1.370 . S
C696 C698 1.363 . S
C696 H712 0.931 1_455 S
C697 C696 1.370 . S
C697 C701 1.408 . S
C698 C696 1.363 . S
C698 C699 1.370 . S
C698 C702 1.524 . S
C699 C691 1.503 . S
C699 C698 1.370 . S
C699 C700 1.403 . S
C700 C699 1.403 . S
C700 C701 1.404 . S
C700 C703 1.539 . S
C701 C697 1.408 . S
C701 C700 1.404 . S
C701 H713 0.930 . S
C702 C698 1.524 . S
C702 H714 0.956 1_455 S
C702 H715 0.961 . S
C702 H716 0.961 1_455 S
C703 C700 1.539 . S
C703 H717 0.958 . S
C703 H718 0.961 . S
C703 H719 0.960 . S
H704 C688 0.931 . S
H705 C693 0.929 . S
H706 C694 0.960 . S
H707 C694 0.962 . S
H708 C694 0.960 . S
H709 C695 0.961 . S
H710 C695 0.961 . S
H711 C695 0.961 . S
H712 C696 0.931 1_655 S
H713 C701 0.930 . S
H714 C702 0.956 1_655 S
H715 C702 0.961 . S
H716 C702 0.961 1_655 S
H717 C703 0.958 . S
H718 C703 0.961 . S
H719 C703 0.960 . S
C337 C147 1.505 1_554 S
C345 C74 1.503 . S
C369 C242 1.512 . S
C377 C315 1.497 . S
C401 C63 1.502 1_554 S
C409 C158 1.505 . S
C433 C326 1.525 . S
C441 C231 1.492 . S
C465 C310 1.168 . S
C473 C56 1.210 . S
C497 C142 1.176 . S
C505 C224 1.222 . S
C529 C151 1.206 . S
C537 C238 1.201 . S
C561 C319 1.234 . S
C569 C70 1.196 . S
C593 C140 1.248 . S
C601 C226 1.202 . S
C625 C308 1.160 . S
C633 C58 1.231 . S
C657 C322 1.241 . S
C665 C67 1.184 . S
C689 C235 1.217 . S
C697 C154 1.199 . S
