# Generated by pormake.
# Topology ukf, (4)-cn, num edge types: 1
# Building blocks:
#     Node 0, Type 0, BuildingBlock: ICAMEG_clean_sbu_1, # of connection points: 4
#     Node 1, Type 0, BuildingBlock: ICAMEG_clean_sbu_1, # of connection points: 4
#     Node 2, Type 0, BuildingBlock: ICAMEG_clean_sbu_1, # of connection points: 4
#     Node 3, Type 0, BuildingBlock: ICAMEG_clean_sbu_1, # of connection points: 4
#     Node 4, Type 0, BuildingBlock: ICAMEG_clean_sbu_1, # of connection points: 4
#     Node 5, Type 0, BuildingBlock: ICAMEG_clean_sbu_1, # of connection points: 4
#     Node 6, Type 0, BuildingBlock: ICAMEG_clean_sbu_1, # of connection points: 4
#     Node 7, Type 0, BuildingBlock: ICAMEG_clean_sbu_1, # of connection points: 4
#     Node 8, Type 0, BuildingBlock: ICAMEG_clean_sbu_1, # of connection points: 4
#     Node 9, Type 0, BuildingBlock: ICAMEG_clean_sbu_1, # of connection points: 4
#     Node 10, Type 0, BuildingBlock: ICAMEG_clean_sbu_1, # of connection points: 4
#     Node 11, Type 0, BuildingBlock: ICAMEG_clean_sbu_1, # of connection points: 4
#     Edge 12, Type (0, 0), BuildingBlock: CIFDUS_clean_linker_0, # of connection points: 2
#     Edge 13, Type (0, 0), BuildingBlock: CIFDUS_clean_linker_0, # of connection points: 2
#     Edge 14, Type (0, 0), BuildingBlock: CIFDUS_clean_linker_0, # of connection points: 2
#     Edge 15, Type (0, 0), BuildingBlock: CIFDUS_clean_linker_0, # of connection points: 2
#     Edge 16, Type (0, 0), BuildingBlock: CIFDUS_clean_linker_0, # of connection points: 2
#     Edge 17, Type (0, 0), BuildingBlock: CIFDUS_clean_linker_0, # of connection points: 2
#     Edge 18, Type (0, 0), BuildingBlock: CIFDUS_clean_linker_0, # of connection points: 2
#     Edge 19, Type (0, 0), BuildingBlock: CIFDUS_clean_linker_0, # of connection points: 2
#     Edge 20, Type (0, 0), BuildingBlock: CIFDUS_clean_linker_0, # of connection points: 2
#     Edge 21, Type (0, 0), BuildingBlock: CIFDUS_clean_linker_0, # of connection points: 2
#     Edge 22, Type (0, 0), BuildingBlock: CIFDUS_clean_linker_0, # of connection points: 2
#     Edge 23, Type (0, 0), BuildingBlock: CIFDUS_clean_linker_0, # of connection points: 2
#     Edge 24, Type (0, 0), BuildingBlock: CIFDUS_clean_linker_0, # of connection points: 2
#     Edge 25, Type (0, 0), BuildingBlock: CIFDUS_clean_linker_0, # of connection points: 2
#     Edge 26, Type (0, 0), BuildingBlock: CIFDUS_clean_linker_0, # of connection points: 2
#     Edge 27, Type (0, 0), BuildingBlock: CIFDUS_clean_linker_0, # of connection points: 2
#     Edge 28, Type (0, 0), BuildingBlock: CIFDUS_clean_linker_0, # of connection points: 2
#     Edge 29, Type (0, 0), BuildingBlock: CIFDUS_clean_linker_0, # of connection points: 2
#     Edge 30, Type (0, 0), BuildingBlock: CIFDUS_clean_linker_0, # of connection points: 2
#     Edge 31, Type (0, 0), BuildingBlock: CIFDUS_clean_linker_0, # of connection points: 2
#     Edge 32, Type (0, 0), BuildingBlock: CIFDUS_clean_linker_0, # of connection points: 2
#     Edge 33, Type (0, 0), BuildingBlock: CIFDUS_clean_linker_0, # of connection points: 2
#     Edge 34, Type (0, 0), BuildingBlock: CIFDUS_clean_linker_0, # of connection points: 2
#     Edge 35, Type (0, 0), BuildingBlock: CIFDUS_clean_linker_0, # of connection points: 2
# Relax obj value: 0.108
# Max RMSD: 0.105
# Mean RMSD: 0.105
data_MOF--net-ukf--node1-ICAMEG_clean_sbu_1--edge1-CIFDUS_clean_linker_0
_symmetry_space_group_name_H-M    P1
_symmetry_Int_Tables_number       1
_symmetry_cell_setting            triclinic
loop_
_symmetry_equiv_pos_as_xyz
'x, y, z'
_cell_length_a     29.803258
_cell_length_b     29.814277
_cell_length_c     62.632399
_cell_angle_alpha  90.262196
_cell_angle_beta   90.006974
_cell_angle_gamma 119.87367
loop_
_atom_site_label
_atom_site_type_symbol
_atom_site_fract_x
_atom_site_fract_y
_atom_site_fract_z
_atom_type_partial_charge
Co0 Co 0.42364 0.26183 0.03759 0.0
Co1 Co 0.43766 0.1847 0.07405 0.0
O2 O 0.42859 0.24414 0.06733 0.0
C3 C 0.49551 0.36386 0.05787 0.0
O4 O 0.51728 0.3419 0.06852 0.0
C5 C 0.36816 0.18851 0.10833 0.0
O6 O 0.35413 0.21394 0.09549 0.0
O7 O 0.37321 0.13781 0.05775 0.0
O8 O 0.3884 0.18691 0.02874 0.0
H9 H 0.44041 0.02148 0.05632 0.0
H10 H 0.3839 0.30369 0.07102 0.0
O11 O 0.45818 0.33732 0.04511 0.0
H12 H 0.23409 0.19634 0.02459 0.0
H13 H 0.39338 0.35921 0.97908 0.0
H14 H 0.44253 0.22783 0.99562 0.0
H15 H 0.3194 0.20558 0.01692 0.0
H16 H 0.39749 0.33546 0.0164 0.0
O17 O 0.39751 0.17172 0.1016 0.0
H18 H 0.43206 0.09793 0.04852 0.0
H19 H 0.46021 0.14389 0.11371 0.0
H20 H 0.43848 0.2501 0.95809 0.0
H21 H 0.29945 0.2962 0.07908 0.0
H22 H 0.41374 0.31624 0.94961 0.0
H23 H 0.22372 0.24199 0.05583 0.0
O24 O 0.49223 0.26857 0.03159 0.0
H25 H 0.54732 0.32749 0.12584 0.0
H26 H 0.54474 0.20061 0.07436 0.0
H27 H 0.62579 0.25952 0.09324 0.0
H28 H 0.62739 0.32338 0.11929 0.0
H29 H 0.46746 0.26865 0.10632 0.0
H30 H 0.46859 0.06772 0.12221 0.0
H31 H 0.45856 0.00583 0.0934 0.0
O32 O 0.47954 0.19579 0.04737 0.0
C33 C 0.36587 0.14299 0.03801 0.0
C34 C 0.44486 0.04818 0.06901 0.0
C35 C 0.46061 0.0741 0.10599 0.0
N36 N 0.44572 0.12548 0.08062 0.0
C37 C 0.44025 0.09162 0.06469 0.0
C38 C 0.45567 0.1171 0.10109 0.0
C39 C 0.45507 0.03943 0.08982 0.0
C40 C 0.35126 0.28039 0.06073 0.0
N41 N 0.35659 0.25493 0.04359 0.0
C42 C 0.30347 0.27612 0.06542 0.0
C43 C 0.26098 0.24564 0.05239 0.0
C44 C 0.26676 0.21995 0.03488 0.0
C45 C 0.31512 0.22509 0.0307 0.0
C46 C 0.40411 0.33026 0.98257 0.0
C47 C 0.43149 0.25645 0.99207 0.0
C48 C 0.40661 0.31671 1.00367 0.0
N49 N 0.41988 0.27999 0.00819 0.0
C50 C 0.42937 0.26899 0.97078 0.0
C51 C 0.41553 0.30613 0.96604 0.0
C52 C 0.5041 0.23354 0.03461 0.0
C53 C 0.54704 0.29961 0.11463 0.0
C54 C 0.54509 0.22839 0.0856 0.0
C55 C 0.59111 0.26158 0.09629 0.0
C56 C 0.59198 0.29737 0.11091 0.0
N57 N 0.50106 0.23066 0.08938 0.0
C58 C 0.50173 0.26583 0.10364 0.0
Co59 Co 0.18933 0.42474 0.37131 0.0
Co60 Co 0.26545 0.43663 0.41455 0.0
O61 O 0.19901 0.42371 0.40247 0.0
C62 C 0.12575 0.46856 0.39128 0.0
O63 O 0.13991 0.46413 0.41061 0.0
C64 C 0.18402 0.36101 0.44557 0.0
O65 O 0.14539 0.358 0.43437 0.0
O66 O 0.26092 0.37857 0.39708 0.0
O67 O 0.23584 0.39479 0.36572 0.0
H68 H 0.44414 0.45948 0.4099 0.0
H69 H 0.09656 0.36943 0.39957 0.0
O70 O 0.14228 0.4552 0.37501 0.0
H71 H 0.0832 0.23918 0.34744 0.0
H72 H 0.08844 0.40306 0.30376 0.0
H73 H 0.26032 0.45555 0.33422 0.0
H74 H 0.15632 0.32843 0.34607 0.0
H75 H 0.09956 0.39931 0.34261 0.0
O76 O 0.23045 0.38768 0.43898 0.0
H77 H 0.3609 0.44545 0.39567 0.0
H78 H 0.31035 0.45201 0.45845 0.0
H79 H 0.25084 0.45951 0.29529 0.0
H80 H 0.02265 0.28101 0.40134 0.0
H81 H 0.16439 0.43314 0.27981 0.0
H82 H 0.0155 0.21495 0.37516 0.0
O83 O 0.24978 0.49598 0.36989 0.0
H84 H 0.1982 0.52569 0.46301 0.0
H85 H 0.34927 0.54456 0.42334 0.0
H86 H 0.35676 0.61836 0.44399 0.0
H87 H 0.28093 0.6092 0.46417 0.0
H88 H 0.19222 0.45343 0.44189 0.0
H89 H 0.39276 0.46557 0.47332 0.0
H90 H 0.4604 0.46964 0.44901 0.0
O91 O 0.30476 0.48664 0.39122 0.0
C92 C 0.25556 0.37311 0.37685 0.0
C93 C 0.41497 0.45791 0.42066 0.0
C94 C 0.38612 0.46126 0.45626 0.0
N95 N 0.33085 0.44821 0.42617 0.0
C96 C 0.3678 0.45009 0.41269 0.0
C97 C 0.33944 0.45339 0.44773 0.0
C98 C 0.42408 0.46356 0.44259 0.0
C99 C 0.09367 0.34147 0.38794 0.0
N100 N 0.1306 0.35471 0.37256 0.0
C101 C 0.05173 0.29115 0.3891 0.0
C102 C 0.04778 0.25409 0.37443 0.0
C103 C 0.08575 0.26765 0.35889 0.0
C104 C 0.12714 0.31833 0.35823 0.0
C105 C 0.12629 0.41457 0.31031 0.0
C106 C 0.22251 0.44371 0.32761 0.0
C107 C 0.13286 0.41265 0.33231 0.0
N108 N 0.1805 0.42684 0.34068 0.0
C109 C 0.21741 0.44617 0.30555 0.0
C110 C 0.16891 0.43143 0.29688 0.0
C111 C 0.29528 0.5111 0.37691 0.0
C112 C 0.23161 0.53015 0.45436 0.0
C113 C 0.3159 0.54019 0.43187 0.0
C114 C 0.32048 0.58217 0.44365 0.0
C115 C 0.27798 0.577 0.45497 0.0
N116 N 0.27035 0.49413 0.43139 0.0
C117 C 0.22851 0.48903 0.4424 0.0
Co118 Co 0.74363 0.1655 0.70107 0.0
Co119 Co 0.82116 0.25779 0.7373 0.0
O120 O 0.76505 0.18753 0.73076 0.0
C121 C 0.64454 0.12879 0.72433 0.0
O122 O 0.66599 0.1731 0.73463 0.0
C123 C 0.83002 0.18849 0.77032 0.0
O124 O 0.79705 0.14668 0.75989 0.0
O125 O 0.86851 0.2462 0.71871 0.0
O126 O 0.81647 0.21064 0.6904 0.0
H127 H 0.97085 0.43161 0.71795 0.0
H128 H 0.71419 0.08371 0.73363 0.0
O129 O 0.67026 0.1196 0.71049 0.0
H130 H 0.82184 0.05496 0.68173 0.0
H131 H 0.64355 0.0367 0.64293 0.0
H132 H 0.76626 0.21981 0.65953 0.0
H133 H 0.80304 0.12592 0.67669 0.0
H134 H 0.67252 0.06455 0.67996 0.0
O135 O 0.84387 0.23319 0.76284 0.0
H136 H 0.89887 0.34356 0.71082 0.0
H137 H 0.86499 0.32075 0.77709 0.0
H138 H 0.73866 0.19356 0.62225 0.0
H139 H 0.73149 0.01185 0.73915 0.0
H140 H 0.67686 0.1014 0.61376 0.0
H141 H 0.78585 0.99723 0.71312 0.0
O142 O 0.7294 0.2234 0.69721 0.0
H143 H 0.68497 0.21027 0.79391 0.0
H144 H 0.79595 0.34245 0.74168 0.0
H145 H 0.73631 0.35711 0.76397 0.0
H146 H 0.68048 0.29089 0.79042 0.0
H147 H 0.74429 0.19671 0.77104 0.0
H148 H 0.93698 0.40847 0.78493 0.0
H149 H 0.9903 0.46459 0.75521 0.0
O150 O 0.80124 0.28655 0.71248 0.0
C151 C 0.86146 0.23445 0.69891 0.0
C152 C 0.94778 0.40756 0.73102 0.0
C153 C 0.92881 0.39453 0.76862 0.0
N154 N 0.87744 0.3271 0.74349 0.0
C155 C 0.90686 0.35767 0.72708 0.0
C156 C 0.88817 0.34483 0.76408 0.0
C157 C 0.95871 0.42603 0.75194 0.0
C158 C 0.73764 0.07743 0.72217 0.0
N159 N 0.75777 0.10916 0.70493 0.0
C160 C 0.74742 0.03675 0.72541 0.0
C161 C 0.77796 0.0286 0.71081 0.0
C162 C 0.79823 0.06102 0.69322 0.0
C163 C 0.78766 0.10133 0.69051 0.0
C164 C 0.6706 0.07695 0.64642 0.0
C165 C 0.73964 0.17958 0.65594 0.0
C166 C 0.68708 0.09297 0.66737 0.0
N167 N 0.72144 0.1437 0.67188 0.0
C168 C 0.72403 0.16497 0.63481 0.0
C169 C 0.68931 0.11327 0.63006 0.0
C170 C 0.76154 0.27108 0.7005 0.0
C171 C 0.7094 0.23961 0.78256 0.0
C172 C 0.77171 0.31331 0.75309 0.0
C173 C 0.73807 0.32191 0.76571 0.0
C174 C 0.70679 0.28478 0.78056 0.0
N175 N 0.77437 0.26905 0.75524 0.0
C176 C 0.74352 0.23234 0.76967 0.0
Co177 Co 0.60743 0.7656 0.03494 0.0
Co178 Co 0.57881 0.82582 0.07501 0.0
O179 O 0.59996 0.77609 0.06548 0.0
C180 C 0.56527 0.65989 0.05556 0.0
O181 O 0.56435 0.67839 0.07448 0.0
C182 C 0.65481 0.83044 0.10846 0.0
O183 O 0.66709 0.80147 0.09685 0.0
O184 O 0.63863 0.88176 0.05973 0.0
O185 O 0.63296 0.84106 0.02886 0.0
H186 H 0.54366 0.97263 0.06453 0.0
H187 H 0.66115 0.7332 0.06656 0.0
O188 O 0.5815 0.68939 0.03928 0.0
H189 H 0.79853 0.85864 0.01962 0.0
H190 H 0.65349 0.69223 0.97149 0.0
H191 H 0.5807 0.80072 0.99517 0.0
H192 H 0.7078 0.83549 0.01379 0.0
H193 H 0.64632 0.70657 0.00985 0.0
O194 O 0.62223 0.84297 0.10168 0.0
H195 H 0.56738 0.90781 0.05325 0.0
H196 H 0.54863 0.85186 0.11676 0.0
H197 H 0.58764 0.78782 0.95665 0.0
H198 H 0.75108 0.75461 0.07274 0.0
H199 H 0.62426 0.73322 0.94459 0.0
H200 H 0.82074 0.81793 0.04922 0.0
O201 O 0.53475 0.74826 0.02999 0.0
H202 H 0.49009 0.67172 0.12359 0.0
H203 H 0.46611 0.79079 0.07687 0.0
H204 H 0.39069 0.72063 0.09505 0.0
H205 H 0.40239 0.66055 0.1187 0.0
H206 H 0.56424 0.74185 0.10489 0.0
H207 H 0.52523 0.91642 0.12875 0.0
H208 H 0.5227 0.97739 0.10257 0.0
O209 O 0.53398 0.81153 0.04903 0.0
C210 C 0.6492 0.88239 0.03999 0.0
C211 C 0.54459 0.94621 0.07609 0.0
C212 C 0.5343 0.91471 0.11214 0.0
N213 N 0.55907 0.87582 0.08428 0.0
C214 C 0.55785 0.90932 0.06979 0.0
C215 C 0.54769 0.8783 0.10525 0.0
C216 C 0.5328 0.94887 0.09743 0.0
C217 C 0.69078 0.76021 0.05607 0.0
N218 N 0.67874 0.78263 0.03975 0.0
C219 C 0.74189 0.77247 0.05973 0.0
C220 C 0.78096 0.80806 0.04656 0.0
C221 C 0.76854 0.83094 0.02997 0.0
C222 C 0.71701 0.81776 0.02681 0.0
C223 C 0.63757 0.71618 0.97654 0.0
C224 C 0.59698 0.77718 0.99005 0.0
C225 C 0.6333 0.72435 0.99825 0.0
N226 N 0.61351 0.75482 1.00474 0.0
C227 C 0.60067 0.76989 0.96822 0.0
C228 C 0.62117 0.73921 0.96146 0.0
C229 C 0.51456 0.77574 0.03495 0.0
C230 C 0.4845 0.69773 0.11338 0.0
C231 C 0.47162 0.76467 0.087 0.0
C232 C 0.42871 0.72508 0.09733 0.0
C233 C 0.4353 0.69143 0.1106 0.0
N234 N 0.51986 0.77071 0.08982 0.0
C235 C 0.52651 0.73777 0.10279 0.0
Co236 Co 0.84995 0.59103 0.37343 0.0
Co237 Co 0.75613 0.55224 0.41271 0.0
O238 O 0.82765 0.57763 0.40339 0.0
C239 C 0.88758 0.52185 0.38916 0.0
O240 O 0.84202 0.49407 0.39803 0.0
C241 C 0.82276 0.63829 0.44338 0.0
O242 O 0.8591 0.65978 0.42893 0.0
O243 O 0.75317 0.60823 0.3965 0.0
O244 O 0.80327 0.62036 0.3678 0.0
H245 H 0.56908 0.49871 0.4015 0.0
H246 H 0.93153 0.63003 0.40692 0.0
O247 O 0.89718 0.56171 0.3783 0.0
H248 H 0.95672 0.78501 0.36862 0.0
H249 H 0.98104 0.64718 0.31423 0.0
H250 H 0.79734 0.57981 0.3319 0.0
H251 H 0.8869 0.69831 0.35803 0.0
H252 H 0.95172 0.63065 0.35165 0.0
O253 O 0.78024 0.59748 0.43902 0.0
H254 H 0.65937 0.53007 0.39054 0.0
H255 H 0.7012 0.52194 0.45466 0.0
H256 H 0.82501 0.59621 0.29429 0.0
H257 H 1.00244 0.71592 0.41778 0.0
H258 H 0.91751 0.63011 0.28524 0.0
H259 H 0.01524 0.79421 0.39864 0.0
O260 O 0.79336 0.52153 0.36441 0.0
H261 H 0.83874 0.48093 0.46172 0.0
H262 H 0.68589 0.43845 0.41736 0.0
H263 H 0.69045 0.36877 0.43653 0.0
H264 H 0.76729 0.38989 0.45897 0.0
H265 H 0.83288 0.54915 0.44199 0.0
H266 H 0.61151 0.49098 0.46632 0.0
H267 H 0.54471 0.47879 0.43962 0.0
O268 O 0.72879 0.50489 0.38726 0.0
C269 C 0.7701 0.62728 0.37805 0.0
C270 C 0.59784 0.50366 0.41326 0.0
C271 C 0.62167 0.4994 0.44965 0.0
N272 N 0.68545 0.52744 0.42189 0.0
C273 C 0.64898 0.52127 0.40714 0.0
C274 C 0.67244 0.51709 0.44295 0.0
C275 C 0.58419 0.49258 0.43467 0.0
C276 C 0.93721 0.66382 0.39834 0.0
N277 N 0.90507 0.6591 0.38186 0.0
C278 C 0.97727 0.71241 0.40465 0.0
C279 C 0.98436 0.75632 0.39393 0.0
C280 C 0.95149 0.75119 0.37711 0.0
C281 C 0.91182 0.702 0.37126 0.0
C282 C 0.94064 0.63242 0.31796 0.0
C283 C 0.83765 0.59476 0.32811 0.0
C284 C 0.92377 0.62283 0.33912 0.0
N285 N 0.87283 0.60438 0.34397 0.0
C286 C 0.85309 0.60388 0.30677 0.0
C287 C 0.90498 0.62286 0.30171 0.0
C288 C 0.74651 0.49459 0.37053 0.0
C289 C 0.80501 0.47124 0.45203 0.0
C290 C 0.71963 0.44782 0.42689 0.0
C291 C 0.72189 0.40827 0.43782 0.0
C292 C 0.76497 0.42015 0.45044 0.0
N293 N 0.75909 0.49782 0.42848 0.0
C294 C 0.80136 0.50977 0.44089 0.0
Co295 Co 0.24103 0.8433 0.70958 0.0
Co296 Co 0.18769 0.75063 0.74943 0.0
O297 O 0.23421 0.82213 0.73973 0.0
C298 C 0.35034 0.90037 0.72771 0.0
O299 O 0.33462 0.87937 0.74654 0.0
C300 C 0.17484 0.81988 0.78139 0.0
O301 O 0.19171 0.85729 0.76739 0.0
O302 O 0.12789 0.74832 0.73384 0.0
O303 O 0.16505 0.79693 0.70492 0.0
H304 H 0.05098 0.56432 0.73941 0.0
H305 H 0.28292 0.92667 0.74306 0.0
O306 O 0.31829 0.8902 0.71245 0.0
H307 H 0.15347 0.94982 0.70323 0.0
H308 H 0.30916 0.96918 0.64849 0.0
H309 H 0.19675 0.78695 0.66891 0.0
H310 H 0.17074 0.87971 0.69359 0.0
H311 H 0.30002 0.94328 0.68629 0.0
O312 O 0.16899 0.77588 0.7762 0.0
H313 H 0.11056 0.6538 0.72787 0.0
H314 H 0.16544 0.6967 0.79148 0.0
H315 H 0.20438 0.81124 0.63097 0.0
H316 H 0.26773 0.99786 0.75289 0.0
H317 H 0.26096 0.90296 0.62053 0.0
H318 H 0.20236 0.00978 0.733 0.0
O319 O 0.25378 0.78648 0.70102 0.0
H320 H 0.34244 0.82862 0.79842 0.0
H321 H 0.22992 0.67888 0.7529 0.0
H322 H 0.30354 0.68078 0.77165 0.0
H323 H 0.36032 0.756 0.79472 0.0
H324 H 0.26916 0.82556 0.77899 0.0
H325 H 0.10619 0.60793 0.8037 0.0
H326 H 0.04857 0.54101 0.77761 0.0
O327 O 0.20539 0.72192 0.72363 0.0
C328 C 0.12524 0.76472 0.71532 0.0
C329 C 0.07602 0.59314 0.75093 0.0
C330 C 0.10694 0.61763 0.78702 0.0
N331 N 0.14168 0.6804 0.75894 0.0
C332 C 0.10993 0.64383 0.74448 0.0
C333 C 0.14032 0.6679 0.78001 0.0
C334 C 0.07463 0.58007 0.77236 0.0
C335 C 0.25522 0.93193 0.73401 0.0
N336 N 0.22828 0.89911 0.71761 0.0
C337 C 0.24638 0.97218 0.7398 0.0
C338 C 0.20961 0.97877 0.72868 0.0
C339 C 0.18213 0.9451 0.71201 0.0
C340 C 0.19196 0.90527 0.70669 0.0
C341 C 0.28435 0.92911 0.65284 0.0
C342 C 0.22123 0.82698 0.66453 0.0
C343 C 0.27913 0.91417 0.67421 0.0
N344 N 0.24766 0.86365 0.67983 0.0
C345 C 0.22549 0.84049 0.643 0.0
C346 C 0.25728 0.89194 0.63716 0.0
C347 C 0.23367 0.7396 0.70701 0.0
C348 C 0.31805 0.79565 0.78839 0.0
C349 C 0.25498 0.71215 0.76255 0.0
C350 C 0.29636 0.71281 0.7733 0.0
C351 C 0.32811 0.75495 0.78628 0.0
N352 N 0.24547 0.75232 0.76458 0.0
C353 C 0.2763 0.79361 0.77739 0.0
Co354 Co 0.759 0.59956 0.64309 0.0
Co355 Co 0.82649 0.58596 0.60193 0.0
O356 O 0.77071 0.59756 0.61231 0.0
C357 C 0.65254 0.55242 0.62224 0.0
O358 O 0.67199 0.5564 0.60311 0.0
C359 C 0.81698 0.65615 0.56954 0.0
O360 O 0.78856 0.66582 0.58267 0.0
O361 O 0.87777 0.64844 0.618 0.0
O362 O 0.83554 0.63126 0.64915 0.0
H363 H 0.98884 0.57529 0.61011 0.0
H364 H 0.71952 0.65104 0.61343 0.0
O365 O 0.6817 0.56742 0.63874 0.0
H366 H 0.8352 0.78687 0.66386 0.0
H367 H 0.67685 0.62598 0.70868 0.0
H368 H 0.79924 0.57343 0.68157 0.0
H369 H 0.82088 0.6984 0.66687 0.0
H370 H 0.69256 0.6259 0.67002 0.0
O371 O 0.83633 0.62854 0.5755 0.0
H372 H 0.91659 0.58655 0.62259 0.0
H373 H 0.85688 0.56388 0.55941 0.0
H374 H 0.78507 0.57344 0.72034 0.0
H375 H 0.7321 0.73856 0.61006 0.0
H376 H 0.72348 0.59986 0.73414 0.0
H377 H 0.79047 0.80748 0.63535 0.0
O378 O 0.7495 0.52897 0.64583 0.0
H379 H 0.6722 0.48239 0.55416 0.0
H380 H 0.80661 0.4778 0.59843 0.0
H381 H 0.7422 0.3986 0.57991 0.0
H382 H 0.67445 0.40056 0.55749 0.0
H383 H 0.73681 0.56039 0.57315 0.0
H384 H 0.92875 0.55289 0.54626 0.0
H385 H 0.99541 0.5587 0.57163 0.0
O386 O 0.81921 0.54205 0.62735 0.0
C387 C 0.87726 0.65392 0.63823 0.0
C388 C 0.96002 0.57271 0.59888 0.0
C389 C 0.92633 0.5602 0.56304 0.0
N390 N 0.8824 0.57578 0.59179 0.0
C391 C 0.91893 0.57895 0.60587 0.0
C392 C 0.88579 0.56662 0.5706 0.0
C393 C 0.96368 0.56336 0.57731 0.0
C394 C 0.74436 0.6802 0.62469 0.0
N395 N 0.7689 0.66899 0.64043 0.0
C396 C 0.75164 0.73003 0.62262 0.0
C397 C 0.78445 0.7687 0.63678 0.0
C398 C 0.80958 0.75717 0.65276 0.0
C399 C 0.80138 0.70692 0.65432 0.0
C400 C 0.70385 0.61448 0.70286 0.0
C401 C 0.77261 0.58526 0.68744 0.0
C402 C 0.71281 0.61422 0.68099 0.0
N403 N 0.74711 0.60005 0.67354 0.0
C404 C 0.76463 0.58506 0.70942 0.0
C405 C 0.73004 0.59984 0.71714 0.0
C406 C 0.78337 0.51668 0.64083 0.0
C407 C 0.70164 0.48107 0.56382 0.0
C408 C 0.77716 0.47905 0.58879 0.0
C409 C 0.74084 0.43403 0.57829 0.0
C410 C 0.70287 0.43516 0.56571 0.0
N411 N 0.77587 0.52408 0.58681 0.0
C412 C 0.73859 0.52532 0.57456 0.0
Co413 Co 0.16998 0.74893 0.97906 0.0
Co414 Co 0.24955 0.82833 0.94001 0.0
O415 O 0.18437 0.76687 0.94873 0.0
C416 C 0.11886 0.6458 0.9552 0.0
O417 O 0.13393 0.66853 0.93661 0.0
C418 C 0.1678 0.81771 0.90843 0.0
O419 O 0.13108 0.78939 0.92199 0.0
O420 O 0.23201 0.87306 0.95793 0.0
O421 O 0.20839 0.82434 0.98739 0.0
H422 H 0.41339 0.9969 0.95314 0.0
H423 H 0.08011 0.70791 0.94861 0.0
O424 O 0.13078 0.67228 0.97245 0.0
H425 H 0.04451 0.80533 1.00321 0.0
H426 H 0.06281 0.64903 0.0423 0.0
H427 H 0.23382 0.78703 0.0184 0.0
H428 H 0.12373 0.79915 1.00517 0.0
H429 H 0.07889 0.67225 1.00423 0.0
O430 O 0.21519 0.83831 0.91399 0.0
H431 H 0.33279 0.91839 0.96333 0.0
H432 H 0.30336 0.87005 0.89843 0.0
H433 H 0.21925 0.76533 0.05663 0.0
H434 H 1.00019 0.71232 0.94626 0.0
H435 H 0.13322 0.69587 0.06882 0.0
H436 H 0.98184 0.76148 0.97366 0.0
O437 O 0.23498 0.74582 0.98113 0.0
H438 H 0.21429 0.68606 0.88746 0.0
H439 H 0.34416 0.81895 0.93539 0.0
H440 H 0.36698 0.76284 0.91461 0.0
H441 H 0.30188 0.69592 0.89034 0.0
H442 H 0.19291 0.74246 0.9087 0.0
H443 H 0.38354 0.94826 0.88755 0.0
H444 H 0.43921 0.01233 0.915 0.0
O445 O 0.28763 0.82078 0.96498 0.0
C446 C 0.22473 0.86786 0.97812 0.0
C447 C 0.38947 0.96925 0.94103 0.0
C448 C 0.37268 0.94198 0.90422 0.0
N449 N 0.31331 0.88951 0.93153 0.0
C450 C 0.34376 0.92464 0.94671 0.0
C451 C 0.3272 0.89782 0.91049 0.0
C452 C 0.40394 0.97788 0.91963 0.0
C453 C 0.0724 0.72866 0.96079 0.0
N454 N 0.10667 0.75266 0.97712 0.0
C455 C 0.02704 0.73137 0.95929 0.0
C456 C 0.01682 0.75903 0.97463 0.0
C457 C 0.05197 0.78367 0.99119 0.0
C458 C 0.09692 0.78013 0.99216 0.0
C459 C 0.10044 0.67941 0.0372 0.0
C460 C 0.1962 0.75691 0.02357 0.0
C461 C 0.10983 0.69265 0.01565 0.0
N462 N 0.15719 0.7312 0.00909 0.0
C463 C 0.18821 0.74472 0.04524 0.0
C464 C 0.13995 0.70572 0.05207 0.0
C465 C 0.27993 0.78353 0.97721 0.0
C466 C 0.24307 0.71519 0.89791 0.0
C467 C 0.31547 0.7898 0.92495 0.0
C468 C 0.3287 0.75821 0.91318 0.0
C469 C 0.29218 0.7207 0.89956 0.0
N470 N 0.26724 0.78435 0.9232 0.0
C471 C 0.23122 0.74747 0.90995 0.0
Co472 Co 0.40669 0.15805 0.31016 0.0
Co473 Co 0.45294 0.24725 0.26922 0.0
O474 O 0.42358 0.17616 0.27996 0.0
C475 C 0.46914 0.10702 0.29995 0.0
O476 O 0.50423 0.14977 0.29081 0.0
C477 C 0.37605 0.17781 0.2355 0.0
O478 O 0.35747 0.13839 0.24855 0.0
O479 O 0.39649 0.25472 0.28328 0.0
O480 O 0.38416 0.21049 0.31361 0.0
H481 H 0.51196 0.43662 0.2765 0.0
H482 H 0.36239 0.07151 0.27882 0.0
O483 O 0.42862 0.10451 0.30792 0.0
H484 H 0.21212 0.06858 0.31318 0.0
H485 H 0.33457 0.03516 0.3721 0.0
H486 H 0.42234 0.21797 0.35015 0.0
H487 H 0.30086 0.13361 0.32375 0.0
H488 H 0.35532 0.05872 0.33425 0.0
O489 O 0.41098 0.2225 0.24183 0.0
H490 H 0.47685 0.34709 0.28916 0.0
H491 H 0.48996 0.2983 0.22677 0.0
H492 H 0.4019 0.19615 0.38814 0.0
H493 H 0.27425 0.0052 0.26804 0.0
H494 H 0.35772 0.10414 0.39934 0.0
H495 H 0.19833 1.00362 0.28519 0.0
O496 O 0.47796 0.21108 0.31891 0.0
H497 H 0.52717 0.1544 0.22762 0.0
H498 H 0.56724 0.31516 0.26568 0.0
H499 H 0.63809 0.30661 0.24964 0.0
H500 H 0.61823 0.2258 0.23033 0.0
H501 H 0.45778 0.16427 0.24419 0.0
H502 H 0.52476 0.38717 0.21343 0.0
H503 H 0.53619 0.45712 0.23838 0.0
O504 O 0.4974 0.27525 0.29553 0.0
C505 C 0.37838 0.24253 0.30219 0.0
C506 C 0.50732 0.4065 0.26549 0.0
C507 C 0.51441 0.37873 0.23008 0.0
N508 N 0.48163 0.31751 0.25877 0.0
C509 C 0.48759 0.35575 0.27257 0.0
C510 C 0.49451 0.32842 0.23772 0.0
C511 C 0.52084 0.41797 0.24409 0.0
C512 C 0.32958 0.07082 0.28649 0.0
N513 N 0.33687 0.10664 0.3018 0.0
C514 C 0.27974 0.0333 0.28026 0.0
C515 C 0.23717 0.03249 0.28986 0.0
C516 C 0.24488 0.06899 0.30553 0.0
C517 C 0.29528 0.10596 0.31135 0.0
C518 C 0.35389 0.0754 0.36742 0.0
C519 C 0.40308 0.17786 0.35488 0.0
C520 C 0.36594 0.089 0.34602 0.0
N521 N 0.39013 0.13972 0.33997 0.0
C522 C 0.39162 0.16573 0.37642 0.0
C523 C 0.36686 0.11411 0.3827 0.0
C524 C 0.50638 0.25752 0.31257 0.0
C525 C 0.53631 0.18991 0.2359 0.0
C526 C 0.55826 0.27979 0.25744 0.0
C527 C 0.59856 0.27523 0.24831 0.0
C528 C 0.5874 0.22993 0.23746 0.0
N529 N 0.50817 0.24051 0.25577 0.0
C530 C 0.49702 0.19589 0.24522 0.0
Co531 Co 0.25411 0.41423 0.64071 0.0
Co532 Co 0.18721 0.45007 0.60575 0.0
O533 O 0.23832 0.42824 0.61174 0.0
C534 C 0.3577 0.48737 0.62257 0.0
O535 O 0.3376 0.51359 0.61409 0.0
C536 C 0.16991 0.37121 0.57115 0.0
O537 O 0.1968 0.3547 0.58172 0.0
O538 O 0.13365 0.39152 0.62294 0.0
O539 O 0.1796 0.38121 0.64891 0.0
H540 H 0.04873 0.49121 0.62632 0.0
H541 H 0.29362 0.38084 0.60399 0.0
O542 O 0.32966 0.4471 0.63355 0.0
H543 H 0.17694 0.2208 0.64269 0.0
H544 H 0.34489 0.36053 0.69397 0.0
H545 H 0.21914 0.42055 0.68442 0.0
H546 H 0.19126 0.3052 0.65557 0.0
H547 H 0.32361 0.37763 0.65797 0.0
O548 O 0.16209 0.40618 0.57907 0.0
H549 H 0.11448 0.46558 0.63274 0.0
H550 H 0.15045 0.4797 0.5666 0.0
H551 H 0.239 0.4036 0.7207 0.0
H552 H 0.28109 0.29732 0.59077 0.0
H553 H 0.30234 0.37337 0.72565 0.0
H554 H 0.22219 0.21649 0.61011 0.0
O555 O 0.26496 0.48198 0.65156 0.0
H556 H 0.33082 0.53235 0.55191 0.0
H557 H 0.22226 0.56255 0.60274 0.0
H558 H 0.28929 0.63582 0.58232 0.0
H559 H 0.34402 0.62089 0.5566 0.0
H560 H 0.26409 0.46052 0.57294 0.0
H561 H 0.08472 0.50502 0.55947 0.0
H562 H 0.0334 0.51095 0.58949 0.0
O563 O 0.21042 0.49597 0.63159 0.0
C564 C 0.13677 0.37241 0.64071 0.0
C565 C 0.07094 0.48887 0.61313 0.0
C566 C 0.09109 0.49653 0.5756 0.0
N567 N 0.13654 0.47145 0.6001 0.0
C568 C 0.10834 0.47452 0.61667 0.0
C569 C 0.12815 0.48202 0.57974 0.0
C570 C 0.06234 0.49992 0.59244 0.0
C571 C 0.26835 0.34592 0.61263 0.0
N572 N 0.24317 0.34795 0.63051 0.0
C573 C 0.26121 0.2987 0.605 0.0
C574 C 0.22809 0.25336 0.61584 0.0
C575 C 0.20262 0.25574 0.6341 0.0
C576 C 0.21067 0.30364 0.64124 0.0
C577 C 0.31725 0.37372 0.69202 0.0
C578 C 0.24667 0.40738 0.68644 0.0
C579 C 0.30515 0.38364 0.67167 0.0
N580 N 0.27014 0.40015 0.66908 0.0
C581 C 0.2578 0.39785 0.70702 0.0
C582 C 0.29335 0.38091 0.70979 0.0
C583 C 0.24176 0.50706 0.6472 0.0
C584 C 0.30712 0.53933 0.56302 0.0
C585 C 0.24622 0.55583 0.59174 0.0
C586 C 0.28394 0.59743 0.58013 0.0
C587 C 0.31458 0.58901 0.56569 0.0
N588 N 0.23907 0.50718 0.58905 0.0
C589 C 0.26898 0.49868 0.5749 0.0
Co590 Co 0.84298 0.24855 0.96866 0.0
Co591 Co 0.74794 0.18899 0.9306 0.0
O592 O 0.81995 0.23748 0.93868 0.0
C593 C 0.88369 0.35448 0.95152 0.0
O594 O 0.83834 0.33781 0.94249 0.0
C595 C 0.81333 0.17847 0.89587 0.0
O596 O 0.85616 0.20642 0.9067 0.0
O597 O 0.75136 0.13256 0.94583 0.0
O598 O 0.79469 0.17339 0.97558 0.0
H599 H 0.56573 0.04792 0.94492 0.0
H600 H 0.92353 0.28443 0.93506 0.0
O601 O 0.89212 0.32385 0.96273 0.0
H602 H 0.94463 0.15603 0.97661 0.0
H603 H 0.97504 0.32443 0.02776 0.0
H604 H 0.78989 0.21461 0.0104 0.0
H605 H 0.87737 0.17759 0.98623 0.0
H606 H 0.94551 0.3087 0.99028 0.0
O607 O 0.76974 0.16876 0.90347 0.0
H608 H 0.65631 0.11051 0.95426 0.0
H609 H 0.68685 0.16232 0.89004 0.0
H610 H 0.81778 0.22893 0.04809 0.0
H611 H 0.99181 0.26456 0.92508 0.0
H612 H 0.91097 0.2842 0.05697 0.0
H613 H 1.00256 0.19977 0.94587 0.0
O614 O 0.78833 0.26541 0.97648 0.0
H615 H 0.81401 0.34186 0.88137 0.0
H616 H 0.67299 0.22776 0.92985 0.0
H617 H 0.66913 0.29898 0.91176 0.0
H618 H 0.73987 0.35651 0.88723 0.0
H619 H 0.81677 0.27082 0.90003 0.0
H620 H 0.59676 0.0999 0.87998 0.0
H621 H 0.53549 0.04225 0.90753 0.0
O622 O 0.72183 0.20644 0.95705 0.0
C623 C 0.76585 0.1321 0.96495 0.0
C624 C 0.59205 0.07292 0.93278 0.0
C625 C 0.60948 0.10206 0.89633 0.0
N626 N 0.67677 0.14036 0.92276 0.0
C627 C 0.64335 0.10855 0.93798 0.0
C628 C 0.66049 0.13725 0.90212 0.0
C629 C 0.5751 0.06974 0.9118 0.0
C630 C 0.92819 0.25646 0.94428 0.0
N631 N 0.89632 0.23207 0.96114 0.0
C632 C 0.96682 0.24524 0.93851 0.0
C633 C 0.97279 0.20884 0.95016 0.0
C634 C 0.94024 0.18423 0.96739 0.0
C635 C 0.90202 0.1964 0.97269 0.0
C636 C 0.93434 0.30018 0.02409 0.0
C637 C 0.83054 0.23844 0.01413 0.0
C638 C 0.91738 0.29121 1.0029 0.0
N639 N 0.86607 0.26041 0.99815 0.0
C640 C 0.84609 0.24653 0.0355 0.0
C641 C 0.89837 0.27759 0.04047 0.0
C642 C 0.74024 0.24004 0.97201 0.0
C643 C 0.78276 0.31682 0.8919 0.0
C644 C 0.70404 0.25265 0.91924 0.0
C645 C 0.70156 0.29288 0.90901 0.0
C646 C 0.74123 0.32511 0.89524 0.0
N647 N 0.74477 0.24454 0.91581 0.0
C648 C 0.7839 0.27617 0.9024 0.0
Co649 Co 0.61198 0.83504 0.30513 0.0
Co650 Co 0.57496 0.73994 0.2665 0.0
O651 O 0.60012 0.81197 0.27518 0.0
C652 C 0.5515 0.88935 0.30786 0.0
O653 O 0.52673 0.8584 0.32382 0.0
C654 C 0.65531 0.80559 0.23353 0.0
O655 O 0.67039 0.84769 0.24493 0.0
O656 O 0.6313 0.73904 0.28326 0.0
O657 O 0.63719 0.7856 0.31253 0.0
H658 H 0.52441 0.55458 0.27985 0.0
H659 H 0.65825 0.91645 0.27192 0.0
O660 O 0.58673 0.8849 0.29809 0.0
H661 H 0.80586 0.93258 0.31371 0.0
H662 H 0.67231 0.96825 0.36412 0.0
H663 H 0.59001 0.78228 0.34697 0.0
H664 H 0.71666 0.86655 0.32288 0.0
H665 H 0.65805 0.93833 0.32666 0.0
O666 O 0.62031 0.76186 0.2404 0.0
H667 H 0.55412 0.64528 0.28984 0.0
H668 H 0.54455 0.68165 0.2251 0.0
H669 H 0.60364 0.81047 0.38464 0.0
H670 H 0.74681 0.98368 0.26248 0.0
H671 H 0.64507 0.90409 0.39342 0.0
H672 H 0.82142 0.99191 0.28337 0.0
O673 O 0.54033 0.78092 0.31254 0.0
H674 H 0.49976 0.81699 0.21634 0.0
H675 H 0.46139 0.66801 0.26209 0.0
H676 H 0.39064 0.66907 0.24219 0.0
H677 H 0.40963 0.74382 0.219 0.0
H678 H 0.56917 0.81472 0.23673 0.0
H679 H 0.51511 0.59146 0.21441 0.0
H680 H 0.50464 0.52717 0.2419 0.0
O681 O 0.52751 0.71411 0.29162 0.0
C682 C 0.64681 0.7541 0.30234 0.0
C683 C 0.52865 0.5822 0.26774 0.0
C684 C 0.52351 0.60292 0.23101 0.0
N685 N 0.55072 0.66867 0.25811 0.0
C686 C 0.54533 0.63358 0.27331 0.0
C687 C 0.54033 0.65398 0.23716 0.0
C688 C 0.51763 0.56686 0.24644 0.0
C689 C 0.69042 0.92006 0.28123 0.0
N690 N 0.68217 0.88739 0.29788 0.0
C691 C 0.74053 0.95808 0.27574 0.0
C692 C 0.78238 0.96262 0.28744 0.0
C693 C 0.77368 0.92928 0.30444 0.0
C694 C 0.72305 0.89171 0.30947 0.0
C695 C 0.65427 0.92736 0.36051 0.0
C696 C 0.60816 0.82306 0.35066 0.0
C697 C 0.6461 0.91019 0.33933 0.0
N698 N 0.62336 0.85859 0.33463 0.0
C699 C 0.61574 0.83881 0.37202 0.0
C700 C 0.63897 0.89134 0.37694 0.0
C701 C 0.51435 0.73376 0.30676 0.0
C702 C 0.49105 0.78402 0.22627 0.0
C703 C 0.47009 0.70071 0.25203 0.0
C704 C 0.4298 0.70106 0.24079 0.0
C705 C 0.44048 0.743 0.22779 0.0
N706 N 0.51975 0.74085 0.2503 0.0
C707 C 0.53035 0.78235 0.23776 0.0
H708 H 0.2672 0.96979 0.9663 0.0
H709 H 0.22243 0.87116 0.02171 0.0
H710 H 0.25988 0.9465 0.04506 0.0
H711 H 0.31039 0.04096 0.05006 0.0
H712 H 0.35265 0.13959 0.99472 0.0
H713 H 0.31117 0.06423 0.97145 0.0
C714 C 0.26499 0.96467 0.98348 0.0
C715 C 0.24223 0.91448 0.99204 0.0
C716 C 0.28659 0.00846 0.99703 0.0
C717 C 0.23984 0.90903 0.01445 0.0
C718 C 0.26141 0.95227 0.02794 0.0
C719 C 0.31004 0.04606 0.03294 0.0
C720 C 0.33519 0.09627 0.02433 0.0
C721 C 0.28568 1.00226 0.01944 0.0
C722 C 0.33398 0.10171 1.002 0.0
C723 C 0.31023 0.05846 0.98855 0.0
H724 H 0.27665 0.37396 0.33423 0.0
H725 H 0.28035 0.30408 0.39398 0.0
H726 H 0.31579 0.25601 0.37584 0.0
H727 H 0.34772 0.23554 0.34354 0.0
H728 H 0.34953 0.3085 0.2839 0.0
H729 H 0.30949 0.35336 0.30153 0.0
C730 C 0.28488 0.34798 0.34329 0.0
C731 C 0.2756 0.34266 0.36552 0.0
C732 C 0.30627 0.32104 0.33279 0.0
C733 C 0.28708 0.30911 0.37694 0.0
C734 C 0.30735 0.28154 0.36656 0.0
C735 C 0.33932 0.26103 0.33423 0.0
C736 C 0.35172 0.26835 0.3123 0.0
C737 C 0.31741 0.28747 0.34455 0.0
C738 C 0.34044 0.30188 0.30073 0.0
C739 C 0.3176 0.32765 0.31084 0.0
H740 H 0.96078 0.26302 0.70979 0.0
H741 H 0.86499 0.25102 0.65596 0.0
H742 H 0.94098 0.29104 0.63296 0.0
H743 H 0.03561 0.33382 0.62847 0.0
H744 H 0.13032 0.34137 0.68211 0.0
H745 H 0.0541 0.29874 0.70458 0.0
C746 C 0.95648 0.2688 0.69299 0.0
C747 C 0.90723 0.25427 0.6847 0.0
C748 C 1.00033 0.29134 0.67974 0.0
C749 C 0.90236 0.26164 0.66282 0.0
C750 C 0.94589 0.28478 0.64963 0.0
C751 C 0.03958 0.32576 0.64501 0.0
C752 C 0.08903 0.34153 0.65351 0.0
C753 C 0.99523 0.30042 0.65796 0.0
C754 C 0.09307 0.33017 0.67501 0.0
C755 C 0.04937 0.30575 0.68799 0.0
H756 H 0.65895 0.90085 0.99714 0.0
H757 H 0.70332 0.97861 0.05826 0.0
H758 H 0.74579 0.06236 0.04042 0.0
H759 H 0.76709 0.11375 0.00758 0.0
H760 H 0.71863 0.03581 0.94659 0.0
H761 H 0.68128 0.95212 0.96431 0.0
C762 C 0.67827 0.93603 0.0066 0.0
C763 C 0.67786 0.93319 0.02906 0.0
C764 C 0.70178 0.9842 0.99626 0.0
C765 C 0.70285 0.97944 0.04098 0.0
C766 C 0.72717 0.02745 0.03078 0.0
C767 C 0.74876 0.07853 0.99811 0.0
C768 C 0.74581 0.08132 0.97573 0.0
C769 C 0.7264 0.03034 0.00844 0.0
C770 C 0.72146 0.03504 0.96382 0.0
C771 C 0.70003 0.98705 0.97394 0.0
H772 H 0.65579 0.74529 0.3453 0.0
H773 H 0.70216 0.7131 0.28448 0.0
H774 H 0.74695 0.67423 0.30261 0.0
H775 H 0.77044 0.64664 0.33555 0.0
H776 H 0.71902 0.67291 0.39634 0.0
H777 H 0.67903 0.71702 0.37841 0.0
C778 C 0.67607 0.73018 0.33601 0.0
C779 C 0.67574 0.7324 0.31352 0.0
C780 C 0.70077 0.70667 0.34654 0.0
C781 C 0.70165 0.7119 0.30177 0.0
C782 C 0.72734 0.68967 0.31214 0.0
C783 C 0.7509 0.66233 0.34496 0.0
C784 C 0.74807 0.65655 0.36733 0.0
C785 C 0.72681 0.68646 0.3345 0.0
C786 C 0.7219 0.67672 0.37913 0.0
C787 C 0.69896 0.70196 0.36887 0.0
H788 H 0.89438 0.6507 0.68089 0.0
H789 H 0.97323 0.72063 0.62204 0.0
H790 H 0.05601 0.76307 0.64101 0.0
H791 H 0.10623 0.7776 0.67383 0.0
H792 H 0.02832 0.70359 0.73233 0.0
H793 H 0.94485 0.66571 0.71389 0.0
C794 C 0.92953 0.67562 0.67218 0.0
C795 C 0.9273 0.68256 0.64999 0.0
C796 C 0.97723 0.69903 0.68312 0.0
C797 C 0.97357 0.71457 0.63906 0.0
C798 C 0.021 0.73883 0.64991 0.0
C799 C 0.07111 0.75346 0.68269 0.0
C800 C 0.07392 0.74368 0.70456 0.0
C801 C 0.02333 0.73092 0.67189 0.0
C802 C 0.02763 0.71195 0.71556 0.0
C803 C 0.9798 0.69019 0.705 0.0
H804 H 0.63548 0.18255 0.97122 0.0
H805 H 0.76126 0.31557 1.00213 0.0
H806 H 0.6991 0.32746 0.02348 0.0
H807 H 0.60824 0.29837 0.034 0.0
H808 H 0.48441 0.16238 1.00422 0.0
H809 H 0.54653 0.15353 0.98161 0.0
C810 C 0.64958 0.21437 0.98254 0.0
C811 C 0.70313 0.24818 0.98498 0.0
C812 C 0.6138 0.22049 0.99492 0.0
C813 C 0.72032 0.2889 0.9999 0.0
C814 C 0.68477 0.29577 0.01211 0.0
C815 C 0.59521 0.26728 0.02236 0.0
C816 C 0.54217 0.23134 0.02045 0.0
C817 C 0.63138 0.26169 0.00981 0.0
C818 C 0.52524 0.19052 1.00572 0.0
C819 C 0.56066 0.18542 0.99288 0.0
H820 H 0.29722 0.56483 0.34119 0.0
H821 H 0.39525 0.56024 0.39098 0.0
H822 H 0.47043 0.63228 0.37486 0.0
H823 H 0.51017 0.69313 0.34531 0.0
H824 H 0.41481 0.69453 0.29402 0.0
H825 H 0.33701 0.62761 0.31192 0.0
C826 C 0.3349 0.57995 0.34864 0.0
C827 C 0.34013 0.55714 0.36742 0.0
C828 C 0.3787 0.62086 0.33894 0.0
C829 C 0.38957 0.57704 0.37667 0.0
C830 C 0.4329 0.61829 0.36742 0.0
C831 C 0.47214 0.67935 0.33836 0.0
C832 C 0.46761 0.69875 0.31867 0.0
C833 C 0.42808 0.64006 0.34843 0.0
C834 C 0.41866 0.68009 0.30935 0.0
C835 C 0.37437 0.64181 0.31953 0.0
H836 H 0.83698 0.36722 0.69062 0.0
H837 H 0.67251 0.26418 0.68441 0.0
H838 H 0.6638 0.3322 0.6662 0.0
H839 H 0.70389 0.42163 0.65188 0.0
H840 H 0.86937 0.5206 0.65643 0.0
H841 H 0.87675 0.45366 0.67569 0.0
C842 C 0.7991 0.35957 0.68539 0.0
C843 C 0.75538 0.3109 0.68901 0.0
C844 C 0.79464 0.39826 0.67469 0.0
C845 C 0.70676 0.30139 0.68178 0.0
C846 C 0.70177 0.34029 0.67144 0.0
C847 C 0.74135 0.42833 0.65724 0.0
C848 C 0.78602 0.4758 0.65287 0.0
C849 C 0.74551 0.38897 0.66783 0.0
C850 C 0.83456 0.48415 0.65956 0.0
C851 C 0.8388 0.44599 0.67058 0.0
H852 H 0.30596 0.70925 0.98463 0.0
H853 H 0.35433 0.86967 0.99639 0.0
H854 H 0.43039 0.88099 0.01576 0.0
H855 H 0.48383 0.84606 0.02884 0.0
H856 H 0.44056 0.68767 0.01505 0.0
H857 H 0.36214 0.67476 0.99684 0.0
C858 C 0.33315 0.74646 0.99158 0.0
C859 C 0.32467 0.78851 0.98924 0.0
C860 C 0.37778 0.75312 1.00217 0.0
C861 C 0.36034 0.83684 0.99797 0.0
C862 C 0.40375 0.84333 0.00905 0.0
C863 C 0.4572 0.80862 0.02191 0.0
C864 C 0.46781 0.7678 0.02341 0.0
C865 C 0.41299 0.80186 0.01115 0.0
C866 C 0.43329 0.71976 0.01406 0.0
C867 C 0.38838 0.71232 1.00372 0.0
H868 H 0.59656 0.34159 0.30012 0.0
H869 H 0.51518 0.25528 0.35595 0.0
H870 H 0.58262 0.32049 0.37887 0.0
H871 H 0.66228 0.40464 0.38303 0.0
H872 H 0.74779 0.48651 0.32713 0.0
H873 H 0.68148 0.42011 0.30421 0.0
C874 C 0.59372 0.33673 0.31726 0.0
C875 C 0.55029 0.29395 0.32625 0.0
C876 C 0.6334 0.37367 0.33033 0.0
C877 C 0.54783 0.28795 0.34855 0.0
C878 C 0.58642 0.32531 0.3617 0.0
C879 C 0.66665 0.40778 0.36586 0.0
C880 C 0.70959 0.45101 0.35685 0.0
C881 C 0.62896 0.36876 0.35277 0.0
C882 C 0.71507 0.4539 0.33452 0.0
C883 C 0.67704 0.41596 0.32138 0.0
H884 H 0.25564 0.60076 0.63603 0.0
H885 H 0.2418 0.50785 0.69078 0.0
H886 H 0.23806 0.57161 0.71432 0.0
H887 H 0.23253 0.65087 0.7189 0.0
H888 H 0.25318 0.74685 0.66425 0.0
H889 H 0.25999 0.68463 0.64106 0.0
C890 C 0.25219 0.59469 0.65311 0.0
C891 C 0.24825 0.54932 0.66161 0.0
C892 C 0.25074 0.63183 0.66653 0.0
C893 C 0.24493 0.54244 0.68384 0.0
C894 C 0.24243 0.57875 0.69729 0.0
C895 C 0.2389 0.65844 0.70197 0.0
C896 C 0.24159 0.70328 0.69336 0.0
C897 C 0.24425 0.62311 0.68876 0.0
C898 C 0.25059 0.71262 0.67135 0.0
C899 C 0.25451 0.67701 0.65804 0.0
H900 H 0.35722 0.11682 0.13787 0.0
H901 H 0.36362 0.26379 0.13132 0.0
H902 H 0.36505 0.27324 0.17015 0.0
H903 H 0.37136 0.24274 0.20611 0.0
H904 H 0.3577 0.09255 0.2127 0.0
H905 H 0.35183 0.08116 0.17393 0.0
C906 C 0.358 0.15045 0.14498 0.0
C907 C 0.36042 0.18957 0.13171 0.0
C908 C 0.35785 0.15523 0.16739 0.0
C909 C 0.36127 0.23288 0.14115 0.0
C910 C 0.36249 0.23852 0.16338 0.0
C911 C 0.36627 0.20722 0.19903 0.0
C912 C 0.36514 0.16864 0.21227 0.0
C913 C 0.36178 0.2004 0.17668 0.0
C914 C 0.3583 0.12269 0.2029 0.0
C915 C 0.35526 0.11627 0.1807 0.0
H916 H 0.11448 0.36121 0.47365 0.0
H917 H 0.24009 0.32917 0.4687 0.0
H918 H 0.24189 0.32202 0.50752 0.0
H919 H 0.21575 0.33654 0.54298 0.0
H920 H 0.09547 0.37646 0.54786 0.0
H921 H 0.08323 0.36835 0.50919 0.0
C922 C 0.14114 0.3511 0.48105 0.0
C923 C 0.17685 0.34536 0.4683 0.0
C924 C 0.14344 0.34924 0.50348 0.0
C925 C 0.21203 0.3335 0.47817 0.0
C926 C 0.2133 0.32974 0.50038 0.0
C927 C 0.18602 0.34224 0.53563 0.0
C928 C 0.15665 0.35717 0.54833 0.0
C929 C 0.18038 0.33925 0.51325 0.0
C930 C 0.11875 0.3651 0.53847 0.0
C931 C 0.11179 0.3606 0.51633 0.0
H932 H 0.89037 0.232 0.86728 0.0
H933 H 0.73918 0.09704 0.87343 0.0
H934 H 0.73483 0.08318 0.83484 0.0
H935 H 0.76889 0.11586 0.79908 0.0
H936 H 0.91585 0.25601 0.79271 0.0
H937 H 0.92744 0.26104 0.83148 0.0
C938 C 0.85709 0.19887 0.8602 0.0
C939 C 0.81521 0.16554 0.87317 0.0
C940 C 0.85394 0.19234 0.83787 0.0
C941 C 0.77189 0.12326 0.86375 0.0
C942 C 0.7693 0.1154 0.84167 0.0
C943 C 0.80409 0.14666 0.80616 0.0
C944 C 0.84159 0.18534 0.79306 0.0
C945 C 0.80938 0.15057 0.82851 0.0
C946 C 0.88652 0.22568 0.80248 0.0
C947 C 0.89302 0.22872 0.82465 0.0
H948 H 0.66899 0.76794 0.13565 0.0
H949 H 0.67114 0.9134 0.13243 0.0
H950 H 0.68023 0.92266 0.17125 0.0
H951 H 0.67601 0.88395 0.20628 0.0
H952 H 0.66356 0.73376 0.20957 0.0
H953 H 0.67077 0.73195 0.17072 0.0
C954 C 0.67285 0.80227 0.14344 0.0
C955 C 0.66973 0.84009 0.13124 0.0
C956 C 0.6757 0.80617 0.16585 0.0
C957 C 0.67359 0.88386 0.14153 0.0
C958 C 0.67857 0.88905 0.16372 0.0
C959 C 0.67631 0.85151 0.19851 0.0
C960 C 0.6696 0.8092 0.21075 0.0
C961 C 0.67805 0.8497 0.1761 0.0
C962 C 0.66886 0.76685 0.20045 0.0
C963 C 0.67273 0.7657 0.17824 0.0
H964 H 0.89099 0.67469 0.53988 0.0
H965 H 0.73797 0.65416 0.54704 0.0
H966 H 0.7271 0.64993 0.50829 0.0
H967 H 0.75756 0.64256 0.47249 0.0
H968 H 0.9127 0.66923 0.46499 0.0
H969 H 0.92657 0.68107 0.50363 0.0
C970 C 0.85578 0.67051 0.5329 0.0
C971 C 0.8153 0.66459 0.54632 0.0
C972 C 0.85001 0.66873 0.51054 0.0
C973 C 0.76989 0.65926 0.53709 0.0
C974 C 0.76345 0.65637 0.51491 0.0
C975 C 0.79473 0.65205 0.47933 0.0
C976 C 0.83398 0.6548 0.46599 0.0
C977 C 0.8027 0.65968 0.50151 0.0
C978 C 0.88206 0.66728 0.47495 0.0
C979 C 0.88986 0.67369 0.49705 0.0
H980 H 0.22074 0.89001 0.87786 0.0
H981 H 0.08857 0.73815 0.88696 0.0
H982 H 0.07712 0.72602 0.84833 0.0
H983 H 0.10977 0.75537 0.81184 0.0
H984 H 0.23782 0.90957 0.8026 0.0
H985 H 0.24549 0.92419 0.84122 0.0
C986 C 0.18881 0.85472 0.87136 0.0
C987 C 0.15566 0.81502 0.8853 0.0
C988 C 0.18194 0.84825 0.84906 0.0
C989 C 0.11439 0.76953 0.87664 0.0
C990 C 0.10805 0.76237 0.85451 0.0
C991 C 0.13868 0.79249 0.81831 0.0
C992 C 0.17328 0.83125 0.80438 0.0
C993 C 0.14229 0.80097 0.84055 0.0
C994 C 0.21046 0.87924 0.81295 0.0
C995 C 0.21511 0.8875 0.83506 0.0
H996 H 0.57318 0.59633 0.08463 0.0
H997 H 0.52264 0.59973 0.02042 0.0
H998 H 0.49614 0.50847 0.01561 0.0
H999 H 0.4871 0.42767 0.02958 0.0
H1000 H 0.54342 0.42497 0.09271 0.0
H1001 H 0.56828 0.51598 0.098 0.0
C1002 C 0.55614 0.57692 0.06964 0.0
C1003 C 0.54936 0.60455 0.05298 0.0
C1004 C 0.54232 0.52469 0.06677 0.0
C1005 C 0.52816 0.57926 0.03349 0.0
C1006 C 0.51299 0.52709 0.03073 0.0
C1007 C 0.50485 0.44701 0.0445 0.0
C1008 C 0.51312 0.41955 0.06079 0.0
C1009 C 0.51988 0.49944 0.04724 0.0
C1010 C 0.53679 0.44532 0.07991 0.0
C1011 C 0.5508 0.49728 0.08296 0.0
H1012 H 0.97022 0.54447 0.36365 0.0
H1013 H 0.89725 0.46904 0.42256 0.0
H1014 H 0.96599 0.44861 0.42907 0.0
H1015 H 0.04664 0.45134 0.41787 0.0
H1016 H 0.11543 0.51991 0.35747 0.0
H1017 H 0.04892 0.54401 0.35172 0.0
C1018 C 0.96944 0.52359 0.37791 0.0
C1019 C 0.92873 0.50842 0.39263 0.0
C1020 C 0.00851 0.51087 0.38131 0.0
C1021 C 0.92796 0.48092 0.41092 0.0
C1022 C 0.96739 0.46939 0.4147 0.0
C1023 C 0.04726 0.47195 0.40354 0.0
C1024 C 0.08627 0.48442 0.38824 0.0
C1025 C 1.00787 0.48414 0.40001 0.0
C1026 C 0.08594 0.5101 0.36953 0.0
C1027 C 0.04789 0.52384 0.36623 0.0
H1028 H 0.57777 0.05467 0.69714 0.0
H1029 H 0.58952 0.11385 0.76108 0.0
H1030 H 0.50024 0.04639 0.7683 0.0
H1031 H 0.41833 0.97073 0.75618 0.0
H1032 H 0.40512 0.91714 0.69117 0.0
H1033 H 0.49545 0.98197 0.68461 0.0
C1034 C 0.5608 0.05271 0.71267 0.0
C1035 C 0.59023 0.08896 0.7286 0.0
C1036 C 0.50921 0.0147 0.7165 0.0
C1037 C 0.56755 0.08645 0.74855 0.0
C1038 C 0.51659 0.04779 0.75269 0.0
C1039 C 0.43548 0.97312 0.74065 0.0
C1040 C 0.4054 0.93892 0.72424 0.0
C1041 C 0.48702 0.01168 0.73679 0.0
C1042 C 0.42763 0.943 0.70406 0.0
C1043 C 0.47922 0.98004 0.7003 0.0
H1044 H 0.58995 0.56762 0.59514 0.0
H1045 H 0.59072 0.49893 0.65548 0.0
H1046 H 0.49929 0.47158 0.66063 0.0
H1047 H 0.41942 0.46817 0.64824 0.0
H1048 H 0.42001 0.54318 0.58944 0.0
H1049 H 0.51054 0.56739 0.58345 0.0
C1050 C 0.56987 0.54627 0.60931 0.0
C1051 C 0.59679 0.53469 0.62479 0.0
C1052 C 0.51768 0.53218 0.6125 0.0
C1053 C 0.57072 0.50806 0.64331 0.0
C1054 C 0.51849 0.49248 0.64626 0.0
C1055 C 0.43936 0.48978 0.6341 0.0
C1056 C 0.41298 0.50366 0.61925 0.0
C1057 C 0.49164 0.5045 0.63102 0.0
C1058 C 0.43952 0.53222 0.60115 0.0
C1059 C 0.49122 0.54588 0.59768 0.0
H1060 H 0.04209 0.58673 0.92704 0.0
H1061 H 0.11106 0.57946 0.98649 0.0
H1062 H 0.04588 0.48803 0.99013 0.0
H1063 H 0.96722 0.41094 0.97713 0.0
H1064 H 0.89366 0.42016 0.91931 0.0
H1065 H 0.96231 0.5098 0.91433 0.0
C1066 C 0.04319 0.56484 0.94062 0.0
C1067 C 0.08171 0.58957 0.95634 0.0
C1068 C 1.0044 0.51274 0.943 0.0
C1069 C 0.08196 0.56115 0.97413 0.0
C1070 C 0.04463 0.50893 0.97624 0.0
C1071 C 0.96635 0.43251 0.96339 0.0
C1072 C 0.92541 0.40884 0.94859 0.0
C1073 C 1.00533 0.48444 0.9609 0.0
C1074 C 0.92456 0.43752 0.931 0.0
C1075 C 0.96392 0.48875 0.9281 0.0
H1076 H 0.47226 0.90197 0.32177 0.0
H1077 H 0.60884 0.97369 0.28237 0.0
H1078 H 0.59534 0.0471 0.27601 0.0
H1079 H 0.54607 0.09258 0.2828 0.0
H1080 H 0.40892 0.01848 0.32198 0.0
H1081 H 0.42148 0.94482 0.32718 0.0
C1082 C 0.49905 0.93351 0.31171 0.0
C1083 C 0.54162 0.93228 0.30266 0.0
C1084 C 0.49108 0.97553 0.30812 0.0
C1085 C 0.57564 0.97345 0.28953 0.0
C1086 C 0.56805 0.01561 0.28594 0.0
C1087 C 0.51888 0.06026 0.29242 0.0
C1088 C 0.47679 0.06156 0.30207 0.0
C1089 C 0.52614 0.01736 0.29534 0.0
C1090 C 0.44177 0.01897 0.31436 0.0
C1091 C 0.44888 0.97661 0.31739 0.0
loop_
_geom_bond_atom_site_label_1
_geom_bond_atom_site_label_2
_geom_bond_distance
_geom_bond_site_symmetry_2
_ccdc_geom_bond_type
Co0 O2 2.143 . S
Co0 O8 2.074 . S
Co0 O11 2.093 . S
Co0 O24 2.097 . S
Co0 N41 2.151 . S
Co0 N49 2.214 1_554 S
Co1 O2 2.160 . S
Co1 O7 2.058 . S
Co1 O17 2.057 . S
Co1 O32 2.037 . S
Co1 N36 2.145 . S
Co1 N57 2.257 . S
O2 Co0 2.143 . S
O2 Co1 2.160 . S
C3 O4 1.278 . S
C3 O11 1.224 . S
O4 C3 1.278 . S
C5 O6 1.245 . S
C5 O17 1.232 . S
O6 C5 1.245 . S
O7 Co1 2.058 . S
O7 C33 1.269 . S
O8 Co0 2.074 . S
O8 C33 1.257 . S
H9 C34 0.930 . S
H10 C40 0.930 . S
O11 Co0 2.093 . S
O11 C3 1.224 . S
H12 C44 0.929 . S
H13 C46 0.930 . S
H14 C47 0.930 . S
H15 C45 0.929 . S
H16 C48 0.928 . S
O17 Co1 2.057 . S
O17 C5 1.232 . S
H18 C37 0.929 . S
H19 C38 0.929 . S
H20 C50 0.931 . S
H21 C42 0.929 . S
H22 C51 0.930 . S
H23 C43 0.931 . S
O24 Co0 2.097 . S
O24 C52 1.214 . S
H25 C53 0.929 . S
H26 C54 0.929 . S
H27 C55 0.930 . S
H28 C56 0.929 . S
H29 C58 0.930 . S
H30 C35 0.930 . S
H31 C39 0.930 . S
O32 Co1 2.037 . S
O32 C52 1.234 . S
C33 O7 1.269 . S
C33 O8 1.257 . S
C34 H9 0.930 . S
C34 C37 1.388 . S
C34 C39 1.418 . S
C35 H30 0.930 . S
C35 C38 1.404 . S
C35 C39 1.353 . S
N36 Co1 2.145 . S
N36 C37 1.397 . S
N36 C38 1.334 . S
C37 H18 0.929 . S
C37 C34 1.388 . S
C37 N36 1.397 . S
C38 H19 0.929 . S
C38 C35 1.404 . S
C38 N36 1.334 . S
C39 H31 0.930 . S
C39 C34 1.418 . S
C39 C35 1.353 . S
C40 H10 0.930 . S
C40 N41 1.330 . S
C40 C42 1.446 . S
N41 Co0 2.151 . S
N41 C40 1.330 . S
N41 C45 1.418 . S
C42 H21 0.929 . S
C42 C40 1.446 . S
C42 C43 1.332 . S
C43 H23 0.931 . S
C43 C42 1.332 . S
C43 C44 1.267 . S
C44 H12 0.929 . S
C44 C43 1.267 . S
C44 C45 1.251 . S
C45 H15 0.929 . S
C45 N41 1.418 . S
C45 C44 1.251 . S
C46 H13 0.930 . S
C46 C48 1.406 . S
C46 C51 1.261 . S
C47 H14 0.930 . S
C47 N49 1.325 . S
C47 C50 1.357 . S
C48 H16 0.928 . S
C48 C46 1.406 . S
C48 N49 1.261 . S
N49 Co0 2.214 1_556 S
N49 C47 1.325 . S
N49 C48 1.261 . S
C50 H20 0.931 . S
C50 C47 1.357 . S
C50 C51 1.312 . S
C51 H22 0.930 . S
C51 C46 1.261 . S
C51 C50 1.312 . S
C52 O24 1.214 . S
C52 O32 1.234 . S
C53 H25 0.929 . S
C53 C56 1.391 . S
C53 C58 1.391 . S
C54 H26 0.929 . S
C54 C55 1.390 . S
C54 N57 1.391 . S
C55 H27 0.930 . S
C55 C54 1.390 . S
C55 C56 1.392 . S
C56 H28 0.929 . S
C56 C53 1.391 . S
C56 C55 1.392 . S
N57 Co1 2.257 . S
N57 C54 1.391 . S
N57 C58 1.388 . S
C58 H29 0.930 . S
C58 C53 1.391 . S
C58 N57 1.388 . S
Co59 O61 2.143 . S
Co59 O67 2.074 . S
Co59 O70 2.093 . S
Co59 O83 2.097 . S
Co59 N100 2.151 . S
Co59 N108 2.214 . S
Co60 O61 2.160 . S
Co60 O66 2.058 . S
Co60 O76 2.057 . S
Co60 O91 2.037 . S
Co60 N95 2.145 . S
Co60 N116 2.257 . S
O61 Co59 2.143 . S
O61 Co60 2.160 . S
C62 O63 1.278 . S
C62 O70 1.224 . S
O63 C62 1.278 . S
C64 O65 1.245 . S
C64 O76 1.232 . S
O65 C64 1.245 . S
O66 Co60 2.058 . S
O66 C92 1.269 . S
O67 Co59 2.074 . S
O67 C92 1.257 . S
H68 C93 0.930 . S
H69 C99 0.930 . S
O70 Co59 2.093 . S
O70 C62 1.224 . S
H71 C103 0.929 . S
H72 C105 0.930 . S
H73 C106 0.930 . S
H74 C104 0.929 . S
H75 C107 0.928 . S
O76 Co60 2.057 . S
O76 C64 1.232 . S
H77 C96 0.929 . S
H78 C97 0.929 . S
H79 C109 0.931 . S
H80 C101 0.929 . S
H81 C110 0.930 . S
H82 C102 0.931 . S
O83 Co59 2.097 . S
O83 C111 1.214 . S
H84 C112 0.929 . S
H85 C113 0.929 . S
H86 C114 0.930 . S
H87 C115 0.929 . S
H88 C117 0.930 . S
H89 C94 0.930 . S
H90 C98 0.930 . S
O91 Co60 2.037 . S
O91 C111 1.234 . S
C92 O66 1.269 . S
C92 O67 1.257 . S
C93 H68 0.930 . S
C93 C96 1.388 . S
C93 C98 1.418 . S
C94 H89 0.930 . S
C94 C97 1.404 . S
C94 C98 1.353 . S
N95 Co60 2.145 . S
N95 C96 1.397 . S
N95 C97 1.334 . S
C96 H77 0.929 . S
C96 C93 1.388 . S
C96 N95 1.397 . S
C97 H78 0.929 . S
C97 C94 1.404 . S
C97 N95 1.334 . S
C98 H90 0.930 . S
C98 C93 1.418 . S
C98 C94 1.353 . S
C99 H69 0.930 . S
C99 N100 1.330 . S
C99 C101 1.446 1_455 S
N100 Co59 2.151 . S
N100 C99 1.330 . S
N100 C104 1.418 . S
C101 H80 0.929 . S
C101 C99 1.446 1_655 S
C101 C102 1.332 . S
C102 H82 0.931 . S
C102 C101 1.332 . S
C102 C103 1.267 1_655 S
C103 H71 0.929 . S
C103 C102 1.267 1_455 S
C103 C104 1.251 . S
C104 H74 0.929 . S
C104 N100 1.418 . S
C104 C103 1.251 . S
C105 H72 0.930 . S
C105 C107 1.406 . S
C105 C110 1.261 . S
C106 H73 0.930 . S
C106 N108 1.325 . S
C106 C109 1.357 . S
C107 H75 0.928 . S
C107 C105 1.406 . S
C107 N108 1.261 . S
N108 Co59 2.214 . S
N108 C106 1.325 . S
N108 C107 1.261 . S
C109 H79 0.931 . S
C109 C106 1.357 . S
C109 C110 1.312 . S
C110 H81 0.930 . S
C110 C105 1.261 . S
C110 C109 1.312 . S
C111 O83 1.214 . S
C111 O91 1.234 . S
C112 H84 0.929 . S
C112 C115 1.391 . S
C112 C117 1.391 . S
C113 H85 0.929 . S
C113 C114 1.390 . S
C113 N116 1.391 . S
C114 H86 0.930 . S
C114 C113 1.390 . S
C114 C115 1.392 . S
C115 H87 0.929 . S
C115 C112 1.391 . S
C115 C114 1.392 . S
N116 Co60 2.257 . S
N116 C113 1.391 . S
N116 C117 1.388 . S
C117 H88 0.930 . S
C117 C112 1.391 . S
C117 N116 1.388 . S
Co118 O120 2.143 . S
Co118 O126 2.074 . S
Co118 O129 2.093 . S
Co118 O142 2.097 . S
Co118 N159 2.151 . S
Co118 N167 2.214 . S
Co119 O120 2.160 . S
Co119 O125 2.058 . S
Co119 O135 2.057 . S
Co119 O150 2.037 . S
Co119 N154 2.145 . S
Co119 N175 2.257 . S
O120 Co118 2.143 . S
O120 Co119 2.160 . S
C121 O122 1.278 . S
C121 O129 1.224 . S
O122 C121 1.278 . S
C123 O124 1.245 . S
C123 O135 1.232 . S
O124 C123 1.245 . S
O125 Co119 2.058 . S
O125 C151 1.269 . S
O126 Co118 2.074 . S
O126 C151 1.257 . S
H127 C152 0.930 . S
H128 C158 0.930 . S
O129 Co118 2.093 . S
O129 C121 1.224 . S
H130 C162 0.929 . S
H131 C164 0.930 . S
H132 C165 0.930 . S
H133 C163 0.929 . S
H134 C166 0.928 . S
O135 Co119 2.057 . S
O135 C123 1.232 . S
H136 C155 0.929 . S
H137 C156 0.929 . S
H138 C168 0.931 . S
H139 C160 0.929 . S
H140 C169 0.930 . S
H141 C161 0.931 . S
O142 Co118 2.097 . S
O142 C170 1.214 . S
H143 C171 0.929 . S
H144 C172 0.929 . S
H145 C173 0.930 . S
H146 C174 0.929 . S
H147 C176 0.930 . S
H148 C153 0.930 . S
H149 C157 0.930 . S
O150 Co119 2.037 . S
O150 C170 1.234 . S
C151 O125 1.269 . S
C151 O126 1.257 . S
C152 H127 0.930 . S
C152 C155 1.388 . S
C152 C157 1.418 . S
C153 H148 0.930 . S
C153 C156 1.404 . S
C153 C157 1.353 . S
N154 Co119 2.145 . S
N154 C155 1.397 . S
N154 C156 1.334 . S
C155 H136 0.929 . S
C155 C152 1.388 . S
C155 N154 1.397 . S
C156 H137 0.929 . S
C156 C153 1.404 . S
C156 N154 1.334 . S
C157 H149 0.930 . S
C157 C152 1.418 . S
C157 C153 1.353 . S
C158 H128 0.930 . S
C158 N159 1.330 . S
C158 C160 1.446 1_545 S
N159 Co118 2.151 . S
N159 C158 1.330 . S
N159 C163 1.418 . S
C160 H139 0.929 . S
C160 C158 1.446 1_565 S
C160 C161 1.332 . S
C161 H141 0.931 . S
C161 C160 1.332 . S
C161 C162 1.267 1_565 S
C162 H130 0.929 . S
C162 C161 1.267 1_545 S
C162 C163 1.251 . S
C163 H133 0.929 . S
C163 N159 1.418 . S
C163 C162 1.251 . S
C164 H131 0.930 . S
C164 C166 1.406 . S
C164 C169 1.261 . S
C165 H132 0.930 . S
C165 N167 1.325 . S
C165 C168 1.357 . S
C166 H134 0.928 . S
C166 C164 1.406 . S
C166 N167 1.261 . S
N167 Co118 2.214 . S
N167 C165 1.325 . S
N167 C166 1.261 . S
C168 H138 0.931 . S
C168 C165 1.357 . S
C168 C169 1.312 . S
C169 H140 0.930 . S
C169 C164 1.261 . S
C169 C168 1.312 . S
C170 O142 1.214 . S
C170 O150 1.234 . S
C171 H143 0.929 . S
C171 C174 1.391 . S
C171 C176 1.391 . S
C172 H144 0.929 . S
C172 C173 1.390 . S
C172 N175 1.391 . S
C173 H145 0.930 . S
C173 C172 1.390 . S
C173 C174 1.392 . S
C174 H146 0.929 . S
C174 C171 1.391 . S
C174 C173 1.392 . S
N175 Co119 2.257 . S
N175 C172 1.391 . S
N175 C176 1.388 . S
C176 H147 0.930 . S
C176 C171 1.391 . S
C176 N175 1.388 . S
Co177 O179 2.143 . S
Co177 O185 2.074 . S
Co177 O188 2.093 . S
Co177 O201 2.097 . S
Co177 N218 2.151 . S
Co177 N226 2.214 1_554 S
Co178 O179 2.160 . S
Co178 O184 2.058 . S
Co178 O194 2.057 . S
Co178 O209 2.037 . S
Co178 N213 2.145 . S
Co178 N234 2.257 . S
O179 Co177 2.143 . S
O179 Co178 2.160 . S
C180 O181 1.278 . S
C180 O188 1.224 . S
O181 C180 1.278 . S
C182 O183 1.245 . S
C182 O194 1.232 . S
O183 C182 1.245 . S
O184 Co178 2.058 . S
O184 C210 1.269 . S
O185 Co177 2.074 . S
O185 C210 1.257 . S
H186 C211 0.930 . S
H187 C217 0.930 . S
O188 Co177 2.093 . S
O188 C180 1.224 . S
H189 C221 0.929 . S
H190 C223 0.930 . S
H191 C224 0.930 . S
H192 C222 0.929 . S
H193 C225 0.928 . S
O194 Co178 2.057 . S
O194 C182 1.232 . S
H195 C214 0.929 . S
H196 C215 0.929 . S
H197 C227 0.931 . S
H198 C219 0.929 . S
H199 C228 0.930 . S
H200 C220 0.931 . S
O201 Co177 2.097 . S
O201 C229 1.214 . S
H202 C230 0.929 . S
H203 C231 0.929 . S
H204 C232 0.930 . S
H205 C233 0.929 . S
H206 C235 0.930 . S
H207 C212 0.930 . S
H208 C216 0.930 . S
O209 Co178 2.037 . S
O209 C229 1.234 . S
C210 O184 1.269 . S
C210 O185 1.257 . S
C211 H186 0.930 . S
C211 C214 1.388 . S
C211 C216 1.418 . S
C212 H207 0.930 . S
C212 C215 1.404 . S
C212 C216 1.353 . S
N213 Co178 2.145 . S
N213 C214 1.397 . S
N213 C215 1.334 . S
C214 H195 0.929 . S
C214 C211 1.388 . S
C214 N213 1.397 . S
C215 H196 0.929 . S
C215 C212 1.404 . S
C215 N213 1.334 . S
C216 H208 0.930 . S
C216 C211 1.418 . S
C216 C212 1.353 . S
C217 H187 0.930 . S
C217 N218 1.330 . S
C217 C219 1.446 . S
N218 Co177 2.151 . S
N218 C217 1.330 . S
N218 C222 1.418 . S
C219 H198 0.929 . S
C219 C217 1.446 . S
C219 C220 1.332 . S
C220 H200 0.931 . S
C220 C219 1.332 . S
C220 C221 1.267 . S
C221 H189 0.929 . S
C221 C220 1.267 . S
C221 C222 1.251 . S
C222 H192 0.929 . S
C222 N218 1.418 . S
C222 C221 1.251 . S
C223 H190 0.930 . S
C223 C225 1.406 . S
C223 C228 1.261 . S
C224 H191 0.930 . S
C224 N226 1.325 . S
C224 C227 1.357 . S
C225 H193 0.928 . S
C225 C223 1.406 . S
C225 N226 1.261 . S
N226 Co177 2.214 1_556 S
N226 C224 1.325 . S
N226 C225 1.261 . S
C227 H197 0.931 . S
C227 C224 1.357 . S
C227 C228 1.312 . S
C228 H199 0.930 . S
C228 C223 1.261 . S
C228 C227 1.312 . S
C229 O201 1.214 . S
C229 O209 1.234 . S
C230 H202 0.929 . S
C230 C233 1.391 . S
C230 C235 1.391 . S
C231 H203 0.929 . S
C231 C232 1.390 . S
C231 N234 1.391 . S
C232 H204 0.930 . S
C232 C231 1.390 . S
C232 C233 1.392 . S
C233 H205 0.929 . S
C233 C230 1.391 . S
C233 C232 1.392 . S
N234 Co178 2.257 . S
N234 C231 1.391 . S
N234 C235 1.388 . S
C235 H206 0.930 . S
C235 C230 1.391 . S
C235 N234 1.388 . S
Co236 O238 2.143 . S
Co236 O244 2.074 . S
Co236 O247 2.093 . S
Co236 O260 2.097 . S
Co236 N277 2.151 . S
Co236 N285 2.214 . S
Co237 O238 2.160 . S
Co237 O243 2.058 . S
Co237 O253 2.057 . S
Co237 O268 2.037 . S
Co237 N272 2.145 . S
Co237 N293 2.257 . S
O238 Co236 2.143 . S
O238 Co237 2.160 . S
C239 O240 1.278 . S
C239 O247 1.224 . S
O240 C239 1.278 . S
C241 O242 1.245 . S
C241 O253 1.232 . S
O242 C241 1.245 . S
O243 Co237 2.058 . S
O243 C269 1.269 . S
O244 Co236 2.074 . S
O244 C269 1.257 . S
H245 C270 0.930 . S
H246 C276 0.930 . S
O247 Co236 2.093 . S
O247 C239 1.224 . S
H248 C280 0.929 . S
H249 C282 0.930 . S
H250 C283 0.930 . S
H251 C281 0.929 . S
H252 C284 0.928 . S
O253 Co237 2.057 . S
O253 C241 1.232 . S
H254 C273 0.929 . S
H255 C274 0.929 . S
H256 C286 0.931 . S
H257 C278 0.929 . S
H258 C287 0.930 . S
H259 C279 0.931 . S
O260 Co236 2.097 . S
O260 C288 1.214 . S
H261 C289 0.929 . S
H262 C290 0.929 . S
H263 C291 0.930 . S
H264 C292 0.929 . S
H265 C294 0.930 . S
H266 C271 0.930 . S
H267 C275 0.930 . S
O268 Co237 2.037 . S
O268 C288 1.234 . S
C269 O243 1.269 . S
C269 O244 1.257 . S
C270 H245 0.930 . S
C270 C273 1.388 . S
C270 C275 1.418 . S
C271 H266 0.930 . S
C271 C274 1.404 . S
C271 C275 1.353 . S
N272 Co237 2.145 . S
N272 C273 1.397 . S
N272 C274 1.334 . S
C273 H254 0.929 . S
C273 C270 1.388 . S
C273 N272 1.397 . S
C274 H255 0.929 . S
C274 C271 1.404 . S
C274 N272 1.334 . S
C275 H267 0.930 . S
C275 C270 1.418 . S
C275 C271 1.353 . S
C276 H246 0.930 . S
C276 N277 1.330 . S
C276 C278 1.446 1_655 S
N277 Co236 2.151 . S
N277 C276 1.330 . S
N277 C281 1.418 . S
C278 H257 0.929 . S
C278 C276 1.446 1_455 S
C278 C279 1.332 . S
C279 H259 0.931 . S
C279 C278 1.332 . S
C279 C280 1.267 1_455 S
C280 H248 0.929 . S
C280 C279 1.267 1_655 S
C280 C281 1.251 . S
C281 H251 0.929 . S
C281 N277 1.418 . S
C281 C280 1.251 . S
C282 H249 0.930 . S
C282 C284 1.406 . S
C282 C287 1.261 . S
C283 H250 0.930 . S
C283 N285 1.325 . S
C283 C286 1.357 . S
C284 H252 0.928 . S
C284 C282 1.406 . S
C284 N285 1.261 . S
N285 Co236 2.214 . S
N285 C283 1.325 . S
N285 C284 1.261 . S
C286 H256 0.931 . S
C286 C283 1.357 . S
C286 C287 1.312 . S
C287 H258 0.930 . S
C287 C282 1.261 . S
C287 C286 1.312 . S
C288 O260 1.214 . S
C288 O268 1.234 . S
C289 H261 0.929 . S
C289 C292 1.391 . S
C289 C294 1.391 . S
C290 H262 0.929 . S
C290 C291 1.390 . S
C290 N293 1.391 . S
C291 H263 0.930 . S
C291 C290 1.390 . S
C291 C292 1.392 . S
C292 H264 0.929 . S
C292 C289 1.391 . S
C292 C291 1.392 . S
N293 Co237 2.257 . S
N293 C290 1.391 . S
N293 C294 1.388 . S
C294 H265 0.930 . S
C294 C289 1.391 . S
C294 N293 1.388 . S
Co295 O297 2.143 . S
Co295 O303 2.074 . S
Co295 O306 2.093 . S
Co295 O319 2.097 . S
Co295 N336 2.151 . S
Co295 N344 2.214 . S
Co296 O297 2.160 . S
Co296 O302 2.058 . S
Co296 O312 2.057 . S
Co296 O327 2.037 . S
Co296 N331 2.145 . S
Co296 N352 2.257 . S
O297 Co295 2.143 . S
O297 Co296 2.160 . S
C298 O299 1.278 . S
C298 O306 1.224 . S
O299 C298 1.278 . S
C300 O301 1.245 . S
C300 O312 1.232 . S
O301 C300 1.245 . S
O302 Co296 2.058 . S
O302 C328 1.269 . S
O303 Co295 2.074 . S
O303 C328 1.257 . S
H304 C329 0.930 . S
H305 C335 0.930 . S
O306 Co295 2.093 . S
O306 C298 1.224 . S
H307 C339 0.929 . S
H308 C341 0.930 . S
H309 C342 0.930 . S
H310 C340 0.929 . S
H311 C343 0.928 . S
O312 Co296 2.057 . S
O312 C300 1.232 . S
H313 C332 0.929 . S
H314 C333 0.929 . S
H315 C345 0.931 . S
H316 C337 0.929 . S
H317 C346 0.930 . S
H318 C338 0.931 . S
O319 Co295 2.097 . S
O319 C347 1.214 . S
H320 C348 0.929 . S
H321 C349 0.929 . S
H322 C350 0.930 . S
H323 C351 0.929 . S
H324 C353 0.930 . S
H325 C330 0.930 . S
H326 C334 0.930 . S
O327 Co296 2.037 . S
O327 C347 1.234 . S
C328 O302 1.269 . S
C328 O303 1.257 . S
C329 H304 0.930 . S
C329 C332 1.388 . S
C329 C334 1.418 . S
C330 H325 0.930 . S
C330 C333 1.404 . S
C330 C334 1.353 . S
N331 Co296 2.145 . S
N331 C332 1.397 . S
N331 C333 1.334 . S
C332 H313 0.929 . S
C332 C329 1.388 . S
C332 N331 1.397 . S
C333 H314 0.929 . S
C333 C330 1.404 . S
C333 N331 1.334 . S
C334 H326 0.930 . S
C334 C329 1.418 . S
C334 C330 1.353 . S
C335 H305 0.930 . S
C335 N336 1.330 . S
C335 C337 1.446 1_565 S
N336 Co295 2.151 . S
N336 C335 1.330 . S
N336 C340 1.418 . S
C337 H316 0.929 . S
C337 C335 1.446 1_545 S
C337 C338 1.332 . S
C338 H318 0.931 . S
C338 C337 1.332 . S
C338 C339 1.267 1_545 S
C339 H307 0.929 . S
C339 C338 1.267 1_565 S
C339 C340 1.251 . S
C340 H310 0.929 . S
C340 N336 1.418 . S
C340 C339 1.251 . S
C341 H308 0.930 . S
C341 C343 1.406 . S
C341 C346 1.261 . S
C342 H309 0.930 . S
C342 N344 1.325 . S
C342 C345 1.357 . S
C343 H311 0.928 . S
C343 C341 1.406 . S
C343 N344 1.261 . S
N344 Co295 2.214 . S
N344 C342 1.325 . S
N344 C343 1.261 . S
C345 H315 0.931 . S
C345 C342 1.357 . S
C345 C346 1.312 . S
C346 H317 0.930 . S
C346 C341 1.261 . S
C346 C345 1.312 . S
C347 O319 1.214 . S
C347 O327 1.234 . S
C348 H320 0.929 . S
C348 C351 1.391 . S
C348 C353 1.391 . S
C349 H321 0.929 . S
C349 C350 1.390 . S
C349 N352 1.391 . S
C350 H322 0.930 . S
C350 C349 1.390 . S
C350 C351 1.392 . S
C351 H323 0.929 . S
C351 C348 1.391 . S
C351 C350 1.392 . S
N352 Co296 2.257 . S
N352 C349 1.391 . S
N352 C353 1.388 . S
C353 H324 0.930 . S
C353 C348 1.391 . S
C353 N352 1.388 . S
Co354 O356 2.143 . S
Co354 O362 2.074 . S
Co354 O365 2.093 . S
Co354 O378 2.097 . S
Co354 N395 2.151 . S
Co354 N403 2.214 . S
Co355 O356 2.160 . S
Co355 O361 2.058 . S
Co355 O371 2.057 . S
Co355 O386 2.037 . S
Co355 N390 2.145 . S
Co355 N411 2.257 . S
O356 Co354 2.143 . S
O356 Co355 2.160 . S
C357 O358 1.278 . S
C357 O365 1.224 . S
O358 C357 1.278 . S
C359 O360 1.245 . S
C359 O371 1.232 . S
O360 C359 1.245 . S
O361 Co355 2.058 . S
O361 C387 1.269 . S
O362 Co354 2.074 . S
O362 C387 1.257 . S
H363 C388 0.930 . S
H364 C394 0.930 . S
O365 Co354 2.093 . S
O365 C357 1.224 . S
H366 C398 0.929 . S
H367 C400 0.930 . S
H368 C401 0.930 . S
H369 C399 0.929 . S
H370 C402 0.928 . S
O371 Co355 2.057 . S
O371 C359 1.232 . S
H372 C391 0.929 . S
H373 C392 0.929 . S
H374 C404 0.931 . S
H375 C396 0.929 . S
H376 C405 0.930 . S
H377 C397 0.931 . S
O378 Co354 2.097 . S
O378 C406 1.214 . S
H379 C407 0.929 . S
H380 C408 0.929 . S
H381 C409 0.930 . S
H382 C410 0.929 . S
H383 C412 0.930 . S
H384 C389 0.930 . S
H385 C393 0.930 . S
O386 Co355 2.037 . S
O386 C406 1.234 . S
C387 O361 1.269 . S
C387 O362 1.257 . S
C388 H363 0.930 . S
C388 C391 1.388 . S
C388 C393 1.418 . S
C389 H384 0.930 . S
C389 C392 1.404 . S
C389 C393 1.353 . S
N390 Co355 2.145 . S
N390 C391 1.397 . S
N390 C392 1.334 . S
C391 H372 0.929 . S
C391 C388 1.388 . S
C391 N390 1.397 . S
C392 H373 0.929 . S
C392 C389 1.404 . S
C392 N390 1.334 . S
C393 H385 0.930 . S
C393 C388 1.418 . S
C393 C389 1.353 . S
C394 H364 0.930 . S
C394 N395 1.330 . S
C394 C396 1.446 . S
N395 Co354 2.151 . S
N395 C394 1.330 . S
N395 C399 1.418 . S
C396 H375 0.929 . S
C396 C394 1.446 . S
C396 C397 1.332 . S
C397 H377 0.931 . S
C397 C396 1.332 . S
C397 C398 1.267 . S
C398 H366 0.929 . S
C398 C397 1.267 . S
C398 C399 1.251 . S
C399 H369 0.929 . S
C399 N395 1.418 . S
C399 C398 1.251 . S
C400 H367 0.930 . S
C400 C402 1.406 . S
C400 C405 1.261 . S
C401 H368 0.930 . S
C401 N403 1.325 . S
C401 C404 1.357 . S
C402 H370 0.928 . S
C402 C400 1.406 . S
C402 N403 1.261 . S
N403 Co354 2.214 . S
N403 C401 1.325 . S
N403 C402 1.261 . S
C404 H374 0.931 . S
C404 C401 1.357 . S
C404 C405 1.312 . S
C405 H376 0.930 . S
C405 C400 1.261 . S
C405 C404 1.312 . S
C406 O378 1.214 . S
C406 O386 1.234 . S
C407 H379 0.929 . S
C407 C410 1.391 . S
C407 C412 1.391 . S
C408 H380 0.929 . S
C408 C409 1.390 . S
C408 N411 1.391 . S
C409 H381 0.930 . S
C409 C408 1.390 . S
C409 C410 1.392 . S
C410 H382 0.929 . S
C410 C407 1.391 . S
C410 C409 1.392 . S
N411 Co355 2.257 . S
N411 C408 1.391 . S
N411 C412 1.388 . S
C412 H383 0.930 . S
C412 C407 1.391 . S
C412 N411 1.388 . S
Co413 O415 2.143 . S
Co413 O421 2.074 . S
Co413 O424 2.093 . S
Co413 O437 2.097 . S
Co413 N454 2.151 . S
Co413 N462 2.214 1_556 S
Co414 O415 2.160 . S
Co414 O420 2.058 . S
Co414 O430 2.057 . S
Co414 O445 2.037 . S
Co414 N449 2.145 . S
Co414 N470 2.257 . S
O415 Co413 2.143 . S
O415 Co414 2.160 . S
C416 O417 1.278 . S
C416 O424 1.224 . S
O417 C416 1.278 . S
C418 O419 1.245 . S
C418 O430 1.232 . S
O419 C418 1.245 . S
O420 Co414 2.058 . S
O420 C446 1.269 . S
O421 Co413 2.074 . S
O421 C446 1.257 . S
H422 C447 0.930 . S
H423 C453 0.930 . S
O424 Co413 2.093 . S
O424 C416 1.224 . S
H425 C457 0.929 . S
H426 C459 0.930 . S
H427 C460 0.930 . S
H428 C458 0.929 . S
H429 C461 0.928 . S
O430 Co414 2.057 . S
O430 C418 1.232 . S
H431 C450 0.929 . S
H432 C451 0.929 . S
H433 C463 0.931 . S
H434 C455 0.929 . S
H435 C464 0.930 . S
H436 C456 0.931 . S
O437 Co413 2.097 . S
O437 C465 1.214 . S
H438 C466 0.929 . S
H439 C467 0.929 . S
H440 C468 0.930 . S
H441 C469 0.929 . S
H442 C471 0.930 . S
H443 C448 0.930 . S
H444 C452 0.930 . S
O445 Co414 2.037 . S
O445 C465 1.234 . S
C446 O420 1.269 . S
C446 O421 1.257 . S
C447 H422 0.930 . S
C447 C450 1.388 . S
C447 C452 1.418 . S
C448 H443 0.930 . S
C448 C451 1.404 . S
C448 C452 1.353 . S
N449 Co414 2.145 . S
N449 C450 1.397 . S
N449 C451 1.334 . S
C450 H431 0.929 . S
C450 C447 1.388 . S
C450 N449 1.397 . S
C451 H432 0.929 . S
C451 C448 1.404 . S
C451 N449 1.334 . S
C452 H444 0.930 . S
C452 C447 1.418 . S
C452 C448 1.353 . S
C453 H423 0.930 . S
C453 N454 1.330 . S
C453 C455 1.446 1_455 S
N454 Co413 2.151 . S
N454 C453 1.330 . S
N454 C458 1.418 . S
C455 H434 0.929 . S
C455 C453 1.446 1_655 S
C455 C456 1.332 . S
C456 H436 0.931 . S
C456 C455 1.332 . S
C456 C457 1.267 1_655 S
C457 H425 0.929 . S
C457 C456 1.267 1_455 S
C457 C458 1.251 . S
C458 H428 0.929 . S
C458 N454 1.418 . S
C458 C457 1.251 . S
C459 H426 0.930 . S
C459 C461 1.406 . S
C459 C464 1.261 . S
C460 H427 0.930 . S
C460 N462 1.325 . S
C460 C463 1.357 . S
C461 H429 0.928 . S
C461 C459 1.406 . S
C461 N462 1.261 . S
N462 Co413 2.214 1_554 S
N462 C460 1.325 . S
N462 C461 1.261 . S
C463 H433 0.931 . S
C463 C460 1.357 . S
C463 C464 1.312 . S
C464 H435 0.930 . S
C464 C459 1.261 . S
C464 C463 1.312 . S
C465 O437 1.214 . S
C465 O445 1.234 . S
C466 H438 0.929 . S
C466 C469 1.391 . S
C466 C471 1.391 . S
C467 H439 0.929 . S
C467 C468 1.390 . S
C467 N470 1.391 . S
C468 H440 0.930 . S
C468 C467 1.390 . S
C468 C469 1.392 . S
C469 H441 0.929 . S
C469 C466 1.391 . S
C469 C468 1.392 . S
N470 Co414 2.257 . S
N470 C467 1.391 . S
N470 C471 1.388 . S
C471 H442 0.930 . S
C471 C466 1.391 . S
C471 N470 1.388 . S
Co472 O474 2.143 . S
Co472 O480 2.074 . S
Co472 O483 2.093 . S
Co472 O496 2.097 . S
Co472 N513 2.151 . S
Co472 N521 2.214 . S
Co473 O474 2.160 . S
Co473 O479 2.058 . S
Co473 O489 2.057 . S
Co473 O504 2.037 . S
Co473 N508 2.145 . S
Co473 N529 2.257 . S
O474 Co472 2.143 . S
O474 Co473 2.160 . S
C475 O476 1.278 . S
C475 O483 1.224 . S
O476 C475 1.278 . S
C477 O478 1.245 . S
C477 O489 1.232 . S
O478 C477 1.245 . S
O479 Co473 2.058 . S
O479 C505 1.269 . S
O480 Co472 2.074 . S
O480 C505 1.257 . S
H481 C506 0.930 . S
H482 C512 0.930 . S
O483 Co472 2.093 . S
O483 C475 1.224 . S
H484 C516 0.929 . S
H485 C518 0.930 . S
H486 C519 0.930 . S
H487 C517 0.929 . S
H488 C520 0.928 . S
O489 Co473 2.057 . S
O489 C477 1.232 . S
H490 C509 0.929 . S
H491 C510 0.929 . S
H492 C522 0.931 . S
H493 C514 0.929 . S
H494 C523 0.930 . S
H495 C515 0.931 . S
O496 Co472 2.097 . S
O496 C524 1.214 . S
H497 C525 0.929 . S
H498 C526 0.929 . S
H499 C527 0.930 . S
H500 C528 0.929 . S
H501 C530 0.930 . S
H502 C507 0.930 . S
H503 C511 0.930 . S
O504 Co473 2.037 . S
O504 C524 1.234 . S
C505 O479 1.269 . S
C505 O480 1.257 . S
C506 H481 0.930 . S
C506 C509 1.388 . S
C506 C511 1.418 . S
C507 H502 0.930 . S
C507 C510 1.404 . S
C507 C511 1.353 . S
N508 Co473 2.145 . S
N508 C509 1.397 . S
N508 C510 1.334 . S
C509 H490 0.929 . S
C509 C506 1.388 . S
C509 N508 1.397 . S
C510 H491 0.929 . S
C510 C507 1.404 . S
C510 N508 1.334 . S
C511 H503 0.930 . S
C511 C506 1.418 . S
C511 C507 1.353 . S
C512 H482 0.930 . S
C512 N513 1.330 . S
C512 C514 1.446 1_545 S
N513 Co472 2.151 . S
N513 C512 1.330 . S
N513 C517 1.418 . S
C514 H493 0.929 . S
C514 C512 1.446 1_565 S
C514 C515 1.332 . S
C515 H495 0.931 . S
C515 C514 1.332 . S
C515 C516 1.267 1_565 S
C516 H484 0.929 . S
C516 C515 1.267 1_545 S
C516 C517 1.251 . S
C517 H487 0.929 . S
C517 N513 1.418 . S
C517 C516 1.251 . S
C518 H485 0.930 . S
C518 C520 1.406 . S
C518 C523 1.261 . S
C519 H486 0.930 . S
C519 N521 1.325 . S
C519 C522 1.357 . S
C520 H488 0.928 . S
C520 C518 1.406 . S
C520 N521 1.261 . S
N521 Co472 2.214 . S
N521 C519 1.325 . S
N521 C520 1.261 . S
C522 H492 0.931 . S
C522 C519 1.357 . S
C522 C523 1.312 . S
C523 H494 0.930 . S
C523 C518 1.261 . S
C523 C522 1.312 . S
C524 O496 1.214 . S
C524 O504 1.234 . S
C525 H497 0.929 . S
C525 C528 1.391 . S
C525 C530 1.391 . S
C526 H498 0.929 . S
C526 C527 1.390 . S
C526 N529 1.391 . S
C527 H499 0.930 . S
C527 C526 1.390 . S
C527 C528 1.392 . S
C528 H500 0.929 . S
C528 C525 1.391 . S
C528 C527 1.392 . S
N529 Co473 2.257 . S
N529 C526 1.391 . S
N529 C530 1.388 . S
C530 H501 0.930 . S
C530 C525 1.391 . S
C530 N529 1.388 . S
Co531 O533 2.143 . S
Co531 O539 2.074 . S
Co531 O542 2.093 . S
Co531 O555 2.097 . S
Co531 N572 2.151 . S
Co531 N580 2.214 . S
Co532 O533 2.160 . S
Co532 O538 2.058 . S
Co532 O548 2.057 . S
Co532 O563 2.037 . S
Co532 N567 2.145 . S
Co532 N588 2.257 . S
O533 Co531 2.143 . S
O533 Co532 2.160 . S
C534 O535 1.278 . S
C534 O542 1.224 . S
O535 C534 1.278 . S
C536 O537 1.245 . S
C536 O548 1.232 . S
O537 C536 1.245 . S
O538 Co532 2.058 . S
O538 C564 1.269 . S
O539 Co531 2.074 . S
O539 C564 1.257 . S
H540 C565 0.930 . S
H541 C571 0.930 . S
O542 Co531 2.093 . S
O542 C534 1.224 . S
H543 C575 0.929 . S
H544 C577 0.930 . S
H545 C578 0.930 . S
H546 C576 0.929 . S
H547 C579 0.928 . S
O548 Co532 2.057 . S
O548 C536 1.232 . S
H549 C568 0.929 . S
H550 C569 0.929 . S
H551 C581 0.931 . S
H552 C573 0.929 . S
H553 C582 0.930 . S
H554 C574 0.931 . S
O555 Co531 2.097 . S
O555 C583 1.214 . S
H556 C584 0.929 . S
H557 C585 0.929 . S
H558 C586 0.930 . S
H559 C587 0.929 . S
H560 C589 0.930 . S
H561 C566 0.930 . S
H562 C570 0.930 . S
O563 Co532 2.037 . S
O563 C583 1.234 . S
C564 O538 1.269 . S
C564 O539 1.257 . S
C565 H540 0.930 . S
C565 C568 1.388 . S
C565 C570 1.418 . S
C566 H561 0.930 . S
C566 C569 1.404 . S
C566 C570 1.353 . S
N567 Co532 2.145 . S
N567 C568 1.397 . S
N567 C569 1.334 . S
C568 H549 0.929 . S
C568 C565 1.388 . S
C568 N567 1.397 . S
C569 H550 0.929 . S
C569 C566 1.404 . S
C569 N567 1.334 . S
C570 H562 0.930 . S
C570 C565 1.418 . S
C570 C566 1.353 . S
C571 H541 0.930 . S
C571 N572 1.330 . S
C571 C573 1.446 . S
N572 Co531 2.151 . S
N572 C571 1.330 . S
N572 C576 1.418 . S
C573 H552 0.929 . S
C573 C571 1.446 . S
C573 C574 1.332 . S
C574 H554 0.931 . S
C574 C573 1.332 . S
C574 C575 1.267 . S
C575 H543 0.929 . S
C575 C574 1.267 . S
C575 C576 1.251 . S
C576 H546 0.929 . S
C576 N572 1.418 . S
C576 C575 1.251 . S
C577 H544 0.930 . S
C577 C579 1.406 . S
C577 C582 1.261 . S
C578 H545 0.930 . S
C578 N580 1.325 . S
C578 C581 1.357 . S
C579 H547 0.928 . S
C579 C577 1.406 . S
C579 N580 1.261 . S
N580 Co531 2.214 . S
N580 C578 1.325 . S
N580 C579 1.261 . S
C581 H551 0.931 . S
C581 C578 1.357 . S
C581 C582 1.312 . S
C582 H553 0.930 . S
C582 C577 1.261 . S
C582 C581 1.312 . S
C583 O555 1.214 . S
C583 O563 1.234 . S
C584 H556 0.929 . S
C584 C587 1.391 . S
C584 C589 1.391 . S
C585 H557 0.929 . S
C585 C586 1.390 . S
C585 N588 1.391 . S
C586 H558 0.930 . S
C586 C585 1.390 . S
C586 C587 1.392 . S
C587 H559 0.929 . S
C587 C584 1.391 . S
C587 C586 1.392 . S
N588 Co532 2.257 . S
N588 C585 1.391 . S
N588 C589 1.388 . S
C589 H560 0.930 . S
C589 C584 1.391 . S
C589 N588 1.388 . S
Co590 O592 2.143 . S
Co590 O598 2.074 . S
Co590 O601 2.093 . S
Co590 O614 2.097 . S
Co590 N631 2.151 . S
Co590 N639 2.214 1_556 S
Co591 O592 2.160 . S
Co591 O597 2.058 . S
Co591 O607 2.057 . S
Co591 O622 2.037 . S
Co591 N626 2.145 . S
Co591 N647 2.257 . S
O592 Co590 2.143 . S
O592 Co591 2.160 . S
C593 O594 1.278 . S
C593 O601 1.224 . S
O594 C593 1.278 . S
C595 O596 1.245 . S
C595 O607 1.232 . S
O596 C595 1.245 . S
O597 Co591 2.058 . S
O597 C623 1.269 . S
O598 Co590 2.074 . S
O598 C623 1.257 . S
H599 C624 0.930 . S
H600 C630 0.930 . S
O601 Co590 2.093 . S
O601 C593 1.224 . S
H602 C634 0.929 . S
H603 C636 0.930 . S
H604 C637 0.930 . S
H605 C635 0.929 . S
H606 C638 0.928 . S
O607 Co591 2.057 . S
O607 C595 1.232 . S
H608 C627 0.929 . S
H609 C628 0.929 . S
H610 C640 0.931 . S
H611 C632 0.929 . S
H612 C641 0.930 . S
H613 C633 0.931 . S
O614 Co590 2.097 . S
O614 C642 1.214 . S
H615 C643 0.929 . S
H616 C644 0.929 . S
H617 C645 0.930 . S
H618 C646 0.929 . S
H619 C648 0.930 . S
H620 C625 0.930 . S
H621 C629 0.930 . S
O622 Co591 2.037 . S
O622 C642 1.234 . S
C623 O597 1.269 . S
C623 O598 1.257 . S
C624 H599 0.930 . S
C624 C627 1.388 . S
C624 C629 1.418 . S
C625 H620 0.930 . S
C625 C628 1.404 . S
C625 C629 1.353 . S
N626 Co591 2.145 . S
N626 C627 1.397 . S
N626 C628 1.334 . S
C627 H608 0.929 . S
C627 C624 1.388 . S
C627 N626 1.397 . S
C628 H609 0.929 . S
C628 C625 1.404 . S
C628 N626 1.334 . S
C629 H621 0.930 . S
C629 C624 1.418 . S
C629 C625 1.353 . S
C630 H600 0.930 . S
C630 N631 1.330 . S
C630 C632 1.446 1_655 S
N631 Co590 2.151 . S
N631 C630 1.330 . S
N631 C635 1.418 . S
C632 H611 0.929 . S
C632 C630 1.446 1_455 S
C632 C633 1.332 . S
C633 H613 0.931 . S
C633 C632 1.332 . S
C633 C634 1.267 1_455 S
C634 H602 0.929 . S
C634 C633 1.267 1_655 S
C634 C635 1.251 . S
C635 H605 0.929 . S
C635 N631 1.418 . S
C635 C634 1.251 . S
C636 H603 0.930 . S
C636 C638 1.406 . S
C636 C641 1.261 . S
C637 H604 0.930 . S
C637 N639 1.325 . S
C637 C640 1.357 . S
C638 H606 0.928 . S
C638 C636 1.406 . S
C638 N639 1.261 . S
N639 Co590 2.214 1_554 S
N639 C637 1.325 . S
N639 C638 1.261 . S
C640 H610 0.931 . S
C640 C637 1.357 . S
C640 C641 1.312 . S
C641 H612 0.930 . S
C641 C636 1.261 . S
C641 C640 1.312 . S
C642 O614 1.214 . S
C642 O622 1.234 . S
C643 H615 0.929 . S
C643 C646 1.391 . S
C643 C648 1.391 . S
C644 H616 0.929 . S
C644 C645 1.390 . S
C644 N647 1.391 . S
C645 H617 0.930 . S
C645 C644 1.390 . S
C645 C646 1.392 . S
C646 H618 0.929 . S
C646 C643 1.391 . S
C646 C645 1.392 . S
N647 Co591 2.257 . S
N647 C644 1.391 . S
N647 C648 1.388 . S
C648 H619 0.930 . S
C648 C643 1.391 . S
C648 N647 1.388 . S
Co649 O651 2.143 . S
Co649 O657 2.074 . S
Co649 O660 2.093 . S
Co649 O673 2.097 . S
Co649 N690 2.151 . S
Co649 N698 2.214 . S
Co650 O651 2.160 . S
Co650 O656 2.058 . S
Co650 O666 2.057 . S
Co650 O681 2.037 . S
Co650 N685 2.145 . S
Co650 N706 2.257 . S
O651 Co649 2.143 . S
O651 Co650 2.160 . S
C652 O653 1.278 . S
C652 O660 1.224 . S
O653 C652 1.278 . S
C654 O655 1.245 . S
C654 O666 1.232 . S
O655 C654 1.245 . S
O656 Co650 2.058 . S
O656 C682 1.269 . S
O657 Co649 2.074 . S
O657 C682 1.257 . S
H658 C683 0.930 . S
H659 C689 0.930 . S
O660 Co649 2.093 . S
O660 C652 1.224 . S
H661 C693 0.929 . S
H662 C695 0.930 . S
H663 C696 0.930 . S
H664 C694 0.929 . S
H665 C697 0.928 . S
O666 Co650 2.057 . S
O666 C654 1.232 . S
H667 C686 0.929 . S
H668 C687 0.929 . S
H669 C699 0.931 . S
H670 C691 0.929 . S
H671 C700 0.930 . S
H672 C692 0.931 . S
O673 Co649 2.097 . S
O673 C701 1.214 . S
H674 C702 0.929 . S
H675 C703 0.929 . S
H676 C704 0.930 . S
H677 C705 0.929 . S
H678 C707 0.930 . S
H679 C684 0.930 . S
H680 C688 0.930 . S
O681 Co650 2.037 . S
O681 C701 1.234 . S
C682 O656 1.269 . S
C682 O657 1.257 . S
C683 H658 0.930 . S
C683 C686 1.388 . S
C683 C688 1.418 . S
C684 H679 0.930 . S
C684 C687 1.404 . S
C684 C688 1.353 . S
N685 Co650 2.145 . S
N685 C686 1.397 . S
N685 C687 1.334 . S
C686 H667 0.929 . S
C686 C683 1.388 . S
C686 N685 1.397 . S
C687 H668 0.929 . S
C687 C684 1.404 . S
C687 N685 1.334 . S
C688 H680 0.930 . S
C688 C683 1.418 . S
C688 C684 1.353 . S
C689 H659 0.930 . S
C689 N690 1.330 . S
C689 C691 1.446 1_565 S
N690 Co649 2.151 . S
N690 C689 1.330 . S
N690 C694 1.418 . S
C691 H670 0.929 . S
C691 C689 1.446 1_545 S
C691 C692 1.332 . S
C692 H672 0.931 . S
C692 C691 1.332 . S
C692 C693 1.267 1_545 S
C693 H661 0.929 . S
C693 C692 1.267 1_565 S
C693 C694 1.251 . S
C694 H664 0.929 . S
C694 N690 1.418 . S
C694 C693 1.251 . S
C695 H662 0.930 . S
C695 C697 1.406 . S
C695 C700 1.261 . S
C696 H663 0.930 . S
C696 N698 1.325 . S
C696 C699 1.357 . S
C697 H665 0.928 . S
C697 C695 1.406 . S
C697 N698 1.261 . S
N698 Co649 2.214 . S
N698 C696 1.325 . S
N698 C697 1.261 . S
C699 H669 0.931 . S
C699 C696 1.357 . S
C699 C700 1.312 . S
C700 H671 0.930 . S
C700 C695 1.261 . S
C700 C699 1.312 . S
C701 O673 1.214 . S
C701 O681 1.234 . S
C702 H674 0.929 . S
C702 C705 1.391 . S
C702 C707 1.391 . S
C703 H675 0.929 . S
C703 C704 1.390 . S
C703 N706 1.391 . S
C704 H676 0.930 . S
C704 C703 1.390 . S
C704 C705 1.392 . S
C705 H677 0.929 . S
C705 C702 1.391 . S
C705 C704 1.392 . S
N706 Co650 2.257 . S
N706 C703 1.391 . S
N706 C707 1.388 . S
C707 H678 0.930 . S
C707 C702 1.391 . S
C707 N706 1.388 . S
H708 C714 0.930 . S
H709 C717 0.944 . S
H710 C718 0.930 . S
H711 C719 0.930 . S
H712 C722 0.944 . S
H713 C723 0.930 . S
C714 H708 0.930 . S
C714 C715 1.355 . S
C714 C716 1.415 1_565 S
C715 C714 1.355 . S
C715 C717 1.373 1_556 S
C716 C714 1.415 1_545 S
C716 C721 1.425 1_546 S
C716 C723 1.409 . S
C717 H709 0.944 . S
C717 C715 1.373 1_554 S
C717 C718 1.397 . S
C718 H710 0.930 . S
C718 C717 1.397 . S
C718 C721 1.409 . S
C719 H711 0.930 . S
C719 C720 1.355 . S
C719 C721 1.415 1_545 S
C720 C719 1.355 . S
C720 C722 1.373 1_554 S
C721 C716 1.425 1_564 S
C721 C718 1.409 . S
C721 C719 1.415 1_565 S
C722 H712 0.944 . S
C722 C720 1.373 1_556 S
C722 C723 1.397 . S
C723 H713 0.930 . S
C723 C716 1.409 . S
C723 C722 1.397 . S
H724 C730 0.930 . S
H725 C733 0.930 . S
H726 C734 0.930 . S
H727 C735 0.930 . S
H728 C738 0.930 . S
H729 C739 0.930 . S
C730 H724 0.930 . S
C730 C731 1.355 . S
C730 C732 1.415 . S
C731 C730 1.355 . S
C731 C733 1.419 . S
C732 C730 1.415 . S
C732 C737 1.425 . S
C732 C739 1.409 . S
C733 H725 0.930 . S
C733 C731 1.419 . S
C733 C734 1.362 . S
C734 H726 0.930 . S
C734 C733 1.362 . S
C734 C737 1.409 . S
C735 H727 0.930 . S
C735 C736 1.355 . S
C735 C737 1.415 . S
C736 C735 1.355 . S
C736 C738 1.419 . S
C737 C732 1.425 . S
C737 C734 1.409 . S
C737 C735 1.415 . S
C738 H728 0.930 . S
C738 C736 1.419 . S
C738 C739 1.362 . S
C739 H729 0.930 . S
C739 C732 1.409 . S
C739 C738 1.362 . S
H740 C746 0.930 . S
H741 C749 0.930 . S
H742 C750 0.930 . S
H743 C751 0.930 . S
H744 C754 0.930 . S
H745 C755 0.930 . S
C746 H740 0.930 . S
C746 C747 1.355 . S
C746 C748 1.415 1_655 S
C747 C746 1.355 . S
C747 C749 1.419 . S
C748 C746 1.415 1_455 S
C748 C753 1.425 1_455 S
C748 C755 1.409 . S
C749 H741 0.930 . S
C749 C747 1.419 . S
C749 C750 1.362 . S
C750 H742 0.930 . S
C750 C749 1.362 . S
C750 C753 1.409 . S
C751 H743 0.930 . S
C751 C752 1.355 . S
C751 C753 1.415 1_455 S
C752 C751 1.355 . S
C752 C754 1.419 . S
C753 C748 1.425 1_655 S
C753 C750 1.409 . S
C753 C751 1.415 1_655 S
C754 H744 0.930 . S
C754 C752 1.419 . S
C754 C755 1.362 . S
C755 H745 0.930 . S
C755 C748 1.409 . S
C755 C754 1.362 . S
H756 C762 0.930 1_556 S
H757 C765 0.930 . S
H758 C766 0.930 . S
H759 C767 0.930 1_554 S
H760 C770 0.930 . S
H761 C771 0.930 . S
C762 H756 0.930 1_554 S
C762 C763 1.355 . S
C762 C764 1.415 1_554 S
C763 C762 1.355 . S
C763 C765 1.419 . S
C764 C762 1.415 1_556 S
C764 C769 1.425 1_566 S
C764 C771 1.409 . S
C765 H757 0.930 . S
C765 C763 1.419 . S
C765 C766 1.362 1_565 S
C766 H758 0.930 . S
C766 C765 1.362 1_545 S
C766 C769 1.409 . S
C767 H759 0.930 1_556 S
C767 C768 1.355 . S
C767 C769 1.415 1_556 S
C768 C767 1.355 . S
C768 C770 1.419 . S
C769 C764 1.425 1_544 S
C769 C766 1.409 . S
C769 C767 1.415 1_554 S
C770 H760 0.930 . S
C770 C768 1.419 . S
C770 C771 1.362 1_545 S
C771 H761 0.930 . S
C771 C764 1.409 . S
C771 C770 1.362 1_565 S
H772 C778 0.930 . S
H773 C781 0.930 . S
H774 C782 0.930 . S
H775 C783 0.930 . S
H776 C786 0.930 . S
H777 C787 0.930 . S
C778 H772 0.930 . S
C778 C779 1.355 . S
C778 C780 1.415 . S
C779 C778 1.355 . S
C779 C781 1.419 . S
C780 C778 1.415 . S
C780 C785 1.425 . S
C780 C787 1.409 . S
C781 H773 0.930 . S
C781 C779 1.419 . S
C781 C782 1.362 . S
C782 H774 0.930 . S
C782 C781 1.362 . S
C782 C785 1.409 . S
C783 H775 0.930 . S
C783 C784 1.355 . S
C783 C785 1.415 . S
C784 C783 1.355 . S
C784 C786 1.419 . S
C785 C780 1.425 . S
C785 C782 1.409 . S
C785 C783 1.415 . S
C786 H776 0.930 . S
C786 C784 1.419 . S
C786 C787 1.362 . S
C787 H777 0.930 . S
C787 C780 1.409 . S
C787 C786 1.362 . S
H788 C794 0.930 . S
H789 C797 0.930 . S
H790 C798 0.930 . S
H791 C799 0.930 . S
H792 C802 0.930 . S
H793 C803 0.930 . S
C794 H788 0.930 . S
C794 C795 1.355 . S
C794 C796 1.415 . S
C795 C794 1.355 . S
C795 C797 1.419 . S
C796 C794 1.415 . S
C796 C801 1.425 1_655 S
C796 C803 1.409 . S
C797 H789 0.930 . S
C797 C795 1.419 . S
C797 C798 1.362 1_655 S
C798 H790 0.930 . S
C798 C797 1.362 1_455 S
C798 C801 1.409 . S
C799 H791 0.930 . S
C799 C800 1.355 . S
C799 C801 1.415 . S
C800 C799 1.355 . S
C800 C802 1.419 . S
C801 C796 1.425 1_455 S
C801 C798 1.409 . S
C801 C799 1.415 . S
C802 H792 0.930 . S
C802 C800 1.419 . S
C802 C803 1.362 1_455 S
C803 H793 0.930 . S
C803 C796 1.409 . S
C803 C802 1.362 1_655 S
H804 C810 0.930 . S
H805 C813 0.930 . S
H806 C814 0.930 . S
H807 C815 0.930 . S
H808 C818 0.930 . S
H809 C819 0.930 . S
C810 H804 0.930 . S
C810 C811 1.355 . S
C810 C812 1.415 . S
C811 C810 1.355 . S
C811 C813 1.419 1_556 S
C812 C810 1.415 . S
C812 C817 1.425 1_556 S
C812 C819 1.409 . S
C813 H805 0.930 . S
C813 C811 1.419 1_554 S
C813 C814 1.362 . S
C814 H806 0.930 . S
C814 C813 1.362 . S
C814 C817 1.409 . S
C815 H807 0.930 . S
C815 C816 1.355 . S
C815 C817 1.415 . S
C816 C815 1.355 . S
C816 C818 1.419 1_554 S
C817 C812 1.425 1_554 S
C817 C814 1.409 . S
C817 C815 1.415 . S
C818 H808 0.930 . S
C818 C816 1.419 1_556 S
C818 C819 1.362 . S
C819 H809 0.930 . S
C819 C812 1.409 . S
C819 C818 1.362 . S
H820 C826 0.930 . S
H821 C829 0.930 . S
H822 C830 0.930 . S
H823 C831 0.930 . S
H824 C834 0.930 . S
H825 C835 0.930 . S
C826 H820 0.930 . S
C826 C827 1.355 . S
C826 C828 1.415 . S
C827 C826 1.355 . S
C827 C829 1.419 . S
C828 C826 1.415 . S
C828 C833 1.425 . S
C828 C835 1.409 . S
C829 H821 0.930 . S
C829 C827 1.419 . S
C829 C830 1.362 . S
C830 H822 0.930 . S
C830 C829 1.362 . S
C830 C833 1.409 . S
C831 H823 0.930 . S
C831 C832 1.355 . S
C831 C833 1.415 . S
C832 C831 1.355 . S
C832 C834 1.419 . S
C833 C828 1.425 . S
C833 C830 1.409 . S
C833 C831 1.415 . S
C834 H824 0.930 . S
C834 C832 1.419 . S
C834 C835 1.362 . S
C835 H825 0.930 . S
C835 C828 1.409 . S
C835 C834 1.362 . S
H836 C842 0.930 . S
H837 C845 0.930 . S
H838 C846 0.930 . S
H839 C847 0.930 . S
H840 C850 0.930 . S
H841 C851 0.930 . S
C842 H836 0.930 . S
C842 C843 1.355 . S
C842 C844 1.415 . S
C843 C842 1.355 . S
C843 C845 1.419 . S
C844 C842 1.415 . S
C844 C849 1.425 . S
C844 C851 1.409 . S
C845 H837 0.930 . S
C845 C843 1.419 . S
C845 C846 1.362 . S
C846 H838 0.930 . S
C846 C845 1.362 . S
C846 C849 1.409 . S
C847 H839 0.930 . S
C847 C848 1.355 . S
C847 C849 1.415 . S
C848 C847 1.355 . S
C848 C850 1.419 . S
C849 C844 1.425 . S
C849 C846 1.409 . S
C849 C847 1.415 . S
C850 H840 0.930 . S
C850 C848 1.419 . S
C850 C851 1.362 . S
C851 H841 0.930 . S
C851 C844 1.409 . S
C851 C850 1.362 . S
H852 C858 0.930 . S
H853 C861 0.930 . S
H854 C862 0.930 . S
H855 C863 0.930 . S
H856 C866 0.930 . S
H857 C867 0.930 . S
C858 H852 0.930 . S
C858 C859 1.355 1_554 S
C858 C860 1.415 . S
C859 C858 1.355 1_556 S
C859 C861 1.419 . S
C860 C858 1.415 . S
C860 C865 1.425 1_554 S
C860 C867 1.409 . S
C861 H853 0.930 . S
C861 C859 1.419 . S
C861 C862 1.362 . S
C862 H854 0.930 . S
C862 C861 1.362 . S
C862 C865 1.409 . S
C863 H855 0.930 . S
C863 C864 1.355 1_556 S
C863 C865 1.415 . S
C864 C863 1.355 1_554 S
C864 C866 1.419 . S
C865 C860 1.425 1_556 S
C865 C862 1.409 . S
C865 C863 1.415 . S
C866 H856 0.930 . S
C866 C864 1.419 . S
C866 C867 1.362 . S
C867 H857 0.930 . S
C867 C860 1.409 . S
C867 C866 1.362 . S
H868 C874 0.930 . S
H869 C877 0.930 . S
H870 C878 0.930 . S
H871 C879 0.930 . S
H872 C882 0.930 . S
H873 C883 0.930 . S
C874 H868 0.930 . S
C874 C875 1.355 . S
C874 C876 1.415 . S
C875 C874 1.355 . S
C875 C877 1.419 . S
C876 C874 1.415 . S
C876 C881 1.425 . S
C876 C883 1.409 . S
C877 H869 0.930 . S
C877 C875 1.419 . S
C877 C878 1.362 . S
C878 H870 0.930 . S
C878 C877 1.362 . S
C878 C881 1.409 . S
C879 H871 0.930 . S
C879 C880 1.355 . S
C879 C881 1.415 . S
C880 C879 1.355 . S
C880 C882 1.419 . S
C881 C876 1.425 . S
C881 C878 1.409 . S
C881 C879 1.415 . S
C882 H872 0.930 . S
C882 C880 1.419 . S
C882 C883 1.362 . S
C883 H873 0.930 . S
C883 C876 1.409 . S
C883 C882 1.362 . S
H884 C890 0.930 . S
H885 C893 0.930 . S
H886 C894 0.930 . S
H887 C895 0.930 . S
H888 C898 0.930 . S
H889 C899 0.930 . S
C890 H884 0.930 . S
C890 C891 1.355 . S
C890 C892 1.415 . S
C891 C890 1.355 . S
C891 C893 1.419 . S
C892 C890 1.415 . S
C892 C897 1.425 . S
C892 C899 1.409 . S
C893 H885 0.930 . S
C893 C891 1.419 . S
C893 C894 1.362 . S
C894 H886 0.930 . S
C894 C893 1.362 . S
C894 C897 1.409 . S
C895 H887 0.930 . S
C895 C896 1.355 . S
C895 C897 1.415 . S
C896 C895 1.355 . S
C896 C898 1.419 . S
C897 C892 1.425 . S
C897 C894 1.409 . S
C897 C895 1.415 . S
C898 H888 0.930 . S
C898 C896 1.419 . S
C898 C899 1.362 . S
C899 H889 0.930 . S
C899 C892 1.409 . S
C899 C898 1.362 . S
H900 C906 0.930 . S
H901 C909 0.930 . S
H902 C910 0.930 . S
H903 C911 0.930 . S
H904 C914 0.930 . S
H905 C915 0.930 . S
C906 H900 0.930 . S
C906 C907 1.355 . S
C906 C908 1.415 . S
C907 C906 1.355 . S
C907 C909 1.419 . S
C908 C906 1.415 . S
C908 C913 1.425 . S
C908 C915 1.409 . S
C909 H901 0.930 . S
C909 C907 1.419 . S
C909 C910 1.362 . S
C910 H902 0.930 . S
C910 C909 1.362 . S
C910 C913 1.409 . S
C911 H903 0.930 . S
C911 C912 1.355 . S
C911 C913 1.415 . S
C912 C911 1.355 . S
C912 C914 1.419 . S
C913 C908 1.425 . S
C913 C910 1.409 . S
C913 C911 1.415 . S
C914 H904 0.930 . S
C914 C912 1.419 . S
C914 C915 1.362 . S
C915 H905 0.930 . S
C915 C908 1.409 . S
C915 C914 1.362 . S
H916 C922 0.930 . S
H917 C925 0.930 . S
H918 C926 0.930 . S
H919 C927 0.930 . S
H920 C930 0.930 . S
H921 C931 0.930 . S
C922 H916 0.930 . S
C922 C923 1.355 . S
C922 C924 1.415 . S
C923 C922 1.355 . S
C923 C925 1.419 . S
C924 C922 1.415 . S
C924 C929 1.425 . S
C924 C931 1.409 . S
C925 H917 0.930 . S
C925 C923 1.419 . S
C925 C926 1.362 . S
C926 H918 0.930 . S
C926 C925 1.362 . S
C926 C929 1.409 . S
C927 H919 0.930 . S
C927 C928 1.355 . S
C927 C929 1.415 . S
C928 C927 1.355 . S
C928 C930 1.419 . S
C929 C924 1.425 . S
C929 C926 1.409 . S
C929 C927 1.415 . S
C930 H920 0.930 . S
C930 C928 1.419 . S
C930 C931 1.362 . S
C931 H921 0.930 . S
C931 C924 1.409 . S
C931 C930 1.362 . S
H932 C938 0.930 . S
H933 C941 0.930 . S
H934 C942 0.930 . S
H935 C943 0.930 . S
H936 C946 0.930 . S
H937 C947 0.930 . S
C938 H932 0.930 . S
C938 C939 1.355 . S
C938 C940 1.415 . S
C939 C938 1.355 . S
C939 C941 1.419 . S
C940 C938 1.415 . S
C940 C945 1.425 . S
C940 C947 1.409 . S
C941 H933 0.930 . S
C941 C939 1.419 . S
C941 C942 1.362 . S
C942 H934 0.930 . S
C942 C941 1.362 . S
C942 C945 1.409 . S
C943 H935 0.930 . S
C943 C944 1.355 . S
C943 C945 1.415 . S
C944 C943 1.355 . S
C944 C946 1.419 . S
C945 C940 1.425 . S
C945 C942 1.409 . S
C945 C943 1.415 . S
C946 H936 0.930 . S
C946 C944 1.419 . S
C946 C947 1.362 . S
C947 H937 0.930 . S
C947 C940 1.409 . S
C947 C946 1.362 . S
H948 C954 0.930 . S
H949 C957 0.930 . S
H950 C958 0.930 . S
H951 C959 0.930 . S
H952 C962 0.930 . S
H953 C963 0.930 . S
C954 H948 0.930 . S
C954 C955 1.355 . S
C954 C956 1.415 . S
C955 C954 1.355 . S
C955 C957 1.419 . S
C956 C954 1.415 . S
C956 C961 1.425 . S
C956 C963 1.409 . S
C957 H949 0.930 . S
C957 C955 1.419 . S
C957 C958 1.362 . S
C958 H950 0.930 . S
C958 C957 1.362 . S
C958 C961 1.409 . S
C959 H951 0.930 . S
C959 C960 1.355 . S
C959 C961 1.415 . S
C960 C959 1.355 . S
C960 C962 1.419 . S
C961 C956 1.425 . S
C961 C958 1.409 . S
C961 C959 1.415 . S
C962 H952 0.930 . S
C962 C960 1.419 . S
C962 C963 1.362 . S
C963 H953 0.930 . S
C963 C956 1.409 . S
C963 C962 1.362 . S
H964 C970 0.930 . S
H965 C973 0.930 . S
H966 C974 0.930 . S
H967 C975 0.930 . S
H968 C978 0.930 . S
H969 C979 0.930 . S
C970 H964 0.930 . S
C970 C971 1.355 . S
C970 C972 1.415 . S
C971 C970 1.355 . S
C971 C973 1.419 . S
C972 C970 1.415 . S
C972 C977 1.425 . S
C972 C979 1.409 . S
C973 H965 0.930 . S
C973 C971 1.419 . S
C973 C974 1.362 . S
C974 H966 0.930 . S
C974 C973 1.362 . S
C974 C977 1.409 . S
C975 H967 0.930 . S
C975 C976 1.355 . S
C975 C977 1.415 . S
C976 C975 1.355 . S
C976 C978 1.419 . S
C977 C972 1.425 . S
C977 C974 1.409 . S
C977 C975 1.415 . S
C978 H968 0.930 . S
C978 C976 1.419 . S
C978 C979 1.362 . S
C979 H969 0.930 . S
C979 C972 1.409 . S
C979 C978 1.362 . S
H980 C986 0.930 . S
H981 C989 0.930 . S
H982 C990 0.930 . S
H983 C991 0.930 . S
H984 C994 0.930 . S
H985 C995 0.930 . S
C986 H980 0.930 . S
C986 C987 1.355 . S
C986 C988 1.415 . S
C987 C986 1.355 . S
C987 C989 1.419 . S
C988 C986 1.415 . S
C988 C993 1.425 . S
C988 C995 1.409 . S
C989 H981 0.930 . S
C989 C987 1.419 . S
C989 C990 1.362 . S
C990 H982 0.930 . S
C990 C989 1.362 . S
C990 C993 1.409 . S
C991 H983 0.930 . S
C991 C992 1.355 . S
C991 C993 1.415 . S
C992 C991 1.355 . S
C992 C994 1.419 . S
C993 C988 1.425 . S
C993 C990 1.409 . S
C993 C991 1.415 . S
C994 H984 0.930 . S
C994 C992 1.419 . S
C994 C995 1.362 . S
C995 H985 0.930 . S
C995 C988 1.409 . S
C995 C994 1.362 . S
H996 C1002 0.930 . S
H997 C1005 0.930 . S
H998 C1006 0.930 . S
H999 C1007 0.930 . S
H1000 C1010 0.930 . S
H1001 C1011 0.930 . S
C1002 H996 0.930 . S
C1002 C1003 1.355 . S
C1002 C1004 1.415 . S
C1003 C1002 1.355 . S
C1003 C1005 1.419 . S
C1004 C1002 1.415 . S
C1004 C1009 1.425 . S
C1004 C1011 1.409 . S
C1005 H997 0.930 . S
C1005 C1003 1.419 . S
C1005 C1006 1.362 . S
C1006 H998 0.930 . S
C1006 C1005 1.362 . S
C1006 C1009 1.409 . S
C1007 H999 0.930 . S
C1007 C1008 1.355 . S
C1007 C1009 1.415 . S
C1008 C1007 1.355 . S
C1008 C1010 1.419 . S
C1009 C1004 1.425 . S
C1009 C1006 1.409 . S
C1009 C1007 1.415 . S
C1010 H1000 0.930 . S
C1010 C1008 1.419 . S
C1010 C1011 1.362 . S
C1011 H1001 0.930 . S
C1011 C1004 1.409 . S
C1011 C1010 1.362 . S
H1012 C1018 0.930 . S
H1013 C1021 0.930 . S
H1014 C1022 0.930 . S
H1015 C1023 0.930 . S
H1016 C1026 0.930 . S
H1017 C1027 0.930 . S
C1018 H1012 0.930 . S
C1018 C1019 1.355 . S
C1018 C1020 1.415 . S
C1019 C1018 1.355 . S
C1019 C1021 1.419 . S
C1020 C1018 1.415 . S
C1020 C1025 1.425 1_655 S
C1020 C1027 1.409 1_655 S
C1021 H1013 0.930 . S
C1021 C1019 1.419 . S
C1021 C1022 1.362 . S
C1022 H1014 0.930 . S
C1022 C1021 1.362 . S
C1022 C1025 1.409 1_655 S
C1023 H1015 0.930 . S
C1023 C1024 1.355 . S
C1023 C1025 1.415 . S
C1024 C1023 1.355 . S
C1024 C1026 1.419 . S
C1025 C1020 1.425 1_455 S
C1025 C1022 1.409 1_455 S
C1025 C1023 1.415 . S
C1026 H1016 0.930 . S
C1026 C1024 1.419 . S
C1026 C1027 1.362 . S
C1027 H1017 0.930 . S
C1027 C1020 1.409 1_455 S
C1027 C1026 1.362 . S
H1028 C1034 0.930 . S
H1029 C1037 0.930 . S
H1030 C1038 0.930 . S
H1031 C1039 0.930 . S
H1032 C1042 0.930 . S
H1033 C1043 0.930 . S
C1034 H1028 0.930 . S
C1034 C1035 1.355 . S
C1034 C1036 1.415 1_545 S
C1035 C1034 1.355 . S
C1035 C1037 1.419 . S
C1036 C1034 1.415 1_565 S
C1036 C1041 1.425 1_565 S
C1036 C1043 1.409 . S
C1037 H1029 0.930 . S
C1037 C1035 1.419 . S
C1037 C1038 1.362 . S
C1038 H1030 0.930 . S
C1038 C1037 1.362 . S
C1038 C1041 1.409 . S
C1039 H1031 0.930 . S
C1039 C1040 1.355 . S
C1039 C1041 1.415 1_565 S
C1040 C1039 1.355 . S
C1040 C1042 1.419 . S
C1041 C1036 1.425 1_545 S
C1041 C1038 1.409 . S
C1041 C1039 1.415 1_545 S
C1042 H1032 0.930 . S
C1042 C1040 1.419 . S
C1042 C1043 1.362 . S
C1043 H1033 0.930 . S
C1043 C1036 1.409 . S
C1043 C1042 1.362 . S
H1044 C1050 0.930 . S
H1045 C1053 0.930 . S
H1046 C1054 0.930 . S
H1047 C1055 0.930 . S
H1048 C1058 0.930 . S
H1049 C1059 0.930 . S
C1050 H1044 0.930 . S
C1050 C1051 1.355 . S
C1050 C1052 1.415 . S
C1051 C1050 1.355 . S
C1051 C1053 1.419 . S
C1052 C1050 1.415 . S
C1052 C1057 1.425 . S
C1052 C1059 1.409 . S
C1053 H1045 0.930 . S
C1053 C1051 1.419 . S
C1053 C1054 1.362 . S
C1054 H1046 0.930 . S
C1054 C1053 1.362 . S
C1054 C1057 1.409 . S
C1055 H1047 0.930 . S
C1055 C1056 1.355 . S
C1055 C1057 1.415 . S
C1056 C1055 1.355 . S
C1056 C1058 1.419 . S
C1057 C1052 1.425 . S
C1057 C1054 1.409 . S
C1057 C1055 1.415 . S
C1058 H1048 0.930 . S
C1058 C1056 1.419 . S
C1058 C1059 1.362 . S
C1059 H1049 0.930 . S
C1059 C1052 1.409 . S
C1059 C1058 1.362 . S
H1060 C1066 0.930 1_655 S
H1061 C1069 0.930 . S
H1062 C1070 0.930 . S
H1063 C1071 0.930 1_455 S
H1064 C1074 0.930 . S
H1065 C1075 0.930 . S
C1066 H1060 0.930 1_455 S
C1066 C1067 1.355 . S
C1066 C1068 1.415 1_455 S
C1067 C1066 1.355 . S
C1067 C1069 1.419 . S
C1068 C1066 1.415 1_655 S
C1068 C1073 1.425 1_655 S
C1068 C1075 1.409 . S
C1069 H1061 0.930 . S
C1069 C1067 1.419 . S
C1069 C1070 1.362 . S
C1070 H1062 0.930 . S
C1070 C1069 1.362 . S
C1070 C1073 1.409 . S
C1071 H1063 0.930 1_655 S
C1071 C1072 1.355 . S
C1071 C1073 1.415 1_655 S
C1072 C1071 1.355 . S
C1072 C1074 1.419 . S
C1073 C1068 1.425 1_455 S
C1073 C1070 1.409 . S
C1073 C1071 1.415 1_455 S
C1074 H1064 0.930 . S
C1074 C1072 1.419 . S
C1074 C1075 1.362 . S
C1075 H1065 0.930 . S
C1075 C1068 1.409 . S
C1075 C1074 1.362 . S
H1076 C1082 0.930 . S
H1077 C1085 0.930 . S
H1078 C1086 0.930 . S
H1079 C1087 0.930 . S
H1080 C1090 0.930 . S
H1081 C1091 0.930 . S
C1082 H1076 0.930 . S
C1082 C1083 1.355 . S
C1082 C1084 1.415 . S
C1083 C1082 1.355 . S
C1083 C1085 1.419 . S
C1084 C1082 1.415 . S
C1084 C1089 1.425 1_565 S
C1084 C1091 1.409 . S
C1085 H1077 0.930 . S
C1085 C1083 1.419 . S
C1085 C1086 1.362 1_565 S
C1086 H1078 0.930 . S
C1086 C1085 1.362 1_545 S
C1086 C1089 1.409 . S
C1087 H1079 0.930 . S
C1087 C1088 1.355 . S
C1087 C1089 1.415 . S
C1088 C1087 1.355 . S
C1088 C1090 1.419 . S
C1089 C1084 1.425 1_545 S
C1089 C1086 1.409 . S
C1089 C1087 1.415 . S
C1090 H1080 0.930 . S
C1090 C1088 1.419 . S
C1090 C1091 1.362 1_545 S
C1091 H1081 0.930 . S
C1091 C1084 1.409 . S
C1091 C1090 1.362 1_565 S
C715 C446 1.533 . S
C720 C33 1.556 . S
C731 C92 1.535 . S
C736 C505 1.567 . S
C747 C151 1.539 . S
C752 C564 1.544 . S
C763 C210 1.564 . S
C768 C623 1.553 . S
C779 C682 1.568 . S
C784 C269 1.541 . S
C795 C387 1.556 . S
C800 C328 1.561 . S
C811 C642 1.752 . S
C816 C52 1.753 . S
C827 C111 1.714 . S
C832 C701 1.713 . S
C843 C170 1.740 . S
C848 C406 1.742 . S
C859 C465 1.718 . S
C864 C229 1.717 . S
C875 C524 1.744 . S
C880 C288 1.742 . S
C891 C583 1.762 . S
C896 C347 1.762 . S
C907 C5 1.723 . S
C912 C477 1.739 . S
C923 C64 1.729 . S
C928 C536 1.719 . S
C939 C595 1.716 . S
C944 C123 1.734 . S
C955 C182 1.725 . S
C960 C654 1.723 . S
C971 C359 1.723 . S
C976 C241 1.739 . S
C987 C418 1.737 . S
C992 C300 1.725 . S
C1003 C180 1.300 . S
C1008 C3 1.314 . S
C1019 C239 1.295 . S
C1024 C62 1.281 . S
C1035 C121 1.279 . S
C1040 C298 1.270 . S
C1051 C357 1.274 . S
C1056 C534 1.285 . S
C1067 C416 1.272 . S
C1072 C593 1.283 . S
C1083 C652 1.319 . S
C1088 C475 1.306 . S
