# Generated by pormake.
# Topology zfl, (5)-cn, num edge types: 1
# Building blocks:
#     Node 0, Type 0, BuildingBlock: XOMCOT_clean_sbu_0, # of connection points: 5
#     Node 1, Type 0, BuildingBlock: XOMCOT_clean_sbu_0, # of connection points: 5
#     Node 2, Type 0, BuildingBlock: XOMCOT_clean_sbu_0, # of connection points: 5
#     Node 3, Type 0, BuildingBlock: XOMCOT_clean_sbu_0, # of connection points: 5
#     Node 4, Type 0, BuildingBlock: XOMCOT_clean_sbu_0, # of connection points: 5
#     Node 5, Type 0, BuildingBlock: XOMCOT_clean_sbu_0, # of connection points: 5
#     Node 6, Type 0, BuildingBlock: XOMCOT_clean_sbu_0, # of connection points: 5
#     Node 7, Type 0, BuildingBlock: XOMCOT_clean_sbu_0, # of connection points: 5
#     Node 8, Type 0, BuildingBlock: XOMCOT_clean_sbu_0, # of connection points: 5
#     Node 9, Type 0, BuildingBlock: XOMCOT_clean_sbu_0, # of connection points: 5
#     Node 10, Type 0, BuildingBlock: XOMCOT_clean_sbu_0, # of connection points: 5
#     Node 11, Type 0, BuildingBlock: XOMCOT_clean_sbu_0, # of connection points: 5
#     Node 12, Type 0, BuildingBlock: XOMCOT_clean_sbu_0, # of connection points: 5
#     Node 13, Type 0, BuildingBlock: XOMCOT_clean_sbu_0, # of connection points: 5
#     Node 14, Type 0, BuildingBlock: XOMCOT_clean_sbu_0, # of connection points: 5
#     Node 15, Type 0, BuildingBlock: XOMCOT_clean_sbu_0, # of connection points: 5
#     Edge 16, Type (0, 0), BuildingBlock: TEMPAE_clean_linker_10, # of connection points: 2
#     Edge 17, Type (0, 0), BuildingBlock: TEMPAE_clean_linker_10, # of connection points: 2
#     Edge 18, Type (0, 0), BuildingBlock: TEMPAE_clean_linker_10, # of connection points: 2
#     Edge 19, Type (0, 0), BuildingBlock: TEMPAE_clean_linker_10, # of connection points: 2
#     Edge 20, Type (0, 0), BuildingBlock: TEMPAE_clean_linker_10, # of connection points: 2
#     Edge 21, Type (0, 0), BuildingBlock: TEMPAE_clean_linker_10, # of connection points: 2
#     Edge 22, Type (0, 0), BuildingBlock: TEMPAE_clean_linker_10, # of connection points: 2
#     Edge 23, Type (0, 0), BuildingBlock: TEMPAE_clean_linker_10, # of connection points: 2
#     Edge 24, Type (0, 0), BuildingBlock: TEMPAE_clean_linker_10, # of connection points: 2
#     Edge 25, Type (0, 0), BuildingBlock: TEMPAE_clean_linker_10, # of connection points: 2
#     Edge 26, Type (0, 0), BuildingBlock: TEMPAE_clean_linker_10, # of connection points: 2
#     Edge 27, Type (0, 0), BuildingBlock: TEMPAE_clean_linker_10, # of connection points: 2
#     Edge 28, Type (0, 0), BuildingBlock: TEMPAE_clean_linker_10, # of connection points: 2
#     Edge 29, Type (0, 0), BuildingBlock: TEMPAE_clean_linker_10, # of connection points: 2
#     Edge 30, Type (0, 0), BuildingBlock: TEMPAE_clean_linker_10, # of connection points: 2
#     Edge 31, Type (0, 0), BuildingBlock: TEMPAE_clean_linker_10, # of connection points: 2
#     Edge 32, Type (0, 0), BuildingBlock: TEMPAE_clean_linker_10, # of connection points: 2
#     Edge 33, Type (0, 0), BuildingBlock: TEMPAE_clean_linker_10, # of connection points: 2
#     Edge 34, Type (0, 0), BuildingBlock: TEMPAE_clean_linker_10, # of connection points: 2
#     Edge 35, Type (0, 0), BuildingBlock: TEMPAE_clean_linker_10, # of connection points: 2
#     Edge 36, Type (0, 0), BuildingBlock: TEMPAE_clean_linker_10, # of connection points: 2
#     Edge 37, Type (0, 0), BuildingBlock: TEMPAE_clean_linker_10, # of connection points: 2
#     Edge 38, Type (0, 0), BuildingBlock: TEMPAE_clean_linker_10, # of connection points: 2
#     Edge 39, Type (0, 0), BuildingBlock: TEMPAE_clean_linker_10, # of connection points: 2
#     Edge 40, Type (0, 0), BuildingBlock: TEMPAE_clean_linker_10, # of connection points: 2
#     Edge 41, Type (0, 0), BuildingBlock: TEMPAE_clean_linker_10, # of connection points: 2
#     Edge 42, Type (0, 0), BuildingBlock: TEMPAE_clean_linker_10, # of connection points: 2
#     Edge 43, Type (0, 0), BuildingBlock: TEMPAE_clean_linker_10, # of connection points: 2
#     Edge 44, Type (0, 0), BuildingBlock: TEMPAE_clean_linker_10, # of connection points: 2
#     Edge 45, Type (0, 0), BuildingBlock: TEMPAE_clean_linker_10, # of connection points: 2
#     Edge 46, Type (0, 0), BuildingBlock: TEMPAE_clean_linker_10, # of connection points: 2
#     Edge 47, Type (0, 0), BuildingBlock: TEMPAE_clean_linker_10, # of connection points: 2
#     Edge 48, Type (0, 0), BuildingBlock: TEMPAE_clean_linker_10, # of connection points: 2
#     Edge 49, Type (0, 0), BuildingBlock: TEMPAE_clean_linker_10, # of connection points: 2
#     Edge 50, Type (0, 0), BuildingBlock: TEMPAE_clean_linker_10, # of connection points: 2
#     Edge 51, Type (0, 0), BuildingBlock: TEMPAE_clean_linker_10, # of connection points: 2
#     Edge 52, Type (0, 0), BuildingBlock: TEMPAE_clean_linker_10, # of connection points: 2
#     Edge 53, Type (0, 0), BuildingBlock: TEMPAE_clean_linker_10, # of connection points: 2
#     Edge 54, Type (0, 0), BuildingBlock: TEMPAE_clean_linker_10, # of connection points: 2
#     Edge 55, Type (0, 0), BuildingBlock: TEMPAE_clean_linker_10, # of connection points: 2
# Relax obj value: 0.226
# Max RMSD: 0.259
# Mean RMSD: 0.259
data_MOF--net-zfl--node1-XOMCOT_clean_sbu_0--edge1-TEMPAE_clean_linker_10
_symmetry_space_group_name_H-M    P1
_symmetry_Int_Tables_number       1
_symmetry_cell_setting            triclinic
loop_
_symmetry_equiv_pos_as_xyz
'x, y, z'
_cell_length_a     32.583748
_cell_length_b     32.562896
_cell_length_c     60.214342
_cell_angle_alpha  89.992523
_cell_angle_beta   90.059501
_cell_angle_gamma 89.963711
loop_
_atom_site_label
_atom_site_type_symbol
_atom_site_fract_x
_atom_site_fract_y
_atom_site_fract_z
_atom_type_partial_charge
Co0 Co 0.54227 0.11587 0.10443 0.0
C1 C 0.5802 0.03585 0.11315 0.0
C2 C 0.62133 0.07535 0.09556 0.0
C3 C 0.63776 0.03626 0.09587 0.0
N4 N 0.5852 0.07498 0.1065 0.0
N5 N 0.61164 0.01161 0.10698 0.0
H6 H 0.55221 0.02394 0.12007 0.0
H7 H 0.63327 0.1014 0.08649 0.0
C8 C 0.61403 0.1581 0.12591 0.0
O9 O 0.61964 0.12469 0.13778 0.0
N10 N 0.49824 0.15523 0.10198 0.0
C11 C 0.45815 0.14513 0.10159 0.0
C12 C 0.43521 0.18029 0.10079 0.0
C13 C 0.49922 0.19664 0.10163 0.0
N14 N 0.46089 0.21275 0.10098 0.0
C15 C 0.49995 0.07316 0.1392 0.0
C16 C 0.51819 0.12633 0.17351 0.0
C17 C 0.49486 0.09121 0.17797 0.0
C18 C 0.48509 0.06491 0.16044 0.0
C19 C 0.5317 0.13395 0.15181 0.0
N20 N 0.52478 0.10618 0.13515 0.0
H21 H 0.49089 0.05282 0.12598 0.0
H22 H 0.54667 0.16278 0.14856 0.0
H23 H 0.44615 0.11421 0.10222 0.0
H24 H 0.52715 0.21451 0.10248 0.0
O25 O 0.50809 0.07571 0.08953 0.0
O26 O 0.55112 0.11788 0.07254 0.0
O27 O 0.58297 0.1607 0.11288 0.0
C28 C 0.52427 0.08848 0.07112 0.0
H29 H 0.6653 0.02626 0.08741 0.0
H30 H 0.40205 0.18168 0.10016 0.0
H31 H 0.52491 0.14825 0.18654 0.0
H32 H 0.46628 0.03795 0.16315 0.0
Co33 Co 0.39573 0.57473 0.60495 0.0
C34 C 0.48139 0.57152 0.61975 0.0
C35 C 0.46702 0.62987 0.60527 0.0
C36 C 0.50874 0.62797 0.60884 0.0
N37 N 0.4498 0.5947 0.61248 0.0
N38 N 0.51772 0.59103 0.61773 0.0
H39 H 0.47842 0.53979 0.62467 0.0
H40 H 0.45086 0.65385 0.59642 0.0
C41 C 0.37665 0.66045 0.62457 0.0
O42 O 0.40973 0.66111 0.63705 0.0
N43 N 0.34192 0.55527 0.59674 0.0
C44 C 0.31859 0.57288 0.58093 0.0
C45 C 0.28165 0.55286 0.57992 0.0
C46 C 0.31877 0.5247 0.60527 0.0
N47 N 0.28155 0.52273 0.59532 0.0
C48 C 0.40553 0.51221 0.63788 0.0
C49 C 0.38111 0.5565 0.67456 0.0
C50 C 0.40021 0.51824 0.67786 0.0
C51 C 0.41115 0.49561 0.65901 0.0
C52 C 0.37603 0.57212 0.65296 0.0
N53 N 0.39033 0.551 0.6349 0.0
H54 H 0.41557 0.49407 0.62397 0.0
H55 H 0.36104 0.60127 0.65114 0.0
H56 H 0.32766 0.59899 0.57098 0.0
H57 H 0.32832 0.50511 0.61881 0.0
O58 O 0.42054 0.52806 0.59006 0.0
O59 O 0.40723 0.5874 0.57388 0.0
O60 O 0.36812 0.62876 0.61288 0.0
C61 C 0.42185 0.55035 0.57226 0.0
H62 H 0.53107 0.65044 0.60342 0.0
H63 H 0.25679 0.56008 0.56865 0.0
H64 H 0.37064 0.57455 0.68856 0.0
H65 H 0.42593 0.46594 0.66044 0.0
Co66 Co 0.92112 0.40132 0.11212 0.0
C67 C 0.92204 0.48437 0.12979 0.0
C68 C 0.86644 0.47305 0.11188 0.0
C69 C 0.87024 0.51469 0.11517 0.0
N70 N 0.89883 0.45388 0.12122 0.0
N71 N 0.90568 0.52194 0.1261 0.0
H72 H 0.95253 0.47929 0.13631 0.0
H73 H 0.8441 0.45835 0.10122 0.0
C74 C 0.83568 0.37718 0.12991 0.0
O75 O 0.82831 0.41378 0.1381 0.0
N76 N 0.9441 0.34904 0.10235 0.0
C77 C 0.94364 0.33434 0.08135 0.0
C78 C 0.96019 0.2956 0.08114 0.0
C79 C 0.96058 0.31832 0.11466 0.0
N80 N 0.97089 0.28559 0.10204 0.0
C81 C 0.98889 0.39802 0.14227 0.0
C82 C 0.94356 0.4041 0.18089 0.0
C83 C 0.98636 0.40869 0.18217 0.0
C84 C 0.00911 0.40415 0.16252 0.0
C85 C 0.92458 0.39767 0.16033 0.0
N86 N 0.94706 0.39583 0.14123 0.0
H87 H 0.00679 0.39668 0.12719 0.0
H88 H 0.89168 0.39704 0.1598 0.0
H89 H 0.93179 0.35015 0.06695 0.0
H90 H 0.96406 0.31915 0.13251 0.0
O91 O 0.96455 0.43097 0.09701 0.0
O92 O 0.90487 0.41423 0.08191 0.0
O93 O 0.87046 0.36884 0.1211 0.0
C94 C 0.94023 0.4325 0.07989 0.0
H95 H 0.85085 0.53793 0.10772 0.0
H96 H 0.96448 0.27638 0.06665 0.0
H97 H 0.92444 0.4079 0.19544 0.0
H98 H 0.04224 0.40659 0.16263 0.0
Co99 Co 0.11727 0.95736 0.60283 0.0
C100 C 0.03734 0.92159 0.61235 0.0
C101 C 0.07509 0.87908 0.59455 0.0
C102 C 0.03514 0.86498 0.59422 0.0
N103 N 0.07631 0.91481 0.60591 0.0
N104 N 0.01174 0.89182 0.60554 0.0
H105 H 0.02648 0.95041 0.6189 0.0
H106 H 0.10035 0.86674 0.585 0.0
C107 C 0.16037 0.88526 0.62423 0.0
O108 O 0.12654 0.87743 0.6353 0.0
N109 N 0.15667 1.00127 0.59943 0.0
C110 C 0.14662 0.04119 0.59702 0.0
C111 C 0.18178 0.06419 0.59662 0.0
C112 C 0.19807 1.00054 0.60063 0.0
N113 N 0.21416 0.03878 0.59903 0.0
C114 C 0.07554 0.00481 0.63583 0.0
C115 C 0.11873 0.97902 0.67266 0.0
C116 C 0.0843 0.00442 0.67575 0.0
C117 C 0.06374 0.01847 0.65678 0.0
C118 C 0.13 0.96657 0.65118 0.0
N119 N 0.10672 0.97714 0.63314 0.0
H120 H 0.0585 0.01613 0.62177 0.0
H121 H 0.15755 0.94872 0.6494 0.0
H122 H 0.11573 0.05317 0.5961 0.0
H123 H 0.21595 0.97299 0.60334 0.0
O124 O 0.07677 0.98985 0.58695 0.0
O125 O 0.11922 0.94599 0.57105 0.0
O126 O 0.16261 0.91756 0.61208 0.0
C127 C 0.08914 0.97199 0.56893 0.0
H128 H 0.02351 0.83976 0.58433 0.0
H129 H 0.18327 0.09722 0.59479 0.0
H130 H 0.13653 0.9682 0.68668 0.0
H131 H 0.0384 0.03987 0.65802 0.0
Co132 Co 0.5673 0.40134 0.89859 0.0
C133 C 0.59184 0.48217 0.88309 0.0
C134 C 0.64006 0.45398 0.90187 0.0
C135 C 0.64841 0.49533 0.89987 0.0
N136 N 0.60431 0.44582 0.89143 0.0
N137 N 0.6178 0.51291 0.88817 0.0
H138 H 0.56143 0.48743 0.87653 0.0
H139 H 0.65632 0.43251 0.9124 0.0
C140 C 0.6429 0.36098 0.87867 0.0
O141 O 0.64932 0.39377 0.86644 0.0
N142 N 0.52906 0.35786 0.90608 0.0
C143 C 0.49773 0.35987 0.92071 0.0
C144 C 0.47782 0.32279 0.92109 0.0
C145 C 0.52721 0.31957 0.89747 0.0
N146 N 0.49633 0.29748 0.90652 0.0
C147 C 0.50833 0.42844 0.86671 0.0
C148 C 0.53964 0.39054 0.82946 0.0
C149 C 0.50643 0.41777 0.82689 0.0
C150 C 0.49051 0.43613 0.84607 0.0
C151 C 0.5569 0.38387 0.85057 0.0
N152 N 0.54247 0.4043 0.86883 0.0
H153 H 0.49501 0.44339 0.88091 0.0
H154 H 0.58145 0.36202 0.8519 0.0
H155 H 0.48918 0.38635 0.93045 0.0
H156 H 0.54809 0.308 0.88498 0.0
O157 O 0.53341 0.44186 0.91356 0.0
O158 O 0.58278 0.40626 0.92979 0.0
O159 O 0.61017 0.35816 0.8904 0.0
C160 C 0.5548 0.43461 0.93131 0.0
H161 H 0.67271 0.51181 0.90829 0.0
H162 H 0.45121 0.31525 0.93104 0.0
H163 H 0.55215 0.37433 0.8153 0.0
H164 H 0.46506 0.45746 0.84522 0.0
Co165 Co 0.0992 0.57869 0.40013 0.0
C166 C 0.01673 0.58259 0.38162 0.0
C167 C 0.02826 0.63403 0.40286 0.0
C168 C 0.98687 0.63229 0.39848 0.0
N169 N 0.04712 0.60306 0.39208 0.0
N170 N 0.97946 0.59947 0.38538 0.0
H171 H 0.0215 0.55348 0.37341 0.0
H172 H 0.04293 0.65392 0.41486 0.0
C173 C 0.12394 0.66622 0.38573 0.0
O174 O 0.08732 0.67462 0.37786 0.0
N175 N 0.15105 0.55361 0.40878 0.0
C176 C 0.16398 0.54586 0.42971 0.0
C177 C 0.20269 0.5294 0.42897 0.0
C178 C 0.18274 0.54223 0.39564 0.0
N179 N 0.2144 0.52704 0.40758 0.0
C180 C 0.10401 0.51574 0.36723 0.0
C181 C 0.09629 0.56609 0.33053 0.0
C182 C 0.09312 0.52345 0.32761 0.0
C183 C 0.09848 0.49815 0.34623 0.0
C184 C 0.10222 0.58242 0.35179 0.0
N185 N 0.10481 0.5574 0.36994 0.0
H186 H 0.10583 0.49582 0.38156 0.0
H187 H 0.10208 0.61518 0.35361 0.0
H188 H 0.14694 0.55168 0.44474 0.0
H189 H 0.1831 0.54551 0.37776 0.0
O190 O 0.06927 0.53297 0.41282 0.0
O191 O 0.08619 0.58944 0.43114 0.0
O192 O 0.13211 0.63049 0.39352 0.0
C193 C 0.06809 0.55373 0.43123 0.0
H194 H 0.96369 0.65099 0.40645 0.0
H195 H 0.22059 0.51924 0.4431 0.0
H196 H 0.0928 0.5868 0.31658 0.0
H197 H 0.09607 0.46508 0.34483 0.0
Co198 Co 0.94888 0.1127 0.90468 0.0
C199 C 0.91593 0.02836 0.90298 0.0
C200 C 0.87871 0.0678 0.92301 0.0
C201 C 0.86661 0.02772 0.92659 0.0
N202 N 0.90991 0.06816 0.90825 0.0
N203 N 0.89008 0.00325 0.91384 0.0
H204 H 0.94138 0.01696 0.89346 0.0
H205 H 0.86808 0.09441 0.9321 0.0
C206 C 0.86871 0.14533 0.88743 0.0
O207 O 0.86305 0.10939 0.87799 0.0
N208 N 0.98863 0.1561 0.90185 0.0
C209 C 0.02625 0.15149 0.89291 0.0
C210 C 0.04842 0.18657 0.89656 0.0
C211 C 0.98841 0.19392 0.911 0.0
N212 N 0.02483 0.21311 0.90805 0.0
C213 C 0.98348 0.06648 0.86878 0.0
C214 C 0.95687 0.1153 0.83422 0.0
C215 C 0.9811 0.08073 0.82935 0.0
C216 C 0.99471 0.0566 0.84713 0.0
C217 C 0.94657 0.12437 0.85632 0.0
N218 N 0.95835 0.09904 0.87333 0.0
H219 H 0.99673 0.04852 0.88198 0.0
H220 H 0.93043 0.1526 0.8596 0.0
H221 H 0.03749 0.12393 0.88501 0.0
H222 H 0.96293 0.20632 0.92038 0.0
O223 O 0.991 0.07859 0.91798 0.0
O224 O 0.94901 0.11913 0.93678 0.0
O225 O 0.90237 0.15258 0.89777 0.0
C226 C 0.97868 0.09236 0.93706 0.0
H227 H 0.84434 0.0172 0.93865 0.0
H228 H 0.0797 0.192 0.89129 0.0
H229 H 0.94627 0.13553 0.82114 0.0
H230 H 0.01525 0.03089 0.84452 0.0
Co231 Co 0.39142 0.95686 0.4058 0.0
C232 C 0.47085 0.92079 0.3948 0.0
C233 C 0.43461 0.87896 0.41389 0.0
C234 C 0.47457 0.86481 0.41345 0.0
N235 N 0.43239 0.91425 0.40219 0.0
N236 N 0.49723 0.89146 0.4015 0.0
H237 H 0.48084 0.94908 0.38732 0.0
H238 H 0.40996 0.86664 0.4239 0.0
C239 C 0.34708 0.88424 0.3864 0.0
O240 O 0.37941 0.87783 0.37384 0.0
N241 N 0.35212 1.00081 0.40977 0.0
C242 C 0.36202 0.04059 0.41287 0.0
C243 C 0.32678 0.06345 0.41373 0.0
C244 C 0.31074 1.00009 0.40852 0.0
N245 N 0.29446 0.03816 0.41085 0.0
C246 C 0.4289 1.00089 0.36996 0.0
C247 C 0.37477 0.97896 0.33675 0.0
C248 C 0.40843 0.00379 0.33148 0.0
C249 C 0.43514 0.01547 0.34847 0.0
C250 C 0.36909 0.96579 0.3587 0.0
N251 N 0.39745 0.97458 0.37482 0.0
H252 H 0.44979 0.01112 0.38267 0.0
H253 H 0.34129 0.9495 0.36254 0.0
H254 H 0.39283 0.05265 0.414 0.0
H255 H 0.29302 0.97267 0.40528 0.0
O256 O 0.43395 0.99017 0.41925 0.0
O257 O 0.39311 0.94811 0.43776 0.0
O258 O 0.34569 0.91603 0.39897 0.0
C259 C 0.42364 0.97381 0.43806 0.0
H260 H 0.48655 0.83885 0.42262 0.0
H261 H 0.32528 0.09631 0.41624 0.0
H262 H 0.35254 0.97067 0.32413 0.0
H263 H 0.46104 0.03538 0.34511 0.0
Co264 Co 0.4294 0.89544 0.90255 0.0
C265 C 0.41483 0.97608 0.88408 0.0
C266 C 0.36484 0.95854 0.90505 0.0
C267 C 0.36237 1.00019 0.90117 0.0
N268 N 0.39772 0.94333 0.89418 0.0
N269 N 0.3944 0.01123 0.88834 0.0
H270 H 0.44471 0.97509 0.87629 0.0
H271 H 0.34674 0.94155 0.91697 0.0
C272 C 0.3476 0.8607 0.8862 0.0
O273 O 0.33794 0.89611 0.8772 0.0
N274 N 0.46301 0.84874 0.91115 0.0
C275 C 0.49216 0.84768 0.92716 0.0
C276 C 0.5135 0.81149 0.92558 0.0
C277 C 0.46699 0.81275 0.90015 0.0
N278 N 0.49766 0.78974 0.90868 0.0
C279 C 0.49437 0.9006 0.87135 0.0
C280 C 0.44801 0.89523 0.83307 0.0
C281 C 0.48964 0.90595 0.83129 0.0
C282 C 0.51308 0.90741 0.85082 0.0
C283 C 0.4304 0.88904 0.85399 0.0
N284 N 0.45325 0.89305 0.87287 0.0
H285 H 0.5127 0.90331 0.88624 0.0
H286 H 0.39822 0.8826 0.85474 0.0
H287 H 0.49922 0.87199 0.93871 0.0
H288 H 0.44947 0.8046 0.88551 0.0
O289 O 0.46811 0.93331 0.91578 0.0
O290 O 0.41551 0.90518 0.93349 0.0
O291 O 0.38293 0.8554 0.89524 0.0
C292 C 0.44643 0.93052 0.93382 0.0
H293 H 0.34179 0.02134 0.90943 0.0
H294 H 0.53947 0.80224 0.93565 0.0
H295 H 0.42882 0.89259 0.81845 0.0
H296 H 0.54525 0.91568 0.85046 0.0
Co297 Co 0.59552 0.4178 0.40408 0.0
C298 C 0.5142 0.40632 0.38529 0.0
C299 C 0.53033 0.35526 0.40588 0.0
C300 C 0.48928 0.35258 0.40071 0.0
N301 N 0.54615 0.3886 0.39581 0.0
N302 N 0.47876 0.38527 0.38804 0.0
H303 H 0.51614 0.43676 0.37824 0.0
H304 H 0.54673 0.33605 0.41756 0.0
C305 C 0.62713 0.33412 0.38777 0.0
O306 O 0.5913 0.32512 0.3791 0.0
N307 N 0.64427 0.44826 0.41267 0.0
C308 C 0.65072 0.46971 0.43155 0.0
C309 C 0.68907 0.48688 0.43084 0.0
C310 C 0.67912 0.45276 0.40075 0.0
N311 N 0.70699 0.47625 0.41152 0.0
C312 C 0.59445 0.48248 0.37228 0.0
C313 C 0.59681 0.43477 0.33441 0.0
C314 C 0.58926 0.47704 0.33219 0.0
C315 C 0.58921 0.50109 0.35153 0.0
C316 C 0.60152 0.41736 0.3555 0.0
N317 N 0.59924 0.44096 0.3742 0.0
H318 H 0.59297 0.50137 0.38701 0.0
H319 H 0.60543 0.3848 0.35652 0.0
H320 H 0.62936 0.47338 0.44506 0.0
H321 H 0.68398 0.43903 0.3846 0.0
O322 O 0.56018 0.45918 0.41706 0.0
O323 O 0.58451 0.40518 0.43516 0.0
O324 O 0.63324 0.36926 0.39688 0.0
C325 C 0.56146 0.43795 0.43532 0.0
H326 H 0.46849 0.32993 0.40742 0.0
H327 H 0.70235 0.50656 0.44342 0.0
H328 H 0.59822 0.41497 0.31999 0.0
H329 H 0.58335 0.53379 0.35082 0.0
Co330 Co 0.04515 0.60883 0.90782 0.0
C331 C 0.08292 0.52671 0.9066 0.0
C332 C 0.11725 0.56823 0.9269 0.0
C333 C 0.13087 0.52882 0.93105 0.0
N334 N 0.08677 0.56681 0.91168 0.0
N335 N 0.10921 0.50306 0.9181 0.0
H336 H 0.05833 0.51391 0.89694 0.0
H337 H 0.12597 0.59545 0.93605 0.0
C338 C 0.12315 0.6446 0.89049 0.0
O339 O 0.12947 0.60907 0.88073 0.0
N340 N 0.00308 0.64995 0.90473 0.0
C341 C 0.96542 0.64348 0.89623 0.0
C342 C 0.94306 0.67902 0.89805 0.0
C343 C 0.00317 0.68924 0.91181 0.0
N344 N 0.96663 0.70779 0.90795 0.0
C345 C 0.01395 0.56022 0.87182 0.0
C346 C 0.03817 0.61009 0.83723 0.0
C347 C 0.01732 0.57342 0.83232 0.0
C348 C 0.00467 0.54885 0.8501 0.0
C349 C 0.04688 0.62039 0.8594 0.0
N350 N 0.03673 0.59443 0.87643 0.0
H351 H 1.00146 0.54167 0.88498 0.0
H352 H 0.06069 0.64983 0.86271 0.0
H353 H 0.95471 0.6147 0.88943 0.0
H354 H 0.02901 0.70349 0.92006 0.0
O355 O 0.00571 0.57178 0.92097 0.0
O356 O 0.04395 0.61552 0.93997 0.0
O357 O 0.0895 0.65089 0.90099 0.0
C358 C 0.0171 0.58592 0.94015 0.0
H359 H 0.15255 0.51953 0.94373 0.0
H360 H 0.91188 0.68334 0.8923 0.0
H361 H 0.04755 0.63077 0.8241 0.0
H362 H 0.98654 0.52145 0.84735 0.0
Co363 Co 0.89327 0.04181 0.39782 0.0
C364 C 0.97323 0.08173 0.39208 0.0
C365 C 0.93264 0.11903 0.41131 0.0
C366 C 0.97193 0.1345 0.41335 0.0
N367 N 0.93356 0.08568 0.39799 0.0
N368 N 0.99725 0.11076 0.4012 0.0
H369 H 0.98573 0.05525 0.38389 0.0
H370 H 0.90614 0.12883 0.42073 0.0
C371 C 0.85002 0.11616 0.38021 0.0
O372 O 0.88288 0.12344 0.3682 0.0
N373 N 0.85427 0.99726 0.39815 0.0
C374 C 0.86403 0.95737 0.39566 0.0
C375 C 0.82876 0.93448 0.3965 0.0
C376 C 0.81307 0.99824 0.40035 0.0
N377 N 0.79654 0.96007 0.39932 0.0
C378 C 0.93721 0.00876 0.36071 0.0
C379 C 0.88128 0.02795 0.32788 0.0
C380 C 0.9186 0.00954 0.32191 0.0
C381 C 0.9463 0.99929 0.33873 0.0
C382 C 0.87369 0.03764 0.35025 0.0
N383 N 0.90267 0.03026 0.36626 0.0
H384 H 0.95812 0.99797 0.37327 0.0
H385 H 0.84413 0.05019 0.35457 0.0
H386 H 0.89476 0.94564 0.39326 0.0
H387 H 0.79561 0.02627 0.40223 0.0
O388 O 0.93477 0.00617 0.41046 0.0
O389 O 0.89188 0.04436 0.43008 0.0
O390 O 0.84788 0.08323 0.39181 0.0
C391 C 0.92283 0.0191 0.42978 0.0
H392 H 0.98156 0.15907 0.42428 0.0
H393 H 0.8273 0.90138 0.39528 0.0
H394 H 0.85833 0.0349 0.31541 0.0
H395 H 0.97453 0.9831 0.33498 0.0
Co396 Co 0.46991 0.61461 0.10572 0.0
C397 C 0.43017 0.53464 0.11268 0.0
C398 C 0.39094 0.57578 0.09486 0.0
C399 C 0.37355 0.53714 0.09448 0.0
N400 N 0.42649 0.5741 0.10638 0.0
N401 N 0.39844 0.51152 0.10579 0.0
H402 H 0.45739 0.52164 0.11992 0.0
H403 H 0.38005 0.60247 0.08593 0.0
C404 C 0.3972 0.656 0.12649 0.0
O405 O 0.39169 0.62253 0.13832 0.0
N406 N 0.51403 0.65396 0.10463 0.0
C407 C 0.55412 0.64412 0.10583 0.0
C408 C 0.57685 0.67948 0.10547 0.0
C409 C 0.51276 0.69532 0.1037 0.0
N410 N 0.55094 0.71175 0.10427 0.0
C411 C 0.50827 0.56915 0.14089 0.0
C412 C 0.49183 0.62278 0.17521 0.0
C413 C 0.51276 0.58609 0.17999 0.0
C414 C 0.52121 0.55941 0.16233 0.0
C415 C 0.47921 0.63127 0.15337 0.0
N416 N 0.48541 0.60346 0.13666 0.0
H417 H 0.51725 0.54883 0.12764 0.0
H418 H 0.4655 0.66075 0.15 0.0
H419 H 0.56613 0.61326 0.10718 0.0
H420 H 0.48464 0.71295 0.10321 0.0
O421 O 0.50494 0.5749 0.0909 0.0
O422 O 0.46299 0.61793 0.07372 0.0
O423 O 0.4288 0.65913 0.11393 0.0
C424 C 0.48962 0.58828 0.07235 0.0
H425 H 0.34626 0.52811 0.08547 0.0
H426 H 0.60999 0.68114 0.10603 0.0
H427 H 0.48611 0.64524 0.1881 0.0
H428 H 0.53766 0.53091 0.16495 0.0
Co429 Co 0.91152 0.42544 0.60515 0.0
C430 C 0.99387 0.39848 0.61786 0.0
C431 C 0.96358 0.35255 0.5984 0.0
C432 C 0.00441 0.34192 0.6005 0.0
N433 N 0.95706 0.38808 0.60937 0.0
N434 N 0.02334 0.37104 0.61271 0.0
H435 H 1.00032 0.42803 0.62518 0.0
H436 H 0.9411 0.33735 0.58804 0.0
C437 C 0.87536 0.3483 0.62538 0.0
O438 O 0.9095 0.34298 0.63665 0.0
N439 N 0.86679 0.46392 0.6006 0.0
C440 C 0.8686 0.49975 0.58934 0.0
C441 C 0.83064 0.5179 0.58956 0.0
C442 C 0.82767 0.4613 0.60795 0.0
N443 N 0.80498 0.49377 0.60121 0.0
C444 C 0.94328 0.47973 0.63826 0.0
C445 C 0.90518 0.44685 0.67503 0.0
C446 C 0.93414 0.47831 0.67815 0.0
C447 C 0.9521 0.49556 0.65923 0.0
C448 C 0.8968 0.43214 0.65357 0.0
N449 N 0.9177 0.44683 0.63553 0.0
H450 H 0.95817 0.49384 0.62427 0.0
H451 H 0.87326 0.40932 0.65182 0.0
H452 H 0.89551 0.51242 0.58145 0.0
H453 H 0.81583 0.43617 0.61779 0.0
O454 O 0.94949 0.46181 0.59006 0.0
O455 O 0.91262 0.41413 0.57329 0.0
O456 O 0.87043 0.38082 0.61363 0.0
C457 C 0.93987 0.44318 0.57175 0.0
H458 H 0.01958 0.31662 0.59223 0.0
H459 H 0.82259 0.54698 0.58199 0.0
H460 H 0.88952 0.43313 0.68904 0.0
H461 H 0.9731 0.52122 0.66051 0.0
Co462 Co 0.09157 0.90477 0.10391 0.0
C463 C 0.10134 0.98696 0.12177 0.0
C464 C 0.15441 0.96966 0.10306 0.0
C465 C 0.15585 0.01134 0.10686 0.0
N466 N 0.12038 0.95422 0.11267 0.0
N467 N 0.12197 0.02236 0.1183 0.0
H468 H 0.0702 0.98567 0.12794 0.0
H469 H 0.17469 0.95255 0.09226 0.0
C470 C 0.17313 0.87308 0.12285 0.0
O471 O 0.18129 0.90899 0.13168 0.0
N472 N 0.06127 0.85614 0.09485 0.0
C473 C 0.0372 0.85153 0.07676 0.0
C474 C 0.01984 0.8132 0.07716 0.0
C475 C 0.05785 0.82033 0.10609 0.0
N476 N 0.03276 0.79349 0.09557 0.0
C477 C 0.02356 0.90741 0.13321 0.0
C478 C 0.06661 0.90735 0.17275 0.0
C479 C 0.02438 0.91565 0.17313 0.0
C480 C 0.00265 0.91455 0.15307 0.0
C481 C 0.08647 0.90089 0.15244 0.0
N482 N 0.06515 0.90219 0.13292 0.0
H483 H 0.00649 0.90795 0.11782 0.0
H484 H 0.11908 0.89686 0.15262 0.0
H485 H 0.0313 0.87446 0.06425 0.0
H486 H 0.0731 0.81429 0.12173 0.0
O487 O 0.05233 0.94043 0.08938 0.0
O488 O 0.10785 0.91464 0.07326 0.0
O489 O 0.13885 0.86683 0.11288 0.0
C490 C 0.07583 0.93854 0.072 0.0
H491 H 0.17835 0.03222 0.10003 0.0
H492 H 0.9981 0.80136 0.06517 0.0
H493 H 0.08456 0.90802 0.1879 0.0
H494 H 0.96989 0.92021 0.15267 0.0
Co495 Co 0.61782 0.0505 0.60865 0.0
C496 C 0.53602 0.08507 0.61656 0.0
C497 C 0.57422 0.12756 0.5991 0.0
C498 C 0.53425 0.14159 0.59829 0.0
N499 N 0.57524 0.09194 0.61058 0.0
N500 N 0.51042 0.1146 0.6093 0.0
H501 H 0.52511 0.05671 0.62351 0.0
H502 H 0.59997 0.14033 0.59014 0.0
C503 C 0.65797 0.12447 0.6292 0.0
O504 O 0.62476 0.12966 0.64124 0.0
N505 N 0.65891 0.00813 0.60629 0.0
C506 C 0.65079 0.96759 0.60732 0.0
C507 C 0.68676 0.94621 0.60497 0.0
C508 C 0.69991 0.01103 0.60357 0.0
N509 N 0.71755 0.97345 0.60263 0.0
C510 C 0.57642 0.00777 0.64355 0.0
C511 C 0.63003 0.02565 0.67767 0.0
C512 C 0.59532 1.00153 0.68224 0.0
C513 C 0.56856 0.9926 0.66471 0.0
C514 C 0.63672 0.04043 0.65606 0.0
N515 N 0.60896 0.0331 0.63945 0.0
H516 H 0.55619 0.99829 0.63037 0.0
H517 H 0.66491 0.05657 0.65276 0.0
H518 H 0.62073 0.95437 0.60983 0.0
H519 H 0.71643 0.03974 0.6022 0.0
O520 O 0.57891 0.01456 0.59396 0.0
O521 O 0.61907 0.05902 0.57673 0.0
O522 O 0.66124 0.09281 0.61669 0.0
C523 C 0.59039 0.03135 0.57545 0.0
H524 H 0.52319 0.16777 0.58896 0.0
H525 H 0.69021 0.91315 0.60549 0.0
H526 H 0.65239 0.03211 0.69052 0.0
H527 H 0.54147 0.97392 0.66724 0.0
C528 C 0.43832 0.07572 0.2047 0.0
C529 C 0.48022 0.08189 0.20069 0.0
C530 C 0.42419 0.06451 0.22588 0.0
C531 C 0.45282 0.05827 0.24327 0.0
C532 C 0.49521 0.06468 0.23928 0.0
C533 C 0.50835 0.07693 0.21807 0.0
C534 C 0.37871 0.05903 0.22959 0.0
C535 C 0.52678 0.05757 0.25724 0.0
C536 C 0.41974 0.05979 0.30381 0.0
C537 C 0.41609 0.01779 0.30847 0.0
C538 C 0.43036 0.07346 0.28245 0.0
C539 C 0.4386 0.04436 0.26556 0.0
C540 C 0.43444 1.00186 0.27016 0.0
C541 C 0.42273 0.98911 0.29153 0.0
C542 C 0.43342 0.11901 0.27808 0.0
C543 C 0.44371 0.96984 0.25274 0.0
H544 H 0.4166 0.07976 0.19121 0.0
H545 H 0.54078 0.08132 0.21485 0.0
H546 H 0.37209 0.02665 0.23404 0.0
H547 H 0.36846 0.0784 0.2437 0.0
H548 H 0.36037 0.06721 0.21467 0.0
H549 H 0.55853 0.06376 0.25142 0.0
H550 H 0.52031 0.07757 0.27172 0.0
H551 H 0.52507 0.02529 0.2631 0.0
H552 H 0.41447 0.08191 0.31695 0.0
H553 H 0.4203 0.95662 0.29527 0.0
H554 H 0.41444 0.12743 0.26346 0.0
H555 H 0.46562 0.12728 0.27415 0.0
H556 H 0.42325 0.1376 0.29254 0.0
H557 H 0.42432 0.97491 0.23785 0.0
H558 H 0.43845 0.93811 0.25889 0.0
H559 H 0.47619 0.97259 0.2474 0.0
C560 C 0.51451 0.43279 0.78597 0.0
C561 C 0.4889 0.42818 0.80456 0.0
C562 C 0.4988 0.44607 0.76539 0.0
C563 C 0.45649 0.45551 0.76329 0.0
C564 C 0.43032 0.45004 0.7818 0.0
C565 C 0.4467 0.43611 0.80206 0.0
C566 C 0.52769 0.45086 0.74598 0.0
C567 C 0.38508 0.45984 0.78037 0.0
C568 C 0.42564 0.52944 0.71698 0.0
C569 C 0.41092 0.5026 0.70055 0.0
C570 C 0.43983 0.51462 0.73757 0.0
C571 C 0.43975 0.47182 0.74187 0.0
C572 C 0.42406 0.44463 0.7256 0.0
C573 C 0.40958 0.46032 0.70529 0.0
C574 C 0.45579 0.54474 0.75456 0.0
C575 C 0.42347 0.39881 0.72944 0.0
H576 H 0.54715 0.42723 0.78764 0.0
H577 H 0.42631 0.43179 0.81606 0.0
H578 H 0.5161 0.43329 0.73148 0.0
H579 H 0.52919 0.48361 0.74097 0.0
H580 H 0.55924 0.44013 0.74992 0.0
H581 H 0.36871 0.45335 0.79616 0.0
H582 H 0.38085 0.49277 0.77619 0.0
H583 H 0.37058 0.44171 0.7669 0.0
H584 H 0.4274 0.56204 0.7135 0.0
H585 H 0.39759 0.43925 0.69296 0.0
H586 H 0.48885 0.53892 0.75769 0.0
H587 H 0.43949 0.54053 0.77057 0.0
H588 H 0.45203 0.57713 0.74913 0.0
H589 H 0.45523 0.38748 0.73207 0.0
H590 H 0.40974 0.38181 0.71527 0.0
H591 H 0.4058 0.39153 0.74467 0.0
C592 C 0.0387 0.45007 0.20338 0.0
C593 C 0.00649 0.42136 0.20347 0.0
C594 C 0.05561 0.46508 0.22329 0.0
C595 C 0.03973 0.45153 0.24391 0.0
C596 C 0.00803 0.42177 0.24417 0.0
C597 C 0.99198 0.40693 0.224 0.0
C598 C 0.08955 0.49657 0.22223 0.0
C599 C 0.99011 0.40654 0.26576 0.0
C600 C 0.10003 0.47025 0.2974 0.0
C601 C 0.08098 0.50574 0.30572 0.0
C602 C 0.08734 0.45251 0.27719 0.0
C603 C 0.05446 0.47034 0.26513 0.0
C604 C 0.03523 0.50621 0.27345 0.0
C605 C 0.04879 0.5235 0.29353 0.0
C606 C 0.109 0.41461 0.26878 0.0
C607 C 0.99981 0.52602 0.26129 0.0
H608 H 0.04984 0.46206 0.18773 0.0
H609 H 0.96762 0.3843 0.22435 0.0
H610 H 0.07824 0.52638 0.22872 0.0
H611 H 0.11569 0.48697 0.23286 0.0
H612 H 0.1009 0.50132 0.20503 0.0
H613 H 0.96695 0.38198 0.26319 0.0
H614 H 0.01479 0.3945 0.27667 0.0
H615 H 0.97529 0.43241 0.27468 0.0
H616 H 0.12505 0.45648 0.30665 0.0
H617 H 0.03339 0.55046 0.30002 0.0
H618 H 0.12149 0.42035 0.25193 0.0
H619 H 0.08689 0.38885 0.26736 0.0
H620 H 0.13456 0.40498 0.27985 0.0
H621 H 0.00935 0.53469 0.24424 0.0
H622 H 0.98829 0.5539 0.2699 0.0
H623 H 0.97416 0.50381 0.25968 0.0
C624 C 0.09667 0.02347 0.71592 0.0
C625 C 0.06926 0.01615 0.69835 0.0
C626 C 0.08237 0.03459 0.73714 0.0
C627 C 0.03966 0.0391 0.74086 0.0
C628 C 0.01187 0.03202 0.72321 0.0
C629 C 0.02692 0.02021 0.70233 0.0
C630 C 0.11295 0.04129 0.75563 0.0
C631 C 0.96613 0.03674 0.72639 0.0
C632 C 0.99808 0.02923 0.79961 0.0
C633 C 0.99406 0.07046 0.80619 0.0
C634 C 0.01321 0.01869 0.77855 0.0
C635 C 0.02384 0.05006 0.76335 0.0
C636 C 0.01884 0.09173 0.76957 0.0
C637 C 0.0043 0.10144 0.79094 0.0
C638 C 0.01821 0.97387 0.77265 0.0
C639 C 0.02916 0.12608 0.75369 0.0
H640 H 0.1294 0.02096 0.71308 0.0
H641 H 0.00524 0.01372 0.68914 0.0
H642 H 0.11011 0.073 0.76217 0.0
H643 H 0.10636 0.02001 0.76958 0.0
H644 H 0.1451 0.03634 0.75011 0.0
H645 H 0.94874 0.03196 0.71072 0.0
H646 H 0.95507 0.0143 0.73888 0.0
H647 H 0.95903 0.06787 0.73284 0.0
H648 H 0.98949 0.00497 0.81101 0.0
H649 H 1.00188 0.13336 0.79583 0.0
H650 H 0.0506 0.96751 0.76811 0.0
H651 H 0.99907 0.96628 0.75798 0.0
H652 H 0.00941 0.95319 0.78653 0.0
H653 H 0.06217 0.12472 0.74926 0.0
H654 H 0.02243 0.15683 0.76079 0.0
H655 H 0.01142 0.12244 0.73807 0.0
C656 C 0.48477 0.94087 0.79415 0.0
C657 C 0.50786 0.91793 0.80947 0.0
C658 C 0.50169 0.95375 0.77388 0.0
C659 C 0.54298 0.94402 0.76881 0.0
C660 C 0.56661 0.92107 0.78417 0.0
C661 C 0.54872 0.90809 0.80423 0.0
C662 C 0.47529 0.97788 0.75788 0.0
C663 C 0.6108 0.91026 0.77942 0.0
C664 C 0.57037 0.94559 0.70753 0.0
C665 C 0.58659 0.98526 0.7049 0.0
C666 C 0.55721 0.93137 0.72833 0.0
C667 C 0.56086 0.95715 0.74714 0.0
C668 C 0.57919 0.99639 0.74487 0.0
C669 C 0.59173 0.01004 0.72376 0.0
C670 C 0.53781 0.88936 0.72998 0.0
C671 C 0.5841 0.02459 0.76458 0.0
H672 H 0.45352 0.9495 0.79815 0.0
H673 H 0.56678 0.89001 0.81576 0.0
H674 H 0.48932 0.00834 0.75469 0.0
H675 H 0.47347 0.96159 0.74173 0.0
H676 H 0.44364 0.98262 0.76422 0.0
H677 H 0.62537 0.89324 0.79334 0.0
H678 H 0.61269 0.89114 0.76421 0.0
H679 H 0.62872 0.93863 0.77625 0.0
H680 H 0.56719 0.92579 0.69317 0.0
H681 H 0.60407 0.04075 0.72191 0.0
H682 H 0.50511 0.89253 0.73482 0.0
H683 H 0.5532 0.87094 0.74306 0.0
H684 H 0.53935 0.87219 0.71406 0.0
H685 H 0.55343 0.03445 0.77054 0.0
H686 H 0.60231 0.0524 0.76048 0.0
H687 H 0.59934 0.00817 0.77848 0.0
C688 C 0.59285 0.53511 0.3044 0.0
C689 C 0.57945 0.49543 0.31003 0.0
C690 C 0.58265 0.55294 0.28382 0.0
C691 C 0.55881 0.53049 0.26834 0.0
C692 C 0.5453 0.49046 0.27387 0.0
C693 C 0.55551 0.47359 0.29463 0.0
C694 C 0.59746 0.59579 0.27862 0.0
C695 C 0.52003 0.46532 0.25782 0.0
C696 C 0.50054 0.58314 0.22131 0.0
C697 C 0.52613 0.5754 0.20303 0.0
C698 C 0.51141 0.56996 0.2428 0.0
C699 C 0.54864 0.54825 0.24612 0.0
C700 C 0.57519 0.54154 0.22789 0.0
C701 C 0.56378 0.5554 0.20667 0.0
C702 C 0.48243 0.57813 0.26183 0.0
C703 C 0.61511 0.51849 0.23064 0.0
H704 H 0.61168 0.55218 0.31601 0.0
H705 H 0.54413 0.44335 0.2989 0.0
H706 H 0.61773 0.59515 0.26384 0.0
H707 H 0.57098 0.61586 0.27452 0.0
H708 H 0.61463 0.60969 0.29268 0.0
H709 H 0.51211 0.43458 0.26457 0.0
H710 H 0.49117 0.48178 0.25374 0.0
H711 H 0.53714 0.4611 0.24206 0.0
H712 H 0.47131 0.5983 0.21873 0.0
H713 H 0.58431 0.5501 0.19281 0.0
H714 H 0.49907 0.59287 0.2758 0.0
H715 H 0.4699 0.54865 0.26809 0.0
H716 H 0.45638 0.59818 0.25689 0.0
H717 H 0.63413 0.53307 0.24373 0.0
H718 H 0.63317 0.51736 0.21501 0.0
H719 H 0.60875 0.48656 0.23607 0.0
C720 C 0.99341 0.58989 0.79343 0.0
C721 C 0.00714 0.56101 0.80908 0.0
C722 C 0.98135 0.57771 0.77195 0.0
C723 C 0.98289 0.53563 0.76598 0.0
C724 C 0.99728 0.50646 0.78158 0.0
C725 C 0.00939 0.5195 0.80282 0.0
C726 C 0.96654 0.60981 0.75573 0.0
C727 C 0.99957 0.46133 0.77591 0.0
C728 C 0.91724 0.49633 0.71796 0.0
C729 C 0.94616 0.49311 0.70076 0.0
C730 C 0.92866 0.51042 0.73919 0.0
C731 C 0.9699 0.52194 0.74335 0.0
C732 C 0.99914 0.51901 0.72607 0.0
C733 C 0.98704 0.50436 0.70514 0.0
C734 C 0.89662 0.51273 0.75724 0.0
C735 C 0.0434 0.53103 0.72974 0.0
H736 H 0.99112 0.62193 0.79813 0.0
H737 H 0.02062 0.497 0.81463 0.0
H738 H 0.98537 0.60879 0.74039 0.0
H739 H 0.93438 0.60323 0.75083 0.0
H740 H 0.96799 0.64132 0.76274 0.0
H741 H 0.0112 0.44253 0.78997 0.0
H742 H 0.9687 0.4499 0.77118 0.0
H743 H 0.02003 0.45662 0.76142 0.0
H744 H 0.88552 0.48826 0.71478 0.0
H745 H 0.00995 0.50124 0.69221 0.0
H746 H 0.89443 0.54459 0.76366 0.0
H747 H 0.9057 0.49282 0.77137 0.0
H748 H 0.86581 0.50302 0.75132 0.0
H749 H 0.04518 0.56307 0.73594 0.0
H750 H 0.06198 0.52862 0.71433 0.0
H751 H 0.05735 0.51099 0.74259 0.0
C752 C 0.00999 0.90623 0.21376 0.0
C753 C 0.00378 0.92829 0.19406 0.0
C754 C 0.99258 0.91948 0.23388 0.0
C755 C 0.969 0.95607 0.23438 0.0
C756 C 0.9621 0.97809 0.21444 0.0
C757 C 0.97935 0.96379 0.19451 0.0
C758 C 1.00026 0.89482 0.25471 0.0
C759 C 0.9378 0.01759 0.2143 0.0
C760 C 0.90257 0.97573 0.28543 0.0
C761 C 0.92898 0.99954 0.29853 0.0
C762 C 0.91479 0.9619 0.26428 0.0
C763 C 0.95407 0.97268 0.25601 0.0
C764 C 0.98004 0.99821 0.26886 0.0
C765 C 0.9673 0.01105 0.28999 0.0
C766 C 0.88637 0.93448 0.25118 0.0
C767 C 0.02182 0.01107 0.26055 0.0
H768 H 0.02863 0.87865 0.21343 0.0
H769 H 0.97492 0.98125 0.17936 0.0
H770 H 0.01895 0.91311 0.26652 0.0
H771 H 0.97076 0.88768 0.26305 0.0
H772 H 0.01663 0.86557 0.25125 0.0
H773 H 0.93326 0.02979 0.19724 0.0
H774 H 0.90732 0.01279 0.22205 0.0
H775 H 0.95406 0.04113 0.2243 0.0
H776 H 0.87309 0.9665 0.2921 0.0
H777 H 0.98764 0.02971 0.30007 0.0
H778 H 0.90056 0.9037 0.24923 0.0
H779 H 0.88155 0.94711 0.23427 0.0
H780 H 0.85604 0.93078 0.25935 0.0
H781 H 0.04178 0.98367 0.25876 0.0
H782 H 0.03713 0.03313 0.27193 0.0
H783 H 0.0191 0.02546 0.2439 0.0
C784 C 0.67499 0.19144 0.14396 0.0
C785 C 0.64427 0.19231 0.12757 0.0
C786 C 0.70541 0.22202 0.14506 0.0
C787 C 0.70557 0.25425 0.12926 0.0
C788 C 0.67429 0.25571 0.11288 0.0
C789 C 0.64394 0.22489 0.11229 0.0
C790 C 0.73778 0.21946 0.16297 0.0
C791 C 0.67341 0.28934 0.09564 0.0
C792 C 0.76618 0.35187 0.14206 0.0
C793 C 0.8029 0.3452 0.13039 0.0
C794 C 0.73438 0.32258 0.1419 0.0
C795 C 0.73906 0.28578 0.1296 0.0
C796 C 0.77607 0.27882 0.11783 0.0
C797 C 0.80753 0.30842 0.11846 0.0
C798 C 0.69572 0.33104 0.15492 0.0
C799 C 0.78235 0.24018 0.1044 0.0
H800 H 0.67553 0.16658 0.15592 0.0
H801 H 0.62049 0.22584 0.09953 0.0
H802 H 0.76848 0.21555 0.15531 0.0
H803 H 0.73851 0.24844 0.17265 0.0
H804 H 0.73238 0.1935 0.17458 0.0
H805 H 0.6465 0.28682 0.08438 0.0
H806 H 0.67265 0.31984 0.10383 0.0
H807 H 0.7018 0.28809 0.0855 0.0
H808 H 0.7622 0.38008 0.15136 0.0
H809 H 0.83559 0.30293 0.10927 0.0
H810 H 0.69062 0.30624 0.16725 0.0
H811 H 0.66883 0.33124 0.14361 0.0
H812 H 0.69694 0.3609 0.16382 0.0
H813 H 0.78 0.21285 0.11532 0.0
H814 H 0.81265 0.23956 0.09596 0.0
H815 H 0.7579 0.23748 0.09164 0.0
C816 C 0.22985 0.85974 0.61174 0.0
C817 C 0.19553 0.85592 0.62569 0.0
C818 C 0.26141 0.83004 0.61181 0.0
C819 C 0.25881 0.79567 0.62623 0.0
C820 C 0.2249 0.79241 0.64083 0.0
C821 C 0.19377 0.82237 0.64034 0.0
C822 C 0.29691 0.83478 0.59595 0.0
C823 C 0.22087 0.75657 0.6566 0.0
C824 C 0.3124 0.69527 0.61101 0.0
C825 C 0.34721 0.69569 0.62482 0.0
C826 C 0.28399 0.72783 0.61105 0.0
C827 C 0.29017 0.76192 0.62529 0.0
C828 C 0.3254 0.7628 0.63913 0.0
C829 C 0.35348 0.72979 0.63871 0.0
C830 C 0.247 0.72549 0.59597 0.0
C831 C 0.33315 0.7984 0.65462 0.0
H832 H 0.23162 0.88543 0.60033 0.0
H833 H 0.1676 0.81905 0.65129 0.0
H834 H 0.32645 0.83266 0.60505 0.0
H835 H 0.2964 0.80942 0.58364 0.0
H836 H 0.29592 0.86448 0.58687 0.0
H837 H 0.19398 0.75971 0.6678 0.0
H838 H 0.21757 0.72766 0.64701 0.0
H839 H 0.24898 0.75363 0.66689 0.0
H840 H 0.30715 0.6693 0.60012 0.0
H841 H 0.38021 0.73062 0.64942 0.0
H842 H 0.24575 0.75296 0.58508 0.0
H843 H 0.21851 0.72532 0.60604 0.0
H844 H 0.24728 0.69759 0.58535 0.0
H845 H 0.33373 0.8276 0.64514 0.0
H846 H 0.36257 0.79519 0.6638 0.0
H847 H 0.30779 0.80074 0.66684 0.0
C848 C 0.83842 0.21411 0.89786 0.0
C849 C 0.83592 0.1773 0.88578 0.0
C850 C 0.80678 0.24366 0.89689 0.0
C851 C 0.77179 0.23655 0.88338 0.0
C852 C 0.7693 0.19963 0.87101 0.0
C853 C 0.80117 0.17052 0.87242 0.0
C854 C 0.81069 0.28245 0.91044 0.0
C855 C 0.73291 0.19085 0.85621 0.0
C856 C 0.67252 0.29586 0.89486 0.0
C857 C 0.67451 0.32772 0.87917 0.0
C858 C 0.70389 0.26611 0.89646 0.0
C859 C 0.73805 0.26788 0.8819 0.0
C860 C 0.73982 0.29951 0.86577 0.0
C861 C 0.70826 0.32901 0.86467 0.0
C862 C 0.70075 0.23308 0.91396 0.0
C863 C 0.77528 0.30239 0.84972 0.0
H864 H 0.86496 0.21969 0.9083 0.0
H865 H 0.79878 0.14232 0.86296 0.0
H866 H 0.8099 0.30965 0.89935 0.0
H867 H 0.78429 0.28516 0.92198 0.0
H868 H 0.83954 0.28329 0.92027 0.0
H869 H 0.73564 0.16084 0.84756 0.0
H870 H 0.70429 0.19078 0.86617 0.0
H871 H 0.72977 0.21541 0.84354 0.0
H872 H 0.6468 0.29458 0.90624 0.0
H873 H 0.71025 0.35336 0.85244 0.0
H874 H 0.72759 0.23478 0.92528 0.0
H875 H 0.70132 0.20233 0.90604 0.0
H876 H 0.67228 0.23581 0.92399 0.0
H877 H 0.80442 0.30642 0.859 0.0
H878 H 0.77181 0.32835 0.83789 0.0
H879 H 0.77795 0.27345 0.8401 0.0
C880 C 0.19326 0.6932 0.39719 0.0
C881 C 0.15629 0.69865 0.38553 0.0
C882 C 0.22347 0.72413 0.39765 0.0
C883 C 0.21696 0.76137 0.38596 0.0
C884 C 0.17985 0.76695 0.37404 0.0
C885 C 0.14997 0.73572 0.37407 0.0
C886 C 0.26239 0.71694 0.41071 0.0
C887 C 0.17182 0.80585 0.36109 0.0
C888 C 0.28087 0.85562 0.40162 0.0
C889 C 0.31242 0.85435 0.38576 0.0
C890 C 0.24955 0.82574 0.40185 0.0
C891 C 0.24942 0.794 0.38571 0.0
C892 C 0.28068 0.79314 0.36939 0.0
C893 C 0.31178 0.82308 0.36968 0.0
C894 C 0.217 0.82771 0.41963 0.0
C895 C 0.28153 0.7603 0.35169 0.0
H896 H 0.19847 0.66486 0.40621 0.0
H897 H 0.12164 0.74034 0.36495 0.0
H898 H 0.2893 0.71813 0.39945 0.0
H899 H 0.26641 0.74162 0.42323 0.0
H900 H 0.26238 0.68682 0.41937 0.0
H901 H 0.1414 0.80557 0.35275 0.0
H902 H 0.17324 0.83281 0.37232 0.0
H903 H 0.19594 0.81004 0.3483 0.0
H904 H 0.28109 0.8795 0.41416 0.0
H905 H 0.33582 0.82179 0.35728 0.0
H906 H 0.21797 0.79934 0.42982 0.0
H907 H 0.18611 0.82934 0.41192 0.0
H908 H 0.22096 0.85463 0.43076 0.0
H909 H 0.28481 0.72963 0.35952 0.0
H910 H 0.30712 0.76465 0.33975 0.0
H911 H 0.25216 0.76027 0.34235 0.0
C912 C 0.18914 0.67198 0.87501 0.0
C913 C 0.15561 0.67677 0.88943 0.0
C914 C 0.2211 0.70096 0.8743 0.0
C915 C 0.21994 0.73556 0.88853 0.0
C916 C 0.18618 0.74064 0.90313 0.0
C917 C 0.15433 0.71136 0.90332 0.0
C918 C 0.25607 0.6946 0.85822 0.0
C919 C 0.18382 0.77693 0.91868 0.0
C920 C 0.32028 0.79282 0.89996 0.0
C921 C 0.31645 0.82719 0.88604 0.0
C922 C 0.28913 0.76283 0.90102 0.0
C923 C 0.25349 0.76696 0.88764 0.0
C924 C 0.24996 0.8011 0.8732 0.0
C925 C 0.28125 0.83078 0.87267 0.0
C926 C 0.29404 0.72703 0.91672 0.0
C927 C 0.21292 0.80647 0.85837 0.0
H928 H 0.19047 0.64548 0.86415 0.0
H929 H 0.12874 0.71525 0.91462 0.0
H930 H 0.25814 0.72114 0.84672 0.0
H931 H 0.28557 0.69287 0.86738 0.0
H932 H 0.25243 0.66614 0.84824 0.0
H933 H 0.15603 0.77605 0.92934 0.0
H934 H 0.21139 0.77766 0.9295 0.0
H935 H 0.18353 0.80591 0.909 0.0
H936 H 0.34718 0.78983 0.91044 0.0
H937 H 0.27795 0.85705 0.86176 0.0
H938 H 0.2925 0.69771 0.90739 0.0
H939 H 0.26847 0.72687 0.92888 0.0
H940 H 0.32356 0.72811 0.92595 0.0
H941 H 0.20924 0.77918 0.84752 0.0
H942 H 0.21522 0.83423 0.84772 0.0
H943 H 0.18476 0.80897 0.86862 0.0
C944 C 0.81685 0.18088 0.3663 0.0
C945 C 0.81642 0.14723 0.3809 0.0
C946 C 0.78668 0.21174 0.36737 0.0
C947 C 0.75532 0.20932 0.3836 0.0
C948 C 0.75459 0.17537 0.39835 0.0
C949 C 0.78497 0.14468 0.39676 0.0
C950 C 0.78835 0.24698 0.35109 0.0
C951 C 0.72186 0.17164 0.41596 0.0
C952 C 0.69737 0.30781 0.39844 0.0
C953 C 0.66073 0.30308 0.38642 0.0
C954 C 0.72829 0.27749 0.39782 0.0
C955 C 0.72272 0.24174 0.38469 0.0
C956 C 0.68604 0.23711 0.37232 0.0
C957 C 0.65556 0.2676 0.37342 0.0
C958 C 0.76681 0.28355 0.41136 0.0
C959 C 0.67895 0.19986 0.35787 0.0
H960 H 0.84091 0.18323 0.35395 0.0
H961 H 0.78443 0.11901 0.40822 0.0
H962 H 0.75951 0.24819 0.3413 0.0
H963 H 0.79097 0.2765 0.36017 0.0
H964 H 0.81461 0.24435 0.33943 0.0
H965 H 0.72586 0.14375 0.42637 0.0
H966 H 0.72245 0.19906 0.42689 0.0
H967 H 0.69109 0.1705 0.40808 0.0
H968 H 0.70168 0.33494 0.4086 0.0
H969 H 0.62753 0.26356 0.36397 0.0
H970 H 0.79404 0.28351 0.40032 0.0
H971 H 0.77059 0.2577 0.4232 0.0
H972 H 0.76638 0.31279 0.42086 0.0
H973 H 0.70373 0.19731 0.34532 0.0
H974 H 0.64896 0.20103 0.3491 0.0
H975 H 0.67996 0.17158 0.36814 0.0
C976 C 0.23977 0.84545 0.13757 0.0
C977 C 0.20468 0.83995 0.1243 0.0
C978 C 0.27114 0.8158 0.13834 0.0
C979 C 0.26775 0.77965 0.12541 0.0
C980 C 0.23223 0.77361 0.11216 0.0
C981 C 0.20107 0.80369 0.11184 0.0
C982 C 0.30812 0.82335 0.15292 0.0
C983 C 0.22741 0.73559 0.09806 0.0
C984 C 0.36648 0.72153 0.11163 0.0
C985 C 0.36534 0.68889 0.12685 0.0
C986 C 0.33489 0.75109 0.11088 0.0
C987 C 0.3014 0.74825 0.12583 0.0
C988 C 0.30042 0.71574 0.14145 0.0
C989 C 0.33222 0.68648 0.14172 0.0
C990 C 0.33714 0.78516 0.09393 0.0
C991 C 0.26565 0.71175 0.15787 0.0
H992 H 0.24295 0.87319 0.14736 0.0
H993 H 0.17424 0.79912 0.10148 0.0
H994 H 0.3118 0.79777 0.16493 0.0
H995 H 0.33631 0.82429 0.14262 0.0
H996 H 0.30577 0.85261 0.16232 0.0
H997 H 0.19792 0.73529 0.08879 0.0
H998 H 0.25301 0.7336 0.08598 0.0
H999 H 0.22895 0.70776 0.10866 0.0
H1000 H 0.39173 0.72364 0.09998 0.0
H1001 H 0.33092 0.66148 0.15358 0.0
H1002 H 0.3371 0.81541 0.1024 0.0
H1003 H 0.30969 0.78419 0.08302 0.0
H1004 H 0.36505 0.78301 0.08341 0.0
H1005 H 0.26347 0.73997 0.16813 0.0
H1006 H 0.26956 0.68495 0.16909 0.0
H1007 H 0.23609 0.70845 0.14889 0.0
C1008 C 0.72408 0.15439 0.61472 0.0
C1009 C 0.69079 0.15643 0.62948 0.0
C1010 C 0.75385 0.18574 0.61396 0.0
C1011 C 0.75054 0.22 0.62839 0.0
C1012 C 0.71732 0.22196 0.64352 0.0
C1013 C 0.6879 0.19032 0.64383 0.0
C1014 C 0.78868 0.18239 0.59755 0.0
C1015 C 0.71273 0.25764 0.65934 0.0
C1016 C 0.84725 0.28217 0.64058 0.0
C1017 C 0.84245 0.3165 0.62667 0.0
C1018 C 0.81757 0.25083 0.64138 0.0
C1019 C 0.78207 0.25353 0.62787 0.0
C1020 C 0.77679 0.28825 0.61392 0.0
C1021 C 0.80693 0.31931 0.61352 0.0
C1022 C 0.82438 0.21463 0.65663 0.0
C1023 C 0.73947 0.29238 0.59922 0.0
H1024 H 0.72663 0.12852 0.60347 0.0
H1025 H 0.66239 0.19235 0.65531 0.0
H1026 H 0.78835 0.20924 0.58621 0.0
H1027 H 0.8185 0.18275 0.60646 0.0
H1028 H 0.78691 0.15391 0.58744 0.0
H1029 H 0.68539 0.25448 0.67021 0.0
H1030 H 0.74044 0.2602 0.66997 0.0
H1031 H 0.71002 0.28674 0.64986 0.0
H1032 H 0.87446 0.27954 0.65084 0.0
H1033 H 0.80286 0.34557 0.60267 0.0
H1034 H 0.82559 0.18585 0.6468 0.0
H1035 H 0.79832 0.21176 0.66838 0.0
H1036 H 0.85325 0.21738 0.66635 0.0
H1037 H 0.73791 0.26604 0.58757 0.0
H1038 H 0.73971 0.32131 0.58944 0.0
H1039 H 0.71118 0.29163 0.60945 0.0
C1040 C 0.59986 0.7669 0.11378 0.0
C1041 C 0.56227 0.75457 0.10448 0.0
C1042 C 0.61167 0.80824 0.11403 0.0
C1043 C 0.58504 0.83818 0.10502 0.0
C1044 C 0.54707 0.82613 0.09558 0.0
C1045 C 0.53619 0.78442 0.09537 0.0
C1046 C 0.6524 0.81994 0.12423 0.0
C1047 C 0.51778 0.85735 0.08591 0.0
C1048 C 0.59175 0.94773 0.12565 0.0
C1049 C 0.61094 0.96749 0.10779 0.0
C1050 C 0.58395 0.90548 0.12517 0.0
C1051 C 0.59601 0.88234 0.1064 0.0
C1052 C 0.61735 0.90166 0.08878 0.0
C1053 C 0.62455 0.94414 0.08968 0.0
C1054 C 0.56127 0.88599 0.14433 0.0
C1055 C 0.63101 0.8778 0.06861 0.0
H1056 H 0.61995 0.74432 0.12126 0.0
H1057 H 0.50738 0.7752 0.08792 0.0
H1058 H 0.67085 0.83791 0.11219 0.0
H1059 H 0.64727 0.83979 0.13894 0.0
H1060 H 0.67051 0.7927 0.12949 0.0
H1061 H 0.48977 0.84288 0.07886 0.0
H1062 H 0.50836 0.87948 0.09896 0.0
H1063 H 0.53323 0.87516 0.07263 0.0
H1064 H 0.58162 0.96575 0.13975 0.0
H1065 H 0.63895 0.95937 0.07572 0.0
H1066 H 0.57893 0.85954 0.15094 0.0
H1067 H 0.53128 0.87401 0.13847 0.0
H1068 H 0.55562 0.908 0.15809 0.0
H1069 H 0.64901 0.85044 0.07371 0.0
H1070 H 0.64997 0.89668 0.05718 0.0
H1071 H 0.60373 0.8666 0.05938 0.0
C1072 C 0.73839 0.51994 0.5885 0.0
C1073 C 0.76226 0.5019 0.60522 0.0
C1074 C 0.69767 0.5315 0.59244 0.0
C1075 C 0.68047 0.52533 0.61375 0.0
C1076 C 0.70406 0.5061 0.63059 0.0
C1077 C 0.74474 0.4943 0.62606 0.0
C1078 C 0.67336 0.55116 0.57387 0.0
C1079 C 0.68677 0.49923 0.65353 0.0
C1080 C 0.59181 0.59767 0.62515 0.0
C1081 C 0.558 0.5731 0.61969 0.0
C1082 C 0.63184 0.58175 0.62463 0.0
C1083 C 0.63818 0.54034 0.61829 0.0
C1084 C 0.60403 0.51485 0.61377 0.0
C1085 C 0.56435 0.53152 0.61456 0.0
C1086 C 0.66745 0.60983 0.62978 0.0
C1087 C 0.60947 0.47067 0.60675 0.0
H1088 H 0.75184 0.52522 0.5723 0.0
H1089 H 0.76337 0.48059 0.63901 0.0
H1090 H 0.64437 0.53405 0.5711 0.0
H1091 H 0.66497 0.58305 0.57852 0.0
H1092 H 0.69072 0.55208 0.55801 0.0
H1093 H 0.70822 0.48181 0.66436 0.0
H1094 H 0.68018 0.52928 0.66145 0.0
H1095 H 0.65732 0.48226 0.6525 0.0
H1096 H 0.58692 0.62965 0.62936 0.0
H1097 H 0.53849 0.51243 0.61 0.0
H1098 H 0.68499 0.61597 0.61434 0.0
H1099 H 0.68874 0.59496 0.64171 0.0
H1100 H 0.65722 0.63967 0.63681 0.0
H1101 H 0.62267 0.46964 0.58978 0.0
H1102 H 0.57995 0.45362 0.60664 0.0
H1103 H 0.63123 0.45463 0.61797 0.0
C1104 C 0.90388 0.59777 0.12736 0.0
C1105 C 0.92651 0.56109 0.12743 0.0
C1106 C 0.92332 0.63599 0.12492 0.0
C1107 C 0.96656 0.6377 0.12275 0.0
C1108 C 0.98984 0.60114 0.12438 0.0
C1109 C 0.96958 0.56331 0.12658 0.0
C1110 C 0.89732 0.67427 0.12327 0.0
C1111 C 0.03603 0.60162 0.12238 0.0
C1112 C 0.0075 0.72404 0.08685 0.0
C1113 C 0.01976 0.7532 0.10267 0.0
C1114 C 0.99089 0.68617 0.09322 0.0
C1115 C 0.98672 0.67684 0.11607 0.0
C1116 C 1.00057 0.70534 0.13219 0.0
C1117 C 0.01687 0.74329 0.1253 0.0
C1118 C 0.97683 0.65656 0.07543 0.0
C1119 C 0.99717 0.69619 0.15669 0.0
H1120 H 0.87073 0.59649 0.12843 0.0
H1121 H 0.98766 0.53545 0.1264 0.0
H1122 H 0.90929 0.69847 0.1345 0.0
H1123 H 0.89877 0.68647 0.10608 0.0
H1124 H 0.86467 0.66833 0.12748 0.0
H1125 H 0.04994 0.57191 0.12747 0.0
H1126 H 0.04469 0.60775 0.10488 0.0
H1127 H 0.04937 0.6265 0.13269 0.0
H1128 H 0.01051 0.73105 0.06935 0.0
H1129 H 0.02607 0.76568 0.13763 0.0
H1130 H 0.94345 0.65066 0.07719 0.0
H1131 H 0.99281 0.62668 0.07734 0.0
H1132 H 0.98267 0.66833 0.05841 0.0
H1133 H 0.96436 0.69427 0.16146 0.0
H1134 H 0.01219 0.72009 0.16705 0.0
H1135 H 0.01132 0.66599 0.16049 0.0
C1136 C 0.79006 0.98641 0.61188 0.0
C1137 C 0.76032 0.96332 0.60068 0.0
C1138 C 0.83135 0.97401 0.61197 0.0
C1139 C 0.84301 0.93802 0.60032 0.0
C1140 C 0.81328 0.91556 0.58828 0.0
C1141 C 0.77224 0.92835 0.58874 0.0
C1142 C 0.8624 0.99899 0.62477 0.0
C1143 C 0.82475 0.87773 0.57518 0.0
C1144 C 0.95542 0.92485 0.58576 0.0
C1145 C 0.96873 0.89842 0.6026 0.0
C1146 C 0.91454 0.93803 0.58478 0.0
C1147 C 0.88628 0.92369 0.60084 0.0
C1148 C 0.89952 0.896 0.61757 0.0
C1149 C 0.94088 0.88389 0.61833 0.0
C1150 C 0.90202 0.96764 0.56672 0.0
C1151 C 0.87031 0.88026 0.63503 0.0
H1152 H 0.78075 0.01328 0.62122 0.0
H1153 H 0.74924 0.91087 0.57981 0.0
H1154 H 0.87675 0.97971 0.63784 0.0
H1155 H 0.88727 0.00931 0.6135 0.0
H1156 H 0.84844 0.02641 0.63274 0.0
H1157 H 0.798 0.86409 0.56643 0.0
H1158 H 0.84857 0.88554 0.56272 0.0
H1159 H 0.83806 0.85423 0.58643 0.0
H1160 H 0.97762 0.93638 0.57388 0.0
H1161 H 0.95185 0.86411 0.63154 0.0
H1162 H 0.88081 0.99154 0.57307 0.0
H1163 H 0.88577 0.95054 0.55342 0.0
H1164 H 0.9291 0.98316 0.55933 0.0
H1165 H 0.85814 0.90638 0.64487 0.0
H1166 H 0.88523 0.85814 0.64654 0.0
H1167 H 0.84372 0.86495 0.62702 0.0
C1168 C 0.60857 0.5785 0.90773 0.0
C1169 C 0.60637 0.55553 0.8881 0.0
C1170 C 0.591 0.61775 0.90903 0.0
C1171 C 0.57135 0.63465 0.89011 0.0
C1172 C 0.57059 0.61224 0.86997 0.0
C1173 C 0.58772 0.57269 0.8693 0.0
C1174 C 0.59222 0.64053 0.93088 0.0
C1175 C 0.55067 0.62955 0.84935 0.0
C1176 C 0.49059 0.71575 0.9023 0.0
C1177 C 0.51373 0.75169 0.90056 0.0
C1178 C 0.50862 0.67728 0.89822 0.0
C1179 C 0.55045 0.67515 0.8918 0.0
C1180 C 0.57311 0.71179 0.88874 0.0
C1181 C 0.55457 0.74964 0.8935 0.0
C1182 C 0.48368 0.63889 0.9021 0.0
C1183 C 0.61739 0.71093 0.88141 0.0
H1184 H 0.62212 0.56483 0.92242 0.0
H1185 H 0.58583 0.55462 0.85421 0.0
H1186 H 0.60932 0.66973 0.92888 0.0
H1187 H 0.56062 0.64854 0.93621 0.0
H1188 H 0.60708 0.6223 0.94426 0.0
H1189 H 0.55563 0.60966 0.8346 0.0
H1190 H 0.51717 0.63286 0.85206 0.0
H1191 H 0.563 0.6606 0.84575 0.0
H1192 H 0.45916 0.71773 0.90809 0.0
H1193 H 0.5722 0.77777 0.89227 0.0
H1194 H 0.49668 0.62162 0.91636 0.0
H1195 H 0.48521 0.61847 0.88738 0.0
H1196 H 0.45097 0.64585 0.90568 0.0
H1197 H 0.63675 0.69804 0.89488 0.0
H1198 H 0.62902 0.74206 0.87725 0.0
H1199 H 0.62108 0.69079 0.86669 0.0
C1200 C 0.77768 0.49788 0.41974 0.0
C1201 C 0.747 0.48915 0.4041 0.0
C1202 C 0.81548 0.51433 0.41327 0.0
C1203 C 0.8231 0.52197 0.39051 0.0
C1204 C 0.793 0.51163 0.37447 0.0
C1205 C 0.75516 0.49538 0.38147 0.0
C1206 C 0.84687 0.52455 0.43094 0.0
C1207 C 0.80031 0.51881 0.35004 0.0
C1208 C 0.90394 0.60408 0.38304 0.0
C1209 C 0.93988 0.58042 0.38196 0.0
C1210 C 0.86518 0.58545 0.3842 0.0
C1211 C 0.86223 0.54208 0.38397 0.0
C1212 C 0.89797 0.51814 0.38083 0.0
C1213 C 0.93638 0.53754 0.38 0.0
C1214 C 0.82776 0.61214 0.38745 0.0
C1215 C 0.8961 0.47183 0.38014 0.0
H1216 H 0.77193 0.49222 0.43718 0.0
H1217 H 0.73151 0.48886 0.36933 0.0
H1218 H 0.87609 0.50824 0.42753 0.0
H1219 H 0.85353 0.55796 0.43069 0.0
H1220 H 0.83635 0.51606 0.44788 0.0
H1221 H 0.77555 0.50553 0.33958 0.0
H1222 H 0.80204 0.55227 0.34672 0.0
H1223 H 0.83009 0.50523 0.34493 0.0
H1224 H 0.90622 0.63721 0.38399 0.0
H1225 H 0.96362 0.51862 0.37919 0.0
H1226 H 0.81651 0.60871 0.40474 0.0
H1227 H 0.80261 0.60241 0.3762 0.0
H1228 H 0.83443 0.64513 0.38443 0.0
H1229 H 0.89113 0.45985 0.39718 0.0
H1230 H 0.92492 0.45824 0.37357 0.0
H1231 H 0.87004 0.46129 0.36973 0.0
C1232 C 0.90004 0.93693 0.89555 0.0
C1233 C 0.89475 0.9595 0.91509 0.0
C1234 C 0.91056 0.89524 0.89624 0.0
C1235 C 0.91674 0.87589 0.91705 0.0
C1236 C 0.91068 0.89842 0.93692 0.0
C1237 C 0.8994 0.94003 0.93569 0.0
C1238 C 0.9161 0.8722 0.87468 0.0
C1239 C 0.91772 0.87909 0.95938 0.0
C1240 C 0.91313 0.75967 0.91543 0.0
C1241 C 0.95475 0.74955 0.91279 0.0
C1242 C 0.90044 0.80057 0.91778 0.0
C1243 C 0.93011 0.83223 0.91775 0.0
C1244 C 0.97234 0.82217 0.91634 0.0
C1245 C 0.98416 0.78093 0.9138 0.0
C1246 C 0.85514 0.81002 0.91929 0.0
C1247 C 0.00493 0.85511 0.91652 0.0
H1248 H 0.89666 0.95235 0.8797 0.0
H1249 H 0.89621 0.95791 0.95076 0.0
H1250 H 0.94837 0.8617 0.87314 0.0
H1251 H 0.89635 0.84445 0.8745 0.0
H1252 H 0.90844 0.89134 0.85997 0.0
H1253 H 0.90908 0.89997 0.97321 0.0
H1254 H 0.89986 0.85025 0.96092 0.0
H1255 H 0.95063 0.87094 0.96121 0.0
H1256 H 0.89024 0.73561 0.9153 0.0
H1257 H 0.01633 0.77349 0.91174 0.0
H1258 H 0.84526 0.827 0.90423 0.0
H1259 H 0.84885 0.83004 0.9338 0.0
H1260 H 0.83621 0.78178 0.92077 0.0
H1261 H 0.00265 0.87367 0.90112 0.0
H1262 H 0.03638 0.84205 0.91758 0.0
H1263 H 1.0002 0.87624 0.93074 0.0
C1264 C 0.55979 0.91432 0.38244 0.0
C1265 C 0.54123 0.89536 0.40075 0.0
C1266 C 0.60164 0.92415 0.38256 0.0
C1267 C 0.6257 0.91446 0.40143 0.0
C1268 C 0.60748 0.89412 0.41973 0.0
C1269 C 0.56537 0.88485 0.41919 0.0
C1270 C 0.61984 0.94593 0.36273 0.0
C1271 C 0.63219 0.88316 0.4401 0.0
C1272 C 0.74071 0.91027 0.39214 0.0
C1273 C 0.75369 0.94856 0.40033 0.0
C1274 C 0.6994 0.89839 0.39298 0.0
C1275 C 0.66995 0.92569 0.40185 0.0
C1276 C 0.68256 0.96436 0.41017 0.0
C1277 C 0.72429 0.97523 0.40944 0.0
C1278 C 0.68719 0.85677 0.38407 0.0
C1279 C 0.65192 0.99443 0.41963 0.0
H1280 H 0.54116 0.92231 0.36816 0.0
H1281 H 0.55104 0.87093 0.43356 0.0
H1282 H 0.6323 0.97616 0.36791 0.0
H1283 H 0.64576 0.92783 0.35589 0.0
H1284 H 0.59696 0.95098 0.34931 0.0
H1285 H 0.61406 0.86513 0.4523 0.0
H1286 H 0.65971 0.86511 0.43534 0.0
H1287 H 0.64314 0.9116 0.44833 0.0
H1288 H 0.76265 0.88955 0.38468 0.0
H1289 H 0.73378 0.00459 0.4161 0.0
H1290 H 0.66651 0.86059 0.36957 0.0
H1291 H 0.66998 0.8394 0.39689 0.0
H1292 H 0.71412 0.8382 0.37886 0.0
H1293 H 0.6281 1.00167 0.40703 0.0
H1294 H 0.66656 0.02357 0.42504 0.0
H1295 H 0.63607 0.98053 0.43407 0.0
C1296 C 0.46888 0.23114 0.91903 0.0
C1297 C 0.48472 0.25568 0.90195 0.0
C1298 C 0.45515 0.19113 0.91489 0.0
C1299 C 0.45698 0.17527 0.89303 0.0
C1300 C 0.47346 0.19965 0.87571 0.0
C1301 C 0.48741 0.23959 0.88042 0.0
C1302 C 0.43844 0.16593 0.93392 0.0
C1303 C 0.47571 0.18378 0.85219 0.0
C1304 C 0.45285 0.05917 0.88985 0.0
C1305 C 0.41079 0.05216 0.8865 0.0
C1306 C 0.46863 0.09914 0.89102 0.0
C1307 C 0.44177 0.13299 0.8886 0.0
C1308 C 0.39959 0.12613 0.88421 0.0
C1309 C 0.38454 0.08573 0.8834 0.0
C1310 C 0.51363 0.10508 0.89613 0.0
C1311 C 0.37004 0.16146 0.88136 0.0
H1312 H 0.46738 0.2433 0.93576 0.0
H1313 H 0.49933 0.25866 0.86717 0.0
H1314 H 0.40581 0.15818 0.93074 0.0
H1315 H 0.45552 0.13658 0.9353 0.0
H1316 H 0.44051 0.18231 0.95006 0.0
H1317 H 0.48977 0.20639 0.84067 0.0
H1318 H 0.49391 0.155 0.85166 0.0
H1319 H 0.44441 0.17629 0.84615 0.0
H1320 H 0.47323 0.03344 0.89273 0.0
H1321 H 0.35208 0.08028 0.88079 0.0
H1322 H 0.51709 0.11898 0.91286 0.0
H1323 H 0.52768 0.12654 0.88403 0.0
H1324 H 0.53096 0.07569 0.89581 0.0
H1325 H 0.36643 0.17781 0.8974 0.0
H1326 H 0.33929 0.15106 0.8757 0.0
H1327 H 0.38226 0.18389 0.86917 0.0
C1328 C 0.25311 0.48599 0.38019 0.0
C1329 C 0.25224 0.50971 0.39962 0.0
C1330 C 0.28881 0.4646 0.37398 0.0
C1331 C 0.32431 0.46734 0.3875 0.0
C1332 C 0.32407 0.49301 0.40648 0.0
C1333 C 0.28805 0.51377 0.4123 0.0
C1334 C 0.28782 0.43749 0.35367 0.0
C1335 C 0.3614 0.49728 0.42121 0.0
C1336 C 0.40352 0.38368 0.39455 0.0
C1337 C 0.43776 0.40086 0.38382 0.0
C1338 C 0.36523 0.40337 0.39424 0.0
C1339 C 0.36097 0.44138 0.38311 0.0
C1340 C 0.39407 0.45699 0.37053 0.0
C1341 C 0.43185 0.43625 0.37077 0.0
C1342 C 0.33026 0.38506 0.40737 0.0
C1343 C 0.39068 0.49729 0.35826 0.0
H1344 H 0.22534 0.48262 0.37045 0.0
H1345 H 0.28757 0.53268 0.4271 0.0
H1346 H 0.31582 0.44191 0.34349 0.0
H1347 H 0.28716 0.40483 0.35891 0.0
H1348 H 0.26042 0.44356 0.34317 0.0
H1349 H 0.35697 0.52063 0.43445 0.0
H1350 H 0.36834 0.46737 0.42922 0.0
H1351 H 0.38857 0.50601 0.41118 0.0
H1352 H 0.40672 0.35599 0.40428 0.0
H1353 H 0.45717 0.44908 0.36149 0.0
H1354 H 0.30135 0.38612 0.39764 0.0
H1355 H 0.32541 0.40333 0.4227 0.0
H1356 H 0.33641 0.35272 0.41222 0.0
H1357 H 0.41647 0.50188 0.34647 0.0
H1358 H 0.39098 0.52289 0.37043 0.0
H1359 H 0.36132 0.49914 0.34897 0.0
C1360 C 0.00894 0.28578 0.91585 0.0
C1361 C 0.03712 0.2533 0.91543 0.0
C1362 C 0.02214 0.32622 0.9197 0.0
C1363 C 0.06443 0.33409 0.92324 0.0
C1364 C 0.09244 0.30101 0.92447 0.0
C1365 C 0.07841 0.26102 0.92056 0.0
C1366 C 0.99128 0.36074 0.91846 0.0
C1367 C 0.13768 0.30805 0.92838 0.0
C1368 C 0.10254 0.43566 0.90086 0.0
C1369 C 0.10504 0.45945 0.92012 0.0
C1370 C 0.09046 0.39449 0.9018 0.0
C1371 C 0.0801 0.37689 0.92256 0.0
C1372 C 0.0838 0.40048 0.94223 0.0
C1373 C 0.09645 0.44163 0.94077 0.0
C1374 C 0.08727 0.37033 0.88045 0.0
C1375 C 0.07278 0.3828 0.96461 0.0
H1376 H 0.97703 0.27988 0.91193 0.0
H1377 H 0.1001 0.2358 0.92085 0.0
H1378 H 0.99533 0.38214 0.93262 0.0
H1379 H 0.99628 0.37858 0.90299 0.0
H1380 H 0.95918 0.34925 0.91848 0.0
H1381 H 0.15438 0.27895 0.93176 0.0
H1382 H 0.15137 0.3226 0.91346 0.0
H1383 H 0.14251 0.32929 0.94253 0.0
H1384 H 0.10874 0.44996 0.88495 0.0
H1385 H 0.09741 0.46057 0.95556 0.0
H1386 H 0.05489 0.36125 0.87755 0.0
H1387 H 0.10565 0.34173 0.88166 0.0
H1388 H 0.09808 0.38815 0.86584 0.0
H1389 H 0.03981 0.37432 0.96485 0.0
H1390 H 0.0787 0.40478 0.97836 0.0
H1391 H 0.09057 0.35432 0.96772 0.0
C1392 C 0.24123 0.09067 0.40387 0.0
C1393 C 0.25187 0.05023 0.40966 0.0
C1394 C 0.20017 0.10335 0.40305 0.0
C1395 C 0.16874 0.07478 0.40776 0.0
C1396 C 0.17907 0.03377 0.41337 0.0
C1397 C 0.22054 0.02211 0.41444 0.0
C1398 C 0.19042 0.14729 0.39692 0.0
C1399 C 0.14664 1.0022 0.41873 0.0
C1400 C 0.06188 0.11297 0.42254 0.0
C1401 C 0.04125 0.10798 0.40229 0.0
C1402 C 0.10366 0.10286 0.42454 0.0
C1403 C 0.12507 0.08751 0.40584 0.0
C1404 C 0.10464 0.08377 0.38519 0.0
C1405 C 0.06305 0.09421 0.38368 0.0
C1406 C 0.12452 0.10723 0.4468 0.0
C1407 C 0.12622 0.06697 0.36495 0.0
H1408 H 0.26498 0.11252 0.39967 0.0
H1409 H 0.22836 0.99105 0.41928 0.0
H1410 H 0.17249 0.14806 0.38125 0.0
H1411 H 0.17119 0.16161 0.41 0.0
H1412 H 0.2185 0.16616 0.39468 0.0
H1413 H 0.15854 0.9704 0.41689 0.0
H1414 H 0.13686 0.00629 0.43622 0.0
H1415 H 0.11917 0.00571 0.40799 0.0
H1416 H 0.04489 0.12278 0.43706 0.0
H1417 H 0.04697 0.09028 0.36806 0.0
H1418 H 0.15168 0.12756 0.44526 0.0
H1419 H 0.13571 0.07681 0.45251 0.0
H1420 H 0.10368 0.12002 0.45966 0.0
H1421 H 0.15416 0.08524 0.36135 0.0
H1422 H 0.10624 0.06712 0.34999 0.0
H1423 H 0.13622 0.03493 0.3682 0.0
C1424 C 0.41028 0.26681 0.10958 0.0
C1425 C 0.44903 0.25539 0.10142 0.0
C1426 C 0.39786 0.30795 0.10997 0.0
C1427 C 0.42505 0.33859 0.10232 0.0
C1428 C 0.46419 0.32747 0.09405 0.0
C1429 C 0.47568 0.28593 0.09364 0.0
C1430 C 0.35587 0.31868 0.11889 0.0
C1431 C 0.49409 0.35949 0.08587 0.0
C1432 C 0.3866 0.44506 0.0873 0.0
C1433 C 0.39819 0.46743 0.10616 0.0
C1434 C 0.39398 0.40265 0.08604 0.0
C1435 C 0.4134 0.38248 0.10405 0.0
C1436 C 0.42312 0.4046 0.12357 0.0
C1437 C 0.4152 0.44678 0.1244 0.0
C1438 C 0.3828 0.37985 0.06506 0.0
C1439 C 0.44371 0.38417 0.14316 0.0
H1440 H 0.38972 0.24367 0.11605 0.0
H1441 H 0.50541 0.27738 0.08709 0.0
H1442 H 0.35903 0.33767 0.13409 0.0
H1443 H 0.33866 0.33722 0.10653 0.0
H1444 H 0.33752 0.29098 0.12302 0.0
H1445 H 0.52304 0.34571 0.0796 0.0
H1446 H 0.47993 0.37782 0.07235 0.0
H1447 H 0.5017 0.38104 0.09955 0.0
H1448 H 0.37391 0.46106 0.07309 0.0
H1449 H 0.4238 0.46415 0.13903 0.0
H1450 H 0.36488 0.35187 0.0691 0.0
H1451 H 0.41118 0.36974 0.05649 0.0
H1452 H 0.36463 0.39914 0.05343 0.0
H1453 H 0.42571 0.35711 0.14863 0.0
H1454 H 0.44734 0.40537 0.15749 0.0
H1455 H 0.47453 0.37294 0.13821 0.0
C1456 C 0.25446 0.45694 0.61 0.0
C1457 C 0.24774 0.49569 0.60042 0.0
C1458 C 0.22152 0.43017 0.61432 0.0
C1459 C 0.18109 0.44241 0.60877 0.0
C1460 C 0.17414 0.48167 0.5994 0.0
C1461 C 0.20742 0.50781 0.59552 0.0
C1462 C 0.22997 0.38868 0.62451 0.0
C1463 C 0.13145 0.4961 0.59334 0.0
C1464 C 0.09214 0.37209 0.59579 0.0
C1465 C 0.06665 0.37933 0.61411 0.0
C1466 C 0.13146 0.38954 0.59466 0.0
C1467 C 0.14553 0.41459 0.61233 0.0
C1468 C 0.12149 0.41856 0.63178 0.0
C1469 C 0.08225 0.40095 0.63239 0.0
C1470 C 0.15603 0.38464 0.57359 0.0
C1471 C 0.13549 0.44454 0.65111 0.0
H1472 H 0.28548 0.4472 0.61374 0.0
H1473 H 0.20167 0.53802 0.5887 0.0
H1474 H 0.21105 0.38445 0.63965 0.0
H1475 H 0.22119 0.36411 0.61266 0.0
H1476 H 0.26281 0.38468 0.62899 0.0
H1477 H 0.13151 0.52684 0.58533 0.0
H1478 H 0.1168 0.47391 0.58182 0.0
H1479 H 0.1121 0.49766 0.60846 0.0
H1480 H 0.08016 0.35569 0.58155 0.0
H1481 H 0.06267 0.40614 0.64666 0.0
H1482 H 0.18888 0.37915 0.57739 0.0
H1483 H 0.15401 0.41339 0.56374 0.0
H1484 H 0.14444 0.35894 0.56319 0.0
H1485 H 0.16836 0.43893 0.65486 0.0
H1486 H 0.11714 0.43846 0.6663 0.0
H1487 H 0.13213 0.47749 0.64677 0.0
C1488 C 0.98052 0.21102 0.09829 0.0
C1489 C 0.99063 0.24804 0.10881 0.0
C1490 C 0.00246 0.17488 0.1027 0.0
C1491 C 0.03572 0.17585 0.11784 0.0
C1492 C 0.04513 0.21281 0.12917 0.0
C1493 C 0.02223 0.24849 0.12462 0.0
C1494 C 0.99097 0.13601 0.09049 0.0
C1495 C 0.08062 0.21518 0.14524 0.0
C1496 C 0.07424 0.0711 0.13633 0.0
C1497 C 0.1049 0.06315 0.12052 0.0
C1498 C 0.05261 0.10844 0.13638 0.0
C1499 C 0.06218 0.13882 0.12039 0.0
C1500 C 0.09473 0.13201 0.10527 0.0
C1501 C 0.11554 0.09428 0.10545 0.0
C1502 C 0.01801 0.1144 0.15272 0.0
C1503 C 0.10607 0.16365 0.08799 0.0
H1504 H 0.95571 0.21055 0.0863 0.0
H1505 H 0.03026 0.27719 0.13262 0.0
H1506 H 0.01622 0.12704 0.07913 0.0
H1507 H 0.98656 0.11043 0.10242 0.0
H1508 H 0.96247 0.13966 0.08054 0.0
H1509 H 0.08152 0.24496 0.15423 0.0
H1510 H 0.07881 0.18993 0.15757 0.0
H1511 H 0.10987 0.21135 0.13605 0.0
H1512 H 0.06623 0.04752 0.14825 0.0
H1513 H 0.13871 0.08858 0.09297 0.0
H1514 H 0.9883 0.11444 0.14369 0.0
H1515 H 0.02087 0.14451 0.16118 0.0
H1516 H 0.01716 0.08977 0.16549 0.0
H1517 H 0.08119 0.16588 0.07545 0.0
H1518 H 0.13508 0.15581 0.07928 0.0
H1519 H 0.10948 0.19437 0.09574 0.0
C1520 C 0.44604 0.09233 0.62658 0.0
C1521 C 0.46649 0.11058 0.60866 0.0
C1522 C 0.40453 0.08155 0.62507 0.0
C1523 C 0.38288 0.08933 0.60513 0.0
C1524 C 0.40291 0.10917 0.58723 0.0
C1525 C 0.44458 0.11963 0.58922 0.0
C1526 C 0.38423 0.06064 0.64457 0.0
C1527 C 0.38077 0.118 0.56572 0.0
C1528 C 0.28811 0.02438 0.594 0.0
C1529 C 0.25659 0.051 0.60063 0.0
C1530 C 0.32942 0.03661 0.59511 0.0
C1531 C 0.33933 0.07636 0.60306 0.0
C1532 C 0.30767 0.1033 0.60978 0.0
C1533 C 0.26679 0.09025 0.60856 0.0
C1534 C 0.36247 0.00702 0.58782 0.0
C1535 C 0.317 0.14585 0.61841 0.0
H1536 H 0.46304 0.08546 0.64161 0.0
H1537 H 0.46048 0.13306 0.5752 0.0
H1538 H 0.3565 0.07797 0.64971 0.0
H1539 H 0.37406 0.02941 0.63967 0.0
H1540 H 0.4051 0.05788 0.6591 0.0
H1541 H 0.39994 0.13594 0.55396 0.0
H1542 H 0.37202 0.08867 0.55762 0.0
H1543 H 0.35205 0.13528 0.56899 0.0
H1544 H 0.28045 0.99422 0.58766 0.0
H1545 H 0.24277 0.11075 0.61415 0.0
H1546 H 0.38386 1.00096 0.6018 0.0
H1547 H 0.38073 0.02076 0.57417 0.0
H1548 H 0.34967 0.97729 0.58201 0.0
H1549 H 0.336 0.14373 0.63367 0.0
H1550 H 0.28874 0.16351 0.62232 0.0
H1551 H 0.33504 0.16325 0.60594 0.0
C1552 C 0.45504 0.93742 0.97482 0.0
C1553 C 0.45703 0.95484 0.95362 0.0
C1554 C 0.46703 0.95999 0.99363 0.0
C1555 C 0.47969 1.00141 0.99117 0.0
C1556 C 0.4808 0.01933 0.96974 0.0
C1557 C 0.47012 0.99554 0.95117 0.0
C1558 C 0.4668 0.93931 0.01608 0.0
C1559 C 0.49257 0.06375 0.96642 0.0
C1560 C 0.47231 0.06677 0.04334 0.0
C1561 C 0.51344 0.06918 0.04986 0.0
C1562 C 0.46106 0.04616 0.02377 0.0
C1563 C 0.49157 0.02595 0.01106 0.0
C1564 C 0.53326 0.02826 0.01774 0.0
C1565 C 0.54379 0.05057 0.0369 0.0
C1566 C 0.41653 0.04567 0.01683 0.0
C1567 C 0.56652 0.00606 0.00508 0.0
H1568 H 0.44528 0.90577 0.9766 0.0
H1569 H 0.47122 0.00902 0.93471 0.0
H1570 H 0.49771 0.9414 0.02377 0.0
H1571 H 0.44506 0.95522 0.02733 0.0
H1572 H 0.45791 0.90644 0.01502 0.0
H1573 H 0.49366 0.07236 0.94857 0.0
H1574 H 0.46998 0.08382 0.97492 0.0
H1575 H 0.52301 0.06999 0.97394 0.0
H1576 H 0.44897 0.08124 0.05351 0.0
H1577 H 0.57553 0.05203 0.04227 0.0
H1578 H 0.40443 0.01389 0.01764 0.0
H1579 H 0.4135 0.05618 0.99937 0.0
H1580 H 0.39719 0.06558 0.02755 0.0
H1581 H 0.59737 0.01075 0.01253 0.0
H1582 H 0.56724 0.01678 0.9876 0.0
H1583 H 0.55984 0.97264 1.00476 0.0
C1584 C 0.43488 0.493 0.54575 0.0
C1585 C 0.44019 0.53433 0.55155 0.0
C1586 C 0.45322 0.47667 0.52656 0.0
C1587 C 0.4789 0.50186 0.51335 0.0
C1588 C 0.48465 0.54361 0.51932 0.0
C1589 C 0.46457 0.55955 0.53814 0.0
C1590 C 0.44503 0.43249 0.5204 0.0
C1591 C 0.51265 0.57122 0.50608 0.0
C1592 C 0.55716 0.44744 0.47652 0.0
C1593 C 0.53966 0.45222 0.45542 0.0
C1594 C 0.53805 0.46399 0.49548 0.0
C1595 C 0.49981 0.48448 0.49335 0.0
C1596 C 0.48157 0.48834 0.47208 0.0
C1597 C 0.50202 0.4727 0.45335 0.0
C1598 C 0.55927 0.46046 0.5177 0.0
C1599 C 0.4402 0.50851 0.46908 0.0
H1600 H 0.41588 0.47353 0.55612 0.0
H1601 H 0.46908 0.59139 0.5428 0.0
H1602 H 0.43301 0.43074 0.50317 0.0
H1603 H 0.47402 0.41467 0.52088 0.0
H1604 H 0.4226 0.41768 0.53174 0.0
H1605 H 0.51482 0.60255 0.51328 0.0
H1606 H 0.54389 0.55769 0.50538 0.0
H1607 H 0.50138 0.57379 0.48875 0.0
H1608 H 0.58652 0.43202 0.47809 0.0
H1609 H 0.48831 0.4761 0.43703 0.0
H1610 H 0.53972 0.44314 0.52949 0.0
H1611 H 0.56408 0.4915 0.52485 0.0
H1612 H 0.58947 0.44476 0.51645 0.0
H1613 H 0.432 0.51221 0.45129 0.0
H1614 H 0.43966 0.53917 0.47708 0.0
H1615 H 0.41629 0.48953 0.47725 0.0
C1616 C 0.99282 0.46315 0.05458 0.0
C1617 C 0.95153 0.45526 0.05952 0.0
C1618 C 0.00389 0.48504 0.03537 0.0
C1619 C 0.97286 0.50039 0.02109 0.0
C1620 C 0.93108 0.49307 0.02625 0.0
C1621 C 0.92095 0.47016 0.04525 0.0
C1622 C 0.04878 0.49115 0.03015 0.0
C1623 C 0.89707 0.50956 0.01172 0.0
C1624 C 1.00145 0.58649 0.98097 0.0
C1625 C 0.00462 0.56508 0.96087 0.0
C1626 C 0.99052 0.56598 1.00069 0.0
C1627 C 0.98407 0.52288 1.00036 0.0
C1628 C 0.98818 0.50112 0.98012 0.0
C1629 C 0.99776 0.52258 0.9606 0.0
C1630 C 0.98567 0.59039 0.02185 0.0
C1631 C 0.98298 0.45507 0.97909 0.0
H1632 H 0.01655 0.4516 0.06557 0.0
H1633 H 0.88897 0.46456 0.04917 0.0
H1634 H 0.05606 0.47731 0.01378 0.0
H1635 H 0.05583 0.5244 0.02899 0.0
H1636 H 0.06913 0.47718 0.0429 0.0
H1637 H 0.86616 0.50295 0.01862 0.0
H1638 H 0.90039 0.54329 0.00977 0.0
H1639 H 0.89913 0.4958 0.99491 0.0
H1640 H 0.00695 0.61932 0.98119 0.0
H1641 H 1.00108 0.5058 0.94514 0.0
H1642 H 0.0079 0.57947 0.0345 0.0
H1643 H 0.95447 0.58569 0.02877 0.0
H1644 H 0.99054 0.6238 0.01919 0.0
H1645 H 0.00402 0.44001 0.9911 0.0
H1646 H 0.98926 0.44258 0.96226 0.0
H1647 H 0.95122 0.44664 0.98387 0.0
C1648 C 0.92835 0.99925 0.46977 0.0
C1649 C 0.94722 0.01027 0.44981 0.0
C1650 C 0.95194 0.99127 0.48888 0.0
C1651 C 0.99517 0.99658 0.48822 0.0
C1652 C 0.0141 0.00864 0.46807 0.0
C1653 C 0.98996 0.01446 0.44901 0.0
C1654 C 0.93026 0.97805 0.50979 0.0
C1655 C 0.05969 0.01646 0.46676 0.0
C1656 C 0.04848 0.01668 0.54346 0.0
C1657 C 0.06765 0.97892 0.54762 0.0
C1658 C 0.02559 0.02313 0.52398 0.0
C1659 C 0.02054 0.99053 0.50864 0.0
C1660 C 0.03963 0.95218 0.51288 0.0
C1661 C 0.06352 0.94703 0.53217 0.0
C1662 C 0.00667 0.06477 0.51987 0.0
C1663 C 0.03367 0.9162 0.49742 0.0
H1664 H 0.89523 0.99623 0.47034 0.0
H1665 H 0.00441 0.02373 0.43358 0.0
H1666 H 0.9485 0.955 0.51913 0.0
H1667 H 0.92585 0.00525 0.5206 0.0
H1668 H 0.89953 0.96487 0.50616 0.0
H1669 H 0.06912 0.02745 0.45007 0.0
H1670 H 0.06873 0.03983 0.47925 0.0
H1671 H 0.07686 0.98792 0.47062 0.0
H1672 H 0.05156 0.04134 0.55545 0.0
H1673 H 0.07767 0.91755 0.53559 0.0
H1674 H 0.97274 0.0623 0.52035 0.0
H1675 H 0.01523 0.07613 0.50313 0.0
H1676 H 0.01642 0.0878 0.53242 0.0
H1677 H 1.00045 0.90913 0.49593 0.0
H1678 H 0.04998 0.88823 0.50325 0.0
H1679 H 0.04491 0.92404 0.48056 0.0
C1680 C 0.5418 0.50037 0.95103 0.0
C1681 C 0.54739 0.45777 0.95195 0.0
C1682 C 0.53368 0.52313 0.97035 0.0
C1683 C 0.52968 0.50253 0.99097 0.0
C1684 C 0.53492 0.45929 0.99188 0.0
C1685 C 0.54455 0.43751 0.97238 0.0
C1686 C 0.52995 0.56925 0.96869 0.0
C1687 C 0.52933 0.43592 0.01332 0.0
C1688 C 0.54097 0.55962 0.04588 0.0
C1689 C 0.50007 0.56868 0.05103 0.0
C1690 C 0.55117 0.53931 0.02602 0.0
C1691 C 0.51952 0.52607 0.01154 0.0
C1692 C 0.47805 0.53482 0.01689 0.0
C1693 C 0.4689 0.55679 0.03637 0.0
C1694 C 0.59579 0.53202 0.02056 0.0
C1695 C 0.4433 0.5201 1.00233 0.0
H1696 H 0.54444 0.51598 0.93517 0.0
H1697 H 0.54848 0.40446 0.97296 0.0
H1698 H 0.50081 0.5799 0.97624 0.0
H1699 H 0.5554 0.58383 0.97807 0.0
H1700 H 0.53109 0.58013 0.95122 0.0
H1701 H 0.53314 0.40227 0.01108 0.0
H1702 H 0.55186 0.44661 0.02586 0.0
H1703 H 0.49826 0.44191 0.02015 0.0
H1704 H 0.56501 0.56891 0.05729 0.0
H1705 H 0.43721 0.5633 0.04061 0.0
H1706 H 0.60282 0.54429 1.0038 0.0
H1707 H 0.60226 0.49859 0.02022 0.0
H1708 H 0.61671 0.54667 0.03279 0.0
H1709 H 0.44619 0.53344 0.98546 0.0
H1710 H 0.41274 0.52848 0.00914 0.0
H1711 H 0.44485 0.48621 1.00055 0.0
C1712 C 0.03112 0.56279 0.46735 0.0
C1713 C 0.04839 0.53674 0.45138 0.0
C1714 C 0.01194 0.54674 0.48639 0.0
C1715 C 0.01126 0.50367 0.4899 0.0
C1716 C 0.02907 0.47731 0.47386 0.0
C1717 C 0.0468 0.49414 0.45463 0.0
C1718 C 0.99232 0.57587 0.50275 0.0
C1719 C 0.03021 0.43138 0.47725 0.0
C1720 C 0.9994 0.4687 0.54989 0.0
C1721 C 0.95839 0.45584 0.55043 0.0
C1722 C 0.01727 0.48317 0.53017 0.0
C1723 C 0.99308 0.48631 0.51066 0.0
C1724 C 0.95153 0.47331 0.51115 0.0
C1725 C 0.93487 0.45753 0.53097 0.0
C1726 C 0.06198 0.49533 0.53025 0.0
C1727 C 0.92437 0.4772 0.49093 0.0
H1728 H 0.03198 0.59573 0.46474 0.0
H1729 H 0.06039 0.47393 0.44236 0.0
H1730 H 0.95987 0.567 0.50561 0.0
H1731 H 0.00836 0.57397 0.51897 0.0
H1732 H 0.99319 0.60823 0.49692 0.0
H1733 H 0.04554 0.41515 0.4633 0.0
H1734 H 0.04679 0.42407 0.49287 0.0
H1735 H 0.99859 0.41922 0.47896 0.0
H1736 H 0.01766 0.46718 0.56495 0.0
H1737 H 0.903 0.44803 0.53148 0.0
H1738 H 0.06488 0.52874 0.52705 0.0
H1739 H 0.07859 0.4791 0.51677 0.0
H1740 H 0.07722 0.48823 0.5463 0.0
H1741 H 0.92272 0.50983 0.48568 0.0
H1742 H 0.89272 0.46593 0.49404 0.0
H1743 H 0.93759 0.45963 0.47687 0.0
C1744 C 0.06349 0.00557 0.05362 0.0
C1745 C 0.0662 0.96277 0.05206 0.0
C1746 C 0.05181 0.02937 0.0352 0.0
C1747 C 0.04066 0.00959 0.01511 0.0
C1748 C 0.04329 0.96618 0.01357 0.0
C1749 C 0.05697 0.94333 0.03197 0.0
C1750 C 0.05095 0.07555 0.0374 0.0
C1751 C 0.03033 0.94375 0.99275 0.0
C1752 C 0.96869 0.06538 0.97538 0.0
C1753 C 0.99521 0.07528 0.95791 0.0
C1754 C 0.9831 0.04418 0.99418 0.0
C1755 C 0.02532 0.03403 0.99584 0.0
C1756 C 0.05251 0.04578 0.97863 0.0
C1757 C 0.03695 0.06547 0.95964 0.0
C1758 C 0.95285 0.0311 0.01179 0.0
C1759 C 0.09793 0.03702 0.98014 0.0
H1760 H 0.07074 0.02044 0.06926 0.0
H1761 H 0.05884 0.91015 0.03092 0.0
H1762 H 0.066 0.09018 0.02289 0.0
H1763 H 0.01869 0.08639 0.03781 0.0
H1764 H 0.06652 0.08618 0.05279 0.0
H1765 H 0.03341 0.9099 0.99441 0.0
H1766 H 0.99786 0.95111 0.98881 0.0
H1767 H 0.04913 0.95399 0.97845 0.0
H1768 H 0.93627 0.0724 0.97384 0.0
H1769 H 0.05742 0.07322 0.94608 0.0
H1770 H 0.96195 0.04378 0.02815 0.0
H1771 H 0.953 0.99713 0.0133 0.0
H1772 H 0.92108 0.04135 0.00799 0.0
H1773 H 0.11027 0.04842 0.99618 0.0
H1774 H 0.11539 0.05152 0.96638 0.0
H1775 H 0.10332 0.00341 0.97962 0.0
C1776 C 0.49107 0.97807 0.45693 0.0
C1777 C 0.44827 0.98115 0.45814 0.0
C1778 C 0.5156 0.98459 0.47576 0.0
C1779 C 0.49687 0.9962 0.49604 0.0
C1780 C 0.45351 0.99977 0.49723 0.0
C1781 C 0.42961 0.99131 0.47831 0.0
C1782 C 0.56148 0.97888 0.47392 0.0
C1783 C 0.43246 0.01317 0.51836 0.0
C1784 C 0.55287 0.98239 0.55098 0.0
C1785 C 0.56931 0.02161 0.55442 0.0
C1786 C 0.53023 0.97336 0.53173 0.0
C1787 C 0.52262 0.00476 0.51597 0.0
C1788 C 0.53922 0.04448 0.51942 0.0
C1789 C 0.56295 0.05225 0.53846 0.0
C1790 C 0.51429 0.93029 0.52832 0.0
C1791 C 0.53089 0.07907 0.50333 0.0
H1792 H 0.50531 0.96969 0.44129 0.0
H1793 H 0.39646 0.99379 0.47909 0.0
H1794 H 0.57275 0.95843 0.48735 0.0
H1795 H 0.57058 0.96552 0.45767 0.0
H1796 H 0.57709 0.00891 0.4759 0.0
H1797 H 0.39866 0.01575 0.51632 0.0
H1798 H 0.43896 0.99095 0.53187 0.0
H1799 H 0.44464 0.0434 0.52375 0.0
H1800 H 0.55787 0.95869 0.56334 0.0
H1801 H 0.57515 0.08277 0.54131 0.0
H1802 H 0.52428 0.91846 0.5119 0.0
H1803 H 0.48025 0.93043 0.52835 0.0
H1804 H 0.52511 0.90881 0.54142 0.0
H1805 H 0.54242 0.07089 0.48659 0.0
H1806 H 0.54552 0.10831 0.50859 0.0
H1807 H 0.4973 0.08409 0.50185 0.0
loop_
_geom_bond_atom_site_label_1
_geom_bond_atom_site_label_2
_geom_bond_distance
_geom_bond_site_symmetry_2
_ccdc_geom_bond_type
Co0 N4 2.148 . S
Co0 N10 2.128 . S
Co0 N20 2.194 . S
Co0 O25 2.351 . S
Co0 O26 2.155 . S
Co0 O27 2.096 . S
C1 N4 1.301 . S
C1 N5 1.328 1_545 S
C1 H6 0.930 . S
C2 C3 1.333 . S
C2 N4 1.317 . S
C2 H7 0.930 . S
C3 C2 1.333 . S
C3 N5 1.350 1_545 S
C3 H29 0.931 . S
N4 Co0 2.148 . S
N4 C1 1.301 . S
N4 C2 1.317 . S
N5 C1 1.328 1_565 S
N5 C3 1.350 1_565 S
H6 C1 0.930 . S
H7 C2 0.930 . S
C8 O9 1.224 . S
C8 O27 1.247 . S
O9 C8 1.224 . S
N10 Co0 2.128 . S
N10 C11 1.355 . S
N10 C13 1.311 . S
C11 N10 1.355 . S
C11 C12 1.363 . S
C11 H23 0.929 . S
C12 C11 1.363 . S
C12 N14 1.375 . S
C12 H30 0.931 . S
C13 N10 1.311 . S
C13 N14 1.347 . S
C13 H24 0.929 . S
N14 C12 1.375 . S
N14 C13 1.347 . S
C15 C18 1.365 . S
C15 N20 1.328 . S
C15 H21 0.929 . S
C16 C17 1.362 . S
C16 C19 1.378 . S
C16 H31 0.929 . S
C17 C16 1.362 . S
C17 C18 1.366 . S
C18 C15 1.365 . S
C18 C17 1.366 . S
C18 H32 0.930 . S
C19 C16 1.378 . S
C19 N20 1.315 . S
C19 H22 0.930 . S
N20 Co0 2.194 . S
N20 C15 1.328 . S
N20 C19 1.315 . S
H21 C15 0.929 . S
H22 C19 0.930 . S
H23 C11 0.929 . S
H24 C13 0.929 . S
O25 Co0 2.351 . S
O25 C28 1.244 . S
O26 Co0 2.155 . S
O26 C28 1.240 . S
O27 Co0 2.096 . S
O27 C8 1.247 . S
C28 O25 1.244 . S
C28 O26 1.240 . S
H29 C3 0.931 . S
H30 C12 0.931 . S
H31 C16 0.929 . S
H32 C18 0.930 . S
Co33 N37 2.148 . S
Co33 N43 2.128 . S
Co33 N53 2.194 . S
Co33 O58 2.351 . S
Co33 O59 2.155 . S
Co33 O60 2.096 . S
C34 N37 1.301 . S
C34 N38 1.328 . S
C34 H39 0.930 . S
C35 C36 1.333 . S
C35 N37 1.317 . S
C35 H40 0.930 . S
C36 C35 1.333 . S
C36 N38 1.350 . S
C36 H62 0.931 . S
N37 Co33 2.148 . S
N37 C34 1.301 . S
N37 C35 1.317 . S
N38 C34 1.328 . S
N38 C36 1.350 . S
H39 C34 0.930 . S
H40 C35 0.930 . S
C41 O42 1.224 . S
C41 O60 1.247 . S
O42 C41 1.224 . S
N43 Co33 2.128 . S
N43 C44 1.355 . S
N43 C46 1.311 . S
C44 N43 1.355 . S
C44 C45 1.363 . S
C44 H56 0.929 . S
C45 C44 1.363 . S
C45 N47 1.375 . S
C45 H63 0.931 . S
C46 N43 1.311 . S
C46 N47 1.347 . S
C46 H57 0.929 . S
N47 C45 1.375 . S
N47 C46 1.347 . S
C48 C51 1.365 . S
C48 N53 1.328 . S
C48 H54 0.929 . S
C49 C50 1.362 . S
C49 C52 1.378 . S
C49 H64 0.929 . S
C50 C49 1.362 . S
C50 C51 1.366 . S
C51 C48 1.365 . S
C51 C50 1.366 . S
C51 H65 0.930 . S
C52 C49 1.378 . S
C52 N53 1.315 . S
C52 H55 0.930 . S
N53 Co33 2.194 . S
N53 C48 1.328 . S
N53 C52 1.315 . S
H54 C48 0.929 . S
H55 C52 0.930 . S
H56 C44 0.929 . S
H57 C46 0.929 . S
O58 Co33 2.351 . S
O58 C61 1.244 . S
O59 Co33 2.155 . S
O59 C61 1.240 . S
O60 Co33 2.096 . S
O60 C41 1.247 . S
C61 O58 1.244 . S
C61 O59 1.240 . S
H62 C36 0.931 . S
H63 C45 0.931 . S
H64 C49 0.929 . S
H65 C51 0.930 . S
Co66 N70 2.148 . S
Co66 N76 2.128 . S
Co66 N86 2.194 1_655 S
Co66 O91 2.351 1_655 S
Co66 O92 2.155 . S
Co66 O93 2.096 . S
C67 N70 1.301 . S
C67 N71 1.328 . S
C67 H72 0.930 . S
C68 C69 1.333 . S
C68 N70 1.317 . S
C68 H73 0.930 . S
C69 C68 1.333 . S
C69 N71 1.350 . S
C69 H95 0.931 . S
N70 Co66 2.148 . S
N70 C67 1.301 . S
N70 C68 1.317 . S
N71 C67 1.328 . S
N71 C69 1.350 . S
H72 C67 0.930 . S
H73 C68 0.930 . S
C74 O75 1.224 . S
C74 O93 1.247 . S
O75 C74 1.224 . S
N76 Co66 2.128 . S
N76 C77 1.355 1_655 S
N76 C79 1.311 . S
C77 N76 1.355 1_455 S
C77 C78 1.363 . S
C77 H89 0.929 . S
C78 C77 1.363 . S
C78 N80 1.375 . S
C78 H96 0.931 . S
C79 N76 1.311 . S
C79 N80 1.347 1_655 S
C79 H90 0.929 . S
N80 C78 1.375 . S
N80 C79 1.347 1_455 S
C81 C84 1.365 . S
C81 N86 1.328 . S
C81 H87 0.929 . S
C82 C83 1.362 . S
C82 C85 1.378 1_455 S
C82 H97 0.929 1_455 S
C83 C82 1.362 . S
C83 C84 1.366 . S
C84 C81 1.365 . S
C84 C83 1.366 . S
C84 H98 0.930 . S
C85 C82 1.378 1_655 S
C85 N86 1.315 1_655 S
C85 H88 0.930 . S
N86 Co66 2.194 1_455 S
N86 C81 1.328 . S
N86 C85 1.315 1_455 S
H87 C81 0.929 . S
H88 C85 0.930 . S
H89 C77 0.929 . S
H90 C79 0.929 . S
O91 Co66 2.351 1_455 S
O91 C94 1.244 . S
O92 Co66 2.155 . S
O92 C94 1.240 1_655 S
O93 Co66 2.096 . S
O93 C74 1.247 . S
C94 O91 1.244 . S
C94 O92 1.240 1_455 S
H95 C69 0.931 . S
H96 C78 0.931 . S
H97 C82 0.929 1_655 S
H98 C84 0.930 . S
Co99 N103 2.148 . S
Co99 N109 2.128 . S
Co99 N119 2.194 1_565 S
Co99 O124 2.351 1_565 S
Co99 O125 2.155 . S
Co99 O126 2.096 . S
C100 N103 1.301 . S
C100 N104 1.328 1_455 S
C100 H105 0.930 . S
C101 C102 1.333 . S
C101 N103 1.317 . S
C101 H106 0.930 . S
C102 C101 1.333 . S
C102 N104 1.350 1_455 S
C102 H128 0.931 . S
N103 Co99 2.148 . S
N103 C100 1.301 . S
N103 C101 1.317 . S
N104 C100 1.328 1_655 S
N104 C102 1.350 1_655 S
H105 C100 0.930 . S
H106 C101 0.930 . S
C107 O108 1.224 . S
C107 O126 1.247 . S
O108 C107 1.224 . S
N109 Co99 2.128 . S
N109 C110 1.355 1_565 S
N109 C112 1.311 . S
C110 N109 1.355 1_545 S
C110 C111 1.363 . S
C110 H122 0.929 . S
C111 C110 1.363 . S
C111 N113 1.375 . S
C111 H129 0.931 . S
C112 N109 1.311 . S
C112 N113 1.347 1_565 S
C112 H123 0.929 . S
N113 C111 1.375 . S
N113 C112 1.347 1_545 S
C114 C117 1.365 . S
C114 N119 1.328 . S
C114 H120 0.929 . S
C115 C116 1.362 . S
C115 C118 1.378 1_545 S
C115 H130 0.929 1_545 S
C116 C115 1.362 . S
C116 C117 1.366 . S
C117 C114 1.365 . S
C117 C116 1.366 . S
C117 H131 0.930 . S
C118 C115 1.378 1_565 S
C118 N119 1.315 1_565 S
C118 H121 0.930 . S
N119 Co99 2.194 1_545 S
N119 C114 1.328 . S
N119 C118 1.315 1_545 S
H120 C114 0.929 . S
H121 C118 0.930 . S
H122 C110 0.929 . S
H123 C112 0.929 . S
O124 Co99 2.351 1_545 S
O124 C127 1.244 . S
O125 Co99 2.155 . S
O125 C127 1.240 1_565 S
O126 Co99 2.096 . S
O126 C107 1.247 . S
C127 O124 1.244 . S
C127 O125 1.240 1_545 S
H128 C102 0.931 . S
H129 C111 0.931 . S
H130 C115 0.929 1_565 S
H131 C117 0.930 . S
Co132 N136 2.148 . S
Co132 N142 2.128 . S
Co132 N152 2.194 . S
Co132 O157 2.351 . S
Co132 O158 2.155 . S
Co132 O159 2.096 . S
C133 N136 1.301 . S
C133 N137 1.328 . S
C133 H138 0.930 . S
C134 C135 1.333 . S
C134 N136 1.317 . S
C134 H139 0.930 . S
C135 C134 1.333 . S
C135 N137 1.350 . S
C135 H161 0.931 . S
N136 Co132 2.148 . S
N136 C133 1.301 . S
N136 C134 1.317 . S
N137 C133 1.328 . S
N137 C135 1.350 . S
H138 C133 0.930 . S
H139 C134 0.930 . S
C140 O141 1.224 . S
C140 O159 1.247 . S
O141 C140 1.224 . S
N142 Co132 2.128 . S
N142 C143 1.355 . S
N142 C145 1.311 . S
C143 N142 1.355 . S
C143 C144 1.363 . S
C143 H155 0.929 . S
C144 C143 1.363 . S
C144 N146 1.375 . S
C144 H162 0.931 . S
C145 N142 1.311 . S
C145 N146 1.347 . S
C145 H156 0.929 . S
N146 C144 1.375 . S
N146 C145 1.347 . S
C147 C150 1.365 . S
C147 N152 1.328 . S
C147 H153 0.929 . S
C148 C149 1.362 . S
C148 C151 1.378 . S
C148 H163 0.929 . S
C149 C148 1.362 . S
C149 C150 1.366 . S
C150 C147 1.365 . S
C150 C149 1.366 . S
C150 H164 0.930 . S
C151 C148 1.378 . S
C151 N152 1.315 . S
C151 H154 0.930 . S
N152 Co132 2.194 . S
N152 C147 1.328 . S
N152 C151 1.315 . S
H153 C147 0.929 . S
H154 C151 0.930 . S
H155 C143 0.929 . S
H156 C145 0.929 . S
O157 Co132 2.351 . S
O157 C160 1.244 . S
O158 Co132 2.155 . S
O158 C160 1.240 . S
O159 Co132 2.096 . S
O159 C140 1.247 . S
C160 O157 1.244 . S
C160 O158 1.240 . S
H161 C135 0.931 . S
H162 C144 0.931 . S
H163 C148 0.929 . S
H164 C150 0.930 . S
Co165 N169 2.148 . S
Co165 N175 2.128 . S
Co165 N185 2.194 . S
Co165 O190 2.351 . S
Co165 O191 2.155 . S
Co165 O192 2.096 . S
C166 N169 1.301 . S
C166 N170 1.328 1_455 S
C166 H171 0.930 . S
C167 C168 1.333 . S
C167 N169 1.317 . S
C167 H172 0.930 . S
C168 C167 1.333 . S
C168 N170 1.350 1_455 S
C168 H194 0.931 . S
N169 Co165 2.148 . S
N169 C166 1.301 . S
N169 C167 1.317 . S
N170 C166 1.328 1_655 S
N170 C168 1.350 1_655 S
H171 C166 0.930 . S
H172 C167 0.930 . S
C173 O174 1.224 . S
C173 O192 1.247 . S
O174 C173 1.224 . S
N175 Co165 2.128 . S
N175 C176 1.355 . S
N175 C178 1.311 . S
C176 N175 1.355 . S
C176 C177 1.363 . S
C176 H188 0.929 . S
C177 C176 1.363 . S
C177 N179 1.375 . S
C177 H195 0.931 . S
C178 N175 1.311 . S
C178 N179 1.347 . S
C178 H189 0.929 . S
N179 C177 1.375 . S
N179 C178 1.347 . S
C180 C183 1.365 . S
C180 N185 1.328 . S
C180 H186 0.929 . S
C181 C182 1.362 . S
C181 C184 1.378 . S
C181 H196 0.929 . S
C182 C181 1.362 . S
C182 C183 1.366 . S
C183 C180 1.365 . S
C183 C182 1.366 . S
C183 H197 0.930 . S
C184 C181 1.378 . S
C184 N185 1.315 . S
C184 H187 0.930 . S
N185 Co165 2.194 . S
N185 C180 1.328 . S
N185 C184 1.315 . S
H186 C180 0.929 . S
H187 C184 0.930 . S
H188 C176 0.929 . S
H189 C178 0.929 . S
O190 Co165 2.351 . S
O190 C193 1.244 . S
O191 Co165 2.155 . S
O191 C193 1.240 . S
O192 Co165 2.096 . S
O192 C173 1.247 . S
C193 O190 1.244 . S
C193 O191 1.240 . S
H194 C168 0.931 . S
H195 C177 0.931 . S
H196 C181 0.929 . S
H197 C183 0.930 . S
Co198 N202 2.148 . S
Co198 N208 2.128 . S
Co198 N218 2.194 1_655 S
Co198 O223 2.351 1_655 S
Co198 O224 2.155 . S
Co198 O225 2.096 . S
C199 N202 1.301 . S
C199 N203 1.328 1_545 S
C199 H204 0.930 . S
C200 C201 1.333 . S
C200 N202 1.317 . S
C200 H205 0.930 . S
C201 C200 1.333 . S
C201 N203 1.350 1_545 S
C201 H227 0.931 . S
N202 Co198 2.148 . S
N202 C199 1.301 . S
N202 C200 1.317 . S
N203 C199 1.328 1_565 S
N203 C201 1.350 1_565 S
H204 C199 0.930 . S
H205 C200 0.930 . S
C206 O207 1.224 . S
C206 O225 1.247 . S
O207 C206 1.224 . S
N208 Co198 2.128 . S
N208 C209 1.355 1_655 S
N208 C211 1.311 . S
C209 N208 1.355 1_455 S
C209 C210 1.363 . S
C209 H221 0.929 . S
C210 C209 1.363 . S
C210 N212 1.375 . S
C210 H228 0.931 . S
C211 N208 1.311 . S
C211 N212 1.347 1_655 S
C211 H222 0.929 . S
N212 C210 1.375 . S
N212 C211 1.347 1_455 S
C213 C216 1.365 . S
C213 N218 1.328 . S
C213 H219 0.929 . S
C214 C215 1.362 . S
C214 C217 1.378 1_455 S
C214 H229 0.929 1_455 S
C215 C214 1.362 . S
C215 C216 1.366 . S
C216 C213 1.365 . S
C216 C215 1.366 . S
C216 H230 0.930 . S
C217 C214 1.378 1_655 S
C217 N218 1.315 1_655 S
C217 H220 0.930 . S
N218 Co198 2.194 1_455 S
N218 C213 1.328 . S
N218 C217 1.315 1_455 S
H219 C213 0.929 . S
H220 C217 0.930 . S
H221 C209 0.929 . S
H222 C211 0.929 . S
O223 Co198 2.351 1_455 S
O223 C226 1.244 . S
O224 Co198 2.155 . S
O224 C226 1.240 1_655 S
O225 Co198 2.096 . S
O225 C206 1.247 . S
C226 O223 1.244 . S
C226 O224 1.240 1_455 S
H227 C201 0.931 . S
H228 C210 0.931 . S
H229 C214 0.929 1_655 S
H230 C216 0.930 . S
Co231 N235 2.148 . S
Co231 N241 2.128 . S
Co231 N251 2.194 1_565 S
Co231 O256 2.351 1_565 S
Co231 O257 2.155 . S
Co231 O258 2.096 . S
C232 N235 1.301 . S
C232 N236 1.328 . S
C232 H237 0.930 . S
C233 C234 1.333 . S
C233 N235 1.317 . S
C233 H238 0.930 . S
C234 C233 1.333 . S
C234 N236 1.350 . S
C234 H260 0.931 . S
N235 Co231 2.148 . S
N235 C232 1.301 . S
N235 C233 1.317 . S
N236 C232 1.328 . S
N236 C234 1.350 . S
H237 C232 0.930 . S
H238 C233 0.930 . S
C239 O240 1.224 . S
C239 O258 1.247 . S
O240 C239 1.224 . S
N241 Co231 2.128 . S
N241 C242 1.355 1_565 S
N241 C244 1.311 . S
C242 N241 1.355 1_545 S
C242 C243 1.363 . S
C242 H254 0.929 . S
C243 C242 1.363 . S
C243 N245 1.375 . S
C243 H261 0.931 . S
C244 N241 1.311 . S
C244 N245 1.347 1_565 S
C244 H255 0.929 . S
N245 C243 1.375 . S
N245 C244 1.347 1_545 S
C246 C249 1.365 . S
C246 N251 1.328 . S
C246 H252 0.929 . S
C247 C248 1.362 . S
C247 C250 1.378 1_545 S
C247 H262 0.929 1_545 S
C248 C247 1.362 . S
C248 C249 1.366 . S
C249 C246 1.365 . S
C249 C248 1.366 . S
C249 H263 0.930 . S
C250 C247 1.378 1_565 S
C250 N251 1.315 1_565 S
C250 H253 0.930 . S
N251 Co231 2.194 1_545 S
N251 C246 1.328 . S
N251 C250 1.315 1_545 S
H252 C246 0.929 . S
H253 C250 0.930 . S
H254 C242 0.929 . S
H255 C244 0.929 . S
O256 Co231 2.351 1_545 S
O256 C259 1.244 . S
O257 Co231 2.155 . S
O257 C259 1.240 1_565 S
O258 Co231 2.096 . S
O258 C239 1.247 . S
C259 O256 1.244 . S
C259 O257 1.240 1_545 S
H260 C234 0.931 . S
H261 C243 0.931 . S
H262 C247 0.929 1_565 S
H263 C249 0.930 . S
Co264 N268 2.148 . S
Co264 N274 2.128 . S
Co264 N284 2.194 . S
Co264 O289 2.351 . S
Co264 O290 2.155 . S
Co264 O291 2.096 . S
C265 N268 1.301 . S
C265 N269 1.328 1_565 S
C265 H270 0.930 . S
C266 C267 1.333 . S
C266 N268 1.317 . S
C266 H271 0.930 . S
C267 C266 1.333 . S
C267 N269 1.350 1_565 S
C267 H293 0.931 . S
N268 Co264 2.148 . S
N268 C265 1.301 . S
N268 C266 1.317 . S
N269 C265 1.328 1_545 S
N269 C267 1.350 1_545 S
H270 C265 0.930 . S
H271 C266 0.930 . S
C272 O273 1.224 . S
C272 O291 1.247 . S
O273 C272 1.224 . S
N274 Co264 2.128 . S
N274 C275 1.355 . S
N274 C277 1.311 . S
C275 N274 1.355 . S
C275 C276 1.363 . S
C275 H287 0.929 . S
C276 C275 1.363 . S
C276 N278 1.375 . S
C276 H294 0.931 . S
C277 N274 1.311 . S
C277 N278 1.347 . S
C277 H288 0.929 . S
N278 C276 1.375 . S
N278 C277 1.347 . S
C279 C282 1.365 . S
C279 N284 1.328 . S
C279 H285 0.929 . S
C280 C281 1.362 . S
C280 C283 1.378 . S
C280 H295 0.929 . S
C281 C280 1.362 . S
C281 C282 1.366 . S
C282 C279 1.365 . S
C282 C281 1.366 . S
C282 H296 0.930 . S
C283 C280 1.378 . S
C283 N284 1.315 . S
C283 H286 0.930 . S
N284 Co264 2.194 . S
N284 C279 1.328 . S
N284 C283 1.315 . S
H285 C279 0.929 . S
H286 C283 0.930 . S
H287 C275 0.929 . S
H288 C277 0.929 . S
O289 Co264 2.351 . S
O289 C292 1.244 . S
O290 Co264 2.155 . S
O290 C292 1.240 . S
O291 Co264 2.096 . S
O291 C272 1.247 . S
C292 O289 1.244 . S
C292 O290 1.240 . S
H293 C267 0.931 . S
H294 C276 0.931 . S
H295 C280 0.929 . S
H296 C282 0.930 . S
Co297 N301 2.148 . S
Co297 N307 2.128 . S
Co297 N317 2.194 . S
Co297 O322 2.351 . S
Co297 O323 2.155 . S
Co297 O324 2.096 . S
C298 N301 1.301 . S
C298 N302 1.328 . S
C298 H303 0.930 . S
C299 C300 1.333 . S
C299 N301 1.317 . S
C299 H304 0.930 . S
C300 C299 1.333 . S
C300 N302 1.350 . S
C300 H326 0.931 . S
N301 Co297 2.148 . S
N301 C298 1.301 . S
N301 C299 1.317 . S
N302 C298 1.328 . S
N302 C300 1.350 . S
H303 C298 0.930 . S
H304 C299 0.930 . S
C305 O306 1.224 . S
C305 O324 1.247 . S
O306 C305 1.224 . S
N307 Co297 2.128 . S
N307 C308 1.355 . S
N307 C310 1.311 . S
C308 N307 1.355 . S
C308 C309 1.363 . S
C308 H320 0.929 . S
C309 C308 1.363 . S
C309 N311 1.375 . S
C309 H327 0.931 . S
C310 N307 1.311 . S
C310 N311 1.347 . S
C310 H321 0.929 . S
N311 C309 1.375 . S
N311 C310 1.347 . S
C312 C315 1.365 . S
C312 N317 1.328 . S
C312 H318 0.929 . S
C313 C314 1.362 . S
C313 C316 1.378 . S
C313 H328 0.929 . S
C314 C313 1.362 . S
C314 C315 1.366 . S
C315 C312 1.365 . S
C315 C314 1.366 . S
C315 H329 0.930 . S
C316 C313 1.378 . S
C316 N317 1.315 . S
C316 H319 0.930 . S
N317 Co297 2.194 . S
N317 C312 1.328 . S
N317 C316 1.315 . S
H318 C312 0.929 . S
H319 C316 0.930 . S
H320 C308 0.929 . S
H321 C310 0.929 . S
O322 Co297 2.351 . S
O322 C325 1.244 . S
O323 Co297 2.155 . S
O323 C325 1.240 . S
O324 Co297 2.096 . S
O324 C305 1.247 . S
C325 O322 1.244 . S
C325 O323 1.240 . S
H326 C300 0.931 . S
H327 C309 0.931 . S
H328 C313 0.929 . S
H329 C315 0.930 . S
Co330 N334 2.148 . S
Co330 N340 2.128 . S
Co330 N350 2.194 1_455 S
Co330 O355 2.351 1_455 S
Co330 O356 2.155 . S
Co330 O357 2.096 . S
C331 N334 1.301 . S
C331 N335 1.328 . S
C331 H336 0.930 . S
C332 C333 1.333 . S
C332 N334 1.317 . S
C332 H337 0.930 . S
C333 C332 1.333 . S
C333 N335 1.350 . S
C333 H359 0.931 . S
N334 Co330 2.148 . S
N334 C331 1.301 . S
N334 C332 1.317 . S
N335 C331 1.328 . S
N335 C333 1.350 . S
H336 C331 0.930 . S
H337 C332 0.930 . S
C338 O339 1.224 . S
C338 O357 1.247 . S
O339 C338 1.224 . S
N340 Co330 2.128 . S
N340 C341 1.355 1_455 S
N340 C343 1.311 . S
C341 N340 1.355 1_655 S
C341 C342 1.363 . S
C341 H353 0.929 . S
C342 C341 1.363 . S
C342 N344 1.375 . S
C342 H360 0.931 . S
C343 N340 1.311 . S
C343 N344 1.347 1_455 S
C343 H354 0.929 . S
N344 C342 1.375 . S
N344 C343 1.347 1_655 S
C345 C348 1.365 . S
C345 N350 1.328 . S
C345 H351 0.929 . S
C346 C347 1.362 . S
C346 C349 1.378 1_655 S
C346 H361 0.929 1_655 S
C347 C346 1.362 . S
C347 C348 1.366 . S
C348 C345 1.365 . S
C348 C347 1.366 . S
C348 H362 0.930 . S
C349 C346 1.378 1_455 S
C349 N350 1.315 1_455 S
C349 H352 0.930 . S
N350 Co330 2.194 1_655 S
N350 C345 1.328 . S
N350 C349 1.315 1_655 S
H351 C345 0.929 . S
H352 C349 0.930 . S
H353 C341 0.929 . S
H354 C343 0.929 . S
O355 Co330 2.351 1_655 S
O355 C358 1.244 . S
O356 Co330 2.155 . S
O356 C358 1.240 1_455 S
O357 Co330 2.096 . S
O357 C338 1.247 . S
C358 O355 1.244 . S
C358 O356 1.240 1_655 S
H359 C333 0.931 . S
H360 C342 0.931 . S
H361 C346 0.929 1_455 S
H362 C348 0.930 . S
Co363 N367 2.148 . S
Co363 N373 2.128 . S
Co363 N383 2.194 1_545 S
Co363 O388 2.351 1_545 S
Co363 O389 2.155 . S
Co363 O390 2.096 . S
C364 N367 1.301 . S
C364 N368 1.328 1_655 S
C364 H369 0.930 . S
C365 C366 1.333 . S
C365 N367 1.317 . S
C365 H370 0.930 . S
C366 C365 1.333 . S
C366 N368 1.350 1_655 S
C366 H392 0.931 . S
N367 Co363 2.148 . S
N367 C364 1.301 . S
N367 C365 1.317 . S
N368 C364 1.328 1_455 S
N368 C366 1.350 1_455 S
H369 C364 0.930 . S
H370 C365 0.930 . S
C371 O372 1.224 . S
C371 O390 1.247 . S
O372 C371 1.224 . S
N373 Co363 2.128 . S
N373 C374 1.355 1_545 S
N373 C376 1.311 . S
C374 N373 1.355 1_565 S
C374 C375 1.363 . S
C374 H386 0.929 . S
C375 C374 1.363 . S
C375 N377 1.375 . S
C375 H393 0.931 . S
C376 N373 1.311 . S
C376 N377 1.347 1_545 S
C376 H387 0.929 . S
N377 C375 1.375 . S
N377 C376 1.347 1_565 S
C378 C381 1.365 . S
C378 N383 1.328 . S
C378 H384 0.929 . S
C379 C380 1.362 . S
C379 C382 1.378 1_565 S
C379 H394 0.929 1_565 S
C380 C379 1.362 . S
C380 C381 1.366 . S
C381 C378 1.365 . S
C381 C380 1.366 . S
C381 H395 0.930 . S
C382 C379 1.378 1_545 S
C382 N383 1.315 1_545 S
C382 H385 0.930 . S
N383 Co363 2.194 1_565 S
N383 C378 1.328 . S
N383 C382 1.315 1_565 S
H384 C378 0.929 . S
H385 C382 0.930 . S
H386 C374 0.929 . S
H387 C376 0.929 . S
O388 Co363 2.351 1_565 S
O388 C391 1.244 . S
O389 Co363 2.155 . S
O389 C391 1.240 1_545 S
O390 Co363 2.096 . S
O390 C371 1.247 . S
C391 O388 1.244 . S
C391 O389 1.240 1_565 S
H392 C366 0.931 . S
H393 C375 0.931 . S
H394 C379 0.929 1_545 S
H395 C381 0.930 . S
Co396 N400 2.148 . S
Co396 N406 2.128 . S
Co396 N416 2.194 . S
Co396 O421 2.351 . S
Co396 O422 2.155 . S
Co396 O423 2.096 . S
C397 N400 1.301 . S
C397 N401 1.328 . S
C397 H402 0.930 . S
C398 C399 1.333 . S
C398 N400 1.317 . S
C398 H403 0.930 . S
C399 C398 1.333 . S
C399 N401 1.350 . S
C399 H425 0.931 . S
N400 Co396 2.148 . S
N400 C397 1.301 . S
N400 C398 1.317 . S
N401 C397 1.328 . S
N401 C399 1.350 . S
H402 C397 0.930 . S
H403 C398 0.930 . S
C404 O405 1.224 . S
C404 O423 1.247 . S
O405 C404 1.224 . S
N406 Co396 2.128 . S
N406 C407 1.355 . S
N406 C409 1.311 . S
C407 N406 1.355 . S
C407 C408 1.363 . S
C407 H419 0.929 . S
C408 C407 1.363 . S
C408 N410 1.375 . S
C408 H426 0.931 . S
C409 N406 1.311 . S
C409 N410 1.347 . S
C409 H420 0.929 . S
N410 C408 1.375 . S
N410 C409 1.347 . S
C411 C414 1.365 . S
C411 N416 1.328 . S
C411 H417 0.929 . S
C412 C413 1.362 . S
C412 C415 1.378 . S
C412 H427 0.929 . S
C413 C412 1.362 . S
C413 C414 1.366 . S
C414 C411 1.365 . S
C414 C413 1.366 . S
C414 H428 0.930 . S
C415 C412 1.378 . S
C415 N416 1.315 . S
C415 H418 0.930 . S
N416 Co396 2.194 . S
N416 C411 1.328 . S
N416 C415 1.315 . S
H417 C411 0.929 . S
H418 C415 0.930 . S
H419 C407 0.929 . S
H420 C409 0.929 . S
O421 Co396 2.351 . S
O421 C424 1.244 . S
O422 Co396 2.155 . S
O422 C424 1.240 . S
O423 Co396 2.096 . S
O423 C404 1.247 . S
C424 O421 1.244 . S
C424 O422 1.240 . S
H425 C399 0.931 . S
H426 C408 0.931 . S
H427 C412 0.929 . S
H428 C414 0.930 . S
Co429 N433 2.148 . S
Co429 N439 2.128 . S
Co429 N449 2.194 . S
Co429 O454 2.351 . S
Co429 O455 2.155 . S
Co429 O456 2.096 . S
C430 N433 1.301 . S
C430 N434 1.328 1_655 S
C430 H435 0.930 . S
C431 C432 1.333 . S
C431 N433 1.317 . S
C431 H436 0.930 . S
C432 C431 1.333 . S
C432 N434 1.350 1_655 S
C432 H458 0.931 . S
N433 Co429 2.148 . S
N433 C430 1.301 . S
N433 C431 1.317 . S
N434 C430 1.328 1_455 S
N434 C432 1.350 1_455 S
H435 C430 0.930 . S
H436 C431 0.930 . S
C437 O438 1.224 . S
C437 O456 1.247 . S
O438 C437 1.224 . S
N439 Co429 2.128 . S
N439 C440 1.355 . S
N439 C442 1.311 . S
C440 N439 1.355 . S
C440 C441 1.363 . S
C440 H452 0.929 . S
C441 C440 1.363 . S
C441 N443 1.375 . S
C441 H459 0.931 . S
C442 N439 1.311 . S
C442 N443 1.347 . S
C442 H453 0.929 . S
N443 C441 1.375 . S
N443 C442 1.347 . S
C444 C447 1.365 . S
C444 N449 1.328 . S
C444 H450 0.929 . S
C445 C446 1.362 . S
C445 C448 1.378 . S
C445 H460 0.929 . S
C446 C445 1.362 . S
C446 C447 1.366 . S
C447 C444 1.365 . S
C447 C446 1.366 . S
C447 H461 0.930 . S
C448 C445 1.378 . S
C448 N449 1.315 . S
C448 H451 0.930 . S
N449 Co429 2.194 . S
N449 C444 1.328 . S
N449 C448 1.315 . S
H450 C444 0.929 . S
H451 C448 0.930 . S
H452 C440 0.929 . S
H453 C442 0.929 . S
O454 Co429 2.351 . S
O454 C457 1.244 . S
O455 Co429 2.155 . S
O455 C457 1.240 . S
O456 Co429 2.096 . S
O456 C437 1.247 . S
C457 O454 1.244 . S
C457 O455 1.240 . S
H458 C432 0.931 . S
H459 C441 0.931 . S
H460 C445 0.929 . S
H461 C447 0.930 . S
Co462 N466 2.148 . S
Co462 N472 2.128 . S
Co462 N482 2.194 1_455 S
Co462 O487 2.351 1_455 S
Co462 O488 2.155 . S
Co462 O489 2.096 . S
C463 N466 1.301 . S
C463 N467 1.328 1_565 S
C463 H468 0.930 . S
C464 C465 1.333 . S
C464 N466 1.317 . S
C464 H469 0.930 . S
C465 C464 1.333 . S
C465 N467 1.350 1_565 S
C465 H491 0.931 . S
N466 Co462 2.148 . S
N466 C463 1.301 . S
N466 C464 1.317 . S
N467 C463 1.328 1_545 S
N467 C465 1.350 1_545 S
H468 C463 0.930 . S
H469 C464 0.930 . S
C470 O471 1.224 . S
C470 O489 1.247 . S
O471 C470 1.224 . S
N472 Co462 2.128 . S
N472 C473 1.355 1_455 S
N472 C475 1.311 . S
C473 N472 1.355 1_655 S
C473 C474 1.363 . S
C473 H485 0.929 . S
C474 C473 1.363 . S
C474 N476 1.375 . S
C474 H492 0.931 . S
C475 N472 1.311 . S
C475 N476 1.347 1_455 S
C475 H486 0.929 . S
N476 C474 1.375 . S
N476 C475 1.347 1_655 S
C477 C480 1.365 . S
C477 N482 1.328 . S
C477 H483 0.929 . S
C478 C479 1.362 . S
C478 C481 1.378 1_655 S
C478 H493 0.929 1_655 S
C479 C478 1.362 . S
C479 C480 1.366 . S
C480 C477 1.365 . S
C480 C479 1.366 . S
C480 H494 0.930 . S
C481 C478 1.378 1_455 S
C481 N482 1.315 1_455 S
C481 H484 0.930 . S
N482 Co462 2.194 1_655 S
N482 C477 1.328 . S
N482 C481 1.315 1_655 S
H483 C477 0.929 . S
H484 C481 0.930 . S
H485 C473 0.929 . S
H486 C475 0.929 . S
O487 Co462 2.351 1_655 S
O487 C490 1.244 . S
O488 Co462 2.155 . S
O488 C490 1.240 1_455 S
O489 Co462 2.096 . S
O489 C470 1.247 . S
C490 O487 1.244 . S
C490 O488 1.240 1_655 S
H491 C465 0.931 . S
H492 C474 0.931 . S
H493 C478 0.929 1_455 S
H494 C480 0.930 . S
Co495 N499 2.148 . S
Co495 N505 2.128 . S
Co495 N515 2.194 1_545 S
Co495 O520 2.351 1_545 S
Co495 O521 2.155 . S
Co495 O522 2.096 . S
C496 N499 1.301 . S
C496 N500 1.328 . S
C496 H501 0.930 . S
C497 C498 1.333 . S
C497 N499 1.317 . S
C497 H502 0.930 . S
C498 C497 1.333 . S
C498 N500 1.350 . S
C498 H524 0.931 . S
N499 Co495 2.148 . S
N499 C496 1.301 . S
N499 C497 1.317 . S
N500 C496 1.328 . S
N500 C498 1.350 . S
H501 C496 0.930 . S
H502 C497 0.930 . S
C503 O504 1.224 . S
C503 O522 1.247 . S
O504 C503 1.224 . S
N505 Co495 2.128 . S
N505 C506 1.355 1_545 S
N505 C508 1.311 . S
C506 N505 1.355 1_565 S
C506 C507 1.363 . S
C506 H518 0.929 . S
C507 C506 1.363 . S
C507 N509 1.375 . S
C507 H525 0.931 . S
C508 N505 1.311 . S
C508 N509 1.347 1_545 S
C508 H519 0.929 . S
N509 C507 1.375 . S
N509 C508 1.347 1_565 S
C510 C513 1.365 . S
C510 N515 1.328 . S
C510 H516 0.929 . S
C511 C512 1.362 . S
C511 C514 1.378 1_565 S
C511 H526 0.929 1_565 S
C512 C511 1.362 . S
C512 C513 1.366 . S
C513 C510 1.365 . S
C513 C512 1.366 . S
C513 H527 0.930 . S
C514 C511 1.378 1_545 S
C514 N515 1.315 1_545 S
C514 H517 0.930 . S
N515 Co495 2.194 1_565 S
N515 C510 1.328 . S
N515 C514 1.315 1_565 S
H516 C510 0.929 . S
H517 C514 0.930 . S
H518 C506 0.929 . S
H519 C508 0.929 . S
O520 Co495 2.351 1_565 S
O520 C523 1.244 . S
O521 Co495 2.155 . S
O521 C523 1.240 1_545 S
O522 Co495 2.096 . S
O522 C503 1.247 . S
C523 O520 1.244 . S
C523 O521 1.240 1_565 S
H524 C498 0.931 . S
H525 C507 0.931 . S
H526 C511 0.929 1_545 S
H527 C513 0.930 . S
C528 C529 1.391 . S
C528 C530 1.394 . S
C528 H544 0.931 . S
C529 C528 1.391 . S
C529 C533 1.376 . S
C530 C528 1.394 . S
C530 C531 1.369 . S
C530 C534 1.531 . S
C531 C530 1.369 . S
C531 C532 1.410 . S
C531 C539 1.503 . S
C532 C531 1.410 . S
C532 C533 1.392 . S
C532 C535 1.511 . S
C533 C529 1.376 . S
C533 C532 1.392 . S
C533 H545 0.929 . S
C534 C530 1.531 . S
C534 H546 0.960 . S
C534 H547 0.962 . S
C534 H548 0.960 . S
C535 C532 1.511 . S
C535 H549 0.961 . S
C535 H550 0.961 . S
C535 H551 0.961 . S
C536 C537 1.370 . S
C536 C538 1.363 . S
C536 H552 0.931 . S
C537 C536 1.370 . S
C537 C541 1.408 . S
C538 C536 1.363 . S
C538 C539 1.370 . S
C538 C542 1.524 . S
C539 C531 1.503 . S
C539 C538 1.370 . S
C539 C540 1.403 . S
C540 C539 1.403 . S
C540 C541 1.404 . S
C540 C543 1.552 . S
C541 C537 1.408 . S
C541 C540 1.404 . S
C541 H553 0.930 . S
C542 C538 1.524 . S
C542 H554 0.956 . S
C542 H555 0.961 . S
C542 H556 0.961 . S
C543 C540 1.552 . S
C543 H557 0.946 1_545 S
C543 H558 0.953 1_545 S
C543 H559 0.967 . S
H544 C528 0.931 . S
H545 C533 0.929 . S
H546 C534 0.960 . S
H547 C534 0.962 . S
H548 C534 0.960 . S
H549 C535 0.961 . S
H550 C535 0.961 . S
H551 C535 0.961 . S
H552 C536 0.931 . S
H553 C541 0.930 . S
H554 C542 0.956 . S
H555 C542 0.961 . S
H556 C542 0.961 . S
H557 C543 0.946 1_565 S
H558 C543 0.953 1_565 S
H559 C543 0.967 . S
C560 C561 1.391 . S
C560 C562 1.394 . S
C560 H576 0.931 . S
C561 C560 1.391 . S
C561 C565 1.376 . S
C562 C560 1.394 . S
C562 C563 1.369 . S
C562 C566 1.531 . S
C563 C562 1.369 . S
C563 C564 1.410 . S
C563 C571 1.503 . S
C564 C563 1.410 . S
C564 C565 1.392 . S
C564 C567 1.511 . S
C565 C561 1.376 . S
C565 C564 1.392 . S
C565 H577 0.929 . S
C566 C562 1.531 . S
C566 H578 0.960 . S
C566 H579 0.962 . S
C566 H580 0.960 . S
C567 C564 1.511 . S
C567 H581 0.961 . S
C567 H582 0.961 . S
C567 H583 0.961 . S
C568 C569 1.370 . S
C568 C570 1.363 . S
C568 H584 0.931 . S
C569 C568 1.370 . S
C569 C573 1.408 . S
C570 C568 1.363 . S
C570 C571 1.370 . S
C570 C574 1.524 . S
C571 C563 1.503 . S
C571 C570 1.370 . S
C571 C572 1.403 . S
C572 C571 1.403 . S
C572 C573 1.404 . S
C572 C575 1.539 . S
C573 C569 1.408 . S
C573 C572 1.404 . S
C573 H585 0.930 . S
C574 C570 1.524 . S
C574 H586 0.956 . S
C574 H587 0.961 . S
C574 H588 0.961 . S
C575 C572 1.539 . S
C575 H589 0.958 . S
C575 H590 0.961 . S
C575 H591 0.960 . S
H576 C560 0.931 . S
H577 C565 0.929 . S
H578 C566 0.960 . S
H579 C566 0.962 . S
H580 C566 0.960 . S
H581 C567 0.961 . S
H582 C567 0.961 . S
H583 C567 0.961 . S
H584 C568 0.931 . S
H585 C573 0.930 . S
H586 C574 0.956 . S
H587 C574 0.961 . S
H588 C574 0.961 . S
H589 C575 0.958 . S
H590 C575 0.961 . S
H591 C575 0.960 . S
C592 C593 1.391 . S
C592 C594 1.394 . S
C592 H608 0.931 . S
C593 C592 1.391 . S
C593 C597 1.376 . S
C594 C592 1.394 . S
C594 C595 1.369 . S
C594 C598 1.531 . S
C595 C594 1.369 . S
C595 C596 1.410 . S
C595 C603 1.503 . S
C596 C595 1.410 . S
C596 C597 1.392 . S
C596 C599 1.511 . S
C597 C593 1.376 . S
C597 C596 1.392 . S
C597 H609 0.929 . S
C598 C594 1.531 . S
C598 H610 0.960 . S
C598 H611 0.962 . S
C598 H612 0.960 . S
C599 C596 1.511 . S
C599 H613 0.961 . S
C599 H614 0.961 . S
C599 H615 0.961 . S
C600 C601 1.370 . S
C600 C602 1.363 . S
C600 H616 0.931 . S
C601 C600 1.370 . S
C601 C605 1.408 . S
C602 C600 1.363 . S
C602 C603 1.370 . S
C602 C606 1.524 . S
C603 C595 1.503 . S
C603 C602 1.370 . S
C603 C604 1.403 . S
C604 C603 1.403 . S
C604 C605 1.404 . S
C604 C607 1.539 . S
C605 C601 1.408 . S
C605 C604 1.404 . S
C605 H617 0.930 . S
C606 C602 1.524 . S
C606 H618 0.956 . S
C606 H619 0.961 . S
C606 H620 0.961 . S
C607 C604 1.539 . S
C607 H621 0.958 . S
C607 H622 0.961 1_455 S
C607 H623 0.967 . S
H608 C592 0.931 . S
H609 C597 0.929 . S
H610 C598 0.960 . S
H611 C598 0.962 . S
H612 C598 0.960 . S
H613 C599 0.961 . S
H614 C599 0.961 . S
H615 C599 0.961 . S
H616 C600 0.931 . S
H617 C605 0.930 . S
H618 C606 0.956 . S
H619 C606 0.961 . S
H620 C606 0.961 . S
H621 C607 0.958 . S
H622 C607 0.961 1_655 S
H623 C607 0.967 . S
C624 C625 1.391 . S
C624 C626 1.394 . S
C624 H640 0.931 . S
C625 C624 1.391 . S
C625 C629 1.376 . S
C626 C624 1.394 . S
C626 C627 1.369 . S
C626 C630 1.531 . S
C627 C626 1.369 . S
C627 C628 1.410 . S
C627 C635 1.503 . S
C628 C627 1.410 . S
C628 C629 1.392 . S
C628 C631 1.511 . S
C629 C625 1.376 . S
C629 C628 1.392 . S
C629 H641 0.929 . S
C630 C626 1.531 . S
C630 H642 0.960 . S
C630 H643 0.962 . S
C630 H644 0.960 . S
C631 C628 1.511 . S
C631 H645 0.961 1_455 S
C631 H646 0.961 . S
C631 H647 0.961 1_455 S
C632 C633 1.370 . S
C632 C634 1.363 . S
C632 H648 0.931 . S
C633 C632 1.370 . S
C633 C637 1.408 . S
C634 C632 1.363 . S
C634 C635 1.370 . S
C634 C638 1.524 . S
C635 C627 1.503 . S
C635 C634 1.370 . S
C635 C636 1.403 . S
C636 C635 1.403 . S
C636 C637 1.404 . S
C636 C639 1.539 . S
C637 C633 1.408 . S
C637 C636 1.404 . S
C637 H649 0.930 . S
C638 C634 1.524 . S
C638 H650 0.956 . S
C638 H651 0.961 . S
C638 H652 0.961 . S
C639 C636 1.539 . S
C639 H653 0.958 . S
C639 H654 0.961 . S
C639 H655 0.960 . S
H640 C624 0.931 . S
H641 C629 0.929 . S
H642 C630 0.960 . S
H643 C630 0.962 . S
H644 C630 0.960 . S
H645 C631 0.961 1_655 S
H646 C631 0.961 . S
H647 C631 0.961 1_655 S
H648 C632 0.931 . S
H649 C637 0.930 . S
H650 C638 0.956 . S
H651 C638 0.961 . S
H652 C638 0.961 . S
H653 C639 0.958 . S
H654 C639 0.961 . S
H655 C639 0.960 . S
C656 C657 1.391 . S
C656 C658 1.394 . S
C656 H672 0.931 . S
C657 C656 1.391 . S
C657 C661 1.376 . S
C658 C656 1.394 . S
C658 C659 1.369 . S
C658 C662 1.531 . S
C659 C658 1.369 . S
C659 C660 1.410 . S
C659 C667 1.503 . S
C660 C659 1.410 . S
C660 C661 1.392 . S
C660 C663 1.511 . S
C661 C657 1.376 . S
C661 C660 1.392 . S
C661 H673 0.929 . S
C662 C658 1.531 . S
C662 H674 0.960 . S
C662 H675 0.962 . S
C662 H676 0.960 . S
C663 C660 1.511 . S
C663 H677 0.961 . S
C663 H678 0.961 . S
C663 H679 0.961 . S
C664 C665 1.370 . S
C664 C666 1.363 . S
C664 H680 0.931 . S
C665 C664 1.370 . S
C665 C669 1.408 . S
C666 C664 1.363 . S
C666 C667 1.370 . S
C666 C670 1.524 . S
C667 C659 1.503 . S
C667 C666 1.370 . S
C667 C668 1.403 . S
C668 C667 1.403 . S
C668 C669 1.404 . S
C668 C671 1.539 . S
C669 C665 1.408 . S
C669 C668 1.404 . S
C669 H681 0.930 . S
C670 C666 1.524 . S
C670 H682 0.956 . S
C670 H683 0.961 . S
C670 H684 0.961 . S
C671 C668 1.539 . S
C671 H685 0.958 1_565 S
C671 H686 0.962 1_565 S
C671 H687 0.960 . S
H672 C656 0.931 . S
H673 C661 0.929 . S
H674 C662 0.960 . S
H675 C662 0.962 . S
H676 C662 0.960 . S
H677 C663 0.961 . S
H678 C663 0.961 . S
H679 C663 0.961 . S
H680 C664 0.931 . S
H681 C669 0.930 . S
H682 C670 0.956 . S
H683 C670 0.961 . S
H684 C670 0.961 . S
H685 C671 0.958 1_545 S
H686 C671 0.962 1_545 S
H687 C671 0.960 . S
C688 C689 1.391 . S
C688 C690 1.394 . S
C688 H704 0.931 . S
C689 C688 1.391 . S
C689 C693 1.376 . S
C690 C688 1.394 . S
C690 C691 1.369 . S
C690 C694 1.531 . S
C691 C690 1.369 . S
C691 C692 1.410 . S
C691 C699 1.503 . S
C692 C691 1.410 . S
C692 C693 1.392 . S
C692 C695 1.511 . S
C693 C689 1.376 . S
C693 C692 1.392 . S
C693 H705 0.929 . S
C694 C690 1.531 . S
C694 H706 0.960 . S
C694 H707 0.962 . S
C694 H708 0.960 . S
C695 C692 1.511 . S
C695 H709 0.961 . S
C695 H710 0.961 . S
C695 H711 0.961 . S
C696 C697 1.370 . S
C696 C698 1.363 . S
C696 H712 0.931 . S
C697 C696 1.370 . S
C697 C701 1.408 . S
C698 C696 1.363 . S
C698 C699 1.370 . S
C698 C702 1.524 . S
C699 C691 1.503 . S
C699 C698 1.370 . S
C699 C700 1.403 . S
C700 C699 1.403 . S
C700 C701 1.404 . S
C700 C703 1.539 . S
C701 C697 1.408 . S
C701 C700 1.404 . S
C701 H713 0.930 . S
C702 C698 1.524 . S
C702 H714 0.956 . S
C702 H715 0.961 . S
C702 H716 0.961 . S
C703 C700 1.539 . S
C703 H717 0.958 . S
C703 H718 0.961 . S
C703 H719 0.960 . S
H704 C688 0.931 . S
H705 C693 0.929 . S
H706 C694 0.960 . S
H707 C694 0.962 . S
H708 C694 0.960 . S
H709 C695 0.961 . S
H710 C695 0.961 . S
H711 C695 0.961 . S
H712 C696 0.931 . S
H713 C701 0.930 . S
H714 C702 0.956 . S
H715 C702 0.961 . S
H716 C702 0.961 . S
H717 C703 0.958 . S
H718 C703 0.961 . S
H719 C703 0.960 . S
C720 C721 1.391 . S
C720 C722 1.394 . S
C720 H736 0.931 . S
C721 C720 1.391 . S
C721 C725 1.376 . S
C722 C720 1.394 . S
C722 C723 1.369 . S
C722 C726 1.531 . S
C723 C722 1.369 . S
C723 C724 1.410 . S
C723 C731 1.503 . S
C724 C723 1.410 . S
C724 C725 1.392 . S
C724 C727 1.511 . S
C725 C721 1.376 . S
C725 C724 1.392 . S
C725 H737 0.929 . S
C726 C722 1.531 . S
C726 H738 0.960 . S
C726 H739 0.962 . S
C726 H740 0.960 . S
C727 C724 1.511 . S
C727 H741 0.961 . S
C727 H742 0.961 . S
C727 H743 0.945 1_655 S
C728 C729 1.370 . S
C728 C730 1.363 . S
C728 H744 0.931 . S
C729 C728 1.370 . S
C729 C733 1.408 . S
C730 C728 1.363 . S
C730 C731 1.370 . S
C730 C734 1.524 . S
C731 C723 1.503 . S
C731 C730 1.370 . S
C731 C732 1.403 . S
C732 C731 1.403 . S
C732 C733 1.404 . S
C732 C735 1.539 . S
C733 C729 1.408 . S
C733 C732 1.404 . S
C733 H745 0.930 . S
C734 C730 1.524 . S
C734 H746 0.956 . S
C734 H747 0.961 . S
C734 H748 0.961 . S
C735 C732 1.539 . S
C735 H749 0.958 . S
C735 H750 0.961 1_655 S
C735 H751 0.960 . S
H736 C720 0.931 . S
H737 C725 0.929 . S
H738 C726 0.960 . S
H739 C726 0.962 . S
H740 C726 0.960 . S
H741 C727 0.961 . S
H742 C727 0.961 . S
H743 C727 0.945 1_455 S
H744 C728 0.931 . S
H745 C733 0.930 . S
H746 C734 0.956 . S
H747 C734 0.961 . S
H748 C734 0.961 . S
H749 C735 0.958 . S
H750 C735 0.961 1_455 S
H751 C735 0.960 . S
C752 C753 1.391 . S
C752 C754 1.394 . S
C752 H768 0.931 . S
C753 C752 1.391 . S
C753 C757 1.376 . S
C754 C752 1.394 . S
C754 C755 1.369 . S
C754 C758 1.531 . S
C755 C754 1.369 . S
C755 C756 1.410 . S
C755 C763 1.503 . S
C756 C755 1.410 . S
C756 C757 1.392 . S
C756 C759 1.511 . S
C757 C753 1.376 . S
C757 C756 1.392 . S
C757 H769 0.929 . S
C758 C754 1.531 . S
C758 H770 0.960 . S
C758 H771 0.962 . S
C758 H772 0.960 . S
C759 C756 1.511 . S
C759 H773 0.961 1_565 S
C759 H774 0.961 . S
C759 H775 0.961 . S
C760 C761 1.370 . S
C760 C762 1.363 . S
C760 H776 0.931 . S
C761 C760 1.370 . S
C761 C765 1.408 . S
C762 C760 1.363 . S
C762 C763 1.370 . S
C762 C766 1.524 . S
C763 C755 1.503 . S
C763 C762 1.370 . S
C763 C764 1.403 . S
C764 C763 1.403 . S
C764 C765 1.404 . S
C764 C767 1.539 . S
C765 C761 1.408 . S
C765 C764 1.404 . S
C765 H777 0.930 . S
C766 C762 1.524 . S
C766 H778 0.956 . S
C766 H779 0.961 . S
C766 H780 0.961 . S
C767 C764 1.539 . S
C767 H781 0.958 . S
C767 H782 0.961 1_655 S
C767 H783 0.958 1_655 S
H768 C752 0.931 . S
H769 C757 0.929 . S
H770 C758 0.960 . S
H771 C758 0.962 . S
H772 C758 0.960 . S
H773 C759 0.961 1_545 S
H774 C759 0.961 . S
H775 C759 0.961 . S
H776 C760 0.931 . S
H777 C765 0.930 . S
H778 C766 0.956 . S
H779 C766 0.961 . S
H780 C766 0.961 . S
H781 C767 0.958 . S
H782 C767 0.961 1_455 S
H783 C767 0.958 1_455 S
C784 C785 1.391 . S
C784 C786 1.394 . S
C784 H800 0.931 . S
C785 C784 1.391 . S
C785 C789 1.376 . S
C786 C784 1.394 . S
C786 C787 1.369 . S
C786 C790 1.531 . S
C787 C786 1.369 . S
C787 C788 1.410 . S
C787 C795 1.503 . S
C788 C787 1.410 . S
C788 C789 1.392 . S
C788 C791 1.511 . S
C789 C785 1.376 . S
C789 C788 1.392 . S
C789 H801 0.929 . S
C790 C786 1.531 . S
C790 H802 0.960 . S
C790 H803 0.962 . S
C790 H804 0.960 . S
C791 C788 1.511 . S
C791 H805 0.961 . S
C791 H806 0.961 . S
C791 H807 0.961 . S
C792 C793 1.370 . S
C792 C794 1.363 . S
C792 H808 0.931 . S
C793 C792 1.370 . S
C793 C797 1.408 . S
C794 C792 1.363 . S
C794 C795 1.370 . S
C794 C798 1.524 . S
C795 C787 1.503 . S
C795 C794 1.370 . S
C795 C796 1.403 . S
C796 C795 1.403 . S
C796 C797 1.404 . S
C796 C799 1.539 . S
C797 C793 1.408 . S
C797 C796 1.404 . S
C797 H809 0.930 . S
C798 C794 1.524 . S
C798 H810 0.956 . S
C798 H811 0.961 . S
C798 H812 0.961 . S
C799 C796 1.539 . S
C799 H813 0.958 . S
C799 H814 0.961 . S
C799 H815 0.960 . S
H800 C784 0.931 . S
H801 C789 0.929 . S
H802 C790 0.960 . S
H803 C790 0.962 . S
H804 C790 0.960 . S
H805 C791 0.961 . S
H806 C791 0.961 . S
H807 C791 0.961 . S
H808 C792 0.931 . S
H809 C797 0.930 . S
H810 C798 0.956 . S
H811 C798 0.961 . S
H812 C798 0.961 . S
H813 C799 0.958 . S
H814 C799 0.961 . S
H815 C799 0.960 . S
C816 C817 1.391 . S
C816 C818 1.394 . S
C816 H832 0.931 . S
C817 C816 1.391 . S
C817 C821 1.376 . S
C818 C816 1.394 . S
C818 C819 1.369 . S
C818 C822 1.531 . S
C819 C818 1.369 . S
C819 C820 1.410 . S
C819 C827 1.503 . S
C820 C819 1.410 . S
C820 C821 1.392 . S
C820 C823 1.511 . S
C821 C817 1.376 . S
C821 C820 1.392 . S
C821 H833 0.929 . S
C822 C818 1.531 . S
C822 H834 0.960 . S
C822 H835 0.962 . S
C822 H836 0.960 . S
C823 C820 1.511 . S
C823 H837 0.961 . S
C823 H838 0.961 . S
C823 H839 0.961 . S
C824 C825 1.370 . S
C824 C826 1.363 . S
C824 H840 0.931 . S
C825 C824 1.370 . S
C825 C829 1.408 . S
C826 C824 1.363 . S
C826 C827 1.370 . S
C826 C830 1.524 . S
C827 C819 1.503 . S
C827 C826 1.370 . S
C827 C828 1.403 . S
C828 C827 1.403 . S
C828 C829 1.404 . S
C828 C831 1.539 . S
C829 C825 1.408 . S
C829 C828 1.404 . S
C829 H841 0.930 . S
C830 C826 1.524 . S
C830 H842 0.956 . S
C830 H843 0.961 . S
C830 H844 0.961 . S
C831 C828 1.539 . S
C831 H845 0.958 . S
C831 H846 0.961 . S
C831 H847 0.960 . S
H832 C816 0.931 . S
H833 C821 0.929 . S
H834 C822 0.960 . S
H835 C822 0.962 . S
H836 C822 0.960 . S
H837 C823 0.961 . S
H838 C823 0.961 . S
H839 C823 0.961 . S
H840 C824 0.931 . S
H841 C829 0.930 . S
H842 C830 0.956 . S
H843 C830 0.961 . S
H844 C830 0.961 . S
H845 C831 0.958 . S
H846 C831 0.961 . S
H847 C831 0.960 . S
C848 C849 1.391 . S
C848 C850 1.394 . S
C848 H864 0.931 . S
C849 C848 1.391 . S
C849 C853 1.376 . S
C850 C848 1.394 . S
C850 C851 1.369 . S
C850 C854 1.531 . S
C851 C850 1.369 . S
C851 C852 1.410 . S
C851 C859 1.503 . S
C852 C851 1.410 . S
C852 C853 1.392 . S
C852 C855 1.511 . S
C853 C849 1.376 . S
C853 C852 1.392 . S
C853 H865 0.929 . S
C854 C850 1.531 . S
C854 H866 0.960 . S
C854 H867 0.962 . S
C854 H868 0.960 . S
C855 C852 1.511 . S
C855 H869 0.961 . S
C855 H870 0.961 . S
C855 H871 0.961 . S
C856 C857 1.370 . S
C856 C858 1.363 . S
C856 H872 0.931 . S
C857 C856 1.370 . S
C857 C861 1.408 . S
C858 C856 1.363 . S
C858 C859 1.370 . S
C858 C862 1.524 . S
C859 C851 1.503 . S
C859 C858 1.370 . S
C859 C860 1.403 . S
C860 C859 1.403 . S
C860 C861 1.404 . S
C860 C863 1.539 . S
C861 C857 1.408 . S
C861 C860 1.404 . S
C861 H873 0.930 . S
C862 C858 1.524 . S
C862 H874 0.956 . S
C862 H875 0.961 . S
C862 H876 0.961 . S
C863 C860 1.539 . S
C863 H877 0.958 . S
C863 H878 0.961 . S
C863 H879 0.960 . S
H864 C848 0.931 . S
H865 C853 0.929 . S
H866 C854 0.960 . S
H867 C854 0.962 . S
H868 C854 0.960 . S
H869 C855 0.961 . S
H870 C855 0.961 . S
H871 C855 0.961 . S
H872 C856 0.931 . S
H873 C861 0.930 . S
H874 C862 0.956 . S
H875 C862 0.961 . S
H876 C862 0.961 . S
H877 C863 0.958 . S
H878 C863 0.961 . S
H879 C863 0.960 . S
C880 C881 1.391 . S
C880 C882 1.394 . S
C880 H896 0.931 . S
C881 C880 1.391 . S
C881 C885 1.376 . S
C882 C880 1.394 . S
C882 C883 1.369 . S
C882 C886 1.531 . S
C883 C882 1.369 . S
C883 C884 1.410 . S
C883 C891 1.503 . S
C884 C883 1.410 . S
C884 C885 1.392 . S
C884 C887 1.511 . S
C885 C881 1.376 . S
C885 C884 1.392 . S
C885 H897 0.929 . S
C886 C882 1.531 . S
C886 H898 0.960 . S
C886 H899 0.962 . S
C886 H900 0.960 . S
C887 C884 1.511 . S
C887 H901 0.961 . S
C887 H902 0.961 . S
C887 H903 0.961 . S
C888 C889 1.370 . S
C888 C890 1.363 . S
C888 H904 0.931 . S
C889 C888 1.370 . S
C889 C893 1.408 . S
C890 C888 1.363 . S
C890 C891 1.370 . S
C890 C894 1.524 . S
C891 C883 1.503 . S
C891 C890 1.370 . S
C891 C892 1.403 . S
C892 C891 1.403 . S
C892 C893 1.404 . S
C892 C895 1.539 . S
C893 C889 1.408 . S
C893 C892 1.404 . S
C893 H905 0.930 . S
C894 C890 1.524 . S
C894 H906 0.956 . S
C894 H907 0.961 . S
C894 H908 0.961 . S
C895 C892 1.539 . S
C895 H909 0.958 . S
C895 H910 0.961 . S
C895 H911 0.960 . S
H896 C880 0.931 . S
H897 C885 0.929 . S
H898 C886 0.960 . S
H899 C886 0.962 . S
H900 C886 0.960 . S
H901 C887 0.961 . S
H902 C887 0.961 . S
H903 C887 0.961 . S
H904 C888 0.931 . S
H905 C893 0.930 . S
H906 C894 0.956 . S
H907 C894 0.961 . S
H908 C894 0.961 . S
H909 C895 0.958 . S
H910 C895 0.961 . S
H911 C895 0.960 . S
C912 C913 1.391 . S
C912 C914 1.394 . S
C912 H928 0.931 . S
C913 C912 1.391 . S
C913 C917 1.376 . S
C914 C912 1.394 . S
C914 C915 1.369 . S
C914 C918 1.531 . S
C915 C914 1.369 . S
C915 C916 1.410 . S
C915 C923 1.503 . S
C916 C915 1.410 . S
C916 C917 1.392 . S
C916 C919 1.511 . S
C917 C913 1.376 . S
C917 C916 1.392 . S
C917 H929 0.929 . S
C918 C914 1.531 . S
C918 H930 0.960 . S
C918 H931 0.962 . S
C918 H932 0.960 . S
C919 C916 1.511 . S
C919 H933 0.961 . S
C919 H934 0.961 . S
C919 H935 0.961 . S
C920 C921 1.370 . S
C920 C922 1.363 . S
C920 H936 0.931 . S
C921 C920 1.370 . S
C921 C925 1.408 . S
C922 C920 1.363 . S
C922 C923 1.370 . S
C922 C926 1.524 . S
C923 C915 1.503 . S
C923 C922 1.370 . S
C923 C924 1.403 . S
C924 C923 1.403 . S
C924 C925 1.404 . S
C924 C927 1.539 . S
C925 C921 1.408 . S
C925 C924 1.404 . S
C925 H937 0.930 . S
C926 C922 1.524 . S
C926 H938 0.956 . S
C926 H939 0.961 . S
C926 H940 0.961 . S
C927 C924 1.539 . S
C927 H941 0.958 . S
C927 H942 0.961 . S
C927 H943 0.960 . S
H928 C912 0.931 . S
H929 C917 0.929 . S
H930 C918 0.960 . S
H931 C918 0.962 . S
H932 C918 0.960 . S
H933 C919 0.961 . S
H934 C919 0.961 . S
H935 C919 0.961 . S
H936 C920 0.931 . S
H937 C925 0.930 . S
H938 C926 0.956 . S
H939 C926 0.961 . S
H940 C926 0.961 . S
H941 C927 0.958 . S
H942 C927 0.961 . S
H943 C927 0.960 . S
C944 C945 1.391 . S
C944 C946 1.394 . S
C944 H960 0.931 . S
C945 C944 1.391 . S
C945 C949 1.376 . S
C946 C944 1.394 . S
C946 C947 1.369 . S
C946 C950 1.531 . S
C947 C946 1.369 . S
C947 C948 1.410 . S
C947 C955 1.503 . S
C948 C947 1.410 . S
C948 C949 1.392 . S
C948 C951 1.511 . S
C949 C945 1.376 . S
C949 C948 1.392 . S
C949 H961 0.929 . S
C950 C946 1.531 . S
C950 H962 0.960 . S
C950 H963 0.962 . S
C950 H964 0.960 . S
C951 C948 1.511 . S
C951 H965 0.961 . S
C951 H966 0.961 . S
C951 H967 0.961 . S
C952 C953 1.370 . S
C952 C954 1.363 . S
C952 H968 0.931 . S
C953 C952 1.370 . S
C953 C957 1.408 . S
C954 C952 1.363 . S
C954 C955 1.370 . S
C954 C958 1.524 . S
C955 C947 1.503 . S
C955 C954 1.370 . S
C955 C956 1.403 . S
C956 C955 1.403 . S
C956 C957 1.404 . S
C956 C959 1.539 . S
C957 C953 1.408 . S
C957 C956 1.404 . S
C957 H969 0.930 . S
C958 C954 1.524 . S
C958 H970 0.956 . S
C958 H971 0.961 . S
C958 H972 0.961 . S
C959 C956 1.539 . S
C959 H973 0.958 . S
C959 H974 0.961 . S
C959 H975 0.960 . S
H960 C944 0.931 . S
H961 C949 0.929 . S
H962 C950 0.960 . S
H963 C950 0.962 . S
H964 C950 0.960 . S
H965 C951 0.961 . S
H966 C951 0.961 . S
H967 C951 0.961 . S
H968 C952 0.931 . S
H969 C957 0.930 . S
H970 C958 0.956 . S
H971 C958 0.961 . S
H972 C958 0.961 . S
H973 C959 0.958 . S
H974 C959 0.961 . S
H975 C959 0.960 . S
C976 C977 1.391 . S
C976 C978 1.394 . S
C976 H992 0.931 . S
C977 C976 1.391 . S
C977 C981 1.376 . S
C978 C976 1.394 . S
C978 C979 1.369 . S
C978 C982 1.531 . S
C979 C978 1.369 . S
C979 C980 1.410 . S
C979 C987 1.503 . S
C980 C979 1.410 . S
C980 C981 1.392 . S
C980 C983 1.511 . S
C981 C977 1.376 . S
C981 C980 1.392 . S
C981 H993 0.929 . S
C982 C978 1.531 . S
C982 H994 0.960 . S
C982 H995 0.962 . S
C982 H996 0.960 . S
C983 C980 1.511 . S
C983 H997 0.961 . S
C983 H998 0.961 . S
C983 H999 0.961 . S
C984 C985 1.370 . S
C984 C986 1.363 . S
C984 H1000 0.931 . S
C985 C984 1.370 . S
C985 C989 1.408 . S
C986 C984 1.363 . S
C986 C987 1.370 . S
C986 C990 1.524 . S
C987 C979 1.503 . S
C987 C986 1.370 . S
C987 C988 1.403 . S
C988 C987 1.403 . S
C988 C989 1.404 . S
C988 C991 1.539 . S
C989 C985 1.408 . S
C989 C988 1.404 . S
C989 H1001 0.930 . S
C990 C986 1.524 . S
C990 H1002 0.956 . S
C990 H1003 0.961 . S
C990 H1004 0.961 . S
C991 C988 1.539 . S
C991 H1005 0.958 . S
C991 H1006 0.961 . S
C991 H1007 0.960 . S
H992 C976 0.931 . S
H993 C981 0.929 . S
H994 C982 0.960 . S
H995 C982 0.962 . S
H996 C982 0.960 . S
H997 C983 0.961 . S
H998 C983 0.961 . S
H999 C983 0.961 . S
H1000 C984 0.931 . S
H1001 C989 0.930 . S
H1002 C990 0.956 . S
H1003 C990 0.961 . S
H1004 C990 0.961 . S
H1005 C991 0.958 . S
H1006 C991 0.961 . S
H1007 C991 0.960 . S
C1008 C1009 1.391 . S
C1008 C1010 1.394 . S
C1008 H1024 0.931 . S
C1009 C1008 1.391 . S
C1009 C1013 1.376 . S
C1010 C1008 1.394 . S
C1010 C1011 1.369 . S
C1010 C1014 1.531 . S
C1011 C1010 1.369 . S
C1011 C1012 1.410 . S
C1011 C1019 1.503 . S
C1012 C1011 1.410 . S
C1012 C1013 1.392 . S
C1012 C1015 1.511 . S
C1013 C1009 1.376 . S
C1013 C1012 1.392 . S
C1013 H1025 0.929 . S
C1014 C1010 1.531 . S
C1014 H1026 0.960 . S
C1014 H1027 0.962 . S
C1014 H1028 0.960 . S
C1015 C1012 1.511 . S
C1015 H1029 0.961 . S
C1015 H1030 0.961 . S
C1015 H1031 0.961 . S
C1016 C1017 1.370 . S
C1016 C1018 1.363 . S
C1016 H1032 0.931 . S
C1017 C1016 1.370 . S
C1017 C1021 1.408 . S
C1018 C1016 1.363 . S
C1018 C1019 1.370 . S
C1018 C1022 1.524 . S
C1019 C1011 1.503 . S
C1019 C1018 1.370 . S
C1019 C1020 1.403 . S
C1020 C1019 1.403 . S
C1020 C1021 1.404 . S
C1020 C1023 1.539 . S
C1021 C1017 1.408 . S
C1021 C1020 1.404 . S
C1021 H1033 0.930 . S
C1022 C1018 1.524 . S
C1022 H1034 0.956 . S
C1022 H1035 0.961 . S
C1022 H1036 0.961 . S
C1023 C1020 1.539 . S
C1023 H1037 0.958 . S
C1023 H1038 0.961 . S
C1023 H1039 0.960 . S
H1024 C1008 0.931 . S
H1025 C1013 0.929 . S
H1026 C1014 0.960 . S
H1027 C1014 0.962 . S
H1028 C1014 0.960 . S
H1029 C1015 0.961 . S
H1030 C1015 0.961 . S
H1031 C1015 0.961 . S
H1032 C1016 0.931 . S
H1033 C1021 0.930 . S
H1034 C1022 0.956 . S
H1035 C1022 0.961 . S
H1036 C1022 0.961 . S
H1037 C1023 0.958 . S
H1038 C1023 0.961 . S
H1039 C1023 0.960 . S
C1040 C1041 1.391 . S
C1040 C1042 1.394 . S
C1040 H1056 0.931 . S
C1041 C1040 1.391 . S
C1041 C1045 1.376 . S
C1042 C1040 1.394 . S
C1042 C1043 1.369 . S
C1042 C1046 1.531 . S
C1043 C1042 1.369 . S
C1043 C1044 1.410 . S
C1043 C1051 1.503 . S
C1044 C1043 1.410 . S
C1044 C1045 1.392 . S
C1044 C1047 1.511 . S
C1045 C1041 1.376 . S
C1045 C1044 1.392 . S
C1045 H1057 0.929 . S
C1046 C1042 1.531 . S
C1046 H1058 0.960 . S
C1046 H1059 0.962 . S
C1046 H1060 0.960 . S
C1047 C1044 1.511 . S
C1047 H1061 0.961 . S
C1047 H1062 0.961 . S
C1047 H1063 0.961 . S
C1048 C1049 1.370 . S
C1048 C1050 1.363 . S
C1048 H1064 0.931 . S
C1049 C1048 1.370 . S
C1049 C1053 1.408 . S
C1050 C1048 1.363 . S
C1050 C1051 1.370 . S
C1050 C1054 1.524 . S
C1051 C1043 1.503 . S
C1051 C1050 1.370 . S
C1051 C1052 1.403 . S
C1052 C1051 1.403 . S
C1052 C1053 1.404 . S
C1052 C1055 1.539 . S
C1053 C1049 1.408 . S
C1053 C1052 1.404 . S
C1053 H1065 0.930 . S
C1054 C1050 1.524 . S
C1054 H1066 0.956 . S
C1054 H1067 0.961 . S
C1054 H1068 0.961 . S
C1055 C1052 1.539 . S
C1055 H1069 0.958 . S
C1055 H1070 0.961 . S
C1055 H1071 0.960 . S
H1056 C1040 0.931 . S
H1057 C1045 0.929 . S
H1058 C1046 0.960 . S
H1059 C1046 0.962 . S
H1060 C1046 0.960 . S
H1061 C1047 0.961 . S
H1062 C1047 0.961 . S
H1063 C1047 0.961 . S
H1064 C1048 0.931 . S
H1065 C1053 0.930 . S
H1066 C1054 0.956 . S
H1067 C1054 0.961 . S
H1068 C1054 0.961 . S
H1069 C1055 0.958 . S
H1070 C1055 0.961 . S
H1071 C1055 0.960 . S
C1072 C1073 1.391 . S
C1072 C1074 1.394 . S
C1072 H1088 0.931 . S
C1073 C1072 1.391 . S
C1073 C1077 1.376 . S
C1074 C1072 1.394 . S
C1074 C1075 1.369 . S
C1074 C1078 1.531 . S
C1075 C1074 1.369 . S
C1075 C1076 1.410 . S
C1075 C1083 1.503 . S
C1076 C1075 1.410 . S
C1076 C1077 1.392 . S
C1076 C1079 1.511 . S
C1077 C1073 1.376 . S
C1077 C1076 1.392 . S
C1077 H1089 0.929 . S
C1078 C1074 1.531 . S
C1078 H1090 0.960 . S
C1078 H1091 0.962 . S
C1078 H1092 0.960 . S
C1079 C1076 1.511 . S
C1079 H1093 0.961 . S
C1079 H1094 0.961 . S
C1079 H1095 0.961 . S
C1080 C1081 1.370 . S
C1080 C1082 1.363 . S
C1080 H1096 0.931 . S
C1081 C1080 1.370 . S
C1081 C1085 1.408 . S
C1082 C1080 1.363 . S
C1082 C1083 1.370 . S
C1082 C1086 1.524 . S
C1083 C1075 1.503 . S
C1083 C1082 1.370 . S
C1083 C1084 1.403 . S
C1084 C1083 1.403 . S
C1084 C1085 1.404 . S
C1084 C1087 1.539 . S
C1085 C1081 1.408 . S
C1085 C1084 1.404 . S
C1085 H1097 0.930 . S
C1086 C1082 1.524 . S
C1086 H1098 0.956 . S
C1086 H1099 0.961 . S
C1086 H1100 0.961 . S
C1087 C1084 1.539 . S
C1087 H1101 0.958 . S
C1087 H1102 0.961 . S
C1087 H1103 0.960 . S
H1088 C1072 0.931 . S
H1089 C1077 0.929 . S
H1090 C1078 0.960 . S
H1091 C1078 0.962 . S
H1092 C1078 0.960 . S
H1093 C1079 0.961 . S
H1094 C1079 0.961 . S
H1095 C1079 0.961 . S
H1096 C1080 0.931 . S
H1097 C1085 0.930 . S
H1098 C1086 0.956 . S
H1099 C1086 0.961 . S
H1100 C1086 0.961 . S
H1101 C1087 0.958 . S
H1102 C1087 0.961 . S
H1103 C1087 0.960 . S
C1104 C1105 1.391 . S
C1104 C1106 1.394 . S
C1104 H1120 0.931 . S
C1105 C1104 1.391 . S
C1105 C1109 1.376 . S
C1106 C1104 1.394 . S
C1106 C1107 1.369 . S
C1106 C1110 1.531 . S
C1107 C1106 1.369 . S
C1107 C1108 1.410 . S
C1107 C1115 1.503 . S
C1108 C1107 1.410 . S
C1108 C1109 1.392 . S
C1108 C1111 1.511 1_655 S
C1109 C1105 1.376 . S
C1109 C1108 1.392 . S
C1109 H1121 0.929 1_655 S
C1110 C1106 1.531 . S
C1110 H1122 0.960 . S
C1110 H1123 0.962 . S
C1110 H1124 0.960 . S
C1111 C1108 1.511 1_455 S
C1111 H1125 0.961 . S
C1111 H1126 0.961 . S
C1111 H1127 0.961 . S
C1112 C1113 1.363 1_655 S
C1112 C1114 1.363 . S
C1112 H1128 0.931 . S
C1113 C1112 1.363 1_455 S
C1113 C1117 1.410 . S
C1114 C1112 1.363 . S
C1114 C1115 1.370 . S
C1114 C1118 1.524 . S
C1115 C1107 1.503 . S
C1115 C1114 1.370 . S
C1115 C1116 1.403 . S
C1116 C1115 1.403 . S
C1116 C1117 1.404 1_655 S
C1116 C1119 1.539 . S
C1117 C1113 1.410 . S
C1117 C1116 1.404 1_455 S
C1117 H1129 0.930 . S
C1118 C1114 1.524 . S
C1118 H1130 0.956 . S
C1118 H1131 0.961 . S
C1118 H1132 0.961 . S
C1119 C1116 1.539 . S
C1119 H1133 0.958 . S
C1119 H1134 0.961 1_655 S
C1119 H1135 0.960 1_655 S
H1120 C1104 0.931 . S
H1121 C1109 0.929 1_455 S
H1122 C1110 0.960 . S
H1123 C1110 0.962 . S
H1124 C1110 0.960 . S
H1125 C1111 0.961 . S
H1126 C1111 0.961 . S
H1127 C1111 0.961 . S
H1128 C1112 0.931 . S
H1129 C1117 0.930 . S
H1130 C1118 0.956 . S
H1131 C1118 0.961 . S
H1132 C1118 0.961 . S
H1133 C1119 0.958 . S
H1134 C1119 0.961 1_455 S
H1135 C1119 0.960 1_455 S
C1136 C1137 1.391 1_545 S
C1136 C1138 1.394 . S
C1136 H1152 0.931 . S
C1137 C1136 1.391 1_565 S
C1137 C1141 1.376 . S
C1138 C1136 1.394 . S
C1138 C1139 1.369 1_545 S
C1138 C1142 1.531 . S
C1139 C1138 1.369 1_565 S
C1139 C1140 1.410 . S
C1139 C1147 1.503 . S
C1140 C1139 1.410 . S
C1140 C1141 1.392 . S
C1140 C1143 1.511 . S
C1141 C1137 1.376 . S
C1141 C1140 1.392 . S
C1141 H1153 0.929 . S
C1142 C1138 1.531 . S
C1142 H1154 0.960 . S
C1142 H1155 0.962 . S
C1142 H1156 0.960 . S
C1143 C1140 1.511 . S
C1143 H1157 0.961 . S
C1143 H1158 0.961 . S
C1143 H1159 0.961 . S
C1144 C1145 1.370 . S
C1144 C1146 1.363 . S
C1144 H1160 0.931 . S
C1145 C1144 1.370 . S
C1145 C1149 1.408 . S
C1146 C1144 1.363 . S
C1146 C1147 1.370 . S
C1146 C1150 1.524 1_565 S
C1147 C1139 1.503 . S
C1147 C1146 1.370 . S
C1147 C1148 1.403 . S
C1148 C1147 1.403 . S
C1148 C1149 1.404 . S
C1148 C1151 1.539 . S
C1149 C1145 1.408 . S
C1149 C1148 1.404 . S
C1149 H1161 0.930 . S
C1150 C1146 1.524 1_545 S
C1150 H1162 0.956 . S
C1150 H1163 0.961 . S
C1150 H1164 0.961 . S
C1151 C1148 1.539 . S
C1151 H1165 0.958 . S
C1151 H1166 0.961 . S
C1151 H1167 0.960 . S
H1152 C1136 0.931 . S
H1153 C1141 0.929 . S
H1154 C1142 0.960 . S
H1155 C1142 0.962 . S
H1156 C1142 0.960 . S
H1157 C1143 0.961 . S
H1158 C1143 0.961 . S
H1159 C1143 0.961 . S
H1160 C1144 0.931 . S
H1161 C1149 0.930 . S
H1162 C1150 0.956 . S
H1163 C1150 0.961 . S
H1164 C1150 0.961 . S
H1165 C1151 0.958 . S
H1166 C1151 0.961 . S
H1167 C1151 0.960 . S
C1168 C1169 1.391 . S
C1168 C1170 1.394 . S
C1168 H1184 0.931 . S
C1169 C1168 1.391 . S
C1169 C1173 1.376 . S
C1170 C1168 1.394 . S
C1170 C1171 1.369 . S
C1170 C1174 1.531 . S
C1171 C1170 1.369 . S
C1171 C1172 1.410 . S
C1171 C1179 1.503 . S
C1172 C1171 1.410 . S
C1172 C1173 1.392 . S
C1172 C1175 1.511 . S
C1173 C1169 1.376 . S
C1173 C1172 1.392 . S
C1173 H1185 0.929 . S
C1174 C1170 1.531 . S
C1174 H1186 0.960 . S
C1174 H1187 0.962 . S
C1174 H1188 0.960 . S
C1175 C1172 1.511 . S
C1175 H1189 0.961 . S
C1175 H1190 0.961 . S
C1175 H1191 0.961 . S
C1176 C1177 1.370 . S
C1176 C1178 1.363 . S
C1176 H1192 0.931 . S
C1177 C1176 1.370 . S
C1177 C1181 1.408 . S
C1178 C1176 1.363 . S
C1178 C1179 1.370 . S
C1178 C1182 1.524 . S
C1179 C1171 1.503 . S
C1179 C1178 1.370 . S
C1179 C1180 1.403 . S
C1180 C1179 1.403 . S
C1180 C1181 1.404 . S
C1180 C1183 1.539 . S
C1181 C1177 1.408 . S
C1181 C1180 1.404 . S
C1181 H1193 0.930 . S
C1182 C1178 1.524 . S
C1182 H1194 0.956 . S
C1182 H1195 0.961 . S
C1182 H1196 0.961 . S
C1183 C1180 1.539 . S
C1183 H1197 0.958 . S
C1183 H1198 0.961 . S
C1183 H1199 0.960 . S
H1184 C1168 0.931 . S
H1185 C1173 0.929 . S
H1186 C1174 0.960 . S
H1187 C1174 0.962 . S
H1188 C1174 0.960 . S
H1189 C1175 0.961 . S
H1190 C1175 0.961 . S
H1191 C1175 0.961 . S
H1192 C1176 0.931 . S
H1193 C1181 0.930 . S
H1194 C1182 0.956 . S
H1195 C1182 0.961 . S
H1196 C1182 0.961 . S
H1197 C1183 0.958 . S
H1198 C1183 0.961 . S
H1199 C1183 0.960 . S
C1200 C1201 1.391 . S
C1200 C1202 1.394 . S
C1200 H1216 0.931 . S
C1201 C1200 1.391 . S
C1201 C1205 1.376 . S
C1202 C1200 1.394 . S
C1202 C1203 1.369 . S
C1202 C1206 1.531 . S
C1203 C1202 1.369 . S
C1203 C1204 1.410 . S
C1203 C1211 1.503 . S
C1204 C1203 1.410 . S
C1204 C1205 1.392 . S
C1204 C1207 1.511 . S
C1205 C1201 1.376 . S
C1205 C1204 1.392 . S
C1205 H1217 0.929 . S
C1206 C1202 1.531 . S
C1206 H1218 0.960 . S
C1206 H1219 0.962 . S
C1206 H1220 0.960 . S
C1207 C1204 1.511 . S
C1207 H1221 0.961 . S
C1207 H1222 0.961 . S
C1207 H1223 0.961 . S
C1208 C1209 1.370 . S
C1208 C1210 1.363 . S
C1208 H1224 0.931 . S
C1209 C1208 1.370 . S
C1209 C1213 1.408 . S
C1210 C1208 1.363 . S
C1210 C1211 1.370 . S
C1210 C1214 1.524 . S
C1211 C1203 1.503 . S
C1211 C1210 1.370 . S
C1211 C1212 1.403 . S
C1212 C1211 1.403 . S
C1212 C1213 1.404 . S
C1212 C1215 1.539 . S
C1213 C1209 1.408 . S
C1213 C1212 1.404 . S
C1213 H1225 0.930 . S
C1214 C1210 1.524 . S
C1214 H1226 0.956 . S
C1214 H1227 0.961 . S
C1214 H1228 0.961 . S
C1215 C1212 1.539 . S
C1215 H1229 0.958 . S
C1215 H1230 0.961 . S
C1215 H1231 0.960 . S
H1216 C1200 0.931 . S
H1217 C1205 0.929 . S
H1218 C1206 0.960 . S
H1219 C1206 0.962 . S
H1220 C1206 0.960 . S
H1221 C1207 0.961 . S
H1222 C1207 0.961 . S
H1223 C1207 0.961 . S
H1224 C1208 0.931 . S
H1225 C1213 0.930 . S
H1226 C1214 0.956 . S
H1227 C1214 0.961 . S
H1228 C1214 0.961 . S
H1229 C1215 0.958 . S
H1230 C1215 0.961 . S
H1231 C1215 0.960 . S
C1232 C1233 1.391 . S
C1232 C1234 1.394 . S
C1232 H1248 0.931 . S
C1233 C1232 1.391 . S
C1233 C1237 1.376 . S
C1234 C1232 1.394 . S
C1234 C1235 1.369 . S
C1234 C1238 1.531 . S
C1235 C1234 1.369 . S
C1235 C1236 1.410 . S
C1235 C1243 1.503 . S
C1236 C1235 1.410 . S
C1236 C1237 1.392 . S
C1236 C1239 1.511 1_655 S
C1237 C1233 1.376 . S
C1237 C1236 1.392 . S
C1237 H1249 0.929 . S
C1238 C1234 1.531 . S
C1238 H1250 0.960 . S
C1238 H1251 0.962 . S
C1238 H1252 0.960 . S
C1239 C1236 1.511 1_455 S
C1239 H1253 0.961 . S
C1239 H1254 0.961 . S
C1239 H1255 0.961 . S
C1240 C1241 1.370 1_655 S
C1240 C1242 1.363 . S
C1240 H1256 0.931 . S
C1241 C1240 1.370 1_455 S
C1241 C1245 1.408 . S
C1242 C1240 1.363 . S
C1242 C1243 1.370 . S
C1242 C1246 1.524 . S
C1243 C1235 1.503 . S
C1243 C1242 1.370 . S
C1243 C1244 1.403 1_655 S
C1244 C1243 1.403 1_455 S
C1244 C1245 1.404 . S
C1244 C1247 1.539 . S
C1245 C1241 1.408 . S
C1245 C1244 1.404 . S
C1245 H1257 0.930 . S
C1246 C1242 1.524 . S
C1246 H1258 0.956 . S
C1246 H1259 0.961 . S
C1246 H1260 0.961 . S
C1247 C1244 1.539 . S
C1247 H1261 0.958 . S
C1247 H1262 0.961 . S
C1247 H1263 0.960 . S
H1248 C1232 0.931 . S
H1249 C1237 0.929 . S
H1250 C1238 0.960 . S
H1251 C1238 0.962 . S
H1252 C1238 0.960 . S
H1253 C1239 0.961 . S
H1254 C1239 0.961 . S
H1255 C1239 0.961 . S
H1256 C1240 0.931 . S
H1257 C1245 0.930 . S
H1258 C1246 0.956 . S
H1259 C1246 0.961 . S
H1260 C1246 0.961 . S
H1261 C1247 0.958 . S
H1262 C1247 0.961 . S
H1263 C1247 0.960 . S
C1264 C1265 1.391 . S
C1264 C1266 1.394 . S
C1264 H1280 0.931 . S
C1265 C1264 1.391 . S
C1265 C1269 1.376 . S
C1266 C1264 1.394 . S
C1266 C1267 1.369 . S
C1266 C1270 1.531 1_565 S
C1267 C1266 1.369 . S
C1267 C1268 1.410 . S
C1267 C1275 1.503 . S
C1268 C1267 1.410 . S
C1268 C1269 1.392 . S
C1268 C1271 1.511 . S
C1269 C1265 1.376 . S
C1269 C1268 1.392 . S
C1269 H1281 0.929 . S
C1270 C1266 1.531 1_545 S
C1270 H1282 0.960 . S
C1270 H1283 0.962 1_545 S
C1270 H1284 0.960 . S
C1271 C1268 1.511 . S
C1271 H1285 0.961 . S
C1271 H1286 0.961 . S
C1271 H1287 0.961 . S
C1272 C1273 1.370 1_565 S
C1272 C1274 1.363 . S
C1272 H1288 0.931 . S
C1273 C1272 1.370 1_545 S
C1273 C1277 1.408 . S
C1274 C1272 1.363 . S
C1274 C1275 1.370 . S
C1274 C1278 1.524 . S
C1275 C1267 1.503 . S
C1275 C1274 1.370 . S
C1275 C1276 1.403 1_565 S
C1276 C1275 1.403 1_545 S
C1276 C1277 1.404 . S
C1276 C1279 1.539 . S
C1277 C1273 1.408 . S
C1277 C1276 1.404 . S
C1277 H1289 0.930 . S
C1278 C1274 1.524 . S
C1278 H1290 0.956 . S
C1278 H1291 0.961 . S
C1278 H1292 0.961 . S
C1279 C1276 1.539 . S
C1279 H1293 0.958 . S
C1279 H1294 0.961 . S
C1279 H1295 0.960 . S
H1280 C1264 0.931 . S
H1281 C1269 0.929 . S
H1282 C1270 0.960 . S
H1283 C1270 0.962 1_565 S
H1284 C1270 0.960 . S
H1285 C1271 0.961 . S
H1286 C1271 0.961 . S
H1287 C1271 0.961 . S
H1288 C1272 0.931 . S
H1289 C1277 0.930 . S
H1290 C1278 0.956 . S
H1291 C1278 0.961 . S
H1292 C1278 0.961 . S
H1293 C1279 0.958 . S
H1294 C1279 0.961 . S
H1295 C1279 0.960 . S
C1296 C1297 1.391 . S
C1296 C1298 1.394 . S
C1296 H1312 0.931 . S
C1297 C1296 1.391 . S
C1297 C1301 1.376 . S
C1298 C1296 1.394 . S
C1298 C1299 1.369 . S
C1298 C1302 1.531 . S
C1299 C1298 1.369 . S
C1299 C1300 1.410 . S
C1299 C1307 1.503 . S
C1300 C1299 1.410 . S
C1300 C1301 1.392 . S
C1300 C1303 1.511 . S
C1301 C1297 1.376 . S
C1301 C1300 1.392 . S
C1301 H1313 0.929 . S
C1302 C1298 1.531 . S
C1302 H1314 0.960 . S
C1302 H1315 0.962 . S
C1302 H1316 0.960 . S
C1303 C1300 1.511 . S
C1303 H1317 0.961 . S
C1303 H1318 0.961 . S
C1303 H1319 0.961 . S
C1304 C1305 1.370 . S
C1304 C1306 1.363 . S
C1304 H1320 0.931 . S
C1305 C1304 1.370 . S
C1305 C1309 1.408 . S
C1306 C1304 1.363 . S
C1306 C1307 1.370 . S
C1306 C1310 1.524 . S
C1307 C1299 1.503 . S
C1307 C1306 1.370 . S
C1307 C1308 1.403 . S
C1308 C1307 1.403 . S
C1308 C1309 1.404 . S
C1308 C1311 1.539 . S
C1309 C1305 1.408 . S
C1309 C1308 1.404 . S
C1309 H1321 0.930 . S
C1310 C1306 1.524 . S
C1310 H1322 0.956 . S
C1310 H1323 0.961 . S
C1310 H1324 0.961 . S
C1311 C1308 1.539 . S
C1311 H1325 0.958 . S
C1311 H1326 0.961 . S
C1311 H1327 0.960 . S
H1312 C1296 0.931 . S
H1313 C1301 0.929 . S
H1314 C1302 0.960 . S
H1315 C1302 0.962 . S
H1316 C1302 0.960 . S
H1317 C1303 0.961 . S
H1318 C1303 0.961 . S
H1319 C1303 0.961 . S
H1320 C1304 0.931 . S
H1321 C1309 0.930 . S
H1322 C1310 0.956 . S
H1323 C1310 0.961 . S
H1324 C1310 0.961 . S
H1325 C1311 0.958 . S
H1326 C1311 0.961 . S
H1327 C1311 0.960 . S
C1328 C1329 1.391 . S
C1328 C1330 1.394 . S
C1328 H1344 0.931 . S
C1329 C1328 1.391 . S
C1329 C1333 1.376 . S
C1330 C1328 1.394 . S
C1330 C1331 1.369 . S
C1330 C1334 1.531 . S
C1331 C1330 1.369 . S
C1331 C1332 1.410 . S
C1331 C1339 1.503 . S
C1332 C1331 1.410 . S
C1332 C1333 1.392 . S
C1332 C1335 1.511 . S
C1333 C1329 1.376 . S
C1333 C1332 1.392 . S
C1333 H1345 0.929 . S
C1334 C1330 1.531 . S
C1334 H1346 0.960 . S
C1334 H1347 0.962 . S
C1334 H1348 0.960 . S
C1335 C1332 1.511 . S
C1335 H1349 0.961 . S
C1335 H1350 0.961 . S
C1335 H1351 0.961 . S
C1336 C1337 1.370 . S
C1336 C1338 1.363 . S
C1336 H1352 0.931 . S
C1337 C1336 1.370 . S
C1337 C1341 1.408 . S
C1338 C1336 1.363 . S
C1338 C1339 1.370 . S
C1338 C1342 1.524 . S
C1339 C1331 1.503 . S
C1339 C1338 1.370 . S
C1339 C1340 1.403 . S
C1340 C1339 1.403 . S
C1340 C1341 1.404 . S
C1340 C1343 1.539 . S
C1341 C1337 1.408 . S
C1341 C1340 1.404 . S
C1341 H1353 0.930 . S
C1342 C1338 1.524 . S
C1342 H1354 0.956 . S
C1342 H1355 0.961 . S
C1342 H1356 0.961 . S
C1343 C1340 1.539 . S
C1343 H1357 0.958 . S
C1343 H1358 0.961 . S
C1343 H1359 0.960 . S
H1344 C1328 0.931 . S
H1345 C1333 0.929 . S
H1346 C1334 0.960 . S
H1347 C1334 0.962 . S
H1348 C1334 0.960 . S
H1349 C1335 0.961 . S
H1350 C1335 0.961 . S
H1351 C1335 0.961 . S
H1352 C1336 0.931 . S
H1353 C1341 0.930 . S
H1354 C1342 0.956 . S
H1355 C1342 0.961 . S
H1356 C1342 0.961 . S
H1357 C1343 0.958 . S
H1358 C1343 0.961 . S
H1359 C1343 0.960 . S
C1360 C1361 1.391 1_655 S
C1360 C1362 1.394 . S
C1360 H1376 0.931 . S
C1361 C1360 1.391 1_455 S
C1361 C1365 1.376 . S
C1362 C1360 1.394 . S
C1362 C1363 1.369 1_655 S
C1362 C1366 1.531 . S
C1363 C1362 1.369 1_455 S
C1363 C1364 1.410 . S
C1363 C1371 1.503 . S
C1364 C1363 1.410 . S
C1364 C1365 1.392 . S
C1364 C1367 1.511 . S
C1365 C1361 1.376 . S
C1365 C1364 1.392 . S
C1365 H1377 0.929 . S
C1366 C1362 1.531 . S
C1366 H1378 0.960 . S
C1366 H1379 0.962 . S
C1366 H1380 0.960 . S
C1367 C1364 1.511 . S
C1367 H1381 0.961 . S
C1367 H1382 0.961 . S
C1367 H1383 0.961 . S
C1368 C1369 1.370 . S
C1368 C1370 1.363 . S
C1368 H1384 0.931 . S
C1369 C1368 1.370 . S
C1369 C1373 1.408 . S
C1370 C1368 1.363 . S
C1370 C1371 1.370 . S
C1370 C1374 1.524 . S
C1371 C1363 1.503 . S
C1371 C1370 1.370 . S
C1371 C1372 1.403 . S
C1372 C1371 1.403 . S
C1372 C1373 1.404 . S
C1372 C1375 1.539 . S
C1373 C1369 1.408 . S
C1373 C1372 1.404 . S
C1373 H1385 0.930 . S
C1374 C1370 1.524 . S
C1374 H1386 0.956 1_455 S
C1374 H1387 0.961 . S
C1374 H1388 0.961 . S
C1375 C1372 1.539 . S
C1375 H1389 0.958 . S
C1375 H1390 0.961 . S
C1375 H1391 0.960 . S
H1376 C1360 0.931 . S
H1377 C1365 0.929 . S
H1378 C1366 0.960 . S
H1379 C1366 0.962 . S
H1380 C1366 0.960 . S
H1381 C1367 0.961 . S
H1382 C1367 0.961 . S
H1383 C1367 0.961 . S
H1384 C1368 0.931 . S
H1385 C1373 0.930 . S
H1386 C1374 0.956 1_655 S
H1387 C1374 0.961 . S
H1388 C1374 0.961 . S
H1389 C1375 0.958 . S
H1390 C1375 0.961 . S
H1391 C1375 0.960 . S
C1392 C1393 1.391 1_545 S
C1392 C1394 1.394 . S
C1392 H1408 0.931 . S
C1393 C1392 1.391 1_565 S
C1393 C1397 1.376 . S
C1394 C1392 1.394 . S
C1394 C1395 1.369 . S
C1394 C1398 1.531 . S
C1395 C1394 1.369 . S
C1395 C1396 1.410 1_545 S
C1395 C1403 1.503 . S
C1396 C1395 1.410 1_565 S
C1396 C1397 1.392 . S
C1396 C1399 1.511 . S
C1397 C1393 1.376 . S
C1397 C1396 1.392 . S
C1397 H1409 0.929 . S
C1398 C1394 1.531 . S
C1398 H1410 0.960 . S
C1398 H1411 0.962 . S
C1398 H1412 0.960 . S
C1399 C1396 1.511 . S
C1399 H1413 0.961 . S
C1399 H1414 0.961 . S
C1399 H1415 0.961 . S
C1400 C1401 1.370 . S
C1400 C1402 1.363 . S
C1400 H1416 0.931 . S
C1401 C1400 1.370 . S
C1401 C1405 1.408 . S
C1402 C1400 1.363 . S
C1402 C1403 1.370 . S
C1402 C1406 1.524 . S
C1403 C1395 1.503 . S
C1403 C1402 1.370 . S
C1403 C1404 1.403 . S
C1404 C1403 1.403 . S
C1404 C1405 1.404 . S
C1404 C1407 1.539 1_545 S
C1405 C1401 1.408 . S
C1405 C1404 1.404 . S
C1405 H1417 0.930 . S
C1406 C1402 1.524 . S
C1406 H1418 0.956 . S
C1406 H1419 0.961 . S
C1406 H1420 0.961 . S
C1407 C1404 1.539 1_565 S
C1407 H1421 0.958 . S
C1407 H1422 0.961 . S
C1407 H1423 0.960 . S
H1408 C1392 0.931 . S
H1409 C1397 0.929 . S
H1410 C1398 0.960 . S
H1411 C1398 0.962 . S
H1412 C1398 0.960 . S
H1413 C1399 0.961 . S
H1414 C1399 0.961 . S
H1415 C1399 0.961 . S
H1416 C1400 0.931 . S
H1417 C1405 0.930 . S
H1418 C1406 0.956 . S
H1419 C1406 0.961 . S
H1420 C1406 0.961 . S
H1421 C1407 0.958 . S
H1422 C1407 0.961 . S
H1423 C1407 0.960 . S
C1424 C1425 1.391 . S
C1424 C1426 1.394 . S
C1424 H1440 0.931 . S
C1425 C1424 1.391 . S
C1425 C1429 1.376 . S
C1426 C1424 1.394 . S
C1426 C1427 1.369 . S
C1426 C1430 1.531 . S
C1427 C1426 1.369 . S
C1427 C1428 1.410 . S
C1427 C1435 1.503 . S
C1428 C1427 1.410 . S
C1428 C1429 1.392 . S
C1428 C1431 1.511 . S
C1429 C1425 1.376 . S
C1429 C1428 1.392 . S
C1429 H1441 0.929 . S
C1430 C1426 1.531 . S
C1430 H1442 0.960 . S
C1430 H1443 0.962 . S
C1430 H1444 0.960 . S
C1431 C1428 1.511 . S
C1431 H1445 0.961 . S
C1431 H1446 0.961 . S
C1431 H1447 0.961 . S
C1432 C1433 1.370 . S
C1432 C1434 1.363 . S
C1432 H1448 0.931 . S
C1433 C1432 1.370 . S
C1433 C1437 1.408 . S
C1434 C1432 1.363 . S
C1434 C1435 1.370 . S
C1434 C1438 1.524 . S
C1435 C1427 1.503 . S
C1435 C1434 1.370 . S
C1435 C1436 1.403 . S
C1436 C1435 1.403 . S
C1436 C1437 1.404 . S
C1436 C1439 1.539 . S
C1437 C1433 1.408 . S
C1437 C1436 1.404 . S
C1437 H1449 0.930 . S
C1438 C1434 1.524 . S
C1438 H1450 0.956 . S
C1438 H1451 0.961 . S
C1438 H1452 0.961 . S
C1439 C1436 1.539 . S
C1439 H1453 0.958 . S
C1439 H1454 0.961 . S
C1439 H1455 0.960 . S
H1440 C1424 0.931 . S
H1441 C1429 0.929 . S
H1442 C1430 0.960 . S
H1443 C1430 0.962 . S
H1444 C1430 0.960 . S
H1445 C1431 0.961 . S
H1446 C1431 0.961 . S
H1447 C1431 0.961 . S
H1448 C1432 0.931 . S
H1449 C1437 0.930 . S
H1450 C1438 0.956 . S
H1451 C1438 0.961 . S
H1452 C1438 0.961 . S
H1453 C1439 0.958 . S
H1454 C1439 0.961 . S
H1455 C1439 0.960 . S
C1456 C1457 1.391 . S
C1456 C1458 1.394 . S
C1456 H1472 0.931 . S
C1457 C1456 1.391 . S
C1457 C1461 1.376 . S
C1458 C1456 1.394 . S
C1458 C1459 1.369 . S
C1458 C1462 1.531 . S
C1459 C1458 1.369 . S
C1459 C1460 1.410 . S
C1459 C1467 1.503 . S
C1460 C1459 1.410 . S
C1460 C1461 1.392 . S
C1460 C1463 1.511 . S
C1461 C1457 1.376 . S
C1461 C1460 1.392 . S
C1461 H1473 0.929 . S
C1462 C1458 1.531 . S
C1462 H1474 0.960 . S
C1462 H1475 0.962 . S
C1462 H1476 0.960 . S
C1463 C1460 1.511 . S
C1463 H1477 0.961 . S
C1463 H1478 0.961 . S
C1463 H1479 0.961 . S
C1464 C1465 1.370 . S
C1464 C1466 1.363 . S
C1464 H1480 0.931 . S
C1465 C1464 1.370 . S
C1465 C1469 1.408 . S
C1466 C1464 1.363 . S
C1466 C1467 1.370 . S
C1466 C1470 1.524 . S
C1467 C1459 1.503 . S
C1467 C1466 1.370 . S
C1467 C1468 1.403 . S
C1468 C1467 1.403 . S
C1468 C1469 1.404 . S
C1468 C1471 1.539 . S
C1469 C1465 1.408 . S
C1469 C1468 1.404 . S
C1469 H1481 0.930 . S
C1470 C1466 1.524 . S
C1470 H1482 0.956 . S
C1470 H1483 0.961 . S
C1470 H1484 0.961 . S
C1471 C1468 1.539 . S
C1471 H1485 0.958 . S
C1471 H1486 0.961 . S
C1471 H1487 0.960 . S
H1472 C1456 0.931 . S
H1473 C1461 0.929 . S
H1474 C1462 0.960 . S
H1475 C1462 0.962 . S
H1476 C1462 0.960 . S
H1477 C1463 0.961 . S
H1478 C1463 0.961 . S
H1479 C1463 0.961 . S
H1480 C1464 0.931 . S
H1481 C1469 0.930 . S
H1482 C1470 0.956 . S
H1483 C1470 0.961 . S
H1484 C1470 0.961 . S
H1485 C1471 0.958 . S
H1486 C1471 0.961 . S
H1487 C1471 0.960 . S
C1488 C1489 1.391 1_655 S
C1488 C1490 1.394 1_655 S
C1488 H1504 0.931 . S
C1489 C1488 1.391 1_455 S
C1489 C1493 1.376 . S
C1490 C1488 1.394 1_455 S
C1490 C1491 1.369 . S
C1490 C1494 1.531 1_455 S
C1491 C1490 1.369 . S
C1491 C1492 1.410 . S
C1491 C1499 1.503 . S
C1492 C1491 1.410 . S
C1492 C1493 1.392 . S
C1492 C1495 1.511 . S
C1493 C1489 1.376 . S
C1493 C1492 1.392 . S
C1493 H1505 0.929 . S
C1494 C1490 1.531 1_655 S
C1494 H1506 0.960 1_655 S
C1494 H1507 0.962 . S
C1494 H1508 0.960 . S
C1495 C1492 1.511 . S
C1495 H1509 0.961 . S
C1495 H1510 0.961 . S
C1495 H1511 0.961 . S
C1496 C1497 1.370 . S
C1496 C1498 1.363 . S
C1496 H1512 0.931 . S
C1497 C1496 1.370 . S
C1497 C1501 1.408 . S
C1498 C1496 1.363 . S
C1498 C1499 1.370 . S
C1498 C1502 1.524 1_455 S
C1499 C1491 1.503 . S
C1499 C1498 1.370 . S
C1499 C1500 1.403 . S
C1500 C1499 1.403 . S
C1500 C1501 1.404 . S
C1500 C1503 1.539 . S
C1501 C1497 1.408 . S
C1501 C1500 1.404 . S
C1501 H1513 0.930 . S
C1502 C1498 1.524 1_655 S
C1502 H1514 0.956 . S
C1502 H1515 0.961 . S
C1502 H1516 0.961 . S
C1503 C1500 1.539 . S
C1503 H1517 0.958 . S
C1503 H1518 0.961 . S
C1503 H1519 0.960 . S
H1504 C1488 0.931 . S
H1505 C1493 0.929 . S
H1506 C1494 0.960 1_455 S
H1507 C1494 0.962 . S
H1508 C1494 0.960 . S
H1509 C1495 0.961 . S
H1510 C1495 0.961 . S
H1511 C1495 0.961 . S
H1512 C1496 0.931 . S
H1513 C1501 0.930 . S
H1514 C1502 0.956 . S
H1515 C1502 0.961 . S
H1516 C1502 0.961 . S
H1517 C1503 0.958 . S
H1518 C1503 0.961 . S
H1519 C1503 0.960 . S
C1520 C1521 1.391 . S
C1520 C1522 1.394 . S
C1520 H1536 0.931 . S
C1521 C1520 1.391 . S
C1521 C1525 1.376 . S
C1522 C1520 1.394 . S
C1522 C1523 1.369 . S
C1522 C1526 1.531 . S
C1523 C1522 1.369 . S
C1523 C1524 1.410 . S
C1523 C1531 1.503 . S
C1524 C1523 1.410 . S
C1524 C1525 1.392 . S
C1524 C1527 1.511 . S
C1525 C1521 1.376 . S
C1525 C1524 1.392 . S
C1525 H1537 0.929 . S
C1526 C1522 1.531 . S
C1526 H1538 0.960 . S
C1526 H1539 0.962 1_545 S
C1526 H1540 0.960 . S
C1527 C1524 1.511 . S
C1527 H1541 0.961 . S
C1527 H1542 0.961 . S
C1527 H1543 0.961 . S
C1528 C1529 1.370 1_565 S
C1528 C1530 1.363 . S
C1528 H1544 0.931 . S
C1529 C1528 1.370 1_545 S
C1529 C1533 1.408 . S
C1530 C1528 1.363 . S
C1530 C1531 1.370 1_565 S
C1530 C1534 1.524 . S
C1531 C1523 1.503 . S
C1531 C1530 1.370 1_545 S
C1531 C1532 1.403 . S
C1532 C1531 1.403 . S
C1532 C1533 1.404 . S
C1532 C1535 1.539 . S
C1533 C1529 1.408 . S
C1533 C1532 1.404 . S
C1533 H1545 0.930 . S
C1534 C1530 1.524 . S
C1534 H1546 0.956 . S
C1534 H1547 0.961 . S
C1534 H1548 0.961 . S
C1535 C1532 1.539 . S
C1535 H1549 0.958 . S
C1535 H1550 0.961 . S
C1535 H1551 0.960 . S
H1536 C1520 0.931 . S
H1537 C1525 0.929 . S
H1538 C1526 0.960 . S
H1539 C1526 0.962 1_565 S
H1540 C1526 0.960 . S
H1541 C1527 0.961 . S
H1542 C1527 0.961 . S
H1543 C1527 0.961 . S
H1544 C1528 0.931 . S
H1545 C1533 0.930 . S
H1546 C1534 0.956 . S
H1547 C1534 0.961 . S
H1548 C1534 0.961 . S
H1549 C1535 0.958 . S
H1550 C1535 0.961 . S
H1551 C1535 0.960 . S
C1552 C1553 1.391 . S
C1552 C1554 1.394 . S
C1552 H1568 0.931 . S
C1553 C1552 1.391 . S
C1553 C1557 1.376 . S
C1554 C1552 1.394 . S
C1554 C1555 1.369 . S
C1554 C1558 1.531 1_556 S
C1555 C1554 1.369 . S
C1555 C1556 1.410 . S
C1555 C1563 1.503 1_566 S
C1556 C1555 1.410 . S
C1556 C1557 1.392 . S
C1556 C1559 1.511 1_565 S
C1557 C1553 1.376 . S
C1557 C1556 1.392 . S
C1557 H1569 0.929 . S
C1558 C1554 1.531 1_554 S
C1558 H1570 0.960 . S
C1558 H1571 0.962 . S
C1558 H1572 0.960 . S
C1559 C1556 1.511 1_545 S
C1559 H1573 0.961 . S
C1559 H1574 0.961 . S
C1559 H1575 0.961 . S
C1560 C1561 1.370 . S
C1560 C1562 1.363 . S
C1560 H1576 0.931 . S
C1561 C1560 1.370 . S
C1561 C1565 1.408 . S
C1562 C1560 1.363 . S
C1562 C1563 1.370 . S
C1562 C1566 1.524 1_554 S
C1563 C1555 1.503 1_544 S
C1563 C1562 1.370 . S
C1563 C1564 1.403 . S
C1564 C1563 1.403 . S
C1564 C1565 1.404 . S
C1564 C1567 1.539 . S
C1565 C1561 1.408 . S
C1565 C1564 1.404 . S
C1565 H1577 0.930 . S
C1566 C1562 1.524 1_556 S
C1566 H1578 0.956 1_545 S
C1566 H1579 0.961 . S
C1566 H1580 0.961 . S
C1567 C1564 1.539 . S
C1567 H1581 0.958 1_545 S
C1567 H1582 0.961 . S
C1567 H1583 0.960 . S
H1568 C1552 0.931 . S
H1569 C1557 0.929 . S
H1570 C1558 0.960 . S
H1571 C1558 0.962 . S
H1572 C1558 0.960 . S
H1573 C1559 0.961 . S
H1574 C1559 0.961 . S
H1575 C1559 0.961 . S
H1576 C1560 0.931 . S
H1577 C1565 0.930 . S
H1578 C1566 0.956 1_565 S
H1579 C1566 0.961 . S
H1580 C1566 0.961 . S
H1581 C1567 0.958 1_565 S
H1582 C1567 0.961 . S
H1583 C1567 0.960 . S
C1584 C1585 1.391 . S
C1584 C1586 1.394 . S
C1584 H1600 0.931 . S
C1585 C1584 1.391 . S
C1585 C1589 1.376 . S
C1586 C1584 1.394 . S
C1586 C1587 1.369 . S
C1586 C1590 1.531 . S
C1587 C1586 1.369 . S
C1587 C1588 1.410 . S
C1587 C1595 1.503 . S
C1588 C1587 1.410 . S
C1588 C1589 1.392 . S
C1588 C1591 1.511 . S
C1589 C1585 1.376 . S
C1589 C1588 1.392 . S
C1589 H1601 0.929 . S
C1590 C1586 1.531 . S
C1590 H1602 0.960 . S
C1590 H1603 0.962 . S
C1590 H1604 0.960 . S
C1591 C1588 1.511 . S
C1591 H1605 0.961 . S
C1591 H1606 0.961 . S
C1591 H1607 0.961 . S
C1592 C1593 1.370 . S
C1592 C1594 1.363 . S
C1592 H1608 0.931 . S
C1593 C1592 1.370 . S
C1593 C1597 1.408 . S
C1594 C1592 1.363 . S
C1594 C1595 1.370 . S
C1594 C1598 1.524 . S
C1595 C1587 1.503 . S
C1595 C1594 1.370 . S
C1595 C1596 1.403 . S
C1596 C1595 1.403 . S
C1596 C1597 1.404 . S
C1596 C1599 1.539 . S
C1597 C1593 1.408 . S
C1597 C1596 1.404 . S
C1597 H1609 0.930 . S
C1598 C1594 1.524 . S
C1598 H1610 0.956 . S
C1598 H1611 0.961 . S
C1598 H1612 0.961 . S
C1599 C1596 1.539 . S
C1599 H1613 0.958 . S
C1599 H1614 0.961 . S
C1599 H1615 0.960 . S
H1600 C1584 0.931 . S
H1601 C1589 0.929 . S
H1602 C1590 0.960 . S
H1603 C1590 0.962 . S
H1604 C1590 0.960 . S
H1605 C1591 0.961 . S
H1606 C1591 0.961 . S
H1607 C1591 0.961 . S
H1608 C1592 0.931 . S
H1609 C1597 0.930 . S
H1610 C1598 0.956 . S
H1611 C1598 0.961 . S
H1612 C1598 0.961 . S
H1613 C1599 0.958 . S
H1614 C1599 0.961 . S
H1615 C1599 0.960 . S
C1616 C1617 1.391 . S
C1616 C1618 1.394 . S
C1616 H1632 0.931 . S
C1617 C1616 1.391 . S
C1617 C1621 1.376 1_455 S
C1618 C1616 1.394 . S
C1618 C1619 1.369 . S
C1618 C1622 1.531 . S
C1619 C1618 1.369 . S
C1619 C1620 1.410 1_455 S
C1619 C1627 1.503 1_554 S
C1620 C1619 1.410 1_655 S
C1620 C1621 1.392 . S
C1620 C1623 1.511 1_554 S
C1621 C1617 1.376 1_655 S
C1621 C1620 1.392 . S
C1621 H1633 0.929 . S
C1622 C1618 1.531 . S
C1622 H1634 0.960 . S
C1622 H1635 0.962 . S
C1622 H1636 0.960 . S
C1623 C1620 1.511 1_556 S
C1623 H1637 0.961 . S
C1623 H1638 0.961 . S
C1623 H1639 0.961 . S
C1624 C1625 1.370 . S
C1624 C1626 1.363 . S
C1624 H1640 0.931 . S
C1625 C1624 1.370 . S
C1625 C1629 1.408 1_655 S
C1626 C1624 1.363 . S
C1626 C1627 1.370 1_655 S
C1626 C1630 1.524 1_556 S
C1627 C1619 1.503 1_556 S
C1627 C1626 1.370 1_455 S
C1627 C1628 1.403 . S
C1628 C1627 1.403 . S
C1628 C1629 1.404 . S
C1628 C1631 1.539 . S
C1629 C1625 1.408 1_455 S
C1629 C1628 1.404 . S
C1629 H1641 0.930 . S
C1630 C1626 1.524 1_554 S
C1630 H1642 0.956 . S
C1630 H1643 0.961 . S
C1630 H1644 0.961 . S
C1631 C1628 1.539 . S
C1631 H1645 0.958 . S
C1631 H1646 0.961 . S
C1631 H1647 0.960 . S
H1632 C1616 0.931 . S
H1633 C1621 0.929 . S
H1634 C1622 0.960 . S
H1635 C1622 0.962 . S
H1636 C1622 0.960 . S
H1637 C1623 0.961 . S
H1638 C1623 0.961 . S
H1639 C1623 0.961 . S
H1640 C1624 0.931 . S
H1641 C1629 0.930 . S
H1642 C1630 0.956 . S
H1643 C1630 0.961 . S
H1644 C1630 0.961 . S
H1645 C1631 0.958 . S
H1646 C1631 0.961 . S
H1647 C1631 0.960 . S
C1648 C1649 1.391 . S
C1648 C1650 1.394 . S
C1648 H1664 0.931 . S
C1649 C1648 1.391 . S
C1649 C1653 1.376 . S
C1650 C1648 1.394 . S
C1650 C1651 1.369 . S
C1650 C1654 1.531 . S
C1651 C1650 1.369 . S
C1651 C1652 1.417 . S
C1651 C1659 1.503 1_655 S
C1652 C1651 1.417 . S
C1652 C1653 1.410 . S
C1652 C1655 1.488 1_665 S
C1653 C1649 1.376 . S
C1653 C1652 1.410 . S
C1653 H1665 0.929 . S
C1654 C1650 1.531 . S
C1654 H1666 0.960 . S
C1654 H1667 0.962 . S
C1654 H1668 0.960 . S
C1655 C1652 1.488 1_445 S
C1655 H1669 0.961 . S
C1655 H1670 0.961 . S
C1655 H1671 0.961 1_545 S
C1656 C1657 1.370 . S
C1656 C1658 1.363 . S
C1656 H1672 0.931 . S
C1657 C1656 1.370 . S
C1657 C1661 1.408 1_545 S
C1658 C1656 1.363 . S
C1658 C1659 1.370 1_545 S
C1658 C1662 1.524 1_455 S
C1659 C1651 1.503 1_455 S
C1659 C1658 1.370 1_565 S
C1659 C1660 1.403 . S
C1660 C1659 1.403 . S
C1660 C1661 1.404 . S
C1660 C1663 1.539 . S
C1661 C1657 1.408 1_565 S
C1661 C1660 1.404 . S
C1661 H1673 0.930 . S
C1662 C1658 1.524 1_655 S
C1662 H1674 0.956 . S
C1662 H1675 0.961 . S
C1662 H1676 0.961 . S
C1663 C1660 1.539 . S
C1663 H1677 0.958 . S
C1663 H1678 0.961 . S
C1663 H1679 0.960 . S
H1664 C1648 0.931 . S
H1665 C1653 0.929 . S
H1666 C1654 0.960 . S
H1667 C1654 0.962 . S
H1668 C1654 0.960 . S
H1669 C1655 0.961 . S
H1670 C1655 0.961 . S
H1671 C1655 0.961 1_565 S
H1672 C1656 0.931 . S
H1673 C1661 0.930 . S
H1674 C1662 0.956 . S
H1675 C1662 0.961 . S
H1676 C1662 0.961 . S
H1677 C1663 0.958 . S
H1678 C1663 0.961 . S
H1679 C1663 0.960 . S
C1680 C1681 1.391 . S
C1680 C1682 1.394 . S
C1680 H1696 0.931 . S
C1681 C1680 1.391 . S
C1681 C1685 1.376 . S
C1682 C1680 1.394 . S
C1682 C1683 1.369 . S
C1682 C1686 1.531 . S
C1683 C1682 1.369 . S
C1683 C1684 1.410 . S
C1683 C1691 1.503 1_556 S
C1684 C1683 1.410 . S
C1684 C1685 1.392 . S
C1684 C1687 1.511 1_556 S
C1685 C1681 1.376 . S
C1685 C1684 1.392 . S
C1685 H1697 0.929 . S
C1686 C1682 1.531 . S
C1686 H1698 0.960 . S
C1686 H1699 0.962 . S
C1686 H1700 0.960 . S
C1687 C1684 1.511 1_554 S
C1687 H1701 0.961 . S
C1687 H1702 0.961 . S
C1687 H1703 0.961 . S
C1688 C1689 1.370 . S
C1688 C1690 1.363 . S
C1688 H1704 0.931 . S
C1689 C1688 1.370 . S
C1689 C1693 1.408 . S
C1690 C1688 1.363 . S
C1690 C1691 1.370 . S
C1690 C1694 1.524 . S
C1691 C1683 1.503 1_554 S
C1691 C1690 1.370 . S
C1691 C1692 1.403 . S
C1692 C1691 1.403 . S
C1692 C1693 1.404 . S
C1692 C1695 1.539 1_554 S
C1693 C1689 1.408 . S
C1693 C1692 1.404 . S
C1693 H1705 0.930 . S
C1694 C1690 1.524 . S
C1694 H1706 0.956 . S
C1694 H1707 0.961 . S
C1694 H1708 0.961 . S
C1695 C1692 1.539 1_556 S
C1695 H1709 0.958 . S
C1695 H1710 0.961 1_556 S
C1695 H1711 0.960 . S
H1696 C1680 0.931 . S
H1697 C1685 0.929 . S
H1698 C1686 0.960 . S
H1699 C1686 0.962 . S
H1700 C1686 0.960 . S
H1701 C1687 0.961 . S
H1702 C1687 0.961 . S
H1703 C1687 0.961 . S
H1704 C1688 0.931 . S
H1705 C1693 0.930 . S
H1706 C1694 0.956 . S
H1707 C1694 0.961 . S
H1708 C1694 0.961 . S
H1709 C1695 0.958 . S
H1710 C1695 0.961 1_554 S
H1711 C1695 0.960 . S
C1712 C1713 1.391 . S
C1712 C1714 1.394 . S
C1712 H1728 0.931 . S
C1713 C1712 1.391 . S
C1713 C1717 1.376 . S
C1714 C1712 1.394 . S
C1714 C1715 1.369 . S
C1714 C1718 1.531 . S
C1715 C1714 1.369 . S
C1715 C1716 1.410 . S
C1715 C1723 1.503 1_455 S
C1716 C1715 1.410 . S
C1716 C1717 1.392 . S
C1716 C1719 1.511 1_455 S
C1717 C1713 1.376 . S
C1717 C1716 1.392 . S
C1717 H1729 0.929 . S
C1718 C1714 1.531 . S
C1718 H1730 0.960 . S
C1718 H1731 0.962 . S
C1718 H1732 0.960 . S
C1719 C1716 1.511 1_655 S
C1719 H1733 0.961 . S
C1719 H1734 0.961 . S
C1719 H1735 0.961 . S
C1720 C1721 1.370 . S
C1720 C1722 1.363 . S
C1720 H1736 0.931 . S
C1721 C1720 1.370 . S
C1721 C1725 1.408 . S
C1722 C1720 1.363 . S
C1722 C1723 1.370 . S
C1722 C1726 1.524 1_655 S
C1723 C1715 1.503 1_655 S
C1723 C1722 1.370 . S
C1723 C1724 1.403 . S
C1724 C1723 1.403 . S
C1724 C1725 1.404 . S
C1724 C1727 1.539 . S
C1725 C1721 1.408 . S
C1725 C1724 1.404 . S
C1725 H1737 0.930 . S
C1726 C1722 1.524 1_455 S
C1726 H1738 0.956 . S
C1726 H1739 0.961 . S
C1726 H1740 0.961 . S
C1727 C1724 1.539 . S
C1727 H1741 0.958 . S
C1727 H1742 0.961 . S
C1727 H1743 0.960 . S
H1728 C1712 0.931 . S
H1729 C1717 0.929 . S
H1730 C1718 0.960 . S
H1731 C1718 0.962 . S
H1732 C1718 0.960 . S
H1733 C1719 0.961 . S
H1734 C1719 0.961 . S
H1735 C1719 0.961 . S
H1736 C1720 0.931 . S
H1737 C1725 0.930 . S
H1738 C1726 0.956 . S
H1739 C1726 0.961 . S
H1740 C1726 0.961 . S
H1741 C1727 0.958 . S
H1742 C1727 0.961 . S
H1743 C1727 0.960 . S
C1744 C1745 1.391 1_455 S
C1744 C1746 1.394 . S
C1744 H1760 0.931 . S
C1745 C1744 1.391 1_655 S
C1745 C1749 1.376 . S
C1746 C1744 1.394 . S
C1746 C1747 1.369 . S
C1746 C1750 1.531 1_565 S
C1747 C1746 1.369 . S
C1747 C1748 1.410 1_455 S
C1747 C1755 1.503 1_564 S
C1748 C1747 1.410 1_655 S
C1748 C1749 1.392 . S
C1748 C1751 1.511 1_554 S
C1749 C1745 1.376 . S
C1749 C1748 1.392 . S
C1749 H1761 0.929 . S
C1750 C1746 1.531 1_545 S
C1750 H1762 0.960 . S
C1750 H1763 0.962 . S
C1750 H1764 0.960 1_545 S
C1751 C1748 1.511 1_556 S
C1751 H1765 0.961 . S
C1751 H1766 0.961 . S
C1751 H1767 0.961 . S
C1752 C1753 1.370 1_655 S
C1752 C1754 1.363 . S
C1752 H1768 0.931 . S
C1753 C1752 1.370 1_455 S
C1753 C1757 1.408 . S
C1754 C1752 1.363 . S
C1754 C1755 1.370 1_655 S
C1754 C1758 1.524 1_556 S
C1755 C1747 1.503 1_546 S
C1755 C1754 1.370 1_455 S
C1755 C1756 1.403 . S
C1756 C1755 1.403 . S
C1756 C1757 1.404 . S
C1756 C1759 1.539 1_545 S
C1757 C1753 1.408 . S
C1757 C1756 1.404 . S
C1757 H1769 0.930 . S
C1758 C1754 1.524 1_554 S
C1758 H1770 0.956 . S
C1758 H1771 0.961 . S
C1758 H1772 0.961 . S
C1759 C1756 1.539 1_565 S
C1759 H1773 0.958 . S
C1759 H1774 0.961 . S
C1759 H1775 0.960 . S
H1760 C1744 0.931 . S
H1761 C1749 0.929 . S
H1762 C1750 0.960 . S
H1763 C1750 0.962 . S
H1764 C1750 0.960 1_565 S
H1765 C1751 0.961 . S
H1766 C1751 0.961 . S
H1767 C1751 0.961 . S
H1768 C1752 0.931 . S
H1769 C1757 0.930 . S
H1770 C1758 0.956 . S
H1771 C1758 0.961 . S
H1772 C1758 0.961 . S
H1773 C1759 0.958 . S
H1774 C1759 0.961 . S
H1775 C1759 0.960 . S
C1776 C1777 1.391 . S
C1776 C1778 1.394 1_545 S
C1776 H1792 0.931 1_545 S
C1777 C1776 1.391 . S
C1777 C1781 1.376 . S
C1778 C1776 1.394 1_565 S
C1778 C1779 1.369 1_565 S
C1778 C1782 1.531 . S
C1779 C1778 1.369 1_545 S
C1779 C1780 1.410 . S
C1779 C1787 1.503 . S
C1780 C1779 1.410 . S
C1780 C1781 1.392 . S
C1780 C1783 1.511 . S
C1781 C1777 1.376 . S
C1781 C1780 1.392 . S
C1781 H1793 0.929 . S
C1782 C1778 1.531 . S
C1782 H1794 0.960 . S
C1782 H1795 0.962 . S
C1782 H1796 0.960 . S
C1783 C1780 1.511 . S
C1783 H1797 0.961 . S
C1783 H1798 0.961 . S
C1783 H1799 0.961 . S
C1784 C1785 1.370 . S
C1784 C1786 1.363 . S
C1784 H1800 0.931 . S
C1785 C1784 1.370 . S
C1785 C1789 1.408 1_565 S
C1786 C1784 1.363 . S
C1786 C1787 1.370 1_565 S
C1786 C1790 1.524 . S
C1787 C1779 1.503 . S
C1787 C1786 1.370 1_545 S
C1787 C1788 1.403 . S
C1788 C1787 1.403 . S
C1788 C1789 1.404 . S
C1788 C1791 1.539 . S
C1789 C1785 1.408 1_545 S
C1789 C1788 1.404 . S
C1789 H1801 0.930 . S
C1790 C1786 1.524 . S
C1790 H1802 0.956 . S
C1790 H1803 0.961 . S
C1790 H1804 0.961 . S
C1791 C1788 1.539 . S
C1791 H1805 0.958 . S
C1791 H1806 0.961 . S
C1791 H1807 0.960 . S
H1792 C1776 0.931 1_565 S
H1793 C1781 0.929 . S
H1794 C1782 0.960 . S
H1795 C1782 0.962 . S
H1796 C1782 0.960 . S
H1797 C1783 0.961 . S
H1798 C1783 0.961 . S
H1799 C1783 0.961 . S
H1800 C1784 0.931 . S
H1801 C1789 0.930 . S
H1802 C1790 0.956 . S
H1803 C1790 0.961 . S
H1804 C1790 0.961 . S
H1805 C1791 0.958 . S
H1806 C1791 0.961 . S
H1807 C1791 0.960 . S
C529 C17 1.558 . S
C537 C248 1.571 . S
C561 C149 1.587 . S
C569 C50 1.588 . S
C593 C83 1.554 . S
C601 C182 1.573 . S
C625 C116 1.591 . S
C633 C215 1.581 . S
C657 C281 1.577 . S
C665 C512 1.577 . S
C689 C314 1.594 . S
C697 C413 1.588 . S
C721 C347 1.566 . S
C729 C446 1.578 . S
C753 C479 1.561 . S
C761 C380 1.576 . S
C785 C8 2.168 . S
C793 C74 2.168 . S
C817 C107 2.159 . S
C825 C41 2.168 . S
C849 C206 2.155 . S
C857 C140 2.172 . S
C881 C173 2.164 . S
C889 C239 2.166 . S
C913 C338 2.157 . S
C921 C272 2.170 . S
C945 C371 2.156 . S
C953 C305 2.172 . S
C977 C470 2.156 . S
C985 C404 2.171 . S
C1009 C503 2.169 . S
C1017 C437 2.167 . S
C1041 N410 0.701 . S
C1049 N5 0.686 . S
C1073 N443 0.718 . S
C1081 N38 0.685 . S
C1105 N71 0.691 . S
C1113 N476 0.696 1_455 S
C1137 N509 0.646 . S
C1145 N104 0.693 . S
C1169 N137 0.698 . S
C1177 N278 0.683 . S
C1201 N311 0.758 . S
C1209 N170 0.684 . S
C1233 N203 0.684 . S
C1241 N344 0.717 1_455 S
C1265 N236 0.677 . S
C1273 N377 0.720 1_545 S
C1297 N146 0.637 . S
C1305 N269 0.692 . S
C1329 N179 0.749 . S
C1337 N302 0.684 . S
C1361 N212 0.680 . S
C1369 N335 0.689 . S
C1393 N245 0.747 1_565 S
C1401 N368 0.685 . S
C1425 N14 0.699 . S
C1433 N401 0.689 . S
C1457 N47 0.757 . S
C1465 N434 0.684 . S
C1489 N80 0.652 . S
C1497 N467 0.691 . S
C1521 N500 0.700 . S
C1529 N113 0.670 . S
C1553 C292 1.733 . S
C1561 C28 1.689 . S
C1585 C61 1.712 . S
C1593 C325 1.699 . S
C1617 C94 1.732 . S
C1625 C358 1.689 . S
C1649 C391 1.725 . S
C1657 C127 1.693 . S
C1681 C160 1.710 . S
C1689 C424 1.695 . S
C1713 C193 1.665 . S
C1721 C457 1.715 . S
C1745 C490 1.691 . S
C1753 C226 1.703 . S
C1777 C259 1.718 . S
C1785 C523 1.692 . S
