# Generated by pormake.
# Topology wim, (6)-cn, num edge types: 1
# Building blocks:
#     Node 0, Type 0, BuildingBlock: IZENUY_clean_sbu_0, # of connection points: 6
#     Node 1, Type 0, BuildingBlock: IZENUY_clean_sbu_0, # of connection points: 6
#     Node 2, Type 0, BuildingBlock: IZENUY_clean_sbu_0, # of connection points: 6
#     Node 3, Type 0, BuildingBlock: IZENUY_clean_sbu_0, # of connection points: 6
#     Node 4, Type 0, BuildingBlock: IZENUY_clean_sbu_0, # of connection points: 6
#     Node 5, Type 0, BuildingBlock: IZENUY_clean_sbu_0, # of connection points: 6
#     Node 6, Type 0, BuildingBlock: IZENUY_clean_sbu_0, # of connection points: 6
#     Node 7, Type 0, BuildingBlock: IZENUY_clean_sbu_0, # of connection points: 6
#     Node 8, Type 0, BuildingBlock: IZENUY_clean_sbu_0, # of connection points: 6
#     Node 9, Type 0, BuildingBlock: IZENUY_clean_sbu_0, # of connection points: 6
#     Node 10, Type 0, BuildingBlock: IZENUY_clean_sbu_0, # of connection points: 6
#     Node 11, Type 0, BuildingBlock: IZENUY_clean_sbu_0, # of connection points: 6
#     Node 12, Type 0, BuildingBlock: IZENUY_clean_sbu_0, # of connection points: 6
#     Node 13, Type 0, BuildingBlock: IZENUY_clean_sbu_0, # of connection points: 6
#     Node 14, Type 0, BuildingBlock: IZENUY_clean_sbu_0, # of connection points: 6
#     Node 15, Type 0, BuildingBlock: IZENUY_clean_sbu_0, # of connection points: 6
#     Node 16, Type 0, BuildingBlock: IZENUY_clean_sbu_0, # of connection points: 6
#     Node 17, Type 0, BuildingBlock: IZENUY_clean_sbu_0, # of connection points: 6
#     Node 18, Type 0, BuildingBlock: IZENUY_clean_sbu_0, # of connection points: 6
#     Node 19, Type 0, BuildingBlock: IZENUY_clean_sbu_0, # of connection points: 6
#     Node 20, Type 0, BuildingBlock: IZENUY_clean_sbu_0, # of connection points: 6
#     Node 21, Type 0, BuildingBlock: IZENUY_clean_sbu_0, # of connection points: 6
#     Node 22, Type 0, BuildingBlock: IZENUY_clean_sbu_0, # of connection points: 6
#     Node 23, Type 0, BuildingBlock: IZENUY_clean_sbu_0, # of connection points: 6
#     Node 24, Type 0, BuildingBlock: IZENUY_clean_sbu_0, # of connection points: 6
#     Node 25, Type 0, BuildingBlock: IZENUY_clean_sbu_0, # of connection points: 6
#     Node 26, Type 0, BuildingBlock: IZENUY_clean_sbu_0, # of connection points: 6
#     Node 27, Type 0, BuildingBlock: IZENUY_clean_sbu_0, # of connection points: 6
#     Node 28, Type 0, BuildingBlock: IZENUY_clean_sbu_0, # of connection points: 6
#     Node 29, Type 0, BuildingBlock: IZENUY_clean_sbu_0, # of connection points: 6
#     Node 30, Type 0, BuildingBlock: IZENUY_clean_sbu_0, # of connection points: 6
#     Node 31, Type 0, BuildingBlock: IZENUY_clean_sbu_0, # of connection points: 6
#     Edge 32, Type (0, 0), BuildingBlock: XIVTED_clean_linker_0, # of connection points: 2
#     Edge 33, Type (0, 0), BuildingBlock: XIVTED_clean_linker_0, # of connection points: 2
#     Edge 34, Type (0, 0), BuildingBlock: XIVTED_clean_linker_0, # of connection points: 2
#     Edge 35, Type (0, 0), BuildingBlock: XIVTED_clean_linker_0, # of connection points: 2
#     Edge 36, Type (0, 0), BuildingBlock: XIVTED_clean_linker_0, # of connection points: 2
#     Edge 37, Type (0, 0), BuildingBlock: XIVTED_clean_linker_0, # of connection points: 2
#     Edge 38, Type (0, 0), BuildingBlock: XIVTED_clean_linker_0, # of connection points: 2
#     Edge 39, Type (0, 0), BuildingBlock: XIVTED_clean_linker_0, # of connection points: 2
#     Edge 40, Type (0, 0), BuildingBlock: XIVTED_clean_linker_0, # of connection points: 2
#     Edge 41, Type (0, 0), BuildingBlock: XIVTED_clean_linker_0, # of connection points: 2
#     Edge 42, Type (0, 0), BuildingBlock: XIVTED_clean_linker_0, # of connection points: 2
#     Edge 43, Type (0, 0), BuildingBlock: XIVTED_clean_linker_0, # of connection points: 2
#     Edge 44, Type (0, 0), BuildingBlock: XIVTED_clean_linker_0, # of connection points: 2
#     Edge 45, Type (0, 0), BuildingBlock: XIVTED_clean_linker_0, # of connection points: 2
#     Edge 46, Type (0, 0), BuildingBlock: XIVTED_clean_linker_0, # of connection points: 2
#     Edge 47, Type (0, 0), BuildingBlock: XIVTED_clean_linker_0, # of connection points: 2
#     Edge 48, Type (0, 0), BuildingBlock: XIVTED_clean_linker_0, # of connection points: 2
#     Edge 49, Type (0, 0), BuildingBlock: XIVTED_clean_linker_0, # of connection points: 2
#     Edge 50, Type (0, 0), BuildingBlock: XIVTED_clean_linker_0, # of connection points: 2
#     Edge 51, Type (0, 0), BuildingBlock: XIVTED_clean_linker_0, # of connection points: 2
#     Edge 52, Type (0, 0), BuildingBlock: XIVTED_clean_linker_0, # of connection points: 2
#     Edge 53, Type (0, 0), BuildingBlock: XIVTED_clean_linker_0, # of connection points: 2
#     Edge 54, Type (0, 0), BuildingBlock: XIVTED_clean_linker_0, # of connection points: 2
#     Edge 55, Type (0, 0), BuildingBlock: XIVTED_clean_linker_0, # of connection points: 2
#     Edge 56, Type (0, 0), BuildingBlock: XIVTED_clean_linker_0, # of connection points: 2
#     Edge 57, Type (0, 0), BuildingBlock: XIVTED_clean_linker_0, # of connection points: 2
#     Edge 58, Type (0, 0), BuildingBlock: XIVTED_clean_linker_0, # of connection points: 2
#     Edge 59, Type (0, 0), BuildingBlock: XIVTED_clean_linker_0, # of connection points: 2
#     Edge 60, Type (0, 0), BuildingBlock: XIVTED_clean_linker_0, # of connection points: 2
#     Edge 61, Type (0, 0), BuildingBlock: XIVTED_clean_linker_0, # of connection points: 2
#     Edge 62, Type (0, 0), BuildingBlock: XIVTED_clean_linker_0, # of connection points: 2
#     Edge 63, Type (0, 0), BuildingBlock: XIVTED_clean_linker_0, # of connection points: 2
#     Edge 64, Type (0, 0), BuildingBlock: XIVTED_clean_linker_0, # of connection points: 2
#     Edge 65, Type (0, 0), BuildingBlock: XIVTED_clean_linker_0, # of connection points: 2
#     Edge 66, Type (0, 0), BuildingBlock: XIVTED_clean_linker_0, # of connection points: 2
#     Edge 67, Type (0, 0), BuildingBlock: XIVTED_clean_linker_0, # of connection points: 2
#     Edge 68, Type (0, 0), BuildingBlock: XIVTED_clean_linker_0, # of connection points: 2
#     Edge 69, Type (0, 0), BuildingBlock: XIVTED_clean_linker_0, # of connection points: 2
#     Edge 70, Type (0, 0), BuildingBlock: XIVTED_clean_linker_0, # of connection points: 2
#     Edge 71, Type (0, 0), BuildingBlock: XIVTED_clean_linker_0, # of connection points: 2
#     Edge 72, Type (0, 0), BuildingBlock: XIVTED_clean_linker_0, # of connection points: 2
#     Edge 73, Type (0, 0), BuildingBlock: XIVTED_clean_linker_0, # of connection points: 2
#     Edge 74, Type (0, 0), BuildingBlock: XIVTED_clean_linker_0, # of connection points: 2
#     Edge 75, Type (0, 0), BuildingBlock: XIVTED_clean_linker_0, # of connection points: 2
#     Edge 76, Type (0, 0), BuildingBlock: XIVTED_clean_linker_0, # of connection points: 2
#     Edge 77, Type (0, 0), BuildingBlock: XIVTED_clean_linker_0, # of connection points: 2
#     Edge 78, Type (0, 0), BuildingBlock: XIVTED_clean_linker_0, # of connection points: 2
#     Edge 79, Type (0, 0), BuildingBlock: XIVTED_clean_linker_0, # of connection points: 2
#     Edge 80, Type (0, 0), BuildingBlock: XIVTED_clean_linker_0, # of connection points: 2
#     Edge 81, Type (0, 0), BuildingBlock: XIVTED_clean_linker_0, # of connection points: 2
#     Edge 82, Type (0, 0), BuildingBlock: XIVTED_clean_linker_0, # of connection points: 2
#     Edge 83, Type (0, 0), BuildingBlock: XIVTED_clean_linker_0, # of connection points: 2
#     Edge 84, Type (0, 0), BuildingBlock: XIVTED_clean_linker_0, # of connection points: 2
#     Edge 85, Type (0, 0), BuildingBlock: XIVTED_clean_linker_0, # of connection points: 2
#     Edge 86, Type (0, 0), BuildingBlock: XIVTED_clean_linker_0, # of connection points: 2
#     Edge 87, Type (0, 0), BuildingBlock: XIVTED_clean_linker_0, # of connection points: 2
#     Edge 88, Type (0, 0), BuildingBlock: XIVTED_clean_linker_0, # of connection points: 2
#     Edge 89, Type (0, 0), BuildingBlock: XIVTED_clean_linker_0, # of connection points: 2
#     Edge 90, Type (0, 0), BuildingBlock: XIVTED_clean_linker_0, # of connection points: 2
#     Edge 91, Type (0, 0), BuildingBlock: XIVTED_clean_linker_0, # of connection points: 2
#     Edge 92, Type (0, 0), BuildingBlock: XIVTED_clean_linker_0, # of connection points: 2
#     Edge 93, Type (0, 0), BuildingBlock: XIVTED_clean_linker_0, # of connection points: 2
#     Edge 94, Type (0, 0), BuildingBlock: XIVTED_clean_linker_0, # of connection points: 2
#     Edge 95, Type (0, 0), BuildingBlock: XIVTED_clean_linker_0, # of connection points: 2
#     Edge 96, Type (0, 0), BuildingBlock: XIVTED_clean_linker_0, # of connection points: 2
#     Edge 97, Type (0, 0), BuildingBlock: XIVTED_clean_linker_0, # of connection points: 2
#     Edge 98, Type (0, 0), BuildingBlock: XIVTED_clean_linker_0, # of connection points: 2
#     Edge 99, Type (0, 0), BuildingBlock: XIVTED_clean_linker_0, # of connection points: 2
#     Edge 100, Type (0, 0), BuildingBlock: XIVTED_clean_linker_0, # of connection points: 2
#     Edge 101, Type (0, 0), BuildingBlock: XIVTED_clean_linker_0, # of connection points: 2
#     Edge 102, Type (0, 0), BuildingBlock: XIVTED_clean_linker_0, # of connection points: 2
#     Edge 103, Type (0, 0), BuildingBlock: XIVTED_clean_linker_0, # of connection points: 2
#     Edge 104, Type (0, 0), BuildingBlock: XIVTED_clean_linker_0, # of connection points: 2
#     Edge 105, Type (0, 0), BuildingBlock: XIVTED_clean_linker_0, # of connection points: 2
#     Edge 106, Type (0, 0), BuildingBlock: XIVTED_clean_linker_0, # of connection points: 2
#     Edge 107, Type (0, 0), BuildingBlock: XIVTED_clean_linker_0, # of connection points: 2
#     Edge 108, Type (0, 0), BuildingBlock: XIVTED_clean_linker_0, # of connection points: 2
#     Edge 109, Type (0, 0), BuildingBlock: XIVTED_clean_linker_0, # of connection points: 2
#     Edge 110, Type (0, 0), BuildingBlock: XIVTED_clean_linker_0, # of connection points: 2
#     Edge 111, Type (0, 0), BuildingBlock: XIVTED_clean_linker_0, # of connection points: 2
#     Edge 112, Type (0, 0), BuildingBlock: XIVTED_clean_linker_0, # of connection points: 2
#     Edge 113, Type (0, 0), BuildingBlock: XIVTED_clean_linker_0, # of connection points: 2
#     Edge 114, Type (0, 0), BuildingBlock: XIVTED_clean_linker_0, # of connection points: 2
#     Edge 115, Type (0, 0), BuildingBlock: XIVTED_clean_linker_0, # of connection points: 2
#     Edge 116, Type (0, 0), BuildingBlock: XIVTED_clean_linker_0, # of connection points: 2
#     Edge 117, Type (0, 0), BuildingBlock: XIVTED_clean_linker_0, # of connection points: 2
#     Edge 118, Type (0, 0), BuildingBlock: XIVTED_clean_linker_0, # of connection points: 2
#     Edge 119, Type (0, 0), BuildingBlock: XIVTED_clean_linker_0, # of connection points: 2
#     Edge 120, Type (0, 0), BuildingBlock: XIVTED_clean_linker_0, # of connection points: 2
#     Edge 121, Type (0, 0), BuildingBlock: XIVTED_clean_linker_0, # of connection points: 2
#     Edge 122, Type (0, 0), BuildingBlock: XIVTED_clean_linker_0, # of connection points: 2
#     Edge 123, Type (0, 0), BuildingBlock: XIVTED_clean_linker_0, # of connection points: 2
#     Edge 124, Type (0, 0), BuildingBlock: XIVTED_clean_linker_0, # of connection points: 2
#     Edge 125, Type (0, 0), BuildingBlock: XIVTED_clean_linker_0, # of connection points: 2
#     Edge 126, Type (0, 0), BuildingBlock: XIVTED_clean_linker_0, # of connection points: 2
#     Edge 127, Type (0, 0), BuildingBlock: XIVTED_clean_linker_0, # of connection points: 2
# Relax obj value: 0.276
# Max RMSD: 0.228
# Mean RMSD: 0.228
data_MOF--net-wim--node1-IZENUY_clean_sbu_0--edge1-XIVTED_clean_linker_0
_symmetry_space_group_name_H-M    P1
_symmetry_Int_Tables_number       1
_symmetry_cell_setting            triclinic
loop_
_symmetry_equiv_pos_as_xyz
'x, y, z'
_cell_length_a     72.612164
_cell_length_b     72.567118
_cell_length_c     29.209098
_cell_angle_alpha  90.002601
_cell_angle_beta   89.982084
_cell_angle_gamma 90.007195
loop_
_atom_site_label
_atom_site_type_symbol
_atom_site_fract_x
_atom_site_fract_y
_atom_site_fract_z
_atom_type_partial_charge
Fe0 Fe 0.03864 0.12927 0.25575 0.0
Fe1 Fe 0.01988 0.09427 0.29058 0.0
O2 O 0.03974 0.10828 0.28626 0.0
Fe3 Fe 0.06073 0.10125 0.31231 0.0
O4 O 0.06859 0.12492 0.32465 0.0
O5 O 0.04494 0.14234 0.3062 0.0
O6 O 0.01437 0.13416 0.26989 0.0
C7 C 0.00395 0.12792 0.30108 0.0
C8 C 0.07343 0.11471 0.23117 0.0
O9 O 0.00683 0.11228 0.31828 0.0
C10 C 0.04626 0.06806 0.2761 0.0
O11 O 0.0325 0.11743 0.20346 0.0
O12 O 0.01072 0.10036 0.23385 0.0
O13 O 0.07278 0.10103 0.25775 0.0
O14 O 0.06256 0.12821 0.23583 0.0
C15 C 0.03553 0.0928 0.37881 0.0
O16 O 0.03152 0.07544 0.26279 0.0
O17 O 0.05667 0.07625 0.30444 0.0
C18 C 0.01892 0.10678 0.19909 0.0
O19 O 0.02543 0.08571 0.34813 0.0
O20 O 0.05008 0.1013 0.36837 0.0
C21 C 0.05985 0.14003 0.32763 0.0
Fe22 Fe 0.15011 0.80416 0.55949 0.0
Fe23 Fe 0.12222 0.78181 0.50315 0.0
O24 O 0.1433 0.78313 0.53343 0.0
Fe25 Fe 0.15746 0.76343 0.53789 0.0
O26 O 0.16587 0.76893 0.59557 0.0
O27 O 0.15028 0.79361 0.61561 0.0
O28 O 0.12643 0.8116 0.5722 0.0
C29 C 0.11154 0.80257 0.57585 0.0
C30 C 0.18354 0.78989 0.52425 0.0
O31 O 0.10925 0.78775 0.55398 0.0
C32 C 0.14486 0.76257 0.4462 0.0
O33 O 0.15015 0.81612 0.50488 0.0
O34 O 0.12288 0.80588 0.48407 0.0
O35 O 0.17632 0.77513 0.51061 0.0
O36 O 0.17502 0.80045 0.55155 0.0
C37 C 0.12378 0.74748 0.54865 0.0
O38 O 0.13388 0.77589 0.45066 0.0
O39 O 0.15165 0.75448 0.48075 0.0
C40 C 0.13623 0.81693 0.47919 0.0
O41 O 0.11772 0.75741 0.51643 0.0
O42 O 0.13942 0.75037 0.56566 0.0
C43 C 0.15892 0.77916 0.62615 0.0
Fe44 Fe 0.4867 0.91195 0.79809 0.0
Fe45 Fe 0.44588 0.90367 0.81895 0.0
O46 O 0.46716 0.89751 0.79288 0.0
Fe47 Fe 0.46899 0.87694 0.76073 0.0
O48 O 0.48653 0.86791 0.79869 0.0
O49 O 0.50348 0.89297 0.79715 0.0
O50 O 0.48651 0.9098 0.85951 0.0
C51 C 0.47296 0.91322 0.88512 0.0
C52 C 0.49009 0.90206 0.7088 0.0
O53 O 0.4567 0.91443 0.86938 0.0
C54 C 0.43547 0.88944 0.73218 0.0
O55 O 0.47363 0.93338 0.80038 0.0
O56 O 0.44489 0.92542 0.78774 0.0
O57 O 0.48634 0.88572 0.72053 0.0
O58 O 0.48806 0.91518 0.73653 0.0
C59 C 0.446 0.86644 0.83467 0.0
O60 O 0.43154 0.89371 0.77315 0.0
O61 O 0.45162 0.88485 0.72104 0.0
C62 C 0.45765 0.9372 0.78624 0.0
O63 O 0.44507 0.88237 0.85189 0.0
O64 O 0.45207 0.86411 0.79453 0.0
C65 C 0.50163 0.87596 0.80594 0.0
Fe66 Fe 0.37774 0.21922 -0.00022 0.0
Fe67 Fe 0.34502 0.2399 0.03949 0.0
O68 O 0.3579 0.21938 0.03465 0.0
Fe69 Fe 0.35096 0.19917 0.06419 0.0
O70 O 0.37289 0.19772 0.09451 0.0
O71 O 0.38997 0.20182 0.0333 0.0
O72 O 0.38877 0.23675 0.03497 0.0
C73 C 0.38184 0.25251 0.04129 0.0
C74 C 0.36266 0.18612 0.97699 0.0
O75 O 0.36493 0.25536 0.03324 0.0
C76 C 0.31762 0.21257 0.03483 0.0
O77 O 0.36917 0.23648 0.95922 0.0
O78 O 0.34024 0.24022 0.97858 0.0
O79 O 0.35903 0.18332 0.01897 0.0
O80 O 0.36774 0.20179 0.96312 0.0
C81 C 0.34498 0.22805 0.128 0.0
O82 O 0.32291 0.22838 0.04718 0.0
O83 O 0.32856 0.19905 0.0357 0.0
C84 C 0.35283 0.2409 0.94902 0.0
O85 O 0.349 0.24066 0.10008 0.0
O86 O 0.34194 0.21169 0.1145 0.0
C87 C 0.38824 0.19673 0.07441 0.0
Fe88 Fe 0.05715 0.90007 0.17489 0.0
Fe89 Fe 0.03485 0.87466 0.23867 0.0
O90 O 0.03627 0.89428 0.20316 0.0
Fe91 Fe 0.01651 0.9082 0.19619 0.0
O92 O 0.01612 0.90317 0.13625 0.0
O93 O 0.04548 0.90895 0.12285 0.0
O94 O 0.0583 0.87792 0.14603 0.0
C95 C 0.05754 0.86245 0.16565 0.0
C96 C 0.04514 0.93446 0.19867 0.0
O97 O 0.05147 0.86093 0.20605 0.0
C98 C 0.0143 0.90151 0.28689 0.0
O99 O 0.07207 0.89181 0.22169 0.0
O100 O 0.05254 0.88367 0.27588 0.0
O101 O 0.02915 0.92964 0.18668 0.0
O102 O 0.05786 0.92273 0.20194 0.0
C103 C 0.00175 0.87226 0.19593 0.0
O104 O 0.01793 0.88481 0.2781 0.0
O105 O 0.016 0.91379 0.25666 0.0
C106 C 0.06851 0.8883 0.26333 0.0
O107 O 0.01699 0.8645 0.20323 0.0
O108 O 0.99987 0.88934 0.20336 0.0
C109 C 0.02921 0.90577 0.10873 0.0
Fe110 Fe 0.34523 0.76718 0.44998 0.0
Fe111 Fe 0.35142 0.80849 0.43246 0.0
O112 O 0.35889 0.78719 0.45545 0.0
Fe113 Fe 0.38023 0.78587 0.48425 0.0
O114 O 0.3848 0.76159 0.46987 0.0
O115 O 0.36331 0.75508 0.41984 0.0
O116 O 0.33595 0.77335 0.39338 0.0
C117 C 0.34196 0.78465 0.36386 0.0
C118 C 0.35817 0.76606 0.54089 0.0
O119 O 0.35056 0.79893 0.37569 0.0
C120 C 0.36632 0.8204 0.5122 0.0
O121 O 0.32639 0.77789 0.47951 0.0
O122 O 0.32664 0.80419 0.44228 0.0
O123 O 0.36879 0.77966 0.53653 0.0
O124 O 0.35198 0.75759 0.50613 0.0
C125 C 0.38977 0.80733 0.41218 0.0
O126 O 0.35196 0.8196 0.48814 0.0
O127 O 0.37976 0.80977 0.50456 0.0
C128 C 0.31861 0.79266 0.46811 0.0
O129 O 0.37492 0.81633 0.41815 0.0
O130 O 0.39252 0.79231 0.4329 0.0
C131 C 0.37889 0.75199 0.43687 0.0
Fe132 Fe 0.48445 0.09554 0.69647 0.0
Fe133 Fe 0.44412 0.10403 0.67291 0.0
O134 O 0.4647 0.10945 0.70274 0.0
Fe135 Fe 0.46574 0.12879 0.7393 0.0
O136 O 0.48378 0.13936 0.7048 0.0
O137 O 0.50096 0.11449 0.70415 0.0
O138 O 0.48535 0.10038 0.63646 0.0
C139 C 0.47265 0.09706 0.60832 0.0
C140 C 0.48631 0.10204 0.78723 0.0
O141 O 0.45608 0.09509 0.62148 0.0
C142 C 0.43192 0.11515 0.76141 0.0
O143 O 0.47182 0.07416 0.68673 0.0
O144 O 0.44284 0.08116 0.69897 0.0
O145 O 0.48262 0.11872 0.77871 0.0
O146 O 0.48462 0.08987 0.75685 0.0
C147 C 0.4434 0.1416 0.66631 0.0
O148 O 0.42886 0.11217 0.71922 0.0
O149 O 0.44786 0.11925 0.77541 0.0
C150 C 0.45558 0.06938 0.69671 0.0
O151 O 0.44368 0.12651 0.64477 0.0
O152 O 0.44899 0.14247 0.70722 0.0
C153 C 0.49908 0.13163 0.69745 0.0
Fe154 Fe 0.15649 0.24047 0.95296 0.0
Fe155 Fe 0.15014 0.19993 0.92736 0.0
O156 O 0.14411 0.21966 0.95988 0.0
Fe157 Fe 0.12567 0.21882 -0.00098 0.0
O158 O 0.11338 0.2369 0.96838 0.0
O159 O 0.13698 0.25568 0.96611 0.0
O160 O 0.14961 0.24176 0.89405 0.0
C161 C 0.15253 0.22947 0.86452 0.0
C162 C 0.15287 0.23944 0.04514 0.0
O163 O 0.15717 0.21326 0.87631 0.0
C164 C 0.14129 0.18534 0.01525 0.0
O165 O 0.17826 0.22923 0.93824 0.0
O166 O 0.1734 0.19984 0.95095 0.0
O167 O 0.13612 0.23511 0.03933 0.0
O168 O 0.16391 0.24028 0.01196 0.0
C169 C 0.11259 0.19748 0.92448 0.0
O170 O 0.14375 0.18326 0.97252 0.0
O171 O 0.13678 0.20078 0.03149 0.0
C172 C 0.18427 0.21337 0.94828 0.0
O173 O 0.12733 0.19863 0.90178 0.0
O174 O 0.11209 0.20215 0.9662 0.0
C175 C 0.11993 0.25274 0.96127 0.0
Fe176 Fe 0.94565 0.90087 0.67302 0.0
Fe177 Fe 0.98686 0.9075 0.69311 0.0
O178 O 0.96674 0.89381 0.69848 0.0
Fe179 Fe 0.96792 0.87306 0.72998 0.0
O180 O 0.95064 0.86087 0.69623 0.0
O181 O 0.94365 0.87972 0.64001 0.0
O182 O 0.95682 0.91106 0.62232 0.0
C183 C 0.97302 0.9093 0.60647 0.0
C184 C 0.93497 0.88686 0.75978 0.0
O185 O 0.98648 0.90521 0.6318 0.0
C186 C 0.98948 0.89747 0.78244 0.0
O187 O 0.94574 0.92271 0.70397 0.0
O188 O 0.97468 0.9294 0.68995 0.0
O189 O 0.95088 0.8813 0.77016 0.0
O190 O 0.93103 0.8916 0.71916 0.0
C191 C 1.00054 0.87116 0.68484 0.0
O192 O 0.98843 0.91075 0.75472 0.0
O193 O 0.98539 0.8813 0.76994 0.0
C194 C 0.95873 0.93422 0.70217 0.0
O195 O 0.00294 0.88801 0.6944 0.0
O196 O 0.98515 0.8636 0.69162 0.0
C197 C 0.94439 0.86369 0.65655 0.0
Fe198 Fe 0.88124 0.21117 0.47649 0.0
Fe199 Fe 0.85053 0.19025 0.42673 0.0
O200 O 0.85895 0.21079 0.45235 0.0
Fe201 Fe 0.84514 0.23082 0.45396 0.0
O202 O 0.86203 0.24424 0.42303 0.0
O203 O 0.88579 0.23557 0.46405 0.0
O204 O 0.89161 0.20579 0.42182 0.0
C205 C 0.88837 0.19104 0.40052 0.0
C206 C 0.86186 0.23004 0.54136 0.0
O207 O 0.87346 0.18227 0.40742 0.0
C208 C 0.81892 0.20483 0.47116 0.0
O209 O 0.88085 0.18686 0.49364 0.0
O210 O 0.85246 0.17767 0.48034 0.0
O211 O 0.85374 0.23878 0.50971 0.0
O212 O 0.87209 0.21648 0.53245 0.0
C213 C 0.83945 0.2164 0.36532 0.0
O214 O 0.82612 0.19447 0.44115 0.0
O215 O 0.82728 0.21894 0.48508 0.0
C216 C 0.86745 0.1762 0.50179 0.0
O217 O 0.84822 0.20163 0.37195 0.0
O218 O 0.83418 0.22635 0.39847 0.0
C219 C 0.87842 0.24656 0.43585 0.0
Fe220 Fe 0.55419 0.10152 0.17412 0.0
Fe221 Fe 0.51336 0.0924 0.19229 0.0
O222 O 0.53282 0.10676 0.20076 0.0
Fe223 Fe 0.53086 0.12633 0.23654 0.0
O224 O 0.54786 0.14015 0.20561 0.0
O225 O 0.55483 0.12371 0.14497 0.0
O226 O 0.54365 0.09209 0.12185 0.0
C227 C 0.52745 0.09346 0.10601 0.0
C228 C 0.56444 0.11329 0.26326 0.0
O229 O 0.51381 0.09643 0.13161 0.0
C230 C 0.51041 0.09947 0.28331 0.0
O231 O 0.55524 0.0789 0.20129 0.0
O232 O 0.52664 0.07118 0.18595 0.0
O233 O 0.54823 0.11737 0.27496 0.0
O234 O 0.56842 0.11022 0.22168 0.0
C235 C 0.49828 0.12837 0.19051 0.0
O236 O 0.51169 0.08725 0.25292 0.0
O237 O 0.51371 0.11617 0.27447 0.0
C238 C 0.5428 0.06684 0.19782 0.0
O239 O 0.4965 0.11116 0.19629 0.0
O240 O 0.51319 0.13642 0.20035 0.0
C241 C 0.55428 0.139 0.1655 0.0
Fe242 Fe 0.62306 0.78481 0.98386 0.0
Fe243 Fe 0.65072 0.80733 0.92734 0.0
O244 O 0.64428 0.78634 0.95428 0.0
Fe245 Fe 0.65905 0.767 0.95117 0.0
O246 O 0.64151 0.75312 0.92383 0.0
O247 O 0.61888 0.7604 0.97034 0.0
O248 O 0.61018 0.79057 0.93269 0.0
C249 C 0.61222 0.80549 0.91121 0.0
C250 C 0.64552 0.76595 0.04233 0.0
O251 O 0.62702 0.81462 0.91486 0.0
C252 C 0.6844 0.79423 0.96313 0.0
O253 O 0.62355 0.80888 0.00303 0.0
O254 O 0.65065 0.81958 0.98158 0.0
O255 O 0.65328 0.75823 0.00852 0.0
O256 O 0.63435 0.77902 0.03687 0.0
C257 C 0.66003 0.78211 0.86196 0.0
O258 O 0.67569 0.80396 0.93446 0.0
O259 O 0.67757 0.77954 0.97842 0.0
C260 C 0.63678 0.82012 0.00763 0.0
O261 O 0.65091 0.79635 0.87184 0.0
O262 O 0.66734 0.77233 0.89304 0.0
C263 C 0.62563 0.75018 0.9395 0.0
Fe264 Fe 0.98885 0.09378 0.79028 0.0
Fe265 Fe 0.96978 0.12888 0.75736 0.0
O266 O 0.96895 0.10773 0.78731 0.0
Fe267 Fe 0.94827 0.1005 0.81431 0.0
O268 O 0.95937 0.1003 0.86969 0.0
O269 O 0.98364 0.08463 0.84747 0.0
O270 O 0.00164 0.11172 0.81892 0.0
C271 C 0.00411 0.12766 0.8031 0.0
C272 C 0.96244 0.06771 0.77575 0.0
O273 O 0.99414 0.13375 0.77085 0.0
C274 C 0.93492 0.11421 0.73426 0.0
O275 O 0.9978 0.10045 0.7336 0.0
O276 O 0.97561 0.1173 0.70447 0.0
O277 O 0.95238 0.07565 0.80529 0.0
O278 O 0.97711 0.07512 0.76188 0.0
C279 C 0.94937 0.13905 0.83147 0.0
O280 O 0.9457 0.12781 0.73853 0.0
O281 O 0.93586 0.10046 0.76048 0.0
C282 C 0.98932 0.10689 0.69924 0.0
O283 O 0.96381 0.14172 0.80839 0.0
O284 O 0.94051 0.12403 0.82806 0.0
C285 C 0.97391 0.09162 0.87898 0.0
Fe286 Fe 0.64966 0.1945 0.5608 0.0
Fe287 Fe 0.65712 0.23519 0.5382 0.0
O288 O 0.64285 0.2155 0.53462 0.0
Fe289 Fe 0.62171 0.21682 0.50478 0.0
O290 O 0.60881 0.21113 0.55593 0.0
O291 O 0.62592 0.18724 0.57447 0.0
O292 O 0.65014 0.20527 0.61661 0.0
C293 C 0.65884 0.21975 0.62659 0.0
C294 C 0.63531 0.18154 0.48118 0.0
O295 O 0.66577 0.22982 0.59567 0.0
C296 C 0.64431 0.23579 0.44695 0.0
O297 O 0.67465 0.1981 0.55214 0.0
O298 O 0.67585 0.22333 0.51072 0.0
O299 O 0.6221 0.19271 0.48625 0.0
O300 O 0.64937 0.18232 0.50642 0.0
C301 C 0.62378 0.25161 0.54892 0.0
O302 O 0.65094 0.24409 0.48132 0.0
O303 O 0.63346 0.22238 0.45191 0.0
C304 C 0.68328 0.20883 0.52536 0.0
O305 O 0.63936 0.24847 0.56597 0.0
O306 O 0.61735 0.24129 0.51781 0.0
C307 C 0.61107 0.1964 0.5782 0.0
Fe308 Fe 0.55693 0.90078 0.31713 0.0
Fe309 Fe 0.5163 0.91009 0.29762 0.0
O310 O 0.53568 0.89566 0.28985 0.0
Fe311 Fe 0.53373 0.87616 0.25396 0.0
O312 O 0.55069 0.86232 0.28507 0.0
O313 O 0.5573 0.87855 0.34631 0.0
O314 O 0.54616 0.91028 0.36924 0.0
C315 C 0.52987 0.9088 0.38467 0.0
C316 C 0.56742 0.88896 0.22798 0.0
O317 O 0.51635 0.90611 0.35847 0.0
C318 C 0.51285 0.90289 0.20686 0.0
O319 O 0.55822 0.92333 0.28953 0.0
O320 O 0.52961 0.9312 0.30404 0.0
O321 O 0.55118 0.88515 0.2158 0.0
O322 O 0.57125 0.89196 0.26974 0.0
C323 C 0.50109 0.87416 0.29908 0.0
O324 O 0.51506 0.91517 0.23679 0.0
O325 O 0.51641 0.88622 0.21567 0.0
C326 C 0.54553 0.93521 0.28986 0.0
O327 O 0.49938 0.89137 0.29307 0.0
O328 O 0.51611 0.86615 0.29031 0.0
C329 C 0.55676 0.86329 0.32556 0.0
Fe330 Fe 0.84412 0.76759 0.03814 0.0
Fe331 Fe 0.8793 0.78628 0.00373 0.0
O332 O 0.85846 0.78726 0.03488 0.0
Fe333 Fe 0.85187 0.80796 0.06281 0.0
O334 O 0.85229 0.79662 0.11783 0.0
O335 O 0.83596 0.7726 0.09636 0.0
O336 O 0.86206 0.75403 0.06446 0.0
C337 C 0.87784 0.75145 0.04773 0.0
C338 C 0.81827 0.79443 0.02758 0.0
O339 O 0.88405 0.7619 0.01655 0.0
C340 C 0.86484 0.82145 0.98215 0.0
O341 O 0.84987 0.75895 0.98087 0.0
O342 O 0.86721 0.78071 0.95133 0.0
O343 O 0.82693 0.80415 0.05642 0.0
O344 O 0.82524 0.7799 0.01169 0.0
C345 C 0.89053 0.80653 0.07702 0.0
O346 O 0.87827 0.81041 0.98554 0.0
O347 O 0.85129 0.82059 0.0091 0.0
C348 C 0.85638 0.7673 0.94647 0.0
O349 O 0.89272 0.79197 0.05407 0.0
O350 O 0.87558 0.8155 0.07461 0.0
C351 C 0.8435 0.78216 0.12745 0.0
Fe352 Fe 0.53254 0.62899 0.74875 0.0
Fe353 Fe 0.51325 0.59587 0.79093 0.0
O354 O 0.5332 0.60961 0.78517 0.0
Fe355 Fe 0.5536 0.60399 0.8154 0.0
O356 O 0.55415 0.62636 0.84368 0.0
O357 O 0.54931 0.6425 0.78133 0.0
O358 O 0.51451 0.63965 0.78301 0.0
C359 C 0.49907 0.63213 0.78992 0.0
C360 C 0.56628 0.61494 0.72734 0.0
O361 O 0.49693 0.61503 0.78283 0.0
C362 C 0.54191 0.56951 0.79117 0.0
O363 O 0.51576 0.61907 0.70884 0.0
O364 O 0.51333 0.59023 0.73043 0.0
O365 O 0.56914 0.61197 0.76958 0.0
O366 O 0.55047 0.61934 0.71297 0.0
C367 C 0.52488 0.59767 0.87948 0.0
O368 O 0.52567 0.57434 0.80095 0.0
O369 O 0.55472 0.58122 0.78926 0.0
C370 C 0.51216 0.6024 0.69987 0.0
O371 O 0.51216 0.60069 0.85113 0.0
O372 O 0.54139 0.59525 0.86644 0.0
C373 C 0.55471 0.64147 0.82238 0.0
Fe374 Fe 0.65212 0.30489 0.06064 0.0
Fe375 Fe 0.62298 0.28349 0.00618 0.0
O376 O 0.64434 0.28413 0.03511 0.0
Fe377 Fe 0.65787 0.26396 0.03846 0.0
O378 O 0.66743 0.2693 0.09504 0.0
O379 O 0.65263 0.29423 0.11657 0.0
O380 O 0.62878 0.31304 0.07536 0.0
C381 C 0.61368 0.30438 0.07995 0.0
C382 C 0.68454 0.28964 0.02197 0.0
O383 O 0.61069 0.28975 0.05779 0.0
C384 C 0.64442 0.26352 0.94794 0.0
O385 O 0.65185 0.31692 0.00608 0.0
O386 O 0.62405 0.30755 0.98717 0.0
O387 O 0.6767 0.27505 0.0091 0.0
O388 O 0.67684 0.30032 0.05054 0.0
C389 C 0.62391 0.24915 0.05211 0.0
O390 O 0.6342 0.2774 0.95299 0.0
O391 O 0.65072 0.25496 0.98233 0.0
C392 C 0.63767 0.31818 0.98143 0.0
O393 O 0.6179 0.25917 0.01989 0.0
O394 O 0.63981 0.25165 0.0681 0.0
C395 C 0.66092 0.2795 0.12625 0.0
Fe396 Fe 0.98084 0.40784 0.2898 0.0
Fe397 Fe 0.94057 0.40063 0.31664 0.0
O398 O 0.96122 0.39339 0.28941 0.0
Fe399 Fe 0.96208 0.3718 0.26171 0.0
O400 O 0.98651 0.36735 0.27455 0.0
O401 O 0.99478 0.39062 0.31802 0.0
O402 O 0.97605 0.41719 0.34696 0.0
C403 C 0.96656 0.41043 0.3793 0.0
C404 C 0.98077 0.39317 0.20035 0.0
O405 O 0.95205 0.40139 0.37147 0.0
C406 C 0.92714 0.38603 0.23768 0.0
O407 O 0.9683 0.42606 0.26122 0.0
O408 O 0.94443 0.42543 0.30719 0.0
O409 O 0.9675 0.38241 0.20761 0.0
O410 O 0.98917 0.40089 0.23306 0.0
C411 C 0.94171 0.36223 0.33571 0.0
O412 O 0.92797 0.40013 0.26291 0.0
O413 O 0.93791 0.3725 0.24348 0.0
C414 C 0.95399 0.43349 0.27698 0.0
O415 O 0.93283 0.37717 0.33135 0.0
O416 O 0.95655 0.35978 0.31423 0.0
C417 C 0.99741 0.37452 0.30335 0.0
Fe418 Fe 0.85038 0.69562 0.56359 0.0
Fe419 Fe 0.87901 0.7167 0.507 0.0
O420 O 0.85765 0.71616 0.53596 0.0
Fe421 Fe 0.84345 0.73597 0.53716 0.0
O422 O 0.83458 0.73139 0.59501 0.0
O423 O 0.8502 0.70714 0.6184 0.0
O424 O 0.87381 0.68773 0.57738 0.0
C425 C 0.88888 0.69644 0.58114 0.0
C426 C 0.81739 0.70934 0.52549 0.0
O427 O 0.89148 0.71113 0.55901 0.0
C428 C 0.85717 0.73552 0.4467 0.0
O429 O 0.85038 0.68293 0.50986 0.0
O430 O 0.87802 0.69244 0.4895 0.0
O431 O 0.82479 0.72367 0.50968 0.0
O432 O 0.82557 0.69969 0.55526 0.0
C433 C 0.87707 0.75213 0.54841 0.0
O434 O 0.86788 0.72211 0.45318 0.0
O435 O 0.85003 0.74407 0.48 0.0
C436 C 0.86448 0.68161 0.48479 0.0
O437 O 0.88382 0.74111 0.51921 0.0
O438 O 0.8611 0.74976 0.56415 0.0
C439 C 0.84155 0.72182 0.62694 0.0
Fe440 Fe 0.56045 0.40372 0.67765 0.0
Fe441 Fe 0.53828 0.37356 0.72561 0.0
O442 O 0.5393 0.39566 0.70052 0.0
Fe443 Fe 0.51931 0.40956 0.69845 0.0
O444 O 0.52504 0.41999 0.64269 0.0
O445 O 0.5504 0.40567 0.62155 0.0
O446 O 0.56853 0.38059 0.66015 0.0
C447 C 0.55958 0.36589 0.65206 0.0
C448 C 0.54525 0.43561 0.71896 0.0
O449 O 0.54453 0.36277 0.67209 0.0
C450 C 0.51846 0.39377 0.787 0.0
O451 O 0.57182 0.40203 0.73297 0.0
O452 O 0.56224 0.37375 0.74552 0.0
O453 O 0.53051 0.42768 0.73015 0.0
O454 O 0.55617 0.42827 0.69046 0.0
C455 C 0.5039 0.37608 0.68033 0.0
O456 O 0.53205 0.38331 0.78019 0.0
O457 O 0.51021 0.4015 0.75388 0.0
C458 C 0.57285 0.38707 0.75474 0.0
O459 O 0.51413 0.36911 0.71076 0.0
O460 O 0.50649 0.39234 0.66678 0.0
C461 C 0.53593 0.41439 0.61167 0.0
Fe462 Fe 0.87812 0.28113 -0.00094 0.0
Fe463 Fe 0.84584 0.26034 0.95662 0.0
O464 O 0.85903 0.28078 0.9617 0.0
Fe465 Fe 0.85306 0.30055 0.92921 0.0
O466 O 0.87543 0.3013 0.9018 0.0
O467 O 0.892 0.29684 0.96383 0.0
O468 O 0.88922 0.2623 0.96859 0.0
C469 C 0.88196 0.24668 0.96313 0.0
C470 C 0.86345 0.31519 0.01569 0.0
O471 O 0.86487 0.24455 0.96924 0.0
C472 C 0.81882 0.28817 0.95209 0.0
O473 O 0.86746 0.2657 0.04125 0.0
O474 O 0.83916 0.26127 0.0162 0.0
O475 O 0.86034 0.31726 0.97328 0.0
O476 O 0.86833 0.29984 0.03165 0.0
C477 C 0.84928 0.2707 0.86749 0.0
O478 O 0.82427 0.27209 0.94263 0.0
O479 O 0.83012 0.30132 0.95451 0.0
C480 C 0.85064 0.26198 0.04854 0.0
O481 O 0.85203 0.25843 0.89724 0.0
O482 O 0.84519 0.2871 0.87907 0.0
C483 C 0.89071 0.30158 0.92223 0.0
Fe484 Fe 0.98374 0.59347 0.20064 0.0
Fe485 Fe 0.94324 0.60105 0.17767 0.0
O486 O 0.96418 0.60792 0.20396 0.0
Fe487 Fe 0.96541 0.62912 0.23357 0.0
O488 O 0.98969 0.63375 0.21903 0.0
O489 O 0.99723 0.61109 0.17275 0.0
O490 O 0.97823 0.58489 0.14299 0.0
C491 C 0.96844 0.59222 0.11198 0.0
C492 C 0.98479 0.60669 0.29154 0.0
O493 O 0.95405 0.6011 0.12192 0.0
C494 C 0.93056 0.61469 0.25841 0.0
O495 O 0.97158 0.57484 0.2287 0.0
O496 O 0.94714 0.57615 0.18478 0.0
O497 O 0.97149 0.61764 0.28649 0.0
O498 O 0.99281 0.59967 0.25727 0.0
C499 C 0.94423 0.63961 0.16142 0.0
O500 O 0.93126 0.60085 0.23231 0.0
O501 O 0.94143 0.62821 0.25344 0.0
C502 C 0.95699 0.56771 0.21369 0.0
O503 O 0.93542 0.62462 0.16544 0.0
O504 O 0.95917 0.642 0.18259 0.0
C505 C 1.00006 0.62701 0.18834 0.0
Fe506 Fe 0.65707 0.73535 0.44975 0.0
Fe507 Fe 0.64941 0.69461 0.42981 0.0
O508 O 0.64288 0.71568 0.45582 0.0
Fe509 Fe 0.62224 0.71704 0.48759 0.0
O510 O 0.61726 0.74128 0.47256 0.0
O511 O 0.6388 0.74821 0.42254 0.0
O512 O 0.66494 0.72928 0.39155 0.0
C513 C 0.65694 0.71927 0.36202 0.0
C514 C 0.64553 0.73693 0.54201 0.0
O515 O 0.64814 0.70509 0.37389 0.0
C516 C 0.63732 0.6824 0.51237 0.0
O517 O 0.67617 0.72366 0.47679 0.0
O518 O 0.67443 0.6988 0.43425 0.0
O519 O 0.63465 0.72352 0.5386 0.0
O520 O 0.65167 0.74498 0.50666 0.0
C521 C 0.61056 0.69506 0.41806 0.0
O522 O 0.65065 0.68292 0.48464 0.0
O523 O 0.62373 0.69325 0.5085 0.0
C524 C 0.68315 0.70894 0.46213 0.0
O525 O 0.62574 0.6865 0.42057 0.0
O526 O 0.60844 0.71025 0.43843 0.0
C527 C 0.62318 0.75113 0.43983 0.0
Fe528 Fe 0.4497 0.39872 0.17594 0.0
Fe529 Fe 0.48966 0.40702 0.20358 0.0
O530 O 0.46975 0.39311 0.20764 0.0
Fe531 Fe 0.47013 0.3736 0.24372 0.0
O532 O 0.45424 0.35985 0.20889 0.0
O533 O 0.44962 0.37652 0.14723 0.0
O534 O 0.46259 0.40759 0.12593 0.0
C535 C 0.47922 0.4048 0.11409 0.0
C536 C 0.43599 0.3874 0.26258 0.0
O537 O 0.4916 0.40212 0.14354 0.0
C538 C 0.48954 0.40043 0.29473 0.0
O539 O 0.44814 0.42141 0.20249 0.0
O540 O 0.47722 0.42845 0.19239 0.0
O541 O 0.45157 0.38284 0.27794 0.0
O542 O 0.43358 0.3905 0.22024 0.0
C543 C 0.50419 0.37098 0.20553 0.0
O544 O 0.48872 0.41263 0.26409 0.0
O545 O 0.48609 0.38373 0.28544 0.0
C546 C 0.46088 0.43318 0.20143 0.0
O547 O 0.50604 0.38807 0.21308 0.0
O548 O 0.48878 0.36329 0.21122 0.0
C549 C 0.44961 0.36113 0.16727 0.0
Fe550 Fe 0.34439 0.73959 0.95344 0.0
Fe551 Fe 0.3785 0.72105 0.9928 0.0
O552 O 0.35849 0.71983 0.95859 0.0
Fe553 Fe 0.35249 0.6991 0.92994 0.0
O554 O 0.34291 0.71097 0.87933 0.0
O555 O 0.34842 0.74039 0.89286 0.0
O556 O 0.36327 0.75637 0.95973 0.0
C557 C 0.38031 0.75462 0.95161 0.0
C558 C 0.31828 0.71071 0.95653 0.0
O559 O 0.38814 0.7393 0.95757 0.0
C560 C 0.36535 0.68708 0.01682 0.0
O561 O 0.33959 0.73964 0.01431 0.0
O562 O 0.36873 0.73755 0.03379 0.0
O563 O 0.33012 0.69802 0.9585 0.0
O564 O 0.32292 0.72687 0.94539 0.0
C565 C 0.38999 0.69905 0.91774 0.0
O566 O 0.37009 0.70296 0.02985 0.0
O567 O 0.36138 0.68388 0.97529 0.0
C568 C 0.35211 0.7409 0.04398 0.0
O569 O 0.39192 0.70475 0.95839 0.0
O570 O 0.37429 0.69842 0.89931 0.0
C571 C 0.34515 0.72741 0.86535 0.0
Fe572 Fe 0.0552 0.59862 0.67663 0.0
Fe573 Fe 0.01445 0.59254 0.70104 0.0
O574 O 0.03463 0.60617 0.70376 0.0
Fe575 Fe 0.03417 0.62729 0.7339 0.0
O576 O 0.04017 0.64008 0.68314 0.0
O577 O 0.06316 0.62211 0.66224 0.0
O578 O 0.04401 0.59838 0.62137 0.0
C579 C 0.02922 0.59011 0.61214 0.0
C580 C 0.06916 0.61257 0.75592 0.0
O581 O 0.01928 0.58342 0.64364 0.0
C582 C 0.01459 0.60543 0.79213 0.0
O583 O 0.05082 0.57375 0.68624 0.0
O584 O 0.0259 0.57365 0.72895 0.0
O585 O 0.05826 0.62605 0.752 0.0
O586 O 0.06787 0.59863 0.73035 0.0
C587 C 0.99939 0.62655 0.68962 0.0
O588 O 0.00586 0.59922 0.75794 0.0
O589 O 0.0284 0.61568 0.78677 0.0
C590 C 0.0404 0.56591 0.71525 0.0
O591 O 0.00169 0.61068 0.67317 0.0
O592 O 0.00987 0.63254 0.72097 0.0
C593 C 0.05467 0.63741 0.66033 0.0
Fe594 Fe 0.1214 0.28943 0.4751 0.0
Fe595 Fe 0.15072 0.31092 0.42179 0.0
O596 O 0.14337 0.29037 0.44935 0.0
Fe597 Fe 0.15812 0.27099 0.45113 0.0
O598 O 0.14152 0.25657 0.422 0.0
O599 O 0.11739 0.26491 0.46249 0.0
O600 O 0.11009 0.29456 0.42138 0.0
C601 C 0.11257 0.30939 0.39989 0.0
C602 C 0.14194 0.27123 0.53917 0.0
O603 O 0.12739 0.31841 0.40504 0.0
C604 C 0.18329 0.29822 0.46432 0.0
O605 O 0.12167 0.31374 0.49262 0.0
O606 O 0.14946 0.32378 0.475 0.0
O607 O 0.15046 0.26293 0.50754 0.0
O608 O 0.13117 0.28435 0.53042 0.0
C609 C 0.16188 0.28473 0.36122 0.0
O610 O 0.17539 0.30741 0.43318 0.0
O611 O 0.17579 0.28403 0.48067 0.0
C612 C 0.13507 0.32463 0.49909 0.0
O613 O 0.15233 0.29905 0.36751 0.0
O614 O 0.1682 0.27555 0.39464 0.0
C615 C 0.12515 0.25395 0.43475 0.0
Fe616 Fe 0.4424 0.59949 0.31583 0.0
Fe617 Fe 0.48342 0.59256 0.29495 0.0
O618 O 0.46356 0.60667 0.29112 0.0
Fe619 Fe 0.46487 0.62797 0.26218 0.0
O620 O 0.45872 0.64043 0.31315 0.0
O621 O 0.43481 0.62313 0.33052 0.0
O622 O 0.45272 0.59856 0.37173 0.0
C623 C 0.46689 0.58953 0.3823 0.0
C624 C 0.43 0.61424 0.23605 0.0
O625 O 0.47759 0.58323 0.35178 0.0
C626 C 0.48435 0.60596 0.20443 0.0
O627 O 0.44629 0.5746 0.30568 0.0
O628 O 0.4719 0.57405 0.26558 0.0
O629 O 0.44098 0.62752 0.2422 0.0
O630 O 0.43057 0.60012 0.26107 0.0
C631 C 0.49903 0.62627 0.30879 0.0
O632 O 0.49277 0.59932 0.23865 0.0
O633 O 0.47085 0.61661 0.20964 0.0
C634 C 0.45699 0.56664 0.2776 0.0
O635 O 0.49634 0.61031 0.32442 0.0
O636 O 0.48909 0.63251 0.27675 0.0
C637 C 0.44375 0.63812 0.33413 0.0
Fe638 Fe 0.15041 0.69336 0.05721 0.0
Fe639 Fe 0.15734 0.73457 0.03969 0.0
O640 O 0.14326 0.71478 0.03385 0.0
Fe641 Fe 0.12202 0.71625 0.00464 0.0
O642 O 0.10941 0.70923 0.05525 0.0
O643 O 0.12683 0.68513 0.06913 0.0
O644 O 0.15025 0.70302 0.11392 0.0
C645 C 0.15861 0.71738 0.12624 0.0
C646 C 0.13657 0.68192 0.97585 0.0
O647 O 0.16587 0.72812 0.09707 0.0
C648 C 0.14432 0.73659 0.94857 0.0
O649 O 0.17539 0.69759 0.04999 0.0
O650 O 0.17616 0.72333 0.01076 0.0
O651 O 0.123 0.69254 0.98265 0.0
O652 O 0.1506 0.68246 0.00126 0.0
C653 C 0.12363 0.75032 0.05266 0.0
O654 O 0.15114 0.74438 0.98353 0.0
O655 O 0.13345 0.72315 0.9525 0.0
C656 C 0.18362 0.70848 0.0229 0.0
O657 O 0.13947 0.74742 0.06859 0.0
O658 O 0.11714 0.74028 0.02107 0.0
C659 C 0.1119 0.69395 0.07483 0.0
Fe660 Fe 0.05231 0.39786 0.8142 0.0
Fe661 Fe 0.0119 0.40417 0.78705 0.0
O662 O 0.03239 0.39104 0.78333 0.0
Fe663 Fe 0.03269 0.37111 0.74873 0.0
O664 O 0.04891 0.35826 0.78482 0.0
O665 O 0.0534 0.37609 0.8446 0.0
O666 O 0.03915 0.40677 0.86375 0.0
C667 C 0.0227 0.40335 0.8761 0.0
C668 C 0.06624 0.38609 0.72829 0.0
O669 O 0.01039 0.39965 0.84717 0.0
C670 C 0.01282 0.39704 0.69617 0.0
O671 O 0.05281 0.42025 0.78591 0.0
O672 O 0.02354 0.4262 0.7969 0.0
O673 O 0.0509 0.38047 0.71389 0.0
O674 O 0.06874 0.3898 0.77027 0.0
C675 C 0.99868 0.36772 0.78715 0.0
O676 O 0.0124 0.4093 0.72665 0.0
O677 O 0.01671 0.38046 0.70586 0.0
C678 C 0.0396 0.43151 0.78665 0.0
O679 O 0.99621 0.38461 0.7784 0.0
O680 O 0.01434 0.36053 0.78192 0.0
C681 C 0.05372 0.36039 0.82613 0.0
Fe682 Fe 0.34303 0.27054 0.54335 0.0
Fe683 Fe 0.37859 0.2883 0.5082 0.0
O684 O 0.35758 0.28999 0.53832 0.0
Fe685 Fe 0.35109 0.31126 0.56344 0.0
O686 O 0.35136 0.30099 0.61953 0.0
O687 O 0.33474 0.27672 0.601 0.0
O688 O 0.3608 0.25727 0.57158 0.0
C689 C 0.37652 0.25409 0.55514 0.0
C690 C 0.31737 0.29731 0.52976 0.0
O691 O 0.38299 0.26401 0.52327 0.0
C692 C 0.36432 0.323 0.48163 0.0
O693 O 0.34882 0.26091 0.48671 0.0
O694 O 0.36675 0.28207 0.4565 0.0
O695 O 0.32611 0.30749 0.55743 0.0
O696 O 0.32431 0.28252 0.51532 0.0
C697 C 0.38977 0.31011 0.57824 0.0
O698 O 0.3778 0.31213 0.48715 0.0
O699 O 0.35066 0.32274 0.50828 0.0
C700 C 0.35567 0.26887 0.45208 0.0
O701 O 0.39178 0.29479 0.55842 0.0
O702 O 0.37482 0.319 0.57437 0.0
C703 C 0.34208 0.28704 0.63096 0.0
H704 H 0.06927 0.04196 0.31511 0.0
H705 H 0.02787 0.96268 0.15618 0.0
H706 H 0.03177 0.05057 0.20249 0.0
H707 H 0.07053 0.95146 0.25507 0.0
H708 H 0.03115 0.99539 0.17094 0.0
H709 H 0.07206 0.00937 0.29232 0.0
C710 C 0.06181 0.03707 0.28538 0.0
C711 C 0.05003 0.04893 0.26112 0.0
C712 C 0.03996 0.9859 0.18935 0.0
C713 C 0.05315 0.01189 0.23501 0.0
C714 C 0.03805 0.96716 0.18094 0.0
C715 C 0.04884 0.95434 0.20471 0.0
C716 C 0.05256 0.99204 0.22247 0.0
C717 C 0.06195 0.96095 0.23602 0.0
C718 C 0.06339 0.0185 0.27244 0.0
C719 C 0.04075 0.0419 0.22279 0.0
N720 N 0.0633 0.9794 0.24453 0.0
N721 N 0.04242 0.02391 0.21123 0.0
H722 H 0.20468 0.82088 0.5409 0.0
H723 H 0.29654 0.76712 0.50814 0.0
H724 H 0.2071 0.76627 0.48208 0.0
H725 H 0.29569 0.82276 0.45522 0.0
H726 H 0.26361 0.76884 0.52076 0.0
H727 H 0.23811 0.82407 0.52738 0.0
C728 C 0.21215 0.80967 0.52495 0.0
C729 C 0.20312 0.79319 0.51316 0.0
C730 C 0.27068 0.78071 0.50665 0.0
C731 C 0.24091 0.79671 0.49849 0.0
C732 C 0.28951 0.77982 0.49952 0.0
C733 C 0.29892 0.79476 0.4799 0.0
C734 C 0.26108 0.79672 0.49488 0.0
C735 C 0.28891 0.81087 0.46992 0.0
C736 C 0.2311 0.81156 0.51714 0.0
C737 C 0.21341 0.77916 0.49221 0.0
N738 N 0.27038 0.81145 0.47748 0.0
N739 N 0.23177 0.78114 0.48624 0.0
H740 H 0.42773 0.05216 0.74569 0.0
H741 H 0.48184 0.95709 0.73729 0.0
H742 H 0.47534 0.04115 0.66155 0.0
H743 H 0.4267 0.95955 0.79187 0.0
H744 H 0.4787 0.98841 0.70979 0.0
H745 H 0.42561 0.01888 0.7628 0.0
C746 C 0.43751 0.04275 0.73027 0.0
C747 C 0.45192 0.04946 0.70281 0.0
C748 C 0.46715 0.9822 0.72747 0.0
C749 C 0.44965 0.01171 0.72223 0.0
C750 C 0.469 0.96429 0.74341 0.0
C751 C 0.45458 0.9558 0.76725 0.0
C752 C 0.45084 0.99203 0.73595 0.0
C753 C 0.43814 0.96569 0.77362 0.0
C754 C 0.43632 0.02382 0.74009 0.0
C755 C 0.46422 0.0367 0.68365 0.0
N756 N 0.43678 0.98347 0.75859 0.0
N757 N 0.46288 0.01858 0.69404 0.0
H758 H 0.21108 0.2382 0.9285 0.0
H759 H 0.29656 0.18075 0.02555 0.0
H760 H 0.20342 0.18349 0.98352 0.0
H761 H 0.29448 0.23986 0.00925 0.0
H762 H 0.26409 0.17907 0.00047 0.0
H763 H 0.24358 0.23628 0.94601 0.0
C764 C 0.21623 0.22568 0.94414 0.0
C765 C 0.20438 0.21106 0.95505 0.0
C766 C 0.27086 0.19234 0.00253 0.0
C767 C 0.24196 0.20884 0.97572 0.0
C768 C 0.28934 0.19331 0.01672 0.0
C769 C 0.29822 0.21048 0.0199 0.0
C770 C 0.26149 0.20862 0.99075 0.0
C771 C 0.28823 0.22632 0.00791 0.0
C772 C 0.23488 0.22462 0.95426 0.0
C773 C 0.21206 0.19512 0.97474 0.0
N774 N 0.27054 0.22497 0.99387 0.0
N775 N 0.23041 0.19446 0.98483 0.0
H776 H 0.93345 0.95135 0.75883 0.0
H777 H 0.97562 0.05056 0.70009 0.0
H778 H 0.97642 0.96225 0.66042 0.0
H779 H 0.93964 0.04185 0.81576 0.0
H780 H 0.9713 0.01866 0.67772 0.0
H781 H 0.9311 0.98479 0.7734 0.0
C782 C 0.94218 0.96078 0.73996 0.0
C783 C 0.95531 0.95407 0.70888 0.0
C784 C 0.96426 0.02365 0.70797 0.0
C785 C 0.95266 0.99197 0.72493 0.0
C786 C 0.96675 0.0419 0.7208 0.0
C787 C 0.95825 0.04878 0.76033 0.0
C788 C 0.95331 0.01198 0.735 0.0
C789 C 0.94658 0.03702 0.78524 0.0
C790 C 0.9409 0.97978 0.74836 0.0
C791 C 0.96631 0.96679 0.68526 0.0
N792 N 0.94462 0.01905 0.77248 0.0
N793 N 0.96477 0.98503 0.69389 0.0
H794 H 0.7078 0.23532 0.50145 0.0
H795 H 0.79531 0.17592 0.45196 0.0
H796 H 0.70431 0.17707 0.53069 0.0
H797 H 0.79776 0.22867 0.52034 0.0
H798 H 0.7619 0.17491 0.46726 0.0
H799 H 0.74086 0.23229 0.49161 0.0
C800 C 0.71394 0.22181 0.50543 0.0
C801 C 0.70324 0.20641 0.51707 0.0
C802 C 0.76994 0.18651 0.47928 0.0
C803 C 0.74125 0.20293 0.50554 0.0
C804 C 0.78892 0.18715 0.47052 0.0
C805 C 0.79935 0.20251 0.48438 0.0
C806 C 0.76144 0.2015 0.50104 0.0
C807 C 0.79036 0.21662 0.50856 0.0
C808 C 0.73286 0.22015 0.50011 0.0
C809 C 0.71211 0.18929 0.52197 0.0
N810 N 0.77193 0.2159 0.5154 0.0
N811 N 0.7307 0.18794 0.51586 0.0
H812 H 0.5768 0.95727 0.29328 0.0
H813 H 0.52456 0.03812 0.16023 0.0
H814 H 0.52065 0.95576 0.24512 0.0
H815 H 0.57034 0.05042 0.2494 0.0
H816 H 0.5282 0.00564 0.17704 0.0
H817 H 0.57919 0.98946 0.26556 0.0
C818 C 0.5651 0.96364 0.27663 0.0
C819 C 0.54843 0.95399 0.27194 0.0
C820 C 0.53755 0.01537 0.19292 0.0
C821 C 0.55115 0.9902 0.23978 0.0
C822 C 0.53548 0.03397 0.18332 0.0
C823 C 0.54693 0.04705 0.20419 0.0
C824 C 0.55107 0.00962 0.22407 0.0
C825 C 0.56112 0.04074 0.23294 0.0
C826 C 0.56644 0.98193 0.26104 0.0
C827 C 0.53367 0.96277 0.25011 0.0
N828 N 0.56267 0.0224 0.24264 0.0
N829 N 0.5354 0.98028 0.23489 0.0
H830 H 0.79227 0.80813 0.08589 0.0
H831 H 0.71031 0.80861 0.90561 0.0
H832 H 0.80008 0.78936 0.9471 0.0
H833 H 0.70255 0.78878 0.04351 0.0
H834 H 0.74345 0.81184 0.92103 0.0
H835 H 0.75911 0.8113 0.07069 0.0
C836 C 0.78703 0.80501 0.05204 0.0
C837 C 0.79879 0.79837 0.01769 0.0
C838 C 0.73438 0.80704 0.94796 0.0
C839 C 0.76127 0.80228 0.00011 0.0
C840 C 0.71555 0.80529 0.93934 0.0
C841 C 0.70381 0.79833 0.97334 0.0
C842 C 0.74131 0.80228 0.99117 0.0
C843 C 0.71124 0.79407 0.01637 0.0
C844 C 0.76819 0.80673 0.04354 0.0
C845 C 0.79137 0.79438 0.9745 0.0
N846 N 0.72957 0.79616 0.02417 0.0
N847 N 0.77303 0.79645 0.96683 0.0
H848 H 0.52869 0.45228 0.79135 0.0
H849 H 0.57023 0.55271 0.7438 0.0
H850 H 0.56875 0.46226 0.68495 0.0
H851 H 0.52218 0.54103 0.82583 0.0
H852 H 0.57404 0.51937 0.73055 0.0
H853 H 0.53074 0.48441 0.81391 0.0
C854 C 0.53802 0.46123 0.77281 0.0
C855 C 0.54832 0.45462 0.73567 0.0
C856 C 0.56279 0.52419 0.75172 0.0
C857 C 0.55066 0.49169 0.76128 0.0
C858 C 0.56065 0.54315 0.75941 0.0
C859 C 0.54577 0.54963 0.78557 0.0
C860 C 0.55009 0.51176 0.77093 0.0
C861 C 0.53372 0.5367 0.80494 0.0
C862 C 0.53918 0.47963 0.78573 0.0
C863 C 0.56044 0.46683 0.71356 0.0
N864 N 0.53613 0.51846 0.79716 0.0
N865 N 0.56113 0.48489 0.72637 0.0
H866 H 0.79147 0.26815 0.91341 0.0
H867 H 0.71009 0.31422 0.05651 0.0
H868 H 0.80061 0.3153 0.00047 0.0
H869 H 0.70286 0.27233 0.95307 0.0
H870 H 0.74273 0.31658 0.0348 0.0
H871 H 0.75856 0.27112 0.92561 0.0
C872 C 0.7865 0.27923 0.93501 0.0
C873 C 0.7988 0.2914 0.95628 0.0
C874 C 0.7339 0.30703 0.01666 0.0
C875 C 0.76089 0.29481 0.97096 0.0
C876 C 0.71529 0.30567 0.02899 0.0
C877 C 0.70378 0.29285 0.00707 0.0
C878 C 0.74095 0.29548 0.98221 0.0
C879 C 0.71124 0.28219 0.97152 0.0
C880 C 0.76765 0.28096 0.94191 0.0
C881 C 0.79155 0.30563 0.98345 0.0
N882 N 0.7293 0.28366 0.96054 0.0
N883 N 0.77302 0.30682 0.99056 0.0
H884 H 0.96317 0.54994 0.29433 0.0
H885 H 0.959 0.45071 0.19513 0.0
H886 H 0.94224 0.54144 0.15775 0.0
H887 H 0.94158 0.46049 0.33421 0.0
H888 H 0.95638 0.48387 0.17967 0.0
H889 H 0.95891 0.51696 0.31001 0.0
C890 C 0.95756 0.54112 0.26783 0.0
C891 C 0.95305 0.54831 0.22472 0.0
C892 C 0.95289 0.47867 0.21334 0.0
C893 C 0.94857 0.51079 0.24202 0.0
C894 C 0.95443 0.45984 0.22219 0.0
C895 C 0.95047 0.45296 0.26594 0.0
C896 C 0.94795 0.49068 0.24891 0.0
C897 C 0.94463 0.4653 0.29995 0.0
C898 C 0.95506 0.52241 0.27685 0.0
C899 C 0.94579 0.53639 0.19149 0.0
N900 N 0.94388 0.48367 0.29098 0.0
N901 N 0.94408 0.51809 0.20055 0.0
H902 H 0.70067 0.71401 0.54328 0.0
H903 H 0.79997 0.71523 0.44418 0.0
H904 H 0.70981 0.69584 0.40455 0.0
H905 H 0.79069 0.69533 0.58142 0.0
H906 H 0.76696 0.71161 0.42817 0.0
H907 H 0.73373 0.71065 0.55855 0.0
C908 C 0.70966 0.70915 0.51622 0.0
C909 C 0.70262 0.70517 0.47265 0.0
C910 C 0.77224 0.70782 0.46154 0.0
C911 C 0.74027 0.70177 0.48949 0.0
C912 C 0.79098 0.70996 0.47075 0.0
C913 C 0.79797 0.70559 0.51417 0.0
C914 C 0.7604 0.70184 0.49645 0.0
C915 C 0.78581 0.69877 0.54745 0.0
C916 C 0.72843 0.70718 0.52498 0.0
C917 C 0.71476 0.69893 0.43866 0.0
N918 N 0.76751 0.69742 0.53818 0.0
N919 N 0.73311 0.69775 0.44753 0.0
H920 H 0.43382 0.54027 0.31473 0.0
H921 H 0.47903 0.46151 0.16164 0.0
H922 H 0.47211 0.5496 0.20405 0.0
H923 H 0.4339 0.44999 0.25334 0.0
H924 H 0.47498 0.49421 0.17534 0.0
H925 H 0.43169 0.50769 0.29157 0.0
C926 C 0.44156 0.53555 0.28528 0.0
C927 C 0.45341 0.54759 0.26177 0.0
C928 C 0.46579 0.48465 0.19234 0.0
C929 C 0.45107 0.51056 0.23531 0.0
C930 C 0.46816 0.46592 0.18458 0.0
C931 C 0.45688 0.45303 0.20668 0.0
C932 C 0.45223 0.4907 0.22317 0.0
C933 C 0.44287 0.45954 0.23563 0.0
C934 C 0.44036 0.51698 0.27214 0.0
C935 C 0.46307 0.54077 0.22379 0.0
N936 N 0.44109 0.47799 0.24362 0.0
N937 N 0.4618 0.52276 0.21209 0.0
H938 H 0.20121 0.72369 0.95031 0.0
H939 H 0.30136 0.68349 0.00812 0.0
H940 H 0.20995 0.68573 0.06196 0.0
H941 H 0.28989 0.72927 0.91827 0.0
H942 H 0.26793 0.67994 0.02121 0.0
H943 H 0.23352 0.72127 0.93025 0.0
C944 C 0.20995 0.71476 0.9706 0.0
C945 C 0.20289 0.70514 0.00837 0.0
C946 C 0.27282 0.69064 -0.0016 0.0
C947 C 0.24027 0.7024 0.98564 0.0
C948 C 0.29184 0.69261 0.99079 0.0
C949 C 0.29841 0.7068 0.96241 0.0
C950 C 0.26044 0.70278 0.97687 0.0
C951 C 0.28551 0.71829 0.94089 0.0
C952 C 0.22847 0.71338 0.9591 0.0
C953 C 0.21486 0.69349 0.03276 0.0
N954 N 0.26726 0.71603 0.94862 0.0
N955 N 0.23308 0.6926 0.02131 0.0
H956 H 0.02521 0.54865 0.78843 0.0
H957 H 0.06752 0.44877 0.73869 0.0
H958 H 0.06323 0.5394 0.67709 0.0
H959 H 0.01877 0.4597 0.81879 0.0
H960 H 0.07053 0.48214 0.72421 0.0
H961 H 0.02765 0.51641 0.80941 0.0
C962 C 0.03415 0.53983 0.76838 0.0
C963 C 0.04377 0.54671 0.73036 0.0
C964 C 0.05928 0.47715 0.74515 0.0
C965 C 0.04657 0.50947 0.75434 0.0
C966 C 0.0576 0.45818 0.75357 0.0
C967 C 0.0428 0.45146 0.77972 0.0
C968 C 0.04624 0.48937 0.76372 0.0
C969 C 0.03029 0.4642 0.79806 0.0
C970 C 0.03553 0.52136 0.78043 0.0
C971 C 0.05545 0.53463 0.70641 0.0
N972 N 0.03231 0.48245 0.78972 0.0
N973 N 0.0564 0.51649 0.71851 0.0
H974 H 0.29141 0.31127 0.58779 0.0
H975 H 0.20976 0.31164 0.40716 0.0
H976 H 0.29903 0.29145 0.44985 0.0
H977 H 0.20111 0.29266 0.5455 0.0
H978 H 0.24286 0.31419 0.42307 0.0
H979 H 0.2582 0.31427 0.57276 0.0
C980 C 0.28612 0.30787 0.55415 0.0
C981 C 0.29784 0.30104 0.51997 0.0
C982 C 0.23362 0.30971 0.44999 0.0
C983 C 0.26028 0.30474 0.50259 0.0
C984 C 0.21479 0.30835 0.44111 0.0
C985 C 0.20278 0.30185 0.47509 0.0
C986 C 0.24033 0.30501 0.49343 0.0
C987 C 0.20999 0.29761 0.51837 0.0
C988 C 0.26725 0.30949 0.54577 0.0
C989 C 0.29035 0.29666 0.4771 0.0
N990 N 0.22836 0.29931 0.52642 0.0
N991 N 0.27201 0.29866 0.46949 0.0
H992 H 0.98429 0.09537 0.17487 0.0
H993 H 0.00866 0.08471 0.90989 0.0
H994 H 0.03757 0.10871 0.11822 0.0
H995 H 0.95348 0.09617 0.95709 0.0
H996 H 0.01959 0.08657 0.98892 0.0
H997 H 0.97294 0.08919 0.09726 0.0
C998 C 0.99361 0.09691 0.14615 0.0
C999 C 0.01185 0.1027 0.15285 0.0
C1000 C 0.00506 0.08849 0.98194 0.0
C1001 C 0.99907 0.09539 0.06457 0.0
C1002 C 0.99878 0.08729 0.93696 0.0
C1003 C 0.98013 0.09033 0.92695 0.0
C1004 C 0.99257 0.09251 0.0172 0.0
C1005 C 0.96799 0.09382 0.96334 0.0
C1006 C 0.98712 0.09342 0.102 0.0
C1007 C 0.02335 0.10447 0.11449 0.0
N1008 N 0.97442 0.09483 0.00696 0.0
N1009 N 0.01679 0.10076 0.07197 0.0
H1010 H 0.1332 0.70743 0.18935 0.0
H1011 H 0.17724 0.74978 0.41072 0.0
H1012 H 0.18339 0.73879 0.17416 0.0
H1013 H 0.12005 0.75868 0.37748 0.0
H1014 H 0.18232 0.738 0.33241 0.0
H1015 H 0.13091 0.7179 0.26858 0.0
C1016 C 0.14393 0.71626 0.20293 0.0
C1017 C 0.15853 0.72228 0.17521 0.0
C1018 C 0.16872 0.74256 0.34259 0.0
C1019 C 0.15598 0.73406 0.26574 0.0
C1020 C 0.16579 0.74912 0.387 0.0
C1021 C 0.14821 0.75515 0.40018 0.0
C1022 C 0.15382 0.74151 0.3122 0.0
C1023 C 0.1338 0.75422 0.3684 0.0
C1024 C 0.14251 0.72229 0.24794 0.0
C1025 C 0.1719 0.73391 0.19446 0.0
N1026 N 0.13687 0.74729 0.32595 0.0
N1027 N 0.17037 0.7394 0.2389 0.0
H1028 H 0.51343 0.8794 0.6628 0.0
H1029 H 0.50033 0.92533 0.42452 0.0
H1030 H 0.486 0.93196 0.65269 0.0
H1031 H 0.55105 0.8972 0.45638 0.0
H1032 H 0.49291 0.92634 0.50632 0.0
H1033 H 0.52571 0.88372 0.58545 0.0
C1034 C 0.51009 0.8919 0.64429 0.0
C1035 C 0.49863 0.90532 0.66382 0.0
C1036 C 0.50578 0.9202 0.49541 0.0
C1037 C 0.51235 0.91017 0.57548 0.0
C1038 C 0.50996 0.91952 0.44887 0.0
C1039 C 0.52629 0.91112 0.43393 0.0
C1040 C 0.51773 0.91192 0.52696 0.0
C1041 C 0.53837 0.90386 0.46671 0.0
C1042 C 0.51719 0.8944 0.60042 0.0
C1043 C 0.49481 0.92133 0.63868 0.0
N1044 N 0.53368 0.90411 0.5118 0.0
N1045 N 0.5014 0.92318 0.59531 0.0
H1046 H 0.37668 0.26131 0.89911 0.0
H1047 H 0.31997 0.26082 0.67098 0.0
H1048 H 0.32111 0.24021 0.89816 0.0
H1049 H 0.36007 0.30295 0.70252 0.0
H1050 H 0.3203 0.25137 0.75164 0.0
H1051 H 0.37154 0.27476 0.82382 0.0
C1052 C 0.36337 0.25954 0.88294 0.0
C1053 C 0.34931 0.24958 0.90452 0.0
C1054 C 0.32877 0.26286 0.74081 0.0
C1055 C 0.34339 0.26481 0.81838 0.0
C1056 C 0.32865 0.26822 0.69489 0.0
C1057 C 0.34016 0.28257 0.67994 0.0
C1058 C 0.34071 0.27172 0.77146 0.0
C1059 C 0.35106 0.29175 0.71239 0.0
C1060 C 0.3604 0.26733 0.84019 0.0
C1061 C 0.33226 0.24783 0.88241 0.0
N1062 N 0.35126 0.28598 0.75647 0.0
N1063 N 0.32981 0.25518 0.83999 0.0
H1064 H 0.00348 0.9248 0.56849 0.0
H1065 H 0.98821 0.88144 0.33036 0.0
H1066 H 0.95072 0.90124 0.53408 0.0
H1067 H 0.01997 0.93146 0.34179 0.0
H1068 H 0.9751 0.88727 0.40613 0.0
H1069 H 0.01092 0.92673 0.48686 0.0
C1070 C 0.9934 0.92025 0.54361 0.0
C1071 C 0.97655 0.9127 0.55772 0.0
C1072 C 0.98472 0.89711 0.39176 0.0
C1073 C 0.98506 0.91458 0.46498 0.0
C1074 C 0.9923 0.89373 0.34886 0.0
C1075 C 0.00526 0.90594 0.33038 0.0
C1076 C 0.99059 0.91251 0.41678 0.0
C1077 C 0.01001 0.92175 0.35521 0.0
C1078 C 0.99759 0.92147 0.4972 0.0
C1079 C 0.96386 0.90712 0.52437 0.0
N1080 N 0.00294 0.92442 0.39781 0.0
N1081 N 0.96854 0.9078 0.47937 0.0
H1082 H 0.35858 0.78666 0.61774 0.0
H1083 H 0.34464 0.7038 0.7914 0.0
H1084 H 0.34727 0.73154 0.56971 0.0
H1085 H 0.34151 0.76142 0.82781 0.0
H1086 H 0.34508 0.71267 0.71016 0.0
H1087 H 0.35235 0.77678 0.69539 0.0
C1088 C 0.35479 0.77241 0.62365 0.0
C1089 C 0.35364 0.75983 0.58742 0.0
C1090 C 0.34406 0.72328 0.73609 0.0
C1091 C 0.34643 0.74834 0.67661 0.0
C1092 C 0.3438 0.71825 0.78234 0.0
C1093 C 0.34332 0.73191 0.81638 0.0
C1094 C 0.3439 0.74204 0.72426 0.0
C1095 C 0.34221 0.75041 0.80285 0.0
C1096 C 0.3511 0.76679 0.66803 0.0
C1097 C 0.34836 0.74162 0.59691 0.0
N1098 N 0.34269 0.7549 0.75796 0.0
N1099 N 0.34514 0.73631 0.6409 0.0
H1100 H 0.49767 0.07718 0.06703 0.0
H1101 H 0.51196 0.12248 0.83108 0.0
H1102 H 0.54956 0.10302 0.03439 0.0
H1103 H 0.48154 0.07156 0.84075 0.0
H1104 H 0.52533 0.1165 0.90641 0.0
H1105 H 0.49057 0.0754 0.98528 0.0
C1106 C 0.50763 0.0823 0.0425 0.0
C1107 C 0.52411 0.09045 0.05711 0.0
C1108 C 0.51596 0.1065 0.89174 0.0
C1109 C 0.51601 0.08866 0.96428 0.0
C1110 C 0.50822 0.10997 0.84911 0.0
C1111 C 0.49552 0.09756 0.83036 0.0
C1112 C 0.51052 0.0908 0.91616 0.0
C1113 C 0.49125 0.08145 0.85448 0.0
C1114 C 0.50365 0.08114 -0.00398 0.0
C1115 C 0.53668 0.0967 0.02423 0.0
N1116 N 0.49847 0.07868 0.89684 0.0
N1117 N 0.53219 0.09604 0.97914 0.0
H1118 H 0.17005 0.24982 0.33464 0.0
H1119 H 0.17302 0.26993 0.06724 0.0
H1120 H 0.16169 0.30474 0.2816 0.0
H1121 H 0.14571 0.22267 0.12558 0.0
H1122 H 0.17943 0.28129 0.14519 0.0
H1123 H 0.17208 0.23824 0.25621 0.0
C1124 C 0.16902 0.2595 0.3065 0.0
C1125 C 0.16552 0.27823 0.31443 0.0
C1126 C 0.17229 0.26831 0.14062 0.0
C1127 C 0.16802 0.26509 0.22523 0.0
C1128 C 0.16872 0.26183 0.09651 0.0
C1129 C 0.15875 0.24548 0.09057 0.0
C1130 C 0.16627 0.25802 0.1784 0.0
C1131 C 0.1533 0.23544 0.12914 0.0
C1132 C 0.17011 0.25286 0.26194 0.0
C1133 C 0.16419 0.29016 0.27678 0.0
N1134 N 0.15717 0.24186 0.17161 0.0
N1135 N 0.16539 0.28336 0.23354 0.0
H1136 H 0.00196 0.88627 0.06984 0.0
H1137 H 0.00889 0.92693 0.81889 0.0
H1138 H 0.04627 0.92359 0.0362 0.0
H1139 H 0.98625 0.87357 0.85273 0.0
H1140 H 0.02029 0.92959 0.89832 0.0
H1141 H 0.99316 0.88533 0.99003 0.0
C1142 C 0.00986 0.89432 0.0455 0.0
C1143 C 0.02484 0.90507 0.05959 0.0
C1144 C 0.01293 0.91731 0.88785 0.0
C1145 C 0.01478 0.90401 0.96764 0.0
C1146 C 0.00633 0.91583 0.84287 0.0
C1147 C 0.99661 0.90001 0.82926 0.0
C1148 C 0.00939 0.90301 0.91904 0.0
C1149 C 0.99372 0.88599 0.86149 0.0
C1150 C 0.00487 0.8937 -0.00016 0.0
C1151 C 0.03468 0.91507 0.02646 0.0
N1152 N 0.99999 0.88789 0.90475 0.0
N1153 N 0.02937 0.91443 0.98168 0.0
H1154 H 0.8743 0.21285 0.61845 0.0
H1155 H 0.84082 0.29148 0.79131 0.0
H1156 H 0.84536 0.26157 0.57329 0.0
H1157 H 0.86032 0.23774 0.83263 0.0
H1158 H 0.84378 0.28198 0.71098 0.0
H1159 H 0.87096 0.22311 0.6973 0.0
C1160 C 0.86729 0.22575 0.62509 0.0
C1161 C 0.86012 0.23638 0.58919 0.0
C1162 C 0.84732 0.2723 0.73778 0.0
C1163 C 0.85618 0.24821 0.67962 0.0
C1164 C 0.84564 0.2777 0.78355 0.0
C1165 C 0.85026 0.26538 0.81876 0.0
C1166 C 0.85381 0.25454 0.72739 0.0
C1167 C 0.8565 0.24771 0.80675 0.0
C1168 C 0.86532 0.23158 0.67019 0.0
C1169 C 0.85108 0.25294 0.59995 0.0
N1170 N 0.85813 0.24287 0.76217 0.0
N1171 N 0.84939 0.25838 0.64428 0.0
H1172 H 0.50727 0.09723 0.5735 0.0
H1173 H 0.48178 0.07762 0.31317 0.0
H1174 H 0.45046 0.0895 0.53354 0.0
H1175 H 0.52696 0.11141 0.35935 0.0
H1176 H 0.4719 0.07386 0.39379 0.0
H1177 H 0.51653 0.09368 0.49456 0.0
C1178 C 0.49667 0.09476 0.54815 0.0
C1179 C 0.47797 0.094 0.56017 0.0
C1180 C 0.48406 0.0819 0.38593 0.0
C1181 C 0.48867 0.0899 0.46917 0.0
C1182 C 0.48974 0.08391 0.34035 0.0
C1183 C 0.50513 0.09485 0.33019 0.0
C1184 C 0.49423 0.09052 0.42078 0.0
C1185 C 0.51498 0.10293 0.36603 0.0
C1186 C 0.50203 0.09269 0.503 0.0
C1187 C 0.46499 0.09043 0.5256 0.0
N1188 N 0.50938 0.10058 0.40971 0.0
N1189 N 0.47058 0.08865 0.48127 0.0
H1190 H 0.68326 0.73905 0.31542 0.0
H1191 H 0.61943 0.76242 0.10817 0.0
H1192 H 0.6308 0.71192 0.29842 0.0
H1193 H 0.67698 0.75231 0.08136 0.0
H1194 H 0.62334 0.74975 0.18526 0.0
H1195 H 0.68153 0.74951 0.23523 0.0
C1196 C 0.67149 0.73521 0.29474 0.0
C1197 C 0.65718 0.72457 0.31333 0.0
C1198 C 0.63508 0.7503 0.1624 0.0
C1199 C 0.65495 0.73679 0.22301 0.0
C1200 C 0.6329 0.75758 0.11867 0.0
C1201 C 0.64791 0.75831 0.08858 0.0
C1202 C 0.65249 0.74421 0.17651 0.0
C1203 C 0.66507 0.75181 0.10366 0.0
C1204 C 0.67056 0.7411 0.24921 0.0
C1205 C 0.6422 0.71997 0.28526 0.0
N1206 N 0.66699 0.74519 0.14701 0.0
N1207 N 0.64133 0.72635 0.24168 0.0
H1208 H 0.05649 0.09821 0.4559 0.0
H1209 H 0.97025 0.10921 0.6191 0.0
H1210 H 0.00111 0.08573 0.41192 0.0
H1211 H 0.02404 0.09625 0.67304 0.0
H1212 H 0.98179 0.1035 0.54178 0.0
H1213 H 0.04545 0.09995 0.53517 0.0
C1214 C 0.04207 0.09563 0.46296 0.0
C1215 C 0.0297 0.0918 0.42726 0.0
C1216 C 0.99104 0.10181 0.57057 0.0
C1217 C 0.017 0.09415 0.51745 0.0
C1218 C 0.9845 0.10518 0.61465 0.0
C1219 C 0.99622 0.10325 0.65251 0.0
C1220 C 0.00953 0.09683 0.56414 0.0
C1221 C 0.01454 0.09786 0.64477 0.0
C1222 C 0.0358 0.09661 0.50814 0.0
C1223 C 0.01116 0.08861 0.43836 0.0
N1224 N 0.02071 0.09502 0.60134 0.0
N1225 N 0.00533 0.09009 0.48239 0.0
H1226 H 0.65621 0.27014 0.42203 0.0
H1227 H 0.66703 0.2447 0.15792 0.0
H1228 H 0.64194 0.21689 0.36641 0.0
H1229 H 0.65675 0.30032 0.20388 0.0
H1230 H 0.66465 0.23404 0.23706 0.0
H1231 H 0.66273 0.28112 0.34432 0.0
C1232 C 0.65451 0.26075 0.3935 0.0
C1233 C 0.6484 0.24262 0.40052 0.0
C1234 C 0.6631 0.24859 0.22979 0.0
C1235 C 0.65608 0.25499 0.31211 0.0
C1236 C 0.66462 0.25472 0.18475 0.0
C1237 C 0.66205 0.27343 0.17435 0.0
C1238 C 0.65925 0.26128 0.26471 0.0
C1239 C 0.65875 0.28577 0.21044 0.0
C1240 C 0.6582 0.26704 0.34929 0.0
C1241 C 0.64643 0.23103 0.36241 0.0
N1242 N 0.65742 0.27947 0.25413 0.0
N1243 N 0.65034 0.2374 0.31979 0.0
H1244 H 0.48761 0.88252 0.16085 0.0
H1245 H 0.50311 0.92874 0.925 0.0
H1246 H 0.51828 0.93333 0.15327 0.0
H1247 H 0.45077 0.90365 0.95671 0.0
H1248 H 0.51037 0.92959 0.00691 0.0
H1249 H 0.47509 0.88856 0.08454 0.0
C1250 C 0.49158 0.89503 0.14312 0.0
C1251 C 0.50405 0.90742 0.16296 0.0
C1252 C 0.49717 0.92422 -0.00407 0.0
C1253 C 0.49007 0.91421 0.07576 0.0
C1254 C 0.49307 0.92363 0.94934 0.0
C1255 C 0.47636 0.91603 0.9343 0.0
C1256 C 0.48472 0.91664 0.02742 0.0
C1257 C 0.46378 0.90966 0.96707 0.0
C1258 C 0.48435 0.89851 0.09985 0.0
C1259 C 0.50868 0.92348 0.13891 0.0
N1260 N 0.46837 0.90975 0.01218 0.0
N1261 N 0.50197 0.92626 0.09598 0.0
H1262 H 0.83491 0.75682 0.65672 0.0
H1263 H 0.84455 0.73291 0.92205 0.0
H1264 H 0.84552 0.70168 0.70557 0.0
H1265 H 0.85866 0.78606 0.86562 0.0
H1266 H 0.83831 0.72164 0.84455 0.0
H1267 H 0.83664 0.76808 0.73557 0.0
C1268 C 0.83728 0.74704 0.6841 0.0
C1269 C 0.84014 0.7283 0.67465 0.0
C1270 C 0.84273 0.73577 0.84927 0.0
C1271 C 0.84215 0.74109 0.76457 0.0
C1272 C 0.84625 0.74222 0.89337 0.0
C1273 C 0.85228 0.7604 0.90012 0.0
C1274 C 0.84493 0.74769 0.81185 0.0
C1275 C 0.85425 0.77189 0.86181 0.0
C1276 C 0.8384 0.7535 0.72895 0.0
C1277 C 0.84333 0.71625 0.71138 0.0
N1278 N 0.85053 0.76535 0.81924 0.0
N1279 N 0.84427 0.72287 0.75482 0.0
H1280 H 0.49537 0.56979 0.42071 0.0
H1281 H 0.48894 0.62394 0.65137 0.0
H1282 H 0.44866 0.60395 0.45548 0.0
H1283 H 0.51592 0.57098 0.64852 0.0
H1284 H 0.47576 0.6176 0.57634 0.0
H1285 H 0.50466 0.57006 0.50153 0.0
C1286 C 0.48693 0.57709 0.44532 0.0
C1287 C 0.47135 0.58707 0.43121 0.0
C1288 C 0.48442 0.60727 0.59223 0.0
C1289 C 0.48201 0.58758 0.52291 0.0
C1290 C 0.49204 0.61094 0.63483 0.0
C1291 C 0.50357 0.59798 0.65577 0.0
C1292 C 0.4887 0.59071 0.56988 0.0
C1293 C 0.50704 0.58127 0.63323 0.0
C1294 C 0.49222 0.57719 0.49133 0.0
C1295 C 0.46087 0.59621 0.46459 0.0
N1296 N 0.49984 0.57818 0.5909 0.0
N1297 N 0.46656 0.59649 0.50872 0.0
H1298 H 0.65447 0.2286 0.9227 0.0
H1299 H 0.66682 0.25407 0.65904 0.0
H1300 H 0.64307 0.28262 0.86769 0.0
H1301 H 0.65332 0.19898 0.70383 0.0
H1302 H 0.66501 0.26458 0.73837 0.0
H1303 H 0.6604 0.21743 0.84482 0.0
C1304 C 0.65327 0.23811 0.89426 0.0
C1305 C 0.64812 0.25652 0.90149 0.0
C1306 C 0.66261 0.25016 0.7308 0.0
C1307 C 0.65517 0.24394 0.81293 0.0
C1308 C 0.66379 0.24411 0.68564 0.0
C1309 C 0.66015 0.22562 0.67484 0.0
C1310 C 0.65801 0.2376 0.76545 0.0
C1311 C 0.65613 0.21337 0.71067 0.0
C1312 C 0.65662 0.23172 0.84997 0.0
C1313 C 0.64679 0.26827 0.86351 0.0
N1314 N 0.65514 0.21959 0.75449 0.0
N1315 N 0.65037 0.26179 0.82083 0.0
H1316 H 0.96235 0.38471 0.12224 0.0
H1317 H 0.04458 0.40903 0.95213 0.0
H1318 H 0.01352 0.40794 0.17076 0.0
H1319 H 0.98823 0.3995 0.91074 0.0
H1320 H 0.0346 0.40794 0.03254 0.0
H1321 H 0.97284 0.38879 0.04401 0.0
C1322 C 0.97583 0.39066 0.1164 0.0
C1323 C 0.98712 0.39592 0.15301 0.0
C1324 C 0.02449 0.40625 0.00563 0.0
C1325 C 0.99925 0.40069 0.0633 0.0
C1326 C 0.03015 0.40688 0.95987 0.0
C1327 C 0.01726 0.40423 0.92468 0.0
C1328 C 0.00588 0.40284 0.01585 0.0
C1329 C 0.99873 0.40148 0.93658 0.0
C1330 C 0.98179 0.39309 0.07167 0.0
C1331 C 0.0044 0.40372 0.14339 0.0
N1332 N 0.99366 0.40075 0.98105 0.0
N1333 N 0.01003 0.40578 0.09929 0.0
H1334 H 0.86067 0.71627 0.36679 0.0
H1335 H 0.8481 0.80275 0.20506 0.0
H1336 H 0.84602 0.76981 0.41999 0.0
H1337 H 0.83733 0.7473 0.15866 0.0
H1338 H 0.84994 0.7913 0.28379 0.0
H1339 H 0.85514 0.7277 0.2891 0.0
C1340 C 0.85634 0.73043 0.36208 0.0
C1341 C 0.85387 0.74215 0.39976 0.0
C1342 C 0.84696 0.78171 0.25637 0.0
C1343 C 0.84761 0.75526 0.31136 0.0
C1344 C 0.84592 0.78821 0.21153 0.0
C1345 C 0.84252 0.77594 0.1754 0.0
C1346 C 0.84499 0.76278 0.26488 0.0
C1347 C 0.83984 0.75724 0.1856 0.0
C1348 C 0.85305 0.73689 0.31787 0.0
C1349 C 0.84806 0.76032 0.39184 0.0
N1350 N 0.84137 0.75117 0.2294 0.0
N1351 N 0.84529 0.76639 0.34842 0.0
H1352 H 0.51362 0.4 0.07938 0.0
H1353 H 0.4857 0.40892 0.81616 0.0
H1354 H 0.45742 0.41007 0.03764 0.0
H1355 H 0.53622 0.38462 0.86566 0.0
H1356 H 0.47557 0.41299 0.89581 0.0
H1357 H 0.52269 0.39845 -0.00024 0.0
C1358 C 0.50314 0.40198 0.05346 0.0
C1359 C 0.48467 0.40508 0.06535 0.0
C1360 C 0.48883 0.40675 0.889 0.0
C1361 C 0.49508 0.40318 0.97344 0.0
C1362 C 0.49464 0.40444 0.84369 0.0
C1363 C 0.51179 0.39632 0.83428 0.0
C1364 C 0.5004 0.4011 0.92486 0.0
C1365 C 0.52283 0.3908 0.87118 0.0
C1366 C 0.50836 0.40102 0.00784 0.0
C1367 C 0.4718 0.4076 0.03 0.0
N1368 N 0.51696 0.39334 0.91472 0.0
N1369 N 0.47724 0.40654 0.98544 0.0
H1370 H 0.86029 0.27838 0.128 0.0
H1371 H 0.83805 0.19585 0.28658 0.0
H1372 H 0.8288 0.23301 0.0736 0.0
H1373 H 0.83383 0.25162 0.33699 0.0
H1374 H 0.83682 0.20775 0.20792 0.0
H1375 H 0.85333 0.26773 0.20567 0.0
C1376 C 0.85179 0.26624 0.13261 0.0
C1377 C 0.8451 0.25649 0.09479 0.0
C1378 C 0.83582 0.21728 0.23636 0.0
C1379 C 0.83746 0.24408 0.18283 0.0
C1380 C 0.83659 0.21054 0.28108 0.0
C1381 C 0.83611 0.2228 0.31821 0.0
C1382 C 0.8351 0.23636 0.22904 0.0
C1383 C 0.83419 0.2417 0.30932 0.0
C1384 C 0.84775 0.26025 0.17672 0.0
C1385 C 0.8341 0.24088 0.10219 0.0
N1386 N 0.83412 0.24795 0.26556 0.0
N1387 N 0.83089 0.2349 0.14558 0.0
H1388 H 0.99423 0.5844 0.58116 0.0
H1389 H 0.01906 0.59454 0.31635 0.0
H1390 H 0.04974 0.59413 0.53401 0.0
H1391 H 0.96612 0.60953 0.37239 0.0
H1392 H 0.03012 0.58814 0.39404 0.0
H1393 H 0.98333 0.58689 0.50215 0.0
C1394 C 0.00417 0.58672 0.55411 0.0
C1395 C 0.02292 0.58909 0.56414 0.0
C1396 C 0.01609 0.5928 0.38918 0.0
C1397 C 0.01052 0.592 0.47392 0.0
C1398 C 0.00976 0.59643 0.34497 0.0
C1399 C 0.99169 0.60272 0.33803 0.0
C1400 C 0.00415 0.59514 0.42651 0.0
C1401 C 0.98021 0.60491 0.3763 0.0
C1402 C 0.99791 0.5883 0.50914 0.0
C1403 C 0.03516 0.59229 0.52777 0.0
N1404 N 0.98661 0.60105 0.41892 0.0
N1405 N 0.02874 0.59365 0.48419 0.0
H1406 H 0.65488 0.80327 0.78526 0.0
H1407 H 0.64561 0.71742 0.62133 0.0
H1408 H 0.66844 0.74802 0.82845 0.0
H1409 H 0.65623 0.7718 0.56764 0.0
H1410 H 0.65219 0.72873 0.69826 0.0
H1411 H 0.65395 0.79256 0.70574 0.0
C1412 C 0.65789 0.78894 0.77796 0.0
C1413 C 0.66171 0.77649 0.81352 0.0
C1414 C 0.65322 0.73817 0.66965 0.0
C1415 C 0.66034 0.76416 0.72295 0.0
C1416 C 0.64935 0.73176 0.62578 0.0
C1417 C 0.65025 0.74374 0.58815 0.0
C1418 C 0.6577 0.75679 0.67617 0.0
C1419 C 0.65537 0.76213 0.5958 0.0
C1420 C 0.65739 0.78287 0.73261 0.0
C1421 C 0.66551 0.7581 0.80212 0.0
N1422 N 0.65868 0.76819 0.63914 0.0
N1423 N 0.66447 0.75244 0.75787 0.0
H1424 H 0.50674 0.43354 0.57448 0.0
H1425 H 0.51197 0.37867 0.345 0.0
H1426 H 0.55402 0.40056 0.53756 0.0
H1427 H 0.4858 0.43206 0.34558 0.0
H1428 H 0.52511 0.38527 0.41996 0.0
H1429 H 0.49675 0.43284 0.49411 0.0
C1430 C 0.51517 0.42643 0.54949 0.0
C1431 C 0.53113 0.4169 0.56291 0.0
C1432 C 0.51661 0.39561 0.40359 0.0
C1433 C 0.51964 0.41585 0.47178 0.0
C1434 C 0.50899 0.3918 0.36104 0.0
C1435 C 0.49776 0.40483 0.33937 0.0
C1436 C 0.51262 0.4124 0.42521 0.0
C1437 C 0.49446 0.42171 0.36138 0.0
C1438 C 0.50947 0.42608 0.50375 0.0
C1439 C 0.54155 0.40797 0.52903 0.0
N1440 N 0.50167 0.42495 0.40367 0.0
N1441 N 0.53545 0.40741 0.48524 0.0
H1442 H 0.35741 0.80318 0.29246 0.0
H1443 H 0.3206 0.73724 0.09481 0.0
H1444 H 0.32165 0.75717 0.32291 0.0
H1445 H 0.37426 0.76281 0.09491 0.0
H1446 H 0.31508 0.74985 0.17201 0.0
H1447 H 0.35726 0.79427 0.21215 0.0
C1448 C 0.34928 0.79136 0.28224 0.0
C1449 C 0.33971 0.78075 0.31461 0.0
C1450 C 0.32796 0.75273 0.15476 0.0
C1451 C 0.33954 0.77055 0.22265 0.0
C1452 C 0.33109 0.74563 0.11094 0.0
C1453 C 0.34795 0.74892 0.08894 0.0
C1454 C 0.34162 0.7635 0.1757 0.0
C1455 C 0.36116 0.75981 0.11103 0.0
C1456 C 0.34929 0.78626 0.2364 0.0
C1457 C 0.32938 0.76561 0.29914 0.0
N1458 N 0.35769 0.76677 0.15315 0.0
N1459 N 0.32965 0.76085 0.2541 0.0
H1460 H 0.94763 0.59748 0.03483 0.0
H1461 H 0.03402 0.60703 0.87186 0.0
H1462 H 0.00281 0.58455 0.07952 0.0
H1463 H 0.97983 0.59529 0.81851 0.0
H1464 H 0.02252 0.60132 0.94927 0.0
H1465 H 0.95874 0.5988 0.9557 0.0
C1466 C 0.96202 0.59471 0.02793 0.0
C1467 C 0.97432 0.59089 0.06375 0.0
C1468 C 0.01319 0.59989 0.92057 0.0
C1469 C 0.98712 0.59274 0.97373 0.0
C1470 C 0.01969 0.60328 0.87648 0.0
C1471 C 0.00781 0.60173 0.83882 0.0
C1472 C 0.99461 0.59526 0.92711 0.0
C1473 C 0.98943 0.59663 0.84666 0.0
C1474 C 0.96833 0.59544 0.98283 0.0
C1475 C 0.99283 0.58743 0.05291 0.0
N1476 N 0.98332 0.59377 0.89007 0.0
N1477 N 0.99873 0.58868 0.00891 0.0
H1478 H 0.1629 0.2094 0.78855 0.0
H1479 H 0.12836 0.28765 0.61597 0.0
H1480 H 0.1394 0.26155 0.82959 0.0
H1481 H 0.15942 0.2402 0.57102 0.0
H1482 H 0.13098 0.27694 0.69447 0.0
H1483 H 0.16051 0.21914 0.70824 0.0
C1484 C 0.15728 0.22286 0.78072 0.0
C1485 C 0.15145 0.23471 0.81582 0.0
C1486 C 0.13726 0.26884 0.66752 0.0
C1487 C 0.1486 0.24583 0.72459 0.0
C1488 C 0.13572 0.27494 0.62259 0.0
C1489 C 0.14365 0.26478 0.58685 0.0
C1490 C 0.14676 0.25243 0.67696 0.0
C1491 C 0.15311 0.24846 0.59759 0.0
C1492 C 0.15595 0.22841 0.73499 0.0
C1493 C 0.14422 0.25198 0.80379 0.0
N1494 N 0.15438 0.24274 0.64179 0.0
N1495 N 0.143 0.25698 0.75929 0.0
H1496 H 0.54781 0.59483 0.9545 0.0
H1497 H 0.4641 0.60823 0.12716 0.0
H1498 H 0.49043 0.59677 0.9156 0.0
H1499 H 0.51877 0.59506 0.17511 0.0
H1500 H 0.47432 0.60379 0.04905 0.0
H1501 H 0.53837 0.59441 0.03535 0.0
C1502 C 0.53328 0.59501 0.96289 0.0
C1503 C 0.5199 0.59605 0.92827 0.0
C1504 C 0.48415 0.60175 0.07646 0.0
C1505 C 0.50911 0.59559 0.02 0.0
C1506 C 0.47832 0.60439 0.12115 0.0
C1507 C 0.49068 0.6022 0.15754 0.0
C1508 C 0.50258 0.59708 0.06776 0.0
C1509 C 0.50886 0.59692 0.14783 0.0
C1510 C 0.52792 0.59475 0.00892 0.0
C1511 C 0.50127 0.5962 0.94098 0.0
N1512 N 0.51437 0.59472 0.1036 0.0
N1513 N 0.49649 0.59609 0.98569 0.0
H1514 H 0.16726 0.74516 0.66004 0.0
H1515 H 0.155 0.7715 0.92351 0.0
H1516 H 0.15325 0.80037 0.70277 0.0
H1517 H 0.14333 0.71753 0.86856 0.0
H1518 H 0.16108 0.78258 0.84536 0.0
H1519 H 0.16577 0.73517 0.73978 0.0
C1520 C 0.16417 0.75526 0.68625 0.0
C1521 C 0.1603 0.77362 0.67471 0.0
C1522 C 0.15724 0.76832 0.85065 0.0
C1523 C 0.15854 0.76222 0.76594 0.0
C1524 C 0.15382 0.76199 0.89507 0.0
C1525 C 0.14849 0.74363 0.90234 0.0
C1526 C 0.15572 0.75606 0.81364 0.0
C1527 C 0.14717 0.73185 0.86439 0.0
C1528 C 0.1632 0.7495 0.73168 0.0
C1529 C 0.15623 0.78606 0.71016 0.0
N1530 N 0.15083 0.73825 0.82171 0.0
N1531 N 0.15543 0.78013 0.75429 0.0
H1532 H 0.9461 0.41124 0.45802 0.0
H1533 H 0.02736 0.38438 0.61684 0.0
H1534 H 0.00196 0.41362 0.40773 0.0
H1535 H 0.98471 0.41971 0.67037 0.0
H1536 H 0.01649 0.39092 0.53902 0.0
H1537 H 0.95805 0.41083 0.53675 0.0
C1538 C 0.96083 0.41191 0.46363 0.0
C1539 C 0.9731 0.41248 0.42659 0.0
C1540 C 0.00964 0.39733 0.56787 0.0
C1541 C 0.98668 0.41154 0.51557 0.0
C1542 C 0.01573 0.39353 0.61203 0.0
C1543 C 0.00684 0.40152 0.64962 0.0
C1544 C 0.99426 0.40873 0.56163 0.0
C1545 C 0.9919 0.41338 0.64196 0.0
C1546 C 0.96759 0.41174 0.50832 0.0
C1547 C 0.99207 0.4133 0.43547 0.0
N1548 N 0.98583 0.41642 0.59863 0.0
N1549 N 0.99832 0.41245 0.47915 0.0
H1550 H 0.34224 0.20511 0.20313 0.0
H1551 H 0.35818 0.28872 0.37419 0.0
H1552 H 0.34353 0.2625 0.16394 0.0
H1553 H 0.34349 0.23466 0.42389 0.0
H1554 H 0.35283 0.27842 0.29654 0.0
H1555 H 0.34224 0.21461 0.28402 0.0
C1556 C 0.34231 0.21965 0.21147 0.0
C1557 C 0.34314 0.23302 0.17676 0.0
C1558 C 0.35063 0.26875 0.32424 0.0
C1559 C 0.34321 0.24387 0.26849 0.0
C1560 C 0.35379 0.27462 0.36868 0.0
C1561 C 0.35143 0.26247 0.40545 0.0
C1562 C 0.34527 0.25046 0.3161 0.0
C1563 C 0.34549 0.24442 0.39632 0.0
C1564 C 0.34231 0.22504 0.25752 0.0
C1565 C 0.34317 0.25166 0.1894 0.0
N1566 N 0.34279 0.23885 0.35229 0.0
N1567 N 0.34335 0.25648 0.23409 0.0
H1568 H 0.13987 0.22333 0.39389 0.0
H1569 H 0.04395 0.17271 0.35335 0.0
H1570 H 0.08838 0.24575 0.44261 0.0
H1571 H 0.09621 0.14439 0.34984 0.0
H1572 H 0.05966 0.20035 0.38151 0.0
H1573 H 0.12379 0.19516 0.3716 0.0
C1574 C 0.12517 0.22236 0.39984 0.0
C1575 C 0.11547 0.23695 0.42026 0.0
C1576 C 0.06764 0.18803 0.37494 0.0
C1577 C 0.09698 0.20469 0.39462 0.0
C1578 C 0.0587 0.17225 0.35887 0.0
C1579 C 0.06878 0.15621 0.34915 0.0
C1580 C 0.08684 0.18785 0.38064 0.0
C1581 C 0.08786 0.1564 0.35701 0.0
C1582 C 0.11603 0.20622 0.38732 0.0
C1583 C 0.09643 0.23484 0.42716 0.0
N1584 N 0.09629 0.17203 0.37182 0.0
N1585 N 0.08779 0.21905 0.41414 0.0
H1586 H 0.11063 0.83539 0.62155 0.0
H1587 H 0.00142 0.83466 0.65915 0.0
H1588 H 0.07606 0.78958 0.58229 0.0
H1589 H 0.0364 0.88209 0.67987 0.0
H1590 H 0.02866 0.81666 0.63759 0.0
H1591 H 0.08364 0.8512 0.65144 0.0
C1592 C 0.09738 0.82856 0.61954 0.0
C1593 C 0.0956 0.81121 0.59888 0.0
C1594 C 0.03032 0.831 0.64698 0.0
C1595 C 0.06453 0.82936 0.63282 0.0
C1596 C 0.01479 0.84128 0.65923 0.0
C1597 C 0.01662 0.85993 0.67125 0.0
C1598 C 0.04774 0.83944 0.64698 0.0
C1599 C 0.03428 0.86779 0.67074 0.0
C1600 C 0.08194 0.83765 0.6365 0.0
C1601 C 0.07806 0.80302 0.59762 0.0
N1602 N 0.04911 0.85752 0.65884 0.0
N1603 N 0.06316 0.81223 0.61405 0.0
H1604 H 0.41522 0.75579 0.91573 0.0
H1605 H 0.41969 0.86606 0.90263 0.0
H1606 H 0.37044 0.79096 0.95842 0.0
H1607 H 0.45387 0.83018 0.82097 0.0
H1608 H 0.40458 0.83879 0.93546 0.0
H1609 H 0.43255 0.78319 0.89236 0.0
C1610 C 0.40908 0.76927 0.92047 0.0
C1611 C 0.3913 0.77106 0.93882 0.0
C1612 C 0.41548 0.83694 0.91057 0.0
C1613 C 0.41112 0.80246 0.91246 0.0
C1614 C 0.42417 0.85247 0.89206 0.0
C1615 C 0.43794 0.85039 0.85874 0.0
C1616 C 0.42081 0.81924 0.89614 0.0
C1617 C 0.44317 0.83244 0.84619 0.0
C1618 C 0.41896 0.78489 0.90702 0.0
C1619 C 0.38404 0.7889 0.94409 0.0
N1620 N 0.4346 0.81759 0.86483 0.0
N1621 N 0.39397 0.80389 0.93102 0.0
H1622 H 0.40681 0.16886 0.03475 0.0
H1623 H 0.48931 0.16441 0.21 0.0
H1624 H 0.40432 0.20074 0.15915 0.0
H1625 H 0.47034 0.11642 0.13661 0.0
H1626 H 0.46145 0.18104 0.18506 0.0
H1627 H 0.43348 0.15228 0.06491 0.0
C1628 C 0.4119 0.17229 0.06859 0.0
C1629 C 0.40341 0.18607 0.09472 0.0
C1630 C 0.46345 0.16685 0.17471 0.0
C1631 C 0.4341 0.1675 0.12889 0.0
C1632 C 0.47935 0.15744 0.18853 0.0
C1633 C 0.48208 0.13904 0.17529 0.0
C1634 C 0.45057 0.1579 0.14659 0.0
C1635 C 0.46872 0.13057 0.14774 0.0
C1636 C 0.42705 0.16283 0.08575 0.0
C1637 C 0.41047 0.19005 0.1383 0.0
N1638 N 0.45365 0.14011 0.13394 0.0
N1639 N 0.42564 0.18093 0.15395 0.0
H1640 H 0.138 0.78313 0.08096 0.0
H1641 H 0.04601 0.82682 0.17172 0.0
H1642 H 0.08628 0.75544 0.05742 0.0
H1643 H 0.08813 0.86087 0.111 0.0
H1644 H 0.06148 0.79938 0.14093 0.0
H1645 H 0.12109 0.81085 0.10404 0.0
C1646 C 0.12308 0.78286 0.08088 0.0
C1647 C 0.11349 0.76698 0.06733 0.0
C1648 C 0.0672 0.81288 0.13405 0.0
C1649 C 0.09417 0.79852 0.09415 0.0
C1650 C 0.05845 0.82849 0.15163 0.0
C1651 C 0.06582 0.84609 0.14374 0.0
C1652 C 0.08372 0.81487 0.10967 0.0
C1653 C 0.08195 0.84755 0.11753 0.0
C1654 C 0.11348 0.79871 0.09368 0.0
C1655 C 0.09416 0.76744 0.0675 0.0
N1656 N 0.09055 0.8321 0.10201 0.0
N1657 N 0.0851 0.7829 0.08127 0.0
H1658 H 0.49885 0.8371 0.31819 0.0
H1659 H 0.39088 0.84155 0.37287 0.0
H1660 H 0.46578 0.88644 0.30864 0.0
H1661 H 0.42423 0.79318 0.39649 0.0
H1662 H 0.41771 0.85709 0.34085 0.0
H1663 H 0.47123 0.8198 0.33989 0.0
C1664 C 0.4858 0.84428 0.32052 0.0
C1665 C 0.48466 0.86327 0.31176 0.0
C1666 C 0.41915 0.84303 0.35279 0.0
C1667 C 0.45306 0.84358 0.33634 0.0
C1668 C 0.4038 0.83412 0.37095 0.0
C1669 C 0.40534 0.8161 0.3879 0.0
C1670 C 0.43619 0.83389 0.35155 0.0
C1671 C 0.42244 0.80715 0.38424 0.0
C1672 C 0.47005 0.8344 0.33287 0.0
C1673 C 0.46738 0.87185 0.31527 0.0
N1674 N 0.43724 0.81618 0.36676 0.0
N1675 N 0.45231 0.86195 0.32733 0.0
H1676 H 0.37286 0.23606 0.63646 0.0
H1677 H 0.43757 0.15087 0.57561 0.0
H1678 H 0.40314 0.23438 0.50935 0.0
H1679 H 0.42736 0.16947 0.71369 0.0
H1680 H 0.42151 0.1785 0.54679 0.0
H1681 H 0.38917 0.20844 0.66173 0.0
C1682 C 0.38293 0.22986 0.61383 0.0
C1683 C 0.3867 0.23757 0.57082 0.0
C1684 C 0.42289 0.17645 0.58335 0.0
C1685 C 0.40526 0.20579 0.59935 0.0
C1686 C 0.43196 0.16071 0.59976 0.0
C1687 C 0.43389 0.15791 0.64708 0.0
C1688 C 0.4154 0.18916 0.61458 0.0
C1689 C 0.42637 0.17111 0.67693 0.0
C1690 C 0.39227 0.21413 0.62832 0.0
C1691 C 0.39994 0.22896 0.54295 0.0
N1692 N 0.41738 0.18603 0.66021 0.0
N1693 N 0.40868 0.21342 0.55756 0.0
H1694 H 0.10391 0.19255 0.83354 0.0
H1695 H 0.02081 0.12466 0.88602 0.0
H1696 H 0.08428 0.18124 0.97024 0.0
H1697 H 0.023 0.15549 0.75975 0.0
H1698 H 0.047 0.14234 0.91453 0.0
H1699 H 0.07693 0.17621 0.80261 0.0
C1700 C 0.09394 0.18667 0.85696 0.0
C1701 C 0.09632 0.18826 0.9045 0.0
C1702 C 0.04172 0.14528 0.88063 0.0
C1703 C 0.06579 0.16948 0.86954 0.0
C1704 C 0.02684 0.13515 0.86426 0.0
C1705 C 0.01974 0.13863 0.82046 0.0
C1706 C 0.04982 0.15879 0.85277 0.0
C1707 C 0.02802 0.15246 0.79382 0.0
C1708 C 0.07857 0.17745 0.83934 0.0
C1709 C 0.08297 0.18045 0.93337 0.0
N1710 N 0.04277 0.16197 0.81025 0.0
N1711 N 0.0684 0.17127 0.91544 0.0
H1712 H 0.9572 0.82867 0.65227 0.0
H1713 H 0.86295 0.78505 0.57731 0.0
H1714 H 0.91225 0.86303 0.60743 0.0
H1715 H 0.91433 0.75777 0.54696 0.0
H1716 H 0.88008 0.81306 0.59687 0.0
H1717 H 0.94129 0.80168 0.62096 0.0
C1718 C 0.94406 0.83051 0.63528 0.0
C1719 C 0.93598 0.84802 0.63225 0.0
C1720 C 0.88756 0.80096 0.58565 0.0
C1721 C 0.91757 0.81727 0.59767 0.0
C1722 C 0.87784 0.78494 0.57488 0.0
C1723 C 0.88727 0.76906 0.56064 0.0
C1724 C 0.90685 0.80095 0.58322 0.0
C1725 C 0.90655 0.76973 0.55773 0.0
C1726 C 0.93503 0.81516 0.61744 0.0
C1727 C 0.91895 0.84974 0.61006 0.0
N1728 N 0.91574 0.78536 0.56948 0.0
N1729 N 0.91011 0.83447 0.59426 0.0
H1730 H 0.89255 0.15434 0.38148 0.0
H1731 H 0.99491 0.16394 0.28307 0.0
H1732 H 0.9198 0.20689 0.36683 0.0
H1733 H 0.97372 0.11437 0.34567 0.0
H1734 H 0.96583 0.17955 0.30116 0.0
H1735 H 0.92041 0.13905 0.35376 0.0
C1736 C 0.90426 0.1627 0.37161 0.0
C1737 C 0.90388 0.18192 0.37674 0.0
C1738 C 0.9676 0.16525 0.31086 0.0
C1739 C 0.93584 0.16449 0.34538 0.0
C1740 C 0.98417 0.15634 0.3006 0.0
C1741 C 0.98679 0.13784 0.31303 0.0
C1742 C 0.95347 0.15549 0.33303 0.0
C1743 C 0.97239 0.12867 0.33568 0.0
C1744 C 0.92021 0.15394 0.35622 0.0
C1745 C 0.91954 0.19202 0.36371 0.0
N1746 N 0.95634 0.13756 0.34474 0.0
N1747 N 0.93492 0.18318 0.34878 0.0
H1748 H 0.62614 0.23216 0.13495 0.0
H1749 H 0.56198 0.14693 0.0751 0.0
H1750 H 0.59733 0.22969 0.00587 0.0
H1751 H 0.56845 0.16804 0.21235 0.0
H1752 H 0.5785 0.17419 0.04584 0.0
H1753 H 0.60878 0.20529 0.1611 0.0
C1754 C 0.61616 0.22594 0.11211 0.0
C1755 C 0.6131 0.23318 0.06826 0.0
C1756 C 0.57617 0.17278 0.0823 0.0
C1757 C 0.59341 0.2023 0.09774 0.0
C1758 C 0.56684 0.15726 0.09897 0.0
C1759 C 0.56378 0.15526 0.14617 0.0
C1760 C 0.5828 0.18605 0.11323 0.0
C1761 C 0.57035 0.16906 0.17567 0.0
C1762 C 0.60623 0.21066 0.12709 0.0
C1763 C 0.59997 0.2246 0.04008 0.0
N1764 N 0.57967 0.18375 0.15877 0.0
N1765 N 0.59068 0.20947 0.05516 0.0
H1766 H 0.53724 0.88781 0.81223 0.0
H1767 H 0.57697 0.79195 0.90334 0.0
H1768 H 0.50342 0.83935 0.82978 0.0
H1769 H 0.61061 0.83911 0.86933 0.0
H1770 H 0.54992 0.80848 0.87494 0.0
H1771 H 0.56422 0.8698 0.83295 0.0
C1772 C 0.53546 0.87336 0.8205 0.0
C1773 C 0.518 0.86509 0.81929 0.0
C1774 C 0.56326 0.81512 0.87339 0.0
C1775 C 0.54898 0.84431 0.84305 0.0
C1776 C 0.57872 0.80569 0.88949 0.0
C1777 C 0.59609 0.81421 0.88913 0.0
C1778 C 0.56518 0.83322 0.85703 0.0
C1779 C 0.59751 0.83201 0.87062 0.0
C1780 C 0.55093 0.86305 0.83216 0.0
C1781 C 0.51661 0.84629 0.83025 0.0
N1782 N 0.58225 0.84095 0.85569 0.0
N1783 N 0.53191 0.83653 0.84182 0.0
H1784 H 0.96303 0.17412 0.84213 0.0
H1785 H 0.8717 0.21054 0.96468 0.0
H1786 H 0.9172 0.13943 0.88035 0.0
H1787 H 0.91792 0.2458 0.93333 0.0
H1788 H 0.88934 0.18407 0.93863 0.0
H1789 H 0.94797 0.20014 0.87994 0.0
C1790 C 0.94987 0.17192 0.85873 0.0
C1791 C 0.94128 0.15457 0.85759 0.0
C1792 C 0.89572 0.19755 0.93769 0.0
C1793 C 0.92397 0.18433 0.90085 0.0
C1794 C 0.88563 0.21272 0.95257 0.0
C1795 C 0.8933 0.23047 0.95096 0.0
C1796 C 0.91361 0.20007 0.92061 0.0
C1797 C 0.91146 0.23237 0.93515 0.0
C1798 C 0.94129 0.1868 0.88032 0.0
C1799 C 0.9243 0.15255 0.87997 0.0
N1800 N 0.92097 0.21736 0.9202 0.0
N1801 N 0.91616 0.16726 0.90034 0.0
H1802 H 0.60961 0.16348 0.62385 0.0
H1803 H 0.50098 0.16819 0.6719 0.0
H1804 H 0.5761 0.21046 0.58786 0.0
H1805 H 0.53476 0.12001 0.69366 0.0
H1806 H 0.52856 0.18521 0.64788 0.0
H1807 H 0.5826 0.14879 0.65727 0.0
C1808 C 0.59661 0.1708 0.62326 0.0
C1809 C 0.59514 0.18819 0.60258 0.0
C1810 C 0.5299 0.17093 0.65815 0.0
C1811 C 0.56399 0.17131 0.64068 0.0
C1812 C 0.51417 0.16123 0.67191 0.0
C1813 C 0.51551 0.14261 0.68464 0.0
C1814 C 0.54707 0.16196 0.65733 0.0
C1815 C 0.53298 0.13429 0.68392 0.0
C1816 C 0.58114 0.16236 0.64228 0.0
C1817 C 0.57788 0.19699 0.60314 0.0
N1818 N 0.548 0.144 0.67044 0.0
N1819 N 0.56296 0.18841 0.62159 0.0
H1820 H 0.62459 0.76719 0.35588 0.0
H1821 H 0.56442 0.85537 0.41619 0.0
H1822 H 0.5978 0.77189 0.48725 0.0
H1823 H 0.56975 0.83352 0.27933 0.0
H1824 H 0.5799 0.82756 0.44583 0.0
H1825 H 0.60797 0.79446 0.32977 0.0
C1826 C 0.61519 0.77398 0.37924 0.0
C1827 C 0.61253 0.76725 0.42375 0.0
C1828 C 0.57755 0.82893 0.40938 0.0
C1829 C 0.59363 0.79865 0.39423 0.0
C1830 C 0.56882 0.84478 0.39247 0.0
C1831 C 0.56576 0.84677 0.34525 0.0
C1832 C 0.58356 0.81528 0.37867 0.0
C1833 C 0.5717 0.83258 0.31601 0.0
C1834 C 0.60567 0.78951 0.36428 0.0
C1835 C 0.60013 0.77657 0.45254 0.0
N1836 N 0.58042 0.81758 0.33313 0.0
N1837 N 0.59122 0.79194 0.43742 0.0
H1838 H 1.00038 0.83595 0.16897 0.0
H1839 H 0.89155 0.83881 0.12513 0.0
H1840 H 0.96595 0.88355 0.19238 0.0
H1841 H 0.92591 0.79322 0.08339 0.0
H1842 H 0.91844 0.85378 0.15817 0.0
H1843 H 0.97305 0.81864 0.14479 0.0
C1844 C 0.98709 0.84273 0.16927 0.0
C1845 C 0.98547 0.86125 0.18259 0.0
C1846 C 0.92011 0.84046 0.14197 0.0
C1847 C 0.95423 0.84156 0.15514 0.0
C1848 C 0.90473 0.83186 0.12316 0.0
C1849 C 0.90648 0.81479 0.10099 0.0
C1850 C 0.93745 0.83198 0.13869 0.0
C1851 C 0.92393 0.80643 0.09986 0.0
C1852 C 0.97151 0.83285 0.15542 0.0
C1853 C 0.96791 0.86934 0.18221 0.0
N1854 N 0.93878 0.81517 0.11818 0.0
N1855 N 0.95302 0.85946 0.16868 0.0
H1856 H 0.62959 0.73208 0.85834 0.0
H1857 H 0.56067 0.64984 0.91327 0.0
H1858 H 0.59807 0.73133 0.98366 0.0
H1859 H 0.57144 0.66932 0.7762 0.0
H1860 H 0.57791 0.67644 0.94356 0.0
H1861 H 0.61213 0.70541 0.83128 0.0
C1862 C 0.61904 0.72625 0.88024 0.0
C1863 C 0.61522 0.73395 0.92323 0.0
C1864 C 0.57637 0.67483 0.90689 0.0
C1865 C 0.59534 0.70336 0.89265 0.0
C1866 C 0.56662 0.65969 0.88965 0.0
C1867 C 0.56455 0.65743 0.8422 0.0
C1868 C 0.58442 0.68745 0.87636 0.0
C1869 C 0.57254 0.67058 0.81303 0.0
C1870 C 0.60904 0.7111 0.8647 0.0
C1871 C 0.60135 0.72587 0.95013 0.0
N1872 N 0.58223 0.68491 0.83055 0.0
N1873 N 0.59196 0.7109 0.93452 0.0
H1874 H 0.61351 0.33765 0.12427 0.0
H1875 H 0.50564 0.33442 0.1812 0.0
H1876 H 0.57877 0.29093 0.09373 0.0
H1877 H 0.53999 0.38241 0.20001 0.0
H1878 H 0.53277 0.3171 0.15613 0.0
H1879 H 0.58725 0.35297 0.15982 0.0
C1880 C 0.60041 0.33053 0.12533 0.0
C1881 C 0.59833 0.31303 0.10552 0.0
C1882 C 0.53436 0.3314 0.166 0.0
C1883 C 0.56812 0.33058 0.14607 0.0
C1884 C 0.51889 0.34128 0.18038 0.0
C1885 C 0.52051 0.35993 0.19258 0.0
C1886 C 0.55158 0.34021 0.16388 0.0
C1887 C 0.53803 0.3681 0.19076 0.0
C1888 C 0.58539 0.33932 0.14557 0.0
C1889 C 0.581 0.30448 0.10821 0.0
N1890 N 0.55283 0.35822 0.17656 0.0
N1891 N 0.56654 0.31338 0.12781 0.0
H1892 H 0.91519 0.2542 0.44492 0.0
H1893 H 0.90541 0.35822 0.35885 0.0
H1894 H 0.86414 0.27769 0.39657 0.0
H1895 H 0.95747 0.32946 0.36114 0.0
H1896 H 0.89016 0.33017 0.38533 0.0
H1897 H 0.93098 0.28294 0.42507 0.0
C1898 C 0.9073 0.26538 0.43011 0.0
C1899 C 0.88831 0.26353 0.42234 0.0
C1900 C 0.90494 0.33005 0.3803 0.0
C1901 C 0.90625 0.29645 0.40021 0.0
C1902 C 0.91369 0.3461 0.36557 0.0
C1903 C 0.93275 0.34616 0.35753 0.0
C1904 C 0.91532 0.314 0.38755 0.0
C1905 C 0.94273 0.32999 0.36662 0.0
C1906 C 0.91633 0.28175 0.41881 0.0
C1907 C 0.8788 0.27846 0.40299 0.0
N1908 N 0.93389 0.31453 0.38106 0.0
N1909 N 0.88785 0.29432 0.39282 0.0
H1910 H 0.96878 0.61396 0.64538 0.0
H1911 H 0.92228 0.71147 0.60535 0.0
H1912 H 0.99262 0.66349 0.70196 0.0
H1913 H 0.89168 0.66044 0.60716 0.0
H1914 H 0.94929 0.69489 0.63479 0.0
H1915 H 0.94159 0.63152 0.62334 0.0
C1916 C 0.96833 0.62855 0.65311 0.0
C1917 C 0.983 0.63727 0.67567 0.0
C1918 C 0.93657 0.68743 0.62912 0.0
C1919 C 0.95186 0.65748 0.65024 0.0
C1920 C 0.92118 0.69685 0.61232 0.0
C1921 C 0.90471 0.68732 0.60361 0.0
C1922 C 0.93553 0.66833 0.63638 0.0
C1923 C 0.90405 0.66838 0.61337 0.0
C1924 C 0.95273 0.63854 0.64074 0.0
C1925 C 0.98157 0.65622 0.68484 0.0
N1926 N 0.91929 0.65949 0.62868 0.0
N1927 N 0.9663 0.66576 0.67178 0.0
H1928 H 0.63772 0.28103 0.59582 0.0
H1929 H 0.54334 0.33531 0.61512 0.0
H1930 H 0.58813 0.26168 0.52986 0.0
H1931 H 0.59632 0.36109 0.63509 0.0
H1932 H 0.55889 0.30781 0.58581 0.0
H1933 H 0.62215 0.30979 0.61445 0.0
C1934 C 0.62352 0.28279 0.58532 0.0
C1935 C 0.61419 0.26888 0.56127 0.0
C1936 C 0.56708 0.31958 0.59605 0.0
C1937 C 0.59629 0.30188 0.58258 0.0
C1938 C 0.55823 0.33527 0.61276 0.0
C1939 C 0.56857 0.35046 0.62782 0.0
C1940 C 0.58639 0.31898 0.59513 0.0
C1941 C 0.58781 0.34971 0.62383 0.0
C1942 C 0.61469 0.2993 0.5957 0.0
C1943 C 0.59583 0.27204 0.5484 0.0
N1944 N 0.59611 0.33412 0.60847 0.0
N1945 N 0.58742 0.28818 0.55951 0.0
H1946 H 0.927 0.29801 0.9462 0.0
H1947 H 0.96214 0.3748 0.7742 0.0
H1948 H 0.89161 0.32295 0.84491 0.0
H1949 H 0.99914 0.33502 0.83419 0.0
H1950 H 0.93601 0.35718 0.80353 0.0
H1951 H 0.95361 0.31256 0.90946 0.0
C1952 C 0.92483 0.30649 0.91615 0.0
C1953 C 0.90703 0.30935 0.89876 0.0
C1954 C 0.94984 0.35221 0.80993 0.0
C1955 C 0.93738 0.32613 0.8569 0.0
C1956 C 0.96476 0.36229 0.79334 0.0
C1957 C 0.98284 0.35637 0.80182 0.0
C1958 C 0.95298 0.33627 0.83599 0.0
C1959 C 0.98541 0.34002 0.82671 0.0
C1960 C 0.94003 0.31471 0.89512 0.0
C1961 C 0.90506 0.32036 0.85953 0.0
N1962 N 0.97064 0.33064 0.84341 0.0
N1963 N 0.92002 0.32851 0.84024 0.0
H1964 H 0.90836 0.64233 0.13454 0.0
H1965 H 0.91481 0.74472 0.03696 0.0
H1966 H 0.95927 0.67309 0.13749 0.0
H1967 H 0.86487 0.72066 0.09056 0.0
H1968 H 0.93177 0.71707 0.06104 0.0
H1969 H 0.8927 0.66937 0.10416 0.0
C1970 C 0.91632 0.65471 0.12836 0.0
C1971 C 0.93517 0.65546 0.1389 0.0
C1972 C 0.9171 0.71791 0.0674 0.0
C1973 C 0.91721 0.68652 0.10406 0.0
C1974 C 0.90741 0.73362 0.0536 0.0
C1975 C 0.8884 0.73499 0.0618 0.0
C1976 C 0.90761 0.70341 0.08873 0.0
C1977 C 0.87952 0.72024 0.08369 0.0
C1978 C 0.90731 0.67018 0.11127 0.0
C1979 C 0.94471 0.67194 0.13015 0.0
N1980 N 0.88918 0.70504 0.09614 0.0
N1981 N 0.93561 0.68687 0.11322 0.0
H1982 H 0.50548 0.66324 0.2982 0.0
H1983 H 0.60747 0.65852 0.39755 0.0
H1984 H 0.5293 0.61383 0.35535 0.0
H1985 H 0.57673 0.70945 0.39459 0.0
H1986 H 0.58026 0.64215 0.37062 0.0
H1987 H 0.53267 0.68059 0.3232 0.0
C1988 C 0.51642 0.65604 0.31595 0.0
C1989 C 0.51513 0.63704 0.32464 0.0
C1990 C 0.57947 0.65691 0.37575 0.0
C1991 C 0.54627 0.65676 0.35274 0.0
C1992 C 0.59504 0.66633 0.39082 0.0
C1993 C 0.59439 0.68543 0.39845 0.0
C1994 C 0.56311 0.66663 0.36756 0.0
C1995 C 0.57782 0.69472 0.38934 0.0
C1996 C 0.53188 0.66597 0.33029 0.0
C1997 C 0.52967 0.62845 0.348 0.0
N1998 N 0.56282 0.68523 0.37423 0.0
N1999 N 0.54468 0.63834 0.36091 0.0
H2000 H 0.37533 0.28897 0.02595 0.0
H2001 H 0.45404 0.32495 0.19092 0.0
H2002 H 0.41497 0.25205 0.08677 0.0
H2003 H 0.42777 0.35983 0.09064 0.0
H2004 H 0.43932 0.29809 0.15586 0.0
H2005 H 0.39362 0.31515 0.05196 0.0
C2006 C 0.38795 0.28637 0.04465 0.0
C2007 C 0.39361 0.26829 0.0544 0.0
C2008 C 0.43693 0.3116 0.14129 0.0
C2009 C 0.41454 0.29829 0.08467 0.0
C2010 C 0.44525 0.32695 0.16136 0.0
C2011 C 0.44201 0.34469 0.1439 0.0
C2012 C 0.42503 0.31402 0.10394 0.0
C2013 C 0.43064 0.34644 0.1053 0.0
C2014 C 0.39842 0.30134 0.0593 0.0
C2015 C 0.41014 0.26576 0.07846 0.0
N2016 N 0.42237 0.33132 0.08698 0.0
N2017 N 0.41993 0.28062 0.0933 0.0
H2018 H 0.46265 0.62344 0.78043 0.0
H2019 H 0.42634 0.70544 0.93567 0.0
H2020 H 0.49862 0.66631 0.83031 0.0
H2021 H 0.39061 0.67469 0.84568 0.0
H2022 H 0.45301 0.6906 0.90026 0.0
H2023 H 0.4361 0.64117 0.80685 0.0
C2024 C 0.46497 0.63663 0.79679 0.0
C2025 C 0.48291 0.64338 0.8033 0.0
C2026 C 0.43935 0.68722 0.88798 0.0
C2027 C 0.45251 0.66367 0.83403 0.0
C2028 C 0.42411 0.69563 0.90828 0.0
C2029 C 0.40619 0.69121 0.89382 0.0
C2030 C 0.43669 0.67404 0.85345 0.0
C2031 C 0.40415 0.67851 0.85792 0.0
C2032 C 0.44979 0.64678 0.81168 0.0
C2033 C 0.48504 0.66061 0.82449 0.0
N2034 N 0.41921 0.6702 0.83935 0.0
N2035 N 0.47003 0.67008 0.83957 0.0
H2036 H 0.07553 0.63899 0.58201 0.0
H2037 H 0.12069 0.73431 0.63536 0.0
H2038 H 0.055 0.67233 0.69319 0.0
H2039 H 0.10313 0.72393 0.49666 0.0
H2040 H 0.10304 0.70729 0.66064 0.0
H2041 H 0.09205 0.66622 0.55216 0.0
C2042 C 0.07445 0.65203 0.59988 0.0
C2043 C 0.06382 0.65353 0.6398 0.0
C2044 C 0.10311 0.71098 0.6247 0.0
C2045 C 0.08293 0.68415 0.60705 0.0
C2046 C 0.11316 0.72628 0.6103 0.0
C2047 C 0.11319 0.73133 0.564 0.0
C2048 C 0.09356 0.70037 0.59235 0.0
C2049 C 0.10324 0.72052 0.53274 0.0
C2050 C 0.08378 0.66746 0.58288 0.0
C2051 C 0.06288 0.67067 0.66198 0.0
N2052 N 0.09394 0.70535 0.54741 0.0
N2053 N 0.07255 0.68526 0.64569 0.0
H2054 H 0.08047 0.29319 0.37122 0.0
H2055 H 0.02793 0.38872 0.34551 0.0
H2056 H 0.10785 0.3459 0.37963 0.0
H2057 H 0.00611 0.33809 0.28987 0.0
H2058 H 0.05655 0.37271 0.36382 0.0
H2059 H 0.05251 0.30886 0.34499 0.0
C2060 C 0.08068 0.30803 0.367 0.0
C2061 C 0.09652 0.31825 0.37774 0.0
C2062 C 0.04553 0.36512 0.34745 0.0
C2063 C 0.0645 0.33624 0.34867 0.0
C2064 C 0.02912 0.37422 0.33726 0.0
C2065 C 0.01457 0.36474 0.31605 0.0
C2066 C 0.04738 0.34633 0.33702 0.0
C2067 C 0.01698 0.34595 0.30609 0.0
C2068 C 0.06471 0.31694 0.35209 0.0
C2069 C 0.096 0.33744 0.37161 0.0
N2070 N 0.03304 0.33733 0.31689 0.0
N2071 N 0.08019 0.34582 0.35804 0.0
H2072 H 0.38263 0.73859 0.35057 0.0
H2073 H 0.42167 0.64092 0.41035 0.0
H2074 H 0.39745 0.72757 0.49092 0.0
H2075 H 0.44497 0.67265 0.29963 0.0
H2076 H 0.40599 0.66906 0.43792 0.0
H2077 H 0.3988 0.71035 0.32736 0.0
C2078 C 0.38929 0.73019 0.37639 0.0
C2079 C 0.38894 0.73539 0.42254 0.0
C2080 C 0.41465 0.66972 0.40777 0.0
C2081 C 0.40677 0.70308 0.3966 0.0
C2082 C 0.42349 0.65378 0.39207 0.0
C2083 C 0.4347 0.6546 0.35304 0.0
C2084 C 0.4166 0.68622 0.38313 0.0
C2085 C 0.43662 0.67152 0.33024 0.0
C2086 C 0.39846 0.71419 0.3632 0.0
C2087 C 0.39768 0.72407 0.45489 0.0
N2088 N 0.42746 0.68662 0.34526 0.0
N2089 N 0.40612 0.70825 0.44137 0.0
H2090 H 0.02975 0.61331 0.14203 0.0
H2091 H 0.07979 0.70964 0.10546 0.0
H2092 H 0.00853 0.66362 0.20081 0.0
H2093 H 0.10776 0.65733 0.09446 0.0
H2094 H 0.05267 0.69362 0.13581 0.0
H2095 H 0.05739 0.62982 0.11838 0.0
C2096 C 0.03087 0.62785 0.14994 0.0
C2097 C 0.01677 0.63709 0.17353 0.0
C2098 C 0.06482 0.68571 0.1271 0.0
C2099 C 0.04848 0.6561 0.14627 0.0
C2100 C 0.08028 0.69482 0.10973 0.0
C2101 C 0.09606 0.6848 0.09725 0.0
C2102 C 0.06503 0.66644 0.13128 0.0
C2103 C 0.09594 0.66563 0.10369 0.0
C2104 C 0.04673 0.63724 0.13662 0.0
C2105 C 0.01908 0.65594 0.18286 0.0
N2106 N 0.08062 0.65707 0.11978 0.0
N2107 N 0.0346 0.66487 0.16894 0.0
H2108 H 0.07525 0.36088 0.90332 0.0
H2109 H 0.08638 0.25127 0.91821 0.0
H2110 H 0.04989 0.32368 0.80676 0.0
H2111 H 0.12614 0.2895 0.97329 0.0
H2112 H 0.06838 0.27747 0.88927 0.0
H2113 H 0.08956 0.33446 0.9414 0.0
C2114 C 0.07256 0.34716 0.89034 0.0
C2115 C 0.0615 0.34451 0.85148 0.0
C2116 C 0.08097 0.28007 0.90806 0.0
C2117 C 0.07771 0.31424 0.89516 0.0
C2118 C 0.09117 0.26516 0.92481 0.0
C2119 C 0.10781 0.26823 0.94799 0.0
C2120 C 0.08733 0.29813 0.91524 0.0
C2121 C 0.11346 0.28651 0.9553 0.0
C2122 C 0.08078 0.3321 0.91201 0.0
C2123 C 0.05849 0.32638 0.83628 0.0
N2124 N 0.10325 0.30075 0.939 0.0
N2125 N 0.06656 0.31193 0.85813 0.0
H2126 H 0.49703 0.33915 0.68848 0.0
H2127 H 0.39363 0.34665 0.59861 0.0
H2128 H 0.4732 0.38962 0.63737 0.0
H2129 H 0.4232 0.29503 0.60159 0.0
H2130 H 0.42149 0.3625 0.62368 0.0
H2131 H 0.46903 0.32265 0.66602 0.0
C2132 C 0.48593 0.34675 0.67247 0.0
C2133 C 0.48745 0.3658 0.66483 0.0
C2134 C 0.42186 0.3477 0.619 0.0
C2135 C 0.45535 0.34705 0.63965 0.0
C2136 C 0.40592 0.33859 0.60504 0.0
C2137 C 0.40608 0.31946 0.59785 0.0
C2138 C 0.43806 0.33761 0.62641 0.0
C2139 C 0.42248 0.3098 0.60652 0.0
C2140 C 0.46999 0.33732 0.65963 0.0
C2141 C 0.47266 0.37494 0.6438 0.0
N2142 N 0.43783 0.31899 0.6204 0.0
N2143 N 0.45718 0.3655 0.63225 0.0
H2144 H 0.12882 0.15108 0.99155 0.0
H2145 H 0.10768 0.12659 0.25264 0.0
H2146 H 0.14745 0.18306 0.10709 0.0
H2147 H 0.0738 0.10967 0.13922 0.0
H2148 H 0.13045 0.13882 0.19838 0.0
H2149 H 0.11707 0.12764 0.0445 0.0
C2150 C 0.13101 0.15286 0.02797 0.0
C2151 C 0.13889 0.16912 0.04511 0.0
C2152 C 0.1183 0.13193 0.18535 0.0
C2153 C 0.12546 0.1425 0.10555 0.0
C2154 C 0.10544 0.12484 0.21621 0.0
C2155 C 0.08905 0.11705 0.20001 0.0
C2156 C 0.11462 0.13124 0.13815 0.0
C2157 C 0.08642 0.11547 0.15272 0.0
C2158 C 0.12418 0.13956 0.05812 0.0
C2159 C 0.14125 0.17081 0.09259 0.0
N2160 N 0.09901 0.1227 0.1233 0.0
N2161 N 0.13435 0.15777 0.12121 0.0
H2162 H 0.1491 0.82398 0.39328 0.0
H2163 H 0.06741 0.89374 0.35527 0.0
H2164 H 0.11548 0.84629 0.50135 0.0
H2165 H 0.10356 0.87618 0.24655 0.0
H2166 H 0.08938 0.88205 0.41122 0.0
H2167 H 0.13734 0.84787 0.34129 0.0
C2168 C 0.13968 0.83432 0.40625 0.0
C2169 C 0.13316 0.83335 0.45125 0.0
C2170 C 0.09276 0.88105 0.37519 0.0
C2171 C 0.11937 0.86024 0.39243 0.0
C2172 C 0.08021 0.88777 0.34328 0.0
C2173 C 0.08359 0.88563 0.29636 0.0
C2174 C 0.10858 0.87169 0.36005 0.0
C2175 C 0.10043 0.87798 0.28252 0.0
C2176 C 0.13291 0.84788 0.37669 0.0
C2177 C 0.12079 0.84674 0.46669 0.0
N2178 N 0.11214 0.87085 0.31426 0.0
N2179 N 0.11409 0.8595 0.43715 0.0
H2180 H 0.39968 0.87968 0.7493 0.0
H2181 H 0.38485 0.85104 0.48854 0.0
H2182 H 0.43765 0.89119 0.6393 0.0
H2183 H 0.35649 0.8254 0.60129 0.0
H2184 H 0.39744 0.87408 0.54117 0.0
H2185 H 0.37748 0.86796 0.69312 0.0
C2186 C 0.40315 0.88019 0.71325 0.0
C2187 C 0.42062 0.8861 0.69884 0.0
C2188 C 0.3881 0.86371 0.5543 0.0
C2189 C 0.39539 0.87281 0.63481 0.0
C2190 C 0.38085 0.85069 0.52428 0.0
C2191 C 0.36966 0.83651 0.54097 0.0
C2192 C 0.38433 0.86228 0.60133 0.0
C2193 C 0.36501 0.83631 0.58744 0.0
C2194 C 0.39052 0.87343 0.68131 0.0
C2195 C 0.42443 0.88646 0.65182 0.0
N2196 N 0.3726 0.84889 0.61632 0.0
N2197 N 0.412 0.87971 0.62151 0.0
H2198 H 0.39729 0.12697 0.73965 0.0
H2199 H 0.37409 0.15144 -0.00043 0.0
H2200 H 0.43135 0.11152 0.85442 0.0
H2201 H 0.3587 0.18521 0.88421 0.0
H2202 H 0.38621 0.12825 0.94649 0.0
H2203 H 0.37449 0.13949 0.79308 0.0
C2204 C 0.39971 0.12568 0.77611 0.0
C2205 C 0.41634 0.11846 0.79274 0.0
C2206 C 0.37972 0.14052 0.93289 0.0
C2207 C 0.39038 0.13268 0.85366 0.0
C2208 C 0.3727 0.15369 0.96307 0.0
C2209 C 0.36562 0.17034 0.94611 0.0
C2210 C 0.37936 0.14396 0.88562 0.0
C2211 C 0.36428 0.17264 0.89856 0.0
C2212 C 0.38675 0.13292 0.80648 0.0
C2213 C 0.41881 0.11722 0.84027 0.0
N2214 N 0.37129 0.15968 0.8699 0.0
N2215 N 0.40605 0.12447 0.86913 0.0
H2216 H 0.93781 0.89021 0.85214 0.0
H2217 H 0.85376 0.82576 0.89402 0.0
H2218 H 0.89886 0.87774 0.74508 0.0
H2219 H 0.88315 0.85258 0.00332 0.0
H2220 H 0.86662 0.84814 0.83974 0.0
H2221 H 0.91528 0.88032 0.90897 0.0
C2222 C 0.92434 0.88569 0.84073 0.0
C2223 C 0.92024 0.88453 0.79397 0.0
C2224 C 0.86978 0.84955 0.8758 0.0
C2225 C 0.89451 0.87276 0.85863 0.0
C2226 C 0.86234 0.83686 0.90668 0.0
C2227 C 0.86737 0.83758 0.95287 0.0
C2228 C 0.88267 0.8626 0.89138 0.0
C2229 C 0.87889 0.8518 0.96783 0.0
C2230 C 0.91145 0.88008 0.87315 0.0
C2231 C 0.90256 0.87875 0.78089 0.0
N2232 N 0.88643 0.86359 0.93701 0.0
N2233 N 0.89046 0.87265 0.81306 0.0
H2234 H 0.90054 0.12764 0.74873 0.0
H2235 H 0.89052 0.14799 0.48454 0.0
H2236 H 0.93604 0.10519 0.64466 0.0
H2237 H 0.85315 0.1692 0.58617 0.0
H2238 H 0.90257 0.12617 0.54069 0.0
H2239 H 0.87861 0.13697 0.68916 0.0
C2240 C 0.90336 0.1242 0.71331 0.0
C2241 C 0.91994 0.11568 0.70111 0.0
C2242 C 0.89143 0.13525 0.55064 0.0
C2243 C 0.89541 0.12663 0.63306 0.0
C2244 C 0.88451 0.1476 0.51851 0.0
C2245 C 0.8709 0.16025 0.53111 0.0
C2246 C 0.88503 0.13598 0.59603 0.0
C2247 C 0.86361 0.15949 0.5754 0.0
C2248 C 0.89095 0.12957 0.67934 0.0
C2249 C 0.9233 0.11172 0.65506 0.0
N2250 N 0.87104 0.14778 0.60672 0.0
N2251 N 0.91124 0.11746 0.62255 0.0
H2252 H 0.64744 0.17469 0.3946 0.0
H2253 H 0.56239 0.1093 0.3558 0.0
H2254 H 0.61426 0.1524 0.50354 0.0
H2255 H 0.60001 0.12411 0.24758 0.0
H2256 H 0.58471 0.12017 0.41197 0.0
H2257 H 0.63424 0.15182 0.34196 0.0
C2258 C 0.63787 0.1645 0.40763 0.0
C2259 C 0.63191 0.1652 0.45314 0.0
C2260 C 0.58829 0.12076 0.37601 0.0
C2261 C 0.61636 0.13959 0.39348 0.0
C2262 C 0.57552 0.11456 0.34395 0.0
C2263 C 0.57925 0.11611 0.29705 0.0
C2264 C 0.60476 0.12897 0.36103 0.0
C2265 C 0.59656 0.12279 0.28349 0.0
C2266 C 0.63024 0.15155 0.37767 0.0
C2267 C 0.61921 0.1521 0.46855 0.0
N2268 N 0.60854 0.12937 0.31533 0.0
N2269 N 0.61164 0.13999 0.43861 0.0
H2270 H 0.61907 0.85132 0.98396 0.0
H2271 H 0.60302 0.87864 0.24537 0.0
H2272 H 0.64599 0.82453 0.09716 0.0
H2273 H 0.56569 0.89142 0.13492 0.0
H2274 H 0.62525 0.86694 0.18934 0.0
H2275 H 0.60631 0.8742 0.03694 0.0
C2276 C 0.62278 0.85071 0.01987 0.0
C2277 C 0.63362 0.83626 0.03654 0.0
C2278 C 0.61235 0.87267 0.17739 0.0
C2279 C 0.61876 0.86185 0.09724 0.0
C2280 C 0.5997 0.87944 0.20927 0.0
C2281 C 0.58238 0.88572 0.19472 0.0
C2282 C 0.60767 0.87238 0.13075 0.0
C2283 C 0.57878 0.88641 0.14758 0.0
C2284 C 0.61541 0.86362 0.05009 0.0
C2285 C 0.63779 0.83567 0.08327 0.0
N2286 N 0.59124 0.87963 0.11731 0.0
N2287 N 0.63015 0.84819 0.11225 0.0
H2288 H 0.6013 0.62547 0.74953 0.0
H2289 H 0.62483 0.64864 0.48928 0.0
H2290 H 0.56693 0.61106 0.63446 0.0
H2291 H 0.64317 0.68108 0.60399 0.0
H2292 H 0.61219 0.62575 0.54263 0.0
H2293 H 0.62485 0.63666 0.69625 0.0
C2294 C 0.59894 0.62415 0.71305 0.0
C2295 C 0.58204 0.61762 0.69624 0.0
C2296 C 0.61951 0.63758 0.55609 0.0
C2297 C 0.60885 0.6303 0.63552 0.0
C2298 C 0.62683 0.65049 0.52576 0.0
C2299 C 0.63508 0.66654 0.54266 0.0
C2300 C 0.62046 0.64088 0.6034 0.0
C2301 C 0.63699 0.66872 0.58999 0.0
C2302 C 0.61233 0.63061 0.68276 0.0
C2303 C 0.57967 0.61627 0.64873 0.0
N2304 N 0.62953 0.6561 0.6189 0.0
N2305 N 0.59285 0.62276 0.61997 0.0
H2306 H 0.57947 0.40198 0.83873 0.0
H2307 H 0.65168 0.32218 0.89584 0.0
H2308 H 0.60071 0.3632 0.74036 0.0
H2309 H 0.61736 0.34878 -0.00371 0.0
H2310 H 0.64113 0.3445 0.83827 0.0
H2311 H 0.60124 0.38987 0.89586 0.0
C2312 C 0.58917 0.39135 0.82889 0.0
C2313 C 0.58844 0.38349 0.78521 0.0
C2314 C 0.63629 0.34576 0.87321 0.0
C2315 C 0.613 0.36952 0.84974 0.0
C2316 C 0.64241 0.33315 0.90596 0.0
C2317 C 0.63535 0.33385 0.95047 0.0
C2318 C 0.623 0.359 0.88533 0.0
C2319 C 0.6231 0.34798 0.96212 0.0
C2320 C 0.60147 0.38437 0.8614 0.0
C2321 C 0.60097 0.36954 0.77393 0.0
N2322 N 0.61713 0.35993 0.92956 0.0
N2323 N 0.61265 0.36286 0.80616 0.0
H2324 H 0.87542 0.34989 0.99387 0.0
H2325 H 0.89374 0.3716 0.25739 0.0
H2326 H 0.85612 0.31681 0.10679 0.0
H2327 H 0.92633 0.3934 0.14674 0.0
H2328 H 0.87167 0.35941 0.20149 0.0
H2329 H 0.88573 0.37342 0.04855 0.0
C2330 C 0.87281 0.34787 0.03004 0.0
C2331 C 0.86518 0.33132 0.04605 0.0
C2332 C 0.88336 0.36732 0.18944 0.0
C2333 C 0.87694 0.35798 0.10841 0.0
C2334 C 0.89582 0.37437 0.22129 0.0
C2335 C 0.91166 0.38354 0.20628 0.0
C2336 C 0.88698 0.3693 0.14241 0.0
C2337 C 0.91411 0.38649 0.15932 0.0
C2338 C 0.8788 0.36122 0.06119 0.0
C2339 C 0.8622 0.3293 0.09321 0.0
N2340 N 0.902 0.37916 0.12886 0.0
N2341 N 0.86829 0.34236 0.12279 0.0
H2342 H 0.92849 0.60249 0.34595 0.0
H2343 H 0.84933 0.67517 0.40112 0.0
H2344 H 0.89874 0.63309 0.24361 0.0
H2345 H 0.88659 0.65249 0.50099 0.0
H2346 H 0.8606 0.65265 0.34482 0.0
H2347 H 0.90664 0.61333 0.40415 0.0
C2348 C 0.91694 0.61099 0.33567 0.0
C2349 C 0.91519 0.61689 0.29031 0.0
C2350 C 0.86594 0.65226 0.37942 0.0
C2351 C 0.89061 0.62975 0.35626 0.0
C2352 C 0.8594 0.66498 0.41149 0.0
C2353 C 0.86707 0.66548 0.4554 0.0
C2354 C 0.88029 0.64017 0.39158 0.0
C2355 C 0.88035 0.65236 0.4673 0.0
C2356 C 0.90458 0.61729 0.36878 0.0
C2357 C 0.90033 0.6282 0.27843 0.0
N2358 N 0.88671 0.64035 0.43539 0.0
N2359 N 0.88871 0.63448 0.31136 0.0
H2360 H 0.40115 0.37624 0.24024 0.0
H2361 H 0.37782 0.35664 0.50233 0.0
H2362 H 0.43474 0.39318 0.35454 0.0
H2363 H 0.35796 0.32365 0.39018 0.0
H2364 H 0.39036 0.3789 0.44729 0.0
H2365 H 0.37738 0.36586 0.29411 0.0
C2366 C 0.40327 0.37828 0.2766 0.0
C2367 C 0.42001 0.38525 0.29317 0.0
C2368 C 0.38277 0.36708 0.43473 0.0
C2369 C 0.39303 0.37352 0.35453 0.0
C2370 C 0.37553 0.35451 0.46604 0.0
C2371 C 0.36687 0.33849 0.45035 0.0
C2372 C 0.38142 0.36341 0.38763 0.0
C2373 C 0.36452 0.33598 0.40324 0.0
C2374 C 0.38977 0.37228 0.30724 0.0
C2375 C 0.42212 0.38757 0.34052 0.0
N2376 N 0.37198 0.34823 0.37334 0.0
N2377 N 0.40887 0.38151 0.36961 0.0
H2378 H 0.3983 0.63119 0.25885 0.0
H2379 H 0.37471 0.65139 -0.00293 0.0
H2380 H 0.42681 0.60606 0.14564 0.0
H2381 H 0.36228 0.68781 0.10969 0.0
H2382 H 0.3851 0.62804 0.05201 0.0
H2383 H 0.37621 0.64475 0.20509 0.0
C2384 C 0.39943 0.628 0.2227 0.0
C2385 C 0.41416 0.61747 0.2063 0.0
C2386 C 0.37971 0.641 0.06461 0.0
C2387 C 0.38949 0.63326 0.14483 0.0
C2388 C 0.3737 0.65428 0.03337 0.0
C2389 C 0.36793 0.67163 0.04897 0.0
C2390 C 0.37968 0.64508 0.1116 0.0
C2391 C 0.36693 0.67469 0.0963 0.0
C2392 C 0.38697 0.63583 0.19207 0.0
C2393 C 0.41544 0.614 0.1593 0.0
N2394 N 0.37293 0.66161 0.12594 0.0
N2395 N 0.40337 0.6221 0.12995 0.0
H2396 H 0.07426 0.59987 0.84246 0.0
H2397 H 0.14782 0.67899 0.88741 0.0
H2398 H 0.09956 0.63242 0.73648 0.0
H2399 H 0.11822 0.65037 0.99356 0.0
H2400 H 0.13677 0.65624 0.83158 0.0
H2401 H 0.09669 0.61204 0.89755 0.0
C2402 C 0.08502 0.60905 0.83061 0.0
C2403 C 0.0853 0.61511 0.78517 0.0
C2404 C 0.13305 0.65464 0.86727 0.0
C2405 C 0.11046 0.62957 0.84769 0.0
C2406 C 0.13945 0.66754 0.89901 0.0
C2407 C 0.1339 0.66635 0.94475 0.0
C2408 C 0.12085 0.64069 0.88156 0.0
C2409 C 0.1228 0.65157 0.95838 0.0
C2410 C 0.0977 0.61614 0.86199 0.0
C2411 C 0.09912 0.62736 0.77135 0.0
N2412 N 0.11643 0.63941 0.92678 0.0
N2413 N 0.11102 0.6344 0.80264 0.0
H2414 H 0.10158 0.37497 0.74631 0.0
H2415 H 0.11728 0.35645 0.48083 0.0
H2416 H 0.06613 0.39394 0.63767 0.0
H2417 H 0.14537 0.32706 0.58813 0.0
H2418 H 0.10561 0.37837 0.53762 0.0
H2419 H 0.12442 0.36559 0.68881 0.0
C2420 C 0.09889 0.3777 0.71047 0.0
C2421 C 0.0819 0.38493 0.69644 0.0
C2422 C 0.11472 0.36743 0.54871 0.0
C2423 C 0.10771 0.37421 0.63092 0.0
C2424 C 0.12143 0.35504 0.5163 0.0
C2425 C 0.13226 0.34014 0.53022 0.0
C2426 C 0.11858 0.36458 0.59534 0.0
C2427 C 0.13711 0.33856 0.57641 0.0
C2428 C 0.11184 0.37225 0.6777 0.0
C2429 C 0.07899 0.38812 0.64969 0.0
N2430 N 0.12998 0.35049 0.60762 0.0
N2431 N 0.09166 0.38252 0.61856 0.0
loop_
_geom_bond_atom_site_label_1
_geom_bond_atom_site_label_2
_geom_bond_distance
_geom_bond_site_symmetry_2
_ccdc_geom_bond_type
Fe0 O2 1.918 . S
Fe0 O5 1.997 . S
Fe0 O6 2.002 . S
Fe0 O11 1.976 . S
Fe0 O14 1.996 . S
Fe1 O2 1.918 . S
Fe1 O9 1.997 . S
Fe1 O12 1.996 . S
Fe1 O16 1.976 . S
Fe1 O19 2.002 . S
O2 Fe0 1.918 . S
O2 Fe1 1.918 . S
O2 Fe3 1.918 . S
Fe3 O2 1.918 . S
Fe3 O4 2.002 . S
Fe3 O13 1.976 . S
Fe3 O17 1.996 . S
Fe3 O20 1.997 . S
O4 Fe3 2.002 . S
O4 C21 1.295 . S
O5 Fe0 1.997 . S
O5 C21 1.235 . S
O6 Fe0 2.002 . S
O6 C7 1.295 . S
C7 O6 1.295 . S
C7 O9 1.235 . S
C8 O13 1.287 . S
C8 O14 1.255 . S
O9 Fe1 1.997 . S
O9 C7 1.235 . S
C10 O16 1.287 . S
C10 O17 1.255 . S
O11 Fe0 1.976 . S
O11 C18 1.287 . S
O12 Fe1 1.996 . S
O12 C18 1.255 . S
O13 Fe3 1.976 . S
O13 C8 1.287 . S
O14 Fe0 1.996 . S
O14 C8 1.255 . S
C15 O19 1.295 . S
C15 O20 1.235 . S
O16 Fe1 1.976 . S
O16 C10 1.287 . S
O17 Fe3 1.996 . S
O17 C10 1.255 . S
C18 O11 1.287 . S
C18 O12 1.255 . S
O19 Fe1 2.002 . S
O19 C15 1.295 . S
O20 Fe3 1.997 . S
O20 C15 1.235 . S
C21 O4 1.295 . S
C21 O5 1.235 . S
Fe22 O24 1.918 . S
Fe22 O27 1.997 . S
Fe22 O28 2.002 . S
Fe22 O33 1.976 . S
Fe22 O36 1.996 . S
Fe23 O24 1.918 . S
Fe23 O31 1.997 . S
Fe23 O34 1.996 . S
Fe23 O38 1.976 . S
Fe23 O41 2.002 . S
O24 Fe22 1.918 . S
O24 Fe23 1.918 . S
O24 Fe25 1.918 . S
Fe25 O24 1.918 . S
Fe25 O26 2.002 . S
Fe25 O35 1.976 . S
Fe25 O39 1.996 . S
Fe25 O42 1.997 . S
O26 Fe25 2.002 . S
O26 C43 1.295 . S
O27 Fe22 1.997 . S
O27 C43 1.235 . S
O28 Fe22 2.002 . S
O28 C29 1.295 . S
C29 O28 1.295 . S
C29 O31 1.235 . S
C30 O35 1.287 . S
C30 O36 1.255 . S
O31 Fe23 1.997 . S
O31 C29 1.235 . S
C32 O38 1.287 . S
C32 O39 1.255 . S
O33 Fe22 1.976 . S
O33 C40 1.287 . S
O34 Fe23 1.996 . S
O34 C40 1.255 . S
O35 Fe25 1.976 . S
O35 C30 1.287 . S
O36 Fe22 1.996 . S
O36 C30 1.255 . S
C37 O41 1.295 . S
C37 O42 1.235 . S
O38 Fe23 1.976 . S
O38 C32 1.287 . S
O39 Fe25 1.996 . S
O39 C32 1.255 . S
C40 O33 1.287 . S
C40 O34 1.255 . S
O41 Fe23 2.002 . S
O41 C37 1.295 . S
O42 Fe25 1.997 . S
O42 C37 1.235 . S
C43 O26 1.295 . S
C43 O27 1.235 . S
Fe44 O46 1.918 . S
Fe44 O49 1.997 . S
Fe44 O50 2.002 . S
Fe44 O55 1.976 . S
Fe44 O58 1.996 . S
Fe45 O46 1.918 . S
Fe45 O53 1.997 . S
Fe45 O56 1.996 . S
Fe45 O60 1.976 . S
Fe45 O63 2.002 . S
O46 Fe44 1.918 . S
O46 Fe45 1.918 . S
O46 Fe47 1.918 . S
Fe47 O46 1.918 . S
Fe47 O48 2.002 . S
Fe47 O57 1.976 . S
Fe47 O61 1.996 . S
Fe47 O64 1.997 . S
O48 Fe47 2.002 . S
O48 C65 1.295 . S
O49 Fe44 1.997 . S
O49 C65 1.235 . S
O50 Fe44 2.002 . S
O50 C51 1.295 . S
C51 O50 1.295 . S
C51 O53 1.235 . S
C52 O57 1.287 . S
C52 O58 1.255 . S
O53 Fe45 1.997 . S
O53 C51 1.235 . S
C54 O60 1.287 . S
C54 O61 1.255 . S
O55 Fe44 1.976 . S
O55 C62 1.287 . S
O56 Fe45 1.996 . S
O56 C62 1.255 . S
O57 Fe47 1.976 . S
O57 C52 1.287 . S
O58 Fe44 1.996 . S
O58 C52 1.255 . S
C59 O63 1.295 . S
C59 O64 1.235 . S
O60 Fe45 1.976 . S
O60 C54 1.287 . S
O61 Fe47 1.996 . S
O61 C54 1.255 . S
C62 O55 1.287 . S
C62 O56 1.255 . S
O63 Fe45 2.002 . S
O63 C59 1.295 . S
O64 Fe47 1.997 . S
O64 C59 1.235 . S
C65 O48 1.295 . S
C65 O49 1.235 . S
Fe66 O68 1.918 . S
Fe66 O71 1.997 . S
Fe66 O72 2.002 . S
Fe66 O77 1.976 1_554 S
Fe66 O80 1.996 1_554 S
Fe67 O68 1.918 . S
Fe67 O75 1.997 . S
Fe67 O78 1.996 1_554 S
Fe67 O82 1.976 . S
Fe67 O85 2.002 . S
O68 Fe66 1.918 . S
O68 Fe67 1.918 . S
O68 Fe69 1.918 . S
Fe69 O68 1.918 . S
Fe69 O70 2.002 . S
Fe69 O79 1.976 . S
Fe69 O83 1.996 . S
Fe69 O86 1.997 . S
O70 Fe69 2.002 . S
O70 C87 1.295 . S
O71 Fe66 1.997 . S
O71 C87 1.235 . S
O72 Fe66 2.002 . S
O72 C73 1.295 . S
C73 O72 1.295 . S
C73 O75 1.235 . S
C74 O79 1.287 1_556 S
C74 O80 1.255 . S
O75 Fe67 1.997 . S
O75 C73 1.235 . S
C76 O82 1.287 . S
C76 O83 1.255 . S
O77 Fe66 1.976 1_556 S
O77 C84 1.287 . S
O78 Fe67 1.996 1_556 S
O78 C84 1.255 . S
O79 Fe69 1.976 . S
O79 C74 1.287 1_554 S
O80 Fe66 1.996 1_556 S
O80 C74 1.255 . S
C81 O85 1.295 . S
C81 O86 1.235 . S
O82 Fe67 1.976 . S
O82 C76 1.287 . S
O83 Fe69 1.996 . S
O83 C76 1.255 . S
C84 O77 1.287 . S
C84 O78 1.255 . S
O85 Fe67 2.002 . S
O85 C81 1.295 . S
O86 Fe69 1.997 . S
O86 C81 1.235 . S
C87 O70 1.295 . S
C87 O71 1.235 . S
Fe88 O90 1.918 . S
Fe88 O93 1.997 . S
Fe88 O94 2.002 . S
Fe88 O99 1.976 . S
Fe88 O102 1.996 . S
Fe89 O90 1.918 . S
Fe89 O97 1.997 . S
Fe89 O100 1.996 . S
Fe89 O104 1.976 . S
Fe89 O107 2.002 . S
O90 Fe88 1.918 . S
O90 Fe89 1.918 . S
O90 Fe91 1.918 . S
Fe91 O90 1.918 . S
Fe91 O92 2.002 . S
Fe91 O101 1.976 . S
Fe91 O105 1.996 . S
Fe91 O108 1.997 . S
O92 Fe91 2.002 . S
O92 C109 1.295 . S
O93 Fe88 1.997 . S
O93 C109 1.235 . S
O94 Fe88 2.002 . S
O94 C95 1.295 . S
C95 O94 1.295 . S
C95 O97 1.235 . S
C96 O101 1.287 . S
C96 O102 1.255 . S
O97 Fe89 1.997 . S
O97 C95 1.235 . S
C98 O104 1.287 . S
C98 O105 1.255 . S
O99 Fe88 1.976 . S
O99 C106 1.287 . S
O100 Fe89 1.996 . S
O100 C106 1.255 . S
O101 Fe91 1.976 . S
O101 C96 1.287 . S
O102 Fe88 1.996 . S
O102 C96 1.255 . S
C103 O107 1.295 . S
C103 O108 1.235 . S
O104 Fe89 1.976 . S
O104 C98 1.287 . S
O105 Fe91 1.996 . S
O105 C98 1.255 . S
C106 O99 1.287 . S
C106 O100 1.255 . S
O107 Fe89 2.002 . S
O107 C103 1.295 . S
O108 Fe91 1.997 . S
O108 C103 1.235 . S
C109 O92 1.295 . S
C109 O93 1.235 . S
Fe110 O112 1.918 . S
Fe110 O115 1.997 . S
Fe110 O116 2.002 . S
Fe110 O121 1.976 . S
Fe110 O124 1.996 . S
Fe111 O112 1.918 . S
Fe111 O119 1.997 . S
Fe111 O122 1.996 . S
Fe111 O126 1.976 . S
Fe111 O129 2.002 . S
O112 Fe110 1.918 . S
O112 Fe111 1.918 . S
O112 Fe113 1.918 . S
Fe113 O112 1.918 . S
Fe113 O114 2.002 . S
Fe113 O123 1.976 . S
Fe113 O127 1.996 . S
Fe113 O130 1.997 . S
O114 Fe113 2.002 . S
O114 C131 1.295 . S
O115 Fe110 1.997 . S
O115 C131 1.235 . S
O116 Fe110 2.002 . S
O116 C117 1.295 . S
C117 O116 1.295 . S
C117 O119 1.235 . S
C118 O123 1.287 . S
C118 O124 1.255 . S
O119 Fe111 1.997 . S
O119 C117 1.235 . S
C120 O126 1.287 . S
C120 O127 1.255 . S
O121 Fe110 1.976 . S
O121 C128 1.287 . S
O122 Fe111 1.996 . S
O122 C128 1.255 . S
O123 Fe113 1.976 . S
O123 C118 1.287 . S
O124 Fe110 1.996 . S
O124 C118 1.255 . S
C125 O129 1.295 . S
C125 O130 1.235 . S
O126 Fe111 1.976 . S
O126 C120 1.287 . S
O127 Fe113 1.996 . S
O127 C120 1.255 . S
C128 O121 1.287 . S
C128 O122 1.255 . S
O129 Fe111 2.002 . S
O129 C125 1.295 . S
O130 Fe113 1.997 . S
O130 C125 1.235 . S
C131 O114 1.295 . S
C131 O115 1.235 . S
Fe132 O134 1.918 . S
Fe132 O137 1.997 . S
Fe132 O138 2.002 . S
Fe132 O143 1.976 . S
Fe132 O146 1.996 . S
Fe133 O134 1.918 . S
Fe133 O141 1.997 . S
Fe133 O144 1.996 . S
Fe133 O148 1.976 . S
Fe133 O151 2.002 . S
O134 Fe132 1.918 . S
O134 Fe133 1.918 . S
O134 Fe135 1.918 . S
Fe135 O134 1.918 . S
Fe135 O136 2.002 . S
Fe135 O145 1.976 . S
Fe135 O149 1.996 . S
Fe135 O152 1.997 . S
O136 Fe135 2.002 . S
O136 C153 1.295 . S
O137 Fe132 1.997 . S
O137 C153 1.235 . S
O138 Fe132 2.002 . S
O138 C139 1.295 . S
C139 O138 1.295 . S
C139 O141 1.235 . S
C140 O145 1.287 . S
C140 O146 1.255 . S
O141 Fe133 1.997 . S
O141 C139 1.235 . S
C142 O148 1.287 . S
C142 O149 1.255 . S
O143 Fe132 1.976 . S
O143 C150 1.287 . S
O144 Fe133 1.996 . S
O144 C150 1.255 . S
O145 Fe135 1.976 . S
O145 C140 1.287 . S
O146 Fe132 1.996 . S
O146 C140 1.255 . S
C147 O151 1.295 . S
C147 O152 1.235 . S
O148 Fe133 1.976 . S
O148 C142 1.287 . S
O149 Fe135 1.996 . S
O149 C142 1.255 . S
C150 O143 1.287 . S
C150 O144 1.255 . S
O151 Fe133 2.002 . S
O151 C147 1.295 . S
O152 Fe135 1.997 . S
O152 C147 1.235 . S
C153 O136 1.295 . S
C153 O137 1.235 . S
Fe154 O156 1.918 . S
Fe154 O159 1.997 . S
Fe154 O160 2.002 . S
Fe154 O165 1.976 . S
Fe154 O168 1.996 1_556 S
Fe155 O156 1.918 . S
Fe155 O163 1.997 . S
Fe155 O166 1.996 . S
Fe155 O170 1.976 . S
Fe155 O173 2.002 . S
O156 Fe154 1.918 . S
O156 Fe155 1.918 . S
O156 Fe157 1.918 . S
Fe157 O156 1.918 . S
Fe157 O158 2.002 . S
Fe157 O167 1.976 1_556 S
Fe157 O171 1.996 1_556 S
Fe157 O174 1.997 . S
O158 Fe157 2.002 . S
O158 C175 1.295 . S
O159 Fe154 1.997 . S
O159 C175 1.235 . S
O160 Fe154 2.002 . S
O160 C161 1.295 . S
C161 O160 1.295 . S
C161 O163 1.235 . S
C162 O167 1.287 . S
C162 O168 1.255 . S
O163 Fe155 1.997 . S
O163 C161 1.235 . S
C164 O170 1.287 1_554 S
C164 O171 1.255 . S
O165 Fe154 1.976 . S
O165 C172 1.287 . S
O166 Fe155 1.996 . S
O166 C172 1.255 . S
O167 Fe157 1.976 1_554 S
O167 C162 1.287 . S
O168 Fe154 1.996 1_554 S
O168 C162 1.255 . S
C169 O173 1.295 . S
C169 O174 1.235 . S
O170 Fe155 1.976 . S
O170 C164 1.287 1_556 S
O171 Fe157 1.996 1_554 S
O171 C164 1.255 . S
C172 O165 1.287 . S
C172 O166 1.255 . S
O173 Fe155 2.002 . S
O173 C169 1.295 . S
O174 Fe157 1.997 . S
O174 C169 1.235 . S
C175 O158 1.295 . S
C175 O159 1.235 . S
Fe176 O178 1.918 . S
Fe176 O181 1.997 . S
Fe176 O182 2.002 . S
Fe176 O187 1.976 . S
Fe176 O190 1.996 . S
Fe177 O178 1.918 . S
Fe177 O185 1.997 . S
Fe177 O188 1.996 . S
Fe177 O192 1.976 . S
Fe177 O195 2.002 . S
O178 Fe176 1.918 . S
O178 Fe177 1.918 . S
O178 Fe179 1.918 . S
Fe179 O178 1.918 . S
Fe179 O180 2.002 . S
Fe179 O189 1.976 . S
Fe179 O193 1.996 . S
Fe179 O196 1.997 . S
O180 Fe179 2.002 . S
O180 C197 1.295 . S
O181 Fe176 1.997 . S
O181 C197 1.235 . S
O182 Fe176 2.002 . S
O182 C183 1.295 . S
C183 O182 1.295 . S
C183 O185 1.235 . S
C184 O189 1.287 . S
C184 O190 1.255 . S
O185 Fe177 1.997 . S
O185 C183 1.235 . S
C186 O192 1.287 . S
C186 O193 1.255 . S
O187 Fe176 1.976 . S
O187 C194 1.287 . S
O188 Fe177 1.996 . S
O188 C194 1.255 . S
O189 Fe179 1.976 . S
O189 C184 1.287 . S
O190 Fe176 1.996 . S
O190 C184 1.255 . S
C191 O195 1.295 . S
C191 O196 1.235 . S
O192 Fe177 1.976 . S
O192 C186 1.287 . S
O193 Fe179 1.996 . S
O193 C186 1.255 . S
C194 O187 1.287 . S
C194 O188 1.255 . S
O195 Fe177 2.002 . S
O195 C191 1.295 . S
O196 Fe179 1.997 . S
O196 C191 1.235 . S
C197 O180 1.295 . S
C197 O181 1.235 . S
Fe198 O200 1.918 . S
Fe198 O203 1.997 . S
Fe198 O204 2.002 . S
Fe198 O209 1.976 . S
Fe198 O212 1.996 . S
Fe199 O200 1.918 . S
Fe199 O207 1.997 . S
Fe199 O210 1.996 . S
Fe199 O214 1.976 . S
Fe199 O217 2.002 . S
O200 Fe198 1.918 . S
O200 Fe199 1.918 . S
O200 Fe201 1.918 . S
Fe201 O200 1.918 . S
Fe201 O202 2.002 . S
Fe201 O211 1.976 . S
Fe201 O215 1.996 . S
Fe201 O218 1.997 . S
O202 Fe201 2.002 . S
O202 C219 1.295 . S
O203 Fe198 1.997 . S
O203 C219 1.235 . S
O204 Fe198 2.002 . S
O204 C205 1.295 . S
C205 O204 1.295 . S
C205 O207 1.235 . S
C206 O211 1.287 . S
C206 O212 1.255 . S
O207 Fe199 1.997 . S
O207 C205 1.235 . S
C208 O214 1.287 . S
C208 O215 1.255 . S
O209 Fe198 1.976 . S
O209 C216 1.287 . S
O210 Fe199 1.996 . S
O210 C216 1.255 . S
O211 Fe201 1.976 . S
O211 C206 1.287 . S
O212 Fe198 1.996 . S
O212 C206 1.255 . S
C213 O217 1.295 . S
C213 O218 1.235 . S
O214 Fe199 1.976 . S
O214 C208 1.287 . S
O215 Fe201 1.996 . S
O215 C208 1.255 . S
C216 O209 1.287 . S
C216 O210 1.255 . S
O217 Fe199 2.002 . S
O217 C213 1.295 . S
O218 Fe201 1.997 . S
O218 C213 1.235 . S
C219 O202 1.295 . S
C219 O203 1.235 . S
Fe220 O222 1.918 . S
Fe220 O225 1.997 . S
Fe220 O226 2.002 . S
Fe220 O231 1.976 . S
Fe220 O234 1.996 . S
Fe221 O222 1.918 . S
Fe221 O229 1.997 . S
Fe221 O232 1.996 . S
Fe221 O236 1.976 . S
Fe221 O239 2.002 . S
O222 Fe220 1.918 . S
O222 Fe221 1.918 . S
O222 Fe223 1.918 . S
Fe223 O222 1.918 . S
Fe223 O224 2.002 . S
Fe223 O233 1.976 . S
Fe223 O237 1.996 . S
Fe223 O240 1.997 . S
O224 Fe223 2.002 . S
O224 C241 1.295 . S
O225 Fe220 1.997 . S
O225 C241 1.235 . S
O226 Fe220 2.002 . S
O226 C227 1.295 . S
C227 O226 1.295 . S
C227 O229 1.235 . S
C228 O233 1.287 . S
C228 O234 1.255 . S
O229 Fe221 1.997 . S
O229 C227 1.235 . S
C230 O236 1.287 . S
C230 O237 1.255 . S
O231 Fe220 1.976 . S
O231 C238 1.287 . S
O232 Fe221 1.996 . S
O232 C238 1.255 . S
O233 Fe223 1.976 . S
O233 C228 1.287 . S
O234 Fe220 1.996 . S
O234 C228 1.255 . S
C235 O239 1.295 . S
C235 O240 1.235 . S
O236 Fe221 1.976 . S
O236 C230 1.287 . S
O237 Fe223 1.996 . S
O237 C230 1.255 . S
C238 O231 1.287 . S
C238 O232 1.255 . S
O239 Fe221 2.002 . S
O239 C235 1.295 . S
O240 Fe223 1.997 . S
O240 C235 1.235 . S
C241 O224 1.295 . S
C241 O225 1.235 . S
Fe242 O244 1.918 . S
Fe242 O247 1.997 . S
Fe242 O248 2.002 . S
Fe242 O253 1.976 1_556 S
Fe242 O256 1.996 1_556 S
Fe243 O244 1.918 . S
Fe243 O251 1.997 . S
Fe243 O254 1.996 . S
Fe243 O258 1.976 . S
Fe243 O261 2.002 . S
O244 Fe242 1.918 . S
O244 Fe243 1.918 . S
O244 Fe245 1.918 . S
Fe245 O244 1.918 . S
Fe245 O246 2.002 . S
Fe245 O255 1.976 1_556 S
Fe245 O259 1.996 . S
Fe245 O262 1.997 . S
O246 Fe245 2.002 . S
O246 C263 1.295 . S
O247 Fe242 1.997 . S
O247 C263 1.235 . S
O248 Fe242 2.002 . S
O248 C249 1.295 . S
C249 O248 1.295 . S
C249 O251 1.235 . S
C250 O255 1.287 . S
C250 O256 1.255 . S
O251 Fe243 1.997 . S
O251 C249 1.235 . S
C252 O258 1.287 . S
C252 O259 1.255 . S
O253 Fe242 1.976 1_554 S
O253 C260 1.287 . S
O254 Fe243 1.996 . S
O254 C260 1.255 1_556 S
O255 Fe245 1.976 1_554 S
O255 C250 1.287 . S
O256 Fe242 1.996 1_554 S
O256 C250 1.255 . S
C257 O261 1.295 . S
C257 O262 1.235 . S
O258 Fe243 1.976 . S
O258 C252 1.287 . S
O259 Fe245 1.996 . S
O259 C252 1.255 . S
C260 O253 1.287 . S
C260 O254 1.255 1_554 S
O261 Fe243 2.002 . S
O261 C257 1.295 . S
O262 Fe245 1.997 . S
O262 C257 1.235 . S
C263 O246 1.295 . S
C263 O247 1.235 . S
Fe264 O266 1.918 . S
Fe264 O269 1.997 . S
Fe264 O270 2.002 . S
Fe264 O275 1.976 . S
Fe264 O278 1.996 . S
Fe265 O266 1.918 . S
Fe265 O273 1.997 . S
Fe265 O276 1.996 . S
Fe265 O280 1.976 . S
Fe265 O283 2.002 . S
O266 Fe264 1.918 . S
O266 Fe265 1.918 . S
O266 Fe267 1.918 . S
Fe267 O266 1.918 . S
Fe267 O268 2.002 . S
Fe267 O277 1.976 . S
Fe267 O281 1.996 . S
Fe267 O284 1.997 . S
O268 Fe267 2.002 . S
O268 C285 1.295 . S
O269 Fe264 1.997 . S
O269 C285 1.235 . S
O270 Fe264 2.002 . S
O270 C271 1.295 . S
C271 O270 1.295 . S
C271 O273 1.235 . S
C272 O277 1.287 . S
C272 O278 1.255 . S
O273 Fe265 1.997 . S
O273 C271 1.235 . S
C274 O280 1.287 . S
C274 O281 1.255 . S
O275 Fe264 1.976 . S
O275 C282 1.287 . S
O276 Fe265 1.996 . S
O276 C282 1.255 . S
O277 Fe267 1.976 . S
O277 C272 1.287 . S
O278 Fe264 1.996 . S
O278 C272 1.255 . S
C279 O283 1.295 . S
C279 O284 1.235 . S
O280 Fe265 1.976 . S
O280 C274 1.287 . S
O281 Fe267 1.996 . S
O281 C274 1.255 . S
C282 O275 1.287 . S
C282 O276 1.255 . S
O283 Fe265 2.002 . S
O283 C279 1.295 . S
O284 Fe267 1.997 . S
O284 C279 1.235 . S
C285 O268 1.295 . S
C285 O269 1.235 . S
Fe286 O288 1.918 . S
Fe286 O291 1.997 . S
Fe286 O292 2.002 . S
Fe286 O297 1.976 . S
Fe286 O300 1.996 . S
Fe287 O288 1.918 . S
Fe287 O295 1.997 . S
Fe287 O298 1.996 . S
Fe287 O302 1.976 . S
Fe287 O305 2.002 . S
O288 Fe286 1.918 . S
O288 Fe287 1.918 . S
O288 Fe289 1.918 . S
Fe289 O288 1.918 . S
Fe289 O290 2.002 . S
Fe289 O299 1.976 . S
Fe289 O303 1.996 . S
Fe289 O306 1.997 . S
O290 Fe289 2.002 . S
O290 C307 1.295 . S
O291 Fe286 1.997 . S
O291 C307 1.235 . S
O292 Fe286 2.002 . S
O292 C293 1.295 . S
C293 O292 1.295 . S
C293 O295 1.235 . S
C294 O299 1.287 . S
C294 O300 1.255 . S
O295 Fe287 1.997 . S
O295 C293 1.235 . S
C296 O302 1.287 . S
C296 O303 1.255 . S
O297 Fe286 1.976 . S
O297 C304 1.287 . S
O298 Fe287 1.996 . S
O298 C304 1.255 . S
O299 Fe289 1.976 . S
O299 C294 1.287 . S
O300 Fe286 1.996 . S
O300 C294 1.255 . S
C301 O305 1.295 . S
C301 O306 1.235 . S
O302 Fe287 1.976 . S
O302 C296 1.287 . S
O303 Fe289 1.996 . S
O303 C296 1.255 . S
C304 O297 1.287 . S
C304 O298 1.255 . S
O305 Fe287 2.002 . S
O305 C301 1.295 . S
O306 Fe289 1.997 . S
O306 C301 1.235 . S
C307 O290 1.295 . S
C307 O291 1.235 . S
Fe308 O310 1.918 . S
Fe308 O313 1.997 . S
Fe308 O314 2.002 . S
Fe308 O319 1.976 . S
Fe308 O322 1.996 . S
Fe309 O310 1.918 . S
Fe309 O317 1.997 . S
Fe309 O320 1.996 . S
Fe309 O324 1.976 . S
Fe309 O327 2.002 . S
O310 Fe308 1.918 . S
O310 Fe309 1.918 . S
O310 Fe311 1.918 . S
Fe311 O310 1.918 . S
Fe311 O312 2.002 . S
Fe311 O321 1.976 . S
Fe311 O325 1.996 . S
Fe311 O328 1.997 . S
O312 Fe311 2.002 . S
O312 C329 1.295 . S
O313 Fe308 1.997 . S
O313 C329 1.235 . S
O314 Fe308 2.002 . S
O314 C315 1.295 . S
C315 O314 1.295 . S
C315 O317 1.235 . S
C316 O321 1.287 . S
C316 O322 1.255 . S
O317 Fe309 1.997 . S
O317 C315 1.235 . S
C318 O324 1.287 . S
C318 O325 1.255 . S
O319 Fe308 1.976 . S
O319 C326 1.287 . S
O320 Fe309 1.996 . S
O320 C326 1.255 . S
O321 Fe311 1.976 . S
O321 C316 1.287 . S
O322 Fe308 1.996 . S
O322 C316 1.255 . S
C323 O327 1.295 . S
C323 O328 1.235 . S
O324 Fe309 1.976 . S
O324 C318 1.287 . S
O325 Fe311 1.996 . S
O325 C318 1.255 . S
C326 O319 1.287 . S
C326 O320 1.255 . S
O327 Fe309 2.002 . S
O327 C323 1.295 . S
O328 Fe311 1.997 . S
O328 C323 1.235 . S
C329 O312 1.295 . S
C329 O313 1.235 . S
Fe330 O332 1.918 . S
Fe330 O335 1.997 . S
Fe330 O336 2.002 . S
Fe330 O341 1.976 1_554 S
Fe330 O344 1.996 . S
Fe331 O332 1.918 . S
Fe331 O339 1.997 . S
Fe331 O342 1.996 1_554 S
Fe331 O346 1.976 1_554 S
Fe331 O349 2.002 . S
O332 Fe330 1.918 . S
O332 Fe331 1.918 . S
O332 Fe333 1.918 . S
Fe333 O332 1.918 . S
Fe333 O334 2.002 . S
Fe333 O343 1.976 . S
Fe333 O347 1.996 . S
Fe333 O350 1.997 . S
O334 Fe333 2.002 . S
O334 C351 1.295 . S
O335 Fe330 1.997 . S
O335 C351 1.235 . S
O336 Fe330 2.002 . S
O336 C337 1.295 . S
C337 O336 1.295 . S
C337 O339 1.235 . S
C338 O343 1.287 . S
C338 O344 1.255 . S
O339 Fe331 1.997 . S
O339 C337 1.235 . S
C340 O346 1.287 . S
C340 O347 1.255 1_556 S
O341 Fe330 1.976 1_556 S
O341 C348 1.287 . S
O342 Fe331 1.996 1_556 S
O342 C348 1.255 . S
O343 Fe333 1.976 . S
O343 C338 1.287 . S
O344 Fe330 1.996 . S
O344 C338 1.255 . S
C345 O349 1.295 . S
C345 O350 1.235 . S
O346 Fe331 1.976 1_556 S
O346 C340 1.287 . S
O347 Fe333 1.996 . S
O347 C340 1.255 1_554 S
C348 O341 1.287 . S
C348 O342 1.255 . S
O349 Fe331 2.002 . S
O349 C345 1.295 . S
O350 Fe333 1.997 . S
O350 C345 1.235 . S
C351 O334 1.295 . S
C351 O335 1.235 . S
Fe352 O354 1.918 . S
Fe352 O357 1.997 . S
Fe352 O358 2.002 . S
Fe352 O363 1.976 . S
Fe352 O366 1.996 . S
Fe353 O354 1.918 . S
Fe353 O361 1.997 . S
Fe353 O364 1.996 . S
Fe353 O368 1.976 . S
Fe353 O371 2.002 . S
O354 Fe352 1.918 . S
O354 Fe353 1.918 . S
O354 Fe355 1.918 . S
Fe355 O354 1.918 . S
Fe355 O356 2.002 . S
Fe355 O365 1.976 . S
Fe355 O369 1.996 . S
Fe355 O372 1.997 . S
O356 Fe355 2.002 . S
O356 C373 1.295 . S
O357 Fe352 1.997 . S
O357 C373 1.235 . S
O358 Fe352 2.002 . S
O358 C359 1.295 . S
C359 O358 1.295 . S
C359 O361 1.235 . S
C360 O365 1.287 . S
C360 O366 1.255 . S
O361 Fe353 1.997 . S
O361 C359 1.235 . S
C362 O368 1.287 . S
C362 O369 1.255 . S
O363 Fe352 1.976 . S
O363 C370 1.287 . S
O364 Fe353 1.996 . S
O364 C370 1.255 . S
O365 Fe355 1.976 . S
O365 C360 1.287 . S
O366 Fe352 1.996 . S
O366 C360 1.255 . S
C367 O371 1.295 . S
C367 O372 1.235 . S
O368 Fe353 1.976 . S
O368 C362 1.287 . S
O369 Fe355 1.996 . S
O369 C362 1.255 . S
C370 O363 1.287 . S
C370 O364 1.255 . S
O371 Fe353 2.002 . S
O371 C367 1.295 . S
O372 Fe355 1.997 . S
O372 C367 1.235 . S
C373 O356 1.295 . S
C373 O357 1.235 . S
Fe374 O376 1.918 . S
Fe374 O379 1.997 . S
Fe374 O380 2.002 . S
Fe374 O385 1.976 . S
Fe374 O388 1.996 . S
Fe375 O376 1.918 . S
Fe375 O383 1.997 . S
Fe375 O386 1.996 1_554 S
Fe375 O390 1.976 1_554 S
Fe375 O393 2.002 . S
O376 Fe374 1.918 . S
O376 Fe375 1.918 . S
O376 Fe377 1.918 . S
Fe377 O376 1.918 . S
Fe377 O378 2.002 . S
Fe377 O387 1.976 . S
Fe377 O391 1.996 1_554 S
Fe377 O394 1.997 . S
O378 Fe377 2.002 . S
O378 C395 1.295 . S
O379 Fe374 1.997 . S
O379 C395 1.235 . S
O380 Fe374 2.002 . S
O380 C381 1.295 . S
C381 O380 1.295 . S
C381 O383 1.235 . S
C382 O387 1.287 . S
C382 O388 1.255 . S
O383 Fe375 1.997 . S
O383 C381 1.235 . S
C384 O390 1.287 . S
C384 O391 1.255 . S
O385 Fe374 1.976 . S
O385 C392 1.287 1_554 S
O386 Fe375 1.996 1_556 S
O386 C392 1.255 . S
O387 Fe377 1.976 . S
O387 C382 1.287 . S
O388 Fe374 1.996 . S
O388 C382 1.255 . S
C389 O393 1.295 . S
C389 O394 1.235 . S
O390 Fe375 1.976 1_556 S
O390 C384 1.287 . S
O391 Fe377 1.996 1_556 S
O391 C384 1.255 . S
C392 O385 1.287 1_556 S
C392 O386 1.255 . S
O393 Fe375 2.002 . S
O393 C389 1.295 . S
O394 Fe377 1.997 . S
O394 C389 1.235 . S
C395 O378 1.295 . S
C395 O379 1.235 . S
Fe396 O398 1.918 . S
Fe396 O401 1.997 . S
Fe396 O402 2.002 . S
Fe396 O407 1.976 . S
Fe396 O410 1.996 . S
Fe397 O398 1.918 . S
Fe397 O405 1.997 . S
Fe397 O408 1.996 . S
Fe397 O412 1.976 . S
Fe397 O415 2.002 . S
O398 Fe396 1.918 . S
O398 Fe397 1.918 . S
O398 Fe399 1.918 . S
Fe399 O398 1.918 . S
Fe399 O400 2.002 . S
Fe399 O409 1.976 . S
Fe399 O413 1.996 . S
Fe399 O416 1.997 . S
O400 Fe399 2.002 . S
O400 C417 1.295 . S
O401 Fe396 1.997 . S
O401 C417 1.235 . S
O402 Fe396 2.002 . S
O402 C403 1.295 . S
C403 O402 1.295 . S
C403 O405 1.235 . S
C404 O409 1.287 . S
C404 O410 1.255 . S
O405 Fe397 1.997 . S
O405 C403 1.235 . S
C406 O412 1.287 . S
C406 O413 1.255 . S
O407 Fe396 1.976 . S
O407 C414 1.287 . S
O408 Fe397 1.996 . S
O408 C414 1.255 . S
O409 Fe399 1.976 . S
O409 C404 1.287 . S
O410 Fe396 1.996 . S
O410 C404 1.255 . S
C411 O415 1.295 . S
C411 O416 1.235 . S
O412 Fe397 1.976 . S
O412 C406 1.287 . S
O413 Fe399 1.996 . S
O413 C406 1.255 . S
C414 O407 1.287 . S
C414 O408 1.255 . S
O415 Fe397 2.002 . S
O415 C411 1.295 . S
O416 Fe399 1.997 . S
O416 C411 1.235 . S
C417 O400 1.295 . S
C417 O401 1.235 . S
Fe418 O420 1.918 . S
Fe418 O423 1.997 . S
Fe418 O424 2.002 . S
Fe418 O429 1.976 . S
Fe418 O432 1.996 . S
Fe419 O420 1.918 . S
Fe419 O427 1.997 . S
Fe419 O430 1.996 . S
Fe419 O434 1.976 . S
Fe419 O437 2.002 . S
O420 Fe418 1.918 . S
O420 Fe419 1.918 . S
O420 Fe421 1.918 . S
Fe421 O420 1.918 . S
Fe421 O422 2.002 . S
Fe421 O431 1.976 . S
Fe421 O435 1.996 . S
Fe421 O438 1.997 . S
O422 Fe421 2.002 . S
O422 C439 1.295 . S
O423 Fe418 1.997 . S
O423 C439 1.235 . S
O424 Fe418 2.002 . S
O424 C425 1.295 . S
C425 O424 1.295 . S
C425 O427 1.235 . S
C426 O431 1.287 . S
C426 O432 1.255 . S
O427 Fe419 1.997 . S
O427 C425 1.235 . S
C428 O434 1.287 . S
C428 O435 1.255 . S
O429 Fe418 1.976 . S
O429 C436 1.287 . S
O430 Fe419 1.996 . S
O430 C436 1.255 . S
O431 Fe421 1.976 . S
O431 C426 1.287 . S
O432 Fe418 1.996 . S
O432 C426 1.255 . S
C433 O437 1.295 . S
C433 O438 1.235 . S
O434 Fe419 1.976 . S
O434 C428 1.287 . S
O435 Fe421 1.996 . S
O435 C428 1.255 . S
C436 O429 1.287 . S
C436 O430 1.255 . S
O437 Fe419 2.002 . S
O437 C433 1.295 . S
O438 Fe421 1.997 . S
O438 C433 1.235 . S
C439 O422 1.295 . S
C439 O423 1.235 . S
Fe440 O442 1.918 . S
Fe440 O445 1.997 . S
Fe440 O446 2.002 . S
Fe440 O451 1.976 . S
Fe440 O454 1.996 . S
Fe441 O442 1.918 . S
Fe441 O449 1.997 . S
Fe441 O452 1.996 . S
Fe441 O456 1.976 . S
Fe441 O459 2.002 . S
O442 Fe440 1.918 . S
O442 Fe441 1.918 . S
O442 Fe443 1.918 . S
Fe443 O442 1.918 . S
Fe443 O444 2.002 . S
Fe443 O453 1.976 . S
Fe443 O457 1.996 . S
Fe443 O460 1.997 . S
O444 Fe443 2.002 . S
O444 C461 1.295 . S
O445 Fe440 1.997 . S
O445 C461 1.235 . S
O446 Fe440 2.002 . S
O446 C447 1.295 . S
C447 O446 1.295 . S
C447 O449 1.235 . S
C448 O453 1.287 . S
C448 O454 1.255 . S
O449 Fe441 1.997 . S
O449 C447 1.235 . S
C450 O456 1.287 . S
C450 O457 1.255 . S
O451 Fe440 1.976 . S
O451 C458 1.287 . S
O452 Fe441 1.996 . S
O452 C458 1.255 . S
O453 Fe443 1.976 . S
O453 C448 1.287 . S
O454 Fe440 1.996 . S
O454 C448 1.255 . S
C455 O459 1.295 . S
C455 O460 1.235 . S
O456 Fe441 1.976 . S
O456 C450 1.287 . S
O457 Fe443 1.996 . S
O457 C450 1.255 . S
C458 O451 1.287 . S
C458 O452 1.255 . S
O459 Fe441 2.002 . S
O459 C455 1.295 . S
O460 Fe443 1.997 . S
O460 C455 1.235 . S
C461 O444 1.295 . S
C461 O445 1.235 . S
Fe462 O464 1.918 . S
Fe462 O467 1.997 . S
Fe462 O468 2.002 . S
Fe462 O473 1.976 1_556 S
Fe462 O476 1.996 1_556 S
Fe463 O464 1.918 . S
Fe463 O471 1.997 . S
Fe463 O474 1.996 1_556 S
Fe463 O478 1.976 . S
Fe463 O481 2.002 . S
O464 Fe462 1.918 . S
O464 Fe463 1.918 . S
O464 Fe465 1.918 . S
Fe465 O464 1.918 . S
Fe465 O466 2.002 . S
Fe465 O475 1.976 . S
Fe465 O479 1.996 . S
Fe465 O482 1.997 . S
O466 Fe465 2.002 . S
O466 C483 1.295 . S
O467 Fe462 1.997 . S
O467 C483 1.235 . S
O468 Fe462 2.002 . S
O468 C469 1.295 . S
C469 O468 1.295 . S
C469 O471 1.235 . S
C470 O475 1.287 1_554 S
C470 O476 1.255 . S
O471 Fe463 1.997 . S
O471 C469 1.235 . S
C472 O478 1.287 . S
C472 O479 1.255 . S
O473 Fe462 1.976 1_554 S
O473 C480 1.287 . S
O474 Fe463 1.996 1_554 S
O474 C480 1.255 . S
O475 Fe465 1.976 . S
O475 C470 1.287 1_556 S
O476 Fe462 1.996 1_554 S
O476 C470 1.255 . S
C477 O481 1.295 . S
C477 O482 1.235 . S
O478 Fe463 1.976 . S
O478 C472 1.287 . S
O479 Fe465 1.996 . S
O479 C472 1.255 . S
C480 O473 1.287 . S
C480 O474 1.255 . S
O481 Fe463 2.002 . S
O481 C477 1.295 . S
O482 Fe465 1.997 . S
O482 C477 1.235 . S
C483 O466 1.295 . S
C483 O467 1.235 . S
Fe484 O486 1.918 . S
Fe484 O489 1.997 . S
Fe484 O490 2.002 . S
Fe484 O495 1.976 . S
Fe484 O498 1.996 . S
Fe485 O486 1.918 . S
Fe485 O493 1.997 . S
Fe485 O496 1.996 . S
Fe485 O500 1.976 . S
Fe485 O503 2.002 . S
O486 Fe484 1.918 . S
O486 Fe485 1.918 . S
O486 Fe487 1.918 . S
Fe487 O486 1.918 . S
Fe487 O488 2.002 . S
Fe487 O497 1.976 . S
Fe487 O501 1.996 . S
Fe487 O504 1.997 . S
O488 Fe487 2.002 . S
O488 C505 1.295 . S
O489 Fe484 1.997 . S
O489 C505 1.235 . S
O490 Fe484 2.002 . S
O490 C491 1.295 . S
C491 O490 1.295 . S
C491 O493 1.235 . S
C492 O497 1.287 . S
C492 O498 1.255 . S
O493 Fe485 1.997 . S
O493 C491 1.235 . S
C494 O500 1.287 . S
C494 O501 1.255 . S
O495 Fe484 1.976 . S
O495 C502 1.287 . S
O496 Fe485 1.996 . S
O496 C502 1.255 . S
O497 Fe487 1.976 . S
O497 C492 1.287 . S
O498 Fe484 1.996 . S
O498 C492 1.255 . S
C499 O503 1.295 . S
C499 O504 1.235 . S
O500 Fe485 1.976 . S
O500 C494 1.287 . S
O501 Fe487 1.996 . S
O501 C494 1.255 . S
C502 O495 1.287 . S
C502 O496 1.255 . S
O503 Fe485 2.002 . S
O503 C499 1.295 . S
O504 Fe487 1.997 . S
O504 C499 1.235 . S
C505 O488 1.295 . S
C505 O489 1.235 . S
Fe506 O508 1.918 . S
Fe506 O511 1.997 . S
Fe506 O512 2.002 . S
Fe506 O517 1.976 . S
Fe506 O520 1.996 . S
Fe507 O508 1.918 . S
Fe507 O515 1.997 . S
Fe507 O518 1.996 . S
Fe507 O522 1.976 . S
Fe507 O525 2.002 . S
O508 Fe506 1.918 . S
O508 Fe507 1.918 . S
O508 Fe509 1.918 . S
Fe509 O508 1.918 . S
Fe509 O510 2.002 . S
Fe509 O519 1.976 . S
Fe509 O523 1.996 . S
Fe509 O526 1.997 . S
O510 Fe509 2.002 . S
O510 C527 1.295 . S
O511 Fe506 1.997 . S
O511 C527 1.235 . S
O512 Fe506 2.002 . S
O512 C513 1.295 . S
C513 O512 1.295 . S
C513 O515 1.235 . S
C514 O519 1.287 . S
C514 O520 1.255 . S
O515 Fe507 1.997 . S
O515 C513 1.235 . S
C516 O522 1.287 . S
C516 O523 1.255 . S
O517 Fe506 1.976 . S
O517 C524 1.287 . S
O518 Fe507 1.996 . S
O518 C524 1.255 . S
O519 Fe509 1.976 . S
O519 C514 1.287 . S
O520 Fe506 1.996 . S
O520 C514 1.255 . S
C521 O525 1.295 . S
C521 O526 1.235 . S
O522 Fe507 1.976 . S
O522 C516 1.287 . S
O523 Fe509 1.996 . S
O523 C516 1.255 . S
C524 O517 1.287 . S
C524 O518 1.255 . S
O525 Fe507 2.002 . S
O525 C521 1.295 . S
O526 Fe509 1.997 . S
O526 C521 1.235 . S
C527 O510 1.295 . S
C527 O511 1.235 . S
Fe528 O530 1.918 . S
Fe528 O533 1.997 . S
Fe528 O534 2.002 . S
Fe528 O539 1.976 . S
Fe528 O542 1.996 . S
Fe529 O530 1.918 . S
Fe529 O537 1.997 . S
Fe529 O540 1.996 . S
Fe529 O544 1.976 . S
Fe529 O547 2.002 . S
O530 Fe528 1.918 . S
O530 Fe529 1.918 . S
O530 Fe531 1.918 . S
Fe531 O530 1.918 . S
Fe531 O532 2.002 . S
Fe531 O541 1.976 . S
Fe531 O545 1.996 . S
Fe531 O548 1.997 . S
O532 Fe531 2.002 . S
O532 C549 1.295 . S
O533 Fe528 1.997 . S
O533 C549 1.235 . S
O534 Fe528 2.002 . S
O534 C535 1.295 . S
C535 O534 1.295 . S
C535 O537 1.235 . S
C536 O541 1.287 . S
C536 O542 1.255 . S
O537 Fe529 1.997 . S
O537 C535 1.235 . S
C538 O544 1.287 . S
C538 O545 1.255 . S
O539 Fe528 1.976 . S
O539 C546 1.287 . S
O540 Fe529 1.996 . S
O540 C546 1.255 . S
O541 Fe531 1.976 . S
O541 C536 1.287 . S
O542 Fe528 1.996 . S
O542 C536 1.255 . S
C543 O547 1.295 . S
C543 O548 1.235 . S
O544 Fe529 1.976 . S
O544 C538 1.287 . S
O545 Fe531 1.996 . S
O545 C538 1.255 . S
C546 O539 1.287 . S
C546 O540 1.255 . S
O547 Fe529 2.002 . S
O547 C543 1.295 . S
O548 Fe531 1.997 . S
O548 C543 1.235 . S
C549 O532 1.295 . S
C549 O533 1.235 . S
Fe550 O552 1.918 . S
Fe550 O555 1.997 . S
Fe550 O556 2.002 . S
Fe550 O561 1.976 1_556 S
Fe550 O564 1.996 . S
Fe551 O552 1.918 . S
Fe551 O559 1.997 . S
Fe551 O562 1.996 1_556 S
Fe551 O566 1.976 1_556 S
Fe551 O569 2.002 . S
O552 Fe550 1.918 . S
O552 Fe551 1.918 . S
O552 Fe553 1.918 . S
Fe553 O552 1.918 . S
Fe553 O554 2.002 . S
Fe553 O563 1.976 . S
Fe553 O567 1.996 . S
Fe553 O570 1.997 . S
O554 Fe553 2.002 . S
O554 C571 1.295 . S
O555 Fe550 1.997 . S
O555 C571 1.235 . S
O556 Fe550 2.002 . S
O556 C557 1.295 . S
C557 O556 1.295 . S
C557 O559 1.235 . S
C558 O563 1.287 . S
C558 O564 1.255 . S
O559 Fe551 1.997 . S
O559 C557 1.235 . S
C560 O566 1.287 . S
C560 O567 1.255 1_554 S
O561 Fe550 1.976 1_554 S
O561 C568 1.287 . S
O562 Fe551 1.996 1_554 S
O562 C568 1.255 . S
O563 Fe553 1.976 . S
O563 C558 1.287 . S
O564 Fe550 1.996 . S
O564 C558 1.255 . S
C565 O569 1.295 . S
C565 O570 1.235 . S
O566 Fe551 1.976 1_554 S
O566 C560 1.287 . S
O567 Fe553 1.996 . S
O567 C560 1.255 1_556 S
C568 O561 1.287 . S
C568 O562 1.255 . S
O569 Fe551 2.002 . S
O569 C565 1.295 . S
O570 Fe553 1.997 . S
O570 C565 1.235 . S
C571 O554 1.295 . S
C571 O555 1.235 . S
Fe572 O574 1.918 . S
Fe572 O577 1.997 . S
Fe572 O578 2.002 . S
Fe572 O583 1.976 . S
Fe572 O586 1.996 . S
Fe573 O574 1.918 . S
Fe573 O581 1.997 . S
Fe573 O584 1.996 . S
Fe573 O588 1.976 . S
Fe573 O591 2.002 . S
O574 Fe572 1.918 . S
O574 Fe573 1.918 . S
O574 Fe575 1.918 . S
Fe575 O574 1.918 . S
Fe575 O576 2.002 . S
Fe575 O585 1.976 . S
Fe575 O589 1.996 . S
Fe575 O592 1.997 . S
O576 Fe575 2.002 . S
O576 C593 1.295 . S
O577 Fe572 1.997 . S
O577 C593 1.235 . S
O578 Fe572 2.002 . S
O578 C579 1.295 . S
C579 O578 1.295 . S
C579 O581 1.235 . S
C580 O585 1.287 . S
C580 O586 1.255 . S
O581 Fe573 1.997 . S
O581 C579 1.235 . S
C582 O588 1.287 . S
C582 O589 1.255 . S
O583 Fe572 1.976 . S
O583 C590 1.287 . S
O584 Fe573 1.996 . S
O584 C590 1.255 . S
O585 Fe575 1.976 . S
O585 C580 1.287 . S
O586 Fe572 1.996 . S
O586 C580 1.255 . S
C587 O591 1.295 . S
C587 O592 1.235 . S
O588 Fe573 1.976 . S
O588 C582 1.287 . S
O589 Fe575 1.996 . S
O589 C582 1.255 . S
C590 O583 1.287 . S
C590 O584 1.255 . S
O591 Fe573 2.002 . S
O591 C587 1.295 . S
O592 Fe575 1.997 . S
O592 C587 1.235 . S
C593 O576 1.295 . S
C593 O577 1.235 . S
Fe594 O596 1.918 . S
Fe594 O599 1.997 . S
Fe594 O600 2.002 . S
Fe594 O605 1.976 . S
Fe594 O608 1.996 . S
Fe595 O596 1.918 . S
Fe595 O603 1.997 . S
Fe595 O606 1.996 . S
Fe595 O610 1.976 . S
Fe595 O613 2.002 . S
O596 Fe594 1.918 . S
O596 Fe595 1.918 . S
O596 Fe597 1.918 . S
Fe597 O596 1.918 . S
Fe597 O598 2.002 . S
Fe597 O607 1.976 . S
Fe597 O611 1.996 . S
Fe597 O614 1.997 . S
O598 Fe597 2.002 . S
O598 C615 1.295 . S
O599 Fe594 1.997 . S
O599 C615 1.235 . S
O600 Fe594 2.002 . S
O600 C601 1.295 . S
C601 O600 1.295 . S
C601 O603 1.235 . S
C602 O607 1.287 . S
C602 O608 1.255 . S
O603 Fe595 1.997 . S
O603 C601 1.235 . S
C604 O610 1.287 . S
C604 O611 1.255 . S
O605 Fe594 1.976 . S
O605 C612 1.287 . S
O606 Fe595 1.996 . S
O606 C612 1.255 . S
O607 Fe597 1.976 . S
O607 C602 1.287 . S
O608 Fe594 1.996 . S
O608 C602 1.255 . S
C609 O613 1.295 . S
C609 O614 1.235 . S
O610 Fe595 1.976 . S
O610 C604 1.287 . S
O611 Fe597 1.996 . S
O611 C604 1.255 . S
C612 O605 1.287 . S
C612 O606 1.255 . S
O613 Fe595 2.002 . S
O613 C609 1.295 . S
O614 Fe597 1.997 . S
O614 C609 1.235 . S
C615 O598 1.295 . S
C615 O599 1.235 . S
Fe616 O618 1.918 . S
Fe616 O621 1.997 . S
Fe616 O622 2.002 . S
Fe616 O627 1.976 . S
Fe616 O630 1.996 . S
Fe617 O618 1.918 . S
Fe617 O625 1.997 . S
Fe617 O628 1.996 . S
Fe617 O632 1.976 . S
Fe617 O635 2.002 . S
O618 Fe616 1.918 . S
O618 Fe617 1.918 . S
O618 Fe619 1.918 . S
Fe619 O618 1.918 . S
Fe619 O620 2.002 . S
Fe619 O629 1.976 . S
Fe619 O633 1.996 . S
Fe619 O636 1.997 . S
O620 Fe619 2.002 . S
O620 C637 1.295 . S
O621 Fe616 1.997 . S
O621 C637 1.235 . S
O622 Fe616 2.002 . S
O622 C623 1.295 . S
C623 O622 1.295 . S
C623 O625 1.235 . S
C624 O629 1.287 . S
C624 O630 1.255 . S
O625 Fe617 1.997 . S
O625 C623 1.235 . S
C626 O632 1.287 . S
C626 O633 1.255 . S
O627 Fe616 1.976 . S
O627 C634 1.287 . S
O628 Fe617 1.996 . S
O628 C634 1.255 . S
O629 Fe619 1.976 . S
O629 C624 1.287 . S
O630 Fe616 1.996 . S
O630 C624 1.255 . S
C631 O635 1.295 . S
C631 O636 1.235 . S
O632 Fe617 1.976 . S
O632 C626 1.287 . S
O633 Fe619 1.996 . S
O633 C626 1.255 . S
C634 O627 1.287 . S
C634 O628 1.255 . S
O635 Fe617 2.002 . S
O635 C631 1.295 . S
O636 Fe619 1.997 . S
O636 C631 1.235 . S
C637 O620 1.295 . S
C637 O621 1.235 . S
Fe638 O640 1.918 . S
Fe638 O643 1.997 . S
Fe638 O644 2.002 . S
Fe638 O649 1.976 . S
Fe638 O652 1.996 . S
Fe639 O640 1.918 . S
Fe639 O647 1.997 . S
Fe639 O650 1.996 . S
Fe639 O654 1.976 1_554 S
Fe639 O657 2.002 . S
O640 Fe638 1.918 . S
O640 Fe639 1.918 . S
O640 Fe641 1.918 . S
Fe641 O640 1.918 . S
Fe641 O642 2.002 . S
Fe641 O651 1.976 1_554 S
Fe641 O655 1.996 1_554 S
Fe641 O658 1.997 . S
O642 Fe641 2.002 . S
O642 C659 1.295 . S
O643 Fe638 1.997 . S
O643 C659 1.235 . S
O644 Fe638 2.002 . S
O644 C645 1.295 . S
C645 O644 1.295 . S
C645 O647 1.235 . S
C646 O651 1.287 . S
C646 O652 1.255 1_556 S
O647 Fe639 1.997 . S
O647 C645 1.235 . S
C648 O654 1.287 . S
C648 O655 1.255 . S
O649 Fe638 1.976 . S
O649 C656 1.287 . S
O650 Fe639 1.996 . S
O650 C656 1.255 . S
O651 Fe641 1.976 1_556 S
O651 C646 1.287 . S
O652 Fe638 1.996 . S
O652 C646 1.255 1_554 S
C653 O657 1.295 . S
C653 O658 1.235 . S
O654 Fe639 1.976 1_556 S
O654 C648 1.287 . S
O655 Fe641 1.996 1_556 S
O655 C648 1.255 . S
C656 O649 1.287 . S
C656 O650 1.255 . S
O657 Fe639 2.002 . S
O657 C653 1.295 . S
O658 Fe641 1.997 . S
O658 C653 1.235 . S
C659 O642 1.295 . S
C659 O643 1.235 . S
Fe660 O662 1.918 . S
Fe660 O665 1.997 . S
Fe660 O666 2.002 . S
Fe660 O671 1.976 . S
Fe660 O674 1.996 . S
Fe661 O662 1.918 . S
Fe661 O669 1.997 . S
Fe661 O672 1.996 . S
Fe661 O676 1.976 . S
Fe661 O679 2.002 . S
O662 Fe660 1.918 . S
O662 Fe661 1.918 . S
O662 Fe663 1.918 . S
Fe663 O662 1.918 . S
Fe663 O664 2.002 . S
Fe663 O673 1.976 . S
Fe663 O677 1.996 . S
Fe663 O680 1.997 . S
O664 Fe663 2.002 . S
O664 C681 1.295 . S
O665 Fe660 1.997 . S
O665 C681 1.235 . S
O666 Fe660 2.002 . S
O666 C667 1.295 . S
C667 O666 1.295 . S
C667 O669 1.235 . S
C668 O673 1.287 . S
C668 O674 1.255 . S
O669 Fe661 1.997 . S
O669 C667 1.235 . S
C670 O676 1.287 . S
C670 O677 1.255 . S
O671 Fe660 1.976 . S
O671 C678 1.287 . S
O672 Fe661 1.996 . S
O672 C678 1.255 . S
O673 Fe663 1.976 . S
O673 C668 1.287 . S
O674 Fe660 1.996 . S
O674 C668 1.255 . S
C675 O679 1.295 . S
C675 O680 1.235 . S
O676 Fe661 1.976 . S
O676 C670 1.287 . S
O677 Fe663 1.996 . S
O677 C670 1.255 . S
C678 O671 1.287 . S
C678 O672 1.255 . S
O679 Fe661 2.002 . S
O679 C675 1.295 . S
O680 Fe663 1.997 . S
O680 C675 1.235 . S
C681 O664 1.295 . S
C681 O665 1.235 . S
Fe682 O684 1.918 . S
Fe682 O687 1.997 . S
Fe682 O688 2.002 . S
Fe682 O693 1.976 . S
Fe682 O696 1.996 . S
Fe683 O684 1.918 . S
Fe683 O691 1.997 . S
Fe683 O694 1.996 . S
Fe683 O698 1.976 . S
Fe683 O701 2.002 . S
O684 Fe682 1.918 . S
O684 Fe683 1.918 . S
O684 Fe685 1.918 . S
Fe685 O684 1.918 . S
Fe685 O686 2.002 . S
Fe685 O695 1.976 . S
Fe685 O699 1.996 . S
Fe685 O702 1.997 . S
O686 Fe685 2.002 . S
O686 C703 1.295 . S
O687 Fe682 1.997 . S
O687 C703 1.235 . S
O688 Fe682 2.002 . S
O688 C689 1.295 . S
C689 O688 1.295 . S
C689 O691 1.235 . S
C690 O695 1.287 . S
C690 O696 1.255 . S
O691 Fe683 1.997 . S
O691 C689 1.235 . S
C692 O698 1.287 . S
C692 O699 1.255 . S
O693 Fe682 1.976 . S
O693 C700 1.287 . S
O694 Fe683 1.996 . S
O694 C700 1.255 . S
O695 Fe685 1.976 . S
O695 C690 1.287 . S
O696 Fe682 1.996 . S
O696 C690 1.255 . S
C697 O701 1.295 . S
C697 O702 1.235 . S
O698 Fe683 1.976 . S
O698 C692 1.287 . S
O699 Fe685 1.996 . S
O699 C692 1.255 . S
C700 O693 1.287 . S
C700 O694 1.255 . S
O701 Fe683 2.002 . S
O701 C697 1.295 . S
O702 Fe685 1.997 . S
O702 C697 1.235 . S
C703 O686 1.295 . S
C703 O687 1.235 . S
H704 C710 0.930 . S
H705 C714 0.930 . S
H706 C719 0.929 . S
H707 C717 0.929 . S
H708 C712 0.929 . S
H709 C718 0.929 . S
C710 H704 0.930 . S
C710 C711 1.367 . S
C710 C718 1.378 . S
C711 C710 1.367 . S
C711 C719 1.433 . S
C712 H708 0.929 . S
C712 C714 1.378 . S
C712 C716 1.350 . S
C713 C716 1.463 1_545 S
C713 C718 1.350 . S
C713 N721 1.427 . S
C714 H705 0.930 . S
C714 C712 1.378 . S
C714 C715 1.367 . S
C715 C714 1.367 . S
C715 C717 1.433 . S
C716 C712 1.350 . S
C716 C713 1.463 1_565 S
C716 N720 1.427 . S
C717 H707 0.929 . S
C717 C715 1.433 . S
C717 N720 1.384 . S
C718 H709 0.929 . S
C718 C710 1.378 . S
C718 C713 1.350 . S
C719 H706 0.929 . S
C719 C711 1.433 . S
C719 N721 1.384 . S
N720 C716 1.427 . S
N720 C717 1.384 . S
N721 C713 1.427 . S
N721 C719 1.384 . S
H722 C728 0.930 . S
H723 C732 0.930 . S
H724 C737 0.929 . S
H725 C735 0.929 . S
H726 C730 0.929 . S
H727 C736 0.929 . S
C728 H722 0.930 . S
C728 C729 1.367 . S
C728 C736 1.378 . S
C729 C728 1.367 . S
C729 C737 1.433 . S
C730 H726 0.929 . S
C730 C732 1.378 . S
C730 C734 1.350 . S
C731 C734 1.463 . S
C731 C736 1.350 . S
C731 N739 1.427 . S
C732 H723 0.930 . S
C732 C730 1.378 . S
C732 C733 1.367 . S
C733 C732 1.367 . S
C733 C735 1.433 . S
C734 C730 1.350 . S
C734 C731 1.463 . S
C734 N738 1.427 . S
C735 H725 0.929 . S
C735 C733 1.433 . S
C735 N738 1.384 . S
C736 H727 0.929 . S
C736 C728 1.378 . S
C736 C731 1.350 . S
C737 H724 0.929 . S
C737 C729 1.433 . S
C737 N739 1.384 . S
N738 C734 1.427 . S
N738 C735 1.384 . S
N739 C731 1.427 . S
N739 C737 1.384 . S
H740 C746 0.930 . S
H741 C750 0.930 . S
H742 C755 0.929 . S
H743 C753 0.929 . S
H744 C748 0.929 . S
H745 C754 0.929 . S
C746 H740 0.930 . S
C746 C747 1.367 . S
C746 C754 1.378 . S
C747 C746 1.367 . S
C747 C755 1.433 . S
C748 H744 0.929 . S
C748 C750 1.378 . S
C748 C752 1.350 . S
C749 C752 1.463 1_545 S
C749 C754 1.350 . S
C749 N757 1.427 . S
C750 H741 0.930 . S
C750 C748 1.378 . S
C750 C751 1.367 . S
C751 C750 1.367 . S
C751 C753 1.433 . S
C752 C748 1.350 . S
C752 C749 1.463 1_565 S
C752 N756 1.427 . S
C753 H743 0.929 . S
C753 C751 1.433 . S
C753 N756 1.384 . S
C754 H745 0.929 . S
C754 C746 1.378 . S
C754 C749 1.350 . S
C755 H742 0.929 . S
C755 C747 1.433 . S
C755 N757 1.384 . S
N756 C752 1.427 . S
N756 C753 1.384 . S
N757 C749 1.427 . S
N757 C755 1.384 . S
H758 C764 0.930 . S
H759 C768 0.930 . S
H760 C773 0.929 . S
H761 C771 0.929 . S
H762 C766 0.929 . S
H763 C772 0.929 . S
C764 H758 0.930 . S
C764 C765 1.367 . S
C764 C772 1.378 1_556 S
C765 C764 1.367 . S
C765 C773 1.433 . S
C766 H762 0.929 . S
C766 C768 1.378 1_556 S
C766 C770 1.350 1_556 S
C767 C770 1.463 1_556 S
C767 C772 1.350 1_556 S
C767 N775 1.427 . S
C768 H759 0.930 . S
C768 C766 1.378 1_554 S
C768 C769 1.367 . S
C769 C768 1.367 . S
C769 C771 1.433 . S
C770 C766 1.350 1_554 S
C770 C767 1.463 1_554 S
C770 N774 1.427 . S
C771 H761 0.929 . S
C771 C769 1.433 . S
C771 N774 1.384 . S
C772 H763 0.929 . S
C772 C764 1.378 1_554 S
C772 C767 1.350 1_554 S
C773 H760 0.929 . S
C773 C765 1.433 . S
C773 N775 1.384 . S
N774 C770 1.427 . S
N774 C771 1.384 . S
N775 C767 1.427 . S
N775 C773 1.384 . S
H776 C782 0.930 . S
H777 C786 0.930 . S
H778 C791 0.929 . S
H779 C789 0.929 . S
H780 C784 0.929 . S
H781 C790 0.929 . S
C782 H776 0.930 . S
C782 C783 1.367 . S
C782 C790 1.378 . S
C783 C782 1.367 . S
C783 C791 1.433 . S
C784 H780 0.929 . S
C784 C786 1.378 . S
C784 C788 1.350 . S
C785 C788 1.463 1_565 S
C785 C790 1.350 . S
C785 N793 1.427 . S
C786 H777 0.930 . S
C786 C784 1.378 . S
C786 C787 1.367 . S
C787 C786 1.367 . S
C787 C789 1.433 . S
C788 C784 1.350 . S
C788 C785 1.463 1_545 S
C788 N792 1.427 . S
C789 H779 0.929 . S
C789 C787 1.433 . S
C789 N792 1.384 . S
C790 H781 0.929 . S
C790 C782 1.378 . S
C790 C785 1.350 . S
C791 H778 0.929 . S
C791 C783 1.433 . S
C791 N793 1.384 . S
N792 C788 1.427 . S
N792 C789 1.384 . S
N793 C785 1.427 . S
N793 C791 1.384 . S
H794 C800 0.930 . S
H795 C804 0.930 . S
H796 C809 0.929 . S
H797 C807 0.929 . S
H798 C802 0.929 . S
H799 C808 0.929 . S
C800 H794 0.930 . S
C800 C801 1.367 . S
C800 C808 1.378 . S
C801 C800 1.367 . S
C801 C809 1.433 . S
C802 H798 0.929 . S
C802 C804 1.378 . S
C802 C806 1.350 . S
C803 C806 1.463 . S
C803 C808 1.350 . S
C803 N811 1.427 . S
C804 H795 0.930 . S
C804 C802 1.378 . S
C804 C805 1.367 . S
C805 C804 1.367 . S
C805 C807 1.433 . S
C806 C802 1.350 . S
C806 C803 1.463 . S
C806 N810 1.427 . S
C807 H797 0.929 . S
C807 C805 1.433 . S
C807 N810 1.384 . S
C808 H799 0.929 . S
C808 C800 1.378 . S
C808 C803 1.350 . S
C809 H796 0.929 . S
C809 C801 1.433 . S
C809 N811 1.384 . S
N810 C806 1.427 . S
N810 C807 1.384 . S
N811 C803 1.427 . S
N811 C809 1.384 . S
H812 C818 0.930 . S
H813 C822 0.930 . S
H814 C827 0.929 . S
H815 C825 0.929 . S
H816 C820 0.929 . S
H817 C826 0.929 . S
C818 H812 0.930 . S
C818 C819 1.367 . S
C818 C826 1.378 . S
C819 C818 1.367 . S
C819 C827 1.433 . S
C820 H816 0.929 . S
C820 C822 1.378 . S
C820 C824 1.350 . S
C821 C824 1.463 1_565 S
C821 C826 1.350 . S
C821 N829 1.427 . S
C822 H813 0.930 . S
C822 C820 1.378 . S
C822 C823 1.367 . S
C823 C822 1.367 . S
C823 C825 1.433 . S
C824 C820 1.350 . S
C824 C821 1.463 1_545 S
C824 N828 1.427 . S
C825 H815 0.929 . S
C825 C823 1.433 . S
C825 N828 1.384 . S
C826 H817 0.929 . S
C826 C818 1.378 . S
C826 C821 1.350 . S
C827 H814 0.929 . S
C827 C819 1.433 . S
C827 N829 1.384 . S
N828 C824 1.427 . S
N828 C825 1.384 . S
N829 C821 1.427 . S
N829 C827 1.384 . S
H830 C836 0.930 . S
H831 C840 0.930 . S
H832 C845 0.929 . S
H833 C843 0.929 . S
H834 C838 0.929 . S
H835 C844 0.929 . S
C836 H830 0.930 . S
C836 C837 1.367 . S
C836 C844 1.378 . S
C837 C836 1.367 . S
C837 C845 1.433 1_554 S
C838 H834 0.929 . S
C838 C840 1.378 . S
C838 C842 1.350 . S
C839 C842 1.463 1_554 S
C839 C844 1.350 . S
C839 N847 1.427 1_554 S
C840 H831 0.930 . S
C840 C838 1.378 . S
C840 C841 1.367 . S
C841 C840 1.367 . S
C841 C843 1.433 1_556 S
C842 C838 1.350 . S
C842 C839 1.463 1_556 S
C842 N846 1.427 1_556 S
C843 H833 0.929 . S
C843 C841 1.433 1_554 S
C843 N846 1.384 . S
C844 H835 0.929 . S
C844 C836 1.378 . S
C844 C839 1.350 . S
C845 H832 0.929 . S
C845 C837 1.433 1_556 S
C845 N847 1.384 . S
N846 C842 1.427 1_554 S
N846 C843 1.384 . S
N847 C839 1.427 1_556 S
N847 C845 1.384 . S
H848 C854 0.930 . S
H849 C858 0.930 . S
H850 C863 0.929 . S
H851 C861 0.929 . S
H852 C856 0.929 . S
H853 C862 0.929 . S
C854 H848 0.930 . S
C854 C855 1.367 . S
C854 C862 1.378 . S
C855 C854 1.367 . S
C855 C863 1.433 . S
C856 H852 0.929 . S
C856 C858 1.378 . S
C856 C860 1.350 . S
C857 C860 1.463 . S
C857 C862 1.350 . S
C857 N865 1.427 . S
C858 H849 0.930 . S
C858 C856 1.378 . S
C858 C859 1.367 . S
C859 C858 1.367 . S
C859 C861 1.433 . S
C860 C856 1.350 . S
C860 C857 1.463 . S
C860 N864 1.427 . S
C861 H851 0.929 . S
C861 C859 1.433 . S
C861 N864 1.384 . S
C862 H853 0.929 . S
C862 C854 1.378 . S
C862 C857 1.350 . S
C863 H850 0.929 . S
C863 C855 1.433 . S
C863 N865 1.384 . S
N864 C860 1.427 . S
N864 C861 1.384 . S
N865 C857 1.427 . S
N865 C863 1.384 . S
H866 C872 0.930 . S
H867 C876 0.930 . S
H868 C881 0.929 . S
H869 C879 0.929 . S
H870 C874 0.929 . S
H871 C880 0.929 . S
C872 H866 0.930 . S
C872 C873 1.367 . S
C872 C880 1.378 . S
C873 C872 1.367 . S
C873 C881 1.433 1_556 S
C874 H870 0.929 . S
C874 C876 1.378 . S
C874 C878 1.350 . S
C875 C878 1.463 1_556 S
C875 C880 1.350 . S
C875 N883 1.427 1_556 S
C876 H867 0.930 . S
C876 C874 1.378 . S
C876 C877 1.367 . S
C877 C876 1.367 . S
C877 C879 1.433 1_554 S
C878 C874 1.350 . S
C878 C875 1.463 1_554 S
C878 N882 1.427 1_554 S
C879 H869 0.929 . S
C879 C877 1.433 1_556 S
C879 N882 1.384 . S
C880 H871 0.929 . S
C880 C872 1.378 . S
C880 C875 1.350 . S
C881 H868 0.929 . S
C881 C873 1.433 1_554 S
C881 N883 1.384 . S
N882 C878 1.427 1_556 S
N882 C879 1.384 . S
N883 C875 1.427 1_554 S
N883 C881 1.384 . S
H884 C890 0.930 . S
H885 C894 0.930 . S
H886 C899 0.929 . S
H887 C897 0.929 . S
H888 C892 0.929 . S
H889 C898 0.929 . S
C890 H884 0.930 . S
C890 C891 1.367 . S
C890 C898 1.378 . S
C891 C890 1.367 . S
C891 C899 1.433 . S
C892 H888 0.929 . S
C892 C894 1.378 . S
C892 C896 1.350 . S
C893 C896 1.463 . S
C893 C898 1.350 . S
C893 N901 1.427 . S
C894 H885 0.930 . S
C894 C892 1.378 . S
C894 C895 1.367 . S
C895 C894 1.367 . S
C895 C897 1.433 . S
C896 C892 1.350 . S
C896 C893 1.463 . S
C896 N900 1.427 . S
C897 H887 0.929 . S
C897 C895 1.433 . S
C897 N900 1.384 . S
C898 H889 0.929 . S
C898 C890 1.378 . S
C898 C893 1.350 . S
C899 H886 0.929 . S
C899 C891 1.433 . S
C899 N901 1.384 . S
N900 C896 1.427 . S
N900 C897 1.384 . S
N901 C893 1.427 . S
N901 C899 1.384 . S
H902 C908 0.930 . S
H903 C912 0.930 . S
H904 C917 0.929 . S
H905 C915 0.929 . S
H906 C910 0.929 . S
H907 C916 0.929 . S
C908 H902 0.930 . S
C908 C909 1.367 . S
C908 C916 1.378 . S
C909 C908 1.367 . S
C909 C917 1.433 . S
C910 H906 0.929 . S
C910 C912 1.378 . S
C910 C914 1.350 . S
C911 C914 1.463 . S
C911 C916 1.350 . S
C911 N919 1.427 . S
C912 H903 0.930 . S
C912 C910 1.378 . S
C912 C913 1.367 . S
C913 C912 1.367 . S
C913 C915 1.433 . S
C914 C910 1.350 . S
C914 C911 1.463 . S
C914 N918 1.427 . S
C915 H905 0.929 . S
C915 C913 1.433 . S
C915 N918 1.384 . S
C916 H907 0.929 . S
C916 C908 1.378 . S
C916 C911 1.350 . S
C917 H904 0.929 . S
C917 C909 1.433 . S
C917 N919 1.384 . S
N918 C914 1.427 . S
N918 C915 1.384 . S
N919 C911 1.427 . S
N919 C917 1.384 . S
H920 C926 0.930 . S
H921 C930 0.930 . S
H922 C935 0.929 . S
H923 C933 0.929 . S
H924 C928 0.929 . S
H925 C934 0.929 . S
C926 H920 0.930 . S
C926 C927 1.367 . S
C926 C934 1.378 . S
C927 C926 1.367 . S
C927 C935 1.433 . S
C928 H924 0.929 . S
C928 C930 1.378 . S
C928 C932 1.350 . S
C929 C932 1.463 . S
C929 C934 1.350 . S
C929 N937 1.427 . S
C930 H921 0.930 . S
C930 C928 1.378 . S
C930 C931 1.367 . S
C931 C930 1.367 . S
C931 C933 1.433 . S
C932 C928 1.350 . S
C932 C929 1.463 . S
C932 N936 1.427 . S
C933 H923 0.929 . S
C933 C931 1.433 . S
C933 N936 1.384 . S
C934 H925 0.929 . S
C934 C926 1.378 . S
C934 C929 1.350 . S
C935 H922 0.929 . S
C935 C927 1.433 . S
C935 N937 1.384 . S
N936 C932 1.427 . S
N936 C933 1.384 . S
N937 C929 1.427 . S
N937 C935 1.384 . S
H938 C944 0.930 . S
H939 C948 0.930 . S
H940 C953 0.929 . S
H941 C951 0.929 . S
H942 C946 0.929 . S
H943 C952 0.929 . S
C944 H938 0.930 . S
C944 C945 1.367 . S
C944 C952 1.378 . S
C945 C944 1.367 . S
C945 C953 1.433 . S
C946 H942 0.929 . S
C946 C948 1.378 . S
C946 C950 1.350 . S
C947 C950 1.463 1_554 S
C947 C952 1.350 . S
C947 N955 1.427 . S
C948 H939 0.930 . S
C948 C946 1.378 . S
C948 C949 1.367 . S
C949 C948 1.367 . S
C949 C951 1.433 . S
C950 C946 1.350 . S
C950 C947 1.463 1_556 S
C950 N954 1.427 . S
C951 H941 0.929 . S
C951 C949 1.433 . S
C951 N954 1.384 . S
C952 H943 0.929 . S
C952 C944 1.378 . S
C952 C947 1.350 . S
C953 H940 0.929 . S
C953 C945 1.433 . S
C953 N955 1.384 . S
N954 C950 1.427 . S
N954 C951 1.384 . S
N955 C947 1.427 . S
N955 C953 1.384 . S
H956 C962 0.930 . S
H957 C966 0.930 . S
H958 C971 0.929 . S
H959 C969 0.929 . S
H960 C964 0.929 . S
H961 C970 0.929 . S
C962 H956 0.930 . S
C962 C963 1.367 . S
C962 C970 1.378 . S
C963 C962 1.367 . S
C963 C971 1.433 . S
C964 H960 0.929 . S
C964 C966 1.378 . S
C964 C968 1.350 . S
C965 C968 1.463 . S
C965 C970 1.350 . S
C965 N973 1.427 . S
C966 H957 0.930 . S
C966 C964 1.378 . S
C966 C967 1.367 . S
C967 C966 1.367 . S
C967 C969 1.433 . S
C968 C964 1.350 . S
C968 C965 1.463 . S
C968 N972 1.427 . S
C969 H959 0.929 . S
C969 C967 1.433 . S
C969 N972 1.384 . S
C970 H961 0.929 . S
C970 C962 1.378 . S
C970 C965 1.350 . S
C971 H958 0.929 . S
C971 C963 1.433 . S
C971 N973 1.384 . S
N972 C968 1.427 . S
N972 C969 1.384 . S
N973 C965 1.427 . S
N973 C971 1.384 . S
H974 C980 0.930 . S
H975 C984 0.930 . S
H976 C989 0.929 . S
H977 C987 0.929 . S
H978 C982 0.929 . S
H979 C988 0.929 . S
C980 H974 0.930 . S
C980 C981 1.367 . S
C980 C988 1.378 . S
C981 C980 1.367 . S
C981 C989 1.433 . S
C982 H978 0.929 . S
C982 C984 1.378 . S
C982 C986 1.350 . S
C983 C986 1.463 . S
C983 C988 1.350 . S
C983 N991 1.427 . S
C984 H975 0.930 . S
C984 C982 1.378 . S
C984 C985 1.367 . S
C985 C984 1.367 . S
C985 C987 1.433 . S
C986 C982 1.350 . S
C986 C983 1.463 . S
C986 N990 1.427 . S
C987 H977 0.929 . S
C987 C985 1.433 . S
C987 N990 1.384 . S
C988 H979 0.929 . S
C988 C980 1.378 . S
C988 C983 1.350 . S
C989 H976 0.929 . S
C989 C981 1.433 . S
C989 N991 1.384 . S
N990 C986 1.427 . S
N990 C987 1.384 . S
N991 C983 1.427 . S
N991 C989 1.384 . S
H992 C998 0.930 . S
H993 C1002 0.930 . S
H994 C1007 0.929 . S
H995 C1005 0.929 . S
H996 C1000 0.910 1_455 S
H997 C1006 0.929 . S
C998 H992 0.930 . S
C998 C999 1.367 1_655 S
C998 C1006 1.378 . S
C999 C998 1.367 1_455 S
C999 C1007 1.433 . S
C1000 H996 0.910 1_655 S
C1000 C1002 1.378 . S
C1000 C1004 1.350 1_556 S
C1001 C1004 1.463 . S
C1001 C1006 1.350 . S
C1001 N1009 1.427 1_655 S
C1002 H993 0.930 . S
C1002 C1000 1.378 . S
C1002 C1003 1.367 . S
C1003 C1002 1.367 . S
C1003 C1005 1.433 . S
C1004 C1000 1.350 1_554 S
C1004 C1001 1.463 . S
C1004 N1008 1.427 . S
C1005 H995 0.929 . S
C1005 C1003 1.433 . S
C1005 N1008 1.384 1_556 S
C1006 H997 0.929 . S
C1006 C998 1.378 . S
C1006 C1001 1.350 . S
C1007 H994 0.929 . S
C1007 C999 1.433 . S
C1007 N1009 1.384 . S
N1008 C1004 1.427 . S
N1008 C1005 1.384 1_554 S
N1009 C1001 1.427 1_455 S
N1009 C1007 1.384 . S
H1010 C1016 0.930 . S
H1011 C1020 0.930 . S
H1012 C1025 0.929 . S
H1013 C1023 0.929 . S
H1014 C1018 0.929 . S
H1015 C1024 0.929 . S
C1016 H1010 0.930 . S
C1016 C1017 1.367 . S
C1016 C1024 1.378 . S
C1017 C1016 1.367 . S
C1017 C1025 1.433 . S
C1018 H1014 0.929 . S
C1018 C1020 1.378 . S
C1018 C1022 1.350 . S
C1019 C1022 1.463 . S
C1019 C1024 1.350 . S
C1019 N1027 1.427 . S
C1020 H1011 0.930 . S
C1020 C1018 1.378 . S
C1020 C1021 1.367 . S
C1021 C1020 1.367 . S
C1021 C1023 1.433 . S
C1022 C1018 1.350 . S
C1022 C1019 1.463 . S
C1022 N1026 1.427 . S
C1023 H1013 0.929 . S
C1023 C1021 1.433 . S
C1023 N1026 1.384 . S
C1024 H1015 0.929 . S
C1024 C1016 1.378 . S
C1024 C1019 1.350 . S
C1025 H1012 0.929 . S
C1025 C1017 1.433 . S
C1025 N1027 1.384 . S
N1026 C1022 1.427 . S
N1026 C1023 1.384 . S
N1027 C1019 1.427 . S
N1027 C1025 1.384 . S
H1028 C1034 0.930 . S
H1029 C1038 0.930 . S
H1030 C1043 0.929 . S
H1031 C1041 0.929 . S
H1032 C1036 0.929 . S
H1033 C1042 0.929 . S
C1034 H1028 0.930 . S
C1034 C1035 1.367 . S
C1034 C1042 1.378 . S
C1035 C1034 1.367 . S
C1035 C1043 1.433 . S
C1036 H1032 0.929 . S
C1036 C1038 1.378 . S
C1036 C1040 1.350 . S
C1037 C1040 1.463 . S
C1037 C1042 1.350 . S
C1037 N1045 1.427 . S
C1038 H1029 0.930 . S
C1038 C1036 1.378 . S
C1038 C1039 1.367 . S
C1039 C1038 1.367 . S
C1039 C1041 1.433 . S
C1040 C1036 1.350 . S
C1040 C1037 1.463 . S
C1040 N1044 1.427 . S
C1041 H1031 0.929 . S
C1041 C1039 1.433 . S
C1041 N1044 1.384 . S
C1042 H1033 0.929 . S
C1042 C1034 1.378 . S
C1042 C1037 1.350 . S
C1043 H1030 0.929 . S
C1043 C1035 1.433 . S
C1043 N1045 1.384 . S
N1044 C1040 1.427 . S
N1044 C1041 1.384 . S
N1045 C1037 1.427 . S
N1045 C1043 1.384 . S
H1046 C1052 0.930 . S
H1047 C1056 0.930 . S
H1048 C1061 0.929 . S
H1049 C1059 0.929 . S
H1050 C1054 0.929 . S
H1051 C1060 0.929 . S
C1052 H1046 0.930 . S
C1052 C1053 1.367 . S
C1052 C1060 1.378 . S
C1053 C1052 1.367 . S
C1053 C1061 1.433 . S
C1054 H1050 0.929 . S
C1054 C1056 1.378 . S
C1054 C1058 1.350 . S
C1055 C1058 1.463 . S
C1055 C1060 1.350 . S
C1055 N1063 1.427 . S
C1056 H1047 0.930 . S
C1056 C1054 1.378 . S
C1056 C1057 1.367 . S
C1057 C1056 1.367 . S
C1057 C1059 1.433 . S
C1058 C1054 1.350 . S
C1058 C1055 1.463 . S
C1058 N1062 1.427 . S
C1059 H1049 0.929 . S
C1059 C1057 1.433 . S
C1059 N1062 1.384 . S
C1060 H1051 0.929 . S
C1060 C1052 1.378 . S
C1060 C1055 1.350 . S
C1061 H1048 0.929 . S
C1061 C1053 1.433 . S
C1061 N1063 1.384 . S
N1062 C1058 1.427 . S
N1062 C1059 1.384 . S
N1063 C1055 1.427 . S
N1063 C1061 1.384 . S
H1064 C1070 0.930 . S
H1065 C1074 0.930 . S
H1066 C1079 0.929 . S
H1067 C1077 0.929 . S
H1068 C1072 0.929 . S
H1069 C1078 0.929 . S
C1070 H1064 0.930 . S
C1070 C1071 1.367 . S
C1070 C1078 1.378 . S
C1071 C1070 1.367 . S
C1071 C1079 1.433 . S
C1072 H1068 0.929 . S
C1072 C1074 1.378 1_655 S
C1072 C1076 1.350 . S
C1073 C1076 1.463 . S
C1073 C1078 1.350 . S
C1073 N1081 1.427 . S
C1074 H1065 0.930 . S
C1074 C1072 1.378 1_455 S
C1074 C1075 1.367 . S
C1075 C1074 1.367 . S
C1075 C1077 1.433 . S
C1076 C1072 1.350 . S
C1076 C1073 1.463 . S
C1076 N1080 1.427 . S
C1077 H1067 0.929 . S
C1077 C1075 1.433 . S
C1077 N1080 1.384 1_455 S
C1078 H1069 0.929 . S
C1078 C1070 1.378 . S
C1078 C1073 1.350 . S
C1079 H1066 0.929 . S
C1079 C1071 1.433 . S
C1079 N1081 1.384 . S
N1080 C1076 1.427 . S
N1080 C1077 1.384 1_655 S
N1081 C1073 1.427 . S
N1081 C1079 1.384 . S
H1082 C1088 0.930 . S
H1083 C1092 0.930 . S
H1084 C1097 0.929 . S
H1085 C1095 0.929 . S
H1086 C1090 0.929 . S
H1087 C1096 0.929 . S
C1088 H1082 0.930 . S
C1088 C1089 1.367 . S
C1088 C1096 1.378 . S
C1089 C1088 1.367 . S
C1089 C1097 1.433 . S
C1090 H1086 0.929 . S
C1090 C1092 1.378 . S
C1090 C1094 1.350 . S
C1091 C1094 1.463 . S
C1091 C1096 1.350 . S
C1091 N1099 1.427 . S
C1092 H1083 0.930 . S
C1092 C1090 1.378 . S
C1092 C1093 1.367 . S
C1093 C1092 1.367 . S
C1093 C1095 1.433 . S
C1094 C1090 1.350 . S
C1094 C1091 1.463 . S
C1094 N1098 1.427 . S
C1095 H1085 0.929 . S
C1095 C1093 1.433 . S
C1095 N1098 1.384 . S
C1096 H1087 0.929 . S
C1096 C1088 1.378 . S
C1096 C1091 1.350 . S
C1097 H1084 0.929 . S
C1097 C1089 1.433 . S
C1097 N1099 1.384 . S
N1098 C1094 1.427 . S
N1098 C1095 1.384 . S
N1099 C1091 1.427 . S
N1099 C1097 1.384 . S
H1100 C1106 0.930 . S
H1101 C1110 0.930 . S
H1102 C1115 0.929 . S
H1103 C1113 0.929 . S
H1104 C1108 0.929 . S
H1105 C1114 0.929 . S
C1106 H1100 0.930 . S
C1106 C1107 1.367 . S
C1106 C1114 1.378 1_554 S
C1107 C1106 1.367 . S
C1107 C1115 1.433 . S
C1108 H1104 0.929 . S
C1108 C1110 1.378 . S
C1108 C1112 1.350 . S
C1109 C1112 1.463 . S
C1109 C1114 1.350 . S
C1109 N1117 1.427 . S
C1110 H1101 0.930 . S
C1110 C1108 1.378 . S
C1110 C1111 1.367 . S
C1111 C1110 1.367 . S
C1111 C1113 1.433 . S
C1112 C1108 1.350 . S
C1112 C1109 1.463 . S
C1112 N1116 1.427 . S
C1113 H1103 0.929 . S
C1113 C1111 1.433 . S
C1113 N1116 1.384 . S
C1114 H1105 0.929 . S
C1114 C1106 1.378 1_556 S
C1114 C1109 1.350 . S
C1115 H1102 0.929 . S
C1115 C1107 1.433 . S
C1115 N1117 1.384 1_554 S
N1116 C1112 1.427 . S
N1116 C1113 1.384 . S
N1117 C1109 1.427 . S
N1117 C1115 1.384 1_556 S
H1118 C1124 0.930 . S
H1119 C1128 0.930 . S
H1120 C1133 0.929 . S
H1121 C1131 0.929 . S
H1122 C1126 0.929 . S
H1123 C1132 0.929 . S
C1124 H1118 0.930 . S
C1124 C1125 1.367 . S
C1124 C1132 1.378 . S
C1125 C1124 1.367 . S
C1125 C1133 1.433 . S
C1126 H1122 0.929 . S
C1126 C1128 1.378 . S
C1126 C1130 1.350 . S
C1127 C1130 1.463 . S
C1127 C1132 1.350 . S
C1127 N1135 1.427 . S
C1128 H1119 0.930 . S
C1128 C1126 1.378 . S
C1128 C1129 1.367 . S
C1129 C1128 1.367 . S
C1129 C1131 1.433 . S
C1130 C1126 1.350 . S
C1130 C1127 1.463 . S
C1130 N1134 1.427 . S
C1131 H1121 0.929 . S
C1131 C1129 1.433 . S
C1131 N1134 1.384 . S
C1132 H1123 0.929 . S
C1132 C1124 1.378 . S
C1132 C1127 1.350 . S
C1133 H1120 0.929 . S
C1133 C1125 1.433 . S
C1133 N1135 1.384 . S
N1134 C1130 1.427 . S
N1134 C1131 1.384 . S
N1135 C1127 1.427 . S
N1135 C1133 1.384 . S
H1136 C1142 0.930 . S
H1137 C1146 0.933 . S
H1138 C1151 0.929 . S
H1139 C1149 0.929 . S
H1140 C1144 0.929 . S
H1141 C1150 0.928 . S
C1142 H1136 0.930 . S
C1142 C1143 1.367 . S
C1142 C1150 1.379 1_554 S
C1143 C1142 1.367 . S
C1143 C1151 1.433 . S
C1144 H1140 0.929 . S
C1144 C1146 1.364 1_455 S
C1144 C1148 1.350 . S
C1145 C1148 1.463 . S
C1145 C1150 1.349 . S
C1145 N1153 1.427 . S
C1146 H1137 0.933 . S
C1146 C1144 1.364 1_655 S
C1146 C1147 1.380 . S
C1147 C1146 1.380 . S
C1147 C1149 1.433 . S
C1148 C1144 1.350 . S
C1148 C1145 1.463 . S
C1148 N1152 1.427 . S
C1149 H1139 0.929 . S
C1149 C1147 1.433 . S
C1149 N1152 1.384 1_655 S
C1150 H1141 0.928 . S
C1150 C1142 1.379 1_556 S
C1150 C1145 1.349 . S
C1151 H1138 0.929 . S
C1151 C1143 1.433 . S
C1151 N1153 1.384 1_554 S
N1152 C1148 1.427 . S
N1152 C1149 1.384 1_455 S
N1153 C1145 1.427 . S
N1153 C1151 1.384 1_556 S
H1154 C1160 0.930 . S
H1155 C1164 0.930 . S
H1156 C1169 0.929 . S
H1157 C1167 0.929 . S
H1158 C1162 0.929 . S
H1159 C1168 0.929 . S
C1160 H1154 0.930 . S
C1160 C1161 1.367 . S
C1160 C1168 1.378 . S
C1161 C1160 1.367 . S
C1161 C1169 1.433 . S
C1162 H1158 0.929 . S
C1162 C1164 1.378 . S
C1162 C1166 1.350 . S
C1163 C1166 1.463 . S
C1163 C1168 1.350 . S
C1163 N1171 1.427 . S
C1164 H1155 0.930 . S
C1164 C1162 1.378 . S
C1164 C1165 1.367 . S
C1165 C1164 1.367 . S
C1165 C1167 1.433 . S
C1166 C1162 1.350 . S
C1166 C1163 1.463 . S
C1166 N1170 1.427 . S
C1167 H1157 0.929 . S
C1167 C1165 1.433 . S
C1167 N1170 1.384 . S
C1168 H1159 0.929 . S
C1168 C1160 1.378 . S
C1168 C1163 1.350 . S
C1169 H1156 0.929 . S
C1169 C1161 1.433 . S
C1169 N1171 1.384 . S
N1170 C1166 1.427 . S
N1170 C1167 1.384 . S
N1171 C1163 1.427 . S
N1171 C1169 1.384 . S
H1172 C1178 0.930 . S
H1173 C1182 0.930 . S
H1174 C1187 0.929 . S
H1175 C1185 0.929 . S
H1176 C1180 0.929 . S
H1177 C1186 0.929 . S
C1178 H1172 0.930 . S
C1178 C1179 1.367 . S
C1178 C1186 1.378 . S
C1179 C1178 1.367 . S
C1179 C1187 1.433 . S
C1180 H1176 0.929 . S
C1180 C1182 1.378 . S
C1180 C1184 1.350 . S
C1181 C1184 1.463 . S
C1181 C1186 1.350 . S
C1181 N1189 1.427 . S
C1182 H1173 0.930 . S
C1182 C1180 1.378 . S
C1182 C1183 1.367 . S
C1183 C1182 1.367 . S
C1183 C1185 1.433 . S
C1184 C1180 1.350 . S
C1184 C1181 1.463 . S
C1184 N1188 1.427 . S
C1185 H1175 0.929 . S
C1185 C1183 1.433 . S
C1185 N1188 1.384 . S
C1186 H1177 0.929 . S
C1186 C1178 1.378 . S
C1186 C1181 1.350 . S
C1187 H1174 0.929 . S
C1187 C1179 1.433 . S
C1187 N1189 1.384 . S
N1188 C1184 1.427 . S
N1188 C1185 1.384 . S
N1189 C1181 1.427 . S
N1189 C1187 1.384 . S
H1190 C1196 0.930 . S
H1191 C1200 0.930 . S
H1192 C1205 0.929 . S
H1193 C1203 0.929 . S
H1194 C1198 0.929 . S
H1195 C1204 0.929 . S
C1196 H1190 0.930 . S
C1196 C1197 1.367 . S
C1196 C1204 1.378 . S
C1197 C1196 1.367 . S
C1197 C1205 1.433 . S
C1198 H1194 0.929 . S
C1198 C1200 1.378 . S
C1198 C1202 1.350 . S
C1199 C1202 1.463 . S
C1199 C1204 1.350 . S
C1199 N1207 1.427 . S
C1200 H1191 0.930 . S
C1200 C1198 1.378 . S
C1200 C1201 1.367 . S
C1201 C1200 1.367 . S
C1201 C1203 1.433 . S
C1202 C1198 1.350 . S
C1202 C1199 1.463 . S
C1202 N1206 1.427 . S
C1203 H1193 0.929 . S
C1203 C1201 1.433 . S
C1203 N1206 1.384 . S
C1204 H1195 0.929 . S
C1204 C1196 1.378 . S
C1204 C1199 1.350 . S
C1205 H1192 0.929 . S
C1205 C1197 1.433 . S
C1205 N1207 1.384 . S
N1206 C1202 1.427 . S
N1206 C1203 1.384 . S
N1207 C1199 1.427 . S
N1207 C1205 1.384 . S
H1208 C1214 0.930 . S
H1209 C1218 0.930 . S
H1210 C1223 0.929 . S
H1211 C1221 0.929 . S
H1212 C1216 0.929 . S
H1213 C1222 0.929 . S
C1214 H1208 0.930 . S
C1214 C1215 1.367 . S
C1214 C1222 1.378 . S
C1215 C1214 1.367 . S
C1215 C1223 1.433 . S
C1216 H1212 0.929 . S
C1216 C1218 1.378 . S
C1216 C1220 1.350 1_655 S
C1217 C1220 1.463 . S
C1217 C1222 1.350 . S
C1217 N1225 1.427 . S
C1218 H1209 0.930 . S
C1218 C1216 1.378 . S
C1218 C1219 1.367 . S
C1219 C1218 1.367 . S
C1219 C1221 1.433 1_655 S
C1220 C1216 1.350 1_455 S
C1220 C1217 1.463 . S
C1220 N1224 1.427 . S
C1221 H1211 0.929 . S
C1221 C1219 1.433 1_455 S
C1221 N1224 1.384 . S
C1222 H1213 0.929 . S
C1222 C1214 1.378 . S
C1222 C1217 1.350 . S
C1223 H1210 0.929 . S
C1223 C1215 1.433 . S
C1223 N1225 1.384 . S
N1224 C1220 1.427 . S
N1224 C1221 1.384 . S
N1225 C1217 1.427 . S
N1225 C1223 1.384 . S
H1226 C1232 0.930 . S
H1227 C1236 0.930 . S
H1228 C1241 0.929 . S
H1229 C1239 0.929 . S
H1230 C1234 0.929 . S
H1231 C1240 0.929 . S
C1232 H1226 0.930 . S
C1232 C1233 1.367 . S
C1232 C1240 1.378 . S
C1233 C1232 1.367 . S
C1233 C1241 1.433 . S
C1234 H1230 0.929 . S
C1234 C1236 1.378 . S
C1234 C1238 1.350 . S
C1235 C1238 1.463 . S
C1235 C1240 1.350 . S
C1235 N1243 1.427 . S
C1236 H1227 0.930 . S
C1236 C1234 1.378 . S
C1236 C1237 1.367 . S
C1237 C1236 1.367 . S
C1237 C1239 1.433 . S
C1238 C1234 1.350 . S
C1238 C1235 1.463 . S
C1238 N1242 1.427 . S
C1239 H1229 0.929 . S
C1239 C1237 1.433 . S
C1239 N1242 1.384 . S
C1240 H1231 0.929 . S
C1240 C1232 1.378 . S
C1240 C1235 1.350 . S
C1241 H1228 0.929 . S
C1241 C1233 1.433 . S
C1241 N1243 1.384 . S
N1242 C1238 1.427 . S
N1242 C1239 1.384 . S
N1243 C1235 1.427 . S
N1243 C1241 1.384 . S
H1244 C1250 0.930 . S
H1245 C1254 0.930 . S
H1246 C1259 0.929 . S
H1247 C1257 0.929 . S
H1248 C1252 0.929 . S
H1249 C1258 0.929 . S
C1250 H1244 0.930 . S
C1250 C1251 1.367 . S
C1250 C1258 1.378 . S
C1251 C1250 1.367 . S
C1251 C1259 1.433 . S
C1252 H1248 0.929 . S
C1252 C1254 1.378 1_554 S
C1252 C1256 1.350 . S
C1253 C1256 1.463 . S
C1253 C1258 1.350 . S
C1253 N1261 1.427 . S
C1254 H1245 0.930 . S
C1254 C1252 1.378 1_556 S
C1254 C1255 1.367 . S
C1255 C1254 1.367 . S
C1255 C1257 1.433 . S
C1256 C1252 1.350 . S
C1256 C1253 1.463 . S
C1256 N1260 1.427 . S
C1257 H1247 0.929 . S
C1257 C1255 1.433 . S
C1257 N1260 1.384 1_556 S
C1258 H1249 0.929 . S
C1258 C1250 1.378 . S
C1258 C1253 1.350 . S
C1259 H1246 0.929 . S
C1259 C1251 1.433 . S
C1259 N1261 1.384 . S
N1260 C1256 1.427 . S
N1260 C1257 1.384 1_554 S
N1261 C1253 1.427 . S
N1261 C1259 1.384 . S
H1262 C1268 0.930 . S
H1263 C1272 0.930 . S
H1264 C1277 0.929 . S
H1265 C1275 0.929 . S
H1266 C1270 0.929 . S
H1267 C1276 0.929 . S
C1268 H1262 0.930 . S
C1268 C1269 1.367 . S
C1268 C1276 1.378 . S
C1269 C1268 1.367 . S
C1269 C1277 1.433 . S
C1270 H1266 0.929 . S
C1270 C1272 1.378 . S
C1270 C1274 1.350 . S
C1271 C1274 1.463 . S
C1271 C1276 1.350 . S
C1271 N1279 1.427 . S
C1272 H1263 0.930 . S
C1272 C1270 1.378 . S
C1272 C1273 1.367 . S
C1273 C1272 1.367 . S
C1273 C1275 1.433 . S
C1274 C1270 1.350 . S
C1274 C1271 1.463 . S
C1274 N1278 1.427 . S
C1275 H1265 0.929 . S
C1275 C1273 1.433 . S
C1275 N1278 1.384 . S
C1276 H1267 0.929 . S
C1276 C1268 1.378 . S
C1276 C1271 1.350 . S
C1277 H1264 0.929 . S
C1277 C1269 1.433 . S
C1277 N1279 1.384 . S
N1278 C1274 1.427 . S
N1278 C1275 1.384 . S
N1279 C1271 1.427 . S
N1279 C1277 1.384 . S
H1280 C1286 0.930 . S
H1281 C1290 0.930 . S
H1282 C1295 0.929 . S
H1283 C1293 0.929 . S
H1284 C1288 0.929 . S
H1285 C1294 0.929 . S
C1286 H1280 0.930 . S
C1286 C1287 1.367 . S
C1286 C1294 1.378 . S
C1287 C1286 1.367 . S
C1287 C1295 1.433 . S
C1288 H1284 0.929 . S
C1288 C1290 1.378 . S
C1288 C1292 1.350 . S
C1289 C1292 1.463 . S
C1289 C1294 1.350 . S
C1289 N1297 1.427 . S
C1290 H1281 0.930 . S
C1290 C1288 1.378 . S
C1290 C1291 1.367 . S
C1291 C1290 1.367 . S
C1291 C1293 1.433 . S
C1292 C1288 1.350 . S
C1292 C1289 1.463 . S
C1292 N1296 1.427 . S
C1293 H1283 0.929 . S
C1293 C1291 1.433 . S
C1293 N1296 1.384 . S
C1294 H1285 0.929 . S
C1294 C1286 1.378 . S
C1294 C1289 1.350 . S
C1295 H1282 0.929 . S
C1295 C1287 1.433 . S
C1295 N1297 1.384 . S
N1296 C1292 1.427 . S
N1296 C1293 1.384 . S
N1297 C1289 1.427 . S
N1297 C1295 1.384 . S
H1298 C1304 0.930 . S
H1299 C1308 0.930 . S
H1300 C1313 0.929 . S
H1301 C1311 0.929 . S
H1302 C1306 0.929 . S
H1303 C1312 0.929 . S
C1304 H1298 0.930 . S
C1304 C1305 1.367 . S
C1304 C1312 1.378 . S
C1305 C1304 1.367 . S
C1305 C1313 1.433 . S
C1306 H1302 0.929 . S
C1306 C1308 1.378 . S
C1306 C1310 1.350 . S
C1307 C1310 1.463 . S
C1307 C1312 1.350 . S
C1307 N1315 1.427 . S
C1308 H1299 0.930 . S
C1308 C1306 1.378 . S
C1308 C1309 1.367 . S
C1309 C1308 1.367 . S
C1309 C1311 1.433 . S
C1310 C1306 1.350 . S
C1310 C1307 1.463 . S
C1310 N1314 1.427 . S
C1311 H1301 0.929 . S
C1311 C1309 1.433 . S
C1311 N1314 1.384 . S
C1312 H1303 0.929 . S
C1312 C1304 1.378 . S
C1312 C1307 1.350 . S
C1313 H1300 0.929 . S
C1313 C1305 1.433 . S
C1313 N1315 1.384 . S
N1314 C1310 1.427 . S
N1314 C1311 1.384 . S
N1315 C1307 1.427 . S
N1315 C1313 1.384 . S
H1316 C1322 0.930 . S
H1317 C1326 0.930 . S
H1318 C1331 0.929 . S
H1319 C1329 0.929 . S
H1320 C1324 0.929 . S
H1321 C1330 0.929 . S
C1322 H1316 0.930 . S
C1322 C1323 1.367 . S
C1322 C1330 1.378 . S
C1323 C1322 1.367 . S
C1323 C1331 1.433 1_655 S
C1324 H1320 0.929 . S
C1324 C1326 1.378 1_554 S
C1324 C1328 1.350 . S
C1325 C1328 1.463 . S
C1325 C1330 1.350 1_455 S
C1325 N1333 1.427 . S
C1326 H1317 0.930 . S
C1326 C1324 1.378 1_556 S
C1326 C1327 1.367 . S
C1327 C1326 1.367 . S
C1327 C1329 1.433 . S
C1328 C1324 1.350 . S
C1328 C1325 1.463 . S
C1328 N1332 1.427 1_554 S
C1329 H1319 0.929 . S
C1329 C1327 1.433 . S
C1329 N1332 1.384 . S
C1330 H1321 0.929 . S
C1330 C1322 1.378 . S
C1330 C1325 1.350 1_655 S
C1331 H1318 0.929 . S
C1331 C1323 1.433 1_455 S
C1331 N1333 1.384 . S
N1332 C1328 1.427 1_556 S
N1332 C1329 1.384 . S
N1333 C1325 1.427 . S
N1333 C1331 1.384 . S
H1334 C1340 0.930 . S
H1335 C1344 0.930 . S
H1336 C1349 0.929 . S
H1337 C1347 0.929 . S
H1338 C1342 0.929 . S
H1339 C1348 0.929 . S
C1340 H1334 0.930 . S
C1340 C1341 1.367 . S
C1340 C1348 1.378 . S
C1341 C1340 1.367 . S
C1341 C1349 1.433 . S
C1342 H1338 0.929 . S
C1342 C1344 1.378 . S
C1342 C1346 1.350 . S
C1343 C1346 1.463 . S
C1343 C1348 1.350 . S
C1343 N1351 1.427 . S
C1344 H1335 0.930 . S
C1344 C1342 1.378 . S
C1344 C1345 1.367 . S
C1345 C1344 1.367 . S
C1345 C1347 1.433 . S
C1346 C1342 1.350 . S
C1346 C1343 1.463 . S
C1346 N1350 1.427 . S
C1347 H1337 0.929 . S
C1347 C1345 1.433 . S
C1347 N1350 1.384 . S
C1348 H1339 0.929 . S
C1348 C1340 1.378 . S
C1348 C1343 1.350 . S
C1349 H1336 0.929 . S
C1349 C1341 1.433 . S
C1349 N1351 1.384 . S
N1350 C1346 1.427 . S
N1350 C1347 1.384 . S
N1351 C1343 1.427 . S
N1351 C1349 1.384 . S
H1352 C1358 0.930 . S
H1353 C1362 0.930 . S
H1354 C1367 0.929 . S
H1355 C1365 0.929 . S
H1356 C1360 0.929 . S
H1357 C1366 0.930 . S
C1358 H1352 0.930 . S
C1358 C1359 1.367 . S
C1358 C1366 1.378 . S
C1359 C1358 1.367 . S
C1359 C1367 1.433 . S
C1360 H1356 0.929 . S
C1360 C1362 1.378 . S
C1360 C1364 1.350 . S
C1361 C1364 1.463 . S
C1361 C1366 1.350 1_556 S
C1361 N1369 1.427 . S
C1362 H1353 0.930 . S
C1362 C1360 1.378 . S
C1362 C1363 1.367 . S
C1363 C1362 1.367 . S
C1363 C1365 1.433 . S
C1364 C1360 1.350 . S
C1364 C1361 1.463 . S
C1364 N1368 1.427 . S
C1365 H1355 0.929 . S
C1365 C1363 1.433 . S
C1365 N1368 1.384 . S
C1366 H1357 0.930 . S
C1366 C1358 1.378 . S
C1366 C1361 1.350 1_554 S
C1367 H1354 0.929 . S
C1367 C1359 1.433 . S
C1367 N1369 1.384 1_554 S
N1368 C1364 1.427 . S
N1368 C1365 1.384 . S
N1369 C1361 1.427 . S
N1369 C1367 1.384 1_556 S
H1370 C1376 0.930 . S
H1371 C1380 0.930 . S
H1372 C1385 0.929 . S
H1373 C1383 0.929 . S
H1374 C1378 0.929 . S
H1375 C1384 0.929 . S
C1376 H1370 0.930 . S
C1376 C1377 1.367 . S
C1376 C1384 1.378 . S
C1377 C1376 1.367 . S
C1377 C1385 1.433 . S
C1378 H1374 0.929 . S
C1378 C1380 1.378 . S
C1378 C1382 1.350 . S
C1379 C1382 1.463 . S
C1379 C1384 1.350 . S
C1379 N1387 1.427 . S
C1380 H1371 0.930 . S
C1380 C1378 1.378 . S
C1380 C1381 1.367 . S
C1381 C1380 1.367 . S
C1381 C1383 1.433 . S
C1382 C1378 1.350 . S
C1382 C1379 1.463 . S
C1382 N1386 1.427 . S
C1383 H1373 0.929 . S
C1383 C1381 1.433 . S
C1383 N1386 1.384 . S
C1384 H1375 0.929 . S
C1384 C1376 1.378 . S
C1384 C1379 1.350 . S
C1385 H1372 0.929 . S
C1385 C1377 1.433 . S
C1385 N1387 1.384 . S
N1386 C1382 1.427 . S
N1386 C1383 1.384 . S
N1387 C1379 1.427 . S
N1387 C1385 1.384 . S
H1388 C1394 0.930 . S
H1389 C1398 0.930 . S
H1390 C1403 0.929 . S
H1391 C1401 0.929 . S
H1392 C1396 0.929 . S
H1393 C1402 0.929 1_655 S
C1394 H1388 0.930 . S
C1394 C1395 1.367 . S
C1394 C1402 1.378 . S
C1395 C1394 1.367 . S
C1395 C1403 1.433 . S
C1396 H1392 0.929 . S
C1396 C1398 1.378 . S
C1396 C1400 1.350 . S
C1397 C1400 1.463 . S
C1397 C1402 1.350 . S
C1397 N1405 1.427 . S
C1398 H1389 0.930 . S
C1398 C1396 1.378 . S
C1398 C1399 1.367 1_455 S
C1399 C1398 1.367 1_655 S
C1399 C1401 1.433 . S
C1400 C1396 1.350 . S
C1400 C1397 1.463 . S
C1400 N1404 1.427 1_455 S
C1401 H1391 0.929 . S
C1401 C1399 1.433 . S
C1401 N1404 1.384 . S
C1402 H1393 0.929 1_455 S
C1402 C1394 1.378 . S
C1402 C1397 1.350 . S
C1403 H1390 0.929 . S
C1403 C1395 1.433 . S
C1403 N1405 1.384 . S
N1404 C1400 1.427 1_655 S
N1404 C1401 1.384 . S
N1405 C1397 1.427 . S
N1405 C1403 1.384 . S
H1406 C1412 0.930 . S
H1407 C1416 0.930 . S
H1408 C1421 0.929 . S
H1409 C1419 0.929 . S
H1410 C1414 0.929 . S
H1411 C1420 0.929 . S
C1412 H1406 0.930 . S
C1412 C1413 1.367 . S
C1412 C1420 1.378 . S
C1413 C1412 1.367 . S
C1413 C1421 1.433 . S
C1414 H1410 0.929 . S
C1414 C1416 1.378 . S
C1414 C1418 1.350 . S
C1415 C1418 1.463 . S
C1415 C1420 1.350 . S
C1415 N1423 1.427 . S
C1416 H1407 0.930 . S
C1416 C1414 1.378 . S
C1416 C1417 1.367 . S
C1417 C1416 1.367 . S
C1417 C1419 1.433 . S
C1418 C1414 1.350 . S
C1418 C1415 1.463 . S
C1418 N1422 1.427 . S
C1419 H1409 0.929 . S
C1419 C1417 1.433 . S
C1419 N1422 1.384 . S
C1420 H1411 0.929 . S
C1420 C1412 1.378 . S
C1420 C1415 1.350 . S
C1421 H1408 0.929 . S
C1421 C1413 1.433 . S
C1421 N1423 1.384 . S
N1422 C1418 1.427 . S
N1422 C1419 1.384 . S
N1423 C1415 1.427 . S
N1423 C1421 1.384 . S
H1424 C1430 0.930 . S
H1425 C1434 0.930 . S
H1426 C1439 0.929 . S
H1427 C1437 0.929 . S
H1428 C1432 0.929 . S
H1429 C1438 0.929 . S
C1430 H1424 0.930 . S
C1430 C1431 1.367 . S
C1430 C1438 1.378 . S
C1431 C1430 1.367 . S
C1431 C1439 1.433 . S
C1432 H1428 0.929 . S
C1432 C1434 1.378 . S
C1432 C1436 1.350 . S
C1433 C1436 1.463 . S
C1433 C1438 1.350 . S
C1433 N1441 1.427 . S
C1434 H1425 0.930 . S
C1434 C1432 1.378 . S
C1434 C1435 1.367 . S
C1435 C1434 1.367 . S
C1435 C1437 1.433 . S
C1436 C1432 1.350 . S
C1436 C1433 1.463 . S
C1436 N1440 1.427 . S
C1437 H1427 0.929 . S
C1437 C1435 1.433 . S
C1437 N1440 1.384 . S
C1438 H1429 0.929 . S
C1438 C1430 1.378 . S
C1438 C1433 1.350 . S
C1439 H1426 0.929 . S
C1439 C1431 1.433 . S
C1439 N1441 1.384 . S
N1440 C1436 1.427 . S
N1440 C1437 1.384 . S
N1441 C1433 1.427 . S
N1441 C1439 1.384 . S
H1442 C1448 0.930 . S
H1443 C1452 0.930 . S
H1444 C1457 0.929 . S
H1445 C1455 0.929 . S
H1446 C1450 0.929 . S
H1447 C1456 0.929 . S
C1448 H1442 0.930 . S
C1448 C1449 1.367 . S
C1448 C1456 1.378 . S
C1449 C1448 1.367 . S
C1449 C1457 1.433 . S
C1450 H1446 0.929 . S
C1450 C1452 1.378 . S
C1450 C1454 1.350 . S
C1451 C1454 1.463 . S
C1451 C1456 1.350 . S
C1451 N1459 1.427 . S
C1452 H1443 0.930 . S
C1452 C1450 1.378 . S
C1452 C1453 1.367 . S
C1453 C1452 1.367 . S
C1453 C1455 1.433 . S
C1454 C1450 1.350 . S
C1454 C1451 1.463 . S
C1454 N1458 1.427 . S
C1455 H1445 0.929 . S
C1455 C1453 1.433 . S
C1455 N1458 1.384 . S
C1456 H1447 0.929 . S
C1456 C1448 1.378 . S
C1456 C1451 1.350 . S
C1457 H1444 0.929 . S
C1457 C1449 1.433 . S
C1457 N1459 1.384 . S
N1458 C1454 1.427 . S
N1458 C1455 1.384 . S
N1459 C1451 1.427 . S
N1459 C1457 1.384 . S
H1460 C1466 0.930 . S
H1461 C1470 0.930 . S
H1462 C1475 0.929 . S
H1463 C1473 0.929 . S
H1464 C1468 0.929 . S
H1465 C1474 0.929 . S
C1466 H1460 0.930 . S
C1466 C1467 1.367 . S
C1466 C1474 1.378 1_554 S
C1467 C1466 1.367 . S
C1467 C1475 1.433 . S
C1468 H1464 0.929 . S
C1468 C1470 1.378 . S
C1468 C1472 1.350 1_455 S
C1469 C1472 1.463 . S
C1469 C1474 1.350 . S
C1469 N1477 1.427 1_556 S
C1470 H1461 0.930 . S
C1470 C1468 1.378 . S
C1470 C1471 1.367 . S
C1471 C1470 1.367 . S
C1471 C1473 1.433 1_455 S
C1472 C1468 1.350 1_655 S
C1472 C1469 1.463 . S
C1472 N1476 1.427 . S
C1473 H1463 0.929 . S
C1473 C1471 1.433 1_655 S
C1473 N1476 1.384 . S
C1474 H1465 0.929 . S
C1474 C1466 1.378 1_556 S
C1474 C1469 1.350 . S
C1475 H1462 0.929 . S
C1475 C1467 1.433 . S
C1475 N1477 1.384 . S
N1476 C1472 1.427 . S
N1476 C1473 1.384 . S
N1477 C1469 1.427 1_554 S
N1477 C1475 1.384 . S
H1478 C1484 0.930 . S
H1479 C1488 0.930 . S
H1480 C1493 0.929 . S
H1481 C1491 0.929 . S
H1482 C1486 0.929 . S
H1483 C1492 0.929 . S
C1484 H1478 0.930 . S
C1484 C1485 1.367 . S
C1484 C1492 1.378 . S
C1485 C1484 1.367 . S
C1485 C1493 1.433 . S
C1486 H1482 0.929 . S
C1486 C1488 1.378 . S
C1486 C1490 1.350 . S
C1487 C1490 1.463 . S
C1487 C1492 1.350 . S
C1487 N1495 1.427 . S
C1488 H1479 0.930 . S
C1488 C1486 1.378 . S
C1488 C1489 1.367 . S
C1489 C1488 1.367 . S
C1489 C1491 1.433 . S
C1490 C1486 1.350 . S
C1490 C1487 1.463 . S
C1490 N1494 1.427 . S
C1491 H1481 0.929 . S
C1491 C1489 1.433 . S
C1491 N1494 1.384 . S
C1492 H1483 0.929 . S
C1492 C1484 1.378 . S
C1492 C1487 1.350 . S
C1493 H1480 0.929 . S
C1493 C1485 1.433 . S
C1493 N1495 1.384 . S
N1494 C1490 1.427 . S
N1494 C1491 1.384 . S
N1495 C1487 1.427 . S
N1495 C1493 1.384 . S
H1496 C1502 0.930 . S
H1497 C1506 0.930 . S
H1498 C1511 0.929 . S
H1499 C1509 0.929 . S
H1500 C1504 0.929 . S
H1501 C1510 0.929 . S
C1502 H1496 0.930 . S
C1502 C1503 1.367 . S
C1502 C1510 1.378 1_556 S
C1503 C1502 1.367 . S
C1503 C1511 1.433 . S
C1504 H1500 0.929 . S
C1504 C1506 1.378 . S
C1504 C1508 1.350 . S
C1505 C1508 1.463 . S
C1505 C1510 1.350 . S
C1505 N1513 1.427 1_554 S
C1506 H1497 0.930 . S
C1506 C1504 1.378 . S
C1506 C1507 1.367 . S
C1507 C1506 1.367 . S
C1507 C1509 1.433 . S
C1508 C1504 1.350 . S
C1508 C1505 1.463 . S
C1508 N1512 1.427 . S
C1509 H1499 0.929 . S
C1509 C1507 1.433 . S
C1509 N1512 1.384 . S
C1510 H1501 0.929 . S
C1510 C1502 1.378 1_554 S
C1510 C1505 1.350 . S
C1511 H1498 0.929 . S
C1511 C1503 1.433 . S
C1511 N1513 1.384 . S
N1512 C1508 1.427 . S
N1512 C1509 1.384 . S
N1513 C1505 1.427 1_556 S
N1513 C1511 1.384 . S
H1514 C1520 0.930 . S
H1515 C1524 0.930 . S
H1516 C1529 0.929 . S
H1517 C1527 0.929 . S
H1518 C1522 0.929 . S
H1519 C1528 0.929 . S
C1520 H1514 0.930 . S
C1520 C1521 1.367 . S
C1520 C1528 1.378 . S
C1521 C1520 1.367 . S
C1521 C1529 1.433 . S
C1522 H1518 0.929 . S
C1522 C1524 1.378 . S
C1522 C1526 1.350 . S
C1523 C1526 1.463 . S
C1523 C1528 1.350 . S
C1523 N1531 1.427 . S
C1524 H1515 0.930 . S
C1524 C1522 1.378 . S
C1524 C1525 1.367 . S
C1525 C1524 1.367 . S
C1525 C1527 1.433 . S
C1526 C1522 1.350 . S
C1526 C1523 1.463 . S
C1526 N1530 1.427 . S
C1527 H1517 0.929 . S
C1527 C1525 1.433 . S
C1527 N1530 1.384 . S
C1528 H1519 0.929 . S
C1528 C1520 1.378 . S
C1528 C1523 1.350 . S
C1529 H1516 0.929 . S
C1529 C1521 1.433 . S
C1529 N1531 1.384 . S
N1530 C1526 1.427 . S
N1530 C1527 1.384 . S
N1531 C1523 1.427 . S
N1531 C1529 1.384 . S
H1532 C1538 0.930 . S
H1533 C1542 0.930 . S
H1534 C1547 0.929 . S
H1535 C1545 0.929 . S
H1536 C1540 0.929 . S
H1537 C1546 0.929 . S
C1538 H1532 0.930 . S
C1538 C1539 1.367 . S
C1538 C1546 1.378 . S
C1539 C1538 1.367 . S
C1539 C1547 1.433 . S
C1540 H1536 0.929 . S
C1540 C1542 1.378 . S
C1540 C1544 1.350 1_455 S
C1541 C1544 1.463 . S
C1541 C1546 1.350 . S
C1541 N1549 1.427 . S
C1542 H1533 0.930 . S
C1542 C1540 1.378 . S
C1542 C1543 1.367 . S
C1543 C1542 1.367 . S
C1543 C1545 1.433 1_455 S
C1544 C1540 1.350 1_655 S
C1544 C1541 1.463 . S
C1544 N1548 1.427 . S
C1545 H1535 0.929 . S
C1545 C1543 1.433 1_655 S
C1545 N1548 1.384 . S
C1546 H1537 0.929 . S
C1546 C1538 1.378 . S
C1546 C1541 1.350 . S
C1547 H1534 0.929 . S
C1547 C1539 1.433 . S
C1547 N1549 1.384 . S
N1548 C1544 1.427 . S
N1548 C1545 1.384 . S
N1549 C1541 1.427 . S
N1549 C1547 1.384 . S
H1550 C1556 0.930 . S
H1551 C1560 0.930 . S
H1552 C1565 0.929 . S
H1553 C1563 0.929 . S
H1554 C1558 0.929 . S
H1555 C1564 0.929 . S
C1556 H1550 0.930 . S
C1556 C1557 1.367 . S
C1556 C1564 1.378 . S
C1557 C1556 1.367 . S
C1557 C1565 1.433 . S
C1558 H1554 0.929 . S
C1558 C1560 1.378 . S
C1558 C1562 1.350 . S
C1559 C1562 1.463 . S
C1559 C1564 1.350 . S
C1559 N1567 1.427 . S
C1560 H1551 0.930 . S
C1560 C1558 1.378 . S
C1560 C1561 1.367 . S
C1561 C1560 1.367 . S
C1561 C1563 1.433 . S
C1562 C1558 1.350 . S
C1562 C1559 1.463 . S
C1562 N1566 1.427 . S
C1563 H1553 0.929 . S
C1563 C1561 1.433 . S
C1563 N1566 1.384 . S
C1564 H1555 0.929 . S
C1564 C1556 1.378 . S
C1564 C1559 1.350 . S
C1565 H1552 0.929 . S
C1565 C1557 1.433 . S
C1565 N1567 1.384 . S
N1566 C1562 1.427 . S
N1566 C1563 1.384 . S
N1567 C1559 1.427 . S
N1567 C1565 1.384 . S
H1568 C1574 0.930 . S
H1569 C1578 0.930 . S
H1570 C1583 0.929 . S
H1571 C1581 0.929 . S
H1572 C1576 0.929 . S
H1573 C1582 0.929 . S
C1574 H1568 0.930 . S
C1574 C1575 1.367 . S
C1574 C1582 1.378 . S
C1575 C1574 1.367 . S
C1575 C1583 1.433 . S
C1576 H1572 0.929 . S
C1576 C1578 1.378 . S
C1576 C1580 1.350 . S
C1577 C1580 1.463 . S
C1577 C1582 1.350 . S
C1577 N1585 1.427 . S
C1578 H1569 0.930 . S
C1578 C1576 1.378 . S
C1578 C1579 1.367 . S
C1579 C1578 1.367 . S
C1579 C1581 1.433 . S
C1580 C1576 1.350 . S
C1580 C1577 1.463 . S
C1580 N1584 1.427 . S
C1581 H1571 0.929 . S
C1581 C1579 1.433 . S
C1581 N1584 1.384 . S
C1582 H1573 0.929 . S
C1582 C1574 1.378 . S
C1582 C1577 1.350 . S
C1583 H1570 0.929 . S
C1583 C1575 1.433 . S
C1583 N1585 1.384 . S
N1584 C1580 1.427 . S
N1584 C1581 1.384 . S
N1585 C1577 1.427 . S
N1585 C1583 1.384 . S
H1586 C1592 0.930 . S
H1587 C1596 0.930 . S
H1588 C1601 0.929 . S
H1589 C1599 0.929 . S
H1590 C1594 0.929 . S
H1591 C1600 0.929 . S
C1592 H1586 0.930 . S
C1592 C1593 1.367 . S
C1592 C1600 1.378 . S
C1593 C1592 1.367 . S
C1593 C1601 1.433 . S
C1594 H1590 0.929 . S
C1594 C1596 1.378 . S
C1594 C1598 1.350 . S
C1595 C1598 1.463 . S
C1595 C1600 1.350 . S
C1595 N1603 1.427 . S
C1596 H1587 0.930 . S
C1596 C1594 1.378 . S
C1596 C1597 1.367 . S
C1597 C1596 1.367 . S
C1597 C1599 1.433 . S
C1598 C1594 1.350 . S
C1598 C1595 1.463 . S
C1598 N1602 1.427 . S
C1599 H1589 0.929 . S
C1599 C1597 1.433 . S
C1599 N1602 1.384 . S
C1600 H1591 0.929 . S
C1600 C1592 1.378 . S
C1600 C1595 1.350 . S
C1601 H1588 0.929 . S
C1601 C1593 1.433 . S
C1601 N1603 1.384 . S
N1602 C1598 1.427 . S
N1602 C1599 1.384 . S
N1603 C1595 1.427 . S
N1603 C1601 1.384 . S
H1604 C1610 0.930 . S
H1605 C1614 0.930 . S
H1606 C1619 0.929 . S
H1607 C1617 0.929 . S
H1608 C1612 0.929 . S
H1609 C1618 0.929 . S
C1610 H1604 0.930 . S
C1610 C1611 1.367 . S
C1610 C1618 1.378 . S
C1611 C1610 1.367 . S
C1611 C1619 1.433 . S
C1612 H1608 0.929 . S
C1612 C1614 1.378 . S
C1612 C1616 1.350 . S
C1613 C1616 1.463 . S
C1613 C1618 1.350 . S
C1613 N1621 1.427 . S
C1614 H1605 0.930 . S
C1614 C1612 1.378 . S
C1614 C1615 1.367 . S
C1615 C1614 1.367 . S
C1615 C1617 1.433 . S
C1616 C1612 1.350 . S
C1616 C1613 1.463 . S
C1616 N1620 1.427 . S
C1617 H1607 0.929 . S
C1617 C1615 1.433 . S
C1617 N1620 1.384 . S
C1618 H1609 0.929 . S
C1618 C1610 1.378 . S
C1618 C1613 1.350 . S
C1619 H1606 0.929 . S
C1619 C1611 1.433 . S
C1619 N1621 1.384 . S
N1620 C1616 1.427 . S
N1620 C1617 1.384 . S
N1621 C1613 1.427 . S
N1621 C1619 1.384 . S
H1622 C1628 0.930 . S
H1623 C1632 0.930 . S
H1624 C1637 0.929 . S
H1625 C1635 0.929 . S
H1626 C1630 0.929 . S
H1627 C1636 0.929 . S
C1628 H1622 0.930 . S
C1628 C1629 1.367 . S
C1628 C1636 1.378 . S
C1629 C1628 1.367 . S
C1629 C1637 1.433 . S
C1630 H1626 0.929 . S
C1630 C1632 1.378 . S
C1630 C1634 1.350 . S
C1631 C1634 1.463 . S
C1631 C1636 1.350 . S
C1631 N1639 1.427 . S
C1632 H1623 0.930 . S
C1632 C1630 1.378 . S
C1632 C1633 1.367 . S
C1633 C1632 1.367 . S
C1633 C1635 1.433 . S
C1634 C1630 1.350 . S
C1634 C1631 1.463 . S
C1634 N1638 1.427 . S
C1635 H1625 0.929 . S
C1635 C1633 1.433 . S
C1635 N1638 1.384 . S
C1636 H1627 0.929 . S
C1636 C1628 1.378 . S
C1636 C1631 1.350 . S
C1637 H1624 0.929 . S
C1637 C1629 1.433 . S
C1637 N1639 1.384 . S
N1638 C1634 1.427 . S
N1638 C1635 1.384 . S
N1639 C1631 1.427 . S
N1639 C1637 1.384 . S
H1640 C1646 0.930 . S
H1641 C1650 0.930 . S
H1642 C1655 0.929 . S
H1643 C1653 0.929 . S
H1644 C1648 0.929 . S
H1645 C1654 0.929 . S
C1646 H1640 0.930 . S
C1646 C1647 1.367 . S
C1646 C1654 1.378 . S
C1647 C1646 1.367 . S
C1647 C1655 1.433 . S
C1648 H1644 0.929 . S
C1648 C1650 1.378 . S
C1648 C1652 1.350 . S
C1649 C1652 1.463 . S
C1649 C1654 1.350 . S
C1649 N1657 1.427 . S
C1650 H1641 0.930 . S
C1650 C1648 1.378 . S
C1650 C1651 1.367 . S
C1651 C1650 1.367 . S
C1651 C1653 1.433 . S
C1652 C1648 1.350 . S
C1652 C1649 1.463 . S
C1652 N1656 1.427 . S
C1653 H1643 0.929 . S
C1653 C1651 1.433 . S
C1653 N1656 1.384 . S
C1654 H1645 0.929 . S
C1654 C1646 1.378 . S
C1654 C1649 1.350 . S
C1655 H1642 0.929 . S
C1655 C1647 1.433 . S
C1655 N1657 1.384 . S
N1656 C1652 1.427 . S
N1656 C1653 1.384 . S
N1657 C1649 1.427 . S
N1657 C1655 1.384 . S
H1658 C1664 0.930 . S
H1659 C1668 0.930 . S
H1660 C1673 0.929 . S
H1661 C1671 0.929 . S
H1662 C1666 0.929 . S
H1663 C1672 0.929 . S
C1664 H1658 0.930 . S
C1664 C1665 1.367 . S
C1664 C1672 1.378 . S
C1665 C1664 1.367 . S
C1665 C1673 1.433 . S
C1666 H1662 0.929 . S
C1666 C1668 1.378 . S
C1666 C1670 1.350 . S
C1667 C1670 1.463 . S
C1667 C1672 1.350 . S
C1667 N1675 1.427 . S
C1668 H1659 0.930 . S
C1668 C1666 1.378 . S
C1668 C1669 1.367 . S
C1669 C1668 1.367 . S
C1669 C1671 1.433 . S
C1670 C1666 1.350 . S
C1670 C1667 1.463 . S
C1670 N1674 1.427 . S
C1671 H1661 0.929 . S
C1671 C1669 1.433 . S
C1671 N1674 1.384 . S
C1672 H1663 0.929 . S
C1672 C1664 1.378 . S
C1672 C1667 1.350 . S
C1673 H1660 0.929 . S
C1673 C1665 1.433 . S
C1673 N1675 1.384 . S
N1674 C1670 1.427 . S
N1674 C1671 1.384 . S
N1675 C1667 1.427 . S
N1675 C1673 1.384 . S
H1676 C1682 0.930 . S
H1677 C1686 0.930 . S
H1678 C1691 0.929 . S
H1679 C1689 0.929 . S
H1680 C1684 0.929 . S
H1681 C1690 0.929 . S
C1682 H1676 0.930 . S
C1682 C1683 1.367 . S
C1682 C1690 1.378 . S
C1683 C1682 1.367 . S
C1683 C1691 1.433 . S
C1684 H1680 0.929 . S
C1684 C1686 1.378 . S
C1684 C1688 1.350 . S
C1685 C1688 1.463 . S
C1685 C1690 1.350 . S
C1685 N1693 1.427 . S
C1686 H1677 0.930 . S
C1686 C1684 1.378 . S
C1686 C1687 1.367 . S
C1687 C1686 1.367 . S
C1687 C1689 1.433 . S
C1688 C1684 1.350 . S
C1688 C1685 1.463 . S
C1688 N1692 1.427 . S
C1689 H1679 0.929 . S
C1689 C1687 1.433 . S
C1689 N1692 1.384 . S
C1690 H1681 0.929 . S
C1690 C1682 1.378 . S
C1690 C1685 1.350 . S
C1691 H1678 0.929 . S
C1691 C1683 1.433 . S
C1691 N1693 1.384 . S
N1692 C1688 1.427 . S
N1692 C1689 1.384 . S
N1693 C1685 1.427 . S
N1693 C1691 1.384 . S
H1694 C1700 0.930 . S
H1695 C1704 0.930 . S
H1696 C1709 0.929 . S
H1697 C1707 0.929 . S
H1698 C1702 0.929 . S
H1699 C1708 0.929 . S
C1700 H1694 0.930 . S
C1700 C1701 1.367 . S
C1700 C1708 1.378 . S
C1701 C1700 1.367 . S
C1701 C1709 1.433 . S
C1702 H1698 0.929 . S
C1702 C1704 1.378 . S
C1702 C1706 1.350 . S
C1703 C1706 1.463 . S
C1703 C1708 1.350 . S
C1703 N1711 1.427 . S
C1704 H1695 0.930 . S
C1704 C1702 1.378 . S
C1704 C1705 1.367 . S
C1705 C1704 1.367 . S
C1705 C1707 1.433 . S
C1706 C1702 1.350 . S
C1706 C1703 1.463 . S
C1706 N1710 1.427 . S
C1707 H1697 0.929 . S
C1707 C1705 1.433 . S
C1707 N1710 1.384 . S
C1708 H1699 0.929 . S
C1708 C1700 1.378 . S
C1708 C1703 1.350 . S
C1709 H1696 0.929 . S
C1709 C1701 1.433 . S
C1709 N1711 1.384 . S
N1710 C1706 1.427 . S
N1710 C1707 1.384 . S
N1711 C1703 1.427 . S
N1711 C1709 1.384 . S
H1712 C1718 0.930 . S
H1713 C1722 0.930 . S
H1714 C1727 0.929 . S
H1715 C1725 0.929 . S
H1716 C1720 0.929 . S
H1717 C1726 0.929 . S
C1718 H1712 0.930 . S
C1718 C1719 1.367 . S
C1718 C1726 1.378 . S
C1719 C1718 1.367 . S
C1719 C1727 1.433 . S
C1720 H1716 0.929 . S
C1720 C1722 1.378 . S
C1720 C1724 1.350 . S
C1721 C1724 1.463 . S
C1721 C1726 1.350 . S
C1721 N1729 1.427 . S
C1722 H1713 0.930 . S
C1722 C1720 1.378 . S
C1722 C1723 1.367 . S
C1723 C1722 1.367 . S
C1723 C1725 1.433 . S
C1724 C1720 1.350 . S
C1724 C1721 1.463 . S
C1724 N1728 1.427 . S
C1725 H1715 0.929 . S
C1725 C1723 1.433 . S
C1725 N1728 1.384 . S
C1726 H1717 0.929 . S
C1726 C1718 1.378 . S
C1726 C1721 1.350 . S
C1727 H1714 0.929 . S
C1727 C1719 1.433 . S
C1727 N1729 1.384 . S
N1728 C1724 1.427 . S
N1728 C1725 1.384 . S
N1729 C1721 1.427 . S
N1729 C1727 1.384 . S
H1730 C1736 0.930 . S
H1731 C1740 0.930 . S
H1732 C1745 0.929 . S
H1733 C1743 0.929 . S
H1734 C1738 0.929 . S
H1735 C1744 0.929 . S
C1736 H1730 0.930 . S
C1736 C1737 1.367 . S
C1736 C1744 1.378 . S
C1737 C1736 1.367 . S
C1737 C1745 1.433 . S
C1738 H1734 0.929 . S
C1738 C1740 1.378 . S
C1738 C1742 1.350 . S
C1739 C1742 1.463 . S
C1739 C1744 1.350 . S
C1739 N1747 1.427 . S
C1740 H1731 0.930 . S
C1740 C1738 1.378 . S
C1740 C1741 1.367 . S
C1741 C1740 1.367 . S
C1741 C1743 1.433 . S
C1742 C1738 1.350 . S
C1742 C1739 1.463 . S
C1742 N1746 1.427 . S
C1743 H1733 0.929 . S
C1743 C1741 1.433 . S
C1743 N1746 1.384 . S
C1744 H1735 0.929 . S
C1744 C1736 1.378 . S
C1744 C1739 1.350 . S
C1745 H1732 0.929 . S
C1745 C1737 1.433 . S
C1745 N1747 1.384 . S
N1746 C1742 1.427 . S
N1746 C1743 1.384 . S
N1747 C1739 1.427 . S
N1747 C1745 1.384 . S
H1748 C1754 0.930 . S
H1749 C1758 0.930 . S
H1750 C1763 0.929 . S
H1751 C1761 0.929 . S
H1752 C1756 0.929 . S
H1753 C1762 0.929 . S
C1754 H1748 0.930 . S
C1754 C1755 1.367 . S
C1754 C1762 1.378 . S
C1755 C1754 1.367 . S
C1755 C1763 1.433 . S
C1756 H1752 0.929 . S
C1756 C1758 1.378 . S
C1756 C1760 1.350 . S
C1757 C1760 1.463 . S
C1757 C1762 1.350 . S
C1757 N1765 1.427 . S
C1758 H1749 0.930 . S
C1758 C1756 1.378 . S
C1758 C1759 1.367 . S
C1759 C1758 1.367 . S
C1759 C1761 1.433 . S
C1760 C1756 1.350 . S
C1760 C1757 1.463 . S
C1760 N1764 1.427 . S
C1761 H1751 0.929 . S
C1761 C1759 1.433 . S
C1761 N1764 1.384 . S
C1762 H1753 0.929 . S
C1762 C1754 1.378 . S
C1762 C1757 1.350 . S
C1763 H1750 0.929 . S
C1763 C1755 1.433 . S
C1763 N1765 1.384 . S
N1764 C1760 1.427 . S
N1764 C1761 1.384 . S
N1765 C1757 1.427 . S
N1765 C1763 1.384 . S
H1766 C1772 0.930 . S
H1767 C1776 0.930 . S
H1768 C1781 0.929 . S
H1769 C1779 0.929 . S
H1770 C1774 0.929 . S
H1771 C1780 0.929 . S
C1772 H1766 0.930 . S
C1772 C1773 1.367 . S
C1772 C1780 1.378 . S
C1773 C1772 1.367 . S
C1773 C1781 1.433 . S
C1774 H1770 0.929 . S
C1774 C1776 1.378 . S
C1774 C1778 1.350 . S
C1775 C1778 1.463 . S
C1775 C1780 1.350 . S
C1775 N1783 1.427 . S
C1776 H1767 0.930 . S
C1776 C1774 1.378 . S
C1776 C1777 1.367 . S
C1777 C1776 1.367 . S
C1777 C1779 1.433 . S
C1778 C1774 1.350 . S
C1778 C1775 1.463 . S
C1778 N1782 1.427 . S
C1779 H1769 0.929 . S
C1779 C1777 1.433 . S
C1779 N1782 1.384 . S
C1780 H1771 0.929 . S
C1780 C1772 1.378 . S
C1780 C1775 1.350 . S
C1781 H1768 0.929 . S
C1781 C1773 1.433 . S
C1781 N1783 1.384 . S
N1782 C1778 1.427 . S
N1782 C1779 1.384 . S
N1783 C1775 1.427 . S
N1783 C1781 1.384 . S
H1784 C1790 0.930 . S
H1785 C1794 0.930 . S
H1786 C1799 0.929 . S
H1787 C1797 0.929 . S
H1788 C1792 0.929 . S
H1789 C1798 0.929 . S
C1790 H1784 0.930 . S
C1790 C1791 1.367 . S
C1790 C1798 1.378 . S
C1791 C1790 1.367 . S
C1791 C1799 1.433 . S
C1792 H1788 0.929 . S
C1792 C1794 1.378 . S
C1792 C1796 1.350 . S
C1793 C1796 1.463 . S
C1793 C1798 1.350 . S
C1793 N1801 1.427 . S
C1794 H1785 0.930 . S
C1794 C1792 1.378 . S
C1794 C1795 1.367 . S
C1795 C1794 1.367 . S
C1795 C1797 1.433 . S
C1796 C1792 1.350 . S
C1796 C1793 1.463 . S
C1796 N1800 1.427 . S
C1797 H1787 0.929 . S
C1797 C1795 1.433 . S
C1797 N1800 1.384 . S
C1798 H1789 0.929 . S
C1798 C1790 1.378 . S
C1798 C1793 1.350 . S
C1799 H1786 0.929 . S
C1799 C1791 1.433 . S
C1799 N1801 1.384 . S
N1800 C1796 1.427 . S
N1800 C1797 1.384 . S
N1801 C1793 1.427 . S
N1801 C1799 1.384 . S
H1802 C1808 0.930 . S
H1803 C1812 0.930 . S
H1804 C1817 0.929 . S
H1805 C1815 0.929 . S
H1806 C1810 0.929 . S
H1807 C1816 0.929 . S
C1808 H1802 0.930 . S
C1808 C1809 1.367 . S
C1808 C1816 1.378 . S
C1809 C1808 1.367 . S
C1809 C1817 1.433 . S
C1810 H1806 0.929 . S
C1810 C1812 1.378 . S
C1810 C1814 1.350 . S
C1811 C1814 1.463 . S
C1811 C1816 1.350 . S
C1811 N1819 1.427 . S
C1812 H1803 0.930 . S
C1812 C1810 1.378 . S
C1812 C1813 1.367 . S
C1813 C1812 1.367 . S
C1813 C1815 1.433 . S
C1814 C1810 1.350 . S
C1814 C1811 1.463 . S
C1814 N1818 1.427 . S
C1815 H1805 0.929 . S
C1815 C1813 1.433 . S
C1815 N1818 1.384 . S
C1816 H1807 0.929 . S
C1816 C1808 1.378 . S
C1816 C1811 1.350 . S
C1817 H1804 0.929 . S
C1817 C1809 1.433 . S
C1817 N1819 1.384 . S
N1818 C1814 1.427 . S
N1818 C1815 1.384 . S
N1819 C1811 1.427 . S
N1819 C1817 1.384 . S
H1820 C1826 0.930 . S
H1821 C1830 0.930 . S
H1822 C1835 0.929 . S
H1823 C1833 0.929 . S
H1824 C1828 0.929 . S
H1825 C1834 0.929 . S
C1826 H1820 0.930 . S
C1826 C1827 1.367 . S
C1826 C1834 1.378 . S
C1827 C1826 1.367 . S
C1827 C1835 1.433 . S
C1828 H1824 0.929 . S
C1828 C1830 1.378 . S
C1828 C1832 1.350 . S
C1829 C1832 1.463 . S
C1829 C1834 1.350 . S
C1829 N1837 1.427 . S
C1830 H1821 0.930 . S
C1830 C1828 1.378 . S
C1830 C1831 1.367 . S
C1831 C1830 1.367 . S
C1831 C1833 1.433 . S
C1832 C1828 1.350 . S
C1832 C1829 1.463 . S
C1832 N1836 1.427 . S
C1833 H1823 0.929 . S
C1833 C1831 1.433 . S
C1833 N1836 1.384 . S
C1834 H1825 0.929 . S
C1834 C1826 1.378 . S
C1834 C1829 1.350 . S
C1835 H1822 0.929 . S
C1835 C1827 1.433 . S
C1835 N1837 1.384 . S
N1836 C1832 1.427 . S
N1836 C1833 1.384 . S
N1837 C1829 1.427 . S
N1837 C1835 1.384 . S
H1838 C1844 0.930 . S
H1839 C1848 0.930 . S
H1840 C1853 0.929 . S
H1841 C1851 0.929 . S
H1842 C1846 0.929 . S
H1843 C1852 0.929 . S
C1844 H1838 0.930 . S
C1844 C1845 1.367 . S
C1844 C1852 1.378 . S
C1845 C1844 1.367 . S
C1845 C1853 1.433 . S
C1846 H1842 0.929 . S
C1846 C1848 1.378 . S
C1846 C1850 1.350 . S
C1847 C1850 1.463 . S
C1847 C1852 1.350 . S
C1847 N1855 1.427 . S
C1848 H1839 0.930 . S
C1848 C1846 1.378 . S
C1848 C1849 1.367 . S
C1849 C1848 1.367 . S
C1849 C1851 1.433 . S
C1850 C1846 1.350 . S
C1850 C1847 1.463 . S
C1850 N1854 1.427 . S
C1851 H1841 0.929 . S
C1851 C1849 1.433 . S
C1851 N1854 1.384 . S
C1852 H1843 0.929 . S
C1852 C1844 1.378 . S
C1852 C1847 1.350 . S
C1853 H1840 0.929 . S
C1853 C1845 1.433 . S
C1853 N1855 1.384 . S
N1854 C1850 1.427 . S
N1854 C1851 1.384 . S
N1855 C1847 1.427 . S
N1855 C1853 1.384 . S
H1856 C1862 0.930 . S
H1857 C1866 0.930 . S
H1858 C1871 0.929 . S
H1859 C1869 0.929 . S
H1860 C1864 0.929 . S
H1861 C1870 0.929 . S
C1862 H1856 0.930 . S
C1862 C1863 1.367 . S
C1862 C1870 1.378 . S
C1863 C1862 1.367 . S
C1863 C1871 1.433 . S
C1864 H1860 0.929 . S
C1864 C1866 1.378 . S
C1864 C1868 1.350 . S
C1865 C1868 1.463 . S
C1865 C1870 1.350 . S
C1865 N1873 1.427 . S
C1866 H1857 0.930 . S
C1866 C1864 1.378 . S
C1866 C1867 1.367 . S
C1867 C1866 1.367 . S
C1867 C1869 1.433 . S
C1868 C1864 1.350 . S
C1868 C1865 1.463 . S
C1868 N1872 1.427 . S
C1869 H1859 0.929 . S
C1869 C1867 1.433 . S
C1869 N1872 1.384 . S
C1870 H1861 0.929 . S
C1870 C1862 1.378 . S
C1870 C1865 1.350 . S
C1871 H1858 0.929 . S
C1871 C1863 1.433 . S
C1871 N1873 1.384 . S
N1872 C1868 1.427 . S
N1872 C1869 1.384 . S
N1873 C1865 1.427 . S
N1873 C1871 1.384 . S
H1874 C1880 0.930 . S
H1875 C1884 0.930 . S
H1876 C1889 0.929 . S
H1877 C1887 0.929 . S
H1878 C1882 0.929 . S
H1879 C1888 0.929 . S
C1880 H1874 0.930 . S
C1880 C1881 1.367 . S
C1880 C1888 1.378 . S
C1881 C1880 1.367 . S
C1881 C1889 1.433 . S
C1882 H1878 0.929 . S
C1882 C1884 1.378 . S
C1882 C1886 1.350 . S
C1883 C1886 1.463 . S
C1883 C1888 1.350 . S
C1883 N1891 1.427 . S
C1884 H1875 0.930 . S
C1884 C1882 1.378 . S
C1884 C1885 1.367 . S
C1885 C1884 1.367 . S
C1885 C1887 1.433 . S
C1886 C1882 1.350 . S
C1886 C1883 1.463 . S
C1886 N1890 1.427 . S
C1887 H1877 0.929 . S
C1887 C1885 1.433 . S
C1887 N1890 1.384 . S
C1888 H1879 0.929 . S
C1888 C1880 1.378 . S
C1888 C1883 1.350 . S
C1889 H1876 0.929 . S
C1889 C1881 1.433 . S
C1889 N1891 1.384 . S
N1890 C1886 1.427 . S
N1890 C1887 1.384 . S
N1891 C1883 1.427 . S
N1891 C1889 1.384 . S
H1892 C1898 0.930 . S
H1893 C1902 0.930 . S
H1894 C1907 0.929 . S
H1895 C1905 0.929 . S
H1896 C1900 0.929 . S
H1897 C1906 0.929 . S
C1898 H1892 0.930 . S
C1898 C1899 1.367 . S
C1898 C1906 1.378 . S
C1899 C1898 1.367 . S
C1899 C1907 1.433 . S
C1900 H1896 0.929 . S
C1900 C1902 1.378 . S
C1900 C1904 1.350 . S
C1901 C1904 1.463 . S
C1901 C1906 1.350 . S
C1901 N1909 1.427 . S
C1902 H1893 0.930 . S
C1902 C1900 1.378 . S
C1902 C1903 1.367 . S
C1903 C1902 1.367 . S
C1903 C1905 1.433 . S
C1904 C1900 1.350 . S
C1904 C1901 1.463 . S
C1904 N1908 1.427 . S
C1905 H1895 0.929 . S
C1905 C1903 1.433 . S
C1905 N1908 1.384 . S
C1906 H1897 0.929 . S
C1906 C1898 1.378 . S
C1906 C1901 1.350 . S
C1907 H1894 0.929 . S
C1907 C1899 1.433 . S
C1907 N1909 1.384 . S
N1908 C1904 1.427 . S
N1908 C1905 1.384 . S
N1909 C1901 1.427 . S
N1909 C1907 1.384 . S
H1910 C1916 0.930 . S
H1911 C1920 0.930 . S
H1912 C1925 0.929 . S
H1913 C1923 0.929 . S
H1914 C1918 0.929 . S
H1915 C1924 0.929 . S
C1916 H1910 0.930 . S
C1916 C1917 1.367 . S
C1916 C1924 1.378 . S
C1917 C1916 1.367 . S
C1917 C1925 1.433 . S
C1918 H1914 0.929 . S
C1918 C1920 1.378 . S
C1918 C1922 1.350 . S
C1919 C1922 1.463 . S
C1919 C1924 1.350 . S
C1919 N1927 1.427 . S
C1920 H1911 0.930 . S
C1920 C1918 1.378 . S
C1920 C1921 1.367 . S
C1921 C1920 1.367 . S
C1921 C1923 1.433 . S
C1922 C1918 1.350 . S
C1922 C1919 1.463 . S
C1922 N1926 1.427 . S
C1923 H1913 0.929 . S
C1923 C1921 1.433 . S
C1923 N1926 1.384 . S
C1924 H1915 0.929 . S
C1924 C1916 1.378 . S
C1924 C1919 1.350 . S
C1925 H1912 0.929 . S
C1925 C1917 1.433 . S
C1925 N1927 1.384 . S
N1926 C1922 1.427 . S
N1926 C1923 1.384 . S
N1927 C1919 1.427 . S
N1927 C1925 1.384 . S
H1928 C1934 0.930 . S
H1929 C1938 0.930 . S
H1930 C1943 0.929 . S
H1931 C1941 0.929 . S
H1932 C1936 0.929 . S
H1933 C1942 0.929 . S
C1934 H1928 0.930 . S
C1934 C1935 1.367 . S
C1934 C1942 1.378 . S
C1935 C1934 1.367 . S
C1935 C1943 1.433 . S
C1936 H1932 0.929 . S
C1936 C1938 1.378 . S
C1936 C1940 1.350 . S
C1937 C1940 1.463 . S
C1937 C1942 1.350 . S
C1937 N1945 1.427 . S
C1938 H1929 0.930 . S
C1938 C1936 1.378 . S
C1938 C1939 1.367 . S
C1939 C1938 1.367 . S
C1939 C1941 1.433 . S
C1940 C1936 1.350 . S
C1940 C1937 1.463 . S
C1940 N1944 1.427 . S
C1941 H1931 0.929 . S
C1941 C1939 1.433 . S
C1941 N1944 1.384 . S
C1942 H1933 0.929 . S
C1942 C1934 1.378 . S
C1942 C1937 1.350 . S
C1943 H1930 0.929 . S
C1943 C1935 1.433 . S
C1943 N1945 1.384 . S
N1944 C1940 1.427 . S
N1944 C1941 1.384 . S
N1945 C1937 1.427 . S
N1945 C1943 1.384 . S
H1946 C1952 0.930 . S
H1947 C1956 0.930 . S
H1948 C1961 0.929 . S
H1949 C1959 0.929 . S
H1950 C1954 0.929 . S
H1951 C1960 0.929 . S
C1952 H1946 0.930 . S
C1952 C1953 1.367 . S
C1952 C1960 1.378 . S
C1953 C1952 1.367 . S
C1953 C1961 1.433 . S
C1954 H1950 0.929 . S
C1954 C1956 1.378 . S
C1954 C1958 1.350 . S
C1955 C1958 1.463 . S
C1955 C1960 1.350 . S
C1955 N1963 1.427 . S
C1956 H1947 0.930 . S
C1956 C1954 1.378 . S
C1956 C1957 1.367 . S
C1957 C1956 1.367 . S
C1957 C1959 1.433 . S
C1958 C1954 1.350 . S
C1958 C1955 1.463 . S
C1958 N1962 1.427 . S
C1959 H1949 0.929 . S
C1959 C1957 1.433 . S
C1959 N1962 1.384 . S
C1960 H1951 0.929 . S
C1960 C1952 1.378 . S
C1960 C1955 1.350 . S
C1961 H1948 0.929 . S
C1961 C1953 1.433 . S
C1961 N1963 1.384 . S
N1962 C1958 1.427 . S
N1962 C1959 1.384 . S
N1963 C1955 1.427 . S
N1963 C1961 1.384 . S
H1964 C1970 0.930 . S
H1965 C1974 0.930 . S
H1966 C1979 0.929 . S
H1967 C1977 0.929 . S
H1968 C1972 0.929 . S
H1969 C1978 0.929 . S
C1970 H1964 0.930 . S
C1970 C1971 1.367 . S
C1970 C1978 1.378 . S
C1971 C1970 1.367 . S
C1971 C1979 1.433 . S
C1972 H1968 0.929 . S
C1972 C1974 1.378 . S
C1972 C1976 1.350 . S
C1973 C1976 1.463 . S
C1973 C1978 1.350 . S
C1973 N1981 1.427 . S
C1974 H1965 0.930 . S
C1974 C1972 1.378 . S
C1974 C1975 1.367 . S
C1975 C1974 1.367 . S
C1975 C1977 1.433 . S
C1976 C1972 1.350 . S
C1976 C1973 1.463 . S
C1976 N1980 1.427 . S
C1977 H1967 0.929 . S
C1977 C1975 1.433 . S
C1977 N1980 1.384 . S
C1978 H1969 0.929 . S
C1978 C1970 1.378 . S
C1978 C1973 1.350 . S
C1979 H1966 0.929 . S
C1979 C1971 1.433 . S
C1979 N1981 1.384 . S
N1980 C1976 1.427 . S
N1980 C1977 1.384 . S
N1981 C1973 1.427 . S
N1981 C1979 1.384 . S
H1982 C1988 0.930 . S
H1983 C1992 0.930 . S
H1984 C1997 0.929 . S
H1985 C1995 0.929 . S
H1986 C1990 0.929 . S
H1987 C1996 0.929 . S
C1988 H1982 0.930 . S
C1988 C1989 1.367 . S
C1988 C1996 1.378 . S
C1989 C1988 1.367 . S
C1989 C1997 1.433 . S
C1990 H1986 0.929 . S
C1990 C1992 1.378 . S
C1990 C1994 1.350 . S
C1991 C1994 1.463 . S
C1991 C1996 1.350 . S
C1991 N1999 1.427 . S
C1992 H1983 0.930 . S
C1992 C1990 1.378 . S
C1992 C1993 1.367 . S
C1993 C1992 1.367 . S
C1993 C1995 1.433 . S
C1994 C1990 1.350 . S
C1994 C1991 1.463 . S
C1994 N1998 1.427 . S
C1995 H1985 0.929 . S
C1995 C1993 1.433 . S
C1995 N1998 1.384 . S
C1996 H1987 0.929 . S
C1996 C1988 1.378 . S
C1996 C1991 1.350 . S
C1997 H1984 0.929 . S
C1997 C1989 1.433 . S
C1997 N1999 1.384 . S
N1998 C1994 1.427 . S
N1998 C1995 1.384 . S
N1999 C1991 1.427 . S
N1999 C1997 1.384 . S
H2000 C2006 0.930 . S
H2001 C2010 0.930 . S
H2002 C2015 0.929 . S
H2003 C2013 0.929 . S
H2004 C2008 0.929 . S
H2005 C2014 0.929 . S
C2006 H2000 0.930 . S
C2006 C2007 1.367 . S
C2006 C2014 1.378 . S
C2007 C2006 1.367 . S
C2007 C2015 1.433 . S
C2008 H2004 0.929 . S
C2008 C2010 1.378 . S
C2008 C2012 1.350 . S
C2009 C2012 1.463 . S
C2009 C2014 1.350 . S
C2009 N2017 1.427 . S
C2010 H2001 0.930 . S
C2010 C2008 1.378 . S
C2010 C2011 1.367 . S
C2011 C2010 1.367 . S
C2011 C2013 1.433 . S
C2012 C2008 1.350 . S
C2012 C2009 1.463 . S
C2012 N2016 1.427 . S
C2013 H2003 0.929 . S
C2013 C2011 1.433 . S
C2013 N2016 1.384 . S
C2014 H2005 0.929 . S
C2014 C2006 1.378 . S
C2014 C2009 1.350 . S
C2015 H2002 0.929 . S
C2015 C2007 1.433 . S
C2015 N2017 1.384 . S
N2016 C2012 1.427 . S
N2016 C2013 1.384 . S
N2017 C2009 1.427 . S
N2017 C2015 1.384 . S
H2018 C2024 0.930 . S
H2019 C2028 0.930 . S
H2020 C2033 0.929 . S
H2021 C2031 0.929 . S
H2022 C2026 0.929 . S
H2023 C2032 0.929 . S
C2024 H2018 0.930 . S
C2024 C2025 1.367 . S
C2024 C2032 1.378 . S
C2025 C2024 1.367 . S
C2025 C2033 1.433 . S
C2026 H2022 0.929 . S
C2026 C2028 1.378 . S
C2026 C2030 1.350 . S
C2027 C2030 1.463 . S
C2027 C2032 1.350 . S
C2027 N2035 1.427 . S
C2028 H2019 0.930 . S
C2028 C2026 1.378 . S
C2028 C2029 1.367 . S
C2029 C2028 1.367 . S
C2029 C2031 1.433 . S
C2030 C2026 1.350 . S
C2030 C2027 1.463 . S
C2030 N2034 1.427 . S
C2031 H2021 0.929 . S
C2031 C2029 1.433 . S
C2031 N2034 1.384 . S
C2032 H2023 0.929 . S
C2032 C2024 1.378 . S
C2032 C2027 1.350 . S
C2033 H2020 0.929 . S
C2033 C2025 1.433 . S
C2033 N2035 1.384 . S
N2034 C2030 1.427 . S
N2034 C2031 1.384 . S
N2035 C2027 1.427 . S
N2035 C2033 1.384 . S
H2036 C2042 0.930 . S
H2037 C2046 0.930 . S
H2038 C2051 0.929 . S
H2039 C2049 0.929 . S
H2040 C2044 0.929 . S
H2041 C2050 0.929 . S
C2042 H2036 0.930 . S
C2042 C2043 1.367 . S
C2042 C2050 1.378 . S
C2043 C2042 1.367 . S
C2043 C2051 1.433 . S
C2044 H2040 0.929 . S
C2044 C2046 1.378 . S
C2044 C2048 1.350 . S
C2045 C2048 1.463 . S
C2045 C2050 1.350 . S
C2045 N2053 1.427 . S
C2046 H2037 0.930 . S
C2046 C2044 1.378 . S
C2046 C2047 1.367 . S
C2047 C2046 1.367 . S
C2047 C2049 1.433 . S
C2048 C2044 1.350 . S
C2048 C2045 1.463 . S
C2048 N2052 1.427 . S
C2049 H2039 0.929 . S
C2049 C2047 1.433 . S
C2049 N2052 1.384 . S
C2050 H2041 0.929 . S
C2050 C2042 1.378 . S
C2050 C2045 1.350 . S
C2051 H2038 0.929 . S
C2051 C2043 1.433 . S
C2051 N2053 1.384 . S
N2052 C2048 1.427 . S
N2052 C2049 1.384 . S
N2053 C2045 1.427 . S
N2053 C2051 1.384 . S
H2054 C2060 0.930 . S
H2055 C2064 0.930 . S
H2056 C2069 0.929 . S
H2057 C2067 0.929 . S
H2058 C2062 0.929 . S
H2059 C2068 0.929 . S
C2060 H2054 0.930 . S
C2060 C2061 1.367 . S
C2060 C2068 1.378 . S
C2061 C2060 1.367 . S
C2061 C2069 1.433 . S
C2062 H2058 0.929 . S
C2062 C2064 1.378 . S
C2062 C2066 1.350 . S
C2063 C2066 1.463 . S
C2063 C2068 1.350 . S
C2063 N2071 1.427 . S
C2064 H2055 0.930 . S
C2064 C2062 1.378 . S
C2064 C2065 1.367 . S
C2065 C2064 1.367 . S
C2065 C2067 1.433 . S
C2066 C2062 1.350 . S
C2066 C2063 1.463 . S
C2066 N2070 1.427 . S
C2067 H2057 0.929 . S
C2067 C2065 1.433 . S
C2067 N2070 1.384 . S
C2068 H2059 0.929 . S
C2068 C2060 1.378 . S
C2068 C2063 1.350 . S
C2069 H2056 0.929 . S
C2069 C2061 1.433 . S
C2069 N2071 1.384 . S
N2070 C2066 1.427 . S
N2070 C2067 1.384 . S
N2071 C2063 1.427 . S
N2071 C2069 1.384 . S
H2072 C2078 0.930 . S
H2073 C2082 0.930 . S
H2074 C2087 0.929 . S
H2075 C2085 0.929 . S
H2076 C2080 0.929 . S
H2077 C2086 0.929 . S
C2078 H2072 0.930 . S
C2078 C2079 1.367 . S
C2078 C2086 1.378 . S
C2079 C2078 1.367 . S
C2079 C2087 1.433 . S
C2080 H2076 0.929 . S
C2080 C2082 1.378 . S
C2080 C2084 1.350 . S
C2081 C2084 1.463 . S
C2081 C2086 1.350 . S
C2081 N2089 1.427 . S
C2082 H2073 0.930 . S
C2082 C2080 1.378 . S
C2082 C2083 1.367 . S
C2083 C2082 1.367 . S
C2083 C2085 1.433 . S
C2084 C2080 1.350 . S
C2084 C2081 1.463 . S
C2084 N2088 1.427 . S
C2085 H2075 0.929 . S
C2085 C2083 1.433 . S
C2085 N2088 1.384 . S
C2086 H2077 0.929 . S
C2086 C2078 1.378 . S
C2086 C2081 1.350 . S
C2087 H2074 0.929 . S
C2087 C2079 1.433 . S
C2087 N2089 1.384 . S
N2088 C2084 1.427 . S
N2088 C2085 1.384 . S
N2089 C2081 1.427 . S
N2089 C2087 1.384 . S
H2090 C2096 0.930 . S
H2091 C2100 0.930 . S
H2092 C2105 0.929 . S
H2093 C2103 0.929 . S
H2094 C2098 0.929 . S
H2095 C2104 0.929 . S
C2096 H2090 0.930 . S
C2096 C2097 1.367 . S
C2096 C2104 1.378 . S
C2097 C2096 1.367 . S
C2097 C2105 1.433 . S
C2098 H2094 0.929 . S
C2098 C2100 1.378 . S
C2098 C2102 1.350 . S
C2099 C2102 1.463 . S
C2099 C2104 1.350 . S
C2099 N2107 1.427 . S
C2100 H2091 0.930 . S
C2100 C2098 1.378 . S
C2100 C2101 1.367 . S
C2101 C2100 1.367 . S
C2101 C2103 1.433 . S
C2102 C2098 1.350 . S
C2102 C2099 1.463 . S
C2102 N2106 1.427 . S
C2103 H2093 0.929 . S
C2103 C2101 1.433 . S
C2103 N2106 1.384 . S
C2104 H2095 0.929 . S
C2104 C2096 1.378 . S
C2104 C2099 1.350 . S
C2105 H2092 0.929 . S
C2105 C2097 1.433 . S
C2105 N2107 1.384 . S
N2106 C2102 1.427 . S
N2106 C2103 1.384 . S
N2107 C2099 1.427 . S
N2107 C2105 1.384 . S
H2108 C2114 0.930 . S
H2109 C2118 0.930 . S
H2110 C2123 0.929 . S
H2111 C2121 0.929 . S
H2112 C2116 0.929 . S
H2113 C2122 0.929 . S
C2114 H2108 0.930 . S
C2114 C2115 1.367 . S
C2114 C2122 1.378 . S
C2115 C2114 1.367 . S
C2115 C2123 1.433 . S
C2116 H2112 0.929 . S
C2116 C2118 1.378 . S
C2116 C2120 1.350 . S
C2117 C2120 1.463 . S
C2117 C2122 1.350 . S
C2117 N2125 1.427 . S
C2118 H2109 0.930 . S
C2118 C2116 1.378 . S
C2118 C2119 1.367 . S
C2119 C2118 1.367 . S
C2119 C2121 1.433 . S
C2120 C2116 1.350 . S
C2120 C2117 1.463 . S
C2120 N2124 1.427 . S
C2121 H2111 0.929 . S
C2121 C2119 1.433 . S
C2121 N2124 1.384 . S
C2122 H2113 0.929 . S
C2122 C2114 1.378 . S
C2122 C2117 1.350 . S
C2123 H2110 0.929 . S
C2123 C2115 1.433 . S
C2123 N2125 1.384 . S
N2124 C2120 1.427 . S
N2124 C2121 1.384 . S
N2125 C2117 1.427 . S
N2125 C2123 1.384 . S
H2126 C2132 0.930 . S
H2127 C2136 0.930 . S
H2128 C2141 0.929 . S
H2129 C2139 0.929 . S
H2130 C2134 0.929 . S
H2131 C2140 0.929 . S
C2132 H2126 0.930 . S
C2132 C2133 1.367 . S
C2132 C2140 1.378 . S
C2133 C2132 1.367 . S
C2133 C2141 1.433 . S
C2134 H2130 0.929 . S
C2134 C2136 1.378 . S
C2134 C2138 1.350 . S
C2135 C2138 1.463 . S
C2135 C2140 1.350 . S
C2135 N2143 1.427 . S
C2136 H2127 0.930 . S
C2136 C2134 1.378 . S
C2136 C2137 1.367 . S
C2137 C2136 1.367 . S
C2137 C2139 1.433 . S
C2138 C2134 1.350 . S
C2138 C2135 1.463 . S
C2138 N2142 1.427 . S
C2139 H2129 0.929 . S
C2139 C2137 1.433 . S
C2139 N2142 1.384 . S
C2140 H2131 0.929 . S
C2140 C2132 1.378 . S
C2140 C2135 1.350 . S
C2141 H2128 0.929 . S
C2141 C2133 1.433 . S
C2141 N2143 1.384 . S
N2142 C2138 1.427 . S
N2142 C2139 1.384 . S
N2143 C2135 1.427 . S
N2143 C2141 1.384 . S
H2144 C2150 0.930 . S
H2145 C2154 0.930 . S
H2146 C2159 0.929 . S
H2147 C2157 0.929 . S
H2148 C2152 0.929 . S
H2149 C2158 0.929 . S
C2150 H2144 0.930 . S
C2150 C2151 1.367 . S
C2150 C2158 1.378 . S
C2151 C2150 1.367 . S
C2151 C2159 1.433 . S
C2152 H2148 0.929 . S
C2152 C2154 1.378 . S
C2152 C2156 1.350 . S
C2153 C2156 1.463 . S
C2153 C2158 1.350 . S
C2153 N2161 1.427 . S
C2154 H2145 0.930 . S
C2154 C2152 1.378 . S
C2154 C2155 1.367 . S
C2155 C2154 1.367 . S
C2155 C2157 1.433 . S
C2156 C2152 1.350 . S
C2156 C2153 1.463 . S
C2156 N2160 1.427 . S
C2157 H2147 0.929 . S
C2157 C2155 1.433 . S
C2157 N2160 1.384 . S
C2158 H2149 0.929 . S
C2158 C2150 1.378 . S
C2158 C2153 1.350 . S
C2159 H2146 0.929 . S
C2159 C2151 1.433 . S
C2159 N2161 1.384 . S
N2160 C2156 1.427 . S
N2160 C2157 1.384 . S
N2161 C2153 1.427 . S
N2161 C2159 1.384 . S
H2162 C2168 0.930 . S
H2163 C2172 0.930 . S
H2164 C2177 0.929 . S
H2165 C2175 0.929 . S
H2166 C2170 0.929 . S
H2167 C2176 0.929 . S
C2168 H2162 0.930 . S
C2168 C2169 1.367 . S
C2168 C2176 1.378 . S
C2169 C2168 1.367 . S
C2169 C2177 1.433 . S
C2170 H2166 0.929 . S
C2170 C2172 1.378 . S
C2170 C2174 1.350 . S
C2171 C2174 1.463 . S
C2171 C2176 1.350 . S
C2171 N2179 1.427 . S
C2172 H2163 0.930 . S
C2172 C2170 1.378 . S
C2172 C2173 1.367 . S
C2173 C2172 1.367 . S
C2173 C2175 1.433 . S
C2174 C2170 1.350 . S
C2174 C2171 1.463 . S
C2174 N2178 1.427 . S
C2175 H2165 0.929 . S
C2175 C2173 1.433 . S
C2175 N2178 1.384 . S
C2176 H2167 0.929 . S
C2176 C2168 1.378 . S
C2176 C2171 1.350 . S
C2177 H2164 0.929 . S
C2177 C2169 1.433 . S
C2177 N2179 1.384 . S
N2178 C2174 1.427 . S
N2178 C2175 1.384 . S
N2179 C2171 1.427 . S
N2179 C2177 1.384 . S
H2180 C2186 0.930 . S
H2181 C2190 0.930 . S
H2182 C2195 0.929 . S
H2183 C2193 0.929 . S
H2184 C2188 0.929 . S
H2185 C2194 0.929 . S
C2186 H2180 0.930 . S
C2186 C2187 1.367 . S
C2186 C2194 1.378 . S
C2187 C2186 1.367 . S
C2187 C2195 1.433 . S
C2188 H2184 0.929 . S
C2188 C2190 1.378 . S
C2188 C2192 1.350 . S
C2189 C2192 1.463 . S
C2189 C2194 1.350 . S
C2189 N2197 1.427 . S
C2190 H2181 0.930 . S
C2190 C2188 1.378 . S
C2190 C2191 1.367 . S
C2191 C2190 1.367 . S
C2191 C2193 1.433 . S
C2192 C2188 1.350 . S
C2192 C2189 1.463 . S
C2192 N2196 1.427 . S
C2193 H2183 0.929 . S
C2193 C2191 1.433 . S
C2193 N2196 1.384 . S
C2194 H2185 0.929 . S
C2194 C2186 1.378 . S
C2194 C2189 1.350 . S
C2195 H2182 0.929 . S
C2195 C2187 1.433 . S
C2195 N2197 1.384 . S
N2196 C2192 1.427 . S
N2196 C2193 1.384 . S
N2197 C2189 1.427 . S
N2197 C2195 1.384 . S
H2198 C2204 0.930 . S
H2199 C2208 0.930 1_554 S
H2200 C2213 0.929 . S
H2201 C2211 0.929 . S
H2202 C2206 0.929 . S
H2203 C2212 0.929 . S
C2204 H2198 0.930 . S
C2204 C2205 1.367 . S
C2204 C2212 1.378 . S
C2205 C2204 1.367 . S
C2205 C2213 1.433 . S
C2206 H2202 0.929 . S
C2206 C2208 1.378 . S
C2206 C2210 1.350 . S
C2207 C2210 1.463 . S
C2207 C2212 1.350 . S
C2207 N2215 1.427 . S
C2208 H2199 0.930 1_556 S
C2208 C2206 1.378 . S
C2208 C2209 1.367 . S
C2209 C2208 1.367 . S
C2209 C2211 1.433 . S
C2210 C2206 1.350 . S
C2210 C2207 1.463 . S
C2210 N2214 1.427 . S
C2211 H2201 0.929 . S
C2211 C2209 1.433 . S
C2211 N2214 1.384 . S
C2212 H2203 0.929 . S
C2212 C2204 1.378 . S
C2212 C2207 1.350 . S
C2213 H2200 0.929 . S
C2213 C2205 1.433 . S
C2213 N2215 1.384 . S
N2214 C2210 1.427 . S
N2214 C2211 1.384 . S
N2215 C2207 1.427 . S
N2215 C2213 1.384 . S
H2216 C2222 0.930 . S
H2217 C2226 0.930 . S
H2218 C2231 0.929 . S
H2219 C2229 0.929 . S
H2220 C2224 0.929 . S
H2221 C2230 0.929 . S
C2222 H2216 0.930 . S
C2222 C2223 1.367 . S
C2222 C2230 1.378 . S
C2223 C2222 1.367 . S
C2223 C2231 1.433 . S
C2224 H2220 0.929 . S
C2224 C2226 1.378 . S
C2224 C2228 1.350 . S
C2225 C2228 1.463 . S
C2225 C2230 1.350 . S
C2225 N2233 1.427 . S
C2226 H2217 0.930 . S
C2226 C2224 1.378 . S
C2226 C2227 1.367 . S
C2227 C2226 1.367 . S
C2227 C2229 1.433 . S
C2228 C2224 1.350 . S
C2228 C2225 1.463 . S
C2228 N2232 1.427 . S
C2229 H2219 0.929 . S
C2229 C2227 1.433 . S
C2229 N2232 1.384 . S
C2230 H2221 0.929 . S
C2230 C2222 1.378 . S
C2230 C2225 1.350 . S
C2231 H2218 0.929 . S
C2231 C2223 1.433 . S
C2231 N2233 1.384 . S
N2232 C2228 1.427 . S
N2232 C2229 1.384 . S
N2233 C2225 1.427 . S
N2233 C2231 1.384 . S
H2234 C2240 0.930 . S
H2235 C2244 0.930 . S
H2236 C2249 0.929 . S
H2237 C2247 0.929 . S
H2238 C2242 0.929 . S
H2239 C2248 0.929 . S
C2240 H2234 0.930 . S
C2240 C2241 1.367 . S
C2240 C2248 1.378 . S
C2241 C2240 1.367 . S
C2241 C2249 1.433 . S
C2242 H2238 0.929 . S
C2242 C2244 1.378 . S
C2242 C2246 1.350 . S
C2243 C2246 1.463 . S
C2243 C2248 1.350 . S
C2243 N2251 1.427 . S
C2244 H2235 0.930 . S
C2244 C2242 1.378 . S
C2244 C2245 1.367 . S
C2245 C2244 1.367 . S
C2245 C2247 1.433 . S
C2246 C2242 1.350 . S
C2246 C2243 1.463 . S
C2246 N2250 1.427 . S
C2247 H2237 0.929 . S
C2247 C2245 1.433 . S
C2247 N2250 1.384 . S
C2248 H2239 0.929 . S
C2248 C2240 1.378 . S
C2248 C2243 1.350 . S
C2249 H2236 0.929 . S
C2249 C2241 1.433 . S
C2249 N2251 1.384 . S
N2250 C2246 1.427 . S
N2250 C2247 1.384 . S
N2251 C2243 1.427 . S
N2251 C2249 1.384 . S
H2252 C2258 0.930 . S
H2253 C2262 0.930 . S
H2254 C2267 0.929 . S
H2255 C2265 0.929 . S
H2256 C2260 0.929 . S
H2257 C2266 0.929 . S
C2258 H2252 0.930 . S
C2258 C2259 1.367 . S
C2258 C2266 1.378 . S
C2259 C2258 1.367 . S
C2259 C2267 1.433 . S
C2260 H2256 0.929 . S
C2260 C2262 1.378 . S
C2260 C2264 1.350 . S
C2261 C2264 1.463 . S
C2261 C2266 1.350 . S
C2261 N2269 1.427 . S
C2262 H2253 0.930 . S
C2262 C2260 1.378 . S
C2262 C2263 1.367 . S
C2263 C2262 1.367 . S
C2263 C2265 1.433 . S
C2264 C2260 1.350 . S
C2264 C2261 1.463 . S
C2264 N2268 1.427 . S
C2265 H2255 0.929 . S
C2265 C2263 1.433 . S
C2265 N2268 1.384 . S
C2266 H2257 0.929 . S
C2266 C2258 1.378 . S
C2266 C2261 1.350 . S
C2267 H2254 0.929 . S
C2267 C2259 1.433 . S
C2267 N2269 1.384 . S
N2268 C2264 1.427 . S
N2268 C2265 1.384 . S
N2269 C2261 1.427 . S
N2269 C2267 1.384 . S
H2270 C2276 0.909 1_556 S
H2271 C2280 0.930 . S
H2272 C2285 0.929 . S
H2273 C2283 0.929 . S
H2274 C2278 0.929 . S
H2275 C2284 0.929 . S
C2276 H2270 0.909 1_554 S
C2276 C2277 1.367 . S
C2276 C2284 1.378 . S
C2277 C2276 1.367 . S
C2277 C2285 1.433 . S
C2278 H2274 0.929 . S
C2278 C2280 1.378 . S
C2278 C2282 1.350 . S
C2279 C2282 1.463 . S
C2279 C2284 1.350 . S
C2279 N2287 1.427 . S
C2280 H2271 0.930 . S
C2280 C2278 1.378 . S
C2280 C2281 1.367 . S
C2281 C2280 1.367 . S
C2281 C2283 1.433 . S
C2282 C2278 1.350 . S
C2282 C2279 1.463 . S
C2282 N2286 1.427 . S
C2283 H2273 0.929 . S
C2283 C2281 1.433 . S
C2283 N2286 1.384 . S
C2284 H2275 0.929 . S
C2284 C2276 1.378 . S
C2284 C2279 1.350 . S
C2285 H2272 0.929 . S
C2285 C2277 1.433 . S
C2285 N2287 1.384 . S
N2286 C2282 1.427 . S
N2286 C2283 1.384 . S
N2287 C2279 1.427 . S
N2287 C2285 1.384 . S
H2288 C2294 0.930 . S
H2289 C2298 0.930 . S
H2290 C2303 0.929 . S
H2291 C2301 0.929 . S
H2292 C2296 0.929 . S
H2293 C2302 0.929 . S
C2294 H2288 0.930 . S
C2294 C2295 1.367 . S
C2294 C2302 1.378 . S
C2295 C2294 1.367 . S
C2295 C2303 1.433 . S
C2296 H2292 0.929 . S
C2296 C2298 1.378 . S
C2296 C2300 1.350 . S
C2297 C2300 1.463 . S
C2297 C2302 1.350 . S
C2297 N2305 1.427 . S
C2298 H2289 0.930 . S
C2298 C2296 1.378 . S
C2298 C2299 1.367 . S
C2299 C2298 1.367 . S
C2299 C2301 1.433 . S
C2300 C2296 1.350 . S
C2300 C2297 1.463 . S
C2300 N2304 1.427 . S
C2301 H2291 0.929 . S
C2301 C2299 1.433 . S
C2301 N2304 1.384 . S
C2302 H2293 0.929 . S
C2302 C2294 1.378 . S
C2302 C2297 1.350 . S
C2303 H2290 0.929 . S
C2303 C2295 1.433 . S
C2303 N2305 1.384 . S
N2304 C2300 1.427 . S
N2304 C2301 1.384 . S
N2305 C2297 1.427 . S
N2305 C2303 1.384 . S
H2306 C2312 0.930 . S
H2307 C2316 0.930 . S
H2308 C2321 0.929 . S
H2309 C2319 0.929 1_554 S
H2310 C2314 0.929 . S
H2311 C2320 0.929 . S
C2312 H2306 0.930 . S
C2312 C2313 1.367 . S
C2312 C2320 1.378 . S
C2313 C2312 1.367 . S
C2313 C2321 1.433 . S
C2314 H2310 0.929 . S
C2314 C2316 1.378 . S
C2314 C2318 1.350 . S
C2315 C2318 1.463 . S
C2315 C2320 1.350 . S
C2315 N2323 1.427 . S
C2316 H2307 0.930 . S
C2316 C2314 1.378 . S
C2316 C2317 1.367 . S
C2317 C2316 1.367 . S
C2317 C2319 1.433 . S
C2318 C2314 1.350 . S
C2318 C2315 1.463 . S
C2318 N2322 1.427 . S
C2319 H2309 0.929 1_556 S
C2319 C2317 1.433 . S
C2319 N2322 1.384 . S
C2320 H2311 0.929 . S
C2320 C2312 1.378 . S
C2320 C2315 1.350 . S
C2321 H2308 0.929 . S
C2321 C2313 1.433 . S
C2321 N2323 1.384 . S
N2322 C2318 1.427 . S
N2322 C2319 1.384 . S
N2323 C2315 1.427 . S
N2323 C2321 1.384 . S
H2324 C2330 0.930 . S
H2325 C2334 0.930 . S
H2326 C2339 0.929 . S
H2327 C2337 0.929 . S
H2328 C2332 0.929 . S
H2329 C2338 0.929 . S
C2330 H2324 0.930 . S
C2330 C2331 1.367 . S
C2330 C2338 1.378 . S
C2331 C2330 1.367 . S
C2331 C2339 1.433 . S
C2332 H2328 0.929 . S
C2332 C2334 1.378 . S
C2332 C2336 1.350 . S
C2333 C2336 1.463 . S
C2333 C2338 1.350 . S
C2333 N2341 1.427 . S
C2334 H2325 0.930 . S
C2334 C2332 1.378 . S
C2334 C2335 1.367 . S
C2335 C2334 1.367 . S
C2335 C2337 1.433 . S
C2336 C2332 1.350 . S
C2336 C2333 1.463 . S
C2336 N2340 1.427 . S
C2337 H2327 0.929 . S
C2337 C2335 1.433 . S
C2337 N2340 1.384 . S
C2338 H2329 0.929 . S
C2338 C2330 1.378 . S
C2338 C2333 1.350 . S
C2339 H2326 0.929 . S
C2339 C2331 1.433 . S
C2339 N2341 1.384 . S
N2340 C2336 1.427 . S
N2340 C2337 1.384 . S
N2341 C2333 1.427 . S
N2341 C2339 1.384 . S
H2342 C2348 0.930 . S
H2343 C2352 0.930 . S
H2344 C2357 0.929 . S
H2345 C2355 0.929 . S
H2346 C2350 0.929 . S
H2347 C2356 0.929 . S
C2348 H2342 0.930 . S
C2348 C2349 1.367 . S
C2348 C2356 1.378 . S
C2349 C2348 1.367 . S
C2349 C2357 1.433 . S
C2350 H2346 0.929 . S
C2350 C2352 1.378 . S
C2350 C2354 1.350 . S
C2351 C2354 1.463 . S
C2351 C2356 1.350 . S
C2351 N2359 1.427 . S
C2352 H2343 0.930 . S
C2352 C2350 1.378 . S
C2352 C2353 1.367 . S
C2353 C2352 1.367 . S
C2353 C2355 1.433 . S
C2354 C2350 1.350 . S
C2354 C2351 1.463 . S
C2354 N2358 1.427 . S
C2355 H2345 0.929 . S
C2355 C2353 1.433 . S
C2355 N2358 1.384 . S
C2356 H2347 0.929 . S
C2356 C2348 1.378 . S
C2356 C2351 1.350 . S
C2357 H2344 0.929 . S
C2357 C2349 1.433 . S
C2357 N2359 1.384 . S
N2358 C2354 1.427 . S
N2358 C2355 1.384 . S
N2359 C2351 1.427 . S
N2359 C2357 1.384 . S
H2360 C2366 0.930 . S
H2361 C2370 0.930 . S
H2362 C2375 0.929 . S
H2363 C2373 0.929 . S
H2364 C2368 0.929 . S
H2365 C2374 0.929 . S
C2366 H2360 0.930 . S
C2366 C2367 1.367 . S
C2366 C2374 1.378 . S
C2367 C2366 1.367 . S
C2367 C2375 1.433 . S
C2368 H2364 0.929 . S
C2368 C2370 1.378 . S
C2368 C2372 1.350 . S
C2369 C2372 1.463 . S
C2369 C2374 1.350 . S
C2369 N2377 1.427 . S
C2370 H2361 0.930 . S
C2370 C2368 1.378 . S
C2370 C2371 1.367 . S
C2371 C2370 1.367 . S
C2371 C2373 1.433 . S
C2372 C2368 1.350 . S
C2372 C2369 1.463 . S
C2372 N2376 1.427 . S
C2373 H2363 0.929 . S
C2373 C2371 1.433 . S
C2373 N2376 1.384 . S
C2374 H2365 0.929 . S
C2374 C2366 1.378 . S
C2374 C2369 1.350 . S
C2375 H2362 0.929 . S
C2375 C2367 1.433 . S
C2375 N2377 1.384 . S
N2376 C2372 1.427 . S
N2376 C2373 1.384 . S
N2377 C2369 1.427 . S
N2377 C2375 1.384 . S
H2378 C2384 0.930 . S
H2379 C2388 0.930 . S
H2380 C2393 0.929 . S
H2381 C2391 0.929 . S
H2382 C2386 0.929 . S
H2383 C2392 0.929 . S
C2384 H2378 0.930 . S
C2384 C2385 1.367 . S
C2384 C2392 1.378 . S
C2385 C2384 1.367 . S
C2385 C2393 1.433 . S
C2386 H2382 0.929 . S
C2386 C2388 1.378 . S
C2386 C2390 1.350 . S
C2387 C2390 1.463 . S
C2387 C2392 1.350 . S
C2387 N2395 1.427 . S
C2388 H2379 0.930 . S
C2388 C2386 1.378 . S
C2388 C2389 1.367 . S
C2389 C2388 1.367 . S
C2389 C2391 1.433 . S
C2390 C2386 1.350 . S
C2390 C2387 1.463 . S
C2390 N2394 1.427 . S
C2391 H2381 0.929 . S
C2391 C2389 1.433 . S
C2391 N2394 1.384 . S
C2392 H2383 0.929 . S
C2392 C2384 1.378 . S
C2392 C2387 1.350 . S
C2393 H2380 0.929 . S
C2393 C2385 1.433 . S
C2393 N2395 1.384 . S
N2394 C2390 1.427 . S
N2394 C2391 1.384 . S
N2395 C2387 1.427 . S
N2395 C2393 1.384 . S
H2396 C2402 0.930 . S
H2397 C2406 0.930 . S
H2398 C2411 0.929 . S
H2399 C2409 0.947 . S
H2400 C2404 0.929 . S
H2401 C2410 0.929 . S
C2402 H2396 0.930 . S
C2402 C2403 1.367 . S
C2402 C2410 1.378 . S
C2403 C2402 1.367 . S
C2403 C2411 1.433 . S
C2404 H2400 0.929 . S
C2404 C2406 1.378 . S
C2404 C2408 1.350 . S
C2405 C2408 1.463 . S
C2405 C2410 1.350 . S
C2405 N2413 1.427 . S
C2406 H2397 0.930 . S
C2406 C2404 1.378 . S
C2406 C2407 1.367 . S
C2407 C2406 1.367 . S
C2407 C2409 1.433 . S
C2408 C2404 1.350 . S
C2408 C2405 1.463 . S
C2408 N2412 1.427 . S
C2409 H2399 0.947 . S
C2409 C2407 1.433 . S
C2409 N2412 1.384 . S
C2410 H2401 0.929 . S
C2410 C2402 1.378 . S
C2410 C2405 1.350 . S
C2411 H2398 0.929 . S
C2411 C2403 1.433 . S
C2411 N2413 1.384 . S
N2412 C2408 1.427 . S
N2412 C2409 1.384 . S
N2413 C2405 1.427 . S
N2413 C2411 1.384 . S
H2414 C2420 0.930 . S
H2415 C2424 0.930 . S
H2416 C2429 0.929 . S
H2417 C2427 0.929 . S
H2418 C2422 0.929 . S
H2419 C2428 0.929 . S
C2420 H2414 0.930 . S
C2420 C2421 1.367 . S
C2420 C2428 1.378 . S
C2421 C2420 1.367 . S
C2421 C2429 1.433 . S
C2422 H2418 0.929 . S
C2422 C2424 1.378 . S
C2422 C2426 1.350 . S
C2423 C2426 1.463 . S
C2423 C2428 1.350 . S
C2423 N2431 1.427 . S
C2424 H2415 0.930 . S
C2424 C2422 1.378 . S
C2424 C2425 1.367 . S
C2425 C2424 1.367 . S
C2425 C2427 1.433 . S
C2426 C2422 1.350 . S
C2426 C2423 1.463 . S
C2426 N2430 1.427 . S
C2427 H2417 0.929 . S
C2427 C2425 1.433 . S
C2427 N2430 1.384 . S
C2428 H2419 0.929 . S
C2428 C2420 1.378 . S
C2428 C2423 1.350 . S
C2429 H2416 0.929 . S
C2429 C2421 1.433 . S
C2429 N2431 1.384 . S
N2430 C2426 1.427 . S
N2430 C2427 1.384 . S
N2431 C2423 1.427 . S
N2431 C2429 1.384 . S
C711 C10 1.215 . S
C715 C96 1.217 . S
C729 C30 1.218 . S
C733 C128 1.211 . S
C747 C150 1.214 . S
C751 C62 1.211 . S
C765 C172 1.210 . S
C769 C76 1.217 . S
C783 C194 1.196 . S
C787 C272 1.200 . S
C801 C304 1.195 . S
C805 C208 1.203 . S
C819 C326 1.205 . S
C823 C238 1.196 . S
C837 C338 1.204 . S
C841 C252 1.198 . S
C855 C448 1.215 . S
C859 C362 1.211 . S
C873 C472 1.213 . S
C877 C382 1.218 . S
C891 C502 1.215 . S
C895 C414 1.211 . S
C909 C524 1.213 . S
C913 C426 1.212 . S
C927 C634 1.204 . S
C931 C546 1.199 . S
C945 C656 1.195 . S
C949 C558 1.204 . S
C963 C590 1.196 . S
C967 C678 1.199 . S
C981 C690 1.201 . S
C985 C604 1.202 . S
C999 C18 1.445 . S
C1003 C285 1.419 . S
C1017 C645 1.419 . S
C1021 C32 1.445 . S
C1035 C52 1.444 . S
C1039 C315 1.425 . S
C1053 C84 1.444 . S
C1057 C703 1.424 . S
C1071 C183 1.427 . S
C1075 C98 1.444 . S
C1089 C118 1.444 . S
C1093 C571 1.427 . S
C1107 C227 1.426 . S
C1111 C140 1.444 . S
C1125 C609 1.420 . S
C1129 C162 1.445 . S
C1143 C109 1.410 . S
C1147 C186 1.438 . S
C1161 C206 1.435 . S
C1165 C477 1.419 . S
C1179 C139 1.409 . S
C1183 C230 1.438 . S
C1197 C513 1.418 . S
C1201 C250 1.435 . S
C1215 C15 1.419 . S
C1219 C282 1.435 . S
C1233 C296 1.438 . S
C1237 C395 1.408 . S
C1251 C318 1.435 . S
C1255 C51 1.417 . S
C1269 C439 1.412 . S
C1273 C348 1.437 . S
C1287 C623 1.427 . S
C1291 C370 1.444 . S
C1305 C384 1.445 . S
C1309 C293 1.419 . S
C1323 C404 1.444 . S
C1327 C667 1.428 . S
C1341 C428 1.444 . S
C1345 C351 1.427 . S
C1359 C535 1.419 . S
C1363 C450 1.445 . S
C1377 C480 1.443 . S
C1381 C213 1.429 . S
C1395 C579 1.424 . S
C1399 C492 1.444 . S
C1413 C257 1.429 . S
C1417 C514 1.443 . S
C1431 C461 1.416 . S
C1435 C538 1.436 . S
C1449 C117 1.415 . S
C1453 C568 1.437 . S
C1467 C491 1.419 . S
C1471 C582 1.435 . S
C1485 C161 1.414 . S
C1489 C602 1.436 . S
C1503 C367 1.417 . S
C1507 C626 1.436 . S
C1521 C43 1.412 . S
C1525 C648 1.437 . S
C1539 C403 1.419 . S
C1543 C670 1.435 . S
C1557 C81 1.413 . S
C1561 C700 1.437 . S
C1575 C615 1.488 . S
C1579 C21 1.476 . S
C1593 C29 1.473 . S
C1597 C191 1.491 1_455 S
C1611 C557 1.491 . S
C1615 C59 1.475 . S
C1629 C87 1.466 . S
C1633 C235 1.487 . S
C1647 C653 1.488 . S
C1651 C95 1.476 . S
C1665 C323 1.490 . S
C1669 C125 1.468 . S
C1683 C689 1.488 . S
C1687 C147 1.476 . S
C1701 C169 1.474 . S
C1705 C271 1.491 1_455 S
C1719 C197 1.477 . S
C1723 C433 1.495 . S
C1737 C205 1.471 . S
C1741 C7 1.496 1_655 S
C1755 C389 1.498 . S
C1759 C241 1.477 . S
C1773 C65 1.497 . S
C1777 C249 1.479 . S
C1791 C279 1.476 . S
C1795 C469 1.494 . S
C1809 C307 1.470 . S
C1813 C153 1.496 . S
C1827 C527 1.496 . S
C1831 C329 1.479 . S
C1845 C103 1.497 1_655 S
C1849 C345 1.474 . S
C1863 C263 1.491 . S
C1867 C373 1.475 . S
C1881 C381 1.475 . S
C1885 C543 1.491 . S
C1899 C219 1.490 . S
C1903 C411 1.467 . S
C1917 C587 1.487 1_655 S
C1921 C425 1.475 . S
C1935 C301 1.487 . S
C1939 C447 1.474 . S
C1953 C483 1.467 . S
C1957 C675 1.486 1_655 S
C1971 C499 1.472 . S
C1975 C337 1.491 . S
C1989 C631 1.489 . S
C1993 C521 1.467 . S
C2007 C73 1.495 . S
C2011 C549 1.477 . S
C2025 C359 1.493 . S
C2029 C565 1.468 . S
C2043 C593 1.479 . S
C2047 C37 1.497 . S
C2061 C601 1.478 . S
C2065 C417 1.495 1_455 S
C2079 C131 1.498 . S
C2083 C637 1.477 . S
C2097 C505 1.496 1_455 S
C2101 C659 1.479 . S
C2115 C681 1.477 . S
C2119 C175 1.498 . S
C2133 C455 1.495 . S
C2137 C697 1.470 . S
C2151 C164 0.956 . S
C2155 C8 0.971 . S
C2169 C40 0.953 . S
C2173 C106 0.974 . S
C2187 C54 0.953 . S
C2191 C120 0.974 . S
C2205 C142 0.962 . S
C2209 C74 0.965 . S
C2223 C184 0.993 . S
C2227 C340 0.978 . S
C2241 C274 0.993 . S
C2245 C216 0.977 . S
C2259 C294 0.977 . S
C2263 C228 0.994 . S
C2277 C260 0.981 . S
C2281 C316 0.988 . S
C2295 C360 0.965 . S
C2299 C516 0.962 . S
C2313 C458 0.964 . S
C2317 C392 0.964 . S
C2331 C470 0.957 . S
C2335 C406 0.971 . S
C2349 C494 0.962 . S
C2353 C436 0.967 . S
C2367 C536 0.976 . S
C2371 C692 0.994 . S
C2385 C624 0.994 . S
C2389 C560 0.976 . S
C2403 C580 0.990 . S
C2407 C646 0.982 . S
C2421 C668 0.976 . S
C2425 C612 0.994 . S
