# Generated by pormake.
# Topology qtz-e, (6)-cn, num edge types: 1
# Building blocks:
#     Node 0, Type 0, BuildingBlock: HISSIN_clean_sbu_0, # of connection points: 6
#     Node 1, Type 0, BuildingBlock: HISSIN_clean_sbu_0, # of connection points: 6
#     Node 2, Type 0, BuildingBlock: HISSIN_clean_sbu_0, # of connection points: 6
#     Node 3, Type 0, BuildingBlock: HISSIN_clean_sbu_0, # of connection points: 6
#     Node 4, Type 0, BuildingBlock: HISSIN_clean_sbu_0, # of connection points: 6
#     Node 5, Type 0, BuildingBlock: HISSIN_clean_sbu_0, # of connection points: 6
#     Edge 6, Type (0, 0), BuildingBlock: ZUJKAS_clean_linker_0, # of connection points: 2
#     Edge 7, Type (0, 0), BuildingBlock: ZUJKAS_clean_linker_0, # of connection points: 2
#     Edge 8, Type (0, 0), BuildingBlock: ZUJKAS_clean_linker_0, # of connection points: 2
#     Edge 9, Type (0, 0), BuildingBlock: ZUJKAS_clean_linker_0, # of connection points: 2
#     Edge 10, Type (0, 0), BuildingBlock: ZUJKAS_clean_linker_0, # of connection points: 2
#     Edge 11, Type (0, 0), BuildingBlock: ZUJKAS_clean_linker_0, # of connection points: 2
#     Edge 12, Type (0, 0), BuildingBlock: ZUJKAS_clean_linker_0, # of connection points: 2
#     Edge 13, Type (0, 0), BuildingBlock: ZUJKAS_clean_linker_0, # of connection points: 2
#     Edge 14, Type (0, 0), BuildingBlock: ZUJKAS_clean_linker_0, # of connection points: 2
#     Edge 15, Type (0, 0), BuildingBlock: ZUJKAS_clean_linker_0, # of connection points: 2
#     Edge 16, Type (0, 0), BuildingBlock: ZUJKAS_clean_linker_0, # of connection points: 2
#     Edge 17, Type (0, 0), BuildingBlock: ZUJKAS_clean_linker_0, # of connection points: 2
#     Edge 18, Type (0, 0), BuildingBlock: ZUJKAS_clean_linker_0, # of connection points: 2
#     Edge 19, Type (0, 0), BuildingBlock: ZUJKAS_clean_linker_0, # of connection points: 2
#     Edge 20, Type (0, 0), BuildingBlock: ZUJKAS_clean_linker_0, # of connection points: 2
#     Edge 21, Type (0, 0), BuildingBlock: ZUJKAS_clean_linker_0, # of connection points: 2
#     Edge 22, Type (0, 0), BuildingBlock: ZUJKAS_clean_linker_0, # of connection points: 2
#     Edge 23, Type (0, 0), BuildingBlock: ZUJKAS_clean_linker_0, # of connection points: 2
# Relax obj value: 0.140
# Max RMSD: 0.198
# Mean RMSD: 0.198
data_MOF--net-qtz-e--node1-HISSIN_clean_sbu_0--edge1-ZUJKAS_clean_linker_0
_symmetry_space_group_name_H-M    P1
_symmetry_Int_Tables_number       1
_symmetry_cell_setting            triclinic
loop_
_symmetry_equiv_pos_as_xyz
'x, y, z'
_cell_length_a     32.31401
_cell_length_b     32.344612
_cell_length_c     63.403015
_cell_angle_alpha  90.019257
_cell_angle_beta   89.991505
_cell_angle_gamma 119.98954
loop_
_atom_site_label
_atom_site_type_symbol
_atom_site_fract_x
_atom_site_fract_y
_atom_site_fract_z
_atom_type_partial_charge
Eu0 Eu 0.24518 0.46023 0.05233 0.0
Eu1 Eu 0.19313 0.35266 0.03102 0.0
C2 C 0.15084 0.4225 0.02574 0.0
C3 C 0.28071 0.56252 0.09143 0.0
C4 C 0.23815 0.53768 0.10299 0.0
C5 C 0.31212 0.62454 0.1182 0.0
C6 C 0.23261 0.55623 0.12208 0.0
C7 C 0.31755 0.60602 0.09914 0.0
C8 C 0.26963 0.59988 0.12998 0.0
C9 C 0.28816 0.54245 0.07192 0.0
O10 O 0.25177 0.40104 1.00844 0.0
O11 O 0.26198 0.47435 0.01764 0.0
C12 C 0.26674 0.44616 1.00408 0.0
O13 O 0.29652 0.43327 0.04855 0.0
O14 O 0.13302 0.29029 0.01649 0.0
O15 O 0.20082 0.29275 0.02051 0.0
O16 O 0.2428 0.35719 0.05706 0.0
C17 C 0.28665 0.39284 0.0573 0.0
O18 O 0.20345 0.40952 0.07871 0.0
O19 O 0.14939 0.34263 0.06028 0.0
O20 O 0.16155 0.39357 0.01573 0.0
O21 O 0.29903 0.50901 0.07452 0.0
O22 O 0.25712 0.53239 0.0568 0.0
O23 O 0.17052 0.44128 0.04394 0.0
C24 C 0.15921 0.25919 0.98926 0.0
C25 C 0.17565 0.2955 0.97405 0.0
C26 C 0.15287 0.20321 0.96217 0.0
C27 C 0.18136 0.28594 0.95311 0.0
C28 C 0.14729 0.21289 0.98318 0.0
C29 C 0.17082 0.23987 0.94699 0.0
C30 C 0.15879 0.27085 1.01161 0.0
C31 C 0.16405 0.36765 0.07784 0.0
H32 H 0.2094 0.50382 0.09733 0.0
H33 H 0.34171 0.65774 0.12393 0.0
H34 H 0.19924 0.53648 0.13057 0.0
H35 H 0.35085 0.62539 0.09053 0.0
H36 H 0.18522 0.33156 0.9785 0.0
H37 H 0.14487 0.16749 0.958 0.0
H38 H 0.19463 0.31481 0.94177 0.0
H39 H 0.13498 0.18458 0.99478 0.0
Eu40 Eu 0.71203 0.16565 0.37978 0.0
Eu41 Eu 0.7945 0.14518 0.35763 0.0
C42 C 0.69185 0.06522 0.36843 0.0
C43 C 0.62942 0.17829 0.4193 0.0
C44 C 0.60073 0.19905 0.42208 0.0
C45 C 0.63137 0.16983 0.45738 0.0
C46 C 0.58716 0.20493 0.44234 0.0
C47 C 0.64505 0.16412 0.43711 0.0
C48 C 0.60198 0.19006 0.46028 0.0
C49 C 0.64201 0.17096 0.39778 0.0
O50 O 0.75356 0.15628 0.33131 0.0
O51 O 0.7253 0.20044 0.34792 0.0
C52 C 0.73728 0.18633 0.3307 0.0
O53 O 0.78275 0.2272 0.38929 0.0
O54 O 0.80839 0.1027 0.33503 0.0
O55 O 0.86752 0.16155 0.35139 0.0
O56 O 0.82651 0.22468 0.36121 0.0
C57 C 0.82068 0.24735 0.37715 0.0
O58 O 0.74132 0.14281 0.40666 0.0
O59 O 0.80678 0.14118 0.39252 0.0
O60 O 0.73619 0.07687 0.37166 0.0
O61 O 0.67855 0.2074 0.38894 0.0
O62 O 0.64159 0.13091 0.39437 0.0
O63 O 0.68406 0.09825 0.36087 0.0
C64 C 0.87892 0.14897 0.31573 0.0
C65 C 0.8792 0.18835 0.30628 0.0
C66 C 0.92231 0.1432 0.28562 0.0
C67 C 0.9012 0.20528 0.2867 0.0
C68 C 0.9005 0.12645 0.30528 0.0
C69 C 0.92301 0.18289 0.27613 0.0
C70 C 0.85471 0.13045 0.33608 0.0
C71 C 0.77949 0.13835 0.40859 0.0
H72 H 0.58819 0.21009 0.40854 0.0
H73 H 0.64413 0.15866 0.47079 0.0
H74 H 0.56397 0.21998 0.44387 0.0
H75 H 0.66749 0.14825 0.43535 0.0
H76 H 0.86213 0.20584 0.31399 0.0
H77 H 0.93913 0.12543 0.27797 0.0
H78 H 0.90051 0.23547 0.2797 0.0
H79 H 0.90037 0.09584 0.31229 0.0
Eu80 Eu 0.55563 0.72757 0.71175 0.0
Eu81 Eu 0.66055 0.81043 0.69245 0.0
C82 C 0.63312 0.7047 0.69876 0.0
C83 C 0.46262 0.6423 0.75058 0.0
C84 C 0.49573 0.64951 0.76654 0.0
C85 C 0.39853 0.60511 0.77638 0.0
C86 C 0.48038 0.6342 0.78717 0.0
C87 C 0.41396 0.62019 0.75569 0.0
C88 C 0.43154 0.61176 0.79241 0.0
C89 C 0.47859 0.65769 0.72869 0.0
O90 O 0.61078 0.77483 0.66474 0.0
O91 O 0.53713 0.74639 0.68025 0.0
C92 C 0.56477 0.76014 0.66345 0.0
O93 O 0.56728 0.79788 0.72343 0.0
O94 O 0.72076 0.82551 0.67209 0.0
O95 O 0.71778 0.88388 0.68746 0.0
O96 O 0.61369 0.84328 0.69589 0.0
C97 C 0.58484 0.8365 0.71179 0.0
O98 O 0.60777 0.74741 0.73857 0.0
O99 O 0.67232 0.81887 0.72772 0.0
O100 O 0.66623 0.74763 0.70404 0.0
O101 O 0.48191 0.69792 0.72279 0.0
O102 O 0.5148 0.65367 0.72223 0.0
O103 O 0.59321 0.69982 0.6914 0.0
C104 C 0.74687 0.89581 0.65264 0.0
C105 C 0.70811 0.88421 0.63919 0.0
C106 C 0.80067 0.95069 0.62621 0.0
C107 C 0.71556 0.90515 0.61927 0.0
C108 C 0.79316 0.92931 0.64611 0.0
C109 C 0.76195 0.93846 0.6125 0.0
C110 C 0.73876 0.8717 0.67313 0.0
C111 C 0.64875 0.78648 0.74235 0.0
H112 H 0.5335 0.66643 0.76298 0.0
H113 H 0.36075 0.58864 0.77984 0.0
H114 H 0.50683 0.63935 0.79893 0.0
H115 H 0.38784 0.6145 0.74365 0.0
H116 H 0.67206 0.85867 0.64405 0.0
H117 H 0.8368 0.97605 0.62137 0.0
H118 H 0.68495 0.89554 0.60922 0.0
H119 H 0.82348 0.93858 0.65631 0.0
Eu120 Eu 0.73875 0.52977 0.05347 0.0
Eu121 Eu 0.78924 0.63715 0.03187 0.0
C122 C 0.83286 0.56812 0.02645 0.0
C123 C 0.7012 0.42784 0.09342 0.0
C124 C 0.74582 0.43466 0.09983 0.0
C125 C 0.66585 0.38312 0.12563 0.0
C126 C 0.7503 0.41552 0.11895 0.0
C127 C 0.66135 0.40195 0.10648 0.0
C128 C 0.71036 0.38964 0.13211 0.0
C129 C 0.69531 0.44829 0.07358 0.0
O130 O 0.72985 0.58759 1.00978 0.0
O131 O 0.72209 0.51519 0.0188 0.0
C132 C 0.71605 0.54273 1.00536 0.0
O133 O 0.68787 0.55717 0.04965 0.0
O134 O 0.84791 0.69965 0.01664 0.0
O135 O 0.78016 0.69655 0.02197 0.0
O136 O 0.74149 0.63231 0.05886 0.0
C137 C 0.69772 0.59664 0.05928 0.0
O138 O 0.78189 0.58096 0.0795 0.0
O139 O 0.83438 0.6481 0.06075 0.0
O140 O 0.822 0.59721 0.01663 0.0
O141 O 0.68426 0.48173 0.07566 0.0
O142 O 0.72646 0.45766 0.05855 0.0
O143 O 0.81304 0.54848 0.04453 0.0
C144 C 0.82028 0.73204 0.99056 0.0
C145 C 0.79451 0.69634 0.97558 0.0
C146 C 0.83782 0.79237 0.96383 0.0
C147 C 0.78972 0.70852 0.95496 0.0
C148 C 0.84233 0.78007 0.98454 0.0
C149 C 0.81091 0.75673 0.94884 0.0
C150 C 0.82168 0.71902 0.01265 0.0
C151 C 0.82083 0.62319 0.07837 0.0
H152 H 0.77728 0.455 0.09016 0.0
H153 H 0.6343 0.36296 0.13526 0.0
H154 H 0.78517 0.42166 0.1236 0.0
H155 H 0.62663 0.39639 0.10188 0.0
H156 H 0.77712 0.65902 0.97998 0.0
H157 H 0.85517 0.82979 0.95962 0.0
H158 H 0.76811 0.68008 0.94402 0.0
H159 H 0.86239 0.80807 0.99592 0.0
Eu160 Eu 0.27102 0.81877 0.3795 0.0
Eu161 Eu 0.1942 0.84648 0.35676 0.0
C162 C 0.29905 0.92091 0.36728 0.0
C163 C 0.3515 0.80187 0.41904 0.0
C164 C 0.33985 0.81998 0.43682 0.0
C165 C 0.39297 0.77394 0.44184 0.0
C166 C 0.35528 0.81567 0.45693 0.0
C167 C 0.37773 0.77845 0.42175 0.0
C168 C 0.38248 0.79301 0.45968 0.0
C169 C 0.33805 0.80841 0.39757 0.0
O170 O 0.23251 0.83072 0.33081 0.0
O171 O 0.25525 0.78253 0.34786 0.0
C172 C 0.24536 0.79798 0.33047 0.0
O173 O 0.19824 0.76157 0.3894 0.0
O174 O 0.18452 0.89092 0.33366 0.0
O175 O 0.12307 0.83536 0.35026 0.0
O176 O 0.15681 0.76667 0.36097 0.0
C177 C 0.16028 0.74337 0.37726 0.0
O178 O 0.24576 0.84695 0.40597 0.0
O179 O 0.18293 0.85295 0.39152 0.0
O180 O 0.25587 0.9131 0.37042 0.0
O181 O 0.29926 0.77291 0.38958 0.0
O182 O 0.34186 0.84976 0.3935 0.0
O183 O 0.30306 0.88542 0.35991 0.0
C184 C 0.11345 0.84761 0.31435 0.0
C185 C 0.11049 0.80653 0.30537 0.0
C186 C 0.07227 0.85523 0.28382 0.0
C187 C 0.08826 0.7897 0.28583 0.0
C188 C 0.09431 0.8719 0.30345 0.0
C189 C 0.06888 0.81385 0.27481 0.0
C190 C 0.13793 0.8659 0.33466 0.0
C191 C 0.20958 0.85477 0.40767 0.0
H192 H 0.31963 0.83824 0.43509 0.0
H193 H 0.41319 0.75565 0.44339 0.0
H194 H 0.34686 0.8311 0.47026 0.0
H195 H 0.38696 0.76412 0.40825 0.0
H196 H 0.12565 0.78763 0.31343 0.0
H197 H 0.05736 0.8744 0.27582 0.0
H198 H 0.08688 0.75816 0.2792 0.0
H199 H 0.09653 0.90382 0.31009 0.0
Eu200 Eu 0.43095 0.25871 0.71253 0.0
Eu201 Eu 0.32515 0.18258 0.69177 0.0
C202 C 0.35996 0.28969 0.69871 0.0
C203 C 0.52393 0.34129 0.75225 0.0
C204 C 0.49127 0.34064 0.76708 0.0
C205 C 0.58605 0.37424 0.77909 0.0
C206 C 0.50603 0.3573 0.78763 0.0
C207 C 0.57135 0.35805 0.75845 0.0
C208 C 0.55362 0.3743 0.7939 0.0
C209 C 0.50904 0.32516 0.73031 0.0
O210 O 0.37786 0.21698 0.66492 0.0
O211 O 0.44905 0.23796 0.68138 0.0
C212 C 0.42281 0.22745 0.6642 0.0
O213 O 0.41293 0.18628 0.72407 0.0
O214 O 0.26813 0.17285 0.67046 0.0
O215 O 0.26478 0.11126 0.68574 0.0
O216 O 0.36654 0.14398 0.69591 0.0
C217 C 0.39341 0.14792 0.71222 0.0
O218 O 0.37781 0.24139 0.73874 0.0
O219 O 0.31027 0.17373 0.72679 0.0
O220 O 0.32419 0.24785 0.70358 0.0
O221 O 0.50258 0.28317 0.72529 0.0
O222 O 0.47573 0.33241 0.72261 0.0
O223 O 0.39855 0.29104 0.69169 0.0
C224 C 0.2396 0.103 0.65039 0.0
C225 C 0.27887 0.1143 0.63729 0.0
C226 C 0.18661 0.04933 0.62342 0.0
C227 C 0.27208 0.09384 0.61729 0.0
C228 C 0.19346 0.07023 0.64341 0.0
C229 C 0.22586 0.06129 0.61008 0.0
C230 C 0.24715 0.12632 0.67105 0.0
C231 C 0.33481 0.20448 0.74184 0.0
H232 H 0.4544 0.32774 0.76272 0.0
H233 H 0.62303 0.38748 0.78336 0.0
H234 H 0.48002 0.35634 0.7987 0.0
H235 H 0.59713 0.35891 0.74727 0.0
H236 H 0.31482 0.1392 0.64251 0.0
H237 H 0.15059 0.02454 0.61822 0.0
H238 H 0.30307 0.10322 0.60753 0.0
H239 H 0.16277 0.06113 0.65333 0.0
H240 H 0.27996 0.73745 0.32242 0.0
H241 H 0.28316 0.70315 0.28846 0.0
H242 H 0.22071 0.77804 0.25792 0.0
H243 H 0.21703 0.81232 0.29176 0.0
H244 H 0.17809 0.67963 0.24674 0.0
H245 H 0.37591 0.77495 0.2393 0.0
H246 H 0.35264 0.74341 0.26369 0.0
H247 H 0.34537 0.79359 0.25749 0.0
C248 C 0.26711 0.74687 0.30848 0.0
C249 C 0.24862 0.77802 0.30984 0.0
C250 C 0.26914 0.72733 0.28906 0.0
C251 C 0.25272 0.7385 0.27063 0.0
C252 C 0.23381 0.76915 0.27194 0.0
H253 H 0.30036 0.69328 0.14021 0.0
H254 H 0.29486 0.72558 0.17429 0.0
C255 C 0.23195 0.78889 0.29131 0.0
C256 C 0.25465 0.71779 0.24999 0.0
H257 H 0.33177 0.71571 0.2137 0.0
C258 C 0.21166 0.68748 0.2395 0.0
C259 C 0.29852 0.72847 0.2405 0.0
C260 C 0.34583 0.76219 0.25068 0.0
C261 C 0.21136 0.66715 0.21985 0.0
C262 C 0.2552 0.67716 0.21054 0.0
C263 C 0.29819 0.70785 0.22094 0.0
C264 C 0.25737 0.65696 0.18981 0.0
C265 C 0.16422 0.6358 0.20902 0.0
C266 C 0.23829 0.60761 0.18724 0.0
C267 C 0.24174 0.58899 0.16779 0.0
C268 C 0.26446 0.6194 0.15052 0.0
C269 C 0.28325 0.66883 0.15319 0.0
C270 C 0.27992 0.68738 0.17264 0.0
H271 H 0.13496 0.64004 0.21593 0.0
H272 H 0.16679 0.64402 0.1919 0.0
H273 H 0.15458 0.59788 0.21076 0.0
H274 H 0.22147 0.58356 0.20039 0.0
H275 H 0.22758 0.55088 0.16646 0.0
H276 H 0.38391 0.2192 0.62497 0.0
H277 H 0.41629 0.21347 0.59102 0.0
H278 H 0.54062 0.22599 0.62224 0.0
H279 H 0.50899 0.23297 0.65631 0.0
H280 H 0.56533 0.27939 0.58713 0.0
H281 H 0.41728 0.09819 0.56807 0.0
H282 H 0.39683 0.13966 0.57287 0.0
H283 H 0.42433 0.12445 0.59386 0.0
C284 C 0.41821 0.22084 0.62467 0.0
C285 C 0.44373 0.22637 0.64345 0.0
C286 C 0.43652 0.21715 0.6052 0.0
C287 C 0.48042 0.21816 0.60405 0.0
C288 C 0.50651 0.22477 0.62271 0.0
H289 H 0.5754 0.12711 0.49342 0.0
H290 H 0.54894 0.13494 0.52857 0.0
C291 C 0.48838 0.22882 0.6422 0.0
C292 C 0.49939 0.21295 0.58339 0.0
H293 H 0.47153 0.14064 0.54014 0.0
C294 C 0.54489 0.24892 0.57691 0.0
C295 C 0.47313 0.17282 0.57014 0.0
C296 C 0.42542 0.13136 0.57666 0.0
C297 C 0.56438 0.24641 0.55743 0.0
C298 C 0.53722 0.20735 0.54378 0.0
C299 C 0.49217 0.17087 0.55045 0.0
C300 C 0.55482 0.20353 0.52254 0.0
C301 C 0.61424 0.28528 0.55185 0.0
C302 C 0.56672 0.23928 0.50732 0.0
C303 C 0.58244 0.23519 0.48726 0.0
C304 C 0.58618 0.19495 0.48184 0.0
C305 C 0.57385 0.159 0.49709 0.0
C306 C 0.55829 0.16323 0.51718 0.0
H307 H 0.63508 0.3041 0.56614 0.0
H308 H 0.63392 0.27067 0.54314 0.0
H309 H 0.61206 0.312 0.54166 0.0
H310 H 0.56339 0.27024 0.51088 0.0
H311 H 0.59192 0.26377 0.47603 0.0
H312 H 0.28364 0.39931 0.9721 0.0
H313 H 0.31383 0.42885 0.93669 0.0
H314 H 0.32686 0.56454 0.95238 0.0
H315 H 0.29651 0.53536 0.98786 0.0
H316 H 0.27904 0.52454 0.91348 0.0
H317 H 0.45211 0.52756 0.91886 0.0
H318 H 0.40059 0.47219 0.92647 0.0
H319 H 0.41792 0.52501 0.94186 0.0
C320 C 0.29338 0.43564 0.96816 0.0
C321 C 0.28785 0.46502 0.98297 0.0
C322 C 0.3108 0.45251 0.94788 0.0
C323 C 0.32313 0.49909 0.94195 0.0
C324 C 0.31778 0.52855 0.95665 0.0
H325 H 0.47495 0.65625 0.82952 0.0
H326 H 0.44851 0.6289 0.86557 0.0
C327 C 0.30054 0.5118 0.97697 0.0
C328 C 0.33996 0.51652 0.92018 0.0
H329 H 0.42957 0.54092 0.88503 0.0
C330 C 0.312 0.52822 0.90727 0.0
C331 C 0.38317 0.5217 0.91215 0.0
C332 C 0.41551 0.51138 0.92556 0.0
C333 C 0.3257 0.54423 0.88645 0.0
C334 C 0.36832 0.54832 0.87825 0.0
C335 C 0.3967 0.53739 0.89128 0.0
C336 C 0.38432 0.56442 0.85627 0.0
C337 C 0.29479 0.55728 0.87345 0.0
C338 C 0.35731 0.53697 0.83902 0.0
C339 C 0.37254 0.55225 0.81835 0.0
C340 C 0.4152 0.59538 0.81446 0.0
C341 C 0.44227 0.6226 0.83184 0.0
C342 C 0.4271 0.60716 0.8525 0.0
H343 H 0.26944 0.56245 0.88341 0.0
H344 H 0.31708 0.59045 0.86432 0.0
H345 H 0.27367 0.52812 0.86208 0.0
H346 H 0.32463 0.50342 0.84156 0.0
H347 H 0.35123 0.52986 0.80542 0.0
H348 H 0.77013 0.17617 0.29227 0.0
H349 H 0.76719 0.21147 0.25859 0.0
H350 H 0.69216 0.27479 0.28836 0.0
H351 H 0.69566 0.24041 0.32217 0.0
H352 H 0.69099 0.2003 0.23504 0.0
H353 H 0.80185 0.38924 0.25973 0.0
H354 H 0.79763 0.34038 0.27514 0.0
H355 H 0.75106 0.35538 0.27644 0.0
C356 C 0.75284 0.19747 0.29168 0.0
C357 C 0.73324 0.20553 0.30999 0.0
C358 C 0.75128 0.21772 0.27239 0.0
C359 C 0.73025 0.24654 0.271 0.0
C360 C 0.70965 0.25369 0.28914 0.0
H361 H 0.67105 0.39061 0.17025 0.0
H362 H 0.67652 0.35535 0.20356 0.0
C363 C 0.71137 0.23367 0.30845 0.0
C364 C 0.72926 0.26853 0.25054 0.0
H365 H 0.76201 0.37536 0.2267 0.0
C366 C 0.70681 0.2386 0.23318 0.0
C367 C 0.75001 0.31855 0.24809 0.0
C368 C 0.77691 0.35283 0.26577 0.0
C369 C 0.70356 0.25721 0.21361 0.0
C370 C 0.72374 0.30711 0.21127 0.0
C371 C 0.74644 0.33709 0.22856 0.0
C372 C 0.72112 0.32884 0.19105 0.0
C373 C 0.67756 0.22329 0.1957 0.0
C374 C 0.74497 0.32624 0.17303 0.0
C375 C 0.74194 0.34638 0.15395 0.0
C376 C 0.71489 0.36944 0.15253 0.0
C377 C 0.69159 0.37251 0.17072 0.0
C378 C 0.69489 0.35262 0.1898 0.0
H379 H 0.6556 0.18586 0.20125 0.0
H380 H 0.65398 0.23379 0.18737 0.0
H381 H 0.70403 0.22463 0.18417 0.0
H382 H 0.76594 0.3086 0.17372 0.0
H383 H 0.7601 0.34317 0.14023 0.0
H384 H 0.47363 0.74065 0.65444 0.0
H385 H 0.44138 0.74555 0.62024 0.0
H386 H 0.57642 0.78504 0.59077 0.0
H387 H 0.60923 0.78098 0.6249 0.0
H388 H 0.54176 0.8427 0.57845 0.0
H389 H 0.39925 0.6532 0.57119 0.0
H390 H 0.39587 0.68125 0.59505 0.0
H391 H 0.4463 0.67307 0.59057 0.0
C392 C 0.49638 0.74988 0.64067 0.0
C393 C 0.54403 0.76017 0.64249 0.0
C394 C 0.47777 0.75246 0.62107 0.0
C395 C 0.50618 0.76492 0.60281 0.0
C396 C 0.55369 0.77512 0.60458 0.0
H397 H 0.47077 0.80632 0.46984 0.0
H398 H 0.50029 0.80015 0.50453 0.0
C399 C 0.57238 0.77268 0.62416 0.0
C400 C 0.48708 0.76907 0.58201 0.0
H401 H 0.39881 0.707 0.54584 0.0
C402 C 0.51061 0.81294 0.57129 0.0
C403 C 0.44633 0.73032 0.57265 0.0
C404 C 0.42068 0.68167 0.58284 0.0
C405 C 0.49426 0.8193 0.55167 0.0
C406 C 0.4536 0.78052 0.5423 0.0
C407 C 0.42988 0.73674 0.55305 0.0
C408 C 0.43559 0.78438 0.5212 0.0
C409 C 0.52019 0.86777 0.54133 0.0
C410 C 0.38896 0.77649 0.51888 0.0
C411 C 0.37176 0.77953 0.49899 0.0
C412 C 0.40069 0.79004 0.48094 0.0
C413 C 0.44731 0.79765 0.48333 0.0
C414 C 0.46448 0.79471 0.50322 0.0
H415 H 0.54184 0.89638 0.55288 0.0
H416 H 0.54481 0.86776 0.52913 0.0
H417 H 0.49471 0.87646 0.53353 0.0
H418 H 0.36588 0.76813 0.53251 0.0
H419 H 0.33553 0.77293 0.49771 0.0
H420 H 0.68541 0.58324 0.97574 0.0
H421 H 0.65408 0.55324 0.94049 0.0
H422 H 0.6699 0.43027 0.95153 0.0
H423 H 0.69975 0.45921 0.987 0.0
H424 H 0.69543 0.53811 0.90771 0.0
H425 H 0.53655 0.36591 0.92916 0.0
H426 H 0.57014 0.41162 0.94844 0.0
H427 H 0.59052 0.3717 0.93989 0.0
C428 C 0.68163 0.54946 0.97079 0.0
C429 C 0.69469 0.52342 0.98434 0.0
C430 C 0.66379 0.53239 0.95058 0.0
C431 C 0.65871 0.48898 0.94339 0.0
C432 C 0.67201 0.46308 0.95685 0.0
H433 H 0.60965 0.35547 0.82009 0.0
H434 H 0.63492 0.38419 0.85624 0.0
C435 C 0.68938 0.47986 0.97715 0.0
C436 C 0.64162 0.472 0.92151 0.0
H437 H 0.55994 0.3759 0.89288 0.0
C438 C 0.66554 0.50278 0.90453 0.0
C439 C 0.60244 0.4259 0.91725 0.0
C440 C 0.57313 0.39208 0.93466 0.0
C441 C 0.65203 0.4884 0.88353 0.0
C442 C 0.61379 0.44204 0.87934 0.0
C443 C 0.58954 0.41133 0.8962 0.0
C444 C 0.59852 0.42491 0.85746 0.0
C445 C 0.67899 0.52247 0.86582 0.0
C446 C 0.56959 0.43824 0.84626 0.0
C447 C 0.55497 0.42179 0.82565 0.0
C448 C 0.56927 0.39192 0.81581 0.0
C449 C 0.59843 0.37881 0.82712 0.0
C450 C 0.61269 0.39495 0.84779 0.0
H451 H 0.71017 0.55603 0.8716 0.0
H452 H 0.69167 0.50519 0.8544 0.0
H453 H 0.65467 0.53156 0.85723 0.0
H454 H 0.5583 0.46134 0.85349 0.0
H455 H 0.53292 0.43292 0.81732 0.0
H456 H 0.2805 0.37084 0.09905 0.0
H457 H 0.34915 0.39511 0.12287 0.0
H458 H 0.44355 0.44053 0.06906 0.0
H459 H 0.37578 0.41752 0.04557 0.0
H460 H 0.46769 0.39593 0.1062 0.0
H461 H 0.43746 0.54679 0.12537 0.0
H462 H 0.39133 0.48531 0.12873 0.0
H463 H 0.40715 0.51042 0.10273 0.0
C464 C 0.31579 0.38406 0.0924 0.0
C465 C 0.32335 0.39233 0.0706 0.0
C466 C 0.35482 0.39809 0.10597 0.0
C467 C 0.40126 0.41969 0.09768 0.0
C468 C 0.4079 0.42355 0.07573 0.0
H469 H 0.61306 0.59043 0.05184 0.0
H470 H 0.5448 0.55448 0.0757 0.0
C471 C 0.3693 0.41046 0.06231 0.0
C472 C 0.44409 0.44665 0.11094 0.0
H473 H 0.51742 0.5655 0.11942 0.0
C474 C 0.47855 0.43247 0.11042 0.0
C475 C 0.45779 0.49397 0.11683 0.0
C476 C 0.42161 0.5103 0.11861 0.0
C477 C 0.52734 0.46645 0.11156 0.0
C478 C 0.54117 0.51536 0.11319 0.0
C479 C 0.50656 0.52803 0.11785 0.0
C480 C 0.58501 0.5512 0.10237 0.0
C481 C 0.56344 0.45068 0.10757 0.0
C482 C 0.6307 0.56411 0.10991 0.0
C483 C 0.66998 0.58549 0.09626 0.0
C484 C 0.66349 0.59369 0.07507 0.0
C485 C 0.61879 0.58514 0.06823 0.0
C486 C 0.57988 0.56451 0.08187 0.0
H487 H 0.54695 0.41121 0.10796 0.0
H488 H 0.58025 0.46361 0.09187 0.0
H489 H 0.59209 0.46622 0.11964 0.0
H490 H 0.63528 0.55405 0.12566 0.0
H491 H 0.70421 0.591 0.10163 0.0
H492 H 0.14877 0.68822 0.41182 0.0
H493 H 0.08877 0.60428 0.41694 0.0
H494 H 0.02598 0.60286 0.35672 0.0
H495 H 0.08508 0.68694 0.35161 0.0
H496 H 0.95885 0.55478 0.38819 0.0
H497 H 0.09581 0.49865 0.38455 0.0
H498 H 0.10533 0.54187 0.40456 0.0
H499 H 0.10862 0.55776 0.37721 0.0
C500 C 0.12202 0.67013 0.39972 0.0
C501 C 0.12198 0.69399 0.38118 0.0
C502 C 0.08791 0.6222 0.40266 0.0
C503 C 0.05369 0.59737 0.38702 0.0
C504 C 0.05235 0.62154 0.36892 0.0
H505 H 0.89611 0.30552 0.35198 0.0
H506 H 0.9524 0.39038 0.35697 0.0
C507 C 0.08618 0.66953 0.36602 0.0
C508 C 0.02041 0.54565 0.38894 0.0
H509 H 0.01599 0.4381 0.38954 0.0
C510 C 0.9712 0.52916 0.38866 0.0
C511 C 0.03696 0.51262 0.38935 0.0
C512 C 0.08953 0.52841 0.38876 0.0
C513 C 0.93786 0.48022 0.38829 0.0
C514 C 0.95444 0.44721 0.38863 0.0
C515 C 0.00361 0.46371 0.38942 0.0
C516 C 0.92152 0.39548 0.38646 0.0
C517 C 0.88539 0.46434 0.38661 0.0
C518 C 0.88622 0.37027 0.40165 0.0
C519 C 0.85375 0.32182 0.39879 0.0
C520 C 0.85649 0.29784 0.38079 0.0
C521 C 0.89297 0.32295 0.36598 0.0
C522 C 0.92518 0.3714 0.3688 0.0
H523 H 0.87947 0.49412 0.382 0.0
H524 H 0.8675 0.43513 0.37488 0.0
H525 H 0.86808 0.45062 0.40214 0.0
H526 H 0.88356 0.38815 0.41559 0.0
H527 H 0.82635 0.30331 0.4106 0.0
H528 H 0.43743 0.1378 0.74696 0.0
H529 H 0.46735 0.08234 0.7515 0.0
H530 H 0.40976 0.01988 0.69078 0.0
H531 H 0.37883 0.0745 0.68624 0.0
H532 H 0.39688 0.95294 0.72148 0.0
H533 H 0.58491 0.10225 0.71867 0.0
H534 H 0.5487 0.10715 0.73891 0.0
H535 H 0.53498 0.10979 0.71165 0.0
C536 C 0.4307 0.11193 0.73465 0.0
C537 C 0.40633 0.11088 0.7161 0.0
C538 C 0.44797 0.08045 0.73726 0.0
C539 C 0.44163 0.04789 0.72127 0.0
C540 C 0.4152 0.04506 0.70323 0.0
H541 H 0.59946 0.91159 0.68698 0.0
H542 H 0.56503 0.9632 0.69152 0.0
C543 C 0.39758 0.07627 0.70067 0.0
C544 C 0.46447 0.01832 0.72273 0.0
H545 H 0.57316 0.02491 0.72371 0.0
C546 C 0.43538 0.96853 0.7221 0.0
C547 C 0.51475 0.03908 0.72329 0.0
C548 C 0.54779 0.09248 0.72299 0.0
C549 C 0.45532 0.93876 0.72173 0.0
C550 C 0.50559 0.95952 0.72242 0.0
C551 C 0.53463 0.00928 0.72336 0.0
C552 C 0.52883 0.93035 0.72072 0.0
C553 C 0.42251 0.88552 0.71978 0.0
C554 C 0.52086 0.89581 0.73598 0.0
C555 C 0.54023 0.86608 0.73338 0.0
C556 C 0.56826 0.87082 0.71558 0.0
C557 C 0.57794 0.90696 0.70083 0.0
C558 C 0.55831 0.93646 0.70339 0.0
H559 H 0.386 0.8764 0.71469 0.0
H560 H 0.43691 0.86994 0.70831 0.0
H561 H 0.41952 0.86855 0.73534 0.0
H562 H 0.49907 0.89137 0.74971 0.0
H563 H 0.53256 0.8389 0.74515 0.0
H564 H 0.65467 0.69961 0.73994 0.0
H565 H 0.61327 0.62666 0.76108 0.0
H566 H 0.56302 0.5434 0.70402 0.0
H567 H 0.60054 0.6163 0.68305 0.0
H568 H 0.50562 0.57409 0.74874 0.0
H569 H 0.5869 0.4594 0.75097 0.0
H570 H 0.62202 0.52399 0.75035 0.0
H571 H 0.59775 0.4907 0.72635 0.0
C572 C 0.63629 0.66559 0.73192 0.0
C573 C 0.62967 0.66335 0.70992 0.0
C574 C 0.61293 0.62398 0.74404 0.0
C575 C 0.58519 0.57985 0.73408 0.0
C576 C 0.58476 0.57722 0.71196 0.0
H577 H 0.39829 0.37875 0.68309 0.0
H578 H 0.442 0.45121 0.7041 0.0
C579 C 0.60627 0.6188 0.69995 0.0
C580 C 0.54697 0.53892 0.74548 0.0
H581 H 0.50038 0.41906 0.74343 0.0
C582 C 0.50463 0.54012 0.74892 0.0
C583 C 0.54589 0.49488 0.74593 0.0
C584 C 0.59079 0.49214 0.74341 0.0
C585 C 0.46024 0.49794 0.74875 0.0
C586 C 0.45892 0.45429 0.74537 0.0
C587 C 0.50155 0.45273 0.74594 0.0
C588 C 0.41861 0.41504 0.73413 0.0
C589 C 0.41521 0.50086 0.74925 0.0
C590 C 0.38822 0.37169 0.74417 0.0
C591 C 0.36132 0.33057 0.73206 0.0
C592 C 0.36697 0.33232 0.71 0.0
C593 C 0.39325 0.37664 0.70004 0.0
C594 C 0.41839 0.41791 0.71205 0.0
H595 H 0.41995 0.53087 0.75941 0.0
H596 H 0.4069 0.50748 0.73304 0.0
H597 H 0.38447 0.46716 0.75517 0.0
H598 H 0.38823 0.36892 0.76119 0.0
H599 H 0.34069 0.29682 0.74009 0.0
H600 H 0.10457 0.39424 0.98758 0.0
H601 H 0.05361 0.42167 0.97123 0.0
H602 H 0.07492 0.51143 0.0252 0.0
H603 H 0.1255 0.48487 0.04145 0.0
H604 H 0.96991 0.41129 0.98699 0.0
H605 H 0.09743 0.60251 0.97684 0.0
H606 H 0.11654 0.55899 0.97999 0.0
H607 H 0.10447 0.58481 1.00275 0.0
C608 C 0.09851 0.42002 0.99587 0.0
C609 C 0.11905 0.43737 0.01582 0.0
C610 C 0.06974 0.43585 0.98644 0.0
C611 C 0.06177 0.46965 0.99672 0.0
C612 C 0.082 0.48661 0.01665 0.0
H613 H 0.85825 0.50529 0.0415 0.0
H614 H 0.90962 0.48001 0.025 0.0
C615 C 0.11042 0.47081 0.02607 0.0
C616 C 0.02819 0.48392 0.98827 0.0
H617 H 0.01561 0.58231 0.98806 0.0
C618 C 0.98 0.44868 0.98635 0.0
C619 C 0.04135 0.53258 0.98666 0.0
C620 C 0.09293 0.57177 0.98641 0.0
C621 C 0.94422 0.46109 0.98617 0.0
C622 C 0.95731 0.50963 0.98838 0.0
C623 C 0.00557 0.54497 0.98695 0.0
C624 C 0.92341 0.52331 0.99699 0.0
C625 C 0.89266 0.42193 0.98541 0.0
C626 C 0.91552 0.55751 0.98706 0.0
C627 C 0.88626 0.57259 0.99664 0.0
C628 C 0.86516 0.55407 0.01638 0.0
C629 C 0.87375 0.52025 0.02628 0.0
C630 C 0.90264 0.50519 0.01672 0.0
H631 H 0.88851 0.39175 0.9755 0.0
H632 H 0.88053 0.40797 1.00158 0.0
H633 H 0.8693 0.43509 0.97908 0.0
H634 H 0.93207 0.57256 0.97201 0.0
H635 H 0.88027 0.59869 0.98862 0.0
H636 H 0.29492 0.94281 0.40863 0.0
H637 H 0.36157 0.96855 0.43342 0.0
H638 H 0.45861 0.00343 0.38104 0.0
H639 H 0.39177 0.97366 0.35643 0.0
H640 H 0.41837 0.9119 0.42274 0.0
H641 H 0.52274 0.10318 0.43729 0.0
H642 H 0.46139 0.07516 0.42851 0.0
H643 H 0.50959 0.09592 0.40959 0.0
C644 C 0.33067 0.95739 0.40242 0.0
C645 C 0.33832 0.95527 0.38067 0.0
C646 C 0.36866 0.9723 0.41662 0.0
C647 C 0.41475 0.98768 0.409 0.0
C648 C 0.42316 0.99196 0.38716 0.0
H649 H 0.60051 0.00454 0.35736 0.0
H650 H 0.53318 0.96991 0.38174 0.0
C651 C 0.38509 0.97516 0.37309 0.0
C652 C 0.45221 0.98863 0.42253 0.0
H653 H 0.5717 0.0644 0.42543 0.0
C654 C 0.45173 0.94517 0.4246 0.0
C655 C 0.49529 0.03176 0.42564 0.0
C656 C 0.49696 0.07907 0.4253 0.0
C657 C 0.49464 0.94432 0.4247 0.0
C658 C 0.53803 0.9878 0.42303 0.0
C659 C 0.53819 0.03089 0.4261 0.0
C660 C 0.57699 0.99066 0.4099 0.0
C661 C 0.49302 0.8971 0.42332 0.0
C662 C 0.62363 0.01066 0.4177 0.0
C663 C 0.66214 0.02854 0.40365 0.0
C664 C 0.65419 0.02888 0.38183 0.0
C665 C 0.60741 0.00445 0.37409 0.0
C666 C 0.56901 0.98475 0.38804 0.0
H667 H 0.46606 0.87142 0.43452 0.0
H668 H 0.48198 0.88232 0.40717 0.0
H669 H 0.52825 0.90055 0.42693 0.0
H670 H 0.63043 0.01589 0.4345 0.0
H671 H 0.69798 0.04676 0.40999 0.0
H672 H 0.24512 0.13653 0.7554 0.0
H673 H 0.20735 0.13457 0.78931 0.0
H674 H 0.3358 0.26104 0.8092 0.0
H675 H 0.37371 0.26343 0.77576 0.0
H676 H 0.2432 0.13516 0.83308 0.0
H677 H 0.22522 0.29311 0.81447 0.0
H678 H 0.2334 0.25822 0.79436 0.0
H679 H 0.28353 0.30102 0.80957 0.0
C680 C 0.26542 0.16372 0.76705 0.0
C681 C 0.31238 0.2003 0.76274 0.0
C682 C 0.24377 0.16254 0.78638 0.0
C683 C 0.26862 0.19809 0.80155 0.0
C684 C 0.31582 0.2337 0.79754 0.0
H685 H 0.24922 0.29649 0.92302 0.0
H686 H 0.26697 0.28182 0.88731 0.0
C687 C 0.33747 0.23483 0.77838 0.0
C688 C 0.24572 0.19895 0.82163 0.0
H689 H 0.21571 0.26912 0.8505 0.0
C690 C 0.23637 0.16392 0.83686 0.0
C691 C 0.23697 0.23659 0.82639 0.0
C692 C 0.24486 0.27421 0.81029 0.0
C693 C 0.22088 0.16701 0.85722 0.0
C694 C 0.21379 0.2057 0.86223 0.0
C695 C 0.22133 0.2396 0.84666 0.0
C696 C 0.20194 0.21378 0.88389 0.0
C697 C 0.21459 0.13027 0.87349 0.0
C698 C 0.1592 0.18058 0.89377 0.0
C699 C 0.14887 0.18892 0.91426 0.0
C700 C 0.18092 0.23086 0.92511 0.0
C701 C 0.22343 0.26418 0.91502 0.0
C702 C 0.23376 0.25574 0.89464 0.0
H703 H 0.231 0.10883 0.8684 0.0
H704 H 0.23066 0.14762 0.88879 0.0
H705 H 0.17589 0.10551 0.87608 0.0
H706 H 0.13368 0.14842 0.8856 0.0
H707 H 0.11557 0.16287 0.92151 0.0
H708 H 0.91722 0.13107 0.24091 0.0
H709 H 0.95668 0.16123 0.20678 0.0
H710 H 0.0206 0.30551 0.23003 0.0
H711 H 0.98174 0.27572 0.26423 0.0
H712 H 0.95002 0.23234 0.17917 0.0
H713 H 0.13403 0.28937 0.20707 0.0
H714 H 0.08135 0.24654 0.22122 0.0
H715 H 0.10053 0.309 0.22265 0.0
C716 C 0.93997 0.1692 0.2388 0.0
C717 C 0.9465 0.201 0.25532 0.0
C718 C 0.96222 0.18635 0.21927 0.0
C719 C 0.99184 0.23552 0.21597 0.0
C720 C -0.0018 0.26738 0.23234 0.0
H721 H 0.17455 0.41374 0.11533 0.0
H722 H 0.1305 0.38077 0.14807 0.0
C723 C 0.9757 0.25032 0.25181 0.0
C724 C 0.01613 0.25367 0.19541 0.0
H725 H 0.12622 0.3106 0.17227 0.0
C726 C 0.98851 0.24927 0.17758 0.0
C727 C 0.06632 0.27584 0.19347 0.0
C728 C 0.09746 0.28029 0.21204 0.0
C729 C 0.00992 0.26756 0.15789 0.0
C730 C 0.06023 0.28973 0.1559 0.0
C731 C 0.08771 0.2937 0.17377 0.0
C732 C 0.08538 0.30973 0.13557 0.0
C733 C 0.97854 0.26425 0.13959 0.0
C734 C 0.07485 0.28078 0.11758 0.0
C735 C 0.09977 0.29967 0.09871 0.0
C736 C 0.13626 0.34773 0.09754 0.0
C737 C 0.14678 0.37655 0.11562 0.0
C738 C 0.12161 0.35775 0.1344 0.0
H739 H 0.94357 0.25908 0.14503 0.0
H740 H -0.00384 0.29685 0.12966 0.0
H741 H 0.97142 0.23315 0.12964 0.0
H742 H 0.04792 0.24334 0.11821 0.0
H743 H 0.09102 0.27635 0.08516 0.0
H744 H 0.81846 0.0324 0.60162 0.0
H745 H 0.82728 0.06842 0.5667 0.0
H746 H 0.73247 0.92945 0.54038 0.0
H747 H 0.72292 0.89342 0.57524 0.0
H748 H 0.85956 0.05557 0.52882 0.0
H749 H 0.66845 0.00378 0.52259 0.0
H750 H 0.69461 -0.00132 0.54686 0.0
H751 H 0.67732 0.95388 0.52668 0.0
C752 C 0.79977 0.00953 0.58834 0.0
C753 C 0.76956 0.96017 0.5912 0.0
C754 C 0.80477 0.03014 0.56842 0.0
C755 C 0.77978 0.00176 0.55101 0.0
C756 C 0.75107 0.95222 0.55369 0.0
H757 H 0.82555 0.08903 0.41847 0.0
H758 H 0.82947 0.05772 0.45316 0.0
C759 C 0.7457 0.93168 0.5736 0.0
C760 C 0.78306 0.02406 0.53015 0.0
H761 H 0.71563 0.03615 0.49187 0.0
C762 C 0.82815 0.05151 0.52074 0.0
C763 C 0.7421 0.01922 0.51977 0.0
C764 C 0.69296 0.99271 0.52956 0.0
C765 C 0.83334 0.07392 0.50113 0.0
C766 C 0.79218 0.06788 0.49048 0.0
C767 C 0.74718 0.04058 0.49997 0.0
C768 C 0.79453 0.09042 0.46976 0.0
C769 C 0.88289 0.1047 0.49229 0.0
C770 C 0.77354 0.11908 0.46748 0.0
C771 C 0.77063 0.1363 0.4477 0.0
C772 C 0.78895 0.12554 0.42973 0.0
C773 C 0.81173 0.09846 0.43208 0.0
C774 C 0.81408 0.08064 0.45192 0.0
H775 H 0.91059 0.11649 0.5048 0.0
H776 H 0.89029 0.08378 0.48054 0.0
H777 H 0.8862 0.13676 0.4843 0.0
H778 H 0.75827 0.12718 0.48099 0.0
H779 H 0.75299 0.15721 0.44642 0.0
H780 H 0.7297 0.86338 0.75877 0.0
H781 H 0.76438 0.86974 0.7939 0.0
H782 H 0.65089 0.72775 0.80883 0.0
H783 H 0.61579 0.7214 0.77431 0.0
H784 H 0.66738 0.79039 0.84068 0.0
H785 H 0.83748 0.8041 0.81357 0.0
H786 H 0.82495 0.84837 0.80317 0.0
H787 H 0.78718 0.78672 0.79621 0.0
C788 C 0.71213 0.83359 0.76957 0.0
C789 C 0.66991 0.79191 0.76366 0.0
C790 C 0.73216 0.83716 0.78958 0.0
C791 C 0.71055 0.79896 0.80389 0.0
C792 C 0.66821 0.75769 0.79807 0.0
H793 H 0.80784 0.71236 0.91148 0.0
H794 H 0.78663 0.7282 0.87663 0.0
C795 C 0.64813 0.75418 0.77824 0.0
C796 C 0.7312 0.80126 0.82506 0.0
H797 H 0.82696 0.80611 0.85028 0.0
C798 C 0.70246 0.79426 0.84282 0.0
C799 C 0.77674 0.80573 0.82775 0.0
C800 C 0.80835 0.81126 0.8092 0.0
C801 C 0.71742 0.79043 0.86314 0.0
C802 C 0.76301 0.79501 0.86586 0.0
C803 C 0.79222 0.80302 0.84816 0.0
C804 C 0.77948 0.78823 0.88676 0.0
C805 C 0.6833 0.77931 0.88134 0.0
C806 C 0.78367 0.81743 0.90395 0.0
C807 C 0.79504 0.80798 0.924 0.0
C808 C 0.80301 0.76944 0.92721 0.0
C809 C 0.80097 0.74169 0.90971 0.0
C810 C 0.78929 0.75098 0.88971 0.0
H811 H 0.64602 0.76561 0.87586 0.0
H812 H 0.68386 0.75242 0.89204 0.0
H813 H 0.6942 0.81237 0.89054 0.0
H814 H 0.77717 0.84695 0.90195 0.0
H815 H 0.79598 0.82995 0.93708 0.0
H816 H 0.00588 0.7215 0.26364 0.0
H817 H 0.96671 0.69171 0.22949 0.0
H818 H 0.03811 0.83519 0.20495 0.0
H819 H 0.0779 0.8653 0.23901 0.0
H820 H 0.90647 0.72247 0.20766 0.0
H821 H 0.06599 0.75454 0.16123 0.0
H822 H 0.0642 0.75084 0.18968 0.0
H823 H 0.07168 0.80358 0.17685 0.0
C824 C 0.01363 0.74669 0.25092 0.0
C825 C 0.04512 0.79577 0.25403 0.0
C826 C 0.99105 0.72962 0.23146 0.0
C827 C -0.0001 0.76118 0.21465 0.0
C828 C 0.03124 0.81018 0.21766 0.0
H829 H 0.89517 0.71437 0.08484 0.0
H830 H 0.93851 0.74884 0.11777 0.0
C831 C 0.0536 0.82735 0.23718 0.0
C832 C 0.97514 0.74281 0.19419 0.0
H833 H 0.99345 0.72581 0.1426 0.0
C834 C 0.92541 0.72313 0.19342 0.0
C835 C 7e-05 0.74413 0.17564 0.0
C836 C 0.05341 0.76408 0.17576 0.0
C837 C 0.89987 0.7049 0.17456 0.0
C838 C 0.9246 0.70519 0.15606 0.0
C839 C 0.97449 0.72545 0.15678 0.0
C840 C 0.89917 0.68392 0.13592 0.0
C841 C 0.84674 0.68638 0.17457 0.0
C842 C 0.86339 0.6357 0.13503 0.0
C843 C 0.83838 0.61598 0.11631 0.0
C844 C 0.84902 0.64389 0.09793 0.0
C845 C 0.88593 0.69185 0.09868 0.0
C846 C 0.91077 0.71163 0.1175 0.0
H847 H 0.83609 0.70167 0.18778 0.0
H848 H 0.83501 0.69481 0.15951 0.0
H849 H 0.82752 0.64704 0.17654 0.0
H850 H 0.8547 0.61322 0.14887 0.0
H851 H 0.8106 0.57878 0.11629 0.0
H852 H 0.26726 0.10705 0.57325 0.0
H853 H 0.25801 0.072 0.53817 0.0
H854 H 0.16091 0.93269 0.5636 0.0
H855 H 0.16928 0.96778 0.59865 0.0
H856 H 0.28133 0.00906 0.52511 0.0
H857 H 0.08717 0.93346 0.51281 0.0
H858 H 0.11923 0.97475 0.53388 0.0
H859 H 0.0999 0.91228 0.53671 0.0
C860 C 0.24373 0.06897 0.57132 0.0
C861 C 0.21888 0.04015 0.58868 0.0
C862 C 0.23836 0.049 0.55126 0.0
C863 C 0.20814 -0.0002 0.54813 0.0
C864 C 0.18333 0.97092 0.56546 0.0
H865 H 0.23846 0.84043 0.44596 0.0
H866 H 0.23541 0.87475 0.47977 0.0
C867 C 0.18831 0.99097 0.58551 0.0
C868 C 0.20496 0.97845 0.52701 0.0
H869 H 0.12651 0.90611 0.48932 0.0
C870 C 0.24746 0.98685 0.51724 0.0
C871 C 0.16088 0.95011 0.51653 0.0
C872 C 0.11427 0.94252 0.52542 0.0
C873 C 0.24707 0.96683 0.49756 0.0
C874 C 0.2028 0.93625 0.48765 0.0
C875 C 0.16035 0.92889 0.4971 0.0
C876 C 0.2001 0.91158 0.46751 0.0
C877 C 0.29425 0.97929 0.48747 0.0
C878 C 0.1787 0.91853 0.4496 0.0
C879 C 0.17957 0.89812 0.43024 0.0
C880 C 0.20206 0.87063 0.4285 0.0
C881 C 0.22139 0.86193 0.4467 0.0
C882 C 0.21999 0.88181 0.46603 0.0
H883 H 0.32379 0.01358 0.49362 0.0
H884 H 0.30299 0.95098 0.49117 0.0
H885 H 0.29278 0.98205 0.47006 0.0
H886 H 0.16278 0.94106 0.45044 0.0
H887 H 0.16451 0.9056 0.41649 0.0
loop_
_geom_bond_atom_site_label_1
_geom_bond_atom_site_label_2
_geom_bond_distance
_geom_bond_site_symmetry_2
_ccdc_geom_bond_type
Eu0 C9 2.828 . S
Eu0 O11 2.392 . S
Eu0 O13 2.418 . S
Eu0 O18 2.373 . S
Eu0 O21 2.488 . S
Eu0 O22 2.471 . S
Eu0 O23 2.349 . S
Eu1 O10 2.373 1_554 S
Eu1 O14 2.488 1_554 S
Eu1 O15 2.471 1_554 S
Eu1 O16 2.349 . S
Eu1 O19 2.392 . S
Eu1 O20 2.418 . S
Eu1 C30 2.828 1_554 S
C2 O20 1.244 . S
C2 O23 1.265 . S
C3 C4 1.379 . S
C3 C7 1.373 . S
C3 C9 1.505 . S
C4 C3 1.379 . S
C4 C6 1.369 . S
C4 H32 0.930 . S
C5 C7 1.383 . S
C5 C8 1.382 . S
C5 H33 0.930 . S
C6 C4 1.369 . S
C6 C8 1.392 . S
C6 H34 0.930 . S
C7 C3 1.373 . S
C7 C5 1.383 . S
C7 H35 0.931 . S
C8 C5 1.382 . S
C8 C6 1.392 . S
C9 Eu0 2.828 . S
C9 C3 1.505 . S
C9 O21 1.249 . S
C9 O22 1.244 . S
O10 Eu1 2.373 1_556 S
O10 C12 1.258 . S
O11 Eu0 2.392 . S
O11 C12 1.242 1_554 S
C12 O10 1.258 . S
C12 O11 1.242 1_556 S
O13 Eu0 2.418 . S
O13 C17 1.244 . S
O14 Eu1 2.488 1_556 S
O14 C30 1.249 . S
O15 Eu1 2.471 1_556 S
O15 C30 1.244 . S
O16 Eu1 2.349 . S
O16 C17 1.265 . S
C17 O13 1.244 . S
C17 O16 1.265 . S
O18 Eu0 2.373 . S
O18 C31 1.258 . S
O19 Eu1 2.392 . S
O19 C31 1.242 . S
O20 Eu1 2.418 . S
O20 C2 1.244 . S
O21 Eu0 2.488 . S
O21 C9 1.249 . S
O22 Eu0 2.471 . S
O22 C9 1.244 . S
O23 Eu0 2.349 . S
O23 C2 1.265 . S
C24 C25 1.379 . S
C24 C28 1.373 . S
C24 C30 1.505 . S
C25 C24 1.379 . S
C25 C27 1.369 . S
C25 H36 0.930 . S
C26 C28 1.383 . S
C26 C29 1.382 . S
C26 H37 0.930 . S
C27 C25 1.369 . S
C27 C29 1.392 . S
C27 H38 0.930 . S
C28 C24 1.373 . S
C28 C26 1.383 . S
C28 H39 0.931 . S
C29 C26 1.382 . S
C29 C27 1.392 . S
C30 Eu1 2.828 1_556 S
C30 O14 1.249 . S
C30 O15 1.244 . S
C30 C24 1.505 . S
C31 O18 1.258 . S
C31 O19 1.242 . S
H32 C4 0.930 . S
H33 C5 0.930 . S
H34 C6 0.930 . S
H35 C7 0.931 . S
H36 C25 0.930 . S
H37 C26 0.930 . S
H38 C27 0.930 . S
H39 C28 0.931 . S
Eu40 C49 2.828 . S
Eu40 O51 2.392 . S
Eu40 O53 2.418 . S
Eu40 O58 2.373 . S
Eu40 O61 2.488 . S
Eu40 O62 2.471 . S
Eu40 O63 2.349 . S
Eu41 O50 2.373 . S
Eu41 O54 2.488 . S
Eu41 O55 2.471 . S
Eu41 O56 2.349 . S
Eu41 O59 2.392 . S
Eu41 O60 2.418 . S
Eu41 C70 2.828 . S
C42 O60 1.244 . S
C42 O63 1.265 . S
C43 C44 1.379 . S
C43 C47 1.373 . S
C43 C49 1.505 . S
C44 C43 1.379 . S
C44 C46 1.369 . S
C44 H72 0.930 . S
C45 C47 1.383 . S
C45 C48 1.382 . S
C45 H73 0.930 . S
C46 C44 1.369 . S
C46 C48 1.392 . S
C46 H74 0.930 . S
C47 C43 1.373 . S
C47 C45 1.383 . S
C47 H75 0.931 . S
C48 C45 1.382 . S
C48 C46 1.392 . S
C49 Eu40 2.828 . S
C49 C43 1.505 . S
C49 O61 1.249 . S
C49 O62 1.244 . S
O50 Eu41 2.373 . S
O50 C52 1.258 . S
O51 Eu40 2.392 . S
O51 C52 1.242 . S
C52 O50 1.258 . S
C52 O51 1.242 . S
O53 Eu40 2.418 . S
O53 C57 1.244 . S
O54 Eu41 2.488 . S
O54 C70 1.249 . S
O55 Eu41 2.471 . S
O55 C70 1.244 . S
O56 Eu41 2.349 . S
O56 C57 1.265 . S
C57 O53 1.244 . S
C57 O56 1.265 . S
O58 Eu40 2.373 . S
O58 C71 1.258 . S
O59 Eu41 2.392 . S
O59 C71 1.242 . S
O60 Eu41 2.418 . S
O60 C42 1.244 . S
O61 Eu40 2.488 . S
O61 C49 1.249 . S
O62 Eu40 2.471 . S
O62 C49 1.244 . S
O63 Eu40 2.349 . S
O63 C42 1.265 . S
C64 C65 1.379 . S
C64 C68 1.373 . S
C64 C70 1.505 . S
C65 C64 1.379 . S
C65 C67 1.369 . S
C65 H76 0.930 . S
C66 C68 1.383 . S
C66 C69 1.382 . S
C66 H77 0.930 . S
C67 C65 1.369 . S
C67 C69 1.392 . S
C67 H78 0.930 . S
C68 C64 1.373 . S
C68 C66 1.383 . S
C68 H79 0.931 . S
C69 C66 1.382 . S
C69 C67 1.392 . S
C70 Eu41 2.828 . S
C70 O54 1.249 . S
C70 O55 1.244 . S
C70 C64 1.505 . S
C71 O58 1.258 . S
C71 O59 1.242 . S
H72 C44 0.930 . S
H73 C45 0.930 . S
H74 C46 0.930 . S
H75 C47 0.931 . S
H76 C65 0.930 . S
H77 C66 0.930 . S
H78 C67 0.930 . S
H79 C68 0.931 . S
Eu80 C89 2.828 . S
Eu80 O91 2.392 . S
Eu80 O93 2.418 . S
Eu80 O98 2.373 . S
Eu80 O101 2.488 . S
Eu80 O102 2.471 . S
Eu80 O103 2.349 . S
Eu81 O90 2.373 . S
Eu81 O94 2.488 . S
Eu81 O95 2.471 . S
Eu81 O96 2.349 . S
Eu81 O99 2.392 . S
Eu81 O100 2.418 . S
Eu81 C110 2.828 . S
C82 O100 1.244 . S
C82 O103 1.265 . S
C83 C84 1.379 . S
C83 C87 1.373 . S
C83 C89 1.505 . S
C84 C83 1.379 . S
C84 C86 1.369 . S
C84 H112 0.930 . S
C85 C87 1.383 . S
C85 C88 1.382 . S
C85 H113 0.930 . S
C86 C84 1.369 . S
C86 C88 1.392 . S
C86 H114 0.930 . S
C87 C83 1.373 . S
C87 C85 1.383 . S
C87 H115 0.931 . S
C88 C85 1.382 . S
C88 C86 1.392 . S
C89 Eu80 2.828 . S
C89 C83 1.505 . S
C89 O101 1.249 . S
C89 O102 1.244 . S
O90 Eu81 2.373 . S
O90 C92 1.258 . S
O91 Eu80 2.392 . S
O91 C92 1.242 . S
C92 O90 1.258 . S
C92 O91 1.242 . S
O93 Eu80 2.418 . S
O93 C97 1.244 . S
O94 Eu81 2.488 . S
O94 C110 1.249 . S
O95 Eu81 2.471 . S
O95 C110 1.244 . S
O96 Eu81 2.349 . S
O96 C97 1.265 . S
C97 O93 1.244 . S
C97 O96 1.265 . S
O98 Eu80 2.373 . S
O98 C111 1.258 . S
O99 Eu81 2.392 . S
O99 C111 1.242 . S
O100 Eu81 2.418 . S
O100 C82 1.244 . S
O101 Eu80 2.488 . S
O101 C89 1.249 . S
O102 Eu80 2.471 . S
O102 C89 1.244 . S
O103 Eu80 2.349 . S
O103 C82 1.265 . S
C104 C105 1.379 . S
C104 C108 1.373 . S
C104 C110 1.505 . S
C105 C104 1.379 . S
C105 C107 1.369 . S
C105 H116 0.930 . S
C106 C108 1.383 . S
C106 C109 1.382 . S
C106 H117 0.930 . S
C107 C105 1.369 . S
C107 C109 1.392 . S
C107 H118 0.930 . S
C108 C104 1.373 . S
C108 C106 1.383 . S
C108 H119 0.931 . S
C109 C106 1.382 . S
C109 C107 1.392 . S
C110 Eu81 2.828 . S
C110 O94 1.249 . S
C110 O95 1.244 . S
C110 C104 1.505 . S
C111 O98 1.258 . S
C111 O99 1.242 . S
H112 C84 0.930 . S
H113 C85 0.930 . S
H114 C86 0.930 . S
H115 C87 0.931 . S
H116 C105 0.930 . S
H117 C106 0.930 . S
H118 C107 0.930 . S
H119 C108 0.931 . S
Eu120 C129 2.828 . S
Eu120 O131 2.392 . S
Eu120 O133 2.418 . S
Eu120 O138 2.373 . S
Eu120 O141 2.488 . S
Eu120 O142 2.471 . S
Eu120 O143 2.349 . S
Eu121 O130 2.373 1_554 S
Eu121 O134 2.488 1_554 S
Eu121 O135 2.471 1_554 S
Eu121 O136 2.349 . S
Eu121 O139 2.392 . S
Eu121 O140 2.418 . S
Eu121 C150 2.828 1_554 S
C122 O140 1.244 . S
C122 O143 1.265 . S
C123 C124 1.379 . S
C123 C127 1.373 . S
C123 C129 1.505 . S
C124 C123 1.379 . S
C124 C126 1.369 . S
C124 H152 0.930 . S
C125 C127 1.383 . S
C125 C128 1.382 . S
C125 H153 0.930 . S
C126 C124 1.369 . S
C126 C128 1.392 . S
C126 H154 0.930 . S
C127 C123 1.373 . S
C127 C125 1.383 . S
C127 H155 0.931 . S
C128 C125 1.382 . S
C128 C126 1.392 . S
C129 Eu120 2.828 . S
C129 C123 1.505 . S
C129 O141 1.249 . S
C129 O142 1.244 . S
O130 Eu121 2.373 1_556 S
O130 C132 1.258 . S
O131 Eu120 2.392 . S
O131 C132 1.242 1_554 S
C132 O130 1.258 . S
C132 O131 1.242 1_556 S
O133 Eu120 2.418 . S
O133 C137 1.244 . S
O134 Eu121 2.488 1_556 S
O134 C150 1.249 . S
O135 Eu121 2.471 1_556 S
O135 C150 1.244 . S
O136 Eu121 2.349 . S
O136 C137 1.265 . S
C137 O133 1.244 . S
C137 O136 1.265 . S
O138 Eu120 2.373 . S
O138 C151 1.258 . S
O139 Eu121 2.392 . S
O139 C151 1.242 . S
O140 Eu121 2.418 . S
O140 C122 1.244 . S
O141 Eu120 2.488 . S
O141 C129 1.249 . S
O142 Eu120 2.471 . S
O142 C129 1.244 . S
O143 Eu120 2.349 . S
O143 C122 1.265 . S
C144 C145 1.379 . S
C144 C148 1.373 . S
C144 C150 1.505 . S
C145 C144 1.379 . S
C145 C147 1.369 . S
C145 H156 0.930 . S
C146 C148 1.383 . S
C146 C149 1.382 . S
C146 H157 0.930 . S
C147 C145 1.369 . S
C147 C149 1.392 . S
C147 H158 0.930 . S
C148 C144 1.373 . S
C148 C146 1.383 . S
C148 H159 0.931 . S
C149 C146 1.382 . S
C149 C147 1.392 . S
C150 Eu121 2.828 1_556 S
C150 O134 1.249 . S
C150 O135 1.244 . S
C150 C144 1.505 . S
C151 O138 1.258 . S
C151 O139 1.242 . S
H152 C124 0.930 . S
H153 C125 0.930 . S
H154 C126 0.930 . S
H155 C127 0.931 . S
H156 C145 0.930 . S
H157 C146 0.930 . S
H158 C147 0.930 . S
H159 C148 0.931 . S
Eu160 C169 2.828 . S
Eu160 O171 2.392 . S
Eu160 O173 2.418 . S
Eu160 O178 2.373 . S
Eu160 O181 2.488 . S
Eu160 O182 2.471 . S
Eu160 O183 2.349 . S
Eu161 O170 2.373 . S
Eu161 O174 2.488 . S
Eu161 O175 2.471 . S
Eu161 O176 2.349 . S
Eu161 O179 2.392 . S
Eu161 O180 2.418 . S
Eu161 C190 2.828 . S
C162 O180 1.244 . S
C162 O183 1.265 . S
C163 C164 1.379 . S
C163 C167 1.373 . S
C163 C169 1.505 . S
C164 C163 1.379 . S
C164 C166 1.369 . S
C164 H192 0.930 . S
C165 C167 1.383 . S
C165 C168 1.382 . S
C165 H193 0.930 . S
C166 C164 1.369 . S
C166 C168 1.392 . S
C166 H194 0.930 . S
C167 C163 1.373 . S
C167 C165 1.383 . S
C167 H195 0.931 . S
C168 C165 1.382 . S
C168 C166 1.392 . S
C169 Eu160 2.828 . S
C169 C163 1.505 . S
C169 O181 1.249 . S
C169 O182 1.244 . S
O170 Eu161 2.373 . S
O170 C172 1.258 . S
O171 Eu160 2.392 . S
O171 C172 1.242 . S
C172 O170 1.258 . S
C172 O171 1.242 . S
O173 Eu160 2.418 . S
O173 C177 1.244 . S
O174 Eu161 2.488 . S
O174 C190 1.249 . S
O175 Eu161 2.471 . S
O175 C190 1.244 . S
O176 Eu161 2.349 . S
O176 C177 1.265 . S
C177 O173 1.244 . S
C177 O176 1.265 . S
O178 Eu160 2.373 . S
O178 C191 1.258 . S
O179 Eu161 2.392 . S
O179 C191 1.242 . S
O180 Eu161 2.418 . S
O180 C162 1.244 . S
O181 Eu160 2.488 . S
O181 C169 1.249 . S
O182 Eu160 2.471 . S
O182 C169 1.244 . S
O183 Eu160 2.349 . S
O183 C162 1.265 . S
C184 C185 1.379 . S
C184 C188 1.373 . S
C184 C190 1.505 . S
C185 C184 1.379 . S
C185 C187 1.369 . S
C185 H196 0.930 . S
C186 C188 1.383 . S
C186 C189 1.382 . S
C186 H197 0.930 . S
C187 C185 1.369 . S
C187 C189 1.392 . S
C187 H198 0.930 . S
C188 C184 1.373 . S
C188 C186 1.383 . S
C188 H199 0.931 . S
C189 C186 1.382 . S
C189 C187 1.392 . S
C190 Eu161 2.828 . S
C190 O174 1.249 . S
C190 O175 1.244 . S
C190 C184 1.505 . S
C191 O178 1.258 . S
C191 O179 1.242 . S
H192 C164 0.930 . S
H193 C165 0.930 . S
H194 C166 0.930 . S
H195 C167 0.931 . S
H196 C185 0.930 . S
H197 C186 0.930 . S
H198 C187 0.930 . S
H199 C188 0.931 . S
Eu200 C209 2.828 . S
Eu200 O211 2.392 . S
Eu200 O213 2.418 . S
Eu200 O218 2.373 . S
Eu200 O221 2.488 . S
Eu200 O222 2.471 . S
Eu200 O223 2.349 . S
Eu201 O210 2.373 . S
Eu201 O214 2.488 . S
Eu201 O215 2.471 . S
Eu201 O216 2.349 . S
Eu201 O219 2.392 . S
Eu201 O220 2.418 . S
Eu201 C230 2.828 . S
C202 O220 1.244 . S
C202 O223 1.265 . S
C203 C204 1.379 . S
C203 C207 1.373 . S
C203 C209 1.505 . S
C204 C203 1.379 . S
C204 C206 1.369 . S
C204 H232 0.930 . S
C205 C207 1.383 . S
C205 C208 1.382 . S
C205 H233 0.930 . S
C206 C204 1.369 . S
C206 C208 1.392 . S
C206 H234 0.930 . S
C207 C203 1.373 . S
C207 C205 1.383 . S
C207 H235 0.931 . S
C208 C205 1.382 . S
C208 C206 1.392 . S
C209 Eu200 2.828 . S
C209 C203 1.505 . S
C209 O221 1.249 . S
C209 O222 1.244 . S
O210 Eu201 2.373 . S
O210 C212 1.258 . S
O211 Eu200 2.392 . S
O211 C212 1.242 . S
C212 O210 1.258 . S
C212 O211 1.242 . S
O213 Eu200 2.418 . S
O213 C217 1.244 . S
O214 Eu201 2.488 . S
O214 C230 1.249 . S
O215 Eu201 2.471 . S
O215 C230 1.244 . S
O216 Eu201 2.349 . S
O216 C217 1.265 . S
C217 O213 1.244 . S
C217 O216 1.265 . S
O218 Eu200 2.373 . S
O218 C231 1.258 . S
O219 Eu201 2.392 . S
O219 C231 1.242 . S
O220 Eu201 2.418 . S
O220 C202 1.244 . S
O221 Eu200 2.488 . S
O221 C209 1.249 . S
O222 Eu200 2.471 . S
O222 C209 1.244 . S
O223 Eu200 2.349 . S
O223 C202 1.265 . S
C224 C225 1.379 . S
C224 C228 1.373 . S
C224 C230 1.505 . S
C225 C224 1.379 . S
C225 C227 1.369 . S
C225 H236 0.930 . S
C226 C228 1.383 . S
C226 C229 1.382 . S
C226 H237 0.930 . S
C227 C225 1.369 . S
C227 C229 1.392 . S
C227 H238 0.930 . S
C228 C224 1.373 . S
C228 C226 1.383 . S
C228 H239 0.931 . S
C229 C226 1.382 . S
C229 C227 1.392 . S
C230 Eu201 2.828 . S
C230 O214 1.249 . S
C230 O215 1.244 . S
C230 C224 1.505 . S
C231 O218 1.258 . S
C231 O219 1.242 . S
H232 C204 0.930 . S
H233 C205 0.930 . S
H234 C206 0.930 . S
H235 C207 0.931 . S
H236 C225 0.930 . S
H237 C226 0.930 . S
H238 C227 0.930 . S
H239 C228 0.931 . S
H240 C248 0.929 . S
H241 C250 0.930 . S
H242 C252 0.930 . S
H243 C255 0.929 . S
H244 C258 0.930 . S
H245 C260 0.960 . S
H246 C260 0.960 . S
H247 C260 0.960 . S
C248 H240 0.929 . S
C248 C249 1.377 . S
C248 C250 1.384 . S
C249 C248 1.377 . S
C249 C255 1.390 . S
C250 H241 0.930 . S
C250 C248 1.384 . S
C250 C251 1.372 . S
C251 C250 1.372 . S
C251 C252 1.400 . S
C251 C256 1.490 . S
C252 H242 0.930 . S
C252 C251 1.400 . S
C252 C255 1.386 . S
H253 C269 0.930 . S
H254 C270 0.931 . S
C255 H243 0.929 . S
C255 C249 1.390 . S
C255 C252 1.386 . S
C256 C251 1.490 . S
C256 C258 1.395 . S
C256 C259 1.403 . S
H257 C263 0.930 . S
C258 H244 0.930 . S
C258 C256 1.395 . S
C258 C261 1.403 . S
C259 C256 1.403 . S
C259 C260 1.524 . S
C259 C263 1.400 . S
C260 H245 0.960 . S
C260 H246 0.960 . S
C260 H247 0.960 . S
C260 C259 1.524 . S
C261 C258 1.403 . S
C261 C262 1.392 . S
C261 C265 1.495 . S
C262 C261 1.392 . S
C262 C263 1.385 . S
C262 C264 1.478 . S
C263 H257 0.930 . S
C263 C259 1.400 . S
C263 C262 1.385 . S
C264 C262 1.478 . S
C264 C266 1.381 . S
C264 C270 1.383 . S
C265 C261 1.495 . S
C265 H271 0.959 . S
C265 H272 0.961 . S
C265 H273 0.960 . S
C266 C264 1.381 . S
C266 C267 1.394 . S
C266 H274 0.930 . S
C267 C266 1.394 . S
C267 C268 1.383 . S
C267 H275 0.929 . S
C268 C267 1.383 . S
C268 C269 1.377 . S
C269 H253 0.930 . S
C269 C268 1.377 . S
C269 C270 1.379 . S
C270 H254 0.931 . S
C270 C264 1.383 . S
C270 C269 1.379 . S
H271 C265 0.959 . S
H272 C265 0.961 . S
H273 C265 0.960 . S
H274 C266 0.930 . S
H275 C267 0.929 . S
H276 C284 0.929 . S
H277 C286 0.930 . S
H278 C288 0.930 . S
H279 C291 0.929 . S
H280 C294 0.930 . S
H281 C296 0.960 . S
H282 C296 0.960 . S
H283 C296 0.960 . S
C284 H276 0.929 . S
C284 C285 1.377 . S
C284 C286 1.384 . S
C285 C284 1.377 . S
C285 C291 1.390 . S
C286 H277 0.930 . S
C286 C284 1.384 . S
C286 C287 1.372 . S
C287 C286 1.372 . S
C287 C288 1.400 . S
C287 C292 1.490 . S
C288 H278 0.930 . S
C288 C287 1.400 . S
C288 C291 1.386 . S
H289 C305 0.930 . S
H290 C306 0.931 . S
C291 H279 0.929 . S
C291 C285 1.390 . S
C291 C288 1.386 . S
C292 C287 1.490 . S
C292 C294 1.395 . S
C292 C295 1.403 . S
H293 C299 0.930 . S
C294 H280 0.930 . S
C294 C292 1.395 . S
C294 C297 1.403 . S
C295 C292 1.403 . S
C295 C296 1.524 . S
C295 C299 1.400 . S
C296 H281 0.960 . S
C296 H282 0.960 . S
C296 H283 0.960 . S
C296 C295 1.524 . S
C297 C294 1.403 . S
C297 C298 1.392 . S
C297 C301 1.495 . S
C298 C297 1.392 . S
C298 C299 1.385 . S
C298 C300 1.478 . S
C299 H293 0.930 . S
C299 C295 1.400 . S
C299 C298 1.385 . S
C300 C298 1.478 . S
C300 C302 1.381 . S
C300 C306 1.383 . S
C301 C297 1.495 . S
C301 H307 0.959 . S
C301 H308 0.961 . S
C301 H309 0.960 . S
C302 C300 1.381 . S
C302 C303 1.394 . S
C302 H310 0.930 . S
C303 C302 1.394 . S
C303 C304 1.383 . S
C303 H311 0.929 . S
C304 C303 1.383 . S
C304 C305 1.377 . S
C305 H289 0.930 . S
C305 C304 1.377 . S
C305 C306 1.379 . S
C306 H290 0.931 . S
C306 C300 1.383 . S
C306 C305 1.379 . S
H307 C301 0.959 . S
H308 C301 0.961 . S
H309 C301 0.960 . S
H310 C302 0.930 . S
H311 C303 0.929 . S
H312 C320 0.929 . S
H313 C322 0.930 . S
H314 C324 0.930 . S
H315 C327 0.929 . S
H316 C330 0.930 . S
H317 C332 0.960 . S
H318 C332 0.960 . S
H319 C332 0.960 . S
C320 H312 0.929 . S
C320 C321 1.377 . S
C320 C322 1.384 . S
C321 C320 1.377 . S
C321 C327 1.390 . S
C322 H313 0.930 . S
C322 C320 1.384 . S
C322 C323 1.372 . S
C323 C322 1.372 . S
C323 C324 1.400 . S
C323 C328 1.490 . S
C324 H314 0.930 . S
C324 C323 1.400 . S
C324 C327 1.386 . S
H325 C341 0.930 . S
H326 C342 0.931 . S
C327 H315 0.929 . S
C327 C321 1.390 . S
C327 C324 1.386 . S
C328 C323 1.490 . S
C328 C330 1.395 . S
C328 C331 1.403 . S
H329 C335 0.930 . S
C330 H316 0.930 . S
C330 C328 1.395 . S
C330 C333 1.403 . S
C331 C328 1.403 . S
C331 C332 1.524 . S
C331 C335 1.400 . S
C332 H317 0.960 . S
C332 H318 0.960 . S
C332 H319 0.960 . S
C332 C331 1.524 . S
C333 C330 1.403 . S
C333 C334 1.392 . S
C333 C337 1.495 . S
C334 C333 1.392 . S
C334 C335 1.385 . S
C334 C336 1.478 . S
C335 H329 0.930 . S
C335 C331 1.400 . S
C335 C334 1.385 . S
C336 C334 1.478 . S
C336 C338 1.381 . S
C336 C342 1.383 . S
C337 C333 1.495 . S
C337 H343 0.959 . S
C337 H344 0.961 . S
C337 H345 0.960 . S
C338 C336 1.381 . S
C338 C339 1.394 . S
C338 H346 0.930 . S
C339 C338 1.394 . S
C339 C340 1.383 . S
C339 H347 0.929 . S
C340 C339 1.383 . S
C340 C341 1.377 . S
C341 H325 0.930 . S
C341 C340 1.377 . S
C341 C342 1.379 . S
C342 H326 0.931 . S
C342 C336 1.383 . S
C342 C341 1.379 . S
H343 C337 0.959 . S
H344 C337 0.961 . S
H345 C337 0.960 . S
H346 C338 0.930 . S
H347 C339 0.929 . S
H348 C356 0.929 . S
H349 C358 0.930 . S
H350 C360 0.930 . S
H351 C363 0.929 . S
H352 C366 0.930 . S
H353 C368 0.960 . S
H354 C368 0.960 . S
H355 C368 0.960 . S
C356 H348 0.929 . S
C356 C357 1.377 . S
C356 C358 1.384 . S
C357 C356 1.377 . S
C357 C363 1.390 . S
C358 H349 0.930 . S
C358 C356 1.384 . S
C358 C359 1.372 . S
C359 C358 1.372 . S
C359 C360 1.400 . S
C359 C364 1.490 . S
C360 H350 0.930 . S
C360 C359 1.400 . S
C360 C363 1.386 . S
H361 C377 0.930 . S
H362 C378 0.931 . S
C363 H351 0.929 . S
C363 C357 1.390 . S
C363 C360 1.386 . S
C364 C359 1.490 . S
C364 C366 1.395 . S
C364 C367 1.403 . S
H365 C371 0.930 . S
C366 H352 0.930 . S
C366 C364 1.395 . S
C366 C369 1.403 . S
C367 C364 1.403 . S
C367 C368 1.524 . S
C367 C371 1.400 . S
C368 H353 0.960 . S
C368 H354 0.960 . S
C368 H355 0.960 . S
C368 C367 1.524 . S
C369 C366 1.403 . S
C369 C370 1.392 . S
C369 C373 1.495 . S
C370 C369 1.392 . S
C370 C371 1.385 . S
C370 C372 1.478 . S
C371 H365 0.930 . S
C371 C367 1.400 . S
C371 C370 1.385 . S
C372 C370 1.478 . S
C372 C374 1.381 . S
C372 C378 1.383 . S
C373 C369 1.495 . S
C373 H379 0.959 . S
C373 H380 0.961 . S
C373 H381 0.960 . S
C374 C372 1.381 . S
C374 C375 1.394 . S
C374 H382 0.930 . S
C375 C374 1.394 . S
C375 C376 1.383 . S
C375 H383 0.929 . S
C376 C375 1.383 . S
C376 C377 1.377 . S
C377 H361 0.930 . S
C377 C376 1.377 . S
C377 C378 1.379 . S
C378 H362 0.931 . S
C378 C372 1.383 . S
C378 C377 1.379 . S
H379 C373 0.959 . S
H380 C373 0.961 . S
H381 C373 0.960 . S
H382 C374 0.930 . S
H383 C375 0.929 . S
H384 C392 0.929 . S
H385 C394 0.930 . S
H386 C396 0.930 . S
H387 C399 0.929 . S
H388 C402 0.930 . S
H389 C404 0.960 . S
H390 C404 0.960 . S
H391 C404 0.960 . S
C392 H384 0.929 . S
C392 C393 1.377 . S
C392 C394 1.384 . S
C393 C392 1.377 . S
C393 C399 1.390 . S
C394 H385 0.930 . S
C394 C392 1.384 . S
C394 C395 1.372 . S
C395 C394 1.372 . S
C395 C396 1.400 . S
C395 C400 1.490 . S
C396 H386 0.930 . S
C396 C395 1.400 . S
C396 C399 1.386 . S
H397 C413 0.930 . S
H398 C414 0.931 . S
C399 H387 0.929 . S
C399 C393 1.390 . S
C399 C396 1.386 . S
C400 C395 1.490 . S
C400 C402 1.395 . S
C400 C403 1.403 . S
H401 C407 0.930 . S
C402 H388 0.930 . S
C402 C400 1.395 . S
C402 C405 1.403 . S
C403 C400 1.403 . S
C403 C404 1.524 . S
C403 C407 1.400 . S
C404 H389 0.960 . S
C404 H390 0.960 . S
C404 H391 0.960 . S
C404 C403 1.524 . S
C405 C402 1.403 . S
C405 C406 1.392 . S
C405 C409 1.495 . S
C406 C405 1.392 . S
C406 C407 1.385 . S
C406 C408 1.478 . S
C407 H401 0.930 . S
C407 C403 1.400 . S
C407 C406 1.385 . S
C408 C406 1.478 . S
C408 C410 1.381 . S
C408 C414 1.383 . S
C409 C405 1.495 . S
C409 H415 0.959 . S
C409 H416 0.961 . S
C409 H417 0.960 . S
C410 C408 1.381 . S
C410 C411 1.394 . S
C410 H418 0.930 . S
C411 C410 1.394 . S
C411 C412 1.383 . S
C411 H419 0.929 . S
C412 C411 1.383 . S
C412 C413 1.377 . S
C413 H397 0.930 . S
C413 C412 1.377 . S
C413 C414 1.379 . S
C414 H398 0.931 . S
C414 C408 1.383 . S
C414 C413 1.379 . S
H415 C409 0.959 . S
H416 C409 0.961 . S
H417 C409 0.960 . S
H418 C410 0.930 . S
H419 C411 0.929 . S
H420 C428 0.929 . S
H421 C430 0.930 . S
H422 C432 0.930 . S
H423 C435 0.929 . S
H424 C438 0.930 . S
H425 C440 0.960 . S
H426 C440 0.960 . S
H427 C440 0.960 . S
C428 H420 0.929 . S
C428 C429 1.377 . S
C428 C430 1.384 . S
C429 C428 1.377 . S
C429 C435 1.390 . S
C430 H421 0.930 . S
C430 C428 1.384 . S
C430 C431 1.372 . S
C431 C430 1.372 . S
C431 C432 1.400 . S
C431 C436 1.490 . S
C432 H422 0.930 . S
C432 C431 1.400 . S
C432 C435 1.386 . S
H433 C449 0.930 . S
H434 C450 0.931 . S
C435 H423 0.929 . S
C435 C429 1.390 . S
C435 C432 1.386 . S
C436 C431 1.490 . S
C436 C438 1.395 . S
C436 C439 1.403 . S
H437 C443 0.930 . S
C438 H424 0.930 . S
C438 C436 1.395 . S
C438 C441 1.403 . S
C439 C436 1.403 . S
C439 C440 1.524 . S
C439 C443 1.400 . S
C440 H425 0.960 . S
C440 H426 0.960 . S
C440 H427 0.960 . S
C440 C439 1.524 . S
C441 C438 1.403 . S
C441 C442 1.392 . S
C441 C445 1.495 . S
C442 C441 1.392 . S
C442 C443 1.385 . S
C442 C444 1.478 . S
C443 H437 0.930 . S
C443 C439 1.400 . S
C443 C442 1.385 . S
C444 C442 1.478 . S
C444 C446 1.381 . S
C444 C450 1.383 . S
C445 C441 1.495 . S
C445 H451 0.959 . S
C445 H452 0.961 . S
C445 H453 0.960 . S
C446 C444 1.381 . S
C446 C447 1.394 . S
C446 H454 0.930 . S
C447 C446 1.394 . S
C447 C448 1.383 . S
C447 H455 0.929 . S
C448 C447 1.383 . S
C448 C449 1.377 . S
C449 H433 0.930 . S
C449 C448 1.377 . S
C449 C450 1.379 . S
C450 H434 0.931 . S
C450 C444 1.383 . S
C450 C449 1.379 . S
H451 C445 0.959 . S
H452 C445 0.961 . S
H453 C445 0.960 . S
H454 C446 0.930 . S
H455 C447 0.929 . S
H456 C464 0.929 . S
H457 C466 0.930 . S
H458 C468 0.930 . S
H459 C471 0.929 . S
H460 C474 0.930 . S
H461 C476 0.960 . S
H462 C476 0.960 . S
H463 C476 0.960 . S
C464 H456 0.929 . S
C464 C465 1.377 . S
C464 C466 1.384 . S
C465 C464 1.377 . S
C465 C471 1.390 . S
C466 H457 0.930 . S
C466 C464 1.384 . S
C466 C467 1.372 . S
C467 C466 1.372 . S
C467 C468 1.400 . S
C467 C472 1.490 . S
C468 H458 0.930 . S
C468 C467 1.400 . S
C468 C471 1.386 . S
H469 C485 0.930 . S
H470 C486 0.931 . S
C471 H459 0.929 . S
C471 C465 1.390 . S
C471 C468 1.386 . S
C472 C467 1.490 . S
C472 C474 1.395 . S
C472 C475 1.403 . S
H473 C479 0.930 . S
C474 H460 0.930 . S
C474 C472 1.395 . S
C474 C477 1.403 . S
C475 C472 1.403 . S
C475 C476 1.524 . S
C475 C479 1.400 . S
C476 H461 0.960 . S
C476 H462 0.960 . S
C476 H463 0.960 . S
C476 C475 1.524 . S
C477 C474 1.403 . S
C477 C478 1.392 . S
C477 C481 1.495 . S
C478 C477 1.392 . S
C478 C479 1.385 . S
C478 C480 1.478 . S
C479 H473 0.930 . S
C479 C475 1.400 . S
C479 C478 1.385 . S
C480 C478 1.478 . S
C480 C482 1.381 . S
C480 C486 1.383 . S
C481 C477 1.495 . S
C481 H487 0.959 . S
C481 H488 0.961 . S
C481 H489 0.960 . S
C482 C480 1.381 . S
C482 C483 1.394 . S
C482 H490 0.930 . S
C483 C482 1.394 . S
C483 C484 1.383 . S
C483 H491 0.929 . S
C484 C483 1.383 . S
C484 C485 1.377 . S
C485 H469 0.930 . S
C485 C484 1.377 . S
C485 C486 1.379 . S
C486 H470 0.931 . S
C486 C480 1.383 . S
C486 C485 1.379 . S
H487 C481 0.959 . S
H488 C481 0.961 . S
H489 C481 0.960 . S
H490 C482 0.930 . S
H491 C483 0.929 . S
H492 C500 0.929 . S
H493 C502 0.930 . S
H494 C504 0.930 . S
H495 C507 0.929 . S
H496 C510 0.930 . S
H497 C512 0.960 . S
H498 C512 0.960 . S
H499 C512 0.960 . S
C500 H492 0.929 . S
C500 C501 1.377 . S
C500 C502 1.384 . S
C501 C500 1.377 . S
C501 C507 1.390 . S
C502 H493 0.930 . S
C502 C500 1.384 . S
C502 C503 1.372 . S
C503 C502 1.372 . S
C503 C504 1.400 . S
C503 C508 1.490 . S
C504 H494 0.930 . S
C504 C503 1.400 . S
C504 C507 1.386 . S
H505 C521 0.930 . S
H506 C522 0.931 . S
C507 H495 0.929 . S
C507 C501 1.390 . S
C507 C504 1.386 . S
C508 C503 1.490 . S
C508 C510 1.395 1_455 S
C508 C511 1.403 . S
H509 C515 0.930 . S
C510 H496 0.930 . S
C510 C508 1.395 1_655 S
C510 C513 1.403 . S
C511 C508 1.403 . S
C511 C512 1.524 . S
C511 C515 1.400 . S
C512 H497 0.960 . S
C512 H498 0.960 . S
C512 H499 0.960 . S
C512 C511 1.524 . S
C513 C510 1.403 . S
C513 C514 1.392 . S
C513 C517 1.495 . S
C514 C513 1.392 . S
C514 C515 1.385 1_655 S
C514 C516 1.478 . S
C515 H509 0.930 . S
C515 C511 1.400 . S
C515 C514 1.385 1_455 S
C516 C514 1.478 . S
C516 C518 1.381 . S
C516 C522 1.383 . S
C517 C513 1.495 . S
C517 H523 0.959 . S
C517 H524 0.961 . S
C517 H525 0.960 . S
C518 C516 1.381 . S
C518 C519 1.394 . S
C518 H526 0.930 . S
C519 C518 1.394 . S
C519 C520 1.383 . S
C519 H527 0.929 . S
C520 C519 1.383 . S
C520 C521 1.377 . S
C521 H505 0.930 . S
C521 C520 1.377 . S
C521 C522 1.379 . S
C522 H506 0.931 . S
C522 C516 1.383 . S
C522 C521 1.379 . S
H523 C517 0.959 . S
H524 C517 0.961 . S
H525 C517 0.960 . S
H526 C518 0.930 . S
H527 C519 0.929 . S
H528 C536 0.929 . S
H529 C538 0.930 . S
H530 C540 0.930 . S
H531 C543 0.929 . S
H532 C546 0.930 . S
H533 C548 0.960 . S
H534 C548 0.960 . S
H535 C548 0.960 . S
C536 H528 0.929 . S
C536 C537 1.377 . S
C536 C538 1.384 . S
C537 C536 1.377 . S
C537 C543 1.390 . S
C538 H529 0.930 . S
C538 C536 1.384 . S
C538 C539 1.372 . S
C539 C538 1.372 . S
C539 C540 1.400 . S
C539 C544 1.490 . S
C540 H530 0.930 . S
C540 C539 1.400 . S
C540 C543 1.386 . S
H541 C557 0.930 . S
H542 C558 0.931 . S
C543 H531 0.929 . S
C543 C537 1.390 . S
C543 C540 1.386 . S
C544 C539 1.490 . S
C544 C546 1.395 1_545 S
C544 C547 1.403 . S
H545 C551 0.930 . S
C546 H532 0.930 . S
C546 C544 1.395 1_565 S
C546 C549 1.403 . S
C547 C544 1.403 . S
C547 C548 1.524 . S
C547 C551 1.400 . S
C548 H533 0.960 . S
C548 H534 0.960 . S
C548 H535 0.960 . S
C548 C547 1.524 . S
C549 C546 1.403 . S
C549 C550 1.392 . S
C549 C553 1.495 . S
C550 C549 1.392 . S
C550 C551 1.385 1_565 S
C550 C552 1.478 . S
C551 H545 0.930 . S
C551 C547 1.400 . S
C551 C550 1.385 1_545 S
C552 C550 1.478 . S
C552 C554 1.381 . S
C552 C558 1.383 . S
C553 C549 1.495 . S
C553 H559 0.959 . S
C553 H560 0.961 . S
C553 H561 0.960 . S
C554 C552 1.381 . S
C554 C555 1.394 . S
C554 H562 0.930 . S
C555 C554 1.394 . S
C555 C556 1.383 . S
C555 H563 0.929 . S
C556 C555 1.383 . S
C556 C557 1.377 . S
C557 H541 0.930 . S
C557 C556 1.377 . S
C557 C558 1.379 . S
C558 H542 0.931 . S
C558 C552 1.383 . S
C558 C557 1.379 . S
H559 C553 0.959 . S
H560 C553 0.961 . S
H561 C553 0.960 . S
H562 C554 0.930 . S
H563 C555 0.929 . S
H564 C572 0.929 . S
H565 C574 0.930 . S
H566 C576 0.930 . S
H567 C579 0.929 . S
H568 C582 0.930 . S
H569 C584 0.960 . S
H570 C584 0.960 . S
H571 C584 0.960 . S
C572 H564 0.929 . S
C572 C573 1.377 . S
C572 C574 1.384 . S
C573 C572 1.377 . S
C573 C579 1.390 . S
C574 H565 0.930 . S
C574 C572 1.384 . S
C574 C575 1.372 . S
C575 C574 1.372 . S
C575 C576 1.400 . S
C575 C580 1.490 . S
C576 H566 0.930 . S
C576 C575 1.400 . S
C576 C579 1.386 . S
H577 C593 0.930 . S
H578 C594 0.931 . S
C579 H567 0.929 . S
C579 C573 1.390 . S
C579 C576 1.386 . S
C580 C575 1.490 . S
C580 C582 1.395 . S
C580 C583 1.403 . S
H581 C587 0.930 . S
C582 H568 0.930 . S
C582 C580 1.395 . S
C582 C585 1.403 . S
C583 C580 1.403 . S
C583 C584 1.524 . S
C583 C587 1.400 . S
C584 H569 0.960 . S
C584 H570 0.960 . S
C584 H571 0.960 . S
C584 C583 1.524 . S
C585 C582 1.403 . S
C585 C586 1.392 . S
C585 C589 1.495 . S
C586 C585 1.392 . S
C586 C587 1.385 . S
C586 C588 1.478 . S
C587 H581 0.930 . S
C587 C583 1.400 . S
C587 C586 1.385 . S
C588 C586 1.478 . S
C588 C590 1.381 . S
C588 C594 1.383 . S
C589 C585 1.495 . S
C589 H595 0.959 . S
C589 H596 0.961 . S
C589 H597 0.960 . S
C590 C588 1.381 . S
C590 C591 1.394 . S
C590 H598 0.930 . S
C591 C590 1.394 . S
C591 C592 1.383 . S
C591 H599 0.929 . S
C592 C591 1.383 . S
C592 C593 1.377 . S
C593 H577 0.930 . S
C593 C592 1.377 . S
C593 C594 1.379 . S
C594 H578 0.931 . S
C594 C588 1.383 . S
C594 C593 1.379 . S
H595 C589 0.959 . S
H596 C589 0.961 . S
H597 C589 0.960 . S
H598 C590 0.930 . S
H599 C591 0.929 . S
H600 C608 0.929 1_556 S
H601 C610 0.930 1_556 S
H602 C612 0.930 . S
H603 C615 0.929 . S
H604 C618 0.930 . S
H605 C620 0.960 . S
H606 C620 0.960 . S
H607 C620 0.960 . S
C608 H600 0.929 1_554 S
C608 C609 1.377 . S
C608 C610 1.384 . S
C609 C608 1.377 . S
C609 C615 1.390 . S
C610 H601 0.930 1_554 S
C610 C608 1.384 . S
C610 C611 1.372 . S
C611 C610 1.372 . S
C611 C612 1.400 . S
C611 C616 1.490 . S
C612 H602 0.930 . S
C612 C611 1.400 . S
C612 C615 1.386 . S
H613 C629 0.930 . S
H614 C630 0.931 . S
C615 H603 0.929 . S
C615 C609 1.390 . S
C615 C612 1.386 . S
C616 C611 1.490 . S
C616 C618 1.395 1_455 S
C616 C619 1.403 . S
H617 C623 0.930 . S
C618 H604 0.930 . S
C618 C616 1.395 1_655 S
C618 C621 1.403 . S
C619 C616 1.403 . S
C619 C620 1.524 . S
C619 C623 1.400 . S
C620 H605 0.960 . S
C620 H606 0.960 . S
C620 H607 0.960 . S
C620 C619 1.524 . S
C621 C618 1.403 . S
C621 C622 1.392 . S
C621 C625 1.495 . S
C622 C621 1.392 . S
C622 C623 1.385 1_655 S
C622 C624 1.478 . S
C623 H617 0.930 . S
C623 C619 1.400 . S
C623 C622 1.385 1_455 S
C624 C622 1.478 . S
C624 C626 1.381 . S
C624 C630 1.383 . S
C625 C621 1.495 . S
C625 H631 0.959 . S
C625 H632 0.961 . S
C625 H633 0.960 . S
C626 C624 1.381 . S
C626 C627 1.394 . S
C626 H634 0.930 1_554 S
C627 C626 1.394 . S
C627 C628 1.383 . S
C627 H635 0.929 1_554 S
C628 C627 1.383 . S
C628 C629 1.377 . S
C629 H613 0.930 . S
C629 C628 1.377 . S
C629 C630 1.379 . S
C630 H614 0.931 . S
C630 C624 1.383 . S
C630 C629 1.379 . S
H631 C625 0.959 . S
H632 C625 0.961 . S
H633 C625 0.960 . S
H634 C626 0.930 1_556 S
H635 C627 0.929 1_556 S
H636 C644 0.929 . S
H637 C646 0.930 . S
H638 C648 0.930 . S
H639 C651 0.929 . S
H640 C654 0.930 . S
H641 C656 0.960 . S
H642 C656 0.960 . S
H643 C656 0.960 . S
C644 H636 0.929 . S
C644 C645 1.377 . S
C644 C646 1.384 . S
C645 C644 1.377 . S
C645 C651 1.390 . S
C646 H637 0.930 . S
C646 C644 1.384 . S
C646 C647 1.372 . S
C647 C646 1.372 . S
C647 C648 1.400 . S
C647 C652 1.490 . S
C648 H638 0.930 . S
C648 C647 1.400 . S
C648 C651 1.386 . S
H649 C665 0.930 . S
H650 C666 0.931 . S
C651 H639 0.929 . S
C651 C645 1.390 . S
C651 C648 1.386 . S
C652 C647 1.490 . S
C652 C654 1.395 . S
C652 C655 1.403 1_565 S
H653 C659 0.930 . S
C654 H640 0.930 . S
C654 C652 1.395 . S
C654 C657 1.403 . S
C655 C652 1.403 1_545 S
C655 C656 1.524 . S
C655 C659 1.400 . S
C656 H641 0.960 . S
C656 H642 0.960 . S
C656 H643 0.960 . S
C656 C655 1.524 . S
C657 C654 1.403 . S
C657 C658 1.392 1_565 S
C657 C661 1.495 . S
C658 C657 1.392 1_545 S
C658 C659 1.385 . S
C658 C660 1.478 . S
C659 H653 0.930 . S
C659 C655 1.400 . S
C659 C658 1.385 . S
C660 C658 1.478 . S
C660 C662 1.381 . S
C660 C666 1.383 . S
C661 C657 1.495 . S
C661 H667 0.959 . S
C661 H668 0.961 . S
C661 H669 0.960 . S
C662 C660 1.381 . S
C662 C663 1.394 . S
C662 H670 0.930 . S
C663 C662 1.394 . S
C663 C664 1.383 . S
C663 H671 0.929 . S
C664 C663 1.383 . S
C664 C665 1.377 . S
C665 H649 0.930 . S
C665 C664 1.377 . S
C665 C666 1.379 . S
C666 H650 0.931 . S
C666 C660 1.383 . S
C666 C665 1.379 . S
H667 C661 0.959 . S
H668 C661 0.961 . S
H669 C661 0.960 . S
H670 C662 0.930 . S
H671 C663 0.929 . S
H672 C680 0.929 . S
H673 C682 0.930 . S
H674 C684 0.930 . S
H675 C687 0.929 . S
H676 C690 0.930 . S
H677 C692 0.960 . S
H678 C692 0.960 . S
H679 C692 0.960 . S
C680 H672 0.929 . S
C680 C681 1.377 . S
C680 C682 1.384 . S
C681 C680 1.377 . S
C681 C687 1.390 . S
C682 H673 0.930 . S
C682 C680 1.384 . S
C682 C683 1.372 . S
C683 C682 1.372 . S
C683 C684 1.400 . S
C683 C688 1.490 . S
C684 H674 0.930 . S
C684 C683 1.400 . S
C684 C687 1.386 . S
H685 C701 0.930 . S
H686 C702 0.931 . S
C687 H675 0.929 . S
C687 C681 1.390 . S
C687 C684 1.386 . S
C688 C683 1.490 . S
C688 C690 1.395 . S
C688 C691 1.403 . S
H689 C695 0.930 . S
C690 H676 0.930 . S
C690 C688 1.395 . S
C690 C693 1.403 . S
C691 C688 1.403 . S
C691 C692 1.524 . S
C691 C695 1.400 . S
C692 H677 0.960 . S
C692 H678 0.960 . S
C692 H679 0.960 . S
C692 C691 1.524 . S
C693 C690 1.403 . S
C693 C694 1.392 . S
C693 C697 1.495 . S
C694 C693 1.392 . S
C694 C695 1.385 . S
C694 C696 1.478 . S
C695 H689 0.930 . S
C695 C691 1.400 . S
C695 C694 1.385 . S
C696 C694 1.478 . S
C696 C698 1.381 . S
C696 C702 1.383 . S
C697 C693 1.495 . S
C697 H703 0.959 . S
C697 H704 0.961 . S
C697 H705 0.960 . S
C698 C696 1.381 . S
C698 C699 1.394 . S
C698 H706 0.930 . S
C699 C698 1.394 . S
C699 C700 1.383 . S
C699 H707 0.929 . S
C700 C699 1.383 . S
C700 C701 1.377 . S
C701 H685 0.930 . S
C701 C700 1.377 . S
C701 C702 1.379 . S
C702 H686 0.931 . S
C702 C696 1.383 . S
C702 C701 1.379 . S
H703 C697 0.959 . S
H704 C697 0.961 . S
H705 C697 0.960 . S
H706 C698 0.930 . S
H707 C699 0.929 . S
H708 C716 0.929 . S
H709 C718 0.930 . S
H710 C720 0.930 . S
H711 C723 0.929 . S
H712 C726 0.930 1_655 S
H713 C728 0.960 . S
H714 C728 0.960 . S
H715 C728 0.960 . S
C716 H708 0.929 . S
C716 C717 1.377 . S
C716 C718 1.384 . S
C717 C716 1.377 . S
C717 C723 1.390 1_655 S
C718 H709 0.930 . S
C718 C716 1.384 . S
C718 C719 1.372 1_655 S
C719 C718 1.372 1_455 S
C719 C720 1.400 . S
C719 C724 1.490 . S
C720 H710 0.930 . S
C720 C719 1.400 . S
C720 C723 1.386 . S
H721 C737 0.930 . S
H722 C738 0.931 . S
C723 H711 0.929 . S
C723 C717 1.390 1_455 S
C723 C720 1.386 . S
C724 C719 1.490 . S
C724 C726 1.395 . S
C724 C727 1.403 . S
H725 C731 0.930 . S
C726 H712 0.930 1_455 S
C726 C724 1.395 . S
C726 C729 1.403 . S
C727 C724 1.403 . S
C727 C728 1.524 . S
C727 C731 1.400 . S
C728 H713 0.960 . S
C728 H714 0.960 . S
C728 H715 0.960 . S
C728 C727 1.524 . S
C729 C726 1.403 . S
C729 C730 1.392 . S
C729 C733 1.495 . S
C730 C729 1.392 . S
C730 C731 1.385 . S
C730 C732 1.478 . S
C731 H725 0.930 . S
C731 C727 1.400 . S
C731 C730 1.385 . S
C732 C730 1.478 . S
C732 C734 1.381 . S
C732 C738 1.383 . S
C733 C729 1.495 . S
C733 H739 0.959 1_455 S
C733 H740 0.961 . S
C733 H741 0.960 . S
C734 C732 1.381 . S
C734 C735 1.394 . S
C734 H742 0.930 . S
C735 C734 1.394 . S
C735 C736 1.383 . S
C735 H743 0.929 . S
C736 C735 1.383 . S
C736 C737 1.377 . S
C737 H721 0.930 . S
C737 C736 1.377 . S
C737 C738 1.379 . S
C738 H722 0.931 . S
C738 C732 1.383 . S
C738 C737 1.379 . S
H739 C733 0.959 1_655 S
H740 C733 0.961 . S
H741 C733 0.960 . S
H742 C734 0.930 . S
H743 C735 0.929 . S
H744 C752 0.929 . S
H745 C754 0.930 . S
H746 C756 0.930 . S
H747 C759 0.929 . S
H748 C762 0.930 . S
H749 C764 0.960 . S
H750 C764 0.960 . S
H751 C764 0.960 . S
C752 H744 0.929 . S
C752 C753 1.377 1_545 S
C752 C754 1.384 . S
C753 C752 1.377 1_565 S
C753 C759 1.390 . S
C754 H745 0.930 . S
C754 C752 1.384 . S
C754 C755 1.372 . S
C755 C754 1.372 . S
C755 C756 1.400 1_545 S
C755 C760 1.490 . S
C756 H746 0.930 . S
C756 C755 1.400 1_565 S
C756 C759 1.386 . S
H757 C773 0.930 . S
H758 C774 0.931 . S
C759 H747 0.929 . S
C759 C753 1.390 . S
C759 C756 1.386 . S
C760 C755 1.490 . S
C760 C762 1.395 . S
C760 C763 1.403 . S
H761 C767 0.930 . S
C762 H748 0.930 . S
C762 C760 1.395 . S
C762 C765 1.403 . S
C763 C760 1.403 . S
C763 C764 1.524 . S
C763 C767 1.400 . S
C764 H749 0.960 . S
C764 H750 0.960 . S
C764 H751 0.960 . S
C764 C763 1.524 . S
C765 C762 1.403 . S
C765 C766 1.392 . S
C765 C769 1.495 . S
C766 C765 1.392 . S
C766 C767 1.385 . S
C766 C768 1.478 . S
C767 H761 0.930 . S
C767 C763 1.400 . S
C767 C766 1.385 . S
C768 C766 1.478 . S
C768 C770 1.381 . S
C768 C774 1.383 . S
C769 C765 1.495 . S
C769 H775 0.959 . S
C769 H776 0.961 . S
C769 H777 0.960 . S
C770 C768 1.381 . S
C770 C771 1.394 . S
C770 H778 0.930 . S
C771 C770 1.394 . S
C771 C772 1.383 . S
C771 H779 0.929 . S
C772 C771 1.383 . S
C772 C773 1.377 . S
C773 H757 0.930 . S
C773 C772 1.377 . S
C773 C774 1.379 . S
C774 H758 0.931 . S
C774 C768 1.383 . S
C774 C773 1.379 . S
H775 C769 0.959 . S
H776 C769 0.961 . S
H777 C769 0.960 . S
H778 C770 0.930 . S
H779 C771 0.929 . S
H780 C788 0.929 . S
H781 C790 0.930 . S
H782 C792 0.930 . S
H783 C795 0.929 . S
H784 C798 0.930 . S
H785 C800 0.960 . S
H786 C800 0.960 . S
H787 C800 0.960 . S
C788 H780 0.929 . S
C788 C789 1.377 . S
C788 C790 1.384 . S
C789 C788 1.377 . S
C789 C795 1.390 . S
C790 H781 0.930 . S
C790 C788 1.384 . S
C790 C791 1.372 . S
C791 C790 1.372 . S
C791 C792 1.400 . S
C791 C796 1.490 . S
C792 H782 0.930 . S
C792 C791 1.400 . S
C792 C795 1.386 . S
H793 C809 0.930 . S
H794 C810 0.931 . S
C795 H783 0.929 . S
C795 C789 1.390 . S
C795 C792 1.386 . S
C796 C791 1.490 . S
C796 C798 1.395 . S
C796 C799 1.403 . S
H797 C803 0.930 . S
C798 H784 0.930 . S
C798 C796 1.395 . S
C798 C801 1.403 . S
C799 C796 1.403 . S
C799 C800 1.524 . S
C799 C803 1.400 . S
C800 H785 0.960 . S
C800 H786 0.960 . S
C800 H787 0.960 . S
C800 C799 1.524 . S
C801 C798 1.403 . S
C801 C802 1.392 . S
C801 C805 1.495 . S
C802 C801 1.392 . S
C802 C803 1.385 . S
C802 C804 1.478 . S
C803 H797 0.930 . S
C803 C799 1.400 . S
C803 C802 1.385 . S
C804 C802 1.478 . S
C804 C806 1.381 . S
C804 C810 1.383 . S
C805 C801 1.495 . S
C805 H811 0.959 . S
C805 H812 0.961 . S
C805 H813 0.960 . S
C806 C804 1.381 . S
C806 C807 1.394 . S
C806 H814 0.930 . S
C807 C806 1.394 . S
C807 C808 1.383 . S
C807 H815 0.929 . S
C808 C807 1.383 . S
C808 C809 1.377 . S
C809 H793 0.930 . S
C809 C808 1.377 . S
C809 C810 1.379 . S
C810 H794 0.931 . S
C810 C804 1.383 . S
C810 C809 1.379 . S
H811 C805 0.959 . S
H812 C805 0.961 . S
H813 C805 0.960 . S
H814 C806 0.930 . S
H815 C807 0.929 . S
H816 C824 0.929 . S
H817 C826 0.930 . S
H818 C828 0.930 . S
H819 C831 0.929 . S
H820 C834 0.930 . S
H821 C836 0.960 . S
H822 C836 0.960 . S
H823 C836 0.960 1_455 S
C824 H816 0.929 . S
C824 C825 1.377 1_655 S
C824 C826 1.384 . S
C825 C824 1.377 1_455 S
C825 C831 1.390 . S
C826 H817 0.930 . S
C826 C824 1.384 . S
C826 C827 1.372 . S
C827 C826 1.372 . S
C827 C828 1.400 1_655 S
C827 C832 1.490 . S
C828 H818 0.930 . S
C828 C827 1.400 1_455 S
C828 C831 1.386 . S
H829 C845 0.930 . S
H830 C846 0.931 . S
C831 H819 0.929 . S
C831 C825 1.390 . S
C831 C828 1.386 . S
C832 C827 1.490 . S
C832 C834 1.395 . S
C832 C835 1.403 . S
H833 C839 0.930 . S
C834 H820 0.930 . S
C834 C832 1.395 . S
C834 C837 1.403 . S
C835 C832 1.403 . S
C835 C836 1.524 . S
C835 C839 1.400 . S
C836 H821 0.960 . S
C836 H822 0.960 . S
C836 H823 0.960 1_655 S
C836 C835 1.524 . S
C837 C834 1.403 . S
C837 C838 1.392 . S
C837 C841 1.495 . S
C838 C837 1.392 . S
C838 C839 1.385 . S
C838 C840 1.478 . S
C839 H833 0.930 . S
C839 C835 1.400 . S
C839 C838 1.385 . S
C840 C838 1.478 . S
C840 C842 1.381 . S
C840 C846 1.383 . S
C841 C837 1.495 . S
C841 H847 0.959 . S
C841 H848 0.961 . S
C841 H849 0.960 . S
C842 C840 1.381 . S
C842 C843 1.394 . S
C842 H850 0.930 . S
C843 C842 1.394 . S
C843 C844 1.383 . S
C843 H851 0.929 . S
C844 C843 1.383 . S
C844 C845 1.377 . S
C845 H829 0.930 . S
C845 C844 1.377 . S
C845 C846 1.379 . S
C846 H830 0.931 . S
C846 C840 1.383 . S
C846 C845 1.379 . S
H847 C841 0.959 . S
H848 C841 0.961 . S
H849 C841 0.960 . S
H850 C842 0.930 . S
H851 C843 0.929 . S
H852 C860 0.929 . S
H853 C862 0.930 . S
H854 C864 0.930 . S
H855 C867 0.929 . S
H856 C870 0.930 . S
H857 C872 0.960 . S
H858 C872 0.960 1_545 S
H859 C872 0.960 . S
C860 H852 0.929 . S
C860 C861 1.377 . S
C860 C862 1.384 . S
C861 C860 1.377 . S
C861 C867 1.390 1_545 S
C862 H853 0.930 . S
C862 C860 1.384 . S
C862 C863 1.372 1_545 S
C863 C862 1.372 1_565 S
C863 C864 1.400 . S
C863 C868 1.490 . S
C864 H854 0.930 . S
C864 C863 1.400 . S
C864 C867 1.386 . S
H865 C881 0.930 . S
H866 C882 0.931 . S
C867 H855 0.929 . S
C867 C861 1.390 1_565 S
C867 C864 1.386 . S
C868 C863 1.490 . S
C868 C870 1.395 . S
C868 C871 1.403 . S
H869 C875 0.930 . S
C870 H856 0.930 . S
C870 C868 1.395 . S
C870 C873 1.403 . S
C871 C868 1.403 . S
C871 C872 1.524 . S
C871 C875 1.400 . S
C872 H857 0.960 . S
C872 H858 0.960 1_565 S
C872 H859 0.960 . S
C872 C871 1.524 . S
C873 C870 1.403 . S
C873 C874 1.392 . S
C873 C877 1.495 . S
C874 C873 1.392 . S
C874 C875 1.385 . S
C874 C876 1.478 . S
C875 H869 0.930 . S
C875 C871 1.400 . S
C875 C874 1.385 . S
C876 C874 1.478 . S
C876 C878 1.381 . S
C876 C882 1.383 . S
C877 C873 1.495 . S
C877 H883 0.959 . S
C877 H884 0.961 . S
C877 H885 0.960 . S
C878 C876 1.381 . S
C878 C879 1.394 . S
C878 H886 0.930 . S
C879 C878 1.394 . S
C879 C880 1.383 . S
C879 H887 0.929 . S
C880 C879 1.383 . S
C880 C881 1.377 . S
C881 H865 0.930 . S
C881 C880 1.377 . S
C881 C882 1.379 . S
C882 H866 0.931 . S
C882 C876 1.383 . S
C882 C881 1.379 . S
H883 C877 0.959 . S
H884 C877 0.961 . S
H885 C877 0.960 . S
H886 C878 0.930 . S
H887 C879 0.929 . S
C249 C172 1.132 . S
C268 C8 1.133 . S
C285 C212 1.132 . S
C304 C48 1.115 . S
C321 C12 1.132 . S
C340 C88 1.117 . S
C357 C52 1.131 . S
C376 C128 1.116 . S
C393 C92 1.133 . S
C412 C168 1.139 . S
C429 C132 1.131 . S
C448 C208 1.120 . S
C465 C17 0.607 . S
C484 C137 0.522 . S
C501 C177 0.591 . S
C520 C57 0.556 . S
C537 C217 0.612 . S
C556 C97 0.534 . S
C573 C82 0.575 . S
C592 C202 0.582 . S
C609 C2 0.571 . S
C628 C122 0.568 . S
C645 C162 0.576 . S
C664 C42 0.585 . S
C681 C231 1.131 . S
C700 C29 1.146 . S
C717 C69 1.140 . S
C736 C31 1.118 . S
C753 C109 1.136 . S
C772 C71 1.143 . S
C789 C111 1.137 . S
C808 C149 1.126 . S
C825 C189 1.136 . S
C844 C151 1.146 . S
C861 C229 1.138 . S
C880 C191 1.121 . S
