# Generated by pormake.
# Topology wln, (5)-cn, num edge types: 1
# Building blocks:
#     Node 0, Type 0, BuildingBlock: XOMCOT_clean_sbu_1, # of connection points: 5
#     Node 1, Type 0, BuildingBlock: XOMCOT_clean_sbu_1, # of connection points: 5
#     Node 2, Type 0, BuildingBlock: XOMCOT_clean_sbu_1, # of connection points: 5
#     Node 3, Type 0, BuildingBlock: XOMCOT_clean_sbu_1, # of connection points: 5
#     Node 4, Type 0, BuildingBlock: XOMCOT_clean_sbu_1, # of connection points: 5
#     Node 5, Type 0, BuildingBlock: XOMCOT_clean_sbu_1, # of connection points: 5
#     Node 6, Type 0, BuildingBlock: XOMCOT_clean_sbu_1, # of connection points: 5
#     Node 7, Type 0, BuildingBlock: XOMCOT_clean_sbu_1, # of connection points: 5
#     Node 8, Type 0, BuildingBlock: XOMCOT_clean_sbu_1, # of connection points: 5
#     Node 9, Type 0, BuildingBlock: XOMCOT_clean_sbu_1, # of connection points: 5
#     Node 10, Type 0, BuildingBlock: XOMCOT_clean_sbu_1, # of connection points: 5
#     Node 11, Type 0, BuildingBlock: XOMCOT_clean_sbu_1, # of connection points: 5
#     Node 12, Type 0, BuildingBlock: XOMCOT_clean_sbu_1, # of connection points: 5
#     Node 13, Type 0, BuildingBlock: XOMCOT_clean_sbu_1, # of connection points: 5
#     Node 14, Type 0, BuildingBlock: XOMCOT_clean_sbu_1, # of connection points: 5
#     Node 15, Type 0, BuildingBlock: XOMCOT_clean_sbu_1, # of connection points: 5
#     Node 16, Type 0, BuildingBlock: XOMCOT_clean_sbu_1, # of connection points: 5
#     Node 17, Type 0, BuildingBlock: XOMCOT_clean_sbu_1, # of connection points: 5
#     Node 18, Type 0, BuildingBlock: XOMCOT_clean_sbu_1, # of connection points: 5
#     Node 19, Type 0, BuildingBlock: XOMCOT_clean_sbu_1, # of connection points: 5
#     Node 20, Type 0, BuildingBlock: XOMCOT_clean_sbu_1, # of connection points: 5
#     Node 21, Type 0, BuildingBlock: XOMCOT_clean_sbu_1, # of connection points: 5
#     Node 22, Type 0, BuildingBlock: XOMCOT_clean_sbu_1, # of connection points: 5
#     Node 23, Type 0, BuildingBlock: XOMCOT_clean_sbu_1, # of connection points: 5
#     Node 24, Type 0, BuildingBlock: XOMCOT_clean_sbu_1, # of connection points: 5
#     Node 25, Type 0, BuildingBlock: XOMCOT_clean_sbu_1, # of connection points: 5
#     Node 26, Type 0, BuildingBlock: XOMCOT_clean_sbu_1, # of connection points: 5
#     Node 27, Type 0, BuildingBlock: XOMCOT_clean_sbu_1, # of connection points: 5
#     Node 28, Type 0, BuildingBlock: XOMCOT_clean_sbu_1, # of connection points: 5
#     Node 29, Type 0, BuildingBlock: XOMCOT_clean_sbu_1, # of connection points: 5
#     Node 30, Type 0, BuildingBlock: XOMCOT_clean_sbu_1, # of connection points: 5
#     Node 31, Type 0, BuildingBlock: XOMCOT_clean_sbu_1, # of connection points: 5
#     Node 32, Type 0, BuildingBlock: XOMCOT_clean_sbu_1, # of connection points: 5
#     Node 33, Type 0, BuildingBlock: XOMCOT_clean_sbu_1, # of connection points: 5
#     Node 34, Type 0, BuildingBlock: XOMCOT_clean_sbu_1, # of connection points: 5
#     Node 35, Type 0, BuildingBlock: XOMCOT_clean_sbu_1, # of connection points: 5
#     Edge 36, Type (0, 0), BuildingBlock: XUDNAN_clean_linker_2, # of connection points: 2
#     Edge 37, Type (0, 0), BuildingBlock: XUDNAN_clean_linker_2, # of connection points: 2
#     Edge 38, Type (0, 0), BuildingBlock: XUDNAN_clean_linker_2, # of connection points: 2
#     Edge 39, Type (0, 0), BuildingBlock: XUDNAN_clean_linker_2, # of connection points: 2
#     Edge 40, Type (0, 0), BuildingBlock: XUDNAN_clean_linker_2, # of connection points: 2
#     Edge 41, Type (0, 0), BuildingBlock: XUDNAN_clean_linker_2, # of connection points: 2
#     Edge 42, Type (0, 0), BuildingBlock: XUDNAN_clean_linker_2, # of connection points: 2
#     Edge 43, Type (0, 0), BuildingBlock: XUDNAN_clean_linker_2, # of connection points: 2
#     Edge 44, Type (0, 0), BuildingBlock: XUDNAN_clean_linker_2, # of connection points: 2
#     Edge 45, Type (0, 0), BuildingBlock: XUDNAN_clean_linker_2, # of connection points: 2
#     Edge 46, Type (0, 0), BuildingBlock: XUDNAN_clean_linker_2, # of connection points: 2
#     Edge 47, Type (0, 0), BuildingBlock: XUDNAN_clean_linker_2, # of connection points: 2
#     Edge 48, Type (0, 0), BuildingBlock: XUDNAN_clean_linker_2, # of connection points: 2
#     Edge 49, Type (0, 0), BuildingBlock: XUDNAN_clean_linker_2, # of connection points: 2
#     Edge 50, Type (0, 0), BuildingBlock: XUDNAN_clean_linker_2, # of connection points: 2
#     Edge 51, Type (0, 0), BuildingBlock: XUDNAN_clean_linker_2, # of connection points: 2
#     Edge 52, Type (0, 0), BuildingBlock: XUDNAN_clean_linker_2, # of connection points: 2
#     Edge 53, Type (0, 0), BuildingBlock: XUDNAN_clean_linker_2, # of connection points: 2
#     Edge 54, Type (0, 0), BuildingBlock: XUDNAN_clean_linker_2, # of connection points: 2
#     Edge 55, Type (0, 0), BuildingBlock: XUDNAN_clean_linker_2, # of connection points: 2
#     Edge 56, Type (0, 0), BuildingBlock: XUDNAN_clean_linker_2, # of connection points: 2
#     Edge 57, Type (0, 0), BuildingBlock: XUDNAN_clean_linker_2, # of connection points: 2
#     Edge 58, Type (0, 0), BuildingBlock: XUDNAN_clean_linker_2, # of connection points: 2
#     Edge 59, Type (0, 0), BuildingBlock: XUDNAN_clean_linker_2, # of connection points: 2
#     Edge 60, Type (0, 0), BuildingBlock: XUDNAN_clean_linker_2, # of connection points: 2
#     Edge 61, Type (0, 0), BuildingBlock: XUDNAN_clean_linker_2, # of connection points: 2
#     Edge 62, Type (0, 0), BuildingBlock: XUDNAN_clean_linker_2, # of connection points: 2
#     Edge 63, Type (0, 0), BuildingBlock: XUDNAN_clean_linker_2, # of connection points: 2
#     Edge 64, Type (0, 0), BuildingBlock: XUDNAN_clean_linker_2, # of connection points: 2
#     Edge 65, Type (0, 0), BuildingBlock: XUDNAN_clean_linker_2, # of connection points: 2
#     Edge 66, Type (0, 0), BuildingBlock: XUDNAN_clean_linker_2, # of connection points: 2
#     Edge 67, Type (0, 0), BuildingBlock: XUDNAN_clean_linker_2, # of connection points: 2
#     Edge 68, Type (0, 0), BuildingBlock: XUDNAN_clean_linker_2, # of connection points: 2
#     Edge 69, Type (0, 0), BuildingBlock: XUDNAN_clean_linker_2, # of connection points: 2
#     Edge 70, Type (0, 0), BuildingBlock: XUDNAN_clean_linker_2, # of connection points: 2
#     Edge 71, Type (0, 0), BuildingBlock: XUDNAN_clean_linker_2, # of connection points: 2
#     Edge 72, Type (0, 0), BuildingBlock: XUDNAN_clean_linker_2, # of connection points: 2
#     Edge 73, Type (0, 0), BuildingBlock: XUDNAN_clean_linker_2, # of connection points: 2
#     Edge 74, Type (0, 0), BuildingBlock: XUDNAN_clean_linker_2, # of connection points: 2
#     Edge 75, Type (0, 0), BuildingBlock: XUDNAN_clean_linker_2, # of connection points: 2
#     Edge 76, Type (0, 0), BuildingBlock: XUDNAN_clean_linker_2, # of connection points: 2
#     Edge 77, Type (0, 0), BuildingBlock: XUDNAN_clean_linker_2, # of connection points: 2
#     Edge 78, Type (0, 0), BuildingBlock: XUDNAN_clean_linker_2, # of connection points: 2
#     Edge 79, Type (0, 0), BuildingBlock: XUDNAN_clean_linker_2, # of connection points: 2
#     Edge 80, Type (0, 0), BuildingBlock: XUDNAN_clean_linker_2, # of connection points: 2
#     Edge 81, Type (0, 0), BuildingBlock: XUDNAN_clean_linker_2, # of connection points: 2
#     Edge 82, Type (0, 0), BuildingBlock: XUDNAN_clean_linker_2, # of connection points: 2
#     Edge 83, Type (0, 0), BuildingBlock: XUDNAN_clean_linker_2, # of connection points: 2
#     Edge 84, Type (0, 0), BuildingBlock: XUDNAN_clean_linker_2, # of connection points: 2
#     Edge 85, Type (0, 0), BuildingBlock: XUDNAN_clean_linker_2, # of connection points: 2
#     Edge 86, Type (0, 0), BuildingBlock: XUDNAN_clean_linker_2, # of connection points: 2
#     Edge 87, Type (0, 0), BuildingBlock: XUDNAN_clean_linker_2, # of connection points: 2
#     Edge 88, Type (0, 0), BuildingBlock: XUDNAN_clean_linker_2, # of connection points: 2
#     Edge 89, Type (0, 0), BuildingBlock: XUDNAN_clean_linker_2, # of connection points: 2
#     Edge 90, Type (0, 0), BuildingBlock: XUDNAN_clean_linker_2, # of connection points: 2
#     Edge 91, Type (0, 0), BuildingBlock: XUDNAN_clean_linker_2, # of connection points: 2
#     Edge 92, Type (0, 0), BuildingBlock: XUDNAN_clean_linker_2, # of connection points: 2
#     Edge 93, Type (0, 0), BuildingBlock: XUDNAN_clean_linker_2, # of connection points: 2
#     Edge 94, Type (0, 0), BuildingBlock: XUDNAN_clean_linker_2, # of connection points: 2
#     Edge 95, Type (0, 0), BuildingBlock: XUDNAN_clean_linker_2, # of connection points: 2
#     Edge 96, Type (0, 0), BuildingBlock: XUDNAN_clean_linker_2, # of connection points: 2
#     Edge 97, Type (0, 0), BuildingBlock: XUDNAN_clean_linker_2, # of connection points: 2
#     Edge 98, Type (0, 0), BuildingBlock: XUDNAN_clean_linker_2, # of connection points: 2
#     Edge 99, Type (0, 0), BuildingBlock: XUDNAN_clean_linker_2, # of connection points: 2
#     Edge 100, Type (0, 0), BuildingBlock: XUDNAN_clean_linker_2, # of connection points: 2
#     Edge 101, Type (0, 0), BuildingBlock: XUDNAN_clean_linker_2, # of connection points: 2
#     Edge 102, Type (0, 0), BuildingBlock: XUDNAN_clean_linker_2, # of connection points: 2
#     Edge 103, Type (0, 0), BuildingBlock: XUDNAN_clean_linker_2, # of connection points: 2
#     Edge 104, Type (0, 0), BuildingBlock: XUDNAN_clean_linker_2, # of connection points: 2
#     Edge 105, Type (0, 0), BuildingBlock: XUDNAN_clean_linker_2, # of connection points: 2
#     Edge 106, Type (0, 0), BuildingBlock: XUDNAN_clean_linker_2, # of connection points: 2
#     Edge 107, Type (0, 0), BuildingBlock: XUDNAN_clean_linker_2, # of connection points: 2
#     Edge 108, Type (0, 0), BuildingBlock: XUDNAN_clean_linker_2, # of connection points: 2
#     Edge 109, Type (0, 0), BuildingBlock: XUDNAN_clean_linker_2, # of connection points: 2
#     Edge 110, Type (0, 0), BuildingBlock: XUDNAN_clean_linker_2, # of connection points: 2
#     Edge 111, Type (0, 0), BuildingBlock: XUDNAN_clean_linker_2, # of connection points: 2
#     Edge 112, Type (0, 0), BuildingBlock: XUDNAN_clean_linker_2, # of connection points: 2
#     Edge 113, Type (0, 0), BuildingBlock: XUDNAN_clean_linker_2, # of connection points: 2
#     Edge 114, Type (0, 0), BuildingBlock: XUDNAN_clean_linker_2, # of connection points: 2
#     Edge 115, Type (0, 0), BuildingBlock: XUDNAN_clean_linker_2, # of connection points: 2
#     Edge 116, Type (0, 0), BuildingBlock: XUDNAN_clean_linker_2, # of connection points: 2
#     Edge 117, Type (0, 0), BuildingBlock: XUDNAN_clean_linker_2, # of connection points: 2
#     Edge 118, Type (0, 0), BuildingBlock: XUDNAN_clean_linker_2, # of connection points: 2
#     Edge 119, Type (0, 0), BuildingBlock: XUDNAN_clean_linker_2, # of connection points: 2
#     Edge 120, Type (0, 0), BuildingBlock: XUDNAN_clean_linker_2, # of connection points: 2
#     Edge 121, Type (0, 0), BuildingBlock: XUDNAN_clean_linker_2, # of connection points: 2
#     Edge 122, Type (0, 0), BuildingBlock: XUDNAN_clean_linker_2, # of connection points: 2
#     Edge 123, Type (0, 0), BuildingBlock: XUDNAN_clean_linker_2, # of connection points: 2
#     Edge 124, Type (0, 0), BuildingBlock: XUDNAN_clean_linker_2, # of connection points: 2
#     Edge 125, Type (0, 0), BuildingBlock: XUDNAN_clean_linker_2, # of connection points: 2
# Relax obj value: 0.166
# Max RMSD: 0.182
# Mean RMSD: 0.178
data_MOF--net-wln--node1-XOMCOT_clean_sbu_1--edge1-XUDNAN_clean_linker_2
_symmetry_space_group_name_H-M    P1
_symmetry_Int_Tables_number       1
_symmetry_cell_setting            triclinic
loop_
_symmetry_equiv_pos_as_xyz
'x, y, z'
_cell_length_a     126.32818
_cell_length_b     126.35285
_cell_length_c     17.418327
_cell_angle_alpha  89.994216
_cell_angle_beta   90.019714
_cell_angle_gamma 120.00346
loop_
_atom_site_label
_atom_site_type_symbol
_atom_site_fract_x
_atom_site_fract_y
_atom_site_fract_z
_atom_type_partial_charge
C0 C 0.13958 0.39638 0.04451 0.0
C1 C 0.14183 0.39912 0.96785 0.0
N2 N 0.13125 0.39271 0.929 0.0
N3 N 0.12763 0.38828 0.05455 0.0
C4 C 0.12276 0.3862 0.98302 0.0
H5 H 0.14627 0.39987 0.0902 0.0
Co6 Co 0.12108 0.38178 0.15078 0.0
C7 C 0.09979 0.35766 0.10547 0.0
O8 O 0.10238 0.35183 0.15806 0.0
N9 N 0.11486 0.37591 0.25011 0.0
C10 C 0.10312 0.36929 0.35489 0.0
C11 C 0.10328 0.36884 0.27581 0.0
C12 C 0.12139 0.38097 0.31483 0.0
N13 N 0.11455 0.37703 0.37938 0.0
O14 O 0.11415 0.39206 0.15677 0.0
H15 H 0.09524 0.36446 0.24006 0.0
H16 H 0.13086 0.3881 0.31424 0.0
O17 O 0.10624 0.36928 0.10076 0.0
C18 C 0.12156 0.4029 0.17872 0.0
O19 O 0.1329 0.4059 0.19453 0.0
N20 N 0.12877 0.37224 0.14458 0.0
C21 C 0.1453 0.36402 0.11587 0.0
C22 C 0.13478 0.36003 0.07073 0.0
C23 C 0.12693 0.36458 0.08418 0.0
C24 C 0.13866 0.37579 0.19113 0.0
C25 C 0.14699 0.37176 0.17814 0.0
H26 H 0.12002 0.36269 0.04161 0.0
H27 H 0.14086 0.3827 0.23408 0.0
H28 H 0.11322 0.38005 0.97058 0.0
H29 H 0.15067 0.40514 0.94255 0.0
H30 H 0.09507 0.36504 0.39095 0.0
H31 H 0.13299 0.35404 0.02202 0.0
H32 H 0.15516 0.3755 0.21315 0.0
C33 C 0.5876 0.72499 0.97944 0.0
C34 C 0.58481 0.72264 0.90291 0.0
N35 N 0.59481 0.72413 0.86567 0.0
N36 N 0.59929 0.72789 0.99101 0.0
C37 C 0.60349 0.72731 0.92043 0.0
H38 H 0.58157 0.72489 0.02387 0.0
Co39 Co 0.60671 0.7323 0.08769 0.0
C40 C 0.63246 0.74873 0.03863 0.0
O41 O 0.63327 0.75794 0.07839 0.0
N42 N 0.61364 0.73616 0.18746 0.0
C43 C 0.62486 0.73916 0.29293 0.0
C44 C 0.62507 0.73999 0.21398 0.0
C45 C 0.60668 0.73267 0.25168 0.0
N46 N 0.61323 0.73446 0.31664 0.0
O47 O 0.60505 0.71659 0.0988 0.0
H48 H 0.63299 0.74234 0.1792 0.0
H49 H 0.59683 0.72841 0.25026 0.0
O50 O 0.6227 0.73831 0.03994 0.0
C51 C 0.5944 0.70892 0.12259 0.0
O52 O 0.58646 0.71262 0.13289 0.0
N53 N 0.60728 0.74746 0.07777 0.0
C54 C 0.6021 0.76622 0.05371 0.0
C55 C 0.60904 0.76403 1.00025 0.0
C56 C 0.61129 0.75441 0.01247 0.0
C57 C 0.60066 0.74967 0.13066 0.0
C58 C 0.59807 0.75906 0.12013 0.0
H59 H 0.61569 0.75217 0.96731 0.0
H60 H 0.59658 0.74363 0.17875 0.0
H61 H 0.61272 0.72928 0.90913 0.0
H62 H 0.57619 0.72038 0.87632 0.0
H63 H 0.63255 0.74107 0.32939 0.0
H64 H 0.61202 0.76918 0.94721 0.0
H65 H 0.59251 0.76038 0.16212 0.0
C66 C 0.27628 0.86845 0.80578 0.0
C67 C 0.27807 0.86846 0.72764 0.0
N68 N 0.28 0.87918 0.69897 0.0
N69 N 0.27688 0.87903 0.82609 0.0
C70 C 0.27935 0.88546 0.75996 0.0
H71 H 0.27426 0.86103 0.845 0.0
Co72 Co 0.27368 0.88305 0.92378 0.0
C73 C 0.25787 0.8934 0.88266 0.0
O74 O 0.24963 0.88612 0.93259 0.0
N75 N 0.27118 0.88747 0.02382 0.0
C76 C 0.27208 0.8996 0.11974 0.0
C77 C 0.27062 0.89759 0.04228 0.0
C78 C 0.27354 0.88384 0.09213 0.0
N79 N 0.27401 0.89102 0.15129 0.0
O80 O 0.2897 0.89664 0.92834 0.0
H81 H 0.27055 0.90405 1.00219 0.0
H82 H 0.2761 0.87688 0.09737 0.0
O83 O 0.26787 0.89324 0.87549 0.0
C84 C 0.29773 0.89406 0.95038 0.0
O85 O 0.29455 0.88252 0.95941 0.0
N86 N 0.25786 0.86903 0.92028 0.0
C87 C 0.23613 0.84667 0.90831 0.0
C88 C 0.23977 0.85532 0.84937 0.0
C89 C 0.25069 0.86638 0.85614 0.0
C90 C 0.25452 0.86058 0.97752 0.0
C91 C 0.24358 0.84944 0.97335 0.0
H92 H 0.25356 0.87268 0.80845 0.0
H93 H 0.26053 0.86215 0.02524 0.0
H94 H 0.28019 0.89439 0.75604 0.0
H95 H 0.27789 0.86113 0.69448 0.0
H96 H 0.27257 0.90733 0.14985 0.0
H97 H 0.23431 0.85349 0.7979 0.0
H98 H 0.24126 0.84283 0.01912 0.0
C99 C 0.40178 0.12263 0.07028 0.0
C100 C 0.40199 0.12109 0.14819 0.0
N101 N 0.39039 0.11534 0.17403 0.0
N102 N 0.3901 0.11787 0.04692 0.0
C103 C 0.38335 0.11347 0.11152 0.0
H104 H 0.40969 0.12734 0.03357 0.0
Co105 Co 0.38537 0.11915 0.94776 0.0
C106 C 0.37041 0.09287 0.97649 0.0
O107 O 0.38037 0.09227 0.98834 0.0
N108 N 0.38101 0.12083 0.8484 0.0
C109 C 0.38079 0.1305 0.74269 0.0
C110 C 0.38253 0.13147 0.82057 0.0
C111 C 0.37832 0.11349 0.78632 0.0
N112 N 0.3782 0.11923 0.7212 0.0
O113 O 0.39503 0.11272 0.90714 0.0
H114 H 0.38554 0.13969 0.85399 0.0
H115 H 0.37757 0.10457 0.78785 0.0
O116 O 0.37128 0.10298 0.95639 0.0
C117 C 0.40521 0.12055 0.87801 0.0
O118 O 0.40823 0.13213 0.87845 0.0
N119 N 0.37642 0.12612 0.98615 0.0
C120 C 0.36592 0.14067 0.00923 0.0
C121 C 0.3588 0.12856 0.98385 0.0
C122 C 0.36427 0.12146 0.97177 0.0
C123 C 0.38325 0.13748 0.01699 0.0
C124 C 0.37817 0.14493 0.0291 0.0
H125 H 0.35896 0.11268 0.94452 0.0
H126 H 0.39293 0.14114 0.02631 0.0
H127 H 0.37352 0.10955 0.11323 0.0
H128 H 0.41007 0.12421 0.18345 0.0
H129 H 0.38208 0.13776 0.704 0.0
H130 H 0.34928 0.12487 0.96849 0.0
H131 H 0.38409 0.15426 0.04775 0.0
C132 C 0.87153 0.28058 0.09874 0.0
C133 C 0.86973 0.28164 0.17533 0.0
N134 N 0.87554 0.27701 0.21619 0.0
N135 N 0.87853 0.27539 0.09067 0.0
C136 C 0.88093 0.27339 0.16337 0.0
H137 H 0.8676 0.28302 0.05159 0.0
Co138 Co 0.88168 0.27114 0.99445 0.0
C139 C 0.88846 0.25246 0.03847 0.0
O140 O 0.88047 0.24426 0.99107 0.0
N141 N 0.8849 0.26747 0.895 0.0
C142 C 0.89223 0.26339 0.78937 0.0
C143 C 0.89235 0.26346 0.86857 0.0
C144 C 0.88103 0.27046 0.83056 0.0
N145 N 0.88498 0.26771 0.76561 0.0
O146 O 0.89703 0.28576 0.99034 0.0
H147 H 0.89799 0.2612 0.90356 0.0
H148 H 0.87586 0.27516 0.83121 0.0
O149 O 0.8897 0.26311 0.04267 0.0
C150 C 0.89698 0.29538 0.96966 0.0
O151 O 0.88648 0.29491 0.95812 0.0
N152 N 0.86606 0.25683 0.9972 0.0
C153 C 0.84308 0.23589 0.98812 0.0
C154 C 0.85082 0.23761 0.05032 0.0
C155 C 0.86221 0.2483 0.05458 0.0
C156 C 0.85798 0.25591 0.94207 0.0
C157 C 0.84659 0.2454 0.93522 0.0
H158 H 0.86803 0.24951 0.10311 0.0
H159 H 0.86024 0.26335 0.90331 0.0
H160 H 0.88593 0.26875 0.17733 0.0
H161 H 0.86432 0.28533 0.19891 0.0
H162 H 0.89714 0.26043 0.7524 0.0
H163 H 0.84826 0.23063 0.09391 0.0
H164 H 0.84056 0.24474 0.88889 0.0
C165 C 0.73088 0.59162 0.11912 0.0
C166 C 0.72918 0.58858 0.19564 0.0
N167 N 0.72856 0.5975 0.23419 0.0
N168 N 0.73127 0.60238 0.10901 0.0
C169 C 0.72983 0.60577 0.18032 0.0
H170 H 0.73189 0.58639 0.0735 0.0
Co171 Co 0.73354 0.60963 0.01248 0.0
C172 C 0.74479 0.63579 0.05648 0.0
O173 O 0.75394 0.63887 0.00882 0.0
N174 N 0.73522 0.6162 0.91257 0.0
C175 C 0.73468 0.62592 0.80688 0.0
C176 C 0.73552 0.6264 0.88581 0.0
C177 C 0.73354 0.60944 0.84862 0.0
N178 N 0.73336 0.61518 0.78358 0.0
O179 O 0.71661 0.60414 0.00606 0.0
H180 H 0.73537 0.63338 0.92052 0.0
H181 H 0.73196 0.6002 0.85021 0.0
O182 O 0.73615 0.6247 0.06096 0.0
C183 C 0.70974 0.59322 0.98344 0.0
O184 O 0.71455 0.58626 0.97066 0.0
N185 N 0.75037 0.6146 0.01835 0.0
C186 C 0.775 0.62134 0.0233 0.0
C187 C 0.76978 0.6245 0.08331 0.0
C188 C 0.75734 0.62069 0.08092 0.0
C189 C 0.75521 0.61081 0.96199 0.0
C190 C 0.76754 0.61416 0.963 0.0
H191 H 0.75337 0.62283 0.1291 0.0
H192 H 0.74953 0.60499 0.91643 0.0
H193 H 0.7297 0.6141 0.19267 0.0
H194 H 0.7287 0.58054 0.2212 0.0
H195 H 0.7342 0.63257 0.77004 0.0
H196 H 0.77522 0.62969 0.13214 0.0
H197 H 0.77124 0.61126 0.91675 0.0
C198 C 0.87741 0.6002 0.01573 0.0
C199 C 0.87763 0.59979 0.0952 0.0
N200 N 0.88194 0.61122 0.12214 0.0
N201 N 0.88161 0.61184 0.99275 0.0
C202 C 0.88401 0.61818 0.05914 0.0
H203 H 0.87465 0.5925 0.9777 0.0
Co204 Co 0.8847 0.61907 0.89393 0.0
C205 C 0.90837 0.63406 0.96893 0.0
O206 O 0.90951 0.6243 0.97336 0.0
N207 N 0.88784 0.62653 0.79724 0.0
C208 C 0.89373 0.641 0.7085 0.0
C209 C 0.89214 0.63855 0.78562 0.0
C210 C 0.88678 0.62182 0.72588 0.0
N211 N 0.89045 0.6305 0.67071 0.0
O212 O 0.89427 0.61191 0.86703 0.0
H213 H 0.8941 0.64519 0.83049 0.0
H214 H 0.88368 0.6123 0.71455 0.0
O215 O 0.89908 0.63343 0.9352 0.0
C216 C 0.88876 0.60125 0.83811 0.0
O217 O 0.87683 0.59568 0.82948 0.0
N218 N 0.87447 0.62524 0.91659 0.0
C219 C 0.8555 0.62973 0.94911 0.0
C220 C 0.86747 0.63786 0.97421 0.0
C221 C 0.87692 0.63552 0.95651 0.0
C222 C 0.86308 0.61755 0.8893 0.0
C223 C 0.8535 0.61968 0.90396 0.0
H224 H 0.88604 0.64176 0.97685 0.0
H225 H 0.86143 0.60957 0.8567 0.0
H226 H 0.88752 0.6279 0.06147 0.0
H227 H 0.87529 0.59182 0.13002 0.0
H228 H 0.89706 0.64988 0.68237 0.0
H229 H 0.86948 0.64574 0.00904 0.0
H230 H 0.84458 0.6134 0.88058 0.0
C231 C 0.39728 0.25808 0.06643 0.0
C232 C 0.40056 0.25953 0.14243 0.0
N233 N 0.39336 0.26274 0.18119 0.0
N234 N 0.38798 0.26027 0.05664 0.0
C235 C 0.38577 0.26313 0.12759 0.0
H236 H 0.40137 0.25553 0.02077 0.0
Co237 Co 0.38147 0.25948 0.95935 0.0
C238 C 0.3552 0.24989 0.98673 0.0
O239 O 0.3526 0.24247 0.92796 0.0
N240 N 0.37595 0.25952 0.85845 0.0
C241 C 0.36892 0.26436 0.75446 0.0
C242 C 0.36785 0.26276 0.83278 0.0
C243 C 0.38237 0.26011 0.79479 0.0
N244 N 0.37812 0.26272 0.73058 0.0
O245 O 0.38807 0.2766 0.95954 0.0
H246 H 0.36222 0.26491 0.86871 0.0
H247 H 0.39059 0.25948 0.79638 0.0
O248 O 0.36634 0.2573 0.00487 0.0
C249 C 0.39893 0.28312 0.93489 0.0
O250 O 0.40542 0.27785 0.92004 0.0
N251 N 0.37504 0.24224 0.95924 0.0
C252 C 0.36663 0.21718 0.96419 0.0
C253 C 0.36417 0.22289 0.02463 0.0
C254 C 0.36848 0.23543 0.02117 0.0
C255 C 0.37801 0.23683 0.90189 0.0
C256 C 0.37365 0.22427 0.90232 0.0
H257 H 0.36667 0.23967 0.0693 0.0
H258 H 0.38407 0.24217 0.85653 0.0
H259 H 0.37886 0.26559 0.13944 0.0
H260 H 0.4076 0.25811 0.1673 0.0
H261 H 0.36392 0.26738 0.71885 0.0
H262 H 0.35897 0.21772 0.07418 0.0
H263 H 0.37612 0.22021 0.85595 0.0
C264 C 0.71877 0.14344 0.11887 0.0
C265 C 0.71687 0.14444 0.19555 0.0
N266 N 0.71691 0.13514 0.23323 0.0
N267 N 0.71999 0.13355 0.10791 0.0
C268 C 0.71883 0.12865 0.17871 0.0
H269 H 0.71918 0.14949 0.07359 0.0
Co270 Co 0.72211 0.12866 0.011 0.0
C271 C 0.73788 0.11815 0.05195 0.0
O272 O 0.74632 0.12523 1.00247 0.0
N273 N 0.72356 0.12363 0.91089 0.0
C274 C 0.7246 0.11397 0.80637 0.0
C275 C 0.72596 0.11495 0.88497 0.0
C276 C 0.72012 0.12724 0.847 0.0
N277 N 0.72092 0.12174 0.78244 0.0
O278 O 0.70596 0.11519 0.01439 0.0
H279 H 0.72787 0.1091 0.92023 0.0
H280 H 0.71686 0.13369 0.84831 0.0
O281 O 0.72799 0.1185 0.05832 0.0
C282 C 0.69751 0.1174 0.99619 0.0
O283 O 0.70042 0.1287 0.9801 0.0
N284 N 0.73802 0.14254 0.00693 0.0
C285 C 0.76137 0.16287 0.99234 0.0
C286 C 0.75812 0.15561 0.05857 0.0
C287 C 0.74629 0.14562 0.06546 0.0
C288 C 0.74069 0.1503 0.94635 0.0
C289 C 0.75235 0.16036 0.93717 0.0
H290 H 0.74391 0.14011 0.11688 0.0
H291 H 0.7338 0.14885 0.90483 0.0
H292 H 0.71912 0.12038 0.18994 0.0
H293 H 0.71566 0.15153 0.22168 0.0
H294 H 0.72567 0.1076 0.77023 0.0
H295 H 0.76472 0.1574 0.10362 0.0
H296 H 0.75426 0.16615 0.88724 0.0
C297 C 0.57351 0.86108 0.85495 0.0
C298 C 0.57117 0.86116 0.77784 0.0
N299 N 0.58108 0.8705 0.74499 0.0
N300 N 0.5848 0.8704 0.87087 0.0
C301 C 0.58919 0.87601 0.80248 0.0
H302 H 0.5674 0.85458 0.89689 0.0
Co303 Co 0.5919 0.87363 0.96872 0.0
C304 C 0.6172 0.89316 0.9271 0.0
O305 O 0.61783 0.90091 0.97967 0.0
N306 N 0.59866 0.87667 0.06749 0.0
C307 C 0.60987 0.8798 0.17233 0.0
C308 C 0.60949 0.87848 0.09353 0.0
C309 C 0.5926 0.87673 0.13115 0.0
N310 N 0.59919 0.8787 0.19626 0.0
O311 O 0.59069 0.88797 0.97651 0.0
H312 H 0.61657 0.87863 0.05788 0.0
H313 H 0.58331 0.87495 0.1293 0.0
O314 O 0.60773 0.88262 0.92188 0.0
C315 C 0.57996 0.88565 0.99386 0.0
O316 O 0.5711 0.8742 0.99398 0.0
N317 N 0.59238 0.85922 0.96424 0.0
C318 C 0.59064 0.8364 0.96794 0.0
C319 C 0.59856 0.84537 0.91601 0.0
C320 C 0.59924 0.85676 0.91466 0.0
C321 C 0.58451 0.85056 0.014 0.0
C322 C 0.58356 0.83912 0.0173 0.0
H323 H 0.60513 0.86346 0.87314 0.0
H324 H 0.57894 0.85259 0.05153 0.0
H325 H 0.59803 0.88408 0.79482 0.0
H326 H 0.56293 0.85471 0.74781 0.0
H327 H 0.61746 0.88137 0.20874 0.0
H328 H 0.60402 0.84355 0.87603 0.0
H329 H 0.57742 0.83252 0.05884 0.0
C330 C 0.12305 0.71458 0.93736 0.0
C331 C 0.12017 0.71255 0.86089 0.0
N332 N 0.11964 0.72219 0.83293 0.0
N333 N 0.12415 0.72537 0.95807 0.0
C334 C 0.12217 0.72991 0.89265 0.0
H335 H 0.12441 0.70858 0.97509 0.0
Co336 Co 0.12785 0.7317 0.05729 0.0
C337 C 0.11163 0.74261 0.08483 0.0
O338 O 0.1162 0.7468 0.15302 0.0
N339 N 0.1318 0.73765 0.15905 0.0
C340 C 0.14219 0.74592 0.26688 0.0
C341 C 0.14292 0.74559 0.18807 0.0
C342 C 0.12458 0.7331 0.2218 0.0
N343 N 0.13061 0.738 0.28807 0.0
O344 O 0.11535 0.71634 0.0958 0.0
H345 H 0.15122 0.7504 0.15475 0.0
H346 H 0.115 0.72629 0.21866 0.0
O347 O 0.11573 0.73698 0.0446 0.0
C348 C 0.11884 0.7094 0.12552 0.0
O349 O 0.1306 0.71315 0.12772 0.0
N350 N 0.14046 0.74652 0.01843 0.0
C351 C 0.16087 0.76754 0.96392 0.0
C352 C 0.15136 0.76824 1.00024 0.0
C353 C 0.1412 0.75762 0.02701 0.0
C354 C 0.14965 0.74567 0.98333 0.0
C355 C 0.1599 0.75607 0.95477 0.0
H356 H 0.13424 0.75848 0.05694 0.0
H357 H 0.14908 0.73687 0.9784 0.0
H358 H 0.12256 0.73865 0.88887 0.0
H359 H 0.11887 0.70474 0.82772 0.0
H360 H 0.14976 0.75111 0.30554 0.0
H361 H 0.15182 0.77696 0.0085 0.0
H362 H 0.16716 0.75518 0.92802 0.0
C363 C 0.2591 0.39351 0.91767 0.0
C364 C 0.26019 0.39519 0.83913 0.0
N365 N 0.26714 0.39069 0.81219 0.0
N366 N 0.26518 0.38777 0.94001 0.0
C367 C 0.27014 0.3864 0.87471 0.0
H368 H 0.2539 0.39595 0.95568 0.0
Co369 Co 0.26573 0.38179 0.0377 0.0
C370 C 0.25812 0.35573 1.00009 0.0
O371 O 0.25095 0.35149 0.06048 0.0
N372 N 0.26688 0.37615 0.13677 0.0
C373 C 0.27403 0.36905 0.22835 0.0
C374 C 0.27205 0.36922 0.15114 0.0
C375 C 0.26629 0.3805 0.20714 0.0
N376 N 0.27048 0.37621 0.26378 0.0
O377 O 0.28294 0.38929 0.03063 0.0
H378 H 0.27525 0.36535 0.10798 0.0
H379 H 0.26405 0.3876 0.21627 0.0
O380 O 0.2643 0.36724 0.98832 0.0
C381 C 0.28946 0.40036 0.0514 0.0
O382 O 0.28406 0.40653 0.07128 0.0
N383 N 0.24855 0.37465 0.04509 0.0
C384 C 0.22366 0.36732 0.04732 0.0
C385 C 0.22834 0.36258 0.9928 0.0
C386 C 0.24081 0.36659 0.99139 0.0
C387 C 0.24418 0.37947 0.09789 0.0
C388 C 0.23176 0.37582 0.10079 0.0
H389 H 0.24426 0.36369 0.94408 0.0
H390 H 0.25042 0.38678 0.13478 0.0
H391 H 0.2756 0.38201 0.87288 0.0
H392 H 0.25612 0.39935 0.8046 0.0
H393 H 0.27841 0.36455 0.2558 0.0
H394 H 0.2225 0.35614 0.94958 0.0
H395 H 0.22868 0.38015 0.14176 0.0
C396 C 0.7892 0.73994 0.30227 0.0
C397 C 0.78757 0.73901 0.22373 0.0
N398 N 0.78442 0.72754 0.20208 0.0
N399 N 0.78703 0.7291 0.33034 0.0
C400 C 0.78403 0.72174 0.26824 0.0
H401 H 0.79248 0.74818 0.3359 0.0
Co402 Co 0.79045 0.7258 0.42893 0.0
C403 C 0.77429 0.69866 0.44737 0.0
O404 O 0.78044 0.69773 0.50523 0.0
N405 N 0.79418 0.72265 0.52961 0.0
C406 C 0.80344 0.71938 0.62838 0.0
C407 C 0.80403 0.7218 0.5513 0.0
C408 C 0.78786 0.72092 0.59605 0.0
N409 N 0.7933 0.71886 0.65644 0.0
O410 O 0.77857 0.7292 0.47007 0.0
H411 H 0.81132 0.72282 0.51429 0.0
H412 H 0.77929 0.72086 0.60024 0.0
O413 O 0.77778 0.70897 0.41564 0.0
C414 C 0.78265 0.73995 0.49603 0.0
O415 O 0.79448 0.74764 0.49359 0.0
N416 N 0.80261 0.7233 0.38605 0.0
C417 C 0.8232 0.72354 0.32661 0.0
C418 C 0.81208 0.71253 0.33323 0.0
C419 C 0.80183 0.71261 0.36261 0.0
C420 C 0.81323 0.73411 0.37761 0.0
C421 C 0.82365 0.73444 0.34837 0.0
H422 H 0.7934 0.70407 0.36599 0.0
H423 H 0.81362 0.7425 0.39551 0.0
H424 H 0.78219 0.71243 0.27147 0.0
H425 H 0.78937 0.74646 0.1854 0.0
H426 H 0.81004 0.71823 0.66165 0.0
H427 H 0.8113 0.70394 0.31573 0.0
H428 H 0.83207 0.74314 0.34501 0.0
C429 C 0.26335 0.06442 0.16056 0.0
C430 C 0.26165 0.06339 0.08222 0.0
N431 N 0.26525 0.05568 0.05618 0.0
N432 N 0.26825 0.05757 0.18324 0.0
C433 C 0.26917 0.05224 0.11821 0.0
H434 H 0.2615 0.07011 0.19825 0.0
Co435 Co 0.27367 0.0568 0.28188 0.0
C436 C 0.29247 0.05062 0.24094 0.0
O437 O 0.28733 0.04095 0.28558 0.0
N438 N 0.27922 0.05613 0.38036 0.0
C439 C 0.2911 0.0613 0.48362 0.0
C440 C 0.29089 0.06249 0.40534 0.0
C441 C 0.2725 0.05107 0.44435 0.0
N442 N 0.27954 0.05415 0.50807 0.0
O443 O 0.26507 0.03942 0.27746 0.0
H444 H 0.29869 0.06821 0.36953 0.0
H445 H 0.26261 0.04594 0.44482 0.0
O446 O 0.28801 0.05768 0.23657 0.0
C447 C 0.25349 0.03446 0.27912 0.0
O448 O 0.24854 0.04146 0.27728 0.0
N449 N 0.2813 0.07373 0.29011 0.0
C450 C 0.29041 0.09834 0.32051 0.0
C451 C 0.29551 0.09475 0.26158 0.0
C452 C 0.29083 0.08226 0.24743 0.0
C453 C 0.27598 0.07716 0.34517 0.0
C454 C 0.2805 0.08941 0.3621 0.0
H455 H 0.29476 0.07947 0.20216 0.0
H456 H 0.2682 0.07026 0.37668 0.0
H457 H 0.27306 0.04631 0.11587 0.0
H458 H 0.25823 0.06808 0.04685 0.0
H459 H 0.29909 0.06572 0.5202 0.0
H460 H 0.30307 0.1015 0.22768 0.0
H461 H 0.27619 0.0919 0.40683 0.0
C462 C 0.95186 0.20214 0.21834 0.0
C463 C 0.95347 0.20394 0.14041 0.0
N464 N 0.94517 0.20675 0.11363 0.0
N465 N 0.94257 0.20377 0.24075 0.0
C466 C 0.93873 0.20669 0.17571 0.0
H467 H 0.95668 0.19913 0.25561 0.0
Co468 Co 0.93559 0.19956 0.33781 0.0
C469 C 0.92156 0.21253 0.35796 0.0
O470 O 0.91355 0.20397 0.40342 0.0
N471 N 0.92883 0.19502 0.43773 0.0
C472 C 0.92099 0.18396 0.54382 0.0
C473 C 0.92195 0.18356 0.46552 0.0
C474 C 0.93184 0.20224 0.50107 0.0
N475 N 0.92725 0.1957 0.56609 0.0
O476 O 0.95034 0.21208 0.3817 0.0
H477 H 0.91841 0.17525 0.43272 0.0
H478 H 0.93798 0.21203 0.50026 0.0
O479 O 0.9302 0.21144 0.32825 0.0
C480 C 0.95755 0.20927 0.41489 0.0
O481 O 0.95482 0.19777 0.41576 0.0
N482 N 0.9213 0.18686 0.29248 0.0
C483 C 0.90106 0.16603 0.23387 0.0
C484 C 0.90156 0.17735 0.23259 0.0
C485 C 0.91183 0.18769 0.26104 0.0
C486 C 0.92148 0.17618 0.28713 0.0
C487 C 0.91137 0.16558 0.25922 0.0
H488 H 0.91206 0.19627 0.25605 0.0
H489 H 0.92933 0.17579 0.30824 0.0
H490 H 0.93082 0.20786 0.17286 0.0
H491 H 0.95991 0.20277 0.10557 0.0
H492 H 0.91653 0.17617 0.58198 0.0
H493 H 0.89403 0.17821 0.21007 0.0
H494 H 0.91145 0.15706 0.26048 0.0
C495 C 0.08144 0.47048 0.39098 0.0
C496 C 0.08317 0.47318 0.46799 0.0
N497 N 0.0727 0.46565 0.50527 0.0
N498 N 0.06996 0.46125 0.37937 0.0
C499 C 0.06484 0.45848 0.4502 0.0
H500 H 0.08805 0.47517 0.34601 0.0
Co501 Co 0.06335 0.45543 0.28244 0.0
C502 C 0.03864 0.43391 0.31721 0.0
O503 O 0.03359 0.43534 0.25504 0.0
N504 N 0.05715 0.44979 0.18289 0.0
C505 C 0.05237 0.43865 0.07591 0.0
C506 C 0.05319 0.43846 0.1547 0.0
C507 C 0.05884 0.45669 0.11974 0.0
N508 N 0.05605 0.4502 0.05357 0.0
O509 O 0.07212 0.44688 0.27621 0.0
H510 H 0.05182 0.43071 0.18872 0.0
H511 H 0.06279 0.46646 0.12187 0.0
O512 O 0.04994 0.4412 0.3306 0.0
C513 C 0.08236 0.4526 0.24207 0.0
O514 O 0.08594 0.46359 0.21498 0.0
N515 N 0.05547 0.46468 0.28845 0.0
C516 C 0.04863 0.4824 0.30629 0.0
C517 C 0.04164 0.47078 0.33893 0.0
C518 C 0.04532 0.4621 0.33045 0.0
C519 C 0.06246 0.476 0.25748 0.0
C520 C 0.05912 0.48494 0.26454 0.0
H521 H 0.04032 0.45371 0.36188 0.0
H522 H 0.07101 0.47829 0.22986 0.0
H523 H 0.05539 0.45173 0.46104 0.0
H524 H 0.09148 0.48022 0.49438 0.0
H525 H 0.05014 0.43103 0.03805 0.0
H526 H 0.0336 0.46852 0.37289 0.0
H527 H 0.06505 0.49394 0.24084 0.0
C528 C 0.53077 0.60478 0.44514 0.0
C529 C 0.52913 0.6063 0.5215 0.0
N530 N 0.53817 0.60621 0.56213 0.0
N531 N 0.5408 0.60374 0.43695 0.0
C532 C 0.54514 0.60467 0.5093 0.0
H533 H 0.52484 0.60415 0.39842 0.0
Co534 Co 0.5455 0.6007 0.3412 0.0
C535 C 0.56128 0.59035 0.38548 0.0
O536 O 0.55564 0.58128 0.33657 0.0
N537 N 0.54996 0.59824 0.24151 0.0
C538 C 0.56045 0.5995 0.13531 0.0
C539 C 0.56034 0.59897 0.21439 0.0
C540 C 0.54429 0.59898 0.17739 0.0
N541 N 0.55036 0.59962 0.11203 0.0
O542 O 0.55701 0.61751 0.3299 0.0
H543 H 0.56799 0.60026 0.24894 0.0
H544 H 0.53625 0.59993 0.17904 0.0
O545 O 0.55814 0.59849 0.39058 0.0
C546 C 0.5532 0.62412 0.29951 0.0
O547 O 0.54152 0.61917 0.28287 0.0
N548 N 0.53359 0.58396 0.35258 0.0
C549 C 0.51331 0.56092 0.38071 0.0
C550 C 0.52317 0.56603 0.4319 0.0
C551 C 0.53315 0.57758 0.41725 0.0
C552 C 0.52404 0.57907 0.30224 0.0
C553 C 0.51391 0.56749 0.31449 0.0
H554 H 0.5402 0.58161 0.46037 0.0
H555 H 0.5238 0.58437 0.25468 0.0
H556 H 0.5531 0.60404 0.52331 0.0
H557 H 0.5216 0.60702 0.54532 0.0
H558 H 0.5679 0.6008 0.09839 0.0
H559 H 0.52302 0.56131 0.48414 0.0
H560 H 0.50631 0.56404 0.2747 0.0
C561 C 0.39536 0.94024 0.32505 0.0
C562 C 0.39619 0.93808 0.40139 0.0
N563 N 0.40191 0.94888 0.43839 0.0
N564 N 0.40044 0.95236 0.31335 0.0
C565 C 0.40436 0.95742 0.38366 0.0
H566 H 0.39158 0.9334 0.28041 0.0
Co567 Co 0.40244 0.95898 0.21514 0.0
C568 C 0.40779 0.98478 0.23587 0.0
O569 O 0.41425 0.9885 0.17243 0.0
N570 N 0.40408 0.96491 0.11392 0.0
C571 C 0.39877 0.96992 1.00373 0.0
C572 C 0.39734 0.96936 0.082 0.0
C573 C 0.40922 0.9625 0.05313 0.0
N574 N 0.40617 0.9655 0.98533 0.0
O575 O 0.38521 0.95191 0.20512 0.0
H576 H 0.39112 0.97131 0.11326 0.0
H577 H 0.41442 0.95787 0.05788 0.0
O578 O 0.40325 0.97371 0.25844 0.0
C579 C 0.37995 0.94212 0.16582 0.0
O580 O 0.38647 0.93737 0.14059 0.0
N581 N 0.41929 0.96522 0.22432 0.0
C582 C 0.443 0.96967 0.24889 0.0
C583 C 0.43956 0.97812 0.27295 0.0
C584 C 0.42761 0.97565 0.26119 0.0
C585 C 0.42249 0.95694 0.20041 0.0
C586 C 0.4343 0.95901 0.21147 0.0
H587 H 0.4251 0.98188 0.28569 0.0
H588 H 0.41563 0.94841 0.17516 0.0
H589 H 0.40939 0.96715 0.39399 0.0
H590 H 0.39288 0.9292 0.42752 0.0
H591 H 0.39391 0.97245 0.96324 0.0
H592 H 0.44596 0.98643 0.30258 0.0
H593 H 0.4364 0.95204 0.19399 0.0
C594 C 0.5248 0.93115 0.42492 0.0
C595 C 0.52221 0.92998 0.50215 0.0
N596 N 0.53207 0.93866 0.53942 0.0
N597 N 0.53615 0.94065 0.41351 0.0
C598 C 0.54044 0.94496 0.48468 0.0
H599 H 0.51861 0.92573 0.37953 0.0
Co600 Co 0.54242 0.94654 0.31639 0.0
C601 C 0.56416 0.97159 0.34253 0.0
O602 O 0.56376 0.97573 0.27411 0.0
N603 N 0.54845 0.95188 0.21654 0.0
C604 C 0.56015 0.95619 0.11249 0.0
C605 C 0.5598 0.95521 0.19111 0.0
C606 C 0.542 0.95053 0.15173 0.0
N607 N 0.54889 0.95317 0.08754 0.0
O608 O 0.55145 0.93831 0.31907 0.0
H609 H 0.56728 0.95639 0.22731 0.0
H610 H 0.53224 0.9468 0.15087 0.0
O611 O 0.55624 0.96075 0.36271 0.0
C612 C 0.54634 0.92808 0.28465 0.0
O613 O 0.53491 0.92346 0.26271 0.0
N614 N 0.53288 0.95412 0.31284 0.0
C615 C 0.51563 0.96176 0.31107 0.0
C616 C 0.5271 0.96901 0.34507 0.0
C617 C 0.53554 0.96496 0.34632 0.0
C618 C 0.52167 0.94685 0.28104 0.0
C619 C 0.51295 0.95053 0.27872 0.0
H620 H 0.54393 0.97044 0.37676 0.0
H621 H 0.5194 0.93798 0.25859 0.0
H622 H 0.54925 0.95288 0.49634 0.0
H623 H 0.51365 0.92345 0.52883 0.0
H624 H 0.56803 0.9586 0.07671 0.0
H625 H 0.52951 0.97769 0.37144 0.0
H626 H 0.50407 0.94445 0.25401 0.0
C627 C 0.07401 0.60242 0.42003 0.0
C628 C 0.07675 0.60447 0.49679 0.0
N629 N 0.06765 0.6052 0.53206 0.0
N630 N 0.06329 0.60195 0.40661 0.0
C631 C 0.05955 0.6036 0.47618 0.0
H632 H 0.07948 0.60131 0.37643 0.0
Co633 Co 0.0566 0.59954 0.30888 0.0
C634 C 0.03462 0.60144 0.33943 0.0
O635 O 0.03755 0.6099 0.28675 0.0
N636 N 0.05027 0.59714 0.20979 0.0
C637 C 0.03897 0.59066 0.10417 0.0
C638 C 0.03892 0.58963 0.183 0.0
C639 C 0.05705 0.60246 0.14675 0.0
N640 N 0.05044 0.59877 0.08104 0.0
O641 O 0.06214 0.61654 0.3007 0.0
H642 H 0.03116 0.58362 0.21822 0.0
H643 H 0.06676 0.60872 0.14977 0.0
O644 O 0.04144 0.59685 0.35125 0.0
C645 C 0.07334 0.6238 0.28569 0.0
O646 O 0.08072 0.61935 0.27826 0.0
N647 N 0.05163 0.58297 0.3162 0.0
C648 C 0.04702 0.55901 0.32748 0.0
C649 C 0.04008 0.56286 0.36962 0.0
C650 C 0.04263 0.57491 0.36396 0.0
C651 C 0.05836 0.57941 0.27391 0.0
C652 C 0.05623 0.56747 0.27866 0.0
H653 H 0.03752 0.57773 0.39961 0.0
H654 H 0.06564 0.58599 0.23767 0.0
H655 H 0.0512 0.60382 0.48573 0.0
H656 H 0.08473 0.60519 0.52477 0.0
H657 H 0.03113 0.58561 0.06727 0.0
H658 H 0.03281 0.55666 0.40748 0.0
H659 H 0.062 0.56503 0.2462 0.0
C660 C 0.38028 0.45276 0.41925 0.0
C661 C 0.37875 0.45102 0.49728 0.0
N662 N 0.38715 0.44833 0.52376 0.0
N663 N 0.38962 0.45121 0.39662 0.0
C664 C 0.3936 0.44847 0.46164 0.0
H665 H 0.37525 0.45552 0.38201 0.0
Co666 Co 0.3963 0.45448 0.29836 0.0
C667 C 0.39657 0.43089 0.29524 0.0
O668 O 0.38692 0.42513 0.25096 0.0
N669 N 0.40279 0.45804 0.1991 0.0
C670 C 0.41053 0.46933 0.0942 0.0
C671 C 0.40934 0.46958 0.17229 0.0
C672 C 0.40008 0.4509 0.1359 0.0
N673 N 0.40465 0.45759 0.07131 0.0
O674 O 0.38083 0.44289 0.25713 0.0
H675 H 0.41232 0.47772 0.2066 0.0
H676 H 0.39393 0.44112 0.13606 0.0
O677 O 0.40065 0.44205 0.31285 0.0
C678 C 0.37425 0.44674 0.22636 0.0
O679 O 0.37821 0.45854 0.22577 0.0
N680 N 0.41146 0.46621 0.33853 0.0
C681 C 0.4339 0.4855 0.38561 0.0
C682 C 0.43324 0.4754 0.34777 0.0
C683 C 0.4219 0.46581 0.3248 0.0
C684 C 0.41191 0.47588 0.37623 0.0
C685 C 0.42306 0.48559 0.40117 0.0
H686 H 0.42161 0.45835 0.29272 0.0
H687 H 0.40361 0.47622 0.38498 0.0
H688 H 0.40157 0.44741 0.46428 0.0
H689 H 0.37223 0.45203 0.53226 0.0
H690 H 0.41475 0.47718 0.05646 0.0
H691 H 0.44144 0.47505 0.33461 0.0
H692 H 0.42325 0.49333 0.42926 0.0
C693 C 0.25021 0.18144 0.32299 0.0
C694 C 0.24772 0.17879 0.24625 0.0
N695 N 0.25754 0.18683 0.20549 0.0
N696 N 0.26155 0.1911 0.33096 0.0
C697 C 0.26576 0.19424 0.2582 0.0
H698 H 0.24427 0.17642 0.3703 0.0
Co699 Co 0.26883 0.19673 0.42682 0.0
C700 C 0.29436 0.21582 0.38359 0.0
O701 O 0.29933 0.21216 0.43593 0.0
N702 N 0.2754 0.20208 0.52625 0.0
C703 C 0.28392 0.21293 0.63243 0.0
C704 C 0.28366 0.21324 0.55336 0.0
C705 C 0.27027 0.19547 0.59052 0.0
N706 N 0.27546 0.20168 0.65601 0.0
O707 O 0.26157 0.20664 0.43482 0.0
H708 H 0.28867 0.22137 0.51892 0.0
H709 H 0.26215 0.18657 0.58937 0.0
O710 O 0.28275 0.21045 0.37725 0.0
C711 C 0.25118 0.203 0.46526 0.0
O712 O 0.24462 0.19159 0.48779 0.0
N713 N 0.27591 0.18657 0.41872 0.0
C714 C 0.28489 0.17039 0.40998 0.0
C715 C 0.28852 0.17983 0.35646 0.0
C716 C 0.28384 0.18774 0.36135 0.0
C717 C 0.27165 0.17686 0.46763 0.0
C718 C 0.27625 0.16886 0.46564 0.0
H719 H 0.28649 0.19464 0.31765 0.0
H720 H 0.26436 0.17499 0.50696 0.0
H721 H 0.2749 0.20134 0.24395 0.0
H722 H 0.23938 0.17138 0.22245 0.0
H723 H 0.28963 0.22058 0.66929 0.0
H724 H 0.29492 0.18108 0.31116 0.0
H725 H 0.27277 0.1613 0.50574 0.0
C726 C 0.77637 0.04381 0.23061 0.0
C727 C 0.77385 0.04173 0.15347 0.0
N728 N 0.77542 0.05209 0.12114 0.0
N729 N 0.77936 0.0554 0.24748 0.0
C730 C 0.77876 0.06025 0.17919 0.0
H731 H 0.77617 0.03728 0.27153 0.0
Co732 Co 0.78383 0.06258 0.34521 0.0
C733 C 0.77261 0.07836 0.35896 0.0
O734 O 0.78115 0.08584 0.40661 0.0
N735 N 0.7884 0.0696 0.44546 0.0
C736 C 0.79891 0.07707 0.55399 0.0
C737 C 0.79972 0.0763 0.4755 0.0
C738 C 0.7809 0.06662 0.5073 0.0
N739 N 0.78704 0.0708 0.57434 0.0
O740 O 0.77065 0.04819 0.39025 0.0
H741 H 0.80815 0.07974 0.44389 0.0
H742 H 0.77108 0.06089 0.50342 0.0
O743 O 0.77301 0.06924 0.33078 0.0
C744 C 0.77463 0.04217 0.4268 0.0
O745 O 0.78639 0.04591 0.42426 0.0
N746 N 0.79737 0.07611 0.301 0.0
C747 C 0.81972 0.09393 0.24112 0.0
C748 C 0.80962 0.09573 0.24215 0.0
C749 C 0.79845 0.08664 0.27158 0.0
C750 C 0.80689 0.07396 0.29654 0.0
C751 C 0.81817 0.08277 0.26746 0.0
H752 H 0.7908 0.08811 0.26885 0.0
H753 H 0.80577 0.06543 0.31803 0.0
H754 H 0.78066 0.06954 0.17203 0.0
H755 H 0.77134 0.03332 0.12304 0.0
H756 H 0.80656 0.08113 0.59333 0.0
H757 H 0.81034 0.10409 0.22021 0.0
H758 H 0.82571 0.08098 0.2681 0.0
C759 C 0.94758 0.74495 0.24391 0.0
C760 C 0.94723 0.74728 0.16726 0.0
N761 N 0.93998 0.73662 0.13113 0.0
N762 N 0.94065 0.73285 0.25669 0.0
C763 C 0.93614 0.72798 0.18667 0.0
H764 H 0.95231 0.75173 0.28794 0.0
Co765 Co 0.93728 0.72599 0.35493 0.0
C766 C 0.92829 0.69931 0.33159 0.0
O767 O 0.92127 0.69603 0.39266 0.0
N768 N 0.93427 0.71965 0.45581 0.0
C769 C 0.93775 0.71296 0.56597 0.0
C770 C 0.93932 0.71348 0.48786 0.0
C771 C 0.92999 0.72311 0.51645 0.0
N772 N 0.93197 0.71913 0.58434 0.0
O773 O 0.95407 0.73083 0.36921 0.0
H774 H 0.94463 0.7103 0.45698 0.0
H775 H 0.92629 0.72916 0.51146 0.0
O776 O 0.93439 0.71052 0.31123 0.0
C777 C 0.95961 0.74042 0.41026 0.0
O778 O 0.95368 0.74605 0.43069 0.0
N779 N 0.92107 0.72222 0.34263 0.0
C780 C 0.8995 0.72236 0.31313 0.0
C781 C 0.90055 0.71218 0.29363 0.0
C782 C 0.91155 0.71237 0.30755 0.0
C783 C 0.92003 0.73205 0.36322 0.0
C784 C 0.90934 0.73234 0.34891 0.0
H785 H 0.91245 0.70487 0.28629 0.0
H786 H 0.9278 0.73996 0.38827 0.0
H787 H 0.92974 0.71838 0.17717 0.0
H788 H 0.95189 0.7562 0.14035 0.0
H789 H 0.94154 0.70925 0.60648 0.0
H790 H 0.89316 0.70442 0.26454 0.0
H791 H 0.90884 0.74038 0.36444 0.0
C792 C 0.4703 0.07619 0.58804 0.0
C793 C 0.47229 0.07888 0.51109 0.0
N794 N 0.46216 0.07094 0.47242 0.0
N795 N 0.45891 0.06669 0.59842 0.0
C796 C 0.45422 0.06358 0.52652 0.0
H797 H 0.47677 0.08086 0.63378 0.0
Co798 Co 0.45261 0.06039 0.6958 0.0
C799 C 0.42803 0.04673 0.62354 0.0
O800 O 0.42603 0.05588 0.63325 0.0
N801 N 0.44675 0.05445 0.79375 0.0
C802 C 0.43711 0.04389 0.89802 0.0
C803 C 0.43768 0.04358 0.81885 0.0
C804 C 0.45157 0.06112 0.85796 0.0
N805 N 0.44586 0.05498 0.92262 0.0
O806 O 0.44563 0.07063 0.70282 0.0
H807 H 0.43186 0.03593 0.78229 0.0
H808 H 0.45931 0.07031 0.85679 0.0
O809 O 0.43784 0.04738 0.64876 0.0
C810 C 0.45233 0.08179 0.72137 0.0
O811 O 0.46406 0.08613 0.73305 0.0
N812 N 0.46027 0.0511 0.69206 0.0
C813 C 0.47564 0.04124 0.68867 0.0
C814 C 0.4643 0.03532 0.6509 0.0
C815 C 0.45673 0.0405 0.65266 0.0
C816 C 0.47107 0.05674 0.73059 0.0
C817 C 0.47889 0.05198 0.72976 0.0
H818 H 0.44826 0.03613 0.62082 0.0
H819 H 0.47374 0.0652 0.76074 0.0
H820 H 0.44516 0.05621 0.51344 0.0
H821 H 0.48059 0.08607 0.48549 0.0
H822 H 0.43063 0.03654 0.93428 0.0
H823 H 0.46152 0.02705 0.61825 0.0
H824 H 0.48748 0.05674 0.76051 0.0
C825 C 0.93401 0.38294 0.63521 0.0
C826 C 0.93178 0.38033 0.55829 0.0
N827 N 0.942 0.3879 0.51899 0.0
N828 N 0.94561 0.39204 0.64479 0.0
C829 C 0.95022 0.39501 0.57276 0.0
H830 H 0.92769 0.37828 0.68168 0.0
Co831 Co 0.95253 0.39737 0.7416 0.0
C832 C 0.97747 0.40094 0.7243 0.0
O833 O 0.97697 0.396 0.79158 0.0
N834 N 0.95889 0.4024 0.84029 0.0
C835 C 0.96922 0.41227 0.94481 0.0
C836 C 0.96882 0.41265 0.86565 0.0
C837 C 0.95338 0.39605 0.90451 0.0
N838 N 0.95948 0.40177 0.96916 0.0
O839 O 0.9496 0.38138 0.76479 0.0
H840 H 0.97529 0.41993 0.82907 0.0
H841 H 0.94483 0.38747 0.90355 0.0
O842 O 0.96846 0.40195 0.70056 0.0
C843 C 0.9517 0.37343 0.73489 0.0
O844 O 0.95766 0.37567 0.66965 0.0
N845 N 0.95461 0.41274 0.72201 0.0
C846 C 0.95641 0.43551 0.71845 0.0
C847 C 0.96425 0.43324 0.67358 0.0
C848 C 0.96326 0.4217 0.67648 0.0
C849 C 0.94652 0.41466 0.76249 0.0
C850 C 0.94734 0.42605 0.76229 0.0
H851 H 0.96958 0.42012 0.64358 0.0
H852 H 0.93967 0.40738 0.79752 0.0
H853 H 0.95947 0.40196 0.5599 0.0
H854 H 0.92331 0.37331 0.53327 0.0
H855 H 0.9762 0.41915 0.98131 0.0
H856 H 0.97133 0.44041 0.63902 0.0
H857 H 0.94109 0.42753 0.79714 0.0
C858 C 0.60824 0.5283 0.67576 0.0
C859 C 0.60771 0.52538 0.59945 0.0
N860 N 0.60148 0.52987 0.56194 0.0
N861 N 0.60245 0.53469 0.68688 0.0
C862 C 0.59843 0.53554 0.61631 0.0
H863 H 0.6123 0.52562 0.72083 0.0
Co864 Co 0.59999 0.53889 0.78501 0.0
C865 C 0.59235 0.55768 0.76604 0.0
O866 O 0.58581 0.55422 0.82925 0.0
N867 N 0.59799 0.54281 0.88637 0.0
C868 C 0.60267 0.55317 0.99635 0.0
C869 C 0.60403 0.55408 0.91806 0.0
C870 C 0.59334 0.53519 0.94732 0.0
N871 N 0.59602 0.54126 0.01497 0.0
O872 O 0.61697 0.55024 0.79381 0.0
H873 H 0.60975 0.56241 0.88659 0.0
H874 H 0.58878 0.52537 0.94285 0.0
O875 O 0.59781 0.55206 0.74254 0.0
C876 C 0.62365 0.54713 0.83092 0.0
O877 O 0.61874 0.53598 0.85852 0.0
N878 N 0.58332 0.5272 0.77573 0.0
C879 C 0.56064 0.5069 0.7421 0.0
C880 C 0.56347 0.51858 0.71768 0.0
C881 C 0.5749 0.52859 0.73426 0.0
C882 C 0.58062 0.51591 0.8009 0.0
C883 C 0.56926 0.50564 0.78573 0.0
H884 H 0.57704 0.53715 0.70848 0.0
H885 H 0.5876 0.51477 0.82935 0.0
H886 H 0.59291 0.5397 0.60547 0.0
H887 H 0.61158 0.52027 0.57373 0.0
H888 H 0.60709 0.56066 0.03668 0.0
H889 H 0.55709 0.51991 0.68325 0.0
H890 H 0.56752 0.49672 0.80407 0.0
C891 C 0.74338 0.80926 0.75453 0.0
C892 C 0.74484 0.81173 0.83184 0.0
N893 N 0.73469 0.80328 0.86796 0.0
N894 N 0.73231 0.79938 0.74191 0.0
C895 C 0.72725 0.79584 0.81237 0.0
H896 H 0.74981 0.81457 0.7099 0.0
Co897 Co 0.72611 0.79397 0.64423 0.0
C898 C 0.6991 0.77974 0.66687 0.0
O899 O 0.69703 0.78436 0.60491 0.0
N900 N 0.72022 0.78855 0.54396 0.0
C901 C 0.71127 0.77669 0.44207 0.0
C902 C 0.71256 0.77695 0.52077 0.0
C903 C 0.7238 0.79501 0.4779 0.0
N904 N 0.71834 0.78812 0.41527 0.0
O905 O 0.72982 0.78123 0.65244 0.0
H906 H 0.70831 0.76912 0.55858 0.0
H907 H 0.73078 0.80447 0.47461 0.0
O908 O 0.71003 0.78306 0.68723 0.0
C909 C 0.74069 0.78433 0.63334 0.0
O910 O 0.74816 0.79572 0.61324 0.0
N911 N 0.72331 0.80721 0.63573 0.0
C912 C 0.72182 0.82813 0.60757 0.0
C913 C 0.71333 0.81891 0.65596 0.0
C914 C 0.71442 0.80862 0.6709 0.0
C915 C 0.73241 0.81675 0.5966 0.0
C916 C 0.73171 0.82716 0.58012 0.0
H917 H 0.70818 0.80195 0.7112 0.0
H918 H 0.74023 0.81617 0.57701 0.0
H919 H 0.71809 0.78835 0.82274 0.0
H920 H 0.75267 0.81927 0.85933 0.0
H921 H 0.70564 0.76869 0.40754 0.0
H922 H 0.70582 0.81954 0.68112 0.0
H923 H 0.73888 0.83438 0.54632 0.0
C924 C 0.20631 0.95774 0.78353 0.0
C925 C 0.20798 0.95827 0.86206 0.0
N926 N 0.20974 0.949 0.88362 0.0
N927 N 0.20705 0.94821 0.75526 0.0
C928 C 0.20933 0.9432 0.81728 0.0
H929 H 0.20393 0.96345 0.75005 0.0
Co930 Co 0.20277 0.94146 0.65632 0.0
C931 C 0.22694 0.94266 0.63996 0.0
O932 O 0.23222 0.95295 0.6011 0.0
N933 N 0.19838 0.9347 0.55682 0.0
C934 C 0.18703 0.9242 0.45663 0.0
C935 C 0.18699 0.92632 0.53399 0.0
C936 C 0.20513 0.93779 0.49152 0.0
N937 N 0.19841 0.93149 0.43005 0.0
O938 O 0.21305 0.95703 0.61135 0.0
H939 H 0.17904 0.92219 0.57083 0.0
H940 H 0.2147 0.94468 0.48861 0.0
O941 O 0.21583 0.93793 0.66078 0.0
C942 C 0.2069 0.96133 0.58009 0.0
O943 O 0.19502 0.95567 0.59164 0.0
N944 N 0.19208 0.9262 0.69939 0.0
C945 C 0.17389 0.90375 0.75427 0.0
C946 C 0.18381 0.9046 0.713 0.0
C947 C 0.19287 0.91596 0.68615 0.0
C948 C 0.18256 0.92555 0.74011 0.0
C949 C 0.17343 0.91441 0.76906 0.0
H950 H 0.20018 0.91641 0.65155 0.0
H951 H 0.18191 0.93369 0.74846 0.0
H952 H 0.20995 0.93499 0.81386 0.0
H953 H 0.20708 0.96449 0.90056 0.0
H954 H 0.17923 0.9181 0.42191 0.0
H955 H 0.18439 0.89652 0.70011 0.0
H956 H 0.16579 0.91404 0.79961 0.0
C957 C 0.06726 0.26589 0.74144 0.0
C958 C 0.06857 0.26539 0.81952 0.0
N959 N 0.06503 0.27269 0.85329 0.0
N960 N 0.06325 0.27375 0.72584 0.0
C961 C 0.06167 0.2775 0.79556 0.0
H962 H 0.06959 0.26119 0.69871 0.0
Co963 Co 0.06204 0.27917 0.62782 0.0
C964 C 0.06855 0.30548 0.6537 0.0
O965 O 0.0711 0.30897 0.58183 0.0
N966 N 0.06049 0.28431 0.52808 0.0
C967 C 0.05247 0.28899 0.42829 0.0
C968 C 0.05211 0.28743 0.5067 0.0
C969 C 0.06577 0.28401 0.46102 0.0
N970 N 0.06111 0.28684 0.39975 0.0
O971 O 0.04499 0.27249 0.64204 0.0
H972 H 0.04591 0.2883 0.54555 0.0
H973 H 0.07248 0.28118 0.45563 0.0
O974 O 0.0651 0.29448 0.67294 0.0
C975 C 0.03878 0.26112 0.62777 0.0
O976 O 0.04463 0.25518 0.61312 0.0
N977 N 0.07877 0.28493 0.61311 0.0
C978 C 0.10251 0.28905 0.59574 0.0
C979 C 0.10035 0.29752 0.63474 0.0
C980 C 0.08838 0.29523 0.64349 0.0
C981 C 0.08072 0.27655 0.57629 0.0
C982 C 0.09248 0.27852 0.56561 0.0
H983 H 0.08695 0.30152 0.67748 0.0
H984 H 0.07299 0.26817 0.55555 0.0
H985 H 0.05866 0.28406 0.80399 0.0
H986 H 0.07224 0.26039 0.84918 0.0
H987 H 0.04675 0.29139 0.3949 0.0
H988 H 0.10778 0.3056 0.66092 0.0
H989 H 0.09366 0.27175 0.53462 0.0
C990 C 0.18584 0.2538 0.69322 0.0
C991 C 0.18364 0.25099 0.76958 0.0
N992 N 0.19418 0.25759 0.80857 0.0
N993 N 0.19767 0.26229 0.6834 0.0
C994 C 0.20259 0.26443 0.75472 0.0
H995 H 0.17924 0.2498 0.64731 0.0
Co996 Co 0.20406 0.26774 0.58618 0.0
C997 C 0.22343 0.29374 0.60532 0.0
O998 O 0.22053 0.29668 0.53936 0.0
N999 N 0.21024 0.27243 0.48574 0.0
C1000 C 0.2226 0.2772 0.3842 0.0
C1001 C 0.22205 0.27778 0.46296 0.0
C1002 C 0.20384 0.26818 0.41974 0.0
N1003 N 0.21109 0.27104 0.35736 0.0
O1004 O 0.21387 0.26039 0.5958 0.0
H1005 H 0.22979 0.28117 0.5014 0.0
H1006 H 0.19407 0.26233 0.41719 0.0
O1007 O 0.21747 0.28273 0.62979 0.0
C1008 C 0.20963 0.24919 0.57914 0.0
O1009 O 0.198 0.24245 0.56147 0.0
N1010 N 0.19389 0.27472 0.57692 0.0
C1011 C 0.17652 0.28222 0.56863 0.0
C1012 C 0.18695 0.28856 0.61446 0.0
C1013 C 0.19533 0.28445 0.61957 0.0
C1014 C 0.18347 0.26813 0.53508 0.0
C1015 C 0.17477 0.27181 0.52911 0.0
H1016 H 0.20256 0.2888 0.66115 0.0
H1017 H 0.18153 0.25956 0.50964 0.0
H1018 H 0.21217 0.27059 0.76653 0.0
H1019 H 0.17488 0.24456 0.79428 0.0
H1020 H 0.23077 0.28021 0.35005 0.0
H1021 H 0.1883 0.29625 0.64915 0.0
H1022 H 0.16661 0.26639 0.4952 0.0
C1023 C 0.73007 0.93558 0.72637 0.0
C1024 C 0.72967 0.93331 0.80362 0.0
N1025 N 0.72017 0.9339 0.83345 0.0
N1026 N 0.72074 0.9374 0.70757 0.0
C1027 C 0.71493 0.93649 0.77444 0.0
H1028 H 0.73659 0.93563 0.68602 0.0
Co1029 Co 0.7169 0.93929 0.60759 0.0
C1030 C 0.69007 0.9257 0.59824 0.0
O1031 O 0.69103 0.92185 0.52993 0.0
N1032 N 0.71322 0.9415 0.50542 0.0
C1033 C 0.70591 0.94726 0.40702 0.0
C1034 C 0.70785 0.94807 0.48507 0.0
C1035 C 0.7146 0.93701 0.43807 0.0
N1036 N 0.71007 0.94018 0.37782 0.0
O1037 O 0.72018 0.95543 0.63044 0.0
H1038 H 0.70509 0.9528 0.52486 0.0
H1039 H 0.71876 0.93143 0.4321 0.0
O1040 O 0.69974 0.93272 0.63641 0.0
C1041 C 0.73117 0.96344 0.64565 0.0
O1042 O 0.73951 0.96016 0.65023 0.0
N1043 N 0.7146 0.92364 0.58625 0.0
C1044 C 0.71519 0.90204 0.56545 0.0
C1045 C 0.70577 0.90207 0.6078 0.0
C1046 C 0.70578 0.91301 0.6189 0.0
C1047 C 0.72424 0.92386 0.54954 0.0
C1048 C 0.72456 0.91314 0.53656 0.0
H1049 H 0.699 0.91293 0.65686 0.0
H1050 H 0.73183 0.93251 0.53092 0.0
H1051 H 0.7068 0.93725 0.77952 0.0
H1052 H 0.73582 0.93131 0.8355 0.0
H1053 H 0.70141 0.95122 0.37485 0.0
H1054 H 0.69858 0.89374 0.6333 0.0
H1055 H 0.73229 0.91361 0.50655 0.0
C1056 C 0.05518 0.80287 0.84694 0.0
C1057 C 0.05261 0.80272 0.92384 0.0
N1058 N 0.05176 0.79259 0.95507 0.0
N1059 N 0.05589 0.79284 0.82955 0.0
C1060 C 0.05362 0.78666 0.89673 0.0
H1061 H 0.0568 0.81002 0.80646 0.0
Co1062 Co 0.06038 0.79008 0.73214 0.0
C1063 C 0.06512 0.76926 0.76705 0.0
O1064 O 0.0601 0.76273 0.70506 0.0
N1065 N 0.06462 0.7876 0.63317 0.0
C1066 C 0.07271 0.78464 0.52763 0.0
C1067 C 0.07356 0.7857 0.60671 0.0
C1068 C 0.0587 0.78793 0.56945 0.0
N1069 N 0.06327 0.78601 0.50399 0.0
O1070 O 0.04427 0.77675 0.71566 0.0
H1071 H 0.08031 0.7852 0.64235 0.0
H1072 H 0.0513 0.78986 0.5716 0.0
O1073 O 0.06531 0.77932 0.77756 0.0
C1074 C 0.03636 0.77978 0.69845 0.0
O1075 O 0.03954 0.79139 0.70187 0.0
N1076 N 0.07607 0.80344 0.74693 0.0
C1077 C 0.09839 0.82467 0.771 0.0
C1078 C 0.09426 0.81482 0.82202 0.0
C1079 C 0.08307 0.80428 0.80903 0.0
C1080 C 0.07991 0.81294 0.69677 0.0
C1081 C 0.09114 0.82361 0.70723 0.0
H1082 H 0.07987 0.79699 0.85054 0.0
H1083 H 0.07412 0.81231 0.6492 0.0
H1084 H 0.05323 0.77798 0.90297 0.0
H1085 H 0.05189 0.80974 0.95511 0.0
H1086 H 0.07862 0.78297 0.49092 0.0
H1087 H 0.0996 0.8153 0.87196 0.0
H1088 H 0.09393 0.83111 0.66726 0.0
C1089 C 0.91701 0.52052 0.56988 0.0
C1090 C 0.91401 0.51913 0.49328 0.0
N1091 N 0.92267 0.52893 0.45509 0.0
N1092 N 0.92752 0.53112 0.58031 0.0
C1093 C 0.93078 0.53608 0.50929 0.0
H1094 H 0.91183 0.51424 0.6155 0.0
Co1095 Co 0.93429 0.53662 0.67714 0.0
C1096 C 0.96087 0.55035 0.63909 0.0
O1097 O 0.96343 0.54444 0.69133 0.0
N1098 N 0.94041 0.54217 0.77741 0.0
C1099 C 0.95011 0.55291 0.8818 0.0
C1100 C 0.95069 0.55208 0.80323 0.0
C1101 C 0.93347 0.53764 0.84131 0.0
N1102 N 0.93922 0.54379 0.90579 0.0
O1103 O 0.93005 0.54895 0.67259 0.0
H1104 H 0.95789 0.55885 0.76781 0.0
H1105 H 0.92415 0.53015 0.84003 0.0
O1106 O 0.94989 0.54803 0.63023 0.0
C1107 C 0.91943 0.54673 0.69143 0.0
O1108 O 0.91107 0.53548 0.70895 0.0
N1109 N 0.93828 0.52404 0.68182 0.0
C1110 C 0.94469 0.50598 0.69714 0.0
C1111 C 0.94806 0.51335 0.63144 0.0
C1112 C 0.94459 0.52222 0.62433 0.0
C1113 C 0.93386 0.51605 0.74178 0.0
C1114 C 0.93716 0.50714 0.75145 0.0
H1115 H 0.94727 0.52785 0.57336 0.0
H1116 H 0.92767 0.51644 0.78246 0.0
H1117 H 0.93877 0.54486 0.4977 0.0
H1118 H 0.9061 0.51145 0.46762 0.0
H1119 H 0.9569 0.56007 0.91782 0.0
H1120 H 0.95361 0.51252 0.58706 0.0
H1121 H 0.93381 0.50117 0.80101 0.0
C1122 C 0.46467 0.38283 0.56878 0.0
C1123 C 0.46708 0.38303 0.4917 0.0
N1124 N 0.45984 0.3862 0.45315 0.0
N1125 N 0.45597 0.3859 0.57904 0.0
C1126 C 0.45312 0.38781 0.50731 0.0
H1127 H 0.46939 0.38117 0.61483 0.0
Co1128 Co 0.45173 0.38889 0.67563 0.0
C1129 C 0.43694 0.4007 0.64043 0.0
O1130 O 0.44236 0.40876 0.69554 0.0
N1131 N 0.44754 0.3915 0.77532 0.0
C1132 C 0.43658 0.38984 0.87964 0.0
C1133 C 0.43636 0.38879 0.80096 0.0
C1134 C 0.45419 0.39363 0.84028 0.0
N1135 N 0.44783 0.39286 0.90465 0.0
O1136 O 0.43937 0.3723 0.68478 0.0
H1137 H 0.42831 0.38554 0.76539 0.0
H1138 H 0.46318 0.39467 0.84116 0.0
O1139 O 0.43986 0.39251 0.62851 0.0
C1140 C 0.44282 0.3656 0.71829 0.0
O1141 O 0.45439 0.37038 0.73711 0.0
N1142 N 0.46461 0.40517 0.66754 0.0
C1143 C 0.48553 0.42826 0.65944 0.0
C1144 C 0.47533 0.42534 0.6133 0.0
C1145 C 0.46512 0.41364 0.6165 0.0
C1146 C 0.47477 0.40757 0.70828 0.0
C1147 C 0.48524 0.4191 0.70632 0.0
H1148 H 0.45786 0.41141 0.57601 0.0
H1149 H 0.47496 0.40036 0.74025 0.0
H1150 H 0.44687 0.39109 0.49502 0.0
H1151 H 0.47391 0.38134 0.4661 0.0
H1152 H 0.42886 0.38805 0.91543 0.0
H1153 H 0.47521 0.43197 0.57451 0.0
H1154 H 0.49315 0.42068 0.73953 0.0
C1155 C 0.59988 0.06571 0.6939 0.0
C1156 C 0.60072 0.06616 0.61451 0.0
N1157 N 0.5941 0.05468 0.58727 0.0
N1158 N 0.59277 0.05399 0.71646 0.0
C1159 C 0.58924 0.04762 0.6499 0.0
H1160 H 0.6044 0.07342 0.73227 0.0
Co1161 Co 0.58854 0.04676 0.81507 0.0
C1162 C 0.5986 0.03276 0.74335 0.0
O1163 O 0.60929 0.04283 0.74291 0.0
N1164 N 0.58415 0.03928 0.91185 0.0
C1165 C 0.57626 0.02479 1.00104 0.0
C1166 C 0.57692 0.02718 0.92382 0.0
C1167 C 0.58769 0.04409 0.98314 0.0
N1168 N 0.58311 0.03541 0.03857 0.0
O1169 O 0.60525 0.05442 0.84444 0.0
H1170 H 0.57257 0.02042 0.87913 0.0
H1171 H 0.59384 0.05369 0.99414 0.0
O1172 O 0.5894 0.03276 0.77432 0.0
C1173 C 0.61081 0.06511 0.87291 0.0
O1174 O 0.6049 0.07113 0.88191 0.0
N1175 N 0.57209 0.04003 0.78952 0.0
C1176 C 0.54836 0.03432 0.75231 0.0
C1177 C 0.55249 0.02612 0.73514 0.0
C1178 C 0.56446 0.02916 0.75425 0.0
C1179 C 0.56812 0.04789 0.80849 0.0
C1180 C 0.55631 0.04522 0.79066 0.0
H1181 H 0.56761 0.02291 0.73934 0.0
H1182 H 0.57431 0.05641 0.8368 0.0
H1183 H 0.58331 0.03783 0.64719 0.0
H1184 H 0.60615 0.07422 0.57995 0.0
H1185 H 0.57117 0.01587 0.02741 0.0
H1186 H 0.54665 0.01761 0.70553 0.0
H1187 H 0.55344 0.05169 0.80672 0.0
H1188 H 0.09832 0.39908 0.19911 0.0
H1189 H 0.13625 0.42756 0.17452 0.0
H1190 H 0.13023 0.44326 0.18769 0.0
H1191 H 0.08487 0.41435 0.09678 0.0
H1192 H 0.07203 0.40916 0.16102 0.0
H1193 H 0.07921 0.40006 0.14715 0.0
H1194 H 0.08272 0.40023 0.29385 0.0
H1195 H 0.07558 0.40935 0.30814 0.0
H1196 H 0.09081 0.41463 0.3437 0.0
H1197 H 0.12025 0.45584 0.20035 0.0
H1198 H 0.10691 0.46469 0.2187 0.0
H1199 H 0.0755 0.42825 0.24279 0.0
C1200 C 0.10532 0.40863 0.19598 0.0
C1201 C 0.11774 0.41213 0.18538 0.0
C1202 C 0.12668 0.42469 0.18271 0.0
C1203 C 0.12336 0.43368 0.18994 0.0
C1204 C 0.11107 0.42994 0.20076 0.0
C1205 C 0.10218 0.41774 0.20439 0.0
C1206 C 0.08969 0.41628 0.21899 0.0
C1207 C 0.08093 0.40957 0.15198 0.0
C1208 C 0.08439 0.40973 0.29574 0.0
C1209 C 0.09296 0.42956 0.22254 0.0
C1210 C 0.10534 0.43726 0.21122 0.0
C1211 C 0.11055 0.44992 0.20975 0.0
C1212 C 0.1029 0.45485 0.22006 0.0
C1213 C 0.09022 0.44715 0.23262 0.0
C1214 C 0.08521 0.43434 0.23423 0.0
H1215 H 0.54752 0.64109 0.24937 0.0
H1216 H 0.5783 0.63586 0.29765 0.0
H1217 H 0.59249 0.65688 0.25228 0.0
H1218 H 0.55939 0.6586 0.0778 0.0
H1219 H 0.55326 0.66848 0.09817 0.0
H1220 H 0.54565 0.65305 0.13416 0.0
H1221 H 0.54706 0.66109 0.27302 0.0
H1222 H 0.55456 0.67652 0.23736 0.0
H1223 H 0.56174 0.67226 0.31103 0.0
H1224 H 0.60324 0.67864 0.19879 0.0
H1225 H 0.60953 0.69951 0.15177 0.0
H1226 H 0.57143 0.68991 0.14167 0.0
C1227 C 0.55724 0.64435 0.25063 0.0
C1228 C 0.56181 0.63686 0.27693 0.0
C1229 C 0.57461 0.64149 0.27796 0.0
C1230 C 0.58272 0.65338 0.25195 0.0
C1231 C 0.57787 0.66049 0.22551 0.0
C1232 C 0.56542 0.65615 0.2254 0.0
C1233 C 0.56246 0.66559 0.19585 0.0
C1234 C 0.55474 0.66116 0.12212 0.0
C1235 C 0.55608 0.66907 0.25803 0.0
C1236 C 0.57518 0.67598 0.1795 0.0
C1237 C 0.58399 0.67289 0.19619 0.0
C1238 C 0.59642 0.68115 0.1856 0.0
C1239 C 0.5999 0.69294 0.15857 0.0
C1240 C 0.59096 0.6963 0.14334 0.0
C1241 C 0.57848 0.68762 0.15313 0.0
H1242 H 0.31788 0.89194 0.97437 0.0
H1243 H 0.30482 0.91777 0.98804 0.0
H1244 H 0.32444 0.933 0.04702 0.0
H1245 H 0.33336 0.89917 0.15176 0.0
H1246 H 0.34595 0.89753 0.1178 0.0
H1247 H 0.33115 0.88893 0.07346 0.0
H1248 H 0.34057 0.89787 0.94034 0.0
H1249 H 0.35543 0.90636 0.98408 0.0
H1250 H 0.34946 0.91421 0.92818 0.0
H1251 H 0.34513 0.94488 0.11249 0.0
H1252 H 0.36593 0.95314 0.16651 0.0
H1253 H 0.36522 0.91946 0.10635 0.0
C1254 C 0.3192 0.90085 0.98887 0.0
C1255 C 0.30987 0.9037 0.97659 0.0
C1256 C 0.31192 0.91546 0.99634 0.0
C1257 C 0.32298 0.92412 0.03032 0.0
C1258 C 0.3319 0.9209 0.0433 0.0
C1259 C 0.33018 0.9096 0.02206 0.0
C1260 C 0.34113 0.90833 0.0421 0.0
C1261 C 0.33768 0.89787 0.09971 0.0
C1262 C 0.34699 0.90659 0.96934 0.0
C1263 C 0.34927 0.92064 0.07866 0.0
C1264 C 0.34379 0.92775 0.07939 0.0
C1265 C 0.34954 0.93941 0.11174 0.0
C1266 C 0.3613 0.94399 0.14273 0.0
C1267 C 0.36716 0.93693 0.14048 0.0
C1268 C 0.36098 0.92509 0.10861 0.0
H1269 H 0.42856 0.07464 0.7574 0.0
H1270 H 0.46408 0.10664 0.71682 0.0
H1271 H 0.45549 0.11997 0.74595 0.0
H1272 H 0.40991 0.087 0.68124 0.0
H1273 H 0.39839 0.07986 0.75449 0.0
H1274 H 0.40704 0.0728 0.7239 0.0
H1275 H 0.41361 0.07264 0.86467 0.0
H1276 H 0.40504 0.07974 0.89561 0.0
H1277 H 0.42108 0.08676 0.918 0.0
H1278 H 0.44339 0.12978 0.78337 0.0
H1279 H 0.4287 0.13561 0.83184 0.0
H1280 H 0.40114 0.09727 0.85375 0.0
C1281 C 0.43446 0.08445 0.75334 0.0
C1282 C 0.44695 0.08964 0.73419 0.0
C1283 C 0.45448 0.1025 0.73121 0.0
C1284 C 0.44968 0.11014 0.74742 0.0
C1285 C 0.43737 0.10475 0.76709 0.0
C1286 C 0.42986 0.09221 0.77045 0.0
C1287 C 0.41716 0.0888 0.79791 0.0
C1288 C 0.40756 0.0817 0.73566 0.0
C1289 C 0.41405 0.08156 0.87354 0.0
C1290 C 0.41876 0.10139 0.81008 0.0
C1291 C 0.43045 0.11044 0.79111 0.0
C1292 C 0.43419 0.12279 0.79821 0.0
C1293 C 0.42577 0.126 0.82583 0.0
C1294 C 0.41378 0.1169 0.84672 0.0
C1295 C 0.41024 0.10443 0.83835 0.0
H1296 H 0.93395 0.36424 0.84355 0.0
H1297 H 0.95745 0.35532 0.71022 0.0
H1298 H 0.94776 0.33487 0.77165 0.0
H1299 H 0.93223 0.34728 0.01866 0.0
H1300 H 0.91632 0.34244 0.03327 0.0
H1301 H 0.92625 0.35685 0.98729 0.0
H1302 H 0.91181 0.35043 0.86962 0.0
H1303 H 0.90174 0.33609 0.91517 0.0
H1304 H 0.90773 0.3363 0.82093 0.0
H1305 H 0.93436 0.31488 0.84223 0.0
H1306 H 0.91715 0.29663 0.90274 0.0
H1307 H 0.90201 0.31881 0.98196 0.0
C1308 C 0.93728 0.35812 0.82822 0.0
C1309 C 0.94654 0.36139 0.77267 0.0
C1310 C 0.95039 0.35298 0.75293 0.0
C1311 C 0.945 0.3414 0.78792 0.0
C1312 C 0.93579 0.33844 0.8421 0.0
C1313 C 0.93192 0.34656 0.86153 0.0
C1314 C 0.92099 0.34084 0.91442 0.0
C1315 C 0.92414 0.34723 0.99308 0.0
C1316 C 0.90992 0.34092 0.87781 0.0
C1317 C 0.91901 0.32806 0.92012 0.0
C1318 C 0.92782 0.3269 0.87984 0.0
C1319 C 0.92751 0.31573 0.8745 0.0
C1320 C 0.91775 0.30544 0.90928 0.0
C1321 C 0.90835 0.30641 0.94703 0.0
C1322 C 0.90916 0.31789 0.9538 0.0
H1323 H 0.69171 0.56948 0.96752 0.0
H1324 H 0.69862 0.60671 0.95596 0.0
H1325 H 0.67728 0.59901 0.9139 0.0
H1326 H 0.67266 0.55809 0.80352 0.0
H1327 H 0.66245 0.54337 0.84507 0.0
H1328 H 0.67814 0.55179 0.87592 0.0
H1329 H 0.67116 0.55071 0.01708 0.0
H1330 H 0.65544 0.54216 0.98679 0.0
H1331 H 0.66076 0.55608 0.04092 0.0
H1332 H 0.65551 0.58718 0.86564 0.0
H1333 H 0.63439 0.57206 0.82734 0.0
H1334 H 0.64172 0.54264 0.87612 0.0
C1335 C 0.68872 0.57601 0.95665 0.0
C1336 C 0.69679 0.58868 0.96479 0.0
C1337 C 0.69253 0.59695 0.95046 0.0
C1338 C 0.68047 0.59267 0.92619 0.0
C1339 C 0.67279 0.5801 0.91753 0.0
C1340 C 0.6767 0.57189 0.93341 0.0
C1341 C 0.66664 0.55885 0.9205 0.0
C1342 C 0.67019 0.55267 0.8575 0.0
C1343 C 0.6633 0.55152 0.99581 0.0
C1344 C 0.65647 0.561 0.89411 0.0
C1345 C 0.6602 0.57331 0.89212 0.0
C1346 C 0.65246 0.57751 0.86755 0.0
C1347 C 0.64051 0.56887 0.84551 0.0
C1348 C 0.63644 0.5562 0.84903 0.0
C1349 C 0.64456 0.55227 0.87335 0.0
H1350 H 0.87964 0.57707 0.80648 0.0
H1351 H 0.91336 0.61202 0.81187 0.0
H1352 H 0.92474 0.60199 0.7665 0.0
H1353 H 0.89243 0.55953 0.87794 0.0
H1354 H 0.88301 0.54638 0.81911 0.0
H1355 H 0.87751 0.55646 0.84765 0.0
H1356 H 0.87393 0.55957 0.70483 0.0
H1357 H 0.8795 0.54954 0.67579 0.0
H1358 H 0.88642 0.56483 0.63767 0.0
H1359 H 0.93238 0.58812 0.72161 0.0
H1360 H 0.93608 0.57119 0.69057 0.0
H1361 H 0.89739 0.54525 0.71902 0.0
C1362 C 0.8894 0.58263 0.7976 0.0
C1363 C 0.89563 0.59532 0.81219 0.0
C1364 C 0.90843 0.60227 0.80102 0.0
C1365 C 0.91495 0.59667 0.77491 0.0
C1366 C 0.90851 0.58414 0.76085 0.0
C1367 C 0.89605 0.57719 0.77246 0.0
C1368 C 0.8914 0.56379 0.75697 0.0
C1369 C 0.88576 0.55609 0.82975 0.0
C1370 C 0.88227 0.55917 0.68981 0.0
C1371 C 0.90322 0.56427 0.73538 0.0
C1372 C 0.91296 0.5761 0.73701 0.0
C1373 C 0.92482 0.57881 0.72003 0.0
C1374 C 0.92682 0.56914 0.70226 0.0
C1375 C 0.91701 0.5569 0.70245 0.0
C1376 C 0.90506 0.5545 0.71835 0.0
H1377 H 0.44756 0.34776 0.76374 0.0
H1378 H 0.41803 0.35557 0.73443 0.0
H1379 H 0.40357 0.33551 0.79168 0.0
H1380 H 0.42978 0.31554 0.71751 0.0
H1381 H 0.43765 0.31134 0.78671 0.0
H1382 H 0.44544 0.3262 0.74239 0.0
H1383 H 0.45044 0.33629 0.87714 0.0
H1384 H 0.4425 0.32146 0.92185 0.0
H1385 H 0.43817 0.33273 0.94363 0.0
H1386 H 0.39261 0.31492 0.85788 0.0
H1387 H 0.38553 0.29453 0.91452 0.0
H1388 H 0.42231 0.30025 0.8969 0.0
C1389 C 0.43803 0.34522 0.7688 0.0
C1390 C 0.43389 0.3532 0.74479 0.0
C1391 C 0.42136 0.34954 0.75203 0.0
C1392 C 0.41311 0.33821 0.78493 0.0
C1393 C 0.41756 0.33066 0.8095 0.0
C1394 C 0.42969 0.33395 0.8007 0.0
C1395 C 0.43216 0.32414 0.83047 0.0
C1396 C 0.43651 0.319 0.76539 0.0
C1397 C 0.44136 0.32895 0.89724 0.0
C1398 C 0.41952 0.31482 0.85791 0.0
C1399 C 0.41124 0.31878 0.84598 0.0
C1400 C 0.39901 0.31172 0.86723 0.0
C1401 C 0.3951 0.30019 0.89985 0.0
C1402 C 0.40338 0.29583 0.91019 0.0
C1403 C 0.41577 0.30334 0.88976 0.0
H1404 H 0.67723 0.11954 0.97676 0.0
H1405 H 0.68904 0.09273 0.99399 0.0
H1406 H 0.66788 0.07622 0.9684 0.0
H1407 H 0.64743 0.10094 0.06726 0.0
H1408 H 0.64004 0.10663 1.00464 0.0
H1409 H 0.65597 0.11617 0.02828 0.0
H1410 H 0.66137 0.11906 0.88338 0.0
H1411 H 0.64549 0.10947 0.85928 0.0
H1412 H 0.65666 0.1058 0.82352 0.0
H1413 H 0.64574 0.06287 0.93122 0.0
H1414 H 0.62404 0.05355 0.89322 0.0
H1415 H 0.62679 0.08916 0.90436 0.0
C1416 C 0.67536 0.11019 0.97598 0.0
C1417 C 0.68477 0.10741 0.98729 0.0
C1418 C 0.68195 0.09506 0.98581 0.0
C1419 C 0.66997 0.08563 0.97116 0.0
C1420 C 0.66095 0.08872 0.95897 0.0
C1421 C 0.66348 0.10069 0.96209 0.0
C1422 C 0.65222 0.10164 0.94558 0.0
C1423 C 0.64871 0.10664 0.01563 0.0
C1424 C 0.65405 0.10945 0.87366 0.0
C1425 C 0.64298 0.08834 0.93144 0.0
C1426 C 0.64818 0.08103 0.93929 0.0
C1427 C 0.64153 0.06849 0.92576 0.0
C1428 C 0.62924 0.06329 0.90392 0.0
C1429 C 0.62373 0.07063 0.89628 0.0
C1430 C 0.63071 0.0833 0.91058 0.0
H1431 H 0.53831 0.90733 0.19983 0.0
H1432 H 0.57123 0.93783 0.29477 0.0
H1433 H 0.58375 0.93099 0.22455 0.0
H1434 H 0.54856 0.88524 0.20496 0.0
H1435 H 0.541 0.87822 0.11605 0.0
H1436 H 0.53489 0.88538 0.17695 0.0
H1437 H 0.53575 0.89894 0.0625 0.0
H1438 H 0.54215 0.89202 1.00177 0.0
H1439 H 0.55008 0.90838 0.01422 0.0
H1440 H 0.59266 0.92106 0.1388 0.0
H1441 H 0.59695 0.90766 0.05651 0.0
H1442 H 0.55805 0.88418 0.01774 0.0
C1443 C 0.54814 0.91249 0.20693 0.0
C1444 C 0.55378 0.9231 0.25291 0.0
C1445 C 0.56669 0.92962 0.26022 0.0
C1446 C 0.57389 0.92586 0.2201 0.0
C1447 C 0.56802 0.91558 0.17315 0.0
C1448 C 0.55542 0.90891 0.1673 0.0
C1449 C 0.55129 0.89824 0.11302 0.0
C1450 C 0.54348 0.88605 0.15529 0.0
C1451 C 0.54441 0.89948 0.04379 0.0
C1452 C 0.56352 0.89988 0.08938 0.0
C1453 C 0.57309 0.90997 0.12402 0.0
C1454 C 0.58523 0.91314 0.11132 0.0
C1455 C 0.58759 0.90556 0.06398 0.0
C1456 C 0.57783 0.89492 0.0306 0.0
C1457 C 0.5657 0.89227 0.04224 0.0
H1458 H 0.12335 0.69136 0.16982 0.0
H1459 H 0.09418 0.69986 0.14762 0.0
H1460 H 0.07932 0.67911 0.19415 0.0
H1461 H 0.10653 0.66109 0.10176 0.0
H1462 H 0.11351 0.65522 0.16643 0.0
H1463 H 0.12183 0.67096 0.13673 0.0
H1464 H 0.12509 0.67784 0.27922 0.0
H1465 H 0.11676 0.6621 0.30941 0.0
H1466 H 0.11204 0.67267 0.34157 0.0
H1467 H 0.06759 0.65704 0.23878 0.0
H1468 H 0.05993 0.6354 0.27313 0.0
H1469 H 0.09698 0.6417 0.26324 0.0
C1470 C 0.11386 0.68893 0.17548 0.0
C1471 C 0.10991 0.69721 0.15535 0.0
C1472 C 0.09739 0.69362 0.16273 0.0
C1473 C 0.08891 0.68189 0.18933 0.0
C1474 C 0.09312 0.6739 0.20813 0.0
C1475 C 0.10531 0.67729 0.20136 0.0
C1476 C 0.10746 0.66689 0.22156 0.0
C1477 C 0.11264 0.66333 0.1525 0.0
C1478 C 0.11583 0.67006 0.29215 0.0
C1479 C 0.09455 0.65704 0.23989 0.0
C1480 C 0.0864 0.66126 0.23259 0.0
C1481 C 0.07391 0.65366 0.24503 0.0
C1482 C 0.06965 0.6414 0.26458 0.0
C1483 C 0.07786 0.63687 0.27082 0.0
C1484 C 0.09047 0.64487 0.25902 0.0
H1485 H 0.3556 0.45096 0.19159 0.0
H1486 H 0.36596 0.42301 0.18388 0.0
H1487 H 0.34586 0.40851 0.12776 0.0
H1488 H 0.3251 0.43137 0.24981 0.0
H1489 H 0.31885 0.43899 0.19417 0.0
H1490 H 0.3344 0.44739 0.22757 0.0
H1491 H 0.34187 0.45397 0.08783 0.0
H1492 H 0.32632 0.44553 0.05392 0.0
H1493 H 0.33772 0.44246 0.0147 0.0
H1494 H 0.32438 0.39689 0.07683 0.0
H1495 H 0.30266 0.38857 0.04324 0.0
H1496 H 0.30623 0.42403 0.08779 0.0
C1497 C 0.3537 0.44183 0.17725 0.0
C1498 C 0.36234 0.4381 0.19175 0.0
C1499 C 0.35945 0.42603 0.17338 0.0
C1500 C 0.34809 0.41776 0.14108 0.0
C1501 C 0.33974 0.42172 0.12785 0.0
C1502 C 0.34238 0.43344 0.14579 0.0
C1503 C 0.33155 0.43517 0.13058 0.0
C1504 C 0.32722 0.43842 0.20496 0.0
C1505 C 0.33455 0.44486 0.06803 0.0
C1506 C 0.32233 0.42253 0.10234 0.0
C1507 C 0.32729 0.41495 0.10014 0.0
C1508 C 0.32042 0.40276 0.0779 0.0
C1509 C 0.3081 0.39813 0.05876 0.0
C1510 C 0.30275 0.40566 0.06283 0.0
C1511 C 0.31005 0.41806 0.08383 0.0
H1512 H 0.78836 0.76307 0.53545 0.0
H1513 H 0.75807 0.72579 0.52528 0.0
H1514 H 0.74409 0.73282 0.57146 0.0
H1515 H 0.77825 0.77261 0.70585 0.0
H1516 H 0.78347 0.7877 0.66799 0.0
H1517 H 0.79118 0.77948 0.64172 0.0
H1518 H 0.78776 0.78205 0.49768 0.0
H1519 H 0.78007 0.79027 0.52341 0.0
H1520 H 0.77247 0.77689 0.46338 0.0
H1521 H 0.73326 0.74431 0.6112 0.0
H1522 H 0.72645 0.7593 0.63511 0.0
H1523 H 0.76399 0.78885 0.61614 0.0
C1524 C 0.77882 0.75633 0.54401 0.0
C1525 C 0.7743 0.74388 0.52708 0.0
C1526 C 0.76172 0.73539 0.53801 0.0
C1527 C 0.75373 0.73928 0.56452 0.0
C1528 C 0.75849 0.75168 0.57983 0.0
C1529 C 0.77076 0.76006 0.56987 0.0
C1530 C 0.7735 0.77296 0.58507 0.0
C1531 C 0.78211 0.77851 0.65429 0.0
C1532 C 0.77875 0.78101 0.5131 0.0
C1533 C 0.76081 0.77059 0.60336 0.0
C1534 C 0.75228 0.75827 0.60126 0.0
C1535 C 0.73988 0.75397 0.61364 0.0
C1536 C 0.7361 0.76254 0.62727 0.0
C1537 C 0.7447 0.77522 0.62741 0.0
C1538 C 0.75721 0.77922 0.61647 0.0
H1539 H 0.25908 0.02015 0.36849 0.0
H1540 H 0.23009 0.01981 0.23336 0.0
H1541 H 0.21546 -0.00052 0.285 0.0
H1542 H 0.24672 0.9856 0.36362 0.0
H1543 H 0.25143 0.98577 0.46153 0.0
H1544 H 0.26019 -0.00118 0.4004 0.0
H1545 H 0.25793 0.01261 0.50105 0.0
H1546 H 0.24889 -0.00034 0.56166 0.0
H1547 H 0.24287 0.00922 0.53055 0.0
H1548 H 0.20346 0.98158 0.36697 0.0
H1549 H 0.19476 0.96616 0.46931 0.0
H1550 H 0.23127 0.97774 0.5545 0.0
C1551 C 0.24977 0.0155 0.34721 0.0
C1552 C 0.24569 0.02139 0.29623 0.0
C1553 C 0.23336 0.01534 0.27186 0.0
C1554 C 0.22501 0.0038 0.30075 0.0
C1555 C 0.22915 -0.00154 0.35396 0.0
C1556 C 0.24127 0.004 0.37632 0.0
C1557 C 0.24297 0.99699 0.44137 0.0
C1558 C 0.25079 0.99147 0.41514 0.0
C1559 C 0.24849 0.00511 0.51285 0.0
C1560 C 0.22984 0.98712 0.45489 0.0
C1561 C 0.22208 0.98803 0.40281 0.0
C1562 C 0.20945 0.9806 0.40716 0.0
C1563 C 0.2046 0.97197 0.46613 0.0
C1564 C 0.21235 0.9708 0.52008 0.0
C1565 C 0.22514 0.9784 0.51377 0.0
H1566 H 0.02309 0.23681 0.60591 0.0
H1567 H 0.02456 0.27185 0.61563 0.0
H1568 H 0.00313 0.26201 0.57111 0.0
H1569 H 0.00716 0.22694 0.43684 0.0
H1570 H -0.002 0.2111 0.46385 0.0
H1571 H 0.01274 0.22044 0.50721 0.0
H1572 H 0.00296 0.2152 0.64273 0.0
H1573 H 0.98817 0.20566 0.59981 0.0
H1574 H 0.99047 0.21778 0.66436 0.0
H1575 H 0.98252 0.24881 0.50933 0.0
H1576 H 0.96392 0.23306 0.44372 0.0
H1577 H 0.9761 0.20676 0.47602 0.0
C1578 C 0.01882 0.24238 0.60058 0.0
C1579 C 0.02548 0.25508 0.61429 0.0
C1580 C 0.0196 0.26207 0.60599 0.0
C1581 C 0.00744 0.25656 0.58058 0.0
C1582 C 0.00128 0.24407 0.5648 0.0
C1583 C 0.00672 0.23703 0.57566 0.0
C1584 C -0.00154 0.22398 0.54994 0.0
C1585 C 0.00445 0.22042 0.48565 0.0
C1586 C 0.9948 0.21513 0.6183 0.0
C1587 C 0.98768 0.22486 0.5203 0.0
C1588 C 0.98942 0.23648 0.52985 0.0
C1589 C 0.98098 0.23963 0.50267 0.0
C1590 C 0.97049 0.23065 0.46506 0.0
C1591 C 0.96856 0.21868 0.45491 0.0
C1592 C 0.97726 0.21579 0.48347 0.0
H1593 H 0.20364 0.2252 0.56471 0.0
H1594 H 0.23454 0.26221 0.57079 0.0
H1595 H 0.24849 0.25434 0.54301 0.0
H1596 H 0.21946 0.21083 0.65512 0.0
H1597 H 0.21177 0.19727 0.59668 0.0
H1598 H 0.20426 0.2058 0.61976 0.0
H1599 H 0.201 0.20782 0.47478 0.0
H1600 H 0.2086 0.19941 0.4512 0.0
H1601 H 0.214 0.21441 0.41121 0.0
H1602 H 0.25886 0.24271 0.50519 0.0
H1603 H 0.26534 0.22781 0.4721 0.0
H1604 H 0.22788 0.19822 0.49609 0.0
C1605 C 0.21336 0.23163 0.56102 0.0
C1606 C 0.21801 0.24432 0.56989 0.0
C1607 C 0.23078 0.25245 0.56468 0.0
C1608 C 0.23877 0.24807 0.54858 0.0
C1609 C 0.23387 0.23554 0.53879 0.0
C1610 C 0.22149 0.22741 0.5459 0.0
C1611 C 0.21861 0.21438 0.53265 0.0
C1612 C 0.21321 0.20662 0.6054 0.0
C1613 C 0.21005 0.20868 0.46333 0.0
C1614 C 0.23128 0.2165 0.51585 0.0
C1615 C 0.23993 0.22878 0.51923 0.0
C1616 C 0.2522 0.23306 0.50311 0.0
C1617 C 0.25577 0.22453 0.48392 0.0
C1618 C 0.24711 0.21187 0.48174 0.0
C1619 C 0.23471 0.20783 0.49789 0.0
H1620 H 0.72499 0.97536 0.54086 0.0
H1621 H 0.74726 0.9808 0.74212 0.0
H1622 H 0.75807 0.00307 0.72042 0.0
H1623 H 0.74774 0.99408 0.42861 0.0
H1624 H 0.74008 0.00042 0.37421 0.0
H1625 H 0.73135 0.98561 0.41744 0.0
H1626 H 0.71813 0.99269 0.49038 0.0
H1627 H 0.7267 0.00755 0.44624 0.0
H1628 H 0.72543 0.00623 0.54929 0.0
H1629 H 0.76955 0.02321 0.66196 0.0
H1630 H 0.7808 0.04027 0.57188 0.0
H1631 H 0.75162 0.02253 0.40519 0.0
C1632 C 0.73166 0.98136 0.58255 0.0
C1633 C 0.73515 0.97652 0.6442 0.0
C1634 C 0.74436 0.98445 0.69552 0.0
C1635 C 0.75051 0.99709 0.68365 0.0
C1636 C 0.74736 0.00161 0.61989 0.0
C1637 C 0.73806 0.99402 0.5704 0.0
C1638 C 0.73799 0.00089 0.49905 0.0
C1639 C 0.73938 0.9949 0.42556 0.0
C1640 C 0.72637 0.0019 0.4961 0.0
C1641 C 0.7492 0.01324 0.51367 0.0
C1642 C 0.75426 0.01352 0.5847 0.0
C1643 C 0.76551 0.02325 0.60729 0.0
C1644 C 0.77187 0.03283 0.55554 0.0
C1645 C 0.76696 0.03267 0.48237 0.0
C1646 C 0.75535 0.02295 0.46184 0.0
H1647 H 0.97402 0.76151 0.48741 0.0
H1648 H 0.97237 0.72798 0.41211 0.0
H1649 H 0.99165 0.73391 0.48216 0.0
H1650 H 0.00675 0.78085 0.47408 0.0
H1651 H 0.0075 0.78959 0.55776 0.0
H1652 H 0.99392 0.78268 0.49937 0.0
H1653 H 0.98101 0.77158 0.61968 0.0
H1654 H 0.99458 0.77828 0.67816 0.0
H1655 H 0.98482 0.76191 0.67529 0.0
H1656 H 0.01101 0.74357 0.56528 0.0
H1657 H 0.02929 0.75669 0.64424 0.0
H1658 H 0.01743 0.78342 0.66418 0.0
C1659 C 0.97774 0.75543 0.48492 0.0
C1660 C 0.97172 0.74429 0.44425 0.0
C1661 C 0.9769 0.73661 0.4425 0.0
C1662 C 0.98779 0.73986 0.4825 0.0
C1663 C 0.99334 0.75082 0.5236 0.0
C1664 C 0.98851 0.75851 0.52423 0.0
C1665 C 0.9961 0.76976 0.57237 0.0
C1666 C 0.00138 0.7814 0.52293 0.0
C1667 C 0.98868 0.77041 0.6404 0.0
C1668 C 0.00599 0.76723 0.59916 0.0
C1669 C 0.00427 0.75626 0.57088 0.0
C1670 C 0.01242 0.75217 0.5877 0.0
C1671 C 0.02272 0.75963 0.63302 0.0
C1672 C 0.02476 0.77106 0.66058 0.0
C1673 C 0.01613 0.77473 0.64425 0.0
H1674 H 0.1617 0.36122 0.20728 0.0
H1675 H 0.15197 0.3621 0.96877 0.0
H1676 H 0.16957 0.36041 0.92721 0.0
H1677 H 0.19286 0.38078 0.18107 0.0
H1678 H 0.19783 0.37329 0.2481 0.0
H1679 H 0.18324 0.37232 0.26084 0.0
H1680 H 0.17252 0.34867 0.26036 0.0
H1681 H 0.18711 0.34957 0.24806 0.0
H1682 H 0.17491 0.34097 0.18089 0.0
H1683 H 0.18936 0.36129 0.9098 0.0
H1684 H 0.21026 0.3647 0.91804 0.0
H1685 H 0.20794 0.36388 0.16705 0.0
C1686 C 0.16314 0.36088 0.1463 0.0
C1687 C 0.15521 0.36158 0.09166 0.0
C1688 C 0.15755 0.36116 0.01232 0.0
C1689 C 0.16764 0.3603 0.98783 0.0
C1690 C 0.17539 0.35994 0.04307 0.0
C1691 C 0.17328 0.36018 0.12067 0.0
C1692 C 0.1837 0.36086 0.16778 0.0
C1693 C 0.18976 0.37251 0.21734 0.0
C1694 C 0.17929 0.34933 0.21719 0.0
C1695 C 0.19215 0.36137 0.1043 0.0
C1696 C 0.18706 0.36063 0.03292 0.0
C1697 C 0.19336 0.36162 0.96534 0.0
C1698 C 0.20523 0.3635 0.97071 0.0
C1699 C 0.21072 0.36439 0.04322 0.0
C1700 C 0.204 0.3632 0.11079 0.0
H1701 H 0.61615 0.79026 0.01179 0.0
H1702 H 0.5788 0.76196 0.05778 0.0
H1703 H 0.57167 0.77656 0.03096 0.0
H1704 H 0.61396 0.81423 0.10266 0.0
H1705 H 0.62358 0.82582 0.03453 0.0
H1706 H 0.62565 0.81291 0.05142 0.0
H1707 H 0.62287 0.80786 0.90604 0.0
H1708 H 0.62073 0.82073 0.88877 0.0
H1709 H 0.60927 0.80567 0.858 0.0
H1710 H 0.56863 0.79414 1.00341 0.0
H1711 H 0.56996 0.8141 0.98435 0.0
H1712 H 0.60938 0.83132 0.96106 0.0
C1713 C 0.60647 0.78716 0.01533 0.0
C1714 C 0.598 0.77504 0.03685 0.0
C1715 C 0.58542 0.77127 0.04201 0.0
C1716 C 0.58128 0.77945 0.02632 0.0
C1717 C 0.58985 0.79136 0.0058 0.0
C1718 C 0.60219 0.79525 1.00067 0.0
C1719 C 0.60954 0.80876 0.98208 0.0
C1720 C 0.61872 0.81584 0.04653 0.0
C1721 C 0.61598 0.81087 0.90408 0.0
C1722 C 0.59941 0.81185 0.97867 0.0
C1723 C 0.58812 0.80164 0.99154 0.0
C1724 C 0.57741 0.80222 0.99324 0.0
C1725 C 0.57827 0.8136 0.98286 0.0
C1726 C 0.58978 0.82427 0.97173 0.0
C1727 C 0.60044 0.82331 0.96845 0.0
H1728 H 0.21824 0.83441 0.01558 0.0
H1729 H 0.22889 0.83163 0.783 0.0
H1730 H 0.21053 0.81118 0.7704 0.0
H1731 H 0.20677 0.80323 0.06807 0.0
H1732 H 0.19425 0.80213 0.12401 0.0
H1733 H 0.20808 0.81664 0.11384 0.0
H1734 H 0.19557 0.82622 0.06116 0.0
H1735 H 0.18169 0.81173 0.07114 0.0
H1736 H 0.18569 0.81936 0.97944 0.0
H1737 H 0.1915 0.79064 0.78555 0.0
H1738 H 0.17263 0.77189 0.82564 0.0
H1739 H 0.17431 0.78839 0.04697 0.0
C1740 C 0.2167 0.82948 0.96206 0.0
C1741 C 0.22495 0.83457 0.90021 0.0
C1742 C 0.22259 0.82792 0.83076 0.0
C1743 C 0.21223 0.8163 0.82321 0.0
C1744 C 0.2043 0.81151 0.88543 0.0
C1745 C 0.20636 0.81792 0.95332 0.0
C1746 C 0.19642 0.81073 0.01148 0.0
C1747 C 0.2017 0.80802 0.0836 0.0
C1748 C 0.18943 0.81741 0.03198 0.0
C1749 C 0.18851 0.79923 0.96598 0.0
C1750 C 0.19322 0.79982 0.8935 0.0
C1751 C 0.18767 0.7901 0.84196 0.0
C1752 C 0.17702 0.7795 0.86523 0.0
C1753 C 0.17201 0.77878 0.93902 0.0
C1754 C 0.17784 0.78879 0.98973 0.0
H1755 H 0.37103 0.20498 0.0774 0.0
H1756 H 0.35351 0.2 0.85597 0.0
H1757 H 0.34828 0.17834 0.85508 0.0
H1758 H 0.38539 0.18876 0.03431 0.0
H1759 H 0.38388 0.18207 0.12795 0.0
H1760 H 0.38413 0.19636 0.11852 0.0
H1761 H 0.36335 0.18721 0.18939 0.0
H1762 H 0.36304 0.17285 0.19911 0.0
H1763 H 0.35044 0.17334 0.15415 0.0
H1764 H 0.34727 0.15836 0.87021 0.0
H1765 H 0.35179 0.14188 0.8946 0.0
H1766 H 0.37024 0.15965 0.10651 0.0
C1767 C 0.36576 0.19918 0.03002 0.0
C1768 C 0.36249 0.20401 0.9672 0.0
C1769 C 0.35599 0.19637 0.90472 0.0
C1770 C 0.35292 0.18407 0.90407 0.0
C1771 C 0.35646 0.1796 0.96625 0.0
C1772 C 0.36277 0.18693 0.02806 0.0
C1773 C 0.36688 0.18035 0.08267 0.0
C1774 C 0.3809 0.1873 0.0913 0.0
C1775 C 0.36055 0.17832 0.16097 0.0
C1776 C 0.36237 0.16839 0.04023 0.0
C1777 C 0.35611 0.16805 0.97427 0.0
C1778 C 0.35191 0.15839 0.9225 0.0
C1779 C 0.35447 0.14901 0.93725 0.0
C1780 C 0.36127 0.14938 1.003 0.0
C1781 C 0.36496 0.15906 0.05604 0.0
H1782 H 0.77726 0.17984 0.09666 0.0
H1783 H 0.77423 0.16847 0.85854 0.0
H1784 H 0.79504 0.18548 0.83367 0.0
H1785 H 0.79355 0.21177 0.06222 0.0
H1786 H 0.80326 0.21551 0.14544 0.0
H1787 H 0.78829 0.20212 0.14607 0.0
H1788 H 0.79781 0.18869 0.17968 0.0
H1789 H 0.81283 0.20205 0.17931 0.0
H1790 H 0.80962 0.18919 0.11908 0.0
H1791 H 0.81555 0.20399 0.83233 0.0
H1792 H 0.835 0.22306 0.8552 0.0
H1793 H 0.82519 0.22245 0.09461 0.0
C1794 C 0.78105 0.18083 0.0396 0.0
C1795 C 0.77409 0.17288 0.97937 0.0
C1796 C 0.77931 0.17458 0.90523 0.0
C1797 C 0.79115 0.18415 0.89064 0.0
C1798 C 0.7977 0.1919 0.95089 0.0
C1799 C 0.7929 0.19035 0.02398 0.0
C1800 C 0.80182 0.20024 0.07777 0.0
C1801 C 0.7964 0.20786 0.10973 0.0
C1802 C 0.80576 0.19471 0.14281 0.0
C1803 C 0.8123 0.20765 0.02308 0.0
C1804 C 0.80971 0.20263 0.95028 0.0
C1805 C 0.81773 0.20799 0.88913 0.0
C1806 C 0.82871 0.21884 0.90257 0.0
C1807 C 0.83156 0.22421 0.97654 0.0
C1808 C 0.82329 0.21846 0.03771 0.0
H1809 H 0.78513 0.60681 0.01611 0.0
H1810 H 0.79424 0.64466 0.03119 0.0
H1811 H 0.81629 0.65126 0.02184 0.0
H1812 H 0.81137 0.61046 0.12955 0.0
H1813 H 0.81303 0.59954 0.07182 0.0
H1814 H 0.79817 0.598 0.08434 0.0
H1815 H 0.79569 0.59801 0.93653 0.0
H1816 H 0.81055 0.59962 0.92357 0.0
H1817 H 0.80712 0.61056 0.88088 0.0
H1818 H 0.83717 0.65352 0.99692 0.0
H1819 H 0.85507 0.65127 0.96691 0.0
H1820 H 0.83202 0.6118 0.98054 0.0
C1821 C 0.79181 0.61647 0.01825 0.0
C1822 C 0.78812 0.62527 0.02398 0.0
C1823 C 0.79701 0.63783 0.02706 0.0
C1824 C 0.8095 0.64164 0.02171 0.0
C1825 C 0.81287 0.63272 0.01489 0.0
C1826 C 0.80427 0.62039 0.01447 0.0
C1827 C 0.81017 0.61261 0.00539 0.0
C1828 C 0.80806 0.60469 0.07706 0.0
C1829 C 0.80561 0.60474 0.93224 0.0
C1830 C 0.82341 0.62248 0.99822 0.0
C1831 C 0.82483 0.63402 1.00382 0.0
C1832 C 0.83619 0.64452 0.99385 0.0
C1833 C 0.84632 0.64314 0.97715 0.0
C1834 C 0.84501 0.63135 0.97091 0.0
C1835 C 0.83339 0.62096 0.98334 0.0
H1836 H 0.83121 0.7078 0.36779 0.0
H1837 H 0.84077 0.73986 0.22882 0.0
H1838 H 0.86072 0.7417 0.19919 0.0
H1839 H 0.85933 0.7184 0.45195 0.0
H1840 H 0.85918 0.70406 0.45166 0.0
H1841 H 0.84501 0.70417 0.45345 0.0
H1842 H 0.83778 0.69074 0.33096 0.0
H1843 H 0.85192 0.6905 0.32909 0.0
H1844 H 0.84722 0.69566 0.24618 0.0
H1845 H 0.88044 0.74175 0.19919 0.0
H1846 H 0.89846 0.73947 0.22448 0.0
H1847 H 0.87599 0.70693 0.359 0.0
C1848 C 0.83734 0.71497 0.32912 0.0
C1849 C 0.83445 0.72369 0.30058 0.0
C1850 C 0.84285 0.73314 0.25185 0.0
C1851 C 0.85416 0.73421 0.23425 0.0
C1852 C 0.85687 0.72567 0.26511 0.0
C1853 C 0.84866 0.71614 0.31079 0.0
C1854 C 0.85419 0.70876 0.34146 0.0
C1855 C 0.85444 0.70886 0.42985 0.0
C1856 C 0.84737 0.69563 0.31002 0.0
C1857 C 0.86695 0.7159 0.30825 0.0
C1858 C 0.86826 0.72556 0.26383 0.0
C1859 C 0.87947 0.73408 0.23244 0.0
C1860 C 0.88964 0.73276 0.24735 0.0
C1861 C 0.88849 0.72297 0.29292 0.0
C1862 C 0.87698 0.71433 0.32266 0.0
H1863 H 0.2856 0.15778 0.28437 0.0
H1864 H 0.29428 0.1633 0.52703 0.0
H1865 H 0.30044 0.14756 0.52323 0.0
H1866 H 0.27156 0.12654 0.28885 0.0
H1867 H 0.2769 0.12468 0.19663 0.0
H1868 H 0.27545 0.13789 0.21492 0.0
H1869 H 0.29821 0.15198 0.17841 0.0
H1870 H 0.29973 0.13875 0.16028 0.0
H1871 H 0.30986 0.15027 0.22715 0.0
H1872 H 0.3028 0.12958 0.49824 0.0
H1873 H 0.29999 0.10968 0.45571 0.0
H1874 H 0.28975 0.11552 0.22912 0.0
C1875 C 0.28918 0.15592 0.336 0.0
C1876 C 0.28961 0.1618 0.40585 0.0
C1877 C 0.29392 0.15889 0.47301 0.0
C1878 C 0.29753 0.15005 0.47118 0.0
C1879 C 0.29679 0.14424 0.4017 0.0
C1880 C 0.2927 0.14704 0.33525 0.0
C1881 C 0.29129 0.13839 0.27063 0.0
C1882 C 0.27802 0.13147 0.24109 0.0
C1883 C 0.30031 0.14526 0.20525 0.0
C1884 C 0.29466 0.12995 0.31207 0.0
C1885 C 0.29809 0.13368 0.38716 0.0
C1886 C 0.30043 0.12672 0.43916 0.0
C1887 C 0.29883 0.11546 0.41462 0.0
C1888 C 0.29491 0.11129 0.33894 0.0
C1889 C 0.29316 0.11877 0.28642 0.0
H1890 H 0.87788 0.15997 0.27456 0.0
H1891 H 0.89836 0.14633 0.15006 0.0
H1892 H 0.8792 0.12683 0.12681 0.0
H1893 H 0.85857 0.13309 0.3699 0.0
H1894 H 0.84529 0.13487 0.3655 0.0
H1895 H 0.86032 0.14813 0.36428 0.0
H1896 H 0.85524 0.15523 0.23679 0.0
H1897 H 0.84014 0.14197 0.23766 0.0
H1898 H 0.84994 0.14503 0.15552 0.0
H1899 H 0.85803 0.10826 0.12713 0.0
H1900 H 0.83676 0.09205 0.1531 0.0
H1901 H 0.83048 0.11814 0.27777 0.0
C1902 C 0.87831 0.15303 0.24048 0.0
C1903 C 0.88959 0.1547 0.21353 0.0
C1904 C 0.88981 0.14522 0.17141 0.0
C1905 C 0.87897 0.13417 0.15747 0.0
C1906 C 0.86803 0.13278 0.18583 0.0
C1907 C 0.86763 0.14199 0.22625 0.0
C1908 C 0.85492 0.13793 0.25581 0.0
C1909 C 0.85478 0.13854 0.34408 0.0
C1910 C 0.84976 0.14549 0.21924 0.0
C1911 C 0.84824 0.12489 0.2274 0.0
C1912 C 0.8559 0.12211 0.1864 0.0
C1913 C 0.85192 0.11038 0.15841 0.0
C1914 C 0.83986 0.10122 0.17382 0.0
C1915 C 0.83196 0.10385 0.21718 0.0
C1916 C 0.8362 0.1159 0.243 0.0
H1917 H 0.04959 0.49953 0.20515 0.0
H1918 H 0.04154 0.48771 0.44252 0.0
H1919 H 0.03862 0.50519 0.47126 0.0
H1920 H 0.06716 0.53078 0.24336 0.0
H1921 H 0.06178 0.53566 0.16244 0.0
H1922 H 0.06186 0.52148 0.15804 0.0
H1923 H 0.03871 0.50987 0.12632 0.0
H1924 H 0.03857 0.52405 0.13007 0.0
H1925 H 0.02821 0.51136 0.18928 0.0
H1926 H 0.03881 0.52503 0.47752 0.0
H1927 H 0.04129 0.54547 0.46002 0.0
H1928 H 0.04864 0.54419 0.21751 0.0
C1929 C 0.04707 0.50054 0.26294 0.0
C1930 C 0.04571 0.49221 0.32147 0.0
C1931 C 0.0424 0.49384 0.39641 0.0
C1932 C 0.04079 0.50378 0.41341 0.0
C1933 C 0.04243 0.51195 0.35473 0.0
C1934 C 0.04538 0.51038 0.28083 0.0
C1935 C 0.04723 0.52082 0.22924 0.0
C1936 C 0.06028 0.52758 0.19637 0.0
C1937 C 0.0376 0.51625 0.16493 0.0
C1938 C 0.04521 0.52867 0.28628 0.0
C1939 C 0.04237 0.52335 0.35817 0.0
C1940 C 0.04078 0.52919 0.42115 0.0
C1941 C 0.04214 0.54079 0.41044 0.0
C1942 C 0.04504 0.54645 0.33715 0.0
C1943 C 0.04648 0.54019 0.27433 0.0
H1944 H 0.49952 0.54162 0.2847 0.0
H1945 H 0.50145 0.55425 0.51867 0.0
H1946 H 0.48184 0.53567 0.54814 0.0
H1947 H 0.46786 0.5295 0.25967 0.0
H1948 H 0.46557 0.51652 0.20369 0.0
H1949 H 0.48018 0.53036 0.20266 0.0
H1950 H 0.49074 0.51824 0.24519 0.0
H1951 H 0.47615 0.50433 0.24622 0.0
H1952 H 0.48561 0.50904 0.33097 0.0
H1953 H 0.46115 0.51664 0.54872 0.0
H1954 H 0.44137 0.49794 0.52169 0.0
H1955 H 0.45326 0.49755 0.28874 0.0
C1956 C 0.49586 0.54041 0.34229 0.0
C1957 C 0.50202 0.54933 0.39952 0.0
C1958 C 0.49697 0.54743 0.47429 0.0
C1959 C 0.48581 0.53694 0.49148 0.0
C1960 C 0.47989 0.52839 0.43348 0.0
C1961 C 0.48479 0.52994 0.3606 0.0
C1962 C 0.47643 0.51956 0.30802 0.0
C1963 C 0.47227 0.52427 0.23949 0.0
C1964 C 0.4826 0.51236 0.28104 0.0
C1965 C 0.46595 0.51205 0.36226 0.0
C1966 C 0.46811 0.51729 0.43438 0.0
C1967 C 0.45942 0.51236 0.49281 0.0
C1968 C 0.44823 0.5018 0.47697 0.0
C1969 C 0.4459 0.49628 0.40357 0.0
C1970 C 0.45493 0.50145 0.34587 0.0
H1971 H 0.45756 0.96429 0.15923 0.0
H1972 H 0.4559 0.97866 0.38259 0.0
H1973 H 0.47538 0.97994 0.41848 0.0
H1974 H 0.46789 0.94498 0.22645 0.0
H1975 H 0.47773 0.94721 0.14578 0.0
H1976 H 0.4645 0.94889 0.13368 0.0
H1977 H 0.47818 0.97079 0.08046 0.0
H1978 H 0.49146 0.96916 0.09204 0.0
H1979 H 0.49099 0.9818 0.13639 0.0
H1980 H 0.4939 0.97779 0.43478 0.0
H1981 H 0.51022 0.97249 0.42988 0.0
H1982 H 0.4997 0.95936 0.19635 0.0
C1983 C 0.46134 0.96782 0.21542 0.0
C1984 C 0.45524 0.97146 0.26782 0.0
C1985 C 0.46053 0.97606 0.34078 0.0
C1986 C 0.47156 0.97675 0.36191 0.0
C1987 C 0.4772 0.97286 0.3094 0.0
C1988 C 0.47231 0.96853 0.23754 0.0
C1989 C 0.47975 0.96417 0.19371 0.0
C1990 C 0.472 0.9505 0.17378 0.0
C1991 C 0.48543 0.97195 0.12137 0.0
C1992 C 0.48941 0.96643 0.25294 0.0
C1993 C 0.48786 0.97156 0.31896 0.0
C1994 C 0.49533 0.97395 0.38295 0.0
C1995 C 0.50461 0.97095 0.37948 0.0
C1996 C 0.50628 0.96558 0.31256 0.0
C1997 C 0.49863 0.96342 0.24839 0.0
H1998 H 0.49988 0.05449 0.65614 0.0
H1999 H 0.47118 0.01783 0.71257 0.0
H2000 H 0.48658 0.01115 0.72076 0.0
H2001 H 0.51927 0.04567 0.54415 0.0
H2002 H 0.53312 0.05846 0.58073 0.0
H2003 H 0.5196 0.05968 0.5688 0.0
H2004 H 0.52082 0.06585 0.71189 0.0
H2005 H 0.53425 0.06458 0.7244 0.0
H2006 H 0.52114 0.05594 0.78515 0.0
H2007 H 0.50574 0.00938 0.73902 0.0
H2008 H 0.52649 0.01263 0.76342 0.0
H2009 H 0.54218 0.05043 0.69214 0.0
C2010 C 0.49681 0.045 0.66899 0.0
C2011 C 0.48438 0.03667 0.68403 0.0
C2012 C 0.48067 0.02432 0.7003 0.0
C2013 C 0.48935 0.02047 0.70517 0.0
C2014 C 0.50164 0.02906 0.69238 0.0
C2015 C 0.5053 0.04104 0.67367 0.0
C2016 C 0.51904 0.04876 0.66794 0.0
C2017 C 0.52299 0.05341 0.58549 0.0
C2018 C 0.5241 0.0594 0.7258 0.0
C2019 C 0.52263 0.03939 0.6893 0.0
C2020 C 0.51252 0.02803 0.70232 0.0
C2021 C 0.51371 0.0182 0.7277 0.0
C2022 C 0.52553 0.02011 0.74123 0.0
C2023 C 0.53595 0.0318 0.73003 0.0
C2024 C 0.5344 0.04142 0.70195 0.0
H2025 H 0.94513 0.48962 0.5947 0.0
H2026 H 0.95393 0.50251 0.8297 0.0
H2027 H 0.96002 0.48712 0.85595 0.0
H2028 H 0.93182 0.45855 0.63656 0.0
H2029 H 0.93765 0.45463 0.55343 0.0
H2030 H 0.9353 0.46754 0.55012 0.0
H2031 H 0.95792 0.48157 0.51074 0.0
H2032 H 0.96035 0.46868 0.51391 0.0
H2033 H 0.9699 0.48214 0.56992 0.0
H2034 H 0.96309 0.4693 0.86116 0.0
H2035 H 0.96292 0.44978 0.84477 0.0
H2036 H 0.95266 0.44844 0.60607 0.0
C2037 C 0.9486 0.48936 0.6511 0.0
C2038 C 0.94906 0.49723 0.71027 0.0
C2039 C 0.9534 0.49647 0.78385 0.0
C2040 C 0.95698 0.48784 0.79912 0.0
C2041 C 0.95622 0.48008 0.74006 0.0
C2042 C 0.95219 0.48075 0.66742 0.0
C2043 C 0.95142 0.4707 0.61601 0.0
C2044 C 0.93827 0.46236 0.58739 0.0
C2045 C 0.96044 0.4761 0.54866 0.0
C2046 C 0.95531 0.46408 0.67186 0.0
C2047 C 0.95816 0.46975 0.74285 0.0
C2048 C 0.96111 0.46489 0.80557 0.0
C2049 C 0.96098 0.45384 0.79587 0.0
C2050 C 0.95795 0.44782 0.72406 0.0
C2051 C 0.95528 0.45309 0.66094 0.0
H2052 H 0.5006 0.44139 0.77904 0.0
H2053 H 0.49559 0.44308 0.53343 0.0
H2054 H 0.5138 0.46364 0.52939 0.0
H2055 H 0.51145 0.473 0.82112 0.0
H2056 H 0.52254 0.47415 0.89067 0.0
H2057 H 0.5088 0.45972 0.87511 0.0
H2058 H 0.52178 0.44953 0.84605 0.0
H2059 H 0.53556 0.46391 0.8617 0.0
H2060 H 0.53333 0.45587 0.77234 0.0
H2061 H 0.53258 0.48385 0.55137 0.0
H2062 H 0.55122 0.50217 0.59721 0.0
H2063 H 0.54452 0.48704 0.82746 0.0
C2064 C 0.50336 0.44602 0.72422 0.0
C2065 C 0.49656 0.44062 0.65667 0.0
C2066 C 0.50045 0.4471 0.58632 0.0
C2067 C 0.51084 0.45876 0.58328 0.0
C2068 C 0.51729 0.46378 0.65093 0.0
C2069 C 0.51375 0.45761 0.72 0.0
C2070 C 0.52248 0.46495 0.78397 0.0
C2071 C 0.51592 0.46815 0.84639 0.0
C2072 C 0.52865 0.45816 0.81799 0.0
C2073 C 0.53151 0.4762 0.73993 0.0
C2074 C 0.52829 0.47537 0.66339 0.0
C2075 C 0.53518 0.48463 0.61119 0.0
C2076 C 0.5457 0.49502 0.63786 0.0
C2077 C 0.54924 0.49603 0.71594 0.0
C2078 C 0.54204 0.48648 0.76746 0.0
H2079 H 0.71128 0.88473 0.67386 0.0
H2080 H 0.72043 0.89385 0.43372 0.0
H2081 H 0.7223 0.87542 0.41738 0.0
H2082 H 0.73205 0.87421 0.7083 0.0
H2083 H 0.72207 0.86204 0.77208 0.0
H2084 H 0.72071 0.87551 0.76386 0.0
H2085 H 0.69781 0.8621 0.72854 0.0
H2086 H 0.69909 0.84857 0.73685 0.0
H2087 H 0.69348 0.85158 0.64916 0.0
H2088 H 0.72391 0.85657 0.42827 0.0
H2089 H 0.72532 0.83848 0.46559 0.0
H2090 H 0.71535 0.84174 0.6993 0.0
C2091 C 0.71345 0.88272 0.61752 0.0
C2092 C 0.71565 0.89066 0.55487 0.0
C2093 C 0.71877 0.88789 0.48247 0.0
C2094 C 0.71979 0.87744 0.47258 0.0
C2095 C 0.71767 0.86986 0.5357 0.0
C2096 C 0.71455 0.87235 0.60674 0.0
C2097 C 0.71327 0.863 0.66594 0.0
C2098 C 0.72258 0.86906 0.73139 0.0
C2099 C 0.70013 0.85589 0.69693 0.0
C2100 C 0.71626 0.85492 0.61718 0.0
C2101 C 0.71871 0.85902 0.54218 0.0
C2102 C 0.72198 0.85325 0.48676 0.0
C2103 C 0.72284 0.84304 0.50865 0.0
C2104 C 0.72048 0.83873 0.58539 0.0
C2105 C 0.71706 0.84473 0.64005 0.0
H2106 H 0.16119 0.8841 0.66095 0.0
H2107 H 0.16292 0.8966 0.89483 0.0
H2108 H 0.14436 0.877 0.9271 0.0
H2109 H 0.12941 0.87021 0.64234 0.0
H2110 H 0.12765 0.85762 0.58437 0.0
H2111 H 0.14178 0.87196 0.58206 0.0
H2112 H 0.15375 0.861 0.6193 0.0
H2113 H 0.13965 0.84658 0.62113 0.0
H2114 H 0.14945 0.85162 0.70434 0.0
H2115 H 0.12509 0.85654 0.93145 0.0
H2116 H 0.1061 0.83699 0.90696 0.0
H2117 H 0.11669 0.83828 0.66874 0.0
C2118 C 0.15781 0.88257 0.7194 0.0
C2119 C 0.16351 0.89172 0.77586 0.0
C2120 C 0.15867 0.88961 0.85112 0.0
C2121 C 0.14818 0.87853 0.86988 0.0
C2122 C 0.14265 0.86974 0.81247 0.0
C2123 C 0.14729 0.87165 0.73872 0.0
C2124 C 0.13915 0.86115 0.68617 0.0
C2125 C 0.13421 0.8655 0.61984 0.0
C2126 C 0.14591 0.85471 0.65598 0.0
C2127 C 0.1291 0.85311 0.74157 0.0
C2128 C 0.13136 0.85814 0.81435 0.0
C2129 C 0.12326 0.85246 0.87485 0.0
C2130 C 0.11253 0.84137 0.86047 0.0
C2131 C 0.10997 0.83615 0.78603 0.0
C2132 C 0.1184 0.8421 0.72607 0.0
H2133 H 0.10922 0.27158 0.60758 0.0
H2134 H 0.12416 0.31047 0.5703 0.0
H2135 H 0.14487 0.31309 0.55919 0.0
H2136 H 0.1339 0.27358 0.71808 0.0
H2137 H 0.133 0.26013 0.67589 0.0
H2138 H 0.1195 0.26148 0.68245 0.0
H2139 H 0.1162 0.25803 0.53561 0.0
H2140 H 0.1297 0.25669 0.52855 0.0
H2141 H 0.12833 0.26779 0.47091 0.0
H2142 H 0.16402 0.31132 0.55284 0.0
H2143 H 0.17987 0.30524 0.55029 0.0
H2144 H 0.1519 0.26745 0.58642 0.0
C2145 C 0.11679 0.28065 0.59608 0.0
C2146 C 0.11503 0.29081 0.58942 0.0
C2147 C 0.12528 0.30256 0.57636 0.0
C2148 C 0.13707 0.30413 0.5695 0.0
C2149 C 0.13841 0.29386 0.57564 0.0
C2150 C 0.12853 0.28235 0.5885 0.0
C2151 C 0.13233 0.27276 0.59247 0.0
C2152 C 0.12952 0.26663 0.67195 0.0
C2153 C 0.12628 0.26326 0.52803 0.0
C2154 C 0.14593 0.28065 0.5797 0.0
C2155 C 0.1493 0.29281 0.57046 0.0
C2156 C 0.16146 0.30182 0.55967 0.0
C2157 C 0.17039 0.2983 0.55847 0.0
C2158 C 0.16707 0.28588 0.56741 0.0
C2159 C 0.15467 0.27698 0.57795 0.0
H2160 H 0.07467 0.30418 0.80175 0.0
H2161 H 0.06975 0.32779 0.6429 0.0
H2162 H 0.07524 0.34315 0.74646 0.0
H2163 H 0.06275 0.3114 0.97394 0.0
H2164 H 0.07391 0.31048 0.03399 0.0
H2165 H 0.0685 0.30142 0.94789 0.0
H2166 H 0.091 0.3107 0.90303 0.0
H2167 H 0.09626 0.32003 0.98784 0.0
H2168 H 0.10039 0.32707 0.89435 0.0
H2169 H 0.08208 0.35616 0.86765 0.0
H2170 H 0.09122 0.36632 0.99087 0.0
H2171 H 0.09141 0.33375 0.06793 0.0
C2172 C 0.07434 0.31238 0.78909 0.0
C2173 C 0.07144 0.31464 0.71487 0.0
C2174 C 0.07181 0.32583 0.69973 0.0
C2175 C 0.07486 0.33456 0.75822 0.0
C2176 C 0.07753 0.33194 0.83117 0.0
C2177 C 0.07736 0.32112 0.84641 0.0
C2178 C 0.08139 0.32076 0.9276 0.0
C2179 C 0.07101 0.31041 0.97363 0.0
C2180 C 0.09295 0.31958 0.92817 0.0
C2181 C 0.08402 0.33314 0.95591 0.0
C2182 C 0.08164 0.33943 0.89985 0.0
C2183 C 0.08392 0.35129 0.91193 0.0
C2184 C 0.08911 0.35698 0.98216 0.0
C2185 C 0.09206 0.35085 0.03906 0.0
C2186 C 0.08913 0.33865 0.02624 0.0
H2187 H 0.64175 0.7656 0.92541 0.0
H2188 H 0.645 0.73638 0.03205 0.0
H2189 H 0.66213 0.74052 0.94411 0.0
H2190 H 0.64768 0.75916 0.7299 0.0
H2191 H 0.65569 0.77507 0.70327 0.0
H2192 H 0.64375 0.76961 0.77444 0.0
H2193 H 0.65891 0.78578 0.87081 0.0
H2194 H 0.67087 0.79118 0.80002 0.0
H2195 H 0.67307 0.78621 0.89263 0.0
H2196 H 0.68019 0.74942 0.85303 0.0
H2197 H 0.69638 0.76084 0.75639 0.0
H2198 H 0.67966 0.78261 0.70044 0.0
C2199 C 0.64611 0.76009 0.92992 0.0
C2200 C 0.64231 0.75082 0.9856 0.0
C2201 C 0.64793 0.74358 0.9896 0.0
C2202 C 0.65762 0.74587 0.94006 0.0
C2203 C 0.66125 0.75518 0.8858 0.0
C2204 C 0.6555 0.76201 0.87951 0.0
C2205 C 0.66093 0.7713 0.81548 0.0
C2206 C 0.65145 0.76862 0.75202 0.0
C2207 C 0.66626 0.78439 0.84663 0.0
C2208 C 0.67089 0.7689 0.78805 0.0
C2209 C 0.671 0.75963 0.82968 0.0
C2210 C 0.68003 0.75649 0.81888 0.0
C2211 C 0.68917 0.76301 0.76416 0.0
C2212 C 0.68904 0.77236 0.72018 0.0
C2213 C 0.67972 0.77524 0.73182 0.0
H2214 H 0.23732 0.89538 0.88189 0.0
H2215 H 0.27341 0.9108 0.78 0.0
H2216 H 0.26952 0.92513 0.70473 0.0
H2217 H 0.22183 0.89683 0.71319 0.0
H2218 H 0.21195 0.90073 0.76556 0.0
H2219 H 0.21764 0.89176 0.81094 0.0
H2220 H 0.22665 0.90755 0.92176 0.0
H2221 H 0.22096 0.91655 0.8767 0.0
H2222 H 0.23697 0.9234 0.89966 0.0
H2223 H 0.26159 0.93812 0.64212 0.0
H2224 H 0.25017 0.94819 0.59695 0.0
H2225 H 0.21946 0.9237 0.74024 0.0
C2226 C 0.24444 0.90176 0.84383 0.0
C2227 C 0.25568 0.90198 0.83696 0.0
C2228 C 0.26471 0.91046 0.78622 0.0
C2229 C 0.2626 0.91864 0.74326 0.0
C2230 C 0.2514 0.91818 0.75163 0.0
C2231 C 0.24247 0.90992 0.80063 0.0
C2232 C 0.23121 0.91121 0.79959 0.0
C2233 C 0.22 0.89943 0.77057 0.0
C2234 C 0.22882 0.9149 0.87914 0.0
C2235 C 0.23517 0.92149 0.7424 0.0
C2236 C 0.24684 0.92545 0.71532 0.0
C2237 C 0.25242 0.93504 0.66277 0.0
C2238 C 0.24589 0.94071 0.63748 0.0
C2239 C 0.2339 0.9367 0.66462 0.0
C2240 C 0.22855 0.92695 0.71762 0.0
H2241 H 0.30329 0.06792 0.12896 0.0
H2242 H 0.30698 0.04022 0.25408 0.0
H2243 H 0.32635 0.04629 0.1858 0.0
H2244 H 0.31664 0.06525 0.94636 0.0
H2245 H 0.32411 0.08147 0.92906 0.0
H2246 H 0.3099 0.07396 0.98133 0.0
H2247 H 0.32008 0.08901 0.09487 0.0
H2248 H 0.33427 0.09654 0.04289 0.0
H2249 H 0.33379 0.09054 0.13748 0.0
H2250 H 0.34642 0.05698 0.1145 0.0
H2251 H 0.36556 0.07158 0.04876 0.0
H2252 H 0.34822 0.09173 0.96791 0.0
C2253 C 0.30807 0.06301 0.14148 0.0
C2254 C 0.30364 0.05362 0.19706 0.0
C2255 C 0.31019 0.04743 0.21157 0.0
C2256 C 0.32117 0.05079 0.17289 0.0
C2257 C 0.32538 0.06023 0.11923 0.0
C2258 C 0.31898 0.06619 0.10324 0.0
C2259 C 0.32582 0.07658 0.04718 0.0
C2260 C 0.31869 0.07416 0.9715 0.0
C2261 C 0.32866 0.08889 0.08276 0.0
C2262 C 0.3373 0.07582 0.03628 0.0
C2263 C 0.33684 0.06625 0.07746 0.0
C2264 C 0.34681 0.06438 0.081 0.0
C2265 C 0.35764 0.07272 0.04333 0.0
C2266 C 0.35843 0.08285 1.00316 0.0
C2267 C 0.34796 0.08411 0.99778 0.0
H2268 H 0.88074 0.23037 0.10577 0.0
H2269 H 0.91177 0.26712 0.09 0.0
H2270 H 0.92355 0.26132 0.17721 0.0
H2271 H 0.88469 0.22646 0.3089 0.0
H2272 H 0.87976 0.21046 0.29865 0.0
H2273 H 0.87388 0.21754 0.23502 0.0
H2274 H 0.88119 0.21033 0.11733 0.0
H2275 H 0.88702 0.20317 0.18053 0.0
H2276 H 0.89699 0.21427 0.11116 0.0
H2277 H 0.93247 0.25071 0.25531 0.0
H2278 H 0.93716 0.23665 0.328 0.0
H2279 H 0.8995 0.20775 0.30404 0.0
C2280 C 0.89003 0.23717 0.12061 0.0
C2281 C 0.89546 0.24912 0.09067 0.0
C2282 C 0.90752 0.25789 0.11236 0.0
C2283 C 0.91425 0.25468 0.16173 0.0
C2284 C 0.90863 0.24278 0.19022 0.0
C2285 C 0.89673 0.23423 0.17135 0.0
C2286 C 0.89271 0.22213 0.21062 0.0
C2287 C 0.88213 0.21897 0.26663 0.0
C2288 C 0.88928 0.21188 0.15137 0.0
C2289 C 0.90432 0.2251 0.25304 0.0
C2290 C 0.91345 0.23702 0.2401 0.0
C2291 C 0.92531 0.24146 0.26748 0.0
C2292 C 0.9279 0.23346 0.3086 0.0
C2293 C 0.9186 0.22131 0.32317 0.0
C2294 C 0.90665 0.21716 0.29596 0.0
H2295 H 0.76302 0.6461 0.15988 0.0
H2296 H 0.72928 0.64435 0.09025 0.0
H2297 H 0.73204 0.65924 0.19271 0.0
H2298 H 0.75836 0.64793 0.36686 0.0
H2299 H 0.77447 0.65773 0.38404 0.0
H2300 H 0.76935 0.64676 0.30686 0.0
H2301 H 0.78234 0.66434 0.21068 0.0
H2302 H 0.78733 0.67526 0.2878 0.0
H2303 H 0.77995 0.67724 0.20496 0.0
H2304 H 0.74023 0.67634 0.292 0.0
H2305 H 0.7521 0.69275 0.38675 0.0
H2306 H 0.77882 0.68091 0.4014 0.0
C2307 C 0.75621 0.64885 0.1666 0.0
C2308 C 0.74605 0.64434 0.11724 0.0
C2309 C 0.73716 0.64788 0.12774 0.0
C2310 C 0.73865 0.65626 0.18568 0.0
C2311 C 0.74886 0.66063 0.23353 0.0
C2312 C 0.75736 0.65686 0.22531 0.0
C2313 C 0.7675 0.66281 0.28385 0.0
C2314 C 0.76742 0.65323 0.33864 0.0
C2315 C 0.78001 0.67036 0.24445 0.0
C2316 C 0.76366 0.67088 0.32478 0.0
C2317 C 0.75293 0.66958 0.29482 0.0
C2318 C 0.74841 0.67716 0.3176 0.0
C2319 C 0.75516 0.6864 0.37141 0.0
C2320 C 0.76608 0.68772 0.4029 0.0
C2321 C 0.77021 0.6797 0.38051 0.0
H2322 H 0.92327 0.69561 0.17894 0.0
H2323 H 0.93284 0.68145 0.37723 0.0
H2324 H 0.932 0.6648 0.29746 0.0
H2325 H 0.90092 0.66735 0.11062 0.0
H2326 H 0.904 0.67108 0.0102 0.0
H2327 H 0.90752 0.68299 0.07903 0.0
H2328 H 0.93042 0.69463 0.03516 0.0
H2329 H 0.92632 0.68293 0.96302 0.0
H2330 H 0.93863 0.68644 0.02911 0.0
H2331 H 0.92954 0.64951 0.19719 0.0
H2332 H 0.92158 0.63425 0.09338 0.0
H2333 H 0.91121 0.65706 0.96432 0.0
C2334 C 0.92547 0.68915 0.20475 0.0
C2335 C 0.92839 0.68986 0.28333 0.0
C2336 C 0.93076 0.68105 0.3166 0.0
C2337 C 0.93039 0.67166 0.27171 0.0
C2338 C 0.92743 0.67114 0.19413 0.0
C2339 C 0.92478 0.67951 0.16129 0.0
C2340 C 0.92032 0.67602 0.07953 0.0
C2341 C 0.90742 0.67425 0.06932 0.0
C2342 C 0.92946 0.68556 0.02322 0.0
C2343 C 0.92031 0.66408 0.07265 0.0
C2344 C 0.92497 0.66173 0.13816 0.0
C2345 C 0.92589 0.65125 0.14558 0.0
C2346 C 0.92139 0.64267 0.08594 0.0
C2347 C 0.91567 0.64443 0.02106 0.0
C2348 C 0.9155 0.65546 0.01339 0.0
H2349 H 0.35521 0.24943 0.14214 0.0
H2350 H 0.33256 0.24559 0.94556 0.0
H2351 H 0.31488 0.23976 0.03177 0.0
H2352 H 0.33398 0.22321 0.23049 0.0
H2353 H 0.338 0.2289 0.32723 0.0
H2354 H 0.34921 0.23536 0.25206 0.0
H2355 H 0.35253 0.25709 0.28179 0.0
H2356 H 0.34162 0.25051 0.35948 0.0
H2357 H 0.33956 0.25935 0.28588 0.0
H2358 H 0.2994 0.23278 0.1393 0.0
H2359 H 0.28684 0.22239 0.25285 0.0
H2360 H 0.31936 0.22854 0.37547 0.0
C2361 C 0.34664 0.24782 0.11773 0.0
C2362 C 0.34525 0.24824 0.03784 0.0
C2363 C 0.33379 0.24551 0.00708 0.0
C2364 C 0.32374 0.24224 0.05556 0.0
C2365 C 0.32532 0.2416 0.13434 0.0
C2366 C 0.33647 0.24418 0.16496 0.0
C2367 C 0.33539 0.24105 0.24933 0.0
C2368 C 0.33938 0.23157 0.26571 0.0
C2369 C 0.3427 0.25269 0.29717 0.0
C2370 C 0.32182 0.23576 0.26095 0.0
C2371 C 0.31624 0.23658 0.19477 0.0
C2372 C 0.30368 0.23203 0.19122 0.0
C2373 C 0.29662 0.22607 0.256 0.0
C2374 C 0.30207 0.2243 0.32236 0.0
C2375 C 0.31489 0.22963 0.32549 0.0
H2376 H 0.77891 0.10118 0.31161 0.0
H2377 H 0.74853 0.06404 0.3205 0.0
H2378 H 0.73558 0.07048 0.25025 0.0
H2379 H 0.76169 0.11737 0.32476 0.0
H2380 H 0.77137 0.12879 0.25596 0.0
H2381 H 0.77753 0.12154 0.31579 0.0
H2382 H 0.78472 0.11501 0.19437 0.0
H2383 H 0.77852 0.12218 0.13425 0.0
H2384 H 0.77375 0.10626 0.12082 0.0
H2385 H 0.72614 0.08125 0.17766 0.0
H2386 H 0.72174 0.09472 0.09603 0.0
H2387 H 0.75919 0.12397 0.12314 0.0
C2388 C 0.76943 0.09449 0.30046 0.0
C2389 C 0.76455 0.0822 0.32288 0.0
C2390 C 0.7523 0.07354 0.3046 0.0
C2391 C 0.74491 0.07713 0.26499 0.0
C2392 C 0.75005 0.08934 0.24284 0.0
C2393 C 0.76209 0.09783 0.25914 0.0
C2394 C 0.76586 0.11004 0.22218 0.0
C2395 C 0.76931 0.12002 0.28333 0.0
C2396 C 0.77633 0.11357 0.16448 0.0
C2397 C 0.75409 0.1071 0.18201 0.0
C2398 C 0.74498 0.09521 0.19597 0.0
C2399 C 0.73323 0.09055 0.166 0.0
C2400 C 0.7308 0.09822 0.11993 0.0
C2401 C 0.74019 0.11024 0.10286 0.0
C2402 C 0.75193 0.11472 0.13456 0.0
H2403 H 0.68396 0.9314 0.73867 0.0
H2404 H 0.66863 0.90751 0.5407 0.0
H2405 H 0.64858 0.89702 0.60376 0.0
H2406 H 0.66727 0.90914 0.88163 0.0
H2407 H 0.66473 0.91919 0.94254 0.0
H2408 H 0.678 0.92533 0.88145 0.0
H2409 H 0.6718 0.94007 0.81949 0.0
H2410 H 0.65855 0.93404 0.88076 0.0
H2411 H 0.65679 0.93399 0.77803 0.0
H2412 H 0.6309 0.8879 0.69008 0.0
H2413 H 0.61543 0.8819 0.79063 0.0
H2414 H 0.64111 0.91233 0.93202 0.0
C2415 C 0.67635 0.92404 0.70838 0.0
C2416 C 0.6779 0.92026 0.63478 0.0
C2417 C 0.66771 0.9106 0.597 0.0
C2418 C 0.65626 0.90454 0.6324 0.0
C2419 C 0.65509 0.90832 0.70528 0.0
C2420 C 0.66475 0.91794 0.74264 0.0
C2421 C 0.66085 0.92008 0.82089 0.0
C2422 C 0.66815 0.91833 0.88542 0.0
C2423 C 0.66207 0.9328 0.825 0.0
C2424 C 0.64753 0.91003 0.82171 0.0
C2425 C 0.64452 0.90333 0.75448 0.0
C2426 C 0.63305 0.89319 0.74246 0.0
C2427 C 0.6243 0.88986 0.80027 0.0
C2428 C 0.62694 0.89676 0.86892 0.0
C2429 C 0.63876 0.90699 0.87974 0.0
H2430 H 0.07348 0.75278 0.75287 0.0
H2431 H 0.07034 0.77721 0.9148 0.0
H2432 H 0.07984 0.77121 0.01437 0.0
H2433 H 0.06938 0.72884 0.89057 0.0
H2434 H 0.08107 0.72656 0.84757 0.0
H2435 H 0.07252 0.73147 0.78926 0.0
H2436 H 0.09274 0.75026 0.74407 0.0
H2437 H 0.10131 0.74538 0.80214 0.0
H2438 H 0.10341 0.76047 0.81459 0.0
H2439 H 0.08999 0.76339 0.09632 0.0
H2440 H 0.10265 0.75579 0.1536 0.0
H2441 H 0.1013 0.73744 0.93953 0.0
C2442 C 0.07458 0.75665 0.80975 0.0
C2443 C 0.07073 0.76519 0.82632 0.0
C2444 C 0.07278 0.77039 0.90071 0.0
C2445 C 0.07823 0.76706 0.95812 0.0
C2446 C 0.08187 0.75865 0.94026 0.0
C2447 C 0.08035 0.75363 0.86782 0.0
C2448 C 0.08631 0.74576 0.86292 0.0
C2449 C 0.07675 0.73236 0.84662 0.0
C2450 C 0.09655 0.75077 0.80235 0.0
C2451 C 0.09145 0.74731 0.94366 0.0
C2452 C 0.08855 0.75462 0.98727 0.0
C2453 C 0.09235 0.75764 0.06297 0.0
C2454 C 0.09956 0.75327 0.09496 0.0
C2455 C 0.10304 0.74606 0.05109 0.0
C2456 C 0.09877 0.74291 0.97462 0.0
H2457 H 0.22298 0.29439 0.76169 0.0
H2458 H 0.24316 0.31538 0.56267 0.0
H2459 H 0.25652 0.33277 0.64701 0.0
H2460 H 0.22171 0.31793 0.85164 0.0
H2461 H 0.22315 0.31365 0.94813 0.0
H2462 H 0.21678 0.30221 0.87418 0.0
H2463 H 0.23319 0.29598 0.90085 0.0
H2464 H 0.2393 0.30719 0.977 0.0
H2465 H 0.24913 0.30749 0.90104 0.0
H2466 H 0.26631 0.34838 0.75106 0.0
H2467 H 0.27066 0.36163 0.86391 0.0
H2468 H 0.24318 0.33081 0.99415 0.0
C2469 C 0.23046 0.30251 0.73622 0.0
C2470 C 0.23221 0.30353 0.65601 0.0
C2471 C 0.24178 0.31443 0.62423 0.0
C2472 C 0.24943 0.32431 0.67166 0.0
C2473 C 0.24731 0.32312 0.75057 0.0
C2474 C 0.23802 0.31252 0.78255 0.0
C2475 C 0.2367 0.31408 0.8675 0.0
C2476 C 0.22383 0.31184 0.88643 0.0
C2477 C 0.23977 0.30569 0.91452 0.0
C2478 C 0.24635 0.32736 0.87785 0.0
C2479 C 0.25259 0.33231 0.81017 0.0
C2480 C 0.26154 0.34457 0.80449 0.0
C2481 C 0.2639 0.35205 0.869 0.0
C2482 C 0.25716 0.34732 0.93782 0.0
C2483 C 0.24853 0.33471 0.94266 0.0
H2484 H 0.0139 0.42387 0.33192 0.0
H2485 H 0.0459 0.42772 0.45001 0.0
H2486 H 0.03349 0.41858 0.56656 0.0
H2487 H 0.00278 0.43282 0.48451 0.0
H2488 H 0.98684 0.4224 0.46536 0.0
H2489 H -0.00226 0.42755 0.38801 0.0
H2490 H 0.99123 0.405 0.35221 0.0
H2491 H 0.97987 0.40011 0.42698 0.0
H2492 H 0.99078 0.39487 0.42636 0.0
H2493 H 0.01776 0.41052 0.67406 0.0
H2494 H 5e-05 0.40403 0.76115 0.0
H2495 H 0.97904 0.4064 0.57176 0.0
C2496 C 0.01823 0.42244 0.38135 0.0
C2497 C 0.03085 0.42643 0.38158 0.0
C2498 C 0.03622 0.42467 0.44835 0.0
C2499 C 0.02925 0.41949 0.51487 0.0
C2500 C 0.01692 0.41606 0.51352 0.0
C2501 C 0.01145 0.41738 0.4482 0.0
C2502 C -0.00169 0.41391 0.46309 0.0
C2503 C 0.99631 0.42482 0.44944 0.0
C2504 C 0.98952 0.40281 0.4143 0.0
C2505 C 0.99731 0.41065 0.54723 0.0
C2506 C 0.00805 0.41179 0.5754 0.0
C2507 C 0.00926 0.40949 0.65233 0.0
C2508 C -0.00082 0.40583 0.70138 0.0
C2509 C 0.98813 0.40471 0.67336 0.0
C2510 C 0.98729 0.40717 0.59527 0.0
H2511 H 0.58992 0.55656 0.61083 0.0
H2512 H 0.59174 0.57812 0.8089 0.0
H2513 H 0.58741 0.59141 0.72561 0.0
H2514 H 0.60152 0.58171 0.46353 0.0
H2515 H 0.59087 0.57142 0.3934 0.0
H2516 H 0.59695 0.56575 0.4664 0.0
H2517 H 0.57468 0.54977 0.50707 0.0
H2518 H 0.56865 0.55562 0.43573 0.0
H2519 H 0.56442 0.55511 0.53501 0.0
H2520 H 0.58136 0.60128 0.62162 0.0
H2521 H 0.57118 0.60496 0.51273 0.0
H2522 H 0.57072 0.57502 0.38803 0.0
C2523 C 0.58986 0.56435 0.6361 0.0
C2524 C 0.59143 0.56653 0.71568 0.0
C2525 C 0.59074 0.57646 0.7476 0.0
C2526 C 0.58835 0.58407 0.70073 0.0
C2527 C 0.58655 0.58149 0.6224 0.0
C2528 C 0.58715 0.57178 0.59059 0.0
C2529 C 0.58302 0.56975 0.5078 0.0
C2530 C 0.59372 0.5723 0.45451 0.0
C2531 C 0.57205 0.5568 0.49573 0.0
C2532 C 0.57941 0.57941 0.49883 0.0
C2533 C 0.58197 0.58642 0.56449 0.0
C2534 C 0.57924 0.59579 0.57015 0.0
C2535 C 0.57332 0.59772 0.50819 0.0
C2536 C 0.56971 0.58997 0.44298 0.0
C2537 C 0.57321 0.581 0.43743 0.0
H2538 H 0.41093 0.98665 0.39076 0.0
H2539 H 0.40478 0.00389 0.19425 0.0
H2540 H 0.40615 0.02035 0.27842 0.0
H2541 H 0.39545 0.99585 0.53709 0.0
H2542 H 0.40675 0.99811 0.60822 0.0
H2543 H 0.40285 0.98685 0.53325 0.0
H2544 H 0.42598 0.99733 0.49596 0.0
H2545 H 0.42968 0.00868 0.56926 0.0
H2546 H 0.43389 0.01332 0.47096 0.0
H2547 H 0.40992 0.03572 0.3827 0.0
H2548 H 0.41777 0.04971 0.49382 0.0
H2549 H 0.42322 0.02314 0.61884 0.0
C2550 C 0.40954 0.9937 0.36595 0.0
C2551 C 0.40749 0.99392 0.28664 0.0
C2552 C 0.4062 0.00355 0.25533 0.0
C2553 C 0.40694 0.01288 0.30266 0.0
C2554 C 0.40921 0.01254 0.38072 0.0
C2555 C 0.4106 0.00325 0.41188 0.0
C2556 C 0.41436 0.00568 0.49529 0.0
C2557 C 0.40426 0.99605 0.54665 0.0
C2558 C 0.4267 0.00629 0.50862 0.0
C2559 C 0.41537 0.01802 0.50563 0.0
C2560 C 0.41197 0.02165 0.43967 0.0
C2561 C 0.41247 0.0329 0.43489 0.0
C2562 C 0.41686 0.04074 0.49848 0.0
C2563 C 0.42098 0.03742 0.56496 0.0
C2564 C 0.42 0.02583 0.56893 0.0
H2565 H 0.5576 0.97483 0.48528 0.0
H2566 H 0.58838 0.98828 0.32943 0.0
H2567 H 0.60146 0.00376 0.42596 0.0
H2568 H 0.56391 0.00394 0.54347 0.0
H2569 H 0.55864 -0.00047 0.64065 0.0
H2570 H 0.55235 0.98841 0.56473 0.0
H2571 H 0.5584 0.97439 0.63872 0.0
H2572 H 0.56476 0.98553 0.71481 0.0
H2573 H 0.57408 0.98037 0.66762 0.0
H2574 H 0.61072 0.01822 0.53597 0.0
H2575 H 0.61503 0.03262 0.64222 0.0
H2576 H 0.57763 0.01059 0.72238 0.0
C2577 C 0.56718 0.98081 0.47245 0.0
C2578 C 0.57215 0.98023 0.40115 0.0
C2579 C 0.58454 0.98853 0.38455 0.0
C2580 C 0.59201 0.99728 0.43902 0.0
C2581 C 0.58681 0.99766 0.50889 0.0
C2582 C 0.57463 0.98978 0.52515 0.0
C2583 C 0.57087 0.99309 0.59982 0.0
C2584 C 0.56086 0.99644 0.58631 0.0
C2585 C 0.56678 0.98272 0.65873 0.0
C2586 C 0.58284 0.00415 0.62294 0.0
C2587 C 0.59197 0.00647 0.57047 0.0
C2588 C 0.60368 0.01647 0.57767 0.0
C2589 C 0.60603 0.02458 0.63855 0.0
C2590 C 0.59663 0.02278 0.69058 0.0
C2591 C 0.585 0.01221 0.68377 0.0
H2592 H 0.02789 0.58688 0.46625 0.0
H2593 H 0.01485 0.60426 0.30701 0.0
H2594 H 0.99462 0.59383 0.37095 0.0
H2595 H 0.00105 0.55815 0.46604 0.0
H2596 H 0.00215 0.55511 0.56594 0.0
H2597 H 0.01578 0.56482 0.51213 0.0
H2598 H 0.0218 0.58211 0.61149 0.0
H2599 H 0.00821 0.57249 0.66612 0.0
H2600 H 0.01121 0.5873 0.63406 0.0
H2601 H 0.9754 0.58019 0.44689 0.0
H2602 H 0.95901 0.56507 0.53049 0.0
H2603 H 0.98495 0.55654 0.63687 0.0
C2604 C 0.02083 0.58856 0.44471 0.0
C2605 C 0.02291 0.5963 0.38119 0.0
C2606 C 0.01345 0.59838 0.35576 0.0
C2607 C 0.00194 0.59248 0.39158 0.0
C2608 C 0.00012 0.58461 0.45276 0.0
C2609 C 0.00935 0.58272 0.47928 0.0
C2610 C 0.00499 0.57341 0.54336 0.0
C2611 C 0.00605 0.56221 0.52046 0.0
C2612 C 0.01196 0.57918 0.61821 0.0
C2613 C 0.9918 0.57027 0.5487 0.0
C2614 C 0.98915 0.57682 0.49615 0.0
C2615 C 0.97741 0.5751 0.48871 0.0
C2616 C 0.96815 0.56646 0.53631 0.0
C2617 C 0.9707 0.55965 0.59042 0.0
C2618 C 0.98271 0.56166 0.59658 0.0
H2619 H 0.41361 0.43929 0.40974 0.0
H2620 H 0.39143 0.40726 0.26951 0.0
H2621 H 0.39937 0.39585 0.34234 0.0
H2622 H 0.43963 0.43516 0.43253 0.0
H2623 H 0.44219 0.44042 0.53059 0.0
H2624 H 0.43532 0.44609 0.46372 0.0
H2625 H 0.41685 0.43914 0.55526 0.0
H2626 H 0.42357 0.43332 0.62213 0.0
H2627 H 0.40838 0.4234 0.58572 0.0
H2628 H 0.40985 0.38801 0.4326 0.0
H2629 H 0.42154 0.38436 0.53299 0.0
H2630 H 0.43546 0.4213 0.61755 0.0
C2631 C 0.41042 0.4299 0.39373 0.0
C2632 C 0.40188 0.42417 0.3338 0.0
C2633 C 0.39799 0.41185 0.3151 0.0
C2634 C 0.40244 0.4053 0.35622 0.0
C2635 C 0.41065 0.41118 0.41618 0.0
C2636 C 0.41456 0.42321 0.43483 0.0
C2637 C 0.42305 0.42737 0.50333 0.0
C2638 C 0.4358 0.43788 0.48119 0.0
C2639 C 0.41763 0.43101 0.57057 0.0
C2640 C 0.42331 0.41579 0.52075 0.0
C2641 C 0.41621 0.40657 0.46955 0.0
C2642 C 0.41536 0.39514 0.47328 0.0
C2643 C 0.42201 0.39315 0.53052 0.0
C2644 C 0.42928 0.40249 0.58366 0.0
C2645 C 0.42982 0.4139 0.5787 0.0
H2646 H 0.10482 0.36478 0.51383 0.0
H2647 H 0.13272 0.39956 0.42118 0.0
H2648 H 0.13934 0.40732 0.55212 0.0
H2649 H 0.09709 0.37743 0.67869 0.0
H2650 H 0.09494 0.36537 0.74326 0.0
H2651 H 0.09201 0.36228 0.64215 0.0
H2652 H 0.10712 0.35414 0.63691 0.0
H2653 H 0.10995 0.35701 0.73818 0.0
H2654 H 0.12254 0.3636 0.67137 0.0
H2655 H 0.14322 0.41142 0.69127 0.0
H2656 H 0.14461 0.41146 0.83212 0.0
H2657 H 0.11436 0.37412 0.83877 0.0
C2658 C 0.11226 0.37405 0.52122 0.0
C2659 C 0.11831 0.38151 0.45674 0.0
C2660 C 0.12808 0.39356 0.46905 0.0
C2661 C 0.13185 0.39811 0.54344 0.0
C2662 C 0.12576 0.39053 0.60544 0.0
C2663 C 0.11618 0.37875 0.5955 0.0
C2664 C 0.11143 0.3725 0.67266 0.0
C2665 C 0.09807 0.3692 0.68486 0.0
C2666 C 0.11286 0.36114 0.6802 0.0
C2667 C 0.11995 0.38259 0.72715 0.0
C2668 C 0.12806 0.39291 0.68679 0.0
C2669 C 0.13694 0.40339 0.72357 0.0
C2670 C 0.1377 0.4033 0.80372 0.0
C2671 C 0.12968 0.39278 0.84682 0.0
C2672 C 0.12056 0.38234 0.80772 0.0
H2673 H 0.62546 0.74404 0.45133 0.0
H2674 H 0.59049 0.71653 0.35826 0.0
H2675 H 0.58246 0.71046 0.48922 0.0
H2676 H 0.62538 0.72588 0.61386 0.0
H2677 H 0.63222 0.73855 0.67973 0.0
H2678 H 0.6357 0.74106 0.57873 0.0
H2679 H 0.62876 0.75706 0.57452 0.0
H2680 H 0.62536 0.75494 0.67561 0.0
H2681 H 0.61371 0.75305 0.60829 0.0
H2682 H 0.5779 0.70762 0.62914 0.0
H2683 H 0.577 0.70847 0.77024 0.0
H2684 H 0.6149 0.73747 0.77548 0.0
C2685 C 0.61615 0.73666 0.45844 0.0
C2686 C 0.6086 0.73085 0.39389 0.0
C2687 C 0.59642 0.72132 0.40614 0.0
C2688 C 0.59179 0.7177 0.48056 0.0
C2689 C 0.59944 0.72364 0.5426 0.0
C2690 C 0.61136 0.73291 0.5326 0.0
C2691 C 0.61753 0.73792 0.60956 0.0
C2692 C 0.62835 0.73572 0.62111 0.0
C2693 C 0.62158 0.75155 0.61742 0.0
C2694 C 0.60714 0.73014 0.66415 0.0
C2695 C 0.59682 0.72192 0.62406 0.0
C2696 C 0.58593 0.71398 0.66118 0.0
C2697 C 0.58549 0.71457 0.74133 0.0
C2698 C 0.59586 0.72303 0.78392 0.0
C2699 C 0.60688 0.73079 0.74462 0.0
H2700 H 0.26688 0.87155 0.24748 0.0
H2701 H 0.28978 0.9109 0.23214 0.0
H2702 H 0.29476 0.91188 0.36967 0.0
H2703 H 0.25423 0.87108 0.42844 0.0
H2704 H 0.25403 0.85756 0.46348 0.0
H2705 H 0.25316 0.85965 0.36191 0.0
H2706 H 0.27207 0.85718 0.33919 0.0
H2707 H 0.27295 0.855 0.44078 0.0
H2708 H 0.28603 0.86681 0.39075 0.0
H2709 H 0.2958 0.90901 0.51007 0.0
H2710 H 0.29352 0.90225 0.64507 0.0
H2711 H 0.27015 0.8647 0.5727 0.0
C2712 C 0.27316 0.8803 0.27303 0.0
C2713 C 0.27792 0.89116 0.22931 0.0
C2714 C 0.28594 0.9025 0.26479 0.0
C2715 C 0.28887 0.90314 0.3428 0.0
C2716 C 0.28376 0.89234 0.38497 0.0
C2717 C 0.27615 0.88111 0.35151 0.0
C2718 C 0.27141 0.87102 0.41141 0.0
C2719 C 0.25738 0.86444 0.4166 0.0
C2720 C 0.27588 0.86196 0.39451 0.0
C2721 C 0.27734 0.87839 0.48358 0.0
C2722 C 0.28446 0.89067 0.46674 0.0
C2723 C 0.29036 0.8994 0.52395 0.0
C2724 C 0.28895 0.89549 0.60053 0.0
C2725 C 0.28172 0.88296 0.61954 0.0
C2726 C 0.27593 0.87431 0.5599 0.0
H2727 H 0.40228 0.12979 0.29481 0.0
H2728 H 0.36975 0.09605 0.23148 0.0
H2729 H 0.36336 0.09244 0.36838 0.0
H2730 H 0.40809 0.11978 0.47669 0.0
H2731 H 0.41299 0.13429 0.52253 0.0
H2732 H 0.41516 0.13364 0.4208 0.0
H2733 H 0.40326 0.14508 0.3947 0.0
H2734 H 0.40108 0.14579 0.49624 0.0
H2735 H 0.38805 0.13902 0.43293 0.0
H2736 H 0.36083 0.09277 0.51505 0.0
H2737 H 0.36142 0.09811 0.65332 0.0
H2738 H 0.39517 0.132 0.61463 0.0
C2739 C 0.39391 0.12154 0.30987 0.0
C2740 C 0.38658 0.1131 0.25303 0.0
C2741 C 0.37548 0.1026 0.27453 0.0
C2742 C 0.37185 0.10046 0.35201 0.0
C2743 C 0.37936 0.10898 0.40681 0.0
C2744 C 0.39011 0.11938 0.38624 0.0
C2745 C 0.39626 0.12755 0.45447 0.0
C2746 C 0.40887 0.12889 0.46949 0.0
C2747 C 0.39721 0.1401 0.44393 0.0
C2748 C 0.38728 0.12022 0.51692 0.0
C2749 C 0.37767 0.10943 0.48906 0.0
C2750 C 0.36831 0.10121 0.53723 0.0
C2751 C 0.36871 0.10425 0.6154 0.0
C2752 C 0.37827 0.11547 0.64359 0.0
C2753 C 0.38771 0.12342 0.59385 0.0
H2754 H 0.89796 0.27039 0.63379 0.0
H2755 H 0.86429 0.26732 0.72017 0.0
H2756 H 0.85836 0.26921 0.58872 0.0
H2757 H 0.90343 0.29243 0.48621 0.0
H2758 H 0.90913 0.28587 0.41723 0.0
H2759 H 0.91086 0.28421 0.51844 0.0
H2760 H 0.89982 0.26069 0.5025 0.0
H2761 H 0.89804 0.26228 0.40122 0.0
H2762 H 0.88483 0.25282 0.45947 0.0
H2763 H 0.8559 0.27137 0.44985 0.0
H2764 H 0.8571 0.27395 0.30987 0.0
H2765 H 0.89229 0.27566 0.30942 0.0
C2766 C 0.88931 0.27004 0.62502 0.0
C2767 C 0.88165 0.26882 0.68787 0.0
C2768 C 0.87045 0.2685 0.6736 0.0
C2769 C 0.86694 0.26946 0.59891 0.0
C2770 C 0.87469 0.2707 0.53859 0.0
C2771 C 0.88564 0.27099 0.55043 0.0
C2772 C 0.89227 0.27252 0.47485 0.0
C2773 C 0.90466 0.28447 0.47417 0.0
C2774 C 0.89383 0.26141 0.45857 0.0
C2775 C 0.88333 0.27309 0.41902 0.0
C2776 C 0.87326 0.27199 0.45738 0.0
C2777 C 0.86377 0.27231 0.4191 0.0
C2778 C 0.86459 0.27387 0.33941 0.0
C2779 C 0.87486 0.27516 0.2983 0.0
C2780 C 0.88431 0.27465 0.33895 0.0
H2781 H 0.73876 0.6177 0.32612 0.0
H2782 H 0.71523 0.57832 0.32793 0.0
H2783 H 0.71363 0.57867 0.46902 0.0
H2784 H 0.75517 0.6191 0.50045 0.0
H2785 H 0.75665 0.63348 0.52913 0.0
H2786 H 0.7555 0.62951 0.42891 0.0
H2787 H 0.73686 0.63322 0.41916 0.0
H2788 H 0.73804 0.6366 0.52033 0.0
H2789 H 0.72387 0.62466 0.48097 0.0
H2790 H 0.71516 0.58311 0.60986 0.0
H2791 H 0.71933 0.59143 0.74151 0.0
H2792 H 0.74192 0.62798 0.65029 0.0
C2793 C 0.73312 0.60919 0.35626 0.0
C2794 C 0.72709 0.59797 0.31604 0.0
C2795 C 0.71999 0.587 0.35763 0.0
C2796 C 0.719 0.58711 0.43773 0.0
C2797 C 0.72519 0.59828 0.47579 0.0
C2798 C 0.73211 0.60913 0.43662 0.0
C2799 C 0.73822 0.61981 0.49198 0.0
C2800 C 0.75221 0.62584 0.48735 0.0
C2801 C 0.73399 0.62912 0.47722 0.0
C2802 C 0.73347 0.61328 0.56814 0.0
C2803 C 0.72605 0.60085 0.55739 0.0
C2804 C 0.72093 0.59283 0.61902 0.0
C2805 C 0.72343 0.59764 0.6937 0.0
C2806 C 0.73096 0.61035 0.70639 0.0
C2807 C 0.73601 0.61825 0.64243 0.0
H2808 H 0.87666 0.6103 0.58111 0.0
H2809 H 0.90657 0.64784 0.57414 0.0
H2810 H 0.90774 0.64651 0.43414 0.0
H2811 H 0.88856 0.59898 0.42814 0.0
H2812 H 0.87365 0.58882 0.3886 0.0
H2813 H 0.8753 0.59242 0.48959 0.0
H2814 H 0.85955 0.59977 0.47774 0.0
H2815 H 0.85789 0.59624 0.37674 0.0
H2816 H 0.86209 0.61142 0.40852 0.0
H2817 H 0.90519 0.64185 0.29631 0.0
H2818 H 0.89954 0.63381 0.16595 0.0
H2819 H 0.87165 0.59884 0.25618 0.0
C2820 C 0.88355 0.61817 0.55016 0.0
C2821 C 0.89143 0.62924 0.58894 0.0
C2822 C 0.90025 0.63935 0.54602 0.0
C2823 C 0.90107 0.63866 0.46633 0.0
C2824 C 0.89306 0.62775 0.42985 0.0
C2825 C 0.88451 0.61764 0.46994 0.0
C2826 C 0.87688 0.60713 0.41531 0.0
C2827 C 0.87871 0.59619 0.43138 0.0
C2828 C 0.8633 0.60342 0.41987 0.0
C2829 C 0.8824 0.61304 0.33849 0.0
C2830 C 0.89172 0.62494 0.34886 0.0
C2831 C 0.89797 0.63251 0.28742 0.0
C2832 C 0.89464 0.62784 0.21318 0.0
C2833 C 0.88517 0.61565 0.20008 0.0
C2834 C 0.87902 0.60813 0.26406 0.0
H2835 H 0.37465 0.25989 0.27406 0.0
H2836 H 0.41309 0.27063 0.27468 0.0
H2837 H 0.41358 0.27255 0.41541 0.0
H2838 H 0.37683 0.28046 0.4392 0.0
H2839 H 0.36166 0.26908 0.46881 0.0
H2840 H 0.36597 0.27067 0.36901 0.0
H2841 H 0.35924 0.24664 0.37355 0.0
H2842 H 0.35561 0.24667 0.47344 0.0
H2843 H 0.36631 0.24192 0.44462 0.0
H2844 H 0.40962 0.27206 0.55744 0.0
H2845 H 0.40156 0.26979 0.68907 0.0
H2846 H 0.36576 0.25946 0.59683 0.0
C2847 C 0.38322 0.26289 0.3036 0.0
C2848 C 0.39379 0.26499 0.2629 0.0
C2849 C 0.40479 0.26874 0.30426 0.0
C2850 C 0.4052 0.26995 0.38438 0.0
C2851 C 0.39457 0.26752 0.42283 0.0
C2852 C 0.38382 0.2642 0.38388 0.0
C2853 C 0.3736 0.26172 0.4395 0.0
C2854 C 0.36923 0.271 0.42846 0.0
C2855 C 0.36305 0.24846 0.4324 0.0
C2856 C 0.38017 0.26379 0.51546 0.0
C2857 C 0.3923 0.26725 0.50467 0.0
C2858 C 0.40013 0.26941 0.56649 0.0
C2859 C 0.39543 0.26799 0.6412 0.0
C2860 C 0.38299 0.2644 0.65366 0.0
C2861 C 0.37533 0.26236 0.58951 0.0
H2862 H 0.7274 0.12545 0.32544 0.0
H2863 H 0.70238 0.13957 0.32558 0.0
H2864 H 0.70009 0.13685 0.46596 0.0
H2865 H 0.71216 0.10265 0.47773 0.0
H2866 H 0.72632 0.10521 0.51923 0.0
H2867 H 0.72545 0.10754 0.41788 0.0
H2868 H 0.74361 0.12964 0.43028 0.0
H2869 H 0.74452 0.12741 0.53163 0.0
H2870 H 0.74272 0.13992 0.49833 0.0
H2871 H 0.70108 0.13343 0.60628 0.0
H2872 H 0.70533 0.12958 0.73818 0.0
H2873 H 0.73007 0.11802 0.64944 0.0
C2874 C 0.72129 0.12776 0.35502 0.0
C2875 C 0.71506 0.13273 0.31455 0.0
C2876 C 0.70732 0.13587 0.35545 0.0
C2877 C 0.70591 0.13429 0.43515 0.0
C2878 C 0.71232 0.12957 0.47352 0.0
C2879 C 0.71985 0.12633 0.43501 0.0
C2880 C 0.72609 0.12197 0.49085 0.0
C2881 C 0.72227 0.10854 0.4755 0.0
C2882 C 0.74006 0.13023 0.48756 0.0
C2883 C 0.72096 0.12338 0.5666 0.0
C2884 C 0.71299 0.12772 0.55507 0.0
C2885 C 0.7073 0.13002 0.61609 0.0
C2886 C 0.70985 0.12788 0.69103 0.0
C2887 C 0.71808 0.12353 0.70473 0.0
C2888 C 0.72362 0.12119 0.64119 0.0
H2889 H 0.6105 0.87842 0.33099 0.0
H2890 H 0.57908 0.87989 0.24194 0.0
H2891 H 0.57177 0.87902 0.37318 0.0
H2892 H 0.59553 0.8579 0.48234 0.0
H2893 H 0.60788 0.86537 0.55021 0.0
H2894 H 0.61108 0.86662 0.44889 0.0
H2895 H 0.62254 0.89022 0.45957 0.0
H2896 H 0.61936 0.88904 0.56105 0.0
H2897 H 0.61484 0.89766 0.50044 0.0
H2898 H 0.56667 0.87603 0.513 0.0
H2899 H 0.56503 0.87252 0.65344 0.0
H2900 H 0.60034 0.8747 0.65481 0.0
C2901 C 0.60218 0.87873 0.33845 0.0
C2902 C 0.59534 0.87902 0.27445 0.0
C2903 C 0.58445 0.87938 0.28854 0.0
C2904 C 0.58022 0.87899 0.36346 0.0
C2905 C 0.58705 0.87849 0.42458 0.0
C2906 C 0.59788 0.87854 0.41316 0.0
C2907 C 0.60336 0.87777 0.48926 0.0
C2908 C 0.60453 0.86623 0.49285 0.0
C2909 C 0.61576 0.88936 0.5034 0.0
C2910 C 0.59374 0.87697 0.54489 0.0
C2911 C 0.58439 0.87739 0.50615 0.0
C2912 C 0.57403 0.87592 0.54412 0.0
C2913 C 0.57315 0.87391 0.62363 0.0
C2914 C 0.58262 0.87353 0.6646 0.0
C2915 C 0.59312 0.87525 0.62481 0.0
H2916 H 0.14005 0.75115 0.42004 0.0
H2917 H 0.11055 0.71676 0.33264 0.0
H2918 H 0.10297 0.71044 0.46369 0.0
H2919 H 0.14647 0.7386 0.57997 0.0
H2920 H 0.14992 0.75113 0.64397 0.0
H2921 H 0.15215 0.75379 0.54228 0.0
H2922 H 0.13808 0.76326 0.54318 0.0
H2923 H 0.13576 0.76056 0.64506 0.0
H2924 H 0.1228 0.75456 0.58119 0.0
H2925 H 0.09982 0.70665 0.60321 0.0
H2926 H 0.10175 0.70555 0.74379 0.0
H2927 H 0.13307 0.74213 0.74408 0.0
C2928 C 0.13193 0.74234 0.42822 0.0
C2929 C 0.12586 0.73456 0.36514 0.0
C2930 C 0.11526 0.72308 0.379 0.0
C2931 C 0.11086 0.71935 0.45363 0.0
C2932 C 0.11711 0.72719 0.51423 0.0
C2933 C 0.12741 0.73845 0.5026 0.0
C2934 C 0.13295 0.74467 0.57849 0.0
C2935 C 0.14615 0.74719 0.58663 0.0
C2936 C 0.13236 0.75646 0.58749 0.0
C2937 C 0.12441 0.73494 0.63443 0.0
C2938 C 0.11523 0.72501 0.59588 0.0
C2939 C 0.10681 0.71444 0.63418 0.0
C2940 C 0.10796 0.71388 0.71374 0.0
C2941 C 0.11743 0.7238 0.75419 0.0
C2942 C 0.12556 0.73458 0.71436 0.0
H2943 H 0.25382 0.3888 0.68377 0.0
H2944 H 0.28735 0.39061 0.76092 0.0
H2945 H 0.29221 0.38815 0.62739 0.0
H2946 H 0.24635 0.36593 0.54204 0.0
H2947 H 0.24037 0.3723 0.47358 0.0
H2948 H 0.23978 0.37493 0.57468 0.0
H2949 H 0.25144 0.3983 0.55115 0.0
H2950 H 0.25205 0.39574 0.44985 0.0
H2951 H 0.26595 0.40528 0.5022 0.0
H2952 H 0.29311 0.38465 0.48758 0.0
H2953 H 0.28992 0.38003 0.34936 0.0
H2954 H 0.25586 0.3805 0.35924 0.0
C2955 C 0.26229 0.3889 0.6724 0.0
C2956 C 0.27022 0.38992 0.73319 0.0
C2957 C 0.28108 0.38973 0.71577 0.0
C2958 C 0.28396 0.38841 0.63992 0.0
C2959 C 0.2759 0.38731 0.58166 0.0
C2960 C 0.26529 0.38755 0.59674 0.0
C2961 C 0.25799 0.38565 0.5235 0.0
C2962 C 0.24538 0.37401 0.52879 0.0
C2963 C 0.25679 0.39692 0.50563 0.0
C2964 C 0.26611 0.38419 0.46514 0.0
C2965 C 0.27641 0.38524 0.50023 0.0
C2966 C 0.2851 0.38384 0.45944 0.0
C2967 C 0.28317 0.38114 0.38096 0.0
C2968 C 0.27262 0.37984 0.3435 0.0
C2969 C 0.26407 0.38158 0.38617 0.0
H2970 H 0.7814 0.73731 0.06875 0.0
H2971 H 0.78595 0.70762 0.15684 0.0
H2972 H 0.78619 0.70091 0.02551 0.0
H2973 H 0.76249 0.72074 0.89999 0.0
H2974 H 0.76983 0.73404 0.83912 0.0
H2975 H 0.76845 0.73578 0.94075 0.0
H2976 H 0.79188 0.75015 0.95027 0.0
H2977 H 0.79332 0.74846 0.84886 0.0
H2978 H 0.80195 0.74491 0.91607 0.0
H2979 H 0.78848 0.69871 0.88602 0.0
H2980 H 0.79236 0.70115 0.74626 0.0
H2981 H 0.78623 0.73193 0.74499 0.0
C2982 C 0.78232 0.72932 0.06081 0.0
C2983 C 0.78359 0.72303 0.12446 0.0
C2984 C 0.78474 0.71258 0.11038 0.0
C2985 C 0.78494 0.70867 0.03542 0.0
C2986 C 0.7839 0.71521 0.97446 0.0
C2987 C 0.78255 0.72528 0.98608 0.0
C2988 C 0.78246 0.73115 0.91011 0.0
C2989 C 0.77007 0.73038 0.89672 0.0
C2990 C 0.79303 0.74445 0.90612 0.0
C2991 C 0.78436 0.72302 0.85432 0.0
C2992 C 0.78506 0.71382 0.89289 0.0
C2993 C 0.78773 0.70572 0.85501 0.0
C2994 C 0.78994 0.70718 0.77587 0.0
C2995 C 0.78942 0.7166 0.73523 0.0
C2996 C 0.78635 0.72447 0.7747 0.0
H2997 H 0.27942 0.07136 0.94662 0.0
H2998 H 0.25268 0.03351 0.98944 0.0
H2999 H 0.25309 0.02873 0.85122 0.0
H3000 H 0.26902 0.07424 0.76174 0.0
H3001 H 0.28413 0.08369 0.72293 0.0
H3002 H 0.28152 0.08396 0.82433 0.0
H3003 H 0.29832 0.07848 0.85352 0.0
H3004 H 0.30103 0.07821 0.75221 0.0
H3005 H 0.29735 0.06504 0.81066 0.0
H3006 H 0.25565 0.02867 0.70538 0.0
H3007 H 0.2619 0.03279 0.56834 0.0
H3008 H 0.28814 0.07033 0.62518 0.0
C3009 C 0.2737 0.06209 0.9264 0.0
C3010 C 0.26593 0.05278 0.97744 0.0
C3011 C 0.25864 0.04069 0.95032 0.0
C3012 C 0.25881 0.03795 0.87223 0.0
C3013 C 0.26652 0.04738 0.82277 0.0
C3014 C 0.27398 0.05917 0.84922 0.0
C3015 C 0.28175 0.06758 0.78533 0.0
C3016 C 0.27893 0.07798 0.77286 0.0
C3017 C 0.29542 0.07262 0.80139 0.0
C3018 C 0.27737 0.05877 0.71838 0.0
C3019 C 0.26848 0.04718 0.74068 0.0
C3020 C 0.26272 0.03768 0.6876 0.0
C3021 C 0.26625 0.04008 0.61005 0.0
C3022 C 0.27558 0.05179 0.58681 0.0
C3023 C 0.28114 0.06122 0.64183 0.0
H3024 H 0.93469 0.18612 0.6775 0.0
H3025 H 0.9265 0.21488 0.62994 0.0
H3026 H 0.93038 0.22128 0.76702 0.0
H3027 H 0.92126 0.17776 0.86202 0.0
H3028 H 0.933 0.17522 0.90131 0.0
H3029 H 0.9297 0.17319 0.80011 0.0
H3030 H 0.95241 0.18863 0.76956 0.0
H3031 H 0.9558 0.19068 0.87073 0.0
H3032 H 0.95951 0.20373 0.81092 0.0
H3033 H 0.9337 0.22325 0.91343 0.0
H3034 H 0.93832 0.22208 0.05093 0.0
H3035 H 0.94556 0.19284 0.99709 0.0
C3036 C 0.93373 0.19377 0.69616 0.0
C3037 C 0.93017 0.19996 0.64399 0.0
C3038 C 0.92921 0.21006 0.66958 0.0
C3039 C 0.93135 0.2137 0.74712 0.0
C3040 C 0.93469 0.20726 0.79757 0.0
C3041 C 0.93607 0.19764 0.77253 0.0
C3042 C 0.93997 0.19233 0.83705 0.0
C3043 C 0.93041 0.17883 0.85092 0.0
C3044 C 0.95268 0.19395 0.8211 0.0
C3045 C 0.94037 0.2003 0.90298 0.0
C3046 C 0.9372 0.20881 0.8796 0.0
C3047 C 0.93637 0.21674 0.93194 0.0
C3048 C 0.93894 0.21599 0.00979 0.0
C3049 C 0.94247 0.20751 0.03414 0.0
C3050 C 0.94317 0.1996 0.97975 0.0
H3051 H 0.05732 0.44631 0.59567 0.0
H3052 H 0.08289 0.48534 0.59904 0.0
H3053 H 0.08015 0.48568 0.73873 0.0
H3054 H 0.03674 0.4464 0.74707 0.0
H3055 H 0.03405 0.43213 0.78751 0.0
H3056 H 0.03722 0.43508 0.68646 0.0
H3057 H 0.05518 0.43087 0.69962 0.0
H3058 H 0.05216 0.42802 0.80074 0.0
H3059 H 0.06714 0.43945 0.76841 0.0
H3060 H 0.07591 0.48178 0.87766 0.0
H3061 H 0.07067 0.47395 0.00867 0.0
H3062 H 0.0473 0.43729 0.91913 0.0
C3063 C 0.06216 0.45495 0.62574 0.0
C3064 C 0.07038 0.4658 0.58632 0.0
C3065 C 0.0767 0.47689 0.62796 0.0
C3066 C 0.07512 0.4772 0.70732 0.0
C3067 C 0.06715 0.46634 0.74464 0.0
C3068 C 0.06073 0.45541 0.70549 0.0
C3069 C 0.05325 0.44498 0.7607 0.0
C3070 C 0.0395 0.43932 0.74447 0.0
C3071 C 0.05717 0.43526 0.75714 0.0
C3072 C 0.05674 0.45175 0.83697 0.0
C3073 C 0.06466 0.46407 0.82591 0.0
C3074 C 0.06958 0.47217 0.88716 0.0
C3075 C 0.06646 0.46757 0.96195 0.0
C3076 C 0.05847 0.45492 0.97568 0.0
C3077 C 0.05346 0.44697 0.91158 0.0
H3078 H 0.54947 0.59704 0.65287 0.0
H3079 H 0.53009 0.61732 0.66002 0.0
H3080 H 0.53127 0.61785 0.80107 0.0
H3081 H 0.53548 0.57867 0.81845 0.0
H3082 H 0.54914 0.57905 0.85256 0.0
H3083 H 0.54716 0.5805 0.75145 0.0
H3084 H 0.56768 0.6009 0.74769 0.0
H3085 H 0.56978 0.59951 0.84874 0.0
H3086 H 0.57013 0.61305 0.81252 0.0
H3087 H 0.53388 0.61572 0.94111 0.0
H3088 H 0.5384 0.61165 0.07176 0.0
H3089 H 0.55634 0.59293 0.97685 0.0
C3090 C 0.54562 0.60174 0.68395 0.0
C3091 C 0.5396 0.60707 0.64478 0.0
C3092 C 0.53457 0.61299 0.68823 0.0
C3093 C 0.53525 0.6134 0.76858 0.0
C3094 C 0.54106 0.60791 0.80529 0.0
C3095 C 0.54623 0.60225 0.7646 0.0
C3096 C 0.5518 0.59691 0.81877 0.0
C3097 C 0.54551 0.58295 0.80975 0.0
C3098 C 0.56567 0.60296 0.80618 0.0
C3099 C 0.54887 0.60043 0.8961 0.0
C3100 C 0.54265 0.60675 0.88671 0.0
C3101 C 0.53875 0.61078 0.94925 0.0
C3102 C 0.54127 0.60832 0.02345 0.0
C3103 C 0.54766 0.60188 0.03503 0.0
C3104 C 0.55152 0.59794 0.97006 0.0
H3105 H 0.40652 0.97699 0.85269 0.0
H3106 H 0.41026 0.94705 0.94348 0.0
H3107 H 0.41156 0.9407 0.81158 0.0
H3108 H 0.38707 0.96095 0.7056 0.0
H3109 H 0.39316 0.97278 0.63418 0.0
H3110 H 0.39466 0.97678 0.73424 0.0
H3111 H 0.41774 0.98995 0.72248 0.0
H3112 H 0.41773 0.98635 0.62229 0.0
H3113 H 0.42674 0.98341 0.68917 0.0
H3114 H 0.4103 0.93636 0.66968 0.0
H3115 H 0.40695 0.93457 0.52974 0.0
H3116 H 0.40364 0.96711 0.53066 0.0
C3117 C 0.40777 0.96919 0.84498 0.0
C3118 C 0.40832 0.96256 0.90883 0.0
C3119 C 0.41001 0.95242 0.89594 0.0
C3120 C 0.4107 0.9487 0.82101 0.0
C3121 C 0.40979 0.95526 0.75947 0.0
C3122 C 0.40847 0.96535 0.77073 0.0
C3123 C 0.40704 0.97042 0.69512 0.0
C3124 C 0.39477 0.97024 0.69211 0.0
C3125 C 0.41794 0.98331 0.68158 0.0
C3126 C 0.40726 0.96133 0.63942 0.0
C3127 C 0.40902 0.95274 0.67772 0.0
C3128 C 0.40901 0.94309 0.63912 0.0
C3129 C 0.407 0.9421 0.55959 0.0
C3130 C 0.40496 0.95066 0.5191 0.0
C3131 C 0.40532 0.96052 0.55972 0.0
H3132 H 0.55063 0.94312 0.63634 0.0
H3133 H 0.51513 0.94039 0.62343 0.0
H3134 H 0.51599 0.94475 0.76255 0.0
H3135 H 0.54491 0.92754 0.8163 0.0
H3136 H 0.56033 0.93657 0.85141 0.0
H3137 H 0.55751 0.93435 0.74972 0.0
H3138 H 0.56876 0.95804 0.72752 0.0
H3139 H 0.57204 0.95979 0.82893 0.0
H3140 H 0.5644 0.96706 0.78569 0.0
H3141 H 0.52073 0.94941 0.90234 0.0
H3142 H 0.52829 0.95265 0.03537 0.0
H3143 H 0.56 0.95061 0.95959 0.0
C3144 C 0.54316 0.94361 0.66306 0.0
C3145 C 0.53284 0.94152 0.61975 0.0
C3146 C 0.52306 0.94195 0.6562 0.0
C3147 C 0.52351 0.94448 0.73485 0.0
C3148 C 0.53374 0.94637 0.77635 0.0
C3149 C 0.54335 0.94586 0.74201 0.0
C3150 C 0.55282 0.94731 0.80097 0.0
C3151 C 0.55395 0.93575 0.80481 0.0
C3152 C 0.56524 0.95873 0.78466 0.0
C3153 C 0.5471 0.94888 0.87341 0.0
C3154 C 0.53616 0.94841 0.85782 0.0
C3155 C 0.52926 0.94972 0.91537 0.0
C3156 C 0.53361 0.95149 0.99103 0.0
C3157 C 0.54473 0.95181 0.00889 0.0
C3158 C 0.55154 0.95054 0.94864 0.0
H3159 H 0.03736 0.59063 0.94614 0.0
H3160 H 0.07381 0.61523 0.03545 0.0
H3161 H 0.08155 0.62045 0.90451 0.0
H3162 H 0.0461 0.57902 0.79071 0.0
H3163 H 0.03494 0.57867 0.72465 0.0
H3164 H 0.03191 0.57728 0.82617 0.0
H3165 H 0.02813 0.59551 0.8195 0.0
H3166 H 0.03158 0.59747 0.71833 0.0
H3167 H 0.03993 0.61003 0.78324 0.0
H3168 H 0.08596 0.62195 0.76491 0.0
H3169 H 0.08648 0.61983 0.62438 0.0
H3170 H 0.04734 0.59492 0.62267 0.0
C3171 C 0.04695 0.59718 0.93902 0.0
C3172 C 0.05488 0.60234 1.00305 0.0
C3173 C 0.0674 0.61094 0.98907 0.0
C3174 C 0.07195 0.61406 0.91421 0.0
C3175 C 0.06393 0.60868 0.85314 0.0
C3176 C 0.05168 0.60049 0.86445 0.0
C3177 C 0.04509 0.59585 0.78827 0.0
C3178 C 0.03917 0.58188 0.78212 0.0
C3179 C 0.03562 0.59995 0.77669 0.0
C3180 C 0.05569 0.60233 0.7327 0.0
C3181 C 0.06644 0.60978 0.7716 0.0
C3182 C 0.07759 0.61625 0.7337 0.0
C3183 C 0.07781 0.61494 0.65401 0.0
C3184 C 0.06697 0.60724 0.61281 0.0
C3185 C 0.05572 0.60102 0.65265 0.0
H3186 H 0.39692 0.46722 0.9622 0.0
H3187 H 0.40567 0.43872 1.00459 0.0
H3188 H 0.40187 0.43273 0.86675 0.0
H3189 H 0.37231 0.44996 0.82714 0.0
H3190 H 0.37598 0.46321 0.76948 0.0
H3191 H 0.37924 0.46489 0.87084 0.0
H3192 H 0.40195 0.4806 0.84204 0.0
H3193 H 0.39877 0.47894 0.74066 0.0
H3194 H 0.41055 0.47638 0.77903 0.0
H3195 H 0.39851 0.43117 0.72026 0.0
H3196 H 0.39391 0.43278 0.58336 0.0
H3197 H 0.38646 0.46169 0.64249 0.0
C3198 C 0.39802 0.45971 0.94231 0.0
C3199 C 0.40171 0.45349 0.99317 0.0
C3200 C 0.40285 0.44356 0.96595 0.0
C3201 C 0.40075 0.44016 0.88799 0.0
C3202 C 0.39731 0.44666 0.83886 0.0
C3203 C 0.39576 0.45611 0.86556 0.0
C3204 C 0.39186 0.4616 0.80223 0.0
C3205 C 0.37909 0.4598 0.8184 0.0
C3206 C 0.40135 0.47518 0.7903 0.0
C3207 C 0.39162 0.45393 0.73503 0.0
C3208 C 0.39487 0.4454 0.75676 0.0
C3209 C 0.39581 0.43771 0.70306 0.0
C3210 C 0.39327 0.43872 0.62559 0.0
C3211 C 0.38973 0.44726 0.60292 0.0
C3212 C 0.3889 0.45491 0.65859 0.0
H3213 H 0.27138 0.2064 0.11263 0.0
H3214 H 0.24767 0.16702 0.11232 0.0
H3215 H 0.25022 0.16664 0.97233 0.0
H3216 H 0.26047 0.21196 0.93619 0.0
H3217 H 0.27522 0.22398 0.9047 0.0
H3218 H 0.272 0.2212 0.00573 0.0
H3219 H 0.29091 0.21852 0.02272 0.0
H3220 H 0.29421 0.22138 0.92179 0.0
H3221 H 0.29237 0.20755 0.96429 0.0
H3222 H 0.25529 0.17037 0.83328 0.0
H3223 H 0.26176 0.17796 0.70235 0.0
H3224 H 0.28158 0.21519 0.7895 0.0
C3225 C 0.26682 0.1977 0.08308 0.0
C3226 C 0.25927 0.18673 0.12357 0.0
C3227 C 0.25334 0.17555 0.08262 0.0
C3228 C 0.25481 0.17523 1.00308 0.0
C3229 C 0.26222 0.18618 0.96488 0.0
C3230 C 0.26811 0.19723 1.00323 0.0
C3231 C 0.27522 0.20769 0.94754 0.0
C3232 C 0.27044 0.21674 0.94861 0.0
C3233 C 0.289 0.21417 0.96513 0.0
C3234 C 0.2723 0.20077 0.87196 0.0
C3235 C 0.26489 0.18838 0.88368 0.0
C3236 C 0.26101 0.18007 0.82322 0.0
C3237 C 0.26468 0.18454 0.74856 0.0
C3238 C 0.27206 0.19726 0.73411 0.0
C3239 C 0.27597 0.20543 0.79745 0.0
H3240 H 0.79068 0.07158 0.03248 0.0
H3241 H 0.75742 0.03638 0.0276 0.0
H3242 H 0.75585 0.0383 0.88732 0.0
H3243 H 0.78234 0.08638 0.87867 0.0
H3244 H 0.79757 0.09423 0.83932 0.0
H3245 H 0.79534 0.09078 0.94045 0.0
H3246 H 0.80761 0.07944 0.93006 0.0
H3247 H 0.80984 0.08281 0.82901 0.0
H3248 H 0.80293 0.06721 0.86149 0.0
H3249 H 0.75848 0.0434 0.74734 0.0
H3250 H 0.76558 0.05071 0.61653 0.0
H3251 H 0.79766 0.08248 0.70915 0.0
C3252 C 0.78293 0.06445 1.00185 0.0
C3253 C 0.77407 0.05388 0.04075 0.0
C3254 C 0.76425 0.04455 0.99869 0.0
C3255 C 0.76327 0.04559 0.91917 0.0
C3256 C 0.77225 0.05601 0.88214 0.0
C3257 C 0.78193 0.06527 0.9219 0.0
C3258 C 0.79085 0.075 0.86708 0.0
C3259 C 0.79156 0.08733 0.8823 0.0
C3260 C 0.80356 0.07618 0.87223 0.0
C3261 C 0.78477 0.06966 0.79043 0.0
C3262 C 0.77397 0.05879 0.80068 0.0
C3263 C 0.76688 0.05197 0.73865 0.0
C3264 C 0.771 0.05625 0.66411 0.0
C3265 C 0.78224 0.06722 0.65153 0.0
C3266 C 0.78908 0.07405 0.71618 0.0
H3267 H 0.93472 0.71708 0.03936 0.0
H3268 H 0.93797 0.75291 0.03995 0.0
H3269 H 0.93424 0.75141 0.9005 0.0
H3270 H 0.95022 0.72046 0.86468 0.0
H3271 H 0.9405 0.70481 0.83539 0.0
H3272 H 0.94253 0.70873 0.93567 0.0
H3273 H 0.91828 0.69863 0.94868 0.0
H3274 H 0.91728 0.69486 0.84814 0.0
H3275 H 0.9106 0.70359 0.88376 0.0
H3276 H 0.93193 0.74686 0.75924 0.0
H3277 H 0.93172 0.73977 0.62711 0.0
H3278 H 0.92955 0.7067 0.71692 0.0
C3279 C 0.93437 0.72447 0.01032 0.0
C3280 C 0.93671 0.73514 0.05072 0.0
C3281 C 0.93639 0.74472 0.01028 0.0
C3282 C 0.93417 0.74391 0.93104 0.0
C3283 C 0.93218 0.73342 0.8926 0.0
C3284 C 0.9322 0.72383 0.93083 0.0
C3285 C 0.9306 0.71393 0.8749 0.0
C3286 C 0.9416 0.71186 0.87787 0.0
C3287 C 0.91849 0.70204 0.88974 0.0
C3288 C 0.93015 0.71966 0.79935 0.0
C3289 C 0.93087 0.73081 0.81089 0.0
C3290 C 0.93119 0.73806 0.74955 0.0
C3291 C 0.93099 0.73391 0.67446 0.0
C3292 C 0.93058 0.72264 0.66111 0.0
C3293 C 0.92991 0.71537 0.72487 0.0
H3294 H 0.44896 0.05102 0.38065 0.0
H3295 H 0.47095 0.09057 0.37894 0.0
H3296 H 0.46836 0.09065 0.23867 0.0
H3297 H 0.46089 0.04627 0.20614 0.0
H3298 H 0.44656 0.03363 0.17395 0.0
H3299 H 0.44947 0.03662 0.27509 0.0
H3300 H 0.42979 0.03792 0.28947 0.0
H3301 H 0.42674 0.03479 0.18843 0.0
H3302 H 0.42756 0.04828 0.22961 0.0
H3303 H 0.46375 0.08662 0.09964 0.0
H3304 H 0.45813 0.07877 0.96832 0.0
H3305 H 0.43976 0.04158 0.05614 0.0
C3306 C 0.4531 0.05968 0.35067 0.0
C3307 C 0.46018 0.07081 0.39073 0.0
C3308 C 0.46561 0.08195 0.34938 0.0
C3309 C 0.46412 0.08209 0.26976 0.0
C3310 C 0.45722 0.071 0.23187 0.0
C3311 C 0.45182 0.05998 0.27062 0.0
C3312 C 0.44533 0.04936 0.21501 0.0
C3313 C 0.4509 0.04098 0.21772 0.0
C3314 C 0.43153 0.04216 0.23158 0.0
C3315 C 0.44802 0.05616 0.13903 0.0
C3316 C 0.4548 0.06863 0.15054 0.0
C3317 C 0.4585 0.07687 0.08976 0.0
C3318 C 0.45533 0.07227 0.01496 0.0
C3319 C 0.44861 0.05951 1.00079 0.0
C3320 C 0.44483 0.05138 0.06433 0.0
H3321 H 0.95617 0.40725 0.42532 0.0
H3322 H 0.93207 0.36795 0.42757 0.0
H3323 H 0.9345 0.36728 0.28756 0.0
H3324 H 0.94491 0.41244 0.2489 0.0
H3325 H 0.95959 0.42441 0.216 0.0
H3326 H 0.95657 0.42184 0.31735 0.0
H3327 H 0.97549 0.41913 0.33394 0.0
H3328 H 0.97863 0.42197 0.23281 0.0
H3329 H 0.9769 0.40817 0.27484 0.0
H3330 H 0.93921 0.37074 0.14765 0.0
H3331 H 0.94551 0.3782 0.01578 0.0
H3332 H 0.96601 0.41545 0.101 0.0
C3333 C 0.95153 0.39851 0.39629 0.0
C3334 C 0.94388 0.38765 0.43741 0.0
C3335 C 0.93783 0.3764 0.39723 0.0
C3336 C 0.93923 0.37591 0.31773 0.0
C3337 C 0.94667 0.38677 0.27874 0.0
C3338 C 0.95271 0.39788 0.3164 0.0
C3339 C 0.95972 0.40823 0.25983 0.0
C3340 C 0.95491 0.41726 0.26058 0.0
C3341 C 0.97351 0.41476 0.27639 0.0
C3342 C 0.95668 0.40118 0.18477 0.0
C3343 C 0.94918 0.38881 0.19725 0.0
C3344 C 0.94505 0.38042 0.13712 0.0
C3345 C 0.94861 0.38478 0.06211 0.0
C3346 C 0.95618 0.39745 0.04728 0.0
C3347 C 0.96031 0.40571 0.10999 0.0
H3348 H 0.59469 0.55189 0.14746 0.0
H3349 H 0.5938 0.51946 0.057 0.0
H3350 H 0.59315 0.51208 0.18894 0.0
H3351 H 0.61462 0.55698 0.29631 0.0
H3352 H 0.60751 0.56187 0.3663 0.0
H3353 H 0.60596 0.56403 0.26576 0.0
H3354 H 0.58272 0.55241 0.27727 0.0
H3355 H 0.58312 0.54911 0.37759 0.0
H3356 H 0.57482 0.53683 0.31123 0.0
H3357 H 0.59472 0.50928 0.3306 0.0
H3358 H 0.59801 0.51102 0.47054 0.0
H3359 H 0.59826 0.54548 0.46956 0.0
C3360 C 0.59422 0.54317 0.15528 0.0
C3361 C 0.59427 0.53626 0.09152 0.0
C3362 C 0.59357 0.52485 0.10449 0.0
C3363 C 0.59327 0.5206 0.17943 0.0
C3364 C 0.59355 0.52781 0.24087 0.0
C3365 C 0.59391 0.5388 0.22955 0.0
C3366 C 0.59475 0.54509 0.30516 0.0
C3367 C 0.60639 0.55774 0.30857 0.0
C3368 C 0.58317 0.54593 0.31847 0.0
C3369 C 0.59537 0.53621 0.36086 0.0
C3370 C 0.59448 0.52621 0.32258 0.0
C3371 C 0.59534 0.51702 0.36116 0.0
C3372 C 0.59731 0.51815 0.44069 0.0
C3373 C 0.59849 0.52843 0.48116 0.0
C3374 C 0.59728 0.53746 0.44053 0.0
H3375 H 0.71459 0.77451 0.2851 0.0
H3376 H 0.72621 0.81127 0.36571 0.0
H3377 H 0.73089 0.81885 0.23322 0.0
H3378 H 0.73682 0.78248 0.14098 0.0
H3379 H 0.72678 0.77131 0.07212 0.0
H3380 H 0.72374 0.76849 0.17325 0.0
H3381 H 0.70201 0.7653 0.15335 0.0
H3382 H 0.70496 0.76806 0.05197 0.0
H3383 H 0.70021 0.77706 0.10691 0.0
H3384 H 0.7359 0.82287 0.09474 0.0
H3385 H 0.73973 0.82279 0.95571 0.0
H3386 H 0.72375 0.78343 0.96129 0.0
C3387 C 0.71792 0.78411 0.27494 0.0
C3388 C 0.7202 0.79229 0.33657 0.0
C3389 C 0.72467 0.80483 0.32024 0.0
C3390 C 0.72726 0.80923 0.24488 0.0
C3391 C 0.72516 0.80099 0.18594 0.0
C3392 C 0.72045 0.78867 0.1997 0.0
C3393 C 0.71927 0.78184 0.1256 0.0
C3394 C 0.72712 0.77567 0.12818 0.0
C3395 C 0.70581 0.77251 0.10846 0.0
C3396 C 0.72431 0.7923 0.06854 0.0
C3397 C 0.72765 0.80326 0.10482 0.0
C3398 C 0.73318 0.81433 0.06542 0.0
C3399 C 0.73538 0.81422 0.98676 0.0
C3400 C 0.73198 0.80311 0.9482 0.0
C3401 C 0.72625 0.792 0.98949 0.0
H3402 H 0.20858 0.95198 0.34194 0.0
H3403 H 0.19573 0.91318 0.33958 0.0
H3404 H 0.19945 0.91404 0.1996 0.0
H3405 H 0.19397 0.95213 0.17211 0.0
H3406 H 0.20582 0.96676 0.13767 0.0
H3407 H 0.20412 0.96364 0.23909 0.0
H3408 H 0.22662 0.96885 0.24815 0.0
H3409 H 0.22849 0.97208 0.14668 0.0
H3410 H 0.23203 0.96106 0.18677 0.0
H3411 H 0.20268 0.91859 0.06021 0.0
H3412 H 0.20438 0.92614 0.92879 0.0
H3413 H 0.21478 0.96224 0.01725 0.0
C3414 C 0.20696 0.9438 0.31185 0.0
C3415 C 0.20212 0.93253 0.35112 0.0
C3416 C 0.1996 0.92187 0.31012 0.0
C3417 C 0.2017 0.92231 0.23087 0.0
C3418 C 0.20622 0.93348 0.19319 0.0
C3419 C 0.20881 0.94405 0.23208 0.0
C3420 C 0.21242 0.95457 0.1763 0.0
C3421 C 0.20355 0.95956 0.18163 0.0
C3422 C 0.22568 0.96474 0.19032 0.0
C3423 C 0.21114 0.94815 0.10007 0.0
C3424 C 0.20775 0.93605 0.11155 0.0
C3425 C 0.20549 0.9281 0.05042 0.0
C3426 C 0.20656 0.93254 0.97542 0.0
C3427 C 0.20979 0.94487 0.96138 0.0
C3428 C 0.21226 0.95278 0.02522 0.0
H3429 H 0.04597 0.28071 0.27568 0.0
H3430 H 0.08328 0.29246 0.34351 0.0
H3431 H 0.08849 0.29109 0.20873 0.0
H3432 H 0.04344 0.25884 0.13801 0.0
H3433 H 0.03432 0.26181 0.07132 0.0
H3434 H 0.03368 0.26443 0.17237 0.0
H3435 H 0.0391 0.28648 0.14294 0.0
H3436 H 0.04046 0.2845 0.0416 0.0
H3437 H 0.05307 0.29658 0.09347 0.0
H3438 H 0.08939 0.28717 0.06935 0.0
H3439 H 0.08596 0.28121 0.93234 0.0
H3440 H 0.04828 0.27246 0.95208 0.0
C3441 C 0.05528 0.28321 0.2619 0.0
C3442 C 0.06423 0.28671 0.32021 0.0
C3443 C 0.07626 0.28966 0.29999 0.0
C3444 C 0.07932 0.28897 0.22354 0.0
C3445 C 0.07026 0.28533 0.16772 0.0
C3446 C 0.05848 0.28251 0.18573 0.0
C3447 C 0.05035 0.27829 0.11509 0.0
C3448 C 0.03983 0.26506 0.12481 0.0
C3449 C 0.04546 0.28698 0.09714 0.0
C3450 C 0.05938 0.27911 0.0547 0.0
C3451 C 0.07081 0.28319 0.08655 0.0
C3452 C 0.08052 0.28408 0.0436 0.0
C3453 C 0.07849 0.28062 0.9662 0.0
C3454 C 0.0669 0.27643 0.93233 0.0
C3455 C 0.05725 0.27577 0.9769 0.0
H3456 H 0.22156 0.28314 0.22487 0.0
H3457 H 0.19212 0.2491 0.31511 0.0
H3458 H 0.1854 0.24165 0.18331 0.0
H3459 H 0.20476 0.28597 0.07237 0.0
H3460 H 0.21682 0.29181 1.00236 0.0
H3461 H 0.22049 0.29469 0.10283 0.0
H3462 H 0.23425 0.28529 0.09589 0.0
H3463 H 0.23112 0.28185 0.99524 0.0
H3464 H 0.22824 0.26986 0.0618 0.0
H3465 H 0.18172 0.23794 0.04338 0.0
H3466 H 0.18038 0.23851 0.90311 0.0
H3467 H 0.21172 0.27529 0.90055 0.0
C3468 C 0.21377 0.27409 0.2166 0.0
C3469 C 0.20732 0.26672 0.28015 0.0
C3470 C 0.19708 0.25497 0.26733 0.0
C3471 C 0.19326 0.25062 0.19267 0.0
C3472 C 0.19976 0.25813 0.13132 0.0
C3473 C 0.20975 0.26964 0.14224 0.0
C3474 C 0.2148 0.27599 0.06606 0.0
C3475 C 0.21419 0.28782 0.06066 0.0
C3476 C 0.22788 0.27841 0.05406 0.0
C3477 C 0.20592 0.26636 0.01068 0.0
C3478 C 0.19745 0.25608 0.04985 0.0
C3479 C 0.18826 0.24597 0.01204 0.0
C3480 C 0.18752 0.24644 0.93211 0.0
C3481 C 0.19581 0.25702 0.89031 0.0
C3482 C 0.20527 0.26704 0.93044 0.0
H3483 H 0.70962 0.95207 0.24841 0.0
H3484 H 0.70887 0.9192 0.32933 0.0
H3485 H 0.70937 0.91311 0.19606 0.0
H3486 H 0.69037 0.93766 0.07437 0.0
H3487 H 0.69904 0.95123 0.01735 0.0
H3488 H 0.69741 0.95251 0.11923 0.0
H3489 H 0.72099 0.96498 0.13345 0.0
H3490 H 0.72268 0.96371 0.0319 0.0
H3491 H 0.73005 0.95859 0.09891 0.0
H3492 H 0.71247 0.91175 0.05727 0.0
H3493 H 0.71723 0.91492 0.91862 0.0
H3494 H 0.71471 0.94784 0.92444 0.0
C3495 C 0.70927 0.94347 0.23801 0.0
C3496 C 0.70937 0.93621 0.29952 0.0
C3497 C 0.7091 0.92508 0.28344 0.0
C3498 C 0.70922 0.92145 0.20781 0.0
C3499 C 0.70942 0.92893 0.14867 0.0
C3500 C 0.7093 0.93964 0.16258 0.0
C3501 C 0.71025 0.94633 0.08836 0.0
C3502 C 0.69857 0.94697 0.074 0.0
C3503 C 0.72167 0.95916 0.08818 0.0
C3504 C 0.71141 0.93795 0.0311 0.0
C3505 C 0.7108 0.92791 0.06727 0.0
C3506 C 0.7127 0.91941 0.02793 0.0
C3507 C 0.71545 0.9213 0.94962 0.0
C3508 C 0.71618 0.93152 0.91163 0.0
C3509 C 0.7139 0.93982 0.95241 0.0
H3510 H 0.0667 0.78806 0.04407 0.0
H3511 H 0.03414 0.79122 0.04792 0.0
H3512 H 0.03276 0.78833 0.18901 0.0
H3513 H 0.05835 0.76574 0.20319 0.0
H3514 H 0.0737 0.77307 0.24084 0.0
H3515 H 0.0712 0.77377 0.13956 0.0
H3516 H 0.08394 0.79739 0.14478 0.0
H3517 H 0.08638 0.79678 0.24611 0.0
H3518 H 0.07968 0.80555 0.21135 0.0
H3519 H 0.03537 0.78596 0.32909 0.0
H3520 H 0.04218 0.78546 0.45971 0.0
H3521 H 0.07428 0.78557 0.36814 0.0
C3522 C 0.05912 0.78779 0.07481 0.0
C3523 C 0.05035 0.78959 0.03551 0.0
C3524 C 0.04081 0.78968 0.07734 0.0
C3525 C 0.03997 0.78805 0.15724 0.0
C3526 C 0.04887 0.78651 0.19471 0.0
C3527 C 0.05831 0.78643 0.15509 0.0
C3528 C 0.06726 0.78572 0.21025 0.0
C3529 C 0.06765 0.77387 0.19771 0.0
C3530 C 0.08007 0.79703 0.20266 0.0
C3531 C 0.06145 0.78556 0.28695 0.0
C3532 C 0.05076 0.78583 0.27635 0.0
C3533 C 0.04377 0.78581 0.33811 0.0
C3534 C 0.04783 0.78563 0.41275 0.0
C3535 C 0.05897 0.78568 0.42601 0.0
C3536 C 0.06576 0.78553 0.36138 0.0
H3537 H 0.95237 0.5494 0.03886 0.0
H3538 H 0.91538 0.53272 0.9496 0.0
H3539 H 0.90729 0.52793 0.08145 0.0
H3540 H 0.94612 0.52807 0.18915 0.0
H3541 H 0.95638 0.53921 0.25736 0.0
H3542 H 0.95937 0.54184 0.15605 0.0
H3543 H 0.95989 0.56253 0.16837 0.0
H3544 H 0.95691 0.55996 0.26982 0.0
H3545 H 0.94702 0.56291 0.20999 0.0
H3546 H 0.90311 0.52423 0.22192 0.0
H3547 H 0.90307 0.52176 0.3623 0.0
H3548 H 0.94272 0.54102 0.36276 0.0
C3549 C 0.94258 0.5449 0.04704 0.0
C3550 C 0.93452 0.54141 0.98339 0.0
C3551 C 0.92175 0.53534 0.99689 0.0
C3552 C 0.91706 0.53266 0.07179 0.0
C3553 C 0.92524 0.53613 0.13296 0.0
C3554 C 0.93773 0.54215 0.1216 0.0
C3555 C 0.94448 0.54451 0.19749 0.0
C3556 C 0.95203 0.53802 0.20014 0.0
C3557 C 0.95255 0.5583 0.21227 0.0
C3558 C 0.93382 0.53876 0.25314 0.0
C3559 C 0.92282 0.53403 0.21451 0.0
C3560 C 0.91167 0.52793 0.25281 0.0
C3561 C 0.91174 0.52652 0.33256 0.0
C3562 C 0.92288 0.53116 0.37363 0.0
C3563 C 0.93407 0.5375 0.33317 0.0
H3564 H 0.43374 0.38483 0.03516 0.0
H3565 H 0.47138 0.40327 0.95517 0.0
H3566 H 0.47839 0.40383 0.08737 0.0
H3567 H 0.44014 0.40215 0.2145 0.0
H3568 H 0.42889 0.38918 0.26811 0.0
H3569 H 0.42672 0.39038 0.1669 0.0
H3570 H 0.42456 0.36912 0.14453 0.0
H3571 H 0.42677 0.36786 0.24551 0.0
H3572 H 0.43656 0.36637 0.17634 0.0
H3573 H 0.48138 0.40134 0.22651 0.0
H3574 H 0.48017 0.39704 0.36547 0.0
H3575 H 0.44084 0.38137 0.35807 0.0
C3576 C 0.44347 0.38915 0.04498 0.0
C3577 C 0.45195 0.39385 0.98341 0.0
C3578 C 0.46461 0.39933 1.00016 0.0
C3579 C 0.46873 0.39979 0.0755 0.0
C3580 C 0.46012 0.39491 0.13417 0.0
C3581 C 0.44777 0.38983 0.12012 0.0
C3582 C 0.44044 0.38517 0.19384 0.0
C3583 C 0.43365 0.39214 0.21189 0.0
C3584 C 0.43156 0.37131 0.18978 0.0
C3585 C 0.45062 0.38825 0.25121 0.0
C3586 C 0.46189 0.39384 0.21534 0.0
C3587 C 0.47263 0.39707 0.25535 0.0
C3588 C 0.47184 0.39452 0.3341 0.0
C3589 C 0.46042 0.38887 0.37235 0.0
C3590 C 0.44969 0.38581 0.33031 0.0
H3591 H 0.59471 0.06654 0.45411 0.0
H3592 H 0.59157 0.033 0.54311 0.0
H3593 H 0.58929 0.02501 0.41203 0.0
H3594 H 0.57244 0.0525 0.3054 0.0
H3595 H 0.58054 0.06443 0.23575 0.0
H3596 H 0.58258 0.06796 0.33673 0.0
H3597 H 0.60596 0.07722 0.32163 0.0
H3598 H 0.60398 0.07372 0.22051 0.0
H3599 H 0.61182 0.06811 0.27986 0.0
H3600 H 0.58672 0.02024 0.27327 0.0
H3601 H 0.58369 0.01876 0.13348 0.0
H3602 H 0.5882 0.05515 0.12936 0.0
C3603 C 0.59369 0.05759 0.44572 0.0
C3604 C 0.59325 0.05039 0.50931 0.0
C3605 C 0.59175 0.03864 0.49587 0.0
C3606 C 0.59053 0.03404 0.42134 0.0
C3607 C 0.59084 0.04127 0.36019 0.0
C3608 C 0.59238 0.05279 0.37114 0.0
C3609 C 0.59192 0.05841 0.29481 0.0
C3610 C 0.58123 0.06097 0.2931 0.0
C3611 C 0.60415 0.07006 0.27824 0.0
C3612 C 0.58976 0.04819 0.23969 0.0
C3613 C 0.58925 0.03844 0.27903 0.0
C3614 C 0.58709 0.02781 0.24177 0.0
C3615 C 0.58529 0.02703 0.16222 0.0
C3616 C 0.58558 0.03678 0.12015 0.0
C3617 C 0.58801 0.04757 0.15965 0.0
loop_
_geom_bond_atom_site_label_1
_geom_bond_atom_site_label_2
_geom_bond_distance
_geom_bond_site_symmetry_2
_ccdc_geom_bond_type
C0 C1 1.351 . S
C0 N3 1.368 . S
C0 H5 0.931 . S
C1 C0 1.351 . S
C1 N2 1.373 . S
C1 H29 0.930 . S
N2 C1 1.373 . S
N2 C4 1.340 . S
N3 C0 1.368 . S
N3 C4 1.321 . S
N3 Co6 2.127 1_556 S
C4 N2 1.340 . S
C4 N3 1.321 . S
C4 H28 0.930 . S
H5 C0 0.931 . S
Co6 N3 2.127 1_554 S
Co6 N9 2.128 . S
Co6 O14 2.056 . S
Co6 O17 2.037 1_554 S
Co6 N20 2.140 1_554 S
C7 O8 1.227 . S
C7 O17 1.265 . S
O8 C7 1.227 . S
N9 Co6 2.128 . S
N9 C11 1.375 . S
N9 C12 1.313 . S
C10 C11 1.338 . S
C10 N13 1.377 . S
C10 H30 0.930 . S
C11 N9 1.375 . S
C11 C10 1.338 . S
C11 H15 0.931 . S
C12 N9 1.313 . S
C12 N13 1.344 . S
C12 H16 0.930 . S
N13 C10 1.377 . S
N13 C12 1.344 . S
O14 Co6 2.056 . S
O14 C18 1.253 . S
H15 C11 0.931 . S
H16 C12 0.930 . S
O17 Co6 2.037 1_556 S
O17 C7 1.265 . S
C18 O14 1.253 . S
C18 O19 1.227 . S
O19 C18 1.227 . S
N20 Co6 2.140 1_556 S
N20 C23 1.346 . S
N20 C24 1.345 1_556 S
C21 C22 1.387 . S
C21 C25 1.391 1_556 S
C22 C21 1.387 . S
C22 C23 1.369 . S
C22 H31 0.929 . S
C23 N20 1.346 . S
C23 C22 1.369 . S
C23 H26 0.928 . S
C24 N20 1.345 1_554 S
C24 C25 1.371 . S
C24 H27 0.931 . S
C25 C21 1.391 1_554 S
C25 C24 1.371 . S
C25 H32 0.930 . S
H26 C23 0.928 . S
H27 C24 0.931 . S
H28 C4 0.930 . S
H29 C1 0.930 . S
H30 C10 0.930 . S
H31 C22 0.929 . S
H32 C25 0.930 . S
C33 C34 1.351 . S
C33 N36 1.368 . S
C33 H38 0.931 . S
C34 C33 1.351 . S
C34 N35 1.373 . S
C34 H62 0.930 . S
N35 C34 1.373 . S
N35 C37 1.340 . S
N36 C33 1.368 . S
N36 C37 1.321 . S
N36 Co39 2.127 1_556 S
C37 N35 1.340 . S
C37 N36 1.321 . S
C37 H61 0.930 . S
H38 C33 0.931 . S
Co39 N36 2.127 1_554 S
Co39 N42 2.128 . S
Co39 O47 2.056 . S
Co39 O50 2.037 1_554 S
Co39 N53 2.140 1_554 S
C40 O41 1.227 . S
C40 O50 1.265 . S
O41 C40 1.227 . S
N42 Co39 2.128 . S
N42 C44 1.375 . S
N42 C45 1.313 . S
C43 C44 1.338 . S
C43 N46 1.377 . S
C43 H63 0.930 . S
C44 N42 1.375 . S
C44 C43 1.338 . S
C44 H48 0.931 . S
C45 N42 1.313 . S
C45 N46 1.344 . S
C45 H49 0.930 . S
N46 C43 1.377 . S
N46 C45 1.344 . S
O47 Co39 2.056 . S
O47 C51 1.253 . S
H48 C44 0.931 . S
H49 C45 0.930 . S
O50 Co39 2.037 1_556 S
O50 C40 1.265 . S
C51 O47 1.253 . S
C51 O52 1.227 . S
O52 C51 1.227 . S
N53 Co39 2.140 1_556 S
N53 C56 1.346 . S
N53 C57 1.345 1_556 S
C54 C55 1.387 . S
C54 C58 1.391 1_556 S
C55 C54 1.387 . S
C55 C56 1.369 . S
C55 H64 0.929 . S
C56 N53 1.346 . S
C56 C55 1.369 . S
C56 H59 0.928 . S
C57 N53 1.345 1_554 S
C57 C58 1.371 . S
C57 H60 0.931 . S
C58 C54 1.391 1_554 S
C58 C57 1.371 . S
C58 H65 0.930 . S
H59 C56 0.928 . S
H60 C57 0.931 . S
H61 C37 0.930 . S
H62 C34 0.930 . S
H63 C43 0.930 . S
H64 C55 0.929 . S
H65 C58 0.930 . S
C66 C67 1.351 . S
C66 N69 1.368 . S
C66 H71 0.931 . S
C67 C66 1.351 . S
C67 N68 1.373 . S
C67 H95 0.930 . S
N68 C67 1.373 . S
N68 C70 1.340 . S
N69 C66 1.368 . S
N69 C70 1.321 . S
N69 Co72 2.127 1_556 S
C70 N68 1.340 . S
C70 N69 1.321 . S
C70 H94 0.930 . S
H71 C66 0.931 . S
Co72 N69 2.127 1_554 S
Co72 N75 2.128 . S
Co72 O80 2.056 . S
Co72 O83 2.037 1_554 S
Co72 N86 2.140 1_554 S
C73 O74 1.227 . S
C73 O83 1.265 . S
O74 C73 1.227 . S
N75 Co72 2.128 . S
N75 C77 1.375 . S
N75 C78 1.313 . S
C76 C77 1.338 . S
C76 N79 1.377 . S
C76 H96 0.930 . S
C77 N75 1.375 . S
C77 C76 1.338 . S
C77 H81 0.931 . S
C78 N75 1.313 . S
C78 N79 1.344 . S
C78 H82 0.930 . S
N79 C76 1.377 . S
N79 C78 1.344 . S
O80 Co72 2.056 . S
O80 C84 1.253 . S
H81 C77 0.931 . S
H82 C78 0.930 . S
O83 Co72 2.037 1_556 S
O83 C73 1.265 . S
C84 O80 1.253 . S
C84 O85 1.227 . S
O85 C84 1.227 . S
N86 Co72 2.140 1_556 S
N86 C89 1.346 . S
N86 C90 1.345 1_556 S
C87 C88 1.387 . S
C87 C91 1.391 1_556 S
C88 C87 1.387 . S
C88 C89 1.369 . S
C88 H97 0.929 . S
C89 N86 1.346 . S
C89 C88 1.369 . S
C89 H92 0.928 . S
C90 N86 1.345 1_554 S
C90 C91 1.371 . S
C90 H93 0.931 . S
C91 C87 1.391 1_554 S
C91 C90 1.371 . S
C91 H98 0.930 . S
H92 C89 0.928 . S
H93 C90 0.931 . S
H94 C70 0.930 . S
H95 C67 0.930 . S
H96 C76 0.930 . S
H97 C88 0.929 . S
H98 C91 0.930 . S
C99 C100 1.351 . S
C99 N102 1.368 . S
C99 H104 0.931 . S
C100 C99 1.351 . S
C100 N101 1.373 . S
C100 H128 0.930 . S
N101 C100 1.373 . S
N101 C103 1.340 . S
N102 C99 1.368 . S
N102 C103 1.321 . S
N102 Co105 2.127 1_554 S
C103 N101 1.340 . S
C103 N102 1.321 . S
C103 H127 0.930 . S
H104 C99 0.931 . S
Co105 N102 2.127 1_556 S
Co105 N108 2.128 . S
Co105 O113 2.056 . S
Co105 O116 2.037 1_556 S
Co105 N119 2.140 1_556 S
C106 O107 1.227 . S
C106 O116 1.265 . S
O107 C106 1.227 . S
N108 Co105 2.128 . S
N108 C110 1.375 . S
N108 C111 1.313 . S
C109 C110 1.338 . S
C109 N112 1.377 . S
C109 H129 0.930 . S
C110 N108 1.375 . S
C110 C109 1.338 . S
C110 H114 0.931 . S
C111 N108 1.313 . S
C111 N112 1.344 . S
C111 H115 0.930 . S
N112 C109 1.377 . S
N112 C111 1.344 . S
O113 Co105 2.056 . S
O113 C117 1.253 . S
H114 C110 0.931 . S
H115 C111 0.930 . S
O116 Co105 2.037 1_554 S
O116 C106 1.265 . S
C117 O113 1.253 . S
C117 O118 1.227 . S
O118 C117 1.227 . S
N119 Co105 2.140 1_554 S
N119 C122 1.346 . S
N119 C123 1.345 1_554 S
C120 C121 1.387 . S
C120 C124 1.391 1_554 S
C121 C120 1.387 . S
C121 C122 1.369 . S
C121 H130 0.929 . S
C122 N119 1.346 . S
C122 C121 1.369 . S
C122 H125 0.928 . S
C123 N119 1.345 1_556 S
C123 C124 1.371 . S
C123 H126 0.931 . S
C124 C120 1.391 1_556 S
C124 C123 1.371 . S
C124 H131 0.930 . S
H125 C122 0.928 . S
H126 C123 0.931 . S
H127 C103 0.930 . S
H128 C100 0.930 . S
H129 C109 0.930 . S
H130 C121 0.929 . S
H131 C124 0.930 . S
C132 C133 1.351 . S
C132 N135 1.368 . S
C132 H137 0.931 . S
C133 C132 1.351 . S
C133 N134 1.373 . S
C133 H161 0.930 . S
N134 C133 1.373 . S
N134 C136 1.340 . S
N135 C132 1.368 . S
N135 C136 1.321 . S
N135 Co138 2.127 1_554 S
C136 N134 1.340 . S
C136 N135 1.321 . S
C136 H160 0.930 . S
H137 C132 0.931 . S
Co138 N135 2.127 1_556 S
Co138 N141 2.128 . S
Co138 O146 2.056 . S
Co138 O149 2.037 1_556 S
Co138 N152 2.140 1_556 S
C139 O140 1.227 . S
C139 O149 1.265 . S
O140 C139 1.227 . S
N141 Co138 2.128 . S
N141 C143 1.375 . S
N141 C144 1.313 . S
C142 C143 1.338 . S
C142 N145 1.377 . S
C142 H162 0.930 . S
C143 N141 1.375 . S
C143 C142 1.338 . S
C143 H147 0.931 . S
C144 N141 1.313 . S
C144 N145 1.344 . S
C144 H148 0.930 . S
N145 C142 1.377 . S
N145 C144 1.344 . S
O146 Co138 2.056 . S
O146 C150 1.253 . S
H147 C143 0.931 . S
H148 C144 0.930 . S
O149 Co138 2.037 1_554 S
O149 C139 1.265 . S
C150 O146 1.253 . S
C150 O151 1.227 . S
O151 C150 1.227 . S
N152 Co138 2.140 1_554 S
N152 C155 1.346 . S
N152 C156 1.345 1_554 S
C153 C154 1.387 . S
C153 C157 1.391 1_554 S
C154 C153 1.387 . S
C154 C155 1.369 . S
C154 H163 0.929 . S
C155 N152 1.346 . S
C155 C154 1.369 . S
C155 H158 0.928 . S
C156 N152 1.345 1_556 S
C156 C157 1.371 . S
C156 H159 0.931 . S
C157 C153 1.391 1_556 S
C157 C156 1.371 . S
C157 H164 0.930 . S
H158 C155 0.928 . S
H159 C156 0.931 . S
H160 C136 0.930 . S
H161 C133 0.930 . S
H162 C142 0.930 . S
H163 C154 0.929 . S
H164 C157 0.930 . S
C165 C166 1.351 . S
C165 N168 1.368 . S
C165 H170 0.931 . S
C166 C165 1.351 . S
C166 N167 1.373 . S
C166 H194 0.930 . S
N167 C166 1.373 . S
N167 C169 1.340 . S
N168 C165 1.368 . S
N168 C169 1.321 . S
N168 Co171 2.127 1_554 S
C169 N167 1.340 . S
C169 N168 1.321 . S
C169 H193 0.930 . S
H170 C165 0.931 . S
Co171 N168 2.127 1_556 S
Co171 N174 2.128 . S
Co171 O179 2.056 . S
Co171 O182 2.037 1_556 S
Co171 N185 2.140 1_556 S
C172 O173 1.227 . S
C172 O182 1.265 . S
O173 C172 1.227 . S
N174 Co171 2.128 . S
N174 C176 1.375 . S
N174 C177 1.313 . S
C175 C176 1.338 . S
C175 N178 1.377 . S
C175 H195 0.930 . S
C176 N174 1.375 . S
C176 C175 1.338 . S
C176 H180 0.931 . S
C177 N174 1.313 . S
C177 N178 1.344 . S
C177 H181 0.930 . S
N178 C175 1.377 . S
N178 C177 1.344 . S
O179 Co171 2.056 . S
O179 C183 1.253 . S
H180 C176 0.931 . S
H181 C177 0.930 . S
O182 Co171 2.037 1_554 S
O182 C172 1.265 . S
C183 O179 1.253 . S
C183 O184 1.227 . S
O184 C183 1.227 . S
N185 Co171 2.140 1_554 S
N185 C188 1.346 . S
N185 C189 1.345 1_554 S
C186 C187 1.387 . S
C186 C190 1.391 1_554 S
C187 C186 1.387 . S
C187 C188 1.369 . S
C187 H196 0.929 . S
C188 N185 1.346 . S
C188 C187 1.369 . S
C188 H191 0.928 . S
C189 N185 1.345 1_556 S
C189 C190 1.371 . S
C189 H192 0.931 . S
C190 C186 1.391 1_556 S
C190 C189 1.371 . S
C190 H197 0.930 . S
H191 C188 0.928 . S
H192 C189 0.931 . S
H193 C169 0.930 . S
H194 C166 0.930 . S
H195 C175 0.930 . S
H196 C187 0.929 . S
H197 C190 0.930 . S
C198 C199 1.351 . S
C198 N201 1.368 . S
C198 H203 0.931 . S
C199 C198 1.351 . S
C199 N200 1.373 . S
C199 H227 0.930 . S
N200 C199 1.373 . S
N200 C202 1.340 . S
N201 C198 1.368 . S
N201 C202 1.321 . S
N201 Co204 2.127 1_554 S
C202 N200 1.340 . S
C202 N201 1.321 . S
C202 H226 0.930 . S
H203 C198 0.931 . S
Co204 N201 2.127 1_556 S
Co204 N207 2.128 . S
Co204 O212 2.056 . S
Co204 O215 2.037 1_556 S
Co204 N218 2.140 1_556 S
C205 O206 1.227 . S
C205 O215 1.265 . S
O206 C205 1.227 . S
N207 Co204 2.128 . S
N207 C209 1.375 . S
N207 C210 1.313 . S
C208 C209 1.338 . S
C208 N211 1.377 . S
C208 H228 0.930 . S
C209 N207 1.375 . S
C209 C208 1.338 . S
C209 H213 0.931 . S
C210 N207 1.313 . S
C210 N211 1.344 . S
C210 H214 0.930 . S
N211 C208 1.377 . S
N211 C210 1.344 . S
O212 Co204 2.056 . S
O212 C216 1.253 . S
H213 C209 0.931 . S
H214 C210 0.930 . S
O215 Co204 2.037 1_554 S
O215 C205 1.265 . S
C216 O212 1.253 . S
C216 O217 1.227 . S
O217 C216 1.227 . S
N218 Co204 2.140 1_554 S
N218 C221 1.346 . S
N218 C222 1.345 1_554 S
C219 C220 1.387 . S
C219 C223 1.391 1_554 S
C220 C219 1.387 . S
C220 C221 1.369 . S
C220 H229 0.929 . S
C221 N218 1.346 . S
C221 C220 1.369 . S
C221 H224 0.928 . S
C222 N218 1.345 1_556 S
C222 C223 1.371 . S
C222 H225 0.931 . S
C223 C219 1.391 1_556 S
C223 C222 1.371 . S
C223 H230 0.930 . S
H224 C221 0.928 . S
H225 C222 0.931 . S
H226 C202 0.930 . S
H227 C199 0.930 . S
H228 C208 0.930 . S
H229 C220 0.929 . S
H230 C223 0.930 . S
C231 C232 1.351 . S
C231 N234 1.368 . S
C231 H236 0.931 . S
C232 C231 1.351 . S
C232 N233 1.373 . S
C232 H260 0.930 . S
N233 C232 1.373 . S
N233 C235 1.340 . S
N234 C231 1.368 . S
N234 C235 1.321 . S
N234 Co237 2.127 1_554 S
C235 N233 1.340 . S
C235 N234 1.321 . S
C235 H259 0.930 . S
H236 C231 0.931 . S
Co237 N234 2.127 1_556 S
Co237 N240 2.128 . S
Co237 O245 2.056 . S
Co237 O248 2.037 1_556 S
Co237 N251 2.140 1_556 S
C238 O239 1.227 . S
C238 O248 1.265 . S
O239 C238 1.227 . S
N240 Co237 2.128 . S
N240 C242 1.375 . S
N240 C243 1.313 . S
C241 C242 1.338 . S
C241 N244 1.377 . S
C241 H261 0.930 . S
C242 N240 1.375 . S
C242 C241 1.338 . S
C242 H246 0.931 . S
C243 N240 1.313 . S
C243 N244 1.344 . S
C243 H247 0.930 . S
N244 C241 1.377 . S
N244 C243 1.344 . S
O245 Co237 2.056 . S
O245 C249 1.253 . S
H246 C242 0.931 . S
H247 C243 0.930 . S
O248 Co237 2.037 1_554 S
O248 C238 1.265 . S
C249 O245 1.253 . S
C249 O250 1.227 . S
O250 C249 1.227 . S
N251 Co237 2.140 1_554 S
N251 C254 1.346 . S
N251 C255 1.345 1_554 S
C252 C253 1.387 . S
C252 C256 1.391 1_554 S
C253 C252 1.387 . S
C253 C254 1.369 . S
C253 H262 0.929 . S
C254 N251 1.346 . S
C254 C253 1.369 . S
C254 H257 0.928 . S
C255 N251 1.345 1_556 S
C255 C256 1.371 . S
C255 H258 0.931 . S
C256 C252 1.391 1_556 S
C256 C255 1.371 . S
C256 H263 0.930 . S
H257 C254 0.928 . S
H258 C255 0.931 . S
H259 C235 0.930 . S
H260 C232 0.930 . S
H261 C241 0.930 . S
H262 C253 0.929 . S
H263 C256 0.930 . S
C264 C265 1.351 . S
C264 N267 1.368 . S
C264 H269 0.931 . S
C265 C264 1.351 . S
C265 N266 1.373 . S
C265 H293 0.930 . S
N266 C265 1.373 . S
N266 C268 1.340 . S
N267 C264 1.368 . S
N267 C268 1.321 . S
N267 Co270 2.127 1_554 S
C268 N266 1.340 . S
C268 N267 1.321 . S
C268 H292 0.930 . S
H269 C264 0.931 . S
Co270 N267 2.127 1_556 S
Co270 N273 2.128 . S
Co270 O278 2.056 . S
Co270 O281 2.037 1_556 S
Co270 N284 2.140 1_556 S
C271 O272 1.227 . S
C271 O281 1.265 . S
O272 C271 1.227 . S
N273 Co270 2.128 . S
N273 C275 1.375 . S
N273 C276 1.313 . S
C274 C275 1.338 . S
C274 N277 1.377 . S
C274 H294 0.930 . S
C275 N273 1.375 . S
C275 C274 1.338 . S
C275 H279 0.931 . S
C276 N273 1.313 . S
C276 N277 1.344 . S
C276 H280 0.930 . S
N277 C274 1.377 . S
N277 C276 1.344 . S
O278 Co270 2.056 . S
O278 C282 1.253 . S
H279 C275 0.931 . S
H280 C276 0.930 . S
O281 Co270 2.037 1_554 S
O281 C271 1.265 . S
C282 O278 1.253 . S
C282 O283 1.227 . S
O283 C282 1.227 . S
N284 Co270 2.140 1_554 S
N284 C287 1.346 . S
N284 C288 1.345 1_554 S
C285 C286 1.387 . S
C285 C289 1.391 1_554 S
C286 C285 1.387 . S
C286 C287 1.369 . S
C286 H295 0.929 . S
C287 N284 1.346 . S
C287 C286 1.369 . S
C287 H290 0.928 . S
C288 N284 1.345 1_556 S
C288 C289 1.371 . S
C288 H291 0.931 . S
C289 C285 1.391 1_556 S
C289 C288 1.371 . S
C289 H296 0.930 . S
H290 C287 0.928 . S
H291 C288 0.931 . S
H292 C268 0.930 . S
H293 C265 0.930 . S
H294 C274 0.930 . S
H295 C286 0.929 . S
H296 C289 0.930 . S
C297 C298 1.351 . S
C297 N300 1.368 . S
C297 H302 0.931 . S
C298 C297 1.351 . S
C298 N299 1.373 . S
C298 H326 0.930 . S
N299 C298 1.373 . S
N299 C301 1.340 . S
N300 C297 1.368 . S
N300 C301 1.321 . S
N300 Co303 2.127 1_556 S
C301 N299 1.340 . S
C301 N300 1.321 . S
C301 H325 0.930 . S
H302 C297 0.931 . S
Co303 N300 2.127 1_554 S
Co303 N306 2.128 . S
Co303 O311 2.056 . S
Co303 O314 2.037 1_554 S
Co303 N317 2.140 1_554 S
C304 O305 1.227 . S
C304 O314 1.265 . S
O305 C304 1.227 . S
N306 Co303 2.128 . S
N306 C308 1.375 . S
N306 C309 1.313 . S
C307 C308 1.338 . S
C307 N310 1.377 . S
C307 H327 0.930 . S
C308 N306 1.375 . S
C308 C307 1.338 . S
C308 H312 0.931 . S
C309 N306 1.313 . S
C309 N310 1.344 . S
C309 H313 0.930 . S
N310 C307 1.377 . S
N310 C309 1.344 . S
O311 Co303 2.056 . S
O311 C315 1.253 . S
H312 C308 0.931 . S
H313 C309 0.930 . S
O314 Co303 2.037 1_556 S
O314 C304 1.265 . S
C315 O311 1.253 . S
C315 O316 1.227 . S
O316 C315 1.227 . S
N317 Co303 2.140 1_556 S
N317 C320 1.346 . S
N317 C321 1.345 1_556 S
C318 C319 1.387 . S
C318 C322 1.391 1_556 S
C319 C318 1.387 . S
C319 C320 1.369 . S
C319 H328 0.929 . S
C320 N317 1.346 . S
C320 C319 1.369 . S
C320 H323 0.928 . S
C321 N317 1.345 1_554 S
C321 C322 1.371 . S
C321 H324 0.931 . S
C322 C318 1.391 1_554 S
C322 C321 1.371 . S
C322 H329 0.930 . S
H323 C320 0.928 . S
H324 C321 0.931 . S
H325 C301 0.930 . S
H326 C298 0.930 . S
H327 C307 0.930 . S
H328 C319 0.929 . S
H329 C322 0.930 . S
C330 C331 1.351 . S
C330 N333 1.368 . S
C330 H335 0.931 . S
C331 C330 1.351 . S
C331 N332 1.373 . S
C331 H359 0.930 . S
N332 C331 1.373 . S
N332 C334 1.340 . S
N333 C330 1.368 . S
N333 C334 1.321 . S
N333 Co336 2.127 1_556 S
C334 N332 1.340 . S
C334 N333 1.321 . S
C334 H358 0.930 . S
H335 C330 0.931 . S
Co336 N333 2.127 1_554 S
Co336 N339 2.128 . S
Co336 O344 2.056 . S
Co336 O347 2.037 1_554 S
Co336 N350 2.140 1_554 S
C337 O338 1.227 . S
C337 O347 1.265 . S
O338 C337 1.227 . S
N339 Co336 2.128 . S
N339 C341 1.375 . S
N339 C342 1.313 . S
C340 C341 1.338 . S
C340 N343 1.377 . S
C340 H360 0.930 . S
C341 N339 1.375 . S
C341 C340 1.338 . S
C341 H345 0.931 . S
C342 N339 1.313 . S
C342 N343 1.344 . S
C342 H346 0.930 . S
N343 C340 1.377 . S
N343 C342 1.344 . S
O344 Co336 2.056 . S
O344 C348 1.253 . S
H345 C341 0.931 . S
H346 C342 0.930 . S
O347 Co336 2.037 1_556 S
O347 C337 1.265 . S
C348 O344 1.253 . S
C348 O349 1.227 . S
O349 C348 1.227 . S
N350 Co336 2.140 1_556 S
N350 C353 1.346 . S
N350 C354 1.345 1_556 S
C351 C352 1.387 . S
C351 C355 1.391 1_556 S
C352 C351 1.387 . S
C352 C353 1.369 . S
C352 H361 0.929 . S
C353 N350 1.346 . S
C353 C352 1.369 . S
C353 H356 0.928 . S
C354 N350 1.345 1_554 S
C354 C355 1.371 . S
C354 H357 0.931 . S
C355 C351 1.391 1_554 S
C355 C354 1.371 . S
C355 H362 0.930 . S
H356 C353 0.928 . S
H357 C354 0.931 . S
H358 C334 0.930 . S
H359 C331 0.930 . S
H360 C340 0.930 . S
H361 C352 0.929 . S
H362 C355 0.930 . S
C363 C364 1.351 . S
C363 N366 1.368 . S
C363 H368 0.931 . S
C364 C363 1.351 . S
C364 N365 1.373 . S
C364 H392 0.930 . S
N365 C364 1.373 . S
N365 C367 1.340 . S
N366 C363 1.368 . S
N366 C367 1.321 . S
N366 Co369 2.127 1_556 S
C367 N365 1.340 . S
C367 N366 1.321 . S
C367 H391 0.930 . S
H368 C363 0.931 . S
Co369 N366 2.127 1_554 S
Co369 N372 2.128 . S
Co369 O377 2.056 . S
Co369 O380 2.037 1_554 S
Co369 N383 2.140 1_554 S
C370 O371 1.227 . S
C370 O380 1.265 . S
O371 C370 1.227 . S
N372 Co369 2.128 . S
N372 C374 1.375 . S
N372 C375 1.313 . S
C373 C374 1.338 . S
C373 N376 1.377 . S
C373 H393 0.930 . S
C374 N372 1.375 . S
C374 C373 1.338 . S
C374 H378 0.931 . S
C375 N372 1.313 . S
C375 N376 1.344 . S
C375 H379 0.930 . S
N376 C373 1.377 . S
N376 C375 1.344 . S
O377 Co369 2.056 . S
O377 C381 1.253 . S
H378 C374 0.931 . S
H379 C375 0.930 . S
O380 Co369 2.037 1_556 S
O380 C370 1.265 . S
C381 O377 1.253 . S
C381 O382 1.227 . S
O382 C381 1.227 . S
N383 Co369 2.140 1_556 S
N383 C386 1.346 . S
N383 C387 1.345 1_556 S
C384 C385 1.387 . S
C384 C388 1.391 1_556 S
C385 C384 1.387 . S
C385 C386 1.369 . S
C385 H394 0.929 . S
C386 N383 1.346 . S
C386 C385 1.369 . S
C386 H389 0.928 . S
C387 N383 1.345 1_554 S
C387 C388 1.371 . S
C387 H390 0.931 . S
C388 C384 1.391 1_554 S
C388 C387 1.371 . S
C388 H395 0.930 . S
H389 C386 0.928 . S
H390 C387 0.931 . S
H391 C367 0.930 . S
H392 C364 0.930 . S
H393 C373 0.930 . S
H394 C385 0.929 . S
H395 C388 0.930 . S
C396 C397 1.351 . S
C396 N399 1.368 . S
C396 H401 0.931 . S
C397 C396 1.351 . S
C397 N398 1.373 . S
C397 H425 0.930 . S
N398 C397 1.373 . S
N398 C400 1.340 . S
N399 C396 1.368 . S
N399 C400 1.321 . S
N399 Co402 2.135 . S
C400 N398 1.340 . S
C400 N399 1.321 . S
C400 H424 0.930 . S
H401 C396 0.931 . S
Co402 N399 2.135 . S
Co402 N405 2.121 . S
Co402 O410 2.055 . S
Co402 O413 2.039 . S
Co402 N416 2.140 . S
C403 O404 1.227 . S
C403 O413 1.265 . S
O404 C403 1.227 . S
N405 Co402 2.121 . S
N405 C407 1.375 . S
N405 C408 1.313 . S
C406 C407 1.338 . S
C406 N409 1.377 . S
C406 H426 0.930 . S
C407 N405 1.375 . S
C407 C406 1.338 . S
C407 H411 0.931 . S
C408 N405 1.313 . S
C408 N409 1.344 . S
C408 H412 0.930 . S
N409 C406 1.377 . S
N409 C408 1.344 . S
O410 Co402 2.055 . S
O410 C414 1.253 . S
H411 C407 0.931 . S
H412 C408 0.930 . S
O413 Co402 2.039 . S
O413 C403 1.265 . S
C414 O410 1.253 . S
C414 O415 1.227 . S
O415 C414 1.227 . S
N416 Co402 2.140 . S
N416 C419 1.346 . S
N416 C420 1.345 . S
C417 C418 1.387 . S
C417 C421 1.391 . S
C418 C417 1.387 . S
C418 C419 1.369 . S
C418 H427 0.929 . S
C419 N416 1.346 . S
C419 C418 1.369 . S
C419 H422 0.928 . S
C420 N416 1.345 . S
C420 C421 1.371 . S
C420 H423 0.931 . S
C421 C417 1.391 . S
C421 C420 1.371 . S
C421 H428 0.930 . S
H422 C419 0.928 . S
H423 C420 0.931 . S
H424 C400 0.930 . S
H425 C397 0.930 . S
H426 C406 0.930 . S
H427 C418 0.929 . S
H428 C421 0.930 . S
C429 C430 1.351 . S
C429 N432 1.368 . S
C429 H434 0.931 . S
C430 C429 1.351 . S
C430 N431 1.373 . S
C430 H458 0.930 . S
N431 C430 1.373 . S
N431 C433 1.340 . S
N432 C429 1.368 . S
N432 C433 1.321 . S
N432 Co435 2.135 . S
C433 N431 1.340 . S
C433 N432 1.321 . S
C433 H457 0.930 . S
H434 C429 0.931 . S
Co435 N432 2.135 . S
Co435 N438 2.121 . S
Co435 O443 2.055 . S
Co435 O446 2.039 . S
Co435 N449 2.140 . S
C436 O437 1.227 . S
C436 O446 1.265 . S
O437 C436 1.227 . S
N438 Co435 2.121 . S
N438 C440 1.375 . S
N438 C441 1.313 . S
C439 C440 1.338 . S
C439 N442 1.377 . S
C439 H459 0.930 . S
C440 N438 1.375 . S
C440 C439 1.338 . S
C440 H444 0.931 . S
C441 N438 1.313 . S
C441 N442 1.344 . S
C441 H445 0.930 . S
N442 C439 1.377 . S
N442 C441 1.344 . S
O443 Co435 2.055 . S
O443 C447 1.253 . S
H444 C440 0.931 . S
H445 C441 0.930 . S
O446 Co435 2.039 . S
O446 C436 1.265 . S
C447 O443 1.253 . S
C447 O448 1.227 . S
O448 C447 1.227 . S
N449 Co435 2.140 . S
N449 C452 1.346 . S
N449 C453 1.345 . S
C450 C451 1.387 . S
C450 C454 1.391 . S
C451 C450 1.387 . S
C451 C452 1.369 . S
C451 H460 0.929 . S
C452 N449 1.346 . S
C452 C451 1.369 . S
C452 H455 0.928 . S
C453 N449 1.345 . S
C453 C454 1.371 . S
C453 H456 0.931 . S
C454 C450 1.391 . S
C454 C453 1.371 . S
C454 H461 0.930 . S
H455 C452 0.928 . S
H456 C453 0.931 . S
H457 C433 0.930 . S
H458 C430 0.930 . S
H459 C439 0.930 . S
H460 C451 0.929 . S
H461 C454 0.930 . S
C462 C463 1.351 . S
C462 N465 1.368 . S
C462 H467 0.931 . S
C463 C462 1.351 . S
C463 N464 1.373 . S
C463 H491 0.930 . S
N464 C463 1.373 . S
N464 C466 1.340 . S
N465 C462 1.368 . S
N465 C466 1.321 . S
N465 Co468 2.135 . S
C466 N464 1.340 . S
C466 N465 1.321 . S
C466 H490 0.930 . S
H467 C462 0.931 . S
Co468 N465 2.135 . S
Co468 N471 2.121 . S
Co468 O476 2.055 . S
Co468 O479 2.039 . S
Co468 N482 2.140 . S
C469 O470 1.227 . S
C469 O479 1.265 . S
O470 C469 1.227 . S
N471 Co468 2.121 . S
N471 C473 1.375 . S
N471 C474 1.313 . S
C472 C473 1.338 . S
C472 N475 1.377 . S
C472 H492 0.930 . S
C473 N471 1.375 . S
C473 C472 1.338 . S
C473 H477 0.931 . S
C474 N471 1.313 . S
C474 N475 1.344 . S
C474 H478 0.930 . S
N475 C472 1.377 . S
N475 C474 1.344 . S
O476 Co468 2.055 . S
O476 C480 1.253 . S
H477 C473 0.931 . S
H478 C474 0.930 . S
O479 Co468 2.039 . S
O479 C469 1.265 . S
C480 O476 1.253 . S
C480 O481 1.227 . S
O481 C480 1.227 . S
N482 Co468 2.140 . S
N482 C485 1.346 . S
N482 C486 1.345 . S
C483 C484 1.387 . S
C483 C487 1.391 . S
C484 C483 1.387 . S
C484 C485 1.369 . S
C484 H493 0.929 . S
C485 N482 1.346 . S
C485 C484 1.369 . S
C485 H488 0.928 . S
C486 N482 1.345 . S
C486 C487 1.371 . S
C486 H489 0.931 . S
C487 C483 1.391 . S
C487 C486 1.371 . S
C487 H494 0.930 . S
H488 C485 0.928 . S
H489 C486 0.931 . S
H490 C466 0.930 . S
H491 C463 0.930 . S
H492 C472 0.930 . S
H493 C484 0.929 . S
H494 C487 0.930 . S
C495 C496 1.351 . S
C495 N498 1.368 . S
C495 H500 0.931 . S
C496 C495 1.351 . S
C496 N497 1.373 . S
C496 H524 0.930 . S
N497 C496 1.373 . S
N497 C499 1.340 . S
N498 C495 1.368 . S
N498 C499 1.321 . S
N498 Co501 2.135 . S
C499 N497 1.340 . S
C499 N498 1.321 . S
C499 H523 0.930 . S
H500 C495 0.931 . S
Co501 N498 2.135 . S
Co501 N504 2.121 . S
Co501 O509 2.055 . S
Co501 O512 2.039 . S
Co501 N515 2.140 . S
C502 O503 1.227 . S
C502 O512 1.265 . S
O503 C502 1.227 . S
N504 Co501 2.121 . S
N504 C506 1.375 . S
N504 C507 1.313 . S
C505 C506 1.338 . S
C505 N508 1.377 . S
C505 H525 0.930 . S
C506 N504 1.375 . S
C506 C505 1.338 . S
C506 H510 0.931 . S
C507 N504 1.313 . S
C507 N508 1.344 . S
C507 H511 0.930 . S
N508 C505 1.377 . S
N508 C507 1.344 . S
O509 Co501 2.055 . S
O509 C513 1.253 . S
H510 C506 0.931 . S
H511 C507 0.930 . S
O512 Co501 2.039 . S
O512 C502 1.265 . S
C513 O509 1.253 . S
C513 O514 1.227 . S
O514 C513 1.227 . S
N515 Co501 2.140 . S
N515 C518 1.346 . S
N515 C519 1.345 . S
C516 C517 1.387 . S
C516 C520 1.391 . S
C517 C516 1.387 . S
C517 C518 1.369 . S
C517 H526 0.929 . S
C518 N515 1.346 . S
C518 C517 1.369 . S
C518 H521 0.928 . S
C519 N515 1.345 . S
C519 C520 1.371 . S
C519 H522 0.931 . S
C520 C516 1.391 . S
C520 C519 1.371 . S
C520 H527 0.930 . S
H521 C518 0.928 . S
H522 C519 0.931 . S
H523 C499 0.930 . S
H524 C496 0.930 . S
H525 C505 0.930 . S
H526 C517 0.929 . S
H527 C520 0.930 . S
C528 C529 1.351 . S
C528 N531 1.368 . S
C528 H533 0.931 . S
C529 C528 1.351 . S
C529 N530 1.373 . S
C529 H557 0.930 . S
N530 C529 1.373 . S
N530 C532 1.340 . S
N531 C528 1.368 . S
N531 C532 1.321 . S
N531 Co534 2.135 . S
C532 N530 1.340 . S
C532 N531 1.321 . S
C532 H556 0.930 . S
H533 C528 0.931 . S
Co534 N531 2.135 . S
Co534 N537 2.121 . S
Co534 O542 2.055 . S
Co534 O545 2.039 . S
Co534 N548 2.140 . S
C535 O536 1.227 . S
C535 O545 1.265 . S
O536 C535 1.227 . S
N537 Co534 2.121 . S
N537 C539 1.375 . S
N537 C540 1.313 . S
C538 C539 1.338 . S
C538 N541 1.377 . S
C538 H558 0.930 . S
C539 N537 1.375 . S
C539 C538 1.338 . S
C539 H543 0.931 . S
C540 N537 1.313 . S
C540 N541 1.344 . S
C540 H544 0.930 . S
N541 C538 1.377 . S
N541 C540 1.344 . S
O542 Co534 2.055 . S
O542 C546 1.253 . S
H543 C539 0.931 . S
H544 C540 0.930 . S
O545 Co534 2.039 . S
O545 C535 1.265 . S
C546 O542 1.253 . S
C546 O547 1.227 . S
O547 C546 1.227 . S
N548 Co534 2.140 . S
N548 C551 1.346 . S
N548 C552 1.345 . S
C549 C550 1.387 . S
C549 C553 1.391 . S
C550 C549 1.387 . S
C550 C551 1.369 . S
C550 H559 0.929 . S
C551 N548 1.346 . S
C551 C550 1.369 . S
C551 H554 0.928 . S
C552 N548 1.345 . S
C552 C553 1.371 . S
C552 H555 0.931 . S
C553 C549 1.391 . S
C553 C552 1.371 . S
C553 H560 0.930 . S
H554 C551 0.928 . S
H555 C552 0.931 . S
H556 C532 0.930 . S
H557 C529 0.930 . S
H558 C538 0.930 . S
H559 C550 0.929 . S
H560 C553 0.930 . S
C561 C562 1.351 . S
C561 N564 1.368 . S
C561 H566 0.931 . S
C562 C561 1.351 . S
C562 N563 1.373 . S
C562 H590 0.930 . S
N563 C562 1.373 . S
N563 C565 1.340 . S
N564 C561 1.368 . S
N564 C565 1.321 . S
N564 Co567 2.135 . S
C565 N563 1.340 . S
C565 N564 1.321 . S
C565 H589 0.930 . S
H566 C561 0.931 . S
Co567 N564 2.135 . S
Co567 N570 2.121 . S
Co567 O575 2.055 . S
Co567 O578 2.039 . S
Co567 N581 2.140 . S
C568 O569 1.227 . S
C568 O578 1.265 . S
O569 C568 1.227 . S
N570 Co567 2.121 . S
N570 C572 1.375 . S
N570 C573 1.313 . S
C571 C572 1.338 . S
C571 N574 1.377 . S
C571 H591 0.930 . S
C572 N570 1.375 . S
C572 C571 1.338 . S
C572 H576 0.931 . S
C573 N570 1.313 . S
C573 N574 1.344 . S
C573 H577 0.930 . S
N574 C571 1.377 . S
N574 C573 1.344 . S
O575 Co567 2.055 . S
O575 C579 1.253 . S
H576 C572 0.931 . S
H577 C573 0.930 . S
O578 Co567 2.039 . S
O578 C568 1.265 . S
C579 O575 1.253 . S
C579 O580 1.227 . S
O580 C579 1.227 . S
N581 Co567 2.140 . S
N581 C584 1.346 . S
N581 C585 1.345 . S
C582 C583 1.387 . S
C582 C586 1.391 . S
C583 C582 1.387 . S
C583 C584 1.369 . S
C583 H592 0.929 . S
C584 N581 1.346 . S
C584 C583 1.369 . S
C584 H587 0.928 . S
C585 N581 1.345 . S
C585 C586 1.371 . S
C585 H588 0.931 . S
C586 C582 1.391 . S
C586 C585 1.371 . S
C586 H593 0.930 . S
H587 C584 0.928 . S
H588 C585 0.931 . S
H589 C565 0.930 . S
H590 C562 0.930 . S
H591 C571 0.930 . S
H592 C583 0.929 . S
H593 C586 0.930 . S
C594 C595 1.351 . S
C594 N597 1.368 . S
C594 H599 0.931 . S
C595 C594 1.351 . S
C595 N596 1.373 . S
C595 H623 0.930 . S
N596 C595 1.373 . S
N596 C598 1.340 . S
N597 C594 1.368 . S
N597 C598 1.321 . S
N597 Co600 2.135 . S
C598 N596 1.340 . S
C598 N597 1.321 . S
C598 H622 0.930 . S
H599 C594 0.931 . S
Co600 N597 2.135 . S
Co600 N603 2.121 . S
Co600 O608 2.055 . S
Co600 O611 2.039 . S
Co600 N614 2.140 . S
C601 O602 1.227 . S
C601 O611 1.265 . S
O602 C601 1.227 . S
N603 Co600 2.121 . S
N603 C605 1.375 . S
N603 C606 1.313 . S
C604 C605 1.338 . S
C604 N607 1.377 . S
C604 H624 0.930 . S
C605 N603 1.375 . S
C605 C604 1.338 . S
C605 H609 0.931 . S
C606 N603 1.313 . S
C606 N607 1.344 . S
C606 H610 0.930 . S
N607 C604 1.377 . S
N607 C606 1.344 . S
O608 Co600 2.055 . S
O608 C612 1.253 . S
H609 C605 0.931 . S
H610 C606 0.930 . S
O611 Co600 2.039 . S
O611 C601 1.265 . S
C612 O608 1.253 . S
C612 O613 1.227 . S
O613 C612 1.227 . S
N614 Co600 2.140 . S
N614 C617 1.346 . S
N614 C618 1.345 . S
C615 C616 1.387 . S
C615 C619 1.391 . S
C616 C615 1.387 . S
C616 C617 1.369 . S
C616 H625 0.929 . S
C617 N614 1.346 . S
C617 C616 1.369 . S
C617 H620 0.928 . S
C618 N614 1.345 . S
C618 C619 1.371 . S
C618 H621 0.931 . S
C619 C615 1.391 . S
C619 C618 1.371 . S
C619 H626 0.930 . S
H620 C617 0.928 . S
H621 C618 0.931 . S
H622 C598 0.930 . S
H623 C595 0.930 . S
H624 C604 0.930 . S
H625 C616 0.929 . S
H626 C619 0.930 . S
C627 C628 1.351 . S
C627 N630 1.368 . S
C627 H632 0.931 . S
C628 C627 1.351 . S
C628 N629 1.373 . S
C628 H656 0.930 . S
N629 C628 1.373 . S
N629 C631 1.340 . S
N630 C627 1.368 . S
N630 C631 1.321 . S
N630 Co633 2.135 . S
C631 N629 1.340 . S
C631 N630 1.321 . S
C631 H655 0.930 . S
H632 C627 0.931 . S
Co633 N630 2.135 . S
Co633 N636 2.121 . S
Co633 O641 2.055 . S
Co633 O644 2.039 . S
Co633 N647 2.140 . S
C634 O635 1.227 . S
C634 O644 1.265 . S
O635 C634 1.227 . S
N636 Co633 2.121 . S
N636 C638 1.375 . S
N636 C639 1.313 . S
C637 C638 1.338 . S
C637 N640 1.377 . S
C637 H657 0.930 . S
C638 N636 1.375 . S
C638 C637 1.338 . S
C638 H642 0.931 . S
C639 N636 1.313 . S
C639 N640 1.344 . S
C639 H643 0.930 . S
N640 C637 1.377 . S
N640 C639 1.344 . S
O641 Co633 2.055 . S
O641 C645 1.253 . S
H642 C638 0.931 . S
H643 C639 0.930 . S
O644 Co633 2.039 . S
O644 C634 1.265 . S
C645 O641 1.253 . S
C645 O646 1.227 . S
O646 C645 1.227 . S
N647 Co633 2.140 . S
N647 C650 1.346 . S
N647 C651 1.345 . S
C648 C649 1.387 . S
C648 C652 1.391 . S
C649 C648 1.387 . S
C649 C650 1.369 . S
C649 H658 0.929 . S
C650 N647 1.346 . S
C650 C649 1.369 . S
C650 H653 0.928 . S
C651 N647 1.345 . S
C651 C652 1.371 . S
C651 H654 0.931 . S
C652 C648 1.391 . S
C652 C651 1.371 . S
C652 H659 0.930 . S
H653 C650 0.928 . S
H654 C651 0.931 . S
H655 C631 0.930 . S
H656 C628 0.930 . S
H657 C637 0.930 . S
H658 C649 0.929 . S
H659 C652 0.930 . S
C660 C661 1.351 . S
C660 N663 1.368 . S
C660 H665 0.931 . S
C661 C660 1.351 . S
C661 N662 1.373 . S
C661 H689 0.930 . S
N662 C661 1.373 . S
N662 C664 1.340 . S
N663 C660 1.368 . S
N663 C664 1.321 . S
N663 Co666 2.135 . S
C664 N662 1.340 . S
C664 N663 1.321 . S
C664 H688 0.930 . S
H665 C660 0.931 . S
Co666 N663 2.135 . S
Co666 N669 2.121 . S
Co666 O674 2.055 . S
Co666 O677 2.039 . S
Co666 N680 2.140 . S
C667 O668 1.227 . S
C667 O677 1.265 . S
O668 C667 1.227 . S
N669 Co666 2.121 . S
N669 C671 1.375 . S
N669 C672 1.313 . S
C670 C671 1.338 . S
C670 N673 1.377 . S
C670 H690 0.930 . S
C671 N669 1.375 . S
C671 C670 1.338 . S
C671 H675 0.931 . S
C672 N669 1.313 . S
C672 N673 1.344 . S
C672 H676 0.930 . S
N673 C670 1.377 . S
N673 C672 1.344 . S
O674 Co666 2.055 . S
O674 C678 1.253 . S
H675 C671 0.931 . S
H676 C672 0.930 . S
O677 Co666 2.039 . S
O677 C667 1.265 . S
C678 O674 1.253 . S
C678 O679 1.227 . S
O679 C678 1.227 . S
N680 Co666 2.140 . S
N680 C683 1.346 . S
N680 C684 1.345 . S
C681 C682 1.387 . S
C681 C685 1.391 . S
C682 C681 1.387 . S
C682 C683 1.369 . S
C682 H691 0.929 . S
C683 N680 1.346 . S
C683 C682 1.369 . S
C683 H686 0.928 . S
C684 N680 1.345 . S
C684 C685 1.371 . S
C684 H687 0.931 . S
C685 C681 1.391 . S
C685 C684 1.371 . S
C685 H692 0.930 . S
H686 C683 0.928 . S
H687 C684 0.931 . S
H688 C664 0.930 . S
H689 C661 0.930 . S
H690 C670 0.930 . S
H691 C682 0.929 . S
H692 C685 0.930 . S
C693 C694 1.351 . S
C693 N696 1.368 . S
C693 H698 0.931 . S
C694 C693 1.351 . S
C694 N695 1.373 . S
C694 H722 0.930 . S
N695 C694 1.373 . S
N695 C697 1.340 . S
N696 C693 1.368 . S
N696 C697 1.321 . S
N696 Co699 2.135 . S
C697 N695 1.340 . S
C697 N696 1.321 . S
C697 H721 0.930 . S
H698 C693 0.931 . S
Co699 N696 2.135 . S
Co699 N702 2.121 . S
Co699 O707 2.055 . S
Co699 O710 2.039 . S
Co699 N713 2.140 . S
C700 O701 1.227 . S
C700 O710 1.265 . S
O701 C700 1.227 . S
N702 Co699 2.121 . S
N702 C704 1.375 . S
N702 C705 1.313 . S
C703 C704 1.338 . S
C703 N706 1.377 . S
C703 H723 0.930 . S
C704 N702 1.375 . S
C704 C703 1.338 . S
C704 H708 0.931 . S
C705 N702 1.313 . S
C705 N706 1.344 . S
C705 H709 0.930 . S
N706 C703 1.377 . S
N706 C705 1.344 . S
O707 Co699 2.055 . S
O707 C711 1.253 . S
H708 C704 0.931 . S
H709 C705 0.930 . S
O710 Co699 2.039 . S
O710 C700 1.265 . S
C711 O707 1.253 . S
C711 O712 1.227 . S
O712 C711 1.227 . S
N713 Co699 2.140 . S
N713 C716 1.346 . S
N713 C717 1.345 . S
C714 C715 1.387 . S
C714 C718 1.391 . S
C715 C714 1.387 . S
C715 C716 1.369 . S
C715 H724 0.929 . S
C716 N713 1.346 . S
C716 C715 1.369 . S
C716 H719 0.928 . S
C717 N713 1.345 . S
C717 C718 1.371 . S
C717 H720 0.931 . S
C718 C714 1.391 . S
C718 C717 1.371 . S
C718 H725 0.930 . S
H719 C716 0.928 . S
H720 C717 0.931 . S
H721 C697 0.930 . S
H722 C694 0.930 . S
H723 C703 0.930 . S
H724 C715 0.929 . S
H725 C718 0.930 . S
C726 C727 1.351 . S
C726 N729 1.368 . S
C726 H731 0.931 . S
C727 C726 1.351 . S
C727 N728 1.373 . S
C727 H755 0.930 . S
N728 C727 1.373 . S
N728 C730 1.340 . S
N729 C726 1.368 . S
N729 C730 1.321 . S
N729 Co732 2.135 . S
C730 N728 1.340 . S
C730 N729 1.321 . S
C730 H754 0.930 . S
H731 C726 0.931 . S
Co732 N729 2.135 . S
Co732 N735 2.121 . S
Co732 O740 2.055 . S
Co732 O743 2.039 . S
Co732 N746 2.140 . S
C733 O734 1.227 . S
C733 O743 1.265 . S
O734 C733 1.227 . S
N735 Co732 2.121 . S
N735 C737 1.375 . S
N735 C738 1.313 . S
C736 C737 1.338 . S
C736 N739 1.377 . S
C736 H756 0.930 . S
C737 N735 1.375 . S
C737 C736 1.338 . S
C737 H741 0.931 . S
C738 N735 1.313 . S
C738 N739 1.344 . S
C738 H742 0.930 . S
N739 C736 1.377 . S
N739 C738 1.344 . S
O740 Co732 2.055 . S
O740 C744 1.253 . S
H741 C737 0.931 . S
H742 C738 0.930 . S
O743 Co732 2.039 . S
O743 C733 1.265 . S
C744 O740 1.253 . S
C744 O745 1.227 . S
O745 C744 1.227 . S
N746 Co732 2.140 . S
N746 C749 1.346 . S
N746 C750 1.345 . S
C747 C748 1.387 . S
C747 C751 1.391 . S
C748 C747 1.387 . S
C748 C749 1.369 . S
C748 H757 0.929 . S
C749 N746 1.346 . S
C749 C748 1.369 . S
C749 H752 0.928 . S
C750 N746 1.345 . S
C750 C751 1.371 . S
C750 H753 0.931 . S
C751 C747 1.391 . S
C751 C750 1.371 . S
C751 H758 0.930 . S
H752 C749 0.928 . S
H753 C750 0.931 . S
H754 C730 0.930 . S
H755 C727 0.930 . S
H756 C736 0.930 . S
H757 C748 0.929 . S
H758 C751 0.930 . S
C759 C760 1.351 . S
C759 N762 1.368 . S
C759 H764 0.931 . S
C760 C759 1.351 . S
C760 N761 1.373 . S
C760 H788 0.930 . S
N761 C760 1.373 . S
N761 C763 1.340 . S
N762 C759 1.368 . S
N762 C763 1.321 . S
N762 Co765 2.135 . S
C763 N761 1.340 . S
C763 N762 1.321 . S
C763 H787 0.930 . S
H764 C759 0.931 . S
Co765 N762 2.135 . S
Co765 N768 2.121 . S
Co765 O773 2.055 . S
Co765 O776 2.039 . S
Co765 N779 2.140 . S
C766 O767 1.227 . S
C766 O776 1.265 . S
O767 C766 1.227 . S
N768 Co765 2.121 . S
N768 C770 1.375 . S
N768 C771 1.313 . S
C769 C770 1.338 . S
C769 N772 1.377 . S
C769 H789 0.930 . S
C770 N768 1.375 . S
C770 C769 1.338 . S
C770 H774 0.931 . S
C771 N768 1.313 . S
C771 N772 1.344 . S
C771 H775 0.930 . S
N772 C769 1.377 . S
N772 C771 1.344 . S
O773 Co765 2.055 . S
O773 C777 1.253 . S
H774 C770 0.931 . S
H775 C771 0.930 . S
O776 Co765 2.039 . S
O776 C766 1.265 . S
C777 O773 1.253 . S
C777 O778 1.227 . S
O778 C777 1.227 . S
N779 Co765 2.140 . S
N779 C782 1.346 . S
N779 C783 1.345 . S
C780 C781 1.387 . S
C780 C784 1.391 . S
C781 C780 1.387 . S
C781 C782 1.369 . S
C781 H790 0.929 . S
C782 N779 1.346 . S
C782 C781 1.369 . S
C782 H785 0.928 . S
C783 N779 1.345 . S
C783 C784 1.371 . S
C783 H786 0.931 . S
C784 C780 1.391 . S
C784 C783 1.371 . S
C784 H791 0.930 . S
H785 C782 0.928 . S
H786 C783 0.931 . S
H787 C763 0.930 . S
H788 C760 0.930 . S
H789 C769 0.930 . S
H790 C781 0.929 . S
H791 C784 0.930 . S
C792 C793 1.351 . S
C792 N795 1.368 . S
C792 H797 0.931 . S
C793 C792 1.351 . S
C793 N794 1.373 . S
C793 H821 0.930 . S
N794 C793 1.373 . S
N794 C796 1.340 . S
N795 C792 1.368 . S
N795 C796 1.321 . S
N795 Co798 2.135 . S
C796 N794 1.340 . S
C796 N795 1.321 . S
C796 H820 0.930 . S
H797 C792 0.931 . S
Co798 N795 2.135 . S
Co798 N801 2.121 . S
Co798 O806 2.055 . S
Co798 O809 2.039 . S
Co798 N812 2.140 . S
C799 O800 1.227 . S
C799 O809 1.265 . S
O800 C799 1.227 . S
N801 Co798 2.121 . S
N801 C803 1.375 . S
N801 C804 1.313 . S
C802 C803 1.338 . S
C802 N805 1.377 . S
C802 H822 0.930 . S
C803 N801 1.375 . S
C803 C802 1.338 . S
C803 H807 0.931 . S
C804 N801 1.313 . S
C804 N805 1.344 . S
C804 H808 0.930 . S
N805 C802 1.377 . S
N805 C804 1.344 . S
O806 Co798 2.055 . S
O806 C810 1.253 . S
H807 C803 0.931 . S
H808 C804 0.930 . S
O809 Co798 2.039 . S
O809 C799 1.265 . S
C810 O806 1.253 . S
C810 O811 1.227 . S
O811 C810 1.227 . S
N812 Co798 2.140 . S
N812 C815 1.346 . S
N812 C816 1.345 . S
C813 C814 1.387 . S
C813 C817 1.391 . S
C814 C813 1.387 . S
C814 C815 1.369 . S
C814 H823 0.929 . S
C815 N812 1.346 . S
C815 C814 1.369 . S
C815 H818 0.928 . S
C816 N812 1.345 . S
C816 C817 1.371 . S
C816 H819 0.931 . S
C817 C813 1.391 . S
C817 C816 1.371 . S
C817 H824 0.930 . S
H818 C815 0.928 . S
H819 C816 0.931 . S
H820 C796 0.930 . S
H821 C793 0.930 . S
H822 C802 0.930 . S
H823 C814 0.929 . S
H824 C817 0.930 . S
C825 C826 1.351 . S
C825 N828 1.368 . S
C825 H830 0.931 . S
C826 C825 1.351 . S
C826 N827 1.373 . S
C826 H854 0.930 . S
N827 C826 1.373 . S
N827 C829 1.340 . S
N828 C825 1.368 . S
N828 C829 1.321 . S
N828 Co831 2.135 . S
C829 N827 1.340 . S
C829 N828 1.321 . S
C829 H853 0.930 . S
H830 C825 0.931 . S
Co831 N828 2.135 . S
Co831 N834 2.121 . S
Co831 O839 2.055 . S
Co831 O842 2.039 . S
Co831 N845 2.140 . S
C832 O833 1.227 . S
C832 O842 1.265 . S
O833 C832 1.227 . S
N834 Co831 2.121 . S
N834 C836 1.375 . S
N834 C837 1.313 . S
C835 C836 1.338 . S
C835 N838 1.377 . S
C835 H855 0.930 . S
C836 N834 1.375 . S
C836 C835 1.338 . S
C836 H840 0.931 . S
C837 N834 1.313 . S
C837 N838 1.344 . S
C837 H841 0.930 . S
N838 C835 1.377 . S
N838 C837 1.344 . S
O839 Co831 2.055 . S
O839 C843 1.253 . S
H840 C836 0.931 . S
H841 C837 0.930 . S
O842 Co831 2.039 . S
O842 C832 1.265 . S
C843 O839 1.253 . S
C843 O844 1.227 . S
O844 C843 1.227 . S
N845 Co831 2.140 . S
N845 C848 1.346 . S
N845 C849 1.345 . S
C846 C847 1.387 . S
C846 C850 1.391 . S
C847 C846 1.387 . S
C847 C848 1.369 . S
C847 H856 0.929 . S
C848 N845 1.346 . S
C848 C847 1.369 . S
C848 H851 0.928 . S
C849 N845 1.345 . S
C849 C850 1.371 . S
C849 H852 0.931 . S
C850 C846 1.391 . S
C850 C849 1.371 . S
C850 H857 0.930 . S
H851 C848 0.928 . S
H852 C849 0.931 . S
H853 C829 0.930 . S
H854 C826 0.930 . S
H855 C835 0.930 . S
H856 C847 0.929 . S
H857 C850 0.930 . S
C858 C859 1.351 . S
C858 N861 1.368 . S
C858 H863 0.931 . S
C859 C858 1.351 . S
C859 N860 1.373 . S
C859 H887 0.930 . S
N860 C859 1.373 . S
N860 C862 1.340 . S
N861 C858 1.368 . S
N861 C862 1.321 . S
N861 Co864 2.135 . S
C862 N860 1.340 . S
C862 N861 1.321 . S
C862 H886 0.930 . S
H863 C858 0.931 . S
Co864 N861 2.135 . S
Co864 N867 2.121 . S
Co864 O872 2.055 . S
Co864 O875 2.039 . S
Co864 N878 2.140 . S
C865 O866 1.227 . S
C865 O875 1.265 . S
O866 C865 1.227 . S
N867 Co864 2.121 . S
N867 C869 1.375 . S
N867 C870 1.313 . S
C868 C869 1.338 . S
C868 N871 1.377 . S
C868 H888 0.930 . S
C869 N867 1.375 . S
C869 C868 1.338 . S
C869 H873 0.931 . S
C870 N867 1.313 . S
C870 N871 1.344 . S
C870 H874 0.930 . S
N871 C868 1.377 . S
N871 C870 1.344 . S
O872 Co864 2.055 . S
O872 C876 1.253 . S
H873 C869 0.931 . S
H874 C870 0.930 . S
O875 Co864 2.039 . S
O875 C865 1.265 . S
C876 O872 1.253 . S
C876 O877 1.227 . S
O877 C876 1.227 . S
N878 Co864 2.140 . S
N878 C881 1.346 . S
N878 C882 1.345 . S
C879 C880 1.387 . S
C879 C883 1.391 . S
C880 C879 1.387 . S
C880 C881 1.369 . S
C880 H889 0.929 . S
C881 N878 1.346 . S
C881 C880 1.369 . S
C881 H884 0.928 . S
C882 N878 1.345 . S
C882 C883 1.371 . S
C882 H885 0.931 . S
C883 C879 1.391 . S
C883 C882 1.371 . S
C883 H890 0.930 . S
H884 C881 0.928 . S
H885 C882 0.931 . S
H886 C862 0.930 . S
H887 C859 0.930 . S
H888 C868 0.930 . S
H889 C880 0.929 . S
H890 C883 0.930 . S
C891 C892 1.351 . S
C891 N894 1.368 . S
C891 H896 0.931 . S
C892 C891 1.351 . S
C892 N893 1.373 . S
C892 H920 0.930 . S
N893 C892 1.373 . S
N893 C895 1.340 . S
N894 C891 1.368 . S
N894 C895 1.321 . S
N894 Co897 2.135 . S
C895 N893 1.340 . S
C895 N894 1.321 . S
C895 H919 0.930 . S
H896 C891 0.931 . S
Co897 N894 2.135 . S
Co897 N900 2.121 . S
Co897 O905 2.055 . S
Co897 O908 2.039 . S
Co897 N911 2.140 . S
C898 O899 1.227 . S
C898 O908 1.265 . S
O899 C898 1.227 . S
N900 Co897 2.121 . S
N900 C902 1.375 . S
N900 C903 1.313 . S
C901 C902 1.338 . S
C901 N904 1.377 . S
C901 H921 0.930 . S
C902 N900 1.375 . S
C902 C901 1.338 . S
C902 H906 0.931 . S
C903 N900 1.313 . S
C903 N904 1.344 . S
C903 H907 0.930 . S
N904 C901 1.377 . S
N904 C903 1.344 . S
O905 Co897 2.055 . S
O905 C909 1.253 . S
H906 C902 0.931 . S
H907 C903 0.930 . S
O908 Co897 2.039 . S
O908 C898 1.265 . S
C909 O905 1.253 . S
C909 O910 1.227 . S
O910 C909 1.227 . S
N911 Co897 2.140 . S
N911 C914 1.346 . S
N911 C915 1.345 . S
C912 C913 1.387 . S
C912 C916 1.391 . S
C913 C912 1.387 . S
C913 C914 1.369 . S
C913 H922 0.929 . S
C914 N911 1.346 . S
C914 C913 1.369 . S
C914 H917 0.928 . S
C915 N911 1.345 . S
C915 C916 1.371 . S
C915 H918 0.931 . S
C916 C912 1.391 . S
C916 C915 1.371 . S
C916 H923 0.930 . S
H917 C914 0.928 . S
H918 C915 0.931 . S
H919 C895 0.930 . S
H920 C892 0.930 . S
H921 C901 0.930 . S
H922 C913 0.929 . S
H923 C916 0.930 . S
C924 C925 1.351 . S
C924 N927 1.368 . S
C924 H929 0.931 . S
C925 C924 1.351 . S
C925 N926 1.373 . S
C925 H953 0.930 . S
N926 C925 1.373 . S
N926 C928 1.340 . S
N927 C924 1.368 . S
N927 C928 1.321 . S
N927 Co930 2.135 . S
C928 N926 1.340 . S
C928 N927 1.321 . S
C928 H952 0.930 . S
H929 C924 0.931 . S
Co930 N927 2.135 . S
Co930 N933 2.121 . S
Co930 O938 2.055 . S
Co930 O941 2.039 . S
Co930 N944 2.140 . S
C931 O932 1.227 . S
C931 O941 1.265 . S
O932 C931 1.227 . S
N933 Co930 2.121 . S
N933 C935 1.375 . S
N933 C936 1.313 . S
C934 C935 1.338 . S
C934 N937 1.377 . S
C934 H954 0.930 . S
C935 N933 1.375 . S
C935 C934 1.338 . S
C935 H939 0.931 . S
C936 N933 1.313 . S
C936 N937 1.344 . S
C936 H940 0.930 . S
N937 C934 1.377 . S
N937 C936 1.344 . S
O938 Co930 2.055 . S
O938 C942 1.253 . S
H939 C935 0.931 . S
H940 C936 0.930 . S
O941 Co930 2.039 . S
O941 C931 1.265 . S
C942 O938 1.253 . S
C942 O943 1.227 . S
O943 C942 1.227 . S
N944 Co930 2.140 . S
N944 C947 1.346 . S
N944 C948 1.345 . S
C945 C946 1.387 . S
C945 C949 1.391 . S
C946 C945 1.387 . S
C946 C947 1.369 . S
C946 H955 0.929 . S
C947 N944 1.346 . S
C947 C946 1.369 . S
C947 H950 0.928 . S
C948 N944 1.345 . S
C948 C949 1.371 . S
C948 H951 0.931 . S
C949 C945 1.391 . S
C949 C948 1.371 . S
C949 H956 0.930 . S
H950 C947 0.928 . S
H951 C948 0.931 . S
H952 C928 0.930 . S
H953 C925 0.930 . S
H954 C934 0.930 . S
H955 C946 0.929 . S
H956 C949 0.930 . S
C957 C958 1.351 . S
C957 N960 1.368 . S
C957 H962 0.931 . S
C958 C957 1.351 . S
C958 N959 1.373 . S
C958 H986 0.930 . S
N959 C958 1.373 . S
N959 C961 1.340 . S
N960 C957 1.368 . S
N960 C961 1.321 . S
N960 Co963 2.135 . S
C961 N959 1.340 . S
C961 N960 1.321 . S
C961 H985 0.930 . S
H962 C957 0.931 . S
Co963 N960 2.135 . S
Co963 N966 2.121 . S
Co963 O971 2.055 . S
Co963 O974 2.039 . S
Co963 N977 2.140 . S
C964 O965 1.227 . S
C964 O974 1.265 . S
O965 C964 1.227 . S
N966 Co963 2.121 . S
N966 C968 1.375 . S
N966 C969 1.313 . S
C967 C968 1.338 . S
C967 N970 1.377 . S
C967 H987 0.930 . S
C968 N966 1.375 . S
C968 C967 1.338 . S
C968 H972 0.931 . S
C969 N966 1.313 . S
C969 N970 1.344 . S
C969 H973 0.930 . S
N970 C967 1.377 . S
N970 C969 1.344 . S
O971 Co963 2.055 . S
O971 C975 1.253 . S
H972 C968 0.931 . S
H973 C969 0.930 . S
O974 Co963 2.039 . S
O974 C964 1.265 . S
C975 O971 1.253 . S
C975 O976 1.227 . S
O976 C975 1.227 . S
N977 Co963 2.140 . S
N977 C980 1.346 . S
N977 C981 1.345 . S
C978 C979 1.387 . S
C978 C982 1.391 . S
C979 C978 1.387 . S
C979 C980 1.369 . S
C979 H988 0.929 . S
C980 N977 1.346 . S
C980 C979 1.369 . S
C980 H983 0.928 . S
C981 N977 1.345 . S
C981 C982 1.371 . S
C981 H984 0.931 . S
C982 C978 1.391 . S
C982 C981 1.371 . S
C982 H989 0.930 . S
H983 C980 0.928 . S
H984 C981 0.931 . S
H985 C961 0.930 . S
H986 C958 0.930 . S
H987 C967 0.930 . S
H988 C979 0.929 . S
H989 C982 0.930 . S
C990 C991 1.351 . S
C990 N993 1.368 . S
C990 H995 0.931 . S
C991 C990 1.351 . S
C991 N992 1.373 . S
C991 H1019 0.930 . S
N992 C991 1.373 . S
N992 C994 1.340 . S
N993 C990 1.368 . S
N993 C994 1.321 . S
N993 Co996 2.135 . S
C994 N992 1.340 . S
C994 N993 1.321 . S
C994 H1018 0.930 . S
H995 C990 0.931 . S
Co996 N993 2.135 . S
Co996 N999 2.121 . S
Co996 O1004 2.055 . S
Co996 O1007 2.039 . S
Co996 N1010 2.140 . S
C997 O998 1.227 . S
C997 O1007 1.265 . S
O998 C997 1.227 . S
N999 Co996 2.121 . S
N999 C1001 1.375 . S
N999 C1002 1.313 . S
C1000 C1001 1.338 . S
C1000 N1003 1.377 . S
C1000 H1020 0.930 . S
C1001 N999 1.375 . S
C1001 C1000 1.338 . S
C1001 H1005 0.931 . S
C1002 N999 1.313 . S
C1002 N1003 1.344 . S
C1002 H1006 0.930 . S
N1003 C1000 1.377 . S
N1003 C1002 1.344 . S
O1004 Co996 2.055 . S
O1004 C1008 1.253 . S
H1005 C1001 0.931 . S
H1006 C1002 0.930 . S
O1007 Co996 2.039 . S
O1007 C997 1.265 . S
C1008 O1004 1.253 . S
C1008 O1009 1.227 . S
O1009 C1008 1.227 . S
N1010 Co996 2.140 . S
N1010 C1013 1.346 . S
N1010 C1014 1.345 . S
C1011 C1012 1.387 . S
C1011 C1015 1.391 . S
C1012 C1011 1.387 . S
C1012 C1013 1.369 . S
C1012 H1021 0.929 . S
C1013 N1010 1.346 . S
C1013 C1012 1.369 . S
C1013 H1016 0.928 . S
C1014 N1010 1.345 . S
C1014 C1015 1.371 . S
C1014 H1017 0.931 . S
C1015 C1011 1.391 . S
C1015 C1014 1.371 . S
C1015 H1022 0.930 . S
H1016 C1013 0.928 . S
H1017 C1014 0.931 . S
H1018 C994 0.930 . S
H1019 C991 0.930 . S
H1020 C1000 0.930 . S
H1021 C1012 0.929 . S
H1022 C1015 0.930 . S
C1023 C1024 1.351 . S
C1023 N1026 1.368 . S
C1023 H1028 0.931 . S
C1024 C1023 1.351 . S
C1024 N1025 1.373 . S
C1024 H1052 0.930 . S
N1025 C1024 1.373 . S
N1025 C1027 1.340 . S
N1026 C1023 1.368 . S
N1026 C1027 1.321 . S
N1026 Co1029 2.135 . S
C1027 N1025 1.340 . S
C1027 N1026 1.321 . S
C1027 H1051 0.930 . S
H1028 C1023 0.931 . S
Co1029 N1026 2.135 . S
Co1029 N1032 2.121 . S
Co1029 O1037 2.055 . S
Co1029 O1040 2.039 . S
Co1029 N1043 2.140 . S
C1030 O1031 1.227 . S
C1030 O1040 1.265 . S
O1031 C1030 1.227 . S
N1032 Co1029 2.121 . S
N1032 C1034 1.375 . S
N1032 C1035 1.313 . S
C1033 C1034 1.338 . S
C1033 N1036 1.377 . S
C1033 H1053 0.930 . S
C1034 N1032 1.375 . S
C1034 C1033 1.338 . S
C1034 H1038 0.931 . S
C1035 N1032 1.313 . S
C1035 N1036 1.344 . S
C1035 H1039 0.930 . S
N1036 C1033 1.377 . S
N1036 C1035 1.344 . S
O1037 Co1029 2.055 . S
O1037 C1041 1.253 . S
H1038 C1034 0.931 . S
H1039 C1035 0.930 . S
O1040 Co1029 2.039 . S
O1040 C1030 1.265 . S
C1041 O1037 1.253 . S
C1041 O1042 1.227 . S
O1042 C1041 1.227 . S
N1043 Co1029 2.140 . S
N1043 C1046 1.346 . S
N1043 C1047 1.345 . S
C1044 C1045 1.387 . S
C1044 C1048 1.391 . S
C1045 C1044 1.387 . S
C1045 C1046 1.369 . S
C1045 H1054 0.929 . S
C1046 N1043 1.346 . S
C1046 C1045 1.369 . S
C1046 H1049 0.928 . S
C1047 N1043 1.345 . S
C1047 C1048 1.371 . S
C1047 H1050 0.931 . S
C1048 C1044 1.391 . S
C1048 C1047 1.371 . S
C1048 H1055 0.930 . S
H1049 C1046 0.928 . S
H1050 C1047 0.931 . S
H1051 C1027 0.930 . S
H1052 C1024 0.930 . S
H1053 C1033 0.930 . S
H1054 C1045 0.929 . S
H1055 C1048 0.930 . S
C1056 C1057 1.351 . S
C1056 N1059 1.368 . S
C1056 H1061 0.931 . S
C1057 C1056 1.351 . S
C1057 N1058 1.373 . S
C1057 H1085 0.930 . S
N1058 C1057 1.373 . S
N1058 C1060 1.340 . S
N1059 C1056 1.368 . S
N1059 C1060 1.321 . S
N1059 Co1062 2.135 . S
C1060 N1058 1.340 . S
C1060 N1059 1.321 . S
C1060 H1084 0.930 . S
H1061 C1056 0.931 . S
Co1062 N1059 2.135 . S
Co1062 N1065 2.121 . S
Co1062 O1070 2.055 . S
Co1062 O1073 2.039 . S
Co1062 N1076 2.140 . S
C1063 O1064 1.227 . S
C1063 O1073 1.265 . S
O1064 C1063 1.227 . S
N1065 Co1062 2.121 . S
N1065 C1067 1.375 . S
N1065 C1068 1.313 . S
C1066 C1067 1.338 . S
C1066 N1069 1.377 . S
C1066 H1086 0.930 . S
C1067 N1065 1.375 . S
C1067 C1066 1.338 . S
C1067 H1071 0.931 . S
C1068 N1065 1.313 . S
C1068 N1069 1.344 . S
C1068 H1072 0.930 . S
N1069 C1066 1.377 . S
N1069 C1068 1.344 . S
O1070 Co1062 2.055 . S
O1070 C1074 1.253 . S
H1071 C1067 0.931 . S
H1072 C1068 0.930 . S
O1073 Co1062 2.039 . S
O1073 C1063 1.265 . S
C1074 O1070 1.253 . S
C1074 O1075 1.227 . S
O1075 C1074 1.227 . S
N1076 Co1062 2.140 . S
N1076 C1079 1.346 . S
N1076 C1080 1.345 . S
C1077 C1078 1.387 . S
C1077 C1081 1.391 . S
C1078 C1077 1.387 . S
C1078 C1079 1.369 . S
C1078 H1087 0.929 . S
C1079 N1076 1.346 . S
C1079 C1078 1.369 . S
C1079 H1082 0.928 . S
C1080 N1076 1.345 . S
C1080 C1081 1.371 . S
C1080 H1083 0.931 . S
C1081 C1077 1.391 . S
C1081 C1080 1.371 . S
C1081 H1088 0.930 . S
H1082 C1079 0.928 . S
H1083 C1080 0.931 . S
H1084 C1060 0.930 . S
H1085 C1057 0.930 . S
H1086 C1066 0.930 . S
H1087 C1078 0.929 . S
H1088 C1081 0.930 . S
C1089 C1090 1.351 . S
C1089 N1092 1.368 . S
C1089 H1094 0.931 . S
C1090 C1089 1.351 . S
C1090 N1091 1.373 . S
C1090 H1118 0.930 . S
N1091 C1090 1.373 . S
N1091 C1093 1.340 . S
N1092 C1089 1.368 . S
N1092 C1093 1.321 . S
N1092 Co1095 2.135 . S
C1093 N1091 1.340 . S
C1093 N1092 1.321 . S
C1093 H1117 0.930 . S
H1094 C1089 0.931 . S
Co1095 N1092 2.135 . S
Co1095 N1098 2.121 . S
Co1095 O1103 2.055 . S
Co1095 O1106 2.039 . S
Co1095 N1109 2.140 . S
C1096 O1097 1.227 . S
C1096 O1106 1.265 . S
O1097 C1096 1.227 . S
N1098 Co1095 2.121 . S
N1098 C1100 1.375 . S
N1098 C1101 1.313 . S
C1099 C1100 1.338 . S
C1099 N1102 1.377 . S
C1099 H1119 0.930 . S
C1100 N1098 1.375 . S
C1100 C1099 1.338 . S
C1100 H1104 0.931 . S
C1101 N1098 1.313 . S
C1101 N1102 1.344 . S
C1101 H1105 0.930 . S
N1102 C1099 1.377 . S
N1102 C1101 1.344 . S
O1103 Co1095 2.055 . S
O1103 C1107 1.253 . S
H1104 C1100 0.931 . S
H1105 C1101 0.930 . S
O1106 Co1095 2.039 . S
O1106 C1096 1.265 . S
C1107 O1103 1.253 . S
C1107 O1108 1.227 . S
O1108 C1107 1.227 . S
N1109 Co1095 2.140 . S
N1109 C1112 1.346 . S
N1109 C1113 1.345 . S
C1110 C1111 1.387 . S
C1110 C1114 1.391 . S
C1111 C1110 1.387 . S
C1111 C1112 1.369 . S
C1111 H1120 0.929 . S
C1112 N1109 1.346 . S
C1112 C1111 1.369 . S
C1112 H1115 0.928 . S
C1113 N1109 1.345 . S
C1113 C1114 1.371 . S
C1113 H1116 0.931 . S
C1114 C1110 1.391 . S
C1114 C1113 1.371 . S
C1114 H1121 0.930 . S
H1115 C1112 0.928 . S
H1116 C1113 0.931 . S
H1117 C1093 0.930 . S
H1118 C1090 0.930 . S
H1119 C1099 0.930 . S
H1120 C1111 0.929 . S
H1121 C1114 0.930 . S
C1122 C1123 1.351 . S
C1122 N1125 1.368 . S
C1122 H1127 0.931 . S
C1123 C1122 1.351 . S
C1123 N1124 1.373 . S
C1123 H1151 0.930 . S
N1124 C1123 1.373 . S
N1124 C1126 1.340 . S
N1125 C1122 1.368 . S
N1125 C1126 1.321 . S
N1125 Co1128 2.135 . S
C1126 N1124 1.340 . S
C1126 N1125 1.321 . S
C1126 H1150 0.930 . S
H1127 C1122 0.931 . S
Co1128 N1125 2.135 . S
Co1128 N1131 2.121 . S
Co1128 O1136 2.055 . S
Co1128 O1139 2.039 . S
Co1128 N1142 2.140 . S
C1129 O1130 1.227 . S
C1129 O1139 1.265 . S
O1130 C1129 1.227 . S
N1131 Co1128 2.121 . S
N1131 C1133 1.375 . S
N1131 C1134 1.313 . S
C1132 C1133 1.338 . S
C1132 N1135 1.377 . S
C1132 H1152 0.930 . S
C1133 N1131 1.375 . S
C1133 C1132 1.338 . S
C1133 H1137 0.931 . S
C1134 N1131 1.313 . S
C1134 N1135 1.344 . S
C1134 H1138 0.930 . S
N1135 C1132 1.377 . S
N1135 C1134 1.344 . S
O1136 Co1128 2.055 . S
O1136 C1140 1.253 . S
H1137 C1133 0.931 . S
H1138 C1134 0.930 . S
O1139 Co1128 2.039 . S
O1139 C1129 1.265 . S
C1140 O1136 1.253 . S
C1140 O1141 1.227 . S
O1141 C1140 1.227 . S
N1142 Co1128 2.140 . S
N1142 C1145 1.346 . S
N1142 C1146 1.345 . S
C1143 C1144 1.387 . S
C1143 C1147 1.391 . S
C1144 C1143 1.387 . S
C1144 C1145 1.369 . S
C1144 H1153 0.929 . S
C1145 N1142 1.346 . S
C1145 C1144 1.369 . S
C1145 H1148 0.928 . S
C1146 N1142 1.345 . S
C1146 C1147 1.371 . S
C1146 H1149 0.931 . S
C1147 C1143 1.391 . S
C1147 C1146 1.371 . S
C1147 H1154 0.930 . S
H1148 C1145 0.928 . S
H1149 C1146 0.931 . S
H1150 C1126 0.930 . S
H1151 C1123 0.930 . S
H1152 C1132 0.930 . S
H1153 C1144 0.929 . S
H1154 C1147 0.930 . S
C1155 C1156 1.351 . S
C1155 N1158 1.368 . S
C1155 H1160 0.931 . S
C1156 C1155 1.351 . S
C1156 N1157 1.373 . S
C1156 H1184 0.930 . S
N1157 C1156 1.373 . S
N1157 C1159 1.340 . S
N1158 C1155 1.368 . S
N1158 C1159 1.321 . S
N1158 Co1161 2.135 . S
C1159 N1157 1.340 . S
C1159 N1158 1.321 . S
C1159 H1183 0.930 . S
H1160 C1155 0.931 . S
Co1161 N1158 2.135 . S
Co1161 N1164 2.121 . S
Co1161 O1169 2.055 . S
Co1161 O1172 2.039 . S
Co1161 N1175 2.140 . S
C1162 O1163 1.227 . S
C1162 O1172 1.265 . S
O1163 C1162 1.227 . S
N1164 Co1161 2.121 . S
N1164 C1166 1.375 . S
N1164 C1167 1.313 . S
C1165 C1166 1.338 . S
C1165 N1168 1.377 . S
C1165 H1185 0.930 . S
C1166 N1164 1.375 . S
C1166 C1165 1.338 . S
C1166 H1170 0.931 . S
C1167 N1164 1.313 . S
C1167 N1168 1.344 . S
C1167 H1171 0.930 . S
N1168 C1165 1.377 . S
N1168 C1167 1.344 . S
O1169 Co1161 2.055 . S
O1169 C1173 1.253 . S
H1170 C1166 0.931 . S
H1171 C1167 0.930 . S
O1172 Co1161 2.039 . S
O1172 C1162 1.265 . S
C1173 O1169 1.253 . S
C1173 O1174 1.227 . S
O1174 C1173 1.227 . S
N1175 Co1161 2.140 . S
N1175 C1178 1.346 . S
N1175 C1179 1.345 . S
C1176 C1177 1.387 . S
C1176 C1180 1.391 . S
C1177 C1176 1.387 . S
C1177 C1178 1.369 . S
C1177 H1186 0.929 . S
C1178 N1175 1.346 . S
C1178 C1177 1.369 . S
C1178 H1181 0.928 . S
C1179 N1175 1.345 . S
C1179 C1180 1.371 . S
C1179 H1182 0.931 . S
C1180 C1176 1.391 . S
C1180 C1179 1.371 . S
C1180 H1187 0.930 . S
H1181 C1178 0.928 . S
H1182 C1179 0.931 . S
H1183 C1159 0.930 . S
H1184 C1156 0.930 . S
H1185 C1165 0.930 . S
H1186 C1177 0.929 . S
H1187 C1180 0.930 . S
H1188 C1200 0.930 . S
H1189 C1202 0.930 . S
H1190 C1203 0.930 . S
H1191 C1207 0.959 . S
H1192 C1207 0.959 . S
H1193 C1207 0.961 . S
H1194 C1208 0.960 . S
H1195 C1208 0.961 . S
H1196 C1208 0.959 . S
H1197 C1211 0.929 . S
H1198 C1212 0.931 . S
H1199 C1214 0.930 . S
C1200 H1188 0.930 . S
C1200 C1201 1.399 . S
C1200 C1205 1.399 . S
C1201 C1200 1.399 . S
C1201 C1202 1.376 . S
C1202 H1189 0.930 . S
C1202 C1201 1.376 . S
C1202 C1203 1.388 . S
C1203 H1190 0.930 . S
C1203 C1202 1.388 . S
C1203 C1204 1.390 . S
C1204 C1203 1.390 . S
C1204 C1205 1.394 . S
C1204 C1210 1.465 . S
C1205 C1200 1.399 . S
C1205 C1204 1.394 . S
C1205 C1206 1.516 . S
C1206 C1205 1.516 . S
C1206 C1207 1.502 . S
C1206 C1208 1.561 . S
C1206 C1209 1.526 . S
C1207 H1191 0.959 . S
C1207 H1192 0.959 . S
C1207 H1193 0.961 . S
C1207 C1206 1.502 . S
C1208 H1194 0.960 . S
C1208 H1195 0.961 . S
C1208 H1196 0.959 . S
C1208 C1206 1.561 . S
C1209 C1206 1.526 . S
C1209 C1210 1.396 . S
C1209 C1214 1.390 . S
C1210 C1204 1.465 . S
C1210 C1209 1.396 . S
C1210 C1211 1.399 . S
C1211 H1197 0.929 . S
C1211 C1210 1.399 . S
C1211 C1212 1.385 . S
C1212 H1198 0.931 . S
C1212 C1211 1.385 . S
C1212 C1213 1.389 . S
C1213 C1212 1.389 . S
C1213 C1214 1.387 . S
C1214 H1199 0.930 . S
C1214 C1209 1.390 . S
C1214 C1213 1.387 . S
H1215 C1227 0.930 . S
H1216 C1229 0.930 . S
H1217 C1230 0.930 . S
H1218 C1234 0.959 . S
H1219 C1234 0.959 . S
H1220 C1234 0.961 . S
H1221 C1235 0.960 . S
H1222 C1235 0.961 . S
H1223 C1235 0.959 . S
H1224 C1238 0.929 . S
H1225 C1239 0.931 . S
H1226 C1241 0.930 . S
C1227 H1215 0.930 . S
C1227 C1228 1.399 . S
C1227 C1232 1.399 . S
C1228 C1227 1.399 . S
C1228 C1229 1.376 . S
C1229 H1216 0.930 . S
C1229 C1228 1.376 . S
C1229 C1230 1.388 . S
C1230 H1217 0.930 . S
C1230 C1229 1.388 . S
C1230 C1231 1.390 . S
C1231 C1230 1.390 . S
C1231 C1232 1.394 . S
C1231 C1237 1.465 . S
C1232 C1227 1.399 . S
C1232 C1231 1.394 . S
C1232 C1233 1.516 . S
C1233 C1232 1.516 . S
C1233 C1234 1.502 . S
C1233 C1235 1.561 . S
C1233 C1236 1.526 . S
C1234 H1218 0.959 . S
C1234 H1219 0.959 . S
C1234 H1220 0.961 . S
C1234 C1233 1.502 . S
C1235 H1221 0.960 . S
C1235 H1222 0.961 . S
C1235 H1223 0.959 . S
C1235 C1233 1.561 . S
C1236 C1233 1.526 . S
C1236 C1237 1.396 . S
C1236 C1241 1.390 . S
C1237 C1231 1.465 . S
C1237 C1236 1.396 . S
C1237 C1238 1.399 . S
C1238 H1224 0.929 . S
C1238 C1237 1.399 . S
C1238 C1239 1.385 . S
C1239 H1225 0.931 . S
C1239 C1238 1.385 . S
C1239 C1240 1.389 . S
C1240 C1239 1.389 . S
C1240 C1241 1.387 . S
C1241 H1226 0.930 . S
C1241 C1236 1.390 . S
C1241 C1240 1.387 . S
H1242 C1254 0.930 . S
H1243 C1256 0.930 1_556 S
H1244 C1257 0.930 . S
H1245 C1261 0.959 . S
H1246 C1261 0.959 . S
H1247 C1261 0.961 . S
H1248 C1262 0.960 . S
H1249 C1262 0.961 . S
H1250 C1262 0.959 . S
H1251 C1265 0.929 . S
H1252 C1266 0.931 . S
H1253 C1268 0.930 . S
C1254 H1242 0.930 . S
C1254 C1255 1.399 . S
C1254 C1259 1.399 . S
C1255 C1254 1.399 . S
C1255 C1256 1.376 . S
C1256 H1243 0.930 1_554 S
C1256 C1255 1.376 . S
C1256 C1257 1.388 . S
C1257 H1244 0.930 . S
C1257 C1256 1.388 . S
C1257 C1258 1.390 . S
C1258 C1257 1.390 . S
C1258 C1259 1.394 . S
C1258 C1264 1.465 . S
C1259 C1254 1.399 . S
C1259 C1258 1.394 . S
C1259 C1260 1.516 . S
C1260 C1259 1.516 . S
C1260 C1261 1.502 . S
C1260 C1262 1.561 . S
C1260 C1263 1.526 . S
C1261 H1245 0.959 . S
C1261 H1246 0.959 . S
C1261 H1247 0.961 . S
C1261 C1260 1.502 . S
C1262 H1248 0.960 . S
C1262 H1249 0.961 . S
C1262 H1250 0.959 . S
C1262 C1260 1.561 . S
C1263 C1260 1.526 . S
C1263 C1264 1.396 . S
C1263 C1268 1.390 . S
C1264 C1258 1.465 . S
C1264 C1263 1.396 . S
C1264 C1265 1.399 . S
C1265 H1251 0.929 . S
C1265 C1264 1.399 . S
C1265 C1266 1.385 . S
C1266 H1252 0.931 . S
C1266 C1265 1.385 . S
C1266 C1267 1.389 . S
C1267 C1266 1.389 . S
C1267 C1268 1.387 . S
C1268 H1253 0.930 . S
C1268 C1263 1.390 . S
C1268 C1267 1.387 . S
H1269 C1281 0.930 . S
H1270 C1283 0.930 . S
H1271 C1284 0.930 . S
H1272 C1288 0.959 . S
H1273 C1288 0.959 . S
H1274 C1288 0.961 . S
H1275 C1289 0.960 . S
H1276 C1289 0.961 . S
H1277 C1289 0.959 . S
H1278 C1292 0.929 . S
H1279 C1293 0.931 1_554 S
H1280 C1295 0.930 . S
C1281 H1269 0.930 . S
C1281 C1282 1.399 . S
C1281 C1286 1.399 . S
C1282 C1281 1.399 . S
C1282 C1283 1.376 . S
C1283 H1270 0.930 . S
C1283 C1282 1.376 . S
C1283 C1284 1.388 . S
C1284 H1271 0.930 . S
C1284 C1283 1.388 . S
C1284 C1285 1.390 . S
C1285 C1284 1.390 . S
C1285 C1286 1.394 . S
C1285 C1291 1.465 . S
C1286 C1281 1.399 . S
C1286 C1285 1.394 . S
C1286 C1287 1.516 . S
C1287 C1286 1.516 . S
C1287 C1288 1.502 . S
C1287 C1289 1.561 . S
C1287 C1290 1.526 . S
C1288 H1272 0.959 . S
C1288 H1273 0.959 . S
C1288 H1274 0.961 . S
C1288 C1287 1.502 . S
C1289 H1275 0.960 . S
C1289 H1276 0.961 . S
C1289 H1277 0.959 . S
C1289 C1287 1.561 . S
C1290 C1287 1.526 . S
C1290 C1291 1.396 . S
C1290 C1295 1.390 . S
C1291 C1285 1.465 . S
C1291 C1290 1.396 . S
C1291 C1292 1.399 . S
C1292 H1278 0.929 . S
C1292 C1291 1.399 . S
C1292 C1293 1.385 . S
C1293 H1279 0.931 1_556 S
C1293 C1292 1.385 . S
C1293 C1294 1.389 . S
C1294 C1293 1.389 . S
C1294 C1295 1.387 . S
C1295 H1280 0.930 . S
C1295 C1290 1.390 . S
C1295 C1294 1.387 . S
H1296 C1308 0.930 . S
H1297 C1310 0.930 . S
H1298 C1311 0.930 . S
H1299 C1315 0.959 . S
H1300 C1315 0.959 . S
H1301 C1315 0.961 . S
H1302 C1316 0.960 . S
H1303 C1316 0.961 . S
H1304 C1316 0.959 . S
H1305 C1319 0.929 . S
H1306 C1320 0.931 . S
H1307 C1322 0.930 . S
C1308 H1296 0.930 . S
C1308 C1309 1.399 . S
C1308 C1313 1.399 . S
C1309 C1308 1.399 . S
C1309 C1310 1.376 . S
C1310 H1297 0.930 . S
C1310 C1309 1.376 . S
C1310 C1311 1.388 . S
C1311 H1298 0.930 . S
C1311 C1310 1.388 . S
C1311 C1312 1.390 . S
C1312 C1311 1.390 . S
C1312 C1313 1.394 . S
C1312 C1318 1.465 . S
C1313 C1308 1.399 . S
C1313 C1312 1.394 . S
C1313 C1314 1.516 . S
C1314 C1313 1.516 . S
C1314 C1315 1.502 . S
C1314 C1316 1.561 . S
C1314 C1317 1.526 . S
C1315 H1299 0.959 . S
C1315 H1300 0.959 . S
C1315 H1301 0.961 . S
C1315 C1314 1.502 . S
C1316 H1302 0.960 . S
C1316 H1303 0.961 . S
C1316 H1304 0.959 . S
C1316 C1314 1.561 . S
C1317 C1314 1.526 . S
C1317 C1318 1.396 . S
C1317 C1322 1.390 . S
C1318 C1312 1.465 . S
C1318 C1317 1.396 . S
C1318 C1319 1.399 . S
C1319 H1305 0.929 . S
C1319 C1318 1.399 . S
C1319 C1320 1.385 . S
C1320 H1306 0.931 . S
C1320 C1319 1.385 . S
C1320 C1321 1.389 . S
C1321 C1320 1.389 . S
C1321 C1322 1.387 . S
C1322 H1307 0.930 . S
C1322 C1317 1.390 . S
C1322 C1321 1.387 . S
H1323 C1335 0.930 . S
H1324 C1337 0.930 . S
H1325 C1338 0.930 . S
H1326 C1342 0.959 . S
H1327 C1342 0.959 . S
H1328 C1342 0.961 . S
H1329 C1343 0.960 . S
H1330 C1343 0.961 . S
H1331 C1343 0.959 . S
H1332 C1346 0.929 . S
H1333 C1347 0.931 . S
H1334 C1349 0.930 . S
C1335 H1323 0.930 . S
C1335 C1336 1.399 . S
C1335 C1340 1.399 . S
C1336 C1335 1.399 . S
C1336 C1337 1.376 . S
C1337 H1324 0.930 . S
C1337 C1336 1.376 . S
C1337 C1338 1.388 . S
C1338 H1325 0.930 . S
C1338 C1337 1.388 . S
C1338 C1339 1.390 . S
C1339 C1338 1.390 . S
C1339 C1340 1.394 . S
C1339 C1345 1.465 . S
C1340 C1335 1.399 . S
C1340 C1339 1.394 . S
C1340 C1341 1.516 . S
C1341 C1340 1.516 . S
C1341 C1342 1.502 . S
C1341 C1343 1.561 . S
C1341 C1344 1.526 . S
C1342 H1326 0.959 . S
C1342 H1327 0.959 . S
C1342 H1328 0.961 . S
C1342 C1341 1.502 . S
C1343 H1329 0.960 . S
C1343 H1330 0.961 . S
C1343 H1331 0.959 . S
C1343 C1341 1.561 . S
C1344 C1341 1.526 . S
C1344 C1345 1.396 . S
C1344 C1349 1.390 . S
C1345 C1339 1.465 . S
C1345 C1344 1.396 . S
C1345 C1346 1.399 . S
C1346 H1332 0.929 . S
C1346 C1345 1.399 . S
C1346 C1347 1.385 . S
C1347 H1333 0.931 . S
C1347 C1346 1.385 . S
C1347 C1348 1.389 . S
C1348 C1347 1.389 . S
C1348 C1349 1.387 . S
C1349 H1334 0.930 . S
C1349 C1344 1.390 . S
C1349 C1348 1.387 . S
H1350 C1362 0.930 . S
H1351 C1364 0.930 . S
H1352 C1365 0.930 . S
H1353 C1369 0.959 . S
H1354 C1369 0.959 . S
H1355 C1369 0.961 . S
H1356 C1370 0.960 . S
H1357 C1370 0.961 . S
H1358 C1370 0.959 . S
H1359 C1373 0.929 . S
H1360 C1374 0.931 . S
H1361 C1376 0.930 . S
C1362 H1350 0.930 . S
C1362 C1363 1.399 . S
C1362 C1367 1.399 . S
C1363 C1362 1.399 . S
C1363 C1364 1.376 . S
C1364 H1351 0.930 . S
C1364 C1363 1.376 . S
C1364 C1365 1.388 . S
C1365 H1352 0.930 . S
C1365 C1364 1.388 . S
C1365 C1366 1.390 . S
C1366 C1365 1.390 . S
C1366 C1367 1.394 . S
C1366 C1372 1.465 . S
C1367 C1362 1.399 . S
C1367 C1366 1.394 . S
C1367 C1368 1.516 . S
C1368 C1367 1.516 . S
C1368 C1369 1.502 . S
C1368 C1370 1.561 . S
C1368 C1371 1.526 . S
C1369 H1353 0.959 . S
C1369 H1354 0.959 . S
C1369 H1355 0.961 . S
C1369 C1368 1.502 . S
C1370 H1356 0.960 . S
C1370 H1357 0.961 . S
C1370 H1358 0.959 . S
C1370 C1368 1.561 . S
C1371 C1368 1.526 . S
C1371 C1372 1.396 . S
C1371 C1376 1.390 . S
C1372 C1366 1.465 . S
C1372 C1371 1.396 . S
C1372 C1373 1.399 . S
C1373 H1359 0.929 . S
C1373 C1372 1.399 . S
C1373 C1374 1.385 . S
C1374 H1360 0.931 . S
C1374 C1373 1.385 . S
C1374 C1375 1.389 . S
C1375 C1374 1.389 . S
C1375 C1376 1.387 . S
C1376 H1361 0.930 . S
C1376 C1371 1.390 . S
C1376 C1375 1.387 . S
H1377 C1389 0.930 . S
H1378 C1391 0.930 . S
H1379 C1392 0.930 . S
H1380 C1396 0.959 . S
H1381 C1396 0.959 . S
H1382 C1396 0.961 . S
H1383 C1397 0.960 . S
H1384 C1397 0.961 . S
H1385 C1397 0.959 . S
H1386 C1400 0.929 . S
H1387 C1401 0.931 . S
H1388 C1403 0.930 . S
C1389 H1377 0.930 . S
C1389 C1390 1.399 . S
C1389 C1394 1.399 . S
C1390 C1389 1.399 . S
C1390 C1391 1.376 . S
C1391 H1378 0.930 . S
C1391 C1390 1.376 . S
C1391 C1392 1.388 . S
C1392 H1379 0.930 . S
C1392 C1391 1.388 . S
C1392 C1393 1.390 . S
C1393 C1392 1.390 . S
C1393 C1394 1.394 . S
C1393 C1399 1.465 . S
C1394 C1389 1.399 . S
C1394 C1393 1.394 . S
C1394 C1395 1.516 . S
C1395 C1394 1.516 . S
C1395 C1396 1.502 . S
C1395 C1397 1.561 . S
C1395 C1398 1.526 . S
C1396 H1380 0.959 . S
C1396 H1381 0.959 . S
C1396 H1382 0.961 . S
C1396 C1395 1.502 . S
C1397 H1383 0.960 . S
C1397 H1384 0.961 . S
C1397 H1385 0.959 . S
C1397 C1395 1.561 . S
C1398 C1395 1.526 . S
C1398 C1399 1.396 . S
C1398 C1403 1.390 . S
C1399 C1393 1.465 . S
C1399 C1398 1.396 . S
C1399 C1400 1.399 . S
C1400 H1386 0.929 . S
C1400 C1399 1.399 . S
C1400 C1401 1.385 . S
C1401 H1387 0.931 . S
C1401 C1400 1.385 . S
C1401 C1402 1.389 . S
C1402 C1401 1.389 . S
C1402 C1403 1.387 . S
C1403 H1388 0.930 . S
C1403 C1398 1.390 . S
C1403 C1402 1.387 . S
H1404 C1416 0.930 . S
H1405 C1418 0.930 . S
H1406 C1419 0.930 . S
H1407 C1423 0.959 . S
H1408 C1423 0.959 . S
H1409 C1423 0.961 . S
H1410 C1424 0.960 . S
H1411 C1424 0.961 . S
H1412 C1424 0.959 . S
H1413 C1427 0.929 . S
H1414 C1428 0.931 . S
H1415 C1430 0.930 . S
C1416 H1404 0.930 . S
C1416 C1417 1.399 . S
C1416 C1421 1.399 . S
C1417 C1416 1.399 . S
C1417 C1418 1.376 . S
C1418 H1405 0.930 . S
C1418 C1417 1.376 . S
C1418 C1419 1.388 . S
C1419 H1406 0.930 . S
C1419 C1418 1.388 . S
C1419 C1420 1.390 . S
C1420 C1419 1.390 . S
C1420 C1421 1.394 . S
C1420 C1426 1.465 . S
C1421 C1416 1.399 . S
C1421 C1420 1.394 . S
C1421 C1422 1.516 . S
C1422 C1421 1.516 . S
C1422 C1423 1.502 . S
C1422 C1424 1.561 . S
C1422 C1425 1.526 . S
C1423 H1407 0.959 . S
C1423 H1408 0.959 . S
C1423 H1409 0.961 . S
C1423 C1422 1.502 . S
C1424 H1410 0.960 . S
C1424 H1411 0.961 . S
C1424 H1412 0.959 . S
C1424 C1422 1.561 . S
C1425 C1422 1.526 . S
C1425 C1426 1.396 . S
C1425 C1430 1.390 . S
C1426 C1420 1.465 . S
C1426 C1425 1.396 . S
C1426 C1427 1.399 . S
C1427 H1413 0.929 . S
C1427 C1426 1.399 . S
C1427 C1428 1.385 . S
C1428 H1414 0.931 . S
C1428 C1427 1.385 . S
C1428 C1429 1.389 . S
C1429 C1428 1.389 . S
C1429 C1430 1.387 . S
C1430 H1415 0.930 . S
C1430 C1425 1.390 . S
C1430 C1429 1.387 . S
H1431 C1443 0.930 . S
H1432 C1445 0.930 . S
H1433 C1446 0.930 . S
H1434 C1450 0.959 . S
H1435 C1450 0.959 . S
H1436 C1450 0.961 . S
H1437 C1451 0.960 . S
H1438 C1451 0.961 . S
H1439 C1451 0.959 . S
H1440 C1454 0.929 . S
H1441 C1455 0.931 . S
H1442 C1457 0.930 . S
C1443 H1431 0.930 . S
C1443 C1444 1.399 . S
C1443 C1448 1.399 . S
C1444 C1443 1.399 . S
C1444 C1445 1.376 . S
C1445 H1432 0.930 . S
C1445 C1444 1.376 . S
C1445 C1446 1.388 . S
C1446 H1433 0.930 . S
C1446 C1445 1.388 . S
C1446 C1447 1.390 . S
C1447 C1446 1.390 . S
C1447 C1448 1.394 . S
C1447 C1453 1.465 . S
C1448 C1443 1.399 . S
C1448 C1447 1.394 . S
C1448 C1449 1.516 . S
C1449 C1448 1.516 . S
C1449 C1450 1.502 . S
C1449 C1451 1.561 . S
C1449 C1452 1.526 . S
C1450 H1434 0.959 . S
C1450 H1435 0.959 . S
C1450 H1436 0.961 . S
C1450 C1449 1.502 . S
C1451 H1437 0.960 . S
C1451 H1438 0.961 . S
C1451 H1439 0.959 . S
C1451 C1449 1.561 . S
C1452 C1449 1.526 . S
C1452 C1453 1.396 . S
C1452 C1457 1.390 . S
C1453 C1447 1.465 . S
C1453 C1452 1.396 . S
C1453 C1454 1.399 . S
C1454 H1440 0.929 . S
C1454 C1453 1.399 . S
C1454 C1455 1.385 . S
C1455 H1441 0.931 . S
C1455 C1454 1.385 . S
C1455 C1456 1.389 . S
C1456 C1455 1.389 . S
C1456 C1457 1.387 . S
C1457 H1442 0.930 . S
C1457 C1452 1.390 . S
C1457 C1456 1.387 . S
H1458 C1470 0.930 . S
H1459 C1472 0.930 1_556 S
H1460 C1473 0.930 . S
H1461 C1477 0.959 . S
H1462 C1477 0.959 . S
H1463 C1477 0.961 . S
H1464 C1478 0.960 . S
H1465 C1478 0.961 . S
H1466 C1478 0.959 . S
H1467 C1481 0.929 . S
H1468 C1482 0.931 . S
H1469 C1484 0.930 . S
C1470 H1458 0.930 . S
C1470 C1471 1.399 . S
C1470 C1475 1.399 . S
C1471 C1470 1.399 . S
C1471 C1472 1.376 . S
C1472 H1459 0.930 1_554 S
C1472 C1471 1.376 . S
C1472 C1473 1.388 . S
C1473 H1460 0.930 . S
C1473 C1472 1.388 . S
C1473 C1474 1.390 . S
C1474 C1473 1.390 . S
C1474 C1475 1.394 . S
C1474 C1480 1.465 . S
C1475 C1470 1.399 . S
C1475 C1474 1.394 . S
C1475 C1476 1.516 . S
C1476 C1475 1.516 . S
C1476 C1477 1.502 . S
C1476 C1478 1.561 . S
C1476 C1479 1.526 . S
C1477 H1461 0.959 . S
C1477 H1462 0.959 . S
C1477 H1463 0.961 . S
C1477 C1476 1.502 . S
C1478 H1464 0.960 . S
C1478 H1465 0.961 . S
C1478 H1466 0.959 . S
C1478 C1476 1.561 . S
C1479 C1476 1.526 . S
C1479 C1480 1.396 . S
C1479 C1484 1.390 . S
C1480 C1474 1.465 . S
C1480 C1479 1.396 . S
C1480 C1481 1.399 . S
C1481 H1467 0.929 . S
C1481 C1480 1.399 . S
C1481 C1482 1.385 . S
C1482 H1468 0.931 . S
C1482 C1481 1.385 . S
C1482 C1483 1.389 . S
C1483 C1482 1.389 . S
C1483 C1484 1.387 . S
C1484 H1469 0.930 . S
C1484 C1479 1.390 . S
C1484 C1483 1.387 . S
H1485 C1497 0.930 . S
H1486 C1499 0.930 . S
H1487 C1500 0.930 . S
H1488 C1504 0.959 . S
H1489 C1504 0.959 . S
H1490 C1504 0.961 . S
H1491 C1505 0.960 . S
H1492 C1505 0.961 . S
H1493 C1505 0.959 . S
H1494 C1508 0.929 . S
H1495 C1509 0.931 1_556 S
H1496 C1511 0.930 . S
C1497 H1485 0.930 . S
C1497 C1498 1.399 . S
C1497 C1502 1.399 . S
C1498 C1497 1.399 . S
C1498 C1499 1.376 . S
C1499 H1486 0.930 . S
C1499 C1498 1.376 . S
C1499 C1500 1.388 . S
C1500 H1487 0.930 . S
C1500 C1499 1.388 . S
C1500 C1501 1.390 . S
C1501 C1500 1.390 . S
C1501 C1502 1.394 . S
C1501 C1507 1.465 . S
C1502 C1497 1.399 . S
C1502 C1501 1.394 . S
C1502 C1503 1.516 . S
C1503 C1502 1.516 . S
C1503 C1504 1.502 . S
C1503 C1505 1.561 . S
C1503 C1506 1.526 . S
C1504 H1488 0.959 . S
C1504 H1489 0.959 . S
C1504 H1490 0.961 . S
C1504 C1503 1.502 . S
C1505 H1491 0.960 . S
C1505 H1492 0.961 . S
C1505 H1493 0.959 . S
C1505 C1503 1.561 . S
C1506 C1503 1.526 . S
C1506 C1507 1.396 . S
C1506 C1511 1.390 . S
C1507 C1501 1.465 . S
C1507 C1506 1.396 . S
C1507 C1508 1.399 . S
C1508 H1494 0.929 . S
C1508 C1507 1.399 . S
C1508 C1509 1.385 . S
C1509 H1495 0.931 1_554 S
C1509 C1508 1.385 . S
C1509 C1510 1.389 . S
C1510 C1509 1.389 . S
C1510 C1511 1.387 . S
C1511 H1496 0.930 . S
C1511 C1506 1.390 . S
C1511 C1510 1.387 . S
H1512 C1524 0.930 . S
H1513 C1526 0.930 . S
H1514 C1527 0.930 . S
H1515 C1531 0.959 . S
H1516 C1531 0.959 . S
H1517 C1531 0.961 . S
H1518 C1532 0.960 . S
H1519 C1532 0.961 . S
H1520 C1532 0.959 . S
H1521 C1535 0.929 . S
H1522 C1536 0.931 . S
H1523 C1538 0.930 . S
C1524 H1512 0.930 . S
C1524 C1525 1.399 . S
C1524 C1529 1.399 . S
C1525 C1524 1.399 . S
C1525 C1526 1.376 . S
C1526 H1513 0.930 . S
C1526 C1525 1.376 . S
C1526 C1527 1.388 . S
C1527 H1514 0.930 . S
C1527 C1526 1.388 . S
C1527 C1528 1.390 . S
C1528 C1527 1.390 . S
C1528 C1529 1.394 . S
C1528 C1534 1.465 . S
C1529 C1524 1.399 . S
C1529 C1528 1.394 . S
C1529 C1530 1.516 . S
C1530 C1529 1.516 . S
C1530 C1531 1.502 . S
C1530 C1532 1.561 . S
C1530 C1533 1.526 . S
C1531 H1515 0.959 . S
C1531 H1516 0.959 . S
C1531 H1517 0.961 . S
C1531 C1530 1.502 . S
C1532 H1518 0.960 . S
C1532 H1519 0.961 . S
C1532 H1520 0.959 . S
C1532 C1530 1.561 . S
C1533 C1530 1.526 . S
C1533 C1534 1.396 . S
C1533 C1538 1.390 . S
C1534 C1528 1.465 . S
C1534 C1533 1.396 . S
C1534 C1535 1.399 . S
C1535 H1521 0.929 . S
C1535 C1534 1.399 . S
C1535 C1536 1.385 . S
C1536 H1522 0.931 . S
C1536 C1535 1.385 . S
C1536 C1537 1.389 . S
C1537 C1536 1.389 . S
C1537 C1538 1.387 . S
C1538 H1523 0.930 . S
C1538 C1533 1.390 . S
C1538 C1537 1.387 . S
H1539 C1551 0.930 . S
H1540 C1553 0.930 . S
H1541 C1554 0.930 1_565 S
H1542 C1558 0.959 . S
H1543 C1558 0.959 . S
H1544 C1558 0.961 . S
H1545 C1559 0.960 . S
H1546 C1559 0.961 . S
H1547 C1559 0.959 . S
H1548 C1562 0.929 . S
H1549 C1563 0.931 . S
H1550 C1565 0.930 . S
C1551 H1539 0.930 . S
C1551 C1552 1.399 . S
C1551 C1556 1.399 . S
C1552 C1551 1.399 . S
C1552 C1553 1.376 . S
C1553 H1540 0.930 . S
C1553 C1552 1.376 . S
C1553 C1554 1.388 . S
C1554 H1541 0.930 1_545 S
C1554 C1553 1.388 . S
C1554 C1555 1.390 . S
C1555 C1554 1.390 . S
C1555 C1556 1.394 . S
C1555 C1561 1.465 1_545 S
C1556 C1551 1.399 . S
C1556 C1555 1.394 . S
C1556 C1557 1.516 . S
C1557 C1556 1.516 . S
C1557 C1558 1.502 . S
C1557 C1559 1.561 . S
C1557 C1560 1.526 1_545 S
C1558 H1542 0.959 . S
C1558 H1543 0.959 . S
C1558 H1544 0.961 . S
C1558 C1557 1.502 . S
C1559 H1545 0.960 . S
C1559 H1546 0.961 . S
C1559 H1547 0.959 . S
C1559 C1557 1.561 . S
C1560 C1557 1.526 1_565 S
C1560 C1561 1.396 . S
C1560 C1565 1.390 . S
C1561 C1555 1.465 1_565 S
C1561 C1560 1.396 . S
C1561 C1562 1.399 . S
C1562 H1548 0.929 . S
C1562 C1561 1.399 . S
C1562 C1563 1.385 . S
C1563 H1549 0.931 . S
C1563 C1562 1.385 . S
C1563 C1564 1.389 . S
C1564 C1563 1.389 . S
C1564 C1565 1.387 . S
C1565 H1550 0.930 . S
C1565 C1560 1.390 . S
C1565 C1564 1.387 . S
H1566 C1578 0.930 . S
H1567 C1580 0.930 . S
H1568 C1581 0.930 . S
H1569 C1585 0.959 1_455 S
H1570 C1585 0.959 . S
H1571 C1585 0.961 1_455 S
H1572 C1586 0.960 . S
H1573 C1586 0.961 . S
H1574 C1586 0.959 . S
H1575 C1589 0.929 . S
H1576 C1590 0.931 . S
H1577 C1592 0.930 . S
C1578 H1566 0.930 . S
C1578 C1579 1.399 . S
C1578 C1583 1.399 . S
C1579 C1578 1.399 . S
C1579 C1580 1.376 . S
C1580 H1567 0.930 . S
C1580 C1579 1.376 . S
C1580 C1581 1.388 . S
C1581 H1568 0.930 . S
C1581 C1580 1.388 . S
C1581 C1582 1.390 . S
C1582 C1581 1.390 . S
C1582 C1583 1.394 . S
C1582 C1588 1.465 1_455 S
C1583 C1578 1.399 . S
C1583 C1582 1.394 . S
C1583 C1584 1.516 1_455 S
C1584 C1583 1.516 1_655 S
C1584 C1585 1.502 . S
C1584 C1586 1.561 . S
C1584 C1587 1.526 . S
C1585 H1569 0.959 1_655 S
C1585 H1570 0.959 . S
C1585 H1571 0.961 1_655 S
C1585 C1584 1.502 . S
C1586 H1572 0.960 . S
C1586 H1573 0.961 . S
C1586 H1574 0.959 . S
C1586 C1584 1.561 . S
C1587 C1584 1.526 . S
C1587 C1588 1.396 . S
C1587 C1592 1.390 . S
C1588 C1582 1.465 1_655 S
C1588 C1587 1.396 . S
C1588 C1589 1.399 . S
C1589 H1575 0.929 . S
C1589 C1588 1.399 . S
C1589 C1590 1.385 . S
C1590 H1576 0.931 . S
C1590 C1589 1.385 . S
C1590 C1591 1.389 . S
C1591 C1590 1.389 . S
C1591 C1592 1.387 . S
C1592 H1577 0.930 . S
C1592 C1587 1.390 . S
C1592 C1591 1.387 . S
H1593 C1605 0.930 . S
H1594 C1607 0.930 . S
H1595 C1608 0.930 . S
H1596 C1612 0.959 . S
H1597 C1612 0.959 . S
H1598 C1612 0.961 . S
H1599 C1613 0.960 . S
H1600 C1613 0.961 . S
H1601 C1613 0.959 . S
H1602 C1616 0.929 . S
H1603 C1617 0.931 . S
H1604 C1619 0.930 . S
C1605 H1593 0.930 . S
C1605 C1606 1.399 . S
C1605 C1610 1.399 . S
C1606 C1605 1.399 . S
C1606 C1607 1.376 . S
C1607 H1594 0.930 . S
C1607 C1606 1.376 . S
C1607 C1608 1.388 . S
C1608 H1595 0.930 . S
C1608 C1607 1.388 . S
C1608 C1609 1.390 . S
C1609 C1608 1.390 . S
C1609 C1610 1.394 . S
C1609 C1615 1.465 . S
C1610 C1605 1.399 . S
C1610 C1609 1.394 . S
C1610 C1611 1.516 . S
C1611 C1610 1.516 . S
C1611 C1612 1.502 . S
C1611 C1613 1.561 . S
C1611 C1614 1.526 . S
C1612 H1596 0.959 . S
C1612 H1597 0.959 . S
C1612 H1598 0.961 . S
C1612 C1611 1.502 . S
C1613 H1599 0.960 . S
C1613 H1600 0.961 . S
C1613 H1601 0.959 . S
C1613 C1611 1.561 . S
C1614 C1611 1.526 . S
C1614 C1615 1.396 . S
C1614 C1619 1.390 . S
C1615 C1609 1.465 . S
C1615 C1614 1.396 . S
C1615 C1616 1.399 . S
C1616 H1602 0.929 . S
C1616 C1615 1.399 . S
C1616 C1617 1.385 . S
C1617 H1603 0.931 . S
C1617 C1616 1.385 . S
C1617 C1618 1.389 . S
C1618 C1617 1.389 . S
C1618 C1619 1.387 . S
C1619 H1604 0.930 . S
C1619 C1614 1.390 . S
C1619 C1618 1.387 . S
H1620 C1632 0.930 . S
H1621 C1634 0.930 . S
H1622 C1635 0.930 1_545 S
H1623 C1639 0.959 . S
H1624 C1639 0.959 . S
H1625 C1639 0.961 . S
H1626 C1640 0.960 . S
H1627 C1640 0.961 . S
H1628 C1640 0.959 . S
H1629 C1643 0.929 . S
H1630 C1644 0.931 . S
H1631 C1646 0.930 . S
C1632 H1620 0.930 . S
C1632 C1633 1.399 . S
C1632 C1637 1.399 . S
C1633 C1632 1.399 . S
C1633 C1634 1.376 . S
C1634 H1621 0.930 . S
C1634 C1633 1.376 . S
C1634 C1635 1.388 . S
C1635 H1622 0.930 1_565 S
C1635 C1634 1.388 . S
C1635 C1636 1.390 . S
C1636 C1635 1.390 . S
C1636 C1637 1.394 . S
C1636 C1642 1.465 1_565 S
C1637 C1632 1.399 . S
C1637 C1636 1.394 . S
C1637 C1638 1.516 . S
C1638 C1637 1.516 . S
C1638 C1639 1.502 . S
C1638 C1640 1.561 . S
C1638 C1641 1.526 1_565 S
C1639 H1623 0.959 . S
C1639 H1624 0.959 . S
C1639 H1625 0.961 . S
C1639 C1638 1.502 . S
C1640 H1626 0.960 . S
C1640 H1627 0.961 . S
C1640 H1628 0.959 . S
C1640 C1638 1.561 . S
C1641 C1638 1.526 1_545 S
C1641 C1642 1.396 . S
C1641 C1646 1.390 . S
C1642 C1636 1.465 1_545 S
C1642 C1641 1.396 . S
C1642 C1643 1.399 . S
C1643 H1629 0.929 . S
C1643 C1642 1.399 . S
C1643 C1644 1.385 . S
C1644 H1630 0.931 . S
C1644 C1643 1.385 . S
C1644 C1645 1.389 . S
C1645 C1644 1.389 . S
C1645 C1646 1.387 . S
C1646 H1631 0.930 . S
C1646 C1641 1.390 . S
C1646 C1645 1.387 . S
H1647 C1659 0.930 . S
H1648 C1661 0.930 . S
H1649 C1662 0.930 . S
H1650 C1666 0.959 . S
H1651 C1666 0.959 . S
H1652 C1666 0.961 . S
H1653 C1667 0.960 . S
H1654 C1667 0.961 . S
H1655 C1667 0.959 . S
H1656 C1670 0.929 1_655 S
H1657 C1671 0.931 . S
H1658 C1673 0.930 . S
C1659 H1647 0.930 . S
C1659 C1660 1.399 . S
C1659 C1664 1.399 . S
C1660 C1659 1.399 . S
C1660 C1661 1.376 . S
C1661 H1648 0.930 . S
C1661 C1660 1.376 . S
C1661 C1662 1.388 . S
C1662 H1649 0.930 . S
C1662 C1661 1.388 . S
C1662 C1663 1.390 . S
C1663 C1662 1.390 . S
C1663 C1664 1.394 . S
C1663 C1669 1.465 1_655 S
C1664 C1659 1.399 . S
C1664 C1663 1.394 . S
C1664 C1665 1.516 1_655 S
C1665 C1664 1.516 1_455 S
C1665 C1666 1.502 . S
C1665 C1667 1.561 . S
C1665 C1668 1.526 . S
C1666 H1650 0.959 . S
C1666 H1651 0.959 . S
C1666 H1652 0.961 . S
C1666 C1665 1.502 . S
C1667 H1653 0.960 . S
C1667 H1654 0.961 . S
C1667 H1655 0.959 . S
C1667 C1665 1.561 . S
C1668 C1665 1.526 . S
C1668 C1669 1.396 . S
C1668 C1673 1.390 . S
C1669 C1663 1.465 1_455 S
C1669 C1668 1.396 . S
C1669 C1670 1.399 . S
C1670 H1656 0.929 1_455 S
C1670 C1669 1.399 . S
C1670 C1671 1.385 . S
C1671 H1657 0.931 . S
C1671 C1670 1.385 . S
C1671 C1672 1.389 . S
C1672 C1671 1.389 . S
C1672 C1673 1.387 . S
C1673 H1658 0.930 . S
C1673 C1668 1.390 . S
C1673 C1672 1.387 . S
H1674 C1686 0.930 . S
H1675 C1688 0.930 . S
H1676 C1689 0.930 . S
H1677 C1693 0.959 . S
H1678 C1693 0.959 . S
H1679 C1693 0.961 . S
H1680 C1694 0.960 . S
H1681 C1694 0.961 . S
H1682 C1694 0.973 . S
H1683 C1697 0.929 . S
H1684 C1698 0.931 . S
H1685 C1700 0.930 . S
C1686 H1674 0.930 . S
C1686 C1687 1.399 1_554 S
C1686 C1691 1.399 . S
C1687 C1686 1.399 1_556 S
C1687 C1688 1.376 . S
C1688 H1675 0.930 . S
C1688 C1687 1.376 . S
C1688 C1689 1.388 . S
C1689 H1676 0.930 . S
C1689 C1688 1.388 . S
C1689 C1690 1.390 . S
C1690 C1689 1.390 . S
C1690 C1691 1.394 1_556 S
C1690 C1696 1.465 . S
C1691 C1686 1.399 . S
C1691 C1690 1.394 1_554 S
C1691 C1692 1.516 . S
C1692 C1691 1.516 . S
C1692 C1693 1.502 . S
C1692 C1694 1.561 . S
C1692 C1695 1.526 . S
C1693 H1677 0.959 . S
C1693 H1678 0.959 . S
C1693 H1679 0.961 . S
C1693 C1692 1.502 . S
C1694 H1680 0.960 . S
C1694 H1681 0.961 . S
C1694 H1682 0.973 . S
C1694 C1692 1.561 . S
C1695 C1692 1.526 . S
C1695 C1696 1.396 1_554 S
C1695 C1700 1.390 . S
C1696 C1690 1.465 . S
C1696 C1695 1.396 1_556 S
C1696 C1697 1.399 . S
C1697 H1683 0.929 . S
C1697 C1696 1.399 . S
C1697 C1698 1.385 . S
C1698 H1684 0.931 . S
C1698 C1697 1.385 . S
C1698 C1699 1.389 . S
C1699 C1698 1.389 . S
C1699 C1700 1.387 1_556 S
C1700 H1685 0.930 . S
C1700 C1695 1.390 . S
C1700 C1699 1.387 1_554 S
H1701 C1713 0.930 . S
H1702 C1715 0.930 . S
H1703 C1716 0.930 . S
H1704 C1720 0.959 . S
H1705 C1720 0.959 . S
H1706 C1720 0.961 . S
H1707 C1721 0.960 . S
H1708 C1721 0.961 . S
H1709 C1721 0.959 . S
H1710 C1724 0.929 . S
H1711 C1725 0.931 . S
H1712 C1727 0.930 . S
C1713 H1701 0.930 . S
C1713 C1714 1.398 1_556 S
C1713 C1718 1.399 . S
C1714 C1713 1.398 1_554 S
C1714 C1715 1.378 . S
C1715 H1702 0.930 . S
C1715 C1714 1.378 . S
C1715 C1716 1.388 . S
C1716 H1703 0.930 . S
C1716 C1715 1.388 . S
C1716 C1717 1.390 . S
C1717 C1716 1.390 . S
C1717 C1718 1.394 1_554 S
C1717 C1723 1.465 . S
C1718 C1713 1.399 . S
C1718 C1717 1.394 1_556 S
C1718 C1719 1.516 . S
C1719 C1718 1.516 . S
C1719 C1720 1.502 . S
C1719 C1721 1.561 . S
C1719 C1722 1.526 . S
C1720 H1704 0.959 . S
C1720 H1705 0.959 . S
C1720 H1706 0.961 . S
C1720 C1719 1.502 . S
C1721 H1707 0.960 . S
C1721 H1708 0.961 . S
C1721 H1709 0.959 . S
C1721 C1719 1.561 . S
C1722 C1719 1.526 . S
C1722 C1723 1.396 1_556 S
C1722 C1727 1.390 . S
C1723 C1717 1.465 . S
C1723 C1722 1.396 1_554 S
C1723 C1724 1.399 . S
C1724 H1710 0.929 . S
C1724 C1723 1.399 . S
C1724 C1725 1.385 . S
C1725 H1711 0.931 . S
C1725 C1724 1.385 . S
C1725 C1726 1.389 . S
C1726 C1725 1.389 . S
C1726 C1727 1.387 1_554 S
C1727 H1712 0.930 . S
C1727 C1722 1.390 . S
C1727 C1726 1.387 1_556 S
H1728 C1740 0.930 . S
H1729 C1742 0.930 . S
H1730 C1743 0.930 . S
H1731 C1747 0.959 . S
H1732 C1747 0.959 . S
H1733 C1747 0.961 . S
H1734 C1748 0.960 . S
H1735 C1748 0.961 . S
H1736 C1748 0.959 . S
H1737 C1751 0.929 . S
H1738 C1752 0.931 . S
H1739 C1754 0.930 . S
C1740 H1728 0.930 . S
C1740 C1741 1.399 1_554 S
C1740 C1745 1.399 . S
C1741 C1740 1.399 1_556 S
C1741 C1742 1.376 . S
C1742 H1729 0.930 . S
C1742 C1741 1.376 . S
C1742 C1743 1.388 . S
C1743 H1730 0.930 . S
C1743 C1742 1.388 . S
C1743 C1744 1.390 . S
C1744 C1743 1.390 . S
C1744 C1745 1.394 1_556 S
C1744 C1750 1.465 . S
C1745 C1740 1.399 . S
C1745 C1744 1.394 1_554 S
C1745 C1746 1.516 . S
C1746 C1745 1.516 . S
C1746 C1747 1.502 . S
C1746 C1748 1.561 . S
C1746 C1749 1.526 . S
C1747 H1731 0.959 . S
C1747 H1732 0.959 . S
C1747 H1733 0.961 . S
C1747 C1746 1.502 . S
C1748 H1734 0.960 . S
C1748 H1735 0.961 . S
C1748 H1736 0.959 . S
C1748 C1746 1.561 . S
C1749 C1746 1.526 . S
C1749 C1750 1.396 1_554 S
C1749 C1754 1.390 . S
C1750 C1744 1.465 . S
C1750 C1749 1.396 1_556 S
C1750 C1751 1.399 . S
C1751 H1737 0.929 . S
C1751 C1750 1.399 . S
C1751 C1752 1.385 . S
C1752 H1738 0.931 . S
C1752 C1751 1.385 . S
C1752 C1753 1.389 . S
C1753 C1752 1.389 . S
C1753 C1754 1.387 1_556 S
C1754 H1739 0.930 . S
C1754 C1749 1.390 . S
C1754 C1753 1.387 1_554 S
H1755 C1767 0.930 . S
H1756 C1769 0.930 . S
H1757 C1770 0.930 . S
H1758 C1774 0.959 . S
H1759 C1774 0.959 . S
H1760 C1774 0.961 . S
H1761 C1775 0.960 . S
H1762 C1775 0.961 1_556 S
H1763 C1775 0.959 . S
H1764 C1778 0.929 . S
H1765 C1779 0.931 . S
H1766 C1781 0.930 . S
C1767 H1755 0.930 . S
C1767 C1768 1.399 1_556 S
C1767 C1772 1.399 . S
C1768 C1767 1.399 1_554 S
C1768 C1769 1.376 . S
C1769 H1756 0.930 . S
C1769 C1768 1.376 . S
C1769 C1770 1.388 . S
C1770 H1757 0.930 . S
C1770 C1769 1.388 . S
C1770 C1771 1.390 . S
C1771 C1770 1.390 . S
C1771 C1772 1.394 1_554 S
C1771 C1777 1.465 . S
C1772 C1767 1.399 . S
C1772 C1771 1.394 1_556 S
C1772 C1773 1.516 . S
C1773 C1772 1.516 . S
C1773 C1774 1.502 . S
C1773 C1775 1.561 1_556 S
C1773 C1776 1.526 . S
C1774 H1758 0.959 . S
C1774 H1759 0.959 . S
C1774 H1760 0.961 . S
C1774 C1773 1.502 . S
C1775 H1761 0.960 . S
C1775 H1762 0.961 1_554 S
C1775 H1763 0.959 . S
C1775 C1773 1.561 1_554 S
C1776 C1773 1.526 . S
C1776 C1777 1.396 1_556 S
C1776 C1781 1.390 . S
C1777 C1771 1.465 . S
C1777 C1776 1.396 1_554 S
C1777 C1778 1.399 . S
C1778 H1764 0.929 . S
C1778 C1777 1.399 . S
C1778 C1779 1.385 . S
C1779 H1765 0.931 . S
C1779 C1778 1.385 . S
C1779 C1780 1.389 . S
C1780 C1779 1.389 . S
C1780 C1781 1.387 1_554 S
C1781 H1766 0.930 . S
C1781 C1776 1.390 . S
C1781 C1780 1.387 1_556 S
H1782 C1794 0.930 . S
H1783 C1796 0.930 . S
H1784 C1797 0.930 . S
H1785 C1801 0.959 . S
H1786 C1801 0.959 . S
H1787 C1801 0.961 . S
H1788 C1802 0.960 . S
H1789 C1802 0.961 . S
H1790 C1802 0.959 . S
H1791 C1805 0.929 . S
H1792 C1806 0.931 . S
H1793 C1808 0.930 . S
C1794 H1782 0.930 . S
C1794 C1795 1.399 1_554 S
C1794 C1799 1.399 . S
C1795 C1794 1.399 1_556 S
C1795 C1796 1.376 . S
C1796 H1783 0.930 . S
C1796 C1795 1.376 . S
C1796 C1797 1.388 . S
C1797 H1784 0.930 . S
C1797 C1796 1.388 . S
C1797 C1798 1.390 . S
C1798 C1797 1.390 . S
C1798 C1799 1.394 1_556 S
C1798 C1804 1.465 . S
C1799 C1794 1.399 . S
C1799 C1798 1.394 1_554 S
C1799 C1800 1.516 . S
C1800 C1799 1.516 . S
C1800 C1801 1.502 . S
C1800 C1802 1.561 . S
C1800 C1803 1.526 . S
C1801 H1785 0.959 . S
C1801 H1786 0.959 . S
C1801 H1787 0.961 . S
C1801 C1800 1.502 . S
C1802 H1788 0.960 . S
C1802 H1789 0.961 . S
C1802 H1790 0.959 . S
C1802 C1800 1.561 . S
C1803 C1800 1.526 . S
C1803 C1804 1.396 1_554 S
C1803 C1808 1.390 . S
C1804 C1798 1.465 . S
C1804 C1803 1.396 1_556 S
C1804 C1805 1.399 . S
C1805 H1791 0.929 . S
C1805 C1804 1.399 . S
C1805 C1806 1.385 . S
C1806 H1792 0.931 . S
C1806 C1805 1.385 . S
C1806 C1807 1.389 . S
C1807 C1806 1.389 . S
C1807 C1808 1.387 1_556 S
C1808 H1793 0.930 . S
C1808 C1803 1.390 . S
C1808 C1807 1.387 1_554 S
H1809 C1821 0.930 . S
H1810 C1823 0.930 . S
H1811 C1824 0.930 . S
H1812 C1828 0.959 . S
H1813 C1828 0.959 . S
H1814 C1828 0.961 . S
H1815 C1829 0.960 . S
H1816 C1829 0.961 . S
H1817 C1829 0.959 . S
H1818 C1832 0.929 . S
H1819 C1833 0.931 . S
H1820 C1835 0.930 . S
C1821 H1809 0.930 . S
C1821 C1822 1.399 1_554 S
C1821 C1826 1.399 . S
C1822 C1821 1.399 1_556 S
C1822 C1823 1.376 . S
C1823 H1810 0.930 . S
C1823 C1822 1.376 . S
C1823 C1824 1.388 . S
C1824 H1811 0.930 . S
C1824 C1823 1.388 . S
C1824 C1825 1.390 . S
C1825 C1824 1.390 . S
C1825 C1826 1.394 1_556 S
C1825 C1831 1.465 . S
C1826 C1821 1.399 . S
C1826 C1825 1.394 1_554 S
C1826 C1827 1.516 . S
C1827 C1826 1.516 . S
C1827 C1828 1.502 . S
C1827 C1829 1.561 1_554 S
C1827 C1830 1.526 . S
C1828 H1812 0.959 . S
C1828 H1813 0.959 . S
C1828 H1814 0.961 . S
C1828 C1827 1.502 . S
C1829 H1815 0.960 . S
C1829 H1816 0.961 . S
C1829 H1817 0.959 . S
C1829 C1827 1.561 1_556 S
C1830 C1827 1.526 . S
C1830 C1831 1.396 1_554 S
C1830 C1835 1.390 . S
C1831 C1825 1.465 . S
C1831 C1830 1.396 1_556 S
C1831 C1832 1.399 . S
C1832 H1818 0.929 . S
C1832 C1831 1.399 . S
C1832 C1833 1.385 . S
C1833 H1819 0.931 . S
C1833 C1832 1.385 . S
C1833 C1834 1.389 . S
C1834 C1833 1.389 . S
C1834 C1835 1.387 1_556 S
C1835 H1820 0.930 . S
C1835 C1830 1.390 . S
C1835 C1834 1.387 1_554 S
H1836 C1848 0.930 . S
H1837 C1850 0.930 . S
H1838 C1851 0.930 . S
H1839 C1855 0.959 . S
H1840 C1855 0.959 . S
H1841 C1855 0.961 . S
H1842 C1856 0.960 . S
H1843 C1856 0.961 . S
H1844 C1856 0.959 . S
H1845 C1859 0.929 . S
H1846 C1860 0.931 . S
H1847 C1862 0.930 . S
C1848 H1836 0.930 . S
C1848 C1849 1.399 . S
C1848 C1853 1.399 . S
C1849 C1848 1.399 . S
C1849 C1850 1.376 . S
C1850 H1837 0.930 . S
C1850 C1849 1.376 . S
C1850 C1851 1.388 . S
C1851 H1838 0.930 . S
C1851 C1850 1.388 . S
C1851 C1852 1.390 . S
C1852 C1851 1.390 . S
C1852 C1853 1.394 . S
C1852 C1858 1.465 . S
C1853 C1848 1.399 . S
C1853 C1852 1.394 . S
C1853 C1854 1.516 . S
C1854 C1853 1.516 . S
C1854 C1855 1.502 . S
C1854 C1856 1.561 . S
C1854 C1857 1.526 . S
C1855 H1839 0.959 . S
C1855 H1840 0.959 . S
C1855 H1841 0.961 . S
C1855 C1854 1.502 . S
C1856 H1842 0.960 . S
C1856 H1843 0.961 . S
C1856 H1844 0.959 . S
C1856 C1854 1.561 . S
C1857 C1854 1.526 . S
C1857 C1858 1.396 . S
C1857 C1862 1.390 . S
C1858 C1852 1.465 . S
C1858 C1857 1.396 . S
C1858 C1859 1.399 . S
C1859 H1845 0.929 . S
C1859 C1858 1.399 . S
C1859 C1860 1.385 . S
C1860 H1846 0.931 . S
C1860 C1859 1.385 . S
C1860 C1861 1.389 . S
C1861 C1860 1.389 . S
C1861 C1862 1.387 . S
C1862 H1847 0.930 . S
C1862 C1857 1.390 . S
C1862 C1861 1.387 . S
H1863 C1875 0.930 . S
H1864 C1877 0.930 . S
H1865 C1878 0.930 . S
H1866 C1882 0.959 . S
H1867 C1882 0.959 . S
H1868 C1882 0.961 . S
H1869 C1883 0.960 . S
H1870 C1883 0.961 . S
H1871 C1883 0.959 . S
H1872 C1886 0.929 . S
H1873 C1887 0.931 . S
H1874 C1889 0.930 . S
C1875 H1863 0.930 . S
C1875 C1876 1.399 . S
C1875 C1880 1.399 . S
C1876 C1875 1.399 . S
C1876 C1877 1.376 . S
C1877 H1864 0.930 . S
C1877 C1876 1.376 . S
C1877 C1878 1.388 . S
C1878 H1865 0.930 . S
C1878 C1877 1.388 . S
C1878 C1879 1.390 . S
C1879 C1878 1.390 . S
C1879 C1880 1.394 . S
C1879 C1885 1.465 . S
C1880 C1875 1.399 . S
C1880 C1879 1.394 . S
C1880 C1881 1.516 . S
C1881 C1880 1.516 . S
C1881 C1882 1.502 . S
C1881 C1883 1.561 . S
C1881 C1884 1.526 . S
C1882 H1866 0.959 . S
C1882 H1867 0.959 . S
C1882 H1868 0.961 . S
C1882 C1881 1.502 . S
C1883 H1869 0.960 . S
C1883 H1870 0.961 . S
C1883 H1871 0.959 . S
C1883 C1881 1.561 . S
C1884 C1881 1.526 . S
C1884 C1885 1.396 . S
C1884 C1889 1.390 . S
C1885 C1879 1.465 . S
C1885 C1884 1.396 . S
C1885 C1886 1.399 . S
C1886 H1872 0.929 . S
C1886 C1885 1.399 . S
C1886 C1887 1.385 . S
C1887 H1873 0.931 . S
C1887 C1886 1.385 . S
C1887 C1888 1.389 . S
C1888 C1887 1.389 . S
C1888 C1889 1.387 . S
C1889 H1874 0.930 . S
C1889 C1884 1.390 . S
C1889 C1888 1.387 . S
H1890 C1902 0.930 . S
H1891 C1904 0.930 . S
H1892 C1905 0.930 . S
H1893 C1909 0.959 . S
H1894 C1909 0.959 . S
H1895 C1909 0.961 . S
H1896 C1910 0.960 . S
H1897 C1910 0.961 . S
H1898 C1910 0.959 . S
H1899 C1913 0.929 . S
H1900 C1914 0.931 . S
H1901 C1916 0.930 . S
C1902 H1890 0.930 . S
C1902 C1903 1.399 . S
C1902 C1907 1.399 . S
C1903 C1902 1.399 . S
C1903 C1904 1.376 . S
C1904 H1891 0.930 . S
C1904 C1903 1.376 . S
C1904 C1905 1.388 . S
C1905 H1892 0.930 . S
C1905 C1904 1.388 . S
C1905 C1906 1.390 . S
C1906 C1905 1.390 . S
C1906 C1907 1.394 . S
C1906 C1912 1.465 . S
C1907 C1902 1.399 . S
C1907 C1906 1.394 . S
C1907 C1908 1.516 . S
C1908 C1907 1.516 . S
C1908 C1909 1.502 . S
C1908 C1910 1.561 . S
C1908 C1911 1.526 . S
C1909 H1893 0.959 . S
C1909 H1894 0.959 . S
C1909 H1895 0.961 . S
C1909 C1908 1.502 . S
C1910 H1896 0.960 . S
C1910 H1897 0.961 . S
C1910 H1898 0.959 . S
C1910 C1908 1.561 . S
C1911 C1908 1.526 . S
C1911 C1912 1.396 . S
C1911 C1916 1.390 . S
C1912 C1906 1.465 . S
C1912 C1911 1.396 . S
C1912 C1913 1.399 . S
C1913 H1899 0.929 . S
C1913 C1912 1.399 . S
C1913 C1914 1.385 . S
C1914 H1900 0.931 . S
C1914 C1913 1.385 . S
C1914 C1915 1.389 . S
C1915 C1914 1.389 . S
C1915 C1916 1.387 . S
C1916 H1901 0.930 . S
C1916 C1911 1.390 . S
C1916 C1915 1.387 . S
H1917 C1929 0.930 . S
H1918 C1931 0.930 . S
H1919 C1932 0.930 . S
H1920 C1936 0.959 . S
H1921 C1936 0.959 . S
H1922 C1936 0.961 . S
H1923 C1937 0.960 . S
H1924 C1937 0.961 . S
H1925 C1937 0.959 . S
H1926 C1940 0.929 . S
H1927 C1941 0.931 . S
H1928 C1943 0.930 . S
C1929 H1917 0.930 . S
C1929 C1930 1.399 . S
C1929 C1934 1.399 . S
C1930 C1929 1.399 . S
C1930 C1931 1.376 . S
C1931 H1918 0.930 . S
C1931 C1930 1.376 . S
C1931 C1932 1.388 . S
C1932 H1919 0.930 . S
C1932 C1931 1.388 . S
C1932 C1933 1.390 . S
C1933 C1932 1.390 . S
C1933 C1934 1.394 . S
C1933 C1939 1.465 . S
C1934 C1929 1.399 . S
C1934 C1933 1.394 . S
C1934 C1935 1.516 . S
C1935 C1934 1.516 . S
C1935 C1936 1.502 . S
C1935 C1937 1.561 . S
C1935 C1938 1.526 . S
C1936 H1920 0.959 . S
C1936 H1921 0.959 . S
C1936 H1922 0.961 . S
C1936 C1935 1.502 . S
C1937 H1923 0.960 . S
C1937 H1924 0.961 . S
C1937 H1925 0.959 . S
C1937 C1935 1.561 . S
C1938 C1935 1.526 . S
C1938 C1939 1.396 . S
C1938 C1943 1.390 . S
C1939 C1933 1.465 . S
C1939 C1938 1.396 . S
C1939 C1940 1.399 . S
C1940 H1926 0.929 . S
C1940 C1939 1.399 . S
C1940 C1941 1.385 . S
C1941 H1927 0.931 . S
C1941 C1940 1.385 . S
C1941 C1942 1.389 . S
C1942 C1941 1.389 . S
C1942 C1943 1.387 . S
C1943 H1928 0.930 . S
C1943 C1938 1.390 . S
C1943 C1942 1.387 . S
H1944 C1956 0.930 . S
H1945 C1958 0.930 . S
H1946 C1959 0.930 . S
H1947 C1963 0.959 . S
H1948 C1963 0.959 . S
H1949 C1963 0.961 . S
H1950 C1964 0.960 . S
H1951 C1964 0.961 . S
H1952 C1964 0.959 . S
H1953 C1967 0.929 . S
H1954 C1968 0.931 . S
H1955 C1970 0.930 . S
C1956 H1944 0.930 . S
C1956 C1957 1.399 . S
C1956 C1961 1.399 . S
C1957 C1956 1.399 . S
C1957 C1958 1.376 . S
C1958 H1945 0.930 . S
C1958 C1957 1.376 . S
C1958 C1959 1.388 . S
C1959 H1946 0.930 . S
C1959 C1958 1.388 . S
C1959 C1960 1.390 . S
C1960 C1959 1.390 . S
C1960 C1961 1.394 . S
C1960 C1966 1.465 . S
C1961 C1956 1.399 . S
C1961 C1960 1.394 . S
C1961 C1962 1.516 . S
C1962 C1961 1.516 . S
C1962 C1963 1.502 . S
C1962 C1964 1.561 . S
C1962 C1965 1.526 . S
C1963 H1947 0.959 . S
C1963 H1948 0.959 . S
C1963 H1949 0.961 . S
C1963 C1962 1.502 . S
C1964 H1950 0.960 . S
C1964 H1951 0.961 . S
C1964 H1952 0.959 . S
C1964 C1962 1.561 . S
C1965 C1962 1.526 . S
C1965 C1966 1.396 . S
C1965 C1970 1.390 . S
C1966 C1960 1.465 . S
C1966 C1965 1.396 . S
C1966 C1967 1.399 . S
C1967 H1953 0.929 . S
C1967 C1966 1.399 . S
C1967 C1968 1.385 . S
C1968 H1954 0.931 . S
C1968 C1967 1.385 . S
C1968 C1969 1.389 . S
C1969 C1968 1.389 . S
C1969 C1970 1.387 . S
C1970 H1955 0.930 . S
C1970 C1965 1.390 . S
C1970 C1969 1.387 . S
H1971 C1983 0.930 . S
H1972 C1985 0.930 . S
H1973 C1986 0.930 . S
H1974 C1990 0.959 . S
H1975 C1990 0.959 . S
H1976 C1990 0.961 . S
H1977 C1991 0.960 . S
H1978 C1991 0.961 . S
H1979 C1991 0.959 . S
H1980 C1994 0.929 . S
H1981 C1995 0.931 . S
H1982 C1997 0.930 . S
C1983 H1971 0.930 . S
C1983 C1984 1.399 . S
C1983 C1988 1.399 . S
C1984 C1983 1.399 . S
C1984 C1985 1.376 . S
C1985 H1972 0.930 . S
C1985 C1984 1.376 . S
C1985 C1986 1.388 . S
C1986 H1973 0.930 . S
C1986 C1985 1.388 . S
C1986 C1987 1.390 . S
C1987 C1986 1.390 . S
C1987 C1988 1.394 . S
C1987 C1993 1.465 . S
C1988 C1983 1.399 . S
C1988 C1987 1.394 . S
C1988 C1989 1.516 . S
C1989 C1988 1.516 . S
C1989 C1990 1.502 . S
C1989 C1991 1.561 . S
C1989 C1992 1.526 . S
C1990 H1974 0.959 . S
C1990 H1975 0.959 . S
C1990 H1976 0.961 . S
C1990 C1989 1.502 . S
C1991 H1977 0.960 . S
C1991 H1978 0.961 . S
C1991 H1979 0.959 . S
C1991 C1989 1.561 . S
C1992 C1989 1.526 . S
C1992 C1993 1.396 . S
C1992 C1997 1.390 . S
C1993 C1987 1.465 . S
C1993 C1992 1.396 . S
C1993 C1994 1.399 . S
C1994 H1980 0.929 . S
C1994 C1993 1.399 . S
C1994 C1995 1.385 . S
C1995 H1981 0.931 . S
C1995 C1994 1.385 . S
C1995 C1996 1.389 . S
C1996 C1995 1.389 . S
C1996 C1997 1.387 . S
C1997 H1982 0.930 . S
C1997 C1992 1.390 . S
C1997 C1996 1.387 . S
H1998 C2010 0.930 . S
H1999 C2012 0.930 . S
H2000 C2013 0.930 . S
H2001 C2017 0.959 . S
H2002 C2017 0.959 . S
H2003 C2017 0.961 . S
H2004 C2018 0.960 . S
H2005 C2018 0.961 . S
H2006 C2018 0.959 . S
H2007 C2021 0.929 . S
H2008 C2022 0.931 . S
H2009 C2024 0.930 . S
C2010 H1998 0.930 . S
C2010 C2011 1.399 . S
C2010 C2015 1.399 . S
C2011 C2010 1.399 . S
C2011 C2012 1.376 . S
C2012 H1999 0.930 . S
C2012 C2011 1.376 . S
C2012 C2013 1.388 . S
C2013 H2000 0.930 . S
C2013 C2012 1.388 . S
C2013 C2014 1.390 . S
C2014 C2013 1.390 . S
C2014 C2015 1.394 . S
C2014 C2020 1.465 . S
C2015 C2010 1.399 . S
C2015 C2014 1.394 . S
C2015 C2016 1.516 . S
C2016 C2015 1.516 . S
C2016 C2017 1.502 . S
C2016 C2018 1.561 . S
C2016 C2019 1.526 . S
C2017 H2001 0.959 . S
C2017 H2002 0.959 . S
C2017 H2003 0.961 . S
C2017 C2016 1.502 . S
C2018 H2004 0.960 . S
C2018 H2005 0.961 . S
C2018 H2006 0.959 . S
C2018 C2016 1.561 . S
C2019 C2016 1.526 . S
C2019 C2020 1.396 . S
C2019 C2024 1.390 . S
C2020 C2014 1.465 . S
C2020 C2019 1.396 . S
C2020 C2021 1.399 . S
C2021 H2007 0.929 . S
C2021 C2020 1.399 . S
C2021 C2022 1.385 . S
C2022 H2008 0.931 . S
C2022 C2021 1.385 . S
C2022 C2023 1.389 . S
C2023 C2022 1.389 . S
C2023 C2024 1.387 . S
C2024 H2009 0.930 . S
C2024 C2019 1.390 . S
C2024 C2023 1.387 . S
H2025 C2037 0.930 . S
H2026 C2039 0.930 . S
H2027 C2040 0.930 . S
H2028 C2044 0.959 . S
H2029 C2044 0.959 . S
H2030 C2044 0.961 . S
H2031 C2045 0.960 . S
H2032 C2045 0.961 . S
H2033 C2045 0.959 . S
H2034 C2048 0.929 . S
H2035 C2049 0.931 . S
H2036 C2051 0.930 . S
C2037 H2025 0.930 . S
C2037 C2038 1.399 . S
C2037 C2042 1.399 . S
C2038 C2037 1.399 . S
C2038 C2039 1.376 . S
C2039 H2026 0.930 . S
C2039 C2038 1.376 . S
C2039 C2040 1.388 . S
C2040 H2027 0.930 . S
C2040 C2039 1.388 . S
C2040 C2041 1.390 . S
C2041 C2040 1.390 . S
C2041 C2042 1.394 . S
C2041 C2047 1.465 . S
C2042 C2037 1.399 . S
C2042 C2041 1.394 . S
C2042 C2043 1.516 . S
C2043 C2042 1.516 . S
C2043 C2044 1.502 . S
C2043 C2045 1.561 . S
C2043 C2046 1.526 . S
C2044 H2028 0.959 . S
C2044 H2029 0.959 . S
C2044 H2030 0.961 . S
C2044 C2043 1.502 . S
C2045 H2031 0.960 . S
C2045 H2032 0.961 . S
C2045 H2033 0.959 . S
C2045 C2043 1.561 . S
C2046 C2043 1.526 . S
C2046 C2047 1.396 . S
C2046 C2051 1.390 . S
C2047 C2041 1.465 . S
C2047 C2046 1.396 . S
C2047 C2048 1.399 . S
C2048 H2034 0.929 . S
C2048 C2047 1.399 . S
C2048 C2049 1.385 . S
C2049 H2035 0.931 . S
C2049 C2048 1.385 . S
C2049 C2050 1.389 . S
C2050 C2049 1.389 . S
C2050 C2051 1.387 . S
C2051 H2036 0.930 . S
C2051 C2046 1.390 . S
C2051 C2050 1.387 . S
H2052 C2064 0.930 . S
H2053 C2066 0.930 . S
H2054 C2067 0.930 . S
H2055 C2071 0.959 . S
H2056 C2071 0.959 . S
H2057 C2071 0.961 . S
H2058 C2072 0.960 . S
H2059 C2072 0.961 . S
H2060 C2072 0.959 . S
H2061 C2075 0.929 . S
H2062 C2076 0.931 . S
H2063 C2078 0.930 . S
C2064 H2052 0.930 . S
C2064 C2065 1.399 . S
C2064 C2069 1.399 . S
C2065 C2064 1.399 . S
C2065 C2066 1.376 . S
C2066 H2053 0.930 . S
C2066 C2065 1.376 . S
C2066 C2067 1.388 . S
C2067 H2054 0.930 . S
C2067 C2066 1.388 . S
C2067 C2068 1.390 . S
C2068 C2067 1.390 . S
C2068 C2069 1.394 . S
C2068 C2074 1.465 . S
C2069 C2064 1.399 . S
C2069 C2068 1.394 . S
C2069 C2070 1.516 . S
C2070 C2069 1.516 . S
C2070 C2071 1.502 . S
C2070 C2072 1.561 . S
C2070 C2073 1.526 . S
C2071 H2055 0.959 . S
C2071 H2056 0.959 . S
C2071 H2057 0.961 . S
C2071 C2070 1.502 . S
C2072 H2058 0.960 . S
C2072 H2059 0.961 . S
C2072 H2060 0.959 . S
C2072 C2070 1.561 . S
C2073 C2070 1.526 . S
C2073 C2074 1.396 . S
C2073 C2078 1.390 . S
C2074 C2068 1.465 . S
C2074 C2073 1.396 . S
C2074 C2075 1.399 . S
C2075 H2061 0.929 . S
C2075 C2074 1.399 . S
C2075 C2076 1.385 . S
C2076 H2062 0.931 . S
C2076 C2075 1.385 . S
C2076 C2077 1.389 . S
C2077 C2076 1.389 . S
C2077 C2078 1.387 . S
C2078 H2063 0.930 . S
C2078 C2073 1.390 . S
C2078 C2077 1.387 . S
H2079 C2091 0.930 . S
H2080 C2093 0.930 . S
H2081 C2094 0.930 . S
H2082 C2098 0.959 . S
H2083 C2098 0.959 . S
H2084 C2098 0.961 . S
H2085 C2099 0.960 . S
H2086 C2099 0.961 . S
H2087 C2099 0.959 . S
H2088 C2102 0.929 . S
H2089 C2103 0.931 . S
H2090 C2105 0.930 . S
C2091 H2079 0.930 . S
C2091 C2092 1.399 . S
C2091 C2096 1.399 . S
C2092 C2091 1.399 . S
C2092 C2093 1.376 . S
C2093 H2080 0.930 . S
C2093 C2092 1.376 . S
C2093 C2094 1.388 . S
C2094 H2081 0.930 . S
C2094 C2093 1.388 . S
C2094 C2095 1.390 . S
C2095 C2094 1.390 . S
C2095 C2096 1.394 . S
C2095 C2101 1.465 . S
C2096 C2091 1.399 . S
C2096 C2095 1.394 . S
C2096 C2097 1.516 . S
C2097 C2096 1.516 . S
C2097 C2098 1.502 . S
C2097 C2099 1.561 . S
C2097 C2100 1.526 . S
C2098 H2082 0.959 . S
C2098 H2083 0.959 . S
C2098 H2084 0.961 . S
C2098 C2097 1.502 . S
C2099 H2085 0.960 . S
C2099 H2086 0.961 . S
C2099 H2087 0.959 . S
C2099 C2097 1.561 . S
C2100 C2097 1.526 . S
C2100 C2101 1.396 . S
C2100 C2105 1.390 . S
C2101 C2095 1.465 . S
C2101 C2100 1.396 . S
C2101 C2102 1.399 . S
C2102 H2088 0.929 . S
C2102 C2101 1.399 . S
C2102 C2103 1.385 . S
C2103 H2089 0.931 . S
C2103 C2102 1.385 . S
C2103 C2104 1.389 . S
C2104 C2103 1.389 . S
C2104 C2105 1.387 . S
C2105 H2090 0.930 . S
C2105 C2100 1.390 . S
C2105 C2104 1.387 . S
H2106 C2118 0.930 . S
H2107 C2120 0.930 . S
H2108 C2121 0.930 . S
H2109 C2125 0.959 . S
H2110 C2125 0.959 . S
H2111 C2125 0.961 . S
H2112 C2126 0.960 . S
H2113 C2126 0.961 . S
H2114 C2126 0.959 . S
H2115 C2129 0.929 . S
H2116 C2130 0.931 . S
H2117 C2132 0.930 . S
C2118 H2106 0.930 . S
C2118 C2119 1.399 . S
C2118 C2123 1.399 . S
C2119 C2118 1.399 . S
C2119 C2120 1.376 . S
C2120 H2107 0.930 . S
C2120 C2119 1.376 . S
C2120 C2121 1.388 . S
C2121 H2108 0.930 . S
C2121 C2120 1.388 . S
C2121 C2122 1.390 . S
C2122 C2121 1.390 . S
C2122 C2123 1.394 . S
C2122 C2128 1.465 . S
C2123 C2118 1.399 . S
C2123 C2122 1.394 . S
C2123 C2124 1.516 . S
C2124 C2123 1.516 . S
C2124 C2125 1.502 . S
C2124 C2126 1.561 . S
C2124 C2127 1.526 . S
C2125 H2109 0.959 . S
C2125 H2110 0.959 . S
C2125 H2111 0.961 . S
C2125 C2124 1.502 . S
C2126 H2112 0.960 . S
C2126 H2113 0.961 . S
C2126 H2114 0.959 . S
C2126 C2124 1.561 . S
C2127 C2124 1.526 . S
C2127 C2128 1.396 . S
C2127 C2132 1.390 . S
C2128 C2122 1.465 . S
C2128 C2127 1.396 . S
C2128 C2129 1.399 . S
C2129 H2115 0.929 . S
C2129 C2128 1.399 . S
C2129 C2130 1.385 . S
C2130 H2116 0.931 . S
C2130 C2129 1.385 . S
C2130 C2131 1.389 . S
C2131 C2130 1.389 . S
C2131 C2132 1.387 . S
C2132 H2117 0.930 . S
C2132 C2127 1.390 . S
C2132 C2131 1.387 . S
H2133 C2145 0.930 . S
H2134 C2147 0.930 . S
H2135 C2148 0.930 . S
H2136 C2152 0.959 . S
H2137 C2152 0.959 . S
H2138 C2152 0.961 . S
H2139 C2153 0.960 . S
H2140 C2153 0.961 . S
H2141 C2153 0.959 . S
H2142 C2156 0.929 . S
H2143 C2157 0.931 . S
H2144 C2159 0.930 . S
C2145 H2133 0.930 . S
C2145 C2146 1.399 . S
C2145 C2150 1.399 . S
C2146 C2145 1.399 . S
C2146 C2147 1.376 . S
C2147 H2134 0.930 . S
C2147 C2146 1.376 . S
C2147 C2148 1.388 . S
C2148 H2135 0.930 . S
C2148 C2147 1.388 . S
C2148 C2149 1.390 . S
C2149 C2148 1.390 . S
C2149 C2150 1.394 . S
C2149 C2155 1.465 . S
C2150 C2145 1.399 . S
C2150 C2149 1.394 . S
C2150 C2151 1.516 . S
C2151 C2150 1.516 . S
C2151 C2152 1.502 . S
C2151 C2153 1.561 . S
C2151 C2154 1.526 . S
C2152 H2136 0.959 . S
C2152 H2137 0.959 . S
C2152 H2138 0.961 . S
C2152 C2151 1.502 . S
C2153 H2139 0.960 . S
C2153 H2140 0.961 . S
C2153 H2141 0.959 . S
C2153 C2151 1.561 . S
C2154 C2151 1.526 . S
C2154 C2155 1.396 . S
C2154 C2159 1.390 . S
C2155 C2149 1.465 . S
C2155 C2154 1.396 . S
C2155 C2156 1.399 . S
C2156 H2142 0.929 . S
C2156 C2155 1.399 . S
C2156 C2157 1.385 . S
C2157 H2143 0.931 . S
C2157 C2156 1.385 . S
C2157 C2158 1.389 . S
C2158 C2157 1.389 . S
C2158 C2159 1.387 . S
C2159 H2144 0.930 . S
C2159 C2154 1.390 . S
C2159 C2158 1.387 . S
H2160 C2172 0.930 . S
H2161 C2174 0.930 . S
H2162 C2175 0.930 . S
H2163 C2179 0.959 . S
H2164 C2179 0.959 . S
H2165 C2179 0.961 . S
H2166 C2180 0.960 . S
H2167 C2180 0.961 1_554 S
H2168 C2180 0.959 . S
H2169 C2183 0.929 . S
H2170 C2184 0.931 . S
H2171 C2186 0.930 . S
C2172 H2160 0.930 . S
C2172 C2173 1.399 . S
C2172 C2177 1.399 . S
C2173 C2172 1.399 . S
C2173 C2174 1.376 . S
C2174 H2161 0.930 . S
C2174 C2173 1.376 . S
C2174 C2175 1.388 . S
C2175 H2162 0.930 . S
C2175 C2174 1.388 . S
C2175 C2176 1.390 . S
C2176 C2175 1.390 . S
C2176 C2177 1.394 . S
C2176 C2182 1.465 . S
C2177 C2172 1.399 . S
C2177 C2176 1.394 . S
C2177 C2178 1.516 . S
C2178 C2177 1.516 . S
C2178 C2179 1.502 . S
C2178 C2180 1.561 . S
C2178 C2181 1.526 . S
C2179 H2163 0.959 . S
C2179 H2164 0.959 . S
C2179 H2165 0.961 . S
C2179 C2178 1.502 . S
C2180 H2166 0.960 . S
C2180 H2167 0.961 1_556 S
C2180 H2168 0.959 . S
C2180 C2178 1.561 . S
C2181 C2178 1.526 . S
C2181 C2182 1.396 . S
C2181 C2186 1.390 . S
C2182 C2176 1.465 . S
C2182 C2181 1.396 . S
C2182 C2183 1.399 . S
C2183 H2169 0.929 . S
C2183 C2182 1.399 . S
C2183 C2184 1.385 . S
C2184 H2170 0.931 . S
C2184 C2183 1.385 . S
C2184 C2185 1.389 . S
C2185 C2184 1.389 . S
C2185 C2186 1.387 . S
C2186 H2171 0.930 . S
C2186 C2181 1.390 . S
C2186 C2185 1.387 . S
H2187 C2199 0.930 . S
H2188 C2201 0.930 1_554 S
H2189 C2202 0.930 1_554 S
H2190 C2206 0.959 . S
H2191 C2206 0.959 . S
H2192 C2206 0.961 . S
H2193 C2207 0.960 . S
H2194 C2207 0.961 . S
H2195 C2207 0.959 . S
H2196 C2210 0.929 . S
H2197 C2211 0.931 . S
H2198 C2213 0.930 . S
C2199 H2187 0.930 . S
C2199 C2200 1.399 . S
C2199 C2204 1.399 . S
C2200 C2199 1.399 . S
C2200 C2201 1.376 . S
C2201 H2188 0.930 1_556 S
C2201 C2200 1.376 . S
C2201 C2202 1.388 . S
C2202 H2189 0.930 1_556 S
C2202 C2201 1.388 . S
C2202 C2203 1.390 . S
C2203 C2202 1.390 . S
C2203 C2204 1.394 . S
C2203 C2209 1.465 . S
C2204 C2199 1.399 . S
C2204 C2203 1.394 . S
C2204 C2205 1.516 . S
C2205 C2204 1.516 . S
C2205 C2206 1.502 . S
C2205 C2207 1.561 . S
C2205 C2208 1.526 . S
C2206 H2190 0.959 . S
C2206 H2191 0.959 . S
C2206 H2192 0.961 . S
C2206 C2205 1.502 . S
C2207 H2193 0.960 . S
C2207 H2194 0.961 . S
C2207 H2195 0.959 . S
C2207 C2205 1.561 . S
C2208 C2205 1.526 . S
C2208 C2209 1.396 . S
C2208 C2213 1.390 . S
C2209 C2203 1.465 . S
C2209 C2208 1.396 . S
C2209 C2210 1.399 . S
C2210 H2196 0.929 . S
C2210 C2209 1.399 . S
C2210 C2211 1.385 . S
C2211 H2197 0.931 . S
C2211 C2210 1.385 . S
C2211 C2212 1.389 . S
C2212 C2211 1.389 . S
C2212 C2213 1.387 . S
C2213 H2198 0.930 . S
C2213 C2208 1.390 . S
C2213 C2212 1.387 . S
H2214 C2226 0.930 1_554 S
H2215 C2228 0.930 . S
H2216 C2229 0.930 . S
H2217 C2233 0.959 . S
H2218 C2233 0.959 . S
H2219 C2233 0.961 1_554 S
H2220 C2234 0.960 1_554 S
H2221 C2234 0.961 . S
H2222 C2234 0.959 . S
H2223 C2237 0.929 . S
H2224 C2238 0.931 . S
H2225 C2240 0.930 . S
C2226 H2214 0.930 1_556 S
C2226 C2227 1.399 . S
C2226 C2231 1.399 . S
C2227 C2226 1.399 . S
C2227 C2228 1.376 . S
C2228 H2215 0.930 . S
C2228 C2227 1.376 . S
C2228 C2229 1.388 . S
C2229 H2216 0.930 . S
C2229 C2228 1.388 . S
C2229 C2230 1.390 . S
C2230 C2229 1.390 . S
C2230 C2231 1.394 . S
C2230 C2236 1.465 . S
C2231 C2226 1.399 . S
C2231 C2230 1.394 . S
C2231 C2232 1.516 . S
C2232 C2231 1.516 . S
C2232 C2233 1.502 . S
C2232 C2234 1.561 . S
C2232 C2235 1.526 . S
C2233 H2217 0.959 . S
C2233 H2218 0.959 . S
C2233 H2219 0.961 1_556 S
C2233 C2232 1.502 . S
C2234 H2220 0.960 1_556 S
C2234 H2221 0.961 . S
C2234 H2222 0.959 . S
C2234 C2232 1.561 . S
C2235 C2232 1.526 . S
C2235 C2236 1.396 . S
C2235 C2240 1.390 . S
C2236 C2230 1.465 . S
C2236 C2235 1.396 . S
C2236 C2237 1.399 . S
C2237 H2223 0.929 . S
C2237 C2236 1.399 . S
C2237 C2238 1.385 . S
C2238 H2224 0.931 . S
C2238 C2237 1.385 . S
C2238 C2239 1.389 . S
C2239 C2238 1.389 . S
C2239 C2240 1.387 . S
C2240 H2225 0.930 . S
C2240 C2235 1.390 . S
C2240 C2239 1.387 . S
H2241 C2253 0.930 . S
H2242 C2255 0.930 . S
H2243 C2256 0.930 . S
H2244 C2260 0.959 . S
H2245 C2260 0.959 . S
H2246 C2260 0.961 . S
H2247 C2261 0.960 . S
H2248 C2261 0.961 . S
H2249 C2261 0.959 . S
H2250 C2264 0.929 1_556 S
H2251 C2265 0.931 1_556 S
H2252 C2267 0.930 . S
C2253 H2241 0.930 . S
C2253 C2254 1.399 . S
C2253 C2258 1.399 . S
C2254 C2253 1.399 . S
C2254 C2255 1.376 . S
C2255 H2242 0.930 . S
C2255 C2254 1.376 . S
C2255 C2256 1.388 . S
C2256 H2243 0.930 . S
C2256 C2255 1.388 . S
C2256 C2257 1.390 . S
C2257 C2256 1.390 . S
C2257 C2258 1.394 . S
C2257 C2263 1.465 . S
C2258 C2253 1.399 . S
C2258 C2257 1.394 . S
C2258 C2259 1.516 . S
C2259 C2258 1.516 . S
C2259 C2260 1.502 . S
C2259 C2261 1.561 . S
C2259 C2262 1.526 . S
C2260 H2244 0.959 . S
C2260 H2245 0.959 . S
C2260 H2246 0.961 . S
C2260 C2259 1.502 . S
C2261 H2247 0.960 . S
C2261 H2248 0.961 . S
C2261 H2249 0.959 . S
C2261 C2259 1.561 . S
C2262 C2259 1.526 . S
C2262 C2263 1.396 . S
C2262 C2267 1.390 . S
C2263 C2257 1.465 . S
C2263 C2262 1.396 . S
C2263 C2264 1.399 . S
C2264 H2250 0.929 1_554 S
C2264 C2263 1.399 . S
C2264 C2265 1.385 . S
C2265 H2251 0.931 1_554 S
C2265 C2264 1.385 . S
C2265 C2266 1.389 . S
C2266 C2265 1.389 . S
C2266 C2267 1.387 . S
C2267 H2252 0.930 . S
C2267 C2262 1.390 . S
C2267 C2266 1.387 . S
H2268 C2280 0.930 . S
H2269 C2282 0.930 . S
H2270 C2283 0.930 . S
H2271 C2287 0.959 . S
H2272 C2287 0.959 . S
H2273 C2287 0.961 . S
H2274 C2288 0.960 . S
H2275 C2288 0.961 . S
H2276 C2288 0.959 . S
H2277 C2291 0.929 . S
H2278 C2292 0.931 . S
H2279 C2294 0.930 . S
C2280 H2268 0.930 . S
C2280 C2281 1.399 . S
C2280 C2285 1.399 . S
C2281 C2280 1.399 . S
C2281 C2282 1.376 . S
C2282 H2269 0.930 . S
C2282 C2281 1.376 . S
C2282 C2283 1.388 . S
C2283 H2270 0.930 . S
C2283 C2282 1.388 . S
C2283 C2284 1.390 . S
C2284 C2283 1.390 . S
C2284 C2285 1.394 . S
C2284 C2290 1.465 . S
C2285 C2280 1.399 . S
C2285 C2284 1.394 . S
C2285 C2286 1.516 . S
C2286 C2285 1.516 . S
C2286 C2287 1.502 . S
C2286 C2288 1.561 . S
C2286 C2289 1.526 . S
C2287 H2271 0.959 . S
C2287 H2272 0.959 . S
C2287 H2273 0.961 . S
C2287 C2286 1.502 . S
C2288 H2274 0.960 . S
C2288 H2275 0.961 . S
C2288 H2276 0.959 . S
C2288 C2286 1.561 . S
C2289 C2286 1.526 . S
C2289 C2290 1.396 . S
C2289 C2294 1.390 . S
C2290 C2284 1.465 . S
C2290 C2289 1.396 . S
C2290 C2291 1.399 . S
C2291 H2277 0.929 . S
C2291 C2290 1.399 . S
C2291 C2292 1.385 . S
C2292 H2278 0.931 . S
C2292 C2291 1.385 . S
C2292 C2293 1.389 . S
C2293 C2292 1.389 . S
C2293 C2294 1.387 . S
C2294 H2279 0.930 . S
C2294 C2289 1.390 . S
C2294 C2293 1.387 . S
H2295 C2307 0.930 . S
H2296 C2309 0.930 . S
H2297 C2310 0.930 . S
H2298 C2314 0.959 . S
H2299 C2314 0.959 . S
H2300 C2314 0.961 . S
H2301 C2315 0.960 1_556 S
H2302 C2315 0.961 . S
H2303 C2315 0.959 . S
H2304 C2318 0.929 . S
H2305 C2319 0.931 . S
H2306 C2321 0.930 . S
C2307 H2295 0.930 . S
C2307 C2308 1.399 . S
C2307 C2312 1.399 . S
C2308 C2307 1.399 . S
C2308 C2309 1.376 . S
C2309 H2296 0.930 . S
C2309 C2308 1.376 . S
C2309 C2310 1.388 . S
C2310 H2297 0.930 . S
C2310 C2309 1.388 . S
C2310 C2311 1.390 . S
C2311 C2310 1.390 . S
C2311 C2312 1.394 . S
C2311 C2317 1.465 . S
C2312 C2307 1.399 . S
C2312 C2311 1.394 . S
C2312 C2313 1.516 . S
C2313 C2312 1.516 . S
C2313 C2314 1.502 . S
C2313 C2315 1.561 . S
C2313 C2316 1.526 . S
C2314 H2298 0.959 . S
C2314 H2299 0.959 . S
C2314 H2300 0.961 . S
C2314 C2313 1.502 . S
C2315 H2301 0.960 1_554 S
C2315 H2302 0.961 . S
C2315 H2303 0.959 . S
C2315 C2313 1.561 . S
C2316 C2313 1.526 . S
C2316 C2317 1.396 . S
C2316 C2321 1.390 . S
C2317 C2311 1.465 . S
C2317 C2316 1.396 . S
C2317 C2318 1.399 . S
C2318 H2304 0.929 . S
C2318 C2317 1.399 . S
C2318 C2319 1.385 . S
C2319 H2305 0.931 . S
C2319 C2318 1.385 . S
C2319 C2320 1.389 . S
C2320 C2319 1.389 . S
C2320 C2321 1.387 . S
C2321 H2306 0.930 . S
C2321 C2316 1.390 . S
C2321 C2320 1.387 . S
H2322 C2334 0.930 . S
H2323 C2336 0.930 . S
H2324 C2337 0.930 . S
H2325 C2341 0.959 . S
H2326 C2341 0.959 1_556 S
H2327 C2341 0.961 . S
H2328 C2342 0.960 . S
H2329 C2342 0.961 1_556 S
H2330 C2342 0.959 . S
H2331 C2345 0.929 . S
H2332 C2346 0.931 . S
H2333 C2348 0.939 . S
C2334 H2322 0.930 . S
C2334 C2335 1.399 . S
C2334 C2339 1.399 . S
C2335 C2334 1.399 . S
C2335 C2336 1.376 . S
C2336 H2323 0.930 . S
C2336 C2335 1.376 . S
C2336 C2337 1.388 . S
C2337 H2324 0.930 . S
C2337 C2336 1.388 . S
C2337 C2338 1.390 . S
C2338 C2337 1.390 . S
C2338 C2339 1.394 . S
C2338 C2344 1.465 . S
C2339 C2334 1.399 . S
C2339 C2338 1.394 . S
C2339 C2340 1.516 . S
C2340 C2339 1.516 . S
C2340 C2341 1.502 . S
C2340 C2342 1.561 . S
C2340 C2343 1.526 . S
C2341 H2325 0.959 . S
C2341 H2326 0.959 1_554 S
C2341 H2327 0.961 . S
C2341 C2340 1.502 . S
C2342 H2328 0.960 . S
C2342 H2329 0.961 1_554 S
C2342 H2330 0.959 . S
C2342 C2340 1.561 . S
C2343 C2340 1.526 . S
C2343 C2344 1.396 . S
C2343 C2348 1.390 . S
C2344 C2338 1.465 . S
C2344 C2343 1.396 . S
C2344 C2345 1.399 . S
C2345 H2331 0.929 . S
C2345 C2344 1.399 . S
C2345 C2346 1.385 . S
C2346 H2332 0.931 . S
C2346 C2345 1.385 . S
C2346 C2347 1.389 . S
C2347 C2346 1.389 . S
C2347 C2348 1.387 . S
C2348 H2333 0.939 . S
C2348 C2343 1.390 . S
C2348 C2347 1.387 . S
H2349 C2361 0.930 . S
H2350 C2363 0.930 . S
H2351 C2364 0.930 . S
H2352 C2368 0.959 . S
H2353 C2368 0.959 . S
H2354 C2368 0.961 . S
H2355 C2369 0.960 . S
H2356 C2369 0.961 . S
H2357 C2369 0.959 . S
H2358 C2372 0.929 . S
H2359 C2373 0.931 . S
H2360 C2375 0.930 . S
C2361 H2349 0.930 . S
C2361 C2362 1.399 . S
C2361 C2366 1.399 . S
C2362 C2361 1.399 . S
C2362 C2363 1.376 . S
C2363 H2350 0.930 . S
C2363 C2362 1.376 . S
C2363 C2364 1.388 . S
C2364 H2351 0.930 . S
C2364 C2363 1.388 . S
C2364 C2365 1.390 . S
C2365 C2364 1.390 . S
C2365 C2366 1.394 . S
C2365 C2371 1.465 . S
C2366 C2361 1.399 . S
C2366 C2365 1.394 . S
C2366 C2367 1.516 . S
C2367 C2366 1.516 . S
C2367 C2368 1.502 . S
C2367 C2369 1.561 . S
C2367 C2370 1.526 . S
C2368 H2352 0.959 . S
C2368 H2353 0.959 . S
C2368 H2354 0.961 . S
C2368 C2367 1.502 . S
C2369 H2355 0.960 . S
C2369 H2356 0.961 . S
C2369 H2357 0.959 . S
C2369 C2367 1.561 . S
C2370 C2367 1.526 . S
C2370 C2371 1.396 . S
C2370 C2375 1.390 . S
C2371 C2365 1.465 . S
C2371 C2370 1.396 . S
C2371 C2372 1.399 . S
C2372 H2358 0.929 . S
C2372 C2371 1.399 . S
C2372 C2373 1.385 . S
C2373 H2359 0.931 . S
C2373 C2372 1.385 . S
C2373 C2374 1.389 . S
C2374 C2373 1.389 . S
C2374 C2375 1.387 . S
C2375 H2360 0.930 . S
C2375 C2370 1.390 . S
C2375 C2374 1.387 . S
H2376 C2388 0.930 . S
H2377 C2390 0.930 . S
H2378 C2391 0.930 . S
H2379 C2395 0.959 . S
H2380 C2395 0.959 . S
H2381 C2395 0.961 . S
H2382 C2396 0.960 . S
H2383 C2396 0.961 . S
H2384 C2396 0.959 . S
H2385 C2399 0.929 . S
H2386 C2400 0.931 1_556 S
H2387 C2402 0.930 . S
C2388 H2376 0.930 . S
C2388 C2389 1.399 . S
C2388 C2393 1.399 . S
C2389 C2388 1.399 . S
C2389 C2390 1.376 . S
C2390 H2377 0.930 . S
C2390 C2389 1.376 . S
C2390 C2391 1.388 . S
C2391 H2378 0.930 . S
C2391 C2390 1.388 . S
C2391 C2392 1.390 . S
C2392 C2391 1.390 . S
C2392 C2393 1.394 . S
C2392 C2398 1.465 . S
C2393 C2388 1.399 . S
C2393 C2392 1.394 . S
C2393 C2394 1.516 . S
C2394 C2393 1.516 . S
C2394 C2395 1.502 . S
C2394 C2396 1.561 . S
C2394 C2397 1.526 . S
C2395 H2379 0.959 . S
C2395 H2380 0.959 . S
C2395 H2381 0.961 . S
C2395 C2394 1.502 . S
C2396 H2382 0.960 . S
C2396 H2383 0.961 . S
C2396 H2384 0.959 . S
C2396 C2394 1.561 . S
C2397 C2394 1.526 . S
C2397 C2398 1.396 . S
C2397 C2402 1.390 . S
C2398 C2392 1.465 . S
C2398 C2397 1.396 . S
C2398 C2399 1.399 . S
C2399 H2385 0.929 . S
C2399 C2398 1.399 . S
C2399 C2400 1.385 . S
C2400 H2386 0.931 1_554 S
C2400 C2399 1.385 . S
C2400 C2401 1.389 . S
C2401 C2400 1.389 . S
C2401 C2402 1.387 . S
C2402 H2387 0.930 . S
C2402 C2397 1.390 . S
C2402 C2401 1.387 . S
H2403 C2415 0.930 . S
H2404 C2417 0.930 . S
H2405 C2418 0.930 . S
H2406 C2422 0.959 . S
H2407 C2422 0.959 1_554 S
H2408 C2422 0.961 . S
H2409 C2423 0.960 . S
H2410 C2423 0.961 . S
H2411 C2423 0.959 . S
H2412 C2426 0.929 . S
H2413 C2427 0.931 . S
H2414 C2429 0.930 . S
C2415 H2403 0.930 . S
C2415 C2416 1.399 . S
C2415 C2420 1.399 . S
C2416 C2415 1.399 . S
C2416 C2417 1.376 . S
C2417 H2404 0.930 . S
C2417 C2416 1.376 . S
C2417 C2418 1.388 . S
C2418 H2405 0.930 . S
C2418 C2417 1.388 . S
C2418 C2419 1.390 . S
C2419 C2418 1.390 . S
C2419 C2420 1.394 . S
C2419 C2425 1.465 . S
C2420 C2415 1.399 . S
C2420 C2419 1.394 . S
C2420 C2421 1.516 . S
C2421 C2420 1.516 . S
C2421 C2422 1.502 . S
C2421 C2423 1.561 . S
C2421 C2424 1.526 . S
C2422 H2406 0.959 . S
C2422 H2407 0.959 1_556 S
C2422 H2408 0.961 . S
C2422 C2421 1.502 . S
C2423 H2409 0.960 . S
C2423 H2410 0.961 . S
C2423 H2411 0.959 . S
C2423 C2421 1.561 . S
C2424 C2421 1.526 . S
C2424 C2425 1.396 . S
C2424 C2429 1.390 . S
C2425 C2419 1.465 . S
C2425 C2424 1.396 . S
C2425 C2426 1.399 . S
C2426 H2412 0.929 . S
C2426 C2425 1.399 . S
C2426 C2427 1.385 . S
C2427 H2413 0.931 . S
C2427 C2426 1.385 . S
C2427 C2428 1.389 . S
C2428 C2427 1.389 . S
C2428 C2429 1.387 . S
C2429 H2414 0.930 . S
C2429 C2424 1.390 . S
C2429 C2428 1.387 . S
H2430 C2442 0.930 . S
H2431 C2444 0.930 . S
H2432 C2445 0.930 . S
H2433 C2449 0.959 . S
H2434 C2449 0.959 . S
H2435 C2449 0.961 . S
H2436 C2450 0.960 . S
H2437 C2450 0.961 . S
H2438 C2450 0.959 . S
H2439 C2453 0.929 . S
H2440 C2454 0.931 . S
H2441 C2456 0.930 . S
C2442 H2430 0.930 . S
C2442 C2443 1.399 . S
C2442 C2447 1.399 . S
C2443 C2442 1.399 . S
C2443 C2444 1.376 . S
C2444 H2431 0.930 . S
C2444 C2443 1.376 . S
C2444 C2445 1.388 . S
C2445 H2432 0.930 . S
C2445 C2444 1.388 . S
C2445 C2446 1.390 . S
C2446 C2445 1.390 . S
C2446 C2447 1.394 . S
C2446 C2452 1.465 . S
C2447 C2442 1.399 . S
C2447 C2446 1.394 . S
C2447 C2448 1.516 . S
C2448 C2447 1.516 . S
C2448 C2449 1.502 . S
C2448 C2450 1.561 . S
C2448 C2451 1.526 . S
C2449 H2433 0.959 . S
C2449 H2434 0.959 . S
C2449 H2435 0.961 . S
C2449 C2448 1.502 . S
C2450 H2436 0.960 . S
C2450 H2437 0.961 . S
C2450 H2438 0.959 . S
C2450 C2448 1.561 . S
C2451 C2448 1.526 . S
C2451 C2452 1.396 . S
C2451 C2456 1.390 . S
C2452 C2446 1.465 . S
C2452 C2451 1.396 . S
C2452 C2453 1.399 . S
C2453 H2439 0.929 . S
C2453 C2452 1.399 . S
C2453 C2454 1.385 . S
C2454 H2440 0.931 . S
C2454 C2453 1.385 . S
C2454 C2455 1.389 . S
C2455 C2454 1.389 . S
C2455 C2456 1.387 . S
C2456 H2441 0.930 . S
C2456 C2451 1.390 . S
C2456 C2455 1.387 . S
H2457 C2469 0.930 . S
H2458 C2471 0.930 . S
H2459 C2472 0.930 . S
H2460 C2476 0.959 . S
H2461 C2476 0.959 1_554 S
H2462 C2476 0.961 . S
H2463 C2477 0.960 . S
H2464 C2477 0.961 1_554 S
H2465 C2477 0.959 . S
H2466 C2480 0.929 . S
H2467 C2481 0.931 . S
H2468 C2483 0.929 . S
C2469 H2457 0.930 . S
C2469 C2470 1.399 . S
C2469 C2474 1.399 . S
C2470 C2469 1.399 . S
C2470 C2471 1.376 . S
C2471 H2458 0.930 . S
C2471 C2470 1.376 . S
C2471 C2472 1.388 . S
C2472 H2459 0.930 . S
C2472 C2471 1.388 . S
C2472 C2473 1.390 . S
C2473 C2472 1.390 . S
C2473 C2474 1.394 . S
C2473 C2479 1.465 . S
C2474 C2469 1.399 . S
C2474 C2473 1.394 . S
C2474 C2475 1.516 . S
C2475 C2474 1.516 . S
C2475 C2476 1.502 . S
C2475 C2477 1.561 . S
C2475 C2478 1.526 . S
C2476 H2460 0.959 . S
C2476 H2461 0.959 1_556 S
C2476 H2462 0.961 . S
C2476 C2475 1.502 . S
C2477 H2463 0.960 . S
C2477 H2464 0.961 1_556 S
C2477 H2465 0.959 . S
C2477 C2475 1.561 . S
C2478 C2475 1.526 . S
C2478 C2479 1.396 . S
C2478 C2483 1.390 . S
C2479 C2473 1.465 . S
C2479 C2478 1.396 . S
C2479 C2480 1.399 . S
C2480 H2466 0.929 . S
C2480 C2479 1.399 . S
C2480 C2481 1.385 . S
C2481 H2467 0.931 . S
C2481 C2480 1.385 . S
C2481 C2482 1.389 . S
C2482 C2481 1.389 . S
C2482 C2483 1.387 . S
C2483 H2468 0.929 . S
C2483 C2478 1.390 . S
C2483 C2482 1.387 . S
H2484 C2496 0.930 . S
H2485 C2498 0.930 . S
H2486 C2499 0.930 . S
H2487 C2503 0.959 . S
H2488 C2503 1.032 . S
H2489 C2503 0.961 . S
H2490 C2504 0.960 1_455 S
H2491 C2504 0.961 . S
H2492 C2504 0.959 . S
H2493 C2507 0.929 . S
H2494 C2508 0.931 . S
H2495 C2510 0.930 . S
C2496 H2484 0.930 . S
C2496 C2497 1.399 . S
C2496 C2501 1.399 . S
C2497 C2496 1.399 . S
C2497 C2498 1.376 . S
C2498 H2485 0.930 . S
C2498 C2497 1.376 . S
C2498 C2499 1.388 . S
C2499 H2486 0.930 . S
C2499 C2498 1.388 . S
C2499 C2500 1.390 . S
C2500 C2499 1.390 . S
C2500 C2501 1.394 . S
C2500 C2506 1.465 1_455 S
C2501 C2496 1.399 . S
C2501 C2500 1.394 . S
C2501 C2502 1.516 . S
C2502 C2501 1.516 . S
C2502 C2503 1.502 . S
C2502 C2504 1.561 1_455 S
C2502 C2505 1.526 1_455 S
C2503 H2487 0.959 . S
C2503 H2488 1.032 . S
C2503 H2489 0.961 . S
C2503 C2502 1.502 . S
C2504 H2490 0.960 1_655 S
C2504 H2491 0.961 . S
C2504 H2492 0.959 . S
C2504 C2502 1.561 1_655 S
C2505 C2502 1.526 1_655 S
C2505 C2506 1.396 . S
C2505 C2510 1.390 . S
C2506 C2500 1.465 1_655 S
C2506 C2505 1.396 . S
C2506 C2507 1.399 . S
C2507 H2493 0.929 . S
C2507 C2506 1.399 . S
C2507 C2508 1.385 . S
C2508 H2494 0.931 . S
C2508 C2507 1.385 . S
C2508 C2509 1.389 . S
C2509 C2508 1.389 . S
C2509 C2510 1.387 . S
C2510 H2495 0.930 . S
C2510 C2505 1.390 . S
C2510 C2509 1.387 . S
H2511 C2523 0.930 . S
H2512 C2525 0.930 . S
H2513 C2526 0.930 . S
H2514 C2530 0.959 . S
H2515 C2530 0.959 . S
H2516 C2530 0.961 . S
H2517 C2531 0.960 . S
H2518 C2531 0.961 . S
H2519 C2531 0.959 . S
H2520 C2534 0.929 . S
H2521 C2535 0.931 . S
H2522 C2537 0.930 . S
C2523 H2511 0.930 . S
C2523 C2524 1.399 . S
C2523 C2528 1.399 . S
C2524 C2523 1.399 . S
C2524 C2525 1.376 . S
C2525 H2512 0.930 . S
C2525 C2524 1.376 . S
C2525 C2526 1.388 . S
C2526 H2513 0.930 . S
C2526 C2525 1.388 . S
C2526 C2527 1.390 . S
C2527 C2526 1.390 . S
C2527 C2528 1.394 . S
C2527 C2533 1.465 . S
C2528 C2523 1.399 . S
C2528 C2527 1.394 . S
C2528 C2529 1.516 . S
C2529 C2528 1.516 . S
C2529 C2530 1.502 . S
C2529 C2531 1.561 . S
C2529 C2532 1.526 . S
C2530 H2514 0.959 . S
C2530 H2515 0.959 . S
C2530 H2516 0.961 . S
C2530 C2529 1.502 . S
C2531 H2517 0.960 . S
C2531 H2518 0.961 . S
C2531 H2519 0.959 . S
C2531 C2529 1.561 . S
C2532 C2529 1.526 . S
C2532 C2533 1.396 . S
C2532 C2537 1.390 . S
C2533 C2527 1.465 . S
C2533 C2532 1.396 . S
C2533 C2534 1.399 . S
C2534 H2520 0.929 . S
C2534 C2533 1.399 . S
C2534 C2535 1.385 . S
C2535 H2521 0.931 . S
C2535 C2534 1.385 . S
C2535 C2536 1.389 . S
C2536 C2535 1.389 . S
C2536 C2537 1.387 . S
C2537 H2522 0.930 . S
C2537 C2532 1.390 . S
C2537 C2536 1.387 . S
H2538 C2550 0.930 . S
H2539 C2552 0.930 . S
H2540 C2553 0.930 . S
H2541 C2557 0.959 . S
H2542 C2557 0.959 . S
H2543 C2557 0.961 . S
H2544 C2558 0.960 . S
H2545 C2558 0.961 . S
H2546 C2558 0.959 . S
H2547 C2561 0.929 . S
H2548 C2562 0.931 . S
H2549 C2564 0.930 . S
C2550 H2538 0.930 . S
C2550 C2551 1.399 . S
C2550 C2555 1.399 . S
C2551 C2550 1.399 . S
C2551 C2552 1.376 . S
C2552 H2539 0.930 . S
C2552 C2551 1.376 . S
C2552 C2553 1.388 . S
C2553 H2540 0.930 . S
C2553 C2552 1.388 . S
C2553 C2554 1.390 . S
C2554 C2553 1.390 . S
C2554 C2555 1.394 . S
C2554 C2560 1.465 1_565 S
C2555 C2550 1.399 . S
C2555 C2554 1.394 . S
C2555 C2556 1.516 . S
C2556 C2555 1.516 . S
C2556 C2557 1.502 . S
C2556 C2558 1.561 . S
C2556 C2559 1.526 1_565 S
C2557 H2541 0.959 . S
C2557 H2542 0.959 . S
C2557 H2543 0.961 . S
C2557 C2556 1.502 . S
C2558 H2544 0.960 . S
C2558 H2545 0.961 . S
C2558 H2546 0.959 . S
C2558 C2556 1.561 . S
C2559 C2556 1.526 1_545 S
C2559 C2560 1.396 . S
C2559 C2564 1.390 . S
C2560 C2554 1.465 1_545 S
C2560 C2559 1.396 . S
C2560 C2561 1.399 . S
C2561 H2547 0.929 . S
C2561 C2560 1.399 . S
C2561 C2562 1.385 . S
C2562 H2548 0.931 . S
C2562 C2561 1.385 . S
C2562 C2563 1.389 . S
C2563 C2562 1.389 . S
C2563 C2564 1.387 . S
C2564 H2549 0.930 . S
C2564 C2559 1.390 . S
C2564 C2563 1.387 . S
H2565 C2577 0.930 . S
H2566 C2579 0.930 . S
H2567 C2580 0.930 . S
H2568 C2584 0.959 . S
H2569 C2584 0.959 . S
H2570 C2584 0.961 1_565 S
H2571 C2585 0.960 . S
H2572 C2585 0.961 1_545 S
H2573 C2585 0.959 . S
H2574 C2588 0.929 . S
H2575 C2589 0.931 . S
H2576 C2591 0.930 . S
C2577 H2565 0.930 . S
C2577 C2578 1.399 . S
C2577 C2582 1.399 . S
C2578 C2577 1.399 . S
C2578 C2579 1.376 . S
C2579 H2566 0.930 . S
C2579 C2578 1.376 . S
C2579 C2580 1.388 . S
C2580 H2567 0.930 . S
C2580 C2579 1.388 . S
C2580 C2581 1.390 . S
C2581 C2580 1.390 . S
C2581 C2582 1.394 . S
C2581 C2587 1.465 1_565 S
C2582 C2577 1.399 . S
C2582 C2581 1.394 . S
C2582 C2583 1.508 . S
C2583 C2582 1.508 . S
C2583 C2584 1.507 1_565 S
C2583 C2585 1.561 . S
C2583 C2586 1.528 1_565 S
C2584 H2568 0.959 . S
C2584 H2569 0.959 . S
C2584 H2570 0.961 1_545 S
C2584 C2583 1.507 1_545 S
C2585 H2571 0.960 . S
C2585 H2572 0.961 1_565 S
C2585 H2573 0.959 . S
C2585 C2583 1.561 . S
C2586 C2583 1.528 1_545 S
C2586 C2587 1.396 . S
C2586 C2591 1.390 . S
C2587 C2581 1.465 1_545 S
C2587 C2586 1.396 . S
C2587 C2588 1.399 . S
C2588 H2574 0.929 . S
C2588 C2587 1.399 . S
C2588 C2589 1.385 . S
C2589 H2575 0.931 . S
C2589 C2588 1.385 . S
C2589 C2590 1.389 . S
C2590 C2589 1.389 . S
C2590 C2591 1.387 . S
C2591 H2576 0.930 . S
C2591 C2586 1.390 . S
C2591 C2590 1.387 . S
H2592 C2604 0.930 . S
H2593 C2606 0.930 . S
H2594 C2607 0.930 . S
H2595 C2611 0.959 . S
H2596 C2611 0.959 . S
H2597 C2611 0.961 . S
H2598 C2612 0.960 . S
H2599 C2612 0.960 1_655 S
H2600 C2612 0.990 . S
H2601 C2615 0.929 . S
H2602 C2616 0.931 . S
H2603 C2618 0.930 . S
C2604 H2592 0.930 . S
C2604 C2605 1.399 . S
C2604 C2609 1.399 . S
C2605 C2604 1.399 . S
C2605 C2606 1.376 . S
C2606 H2593 0.930 . S
C2606 C2605 1.376 . S
C2606 C2607 1.388 . S
C2607 H2594 0.930 . S
C2607 C2606 1.388 . S
C2607 C2608 1.390 . S
C2608 C2607 1.390 . S
C2608 C2609 1.394 . S
C2608 C2614 1.465 1_455 S
C2609 C2604 1.399 . S
C2609 C2608 1.394 . S
C2609 C2610 1.516 . S
C2610 C2609 1.516 . S
C2610 C2611 1.502 . S
C2610 C2612 1.561 . S
C2610 C2613 1.526 1_455 S
C2611 H2595 0.959 . S
C2611 H2596 0.959 . S
C2611 H2597 0.961 . S
C2611 C2610 1.502 . S
C2612 H2598 0.960 . S
C2612 H2599 0.960 1_455 S
C2612 H2600 0.990 . S
C2612 C2610 1.561 . S
C2613 C2610 1.526 1_655 S
C2613 C2614 1.396 . S
C2613 C2618 1.390 . S
C2614 C2608 1.465 1_655 S
C2614 C2613 1.396 . S
C2614 C2615 1.399 . S
C2615 H2601 0.929 . S
C2615 C2614 1.399 . S
C2615 C2616 1.385 . S
C2616 H2602 0.931 . S
C2616 C2615 1.385 . S
C2616 C2617 1.389 . S
C2617 C2616 1.389 . S
C2617 C2618 1.387 . S
C2618 H2603 0.930 . S
C2618 C2613 1.390 . S
C2618 C2617 1.387 . S
H2619 C2631 0.930 . S
H2620 C2633 0.930 . S
H2621 C2634 0.930 . S
H2622 C2638 0.959 . S
H2623 C2638 0.959 . S
H2624 C2638 0.961 . S
H2625 C2639 0.960 . S
H2626 C2639 0.961 . S
H2627 C2639 0.959 . S
H2628 C2642 0.929 . S
H2629 C2643 0.931 . S
H2630 C2645 0.930 . S
C2631 H2619 0.930 . S
C2631 C2632 1.399 . S
C2631 C2636 1.399 . S
C2632 C2631 1.399 . S
C2632 C2633 1.376 . S
C2633 H2620 0.930 . S
C2633 C2632 1.376 . S
C2633 C2634 1.388 . S
C2634 H2621 0.930 . S
C2634 C2633 1.388 . S
C2634 C2635 1.390 . S
C2635 C2634 1.390 . S
C2635 C2636 1.394 . S
C2635 C2641 1.465 . S
C2636 C2631 1.399 . S
C2636 C2635 1.394 . S
C2636 C2637 1.516 . S
C2637 C2636 1.516 . S
C2637 C2638 1.502 . S
C2637 C2639 1.561 . S
C2637 C2640 1.526 . S
C2638 H2622 0.959 . S
C2638 H2623 0.959 . S
C2638 H2624 0.961 . S
C2638 C2637 1.502 . S
C2639 H2625 0.960 . S
C2639 H2626 0.961 . S
C2639 H2627 0.959 . S
C2639 C2637 1.561 . S
C2640 C2637 1.526 . S
C2640 C2641 1.396 . S
C2640 C2645 1.390 . S
C2641 C2635 1.465 . S
C2641 C2640 1.396 . S
C2641 C2642 1.399 . S
C2642 H2628 0.929 . S
C2642 C2641 1.399 . S
C2642 C2643 1.385 . S
C2643 H2629 0.931 . S
C2643 C2642 1.385 . S
C2643 C2644 1.389 . S
C2644 C2643 1.389 . S
C2644 C2645 1.387 . S
C2645 H2630 0.930 . S
C2645 C2640 1.390 . S
C2645 C2644 1.387 . S
H2646 C2658 0.930 . S
H2647 C2660 0.930 . S
H2648 C2661 0.930 . S
H2649 C2665 0.959 . S
H2650 C2665 0.959 . S
H2651 C2665 0.961 . S
H2652 C2666 0.960 . S
H2653 C2666 0.961 . S
H2654 C2666 0.959 . S
H2655 C2669 0.929 . S
H2656 C2670 0.931 . S
H2657 C2672 0.930 . S
C2658 H2646 0.930 . S
C2658 C2659 1.399 . S
C2658 C2663 1.399 . S
C2659 C2658 1.399 . S
C2659 C2660 1.376 . S
C2660 H2647 0.930 . S
C2660 C2659 1.376 . S
C2660 C2661 1.388 . S
C2661 H2648 0.930 . S
C2661 C2660 1.388 . S
C2661 C2662 1.390 . S
C2662 C2661 1.390 . S
C2662 C2663 1.394 . S
C2662 C2668 1.465 . S
C2663 C2658 1.399 . S
C2663 C2662 1.394 . S
C2663 C2664 1.516 . S
C2664 C2663 1.516 . S
C2664 C2665 1.502 . S
C2664 C2666 1.561 . S
C2664 C2667 1.526 . S
C2665 H2649 0.959 . S
C2665 H2650 0.959 . S
C2665 H2651 0.961 . S
C2665 C2664 1.502 . S
C2666 H2652 0.960 . S
C2666 H2653 0.961 . S
C2666 H2654 0.959 . S
C2666 C2664 1.561 . S
C2667 C2664 1.526 . S
C2667 C2668 1.396 . S
C2667 C2672 1.390 . S
C2668 C2662 1.465 . S
C2668 C2667 1.396 . S
C2668 C2669 1.399 . S
C2669 H2655 0.929 . S
C2669 C2668 1.399 . S
C2669 C2670 1.385 . S
C2670 H2656 0.931 . S
C2670 C2669 1.385 . S
C2670 C2671 1.389 . S
C2671 C2670 1.389 . S
C2671 C2672 1.387 . S
C2672 H2657 0.930 . S
C2672 C2667 1.390 . S
C2672 C2671 1.387 . S
H2673 C2685 0.930 . S
H2674 C2687 0.930 . S
H2675 C2688 0.930 . S
H2676 C2692 0.959 . S
H2677 C2692 0.959 . S
H2678 C2692 0.961 . S
H2679 C2693 0.960 . S
H2680 C2693 0.961 . S
H2681 C2693 0.959 . S
H2682 C2696 0.929 . S
H2683 C2697 0.931 . S
H2684 C2699 0.930 . S
C2685 H2673 0.930 . S
C2685 C2686 1.399 . S
C2685 C2690 1.399 . S
C2686 C2685 1.399 . S
C2686 C2687 1.376 . S
C2687 H2674 0.930 . S
C2687 C2686 1.376 . S
C2687 C2688 1.388 . S
C2688 H2675 0.930 . S
C2688 C2687 1.388 . S
C2688 C2689 1.390 . S
C2689 C2688 1.390 . S
C2689 C2690 1.394 . S
C2689 C2695 1.465 . S
C2690 C2685 1.399 . S
C2690 C2689 1.394 . S
C2690 C2691 1.516 . S
C2691 C2690 1.516 . S
C2691 C2692 1.502 . S
C2691 C2693 1.561 . S
C2691 C2694 1.526 . S
C2692 H2676 0.959 . S
C2692 H2677 0.959 . S
C2692 H2678 0.961 . S
C2692 C2691 1.502 . S
C2693 H2679 0.960 . S
C2693 H2680 0.961 . S
C2693 H2681 0.959 . S
C2693 C2691 1.561 . S
C2694 C2691 1.526 . S
C2694 C2695 1.396 . S
C2694 C2699 1.390 . S
C2695 C2689 1.465 . S
C2695 C2694 1.396 . S
C2695 C2696 1.399 . S
C2696 H2682 0.929 . S
C2696 C2695 1.399 . S
C2696 C2697 1.385 . S
C2697 H2683 0.931 . S
C2697 C2696 1.385 . S
C2697 C2698 1.389 . S
C2698 C2697 1.389 . S
C2698 C2699 1.387 . S
C2699 H2684 0.930 . S
C2699 C2694 1.390 . S
C2699 C2698 1.387 . S
H2700 C2712 0.930 . S
H2701 C2714 0.930 . S
H2702 C2715 0.930 . S
H2703 C2719 0.959 . S
H2704 C2719 0.959 . S
H2705 C2719 0.961 . S
H2706 C2720 0.960 . S
H2707 C2720 0.961 . S
H2708 C2720 0.959 . S
H2709 C2723 0.929 . S
H2710 C2724 0.931 . S
H2711 C2726 0.930 . S
C2712 H2700 0.930 . S
C2712 C2713 1.399 . S
C2712 C2717 1.399 . S
C2713 C2712 1.399 . S
C2713 C2714 1.376 . S
C2714 H2701 0.930 . S
C2714 C2713 1.376 . S
C2714 C2715 1.388 . S
C2715 H2702 0.930 . S
C2715 C2714 1.388 . S
C2715 C2716 1.390 . S
C2716 C2715 1.390 . S
C2716 C2717 1.394 . S
C2716 C2722 1.465 . S
C2717 C2712 1.399 . S
C2717 C2716 1.394 . S
C2717 C2718 1.516 . S
C2718 C2717 1.516 . S
C2718 C2719 1.502 . S
C2718 C2720 1.561 . S
C2718 C2721 1.526 . S
C2719 H2703 0.959 . S
C2719 H2704 0.959 . S
C2719 H2705 0.961 . S
C2719 C2718 1.502 . S
C2720 H2706 0.960 . S
C2720 H2707 0.961 . S
C2720 H2708 0.959 . S
C2720 C2718 1.561 . S
C2721 C2718 1.526 . S
C2721 C2722 1.396 . S
C2721 C2726 1.390 . S
C2722 C2716 1.465 . S
C2722 C2721 1.396 . S
C2722 C2723 1.399 . S
C2723 H2709 0.929 . S
C2723 C2722 1.399 . S
C2723 C2724 1.385 . S
C2724 H2710 0.931 . S
C2724 C2723 1.385 . S
C2724 C2725 1.389 . S
C2725 C2724 1.389 . S
C2725 C2726 1.387 . S
C2726 H2711 0.930 . S
C2726 C2721 1.390 . S
C2726 C2725 1.387 . S
H2727 C2739 0.930 . S
H2728 C2741 0.930 . S
H2729 C2742 0.930 . S
H2730 C2746 0.959 . S
H2731 C2746 0.959 . S
H2732 C2746 0.961 . S
H2733 C2747 0.960 . S
H2734 C2747 0.961 . S
H2735 C2747 0.959 . S
H2736 C2750 0.929 . S
H2737 C2751 0.931 . S
H2738 C2753 0.930 . S
C2739 H2727 0.930 . S
C2739 C2740 1.399 . S
C2739 C2744 1.399 . S
C2740 C2739 1.399 . S
C2740 C2741 1.376 . S
C2741 H2728 0.930 . S
C2741 C2740 1.376 . S
C2741 C2742 1.388 . S
C2742 H2729 0.930 . S
C2742 C2741 1.388 . S
C2742 C2743 1.390 . S
C2743 C2742 1.390 . S
C2743 C2744 1.394 . S
C2743 C2749 1.465 . S
C2744 C2739 1.399 . S
C2744 C2743 1.394 . S
C2744 C2745 1.516 . S
C2745 C2744 1.516 . S
C2745 C2746 1.502 . S
C2745 C2747 1.561 . S
C2745 C2748 1.526 . S
C2746 H2730 0.959 . S
C2746 H2731 0.959 . S
C2746 H2732 0.961 . S
C2746 C2745 1.502 . S
C2747 H2733 0.960 . S
C2747 H2734 0.961 . S
C2747 H2735 0.959 . S
C2747 C2745 1.561 . S
C2748 C2745 1.526 . S
C2748 C2749 1.396 . S
C2748 C2753 1.390 . S
C2749 C2743 1.465 . S
C2749 C2748 1.396 . S
C2749 C2750 1.399 . S
C2750 H2736 0.929 . S
C2750 C2749 1.399 . S
C2750 C2751 1.385 . S
C2751 H2737 0.931 . S
C2751 C2750 1.385 . S
C2751 C2752 1.389 . S
C2752 C2751 1.389 . S
C2752 C2753 1.387 . S
C2753 H2738 0.930 . S
C2753 C2748 1.390 . S
C2753 C2752 1.387 . S
H2754 C2766 0.930 . S
H2755 C2768 0.930 . S
H2756 C2769 0.930 . S
H2757 C2773 0.959 . S
H2758 C2773 0.959 . S
H2759 C2773 0.961 . S
H2760 C2774 0.960 . S
H2761 C2774 0.961 . S
H2762 C2774 0.959 . S
H2763 C2777 0.929 . S
H2764 C2778 0.931 . S
H2765 C2780 0.930 . S
C2766 H2754 0.930 . S
C2766 C2767 1.399 . S
C2766 C2771 1.399 . S
C2767 C2766 1.399 . S
C2767 C2768 1.376 . S
C2768 H2755 0.930 . S
C2768 C2767 1.376 . S
C2768 C2769 1.388 . S
C2769 H2756 0.930 . S
C2769 C2768 1.388 . S
C2769 C2770 1.390 . S
C2770 C2769 1.390 . S
C2770 C2771 1.394 . S
C2770 C2776 1.465 . S
C2771 C2766 1.399 . S
C2771 C2770 1.394 . S
C2771 C2772 1.516 . S
C2772 C2771 1.516 . S
C2772 C2773 1.502 . S
C2772 C2774 1.561 . S
C2772 C2775 1.526 . S
C2773 H2757 0.959 . S
C2773 H2758 0.959 . S
C2773 H2759 0.961 . S
C2773 C2772 1.502 . S
C2774 H2760 0.960 . S
C2774 H2761 0.961 . S
C2774 H2762 0.959 . S
C2774 C2772 1.561 . S
C2775 C2772 1.526 . S
C2775 C2776 1.396 . S
C2775 C2780 1.390 . S
C2776 C2770 1.465 . S
C2776 C2775 1.396 . S
C2776 C2777 1.399 . S
C2777 H2763 0.929 . S
C2777 C2776 1.399 . S
C2777 C2778 1.385 . S
C2778 H2764 0.931 . S
C2778 C2777 1.385 . S
C2778 C2779 1.389 . S
C2779 C2778 1.389 . S
C2779 C2780 1.387 . S
C2780 H2765 0.930 . S
C2780 C2775 1.390 . S
C2780 C2779 1.387 . S
H2781 C2793 0.930 . S
H2782 C2795 0.930 . S
H2783 C2796 0.930 . S
H2784 C2800 0.959 . S
H2785 C2800 0.959 . S
H2786 C2800 0.961 . S
H2787 C2801 0.960 . S
H2788 C2801 0.961 . S
H2789 C2801 0.959 . S
H2790 C2804 0.929 . S
H2791 C2805 0.931 . S
H2792 C2807 0.930 . S
C2793 H2781 0.930 . S
C2793 C2794 1.399 . S
C2793 C2798 1.399 . S
C2794 C2793 1.399 . S
C2794 C2795 1.376 . S
C2795 H2782 0.930 . S
C2795 C2794 1.376 . S
C2795 C2796 1.388 . S
C2796 H2783 0.930 . S
C2796 C2795 1.388 . S
C2796 C2797 1.390 . S
C2797 C2796 1.390 . S
C2797 C2798 1.394 . S
C2797 C2803 1.465 . S
C2798 C2793 1.399 . S
C2798 C2797 1.394 . S
C2798 C2799 1.516 . S
C2799 C2798 1.516 . S
C2799 C2800 1.502 . S
C2799 C2801 1.561 . S
C2799 C2802 1.526 . S
C2800 H2784 0.959 . S
C2800 H2785 0.959 . S
C2800 H2786 0.961 . S
C2800 C2799 1.502 . S
C2801 H2787 0.960 . S
C2801 H2788 0.961 . S
C2801 H2789 0.959 . S
C2801 C2799 1.561 . S
C2802 C2799 1.526 . S
C2802 C2803 1.396 . S
C2802 C2807 1.390 . S
C2803 C2797 1.465 . S
C2803 C2802 1.396 . S
C2803 C2804 1.399 . S
C2804 H2790 0.929 . S
C2804 C2803 1.399 . S
C2804 C2805 1.385 . S
C2805 H2791 0.931 . S
C2805 C2804 1.385 . S
C2805 C2806 1.389 . S
C2806 C2805 1.389 . S
C2806 C2807 1.387 . S
C2807 H2792 0.930 . S
C2807 C2802 1.390 . S
C2807 C2806 1.387 . S
H2808 C2820 0.930 . S
H2809 C2822 0.930 . S
H2810 C2823 0.930 . S
H2811 C2827 0.959 . S
H2812 C2827 0.959 . S
H2813 C2827 0.961 . S
H2814 C2828 0.960 . S
H2815 C2828 0.961 . S
H2816 C2828 0.959 . S
H2817 C2831 0.929 . S
H2818 C2832 0.931 . S
H2819 C2834 0.930 . S
C2820 H2808 0.930 . S
C2820 C2821 1.399 . S
C2820 C2825 1.399 . S
C2821 C2820 1.399 . S
C2821 C2822 1.376 . S
C2822 H2809 0.930 . S
C2822 C2821 1.376 . S
C2822 C2823 1.388 . S
C2823 H2810 0.930 . S
C2823 C2822 1.388 . S
C2823 C2824 1.390 . S
C2824 C2823 1.390 . S
C2824 C2825 1.394 . S
C2824 C2830 1.465 . S
C2825 C2820 1.399 . S
C2825 C2824 1.394 . S
C2825 C2826 1.516 . S
C2826 C2825 1.516 . S
C2826 C2827 1.502 . S
C2826 C2828 1.561 . S
C2826 C2829 1.526 . S
C2827 H2811 0.959 . S
C2827 H2812 0.959 . S
C2827 H2813 0.961 . S
C2827 C2826 1.502 . S
C2828 H2814 0.960 . S
C2828 H2815 0.961 . S
C2828 H2816 0.959 . S
C2828 C2826 1.561 . S
C2829 C2826 1.526 . S
C2829 C2830 1.396 . S
C2829 C2834 1.390 . S
C2830 C2824 1.465 . S
C2830 C2829 1.396 . S
C2830 C2831 1.399 . S
C2831 H2817 0.929 . S
C2831 C2830 1.399 . S
C2831 C2832 1.385 . S
C2832 H2818 0.931 . S
C2832 C2831 1.385 . S
C2832 C2833 1.389 . S
C2833 C2832 1.389 . S
C2833 C2834 1.387 . S
C2834 H2819 0.930 . S
C2834 C2829 1.390 . S
C2834 C2833 1.387 . S
H2835 C2847 0.930 . S
H2836 C2849 0.930 . S
H2837 C2850 0.930 . S
H2838 C2854 0.959 . S
H2839 C2854 0.959 . S
H2840 C2854 0.961 . S
H2841 C2855 0.960 . S
H2842 C2855 0.961 . S
H2843 C2855 0.959 . S
H2844 C2858 0.929 . S
H2845 C2859 0.931 . S
H2846 C2861 0.930 . S
C2847 H2835 0.930 . S
C2847 C2848 1.399 . S
C2847 C2852 1.399 . S
C2848 C2847 1.399 . S
C2848 C2849 1.376 . S
C2849 H2836 0.930 . S
C2849 C2848 1.376 . S
C2849 C2850 1.388 . S
C2850 H2837 0.930 . S
C2850 C2849 1.388 . S
C2850 C2851 1.390 . S
C2851 C2850 1.390 . S
C2851 C2852 1.394 . S
C2851 C2857 1.465 . S
C2852 C2847 1.399 . S
C2852 C2851 1.394 . S
C2852 C2853 1.516 . S
C2853 C2852 1.516 . S
C2853 C2854 1.502 . S
C2853 C2855 1.561 . S
C2853 C2856 1.526 . S
C2854 H2838 0.959 . S
C2854 H2839 0.959 . S
C2854 H2840 0.961 . S
C2854 C2853 1.502 . S
C2855 H2841 0.960 . S
C2855 H2842 0.961 . S
C2855 H2843 0.959 . S
C2855 C2853 1.561 . S
C2856 C2853 1.526 . S
C2856 C2857 1.396 . S
C2856 C2861 1.390 . S
C2857 C2851 1.465 . S
C2857 C2856 1.396 . S
C2857 C2858 1.399 . S
C2858 H2844 0.929 . S
C2858 C2857 1.399 . S
C2858 C2859 1.385 . S
C2859 H2845 0.931 . S
C2859 C2858 1.385 . S
C2859 C2860 1.389 . S
C2860 C2859 1.389 . S
C2860 C2861 1.387 . S
C2861 H2846 0.930 . S
C2861 C2856 1.390 . S
C2861 C2860 1.387 . S
H2862 C2874 0.930 . S
H2863 C2876 0.930 . S
H2864 C2877 0.930 . S
H2865 C2881 0.959 . S
H2866 C2881 0.959 . S
H2867 C2881 0.961 . S
H2868 C2882 0.960 . S
H2869 C2882 0.961 . S
H2870 C2882 0.959 . S
H2871 C2885 0.929 . S
H2872 C2886 0.931 . S
H2873 C2888 0.930 . S
C2874 H2862 0.930 . S
C2874 C2875 1.399 . S
C2874 C2879 1.399 . S
C2875 C2874 1.399 . S
C2875 C2876 1.376 . S
C2876 H2863 0.930 . S
C2876 C2875 1.376 . S
C2876 C2877 1.388 . S
C2877 H2864 0.930 . S
C2877 C2876 1.388 . S
C2877 C2878 1.390 . S
C2878 C2877 1.390 . S
C2878 C2879 1.394 . S
C2878 C2884 1.465 . S
C2879 C2874 1.399 . S
C2879 C2878 1.394 . S
C2879 C2880 1.516 . S
C2880 C2879 1.516 . S
C2880 C2881 1.502 . S
C2880 C2882 1.561 . S
C2880 C2883 1.526 . S
C2881 H2865 0.959 . S
C2881 H2866 0.959 . S
C2881 H2867 0.961 . S
C2881 C2880 1.502 . S
C2882 H2868 0.960 . S
C2882 H2869 0.961 . S
C2882 H2870 0.959 . S
C2882 C2880 1.561 . S
C2883 C2880 1.526 . S
C2883 C2884 1.396 . S
C2883 C2888 1.390 . S
C2884 C2878 1.465 . S
C2884 C2883 1.396 . S
C2884 C2885 1.399 . S
C2885 H2871 0.929 . S
C2885 C2884 1.399 . S
C2885 C2886 1.385 . S
C2886 H2872 0.931 . S
C2886 C2885 1.385 . S
C2886 C2887 1.389 . S
C2887 C2886 1.389 . S
C2887 C2888 1.387 . S
C2888 H2873 0.930 . S
C2888 C2883 1.390 . S
C2888 C2887 1.387 . S
H2889 C2901 0.930 . S
H2890 C2903 0.930 . S
H2891 C2904 0.930 . S
H2892 C2908 0.959 . S
H2893 C2908 0.959 . S
H2894 C2908 0.961 . S
H2895 C2909 0.960 . S
H2896 C2909 0.961 . S
H2897 C2909 0.959 . S
H2898 C2912 0.929 . S
H2899 C2913 0.931 . S
H2900 C2915 0.930 . S
C2901 H2889 0.930 . S
C2901 C2902 1.399 . S
C2901 C2906 1.399 . S
C2902 C2901 1.399 . S
C2902 C2903 1.376 . S
C2903 H2890 0.930 . S
C2903 C2902 1.376 . S
C2903 C2904 1.388 . S
C2904 H2891 0.930 . S
C2904 C2903 1.388 . S
C2904 C2905 1.390 . S
C2905 C2904 1.390 . S
C2905 C2906 1.394 . S
C2905 C2911 1.465 . S
C2906 C2901 1.399 . S
C2906 C2905 1.394 . S
C2906 C2907 1.516 . S
C2907 C2906 1.516 . S
C2907 C2908 1.502 . S
C2907 C2909 1.561 . S
C2907 C2910 1.526 . S
C2908 H2892 0.959 . S
C2908 H2893 0.959 . S
C2908 H2894 0.961 . S
C2908 C2907 1.502 . S
C2909 H2895 0.960 . S
C2909 H2896 0.961 . S
C2909 H2897 0.959 . S
C2909 C2907 1.561 . S
C2910 C2907 1.526 . S
C2910 C2911 1.396 . S
C2910 C2915 1.390 . S
C2911 C2905 1.465 . S
C2911 C2910 1.396 . S
C2911 C2912 1.399 . S
C2912 H2898 0.929 . S
C2912 C2911 1.399 . S
C2912 C2913 1.385 . S
C2913 H2899 0.931 . S
C2913 C2912 1.385 . S
C2913 C2914 1.389 . S
C2914 C2913 1.389 . S
C2914 C2915 1.387 . S
C2915 H2900 0.930 . S
C2915 C2910 1.390 . S
C2915 C2914 1.387 . S
H2916 C2928 0.930 . S
H2917 C2930 0.930 . S
H2918 C2931 0.930 . S
H2919 C2935 0.959 . S
H2920 C2935 0.959 . S
H2921 C2935 0.961 . S
H2922 C2936 0.960 . S
H2923 C2936 0.961 . S
H2924 C2936 0.959 . S
H2925 C2939 0.929 . S
H2926 C2940 0.931 . S
H2927 C2942 0.930 . S
C2928 H2916 0.930 . S
C2928 C2929 1.399 . S
C2928 C2933 1.399 . S
C2929 C2928 1.399 . S
C2929 C2930 1.376 . S
C2930 H2917 0.930 . S
C2930 C2929 1.376 . S
C2930 C2931 1.388 . S
C2931 H2918 0.930 . S
C2931 C2930 1.388 . S
C2931 C2932 1.390 . S
C2932 C2931 1.390 . S
C2932 C2933 1.394 . S
C2932 C2938 1.465 . S
C2933 C2928 1.399 . S
C2933 C2932 1.394 . S
C2933 C2934 1.516 . S
C2934 C2933 1.516 . S
C2934 C2935 1.502 . S
C2934 C2936 1.561 . S
C2934 C2937 1.526 . S
C2935 H2919 0.959 . S
C2935 H2920 0.959 . S
C2935 H2921 0.961 . S
C2935 C2934 1.502 . S
C2936 H2922 0.960 . S
C2936 H2923 0.961 . S
C2936 H2924 0.959 . S
C2936 C2934 1.561 . S
C2937 C2934 1.526 . S
C2937 C2938 1.396 . S
C2937 C2942 1.390 . S
C2938 C2932 1.465 . S
C2938 C2937 1.396 . S
C2938 C2939 1.399 . S
C2939 H2925 0.929 . S
C2939 C2938 1.399 . S
C2939 C2940 1.385 . S
C2940 H2926 0.931 . S
C2940 C2939 1.385 . S
C2940 C2941 1.389 . S
C2941 C2940 1.389 . S
C2941 C2942 1.387 . S
C2942 H2927 0.930 . S
C2942 C2937 1.390 . S
C2942 C2941 1.387 . S
H2943 C2955 0.930 . S
H2944 C2957 0.930 . S
H2945 C2958 0.930 . S
H2946 C2962 0.959 . S
H2947 C2962 0.959 . S
H2948 C2962 0.961 . S
H2949 C2963 0.960 . S
H2950 C2963 0.961 . S
H2951 C2963 0.959 . S
H2952 C2966 0.929 . S
H2953 C2967 0.931 . S
H2954 C2969 0.930 . S
C2955 H2943 0.930 . S
C2955 C2956 1.399 . S
C2955 C2960 1.399 . S
C2956 C2955 1.399 . S
C2956 C2957 1.376 . S
C2957 H2944 0.930 . S
C2957 C2956 1.376 . S
C2957 C2958 1.388 . S
C2958 H2945 0.930 . S
C2958 C2957 1.388 . S
C2958 C2959 1.390 . S
C2959 C2958 1.390 . S
C2959 C2960 1.394 . S
C2959 C2965 1.465 . S
C2960 C2955 1.399 . S
C2960 C2959 1.394 . S
C2960 C2961 1.516 . S
C2961 C2960 1.516 . S
C2961 C2962 1.502 . S
C2961 C2963 1.561 . S
C2961 C2964 1.526 . S
C2962 H2946 0.959 . S
C2962 H2947 0.959 . S
C2962 H2948 0.961 . S
C2962 C2961 1.502 . S
C2963 H2949 0.960 . S
C2963 H2950 0.961 . S
C2963 H2951 0.959 . S
C2963 C2961 1.561 . S
C2964 C2961 1.526 . S
C2964 C2965 1.396 . S
C2964 C2969 1.390 . S
C2965 C2959 1.465 . S
C2965 C2964 1.396 . S
C2965 C2966 1.399 . S
C2966 H2952 0.929 . S
C2966 C2965 1.399 . S
C2966 C2967 1.385 . S
C2967 H2953 0.931 . S
C2967 C2966 1.385 . S
C2967 C2968 1.389 . S
C2968 C2967 1.389 . S
C2968 C2969 1.387 . S
C2969 H2954 0.930 . S
C2969 C2964 1.390 . S
C2969 C2968 1.387 . S
H2970 C2982 0.930 . S
H2971 C2984 0.930 1_554 S
H2972 C2985 0.930 . S
H2973 C2989 0.959 . S
H2974 C2989 0.959 . S
H2975 C2989 0.961 . S
H2976 C2990 0.960 . S
H2977 C2990 0.961 . S
H2978 C2990 0.959 . S
H2979 C2993 0.929 . S
H2980 C2994 0.931 . S
H2981 C2996 0.930 . S
C2982 H2970 0.930 . S
C2982 C2983 1.399 1_556 S
C2982 C2987 1.399 . S
C2983 C2982 1.399 1_554 S
C2983 C2984 1.376 1_554 S
C2984 H2971 0.930 1_556 S
C2984 C2983 1.376 1_556 S
C2984 C2985 1.388 . S
C2985 H2972 0.930 . S
C2985 C2984 1.388 . S
C2985 C2986 1.390 . S
C2986 C2985 1.390 . S
C2986 C2987 1.394 . S
C2986 C2992 1.465 . S
C2987 C2982 1.399 . S
C2987 C2986 1.394 . S
C2987 C2988 1.516 . S
C2988 C2987 1.516 . S
C2988 C2989 1.502 . S
C2988 C2990 1.561 . S
C2988 C2991 1.526 . S
C2989 H2973 0.959 . S
C2989 H2974 0.959 . S
C2989 H2975 0.961 . S
C2989 C2988 1.502 . S
C2990 H2976 0.960 . S
C2990 H2977 0.961 . S
C2990 H2978 0.959 . S
C2990 C2988 1.561 . S
C2991 C2988 1.526 . S
C2991 C2992 1.396 . S
C2991 C2996 1.390 . S
C2992 C2986 1.465 . S
C2992 C2991 1.396 . S
C2992 C2993 1.399 . S
C2993 H2979 0.929 . S
C2993 C2992 1.399 . S
C2993 C2994 1.385 . S
C2994 H2980 0.931 . S
C2994 C2993 1.385 . S
C2994 C2995 1.389 . S
C2995 C2994 1.389 . S
C2995 C2996 1.387 . S
C2996 H2981 0.930 . S
C2996 C2991 1.390 . S
C2996 C2995 1.387 . S
H2997 C3009 0.930 . S
H2998 C3011 0.930 1_554 S
H2999 C3012 0.930 . S
H3000 C3016 0.959 . S
H3001 C3016 0.959 . S
H3002 C3016 0.961 . S
H3003 C3017 0.960 . S
H3004 C3017 0.961 . S
H3005 C3017 0.959 . S
H3006 C3020 0.929 . S
H3007 C3021 0.931 . S
H3008 C3023 0.930 . S
C3009 H2997 0.930 . S
C3009 C3010 1.399 1_556 S
C3009 C3014 1.399 . S
C3010 C3009 1.399 1_554 S
C3010 C3011 1.376 1_554 S
C3011 H2998 0.930 1_556 S
C3011 C3010 1.376 1_556 S
C3011 C3012 1.388 . S
C3012 H2999 0.930 . S
C3012 C3011 1.388 . S
C3012 C3013 1.390 . S
C3013 C3012 1.390 . S
C3013 C3014 1.394 . S
C3013 C3019 1.465 . S
C3014 C3009 1.399 . S
C3014 C3013 1.394 . S
C3014 C3015 1.516 . S
C3015 C3014 1.516 . S
C3015 C3016 1.502 . S
C3015 C3017 1.561 . S
C3015 C3018 1.526 . S
C3016 H3000 0.959 . S
C3016 H3001 0.959 . S
C3016 H3002 0.961 . S
C3016 C3015 1.502 . S
C3017 H3003 0.960 . S
C3017 H3004 0.961 . S
C3017 H3005 0.959 . S
C3017 C3015 1.561 . S
C3018 C3015 1.526 . S
C3018 C3019 1.396 . S
C3018 C3023 1.390 . S
C3019 C3013 1.465 . S
C3019 C3018 1.396 . S
C3019 C3020 1.399 . S
C3020 H3006 0.929 . S
C3020 C3019 1.399 . S
C3020 C3021 1.385 . S
C3021 H3007 0.931 . S
C3021 C3020 1.385 . S
C3021 C3022 1.389 . S
C3022 C3021 1.389 . S
C3022 C3023 1.387 . S
C3023 H3008 0.930 . S
C3023 C3018 1.390 . S
C3023 C3022 1.387 . S
H3024 C3036 0.930 . S
H3025 C3038 0.930 . S
H3026 C3039 0.930 . S
H3027 C3043 0.959 . S
H3028 C3043 0.959 . S
H3029 C3043 0.961 . S
H3030 C3044 0.960 . S
H3031 C3044 0.961 . S
H3032 C3044 0.959 . S
H3033 C3047 0.929 . S
H3034 C3048 0.931 1_554 S
H3035 C3050 0.930 . S
C3036 H3024 0.930 . S
C3036 C3037 1.399 . S
C3036 C3041 1.399 . S
C3037 C3036 1.399 . S
C3037 C3038 1.376 . S
C3038 H3025 0.930 . S
C3038 C3037 1.376 . S
C3038 C3039 1.388 . S
C3039 H3026 0.930 . S
C3039 C3038 1.388 . S
C3039 C3040 1.390 . S
C3040 C3039 1.390 . S
C3040 C3041 1.394 . S
C3040 C3046 1.465 . S
C3041 C3036 1.399 . S
C3041 C3040 1.394 . S
C3041 C3042 1.516 . S
C3042 C3041 1.516 . S
C3042 C3043 1.502 . S
C3042 C3044 1.561 . S
C3042 C3045 1.526 . S
C3043 H3027 0.959 . S
C3043 H3028 0.959 . S
C3043 H3029 0.961 . S
C3043 C3042 1.502 . S
C3044 H3030 0.960 . S
C3044 H3031 0.961 . S
C3044 H3032 0.959 . S
C3044 C3042 1.561 . S
C3045 C3042 1.526 . S
C3045 C3046 1.396 . S
C3045 C3050 1.390 . S
C3046 C3040 1.465 . S
C3046 C3045 1.396 . S
C3046 C3047 1.399 . S
C3047 H3033 0.929 . S
C3047 C3046 1.399 . S
C3047 C3048 1.385 . S
C3048 H3034 0.931 1_556 S
C3048 C3047 1.385 . S
C3048 C3049 1.389 1_556 S
C3049 C3048 1.389 1_554 S
C3049 C3050 1.387 1_554 S
C3050 H3035 0.930 . S
C3050 C3045 1.390 . S
C3050 C3049 1.387 1_556 S
H3051 C3063 0.930 . S
H3052 C3065 0.930 . S
H3053 C3066 0.930 . S
H3054 C3070 0.959 . S
H3055 C3070 0.959 . S
H3056 C3070 0.961 . S
H3057 C3071 0.960 . S
H3058 C3071 0.961 . S
H3059 C3071 0.959 . S
H3060 C3074 0.929 . S
H3061 C3075 0.931 . S
H3062 C3077 0.930 1_554 S
C3063 H3051 0.930 . S
C3063 C3064 1.399 . S
C3063 C3068 1.399 . S
C3064 C3063 1.399 . S
C3064 C3065 1.376 . S
C3065 H3052 0.930 . S
C3065 C3064 1.376 . S
C3065 C3066 1.388 . S
C3066 H3053 0.930 . S
C3066 C3065 1.388 . S
C3066 C3067 1.390 . S
C3067 C3066 1.390 . S
C3067 C3068 1.394 . S
C3067 C3073 1.465 . S
C3068 C3063 1.399 . S
C3068 C3067 1.394 . S
C3068 C3069 1.516 . S
C3069 C3068 1.516 . S
C3069 C3070 1.502 . S
C3069 C3071 1.561 . S
C3069 C3072 1.526 . S
C3070 H3054 0.959 . S
C3070 H3055 0.959 . S
C3070 H3056 0.961 . S
C3070 C3069 1.502 . S
C3071 H3057 0.960 . S
C3071 H3058 0.961 . S
C3071 H3059 0.959 . S
C3071 C3069 1.561 . S
C3072 C3069 1.526 . S
C3072 C3073 1.396 . S
C3072 C3077 1.390 . S
C3073 C3067 1.465 . S
C3073 C3072 1.396 . S
C3073 C3074 1.399 . S
C3074 H3060 0.929 . S
C3074 C3073 1.399 . S
C3074 C3075 1.385 1_556 S
C3075 H3061 0.931 . S
C3075 C3074 1.385 1_554 S
C3075 C3076 1.389 . S
C3076 C3075 1.389 . S
C3076 C3077 1.387 1_554 S
C3077 H3062 0.930 1_556 S
C3077 C3072 1.390 . S
C3077 C3076 1.387 1_556 S
H3078 C3090 0.930 . S
H3079 C3092 0.930 . S
H3080 C3093 0.930 . S
H3081 C3097 0.959 . S
H3082 C3097 0.959 . S
H3083 C3097 0.961 . S
H3084 C3098 0.960 . S
H3085 C3098 0.961 . S
H3086 C3098 0.959 . S
H3087 C3101 0.929 . S
H3088 C3102 0.931 . S
H3089 C3104 0.930 1_554 S
C3090 H3078 0.930 . S
C3090 C3091 1.399 . S
C3090 C3095 1.399 . S
C3091 C3090 1.399 . S
C3091 C3092 1.376 . S
C3092 H3079 0.930 . S
C3092 C3091 1.376 . S
C3092 C3093 1.388 . S
C3093 H3080 0.930 . S
C3093 C3092 1.388 . S
C3093 C3094 1.390 . S
C3094 C3093 1.390 . S
C3094 C3095 1.394 . S
C3094 C3100 1.465 . S
C3095 C3090 1.399 . S
C3095 C3094 1.394 . S
C3095 C3096 1.516 . S
C3096 C3095 1.516 . S
C3096 C3097 1.502 . S
C3096 C3098 1.561 . S
C3096 C3099 1.526 . S
C3097 H3081 0.959 . S
C3097 H3082 0.959 . S
C3097 H3083 0.961 . S
C3097 C3096 1.502 . S
C3098 H3084 0.960 . S
C3098 H3085 0.961 . S
C3098 H3086 0.959 . S
C3098 C3096 1.561 . S
C3099 C3096 1.526 . S
C3099 C3100 1.396 . S
C3099 C3104 1.390 . S
C3100 C3094 1.465 . S
C3100 C3099 1.396 . S
C3100 C3101 1.399 . S
C3101 H3087 0.929 . S
C3101 C3100 1.399 . S
C3101 C3102 1.385 1_556 S
C3102 H3088 0.931 . S
C3102 C3101 1.385 1_554 S
C3102 C3103 1.389 . S
C3103 C3102 1.389 . S
C3103 C3104 1.387 1_554 S
C3104 H3089 0.930 1_556 S
C3104 C3099 1.390 . S
C3104 C3103 1.387 1_556 S
H3105 C3117 0.930 1_554 S
H3106 C3119 0.930 . S
H3107 C3120 0.930 . S
H3108 C3124 0.959 . S
H3109 C3124 0.959 . S
H3110 C3124 0.961 . S
H3111 C3125 0.960 . S
H3112 C3125 0.961 . S
H3113 C3125 0.959 . S
H3114 C3128 0.929 . S
H3115 C3129 0.931 . S
H3116 C3131 0.930 . S
C3117 H3105 0.930 1_556 S
C3117 C3118 1.399 1_556 S
C3117 C3122 1.399 . S
C3118 C3117 1.399 1_554 S
C3118 C3119 1.376 . S
C3119 H3106 0.930 . S
C3119 C3118 1.376 . S
C3119 C3120 1.388 1_554 S
C3120 H3107 0.930 . S
C3120 C3119 1.388 1_556 S
C3120 C3121 1.390 . S
C3121 C3120 1.390 . S
C3121 C3122 1.394 . S
C3121 C3127 1.465 . S
C3122 C3117 1.399 . S
C3122 C3121 1.394 . S
C3122 C3123 1.516 . S
C3123 C3122 1.516 . S
C3123 C3124 1.502 . S
C3123 C3125 1.561 . S
C3123 C3126 1.526 . S
C3124 H3108 0.959 . S
C3124 H3109 0.959 . S
C3124 H3110 0.961 . S
C3124 C3123 1.502 . S
C3125 H3111 0.960 . S
C3125 H3112 0.961 . S
C3125 H3113 0.959 . S
C3125 C3123 1.561 . S
C3126 C3123 1.526 . S
C3126 C3127 1.396 . S
C3126 C3131 1.390 . S
C3127 C3121 1.465 . S
C3127 C3126 1.396 . S
C3127 C3128 1.399 . S
C3128 H3114 0.929 . S
C3128 C3127 1.399 . S
C3128 C3129 1.385 . S
C3129 H3115 0.931 . S
C3129 C3128 1.385 . S
C3129 C3130 1.389 . S
C3130 C3129 1.389 . S
C3130 C3131 1.387 . S
C3131 H3116 0.930 . S
C3131 C3126 1.390 . S
C3131 C3130 1.387 . S
H3132 C3144 0.930 . S
H3133 C3146 0.930 . S
H3134 C3147 0.930 . S
H3135 C3151 0.959 . S
H3136 C3151 0.959 . S
H3137 C3151 0.961 . S
H3138 C3152 0.960 . S
H3139 C3152 0.961 . S
H3140 C3152 0.959 . S
H3141 C3155 0.929 . S
H3142 C3156 0.931 . S
H3143 C3158 0.930 1_554 S
C3144 H3132 0.930 . S
C3144 C3145 1.399 . S
C3144 C3149 1.399 . S
C3145 C3144 1.399 . S
C3145 C3146 1.376 . S
C3146 H3133 0.930 . S
C3146 C3145 1.376 . S
C3146 C3147 1.388 . S
C3147 H3134 0.930 . S
C3147 C3146 1.388 . S
C3147 C3148 1.390 . S
C3148 C3147 1.390 . S
C3148 C3149 1.394 . S
C3148 C3154 1.465 . S
C3149 C3144 1.399 . S
C3149 C3148 1.394 . S
C3149 C3150 1.516 . S
C3150 C3149 1.516 . S
C3150 C3151 1.502 . S
C3150 C3152 1.561 . S
C3150 C3153 1.526 . S
C3151 H3135 0.959 . S
C3151 H3136 0.959 . S
C3151 H3137 0.961 . S
C3151 C3150 1.502 . S
C3152 H3138 0.960 . S
C3152 H3139 0.961 . S
C3152 H3140 0.959 . S
C3152 C3150 1.561 . S
C3153 C3150 1.526 . S
C3153 C3154 1.396 . S
C3153 C3158 1.390 . S
C3154 C3148 1.465 . S
C3154 C3153 1.396 . S
C3154 C3155 1.399 . S
C3155 H3141 0.929 . S
C3155 C3154 1.399 . S
C3155 C3156 1.385 1_556 S
C3156 H3142 0.931 . S
C3156 C3155 1.385 1_554 S
C3156 C3157 1.389 . S
C3157 C3156 1.389 . S
C3157 C3158 1.387 1_554 S
C3158 H3143 0.930 1_556 S
C3158 C3153 1.390 . S
C3158 C3157 1.387 1_556 S
H3159 C3171 0.930 1_554 S
H3160 C3173 0.930 . S
H3161 C3174 0.930 . S
H3162 C3178 0.959 . S
H3163 C3178 0.959 . S
H3164 C3178 0.961 . S
H3165 C3179 0.960 . S
H3166 C3179 0.961 . S
H3167 C3179 0.959 . S
H3168 C3182 0.929 . S
H3169 C3183 0.931 . S
H3170 C3185 0.930 . S
C3171 H3159 0.930 1_556 S
C3171 C3172 1.399 1_556 S
C3171 C3176 1.399 . S
C3172 C3171 1.399 1_554 S
C3172 C3173 1.376 . S
C3173 H3160 0.930 . S
C3173 C3172 1.376 . S
C3173 C3174 1.388 1_554 S
C3174 H3161 0.930 . S
C3174 C3173 1.388 1_556 S
C3174 C3175 1.390 . S
C3175 C3174 1.390 . S
C3175 C3176 1.394 . S
C3175 C3181 1.465 . S
C3176 C3171 1.399 . S
C3176 C3175 1.394 . S
C3176 C3177 1.516 . S
C3177 C3176 1.516 . S
C3177 C3178 1.502 . S
C3177 C3179 1.561 . S
C3177 C3180 1.526 . S
C3178 H3162 0.959 . S
C3178 H3163 0.959 . S
C3178 H3164 0.961 . S
C3178 C3177 1.502 . S
C3179 H3165 0.960 . S
C3179 H3166 0.961 . S
C3179 H3167 0.959 . S
C3179 C3177 1.561 . S
C3180 C3177 1.526 . S
C3180 C3181 1.396 . S
C3180 C3185 1.390 . S
C3181 C3175 1.465 . S
C3181 C3180 1.396 . S
C3181 C3182 1.399 . S
C3182 H3168 0.929 . S
C3182 C3181 1.399 . S
C3182 C3183 1.385 . S
C3183 H3169 0.931 . S
C3183 C3182 1.385 . S
C3183 C3184 1.389 . S
C3184 C3183 1.389 . S
C3184 C3185 1.387 . S
C3185 H3170 0.930 . S
C3185 C3180 1.390 . S
C3185 C3184 1.387 . S
H3186 C3198 0.930 . S
H3187 C3200 0.930 . S
H3188 C3201 0.930 . S
H3189 C3205 0.959 . S
H3190 C3205 0.959 . S
H3191 C3205 0.961 . S
H3192 C3206 0.960 . S
H3193 C3206 0.961 . S
H3194 C3206 0.959 . S
H3195 C3209 0.929 . S
H3196 C3210 0.931 . S
H3197 C3212 0.930 . S
C3198 H3186 0.930 . S
C3198 C3199 1.399 . S
C3198 C3203 1.399 1_554 S
C3199 C3198 1.399 . S
C3199 C3200 1.376 . S
C3200 H3187 0.930 . S
C3200 C3199 1.376 . S
C3200 C3201 1.388 1_554 S
C3201 H3188 0.930 . S
C3201 C3200 1.388 1_556 S
C3201 C3202 1.390 . S
C3202 C3201 1.390 . S
C3202 C3203 1.394 . S
C3202 C3208 1.465 . S
C3203 C3198 1.399 1_556 S
C3203 C3202 1.394 . S
C3203 C3204 1.516 . S
C3204 C3203 1.516 . S
C3204 C3205 1.502 . S
C3204 C3206 1.561 . S
C3204 C3207 1.526 . S
C3205 H3189 0.959 . S
C3205 H3190 0.959 . S
C3205 H3191 0.961 . S
C3205 C3204 1.502 . S
C3206 H3192 0.960 . S
C3206 H3193 0.961 . S
C3206 H3194 0.959 . S
C3206 C3204 1.561 . S
C3207 C3204 1.526 . S
C3207 C3208 1.396 . S
C3207 C3212 1.390 . S
C3208 C3202 1.465 . S
C3208 C3207 1.396 . S
C3208 C3209 1.399 . S
C3209 H3195 0.929 . S
C3209 C3208 1.399 . S
C3209 C3210 1.385 . S
C3210 H3196 0.931 . S
C3210 C3209 1.385 . S
C3210 C3211 1.389 . S
C3211 C3210 1.389 . S
C3211 C3212 1.387 . S
C3212 H3197 0.930 . S
C3212 C3207 1.390 . S
C3212 C3211 1.387 . S
H3213 C3225 0.930 . S
H3214 C3227 0.930 1_554 S
H3215 C3228 0.930 . S
H3216 C3232 0.959 . S
H3217 C3232 0.959 . S
H3218 C3232 0.961 . S
H3219 C3233 0.960 . S
H3220 C3233 0.961 . S
H3221 C3233 0.959 . S
H3222 C3236 0.929 . S
H3223 C3237 0.931 . S
H3224 C3239 0.930 . S
C3225 H3213 0.930 . S
C3225 C3226 1.399 1_556 S
C3225 C3230 1.399 . S
C3226 C3225 1.399 1_554 S
C3226 C3227 1.376 1_554 S
C3227 H3214 0.930 1_556 S
C3227 C3226 1.376 1_556 S
C3227 C3228 1.388 . S
C3228 H3215 0.930 . S
C3228 C3227 1.388 . S
C3228 C3229 1.390 . S
C3229 C3228 1.390 . S
C3229 C3230 1.394 . S
C3229 C3235 1.465 . S
C3230 C3225 1.399 . S
C3230 C3229 1.394 . S
C3230 C3231 1.516 . S
C3231 C3230 1.516 . S
C3231 C3232 1.502 . S
C3231 C3233 1.561 . S
C3231 C3234 1.526 . S
C3232 H3216 0.959 . S
C3232 H3217 0.959 . S
C3232 H3218 0.961 . S
C3232 C3231 1.502 . S
C3233 H3219 0.960 . S
C3233 H3220 0.961 . S
C3233 H3221 0.959 . S
C3233 C3231 1.561 . S
C3234 C3231 1.526 . S
C3234 C3235 1.396 . S
C3234 C3239 1.390 . S
C3235 C3229 1.465 . S
C3235 C3234 1.396 . S
C3235 C3236 1.399 . S
C3236 H3222 0.929 . S
C3236 C3235 1.399 . S
C3236 C3237 1.385 . S
C3237 H3223 0.931 . S
C3237 C3236 1.385 . S
C3237 C3238 1.389 . S
C3238 C3237 1.389 . S
C3238 C3239 1.387 . S
C3239 H3224 0.930 . S
C3239 C3234 1.390 . S
C3239 C3238 1.387 . S
H3240 C3252 0.930 . S
H3241 C3254 0.930 . S
H3242 C3255 0.930 . S
H3243 C3259 0.959 . S
H3244 C3259 0.959 . S
H3245 C3259 0.961 . S
H3246 C3260 0.960 . S
H3247 C3260 0.961 . S
H3248 C3260 0.959 . S
H3249 C3263 0.929 . S
H3250 C3264 0.931 . S
H3251 C3266 0.930 . S
C3252 H3240 0.930 . S
C3252 C3253 1.399 1_556 S
C3252 C3257 1.399 . S
C3253 C3252 1.399 1_554 S
C3253 C3254 1.376 1_554 S
C3254 H3241 0.930 . S
C3254 C3253 1.376 1_556 S
C3254 C3255 1.388 . S
C3255 H3242 0.930 . S
C3255 C3254 1.388 . S
C3255 C3256 1.390 . S
C3256 C3255 1.390 . S
C3256 C3257 1.394 . S
C3256 C3262 1.465 . S
C3257 C3252 1.399 . S
C3257 C3256 1.394 . S
C3257 C3258 1.516 . S
C3258 C3257 1.516 . S
C3258 C3259 1.502 . S
C3258 C3260 1.561 . S
C3258 C3261 1.526 . S
C3259 H3243 0.959 . S
C3259 H3244 0.959 . S
C3259 H3245 0.961 . S
C3259 C3258 1.502 . S
C3260 H3246 0.960 . S
C3260 H3247 0.961 . S
C3260 H3248 0.959 . S
C3260 C3258 1.561 . S
C3261 C3258 1.526 . S
C3261 C3262 1.396 . S
C3261 C3266 1.390 . S
C3262 C3256 1.465 . S
C3262 C3261 1.396 . S
C3262 C3263 1.399 . S
C3263 H3249 0.929 . S
C3263 C3262 1.399 . S
C3263 C3264 1.385 . S
C3264 H3250 0.931 . S
C3264 C3263 1.385 . S
C3264 C3265 1.389 . S
C3265 C3264 1.389 . S
C3265 C3266 1.387 . S
C3266 H3251 0.930 . S
C3266 C3261 1.390 . S
C3266 C3265 1.387 . S
H3267 C3279 0.930 . S
H3268 C3281 0.930 . S
H3269 C3282 0.930 . S
H3270 C3286 0.959 . S
H3271 C3286 0.959 . S
H3272 C3286 0.961 . S
H3273 C3287 0.960 . S
H3274 C3287 0.961 . S
H3275 C3287 0.959 . S
H3276 C3290 0.929 . S
H3277 C3291 0.931 . S
H3278 C3293 0.930 . S
C3279 H3267 0.930 . S
C3279 C3280 1.399 1_556 S
C3279 C3284 1.399 . S
C3280 C3279 1.399 1_554 S
C3280 C3281 1.376 1_554 S
C3281 H3268 0.930 . S
C3281 C3280 1.376 1_556 S
C3281 C3282 1.388 . S
C3282 H3269 0.930 . S
C3282 C3281 1.388 . S
C3282 C3283 1.390 . S
C3283 C3282 1.390 . S
C3283 C3284 1.394 . S
C3283 C3289 1.465 . S
C3284 C3279 1.399 . S
C3284 C3283 1.394 . S
C3284 C3285 1.516 . S
C3285 C3284 1.516 . S
C3285 C3286 1.502 . S
C3285 C3287 1.561 . S
C3285 C3288 1.526 . S
C3286 H3270 0.959 . S
C3286 H3271 0.959 . S
C3286 H3272 0.961 . S
C3286 C3285 1.502 . S
C3287 H3273 0.960 . S
C3287 H3274 0.961 . S
C3287 H3275 0.959 . S
C3287 C3285 1.561 . S
C3288 C3285 1.526 . S
C3288 C3289 1.396 . S
C3288 C3293 1.390 . S
C3289 C3283 1.465 . S
C3289 C3288 1.396 . S
C3289 C3290 1.399 . S
C3290 H3276 0.929 . S
C3290 C3289 1.399 . S
C3290 C3291 1.385 . S
C3291 H3277 0.931 . S
C3291 C3290 1.385 . S
C3291 C3292 1.389 . S
C3292 C3291 1.389 . S
C3292 C3293 1.387 . S
C3293 H3278 0.930 . S
C3293 C3288 1.390 . S
C3293 C3292 1.387 . S
H3294 C3306 0.930 . S
H3295 C3308 0.930 . S
H3296 C3309 0.930 . S
H3297 C3313 0.959 . S
H3298 C3313 0.959 . S
H3299 C3313 0.961 . S
H3300 C3314 0.960 . S
H3301 C3314 0.961 . S
H3302 C3314 0.959 . S
H3303 C3317 0.929 . S
H3304 C3318 0.931 . S
H3305 C3320 0.930 1_556 S
C3306 H3294 0.930 . S
C3306 C3307 1.399 . S
C3306 C3311 1.399 . S
C3307 C3306 1.399 . S
C3307 C3308 1.376 . S
C3308 H3295 0.930 . S
C3308 C3307 1.376 . S
C3308 C3309 1.388 . S
C3309 H3296 0.930 . S
C3309 C3308 1.388 . S
C3309 C3310 1.390 . S
C3310 C3309 1.390 . S
C3310 C3311 1.394 . S
C3310 C3316 1.465 . S
C3311 C3306 1.399 . S
C3311 C3310 1.394 . S
C3311 C3312 1.516 . S
C3312 C3311 1.516 . S
C3312 C3313 1.502 . S
C3312 C3314 1.561 . S
C3312 C3315 1.526 . S
C3313 H3297 0.959 . S
C3313 H3298 0.959 . S
C3313 H3299 0.961 . S
C3313 C3312 1.502 . S
C3314 H3300 0.960 . S
C3314 H3301 0.961 . S
C3314 H3302 0.959 . S
C3314 C3312 1.561 . S
C3315 C3312 1.526 . S
C3315 C3316 1.396 . S
C3315 C3320 1.390 . S
C3316 C3310 1.465 . S
C3316 C3315 1.396 . S
C3316 C3317 1.399 . S
C3317 H3303 0.929 . S
C3317 C3316 1.399 . S
C3317 C3318 1.385 1_554 S
C3318 H3304 0.931 . S
C3318 C3317 1.385 1_556 S
C3318 C3319 1.389 . S
C3319 C3318 1.389 . S
C3319 C3320 1.387 1_556 S
C3320 H3305 0.930 1_554 S
C3320 C3315 1.390 . S
C3320 C3319 1.387 1_554 S
H3321 C3333 0.930 . S
H3322 C3335 0.930 . S
H3323 C3336 0.930 . S
H3324 C3340 0.959 . S
H3325 C3340 0.959 . S
H3326 C3340 0.961 . S
H3327 C3341 0.960 . S
H3328 C3341 0.961 . S
H3329 C3341 0.959 . S
H3330 C3344 0.929 . S
H3331 C3345 0.931 . S
H3332 C3347 0.930 1_556 S
C3333 H3321 0.930 . S
C3333 C3334 1.399 . S
C3333 C3338 1.399 . S
C3334 C3333 1.399 . S
C3334 C3335 1.376 . S
C3335 H3322 0.930 . S
C3335 C3334 1.376 . S
C3335 C3336 1.388 . S
C3336 H3323 0.930 . S
C3336 C3335 1.388 . S
C3336 C3337 1.390 . S
C3337 C3336 1.390 . S
C3337 C3338 1.394 . S
C3337 C3343 1.465 . S
C3338 C3333 1.399 . S
C3338 C3337 1.394 . S
C3338 C3339 1.516 . S
C3339 C3338 1.516 . S
C3339 C3340 1.502 . S
C3339 C3341 1.561 . S
C3339 C3342 1.526 . S
C3340 H3324 0.959 . S
C3340 H3325 0.959 . S
C3340 H3326 0.961 . S
C3340 C3339 1.502 . S
C3341 H3327 0.960 . S
C3341 H3328 0.961 . S
C3341 H3329 0.959 . S
C3341 C3339 1.561 . S
C3342 C3339 1.526 . S
C3342 C3343 1.396 . S
C3342 C3347 1.390 . S
C3343 C3337 1.465 . S
C3343 C3342 1.396 . S
C3343 C3344 1.399 . S
C3344 H3330 0.929 . S
C3344 C3343 1.399 . S
C3344 C3345 1.385 1_554 S
C3345 H3331 0.931 . S
C3345 C3344 1.385 1_556 S
C3345 C3346 1.389 . S
C3346 C3345 1.389 . S
C3346 C3347 1.387 1_556 S
C3347 H3332 0.930 1_554 S
C3347 C3342 1.390 . S
C3347 C3346 1.387 1_554 S
H3348 C3360 0.930 1_556 S
H3349 C3362 0.930 . S
H3350 C3363 0.930 . S
H3351 C3367 0.959 . S
H3352 C3367 0.959 . S
H3353 C3367 0.961 . S
H3354 C3368 0.960 . S
H3355 C3368 0.961 . S
H3356 C3368 0.959 . S
H3357 C3371 0.929 . S
H3358 C3372 0.931 . S
H3359 C3374 0.930 . S
C3360 H3348 0.930 1_554 S
C3360 C3361 1.399 1_554 S
C3360 C3365 1.399 . S
C3361 C3360 1.399 1_556 S
C3361 C3362 1.376 . S
C3362 H3349 0.930 . S
C3362 C3361 1.376 . S
C3362 C3363 1.388 1_556 S
C3363 H3350 0.930 . S
C3363 C3362 1.388 1_554 S
C3363 C3364 1.390 . S
C3364 C3363 1.390 . S
C3364 C3365 1.394 . S
C3364 C3370 1.465 . S
C3365 C3360 1.399 . S
C3365 C3364 1.394 . S
C3365 C3366 1.516 . S
C3366 C3365 1.516 . S
C3366 C3367 1.502 . S
C3366 C3368 1.561 . S
C3366 C3369 1.526 . S
C3367 H3351 0.959 . S
C3367 H3352 0.959 . S
C3367 H3353 0.961 . S
C3367 C3366 1.502 . S
C3368 H3354 0.960 . S
C3368 H3355 0.961 . S
C3368 H3356 0.959 . S
C3368 C3366 1.561 . S
C3369 C3366 1.526 . S
C3369 C3370 1.396 . S
C3369 C3374 1.390 . S
C3370 C3364 1.465 . S
C3370 C3369 1.396 . S
C3370 C3371 1.399 . S
C3371 H3357 0.929 . S
C3371 C3370 1.399 . S
C3371 C3372 1.385 . S
C3372 H3358 0.931 . S
C3372 C3371 1.385 . S
C3372 C3373 1.389 . S
C3373 C3372 1.389 . S
C3373 C3374 1.387 . S
C3374 H3359 0.930 . S
C3374 C3369 1.390 . S
C3374 C3373 1.387 . S
H3375 C3387 0.930 . S
H3376 C3389 0.930 . S
H3377 C3390 0.930 . S
H3378 C3394 0.959 . S
H3379 C3394 0.959 . S
H3380 C3394 0.961 . S
H3381 C3395 0.960 . S
H3382 C3395 0.961 . S
H3383 C3395 0.959 . S
H3384 C3398 0.929 . S
H3385 C3399 0.931 1_556 S
H3386 C3401 0.930 . S
C3387 H3375 0.930 . S
C3387 C3388 1.399 . S
C3387 C3392 1.399 . S
C3388 C3387 1.399 . S
C3388 C3389 1.376 . S
C3389 H3376 0.930 . S
C3389 C3388 1.376 . S
C3389 C3390 1.388 . S
C3390 H3377 0.930 . S
C3390 C3389 1.388 . S
C3390 C3391 1.390 . S
C3391 C3390 1.390 . S
C3391 C3392 1.394 . S
C3391 C3397 1.465 . S
C3392 C3387 1.399 . S
C3392 C3391 1.394 . S
C3392 C3393 1.516 . S
C3393 C3392 1.516 . S
C3393 C3394 1.502 . S
C3393 C3395 1.561 . S
C3393 C3396 1.526 . S
C3394 H3378 0.959 . S
C3394 H3379 0.959 . S
C3394 H3380 0.961 . S
C3394 C3393 1.502 . S
C3395 H3381 0.960 . S
C3395 H3382 0.961 . S
C3395 H3383 0.959 . S
C3395 C3393 1.561 . S
C3396 C3393 1.526 . S
C3396 C3397 1.396 . S
C3396 C3401 1.390 . S
C3397 C3391 1.465 . S
C3397 C3396 1.396 . S
C3397 C3398 1.399 . S
C3398 H3384 0.929 . S
C3398 C3397 1.399 . S
C3398 C3399 1.385 . S
C3399 H3385 0.931 1_554 S
C3399 C3398 1.385 . S
C3399 C3400 1.389 1_554 S
C3400 C3399 1.389 1_556 S
C3400 C3401 1.387 1_556 S
C3401 H3386 0.930 . S
C3401 C3396 1.390 . S
C3401 C3400 1.387 1_554 S
H3402 C3414 0.930 . S
H3403 C3416 0.930 . S
H3404 C3417 0.930 . S
H3405 C3421 0.959 . S
H3406 C3421 0.959 . S
H3407 C3421 0.961 . S
H3408 C3422 0.960 . S
H3409 C3422 0.961 . S
H3410 C3422 0.959 . S
H3411 C3425 0.929 . S
H3412 C3426 0.931 1_556 S
H3413 C3428 0.930 . S
C3414 H3402 0.930 . S
C3414 C3415 1.399 . S
C3414 C3419 1.399 . S
C3415 C3414 1.399 . S
C3415 C3416 1.376 . S
C3416 H3403 0.930 . S
C3416 C3415 1.376 . S
C3416 C3417 1.388 . S
C3417 H3404 0.930 . S
C3417 C3416 1.388 . S
C3417 C3418 1.390 . S
C3418 C3417 1.390 . S
C3418 C3419 1.394 . S
C3418 C3424 1.465 . S
C3419 C3414 1.399 . S
C3419 C3418 1.394 . S
C3419 C3420 1.516 . S
C3420 C3419 1.516 . S
C3420 C3421 1.502 . S
C3420 C3422 1.561 . S
C3420 C3423 1.526 . S
C3421 H3405 0.959 . S
C3421 H3406 0.959 . S
C3421 H3407 0.961 . S
C3421 C3420 1.502 . S
C3422 H3408 0.960 . S
C3422 H3409 0.961 . S
C3422 H3410 0.959 . S
C3422 C3420 1.561 . S
C3423 C3420 1.526 . S
C3423 C3424 1.396 . S
C3423 C3428 1.390 . S
C3424 C3418 1.465 . S
C3424 C3423 1.396 . S
C3424 C3425 1.399 . S
C3425 H3411 0.929 . S
C3425 C3424 1.399 . S
C3425 C3426 1.385 . S
C3426 H3412 0.931 1_554 S
C3426 C3425 1.385 . S
C3426 C3427 1.389 1_554 S
C3427 C3426 1.389 1_556 S
C3427 C3428 1.387 1_556 S
C3428 H3413 0.930 . S
C3428 C3423 1.390 . S
C3428 C3427 1.387 1_554 S
H3429 C3441 0.930 . S
H3430 C3443 0.930 . S
H3431 C3444 0.930 . S
H3432 C3448 0.959 . S
H3433 C3448 0.959 . S
H3434 C3448 0.961 . S
H3435 C3449 0.960 . S
H3436 C3449 0.961 . S
H3437 C3449 0.959 . S
H3438 C3452 0.929 . S
H3439 C3453 0.931 . S
H3440 C3455 0.930 . S
C3441 H3429 0.930 . S
C3441 C3442 1.399 . S
C3441 C3446 1.399 . S
C3442 C3441 1.399 . S
C3442 C3443 1.376 . S
C3443 H3430 0.930 . S
C3443 C3442 1.376 . S
C3443 C3444 1.388 . S
C3444 H3431 0.930 . S
C3444 C3443 1.388 . S
C3444 C3445 1.390 . S
C3445 C3444 1.390 . S
C3445 C3446 1.394 . S
C3445 C3451 1.465 . S
C3446 C3441 1.399 . S
C3446 C3445 1.394 . S
C3446 C3447 1.516 . S
C3447 C3446 1.516 . S
C3447 C3448 1.502 . S
C3447 C3449 1.561 . S
C3447 C3450 1.526 . S
C3448 H3432 0.959 . S
C3448 H3433 0.959 . S
C3448 H3434 0.961 . S
C3448 C3447 1.502 . S
C3449 H3435 0.960 . S
C3449 H3436 0.961 . S
C3449 H3437 0.959 . S
C3449 C3447 1.561 . S
C3450 C3447 1.526 . S
C3450 C3451 1.396 . S
C3450 C3455 1.390 . S
C3451 C3445 1.465 . S
C3451 C3450 1.396 . S
C3451 C3452 1.399 . S
C3452 H3438 0.929 . S
C3452 C3451 1.399 . S
C3452 C3453 1.385 . S
C3453 H3439 0.931 . S
C3453 C3452 1.385 . S
C3453 C3454 1.389 1_554 S
C3454 C3453 1.389 1_556 S
C3454 C3455 1.387 1_556 S
C3455 H3440 0.930 . S
C3455 C3450 1.390 . S
C3455 C3454 1.387 1_554 S
H3456 C3468 0.930 . S
H3457 C3470 0.930 . S
H3458 C3471 0.930 . S
H3459 C3475 0.959 . S
H3460 C3475 0.959 . S
H3461 C3475 0.961 . S
H3462 C3476 0.960 . S
H3463 C3476 0.961 . S
H3464 C3476 0.959 . S
H3465 C3479 0.929 . S
H3466 C3480 0.931 . S
H3467 C3482 0.930 . S
C3468 H3456 0.930 . S
C3468 C3469 1.399 . S
C3468 C3473 1.399 . S
C3469 C3468 1.399 . S
C3469 C3470 1.376 . S
C3470 H3457 0.930 . S
C3470 C3469 1.376 . S
C3470 C3471 1.388 . S
C3471 H3458 0.930 . S
C3471 C3470 1.388 . S
C3471 C3472 1.390 . S
C3472 C3471 1.390 . S
C3472 C3473 1.394 . S
C3472 C3478 1.465 . S
C3473 C3468 1.399 . S
C3473 C3472 1.394 . S
C3473 C3474 1.516 . S
C3474 C3473 1.516 . S
C3474 C3475 1.502 . S
C3474 C3476 1.561 . S
C3474 C3477 1.526 . S
C3475 H3459 0.959 . S
C3475 H3460 0.959 . S
C3475 H3461 0.961 . S
C3475 C3474 1.502 . S
C3476 H3462 0.960 . S
C3476 H3463 0.961 . S
C3476 H3464 0.959 . S
C3476 C3474 1.561 . S
C3477 C3474 1.526 . S
C3477 C3478 1.396 . S
C3477 C3482 1.390 . S
C3478 C3472 1.465 . S
C3478 C3477 1.396 . S
C3478 C3479 1.399 . S
C3479 H3465 0.929 . S
C3479 C3478 1.399 . S
C3479 C3480 1.385 . S
C3480 H3466 0.931 . S
C3480 C3479 1.385 . S
C3480 C3481 1.389 1_554 S
C3481 C3480 1.389 1_556 S
C3481 C3482 1.387 1_556 S
C3482 H3467 0.930 . S
C3482 C3477 1.390 . S
C3482 C3481 1.387 1_554 S
H3483 C3495 0.930 . S
H3484 C3497 0.930 . S
H3485 C3498 0.930 . S
H3486 C3502 0.959 . S
H3487 C3502 0.959 . S
H3488 C3502 0.961 . S
H3489 C3503 0.960 . S
H3490 C3503 0.961 . S
H3491 C3503 0.959 . S
H3492 C3506 0.929 . S
H3493 C3507 0.931 1_556 S
H3494 C3509 0.930 . S
C3495 H3483 0.930 . S
C3495 C3496 1.399 . S
C3495 C3500 1.399 . S
C3496 C3495 1.399 . S
C3496 C3497 1.376 . S
C3497 H3484 0.930 . S
C3497 C3496 1.376 . S
C3497 C3498 1.388 . S
C3498 H3485 0.930 . S
C3498 C3497 1.388 . S
C3498 C3499 1.390 . S
C3499 C3498 1.390 . S
C3499 C3500 1.394 . S
C3499 C3505 1.465 . S
C3500 C3495 1.399 . S
C3500 C3499 1.394 . S
C3500 C3501 1.516 . S
C3501 C3500 1.516 . S
C3501 C3502 1.502 . S
C3501 C3503 1.561 . S
C3501 C3504 1.526 . S
C3502 H3486 0.959 . S
C3502 H3487 0.959 . S
C3502 H3488 0.961 . S
C3502 C3501 1.502 . S
C3503 H3489 0.960 . S
C3503 H3490 0.961 . S
C3503 H3491 0.959 . S
C3503 C3501 1.561 . S
C3504 C3501 1.526 . S
C3504 C3505 1.396 . S
C3504 C3509 1.390 . S
C3505 C3499 1.465 . S
C3505 C3504 1.396 . S
C3505 C3506 1.399 . S
C3506 H3492 0.929 . S
C3506 C3505 1.399 . S
C3506 C3507 1.385 . S
C3507 H3493 0.931 1_554 S
C3507 C3506 1.385 . S
C3507 C3508 1.389 1_554 S
C3508 C3507 1.389 1_556 S
C3508 C3509 1.387 1_556 S
C3509 H3494 0.930 . S
C3509 C3504 1.390 . S
C3509 C3508 1.387 1_554 S
H3510 C3522 0.930 . S
H3511 C3524 0.930 1_556 S
H3512 C3525 0.930 . S
H3513 C3529 0.959 . S
H3514 C3529 0.959 . S
H3515 C3529 0.961 . S
H3516 C3530 0.960 . S
H3517 C3530 0.961 . S
H3518 C3530 0.959 . S
H3519 C3533 0.929 . S
H3520 C3534 0.931 . S
H3521 C3536 0.930 . S
C3522 H3510 0.930 . S
C3522 C3523 1.399 1_554 S
C3522 C3527 1.399 . S
C3523 C3522 1.399 1_556 S
C3523 C3524 1.376 1_556 S
C3524 H3511 0.930 1_554 S
C3524 C3523 1.376 1_554 S
C3524 C3525 1.388 . S
C3525 H3512 0.930 . S
C3525 C3524 1.388 . S
C3525 C3526 1.390 . S
C3526 C3525 1.390 . S
C3526 C3527 1.394 . S
C3526 C3532 1.465 . S
C3527 C3522 1.399 . S
C3527 C3526 1.394 . S
C3527 C3528 1.516 . S
C3528 C3527 1.516 . S
C3528 C3529 1.502 . S
C3528 C3530 1.561 . S
C3528 C3531 1.526 . S
C3529 H3513 0.959 . S
C3529 H3514 0.959 . S
C3529 H3515 0.961 . S
C3529 C3528 1.502 . S
C3530 H3516 0.960 . S
C3530 H3517 0.961 . S
C3530 H3518 0.959 . S
C3530 C3528 1.561 . S
C3531 C3528 1.526 . S
C3531 C3532 1.396 . S
C3531 C3536 1.390 . S
C3532 C3526 1.465 . S
C3532 C3531 1.396 . S
C3532 C3533 1.399 . S
C3533 H3519 0.929 . S
C3533 C3532 1.399 . S
C3533 C3534 1.385 . S
C3534 H3520 0.931 . S
C3534 C3533 1.385 . S
C3534 C3535 1.389 . S
C3535 C3534 1.389 . S
C3535 C3536 1.387 . S
C3536 H3521 0.930 . S
C3536 C3531 1.390 . S
C3536 C3535 1.387 . S
H3537 C3549 0.930 1_556 S
H3538 C3551 0.930 . S
H3539 C3552 0.930 . S
H3540 C3556 0.959 . S
H3541 C3556 0.959 . S
H3542 C3556 0.961 . S
H3543 C3557 0.960 . S
H3544 C3557 0.961 . S
H3545 C3557 0.959 . S
H3546 C3560 0.929 . S
H3547 C3561 0.931 . S
H3548 C3563 0.930 . S
C3549 H3537 0.930 1_554 S
C3549 C3550 1.399 1_554 S
C3549 C3554 1.399 . S
C3550 C3549 1.399 1_556 S
C3550 C3551 1.376 . S
C3551 H3538 0.930 . S
C3551 C3550 1.376 . S
C3551 C3552 1.388 1_556 S
C3552 H3539 0.930 . S
C3552 C3551 1.388 1_554 S
C3552 C3553 1.390 . S
C3553 C3552 1.390 . S
C3553 C3554 1.394 . S
C3553 C3559 1.465 . S
C3554 C3549 1.399 . S
C3554 C3553 1.394 . S
C3554 C3555 1.516 . S
C3555 C3554 1.516 . S
C3555 C3556 1.502 . S
C3555 C3557 1.561 . S
C3555 C3558 1.526 . S
C3556 H3540 0.959 . S
C3556 H3541 0.959 . S
C3556 H3542 0.961 . S
C3556 C3555 1.502 . S
C3557 H3543 0.960 . S
C3557 H3544 0.961 . S
C3557 H3545 0.959 . S
C3557 C3555 1.561 . S
C3558 C3555 1.526 . S
C3558 C3559 1.396 . S
C3558 C3563 1.390 . S
C3559 C3553 1.465 . S
C3559 C3558 1.396 . S
C3559 C3560 1.399 . S
C3560 H3546 0.929 . S
C3560 C3559 1.399 . S
C3560 C3561 1.385 . S
C3561 H3547 0.931 . S
C3561 C3560 1.385 . S
C3561 C3562 1.389 . S
C3562 C3561 1.389 . S
C3562 C3563 1.387 . S
C3563 H3548 0.930 . S
C3563 C3558 1.390 . S
C3563 C3562 1.387 . S
H3564 C3576 0.934 . S
H3565 C3578 0.930 . S
H3566 C3579 0.930 . S
H3567 C3583 0.959 . S
H3568 C3583 0.959 . S
H3569 C3583 0.961 . S
H3570 C3584 0.960 . S
H3571 C3584 0.961 . S
H3572 C3584 0.959 . S
H3573 C3587 0.929 . S
H3574 C3588 0.931 . S
H3575 C3590 0.930 . S
C3576 H3564 0.934 . S
C3576 C3577 1.408 . S
C3576 C3581 1.386 1_556 S
C3577 C3576 1.408 . S
C3577 C3578 1.376 . S
C3578 H3565 0.930 . S
C3578 C3577 1.376 . S
C3578 C3579 1.388 1_556 S
C3579 H3566 0.930 . S
C3579 C3578 1.388 1_554 S
C3579 C3580 1.390 . S
C3580 C3579 1.390 . S
C3580 C3581 1.394 . S
C3580 C3586 1.465 . S
C3581 C3576 1.386 1_554 S
C3581 C3580 1.394 . S
C3581 C3582 1.516 . S
C3582 C3581 1.516 . S
C3582 C3583 1.502 . S
C3582 C3584 1.561 . S
C3582 C3585 1.526 . S
C3583 H3567 0.959 . S
C3583 H3568 0.959 . S
C3583 H3569 0.961 . S
C3583 C3582 1.502 . S
C3584 H3570 0.960 . S
C3584 H3571 0.961 . S
C3584 H3572 0.959 . S
C3584 C3582 1.561 . S
C3585 C3582 1.526 . S
C3585 C3586 1.396 . S
C3585 C3590 1.390 . S
C3586 C3580 1.465 . S
C3586 C3585 1.396 . S
C3586 C3587 1.399 . S
C3587 H3573 0.929 . S
C3587 C3586 1.399 . S
C3587 C3588 1.385 . S
C3588 H3574 0.931 . S
C3588 C3587 1.385 . S
C3588 C3589 1.389 . S
C3589 C3588 1.389 . S
C3589 C3590 1.387 . S
C3590 H3575 0.930 . S
C3590 C3585 1.390 . S
C3590 C3589 1.387 . S
H3591 C3603 0.930 . S
H3592 C3605 0.930 . S
H3593 C3606 0.930 . S
H3594 C3610 0.959 . S
H3595 C3610 0.959 . S
H3596 C3610 0.961 . S
H3597 C3611 0.960 . S
H3598 C3611 0.961 . S
H3599 C3611 0.959 . S
H3600 C3614 0.929 . S
H3601 C3615 0.931 . S
H3602 C3617 0.930 . S
C3603 H3591 0.930 . S
C3603 C3604 1.399 . S
C3603 C3608 1.399 . S
C3604 C3603 1.399 . S
C3604 C3605 1.376 . S
C3605 H3592 0.930 . S
C3605 C3604 1.376 . S
C3605 C3606 1.388 . S
C3606 H3593 0.930 . S
C3606 C3605 1.388 . S
C3606 C3607 1.390 . S
C3607 C3606 1.390 . S
C3607 C3608 1.394 . S
C3607 C3613 1.465 . S
C3608 C3603 1.399 . S
C3608 C3607 1.394 . S
C3608 C3609 1.516 . S
C3609 C3608 1.516 . S
C3609 C3610 1.502 . S
C3609 C3611 1.561 . S
C3609 C3612 1.526 . S
C3610 H3594 0.959 . S
C3610 H3595 0.959 . S
C3610 H3596 0.961 . S
C3610 C3609 1.502 . S
C3611 H3597 0.960 . S
C3611 H3598 0.961 . S
C3611 H3599 0.959 . S
C3611 C3609 1.561 . S
C3612 C3609 1.526 . S
C3612 C3613 1.396 . S
C3612 C3617 1.390 1_554 S
C3613 C3607 1.465 . S
C3613 C3612 1.396 . S
C3613 C3614 1.399 . S
C3614 H3600 0.929 . S
C3614 C3613 1.399 . S
C3614 C3615 1.385 1_554 S
C3615 H3601 0.931 . S
C3615 C3614 1.385 1_556 S
C3615 C3616 1.389 . S
C3616 C3615 1.389 . S
C3616 C3617 1.387 . S
C3617 H3602 0.930 . S
C3617 C3612 1.390 1_556 S
C3617 C3616 1.387 . S
C1201 C18 1.147 . S
C1213 C513 1.153 . S
C1228 C546 1.115 . S
C1240 C51 1.135 . S
C1255 C84 1.173 . S
C1267 C579 1.118 . S
C1282 C810 1.096 . S
C1294 C117 1.165 . S
C1309 C843 1.163 . S
C1321 C150 1.134 . S
C1336 C183 1.154 . S
C1348 C876 1.101 . S
C1363 C216 1.100 . S
C1375 C1107 1.159 . S
C1390 C1140 1.123 . S
C1402 C249 1.107 . S
C1417 C282 1.109 . S
C1429 C1173 1.119 . S
C1444 C612 1.115 . S
C1456 C315 1.114 . S
C1471 C348 1.153 . S
C1483 C645 1.095 . S
C1498 C678 1.109 . S
C1510 C381 1.172 . S
C1525 C414 1.223 . S
C1537 C909 1.147 . S
C1552 C447 1.221 . S
C1564 C942 1.173 . S
C1579 C975 1.170 . S
C1591 C480 1.183 . S
C1606 C1008 1.150 . S
C1618 C711 1.218 . S
C1633 C1041 1.215 . S
C1645 C744 1.150 . S
C1660 C777 1.148 . S
C1672 C1074 1.213 . S
C1687 C21 1.418 . S
C1699 C384 1.425 . S
C1714 C54 1.434 1_554 S
C1726 C318 1.431 1_554 S
C1741 C87 1.401 . S
C1753 C351 1.407 . S
C1768 C252 1.402 . S
C1780 C120 1.398 . S
C1795 C285 1.396 1_556 S
C1807 C153 1.401 1_556 S
C1822 C186 1.399 1_556 S
C1834 C219 1.396 1_556 S
C1849 C417 1.453 . S
C1861 C780 1.457 . S
C1876 C714 1.422 . S
C1888 C450 1.428 . S
C1903 C483 1.453 . S
C1915 C747 1.448 . S
C1930 C516 1.404 . S
C1942 C648 1.410 . S
C1957 C549 1.401 . S
C1969 C681 1.407 . S
C1984 C582 1.430 . S
C1996 C615 1.435 . S
C2011 C813 1.400 . S
C2023 C1176 1.398 . S
C2038 C1110 1.404 . S
C2050 C846 1.410 . S
C2065 C1143 1.434 . S
C2077 C879 1.429 . S
C2092 C1044 1.435 . S
C2104 C912 1.442 . S
C2119 C945 1.458 . S
C2131 C1077 1.456 . S
C2146 C978 1.420 . S
C2158 C1011 1.425 . S
C2173 C964 1.544 . S
C2185 C7 1.528 . S
C2200 C40 1.564 . S
C2212 C898 1.530 . S
C2227 C73 1.543 . S
C2239 C931 1.580 . S
C2254 C436 1.532 . S
C2266 C106 1.571 . S
C2281 C139 1.574 . S
C2293 C469 1.576 . S
C2308 C172 1.564 . S
C2320 C403 1.582 . S
C2335 C766 1.583 . S
C2347 C205 1.545 . S
C2362 C238 1.558 . S
C2374 C700 1.577 . S
C2389 C733 1.538 . S
C2401 C271 1.583 . S
C2416 C1030 1.574 . S
C2428 C304 1.528 . S
C2443 C1063 1.543 . S
C2455 C337 1.539 . S
C2470 C997 1.583 . S
C2482 C370 1.544 . S
C2497 C502 1.561 . S
C2509 C832 1.538 . S
C2524 C865 1.510 . S
C2536 C535 1.520 . S
C2551 C568 1.551 . S
C2563 C799 1.516 . S
C2578 C601 1.539 . S
C2590 C1162 1.556 . S
C2605 C634 1.554 . S
C2617 C1096 1.509 . S
C2632 C667 1.551 . S
C2644 C1129 1.508 . S
C2659 N13 1.217 . S
C2671 N2 1.207 . S
C2686 N46 1.223 . S
C2698 N35 1.202 . S
C2713 N79 1.227 . S
C2725 N68 1.208 . S
C2740 N101 1.223 . S
C2752 N112 1.213 . S
C2767 N145 1.203 . S
C2779 N134 1.222 . S
C2794 N167 1.196 . S
C2806 N178 1.231 . S
C2821 N211 1.198 . S
C2833 N200 1.231 . S
C2848 N233 1.205 . S
C2860 N244 1.228 . S
C2875 N266 1.196 . S
C2887 N277 1.232 . S
C2902 N310 1.227 . S
C2914 N299 1.199 . S
C2929 N343 1.228 . S
C2941 N332 1.198 . S
C2956 N365 1.207 . S
C2968 N376 1.218 . S
C2983 N398 1.240 . S
C2995 N409 1.210 . S
C3010 N431 1.223 . S
C3022 N442 1.230 . S
C3037 N475 1.239 . S
C3049 N464 1.210 . S
C3064 N497 1.191 . S
C3076 N508 1.213 . S
C3091 N530 1.185 . S
C3103 N541 1.223 . S
C3118 N574 1.201 . S
C3130 N563 1.204 . S
C3145 N596 1.214 . S
C3157 N607 1.202 . S
C3172 N640 1.219 . S
C3184 N629 1.188 . S
C3199 N673 1.197 . S
C3211 N662 1.208 . S
C3226 N695 1.239 . S
C3238 N706 1.212 . S
C3253 N728 1.214 . S
C3265 N739 1.236 . S
C3280 N761 1.229 . S
C3292 N772 1.224 . S
C3307 N794 1.185 . S
C3319 N805 1.223 . S
C3334 N827 1.193 . S
C3346 N838 1.220 . S
C3361 N871 1.191 . S
C3373 N860 1.215 . S
C3388 N904 1.209 . S
C3400 N893 1.236 . S
C3415 N937 1.213 . S
C3427 N926 1.239 . S
C3442 N970 1.218 . S
C3454 N959 1.225 . S
C3469 N1003 1.240 . S
C3481 N992 1.208 . S
C3496 N1036 1.216 . S
C3508 N1025 1.236 . S
C3523 N1058 1.208 . S
C3535 N1069 1.236 . S
C3550 N1102 1.217 . S
C3562 N1091 1.197 . S
C3577 N1135 1.196 . S
C3589 N1124 1.220 . S
C3604 N1157 1.210 . S
C3616 N1168 1.197 . S
