# Generated by pormake.
# Topology vbx, (6)-cn, num edge types: 1
# Building blocks:
#     Node 0, Type 0, BuildingBlock: OJICUG_clean_sbu_0, # of connection points: 6
#     Node 1, Type 0, BuildingBlock: OJICUG_clean_sbu_0, # of connection points: 6
#     Node 2, Type 0, BuildingBlock: OJICUG_clean_sbu_0, # of connection points: 6
#     Node 3, Type 0, BuildingBlock: OJICUG_clean_sbu_0, # of connection points: 6
#     Node 4, Type 0, BuildingBlock: OJICUG_clean_sbu_0, # of connection points: 6
#     Node 5, Type 0, BuildingBlock: OJICUG_clean_sbu_0, # of connection points: 6
#     Node 6, Type 0, BuildingBlock: OJICUG_clean_sbu_0, # of connection points: 6
#     Node 7, Type 0, BuildingBlock: OJICUG_clean_sbu_0, # of connection points: 6
#     Node 8, Type 0, BuildingBlock: OJICUG_clean_sbu_0, # of connection points: 6
#     Node 9, Type 0, BuildingBlock: OJICUG_clean_sbu_0, # of connection points: 6
#     Node 10, Type 0, BuildingBlock: OJICUG_clean_sbu_0, # of connection points: 6
#     Node 11, Type 0, BuildingBlock: OJICUG_clean_sbu_0, # of connection points: 6
#     Node 12, Type 0, BuildingBlock: OJICUG_clean_sbu_0, # of connection points: 6
#     Node 13, Type 0, BuildingBlock: OJICUG_clean_sbu_0, # of connection points: 6
#     Node 14, Type 0, BuildingBlock: OJICUG_clean_sbu_0, # of connection points: 6
#     Node 15, Type 0, BuildingBlock: OJICUG_clean_sbu_0, # of connection points: 6
#     Edge 16, Type (0, 0), BuildingBlock: UVAHIK_clean_linker_0, # of connection points: 2
#     Edge 17, Type (0, 0), BuildingBlock: UVAHIK_clean_linker_0, # of connection points: 2
#     Edge 18, Type (0, 0), BuildingBlock: UVAHIK_clean_linker_0, # of connection points: 2
#     Edge 19, Type (0, 0), BuildingBlock: UVAHIK_clean_linker_0, # of connection points: 2
#     Edge 20, Type (0, 0), BuildingBlock: UVAHIK_clean_linker_0, # of connection points: 2
#     Edge 21, Type (0, 0), BuildingBlock: UVAHIK_clean_linker_0, # of connection points: 2
#     Edge 22, Type (0, 0), BuildingBlock: UVAHIK_clean_linker_0, # of connection points: 2
#     Edge 23, Type (0, 0), BuildingBlock: UVAHIK_clean_linker_0, # of connection points: 2
#     Edge 24, Type (0, 0), BuildingBlock: UVAHIK_clean_linker_0, # of connection points: 2
#     Edge 25, Type (0, 0), BuildingBlock: UVAHIK_clean_linker_0, # of connection points: 2
#     Edge 26, Type (0, 0), BuildingBlock: UVAHIK_clean_linker_0, # of connection points: 2
#     Edge 27, Type (0, 0), BuildingBlock: UVAHIK_clean_linker_0, # of connection points: 2
#     Edge 28, Type (0, 0), BuildingBlock: UVAHIK_clean_linker_0, # of connection points: 2
#     Edge 29, Type (0, 0), BuildingBlock: UVAHIK_clean_linker_0, # of connection points: 2
#     Edge 30, Type (0, 0), BuildingBlock: UVAHIK_clean_linker_0, # of connection points: 2
#     Edge 31, Type (0, 0), BuildingBlock: UVAHIK_clean_linker_0, # of connection points: 2
#     Edge 32, Type (0, 0), BuildingBlock: UVAHIK_clean_linker_0, # of connection points: 2
#     Edge 33, Type (0, 0), BuildingBlock: UVAHIK_clean_linker_0, # of connection points: 2
#     Edge 34, Type (0, 0), BuildingBlock: UVAHIK_clean_linker_0, # of connection points: 2
#     Edge 35, Type (0, 0), BuildingBlock: UVAHIK_clean_linker_0, # of connection points: 2
#     Edge 36, Type (0, 0), BuildingBlock: UVAHIK_clean_linker_0, # of connection points: 2
#     Edge 37, Type (0, 0), BuildingBlock: UVAHIK_clean_linker_0, # of connection points: 2
#     Edge 38, Type (0, 0), BuildingBlock: UVAHIK_clean_linker_0, # of connection points: 2
#     Edge 39, Type (0, 0), BuildingBlock: UVAHIK_clean_linker_0, # of connection points: 2
#     Edge 40, Type (0, 0), BuildingBlock: UVAHIK_clean_linker_0, # of connection points: 2
#     Edge 41, Type (0, 0), BuildingBlock: UVAHIK_clean_linker_0, # of connection points: 2
#     Edge 42, Type (0, 0), BuildingBlock: UVAHIK_clean_linker_0, # of connection points: 2
#     Edge 43, Type (0, 0), BuildingBlock: UVAHIK_clean_linker_0, # of connection points: 2
#     Edge 44, Type (0, 0), BuildingBlock: UVAHIK_clean_linker_0, # of connection points: 2
#     Edge 45, Type (0, 0), BuildingBlock: UVAHIK_clean_linker_0, # of connection points: 2
#     Edge 46, Type (0, 0), BuildingBlock: UVAHIK_clean_linker_0, # of connection points: 2
#     Edge 47, Type (0, 0), BuildingBlock: UVAHIK_clean_linker_0, # of connection points: 2
#     Edge 48, Type (0, 0), BuildingBlock: UVAHIK_clean_linker_0, # of connection points: 2
#     Edge 49, Type (0, 0), BuildingBlock: UVAHIK_clean_linker_0, # of connection points: 2
#     Edge 50, Type (0, 0), BuildingBlock: UVAHIK_clean_linker_0, # of connection points: 2
#     Edge 51, Type (0, 0), BuildingBlock: UVAHIK_clean_linker_0, # of connection points: 2
#     Edge 52, Type (0, 0), BuildingBlock: UVAHIK_clean_linker_0, # of connection points: 2
#     Edge 53, Type (0, 0), BuildingBlock: UVAHIK_clean_linker_0, # of connection points: 2
#     Edge 54, Type (0, 0), BuildingBlock: UVAHIK_clean_linker_0, # of connection points: 2
#     Edge 55, Type (0, 0), BuildingBlock: UVAHIK_clean_linker_0, # of connection points: 2
#     Edge 56, Type (0, 0), BuildingBlock: UVAHIK_clean_linker_0, # of connection points: 2
#     Edge 57, Type (0, 0), BuildingBlock: UVAHIK_clean_linker_0, # of connection points: 2
#     Edge 58, Type (0, 0), BuildingBlock: UVAHIK_clean_linker_0, # of connection points: 2
#     Edge 59, Type (0, 0), BuildingBlock: UVAHIK_clean_linker_0, # of connection points: 2
#     Edge 60, Type (0, 0), BuildingBlock: UVAHIK_clean_linker_0, # of connection points: 2
#     Edge 61, Type (0, 0), BuildingBlock: UVAHIK_clean_linker_0, # of connection points: 2
#     Edge 62, Type (0, 0), BuildingBlock: UVAHIK_clean_linker_0, # of connection points: 2
#     Edge 63, Type (0, 0), BuildingBlock: UVAHIK_clean_linker_0, # of connection points: 2
# Relax obj value: 0.244
# Max RMSD: 0.241
# Mean RMSD: 0.241
data_MOF--net-vbx--node1-OJICUG_clean_sbu_0--edge1-UVAHIK_clean_linker_0
_symmetry_space_group_name_H-M    P1
_symmetry_Int_Tables_number       1
_symmetry_cell_setting            triclinic
loop_
_symmetry_equiv_pos_as_xyz
'x, y, z'
_cell_length_a     60.12586
_cell_length_b     36.478778
_cell_length_c     73.147328
_cell_angle_alpha  89.953626
_cell_angle_beta   89.938425
_cell_angle_gamma 89.950818
loop_
_atom_site_label
_atom_site_type_symbol
_atom_site_fract_x
_atom_site_fract_y
_atom_site_fract_z
_atom_type_partial_charge
Sc0 Sc 0.33718 0.39016 0.11785 0.0
Sc1 Sc 0.29052 0.33721 0.10659 0.0
Sc2 Sc 0.34194 0.32104 0.08542 0.0
O3 O 0.32309 0.34942 0.1033 0.0
C4 C 0.35896 0.40349 0.07976 0.0
C5 C 0.28826 0.42303 0.11084 0.0
C6 C 0.29775 0.33135 0.06329 0.0
C7 C 0.30828 0.3491 0.1473 0.0
C8 C 0.37629 0.32992 0.11675 0.0
C9 C 0.3099 0.2578 0.10079 0.0
O10 O 0.34877 0.41692 0.09346 0.0
O11 O 0.28013 0.39357 0.10447 0.0
O12 O 0.31884 0.3317 0.06403 0.0
O13 O 0.3262 0.36512 0.14264 0.0
O14 O 0.36659 0.30861 0.1056 0.0
O15 O 0.2969 0.27951 0.10916 0.0
O16 O 0.36855 0.36136 0.1209 0.0
O17 O 0.29295 0.34082 0.13603 0.0
O18 O 0.32599 0.26895 0.09095 0.0
O19 O 0.30794 0.42481 0.11715 0.0
O20 O 0.36005 0.36916 0.07678 0.0
O21 O 0.28534 0.33091 0.07745 0.0
Sc22 Sc 0.63279 0.61449 0.60576 0.0
Sc23 Sc 0.68157 0.66646 0.6108 0.0
Sc24 Sc 0.64077 0.69412 0.57918 0.0
O25 O 0.65172 0.65835 0.59853 0.0
C26 C 0.62361 0.61794 0.56299 0.0
C27 C 0.68097 0.57908 0.60667 0.0
C28 C 0.69178 0.68226 0.56891 0.0
C29 C 0.65137 0.64222 0.6441 0.0
C30 C 0.59764 0.68029 0.60312 0.0
C31 C 0.66558 0.74913 0.60612 0.0
O32 O 0.62451 0.60072 0.57805 0.0
O33 O 0.69031 0.60959 0.60984 0.0
O34 O 0.67181 0.69061 0.56493 0.0
O35 O 0.63845 0.62293 0.63435 0.0
O36 O 0.6089 0.70001 0.59217 0.0
O37 O 0.67722 0.72437 0.61361 0.0
O38 O 0.60394 0.6489 0.6087 0.0
O39 O 0.66743 0.66063 0.63752 0.0
O40 O 0.65161 0.74239 0.59357 0.0
O41 O 0.66016 0.57612 0.60392 0.0
O42 O 0.62873 0.65154 0.56152 0.0
O43 O 0.69806 0.67333 0.58492 0.0
Sc44 Sc 0.35061 0.69388 0.90296 0.0
Sc45 Sc 0.30786 0.66532 0.87352 0.0
Sc46 Sc 0.35667 0.61267 0.87722 0.0
O47 O 0.33839 0.65729 0.88457 0.0
C48 C 0.39309 0.67676 0.87886 0.0
C49 C 0.32442 0.74793 0.87635 0.0
C50 C 0.33664 0.64047 0.83936 0.0
C51 C 0.30024 0.68342 0.91547 0.0
C52 C 0.36711 0.61725 0.91961 0.0
C53 C 0.30803 0.57829 0.87796 0.0
O54 O 0.38171 0.69883 0.88855 0.0
O55 O 0.31249 0.72285 0.86953 0.0
O56 O 0.35076 0.62223 0.84857 0.0
O57 O 0.32046 0.69146 0.91866 0.0
O58 O 0.36459 0.59888 0.90502 0.0
O59 O 0.2985 0.60897 0.8758 0.0
O60 O 0.36353 0.65153 0.9205 0.0
O61 O 0.2931 0.67405 0.89981 0.0
O62 O 0.32903 0.57503 0.87905 0.0
O63 O 0.33894 0.74178 0.88856 0.0
O64 O 0.3864 0.64485 0.87457 0.0
O65 O 0.32037 0.6574 0.84654 0.0
Sc66 Sc 0.65422 0.39038 0.36599 0.0
Sc67 Sc 0.69998 0.33314 0.37571 0.0
Sc68 Sc 0.64796 0.31776 0.39664 0.0
O69 O 0.66752 0.34708 0.37946 0.0
C70 C 0.63203 0.40028 0.40443 0.0
C71 C 0.70363 0.41996 0.37341 0.0
C72 C 0.69282 0.32595 0.41884 0.0
C73 C 0.68237 0.34917 0.33553 0.0
C74 C 0.61431 0.3317 0.36472 0.0
C75 C 0.67869 0.25399 0.38034 0.0
O76 O 0.6415 0.41449 0.39061 0.0
O77 O 0.71182 0.38869 0.37696 0.0
O78 O 0.67178 0.32359 0.41794 0.0
O79 O 0.66603 0.36876 0.34069 0.0
O80 O 0.62261 0.30998 0.37646 0.0
O81 O 0.69308 0.27561 0.37367 0.0
O82 O 0.62307 0.36249 0.36081 0.0
O83 O 0.69685 0.33602 0.34639 0.0
O84 O 0.6619 0.26512 0.38931 0.0
O85 O 0.68336 0.42446 0.36904 0.0
O86 O 0.63151 0.36587 0.4072 0.0
O87 O 0.70544 0.32806 0.40484 0.0
Sc88 Sc 0.65451 0.61588 0.87548 0.0
Sc89 Sc 0.70453 0.66063 0.86576 0.0
Sc90 Sc 0.66632 0.70061 0.89604 0.0
O91 O 0.67514 0.65899 0.8792 0.0
C92 C 0.62063 0.68232 0.87615 0.0
C93 C 0.67209 0.63245 0.83525 0.0
C94 C 0.68999 0.74522 0.86487 0.0
C95 C 0.70068 0.57543 0.87546 0.0
C96 C 0.64932 0.63165 0.91835 0.0
C97 C 0.71848 0.69071 0.9039 0.0
O98 O 0.62684 0.65154 0.86982 0.0
O99 O 0.68809 0.65284 0.84021 0.0
O100 O 0.67388 0.74227 0.87605 0.0
O101 O 0.68053 0.57643 0.88068 0.0
O102 O 0.65807 0.66339 0.91798 0.0
O103 O 0.72284 0.66955 0.89057 0.0
O104 O 0.64604 0.61275 0.90401 0.0
O105 O 0.71056 0.6028 0.86846 0.0
O106 O 0.69942 0.70483 0.90667 0.0
O107 O 0.66022 0.61434 0.84646 0.0
O108 O 0.63235 0.70151 0.88694 0.0
O109 O 0.70283 0.71864 0.86107 0.0
Sc110 Sc 0.35333 0.30974 0.39758 0.0
Sc111 Sc 0.30084 0.32815 0.37814 0.0
Sc112 Sc 0.34685 0.38289 0.36661 0.0
O113 O 0.33364 0.34022 0.38078 0.0
C114 C 0.36951 0.39216 0.40532 0.0
C115 C 0.30886 0.31859 0.4209 0.0
C116 C 0.29836 0.41498 0.37523 0.0
C117 C 0.32173 0.24776 0.3814 0.0
C118 C 0.3866 0.32407 0.36491 0.0
C119 C 0.31637 0.34294 0.33721 0.0
O120 O 0.36902 0.35793 0.40866 0.0
O121 O 0.29628 0.32474 0.40725 0.0
O122 O 0.31857 0.41858 0.37052 0.0
O123 O 0.33965 0.25756 0.38918 0.0
O124 O 0.3772 0.35395 0.3604 0.0
O125 O 0.30285 0.33 0.34892 0.0
O126 O 0.37913 0.3034 0.37747 0.0
O127 O 0.3068 0.27031 0.37651 0.0
O128 O 0.33331 0.36209 0.34144 0.0
O129 O 0.32965 0.31292 0.41944 0.0
O130 O 0.36111 0.40622 0.39097 0.0
O131 O 0.28981 0.38414 0.37906 0.0
Sc132 Sc 0.64353 0.32596 0.07916 0.0
Sc133 Sc 0.6942 0.33863 0.10266 0.0
Sc134 Sc 0.6474 0.39074 0.11434 0.0
O135 O 0.66176 0.35166 0.09867 0.0
C136 C 0.62958 0.41075 0.0751 0.0
C137 C 0.68995 0.33566 0.0592 0.0
C138 C 0.69665 0.42365 0.10984 0.0
C139 C 0.6731 0.26008 0.09501 0.0
C140 C 0.60707 0.33399 0.10988 0.0
C141 C 0.67483 0.34525 0.14309 0.0
O142 O 0.62922 0.37736 0.06993 0.0
O143 O 0.70134 0.33697 0.07383 0.0
O144 O 0.67658 0.42498 0.11523 0.0
O145 O 0.65674 0.2719 0.08562 0.0
O146 O 0.61599 0.36279 0.11627 0.0
O147 O 0.69042 0.3377 0.13194 0.0
O148 O 0.61591 0.31535 0.09715 0.0
O149 O 0.68711 0.28109 0.10266 0.0
O150 O 0.65733 0.36262 0.13859 0.0
O151 O 0.66889 0.33348 0.05907 0.0
O152 O 0.63684 0.42063 0.09066 0.0
O153 O 0.7052 0.3948 0.10314 0.0
Sc154 Sc 0.33293 0.67086 0.58072 0.0
Sc155 Sc 0.29352 0.63293 0.61082 0.0
Sc156 Sc 0.34698 0.59478 0.60789 0.0
O157 O 0.3245 0.6329 0.59976 0.0
C158 C 0.3584 0.60043 0.56547 0.0
C159 C 0.28481 0.64226 0.56863 0.0
C160 C 0.30364 0.54712 0.60838 0.0
C161 C 0.30055 0.71893 0.60521 0.0
C162 C 0.37544 0.66881 0.6063 0.0
C163 C 0.32361 0.61966 0.64515 0.0
O164 O 0.34961 0.63181 0.56359 0.0
O165 O 0.27841 0.6308 0.58421 0.0
O166 O 0.32411 0.5498 0.60438 0.0
O167 O 0.31719 0.71601 0.59465 0.0
O168 O 0.37163 0.63657 0.6122 0.0
O169 O 0.30704 0.6354 0.63777 0.0
O170 O 0.36334 0.68487 0.59449 0.0
O171 O 0.2903 0.6913 0.61144 0.0
O172 O 0.33795 0.60135 0.63618 0.0
O173 O 0.30326 0.65844 0.56578 0.0
O174 O 0.35886 0.58365 0.58068 0.0
O175 O 0.2915 0.57441 0.61229 0.0
Sc176 Sc 0.83971 0.89828 0.11359 0.0
Sc177 Sc 0.79471 0.83852 0.10601 0.0
Sc178 Sc 0.84924 0.80951 0.0963 0.0
O179 O 0.82789 0.84877 0.10539 0.0
C180 C 0.86649 0.88304 0.0768 0.0
C181 C 0.79344 0.92365 0.09611 0.0
C182 C 0.80847 0.8018 0.06873 0.0
C183 C 0.80411 0.87731 0.14425 0.0
C184 C 0.87877 0.84546 0.12751 0.0
C185 C 0.81503 0.76018 0.11767 0.0
O186 O 0.85846 0.90477 0.08874 0.0
O187 O 0.78459 0.89217 0.097 0.0
O188 O 0.82791 0.79458 0.07435 0.0
O189 O 0.82126 0.89463 0.13872 0.0
O190 O 0.87346 0.81901 0.11718 0.0
O191 O 0.7994 0.78315 0.1153 0.0
O192 O 0.86818 0.8756 0.12762 0.0
O193 O 0.79289 0.85573 0.13413 0.0
O194 O 0.83501 0.76647 0.1129 0.0
O195 O 0.81334 0.92955 0.10108 0.0
O196 O 0.86487 0.84827 0.07796 0.0
O197 O 0.79446 0.82056 0.07786 0.0
Sc198 Sc 0.13388 0.09782 0.6092 0.0
Sc199 Sc 0.18428 0.14625 0.60809 0.0
Sc200 Sc 0.14207 0.16763 0.57677 0.0
O201 O 0.15344 0.13714 0.59799 0.0
C202 C 0.12202 0.08844 0.56745 0.0
C203 C 0.18182 0.05951 0.60919 0.0
C204 C 0.19162 0.15429 0.56489 0.0
C205 C 0.15594 0.13273 0.64431 0.0
C206 C 0.10018 0.16468 0.60259 0.0
C207 C 0.16982 0.22712 0.59945 0.0
O208 O 0.12547 0.07472 0.58314 0.0
O209 O 0.19258 0.08918 0.60715 0.0
O210 O 0.17108 0.156 0.56087 0.0
O211 O 0.13987 0.11706 0.6363 0.0
O212 O 0.11222 0.18191 0.59118 0.0
O213 O 0.17906 0.20413 0.61002 0.0
O214 O 0.10527 0.13337 0.60905 0.0
O215 O 0.17354 0.14259 0.63606 0.0
O216 O 0.15723 0.2178 0.5863 0.0
O217 O 0.16075 0.05848 0.61093 0.0
O218 O 0.12597 0.12185 0.56374 0.0
O219 O 0.19866 0.15255 0.58127 0.0
Sc220 Sc 0.84668 0.1753 0.90934 0.0
Sc221 Sc 0.80895 0.16256 0.87368 0.0
Sc222 Sc 0.85818 0.11079 0.87515 0.0
O223 O 0.83791 0.14943 0.88602 0.0
C224 C 0.89155 0.17496 0.88748 0.0
C225 C 0.82241 0.24032 0.88763 0.0
C226 C 0.84196 0.15309 0.83984 0.0
C227 C 0.7961 0.16096 0.91615 0.0
C228 C 0.86483 0.09402 0.91693 0.0
C229 C 0.80986 0.07636 0.86869 0.0
O230 O 0.87781 0.1919 0.89767 0.0
O231 O 0.81543 0.22027 0.87471 0.0
O232 O 0.85667 0.13529 0.84857 0.0
O233 O 0.81601 0.16003 0.92201 0.0
O234 O 0.86199 0.08232 0.90076 0.0
O235 O 0.79951 0.10624 0.87134 0.0
O236 O 0.86176 0.12735 0.92129 0.0
O237 O 0.79124 0.16476 0.89932 0.0
O238 O 0.831 0.07401 0.86874 0.0
O239 O 0.83238 0.22744 0.90153 0.0
O240 O 0.88727 0.14412 0.88008 0.0
O241 O 0.82352 0.16265 0.84687 0.0
Sc242 Sc 0.15228 0.88943 0.37096 0.0
Sc243 Sc 0.19728 0.82786 0.37416 0.0
Sc244 Sc 0.14444 0.80294 0.39116 0.0
O245 O 0.16471 0.84001 0.37872 0.0
C246 C 0.12777 0.87839 0.40889 0.0
C247 C 0.20075 0.91276 0.38441 0.0
C248 C 0.18881 0.79671 0.41432 0.0
C249 C 0.1836 0.86835 0.33743 0.0
C250 C 0.1126 0.83448 0.36044 0.0
C251 C 0.17554 0.74934 0.36778 0.0
O252 O 0.13628 0.89881 0.39671 0.0
O253 O 0.20904 0.88091 0.3827 0.0
O254 O 0.16783 0.79448 0.41268 0.0
O255 O 0.16735 0.88548 0.34455 0.0
O256 O 0.11914 0.80831 0.3706 0.0
O257 O 0.19052 0.77315 0.3649 0.0
O258 O 0.12251 0.86528 0.3597 0.0
O259 O 0.19581 0.84604 0.34624 0.0
O260 O 0.15796 0.75615 0.37684 0.0
O261 O 0.18045 0.91973 0.38108 0.0
O262 O 0.12869 0.84363 0.4082 0.0
O263 O 0.20165 0.80793 0.40164 0.0
Sc264 Sc 0.15036 0.1118 0.8726 0.0
Sc265 Sc 0.20006 0.16253 0.86921 0.0
Sc266 Sc 0.16265 0.17929 0.90519 0.0
O267 O 0.17105 0.15115 0.88232 0.0
C268 C 0.11734 0.17759 0.88353 0.0
C269 C 0.16656 0.15142 0.83615 0.0
C270 C 0.18695 0.24223 0.88201 0.0
C271 C 0.19805 0.07543 0.86629 0.0
C272 C 0.14375 0.09947 0.91499 0.0
C273 C 0.21368 0.16281 0.9114 0.0
O274 O 0.12175 0.14715 0.87577 0.0
O275 O 0.1845 0.16385 0.84284 0.0
O276 O 0.17559 0.23105 0.89556 0.0
O277 O 0.1771 0.07287 0.86849 0.0
O278 O 0.14866 0.13238 0.91889 0.0
O279 O 0.21861 0.16313 0.89447 0.0
O280 O 0.14494 0.08698 0.89884 0.0
O281 O 0.2083 0.10582 0.86628 0.0
O282 O 0.19393 0.16625 0.91741 0.0
O283 O 0.15293 0.13206 0.84522 0.0
O284 O 0.13085 0.19387 0.89414 0.0
O285 O 0.19548 0.2206 0.87041 0.0
Sc286 Sc 0.85452 0.81276 0.39269 0.0
Sc287 Sc 0.80133 0.83165 0.37471 0.0
Sc288 Sc 0.84503 0.89452 0.36816 0.0
O289 O 0.83362 0.84621 0.37846 0.0
C290 C 0.86762 0.89259 0.40743 0.0
C291 C 0.81005 0.80686 0.41588 0.0
C292 C 0.79601 0.91761 0.38088 0.0
C293 C 0.82553 0.75413 0.37075 0.0
C294 C 0.8865 0.84108 0.36108 0.0
C295 C 0.81429 0.86543 0.33592 0.0
O296 O 0.86769 0.85778 0.4085 0.0
O297 O 0.79711 0.81598 0.4029 0.0
O298 O 0.81596 0.92501 0.37646 0.0
O299 O 0.84293 0.76306 0.37959 0.0
O300 O 0.87568 0.87058 0.35845 0.0
O301 O 0.80226 0.84549 0.3462 0.0
O302 O 0.88048 0.81695 0.3726 0.0
O303 O 0.80976 0.77635 0.3675 0.0
O304 O 0.83066 0.88408 0.34179 0.0
O305 O 0.83101 0.80506 0.41419 0.0
O306 O 0.85987 0.90977 0.39373 0.0
O307 O 0.78848 0.8851 0.38129 0.0
Sc308 Sc 0.13472 0.81105 0.09166 0.0
Sc309 Sc 0.18826 0.83588 0.10693 0.0
Sc310 Sc 0.14384 0.89778 0.11168 0.0
O311 O 0.1556 0.84814 0.10348 0.0
C312 C 0.11962 0.88713 0.07347 0.0
C313 C 0.17854 0.80407 0.06739 0.0
C314 C 0.19201 0.92115 0.09757 0.0
C315 C 0.16591 0.75757 0.11458 0.0
C316 C 0.10346 0.84463 0.12253 0.0
C317 C 0.17584 0.87462 0.1444 0.0
O318 O 0.12039 0.85227 0.07396 0.0
O319 O 0.19166 0.81792 0.07914 0.0
O320 O 0.1718 0.92822 0.10117 0.0
O321 O 0.14733 0.76452 0.107 0.0
O322 O 0.11419 0.87457 0.1235 0.0
O323 O 0.1875 0.85241 0.13504 0.0
O324 O 0.10918 0.81859 0.11198 0.0
O325 O 0.18154 0.78084 0.11551 0.0
O326 O 0.15964 0.89282 0.13785 0.0
O327 O 0.15787 0.79962 0.07018 0.0
O328 O 0.12749 0.9072 0.08608 0.0
O329 O 0.20012 0.88914 0.09893 0.0
Sc330 Sc 0.82972 0.18535 0.58243 0.0
Sc331 Sc 0.79087 0.16448 0.61695 0.0
Sc332 Sc 0.83922 0.11091 0.61184 0.0
O333 O 0.81989 0.15358 0.60373 0.0
C334 C 0.84673 0.10646 0.56908 0.0
C335 C 0.77847 0.17103 0.57478 0.0
C336 C 0.79103 0.07685 0.61676 0.0
C337 C 0.80529 0.24567 0.60703 0.0
C338 C 0.87398 0.17629 0.605 0.0
C339 C 0.82378 0.14681 0.64958 0.0
O340 O 0.8427 0.14029 0.5668 0.0
O341 O 0.77287 0.16759 0.59149 0.0
O342 O 0.81169 0.07315 0.61354 0.0
O343 O 0.81792 0.23613 0.59397 0.0
O344 O 0.86843 0.14498 0.61122 0.0
O345 O 0.80674 0.16301 0.64321 0.0
O346 O 0.86167 0.1954 0.59454 0.0
O347 O 0.79538 0.22266 0.61712 0.0
O348 O 0.83616 0.12608 0.64003 0.0
O349 O 0.79835 0.17667 0.56944 0.0
O350 O 0.84498 0.0909 0.58454 0.0
O351 O 0.7818 0.10786 0.61873 0.0
C352 C 0.29144 0.20327 0.11501 0.0
C353 C 0.30423 0.21833 0.10077 0.0
C354 C 0.28304 0.16767 0.11364 0.0
C355 C 0.27594 0.08456 0.10942 0.0
H356 H 0.24033 0.06792 0.06598 0.0
C357 C 0.23032 0.94802 0.09642 0.0
C358 C 0.20729 0.95205 0.09361 0.0
C359 C 0.24446 0.97834 0.09543 0.0
C360 C 0.25034 0.07213 0.0781 0.0
H361 H 0.31882 0.20743 0.07418 0.0
H362 H 0.30372 0.14537 0.07168 0.0
H363 H 0.26216 0.12433 0.06877 0.0
H364 H 0.1813 0.99077 0.08647 0.0
H365 H 0.20617 0.04361 0.08433 0.0
H366 H 0.26391 0.03261 0.11887 0.0
C367 C 0.3004 0.16113 0.08393 0.0
C368 C 0.26292 0.10421 0.07965 0.0
C369 C 0.30918 0.1965 0.08545 0.0
C370 C 0.19893 0.98674 0.08877 0.0
C371 C 0.21316 0.01697 0.08748 0.0
C372 C 0.26367 0.0522 0.10773 0.0
C373 C 0.28691 0.14667 0.09786 0.0
C374 C 0.27553 0.11099 0.09546 0.0
C375 C 0.23595 0.01321 0.09128 0.0
C376 C 0.25046 0.04597 0.0922 0.0
H377 H 0.28734 0.21943 0.12697 0.0
H378 H 0.27259 0.15722 0.12453 0.0
H379 H 0.28554 0.08915 0.12173 0.0
H380 H 0.23734 0.92175 0.10022 0.0
H381 H 0.262 0.97469 0.09828 0.0
C382 C 0.66629 0.8157 0.59794 0.0
C383 C 0.67087 0.78764 0.61057 0.0
C384 C 0.67576 0.85036 0.60013 0.0
C385 C 0.71505 0.90258 0.60001 0.0
H386 H 0.72208 0.95583 0.64551 0.0
C387 C 0.78373 0.01037 0.61044 0.0
C388 C 0.77673 0.04399 0.61783 0.0
C389 C 0.7694 0.98023 0.61039 0.0
C390 C 0.72016 0.94129 0.6327 0.0
H391 H 0.68707 0.77491 0.63631 0.0
H392 H 0.7034 0.83547 0.64015 0.0
H393 H 0.69682 0.90327 0.64419 0.0
H394 H 0.74954 0.07197 0.63159 0.0
H395 H 0.72473 0.01926 0.63162 0.0
H396 H 0.73861 0.9401 0.58857 0.0
C397 C 0.69269 0.83061 0.62851 0.0
C398 C 0.70577 0.91126 0.63196 0.0
C399 C 0.68341 0.79587 0.62625 0.0
C400 C 0.7554 0.04651 0.62567 0.0
C401 C 0.74121 0.01631 0.6258 0.0
C402 C 0.72958 0.9323 0.60079 0.0
C403 C 0.68971 0.85766 0.61508 0.0
C404 C 0.70318 0.89154 0.61562 0.0
C405 C 0.74795 0.98306 0.61794 0.0
C406 C 0.73239 0.95175 0.61717 0.0
H407 H 0.65664 0.81027 0.58575 0.0
H408 H 0.67297 0.87098 0.58971 0.0
H409 H 0.71363 0.88752 0.5873 0.0
H410 H 0.80004 0.00758 0.60429 0.0
H411 H 0.77506 0.95471 0.60441 0.0
C412 C 0.30625 0.79365 0.8558 0.0
C413 C 0.31872 0.78617 0.87162 0.0
C414 C 0.29632 0.82787 0.85334 0.0
C415 C 0.282 0.90814 0.84959 0.0
H416 H 0.24786 0.93578 0.89249 0.0
C417 C 0.23294 0.04391 0.85652 0.0
C418 C 0.21154 0.04181 0.86424 0.0
C419 C 0.24666 0.01311 0.85594 0.0
C420 C 0.25722 0.92826 0.88039 0.0
H421 H 0.33205 0.80962 0.89656 0.0
H422 H 0.31456 0.86946 0.89227 0.0
H423 H 0.27328 0.8837 0.89406 0.0
H424 H 0.1875 0.00552 0.87694 0.0
H425 H 0.21171 0.95155 0.87609 0.0
H426 H 0.26572 0.95268 0.83591 0.0
C427 C 0.31238 0.84865 0.88187 0.0
C428 C 0.272 0.89884 0.88136 0.0
C429 C 0.32254 0.81452 0.88423 0.0
C430 C 0.20389 0.00796 0.87089 0.0
C431 C 0.21777 0.97719 0.87052 0.0
C432 C 0.26738 0.9379 0.84869 0.0
C433 C 0.29852 0.85513 0.86675 0.0
C434 C 0.28443 0.88835 0.86595 0.0
C435 C 0.23938 0.97966 0.86325 0.0
C436 C 0.25472 0.94799 0.86404 0.0
H437 H 0.30316 0.7724 0.84577 0.0
H438 H 0.28571 0.83212 0.84157 0.0
H439 H 0.29137 0.90054 0.83752 0.0
H440 H 0.23926 0.06956 0.85116 0.0
H441 H 0.26327 0.0158 0.85035 0.0
C442 C 0.78845 0.98326 0.38894 0.0
C443 C 0.78043 0.94836 0.38418 0.0
C444 C 0.77391 0.01309 0.39021 0.0
C445 C 0.72331 0.04807 0.37027 0.0
H446 H 0.72358 0.11761 0.41036 0.0
C447 C 0.69662 0.20004 0.36526 0.0
C448 C 0.68343 0.21426 0.37946 0.0
C449 C 0.70447 0.16401 0.36604 0.0
C450 C 0.72314 0.09818 0.39917 0.0
H451 H 0.75079 0.91727 0.37743 0.0
H452 H 0.72554 0.96969 0.37925 0.0
H453 H 0.74575 0.06138 0.41255 0.0
H454 H 0.66743 0.2015 0.40527 0.0
H455 H 0.68165 0.13864 0.40681 0.0
H456 H 0.70155 0.08571 0.35654 0.0
C457 C 0.74304 0.97374 0.38214 0.0
C458 C 0.73592 0.06623 0.40038 0.0
C459 C 0.75749 0.94376 0.38121 0.0
C460 C 0.6774 0.1912 0.39405 0.0
C461 C 0.68566 0.15538 0.39502 0.0
C462 C 0.71088 0.08036 0.36892 0.0
C463 C 0.75116 0.00874 0.38643 0.0
C464 C 0.73629 0.04108 0.38587 0.0
C465 C 0.69964 0.14177 0.38121 0.0
C466 C 0.71085 0.10586 0.38329 0.0
H467 H 0.80602 0.98766 0.39135 0.0
H468 H 0.7806 0.03988 0.39345 0.0
H469 H 0.72346 0.02921 0.35884 0.0
H470 H 0.70152 0.2172 0.35385 0.0
H471 H 0.71532 0.15422 0.35526 0.0
C472 C 0.77409 0.04183 0.87059 0.0
C473 C 0.79649 0.04318 0.86511 0.0
C474 C 0.76117 0.01094 0.867 0.0
C475 C 0.76622 0.91248 0.8558 0.0
H476 H 0.70285 0.92145 0.84675 0.0
C477 C 0.71352 0.78515 0.84501 0.0
C478 C 0.69629 0.78191 0.85794 0.0
C479 C 0.72354 0.81896 0.84174 0.0
C480 C 0.72054 0.91864 0.84919 0.0
H481 H 0.82279 0.01352 0.85123 0.0
H482 H 0.80006 0.9599 0.84447 0.0
H483 H 0.72569 0.97665 0.84916 0.0
H484 H 0.67449 0.81241 0.87607 0.0
H485 H 0.69201 0.87163 0.87023 0.0
H486 H 0.76105 0.85455 0.85584 0.0
C487 C 0.79261 0.98234 0.85198 0.0
C488 C 0.73362 0.95017 0.8507 0.0
C489 C 0.80565 0.01308 0.85582 0.0
C490 C 0.68779 0.81389 0.86611 0.0
C491 C 0.6978 0.84784 0.86275 0.0
C492 C 0.75322 0.88107 0.85404 0.0
C493 C 0.77022 0.98082 0.8576 0.0
C494 C 0.75657 0.94747 0.85437 0.0
C495 C 0.71644 0.85027 0.85121 0.0
C496 C 0.73022 0.88383 0.85099 0.0
H497 H 0.76658 0.0645 0.87791 0.0
H498 H 0.74419 0.0105 0.87193 0.0
H499 H 0.7837 0.90922 0.85897 0.0
H500 H 0.72024 0.76119 0.83822 0.0
H501 H 0.73763 0.82029 0.83251 0.0
C502 C 0.2072 0.97805 0.39363 0.0
C503 C 0.21585 0.94383 0.38843 0.0
C504 C 0.22099 0.0088 0.39457 0.0
C505 C 0.2483 0.072 0.38089 0.0
H506 H 0.31053 0.07079 0.39473 0.0
C507 C 0.30236 0.19636 0.36572 0.0
C508 C 0.31635 0.2084 0.37983 0.0
C509 C 0.29302 0.16138 0.36629 0.0
C510 C 0.29315 0.07164 0.3909 0.0
H511 H 0.24606 0.91472 0.38108 0.0
H512 H 0.26995 0.96847 0.38223 0.0
H513 H 0.28784 0.01595 0.3992 0.0
H514 H 0.33268 0.1926 0.40502 0.0
H515 H 0.31587 0.13171 0.40632 0.0
H516 H 0.25318 0.12776 0.37319 0.0
C517 C 0.25259 0.97154 0.38589 0.0
C518 C 0.28017 0.04009 0.39332 0.0
C519 C 0.23884 0.94066 0.38518 0.0
C520 C 0.32206 0.18388 0.39389 0.0
C521 C 0.31239 0.14899 0.39463 0.0
C522 C 0.26116 0.10344 0.3786 0.0
C523 C 0.24371 0.00622 0.39006 0.0
C524 C 0.25756 0.0399 0.38832 0.0
C525 C 0.29706 0.13789 0.38119 0.0
C526 C 0.28379 0.10369 0.38343 0.0
H527 H 0.18962 0.98135 0.39645 0.0
H528 H 0.21367 0.03485 0.39835 0.0
H529 H 0.2311 0.07281 0.37654 0.0
H530 H 0.29787 0.2146 0.35462 0.0
H531 H 0.2819 0.15334 0.35537 0.0
C532 C 0.78884 0.99007 0.0879 0.0
C533 C 0.77928 0.9555 0.09109 0.0
C534 C 0.77543 0.02119 0.08608 0.0
C535 C 0.74592 0.08338 0.09798 0.0
H536 H 0.68713 0.08529 0.07624 0.0
C537 C 0.68906 0.20559 0.11076 0.0
C538 C 0.67805 0.22039 0.09553 0.0
C539 C 0.69856 0.17073 0.10994 0.0
C540 C 0.70355 0.08526 0.0823 0.0
H541 H 0.74798 0.92638 0.09384 0.0
H542 H 0.7247 0.98069 0.09109 0.0
H543 H 0.71035 0.03054 0.07312 0.0
H544 H 0.66716 0.20945 0.06786 0.0
H545 H 0.68421 0.1486 0.06623 0.0
H546 H 0.73958 0.13813 0.10675 0.0
C547 C 0.74253 0.98376 0.08974 0.0
C548 C 0.71681 0.05376 0.08063 0.0
C549 C 0.75594 0.95254 0.09138 0.0
C550 C 0.67539 0.19857 0.07986 0.0
C551 C 0.68522 0.16373 0.07894 0.0
C552 C 0.73277 0.11473 0.09958 0.0
C553 C 0.75214 0.01865 0.08763 0.0
C554 C 0.73817 0.05243 0.0885 0.0
C555 C 0.69769 0.15003 0.09374 0.0
C556 C 0.71133 0.11606 0.09192 0.0
H557 H 0.80673 0.99331 0.08737 0.0
H558 H 0.78341 0.04746 0.08396 0.0
H559 H 0.76207 0.08329 0.10451 0.0
H560 H 0.69119 0.22169 0.12308 0.0
H561 H 0.7074 0.16061 0.12182 0.0
C562 C 0.18487 0.99267 0.61677 0.0
C563 C 0.19454 0.02483 0.6098 0.0
C564 C 0.19719 0.96025 0.61774 0.0
C565 C 0.25518 0.92484 0.61657 0.0
H566 H 0.2259 0.83288 0.60549 0.0
C567 C 0.30066 0.78746 0.60142 0.0
C568 C 0.29132 0.75573 0.60921 0.0
C569 C 0.29003 0.82138 0.60328 0.0
C570 C 0.23424 0.85833 0.60881 0.0
H571 H 0.22461 0.04801 0.59811 0.0
H572 H 0.2458 0.99131 0.59928 0.0
H573 H 0.20465 0.88962 0.60467 0.0
H574 H 0.26418 0.73533 0.62604 0.0
H575 H 0.24576 0.7943 0.62914 0.0
H576 H 0.28496 0.89323 0.62016 0.0
C577 C 0.22893 0.9913 0.60448 0.0
C578 C 0.22206 0.89085 0.60839 0.0
C579 C 0.21671 0.02378 0.60369 0.0
C580 C 0.27177 0.75905 0.61968 0.0
C581 C 0.26112 0.7928 0.62142 0.0
C582 C 0.26743 0.89226 0.6168 0.0
C583 C 0.21936 0.95915 0.61157 0.0
C584 C 0.23235 0.92452 0.61228 0.0
C585 C 0.26983 0.82408 0.61287 0.0
C586 C 0.25704 0.85872 0.61296 0.0
H587 H 0.1679 0.99265 0.62174 0.0
H588 H 0.18939 0.93615 0.62354 0.0
H589 H 0.26357 0.95022 0.61991 0.0
H590 H 0.31573 0.78593 0.59332 0.0
H591 H 0.29706 0.84514 0.59653 0.0
C592 C 0.81946 0.69191 0.11671 0.0
C593 C 0.80856 0.72299 0.12372 0.0
C594 C 0.80961 0.65721 0.11813 0.0
C595 C 0.7532 0.62019 0.12032 0.0
H596 H 0.78181 0.52561 0.12601 0.0
C597 C 0.70225 0.48754 0.12145 0.0
C598 C 0.71067 0.45681 0.11212 0.0
C599 C 0.71541 0.51853 0.12413 0.0
C600 C 0.77365 0.55184 0.12422 0.0
H601 H 0.78018 0.74161 0.13948 0.0
H602 H 0.76337 0.68119 0.14238 0.0
H603 H 0.80353 0.58184 0.13008 0.0
H604 H 0.73973 0.43474 0.09835 0.0
H605 H 0.7626 0.48938 0.10272 0.0
H606 H 0.72353 0.59073 0.11407 0.0
C607 C 0.77911 0.68365 0.13527 0.0
C608 C 0.78607 0.584 0.12662 0.0
C609 C 0.78882 0.71822 0.13374 0.0
C610 C 0.73268 0.45791 0.10557 0.0
C611 C 0.74586 0.48912 0.1082 0.0
C612 C 0.74088 0.58825 0.11786 0.0
C613 C 0.78878 0.6531 0.12667 0.0
C614 C 0.77591 0.61854 0.12481 0.0
C615 C 0.73733 0.51986 0.11746 0.0
C616 C 0.75087 0.55365 0.11986 0.0
H617 H 0.83464 0.69475 0.10884 0.0
H618 H 0.8175 0.6342 0.11138 0.0
H619 H 0.74498 0.64631 0.11829 0.0
H620 H 0.68548 0.48764 0.12688 0.0
H621 H 0.70841 0.54142 0.13162 0.0
C622 C 0.28024 0.50058 0.62356 0.0
C623 C 0.29281 0.51121 0.60833 0.0
C624 C 0.26657 0.46983 0.62271 0.0
C625 C 0.25237 0.38854 0.59411 0.0
H626 H 0.19659 0.39574 0.62067 0.0
C627 C 0.18071 0.2859 0.58472 0.0
C628 C 0.17716 0.26551 0.60077 0.0
C629 C 0.19277 0.31855 0.58533 0.0
C630 C 0.21208 0.39358 0.61317 0.0
H631 H 0.30157 0.49822 0.5804 0.0
H632 H 0.27692 0.44512 0.57849 0.0
H633 H 0.22329 0.4459 0.62226 0.0
H634 H 0.18176 0.26451 0.63015 0.0
H635 H 0.20208 0.32261 0.63127 0.0
H636 H 0.24052 0.33655 0.5846 0.0
C637 C 0.27806 0.45965 0.59135 0.0
C638 C 0.22754 0.422 0.61422 0.0
C639 C 0.2922 0.49001 0.59239 0.0
C640 C 0.18426 0.27979 0.61761 0.0
C641 C 0.19586 0.31289 0.61825 0.0
C642 C 0.23667 0.3605 0.59277 0.0
C643 C 0.26466 0.44971 0.60639 0.0
C644 C 0.24805 0.41965 0.60491 0.0
C645 C 0.20092 0.33168 0.60204 0.0
C646 C 0.21654 0.36271 0.60242 0.0
H647 H 0.28057 0.5167 0.636 0.0
H648 H 0.25713 0.4624 0.63477 0.0
H649 H 0.26803 0.38541 0.58697 0.0
H650 H 0.17563 0.27532 0.57154 0.0
H651 H 0.19648 0.33282 0.5727 0.0
C652 C 0.71037 0.51806 0.89254 0.0
C653 C 0.71353 0.54124 0.87745 0.0
C654 C 0.72387 0.48714 0.89489 0.0
C655 C 0.77718 0.44592 0.87798 0.0
H656 H 0.75344 0.35772 0.9002 0.0
C657 C 0.81203 0.29777 0.87105 0.0
C658 C 0.81577 0.27925 0.88762 0.0
C659 C 0.80215 0.33244 0.87101 0.0
C660 C 0.76028 0.38237 0.89413 0.0
H661 H 0.73247 0.54967 0.8526 0.0
H662 H 0.75501 0.49491 0.85601 0.0
H663 H 0.72982 0.41177 0.89735 0.0
H664 H 0.81272 0.2828 0.91712 0.0
H665 H 0.79478 0.34306 0.91693 0.0
H666 H 0.80725 0.41523 0.87384 0.0
C667 C 0.74298 0.50119 0.86658 0.0
C668 C 0.74683 0.41344 0.89256 0.0
C669 C 0.72989 0.53244 0.86449 0.0
C670 C 0.81026 0.29662 0.90416 0.0
C671 C 0.79987 0.33089 0.90408 0.0
C672 C 0.79043 0.41455 0.87917 0.0
C673 C 0.74046 0.47837 0.88196 0.0
C674 C 0.75503 0.44562 0.88434 0.0
C675 C 0.79539 0.34868 0.88749 0.0
C676 C 0.78204 0.38257 0.8872 0.0
H677 H 0.69797 0.52448 0.90281 0.0
H678 H 0.72157 0.47063 0.90704 0.0
H679 H 0.78437 0.47036 0.87202 0.0
H680 H 0.81609 0.28493 0.85812 0.0
H681 H 0.79873 0.34574 0.85806 0.0
C682 C 0.29247 0.483 0.37678 0.0
C683 C 0.28369 0.44759 0.37477 0.0
C684 C 0.27878 0.5138 0.37496 0.0
C685 C 0.21895 0.54259 0.3724 0.0
H686 H 0.24528 0.63106 0.3527 0.0
C687 C 0.19618 0.70243 0.34946 0.0
C688 C 0.1811 0.71078 0.36353 0.0
C689 C 0.2059 0.66765 0.34838 0.0
C690 C 0.23739 0.60647 0.35785 0.0
H691 H 0.25366 0.4167 0.36922 0.0
H692 H 0.23004 0.47013 0.36524 0.0
H693 H 0.26781 0.57658 0.35588 0.0
H694 H 0.16344 0.68862 0.38688 0.0
H695 H 0.18091 0.62881 0.38555 0.0
H696 H 0.18823 0.57202 0.37348 0.0
C697 C 0.24729 0.47441 0.36887 0.0
C698 C 0.25057 0.57524 0.3601 0.0
C699 C 0.26089 0.44363 0.37109 0.0
C700 C 0.1748 0.68291 0.37574 0.0
C701 C 0.18492 0.64843 0.37495 0.0
C702 C 0.20564 0.57364 0.36979 0.0
C703 C 0.25604 0.51002 0.37064 0.0
C704 C 0.24167 0.54297 0.36769 0.0
C705 C 0.20125 0.6407 0.36167 0.0
C706 C 0.21473 0.60628 0.36274 0.0
H707 H 0.30996 0.4869 0.37975 0.0
H708 H 0.2861 0.54059 0.37695 0.0
H709 H 0.21142 0.51852 0.37845 0.0
H710 H 0.20124 0.72333 0.33978 0.0
H711 H 0.21776 0.66248 0.33754 0.0
C712 C 0.27099 0.54777 0.87491 0.0
C713 C 0.29383 0.54519 0.87893 0.0
C714 C 0.25744 0.51682 0.87551 0.0
C715 C 0.25301 0.42484 0.89523 0.0
H716 H 0.2123 0.40703 0.85507 0.0
C717 C 0.20246 0.29558 0.86473 0.0
C718 C 0.19293 0.28147 0.88083 0.0
C719 C 0.21185 0.33054 0.86454 0.0
C720 C 0.22354 0.41174 0.86639 0.0
H721 H 0.32024 0.50792 0.88692 0.0
H722 H 0.29641 0.45368 0.88802 0.0
H723 H 0.23576 0.4617 0.85478 0.0
H724 H 0.18456 0.29393 0.90902 0.0
H725 H 0.20103 0.35509 0.90863 0.0
H726 H 0.2411 0.37453 0.90668 0.0
C727 C 0.28909 0.47987 0.88446 0.0
C728 C 0.23687 0.44307 0.86628 0.0
C729 C 0.30275 0.51087 0.88373 0.0
C730 C 0.19178 0.30396 0.8964 0.0
C731 C 0.20137 0.33884 0.89625 0.0
C732 C 0.23955 0.39367 0.89542 0.0
C733 C 0.26633 0.48256 0.88026 0.0
C734 C 0.25188 0.44974 0.88062 0.0
C735 C 0.21202 0.35202 0.88046 0.0
C736 C 0.22483 0.38665 0.88092 0.0
H737 H 0.26351 0.57373 0.87116 0.0
H738 H 0.23991 0.51976 0.87239 0.0
H739 H 0.26428 0.4295 0.90653 0.0
H740 H 0.20351 0.27902 0.85247 0.0
H741 H 0.22001 0.33995 0.85219 0.0
C742 C 0.80839 0.70538 0.35147 0.0
C743 C 0.82132 0.7151 0.36668 0.0
C744 C 0.79933 0.67024 0.35008 0.0
C745 C 0.767 0.60971 0.35802 0.0
H746 H 0.79062 0.52261 0.38131 0.0
C747 C 0.70998 0.48785 0.3748 0.0
C748 C 0.71862 0.45221 0.37332 0.0
C749 C 0.724 0.51832 0.37357 0.0
C750 C 0.78381 0.54648 0.37452 0.0
H751 H 0.83601 0.69515 0.3918 0.0
H752 H 0.81956 0.63441 0.38983 0.0
H753 H 0.8142 0.57627 0.37771 0.0
H754 H 0.74884 0.42061 0.36946 0.0
H755 H 0.77314 0.47361 0.36664 0.0
H756 H 0.73695 0.57967 0.35415 0.0
C757 C 0.8168 0.65332 0.37865 0.0
C758 C 0.7973 0.57755 0.37267 0.0
C759 C 0.82632 0.68825 0.37981 0.0
C760 C 0.74166 0.44772 0.37082 0.0
C761 C 0.75564 0.4782 0.36927 0.0
C762 C 0.75367 0.57856 0.35961 0.0
C763 C 0.80242 0.64431 0.36413 0.0
C764 C 0.78899 0.60983 0.3646 0.0
C765 C 0.74699 0.51399 0.37046 0.0
C766 C 0.76171 0.54666 0.36816 0.0
H767 H 0.80439 0.72555 0.3411 0.0
H768 H 0.78904 0.66403 0.33834 0.0
H769 H 0.7597 0.63405 0.35204 0.0
H770 H 0.69234 0.49225 0.37691 0.0
H771 H 0.71673 0.54531 0.37507 0.0
C772 C 0.2809 0.48703 0.12182 0.0
C773 C 0.27396 0.45623 0.11179 0.0
C774 C 0.26717 0.51773 0.1235 0.0
C775 C 0.20855 0.54916 0.11861 0.0
H776 H 0.23637 0.64495 0.11806 0.0
C777 C 0.16244 0.68952 0.11038 0.0
C778 C 0.17149 0.71945 0.11993 0.0
C779 C 0.17245 0.65483 0.11152 0.0
C780 C 0.22834 0.61839 0.11851 0.0
H781 H 0.24702 0.4339 0.09553 0.0
H782 H 0.22328 0.48799 0.09805 0.0
H783 H 0.25919 0.59052 0.11461 0.0
H784 H 0.19645 0.73557 0.13972 0.0
H785 H 0.21353 0.67522 0.14194 0.0
H786 H 0.17752 0.5777 0.12202 0.0
C787 C 0.23921 0.48803 0.10495 0.0
C788 C 0.24145 0.58709 0.11652 0.0
C789 C 0.25292 0.4571 0.10337 0.0
C790 C 0.18925 0.71318 0.13201 0.0
C791 C 0.19916 0.67866 0.13318 0.0
C792 C 0.19534 0.58068 0.12045 0.0
C793 C 0.24616 0.51876 0.11505 0.0
C794 C 0.23181 0.552 0.1167 0.0
C795 C 0.19158 0.64958 0.12226 0.0
C796 C 0.20516 0.61563 0.1206 0.0
H797 H 0.29686 0.48728 0.12867 0.0
H798 H 0.27295 0.54052 0.13168 0.0
H799 H 0.20055 0.52259 0.11898 0.0
H800 H 0.14885 0.69349 0.10088 0.0
H801 H 0.16619 0.63291 0.10297 0.0
C802 C 0.78732 0.29677 0.62444 0.0
C803 C 0.79911 0.28476 0.60894 0.0
C804 C 0.77734 0.33133 0.62467 0.0
C805 C 0.75254 0.39622 0.5929 0.0
H806 H 0.74971 0.46073 0.63494 0.0
C807 C 0.68707 0.51189 0.60055 0.0
C808 C 0.6952 0.5459 0.6066 0.0
C809 C 0.70081 0.48089 0.60069 0.0
C810 C 0.75043 0.44305 0.62307 0.0
H811 H 0.81094 0.3007 0.58203 0.0
H812 H 0.79348 0.36108 0.58249 0.0
H813 H 0.7739 0.40687 0.63576 0.0
H814 H 0.72418 0.57384 0.61761 0.0
H815 H 0.74787 0.51995 0.61789 0.0
H816 H 0.72894 0.43221 0.58027 0.0
C817 C 0.7918 0.3435 0.59436 0.0
C818 C 0.76419 0.4122 0.62358 0.0
C819 C 0.80198 0.30905 0.59419 0.0
C820 C 0.71731 0.54815 0.61281 0.0
C821 C 0.73091 0.51722 0.6131 0.0
C822 C 0.73863 0.42688 0.59246 0.0
C823 C 0.77882 0.35447 0.60936 0.0
C824 C 0.76536 0.38846 0.60851 0.0
C825 C 0.72283 0.48328 0.60707 0.0
C826 C 0.73742 0.45056 0.60755 0.0
H827 H 0.78489 0.2788 0.63606 0.0
H828 H 0.7674 0.33905 0.63641 0.0
H829 H 0.75288 0.37809 0.58119 0.0
H830 H 0.67015 0.50922 0.59566 0.0
H831 H 0.69413 0.45494 0.59608 0.0
C832 C 0.36307 0.46596 0.06571 0.0
C833 C 0.36828 0.42836 0.06572 0.0
C834 C 0.36883 0.48798 0.05078 0.0
C835 C 0.37632 0.47805 0.00178 0.0
H836 H 0.39528 0.57955 0.0032 0.0
C837 C 0.38216 0.56202 0.93578 0.0
C838 C 0.37335 0.59766 0.93655 0.0
C839 C 0.38632 0.54246 0.95183 0.0
C840 C 0.38987 0.55127 0.0026 0.0
H841 H 0.38533 0.3852 0.05077 0.0
H842 H 0.39532 0.42363 0.02488 0.0
H843 H 0.39427 0.54366 0.03146 0.0
H844 H 0.36263 0.64116 0.95479 0.0
H845 H 0.3692 0.60668 0.9827 0.0
H846 H 0.37088 0.4857 0.97324 0.0
C847 C 0.38644 0.43587 0.03623 0.0
C848 C 0.38937 0.53076 0.01876 0.0
C849 C 0.38073 0.41391 0.05111 0.0
C850 C 0.3695 0.61378 0.95371 0.0
C851 C 0.37341 0.59406 0.96975 0.0
C852 C 0.37663 0.49855 0.98571 0.0
C853 C 0.37988 0.47277 0.03563 0.0
C854 C 0.38238 0.49404 0.0185 0.0
C855 C 0.38148 0.55792 0.969 0.0
C856 C 0.38316 0.53553 0.98592 0.0
H857 H 0.35356 0.47799 0.07676 0.0
H858 H 0.36348 0.51634 0.05063 0.0
H859 H 0.37044 0.45001 0.00121 0.0
H860 H 0.38557 0.54901 0.92277 0.0
H861 H 0.39298 0.51496 0.95076 0.0
C862 C 0.62699 0.46247 0.41847 0.0
C863 C 0.62278 0.42455 0.41875 0.0
C864 C 0.62107 0.48437 0.43336 0.0
C865 C 0.61432 0.4753 0.4826 0.0
H866 H 0.59434 0.57627 0.48018 0.0
C867 C 0.60819 0.56225 0.54754 0.0
C868 C 0.61731 0.59762 0.5463 0.0
C869 C 0.60391 0.54196 0.53177 0.0
C870 C 0.59999 0.54813 0.48105 0.0
H871 H 0.60744 0.3805 0.43427 0.0
H872 H 0.59704 0.41878 0.46011 0.0
H873 H 0.59533 0.5392 0.45234 0.0
H874 H 0.62836 0.63992 0.52747 0.0
H875 H 0.62145 0.60418 0.50003 0.0
H876 H 0.61989 0.48431 0.51103 0.0
C877 C 0.60531 0.43138 0.44854 0.0
C878 C 0.60051 0.52694 0.46514 0.0
C879 C 0.61124 0.4095 0.4337 0.0
C880 C 0.6213 0.61276 0.52892 0.0
C881 C 0.61719 0.59235 0.51316 0.0
C882 C 0.61391 0.49645 0.49844 0.0
C883 C 0.6108 0.46878 0.44878 0.0
C884 C 0.60797 0.49046 0.46573 0.0
C885 C 0.60885 0.55645 0.51441 0.0
C886 C 0.60705 0.53326 0.49783 0.0
H887 H 0.6358 0.47498 0.40715 0.0
H888 H 0.62564 0.51308 0.43321 0.0
H889 H 0.62057 0.44749 0.48345 0.0
H890 H 0.60466 0.54996 0.56071 0.0
H891 H 0.5971 0.51463 0.53318 0.0
C892 C 0.61599 0.4301 0.04415 0.0
C893 C 0.62358 0.4396 0.0617 0.0
C894 C 0.61388 0.45677 0.03056 0.0
C895 C 0.63927 0.54337 0.01732 0.0
H896 H 0.5946 0.54202 0.97915 0.0
C897 C 0.6468 0.63393 0.9527 0.0
C898 C 0.64274 0.61548 0.93616 0.0
C899 C 0.64108 0.61775 0.96941 0.0
C900 C 0.60722 0.54271 0.9897 0.0
H901 H 0.6334 0.48518 0.07901 0.0
H902 H 0.62965 0.53159 0.05525 0.0
H903 H 0.58964 0.50399 0.00633 0.0
H904 H 0.62909 0.56575 0.92429 0.0
H905 H 0.61954 0.53761 0.95325 0.0
H906 H 0.65732 0.58084 0.00041 0.0
C907 C 0.62563 0.5034 0.052 0.0
C908 C 0.60434 0.521 0.00526 0.0
C909 C 0.62765 0.47677 0.06563 0.0
C910 C 0.63249 0.58085 0.93672 0.0
C911 C 0.62679 0.56478 0.95336 0.0
C912 C 0.64219 0.56498 0.00173 0.0
C913 C 0.61935 0.4935 0.03419 0.0
C914 C 0.62061 0.52041 0.01902 0.0
C915 C 0.63114 0.58287 0.96991 0.0
C916 C 0.62649 0.56413 0.98753 0.0
H917 H 0.61262 0.40181 0.04064 0.0
H918 H 0.60915 0.44822 0.01693 0.0
H919 H 0.65225 0.54318 0.02758 0.0
H920 H 0.65458 0.66068 0.95278 0.0
H921 H 0.64451 0.63249 0.98195 0.0
C922 C 0.36382 0.59702 0.53156 0.0
C923 C 0.36744 0.582 0.54902 0.0
C924 C 0.37052 0.57817 0.5159 0.0
C925 C 0.38094 0.4842 0.50053 0.0
H926 H 0.39962 0.53227 0.45576 0.0
C927 C 0.38984 0.40184 0.43473 0.0
C928 C 0.37825 0.41664 0.41975 0.0
C929 C 0.39462 0.42343 0.44996 0.0
C930 C 0.39445 0.51849 0.46818 0.0
H931 H 0.38207 0.53623 0.56371 0.0
H932 H 0.39403 0.50359 0.53635 0.0
H933 H 0.39687 0.56764 0.48406 0.0
H934 H 0.36412 0.46651 0.40846 0.0
H935 H 0.37219 0.50406 0.43516 0.0
H936 H 0.37785 0.4354 0.48468 0.0
C937 C 0.3856 0.52965 0.53479 0.0
C938 C 0.39284 0.53871 0.48436 0.0
C939 C 0.3788 0.54842 0.55047 0.0
C940 C 0.37302 0.45421 0.41978 0.0
C941 C 0.37773 0.4758 0.43507 0.0
C942 C 0.38261 0.46403 0.48441 0.0
C943 C 0.3811 0.54393 0.51731 0.0
C944 C 0.38561 0.52192 0.50064 0.0
C945 C 0.38785 0.46027 0.45058 0.0
C946 C 0.38896 0.48106 0.46798 0.0
H947 H 0.35511 0.62282 0.5299 0.0
H948 H 0.36651 0.58975 0.50267 0.0
H949 H 0.37494 0.47049 0.51271 0.0
H950 H 0.39444 0.37312 0.43505 0.0
H951 H 0.40286 0.4109 0.46155 0.0
C952 C 0.87619 0.08106 0.9492 0.0
C953 C 0.87151 0.06802 0.93153 0.0
C954 C 0.88142 0.05682 0.9633 0.0
C955 C 0.87233 0.96201 0.97771 0.0
H956 H 0.91366 0.98877 0.01613 0.0
C957 C 0.87828 0.87775 0.04399 0.0
C958 C 0.87584 0.89918 0.05986 0.0
C959 C 0.88325 0.89423 0.0272 0.0
C960 C 0.90212 0.98086 0.00548 0.0
H961 H 0.86928 0.01908 0.91478 0.0
H962 H 0.87846 0.97663 0.93953 0.0
H963 H 0.91199 0.02535 0.9882 0.0
H964 H 0.87835 0.95435 0.07074 0.0
H965 H 0.88701 0.98294 0.04156 0.0
H966 H 0.86193 0.91828 -0.00477 0.0
C967 C 0.8779 0.00574 0.94241 0.0
C968 C 0.90113 0.00182 0.98951 0.0
C969 C 0.87272 0.03007 0.92823 0.0
C970 C 0.87998 0.93704 0.05878 0.0
C971 C 0.88509 0.95343 0.04205 0.0
C972 C 0.87337 0.94099 -0.00633 0.0
C973 C 0.88211 0.01886 0.96015 0.0
C974 C 0.88572 0.99331 0.9757 0.0
C975 C 0.8861 0.93238 0.02599 0.0
C976 C 0.8878 0.95085 0.00795 0.0
H977 H 0.87549 0.11008 0.95229 0.0
H978 H 0.88419 0.06785 0.97685 0.0
H979 H 0.86013 0.9549 0.96742 0.0
H980 H 0.87523 0.8485 0.0443 0.0
H981 H 0.88417 0.87727 0.01508 0.0
C982 C 0.11518 0.93421 0.42588 0.0
C983 C 0.11778 0.89593 0.42519 0.0
C984 C 0.10842 0.95133 0.442 0.0
C985 C 0.11246 0.93791 0.49106 0.0
H986 H 0.07722 0.02692 0.49285 0.0
C987 C 0.11012 0.0268 0.55579 0.0
C988 C 0.11409 0.06425 0.55258 0.0
C989 C 0.10457 0.00345 0.54136 0.0
C990 C 0.08708 0.00205 0.49257 0.0
H991 H 0.11399 0.84545 0.44064 0.0
H992 H 0.10219 0.8755 0.46881 0.0
H993 H 0.0778 0.9902 0.46494 0.0
H994 H 0.11428 0.10676 0.53177 0.0
H995 H 0.10505 0.06607 0.5067 0.0
H996 H 0.12262 0.95051 0.5183 0.0
C997 C 0.10561 0.89219 0.45688 0.0
C998 C 0.08737 0.98104 0.47662 0.0
C999 C 0.11229 0.87501 0.44072 0.0
C1000 C 0.11143 0.07808 0.53476 0.0
C1001 C 0.10592 0.05475 0.52037 0.0
C1002 C 0.11222 0.95894 0.50698 0.0
C1003 C 0.10415 0.93058 0.45781 0.0
C1004 C 0.1006 0.94935 0.47553 0.0
C1005 C 0.10288 0.01706 0.52344 0.0
C1006 C 0.10006 0.99183 0.50771 0.0
H1007 H 0.11912 0.95118 0.41416 0.0
H1008 H 0.10768 0.98099 0.44232 0.0
H1009 H 0.12305 0.91388 0.49058 0.0
H1010 H 0.11183 0.01525 0.56937 0.0
H1011 H 0.10205 0.97461 0.54419 0.0
C1012 C 0.10994 0.94378 0.05589 0.0
C1013 C 0.11174 0.90537 0.05657 0.0
C1014 C 0.10689 0.96175 0.03925 0.0
C1015 C 0.12096 0.9485 0.99124 0.0
H1016 H 0.09099 0.04195 0.98552 0.0
C1017 C 0.13152 0.03773 0.92646 0.0
C1018 C 0.136 0.07496 0.92985 0.0
C1019 C 0.12425 0.01476 0.94056 0.0
C1020 C 0.09944 0.01587 0.98692 0.0
H1021 H 0.10986 0.85558 0.04039 0.0
H1022 H 0.10432 0.88709 0.01132 0.0
H1023 H 0.08405 0.00494 0.01276 0.0
H1024 H 0.13605 0.11724 0.95075 0.0
H1025 H 0.12363 0.07715 0.97526 0.0
H1026 H 0.13691 0.95994 0.96571 0.0
C1027 C 0.10568 0.90325 0.02368 0.0
C1028 C 0.09544 0.99467 0.00249 0.0
C1029 C 0.10869 0.88521 0.04037 0.0
C1030 C 0.1328 0.08873 0.94761 0.0
C1031 C 0.12546 0.06582 0.96166 0.0
C1032 C 0.12492 0.96966 0.97566 0.0
C1033 C 0.10554 0.94176 0.02287 0.0
C1034 C 0.10664 0.96122 0.00506 0.0
C1035 C 0.12119 0.02857 0.95831 0.0
C1036 C 0.11469 0.00404 0.97359 0.0
H1037 H 0.11204 0.96019 0.0681 0.0
H1038 H 0.10702 0.99144 0.03913 0.0
H1039 H 0.13012 0.92313 -0.00711 0.0
H1040 H 0.13373 0.0262 0.91294 0.0
H1041 H 0.12097 0.9862 0.93756 0.0
C1042 C 0.87619 0.95248 0.42256 0.0
C1043 C 0.87412 0.91417 0.42373 0.0
C1044 C 0.87792 0.97369 0.43837 0.0
C1045 C 0.8863 0.97055 0.48877 0.0
H1046 H 0.84606 0.05367 0.48784 0.0
C1047 C 0.85576 0.0462 0.554 0.0
C1048 C 0.85342 0.08453 0.55291 0.0
C1049 C 0.86118 0.02573 0.53844 0.0
C1050 C 0.85764 0.03093 0.48829 0.0
H1051 H 0.87386 0.86795 0.44245 0.0
H1052 H 0.87657 0.90503 0.47002 0.0
H1053 H 0.85175 0.01792 0.46028 0.0
H1054 H 0.85578 0.13139 0.53467 0.0
H1055 H 0.86538 0.09584 0.50776 0.0
H1056 H 0.89175 0.9834 0.51702 0.0
C1057 C 0.87704 0.91867 0.45687 0.0
C1058 C 0.86096 0.01044 0.47244 0.0
C1059 C 0.87544 0.89739 0.44103 0.0
C1060 C 0.85719 0.10191 0.53602 0.0
C1061 C 0.86263 0.08151 0.52054 0.0
C1062 C 0.88296 0.99113 0.50469 0.0
C1063 C 0.87748 0.95714 0.45573 0.0
C1064 C 0.87528 0.97995 0.47247 0.0
C1065 C 0.86438 0.04315 0.52148 0.0
C1066 C 0.86853 0.02151 0.50462 0.0
H1067 H 0.87552 0.96629 0.40945 0.0
H1068 H 0.8788 0.00323 0.43701 0.0
H1069 H 0.89754 0.94735 0.4892 0.0
H1070 H 0.85299 0.03191 0.56679 0.0
H1071 H 0.86222 0.99618 0.53958 0.0
C1072 C 0.40911 0.34036 0.13719 0.0
C1073 C 0.39871 0.31974 0.12342 0.0
C1074 C 0.43159 0.33498 0.1412 0.0
C1075 C 0.48099 0.27569 0.13115 0.0
H1076 H 0.5122 0.36853 0.13331 0.0
C1077 C 0.57183 0.29728 0.10761 0.0
C1078 C 0.58479 0.3235 0.11681 0.0
C1079 C 0.54972 0.29125 0.11274 0.0
C1080 C 0.50381 0.34226 0.1331 0.0
H1081 H 0.40339 0.27536 0.10403 0.0
H1082 H 0.44259 0.26675 0.11062 0.0
H1083 H 0.472 0.36774 0.13509 0.0
H1084 H 0.58518 0.36174 0.13956 0.0
H1085 H 0.54675 0.351 0.14849 0.0
H1086 H 0.51308 0.25058 0.12823 0.0
C1087 C 0.43341 0.28673 0.11855 0.0
C1088 C 0.48067 0.34177 0.13418 0.0
C1089 C 0.41088 0.29184 0.11468 0.0
C1090 C 0.57559 0.34177 0.13196 0.0
C1091 C 0.55354 0.33568 0.13709 0.0
C1092 C 0.50422 0.27622 0.12996 0.0
C1093 C 0.44424 0.30915 0.13138 0.0
C1094 C 0.46891 0.30859 0.13286 0.0
C1095 C 0.54015 0.31124 0.12717 0.0
C1096 C 0.51584 0.30961 0.13059 0.0
H1097 H 0.40013 0.36169 0.14439 0.0
H1098 H 0.43928 0.35209 0.1515 0.0
H1099 H 0.47247 0.2496 0.13034 0.0
H1100 H 0.57841 0.28261 0.09593 0.0
H1101 H 0.53979 0.27239 0.10475 0.0
C1102 C 0.56813 0.68343 0.62693 0.0
C1103 C 0.57614 0.69425 0.60973 0.0
C1104 C 0.5469 0.69367 0.63259 0.0
C1105 C 0.49677 0.74878 0.61983 0.0
H1106 H 0.46623 0.66165 0.63682 0.0
C1107 C 0.40729 0.71157 0.60149 0.0
C1108 C 0.39554 0.68748 0.61293 0.0
C1109 C 0.42839 0.72386 0.60652 0.0
C1110 C 0.4744 0.68673 0.6326 0.0
H1111 H 0.56897 0.72619 0.58544 0.0
H1112 H 0.53136 0.74252 0.59487 0.0
H1113 H 0.50621 0.66216 0.63575 0.0
H1114 H 0.39515 0.66107 0.63948 0.0
H1115 H 0.4317 0.68338 0.64852 0.0
H1116 H 0.46448 0.7723 0.61564 0.0
C1117 C 0.54163 0.72697 0.60424 0.0
C1118 C 0.49749 0.68701 0.63198 0.0
C1119 C 0.56308 0.7173 0.59873 0.0
C1120 C 0.40416 0.6789 0.63023 0.0
C1121 C 0.42505 0.69171 0.63539 0.0
C1122 C 0.47352 0.74846 0.62042 0.0
C1123 C 0.53304 0.71421 0.62098 0.0
C1124 C 0.50895 0.7175 0.62499 0.0
C1125 C 0.43789 0.71263 0.62318 0.0
C1126 C 0.46211 0.71689 0.62622 0.0
H1127 H 0.57813 0.66639 0.63586 0.0
H1128 H 0.54098 0.68418 0.64576 0.0
H1129 H 0.50517 0.77291 0.61466 0.0
H1130 H 0.4009 0.71878 0.58811 0.0
H1131 H 0.43787 0.73977 0.59674 0.0
C1132 C 0.59025 0.69193 0.85352 0.0
C1133 C 0.59839 0.6958 0.87135 0.0
C1134 C 0.56853 0.7026 0.84934 0.0
C1135 C 0.51892 0.69671 0.84763 0.0
H1136 H 0.4848 0.75956 0.87986 0.0
C1137 C 0.43075 0.66096 0.86714 0.0
C1138 C 0.41551 0.68784 0.87277 0.0
C1139 C 0.45236 0.67051 0.86237 0.0
C1140 C 0.49397 0.74251 0.87037 0.0
H1141 H 0.59086 0.71473 0.89869 0.0
H1142 H 0.55259 0.73059 0.89196 0.0
H1143 H 0.52498 0.76468 0.87922 0.0
H1144 H 0.41068 0.74615 0.87701 0.0
H1145 H 0.4485 0.76311 0.86812 0.0
H1146 H 0.48791 0.67551 0.8383 0.0
C1147 C 0.56295 0.7211 0.88082 0.0
C1148 C 0.51715 0.74494 0.87026 0.0
C1149 C 0.58486 0.71156 0.88481 0.0
C1150 C 0.42216 0.72477 0.87291 0.0
C1151 C 0.44382 0.73446 0.86784 0.0
C1152 C 0.49578 0.69509 0.84734 0.0
C1153 C 0.55428 0.71605 0.8631 0.0
C1154 C 0.52998 0.72045 0.85974 0.0
C1155 C 0.45929 0.70732 0.86278 0.0
C1156 C 0.48309 0.71623 0.85956 0.0
H1157 H 0.60064 0.68044 0.84285 0.0
H1158 H 0.5628 0.69931 0.83542 0.0
H1159 H 0.52795 0.67738 0.83923 0.0
H1160 H 0.42624 0.63221 0.867 0.0
H1161 H 0.46386 0.64862 0.85908 0.0
C1162 C 0.58008 0.29269 0.36333 0.0
C1163 C 0.59258 0.32221 0.35646 0.0
C1164 C 0.55822 0.28708 0.35758 0.0
C1165 C 0.51156 0.34158 0.34071 0.0
H1166 H 0.48127 0.24776 0.34095 0.0
C1167 C 0.41684 0.33671 0.34214 0.0
C1168 C 0.40831 0.315 0.35642 0.0
C1169 C 0.43879 0.33234 0.33628 0.0
C1170 C 0.48952 0.27415 0.34076 0.0
H1171 H 0.59254 0.36698 0.33689 0.0
H1172 H 0.5545 0.35679 0.32664 0.0
H1173 H 0.52192 0.24965 0.34091 0.0
H1174 H 0.41567 0.26957 0.37464 0.0
H1175 H 0.45399 0.26246 0.36465 0.0
H1176 H 0.47937 0.36616 0.34135 0.0
C1177 C 0.56143 0.33857 0.33685 0.0
C1178 C 0.51277 0.27524 0.34075 0.0
C1179 C 0.58326 0.34434 0.3427 0.0
C1180 C 0.42171 0.28695 0.3637 0.0
C1181 C 0.44369 0.28268 0.35787 0.0
C1182 C 0.48839 0.34048 0.34067 0.0
C1183 C 0.54839 0.3107 0.34471 0.0
C1184 C 0.52405 0.30901 0.34132 0.0
C1185 C 0.45272 0.30625 0.34458 0.0
C1186 C 0.47708 0.30679 0.34126 0.0
H1187 H 0.58674 0.27496 0.37388 0.0
H1188 H 0.54864 0.26555 0.36406 0.0
H1189 H 0.51961 0.36808 0.34144 0.0
H1190 H 0.40689 0.3582 0.336 0.0
H1191 H 0.44514 0.35045 0.32575 0.0
C1192 C 0.90837 0.87267 0.14758 0.0
C1193 C 0.89971 0.84236 0.13809 0.0
C1194 C 0.93015 0.87195 0.15429 0.0
C1195 C 0.98026 0.81174 0.16015 0.0
H1196 H 0.01147 0.89828 0.14321 0.0
C1197 C 0.06879 0.81022 0.13094 0.0
C1198 C 0.08236 0.84133 0.13294 0.0
C1199 C 0.04739 0.80958 0.13841 0.0
C1200 C 0.00309 0.87419 0.14845 0.0
H1201 H 0.90645 0.7862 0.1299 0.0
H1202 H 0.94429 0.78532 0.14109 0.0
H1203 H 0.97125 0.8988 0.14473 0.0
H1204 H 0.08471 0.89492 0.14574 0.0
H1205 H 0.04742 0.89364 0.15874 0.0
H1206 H 0.01233 0.78652 0.16272 0.0
C1207 C 0.93436 0.80962 0.14353 0.0
C1208 C 0.97993 0.8745 0.14938 0.0
C1209 C 0.91262 0.81026 0.13693 0.0
C1210 C 0.07463 0.87067 0.1437 0.0
C1211 C 0.05323 0.87002 0.15114 0.0
C1212 C 0.00349 0.81138 0.15912 0.0
C1213 C 0.94372 0.84097 0.1516 0.0
C1214 C 0.96817 0.84286 0.15459 0.0
C1215 C 0.03911 0.84 0.14805 0.0
C1216 C 0.01509 0.84221 0.15265 0.0
H1217 H 0.8988 0.89769 0.14896 0.0
H1218 H 0.93669 0.8963 0.1608 0.0
H1219 H 0.97174 0.78713 0.16456 0.0
H1220 H 0.07422 0.78701 0.12286 0.0
H1221 H 0.03689 0.78613 0.13565 0.0
C1222 C 0.90834 0.21212 0.59797 0.0
C1223 C 0.89594 0.19058 0.61017 0.0
C1224 C 0.93039 0.22106 0.60199 0.0
C1225 C 0.97691 0.24147 0.61489 0.0
H1226 H 0.00713 0.15362 0.63145 0.0
C1227 C 0.06978 0.17201 0.6254 0.0
C1228 C 0.07893 0.18106 0.60833 0.0
C1229 C 0.04845 0.18368 0.63003 0.0
C1230 C -0.00092 0.17885 0.62729 0.0
H1231 H 0.89574 0.16495 0.63692 0.0
H1232 H 0.93394 0.18144 0.64418 0.0
H1233 H 0.9671 0.15573 0.63179 0.0
H1234 H 0.07375 0.21155 0.58324 0.0
H1235 H 0.03601 0.23059 0.59095 0.0
H1236 H 0.00928 0.2637 0.60956 0.0
C1237 C 0.92703 0.19029 0.63124 0.0
C1238 C 0.97599 0.18006 0.62748 0.0
C1239 C 0.90519 0.18081 0.62708 0.0
C1240 C 0.06699 0.20403 0.59646 0.0
C1241 C 0.04545 0.2152 0.60096 0.0
C1242 C 0.00017 0.24026 0.61471 0.0
C1243 C 0.94019 0.20901 0.61839 0.0
C1244 C 0.9646 0.21096 0.62086 0.0
C1245 C 0.03567 0.20397 0.61751 0.0
C1246 C 0.01145 0.20851 0.62047 0.0
H1247 H 0.90147 0.22015 0.58487 0.0
H1248 H 0.94011 0.2353 0.59174 0.0
H1249 H 0.96857 0.26581 0.60988 0.0
H1250 H 0.07888 0.15503 0.63499 0.0
H1251 H 0.04158 0.17537 0.64308 0.0
C1252 C 0.08798 0.22396 0.8912 0.0
C1253 C 0.0952 0.19414 0.88054 0.0
C1254 C 0.06627 0.23719 0.88955 0.0
C1255 C 0.01515 0.2315 0.8612 0.0
H1256 H 0.98487 0.22996 0.90803 0.0
C1257 C 0.92769 0.17679 0.8707 0.0
C1258 C 0.91362 0.19145 0.88418 0.0
C1259 C 0.94907 0.19059 0.86827 0.0
C1260 C 0.99304 0.23156 0.89484 0.0
H1261 H 0.08575 0.15651 0.85891 0.0
H1262 H 0.04794 0.17919 0.85625 0.0
H1263 H 0.02525 0.23066 0.9071 0.0
H1264 H 0.91059 0.23341 0.90508 0.0
H1265 H 0.94821 0.25728 0.90091 0.0
H1266 H 0.98283 0.23013 0.84899 0.0
C1267 C 0.05905 0.19256 0.86579 0.0
C1268 C 0.01622 0.23196 0.89431 0.0
C1269 C 0.08067 0.17924 0.86748 0.0
C1270 C 0.92109 0.22131 0.89467 0.0
C1271 C 0.94259 0.23501 0.89229 0.0
C1272 C 0.99196 0.23112 0.86174 0.0
C1273 C 0.05145 0.22103 0.87712 0.0
C1274 C 0.02747 0.23014 0.87749 0.0
C1275 C 0.95692 0.21931 0.87929 0.0
C1276 C 0.98073 0.22933 0.87857 0.0
H1277 H 0.09881 0.23631 0.90128 0.0
H1278 H 0.06087 0.25934 0.89836 0.0
H1279 H 0.02344 0.23081 0.84805 0.0
H1280 H 0.92241 0.15405 0.86224 0.0
H1281 H 0.95982 0.17751 0.85832 0.0
C1282 C 0.07784 0.7993 0.35351 0.0
C1283 C 0.09128 0.83025 0.35049 0.0
C1284 C 0.0561 0.79818 0.34686 0.0
C1285 C 0.01156 0.86289 0.33682 0.0
H1286 H 0.97849 0.7742 0.32629 0.0
C1287 C 0.91662 0.86358 0.34007 0.0
C1288 C 0.90801 0.83593 0.35147 0.0
C1289 C 0.93832 0.86113 0.3333 0.0
C1290 C 0.98751 0.79924 0.32911 0.0
H1291 H 0.0931 0.88273 0.33654 0.0
H1292 H 0.05524 0.88049 0.32475 0.0
H1293 H 0.01913 0.77289 0.32587 0.0
H1294 H 0.91493 0.78263 0.36345 0.0
H1295 H 0.95272 0.77874 0.35194 0.0
H1296 H 0.98015 0.88888 0.34093 0.0
C1297 C 0.06136 0.8575 0.33266 0.0
C1298 C 0.01076 0.7985 0.32888 0.0
C1299 C 0.08309 0.8587 0.33938 0.0
C1300 C 0.92104 0.80462 0.35486 0.0
C1301 C 0.94271 0.80221 0.3481 0.0
C1302 C 0.98837 0.86365 0.33702 0.0
C1303 C 0.04733 0.82789 0.33694 0.0
C1304 C 0.02304 0.83002 0.33339 0.0
C1305 C 0.95185 0.83099 0.33777 0.0
C1306 C 0.97608 0.83154 0.33382 0.0
H1307 H 0.08361 0.77674 0.36189 0.0
H1308 H 0.04574 0.77505 0.35055 0.0
H1309 H 0.02041 0.88758 0.3406 0.0
H1310 H 0.90698 0.8879 0.33699 0.0
H1311 H 0.94479 0.8835 0.32513 0.0
C1312 C 0.26922 0.30043 0.04432 0.0
C1313 C 0.28798 0.32321 0.04534 0.0
C1314 C 0.26447 0.28189 0.02815 0.0
C1315 C 0.27493 0.2752 0.9792 0.0
H1316 H 0.26948 0.17065 0.98812 0.0
C1317 C 0.25163 0.18257 0.9207 0.0
C1318 C 0.23166 0.16452 0.92496 0.0
C1319 C 0.26525 0.19554 0.93471 0.0
C1320 C 0.27114 0.19971 0.98541 0.0
H1321 H 0.31469 0.34832 0.02979 0.0
H1322 H 0.30596 0.31647 0.00136 0.0
H1323 H 0.27607 0.2122 0.01367 0.0
H1324 H 0.212 0.14067 0.94678 0.0
H1325 H 0.23552 0.16327 0.97112 0.0
H1326 H 0.26887 0.26315 0.95111 0.0
C1327 C 0.29532 0.31236 0.01315 0.0
C1328 C 0.27469 0.22346 1e-05 0.0
C1329 C 0.30023 0.33063 0.02938 0.0
C1330 C 0.22714 0.1551 0.94318 0.0
C1331 C 0.24075 0.16788 0.95713 0.0
C1332 C 0.27115 0.25148 0.96459 0.0
C1333 C 0.27819 0.28636 0.01276 0.0
C1334 C 0.27592 0.26144 -0.00294 0.0
C1335 C 0.25908 0.19033 0.95306 0.0
C1336 C 0.26851 0.21361 0.96764 0.0
H1337 H 0.25949 0.29419 0.0564 0.0
H1338 H 0.25084 0.26249 0.02796 0.0
H1339 H 0.27602 0.3044 0.97664 0.0
H1340 H 0.2556 0.18991 0.90671 0.0
H1341 H 0.27958 0.21213 0.93122 0.0
C1342 C 0.81396 0.79031 0.44882 0.0
C1343 C 0.8004 0.79431 0.43329 0.0
C1344 C 0.80569 0.7737 0.46458 0.0
C1345 C 0.76343 0.70822 0.47893 0.0
H1346 H 0.76833 0.75317 0.52678 0.0
C1347 C 0.70146 0.68398 0.53591 0.0
C1348 C 0.70844 0.68422 0.55422 0.0
C1349 C 0.71667 0.68982 0.52191 0.0
C1350 C 0.76734 0.73976 0.5136 0.0
H1351 H 0.7673 0.78547 0.42232 0.0
H1352 H 0.75285 0.75661 0.44993 0.0
H1353 H 0.78699 0.78126 0.50064 0.0
H1354 H 0.73698 0.68861 0.57223 0.0
H1355 H 0.76371 0.69921 0.54754 0.0
H1356 H 0.74325 0.66735 0.49171 0.0
C1357 C 0.76996 0.7659 0.44975 0.0
C1358 C 0.77788 0.75597 0.49866 0.0
C1359 C 0.77815 0.78279 0.43406 0.0
C1360 C 0.73114 0.68847 0.55822 0.0
C1361 C 0.74641 0.69462 0.54415 0.0
C1362 C 0.75301 0.69192 0.49386 0.0
C1363 C 0.7838 0.76057 0.46498 0.0
C1364 C 0.77529 0.74103 0.48113 0.0
C1365 C 0.73917 0.69613 0.52592 0.0
C1366 C 0.75418 0.70833 0.51118 0.0
H1367 H 0.83116 0.79916 0.44866 0.0
H1368 H 0.8166 0.77002 0.47622 0.0
H1369 H 0.76167 0.69578 0.46557 0.0
H1370 H 0.6841 0.68033 0.5324 0.0
H1371 H 0.71057 0.69129 0.508 0.0
C1372 C 0.17392 0.77877 0.03591 0.0
C1373 C 0.18796 0.78942 0.05033 0.0
C1374 C 0.18264 0.7611 0.0206 0.0
C1375 C 0.23002 0.70527 0.00665 0.0
H1376 H 0.21905 0.74225 0.95777 0.0
C1377 C 0.29182 0.69047 0.94863 0.0
C1378 C 0.28422 0.6856 0.93066 0.0
C1379 C 0.27675 0.69485 0.96288 0.0
C1380 C 0.22183 0.73097 0.97128 0.0
H1381 H 0.22218 0.79095 0.05978 0.0
H1382 H 0.23734 0.76027 0.03301 0.0
H1383 H 0.19851 0.76787 0.98357 0.0
H1384 H 0.25483 0.67983 0.91363 0.0
H1385 H 0.22845 0.68778 0.93869 0.0
H1386 H 0.2539 0.6693 -0.00549 0.0
C1387 C 0.21958 0.76518 0.03372 0.0
C1388 C 0.21016 0.74573 0.986 0.0
C1389 C 0.21093 0.78311 0.04891 0.0
C1390 C 0.26121 0.68378 0.92733 0.0
C1391 C 0.2461 0.68834 0.94162 0.0
C1392 C 0.2416 0.69041 -0.00806 0.0
C1393 C 0.20546 0.75354 0.01961 0.0
C1394 C 0.21485 0.73395 0.00384 0.0
C1395 C 0.25378 0.69448 0.95945 0.0
C1396 C 0.23824 0.70418 0.97425 0.0
H1397 H 0.15614 0.78345 0.03658 0.0
H1398 H 0.17151 0.75251 0.00979 0.0
H1399 H 0.23352 0.69529 0.02031 0.0
H1400 H 0.30944 0.69166 0.95168 0.0
H1401 H 0.28313 0.70008 0.97647 0.0
C1402 C 0.74085 0.19062 0.56455 0.0
C1403 C 0.76108 0.17295 0.56079 0.0
C1404 C 0.7274 0.20256 0.55018 0.0
C1405 C 0.72197 0.20259 0.49949 0.0
H1406 H 0.7153 0.30769 0.50587 0.0
C1407 C 0.72194 0.29792 0.43833 0.0
C1408 C 0.70269 0.31944 0.43688 0.0
C1409 C 0.72718 0.2812 0.45491 0.0
C1410 C 0.71691 0.27835 0.50399 0.0
H1411 H 0.78173 0.14921 0.53958 0.0
H1412 H 0.75846 0.1699 0.5146 0.0
H1413 H 0.72304 0.26902 0.53235 0.0
H1414 H 0.67541 0.34427 0.45187 0.0
H1415 H 0.68496 0.31563 0.48099 0.0
H1416 H 0.71694 0.21234 0.47097 0.0
C1417 C 0.75286 0.17491 0.52845 0.0
C1418 C 0.72102 0.25612 0.51912 0.0
C1419 C 0.76631 0.16328 0.54275 0.0
C1420 C 0.69027 0.3275 0.45267 0.0
C1421 C 0.69567 0.31112 0.46929 0.0
C1422 C 0.71809 0.22485 0.48437 0.0
C1423 C 0.73402 0.19659 0.53199 0.0
C1424 C 0.72428 0.21817 0.51692 0.0
C1425 C 0.71342 0.28629 0.47022 0.0
C1426 C 0.71623 0.26298 0.48645 0.0
H1427 H 0.73644 0.1982 0.57841 0.0
H1428 H 0.71274 0.21872 0.55324 0.0
H1429 H 0.72414 0.1734 0.49745 0.0
H1430 H 0.73176 0.29123 0.42636 0.0
H1431 H 0.74125 0.26265 0.45551 0.0
C1432 C 0.78787 0.80675 0.03918 0.0
C1433 C 0.80259 0.78768 0.05059 0.0
C1434 C 0.78442 0.79477 0.02128 0.0
C1435 C 0.78584 0.71417 -0.00751 0.0
H1436 H 0.78729 0.78486 0.95288 0.0
C1437 C 0.75316 0.6767 0.92152 0.0
C1438 C 0.73628 0.70127 0.91649 0.0
C1439 C 0.76822 0.68629 0.93528 0.0
C1440 C 0.78708 0.76474 0.96378 0.0
H1441 H 0.82449 0.74046 0.05271 0.0
H1442 H 0.81803 0.71928 0.02161 0.0
H1443 H 0.79821 0.80371 0.98362 0.0
H1444 H 0.72295 0.75598 0.92044 0.0
H1445 H 0.74886 0.77252 0.94427 0.0
H1446 H 0.77331 0.67582 0.97301 0.0
C1447 C 0.80949 0.74364 0.02637 0.0
C1448 C 0.79316 0.77559 0.98132 0.0
C1449 C 0.81316 0.75582 0.04411 0.0
C1450 C 0.73561 0.73631 0.92433 0.0
C1451 C 0.7507 0.74599 0.9378 0.0
C1452 C 0.77953 0.7034 0.97498 0.0
C1453 C 0.79538 0.76332 0.01474 0.0
C1454 C 0.79178 0.75072 -0.00411 0.0
C1455 C 0.76671 0.72074 0.94382 0.0
C1456 C 0.7792 0.72904 0.96065 0.0
H1457 H 0.77962 0.83143 0.04387 0.0
H1458 H 0.77317 0.81001 0.01255 0.0
H1459 H 0.78475 0.69452 0.00357 0.0
H1460 H 0.75402 0.64959 0.91552 0.0
H1461 H 0.7805 0.66641 0.93968 0.0
C1462 C 0.23015 0.1694 0.55438 0.0
C1463 C 0.20781 0.16157 0.55015 0.0
C1464 C 0.24382 0.1865 0.54151 0.0
C1465 C 0.23724 0.25286 0.50584 0.0
H1466 H 0.29644 0.22727 0.48917 0.0
C1467 C 0.27532 0.31009 0.44053 0.0
C1468 C 0.29852 0.31307 0.43899 0.0
C1469 C 0.26575 0.29699 0.45659 0.0
C1470 C 0.28013 0.23529 0.49404 0.0
H1471 H 0.18323 0.1612 0.52838 0.0
H1472 H 0.2071 0.19114 0.50608 0.0
H1473 H 0.27764 0.18815 0.51151 0.0
H1474 H 0.32974 0.30849 0.45377 0.0
H1475 H 0.31289 0.28619 0.48196 0.0
H1476 H 0.23952 0.29988 0.48854 0.0
C1477 C 0.21379 0.18474 0.51946 0.0
C1478 C 0.26936 0.21269 0.50666 0.0
C1479 C 0.20021 0.16745 0.53222 0.0
C1480 C 0.31181 0.30591 0.45441 0.0
C1481 C 0.3022 0.29295 0.47053 0.0
C1482 C 0.24806 0.27564 0.49344 0.0
C1483 C 0.23527 0.19596 0.52433 0.0
C1484 C 0.2476 0.2208 0.51217 0.0
C1485 C 0.27918 0.28693 0.4715 0.0
C1486 C 0.26935 0.26653 0.48699 0.0
H1487 H 0.23661 0.16491 0.56802 0.0
H1488 H 0.26046 0.1947 0.54543 0.0
H1489 H 0.22061 0.26003 0.51032 0.0
H1490 H 0.26457 0.31556 0.42896 0.0
H1491 H 0.24795 0.29246 0.45683 0.0
C1492 C 0.68956 0.3297 0.02527 0.0
C1493 C 0.7015 0.3286 0.0418 0.0
C1494 C 0.69763 0.31151 0.00988 0.0
C1495 C 0.72844 0.22921 0.00127 0.0
H1496 H 0.73324 0.26119 0.9509 0.0
C1497 C 0.78301 0.15996 0.94843 0.0
C1498 C 0.77815 0.16427 0.92978 0.0
C1499 C 0.76856 0.17375 0.96161 0.0
C1500 C 0.73137 0.25153 0.96482 0.0
H1501 H 0.73254 0.31184 0.05448 0.0
H1502 H 0.74655 0.28015 0.02756 0.0
H1503 H 0.72061 0.30434 0.97422 0.0
H1504 H 0.75286 0.18139 0.91037 0.0
H1505 H 0.72748 0.20505 0.93349 0.0
H1506 H 0.73925 0.17656 -0.00794 0.0
C1507 C 0.73078 0.29445 0.0267 0.0
C1508 C 0.72444 0.27639 0.97814 0.0
C1509 C 0.72284 0.31292 0.04202 0.0
C1510 C 0.75727 0.17822 0.92463 0.0
C1511 C 0.74278 0.19202 0.93785 0.0
C1512 C 0.7351 0.20427 0.98796 0.0
C1513 C 0.71766 0.29197 0.0109 0.0
C1514 C 0.72364 0.26566 -0.00349 0.0
C1515 C 0.74895 0.19188 0.95635 0.0
C1516 C 0.73732 0.21548 0.9697 0.0
H1517 H 0.67318 0.34204 0.02464 0.0
H1518 H 0.68739 0.31021 -0.00229 0.0
H1519 H 0.7273 0.22015 0.01535 0.0
H1520 H 0.7988 0.1487 0.95285 0.0
H1521 H 0.77382 0.1731 0.97576 0.0
C1522 C 0.22011 0.76602 0.43037 0.0
C1523 C 0.19868 0.78119 0.43096 0.0
C1524 C 0.228 0.74549 0.44504 0.0
C1525 C 0.20822 0.6932 0.48514 0.0
H1526 H 0.2702 0.69918 0.49925 0.0
C1527 C 0.248 0.65092 0.55393 0.0
C1528 C 0.27004 0.63856 0.55292 0.0
C1529 C 0.23636 0.65857 0.53786 0.0
C1530 C 0.25293 0.69667 0.49523 0.0
H1531 H 0.16919 0.78882 0.44766 0.0
H1532 H 0.1834 0.7542 0.47365 0.0
H1533 H 0.25671 0.73701 0.4744 0.0
H1534 H 0.2962 0.61916 0.53499 0.0
H1535 H 0.2757 0.63173 0.50694 0.0
H1536 H 0.20448 0.65387 0.50679 0.0
C1537 C 0.19375 0.75702 0.4616 0.0
C1538 C 0.24519 0.71843 0.48102 0.0
C1539 C 0.18574 0.77717 0.44683 0.0
C1540 C 0.27928 0.62925 0.53595 0.0
C1541 C 0.26759 0.63641 0.51998 0.0
C1542 C 0.21596 0.67163 0.49958 0.0
C1543 C 0.21475 0.74025 0.46067 0.0
C1544 C 0.22277 0.717 0.47583 0.0
C1545 C 0.24674 0.65357 0.52083 0.0
C1546 C 0.2384 0.67321 0.50467 0.0
H1547 H 0.23032 0.76831 0.41822 0.0
H1548 H 0.24417 0.73261 0.44383 0.0
H1549 H 0.19089 0.69113 0.48125 0.0
H1550 H 0.24066 0.65821 0.56697 0.0
H1551 H 0.22026 0.6718 0.53881 0.0
C1552 C 0.28522 0.32561 0.17341 0.0
C1553 C 0.3057 0.33837 0.16662 0.0
C1554 C 0.28317 0.31534 0.19175 0.0
C1555 C 0.2825 0.32565 0.23339 0.0
H1556 H 0.33151 0.27674 0.25783 0.0
C1557 C 0.32968 0.33843 0.305 0.0
C1558 C 0.31249 0.33423 0.31782 0.0
C1559 C 0.3262 0.32934 0.28675 0.0
C1560 C 0.31761 0.29009 0.25116 0.0
H1561 H 0.34016 0.34953 0.1736 0.0
H1562 H 0.33649 0.33206 0.20537 0.0
H1563 H 0.32968 0.27669 0.2245 0.0
H1564 H 0.27816 0.3172 0.32161 0.0
H1565 H 0.27204 0.302 0.28949 0.0
H1566 H 0.27103 0.34055 0.26009 0.0
C1567 C 0.32209 0.32957 0.19656 0.0
C1568 C 0.31655 0.29005 0.23216 0.0
C1569 C 0.32411 0.34007 0.17839 0.0
C1570 C 0.29174 0.32073 0.31203 0.0
C1571 C 0.2882 0.31201 0.2937 0.0
C1572 C 0.28351 0.32555 0.25244 0.0
C1573 C 0.30163 0.31724 0.20344 0.0
C1574 C 0.29959 0.30936 0.22313 0.0
C1575 C 0.30544 0.31617 0.28096 0.0
C1576 C 0.30165 0.30923 0.26139 0.0
H1577 H 0.27075 0.32389 0.16465 0.0
H1578 H 0.2672 0.306 0.1968 0.0
H1579 H 0.2693 0.34084 0.22674 0.0
H1580 H 0.34588 0.34853 0.30905 0.0
H1581 H 0.33964 0.33338 0.27708 0.0
C1582 C 0.64834 0.6098 0.80956 0.0
C1583 C 0.66591 0.63196 0.81578 0.0
C1584 C 0.64139 0.6117 0.79141 0.0
C1585 C 0.64284 0.67229 0.75138 0.0
H1586 H 0.63925 0.5828 0.72297 0.0
C1587 C 0.65994 0.66704 0.67506 0.0
C1588 C 0.64743 0.64343 0.66396 0.0
C1589 C 0.65665 0.6675 0.69388 0.0
C1590 C 0.63965 0.60799 0.7308 0.0
H1591 H 0.69016 0.67306 0.80772 0.0
H1592 H 0.67819 0.67599 0.77609 0.0
H1593 H 0.64405 0.57919 0.75602 0.0
H1594 H 0.62111 0.6026 0.66384 0.0
H1595 H 0.61554 0.60332 0.69686 0.0
H1596 H 0.63937 0.7011 0.72609 0.0
C1597 C 0.66957 0.65763 0.78535 0.0
C1598 C 0.64243 0.6059 0.74968 0.0
C1599 C 0.67659 0.65562 0.80342 0.0
C1600 C 0.63114 0.62093 0.67203 0.0
C1601 C 0.62792 0.62131 0.6909 0.0
C1602 C 0.64003 0.67438 0.73254 0.0
C1603 C 0.6518 0.63598 0.77924 0.0
C1604 C 0.6449 0.63805 0.75998 0.0
C1605 C 0.64081 0.64433 0.70197 0.0
C1606 C 0.63927 0.64225 0.72203 0.0
H1607 H 0.63972 0.59131 0.81877 0.0
H1608 H 0.62769 0.59468 0.78694 0.0
H1609 H 0.64425 0.69746 0.75916 0.0
H1610 H 0.67252 0.68489 0.66927 0.0
H1611 H 0.66706 0.6851 0.70216 0.0
C1612 C 0.3533 0.61816 0.81001 0.0
C1613 C 0.33887 0.64204 0.81935 0.0
C1614 C 0.35393 0.61818 0.79094 0.0
C1615 C 0.35786 0.63709 0.75014 0.0
H1616 H 0.29936 0.63498 0.72781 0.0
C1617 C 0.31376 0.64865 0.67493 0.0
C1618 C 0.3267 0.6235 0.66501 0.0
C1619 C 0.31679 0.65259 0.69367 0.0
C1620 C 0.3158 0.63607 0.73382 0.0
H1621 H 0.31499 0.68636 0.81611 0.0
H1622 H 0.31622 0.68632 0.78297 0.0
H1623 H 0.30258 0.63969 0.76082 0.0
H1624 H 0.35315 0.58304 0.66691 0.0
H1625 H 0.35805 0.58944 0.69979 0.0
H1626 H 0.37103 0.63339 0.723 0.0
C1627 C 0.32664 0.66714 0.79036 0.0
C1628 C 0.31765 0.63873 0.75269 0.0
C1629 C 0.32596 0.66709 0.80933 0.0
C1630 C 0.34289 0.60264 0.67418 0.0
C1631 C 0.34584 0.60647 0.69297 0.0
C1632 C 0.35602 0.63457 0.73117 0.0
C1633 C 0.34019 0.6421 0.78101 0.0
C1634 C 0.33866 0.63941 0.761 0.0
C1635 C 0.3327 0.6313 0.70288 0.0
C1636 C 0.33494 0.63415 0.72288 0.0
H1637 H 0.36354 0.5987 0.81738 0.0
H1638 H 0.36447 0.59854 0.78397 0.0
H1639 H 0.37423 0.63774 0.7563 0.0
H1640 H 0.30136 0.66549 0.66823 0.0
H1641 H 0.30669 0.67238 0.70096 0.0
C1642 C 0.69836 0.32709 0.16981 0.0
C1643 C 0.67727 0.33435 0.16232 0.0
C1644 C 0.70067 0.32139 0.18859 0.0
C1645 C 0.67359 0.35259 0.22945 0.0
H1646 H 0.70729 0.27909 0.25601 0.0
C1647 C 0.66423 0.34063 0.30554 0.0
C1648 C 0.68376 0.34025 0.31602 0.0
C1649 C 0.66515 0.33447 0.28687 0.0
C1650 C 0.69805 0.2999 0.24866 0.0
H1651 H 0.64191 0.33761 0.16816 0.0
H1652 H 0.646 0.32754 0.20082 0.0
H1653 H 0.70558 0.27657 0.22239 0.0
H1654 H 0.71939 0.33099 0.31549 0.0
H1655 H 0.72106 0.32113 0.2823 0.0
H1656 H 0.66609 0.37623 0.25531 0.0
C1657 C 0.66073 0.32711 0.19227 0.0
C1658 C 0.69703 0.29841 0.22956 0.0
C1659 C 0.65842 0.333 0.17362 0.0
C1660 C 0.70415 0.33176 0.30762 0.0
C1661 C 0.7051 0.32592 0.28874 0.0
C1662 C 0.67467 0.35415 0.24833 0.0
C1663 C 0.68192 0.32275 0.19997 0.0
C1664 C 0.68434 0.32433 0.21993 0.0
C1665 C 0.68563 0.32827 0.27822 0.0
C1666 C 0.68643 0.3274 0.25814 0.0
H1667 H 0.71315 0.32768 0.16134 0.0
H1668 H 0.71717 0.31808 0.19431 0.0
H1669 H 0.66424 0.37351 0.22225 0.0
H1670 H 0.64819 0.34609 0.31174 0.0
H1671 H 0.64984 0.3355 0.27908 0.0
C1672 C 0.80867 0.90655 0.17486 0.0
C1673 C 0.79762 0.88122 0.16362 0.0
C1674 C 0.80428 0.90778 0.19354 0.0
C1675 C 0.78705 0.84721 0.23022 0.0
H1676 H 0.79028 0.93635 0.25897 0.0
C1677 C 0.79145 0.84598 0.30902 0.0
C1678 C 0.80843 0.86801 0.31637 0.0
C1679 C 0.78555 0.84913 0.29065 0.0
C1680 C 0.78931 0.91126 0.25109 0.0
H1681 H 0.77235 0.8387 0.16304 0.0
H1682 H 0.76469 0.84099 0.19578 0.0
H1683 H 0.78664 0.94035 0.22578 0.0
H1684 H 0.83243 0.91074 0.31016 0.0
H1685 H 0.82225 0.91588 0.2781 0.0
H1686 H 0.79049 0.81813 0.25545 0.0
C1687 C 0.77691 0.85958 0.19007 0.0
C1688 C 0.78719 0.91354 0.23215 0.0
C1689 C 0.78127 0.85838 0.17134 0.0
C1690 C 0.81931 0.8933 0.30496 0.0
C1691 C 0.81333 0.89655 0.28664 0.0
C1692 C 0.78911 0.84494 0.24917 0.0
C1693 C 0.78874 0.88373 0.20139 0.0
C1694 C 0.78677 0.88154 0.2215 0.0
C1695 C 0.7964 0.87451 0.27932 0.0
C1696 C 0.79096 0.87695 0.25969 0.0
H1697 H 0.82125 0.92473 0.16937 0.0
H1698 H 0.81387 0.92638 0.20194 0.0
H1699 H 0.78702 0.82207 0.22235 0.0
H1700 H 0.78269 0.82625 0.31743 0.0
H1701 H 0.7724 0.83189 0.28533 0.0
C1702 C 0.14021 0.15098 0.8098 0.0
C1703 C 0.16135 0.15928 0.81686 0.0
C1704 C 0.13573 0.15588 0.79129 0.0
C1705 C 0.15706 0.19722 0.7485 0.0
H1706 H 0.13145 0.11045 0.7263 0.0
C1707 C 0.17137 0.15687 0.67366 0.0
C1708 C 0.15367 0.141 0.66395 0.0
C1709 C 0.16908 0.16491 0.69218 0.0
C1710 C 0.1382 0.13521 0.73228 0.0
H1711 H 0.19398 0.18106 0.81025 0.0
H1712 H 0.1863 0.18874 0.77783 0.0
H1713 H 0.13274 0.11549 0.75936 0.0
H1714 H 0.11946 0.12218 0.66595 0.0
H1715 H 0.11558 0.13625 0.69829 0.0
H1716 H 0.16326 0.21618 0.72126 0.0
C1717 C 0.17311 0.17894 0.78666 0.0
C1718 C 0.13891 0.13814 0.75123 0.0
C1719 C 0.17757 0.17422 0.80521 0.0
C1720 C 0.13353 0.13396 0.67308 0.0
C1721 C 0.13125 0.14206 0.69158 0.0
C1722 C 0.15637 0.19426 0.7295 0.0
C1723 C 0.15231 0.16901 0.77948 0.0
C1724 C 0.1488 0.16876 0.75952 0.0
C1725 C 0.14907 0.15729 0.70133 0.0
C1726 C 0.1474 0.16282 0.72126 0.0
H1727 H 0.12721 0.14005 0.81849 0.0
H1728 H 0.11944 0.14856 0.78614 0.0
H1729 H 0.16451 0.22133 0.75457 0.0
H1730 H 0.18707 0.16277 0.66702 0.0
H1731 H 0.18321 0.17614 0.69945 0.0
C1732 C 0.85096 0.14152 0.67523 0.0
C1733 C 0.8302 0.15361 0.66873 0.0
C1734 C 0.85728 0.14831 0.69322 0.0
C1735 C 0.84377 0.20401 0.73395 0.0
H1736 H 0.86545 0.11911 0.76046 0.0
C1737 C 0.83011 0.18136 0.8103 0.0
C1738 C 0.8462 0.16229 0.8205 0.0
C1739 C 0.8332 0.18733 0.79167 0.0
C1740 C 0.85995 0.14339 0.75321 0.0
H1741 H 0.8 0.18293 0.67591 0.0
H1742 H 0.81084 0.19393 0.70748 0.0
H1743 H 0.86115 0.11584 0.72751 0.0
H1744 H 0.87885 0.13677 0.8194 0.0
H1745 H 0.88414 0.14724 0.78677 0.0
H1746 H 0.84167 0.23095 0.75989 0.0
C1747 C 0.82237 0.17981 0.69854 0.0
C1748 C 0.85744 0.14149 0.73433 0.0
C1749 C 0.81606 0.17314 0.68051 0.0
C1750 C 0.86597 0.1511 0.81188 0.0
C1751 C 0.86905 0.15709 0.79322 0.0
C1752 C 0.84628 0.20591 0.75288 0.0
C1753 C 0.84296 0.1672 0.70509 0.0
C1754 C 0.84868 0.17138 0.7246 0.0
C1755 C 0.85243 0.17443 0.78287 0.0
C1756 C 0.85374 0.17521 0.76272 0.0
H1757 H 0.86242 0.12689 0.66643 0.0
H1758 H 0.87335 0.13863 0.69787 0.0
H1759 H 0.83737 0.22768 0.72671 0.0
H1760 H 0.81478 0.19066 0.81653 0.0
H1761 H 0.81998 0.2004 0.784 0.0
C1762 C 0.20103 0.84965 0.3078 0.0
C1763 C 0.18815 0.87459 0.31792 0.0
C1764 C 0.20348 0.85417 0.28896 0.0
C1765 C 0.21203 0.87913 0.24957 0.0
H1766 H 0.1557 0.89861 0.22563 0.0
C1767 C 0.172 0.90867 0.17374 0.0
C1768 C 0.18119 0.87931 0.16388 0.0
C1769 C 0.17599 0.91207 0.19238 0.0
C1770 C 0.17164 0.89383 0.23209 0.0
H1771 H 0.16924 0.92529 0.3166 0.0
H1772 H 0.17373 0.93326 0.28385 0.0
H1773 H 0.15746 0.89765 0.25872 0.0
H1774 H 0.20247 0.83129 0.16564 0.0
H1775 H 0.20896 0.83681 0.19839 0.0
H1776 H 0.22604 0.87461 0.22271 0.0
C1777 C 0.18145 0.9098 0.29037 0.0
C1778 C 0.17265 0.89326 0.25104 0.0
C1779 C 0.17887 0.90518 0.3091 0.0
C1780 C 0.19511 0.85417 0.17289 0.0
C1781 C 0.19897 0.85745 0.1916 0.0
C1782 C 0.21103 0.87976 0.23051 0.0
C1783 C 0.19319 0.88378 0.28006 0.0
C1784 C 0.19281 0.88585 0.25996 0.0
C1785 C 0.18906 0.88602 0.20155 0.0
C1786 C 0.19078 0.88704 0.22164 0.0
H1787 H 0.20845 0.82589 0.31427 0.0
H1788 H 0.21252 0.83363 0.28126 0.0
H1789 H 0.22778 0.87348 0.25618 0.0
H1790 H 0.16151 0.92885 0.16712 0.0
H1791 H 0.16848 0.93474 0.19969 0.0
loop_
_geom_bond_atom_site_label_1
_geom_bond_atom_site_label_2
_geom_bond_distance
_geom_bond_site_symmetry_2
_ccdc_geom_bond_type
Sc0 O3 2.025 . S
Sc0 O10 2.105 . S
Sc0 O13 2.105 . S
Sc0 O16 2.105 . S
Sc0 O19 2.105 . S
Sc1 O3 2.025 . S
Sc1 O11 2.105 . S
Sc1 O15 2.105 . S
Sc1 O17 2.105 . S
Sc1 O21 2.105 . S
Sc2 O3 2.025 . S
Sc2 O12 2.105 . S
Sc2 O14 2.105 . S
Sc2 O18 2.105 . S
Sc2 O20 2.105 . S
O3 Sc0 2.025 . S
O3 Sc1 2.025 . S
O3 Sc2 2.025 . S
C4 O10 1.268 . S
C4 O20 1.268 . S
C5 O11 1.268 . S
C5 O19 1.268 . S
C6 O12 1.268 . S
C6 O21 1.268 . S
C7 O13 1.268 . S
C7 O17 1.268 . S
C8 O14 1.268 . S
C8 O16 1.268 . S
C9 O15 1.268 . S
C9 O18 1.268 . S
O10 Sc0 2.105 . S
O10 C4 1.268 . S
O11 Sc1 2.105 . S
O11 C5 1.268 . S
O12 Sc2 2.105 . S
O12 C6 1.268 . S
O13 Sc0 2.105 . S
O13 C7 1.268 . S
O14 Sc2 2.105 . S
O14 C8 1.268 . S
O15 Sc1 2.105 . S
O15 C9 1.268 . S
O16 Sc0 2.105 . S
O16 C8 1.268 . S
O17 Sc1 2.105 . S
O17 C7 1.268 . S
O18 Sc2 2.105 . S
O18 C9 1.268 . S
O19 Sc0 2.105 . S
O19 C5 1.268 . S
O20 Sc2 2.105 . S
O20 C4 1.268 . S
O21 Sc1 2.105 . S
O21 C6 1.268 . S
Sc22 O25 2.025 . S
Sc22 O32 2.105 . S
Sc22 O35 2.105 . S
Sc22 O38 2.105 . S
Sc22 O41 2.105 . S
Sc23 O25 2.025 . S
Sc23 O33 2.105 . S
Sc23 O37 2.105 . S
Sc23 O39 2.105 . S
Sc23 O43 2.105 . S
Sc24 O25 2.025 . S
Sc24 O34 2.105 . S
Sc24 O36 2.105 . S
Sc24 O40 2.105 . S
Sc24 O42 2.105 . S
O25 Sc22 2.025 . S
O25 Sc23 2.025 . S
O25 Sc24 2.025 . S
C26 O32 1.268 . S
C26 O42 1.268 . S
C27 O33 1.268 . S
C27 O41 1.268 . S
C28 O34 1.268 . S
C28 O43 1.268 . S
C29 O35 1.268 . S
C29 O39 1.268 . S
C30 O36 1.268 . S
C30 O38 1.268 . S
C31 O37 1.268 . S
C31 O40 1.268 . S
O32 Sc22 2.105 . S
O32 C26 1.268 . S
O33 Sc23 2.105 . S
O33 C27 1.268 . S
O34 Sc24 2.105 . S
O34 C28 1.268 . S
O35 Sc22 2.105 . S
O35 C29 1.268 . S
O36 Sc24 2.105 . S
O36 C30 1.268 . S
O37 Sc23 2.105 . S
O37 C31 1.268 . S
O38 Sc22 2.105 . S
O38 C30 1.268 . S
O39 Sc23 2.105 . S
O39 C29 1.268 . S
O40 Sc24 2.105 . S
O40 C31 1.268 . S
O41 Sc22 2.105 . S
O41 C27 1.268 . S
O42 Sc24 2.105 . S
O42 C26 1.268 . S
O43 Sc23 2.105 . S
O43 C28 1.268 . S
Sc44 O47 2.025 . S
Sc44 O54 2.105 . S
Sc44 O57 2.105 . S
Sc44 O60 2.105 . S
Sc44 O63 2.105 . S
Sc45 O47 2.025 . S
Sc45 O55 2.105 . S
Sc45 O59 2.105 . S
Sc45 O61 2.105 . S
Sc45 O65 2.105 . S
Sc46 O47 2.025 . S
Sc46 O56 2.105 . S
Sc46 O58 2.105 . S
Sc46 O62 2.105 . S
Sc46 O64 2.105 . S
O47 Sc44 2.025 . S
O47 Sc45 2.025 . S
O47 Sc46 2.025 . S
C48 O54 1.268 . S
C48 O64 1.268 . S
C49 O55 1.268 . S
C49 O63 1.268 . S
C50 O56 1.268 . S
C50 O65 1.268 . S
C51 O57 1.268 . S
C51 O61 1.268 . S
C52 O58 1.268 . S
C52 O60 1.268 . S
C53 O59 1.268 . S
C53 O62 1.268 . S
O54 Sc44 2.105 . S
O54 C48 1.268 . S
O55 Sc45 2.105 . S
O55 C49 1.268 . S
O56 Sc46 2.105 . S
O56 C50 1.268 . S
O57 Sc44 2.105 . S
O57 C51 1.268 . S
O58 Sc46 2.105 . S
O58 C52 1.268 . S
O59 Sc45 2.105 . S
O59 C53 1.268 . S
O60 Sc44 2.105 . S
O60 C52 1.268 . S
O61 Sc45 2.105 . S
O61 C51 1.268 . S
O62 Sc46 2.105 . S
O62 C53 1.268 . S
O63 Sc44 2.105 . S
O63 C49 1.268 . S
O64 Sc46 2.105 . S
O64 C48 1.268 . S
O65 Sc45 2.105 . S
O65 C50 1.268 . S
Sc66 O69 2.025 . S
Sc66 O76 2.105 . S
Sc66 O79 2.105 . S
Sc66 O82 2.105 . S
Sc66 O85 2.105 . S
Sc67 O69 2.025 . S
Sc67 O77 2.105 . S
Sc67 O81 2.105 . S
Sc67 O83 2.105 . S
Sc67 O87 2.105 . S
Sc68 O69 2.025 . S
Sc68 O78 2.105 . S
Sc68 O80 2.105 . S
Sc68 O84 2.105 . S
Sc68 O86 2.105 . S
O69 Sc66 2.025 . S
O69 Sc67 2.025 . S
O69 Sc68 2.025 . S
C70 O76 1.268 . S
C70 O86 1.268 . S
C71 O77 1.268 . S
C71 O85 1.268 . S
C72 O78 1.268 . S
C72 O87 1.268 . S
C73 O79 1.268 . S
C73 O83 1.268 . S
C74 O80 1.268 . S
C74 O82 1.268 . S
C75 O81 1.268 . S
C75 O84 1.268 . S
O76 Sc66 2.105 . S
O76 C70 1.268 . S
O77 Sc67 2.105 . S
O77 C71 1.268 . S
O78 Sc68 2.105 . S
O78 C72 1.268 . S
O79 Sc66 2.105 . S
O79 C73 1.268 . S
O80 Sc68 2.105 . S
O80 C74 1.268 . S
O81 Sc67 2.105 . S
O81 C75 1.268 . S
O82 Sc66 2.105 . S
O82 C74 1.268 . S
O83 Sc67 2.105 . S
O83 C73 1.268 . S
O84 Sc68 2.105 . S
O84 C75 1.268 . S
O85 Sc66 2.105 . S
O85 C71 1.268 . S
O86 Sc68 2.105 . S
O86 C70 1.268 . S
O87 Sc67 2.105 . S
O87 C72 1.268 . S
Sc88 O91 2.025 . S
Sc88 O98 2.105 . S
Sc88 O101 2.105 . S
Sc88 O104 2.105 . S
Sc88 O107 2.105 . S
Sc89 O91 2.025 . S
Sc89 O99 2.105 . S
Sc89 O103 2.105 . S
Sc89 O105 2.105 . S
Sc89 O109 2.105 . S
Sc90 O91 2.025 . S
Sc90 O100 2.105 . S
Sc90 O102 2.105 . S
Sc90 O106 2.105 . S
Sc90 O108 2.105 . S
O91 Sc88 2.025 . S
O91 Sc89 2.025 . S
O91 Sc90 2.025 . S
C92 O98 1.268 . S
C92 O108 1.268 . S
C93 O99 1.268 . S
C93 O107 1.268 . S
C94 O100 1.268 . S
C94 O109 1.268 . S
C95 O101 1.268 . S
C95 O105 1.268 . S
C96 O102 1.268 . S
C96 O104 1.268 . S
C97 O103 1.268 . S
C97 O106 1.268 . S
O98 Sc88 2.105 . S
O98 C92 1.268 . S
O99 Sc89 2.105 . S
O99 C93 1.268 . S
O100 Sc90 2.105 . S
O100 C94 1.268 . S
O101 Sc88 2.105 . S
O101 C95 1.268 . S
O102 Sc90 2.105 . S
O102 C96 1.268 . S
O103 Sc89 2.105 . S
O103 C97 1.268 . S
O104 Sc88 2.105 . S
O104 C96 1.268 . S
O105 Sc89 2.105 . S
O105 C95 1.268 . S
O106 Sc90 2.105 . S
O106 C97 1.268 . S
O107 Sc88 2.105 . S
O107 C93 1.268 . S
O108 Sc90 2.105 . S
O108 C92 1.268 . S
O109 Sc89 2.105 . S
O109 C94 1.268 . S
Sc110 O113 2.025 . S
Sc110 O120 2.105 . S
Sc110 O123 2.105 . S
Sc110 O126 2.105 . S
Sc110 O129 2.105 . S
Sc111 O113 2.025 . S
Sc111 O121 2.105 . S
Sc111 O125 2.105 . S
Sc111 O127 2.105 . S
Sc111 O131 2.105 . S
Sc112 O113 2.025 . S
Sc112 O122 2.105 . S
Sc112 O124 2.105 . S
Sc112 O128 2.105 . S
Sc112 O130 2.105 . S
O113 Sc110 2.025 . S
O113 Sc111 2.025 . S
O113 Sc112 2.025 . S
C114 O120 1.268 . S
C114 O130 1.268 . S
C115 O121 1.268 . S
C115 O129 1.268 . S
C116 O122 1.268 . S
C116 O131 1.268 . S
C117 O123 1.268 . S
C117 O127 1.268 . S
C118 O124 1.268 . S
C118 O126 1.268 . S
C119 O125 1.268 . S
C119 O128 1.268 . S
O120 Sc110 2.105 . S
O120 C114 1.268 . S
O121 Sc111 2.105 . S
O121 C115 1.268 . S
O122 Sc112 2.105 . S
O122 C116 1.268 . S
O123 Sc110 2.105 . S
O123 C117 1.268 . S
O124 Sc112 2.105 . S
O124 C118 1.268 . S
O125 Sc111 2.105 . S
O125 C119 1.268 . S
O126 Sc110 2.105 . S
O126 C118 1.268 . S
O127 Sc111 2.105 . S
O127 C117 1.268 . S
O128 Sc112 2.105 . S
O128 C119 1.268 . S
O129 Sc110 2.105 . S
O129 C115 1.268 . S
O130 Sc112 2.105 . S
O130 C114 1.268 . S
O131 Sc111 2.105 . S
O131 C116 1.268 . S
Sc132 O135 2.025 . S
Sc132 O142 2.105 . S
Sc132 O145 2.105 . S
Sc132 O148 2.105 . S
Sc132 O151 2.105 . S
Sc133 O135 2.025 . S
Sc133 O143 2.105 . S
Sc133 O147 2.105 . S
Sc133 O149 2.105 . S
Sc133 O153 2.105 . S
Sc134 O135 2.025 . S
Sc134 O144 2.105 . S
Sc134 O146 2.105 . S
Sc134 O150 2.105 . S
Sc134 O152 2.105 . S
O135 Sc132 2.025 . S
O135 Sc133 2.025 . S
O135 Sc134 2.025 . S
C136 O142 1.268 . S
C136 O152 1.268 . S
C137 O143 1.268 . S
C137 O151 1.268 . S
C138 O144 1.268 . S
C138 O153 1.268 . S
C139 O145 1.268 . S
C139 O149 1.268 . S
C140 O146 1.268 . S
C140 O148 1.268 . S
C141 O147 1.268 . S
C141 O150 1.268 . S
O142 Sc132 2.105 . S
O142 C136 1.268 . S
O143 Sc133 2.105 . S
O143 C137 1.268 . S
O144 Sc134 2.105 . S
O144 C138 1.268 . S
O145 Sc132 2.105 . S
O145 C139 1.268 . S
O146 Sc134 2.105 . S
O146 C140 1.268 . S
O147 Sc133 2.105 . S
O147 C141 1.268 . S
O148 Sc132 2.105 . S
O148 C140 1.268 . S
O149 Sc133 2.105 . S
O149 C139 1.268 . S
O150 Sc134 2.105 . S
O150 C141 1.268 . S
O151 Sc132 2.105 . S
O151 C137 1.268 . S
O152 Sc134 2.105 . S
O152 C136 1.268 . S
O153 Sc133 2.105 . S
O153 C138 1.268 . S
Sc154 O157 2.025 . S
Sc154 O164 2.105 . S
Sc154 O167 2.105 . S
Sc154 O170 2.105 . S
Sc154 O173 2.105 . S
Sc155 O157 2.025 . S
Sc155 O165 2.105 . S
Sc155 O169 2.105 . S
Sc155 O171 2.105 . S
Sc155 O175 2.105 . S
Sc156 O157 2.025 . S
Sc156 O166 2.105 . S
Sc156 O168 2.105 . S
Sc156 O172 2.105 . S
Sc156 O174 2.105 . S
O157 Sc154 2.025 . S
O157 Sc155 2.025 . S
O157 Sc156 2.025 . S
C158 O164 1.268 . S
C158 O174 1.268 . S
C159 O165 1.268 . S
C159 O173 1.268 . S
C160 O166 1.268 . S
C160 O175 1.268 . S
C161 O167 1.268 . S
C161 O171 1.268 . S
C162 O168 1.268 . S
C162 O170 1.268 . S
C163 O169 1.268 . S
C163 O172 1.268 . S
O164 Sc154 2.105 . S
O164 C158 1.268 . S
O165 Sc155 2.105 . S
O165 C159 1.268 . S
O166 Sc156 2.105 . S
O166 C160 1.268 . S
O167 Sc154 2.105 . S
O167 C161 1.268 . S
O168 Sc156 2.105 . S
O168 C162 1.268 . S
O169 Sc155 2.105 . S
O169 C163 1.268 . S
O170 Sc154 2.105 . S
O170 C162 1.268 . S
O171 Sc155 2.105 . S
O171 C161 1.268 . S
O172 Sc156 2.105 . S
O172 C163 1.268 . S
O173 Sc154 2.105 . S
O173 C159 1.268 . S
O174 Sc156 2.105 . S
O174 C158 1.268 . S
O175 Sc155 2.105 . S
O175 C160 1.268 . S
Sc176 O179 2.025 . S
Sc176 O186 2.105 . S
Sc176 O189 2.105 . S
Sc176 O192 2.105 . S
Sc176 O195 2.105 . S
Sc177 O179 2.025 . S
Sc177 O187 2.105 . S
Sc177 O191 2.105 . S
Sc177 O193 2.105 . S
Sc177 O197 2.105 . S
Sc178 O179 2.025 . S
Sc178 O188 2.105 . S
Sc178 O190 2.105 . S
Sc178 O194 2.105 . S
Sc178 O196 2.105 . S
O179 Sc176 2.025 . S
O179 Sc177 2.025 . S
O179 Sc178 2.025 . S
C180 O186 1.268 . S
C180 O196 1.268 . S
C181 O187 1.268 . S
C181 O195 1.268 . S
C182 O188 1.268 . S
C182 O197 1.268 . S
C183 O189 1.268 . S
C183 O193 1.268 . S
C184 O190 1.268 . S
C184 O192 1.268 . S
C185 O191 1.268 . S
C185 O194 1.268 . S
O186 Sc176 2.105 . S
O186 C180 1.268 . S
O187 Sc177 2.105 . S
O187 C181 1.268 . S
O188 Sc178 2.105 . S
O188 C182 1.268 . S
O189 Sc176 2.105 . S
O189 C183 1.268 . S
O190 Sc178 2.105 . S
O190 C184 1.268 . S
O191 Sc177 2.105 . S
O191 C185 1.268 . S
O192 Sc176 2.105 . S
O192 C184 1.268 . S
O193 Sc177 2.105 . S
O193 C183 1.268 . S
O194 Sc178 2.105 . S
O194 C185 1.268 . S
O195 Sc176 2.105 . S
O195 C181 1.268 . S
O196 Sc178 2.105 . S
O196 C180 1.268 . S
O197 Sc177 2.105 . S
O197 C182 1.268 . S
Sc198 O201 2.025 . S
Sc198 O208 2.105 . S
Sc198 O211 2.105 . S
Sc198 O214 2.105 . S
Sc198 O217 2.105 . S
Sc199 O201 2.025 . S
Sc199 O209 2.105 . S
Sc199 O213 2.105 . S
Sc199 O215 2.105 . S
Sc199 O219 2.105 . S
Sc200 O201 2.025 . S
Sc200 O210 2.105 . S
Sc200 O212 2.105 . S
Sc200 O216 2.105 . S
Sc200 O218 2.105 . S
O201 Sc198 2.025 . S
O201 Sc199 2.025 . S
O201 Sc200 2.025 . S
C202 O208 1.268 . S
C202 O218 1.268 . S
C203 O209 1.268 . S
C203 O217 1.268 . S
C204 O210 1.268 . S
C204 O219 1.268 . S
C205 O211 1.268 . S
C205 O215 1.268 . S
C206 O212 1.268 . S
C206 O214 1.268 . S
C207 O213 1.268 . S
C207 O216 1.268 . S
O208 Sc198 2.105 . S
O208 C202 1.268 . S
O209 Sc199 2.105 . S
O209 C203 1.268 . S
O210 Sc200 2.105 . S
O210 C204 1.268 . S
O211 Sc198 2.105 . S
O211 C205 1.268 . S
O212 Sc200 2.105 . S
O212 C206 1.268 . S
O213 Sc199 2.105 . S
O213 C207 1.268 . S
O214 Sc198 2.105 . S
O214 C206 1.268 . S
O215 Sc199 2.105 . S
O215 C205 1.268 . S
O216 Sc200 2.105 . S
O216 C207 1.268 . S
O217 Sc198 2.105 . S
O217 C203 1.268 . S
O218 Sc200 2.105 . S
O218 C202 1.268 . S
O219 Sc199 2.105 . S
O219 C204 1.268 . S
Sc220 O223 2.025 . S
Sc220 O230 2.105 . S
Sc220 O233 2.105 . S
Sc220 O236 2.105 . S
Sc220 O239 2.105 . S
Sc221 O223 2.025 . S
Sc221 O231 2.105 . S
Sc221 O235 2.105 . S
Sc221 O237 2.105 . S
Sc221 O241 2.105 . S
Sc222 O223 2.025 . S
Sc222 O232 2.105 . S
Sc222 O234 2.105 . S
Sc222 O238 2.105 . S
Sc222 O240 2.105 . S
O223 Sc220 2.025 . S
O223 Sc221 2.025 . S
O223 Sc222 2.025 . S
C224 O230 1.268 . S
C224 O240 1.268 . S
C225 O231 1.268 . S
C225 O239 1.268 . S
C226 O232 1.268 . S
C226 O241 1.268 . S
C227 O233 1.268 . S
C227 O237 1.268 . S
C228 O234 1.268 . S
C228 O236 1.268 . S
C229 O235 1.268 . S
C229 O238 1.268 . S
O230 Sc220 2.105 . S
O230 C224 1.268 . S
O231 Sc221 2.105 . S
O231 C225 1.268 . S
O232 Sc222 2.105 . S
O232 C226 1.268 . S
O233 Sc220 2.105 . S
O233 C227 1.268 . S
O234 Sc222 2.105 . S
O234 C228 1.268 . S
O235 Sc221 2.105 . S
O235 C229 1.268 . S
O236 Sc220 2.105 . S
O236 C228 1.268 . S
O237 Sc221 2.105 . S
O237 C227 1.268 . S
O238 Sc222 2.105 . S
O238 C229 1.268 . S
O239 Sc220 2.105 . S
O239 C225 1.268 . S
O240 Sc222 2.105 . S
O240 C224 1.268 . S
O241 Sc221 2.105 . S
O241 C226 1.268 . S
Sc242 O245 2.025 . S
Sc242 O252 2.105 . S
Sc242 O255 2.105 . S
Sc242 O258 2.105 . S
Sc242 O261 2.105 . S
Sc243 O245 2.025 . S
Sc243 O253 2.105 . S
Sc243 O257 2.105 . S
Sc243 O259 2.105 . S
Sc243 O263 2.105 . S
Sc244 O245 2.025 . S
Sc244 O254 2.105 . S
Sc244 O256 2.105 . S
Sc244 O260 2.105 . S
Sc244 O262 2.105 . S
O245 Sc242 2.025 . S
O245 Sc243 2.025 . S
O245 Sc244 2.025 . S
C246 O252 1.268 . S
C246 O262 1.268 . S
C247 O253 1.268 . S
C247 O261 1.268 . S
C248 O254 1.268 . S
C248 O263 1.268 . S
C249 O255 1.268 . S
C249 O259 1.268 . S
C250 O256 1.268 . S
C250 O258 1.268 . S
C251 O257 1.268 . S
C251 O260 1.268 . S
O252 Sc242 2.105 . S
O252 C246 1.268 . S
O253 Sc243 2.105 . S
O253 C247 1.268 . S
O254 Sc244 2.105 . S
O254 C248 1.268 . S
O255 Sc242 2.105 . S
O255 C249 1.268 . S
O256 Sc244 2.105 . S
O256 C250 1.268 . S
O257 Sc243 2.105 . S
O257 C251 1.268 . S
O258 Sc242 2.105 . S
O258 C250 1.268 . S
O259 Sc243 2.105 . S
O259 C249 1.268 . S
O260 Sc244 2.105 . S
O260 C251 1.268 . S
O261 Sc242 2.105 . S
O261 C247 1.268 . S
O262 Sc244 2.105 . S
O262 C246 1.268 . S
O263 Sc243 2.105 . S
O263 C248 1.268 . S
Sc264 O267 2.025 . S
Sc264 O274 2.105 . S
Sc264 O277 2.105 . S
Sc264 O280 2.105 . S
Sc264 O283 2.105 . S
Sc265 O267 2.025 . S
Sc265 O275 2.105 . S
Sc265 O279 2.105 . S
Sc265 O281 2.105 . S
Sc265 O285 2.105 . S
Sc266 O267 2.025 . S
Sc266 O276 2.105 . S
Sc266 O278 2.105 . S
Sc266 O282 2.105 . S
Sc266 O284 2.105 . S
O267 Sc264 2.025 . S
O267 Sc265 2.025 . S
O267 Sc266 2.025 . S
C268 O274 1.268 . S
C268 O284 1.268 . S
C269 O275 1.268 . S
C269 O283 1.268 . S
C270 O276 1.268 . S
C270 O285 1.268 . S
C271 O277 1.268 . S
C271 O281 1.268 . S
C272 O278 1.268 . S
C272 O280 1.268 . S
C273 O279 1.268 . S
C273 O282 1.268 . S
O274 Sc264 2.105 . S
O274 C268 1.268 . S
O275 Sc265 2.105 . S
O275 C269 1.268 . S
O276 Sc266 2.105 . S
O276 C270 1.268 . S
O277 Sc264 2.105 . S
O277 C271 1.268 . S
O278 Sc266 2.105 . S
O278 C272 1.268 . S
O279 Sc265 2.105 . S
O279 C273 1.268 . S
O280 Sc264 2.105 . S
O280 C272 1.268 . S
O281 Sc265 2.105 . S
O281 C271 1.268 . S
O282 Sc266 2.105 . S
O282 C273 1.268 . S
O283 Sc264 2.105 . S
O283 C269 1.268 . S
O284 Sc266 2.105 . S
O284 C268 1.268 . S
O285 Sc265 2.105 . S
O285 C270 1.268 . S
Sc286 O289 2.025 . S
Sc286 O296 2.105 . S
Sc286 O299 2.105 . S
Sc286 O302 2.105 . S
Sc286 O305 2.105 . S
Sc287 O289 2.025 . S
Sc287 O297 2.105 . S
Sc287 O301 2.105 . S
Sc287 O303 2.105 . S
Sc287 O307 2.105 . S
Sc288 O289 2.025 . S
Sc288 O298 2.105 . S
Sc288 O300 2.105 . S
Sc288 O304 2.105 . S
Sc288 O306 2.105 . S
O289 Sc286 2.025 . S
O289 Sc287 2.025 . S
O289 Sc288 2.025 . S
C290 O296 1.268 . S
C290 O306 1.268 . S
C291 O297 1.268 . S
C291 O305 1.268 . S
C292 O298 1.268 . S
C292 O307 1.268 . S
C293 O299 1.268 . S
C293 O303 1.268 . S
C294 O300 1.268 . S
C294 O302 1.268 . S
C295 O301 1.268 . S
C295 O304 1.268 . S
O296 Sc286 2.105 . S
O296 C290 1.268 . S
O297 Sc287 2.105 . S
O297 C291 1.268 . S
O298 Sc288 2.105 . S
O298 C292 1.268 . S
O299 Sc286 2.105 . S
O299 C293 1.268 . S
O300 Sc288 2.105 . S
O300 C294 1.268 . S
O301 Sc287 2.105 . S
O301 C295 1.268 . S
O302 Sc286 2.105 . S
O302 C294 1.268 . S
O303 Sc287 2.105 . S
O303 C293 1.268 . S
O304 Sc288 2.105 . S
O304 C295 1.268 . S
O305 Sc286 2.105 . S
O305 C291 1.268 . S
O306 Sc288 2.105 . S
O306 C290 1.268 . S
O307 Sc287 2.105 . S
O307 C292 1.268 . S
Sc308 O311 2.025 . S
Sc308 O318 2.105 . S
Sc308 O321 2.105 . S
Sc308 O324 2.105 . S
Sc308 O327 2.105 . S
Sc309 O311 2.025 . S
Sc309 O319 2.105 . S
Sc309 O323 2.105 . S
Sc309 O325 2.105 . S
Sc309 O329 2.105 . S
Sc310 O311 2.025 . S
Sc310 O320 2.105 . S
Sc310 O322 2.105 . S
Sc310 O326 2.105 . S
Sc310 O328 2.105 . S
O311 Sc308 2.025 . S
O311 Sc309 2.025 . S
O311 Sc310 2.025 . S
C312 O318 1.268 . S
C312 O328 1.268 . S
C313 O319 1.268 . S
C313 O327 1.268 . S
C314 O320 1.268 . S
C314 O329 1.268 . S
C315 O321 1.268 . S
C315 O325 1.268 . S
C316 O322 1.268 . S
C316 O324 1.268 . S
C317 O323 1.268 . S
C317 O326 1.268 . S
O318 Sc308 2.105 . S
O318 C312 1.268 . S
O319 Sc309 2.105 . S
O319 C313 1.268 . S
O320 Sc310 2.105 . S
O320 C314 1.268 . S
O321 Sc308 2.105 . S
O321 C315 1.268 . S
O322 Sc310 2.105 . S
O322 C316 1.268 . S
O323 Sc309 2.105 . S
O323 C317 1.268 . S
O324 Sc308 2.105 . S
O324 C316 1.268 . S
O325 Sc309 2.105 . S
O325 C315 1.268 . S
O326 Sc310 2.105 . S
O326 C317 1.268 . S
O327 Sc308 2.105 . S
O327 C313 1.268 . S
O328 Sc310 2.105 . S
O328 C312 1.268 . S
O329 Sc309 2.105 . S
O329 C314 1.268 . S
Sc330 O333 2.025 . S
Sc330 O340 2.105 . S
Sc330 O343 2.105 . S
Sc330 O346 2.105 . S
Sc330 O349 2.105 . S
Sc331 O333 2.025 . S
Sc331 O341 2.105 . S
Sc331 O345 2.105 . S
Sc331 O347 2.105 . S
Sc331 O351 2.105 . S
Sc332 O333 2.025 . S
Sc332 O342 2.105 . S
Sc332 O344 2.105 . S
Sc332 O348 2.105 . S
Sc332 O350 2.105 . S
O333 Sc330 2.025 . S
O333 Sc331 2.025 . S
O333 Sc332 2.025 . S
C334 O340 1.268 . S
C334 O350 1.268 . S
C335 O341 1.268 . S
C335 O349 1.268 . S
C336 O342 1.268 . S
C336 O351 1.268 . S
C337 O343 1.268 . S
C337 O347 1.268 . S
C338 O344 1.268 . S
C338 O346 1.268 . S
C339 O345 1.268 . S
C339 O348 1.268 . S
O340 Sc330 2.105 . S
O340 C334 1.268 . S
O341 Sc331 2.105 . S
O341 C335 1.268 . S
O342 Sc332 2.105 . S
O342 C336 1.268 . S
O343 Sc330 2.105 . S
O343 C337 1.268 . S
O344 Sc332 2.105 . S
O344 C338 1.268 . S
O345 Sc331 2.105 . S
O345 C339 1.268 . S
O346 Sc330 2.105 . S
O346 C338 1.268 . S
O347 Sc331 2.105 . S
O347 C337 1.268 . S
O348 Sc332 2.105 . S
O348 C339 1.268 . S
O349 Sc330 2.105 . S
O349 C335 1.268 . S
O350 Sc332 2.105 . S
O350 C334 1.268 . S
O351 Sc331 2.105 . S
O351 C336 1.268 . S
C352 C353 1.349 . S
C352 C354 1.327 . S
C352 H377 0.950 . S
C353 C352 1.349 . S
C353 C369 1.349 . S
C354 C352 1.327 . S
C354 C373 1.429 . S
C354 H378 0.950 . S
C355 C372 1.574 . S
C355 C374 1.368 . S
C355 H379 0.949 . S
H356 C360 0.949 . S
C357 C358 1.349 . S
C357 C359 1.327 . S
C357 H380 0.950 . S
C358 C357 1.349 . S
C358 C370 1.349 . S
C359 C357 1.327 . S
C359 C375 1.429 . S
C359 H381 0.950 . S
C360 H356 0.949 . S
C360 C368 1.574 . S
C360 C376 1.368 . S
H361 C369 0.950 . S
H362 C367 0.950 . S
H363 C368 0.949 . S
H364 C370 0.950 . S
H365 C371 0.950 . S
H366 C372 0.949 . S
C367 H362 0.950 . S
C367 C369 1.327 . S
C367 C373 1.429 . S
C368 C360 1.574 . S
C368 H363 0.949 . S
C368 C374 1.368 . S
C369 C353 1.349 . S
C369 H361 0.950 . S
C369 C367 1.327 . S
C370 C358 1.349 . S
C370 H364 0.950 . S
C370 C371 1.327 . S
C371 H365 0.950 . S
C371 C370 1.327 . S
C371 C375 1.429 . S
C372 C355 1.574 . S
C372 H366 0.949 . S
C372 C376 1.368 . S
C373 C354 1.429 . S
C373 C367 1.429 . S
C373 C374 1.523 . S
C374 C355 1.368 . S
C374 C368 1.368 . S
C374 C373 1.523 . S
C375 C359 1.429 . S
C375 C371 1.429 . S
C375 C376 1.523 1_565 S
C376 C360 1.368 . S
C376 C372 1.368 . S
C376 C375 1.523 1_545 S
H377 C352 0.950 . S
H378 C354 0.950 . S
H379 C355 0.949 . S
H380 C357 0.950 . S
H381 C359 0.950 . S
C382 C383 1.349 . S
C382 C384 1.327 . S
C382 H407 0.950 . S
C383 C382 1.349 . S
C383 C399 1.349 . S
C384 C382 1.327 . S
C384 C403 1.429 . S
C384 H408 0.950 . S
C385 C402 1.574 . S
C385 C404 1.368 . S
C385 H409 0.949 . S
H386 C390 0.949 . S
C387 C388 1.349 . S
C387 C389 1.327 . S
C387 H410 0.950 . S
C388 C387 1.349 . S
C388 C400 1.349 . S
C389 C387 1.327 . S
C389 C405 1.429 . S
C389 H411 0.950 . S
C390 H386 0.949 . S
C390 C398 1.574 . S
C390 C406 1.368 . S
H391 C399 0.950 . S
H392 C397 0.950 . S
H393 C398 0.949 . S
H394 C400 0.950 . S
H395 C401 0.950 . S
H396 C402 0.949 . S
C397 H392 0.950 . S
C397 C399 1.327 . S
C397 C403 1.429 . S
C398 C390 1.574 . S
C398 H393 0.949 . S
C398 C404 1.368 . S
C399 C383 1.349 . S
C399 H391 0.950 . S
C399 C397 1.327 . S
C400 C388 1.349 . S
C400 H394 0.950 . S
C400 C401 1.327 . S
C401 H395 0.950 . S
C401 C400 1.327 . S
C401 C405 1.429 . S
C402 C385 1.574 . S
C402 H396 0.949 . S
C402 C406 1.368 . S
C403 C384 1.429 . S
C403 C397 1.429 . S
C403 C404 1.523 . S
C404 C385 1.368 . S
C404 C398 1.368 . S
C404 C403 1.523 . S
C405 C389 1.429 . S
C405 C401 1.429 . S
C405 C406 1.523 1_545 S
C406 C390 1.368 . S
C406 C402 1.368 . S
C406 C405 1.523 1_565 S
H407 C382 0.950 . S
H408 C384 0.950 . S
H409 C385 0.949 . S
H410 C387 0.950 . S
H411 C389 0.950 . S
C412 C413 1.349 . S
C412 C414 1.327 . S
C412 H437 0.950 . S
C413 C412 1.349 . S
C413 C429 1.349 . S
C414 C412 1.327 . S
C414 C433 1.429 . S
C414 H438 0.950 . S
C415 C432 1.574 . S
C415 C434 1.368 . S
C415 H439 0.949 . S
H416 C420 0.949 . S
C417 C418 1.349 . S
C417 C419 1.327 . S
C417 H440 0.950 . S
C418 C417 1.349 . S
C418 C430 1.349 . S
C419 C417 1.327 . S
C419 C435 1.429 . S
C419 H441 0.950 . S
C420 H416 0.949 . S
C420 C428 1.574 . S
C420 C436 1.368 . S
H421 C429 0.950 . S
H422 C427 0.950 . S
H423 C428 0.949 . S
H424 C430 0.950 . S
H425 C431 0.950 . S
H426 C432 0.949 . S
C427 H422 0.950 . S
C427 C429 1.327 . S
C427 C433 1.429 . S
C428 C420 1.574 . S
C428 H423 0.949 . S
C428 C434 1.368 . S
C429 C413 1.349 . S
C429 H421 0.950 . S
C429 C427 1.327 . S
C430 C418 1.349 . S
C430 H424 0.950 . S
C430 C431 1.327 . S
C431 H425 0.950 . S
C431 C430 1.327 . S
C431 C435 1.429 . S
C432 C415 1.574 . S
C432 H426 0.949 . S
C432 C436 1.368 . S
C433 C414 1.429 . S
C433 C427 1.429 . S
C433 C434 1.523 . S
C434 C415 1.368 . S
C434 C428 1.368 . S
C434 C433 1.523 . S
C435 C419 1.429 . S
C435 C431 1.429 . S
C435 C436 1.523 1_545 S
C436 C420 1.368 . S
C436 C432 1.368 . S
C436 C435 1.523 1_565 S
H437 C412 0.950 . S
H438 C414 0.950 . S
H439 C415 0.949 . S
H440 C417 0.950 . S
H441 C419 0.950 . S
C442 C443 1.349 . S
C442 C444 1.327 . S
C442 H467 0.950 . S
C443 C442 1.349 . S
C443 C459 1.349 . S
C444 C442 1.327 . S
C444 C463 1.429 . S
C444 H468 0.950 . S
C445 C462 1.574 . S
C445 C464 1.368 . S
C445 H469 0.949 . S
H446 C450 0.949 . S
C447 C448 1.349 . S
C447 C449 1.327 . S
C447 H470 0.950 . S
C448 C447 1.349 . S
C448 C460 1.349 . S
C449 C447 1.327 . S
C449 C465 1.429 . S
C449 H471 0.950 . S
C450 H446 0.949 . S
C450 C458 1.574 . S
C450 C466 1.368 . S
H451 C459 0.950 . S
H452 C457 0.950 . S
H453 C458 0.949 . S
H454 C460 0.950 . S
H455 C461 0.950 . S
H456 C462 0.949 . S
C457 H452 0.950 . S
C457 C459 1.327 . S
C457 C463 1.429 . S
C458 C450 1.574 . S
C458 H453 0.949 . S
C458 C464 1.368 . S
C459 C443 1.349 . S
C459 H451 0.950 . S
C459 C457 1.327 . S
C460 C448 1.349 . S
C460 H454 0.950 . S
C460 C461 1.327 . S
C461 H455 0.950 . S
C461 C460 1.327 . S
C461 C465 1.429 . S
C462 C445 1.574 . S
C462 H456 0.949 . S
C462 C466 1.368 . S
C463 C444 1.429 . S
C463 C457 1.429 . S
C463 C464 1.523 1_565 S
C464 C445 1.368 . S
C464 C458 1.368 . S
C464 C463 1.523 1_545 S
C465 C449 1.429 . S
C465 C461 1.429 . S
C465 C466 1.523 . S
C466 C450 1.368 . S
C466 C462 1.368 . S
C466 C465 1.523 . S
H467 C442 0.950 . S
H468 C444 0.950 . S
H469 C445 0.949 . S
H470 C447 0.950 . S
H471 C449 0.950 . S
C472 C473 1.349 . S
C472 C474 1.327 . S
C472 H497 0.950 . S
C473 C472 1.349 . S
C473 C489 1.349 . S
C474 C472 1.327 . S
C474 C493 1.429 . S
C474 H498 0.950 . S
C475 C492 1.574 . S
C475 C494 1.368 . S
C475 H499 0.949 . S
H476 C480 0.949 . S
C477 C478 1.349 . S
C477 C479 1.327 . S
C477 H500 0.950 . S
C478 C477 1.349 . S
C478 C490 1.349 . S
C479 C477 1.327 . S
C479 C495 1.429 . S
C479 H501 0.950 . S
C480 H476 0.949 . S
C480 C488 1.574 . S
C480 C496 1.368 . S
H481 C489 0.950 . S
H482 C487 0.950 . S
H483 C488 0.949 . S
H484 C490 0.950 . S
H485 C491 0.950 . S
H486 C492 0.949 . S
C487 H482 0.950 . S
C487 C489 1.327 . S
C487 C493 1.429 . S
C488 C480 1.574 . S
C488 H483 0.949 . S
C488 C494 1.368 . S
C489 C473 1.349 . S
C489 H481 0.950 . S
C489 C487 1.327 . S
C490 C478 1.349 . S
C490 H484 0.950 . S
C490 C491 1.327 . S
C491 H485 0.950 . S
C491 C490 1.327 . S
C491 C495 1.429 . S
C492 C475 1.574 . S
C492 H486 0.949 . S
C492 C496 1.368 . S
C493 C474 1.429 . S
C493 C487 1.429 . S
C493 C494 1.523 1_545 S
C494 C475 1.368 . S
C494 C488 1.368 . S
C494 C493 1.523 1_565 S
C495 C479 1.429 . S
C495 C491 1.429 . S
C495 C496 1.523 . S
C496 C480 1.368 . S
C496 C492 1.368 . S
C496 C495 1.523 . S
H497 C472 0.950 . S
H498 C474 0.950 . S
H499 C475 0.949 . S
H500 C477 0.950 . S
H501 C479 0.950 . S
C502 C503 1.349 . S
C502 C504 1.327 . S
C502 H527 0.950 . S
C503 C502 1.349 . S
C503 C519 1.349 . S
C504 C502 1.327 . S
C504 C523 1.429 . S
C504 H528 0.950 . S
C505 C522 1.574 . S
C505 C524 1.368 . S
C505 H529 0.949 . S
H506 C510 0.949 . S
C507 C508 1.349 . S
C507 C509 1.327 . S
C507 H530 0.950 . S
C508 C507 1.349 . S
C508 C520 1.349 . S
C509 C507 1.327 . S
C509 C525 1.429 . S
C509 H531 0.950 . S
C510 H506 0.949 . S
C510 C518 1.574 . S
C510 C526 1.368 . S
H511 C519 0.950 . S
H512 C517 0.950 . S
H513 C518 0.949 . S
H514 C520 0.950 . S
H515 C521 0.950 . S
H516 C522 0.949 . S
C517 H512 0.950 . S
C517 C519 1.327 . S
C517 C523 1.429 . S
C518 C510 1.574 . S
C518 H513 0.949 . S
C518 C524 1.368 . S
C519 C503 1.349 . S
C519 H511 0.950 . S
C519 C517 1.327 . S
C520 C508 1.349 . S
C520 H514 0.950 . S
C520 C521 1.327 . S
C521 H515 0.950 . S
C521 C520 1.327 . S
C521 C525 1.429 . S
C522 C505 1.574 . S
C522 H516 0.949 . S
C522 C526 1.368 . S
C523 C504 1.429 . S
C523 C517 1.429 . S
C523 C524 1.523 1_565 S
C524 C505 1.368 . S
C524 C518 1.368 . S
C524 C523 1.523 1_545 S
C525 C509 1.429 . S
C525 C521 1.429 . S
C525 C526 1.523 . S
C526 C510 1.368 . S
C526 C522 1.368 . S
C526 C525 1.523 . S
H527 C502 0.950 . S
H528 C504 0.950 . S
H529 C505 0.949 . S
H530 C507 0.950 . S
H531 C509 0.950 . S
C532 C533 1.349 . S
C532 C534 1.327 . S
C532 H557 0.950 . S
C533 C532 1.349 . S
C533 C549 1.349 . S
C534 C532 1.327 . S
C534 C553 1.429 . S
C534 H558 0.950 . S
C535 C552 1.574 . S
C535 C554 1.368 . S
C535 H559 0.949 . S
H536 C540 0.949 . S
C537 C538 1.349 . S
C537 C539 1.327 . S
C537 H560 0.950 . S
C538 C537 1.349 . S
C538 C550 1.349 . S
C539 C537 1.327 . S
C539 C555 1.429 . S
C539 H561 0.950 . S
C540 H536 0.949 . S
C540 C548 1.574 . S
C540 C556 1.368 . S
H541 C549 0.950 . S
H542 C547 0.950 . S
H543 C548 0.949 . S
H544 C550 0.950 . S
H545 C551 0.950 . S
H546 C552 0.949 . S
C547 H542 0.950 . S
C547 C549 1.327 . S
C547 C553 1.429 . S
C548 C540 1.574 . S
C548 H543 0.949 . S
C548 C554 1.368 . S
C549 C533 1.349 . S
C549 H541 0.950 . S
C549 C547 1.327 . S
C550 C538 1.349 . S
C550 H544 0.950 . S
C550 C551 1.327 . S
C551 H545 0.950 . S
C551 C550 1.327 . S
C551 C555 1.429 . S
C552 C535 1.574 . S
C552 H546 0.949 . S
C552 C556 1.368 . S
C553 C534 1.429 . S
C553 C547 1.429 . S
C553 C554 1.523 1_565 S
C554 C535 1.368 . S
C554 C548 1.368 . S
C554 C553 1.523 1_545 S
C555 C539 1.429 . S
C555 C551 1.429 . S
C555 C556 1.523 . S
C556 C540 1.368 . S
C556 C552 1.368 . S
C556 C555 1.523 . S
H557 C532 0.950 . S
H558 C534 0.950 . S
H559 C535 0.949 . S
H560 C537 0.950 . S
H561 C539 0.950 . S
C562 C563 1.349 . S
C562 C564 1.327 . S
C562 H587 0.950 . S
C563 C562 1.349 . S
C563 C579 1.349 . S
C564 C562 1.327 . S
C564 C583 1.429 . S
C564 H588 0.950 . S
C565 C582 1.574 . S
C565 C584 1.368 . S
C565 H589 0.949 . S
H566 C570 0.949 . S
C567 C568 1.349 . S
C567 C569 1.327 . S
C567 H590 0.950 . S
C568 C567 1.349 . S
C568 C580 1.349 . S
C569 C567 1.327 . S
C569 C585 1.429 . S
C569 H591 0.950 . S
C570 H566 0.949 . S
C570 C578 1.574 . S
C570 C586 1.368 . S
H571 C579 0.950 . S
H572 C577 0.950 . S
H573 C578 0.949 . S
H574 C580 0.950 . S
H575 C581 0.950 . S
H576 C582 0.949 . S
C577 H572 0.950 . S
C577 C579 1.327 . S
C577 C583 1.429 . S
C578 C570 1.574 . S
C578 H573 0.949 . S
C578 C584 1.368 . S
C579 C563 1.349 . S
C579 H571 0.950 . S
C579 C577 1.327 . S
C580 C568 1.349 . S
C580 H574 0.950 . S
C580 C581 1.327 . S
C581 H575 0.950 . S
C581 C580 1.327 . S
C581 C585 1.429 . S
C582 C565 1.574 . S
C582 H576 0.949 . S
C582 C586 1.368 . S
C583 C564 1.429 . S
C583 C577 1.429 . S
C583 C584 1.523 1_545 S
C584 C565 1.368 . S
C584 C578 1.368 . S
C584 C583 1.523 1_565 S
C585 C569 1.429 . S
C585 C581 1.429 . S
C585 C586 1.523 . S
C586 C570 1.368 . S
C586 C582 1.368 . S
C586 C585 1.523 . S
H587 C562 0.950 . S
H588 C564 0.950 . S
H589 C565 0.949 . S
H590 C567 0.950 . S
H591 C569 0.950 . S
C592 C593 1.349 . S
C592 C594 1.327 . S
C592 H617 0.950 . S
C593 C592 1.349 . S
C593 C609 1.349 . S
C594 C592 1.327 . S
C594 C613 1.429 . S
C594 H618 0.950 . S
C595 C612 1.574 . S
C595 C614 1.368 . S
C595 H619 0.949 . S
H596 C600 0.949 . S
C597 C598 1.349 . S
C597 C599 1.327 . S
C597 H620 0.950 . S
C598 C597 1.349 . S
C598 C610 1.349 . S
C599 C597 1.327 . S
C599 C615 1.429 . S
C599 H621 0.950 . S
C600 H596 0.949 . S
C600 C608 1.574 . S
C600 C616 1.368 . S
H601 C609 0.950 . S
H602 C607 0.950 . S
H603 C608 0.949 . S
H604 C610 0.950 . S
H605 C611 0.950 . S
H606 C612 0.949 . S
C607 H602 0.950 . S
C607 C609 1.327 . S
C607 C613 1.429 . S
C608 C600 1.574 . S
C608 H603 0.949 . S
C608 C614 1.368 . S
C609 C593 1.349 . S
C609 H601 0.950 . S
C609 C607 1.327 . S
C610 C598 1.349 . S
C610 H604 0.950 . S
C610 C611 1.327 . S
C611 H605 0.950 . S
C611 C610 1.327 . S
C611 C615 1.429 . S
C612 C595 1.574 . S
C612 H606 0.949 . S
C612 C616 1.368 . S
C613 C594 1.429 . S
C613 C607 1.429 . S
C613 C614 1.523 . S
C614 C595 1.368 . S
C614 C608 1.368 . S
C614 C613 1.523 . S
C615 C599 1.429 . S
C615 C611 1.429 . S
C615 C616 1.523 . S
C616 C600 1.368 . S
C616 C612 1.368 . S
C616 C615 1.523 . S
H617 C592 0.950 . S
H618 C594 0.950 . S
H619 C595 0.949 . S
H620 C597 0.950 . S
H621 C599 0.950 . S
C622 C623 1.349 . S
C622 C624 1.327 . S
C622 H647 0.950 . S
C623 C622 1.349 . S
C623 C639 1.349 . S
C624 C622 1.327 . S
C624 C643 1.429 . S
C624 H648 0.950 . S
C625 C642 1.574 . S
C625 C644 1.368 . S
C625 H649 0.949 . S
H626 C630 0.949 . S
C627 C628 1.349 . S
C627 C629 1.327 . S
C627 H650 0.950 . S
C628 C627 1.349 . S
C628 C640 1.349 . S
C629 C627 1.327 . S
C629 C645 1.429 . S
C629 H651 0.950 . S
C630 H626 0.949 . S
C630 C638 1.574 . S
C630 C646 1.368 . S
H631 C639 0.950 . S
H632 C637 0.950 . S
H633 C638 0.949 . S
H634 C640 0.950 . S
H635 C641 0.950 . S
H636 C642 0.949 . S
C637 H632 0.950 . S
C637 C639 1.327 . S
C637 C643 1.429 . S
C638 C630 1.574 . S
C638 H633 0.949 . S
C638 C644 1.368 . S
C639 C623 1.349 . S
C639 H631 0.950 . S
C639 C637 1.327 . S
C640 C628 1.349 . S
C640 H634 0.950 . S
C640 C641 1.327 . S
C641 H635 0.950 . S
C641 C640 1.327 . S
C641 C645 1.429 . S
C642 C625 1.574 . S
C642 H636 0.949 . S
C642 C646 1.368 . S
C643 C624 1.429 . S
C643 C637 1.429 . S
C643 C644 1.523 . S
C644 C625 1.368 . S
C644 C638 1.368 . S
C644 C643 1.523 . S
C645 C629 1.429 . S
C645 C641 1.429 . S
C645 C646 1.523 . S
C646 C630 1.368 . S
C646 C642 1.368 . S
C646 C645 1.523 . S
H647 C622 0.950 . S
H648 C624 0.950 . S
H649 C625 0.949 . S
H650 C627 0.950 . S
H651 C629 0.950 . S
C652 C653 1.349 . S
C652 C654 1.327 . S
C652 H677 0.950 . S
C653 C652 1.349 . S
C653 C669 1.349 . S
C654 C652 1.327 . S
C654 C673 1.429 . S
C654 H678 0.950 . S
C655 C672 1.574 . S
C655 C674 1.368 . S
C655 H679 0.949 . S
H656 C660 0.949 . S
C657 C658 1.349 . S
C657 C659 1.327 . S
C657 H680 0.950 . S
C658 C657 1.349 . S
C658 C670 1.349 . S
C659 C657 1.327 . S
C659 C675 1.429 . S
C659 H681 0.950 . S
C660 H656 0.949 . S
C660 C668 1.574 . S
C660 C676 1.368 . S
H661 C669 0.950 . S
H662 C667 0.950 . S
H663 C668 0.949 . S
H664 C670 0.950 . S
H665 C671 0.950 . S
H666 C672 0.949 . S
C667 H662 0.950 . S
C667 C669 1.327 . S
C667 C673 1.429 . S
C668 C660 1.574 . S
C668 H663 0.949 . S
C668 C674 1.368 . S
C669 C653 1.349 . S
C669 H661 0.950 . S
C669 C667 1.327 . S
C670 C658 1.349 . S
C670 H664 0.950 . S
C670 C671 1.327 . S
C671 H665 0.950 . S
C671 C670 1.327 . S
C671 C675 1.429 . S
C672 C655 1.574 . S
C672 H666 0.949 . S
C672 C676 1.368 . S
C673 C654 1.429 . S
C673 C667 1.429 . S
C673 C674 1.523 . S
C674 C655 1.368 . S
C674 C668 1.368 . S
C674 C673 1.523 . S
C675 C659 1.429 . S
C675 C671 1.429 . S
C675 C676 1.523 . S
C676 C660 1.368 . S
C676 C672 1.368 . S
C676 C675 1.523 . S
H677 C652 0.950 . S
H678 C654 0.950 . S
H679 C655 0.949 . S
H680 C657 0.950 . S
H681 C659 0.950 . S
C682 C683 1.349 . S
C682 C684 1.327 . S
C682 H707 0.950 . S
C683 C682 1.349 . S
C683 C699 1.349 . S
C684 C682 1.327 . S
C684 C703 1.429 . S
C684 H708 0.950 . S
C685 C702 1.574 . S
C685 C704 1.368 . S
C685 H709 0.949 . S
H686 C690 0.949 . S
C687 C688 1.349 . S
C687 C689 1.327 . S
C687 H710 0.950 . S
C688 C687 1.349 . S
C688 C700 1.349 . S
C689 C687 1.327 . S
C689 C705 1.429 . S
C689 H711 0.950 . S
C690 H686 0.949 . S
C690 C698 1.574 . S
C690 C706 1.368 . S
H691 C699 0.950 . S
H692 C697 0.950 . S
H693 C698 0.949 . S
H694 C700 0.950 . S
H695 C701 0.950 . S
H696 C702 0.949 . S
C697 H692 0.950 . S
C697 C699 1.327 . S
C697 C703 1.429 . S
C698 C690 1.574 . S
C698 H693 0.949 . S
C698 C704 1.368 . S
C699 C683 1.349 . S
C699 H691 0.950 . S
C699 C697 1.327 . S
C700 C688 1.349 . S
C700 H694 0.950 . S
C700 C701 1.327 . S
C701 H695 0.950 . S
C701 C700 1.327 . S
C701 C705 1.429 . S
C702 C685 1.574 . S
C702 H696 0.949 . S
C702 C706 1.368 . S
C703 C684 1.429 . S
C703 C697 1.429 . S
C703 C704 1.523 . S
C704 C685 1.368 . S
C704 C698 1.368 . S
C704 C703 1.523 . S
C705 C689 1.429 . S
C705 C701 1.429 . S
C705 C706 1.523 . S
C706 C690 1.368 . S
C706 C702 1.368 . S
C706 C705 1.523 . S
H707 C682 0.950 . S
H708 C684 0.950 . S
H709 C685 0.949 . S
H710 C687 0.950 . S
H711 C689 0.950 . S
C712 C713 1.349 . S
C712 C714 1.327 . S
C712 H737 0.950 . S
C713 C712 1.349 . S
C713 C729 1.349 . S
C714 C712 1.327 . S
C714 C733 1.429 . S
C714 H738 0.950 . S
C715 C732 1.574 . S
C715 C734 1.368 . S
C715 H739 0.949 . S
H716 C720 0.949 . S
C717 C718 1.349 . S
C717 C719 1.327 . S
C717 H740 0.950 . S
C718 C717 1.349 . S
C718 C730 1.349 . S
C719 C717 1.327 . S
C719 C735 1.429 . S
C719 H741 0.950 . S
C720 H716 0.949 . S
C720 C728 1.574 . S
C720 C736 1.368 . S
H721 C729 0.950 . S
H722 C727 0.950 . S
H723 C728 0.949 . S
H724 C730 0.950 . S
H725 C731 0.950 . S
H726 C732 0.949 . S
C727 H722 0.950 . S
C727 C729 1.327 . S
C727 C733 1.429 . S
C728 C720 1.574 . S
C728 H723 0.949 . S
C728 C734 1.368 . S
C729 C713 1.349 . S
C729 H721 0.950 . S
C729 C727 1.327 . S
C730 C718 1.349 . S
C730 H724 0.950 . S
C730 C731 1.327 . S
C731 H725 0.950 . S
C731 C730 1.327 . S
C731 C735 1.429 . S
C732 C715 1.574 . S
C732 H726 0.949 . S
C732 C736 1.368 . S
C733 C714 1.429 . S
C733 C727 1.429 . S
C733 C734 1.523 . S
C734 C715 1.368 . S
C734 C728 1.368 . S
C734 C733 1.523 . S
C735 C719 1.429 . S
C735 C731 1.429 . S
C735 C736 1.523 . S
C736 C720 1.368 . S
C736 C732 1.368 . S
C736 C735 1.523 . S
H737 C712 0.950 . S
H738 C714 0.950 . S
H739 C715 0.949 . S
H740 C717 0.950 . S
H741 C719 0.950 . S
C742 C743 1.349 . S
C742 C744 1.327 . S
C742 H767 0.950 . S
C743 C742 1.349 . S
C743 C759 1.349 . S
C744 C742 1.327 . S
C744 C763 1.429 . S
C744 H768 0.950 . S
C745 C762 1.574 . S
C745 C764 1.368 . S
C745 H769 0.949 . S
H746 C750 0.949 . S
C747 C748 1.349 . S
C747 C749 1.327 . S
C747 H770 0.950 . S
C748 C747 1.349 . S
C748 C760 1.349 . S
C749 C747 1.327 . S
C749 C765 1.429 . S
C749 H771 0.950 . S
C750 H746 0.949 . S
C750 C758 1.574 . S
C750 C766 1.368 . S
H751 C759 0.950 . S
H752 C757 0.950 . S
H753 C758 0.949 . S
H754 C760 0.950 . S
H755 C761 0.950 . S
H756 C762 0.949 . S
C757 H752 0.950 . S
C757 C759 1.327 . S
C757 C763 1.429 . S
C758 C750 1.574 . S
C758 H753 0.949 . S
C758 C764 1.368 . S
C759 C743 1.349 . S
C759 H751 0.950 . S
C759 C757 1.327 . S
C760 C748 1.349 . S
C760 H754 0.950 . S
C760 C761 1.327 . S
C761 H755 0.950 . S
C761 C760 1.327 . S
C761 C765 1.429 . S
C762 C745 1.574 . S
C762 H756 0.949 . S
C762 C766 1.368 . S
C763 C744 1.429 . S
C763 C757 1.429 . S
C763 C764 1.523 . S
C764 C745 1.368 . S
C764 C758 1.368 . S
C764 C763 1.523 . S
C765 C749 1.429 . S
C765 C761 1.429 . S
C765 C766 1.523 . S
C766 C750 1.368 . S
C766 C762 1.368 . S
C766 C765 1.523 . S
H767 C742 0.950 . S
H768 C744 0.950 . S
H769 C745 0.949 . S
H770 C747 0.950 . S
H771 C749 0.950 . S
C772 C773 1.349 . S
C772 C774 1.327 . S
C772 H797 0.950 . S
C773 C772 1.349 . S
C773 C789 1.349 . S
C774 C772 1.327 . S
C774 C793 1.429 . S
C774 H798 0.950 . S
C775 C792 1.574 . S
C775 C794 1.368 . S
C775 H799 0.949 . S
H776 C780 0.949 . S
C777 C778 1.349 . S
C777 C779 1.327 . S
C777 H800 0.950 . S
C778 C777 1.349 . S
C778 C790 1.349 . S
C779 C777 1.327 . S
C779 C795 1.429 . S
C779 H801 0.950 . S
C780 H776 0.949 . S
C780 C788 1.574 . S
C780 C796 1.368 . S
H781 C789 0.950 . S
H782 C787 0.950 . S
H783 C788 0.949 . S
H784 C790 0.950 . S
H785 C791 0.950 . S
H786 C792 0.949 . S
C787 H782 0.950 . S
C787 C789 1.327 . S
C787 C793 1.429 . S
C788 C780 1.574 . S
C788 H783 0.949 . S
C788 C794 1.368 . S
C789 C773 1.349 . S
C789 H781 0.950 . S
C789 C787 1.327 . S
C790 C778 1.349 . S
C790 H784 0.950 . S
C790 C791 1.327 . S
C791 H785 0.950 . S
C791 C790 1.327 . S
C791 C795 1.429 . S
C792 C775 1.574 . S
C792 H786 0.949 . S
C792 C796 1.368 . S
C793 C774 1.429 . S
C793 C787 1.429 . S
C793 C794 1.523 . S
C794 C775 1.368 . S
C794 C788 1.368 . S
C794 C793 1.523 . S
C795 C779 1.429 . S
C795 C791 1.429 . S
C795 C796 1.523 . S
C796 C780 1.368 . S
C796 C792 1.368 . S
C796 C795 1.523 . S
H797 C772 0.950 . S
H798 C774 0.950 . S
H799 C775 0.949 . S
H800 C777 0.950 . S
H801 C779 0.950 . S
C802 C803 1.349 . S
C802 C804 1.327 . S
C802 H827 0.950 . S
C803 C802 1.349 . S
C803 C819 1.349 . S
C804 C802 1.327 . S
C804 C823 1.429 . S
C804 H828 0.950 . S
C805 C822 1.574 . S
C805 C824 1.368 . S
C805 H829 0.949 . S
H806 C810 0.949 . S
C807 C808 1.349 . S
C807 C809 1.327 . S
C807 H830 0.950 . S
C808 C807 1.349 . S
C808 C820 1.349 . S
C809 C807 1.327 . S
C809 C825 1.429 . S
C809 H831 0.950 . S
C810 H806 0.949 . S
C810 C818 1.574 . S
C810 C826 1.368 . S
H811 C819 0.950 . S
H812 C817 0.950 . S
H813 C818 0.949 . S
H814 C820 0.950 . S
H815 C821 0.950 . S
H816 C822 0.949 . S
C817 H812 0.950 . S
C817 C819 1.327 . S
C817 C823 1.429 . S
C818 C810 1.574 . S
C818 H813 0.949 . S
C818 C824 1.368 . S
C819 C803 1.349 . S
C819 H811 0.950 . S
C819 C817 1.327 . S
C820 C808 1.349 . S
C820 H814 0.950 . S
C820 C821 1.327 . S
C821 H815 0.950 . S
C821 C820 1.327 . S
C821 C825 1.429 . S
C822 C805 1.574 . S
C822 H816 0.949 . S
C822 C826 1.368 . S
C823 C804 1.429 . S
C823 C817 1.429 . S
C823 C824 1.523 . S
C824 C805 1.368 . S
C824 C818 1.368 . S
C824 C823 1.523 . S
C825 C809 1.429 . S
C825 C821 1.429 . S
C825 C826 1.523 . S
C826 C810 1.368 . S
C826 C822 1.368 . S
C826 C825 1.523 . S
H827 C802 0.950 . S
H828 C804 0.950 . S
H829 C805 0.949 . S
H830 C807 0.950 . S
H831 C809 0.950 . S
C832 C833 1.349 . S
C832 C834 1.327 . S
C832 H857 0.950 . S
C833 C832 1.349 . S
C833 C849 1.349 . S
C834 C832 1.327 . S
C834 C853 1.429 . S
C834 H858 0.950 . S
C835 C852 1.574 . S
C835 C854 1.368 1_556 S
C835 H859 0.949 . S
H836 C840 0.949 . S
C837 C838 1.349 . S
C837 C839 1.327 . S
C837 H860 0.950 . S
C838 C837 1.349 . S
C838 C850 1.349 . S
C839 C837 1.327 . S
C839 C855 1.429 . S
C839 H861 0.950 . S
C840 H836 0.949 . S
C840 C848 1.574 . S
C840 C856 1.368 1_554 S
H841 C849 0.950 . S
H842 C847 0.950 . S
H843 C848 0.949 . S
H844 C850 0.950 . S
H845 C851 0.950 . S
H846 C852 0.949 . S
C847 H842 0.950 . S
C847 C849 1.327 . S
C847 C853 1.429 . S
C848 C840 1.574 . S
C848 H843 0.949 . S
C848 C854 1.368 . S
C849 C833 1.349 . S
C849 H841 0.950 . S
C849 C847 1.327 . S
C850 C838 1.349 . S
C850 H844 0.950 . S
C850 C851 1.327 . S
C851 H845 0.950 . S
C851 C850 1.327 . S
C851 C855 1.429 . S
C852 C835 1.574 . S
C852 H846 0.949 . S
C852 C856 1.368 . S
C853 C834 1.429 . S
C853 C847 1.429 . S
C853 C854 1.523 . S
C854 C835 1.368 1_554 S
C854 C848 1.368 . S
C854 C853 1.523 . S
C855 C839 1.429 . S
C855 C851 1.429 . S
C855 C856 1.523 . S
C856 C840 1.368 1_556 S
C856 C852 1.368 . S
C856 C855 1.523 . S
H857 C832 0.950 . S
H858 C834 0.950 . S
H859 C835 0.949 . S
H860 C837 0.950 . S
H861 C839 0.950 . S
C862 C863 1.349 . S
C862 C864 1.327 . S
C862 H887 0.950 . S
C863 C862 1.349 . S
C863 C879 1.349 . S
C864 C862 1.327 . S
C864 C883 1.429 . S
C864 H888 0.950 . S
C865 C882 1.574 . S
C865 C884 1.368 . S
C865 H889 0.949 . S
H866 C870 0.949 . S
C867 C868 1.349 . S
C867 C869 1.327 . S
C867 H890 0.950 . S
C868 C867 1.349 . S
C868 C880 1.349 . S
C869 C867 1.327 . S
C869 C885 1.429 . S
C869 H891 0.950 . S
C870 H866 0.949 . S
C870 C878 1.574 . S
C870 C886 1.368 . S
H871 C879 0.950 . S
H872 C877 0.950 . S
H873 C878 0.949 . S
H874 C880 0.950 . S
H875 C881 0.950 . S
H876 C882 0.949 . S
C877 H872 0.950 . S
C877 C879 1.327 . S
C877 C883 1.429 . S
C878 C870 1.574 . S
C878 H873 0.949 . S
C878 C884 1.368 . S
C879 C863 1.349 . S
C879 H871 0.950 . S
C879 C877 1.327 . S
C880 C868 1.349 . S
C880 H874 0.950 . S
C880 C881 1.327 . S
C881 H875 0.950 . S
C881 C880 1.327 . S
C881 C885 1.429 . S
C882 C865 1.574 . S
C882 H876 0.949 . S
C882 C886 1.368 . S
C883 C864 1.429 . S
C883 C877 1.429 . S
C883 C884 1.523 . S
C884 C865 1.368 . S
C884 C878 1.368 . S
C884 C883 1.523 . S
C885 C869 1.429 . S
C885 C881 1.429 . S
C885 C886 1.523 . S
C886 C870 1.368 . S
C886 C882 1.368 . S
C886 C885 1.523 . S
H887 C862 0.950 . S
H888 C864 0.950 . S
H889 C865 0.949 . S
H890 C867 0.950 . S
H891 C869 0.950 . S
C892 C893 1.349 . S
C892 C894 1.327 . S
C892 H917 0.950 . S
C893 C892 1.349 . S
C893 C909 1.349 . S
C894 C892 1.327 . S
C894 C913 1.429 . S
C894 H918 0.950 . S
C895 C912 1.618 . S
C895 C914 1.368 . S
C895 H919 0.949 . S
H896 C900 0.949 . S
C897 C898 1.349 . S
C897 C899 1.327 . S
C897 H920 0.950 . S
C898 C897 1.349 . S
C898 C910 1.349 . S
C899 C897 1.327 . S
C899 C915 1.429 . S
C899 H921 0.950 . S
C900 H896 0.949 . S
C900 C908 1.618 . S
C900 C916 1.368 . S
H901 C909 0.950 . S
H902 C907 0.950 . S
H903 C908 0.952 . S
H904 C910 0.950 . S
H905 C911 0.950 . S
H906 C912 0.952 . S
C907 H902 0.950 . S
C907 C909 1.327 . S
C907 C913 1.429 . S
C908 C900 1.618 . S
C908 H903 0.952 . S
C908 C914 1.324 1_556 S
C909 C893 1.349 . S
C909 H901 0.950 . S
C909 C907 1.327 . S
C910 C898 1.349 . S
C910 H904 0.950 . S
C910 C911 1.327 . S
C911 H905 0.950 . S
C911 C910 1.327 . S
C911 C915 1.429 . S
C912 C895 1.618 . S
C912 H906 0.952 . S
C912 C916 1.324 1_554 S
C913 C894 1.429 . S
C913 C907 1.429 . S
C913 C914 1.523 . S
C914 C895 1.368 . S
C914 C908 1.324 1_554 S
C914 C913 1.523 . S
C915 C899 1.429 . S
C915 C911 1.429 . S
C915 C916 1.523 . S
C916 C900 1.368 . S
C916 C912 1.324 1_556 S
C916 C915 1.523 . S
H917 C892 0.950 . S
H918 C894 0.950 . S
H919 C895 0.949 . S
H920 C897 0.950 . S
H921 C899 0.950 . S
C922 C923 1.349 . S
C922 C924 1.327 . S
C922 H947 0.950 . S
C923 C922 1.349 . S
C923 C939 1.349 . S
C924 C922 1.327 . S
C924 C943 1.429 . S
C924 H948 0.950 . S
C925 C942 1.574 . S
C925 C944 1.368 . S
C925 H949 0.949 . S
H926 C930 0.949 . S
C927 C928 1.349 . S
C927 C929 1.327 . S
C927 H950 0.950 . S
C928 C927 1.349 . S
C928 C940 1.349 . S
C929 C927 1.327 . S
C929 C945 1.429 . S
C929 H951 0.950 . S
C930 H926 0.949 . S
C930 C938 1.574 . S
C930 C946 1.368 . S
H931 C939 0.950 . S
H932 C937 0.950 . S
H933 C938 0.949 . S
H934 C940 0.950 . S
H935 C941 0.950 . S
H936 C942 0.949 . S
C937 H932 0.950 . S
C937 C939 1.327 . S
C937 C943 1.429 . S
C938 C930 1.574 . S
C938 H933 0.949 . S
C938 C944 1.368 . S
C939 C923 1.349 . S
C939 H931 0.950 . S
C939 C937 1.327 . S
C940 C928 1.349 . S
C940 H934 0.950 . S
C940 C941 1.327 . S
C941 H935 0.950 . S
C941 C940 1.327 . S
C941 C945 1.429 . S
C942 C925 1.574 . S
C942 H936 0.949 . S
C942 C946 1.368 . S
C943 C924 1.429 . S
C943 C937 1.429 . S
C943 C944 1.523 . S
C944 C925 1.368 . S
C944 C938 1.368 . S
C944 C943 1.523 . S
C945 C929 1.429 . S
C945 C941 1.429 . S
C945 C946 1.523 . S
C946 C930 1.368 . S
C946 C942 1.368 . S
C946 C945 1.523 . S
H947 C922 0.950 . S
H948 C924 0.950 . S
H949 C925 0.949 . S
H950 C927 0.950 . S
H951 C929 0.950 . S
C952 C953 1.349 . S
C952 C954 1.327 . S
C952 H977 0.950 . S
C953 C952 1.349 . S
C953 C969 1.349 . S
C954 C952 1.327 . S
C954 C973 1.429 . S
C954 H978 0.950 . S
C955 C972 1.574 1_546 S
C955 C974 1.368 . S
C955 H979 0.949 . S
H956 C960 0.949 . S
C957 C958 1.349 . S
C957 C959 1.327 . S
C957 H980 0.950 . S
C958 C957 1.349 . S
C958 C970 1.349 . S
C959 C957 1.327 . S
C959 C975 1.429 . S
C959 H981 0.950 . S
C960 H956 0.949 . S
C960 C968 1.574 1_564 S
C960 C976 1.368 . S
H961 C969 0.950 . S
H962 C967 0.950 . S
H963 C968 0.949 . S
H964 C970 0.950 . S
H965 C971 0.950 . S
H966 C972 0.949 . S
C967 H962 0.950 . S
C967 C969 1.327 . S
C967 C973 1.429 . S
C968 C960 1.574 1_546 S
C968 H963 0.949 . S
C968 C974 1.368 . S
C969 C953 1.349 . S
C969 H961 0.950 . S
C969 C967 1.327 . S
C970 C958 1.349 . S
C970 H964 0.950 . S
C970 C971 1.327 . S
C971 H965 0.950 . S
C971 C970 1.327 . S
C971 C975 1.429 . S
C972 C955 1.574 1_564 S
C972 H966 0.949 . S
C972 C976 1.368 . S
C973 C954 1.429 . S
C973 C967 1.429 . S
C973 C974 1.523 . S
C974 C955 1.368 . S
C974 C968 1.368 . S
C974 C973 1.523 . S
C975 C959 1.429 . S
C975 C971 1.429 . S
C975 C976 1.523 . S
C976 C960 1.368 . S
C976 C972 1.368 . S
C976 C975 1.523 . S
H977 C952 0.950 . S
H978 C954 0.950 . S
H979 C955 0.949 . S
H980 C957 0.950 . S
H981 C959 0.950 . S
C982 C983 1.349 . S
C982 C984 1.327 . S
C982 H1007 0.950 . S
C983 C982 1.349 . S
C983 C999 1.349 . S
C984 C982 1.327 . S
C984 C1003 1.429 . S
C984 H1008 0.950 . S
C985 C1002 1.574 . S
C985 C1004 1.368 . S
C985 H1009 0.949 . S
H986 C990 0.949 . S
C987 C988 1.349 . S
C987 C989 1.327 . S
C987 H1010 0.950 . S
C988 C987 1.349 . S
C988 C1000 1.349 . S
C989 C987 1.327 . S
C989 C1005 1.429 . S
C989 H1011 0.950 . S
C990 H986 0.949 . S
C990 C998 1.574 . S
C990 C1006 1.368 . S
H991 C999 0.950 . S
H992 C997 0.950 . S
H993 C998 0.949 . S
H994 C1000 0.950 . S
H995 C1001 0.950 . S
H996 C1002 0.949 . S
C997 H992 0.950 . S
C997 C999 1.327 . S
C997 C1003 1.429 . S
C998 C990 1.574 . S
C998 H993 0.949 . S
C998 C1004 1.368 1_545 S
C999 C983 1.349 . S
C999 H991 0.950 . S
C999 C997 1.327 . S
C1000 C988 1.349 . S
C1000 H994 0.950 . S
C1000 C1001 1.327 . S
C1001 H995 0.950 . S
C1001 C1000 1.327 . S
C1001 C1005 1.429 . S
C1002 C985 1.574 . S
C1002 H996 0.949 . S
C1002 C1006 1.368 1_565 S
C1003 C984 1.429 . S
C1003 C997 1.429 . S
C1003 C1004 1.523 . S
C1004 C985 1.368 . S
C1004 C998 1.368 1_565 S
C1004 C1003 1.523 . S
C1005 C989 1.429 . S
C1005 C1001 1.429 . S
C1005 C1006 1.523 . S
C1006 C990 1.368 . S
C1006 C1002 1.368 1_545 S
C1006 C1005 1.523 . S
H1007 C982 0.950 . S
H1008 C984 0.950 . S
H1009 C985 0.949 . S
H1010 C987 0.950 . S
H1011 C989 0.950 . S
C1012 C1013 1.349 . S
C1012 C1014 1.327 . S
C1012 H1037 0.950 . S
C1013 C1012 1.349 . S
C1013 C1029 1.349 . S
C1014 C1012 1.327 . S
C1014 C1033 1.429 . S
C1014 H1038 0.950 . S
C1015 C1032 1.610 . S
C1015 C1034 1.332 1_556 S
C1015 H1039 0.949 . S
H1016 C1020 0.949 . S
C1017 C1018 1.349 . S
C1017 C1019 1.327 . S
C1017 H1040 0.950 . S
C1018 C1017 1.349 . S
C1018 C1030 1.349 . S
C1019 C1017 1.327 . S
C1019 C1035 1.429 . S
C1019 H1041 0.950 . S
C1020 H1016 0.949 . S
C1020 C1028 1.610 . S
C1020 C1036 1.332 1_554 S
H1021 C1029 0.950 . S
H1022 C1027 0.950 . S
H1023 C1028 0.949 . S
H1024 C1030 0.950 . S
H1025 C1031 0.950 . S
H1026 C1032 0.949 . S
C1027 H1022 0.950 . S
C1027 C1029 1.327 . S
C1027 C1033 1.429 . S
C1028 C1020 1.610 . S
C1028 H1023 0.949 . S
C1028 C1034 1.368 1_545 S
C1029 C1013 1.349 . S
C1029 H1021 0.950 . S
C1029 C1027 1.327 . S
C1030 C1018 1.349 . S
C1030 H1024 0.950 . S
C1030 C1031 1.327 . S
C1031 H1025 0.950 . S
C1031 C1030 1.327 . S
C1031 C1035 1.429 . S
C1032 C1015 1.610 . S
C1032 H1026 0.949 . S
C1032 C1036 1.368 1_565 S
C1033 C1014 1.429 . S
C1033 C1027 1.429 . S
C1033 C1034 1.523 . S
C1034 C1015 1.332 1_554 S
C1034 C1028 1.368 1_565 S
C1034 C1033 1.523 . S
C1035 C1019 1.429 . S
C1035 C1031 1.429 . S
C1035 C1036 1.523 . S
C1036 C1020 1.332 1_556 S
C1036 C1032 1.368 1_545 S
C1036 C1035 1.523 . S
H1037 C1012 0.950 . S
H1038 C1014 0.950 . S
H1039 C1015 0.949 . S
H1040 C1017 0.950 . S
H1041 C1019 0.950 . S
C1042 C1043 1.349 . S
C1042 C1044 1.327 . S
C1042 H1067 0.950 . S
C1043 C1042 1.349 . S
C1043 C1059 1.349 . S
C1044 C1042 1.327 . S
C1044 C1063 1.429 . S
C1044 H1068 0.950 . S
C1045 C1062 1.586 . S
C1045 C1064 1.368 . S
C1045 H1069 0.949 . S
H1046 C1050 0.949 . S
C1047 C1048 1.349 . S
C1047 C1049 1.327 . S
C1047 H1070 0.950 . S
C1048 C1047 1.349 . S
C1048 C1060 1.349 . S
C1049 C1047 1.327 . S
C1049 C1065 1.429 . S
C1049 H1071 0.950 . S
C1050 H1046 0.949 . S
C1050 C1058 1.586 . S
C1050 C1066 1.368 . S
H1051 C1059 0.950 . S
H1052 C1057 0.950 . S
H1053 C1058 0.949 . S
H1054 C1060 0.950 . S
H1055 C1061 0.950 . S
H1056 C1062 0.949 . S
C1057 H1052 0.950 . S
C1057 C1059 1.327 . S
C1057 C1063 1.429 . S
C1058 C1050 1.586 . S
C1058 H1053 0.949 . S
C1058 C1064 1.357 1_545 S
C1059 C1043 1.349 . S
C1059 H1051 0.950 . S
C1059 C1057 1.327 . S
C1060 C1048 1.349 . S
C1060 H1054 0.950 . S
C1060 C1061 1.327 . S
C1061 H1055 0.950 . S
C1061 C1060 1.327 . S
C1061 C1065 1.429 . S
C1062 C1045 1.586 . S
C1062 H1056 0.949 . S
C1062 C1066 1.357 1_565 S
C1063 C1044 1.429 . S
C1063 C1057 1.429 . S
C1063 C1064 1.523 . S
C1064 C1045 1.368 . S
C1064 C1058 1.357 1_565 S
C1064 C1063 1.523 . S
C1065 C1049 1.429 . S
C1065 C1061 1.429 . S
C1065 C1066 1.523 . S
C1066 C1050 1.368 . S
C1066 C1062 1.357 1_545 S
C1066 C1065 1.523 . S
H1067 C1042 0.950 . S
H1068 C1044 0.950 . S
H1069 C1045 0.949 . S
H1070 C1047 0.950 . S
H1071 C1049 0.950 . S
C1072 C1073 1.349 . S
C1072 C1074 1.327 . S
C1072 H1097 0.950 . S
C1073 C1072 1.349 . S
C1073 C1089 1.349 . S
C1074 C1072 1.327 . S
C1074 C1093 1.429 . S
C1074 H1098 0.950 . S
C1075 C1092 1.574 . S
C1075 C1094 1.368 . S
C1075 H1099 0.949 . S
H1076 C1080 0.949 . S
C1077 C1078 1.349 . S
C1077 C1079 1.327 . S
C1077 H1100 0.950 . S
C1078 C1077 1.349 . S
C1078 C1090 1.349 . S
C1079 C1077 1.327 . S
C1079 C1095 1.429 . S
C1079 H1101 0.950 . S
C1080 H1076 0.949 . S
C1080 C1088 1.574 . S
C1080 C1096 1.368 . S
H1081 C1089 0.950 . S
H1082 C1087 0.950 . S
H1083 C1088 0.949 . S
H1084 C1090 0.950 . S
H1085 C1091 0.950 . S
H1086 C1092 0.949 . S
C1087 H1082 0.950 . S
C1087 C1089 1.327 . S
C1087 C1093 1.429 . S
C1088 C1080 1.574 . S
C1088 H1083 0.949 . S
C1088 C1094 1.368 . S
C1089 C1073 1.349 . S
C1089 H1081 0.950 . S
C1089 C1087 1.327 . S
C1090 C1078 1.349 . S
C1090 H1084 0.950 . S
C1090 C1091 1.327 . S
C1091 H1085 0.950 . S
C1091 C1090 1.327 . S
C1091 C1095 1.429 . S
C1092 C1075 1.574 . S
C1092 H1086 0.949 . S
C1092 C1096 1.368 . S
C1093 C1074 1.429 . S
C1093 C1087 1.429 . S
C1093 C1094 1.523 . S
C1094 C1075 1.368 . S
C1094 C1088 1.368 . S
C1094 C1093 1.523 . S
C1095 C1079 1.429 . S
C1095 C1091 1.429 . S
C1095 C1096 1.523 . S
C1096 C1080 1.368 . S
C1096 C1092 1.368 . S
C1096 C1095 1.523 . S
H1097 C1072 0.950 . S
H1098 C1074 0.950 . S
H1099 C1075 0.949 . S
H1100 C1077 0.950 . S
H1101 C1079 0.950 . S
C1102 C1103 1.349 . S
C1102 C1104 1.327 . S
C1102 H1127 0.950 . S
C1103 C1102 1.349 . S
C1103 C1119 1.349 . S
C1104 C1102 1.327 . S
C1104 C1123 1.429 . S
C1104 H1128 0.950 . S
C1105 C1122 1.574 . S
C1105 C1124 1.368 . S
C1105 H1129 0.949 . S
H1106 C1110 0.949 . S
C1107 C1108 1.349 . S
C1107 C1109 1.327 . S
C1107 H1130 0.950 . S
C1108 C1107 1.349 . S
C1108 C1120 1.349 . S
C1109 C1107 1.327 . S
C1109 C1125 1.429 . S
C1109 H1131 0.950 . S
C1110 H1106 0.949 . S
C1110 C1118 1.574 . S
C1110 C1126 1.368 . S
H1111 C1119 0.950 . S
H1112 C1117 0.950 . S
H1113 C1118 0.949 . S
H1114 C1120 0.950 . S
H1115 C1121 0.950 . S
H1116 C1122 0.949 . S
C1117 H1112 0.950 . S
C1117 C1119 1.327 . S
C1117 C1123 1.429 . S
C1118 C1110 1.574 . S
C1118 H1113 0.949 . S
C1118 C1124 1.368 . S
C1119 C1103 1.349 . S
C1119 H1111 0.950 . S
C1119 C1117 1.327 . S
C1120 C1108 1.349 . S
C1120 H1114 0.950 . S
C1120 C1121 1.327 . S
C1121 H1115 0.950 . S
C1121 C1120 1.327 . S
C1121 C1125 1.429 . S
C1122 C1105 1.574 . S
C1122 H1116 0.949 . S
C1122 C1126 1.368 . S
C1123 C1104 1.429 . S
C1123 C1117 1.429 . S
C1123 C1124 1.523 . S
C1124 C1105 1.368 . S
C1124 C1118 1.368 . S
C1124 C1123 1.523 . S
C1125 C1109 1.429 . S
C1125 C1121 1.429 . S
C1125 C1126 1.523 . S
C1126 C1110 1.368 . S
C1126 C1122 1.368 . S
C1126 C1125 1.523 . S
H1127 C1102 0.950 . S
H1128 C1104 0.950 . S
H1129 C1105 0.949 . S
H1130 C1107 0.950 . S
H1131 C1109 0.950 . S
C1132 C1133 1.349 . S
C1132 C1134 1.327 . S
C1132 H1157 0.950 . S
C1133 C1132 1.349 . S
C1133 C1149 1.349 . S
C1134 C1132 1.327 . S
C1134 C1153 1.429 . S
C1134 H1158 0.950 . S
C1135 C1152 1.574 . S
C1135 C1154 1.368 . S
C1135 H1159 0.949 . S
H1136 C1140 0.949 . S
C1137 C1138 1.349 . S
C1137 C1139 1.327 . S
C1137 H1160 0.950 . S
C1138 C1137 1.349 . S
C1138 C1150 1.349 . S
C1139 C1137 1.327 . S
C1139 C1155 1.429 . S
C1139 H1161 0.950 . S
C1140 H1136 0.949 . S
C1140 C1148 1.574 . S
C1140 C1156 1.368 . S
H1141 C1149 0.950 . S
H1142 C1147 0.950 . S
H1143 C1148 0.949 . S
H1144 C1150 0.950 . S
H1145 C1151 0.950 . S
H1146 C1152 0.949 . S
C1147 H1142 0.950 . S
C1147 C1149 1.327 . S
C1147 C1153 1.429 . S
C1148 C1140 1.574 . S
C1148 H1143 0.949 . S
C1148 C1154 1.368 . S
C1149 C1133 1.349 . S
C1149 H1141 0.950 . S
C1149 C1147 1.327 . S
C1150 C1138 1.349 . S
C1150 H1144 0.950 . S
C1150 C1151 1.327 . S
C1151 H1145 0.950 . S
C1151 C1150 1.327 . S
C1151 C1155 1.429 . S
C1152 C1135 1.574 . S
C1152 H1146 0.949 . S
C1152 C1156 1.368 . S
C1153 C1134 1.429 . S
C1153 C1147 1.429 . S
C1153 C1154 1.523 . S
C1154 C1135 1.368 . S
C1154 C1148 1.368 . S
C1154 C1153 1.523 . S
C1155 C1139 1.429 . S
C1155 C1151 1.429 . S
C1155 C1156 1.523 . S
C1156 C1140 1.368 . S
C1156 C1152 1.368 . S
C1156 C1155 1.523 . S
H1157 C1132 0.950 . S
H1158 C1134 0.950 . S
H1159 C1135 0.949 . S
H1160 C1137 0.950 . S
H1161 C1139 0.950 . S
C1162 C1163 1.349 . S
C1162 C1164 1.327 . S
C1162 H1187 0.950 . S
C1163 C1162 1.349 . S
C1163 C1179 1.349 . S
C1164 C1162 1.327 . S
C1164 C1183 1.429 . S
C1164 H1188 0.950 . S
C1165 C1182 1.574 . S
C1165 C1184 1.368 . S
C1165 H1189 0.949 . S
H1166 C1170 0.949 . S
C1167 C1168 1.349 . S
C1167 C1169 1.327 . S
C1167 H1190 0.950 . S
C1168 C1167 1.349 . S
C1168 C1180 1.349 . S
C1169 C1167 1.327 . S
C1169 C1185 1.429 . S
C1169 H1191 0.950 . S
C1170 H1166 0.949 . S
C1170 C1178 1.574 . S
C1170 C1186 1.368 . S
H1171 C1179 0.950 . S
H1172 C1177 0.950 . S
H1173 C1178 0.949 . S
H1174 C1180 0.950 . S
H1175 C1181 0.950 . S
H1176 C1182 0.949 . S
C1177 H1172 0.950 . S
C1177 C1179 1.327 . S
C1177 C1183 1.429 . S
C1178 C1170 1.574 . S
C1178 H1173 0.949 . S
C1178 C1184 1.368 . S
C1179 C1163 1.349 . S
C1179 H1171 0.950 . S
C1179 C1177 1.327 . S
C1180 C1168 1.349 . S
C1180 H1174 0.950 . S
C1180 C1181 1.327 . S
C1181 H1175 0.950 . S
C1181 C1180 1.327 . S
C1181 C1185 1.429 . S
C1182 C1165 1.574 . S
C1182 H1176 0.949 . S
C1182 C1186 1.368 . S
C1183 C1164 1.429 . S
C1183 C1177 1.429 . S
C1183 C1184 1.523 . S
C1184 C1165 1.368 . S
C1184 C1178 1.368 . S
C1184 C1183 1.523 . S
C1185 C1169 1.429 . S
C1185 C1181 1.429 . S
C1185 C1186 1.523 . S
C1186 C1170 1.368 . S
C1186 C1182 1.368 . S
C1186 C1185 1.523 . S
H1187 C1162 0.950 . S
H1188 C1164 0.950 . S
H1189 C1165 0.949 . S
H1190 C1167 0.950 . S
H1191 C1169 0.950 . S
C1192 C1193 1.349 . S
C1192 C1194 1.327 . S
C1192 H1217 0.950 . S
C1193 C1192 1.349 . S
C1193 C1209 1.349 . S
C1194 C1192 1.327 . S
C1194 C1213 1.429 . S
C1194 H1218 0.950 . S
C1195 C1212 1.574 1_655 S
C1195 C1214 1.368 . S
C1195 H1219 0.949 . S
H1196 C1200 0.949 . S
C1197 C1198 1.349 . S
C1197 C1199 1.327 . S
C1197 H1220 0.950 . S
C1198 C1197 1.349 . S
C1198 C1210 1.349 . S
C1199 C1197 1.327 . S
C1199 C1215 1.429 . S
C1199 H1221 0.950 . S
C1200 H1196 0.949 . S
C1200 C1208 1.574 1_455 S
C1200 C1216 1.368 . S
H1201 C1209 0.950 . S
H1202 C1207 0.950 . S
H1203 C1208 0.949 . S
H1204 C1210 0.950 . S
H1205 C1211 0.950 . S
H1206 C1212 0.949 . S
C1207 H1202 0.950 . S
C1207 C1209 1.327 . S
C1207 C1213 1.429 . S
C1208 C1200 1.574 1_655 S
C1208 H1203 0.949 . S
C1208 C1214 1.368 . S
C1209 C1193 1.349 . S
C1209 H1201 0.950 . S
C1209 C1207 1.327 . S
C1210 C1198 1.349 . S
C1210 H1204 0.950 . S
C1210 C1211 1.327 . S
C1211 H1205 0.950 . S
C1211 C1210 1.327 . S
C1211 C1215 1.429 . S
C1212 C1195 1.574 1_455 S
C1212 H1206 0.949 . S
C1212 C1216 1.368 . S
C1213 C1194 1.429 . S
C1213 C1207 1.429 . S
C1213 C1214 1.523 . S
C1214 C1195 1.368 . S
C1214 C1208 1.368 . S
C1214 C1213 1.523 . S
C1215 C1199 1.429 . S
C1215 C1211 1.429 . S
C1215 C1216 1.523 . S
C1216 C1200 1.368 . S
C1216 C1212 1.368 . S
C1216 C1215 1.523 . S
H1217 C1192 0.950 . S
H1218 C1194 0.950 . S
H1219 C1195 0.949 . S
H1220 C1197 0.950 . S
H1221 C1199 0.950 . S
C1222 C1223 1.349 . S
C1222 C1224 1.327 . S
C1222 H1247 0.950 . S
C1223 C1222 1.349 . S
C1223 C1239 1.349 . S
C1224 C1222 1.327 . S
C1224 C1243 1.429 . S
C1224 H1248 0.950 . S
C1225 C1242 1.574 1_655 S
C1225 C1244 1.368 . S
C1225 H1249 0.949 . S
H1226 C1230 0.949 . S
C1227 C1228 1.349 . S
C1227 C1229 1.327 . S
C1227 H1250 0.950 . S
C1228 C1227 1.349 . S
C1228 C1240 1.349 . S
C1229 C1227 1.327 . S
C1229 C1245 1.429 . S
C1229 H1251 0.950 . S
C1230 H1226 0.949 . S
C1230 C1238 1.574 1_455 S
C1230 C1246 1.368 . S
H1231 C1239 0.950 . S
H1232 C1237 0.950 . S
H1233 C1238 0.949 . S
H1234 C1240 0.950 . S
H1235 C1241 0.950 . S
H1236 C1242 0.949 . S
C1237 H1232 0.950 . S
C1237 C1239 1.327 . S
C1237 C1243 1.429 . S
C1238 C1230 1.574 1_655 S
C1238 H1233 0.949 . S
C1238 C1244 1.368 . S
C1239 C1223 1.349 . S
C1239 H1231 0.950 . S
C1239 C1237 1.327 . S
C1240 C1228 1.349 . S
C1240 H1234 0.950 . S
C1240 C1241 1.327 . S
C1241 H1235 0.950 . S
C1241 C1240 1.327 . S
C1241 C1245 1.429 . S
C1242 C1225 1.574 1_455 S
C1242 H1236 0.949 . S
C1242 C1246 1.368 . S
C1243 C1224 1.429 . S
C1243 C1237 1.429 . S
C1243 C1244 1.523 . S
C1244 C1225 1.368 . S
C1244 C1238 1.368 . S
C1244 C1243 1.523 . S
C1245 C1229 1.429 . S
C1245 C1241 1.429 . S
C1245 C1246 1.523 . S
C1246 C1230 1.368 . S
C1246 C1242 1.368 . S
C1246 C1245 1.523 . S
H1247 C1222 0.950 . S
H1248 C1224 0.950 . S
H1249 C1225 0.949 . S
H1250 C1227 0.950 . S
H1251 C1229 0.950 . S
C1252 C1253 1.349 . S
C1252 C1254 1.327 . S
C1252 H1277 0.950 . S
C1253 C1252 1.349 . S
C1253 C1269 1.349 . S
C1254 C1252 1.327 . S
C1254 C1273 1.429 . S
C1254 H1278 0.950 . S
C1255 C1272 1.574 1_455 S
C1255 C1274 1.368 . S
C1255 H1279 0.949 . S
H1256 C1260 0.949 . S
C1257 C1258 1.349 . S
C1257 C1259 1.327 . S
C1257 H1280 0.950 . S
C1258 C1257 1.349 . S
C1258 C1270 1.349 . S
C1259 C1257 1.327 . S
C1259 C1275 1.429 . S
C1259 H1281 0.950 . S
C1260 H1256 0.949 . S
C1260 C1268 1.574 1_655 S
C1260 C1276 1.368 . S
H1261 C1269 0.950 . S
H1262 C1267 0.950 . S
H1263 C1268 0.949 . S
H1264 C1270 0.950 . S
H1265 C1271 0.950 . S
H1266 C1272 0.949 . S
C1267 H1262 0.950 . S
C1267 C1269 1.327 . S
C1267 C1273 1.429 . S
C1268 C1260 1.574 1_455 S
C1268 H1263 0.949 . S
C1268 C1274 1.368 . S
C1269 C1253 1.349 . S
C1269 H1261 0.950 . S
C1269 C1267 1.327 . S
C1270 C1258 1.349 . S
C1270 H1264 0.950 . S
C1270 C1271 1.327 . S
C1271 H1265 0.950 . S
C1271 C1270 1.327 . S
C1271 C1275 1.429 . S
C1272 C1255 1.574 1_655 S
C1272 H1266 0.949 . S
C1272 C1276 1.368 . S
C1273 C1254 1.429 . S
C1273 C1267 1.429 . S
C1273 C1274 1.523 . S
C1274 C1255 1.368 . S
C1274 C1268 1.368 . S
C1274 C1273 1.523 . S
C1275 C1259 1.429 . S
C1275 C1271 1.429 . S
C1275 C1276 1.523 . S
C1276 C1260 1.368 . S
C1276 C1272 1.368 . S
C1276 C1275 1.523 . S
H1277 C1252 0.950 . S
H1278 C1254 0.950 . S
H1279 C1255 0.949 . S
H1280 C1257 0.950 . S
H1281 C1259 0.950 . S
C1282 C1283 1.349 . S
C1282 C1284 1.327 . S
C1282 H1307 0.950 . S
C1283 C1282 1.349 . S
C1283 C1299 1.349 . S
C1284 C1282 1.327 . S
C1284 C1303 1.429 . S
C1284 H1308 0.950 . S
C1285 C1302 1.574 1_455 S
C1285 C1304 1.368 . S
C1285 H1309 0.949 . S
H1286 C1290 0.949 . S
C1287 C1288 1.349 . S
C1287 C1289 1.327 . S
C1287 H1310 0.950 . S
C1288 C1287 1.349 . S
C1288 C1300 1.349 . S
C1289 C1287 1.327 . S
C1289 C1305 1.429 . S
C1289 H1311 0.950 . S
C1290 H1286 0.949 . S
C1290 C1298 1.574 1_655 S
C1290 C1306 1.368 . S
H1291 C1299 0.950 . S
H1292 C1297 0.950 . S
H1293 C1298 0.949 . S
H1294 C1300 0.950 . S
H1295 C1301 0.950 . S
H1296 C1302 0.949 . S
C1297 H1292 0.950 . S
C1297 C1299 1.327 . S
C1297 C1303 1.429 . S
C1298 C1290 1.574 1_455 S
C1298 H1293 0.949 . S
C1298 C1304 1.368 . S
C1299 C1283 1.349 . S
C1299 H1291 0.950 . S
C1299 C1297 1.327 . S
C1300 C1288 1.349 . S
C1300 H1294 0.950 . S
C1300 C1301 1.327 . S
C1301 H1295 0.950 . S
C1301 C1300 1.327 . S
C1301 C1305 1.429 . S
C1302 C1285 1.574 1_655 S
C1302 H1296 0.949 . S
C1302 C1306 1.368 . S
C1303 C1284 1.429 . S
C1303 C1297 1.429 . S
C1303 C1304 1.523 . S
C1304 C1285 1.368 . S
C1304 C1298 1.368 . S
C1304 C1303 1.523 . S
C1305 C1289 1.429 . S
C1305 C1301 1.429 . S
C1305 C1306 1.523 . S
C1306 C1290 1.368 . S
C1306 C1302 1.368 . S
C1306 C1305 1.523 . S
H1307 C1282 0.950 . S
H1308 C1284 0.950 . S
H1309 C1285 0.949 . S
H1310 C1287 0.950 . S
H1311 C1289 0.950 . S
C1312 C1313 1.349 . S
C1312 C1314 1.327 . S
C1312 H1337 0.950 . S
C1313 C1312 1.349 . S
C1313 C1329 1.349 . S
C1314 C1312 1.327 . S
C1314 C1333 1.429 . S
C1314 H1338 0.950 . S
C1315 C1332 1.574 1_554 S
C1315 C1334 1.368 . S
C1315 H1339 0.949 . S
H1316 C1320 0.949 . S
C1317 C1318 1.349 . S
C1317 C1319 1.327 . S
C1317 H1340 0.950 . S
C1318 C1317 1.349 . S
C1318 C1330 1.349 . S
C1319 C1317 1.327 . S
C1319 C1335 1.429 . S
C1319 H1341 0.950 . S
C1320 H1316 0.949 . S
C1320 C1328 1.574 1_556 S
C1320 C1336 1.368 . S
H1321 C1329 0.950 . S
H1322 C1327 0.950 . S
H1323 C1328 0.949 . S
H1324 C1330 0.950 . S
H1325 C1331 0.950 . S
H1326 C1332 0.949 . S
C1327 H1322 0.950 . S
C1327 C1329 1.327 . S
C1327 C1333 1.429 . S
C1328 C1320 1.574 1_554 S
C1328 H1323 0.949 . S
C1328 C1334 1.368 . S
C1329 C1313 1.349 . S
C1329 H1321 0.950 . S
C1329 C1327 1.327 . S
C1330 C1318 1.349 . S
C1330 H1324 0.950 . S
C1330 C1331 1.327 . S
C1331 H1325 0.950 . S
C1331 C1330 1.327 . S
C1331 C1335 1.429 . S
C1332 C1315 1.574 1_556 S
C1332 H1326 0.949 . S
C1332 C1336 1.368 . S
C1333 C1314 1.429 . S
C1333 C1327 1.429 . S
C1333 C1334 1.523 . S
C1334 C1315 1.368 . S
C1334 C1328 1.368 . S
C1334 C1333 1.523 . S
C1335 C1319 1.429 . S
C1335 C1331 1.429 . S
C1335 C1336 1.523 . S
C1336 C1320 1.368 . S
C1336 C1332 1.368 . S
C1336 C1335 1.523 . S
H1337 C1312 0.950 . S
H1338 C1314 0.950 . S
H1339 C1315 0.949 . S
H1340 C1317 0.950 . S
H1341 C1319 0.950 . S
C1342 C1343 1.349 . S
C1342 C1344 1.327 . S
C1342 H1367 0.950 . S
C1343 C1342 1.349 . S
C1343 C1359 1.349 . S
C1344 C1342 1.327 . S
C1344 C1363 1.429 . S
C1344 H1368 0.950 . S
C1345 C1362 1.574 . S
C1345 C1364 1.368 . S
C1345 H1369 0.949 . S
H1346 C1350 0.949 . S
C1347 C1348 1.349 . S
C1347 C1349 1.327 . S
C1347 H1370 0.950 . S
C1348 C1347 1.349 . S
C1348 C1360 1.349 . S
C1349 C1347 1.327 . S
C1349 C1365 1.429 . S
C1349 H1371 0.950 . S
C1350 H1346 0.949 . S
C1350 C1358 1.574 . S
C1350 C1366 1.368 . S
H1351 C1359 0.950 . S
H1352 C1357 0.950 . S
H1353 C1358 0.949 . S
H1354 C1360 0.950 . S
H1355 C1361 0.950 . S
H1356 C1362 0.949 . S
C1357 H1352 0.950 . S
C1357 C1359 1.327 . S
C1357 C1363 1.429 . S
C1358 C1350 1.574 . S
C1358 H1353 0.949 . S
C1358 C1364 1.368 . S
C1359 C1343 1.349 . S
C1359 H1351 0.950 . S
C1359 C1357 1.327 . S
C1360 C1348 1.349 . S
C1360 H1354 0.950 . S
C1360 C1361 1.327 . S
C1361 H1355 0.950 . S
C1361 C1360 1.327 . S
C1361 C1365 1.429 . S
C1362 C1345 1.574 . S
C1362 H1356 0.949 . S
C1362 C1366 1.368 . S
C1363 C1344 1.429 . S
C1363 C1357 1.429 . S
C1363 C1364 1.523 . S
C1364 C1345 1.368 . S
C1364 C1358 1.368 . S
C1364 C1363 1.523 . S
C1365 C1349 1.429 . S
C1365 C1361 1.429 . S
C1365 C1366 1.523 . S
C1366 C1350 1.368 . S
C1366 C1362 1.368 . S
C1366 C1365 1.523 . S
H1367 C1342 0.950 . S
H1368 C1344 0.950 . S
H1369 C1345 0.949 . S
H1370 C1347 0.950 . S
H1371 C1349 0.950 . S
C1372 C1373 1.349 . S
C1372 C1374 1.327 . S
C1372 H1397 0.950 . S
C1373 C1372 1.349 . S
C1373 C1389 1.349 . S
C1374 C1372 1.327 . S
C1374 C1393 1.429 . S
C1374 H1398 0.950 . S
C1375 C1392 1.574 1_554 S
C1375 C1394 1.368 . S
C1375 H1399 0.949 . S
H1376 C1380 0.949 . S
C1377 C1378 1.349 . S
C1377 C1379 1.327 . S
C1377 H1400 0.950 . S
C1378 C1377 1.349 . S
C1378 C1390 1.349 . S
C1379 C1377 1.327 . S
C1379 C1395 1.429 . S
C1379 H1401 0.950 . S
C1380 H1376 0.949 . S
C1380 C1388 1.574 1_556 S
C1380 C1396 1.368 . S
H1381 C1389 0.950 . S
H1382 C1387 0.950 . S
H1383 C1388 0.949 . S
H1384 C1390 0.950 . S
H1385 C1391 0.950 . S
H1386 C1392 0.949 . S
C1387 H1382 0.950 . S
C1387 C1389 1.327 . S
C1387 C1393 1.429 . S
C1388 C1380 1.574 1_554 S
C1388 H1383 0.949 . S
C1388 C1394 1.368 . S
C1389 C1373 1.349 . S
C1389 H1381 0.950 . S
C1389 C1387 1.327 . S
C1390 C1378 1.349 . S
C1390 H1384 0.950 . S
C1390 C1391 1.327 . S
C1391 H1385 0.950 . S
C1391 C1390 1.327 . S
C1391 C1395 1.429 . S
C1392 C1375 1.574 1_556 S
C1392 H1386 0.949 . S
C1392 C1396 1.368 . S
C1393 C1374 1.429 . S
C1393 C1387 1.429 . S
C1393 C1394 1.523 . S
C1394 C1375 1.368 . S
C1394 C1388 1.368 . S
C1394 C1393 1.523 . S
C1395 C1379 1.429 . S
C1395 C1391 1.429 . S
C1395 C1396 1.523 . S
C1396 C1380 1.368 . S
C1396 C1392 1.368 . S
C1396 C1395 1.523 . S
H1397 C1372 0.950 . S
H1398 C1374 0.950 . S
H1399 C1375 0.949 . S
H1400 C1377 0.950 . S
H1401 C1379 0.950 . S
C1402 C1403 1.349 . S
C1402 C1404 1.327 . S
C1402 H1427 0.950 . S
C1403 C1402 1.349 . S
C1403 C1419 1.349 . S
C1404 C1402 1.327 . S
C1404 C1423 1.429 . S
C1404 H1428 0.950 . S
C1405 C1422 1.574 . S
C1405 C1424 1.368 . S
C1405 H1429 0.949 . S
H1406 C1410 0.949 . S
C1407 C1408 1.349 . S
C1407 C1409 1.327 . S
C1407 H1430 0.950 . S
C1408 C1407 1.349 . S
C1408 C1420 1.349 . S
C1409 C1407 1.327 . S
C1409 C1425 1.429 . S
C1409 H1431 0.950 . S
C1410 H1406 0.949 . S
C1410 C1418 1.574 . S
C1410 C1426 1.368 . S
H1411 C1419 0.950 . S
H1412 C1417 0.950 . S
H1413 C1418 0.949 . S
H1414 C1420 0.950 . S
H1415 C1421 0.950 . S
H1416 C1422 0.949 . S
C1417 H1412 0.950 . S
C1417 C1419 1.327 . S
C1417 C1423 1.429 . S
C1418 C1410 1.574 . S
C1418 H1413 0.949 . S
C1418 C1424 1.368 . S
C1419 C1403 1.349 . S
C1419 H1411 0.950 . S
C1419 C1417 1.327 . S
C1420 C1408 1.349 . S
C1420 H1414 0.950 . S
C1420 C1421 1.327 . S
C1421 H1415 0.950 . S
C1421 C1420 1.327 . S
C1421 C1425 1.429 . S
C1422 C1405 1.574 . S
C1422 H1416 0.949 . S
C1422 C1426 1.368 . S
C1423 C1404 1.429 . S
C1423 C1417 1.429 . S
C1423 C1424 1.523 . S
C1424 C1405 1.368 . S
C1424 C1418 1.368 . S
C1424 C1423 1.523 . S
C1425 C1409 1.429 . S
C1425 C1421 1.429 . S
C1425 C1426 1.523 . S
C1426 C1410 1.368 . S
C1426 C1422 1.368 . S
C1426 C1425 1.523 . S
H1427 C1402 0.950 . S
H1428 C1404 0.950 . S
H1429 C1405 0.949 . S
H1430 C1407 0.950 . S
H1431 C1409 0.950 . S
C1432 C1433 1.349 . S
C1432 C1434 1.327 . S
C1432 H1457 0.950 . S
C1433 C1432 1.349 . S
C1433 C1449 1.349 . S
C1434 C1432 1.327 . S
C1434 C1453 1.429 . S
C1434 H1458 0.950 . S
C1435 C1452 1.574 1_554 S
C1435 C1454 1.368 . S
C1435 H1459 0.949 . S
H1436 C1440 0.949 . S
C1437 C1438 1.349 . S
C1437 C1439 1.327 . S
C1437 H1460 0.950 . S
C1438 C1437 1.349 . S
C1438 C1450 1.349 . S
C1439 C1437 1.327 . S
C1439 C1455 1.429 . S
C1439 H1461 0.950 . S
C1440 H1436 0.949 . S
C1440 C1448 1.574 1_556 S
C1440 C1456 1.368 . S
H1441 C1449 0.950 . S
H1442 C1447 0.950 . S
H1443 C1448 0.949 . S
H1444 C1450 0.950 . S
H1445 C1451 0.950 . S
H1446 C1452 0.949 . S
C1447 H1442 0.950 . S
C1447 C1449 1.327 . S
C1447 C1453 1.429 . S
C1448 C1440 1.574 1_554 S
C1448 H1443 0.949 . S
C1448 C1454 1.368 . S
C1449 C1433 1.349 . S
C1449 H1441 0.950 . S
C1449 C1447 1.327 . S
C1450 C1438 1.349 . S
C1450 H1444 0.950 . S
C1450 C1451 1.327 . S
C1451 H1445 0.950 . S
C1451 C1450 1.327 . S
C1451 C1455 1.429 . S
C1452 C1435 1.574 1_556 S
C1452 H1446 0.949 . S
C1452 C1456 1.368 . S
C1453 C1434 1.429 . S
C1453 C1447 1.429 . S
C1453 C1454 1.523 . S
C1454 C1435 1.368 . S
C1454 C1448 1.368 . S
C1454 C1453 1.523 . S
C1455 C1439 1.429 . S
C1455 C1451 1.429 . S
C1455 C1456 1.523 . S
C1456 C1440 1.368 . S
C1456 C1452 1.368 . S
C1456 C1455 1.523 . S
H1457 C1432 0.950 . S
H1458 C1434 0.950 . S
H1459 C1435 0.949 . S
H1460 C1437 0.950 . S
H1461 C1439 0.950 . S
C1462 C1463 1.349 . S
C1462 C1464 1.327 . S
C1462 H1487 0.950 . S
C1463 C1462 1.349 . S
C1463 C1479 1.349 . S
C1464 C1462 1.327 . S
C1464 C1483 1.429 . S
C1464 H1488 0.950 . S
C1465 C1482 1.574 . S
C1465 C1484 1.368 . S
C1465 H1489 0.949 . S
H1466 C1470 0.949 . S
C1467 C1468 1.349 . S
C1467 C1469 1.327 . S
C1467 H1490 0.950 . S
C1468 C1467 1.349 . S
C1468 C1480 1.349 . S
C1469 C1467 1.327 . S
C1469 C1485 1.429 . S
C1469 H1491 0.950 . S
C1470 H1466 0.949 . S
C1470 C1478 1.574 . S
C1470 C1486 1.368 . S
H1471 C1479 0.950 . S
H1472 C1477 0.950 . S
H1473 C1478 0.949 . S
H1474 C1480 0.950 . S
H1475 C1481 0.950 . S
H1476 C1482 0.949 . S
C1477 H1472 0.950 . S
C1477 C1479 1.327 . S
C1477 C1483 1.429 . S
C1478 C1470 1.574 . S
C1478 H1473 0.949 . S
C1478 C1484 1.368 . S
C1479 C1463 1.349 . S
C1479 H1471 0.950 . S
C1479 C1477 1.327 . S
C1480 C1468 1.349 . S
C1480 H1474 0.950 . S
C1480 C1481 1.327 . S
C1481 H1475 0.950 . S
C1481 C1480 1.327 . S
C1481 C1485 1.429 . S
C1482 C1465 1.574 . S
C1482 H1476 0.949 . S
C1482 C1486 1.368 . S
C1483 C1464 1.429 . S
C1483 C1477 1.429 . S
C1483 C1484 1.523 . S
C1484 C1465 1.368 . S
C1484 C1478 1.368 . S
C1484 C1483 1.523 . S
C1485 C1469 1.429 . S
C1485 C1481 1.429 . S
C1485 C1486 1.523 . S
C1486 C1470 1.368 . S
C1486 C1482 1.368 . S
C1486 C1485 1.523 . S
H1487 C1462 0.950 . S
H1488 C1464 0.950 . S
H1489 C1465 0.949 . S
H1490 C1467 0.950 . S
H1491 C1469 0.950 . S
C1492 C1493 1.349 . S
C1492 C1494 1.327 . S
C1492 H1517 0.950 . S
C1493 C1492 1.349 . S
C1493 C1509 1.349 . S
C1494 C1492 1.327 . S
C1494 C1513 1.429 . S
C1494 H1518 0.950 . S
C1495 C1512 1.574 1_554 S
C1495 C1514 1.368 . S
C1495 H1519 0.949 . S
H1496 C1500 0.949 . S
C1497 C1498 1.349 . S
C1497 C1499 1.327 . S
C1497 H1520 0.950 . S
C1498 C1497 1.349 . S
C1498 C1510 1.349 . S
C1499 C1497 1.327 . S
C1499 C1515 1.429 . S
C1499 H1521 0.950 . S
C1500 H1496 0.949 . S
C1500 C1508 1.574 1_556 S
C1500 C1516 1.368 . S
H1501 C1509 0.950 . S
H1502 C1507 0.950 . S
H1503 C1508 0.949 . S
H1504 C1510 0.950 . S
H1505 C1511 0.950 . S
H1506 C1512 0.949 . S
C1507 H1502 0.950 . S
C1507 C1509 1.327 . S
C1507 C1513 1.429 . S
C1508 C1500 1.574 1_554 S
C1508 H1503 0.949 . S
C1508 C1514 1.368 . S
C1509 C1493 1.349 . S
C1509 H1501 0.950 . S
C1509 C1507 1.327 . S
C1510 C1498 1.349 . S
C1510 H1504 0.950 . S
C1510 C1511 1.327 . S
C1511 H1505 0.950 . S
C1511 C1510 1.327 . S
C1511 C1515 1.429 . S
C1512 C1495 1.574 1_556 S
C1512 H1506 0.949 . S
C1512 C1516 1.368 . S
C1513 C1494 1.429 . S
C1513 C1507 1.429 . S
C1513 C1514 1.523 . S
C1514 C1495 1.368 . S
C1514 C1508 1.368 . S
C1514 C1513 1.523 . S
C1515 C1499 1.429 . S
C1515 C1511 1.429 . S
C1515 C1516 1.523 . S
C1516 C1500 1.368 . S
C1516 C1512 1.368 . S
C1516 C1515 1.523 . S
H1517 C1492 0.950 . S
H1518 C1494 0.950 . S
H1519 C1495 0.949 . S
H1520 C1497 0.950 . S
H1521 C1499 0.950 . S
C1522 C1523 1.349 . S
C1522 C1524 1.327 . S
C1522 H1547 0.950 . S
C1523 C1522 1.349 . S
C1523 C1539 1.349 . S
C1524 C1522 1.327 . S
C1524 C1543 1.429 . S
C1524 H1548 0.950 . S
C1525 C1542 1.574 . S
C1525 C1544 1.368 . S
C1525 H1549 0.949 . S
H1526 C1530 0.949 . S
C1527 C1528 1.349 . S
C1527 C1529 1.327 . S
C1527 H1550 0.950 . S
C1528 C1527 1.349 . S
C1528 C1540 1.349 . S
C1529 C1527 1.327 . S
C1529 C1545 1.429 . S
C1529 H1551 0.950 . S
C1530 H1526 0.949 . S
C1530 C1538 1.574 . S
C1530 C1546 1.368 . S
H1531 C1539 0.950 . S
H1532 C1537 0.950 . S
H1533 C1538 0.949 . S
H1534 C1540 0.950 . S
H1535 C1541 0.950 . S
H1536 C1542 0.949 . S
C1537 H1532 0.950 . S
C1537 C1539 1.327 . S
C1537 C1543 1.429 . S
C1538 C1530 1.574 . S
C1538 H1533 0.949 . S
C1538 C1544 1.368 . S
C1539 C1523 1.349 . S
C1539 H1531 0.950 . S
C1539 C1537 1.327 . S
C1540 C1528 1.349 . S
C1540 H1534 0.950 . S
C1540 C1541 1.327 . S
C1541 H1535 0.950 . S
C1541 C1540 1.327 . S
C1541 C1545 1.429 . S
C1542 C1525 1.574 . S
C1542 H1536 0.949 . S
C1542 C1546 1.368 . S
C1543 C1524 1.429 . S
C1543 C1537 1.429 . S
C1543 C1544 1.523 . S
C1544 C1525 1.368 . S
C1544 C1538 1.368 . S
C1544 C1543 1.523 . S
C1545 C1529 1.429 . S
C1545 C1541 1.429 . S
C1545 C1546 1.523 . S
C1546 C1530 1.368 . S
C1546 C1542 1.368 . S
C1546 C1545 1.523 . S
H1547 C1522 0.950 . S
H1548 C1524 0.950 . S
H1549 C1525 0.949 . S
H1550 C1527 0.950 . S
H1551 C1529 0.950 . S
C1552 C1553 1.349 . S
C1552 C1554 1.327 . S
C1552 H1577 0.950 . S
C1553 C1552 1.349 . S
C1553 C1569 1.349 . S
C1554 C1552 1.327 . S
C1554 C1573 1.429 . S
C1554 H1578 0.950 . S
C1555 C1572 1.574 . S
C1555 C1574 1.368 . S
C1555 H1579 0.949 . S
H1556 C1560 0.949 . S
C1557 C1558 1.349 . S
C1557 C1559 1.327 . S
C1557 H1580 0.950 . S
C1558 C1557 1.349 . S
C1558 C1570 1.349 . S
C1559 C1557 1.327 . S
C1559 C1575 1.429 . S
C1559 H1581 0.950 . S
C1560 H1556 0.949 . S
C1560 C1568 1.574 . S
C1560 C1576 1.368 . S
H1561 C1569 0.950 . S
H1562 C1567 0.950 . S
H1563 C1568 0.949 . S
H1564 C1570 0.950 . S
H1565 C1571 0.950 . S
H1566 C1572 0.949 . S
C1567 H1562 0.950 . S
C1567 C1569 1.327 . S
C1567 C1573 1.429 . S
C1568 C1560 1.574 . S
C1568 H1563 0.949 . S
C1568 C1574 1.368 . S
C1569 C1553 1.349 . S
C1569 H1561 0.950 . S
C1569 C1567 1.327 . S
C1570 C1558 1.349 . S
C1570 H1564 0.950 . S
C1570 C1571 1.327 . S
C1571 H1565 0.950 . S
C1571 C1570 1.327 . S
C1571 C1575 1.429 . S
C1572 C1555 1.574 . S
C1572 H1566 0.949 . S
C1572 C1576 1.368 . S
C1573 C1554 1.429 . S
C1573 C1567 1.429 . S
C1573 C1574 1.523 . S
C1574 C1555 1.368 . S
C1574 C1568 1.368 . S
C1574 C1573 1.523 . S
C1575 C1559 1.429 . S
C1575 C1571 1.429 . S
C1575 C1576 1.523 . S
C1576 C1560 1.368 . S
C1576 C1572 1.368 . S
C1576 C1575 1.523 . S
H1577 C1552 0.950 . S
H1578 C1554 0.950 . S
H1579 C1555 0.949 . S
H1580 C1557 0.950 . S
H1581 C1559 0.950 . S
C1582 C1583 1.349 . S
C1582 C1584 1.327 . S
C1582 H1607 0.950 . S
C1583 C1582 1.349 . S
C1583 C1599 1.349 . S
C1584 C1582 1.327 . S
C1584 C1603 1.429 . S
C1584 H1608 0.950 . S
C1585 C1602 1.574 . S
C1585 C1604 1.368 . S
C1585 H1609 0.949 . S
H1586 C1590 0.949 . S
C1587 C1588 1.349 . S
C1587 C1589 1.327 . S
C1587 H1610 0.950 . S
C1588 C1587 1.349 . S
C1588 C1600 1.349 . S
C1589 C1587 1.327 . S
C1589 C1605 1.429 . S
C1589 H1611 0.950 . S
C1590 H1586 0.949 . S
C1590 C1598 1.574 . S
C1590 C1606 1.368 . S
H1591 C1599 0.950 . S
H1592 C1597 0.950 . S
H1593 C1598 0.949 . S
H1594 C1600 0.950 . S
H1595 C1601 0.950 . S
H1596 C1602 0.949 . S
C1597 H1592 0.950 . S
C1597 C1599 1.327 . S
C1597 C1603 1.429 . S
C1598 C1590 1.574 . S
C1598 H1593 0.949 . S
C1598 C1604 1.368 . S
C1599 C1583 1.349 . S
C1599 H1591 0.950 . S
C1599 C1597 1.327 . S
C1600 C1588 1.349 . S
C1600 H1594 0.950 . S
C1600 C1601 1.327 . S
C1601 H1595 0.950 . S
C1601 C1600 1.327 . S
C1601 C1605 1.429 . S
C1602 C1585 1.574 . S
C1602 H1596 0.949 . S
C1602 C1606 1.368 . S
C1603 C1584 1.429 . S
C1603 C1597 1.429 . S
C1603 C1604 1.523 . S
C1604 C1585 1.368 . S
C1604 C1598 1.368 . S
C1604 C1603 1.523 . S
C1605 C1589 1.429 . S
C1605 C1601 1.429 . S
C1605 C1606 1.523 . S
C1606 C1590 1.368 . S
C1606 C1602 1.368 . S
C1606 C1605 1.523 . S
H1607 C1582 0.950 . S
H1608 C1584 0.950 . S
H1609 C1585 0.949 . S
H1610 C1587 0.950 . S
H1611 C1589 0.950 . S
C1612 C1613 1.349 . S
C1612 C1614 1.327 . S
C1612 H1637 0.950 . S
C1613 C1612 1.349 . S
C1613 C1629 1.349 . S
C1614 C1612 1.327 . S
C1614 C1633 1.429 . S
C1614 H1638 0.950 . S
C1615 C1632 1.574 . S
C1615 C1634 1.368 . S
C1615 H1639 0.949 . S
H1616 C1620 0.949 . S
C1617 C1618 1.349 . S
C1617 C1619 1.327 . S
C1617 H1640 0.950 . S
C1618 C1617 1.349 . S
C1618 C1630 1.349 . S
C1619 C1617 1.327 . S
C1619 C1635 1.429 . S
C1619 H1641 0.950 . S
C1620 H1616 0.949 . S
C1620 C1628 1.574 . S
C1620 C1636 1.368 . S
H1621 C1629 0.950 . S
H1622 C1627 0.950 . S
H1623 C1628 0.949 . S
H1624 C1630 0.950 . S
H1625 C1631 0.950 . S
H1626 C1632 0.949 . S
C1627 H1622 0.950 . S
C1627 C1629 1.327 . S
C1627 C1633 1.429 . S
C1628 C1620 1.574 . S
C1628 H1623 0.949 . S
C1628 C1634 1.368 . S
C1629 C1613 1.349 . S
C1629 H1621 0.950 . S
C1629 C1627 1.327 . S
C1630 C1618 1.349 . S
C1630 H1624 0.950 . S
C1630 C1631 1.327 . S
C1631 H1625 0.950 . S
C1631 C1630 1.327 . S
C1631 C1635 1.429 . S
C1632 C1615 1.574 . S
C1632 H1626 0.949 . S
C1632 C1636 1.368 . S
C1633 C1614 1.429 . S
C1633 C1627 1.429 . S
C1633 C1634 1.523 . S
C1634 C1615 1.368 . S
C1634 C1628 1.368 . S
C1634 C1633 1.523 . S
C1635 C1619 1.429 . S
C1635 C1631 1.429 . S
C1635 C1636 1.523 . S
C1636 C1620 1.368 . S
C1636 C1632 1.368 . S
C1636 C1635 1.523 . S
H1637 C1612 0.950 . S
H1638 C1614 0.950 . S
H1639 C1615 0.949 . S
H1640 C1617 0.950 . S
H1641 C1619 0.950 . S
C1642 C1643 1.349 . S
C1642 C1644 1.327 . S
C1642 H1667 0.950 . S
C1643 C1642 1.349 . S
C1643 C1659 1.349 . S
C1644 C1642 1.327 . S
C1644 C1663 1.429 . S
C1644 H1668 0.950 . S
C1645 C1662 1.574 . S
C1645 C1664 1.368 . S
C1645 H1669 0.949 . S
H1646 C1650 0.949 . S
C1647 C1648 1.349 . S
C1647 C1649 1.327 . S
C1647 H1670 0.950 . S
C1648 C1647 1.349 . S
C1648 C1660 1.349 . S
C1649 C1647 1.327 . S
C1649 C1665 1.429 . S
C1649 H1671 0.950 . S
C1650 H1646 0.949 . S
C1650 C1658 1.574 . S
C1650 C1666 1.368 . S
H1651 C1659 0.950 . S
H1652 C1657 0.950 . S
H1653 C1658 0.949 . S
H1654 C1660 0.950 . S
H1655 C1661 0.950 . S
H1656 C1662 0.949 . S
C1657 H1652 0.950 . S
C1657 C1659 1.327 . S
C1657 C1663 1.429 . S
C1658 C1650 1.574 . S
C1658 H1653 0.949 . S
C1658 C1664 1.368 . S
C1659 C1643 1.349 . S
C1659 H1651 0.950 . S
C1659 C1657 1.327 . S
C1660 C1648 1.349 . S
C1660 H1654 0.950 . S
C1660 C1661 1.327 . S
C1661 H1655 0.950 . S
C1661 C1660 1.327 . S
C1661 C1665 1.429 . S
C1662 C1645 1.574 . S
C1662 H1656 0.949 . S
C1662 C1666 1.368 . S
C1663 C1644 1.429 . S
C1663 C1657 1.429 . S
C1663 C1664 1.523 . S
C1664 C1645 1.368 . S
C1664 C1658 1.368 . S
C1664 C1663 1.523 . S
C1665 C1649 1.429 . S
C1665 C1661 1.429 . S
C1665 C1666 1.523 . S
C1666 C1650 1.368 . S
C1666 C1662 1.368 . S
C1666 C1665 1.523 . S
H1667 C1642 0.950 . S
H1668 C1644 0.950 . S
H1669 C1645 0.949 . S
H1670 C1647 0.950 . S
H1671 C1649 0.950 . S
C1672 C1673 1.349 . S
C1672 C1674 1.327 . S
C1672 H1697 0.950 . S
C1673 C1672 1.349 . S
C1673 C1689 1.349 . S
C1674 C1672 1.327 . S
C1674 C1693 1.429 . S
C1674 H1698 0.950 . S
C1675 C1692 1.574 . S
C1675 C1694 1.368 . S
C1675 H1699 0.949 . S
H1676 C1680 0.949 . S
C1677 C1678 1.349 . S
C1677 C1679 1.327 . S
C1677 H1700 0.950 . S
C1678 C1677 1.349 . S
C1678 C1690 1.349 . S
C1679 C1677 1.327 . S
C1679 C1695 1.429 . S
C1679 H1701 0.950 . S
C1680 H1676 0.949 . S
C1680 C1688 1.574 . S
C1680 C1696 1.368 . S
H1681 C1689 0.950 . S
H1682 C1687 0.950 . S
H1683 C1688 0.949 . S
H1684 C1690 0.950 . S
H1685 C1691 0.950 . S
H1686 C1692 0.949 . S
C1687 H1682 0.950 . S
C1687 C1689 1.327 . S
C1687 C1693 1.429 . S
C1688 C1680 1.574 . S
C1688 H1683 0.949 . S
C1688 C1694 1.368 . S
C1689 C1673 1.349 . S
C1689 H1681 0.950 . S
C1689 C1687 1.327 . S
C1690 C1678 1.349 . S
C1690 H1684 0.950 . S
C1690 C1691 1.327 . S
C1691 H1685 0.950 . S
C1691 C1690 1.327 . S
C1691 C1695 1.429 . S
C1692 C1675 1.574 . S
C1692 H1686 0.949 . S
C1692 C1696 1.368 . S
C1693 C1674 1.429 . S
C1693 C1687 1.429 . S
C1693 C1694 1.523 . S
C1694 C1675 1.368 . S
C1694 C1688 1.368 . S
C1694 C1693 1.523 . S
C1695 C1679 1.429 . S
C1695 C1691 1.429 . S
C1695 C1696 1.523 . S
C1696 C1680 1.368 . S
C1696 C1692 1.368 . S
C1696 C1695 1.523 . S
H1697 C1672 0.950 . S
H1698 C1674 0.950 . S
H1699 C1675 0.949 . S
H1700 C1677 0.950 . S
H1701 C1679 0.950 . S
C1702 C1703 1.349 . S
C1702 C1704 1.327 . S
C1702 H1727 0.950 . S
C1703 C1702 1.349 . S
C1703 C1719 1.349 . S
C1704 C1702 1.327 . S
C1704 C1723 1.429 . S
C1704 H1728 0.950 . S
C1705 C1722 1.574 . S
C1705 C1724 1.368 . S
C1705 H1729 0.949 . S
H1706 C1710 0.949 . S
C1707 C1708 1.349 . S
C1707 C1709 1.327 . S
C1707 H1730 0.950 . S
C1708 C1707 1.349 . S
C1708 C1720 1.349 . S
C1709 C1707 1.327 . S
C1709 C1725 1.429 . S
C1709 H1731 0.950 . S
C1710 H1706 0.949 . S
C1710 C1718 1.574 . S
C1710 C1726 1.368 . S
H1711 C1719 0.950 . S
H1712 C1717 0.950 . S
H1713 C1718 0.949 . S
H1714 C1720 0.950 . S
H1715 C1721 0.950 . S
H1716 C1722 0.949 . S
C1717 H1712 0.950 . S
C1717 C1719 1.327 . S
C1717 C1723 1.429 . S
C1718 C1710 1.574 . S
C1718 H1713 0.949 . S
C1718 C1724 1.368 . S
C1719 C1703 1.349 . S
C1719 H1711 0.950 . S
C1719 C1717 1.327 . S
C1720 C1708 1.349 . S
C1720 H1714 0.950 . S
C1720 C1721 1.327 . S
C1721 H1715 0.950 . S
C1721 C1720 1.327 . S
C1721 C1725 1.429 . S
C1722 C1705 1.574 . S
C1722 H1716 0.949 . S
C1722 C1726 1.368 . S
C1723 C1704 1.429 . S
C1723 C1717 1.429 . S
C1723 C1724 1.523 . S
C1724 C1705 1.368 . S
C1724 C1718 1.368 . S
C1724 C1723 1.523 . S
C1725 C1709 1.429 . S
C1725 C1721 1.429 . S
C1725 C1726 1.523 . S
C1726 C1710 1.368 . S
C1726 C1722 1.368 . S
C1726 C1725 1.523 . S
H1727 C1702 0.950 . S
H1728 C1704 0.950 . S
H1729 C1705 0.949 . S
H1730 C1707 0.950 . S
H1731 C1709 0.950 . S
C1732 C1733 1.349 . S
C1732 C1734 1.327 . S
C1732 H1757 0.950 . S
C1733 C1732 1.349 . S
C1733 C1749 1.349 . S
C1734 C1732 1.327 . S
C1734 C1753 1.429 . S
C1734 H1758 0.950 . S
C1735 C1752 1.574 . S
C1735 C1754 1.368 . S
C1735 H1759 0.949 . S
H1736 C1740 0.949 . S
C1737 C1738 1.349 . S
C1737 C1739 1.327 . S
C1737 H1760 0.950 . S
C1738 C1737 1.349 . S
C1738 C1750 1.349 . S
C1739 C1737 1.327 . S
C1739 C1755 1.429 . S
C1739 H1761 0.950 . S
C1740 H1736 0.949 . S
C1740 C1748 1.574 . S
C1740 C1756 1.368 . S
H1741 C1749 0.950 . S
H1742 C1747 0.950 . S
H1743 C1748 0.949 . S
H1744 C1750 0.950 . S
H1745 C1751 0.950 . S
H1746 C1752 0.949 . S
C1747 H1742 0.950 . S
C1747 C1749 1.327 . S
C1747 C1753 1.429 . S
C1748 C1740 1.574 . S
C1748 H1743 0.949 . S
C1748 C1754 1.368 . S
C1749 C1733 1.349 . S
C1749 H1741 0.950 . S
C1749 C1747 1.327 . S
C1750 C1738 1.349 . S
C1750 H1744 0.950 . S
C1750 C1751 1.327 . S
C1751 H1745 0.950 . S
C1751 C1750 1.327 . S
C1751 C1755 1.429 . S
C1752 C1735 1.574 . S
C1752 H1746 0.949 . S
C1752 C1756 1.368 . S
C1753 C1734 1.429 . S
C1753 C1747 1.429 . S
C1753 C1754 1.523 . S
C1754 C1735 1.368 . S
C1754 C1748 1.368 . S
C1754 C1753 1.523 . S
C1755 C1739 1.429 . S
C1755 C1751 1.429 . S
C1755 C1756 1.523 . S
C1756 C1740 1.368 . S
C1756 C1752 1.368 . S
C1756 C1755 1.523 . S
H1757 C1732 0.950 . S
H1758 C1734 0.950 . S
H1759 C1735 0.949 . S
H1760 C1737 0.950 . S
H1761 C1739 0.950 . S
C1762 C1763 1.349 . S
C1762 C1764 1.327 . S
C1762 H1787 0.950 . S
C1763 C1762 1.349 . S
C1763 C1779 1.349 . S
C1764 C1762 1.327 . S
C1764 C1783 1.429 . S
C1764 H1788 0.950 . S
C1765 C1782 1.574 . S
C1765 C1784 1.368 . S
C1765 H1789 0.949 . S
H1766 C1770 0.949 . S
C1767 C1768 1.349 . S
C1767 C1769 1.327 . S
C1767 H1790 0.950 . S
C1768 C1767 1.349 . S
C1768 C1780 1.349 . S
C1769 C1767 1.327 . S
C1769 C1785 1.429 . S
C1769 H1791 0.950 . S
C1770 H1766 0.949 . S
C1770 C1778 1.574 . S
C1770 C1786 1.368 . S
H1771 C1779 0.950 . S
H1772 C1777 0.950 . S
H1773 C1778 0.949 . S
H1774 C1780 0.950 . S
H1775 C1781 0.950 . S
H1776 C1782 0.949 . S
C1777 H1772 0.950 . S
C1777 C1779 1.327 . S
C1777 C1783 1.429 . S
C1778 C1770 1.574 . S
C1778 H1773 0.949 . S
C1778 C1784 1.368 . S
C1779 C1763 1.349 . S
C1779 H1771 0.950 . S
C1779 C1777 1.327 . S
C1780 C1768 1.349 . S
C1780 H1774 0.950 . S
C1780 C1781 1.327 . S
C1781 H1775 0.950 . S
C1781 C1780 1.327 . S
C1781 C1785 1.429 . S
C1782 C1765 1.574 . S
C1782 H1776 0.949 . S
C1782 C1786 1.368 . S
C1783 C1764 1.429 . S
C1783 C1777 1.429 . S
C1783 C1784 1.523 . S
C1784 C1765 1.368 . S
C1784 C1778 1.368 . S
C1784 C1783 1.523 . S
C1785 C1769 1.429 . S
C1785 C1781 1.429 . S
C1785 C1786 1.523 . S
C1786 C1770 1.368 . S
C1786 C1782 1.368 . S
C1786 C1785 1.523 . S
H1787 C1762 0.950 . S
H1788 C1764 0.950 . S
H1789 C1765 0.949 . S
H1790 C1767 0.950 . S
H1791 C1769 0.950 . S
C353 C9 1.420 . S
C358 C314 1.529 . S
C383 C31 1.420 . S
C388 C336 1.529 . S
C413 C49 1.420 . S
C418 C271 1.529 . S
C443 C292 1.529 . S
C448 C75 1.420 . S
C473 C229 1.529 . S
C478 C94 1.420 . S
C503 C247 1.529 . S
C508 C117 1.420 . S
C533 C181 1.529 . S
C538 C139 1.420 . S
C563 C203 1.529 . S
C568 C161 1.420 . S
C593 C185 1.420 . S
C598 C138 1.529 . S
C623 C160 1.529 . S
C628 C207 1.420 . S
C653 C95 1.529 . S
C658 C225 1.420 . S
C683 C116 1.529 . S
C688 C251 1.420 . S
C713 C53 1.529 . S
C718 C270 1.420 . S
C743 C293 1.420 . S
C748 C71 1.529 . S
C773 C5 1.529 . S
C778 C315 1.420 . S
C803 C337 1.420 . S
C808 C27 1.529 . S
C833 C4 1.561 . S
C838 C52 1.561 . S
C863 C70 1.561 . S
C868 C26 1.561 . S
C893 C136 1.561 . S
C898 C96 1.561 . S
C923 C158 1.561 . S
C928 C114 1.561 . S
C953 C228 1.561 . S
C958 C180 1.561 . S
C983 C246 1.561 . S
C988 C202 1.561 . S
C1013 C312 1.561 . S
C1018 C272 1.561 . S
C1043 C290 1.561 . S
C1048 C334 1.561 . S
C1073 C8 1.518 . S
C1078 C140 1.518 . S
C1103 C30 1.518 . S
C1108 C162 1.518 . S
C1133 C92 1.518 . S
C1138 C48 1.518 . S
C1163 C74 1.518 . S
C1168 C118 1.518 . S
C1193 C184 1.518 . S
C1198 C316 1.518 . S
C1223 C338 1.518 . S
C1228 C206 1.518 . S
C1253 C268 1.518 . S
C1258 C224 1.518 . S
C1283 C250 1.518 . S
C1288 C294 1.518 . S
C1313 C6 0.573 . S
C1318 C273 0.573 . S
C1343 C291 0.573 . S
C1348 C28 0.573 . S
C1373 C313 0.573 . S
C1378 C51 0.573 . S
C1403 C335 0.573 . S
C1408 C72 0.573 . S
C1433 C182 0.573 . S
C1438 C97 0.573 . S
C1463 C204 0.573 . S
C1468 C115 0.573 . S
C1493 C137 0.573 . S
C1498 C227 0.573 . S
C1523 C248 0.573 . S
C1528 C159 0.573 . S
C1553 C7 1.432 . S
C1558 C119 1.432 . S
C1583 C93 1.432 . S
C1588 C29 1.432 . S
C1613 C50 1.432 . S
C1618 C163 1.432 . S
C1643 C141 1.432 . S
C1648 C73 1.432 . S
C1673 C183 1.432 . S
C1678 C295 1.432 . S
C1703 C269 1.432 . S
C1708 C205 1.432 . S
C1733 C339 1.432 . S
C1738 C226 1.432 . S
C1763 C249 1.432 . S
C1768 C317 1.432 . S
