# Generated by pormake.
# Topology uni, (4)-cn, num edge types: 1
# Building blocks:
#     Node 0, Type 0, BuildingBlock: NAHDIM_clean_sbu_0, # of connection points: 4
#     Node 1, Type 0, BuildingBlock: NAHDIM_clean_sbu_0, # of connection points: 4
#     Node 2, Type 0, BuildingBlock: NAHDIM_clean_sbu_0, # of connection points: 4
#     Node 3, Type 0, BuildingBlock: NAHDIM_clean_sbu_0, # of connection points: 4
#     Node 4, Type 0, BuildingBlock: NAHDIM_clean_sbu_0, # of connection points: 4
#     Node 5, Type 0, BuildingBlock: NAHDIM_clean_sbu_0, # of connection points: 4
#     Edge 6, Type (0, 0), BuildingBlock: XIVTED_clean_linker_0, # of connection points: 2
#     Edge 7, Type (0, 0), BuildingBlock: XIVTED_clean_linker_0, # of connection points: 2
#     Edge 8, Type (0, 0), BuildingBlock: XIVTED_clean_linker_0, # of connection points: 2
#     Edge 9, Type (0, 0), BuildingBlock: XIVTED_clean_linker_0, # of connection points: 2
#     Edge 10, Type (0, 0), BuildingBlock: XIVTED_clean_linker_0, # of connection points: 2
#     Edge 11, Type (0, 0), BuildingBlock: XIVTED_clean_linker_0, # of connection points: 2
#     Edge 12, Type (0, 0), BuildingBlock: XIVTED_clean_linker_0, # of connection points: 2
#     Edge 13, Type (0, 0), BuildingBlock: XIVTED_clean_linker_0, # of connection points: 2
#     Edge 14, Type (0, 0), BuildingBlock: XIVTED_clean_linker_0, # of connection points: 2
#     Edge 15, Type (0, 0), BuildingBlock: XIVTED_clean_linker_0, # of connection points: 2
#     Edge 16, Type (0, 0), BuildingBlock: XIVTED_clean_linker_0, # of connection points: 2
#     Edge 17, Type (0, 0), BuildingBlock: XIVTED_clean_linker_0, # of connection points: 2
# Relax obj value: 0.045
# Max RMSD: 0.077
# Mean RMSD: 0.077
data_MOF--net-uni--node1-NAHDIM_clean_sbu_0--edge1-XIVTED_clean_linker_0
_symmetry_space_group_name_H-M    P1
_symmetry_Int_Tables_number       1
_symmetry_cell_setting            triclinic
loop_
_symmetry_equiv_pos_as_xyz
'x, y, z'
_cell_length_a     39.456797
_cell_length_b     39.419406
_cell_length_c     23.49195
_cell_angle_alpha  89.921203
_cell_angle_beta   89.982462
_cell_angle_gamma 119.91019
loop_
_atom_site_label
_atom_site_type_symbol
_atom_site_fract_x
_atom_site_fract_y
_atom_site_fract_z
_atom_type_partial_charge
C0 C 0.65218 0.94318 0.06694 0.0
O1 O 0.66782 0.95863 0.01744 0.0
O2 O 0.68749 0.04982 0.0537 0.0
Zn3 Zn 0.63326 0.00524 0.06977 0.0
O4 O 0.60708 0.01964 0.13123 0.0
C5 C 0.59777 0.02303 0.98088 0.0
O6 O 0.61386 0.05553 0.01067 0.0
O7 O 0.63561 0.95804 0.09578 0.0
C8 C 0.57001 0.00329 0.13205 0.0
O9 O 0.54962 0.97688 0.09334 0.0
C10 C 0.69868 0.08422 0.0716 0.0
O11 O 0.67511 0.0904 0.10388 0.0
O12 O 0.60201 -0.00531 -0.00238 0.0
C13 C 0.72834 0.65975 0.22526 0.0
O14 O 0.72768 0.69265 0.22909 0.0
O15 O 0.65623 0.68157 0.17469 0.0
Zn16 Zn 0.64735 0.62767 0.19181 0.0
O17 O 0.61324 0.60324 0.26054 0.0
C18 C 0.59365 0.59768 0.10079 0.0
O19 O 0.58622 0.62443 0.12064 0.0
O20 O 0.69805 0.62904 0.20803 0.0
C21 C 0.5814 0.60229 0.27276 0.0
O22 O 0.56832 0.62003 0.2395 0.0
C23 C 0.6538 0.70445 0.21037 0.0
O24 O 0.64625 0.69384 0.26401 0.0
O25 O 0.62024 0.5933 0.12427 0.0
C26 C 0.0846 0.72534 0.47837 0.0
O27 O 0.05728 0.70478 0.51598 0.0
O28 O 0.98792 0.67086 0.38841 0.0
Zn29 Zn 0.03289 0.66224 0.4065 0.0
O30 O 0.01958 0.62428 0.47158 0.0
C31 C 0.02284 0.60277 0.32815 0.0
O32 O -0.00413 0.58124 0.36562 0.0
O33 O 0.08043 0.71307 0.42742 0.0
C34 C 0.04125 0.60932 0.47925 0.0
O35 O 0.07154 0.6198 0.44568 0.0
C36 C 0.95305 0.64255 0.39202 0.0
O37 O 0.94684 0.60862 0.41128 0.0
O38 O 0.04351 0.63945 0.33629 0.0
C39 C 0.38364 0.09131 0.62473 0.0
O40 O 0.38036 0.06698 0.66545 0.0
O41 O 0.3536 0.99232 0.54932 0.0
Zn42 Zn 0.40401 0.04221 0.5628 0.0
O43 O 0.43179 0.03786 0.63142 0.0
C44 C 0.42284 0.04414 0.44513 0.0
O45 O 0.38538 0.03214 0.43993 0.0
O46 O 0.39343 0.08656 0.57509 0.0
C47 C 0.43857 0.01 0.64024 0.0
O48 O 0.42645 0.98136 0.60316 0.0
C49 C 0.33018 0.97063 0.58782 0.0
O50 O 0.33851 0.98053 0.64152 0.0
O51 O 0.43814 0.05194 0.49438 0.0
C52 C 0.29286 0.3762 0.7352 0.0
O53 O 0.29821 0.34902 0.75879 0.0
O54 O 0.36401 0.35021 0.68046 0.0
Zn55 Zn 0.37103 0.40396 0.69227 0.0
O56 O 0.40423 0.43025 0.76096 0.0
C57 C 0.42528 0.43314 0.60048 0.0
O58 O 0.4335 0.40707 0.62105 0.0
O59 O 0.3195 0.40186 0.70362 0.0
C60 C 0.4355 0.43025 0.77397 0.0
O61 O 0.44753 0.41097 0.74209 0.0
C62 C 0.36383 0.32836 0.72041 0.0
O63 O 0.36689 0.34012 0.77341 0.0
O64 O 0.39837 0.43709 0.62372 0.0
C65 C 0.94237 0.31144 0.91334 0.0
O66 O 0.97017 0.30739 0.88917 0.0
O67 O 0.04049 0.38612 0.88212 0.0
Zn68 Zn -0.00357 0.39566 0.90276 0.0
O69 O 0.01042 0.42881 0.97295 0.0
C70 C -0.01062 0.41395 0.78698 0.0
O71 O -0.00528 0.38408 0.77758 0.0
O72 O 0.94734 0.34552 0.92104 0.0
C73 C 0.02665 0.4659 0.97272 0.0
O74 O 0.03637 0.48482 0.92399 0.0
C75 C 0.0708 0.41384 0.85898 0.0
O76 O 0.07265 0.44771 0.85097 0.0
O77 O 0.98746 0.42356 0.83796 0.0
H78 H 0.60198 0.04994 0.22576 0.0
H79 H 0.39682 0.01951 0.33683 0.0
H80 H 0.49236 0.9804 0.13826 0.0
H81 H 0.50108 0.0684 0.4402 0.0
H82 H 0.43373 0.0135 0.25789 0.0
H83 H 0.56748 0.06482 0.29938 0.0
C84 C 0.5707 0.03792 0.22191 0.0
C85 C 0.54996 0.01363 0.17603 0.0
C86 C 0.44858 0.02575 0.29775 0.0
C87 C 0.51042 0.03072 0.25987 0.0
C88 C 0.42757 0.02934 0.3428 0.0
C89 C 0.4458 0.04416 0.39539 0.0
C90 C 0.48817 0.03719 0.30522 0.0
C91 C 0.48576 0.05654 0.40054 0.0
C92 C 0.55104 0.04641 0.26396 0.0
C93 C 0.50948 -0.00101 0.17311 0.0
N94 N 0.50557 0.05259 0.35609 0.0
N95 N 0.49104 0.00771 0.21451 0.0
H96 H 0.51301 0.59483 0.31502 0.0
H97 H 0.48872 0.43642 0.54865 0.0
H98 H 0.59737 0.55723 0.34382 0.0
H99 H 0.41376 0.48708 0.5423 0.0
H100 H 0.5268 0.47855 0.47004 0.0
H101 H 0.4745 0.5541 0.39539 0.0
C102 C 0.52351 0.57816 0.3383 0.0
C103 C 0.55843 0.57939 0.32257 0.0
C104 C 0.50207 0.48055 0.48582 0.0
C105 C 0.51447 0.53266 0.41409 0.0
C106 C 0.48019 0.45637 0.53066 0.0
C107 C 0.44799 0.45822 0.55213 0.0
C108 C 0.49163 0.50671 0.46189 0.0
C109 C 0.43841 0.48473 0.52709 0.0
C110 C 0.50152 0.55494 0.38414 0.0
C111 C 0.57064 0.55721 0.35431 0.0
N112 N 0.46012 0.50793 0.48316 0.0
N113 N 0.54863 0.53468 0.39831 0.0
H114 H 0.97072 0.47219 0.7886 0.0
H115 H 0.06897 0.55851 0.48852 0.0
H116 H 0.01299 0.41415 0.67757 0.0
H117 H -0.00896 0.59093 0.56955 0.0
H118 H 0.05239 0.50824 0.56113 0.0
H119 H 0.98056 0.51832 0.71186 0.0
C120 C 0.98172 0.46893 0.74794 0.0
C121 C -0.00881 0.43938 0.73949 0.0
C122 C 0.03879 0.52624 0.5629 0.0
C123 C 0.00302 0.4923 0.65206 0.0
C124 C 0.04843 0.55511 0.52169 0.0
C125 C 0.03145 0.57901 0.52317 0.0
C126 C 0.01242 0.52159 0.60641 0.0
C127 C 0.00478 0.5731 0.56688 0.0
C128 C 0.98729 0.49523 0.70421 0.0
C129 C 0.00528 0.43645 0.68595 0.0
N130 N -0.00372 0.54513 0.6071 0.0
N131 N 0.01118 0.46287 0.64446 0.0
H132 H 0.56087 0.96089 0.90713 0.0
H133 H 0.4699 0.06661 0.72177 0.0
H134 H 0.5808 0.0773 0.93902 0.0
H135 H 0.45849 0.95551 0.67472 0.0
H136 H 0.50818 0.0689 0.80424 0.0
H137 H 0.52124 0.95645 0.82401 0.0
C138 C 0.55696 0.98549 0.89666 0.0
C139 C 0.57418 0.01953 0.93007 0.0
C140 C 0.49735 0.04397 0.77598 0.0
C141 C 0.5289 0.01458 0.83547 0.0
C142 C 0.47538 0.04259 0.72881 0.0
C143 C 0.46102 0.01084 0.69112 0.0
C144 C 0.50506 0.01333 0.78589 0.0
C145 C 0.46907 0.98059 0.70262 0.0
C146 C 0.53437 0.98294 0.84925 0.0
C147 C 0.56815 0.05049 0.91457 0.0
N148 N 0.4906 0.98257 0.74905 0.0
N149 N 0.546 0.04723 0.86854 0.0
H150 H 0.53098 0.59587 0.04899 0.0
H151 H 0.50252 0.43532 0.81734 0.0
H152 H 0.60343 0.54238 0.04341 0.0
H153 H 0.42151 0.47748 0.8433 0.0
H154 H 0.5414 0.47544 0.89761 0.0
H155 H 0.49237 0.55422 0.97065 0.0
C156 C 0.53884 0.57538 0.03123 0.0
C157 C 0.57053 0.57263 0.05281 0.0
C158 C 0.51504 0.47576 0.88576 0.0
C159 C 0.52625 0.52467 0.96281 0.0
C160 C 0.49284 0.45289 0.83996 0.0
C161 C 0.45874 0.4531 0.82348 0.0
C162 C 0.50313 0.49912 0.91498 0.0
C163 C 0.44758 0.47639 0.85439 0.0
C164 C 0.51666 0.55148 0.98652 0.0
C165 C 0.57922 0.54543 0.02809 0.0
N166 N 0.46978 0.49853 0.89843 0.0
N167 N 0.55722 0.52252 0.98425 0.0
H168 H 0.00532 0.43468 0.07934 0.0
H169 H 0.06633 0.63841 0.23245 0.0
H170 H 0.0587 0.54503 0.98943 0.0
H171 H -0.00836 0.52489 0.3075 0.0
H172 H 0.0718 0.60607 0.14662 0.0
H173 H 0.00861 0.4689 0.16713 0.0
C174 C 0.01799 0.46618 0.07806 0.0
C175 C 0.03145 0.48698 0.02677 0.0
C176 C 0.05436 0.58834 0.18204 0.0
C177 C 0.03519 0.52639 0.12745 0.0
C178 C 0.05129 0.60674 0.23102 0.0
C179 C 0.02828 0.58428 0.27701 0.0
C180 C 0.03454 0.54728 0.17941 0.0
C181 C 0.00945 0.54338 0.27292 0.0
C182 C 0.01976 0.4857 0.12828 0.0
C183 C 0.04775 0.5278 0.02794 0.0
N184 N 0.01297 0.52623 0.225 0.0
N185 N 0.049 0.54621 0.0775 0.0
H186 H 0.67556 0.73768 0.1048 0.0
H187 H 0.62829 0.90846 0.17138 0.0
H188 H 0.63937 0.75562 0.27018 0.0
H189 H 0.68049 0.90039 0.01411 0.0
H190 H 0.63126 0.85201 0.20784 0.0
H191 H 0.67713 0.79691 0.07063 0.0
C192 C 0.66811 0.75418 0.13405 0.0
C193 C 0.65717 0.74158 0.19043 0.0
C194 C 0.64218 0.86264 0.16542 0.0
C195 C 0.6587 0.80937 0.15137 0.0
C196 C 0.64039 0.89483 0.14446 0.0
C197 C 0.65407 0.90913 0.08948 0.0
C198 C 0.65753 0.84441 0.13109 0.0
C199 C 0.66957 0.89034 0.05669 0.0
C200 C 0.66905 0.78803 0.11448 0.0
C201 C 0.64796 0.76423 0.2264 0.0
N202 N 0.67074 0.85885 0.07793 0.0
N203 N 0.6487 0.79691 0.20615 0.0
H204 H 0.95425 0.7092 0.35506 0.0
H205 H 0.73411 0.59413 0.24186 0.0
H206 H 0.87718 0.58495 0.37723 0.0
H207 H 0.80001 0.71998 0.25742 0.0
H208 H 0.78891 0.59046 0.28316 0.0
H209 H 0.90015 0.71402 0.31261 0.0
C210 C 0.92593 0.68298 0.35129 0.0
C211 C 0.92022 0.6466 0.36971 0.0
C212 C 0.79142 0.61889 0.27746 0.0
C213 C 0.85846 0.65188 0.32066 0.0
C214 C 0.76022 0.62105 0.25355 0.0
C215 C 0.76243 0.65744 0.2463 0.0
C216 C 0.82525 0.65338 0.29387 0.0
C217 C 0.79699 0.6913 0.26243 0.0
C218 C 0.8951 0.68577 0.32703 0.0
C219 C 0.88292 0.61361 0.36373 0.0
N220 N 0.82709 0.68846 0.28547 0.0
N221 N 0.85354 0.61701 0.33945 0.0
H222 H 0.10479 0.75756 0.58483 0.0
H223 H 0.30645 0.94075 0.48107 0.0
H224 H 0.14554 0.77611 0.41082 0.0
H225 H 0.27119 0.91844 0.65748 0.0
H226 H 0.24653 0.88147 0.45459 0.0
H227 H 0.16435 0.81738 0.6122 0.0
C228 C 0.12621 0.77423 0.55234 0.0
C229 C 0.12016 0.76179 0.49542 0.0
C230 C 0.25185 0.88947 0.49912 0.0
C231 C 0.18839 0.83025 0.5265 0.0
C232 C 0.28609 0.92338 0.51432 0.0
C233 C 0.29389 0.9346 0.57165 0.0
C234 C 0.22502 0.86653 0.54147 0.0
C235 C 0.2664 0.91088 0.61279 0.0
C236 C 0.16024 0.80835 0.56804 0.0
C237 C 0.14895 0.78455 0.45519 0.0
N238 N 0.23314 0.87796 0.59688 0.0
N239 N 0.18178 0.81766 0.47152 0.0
H240 H 0.36076 0.27318 0.79458 0.0
H241 H 0.385 0.14563 0.55029 0.0
H242 H 0.36483 0.29912 0.61523 0.0
H243 H 0.36832 0.11283 0.72789 0.0
H244 H 0.37704 0.20173 0.57311 0.0
H245 H 0.36271 0.21383 0.77095 0.0
C246 C 0.36186 0.26631 0.75023 0.0
C247 C 0.36276 0.29124 0.70684 0.0
C248 C 0.37496 0.18216 0.60705 0.0
C249 C 0.36521 0.22346 0.67949 0.0
C250 C 0.37955 0.15014 0.59405 0.0
C251 C 0.37747 0.12457 0.63728 0.0
C252 C 0.36844 0.18878 0.66373 0.0
C253 C 0.37022 0.13181 0.6932 0.0
C254 C 0.36296 0.23241 0.73676 0.0
C255 C 0.36412 0.2808 0.6501 0.0
N256 N 0.36616 0.16333 0.70484 0.0
N257 N 0.36552 0.24783 0.6381 0.0
H258 H 0.13556 0.46444 0.79811 0.0
H259 H 0.22953 0.32569 0.79934 0.0
H260 H 0.07902 0.3493 0.87415 0.0
H261 H 0.27668 0.43353 0.70389 0.0
H262 H 0.17433 0.33367 0.82784 0.0
H263 H 0.1881 0.45387 0.76476 0.0
C264 C 0.13421 0.43693 0.80791 0.0
C265 C 0.1029 0.40775 0.83914 0.0
C266 C 0.19665 0.35546 0.8004 0.0
C267 C 0.16301 0.39542 0.80092 0.0
C268 C 0.22817 0.35092 0.78407 0.0
C269 C 0.25787 0.37907 0.74934 0.0
C270 C 0.19494 0.38851 0.78216 0.0
C271 C 0.25451 0.41112 0.73077 0.0
C272 C 0.16418 0.43086 0.78864 0.0
C273 C 0.10264 0.37262 0.85028 0.0
N274 N 0.22375 0.41508 0.74769 0.0
N275 N 0.13233 0.36748 0.83133 0.0
H276 H 0.92014 0.23366 0.90284 0.0
H277 H 0.72831 0.16192 0.09429 0.0
H278 H 0.88322 0.31086 0.9745 0.0
H279 H 0.75422 0.08238 0.00338 0.0
H280 H 0.78793 0.21683 0.05607 0.0
H281 H 0.86176 0.17771 0.94332 0.0
C282 C 0.89974 0.23886 0.9269 0.0
C283 C 0.90659 0.27702 0.93525 0.0
C284 C 0.78065 0.18737 0.04453 0.0
C285 C 0.84004 0.21327 0.98199 0.0
C286 C 0.74665 0.15596 0.06655 0.0
C287 C 0.73615 0.11747 0.05186 0.0
C288 C 0.80448 0.18034 0.00761 0.0
C289 C 0.76113 0.11159 0.01572 0.0
C290 C 0.86647 0.20692 0.95003 0.0
C291 C 0.87917 0.282 0.96684 0.0
N292 N 0.79411 0.14271 0.99471 0.0
N293 N 0.84722 0.25054 0.98914 0.0
loop_
_geom_bond_atom_site_label_1
_geom_bond_atom_site_label_2
_geom_bond_distance
_geom_bond_site_symmetry_2
_ccdc_geom_bond_type
C0 O1 1.160 . S
C0 O7 1.185 . S
O1 C0 1.160 . S
O2 Zn3 1.899 . S
O2 C10 1.284 . S
Zn3 O2 1.899 . S
Zn3 O4 2.032 . S
Zn3 O7 2.086 1_545 S
Zn3 O12 1.982 1_544 S
O4 Zn3 2.032 . S
O4 C8 1.278 . S
C5 O6 1.203 . S
C5 O12 1.238 1_545 S
O6 C5 1.203 . S
O7 C0 1.185 . S
O7 Zn3 2.086 1_565 S
C8 O4 1.278 . S
C8 O9 1.211 . S
O9 C8 1.211 . S
C10 O2 1.284 . S
C10 O11 1.273 . S
O11 C10 1.273 . S
O12 Zn3 1.982 1_566 S
O12 C5 1.238 1_565 S
C13 O14 1.160 . S
C13 O20 1.185 . S
O14 C13 1.160 . S
O15 Zn16 1.899 . S
O15 C23 1.284 . S
Zn16 O15 1.899 . S
Zn16 O17 2.032 . S
Zn16 O20 2.086 . S
Zn16 O25 1.977 . S
O17 Zn16 2.032 . S
O17 C21 1.278 . S
C18 O19 1.203 . S
C18 O25 1.267 . S
O19 C18 1.203 . S
O20 C13 1.185 . S
O20 Zn16 2.086 . S
C21 O17 1.278 . S
C21 O22 1.211 . S
O22 C21 1.211 . S
C23 O15 1.284 . S
C23 O24 1.273 . S
O24 C23 1.273 . S
O25 Zn16 1.977 . S
O25 C18 1.267 . S
C26 O27 1.160 . S
C26 O33 1.185 . S
O27 C26 1.160 . S
O28 Zn29 1.899 . S
O28 C36 1.284 1_455 S
Zn29 O28 1.899 . S
Zn29 O30 2.032 . S
Zn29 O33 2.086 . S
Zn29 O38 1.977 . S
O30 Zn29 2.032 . S
O30 C34 1.278 . S
C31 O32 1.203 1_455 S
C31 O38 1.267 . S
O32 C31 1.203 1_655 S
O33 C26 1.185 . S
O33 Zn29 2.086 . S
C34 O30 1.278 . S
C34 O35 1.211 . S
O35 C34 1.211 . S
C36 O28 1.284 1_655 S
C36 O37 1.273 . S
O37 C36 1.273 . S
O38 Zn29 1.977 . S
O38 C31 1.267 . S
C39 O40 1.160 . S
C39 O46 1.185 . S
O40 C39 1.160 . S
O41 Zn42 1.899 . S
O41 C49 1.284 1_545 S
Zn42 O41 1.899 . S
Zn42 O43 2.032 . S
Zn42 O46 2.086 . S
Zn42 O51 1.977 . S
O43 Zn42 2.032 . S
O43 C47 1.278 . S
C44 O45 1.203 1_545 S
C44 O51 1.267 . S
O45 C44 1.203 1_565 S
O46 C39 1.185 . S
O46 Zn42 2.086 . S
C47 O43 1.278 . S
C47 O48 1.211 . S
O48 C47 1.211 . S
C49 O41 1.284 1_565 S
C49 O50 1.273 . S
O50 C49 1.273 . S
O51 Zn42 1.977 . S
O51 C44 1.267 . S
C52 O53 1.160 . S
C52 O59 1.185 . S
O53 C52 1.160 . S
O54 Zn55 1.899 . S
O54 C62 1.284 . S
Zn55 O54 1.899 . S
Zn55 O56 2.032 . S
Zn55 O59 2.086 . S
Zn55 O64 1.977 . S
O56 Zn55 2.032 . S
O56 C60 1.278 . S
C57 O58 1.203 . S
C57 O64 1.267 . S
O58 C57 1.203 . S
O59 C52 1.185 . S
O59 Zn55 2.086 . S
C60 O56 1.278 . S
C60 O61 1.211 . S
O61 C60 1.211 . S
C62 O54 1.284 . S
C62 O63 1.273 . S
O63 C62 1.273 . S
O64 Zn55 1.977 . S
O64 C57 1.267 . S
C65 O66 1.160 . S
C65 O72 1.185 . S
O66 C65 1.160 . S
O67 Zn68 1.899 . S
O67 C75 1.284 . S
Zn68 O67 1.899 . S
Zn68 O69 2.032 . S
Zn68 O72 2.086 1_455 S
Zn68 O77 1.977 1_455 S
O69 Zn68 2.032 . S
O69 C73 1.278 . S
C70 O71 1.203 . S
C70 O77 1.267 1_455 S
O71 C70 1.203 . S
O72 C65 1.185 . S
O72 Zn68 2.086 1_655 S
C73 O69 1.278 . S
C73 O74 1.211 . S
O74 C73 1.211 . S
C75 O67 1.284 . S
C75 O76 1.273 . S
O76 C75 1.273 . S
O77 Zn68 1.977 1_655 S
O77 C70 1.267 1_655 S
H78 C84 0.930 . S
H79 C88 0.930 . S
H80 C93 0.929 . S
H81 C91 0.929 . S
H82 C86 0.929 . S
H83 C92 0.929 . S
C84 H78 0.930 . S
C84 C85 1.367 . S
C84 C92 1.378 . S
C85 C84 1.367 . S
C85 C93 1.433 . S
C86 H82 0.929 . S
C86 C88 1.378 . S
C86 C90 1.350 . S
C87 C90 1.463 . S
C87 C92 1.350 . S
C87 N95 1.427 . S
C88 H79 0.930 . S
C88 C86 1.378 . S
C88 C89 1.367 . S
C89 C88 1.367 . S
C89 C91 1.433 . S
C90 C86 1.350 . S
C90 C87 1.463 . S
C90 N94 1.427 . S
C91 H81 0.929 . S
C91 C89 1.433 . S
C91 N94 1.384 . S
C92 H83 0.929 . S
C92 C84 1.378 . S
C92 C87 1.350 . S
C93 H80 0.929 . S
C93 C85 1.433 . S
C93 N95 1.384 . S
N94 C90 1.427 . S
N94 C91 1.384 . S
N95 C87 1.427 . S
N95 C93 1.384 . S
H96 C102 0.930 . S
H97 C106 0.930 . S
H98 C111 0.929 . S
H99 C109 0.929 . S
H100 C104 0.929 . S
H101 C110 0.929 . S
C102 H96 0.930 . S
C102 C103 1.367 . S
C102 C110 1.378 . S
C103 C102 1.367 . S
C103 C111 1.433 . S
C104 H100 0.929 . S
C104 C106 1.378 . S
C104 C108 1.350 . S
C105 C108 1.463 . S
C105 C110 1.350 . S
C105 N113 1.427 . S
C106 H97 0.930 . S
C106 C104 1.378 . S
C106 C107 1.367 . S
C107 C106 1.367 . S
C107 C109 1.433 . S
C108 C104 1.350 . S
C108 C105 1.463 . S
C108 N112 1.427 . S
C109 H99 0.929 . S
C109 C107 1.433 . S
C109 N112 1.384 . S
C110 H101 0.929 . S
C110 C102 1.378 . S
C110 C105 1.350 . S
C111 H98 0.929 . S
C111 C103 1.433 . S
C111 N113 1.384 . S
N112 C108 1.427 . S
N112 C109 1.384 . S
N113 C105 1.427 . S
N113 C111 1.384 . S
H114 C120 0.930 . S
H115 C124 0.930 . S
H116 C129 0.929 . S
H117 C127 0.929 . S
H118 C122 0.929 . S
H119 C128 0.929 . S
C120 H114 0.930 . S
C120 C121 1.367 . S
C120 C128 1.378 . S
C121 C120 1.367 . S
C121 C129 1.433 . S
C122 H118 0.929 . S
C122 C124 1.378 . S
C122 C126 1.350 . S
C123 C126 1.463 . S
C123 C128 1.350 . S
C123 N131 1.427 . S
C124 H115 0.930 . S
C124 C122 1.378 . S
C124 C125 1.367 . S
C125 C124 1.367 . S
C125 C127 1.433 . S
C126 C122 1.350 . S
C126 C123 1.463 . S
C126 N130 1.427 . S
C127 H117 0.929 . S
C127 C125 1.433 . S
C127 N130 1.384 . S
C128 H119 0.929 . S
C128 C120 1.378 . S
C128 C123 1.350 . S
C129 H116 0.929 . S
C129 C121 1.433 . S
C129 N131 1.384 . S
N130 C126 1.427 . S
N130 C127 1.384 . S
N131 C123 1.427 . S
N131 C129 1.384 . S
H132 C138 0.930 . S
H133 C142 0.930 . S
H134 C147 0.929 . S
H135 C145 0.929 . S
H136 C140 0.929 . S
H137 C146 0.929 . S
C138 H132 0.930 . S
C138 C139 1.367 1_565 S
C138 C146 1.378 . S
C139 C138 1.367 1_545 S
C139 C147 1.433 . S
C140 H136 0.929 . S
C140 C142 1.378 . S
C140 C144 1.350 . S
C141 C144 1.463 . S
C141 C146 1.350 1_545 S
C141 N149 1.427 . S
C142 H133 0.930 . S
C142 C140 1.378 . S
C142 C143 1.367 . S
C143 C142 1.367 . S
C143 C145 1.433 1_545 S
C144 C140 1.350 . S
C144 C141 1.463 . S
C144 N148 1.427 1_545 S
C145 H135 0.929 . S
C145 C143 1.433 1_565 S
C145 N148 1.384 . S
C146 H137 0.929 . S
C146 C138 1.378 . S
C146 C141 1.350 1_565 S
C147 H134 0.929 . S
C147 C139 1.433 . S
C147 N149 1.384 . S
N148 C144 1.427 1_565 S
N148 C145 1.384 . S
N149 C141 1.427 . S
N149 C147 1.384 . S
H150 C156 0.930 . S
H151 C160 0.930 . S
H152 C165 0.929 . S
H153 C163 0.929 . S
H154 C158 0.929 . S
H155 C164 0.922 1_556 S
C156 H150 0.930 . S
C156 C157 1.367 . S
C156 C164 1.378 . S
C157 C156 1.367 . S
C157 C165 1.433 . S
C158 H154 0.929 . S
C158 C160 1.378 . S
C158 C162 1.350 . S
C159 C162 1.463 . S
C159 C164 1.350 1_556 S
C159 N167 1.427 1_556 S
C160 H151 0.930 . S
C160 C158 1.378 . S
C160 C161 1.367 . S
C161 C160 1.367 . S
C161 C163 1.433 . S
C162 C158 1.350 . S
C162 C159 1.463 . S
C162 N166 1.427 . S
C163 H153 0.929 . S
C163 C161 1.433 . S
C163 N166 1.384 . S
C164 H155 0.922 1_554 S
C164 C156 1.378 . S
C164 C159 1.350 1_554 S
C165 H152 0.929 . S
C165 C157 1.433 . S
C165 N167 1.384 . S
N166 C162 1.427 . S
N166 C163 1.384 . S
N167 C159 1.427 1_554 S
N167 C165 1.384 . S
H168 C174 0.930 . S
H169 C178 0.930 . S
H170 C183 0.929 . S
H171 C181 0.929 . S
H172 C176 0.929 . S
H173 C182 0.929 . S
C174 H168 0.930 . S
C174 C175 1.367 1_655 S
C174 C182 1.378 . S
C175 C174 1.367 1_455 S
C175 C183 1.433 . S
C176 H172 0.929 . S
C176 C178 1.378 . S
C176 C180 1.350 . S
C177 C180 1.463 . S
C177 C182 1.350 1_455 S
C177 N185 1.427 . S
C178 H169 0.930 . S
C178 C176 1.378 . S
C178 C179 1.367 . S
C179 C178 1.367 . S
C179 C181 1.433 1_455 S
C180 C176 1.350 . S
C180 C177 1.463 . S
C180 N184 1.427 1_455 S
C181 H171 0.929 . S
C181 C179 1.433 1_655 S
C181 N184 1.384 . S
C182 H173 0.929 . S
C182 C174 1.378 . S
C182 C177 1.350 1_655 S
C183 H170 0.929 . S
C183 C175 1.433 . S
C183 N185 1.384 . S
N184 C180 1.427 1_655 S
N184 C181 1.384 . S
N185 C177 1.427 . S
N185 C183 1.384 . S
H186 C192 0.930 . S
H187 C196 0.930 . S
H188 C201 0.929 . S
H189 C199 0.929 . S
H190 C194 0.929 . S
H191 C200 0.929 . S
C192 H186 0.930 . S
C192 C193 1.367 . S
C192 C200 1.378 . S
C193 C192 1.367 . S
C193 C201 1.433 . S
C194 H190 0.929 . S
C194 C196 1.378 . S
C194 C198 1.350 . S
C195 C198 1.463 . S
C195 C200 1.350 . S
C195 N203 1.427 . S
C196 H187 0.930 . S
C196 C194 1.378 . S
C196 C197 1.367 . S
C197 C196 1.367 . S
C197 C199 1.433 . S
C198 C194 1.350 . S
C198 C195 1.463 . S
C198 N202 1.427 . S
C199 H189 0.929 . S
C199 C197 1.433 . S
C199 N202 1.384 . S
C200 H191 0.929 . S
C200 C192 1.378 . S
C200 C195 1.350 . S
C201 H188 0.929 . S
C201 C193 1.433 . S
C201 N203 1.384 . S
N202 C198 1.427 . S
N202 C199 1.384 . S
N203 C195 1.427 . S
N203 C201 1.384 . S
H204 C210 0.930 . S
H205 C214 0.930 . S
H206 C219 0.929 . S
H207 C217 0.929 . S
H208 C212 0.929 . S
H209 C218 0.929 . S
C210 H204 0.930 . S
C210 C211 1.367 . S
C210 C218 1.378 . S
C211 C210 1.367 . S
C211 C219 1.433 . S
C212 H208 0.929 . S
C212 C214 1.378 . S
C212 C216 1.350 . S
C213 C216 1.463 . S
C213 C218 1.350 . S
C213 N221 1.427 . S
C214 H205 0.930 . S
C214 C212 1.378 . S
C214 C215 1.367 . S
C215 C214 1.367 . S
C215 C217 1.433 . S
C216 C212 1.350 . S
C216 C213 1.463 . S
C216 N220 1.427 . S
C217 H207 0.929 . S
C217 C215 1.433 . S
C217 N220 1.384 . S
C218 H209 0.929 . S
C218 C210 1.378 . S
C218 C213 1.350 . S
C219 H206 0.929 . S
C219 C211 1.433 . S
C219 N221 1.384 . S
N220 C216 1.427 . S
N220 C217 1.384 . S
N221 C213 1.427 . S
N221 C219 1.384 . S
H222 C228 0.930 . S
H223 C232 0.930 . S
H224 C237 0.929 . S
H225 C235 0.929 . S
H226 C230 0.929 . S
H227 C236 0.929 . S
C228 H222 0.930 . S
C228 C229 1.367 . S
C228 C236 1.378 . S
C229 C228 1.367 . S
C229 C237 1.433 . S
C230 H226 0.929 . S
C230 C232 1.378 . S
C230 C234 1.350 . S
C231 C234 1.463 . S
C231 C236 1.350 . S
C231 N239 1.427 . S
C232 H223 0.930 . S
C232 C230 1.378 . S
C232 C233 1.367 . S
C233 C232 1.367 . S
C233 C235 1.433 . S
C234 C230 1.350 . S
C234 C231 1.463 . S
C234 N238 1.427 . S
C235 H225 0.929 . S
C235 C233 1.433 . S
C235 N238 1.384 . S
C236 H227 0.929 . S
C236 C228 1.378 . S
C236 C231 1.350 . S
C237 H224 0.929 . S
C237 C229 1.433 . S
C237 N239 1.384 . S
N238 C234 1.427 . S
N238 C235 1.384 . S
N239 C231 1.427 . S
N239 C237 1.384 . S
H240 C246 0.930 . S
H241 C250 0.930 . S
H242 C255 0.929 . S
H243 C253 0.929 . S
H244 C248 0.929 . S
H245 C254 0.929 . S
C246 H240 0.930 . S
C246 C247 1.367 . S
C246 C254 1.378 . S
C247 C246 1.367 . S
C247 C255 1.433 . S
C248 H244 0.929 . S
C248 C250 1.378 . S
C248 C252 1.350 . S
C249 C252 1.463 . S
C249 C254 1.350 . S
C249 N257 1.427 . S
C250 H241 0.930 . S
C250 C248 1.378 . S
C250 C251 1.367 . S
C251 C250 1.367 . S
C251 C253 1.433 . S
C252 C248 1.350 . S
C252 C249 1.463 . S
C252 N256 1.427 . S
C253 H243 0.929 . S
C253 C251 1.433 . S
C253 N256 1.384 . S
C254 H245 0.929 . S
C254 C246 1.378 . S
C254 C249 1.350 . S
C255 H242 0.929 . S
C255 C247 1.433 . S
C255 N257 1.384 . S
N256 C252 1.427 . S
N256 C253 1.384 . S
N257 C249 1.427 . S
N257 C255 1.384 . S
H258 C264 0.930 . S
H259 C268 0.930 . S
H260 C273 0.929 . S
H261 C271 0.929 . S
H262 C266 0.929 . S
H263 C272 0.929 . S
C264 H258 0.930 . S
C264 C265 1.367 . S
C264 C272 1.378 . S
C265 C264 1.367 . S
C265 C273 1.433 . S
C266 H262 0.929 . S
C266 C268 1.378 . S
C266 C270 1.350 . S
C267 C270 1.463 . S
C267 C272 1.350 . S
C267 N275 1.427 . S
C268 H259 0.930 . S
C268 C266 1.378 . S
C268 C269 1.367 . S
C269 C268 1.367 . S
C269 C271 1.433 . S
C270 C266 1.350 . S
C270 C267 1.463 . S
C270 N274 1.427 . S
C271 H261 0.929 . S
C271 C269 1.433 . S
C271 N274 1.384 . S
C272 H263 0.929 . S
C272 C264 1.378 . S
C272 C267 1.350 . S
C273 H260 0.929 . S
C273 C265 1.433 . S
C273 N275 1.384 . S
N274 C270 1.427 . S
N274 C271 1.384 . S
N275 C267 1.427 . S
N275 C273 1.384 . S
H276 C282 0.930 . S
H277 C286 0.930 . S
H278 C291 0.929 . S
H279 C289 0.929 . S
H280 C284 0.929 . S
H281 C290 0.929 . S
C282 H276 0.930 . S
C282 C283 1.367 . S
C282 C290 1.378 . S
C283 C282 1.367 . S
C283 C291 1.433 . S
C284 H280 0.929 . S
C284 C286 1.378 . S
C284 C288 1.350 1_554 S
C285 C288 1.463 . S
C285 C290 1.350 . S
C285 N293 1.427 . S
C286 H277 0.930 . S
C286 C284 1.378 . S
C286 C287 1.367 . S
C287 C286 1.367 . S
C287 C289 1.433 1_554 S
C288 C284 1.350 1_556 S
C288 C285 1.463 . S
C288 N292 1.427 . S
C289 H279 0.929 . S
C289 C287 1.433 1_556 S
C289 N292 1.384 . S
C290 H281 0.929 . S
C290 C282 1.378 . S
C290 C285 1.350 . S
C291 H278 0.929 . S
C291 C283 1.433 . S
C291 N293 1.384 . S
N292 C288 1.427 . S
N292 C289 1.384 . S
N293 C285 1.427 . S
N293 C291 1.384 . S
C85 C8 1.389 . S
C89 C44 1.388 . S
C103 C21 1.386 . S
C107 C57 1.385 . S
C121 C70 1.390 . S
C125 C34 1.376 . S
C139 C5 1.396 . S
C143 C47 1.382 . S
C157 C18 1.384 . S
C161 C60 1.384 . S
C175 C73 1.383 1_554 S
C179 C31 1.396 . S
C193 C23 1.417 . S
C197 C0 1.411 . S
C211 C36 1.417 . S
C215 C13 1.411 . S
C229 C26 1.407 . S
C233 C49 1.414 . S
C247 C62 1.411 . S
C251 C39 1.407 . S
C265 C75 1.410 . S
C269 C52 1.403 . S
C283 C65 1.405 . S
C287 C10 1.410 . S
