# Generated by pormake.
# Topology unv, (4)-cn, num edge types: 1
# Building blocks:
#     Node 0, Type 0, BuildingBlock: ICAMEG_clean_sbu_1, # of connection points: 4
#     Node 1, Type 0, BuildingBlock: ICAMEG_clean_sbu_1, # of connection points: 4
#     Node 2, Type 0, BuildingBlock: ICAMEG_clean_sbu_1, # of connection points: 4
#     Node 3, Type 0, BuildingBlock: ICAMEG_clean_sbu_1, # of connection points: 4
#     Node 4, Type 0, BuildingBlock: ICAMEG_clean_sbu_1, # of connection points: 4
#     Node 5, Type 0, BuildingBlock: ICAMEG_clean_sbu_1, # of connection points: 4
#     Node 6, Type 0, BuildingBlock: ICAMEG_clean_sbu_1, # of connection points: 4
#     Node 7, Type 0, BuildingBlock: ICAMEG_clean_sbu_1, # of connection points: 4
#     Node 8, Type 0, BuildingBlock: ICAMEG_clean_sbu_1, # of connection points: 4
#     Node 9, Type 0, BuildingBlock: ICAMEG_clean_sbu_1, # of connection points: 4
#     Node 10, Type 0, BuildingBlock: ICAMEG_clean_sbu_1, # of connection points: 4
#     Node 11, Type 0, BuildingBlock: ICAMEG_clean_sbu_1, # of connection points: 4
#     Node 12, Type 0, BuildingBlock: ICAMEG_clean_sbu_1, # of connection points: 4
#     Node 13, Type 0, BuildingBlock: ICAMEG_clean_sbu_1, # of connection points: 4
#     Node 14, Type 0, BuildingBlock: ICAMEG_clean_sbu_1, # of connection points: 4
#     Node 15, Type 0, BuildingBlock: ICAMEG_clean_sbu_1, # of connection points: 4
#     Node 16, Type 0, BuildingBlock: ICAMEG_clean_sbu_1, # of connection points: 4
#     Node 17, Type 0, BuildingBlock: ICAMEG_clean_sbu_1, # of connection points: 4
#     Node 18, Type 0, BuildingBlock: ICAMEG_clean_sbu_1, # of connection points: 4
#     Node 19, Type 0, BuildingBlock: ICAMEG_clean_sbu_1, # of connection points: 4
#     Node 20, Type 0, BuildingBlock: ICAMEG_clean_sbu_1, # of connection points: 4
#     Node 21, Type 0, BuildingBlock: ICAMEG_clean_sbu_1, # of connection points: 4
#     Node 22, Type 0, BuildingBlock: ICAMEG_clean_sbu_1, # of connection points: 4
#     Node 23, Type 0, BuildingBlock: ICAMEG_clean_sbu_1, # of connection points: 4
#     Edge 24, Type (0, 0), BuildingBlock: UVAHIK_clean_linker_0, # of connection points: 2
#     Edge 25, Type (0, 0), BuildingBlock: UVAHIK_clean_linker_0, # of connection points: 2
#     Edge 26, Type (0, 0), BuildingBlock: UVAHIK_clean_linker_0, # of connection points: 2
#     Edge 27, Type (0, 0), BuildingBlock: UVAHIK_clean_linker_0, # of connection points: 2
#     Edge 28, Type (0, 0), BuildingBlock: UVAHIK_clean_linker_0, # of connection points: 2
#     Edge 29, Type (0, 0), BuildingBlock: UVAHIK_clean_linker_0, # of connection points: 2
#     Edge 30, Type (0, 0), BuildingBlock: UVAHIK_clean_linker_0, # of connection points: 2
#     Edge 31, Type (0, 0), BuildingBlock: UVAHIK_clean_linker_0, # of connection points: 2
#     Edge 32, Type (0, 0), BuildingBlock: UVAHIK_clean_linker_0, # of connection points: 2
#     Edge 33, Type (0, 0), BuildingBlock: UVAHIK_clean_linker_0, # of connection points: 2
#     Edge 34, Type (0, 0), BuildingBlock: UVAHIK_clean_linker_0, # of connection points: 2
#     Edge 35, Type (0, 0), BuildingBlock: UVAHIK_clean_linker_0, # of connection points: 2
#     Edge 36, Type (0, 0), BuildingBlock: UVAHIK_clean_linker_0, # of connection points: 2
#     Edge 37, Type (0, 0), BuildingBlock: UVAHIK_clean_linker_0, # of connection points: 2
#     Edge 38, Type (0, 0), BuildingBlock: UVAHIK_clean_linker_0, # of connection points: 2
#     Edge 39, Type (0, 0), BuildingBlock: UVAHIK_clean_linker_0, # of connection points: 2
#     Edge 40, Type (0, 0), BuildingBlock: UVAHIK_clean_linker_0, # of connection points: 2
#     Edge 41, Type (0, 0), BuildingBlock: UVAHIK_clean_linker_0, # of connection points: 2
#     Edge 42, Type (0, 0), BuildingBlock: UVAHIK_clean_linker_0, # of connection points: 2
#     Edge 43, Type (0, 0), BuildingBlock: UVAHIK_clean_linker_0, # of connection points: 2
#     Edge 44, Type (0, 0), BuildingBlock: UVAHIK_clean_linker_0, # of connection points: 2
#     Edge 45, Type (0, 0), BuildingBlock: UVAHIK_clean_linker_0, # of connection points: 2
#     Edge 46, Type (0, 0), BuildingBlock: UVAHIK_clean_linker_0, # of connection points: 2
#     Edge 47, Type (0, 0), BuildingBlock: UVAHIK_clean_linker_0, # of connection points: 2
#     Edge 48, Type (0, 0), BuildingBlock: UVAHIK_clean_linker_0, # of connection points: 2
#     Edge 49, Type (0, 0), BuildingBlock: UVAHIK_clean_linker_0, # of connection points: 2
#     Edge 50, Type (0, 0), BuildingBlock: UVAHIK_clean_linker_0, # of connection points: 2
#     Edge 51, Type (0, 0), BuildingBlock: UVAHIK_clean_linker_0, # of connection points: 2
#     Edge 52, Type (0, 0), BuildingBlock: UVAHIK_clean_linker_0, # of connection points: 2
#     Edge 53, Type (0, 0), BuildingBlock: UVAHIK_clean_linker_0, # of connection points: 2
#     Edge 54, Type (0, 0), BuildingBlock: UVAHIK_clean_linker_0, # of connection points: 2
#     Edge 55, Type (0, 0), BuildingBlock: UVAHIK_clean_linker_0, # of connection points: 2
#     Edge 56, Type (0, 0), BuildingBlock: UVAHIK_clean_linker_0, # of connection points: 2
#     Edge 57, Type (0, 0), BuildingBlock: UVAHIK_clean_linker_0, # of connection points: 2
#     Edge 58, Type (0, 0), BuildingBlock: UVAHIK_clean_linker_0, # of connection points: 2
#     Edge 59, Type (0, 0), BuildingBlock: UVAHIK_clean_linker_0, # of connection points: 2
#     Edge 60, Type (0, 0), BuildingBlock: UVAHIK_clean_linker_0, # of connection points: 2
#     Edge 61, Type (0, 0), BuildingBlock: UVAHIK_clean_linker_0, # of connection points: 2
#     Edge 62, Type (0, 0), BuildingBlock: UVAHIK_clean_linker_0, # of connection points: 2
#     Edge 63, Type (0, 0), BuildingBlock: UVAHIK_clean_linker_0, # of connection points: 2
#     Edge 64, Type (0, 0), BuildingBlock: UVAHIK_clean_linker_0, # of connection points: 2
#     Edge 65, Type (0, 0), BuildingBlock: UVAHIK_clean_linker_0, # of connection points: 2
#     Edge 66, Type (0, 0), BuildingBlock: UVAHIK_clean_linker_0, # of connection points: 2
#     Edge 67, Type (0, 0), BuildingBlock: UVAHIK_clean_linker_0, # of connection points: 2
#     Edge 68, Type (0, 0), BuildingBlock: UVAHIK_clean_linker_0, # of connection points: 2
#     Edge 69, Type (0, 0), BuildingBlock: UVAHIK_clean_linker_0, # of connection points: 2
#     Edge 70, Type (0, 0), BuildingBlock: UVAHIK_clean_linker_0, # of connection points: 2
#     Edge 71, Type (0, 0), BuildingBlock: UVAHIK_clean_linker_0, # of connection points: 2
# Relax obj value: 0.200
# Max RMSD: 0.146
# Mean RMSD: 0.122
data_MOF--net-unv--node1-ICAMEG_clean_sbu_1--edge1-UVAHIK_clean_linker_0
_symmetry_space_group_name_H-M    P1
_symmetry_Int_Tables_number       1
_symmetry_cell_setting            triclinic
loop_
_symmetry_equiv_pos_as_xyz
'x, y, z'
_cell_length_a     66.607714
_cell_length_b     66.601285
_cell_length_c     66.614641
_cell_angle_alpha  89.981037
_cell_angle_beta   89.982764
_cell_angle_gamma 89.978983
loop_
_atom_site_label
_atom_site_type_symbol
_atom_site_fract_x
_atom_site_fract_y
_atom_site_fract_z
_atom_type_partial_charge
Co0 Co 0.98314 0.06719 0.36903 0.0
Co1 Co 0.95412 0.09925 0.39781 0.0
O2 O 0.96502 0.08998 0.37214 0.0
C3 C 0.94887 0.05586 0.34318 0.0
O4 O 0.93666 0.06269 0.35707 0.0
C5 C 0.97702 0.13374 0.3826 0.0
O6 O 0.99146 0.12086 0.37886 0.0
O7 O 0.98072 0.09713 0.41141 0.0
O8 O 0.99888 0.07565 0.39288 0.0
H9 H 0.94315 0.0977 0.47244 0.0
H10 H 0.97547 0.09397 0.33441 0.0
O11 O 0.9678 0.05773 0.34514 0.0
H12 H 0.04839 0.09811 0.34655 0.0
H13 H 0.02556 0.01857 0.32962 0.0
H14 H 0.0016 0.03786 0.39697 0.0
H15 H 0.02703 0.07622 0.36743 0.0
H16 H 0.003 0.04763 0.33398 0.0
O17 O 0.96049 0.12767 0.3901 0.0
H18 H 0.95687 0.08577 0.44017 0.0
H19 H 0.92802 0.13365 0.40949 0.0
H20 H 0.02431 0.00882 0.39332 0.0
H21 H 0.99629 0.11594 0.31303 0.0
H22 H 0.03644 0.999 0.35945 0.0
H23 H 0.03302 0.11815 0.3191 0.0
O24 O 0.96578 0.05012 0.38633 0.0
H25 H 0.90672 0.11955 0.34274 0.0
H26 H 0.91287 0.08523 0.40807 0.0
H27 H 0.87983 0.08696 0.39143 0.0
H28 H 0.87661 0.10424 0.35854 0.0
H29 H 0.93951 0.11732 0.35982 0.0
H30 H 0.91411 0.14622 0.44145 0.0
H31 H 0.9216 0.12814 0.4732 0.0
O32 O 0.94789 0.07103 0.40601 0.0
C33 C 0.99661 0.08699 0.40809 0.0
C34 C 0.9397 0.10566 0.45869 0.0
C35 C 0.92343 0.1329 0.4413 0.0
N36 N 0.94304 0.10886 0.42296 0.0
C37 C 0.94736 0.09892 0.44037 0.0
C38 C 0.93136 0.12573 0.42326 0.0
C39 C 0.92763 0.12275 0.45911 0.0
C40 C 0.99147 0.09473 0.33701 0.0
N41 N 4e-05 0.08378 0.35209 0.0
C42 C 0.00317 0.10725 0.32492 0.0
C43 C 0.02377 0.1085 0.32835 0.0
C44 C 0.0324 0.09727 0.34375 0.0
C45 C 0.02023 0.08494 0.35556 0.0
C46 C 0.02041 0.02272 0.34446 0.0
C47 C 0.00692 0.03375 0.38219 0.0
C48 C 0.0076 0.03913 0.34702 0.0
N49 N 0.0011 0.0445 0.36572 0.0
C50 C 0.01973 0.01726 0.38022 0.0
C51 C 0.02651 0.01175 0.36121 0.0
C52 C 0.95312 0.05349 0.4003 0.0
C53 C 0.90793 0.11202 0.3571 0.0
C54 C 0.9116 0.09273 0.39373 0.0
C55 C 0.89284 0.0937 0.38441 0.0
C56 C 0.89104 0.10341 0.36596 0.0
N57 N 0.92807 0.10125 0.38496 0.0
C58 C 0.92643 0.11078 0.36687 0.0
Co59 Co 0.00111 0.41334 0.37027 0.0
Co60 Co 0.03419 0.38163 0.39457 0.0
O61 O 0.01957 0.39064 0.37077 0.0
C62 C 0.03054 0.42495 0.33907 0.0
O63 O 0.04493 0.42083 0.35189 0.0
C64 C 0.01032 0.34648 0.38272 0.0
O65 O 0.995 0.35883 0.38161 0.0
O66 O 0.00959 0.3829 0.41166 0.0
O67 O 0.98957 0.40549 0.39665 0.0
H68 H 0.05566 0.38357 0.46685 0.0
H69 H 0.00288 0.38579 0.3354 0.0
O70 O 0.01225 0.42199 0.34381 0.0
H71 H 0.93314 0.38191 0.36 0.0
H72 H 0.95269 0.46101 0.33711 0.0
H73 H 0.98769 0.44366 0.39999 0.0
H74 H 0.95768 0.40423 0.37644 0.0
H75 H 0.97569 0.43199 0.33848 0.0
O76 O 0.02762 0.35309 0.38756 0.0
H77 H 0.03726 0.39517 0.43687 0.0
H78 H 0.06238 0.34778 0.40239 0.0
H79 H 0.96471 0.4727 0.39933 0.0
H80 H 0.97878 0.36338 0.31841 0.0
H81 H 0.94701 0.48153 0.36772 0.0
H82 H 0.94365 0.3613 0.33075 0.0
O83 O 0.02092 0.43073 0.38423 0.0
H84 H 0.07407 0.36304 0.33328 0.0
H85 H 0.07611 0.39662 0.39922 0.0
H86 H 0.10658 0.39587 0.37819 0.0
H87 H 0.10569 0.37894 0.34498 0.0
H88 H 0.04388 0.36429 0.35472 0.0
H89 H 0.08093 0.33556 0.43203 0.0
H90 H 0.07769 0.35355 0.46452 0.0
O91 O 0.04079 0.40998 0.40199 0.0
C92 C 0.99371 0.39358 0.41103 0.0
C93 C 0.05725 0.37564 0.45275 0.0
C94 C 0.07141 0.34867 0.43322 0.0
N95 N 0.04888 0.37226 0.41788 0.0
C96 C 0.04691 0.38217 0.43572 0.0
C97 C 0.06084 0.35564 0.4165 0.0
C98 C 0.06959 0.35878 0.45145 0.0
C99 C 0.98756 0.3851 0.34073 0.0
N100 N 0.98166 0.39638 0.35681 0.0
C101 C 0.97401 0.37233 0.3311 0.0
C102 C 0.95431 0.37115 0.33805 0.0
C103 C 0.9484 0.3827 0.35447 0.0
C104 C 0.96237 0.39528 0.36374 0.0
C105 C 0.96026 0.45727 0.35099 0.0
C106 C 0.97992 0.44732 0.38622 0.0
C107 C 0.97331 0.44087 0.35185 0.0
N108 N 0.98283 0.436 0.36937 0.0
C109 C 0.96698 0.46382 0.38592 0.0
C110 C 0.95708 0.46878 0.36817 0.0
C111 C 0.03504 0.42751 0.39676 0.0
C112 C 0.07466 0.37041 0.34775 0.0
C113 C 0.07558 0.38928 0.38476 0.0
C114 C 0.0929 0.38887 0.37294 0.0
C115 C 0.09239 0.37936 0.35431 0.0
N116 N 0.05827 0.38042 0.37823 0.0
C117 C 0.05764 0.37111 0.35998 0.0
Co118 Co 0.98005 0.92866 0.14918 0.0
Co119 Co 0.9507 0.89867 0.11876 0.0
O120 O 0.96189 0.90622 0.14471 0.0
C121 C 0.94561 0.93799 0.17553 0.0
O122 O 0.93377 0.93474 0.16012 0.0
C123 C 0.9733 0.86313 0.13191 0.0
O124 O 0.98818 0.87548 0.13565 0.0
O125 O 0.97726 0.90141 0.1052 0.0
O126 O 0.99573 0.92182 0.12467 0.0
H127 H 0.93891 0.90516 0.04454 0.0
H128 H 0.97247 0.89941 0.18188 0.0
O129 O 0.96456 0.93601 0.17379 0.0
H130 H 0.04535 0.89625 0.16921 0.0
H131 H 0.02206 0.97446 0.19213 0.0
H132 H 0.99894 0.95968 0.12338 0.0
H133 H 0.0239 0.91954 0.15001 0.0
H134 H 0.99942 0.94588 0.18563 0.0
O135 O 0.95681 0.86983 0.12487 0.0
H136 H 0.95291 0.91499 0.07738 0.0
H137 H 0.92452 0.86508 0.10513 0.0
H138 H 0.0217 0.98831 0.12918 0.0
H139 H 0.9934 0.87601 0.20155 0.0
H140 H 0.03341 0.99585 0.16376 0.0
H141 H 0.03011 0.87429 0.19521 0.0
O142 O 0.96289 0.94698 0.13292 0.0
H143 H 0.90351 0.87587 0.17304 0.0
H144 H 0.90948 0.91343 0.10951 0.0
H145 H 0.87653 0.91106 0.12625 0.0
H146 H 0.8734 0.89214 0.15824 0.0
H147 H 0.93621 0.87876 0.15588 0.0
H148 H 0.91033 0.85462 0.07256 0.0
H149 H 0.91745 0.87477 0.04199 0.0
O150 O 0.94467 0.92733 0.11237 0.0
C151 C 0.99324 0.91131 0.10888 0.0
C152 C 0.93564 0.8963 0.05777 0.0
C153 C 0.91963 0.86791 0.07349 0.0
N154 N 0.9394 0.89071 0.09316 0.0
C155 C 0.94348 0.90182 0.07641 0.0
C156 C 0.92773 0.87388 0.09187 0.0
C157 C 0.92362 0.87923 0.05634 0.0
C158 C 0.98846 0.89887 0.17917 0.0
N159 N 0.99696 0.91089 0.16488 0.0
C160 C 0.00022 0.88554 0.19029 0.0
C161 C 0.02081 0.88456 0.18671 0.0
C162 C 0.02938 0.89687 0.17211 0.0
C163 C 0.01715 0.91 0.16126 0.0
C164 C 0.01709 0.9713 0.17699 0.0
C165 C 0.00408 0.9628 0.13845 0.0
C166 C 0.00424 0.95517 0.17322 0.0
N167 N 0.99801 0.95103 0.15412 0.0
C168 C 0.01691 0.97906 0.14165 0.0
C169 C 0.02346 0.98329 0.16106 0.0
C170 C 0.95017 0.94453 0.11879 0.0
C171 C 0.90468 0.88411 0.15908 0.0
C172 C 0.90824 0.90521 0.12345 0.0
C173 C 0.88954 0.90389 0.13284 0.0
C174 C 0.88779 0.89326 0.15078 0.0
N175 N 0.92472 0.89615 0.13166 0.0
C176 C 0.92313 0.88573 0.14926 0.0
Co177 Co 0.99284 0.5841 0.15414 0.0
Co178 Co 0.02845 0.61548 0.13299 0.0
O179 O 0.01238 0.60588 0.15566 0.0
C180 C 0.02208 0.56899 0.18393 0.0
O181 O 0.03645 0.57647 0.17271 0.0
C182 C 0.00389 0.65031 0.14452 0.0
O183 O 0.98879 0.63772 0.14583 0.0
O184 O 0.0051 0.61445 0.11416 0.0
O185 O 0.98159 0.59532 0.12889 0.0
H186 H 0.05467 0.61485 0.06225 0.0
H187 H 0.99641 0.60774 0.19158 0.0
O188 O 0.00375 0.57188 0.17928 0.0
H189 H 0.92663 0.61756 0.16884 0.0
H190 H 0.94232 0.53562 0.18263 0.0
H191 H 0.97735 0.5582 0.12143 0.0
H192 H 0.94981 0.59588 0.14975 0.0
H193 H 0.96679 0.56337 0.1841 0.0
O194 O 0.02132 0.64391 0.1399 0.0
H195 H 0.03435 0.6027 0.09073 0.0
H196 H 0.05704 0.64947 0.12764 0.0
H197 H 0.95285 0.53051 0.11925 0.0
H198 H 0.97368 0.62942 0.21125 0.0
H199 H 0.93515 0.51905 0.15001 0.0
H200 H 0.93854 0.63448 0.19986 0.0
O201 O 0.01169 0.56712 0.13832 0.0
H202 H 0.06406 0.63322 0.19705 0.0
H203 H 0.0706 0.60056 0.13094 0.0
H204 H 0.09959 0.60102 0.15398 0.0
H205 H 0.09642 0.61747 0.18729 0.0
H206 H 0.0354 0.63227 0.17362 0.0
H207 H 0.07748 0.66222 0.09951 0.0
H208 H 0.07643 0.64482 0.06655 0.0
O209 O 0.03554 0.58735 0.12558 0.0
C210 C 0.98784 0.60617 0.11444 0.0
C211 C 0.05531 0.62252 0.07655 0.0
C212 C 0.06809 0.64913 0.09746 0.0
N213 N 0.04464 0.62526 0.11086 0.0
C214 C 0.04389 0.61567 0.09275 0.0
C215 C 0.05645 0.64186 0.11332 0.0
C216 C 0.0675 0.63935 0.07897 0.0
C217 C 0.98108 0.60975 0.18664 0.0
N218 N 0.97442 0.60052 0.16959 0.0
C219 C 0.96831 0.6221 0.19779 0.0
C220 C 0.9486 0.62495 0.19137 0.0
C221 C 0.94191 0.61547 0.17397 0.0
C222 C 0.95512 0.60325 0.16319 0.0
C223 C 0.94991 0.5405 0.16912 0.0
C224 C 0.96961 0.55337 0.13486 0.0
C225 C 0.96381 0.55618 0.16986 0.0
N226 N 0.97338 0.56248 0.15284 0.0
C227 C 0.9558 0.53765 0.13354 0.0
C228 C 0.94589 0.53122 0.15081 0.0
C229 C 0.02766 0.57009 0.12816 0.0
C230 C 0.06564 0.62606 0.18256 0.0
C231 C 0.0691 0.6077 0.14543 0.0
C232 C 0.08557 0.60795 0.15839 0.0
C233 C 0.08379 0.61719 0.17708 0.0
N234 N 0.05136 0.61647 0.15091 0.0
C235 C 0.04949 0.62554 0.1692 0.0
Co236 Co 0.37305 0.98117 0.07258 0.0
Co237 Co 0.40319 0.95017 0.10125 0.0
O238 O 0.37728 0.9617 0.09397 0.0
C239 C 0.3475 0.94715 0.06037 0.0
O240 O 0.363 0.93538 0.06346 0.0
C241 C 0.38958 0.97121 0.13749 0.0
O242 O 0.38566 0.98637 0.12555 0.0
O243 O 0.41677 0.97681 0.09991 0.0
O244 O 0.39727 0.9966 0.0808 0.0
H245 H 0.47749 0.93866 0.09496 0.0
H246 H 0.33977 0.9716 0.10055 0.0
O247 O 0.34875 0.96594 0.06375 0.0
H248 H 0.35184 0.04421 0.10848 0.0
H249 H 0.33063 0.02554 0.02849 0.0
H250 H 0.39927 0.00198 0.04319 0.0
H251 H 0.37172 0.02435 0.08436 0.0
H252 H 0.33677 0.00132 0.05584 0.0
O253 O 0.39683 0.955 0.13032 0.0
H254 H 0.44474 0.95314 0.08548 0.0
H255 H 0.41651 0.92244 0.13372 0.0
H256 H 0.39383 0.02632 0.01581 0.0
H257 H 0.31944 0.99092 0.12475 0.0
H258 H 0.3593 0.03827 0.00832 0.0
H259 H 0.32547 0.02748 0.12887 0.0
O260 O 0.38983 0.96527 0.05365 0.0
H261 H 0.34883 0.90191 0.12144 0.0
H262 H 0.41259 0.90972 0.08462 0.0
H263 H 0.3959 0.87667 0.08534 0.0
H264 H 0.3638 0.87261 0.10389 0.0
H265 H 0.36595 0.93473 0.12019 0.0
H266 H 0.44898 0.90774 0.14383 0.0
H267 H 0.47975 0.91578 0.12433 0.0
O268 O 0.40987 0.9455 0.07236 0.0
C269 C 0.41308 0.99341 0.0911 0.0
C270 C 0.46418 0.93499 0.10353 0.0
C271 C 0.44818 0.91766 0.13098 0.0
N272 N 0.42872 0.9385 0.10893 0.0
C273 C 0.44559 0.94309 0.0982 0.0
C274 C 0.42985 0.92605 0.12521 0.0
C275 C 0.46544 0.92217 0.12003 0.0
C276 C 0.34235 0.98754 0.10213 0.0
N277 N 0.35683 0.99685 0.09099 0.0
C278 C 0.33085 0.99839 0.11591 0.0
C279 C 0.33426 0.0189 0.11824 0.0
C280 C 0.34906 0.02829 0.10681 0.0
C281 C 0.36029 0.01696 0.0932 0.0
C282 C 0.34574 0.02049 0.03165 0.0
C283 C 0.38422 0.00721 0.0401 0.0
C284 C 0.34931 0.00675 0.04709 0.0
N285 N 0.36838 0.00039 0.05122 0.0
C286 C 0.38122 0.02095 0.02454 0.0
C287 C 0.36184 0.02763 0.02034 0.0
C288 C 0.40377 0.95223 0.05546 0.0
C289 C 0.36284 0.90348 0.11336 0.0
C290 C 0.3986 0.90808 0.09267 0.0
C291 C 0.38924 0.88932 0.09307 0.0
C292 C 0.37124 0.88705 0.10348 0.0
N293 N 0.3903 0.9241 0.10244 0.0
C294 C 0.37264 0.92201 0.11266 0.0
Co295 Co 0.63215 0.53805 0.0725 0.0
Co296 Co 0.60053 0.5618 0.10615 0.0
O297 O 0.62707 0.5531 0.09706 0.0
C298 C 0.65718 0.57414 0.06569 0.0
O299 O 0.64143 0.58522 0.06987 0.0
C300 C 0.61553 0.53563 0.13829 0.0
O301 O 0.621 0.52336 0.12388 0.0
O302 O 0.58836 0.53519 0.10023 0.0
O303 O 0.6082 0.52073 0.07717 0.0
H304 H 0.52563 0.56986 0.10194 0.0
H305 H 0.66483 0.54293 0.10225 0.0
O306 O 0.65627 0.55508 0.06698 0.0
H307 H 0.65442 0.46986 0.09641 0.0
H308 H 0.67621 0.50364 0.02162 0.0
H309 H 0.60686 0.52272 0.03923 0.0
H310 H 0.6344 0.49343 0.07603 0.0
H311 H 0.66913 0.52208 0.05294 0.0
O312 O 0.60707 0.55227 0.134 0.0
H313 H 0.55904 0.55898 0.09022 0.0
H314 H 0.586 0.58309 0.14269 0.0
H315 H 0.61324 0.50413 0.00785 0.0
H316 H 0.68531 0.51988 0.1228 0.0
H317 H 0.64813 0.49447 0.99887 0.0
H318 H 0.68009 0.48306 0.12 0.0
O319 O 0.61527 0.55695 0.05669 0.0
H320 H 0.65231 0.60856 0.13478 0.0
H321 H 0.58907 0.60399 0.09657 0.0
H322 H 0.60402 0.63723 0.10313 0.0
H323 H 0.63584 0.63966 0.1224 0.0
H324 H 0.63692 0.57561 0.12774 0.0
H325 H 0.55286 0.59409 0.15509 0.0
H326 H 0.52239 0.58756 0.13461 0.0
O327 O 0.59344 0.57102 0.07843 0.0
C328 C 0.5925 0.52099 0.08809 0.0
C329 C 0.5388 0.57289 0.11095 0.0
C330 C 0.55408 0.58646 0.1408 0.0
N331 N 0.57446 0.57063 0.11563 0.0
C332 C 0.55777 0.56684 0.10435 0.0
C333 C 0.5728 0.58018 0.13372 0.0
C334 C 0.537 0.58279 0.1293 0.0
C335 C 0.66263 0.52692 0.1008 0.0
N336 N 0.64851 0.51953 0.0879 0.0
C337 C 0.6742 0.51394 0.11254 0.0
C338 C 0.67125 0.49329 0.11098 0.0
C339 C 0.65684 0.48587 0.09775 0.0
C340 C 0.64552 0.49929 0.08628 0.0
C341 C 0.66093 0.50772 0.02539 0.0
C342 C 0.62206 0.51844 0.03549 0.0
C343 C 0.65684 0.51819 0.04309 0.0
N344 N 0.63757 0.5233 0.04799 0.0
C345 C 0.62559 0.50797 0.01767 0.0
C346 C 0.64517 0.50257 0.01263 0.0
C347 C 0.60041 0.56836 0.06075 0.0
C348 C 0.63841 0.6077 0.12642 0.0
C349 C 0.60296 0.60492 0.10492 0.0
C350 C 0.61133 0.62379 0.10862 0.0
C351 C 0.62918 0.62514 0.11944 0.0
N352 N 0.61207 0.5879 0.11187 0.0
C353 C 0.62959 0.58909 0.12245 0.0
Co354 Co 0.36773 0.99562 0.41716 0.0
Co355 Co 0.39086 0.0283 0.38408 0.0
O356 O 0.36746 0.01355 0.39399 0.0
C357 C 0.33695 0.02536 0.4289 0.0
O358 O 0.34895 0.03953 0.42226 0.0
C359 C 0.37912 0.00281 0.35007 0.0
O360 O 0.37794 0.98809 0.36311 0.0
O361 O 0.40854 0.00416 0.38606 0.0
O362 O 0.39381 0.98393 0.40865 0.0
H363 H 0.46268 0.05136 0.38427 0.0
H364 H 0.33185 0.99677 0.39096 0.0
O365 O 0.34167 0.00696 0.42671 0.0
H366 H 0.35643 0.92699 0.38756 0.0
H367 H 0.33651 0.94806 0.46695 0.0
H368 H 0.3985 0.98319 0.44683 0.0
H369 H 0.37366 0.95201 0.40873 0.0
H370 H 0.33679 0.97032 0.43734 0.0
O371 O 0.38377 0.02043 0.3559 0.0
H372 H 0.43326 0.03277 0.39694 0.0
H373 H 0.39766 0.05534 0.3491 0.0
H374 H 0.39895 0.96094 0.47644 0.0
H375 H 0.31405 0.97219 0.36972 0.0
H376 H 0.36778 0.94319 0.48667 0.0
H377 H 0.32638 0.93704 0.36789 0.0
O378 O 0.38219 0.01586 0.43358 0.0
H379 H 0.32855 0.06608 0.36453 0.0
H380 H 0.39469 0.07085 0.39744 0.0
H381 H 0.37297 0.10081 0.39571 0.0
H382 H 0.33965 0.09854 0.37913 0.0
H383 H 0.35068 0.03644 0.36675 0.0
H384 H 0.42674 0.07405 0.33581 0.0
H385 H 0.45952 0.07219 0.35349 0.0
O386 O 0.39846 0.03616 0.41204 0.0
C387 C 0.40812 0.98826 0.39673 0.0
C388 C 0.44846 0.05235 0.37647 0.0
C389 C 0.42829 0.06506 0.34926 0.0
N390 N 0.41373 0.04312 0.37387 0.0
C391 C 0.43174 0.04191 0.38361 0.0
C392 C 0.41189 0.05441 0.35683 0.0
C393 C 0.44668 0.06402 0.35919 0.0
C394 C 0.33717 0.98144 0.39038 0.0
N395 N 0.35369 0.9758 0.40114 0.0
C396 C 0.32709 0.96762 0.37827 0.0
C397 C 0.33403 0.9479 0.37722 0.0
C398 C 0.3509 0.94226 0.38825 0.0
C399 C 0.36062 0.9565 0.40018 0.0
C400 C 0.3502 0.95566 0.4626 0.0
C401 C 0.38492 0.97539 0.4511 0.0
C402 C 0.35044 0.96829 0.44587 0.0
N403 N 0.3677 0.97785 0.44023 0.0
C404 C 0.38525 0.96286 0.46792 0.0
C405 C 0.36775 0.95293 0.47366 0.0
C406 C 0.39401 0.03045 0.42979 0.0
C407 C 0.34305 0.06727 0.37175 0.0
C408 C 0.38018 0.06973 0.39025 0.0
C409 C 0.36797 0.08676 0.38928 0.0
C410 C 0.34928 0.08547 0.37997 0.0
N411 N 0.37398 0.05195 0.38212 0.0
C412 C 0.35567 0.05056 0.37298 0.0
Co413 Co 0.63244 0.48237 0.41072 0.0
Co414 Co 0.61038 0.44799 0.37859 0.0
O415 O 0.6335 0.46314 0.38865 0.0
C416 C 0.66191 0.45255 0.42585 0.0
O417 O 0.64969 0.43821 0.4201 0.0
C418 C 0.62335 0.47312 0.34475 0.0
O419 O 0.62586 0.48735 0.35811 0.0
O420 O 0.59228 0.4718 0.38001 0.0
O421 O 0.60729 0.49436 0.39998 0.0
H422 H 0.53892 0.42382 0.37845 0.0
H423 H 0.6697 0.47869 0.38673 0.0
O424 O 0.65763 0.47086 0.42234 0.0
H425 H 0.64787 0.54896 0.37838 0.0
H426 H 0.66215 0.53136 0.46001 0.0
H427 H 0.6002 0.49785 0.43723 0.0
H428 H 0.62863 0.52569 0.39981 0.0
H429 H 0.663 0.50746 0.43174 0.0
O430 O 0.61748 0.45574 0.35027 0.0
H431 H 0.56793 0.443 0.39115 0.0
H432 H 0.60433 0.42044 0.3439 0.0
H433 H 0.59863 0.52178 0.46544 0.0
H434 H 0.68951 0.50151 0.36529 0.0
H435 H 0.62977 0.53872 0.47701 0.0
H436 H 0.67856 0.5369 0.36094 0.0
O437 O 0.61637 0.46347 0.42731 0.0
H438 H 0.67342 0.4109 0.36009 0.0
H439 H 0.60708 0.40561 0.39256 0.0
H440 H 0.62924 0.37595 0.39143 0.0
H441 H 0.66266 0.37848 0.37506 0.0
H442 H 0.65083 0.44024 0.36171 0.0
H443 H 0.57566 0.40115 0.33057 0.0
H444 H 0.54269 0.40271 0.34794 0.0
O445 O 0.60263 0.44052 0.40662 0.0
C446 C 0.59283 0.48878 0.38879 0.0
C447 C 0.55322 0.42296 0.37079 0.0
C448 C 0.57384 0.41026 0.3439 0.0
N449 N 0.58783 0.43269 0.36838 0.0
C450 C 0.56972 0.43373 0.37795 0.0
C451 C 0.59001 0.42124 0.35149 0.0
C452 C 0.55535 0.41114 0.35366 0.0
C453 C 0.66497 0.49413 0.38507 0.0
N454 N 0.64809 0.50088 0.39457 0.0
C455 C 0.67619 0.50696 0.37284 0.0
C456 C 0.67002 0.5268 0.37039 0.0
C457 C 0.6528 0.53358 0.38016 0.0
C458 C 0.64194 0.52032 0.39225 0.0
C459 C 0.64847 0.52411 0.45508 0.0
C460 C 0.61379 0.50526 0.44209 0.0
C461 C 0.64887 0.51053 0.43911 0.0
N462 N 0.63164 0.50139 0.43274 0.0
C463 C 0.61282 0.51875 0.45811 0.0
C464 C 0.6303 0.52823 0.46461 0.0
C465 C 0.60558 0.44797 0.42405 0.0
C466 C 0.65887 0.4096 0.36721 0.0
C467 C 0.62162 0.40684 0.38546 0.0
C468 C 0.63409 0.38998 0.38483 0.0
C469 C 0.65283 0.39142 0.37564 0.0
N470 N 0.62763 0.42459 0.37711 0.0
C471 C 0.646 0.42613 0.36811 0.0
Co472 Co 0.06881 0.37224 0.98185 0.0
Co473 Co 0.09923 0.4046 0.955 0.0
O474 O 0.09144 0.37788 0.9642 0.0
C475 C 0.05867 0.34865 0.94567 0.0
O476 O 0.06181 0.36484 0.93489 0.0
C477 C 0.13415 0.38945 0.97729 0.0
O478 O 0.12127 0.38347 0.99094 0.0
O479 O 0.0958 0.41639 0.98229 0.0
O480 O 0.07569 0.39541 0.99936 0.0
H481 H 0.09254 0.47942 0.94794 0.0
H482 H 0.09771 0.33983 0.97205 0.0
O483 O 0.0613 0.34889 0.9646 0.0
H484 H 0.10063 0.34713 0.04566 0.0
H485 H 0.02227 0.32675 0.02029 0.0
H486 H 0.03782 0.39687 0.00229 0.0
H487 H 0.07764 0.36809 0.02557 0.0
H488 H 0.05113 0.33461 0.99844 0.0
O489 O 0.12797 0.39839 0.96153 0.0
H490 H 0.08257 0.44567 0.95948 0.0
H491 H 0.13341 0.42013 0.93066 0.0
H492 H 0.00892 0.38969 0.02431 0.0
H493 H 0.12081 0.31845 0.99158 0.0
H494 H 0.00099 0.35441 0.03345 0.0
H495 H 0.12242 0.32209 0.02865 0.0
O496 O 0.05078 0.38994 0.9658 0.0
H497 H 0.12368 0.35371 0.90497 0.0
H498 H 0.08554 0.41653 0.9141 0.0
H499 H 0.08896 0.40206 0.88019 0.0
H500 H 0.10819 0.37045 0.87546 0.0
H501 H 0.11974 0.36862 0.93864 0.0
H502 H 0.14403 0.45363 0.91894 0.0
H503 H 0.12348 0.48356 0.92752 0.0
O504 O 0.07069 0.41121 0.94866 0.0
C505 C 0.08596 0.41148 0.99796 0.0
C506 C 0.10158 0.46649 0.94405 0.0
C507 C 0.1305 0.45202 0.9278 0.0
N508 N 0.10731 0.43095 0.94561 0.0
C509 C 0.09598 0.44734 0.95049 0.0
C510 C 0.12444 0.4331 0.93451 0.0
C511 C 0.11896 0.4688 0.93261 0.0
C512 C 0.09819 0.34135 0.9882 0.0
N513 N 0.08629 0.35513 0.99767 0.0
C514 C 0.11135 0.32927 0.99917 0.0
C515 C 0.11227 0.33134 0.01997 0.0
C516 C 0.10006 0.3454 0.02952 0.0
C517 C 0.0871 0.35725 0.01806 0.0
C518 C 0.0256 0.34218 0.01645 0.0
C519 C 0.03454 0.38149 0.00631 0.0
C520 C 0.0419 0.34672 0.00406 0.0
N521 N 0.04625 0.36619 0.99924 0.0
C522 C 0.01812 0.37751 0.01873 0.0
C523 C 0.01367 0.35771 0.02383 0.0
C524 C 0.05341 0.40465 0.95377 0.0
C525 C 0.11532 0.36752 0.90683 0.0
C526 C 0.09388 0.40274 0.91217 0.0
C527 C 0.0958 0.39464 0.89293 0.0
C528 C 0.1066 0.37691 0.89028 0.0
N529 N 0.10252 0.39347 0.92831 0.0
C530 C 0.1131 0.37607 0.92585 0.0
Co531 Co 0.07712 0.63114 0.53652 0.0
Co532 Co 0.11013 0.60101 0.56294 0.0
O533 O 0.10102 0.62701 0.55283 0.0
C534 C 0.06835 0.65685 0.57163 0.0
O535 O 0.0728 0.64151 0.58317 0.0
C536 C 0.14317 0.6151 0.53738 0.0
O537 O 0.12927 0.61902 0.52399 0.0
O538 O 0.10547 0.58764 0.5366 0.0
O539 O 0.0832 0.60685 0.52014 0.0
H540 H 0.10682 0.52642 0.5739 0.0
H541 H 0.10596 0.66452 0.54198 0.0
O542 O 0.07021 0.65555 0.55264 0.0
H543 H 0.10377 0.65227 0.469 0.0
H544 H 0.02702 0.67309 0.49851 0.0
H545 H 0.04526 0.60467 0.5202 0.0
H546 H 0.08272 0.63238 0.49209 0.0
H547 H 0.05753 0.66723 0.51866 0.0
O548 O 0.13825 0.60781 0.5544 0.0
H549 H 0.095 0.55914 0.56118 0.0
H550 H 0.14599 0.58801 0.58626 0.0
H551 H 0.01471 0.60983 0.49991 0.0
H552 H 0.12716 0.68489 0.51942 0.0
H553 H 0.00542 0.64425 0.48893 0.0
H554 H 0.12618 0.67875 0.48265 0.0
O555 O 0.06074 0.6144 0.55506 0.0
H556 H 0.13583 0.65508 0.60881 0.0
H557 H 0.09892 0.59101 0.60509 0.0
H558 H 0.10377 0.60736 0.63796 0.0
H559 H 0.12238 0.6396 0.63996 0.0
H560 H 0.13049 0.63831 0.57623 0.0
H561 H 0.15846 0.55557 0.59912 0.0
H562 H 0.13877 0.5245 0.59303 0.0
O563 O 0.08215 0.59376 0.57124 0.0
C564 C 0.09414 0.59122 0.52159 0.0
C565 C 0.11548 0.53987 0.57674 0.0
C566 C 0.14449 0.55622 0.59087 0.0
N567 N 0.11967 0.57548 0.57319 0.0
C568 C 0.10882 0.55845 0.56965 0.0
C569 C 0.13737 0.57454 0.58353 0.0
C570 C 0.13343 0.53879 0.58745 0.0
C571 C 0.10533 0.66191 0.52598 0.0
N572 N 0.09307 0.64735 0.51835 0.0
C573 C 0.11742 0.67342 0.51328 0.0
C574 C 0.11688 0.66996 0.49266 0.0
C575 C 0.10432 0.65509 0.48499 0.0
C576 C 0.09247 0.64385 0.49814 0.0
C577 C 0.03094 0.65802 0.50316 0.0
C578 C 0.04139 0.61967 0.51536 0.0
C579 C 0.04817 0.65461 0.5146 0.0
N580 N 0.05326 0.6356 0.52045 0.0
C581 C 0.02404 0.62251 0.50393 0.0
C582 C 0.01883 0.64183 0.49779 0.0
C583 C 0.06449 0.60015 0.56731 0.0
C584 C 0.12774 0.64101 0.60814 0.0
C585 C 0.10698 0.60508 0.60584 0.0
C586 C 0.10972 0.61424 0.62449 0.0
C587 C 0.12017 0.63233 0.62561 0.0
N588 N 0.11452 0.61365 0.58878 0.0
C589 C 0.12474 0.63141 0.58974 0.0
Co590 Co 0.92748 0.84379 0.53822 0.0
Co591 Co 0.89369 0.87266 0.56508 0.0
O592 O 0.9034 0.84705 0.55453 0.0
C593 C 0.93632 0.81723 0.57269 0.0
O594 O 0.9317 0.83223 0.58461 0.0
C595 C 0.8611 0.85764 0.53957 0.0
O596 O 0.87522 0.85321 0.52658 0.0
O597 O 0.89788 0.88643 0.5389 0.0
O598 O 0.92121 0.86848 0.52242 0.0
H599 H 0.89572 0.94706 0.57741 0.0
H600 H 0.89935 0.8096 0.54252 0.0
O601 O 0.93463 0.81905 0.55373 0.0
H602 H 0.90144 0.82432 0.46999 0.0
H603 H 0.97829 0.80364 0.49922 0.0
H604 H 0.95952 0.87101 0.52354 0.0
H605 H 0.92202 0.84388 0.49376 0.0
H606 H 0.94747 0.80855 0.51917 0.0
O607 O 0.8657 0.86555 0.55639 0.0
H608 H 0.90814 0.91478 0.56416 0.0
H609 H 0.85751 0.88461 0.5885 0.0
H610 H 0.99039 0.86681 0.5035 0.0
H611 H 0.87865 0.78955 0.51926 0.0
H612 H -6e-05 0.83293 0.49119 0.0
H613 H 0.87957 0.79694 0.48272 0.0
O614 O 0.94337 0.8603 0.55724 0.0
H615 H 0.86918 0.8173 0.61009 0.0
H616 H 0.90466 0.88223 0.60739 0.0
H617 H 0.90015 0.86526 0.64 0.0
H618 H 0.88226 0.83257 0.64149 0.0
H619 H 0.87417 0.83473 0.57778 0.0
H620 H 0.84444 0.9166 0.60187 0.0
H621 H 0.86364 0.9481 0.59642 0.0
O622 O 0.92154 0.88034 0.57352 0.0
C623 C 0.90956 0.88359 0.52401 0.0
C624 C 0.88725 0.93343 0.57995 0.0
C625 C 0.85846 0.91633 0.59366 0.0
N626 N 0.88366 0.89782 0.57574 0.0
C627 C 0.89425 0.9151 0.57255 0.0
C628 C 0.86591 0.89828 0.58603 0.0
C629 C 0.86924 0.934 0.5906 0.0
C630 C 0.89999 0.81274 0.52661 0.0
N631 N 0.91194 0.82782 0.51949 0.0
C632 C 0.88817 0.80141 0.51353 0.0
C633 C 0.88867 0.80558 0.49303 0.0
C634 C 0.90093 0.82096 0.48588 0.0
C635 C 0.91251 0.83201 0.49941 0.0
C636 C 0.97424 0.81849 0.50442 0.0
C637 C 0.96348 0.85625 0.51806 0.0
C638 C 0.95682 0.82137 0.51573 0.0
N639 N 0.95155 0.8401 0.52225 0.0
C640 C 0.98102 0.85395 0.5068 0.0
C641 C 0.98638 0.83493 0.49992 0.0
C642 C 0.93935 0.87436 0.56962 0.0
C643 C 0.87695 0.83157 0.60964 0.0
C644 C 0.89691 0.86798 0.60792 0.0
C645 C 0.89436 0.85846 0.62643 0.0
C646 C 0.88432 0.84013 0.62725 0.0
N647 N 0.88958 0.85952 0.59073 0.0
C648 C 0.87976 0.84153 0.5914 0.0
Co649 Co 0.41793 0.63231 0.47706 0.0
Co650 Co 0.38095 0.61034 0.44802 0.0
O651 O 0.39285 0.63329 0.46197 0.0
C652 C 0.42738 0.66403 0.44725 0.0
O653 O 0.42102 0.65196 0.43303 0.0
C654 C 0.35016 0.622 0.47738 0.0
O655 O 0.36483 0.62267 0.49051 0.0
O656 O 0.38523 0.59221 0.4715 0.0
O657 O 0.41067 0.60586 0.48886 0.0
H658 H 0.37731 0.53896 0.42386 0.0
H659 H 0.39196 0.66828 0.48019 0.0
O660 O 0.42614 0.65881 0.46561 0.0
H661 H 0.39673 0.64146 0.54904 0.0
H662 H 0.47326 0.66186 0.5192 0.0
H663 H 0.44856 0.601 0.48508 0.0
H664 H 0.41469 0.625 0.52115 0.0
H665 H 0.44126 0.66242 0.50058 0.0
O666 O 0.3539 0.61774 0.4591 0.0
H667 H 0.39247 0.56781 0.44144 0.0
H668 H 0.3431 0.60463 0.42491 0.0
H669 H 0.48056 0.59972 0.50367 0.0
H670 H 0.37388 0.68532 0.50769 0.0
H671 H 0.4931 0.63032 0.5209 0.0
H672 H 0.37617 0.67186 0.54239 0.0
O673 O 0.43173 0.61839 0.45461 0.0
H674 H 0.35855 0.67366 0.41367 0.0
H675 H 0.38948 0.60705 0.4042 0.0
H676 H 0.38485 0.62932 0.37497 0.0
H677 H 0.36924 0.66288 0.37961 0.0
H678 H 0.36362 0.65096 0.44251 0.0
H679 H 0.32731 0.57614 0.40729 0.0
H680 H 0.34449 0.54303 0.40663 0.0
O681 O 0.40777 0.60238 0.43699 0.0
C682 C 0.39788 0.59198 0.48586 0.0
C683 C 0.36971 0.55332 0.42399 0.0
C684 C 0.34163 0.57418 0.41471 0.0
N685 N 0.36876 0.58791 0.43404 0.0
C686 C 0.37825 0.56973 0.43386 0.0
C687 C 0.35062 0.59025 0.42474 0.0
C688 C 0.35128 0.55562 0.41434 0.0
C689 C 0.39317 0.66246 0.4953 0.0
N690 N 0.40444 0.64574 0.49909 0.0
C691 C 0.38284 0.67212 0.51078 0.0
C692 C 0.38411 0.66454 0.53025 0.0
C693 C 0.39564 0.64748 0.53399 0.0
C694 C 0.40574 0.6382 0.51813 0.0
C695 C 0.46792 0.64841 0.51182 0.0
C696 C 0.45384 0.61432 0.49268 0.0
C697 C 0.44982 0.64864 0.50124 0.0
N698 N 0.44293 0.63169 0.49197 0.0
C699 C 0.472 0.61353 0.50312 0.0
C700 C 0.47904 0.63071 0.51277 0.0
C701 C 0.42612 0.60669 0.44053 0.0
C702 C 0.36532 0.65906 0.41145 0.0
C703 C 0.38274 0.62165 0.40635 0.0
C704 C 0.38011 0.63418 0.38973 0.0
C705 C 0.37135 0.653 0.39235 0.0
N706 N 0.37673 0.62768 0.42502 0.0
C707 C 0.36816 0.64612 0.42771 0.0
Co708 Co 0.47797 0.58443 0.84493 0.0
Co709 Co 0.44678 0.62011 0.86636 0.0
O710 O 0.4613 0.60852 0.84349 0.0
C711 C 0.44838 0.57241 0.81396 0.0
O712 O 0.43411 0.5799 0.82533 0.0
C713 C 0.47449 0.6519 0.85342 0.0
O714 O 0.48797 0.63765 0.85165 0.0
O715 O 0.47036 0.6172 0.88456 0.0
O716 O 0.48965 0.59319 0.87096 0.0
H717 H 0.42256 0.62357 0.93772 0.0
H718 H 0.47901 0.60923 0.80808 0.0
O719 O 0.46672 0.57449 0.81895 0.0
H720 H 0.54833 0.60989 0.83406 0.0
H721 H 0.52334 0.53096 0.81664 0.0
H722 H 0.48806 0.55527 0.87702 0.0
H723 H 0.52188 0.59071 0.85149 0.0
H724 H 0.50284 0.56178 0.81534 0.0
O725 O 0.45664 0.64758 0.85881 0.0
H726 H 0.44085 0.60889 0.90905 0.0
H727 H 0.42178 0.65685 0.87158 0.0
H728 H 0.50855 0.52448 0.87904 0.0
H729 H 0.50504 0.62849 0.79007 0.0
H730 H 0.52636 0.51213 0.84869 0.0
H731 H 0.53997 0.62896 0.80311 0.0
O732 O 0.45651 0.56975 0.85947 0.0
H733 H 0.41159 0.64027 0.80277 0.0
H734 H 0.4034 0.60956 0.86965 0.0
H735 H 0.37405 0.6126 0.84728 0.0
H736 H 0.37804 0.62809 0.81359 0.0
H737 H 0.44058 0.63678 0.82557 0.0
H738 H 0.40343 0.67215 0.89989 0.0
H739 H 0.40369 0.65543 0.93323 0.0
O740 O 0.43701 0.59288 0.87459 0.0
C741 C 0.48568 0.60574 0.88481 0.0
C742 C 0.42227 0.63095 0.92325 0.0
C743 C 0.41156 0.65823 0.90203 0.0
N744 N 0.4322 0.63189 0.88863 0.0
C745 C 0.43254 0.62268 0.90695 0.0
C746 C 0.422 0.64952 0.88606 0.0
C747 C 0.4117 0.64884 0.92073 0.0
C748 C 0.49423 0.6092 0.8137 0.0
N749 N 0.49894 0.5988 0.83074 0.0
C750 C 0.50888 0.6202 0.8035 0.0
C751 C 0.52847 0.62048 0.81085 0.0
C752 C 0.53317 0.60979 0.82822 0.0
C753 C 0.51812 0.59899 0.83805 0.0
C754 C 0.5157 0.53622 0.82998 0.0
C755 C 0.49589 0.55007 0.86379 0.0
C756 C 0.50404 0.55365 0.82933 0.0
N757 N 0.49442 0.56042 0.84614 0.0
C758 C 0.50741 0.53259 0.86501 0.0
C759 C 0.51739 0.52566 0.84797 0.0
C760 C 0.44183 0.57472 0.87072 0.0
C761 C 0.40965 0.63354 0.81744 0.0
C762 C 0.40527 0.61626 0.85498 0.0
C763 C 0.38859 0.61798 0.8424 0.0
C764 C 0.39084 0.62668 0.8235 0.0
N765 N 0.42365 0.62308 0.84894 0.0
C766 C 0.42599 0.63159 0.83043 0.0
Co767 Co 0.53934 0.92363 0.84455 0.0
Co768 Co 0.56626 0.88975 0.87329 0.0
O769 O 0.55565 0.89954 0.84772 0.0
C770 C 0.57375 0.93262 0.81791 0.0
O771 O 0.58576 0.92808 0.83285 0.0
C772 C 0.54052 0.85727 0.85835 0.0
O773 O 0.52756 0.87145 0.85399 0.0
O774 O 0.54023 0.89414 0.88724 0.0
O775 O 0.52355 0.9172 0.8692 0.0
H776 H 0.57863 0.89133 0.94769 0.0
H777 H 0.54362 0.89553 0.81035 0.0
O778 O 0.5548 0.93085 0.81981 0.0
H779 H 0.47106 0.89782 0.82492 0.0
H780 H 0.50051 0.9748 0.80469 0.0
H781 H 0.52402 0.95511 0.87208 0.0
H782 H 0.49485 0.91829 0.84455 0.0
H783 H 0.5206 0.94403 0.80938 0.0
O784 O 0.55739 0.8618 0.8662 0.0
H785 H 0.56532 0.90392 0.9155 0.0
H786 H 0.58975 0.85354 0.88501 0.0
H787 H 0.50382 0.9859 0.86809 0.0
H788 H 0.52034 0.87492 0.79023 0.0
H789 H 0.49193 0.99593 0.8342 0.0
H790 H 0.48379 0.87593 0.79754 0.0
O791 O 0.55847 0.93952 0.86105 0.0
H792 H 0.61085 0.86506 0.81768 0.0
H793 H 0.60866 0.90055 0.88261 0.0
H794 H 0.64115 0.89593 0.86544 0.0
H795 H 0.64238 0.87803 0.83275 0.0
H796 H 0.57865 0.87016 0.8353 0.0
H797 H 0.60318 0.84029 0.9169 0.0
H798 H 0.59771 0.85929 0.94852 0.0
O799 O 0.57481 0.91753 0.88098 0.0
C800 C 0.52526 0.90573 0.88442 0.0
C801 C 0.5812 0.88297 0.934 0.0
C802 C 0.59495 0.85431 0.91672 0.0
N803 N 0.57699 0.87961 0.89838 0.0
C804 C 0.57378 0.89007 0.91572 0.0
C805 C 0.58729 0.86186 0.89872 0.0
C806 C 0.59188 0.86497 0.93446 0.0
C807 C 0.52771 0.8962 0.81347 0.0
N808 N 0.52059 0.90815 0.82854 0.0
C809 C 0.51461 0.88444 0.80209 0.0
C810 C 0.49411 0.88499 0.80622 0.0
C811 C 0.48696 0.89725 0.82159 0.0
C812 C 0.5005 0.90878 0.83268 0.0
C813 C 0.50557 0.97057 0.81954 0.0
C814 C 0.51878 0.9593 0.8573 0.0
C815 C 0.51698 0.95318 0.82229 0.0
N816 N 0.52332 0.94769 0.84101 0.0
C817 C 0.5074 0.97678 0.85513 0.0
C818 C 0.50075 0.98241 0.83611 0.0
C819 C 0.57095 0.93535 0.87499 0.0
C820 C 0.61051 0.87283 0.83194 0.0
C821 C 0.60907 0.89279 0.86836 0.0
C822 C 0.62752 0.89019 0.85873 0.0
C823 C 0.6282 0.88013 0.84039 0.0
N824 N 0.59181 0.88552 0.86 0.0
C825 C 0.59234 0.8757 0.84202 0.0
Co826 Co 0.47522 0.41267 0.63468 0.0
Co827 Co 0.44646 0.37731 0.60982 0.0
O828 O 0.4595 0.38802 0.63389 0.0
C829 C 0.44408 0.42236 0.66513 0.0
O830 O 0.4302 0.41727 0.6521 0.0
C831 C 0.47488 0.34563 0.62142 0.0
O832 O 0.48819 0.36005 0.62318 0.0
O833 O 0.47069 0.38205 0.59285 0.0
O834 O 0.48828 0.406 0.60867 0.0
H835 H 0.42592 0.37652 0.53723 0.0
H836 H 0.47566 0.38518 0.66961 0.0
O837 O 0.4626 0.42025 0.66084 0.0
H838 H 0.54611 0.38952 0.64725 0.0
H839 H 0.51681 0.46601 0.66842 0.0
H840 H 0.48622 0.44378 0.60479 0.0
H841 H 0.51963 0.40878 0.62994 0.0
H842 H 0.49733 0.43455 0.6669 0.0
O843 O 0.45684 0.34981 0.61659 0.0
H844 H 0.44238 0.39029 0.5674 0.0
H845 H 0.42283 0.34024 0.60171 0.0
H846 H 0.50573 0.47524 0.6056 0.0
H847 H 0.50168 0.36579 0.68749 0.0
H848 H 0.52118 0.48654 0.6376 0.0
H849 H 0.53719 0.36785 0.67627 0.0
O850 O 0.45383 0.42757 0.6201 0.0
H851 H 0.40901 0.35279 0.67055 0.0
H852 H 0.40299 0.3868 0.60506 0.0
H853 H 0.37273 0.38174 0.62582 0.0
H854 H 0.37564 0.36458 0.6588 0.0
H855 H 0.4389 0.35831 0.64938 0.0
H856 H 0.40631 0.32581 0.57188 0.0
H857 H 0.40772 0.34404 0.53937 0.0
O858 O 0.43629 0.40461 0.60246 0.0
C859 C 0.48546 0.39416 0.59394 0.0
C860 C 0.42511 0.36848 0.55134 0.0
C861 C 0.41413 0.34 0.57077 0.0
N862 N 0.43333 0.36622 0.58634 0.0
C863 C 0.43432 0.37626 0.56849 0.0
C864 C 0.42353 0.34824 0.5876 0.0
C865 C 0.41492 0.35024 0.55254 0.0
C866 C 0.49111 0.38628 0.66476 0.0
N867 N 0.49613 0.39813 0.6488 0.0
C868 C 0.50576 0.37521 0.67489 0.0
C869 C 0.52568 0.37635 0.66857 0.0
C870 C 0.53069 0.3885 0.65228 0.0
C871 C 0.51563 0.39933 0.6425 0.0
C872 C 0.51018 0.46122 0.65438 0.0
C873 C 0.49301 0.44854 0.61874 0.0
C874 C 0.49911 0.44344 0.65344 0.0
N875 N 0.49078 0.43726 0.63573 0.0
C876 C 0.50399 0.46639 0.61912 0.0
C877 C 0.51263 0.47273 0.63708 0.0
C878 C 0.44013 0.42267 0.60764 0.0
C879 C 0.40754 0.36024 0.65619 0.0
C880 C 0.40438 0.37939 0.61943 0.0
C881 C 0.38719 0.37652 0.63109 0.0
C882 C 0.38883 0.36688 0.64959 0.0
N883 N 0.42267 0.37276 0.62597 0.0
C884 C 0.4244 0.36335 0.64411 0.0
Co885 Co 0.53435 0.07354 0.63183 0.0
Co886 Co 0.56199 0.10547 0.60164 0.0
O887 O 0.55144 0.09687 0.62763 0.0
C888 C 0.56962 0.06384 0.657 0.0
O889 O 0.58106 0.06842 0.64162 0.0
C890 C 0.5362 0.13862 0.61495 0.0
O891 O 0.52312 0.1246 0.61942 0.0
O892 O 0.53587 0.10059 0.58783 0.0
O893 O 0.51782 0.08041 0.6079 0.0
H894 H 0.57478 0.10026 0.52746 0.0
H895 H 0.54142 0.10187 0.66537 0.0
O896 O 0.55063 0.06584 0.6559 0.0
H897 H 0.46821 0.10245 0.65433 0.0
H898 H 0.49528 0.02446 0.67401 0.0
H899 H 0.51646 0.0425 0.60539 0.0
H900 H 0.49018 0.08074 0.63389 0.0
H901 H 0.5164 0.0543 0.66805 0.0
O902 O 0.55326 0.13377 0.60768 0.0
H903 H 0.56141 0.08918 0.56017 0.0
H904 H 0.5853 0.14119 0.58824 0.0
H905 H 0.49521 0.01263 0.61066 0.0
H906 H 0.51999 0.12369 0.68628 0.0
H907 H 0.48448 0.00344 0.64517 0.0
H908 H 0.48311 0.12411 0.68076 0.0
O909 O 0.55192 0.05665 0.61459 0.0
H910 H 0.6069 0.13237 0.65592 0.0
H911 H 0.60428 0.09403 0.59265 0.0
H912 H 0.63687 0.09924 0.60944 0.0
H913 H 0.63832 0.11858 0.64129 0.0
H914 H 0.57461 0.12665 0.63871 0.0
H915 H 0.5988 0.15293 0.5558 0.0
H916 H 0.59362 0.13236 0.52513 0.0
O917 O 0.57035 0.07732 0.59517 0.0
C918 C 0.52013 0.09044 0.59177 0.0
C919 C 0.57719 0.10932 0.54073 0.0
C920 C 0.59065 0.1389 0.55663 0.0
N921 N 0.57273 0.11445 0.57611 0.0
C922 C 0.56971 0.10309 0.5593 0.0
C923 C 0.58294 0.1322 0.57494 0.0
C924 C 0.58775 0.12735 0.53943 0.0
C925 C 0.52536 0.10184 0.66302 0.0
N926 N 0.51705 0.08999 0.6485 0.0
C927 C 0.51331 0.11428 0.67485 0.0
C928 C 0.49263 0.11453 0.67172 0.0
C929 C 0.48426 0.10238 0.65689 0.0
C930 C 0.49677 0.09015 0.64534 0.0
C931 C 0.49981 0.02834 0.6589 0.0
C932 C 0.51173 0.03868 0.62044 0.0
C933 C 0.5118 0.04519 0.65544 0.0
N934 N 0.51749 0.05023 0.63638 0.0
C935 C 0.49975 0.02171 0.62334 0.0
C936 C 0.49376 0.01655 0.64271 0.0
C937 C 0.56502 0.05981 0.60095 0.0
C938 C 0.60647 0.12397 0.64202 0.0
C939 C 0.60479 0.1024 0.60654 0.0
C940 C 0.62329 0.10534 0.61595 0.0
C941 C 0.62409 0.1162 0.63382 0.0
N942 N 0.58759 0.11013 0.61465 0.0
C943 C 0.58825 0.12074 0.63218 0.0
Co944 Co 0.84826 0.47637 0.58427 0.0
Co945 Co 0.86851 0.4478 0.62252 0.0
O946 O 0.84612 0.46204 0.60975 0.0
C947 C 0.81465 0.44871 0.57449 0.0
O948 O 0.82546 0.43363 0.58119 0.0
C949 C 0.85566 0.47714 0.65285 0.0
O950 O 0.85493 0.49022 0.63814 0.0
O951 O 0.88692 0.47107 0.61892 0.0
O952 O 0.87543 0.48662 0.59137 0.0
H953 H 0.93958 0.4233 0.62909 0.0
H954 H 0.81233 0.48274 0.60964 0.0
O955 O 0.8211 0.46664 0.57606 0.0
H956 H 0.84389 0.54942 0.60333 0.0
H957 H 0.82221 0.51894 0.52746 0.0
H958 H 0.88028 0.48124 0.55373 0.0
H959 H 0.85857 0.51996 0.58635 0.0
H960 H 0.8201 0.50141 0.56001 0.0
O961 O 0.86036 0.45894 0.64928 0.0
H962 H 0.91147 0.44111 0.61282 0.0
H963 H 0.8725 0.42439 0.66043 0.0
H964 H 0.8831 0.49872 0.5212 0.0
H965 H 0.79703 0.51185 0.62672 0.0
H966 H 0.85392 0.51773 0.50786 0.0
H967 H 0.81289 0.54546 0.62368 0.0
O968 O 0.86061 0.45253 0.57133 0.0
H969 H 0.80404 0.41417 0.64255 0.0
H970 H 0.87164 0.40392 0.61412 0.0
H971 H 0.84888 0.37495 0.6179 0.0
H972 H 0.81482 0.37999 0.63225 0.0
H973 H 0.82723 0.44275 0.63835 0.0
H974 H 0.90023 0.40654 0.67733 0.0
H975 H 0.93403 0.40586 0.66159 0.0
O976 O 0.87742 0.43667 0.59603 0.0
C977 C 0.88844 0.48428 0.60518 0.0
C978 C 0.92489 0.42342 0.63605 0.0
C979 C 0.90281 0.41404 0.66314 0.0
N980 N 0.89032 0.43359 0.63555 0.0
C981 C 0.90891 0.43341 0.62687 0.0
C982 C 0.88718 0.42419 0.65352 0.0
C983 C 0.92178 0.41366 0.6543 0.0
C984 C 0.81918 0.49737 0.60808 0.0
N985 N 0.83626 0.49967 0.59696 0.0
C986 C 0.81051 0.51377 0.61785 0.0
C987 C 0.81944 0.53262 0.61616 0.0
C988 C 0.83684 0.53485 0.60476 0.0
C989 C 0.84511 0.5181 0.59523 0.0
C990 C 0.83505 0.51075 0.53313 0.0
C991 C 0.86756 0.48961 0.54809 0.0
C992 C 0.83393 0.50076 0.55154 0.0
N993 N 0.85012 0.49047 0.55885 0.0
C994 C 0.86923 0.49942 0.52963 0.0
C995 C 0.85284 0.51007 0.52215 0.0
C996 C 0.8726 0.439 0.57763 0.0
C997 C 0.81886 0.41178 0.63633 0.0
C998 C 0.85682 0.40624 0.62031 0.0
C999 C 0.84401 0.38977 0.62246 0.0
C1000 C 0.82491 0.39261 0.63052 0.0
N1001 N 0.85079 0.42498 0.6261 0.0
C1002 C 0.83207 0.42789 0.63397 0.0
Co1003 Co 0.15098 0.0023 0.58642 0.0
Co1004 Co 0.12781 0.03744 0.61681 0.0
O1005 O 0.15119 0.02205 0.60798 0.0
C1006 C 0.18103 0.03176 0.57216 0.0
O1007 O 0.16834 0.04612 0.57681 0.0
C1008 C 0.13982 0.01421 0.65228 0.0
O1009 O 0.14102 0.99871 0.6402 0.0
O1010 O 0.10999 0.01332 0.6162 0.0
O1011 O 0.12535 0.99073 0.59644 0.0
H1012 H 0.05607 0.06076 0.61479 0.0
H1013 H 0.18699 0.00661 0.61213 0.0
O1014 O 0.17666 0.01349 0.5757 0.0
H1015 H 0.16502 0.93644 0.62084 0.0
H1016 H 0.18273 0.95205 0.53971 0.0
H1017 H 0.11985 0.98601 0.5591 0.0
H1018 H 0.14679 0.95922 0.59803 0.0
H1019 H 0.18241 0.97677 0.56728 0.0
O1020 O 0.13482 0.03136 0.64542 0.0
H1021 H 0.08549 0.04131 0.60345 0.0
H1022 H 0.12094 0.06662 0.64999 0.0
H1023 H 0.11946 0.96126 0.53156 0.0
H1024 H 0.2058 0.9843 0.63496 0.0
H1025 H 0.15107 0.94409 0.52171 0.0
H1026 H 0.19478 0.94896 0.63948 0.0
O1027 O 0.13568 0.02079 0.56857 0.0
H1028 H 0.19023 0.07612 0.63403 0.0
H1029 H 0.12415 0.07906 0.60077 0.0
H1030 H 0.14597 0.10898 0.60061 0.0
H1031 H 0.17925 0.10763 0.61735 0.0
H1032 H 0.168 0.0465 0.63369 0.0
H1033 H 0.09186 0.08624 0.66194 0.0
H1034 H 0.05916 0.08342 0.64424 0.0
O1035 O 0.12041 0.04345 0.58845 0.0
C1036 C 0.11075 0.99628 0.60748 0.0
C1037 C 0.07026 0.06217 0.62259 0.0
C1038 C 0.09034 0.07645 0.64907 0.0
N1039 N 0.10494 0.05296 0.62595 0.0
C1040 C 0.08698 0.05124 0.6162 0.0
C1041 C 0.10673 0.06528 0.64226 0.0
C1042 C 0.072 0.07486 0.63912 0.0
C1043 C 0.18221 0.9912 0.6139 0.0
N1044 N 0.16583 0.98421 0.60374 0.0
C1045 C 0.19288 0.97866 0.6269 0.0
C1046 C 0.18667 0.95884 0.62945 0.0
C1047 C 0.16996 0.95181 0.619 0.0
C1048 C 0.15966 0.96479 0.60615 0.0
C1049 C 0.16885 0.9594 0.5439 0.0
C1050 C 0.13364 0.9785 0.55498 0.0
C1051 C 0.16859 0.97344 0.55946 0.0
N1052 N 0.15109 0.9827 0.56489 0.0
C1053 C 0.13333 0.96455 0.53934 0.0
C1054 C 0.15108 0.95494 0.5338 0.0
C1055 C 0.12428 0.03598 0.57125 0.0
C1056 C 0.17573 0.07692 0.62673 0.0
C1057 C 0.13864 0.07835 0.60805 0.0
C1058 C 0.1509 0.09535 0.60794 0.0
C1059 C 0.16958 0.09458 0.61735 0.0
N1060 N 0.14476 0.06109 0.61733 0.0
C1061 C 0.16306 0.06022 0.62656 0.0
Co1062 Co 0.84303 0.53858 0.92345 0.0
Co1063 Co 0.87173 0.56804 0.8917 0.0
O1064 O 0.84623 0.5565 0.90053 0.0
C1065 C 0.81697 0.57286 0.9341 0.0
O1066 O 0.8319 0.58474 0.92921 0.0
C1067 C 0.85752 0.5435 0.85801 0.0
O1068 O 0.85291 0.53006 0.87163 0.0
O1069 O 0.88616 0.54215 0.89527 0.0
O1070 O 0.86746 0.52301 0.91577 0.0
H1071 H 0.94572 0.58218 0.8956 0.0
H1072 H 0.80865 0.54525 0.89602 0.0
O1073 O 0.81859 0.55391 0.93196 0.0
H1074 H 0.82238 0.47254 0.89305 0.0
H1075 H 0.80299 0.49681 0.97207 0.0
H1076 H 0.87056 0.52082 0.95362 0.0
H1077 H 0.84246 0.4946 0.91498 0.0
H1078 H 0.80776 0.51891 0.94273 0.0
O1079 O 0.86536 0.56017 0.86325 0.0
H1080 H 0.91358 0.5677 0.90693 0.0
H1081 H 0.88372 0.59306 0.85663 0.0
H1082 H 0.86649 0.49861 0.98298 0.0
H1083 H 0.7881 0.52371 0.87399 0.0
H1084 H 0.83251 0.48645 0.99237 0.0
H1085 H 0.79498 0.48709 0.87236 0.0
O1086 O 0.8599 0.55629 0.9405 0.0
H1087 H 0.81565 0.61247 0.86775 0.0
H1088 H 0.87994 0.61014 0.90439 0.0
H1089 H 0.86218 0.64245 0.90076 0.0
H1090 H 0.82981 0.64375 0.88228 0.0
H1091 H 0.83384 0.58046 0.87188 0.0
H1092 H 0.91558 0.60769 0.84465 0.0
H1093 H 0.94686 0.60234 0.86424 0.0
O1094 O 0.87864 0.57559 0.91999 0.0
C1095 C 0.88313 0.52607 0.90519 0.0
C1096 C 0.93218 0.58468 0.88698 0.0
C1097 C 0.91527 0.59898 0.85836 0.0
N1098 N 0.89677 0.57971 0.88256 0.0
C1099 C 0.91393 0.57658 0.89336 0.0
C1100 C 0.89729 0.59063 0.8652 0.0
C1101 C 0.93281 0.59597 0.86937 0.0
C1102 C 0.81158 0.52929 0.89554 0.0
N1103 N 0.82666 0.52117 0.90683 0.0
C1104 C 0.79996 0.51719 0.88298 0.0
C1105 C 0.80385 0.49665 0.88205 0.0
C1106 C 0.81923 0.48847 0.89364 0.0
C1107 C 0.83057 0.50104 0.90601 0.0
C1108 C 0.81788 0.50196 0.9681 0.0
C1109 C 0.85574 0.51547 0.95753 0.0
C1110 C 0.82067 0.5145 0.95152 0.0
N1111 N 0.83944 0.52097 0.94636 0.0
C1112 C 0.85352 0.50295 0.97421 0.0
C1113 C 0.83445 0.49615 0.97948 0.0
C1114 C 0.87317 0.56978 0.93744 0.0
C1115 C 0.82977 0.61211 0.87578 0.0
C1116 C 0.86583 0.61058 0.89638 0.0
C1117 C 0.85587 0.62892 0.89434 0.0
C1118 C 0.83771 0.62965 0.88396 0.0
N1119 N 0.85798 0.59347 0.88825 0.0
C1120 C 0.84017 0.59404 0.8781 0.0
Co1121 Co 0.15323 0.9885 0.93036 0.0
Co1122 Co 0.12397 0.95892 0.89942 0.0
O1123 O 0.14956 0.97046 0.90767 0.0
C1124 C 0.17918 0.95404 0.94018 0.0
O1125 O 0.16391 0.9424 0.93582 0.0
C1126 C 0.13741 0.9826 0.86479 0.0
O1127 O 0.14106 0.997 0.87771 0.0
O1128 O 0.10983 0.98511 0.90247 0.0
O1129 O 0.1288 0.00409 0.92289 0.0
H1130 H 0.04989 0.94556 0.90427 0.0
H1131 H 0.18696 0.98135 0.90219 0.0
O1132 O 0.17769 0.97304 0.93842 0.0
H1133 H 0.17376 0.05415 0.899 0.0
H1134 H 0.19449 0.03041 0.97777 0.0
H1135 H 0.12637 0.00696 0.96073 0.0
H1136 H 0.15397 0.03239 0.92152 0.0
H1137 H 0.18901 0.00797 0.94882 0.0
O1138 O 0.1304 0.96585 0.87084 0.0
H1139 H 0.08225 0.96 0.91499 0.0
H1140 H 0.11148 0.93318 0.86507 0.0
H1141 H 0.13114 0.02951 0.9897 0.0
H1142 H 0.20722 0.00258 0.87958 0.0
H1143 H 0.16541 0.04139 0.99838 0.0
H1144 H 0.20062 0.03924 0.87784 0.0
O1145 O 0.13654 0.9711 0.94802 0.0
H1146 H 0.1795 0.9133 0.87642 0.0
H1147 H 0.11536 0.91724 0.91322 0.0
H1148 H 0.13279 0.88467 0.91039 0.0
H1149 H 0.16508 0.88256 0.89185 0.0
H1150 H 0.16166 0.94559 0.87976 0.0
H1151 H 0.0794 0.91856 0.85371 0.0
H1152 H 0.04833 0.92467 0.87342 0.0
O1153 O 0.11719 0.95216 0.92782 0.0
C1154 C 0.11311 0.0012 0.91231 0.0
C1155 C 0.06334 0.94273 0.8956 0.0
C1156 C 0.0799 0.9276 0.8672 0.0
N1157 N 0.09875 0.94728 0.89076 0.0
C1158 C 0.08171 0.95081 0.90162 0.0
C1159 C 0.09801 0.93594 0.87368 0.0
C1160 C 0.06247 0.93103 0.87827 0.0
C1161 C 0.18413 0.99732 0.90165 0.0
N1162 N 0.16937 0.00564 0.91322 0.0
C1163 C 0.19559 0.00925 0.88876 0.0
C1164 C 0.19186 0.02982 0.88778 0.0
C1165 C 0.17679 0.03819 0.89964 0.0
C1166 C 0.16561 0.0258 0.91233 0.0
C1167 C 0.17948 0.02537 0.97411 0.0
C1168 C 0.14131 0.01217 0.96434 0.0
C1169 C 0.17629 0.01264 0.95777 0.0
N1170 N 0.15737 0.00631 0.953 0.0
C1171 C 0.14393 0.02489 0.98079 0.0
C1172 C 0.16316 0.03153 0.98567 0.0
C1173 C 0.12293 0.95791 0.94518 0.0
C1174 C 0.16541 0.91402 0.88449 0.0
C1175 C 0.12943 0.91644 0.90517 0.0
C1176 C 0.13921 0.89796 0.90358 0.0
C1177 C 0.15732 0.89678 0.89317 0.0
N1178 N 0.13744 0.93327 0.89656 0.0
C1179 C 0.15521 0.93224 0.88636 0.0
Co1180 Co 0.58879 0.84495 0.47568 0.0
Co1181 Co 0.62442 0.86726 0.44505 0.0
O1182 O 0.61296 0.84406 0.45914 0.0
C1183 C 0.57676 0.81417 0.44575 0.0
O1184 O 0.58337 0.82597 0.4314 0.0
C1185 C 0.65601 0.85436 0.47297 0.0
O1186 O 0.64163 0.8524 0.48628 0.0
O1187 O 0.62094 0.88525 0.46872 0.0
O1188 O 0.59724 0.87089 0.48783 0.0
H1189 H 0.62739 0.93896 0.42166 0.0
H1190 H 0.61428 0.80857 0.47621 0.0
O1191 O 0.57927 0.81897 0.46409 0.0
H1192 H 0.61363 0.83296 0.54609 0.0
H1193 H 0.53518 0.81542 0.52009 0.0
H1194 H 0.55959 0.87675 0.48653 0.0
H1195 H 0.59438 0.85057 0.51982 0.0
H1196 H 0.56608 0.81468 0.49969 0.0
O1197 O 0.65185 0.85992 0.45513 0.0
H1198 H 0.61283 0.90993 0.43948 0.0
H1199 H 0.66134 0.87315 0.4205 0.0
H1200 H 0.52873 0.87821 0.50697 0.0
H1201 H 0.63361 0.79035 0.50204 0.0
H1202 H 0.51633 0.84738 0.5239 0.0
H1203 H 0.63343 0.8026 0.53726 0.0
O1204 O 0.57402 0.85963 0.45427 0.0
H1205 H 0.64576 0.80431 0.40939 0.0
H1206 H 0.61424 0.87087 0.40163 0.0
H1207 H 0.61786 0.84886 0.37207 0.0
H1208 H 0.63376 0.81533 0.37585 0.0
H1209 H 0.64169 0.82674 0.43858 0.0
H1210 H 0.67653 0.90182 0.40262 0.0
H1211 H 0.65948 0.93499 0.40306 0.0
O1212 O 0.59723 0.87528 0.43517 0.0
C1213 C 0.60948 0.88507 0.48403 0.0
C1214 C 0.63492 0.92456 0.42128 0.0
C1215 C 0.66251 0.90372 0.41062 0.0
N1216 N 0.63611 0.88983 0.43083 0.0
C1217 C 0.6267 0.90805 0.43127 0.0
C1218 C 0.65386 0.88755 0.42079 0.0
C1219 C 0.65293 0.92233 0.41087 0.0
C1220 C 0.61398 0.81386 0.49154 0.0
N1221 N 0.6032 0.83059 0.49651 0.0
C1222 C 0.62502 0.80354 0.50609 0.0
C1223 C 0.62493 0.81044 0.52584 0.0
C1224 C 0.61384 0.82748 0.5308 0.0
C1225 C 0.60302 0.83743 0.51585 0.0
C1226 C 0.54045 0.82896 0.51281 0.0
C1227 C 0.55436 0.8633 0.49396 0.0
C1228 C 0.55791 0.82862 0.5012 0.0
N1229 N 0.5647 0.84568 0.49203 0.0
C1230 C 0.53685 0.8642 0.50547 0.0
C1231 C 0.52988 0.8469 0.51494 0.0
C1232 C 0.57911 0.87112 0.4398 0.0
C1233 C 0.63886 0.81891 0.40754 0.0
C1234 C 0.62112 0.85628 0.4034 0.0
C1235 C 0.62316 0.8439 0.3866 0.0
C1236 C 0.6321 0.82509 0.38873 0.0
N1237 N 0.62785 0.85013 0.42178 0.0
C1238 C 0.63658 0.8317 0.424 0.0
Co1239 Co 0.58067 0.15002 1e-05 0.0
Co1240 Co 0.61563 0.12906 0.03203 0.0
O1241 O 0.60457 0.15157 0.01683 0.0
C1242 C 0.57006 0.18223 0.02862 0.0
O1243 O 0.57585 0.17029 0.0432 0.0
C1244 C 0.64911 0.14132 0.0059 0.0
O1245 O 0.6363 0.14095 0.99094 0.0
O1246 O 0.61395 0.11082 0.00832 0.0
O1247 O 0.58905 0.12339 0.98935 0.0
H1248 H 0.61884 0.05784 0.05674 0.0
H1249 H 0.60658 0.18613 0.99804 0.0
O1250 O 0.57158 0.17665 0.0104 0.0
H1251 H 0.60693 0.158 0.92957 0.0
H1252 H 0.52837 0.17842 0.95342 0.0
H1253 H 0.55108 0.11825 0.99014 0.0
H1254 H 0.58717 0.1419 0.95644 0.0
H1255 H 0.55884 0.17957 0.97443 0.0
O1256 O 0.6433 0.13719 0.02365 0.0
H1257 H 0.60465 0.08628 0.0377 0.0
H1258 H 0.65127 0.12437 0.05866 0.0
H1259 H 0.52062 0.11638 0.96918 0.0
H1260 H 0.62642 0.20282 0.97157 0.0
H1261 H 0.50909 0.14662 0.95063 0.0
H1262 H 0.62671 0.1887 0.93706 0.0
O1263 O 0.56526 0.1364 0.02165 0.0
H1264 H 0.63282 0.19316 0.06787 0.0
H1265 H 0.60326 0.12565 0.07494 0.0
H1266 H 0.60445 0.14817 0.10429 0.0
H1267 H 0.61934 0.18219 0.10086 0.0
H1268 H 0.63118 0.17021 0.03885 0.0
H1269 H 0.66606 0.09631 0.0778 0.0
H1270 H 0.64977 0.06278 0.07697 0.0
O1271 O 0.58823 0.12049 0.04059 0.0
C1272 C 0.60214 0.10998 0.99327 0.0
C1273 C 0.62604 0.0724 0.05728 0.0
C1274 C 0.65256 0.09398 0.06907 0.0
N1275 N 0.62703 0.10699 0.04721 0.0
C1276 C 0.61804 0.08857 0.04657 0.0
C1277 C 0.64414 0.1098 0.05818 0.0
C1278 C 0.6434 0.07517 0.06861 0.0
C1279 C 0.6065 0.18002 0.98301 0.0
N1280 N 0.59566 0.16314 0.97876 0.0
C1281 C 0.61781 0.18948 0.96811 0.0
C1282 C 0.61799 0.18154 0.94875 0.0
C1283 C 0.60691 0.1643 0.94454 0.0
C1284 C 0.59578 0.15523 0.95983 0.0
C1285 C 0.53328 0.16512 0.96138 0.0
C1286 C 0.54624 0.13143 0.98199 0.0
C1287 C 0.5505 0.16569 0.97331 0.0
N1288 N 0.55685 0.14893 0.98331 0.0
C1289 C 0.52894 0.1303 0.9702 0.0
C1290 C 0.52247 0.14728 0.95981 0.0
C1291 C 0.57011 0.12463 0.03597 0.0
C1292 C 0.62634 0.17836 0.06956 0.0
C1293 C 0.60971 0.14045 0.07331 0.0
C1294 C 0.61038 0.15312 0.09 0.0
C1295 C 0.61875 0.1722 0.08807 0.0
N1296 N 0.61723 0.14658 0.05523 0.0
C1297 C 0.62544 0.16527 0.05321 0.0
Co1298 Co 0.41188 0.36829 0.99693 0.0
Co1299 Co 0.38296 0.39205 0.03299 0.0
O1300 O 0.39143 0.36823 0.01794 0.0
C1301 C 0.42903 0.34024 0.02691 0.0
O1302 O 0.42284 0.35237 0.04116 0.0
C1303 C 0.3468 0.37885 0.01134 0.0
O1304 O 0.35868 0.37527 0.99604 0.0
O1305 O 0.38294 0.4094 0.0085 0.0
O1306 O 0.39994 0.3927 0.9847 0.0
H1307 H 0.38626 0.46421 0.05475 0.0
H1308 H 0.38848 0.33131 0.00464 0.0
O1309 O 0.42475 0.34386 0.00863 0.0
H1310 H 0.37416 0.34922 0.93425 0.0
H1311 H 0.45691 0.3363 0.94529 0.0
H1312 H 0.43674 0.39978 0.97764 0.0
H1313 H 0.39738 0.36971 0.95453 0.0
H1314 H 0.43082 0.33657 0.97157 0.0
O1315 O 0.35405 0.38537 0.0278 0.0
H1316 H 0.39683 0.43429 0.03566 0.0
H1317 H 0.35058 0.39985 0.06287 0.0
H1318 H 0.46275 0.40022 0.95128 0.0
H1319 H 0.36529 0.31028 0.98485 0.0
H1320 H 0.473 0.36831 0.93492 0.0
H1321 H 0.35794 0.31926 0.94941 0.0
O1322 O 0.43008 0.3853 0.01352 0.0
H1323 H 0.36619 0.33063 0.07345 0.0
H1324 H 0.40011 0.39643 0.07407 0.0
H1325 H 0.40084 0.37524 0.10445 0.0
H1326 H 0.38376 0.3421 0.10426 0.0
H1327 H 0.36598 0.35223 0.04335 0.0
H1328 H 0.3394 0.42944 0.08214 0.0
H1329 H 0.35734 0.46189 0.07819 0.0
O1330 O 0.41154 0.39929 0.03805 0.0
C1331 C 0.38981 0.40774 0.99072 0.0
C1332 C 0.37836 0.45014 0.05665 0.0
C1333 C 0.35204 0.43063 0.072 0.0
N1334 N 0.37442 0.41532 0.04826 0.0
C1335 C 0.38431 0.43314 0.04592 0.0
C1336 C 0.35841 0.41394 0.06102 0.0
C1337 C 0.36212 0.44884 0.06978 0.0
C1338 C 0.38549 0.33519 0.98917 0.0
N1339 N 0.3943 0.35168 0.98073 0.0
C1340 C 0.37229 0.32328 0.97807 0.0
C1341 C 0.36816 0.32834 0.95819 0.0
C1342 C 0.37724 0.34516 0.94968 0.0
C1343 C 0.39033 0.35674 0.96125 0.0
C1344 C 0.45255 0.3503 0.95228 0.0
C1345 C 0.44103 0.38585 0.9705 0.0
C1346 C 0.43782 0.35055 0.96721 0.0
N1347 N 0.43218 0.36819 0.97604 0.0
C1348 C 0.45581 0.38618 0.95562 0.0
C1349 C 0.46157 0.36827 0.94647 0.0
C1350 C 0.42823 0.39625 0.02915 0.0
C1351 C 0.37364 0.34506 0.07373 0.0
C1352 C 0.39269 0.382 0.07387 0.0
C1353 C 0.39312 0.37009 0.09112 0.0
C1354 C 0.38352 0.3515 0.09101 0.0
N1355 N 0.38292 0.3756 0.057 0.0
C1356 C 0.3735 0.35739 0.05676 0.0
Co1357 Co 0.92696 0.15511 0.98412 0.0
Co1358 Co 0.89788 0.12599 0.95256 0.0
O1359 O 0.90522 0.15147 0.96491 0.0
C1360 C 0.93793 0.18152 0.95044 0.0
O1361 O 0.93389 0.16634 0.93855 0.0
C1362 C 0.86195 0.13886 0.97455 0.0
O1363 O 0.87416 0.14257 0.98955 0.0
O1364 O 0.89973 0.11153 0.97865 0.0
O1365 O 0.91903 0.13031 0.99897 0.0
H1366 H 0.90423 0.05214 0.9385 0.0
H1367 H 0.89886 0.1887 0.97608 0.0
O1368 O 0.93554 0.17987 0.96936 0.0
H1369 H 0.89207 0.17424 0.04837 0.0
H1370 H 0.97172 0.19629 0.0289 0.0
H1371 H 0.95675 0.12834 0.00363 0.0
H1372 H 0.91587 0.15502 0.02749 0.0
H1373 H 0.94398 0.1908 0.00499 0.0
O1374 O 0.86887 0.13199 0.95808 0.0
H1375 H 0.91382 0.08442 0.95391 0.0
H1376 H 0.86508 0.11351 0.92486 0.0
H1377 H 0.98453 0.13312 0.02765 0.0
H1378 H 0.87499 0.2084 0.99644 0.0
H1379 H 0.99216 0.1673 0.04045 0.0
H1380 H 0.87143 0.20116 0.03285 0.0
O1381 O 0.94565 0.13889 0.96741 0.0
H1382 H 0.87667 0.18196 0.90662 0.0
H1383 H 0.91392 0.11814 0.91153 0.0
H1384 H 0.91261 0.13604 0.87913 0.0
H1385 H 0.89386 0.16817 0.87653 0.0
H1386 H 0.87851 0.16365 0.93876 0.0
H1387 H 0.85486 0.08151 0.90925 0.0
H1388 H 0.87455 0.05056 0.91599 0.0
O1389 O 0.92671 0.11959 0.94717 0.0
C1390 C 0.90874 0.11458 0.99527 0.0
C1391 C 0.89558 0.06554 0.93539 0.0
C1392 C 0.86784 0.08202 0.91899 0.0
N1393 N 0.89013 0.10085 0.94013 0.0
C1394 C 0.90097 0.08387 0.94402 0.0
C1395 C 0.87368 0.10008 0.9279 0.0
C1396 C 0.87891 0.06466 0.92278 0.0
C1397 C 0.89754 0.18561 0.99195 0.0
N1398 N 0.90881 0.17081 0.00061 0.0
C1399 C 0.88394 0.19675 0.00339 0.0
C1400 C 0.88193 0.19265 0.02381 0.0
C1401 C 0.8935 0.17755 0.03253 0.0
C1402 C 0.90692 0.16669 0.02062 0.0
C1403 C 0.96851 0.18132 0.02347 0.0
C1404 C 0.9599 0.14323 0.00924 0.0
C1405 C 0.95285 0.17813 0.00991 0.0
N1406 N 0.94864 0.15924 0.00308 0.0
C1407 C 0.97568 0.14586 0.02279 0.0
C1408 C 0.97997 0.16504 0.02995 0.0
C1409 C 0.94367 0.12545 0.9539 0.0
C1410 C 0.88484 0.16794 0.90755 0.0
C1411 C 0.90576 0.13214 0.91052 0.0
C1412 C 0.90505 0.14218 0.89213 0.0
C1413 C 0.89451 0.16021 0.89068 0.0
N1414 N 0.8962 0.1398 0.92698 0.0
C1415 C 0.88587 0.15747 0.92569 0.0
C1416 C 0.11979 0.03885 0.534 0.0
C1417 C 0.11456 0.0451 0.55347 0.0
C1418 C 0.10957 0.04635 0.51732 0.0
C1419 C 0.07617 0.05233 0.48746 0.0
H1420 H 0.05624 0.10692 0.48353 0.0
C1421 C 0.00998 0.09569 0.44228 0.0
C1422 C 0.01296 0.08728 0.42314 0.0
C1423 C 0.02448 0.09331 0.45729 0.0
C1424 C 0.06167 0.09163 0.48448 0.0
H1425 H 0.0949 0.06473 0.57056 0.0
H1426 H 0.07678 0.07739 0.54151 0.0
H1427 H 0.07821 0.09753 0.51143 0.0
H1428 H 0.03419 0.07104 0.40441 0.0
H1429 H 0.05938 0.06716 0.43043 0.0
H1430 H 0.05953 0.0463 0.46075 0.0
C1431 C 0.089 0.06694 0.53911 0.0
C1432 C 0.07422 0.08623 0.50045 0.0
C1433 C 0.09932 0.05954 0.55579 0.0
C1434 C 0.03124 0.07752 0.41902 0.0
C1435 C 0.04568 0.0752 0.43397 0.0
C1436 C 0.06376 0.05773 0.47151 0.0
C1437 C 0.09377 0.06016 0.5197 0.0
C1438 C 0.08149 0.06646 0.50218 0.0
C1439 C 0.04221 0.08252 0.45342 0.0
C1440 C 0.05627 0.07739 0.4699 0.0
H1441 H 0.13161 0.02792 0.53163 0.0
H1442 H 0.11388 0.04112 0.50255 0.0
H1443 H 0.0811 0.03687 0.48854 0.0
H1444 H 0.99609 0.10331 0.44596 0.0
H1445 H 0.02136 0.09905 0.47218 0.0
C1446 C 0.98002 0.37709 0.44221 0.0
C1447 C 0.97933 0.39265 0.42795 0.0
C1448 C 0.96648 0.37682 0.45834 0.0
C1449 C 0.91909 0.40131 0.47632 0.0
H1450 H 0.93847 0.38567 0.52884 0.0
C1451 C 0.90311 0.42228 0.564 0.0
C1452 C 0.88251 0.42632 0.56251 0.0
C1453 C 0.91327 0.41304 0.54815 0.0
C1454 C 0.93282 0.39029 0.51432 0.0
H1455 H 0.96396 0.42017 0.41958 0.0
H1456 H 0.94133 0.42022 0.44779 0.0
H1457 H 0.95957 0.38036 0.49959 0.0
H1458 H 0.85593 0.42244 0.54426 0.0
H1459 H 0.87324 0.40498 0.51719 0.0
H1460 H 0.89326 0.41296 0.49096 0.0
C1461 C 0.95165 0.40774 0.44632 0.0
C1462 C 0.94485 0.38689 0.49743 0.0
C1463 C 0.96486 0.40784 0.43014 0.0
C1464 C 0.87192 0.4197 0.54559 0.0
C1465 C 0.88194 0.40987 0.53 0.0
C1466 C 0.90733 0.40516 0.49319 0.0
C1467 C 0.95218 0.39224 0.46065 0.0
C1468 C 0.93838 0.39295 0.47826 0.0
C1469 C 0.90292 0.40714 0.53066 0.0
C1470 C 0.91422 0.40022 0.51255 0.0
H1471 H 0.99094 0.36511 0.44089 0.0
H1472 H 0.96724 0.36452 0.46893 0.0
H1473 H 0.91327 0.40559 0.46176 0.0
H1474 H 0.91162 0.42739 0.57688 0.0
H1475 H 0.9294 0.41158 0.54929 0.0
C1476 C 0.02776 0.92121 0.09776 0.0
C1477 C 0.00947 0.91148 0.09367 0.0
C1478 C 0.04228 0.92335 0.08281 0.0
C1479 C 0.05793 0.90577 0.03237 0.0
H1480 H 0.08028 0.95937 0.02819 0.0
C1481 C 0.09645 0.93609 0.96074 0.0
C1482 C 0.11282 0.94924 0.963 0.0
C1483 C 0.08584 0.92928 0.97751 0.0
C1484 C 0.07449 0.94422 0.02931 0.0
H1485 H 0.99252 0.89561 0.07081 0.0
H1486 H 0.0178 0.8996 0.04465 0.0
H1487 H 0.05823 0.95118 0.05605 0.0
H1488 H 0.13142 0.96477 0.98481 0.0
H1489 H 0.11306 0.95268 0.01399 0.0
H1490 H 0.07396 0.899 0.00531 0.0
C1491 C 0.02097 0.90539 0.05951 0.0
C1492 C 0.06182 0.93951 0.04531 0.0
C1493 C 0.00643 0.90318 0.07449 0.0
C1494 C 0.11879 0.9548 0.98247 0.0
C1495 C 0.10821 0.94795 0.99922 0.0
C1496 C 0.07064 0.91049 0.01633 0.0
C1497 C 0.03885 0.9159 0.06339 0.0
C1498 C 0.05326 0.9203 0.04695 0.0
C1499 C 0.09138 0.93542 0.99691 0.0
C1500 C 0.07893 0.92983 0.01454 0.0
H1501 H 0.03073 0.92764 0.11239 0.0
H1502 H 0.05606 0.93119 0.08639 0.0
H1503 H 0.05173 0.89077 0.03335 0.0
H1504 H 0.09142 0.93146 0.94598 0.0
H1505 H 0.07284 0.9198 0.97519 0.0
C1506 C 0.98209 0.61506 0.07819 0.0
C1507 C 0.97457 0.60824 0.09672 0.0
C1508 C 0.97014 0.61426 0.0609 0.0
C1509 C 0.92776 0.58521 0.04117 0.0
H1510 H 0.92652 0.62487 0.99856 0.0
C1511 C 0.87499 0.57533 0.97449 0.0
C1512 C 0.88307 0.5786 0.95528 0.0
C1513 C 0.88526 0.58166 0.99158 0.0
C1514 C 0.92684 0.61361 0.01029 0.0
H1515 H 0.94811 0.59663 0.11183 0.0
H1516 H 0.92735 0.59559 0.08194 0.0
H1517 H 0.94621 0.63136 0.02896 0.0
H1518 H 0.90786 0.59203 0.93894 0.0
H1519 H 0.92603 0.60278 0.96893 0.0
H1520 H 0.90881 0.56728 0.02262 0.0
C1521 C 0.94261 0.60105 0.08061 0.0
C1522 C 0.9381 0.61734 0.02767 0.0
C1523 C 0.95452 0.60175 0.09779 0.0
C1524 C 0.90125 0.58922 0.95352 0.0
C1525 C 0.91162 0.59546 0.9707 0.0
C1526 C 0.91661 0.58149 0.02389 0.0
C1527 C 0.95045 0.60669 0.06187 0.0
C1528 C 0.93855 0.60319 0.04335 0.0
C1529 C 0.90397 0.59128 0.98994 0.0
C1530 C 0.91589 0.59567 0.00828 0.0
H1531 H 0.99747 0.62015 0.07682 0.0
H1532 H 0.97663 0.61867 0.04666 0.0
H1533 H 0.92821 0.57376 0.05271 0.0
H1534 H 0.86087 0.56749 0.97641 0.0
H1535 H 0.8787 0.57865 0.00616 0.0
C1536 C 0.44666 0.00661 0.10203 0.0
C1537 C 0.42832 0.00958 0.092 0.0
C1538 C 0.46188 0.02101 0.10087 0.0
C1539 C 0.47279 0.0736 0.0852 0.0
H1540 H 0.52522 0.05183 0.07229 0.0
C1541 C 0.53362 0.11759 0.04215 0.0
C1542 C 0.55386 0.1145 0.0473 0.0
C1543 C 0.51845 0.1066 0.05157 0.0
C1544 C 0.51079 0.05821 0.07625 0.0
H1545 H 0.4113 0.03057 0.0737 0.0
H1546 H 0.43786 0.05536 0.07142 0.0
H1547 H 0.49829 0.02927 0.08212 0.0
H1548 H 0.57389 0.09806 0.06714 0.0
H1549 H 0.54738 0.07899 0.08354 0.0
H1550 H 0.48523 0.10252 0.07854 0.0
C1551 C 0.44045 0.04204 0.08039 0.0
C1552 C 0.49533 0.04526 0.08192 0.0
C1553 C 0.42523 0.0277 0.08158 0.0
C1554 C 0.55849 0.10075 0.06266 0.0
C1555 C 0.54331 0.08974 0.07203 0.0
C1556 C 0.48826 0.08656 0.07944 0.0
C1557 C 0.45911 0.03867 0.08963 0.0
C1558 C 0.47604 0.05275 0.08608 0.0
C1559 C 0.52317 0.09226 0.06632 0.0
C1560 C 0.50732 0.07895 0.07454 0.0
H1561 H 0.44952 0.9929 0.11031 0.0
H1562 H 0.47598 0.01811 0.10842 0.0
H1563 H 0.45818 0.07988 0.08862 0.0
H1564 H 0.52948 0.12807 0.03042 0.0
H1565 H 0.50308 0.10874 0.04668 0.0
C1566 C 0.58152 0.4888 0.072 0.0
C1567 C 0.57772 0.50455 0.08555 0.0
C1568 C 0.5667 0.47461 0.06775 0.0
C1569 C 0.51798 0.45401 0.08498 0.0
H1570 H 0.50992 0.44339 0.02831 0.0
C1571 C 0.44495 0.41961 0.05349 0.0
C1572 C 0.44641 0.40615 0.03729 0.0
C1573 C 0.46193 0.42964 0.06058 0.0
C1574 C 0.51214 0.44589 0.04422 0.0
H1575 H 0.5556 0.51712 0.10594 0.0
H1576 H 0.52974 0.49242 0.09839 0.0
H1577 H 0.53807 0.46404 0.03895 0.0
H1578 H 0.46709 0.39226 0.01624 0.0
H1579 H 0.49671 0.4096 0.02878 0.0
H1580 H 0.49182 0.43606 0.09018 0.0
C1581 C 0.54424 0.49099 0.09116 0.0
C1582 C 0.5283 0.45774 0.05033 0.0
C1583 C 0.55906 0.50522 0.09543 0.0
C1584 C 0.46536 0.40263 0.02865 0.0
C1585 C 0.48235 0.41263 0.03578 0.0
C1586 C 0.50181 0.4421 0.07887 0.0
C1587 C 0.54775 0.4758 0.07694 0.0
C1588 C 0.53131 0.46209 0.07075 0.0
C1589 C 0.4808 0.42643 0.05168 0.0
C1590 C 0.4986 0.43807 0.05839 0.0
H1591 H 0.59575 0.4877 0.06421 0.0
H1592 H 0.56997 0.46287 0.05698 0.0
H1593 H 0.52004 0.4569 0.10084 0.0
H1594 H 0.43061 0.42273 0.06051 0.0
H1595 H 0.46016 0.44036 0.07268 0.0
C1596 C 0.54587 0.86972 0.42275 0.0
C1597 C 0.56294 0.8807 0.42824 0.0
C1598 C 0.52966 0.87929 0.41349 0.0
C1599 C 0.49227 0.90391 0.40917 0.0
H1600 H 0.49704 0.95552 0.38274 0.0
C1601 C 0.42791 0.96004 0.41127 0.0
C1602 C 0.42525 0.97414 0.39582 0.0
C1603 C 0.44436 0.94717 0.41126 0.0
C1604 C 0.49532 0.94095 0.38974 0.0
H1605 H 0.57688 0.91003 0.42804 0.0
H1606 H 0.54823 0.92708 0.41331 0.0
H1607 H 0.52681 0.93517 0.38795 0.0
H1608 H 0.43759 0.98541 0.36788 0.0
H1609 H 0.46608 0.96224 0.3674 0.0
H1610 H 0.46073 0.90918 0.41008 0.0
C1611 C 0.54742 0.91097 0.41516 0.0
C1612 C 0.51253 0.92938 0.39309 0.0
C1613 C 0.56387 0.90125 0.4238 0.0
C1614 C 0.43929 0.97477 0.38007 0.0
C1615 C 0.45567 0.96155 0.37987 0.0
C1616 C 0.47507 0.9152 0.40534 0.0
C1617 C 0.52987 0.90021 0.41023 0.0
C1618 C 0.51136 0.91103 0.40358 0.0
C1619 C 0.45848 0.94765 0.39557 0.0
C1620 C 0.47642 0.93427 0.39637 0.0
H1621 H 0.54498 0.85376 0.4258 0.0
H1622 H 0.5168 0.87027 0.40935 0.0
H1623 H 0.4905 0.89002 0.41741 0.0
H1624 H 0.41753 0.9592 0.42375 0.0
H1625 H 0.4462 0.93718 0.42395 0.0
C1626 C 0.43716 0.58135 0.41482 0.0
C1627 C 0.44191 0.59697 0.42823 0.0
C1628 C 0.45238 0.57085 0.40485 0.0
C1629 C 0.50667 0.5724 0.39209 0.0
H1630 H 0.50354 0.51447 0.39691 0.0
C1631 C 0.57614 0.52186 0.39511 0.0
C1632 C 0.57544 0.50251 0.3867 0.0
C1633 C 0.55919 0.53415 0.39505 0.0
C1634 C 0.50451 0.53059 0.39501 0.0
H1635 H 0.46641 0.6144 0.44085 0.0
H1636 H 0.49278 0.59609 0.42361 0.0
H1637 H 0.47462 0.53494 0.40593 0.0
H1638 H 0.55648 0.48128 0.37084 0.0
H1639 H 0.52682 0.50285 0.37074 0.0
H1640 H 0.53683 0.56806 0.38186 0.0
C1641 C 0.47731 0.59201 0.42069 0.0
C1642 C 0.48791 0.54234 0.40019 0.0
C1643 C 0.46216 0.60242 0.43071 0.0
C1644 C 0.55755 0.49607 0.3775 0.0
C1645 C 0.54052 0.50838 0.37752 0.0
C1646 C 0.52325 0.56066 0.38689 0.0
C1647 C 0.47264 0.57586 0.40795 0.0
C1648 C 0.48902 0.5634 0.39936 0.0
C1649 C 0.54107 0.52742 0.38661 0.0
C1650 C 0.52256 0.53965 0.38888 0.0
H1651 H 0.42172 0.5768 0.41247 0.0
H1652 H 0.44831 0.55859 0.39498 0.0
H1653 H 0.50785 0.58858 0.39094 0.0
H1654 H 0.58964 0.52738 0.40231 0.0
H1655 H 0.56007 0.54862 0.40242 0.0
C1656 C 0.09346 0.4451 0.0133 0.0
C1657 C 0.08518 0.42575 0.015 0.0
C1658 C 0.09025 0.45941 0.02832 0.0
C1659 C 0.05282 0.47177 0.06643 0.0
H1660 H 0.0916 0.51149 0.08389 0.0
C1661 C 0.03077 0.53297 0.12284 0.0
C1662 C 0.03728 0.55257 0.11843 0.0
C1663 C 0.03882 0.51654 0.11262 0.0
C1664 C 0.08057 0.50056 0.07906 0.0
H1665 H 0.06815 0.40591 0.03453 0.0
H1666 H 0.06272 0.4308 0.06065 0.0
H1667 H 0.10223 0.48426 0.06165 0.0
H1668 H 0.05789 0.57014 0.10028 0.0
H1669 H 0.07153 0.54152 0.08214 0.0
H1670 H 0.03102 0.48824 0.08316 0.0
C1671 C 0.07138 0.435 0.04754 0.0
C1672 C 0.08668 0.48497 0.06637 0.0
C1673 C 0.07459 0.42071 0.03257 0.0
C1674 C 0.0525 0.55526 0.10404 0.0
C1675 C 0.06044 0.53882 0.09372 0.0
C1676 C 0.04671 0.48736 0.07899 0.0
C1677 C 0.07869 0.45465 0.04532 0.0
C1678 C 0.07281 0.47049 0.05983 0.0
C1679 C 0.05345 0.51929 0.09765 0.0
C1680 C 0.06045 0.50205 0.08534 0.0
H1681 H 0.10172 0.4495 -1e-05 0.0
H1682 H 0.09597 0.47447 0.02613 0.0
H1683 H 0.04168 0.46108 0.06133 0.0
H1684 H 0.01925 0.53031 0.134 0.0
H1685 H 0.03339 0.50166 0.11631 0.0
C1686 C 0.039 0.46472 0.40093 0.0
C1687 C 0.04474 0.44512 0.40631 0.0
C1688 C 0.04686 0.48129 0.41106 0.0
C1689 C 0.08741 0.49779 0.44546 0.0
H1690 H 0.04839 0.53811 0.46101 0.0
C1691 C 0.10116 0.55677 0.50792 0.0
C1692 C 0.09262 0.57594 0.50549 0.0
C1693 C 0.09754 0.54162 0.49385 0.0
C1694 C 0.05959 0.5272 0.45652 0.0
H1695 H 0.06389 0.42769 0.42614 0.0
H1696 H 0.07737 0.45663 0.44396 0.0
H1697 H 0.03802 0.5102 0.43999 0.0
H1698 H 0.07455 0.5945 0.48565 0.0
H1699 H 0.06858 0.56823 0.46106 0.0
H1700 H 0.1089 0.51474 0.46239 0.0
C1701 C 0.06693 0.45916 0.43176 0.0
C1702 C 0.05363 0.51117 0.44445 0.0
C1703 C 0.05909 0.44255 0.4216 0.0
C1704 C 0.08123 0.57988 0.48815 0.0
C1705 C 0.07769 0.56477 0.47408 0.0
C1706 C 0.0934 0.51389 0.45756 0.0
C1707 C 0.06062 0.4787 0.42684 0.0
C1708 C 0.06742 0.49621 0.43887 0.0
C1709 C 0.08535 0.54533 0.47701 0.0
C1710 C 0.07951 0.52873 0.46331 0.0
H1711 H 0.02811 0.46731 0.38913 0.0
H1712 H 0.04195 0.49617 0.40667 0.0
H1713 H 0.09845 0.48662 0.44124 0.0
H1714 H 0.11 0.55319 0.52109 0.0
H1715 H 0.10356 0.52677 0.49664 0.0
C1716 C 0.89468 0.913 0.50574 0.0
C1717 C 0.91045 0.8992 0.50823 0.0
C1718 C 0.89632 0.92866 0.49183 0.0
C1719 C 0.92846 0.94744 0.44944 0.0
H1720 H 0.90525 0.99864 0.46434 0.0
C1721 C 0.93923 0.03732 0.43117 0.0
C1722 C 0.94445 0.03601 0.4108 0.0
C1723 C 0.93261 0.02035 0.44156 0.0
C1724 C 0.91206 0.98454 0.46001 0.0
H1725 H 0.94018 0.89088 0.49789 0.0
H1726 H 0.94352 0.91856 0.47461 0.0
H1727 H 0.89917 0.96948 0.48518 0.0
H1728 H 0.9458 0.01625 0.38501 0.0
H1729 H 0.93314 0.98691 0.40275 0.0
H1730 H 0.94271 0.96277 0.42524 0.0
C1731 C 0.92952 0.91704 0.48272 0.0
C1732 C 0.90822 0.96761 0.47182 0.0
C1733 C 0.92769 0.90117 0.49627 0.0
C1734 C 0.94212 0.01761 0.4008 0.0
C1735 C 0.935 0.00074 0.41106 0.0
C1736 C 0.93268 0.96444 0.43792 0.0
C1737 C 0.91395 0.93116 0.4804 0.0
C1738 C 0.9166 0.94885 0.46687 0.0
C1739 C 0.93055 0.00173 0.43172 0.0
C1740 C 0.92477 0.98332 0.44316 0.0
H1741 H 0.88111 0.91177 0.51462 0.0
H1742 H 0.88379 0.93888 0.4902 0.0
H1743 H 0.93481 0.93323 0.44478 0.0
H1744 H 0.94101 0.05128 0.4393 0.0
H1745 H 0.92976 0.02177 0.45749 0.0
C1746 C 0.38142 0.56185 0.50168 0.0
C1747 C 0.39803 0.57475 0.49988 0.0
C1748 C 0.38187 0.54573 0.51521 0.0
C1749 C 0.4111 0.52626 0.55905 0.0
H1750 H 0.38744 0.47527 0.54421 0.0
C1751 C 0.42302 0.43728 0.57769 0.0
C1752 C 0.42886 0.43902 0.59785 0.0
C1753 C 0.41503 0.45378 0.56749 0.0
C1754 C 0.39429 0.48935 0.54856 0.0
H1755 H 0.42826 0.58055 0.51055 0.0
H1756 H 0.4294 0.55226 0.53318 0.0
H1757 H 0.38272 0.50429 0.52259 0.0
H1758 H 0.42941 0.45873 0.62368 0.0
H1759 H 0.41431 0.48716 0.60635 0.0
H1760 H 0.42409 0.51119 0.58402 0.0
C1761 C 0.41567 0.55488 0.52488 0.0
C1762 C 0.39129 0.50613 0.53627 0.0
C1763 C 0.4151 0.57108 0.51169 0.0
C1764 C 0.42531 0.45711 0.60802 0.0
C1765 C 0.4168 0.47345 0.59799 0.0
C1766 C 0.41446 0.50945 0.57106 0.0
C1767 C 0.39904 0.54205 0.527 0.0
C1768 C 0.4001 0.5247 0.5411 0.0
C1769 C 0.41225 0.47228 0.57736 0.0
C1770 C 0.40647 0.49062 0.5658 0.0
H1771 H 0.368 0.56435 0.49284 0.0
H1772 H 0.3687 0.5363 0.51654 0.0
H1773 H 0.41765 0.54041 0.56363 0.0
H1774 H 0.42567 0.42353 0.56945 0.0
H1775 H 0.41204 0.45221 0.5516 0.0
C1776 C 0.60128 0.58407 0.02673 0.0
C1777 C 0.59033 0.57847 0.04383 0.0
C1778 C 0.59146 0.59184 0.00991 0.0
C1779 C 0.56726 0.59309 0.97193 0.0
H1780 H 0.51523 0.61897 0.97477 0.0
C1781 C 0.51309 0.59072 0.9055 0.0
C1782 C 0.49936 0.60642 0.90232 0.0
C1783 C 0.52534 0.59051 0.92244 0.0
C1784 C 0.5299 0.61208 0.97359 0.0
H1785 H 0.56065 0.57711 0.05705 0.0
H1786 H 0.54335 0.5895 0.02744 0.0
H1787 H 0.53481 0.61455 0.0052 0.0
H1788 H 0.48816 0.63457 0.91426 0.0
H1789 H 0.51019 0.63462 0.94357 0.0
H1790 H 0.56279 0.59136 0.94028 0.0
C1791 C 0.55958 0.58867 0.02707 0.0
C1792 C 0.54103 0.60921 0.99117 0.0
C1793 C 0.56947 0.5814 0.04408 0.0
C1794 C 0.49851 0.62219 0.91633 0.0
C1795 C 0.51106 0.62214 0.9332 0.0
C1796 C 0.55635 0.59634 0.95435 0.0
C1797 C 0.57038 0.59365 0.00957 0.0
C1798 C 0.55962 0.59914 0.99067 0.0
C1799 C 0.52454 0.60619 0.93656 0.0
C1800 C 0.53722 0.60527 0.95499 0.0
H1801 H 0.61744 0.58224 0.02628 0.0
H1802 H 0.60044 0.59607 0.99703 0.0
H1803 H 0.58135 0.58509 0.97075 0.0
H1804 H 0.51409 0.57823 0.89515 0.0
H1805 H 0.53507 0.57768 0.92466 0.0
C1806 C 0.42934 0.9307 0.03795 0.0
C1807 C 0.41361 0.94477 0.03693 0.0
C1808 C 0.43932 0.92457 0.02053 0.0
C1809 C 0.45061 0.94189 0.96941 0.0
H1810 H 0.46785 0.88692 0.96094 0.0
C1811 C 0.49259 0.91906 0.8976 0.0
C1812 C 0.50963 0.90686 0.90023 0.0
C1813 C 0.47897 0.9219 0.91329 0.0
C1814 C 0.46325 0.90236 0.96315 0.0
H1815 H 0.3957 0.96297 0.01661 0.0
H1816 H 0.41304 0.95217 0.98633 0.0
H1817 H 0.44765 0.89528 0.99039 0.0
H1818 H 0.52521 0.88743 0.92128 0.0
H1819 H 0.50162 0.89262 0.94867 0.0
H1820 H 0.4665 0.94912 0.9425 0.0
C1821 C 0.41781 0.94608 0.00064 0.0
C1822 C 0.45168 0.90714 0.98001 0.0
C1823 C 0.40781 0.95219 0.01802 0.0
C1824 C 0.51226 0.89692 0.91868 0.0
C1825 C 0.49866 0.89982 0.9344 0.0
C1826 C 0.4622 0.93713 0.9526 0.0
C1827 C 0.43383 0.93239 0.00171 0.0
C1828 C 0.44535 0.92699 0.98339 0.0
C1829 C 0.48208 0.91266 0.93202 0.0
C1830 C 0.46877 0.91734 0.94933 0.0
H1831 H 0.43423 0.92466 0.05224 0.0
H1832 H 0.45174 0.91416 0.02189 0.0
H1833 H 0.44628 0.95739 0.97174 0.0
H1834 H 0.48998 0.92685 0.88356 0.0
H1835 H 0.46614 0.93159 0.91084 0.0
C1836 C 0.51717 0.40715 0.57867 0.0
C1837 C 0.49975 0.39536 0.57693 0.0
C1838 C 0.52964 0.41026 0.56217 0.0
C1839 C 0.54274 0.3926 0.51129 0.0
H1840 H 0.55906 0.44806 0.50432 0.0
C1841 C 0.58035 0.42406 0.43883 0.0
C1842 C 0.59543 0.43861 0.4415 0.0
C1843 C 0.5695 0.4168 0.4553 0.0
C1844 C 0.55489 0.43245 0.50616 0.0
H1845 H 0.4823 0.37684 0.55658 0.0
H1846 H 0.50411 0.38251 0.52758 0.0
H1847 H 0.53871 0.43877 0.53307 0.0
H1848 H 0.61169 0.45603 0.46375 0.0
H1849 H 0.59305 0.44319 0.49231 0.0
H1850 H 0.55894 0.38642 0.48413 0.0
C1851 C 0.50811 0.38921 0.54184 0.0
C1852 C 0.5432 0.42712 0.52266 0.0
C1853 C 0.49559 0.38602 0.55845 0.0
C1854 C 0.60001 0.44504 0.46107 0.0
C1855 C 0.58925 0.43775 0.47747 0.0
C1856 C 0.55451 0.39795 0.49469 0.0
C1857 C 0.52499 0.40178 0.54344 0.0
C1858 C 0.53714 0.40713 0.52554 0.0
C1859 C 0.57355 0.42392 0.47475 0.0
C1860 C 0.56086 0.41793 0.49208 0.0
H1861 H 0.52101 0.41444 0.59267 0.0
H1862 H 0.54278 0.41966 0.56399 0.0
H1863 H 0.53833 0.37706 0.51316 0.0
H1864 H 0.57645 0.41874 0.42397 0.0
H1865 H 0.55744 0.40621 0.45271 0.0
C1866 C 0.48604 0.07911 0.58068 0.0
C1867 C 0.50406 0.08928 0.57644 0.0
C1868 C 0.4719 0.07576 0.56561 0.0
C1869 C 0.45655 0.09011 0.51404 0.0
H1870 H 0.43668 0.03542 0.51234 0.0
C1871 C 0.41931 0.05458 0.44391 0.0
C1872 C 0.40367 0.04072 0.44699 0.0
C1873 C 0.42966 0.06277 0.46023 0.0
C1874 C 0.44177 0.05085 0.51275 0.0
H1875 H 0.52081 0.10478 0.55315 0.0
H1876 H 0.49617 0.09869 0.5268 0.0
H1877 H 0.45794 0.04595 0.53998 0.0
H1878 H 0.38595 0.02548 0.46974 0.0
H1879 H 0.40376 0.03998 0.49808 0.0
H1880 H 0.44056 0.09481 0.48651 0.0
C1881 C 0.49295 0.09346 0.54186 0.0
C1882 C 0.45398 0.0569 0.52862 0.0
C1883 C 0.50711 0.09688 0.55697 0.0
C1884 C 0.39806 0.03593 0.46677 0.0
C1885 C 0.40834 0.04417 0.48305 0.0
C1886 C 0.44426 0.08404 0.49812 0.0
C1887 C 0.47542 0.08242 0.54591 0.0
C1888 C 0.4616 0.07656 0.52943 0.0
C1889 C 0.42455 0.05732 0.47998 0.0
C1890 C 0.43681 0.0643 0.49725 0.0
H1891 H 0.48306 0.0732 0.59554 0.0
H1892 H 0.45836 0.06754 0.56931 0.0
H1893 H 0.46205 0.1054 0.51434 0.0
H1894 H 0.42402 0.05865 0.42888 0.0
H1895 H 0.44216 0.07274 0.45733 0.0
C1896 C 0.04811 0.56962 0.58179 0.0
C1897 C 0.04725 0.59012 0.57696 0.0
C1898 C 0.03099 0.55959 0.58862 0.0
C1899 C 0.99423 0.54151 0.60827 0.0
H1900 H 0.94429 0.55873 0.58392 0.0
C1901 C 0.91914 0.49912 0.62148 0.0
C1902 C 0.90631 0.4975 0.60481 0.0
C1903 C 0.93602 0.51165 0.62076 0.0
C1904 C 0.95811 0.55357 0.59074 0.0
H1905 H 0.0283 0.61657 0.57693 0.0
H1906 H 0.99875 0.59941 0.58983 0.0
H1907 H 0.97452 0.57786 0.57801 0.0
H1908 H 0.90139 0.50753 0.57418 0.0
H1909 H 0.93092 0.52852 0.57265 0.0
H1910 H 0.9779 0.51635 0.61978 0.0
C1911 C 0.01231 0.59075 0.58749 0.0
C1912 C 0.97549 0.56482 0.58766 0.0
C1913 C 0.02929 0.60067 0.58022 0.0
C1914 C 0.91079 0.50855 0.5874 0.0
C1915 C 0.92772 0.52078 0.58658 0.0
C1916 C 0.97685 0.53003 0.61106 0.0
C1917 C 0.01271 0.56993 0.59117 0.0
C1918 C 0.99389 0.55883 0.59612 0.0
C1919 C 0.94053 0.52264 0.60326 0.0
C1920 C 0.95864 0.53571 0.602 0.0
H1921 H 0.06174 0.5611 0.57938 0.0
H1922 H 0.03194 0.54354 0.591 0.0
H1923 H 0.00798 0.53659 0.61538 0.0
H1924 H 0.91607 0.49086 0.63515 0.0
H1925 H 0.94541 0.51285 0.63396 0.0
C1926 C 0.95385 0.90339 0.5889 0.0
C1927 C 0.95649 0.88483 0.57915 0.0
C1928 C 0.97048 0.91439 0.59553 0.0
C1929 C 0.02381 0.92035 0.58328 0.0
H1930 H 0.02642 0.95212 0.63198 0.0
C1931 C 0.09556 0.96225 0.60337 0.0
C1932 C 0.09353 0.98237 0.60942 0.0
C1933 C 0.07893 0.94959 0.60274 0.0
C1934 C 0.02582 0.94341 0.61827 0.0
H1935 H 0.9786 0.86262 0.57012 0.0
H1936 H 0.00739 0.8816 0.58191 0.0
H1937 H 0.99693 0.93107 0.6255 0.0
H1938 H 0.07252 0.00465 0.62054 0.0
H1939 H 0.04328 0.98252 0.61905 0.0
H1940 H 0.05233 0.93277 0.57575 0.0
C1941 C 0.99254 0.88792 0.58395 0.0
C1942 C 0.00897 0.93137 0.61457 0.0
C1943 C 0.976 0.877 0.57726 0.0
C1944 C 0.0746 0.98924 0.61579 0.0
C1945 C 0.05785 0.97654 0.61501 0.0
C1946 C 0.04054 0.93232 0.58694 0.0
C1947 C 0.99004 0.907 0.5926 0.0
C1948 C 0.00786 0.91963 0.59705 0.0
C1949 C 0.05977 0.95673 0.60793 0.0
C1950 C 0.04184 0.94393 0.60451 0.0
H1951 H 0.93902 0.90984 0.59066 0.0
H1952 H 0.96806 0.92907 0.60208 0.0
H1953 H 0.02321 0.91192 0.56938 0.0
H1954 H 0.10993 0.95634 0.59861 0.0
H1955 H 0.08101 0.93427 0.5977 0.0
C1956 C 0.03756 0.43036 0.93127 0.0
C1957 C 0.03546 0.41488 0.94549 0.0
C1958 C 0.02077 0.44076 0.92425 0.0
C1959 C 0.96512 0.43896 0.92123 0.0
H1960 H 0.97029 0.49682 0.91738 0.0
C1961 C 0.89744 0.49342 0.91752 0.0
C1962 C 0.89927 0.51073 0.90554 0.0
C1963 C 0.91364 0.48028 0.91985 0.0
C1964 C 0.96865 0.48065 0.91804 0.0
H1965 H 0.01388 0.39798 0.96314 0.0
H1966 H 0.98466 0.41637 0.95113 0.0
H1967 H 0.99937 0.47669 0.92636 0.0
H1968 H 0.91933 0.52713 0.88572 0.0
H1969 H 0.94743 0.50411 0.88966 0.0
H1970 H 0.9342 0.4431 0.91332 0.0
C1971 C 0.99928 0.42025 0.94519 0.0
C1972 C 0.98535 0.46909 0.9232 0.0
C1973 C 0.01608 0.40978 0.95217 0.0
C1974 C 0.91738 0.51405 0.89519 0.0
C1975 C 0.93356 0.50092 0.89753 0.0
C1976 C 0.94837 0.45056 0.9161 0.0
C1977 C 0.00145 0.43604 0.93133 0.0
C1978 C 0.98378 0.44811 0.92497 0.0
C1979 C 0.93204 0.48415 0.91026 0.0
C1980 C 0.94994 0.47155 0.91456 0.0
H1981 H 0.05222 0.43464 0.92567 0.0
H1982 H 0.02294 0.45261 0.91333 0.0
H1983 H 0.96347 0.42281 0.92221 0.0
H1984 H 0.88372 0.49035 0.9257 0.0
H1985 H 0.91202 0.46757 0.92986 0.0
C1986 C 0.07874 0.01366 0.90315 0.0
C1987 C 0.09748 0.01704 0.91228 0.0
C1988 C 0.06326 0.02771 0.90504 0.0
C1989 C 0.04638 0.06744 0.93926 0.0
H1990 H 0.00773 0.07896 0.89728 0.0
C1991 C 0.98114 0.12222 0.95252 0.0
C1992 C 0.96211 0.11581 0.94601 0.0
C1993 C 0.99847 0.11217 0.94635 0.0
C1994 C 0.01836 0.0758 0.90917 0.0
H1995 H 0.11491 0.03842 0.92966 0.0
H1996 H 0.08803 0.06295 0.9327 0.0
H1997 H 0.03687 0.05789 0.88988 0.0
H1998 H 0.9465 0.09417 0.92729 0.0
H1999 H 0.97674 0.0765 0.91677 0.0
H2000 H 0.02778 0.08493 0.95866 0.0
C2001 C 0.08519 0.04925 0.92441 0.0
C2002 C 0.03504 0.06375 0.90493 0.0
C2003 C 0.10064 0.03521 0.92257 0.0
C2004 C 0.96089 0.09952 0.93263 0.0
C2005 C 0.97825 0.08945 0.92648 0.0
C2006 C 0.02975 0.07945 0.94348 0.0
C2007 C 0.06619 0.04546 0.91606 0.0
C2008 C 0.04915 0.0593 0.91999 0.0
C2009 C 0.99721 0.09545 0.93355 0.0
C2010 C 0.01545 0.08364 0.92855 0.0
H2011 H 0.07575 -0.00016 0.89511 0.0
H2012 H 0.04876 0.02425 0.89857 0.0
H2013 H 0.05674 0.064 0.95131 0.0
H2014 H 0.9827 0.13481 0.9627 0.0
H2015 H 0.01288 0.11739 0.95179 0.0
C2016 C 0.56905 0.02261 0.5975 0.0
C2017 C 0.57387 0.04206 0.59083 0.0
C2018 C 0.57555 0.00578 0.5869 0.0
C2019 C 0.61111 0.98742 0.5485 0.0
H2020 H 0.5697 0.94748 0.53969 0.0
C2021 C 0.61834 0.92091 0.49207 0.0
C2022 C 0.60948 0.90258 0.49774 0.0
C2023 C 0.61613 0.938 0.50413 0.0
C2024 C 0.58156 0.95831 0.54224 0.0
H2025 H 0.5902 0.05895 0.56822 0.0
H2026 H 0.60145 0.0294 0.54959 0.0
H2027 H 0.56218 0.97709 0.55953 0.0
H2028 H 0.59239 0.88765 0.52116 0.0
H2029 H 0.58901 0.91712 0.54222 0.0
H2030 H 0.63046 0.96848 0.53103 0.0
C2031 C 0.59267 0.02728 0.56312 0.0
C2032 C 0.57723 0.97531 0.55361 0.0
C2033 C 0.58615 0.0442 0.57376 0.0
C2034 C 0.59925 0.90152 0.51617 0.0
C2035 C 0.59718 0.91849 0.52823 0.0
C2036 C 0.61549 0.97028 0.53711 0.0
C2037 C 0.58703 0.00792 0.56933 0.0
C2038 C 0.59196 0.99 0.55702 0.0
C2039 C 0.6051 0.93706 0.52211 0.0
C2040 C 0.60077 0.95545 0.53399 0.0
H2041 H 0.55982 0.02032 0.6107 0.0
H2042 H 0.5713 0.99103 0.59229 0.0
H2043 H 0.62279 0.99846 0.55094 0.0
H2044 H 0.6263 0.92227 0.47795 0.0
H2045 H 0.62235 0.9521 0.49895 0.0
C2046 C 0.61982 0.07941 0.97972 0.0
C2047 C 0.6032 0.09243 0.97967 0.0
C2048 C 0.62038 0.06277 0.96686 0.0
C2049 C 0.59461 0.04135 0.92176 0.0
H2050 H 0.61666 0.99107 0.94094 0.0
C2051 C 0.58458 0.95146 0.90595 0.0
C2052 C 0.58081 0.95229 0.88525 0.0
C2053 C 0.59134 0.96847 0.91619 0.0
C2054 C 0.61027 0.00493 0.93538 0.0
H2055 H 0.57401 0.09795 0.96624 0.0
H2056 H 0.57456 0.06882 0.94473 0.0
H2057 H 0.61973 0.02107 0.96147 0.0
H2058 H 0.58266 0.97094 0.85868 0.0
H2059 H 0.59563 0.00025 0.87621 0.0
H2060 H 0.58369 0.02513 0.89652 0.0
C2061 C 0.58758 0.07169 0.95402 0.0
C2062 C 0.61234 0.02228 0.94705 0.0
C2063 C 0.58717 0.0884 0.96658 0.0
C2064 C 0.58515 0.97002 0.87473 0.0
C2065 C 0.59243 0.98687 0.88486 0.0
C2066 C 0.59217 0.02399 0.91033 0.0
C2067 C 0.6042 0.05866 0.95387 0.0
C2068 C 0.60411 0.04064 0.9406 0.0
C2069 C 0.59496 0.98658 0.90586 0.0
C2070 C 0.59963 0.00542 0.91711 0.0
H2071 H 0.63246 0.08216 0.98957 0.0
H2072 H 0.63353 0.05322 0.96702 0.0
H2073 H 0.58855 0.05529 0.91598 0.0
H2074 H 0.58127 0.93799 0.91444 0.0
H2075 H 0.59278 0.96759 0.93235 0.0
C2076 C 0.43111 0.53886 0.87231 0.0
C2077 C 0.43033 0.55835 0.88032 0.0
C2078 C 0.42227 0.52284 0.88246 0.0
C2079 C 0.38838 0.50889 0.92474 0.0
H2080 H 0.42234 0.46162 0.92594 0.0
C2081 C 0.38302 0.44414 0.98341 0.0
C2082 C 0.38733 0.42465 0.97651 0.0
C2083 C 0.38432 0.46057 0.97034 0.0
C2084 C 0.41248 0.47455 0.92552 0.0
H2085 H 0.41871 0.5765 0.90473 0.0
H2086 H 0.40379 0.54834 0.92284 0.0
H2087 H 0.432 0.49009 0.90552 0.0
H2088 H 0.39453 0.40695 0.9501 0.0
H2089 H 0.39649 0.43543 0.92743 0.0
H2090 H 0.36921 0.49326 0.94546 0.0
C2091 C 0.41097 0.5455 0.90853 0.0
C2092 C 0.41801 0.49091 0.91376 0.0
C2093 C 0.41961 0.56163 0.89821 0.0
C2094 C 0.39144 0.42178 0.95601 0.0
C2095 C 0.39263 0.43811 0.943 0.0
C2096 C 0.38288 0.49245 0.93668 0.0
C2097 C 0.41269 0.52583 0.90103 0.0
C2098 C 0.40605 0.50829 0.91316 0.0
C2099 C 0.38987 0.45774 0.95017 0.0
C2100 C 0.39489 0.4751 0.93713 0.0
H2101 H 0.43893 0.53589 0.85835 0.0
H2102 H 0.42339 0.50797 0.87596 0.0
H2103 H 0.37877 0.52201 0.92453 0.0
H2104 H 0.37978 0.44686 0.99911 0.0
H2105 H 0.38214 0.47554 0.9763 0.0
C2106 C 0.91943 0.10019 0.02843 0.0
C2107 C 0.90813 0.09851 0.01066 0.0
C2108 C 0.92072 0.08409 0.04182 0.0
C2109 C 0.91692 0.02911 0.04209 0.0
H2110 H 0.91998 0.03514 0.0999 0.0
C2111 C 0.92737 0.96069 0.09356 0.0
C2112 C 0.94183 0.9626 0.10882 0.0
C2113 C 0.92067 0.97754 0.08304 0.0
C2114 C 0.91925 0.03324 0.08377 0.0
H2115 H 0.88841 0.07888 0.99368 0.0
H2116 H 0.89048 0.05097 0.01717 0.0
H2117 H 0.91252 0.06434 0.07896 0.0
H2118 H 0.9601 0.98394 0.12537 0.0
H2119 H 0.94858 0.01325 0.10681 0.0
H2120 H 0.92404 0.99818 0.04676 0.0
C2121 C 0.89866 0.06461 0.02052 0.0
C2122 C 0.91497 0.04996 0.07179 0.0
C2123 C 0.89739 0.08068 0.00711 0.0
C2124 C 0.94894 0.98188 0.11373 0.0
C2125 C 0.94225 0.99873 0.10315 0.0
C2126 C 0.92119 0.01244 0.05404 0.0
C2127 C 0.91071 0.06595 0.03779 0.0
C2128 C 0.91392 0.0481 0.05078 0.0
C2129 C 0.92829 0.99671 0.08746 0.0
C2130 C 0.92257 0.01432 0.07501 0.0
H2131 H 0.92788 0.11369 0.0317 0.0
H2132 H 0.93025 0.08557 0.05491 0.0
H2133 H 0.91662 0.02721 0.02594 0.0
H2134 H 0.92144 0.94612 0.08945 0.0
H2135 H 0.90965 0.97551 0.07126 0.0
C2136 C 0.96459 0.16925 0.38138 0.0
C2137 C 0.98039 0.15542 0.37918 0.0
C2138 C 0.96808 0.18983 0.37924 0.0
C2139 C 0.00786 0.22702 0.38474 0.0
H2140 H 0.97215 0.26206 0.35495 0.0
C2141 C 0.02383 0.31172 0.37788 0.0
C2142 C 0.00731 0.32475 0.37937 0.0
C2143 C 0.02093 0.29105 0.37572 0.0
C2144 C 0.98216 0.25253 0.36352 0.0
H2145 H 0.01215 0.15233 0.37254 0.0
H2146 H 0.01823 0.18828 0.36904 0.0
H2147 H 0.96609 0.2259 0.35521 0.0
H2148 H 0.97478 0.32636 0.37943 0.0
H2149 H 0.96972 0.29034 0.37631 0.0
H2150 H 0.02355 0.2535 0.39368 0.0
C2151 C 0.00318 0.18316 0.37247 0.0
C2152 C 0.97871 0.23182 0.36359 0.0
C2153 C 0.99966 0.16258 0.37439 0.0
C2154 C 0.98784 0.31673 0.37828 0.0
C2155 C 0.98494 0.29604 0.37634 0.0
C2156 C 0.01119 0.24772 0.38486 0.0
C2157 C 0.98748 0.197 0.37506 0.0
C2158 C 0.99148 0.21888 0.37427 0.0
C2159 C 0.00145 0.2829 0.37523 0.0
C2160 C 0.99833 0.26077 0.37433 0.0
H2161 H 0.94956 0.1642 0.38501 0.0
H2162 H 0.95573 0.20018 0.38145 0.0
H2163 H 0.01779 0.21743 0.39334 0.0
H2164 H 0.03904 0.31746 0.37848 0.0
H2165 H 0.03401 0.28146 0.3745 0.0
C2166 C 0.98067 0.67961 0.14813 0.0
C2167 C 0.00035 0.67209 0.14689 0.0
C2168 C 0.97719 0.70028 0.14867 0.0
C2169 C 0.00057 0.74911 0.15932 0.0
H2170 H 0.96179 0.76961 0.12104 0.0
C2171 C 0.9948 0.83338 0.13994 0.0
C2172 C 0.97577 0.84139 0.13563 0.0
C2173 C 0.99726 0.81275 0.14285 0.0
C2174 C 0.9724 0.76417 0.13208 0.0
H2175 H 0.03186 0.68033 0.14607 0.0
H2176 H 0.02574 0.71647 0.1472 0.0
H2177 H 0.96691 0.73355 0.12405 0.0
H2178 H 0.94427 0.83417 0.13162 0.0
H2179 H 0.94845 0.79828 0.13723 0.0
H2180 H 0.00599 0.77968 0.16749 0.0
C2181 C 0.01303 0.70634 0.1477 0.0
C2182 C 0.97537 0.74349 0.13375 0.0
C2183 C 0.01651 0.68566 0.14696 0.0
C2184 C 0.95918 0.82842 0.13471 0.0
C2185 C 0.9616 0.80782 0.13783 0.0
C2186 C 0.99746 0.76981 0.15781 0.0
C2187 C 0.99333 0.71385 0.14821 0.0
C2188 C 0.98959 0.73576 0.14726 0.0
C2189 C 0.98071 0.79968 0.14172 0.0
C2190 C 0.98345 0.77762 0.14404 0.0
H2191 H 0.96788 0.66957 0.14818 0.0
H2192 H 0.96186 0.70568 0.14928 0.0
H2193 H 0.01149 0.74352 0.17 0.0
H2194 H 0.0079 0.84298 0.14071 0.0
H2195 H 0.01224 0.80702 0.14551 0.0
C2196 C 0.38103 0.99195 0.16756 0.0
C2197 C 0.38593 0.97318 0.15929 0.0
C2198 C 0.37819 0.99408 0.18822 0.0
C2199 C 0.39019 0.96932 0.23653 0.0
H2200 H 0.35149 0.00747 0.2575 0.0
C2201 C 0.3757 0.97877 0.32141 0.0
C2202 C 0.37654 0.99866 0.32842 0.0
C2203 C 0.37486 0.97478 0.30084 0.0
C2204 C 0.36238 0.9968 0.25182 0.0
H2205 H 0.39114 0.94177 0.16613 0.0
H2206 H 0.38568 0.94535 0.20215 0.0
H2207 H 0.35348 0.0017 0.22138 0.0
H2208 H 0.37639 0.02997 0.3194 0.0
H2209 H 0.37471 0.02295 0.28347 0.0
H2210 H 0.39896 0.96439 0.26706 0.0
C2211 C 0.38451 0.95856 0.19274 0.0
C2212 C 0.3636 0.99354 0.23114 0.0
C2213 C 0.38755 0.95647 0.17208 0.0
C2214 C 0.37582 0.01448 0.31447 0.0
C2215 C 0.37476 0.01048 0.29391 0.0
C2216 C 0.38881 0.97244 0.25722 0.0
C2217 C 0.37997 0.97744 0.2011 0.0
C2218 C 0.37772 0.97996 0.2232 0.0
C2219 C 0.37459 0.99059 0.28689 0.0
C2220 C 0.37507 0.98639 0.26505 0.0
H2221 H 0.37972 0.00514 0.15814 0.0
H2222 H 0.37506 0.0089 0.1941 0.0
H2223 H 0.40147 0.95901 0.23098 0.0
H2224 H 0.37618 0.96624 0.33177 0.0
H2225 H 0.37456 0.95931 0.29582 0.0
C2226 C 0.60825 0.53962 0.17495 0.0
C2227 C 0.61854 0.5297 0.15946 0.0
C2228 C 0.61035 0.5333 0.19485 0.0
C2229 C 0.62649 0.48941 0.22533 0.0
H2230 H 0.62468 0.5282 0.26863 0.0
C2231 C 0.61677 0.46602 0.30841 0.0
C2232 C 0.62586 0.4779 0.32325 0.0
C2233 C 0.61747 0.47183 0.28824 0.0
C2234 C 0.62552 0.51714 0.25676 0.0
H2235 H 0.6396 0.50579 0.1527 0.0
H2236 H 0.64376 0.49517 0.18743 0.0
H2237 H 0.62353 0.53977 0.23411 0.0
H2238 H 0.64377 0.50457 0.32854 0.0
H2239 H 0.64564 0.5143 0.29339 0.0
H2240 H 0.62914 0.46682 0.24801 0.0
C2241 C 0.63359 0.50745 0.18422 0.0
C2242 C 0.62452 0.52378 0.23689 0.0
C2243 C 0.63131 0.51362 0.1643 0.0
C2244 C 0.6364 0.49523 0.31745 0.0
C2245 C 0.63734 0.50089 0.29729 0.0
C2246 C 0.6277 0.48277 0.24521 0.0
C2247 C 0.62298 0.51706 0.19975 0.0
C2248 C 0.62481 0.51001 0.22091 0.0
C2249 C 0.62752 0.48952 0.28245 0.0
C2250 C 0.62708 0.49654 0.26121 0.0
H2251 H 0.5982 0.55198 0.17168 0.0
H2252 H 0.60168 0.54088 0.20633 0.0
H2253 H 0.62651 0.47832 0.21346 0.0
H2254 H 0.60845 0.45264 0.31245 0.0
H2255 H 0.60953 0.46281 0.27731 0.0
C2256 C 0.31163 0.38561 0.02268 0.0
C2257 C 0.32487 0.3766 0.00896 0.0
C2258 C 0.29091 0.38486 0.01953 0.0
C2259 C 0.25372 0.3771 0.97893 0.0
H2260 H 0.21622 0.37565 0.0234 0.0
C2261 C 0.16256 0.37273 0.99527 0.0
C2262 C 0.15584 0.38608 0.98039 0.0
C2263 C 0.18309 0.36986 0.99852 0.0
C2264 C 0.22644 0.37579 0.01076 0.0
H2265 H 0.32678 0.35892 0.9817 0.0
H2266 H 0.29063 0.35705 0.97652 0.0
H2267 H 0.25201 0.37256 0.02989 0.0
H2268 H 0.16533 0.40688 0.9572 0.0
H2269 H 0.20108 0.40237 0.96324 0.0
H2270 H 0.22815 0.37974 0.95974 0.0
C2271 C 0.29622 0.36525 0.98939 0.0
C2272 C 0.24703 0.37431 0.01452 0.0
C2273 C 0.31695 0.3662 0.99242 0.0
C2274 C 0.17005 0.3964 0.96871 0.0
C2275 C 0.19057 0.3937 0.97211 0.0
C2276 C 0.23314 0.37838 0.97515 0.0
C2277 C 0.28294 0.37486 0.00271 0.0
C2278 C 0.26095 0.37519 0.99867 0.0
C2279 C 0.19736 0.38043 0.98709 0.0
C2280 C 0.21923 0.378 0.99103 0.0
H2281 H 0.31728 0.39382 0.03553 0.0
H2282 H 0.2812 0.39269 0.02996 0.0
H2283 H 0.26396 0.37808 0.96634 0.0
H2284 H 0.15196 0.3644 0.00438 0.0
H2285 H 0.18774 0.35925 0.00993 0.0
C2286 C 0.17956 0.61645 0.54701 0.0
C2287 C 0.16455 0.61842 0.53233 0.0
C2288 C 0.19979 0.61895 0.54194 0.0
C2289 C 0.23338 0.63877 0.50169 0.0
H2290 H 0.2722 0.60276 0.52587 0.0
C2291 C 0.31337 0.62554 0.47017 0.0
C2292 C 0.32916 0.62466 0.48414 0.0
C2293 C 0.29344 0.62672 0.47669 0.0
C2294 C 0.26157 0.61307 0.51916 0.0
H2295 H 0.15898 0.62475 0.50086 0.0
H2296 H 0.19414 0.62848 0.49194 0.0
H2297 H 0.23716 0.60104 0.53614 0.0
H2298 H 0.33643 0.6248 0.51591 0.0
H2299 H 0.30164 0.62665 0.52722 0.0
H2300 H 0.25785 0.65029 0.48422 0.0
C2301 C 0.19037 0.62548 0.50746 0.0
C2302 C 0.24147 0.61216 0.52509 0.0
C2303 C 0.17017 0.62318 0.51256 0.0
C2304 C 0.32463 0.62541 0.50475 0.0
C2305 C 0.3047 0.62637 0.51125 0.0
C2306 C 0.25346 0.63953 0.4956 0.0
C2307 C 0.20548 0.62329 0.52205 0.0
C2308 C 0.22706 0.62492 0.51636 0.0
C2309 C 0.2889 0.62683 0.4973 0.0
C2310 C 0.26773 0.62663 0.50422 0.0
H2311 H 0.17571 0.61294 0.56241 0.0
H2312 H 0.21096 0.6175 0.55366 0.0
H2313 H 0.22281 0.6491 0.49489 0.0
H2314 H 0.31636 0.62502 0.4542 0.0
H2315 H 0.28155 0.62692 0.46561 0.0
C2316 C 0.68169 0.84136 0.49706 0.0
C2317 C 0.67711 0.85146 0.47913 0.0
C2318 C 0.70156 0.83972 0.50359 0.0
C2319 C 0.7424 0.84956 0.52073 0.0
H2320 H 0.78642 0.84601 0.48286 0.0
C2321 C 0.82447 0.86478 0.54406 0.0
C2322 C 0.83987 0.85435 0.53414 0.0
C2323 C 0.80453 0.86275 0.53783 0.0
C2324 C 0.77435 0.8467 0.49372 0.0
H2325 H 0.68975 0.86757 0.45383 0.0
H2326 H 0.72428 0.86536 0.46549 0.0
H2327 H 0.75212 0.84449 0.47072 0.0
H2328 H 0.84643 0.8329 0.51055 0.0
H2329 H 0.81165 0.82874 0.50018 0.0
H2330 H 0.76464 0.85105 0.5438 0.0
C2331 C 0.71267 0.8582 0.47432 0.0
C2332 C 0.7546 0.84616 0.48669 0.0
C2333 C 0.69282 0.85958 0.46766 0.0
C2334 C 0.83489 0.84132 0.51833 0.0
C2335 C 0.81494 0.83905 0.5123 0.0
C2336 C 0.76216 0.84984 0.52778 0.0
C2337 C 0.7173 0.8484 0.49248 0.0
C2338 C 0.73835 0.84783 0.50006 0.0
C2339 C 0.79951 0.85 0.52173 0.0
C2340 C 0.77842 0.84865 0.51436 0.0
H2341 H 0.6699 0.83477 0.50613 0.0
H2342 H 0.70454 0.83169 0.51741 0.0
H2343 H 0.73033 0.85114 0.5315 0.0
H2344 H 0.82788 0.87502 0.55622 0.0
H2345 H 0.79316 0.87166 0.54528 0.0
C2346 C 0.54496 0.82059 0.86531 0.0
C2347 C 0.53503 0.83605 0.85499 0.0
C2348 C 0.53873 0.80066 0.86317 0.0
C2349 C 0.52879 0.75836 0.84995 0.0
H2350 H 0.47177 0.74817 0.84434 0.0
C2351 C 0.49848 0.67782 0.84068 0.0
C2352 C 0.4805 0.67307 0.85063 0.0
C2353 C 0.5049 0.69775 0.83923 0.0
C2354 C 0.48773 0.75069 0.84608 0.0
H2355 H 0.51138 0.84274 0.83365 0.0
H2356 H 0.50101 0.80798 0.82929 0.0
H2357 H 0.48378 0.7825 0.84623 0.0
H2358 H 0.45502 0.68546 0.86666 0.0
H2359 H 0.46651 0.72007 0.86477 0.0
H2360 H 0.53262 0.72654 0.85097 0.0
C2361 C 0.51315 0.81121 0.8396 0.0
C2362 C 0.49469 0.77047 0.84683 0.0
C2363 C 0.51918 0.83115 0.84199 0.0
C2364 C 0.46888 0.68867 0.85877 0.0
C2365 C 0.47545 0.70856 0.85758 0.0
C2366 C 0.5218 0.73858 0.84946 0.0
C2367 C 0.52262 0.7957 0.85041 0.0
C2368 C 0.51531 0.77459 0.84887 0.0
C2369 C 0.49365 0.71337 0.84796 0.0
C2370 C 0.50116 0.73446 0.84763 0.0
H2371 H 0.55716 0.82394 0.87553 0.0
H2372 H 0.54622 0.78924 0.87198 0.0
H2373 H 0.54479 0.76089 0.85122 0.0
H2374 H 0.50766 0.66613 0.83408 0.0
H2375 H 0.51875 0.70086 0.83131 0.0
C2376 C 0.50171 0.31946 0.62411 0.0
C2377 C 0.48122 0.32445 0.62355 0.0
C2378 C 0.50781 0.29939 0.6246 0.0
C2379 C 0.48909 0.24821 0.61303 0.0
H2380 H 0.53713 0.23147 0.64136 0.0
C2381 C 0.51074 0.1651 0.62249 0.0
C2382 C 0.53062 0.15996 0.61759 0.0
C2383 C 0.50502 0.18519 0.62416 0.0
C2384 C 0.52376 0.23599 0.63329 0.0
H2385 H 0.45102 0.31232 0.62392 0.0
H2386 H 0.4616 0.27733 0.62546 0.0
H2387 H 0.52613 0.2664 0.64335 0.0
H2388 H 0.56023 0.17187 0.61113 0.0
H2389 H 0.55021 0.20712 0.61432 0.0
H2390 H 0.48657 0.21769 0.6033 0.0
C2391 C 0.47303 0.28888 0.62489 0.0
C2392 C 0.51745 0.256 0.63436 0.0
C2393 C 0.46693 0.30895 0.62416 0.0
C2394 C 0.54479 0.17536 0.61487 0.0
C2395 C 0.53909 0.19551 0.61677 0.0
C2396 C 0.49526 0.2282 0.61216 0.0
C2397 C 0.49355 0.28381 0.62478 0.0
C2398 C 0.50005 0.2624 0.62419 0.0
C2399 C 0.51909 0.2006 0.6212 0.0
C2400 C 0.51267 0.22189 0.62224 0.0
H2401 H 0.51311 0.33104 0.62359 0.0
H2402 H 0.52373 0.29612 0.62423 0.0
H2403 H 0.47589 0.25261 0.60461 0.0
H2404 H 0.49945 0.15362 0.62476 0.0
H2405 H 0.48956 0.18868 0.62781 0.0
C2406 C 0.84052 0.52378 0.83112 0.0
C2407 C 0.8543 0.53874 0.83661 0.0
C2408 C 0.83831 0.51817 0.81105 0.0
C2409 C 0.85152 0.53321 0.75862 0.0
H2410 H 0.84284 0.47658 0.74839 0.0
C2411 C 0.8595 0.4721 0.68985 0.0
C2412 C 0.85263 0.48389 0.67377 0.0
C2413 C 0.85802 0.47909 0.70955 0.0
C2414 C 0.84546 0.49242 0.75091 0.0
H2415 H 0.87634 0.55987 0.8254 0.0
H2416 H 0.87315 0.54957 0.79043 0.0
H2417 H 0.84413 0.48861 0.78268 0.0
H2418 H 0.83816 0.51192 0.66576 0.0
H2419 H 0.83485 0.52382 0.70022 0.0
H2420 H 0.85405 0.53678 0.72683 0.0
C2421 C 0.86359 0.54248 0.8015 0.0
C2422 C 0.84585 0.49942 0.77067 0.0
C2423 C 0.86553 0.54834 0.82158 0.0
C2424 C 0.84373 0.50257 0.67785 0.0
C2425 C 0.84198 0.50945 0.69761 0.0
C2426 C 0.85141 0.52615 0.73884 0.0
C2427 C 0.85013 0.52713 0.79599 0.0
C2428 C 0.84897 0.5199 0.77483 0.0
C2429 C 0.84934 0.49791 0.71372 0.0
C2430 C 0.84851 0.50563 0.73472 0.0
H2431 H 0.83145 0.5163 0.84238 0.0
H2432 H 0.8274 0.5067 0.8074 0.0
H2433 H 0.85366 0.54912 0.76116 0.0
H2434 H 0.86659 0.4577 0.68718 0.0
H2435 H 0.8642 0.46991 0.72146 0.0
C2436 C 0.14456 0.99222 0.68232 0.0
C2437 C 0.14326 0.01156 0.67402 0.0
C2438 C 0.14646 0.98965 0.70303 0.0
C2439 C 0.13692 0.01638 0.75071 0.0
H2440 H 0.16689 0.97198 0.77358 0.0
C2441 C 0.14552 0.00539 0.83609 0.0
C2442 C 0.14088 0.98605 0.84317 0.0
C2443 C 0.14786 0.0089 0.81556 0.0
C2444 C 0.15843 0.98441 0.76736 0.0
H2445 H 0.14382 0.04341 0.68079 0.0
H2446 H 0.1477 0.03895 0.71688 0.0
H2447 H 0.16784 0.97776 0.73739 0.0
H2448 H 0.13569 0.95512 0.83436 0.0
H2449 H 0.13993 0.9613 0.79847 0.0
H2450 H 0.12761 0.02305 0.78073 0.0
C2451 C 0.14668 0.02573 0.70747 0.0
C2452 C 0.1589 0.98769 0.74665 0.0
C2453 C 0.14457 0.0283 0.68677 0.0
C2454 C 0.13918 0.9702 0.82936 0.0
C2455 C 0.14173 0.9737 0.80884 0.0
C2456 C 0.13662 0.01321 0.77142 0.0
C2457 C 0.14732 0.00637 0.7159 0.0
C2458 C 0.14795 0.00359 0.73804 0.0
C2459 C 0.14584 0.99313 0.80174 0.0
C2460 C 0.14718 0.99707 0.77991 0.0
H2461 H 0.14356 0.97901 0.67289 0.0
H2462 H 0.14662 0.97452 0.70898 0.0
H2463 H 0.128 0.02853 0.74461 0.0
H2464 H 0.14702 0.01791 0.84636 0.0
H2465 H 0.15121 0.02399 0.81048 0.0
C2466 C 0.82683 0.13894 0.96099 0.0
C2467 C 0.84014 0.1421 0.97705 0.0
C2468 C 0.80614 0.14122 0.96372 0.0
C2469 C 0.7679 0.13856 0.00297 0.0
H2470 H 0.73368 0.16569 0.96445 0.0
C2471 C 0.68379 0.14844 0.01823 0.0
C2472 C 0.67064 0.14507 0.00211 0.0
C2473 C 0.70439 0.15031 0.01493 0.0
C2474 C 0.74301 0.1579 0.97525 0.0
H2475 H 0.84222 0.15068 0.00843 0.0
H2476 H 0.80616 0.15452 0.01316 0.0
H2477 H 0.76995 0.16455 0.95892 0.0
H2478 H 0.66867 0.14167 0.96979 0.0
H2479 H 0.70472 0.1444 0.96406 0.0
H2480 H 0.74115 0.13137 0.01905 0.0
C2481 C 0.81172 0.15013 0.99852 0.0
C2482 C 0.76376 0.15729 0.97209 0.0
C2483 C 0.83238 0.14799 0.99577 0.0
C2484 C 0.67843 0.14427 0.98253 0.0
C2485 C 0.6991 0.14594 0.97924 0.0
C2486 C 0.7472 0.13902 0.00605 0.0
C2487 C 0.79837 0.14657 0.98259 0.0
C2488 C 0.7764 0.14762 0.98594 0.0
C2489 C 0.71237 0.14863 0.99545 0.0
C2490 C 0.73447 0.1487 0.99225 0.0
H2491 H 0.83235 0.13445 0.94636 0.0
H2492 H 0.79618 0.13824 0.95121 0.0
H2493 H 0.77724 0.1307 0.01371 0.0
H2494 H 0.67821 0.14937 0.03348 0.0
H2495 H 0.7141 0.15286 0.02772 0.0
C2496 C 0.9492 0.94473 0.21207 0.0
C2497 C 0.93737 0.94551 0.19466 0.0
C2498 C 0.94271 0.95387 0.2297 0.0
C2499 C 0.91347 0.99657 0.24609 0.0
H2500 H 0.92924 0.97632 0.29835 0.0
C2501 C 0.92068 0.04301 0.32148 0.0
C2502 C 0.94118 0.04332 0.3266 0.0
C2503 C 0.91369 0.02996 0.30649 0.0
C2504 C 0.92432 0.98202 0.28393 0.0
H2505 H 0.90902 0.95568 0.18227 0.0
H2506 H 0.89774 0.97202 0.21328 0.0
H2507 H 0.92785 0.95344 0.26975 0.0
H2508 H 0.97034 0.03022 0.32002 0.0
H2509 H 0.95808 0.00745 0.29442 0.0
H2510 H 0.91111 0.02544 0.26027 0.0
C2511 C 0.91203 0.96426 0.21318 0.0
C2512 C 0.92363 0.969 0.26756 0.0
C2513 C 0.91845 0.95486 0.19549 0.0
C2514 C 0.95449 0.03049 0.31642 0.0
C2515 C 0.94748 0.01731 0.30186 0.0
C2516 C 0.91401 0.00959 0.26257 0.0
C2517 C 0.92428 0.96414 0.23035 0.0
C2518 C 0.91931 0.97637 0.24828 0.0
C2519 C 0.92706 0.01681 0.29688 0.0
C2520 C 0.92043 0.00256 0.28134 0.0
H2521 H 0.9638 0.93754 0.21193 0.0
H2522 H 0.95268 0.95376 0.24255 0.0
H2523 H 0.91016 0.00271 0.2314 0.0
H2524 H 0.9101 0.05274 0.32909 0.0
H2525 H 0.89788 0.02985 0.30268 0.0
C2526 C 0.01959 0.43847 0.30596 0.0
C2527 C 0.03497 0.43559 0.3201 0.0
C2528 C 0.02255 0.45088 0.2894 0.0
C2529 C 0.05209 0.49451 0.27373 0.0
H2530 H 0.02425 0.48512 0.22348 0.0
C2531 C 0.0468 0.55132 0.20639 0.0
C2532 C 0.02687 0.55464 0.20019 0.0
C2533 C 0.05124 0.53614 0.22028 0.0
C2534 C 0.0322 0.48789 0.2374 0.0
H2535 H 0.06591 0.44266 0.32736 0.0
H2536 H 0.07116 0.46434 0.29813 0.0
H2537 H 0.02686 0.45809 0.24803 0.0
H2538 H 0.99596 0.54499 0.20419 0.0
H2539 H 0.00379 0.51856 0.22806 0.0
H2540 H 0.05708 0.52452 0.263 0.0
C2541 C 0.05672 0.45714 0.3001 0.0
C2542 C 0.03365 0.47246 0.25147 0.0
C2543 C 0.05376 0.4446 0.31674 0.0
C2544 C 0.01148 0.54288 0.20857 0.0
C2545 C 0.01594 0.52761 0.22214 0.0
C2546 C 0.0508 0.50994 0.2595 0.0
C2547 C 0.04099 0.46072 0.28646 0.0
C2548 C 0.04293 0.4758 0.27012 0.0
C2549 C 0.03586 0.52388 0.22788 0.0
C2550 C 0.04021 0.50693 0.24154 0.0
H2551 H 0.00494 0.43171 0.30805 0.0
H2552 H 0.00999 0.45349 0.2794 0.0
H2553 H 0.05922 0.49765 0.28799 0.0
H2554 H 0.05898 0.56016 0.20022 0.0
H2555 H 0.0667 0.53356 0.2246 0.0
C2556 C 0.21548 0.95639 0.9489 0.0
C2557 C 0.19745 0.94549 0.94927 0.0
C2558 C 0.23215 0.94964 0.95961 0.0
C2559 C 0.26755 0.92709 0.97826 0.0
H2560 H 0.25609 0.92309 0.03524 0.0
C2561 C 0.33045 0.92276 0.03752 0.0
C2562 C 0.32931 0.9393 0.05057 0.0
C2563 C 0.31392 0.91746 0.02572 0.0
C2564 C 0.25946 0.92381 0.01935 0.0
H2565 H 0.1829 0.91859 0.96045 0.0
H2566 H 0.21203 0.90707 0.97974 0.0
H2567 H 0.22838 0.92463 0.01118 0.0
H2568 H 0.30975 0.96237 0.0626 0.0
H2569 H 0.28077 0.95279 0.04237 0.0
H2570 H 0.29862 0.92716 0.9865 0.0
C2571 C 0.21324 0.9207 0.97094 0.0
C2572 C 0.24366 0.92458 0.0056 0.0
C2573 C 0.19664 0.92726 0.95987 0.0
C2574 C 0.31103 0.9496 0.0526 0.0
C2575 C 0.29443 0.94405 0.04113 0.0
C2576 C 0.28336 0.92598 0.99199 0.0
C2577 C 0.231 0.93204 0.97116 0.0
C2578 C 0.24758 0.92697 0.98501 0.0
C2579 C 0.29591 0.92833 0.02716 0.0
C2580 C 0.27942 0.92508 0.01269 0.0
H2581 H 0.21653 0.97046 0.94078 0.0
H2582 H 0.24562 0.95876 0.95971 0.0
H2583 H 0.27091 0.92889 0.96245 0.0
H2584 H 0.34441 0.91463 0.03562 0.0
H2585 H 0.31537 0.90529 0.01503 0.0
C2586 C 0.69347 0.57315 0.0568 0.0
C2587 C 0.6749 0.58309 0.0559 0.0
C2588 C 0.70932 0.57918 0.0445 0.0
C2589 C 0.71674 0.59805 0.99482 0.0
H2590 H 0.773 0.59922 0.00979 0.0
C2591 C 0.78138 0.56984 0.94535 0.0
C2592 C 0.79928 0.58094 0.94472 0.0
C2593 C 0.76554 0.57593 0.95765 0.0
C2594 C 0.75734 0.59929 0.00539 0.0
H2595 H 0.65858 0.60771 0.04221 0.0
H2596 H 0.68629 0.61796 0.02026 0.0
H2597 H 0.74717 0.60006 0.03593 0.0
H2598 H 0.81443 0.60751 0.95587 0.0
H2599 H 0.78681 0.61787 0.97786 0.0
H2600 H 0.72693 0.59593 0.96436 0.0
C2601 C 0.68857 0.60567 0.03068 0.0
C2602 C 0.74261 0.59968 0.02033 0.0
C2603 C 0.6728 0.59989 0.0433 0.0
C2604 C 0.80075 0.59872 0.95599 0.0
C2605 C 0.78503 0.6046 0.96862 0.0
C2606 C 0.73148 0.59733 0.97991 0.0
C2607 C 0.70679 0.59503 0.03082 0.0
C2608 C 0.7222 0.59853 0.01519 0.0
C2609 C 0.76744 0.59304 0.96982 0.0
C2610 C 0.7519 0.59742 0.9851 0.0
H2611 H 0.69545 0.56015 0.06637 0.0
H2612 H 0.72314 0.5706 0.04479 0.0
H2613 H 0.70111 0.59695 0.99047 0.0
H2614 H 0.77983 0.55609 0.93679 0.0
H2615 H 0.75221 0.56664 0.95844 0.0
C2616 C 0.31472 0.05048 0.44636 0.0
C2617 C 0.31975 0.03041 0.44203 0.0
C2618 C 0.3003 0.0549 0.46106 0.0
C2619 C 0.28159 0.03484 0.50757 0.0
H2620 H 0.231 0.06222 0.49864 0.0
C2621 C 0.21347 0.02088 0.55704 0.0
C2622 C 0.19952 0.03626 0.56073 0.0
C2623 C 0.22975 0.02412 0.54434 0.0
C2624 C 0.24527 0.05497 0.50154 0.0
H2625 H 0.31279 0.99929 0.44902 0.0
H2626 H 0.28812 0.00708 0.47469 0.0
H2627 H 0.25602 0.06082 0.47166 0.0
H2628 H 0.19221 0.06742 0.55464 0.0
H2629 H 0.22096 0.07314 0.53243 0.0
H2630 H 0.27101 0.02865 0.53719 0.0
C2631 C 0.29535 0.01934 0.4668 0.0
C2632 C 0.2595 0.05413 0.48607 0.0
C2633 C 0.30944 0.01492 0.45201 0.0
C2634 C 0.2027 0.05526 0.55207 0.0
C2635 C 0.21907 0.0585 0.53925 0.0
C2636 C 0.26755 0.03588 0.52304 0.0
C2637 C 0.291 0.03932 0.47176 0.0
C2638 C 0.27743 0.04342 0.48879 0.0
C2639 C 0.2326 0.04284 0.53502 0.0
C2640 C 0.24889 0.04525 0.51996 0.0
H2641 H 0.32235 0.06274 0.43889 0.0
H2642 H 0.29704 0.07043 0.46464 0.0
H2643 H 0.29549 0.02674 0.51005 0.0
H2644 H 0.21151 0.00608 0.56349 0.0
H2645 H 0.23966 0.0116 0.54119 0.0
C2646 C 0.79145 0.42561 0.55551 0.0
C2647 C 0.7968 0.4451 0.56171 0.0
C2648 C 0.77681 0.42284 0.54062 0.0
C2649 C 0.75858 0.44798 0.49642 0.0
H2650 H 0.70875 0.41823 0.50069 0.0
C2651 C 0.69261 0.46354 0.44426 0.0
C2652 C 0.67961 0.44797 0.4385 0.0
C2653 C 0.70805 0.46004 0.45792 0.0
C2654 C 0.72281 0.42624 0.49908 0.0
H2655 H 0.78987 0.4768 0.55818 0.0
H2656 H 0.76481 0.47188 0.53218 0.0
H2657 H 0.73287 0.41755 0.52852 0.0
H2658 H 0.67313 0.41625 0.4421 0.0
H2659 H 0.70047 0.41004 0.46588 0.0
H2660 H 0.74881 0.45679 0.4672 0.0
C2661 C 0.77202 0.45882 0.53868 0.0
C2662 C 0.73652 0.42589 0.51504 0.0
C2663 C 0.78636 0.46159 0.55363 0.0
C2664 C 0.68289 0.42858 0.44622 0.0
C2665 C 0.69844 0.42506 0.45997 0.0
C2666 C 0.74508 0.44813 0.48044 0.0
C2667 C 0.76753 0.43951 0.53164 0.0
C2668 C 0.7542 0.4373 0.51404 0.0
C2669 C 0.71105 0.44083 0.46615 0.0
C2670 C 0.7267 0.43785 0.48182 0.0
H2671 H 0.79918 0.4126 0.56145 0.0
H2672 H 0.77348 0.40779 0.53542 0.0
H2673 H 0.77231 0.45663 0.4952 0.0
H2674 H 0.69055 0.47867 0.43864 0.0
H2675 H 0.7172 0.47265 0.46255 0.0
C2676 C 0.03568 0.3328 0.92064 0.0
C2677 C 0.04927 0.33081 0.93664 0.0
C2678 C 0.02378 0.3165 0.91481 0.0
C2679 C 0.99031 0.28577 0.92337 0.0
H2680 H 0.00883 0.23069 0.91945 0.0
C2681 C 0.9475 0.2176 0.95358 0.0
C2682 C 0.94726 0.19985 0.94223 0.0
C2683 C 0.95826 0.23429 0.94692 0.0
C2684 C 0.00341 0.24601 0.92013 0.0
H2685 H 0.06231 0.31004 0.95802 0.0
H2686 H 0.04196 0.28149 0.94751 0.0
H2687 H 0.03308 0.25822 0.91751 0.0
H2688 H 0.95746 0.18584 0.91464 0.0
H2689 H 0.97676 0.21498 0.90326 0.0
H2690 H 0.96082 0.27352 0.92739 0.0
C2691 C 0.04033 0.29561 0.93959 0.0
C2692 C 0.01727 0.26171 0.91911 0.0
C2693 C 0.05189 0.31195 0.94567 0.0
C2694 C 0.95735 0.19935 0.92369 0.0
C2695 C 0.96843 0.21596 0.9172 0.0
C2696 C 0.97649 0.27006 0.92471 0.0
C2697 C 0.02569 0.29791 0.9246 0.0
C2698 C 0.0109 0.28169 0.92132 0.0
C2699 C 0.96923 0.23345 0.92893 0.0
C2700 C 0.98301 0.25004 0.9237 0.0
H2701 H 0.03331 0.34723 0.91351 0.0
H2702 H 0.01258 0.3186 0.90322 0.0
H2703 H 0.98504 0.30104 0.92532 0.0
H2704 H 0.93979 0.21843 0.96789 0.0
H2705 H 0.9588 0.24753 0.95635 0.0
C2706 C 0.04573 0.67263 0.59711 0.0
C2707 C 0.05797 0.67453 0.58002 0.0
C2708 C 0.03296 0.68832 0.60279 0.0
C2709 C 0.99669 0.71632 0.59588 0.0
H2710 H 0.0118 0.77256 0.5965 0.0
C2711 C 0.94655 0.78136 0.56964 0.0
C2712 C 0.94655 0.79929 0.58072 0.0
C2713 C 0.95882 0.76535 0.57533 0.0
C2714 C 0.00737 0.75691 0.59673 0.0
H2715 H 0.06752 0.69467 0.55631 0.0
H2716 H 0.04566 0.72225 0.56658 0.0
H2717 H 0.03791 0.74668 0.59628 0.0
H2718 H 0.95872 0.81429 0.60691 0.0
H2719 H 0.98066 0.78636 0.61657 0.0
H2720 H 0.96618 0.72657 0.59499 0.0
C2721 C 0.04579 0.70862 0.57546 0.0
C2722 C 0.02229 0.74215 0.59649 0.0
C2723 C 0.05823 0.69282 0.56954 0.0
C2724 C 0.95834 0.80058 0.59817 0.0
C2725 C 0.97095 0.78469 0.60364 0.0
C2726 C 0.98178 0.73109 0.59577 0.0
C2727 C 0.03259 0.70629 0.59174 0.0
C2728 C 0.01708 0.72174 0.59557 0.0
C2729 C 0.9716 0.76711 0.59201 0.0
C2730 C 0.98701 0.75151 0.5957 0.0
H2731 H 0.04513 0.65863 0.60537 0.0
H2732 H 0.02292 0.6862 0.61541 0.0
H2733 H 0.99229 0.70069 0.59498 0.0
H2734 H 0.93759 0.77996 0.55613 0.0
H2735 H 0.95917 0.75203 0.56601 0.0
C2736 C 0.55639 0.79355 0.42143 0.0
C2737 C 0.56306 0.79726 0.44114 0.0
C2738 C 0.54086 0.77976 0.41787 0.0
C2739 C 0.49609 0.76181 0.44172 0.0
H2740 H 0.49961 0.71212 0.41164 0.0
C2741 C 0.44431 0.69574 0.45763 0.0
C2742 C 0.43872 0.68247 0.44223 0.0
C2743 C 0.45742 0.71157 0.45382 0.0
C2744 C 0.49818 0.72617 0.41969 0.0
H2745 H 0.55955 0.78835 0.47234 0.0
H2746 H 0.53242 0.76482 0.46609 0.0
H2747 H 0.52789 0.73569 0.41131 0.0
H2748 H 0.4418 0.67602 0.41047 0.0
H2749 H 0.46467 0.70401 0.40372 0.0
H2750 H 0.46666 0.75247 0.45037 0.0
C2751 C 0.5391 0.77264 0.45347 0.0
C2752 C 0.5144 0.73957 0.41954 0.0
C2753 C 0.55469 0.7861 0.45699 0.0
C2754 C 0.44582 0.686 0.42266 0.0
C2755 C 0.45905 0.70192 0.41883 0.0
C2756 C 0.47985 0.74861 0.44167 0.0
C2757 C 0.53171 0.76973 0.43399 0.0
C2758 C 0.51369 0.75713 0.43114 0.0
C2759 C 0.46529 0.71466 0.43447 0.0
C2760 C 0.48097 0.73026 0.4313 0.0
H2761 H 0.56254 0.80187 0.40888 0.0
H2762 H 0.53539 0.77763 0.4027 0.0
H2763 H 0.49516 0.77543 0.45056 0.0
H2764 H 0.43911 0.6935 0.47289 0.0
H2765 H 0.4621 0.72084 0.46633 0.0
C2766 C 0.45898 0.54764 0.78795 0.0
C2767 C 0.44345 0.55837 0.79743 0.0
C2768 C 0.45463 0.53206 0.77472 0.0
C2769 C 0.42031 0.51105 0.73944 0.0
H2770 H 0.44477 0.46032 0.75443 0.0
C2771 C 0.41982 0.44258 0.68582 0.0
C2772 C 0.43879 0.43358 0.68355 0.0
C2773 C 0.41621 0.45596 0.70167 0.0
C2774 C 0.43784 0.47435 0.74999 0.0
H2775 H 0.41111 0.56189 0.79939 0.0
H2776 H 0.40355 0.53476 0.77553 0.0
H2777 H 0.44662 0.48883 0.77729 0.0
H2778 H 0.46841 0.4306 0.69678 0.0
H2779 H 0.46226 0.45383 0.72402 0.0
H2780 H 0.41264 0.49698 0.71156 0.0
C2781 C 0.41906 0.53839 0.77879 0.0
C2782 C 0.43883 0.49061 0.76312 0.0
C2783 C 0.42341 0.5539 0.79237 0.0
C2784 C 0.45364 0.43731 0.69804 0.0
C2785 C 0.45004 0.45058 0.7138 0.0
C2786 C 0.41954 0.49479 0.72611 0.0
C2787 C 0.43467 0.527 0.77037 0.0
C2788 C 0.43061 0.50924 0.75772 0.0
C2789 C 0.43146 0.46045 0.71559 0.0
C2790 C 0.4289 0.47644 0.73098 0.0
H2791 H 0.47458 0.55069 0.79132 0.0
H2792 H 0.46691 0.52364 0.76815 0.0
H2793 H 0.4139 0.52532 0.73499 0.0
H2794 H 0.40807 0.44003 0.67488 0.0
H2795 H 0.40167 0.46315 0.70274 0.0
C2796 C 0.59882 0.95499 0.80113 0.0
C2797 C 0.58163 0.94283 0.7999 0.0
C2798 C 0.60406 0.96759 0.78514 0.0
C2799 C 0.59594 0.97786 0.73146 0.0
H2800 H 0.59516 0.03409 0.74669 0.0
C2801 C 0.5955 0.04156 0.67266 0.0
C2802 C 0.57818 0.05346 0.6746 0.0
C2803 C 0.60152 0.02895 0.68835 0.0
C2804 C 0.59573 0.01845 0.74226 0.0
H2805 H 0.55726 0.9332 0.78062 0.0
H2806 H 0.56674 0.95474 0.75253 0.0
H2807 H 0.59608 0.00816 0.77273 0.0
H2808 H 0.55436 0.06256 0.69482 0.0
H2809 H 0.56518 0.04097 0.72239 0.0
H2810 H 0.59479 0.98815 0.701 0.0
C2811 C 0.57605 0.9547 0.76586 0.0
C2812 C 0.59638 0.00364 0.75711 0.0
C2813 C 0.57058 0.94244 0.78195 0.0
C2814 C 0.56776 0.05352 0.69293 0.0
C2815 C 0.574 0.04124 0.70872 0.0
C2816 C 0.59564 0.99268 0.7166 0.0
C2817 C 0.59245 0.96784 0.76754 0.0
C2818 C 0.59581 0.98322 0.75185 0.0
C2819 C 0.59057 0.0284 0.70637 0.0
C2820 C 0.59485 0.01309 0.72189 0.0
H2821 H 0.60751 0.95568 0.81485 0.0
H2822 H 0.61678 0.97759 0.78676 0.0
H2823 H 0.59551 0.96222 0.72705 0.0
H2824 H 0.60375 0.04114 0.65864 0.0
H2825 H 0.61435 0.01918 0.68622 0.0
C2826 C 0.44884 0.31915 0.05128 0.0
C2827 C 0.44347 0.32396 0.03141 0.0
C2828 C 0.4641 0.30513 0.05508 0.0
C2829 C 0.50953 0.28533 0.0322 0.0
H2830 H 0.50144 0.23641 0.06269 0.0
C2831 C 0.55507 0.21463 0.01738 0.0
C2832 C 0.55974 0.20138 0.0331 0.0
C2833 C 0.54335 0.23159 0.02088 0.0
C2834 C 0.50414 0.25021 0.05453 0.0
H2835 H 0.44952 0.31733 4e-05 0.0
H2836 H 0.47607 0.29333 0.00672 0.0
H2837 H 0.4752 0.26219 0.06229 0.0
H2838 H 0.55647 0.19599 0.06505 0.0
H2839 H 0.53592 0.22587 0.07121 0.0
H2840 H 0.53817 0.27341 0.02403 0.0
C2841 C 0.46859 0.30041 0.01931 0.0
C2842 C 0.48909 0.2649 0.05427 0.0
C2843 C 0.45325 0.31409 0.01552 0.0
C2844 C 0.5531 0.20592 0.05262 0.0
C2845 C 0.54123 0.22294 0.05613 0.0
C2846 C 0.52459 0.27081 0.0326 0.0
C2847 C 0.47439 0.29605 0.03906 0.0
C2848 C 0.4914 0.28221 0.04248 0.0
C2849 C 0.53598 0.23579 0.04021 0.0
C2850 C 0.52175 0.25272 0.04311 0.0
H2851 H 0.44156 0.32647 0.06383 0.0
H2852 H 0.46829 0.30187 0.07045 0.0
H2853 H 0.51175 0.29874 0.02326 0.0
H2854 H 0.55998 0.21162 0.00217 0.0
H2855 H 0.53936 0.24096 0.0082 0.0
loop_
_geom_bond_atom_site_label_1
_geom_bond_atom_site_label_2
_geom_bond_distance
_geom_bond_site_symmetry_2
_ccdc_geom_bond_type
Co0 O2 2.161 . S
Co0 O8 2.074 . S
Co0 O11 2.093 . S
Co0 O24 2.097 1_455 S
Co0 N41 2.151 . S
Co0 N49 2.214 . S
Co1 O2 2.142 1_655 S
Co1 O7 2.058 1_655 S
Co1 O17 2.057 . S
Co1 O32 2.037 . S
Co1 N36 2.145 . S
Co1 N57 2.257 . S
O2 Co0 2.161 . S
O2 Co1 2.142 1_455 S
C3 O4 1.278 . S
C3 O11 1.224 1_655 S
O4 C3 1.278 . S
C5 O6 1.238 1_655 S
C5 O17 1.237 . S
O6 C5 1.238 1_455 S
O7 Co1 2.058 1_455 S
O7 C33 1.269 . S
O8 Co0 2.074 . S
O8 C33 1.257 . S
H9 C34 0.930 . S
H10 C40 0.930 . S
O11 Co0 2.093 . S
O11 C3 1.224 1_455 S
H12 C44 0.929 . S
H13 C46 0.930 . S
H14 C47 0.930 . S
H15 C45 0.929 . S
H16 C48 0.928 . S
O17 Co1 2.057 . S
O17 C5 1.237 . S
H18 C37 0.929 . S
H19 C38 0.929 . S
H20 C50 0.931 . S
H21 C42 0.929 . S
H22 C51 0.930 . S
H23 C43 0.931 . S
O24 Co0 2.097 1_655 S
O24 C52 1.214 . S
H25 C53 0.929 . S
H26 C54 0.929 . S
H27 C55 0.930 . S
H28 C56 0.929 . S
H29 C58 0.930 . S
H30 C35 0.930 . S
H31 C39 0.930 . S
O32 Co1 2.037 . S
O32 C52 1.234 . S
C33 O7 1.269 . S
C33 O8 1.257 . S
C34 H9 0.930 . S
C34 C37 1.388 . S
C34 C39 1.418 . S
C35 H30 0.930 . S
C35 C38 1.404 . S
C35 C39 1.353 . S
N36 Co1 2.145 . S
N36 C37 1.397 . S
N36 C38 1.334 . S
C37 H18 0.929 . S
C37 C34 1.388 . S
C37 N36 1.397 . S
C38 H19 0.929 . S
C38 C35 1.404 . S
C38 N36 1.334 . S
C39 H31 0.930 . S
C39 C34 1.418 . S
C39 C35 1.353 . S
C40 H10 0.930 . S
C40 N41 1.330 . S
C40 C42 1.446 . S
N41 Co0 2.151 . S
N41 C40 1.330 . S
N41 C45 1.418 . S
C42 H21 0.929 . S
C42 C40 1.446 . S
C42 C43 1.332 . S
C43 H23 0.931 . S
C43 C42 1.332 . S
C43 C44 1.267 . S
C44 H12 0.929 . S
C44 C43 1.267 . S
C44 C45 1.251 . S
C45 H15 0.929 . S
C45 N41 1.418 . S
C45 C44 1.251 . S
C46 H13 0.930 . S
C46 C48 1.406 1_565 S
C46 C51 1.261 . S
C47 H14 0.930 . S
C47 N49 1.325 . S
C47 C50 1.357 1_545 S
C48 H16 0.928 . S
C48 C46 1.406 1_545 S
C48 N49 1.261 . S
N49 Co0 2.214 . S
N49 C47 1.325 . S
N49 C48 1.261 . S
C50 H20 0.931 . S
C50 C47 1.357 1_565 S
C50 C51 1.312 . S
C51 H22 0.930 . S
C51 C46 1.261 . S
C51 C50 1.312 . S
C52 O24 1.214 . S
C52 O32 1.234 . S
C53 H25 0.929 . S
C53 C56 1.391 . S
C53 C58 1.391 . S
C54 H26 0.929 . S
C54 C55 1.390 . S
C54 N57 1.391 . S
C55 H27 0.930 . S
C55 C54 1.390 . S
C55 C56 1.392 . S
C56 H28 0.929 . S
C56 C53 1.391 . S
C56 C55 1.392 . S
N57 Co1 2.257 . S
N57 C54 1.391 . S
N57 C58 1.388 . S
C58 H29 0.930 . S
C58 C53 1.391 . S
C58 N57 1.388 . S
Co59 O61 2.162 . S
Co59 O67 2.074 . S
Co59 O70 2.093 . S
Co59 O83 2.097 1_655 S
Co59 N100 2.151 . S
Co59 N108 2.214 . S
Co60 O61 2.142 1_455 S
Co60 O66 2.058 1_455 S
Co60 O76 2.057 . S
Co60 O91 2.037 . S
Co60 N95 2.145 . S
Co60 N116 2.257 . S
O61 Co59 2.162 . S
O61 Co60 2.142 1_655 S
C62 O63 1.278 . S
C62 O70 1.224 1_455 S
O63 C62 1.278 . S
C64 O65 1.245 1_455 S
C64 O76 1.232 . S
O65 C64 1.245 1_655 S
O66 Co60 2.058 1_655 S
O66 C92 1.269 . S
O67 Co59 2.074 . S
O67 C92 1.257 . S
H68 C93 0.930 . S
H69 C99 0.930 . S
O70 Co59 2.093 . S
O70 C62 1.224 1_655 S
H71 C103 0.929 . S
H72 C105 0.930 . S
H73 C106 0.930 . S
H74 C104 0.929 . S
H75 C107 0.928 . S
O76 Co60 2.057 . S
O76 C64 1.232 . S
H77 C96 0.929 . S
H78 C97 0.929 . S
H79 C109 0.931 . S
H80 C101 0.929 . S
H81 C110 0.930 . S
H82 C102 0.931 . S
O83 Co59 2.097 1_455 S
O83 C111 1.214 . S
H84 C112 0.929 . S
H85 C113 0.929 . S
H86 C114 0.930 . S
H87 C115 0.929 . S
H88 C117 0.930 . S
H89 C94 0.930 . S
H90 C98 0.930 . S
O91 Co60 2.037 . S
O91 C111 1.234 . S
C92 O66 1.269 . S
C92 O67 1.257 . S
C93 H68 0.930 . S
C93 C96 1.388 . S
C93 C98 1.418 . S
C94 H89 0.930 . S
C94 C97 1.404 . S
C94 C98 1.353 . S
N95 Co60 2.145 . S
N95 C96 1.397 . S
N95 C97 1.334 . S
C96 H77 0.929 . S
C96 C93 1.388 . S
C96 N95 1.397 . S
C97 H78 0.929 . S
C97 C94 1.404 . S
C97 N95 1.334 . S
C98 H90 0.930 . S
C98 C93 1.418 . S
C98 C94 1.353 . S
C99 H69 0.930 . S
C99 N100 1.330 . S
C99 C101 1.446 . S
N100 Co59 2.151 . S
N100 C99 1.330 . S
N100 C104 1.418 . S
C101 H80 0.929 . S
C101 C99 1.446 . S
C101 C102 1.332 . S
C102 H82 0.931 . S
C102 C101 1.332 . S
C102 C103 1.267 . S
C103 H71 0.929 . S
C103 C102 1.267 . S
C103 C104 1.251 . S
C104 H74 0.929 . S
C104 N100 1.418 . S
C104 C103 1.251 . S
C105 H72 0.930 . S
C105 C107 1.406 . S
C105 C110 1.261 . S
C106 H73 0.930 . S
C106 N108 1.325 . S
C106 C109 1.357 . S
C107 H75 0.928 . S
C107 C105 1.406 . S
C107 N108 1.261 . S
N108 Co59 2.214 . S
N108 C106 1.325 . S
N108 C107 1.261 . S
C109 H79 0.931 . S
C109 C106 1.357 . S
C109 C110 1.312 . S
C110 H81 0.930 . S
C110 C105 1.261 . S
C110 C109 1.312 . S
C111 O83 1.214 . S
C111 O91 1.234 . S
C112 H84 0.929 . S
C112 C115 1.391 . S
C112 C117 1.391 . S
C113 H85 0.929 . S
C113 C114 1.390 . S
C113 N116 1.391 . S
C114 H86 0.930 . S
C114 C113 1.390 . S
C114 C115 1.392 . S
C115 H87 0.929 . S
C115 C112 1.391 . S
C115 C114 1.392 . S
N116 Co60 2.257 . S
N116 C113 1.391 . S
N116 C117 1.388 . S
C117 H88 0.930 . S
C117 C112 1.391 . S
C117 N116 1.388 . S
Co118 O120 2.169 . S
Co118 O126 2.074 . S
Co118 O129 2.093 . S
Co118 O142 2.097 1_455 S
Co118 N159 2.151 . S
Co118 N167 2.214 . S
Co119 O120 2.133 1_655 S
Co119 O125 2.058 1_655 S
Co119 O135 2.057 . S
Co119 O150 2.037 . S
Co119 N154 2.145 . S
Co119 N175 2.257 . S
O120 Co118 2.169 . S
O120 Co119 2.133 1_455 S
C121 O122 1.278 . S
C121 O129 1.224 1_655 S
O122 C121 1.278 . S
C123 O124 1.208 1_655 S
C123 O135 1.265 . S
O124 C123 1.208 1_455 S
O125 Co119 2.058 1_455 S
O125 C151 1.269 . S
O126 Co118 2.074 . S
O126 C151 1.257 . S
H127 C152 0.930 . S
H128 C158 0.930 . S
O129 Co118 2.093 . S
O129 C121 1.224 1_455 S
H130 C162 0.929 . S
H131 C164 0.930 1_545 S
H132 C165 0.930 . S
H133 C163 0.929 . S
H134 C166 0.928 . S
O135 Co119 2.057 . S
O135 C123 1.265 . S
H136 C155 0.929 . S
H137 C156 0.929 . S
H138 C168 0.931 1_545 S
H139 C160 0.929 . S
H140 C169 0.930 . S
H141 C161 0.931 . S
O142 Co118 2.097 1_655 S
O142 C170 1.214 . S
H143 C171 0.929 . S
H144 C172 0.929 . S
H145 C173 0.930 . S
H146 C174 0.929 . S
H147 C176 0.930 . S
H148 C153 0.930 . S
H149 C157 0.930 . S
O150 Co119 2.037 . S
O150 C170 1.234 . S
C151 O125 1.269 . S
C151 O126 1.257 . S
C152 H127 0.930 . S
C152 C155 1.388 . S
C152 C157 1.418 . S
C153 H148 0.930 . S
C153 C156 1.404 . S
C153 C157 1.353 . S
N154 Co119 2.145 . S
N154 C155 1.397 . S
N154 C156 1.334 . S
C155 H136 0.929 . S
C155 C152 1.388 . S
C155 N154 1.397 . S
C156 H137 0.929 . S
C156 C153 1.404 . S
C156 N154 1.334 . S
C157 H149 0.930 . S
C157 C152 1.418 . S
C157 C153 1.353 . S
C158 H128 0.930 . S
C158 N159 1.330 . S
C158 C160 1.446 . S
N159 Co118 2.151 . S
N159 C158 1.330 . S
N159 C163 1.418 . S
C160 H139 0.929 . S
C160 C158 1.446 . S
C160 C161 1.332 . S
C161 H141 0.931 . S
C161 C160 1.332 . S
C161 C162 1.267 . S
C162 H130 0.929 . S
C162 C161 1.267 . S
C162 C163 1.251 . S
C163 H133 0.929 . S
C163 N159 1.418 . S
C163 C162 1.251 . S
C164 H131 0.930 1_565 S
C164 C166 1.406 . S
C164 C169 1.261 1_565 S
C165 H132 0.930 . S
C165 N167 1.325 . S
C165 C168 1.357 . S
C166 H134 0.928 . S
C166 C164 1.406 . S
C166 N167 1.261 . S
N167 Co118 2.214 . S
N167 C165 1.325 . S
N167 C166 1.261 . S
C168 H138 0.931 1_565 S
C168 C165 1.357 . S
C168 C169 1.312 1_565 S
C169 H140 0.930 . S
C169 C164 1.261 1_545 S
C169 C168 1.312 1_545 S
C170 O142 1.214 . S
C170 O150 1.234 . S
C171 H143 0.929 . S
C171 C174 1.391 . S
C171 C176 1.391 . S
C172 H144 0.929 . S
C172 C173 1.390 . S
C172 N175 1.391 . S
C173 H145 0.930 . S
C173 C172 1.390 . S
C173 C174 1.392 . S
C174 H146 0.929 . S
C174 C171 1.391 . S
C174 C173 1.392 . S
N175 Co119 2.257 . S
N175 C172 1.391 . S
N175 C176 1.388 . S
C176 H147 0.930 . S
C176 C171 1.391 . S
C176 N175 1.388 . S
Co177 O179 2.170 . S
Co177 O185 2.074 . S
Co177 O188 2.093 . S
Co177 O201 2.097 1_655 S
Co177 N218 2.151 . S
Co177 N226 2.214 . S
Co178 O179 2.132 1_455 S
Co178 O184 2.058 1_455 S
Co178 O194 2.057 . S
Co178 O209 2.037 . S
Co178 N213 2.145 . S
Co178 N234 2.257 . S
O179 Co177 2.170 . S
O179 Co178 2.132 1_655 S
C180 O181 1.278 . S
C180 O188 1.224 1_455 S
O181 C180 1.278 . S
C182 O183 1.245 1_455 S
C182 O194 1.232 . S
O183 C182 1.245 1_655 S
O184 Co178 2.058 1_655 S
O184 C210 1.269 . S
O185 Co177 2.074 . S
O185 C210 1.257 . S
H186 C211 0.930 . S
H187 C217 0.930 . S
O188 Co177 2.093 . S
O188 C180 1.224 1_655 S
H189 C221 0.929 . S
H190 C223 0.930 . S
H191 C224 0.930 . S
H192 C222 0.929 . S
H193 C225 0.928 . S
O194 Co178 2.057 . S
O194 C182 1.232 . S
H195 C214 0.929 . S
H196 C215 0.929 . S
H197 C227 0.931 . S
H198 C219 0.929 . S
H199 C228 0.930 . S
H200 C220 0.931 . S
O201 Co177 2.097 1_455 S
O201 C229 1.214 . S
H202 C230 0.929 . S
H203 C231 0.929 . S
H204 C232 0.930 . S
H205 C233 0.929 . S
H206 C235 0.930 . S
H207 C212 0.930 . S
H208 C216 0.930 . S
O209 Co178 2.037 . S
O209 C229 1.234 . S
C210 O184 1.269 . S
C210 O185 1.257 . S
C211 H186 0.930 . S
C211 C214 1.388 . S
C211 C216 1.418 . S
C212 H207 0.930 . S
C212 C215 1.404 . S
C212 C216 1.353 . S
N213 Co178 2.145 . S
N213 C214 1.397 . S
N213 C215 1.334 . S
C214 H195 0.929 . S
C214 C211 1.388 . S
C214 N213 1.397 . S
C215 H196 0.929 . S
C215 C212 1.404 . S
C215 N213 1.334 . S
C216 H208 0.930 . S
C216 C211 1.418 . S
C216 C212 1.353 . S
C217 H187 0.930 . S
C217 N218 1.330 . S
C217 C219 1.446 . S
N218 Co177 2.151 . S
N218 C217 1.330 . S
N218 C222 1.418 . S
C219 H198 0.929 . S
C219 C217 1.446 . S
C219 C220 1.332 . S
C220 H200 0.931 . S
C220 C219 1.332 . S
C220 C221 1.267 . S
C221 H189 0.929 . S
C221 C220 1.267 . S
C221 C222 1.251 . S
C222 H192 0.929 . S
C222 N218 1.418 . S
C222 C221 1.251 . S
C223 H190 0.930 . S
C223 C225 1.406 . S
C223 C228 1.261 . S
C224 H191 0.930 . S
C224 N226 1.325 . S
C224 C227 1.357 . S
C225 H193 0.928 . S
C225 C223 1.406 . S
C225 N226 1.261 . S
N226 Co177 2.214 . S
N226 C224 1.325 . S
N226 C225 1.261 . S
C227 H197 0.931 . S
C227 C224 1.357 . S
C227 C228 1.312 . S
C228 H199 0.930 . S
C228 C223 1.261 . S
C228 C227 1.312 . S
C229 O201 1.214 . S
C229 O209 1.234 . S
C230 H202 0.929 . S
C230 C233 1.391 . S
C230 C235 1.391 . S
C231 H203 0.929 . S
C231 C232 1.390 . S
C231 N234 1.391 . S
C232 H204 0.930 . S
C232 C231 1.390 . S
C232 C233 1.392 . S
C233 H205 0.929 . S
C233 C230 1.391 . S
C233 C232 1.392 . S
N234 Co178 2.257 . S
N234 C231 1.391 . S
N234 C235 1.388 . S
C235 H206 0.930 . S
C235 C230 1.391 . S
C235 N234 1.388 . S
Co236 O238 2.161 . S
Co236 O244 2.074 . S
Co236 O247 2.093 . S
Co236 O260 2.097 1_545 S
Co236 N277 2.151 . S
Co236 N285 2.214 . S
Co237 O238 2.142 1_565 S
Co237 O243 2.058 1_565 S
Co237 O253 2.057 . S
Co237 O268 2.037 . S
Co237 N272 2.145 . S
Co237 N293 2.257 . S
O238 Co236 2.161 . S
O238 Co237 2.142 1_545 S
C239 O240 1.278 . S
C239 O247 1.224 1_565 S
O240 C239 1.278 . S
C241 O242 1.238 1_565 S
C241 O253 1.237 . S
O242 C241 1.238 1_545 S
O243 Co237 2.058 1_545 S
O243 C269 1.269 . S
O244 Co236 2.074 . S
O244 C269 1.257 . S
H245 C270 0.930 . S
H246 C276 0.930 . S
O247 Co236 2.093 . S
O247 C239 1.224 1_545 S
H248 C280 0.929 . S
H249 C282 0.930 . S
H250 C283 0.930 . S
H251 C281 0.929 . S
H252 C284 0.928 . S
O253 Co237 2.057 . S
O253 C241 1.237 . S
H254 C273 0.929 . S
H255 C274 0.929 . S
H256 C286 0.931 . S
H257 C278 0.929 . S
H258 C287 0.930 . S
H259 C279 0.931 . S
O260 Co236 2.097 1_565 S
O260 C288 1.214 . S
H261 C289 0.929 . S
H262 C290 0.929 . S
H263 C291 0.930 . S
H264 C292 0.929 . S
H265 C294 0.930 . S
H266 C271 0.930 . S
H267 C275 0.930 . S
O268 Co237 2.037 . S
O268 C288 1.234 . S
C269 O243 1.269 . S
C269 O244 1.257 . S
C270 H245 0.930 . S
C270 C273 1.388 . S
C270 C275 1.418 . S
C271 H266 0.930 . S
C271 C274 1.404 . S
C271 C275 1.353 . S
N272 Co237 2.145 . S
N272 C273 1.397 . S
N272 C274 1.334 . S
C273 H254 0.929 . S
C273 C270 1.388 . S
C273 N272 1.397 . S
C274 H255 0.929 . S
C274 C271 1.404 . S
C274 N272 1.334 . S
C275 H267 0.930 . S
C275 C270 1.418 . S
C275 C271 1.353 . S
C276 H246 0.930 . S
C276 N277 1.330 . S
C276 C278 1.446 . S
N277 Co236 2.151 . S
N277 C276 1.330 . S
N277 C281 1.418 . S
C278 H257 0.929 . S
C278 C276 1.446 . S
C278 C279 1.332 . S
C279 H259 0.931 . S
C279 C278 1.332 . S
C279 C280 1.267 . S
C280 H248 0.929 . S
C280 C279 1.267 . S
C280 C281 1.251 . S
C281 H251 0.929 . S
C281 N277 1.418 . S
C281 C280 1.251 . S
C282 H249 0.930 . S
C282 C284 1.406 1_556 S
C282 C287 1.261 . S
C283 H250 0.930 . S
C283 N285 1.325 . S
C283 C286 1.357 1_554 S
C284 H252 0.928 . S
C284 C282 1.406 1_554 S
C284 N285 1.261 . S
N285 Co236 2.214 . S
N285 C283 1.325 . S
N285 C284 1.261 . S
C286 H256 0.931 . S
C286 C283 1.357 1_556 S
C286 C287 1.312 . S
C287 H258 0.930 . S
C287 C282 1.261 . S
C287 C286 1.312 . S
C288 O260 1.214 . S
C288 O268 1.234 . S
C289 H261 0.929 . S
C289 C292 1.391 . S
C289 C294 1.391 . S
C290 H262 0.929 . S
C290 C291 1.390 . S
C290 N293 1.391 . S
C291 H263 0.930 . S
C291 C290 1.390 . S
C291 C292 1.392 . S
C292 H264 0.929 . S
C292 C289 1.391 . S
C292 C291 1.392 . S
N293 Co237 2.257 . S
N293 C290 1.391 . S
N293 C294 1.388 . S
C294 H265 0.930 . S
C294 C289 1.391 . S
C294 N293 1.388 . S
Co295 O297 2.143 . S
Co295 O303 2.074 . S
Co295 O306 2.093 . S
Co295 O319 2.097 . S
Co295 N336 2.151 . S
Co295 N344 2.214 . S
Co296 O297 2.160 . S
Co296 O302 2.058 . S
Co296 O312 2.057 . S
Co296 O327 2.037 . S
Co296 N331 2.145 . S
Co296 N352 2.257 . S
O297 Co295 2.143 . S
O297 Co296 2.160 . S
C298 O299 1.278 . S
C298 O306 1.224 . S
O299 C298 1.278 . S
C300 O301 1.245 . S
C300 O312 1.232 . S
O301 C300 1.245 . S
O302 Co296 2.058 . S
O302 C328 1.269 . S
O303 Co295 2.074 . S
O303 C328 1.257 . S
H304 C329 0.930 . S
H305 C335 0.930 . S
O306 Co295 2.093 . S
O306 C298 1.224 . S
H307 C339 0.929 . S
H308 C341 0.930 . S
H309 C342 0.930 . S
H310 C340 0.929 . S
H311 C343 0.928 . S
O312 Co296 2.057 . S
O312 C300 1.232 . S
H313 C332 0.929 . S
H314 C333 0.929 . S
H315 C345 0.925 1_556 S
H316 C337 0.929 . S
H317 C346 0.930 . S
H318 C338 0.931 . S
O319 Co295 2.097 . S
O319 C347 1.214 . S
H320 C348 0.929 . S
H321 C349 0.929 . S
H322 C350 0.930 . S
H323 C351 0.929 . S
H324 C353 0.930 . S
H325 C330 0.930 . S
H326 C334 0.930 . S
O327 Co296 2.037 . S
O327 C347 1.234 . S
C328 O302 1.269 . S
C328 O303 1.257 . S
C329 H304 0.930 . S
C329 C332 1.388 . S
C329 C334 1.418 . S
C330 H325 0.930 . S
C330 C333 1.404 . S
C330 C334 1.353 . S
N331 Co296 2.145 . S
N331 C332 1.397 . S
N331 C333 1.334 . S
C332 H313 0.929 . S
C332 C329 1.388 . S
C332 N331 1.397 . S
C333 H314 0.929 . S
C333 C330 1.404 . S
C333 N331 1.334 . S
C334 H326 0.930 . S
C334 C329 1.418 . S
C334 C330 1.353 . S
C335 H305 0.930 . S
C335 N336 1.330 . S
C335 C337 1.446 . S
N336 Co295 2.151 . S
N336 C335 1.330 . S
N336 C340 1.418 . S
C337 H316 0.929 . S
C337 C335 1.446 . S
C337 C338 1.332 . S
C338 H318 0.931 . S
C338 C337 1.332 . S
C338 C339 1.267 . S
C339 H307 0.929 . S
C339 C338 1.267 . S
C339 C340 1.251 . S
C340 H310 0.929 . S
C340 N336 1.418 . S
C340 C339 1.251 . S
C341 H308 0.930 . S
C341 C343 1.406 1_556 S
C341 C346 1.261 . S
C342 H309 0.930 . S
C342 N344 1.325 . S
C342 C345 1.369 . S
C343 H311 0.928 . S
C343 C341 1.406 1_554 S
C343 N344 1.261 . S
N344 Co295 2.214 . S
N344 C342 1.325 . S
N344 C343 1.261 . S
C345 H315 0.925 1_554 S
C345 C342 1.369 . S
C345 C346 1.306 1_554 S
C346 H317 0.930 . S
C346 C341 1.261 . S
C346 C345 1.306 1_556 S
C347 O319 1.214 . S
C347 O327 1.234 . S
C348 H320 0.929 . S
C348 C351 1.391 . S
C348 C353 1.391 . S
C349 H321 0.929 . S
C349 C350 1.390 . S
C349 N352 1.391 . S
C350 H322 0.930 . S
C350 C349 1.390 . S
C350 C351 1.392 . S
C351 H323 0.929 . S
C351 C348 1.391 . S
C351 C350 1.392 . S
N352 Co296 2.257 . S
N352 C349 1.391 . S
N352 C353 1.388 . S
C353 H324 0.930 . S
C353 C348 1.391 . S
C353 N352 1.388 . S
Co354 O356 2.162 . S
Co354 O362 2.074 . S
Co354 O365 2.093 . S
Co354 O378 2.097 1_565 S
Co354 N395 2.151 . S
Co354 N403 2.214 . S
Co355 O356 2.142 1_545 S
Co355 O361 2.058 1_545 S
Co355 O371 2.057 . S
Co355 O386 2.037 . S
Co355 N390 2.145 . S
Co355 N411 2.257 . S
O356 Co354 2.162 . S
O356 Co355 2.142 1_565 S
C357 O358 1.278 . S
C357 O365 1.224 1_545 S
O358 C357 1.278 . S
C359 O360 1.245 1_545 S
C359 O371 1.232 . S
O360 C359 1.245 1_565 S
O361 Co355 2.058 1_565 S
O361 C387 1.269 . S
O362 Co354 2.074 . S
O362 C387 1.257 . S
H363 C388 0.930 . S
H364 C394 0.930 . S
O365 Co354 2.093 . S
O365 C357 1.224 1_565 S
H366 C398 0.929 . S
H367 C400 0.930 . S
H368 C401 0.930 . S
H369 C399 0.929 . S
H370 C402 0.928 . S
O371 Co355 2.057 . S
O371 C359 1.232 . S
H372 C391 0.929 . S
H373 C392 0.929 . S
H374 C404 0.931 . S
H375 C396 0.929 . S
H376 C405 0.930 . S
H377 C397 0.931 . S
O378 Co354 2.097 1_545 S
O378 C406 1.214 . S
H379 C407 0.929 . S
H380 C408 0.929 . S
H381 C409 0.930 . S
H382 C410 0.929 . S
H383 C412 0.930 . S
H384 C389 0.930 . S
H385 C393 0.930 . S
O386 Co355 2.037 . S
O386 C406 1.234 . S
C387 O361 1.269 . S
C387 O362 1.257 . S
C388 H363 0.930 . S
C388 C391 1.388 . S
C388 C393 1.418 . S
C389 H384 0.930 . S
C389 C392 1.404 . S
C389 C393 1.353 . S
N390 Co355 2.145 . S
N390 C391 1.397 . S
N390 C392 1.334 . S
C391 H372 0.929 . S
C391 C388 1.388 . S
C391 N390 1.397 . S
C392 H373 0.929 . S
C392 C389 1.404 . S
C392 N390 1.334 . S
C393 H385 0.930 . S
C393 C388 1.418 . S
C393 C389 1.353 . S
C394 H364 0.930 . S
C394 N395 1.330 . S
C394 C396 1.446 . S
N395 Co354 2.151 . S
N395 C394 1.330 . S
N395 C399 1.418 . S
C396 H375 0.929 . S
C396 C394 1.446 . S
C396 C397 1.332 . S
C397 H377 0.931 . S
C397 C396 1.332 . S
C397 C398 1.267 . S
C398 H366 0.929 . S
C398 C397 1.267 . S
C398 C399 1.251 . S
C399 H369 0.929 . S
C399 N395 1.418 . S
C399 C398 1.251 . S
C400 H367 0.930 . S
C400 C402 1.406 . S
C400 C405 1.261 . S
C401 H368 0.930 . S
C401 N403 1.325 . S
C401 C404 1.357 . S
C402 H370 0.928 . S
C402 C400 1.406 . S
C402 N403 1.261 . S
N403 Co354 2.214 . S
N403 C401 1.325 . S
N403 C402 1.261 . S
C404 H374 0.931 . S
C404 C401 1.357 . S
C404 C405 1.312 . S
C405 H376 0.930 . S
C405 C400 1.261 . S
C405 C404 1.312 . S
C406 O378 1.214 . S
C406 O386 1.234 . S
C407 H379 0.929 . S
C407 C410 1.391 . S
C407 C412 1.391 . S
C408 H380 0.929 . S
C408 C409 1.390 . S
C408 N411 1.391 . S
C409 H381 0.930 . S
C409 C408 1.390 . S
C409 C410 1.392 . S
C410 H382 0.929 . S
C410 C407 1.391 . S
C410 C409 1.392 . S
N411 Co355 2.257 . S
N411 C408 1.391 . S
N411 C412 1.388 . S
C412 H383 0.930 . S
C412 C407 1.391 . S
C412 N411 1.388 . S
Co413 O415 2.143 . S
Co413 O421 2.074 . S
Co413 O424 2.093 . S
Co413 O437 2.097 . S
Co413 N454 2.151 . S
Co413 N462 2.214 . S
Co414 O415 2.160 . S
Co414 O420 2.058 . S
Co414 O430 2.057 . S
Co414 O445 2.037 . S
Co414 N449 2.145 . S
Co414 N470 2.257 . S
O415 Co413 2.143 . S
O415 Co414 2.160 . S
C416 O417 1.278 . S
C416 O424 1.224 . S
O417 C416 1.278 . S
C418 O419 1.245 . S
C418 O430 1.232 . S
O419 C418 1.245 . S
O420 Co414 2.058 . S
O420 C446 1.269 . S
O421 Co413 2.074 . S
O421 C446 1.257 . S
H422 C447 0.930 . S
H423 C453 0.930 . S
O424 Co413 2.093 . S
O424 C416 1.224 . S
H425 C457 0.929 . S
H426 C459 0.930 . S
H427 C460 0.930 . S
H428 C458 0.929 . S
H429 C461 0.928 . S
O430 Co414 2.057 . S
O430 C418 1.232 . S
H431 C450 0.929 . S
H432 C451 0.929 . S
H433 C463 0.931 . S
H434 C455 0.929 . S
H435 C464 0.930 . S
H436 C456 0.931 . S
O437 Co413 2.097 . S
O437 C465 1.214 . S
H438 C466 0.929 . S
H439 C467 0.929 . S
H440 C468 0.930 . S
H441 C469 0.929 . S
H442 C471 0.930 . S
H443 C448 0.930 . S
H444 C452 0.930 . S
O445 Co414 2.037 . S
O445 C465 1.234 . S
C446 O420 1.269 . S
C446 O421 1.257 . S
C447 H422 0.930 . S
C447 C450 1.388 . S
C447 C452 1.418 . S
C448 H443 0.930 . S
C448 C451 1.404 . S
C448 C452 1.353 . S
N449 Co414 2.145 . S
N449 C450 1.397 . S
N449 C451 1.334 . S
C450 H431 0.929 . S
C450 C447 1.388 . S
C450 N449 1.397 . S
C451 H432 0.929 . S
C451 C448 1.404 . S
C451 N449 1.334 . S
C452 H444 0.930 . S
C452 C447 1.418 . S
C452 C448 1.353 . S
C453 H423 0.930 . S
C453 N454 1.330 . S
C453 C455 1.446 . S
N454 Co413 2.151 . S
N454 C453 1.330 . S
N454 C458 1.418 . S
C455 H434 0.929 . S
C455 C453 1.446 . S
C455 C456 1.332 . S
C456 H436 0.931 . S
C456 C455 1.332 . S
C456 C457 1.267 . S
C457 H425 0.929 . S
C457 C456 1.267 . S
C457 C458 1.251 . S
C458 H428 0.929 . S
C458 N454 1.418 . S
C458 C457 1.251 . S
C459 H426 0.930 . S
C459 C461 1.406 . S
C459 C464 1.261 . S
C460 H427 0.930 . S
C460 N462 1.325 . S
C460 C463 1.357 . S
C461 H429 0.928 . S
C461 C459 1.406 . S
C461 N462 1.261 . S
N462 Co413 2.214 . S
N462 C460 1.325 . S
N462 C461 1.261 . S
C463 H433 0.931 . S
C463 C460 1.357 . S
C463 C464 1.312 . S
C464 H435 0.930 . S
C464 C459 1.261 . S
C464 C463 1.312 . S
C465 O437 1.214 . S
C465 O445 1.234 . S
C466 H438 0.929 . S
C466 C469 1.391 . S
C466 C471 1.391 . S
C467 H439 0.929 . S
C467 C468 1.390 . S
C467 N470 1.391 . S
C468 H440 0.930 . S
C468 C467 1.390 . S
C468 C469 1.392 . S
C469 H441 0.929 . S
C469 C466 1.391 . S
C469 C468 1.392 . S
N470 Co414 2.257 . S
N470 C467 1.391 . S
N470 C471 1.388 . S
C471 H442 0.930 . S
C471 C466 1.391 . S
C471 N470 1.388 . S
Co472 O474 2.161 . S
Co472 O480 2.074 . S
Co472 O483 2.093 . S
Co472 O496 2.097 1_554 S
Co472 N513 2.151 . S
Co472 N521 2.214 . S
Co473 O474 2.142 1_556 S
Co473 O479 2.058 1_556 S
Co473 O489 2.057 . S
Co473 O504 2.037 . S
Co473 N508 2.145 . S
Co473 N529 2.257 . S
O474 Co472 2.161 . S
O474 Co473 2.142 1_554 S
C475 O476 1.278 . S
C475 O483 1.224 1_556 S
O476 C475 1.278 . S
C477 O478 1.238 1_556 S
C477 O489 1.237 . S
O478 C477 1.238 1_554 S
O479 Co473 2.058 1_554 S
O479 C505 1.269 . S
O480 Co472 2.074 . S
O480 C505 1.257 . S
H481 C506 0.930 . S
H482 C512 0.930 . S
O483 Co472 2.093 . S
O483 C475 1.224 1_554 S
H484 C516 0.929 . S
H485 C518 0.930 . S
H486 C519 0.930 . S
H487 C517 0.929 . S
H488 C520 0.928 . S
O489 Co473 2.057 . S
O489 C477 1.237 . S
H490 C509 0.929 . S
H491 C510 0.929 . S
H492 C522 0.931 . S
H493 C514 0.929 . S
H494 C523 0.930 . S
H495 C515 0.931 . S
O496 Co472 2.097 1_556 S
O496 C524 1.214 . S
H497 C525 0.929 . S
H498 C526 0.929 . S
H499 C527 0.930 . S
H500 C528 0.929 . S
H501 C530 0.930 . S
H502 C507 0.930 . S
H503 C511 0.930 . S
O504 Co473 2.037 . S
O504 C524 1.234 . S
C505 O479 1.269 . S
C505 O480 1.257 . S
C506 H481 0.930 . S
C506 C509 1.388 . S
C506 C511 1.418 . S
C507 H502 0.930 . S
C507 C510 1.404 . S
C507 C511 1.353 . S
N508 Co473 2.145 . S
N508 C509 1.397 . S
N508 C510 1.334 . S
C509 H490 0.929 . S
C509 C506 1.388 . S
C509 N508 1.397 . S
C510 H491 0.929 . S
C510 C507 1.404 . S
C510 N508 1.334 . S
C511 H503 0.930 . S
C511 C506 1.418 . S
C511 C507 1.353 . S
C512 H482 0.930 . S
C512 N513 1.330 . S
C512 C514 1.446 . S
N513 Co472 2.151 . S
N513 C512 1.330 . S
N513 C517 1.418 . S
C514 H493 0.929 . S
C514 C512 1.446 . S
C514 C515 1.332 . S
C515 H495 0.931 . S
C515 C514 1.332 . S
C515 C516 1.267 . S
C516 H484 0.929 . S
C516 C515 1.267 . S
C516 C517 1.251 . S
C517 H487 0.929 . S
C517 N513 1.418 . S
C517 C516 1.251 . S
C518 H485 0.930 . S
C518 C520 1.406 1_655 S
C518 C523 1.261 . S
C519 H486 0.930 . S
C519 N521 1.325 . S
C519 C522 1.357 1_455 S
C520 H488 0.928 . S
C520 C518 1.406 1_455 S
C520 N521 1.261 . S
N521 Co472 2.214 . S
N521 C519 1.325 . S
N521 C520 1.261 . S
C522 H492 0.931 . S
C522 C519 1.357 1_655 S
C522 C523 1.312 . S
C523 H494 0.930 . S
C523 C518 1.261 . S
C523 C522 1.312 . S
C524 O496 1.214 . S
C524 O504 1.234 . S
C525 H497 0.929 . S
C525 C528 1.391 . S
C525 C530 1.391 . S
C526 H498 0.929 . S
C526 C527 1.390 . S
C526 N529 1.391 . S
C527 H499 0.930 . S
C527 C526 1.390 . S
C527 C528 1.392 . S
C528 H500 0.929 . S
C528 C525 1.391 . S
C528 C527 1.392 . S
N529 Co473 2.257 . S
N529 C526 1.391 . S
N529 C530 1.388 . S
C530 H501 0.930 . S
C530 C525 1.391 . S
C530 N529 1.388 . S
Co531 O533 2.143 . S
Co531 O539 2.074 . S
Co531 O542 2.093 . S
Co531 O555 2.097 . S
Co531 N572 2.151 . S
Co531 N580 2.214 . S
Co532 O533 2.160 . S
Co532 O538 2.058 . S
Co532 O548 2.057 . S
Co532 O563 2.037 . S
Co532 N567 2.145 . S
Co532 N588 2.257 . S
O533 Co531 2.143 . S
O533 Co532 2.160 . S
C534 O535 1.278 . S
C534 O542 1.224 . S
O535 C534 1.278 . S
C536 O537 1.245 . S
C536 O548 1.232 . S
O537 C536 1.245 . S
O538 Co532 2.058 . S
O538 C564 1.269 . S
O539 Co531 2.074 . S
O539 C564 1.257 . S
H540 C565 0.930 . S
H541 C571 0.930 . S
O542 Co531 2.093 . S
O542 C534 1.224 . S
H543 C575 0.929 . S
H544 C577 0.930 . S
H545 C578 0.930 . S
H546 C576 0.929 . S
H547 C579 0.928 . S
O548 Co532 2.057 . S
O548 C536 1.232 . S
H549 C568 0.929 . S
H550 C569 0.929 . S
H551 C581 0.925 1_655 S
H552 C573 0.929 . S
H553 C582 0.930 . S
H554 C574 0.931 . S
O555 Co531 2.097 . S
O555 C583 1.214 . S
H556 C584 0.929 . S
H557 C585 0.929 . S
H558 C586 0.930 . S
H559 C587 0.929 . S
H560 C589 0.930 . S
H561 C566 0.930 . S
H562 C570 0.930 . S
O563 Co532 2.037 . S
O563 C583 1.234 . S
C564 O538 1.269 . S
C564 O539 1.257 . S
C565 H540 0.930 . S
C565 C568 1.388 . S
C565 C570 1.418 . S
C566 H561 0.930 . S
C566 C569 1.404 . S
C566 C570 1.353 . S
N567 Co532 2.145 . S
N567 C568 1.397 . S
N567 C569 1.334 . S
C568 H549 0.929 . S
C568 C565 1.388 . S
C568 N567 1.397 . S
C569 H550 0.929 . S
C569 C566 1.404 . S
C569 N567 1.334 . S
C570 H562 0.930 . S
C570 C565 1.418 . S
C570 C566 1.353 . S
C571 H541 0.930 . S
C571 N572 1.330 . S
C571 C573 1.446 . S
N572 Co531 2.151 . S
N572 C571 1.330 . S
N572 C576 1.418 . S
C573 H552 0.929 . S
C573 C571 1.446 . S
C573 C574 1.332 . S
C574 H554 0.931 . S
C574 C573 1.332 . S
C574 C575 1.267 . S
C575 H543 0.929 . S
C575 C574 1.267 . S
C575 C576 1.251 . S
C576 H546 0.929 . S
C576 N572 1.418 . S
C576 C575 1.251 . S
C577 H544 0.930 . S
C577 C579 1.406 1_655 S
C577 C582 1.261 . S
C578 H545 0.930 . S
C578 N580 1.325 . S
C578 C581 1.369 . S
C579 H547 0.928 . S
C579 C577 1.406 1_455 S
C579 N580 1.261 . S
N580 Co531 2.214 . S
N580 C578 1.325 . S
N580 C579 1.261 . S
C581 H551 0.925 1_455 S
C581 C578 1.369 . S
C581 C582 1.306 1_455 S
C582 H553 0.930 . S
C582 C577 1.261 . S
C582 C581 1.306 1_655 S
C583 O555 1.214 . S
C583 O563 1.234 . S
C584 H556 0.929 . S
C584 C587 1.391 . S
C584 C589 1.391 . S
C585 H557 0.929 . S
C585 C586 1.390 . S
C585 N588 1.391 . S
C586 H558 0.930 . S
C586 C585 1.390 . S
C586 C587 1.392 . S
C587 H559 0.929 . S
C587 C584 1.391 . S
C587 C586 1.392 . S
N588 Co532 2.257 . S
N588 C585 1.391 . S
N588 C589 1.388 . S
C589 H560 0.930 . S
C589 C584 1.391 . S
C589 N588 1.388 . S
Co590 O592 2.143 . S
Co590 O598 2.074 . S
Co590 O601 2.093 . S
Co590 O614 2.097 . S
Co590 N631 2.151 . S
Co590 N639 2.214 . S
Co591 O592 2.160 . S
Co591 O597 2.058 . S
Co591 O607 2.057 . S
Co591 O622 2.037 . S
Co591 N626 2.145 . S
Co591 N647 2.257 . S
O592 Co590 2.143 . S
O592 Co591 2.160 . S
C593 O594 1.278 . S
C593 O601 1.224 . S
O594 C593 1.278 . S
C595 O596 1.245 . S
C595 O607 1.232 . S
O596 C595 1.245 . S
O597 Co591 2.058 . S
O597 C623 1.269 . S
O598 Co590 2.074 . S
O598 C623 1.257 . S
H599 C624 0.930 . S
H600 C630 0.930 . S
O601 Co590 2.093 . S
O601 C593 1.224 . S
H602 C634 0.929 . S
H603 C636 0.930 1_455 S
H604 C637 0.930 . S
H605 C635 0.929 . S
H606 C638 0.928 . S
O607 Co591 2.057 . S
O607 C595 1.232 . S
H608 C627 0.929 . S
H609 C628 0.929 . S
H610 C640 0.931 1_455 S
H611 C632 0.929 . S
H612 C641 0.930 . S
H613 C633 0.931 . S
O614 Co590 2.097 . S
O614 C642 1.214 . S
H615 C643 0.929 . S
H616 C644 0.929 . S
H617 C645 0.930 . S
H618 C646 0.929 . S
H619 C648 0.930 . S
H620 C625 0.930 . S
H621 C629 0.930 . S
O622 Co591 2.037 . S
O622 C642 1.234 . S
C623 O597 1.269 . S
C623 O598 1.257 . S
C624 H599 0.930 . S
C624 C627 1.388 . S
C624 C629 1.418 . S
C625 H620 0.930 . S
C625 C628 1.404 . S
C625 C629 1.353 . S
N626 Co591 2.145 . S
N626 C627 1.397 . S
N626 C628 1.334 . S
C627 H608 0.929 . S
C627 C624 1.388 . S
C627 N626 1.397 . S
C628 H609 0.929 . S
C628 C625 1.404 . S
C628 N626 1.334 . S
C629 H621 0.930 . S
C629 C624 1.418 . S
C629 C625 1.353 . S
C630 H600 0.930 . S
C630 N631 1.330 . S
C630 C632 1.446 . S
N631 Co590 2.151 . S
N631 C630 1.330 . S
N631 C635 1.418 . S
C632 H611 0.929 . S
C632 C630 1.446 . S
C632 C633 1.332 . S
C633 H613 0.931 . S
C633 C632 1.332 . S
C633 C634 1.267 . S
C634 H602 0.929 . S
C634 C633 1.267 . S
C634 C635 1.251 . S
C635 H605 0.929 . S
C635 N631 1.418 . S
C635 C634 1.251 . S
C636 H603 0.930 1_655 S
C636 C638 1.406 . S
C636 C641 1.261 1_655 S
C637 H604 0.930 . S
C637 N639 1.325 . S
C637 C640 1.357 . S
C638 H606 0.928 . S
C638 C636 1.406 . S
C638 N639 1.261 . S
N639 Co590 2.214 . S
N639 C637 1.325 . S
N639 C638 1.261 . S
C640 H610 0.931 1_655 S
C640 C637 1.357 . S
C640 C641 1.312 1_655 S
C641 H612 0.930 . S
C641 C636 1.261 1_455 S
C641 C640 1.312 1_455 S
C642 O614 1.214 . S
C642 O622 1.234 . S
C643 H615 0.929 . S
C643 C646 1.391 . S
C643 C648 1.391 . S
C644 H616 0.929 . S
C644 C645 1.390 . S
C644 N647 1.391 . S
C645 H617 0.930 . S
C645 C644 1.390 . S
C645 C646 1.392 . S
C646 H618 0.929 . S
C646 C643 1.391 . S
C646 C645 1.392 . S
N647 Co591 2.257 . S
N647 C644 1.391 . S
N647 C648 1.388 . S
C648 H619 0.930 . S
C648 C643 1.391 . S
C648 N647 1.388 . S
Co649 O651 2.143 . S
Co649 O657 2.074 . S
Co649 O660 2.093 . S
Co649 O673 2.097 . S
Co649 N690 2.151 . S
Co649 N698 2.214 . S
Co650 O651 2.160 . S
Co650 O656 2.058 . S
Co650 O666 2.057 . S
Co650 O681 2.037 . S
Co650 N685 2.145 . S
Co650 N706 2.257 . S
O651 Co649 2.143 . S
O651 Co650 2.160 . S
C652 O653 1.278 . S
C652 O660 1.224 . S
O653 C652 1.278 . S
C654 O655 1.245 . S
C654 O666 1.232 . S
O655 C654 1.245 . S
O656 Co650 2.058 . S
O656 C682 1.269 . S
O657 Co649 2.074 . S
O657 C682 1.257 . S
H658 C683 0.930 . S
H659 C689 0.930 . S
O660 Co649 2.093 . S
O660 C652 1.224 . S
H661 C693 0.929 . S
H662 C695 0.930 . S
H663 C696 0.930 . S
H664 C694 0.929 . S
H665 C697 0.928 . S
O666 Co650 2.057 . S
O666 C654 1.232 . S
H667 C686 0.929 . S
H668 C687 0.929 . S
H669 C699 0.931 . S
H670 C691 0.929 . S
H671 C700 0.930 . S
H672 C692 0.931 . S
O673 Co649 2.097 . S
O673 C701 1.214 . S
H674 C702 0.929 . S
H675 C703 0.929 . S
H676 C704 0.930 . S
H677 C705 0.929 . S
H678 C707 0.930 . S
H679 C684 0.930 . S
H680 C688 0.930 . S
O681 Co650 2.037 . S
O681 C701 1.234 . S
C682 O656 1.269 . S
C682 O657 1.257 . S
C683 H658 0.930 . S
C683 C686 1.388 . S
C683 C688 1.418 . S
C684 H679 0.930 . S
C684 C687 1.404 . S
C684 C688 1.353 . S
N685 Co650 2.145 . S
N685 C686 1.397 . S
N685 C687 1.334 . S
C686 H667 0.929 . S
C686 C683 1.388 . S
C686 N685 1.397 . S
C687 H668 0.929 . S
C687 C684 1.404 . S
C687 N685 1.334 . S
C688 H680 0.930 . S
C688 C683 1.418 . S
C688 C684 1.353 . S
C689 H659 0.930 . S
C689 N690 1.330 . S
C689 C691 1.446 . S
N690 Co649 2.151 . S
N690 C689 1.330 . S
N690 C694 1.418 . S
C691 H670 0.929 . S
C691 C689 1.446 . S
C691 C692 1.332 . S
C692 H672 0.931 . S
C692 C691 1.332 . S
C692 C693 1.267 . S
C693 H661 0.929 . S
C693 C692 1.267 . S
C693 C694 1.251 . S
C694 H664 0.929 . S
C694 N690 1.418 . S
C694 C693 1.251 . S
C695 H662 0.930 . S
C695 C697 1.406 . S
C695 C700 1.261 . S
C696 H663 0.930 . S
C696 N698 1.325 . S
C696 C699 1.357 . S
C697 H665 0.928 . S
C697 C695 1.406 . S
C697 N698 1.261 . S
N698 Co649 2.214 . S
N698 C696 1.325 . S
N698 C697 1.261 . S
C699 H669 0.931 . S
C699 C696 1.357 . S
C699 C700 1.312 . S
C700 H671 0.930 . S
C700 C695 1.261 . S
C700 C699 1.312 . S
C701 O673 1.214 . S
C701 O681 1.234 . S
C702 H674 0.929 . S
C702 C705 1.391 . S
C702 C707 1.391 . S
C703 H675 0.929 . S
C703 C704 1.390 . S
C703 N706 1.391 . S
C704 H676 0.930 . S
C704 C703 1.390 . S
C704 C705 1.392 . S
C705 H677 0.929 . S
C705 C702 1.391 . S
C705 C704 1.392 . S
N706 Co650 2.257 . S
N706 C703 1.391 . S
N706 C707 1.388 . S
C707 H678 0.930 . S
C707 C702 1.391 . S
C707 N706 1.388 . S
Co708 O710 2.143 . S
Co708 O716 2.074 . S
Co708 O719 2.093 . S
Co708 O732 2.097 . S
Co708 N749 2.151 . S
Co708 N757 2.214 . S
Co709 O710 2.160 . S
Co709 O715 2.058 . S
Co709 O725 2.057 . S
Co709 O740 2.037 . S
Co709 N744 2.145 . S
Co709 N765 2.257 . S
O710 Co708 2.143 . S
O710 Co709 2.160 . S
C711 O712 1.278 . S
C711 O719 1.224 . S
O712 C711 1.278 . S
C713 O714 1.245 . S
C713 O725 1.232 . S
O714 C713 1.245 . S
O715 Co709 2.058 . S
O715 C741 1.269 . S
O716 Co708 2.074 . S
O716 C741 1.257 . S
H717 C742 0.930 . S
H718 C748 0.930 . S
O719 Co708 2.093 . S
O719 C711 1.224 . S
H720 C752 0.929 . S
H721 C754 0.930 . S
H722 C755 0.930 . S
H723 C753 0.929 . S
H724 C756 0.928 . S
O725 Co709 2.057 . S
O725 C713 1.232 . S
H726 C745 0.929 . S
H727 C746 0.929 . S
H728 C758 0.931 . S
H729 C750 0.929 . S
H730 C759 0.930 . S
H731 C751 0.931 . S
O732 Co708 2.097 . S
O732 C760 1.214 . S
H733 C761 0.929 . S
H734 C762 0.929 . S
H735 C763 0.930 . S
H736 C764 0.929 . S
H737 C766 0.930 . S
H738 C743 0.930 . S
H739 C747 0.930 . S
O740 Co709 2.037 . S
O740 C760 1.234 . S
C741 O715 1.269 . S
C741 O716 1.257 . S
C742 H717 0.930 . S
C742 C745 1.388 . S
C742 C747 1.418 . S
C743 H738 0.930 . S
C743 C746 1.404 . S
C743 C747 1.353 . S
N744 Co709 2.145 . S
N744 C745 1.397 . S
N744 C746 1.334 . S
C745 H726 0.929 . S
C745 C742 1.388 . S
C745 N744 1.397 . S
C746 H727 0.929 . S
C746 C743 1.404 . S
C746 N744 1.334 . S
C747 H739 0.930 . S
C747 C742 1.418 . S
C747 C743 1.353 . S
C748 H718 0.930 . S
C748 N749 1.330 . S
C748 C750 1.446 . S
N749 Co708 2.151 . S
N749 C748 1.330 . S
N749 C753 1.418 . S
C750 H729 0.929 . S
C750 C748 1.446 . S
C750 C751 1.332 . S
C751 H731 0.931 . S
C751 C750 1.332 . S
C751 C752 1.267 . S
C752 H720 0.929 . S
C752 C751 1.267 . S
C752 C753 1.251 . S
C753 H723 0.929 . S
C753 N749 1.418 . S
C753 C752 1.251 . S
C754 H721 0.930 . S
C754 C756 1.406 . S
C754 C759 1.261 . S
C755 H722 0.930 . S
C755 N757 1.325 . S
C755 C758 1.357 . S
C756 H724 0.928 . S
C756 C754 1.406 . S
C756 N757 1.261 . S
N757 Co708 2.214 . S
N757 C755 1.325 . S
N757 C756 1.261 . S
C758 H728 0.931 . S
C758 C755 1.357 . S
C758 C759 1.312 . S
C759 H730 0.930 . S
C759 C754 1.261 . S
C759 C758 1.312 . S
C760 O732 1.214 . S
C760 O740 1.234 . S
C761 H733 0.929 . S
C761 C764 1.391 . S
C761 C766 1.391 . S
C762 H734 0.929 . S
C762 C763 1.390 . S
C762 N765 1.391 . S
C763 H735 0.930 . S
C763 C762 1.390 . S
C763 C764 1.392 . S
C764 H736 0.929 . S
C764 C761 1.391 . S
C764 C763 1.392 . S
N765 Co709 2.257 . S
N765 C762 1.391 . S
N765 C766 1.388 . S
C766 H737 0.930 . S
C766 C761 1.391 . S
C766 N765 1.388 . S
Co767 O769 2.143 . S
Co767 O775 2.074 . S
Co767 O778 2.093 . S
Co767 O791 2.097 . S
Co767 N808 2.151 . S
Co767 N816 2.214 . S
Co768 O769 2.160 . S
Co768 O774 2.058 . S
Co768 O784 2.057 . S
Co768 O799 2.037 . S
Co768 N803 2.145 . S
Co768 N824 2.257 . S
O769 Co767 2.143 . S
O769 Co768 2.160 . S
C770 O771 1.278 . S
C770 O778 1.224 . S
O771 C770 1.278 . S
C772 O773 1.245 . S
C772 O784 1.232 . S
O773 C772 1.245 . S
O774 Co768 2.058 . S
O774 C800 1.269 . S
O775 Co767 2.074 . S
O775 C800 1.257 . S
H776 C801 0.930 . S
H777 C807 0.930 . S
O778 Co767 2.093 . S
O778 C770 1.224 . S
H779 C811 0.929 . S
H780 C813 0.930 1_545 S
H781 C814 0.930 . S
H782 C812 0.929 . S
H783 C815 0.928 . S
O784 Co768 2.057 . S
O784 C772 1.232 . S
H785 C804 0.929 . S
H786 C805 0.929 . S
H787 C817 0.931 1_545 S
H788 C809 0.929 . S
H789 C818 0.930 . S
H790 C810 0.931 . S
O791 Co767 2.097 . S
O791 C819 1.214 . S
H792 C820 0.929 . S
H793 C821 0.929 . S
H794 C822 0.930 . S
H795 C823 0.929 . S
H796 C825 0.930 . S
H797 C802 0.930 . S
H798 C806 0.930 . S
O799 Co768 2.037 . S
O799 C819 1.234 . S
C800 O774 1.269 . S
C800 O775 1.257 . S
C801 H776 0.930 . S
C801 C804 1.388 . S
C801 C806 1.418 . S
C802 H797 0.930 . S
C802 C805 1.404 . S
C802 C806 1.353 . S
N803 Co768 2.145 . S
N803 C804 1.397 . S
N803 C805 1.334 . S
C804 H785 0.929 . S
C804 C801 1.388 . S
C804 N803 1.397 . S
C805 H786 0.929 . S
C805 C802 1.404 . S
C805 N803 1.334 . S
C806 H798 0.930 . S
C806 C801 1.418 . S
C806 C802 1.353 . S
C807 H777 0.930 . S
C807 N808 1.330 . S
C807 C809 1.446 . S
N808 Co767 2.151 . S
N808 C807 1.330 . S
N808 C812 1.418 . S
C809 H788 0.929 . S
C809 C807 1.446 . S
C809 C810 1.332 . S
C810 H790 0.931 . S
C810 C809 1.332 . S
C810 C811 1.267 . S
C811 H779 0.929 . S
C811 C810 1.267 . S
C811 C812 1.251 . S
C812 H782 0.929 . S
C812 N808 1.418 . S
C812 C811 1.251 . S
C813 H780 0.930 1_565 S
C813 C815 1.406 . S
C813 C818 1.261 1_565 S
C814 H781 0.930 . S
C814 N816 1.325 . S
C814 C817 1.357 . S
C815 H783 0.928 . S
C815 C813 1.406 . S
C815 N816 1.261 . S
N816 Co767 2.214 . S
N816 C814 1.325 . S
N816 C815 1.261 . S
C817 H787 0.931 1_565 S
C817 C814 1.357 . S
C817 C818 1.312 1_565 S
C818 H789 0.930 . S
C818 C813 1.261 1_545 S
C818 C817 1.312 1_545 S
C819 O791 1.214 . S
C819 O799 1.234 . S
C820 H792 0.929 . S
C820 C823 1.391 . S
C820 C825 1.391 . S
C821 H793 0.929 . S
C821 C822 1.390 . S
C821 N824 1.391 . S
C822 H794 0.930 . S
C822 C821 1.390 . S
C822 C823 1.392 . S
C823 H795 0.929 . S
C823 C820 1.391 . S
C823 C822 1.392 . S
N824 Co768 2.257 . S
N824 C821 1.391 . S
N824 C825 1.388 . S
C825 H796 0.930 . S
C825 C820 1.391 . S
C825 N824 1.388 . S
Co826 O828 2.143 . S
Co826 O834 2.074 . S
Co826 O837 2.093 . S
Co826 O850 2.097 . S
Co826 N867 2.151 . S
Co826 N875 2.214 . S
Co827 O828 2.160 . S
Co827 O833 2.058 . S
Co827 O843 2.057 . S
Co827 O858 2.037 . S
Co827 N862 2.145 . S
Co827 N883 2.257 . S
O828 Co826 2.143 . S
O828 Co827 2.160 . S
C829 O830 1.278 . S
C829 O837 1.224 . S
O830 C829 1.278 . S
C831 O832 1.245 . S
C831 O843 1.232 . S
O832 C831 1.245 . S
O833 Co827 2.058 . S
O833 C859 1.269 . S
O834 Co826 2.074 . S
O834 C859 1.257 . S
H835 C860 0.930 . S
H836 C866 0.930 . S
O837 Co826 2.093 . S
O837 C829 1.224 . S
H838 C870 0.929 . S
H839 C872 0.930 . S
H840 C873 0.930 . S
H841 C871 0.929 . S
H842 C874 0.928 . S
O843 Co827 2.057 . S
O843 C831 1.232 . S
H844 C863 0.929 . S
H845 C864 0.929 . S
H846 C876 0.931 . S
H847 C868 0.929 . S
H848 C877 0.930 . S
H849 C869 0.931 . S
O850 Co826 2.097 . S
O850 C878 1.214 . S
H851 C879 0.929 . S
H852 C880 0.929 . S
H853 C881 0.930 . S
H854 C882 0.929 . S
H855 C884 0.930 . S
H856 C861 0.930 . S
H857 C865 0.930 . S
O858 Co827 2.037 . S
O858 C878 1.234 . S
C859 O833 1.269 . S
C859 O834 1.257 . S
C860 H835 0.930 . S
C860 C863 1.388 . S
C860 C865 1.418 . S
C861 H856 0.930 . S
C861 C864 1.404 . S
C861 C865 1.353 . S
N862 Co827 2.145 . S
N862 C863 1.397 . S
N862 C864 1.334 . S
C863 H844 0.929 . S
C863 C860 1.388 . S
C863 N862 1.397 . S
C864 H845 0.929 . S
C864 C861 1.404 . S
C864 N862 1.334 . S
C865 H857 0.930 . S
C865 C860 1.418 . S
C865 C861 1.353 . S
C866 H836 0.930 . S
C866 N867 1.330 . S
C866 C868 1.446 . S
N867 Co826 2.151 . S
N867 C866 1.330 . S
N867 C871 1.418 . S
C868 H847 0.929 . S
C868 C866 1.446 . S
C868 C869 1.332 . S
C869 H849 0.931 . S
C869 C868 1.332 . S
C869 C870 1.267 . S
C870 H838 0.929 . S
C870 C869 1.267 . S
C870 C871 1.251 . S
C871 H841 0.929 . S
C871 N867 1.418 . S
C871 C870 1.251 . S
C872 H839 0.930 . S
C872 C874 1.406 . S
C872 C877 1.261 . S
C873 H840 0.930 . S
C873 N875 1.325 . S
C873 C876 1.357 . S
C874 H842 0.928 . S
C874 C872 1.406 . S
C874 N875 1.261 . S
N875 Co826 2.214 . S
N875 C873 1.325 . S
N875 C874 1.261 . S
C876 H846 0.931 . S
C876 C873 1.357 . S
C876 C877 1.312 . S
C877 H848 0.930 . S
C877 C872 1.261 . S
C877 C876 1.312 . S
C878 O850 1.214 . S
C878 O858 1.234 . S
C879 H851 0.929 . S
C879 C882 1.391 . S
C879 C884 1.391 . S
C880 H852 0.929 . S
C880 C881 1.390 . S
C880 N883 1.391 . S
C881 H853 0.930 . S
C881 C880 1.390 . S
C881 C882 1.392 . S
C882 H854 0.929 . S
C882 C879 1.391 . S
C882 C881 1.392 . S
N883 Co827 2.257 . S
N883 C880 1.391 . S
N883 C884 1.388 . S
C884 H855 0.930 . S
C884 C879 1.391 . S
C884 N883 1.388 . S
Co885 O887 2.143 . S
Co885 O893 2.074 . S
Co885 O896 2.093 . S
Co885 O909 2.097 . S
Co885 N926 2.151 . S
Co885 N934 2.214 . S
Co886 O887 2.160 . S
Co886 O892 2.058 . S
Co886 O902 2.057 . S
Co886 O917 2.037 . S
Co886 N921 2.145 . S
Co886 N942 2.257 . S
O887 Co885 2.143 . S
O887 Co886 2.160 . S
C888 O889 1.278 . S
C888 O896 1.224 . S
O889 C888 1.278 . S
C890 O891 1.245 . S
C890 O902 1.232 . S
O891 C890 1.245 . S
O892 Co886 2.058 . S
O892 C918 1.269 . S
O893 Co885 2.074 . S
O893 C918 1.257 . S
H894 C919 0.930 . S
H895 C925 0.930 . S
O896 Co885 2.093 . S
O896 C888 1.224 . S
H897 C929 0.929 . S
H898 C931 0.930 . S
H899 C932 0.930 . S
H900 C930 0.929 . S
H901 C933 0.928 . S
O902 Co886 2.057 . S
O902 C890 1.232 . S
H903 C922 0.929 . S
H904 C923 0.929 . S
H905 C935 0.925 1_565 S
H906 C927 0.929 . S
H907 C936 0.930 . S
H908 C928 0.931 . S
O909 Co885 2.097 . S
O909 C937 1.214 . S
H910 C938 0.929 . S
H911 C939 0.929 . S
H912 C940 0.930 . S
H913 C941 0.929 . S
H914 C943 0.930 . S
H915 C920 0.930 . S
H916 C924 0.930 . S
O917 Co886 2.037 . S
O917 C937 1.234 . S
C918 O892 1.269 . S
C918 O893 1.257 . S
C919 H894 0.930 . S
C919 C922 1.388 . S
C919 C924 1.418 . S
C920 H915 0.930 . S
C920 C923 1.404 . S
C920 C924 1.353 . S
N921 Co886 2.145 . S
N921 C922 1.397 . S
N921 C923 1.334 . S
C922 H903 0.929 . S
C922 C919 1.388 . S
C922 N921 1.397 . S
C923 H904 0.929 . S
C923 C920 1.404 . S
C923 N921 1.334 . S
C924 H916 0.930 . S
C924 C919 1.418 . S
C924 C920 1.353 . S
C925 H895 0.930 . S
C925 N926 1.330 . S
C925 C927 1.446 . S
N926 Co885 2.151 . S
N926 C925 1.330 . S
N926 C930 1.418 . S
C927 H906 0.929 . S
C927 C925 1.446 . S
C927 C928 1.332 . S
C928 H908 0.931 . S
C928 C927 1.332 . S
C928 C929 1.267 . S
C929 H897 0.929 . S
C929 C928 1.267 . S
C929 C930 1.251 . S
C930 H900 0.929 . S
C930 N926 1.418 . S
C930 C929 1.251 . S
C931 H898 0.930 . S
C931 C933 1.406 1_565 S
C931 C936 1.261 . S
C932 H899 0.930 . S
C932 N934 1.325 . S
C932 C935 1.369 . S
C933 H901 0.928 . S
C933 C931 1.406 1_545 S
C933 N934 1.261 . S
N934 Co885 2.214 . S
N934 C932 1.325 . S
N934 C933 1.261 . S
C935 H905 0.925 1_545 S
C935 C932 1.369 . S
C935 C936 1.306 1_545 S
C936 H907 0.930 . S
C936 C931 1.261 . S
C936 C935 1.306 1_565 S
C937 O909 1.214 . S
C937 O917 1.234 . S
C938 H910 0.929 . S
C938 C941 1.391 . S
C938 C943 1.391 . S
C939 H911 0.929 . S
C939 C940 1.390 . S
C939 N942 1.391 . S
C940 H912 0.930 . S
C940 C939 1.390 . S
C940 C941 1.392 . S
C941 H913 0.929 . S
C941 C938 1.391 . S
C941 C940 1.392 . S
N942 Co886 2.257 . S
N942 C939 1.391 . S
N942 C943 1.388 . S
C943 H914 0.930 . S
C943 C938 1.391 . S
C943 N942 1.388 . S
Co944 O946 2.143 . S
Co944 O952 2.074 . S
Co944 O955 2.093 . S
Co944 O968 2.097 . S
Co944 N985 2.151 . S
Co944 N993 2.214 . S
Co945 O946 2.160 . S
Co945 O951 2.058 . S
Co945 O961 2.057 . S
Co945 O976 2.037 . S
Co945 N980 2.145 . S
Co945 N1001 2.257 . S
O946 Co944 2.143 . S
O946 Co945 2.160 . S
C947 O948 1.278 . S
C947 O955 1.224 . S
O948 C947 1.278 . S
C949 O950 1.245 . S
C949 O961 1.232 . S
O950 C949 1.245 . S
O951 Co945 2.058 . S
O951 C977 1.269 . S
O952 Co944 2.074 . S
O952 C977 1.257 . S
H953 C978 0.930 . S
H954 C984 0.930 . S
O955 Co944 2.093 . S
O955 C947 1.224 . S
H956 C988 0.929 . S
H957 C990 0.930 . S
H958 C991 0.930 . S
H959 C989 0.929 . S
H960 C992 0.928 . S
O961 Co945 2.057 . S
O961 C949 1.232 . S
H962 C981 0.929 . S
H963 C982 0.929 . S
H964 C994 0.931 . S
H965 C986 0.929 . S
H966 C995 0.930 . S
H967 C987 0.931 . S
O968 Co944 2.097 . S
O968 C996 1.214 . S
H969 C997 0.929 . S
H970 C998 0.929 . S
H971 C999 0.930 . S
H972 C1000 0.929 . S
H973 C1002 0.930 . S
H974 C979 0.930 . S
H975 C983 0.930 . S
O976 Co945 2.037 . S
O976 C996 1.234 . S
C977 O951 1.269 . S
C977 O952 1.257 . S
C978 H953 0.930 . S
C978 C981 1.388 . S
C978 C983 1.418 . S
C979 H974 0.930 . S
C979 C982 1.404 . S
C979 C983 1.353 . S
N980 Co945 2.145 . S
N980 C981 1.397 . S
N980 C982 1.334 . S
C981 H962 0.929 . S
C981 C978 1.388 . S
C981 N980 1.397 . S
C982 H963 0.929 . S
C982 C979 1.404 . S
C982 N980 1.334 . S
C983 H975 0.930 . S
C983 C978 1.418 . S
C983 C979 1.353 . S
C984 H954 0.930 . S
C984 N985 1.330 . S
C984 C986 1.446 . S
N985 Co944 2.151 . S
N985 C984 1.330 . S
N985 C989 1.418 . S
C986 H965 0.929 . S
C986 C984 1.446 . S
C986 C987 1.332 . S
C987 H967 0.931 . S
C987 C986 1.332 . S
C987 C988 1.267 . S
C988 H956 0.929 . S
C988 C987 1.267 . S
C988 C989 1.251 . S
C989 H959 0.929 . S
C989 N985 1.418 . S
C989 C988 1.251 . S
C990 H957 0.930 . S
C990 C992 1.406 . S
C990 C995 1.261 . S
C991 H958 0.930 . S
C991 N993 1.325 . S
C991 C994 1.357 . S
C992 H960 0.928 . S
C992 C990 1.406 . S
C992 N993 1.261 . S
N993 Co944 2.214 . S
N993 C991 1.325 . S
N993 C992 1.261 . S
C994 H964 0.931 . S
C994 C991 1.357 . S
C994 C995 1.312 . S
C995 H966 0.930 . S
C995 C990 1.261 . S
C995 C994 1.312 . S
C996 O968 1.214 . S
C996 O976 1.234 . S
C997 H969 0.929 . S
C997 C1000 1.391 . S
C997 C1002 1.391 . S
C998 H970 0.929 . S
C998 C999 1.390 . S
C998 N1001 1.391 . S
C999 H971 0.930 . S
C999 C998 1.390 . S
C999 C1000 1.392 . S
C1000 H972 0.929 . S
C1000 C997 1.391 . S
C1000 C999 1.392 . S
N1001 Co945 2.257 . S
N1001 C998 1.391 . S
N1001 C1002 1.388 . S
C1002 H973 0.930 . S
C1002 C997 1.391 . S
C1002 N1001 1.388 . S
Co1003 O1005 2.170 . S
Co1003 O1011 2.074 . S
Co1003 O1014 2.093 . S
Co1003 O1027 2.097 1_565 S
Co1003 N1044 2.151 . S
Co1003 N1052 2.214 . S
Co1004 O1005 2.132 1_545 S
Co1004 O1010 2.058 1_545 S
Co1004 O1020 2.057 . S
Co1004 O1035 2.037 . S
Co1004 N1039 2.145 . S
Co1004 N1060 2.257 . S
O1005 Co1003 2.170 . S
O1005 Co1004 2.132 1_565 S
C1006 O1007 1.278 . S
C1006 O1014 1.224 1_545 S
O1007 C1006 1.278 . S
C1008 O1009 1.245 1_545 S
C1008 O1020 1.232 . S
O1009 C1008 1.245 1_565 S
O1010 Co1004 2.058 1_565 S
O1010 C1036 1.269 . S
O1011 Co1003 2.074 . S
O1011 C1036 1.257 . S
H1012 C1037 0.930 . S
H1013 C1043 0.930 . S
O1014 Co1003 2.093 . S
O1014 C1006 1.224 1_565 S
H1015 C1047 0.929 . S
H1016 C1049 0.930 . S
H1017 C1050 0.930 . S
H1018 C1048 0.929 . S
H1019 C1051 0.928 . S
O1020 Co1004 2.057 . S
O1020 C1008 1.232 . S
H1021 C1040 0.929 . S
H1022 C1041 0.929 . S
H1023 C1053 0.931 . S
H1024 C1045 0.929 . S
H1025 C1054 0.930 . S
H1026 C1046 0.931 . S
O1027 Co1003 2.097 1_545 S
O1027 C1055 1.214 . S
H1028 C1056 0.929 . S
H1029 C1057 0.929 . S
H1030 C1058 0.930 . S
H1031 C1059 0.929 . S
H1032 C1061 0.930 . S
H1033 C1038 0.930 . S
H1034 C1042 0.930 . S
O1035 Co1004 2.037 . S
O1035 C1055 1.234 . S
C1036 O1010 1.269 . S
C1036 O1011 1.257 . S
C1037 H1012 0.930 . S
C1037 C1040 1.388 . S
C1037 C1042 1.418 . S
C1038 H1033 0.930 . S
C1038 C1041 1.404 . S
C1038 C1042 1.353 . S
N1039 Co1004 2.145 . S
N1039 C1040 1.397 . S
N1039 C1041 1.334 . S
C1040 H1021 0.929 . S
C1040 C1037 1.388 . S
C1040 N1039 1.397 . S
C1041 H1022 0.929 . S
C1041 C1038 1.404 . S
C1041 N1039 1.334 . S
C1042 H1034 0.930 . S
C1042 C1037 1.418 . S
C1042 C1038 1.353 . S
C1043 H1013 0.930 . S
C1043 N1044 1.330 . S
C1043 C1045 1.446 . S
N1044 Co1003 2.151 . S
N1044 C1043 1.330 . S
N1044 C1048 1.418 . S
C1045 H1024 0.929 . S
C1045 C1043 1.446 . S
C1045 C1046 1.332 . S
C1046 H1026 0.931 . S
C1046 C1045 1.332 . S
C1046 C1047 1.267 . S
C1047 H1015 0.929 . S
C1047 C1046 1.267 . S
C1047 C1048 1.251 . S
C1048 H1018 0.929 . S
C1048 N1044 1.418 . S
C1048 C1047 1.251 . S
C1049 H1016 0.930 . S
C1049 C1051 1.406 . S
C1049 C1054 1.261 . S
C1050 H1017 0.930 . S
C1050 N1052 1.325 . S
C1050 C1053 1.357 . S
C1051 H1019 0.928 . S
C1051 C1049 1.406 . S
C1051 N1052 1.261 . S
N1052 Co1003 2.214 . S
N1052 C1050 1.325 . S
N1052 C1051 1.261 . S
C1053 H1023 0.931 . S
C1053 C1050 1.357 . S
C1053 C1054 1.312 . S
C1054 H1025 0.930 . S
C1054 C1049 1.261 . S
C1054 C1053 1.312 . S
C1055 O1027 1.214 . S
C1055 O1035 1.234 . S
C1056 H1028 0.929 . S
C1056 C1059 1.391 . S
C1056 C1061 1.391 . S
C1057 H1029 0.929 . S
C1057 C1058 1.390 . S
C1057 N1060 1.391 . S
C1058 H1030 0.930 . S
C1058 C1057 1.390 . S
C1058 C1059 1.392 . S
C1059 H1031 0.929 . S
C1059 C1056 1.391 . S
C1059 C1058 1.392 . S
N1060 Co1004 2.257 . S
N1060 C1057 1.391 . S
N1060 C1061 1.388 . S
C1061 H1032 0.930 . S
C1061 C1056 1.391 . S
C1061 N1060 1.388 . S
Co1062 O1064 2.143 . S
Co1062 O1070 2.074 . S
Co1062 O1073 2.093 . S
Co1062 O1086 2.097 . S
Co1062 N1103 2.151 . S
Co1062 N1111 2.214 . S
Co1063 O1064 2.160 . S
Co1063 O1069 2.058 . S
Co1063 O1079 2.057 . S
Co1063 O1094 2.037 . S
Co1063 N1098 2.145 . S
Co1063 N1119 2.257 . S
O1064 Co1062 2.143 . S
O1064 Co1063 2.160 . S
C1065 O1066 1.278 . S
C1065 O1073 1.224 . S
O1066 C1065 1.278 . S
C1067 O1068 1.245 . S
C1067 O1079 1.232 . S
O1068 C1067 1.245 . S
O1069 Co1063 2.058 . S
O1069 C1095 1.269 . S
O1070 Co1062 2.074 . S
O1070 C1095 1.257 . S
H1071 C1096 0.930 . S
H1072 C1102 0.930 . S
O1073 Co1062 2.093 . S
O1073 C1065 1.224 . S
H1074 C1106 0.929 . S
H1075 C1108 0.930 1_554 S
H1076 C1109 0.930 . S
H1077 C1107 0.929 . S
H1078 C1110 0.928 . S
O1079 Co1063 2.057 . S
O1079 C1067 1.232 . S
H1080 C1099 0.929 . S
H1081 C1100 0.929 . S
H1082 C1112 0.931 1_554 S
H1083 C1104 0.929 . S
H1084 C1113 0.930 . S
H1085 C1105 0.931 . S
O1086 Co1062 2.097 . S
O1086 C1114 1.214 . S
H1087 C1115 0.929 . S
H1088 C1116 0.929 . S
H1089 C1117 0.930 . S
H1090 C1118 0.929 . S
H1091 C1120 0.930 . S
H1092 C1097 0.930 . S
H1093 C1101 0.930 . S
O1094 Co1063 2.037 . S
O1094 C1114 1.234 . S
C1095 O1069 1.269 . S
C1095 O1070 1.257 . S
C1096 H1071 0.930 . S
C1096 C1099 1.388 . S
C1096 C1101 1.418 . S
C1097 H1092 0.930 . S
C1097 C1100 1.404 . S
C1097 C1101 1.353 . S
N1098 Co1063 2.145 . S
N1098 C1099 1.397 . S
N1098 C1100 1.334 . S
C1099 H1080 0.929 . S
C1099 C1096 1.388 . S
C1099 N1098 1.397 . S
C1100 H1081 0.929 . S
C1100 C1097 1.404 . S
C1100 N1098 1.334 . S
C1101 H1093 0.930 . S
C1101 C1096 1.418 . S
C1101 C1097 1.353 . S
C1102 H1072 0.930 . S
C1102 N1103 1.330 . S
C1102 C1104 1.446 . S
N1103 Co1062 2.151 . S
N1103 C1102 1.330 . S
N1103 C1107 1.418 . S
C1104 H1083 0.929 . S
C1104 C1102 1.446 . S
C1104 C1105 1.332 . S
C1105 H1085 0.931 . S
C1105 C1104 1.332 . S
C1105 C1106 1.267 . S
C1106 H1074 0.929 . S
C1106 C1105 1.267 . S
C1106 C1107 1.251 . S
C1107 H1077 0.929 . S
C1107 N1103 1.418 . S
C1107 C1106 1.251 . S
C1108 H1075 0.930 1_556 S
C1108 C1110 1.406 . S
C1108 C1113 1.261 1_556 S
C1109 H1076 0.930 . S
C1109 N1111 1.325 . S
C1109 C1112 1.357 . S
C1110 H1078 0.928 . S
C1110 C1108 1.406 . S
C1110 N1111 1.261 . S
N1111 Co1062 2.214 . S
N1111 C1109 1.325 . S
N1111 C1110 1.261 . S
C1112 H1082 0.931 1_556 S
C1112 C1109 1.357 . S
C1112 C1113 1.312 1_556 S
C1113 H1084 0.930 . S
C1113 C1108 1.261 1_554 S
C1113 C1112 1.312 1_554 S
C1114 O1086 1.214 . S
C1114 O1094 1.234 . S
C1115 H1087 0.929 . S
C1115 C1118 1.391 . S
C1115 C1120 1.391 . S
C1116 H1088 0.929 . S
C1116 C1117 1.390 . S
C1116 N1119 1.391 . S
C1117 H1089 0.930 . S
C1117 C1116 1.390 . S
C1117 C1118 1.392 . S
C1118 H1090 0.929 . S
C1118 C1115 1.391 . S
C1118 C1117 1.392 . S
N1119 Co1063 2.257 . S
N1119 C1116 1.391 . S
N1119 C1120 1.388 . S
C1120 H1091 0.930 . S
C1120 C1115 1.391 . S
C1120 N1119 1.388 . S
Co1121 O1123 2.169 . S
Co1121 O1129 2.074 . S
Co1121 O1132 2.093 . S
Co1121 O1145 2.097 1_545 S
Co1121 N1162 2.151 . S
Co1121 N1170 2.214 . S
Co1122 O1123 2.133 1_565 S
Co1122 O1128 2.058 1_565 S
Co1122 O1138 2.057 . S
Co1122 O1153 2.037 . S
Co1122 N1157 2.145 . S
Co1122 N1178 2.257 . S
O1123 Co1121 2.169 . S
O1123 Co1122 2.133 1_545 S
C1124 O1125 1.278 . S
C1124 O1132 1.224 1_565 S
O1125 C1124 1.278 . S
C1126 O1127 1.208 1_565 S
C1126 O1138 1.265 . S
O1127 C1126 1.208 1_545 S
O1128 Co1122 2.058 1_545 S
O1128 C1154 1.269 . S
O1129 Co1121 2.074 . S
O1129 C1154 1.257 . S
H1130 C1155 0.930 . S
H1131 C1161 0.930 . S
O1132 Co1121 2.093 . S
O1132 C1124 1.224 1_545 S
H1133 C1165 0.929 . S
H1134 C1167 0.930 1_554 S
H1135 C1168 0.930 . S
H1136 C1166 0.929 . S
H1137 C1169 0.928 . S
O1138 Co1122 2.057 . S
O1138 C1126 1.265 . S
H1139 C1158 0.929 . S
H1140 C1159 0.929 . S
H1141 C1171 0.931 1_554 S
H1142 C1163 0.929 . S
H1143 C1172 0.930 . S
H1144 C1164 0.931 . S
O1145 Co1121 2.097 1_565 S
O1145 C1173 1.214 . S
H1146 C1174 0.929 . S
H1147 C1175 0.929 . S
H1148 C1176 0.930 . S
H1149 C1177 0.929 . S
H1150 C1179 0.930 . S
H1151 C1156 0.930 . S
H1152 C1160 0.930 . S
O1153 Co1122 2.037 . S
O1153 C1173 1.234 . S
C1154 O1128 1.269 . S
C1154 O1129 1.257 . S
C1155 H1130 0.930 . S
C1155 C1158 1.388 . S
C1155 C1160 1.418 . S
C1156 H1151 0.930 . S
C1156 C1159 1.404 . S
C1156 C1160 1.353 . S
N1157 Co1122 2.145 . S
N1157 C1158 1.397 . S
N1157 C1159 1.334 . S
C1158 H1139 0.929 . S
C1158 C1155 1.388 . S
C1158 N1157 1.397 . S
C1159 H1140 0.929 . S
C1159 C1156 1.404 . S
C1159 N1157 1.334 . S
C1160 H1152 0.930 . S
C1160 C1155 1.418 . S
C1160 C1156 1.353 . S
C1161 H1131 0.930 . S
C1161 N1162 1.330 . S
C1161 C1163 1.446 . S
N1162 Co1121 2.151 . S
N1162 C1161 1.330 . S
N1162 C1166 1.418 . S
C1163 H1142 0.929 . S
C1163 C1161 1.446 . S
C1163 C1164 1.332 . S
C1164 H1144 0.931 . S
C1164 C1163 1.332 . S
C1164 C1165 1.267 . S
C1165 H1133 0.929 . S
C1165 C1164 1.267 . S
C1165 C1166 1.251 . S
C1166 H1136 0.929 . S
C1166 N1162 1.418 . S
C1166 C1165 1.251 . S
C1167 H1134 0.930 1_556 S
C1167 C1169 1.406 . S
C1167 C1172 1.261 1_556 S
C1168 H1135 0.930 . S
C1168 N1170 1.325 . S
C1168 C1171 1.357 . S
C1169 H1137 0.928 . S
C1169 C1167 1.406 . S
C1169 N1170 1.261 . S
N1170 Co1121 2.214 . S
N1170 C1168 1.325 . S
N1170 C1169 1.261 . S
C1171 H1141 0.931 1_556 S
C1171 C1168 1.357 . S
C1171 C1172 1.312 1_556 S
C1172 H1143 0.930 . S
C1172 C1167 1.261 1_554 S
C1172 C1171 1.312 1_554 S
C1173 O1145 1.214 . S
C1173 O1153 1.234 . S
C1174 H1146 0.929 . S
C1174 C1177 1.391 . S
C1174 C1179 1.391 . S
C1175 H1147 0.929 . S
C1175 C1176 1.390 . S
C1175 N1178 1.391 . S
C1176 H1148 0.930 . S
C1176 C1175 1.390 . S
C1176 C1177 1.392 . S
C1177 H1149 0.929 . S
C1177 C1174 1.391 . S
C1177 C1176 1.392 . S
N1178 Co1122 2.257 . S
N1178 C1175 1.391 . S
N1178 C1179 1.388 . S
C1179 H1150 0.930 . S
C1179 C1174 1.391 . S
C1179 N1178 1.388 . S
Co1180 O1182 2.143 . S
Co1180 O1188 2.074 . S
Co1180 O1191 2.093 . S
Co1180 O1204 2.097 . S
Co1180 N1221 2.151 . S
Co1180 N1229 2.214 . S
Co1181 O1182 2.160 . S
Co1181 O1187 2.058 . S
Co1181 O1197 2.057 . S
Co1181 O1212 2.037 . S
Co1181 N1216 2.145 . S
Co1181 N1237 2.257 . S
O1182 Co1180 2.143 . S
O1182 Co1181 2.160 . S
C1183 O1184 1.278 . S
C1183 O1191 1.224 . S
O1184 C1183 1.278 . S
C1185 O1186 1.245 . S
C1185 O1197 1.232 . S
O1186 C1185 1.245 . S
O1187 Co1181 2.058 . S
O1187 C1213 1.269 . S
O1188 Co1180 2.074 . S
O1188 C1213 1.257 . S
H1189 C1214 0.930 . S
H1190 C1220 0.930 . S
O1191 Co1180 2.093 . S
O1191 C1183 1.224 . S
H1192 C1224 0.929 . S
H1193 C1226 0.930 . S
H1194 C1227 0.930 . S
H1195 C1225 0.929 . S
H1196 C1228 0.928 . S
O1197 Co1181 2.057 . S
O1197 C1185 1.232 . S
H1198 C1217 0.929 . S
H1199 C1218 0.929 . S
H1200 C1230 0.931 . S
H1201 C1222 0.929 . S
H1202 C1231 0.930 . S
H1203 C1223 0.931 . S
O1204 Co1180 2.097 . S
O1204 C1232 1.214 . S
H1205 C1233 0.929 . S
H1206 C1234 0.929 . S
H1207 C1235 0.930 . S
H1208 C1236 0.929 . S
H1209 C1238 0.930 . S
H1210 C1215 0.930 . S
H1211 C1219 0.930 . S
O1212 Co1181 2.037 . S
O1212 C1232 1.234 . S
C1213 O1187 1.269 . S
C1213 O1188 1.257 . S
C1214 H1189 0.930 . S
C1214 C1217 1.388 . S
C1214 C1219 1.418 . S
C1215 H1210 0.930 . S
C1215 C1218 1.404 . S
C1215 C1219 1.353 . S
N1216 Co1181 2.145 . S
N1216 C1217 1.397 . S
N1216 C1218 1.334 . S
C1217 H1198 0.929 . S
C1217 C1214 1.388 . S
C1217 N1216 1.397 . S
C1218 H1199 0.929 . S
C1218 C1215 1.404 . S
C1218 N1216 1.334 . S
C1219 H1211 0.930 . S
C1219 C1214 1.418 . S
C1219 C1215 1.353 . S
C1220 H1190 0.930 . S
C1220 N1221 1.330 . S
C1220 C1222 1.446 . S
N1221 Co1180 2.151 . S
N1221 C1220 1.330 . S
N1221 C1225 1.418 . S
C1222 H1201 0.929 . S
C1222 C1220 1.446 . S
C1222 C1223 1.332 . S
C1223 H1203 0.931 . S
C1223 C1222 1.332 . S
C1223 C1224 1.267 . S
C1224 H1192 0.929 . S
C1224 C1223 1.267 . S
C1224 C1225 1.251 . S
C1225 H1195 0.929 . S
C1225 N1221 1.418 . S
C1225 C1224 1.251 . S
C1226 H1193 0.930 . S
C1226 C1228 1.406 . S
C1226 C1231 1.261 . S
C1227 H1194 0.930 . S
C1227 N1229 1.325 . S
C1227 C1230 1.357 . S
C1228 H1196 0.928 . S
C1228 C1226 1.406 . S
C1228 N1229 1.261 . S
N1229 Co1180 2.214 . S
N1229 C1227 1.325 . S
N1229 C1228 1.261 . S
C1230 H1200 0.931 . S
C1230 C1227 1.357 . S
C1230 C1231 1.312 . S
C1231 H1202 0.930 . S
C1231 C1226 1.261 . S
C1231 C1230 1.312 . S
C1232 O1204 1.214 . S
C1232 O1212 1.234 . S
C1233 H1205 0.929 . S
C1233 C1236 1.391 . S
C1233 C1238 1.391 . S
C1234 H1206 0.929 . S
C1234 C1235 1.390 . S
C1234 N1237 1.391 . S
C1235 H1207 0.930 . S
C1235 C1234 1.390 . S
C1235 C1236 1.392 . S
C1236 H1208 0.929 . S
C1236 C1233 1.391 . S
C1236 C1235 1.392 . S
N1237 Co1181 2.257 . S
N1237 C1234 1.391 . S
N1237 C1238 1.388 . S
C1238 H1209 0.930 . S
C1238 C1233 1.391 . S
C1238 N1237 1.388 . S
Co1239 O1241 2.170 . S
Co1239 O1247 2.074 . S
Co1239 O1250 2.093 . S
Co1239 O1263 2.097 1_556 S
Co1239 N1280 2.151 . S
Co1239 N1288 2.214 . S
Co1240 O1241 2.132 1_554 S
Co1240 O1246 2.058 1_554 S
Co1240 O1256 2.057 . S
Co1240 O1271 2.037 . S
Co1240 N1275 2.145 . S
Co1240 N1296 2.257 . S
O1241 Co1239 2.170 . S
O1241 Co1240 2.132 1_556 S
C1242 O1243 1.278 . S
C1242 O1250 1.224 1_554 S
O1243 C1242 1.278 . S
C1244 O1245 1.245 1_554 S
C1244 O1256 1.232 . S
O1245 C1244 1.245 1_556 S
O1246 Co1240 2.058 1_556 S
O1246 C1272 1.269 . S
O1247 Co1239 2.074 . S
O1247 C1272 1.257 . S
H1248 C1273 0.930 . S
H1249 C1279 0.930 . S
O1250 Co1239 2.093 . S
O1250 C1242 1.224 1_556 S
H1251 C1283 0.929 . S
H1252 C1285 0.930 . S
H1253 C1286 0.930 . S
H1254 C1284 0.929 . S
H1255 C1287 0.928 . S
O1256 Co1240 2.057 . S
O1256 C1244 1.232 . S
H1257 C1276 0.929 . S
H1258 C1277 0.929 . S
H1259 C1289 0.931 . S
H1260 C1281 0.929 . S
H1261 C1290 0.930 . S
H1262 C1282 0.931 . S
O1263 Co1239 2.097 1_554 S
O1263 C1291 1.214 . S
H1264 C1292 0.929 . S
H1265 C1293 0.929 . S
H1266 C1294 0.930 . S
H1267 C1295 0.929 . S
H1268 C1297 0.930 . S
H1269 C1274 0.930 . S
H1270 C1278 0.930 . S
O1271 Co1240 2.037 . S
O1271 C1291 1.234 . S
C1272 O1246 1.269 . S
C1272 O1247 1.257 . S
C1273 H1248 0.930 . S
C1273 C1276 1.388 . S
C1273 C1278 1.418 . S
C1274 H1269 0.930 . S
C1274 C1277 1.404 . S
C1274 C1278 1.353 . S
N1275 Co1240 2.145 . S
N1275 C1276 1.397 . S
N1275 C1277 1.334 . S
C1276 H1257 0.929 . S
C1276 C1273 1.388 . S
C1276 N1275 1.397 . S
C1277 H1258 0.929 . S
C1277 C1274 1.404 . S
C1277 N1275 1.334 . S
C1278 H1270 0.930 . S
C1278 C1273 1.418 . S
C1278 C1274 1.353 . S
C1279 H1249 0.930 . S
C1279 N1280 1.330 . S
C1279 C1281 1.446 . S
N1280 Co1239 2.151 . S
N1280 C1279 1.330 . S
N1280 C1284 1.418 . S
C1281 H1260 0.929 . S
C1281 C1279 1.446 . S
C1281 C1282 1.332 . S
C1282 H1262 0.931 . S
C1282 C1281 1.332 . S
C1282 C1283 1.267 . S
C1283 H1251 0.929 . S
C1283 C1282 1.267 . S
C1283 C1284 1.251 . S
C1284 H1254 0.929 . S
C1284 N1280 1.418 . S
C1284 C1283 1.251 . S
C1285 H1252 0.930 . S
C1285 C1287 1.406 . S
C1285 C1290 1.261 . S
C1286 H1253 0.930 . S
C1286 N1288 1.325 . S
C1286 C1289 1.357 . S
C1287 H1255 0.928 . S
C1287 C1285 1.406 . S
C1287 N1288 1.261 . S
N1288 Co1239 2.214 . S
N1288 C1286 1.325 . S
N1288 C1287 1.261 . S
C1289 H1259 0.931 . S
C1289 C1286 1.357 . S
C1289 C1290 1.312 . S
C1290 H1261 0.930 . S
C1290 C1285 1.261 . S
C1290 C1289 1.312 . S
C1291 O1263 1.214 . S
C1291 O1271 1.234 . S
C1292 H1264 0.929 . S
C1292 C1295 1.391 . S
C1292 C1297 1.391 . S
C1293 H1265 0.929 . S
C1293 C1294 1.390 . S
C1293 N1296 1.391 . S
C1294 H1266 0.930 . S
C1294 C1293 1.390 . S
C1294 C1295 1.392 . S
C1295 H1267 0.929 . S
C1295 C1292 1.391 . S
C1295 C1294 1.392 . S
N1296 Co1240 2.257 . S
N1296 C1293 1.391 . S
N1296 C1297 1.388 . S
C1297 H1268 0.930 . S
C1297 C1292 1.391 . S
C1297 N1296 1.388 . S
Co1298 O1300 2.162 . S
Co1298 O1306 2.074 . S
Co1298 O1309 2.093 . S
Co1298 O1322 2.097 1_556 S
Co1298 N1339 2.151 . S
Co1298 N1347 2.214 . S
Co1299 O1300 2.142 1_554 S
Co1299 O1305 2.058 1_554 S
Co1299 O1315 2.057 . S
Co1299 O1330 2.037 . S
Co1299 N1334 2.145 . S
Co1299 N1355 2.257 . S
O1300 Co1298 2.162 . S
O1300 Co1299 2.142 1_556 S
C1301 O1302 1.278 . S
C1301 O1309 1.224 1_554 S
O1302 C1301 1.278 . S
C1303 O1304 1.245 1_554 S
C1303 O1315 1.232 . S
O1304 C1303 1.245 1_556 S
O1305 Co1299 2.058 1_556 S
O1305 C1331 1.269 . S
O1306 Co1298 2.074 . S
O1306 C1331 1.257 . S
H1307 C1332 0.930 . S
H1308 C1338 0.930 . S
O1309 Co1298 2.093 . S
O1309 C1301 1.224 1_556 S
H1310 C1342 0.929 . S
H1311 C1344 0.930 . S
H1312 C1345 0.930 . S
H1313 C1343 0.929 . S
H1314 C1346 0.928 . S
O1315 Co1299 2.057 . S
O1315 C1303 1.232 . S
H1316 C1335 0.929 . S
H1317 C1336 0.929 . S
H1318 C1348 0.931 . S
H1319 C1340 0.929 . S
H1320 C1349 0.930 . S
H1321 C1341 0.931 . S
O1322 Co1298 2.097 1_554 S
O1322 C1350 1.214 . S
H1323 C1351 0.929 . S
H1324 C1352 0.929 . S
H1325 C1353 0.930 . S
H1326 C1354 0.929 . S
H1327 C1356 0.930 . S
H1328 C1333 0.930 . S
H1329 C1337 0.930 . S
O1330 Co1299 2.037 . S
O1330 C1350 1.234 . S
C1331 O1305 1.269 . S
C1331 O1306 1.257 . S
C1332 H1307 0.930 . S
C1332 C1335 1.388 . S
C1332 C1337 1.418 . S
C1333 H1328 0.930 . S
C1333 C1336 1.404 . S
C1333 C1337 1.353 . S
N1334 Co1299 2.145 . S
N1334 C1335 1.397 . S
N1334 C1336 1.334 . S
C1335 H1316 0.929 . S
C1335 C1332 1.388 . S
C1335 N1334 1.397 . S
C1336 H1317 0.929 . S
C1336 C1333 1.404 . S
C1336 N1334 1.334 . S
C1337 H1329 0.930 . S
C1337 C1332 1.418 . S
C1337 C1333 1.353 . S
C1338 H1308 0.930 . S
C1338 N1339 1.330 . S
C1338 C1340 1.446 . S
N1339 Co1298 2.151 . S
N1339 C1338 1.330 . S
N1339 C1343 1.418 . S
C1340 H1319 0.929 . S
C1340 C1338 1.446 . S
C1340 C1341 1.332 . S
C1341 H1321 0.931 . S
C1341 C1340 1.332 . S
C1341 C1342 1.267 . S
C1342 H1310 0.929 . S
C1342 C1341 1.267 . S
C1342 C1343 1.251 . S
C1343 H1313 0.929 . S
C1343 N1339 1.418 . S
C1343 C1342 1.251 . S
C1344 H1311 0.930 . S
C1344 C1346 1.406 . S
C1344 C1349 1.261 . S
C1345 H1312 0.930 . S
C1345 N1347 1.325 . S
C1345 C1348 1.357 . S
C1346 H1314 0.928 . S
C1346 C1344 1.406 . S
C1346 N1347 1.261 . S
N1347 Co1298 2.214 . S
N1347 C1345 1.325 . S
N1347 C1346 1.261 . S
C1348 H1318 0.931 . S
C1348 C1345 1.357 . S
C1348 C1349 1.312 . S
C1349 H1320 0.930 . S
C1349 C1344 1.261 . S
C1349 C1348 1.312 . S
C1350 O1322 1.214 . S
C1350 O1330 1.234 . S
C1351 H1323 0.929 . S
C1351 C1354 1.391 . S
C1351 C1356 1.391 . S
C1352 H1324 0.929 . S
C1352 C1353 1.390 . S
C1352 N1355 1.391 . S
C1353 H1325 0.930 . S
C1353 C1352 1.390 . S
C1353 C1354 1.392 . S
C1354 H1326 0.929 . S
C1354 C1351 1.391 . S
C1354 C1353 1.392 . S
N1355 Co1299 2.257 . S
N1355 C1352 1.391 . S
N1355 C1356 1.388 . S
C1356 H1327 0.930 . S
C1356 C1351 1.391 . S
C1356 N1355 1.388 . S
Co1357 O1359 2.169 . S
Co1357 O1365 2.074 . S
Co1357 O1368 2.093 . S
Co1357 O1381 2.097 1_554 S
Co1357 N1398 2.151 . S
Co1357 N1406 2.214 . S
Co1358 O1359 2.133 1_556 S
Co1358 O1364 2.058 1_556 S
Co1358 O1374 2.057 . S
Co1358 O1389 2.037 . S
Co1358 N1393 2.145 . S
Co1358 N1414 2.257 . S
O1359 Co1357 2.169 . S
O1359 Co1358 2.133 1_554 S
C1360 O1361 1.278 . S
C1360 O1368 1.224 1_556 S
O1361 C1360 1.278 . S
C1362 O1363 1.208 1_556 S
C1362 O1374 1.265 . S
O1363 C1362 1.208 1_554 S
O1364 Co1358 2.058 1_554 S
O1364 C1390 1.269 . S
O1365 Co1357 2.074 . S
O1365 C1390 1.257 . S
H1366 C1391 0.930 . S
H1367 C1397 0.930 . S
O1368 Co1357 2.093 . S
O1368 C1360 1.224 1_554 S
H1369 C1401 0.929 . S
H1370 C1403 0.930 1_455 S
H1371 C1404 0.930 . S
H1372 C1402 0.929 . S
H1373 C1405 0.928 . S
O1374 Co1358 2.057 . S
O1374 C1362 1.265 . S
H1375 C1394 0.929 . S
H1376 C1395 0.929 . S
H1377 C1407 0.931 1_455 S
H1378 C1399 0.929 . S
H1379 C1408 0.930 . S
H1380 C1400 0.931 . S
O1381 Co1357 2.097 1_556 S
O1381 C1409 1.214 . S
H1382 C1410 0.929 . S
H1383 C1411 0.929 . S
H1384 C1412 0.930 . S
H1385 C1413 0.929 . S
H1386 C1415 0.930 . S
H1387 C1392 0.930 . S
H1388 C1396 0.930 . S
O1389 Co1358 2.037 . S
O1389 C1409 1.234 . S
C1390 O1364 1.269 . S
C1390 O1365 1.257 . S
C1391 H1366 0.930 . S
C1391 C1394 1.388 . S
C1391 C1396 1.418 . S
C1392 H1387 0.930 . S
C1392 C1395 1.404 . S
C1392 C1396 1.353 . S
N1393 Co1358 2.145 . S
N1393 C1394 1.397 . S
N1393 C1395 1.334 . S
C1394 H1375 0.929 . S
C1394 C1391 1.388 . S
C1394 N1393 1.397 . S
C1395 H1376 0.929 . S
C1395 C1392 1.404 . S
C1395 N1393 1.334 . S
C1396 H1388 0.930 . S
C1396 C1391 1.418 . S
C1396 C1392 1.353 . S
C1397 H1367 0.930 . S
C1397 N1398 1.330 . S
C1397 C1399 1.446 . S
N1398 Co1357 2.151 . S
N1398 C1397 1.330 . S
N1398 C1402 1.418 . S
C1399 H1378 0.929 . S
C1399 C1397 1.446 . S
C1399 C1400 1.332 . S
C1400 H1380 0.931 . S
C1400 C1399 1.332 . S
C1400 C1401 1.267 . S
C1401 H1369 0.929 . S
C1401 C1400 1.267 . S
C1401 C1402 1.251 . S
C1402 H1372 0.929 . S
C1402 N1398 1.418 . S
C1402 C1401 1.251 . S
C1403 H1370 0.930 1_655 S
C1403 C1405 1.406 . S
C1403 C1408 1.261 1_655 S
C1404 H1371 0.930 . S
C1404 N1406 1.325 . S
C1404 C1407 1.357 . S
C1405 H1373 0.928 . S
C1405 C1403 1.406 . S
C1405 N1406 1.261 . S
N1406 Co1357 2.214 . S
N1406 C1404 1.325 . S
N1406 C1405 1.261 . S
C1407 H1377 0.931 1_655 S
C1407 C1404 1.357 . S
C1407 C1408 1.312 1_655 S
C1408 H1379 0.930 . S
C1408 C1403 1.261 1_455 S
C1408 C1407 1.312 1_455 S
C1409 O1381 1.214 . S
C1409 O1389 1.234 . S
C1410 H1382 0.929 . S
C1410 C1413 1.391 . S
C1410 C1415 1.391 . S
C1411 H1383 0.929 . S
C1411 C1412 1.390 . S
C1411 N1414 1.391 . S
C1412 H1384 0.930 . S
C1412 C1411 1.390 . S
C1412 C1413 1.392 . S
C1413 H1385 0.929 . S
C1413 C1410 1.391 . S
C1413 C1412 1.392 . S
N1414 Co1358 2.257 . S
N1414 C1411 1.391 . S
N1414 C1415 1.388 . S
C1415 H1386 0.930 . S
C1415 C1410 1.391 . S
C1415 N1414 1.388 . S
C1416 C1417 1.349 . S
C1416 C1418 1.327 . S
C1416 H1441 0.950 . S
C1417 C1416 1.349 . S
C1417 C1433 1.349 . S
C1418 C1416 1.327 . S
C1418 C1437 1.429 . S
C1418 H1442 0.950 . S
C1419 C1436 1.574 . S
C1419 C1438 1.368 . S
C1419 H1443 0.949 . S
H1420 C1424 0.949 . S
C1421 C1422 1.349 . S
C1421 C1423 1.327 . S
C1421 H1444 0.950 . S
C1422 C1421 1.349 . S
C1422 C1434 1.349 . S
C1423 C1421 1.327 . S
C1423 C1439 1.429 . S
C1423 H1445 0.950 . S
C1424 H1420 0.949 . S
C1424 C1432 1.574 . S
C1424 C1440 1.368 . S
H1425 C1433 0.950 . S
H1426 C1431 0.950 . S
H1427 C1432 0.949 . S
H1428 C1434 0.950 . S
H1429 C1435 0.950 . S
H1430 C1436 0.949 . S
C1431 H1426 0.950 . S
C1431 C1433 1.327 . S
C1431 C1437 1.429 . S
C1432 C1424 1.574 . S
C1432 H1427 0.949 . S
C1432 C1438 1.368 . S
C1433 C1417 1.349 . S
C1433 H1425 0.950 . S
C1433 C1431 1.327 . S
C1434 C1422 1.349 . S
C1434 H1428 0.950 . S
C1434 C1435 1.327 . S
C1435 H1429 0.950 . S
C1435 C1434 1.327 . S
C1435 C1439 1.429 . S
C1436 C1419 1.574 . S
C1436 H1430 0.949 . S
C1436 C1440 1.368 . S
C1437 C1418 1.429 . S
C1437 C1431 1.429 . S
C1437 C1438 1.523 . S
C1438 C1419 1.368 . S
C1438 C1432 1.368 . S
C1438 C1437 1.523 . S
C1439 C1423 1.429 . S
C1439 C1435 1.429 . S
C1439 C1440 1.523 . S
C1440 C1424 1.368 . S
C1440 C1436 1.368 . S
C1440 C1439 1.523 . S
H1441 C1416 0.950 . S
H1442 C1418 0.950 . S
H1443 C1419 0.949 . S
H1444 C1421 0.950 . S
H1445 C1423 0.950 . S
C1446 C1447 1.349 . S
C1446 C1448 1.327 . S
C1446 H1471 0.950 . S
C1447 C1446 1.349 . S
C1447 C1463 1.349 . S
C1448 C1446 1.327 . S
C1448 C1467 1.429 . S
C1448 H1472 0.950 . S
C1449 C1466 1.574 . S
C1449 C1468 1.368 . S
C1449 H1473 0.949 . S
H1450 C1454 0.949 . S
C1451 C1452 1.349 . S
C1451 C1453 1.327 . S
C1451 H1474 0.950 . S
C1452 C1451 1.349 . S
C1452 C1464 1.349 . S
C1453 C1451 1.327 . S
C1453 C1469 1.429 . S
C1453 H1475 0.950 . S
C1454 H1450 0.949 . S
C1454 C1462 1.574 . S
C1454 C1470 1.368 . S
H1455 C1463 0.950 . S
H1456 C1461 0.950 . S
H1457 C1462 0.949 . S
H1458 C1464 0.950 . S
H1459 C1465 0.950 . S
H1460 C1466 0.949 . S
C1461 H1456 0.950 . S
C1461 C1463 1.327 . S
C1461 C1467 1.429 . S
C1462 C1454 1.574 . S
C1462 H1457 0.949 . S
C1462 C1468 1.368 . S
C1463 C1447 1.349 . S
C1463 H1455 0.950 . S
C1463 C1461 1.327 . S
C1464 C1452 1.349 . S
C1464 H1458 0.950 . S
C1464 C1465 1.327 . S
C1465 H1459 0.950 . S
C1465 C1464 1.327 . S
C1465 C1469 1.429 . S
C1466 C1449 1.574 . S
C1466 H1460 0.949 . S
C1466 C1470 1.368 . S
C1467 C1448 1.429 . S
C1467 C1461 1.429 . S
C1467 C1468 1.523 . S
C1468 C1449 1.368 . S
C1468 C1462 1.368 . S
C1468 C1467 1.523 . S
C1469 C1453 1.429 . S
C1469 C1465 1.429 . S
C1469 C1470 1.523 . S
C1470 C1454 1.368 . S
C1470 C1466 1.368 . S
C1470 C1469 1.523 . S
H1471 C1446 0.950 . S
H1472 C1448 0.950 . S
H1473 C1449 0.949 . S
H1474 C1451 0.950 . S
H1475 C1453 0.950 . S
C1476 C1477 1.349 . S
C1476 C1478 1.327 . S
C1476 H1501 0.950 . S
C1477 C1476 1.349 . S
C1477 C1493 1.349 . S
C1478 C1476 1.327 . S
C1478 C1497 1.429 . S
C1478 H1502 0.950 . S
C1479 C1496 1.574 . S
C1479 C1498 1.368 . S
C1479 H1503 0.949 . S
H1480 C1484 0.949 . S
C1481 C1482 1.349 . S
C1481 C1483 1.327 . S
C1481 H1504 0.950 . S
C1482 C1481 1.349 . S
C1482 C1494 1.349 . S
C1483 C1481 1.327 . S
C1483 C1499 1.429 . S
C1483 H1505 0.950 . S
C1484 H1480 0.949 . S
C1484 C1492 1.574 . S
C1484 C1500 1.368 . S
H1485 C1493 0.950 . S
H1486 C1491 0.950 . S
H1487 C1492 0.949 . S
H1488 C1494 0.950 . S
H1489 C1495 0.950 1_554 S
H1490 C1496 0.949 1_556 S
C1491 H1486 0.950 . S
C1491 C1493 1.327 . S
C1491 C1497 1.429 . S
C1492 C1484 1.574 . S
C1492 H1487 0.949 . S
C1492 C1498 1.368 . S
C1493 C1477 1.349 . S
C1493 H1485 0.950 . S
C1493 C1491 1.327 . S
C1494 C1482 1.349 . S
C1494 H1488 0.950 . S
C1494 C1495 1.327 . S
C1495 H1489 0.950 1_556 S
C1495 C1494 1.327 . S
C1495 C1499 1.429 . S
C1496 C1479 1.574 . S
C1496 H1490 0.949 1_554 S
C1496 C1500 1.368 . S
C1497 C1478 1.429 . S
C1497 C1491 1.429 . S
C1497 C1498 1.523 . S
C1498 C1479 1.368 . S
C1498 C1492 1.368 . S
C1498 C1497 1.523 . S
C1499 C1483 1.429 . S
C1499 C1495 1.429 . S
C1499 C1500 1.523 1_556 S
C1500 C1484 1.368 . S
C1500 C1496 1.368 . S
C1500 C1499 1.523 1_554 S
H1501 C1476 0.950 . S
H1502 C1478 0.950 . S
H1503 C1479 0.949 . S
H1504 C1481 0.950 . S
H1505 C1483 0.950 . S
C1506 C1507 1.349 . S
C1506 C1508 1.327 . S
C1506 H1531 0.950 . S
C1507 C1506 1.349 . S
C1507 C1523 1.349 . S
C1508 C1506 1.327 . S
C1508 C1527 1.429 . S
C1508 H1532 0.950 . S
C1509 C1526 1.574 . S
C1509 C1528 1.368 . S
C1509 H1533 0.949 . S
H1510 C1514 0.949 1_556 S
C1511 C1512 1.349 . S
C1511 C1513 1.327 . S
C1511 H1534 0.950 . S
C1512 C1511 1.349 . S
C1512 C1524 1.349 . S
C1513 C1511 1.327 . S
C1513 C1529 1.429 . S
C1513 H1535 0.950 . S
C1514 H1510 0.949 1_554 S
C1514 C1522 1.574 . S
C1514 C1530 1.368 . S
H1515 C1523 0.950 . S
H1516 C1521 0.950 . S
H1517 C1522 0.949 . S
H1518 C1524 0.950 . S
H1519 C1525 0.950 . S
H1520 C1526 0.949 . S
C1521 H1516 0.950 . S
C1521 C1523 1.327 . S
C1521 C1527 1.429 . S
C1522 C1514 1.574 . S
C1522 H1517 0.949 . S
C1522 C1528 1.368 . S
C1523 C1507 1.349 . S
C1523 H1515 0.950 . S
C1523 C1521 1.327 . S
C1524 C1512 1.349 . S
C1524 H1518 0.950 . S
C1524 C1525 1.327 . S
C1525 H1519 0.950 . S
C1525 C1524 1.327 . S
C1525 C1529 1.429 . S
C1526 C1509 1.574 . S
C1526 H1520 0.949 . S
C1526 C1530 1.368 . S
C1527 C1508 1.429 . S
C1527 C1521 1.429 . S
C1527 C1528 1.523 . S
C1528 C1509 1.368 . S
C1528 C1522 1.368 . S
C1528 C1527 1.523 . S
C1529 C1513 1.429 . S
C1529 C1525 1.429 . S
C1529 C1530 1.523 1_556 S
C1530 C1514 1.368 . S
C1530 C1526 1.368 . S
C1530 C1529 1.523 1_554 S
H1531 C1506 0.950 . S
H1532 C1508 0.950 . S
H1533 C1509 0.949 . S
H1534 C1511 0.950 . S
H1535 C1513 0.950 . S
C1536 C1537 1.349 . S
C1536 C1538 1.327 . S
C1536 H1561 0.950 . S
C1537 C1536 1.349 . S
C1537 C1553 1.349 . S
C1538 C1536 1.327 . S
C1538 C1557 1.429 . S
C1538 H1562 0.950 . S
C1539 C1556 1.574 . S
C1539 C1558 1.368 . S
C1539 H1563 0.949 . S
H1540 C1544 0.949 . S
C1541 C1542 1.349 . S
C1541 C1543 1.327 . S
C1541 H1564 0.950 . S
C1542 C1541 1.349 . S
C1542 C1554 1.349 . S
C1543 C1541 1.327 . S
C1543 C1559 1.429 . S
C1543 H1565 0.950 . S
C1544 H1540 0.949 . S
C1544 C1552 1.574 . S
C1544 C1560 1.368 . S
H1545 C1553 0.950 . S
H1546 C1551 0.950 . S
H1547 C1552 0.949 . S
H1548 C1554 0.950 . S
H1549 C1555 0.950 . S
H1550 C1556 0.949 . S
C1551 H1546 0.950 . S
C1551 C1553 1.327 . S
C1551 C1557 1.429 . S
C1552 C1544 1.574 . S
C1552 H1547 0.949 . S
C1552 C1558 1.368 . S
C1553 C1537 1.349 . S
C1553 H1545 0.950 . S
C1553 C1551 1.327 . S
C1554 C1542 1.349 . S
C1554 H1548 0.950 . S
C1554 C1555 1.327 . S
C1555 H1549 0.950 . S
C1555 C1554 1.327 . S
C1555 C1559 1.429 . S
C1556 C1539 1.574 . S
C1556 H1550 0.949 . S
C1556 C1560 1.368 . S
C1557 C1538 1.429 . S
C1557 C1551 1.429 . S
C1557 C1558 1.523 . S
C1558 C1539 1.368 . S
C1558 C1552 1.368 . S
C1558 C1557 1.523 . S
C1559 C1543 1.429 . S
C1559 C1555 1.429 . S
C1559 C1560 1.523 . S
C1560 C1544 1.368 . S
C1560 C1556 1.368 . S
C1560 C1559 1.523 . S
H1561 C1536 0.950 . S
H1562 C1538 0.950 . S
H1563 C1539 0.949 . S
H1564 C1541 0.950 . S
H1565 C1543 0.950 . S
C1566 C1567 1.349 . S
C1566 C1568 1.327 . S
C1566 H1591 0.950 . S
C1567 C1566 1.349 . S
C1567 C1583 1.349 . S
C1568 C1566 1.327 . S
C1568 C1587 1.429 . S
C1568 H1592 0.950 . S
C1569 C1586 1.574 . S
C1569 C1588 1.368 . S
C1569 H1593 0.949 . S
H1570 C1574 0.949 . S
C1571 C1572 1.349 . S
C1571 C1573 1.327 . S
C1571 H1594 0.950 . S
C1572 C1571 1.349 . S
C1572 C1584 1.349 . S
C1573 C1571 1.327 . S
C1573 C1589 1.429 . S
C1573 H1595 0.950 . S
C1574 H1570 0.949 . S
C1574 C1582 1.574 . S
C1574 C1590 1.368 . S
H1575 C1583 0.950 . S
H1576 C1581 0.950 . S
H1577 C1582 0.949 . S
H1578 C1584 0.927 1_556 S
H1579 C1585 0.950 . S
H1580 C1586 0.949 . S
C1581 H1576 0.950 . S
C1581 C1583 1.327 . S
C1581 C1587 1.429 . S
C1582 C1574 1.574 . S
C1582 H1577 0.949 . S
C1582 C1588 1.368 . S
C1583 C1567 1.349 . S
C1583 H1575 0.950 . S
C1583 C1581 1.327 . S
C1584 C1572 1.349 . S
C1584 H1578 0.927 1_554 S
C1584 C1585 1.327 . S
C1585 H1579 0.950 . S
C1585 C1584 1.327 . S
C1585 C1589 1.429 . S
C1586 C1569 1.574 . S
C1586 H1580 0.949 . S
C1586 C1590 1.368 . S
C1587 C1568 1.429 . S
C1587 C1581 1.429 . S
C1587 C1588 1.523 . S
C1588 C1569 1.368 . S
C1588 C1582 1.368 . S
C1588 C1587 1.523 . S
C1589 C1573 1.429 . S
C1589 C1585 1.429 . S
C1589 C1590 1.523 . S
C1590 C1574 1.368 . S
C1590 C1586 1.368 . S
C1590 C1589 1.523 . S
H1591 C1566 0.950 . S
H1592 C1568 0.950 . S
H1593 C1569 0.949 . S
H1594 C1571 0.950 . S
H1595 C1573 0.950 . S
C1596 C1597 1.349 . S
C1596 C1598 1.327 . S
C1596 H1621 0.950 . S
C1597 C1596 1.349 . S
C1597 C1613 1.349 . S
C1598 C1596 1.327 . S
C1598 C1617 1.429 . S
C1598 H1622 0.950 . S
C1599 C1616 1.574 . S
C1599 C1618 1.368 . S
C1599 H1623 0.949 . S
H1600 C1604 0.949 . S
C1601 C1602 1.349 . S
C1601 C1603 1.327 . S
C1601 H1624 0.950 . S
C1602 C1601 1.349 . S
C1602 C1614 1.349 . S
C1603 C1601 1.327 . S
C1603 C1619 1.429 . S
C1603 H1625 0.950 . S
C1604 H1600 0.949 . S
C1604 C1612 1.574 . S
C1604 C1620 1.368 . S
H1605 C1613 0.950 . S
H1606 C1611 0.950 . S
H1607 C1612 0.949 . S
H1608 C1614 0.950 . S
H1609 C1615 0.950 . S
H1610 C1616 0.949 . S
C1611 H1606 0.950 . S
C1611 C1613 1.327 . S
C1611 C1617 1.429 . S
C1612 C1604 1.574 . S
C1612 H1607 0.949 . S
C1612 C1618 1.368 . S
C1613 C1597 1.349 . S
C1613 H1605 0.950 . S
C1613 C1611 1.327 . S
C1614 C1602 1.349 . S
C1614 H1608 0.950 . S
C1614 C1615 1.327 . S
C1615 H1609 0.950 . S
C1615 C1614 1.327 . S
C1615 C1619 1.429 . S
C1616 C1599 1.574 . S
C1616 H1610 0.949 . S
C1616 C1620 1.368 . S
C1617 C1598 1.429 . S
C1617 C1611 1.429 . S
C1617 C1618 1.523 . S
C1618 C1599 1.368 . S
C1618 C1612 1.368 . S
C1618 C1617 1.523 . S
C1619 C1603 1.429 . S
C1619 C1615 1.429 . S
C1619 C1620 1.523 . S
C1620 C1604 1.368 . S
C1620 C1616 1.368 . S
C1620 C1619 1.523 . S
H1621 C1596 0.950 . S
H1622 C1598 0.950 . S
H1623 C1599 0.949 . S
H1624 C1601 0.950 . S
H1625 C1603 0.950 . S
C1626 C1627 1.349 . S
C1626 C1628 1.327 . S
C1626 H1651 0.950 . S
C1627 C1626 1.349 . S
C1627 C1643 1.349 . S
C1628 C1626 1.327 . S
C1628 C1647 1.429 . S
C1628 H1652 0.950 . S
C1629 C1646 1.574 . S
C1629 C1648 1.368 . S
C1629 H1653 0.949 . S
H1630 C1634 0.949 . S
C1631 C1632 1.349 . S
C1631 C1633 1.327 . S
C1631 H1654 0.950 . S
C1632 C1631 1.349 . S
C1632 C1644 1.349 . S
C1633 C1631 1.327 . S
C1633 C1649 1.429 . S
C1633 H1655 0.950 . S
C1634 H1630 0.949 . S
C1634 C1642 1.574 . S
C1634 C1650 1.368 . S
H1635 C1643 0.950 . S
H1636 C1641 0.950 . S
H1637 C1642 0.949 . S
H1638 C1644 0.950 . S
H1639 C1645 0.950 . S
H1640 C1646 0.949 . S
C1641 H1636 0.950 . S
C1641 C1643 1.327 . S
C1641 C1647 1.429 . S
C1642 C1634 1.574 . S
C1642 H1637 0.949 . S
C1642 C1648 1.368 . S
C1643 C1627 1.349 . S
C1643 H1635 0.950 . S
C1643 C1641 1.327 . S
C1644 C1632 1.349 . S
C1644 H1638 0.950 . S
C1644 C1645 1.327 . S
C1645 H1639 0.950 . S
C1645 C1644 1.327 . S
C1645 C1649 1.429 . S
C1646 C1629 1.574 . S
C1646 H1640 0.949 . S
C1646 C1650 1.368 . S
C1647 C1628 1.429 . S
C1647 C1641 1.429 . S
C1647 C1648 1.523 . S
C1648 C1629 1.368 . S
C1648 C1642 1.368 . S
C1648 C1647 1.523 . S
C1649 C1633 1.429 . S
C1649 C1645 1.429 . S
C1649 C1650 1.523 . S
C1650 C1634 1.368 . S
C1650 C1646 1.368 . S
C1650 C1649 1.523 . S
H1651 C1626 0.950 . S
H1652 C1628 0.950 . S
H1653 C1629 0.949 . S
H1654 C1631 0.950 . S
H1655 C1633 0.950 . S
C1656 C1657 1.349 . S
C1656 C1658 1.327 . S
C1656 H1681 0.950 . S
C1657 C1656 1.349 . S
C1657 C1673 1.349 . S
C1658 C1656 1.327 . S
C1658 C1677 1.429 . S
C1658 H1682 0.950 . S
C1659 C1676 1.574 . S
C1659 C1678 1.368 . S
C1659 H1683 0.949 . S
H1660 C1664 0.949 . S
C1661 C1662 1.349 . S
C1661 C1663 1.327 . S
C1661 H1684 0.950 . S
C1662 C1661 1.349 . S
C1662 C1674 1.349 . S
C1663 C1661 1.327 . S
C1663 C1679 1.429 . S
C1663 H1685 0.950 . S
C1664 H1660 0.949 . S
C1664 C1672 1.574 . S
C1664 C1680 1.368 . S
H1665 C1673 0.950 . S
H1666 C1671 0.950 . S
H1667 C1672 0.949 . S
H1668 C1674 0.950 . S
H1669 C1675 0.950 . S
H1670 C1676 0.949 . S
C1671 H1666 0.950 . S
C1671 C1673 1.327 . S
C1671 C1677 1.429 . S
C1672 C1664 1.574 . S
C1672 H1667 0.949 . S
C1672 C1678 1.368 . S
C1673 C1657 1.349 . S
C1673 H1665 0.950 . S
C1673 C1671 1.327 . S
C1674 C1662 1.349 . S
C1674 H1668 0.950 . S
C1674 C1675 1.327 . S
C1675 H1669 0.950 . S
C1675 C1674 1.327 . S
C1675 C1679 1.429 . S
C1676 C1659 1.574 . S
C1676 H1670 0.949 . S
C1676 C1680 1.368 . S
C1677 C1658 1.429 . S
C1677 C1671 1.429 . S
C1677 C1678 1.523 . S
C1678 C1659 1.368 . S
C1678 C1672 1.368 . S
C1678 C1677 1.523 . S
C1679 C1663 1.429 . S
C1679 C1675 1.429 . S
C1679 C1680 1.523 . S
C1680 C1664 1.368 . S
C1680 C1676 1.368 . S
C1680 C1679 1.523 . S
H1681 C1656 0.950 . S
H1682 C1658 0.950 . S
H1683 C1659 0.949 . S
H1684 C1661 0.950 . S
H1685 C1663 0.950 . S
C1686 C1687 1.349 . S
C1686 C1688 1.327 . S
C1686 H1711 0.950 . S
C1687 C1686 1.349 . S
C1687 C1703 1.349 . S
C1688 C1686 1.327 . S
C1688 C1707 1.429 . S
C1688 H1712 0.950 . S
C1689 C1706 1.574 . S
C1689 C1708 1.368 . S
C1689 H1713 0.949 . S
H1690 C1694 0.949 . S
C1691 C1692 1.349 . S
C1691 C1693 1.327 . S
C1691 H1714 0.950 . S
C1692 C1691 1.349 . S
C1692 C1704 1.349 . S
C1693 C1691 1.327 . S
C1693 C1709 1.429 . S
C1693 H1715 0.950 . S
C1694 H1690 0.949 . S
C1694 C1702 1.574 . S
C1694 C1710 1.368 . S
H1695 C1703 0.950 . S
H1696 C1701 0.950 . S
H1697 C1702 0.949 . S
H1698 C1704 0.950 . S
H1699 C1705 0.950 . S
H1700 C1706 0.949 . S
C1701 H1696 0.950 . S
C1701 C1703 1.327 . S
C1701 C1707 1.429 . S
C1702 C1694 1.574 . S
C1702 H1697 0.949 . S
C1702 C1708 1.368 . S
C1703 C1687 1.349 . S
C1703 H1695 0.950 . S
C1703 C1701 1.327 . S
C1704 C1692 1.349 . S
C1704 H1698 0.950 . S
C1704 C1705 1.327 . S
C1705 H1699 0.950 . S
C1705 C1704 1.327 . S
C1705 C1709 1.429 . S
C1706 C1689 1.574 . S
C1706 H1700 0.949 . S
C1706 C1710 1.368 . S
C1707 C1688 1.429 . S
C1707 C1701 1.429 . S
C1707 C1708 1.523 . S
C1708 C1689 1.368 . S
C1708 C1702 1.368 . S
C1708 C1707 1.523 . S
C1709 C1693 1.429 . S
C1709 C1705 1.429 . S
C1709 C1710 1.523 . S
C1710 C1694 1.368 . S
C1710 C1706 1.368 . S
C1710 C1709 1.523 . S
H1711 C1686 0.950 . S
H1712 C1688 0.950 . S
H1713 C1689 0.949 . S
H1714 C1691 0.950 . S
H1715 C1693 0.950 . S
C1716 C1717 1.349 . S
C1716 C1718 1.327 . S
C1716 H1741 0.950 . S
C1717 C1716 1.349 . S
C1717 C1733 1.349 . S
C1718 C1716 1.327 . S
C1718 C1737 1.429 . S
C1718 H1742 0.950 . S
C1719 C1736 1.574 . S
C1719 C1738 1.368 . S
C1719 H1743 0.949 . S
H1720 C1724 0.949 . S
C1721 C1722 1.349 . S
C1721 C1723 1.327 . S
C1721 H1744 0.950 . S
C1722 C1721 1.349 . S
C1722 C1734 1.349 . S
C1723 C1721 1.327 . S
C1723 C1739 1.429 . S
C1723 H1745 0.950 . S
C1724 H1720 0.949 . S
C1724 C1732 1.574 . S
C1724 C1740 1.368 . S
H1725 C1733 0.950 . S
H1726 C1731 0.950 . S
H1727 C1732 0.949 . S
H1728 C1734 0.950 . S
H1729 C1735 0.950 . S
H1730 C1736 0.949 . S
C1731 H1726 0.950 . S
C1731 C1733 1.327 . S
C1731 C1737 1.429 . S
C1732 C1724 1.574 . S
C1732 H1727 0.949 . S
C1732 C1738 1.368 . S
C1733 C1717 1.349 . S
C1733 H1725 0.950 . S
C1733 C1731 1.327 . S
C1734 C1722 1.349 . S
C1734 H1728 0.950 . S
C1734 C1735 1.327 . S
C1735 H1729 0.950 . S
C1735 C1734 1.327 . S
C1735 C1739 1.429 . S
C1736 C1719 1.574 . S
C1736 H1730 0.949 . S
C1736 C1740 1.368 . S
C1737 C1718 1.429 . S
C1737 C1731 1.429 . S
C1737 C1738 1.523 . S
C1738 C1719 1.368 . S
C1738 C1732 1.368 . S
C1738 C1737 1.523 . S
C1739 C1723 1.429 . S
C1739 C1735 1.429 . S
C1739 C1740 1.523 1_545 S
C1740 C1724 1.368 . S
C1740 C1736 1.368 . S
C1740 C1739 1.523 1_565 S
H1741 C1716 0.950 . S
H1742 C1718 0.950 . S
H1743 C1719 0.949 . S
H1744 C1721 0.950 . S
H1745 C1723 0.950 . S
C1746 C1747 1.349 . S
C1746 C1748 1.327 . S
C1746 H1771 0.950 . S
C1747 C1746 1.349 . S
C1747 C1763 1.349 . S
C1748 C1746 1.327 . S
C1748 C1767 1.429 . S
C1748 H1772 0.950 . S
C1749 C1766 1.574 . S
C1749 C1768 1.368 . S
C1749 H1773 0.949 . S
H1750 C1754 0.949 . S
C1751 C1752 1.349 . S
C1751 C1753 1.327 . S
C1751 H1774 0.950 . S
C1752 C1751 1.349 . S
C1752 C1764 1.349 . S
C1753 C1751 1.327 . S
C1753 C1769 1.429 . S
C1753 H1775 0.950 . S
C1754 H1750 0.949 . S
C1754 C1762 1.574 . S
C1754 C1770 1.368 . S
H1755 C1763 0.950 . S
H1756 C1761 0.950 . S
H1757 C1762 0.949 . S
H1758 C1764 0.950 . S
H1759 C1765 0.950 . S
H1760 C1766 0.949 . S
C1761 H1756 0.950 . S
C1761 C1763 1.327 . S
C1761 C1767 1.429 . S
C1762 C1754 1.574 . S
C1762 H1757 0.949 . S
C1762 C1768 1.368 . S
C1763 C1747 1.349 . S
C1763 H1755 0.950 . S
C1763 C1761 1.327 . S
C1764 C1752 1.349 . S
C1764 H1758 0.950 . S
C1764 C1765 1.327 . S
C1765 H1759 0.950 . S
C1765 C1764 1.327 . S
C1765 C1769 1.429 . S
C1766 C1749 1.574 . S
C1766 H1760 0.949 . S
C1766 C1770 1.368 . S
C1767 C1748 1.429 . S
C1767 C1761 1.429 . S
C1767 C1768 1.523 . S
C1768 C1749 1.368 . S
C1768 C1762 1.368 . S
C1768 C1767 1.523 . S
C1769 C1753 1.429 . S
C1769 C1765 1.429 . S
C1769 C1770 1.523 . S
C1770 C1754 1.368 . S
C1770 C1766 1.368 . S
C1770 C1769 1.523 . S
H1771 C1746 0.950 . S
H1772 C1748 0.950 . S
H1773 C1749 0.949 . S
H1774 C1751 0.950 . S
H1775 C1753 0.950 . S
C1776 C1777 1.349 . S
C1776 C1778 1.327 . S
C1776 H1801 0.950 . S
C1777 C1776 1.349 . S
C1777 C1793 1.349 . S
C1778 C1776 1.327 . S
C1778 C1797 1.429 . S
C1778 H1802 0.950 . S
C1779 C1796 1.574 . S
C1779 C1798 1.368 . S
C1779 H1803 0.978 . S
H1780 C1784 0.949 . S
C1781 C1782 1.349 . S
C1781 C1783 1.327 . S
C1781 H1804 0.950 . S
C1782 C1781 1.349 . S
C1782 C1794 1.349 . S
C1783 C1781 1.327 . S
C1783 C1799 1.429 . S
C1783 H1805 0.950 . S
C1784 H1780 0.949 . S
C1784 C1792 1.574 . S
C1784 C1800 1.368 . S
H1785 C1793 0.950 . S
H1786 C1791 0.950 . S
H1787 C1792 0.949 . S
H1788 C1794 0.950 . S
H1789 C1795 0.950 . S
H1790 C1796 0.949 . S
C1791 H1786 0.950 . S
C1791 C1793 1.327 . S
C1791 C1797 1.429 . S
C1792 C1784 1.574 . S
C1792 H1787 0.949 . S
C1792 C1798 1.368 . S
C1793 C1777 1.349 . S
C1793 H1785 0.950 . S
C1793 C1791 1.327 . S
C1794 C1782 1.349 . S
C1794 H1788 0.950 . S
C1794 C1795 1.327 . S
C1795 H1789 0.950 . S
C1795 C1794 1.327 . S
C1795 C1799 1.429 . S
C1796 C1779 1.574 . S
C1796 H1790 0.949 . S
C1796 C1800 1.368 . S
C1797 C1778 1.429 . S
C1797 C1791 1.429 . S
C1797 C1798 1.523 1_554 S
C1798 C1779 1.368 . S
C1798 C1792 1.368 . S
C1798 C1797 1.523 1_556 S
C1799 C1783 1.429 . S
C1799 C1795 1.429 . S
C1799 C1800 1.523 . S
C1800 C1784 1.368 . S
C1800 C1796 1.368 . S
C1800 C1799 1.523 . S
H1801 C1776 0.950 . S
H1802 C1778 0.950 . S
H1803 C1779 0.978 . S
H1804 C1781 0.950 . S
H1805 C1783 0.950 . S
C1806 C1807 1.349 . S
C1806 C1808 1.327 . S
C1806 H1831 0.950 . S
C1807 C1806 1.349 . S
C1807 C1823 1.349 . S
C1808 C1806 1.327 . S
C1808 C1827 1.429 . S
C1808 H1832 0.950 . S
C1809 C1826 1.574 . S
C1809 C1828 1.368 . S
C1809 H1833 0.949 . S
H1810 C1814 0.949 . S
C1811 C1812 1.349 . S
C1811 C1813 1.327 . S
C1811 H1834 0.950 . S
C1812 C1811 1.349 . S
C1812 C1824 1.349 . S
C1813 C1811 1.327 . S
C1813 C1829 1.429 . S
C1813 H1835 0.950 . S
C1814 H1810 0.949 . S
C1814 C1822 1.574 . S
C1814 C1830 1.368 . S
H1815 C1823 0.950 . S
H1816 C1821 0.950 1_556 S
H1817 C1822 0.949 1_554 S
H1818 C1824 0.950 . S
H1819 C1825 0.950 . S
H1820 C1826 0.949 . S
C1821 H1816 0.950 1_554 S
C1821 C1823 1.327 . S
C1821 C1827 1.429 . S
C1822 C1814 1.574 . S
C1822 H1817 0.949 1_556 S
C1822 C1828 1.368 . S
C1823 C1807 1.349 . S
C1823 H1815 0.950 . S
C1823 C1821 1.327 . S
C1824 C1812 1.349 . S
C1824 H1818 0.950 . S
C1824 C1825 1.327 . S
C1825 H1819 0.950 . S
C1825 C1824 1.327 . S
C1825 C1829 1.429 . S
C1826 C1809 1.574 . S
C1826 H1820 0.949 . S
C1826 C1830 1.368 . S
C1827 C1808 1.429 . S
C1827 C1821 1.429 . S
C1827 C1828 1.523 1_554 S
C1828 C1809 1.368 . S
C1828 C1822 1.368 . S
C1828 C1827 1.523 1_556 S
C1829 C1813 1.429 . S
C1829 C1825 1.429 . S
C1829 C1830 1.523 . S
C1830 C1814 1.368 . S
C1830 C1826 1.368 . S
C1830 C1829 1.523 . S
H1831 C1806 0.950 . S
H1832 C1808 0.950 . S
H1833 C1809 0.949 . S
H1834 C1811 0.950 . S
H1835 C1813 0.950 . S
C1836 C1837 1.349 . S
C1836 C1838 1.327 . S
C1836 H1861 0.950 . S
C1837 C1836 1.349 . S
C1837 C1853 1.349 . S
C1838 C1836 1.327 . S
C1838 C1857 1.429 . S
C1838 H1862 0.950 . S
C1839 C1856 1.574 . S
C1839 C1858 1.368 . S
C1839 H1863 0.949 . S
H1840 C1844 0.949 . S
C1841 C1842 1.349 . S
C1841 C1843 1.327 . S
C1841 H1864 0.950 . S
C1842 C1841 1.349 . S
C1842 C1854 1.349 . S
C1843 C1841 1.327 . S
C1843 C1859 1.429 . S
C1843 H1865 0.950 . S
C1844 H1840 0.949 . S
C1844 C1852 1.574 . S
C1844 C1860 1.368 . S
H1845 C1853 0.950 . S
H1846 C1851 0.950 . S
H1847 C1852 0.949 . S
H1848 C1854 0.950 . S
H1849 C1855 0.950 . S
H1850 C1856 0.949 . S
C1851 H1846 0.950 . S
C1851 C1853 1.327 . S
C1851 C1857 1.429 . S
C1852 C1844 1.574 . S
C1852 H1847 0.949 . S
C1852 C1858 1.368 . S
C1853 C1837 1.349 . S
C1853 H1845 0.950 . S
C1853 C1851 1.327 . S
C1854 C1842 1.349 . S
C1854 H1848 0.950 . S
C1854 C1855 1.327 . S
C1855 H1849 0.950 . S
C1855 C1854 1.327 . S
C1855 C1859 1.429 . S
C1856 C1839 1.574 . S
C1856 H1850 0.949 . S
C1856 C1860 1.368 . S
C1857 C1838 1.429 . S
C1857 C1851 1.429 . S
C1857 C1858 1.523 . S
C1858 C1839 1.368 . S
C1858 C1852 1.368 . S
C1858 C1857 1.523 . S
C1859 C1843 1.429 . S
C1859 C1855 1.429 . S
C1859 C1860 1.523 . S
C1860 C1844 1.368 . S
C1860 C1856 1.368 . S
C1860 C1859 1.523 . S
H1861 C1836 0.950 . S
H1862 C1838 0.950 . S
H1863 C1839 0.949 . S
H1864 C1841 0.950 . S
H1865 C1843 0.950 . S
C1866 C1867 1.349 . S
C1866 C1868 1.327 . S
C1866 H1891 0.950 . S
C1867 C1866 1.349 . S
C1867 C1883 1.349 . S
C1868 C1866 1.327 . S
C1868 C1887 1.429 . S
C1868 H1892 0.950 . S
C1869 C1886 1.574 . S
C1869 C1888 1.368 . S
C1869 H1893 0.949 . S
H1870 C1874 0.949 . S
C1871 C1872 1.349 . S
C1871 C1873 1.327 . S
C1871 H1894 0.950 . S
C1872 C1871 1.349 . S
C1872 C1884 1.349 . S
C1873 C1871 1.327 . S
C1873 C1889 1.429 . S
C1873 H1895 0.950 . S
C1874 H1870 0.949 . S
C1874 C1882 1.574 . S
C1874 C1890 1.368 . S
H1875 C1883 0.950 . S
H1876 C1881 0.950 . S
H1877 C1882 0.949 . S
H1878 C1884 0.950 . S
H1879 C1885 0.950 . S
H1880 C1886 0.949 . S
C1881 H1876 0.950 . S
C1881 C1883 1.327 . S
C1881 C1887 1.429 . S
C1882 C1874 1.574 . S
C1882 H1877 0.949 . S
C1882 C1888 1.368 . S
C1883 C1867 1.349 . S
C1883 H1875 0.950 . S
C1883 C1881 1.327 . S
C1884 C1872 1.349 . S
C1884 H1878 0.950 . S
C1884 C1885 1.327 . S
C1885 H1879 0.950 . S
C1885 C1884 1.327 . S
C1885 C1889 1.429 . S
C1886 C1869 1.574 . S
C1886 H1880 0.949 . S
C1886 C1890 1.368 . S
C1887 C1868 1.429 . S
C1887 C1881 1.429 . S
C1887 C1888 1.523 . S
C1888 C1869 1.368 . S
C1888 C1882 1.368 . S
C1888 C1887 1.523 . S
C1889 C1873 1.429 . S
C1889 C1885 1.429 . S
C1889 C1890 1.523 . S
C1890 C1874 1.368 . S
C1890 C1886 1.368 . S
C1890 C1889 1.523 . S
H1891 C1866 0.950 . S
H1892 C1868 0.950 . S
H1893 C1869 0.949 . S
H1894 C1871 0.950 . S
H1895 C1873 0.950 . S
C1896 C1897 1.349 . S
C1896 C1898 1.327 . S
C1896 H1921 0.950 . S
C1897 C1896 1.349 . S
C1897 C1913 1.349 . S
C1898 C1896 1.327 . S
C1898 C1917 1.429 . S
C1898 H1922 0.950 . S
C1899 C1916 1.574 . S
C1899 C1918 1.368 . S
C1899 H1923 0.949 . S
H1900 C1904 0.949 . S
C1901 C1902 1.349 . S
C1901 C1903 1.327 . S
C1901 H1924 0.950 . S
C1902 C1901 1.349 . S
C1902 C1914 1.349 . S
C1903 C1901 1.327 . S
C1903 C1919 1.429 . S
C1903 H1925 0.950 . S
C1904 H1900 0.949 . S
C1904 C1912 1.574 . S
C1904 C1920 1.368 . S
H1905 C1913 0.950 . S
H1906 C1911 0.950 . S
H1907 C1912 0.938 1_455 S
H1908 C1914 0.950 . S
H1909 C1915 0.950 . S
H1910 C1916 0.949 . S
C1911 H1906 0.950 . S
C1911 C1913 1.327 . S
C1911 C1917 1.429 . S
C1912 C1904 1.574 . S
C1912 H1907 0.938 1_655 S
C1912 C1918 1.368 . S
C1913 C1897 1.349 . S
C1913 H1905 0.950 . S
C1913 C1911 1.327 . S
C1914 C1902 1.349 . S
C1914 H1908 0.950 . S
C1914 C1915 1.327 . S
C1915 H1909 0.950 . S
C1915 C1914 1.327 . S
C1915 C1919 1.429 . S
C1916 C1899 1.574 . S
C1916 H1910 0.949 . S
C1916 C1920 1.368 . S
C1917 C1898 1.429 . S
C1917 C1911 1.429 . S
C1917 C1918 1.523 1_455 S
C1918 C1899 1.368 . S
C1918 C1912 1.368 . S
C1918 C1917 1.523 1_655 S
C1919 C1903 1.429 . S
C1919 C1915 1.429 . S
C1919 C1920 1.523 . S
C1920 C1904 1.368 . S
C1920 C1916 1.368 . S
C1920 C1919 1.523 . S
H1921 C1896 0.950 . S
H1922 C1898 0.950 . S
H1923 C1899 0.949 . S
H1924 C1901 0.950 . S
H1925 C1903 0.950 . S
C1926 C1927 1.349 . S
C1926 C1928 1.327 . S
C1926 H1951 0.950 . S
C1927 C1926 1.349 . S
C1927 C1943 1.349 . S
C1928 C1926 1.327 . S
C1928 C1947 1.429 . S
C1928 H1952 0.950 . S
C1929 C1946 1.574 . S
C1929 C1948 1.368 . S
C1929 H1953 0.949 . S
H1930 C1934 0.949 . S
C1931 C1932 1.349 . S
C1931 C1933 1.327 . S
C1931 H1954 0.950 . S
C1932 C1931 1.349 . S
C1932 C1944 1.349 . S
C1933 C1931 1.327 . S
C1933 C1949 1.429 . S
C1933 H1955 0.950 . S
C1934 H1930 0.949 . S
C1934 C1942 1.574 . S
C1934 C1950 1.368 . S
H1935 C1943 0.950 . S
H1936 C1941 0.950 . S
H1937 C1942 0.949 1_655 S
H1938 C1944 0.950 . S
H1939 C1945 0.950 . S
H1940 C1946 0.949 . S
C1941 H1936 0.950 . S
C1941 C1943 1.327 . S
C1941 C1947 1.429 . S
C1942 C1934 1.574 . S
C1942 H1937 0.949 1_455 S
C1942 C1948 1.368 . S
C1943 C1927 1.349 . S
C1943 H1935 0.950 . S
C1943 C1941 1.327 . S
C1944 C1932 1.349 . S
C1944 H1938 0.950 . S
C1944 C1945 1.327 . S
C1945 H1939 0.950 . S
C1945 C1944 1.327 . S
C1945 C1949 1.429 . S
C1946 C1929 1.574 . S
C1946 H1940 0.949 . S
C1946 C1950 1.368 . S
C1947 C1928 1.429 . S
C1947 C1941 1.429 . S
C1947 C1948 1.523 1_655 S
C1948 C1929 1.368 . S
C1948 C1942 1.368 . S
C1948 C1947 1.523 1_455 S
C1949 C1933 1.429 . S
C1949 C1945 1.429 . S
C1949 C1950 1.523 . S
C1950 C1934 1.368 . S
C1950 C1946 1.368 . S
C1950 C1949 1.523 . S
H1951 C1926 0.950 . S
H1952 C1928 0.950 . S
H1953 C1929 0.949 . S
H1954 C1931 0.950 . S
H1955 C1933 0.950 . S
C1956 C1957 1.349 . S
C1956 C1958 1.327 . S
C1956 H1981 0.950 . S
C1957 C1956 1.349 . S
C1957 C1973 1.349 . S
C1958 C1956 1.327 . S
C1958 C1977 1.429 . S
C1958 H1982 0.950 . S
C1959 C1976 1.574 . S
C1959 C1978 1.368 . S
C1959 H1983 0.949 . S
H1960 C1964 0.949 . S
C1961 C1962 1.349 . S
C1961 C1963 1.327 . S
C1961 H1984 0.950 . S
C1962 C1961 1.349 . S
C1962 C1974 1.349 . S
C1963 C1961 1.327 . S
C1963 C1979 1.429 . S
C1963 H1985 0.950 . S
C1964 H1960 0.949 . S
C1964 C1972 1.574 . S
C1964 C1980 1.368 . S
H1965 C1973 0.950 . S
H1966 C1971 0.950 . S
H1967 C1972 0.949 . S
H1968 C1974 0.950 . S
H1969 C1975 0.950 . S
H1970 C1976 0.949 . S
C1971 H1966 0.950 . S
C1971 C1973 1.327 . S
C1971 C1977 1.429 . S
C1972 C1964 1.574 . S
C1972 H1967 0.949 . S
C1972 C1978 1.368 . S
C1973 C1957 1.349 . S
C1973 H1965 0.950 . S
C1973 C1971 1.327 . S
C1974 C1962 1.349 . S
C1974 H1968 0.950 . S
C1974 C1975 1.327 . S
C1975 H1969 0.950 . S
C1975 C1974 1.327 . S
C1975 C1979 1.429 . S
C1976 C1959 1.574 . S
C1976 H1970 0.949 . S
C1976 C1980 1.368 . S
C1977 C1958 1.429 . S
C1977 C1971 1.429 . S
C1977 C1978 1.523 1_455 S
C1978 C1959 1.368 . S
C1978 C1972 1.368 . S
C1978 C1977 1.523 1_655 S
C1979 C1963 1.429 . S
C1979 C1975 1.429 . S
C1979 C1980 1.523 . S
C1980 C1964 1.368 . S
C1980 C1976 1.368 . S
C1980 C1979 1.523 . S
H1981 C1956 0.950 . S
H1982 C1958 0.950 . S
H1983 C1959 0.949 . S
H1984 C1961 0.950 . S
H1985 C1963 0.950 . S
C1986 C1987 1.349 . S
C1986 C1988 1.327 . S
C1986 H2011 0.950 . S
C1987 C1986 1.349 . S
C1987 C2003 1.349 . S
C1988 C1986 1.327 . S
C1988 C2007 1.429 . S
C1988 H2012 0.950 . S
C1989 C2006 1.574 . S
C1989 C2008 1.368 . S
C1989 H2013 0.949 . S
H1990 C1994 0.949 1_655 S
C1991 C1992 1.349 . S
C1991 C1993 1.327 . S
C1991 H2014 0.950 . S
C1992 C1991 1.349 . S
C1992 C2004 1.349 . S
C1993 C1991 1.327 . S
C1993 C2009 1.429 . S
C1993 H2015 0.950 1_655 S
C1994 H1990 0.949 1_455 S
C1994 C2002 1.574 . S
C1994 C2010 1.368 . S
H1995 C2003 0.950 . S
H1996 C2001 0.950 . S
H1997 C2002 0.949 . S
H1998 C2004 0.950 . S
H1999 C2005 0.950 . S
H2000 C2006 0.949 . S
C2001 H1996 0.950 . S
C2001 C2003 1.327 . S
C2001 C2007 1.429 . S
C2002 C1994 1.574 . S
C2002 H1997 0.949 . S
C2002 C2008 1.368 . S
C2003 C1987 1.349 . S
C2003 H1995 0.950 . S
C2003 C2001 1.327 . S
C2004 C1992 1.349 . S
C2004 H1998 0.950 . S
C2004 C2005 1.327 . S
C2005 H1999 0.950 . S
C2005 C2004 1.327 . S
C2005 C2009 1.429 . S
C2006 C1989 1.574 . S
C2006 H2000 0.949 . S
C2006 C2010 1.368 . S
C2007 C1988 1.429 . S
C2007 C2001 1.429 . S
C2007 C2008 1.523 . S
C2008 C1989 1.368 . S
C2008 C2002 1.368 . S
C2008 C2007 1.523 . S
C2009 C1993 1.429 . S
C2009 C2005 1.429 . S
C2009 C2010 1.523 1_655 S
C2010 C1994 1.368 . S
C2010 C2006 1.368 . S
C2010 C2009 1.523 1_455 S
H2011 C1986 0.950 . S
H2012 C1988 0.950 . S
H2013 C1989 0.949 . S
H2014 C1991 0.950 . S
H2015 C1993 0.950 1_455 S
C2016 C2017 1.349 . S
C2016 C2018 1.327 . S
C2016 H2041 0.950 . S
C2017 C2016 1.349 . S
C2017 C2033 1.349 . S
C2018 C2016 1.327 . S
C2018 C2037 1.429 . S
C2018 H2042 0.961 . S
C2019 C2036 1.574 . S
C2019 C2038 1.368 . S
C2019 H2043 0.949 1_565 S
H2020 C2024 0.949 . S
C2021 C2022 1.349 . S
C2021 C2023 1.327 . S
C2021 H2044 0.950 . S
C2022 C2021 1.349 . S
C2022 C2034 1.349 . S
C2023 C2021 1.327 . S
C2023 C2039 1.429 . S
C2023 H2045 0.950 . S
C2024 H2020 0.949 . S
C2024 C2032 1.574 . S
C2024 C2040 1.368 . S
H2025 C2033 0.950 . S
H2026 C2031 0.950 . S
H2027 C2032 0.949 . S
H2028 C2034 0.950 . S
H2029 C2035 0.950 . S
H2030 C2036 0.949 . S
C2031 H2026 0.950 . S
C2031 C2033 1.327 . S
C2031 C2037 1.429 . S
C2032 C2024 1.574 . S
C2032 H2027 0.949 . S
C2032 C2038 1.368 . S
C2033 C2017 1.349 . S
C2033 H2025 0.950 . S
C2033 C2031 1.327 . S
C2034 C2022 1.349 . S
C2034 H2028 0.950 . S
C2034 C2035 1.327 . S
C2035 H2029 0.950 . S
C2035 C2034 1.327 . S
C2035 C2039 1.429 . S
C2036 C2019 1.574 . S
C2036 H2030 0.949 . S
C2036 C2040 1.368 . S
C2037 C2018 1.429 . S
C2037 C2031 1.429 . S
C2037 C2038 1.523 1_545 S
C2038 C2019 1.368 . S
C2038 C2032 1.368 . S
C2038 C2037 1.523 1_565 S
C2039 C2023 1.429 . S
C2039 C2035 1.429 . S
C2039 C2040 1.523 . S
C2040 C2024 1.368 . S
C2040 C2036 1.368 . S
C2040 C2039 1.523 . S
H2041 C2016 0.950 . S
H2042 C2018 0.961 . S
H2043 C2019 0.949 1_545 S
H2044 C2021 0.950 . S
H2045 C2023 0.950 . S
C2046 C2047 1.349 . S
C2046 C2048 1.327 . S
C2046 H2071 0.950 . S
C2047 C2046 1.349 . S
C2047 C2063 1.349 . S
C2048 C2046 1.327 . S
C2048 C2067 1.429 . S
C2048 H2072 0.950 . S
C2049 C2066 1.574 . S
C2049 C2068 1.368 . S
C2049 H2073 0.949 . S
H2050 C2054 0.949 . S
C2051 C2052 1.349 . S
C2051 C2053 1.327 . S
C2051 H2074 0.950 . S
C2052 C2051 1.349 . S
C2052 C2064 1.349 . S
C2053 C2051 1.327 . S
C2053 C2069 1.429 . S
C2053 H2075 0.950 . S
C2054 H2050 0.949 . S
C2054 C2062 1.574 . S
C2054 C2070 1.368 . S
H2055 C2063 0.950 . S
H2056 C2061 0.950 . S
H2057 C2062 0.949 . S
H2058 C2064 0.950 . S
H2059 C2065 0.950 . S
H2060 C2066 0.949 . S
C2061 H2056 0.950 . S
C2061 C2063 1.327 . S
C2061 C2067 1.429 . S
C2062 C2054 1.574 . S
C2062 H2057 0.949 . S
C2062 C2068 1.368 . S
C2063 C2047 1.349 . S
C2063 H2055 0.950 . S
C2063 C2061 1.327 . S
C2064 C2052 1.349 . S
C2064 H2058 0.950 . S
C2064 C2065 1.327 . S
C2065 H2059 0.950 . S
C2065 C2064 1.327 . S
C2065 C2069 1.429 . S
C2066 C2049 1.574 . S
C2066 H2060 0.949 . S
C2066 C2070 1.368 . S
C2067 C2048 1.429 . S
C2067 C2061 1.429 . S
C2067 C2068 1.523 . S
C2068 C2049 1.368 . S
C2068 C2062 1.368 . S
C2068 C2067 1.523 . S
C2069 C2053 1.429 . S
C2069 C2065 1.429 . S
C2069 C2070 1.523 1_565 S
C2070 C2054 1.368 . S
C2070 C2066 1.368 . S
C2070 C2069 1.523 1_545 S
H2071 C2046 0.950 . S
H2072 C2048 0.950 . S
H2073 C2049 0.949 . S
H2074 C2051 0.950 . S
H2075 C2053 0.950 . S
C2076 C2077 1.349 . S
C2076 C2078 1.327 . S
C2076 H2101 0.950 . S
C2077 C2076 1.349 . S
C2077 C2093 1.349 . S
C2078 C2076 1.327 . S
C2078 C2097 1.429 . S
C2078 H2102 0.950 . S
C2079 C2096 1.574 . S
C2079 C2098 1.368 . S
C2079 H2103 0.949 . S
H2080 C2084 0.949 . S
C2081 C2082 1.349 . S
C2081 C2083 1.327 . S
C2081 H2104 0.950 . S
C2082 C2081 1.349 . S
C2082 C2094 1.349 . S
C2083 C2081 1.327 . S
C2083 C2099 1.429 . S
C2083 H2105 0.950 . S
C2084 H2080 0.949 . S
C2084 C2092 1.574 . S
C2084 C2100 1.368 . S
H2085 C2093 0.950 . S
H2086 C2091 0.950 . S
H2087 C2092 0.949 . S
H2088 C2094 0.950 . S
H2089 C2095 0.950 . S
H2090 C2096 0.949 . S
C2091 H2086 0.950 . S
C2091 C2093 1.327 . S
C2091 C2097 1.429 . S
C2092 C2084 1.574 . S
C2092 H2087 0.949 . S
C2092 C2098 1.368 . S
C2093 C2077 1.349 . S
C2093 H2085 0.950 . S
C2093 C2091 1.327 . S
C2094 C2082 1.349 . S
C2094 H2088 0.950 . S
C2094 C2095 1.327 . S
C2095 H2089 0.950 . S
C2095 C2094 1.327 . S
C2095 C2099 1.429 . S
C2096 C2079 1.574 . S
C2096 H2090 0.949 . S
C2096 C2100 1.368 . S
C2097 C2078 1.429 . S
C2097 C2091 1.429 . S
C2097 C2098 1.523 . S
C2098 C2079 1.368 . S
C2098 C2092 1.368 . S
C2098 C2097 1.523 . S
C2099 C2083 1.429 . S
C2099 C2095 1.429 . S
C2099 C2100 1.523 . S
C2100 C2084 1.368 . S
C2100 C2096 1.368 . S
C2100 C2099 1.523 . S
H2101 C2076 0.950 . S
H2102 C2078 0.950 . S
H2103 C2079 0.949 . S
H2104 C2081 0.950 . S
H2105 C2083 0.950 . S
C2106 C2107 1.349 . S
C2106 C2108 1.327 . S
C2106 H2131 0.950 . S
C2107 C2106 1.349 . S
C2107 C2123 1.349 . S
C2108 C2106 1.327 . S
C2108 C2127 1.429 . S
C2108 H2132 0.950 . S
C2109 C2126 1.574 . S
C2109 C2128 1.368 . S
C2109 H2133 0.949 . S
H2110 C2114 0.949 . S
C2111 C2112 1.349 . S
C2111 C2113 1.327 . S
C2111 H2134 0.950 . S
C2112 C2111 1.349 . S
C2112 C2124 1.349 . S
C2113 C2111 1.327 . S
C2113 C2129 1.429 . S
C2113 H2135 0.950 . S
C2114 H2110 0.949 . S
C2114 C2122 1.574 . S
C2114 C2130 1.368 . S
H2115 C2123 0.950 . S
H2116 C2121 0.950 . S
H2117 C2122 0.949 . S
H2118 C2124 0.950 . S
H2119 C2125 0.950 . S
H2120 C2126 0.949 . S
C2121 H2116 0.950 . S
C2121 C2123 1.327 . S
C2121 C2127 1.429 . S
C2122 C2114 1.574 . S
C2122 H2117 0.949 . S
C2122 C2128 1.368 . S
C2123 C2107 1.349 . S
C2123 H2115 0.950 . S
C2123 C2121 1.327 . S
C2124 C2112 1.349 . S
C2124 H2118 0.950 . S
C2124 C2125 1.327 . S
C2125 H2119 0.950 . S
C2125 C2124 1.327 . S
C2125 C2129 1.429 . S
C2126 C2109 1.574 . S
C2126 H2120 0.949 . S
C2126 C2130 1.368 . S
C2127 C2108 1.429 . S
C2127 C2121 1.429 . S
C2127 C2128 1.523 . S
C2128 C2109 1.368 . S
C2128 C2122 1.368 . S
C2128 C2127 1.523 . S
C2129 C2113 1.429 . S
C2129 C2125 1.429 . S
C2129 C2130 1.523 1_565 S
C2130 C2114 1.368 . S
C2130 C2126 1.368 . S
C2130 C2129 1.523 1_545 S
H2131 C2106 0.950 . S
H2132 C2108 0.950 . S
H2133 C2109 0.949 . S
H2134 C2111 0.950 . S
H2135 C2113 0.950 . S
C2136 C2137 1.375 . S
C2136 C2138 1.327 . S
C2136 H2161 0.950 . S
C2137 C2136 1.375 . S
C2137 C2153 1.323 1_655 S
C2138 C2136 1.327 . S
C2138 C2157 1.431 1_655 S
C2138 H2162 0.950 . S
C2139 C2156 1.574 . S
C2139 C2158 1.384 . S
C2139 H2163 0.949 . S
H2140 C2144 0.949 . S
C2141 C2142 1.349 . S
C2141 C2143 1.327 . S
C2141 H2164 0.950 . S
C2142 C2141 1.349 . S
C2142 C2154 1.349 1_455 S
C2143 C2141 1.327 . S
C2143 C2159 1.429 . S
C2143 H2165 0.950 . S
C2144 H2140 0.949 . S
C2144 C2152 1.574 . S
C2144 C2160 1.368 1_655 S
H2145 C2153 0.950 . S
H2146 C2151 0.950 . S
H2147 C2152 0.949 . S
H2148 C2154 0.950 . S
H2149 C2155 0.950 . S
H2150 C2156 0.949 . S
C2151 H2146 0.950 . S
C2151 C2153 1.327 . S
C2151 C2157 1.426 . S
C2152 C2144 1.574 . S
C2152 H2147 0.949 . S
C2152 C2158 1.354 1_655 S
C2153 C2137 1.323 1_455 S
C2153 H2145 0.950 . S
C2153 C2151 1.327 . S
C2154 C2142 1.349 1_655 S
C2154 H2148 0.950 . S
C2154 C2155 1.327 . S
C2155 H2149 0.950 . S
C2155 C2154 1.327 . S
C2155 C2159 1.429 1_655 S
C2156 C2139 1.574 . S
C2156 H2150 0.949 . S
C2156 C2160 1.368 . S
C2157 C2138 1.431 1_455 S
C2157 C2151 1.426 . S
C2157 C2158 1.523 . S
C2158 C2139 1.384 . S
C2158 C2152 1.354 1_455 S
C2158 C2157 1.523 . S
C2159 C2143 1.429 . S
C2159 C2155 1.429 1_455 S
C2159 C2160 1.523 . S
C2160 C2144 1.368 1_455 S
C2160 C2156 1.368 . S
C2160 C2159 1.523 . S
H2161 C2136 0.950 . S
H2162 C2138 0.950 . S
H2163 C2139 0.949 . S
H2164 C2141 0.950 . S
H2165 C2143 0.950 . S
C2166 C2167 1.349 1_655 S
C2166 C2168 1.327 . S
C2166 H2191 0.950 . S
C2167 C2166 1.349 1_455 S
C2167 C2183 1.349 . S
C2168 C2166 1.327 . S
C2168 C2187 1.429 1_655 S
C2168 H2192 0.950 . S
C2169 C2186 1.574 . S
C2169 C2188 1.368 . S
C2169 H2193 0.949 . S
H2170 C2174 0.949 . S
C2171 C2172 1.349 1_455 S
C2171 C2173 1.327 . S
C2171 H2194 0.950 . S
C2172 C2171 1.349 1_655 S
C2172 C2184 1.349 . S
C2173 C2171 1.327 . S
C2173 C2189 1.413 1_455 S
C2173 H2195 0.950 . S
C2174 H2170 0.949 . S
C2174 C2182 1.574 . S
C2174 C2190 1.368 1_655 S
H2175 C2183 0.950 . S
H2176 C2181 0.950 . S
H2177 C2182 0.949 . S
H2178 C2184 0.950 . S
H2179 C2185 0.950 . S
H2180 C2186 0.949 . S
C2181 H2176 0.950 . S
C2181 C2183 1.327 . S
C2181 C2187 1.429 . S
C2182 C2174 1.574 . S
C2182 H2177 0.949 . S
C2182 C2188 1.368 1_655 S
C2183 C2167 1.349 . S
C2183 H2175 0.950 . S
C2183 C2181 1.327 . S
C2184 C2172 1.349 . S
C2184 H2178 0.950 . S
C2184 C2185 1.327 . S
C2185 H2179 0.950 . S
C2185 C2184 1.327 . S
C2185 C2189 1.446 . S
C2186 C2169 1.574 . S
C2186 H2180 0.949 . S
C2186 C2190 1.368 . S
C2187 C2168 1.429 1_455 S
C2187 C2181 1.429 . S
C2187 C2188 1.523 . S
C2188 C2169 1.368 . S
C2188 C2182 1.368 1_455 S
C2188 C2187 1.523 . S
C2189 C2173 1.413 1_655 S
C2189 C2185 1.446 . S
C2189 C2190 1.522 1_655 S
C2190 C2174 1.368 1_455 S
C2190 C2186 1.368 . S
C2190 C2189 1.522 1_455 S
H2191 C2166 0.950 . S
H2192 C2168 0.950 . S
H2193 C2169 0.949 . S
H2194 C2171 0.950 . S
H2195 C2173 0.950 . S
C2196 C2197 1.311 1_545 S
C2196 C2198 1.327 . S
C2196 H2221 0.950 . S
C2197 C2196 1.311 1_565 S
C2197 C2213 1.387 . S
C2198 C2196 1.327 . S
C2198 C2217 1.425 . S
C2198 H2222 0.950 . S
C2199 C2216 1.574 . S
C2199 C2218 1.347 1_565 S
C2199 H2223 0.949 . S
H2200 C2204 0.949 . S
C2201 C2202 1.349 1_565 S
C2201 C2203 1.327 . S
C2201 H2224 0.950 . S
C2202 C2201 1.349 1_545 S
C2202 C2214 1.349 . S
C2203 C2201 1.327 . S
C2203 C2219 1.429 1_565 S
C2203 H2225 0.950 . S
C2204 H2200 0.949 . S
C2204 C2212 1.574 . S
C2204 C2220 1.368 . S
H2205 C2213 0.950 . S
H2206 C2211 0.950 . S
H2207 C2212 0.949 . S
H2208 C2214 0.950 . S
H2209 C2215 0.950 . S
H2210 C2216 0.949 . S
C2211 H2206 0.950 . S
C2211 C2213 1.327 . S
C2211 C2217 1.432 1_565 S
C2212 C2204 1.574 . S
C2212 H2207 0.949 . S
C2212 C2218 1.391 . S
C2213 C2197 1.387 . S
C2213 H2205 0.950 . S
C2213 C2211 1.327 . S
C2214 C2202 1.349 . S
C2214 H2208 0.950 . S
C2214 C2215 1.327 . S
C2215 H2209 0.950 . S
C2215 C2214 1.327 . S
C2215 C2219 1.429 . S
C2216 C2199 1.574 . S
C2216 H2210 0.949 . S
C2216 C2220 1.368 1_565 S
C2217 C2198 1.425 . S
C2217 C2211 1.432 1_545 S
C2217 C2218 1.523 . S
C2218 C2199 1.347 1_545 S
C2218 C2212 1.391 . S
C2218 C2217 1.523 . S
C2219 C2203 1.429 1_545 S
C2219 C2215 1.429 . S
C2219 C2220 1.523 . S
C2220 C2204 1.368 . S
C2220 C2216 1.368 1_545 S
C2220 C2219 1.523 . S
H2221 C2196 0.950 . S
H2222 C2198 0.950 . S
H2223 C2199 0.949 . S
H2224 C2201 0.950 . S
H2225 C2203 0.950 . S
C2226 C2227 1.349 . S
C2226 C2228 1.327 . S
C2226 H2251 0.950 . S
C2227 C2226 1.349 . S
C2227 C2243 1.349 . S
C2228 C2226 1.327 . S
C2228 C2247 1.429 . S
C2228 H2252 0.950 . S
C2229 C2246 1.574 . S
C2229 C2248 1.368 . S
C2229 H2253 0.949 . S
H2230 C2234 0.949 . S
C2231 C2232 1.349 . S
C2231 C2233 1.327 . S
C2231 H2254 0.950 . S
C2232 C2231 1.349 . S
C2232 C2244 1.349 . S
C2233 C2231 1.327 . S
C2233 C2249 1.429 . S
C2233 H2255 0.950 . S
C2234 H2230 0.949 . S
C2234 C2242 1.574 . S
C2234 C2250 1.368 . S
H2235 C2243 0.950 . S
H2236 C2241 0.950 . S
H2237 C2242 0.949 . S
H2238 C2244 0.950 . S
H2239 C2245 0.950 . S
H2240 C2246 0.949 . S
C2241 H2236 0.950 . S
C2241 C2243 1.327 . S
C2241 C2247 1.429 . S
C2242 C2234 1.574 . S
C2242 H2237 0.949 . S
C2242 C2248 1.368 . S
C2243 C2227 1.349 . S
C2243 H2235 0.950 . S
C2243 C2241 1.327 . S
C2244 C2232 1.349 . S
C2244 H2238 0.950 . S
C2244 C2245 1.327 . S
C2245 H2239 0.950 . S
C2245 C2244 1.327 . S
C2245 C2249 1.429 . S
C2246 C2229 1.574 . S
C2246 H2240 0.949 . S
C2246 C2250 1.368 . S
C2247 C2228 1.429 . S
C2247 C2241 1.429 . S
C2247 C2248 1.523 . S
C2248 C2229 1.368 . S
C2248 C2242 1.368 . S
C2248 C2247 1.523 . S
C2249 C2233 1.429 . S
C2249 C2245 1.429 . S
C2249 C2250 1.523 . S
C2250 C2234 1.368 . S
C2250 C2246 1.368 . S
C2250 C2249 1.523 . S
H2251 C2226 0.950 . S
H2252 C2228 0.950 . S
H2253 C2229 0.949 . S
H2254 C2231 0.950 . S
H2255 C2233 0.950 . S
C2256 C2257 1.349 . S
C2256 C2258 1.327 . S
C2256 H2281 0.950 . S
C2257 C2256 1.349 . S
C2257 C2273 1.349 1_554 S
C2258 C2256 1.327 . S
C2258 C2277 1.429 . S
C2258 H2282 0.950 . S
C2259 C2276 1.574 . S
C2259 C2278 1.368 1_556 S
C2259 H2283 0.949 . S
H2260 C2264 0.949 . S
C2261 C2262 1.349 . S
C2261 C2263 1.327 . S
C2261 H2284 0.950 . S
C2262 C2261 1.349 . S
C2262 C2274 1.349 1_556 S
C2263 C2261 1.327 . S
C2263 C2279 1.430 . S
C2263 H2285 0.950 . S
C2264 H2260 0.949 . S
C2264 C2272 1.574 . S
C2264 C2280 1.373 . S
H2265 C2273 0.950 . S
H2266 C2271 0.950 . S
H2267 C2272 0.949 . S
H2268 C2274 0.950 . S
H2269 C2275 0.950 . S
H2270 C2276 0.949 . S
C2271 H2266 0.950 . S
C2271 C2273 1.327 . S
C2271 C2277 1.429 1_556 S
C2272 C2264 1.574 . S
C2272 H2267 0.949 . S
C2272 C2278 1.368 . S
C2273 C2257 1.349 1_556 S
C2273 H2265 0.950 . S
C2273 C2271 1.327 . S
C2274 C2262 1.349 1_554 S
C2274 H2268 0.950 . S
C2274 C2275 1.327 . S
C2275 H2269 0.950 . S
C2275 C2274 1.327 . S
C2275 C2279 1.427 1_554 S
C2276 C2259 1.574 . S
C2276 H2270 0.949 . S
C2276 C2280 1.364 1_556 S
C2277 C2258 1.429 . S
C2277 C2271 1.429 1_554 S
C2277 C2278 1.523 . S
C2278 C2259 1.368 1_554 S
C2278 C2272 1.368 . S
C2278 C2277 1.523 . S
C2279 C2263 1.430 . S
C2279 C2275 1.427 1_556 S
C2279 C2280 1.523 1_556 S
C2280 C2264 1.373 . S
C2280 C2276 1.364 1_554 S
C2280 C2279 1.523 1_554 S
H2281 C2256 0.950 . S
H2282 C2258 0.950 . S
H2283 C2259 0.949 . S
H2284 C2261 0.950 . S
H2285 C2263 0.950 . S
C2286 C2287 1.349 . S
C2286 C2288 1.327 . S
C2286 H2311 0.950 . S
C2287 C2286 1.349 . S
C2287 C2303 1.349 . S
C2288 C2286 1.327 . S
C2288 C2307 1.429 . S
C2288 H2312 0.950 . S
C2289 C2306 1.574 . S
C2289 C2308 1.368 . S
C2289 H2313 0.949 . S
H2290 C2294 0.949 . S
C2291 C2292 1.349 . S
C2291 C2293 1.327 . S
C2291 H2314 0.950 . S
C2292 C2291 1.349 . S
C2292 C2304 1.349 . S
C2293 C2291 1.327 . S
C2293 C2309 1.429 . S
C2293 H2315 0.950 . S
C2294 H2290 0.949 . S
C2294 C2302 1.574 . S
C2294 C2310 1.368 . S
H2295 C2303 0.950 . S
H2296 C2301 0.950 . S
H2297 C2302 0.949 . S
H2298 C2304 0.950 . S
H2299 C2305 0.950 . S
H2300 C2306 0.949 . S
C2301 H2296 0.950 . S
C2301 C2303 1.327 . S
C2301 C2307 1.429 . S
C2302 C2294 1.574 . S
C2302 H2297 0.949 . S
C2302 C2308 1.368 . S
C2303 C2287 1.349 . S
C2303 H2295 0.950 . S
C2303 C2301 1.327 . S
C2304 C2292 1.349 . S
C2304 H2298 0.950 . S
C2304 C2305 1.327 . S
C2305 H2299 0.950 . S
C2305 C2304 1.327 . S
C2305 C2309 1.429 . S
C2306 C2289 1.574 . S
C2306 H2300 0.949 . S
C2306 C2310 1.368 . S
C2307 C2288 1.429 . S
C2307 C2301 1.429 . S
C2307 C2308 1.523 . S
C2308 C2289 1.368 . S
C2308 C2302 1.368 . S
C2308 C2307 1.523 . S
C2309 C2293 1.429 . S
C2309 C2305 1.429 . S
C2309 C2310 1.523 . S
C2310 C2294 1.368 . S
C2310 C2306 1.368 . S
C2310 C2309 1.523 . S
H2311 C2286 0.950 . S
H2312 C2288 0.950 . S
H2313 C2289 0.949 . S
H2314 C2291 0.950 . S
H2315 C2293 0.950 . S
C2316 C2317 1.349 . S
C2316 C2318 1.327 . S
C2316 H2341 0.950 . S
C2317 C2316 1.349 . S
C2317 C2333 1.349 . S
C2318 C2316 1.327 . S
C2318 C2337 1.429 . S
C2318 H2342 0.950 . S
C2319 C2336 1.574 . S
C2319 C2338 1.368 . S
C2319 H2343 0.949 . S
H2320 C2324 0.949 . S
C2321 C2322 1.349 . S
C2321 C2323 1.327 . S
C2321 H2344 0.950 . S
C2322 C2321 1.349 . S
C2322 C2334 1.349 . S
C2323 C2321 1.327 . S
C2323 C2339 1.429 . S
C2323 H2345 0.950 . S
C2324 H2320 0.949 . S
C2324 C2332 1.574 . S
C2324 C2340 1.368 . S
H2325 C2333 0.950 . S
H2326 C2331 0.950 . S
H2327 C2332 0.949 . S
H2328 C2334 0.950 . S
H2329 C2335 0.950 . S
H2330 C2336 0.949 . S
C2331 H2326 0.950 . S
C2331 C2333 1.327 . S
C2331 C2337 1.429 . S
C2332 C2324 1.574 . S
C2332 H2327 0.949 . S
C2332 C2338 1.368 . S
C2333 C2317 1.349 . S
C2333 H2325 0.950 . S
C2333 C2331 1.327 . S
C2334 C2322 1.349 . S
C2334 H2328 0.950 . S
C2334 C2335 1.327 . S
C2335 H2329 0.950 . S
C2335 C2334 1.327 . S
C2335 C2339 1.429 . S
C2336 C2319 1.574 . S
C2336 H2330 0.949 . S
C2336 C2340 1.368 . S
C2337 C2318 1.429 . S
C2337 C2331 1.429 . S
C2337 C2338 1.523 . S
C2338 C2319 1.368 . S
C2338 C2332 1.368 . S
C2338 C2337 1.523 . S
C2339 C2323 1.429 . S
C2339 C2335 1.429 . S
C2339 C2340 1.523 . S
C2340 C2324 1.368 . S
C2340 C2336 1.368 . S
C2340 C2339 1.523 . S
H2341 C2316 0.950 . S
H2342 C2318 0.950 . S
H2343 C2319 0.949 . S
H2344 C2321 0.950 . S
H2345 C2323 0.950 . S
C2346 C2347 1.349 . S
C2346 C2348 1.327 . S
C2346 H2371 0.950 . S
C2347 C2346 1.349 . S
C2347 C2363 1.349 . S
C2348 C2346 1.327 . S
C2348 C2367 1.429 . S
C2348 H2372 0.950 . S
C2349 C2366 1.574 . S
C2349 C2368 1.368 . S
C2349 H2373 0.949 . S
H2350 C2354 0.949 . S
C2351 C2352 1.349 . S
C2351 C2353 1.327 . S
C2351 H2374 0.950 . S
C2352 C2351 1.349 . S
C2352 C2364 1.349 . S
C2353 C2351 1.327 . S
C2353 C2369 1.429 . S
C2353 H2375 0.950 . S
C2354 H2350 0.949 . S
C2354 C2362 1.574 . S
C2354 C2370 1.368 . S
H2355 C2363 0.950 . S
H2356 C2361 0.950 . S
H2357 C2362 0.949 . S
H2358 C2364 0.950 . S
H2359 C2365 0.950 . S
H2360 C2366 0.949 . S
C2361 H2356 0.950 . S
C2361 C2363 1.327 . S
C2361 C2367 1.429 . S
C2362 C2354 1.574 . S
C2362 H2357 0.949 . S
C2362 C2368 1.368 . S
C2363 C2347 1.349 . S
C2363 H2355 0.950 . S
C2363 C2361 1.327 . S
C2364 C2352 1.349 . S
C2364 H2358 0.950 . S
C2364 C2365 1.327 . S
C2365 H2359 0.950 . S
C2365 C2364 1.327 . S
C2365 C2369 1.429 . S
C2366 C2349 1.574 . S
C2366 H2360 0.949 . S
C2366 C2370 1.368 . S
C2367 C2348 1.429 . S
C2367 C2361 1.429 . S
C2367 C2368 1.523 . S
C2368 C2349 1.368 . S
C2368 C2362 1.368 . S
C2368 C2367 1.523 . S
C2369 C2353 1.429 . S
C2369 C2365 1.429 . S
C2369 C2370 1.523 . S
C2370 C2354 1.368 . S
C2370 C2366 1.368 . S
C2370 C2369 1.523 . S
H2371 C2346 0.950 . S
H2372 C2348 0.950 . S
H2373 C2349 0.949 . S
H2374 C2351 0.950 . S
H2375 C2353 0.950 . S
C2376 C2377 1.349 . S
C2376 C2378 1.327 . S
C2376 H2401 0.950 . S
C2377 C2376 1.349 . S
C2377 C2393 1.349 . S
C2378 C2376 1.327 . S
C2378 C2397 1.429 . S
C2378 H2402 0.950 . S
C2379 C2396 1.574 . S
C2379 C2398 1.368 . S
C2379 H2403 0.949 . S
H2380 C2384 0.949 . S
C2381 C2382 1.349 . S
C2381 C2383 1.327 . S
C2381 H2404 0.950 . S
C2382 C2381 1.349 . S
C2382 C2394 1.349 . S
C2383 C2381 1.327 . S
C2383 C2399 1.429 . S
C2383 H2405 0.950 . S
C2384 H2380 0.949 . S
C2384 C2392 1.574 . S
C2384 C2400 1.368 . S
H2385 C2393 0.950 . S
H2386 C2391 0.950 . S
H2387 C2392 0.949 . S
H2388 C2394 0.950 . S
H2389 C2395 0.950 . S
H2390 C2396 0.949 . S
C2391 H2386 0.950 . S
C2391 C2393 1.327 . S
C2391 C2397 1.429 . S
C2392 C2384 1.574 . S
C2392 H2387 0.949 . S
C2392 C2398 1.368 . S
C2393 C2377 1.349 . S
C2393 H2385 0.950 . S
C2393 C2391 1.327 . S
C2394 C2382 1.349 . S
C2394 H2388 0.950 . S
C2394 C2395 1.327 . S
C2395 H2389 0.950 . S
C2395 C2394 1.327 . S
C2395 C2399 1.429 . S
C2396 C2379 1.574 . S
C2396 H2390 0.949 . S
C2396 C2400 1.368 . S
C2397 C2378 1.429 . S
C2397 C2391 1.429 . S
C2397 C2398 1.523 . S
C2398 C2379 1.368 . S
C2398 C2392 1.368 . S
C2398 C2397 1.523 . S
C2399 C2383 1.429 . S
C2399 C2395 1.429 . S
C2399 C2400 1.523 . S
C2400 C2384 1.368 . S
C2400 C2396 1.368 . S
C2400 C2399 1.523 . S
H2401 C2376 0.950 . S
H2402 C2378 0.950 . S
H2403 C2379 0.949 . S
H2404 C2381 0.950 . S
H2405 C2383 0.950 . S
C2406 C2407 1.349 . S
C2406 C2408 1.327 . S
C2406 H2431 0.950 . S
C2407 C2406 1.349 . S
C2407 C2423 1.349 . S
C2408 C2406 1.327 . S
C2408 C2427 1.429 . S
C2408 H2432 0.950 . S
C2409 C2426 1.574 . S
C2409 C2428 1.368 . S
C2409 H2433 0.949 . S
H2410 C2414 0.949 . S
C2411 C2412 1.349 . S
C2411 C2413 1.327 . S
C2411 H2434 0.950 . S
C2412 C2411 1.349 . S
C2412 C2424 1.349 . S
C2413 C2411 1.327 . S
C2413 C2429 1.429 . S
C2413 H2435 0.950 . S
C2414 H2410 0.949 . S
C2414 C2422 1.574 . S
C2414 C2430 1.368 . S
H2415 C2423 0.950 . S
H2416 C2421 0.950 . S
H2417 C2422 0.949 . S
H2418 C2424 0.950 . S
H2419 C2425 0.950 . S
H2420 C2426 0.949 . S
C2421 H2416 0.950 . S
C2421 C2423 1.327 . S
C2421 C2427 1.429 . S
C2422 C2414 1.574 . S
C2422 H2417 0.949 . S
C2422 C2428 1.368 . S
C2423 C2407 1.349 . S
C2423 H2415 0.950 . S
C2423 C2421 1.327 . S
C2424 C2412 1.349 . S
C2424 H2418 0.950 . S
C2424 C2425 1.327 . S
C2425 H2419 0.950 . S
C2425 C2424 1.327 . S
C2425 C2429 1.429 . S
C2426 C2409 1.574 . S
C2426 H2420 0.949 . S
C2426 C2430 1.368 . S
C2427 C2408 1.429 . S
C2427 C2421 1.429 . S
C2427 C2428 1.523 . S
C2428 C2409 1.368 . S
C2428 C2422 1.368 . S
C2428 C2427 1.523 . S
C2429 C2413 1.429 . S
C2429 C2425 1.429 . S
C2429 C2430 1.523 . S
C2430 C2414 1.368 . S
C2430 C2426 1.368 . S
C2430 C2429 1.523 . S
H2431 C2406 0.950 . S
H2432 C2408 0.950 . S
H2433 C2409 0.949 . S
H2434 C2411 0.950 . S
H2435 C2413 0.950 . S
C2436 C2437 1.349 1_565 S
C2436 C2438 1.327 . S
C2436 H2461 0.950 . S
C2437 C2436 1.349 1_545 S
C2437 C2453 1.349 . S
C2438 C2436 1.327 . S
C2438 C2457 1.429 1_565 S
C2438 H2462 0.950 . S
C2439 C2456 1.574 . S
C2439 C2458 1.368 . S
C2439 H2463 0.949 . S
H2440 C2444 0.949 . S
C2441 C2442 1.349 1_545 S
C2441 C2443 1.327 . S
C2441 H2464 0.950 . S
C2442 C2441 1.349 1_565 S
C2442 C2454 1.349 . S
C2443 C2441 1.327 . S
C2443 C2459 1.407 1_545 S
C2443 H2465 0.950 . S
C2444 H2440 0.949 . S
C2444 C2452 1.574 . S
C2444 C2460 1.369 1_565 S
H2445 C2453 0.950 . S
H2446 C2451 0.950 . S
H2447 C2452 0.949 . S
H2448 C2454 0.950 . S
H2449 C2455 0.950 . S
H2450 C2456 0.949 . S
C2451 H2446 0.950 . S
C2451 C2453 1.327 . S
C2451 C2457 1.429 . S
C2452 C2444 1.574 . S
C2452 H2447 0.949 . S
C2452 C2458 1.368 1_565 S
C2453 C2437 1.349 . S
C2453 H2445 0.950 . S
C2453 C2451 1.327 . S
C2454 C2442 1.349 . S
C2454 H2448 0.950 . S
C2454 C2455 1.327 . S
C2455 H2449 0.950 . S
C2455 C2454 1.327 . S
C2455 C2459 1.451 . S
C2456 C2439 1.574 . S
C2456 H2450 0.949 . S
C2456 C2460 1.368 . S
C2457 C2438 1.429 1_545 S
C2457 C2451 1.429 . S
C2457 C2458 1.523 . S
C2458 C2439 1.368 . S
C2458 C2452 1.368 1_545 S
C2458 C2457 1.523 . S
C2459 C2443 1.407 1_565 S
C2459 C2455 1.451 . S
C2459 C2460 1.522 1_565 S
C2460 C2444 1.369 1_545 S
C2460 C2456 1.368 . S
C2460 C2459 1.522 1_545 S
H2461 C2436 0.950 . S
H2462 C2438 0.950 . S
H2463 C2439 0.949 . S
H2464 C2441 0.950 . S
H2465 C2443 0.950 . S
C2466 C2467 1.349 . S
C2466 C2468 1.327 . S
C2466 H2491 0.950 . S
C2467 C2466 1.349 . S
C2467 C2483 1.349 1_556 S
C2468 C2466 1.327 . S
C2468 C2487 1.445 . S
C2468 H2492 0.950 . S
C2469 C2486 1.574 . S
C2469 C2488 1.380 . S
C2469 H2493 0.949 . S
H2470 C2474 0.949 . S
C2471 C2472 1.349 . S
C2471 C2473 1.327 . S
C2471 H2494 0.950 . S
C2472 C2471 1.349 . S
C2472 C2484 1.349 1_554 S
C2473 C2471 1.327 . S
C2473 C2489 1.429 . S
C2473 H2495 0.950 . S
C2474 H2470 0.949 . S
C2474 C2482 1.574 . S
C2474 C2490 1.368 1_556 S
H2475 C2483 0.950 . S
H2476 C2481 0.950 . S
H2477 C2482 0.949 . S
H2478 C2484 0.950 . S
H2479 C2485 0.950 . S
H2480 C2486 0.949 . S
C2481 H2476 0.950 . S
C2481 C2483 1.327 . S
C2481 C2487 1.413 1_554 S
C2482 C2474 1.574 . S
C2482 H2477 0.949 . S
C2482 C2488 1.357 1_556 S
C2483 C2467 1.349 1_554 S
C2483 H2475 0.950 . S
C2483 C2481 1.327 . S
C2484 C2472 1.349 1_556 S
C2484 H2478 0.950 . S
C2484 C2485 1.327 . S
C2485 H2479 0.950 . S
C2485 C2484 1.327 . S
C2485 C2489 1.429 1_556 S
C2486 C2469 1.574 . S
C2486 H2480 0.949 . S
C2486 C2490 1.368 . S
C2487 C2468 1.445 . S
C2487 C2481 1.413 1_556 S
C2487 C2488 1.522 1_556 S
C2488 C2469 1.380 . S
C2488 C2482 1.357 1_554 S
C2488 C2487 1.522 1_554 S
C2489 C2473 1.429 . S
C2489 C2485 1.429 1_554 S
C2489 C2490 1.523 . S
C2490 C2474 1.368 1_554 S
C2490 C2486 1.368 . S
C2490 C2489 1.523 . S
H2491 C2466 0.950 . S
H2492 C2468 0.950 . S
H2493 C2469 0.949 . S
H2494 C2471 0.950 . S
H2495 C2473 0.950 . S
C2496 C2497 1.349 1_455 S
C2496 C2498 1.327 . S
C2496 H2521 0.950 . S
C2497 C2496 1.349 1_655 S
C2497 C2513 1.349 . S
C2498 C2496 1.327 . S
C2498 C2517 1.429 1_455 S
C2498 H2522 0.950 . S
C2499 C2516 1.574 1_565 S
C2499 C2518 1.368 . S
C2499 H2523 0.949 . S
H2500 C2504 0.951 . S
C2501 C2502 1.349 . S
C2501 C2503 1.327 . S
C2501 H2524 0.950 . S
C2502 C2501 1.349 . S
C2502 C2514 1.349 1_655 S
C2503 C2501 1.327 . S
C2503 C2519 1.429 . S
C2503 H2525 0.950 . S
C2504 H2500 0.951 . S
C2504 C2512 1.574 . S
C2504 C2520 1.368 1_465 S
H2505 C2513 0.950 . S
H2506 C2511 0.950 . S
H2507 C2512 0.949 . S
H2508 C2514 0.950 . S
H2509 C2515 0.950 . S
H2510 C2516 0.949 . S
C2511 H2506 0.950 . S
C2511 C2513 1.327 . S
C2511 C2517 1.429 . S
C2512 C2504 1.574 . S
C2512 H2507 0.949 . S
C2512 C2518 1.368 1_455 S
C2513 C2497 1.349 . S
C2513 H2505 0.950 . S
C2513 C2511 1.327 . S
C2514 C2502 1.349 1_455 S
C2514 H2508 0.950 . S
C2514 C2515 1.327 . S
C2515 H2509 0.950 . S
C2515 C2514 1.327 . S
C2515 C2519 1.429 1_455 S
C2516 C2499 1.574 1_545 S
C2516 H2510 0.949 . S
C2516 C2520 1.368 . S
C2517 C2498 1.429 1_655 S
C2517 C2511 1.429 . S
C2517 C2518 1.523 . S
C2518 C2499 1.368 . S
C2518 C2512 1.368 1_655 S
C2518 C2517 1.523 . S
C2519 C2503 1.429 . S
C2519 C2515 1.429 1_655 S
C2519 C2520 1.523 . S
C2520 C2504 1.368 1_645 S
C2520 C2516 1.368 . S
C2520 C2519 1.523 . S
H2521 C2496 0.950 . S
H2522 C2498 0.950 . S
H2523 C2499 0.949 . S
H2524 C2501 0.950 . S
H2525 C2503 0.950 . S
C2526 C2527 1.349 1_655 S
C2526 C2528 1.327 . S
C2526 H2551 0.950 . S
C2527 C2526 1.349 1_455 S
C2527 C2543 1.349 . S
C2528 C2526 1.327 . S
C2528 C2547 1.429 1_655 S
C2528 H2552 0.950 . S
C2529 C2546 1.574 . S
C2529 C2548 1.368 . S
C2529 H2553 0.949 . S
H2530 C2534 0.949 . S
C2531 C2532 1.349 . S
C2531 C2533 1.327 . S
C2531 H2554 0.950 . S
C2532 C2531 1.349 . S
C2532 C2544 1.349 1_455 S
C2533 C2531 1.327 . S
C2533 C2549 1.429 . S
C2533 H2555 0.950 . S
C2534 H2530 0.949 . S
C2534 C2542 1.574 . S
C2534 C2550 1.368 1_655 S
H2535 C2543 0.950 . S
H2536 C2541 0.950 . S
H2537 C2542 0.949 . S
H2538 C2544 0.950 . S
H2539 C2545 0.950 . S
H2540 C2546 0.949 . S
C2541 H2536 0.950 . S
C2541 C2543 1.327 . S
C2541 C2547 1.429 . S
C2542 C2534 1.574 . S
C2542 H2537 0.949 . S
C2542 C2548 1.368 1_655 S
C2543 C2527 1.349 . S
C2543 H2535 0.950 . S
C2543 C2541 1.327 . S
C2544 C2532 1.349 1_655 S
C2544 H2538 0.950 . S
C2544 C2545 1.327 . S
C2545 H2539 0.950 . S
C2545 C2544 1.327 . S
C2545 C2549 1.429 1_655 S
C2546 C2529 1.574 . S
C2546 H2540 0.949 . S
C2546 C2550 1.368 . S
C2547 C2528 1.429 1_455 S
C2547 C2541 1.429 . S
C2547 C2548 1.523 . S
C2548 C2529 1.368 . S
C2548 C2542 1.368 1_455 S
C2548 C2547 1.523 . S
C2549 C2533 1.429 . S
C2549 C2545 1.429 1_455 S
C2549 C2550 1.523 . S
C2550 C2534 1.368 1_455 S
C2550 C2546 1.368 . S
C2550 C2549 1.523 . S
H2551 C2526 0.950 . S
H2552 C2528 0.950 . S
H2553 C2529 0.949 . S
H2554 C2531 0.950 . S
H2555 C2533 0.950 . S
C2556 C2557 1.349 1_545 S
C2556 C2558 1.327 . S
C2556 H2581 0.950 . S
C2557 C2556 1.349 1_565 S
C2557 C2573 1.349 . S
C2558 C2556 1.327 . S
C2558 C2577 1.429 1_545 S
C2558 H2582 0.950 . S
C2559 C2576 1.574 . S
C2559 C2578 1.368 . S
C2559 H2583 0.949 . S
H2560 C2564 0.949 . S
C2561 C2562 1.349 . S
C2561 C2563 1.327 . S
C2561 H2584 0.950 . S
C2562 C2561 1.349 . S
C2562 C2574 1.349 1_565 S
C2563 C2561 1.327 . S
C2563 C2579 1.429 . S
C2563 H2585 0.950 . S
C2564 H2560 0.949 . S
C2564 C2572 1.574 1_554 S
C2564 C2580 1.368 1_545 S
H2565 C2573 0.950 . S
H2566 C2571 0.950 . S
H2567 C2572 0.951 . S
H2568 C2574 0.950 . S
H2569 C2575 0.950 . S
H2570 C2576 0.949 . S
C2571 H2566 0.950 . S
C2571 C2573 1.327 . S
C2571 C2577 1.429 . S
C2572 C2564 1.574 1_556 S
C2572 H2567 0.951 . S
C2572 C2578 1.368 1_545 S
C2573 C2557 1.349 . S
C2573 H2565 0.950 . S
C2573 C2571 1.327 . S
C2574 C2562 1.349 1_545 S
C2574 H2568 0.950 . S
C2574 C2575 1.327 . S
C2575 H2569 0.950 . S
C2575 C2574 1.327 . S
C2575 C2579 1.429 1_545 S
C2576 C2559 1.574 . S
C2576 H2570 0.949 . S
C2576 C2580 1.368 1_556 S
C2577 C2558 1.429 1_565 S
C2577 C2571 1.429 . S
C2577 C2578 1.523 . S
C2578 C2559 1.368 . S
C2578 C2572 1.368 1_565 S
C2578 C2577 1.523 . S
C2579 C2563 1.429 . S
C2579 C2575 1.429 1_565 S
C2579 C2580 1.523 . S
C2580 C2564 1.368 1_565 S
C2580 C2576 1.368 1_554 S
C2580 C2579 1.523 . S
H2581 C2556 0.950 . S
H2582 C2558 0.950 . S
H2583 C2559 0.949 . S
H2584 C2561 0.950 . S
H2585 C2563 0.950 . S
C2586 C2587 1.349 . S
C2586 C2588 1.327 . S
C2586 H2611 0.950 . S
C2587 C2586 1.349 . S
C2587 C2603 1.349 . S
C2588 C2586 1.327 . S
C2588 C2607 1.429 . S
C2588 H2612 0.950 . S
C2589 C2606 1.574 . S
C2589 C2608 1.368 1_556 S
C2589 H2613 0.949 . S
H2590 C2594 0.949 . S
C2591 C2592 1.349 . S
C2591 C2593 1.327 . S
C2591 H2614 0.950 . S
C2592 C2591 1.349 . S
C2592 C2604 1.349 . S
C2593 C2591 1.327 . S
C2593 C2609 1.429 . S
C2593 H2615 0.950 . S
C2594 H2590 0.949 . S
C2594 C2602 1.574 . S
C2594 C2610 1.368 1_554 S
H2595 C2603 0.950 . S
H2596 C2601 0.950 . S
H2597 C2602 0.949 . S
H2598 C2604 0.950 . S
H2599 C2605 0.950 . S
H2600 C2606 0.949 . S
C2601 H2596 0.950 . S
C2601 C2603 1.327 . S
C2601 C2607 1.429 . S
C2602 C2594 1.574 . S
C2602 H2597 0.949 . S
C2602 C2608 1.368 . S
C2603 C2587 1.349 . S
C2603 H2595 0.950 . S
C2603 C2601 1.327 . S
C2604 C2592 1.349 . S
C2604 H2598 0.950 . S
C2604 C2605 1.327 . S
C2605 H2599 0.950 . S
C2605 C2604 1.327 . S
C2605 C2609 1.429 . S
C2606 C2589 1.574 . S
C2606 H2600 0.949 . S
C2606 C2610 1.368 . S
C2607 C2588 1.429 . S
C2607 C2601 1.429 . S
C2607 C2608 1.523 . S
C2608 C2589 1.368 1_554 S
C2608 C2602 1.368 . S
C2608 C2607 1.523 . S
C2609 C2593 1.429 . S
C2609 C2605 1.429 . S
C2609 C2610 1.523 . S
C2610 C2594 1.368 1_556 S
C2610 C2606 1.368 . S
C2610 C2609 1.523 . S
H2611 C2586 0.950 . S
H2612 C2588 0.950 . S
H2613 C2589 0.949 . S
H2614 C2591 0.950 . S
H2615 C2593 0.950 . S
C2616 C2617 1.349 . S
C2616 C2618 1.327 . S
C2616 H2641 0.950 . S
C2617 C2616 1.349 . S
C2617 C2633 1.349 1_545 S
C2618 C2616 1.327 . S
C2618 C2637 1.429 . S
C2618 H2642 0.950 . S
C2619 C2636 1.574 . S
C2619 C2638 1.368 1_565 S
C2619 H2643 0.949 . S
H2620 C2624 0.949 . S
C2621 C2622 1.349 1_565 S
C2621 C2623 1.327 . S
C2621 H2644 0.950 . S
C2622 C2621 1.349 1_545 S
C2622 C2634 1.349 . S
C2623 C2621 1.327 . S
C2623 C2639 1.429 1_565 S
C2623 H2645 0.950 . S
C2624 H2620 0.949 . S
C2624 C2632 1.574 . S
C2624 C2640 1.368 . S
H2625 C2633 0.950 . S
H2626 C2631 0.950 . S
H2627 C2632 0.949 . S
H2628 C2634 0.950 . S
H2629 C2635 0.950 . S
H2630 C2636 0.949 . S
C2631 H2626 0.950 . S
C2631 C2633 1.327 . S
C2631 C2637 1.429 1_565 S
C2632 C2624 1.574 . S
C2632 H2627 0.949 . S
C2632 C2638 1.368 . S
C2633 C2617 1.349 1_565 S
C2633 H2625 0.950 . S
C2633 C2631 1.327 . S
C2634 C2622 1.349 . S
C2634 H2628 0.950 . S
C2634 C2635 1.327 . S
C2635 H2629 0.950 . S
C2635 C2634 1.327 . S
C2635 C2639 1.429 . S
C2636 C2619 1.574 . S
C2636 H2630 0.949 . S
C2636 C2640 1.368 1_565 S
C2637 C2618 1.429 . S
C2637 C2631 1.429 1_545 S
C2637 C2638 1.523 . S
C2638 C2619 1.368 1_545 S
C2638 C2632 1.368 . S
C2638 C2637 1.523 . S
C2639 C2623 1.429 1_545 S
C2639 C2635 1.429 . S
C2639 C2640 1.523 . S
C2640 C2624 1.368 . S
C2640 C2636 1.368 1_545 S
C2640 C2639 1.523 . S
H2641 C2616 0.950 . S
H2642 C2618 0.950 . S
H2643 C2619 0.949 . S
H2644 C2621 0.950 . S
H2645 C2623 0.950 . S
C2646 C2647 1.349 . S
C2646 C2648 1.327 . S
C2646 H2671 0.950 . S
C2647 C2646 1.349 . S
C2647 C2663 1.349 . S
C2648 C2646 1.327 . S
C2648 C2667 1.429 . S
C2648 H2672 0.950 . S
C2649 C2666 1.574 . S
C2649 C2668 1.368 . S
C2649 H2673 0.949 . S
H2650 C2654 0.949 . S
C2651 C2652 1.349 . S
C2651 C2653 1.327 . S
C2651 H2674 0.950 . S
C2652 C2651 1.349 . S
C2652 C2664 1.349 . S
C2653 C2651 1.327 . S
C2653 C2669 1.429 . S
C2653 H2675 0.950 . S
C2654 H2650 0.949 . S
C2654 C2662 1.574 . S
C2654 C2670 1.368 . S
H2655 C2663 0.950 . S
H2656 C2661 0.950 . S
H2657 C2662 0.949 . S
H2658 C2664 0.950 . S
H2659 C2665 0.950 . S
H2660 C2666 0.949 . S
C2661 H2656 0.950 . S
C2661 C2663 1.327 . S
C2661 C2667 1.429 . S
C2662 C2654 1.574 . S
C2662 H2657 0.949 . S
C2662 C2668 1.368 . S
C2663 C2647 1.349 . S
C2663 H2655 0.950 . S
C2663 C2661 1.327 . S
C2664 C2652 1.349 . S
C2664 H2658 0.950 . S
C2664 C2665 1.327 . S
C2665 H2659 0.950 . S
C2665 C2664 1.327 . S
C2665 C2669 1.429 . S
C2666 C2649 1.574 . S
C2666 H2660 0.949 . S
C2666 C2670 1.368 . S
C2667 C2648 1.429 . S
C2667 C2661 1.429 . S
C2667 C2668 1.523 . S
C2668 C2649 1.368 . S
C2668 C2662 1.368 . S
C2668 C2667 1.523 . S
C2669 C2653 1.429 . S
C2669 C2665 1.429 . S
C2669 C2670 1.523 . S
C2670 C2654 1.368 . S
C2670 C2666 1.368 . S
C2670 C2669 1.523 . S
H2671 C2646 0.950 . S
H2672 C2648 0.950 . S
H2673 C2649 0.949 . S
H2674 C2651 0.950 . S
H2675 C2653 0.950 . S
C2676 C2677 1.349 . S
C2676 C2678 1.327 . S
C2676 H2701 0.950 . S
C2677 C2676 1.349 . S
C2677 C2693 1.349 1_556 S
C2678 C2676 1.327 . S
C2678 C2697 1.429 . S
C2678 H2702 0.950 . S
C2679 C2696 1.574 . S
C2679 C2698 1.368 1_654 S
C2679 H2703 0.949 . S
H2680 C2684 0.949 . S
C2681 C2682 1.349 1_554 S
C2681 C2683 1.327 . S
C2681 H2704 0.950 . S
C2682 C2681 1.349 1_556 S
C2682 C2694 1.349 . S
C2683 C2681 1.327 . S
C2683 C2699 1.429 1_554 S
C2683 H2705 0.950 . S
C2684 H2680 0.949 . S
C2684 C2692 1.536 1_655 S
C2684 C2700 1.408 . S
H2685 C2693 0.950 . S
H2686 C2691 0.950 . S
H2687 C2692 0.949 . S
H2688 C2694 0.950 . S
H2689 C2695 0.950 . S
H2690 C2696 0.949 . S
C2691 H2686 0.950 . S
C2691 C2693 1.327 . S
C2691 C2697 1.429 1_554 S
C2692 C2684 1.536 1_455 S
C2692 H2687 0.949 . S
C2692 C2698 1.368 . S
C2693 C2677 1.349 1_554 S
C2693 H2685 0.950 . S
C2693 C2691 1.327 . S
C2694 C2682 1.349 . S
C2694 H2688 0.950 . S
C2694 C2695 1.327 . S
C2695 H2689 0.950 . S
C2695 C2694 1.327 . S
C2695 C2699 1.429 . S
C2696 C2679 1.574 . S
C2696 H2690 0.949 . S
C2696 C2700 1.368 1_554 S
C2697 C2678 1.429 . S
C2697 C2691 1.429 1_556 S
C2697 C2698 1.523 . S
C2698 C2679 1.368 1_456 S
C2698 C2692 1.368 . S
C2698 C2697 1.523 . S
C2699 C2683 1.429 1_556 S
C2699 C2695 1.429 . S
C2699 C2700 1.523 . S
C2700 C2684 1.408 . S
C2700 C2696 1.368 1_556 S
C2700 C2699 1.523 . S
H2701 C2676 0.950 . S
H2702 C2678 0.950 . S
H2703 C2679 0.949 . S
H2704 C2681 0.950 . S
H2705 C2683 0.950 . S
C2706 C2707 1.349 . S
C2706 C2708 1.327 . S
C2706 H2731 0.950 . S
C2707 C2706 1.349 . S
C2707 C2723 1.349 . S
C2708 C2706 1.327 . S
C2708 C2727 1.429 . S
C2708 H2732 0.950 . S
C2709 C2726 1.574 . S
C2709 C2728 1.368 1_655 S
C2709 H2733 0.949 . S
H2710 C2714 0.949 . S
C2711 C2712 1.349 . S
C2711 C2713 1.327 . S
C2711 H2734 0.950 . S
C2712 C2711 1.349 . S
C2712 C2724 1.349 . S
C2713 C2711 1.327 . S
C2713 C2729 1.429 . S
C2713 H2735 0.950 . S
C2714 H2710 0.949 . S
C2714 C2722 1.574 1_655 S
C2714 C2730 1.368 . S
H2715 C2723 0.950 . S
H2716 C2721 0.950 . S
H2717 C2722 0.949 . S
H2718 C2724 0.950 . S
H2719 C2725 0.950 . S
H2720 C2726 0.949 . S
C2721 H2716 0.950 . S
C2721 C2723 1.327 . S
C2721 C2727 1.429 . S
C2722 C2714 1.574 1_455 S
C2722 H2717 0.949 . S
C2722 C2728 1.368 . S
C2723 C2707 1.349 . S
C2723 H2715 0.950 . S
C2723 C2721 1.327 . S
C2724 C2712 1.349 . S
C2724 H2718 0.950 . S
C2724 C2725 1.327 . S
C2725 H2719 0.950 . S
C2725 C2724 1.327 . S
C2725 C2729 1.429 . S
C2726 C2709 1.574 . S
C2726 H2720 0.949 . S
C2726 C2730 1.368 . S
C2727 C2708 1.429 . S
C2727 C2721 1.429 . S
C2727 C2728 1.523 . S
C2728 C2709 1.368 1_455 S
C2728 C2722 1.368 . S
C2728 C2727 1.523 . S
C2729 C2713 1.429 . S
C2729 C2725 1.429 . S
C2729 C2730 1.523 . S
C2730 C2714 1.368 . S
C2730 C2726 1.368 . S
C2730 C2729 1.523 . S
H2731 C2706 0.950 . S
H2732 C2708 0.950 . S
H2733 C2709 0.949 . S
H2734 C2711 0.950 . S
H2735 C2713 0.950 . S
C2736 C2737 1.349 . S
C2736 C2738 1.327 . S
C2736 H2761 0.950 . S
C2737 C2736 1.349 . S
C2737 C2753 1.349 . S
C2738 C2736 1.327 . S
C2738 C2757 1.429 . S
C2738 H2762 0.950 . S
C2739 C2756 1.574 . S
C2739 C2758 1.368 . S
C2739 H2763 0.949 . S
H2740 C2744 0.949 . S
C2741 C2742 1.349 . S
C2741 C2743 1.327 . S
C2741 H2764 0.950 . S
C2742 C2741 1.349 . S
C2742 C2754 1.349 . S
C2743 C2741 1.327 . S
C2743 C2759 1.429 . S
C2743 H2765 0.950 . S
C2744 H2740 0.949 . S
C2744 C2752 1.574 . S
C2744 C2760 1.368 . S
H2745 C2753 0.950 . S
H2746 C2751 0.950 . S
H2747 C2752 0.949 . S
H2748 C2754 0.950 . S
H2749 C2755 0.950 . S
H2750 C2756 0.949 . S
C2751 H2746 0.950 . S
C2751 C2753 1.327 . S
C2751 C2757 1.429 . S
C2752 C2744 1.574 . S
C2752 H2747 0.949 . S
C2752 C2758 1.368 . S
C2753 C2737 1.349 . S
C2753 H2745 0.950 . S
C2753 C2751 1.327 . S
C2754 C2742 1.349 . S
C2754 H2748 0.950 . S
C2754 C2755 1.327 . S
C2755 H2749 0.950 . S
C2755 C2754 1.327 . S
C2755 C2759 1.429 . S
C2756 C2739 1.574 . S
C2756 H2750 0.949 . S
C2756 C2760 1.368 . S
C2757 C2738 1.429 . S
C2757 C2751 1.429 . S
C2757 C2758 1.523 . S
C2758 C2739 1.368 . S
C2758 C2752 1.368 . S
C2758 C2757 1.523 . S
C2759 C2743 1.429 . S
C2759 C2755 1.429 . S
C2759 C2760 1.523 . S
C2760 C2744 1.368 . S
C2760 C2756 1.368 . S
C2760 C2759 1.523 . S
H2761 C2736 0.950 . S
H2762 C2738 0.950 . S
H2763 C2739 0.949 . S
H2764 C2741 0.950 . S
H2765 C2743 0.950 . S
C2766 C2767 1.349 . S
C2766 C2768 1.327 . S
C2766 H2791 0.950 . S
C2767 C2766 1.349 . S
C2767 C2783 1.349 . S
C2768 C2766 1.327 . S
C2768 C2787 1.429 . S
C2768 H2792 0.950 . S
C2769 C2786 1.574 . S
C2769 C2788 1.368 . S
C2769 H2793 0.949 . S
H2770 C2774 0.949 . S
C2771 C2772 1.349 . S
C2771 C2773 1.327 . S
C2771 H2794 0.950 . S
C2772 C2771 1.349 . S
C2772 C2784 1.349 . S
C2773 C2771 1.327 . S
C2773 C2789 1.429 . S
C2773 H2795 0.950 . S
C2774 H2770 0.949 . S
C2774 C2782 1.574 . S
C2774 C2790 1.368 . S
H2775 C2783 0.950 . S
H2776 C2781 0.950 . S
H2777 C2782 0.949 . S
H2778 C2784 0.950 . S
H2779 C2785 0.950 . S
H2780 C2786 0.949 . S
C2781 H2776 0.950 . S
C2781 C2783 1.327 . S
C2781 C2787 1.429 . S
C2782 C2774 1.574 . S
C2782 H2777 0.949 . S
C2782 C2788 1.368 . S
C2783 C2767 1.349 . S
C2783 H2775 0.950 . S
C2783 C2781 1.327 . S
C2784 C2772 1.349 . S
C2784 H2778 0.950 . S
C2784 C2785 1.327 . S
C2785 H2779 0.950 . S
C2785 C2784 1.327 . S
C2785 C2789 1.429 . S
C2786 C2769 1.574 . S
C2786 H2780 0.949 . S
C2786 C2790 1.368 . S
C2787 C2768 1.429 . S
C2787 C2781 1.429 . S
C2787 C2788 1.523 . S
C2788 C2769 1.368 . S
C2788 C2782 1.368 . S
C2788 C2787 1.523 . S
C2789 C2773 1.429 . S
C2789 C2785 1.429 . S
C2789 C2790 1.523 . S
C2790 C2774 1.368 . S
C2790 C2786 1.368 . S
C2790 C2789 1.523 . S
H2791 C2766 0.950 . S
H2792 C2768 0.950 . S
H2793 C2769 0.949 . S
H2794 C2771 0.950 . S
H2795 C2773 0.950 . S
C2796 C2797 1.349 . S
C2796 C2798 1.327 . S
C2796 H2821 0.950 . S
C2797 C2796 1.349 . S
C2797 C2813 1.349 . S
C2798 C2796 1.327 . S
C2798 C2817 1.429 . S
C2798 H2822 0.950 . S
C2799 C2816 1.574 . S
C2799 C2818 1.368 . S
C2799 H2823 0.949 . S
H2800 C2804 0.949 . S
C2801 C2802 1.349 . S
C2801 C2803 1.327 . S
C2801 H2824 0.950 . S
C2802 C2801 1.349 . S
C2802 C2814 1.349 . S
C2803 C2801 1.327 . S
C2803 C2819 1.429 . S
C2803 H2825 0.950 . S
C2804 H2800 0.949 . S
C2804 C2812 1.574 . S
C2804 C2820 1.368 . S
H2805 C2813 0.950 . S
H2806 C2811 0.950 . S
H2807 C2812 0.949 . S
H2808 C2814 0.950 . S
H2809 C2815 0.950 . S
H2810 C2816 0.949 . S
C2811 H2806 0.950 . S
C2811 C2813 1.327 . S
C2811 C2817 1.429 . S
C2812 C2804 1.574 . S
C2812 H2807 0.949 . S
C2812 C2818 1.368 1_545 S
C2813 C2797 1.349 . S
C2813 H2805 0.950 . S
C2813 C2811 1.327 . S
C2814 C2802 1.349 . S
C2814 H2808 0.950 . S
C2814 C2815 1.327 . S
C2815 H2809 0.950 . S
C2815 C2814 1.327 . S
C2815 C2819 1.429 . S
C2816 C2799 1.574 . S
C2816 H2810 0.949 . S
C2816 C2820 1.368 1_565 S
C2817 C2798 1.429 . S
C2817 C2811 1.429 . S
C2817 C2818 1.523 . S
C2818 C2799 1.368 . S
C2818 C2812 1.368 1_565 S
C2818 C2817 1.523 . S
C2819 C2803 1.429 . S
C2819 C2815 1.429 . S
C2819 C2820 1.523 . S
C2820 C2804 1.368 . S
C2820 C2816 1.368 1_545 S
C2820 C2819 1.523 . S
H2821 C2796 0.950 . S
H2822 C2798 0.950 . S
H2823 C2799 0.949 . S
H2824 C2801 0.950 . S
H2825 C2803 0.950 . S
C2826 C2827 1.349 . S
C2826 C2828 1.327 . S
C2826 H2851 0.950 . S
C2827 C2826 1.349 . S
C2827 C2843 1.349 1_554 S
C2828 C2826 1.327 . S
C2828 C2847 1.429 . S
C2828 H2852 0.950 . S
C2829 C2846 1.574 . S
C2829 C2848 1.368 1_556 S
C2829 H2853 0.949 . S
H2830 C2834 0.949 . S
C2831 C2832 1.349 1_556 S
C2831 C2833 1.327 . S
C2831 H2854 0.950 . S
C2832 C2831 1.349 1_554 S
C2832 C2844 1.349 . S
C2833 C2831 1.327 . S
C2833 C2849 1.429 1_556 S
C2833 H2855 0.950 . S
C2834 H2830 0.949 . S
C2834 C2842 1.574 . S
C2834 C2850 1.368 . S
H2835 C2843 0.950 . S
H2836 C2841 0.950 . S
H2837 C2842 0.949 . S
H2838 C2844 0.950 . S
H2839 C2845 0.950 . S
H2840 C2846 0.949 . S
C2841 H2836 0.950 . S
C2841 C2843 1.327 . S
C2841 C2847 1.429 1_556 S
C2842 C2834 1.574 . S
C2842 H2837 0.949 . S
C2842 C2848 1.368 . S
C2843 C2827 1.349 1_556 S
C2843 H2835 0.950 . S
C2843 C2841 1.327 . S
C2844 C2832 1.349 . S
C2844 H2838 0.950 . S
C2844 C2845 1.327 . S
C2845 H2839 0.950 . S
C2845 C2844 1.327 . S
C2845 C2849 1.429 . S
C2846 C2829 1.574 . S
C2846 H2840 0.949 . S
C2846 C2850 1.368 1_556 S
C2847 C2828 1.429 . S
C2847 C2841 1.429 1_554 S
C2847 C2848 1.523 . S
C2848 C2829 1.368 1_554 S
C2848 C2842 1.368 . S
C2848 C2847 1.523 . S
C2849 C2833 1.429 1_554 S
C2849 C2845 1.429 . S
C2849 C2850 1.523 . S
C2850 C2834 1.368 . S
C2850 C2846 1.368 1_554 S
C2850 C2849 1.523 . S
H2851 C2826 0.950 . S
H2852 C2828 0.950 . S
H2853 C2829 0.949 . S
H2854 C2831 0.950 . S
H2855 C2833 0.950 . S
C1417 C1055 0.421 . S
C1422 C33 0.438 . S
C1447 C92 0.438 . S
C1452 C996 0.482 . S
C1477 C151 0.723 . S
C1482 C1173 0.722 . S
C1507 C210 0.731 . S
C1512 C1114 0.730 . S
C1537 C269 0.444 . S
C1542 C1291 0.422 . S
C1567 C328 0.757 . S
C1572 C1350 0.760 . S
C1597 C1232 0.485 . S
C1602 C387 0.433 . S
C1627 C701 0.733 . S
C1632 C446 0.732 . S
C1657 C505 0.444 . S
C1662 C229 0.422 . S
C1687 C111 0.757 . S
C1692 C564 0.758 . S
C1717 C623 1.044 . S
C1722 C52 1.049 . S
C1747 C682 0.732 . S
C1752 C878 0.733 . S
C1777 C347 1.007 . S
C1782 C741 1.027 . S
C1807 C288 1.046 . S
C1812 C800 1.045 . S
C1837 C859 0.732 . S
C1842 C465 0.733 . S
C1867 C918 0.757 . S
C1872 C406 0.760 . S
C1897 C583 1.007 . S
C1902 C977 1.027 . S
C1927 C642 0.733 . S
C1932 C1036 0.727 . S
C1957 C524 1.046 . S
C1962 C1095 1.045 . S
C1987 C1154 0.723 . S
C1992 C1409 0.722 . S
C2017 C937 1.007 . S
C2022 C1213 1.027 . S
C2047 C1272 0.731 . S
C2052 C819 0.730 . S
C2077 C760 0.485 . S
C2082 C1331 0.433 . S
C2107 C1390 0.723 . S
C2112 C170 0.722 . S
C2137 C5 1.868 . S
C2142 C64 1.856 . S
C2167 C182 1.698 . S
C2172 C123 1.712 . S
C2197 C241 1.868 . S
C2202 C359 1.856 . S
C2227 C300 2.183 . S
C2232 C418 2.164 . S
C2257 C1303 1.856 . S
C2262 C477 1.869 . S
C2287 C536 2.183 . S
C2292 C654 2.164 . S
C2317 C1185 2.043 . S
C2322 C595 2.060 . S
C2347 C772 2.060 . S
C2352 C713 2.043 . S
C2377 C831 2.164 . S
C2382 C890 2.183 . S
C2407 C1067 2.060 . S
C2412 C949 2.043 . S
C2437 C1008 1.698 . S
C2442 C1126 1.712 . S
C2467 C1362 1.711 . S
C2472 C1244 1.698 . S
C2497 C121 1.118 . S
C2502 C3 1.122 . S
C2527 C62 1.509 . S
C2532 C180 1.503 . S
C2557 C1124 1.118 . S
C2562 C239 1.122 . S
C2587 C298 1.430 . S
C2592 C1065 1.426 . S
C2617 C357 1.509 . S
C2622 C1006 1.503 . S
C2647 C947 1.814 . S
C2652 C416 1.819 . S
C2677 C475 1.122 . S
C2682 C1360 1.118 . S
C2707 C534 1.430 . S
C2712 C593 1.426 . S
C2737 C1183 1.814 . S
C2742 C652 1.819 . S
C2767 C711 1.814 . S
C2772 C829 1.819 . S
C2797 C770 1.426 . S
C2802 C888 1.430 . S
C2827 C1301 1.509 . S
C2832 C1242 1.503 . S
