# Generated by pormake.
# Topology ict, (4)-cn, num edge types: 1
# Building blocks:
#     Node 0, Type 0, BuildingBlock: KUFVIS_clean_sbu_0, # of connection points: 4
#     Node 1, Type 0, BuildingBlock: KUFVIS_clean_sbu_0, # of connection points: 4
#     Node 2, Type 0, BuildingBlock: KUFVIS_clean_sbu_0, # of connection points: 4
#     Node 3, Type 0, BuildingBlock: KUFVIS_clean_sbu_0, # of connection points: 4
#     Node 4, Type 0, BuildingBlock: KUFVIS_clean_sbu_0, # of connection points: 4
#     Node 5, Type 0, BuildingBlock: KUFVIS_clean_sbu_0, # of connection points: 4
#     Node 6, Type 0, BuildingBlock: KUFVIS_clean_sbu_0, # of connection points: 4
#     Node 7, Type 0, BuildingBlock: KUFVIS_clean_sbu_0, # of connection points: 4
#     Node 8, Type 0, BuildingBlock: KUFVIS_clean_sbu_0, # of connection points: 4
#     Node 9, Type 0, BuildingBlock: KUFVIS_clean_sbu_0, # of connection points: 4
#     Node 10, Type 0, BuildingBlock: KUFVIS_clean_sbu_0, # of connection points: 4
#     Node 11, Type 0, BuildingBlock: KUFVIS_clean_sbu_0, # of connection points: 4
#     Node 12, Type 0, BuildingBlock: KUFVIS_clean_sbu_0, # of connection points: 4
#     Node 13, Type 0, BuildingBlock: KUFVIS_clean_sbu_0, # of connection points: 4
#     Node 14, Type 0, BuildingBlock: KUFVIS_clean_sbu_0, # of connection points: 4
#     Node 15, Type 0, BuildingBlock: KUFVIS_clean_sbu_0, # of connection points: 4
#     Node 16, Type 0, BuildingBlock: KUFVIS_clean_sbu_0, # of connection points: 4
#     Node 17, Type 0, BuildingBlock: KUFVIS_clean_sbu_0, # of connection points: 4
#     Node 18, Type 0, BuildingBlock: KUFVIS_clean_sbu_0, # of connection points: 4
#     Node 19, Type 0, BuildingBlock: KUFVIS_clean_sbu_0, # of connection points: 4
#     Node 20, Type 0, BuildingBlock: KUFVIS_clean_sbu_0, # of connection points: 4
#     Node 21, Type 0, BuildingBlock: KUFVIS_clean_sbu_0, # of connection points: 4
#     Node 22, Type 0, BuildingBlock: KUFVIS_clean_sbu_0, # of connection points: 4
#     Node 23, Type 0, BuildingBlock: KUFVIS_clean_sbu_0, # of connection points: 4
#     Node 24, Type 0, BuildingBlock: KUFVIS_clean_sbu_0, # of connection points: 4
#     Node 25, Type 0, BuildingBlock: KUFVIS_clean_sbu_0, # of connection points: 4
#     Node 26, Type 0, BuildingBlock: KUFVIS_clean_sbu_0, # of connection points: 4
#     Node 27, Type 0, BuildingBlock: KUFVIS_clean_sbu_0, # of connection points: 4
#     Node 28, Type 0, BuildingBlock: KUFVIS_clean_sbu_0, # of connection points: 4
#     Node 29, Type 0, BuildingBlock: KUFVIS_clean_sbu_0, # of connection points: 4
#     Node 30, Type 0, BuildingBlock: KUFVIS_clean_sbu_0, # of connection points: 4
#     Node 31, Type 0, BuildingBlock: KUFVIS_clean_sbu_0, # of connection points: 4
#     Node 32, Type 0, BuildingBlock: KUFVIS_clean_sbu_0, # of connection points: 4
#     Node 33, Type 0, BuildingBlock: KUFVIS_clean_sbu_0, # of connection points: 4
#     Node 34, Type 0, BuildingBlock: KUFVIS_clean_sbu_0, # of connection points: 4
#     Node 35, Type 0, BuildingBlock: KUFVIS_clean_sbu_0, # of connection points: 4
#     Edge 36, Type (0, 0), BuildingBlock: ZUJKAS_clean_linker_0, # of connection points: 2
#     Edge 37, Type (0, 0), BuildingBlock: ZUJKAS_clean_linker_0, # of connection points: 2
#     Edge 38, Type (0, 0), BuildingBlock: ZUJKAS_clean_linker_0, # of connection points: 2
#     Edge 39, Type (0, 0), BuildingBlock: ZUJKAS_clean_linker_0, # of connection points: 2
#     Edge 40, Type (0, 0), BuildingBlock: ZUJKAS_clean_linker_0, # of connection points: 2
#     Edge 41, Type (0, 0), BuildingBlock: ZUJKAS_clean_linker_0, # of connection points: 2
#     Edge 42, Type (0, 0), BuildingBlock: ZUJKAS_clean_linker_0, # of connection points: 2
#     Edge 43, Type (0, 0), BuildingBlock: ZUJKAS_clean_linker_0, # of connection points: 2
#     Edge 44, Type (0, 0), BuildingBlock: ZUJKAS_clean_linker_0, # of connection points: 2
#     Edge 45, Type (0, 0), BuildingBlock: ZUJKAS_clean_linker_0, # of connection points: 2
#     Edge 46, Type (0, 0), BuildingBlock: ZUJKAS_clean_linker_0, # of connection points: 2
#     Edge 47, Type (0, 0), BuildingBlock: ZUJKAS_clean_linker_0, # of connection points: 2
#     Edge 48, Type (0, 0), BuildingBlock: ZUJKAS_clean_linker_0, # of connection points: 2
#     Edge 49, Type (0, 0), BuildingBlock: ZUJKAS_clean_linker_0, # of connection points: 2
#     Edge 50, Type (0, 0), BuildingBlock: ZUJKAS_clean_linker_0, # of connection points: 2
#     Edge 51, Type (0, 0), BuildingBlock: ZUJKAS_clean_linker_0, # of connection points: 2
#     Edge 52, Type (0, 0), BuildingBlock: ZUJKAS_clean_linker_0, # of connection points: 2
#     Edge 53, Type (0, 0), BuildingBlock: ZUJKAS_clean_linker_0, # of connection points: 2
#     Edge 54, Type (0, 0), BuildingBlock: ZUJKAS_clean_linker_0, # of connection points: 2
#     Edge 55, Type (0, 0), BuildingBlock: ZUJKAS_clean_linker_0, # of connection points: 2
#     Edge 56, Type (0, 0), BuildingBlock: ZUJKAS_clean_linker_0, # of connection points: 2
#     Edge 57, Type (0, 0), BuildingBlock: ZUJKAS_clean_linker_0, # of connection points: 2
#     Edge 58, Type (0, 0), BuildingBlock: ZUJKAS_clean_linker_0, # of connection points: 2
#     Edge 59, Type (0, 0), BuildingBlock: ZUJKAS_clean_linker_0, # of connection points: 2
#     Edge 60, Type (0, 0), BuildingBlock: ZUJKAS_clean_linker_0, # of connection points: 2
#     Edge 61, Type (0, 0), BuildingBlock: ZUJKAS_clean_linker_0, # of connection points: 2
#     Edge 62, Type (0, 0), BuildingBlock: ZUJKAS_clean_linker_0, # of connection points: 2
#     Edge 63, Type (0, 0), BuildingBlock: ZUJKAS_clean_linker_0, # of connection points: 2
#     Edge 64, Type (0, 0), BuildingBlock: ZUJKAS_clean_linker_0, # of connection points: 2
#     Edge 65, Type (0, 0), BuildingBlock: ZUJKAS_clean_linker_0, # of connection points: 2
#     Edge 66, Type (0, 0), BuildingBlock: ZUJKAS_clean_linker_0, # of connection points: 2
#     Edge 67, Type (0, 0), BuildingBlock: ZUJKAS_clean_linker_0, # of connection points: 2
#     Edge 68, Type (0, 0), BuildingBlock: ZUJKAS_clean_linker_0, # of connection points: 2
#     Edge 69, Type (0, 0), BuildingBlock: ZUJKAS_clean_linker_0, # of connection points: 2
#     Edge 70, Type (0, 0), BuildingBlock: ZUJKAS_clean_linker_0, # of connection points: 2
#     Edge 71, Type (0, 0), BuildingBlock: ZUJKAS_clean_linker_0, # of connection points: 2
#     Edge 72, Type (0, 0), BuildingBlock: ZUJKAS_clean_linker_0, # of connection points: 2
#     Edge 73, Type (0, 0), BuildingBlock: ZUJKAS_clean_linker_0, # of connection points: 2
#     Edge 74, Type (0, 0), BuildingBlock: ZUJKAS_clean_linker_0, # of connection points: 2
#     Edge 75, Type (0, 0), BuildingBlock: ZUJKAS_clean_linker_0, # of connection points: 2
#     Edge 76, Type (0, 0), BuildingBlock: ZUJKAS_clean_linker_0, # of connection points: 2
#     Edge 77, Type (0, 0), BuildingBlock: ZUJKAS_clean_linker_0, # of connection points: 2
#     Edge 78, Type (0, 0), BuildingBlock: ZUJKAS_clean_linker_0, # of connection points: 2
#     Edge 79, Type (0, 0), BuildingBlock: ZUJKAS_clean_linker_0, # of connection points: 2
#     Edge 80, Type (0, 0), BuildingBlock: ZUJKAS_clean_linker_0, # of connection points: 2
#     Edge 81, Type (0, 0), BuildingBlock: ZUJKAS_clean_linker_0, # of connection points: 2
#     Edge 82, Type (0, 0), BuildingBlock: ZUJKAS_clean_linker_0, # of connection points: 2
#     Edge 83, Type (0, 0), BuildingBlock: ZUJKAS_clean_linker_0, # of connection points: 2
#     Edge 84, Type (0, 0), BuildingBlock: ZUJKAS_clean_linker_0, # of connection points: 2
#     Edge 85, Type (0, 0), BuildingBlock: ZUJKAS_clean_linker_0, # of connection points: 2
#     Edge 86, Type (0, 0), BuildingBlock: ZUJKAS_clean_linker_0, # of connection points: 2
#     Edge 87, Type (0, 0), BuildingBlock: ZUJKAS_clean_linker_0, # of connection points: 2
#     Edge 88, Type (0, 0), BuildingBlock: ZUJKAS_clean_linker_0, # of connection points: 2
#     Edge 89, Type (0, 0), BuildingBlock: ZUJKAS_clean_linker_0, # of connection points: 2
#     Edge 90, Type (0, 0), BuildingBlock: ZUJKAS_clean_linker_0, # of connection points: 2
#     Edge 91, Type (0, 0), BuildingBlock: ZUJKAS_clean_linker_0, # of connection points: 2
#     Edge 92, Type (0, 0), BuildingBlock: ZUJKAS_clean_linker_0, # of connection points: 2
#     Edge 93, Type (0, 0), BuildingBlock: ZUJKAS_clean_linker_0, # of connection points: 2
#     Edge 94, Type (0, 0), BuildingBlock: ZUJKAS_clean_linker_0, # of connection points: 2
#     Edge 95, Type (0, 0), BuildingBlock: ZUJKAS_clean_linker_0, # of connection points: 2
#     Edge 96, Type (0, 0), BuildingBlock: ZUJKAS_clean_linker_0, # of connection points: 2
#     Edge 97, Type (0, 0), BuildingBlock: ZUJKAS_clean_linker_0, # of connection points: 2
#     Edge 98, Type (0, 0), BuildingBlock: ZUJKAS_clean_linker_0, # of connection points: 2
#     Edge 99, Type (0, 0), BuildingBlock: ZUJKAS_clean_linker_0, # of connection points: 2
#     Edge 100, Type (0, 0), BuildingBlock: ZUJKAS_clean_linker_0, # of connection points: 2
#     Edge 101, Type (0, 0), BuildingBlock: ZUJKAS_clean_linker_0, # of connection points: 2
#     Edge 102, Type (0, 0), BuildingBlock: ZUJKAS_clean_linker_0, # of connection points: 2
#     Edge 103, Type (0, 0), BuildingBlock: ZUJKAS_clean_linker_0, # of connection points: 2
#     Edge 104, Type (0, 0), BuildingBlock: ZUJKAS_clean_linker_0, # of connection points: 2
#     Edge 105, Type (0, 0), BuildingBlock: ZUJKAS_clean_linker_0, # of connection points: 2
#     Edge 106, Type (0, 0), BuildingBlock: ZUJKAS_clean_linker_0, # of connection points: 2
#     Edge 107, Type (0, 0), BuildingBlock: ZUJKAS_clean_linker_0, # of connection points: 2
# Relax obj value: 0.086
# Max RMSD: 0.111
# Mean RMSD: 0.111
data_MOF--net-ict--node1-KUFVIS_clean_sbu_0--edge1-ZUJKAS_clean_linker_0
_symmetry_space_group_name_H-M    P1
_symmetry_Int_Tables_number       1
_symmetry_cell_setting            triclinic
loop_
_symmetry_equiv_pos_as_xyz
'x, y, z'
_cell_length_a     83.426185
_cell_length_b     83.401987
_cell_length_c     47.948736
_cell_angle_alpha  89.998847
_cell_angle_beta   89.986149
_cell_angle_gamma 119.99792
loop_
_atom_site_label
_atom_site_type_symbol
_atom_site_fract_x
_atom_site_fract_y
_atom_site_fract_z
_atom_type_partial_charge
Mn0 Mn 0.23126 0.22218 0.05734 0.0
Mn1 Mn 0.21205 0.20573 0.99405 0.0
C2 C 0.21218 0.23168 0.03668 0.0
C3 C 0.23039 0.22032 0.10628 0.0
C4 C 0.25208 0.23539 1.00143 0.0
O5 O 0.23413 0.19933 0.05314 0.0
O6 O 0.2211 0.18993 0.01063 0.0
C7 C 0.1795 0.1711 0.01376 0.0
N8 N 0.18669 0.18728 0.99927 0.0
C9 C 0.15635 0.18092 0.98539 0.0
C10 C 0.14861 0.16414 1.00006 0.0
C11 C 0.16024 0.15924 0.01437 0.0
C12 C 0.17563 0.1922 0.98563 0.0
H13 H 0.18841 0.16731 0.02477 0.0
C14 C 0.22926 0.18839 0.03221 0.0
O15 O 0.24589 0.22961 0.09283 0.0
O16 O 0.21552 0.21168 0.09128 0.0
N17 N 0.20272 0.21957 0.97517 0.0
C18 C 0.21239 0.2364 0.96252 0.0
C19 C 0.20286 0.24327 0.94701 0.0
C20 C 0.18353 0.23271 0.94447 0.0
C21 C 0.17387 0.21543 0.95769 0.0
C22 C 0.18414 0.20919 0.97253 0.0
H23 H 0.22728 0.24449 0.96417 0.0
O24 O 0.22402 0.2418 0.05566 0.0
O25 O 0.21187 0.21639 0.03036 0.0
O26 O 0.25186 0.23594 0.02808 0.0
O27 O 0.23788 0.22482 0.98678 0.0
C28 C 0.15445 0.20418 0.95678 0.0
C29 C 0.14569 0.18699 0.97078 0.0
H30 H 0.13376 0.15495 1.00059 0.0
H31 H 0.15436 0.14634 0.02582 0.0
H32 H 0.2104 0.25662 0.93689 0.0
H33 H 0.17626 0.23798 0.93222 0.0
H34 H 0.14612 0.2087 0.94563 0.0
H35 H 0.13074 0.17856 0.97022 0.0
Mn36 Mn 0.7822 0.01203 0.0588 0.0
Mn37 Mn 0.7991 0.01092 0.99503 0.0
C38 C 0.77438 0.98387 0.03783 0.0
C39 C 0.78425 0.01284 0.10781 0.0
C40 C 0.76757 0.01853 1.00339 0.0
O41 O 0.80384 0.03851 0.0547 0.0
O42 O 0.81353 0.03579 0.01205 0.0
C43 C 0.83517 0.01593 0.01358 0.0
N44 N 0.81907 0.0061 0.99914 0.0
C45 C 0.82839 0.98479 0.98239 0.0
C46 C 0.84512 0.99474 0.99697 0.0
C47 C 0.84848 0.01033 0.01272 0.0
C48 C 0.81564 0.99102 0.98407 0.0
H49 H 0.83782 0.02795 0.02563 0.0
C50 C 0.81467 0.04526 0.03372 0.0
O51 O 0.77414 0.01821 0.09468 0.0
O52 O 0.79361 0.00761 0.09245 0.0
N53 N 0.78671 0.98781 0.97566 0.0
C54 C 0.76949 0.97921 0.96408 0.0
C55 C 0.76389 0.96332 0.94771 0.0
C56 C 0.77609 0.95656 0.94324 0.0
C57 C 0.79367 0.96555 0.95557 0.0
C58 C 0.79858 0.98146 0.97135 0.0
H59 H 0.76017 0.9845 0.96718 0.0
O60 O 0.7639 0.98482 0.05697 0.0
O61 O 0.7891 0.99939 0.03137 0.0
O62 O 0.76729 0.01776 0.03004 0.0
O63 O 0.77859 0.01572 0.98844 0.0
C64 C 0.80644 0.95924 0.95306 0.0
C65 C 0.82375 0.9688 0.96659 0.0
H66 H 0.85541 0.99045 0.99639 0.0
H67 H 0.86133 0.01803 0.02411 0.0
H68 H 0.75025 0.95637 0.93839 0.0
H69 H 0.77179 0.94439 0.93042 0.0
H70 H 0.80298 0.94692 0.94109 0.0
H71 H 0.83334 0.96367 0.96486 0.0
Mn72 Mn 0.99014 0.77524 0.0527 0.0
Mn73 Mn 0.98776 0.79311 0.99049 0.0
C74 C 0.01709 0.79387 0.02722 0.0
C75 C 0.99226 0.77689 0.10161 0.0
C76 C 0.9778 0.75303 0.99828 0.0
O77 O 0.96399 0.77177 0.05314 0.0
O78 O 0.96529 0.7862 0.01277 0.0
C79 C 0.98946 0.82742 0.01096 0.0
N80 N 0.99588 0.81884 0.99389 0.0
C81 C 0.01587 0.84728 0.96986 0.0
C82 C 0.00934 0.85643 0.98697 0.0
C83 C 0.99622 0.84649 0.00781 0.0
C84 C 0.00892 0.82837 0.97441 0.0
H85 H 0.97924 0.81975 0.02678 0.0
C86 C 0.95704 0.77789 0.03521 0.0
O87 O 0.98531 0.76121 0.0885 0.0
O88 O 0.99761 0.79158 0.0864 0.0
N89 N 0.00844 0.80065 0.96618 0.0
C90 C 0.01419 0.78999 0.95283 0.0
C91 C 0.02771 0.79791 0.93189 0.0
C92 C 0.03479 0.81654 0.92441 0.0
C93 C 0.02864 0.82722 0.93846 0.0
C94 C 0.01542 0.81867 0.95948 0.0
H95 H 0.00835 0.77551 0.95793 0.0
O96 O 0.01675 0.78264 0.04625 0.0
O97 O 0.00178 0.79418 0.02395 0.0
O98 O 0.98161 0.75408 0.02423 0.0
O99 O 0.97934 0.76669 0.98414 0.0
C100 C 0.03504 0.846 0.93239 0.0
C101 C 0.02892 0.85612 0.9484 0.0
H102 H 0.01436 0.87109 0.98437 0.0
H103 H 0.99119 0.85347 0.02121 0.0
H104 H 0.03241 0.78959 0.92117 0.0
H105 H 0.04501 0.82253 0.90795 0.0
H106 H 0.04497 0.85292 0.91581 0.0
H107 H 0.03434 0.87067 0.94403 0.0
Mn108 Mn 0.22025 0.22887 0.45513 0.0
Mn109 Mn 0.2028 0.20777 0.51692 0.0
C110 C 0.23049 0.21019 0.47529 0.0
C111 C 0.21872 0.22868 0.40617 0.0
C112 C 0.2308 0.24884 0.51144 0.0
O113 O 0.1969 0.23095 0.45957 0.0
O114 O 0.18524 0.21395 0.4987 0.0
C115 C 0.17102 0.17306 0.4958 0.0
N116 N 0.18677 0.18183 0.5113 0.0
C117 C 0.18346 0.15281 0.52634 0.0
C118 C 0.16712 0.14344 0.51071 0.0
C119 C 0.16092 0.15362 0.49528 0.0
C120 C 0.19298 0.17218 0.52595 0.0
H121 H 0.16623 0.18085 0.48389 0.0
C122 C 0.18429 0.22326 0.47816 0.0
O123 O 0.22756 0.24404 0.42011 0.0
O124 O 0.21033 0.21357 0.42069 0.0
N125 N 0.21827 0.2009 0.53696 0.0
C126 C 0.23466 0.21204 0.55004 0.0
C127 C 0.24283 0.20406 0.56631 0.0
C128 C 0.23398 0.18473 0.56919 0.0
C129 C 0.21712 0.17353 0.55552 0.0
C130 C 0.20956 0.18229 0.5398 0.0
H131 H 0.24141 0.22691 0.54819 0.0
O132 O 0.24046 0.22238 0.45659 0.0
O133 O 0.21487 0.20921 0.48134 0.0
O134 O 0.23321 0.24895 0.4851 0.0
O135 O 0.21946 0.23434 0.52497 0.0
C136 C 0.20755 0.15404 0.55679 0.0
C137 C 0.19081 0.14368 0.54203 0.0
H138 H 0.15929 0.12846 0.51026 0.0
H139 H 0.14837 0.1465 0.48304 0.0
H140 H 0.25585 0.21278 0.57677 0.0
H141 H 0.24027 0.17866 0.58195 0.0
H142 H 0.21303 0.14686 0.5688 0.0
H143 H 0.18373 0.1287 0.54281 0.0
Mn144 Mn 0.77301 0.98985 0.45621 0.0
Mn145 Mn 0.79161 0.9914 0.51954 0.0
C146 C 0.7928 0.01824 0.47714 0.0
C147 C 0.77414 0.98892 0.40722 0.0
C148 C 0.75143 0.98074 0.51102 0.0
O149 O 0.76917 0.96364 0.46076 0.0
O150 O 0.78447 0.96751 0.50128 0.0
C151 C 0.8259 0.99184 0.50232 0.0
N152 N 0.81741 0.99967 0.51651 0.0
C153 C 0.84648 0.02358 0.5348 0.0
C154 C 0.85555 0.01576 0.52043 0.0
C155 C 0.84521 0.99985 0.50405 0.0
C156 C 0.82722 0.015 0.53224 0.0
H157 H 0.81796 0.97958 0.48981 0.0
C158 C 0.77535 0.95769 0.48028 0.0
O159 O 0.75864 0.98314 0.4205 0.0
O160 O 0.78886 0.9946 0.42243 0.0
N161 N 0.79909 0.01383 0.53965 0.0
C162 C 0.78831 0.02018 0.55091 0.0
C163 C 0.79646 0.03597 0.56795 0.0
C164 C 0.81556 0.04499 0.57332 0.0
C165 C 0.82642 0.0384 0.56108 0.0
C166 C 0.81748 0.02243 0.54467 0.0
H167 H 0.77358 0.01311 0.54718 0.0
O168 O 0.78128 0.017 0.45793 0.0
O169 O 0.79232 0.00288 0.48355 0.0
O170 O 0.75229 0.98375 0.48481 0.0
O171 O 0.76519 0.98286 0.52546 0.0
C172 C 0.84577 0.04708 0.56443 0.0
C173 C 0.8558 0.03973 0.55117 0.0
H174 H 0.87044 0.02192 0.52165 0.0
H175 H 0.85212 0.99377 0.49283 0.0
H176 H 0.78802 0.04107 0.57716 0.0
H177 H 0.82174 0.05703 0.58678 0.0
H178 H 0.85309 0.05953 0.57686 0.0
H179 H 0.8707 0.04668 0.55355 0.0
Mn180 Mn 0.01175 0.78233 0.45102 0.0
Mn181 Mn 0.00726 0.79894 0.51308 0.0
C182 C 0.98272 0.77063 0.47158 0.0
C183 C 0.01286 0.78432 0.40207 0.0
C184 C 0.02213 0.7724 0.50707 0.0
O185 O 0.03656 0.80639 0.45547 0.0
O186 O 0.03056 0.81742 0.49472 0.0
C187 C 0.00224 0.82955 0.49217 0.0
N188 N 0.99612 0.81392 0.50777 0.0
C189 C 0.96966 0.81571 0.52344 0.0
C190 C 0.97578 0.83195 0.50778 0.0
C191 C 0.99209 0.83884 0.49196 0.0
C192 C 0.9803 0.80702 0.52273 0.0
H193 H 0.01472 0.83482 0.47991 0.0
C194 C 0.04095 0.8189 0.47407 0.0
O195 O 0.02022 0.77608 0.41552 0.0
O196 O 0.00541 0.79181 0.41704 0.0
N197 N 0.98527 0.78261 0.5333 0.0
C198 C 0.98082 0.76635 0.5462 0.0
C199 C 0.96477 0.75749 0.56264 0.0
C200 C 0.95357 0.76552 0.5659 0.0
C201 C 0.95843 0.78227 0.55245 0.0
C202 C 0.97465 0.79053 0.53649 0.0
H203 H 0.98949 0.76021 0.54405 0.0
O204 O 0.98546 0.76117 0.45261 0.0
O205 O 0.9969 0.7866 0.47759 0.0
O206 O 0.01989 0.77002 0.4807 0.0
O207 O 0.01837 0.78328 0.52073 0.0
C208 C 0.94777 0.79106 0.55414 0.0
C209 C 0.95329 0.80768 0.53945 0.0
H210 H 0.96799 0.83915 0.50756 0.0
H211 H 0.99683 0.85128 0.47965 0.0
H212 H 0.9611 0.74455 0.57293 0.0
H213 H 0.94127 0.75868 0.57875 0.0
H214 H 0.93518 0.78506 0.5664 0.0
H215 H 0.9448 0.81413 0.5405 0.0
Mn216 Mn 0.76994 0.78108 0.95232 0.0
Mn217 Mn 0.78836 0.79623 0.01642 0.0
C218 C 0.78891 0.77129 0.9726 0.0
C219 C 0.7714 0.78403 0.90347 0.0
C220 C 0.74843 0.76669 0.00749 0.0
O221 O 0.76682 0.80372 0.95766 0.0
O222 O 0.77958 0.81239 1.00048 0.0
C223 C 0.82122 0.83121 0.99853 0.0
N224 N 0.8138 0.81473 0.01223 0.0
C225 C 0.84393 0.8207 0.02663 0.0
C226 C 0.8519 0.8378 0.01278 0.0
C227 C 0.84049 0.84304 0.9986 0.0
C228 C 0.82465 0.80947 0.02572 0.0
H229 H 0.81248 0.83527 0.98763 0.0
C230 C 0.77152 0.81428 0.97904 0.0
O231 O 0.75575 0.77435 0.91641 0.0
O232 O 0.78607 0.79243 0.91895 0.0
N233 N 0.79739 0.78194 0.03473 0.0
C234 C 0.78751 0.76486 0.04657 0.0
C235 C 0.7968 0.75761 0.06185 0.0
C236 C 0.8161 0.76806 0.06499 0.0
C237 C 0.82597 0.78561 0.05263 0.0
C238 C 0.81593 0.79221 0.03798 0.0
H239 H 0.77264 0.75685 0.04448 0.0
O240 O 0.77736 0.76156 0.95307 0.0
O241 O 0.78901 0.78637 0.97965 0.0
O242 O 0.74902 0.76658 0.98083 0.0
O243 O 0.76242 0.77706 0.02266 0.0
C244 C 0.84537 0.79681 0.05423 0.0
C245 C 0.85436 0.81429 0.04107 0.0
H246 H 0.86676 0.84696 0.0128 0.0
H247 H 0.84655 0.85618 0.98779 0.0
H248 H 0.78909 0.74406 0.07132 0.0
H249 H 0.82316 0.76249 0.07704 0.0
H250 H 0.85353 0.79203 0.06528 0.0
H251 H 0.86929 0.82267 0.04215 0.0
Mn252 Mn 0.22015 0.99013 0.96113 0.0
Mn253 Mn 0.2015 0.9908 0.02348 0.0
C254 C 0.22732 0.01823 0.98167 0.0
C255 C 0.21883 0.9889 0.91216 0.0
C256 C 0.23243 0.98195 0.01682 0.0
O257 O 0.19855 0.96349 0.96528 0.0
O258 O 0.18595 0.96664 1.00507 0.0
C259 C 0.16711 0.98937 1.00419 0.0
N260 N 0.18311 0.99785 0.01916 0.0
C261 C 0.17609 0.02073 0.03644 0.0
C262 C 0.15949 0.01221 0.02127 0.0
C263 C 0.15502 0.9965 1.00501 0.0
C264 C 0.18758 0.01301 0.03478 0.0
H265 H 0.16364 0.97725 0.99177 0.0
C266 C 0.18612 0.95705 0.98433 0.0
O267 O 0.22898 0.98395 0.92613 0.0
O268 O 0.20901 0.994 0.92665 0.0
N269 N 0.21518 0.0134 0.04379 0.0
C270 C 0.23218 0.02054 0.05582 0.0
C271 C 0.2388 0.03631 0.07278 0.0
C272 C 0.22783 0.04448 0.07729 0.0
C273 C 0.21051 0.03706 0.06432 0.0
C274 C 0.20452 0.02116 0.04802 0.0
H275 H 0.24053 0.01412 0.05274 0.0
O276 O 0.23812 0.01744 0.96292 0.0
O277 O 0.21264 0.00258 0.98776 0.0
O278 O 0.23492 0.98497 0.99064 0.0
O279 O 0.22019 0.98347 0.03065 0.0
C280 C 0.19899 0.04486 0.0668 0.0
C281 C 0.18183 0.03676 0.05274 0.0
H282 H 0.15015 0.01769 0.0218 0.0
H283 H 0.14227 0.98988 0.99318 0.0
H284 H 0.25224 0.04205 0.08257 0.0
H285 H 0.23289 0.05651 0.09068 0.0
H286 H 0.2033 0.05723 0.07915 0.0
H287 H 0.17322 0.04304 0.05445 0.0
Mn288 Mn 0.01031 0.22603 0.95796 0.0
Mn289 Mn 0.01415 0.2083 0.01934 0.0
C290 C 0.98384 0.20692 0.98391 0.0
C291 C 0.00813 0.22445 0.9091 0.0
C292 C 0.02329 0.24819 0.01205 0.0
O293 O 0.03684 0.23046 0.95702 0.0
O294 O 0.03604 0.21489 0.99589 0.0
C295 C 0.01183 0.17375 0.9987 0.0
N296 N 0.00577 0.1825 0.01608 0.0
C297 C 0.98603 0.15424 0.04069 0.0
C298 C 0.99216 0.1449 0.02322 0.0
C299 C 0.00498 0.15467 1.00194 0.0
C300 C 0.99305 0.17315 0.03604 0.0
H301 H 0.02185 0.1813 0.98259 0.0
C302 C 0.04402 0.22388 0.97374 0.0
O303 O 0.01458 0.24006 0.9223 0.0
O304 O 0.00321 0.2098 0.92419 0.0
N305 N 0.994 0.20107 0.04465 0.0
C306 C 0.98861 0.21189 0.05837 0.0
C307 C 0.97537 0.20413 0.07972 0.0
C308 C 0.96821 0.18549 0.08722 0.0
C309 C 0.97404 0.17465 0.07284 0.0
C310 C 0.98695 0.18304 0.05139 0.0
H311 H 0.9945 0.22637 0.05324 0.0
O312 O 0.98357 0.21781 0.96481 0.0
O313 O 0.99941 0.20707 0.98668 0.0
O314 O 0.01815 0.2469 0.98669 0.0
O315 O 0.02303 0.23486 0.02555 0.0
C316 C 0.9676 0.15588 0.07899 0.0
C317 C 0.97333 0.14559 0.06261 0.0
H318 H 0.98707 0.13024 0.02588 0.0
H319 H 0.00972 0.14756 0.98829 0.0
H320 H 0.97094 0.21258 0.09071 0.0
H321 H 0.9582 0.17963 0.10398 0.0
H322 H 0.95793 0.1491 0.09592 0.0
H323 H 0.96788 0.13104 0.06706 0.0
Mn324 Mn 0.7878 0.77449 0.55529 0.0
Mn325 Mn 0.80909 0.79176 0.49351 0.0
C326 C 0.78106 0.79416 0.52948 0.0
C327 C 0.78714 0.77611 0.60422 0.0
C328 C 0.77748 0.7523 0.50088 0.0
O329 O 0.80944 0.76939 0.55619 0.0
O330 O 0.82363 0.78382 0.51632 0.0
C331 C 0.84239 0.82519 0.51455 0.0
N332 N 0.82753 0.81722 0.49715 0.0
C333 C 0.8374 0.84601 0.47327 0.0
C334 C 0.85295 0.85454 0.49072 0.0
C335 C 0.85535 0.84412 0.51165 0.0
C336 C 0.82478 0.82722 0.47756 0.0
H337 H 0.84433 0.81715 0.53044 0.0
C338 C 0.82274 0.77508 0.5387 0.0
O339 O 0.77768 0.76057 0.59095 0.0
O340 O 0.79725 0.79066 0.58911 0.0
N341 N 0.79696 0.80021 0.46871 0.0
C342 C 0.78064 0.79014 0.45491 0.0
C343 C 0.77582 0.79858 0.43374 0.0
C344 C 0.78806 0.81712 0.42653 0.0
C345 C 0.80479 0.8272 0.44105 0.0
C346 C 0.80868 0.81814 0.46224 0.0
H347 H 0.77146 0.77573 0.45981 0.0
O348 O 0.76974 0.78332 0.54847 0.0
O349 O 0.79623 0.79356 0.52656 0.0
O350 O 0.77448 0.75357 0.52668 0.0
O351 O 0.79026 0.76561 0.48698 0.0
C352 C 0.81782 0.84585 0.43528 0.0
C353 C 0.83395 0.85535 0.4517 0.0
H354 H 0.86308 0.86908 0.48833 0.0
H355 H 0.86726 0.85062 0.52531 0.0
H356 H 0.76288 0.79073 0.42266 0.0
H357 H 0.78442 0.8235 0.40989 0.0
H358 H 0.8154 0.85314 0.4186 0.0
H359 H 0.8436 0.86982 0.44753 0.0
Mn360 Mn 0.22973 0.01212 0.56355 0.0
Mn361 Mn 0.21049 0.0148 0.50283 0.0
C362 C 0.2085 0.98521 0.5405 0.0
C363 C 0.22947 0.01124 0.61257 0.0
C364 C 0.24962 0.02125 0.50695 0.0
O365 O 0.23571 0.03907 0.56297 0.0
O366 O 0.22084 0.03856 0.52337 0.0
C367 C 0.17941 0.01786 0.52676 0.0
N368 N 0.18565 0.00922 0.50944 0.0
C369 C 0.15483 0.98844 0.4929 0.0
C370 C 0.14808 0.99718 0.51043 0.0
C371 C 0.16041 0.0119 0.52753 0.0
C372 C 0.17389 0.99492 0.49316 0.0
H373 H 0.18887 0.02919 0.53987 0.0
C374 C 0.23039 0.04672 0.54503 0.0
O375 O 0.24455 0.01633 0.59845 0.0
O376 O 0.2147 0.00707 0.59825 0.0
N377 N 0.19976 0.99297 0.4803 0.0
C378 C 0.20844 0.98562 0.46537 0.0
C379 C 0.19812 0.97097 0.44684 0.0
C380 C 0.17904 0.96414 0.44374 0.0
C381 C 0.17036 0.97171 0.45966 0.0
C382 C 0.18141 0.9865 0.4774 0.0
H383 H 0.22315 0.99104 0.46732 0.0
O384 O 0.21988 0.98491 0.55863 0.0
O385 O 0.20963 0.00119 0.5367 0.0
O386 O 0.24942 0.01821 0.53313 0.0
O387 O 0.23588 0.02041 0.49385 0.0
C388 C 0.15119 0.96517 0.45862 0.0
C389 C 0.14341 0.97344 0.4754 0.0
H390 H 0.13344 0.99264 0.51106 0.0
H391 H 0.1553 0.01867 0.5412 0.0
H392 H 0.20488 0.96509 0.43477 0.0
H393 H 0.17117 0.95302 0.42914 0.0
H394 H 0.14228 0.95367 0.44521 0.0
H395 H 0.12862 0.96814 0.4747 0.0
Mn396 Mn 0.99238 0.22042 0.55951 0.0
Mn397 Mn 0.99619 0.20527 0.49571 0.0
C398 C 0.02129 0.23018 0.53978 0.0
C399 C 0.99054 0.21757 0.60831 0.0
C400 C 0.98564 0.23473 0.50394 0.0
O401 O 0.96676 0.19765 0.55399 0.0
O402 O 0.97103 0.18921 0.51111 0.0
C403 C 0.99363 0.17017 0.51402 0.0
N404 N 0.00294 0.18666 0.5004 0.0
C405 C 0.02713 0.18051 0.48689 0.0
C406 C 0.01776 0.16341 0.50067 0.0
C407 C 1.00097 0.15825 0.51437 0.0
C408 C 0.01918 0.19184 0.48738 0.0
H409 H 0.98072 0.16617 0.52455 0.0
C410 C 0.96099 0.18723 0.53248 0.0
O411 O 0.98442 0.22701 0.59509 0.0
O412 O 0.99719 0.20936 0.59319 0.0
N413 N 0.01972 0.21947 0.47796 0.0
C414 C 0.02718 0.23659 0.4662 0.0
C415 C 0.04391 0.24378 0.45143 0.0
C416 C 0.05269 0.23324 0.44871 0.0
C417 C 0.04475 0.21564 0.461 0.0
C418 C 0.02795 0.20912 0.47517 0.0
H419 H 0.02039 0.24468 0.46797 0.0
O420 O 0.0193 0.24002 0.55897 0.0
O421 O 0.00637 0.21511 0.53262 0.0
O422 O 0.98593 0.23469 0.53062 0.0
O423 O 0.98963 0.22456 0.48896 0.0
C424 C 0.05285 0.20434 0.4598 0.0
C425 C 0.04411 0.18684 0.47291 0.0
H426 H 0.02337 0.15417 0.50097 0.0
H427 H 0.9937 0.1451 0.52513 0.0
H428 H 0.04996 0.25738 0.44203 0.0
H429 H 0.06549 0.23878 0.43707 0.0
H430 H 0.06588 0.20903 0.44908 0.0
H431 H 0.05059 0.17837 0.47215 0.0
Mn432 Mn 0.89589 0.55541 0.39233 0.0
Mn433 Mn 0.87625 0.53695 0.33024 0.0
C434 C 0.87696 0.56474 0.37031 0.0
C435 C 0.89482 0.55403 0.44129 0.0
C436 C 0.91702 0.5656 0.33729 0.0
O437 O 0.89889 0.5325 0.38908 0.0
O438 O 0.88174 0.51955 0.35043 0.0
C439 C 0.84082 0.5054 0.34984 0.0
N440 N 0.85016 0.52097 0.33408 0.0
C441 C 0.82179 0.51729 0.31522 0.0
C442 C 0.81185 0.50112 0.3311 0.0
C443 C 0.8214 0.49521 0.34859 0.0
C444 C 0.8411 0.52692 0.31748 0.0
H445 H 0.84814 0.50085 0.3633 0.0
C446 C 0.89119 0.51934 0.37132 0.0
O447 O 0.91038 0.56323 0.42794 0.0
O448 O 0.88001 0.54526 0.4262 0.0
N449 N 0.87014 0.5523 0.30837 0.0
C450 C 0.88176 0.56863 0.29546 0.0
C451 C 0.87448 0.57635 0.27689 0.0
C452 C 0.85537 0.56718 0.2717 0.0
C453 C 0.84362 0.5506 0.2857 0.0
C454 C 0.85171 0.54341 0.3036 0.0
H455 H 0.8965 0.57557 0.29895 0.0
O456 O 0.88861 0.57502 0.38939 0.0
O457 O 0.87664 0.54932 0.36505 0.0
O458 O 0.91643 0.56873 0.36323 0.0
O459 O 0.90301 0.55348 0.32367 0.0
C460 C 0.82423 0.54091 0.28257 0.0
C461 C 0.8133 0.52436 0.29753 0.0
H462 H 0.79687 0.49321 0.33019 0.0
H463 H 0.81382 0.4828 0.36103 0.0
H464 H 0.8836 0.58923 0.26635 0.0
H465 H 0.84986 0.57307 0.25704 0.0
H466 H 0.81755 0.54619 0.26898 0.0
H467 H 0.79839 0.5172 0.2953 0.0
Mn468 Mn 0.44596 0.34103 0.38967 0.0
Mn469 Mn 0.46205 0.33726 0.32669 0.0
C470 C 0.43645 0.3121 0.37021 0.0
C471 C 0.44826 0.34289 0.43852 0.0
C472 C 0.4327 0.34821 0.33366 0.0
O473 O 0.46865 0.36676 0.38427 0.0
O474 O 0.47843 0.36213 0.34277 0.0
C475 C 0.49641 0.33865 0.34607 0.0
N476 N 0.48007 0.32979 0.33197 0.0
C477 C 0.48557 0.30513 0.31866 0.0
C478 C 0.50251 0.31404 0.33294 0.0
C479 C 0.50791 0.33083 0.34677 0.0
C480 C 0.47467 0.31355 0.31878 0.0
H481 H 0.5006 0.35157 0.35671 0.0
C482 C 0.47992 0.37237 0.36367 0.0
O483 O 0.4388 0.34882 0.42485 0.0
O484 O 0.45686 0.3365 0.42376 0.0
N485 N 0.44759 0.3139 0.30854 0.0
C486 C 0.4306 0.30685 0.29647 0.0
C487 C 0.42313 0.29007 0.28177 0.0
C488 C 0.43326 0.28083 0.27942 0.0
C489 C 0.45075 0.28839 0.29194 0.0
C490 C 0.45755 0.30524 0.3061 0.0
H491 H 0.42283 0.31399 0.29798 0.0
O492 O 0.42645 0.31408 0.38913 0.0
O493 O 0.45158 0.32703 0.36329 0.0
O494 O 0.4319 0.34726 0.36028 0.0
O495 O 0.44339 0.34463 0.31918 0.0
C496 C 0.46166 0.27985 0.29105 0.0
C497 C 0.479 0.28815 0.30457 0.0
H498 H 0.51142 0.30805 0.33353 0.0
H499 H 0.52093 0.33775 0.35792 0.0
H500 H 0.40962 0.28431 0.27217 0.0
H501 H 0.42747 0.26794 0.26794 0.0
H502 H 0.45678 0.26682 0.28026 0.0
H503 H 0.48715 0.28133 0.30406 0.0
Mn504 Mn 0.65795 0.10632 0.39179 0.0
Mn505 Mn 0.65862 0.12651 0.33032 0.0
C506 C 0.68602 0.12562 0.36945 0.0
C507 C 0.65811 0.10694 0.44087 0.0
C508 C 0.64727 0.08585 0.33588 0.0
O509 O 0.63197 0.10319 0.3897 0.0
O510 O 0.63539 0.11965 0.3506 0.0
C511 C 0.66076 0.1608 0.35185 0.0
N512 N 0.66763 0.15234 0.33539 0.0
C513 C 0.69133 0.18158 0.31728 0.0
C514 C 0.68443 0.19062 0.33388 0.0
C515 C 0.66913 0.18019 0.35134 0.0
C516 C 0.68247 0.16225 0.31879 0.0
H517 H 0.649 0.1528 0.36526 0.0
C518 C 0.62602 0.11036 0.37181 0.0
O519 O 0.6517 0.09151 0.42714 0.0
O520 O 0.66397 0.12187 0.42611 0.0
N521 N 0.68031 0.134 0.30826 0.0
C522 C 0.68583 0.12321 0.29476 0.0
C523 C 0.70089 0.13146 0.27631 0.0
C524 C 0.71002 0.15066 0.27184 0.0
C525 C 0.70433 0.16154 0.28639 0.0
C526 C 0.68906 0.15251 0.30417 0.0
H527 H 0.67866 0.10841 0.29777 0.0
O528 O 0.68482 0.11373 0.38799 0.0
O529 O 0.67087 0.12597 0.36479 0.0
O530 O 0.65043 0.086 0.362 0.0
O531 O 0.64949 0.10009 0.32257 0.0
C532 C 0.71317 0.18096 0.28394 0.0
C533 C 0.70678 0.19099 0.29957 0.0
H534 H 0.69084 0.20557 0.33353 0.0
H535 H 0.66379 0.18707 0.36432 0.0
H536 H 0.7053 0.123 0.2653 0.0
H537 H 0.72138 0.15688 0.25716 0.0
H538 H 0.72501 0.18834 0.27033 0.0
H539 H 0.71387 0.20593 0.29786 0.0
Mn540 Mn 0.88537 0.56131 0.79009 0.0
Mn541 Mn 0.86941 0.54058 0.85261 0.0
C542 C 0.89553 0.54223 0.80889 0.0
C543 C 0.88307 0.56124 0.74124 0.0
C544 C 0.8978 0.58136 0.84637 0.0
O545 O 0.86225 0.56359 0.79592 0.0
O546 O 0.85213 0.54787 0.83638 0.0
C547 C 0.83601 0.50665 0.83312 0.0
N548 N 0.85235 0.51482 0.84725 0.0
C549 C 0.84831 0.48523 0.86074 0.0
C550 C 0.83138 0.47649 0.84643 0.0
C551 C 0.82524 0.48725 0.83249 0.0
C552 C 0.85844 0.5046 0.86059 0.0
H553 H 0.83125 0.51489 0.82241 0.0
C554 C 0.85052 0.55681 0.81587 0.0
O555 O 0.89222 0.57655 0.7552 0.0
O556 O 0.87475 0.5461 0.75572 0.0
N557 N 0.88476 0.53274 0.87073 0.0
C558 C 0.90173 0.54332 0.88258 0.0
C559 C 0.90993 0.53469 0.89721 0.0
C560 C 0.90056 0.51532 0.89968 0.0
C561 C 0.8831 0.50472 0.88734 0.0
C562 C 0.87554 0.5141 0.87325 0.0
H563 H 0.90893 0.55822 0.88093 0.0
O564 O 0.90534 0.55449 0.79018 0.0
O565 O 0.8802 0.54156 0.816 0.0
O566 O 0.89907 0.58145 0.8198 0.0
O567 O 0.88709 0.56688 0.86042 0.0
C568 C 0.87297 0.48523 0.88825 0.0
C569 C 0.85563 0.47548 0.87483 0.0
H570 H 0.82305 0.46153 0.84585 0.0
H571 H 0.81223 0.4806 0.82131 0.0
H572 H 0.92343 0.54296 0.90664 0.0
H573 H 0.90692 0.50874 0.91109 0.0
H574 H 0.87848 0.47758 0.89891 0.0
H575 H 0.8481 0.46049 0.87533 0.0
Mn576 Mn 0.44103 0.32547 0.78752 0.0
Mn577 Mn 0.46161 0.32658 0.84884 0.0
C578 C 0.461 0.35373 0.80857 0.0
C579 C 0.44099 0.32473 0.73854 0.0
C580 C 0.42117 0.31614 0.84378 0.0
O581 O 0.43715 0.29926 0.79074 0.0
O582 O 0.45427 0.30299 0.82923 0.0
C583 C 0.49549 0.3279 0.82717 0.0
N584 N 0.48733 0.33511 0.84359 0.0
C585 C 0.51683 0.35864 0.86114 0.0
C586 C 0.52556 0.35134 0.84466 0.0
C587 C 0.51484 0.33597 0.82749 0.0
C588 C 0.49751 0.35003 0.85992 0.0
H589 H 0.48728 0.31615 0.81388 0.0
C590 C 0.44446 0.29342 0.80854 0.0
O591 O 0.42579 0.31891 0.75268 0.0
O592 O 0.45606 0.33044 0.75286 0.0
N593 N 0.46959 0.34862 0.87027 0.0
C594 C 0.45912 0.35466 0.88346 0.0
C595 C 0.4677 0.37 0.90137 0.0
C596 C 0.48691 0.37887 0.90564 0.0
C597 C 0.49744 0.37262 0.89147 0.0
C598 C 0.48809 0.35708 0.87427 0.0
H599 H 0.44431 0.34771 0.8806 0.0
O600 O 0.44907 0.35249 0.79009 0.0
O601 O 0.46105 0.33849 0.8139 0.0
O602 O 0.42124 0.31912 0.81764 0.0
O603 O 0.43531 0.31797 0.85692 0.0
C604 C 0.51685 0.38124 0.8936 0.0
C605 C 0.52656 0.37433 0.87831 0.0
H606 H 0.54048 0.35755 0.8448 0.0
H607 H 0.52148 0.33035 0.81454 0.0
H608 H 0.45951 0.37485 0.91208 0.0
H609 H 0.49345 0.39056 0.91974 0.0
H610 H 0.52448 0.39336 0.90663 0.0
H611 H 0.5415 0.38127 0.87973 0.0
Mn612 Mn 0.67819 0.1186 0.78996 0.0
Mn613 Mn 0.67662 0.13733 0.85174 0.0
C614 C 0.64989 0.10967 0.81151 0.0
C615 C 0.67867 0.11928 0.7409 0.0
C616 C 0.68785 0.10797 0.84607 0.0
O617 O 0.70415 0.14147 0.793 0.0
O618 O 0.70016 0.15391 0.83235 0.0
C619 C 0.67495 0.16983 0.83066 0.0
N620 N 0.66773 0.15424 0.84659 0.0
C621 C 0.64407 0.15986 0.86459 0.0
C622 C 0.65134 0.17608 0.84857 0.0
C623 C 0.66676 0.18101 0.83137 0.0
C624 C 0.65266 0.14916 0.86272 0.0
H625 H 0.68686 0.17369 0.81755 0.0
C626 C 0.70981 0.15435 0.81129 0.0
O627 O 0.68492 0.11023 0.75493 0.0
O628 O 0.67269 0.12836 0.75537 0.0
N629 N 0.65454 0.12287 0.87293 0.0
C630 C 0.6487 0.10635 0.886 0.0
C631 C 0.63303 0.09911 0.9033 0.0
C632 C 0.62378 0.10911 0.90747 0.0
C633 C 0.63024 0.12622 0.89415 0.0
C634 C 0.64576 0.13261 0.87686 0.0
H635 H 0.65593 0.09876 0.88325 0.0
O636 O 0.65125 0.09915 0.79285 0.0
O637 O 0.66496 0.1251 0.81668 0.0
O638 O 0.68512 0.1054 0.81982 0.0
O639 O 0.68555 0.11988 0.85956 0.0
C640 C 0.6219 0.13719 0.89737 0.0
C641 C 0.62865 0.15388 0.88232 0.0
H642 H 0.64514 0.1848 0.8492 0.0
H643 H 0.67239 0.19345 0.81883 0.0
H644 H 0.62817 0.08592 0.91358 0.0
H645 H 0.61175 0.10352 0.92093 0.0
H646 H 0.61003 0.13273 0.91095 0.0
H647 H 0.62182 0.16197 0.88446 0.0
Mn648 Mn 0.43806 0.11273 0.29058 0.0
Mn649 Mn 0.45887 0.13011 0.35254 0.0
C650 C 0.45704 0.10286 0.31068 0.0
C651 C 0.43845 0.1145 0.24165 0.0
C652 C 0.41799 0.10158 0.34684 0.0
O653 O 0.43558 0.13583 0.29511 0.0
O654 O 0.45213 0.14736 0.33463 0.0
C655 C 0.49315 0.16255 0.33163 0.0
N656 N 0.48471 0.14667 0.34692 0.0
C657 C 0.51405 0.1506 0.36152 0.0
C658 C 0.52306 0.16708 0.34612 0.0
C659 C 0.51256 0.17303 0.33101 0.0
C660 C 0.49468 0.14071 0.36128 0.0
H661 H 0.48511 0.16713 0.31994 0.0
C662 C 0.44292 0.14831 0.31395 0.0
O663 O 0.42304 0.10538 0.25541 0.0
O664 O 0.45346 0.12299 0.25635 0.0
N665 N 0.46629 0.11493 0.3722 0.0
C666 C 0.45548 0.09831 0.38493 0.0
C667 C 0.46384 0.09025 0.40061 0.0
C668 C 0.48319 0.09945 0.40328 0.0
C669 C 0.49403 0.11657 0.39009 0.0
C670 C 0.48491 0.12397 0.37488 0.0
H671 H 0.44059 0.09126 0.38317 0.0
O672 O 0.44495 0.0928 0.29195 0.0
O673 O 0.4577 0.11832 0.31683 0.0
O674 O 0.41795 0.09944 0.32043 0.0
O675 O 0.43241 0.11291 0.36053 0.0
C676 C 0.51352 0.12654 0.39125 0.0
C677 C 0.52353 0.14346 0.37681 0.0
H678 H 0.53803 0.17519 0.34557 0.0
H679 H 0.51941 0.18568 0.31894 0.0
H680 H 0.45538 0.07703 0.41072 0.0
H681 H 0.48956 0.0932 0.41546 0.0
H682 H 0.52097 0.12121 0.40293 0.0
H683 H 0.53851 0.15083 0.37747 0.0
Mn684 Mn 0.88658 0.32598 0.29235 0.0
Mn685 Mn 0.86712 0.32685 0.35371 0.0
C686 C 0.89517 0.35417 0.31413 0.0
C687 C 0.88609 0.32565 0.24331 0.0
C688 C 0.89636 0.31542 0.34813 0.0
O689 O 0.86384 0.2999 0.29514 0.0
O690 O 0.85034 0.30379 0.33337 0.0
C691 C 0.83539 0.32992 0.33272 0.0
N692 N 0.85078 0.33646 0.34897 0.0
C693 C 0.84618 0.36075 0.36715 0.0
C694 C 0.8302 0.35421 0.35074 0.0
C695 C 0.82484 0.33878 0.33335 0.0
C696 C 0.85619 0.35143 0.36549 0.0
H697 H 0.83125 0.31806 0.31936 0.0
C698 C 0.85049 0.29421 0.31261 0.0
O699 O 0.89519 0.31947 0.25737 0.0
O700 O 0.87688 0.3315 0.25773 0.0
N701 N 0.88183 0.34842 0.37574 0.0
C702 C 0.898 0.35341 0.38932 0.0
C703 C 0.90513 0.36835 0.408 0.0
C704 C 0.89553 0.37794 0.4126 0.0
C705 C 0.87914 0.37285 0.39788 0.0
C706 C 0.87252 0.35762 0.37995 0.0
H707 H 0.90525 0.34586 0.38631 0.0
O708 O 0.90585 0.35298 0.29557 0.0
O709 O 0.87981 0.33895 0.31909 0.0
O710 O 0.89971 0.31905 0.32221 0.0
O711 O 0.88398 0.31713 0.36126 0.0
C712 C 0.86909 0.38223 0.40036 0.0
C713 C 0.85271 0.37629 0.38481 0.0
H714 H 0.82202 0.361 0.35119 0.0
H715 H 0.81258 0.33371 0.32052 0.0
H716 H 0.91787 0.37232 0.4191 0.0
H717 H 0.90094 0.38928 0.42738 0.0
H718 H 0.87395 0.39416 0.41392 0.0
H719 H 0.84525 0.38378 0.38657 0.0
Mn720 Mn 0.67522 0.56122 0.29183 0.0
Mn721 Mn 0.67415 0.54111 0.35355 0.0
C722 C 0.64705 0.54109 0.3131 0.0
C723 C 0.67597 0.56105 0.24283 0.0
C724 C 0.68446 0.58146 0.34783 0.0
O725 O 0.70147 0.56524 0.29516 0.0
O726 O 0.69789 0.54869 0.33429 0.0
C727 C 0.67353 0.50739 0.3327 0.0
N728 N 0.66595 0.51544 0.34856 0.0
C729 C 0.643 0.48595 0.36697 0.0
C730 C 0.65066 0.47734 0.35105 0.0
C731 C 0.66591 0.4881 0.33367 0.0
C732 C 0.65104 0.50519 0.36486 0.0
H733 H 0.68529 0.51565 0.31944 0.0
C734 C 0.70743 0.55828 0.3134 0.0
O735 O 0.68168 0.57629 0.25681 0.0
O736 O 0.6703 0.54604 0.25732 0.0
N737 N 0.65191 0.53294 0.37454 0.0
C738 C 0.64542 0.54325 0.38705 0.0
C739 C 0.62972 0.5345 0.40425 0.0
C740 C 0.6211 0.51532 0.40887 0.0
C741 C 0.62817 0.50505 0.39602 0.0
C742 C 0.64368 0.51448 0.37878 0.0
H743 H 0.65218 0.55804 0.38392 0.0
O744 O 0.64806 0.55287 0.29451 0.0
O745 O 0.66241 0.54134 0.31843 0.0
O746 O 0.6816 0.58124 0.32163 0.0
O747 O 0.68245 0.56736 0.36133 0.0
C748 C 0.62043 0.48582 0.39958 0.0
C749 C 0.62767 0.47622 0.38478 0.0
H750 H 0.64489 0.46247 0.35188 0.0
H751 H 0.67183 0.48154 0.32119 0.0
H752 H 0.62437 0.54253 0.41412 0.0
H753 H 0.60905 0.50862 0.42225 0.0
H754 H 0.60862 0.47819 0.4132 0.0
H755 H 0.62126 0.46136 0.38713 0.0
Mn756 Mn 0.44814 0.10528 0.89295 0.0
Mn757 Mn 0.46521 0.12411 0.8297 0.0
C758 C 0.43971 0.12521 0.87227 0.0
C759 C 0.44967 0.10574 0.94189 0.0
C760 C 0.4339 0.08486 0.83689 0.0
O761 O 0.47019 0.10104 0.88898 0.0
O762 O 0.47944 0.11332 0.84621 0.0
C763 C 0.50099 0.15476 0.85006 0.0
N764 N 0.48512 0.14881 0.83514 0.0
C765 C 0.4946 0.17983 0.82014 0.0
C766 C 0.51109 0.18629 0.83523 0.0
C767 C 0.51427 0.1737 0.85035 0.0
C768 C 0.48185 0.16082 0.82078 0.0
H769 H 0.5035 0.14512 0.86163 0.0
C770 C 0.48078 0.10503 0.86776 0.0
O771 O 0.43996 0.09042 0.92816 0.0
O772 O 0.45894 0.12066 0.92716 0.0
N773 N 0.45314 0.13524 0.81056 0.0
C774 C 0.43634 0.12681 0.79767 0.0
C775 C 0.43116 0.1374 0.78121 0.0
C776 C 0.44337 0.15648 0.77799 0.0
C777 C 0.4605 0.16488 0.79164 0.0
C778 C 0.46504 0.15358 0.80736 0.0
H779 H 0.42706 0.11208 0.79969 0.0
O780 O 0.42935 0.11351 0.89123 0.0
O781 O 0.4548 0.12505 0.866 0.0
O782 O 0.43381 0.08504 0.86356 0.0
O783 O 0.44471 0.09892 0.82212 0.0
C784 C 0.47325 0.18402 0.79026 0.0
C785 C 0.49023 0.19151 0.80468 0.0
H786 H 0.52138 0.20088 0.83547 0.0
H787 H 0.52693 0.17858 0.86212 0.0
H788 H 0.41786 0.13084 0.77083 0.0
H789 H 0.43941 0.16459 0.76507 0.0
H790 H 0.47006 0.19312 0.7784 0.0
H791 H 0.49984 0.20627 0.80374 0.0
Mn792 Mn 0.89956 0.34477 0.89422 0.0
Mn793 Mn 0.88004 0.3436 0.83181 0.0
C794 C 0.87968 0.31666 0.87294 0.0
C795 C 0.89893 0.3453 0.94325 0.0
C796 C 0.91997 0.35304 0.83793 0.0
O797 O 0.90339 0.37089 0.89103 0.0
O798 O 0.88926 0.36816 0.84965 0.0
C799 C 0.84769 0.34553 0.8529 0.0
N800 N 0.85474 0.33672 0.83761 0.0
C801 C 0.82427 0.31303 0.82368 0.0
C802 C 0.81668 0.3219 0.83915 0.0
C803 C 0.82844 0.33819 0.85389 0.0
C804 C 0.84354 0.32097 0.82353 0.0
H805 H 0.85671 0.35804 0.86426 0.0
C806 C 0.89803 0.37737 0.87127 0.0
O807 O 0.91432 0.35115 0.9296 0.0
O808 O 0.88407 0.33965 0.92842 0.0
N809 N 0.87051 0.32075 0.81194 0.0
C810 C 0.88003 0.31364 0.79868 0.0
C811 C 0.87032 0.29737 0.78291 0.0
C812 C 0.85097 0.28866 0.78075 0.0
C813 C 0.84148 0.29626 0.79451 0.0
C814 C 0.85191 0.31263 0.80964 0.0
H815 H 0.89492 0.32035 0.8001 0.0
O816 O 0.89143 0.31772 0.8916 0.0
O817 O 0.87989 0.332 0.86738 0.0
O818 O 0.91982 0.35134 0.86448 0.0
O819 O 0.90584 0.35035 0.82386 0.0
C820 C 0.82207 0.28819 0.79396 0.0
C821 C 0.81346 0.2965 0.80867 0.0
H822 H 0.80184 0.31627 0.84 0.0
H823 H 0.82269 0.34507 0.86597 0.0
H824 H 0.87775 0.29158 0.77236 0.0
H825 H 0.84357 0.27617 0.76843 0.0
H826 H 0.81361 0.27547 0.78254 0.0
H827 H 0.79852 0.29004 0.80838 0.0
Mn828 Mn 0.65864 0.55519 0.89372 0.0
Mn829 Mn 0.6592 0.53752 0.83042 0.0
C830 C 0.68652 0.56272 0.8723 0.0
C831 C 0.65805 0.55386 0.9427 0.0
C832 C 0.65221 0.5694 0.83769 0.0
O833 O 0.6322 0.53348 0.89058 0.0
O834 O 0.6342 0.52399 0.84733 0.0
C835 C 0.65299 0.5013 0.85063 0.0
N836 N 0.66328 0.51714 0.83578 0.0
C837 C 0.68405 0.50678 0.82049 0.0
C838 C 0.67364 0.49031 0.83551 0.0
C839 C 0.65809 0.4876 0.85075 0.0
C840 C 0.67839 0.51998 0.82134 0.0
H841 H 0.64098 0.49914 0.86224 0.0
C842 C 0.62512 0.52303 0.86937 0.0
O843 O 0.65265 0.5638 0.92916 0.0
O844 O 0.66332 0.54435 0.92779 0.0
N845 N 0.68232 0.549 0.81103 0.0
C846 C 0.69115 0.56587 0.79833 0.0
C847 C 0.70708 0.57084 0.78236 0.0
C848 C 0.71355 0.55829 0.77921 0.0
C849 C 0.70412 0.54093 0.79226 0.0
C850 C 0.68833 0.53676 0.8079 0.0
H851 H 0.68608 0.57545 0.80038 0.0
O852 O 0.68578 0.57349 0.89114 0.0
O853 O 0.67098 0.54785 0.86648 0.0
O854 O 0.65263 0.56959 0.86437 0.0
O855 O 0.65524 0.55844 0.82293 0.0
C856 C 0.70979 0.52763 0.79047 0.0
C857 C 0.69987 0.51064 0.80479 0.0
H858 H 0.67749 0.47968 0.83557 0.0
H859 H 0.65 0.47495 0.86246 0.0
H860 H 0.71427 0.58425 0.77235 0.0
H861 H 0.72577 0.56216 0.76674 0.0
H862 H 0.72184 0.53036 0.77833 0.0
H863 H 0.70452 0.50064 0.80357 0.0
Mn864 Mn 0.56065 0.88466 0.72261 0.0
Mn865 Mn 0.54225 0.86151 0.66259 0.0
C866 C 0.53996 0.89021 0.69751 0.0
C867 C 0.56 0.88574 0.77158 0.0
C868 C 0.5818 0.89348 0.66779 0.0
O869 O 0.56666 0.8636 0.72345 0.0
O870 O 0.54983 0.84711 0.6864 0.0
C871 C 0.50855 0.82893 0.68459 0.0
N872 N 0.51668 0.84359 0.66681 0.0
C873 C 0.48786 0.83399 0.64319 0.0
C874 C 0.47917 0.81869 0.66112 0.0
C875 C 0.48953 0.81625 0.68209 0.0
C876 C 0.50676 0.84634 0.64707 0.0
H877 H 0.51657 0.82692 0.70044 0.0
C878 C 0.55986 0.8493 0.70779 0.0
O879 O 0.57514 0.89564 0.75758 0.0
O880 O 0.54529 0.87506 0.75717 0.0
N881 N 0.53411 0.87361 0.63718 0.0
C882 C 0.54433 0.88975 0.62297 0.0
C883 C 0.53591 0.89466 0.60189 0.0
C884 C 0.51722 0.88271 0.59518 0.0
C885 C 0.507 0.86613 0.61005 0.0
C886 C 0.51604 0.86217 0.6312 0.0
H887 H 0.55883 0.89871 0.62752 0.0
O888 O 0.55084 0.90194 0.71606 0.0
O889 O 0.54101 0.87524 0.6949 0.0
O890 O 0.58068 0.89809 0.69278 0.0
O891 O 0.56857 0.87963 0.65538 0.0
C892 C 0.48823 0.85334 0.60468 0.0
C893 C 0.47858 0.83744 0.62154 0.0
H894 H 0.46454 0.80878 0.65905 0.0
H895 H 0.48292 0.80452 0.69608 0.0
H896 H 0.54387 0.90748 0.59052 0.0
H897 H 0.51083 0.88643 0.57865 0.0
H898 H 0.48098 0.85577 0.58797 0.0
H899 H 0.46403 0.82798 0.61768 0.0
Mn900 Mn 0.11176 0.67463 0.7258 0.0
Mn901 Mn 0.13092 0.67185 0.6652 0.0
C902 C 0.10223 0.64598 0.70519 0.0
C903 C 0.11254 0.67554 0.77482 0.0
C904 C 0.10267 0.68473 0.66896 0.0
O905 O 0.13497 0.70021 0.72244 0.0
O906 O 0.14801 0.69534 0.68447 0.0
C907 C 0.16209 0.66859 0.68827 0.0
N908 N 0.1468 0.66186 0.67175 0.0
C909 C 0.15055 0.63638 0.65683 0.0
C910 C 0.16646 0.64315 0.67345 0.0
C911 C 0.17219 0.65928 0.68934 0.0
C912 C 0.14101 0.64623 0.65668 0.0
H913 H 0.16648 0.68093 0.70058 0.0
C914 C 0.14817 0.70535 0.70485 0.0
O915 O 0.10373 0.68201 0.76066 0.0
O916 O 0.12121 0.66905 0.7605 0.0
N917 N 0.11597 0.64974 0.6443 0.0
C918 C 0.09982 0.64454 0.63052 0.0
C919 C 0.09199 0.62849 0.614 0.0
C920 C 0.10093 0.61807 0.61161 0.0
C921 C 0.11757 0.62372 0.62593 0.0
C922 C 0.12477 0.63989 0.64193 0.0
H923 H 0.09298 0.65259 0.63206 0.0
O924 O 0.09178 0.64785 0.72338 0.0
O925 O 0.11789 0.66078 0.69996 0.0
O926 O 0.09938 0.68194 0.6951 0.0
O927 O 0.11448 0.68186 0.65624 0.0
C928 C 0.12722 0.61387 0.62512 0.0
C929 C 0.14362 0.62012 0.64074 0.0
H930 H 0.17428 0.63599 0.67436 0.0
H931 H 0.18438 0.66451 0.70237 0.0
H932 H 0.07914 0.6242 0.60304 0.0
H933 H 0.09487 0.60574 0.59876 0.0
H934 H 0.12205 0.60135 0.61284 0.0
H935 H 0.15073 0.61224 0.64035 0.0
Mn936 Mn 0.3251 0.43843 0.72614 0.0
Mn937 Mn 0.32959 0.45965 0.66418 0.0
C938 C 0.35424 0.45689 0.70646 0.0
C939 C 0.32343 0.43879 0.77505 0.0
C940 C 0.31614 0.41851 0.66972 0.0
O941 O 0.29989 0.43671 0.72114 0.0
O942 O 0.30558 0.45337 0.68155 0.0
C943 C 0.33214 0.49424 0.68514 0.0
N944 N 0.33937 0.48556 0.66996 0.0
C945 C 0.36527 0.51468 0.65566 0.0
C946 C 0.35803 0.52394 0.67094 0.0
C947 C 0.34143 0.51367 0.68585 0.0
C948 C 0.35544 0.4953 0.65583 0.0
H949 H 0.31941 0.48638 0.69665 0.0
C950 C 0.29514 0.44424 0.70205 0.0
O951 O 0.31668 0.42334 0.76129 0.0
O952 O 0.33055 0.45386 0.76041 0.0
N953 N 0.35224 0.46665 0.64492 0.0
C954 C 0.35777 0.45559 0.63226 0.0
C955 C 0.37424 0.46369 0.61673 0.0
C956 C 0.38475 0.48304 0.61414 0.0
C957 C 0.37876 0.49413 0.62728 0.0
C958 C 0.36217 0.48527 0.64234 0.0
H959 H 0.34965 0.44071 0.63394 0.0
O960 O 0.35174 0.44461 0.72516 0.0
O961 O 0.33974 0.45801 0.70007 0.0
O962 O 0.31789 0.41827 0.69619 0.0
O963 O 0.31983 0.43313 0.65606 0.0
C964 C 0.38863 0.51363 0.62618 0.0
C965 C 0.38198 0.5239 0.64054 0.0
H966 H 0.36515 0.53893 0.67155 0.0
H967 H 0.33581 0.52072 0.69783 0.0
H968 H 0.37879 0.45504 0.60667 0.0
H969 H 0.39741 0.48921 0.60204 0.0
H970 H 0.40147 0.52089 0.61459 0.0
H971 H 0.38986 0.53888 0.63993 0.0
Mn972 Mn 0.55285 0.89616 0.12102 0.0
Mn973 Mn 0.5332 0.87609 0.1824 0.0
C974 C 0.56104 0.87627 0.14298 0.0
C975 C 0.55207 0.89575 0.07198 0.0
C976 C 0.56268 0.91671 0.1766 0.0
O977 O 0.53035 0.89988 0.1237 0.0
O978 O 0.51655 0.8824 0.16176 0.0
C979 C 0.50132 0.84129 0.16168 0.0
N980 N 0.51672 0.85014 0.17791 0.0
C981 C 0.51189 0.82127 0.19657 0.0
C982 C 0.49589 0.81183 0.18018 0.0
C983 C 0.49064 0.82188 0.16256 0.0
C984 C 0.52202 0.8406 0.19466 0.0
H985 H 0.49726 0.849 0.14815 0.0
C986 C 0.51687 0.8922 0.14096 0.0
O987 O 0.56157 0.91105 0.08583 0.0
O988 O 0.54276 0.88079 0.08661 0.0
N989 N 0.54779 0.86919 0.20462 0.0
C990 C 0.56403 0.88036 0.21805 0.0
C991 C 0.5711 0.87256 0.23687 0.0
C992 C 0.56137 0.8534 0.24175 0.0
C993 C 0.54491 0.84212 0.22717 0.0
C994 C 0.53838 0.85072 0.20907 0.0
H995 H 0.57141 0.89514 0.21479 0.0
O996 O 0.57181 0.88801 0.12435 0.0
O997 O 0.54584 0.87645 0.14789 0.0
O998 O 0.56618 0.91632 0.15076 0.0
O999 O 0.55016 0.90268 0.1897 0.0
C1000 C 0.53472 0.8227 0.22993 0.0
C1001 C 0.5183 0.81227 0.21444 0.0
H1002 H 0.48762 0.79687 0.18081 0.0
H1003 H 0.47838 0.81469 0.14975 0.0
H1004 H 0.5839 0.88132 0.24784 0.0
H1005 H 0.56675 0.84749 0.2566 0.0
H1006 H 0.53949 0.81563 0.24365 0.0
H1007 H 0.51074 0.79733 0.2164 0.0
Mn1008 Mn 0.10632 0.65979 0.12396 0.0
Mn1009 Mn 0.12708 0.66347 0.18613 0.0
C1010 C 0.1261 0.68872 0.14323 0.0
C1011 C 0.10595 0.65791 0.07503 0.0
C1012 C 0.08673 0.65268 0.18069 0.0
O1013 O 0.10325 0.63399 0.12895 0.0
O1014 O 0.11844 0.63867 0.16972 0.0
C1015 C 0.15985 0.66223 0.1653 0.0
N1016 N 0.15251 0.67098 0.18003 0.0
C1017 C 0.18278 0.69548 0.19319 0.0
C1018 C 0.19068 0.68669 0.17825 0.0
C1019 C 0.17916 0.67002 0.16418 0.0
C1020 C 0.16347 0.6871 0.19344 0.0
H1021 H 0.15102 0.64941 0.15451 0.0
C1022 C 0.1093 0.6284 0.14908 0.0
O1023 O 0.09082 0.65205 0.08934 0.0
O1024 O 0.12118 0.66424 0.0892 0.0
N1025 N 0.13615 0.68674 0.20463 0.0
C1026 C 0.12634 0.69369 0.2174 0.0
C1027 C 0.13576 0.71025 0.23259 0.0
C1028 C 0.15513 0.71939 0.23469 0.0
C1029 C 0.16494 0.71199 0.22133 0.0
C1030 C 0.15478 0.69532 0.20677 0.0
H1031 H 0.11143 0.68661 0.21612 0.0
O1032 O 0.1139 0.6868 0.12478 0.0
O1033 O 0.12635 0.67376 0.1498 0.0
O1034 O 0.08649 0.65369 0.15411 0.0
O1035 O 0.10117 0.65609 0.19454 0.0
C1036 C 0.1844 0.72049 0.22183 0.0
C1037 C 0.19332 0.71232 0.20759 0.0
H1038 H 0.20556 0.69264 0.17734 0.0
H1039 H 0.18515 0.66319 0.15253 0.0
H1040 H 0.1281 0.7159 0.24281 0.0
H1041 H 0.16231 0.73206 0.24666 0.0
H1042 H 0.19264 0.73343 0.23284 0.0
H1043 H 0.20829 0.71911 0.2078 0.0
Mn1044 Mn 0.34273 0.45065 0.12507 0.0
Mn1045 Mn 0.34631 0.47222 0.18644 0.0
C1046 C 0.31619 0.4434 0.15092 0.0
C1047 C 0.34048 0.44972 0.07618 0.0
C1048 C 0.35513 0.44122 0.17978 0.0
O1049 O 0.36917 0.47279 0.12384 0.0
O1050 O 0.36861 0.48701 0.16346 0.0
C1051 C 0.34523 0.50493 0.16483 0.0
N1052 N 0.33869 0.49019 0.18246 0.0
C1053 C 0.31954 0.49973 0.20644 0.0
C1054 C 0.32618 0.51514 0.18872 0.0
C1055 C 0.33894 0.51763 0.16762 0.0
C1056 C 0.326 0.48733 0.20221 0.0
H1057 H 0.35521 0.50697 0.14886 0.0
C1058 C 0.37654 0.48624 0.1411 0.0
O1059 O 0.34702 0.44071 0.08959 0.0
O1060 O 0.33548 0.45946 0.0911 0.0
N1061 N 0.32587 0.45988 0.21143 0.0
C1062 C 0.32002 0.44371 0.22553 0.0
C1063 C 0.30691 0.43885 0.24694 0.0
C1064 C 0.30034 0.45088 0.25409 0.0
C1065 C 0.30657 0.46745 0.23925 0.0
C1066 C 0.31938 0.47139 0.21782 0.0
H1067 H 0.32548 0.43472 0.22069 0.0
O1068 O 0.316 0.43208 0.13216 0.0
O1069 O 0.33175 0.45884 0.15359 0.0
O1070 O 0.35093 0.43797 0.15399 0.0
O1071 O 0.35423 0.45391 0.19336 0.0
C1072 C 0.30068 0.48027 0.24495 0.0
C1073 C 0.30688 0.49623 0.22824 0.0
H1074 H 0.32154 0.52509 0.19105 0.0
H1075 H 0.34406 0.52943 0.15378 0.0
H1076 H 0.30214 0.42602 0.25827 0.0
H1077 H 0.29045 0.44721 0.27093 0.0
H1078 H 0.29107 0.47781 0.26181 0.0
H1079 H 0.30186 0.50571 0.23236 0.0
Mn1080 Mn 0.10748 0.45026 0.61972 0.0
Mn1081 Mn 0.12817 0.47051 0.68058 0.0
C1082 C 0.12725 0.442 0.64177 0.0
C1083 C 0.10754 0.45033 0.57064 0.0
C1084 C 0.08762 0.4407 0.67613 0.0
O1085 O 0.10394 0.47288 0.62172 0.0
O1086 O 0.12087 0.48649 0.66021 0.0
C1087 C 0.16204 0.50265 0.65802 0.0
N1088 N 0.15389 0.48748 0.67484 0.0
C1089 C 0.1834 0.49358 0.69253 0.0
C1090 C 0.19213 0.50936 0.67554 0.0
C1091 C 0.1814 0.51385 0.6581 0.0
C1092 C 0.16408 0.48289 0.6914 0.0
H1093 H 0.15382 0.50614 0.64465 0.0
C1094 C 0.11122 0.48621 0.63926 0.0
O1095 O 0.0923 0.44125 0.58478 0.0
O1096 O 0.1226 0.45969 0.58499 0.0
N1097 N 0.1361 0.45672 0.70275 0.0
C1098 C 0.12557 0.44058 0.71682 0.0
C1099 C 0.13411 0.43419 0.73544 0.0
C1100 C 0.15333 0.44451 0.73952 0.0
C1101 C 0.16394 0.46088 0.72439 0.0
C1102 C 0.15462 0.46671 0.70646 0.0
H1103 H 0.11074 0.43278 0.71417 0.0
O1104 O 0.11528 0.4311 0.6235 0.0
O1105 O 0.12745 0.45745 0.64628 0.0
O1106 O 0.08756 0.43744 0.65006 0.0
O1107 O 0.10189 0.45306 0.68898 0.0
C1108 C 0.18335 0.47169 0.72644 0.0
C1109 C 0.19309 0.48793 0.71032 0.0
H1110 H 0.20705 0.51805 0.67557 0.0
H1111 H 0.18805 0.52595 0.64482 0.0
H1112 H 0.12586 0.42147 0.74692 0.0
H1113 H 0.15977 0.43972 0.75439 0.0
H1114 H 0.19096 0.46756 0.74016 0.0
H1115 H 0.20804 0.49596 0.71175 0.0
Mn1116 Mn 0.55182 0.65699 0.62237 0.0
Mn1117 Mn 0.53274 0.65868 0.68383 0.0
C1118 C 0.5608 0.6854 0.64351 0.0
C1119 C 0.5513 0.65642 0.57334 0.0
C1120 C 0.56261 0.6481 0.67902 0.0
O1121 O 0.5291 0.63096 0.62533 0.0
O1122 O 0.51679 0.63478 0.66488 0.0
C1123 C 0.49992 0.6591 0.66125 0.0
N1124 N 0.51524 0.66673 0.67778 0.0
C1125 C 0.50868 0.6901 0.69422 0.0
C1126 C 0.49272 0.68239 0.67757 0.0
C1127 C 0.48838 0.66688 0.66091 0.0
C1128 C 0.51968 0.68179 0.6936 0.0
H1129 H 0.49657 0.64719 0.6484 0.0
C1130 C 0.51641 0.62511 0.64389 0.0
O1131 O 0.56034 0.65022 0.5875 0.0
O1132 O 0.54213 0.66237 0.58766 0.0
N1133 N 0.54638 0.68095 0.70491 0.0
C1134 C 0.56271 0.68721 0.71872 0.0
C1135 C 0.569 0.70256 0.73652 0.0
C1136 C 0.55838 0.7112 0.74008 0.0
C1137 C 0.54178 0.70471 0.72532 0.0
C1138 C 0.53605 0.68916 0.70829 0.0
H1139 H 0.57075 0.68039 0.71646 0.0
O1140 O 0.57128 0.68383 0.62504 0.0
O1141 O 0.54523 0.6704 0.64878 0.0
O1142 O 0.5649 0.65022 0.65264 0.0
O1143 O 0.5508 0.65062 0.69239 0.0
C1144 C 0.53073 0.71308 0.7268 0.0
C1145 C 0.51425 0.70586 0.71109 0.0
H1146 H 0.4838 0.68836 0.67725 0.0
H1147 H 0.47616 0.66092 0.64787 0.0
H1148 H 0.58191 0.70759 0.7477 0.0
H1149 H 0.56316 0.7229 0.75409 0.0
H1150 H 0.53488 0.7252 0.73968 0.0
H1151 H 0.50601 0.71257 0.71205 0.0
Mn1152 Mn 0.34227 0.8943 0.62787 0.0
Mn1153 Mn 0.3407 0.87476 0.6904 0.0
C1154 C 0.31396 0.87422 0.64857 0.0
C1155 C 0.3433 0.89406 0.57893 0.0
C1156 C 0.34919 0.91436 0.68424 0.0
O1157 O 0.36853 0.89845 0.6315 0.0
O1158 O 0.36547 0.88483 0.67319 0.0
C1159 C 0.34434 0.84338 0.66926 0.0
N1160 N 0.33499 0.8498 0.68461 0.0
C1161 C 0.31281 0.81901 0.69968 0.0
C1162 C 0.32225 0.81206 0.68414 0.0
C1163 C 0.33804 0.8243 0.66878 0.0
C1164 C 0.31968 0.83814 0.69922 0.0
H1165 H 0.35652 0.85276 0.65751 0.0
C1166 C 0.37505 0.89357 0.65183 0.0
O1167 O 0.3489 0.90932 0.59281 0.0
O1168 O 0.33763 0.87908 0.5935 0.0
N1169 N 0.3177 0.86429 0.71001 0.0
C1170 C 0.3099 0.87319 0.72322 0.0
C1171 C 0.29421 0.863 0.74001 0.0
C1172 C 0.28681 0.84383 0.74319 0.0
C1173 C 0.29488 0.83494 0.72906 0.0
C1174 C 0.31069 0.84586 0.71304 0.0
H1175 H 0.31576 0.88797 0.72125 0.0
O1176 O 0.31524 0.88605 0.62989 0.0
O1177 O 0.32923 0.87436 0.6545 0.0
O1178 O 0.34827 0.91435 0.65762 0.0
O1179 O 0.34633 0.90022 0.69846 0.0
C1180 C 0.2879 0.81569 0.73027 0.0
C1181 C 0.29677 0.80771 0.71541 0.0
H1182 H 0.31745 0.79736 0.68375 0.0
H1183 H 0.34537 0.81904 0.65666 0.0
H1184 H 0.28795 0.86992 0.75071 0.0
H1185 H 0.27485 0.83604 0.75645 0.0
H1186 H 0.2756 0.80687 0.74236 0.0
H1187 H 0.29115 0.79286 0.71622 0.0
Mn1188 Mn 0.11473 0.43905 0.22133 0.0
Mn1189 Mn 0.13337 0.45822 0.15889 0.0
C1190 C 0.10714 0.45943 0.19992 0.0
C1191 C 0.11589 0.43954 0.27038 0.0
C1192 C 0.10257 0.41842 0.1655 0.0
O1193 O 0.13661 0.43441 0.21793 0.0
O1194 O 0.14857 0.44923 0.17732 0.0
C1195 C 0.16784 0.49075 0.17892 0.0
N1196 N 0.15195 0.48354 0.16373 0.0
C1197 C 0.15989 0.51356 0.14589 0.0
C1198 C 0.17639 0.52134 0.16127 0.0
C1199 C 0.18032 0.5099 0.178 0.0
C1200 C 0.14788 0.49445 0.14794 0.0
H1201 H 0.17099 0.48194 0.19152 0.0
C1202 C 0.14872 0.43992 0.19846 0.0
O1203 O 0.10605 0.42426 0.25663 0.0
O1204 O 0.12544 0.4544 0.25564 0.0
N1205 N 0.12011 0.46755 0.1384 0.0
C1206 C 0.10321 0.45797 0.12597 0.0
C1207 C 0.09689 0.46746 0.10916 0.0
C1208 C 0.10818 0.4866 0.1048 0.0
C1209 C 0.12565 0.49609 0.11747 0.0
C1210 C 0.13108 0.48595 0.13433 0.0
H1211 H 0.09463 0.44321 0.12889 0.0
O1212 O 0.09637 0.44792 0.21877 0.0
O1213 O 0.12204 0.45881 0.19436 0.0
O1214 O 0.10043 0.41885 0.19183 0.0
O1215 O 0.11443 0.43233 0.15147 0.0
C1216 C 0.13789 0.51521 0.11405 0.0
C1217 C 0.15488 0.524 0.12856 0.0
H1218 H 0.1861 0.53608 0.16045 0.0
H1219 H 0.19301 0.5158 0.18996 0.0
H1220 H 0.08341 0.46003 0.0994 0.0
H1221 H 0.1033 0.49386 0.09172 0.0
H1222 H 0.13425 0.52335 0.10064 0.0
H1223 H 0.16398 0.53878 0.12624 0.0
Mn1224 Mn 0.56133 0.67576 0.22459 0.0
Mn1225 Mn 0.53912 0.67211 0.16392 0.0
C1226 C 0.5425 0.64686 0.20458 0.0
C1227 C 0.56172 0.67708 0.27358 0.0
C1228 C 0.58026 0.68514 0.16753 0.0
O1229 O 0.56343 0.70122 0.22053 0.0
O1230 O 0.54542 0.69576 0.18255 0.0
C1231 C 0.50467 0.6688 0.18695 0.0
N1232 N 0.51326 0.662 0.17065 0.0
C1233 C 0.48409 0.6362 0.15631 0.0
C1234 C 0.47491 0.64302 0.17276 0.0
C1235 C 0.48525 0.65934 0.18824 0.0
C1236 C 0.50346 0.64618 0.15596 0.0
H1237 H 0.51258 0.68132 0.19892 0.0
C1238 C 0.55527 0.70608 0.20267 0.0
O1239 O 0.57693 0.6836 0.25922 0.0
O1240 O 0.54647 0.67042 0.25946 0.0
N1241 N 0.53206 0.64986 0.14346 0.0
C1242 C 0.54306 0.64479 0.1295 0.0
C1243 C 0.5349 0.62872 0.11304 0.0
C1244 C 0.51555 0.61813 0.11089 0.0
C1245 C 0.5045 0.62362 0.12544 0.0
C1246 C 0.51342 0.63987 0.1413 0.0
H1247 H 0.55795 0.65299 0.13077 0.0
O1248 O 0.55488 0.64909 0.22289 0.0
O1249 O 0.54131 0.66145 0.19899 0.0
O1250 O 0.58087 0.68276 0.19378 0.0
O1251 O 0.56554 0.68215 0.15482 0.0
C1252 C 0.485 0.61358 0.12493 0.0
C1253 C 0.4748 0.61979 0.14053 0.0
H1254 H 0.45993 0.63576 0.17381 0.0
H1255 H 0.47826 0.66463 0.20112 0.0
H1256 H 0.54351 0.62456 0.10189 0.0
H1257 H 0.50934 0.60584 0.09798 0.0
H1258 H 0.4777 0.60095 0.11287 0.0
H1259 H 0.45982 0.61179 0.14033 0.0
Mn1260 Mn 0.32654 0.88667 0.2301 0.0
Mn1261 Mn 0.32936 0.86849 0.1686 0.0
C1262 C 0.35523 0.89632 0.20979 0.0
C1263 C 0.32502 0.88503 0.279 0.0
C1264 C 0.31689 0.89694 0.1741 0.0
O1265 O 0.30077 0.8637 0.22556 0.0
O1266 O 0.30597 0.85096 0.18756 0.0
C1267 C 0.3328 0.83696 0.18953 0.0
N1268 N 0.33951 0.85264 0.1739 0.0
C1269 C 0.36515 0.84945 0.15806 0.0
C1270 C 0.35843 0.83318 0.17383 0.0
C1271 C 0.34223 0.82696 0.18973 0.0
C1272 C 0.35519 0.85886 0.15877 0.0
H1273 H 0.32036 0.83216 0.20178 0.0
C1274 C 0.29574 0.85061 0.20776 0.0
O1275 O 0.31892 0.89425 0.26506 0.0
O1276 O 0.33143 0.87635 0.26449 0.0
N1277 N 0.35143 0.88399 0.14796 0.0
C1278 C 0.35651 0.90038 0.13497 0.0
C1279 C 0.37259 0.90867 0.11851 0.0
C1280 C 0.38316 0.89993 0.11535 0.0
C1281 C 0.37762 0.88304 0.12884 0.0
C1282 C 0.36141 0.87539 0.14483 0.0
H1283 H 0.34833 0.90705 0.13706 0.0
O1284 O 0.35338 0.90641 0.22871 0.0
O1285 O 0.34039 0.88084 0.20387 0.0
O1286 O 0.32017 0.90016 0.20012 0.0
O1287 O 0.31905 0.88486 0.16081 0.0
C1288 C 0.38761 0.87355 0.12721 0.0
C1289 C 0.38145 0.85684 0.14198 0.0
H1290 H 0.36568 0.82543 0.17405 0.0
H1291 H 0.33702 0.81447 0.20207 0.0
H1292 H 0.37678 0.92171 0.10818 0.0
H1293 H 0.39551 0.90636 0.10256 0.0
H1294 H 0.40016 0.87907 0.11493 0.0
H1295 H 0.38942 0.84984 0.14095 0.0
H1296 H 0.38625 0.30533 0.82406 0.0
H1297 H 0.35775 0.29417 0.85128 0.0
H1298 H 0.38839 0.30179 0.92723 0.0
H1299 H 0.41687 0.31304 0.90045 0.0
H1300 H 0.3425 0.26304 0.88772 0.0
H1301 H 0.35812 0.32741 0.94407 0.0
H1302 H 0.37056 0.32749 0.91318 0.0
H1303 H 0.37584 0.32122 0.94636 0.0
C1304 C 0.38698 0.30482 0.84657 0.0
C1305 C 0.4039 0.31009 0.86 0.0
C1306 C 0.37067 0.29842 0.86208 0.0
C1307 C 0.37101 0.29739 0.89129 0.0
C1308 C 0.38787 0.30281 0.90476 0.0
H1309 H 0.28755 0.25314 0.02245 0.0
H1310 H 0.31655 0.26889 0.99586 0.0
C1311 C 0.40413 0.3091 0.88932 0.0
C1312 C 0.35361 0.28961 0.90764 0.0
H1313 H 0.33173 0.2996 0.95934 0.0
C1314 C 0.34007 0.27107 0.90322 0.0
C1315 C 0.35058 0.30007 0.92807 0.0
C1316 C 0.36446 0.3202 0.93313 0.0
C1317 C 0.3237 0.26257 0.91898 0.0
C1318 C 0.32059 0.27305 0.9393 0.0
C1319 C 0.33414 0.2916 0.94376 0.0
C1320 C 0.30319 0.26493 0.95575 0.0
C1321 C 0.3101 0.2423 0.9142 0.0
C1322 C 0.28613 0.25809 0.94214 0.0
C1323 C 0.26962 0.24905 0.95717 0.0
C1324 C 0.26976 0.24683 0.98627 0.0
C1325 C 0.28692 0.25457 1.00009 0.0
C1326 C 0.3035 0.26355 0.98492 0.0
H1327 H 0.31673 0.23518 0.90385 0.0
H1328 H 0.30388 0.23512 0.93416 0.0
H1329 H 0.29878 0.24096 0.90047 0.0
H1330 H 0.28558 0.25942 0.91974 0.0
H1331 H 0.2567 0.2435 0.94583 0.0
H1332 H 0.69226 0.10739 0.90258 0.0
H1333 H 0.70351 0.08996 0.92885 0.0
H1334 H 0.70856 0.06541 0.85266 0.0
H1335 H 0.69747 0.08299 0.82595 0.0
H1336 H 0.68957 0.05137 0.93275 0.0
H1337 H 0.76044 0.08831 0.88778 0.0
H1338 H 0.74446 0.09683 0.88434 0.0
H1339 H 0.74203 0.07818 0.86265 0.0
C1340 C 0.69576 0.09832 0.89127 0.0
C1341 C 0.69409 0.09677 0.862 0.0
C1342 C 0.70213 0.0883 0.90641 0.0
C1343 C 0.7071 0.07657 0.89271 0.0
C1344 C 0.70509 0.07463 0.86361 0.0
H1345 H 0.75851 0.01413 0.94813 0.0
H1346 H 0.74212 0.02667 0.92225 0.0
C1347 C 0.69867 0.08463 0.84839 0.0
C1348 C 0.71465 0.06666 0.90896 0.0
H1349 H 0.75347 0.06334 0.91802 0.0
C1350 C 0.70353 0.05395 0.92956 0.0
C1351 C 0.7329 0.07013 0.90485 0.0
C1352 C 0.74575 0.08421 0.8839 0.0
C1353 C 0.71009 0.04439 0.94582 0.0
C1354 C 0.72836 0.04789 0.94172 0.0
C1355 C 0.73944 0.0606 0.92111 0.0
C1356 C 0.7364 0.03857 0.95834 0.0
C1357 C 0.69728 0.03037 0.96684 0.0
C1358 C 0.73839 0.04076 0.98744 0.0
C1359 C 0.74771 0.03346 1.00246 0.0
C1360 C 0.75543 0.02405 0.98857 0.0
C1361 C 0.75286 0.02139 0.95956 0.0
C1362 C 0.74348 0.02857 0.94466 0.0
H1363 H 0.68253 0.02569 0.96221 0.0
H1364 H 0.69914 0.01809 0.96739 0.0
H1365 H 0.70046 0.03677 0.98788 0.0
H1366 H 0.73336 0.04873 0.99842 0.0
H1367 H 0.74957 0.03591 0.02472 0.0
H1368 H 0.96712 0.7187 0.02061 0.0
H1369 H 0.95564 0.68935 0.99549 0.0
H1370 H 0.96208 0.71754 0.91738 0.0
H1371 H 0.97357 0.74682 0.94204 0.0
H1372 H 0.924 0.67266 0.95906 0.0
H1373 H 0.98853 0.68745 0.90403 0.0
H1374 H 0.98848 0.70047 0.93411 0.0
H1375 H 0.98224 0.70504 0.90039 0.0
C1376 C 0.96624 0.71869 0.99807 0.0
C1377 C 0.97129 0.73517 0.98341 0.0
C1378 C 0.95966 0.7019 0.98376 0.0
C1379 C 0.95826 0.70132 0.95455 0.0
C1380 C 0.96337 0.71772 0.93988 0.0
H1381 H 0.91606 0.6169 0.82573 0.0
H1382 H 0.9312 0.64581 0.85246 0.0
C1383 C 0.96982 0.73445 0.95411 0.0
C1384 C 0.95059 0.68348 0.93936 0.0
H1385 H 0.9608 0.66076 0.88933 0.0
C1386 C 0.93207 0.66996 0.944 0.0
C1387 C 0.96113 0.6801 0.91954 0.0
C1388 C 0.98125 0.69395 0.91431 0.0
C1389 C 0.92364 0.6533 0.92888 0.0
C1390 C 0.93416 0.64988 0.90903 0.0
C1391 C 0.95274 0.66338 0.90453 0.0
C1392 C 0.92606 0.63239 0.89273 0.0
C1393 C 0.90335 0.6398 0.93367 0.0
C1394 C 0.91866 0.61528 0.9064 0.0
C1395 C 0.90993 0.59877 0.89124 0.0
C1396 C 0.9086 0.59899 0.86198 0.0
C1397 C 0.9168 0.61619 0.84821 0.0
C1398 C 0.92544 0.63274 0.86347 0.0
H1399 H 0.89622 0.6466 0.94347 0.0
H1400 H 0.89623 0.6333 0.9138 0.0
H1401 H 0.90193 0.62868 0.94792 0.0
H1402 H 0.91943 0.61467 0.92889 0.0
H1403 H 0.90402 0.58581 0.90257 0.0
H1404 H 0.31575 0.41433 0.61309 0.0
H1405 H 0.30271 0.38565 0.58643 0.0
H1406 H 0.28718 0.35411 0.66276 0.0
H1407 H 0.30053 0.38287 0.68985 0.0
H1408 H 0.30251 0.34103 0.62373 0.0
H1409 H 0.24769 0.35072 0.5749 0.0
H1410 H 0.27059 0.36988 0.56943 0.0
H1411 H 0.26121 0.36439 0.60416 0.0
C1412 C 0.30958 0.40133 0.62435 0.0
C1413 C 0.30905 0.40096 0.65372 0.0
C1414 C 0.30204 0.38491 0.60899 0.0
C1415 C 0.29358 0.36771 0.62255 0.0
C1416 C 0.29351 0.36724 0.65185 0.0
H1417 H 0.23332 0.25328 0.56815 0.0
H1418 H 0.24945 0.28206 0.59456 0.0
C1419 C 0.30116 0.3837 0.6673 0.0
C1420 C 0.28479 0.35026 0.60607 0.0
H1421 H 0.2516 0.32636 0.55688 0.0
C1422 C 0.29132 0.33777 0.60921 0.0
C1423 C 0.27018 0.34602 0.58711 0.0
C1424 C 0.26186 0.35836 0.58384 0.0
C1425 C 0.28386 0.32133 0.59355 0.0
C1426 C 0.26935 0.31718 0.57448 0.0
C1427 C 0.26282 0.32965 0.57135 0.0
C1428 C 0.2603 0.29967 0.55826 0.0
C1429 C 0.29176 0.30867 0.59719 0.0
C1430 C 0.26083 0.3 0.52898 0.0
C1431 C 0.25158 0.28351 0.51368 0.0
C1432 C 0.2414 0.26638 0.52741 0.0
C1433 C 0.24099 0.26617 0.55679 0.0
C1434 C 0.25032 0.28262 0.57201 0.0
H1435 H 0.30564 0.3159 0.60713 0.0
H1436 H 0.28241 0.29688 0.61076 0.0
H1437 H 0.29287 0.30298 0.5768 0.0
H1438 H 0.26836 0.31304 0.51796 0.0
H1439 H 0.25215 0.28423 0.49113 0.0
H1440 H 0.59561 0.88117 0.62706 0.0
H1441 H 0.62418 0.89879 0.60063 0.0
H1442 H 0.63545 0.94841 0.6449 0.0
H1443 H 0.60723 0.9305 0.67259 0.0
H1444 H 0.63509 0.92554 0.5654 0.0
H1445 H 0.68389 0.95124 0.65461 0.0
H1446 H 0.65981 0.93417 0.65882 0.0
H1447 H 0.66688 0.95836 0.65613 0.0
C1448 C 0.60424 0.89582 0.63132 0.0
C1449 C 0.59926 0.90442 0.65208 0.0
C1450 C 0.62057 0.90591 0.61612 0.0
C1451 C 0.63221 0.92493 0.62095 0.0
C1452 C 0.62705 0.93367 0.64129 0.0
H1453 H 0.72251 0.98664 0.49883 0.0
H1454 H 0.69346 0.97516 0.52492 0.0
C1455 C 0.61087 0.92345 0.65702 0.0
C1456 C 0.64958 0.93537 0.6044 0.0
H1457 H 0.6965 0.96251 0.61006 0.0
C1458 C 0.64853 0.93363 0.57519 0.0
C1459 C 0.66717 0.94586 0.6171 0.0
C1460 C 0.66958 0.9474 0.64838 0.0
C1461 C 0.66451 0.94152 0.55844 0.0
C1462 C 0.68208 0.95218 0.57112 0.0
C1463 C 0.68307 0.95443 0.60026 0.0
C1464 C 0.69973 0.95974 0.55513 0.0
C1465 C 0.66237 0.93753 0.52754 0.0
C1466 C 0.71323 0.95548 0.56384 0.0
C1467 C 0.72994 0.96243 0.54951 0.0
C1468 C 0.73353 0.97363 0.52578 0.0
C1469 C 0.72004 0.97788 0.51686 0.0
C1470 C 0.70338 0.97122 0.53167 0.0
H1471 H 0.64876 0.92523 0.52249 0.0
H1472 H 0.66324 0.94957 0.51632 0.0
H1473 H 0.67346 0.93508 0.51955 0.0
H1474 H 0.71081 0.94662 0.58175 0.0
H1475 H 0.73999 0.95877 0.55683 0.0
H1476 H 0.03701 0.75173 0.48684 0.0
H1477 H 0.04934 0.73532 0.51385 0.0
H1478 H 0.03611 0.75335 0.5903 0.0
H1479 H 0.02379 0.7697 0.56375 0.0
H1480 H 0.07882 0.75162 0.55497 0.0
H1481 H 0.01278 0.69653 0.60023 0.0
H1482 H 0.0136 0.70981 0.56994 0.0
H1483 H 0.01689 0.71972 0.60417 0.0
C1484 C 0.03661 0.75212 0.50939 0.0
C1485 C 0.02936 0.76206 0.52304 0.0
C1486 C 0.04368 0.74274 0.52479 0.0
C1487 C 0.04341 0.74292 0.55407 0.0
C1488 C 0.03617 0.75277 0.56773 0.0
H1489 H 0.08162 0.69955 0.68769 0.0
H1490 H 0.06718 0.71348 0.65963 0.0
C1491 C 0.02923 0.76222 0.55243 0.0
C1492 C 0.05135 0.73346 0.5705 0.0
H1493 H 0.04046 0.69921 0.61848 0.0
C1494 C 0.07043 0.74007 0.5687 0.0
C1495 C 0.0404 0.71853 0.5886 0.0
C1496 C 0.01975 0.71058 0.59079 0.0
C1497 C 0.07893 0.73238 0.58494 0.0
C1498 C 0.06797 0.71735 0.60296 0.0
C1499 C 0.04886 0.71072 0.6047 0.0
C1500 C 0.07608 0.70824 0.61996 0.0
C1501 C 0.09967 0.74082 0.58322 0.0
C1502 C 0.08546 0.70023 0.607 0.0
C1503 C 0.09379 0.69237 0.62292 0.0
C1504 C 0.09275 0.69211 0.65226 0.0
C1505 C 0.08274 0.69953 0.66519 0.0
C1506 C 0.07449 0.70752 0.64917 0.0
H1507 H 0.10646 0.7552 0.57503 0.0
H1508 H 0.10568 0.74099 0.60396 0.0
H1509 H 0.10299 0.73247 0.56881 0.0
H1510 H 0.08644 0.70015 0.58448 0.0
H1511 H 0.10115 0.68658 0.61215 0.0
H1512 H 0.58355 0.68836 0.11076 0.0
H1513 H 0.61147 0.69955 0.08267 0.0
H1514 H 0.64375 0.70831 0.15718 0.0
H1515 H 0.61575 0.69682 0.18565 0.0
H1516 H 0.64255 0.73376 0.08393 0.0
H1517 H 0.66048 0.67956 0.10807 0.0
H1518 H 0.63815 0.67691 0.1162 0.0
H1519 H 0.65771 0.69061 0.13836 0.0
C1520 C 0.59654 0.69256 0.1213 0.0
C1521 C 0.59734 0.69165 0.15058 0.0
C1522 C 0.61251 0.69895 0.10513 0.0
C1523 C 0.62966 0.70454 0.11774 0.0
C1524 C 0.63059 0.70369 0.14693 0.0
H1525 H 0.74288 0.75895 0.06319 0.0
H1526 H 0.71355 0.74271 0.0881 0.0
C1527 C 0.61457 0.69722 0.1632 0.0
C1528 C 0.64664 0.71203 0.10032 0.0
H1529 H 0.68311 0.70606 0.08341 0.0
C1530 C 0.65133 0.72761 0.08363 0.0
C1531 C 0.65807 0.70398 0.09993 0.0
C1532 C 0.6533 0.68674 0.11638 0.0
C1533 C 0.6674 0.73565 0.06714 0.0
C1534 C 0.67894 0.72772 0.06699 0.0
C1535 C 0.67418 0.71205 0.08348 0.0
C1536 C 0.69658 0.7362 0.05113 0.0
C1537 C 0.67221 0.75292 0.05071 0.0
C1538 C 0.6968 0.73749 0.0219 0.0
C1539 C 0.71363 0.74681 0.00744 0.0
C1540 C 0.73054 0.75501 0.02202 0.0
C1541 C 0.73018 0.75298 0.05123 0.0
C1542 C 0.7134 0.74364 0.06557 0.0
H1543 H 0.66401 0.75938 0.05753 0.0
H1544 H 0.68715 0.76328 0.05282 0.0
H1545 H 0.66929 0.74932 0.0283 0.0
H1546 H 0.68394 0.73157 0.01032 0.0
H1547 H 0.71337 0.74805 0.98499 0.0
H1548 H 0.32543 0.93289 0.18177 0.0
H1549 H 0.31454 0.95034 0.15425 0.0
H1550 H 0.28131 0.90185 0.104 0.0
H1551 H 0.29307 0.88483 0.13027 0.0
H1552 H 0.29646 0.93003 0.07182 0.0
H1553 H 0.26673 0.94884 0.1608 0.0
H1554 H 0.2911 0.95771 0.16456 0.0
H1555 H 0.27541 0.93306 0.1645 0.0
C1556 C 0.31575 0.92599 0.16489 0.0
C1557 C 0.31 0.90748 0.15825 0.0
C1558 C 0.30943 0.93593 0.14927 0.0
C1559 C 0.29674 0.92734 0.12736 0.0
C1560 C 0.29107 0.90884 0.12075 0.0
H1561 H 0.22116 0.95864 0.06102 0.0
H1562 H 0.23824 0.94668 0.08627 0.0
C1563 C 0.29776 0.89909 0.13584 0.0
C1564 C 0.28934 0.93745 0.11105 0.0
H1565 H 0.26686 0.96206 0.11718 0.0
C1566 C 0.28994 0.937 0.08176 0.0
C1567 C 0.2807 0.94646 0.12393 0.0
C1568 C 0.27826 0.94641 0.15515 0.0
C1569 C 0.28174 0.94479 0.06505 0.0
C1570 C 0.27342 0.9541 0.07794 0.0
C1571 C 0.27332 0.95503 0.10722 0.0
C1572 C 0.26332 0.9616 0.06184 0.0
C1573 C 0.28135 0.94212 0.03386 0.0
C1574 C 0.27163 0.97405 0.03953 0.0
C1575 C 0.26162 0.98058 0.02447 0.0
C1576 C 0.24335 0.97524 0.03209 0.0
C1577 C 0.23526 0.96314 0.05476 0.0
C1578 C 0.24505 0.95629 0.06927 0.0
H1579 H 0.28351 0.93042 0.02821 0.0
H1580 H 0.26797 0.93942 0.02483 0.0
H1581 H 0.29265 0.95483 0.02414 0.0
H1582 H 0.28587 0.97883 0.03384 0.0
H1583 H 0.26825 0.99004 1.00725 0.0
H1584 H 0.11266 0.40766 0.11849 0.0
H1585 H 0.09564 0.37865 0.09325 0.0
H1586 H 0.05045 0.36018 0.15166 0.0
H1587 H 0.06804 0.38911 0.17811 0.0
H1588 H 0.05594 0.3331 0.14118 0.0
H1589 H 0.05492 0.3629 0.03928 0.0
H1590 H 0.07839 0.37263 0.05065 0.0
H1591 H 0.06242 0.37675 0.07054 0.0
C1592 C 0.09901 0.39753 0.12589 0.0
C1593 C 0.0916 0.40078 0.15016 0.0
C1594 C 0.0892 0.38095 0.11123 0.0
C1595 C 0.07145 0.36739 0.11989 0.0
C1596 C 0.06402 0.3705 0.14432 0.0
H1597 H 0.01193 0.27356 1.00474 0.0
H1598 H 0.02112 0.30168 0.03212 0.0
C1599 C 0.07406 0.38702 0.15943 0.0
C1600 C 0.06128 0.34966 0.10415 0.0
H1601 H 0.05113 0.33213 0.03803 0.0
C1602 C 0.05462 0.33289 0.11866 0.0
C1603 C 0.059 0.34919 0.0748 0.0
C1604 C 0.06387 0.36635 0.05803 0.0
C1605 C 0.04671 0.31584 0.10457 0.0
C1606 C 0.04617 0.31558 0.075 0.0
C1607 C 0.0519 0.33225 0.06062 0.0
C1608 C 0.04031 0.29834 0.05857 0.0
C1609 C 0.0389 0.29834 0.12169 0.0
C1610 C 0.04826 0.28724 0.06379 0.0
C1611 C 0.04274 0.27102 0.0486 0.0
C1612 C 0.0296 0.26582 0.02714 0.0
C1613 C 0.02214 0.27726 0.0211 0.0
C1614 C 0.02735 0.2933 0.0368 0.0
H1615 H 0.03397 0.30021 0.14232 0.0
H1616 H 0.02719 0.2865 0.11091 0.0
H1617 H 0.04993 0.29488 0.1256 0.0
H1618 H 0.05885 0.29114 0.07958 0.0
H1619 H 0.04893 0.26261 0.05346 0.0
H1620 H 0.68468 0.58582 0.40433 0.0
H1621 H 0.6977 0.61464 0.43068 0.0
H1622 H 0.71304 0.64573 0.35388 0.0
H1623 H 0.69959 0.61686 0.32723 0.0
H1624 H 0.73308 0.64167 0.43169 0.0
H1625 H 0.68973 0.67076 0.3958 0.0
H1626 H 0.68358 0.64706 0.38927 0.0
H1627 H 0.70043 0.6654 0.36766 0.0
C1628 C 0.6906 0.59876 0.39295 0.0
C1629 C 0.69107 0.59899 0.36359 0.0
C1630 C 0.69805 0.61525 0.4081 0.0
C1631 C 0.70618 0.63238 0.39433 0.0
C1632 C 0.70645 0.63269 0.36501 0.0
H1633 H 0.77551 0.74599 0.44467 0.0
H1634 H 0.75734 0.71669 0.42011 0.0
C1635 C 0.69883 0.61615 0.34978 0.0
C1636 C 0.71543 0.64984 0.41076 0.0
H1637 H 0.71708 0.69119 0.42122 0.0
C1638 C 0.72944 0.65241 0.42958 0.0
C1639 C 0.7107 0.66388 0.40802 0.0
C1640 C 0.69517 0.6616 0.3893 0.0
C1641 C 0.7391 0.66875 0.44523 0.0
C1642 C 0.73455 0.68286 0.44216 0.0
C1643 C 0.7205 0.68031 0.42352 0.0
C1644 C 0.74479 0.70067 0.45736 0.0
C1645 C 0.75445 0.67103 0.4644 0.0
C1646 C 0.74354 0.70142 0.48648 0.0
C1647 C 0.75389 0.71822 0.5007 0.0
C1648 C 0.76576 0.73454 0.48602 0.0
C1649 C 0.76665 0.73371 0.45675 0.0
C1650 C 0.75622 0.71698 0.44259 0.0
H1651 H 0.75843 0.66033 0.46066 0.0
H1652 H 0.76687 0.68493 0.46169 0.0
H1653 H 0.74979 0.66984 0.48637 0.0
H1654 H 0.73463 0.68899 0.49822 0.0
H1655 H 0.75282 0.71833 0.5232 0.0
H1656 H 0.25333 0.02178 0.45027 0.0
H1657 H 0.28163 0.03266 0.42319 0.0
H1658 H 0.31323 0.04454 0.49917 0.0
H1659 H 0.28482 0.03322 0.52658 0.0
H1660 H 0.31099 0.06701 0.42268 0.0
H1661 H 0.33377 0.01768 0.45484 0.0
H1662 H 0.31086 0.01375 0.46216 0.0
H1663 H 0.33012 0.02923 0.48365 0.0
C1664 C 0.26625 0.02649 0.46133 0.0
C1665 C 0.26675 0.0266 0.49069 0.0
C1666 C 0.28244 0.03272 0.44575 0.0
C1667 C 0.29957 0.03925 0.45906 0.0
C1668 C 0.30014 0.03917 0.48836 0.0
H1669 H 0.41338 0.09855 0.40352 0.0
H1670 H 0.38445 0.0826 0.42969 0.0
C1671 C 0.28388 0.03278 0.50403 0.0
C1672 C 0.31685 0.04723 0.44218 0.0
H1673 H 0.35549 0.04413 0.42897 0.0
C1674 C 0.32063 0.06189 0.42391 0.0
C1675 C 0.32947 0.04058 0.44379 0.0
C1676 C 0.3258 0.02433 0.46196 0.0
C1677 C 0.33679 0.07029 0.40764 0.0
C1678 C 0.34946 0.06374 0.40942 0.0
C1679 C 0.34572 0.04908 0.42762 0.0
C1680 C 0.36697 0.07241 0.3932 0.0
C1681 C 0.34043 0.08642 0.38918 0.0
C1682 C 0.36677 0.07165 0.36394 0.0
C1683 C 0.38334 0.08076 0.34879 0.0
C1684 C 0.40042 0.09083 0.36266 0.0
C1685 C 0.40052 0.09108 0.39205 0.0
C1686 C 0.38399 0.08191 0.40712 0.0
H1687 H 0.33133 0.09217 0.39446 0.0
H1688 H 0.35508 0.09765 0.39091 0.0
H1689 H 0.33781 0.08176 0.36714 0.0
H1690 H 0.35378 0.06417 0.3528 0.0
H1691 H 0.3827 0.0802 0.32623 0.0
H1692 H 0.89628 0.31045 0.40456 0.0
H1693 H 0.91351 0.29908 0.43104 0.0
H1694 H 0.93853 0.29426 0.3552 0.0
H1695 H 0.92121 0.30557 0.32826 0.0
H1696 H 0.92299 0.26229 0.39005 0.0
H1697 H 0.96917 0.32598 0.44986 0.0
H1698 H 0.94502 0.31894 0.4515 0.0
H1699 H 0.95707 0.32626 0.41879 0.0
C1700 C 0.90549 0.30708 0.39339 0.0
C1701 C 0.90732 0.30895 0.36418 0.0
C1702 C 0.91545 0.3007 0.40867 0.0
C1703 C 0.9275 0.29609 0.39516 0.0
C1704 C 0.92939 0.2979 0.36605 0.0
H1705 H 0.99012 0.2442 0.44881 0.0
H1706 H 0.9769 0.26 0.42302 0.0
C1707 C 0.91949 0.30437 0.35069 0.0
C1708 C 0.93735 0.28847 0.41134 0.0
H1709 H 0.96857 0.29835 0.46396 0.0
C1710 C 0.93307 0.27021 0.40606 0.0
C1711 C 0.95033 0.29878 0.4324 0.0
C1712 C 0.95583 0.31864 0.4384 0.0
C1713 C 0.94119 0.26185 0.42159 0.0
C1714 C 0.95428 0.27219 0.44257 0.0
C1715 C 0.95855 0.29046 0.44788 0.0
C1716 C 0.96375 0.26423 0.45892 0.0
C1717 C 0.93529 0.24185 0.41587 0.0
C1718 C 0.96157 0.2622 0.48799 0.0
C1719 C 0.96932 0.2533 0.503 0.0
C1720 C 0.97937 0.24627 0.48912 0.0
C1721 C 0.98225 0.24918 0.46018 0.0
C1722 C 0.97462 0.25815 0.44531 0.0
H1723 H 0.92174 0.23457 0.40495 0.0
H1724 H 0.94573 0.24123 0.4023 0.0
H1725 H 0.93423 0.23433 0.43551 0.0
H1726 H 0.95335 0.26695 0.49894 0.0
H1727 H 0.96684 0.25131 0.52523 0.0
H1728 H 0.08293 0.65539 0.23684 0.0
H1729 H 0.05437 0.64277 0.26375 0.0
H1730 H 0.02243 0.62287 0.18812 0.0
H1731 H 0.05105 0.63583 0.16077 0.0
H1732 H 0.00827 0.6384 0.22502 0.0
H1733 H 0.02197 0.58781 0.27962 0.0
H1734 H 0.04022 0.61137 0.28337 0.0
H1735 H 0.03504 0.60067 0.2495 0.0
C1736 C 0.06986 0.64842 0.2258 0.0
C1737 C 0.06932 0.64646 0.19659 0.0
C1738 C 0.05352 0.64112 0.2413 0.0
C1739 C 0.03627 0.63147 0.22804 0.0
C1740 C 0.03562 0.63013 0.19881 0.0
H1741 H 0.92241 0.56661 0.28091 0.0
H1742 H 0.95137 0.5837 0.25525 0.0
C1743 C 0.05199 0.63757 0.1832 0.0
C1744 C 0.01896 0.6225 0.24476 0.0
H1745 H 0.99642 0.59027 0.29575 0.0
C1746 C 0.00565 0.62785 0.24043 0.0
C1747 C 0.01556 0.60871 0.26487 0.0
C1748 C 0.02886 0.60165 0.26949 0.0
C1749 C 0.98913 0.61993 0.25591 0.0
C1750 C 0.98578 0.60619 0.27603 0.0
C1751 C 0.99912 0.60092 0.28047 0.0
C1752 C 0.96815 0.59648 0.2918 0.0
C1753 C 0.97547 0.62647 0.25087 0.0
C1754 C 0.968 0.59776 0.32098 0.0
C1755 C 0.9514 0.58795 0.33586 0.0
C1756 C 0.93468 0.57649 0.3218 0.0
C1757 C 0.93497 0.57527 0.29252 0.0
C1758 C 0.95152 0.58515 0.27772 0.0
H1759 H 0.982 0.64009 0.24012 0.0
H1760 H 0.96408 0.61627 0.23747 0.0
H1761 H 0.96933 0.62761 0.2708 0.0
H1762 H 0.98075 0.60633 0.33224 0.0
H1763 H 0.95172 0.58917 0.35837 0.0
H1764 H 0.42627 0.34688 0.27751 0.0
H1765 H 0.41097 0.36082 0.25199 0.0
H1766 H 0.39863 0.37857 0.32946 0.0
H1767 H 0.41402 0.36474 0.35534 0.0
H1768 H 0.37375 0.35546 0.25644 0.0
H1769 H 0.42925 0.42686 0.28284 0.0
H1770 H 0.43222 0.40696 0.28673 0.0
H1771 H 0.41893 0.41138 0.31187 0.0
C1772 C 0.42019 0.35361 0.28924 0.0
C1773 C 0.42156 0.35483 0.31854 0.0
C1774 C 0.4114 0.36153 0.27456 0.0
C1775 C 0.40392 0.37095 0.28881 0.0
C1776 C 0.40456 0.37157 0.31807 0.0
H1777 H 0.35981 0.44028 0.23603 0.0
H1778 H 0.37059 0.42225 0.26164 0.0
C1779 C 0.41327 0.36356 0.33283 0.0
C1780 C 0.39618 0.38077 0.27289 0.0
H1781 H 0.40375 0.42396 0.25744 0.0
C1782 C 0.38027 0.37044 0.25662 0.0
C1783 C 0.4048 0.4003 0.27309 0.0
C1784 C 0.42233 0.41211 0.28936 0.0
C1785 C 0.3725 0.37913 0.24096 0.0
C1786 C 0.38115 0.39869 0.24111 0.0
C1787 C 0.39712 0.40898 0.25734 0.0
C1788 C 0.37376 0.40886 0.22513 0.0
C1789 C 0.35487 0.36727 0.22496 0.0
C1790 C 0.37197 0.40738 0.19596 0.0
C1791 C 0.36568 0.41766 0.18112 0.0
C1792 C 0.3613 0.42979 0.19517 0.0
C1793 C 0.36312 0.43117 0.22441 0.0
C1794 C 0.36927 0.42084 0.23916 0.0
H1795 H 0.34744 0.35281 0.23288 0.0
H1796 H 0.34544 0.37304 0.22616 0.0
H1797 H 0.35829 0.36685 0.2027 0.0
H1798 H 0.37575 0.39854 0.18459 0.0
H1799 H 0.36457 0.41633 0.15864 0.0
H1800 H 0.58528 0.95193 0.15639 0.0
H1801 H 0.60152 0.98076 0.18331 0.0
H1802 H 0.58044 0.94998 0.25968 0.0
H1803 H 0.56418 0.92124 0.2332 0.0
H1804 H 0.58334 0.99393 0.22251 0.0
H1805 H 0.63739 0.98346 0.27298 0.0
H1806 H 0.62537 0.97128 0.24172 0.0
H1807 H 0.61411 0.96427 0.27501 0.0
C1808 C 0.58424 0.95127 0.17892 0.0
C1809 C 0.57339 0.93422 0.19257 0.0
C1810 C 0.59351 0.96775 0.19426 0.0
C1811 C 0.59233 0.96746 0.2235 0.0
C1812 C 0.58174 0.95049 0.23717 0.0
H1813 H 0.63281 0.05027 0.35586 0.0
H1814 H 0.61963 0.02156 0.32859 0.0
C1815 C 0.57236 0.93406 0.22191 0.0
C1816 C 0.60132 0.98493 0.23977 0.0
H1817 H 0.63439 0.0087 0.28915 0.0
C1818 C 0.5946 0.99726 0.23692 0.0
C1819 C 0.61582 0.98907 0.25883 0.0
C1820 C 0.62375 0.97643 0.26229 0.0
C1821 C 0.60178 0.01349 0.25297 0.0
C1822 C 0.61646 0.0178 0.27184 0.0
C1823 C 0.62317 0.00543 0.27469 0.0
C1824 C 0.62516 0.0352 0.28846 0.0
C1825 C 0.59316 0.02559 0.2501 0.0
C1826 C 0.6331 0.05242 0.275 0.0
C1827 C 0.64048 0.06878 0.29045 0.0
C1828 C 0.64038 0.06836 0.31982 0.0
C1829 C 0.63309 0.05112 0.33331 0.0
C1830 C 0.62554 0.03469 0.31775 0.0
H1831 H 0.57889 0.01775 0.24157 0.0
H1832 H 0.59265 0.03164 0.27048 0.0
H1833 H 0.60157 0.03709 0.23546 0.0
H1834 H 0.63349 0.05322 0.25244 0.0
H1835 H 0.6462 0.08178 0.27927 0.0
H1836 H 0.3633 0.94963 0.66334 0.0
H1837 H 0.37495 0.97844 0.68995 0.0
H1838 H 0.35878 0.94729 0.76663 0.0
H1839 H 0.34735 0.91856 0.74048 0.0
H1840 H 0.35792 0.99082 0.7294 0.0
H1841 H 0.41435 0.98317 0.77721 0.0
H1842 H 0.40118 0.96959 0.74764 0.0
H1843 H 0.39162 0.96357 0.78219 0.0
C1844 C 0.36207 0.94888 0.68585 0.0
C1845 C 0.3546 0.93176 0.69974 0.0
C1846 C 0.36874 0.96537 0.70101 0.0
C1847 C 0.36807 0.96501 0.73028 0.0
C1848 C 0.35983 0.94791 0.7441 0.0
H1849 H 0.41286 0.05001 0.85907 0.0
H1850 H 0.39504 0.02084 0.83366 0.0
C1851 C 0.35324 0.93148 0.72904 0.0
C1852 C 0.37649 0.98249 0.74652 0.0
H1853 H 0.41026 0.00749 0.7943 0.0
C1854 C 0.36938 0.99451 0.74355 0.0
C1855 C 0.39145 0.98726 0.76497 0.0
C1856 C 0.40024 0.97533 0.76808 0.0
C1857 C 0.37669 0.01107 0.75888 0.0
C1858 C 0.39165 0.01581 0.77733 0.0
C1859 C 0.39869 0.00375 0.78033 0.0
C1860 C 0.40083 0.03358 0.79283 0.0
C1861 C 0.36818 0.02321 0.75551 0.0
C1862 C 0.4099 0.05042 0.77832 0.0
C1863 C 0.42011 0.06709 0.79273 0.0
C1864 C 0.42155 0.06729 0.82202 0.0
C1865 C 0.41202 0.05041 0.83656 0.0
C1866 C 0.40185 0.03371 0.82207 0.0
H1867 H 0.35392 0.01536 0.74695 0.0
H1868 H 0.36774 0.02947 0.77574 0.0
H1869 H 0.3767 0.0346 0.74078 0.0
H1870 H 0.40961 0.05063 0.75575 0.0
H1871 H 0.42722 0.07978 0.78078 0.0
H1872 H 0.05219 0.41715 0.65731 0.0
H1873 H 0.0239 0.40073 0.68536 0.0
H1874 H 0.05592 0.42288 0.76046 0.0
H1875 H 0.08403 0.43951 0.73286 0.0
H1876 H 0.01373 0.37445 0.7275 0.0
H1877 H 0.01703 0.4382 0.7685 0.0
H1878 H 0.03111 0.43854 0.73969 0.0
H1879 H 0.03769 0.4372 0.77498 0.0
C1880 C 0.05321 0.41851 0.67979 0.0
C1881 C 0.07041 0.42986 0.69273 0.0
C1882 C 0.03703 0.40911 0.6958 0.0
C1883 C 0.03773 0.41089 0.72499 0.0
C1884 C 0.05494 0.42168 0.73795 0.0
H1885 H 0.95547 0.36906 0.85853 0.0
H1886 H 0.98433 0.38177 0.83168 0.0
C1887 C 0.07105 0.43114 0.72205 0.0
C1888 C 0.02055 0.40156 0.74203 0.0
H1889 H 0.99496 0.40985 0.78948 0.0
C1890 C 0.00958 0.38219 0.74096 0.0
C1891 C 0.01513 0.41167 0.75962 0.0
C1892 C 0.02574 0.43256 0.76063 0.0
C1893 C 0.99351 0.37265 0.75733 0.0
C1894 C 0.9882 0.38276 0.77503 0.0
C1895 C 0.99917 0.40211 0.77612 0.0
C1896 C 0.9708 0.37369 0.7915 0.0
C1897 C 0.98246 0.3518 0.75587 0.0
C1898 C 0.95366 0.36489 0.77783 0.0
C1899 C 0.9372 0.35772 0.79303 0.0
C1900 C 0.9375 0.35917 0.82233 0.0
C1901 C 0.95471 0.36759 0.83605 0.0
C1902 C 0.97121 0.37491 0.82074 0.0
H1903 H 0.99072 0.34591 0.74702 0.0
H1904 H 0.97741 0.34573 0.77686 0.0
H1905 H 0.97024 0.34758 0.74225 0.0
H1906 H 0.953 0.36406 0.75527 0.0
H1907 H 0.92424 0.35133 0.78169 0.0
H1908 H 0.63449 0.5872 0.85845 0.0
H1909 H 0.62148 0.60305 0.83157 0.0
H1910 H 0.64441 0.59465 0.7561 0.0
H1911 H 0.6572 0.57868 0.78251 0.0
H1912 H 0.63701 0.63406 0.79476 0.0
H1913 H 0.58876 0.56897 0.73963 0.0
H1914 H 0.60143 0.56933 0.77035 0.0
H1915 H 0.61266 0.57528 0.73688 0.0
C1916 C 0.637 0.58897 0.8362 0.0
C1917 C 0.64669 0.58143 0.82262 0.0
C1918 C 0.62951 0.59799 0.82086 0.0
C1919 C 0.63161 0.59962 0.79175 0.0
C1920 C 0.64223 0.59313 0.77844 0.0
H1921 H 0.58668 0.6372 0.65932 0.0
H1922 H 0.60457 0.62675 0.68662 0.0
C1923 C 0.6496 0.58406 0.79365 0.0
C1924 C 0.62209 0.60737 0.77503 0.0
H1925 H 0.58994 0.59638 0.72353 0.0
C1926 C 0.62668 0.62583 0.77925 0.0
C1927 C 0.60859 0.59658 0.7548 0.0
C1928 C 0.60241 0.57639 0.75026 0.0
C1929 C 0.61836 0.6339 0.7634 0.0
C1930 C 0.60492 0.62311 0.74312 0.0
C1931 C 0.60035 0.60466 0.73893 0.0
C1932 C 0.5949 0.63043 0.72667 0.0
C1933 C 0.62423 0.65397 0.76817 0.0
C1934 C 0.58344 0.63584 0.74012 0.0
C1935 C 0.57317 0.64176 0.72463 0.0
C1936 C 0.57406 0.64233 0.69527 0.0
C1937 C 0.58568 0.637 0.68185 0.0
C1938 C 0.59591 0.63101 0.69742 0.0
H1939 H 0.6379 0.66152 0.77872 0.0
H1940 H 0.62499 0.66104 0.74818 0.0
H1941 H 0.61389 0.65482 0.7817 0.0
H1942 H 0.58214 0.63514 0.76262 0.0
H1943 H 0.56439 0.64573 0.73577 0.0
H1944 H 0.25906 0.04987 0.99631 0.0
H1945 H 0.26248 0.08025 1.0067 0.0
H1946 H 0.20362 0.0572 0.99541 0.0
H1947 H 0.20081 0.02777 0.98182 0.0
H1948 H 0.21839 0.08732 0.97308 0.0
H1949 H 0.25413 0.10038 0.07464 0.0
H1950 H 0.26851 0.10015 0.04703 0.0
H1951 H 0.24721 0.07944 0.05535 0.0
C1952 C 0.24691 0.0514 0.99628 0.0
C1953 C 0.22947 0.03626 0.9898 0.0
C1954 C 0.2488 0.0687 1.00256 0.0
C1955 C 0.23321 0.07104 1.003 0.0
C1956 C 0.2159 0.05589 0.99572 0.0
H1957 H 0.2226 0.16231 0.07238 0.0
H1958 H 0.22487 0.13416 0.06635 0.0
C1959 C 0.21418 0.0389 0.98849 0.0
C1960 C 0.23477 0.08936 0.00913 0.0
H1961 H 0.25218 0.12581 0.05483 0.0
C1962 C 0.22564 0.09554 0.99119 0.0
C1963 C 0.24429 0.10038 0.03267 0.0
C1964 C 0.25393 0.09465 0.05364 0.0
C1965 C 0.22544 0.11199 0.99623 0.0
C1966 C 0.23542 0.12322 0.01919 0.0
C1967 C 0.24464 0.11724 0.03714 0.0
C1968 C 0.23633 0.1412 0.02465 0.0
C1969 C 0.21409 0.11686 0.97719 0.0
C1970 C 0.2428 0.15484 1.00383 0.0
C1971 C 0.2412 0.17059 1.00706 0.0
C1972 C 0.23364 0.17333 0.03153 0.0
C1973 C 0.22853 0.16048 0.05338 0.0
C1974 C 0.22978 0.14443 0.04989 0.0
H1975 H 0.20302 0.10442 0.96649 0.0
H1976 H 0.20754 0.12359 0.98888 0.0
H1977 H 0.2232 0.12659 0.96087 0.0
H1978 H 0.24845 0.15296 0.98457 0.0
H1979 H 0.24543 0.18044 0.99005 0.0
H1980 H 0.95702 0.21245 1.00642 0.0
H1981 H 0.92647 0.18876 0.02372 0.0
H1982 H 0.94048 0.14645 1.0067 0.0
H1983 H 0.97072 0.17001 0.989 0.0
H1984 H 0.89971 0.15945 0.99279 0.0
H1985 H 0.91835 0.13244 0.08518 0.0
H1986 H 0.93328 0.15508 0.0706 0.0
H1987 H 0.93208 0.13482 0.05493 0.0
C1988 C 0.95364 0.19811 1.00694 0.0
C1989 C 0.96643 0.19307 0.99735 0.0
C1990 C 0.93623 0.18461 0.0168 0.0
C1991 C 0.9313 0.16585 0.0171 0.0
C1992 C 0.94413 0.16087 0.00752 0.0
H1993 H 0.83589 0.06504 0.98964 0.0
H1994 H 0.86173 0.09641 0.98911 0.0
C1995 C 0.96146 0.17433 0.99753 0.0
C1996 C 0.91224 0.15122 0.02484 0.0
H1997 H 0.88887 0.11237 0.06482 0.0
C1998 C 0.89728 0.14936 0.00891 0.0
C1999 C 0.90887 0.13826 0.04627 0.0
C2000 C 0.92398 0.14029 0.06547 0.0
C2001 C 0.87938 0.13412 0.0125 0.0
C2002 C 0.87647 0.12024 0.03217 0.0
C2003 C 0.8911 0.12287 0.04951 0.0
C2004 C 0.85929 0.10189 0.03254 0.0
C2005 C 0.86388 0.1328 0.99467 0.0
C2006 C 0.84939 0.09424 0.05738 0.0
C2007 C 0.83451 0.07597 0.05791 0.0
C2008 C 0.8295 0.06501 0.03366 0.0
C2009 C 0.8393 0.07294 0.00881 0.0
C2010 C 0.85402 0.09107 0.00831 0.0
H2011 H 0.8663 0.14679 0.9892 0.0
H2012 H 0.86328 0.1256 0.9749 0.0
H2013 H 0.85029 0.12497 1.00535 0.0
H2014 H 0.8534 0.10228 0.07645 0.0
H2015 H 0.8273 0.0703 0.07738 0.0
H2016 H 0.82542 0.79547 0.9685 0.0
H2017 H 0.85109 0.79087 0.982 0.0
H2018 H 0.81234 0.73472 1.00643 0.0
H2019 H 0.78643 0.73943 0.99293 0.0
H2020 H 0.84096 0.75526 0.04653 0.0
H2021 H 0.86979 0.76014 0.94111 0.0
H2022 H 0.86586 0.77902 0.94831 0.0
H2023 H 0.84653 0.75576 0.94682 0.0
C2024 C 0.8224 0.78216 0.97679 0.0
C2025 C 0.80405 0.76794 0.98039 0.0
C2026 C 0.83705 0.77948 0.98423 0.0
C2027 C 0.83363 0.76241 0.99501 0.0
C2028 C 0.81526 0.74799 0.99811 0.0
H2029 H 0.92581 0.74642 0.0529 0.0
H2030 H 0.89367 0.73959 0.04654 0.0
C2031 C 0.80053 0.75065 0.9904 0.0
C2032 C 0.84947 0.76014 1.00357 0.0
H2033 H 0.89074 0.76656 0.97949 0.0
C2034 C 0.85175 0.75749 0.03191 0.0
C2035 C 0.86335 0.76262 0.98431 0.0
C2036 C 0.86119 0.76435 0.9534 0.0
C2037 C 0.86827 0.75886 0.04181 0.0
C2038 C 0.88262 0.76259 0.02273 0.0
C2039 C 0.87978 0.76392 0.99416 0.0
C2040 C 0.9014 0.76705 0.03176 0.0
C2041 C 0.87074 0.75742 0.07267 0.0
C2042 C 0.91625 0.78483 0.02641 0.0
C2043 C 0.9344 0.78867 0.02984 0.0
C2044 C 0.93814 0.77484 0.03888 0.0
C2045 C 0.92329 0.75738 0.04628 0.0
C2046 C 0.90496 0.75346 0.04255 0.0
H2047 H 0.859 0.75643 0.08501 0.0
H2048 H 0.87186 0.74493 0.07687 0.0
H2049 H 0.88376 0.76965 0.07991 0.0
H2050 H 0.9138 0.79552 0.01817 0.0
H2051 H 0.94555 0.80223 0.02396 0.0
H2052 H 0.14991 0.19943 0.49761 0.0
H2053 H 0.1244 0.2053 0.50474 0.0
H2054 H 0.15622 0.25902 0.46642 0.0
H2055 H 0.18188 0.25301 0.45859 0.0
H2056 H 0.1274 0.23342 0.53801 0.0
H2057 H 0.10517 0.23957 0.43104 0.0
H2058 H 0.11955 0.22947 0.4376 0.0
H2059 H 0.12936 0.25415 0.43869 0.0
C2060 C 0.15138 0.21236 0.49013 0.0
C2061 C 0.16794 0.22579 0.47759 0.0
C2062 C 0.13678 0.21571 0.49431 0.0
C2063 C 0.13838 0.2326 0.4862 0.0
C2064 C 0.15457 0.24578 0.47251 0.0
H2065 H 0.05142 0.26169 0.51995 0.0
H2066 H 0.08196 0.26564 0.50783 0.0
C2067 C 0.16921 0.24233 0.46803 0.0
C2068 C 0.12357 0.23664 0.49434 0.0
H2069 H 0.08949 0.24379 0.46868 0.0
C2070 C 0.11916 0.23575 0.5228 0.0
C2071 C 0.113 0.23999 0.47458 0.0
C2072 C 0.11685 0.24074 0.44373 0.0
C2073 C 0.10399 0.23726 0.5319 0.0
C2074 C 0.09283 0.23961 0.51204 0.0
C2075 C 0.09791 0.24171 0.48378 0.0
C2076 C 0.07482 0.23784 0.51993 0.0
C2077 C 0.09984 0.23598 0.56271 0.0
C2078 C 0.06078 0.22096 0.53064 0.0
C2079 C 0.04349 0.2187 0.53727 0.0
C2080 C 0.0398 0.23317 0.53296 0.0
C2081 C 0.05395 0.25028 0.52305 0.0
C2082 C 0.07131 0.25251 0.51612 0.0
H2083 H 0.11242 0.23995 0.57539 0.0
H2084 H 0.09409 0.24498 0.56858 0.0
H2085 H 0.08945 0.22147 0.56801 0.0
H2086 H 0.06309 0.20938 0.53341 0.0
H2087 H 0.03288 0.20551 0.54546 0.0
H2088 H 0.749 0.78986 0.50764 0.0
H2089 H 0.74313 0.81428 0.49061 0.0
H2090 H 0.80004 0.85516 0.50695 0.0
H2091 H 0.80576 0.83089 0.52438 0.0
H2092 H 0.747 0.84408 0.52173 0.0
H2093 H 0.79232 0.86983 0.42872 0.0
H2094 H 0.78405 0.8471 0.44335 0.0
H2095 H 0.80344 0.86708 0.45896 0.0
C2096 C 0.76029 0.80405 0.50705 0.0
C2097 C 0.778 0.80845 0.51636 0.0
C2098 C 0.75694 0.81796 0.49733 0.0
C2099 C 0.77123 0.83653 0.49689 0.0
C2100 C 0.78893 0.8409 0.50623 0.0
H2101 H 0.78003 0.93907 0.52311 0.0
H2102 H 0.77486 0.90782 0.52364 0.0
C2103 C 0.79223 0.82702 0.51608 0.0
C2104 C 0.7674 0.8516 0.48928 0.0
H2105 H 0.78337 0.89033 0.44876 0.0
C2106 C 0.75469 0.85399 0.50542 0.0
C2107 C 0.7771 0.8644 0.46768 0.0
C2108 C 0.7899 0.86194 0.44844 0.0
C2109 C 0.75248 0.8695 0.50178 0.0
C2110 C 0.76342 0.88307 0.48173 0.0
C2111 C 0.77509 0.88001 0.46428 0.0
C2112 C 0.76495 0.90157 0.48116 0.0
C2113 C 0.73885 0.87149 0.52001 0.0
C2114 C 0.76151 0.90873 0.45675 0.0
C2115 C 0.76459 0.9269 0.45622 0.0
C2116 C 0.77147 0.93825 0.47998 0.0
C2117 C 0.77481 0.93087 0.50429 0.0
C2118 C 0.77163 0.91283 0.50483 0.0
H2119 H 0.72738 0.85775 0.52669 0.0
H2120 H 0.74603 0.87936 0.53906 0.0
H2121 H 0.73289 0.87905 0.50905 0.0
H2122 H 0.7566 0.90031 0.43809 0.0
H2123 H 0.7619 0.93213 0.43718 0.0
H2124 H 0.07443 0.82193 0.46158 0.0
H2125 H 0.10515 0.84892 0.47062 0.0
H2126 H 0.07947 0.88083 0.49379 0.0
H2127 H 0.04899 0.85387 0.48604 0.0
H2128 H 0.12545 0.88415 0.45278 0.0
H2129 H 0.10778 0.88475 0.56347 0.0
H2130 H 0.0933 0.86598 0.54033 0.0
H2131 H 0.09148 0.88662 0.54138 0.0
C2132 C 0.07544 0.83484 0.4681 0.0
C2133 C 0.05936 0.8358 0.47337 0.0
C2134 C 0.09296 0.8502 0.47342 0.0
C2135 C 0.09458 0.86672 0.48383 0.0
C2136 C 0.07856 0.86805 0.4868 0.0
H2137 H 0.17213 0.97469 0.54121 0.0
H2138 H 0.14603 0.94535 0.52554 0.0
C2139 C 0.06114 0.85269 0.48205 0.0
C2140 C 0.1128 0.88244 0.4926 0.0
H2141 H 0.13394 0.91253 0.54643 0.0
C2142 C 0.12739 0.89032 0.47331 0.0
C2143 C 0.11557 0.89012 0.51971 0.0
C2144 C 0.10126 0.88128 0.54248 0.0
C2145 C 0.1442 0.90643 0.47971 0.0
C2146 C 0.14639 0.91498 0.50613 0.0
C2147 C 0.13214 0.9064 0.52589 0.0
C2148 C 0.16272 0.93321 0.51364 0.0
C2149 C 0.15912 0.91408 0.45775 0.0
C2150 C 0.1809 0.9363 0.51236 0.0
C2151 C 0.19591 0.95342 0.52041 0.0
C2152 C 0.19297 0.96765 0.53003 0.0
C2153 C 0.17481 0.96429 0.53244 0.0
C2154 C 0.15988 0.94739 0.52389 0.0
H2155 H 0.15312 0.91087 0.43642 0.0
H2156 H 0.16819 0.9292 0.45963 0.0
H2157 H 0.1678 0.90754 0.46021 0.0
H2158 H 0.18348 0.92543 0.50548 0.0
H2159 H 0.2098 0.95551 0.51929 0.0
H2160 H 0.80075 0.9742 0.03479 0.0
H2161 H 0.79743 0.94479 0.01991 0.0
H2162 H 0.73823 0.92171 0.01397 0.0
H2163 H 0.74207 0.95212 0.02551 0.0
H2164 H 0.78361 0.91471 0.0418 0.0
H2165 H 0.74384 0.90168 0.94405 0.0
H2166 H 0.75085 0.92234 0.96412 0.0
H2167 H 0.73032 0.90117 0.97343 0.0
C2168 C 0.78715 0.96306 0.02904 0.0
C2169 C 0.77186 0.96572 0.02945 0.0
C2170 C 0.78515 0.94607 0.02107 0.0
C2171 C 0.76759 0.93094 0.01481 0.0
C2172 C 0.75205 0.93326 0.01722 0.0
H2173 H 0.75579 0.82174 0.02233 0.0
H2174 H 0.75269 0.84906 0.02924 0.0
C2175 C 0.75419 0.95057 0.02417 0.0
C2176 C 0.76583 0.91266 0.00766 0.0
H2177 H 0.7469 0.87634 0.96172 0.0
C2178 C 0.77572 0.90654 0.02403 0.0
C2179 C 0.75542 0.90165 0.98462 0.0
C2180 C 0.74467 0.90716 0.96545 0.0
C2181 C 0.77585 0.89019 0.01786 0.0
C2182 C 0.7651 0.87901 0.99536 0.0
C2183 C 0.75509 0.88491 0.979 0.0
C2184 C 0.76408 0.8611 0.98898 0.0
C2185 C 0.78791 0.8853 0.03524 0.0
C2186 C 0.77029 0.85814 0.96323 0.0
C2187 C 0.77166 0.84221 0.95897 0.0
C2188 C 0.767 0.82923 0.98054 0.0
C2189 C 0.7597 0.8317 1.00552 0.0
C2190 C 0.75802 0.84734 0.00955 0.0
H2191 H 0.79922 0.89769 0.0457 0.0
H2192 H 0.77936 0.87534 0.05172 0.0
H2193 H 0.79418 0.87882 0.02232 0.0
H2194 H 0.77489 0.86854 0.94699 0.0
H2195 H 0.77735 0.84058 0.93957 0.0
H2196 H 0.16264 0.93751 0.0265 0.0
H2197 H 0.13724 0.9059 0.02611 0.0
H2198 H 0.14984 0.89962 0.94097 0.0
H2199 H 0.17563 0.93182 0.941 0.0
H2200 H 0.11319 0.88882 0.94931 0.0
H2201 H 0.13487 0.85618 0.02952 0.0
H2202 H 0.13709 0.87744 0.04212 0.0
H2203 H 0.15095 0.87784 0.01301 0.0
C2204 C 0.16023 0.9295 0.00762 0.0
C2205 C 0.17119 0.93734 0.98366 0.0
C2206 C 0.14578 0.91124 0.00762 0.0
C2207 C 0.14188 0.90023 0.98377 0.0
C2208 C 0.15281 0.90783 0.95977 0.0
H2209 H 0.04475 0.78868 1.0071 0.0
H2210 H 0.07564 0.81261 0.9912 0.0
C2211 C 0.16749 0.92623 0.95978 0.0
C2212 C 0.12507 0.8816 0.9835 0.0
H2213 H 0.10155 0.84256 0.02316 0.0
C2214 C 0.1108 0.87848 0.96501 0.0
C2215 C 0.12197 0.86798 1.00376 0.0
C2216 C 0.13714 0.86995 0.02302 0.0
C2217 C 0.09313 0.86286 0.96765 0.0
C2218 C 0.0895 0.85011 0.98954 0.0
C2219 C 0.10418 0.85246 1.00664 0.0
C2220 C 0.07037 0.83532 0.99661 0.0
C2221 C 0.07835 0.86044 0.94746 0.0
C2222 C 0.0572 0.84013 1.00513 0.0
C2223 C 0.03972 0.82655 0.01439 0.0
C2224 C 0.03489 0.80784 0.01482 0.0
C2225 C 0.04803 0.80299 1.00635 0.0
C2226 C 0.06563 0.81662 0.99728 0.0
H2227 H 0.0843 0.86805 0.92767 0.0
H2228 H 0.06919 0.84558 0.94266 0.0
H2229 H 0.07003 0.866 0.95704 0.0
H2230 H 0.06069 0.8545 1.00564 0.0
H2231 H 0.03019 0.83076 0.02211 0.0
H2232 H 0.21469 0.2633 0.01528 0.0
H2233 H 0.1888 0.26799 1.00163 0.0
H2234 H 0.15002 0.21225 0.02784 0.0
H2235 H 0.17567 0.20772 0.04164 0.0
H2236 H 0.16056 0.24795 0.96234 0.0
H2237 H 0.13095 0.24271 0.06715 0.0
H2238 H 0.15411 0.24671 0.06192 0.0
H2239 H 0.13452 0.22359 0.06025 0.0
C2240 C 0.20059 0.25217 0.01819 0.0
C2241 C 0.19705 0.23501 0.02879 0.0
C2242 C 0.18587 0.25482 0.0104 0.0
C2243 C 0.16748 0.24052 0.01396 0.0
C2244 C 0.16406 0.22358 0.02531 0.0
H2245 H 0.056 0.19951 0.98088 0.0
H2246 H 0.08794 0.20669 0.98643 0.0
C2247 C 0.1787 0.22092 0.03289 0.0
C2248 C 0.15165 0.24273 1.00514 0.0
H2249 H 0.11005 0.23589 0.02839 0.0
C2250 C 0.14961 0.24556 0.97677 0.0
C2251 C 0.13757 0.24009 0.02413 0.0
C2252 C 0.13948 0.23831 0.0551 0.0
C2253 C 0.13315 0.24417 0.96657 0.0
C2254 C 0.1186 0.2402 0.98536 0.0
C2255 C 0.12118 0.23871 0.01396 0.0
C2256 C 0.09989 0.23565 0.97593 0.0
C2257 C 0.13092 0.24586 0.93571 0.0
C2258 C 0.09607 0.24943 0.96691 0.0
C2259 C 0.07767 0.24527 0.96337 0.0
C2260 C 0.063 0.22737 0.96918 0.0
C2261 C 0.06702 0.21341 0.97624 0.0
C2262 C 0.08527 0.2175 0.97952 0.0
H2263 H 0.14319 0.24792 0.92365 0.0
H2264 H 0.11849 0.2332 0.92797 0.0
H2265 H 0.12877 0.25776 0.93176 0.0
H2266 H 0.1072 0.26356 0.96428 0.0
H2267 H 0.07491 0.25633 0.95831 0.0
H2268 H 0.956 0.73846 0.49564 0.0
H2269 H 0.92471 0.73131 0.5102 0.0
H2270 H 0.93592 0.78455 0.47942 0.0
H2271 H 0.9668 0.79153 0.46486 0.0
H2272 H 0.91518 0.75113 0.54821 0.0
H2273 H 0.88595 0.74916 0.44431 0.0
H2274 H 0.90639 0.7472 0.4491 0.0
H2275 H 0.90812 0.76962 0.44836 0.0
C2276 C 0.95159 0.74848 0.49189 0.0
C2277 C 0.9638 0.76569 0.47979 0.0
C2278 C 0.93381 0.74443 0.50018 0.0
C2279 C 0.92791 0.75732 0.4956 0.0
C2280 C 0.94002 0.77426 0.48272 0.0
H2281 H 0.85918 0.79827 0.53004 0.0
H2282 H 0.88305 0.78987 0.52412 0.0
C2283 C 0.95772 0.77833 0.47469 0.0
C2284 C 0.90953 0.75384 0.50522 0.0
H2285 H 0.87272 0.75756 0.48286 0.0
C2286 C 0.90571 0.7522 0.53395 0.0
C2287 C 0.89688 0.7547 0.48651 0.0
C2288 C 0.89944 0.75506 0.45533 0.0
C2289 C 0.89063 0.75341 0.54461 0.0
C2290 C 0.87898 0.75592 0.52597 0.0
C2291 C 0.88185 0.75586 0.49715 0.0
C2292 C 0.86538 0.76118 0.53555 0.0
C2293 C 0.88797 0.75337 0.57569 0.0
C2294 C 0.84771 0.74795 0.54515 0.0
C2295 C 0.83398 0.75282 0.54893 0.0
C2296 C 0.8378 0.77088 0.54275 0.0
C2297 C 0.85586 0.78427 0.535 0.0
C2298 C 0.8695 0.77948 0.53152 0.0
H2299 H 0.89804 0.75094 0.58745 0.0
H2300 H 0.88959 0.76687 0.58224 0.0
H2301 H 0.87372 0.74245 0.58131 0.0
H2302 H 0.84427 0.73371 0.54816 0.0
H2303 H 0.82009 0.74219 0.55454 0.0
H2304 H 0.26214 0.21438 0.49912 0.0
H2305 H 0.2683 0.18954 0.51334 0.0
H2306 H 0.21449 0.14872 0.48275 0.0
H2307 H 0.20845 0.17339 0.46857 0.0
H2308 H 0.24739 0.16024 0.5514 0.0
H2309 H 0.24939 0.13325 0.44687 0.0
H2310 H 0.2518 0.1558 0.45205 0.0
H2311 H 0.22923 0.13539 0.45201 0.0
C2312 C 0.25175 0.20007 0.49538 0.0
C2313 C 0.23466 0.19565 0.48346 0.0
C2314 C 0.25524 0.18594 0.50347 0.0
C2315 C 0.24191 0.16729 0.49888 0.0
C2316 C 0.22509 0.16299 0.48613 0.0
H2317 H 0.20992 0.06138 0.56415 0.0
H2318 H 0.21634 0.09315 0.55647 0.0
C2319 C 0.22156 0.17706 0.47832 0.0
C2320 C 0.24501 0.15211 0.50834 0.0
H2321 H 0.24405 0.11286 0.48554 0.0
C2322 C 0.24679 0.14996 0.53702 0.0
C2323 C 0.24472 0.13893 0.48949 0.0
C2324 C 0.24387 0.14102 0.45836 0.0
C2325 C 0.24694 0.1343 0.54748 0.0
C2326 C 0.24556 0.12061 0.52872 0.0
C2327 C 0.24496 0.12333 0.49993 0.0
C2328 C 0.2434 0.10275 0.53836 0.0
C2329 C 0.24817 0.13228 0.57853 0.0
C2330 C 0.25667 0.09777 0.53134 0.0
C2331 C 0.25311 0.07972 0.53611 0.0
C2332 C 0.23618 0.06641 0.54772 0.0
C2333 C 0.22325 0.07159 0.55584 0.0
C2334 C 0.2269 0.08969 0.55138 0.0
H2335 H 0.25343 0.14571 0.58953 0.0
H2336 H 0.23417 0.12251 0.58675 0.0
H2337 H 0.25733 0.12653 0.58336 0.0
H2338 H 0.26938 0.10759 0.52098 0.0
H2339 H 0.26303 0.07584 0.529 0.0
H2340 H 0.94054 0.16047 0.57127 0.0
H2341 H 0.90995 0.13286 0.56366 0.0
H2342 H 0.90708 0.15355 0.48243 0.0
H2343 H 0.93777 0.18048 0.48945 0.0
H2344 H 0.87483 0.12559 0.5513 0.0
H2345 H 0.90294 0.10487 0.46251 0.0
H2346 H 0.91757 0.1235 0.48571 0.0
H2347 H 0.90543 0.12732 0.45776 0.0
C2348 C 0.93318 0.15916 0.55202 0.0
C2349 C 0.94151 0.17237 0.53077 0.0
C2350 C 0.91577 0.14342 0.54764 0.0
C2351 C 0.90647 0.14089 0.52211 0.0
C2352 C 0.91423 0.15489 0.50189 0.0
H2353 H 0.79222 0.04982 0.49116 0.0
H2354 H 0.81899 0.08038 0.50159 0.0
C2355 C 0.9317 0.17032 0.50599 0.0
C2356 C 0.88925 0.12324 0.51577 0.0
H2357 H 0.87047 0.088 0.46852 0.0
C2358 C 0.87386 0.11722 0.53336 0.0
C2359 C 0.88806 0.1123 0.49245 0.0
C2360 C 0.90444 0.11721 0.47369 0.0
C2361 C 0.85729 0.10055 0.5283 0.0
C2362 C 0.85592 0.08976 0.50454 0.0
C2363 C 0.87135 0.09604 0.48683 0.0
C2364 C 0.83926 0.07142 0.49816 0.0
C2365 C 0.84173 0.0947 0.54895 0.0
C2366 C 0.84163 0.05637 0.49105 0.0
C2367 C 0.8265 0.0393 0.48386 0.0
C2368 C 0.80849 0.03647 0.48499 0.0
C2369 C 0.80597 0.05151 0.49124 0.0
C2370 C 0.82126 0.0689 0.49753 0.0
H2371 H 0.84703 0.1004 0.57005 0.0
H2372 H 0.83262 0.1001 0.54206 0.0
H2373 H 0.83335 0.07949 0.55054 0.0
H2374 H 0.85527 0.0578 0.49092 0.0
H2375 H 0.8289 0.02823 0.47745 0.0
H2376 H 0.92285 0.51876 0.38497 0.0
H2377 H 0.92863 0.4929 0.37704 0.0
H2378 H 0.87146 0.4579 0.35366 0.0
H2379 H 0.86583 0.48362 0.36063 0.0
H2380 H 0.91432 0.45707 0.39612 0.0
H2381 H 0.89847 0.45643 0.28431 0.0
H2382 H 0.90183 0.47499 0.30731 0.0
H2383 H 0.87968 0.45404 0.30546 0.0
C2384 C 0.91147 0.5054 0.37875 0.0
C2385 C 0.89394 0.5032 0.37317 0.0
C2386 C 0.91481 0.4907 0.37403 0.0
C2387 C 0.90061 0.47367 0.36385 0.0
C2388 C 0.88277 0.4711 0.36059 0.0
H2389 H 0.87069 0.36621 0.31084 0.0
H2390 H 0.87507 0.39638 0.32406 0.0
C2391 C 0.87952 0.48575 0.36487 0.0
C2392 C 0.90427 0.45863 0.35551 0.0
H2393 H 0.89703 0.42877 0.30203 0.0
C2394 C 0.91076 0.45096 0.37547 0.0
C2395 C 0.90018 0.45106 0.32829 0.0
C2396 C 0.89487 0.45971 0.30504 0.0
C2397 C 0.91178 0.43495 0.36964 0.0
C2398 C 0.90607 0.42638 0.34312 0.0
C2399 C 0.9009 0.43495 0.32261 0.0
C2400 C 0.9037 0.40782 0.33661 0.0
C2401 C 0.91835 0.42716 0.39232 0.0
C2402 C 0.91829 0.40402 0.33914 0.0
C2403 C 0.91554 0.38644 0.33232 0.0
C2404 C 0.89819 0.37245 0.32286 0.0
C2405 C 0.88392 0.37649 0.31933 0.0
C2406 C 0.88653 0.39384 0.32652 0.0
H2407 H 0.93328 0.43209 0.38917 0.0
H2408 H 0.91661 0.43166 0.41337 0.0
H2409 H 0.91082 0.41192 0.39164 0.0
H2410 H 0.93183 0.41467 0.34604 0.0
H2411 H 0.92692 0.38377 0.3344 0.0
H2412 H 0.63502 0.50459 0.30839 0.0
H2413 H 0.60494 0.47864 0.32201 0.0
H2414 H 0.58808 0.51698 0.35102 0.0
H2415 H 0.6182 0.54306 0.33656 0.0
H2416 H 0.58886 0.46839 0.37139 0.0
H2417 H 0.54486 0.48362 0.30217 0.0
H2418 H 0.56971 0.4953 0.29878 0.0
H2419 H 0.55921 0.50206 0.32561 0.0
C2420 C 0.62489 0.50744 0.31779 0.0
C2421 C 0.62895 0.52573 0.32202 0.0
C2422 C 0.60769 0.49263 0.32548 0.0
C2423 C 0.59412 0.49579 0.33733 0.0
C2424 C 0.59815 0.51414 0.34142 0.0
H2425 H 0.49407 0.39805 0.40639 0.0
H2426 H 0.52062 0.42979 0.40384 0.0
C2427 C 0.61536 0.52902 0.33337 0.0
C2428 C 0.57595 0.47972 0.34551 0.0
H2429 H 0.52957 0.45755 0.33148 0.0
C2430 C 0.5759 0.46632 0.3633 0.0
C2431 C 0.55897 0.47668 0.33422 0.0
C2432 C 0.5581 0.49006 0.31394 0.0
C2433 C 0.55955 0.4499 0.36976 0.0
C2434 C 0.54268 0.4467 0.35806 0.0
C2435 C 0.54253 0.46023 0.34078 0.0
C2436 C 0.52575 0.42827 0.35994 0.0
C2437 C 0.56057 0.43558 0.38776 0.0
C2438 C 0.51978 0.41711 0.3361 0.0
C2439 C 0.50487 0.39911 0.33752 0.0
C2440 C 0.49542 0.39181 0.36283 0.0
C2441 C 0.50108 0.40321 0.38663 0.0
C2442 C 0.51621 0.42131 0.38521 0.0
H2443 H 0.57505 0.43952 0.39305 0.0
H2444 H 0.5529 0.43386 0.40748 0.0
H2445 H 0.55394 0.42198 0.37697 0.0
H2446 H 0.52698 0.42219 0.31644 0.0
H2447 H 0.50083 0.39088 0.31863 0.0
H2448 H 0.49348 0.126 0.30322 0.0
H2449 H 0.51908 0.12118 0.31622 0.0
H2450 H 0.48022 0.06662 0.34683 0.0
H2451 H 0.45437 0.07157 0.33383 0.0
H2452 H 0.5102 0.08832 0.38409 0.0
H2453 H 0.5355 0.08784 0.27784 0.0
H2454 H 0.53229 0.10734 0.28324 0.0
H2455 H 0.51262 0.08426 0.28449 0.0
C2456 C 0.49042 0.11299 0.31273 0.0
C2457 C 0.47209 0.09932 0.31821 0.0
C2458 C 0.50502 0.11016 0.31989 0.0
C2459 C 0.50155 0.09348 0.33226 0.0
C2460 C 0.48317 0.07958 0.33725 0.0
H2461 H 0.59483 0.07978 0.39209 0.0
H2462 H 0.56263 0.07263 0.38567 0.0
C2463 C 0.46848 0.08238 0.32983 0.0
C2464 C 0.5174 0.09116 0.34058 0.0
H2465 H 0.55775 0.09606 0.31498 0.0
C2466 C 0.52051 0.08976 0.36903 0.0
C2467 C 0.53062 0.09259 0.32081 0.0
C2468 C 0.52751 0.09289 0.28987 0.0
C2469 C 0.5373 0.0915 0.3784 0.0
C2470 C 0.55103 0.09425 0.35868 0.0
C2471 C 0.54729 0.09421 0.33012 0.0
C2472 C 0.57007 0.09904 0.36684 0.0
C2473 C 0.54071 0.09154 0.40928 0.0
C2474 C 0.58483 0.11636 0.35904 0.0
C2475 C 0.60305 0.12039 0.3625 0.0
C2476 C 0.60696 0.10721 0.37395 0.0
C2477 C 0.59222 0.09026 0.38347 0.0
C2478 C 0.57384 0.08615 0.37976 0.0
H2479 H 0.52958 0.09163 0.4219 0.0
H2480 H 0.54145 0.07901 0.4148 0.0
H2481 H 0.55416 0.10383 0.41496 0.0
H2482 H 0.58223 0.12653 0.34918 0.0
H2483 H 0.61409 0.1336 0.35509 0.0
H2484 H 0.82157 0.54172 0.85228 0.0
H2485 H 0.79616 0.54789 0.85637 0.0
H2486 H 0.81695 0.58485 0.7859 0.0
H2487 H 0.84284 0.57879 0.7815 0.0
H2488 H 0.7999 0.58438 0.86439 0.0
H2489 H 0.76063 0.54736 0.76896 0.0
H2490 H 0.77759 0.54269 0.78452 0.0
H2491 H 0.78498 0.56381 0.76567 0.0
C2492 C 0.82085 0.55114 0.83746 0.0
C2493 C 0.83439 0.55981 0.81656 0.0
C2494 C 0.80627 0.55468 0.83994 0.0
C2495 C 0.80471 0.56685 0.82153 0.0
C2496 C 0.81791 0.57533 0.80026 0.0
H2497 H 0.71643 0.59443 0.85314 0.0
H2498 H 0.74663 0.59851 0.83869 0.0
C2499 C 0.83266 0.57183 0.79776 0.0
C2500 C 0.78916 0.57044 0.82525 0.0
H2501 H 0.74652 0.55848 0.79961 0.0
C2502 C 0.78834 0.57904 0.84998 0.0
C2503 C 0.77409 0.56334 0.80648 0.0
C2504 C 0.77417 0.55369 0.77992 0.0
C2505 C 0.7725 0.58002 0.85696 0.0
C2506 C 0.75716 0.57221 0.83876 0.0
C2507 C 0.7583 0.56439 0.81348 0.0
C2508 C 0.73913 0.57012 0.84712 0.0
C2509 C 0.7718 0.5885 0.88439 0.0
C2510 C 0.72513 0.55291 0.85684 0.0
C2511 C 0.70805 0.55061 0.86509 0.0
C2512 C 0.70456 0.56537 0.86318 0.0
C2513 C 0.71874 0.58277 0.8542 0.0
C2514 C 0.73591 0.58509 0.84597 0.0
H2515 H 0.78479 0.59364 0.89654 0.0
H2516 H 0.76935 0.60023 0.88054 0.0
H2517 H 0.76006 0.5781 0.89711 0.0
H2518 H 0.72745 0.54126 0.85815 0.0
H2519 H 0.69754 0.53726 0.87293 0.0
H2520 H 0.4069 0.12284 0.85755 0.0
H2521 H 0.40165 0.14857 0.84572 0.0
H2522 H 0.45995 0.18711 0.85687 0.0
H2523 H 0.46475 0.16171 0.87083 0.0
H2524 H 0.44075 0.19958 0.88097 0.0
H2525 H 0.39569 0.16359 0.80175 0.0
H2526 H 0.4161 0.16189 0.79769 0.0
H2527 H 0.41204 0.1766 0.77488 0.0
C2528 C 0.41853 0.13685 0.85726 0.0
C2529 C 0.43641 0.14031 0.86373 0.0
C2530 C 0.41556 0.15151 0.85031 0.0
C2531 C 0.43048 0.1698 0.84948 0.0
C2532 C 0.44821 0.17315 0.85688 0.0
H2533 H 0.4696 0.28223 0.81391 0.0
H2534 H 0.46341 0.25079 0.82218 0.0
C2535 C 0.45105 0.15862 0.86443 0.0
C2536 C 0.428 0.18584 0.84242 0.0
H2537 H 0.41612 0.20579 0.78999 0.0
C2538 C 0.43531 0.20084 0.86106 0.0
C2539 C 0.42013 0.18734 0.81697 0.0
C2540 C 0.41067 0.17151 0.79666 0.0
C2541 C 0.43617 0.21758 0.85428 0.0
C2542 C 0.43005 0.21968 0.82774 0.0
C2543 C 0.42136 0.20432 0.80995 0.0
C2544 C 0.43369 0.23807 0.81781 0.0
C2545 C 0.44386 0.23295 0.87563 0.0
C2546 C 0.41918 0.24118 0.81035 0.0
C2547 C 0.42279 0.25922 0.80481 0.0
C2548 C 0.44092 0.27427 0.80688 0.0
C2549 C 0.45549 0.27088 0.81233 0.0
C2550 C 0.45194 0.25294 0.81735 0.0
H2551 H 0.44187 0.22736 0.89718 0.0
H2552 H 0.45897 0.24193 0.87219 0.0
H2553 H 0.43723 0.2416 0.87401 0.0
H2554 H 0.40501 0.22986 0.81028 0.0
H2555 H 0.41132 0.26154 0.80089 0.0
H2556 H 0.72096 0.18907 0.82951 0.0
H2557 H 0.75248 0.21448 0.8353 0.0
H2558 H 0.77342 0.18192 0.79668 0.0
H2559 H 0.7415 0.15621 0.79036 0.0
H2560 H 0.77806 0.2099 0.86815 0.0
H2561 H 0.80451 0.23419 0.7607 0.0
H2562 H 0.78006 0.2208 0.7683 0.0
H2563 H 0.79378 0.20975 0.76764 0.0
C2564 C 0.7322 0.18738 0.82167 0.0
C2565 C 0.72873 0.17058 0.80959 0.0
C2566 C 0.75024 0.20194 0.82505 0.0
C2567 C 0.7653 0.20009 0.81655 0.0
C2568 C 0.76197 0.1837 0.80314 0.0
H2569 H 0.88116 0.28752 0.84943 0.0
H2570 H 0.85468 0.25729 0.83585 0.0
C2571 C 0.74375 0.16905 0.79951 0.0
C2572 C 0.78424 0.21481 0.82431 0.0
H2573 H 0.82435 0.25035 0.79806 0.0
C2574 C 0.78825 0.21865 0.85279 0.0
C2575 C 0.79759 0.22607 0.80429 0.0
C2576 C 0.79386 0.22266 0.77347 0.0
C2577 C 0.80487 0.23392 0.86177 0.0
C2578 C 0.81779 0.2458 0.84175 0.0
C2579 C 0.81433 0.24135 0.81332 0.0
C2580 C 0.83394 0.26379 0.84995 0.0
C2581 C 0.80831 0.23745 0.89265 0.0
C2582 C 0.83101 0.27737 0.86226 0.0
C2583 C 0.84597 0.29451 0.86973 0.0
C2584 C 0.86415 0.29849 0.86468 0.0
C2585 C 0.8672 0.28478 0.85306 0.0
C2586 C 0.85214 0.26761 0.84531 0.0
H2587 H 0.80009 0.22457 0.90494 0.0
H2588 H 0.8232 0.24329 0.89768 0.0
H2589 H 0.80412 0.24758 0.89928 0.0
H2590 H 0.81709 0.2748 0.86579 0.0
H2591 H 0.84334 0.30474 0.8793 0.0
H2592 H 0.41369 0.15086 0.29232 0.0
H2593 H 0.40755 0.17655 0.29894 0.0
H2594 H 0.46 0.20796 0.34093 0.0
H2595 H 0.46597 0.18244 0.33501 0.0
H2596 H 0.43095 0.20509 0.37164 0.0
H2597 H 0.42858 0.22779 0.2633 0.0
H2598 H 0.41363 0.20359 0.27066 0.0
H2599 H 0.43828 0.21324 0.27139 0.0
C2600 C 0.42406 0.16343 0.30239 0.0
C2601 C 0.44026 0.16459 0.31327 0.0
C2602 C 0.42054 0.17809 0.30615 0.0
C2603 C 0.43333 0.19419 0.32045 0.0
C2604 C 0.44989 0.19564 0.33 0.0
H2605 H 0.46075 0.30014 0.37699 0.0
H2606 H 0.4566 0.26973 0.36548 0.0
C2607 C 0.4533 0.18103 0.32654 0.0
C2608 C 0.42922 0.2091 0.32758 0.0
H2609 H 0.42375 0.24376 0.29985 0.0
C2610 C 0.42928 0.21348 0.35589 0.0
C2611 C 0.42676 0.21988 0.30708 0.0
C2612 C 0.42692 0.21605 0.27637 0.0
C2613 C 0.42787 0.22884 0.36419 0.0
C2614 C 0.42643 0.2402 0.34367 0.0
C2615 C 0.42512 0.23516 0.31547 0.0
C2616 C 0.42841 0.25837 0.35097 0.0
C2617 C 0.42836 0.23304 0.39489 0.0
C2618 C 0.41397 0.26213 0.34643 0.0
C2619 C 0.41635 0.27958 0.35306 0.0
C2620 C 0.43339 0.29357 0.36342 0.0
C2621 C 0.44764 0.28965 0.36841 0.0
C2622 C 0.44522 0.27226 0.36209 0.0
H2623 H 0.42398 0.22046 0.40781 0.0
H2624 H 0.44272 0.2434 0.40091 0.0
H2625 H 0.41927 0.23887 0.39972 0.0
H2626 H 0.40091 0.25158 0.33785 0.0
H2627 H 0.40511 0.28229 0.34947 0.0
H2628 H 0.81493 0.28292 0.32629 0.0
H2629 H 0.78969 0.25126 0.33237 0.0
H2630 H 0.82455 0.23049 0.30211 0.0
H2631 H 0.85003 0.2625 0.29537 0.0
H2632 H 0.78732 0.20971 0.28383 0.0
H2633 H 0.79071 0.22033 0.39781 0.0
H2634 H 0.78824 0.23779 0.37972 0.0
H2635 H 0.80875 0.23614 0.37457 0.0
C2636 C 0.81718 0.27164 0.32044 0.0
C2637 C 0.83452 0.27518 0.31058 0.0
C2638 C 0.80277 0.25354 0.32415 0.0
C2639 C 0.80544 0.23854 0.31858 0.0
C2640 C 0.82231 0.24191 0.3069 0.0
H2641 H 0.7151 0.12247 0.34944 0.0
H2642 H 0.74605 0.1479 0.3363 0.0
C2643 C 0.83679 0.26017 0.30287 0.0
C2644 C 0.79065 0.21955 0.32607 0.0
H2645 H 0.76221 0.19515 0.38004 0.0
C2646 C 0.78203 0.20633 0.30497 0.0
C2647 C 0.78398 0.21502 0.35373 0.0
C2648 C 0.79354 0.22801 0.3778 0.0
C2649 C 0.766 0.18923 0.31037 0.0
C2650 C 0.75829 0.18543 0.33761 0.0
C2651 C 0.76779 0.19817 0.35903 0.0
C2652 C 0.7396 0.16961 0.34426 0.0
C2653 C 0.75721 0.17633 0.28604 0.0
C2654 C 0.72601 0.17336 0.35438 0.0
C2655 C 0.70869 0.15899 0.36258 0.0
C2656 C 0.70431 0.1405 0.36 0.0
C2657 C 0.718 0.13664 0.3507 0.0
C2658 C 0.73558 0.15111 0.34302 0.0
H2659 H 0.76787 0.1747 0.27456 0.0
H2660 H 0.74593 0.16246 0.29199 0.0
H2661 H 0.75173 0.18267 0.27129 0.0
H2662 H 0.72888 0.18751 0.35623 0.0
H2663 H 0.69871 0.16236 0.37111 0.0
H2664 H 0.84039 0.54057 0.37304 0.0
H2665 H 0.81493 0.54552 0.36008 0.0
H2666 H 0.85402 0.60224 0.33873 0.0
H2667 H 0.87972 0.59683 0.35031 0.0
H2668 H 0.80546 0.56839 0.3832 0.0
H2669 H 0.82135 0.58718 0.27133 0.0
H2670 H 0.83498 0.58077 0.29269 0.0
H2671 H 0.83795 0.60348 0.29557 0.0
C2672 C 0.84355 0.55393 0.36478 0.0
C2673 C 0.86195 0.56807 0.36148 0.0
C2674 C 0.829 0.55685 0.35773 0.0
C2675 C 0.83248 0.57418 0.34796 0.0
C2676 C 0.85094 0.58861 0.34548 0.0
H2677 H 0.7389 0.5906 0.29918 0.0
H2678 H 0.77101 0.59782 0.30723 0.0
C2679 C 0.86559 0.58556 0.35224 0.0
C2680 C 0.81647 0.57687 0.34175 0.0
H2681 H 0.79348 0.58424 0.28868 0.0
C2682 C 0.80297 0.57201 0.36255 0.0
C2683 C 0.81339 0.58227 0.31515 0.0
C2684 C 0.82762 0.58865 0.29228 0.0
C2685 C 0.78606 0.57113 0.357 0.0
C2686 C 0.78226 0.57469 0.32965 0.0
C2687 C 0.79626 0.58105 0.30943 0.0
C2688 C 0.76334 0.57025 0.32138 0.0
C2689 C 0.77228 0.56603 0.38046 0.0
C2690 C 0.74857 0.55217 0.32518 0.0
C2691 C 0.73042 0.54811 0.32084 0.0
C2692 C 0.72664 0.56192 0.31194 0.0
C2693 C 0.74147 0.57968 0.30589 0.0
C2694 C 0.75976 0.58384 0.31066 0.0
H2695 H 0.77935 0.57019 0.40101 0.0
H2696 H 0.76368 0.57266 0.37783 0.0
H2697 H 0.76301 0.55079 0.38079 0.0
H2698 H 0.75104 0.54132 0.33254 0.0
H2699 H 0.71927 0.53427 0.32544 0.0
H2700 H 0.62261 0.0788 0.83724 0.0
H2701 H 0.59237 0.07362 0.85316 0.0
H2702 H 0.60548 0.12702 0.82024 0.0
H2703 H 0.63592 0.13248 0.80584 0.0
H2704 H 0.59064 0.12311 0.86806 0.0
H2705 H 0.5467 0.05843 0.80946 0.0
H2706 H 0.56223 0.05646 0.8332 0.0
H2707 H 0.57134 0.07212 0.80407 0.0
C2708 C 0.61892 0.08935 0.83351 0.0
C2709 C 0.6316 0.10617 0.82089 0.0
C2710 C 0.6016 0.08634 0.84234 0.0
C2711 C 0.59642 0.09979 0.83755 0.0
C2712 C 0.60907 0.11642 0.8243 0.0
H2713 H 0.49691 0.10036 0.82181 0.0
H2714 H 0.52358 0.09607 0.8193 0.0
C2715 C 0.62646 0.11956 0.81608 0.0
C2716 C 0.57809 0.09697 0.84669 0.0
H2717 H 0.53132 0.06888 0.8393 0.0
C2718 C 0.57774 0.11101 0.86241 0.0
C2719 C 0.56108 0.08143 0.8385 0.0
C2720 C 0.56028 0.06634 0.82015 0.0
C2721 C 0.56109 0.11019 0.8698 0.0
C2722 C 0.54414 0.0948 0.86138 0.0
C2723 C 0.54435 0.08049 0.84621 0.0
C2724 C 0.52647 0.09491 0.86395 0.0
C2725 C 0.56181 0.12636 0.88513 0.0
C2726 C 0.51886 0.09521 0.89 0.0
C2727 C 0.50344 0.09773 0.89158 0.0
C2728 C 0.49558 0.10011 0.8671 0.0
C2729 C 0.50277 0.09888 0.84113 0.0
C2730 C 0.51797 0.09627 0.8396 0.0
H2731 H 0.57614 0.13828 0.88681 0.0
H2732 H 0.5531 0.13107 0.8744 0.0
H2733 H 0.55629 0.12198 0.90653 0.0
H2734 H 0.52512 0.09398 0.90906 0.0
H2735 H 0.49817 0.09854 0.91186 0.0
H2736 H 0.92745 0.5448 0.8289 0.0
H2737 H 0.93263 0.51896 0.84062 0.0
H2738 H 0.87691 0.48006 0.81453 0.0
H2739 H 0.87193 0.50571 0.80246 0.0
H2740 H 0.91401 0.49071 0.87885 0.0
H2741 H 0.90676 0.46163 0.773 0.0
H2742 H 0.90992 0.48439 0.77905 0.0
H2743 H 0.88732 0.46418 0.78226 0.0
C2744 C 0.91644 0.53069 0.82556 0.0
C2745 C 0.89916 0.52711 0.81552 0.0
C2746 C 0.91936 0.51599 0.83227 0.0
C2747 C 0.90521 0.49757 0.82824 0.0
C2748 C 0.88815 0.49412 0.81739 0.0
H2749 H 0.88174 0.39347 0.9004 0.0
H2750 H 0.8861 0.42452 0.89231 0.0
C2751 C 0.88523 0.50875 0.81082 0.0
C2752 C 0.90784 0.48182 0.83612 0.0
H2753 H 0.90341 0.44152 0.81103 0.0
C2754 C 0.91183 0.48002 0.86402 0.0
C2755 C 0.9054 0.46805 0.81663 0.0
C2756 C 0.90231 0.46973 0.78601 0.0
C2757 C 0.91253 0.46437 0.87322 0.0
C2758 C 0.90907 0.45013 0.85401 0.0
C2759 C 0.90588 0.45234 0.82587 0.0
C2760 C 0.90831 0.4326 0.86239 0.0
C2761 C 0.91696 0.46326 0.9034 0.0
C2762 C 0.9194 0.42686 0.84848 0.0
C2763 C 0.9168 0.40917 0.85296 0.0
C2764 C 0.9032 0.39698 0.8716 0.0
C2765 C 0.89262 0.40289 0.88647 0.0
C2766 C 0.89513 0.4206 0.88184 0.0
H2767 H 0.92454 0.47721 0.91311 0.0
H2768 H 0.90385 0.45501 0.9151 0.0
H2769 H 0.92539 0.45642 0.90563 0.0
H2770 H 0.92956 0.43581 0.83328 0.0
H2771 H 0.92486 0.4047 0.84093 0.0
H2772 H 0.60592 0.49516 0.90694 0.0
H2773 H 0.57518 0.4678 0.89931 0.0
H2774 H 0.5694 0.49212 0.8233 0.0
H2775 H 0.60021 0.51897 0.83033 0.0
H2776 H 0.53858 0.46024 0.88938 0.0
H2777 H 0.56839 0.4454 0.79615 0.0
H2778 H 0.58249 0.46284 0.82136 0.0
H2779 H 0.56999 0.46766 0.79523 0.0
C2780 C 0.59781 0.4948 0.88906 0.0
C2781 C 0.60534 0.509 0.86911 0.0
C2782 C 0.58033 0.47919 0.88465 0.0
C2783 C 0.57024 0.47776 0.86036 0.0
C2784 C 0.57714 0.49275 0.8418 0.0
H2785 H 0.45833 0.38362 0.8255 0.0
H2786 H 0.48387 0.41454 0.83763 0.0
C2787 C 0.59465 0.50811 0.84593 0.0
C2788 C 0.55347 0.46004 0.85292 0.0
H2789 H 0.5363 0.4264 0.80309 0.0
C2790 C 0.53804 0.45269 0.87064 0.0
C2791 C 0.55288 0.45024 0.8285 0.0
C2792 C 0.56937 0.45682 0.80934 0.0
C2793 C 0.522 0.43573 0.86468 0.0
C2794 C 0.52129 0.42596 0.83999 0.0
C2795 C 0.53673 0.43362 0.82213 0.0
C2796 C 0.50537 0.40736 0.83265 0.0
C2797 C 0.50627 0.42858 0.88529 0.0
C2798 C 0.50884 0.39325 0.82409 0.0
C2799 C 0.49439 0.376 0.81592 0.0
C2800 C 0.47601 0.37204 0.81752 0.0
C2801 C 0.4724 0.38617 0.82521 0.0
C2802 C 0.48698 0.40376 0.83246 0.0
H2803 H 0.51138 0.43348 0.90676 0.0
H2804 H 0.49689 0.43387 0.87947 0.0
H2805 H 0.49819 0.41331 0.88551 0.0
H2806 H 0.52283 0.39556 0.82355 0.0
H2807 H 0.4976 0.36569 0.80834 0.0
H2808 H 0.59384 0.71441 0.66098 0.0
H2809 H 0.60033 0.74562 0.67399 0.0
H2810 H 0.54301 0.72891 0.65912 0.0
H2811 H 0.5372 0.69867 0.64355 0.0
H2812 H 0.56287 0.7606 0.63856 0.0
H2813 H 0.60664 0.76546 0.71718 0.0
H2814 H 0.58523 0.74422 0.72131 0.0
H2815 H 0.59094 0.7633 0.74444 0.0
C2816 C 0.58269 0.71751 0.6607 0.0
C2817 C 0.56477 0.7039 0.65275 0.0
C2818 C 0.58635 0.73528 0.66836 0.0
C2819 C 0.57204 0.73957 0.66858 0.0
C2820 C 0.5543 0.72602 0.65964 0.0
H2821 H 0.53545 0.81287 0.71343 0.0
H2822 H 0.54183 0.7876 0.70648 0.0
C2823 C 0.55084 0.70857 0.65122 0.0
C2824 C 0.57521 0.75823 0.67672 0.0
H2825 H 0.58805 0.78922 0.73066 0.0
C2826 C 0.56844 0.76679 0.65872 0.0
C2827 C 0.58315 0.7669 0.7026 0.0
C2828 C 0.59178 0.75942 0.72254 0.0
C2829 C 0.56812 0.7828 0.66654 0.0
C2830 C 0.57458 0.79049 0.69324 0.0
C2831 C 0.5827 0.78295 0.71047 0.0
C2832 C 0.57152 0.8054 0.70394 0.0
C2833 C 0.56037 0.7911 0.64639 0.0
C2834 C 0.58622 0.82366 0.70666 0.0
C2835 C 0.58258 0.83818 0.71112 0.0
C2836 C 0.56422 0.83448 0.71276 0.0
C2837 C 0.54971 0.81605 0.71238 0.0
C2838 C 0.55334 0.80163 0.70823 0.0
H2839 H 0.56066 0.78676 0.62458 0.0
H2840 H 0.54576 0.78635 0.65197 0.0
H2841 H 0.56823 0.80646 0.64744 0.0
H2842 H 0.60036 0.82682 0.70341 0.0
H2843 H 0.59396 0.85233 0.71087 0.0
H2844 H 0.14854 0.7378 0.71556 0.0
H2845 H 0.17457 0.76927 0.70734 0.0
H2846 H 0.21002 0.74668 0.6894 0.0
H2847 H 0.18407 0.71545 0.69638 0.0
H2848 H 0.20923 0.79144 0.72738 0.0
H2849 H 0.21376 0.77373 0.61803 0.0
H2850 H 0.19467 0.75875 0.64037 0.0
H2851 H 0.2159 0.75801 0.64113 0.0
C2852 C 0.16201 0.73966 0.71042 0.0
C2853 C 0.1643 0.72424 0.70634 0.0
C2854 C 0.17682 0.7576 0.70556 0.0
C2855 C 0.19407 0.76026 0.69681 0.0
C2856 C 0.19667 0.74492 0.69513 0.0
H2857 H 0.30266 0.83774 0.64831 0.0
H2858 H 0.27239 0.81197 0.66117 0.0
C2859 C 0.18189 0.72709 0.69943 0.0
C2860 C 0.20929 0.77881 0.68829 0.0
H2861 H 0.24074 0.80044 0.63624 0.0
C2862 C 0.21608 0.79351 0.70738 0.0
C2863 C 0.21774 0.78175 0.66176 0.0
C2864 C 0.20998 0.76727 0.63905 0.0
C2865 C 0.23206 0.81057 0.70157 0.0
C2866 C 0.24157 0.81286 0.67601 0.0
C2867 C 0.23388 0.79856 0.65619 0.0
C2868 C 0.26015 0.82906 0.66987 0.0
C2869 C 0.23851 0.82564 0.72323 0.0
C2870 C 0.26349 0.84735 0.67024 0.0
C2871 C 0.28113 0.86219 0.66387 0.0
C2872 C 0.29561 0.85893 0.65684 0.0
C2873 C 0.292 0.84065 0.65514 0.0
C2874 C 0.2746 0.82592 0.66207 0.0
H2875 H 0.23483 0.81976 0.74461 0.0
H2876 H 0.25356 0.83524 0.72232 0.0
H2877 H 0.23149 0.83377 0.71951 0.0
H2878 H 0.25246 0.85013 0.67526 0.0
H2879 H 0.28347 0.87618 0.66438 0.0
H2880 H 0.26277 0.41448 0.72093 0.0
H2881 H 0.23118 0.40868 0.71267 0.0
H2882 H 0.25363 0.46266 0.67499 0.0
H2883 H 0.28489 0.46825 0.68236 0.0
H2884 H 0.21174 0.42566 0.72754 0.0
H2885 H 0.22078 0.42981 0.61337 0.0
H2886 H 0.23702 0.42835 0.6366 0.0
H2887 H 0.23862 0.45035 0.62965 0.0
C2888 C 0.2609 0.42518 0.71127 0.0
C2889 C 0.27628 0.44173 0.702 0.0
C2890 C 0.24288 0.42181 0.70639 0.0
C2891 C 0.24005 0.43498 0.69232 0.0
C2892 C 0.25545 0.452 0.68492 0.0
H2893 H 0.16398 0.4661 0.63959 0.0
H2894 H 0.18922 0.46118 0.65442 0.0
C2895 C 0.27333 0.45526 0.68942 0.0
C2896 C 0.22117 0.43121 0.685 0.0
H2897 H 0.19643 0.43471 0.63102 0.0
C2898 C 0.20821 0.42724 0.70634 0.0
C2899 C 0.21638 0.43289 0.65726 0.0
C2900 C 0.22887 0.43536 0.6329 0.0
C2901 C 0.19118 0.42632 0.70107 0.0
C2902 C 0.18719 0.42982 0.67372 0.0
C2903 C 0.19964 0.43249 0.6521 0.0
C2904 C 0.17138 0.4327 0.66705 0.0
C2905 C 0.17859 0.42283 0.72559 0.0
C2906 C 0.1529 0.41825 0.66869 0.0
C2907 C 0.13839 0.42128 0.66099 0.0
C2908 C 0.1422 0.43874 0.6513 0.0
C2909 C 0.16067 0.45283 0.64839 0.0
C2910 C 0.17509 0.44994 0.65657 0.0
H2911 H 0.17718 0.4109 0.73788 0.0
H2912 H 0.18505 0.43506 0.73956 0.0
H2913 H 0.16461 0.41997 0.71974 0.0
H2914 H 0.14972 0.40463 0.67573 0.0
H2915 H 0.12423 0.41002 0.66254 0.0
H2916 H 0.3696 0.87399 0.21627 0.0
H2917 H 0.40004 0.87961 0.20156 0.0
H2918 H 0.41344 0.93347 0.17054 0.0
H2919 H 0.38264 0.9277 0.1852 0.0
H2920 H 0.42191 0.91257 0.13272 0.0
H2921 H 0.45023 0.91398 0.23731 0.0
H2922 H 0.42778 0.89395 0.23282 0.0
H2923 H 0.43027 0.91668 0.23201 0.0
C2924 C 0.37906 0.88701 0.20628 0.0
C2925 C 0.37375 0.90024 0.20115 0.0
C2926 C 0.3965 0.8903 0.19817 0.0
C2927 C 0.40908 0.90704 0.18521 0.0
C2928 C 0.40394 0.92049 0.18057 0.0
H2929 H 0.51667 0.92349 0.1233 0.0
H2930 H 0.49147 0.93037 0.13041 0.0
C2931 C 0.38644 0.91721 0.18892 0.0
C2932 C 0.42726 0.90986 0.17586 0.0
H2933 H 0.46383 0.90602 0.19908 0.0
C2934 C 0.43124 0.91142 0.14719 0.0
C2935 C 0.43967 0.90884 0.19485 0.0
C2936 C 0.43688 0.90847 0.22599 0.0
C2937 C 0.44638 0.9102 0.13686 0.0
C2938 C 0.45794 0.90775 0.1558 0.0
C2939 C 0.45477 0.90766 0.18456 0.0
C2940 C 0.47214 0.90319 0.14659 0.0
C2941 C 0.44928 0.91032 0.10582 0.0
C2942 C 0.46938 0.88554 0.15254 0.0
C2943 C 0.48362 0.88165 0.14865 0.0
C2944 C 0.50098 0.89533 0.13865 0.0
C2945 C 0.50338 0.91265 0.13079 0.0
C2946 C 0.48904 0.9166 0.13492 0.0
H2947 H 0.4383 0.91111 0.09381 0.0
H2948 H 0.46289 0.9224 0.1002 0.0
H2949 H 0.44951 0.89762 0.09953 0.0
H2950 H 0.45641 0.875 0.16147 0.0
H2951 H 0.48131 0.86815 0.15476 0.0
H2952 H 0.11277 0.61013 0.19354 0.0
H2953 H 0.10749 0.57879 0.19558 0.0
H2954 H 0.09136 0.5706 0.10904 0.0
H2955 H 0.09669 0.60241 0.10662 0.0
H2956 H 0.07442 0.54382 0.1829 0.0
H2957 H 0.13531 0.55971 0.11614 0.0
H2958 H 0.13257 0.57774 0.1323 0.0
H2959 H 0.11853 0.56536 0.10291 0.0
C2960 C 0.1081 0.60179 0.17479 0.0
C2961 C 0.10536 0.60895 0.14976 0.0
C2962 C 0.10495 0.58376 0.17613 0.0
C2963 C 0.0991 0.57241 0.1525 0.0
C2964 C 0.09597 0.57923 0.1275 0.0
H2965 H 0.07603 0.45748 0.17777 0.0
H2966 H 0.07196 0.48349 0.16309 0.0
C2967 C 0.09901 0.59738 0.12616 0.0
C2968 C 0.09733 0.55384 0.15434 0.0
H2969 H 0.12048 0.53106 0.13864 0.0
C2970 C 0.0842 0.54075 0.17273 0.0
C2971 C 0.11032 0.55011 0.14141 0.0
C2972 C 0.12509 0.56393 0.12217 0.0
C2973 C 0.08413 0.52427 0.17928 0.0
C2974 C 0.09744 0.52073 0.16682 0.0
C2975 C 0.11015 0.53361 0.1478 0.0
C2976 C 0.0996 0.5047 0.17501 0.0
C2977 C 0.07055 0.51139 0.20072 0.0
C2978 C 0.11656 0.50789 0.18598 0.0
C2979 C 0.11894 0.4931 0.19389 0.0
C2980 C 0.1045 0.47481 0.19065 0.0
C2981 C 0.08741 0.47151 0.18014 0.0
C2982 C 0.08506 0.48635 0.17195 0.0
H2983 H 0.06419 0.51814 0.21284 0.0
H2984 H 0.05926 0.49916 0.19001 0.0
H2985 H 0.07738 0.50644 0.21549 0.0
H2986 H 0.12796 0.52189 0.18867 0.0
H2987 H 0.13207 0.49597 0.20269 0.0
H2988 H 0.50582 0.63172 0.21252 0.0
H2989 H 0.48124 0.60104 0.19826 0.0
H2990 H 0.52203 0.58879 0.16512 0.0
H2991 H 0.54682 0.61983 0.17936 0.0
H2992 H 0.49215 0.5799 0.12834 0.0
H2993 H 0.46658 0.55085 0.23303 0.0
H2994 H 0.46857 0.57317 0.22923 0.0
H2995 H 0.48902 0.57108 0.22749 0.0
C2996 C 0.50951 0.62245 0.20219 0.0
C2997 C 0.52805 0.62816 0.19634 0.0
C2998 C 0.49551 0.60487 0.19434 0.0
C2999 C 0.49981 0.59254 0.1809 0.0
C3000 C 0.51843 0.59808 0.17555 0.0
H3001 H 0.40697 0.48454 0.1233 0.0
H3002 H 0.43951 0.5092 0.12879 0.0
C3003 C 0.53252 0.61572 0.18366 0.0
C3004 C 0.48457 0.57428 0.17162 0.0
H3005 H 0.4445 0.53742 0.19524 0.0
C3006 C 0.48188 0.57044 0.14293 0.0
C3007 C 0.4714 0.56167 0.19074 0.0
C3008 C 0.47413 0.56429 0.22186 0.0
C3009 C 0.46546 0.5553 0.13277 0.0
C3010 C 0.45168 0.54361 0.15188 0.0
C3011 C 0.45506 0.54657 0.18061 0.0
C3012 C 0.43275 0.52975 0.14296 0.0
C3013 C 0.46232 0.55256 0.10178 0.0
C3014 C 0.41838 0.53341 0.14817 0.0
C3015 C 0.40001 0.51949 0.14519 0.0
C3016 C 0.39561 0.50161 0.13679 0.0
C3017 C 0.41001 0.49827 0.12946 0.0
C3018 C 0.42855 0.51228 0.13272 0.0
H3019 H 0.47444 0.56291 0.08961 0.0
H3020 H 0.45943 0.53847 0.09599 0.0
H3021 H 0.45001 0.55363 0.0959 0.0
H3022 H 0.42137 0.54681 0.15606 0.0
H3023 H 0.38922 0.52246 0.15099 0.0
H3024 H 0.07149 0.61815 0.67969 0.0
H3025 H 0.06652 0.5875 0.66573 0.0
H3026 H 0.11989 0.60175 0.6998 0.0
H3027 H 0.12469 0.632 0.71382 0.0
H3028 H 0.08827 0.57949 0.62955 0.0
H3029 H 0.08585 0.55132 0.73455 0.0
H3030 H 0.08286 0.57108 0.72878 0.0
H3031 H 0.10572 0.57394 0.73065 0.0
C3032 C 0.08202 0.61456 0.68426 0.0
C3033 C 0.09865 0.62744 0.69715 0.0
C3034 C 0.0792 0.59714 0.67631 0.0
C3035 C 0.09275 0.59227 0.68199 0.0
C3036 C 0.1091 0.60505 0.69562 0.0
H3037 H 0.13425 0.52162 0.65517 0.0
H3038 H 0.12663 0.546 0.66167 0.0
C3039 C 0.11194 0.62239 0.70334 0.0
C3040 C 0.0905 0.57425 0.67291 0.0
H3041 H 0.09508 0.53828 0.69704 0.0
C3042 C 0.08948 0.57031 0.64426 0.0
C3043 C 0.0916 0.56201 0.69218 0.0
C3044 C 0.09136 0.56469 0.72327 0.0
C3045 C 0.09136 0.55546 0.63429 0.0
C3046 C 0.09387 0.54409 0.65357 0.0
C3047 C 0.0934 0.54718 0.68226 0.0
C3048 C 0.09897 0.53018 0.64484 0.0
C3049 C 0.09183 0.55269 0.60331 0.0
C3050 C 0.08614 0.51339 0.63219 0.0
C3051 C 0.09054 0.49934 0.62818 0.0
C3052 C 0.10773 0.50191 0.63713 0.0
C3053 C 0.12085 0.51916 0.64821 0.0
C3054 C 0.11652 0.53312 0.65199 0.0
H3055 H 0.09133 0.56375 0.59108 0.0
H3056 H 0.1046 0.55241 0.59765 0.0
H3057 H 0.07982 0.53914 0.5973 0.0
H3058 H 0.07245 0.5108 0.62674 0.0
H3059 H 0.08011 0.48613 0.61984 0.0
H3060 H 0.38266 0.45364 0.68371 0.0
H3061 H 0.41373 0.47914 0.67102 0.0
H3062 H 0.39891 0.51867 0.70158 0.0
H3063 H 0.36822 0.49341 0.71426 0.0
H3064 H 0.42269 0.50917 0.63383 0.0
H3065 H 0.44844 0.53454 0.73997 0.0
H3066 H 0.4289 0.51179 0.73342 0.0
H3067 H 0.4259 0.53171 0.73452 0.0
C3068 C 0.38621 0.46781 0.68779 0.0
C3069 C 0.37305 0.47171 0.6993 0.0
C3070 C 0.40387 0.48232 0.68055 0.0
C3071 C 0.40869 0.50079 0.68561 0.0
C3072 C 0.39563 0.50453 0.69789 0.0
H3073 H 0.48162 0.61312 0.66251 0.0
H3074 H 0.45697 0.58131 0.66924 0.0
C3075 C 0.37805 0.49013 0.70486 0.0
C3076 C 0.42699 0.51648 0.67729 0.0
H3077 H 0.46261 0.55677 0.70275 0.0
C3078 C 0.43157 0.51949 0.64885 0.0
C3079 C 0.43883 0.5297 0.69701 0.0
C3080 C 0.43538 0.52669 0.72796 0.0
C3081 C 0.44669 0.53622 0.63941 0.0
C3082 C 0.45772 0.54999 0.65907 0.0
C3083 C 0.45397 0.5463 0.68764 0.0
C3084 C 0.47198 0.56904 0.6508 0.0
C3085 C 0.45004 0.53954 0.60851 0.0
C3086 C 0.48844 0.57277 0.63723 0.0
C3087 C 0.50263 0.59114 0.63302 0.0
C3088 C 0.50057 0.60594 0.6427 0.0
C3089 C 0.48369 0.60205 0.65496 0.0
C3090 C 0.46958 0.58385 0.6589 0.0
H3091 H 0.43866 0.52852 0.59597 0.0
H3092 H 0.45152 0.55311 0.60274 0.0
H3093 H 0.46313 0.53992 0.60295 0.0
H3094 H 0.49065 0.56153 0.63108 0.0
H3095 H 0.51555 0.59373 0.62376 0.0
H3096 H 0.39458 0.89073 0.69511 0.0
H3097 H 0.42595 0.8962 0.69514 0.0
H3098 H 0.43202 0.91223 0.60858 0.0
H3099 H 0.4001 0.90653 0.60817 0.0
H3100 H 0.44235 0.88631 0.61949 0.0
H3101 H 0.47601 0.94314 0.69579 0.0
H3102 H 0.45479 0.92458 0.70941 0.0
H3103 H 0.45427 0.93722 0.67928 0.0
C3104 C 0.40252 0.89558 0.67601 0.0
C3105 C 0.39469 0.89811 0.65154 0.0
C3106 C 0.42062 0.89893 0.67622 0.0
C3107 C 0.43151 0.90501 0.65208 0.0
C3108 C 0.42392 0.90777 0.62758 0.0
H3109 H 0.54375 0.92162 0.67406 0.0
H3110 H 0.51896 0.92708 0.65767 0.0
C3111 C 0.40569 0.90448 0.62736 0.0
C3112 C 0.45 0.90651 0.6522 0.0
H3113 H 0.48963 0.92344 0.69075 0.0
C3114 C 0.45287 0.89475 0.63465 0.0
C3115 C 0.46387 0.91768 0.67173 0.0
C3116 C 0.46216 0.93151 0.6899 0.0
C3117 C 0.46859 0.89288 0.63746 0.0
C3118 C 0.48168 0.90279 0.6586 0.0
C3119 C 0.47947 0.91557 0.67482 0.0
C3120 C 0.49691 0.89911 0.66563 0.0
C3121 C 0.4709 0.88002 0.61812 0.0
C3122 C 0.49277 0.8816 0.67562 0.0
C3123 C 0.50687 0.87855 0.68514 0.0
C3124 C 0.52541 0.89281 0.68437 0.0
C3125 C 0.52958 0.91029 0.67427 0.0
C3126 C 0.51546 0.91341 0.66493 0.0
H3127 H 0.4626 0.8773 0.59876 0.0
H3128 H 0.48566 0.88598 0.61235 0.0
H3129 H 0.46614 0.86662 0.62888 0.0
H3130 H 0.47854 0.8705 0.67715 0.0
H3131 H 0.50321 0.86523 0.69409 0.0
H3132 H 0.17136 0.4428 0.15566 0.0
H3133 H 0.19663 0.43642 0.15572 0.0
H3134 H 0.1856 0.4195 0.24184 0.0
H3135 H 0.15991 0.42608 0.24216 0.0
H3136 H 0.22219 0.44506 0.23144 0.0
H3137 H 0.19852 0.38877 0.15418 0.0
H3138 H 0.19612 0.40755 0.1409 0.0
H3139 H 0.18288 0.39485 0.17094 0.0
C3140 C 0.17408 0.4376 0.17471 0.0
C3141 C 0.16359 0.43507 0.19903 0.0
C3142 C 0.18846 0.4337 0.17452 0.0
C3143 C 0.19276 0.42707 0.19854 0.0
C3144 C 0.1823 0.42435 0.22292 0.0
H3145 H 0.28869 0.41113 0.17284 0.0
H3146 H 0.25827 0.40488 0.1899 0.0
C3147 C 0.16769 0.42816 0.22311 0.0
C3148 C 0.20949 0.42513 0.19844 0.0
H3149 H 0.23196 0.40844 0.15878 0.0
C3150 C 0.22418 0.43669 0.21602 0.0
C3151 C 0.21207 0.41407 0.17855 0.0
C3152 C 0.19646 0.40046 0.16029 0.0
C3153 C 0.24175 0.43858 0.21278 0.0
C3154 C 0.24483 0.42886 0.1912 0.0
C3155 C 0.22976 0.41617 0.17506 0.0
C3156 C 0.26376 0.43286 0.18345 0.0
C3157 C 0.25698 0.45137 0.23203 0.0
C3158 C 0.2769 0.4506 0.17397 0.0
C3159 C 0.29412 0.4541 0.16408 0.0
C3160 C 0.29872 0.44005 0.16392 0.0
C3161 C 0.2856 0.4223 0.17334 0.0
C3162 C 0.26827 0.41873 0.18307 0.0
H3163 H 0.25149 0.45361 0.25186 0.0
H3164 H 0.2661 0.44564 0.2369 0.0
H3165 H 0.26523 0.46498 0.22162 0.0
H3166 H 0.27357 0.46159 0.17321 0.0
H3167 H 0.30363 0.46765 0.15567 0.0
H3168 H 0.53609 0.83986 0.13955 0.0
H3169 H 0.53986 0.81373 0.15291 0.0
H3170 H 0.59671 0.85142 0.17543 0.0
H3171 H 0.59243 0.87779 0.16359 0.0
H3172 H 0.56152 0.80274 0.13124 0.0
H3173 H 0.58064 0.81915 0.24275 0.0
H3174 H 0.57518 0.83329 0.22089 0.0
H3175 H 0.59755 0.83533 0.21875 0.0
C3176 C 0.54921 0.84257 0.14817 0.0
C3177 C 0.5637 0.86079 0.15178 0.0
C3178 C 0.55147 0.82763 0.15545 0.0
C3179 C 0.56848 0.8305 0.16575 0.0
C3180 C 0.58328 0.84878 0.16836 0.0
H3181 H 0.58668 0.73856 0.21639 0.0
H3182 H 0.59242 0.77009 0.20766 0.0
C3183 C 0.58089 0.86383 0.16143 0.0
C3184 C 0.57048 0.8141 0.17238 0.0
H3185 H 0.57819 0.79139 0.22554 0.0
C3186 C 0.56524 0.80035 0.15187 0.0
C3187 C 0.57598 0.8111 0.19898 0.0
C3188 C 0.58257 0.82545 0.22171 0.0
C3189 C 0.56435 0.78343 0.15758 0.0
C3190 C 0.56827 0.77984 0.18485 0.0
C3191 C 0.57475 0.79399 0.20485 0.0
C3192 C 0.56461 0.76114 0.19318 0.0
C3193 C 0.55911 0.76954 0.13425 0.0
C3194 C 0.54688 0.74577 0.1894 0.0
C3195 C 0.54365 0.7279 0.19411 0.0
C3196 C 0.55797 0.725 0.2034 0.0
C3197 C 0.57537 0.74042 0.20937 0.0
C3198 C 0.57869 0.7584 0.2042 0.0
H3199 H 0.56295 0.7765 0.11359 0.0
H3200 H 0.56593 0.76109 0.13665 0.0
H3201 H 0.54389 0.76013 0.13435 0.0
H3202 H 0.53563 0.74755 0.18189 0.0
H3203 H 0.53005 0.71629 0.1896 0.0
H3204 H 0.12458 0.71835 0.16482 0.0
H3205 H 0.15106 0.74887 0.17722 0.0
H3206 H 0.18862 0.73097 0.14852 0.0
H3207 H 0.16238 0.70083 0.136 0.0
H3208 H 0.17981 0.75668 0.21502 0.0
H3209 H 0.20791 0.78055 0.10935 0.0
H3210 H 0.18471 0.76163 0.1153 0.0
H3211 H 0.2041 0.75775 0.1161 0.0
C3212 C 0.13854 0.72111 0.16105 0.0
C3213 C 0.14158 0.70724 0.15015 0.0
C3214 C 0.1536 0.73846 0.16813 0.0
C3215 C 0.17182 0.74226 0.16354 0.0
C3216 C 0.17472 0.7285 0.15181 0.0
H3217 H 0.2849 0.81569 0.19066 0.0
H3218 H 0.25343 0.79049 0.18304 0.0
C3219 C 0.15975 0.71122 0.14496 0.0
C3220 C 0.18801 0.7602 0.17192 0.0
H3221 H 0.22932 0.79476 0.14737 0.0
C3222 C 0.19056 0.76512 0.20026 0.0
C3223 C 0.20186 0.77148 0.15252 0.0
C3224 C 0.19943 0.7677 0.12158 0.0
C3225 C 0.20727 0.78009 0.21002 0.0
C3226 C 0.22154 0.79066 0.19075 0.0
C3227 C 0.21846 0.78647 0.1622 0.0
C3228 C 0.24031 0.80522 0.19956 0.0
C3229 C 0.20991 0.78384 0.24092 0.0
C3230 C 0.24343 0.82171 0.21236 0.0
C3231 C 0.26157 0.8362 0.21706 0.0
C3232 C 0.27677 0.83443 0.20866 0.0
C3233 C 0.2735 0.81753 0.19722 0.0
C3234 C 0.2555 0.80311 0.19277 0.0
H3235 H 0.19886 0.7724 0.25333 0.0
H3236 H 0.22354 0.78587 0.24767 0.0
H3237 H 0.20966 0.79673 0.24564 0.0
H3238 H 0.23191 0.82371 0.21746 0.0
H3239 H 0.26368 0.84913 0.22564 0.0
H3240 H 0.25916 0.23687 0.14349 0.0
H3241 H 0.25732 0.23834 0.19438 0.0
H3242 H 0.19782 0.20573 0.19009 0.0
H3243 H 0.19952 0.20425 0.13928 0.0
H3244 H 0.21105 0.23785 0.22361 0.0
H3245 H 0.24427 0.19661 0.25169 0.0
H3246 H 0.25728 0.21547 0.22803 0.0
H3247 H 0.23549 0.1963 0.21716 0.0
C3248 C 0.24569 0.22986 0.15339 0.0
C3249 C 0.22949 0.22037 0.13727 0.0
C3250 C 0.24466 0.23067 0.18251 0.0
C3251 C 0.22743 0.22201 0.19612 0.0
C3252 C 0.21126 0.21249 0.18008 0.0
H3253 H 0.20337 0.19822 0.37235 0.0
H3254 H 0.20533 0.19717 0.32154 0.0
C3255 C 0.21228 0.2116 0.15101 0.0
C3256 C 0.22616 0.22325 0.22697 0.0
H3257 H 0.23774 0.21122 0.28878 0.0
C3258 C 0.21689 0.23204 0.23787 0.0
C3259 C 0.23363 0.21552 0.24558 0.0
C3260 C 0.2431 0.20529 0.23514 0.0
C3261 C 0.21504 0.23344 0.26682 0.0
C3262 C 0.22279 0.22599 0.28543 0.0
C3263 C 0.23192 0.21706 0.27453 0.0
C3264 C 0.22119 0.22689 0.31628 0.0
C3265 C 0.20447 0.24256 0.27725 0.0
C3266 C 0.22946 0.24396 0.33034 0.0
C3267 C 0.22837 0.24462 0.35948 0.0
C3268 C 0.21901 0.2282 0.37516 0.0
C3269 C 0.21062 0.21114 0.36097 0.0
C3270 C 0.21178 0.2105 0.33189 0.0
H3271 H 0.19587 0.24374 0.26059 0.0
H3272 H 0.19536 0.23468 0.29499 0.0
H3273 H 0.21442 0.25672 0.28471 0.0
H3274 H 0.23704 0.25678 0.31881 0.0
H3275 H 0.23509 0.25797 0.36974 0.0
H3276 H 0.76693 0.02375 0.14579 0.0
H3277 H 0.76566 0.01993 0.19661 0.0
H3278 H 0.80005 0.99504 0.19076 0.0
H3279 H 0.80139 0.99878 0.14003 0.0
H3280 H 0.76762 0.97474 0.2241 0.0
H3281 H 0.8073 0.04891 0.25445 0.0
H3282 H 0.78854 0.04291 0.23054 0.0
H3283 H 0.80813 0.04101 0.21969 0.0
C3284 C 0.77438 0.01763 0.15533 0.0
C3285 C 0.78432 0.01164 0.13879 0.0
C3286 C 0.77367 0.0155 0.18442 0.0
C3287 C 0.78288 0.00733 0.19758 0.0
C3288 C 0.79287 0.00142 0.18112 0.0
H3289 H 0.80517 0.00427 0.37444 0.0
H3290 H 0.80703 0.00809 0.32368 0.0
C3291 C 0.79367 0.00364 0.15209 0.0
C3292 C 0.78166 0.00439 0.22837 0.0
H3293 H 0.79298 0.02715 0.29094 0.0
C3294 C 0.77316 0.9862 0.23871 0.0
C3295 C 0.78905 0.01934 0.24746 0.0
C3296 C 0.79892 0.03917 0.2376 0.0
C3297 C 0.77165 0.98256 0.26756 0.0
C3298 C 0.77873 0.99749 0.28666 0.0
C3299 C 0.78744 0.01569 0.27632 0.0
C3300 C 0.77742 0.99454 0.31744 0.0
C3301 C 0.76275 0.96276 0.27741 0.0
C3302 C 0.76015 0.98562 0.33092 0.0
C3303 C 0.75904 0.98345 0.36 0.0
C3304 C 0.77519 0.99013 0.37623 0.0
C3305 C 0.79245 0.99886 0.36262 0.0
C3306 C 0.79355 0.00113 0.33358 0.0
H3307 H 0.76178 0.95324 0.26043 0.0
H3308 H 0.77066 0.96144 0.29503 0.0
H3309 H 0.74853 0.95826 0.28488 0.0
H3310 H 0.74752 0.98064 0.31899 0.0
H3311 H 0.74553 0.97675 0.36978 0.0
H3312 H 0.0347 0.77925 0.36427 0.0
H3313 H 0.03291 0.77946 0.31319 0.0
H3314 H 0.98629 0.78831 0.31918 0.0
H3315 H 0.98879 0.78923 0.36988 0.0
H3316 H 0.00883 0.75852 0.27759 0.0
H3317 H 0.01517 0.82713 0.2643 0.0
H3318 H 0.019 0.81945 0.29747 0.0
H3319 H 0.99586 0.81291 0.28631 0.0
C3320 C 0.02424 0.78148 0.35461 0.0
C3321 C 0.01206 0.78448 0.37112 0.0
C3322 C 0.02317 0.78155 0.32538 0.0
C3323 C 0.00974 0.78437 0.31202 0.0
C3324 C 0.99727 0.78685 0.32866 0.0
H3325 H 0.9733 0.74972 0.14028 0.0
H3326 H 0.9776 0.75161 0.1909 0.0
C3327 C 0.99861 0.78722 0.35778 0.0
C3328 C 0.00828 0.78401 0.28086 0.0
H3329 H 0.00298 0.80657 0.22517 0.0
C3330 C 0.00776 0.76916 0.26615 0.0
C3331 C 0.00725 0.79802 0.26555 0.0
C3332 C 0.00957 0.81536 0.27923 0.0
C3333 C 0.00583 0.76772 0.23692 0.0
C3334 C 0.00348 0.78106 0.22186 0.0
C3335 C 0.00443 0.79612 0.23651 0.0
C3336 C 1.00037 0.77992 0.19095 0.0
C3337 C 0.00686 0.75215 0.2226 0.0
C3338 C 0.01098 0.79545 0.17391 0.0
C3339 C 0.00805 0.79457 0.14503 0.0
C3340 C 0.99465 0.77805 0.13238 0.0
C3341 C 0.9839 0.76257 0.14937 0.0
C3342 C 0.98651 0.76359 0.17835 0.0
H3343 H 0.01496 0.74746 0.23512 0.0
H3344 H 0.99267 0.74014 0.22024 0.0
H3345 H 0.01331 0.75634 0.20166 0.0
H3346 H 0.0217 0.80827 0.18291 0.0
H3347 H 0.01659 0.80673 0.13252 0.0
H3348 H 0.80257 0.80208 0.87136 0.0
H3349 H 0.80503 0.80153 0.82056 0.0
H3350 H 0.74585 0.76639 0.81449 0.0
H3351 H 0.74324 0.76698 0.86536 0.0
H3352 H 0.79441 0.77059 0.78667 0.0
H3353 H 0.75668 0.80719 0.75727 0.0
H3354 H 0.765 0.80776 0.79223 0.0
H3355 H 0.74418 0.7878 0.78022 0.0
C3356 C 0.79003 0.79439 0.85924 0.0
C3357 C 0.77269 0.78463 0.87249 0.0
C3358 C 0.79148 0.79405 0.83016 0.0
C3359 C 0.77562 0.78408 0.81361 0.0
C3360 C 0.75826 0.77446 0.82673 0.0
H3361 H 0.76999 0.74757 0.64154 0.0
H3362 H 0.76751 0.74955 0.69221 0.0
C3363 C 0.7568 0.77476 0.85586 0.0
C3364 C 0.77741 0.78317 0.78277 0.0
H3365 H 0.76469 0.79346 0.72043 0.0
C3366 C 0.78793 0.77562 0.77221 0.0
C3367 C 0.76909 0.78987 0.76384 0.0
C3368 C 0.75823 0.79877 0.77387 0.0
C3369 C 0.79012 0.77435 0.74333 0.0
C3370 C 0.78149 0.78069 0.72443 0.0
C3371 C 0.77119 0.78848 0.73494 0.0
C3372 C 0.78314 0.77947 0.69367 0.0
C3373 C 0.80188 0.76646 0.73321 0.0
C3374 C 0.79261 0.79563 0.67756 0.0
C3375 C 0.79415 0.79454 0.64859 0.0
C3376 C 0.78603 0.77725 0.63506 0.0
C3377 C 0.77646 0.76109 0.65126 0.0
C3378 C 0.77506 0.7622 0.68026 0.0
H3379 H 0.81055 0.76569 0.75016 0.0
H3380 H 0.79275 0.75225 0.72515 0.0
H3381 H 0.81105 0.77496 0.71591 0.0
H3382 H 0.79891 0.8091 0.68745 0.0
H3383 H 0.80154 0.80726 0.63676 0.0
H3384 H 0.25638 0.01334 0.64779 0.0
H3385 H 0.25439 0.00866 0.69842 0.0
H3386 H 0.19937 0.00119 0.69798 0.0
H3387 H 0.20106 0.00527 0.64739 0.0
H3388 H 0.25002 0.02692 0.74086 0.0
H3389 H 0.19 0.95565 0.73953 0.0
H3390 H 0.20234 0.96728 0.70823 0.0
H3391 H 0.18507 0.97186 0.72258 0.0
C3392 C 0.24386 0.01069 0.65848 0.0
C3393 C 0.22882 0.00953 0.64348 0.0
C3394 C 0.24272 0.008 0.68746 0.0
C3395 C 0.22655 0.00411 0.70207 0.0
C3396 C 0.21177 0.00357 0.68719 0.0
H3397 H 0.19667 0.99544 0.87738 0.0
H3398 H 0.1987 0.99873 0.82647 0.0
C3399 C 0.21282 0.00607 0.65823 0.0
C3400 C 0.22524 0.00093 0.73287 0.0
H3401 H 0.19856 0.97054 0.78394 0.0
C3402 C 0.23884 0.01452 0.7502 0.0
C3403 C 0.2107 0.98469 0.74523 0.0
C3404 C 0.19631 0.96896 0.72791 0.0
C3405 C 0.23805 0.01252 0.7794 0.0
C3406 C 0.2233 0.99651 0.79168 0.0
C3407 C 0.20978 0.98286 0.77446 0.0
C3408 C 0.22169 0.9938 0.82242 0.0
C3409 C 0.25279 0.02766 0.79709 0.0
C3410 C 0.23373 0.98961 0.83698 0.0
C3411 C 0.2325 0.98754 0.86605 0.0
C3412 C 0.21927 0.98975 0.88116 0.0
C3413 C 0.20703 0.99367 0.86642 0.0
C3414 C 0.20817 0.99555 0.83732 0.0
H3415 H 0.26187 0.04028 0.78473 0.0
H3416 H 0.24634 0.03145 0.81423 0.0
H3417 H 0.26151 0.02259 0.80674 0.0
H3418 H 0.24418 0.98806 0.82584 0.0
H3419 H 0.24216 0.98456 0.87672 0.0
H3420 H 0.01354 0.21125 0.64092 0.0
H3421 H 0.01562 0.21199 0.69171 0.0
H3422 H 0.97012 0.22263 0.69665 0.0
H3423 H 0.96885 0.22311 0.64559 0.0
H3424 H 0.99391 0.24304 0.73225 0.0
H3425 H 0.98606 0.1739 0.74686 0.0
H3426 H 0.00567 0.18777 0.72518 0.0
H3427 H 0.98275 0.18163 0.71339 0.0
C3428 C 0.00387 0.21359 0.65284 0.0
C3429 C 0.99092 0.21697 0.63924 0.0
C3430 C 0.00496 0.21386 0.68199 0.0
C3431 C 0.9927 0.21684 0.69836 0.0
C3432 C 0.9797 0.22018 0.6847 0.0
H3433 H 0.98389 0.19471 0.878 0.0
H3434 H 0.97931 0.19317 0.82746 0.0
C3435 C 0.97893 0.2204 0.65547 0.0
C3436 C 0.99396 0.21728 0.72955 0.0
H3437 H 0.99821 0.19454 0.7859 0.0
C3438 C 0.99464 0.2323 0.74395 0.0
C3439 C 0.99455 0.20314 0.7452 0.0
C3440 C 0.992 0.18563 0.73185 0.0
C3441 C 0.99624 0.23376 0.7732 0.0
C3442 C 0.99814 0.22029 0.78863 0.0
C3443 C 0.99709 0.20509 0.77428 0.0
C3444 C 1.0009 0.22145 0.81962 0.0
C3445 C 0.9953 0.24951 0.78712 0.0
C3446 C 0.0147 0.23774 0.83239 0.0
C3447 C 0.01696 0.23877 0.86143 0.0
C3448 C 0.00596 0.22333 0.87831 0.0
C3449 C 0.99261 0.20684 0.86554 0.0
C3450 C 0.99 0.20596 0.83658 0.0
H3451 H 0.98744 0.2543 0.77421 0.0
H3452 H 0.98862 0.24544 0.80793 0.0
H3453 H 0.00952 0.26141 0.78968 0.0
H3454 H 0.02383 0.24968 0.81992 0.0
H3455 H 0.02753 0.25159 0.87064 0.0
H3456 H 0.92346 0.57059 0.47871 0.0
H3457 H 0.92145 0.5719 0.52961 0.0
H3458 H 0.86196 0.53938 0.52483 0.0
H3459 H 0.86383 0.53806 0.47402 0.0
H3460 H 0.87515 0.57133 0.55884 0.0
H3461 H 0.90809 0.52971 0.58623 0.0
H3462 H 0.92121 0.54871 0.56285 0.0
H3463 H 0.89943 0.52965 0.5517 0.0
C3464 C 0.90996 0.56359 0.4885 0.0
C3465 C 0.89381 0.55415 0.47226 0.0
C3466 C 0.90883 0.5643 0.51762 0.0
C3467 C 0.89155 0.55559 0.5311 0.0
C3468 C 0.87544 0.54617 0.51492 0.0
H3469 H 0.8673 0.53089 0.70719 0.0
H3470 H 0.86906 0.53002 0.65632 0.0
C3471 C 0.87655 0.54538 0.48586 0.0
C3472 C 0.89018 0.55663 0.56196 0.0
H3473 H 0.9015 0.54412 0.62356 0.0
C3474 C 0.88092 0.56539 0.573 0.0
C3475 C 0.89755 0.54872 0.58043 0.0
C3476 C 0.907 0.53852 0.56982 0.0
C3477 C 0.87899 0.5666 0.60197 0.0
C3478 C 0.88664 0.55898 0.62045 0.0
C3479 C 0.89575 0.55007 0.6094 0.0
C3480 C 0.88504 0.55975 0.65131 0.0
C3481 C 0.86845 0.57571 0.61256 0.0
C3482 C 0.89341 0.57677 0.66551 0.0
C3483 C 0.89244 0.57732 0.69467 0.0
C3484 C 0.88308 0.56085 0.71023 0.0
C3485 C 0.87454 0.54385 0.6959 0.0
C3486 C 0.87559 0.54332 0.66679 0.0
H3487 H 0.85988 0.577 0.59595 0.0
H3488 H 0.85931 0.56776 0.63023 0.0
H3489 H 0.87842 0.58982 0.62017 0.0
H3490 H 0.90102 0.58963 0.65408 0.0
H3491 H 0.89926 0.59064 0.70504 0.0
H3492 H 0.46435 0.32835 0.472 0.0
H3493 H 0.46269 0.32538 0.52283 0.0
H3494 H 0.43053 0.35278 0.52624 0.0
H3495 H 0.43213 0.35585 0.47528 0.0
H3496 H 0.45974 0.36544 0.56681 0.0
H3497 H 0.41545 0.28888 0.56665 0.0
H3498 H 0.43607 0.2977 0.54585 0.0
H3499 H 0.41833 0.30287 0.53626 0.0
C3500 C 0.45699 0.33385 0.48353 0.0
C3501 C 0.44831 0.34228 0.46951 0.0
C3502 C 0.45596 0.33202 0.5126 0.0
C3503 C 0.44623 0.33858 0.52833 0.0
C3504 C 0.43801 0.3475 0.51452 0.0
H3505 H 0.41162 0.31314 0.70261 0.0
H3506 H 0.41264 0.31659 0.65172 0.0
C3507 C 0.43895 0.34926 0.48538 0.0
C3508 C 0.44464 0.33609 0.55915 0.0
H3509 H 0.4277 0.30312 0.61037 0.0
C3510 C 0.4527 0.35183 0.57634 0.0
C3511 C 0.43523 0.31832 0.57159 0.0
C3512 C 0.42562 0.30095 0.55421 0.0
C3513 C 0.45199 0.35025 0.6056 0.0
C3514 C 0.4431 0.33246 0.61803 0.0
C3515 C 0.43465 0.31674 0.60085 0.0
C3516 C 0.44246 0.32992 0.64884 0.0
C3517 C 0.4606 0.36765 0.623 0.0
C3518 C 0.45885 0.3359 0.66409 0.0
C3519 C 0.45831 0.33386 0.69313 0.0
C3520 C 0.44135 0.32578 0.70757 0.0
C3521 C 0.42491 0.31945 0.69217 0.0
C3522 C 0.42547 0.32142 0.66308 0.0
H3523 H 0.46281 0.37989 0.61072 0.0
H3524 H 0.45179 0.3661 0.64132 0.0
H3525 H 0.47425 0.37036 0.63079 0.0
H3526 H 0.4721 0.34219 0.65353 0.0
H3527 H 0.47123 0.33886 0.70428 0.0
H3528 H 0.66356 0.13451 0.70673 0.0
H3529 H 0.66003 0.13182 0.65598 0.0
H3530 H 0.68727 0.09948 0.65397 0.0
H3531 H 0.69092 0.10215 0.70481 0.0
H3532 H 0.69976 0.12757 0.61237 0.0
H3533 H 0.62314 0.08443 0.61352 0.0
H3534 H 0.63226 0.1055 0.63328 0.0
H3535 H 0.63714 0.08774 0.64404 0.0
C3536 C 0.66887 0.12687 0.69552 0.0
C3537 C 0.67747 0.11849 0.70991 0.0
C3538 C 0.66672 0.12524 0.66649 0.0
C3539 C 0.6731 0.11519 0.65116 0.0
C3540 C 0.68212 0.1072 0.66536 0.0
H3541 H 0.64617 0.07801 0.47783 0.0
H3542 H 0.64989 0.07968 0.52872 0.0
C3543 C 0.6842 0.10875 0.69444 0.0
C3544 C 0.67045 0.11311 0.62035 0.0
H3545 H 0.63728 0.09588 0.56943 0.0
C3546 C 0.6861 0.12059 0.60299 0.0
C3547 C 0.65263 0.1038 0.60807 0.0
C3548 C 0.6353 0.09474 0.62563 0.0
C3549 C 0.68441 0.11941 0.57374 0.0
C3550 C 0.66659 0.11063 0.56144 0.0
C3551 C 0.65093 0.10275 0.57882 0.0
C3552 C 0.66394 0.10959 0.5306 0.0
C3553 C 0.70174 0.1274 0.55621 0.0
C3554 C 0.67026 0.12581 0.51475 0.0
C3555 C 0.66808 0.12489 0.48573 0.0
C3556 C 0.65951 0.10772 0.47184 0.0
C3557 C 0.65287 0.09146 0.48782 0.0
C3558 C 0.65498 0.09239 0.51692 0.0
H3559 H 0.7139 0.12945 0.56854 0.0
H3560 H 0.6999 0.11826 0.5382 0.0
H3561 H 0.70477 0.14106 0.54795 0.0
H3562 H 0.67691 0.13922 0.52485 0.0
H3563 H 0.67331 0.13769 0.47414 0.0
H3564 H 0.46912 0.13045 0.20835 0.0
H3565 H 0.47059 0.12898 0.15755 0.0
H3566 H 0.41105 0.09666 0.15377 0.0
H3567 H 0.40944 0.09811 0.20474 0.0
H3568 H 0.45695 0.09665 0.1243 0.0
H3569 H 0.42433 0.13848 0.09626 0.0
H3570 H 0.43325 0.13884 0.13072 0.0
H3571 H 0.41135 0.11973 0.12012 0.0
C3572 C 0.4563 0.12316 0.19675 0.0
C3573 C 0.43914 0.11445 0.21066 0.0
C3574 C 0.45718 0.12229 0.16767 0.0
C3575 C 0.44094 0.11284 0.15178 0.0
C3576 C 0.42376 0.10426 0.16554 0.0
H3577 H 0.4324 0.07667 0.97841 0.0
H3578 H 0.43044 0.07805 0.02929 0.0
C3579 C 0.42286 0.10506 0.1947 0.0
C3580 C 0.44213 0.11154 0.12094 0.0
H3581 H 0.4309 0.12392 0.05914 0.0
C3582 C 0.45124 0.10259 0.11004 0.0
C3583 C 0.43483 0.11945 0.10235 0.0
C3584 C 0.42551 0.12981 0.11283 0.0
C3585 C 0.4531 0.10121 0.08111 0.0
C3586 C 0.44555 0.10886 0.06251 0.0
C3587 C 0.43658 0.11795 0.0734 0.0
C3588 C 0.44711 0.10789 0.03169 0.0
C3589 C 0.46346 0.09188 0.07064 0.0
C3590 C 0.45702 0.1242 0.01604 0.0
C3591 C 0.45821 0.12345 0.98698 0.0
C3592 C 0.44935 0.10637 0.97287 0.0
C3593 C 0.43948 0.09004 0.9886 0.0
C3594 C 0.43838 0.0908 0.01771 0.0
H3595 H 0.47186 0.0904 0.08735 0.0
H3596 H 0.45339 0.07784 0.0629 0.0
H3597 H 0.47275 0.09979 0.05308 0.0
H3598 H 0.46384 0.13755 0.02635 0.0
H3599 H 0.46585 0.13631 0.97553 0.0
H3600 H 0.90323 0.31337 0.20733 0.0
H3601 H 0.90591 0.31696 0.15649 0.0
H3602 H 0.87368 0.34431 0.1583 0.0
H3603 H 0.87096 0.34083 0.20906 0.0
H3604 H 0.87761 0.30442 0.11495 0.0
H3605 H 0.92127 0.38104 0.11574 0.0
H3606 H 0.91796 0.36704 0.14629 0.0
H3607 H 0.90026 0.37202 0.13562 0.0
C3608 C 0.89666 0.3201 0.19691 0.0
C3609 C 0.88693 0.32687 0.21233 0.0
C3610 C 0.89821 0.32214 0.16784 0.0
C3611 C 0.89025 0.33116 0.15359 0.0
C3612 C 0.88023 0.3376 0.16886 0.0
H3613 H 0.86817 0.33102 0.97642 0.0
H3614 H 0.8665 0.32768 0.02718 0.0
C3615 C 0.87859 0.33548 0.19789 0.0
C3616 C 0.89233 0.33375 0.12278 0.0
H3617 H 0.90991 0.36683 0.0717 0.0
C3618 C 0.88471 0.31806 0.1055 0.0
C3619 C 0.90179 0.35156 0.11042 0.0
C3620 C 0.91095 0.36891 0.12791 0.0
C3621 C 0.88594 0.31969 0.07625 0.0
C3622 C 0.89491 0.3375 0.06388 0.0
C3623 C 0.9029 0.35319 0.08116 0.0
C3624 C 0.89605 0.34007 0.03304 0.0
C3625 C 0.87778 0.30233 0.0588 0.0
C3626 C 0.91327 0.34863 0.01941 0.0
C3627 C 0.91429 0.35059 0.99029 0.0
C3628 C 0.8981 0.34419 0.97424 0.0
C3629 C 0.88092 0.33605 0.98807 0.0
C3630 C 0.87991 0.33402 0.01712 0.0
H3631 H 0.87542 0.29009 0.07123 0.0
H3632 H 0.86425 0.29953 0.05031 0.0
H3633 H 0.88697 0.30398 0.04094 0.0
H3634 H 0.92592 0.35351 0.03128 0.0
H3635 H 0.92774 0.35694 0.98034 0.0
H3636 H 0.66148 0.53067 0.20882 0.0
H3637 H 0.65874 0.52974 0.15795 0.0
H3638 H 0.68538 0.58928 0.15566 0.0
H3639 H 0.6882 0.59036 0.20663 0.0
H3640 H 0.64007 0.54394 0.12469 0.0
H3641 H 0.71479 0.57669 0.09832 0.0
H3642 H 0.70581 0.56711 0.13235 0.0
H3643 H 0.70881 0.58924 0.12269 0.0
C3644 C 0.6669 0.5436 0.19752 0.0
C3645 C 0.67513 0.56061 0.21184 0.0
C3646 C 0.66526 0.54303 0.16842 0.0
C3647 C 0.67198 0.55943 0.15294 0.0
C3648 C 0.68032 0.57645 0.16712 0.0
H3649 H 0.64651 0.57114 0.97969 0.0
H3650 H 0.6494 0.57232 0.03064 0.0
C3651 C 0.68187 0.57704 0.19628 0.0
C3652 C 0.66981 0.55864 0.12205 0.0
H3653 H 0.6941 0.57079 0.06083 0.0
C3654 C 0.65188 0.54982 0.11072 0.0
C3655 C 0.68522 0.56617 0.10382 0.0
C3656 C 0.70477 0.57522 0.11478 0.0
C3657 C 0.64896 0.54849 0.08169 0.0
C3658 C 0.66437 0.55628 0.06347 0.0
C3659 C 0.6823 0.56493 0.0748 0.0
C3660 C 0.66218 0.55528 0.03258 0.0
C3661 C 0.62939 0.53846 0.07072 0.0
C3662 C 0.66854 0.54545 0.01666 0.0
C3663 C 0.66686 0.5447 0.98756 0.0
C3664 C 0.65895 0.55395 0.97369 0.0
C3665 C 0.65259 0.56379 0.98969 0.0
C3666 C 0.65418 0.56443 0.01884 0.0
H3667 H 0.61928 0.52988 0.08707 0.0
H3668 H 0.62566 0.54876 0.0632 0.0
H3669 H 0.62813 0.52941 0.05288 0.0
H3670 H 0.67481 0.53832 0.02679 0.0
H3671 H 0.67199 0.53707 0.97592 0.0
H3672 H 0.5302 0.86665 0.03777 0.0
H3673 H 0.53147 0.86523 0.98694 0.0
H3674 H 0.5762 0.92182 0.98509 0.0
H3675 H 0.57458 0.92352 0.03595 0.0
H3676 H 0.55211 0.91577 0.94417 0.0
H3677 H 0.56874 0.85928 0.94239 0.0
H3678 H 0.54759 0.85283 0.96058 0.0
H3679 H 0.56918 0.87113 0.97409 0.0
C3680 C 0.5403 0.87882 0.02656 0.0
C3681 C 0.55237 0.89517 0.04099 0.0
C3682 C 0.54112 0.87793 0.99745 0.0
C3683 C 0.55425 0.89326 0.98208 0.0
C3684 C 0.56603 0.90975 0.9964 0.0
H3685 H 0.58722 0.91025 0.80658 0.0
H3686 H 0.5859 0.91239 0.85748 0.0
C3687 C 0.5651 0.91071 0.02552 0.0
C3688 C 0.55557 0.89215 0.95112 0.0
H3689 H 0.56066 0.86709 0.89878 0.0
C3690 C 0.55411 0.90519 0.93432 0.0
C3691 C 0.55829 0.87842 0.93808 0.0
C3692 C 0.56123 0.86475 0.95472 0.0
C3693 C 0.55489 0.90462 0.90502 0.0
C3694 C 0.55718 0.89066 0.89211 0.0
C3695 C 0.55876 0.8777 0.90877 0.0
C3696 C 0.55799 0.88934 0.86127 0.0
C3697 C 0.55301 0.91875 0.88791 0.0
C3698 C 0.54279 0.87557 0.84655 0.0
C3699 C 0.54345 0.87438 0.81745 0.0
C3700 C 0.55942 0.88681 0.80251 0.0
C3701 C 0.57472 0.90045 0.81741 0.0
C3702 C 0.57398 0.90173 0.84649 0.0
H3703 H 0.54927 0.92744 0.90087 0.0
H3704 H 0.56632 0.92794 0.87722 0.0
H3705 H 0.54229 0.91174 0.87156 0.0
H3706 H 0.53035 0.86584 0.85758 0.0
H3707 H 0.53144 0.8637 0.80666 0.0
H3708 H 0.07626 0.6453 0.03954 0.0
H3709 H 0.0768 0.6481 0.9886 0.0
H3710 H 0.13636 0.67489 0.9894 0.0
H3711 H 0.13596 0.67221 0.04026 0.0
H3712 H 0.12219 0.69355 0.95695 0.0
H3713 H 0.0884 0.61881 0.93024 0.0
H3714 H 0.07607 0.62491 0.95484 0.0
H3715 H 0.09813 0.62762 0.96424 0.0
C3716 C 0.08947 0.65162 0.02886 0.0
C3717 C 0.10607 0.65846 0.04402 0.0
C3718 C 0.08975 0.65318 0.99971 0.0
C3719 C 0.10662 0.66158 0.98511 0.0
C3720 C 0.12318 0.66833 1.00019 0.0
H3721 H 0.12805 0.66066 0.80864 0.0
H3722 H 0.12643 0.65793 0.85944 0.0
C3723 C 0.12292 0.66671 0.02928 0.0
C3724 C 0.1071 0.66381 0.95423 0.0
H3725 H 0.09423 0.63962 0.89295 0.0
C3726 C 0.11605 0.68176 0.94294 0.0
C3727 C 0.09922 0.64843 0.93596 0.0
C3728 C 0.09003 0.62883 0.94681 0.0
C3729 C 0.11725 0.68474 0.91393 0.0
C3730 C 0.10916 0.66936 0.89566 0.0
C3731 C 0.1003 0.65141 0.90695 0.0
C3732 C 0.11036 0.67156 0.86476 0.0
C3733 C 0.12753 0.70433 0.90302 0.0
C3734 C 0.10185 0.68014 0.85072 0.0
C3735 C 0.10274 0.68171 0.82153 0.0
C3736 C 0.11216 0.67473 0.80583 0.0
C3737 C 0.12074 0.66626 0.82002 0.0
C3738 C 0.11978 0.66463 0.84911 0.0
H3739 H 0.13626 0.71434 0.91937 0.0
H3740 H 0.13649 0.70546 0.88511 0.0
H3741 H 0.11741 0.70832 0.89563 0.0
H3742 H 0.09427 0.68536 0.8623 0.0
H3743 H 0.09589 0.68822 0.81127 0.0
H3744 H 0.35964 0.44129 0.03825 0.0
H3745 H 0.3565 0.43982 0.9874 0.0
H3746 H 0.31257 0.45272 0.99389 0.0
H3747 H 0.31656 0.45539 0.04451 0.0
H3748 H 0.33117 0.4189 0.95379 0.0
H3749 H 0.34178 0.489 0.93618 0.0
H3750 H 0.34551 0.48174 0.96974 0.0
H3751 H 0.32252 0.47597 0.95893 0.0
C3752 C 0.34945 0.44401 0.02876 0.0
C3753 C 0.33851 0.44868 0.04536 0.0
C3754 C 0.34761 0.44311 0.99965 0.0
C3755 C 0.33456 0.44656 0.98645 0.0
C3756 C 0.32324 0.45069 1.0032 0.0
H3757 H 0.3012 0.41164 0.81227 0.0
H3758 H 0.3029 0.41309 0.86333 0.0
C3759 C 0.32542 0.45206 0.03225 0.0
C3760 C 0.33255 0.44538 0.95534 0.0
H3761 H 0.32963 0.46808 0.89789 0.0
C3762 C 0.33098 0.42975 0.94159 0.0
C3763 C 0.33257 0.4596 0.93908 0.0
C3764 C 0.3359 0.47759 0.95173 0.0
C3765 C 0.32942 0.42793 0.91236 0.0
C3766 C 0.32849 0.44172 0.89625 0.0
C3767 C 0.33008 0.45734 0.91002 0.0
C3768 C 0.32677 0.44076 0.86509 0.0
C3769 C 0.32949 0.41153 0.89915 0.0
C3770 C 0.33893 0.45609 0.84878 0.0
C3771 C 0.33752 0.4555 0.81967 0.0
C3772 C 0.3241 0.43945 0.80601 0.0
C3773 C 0.31182 0.42413 0.82219 0.0
C3774 C 0.31293 0.42489 0.85143 0.0
H3775 H 0.33626 0.40593 0.91287 0.0
H3776 H 0.31501 0.40032 0.89576 0.0
H3777 H 0.3368 0.41526 0.87879 0.0
H3778 H 0.34973 0.46853 0.85855 0.0
H3779 H 0.34725 0.46752 0.80781 0.0
H3780 H 0.0782 0.43311 0.53447 0.0
H3781 H 0.07927 0.43071 0.48356 0.0
H3782 H 0.13883 0.46309 0.4858 0.0
H3783 H 0.1379 0.46556 0.53655 0.0
H3784 H 0.09539 0.45959 0.44236 0.0
H3785 H 0.12806 0.41566 0.44256 0.0
H3786 H 0.11714 0.41868 0.47307 0.0
H3787 H 0.13993 0.43646 0.46299 0.0
C3788 C 0.09152 0.43976 0.52413 0.0
C3789 C 0.10796 0.44947 0.53965 0.0
C3790 C 0.09211 0.43837 0.49501 0.0
C3791 C 0.10914 0.44648 0.48087 0.0
C3792 C 0.12554 0.45645 0.49627 0.0
H3793 H 0.13245 0.47012 0.30403 0.0
H3794 H 0.1305 0.47145 0.35484 0.0
C3795 C 0.12497 0.45793 0.52531 0.0
C3796 C 0.10981 0.44465 0.45002 0.0
H3797 H 0.12563 0.42753 0.39873 0.0
C3798 C 0.10196 0.45253 0.43282 0.0
C3799 C 0.11819 0.43527 0.43754 0.0
C3800 C 0.12618 0.42587 0.45493 0.0
C3801 C 0.10263 0.45165 0.40355 0.0
C3802 C 0.11151 0.44275 0.39107 0.0
C3803 C 0.11898 0.4345 0.40827 0.0
C3804 C 0.11313 0.44186 0.36021 0.0
C3805 C 0.09366 0.46009 0.38617 0.0
C3806 C 0.10443 0.42474 0.3463 0.0
C3807 C 0.10553 0.42393 0.31718 0.0
C3808 C 0.11552 0.44022 0.30139 0.0
C3809 C 0.1246 0.4573 0.31548 0.0
C3810 C 0.12341 0.4581 0.34456 0.0
H3811 H 0.08379 0.46246 0.39857 0.0
H3812 H 0.10453 0.47364 0.37792 0.0
H3813 H 0.08619 0.45107 0.36814 0.0
H3814 H 0.09651 0.41202 0.35795 0.0
H3815 H 0.09839 0.41054 0.30703 0.0
H3816 H 0.5913 0.68987 0.30951 0.0
H3817 H 0.59042 0.68635 0.36043 0.0
H3818 H 0.53083 0.6586 0.35861 0.0
H3819 H 0.53156 0.662 0.30793 0.0
H3820 H 0.5743 0.6985 0.40228 0.0
H3821 H 0.54202 0.62199 0.40067 0.0
H3822 H 0.55271 0.63618 0.37029 0.0
H3823 H 0.52986 0.63078 0.38071 0.0
C3824 C 0.57801 0.6831 0.31997 0.0
C3825 C 0.5615 0.67616 0.30458 0.0
C3826 C 0.57753 0.68108 0.34908 0.0
C3827 C 0.56054 0.67193 0.36331 0.0
C3828 C 0.54408 0.66539 0.34806 0.0
H3829 H 0.53581 0.67123 0.53917 0.0
H3830 H 0.53867 0.67499 0.4885 0.0
C3831 C 0.54455 0.66747 0.31905 0.0
C3832 C 0.55994 0.66921 0.39409 0.0
H3833 H 0.54376 0.63584 0.44474 0.0
C3834 C 0.5677 0.68481 0.41156 0.0
C3835 C 0.55153 0.65134 0.40624 0.0
C3836 C 0.54369 0.63409 0.38856 0.0
C3837 C 0.56683 0.68301 0.4408 0.0
C3838 C 0.55781 0.66513 0.45294 0.0
C3839 C 0.55051 0.64954 0.43547 0.0
C3840 C 0.55569 0.66235 0.48371 0.0
C3841 C 0.5757 0.70028 0.45849 0.0
C3842 C 0.56384 0.65347 0.49788 0.0
C3843 C 0.56219 0.65125 0.52694 0.0
C3844 C 0.5522 0.6577 0.54238 0.0
C3845 C 0.54366 0.66614 0.52799 0.0
C3846 C 0.54538 0.66843 0.49901 0.0
H3847 H 0.58592 0.71254 0.44643 0.0
H3848 H 0.56483 0.70313 0.46618 0.0
H3849 H 0.58275 0.69848 0.47686 0.0
H3850 H 0.57176 0.64855 0.4865 0.0
H3851 H 0.56892 0.64467 0.53733 0.0
H3852 H 0.33968 0.86924 0.31278 0.0
H3853 H 0.34238 0.87088 0.36363 0.0
H3854 H 0.31498 0.90305 0.3664 0.0
H3855 H 0.31217 0.90146 0.31541 0.0
H3856 H 0.36078 0.90353 0.3968 0.0
H3857 H 0.28621 0.86108 0.42383 0.0
H3858 H 0.29507 0.86067 0.38963 0.0
H3859 H 0.29197 0.87968 0.39969 0.0
C3860 C 0.33406 0.87654 0.32418 0.0
C3861 C 0.32564 0.88517 0.30999 0.0
C3862 C 0.33568 0.8775 0.35327 0.0
C3863 C 0.32877 0.88696 0.36888 0.0
C3864 C 0.32019 0.89546 0.35484 0.0
H3865 H 0.35498 0.92322 0.54255 0.0
H3866 H 0.35196 0.92193 0.49161 0.0
C3867 C 0.31864 0.89457 0.32567 0.0
C3868 C 0.33105 0.88833 0.39974 0.0
H3869 H 0.30704 0.8758 0.46119 0.0
C3870 C 0.34903 0.89749 0.41089 0.0
C3871 C 0.31573 0.8803 0.4181 0.0
C3872 C 0.29613 0.86973 0.40733 0.0
C3873 C 0.35209 0.89896 0.43987 0.0
C3874 C 0.33676 0.89117 0.45824 0.0
C3875 C 0.31878 0.88188 0.44709 0.0
C3876 C 0.33908 0.89211 0.48909 0.0
C3877 C 0.37171 0.9085 0.45063 0.0
C3878 C 0.33273 0.87579 0.50467 0.0
C3879 C 0.33447 0.87648 0.53375 0.0
C3880 C 0.34246 0.89353 0.54795 0.0
C3881 C 0.34886 0.90988 0.53229 0.0
C3882 C 0.34719 0.90917 0.50315 0.0
H3883 H 0.38175 0.91013 0.4341 0.0
H3884 H 0.37544 0.92249 0.45833 0.0
H3885 H 0.37309 0.90066 0.46828 0.0
H3886 H 0.32639 0.86247 0.49429 0.0
H3887 H 0.32932 0.86361 0.54513 0.0
loop_
_geom_bond_atom_site_label_1
_geom_bond_atom_site_label_2
_geom_bond_distance
_geom_bond_site_symmetry_2
_ccdc_geom_bond_type
Mn0 O5 2.095 . S
Mn0 O15 2.162 . S
Mn0 O16 2.297 . S
Mn0 O24 2.385 . S
Mn0 O25 2.209 . S
Mn0 O26 2.094 . S
Mn1 O6 2.121 1_556 S
Mn1 N8 2.257 . S
Mn1 N17 2.282 . S
Mn1 O25 2.215 1_556 S
Mn1 O27 2.117 . S
C2 O24 1.234 . S
C2 O25 1.283 . S
C3 O15 1.281 . S
C3 O16 1.236 . S
C4 O26 1.240 . S
C4 O27 1.264 1_554 S
O5 Mn0 2.095 . S
O5 C14 1.250 . S
O6 Mn1 2.121 1_554 S
O6 C14 1.258 . S
C7 N8 1.326 . S
C7 C11 1.460 . S
C7 H13 0.929 . S
N8 Mn1 2.257 . S
N8 C7 1.326 . S
N8 C12 1.362 . S
C9 C10 1.258 . S
C9 C12 1.431 . S
C9 C29 1.449 . S
C10 C9 1.258 . S
C10 C11 1.477 . S
C10 H30 0.931 . S
C11 C7 1.460 . S
C11 C10 1.477 . S
C11 H31 0.930 . S
C12 N8 1.362 . S
C12 C9 1.431 . S
C12 C22 1.476 . S
H13 C7 0.929 . S
C14 O5 1.250 . S
C14 O6 1.258 . S
O15 Mn0 2.162 . S
O15 C3 1.281 . S
O16 Mn0 2.297 . S
O16 C3 1.236 . S
N17 Mn1 2.282 . S
N17 C18 1.328 . S
N17 C22 1.318 . S
C18 N17 1.328 . S
C18 C19 1.457 . S
C18 H23 0.929 . S
C19 C18 1.457 . S
C19 C20 1.291 . S
C19 H32 0.931 . S
C20 C19 1.291 . S
C20 C21 1.373 . S
C20 H33 0.929 . S
C21 C20 1.373 . S
C21 C22 1.396 . S
C21 C28 1.403 . S
C22 C12 1.476 . S
C22 N17 1.318 . S
C22 C21 1.396 . S
H23 C18 0.929 . S
O24 Mn0 2.385 . S
O24 C2 1.234 . S
O25 Mn0 2.209 . S
O25 Mn1 2.215 1_554 S
O25 C2 1.283 . S
O26 Mn0 2.094 . S
O26 C4 1.240 . S
O27 Mn1 2.117 . S
O27 C4 1.264 1_556 S
C28 C21 1.403 . S
C28 C29 1.399 . S
C28 H34 0.929 . S
C29 C9 1.449 . S
C29 C28 1.399 . S
C29 H35 0.930 . S
H30 C10 0.931 . S
H31 C11 0.930 . S
H32 C19 0.931 . S
H33 C20 0.929 . S
H34 C28 0.929 . S
H35 C29 0.930 . S
Mn36 O41 2.095 . S
Mn36 O51 2.162 . S
Mn36 O52 2.297 . S
Mn36 O60 2.385 1_545 S
Mn36 O61 2.209 . S
Mn36 O62 2.094 . S
Mn37 O42 2.121 1_556 S
Mn37 N44 2.257 . S
Mn37 N53 2.282 1_545 S
Mn37 O61 2.215 1_556 S
Mn37 O63 2.117 . S
C38 O60 1.234 . S
C38 O61 1.283 1_565 S
C39 O51 1.281 . S
C39 O52 1.236 . S
C40 O62 1.240 . S
C40 O63 1.264 1_554 S
O41 Mn36 2.095 . S
O41 C50 1.250 . S
O42 Mn37 2.121 1_554 S
O42 C50 1.258 . S
C43 N44 1.326 . S
C43 C47 1.460 . S
C43 H49 0.929 . S
N44 Mn37 2.257 . S
N44 C43 1.326 . S
N44 C48 1.362 1_545 S
C45 C46 1.258 . S
C45 C48 1.431 . S
C45 C65 1.449 . S
C46 C45 1.258 . S
C46 C47 1.477 1_565 S
C46 H66 0.931 . S
C47 C43 1.460 . S
C47 C46 1.477 1_545 S
C47 H67 0.930 . S
C48 N44 1.362 1_565 S
C48 C45 1.431 . S
C48 C58 1.476 . S
H49 C43 0.929 . S
C50 O41 1.250 . S
C50 O42 1.258 . S
O51 Mn36 2.162 . S
O51 C39 1.281 . S
O52 Mn36 2.297 . S
O52 C39 1.236 . S
N53 Mn37 2.282 1_565 S
N53 C54 1.328 . S
N53 C58 1.318 . S
C54 N53 1.328 . S
C54 C55 1.457 . S
C54 H59 0.929 . S
C55 C54 1.457 . S
C55 C56 1.291 . S
C55 H68 0.931 . S
C56 C55 1.291 . S
C56 C57 1.373 . S
C56 H69 0.929 . S
C57 C56 1.373 . S
C57 C58 1.396 . S
C57 C64 1.403 . S
C58 C48 1.476 . S
C58 N53 1.318 . S
C58 C57 1.396 . S
H59 C54 0.929 . S
O60 Mn36 2.385 1_565 S
O60 C38 1.234 . S
O61 Mn36 2.209 . S
O61 Mn37 2.215 1_554 S
O61 C38 1.283 1_545 S
O62 Mn36 2.094 . S
O62 C40 1.240 . S
O63 Mn37 2.117 . S
O63 C40 1.264 1_556 S
C64 C57 1.403 . S
C64 C65 1.399 . S
C64 H70 0.929 . S
C65 C45 1.449 . S
C65 C64 1.399 . S
C65 H71 0.930 . S
H66 C46 0.931 . S
H67 C47 0.930 . S
H68 C55 0.931 . S
H69 C56 0.929 . S
H70 C64 0.929 . S
H71 C65 0.930 . S
Mn72 O77 2.095 . S
Mn72 O87 2.162 . S
Mn72 O88 2.297 . S
Mn72 O96 2.385 1_655 S
Mn72 O97 2.209 . S
Mn72 O98 2.094 . S
Mn73 O78 2.121 1_556 S
Mn73 N80 2.257 . S
Mn73 N89 2.282 1_655 S
Mn73 O97 2.215 1_556 S
Mn73 O99 2.117 . S
C74 O96 1.234 . S
C74 O97 1.283 1_455 S
C75 O87 1.281 . S
C75 O88 1.236 . S
C76 O98 1.240 . S
C76 O99 1.264 1_554 S
O77 Mn72 2.095 . S
O77 C86 1.250 . S
O78 Mn73 2.121 1_554 S
O78 C86 1.258 . S
C79 N80 1.326 . S
C79 C83 1.460 . S
C79 H85 0.929 . S
N80 Mn73 2.257 . S
N80 C79 1.326 . S
N80 C84 1.362 1_655 S
C81 C82 1.258 . S
C81 C84 1.431 . S
C81 C101 1.449 . S
C82 C81 1.258 . S
C82 C83 1.477 1_455 S
C82 H102 0.931 . S
C83 C79 1.460 . S
C83 C82 1.477 1_655 S
C83 H103 0.930 . S
C84 N80 1.362 1_455 S
C84 C81 1.431 . S
C84 C94 1.476 . S
H85 C79 0.929 . S
C86 O77 1.250 . S
C86 O78 1.258 . S
O87 Mn72 2.162 . S
O87 C75 1.281 . S
O88 Mn72 2.297 . S
O88 C75 1.236 . S
N89 Mn73 2.282 1_455 S
N89 C90 1.328 . S
N89 C94 1.318 . S
C90 N89 1.328 . S
C90 C91 1.457 . S
C90 H95 0.929 . S
C91 C90 1.457 . S
C91 C92 1.291 . S
C91 H104 0.931 . S
C92 C91 1.291 . S
C92 C93 1.373 . S
C92 H105 0.929 . S
C93 C92 1.373 . S
C93 C94 1.396 . S
C93 C100 1.403 . S
C94 C84 1.476 . S
C94 N89 1.318 . S
C94 C93 1.396 . S
H95 C90 0.929 . S
O96 Mn72 2.385 1_455 S
O96 C74 1.234 . S
O97 Mn72 2.209 . S
O97 Mn73 2.215 1_554 S
O97 C74 1.283 1_655 S
O98 Mn72 2.094 . S
O98 C76 1.240 . S
O99 Mn73 2.117 . S
O99 C76 1.264 1_556 S
C100 C93 1.403 . S
C100 C101 1.399 . S
C100 H106 0.929 . S
C101 C81 1.449 . S
C101 C100 1.399 . S
C101 H107 0.930 . S
H102 C82 0.931 . S
H103 C83 0.930 . S
H104 C91 0.931 . S
H105 C92 0.929 . S
H106 C100 0.929 . S
H107 C101 0.930 . S
Mn108 O113 2.095 . S
Mn108 O123 2.162 . S
Mn108 O124 2.297 . S
Mn108 O132 2.385 . S
Mn108 O133 2.209 . S
Mn108 O134 2.094 . S
Mn109 O114 2.121 . S
Mn109 N116 2.257 . S
Mn109 N125 2.282 . S
Mn109 O133 2.215 . S
Mn109 O135 2.117 . S
C110 O132 1.234 . S
C110 O133 1.283 . S
C111 O123 1.281 . S
C111 O124 1.236 . S
C112 O134 1.240 . S
C112 O135 1.264 . S
O113 Mn108 2.095 . S
O113 C122 1.250 . S
O114 Mn109 2.121 . S
O114 C122 1.258 . S
C115 N116 1.326 . S
C115 C119 1.460 . S
C115 H121 0.929 . S
N116 Mn109 2.257 . S
N116 C115 1.326 . S
N116 C120 1.362 . S
C117 C118 1.258 . S
C117 C120 1.431 . S
C117 C137 1.449 . S
C118 C117 1.258 . S
C118 C119 1.477 . S
C118 H138 0.931 . S
C119 C115 1.460 . S
C119 C118 1.477 . S
C119 H139 0.930 . S
C120 N116 1.362 . S
C120 C117 1.431 . S
C120 C130 1.476 . S
H121 C115 0.929 . S
C122 O113 1.250 . S
C122 O114 1.258 . S
O123 Mn108 2.162 . S
O123 C111 1.281 . S
O124 Mn108 2.297 . S
O124 C111 1.236 . S
N125 Mn109 2.282 . S
N125 C126 1.328 . S
N125 C130 1.318 . S
C126 N125 1.328 . S
C126 C127 1.457 . S
C126 H131 0.929 . S
C127 C126 1.457 . S
C127 C128 1.291 . S
C127 H140 0.931 . S
C128 C127 1.291 . S
C128 C129 1.373 . S
C128 H141 0.929 . S
C129 C128 1.373 . S
C129 C130 1.396 . S
C129 C136 1.403 . S
C130 C120 1.476 . S
C130 N125 1.318 . S
C130 C129 1.396 . S
H131 C126 0.929 . S
O132 Mn108 2.385 . S
O132 C110 1.234 . S
O133 Mn108 2.209 . S
O133 Mn109 2.215 . S
O133 C110 1.283 . S
O134 Mn108 2.094 . S
O134 C112 1.240 . S
O135 Mn109 2.117 . S
O135 C112 1.264 . S
C136 C129 1.403 . S
C136 C137 1.399 . S
C136 H142 0.929 . S
C137 C117 1.449 . S
C137 C136 1.399 . S
C137 H143 0.930 . S
H138 C118 0.931 . S
H139 C119 0.930 . S
H140 C127 0.931 . S
H141 C128 0.929 . S
H142 C136 0.929 . S
H143 C137 0.930 . S
Mn144 O149 2.095 . S
Mn144 O159 2.162 . S
Mn144 O160 2.297 . S
Mn144 O168 2.385 1_565 S
Mn144 O169 2.209 . S
Mn144 O170 2.094 . S
Mn145 O150 2.121 . S
Mn145 N152 2.257 . S
Mn145 N161 2.282 1_565 S
Mn145 O169 2.215 . S
Mn145 O171 2.117 . S
C146 O168 1.234 . S
C146 O169 1.283 1_545 S
C147 O159 1.281 . S
C147 O160 1.236 . S
C148 O170 1.240 . S
C148 O171 1.264 . S
O149 Mn144 2.095 . S
O149 C158 1.250 . S
O150 Mn145 2.121 . S
O150 C158 1.258 . S
C151 N152 1.326 . S
C151 C155 1.460 . S
C151 H157 0.929 . S
N152 Mn145 2.257 . S
N152 C151 1.326 . S
N152 C156 1.362 1_565 S
C153 C154 1.258 . S
C153 C156 1.431 . S
C153 C173 1.449 . S
C154 C153 1.258 . S
C154 C155 1.477 1_545 S
C154 H174 0.931 . S
C155 C151 1.460 . S
C155 C154 1.477 1_565 S
C155 H175 0.930 . S
C156 N152 1.362 1_545 S
C156 C153 1.431 . S
C156 C166 1.476 . S
H157 C151 0.929 . S
C158 O149 1.250 . S
C158 O150 1.258 . S
O159 Mn144 2.162 . S
O159 C147 1.281 . S
O160 Mn144 2.297 . S
O160 C147 1.236 . S
N161 Mn145 2.282 1_545 S
N161 C162 1.328 . S
N161 C166 1.318 . S
C162 N161 1.328 . S
C162 C163 1.457 . S
C162 H167 0.929 . S
C163 C162 1.457 . S
C163 C164 1.291 . S
C163 H176 0.931 . S
C164 C163 1.291 . S
C164 C165 1.373 . S
C164 H177 0.929 . S
C165 C164 1.373 . S
C165 C166 1.396 . S
C165 C172 1.403 . S
C166 C156 1.476 . S
C166 N161 1.318 . S
C166 C165 1.396 . S
H167 C162 0.929 . S
O168 Mn144 2.385 1_545 S
O168 C146 1.234 . S
O169 Mn144 2.209 . S
O169 Mn145 2.215 . S
O169 C146 1.283 1_565 S
O170 Mn144 2.094 . S
O170 C148 1.240 . S
O171 Mn145 2.117 . S
O171 C148 1.264 . S
C172 C165 1.403 . S
C172 C173 1.399 . S
C172 H178 0.929 . S
C173 C153 1.449 . S
C173 C172 1.399 . S
C173 H179 0.930 . S
H174 C154 0.931 . S
H175 C155 0.930 . S
H176 C163 0.931 . S
H177 C164 0.929 . S
H178 C172 0.929 . S
H179 C173 0.930 . S
Mn180 O185 2.095 . S
Mn180 O195 2.162 . S
Mn180 O196 2.297 . S
Mn180 O204 2.385 1_455 S
Mn180 O205 2.209 . S
Mn180 O206 2.094 . S
Mn181 O186 2.121 . S
Mn181 N188 2.257 . S
Mn181 N197 2.282 1_455 S
Mn181 O205 2.215 . S
Mn181 O207 2.117 . S
C182 O204 1.234 . S
C182 O205 1.283 1_655 S
C183 O195 1.281 . S
C183 O196 1.236 . S
C184 O206 1.240 . S
C184 O207 1.264 . S
O185 Mn180 2.095 . S
O185 C194 1.250 . S
O186 Mn181 2.121 . S
O186 C194 1.258 . S
C187 N188 1.326 . S
C187 C191 1.460 . S
C187 H193 0.929 . S
N188 Mn181 2.257 . S
N188 C187 1.326 . S
N188 C192 1.362 1_455 S
C189 C190 1.258 . S
C189 C192 1.431 . S
C189 C209 1.449 . S
C190 C189 1.258 . S
C190 C191 1.477 1_655 S
C190 H210 0.931 . S
C191 C187 1.460 . S
C191 C190 1.477 1_455 S
C191 H211 0.930 . S
C192 N188 1.362 1_655 S
C192 C189 1.431 . S
C192 C202 1.476 . S
H193 C187 0.929 . S
C194 O185 1.250 . S
C194 O186 1.258 . S
O195 Mn180 2.162 . S
O195 C183 1.281 . S
O196 Mn180 2.297 . S
O196 C183 1.236 . S
N197 Mn181 2.282 1_655 S
N197 C198 1.328 . S
N197 C202 1.318 . S
C198 N197 1.328 . S
C198 C199 1.457 . S
C198 H203 0.929 . S
C199 C198 1.457 . S
C199 C200 1.291 . S
C199 H212 0.931 . S
C200 C199 1.291 . S
C200 C201 1.373 . S
C200 H213 0.929 . S
C201 C200 1.373 . S
C201 C202 1.396 . S
C201 C208 1.403 . S
C202 C192 1.476 . S
C202 N197 1.318 . S
C202 C201 1.396 . S
H203 C198 0.929 . S
O204 Mn180 2.385 1_655 S
O204 C182 1.234 . S
O205 Mn180 2.209 . S
O205 Mn181 2.215 . S
O205 C182 1.283 1_455 S
O206 Mn180 2.094 . S
O206 C184 1.240 . S
O207 Mn181 2.117 . S
O207 C184 1.264 . S
C208 C201 1.403 . S
C208 C209 1.399 . S
C208 H214 0.929 . S
C209 C189 1.449 . S
C209 C208 1.399 . S
C209 H215 0.930 . S
H210 C190 0.931 . S
H211 C191 0.930 . S
H212 C199 0.931 . S
H213 C200 0.929 . S
H214 C208 0.929 . S
H215 C209 0.930 . S
Mn216 O221 2.095 . S
Mn216 O231 2.162 . S
Mn216 O232 2.297 . S
Mn216 O240 2.385 . S
Mn216 O241 2.209 . S
Mn216 O242 2.094 . S
Mn217 O222 2.121 1_554 S
Mn217 N224 2.257 . S
Mn217 N233 2.282 . S
Mn217 O241 2.215 1_554 S
Mn217 O243 2.117 . S
C218 O240 1.234 . S
C218 O241 1.283 . S
C219 O231 1.281 . S
C219 O232 1.236 . S
C220 O242 1.240 . S
C220 O243 1.264 1_556 S
O221 Mn216 2.095 . S
O221 C230 1.250 . S
O222 Mn217 2.121 1_556 S
O222 C230 1.258 . S
C223 N224 1.326 . S
C223 C227 1.460 . S
C223 H229 0.929 . S
N224 Mn217 2.257 . S
N224 C223 1.326 . S
N224 C228 1.362 . S
C225 C226 1.258 . S
C225 C228 1.431 . S
C225 C245 1.449 . S
C226 C225 1.258 . S
C226 C227 1.477 . S
C226 H246 0.931 . S
C227 C223 1.460 . S
C227 C226 1.477 . S
C227 H247 0.930 . S
C228 N224 1.362 . S
C228 C225 1.431 . S
C228 C238 1.476 . S
H229 C223 0.929 . S
C230 O221 1.250 . S
C230 O222 1.258 . S
O231 Mn216 2.162 . S
O231 C219 1.281 . S
O232 Mn216 2.297 . S
O232 C219 1.236 . S
N233 Mn217 2.282 . S
N233 C234 1.328 . S
N233 C238 1.318 . S
C234 N233 1.328 . S
C234 C235 1.457 . S
C234 H239 0.929 . S
C235 C234 1.457 . S
C235 C236 1.291 . S
C235 H248 0.931 . S
C236 C235 1.291 . S
C236 C237 1.373 . S
C236 H249 0.929 . S
C237 C236 1.373 . S
C237 C238 1.396 . S
C237 C244 1.403 . S
C238 C228 1.476 . S
C238 N233 1.318 . S
C238 C237 1.396 . S
H239 C234 0.929 . S
O240 Mn216 2.385 . S
O240 C218 1.234 . S
O241 Mn216 2.209 . S
O241 Mn217 2.215 1_556 S
O241 C218 1.283 . S
O242 Mn216 2.094 . S
O242 C220 1.240 . S
O243 Mn217 2.117 . S
O243 C220 1.264 1_554 S
C244 C237 1.403 . S
C244 C245 1.399 . S
C244 H250 0.929 . S
C245 C225 1.449 . S
C245 C244 1.399 . S
C245 H251 0.930 . S
H246 C226 0.931 . S
H247 C227 0.930 . S
H248 C235 0.931 . S
H249 C236 0.929 . S
H250 C244 0.929 . S
H251 C245 0.930 . S
Mn252 O257 2.095 . S
Mn252 O267 2.162 . S
Mn252 O268 2.297 . S
Mn252 O276 2.385 1_565 S
Mn252 O277 2.209 . S
Mn252 O278 2.094 . S
Mn253 O258 2.121 1_554 S
Mn253 N260 2.257 . S
Mn253 N269 2.282 1_565 S
Mn253 O277 2.215 1_554 S
Mn253 O279 2.117 . S
C254 O276 1.234 . S
C254 O277 1.283 1_545 S
C255 O267 1.281 . S
C255 O268 1.236 . S
C256 O278 1.240 . S
C256 O279 1.264 1_556 S
O257 Mn252 2.095 . S
O257 C266 1.250 . S
O258 Mn253 2.121 1_556 S
O258 C266 1.258 . S
C259 N260 1.326 . S
C259 C263 1.460 . S
C259 H265 0.929 . S
N260 Mn253 2.257 . S
N260 C259 1.326 . S
N260 C264 1.362 1_565 S
C261 C262 1.258 . S
C261 C264 1.431 . S
C261 C281 1.449 . S
C262 C261 1.258 . S
C262 C263 1.477 1_545 S
C262 H282 0.931 . S
C263 C259 1.460 . S
C263 C262 1.477 1_565 S
C263 H283 0.930 . S
C264 N260 1.362 1_545 S
C264 C261 1.431 . S
C264 C274 1.476 . S
H265 C259 0.929 . S
C266 O257 1.250 . S
C266 O258 1.258 . S
O267 Mn252 2.162 . S
O267 C255 1.281 . S
O268 Mn252 2.297 . S
O268 C255 1.236 . S
N269 Mn253 2.282 1_545 S
N269 C270 1.328 . S
N269 C274 1.318 . S
C270 N269 1.328 . S
C270 C271 1.457 . S
C270 H275 0.929 . S
C271 C270 1.457 . S
C271 C272 1.291 . S
C271 H284 0.931 . S
C272 C271 1.291 . S
C272 C273 1.373 . S
C272 H285 0.929 . S
C273 C272 1.373 . S
C273 C274 1.396 . S
C273 C280 1.403 . S
C274 C264 1.476 . S
C274 N269 1.318 . S
C274 C273 1.396 . S
H275 C270 0.929 . S
O276 Mn252 2.385 1_545 S
O276 C254 1.234 . S
O277 Mn252 2.209 . S
O277 Mn253 2.215 1_556 S
O277 C254 1.283 1_565 S
O278 Mn252 2.094 . S
O278 C256 1.240 . S
O279 Mn253 2.117 . S
O279 C256 1.264 1_554 S
C280 C273 1.403 . S
C280 C281 1.399 . S
C280 H286 0.929 . S
C281 C261 1.449 . S
C281 C280 1.399 . S
C281 H287 0.930 . S
H282 C262 0.931 . S
H283 C263 0.930 . S
H284 C271 0.931 . S
H285 C272 0.929 . S
H286 C280 0.929 . S
H287 C281 0.930 . S
Mn288 O293 2.095 . S
Mn288 O303 2.162 . S
Mn288 O304 2.297 . S
Mn288 O312 2.385 1_455 S
Mn288 O313 2.209 . S
Mn288 O314 2.094 . S
Mn289 O294 2.121 1_554 S
Mn289 N296 2.257 . S
Mn289 N305 2.282 1_455 S
Mn289 O313 2.215 1_554 S
Mn289 O315 2.117 . S
C290 O312 1.234 . S
C290 O313 1.283 1_655 S
C291 O303 1.281 . S
C291 O304 1.236 . S
C292 O314 1.240 . S
C292 O315 1.264 1_556 S
O293 Mn288 2.095 . S
O293 C302 1.250 . S
O294 Mn289 2.121 1_556 S
O294 C302 1.258 . S
C295 N296 1.326 . S
C295 C299 1.460 . S
C295 H301 0.929 . S
N296 Mn289 2.257 . S
N296 C295 1.326 . S
N296 C300 1.362 1_455 S
C297 C298 1.258 . S
C297 C300 1.431 . S
C297 C317 1.449 . S
C298 C297 1.258 . S
C298 C299 1.477 1_655 S
C298 H318 0.931 . S
C299 C295 1.460 . S
C299 C298 1.477 1_455 S
C299 H319 0.930 . S
C300 N296 1.362 1_655 S
C300 C297 1.431 . S
C300 C310 1.476 . S
H301 C295 0.929 . S
C302 O293 1.250 . S
C302 O294 1.258 . S
O303 Mn288 2.162 . S
O303 C291 1.281 . S
O304 Mn288 2.297 . S
O304 C291 1.236 . S
N305 Mn289 2.282 1_655 S
N305 C306 1.328 . S
N305 C310 1.318 . S
C306 N305 1.328 . S
C306 C307 1.457 . S
C306 H311 0.929 . S
C307 C306 1.457 . S
C307 C308 1.291 . S
C307 H320 0.931 . S
C308 C307 1.291 . S
C308 C309 1.373 . S
C308 H321 0.929 . S
C309 C308 1.373 . S
C309 C310 1.396 . S
C309 C316 1.403 . S
C310 C300 1.476 . S
C310 N305 1.318 . S
C310 C309 1.396 . S
H311 C306 0.929 . S
O312 Mn288 2.385 1_655 S
O312 C290 1.234 . S
O313 Mn288 2.209 . S
O313 Mn289 2.215 1_556 S
O313 C290 1.283 1_455 S
O314 Mn288 2.094 . S
O314 C292 1.240 . S
O315 Mn289 2.117 . S
O315 C292 1.264 1_554 S
C316 C309 1.403 . S
C316 C317 1.399 . S
C316 H322 0.929 . S
C317 C297 1.449 . S
C317 C316 1.399 . S
C317 H323 0.930 . S
H318 C298 0.931 . S
H319 C299 0.930 . S
H320 C307 0.931 . S
H321 C308 0.929 . S
H322 C316 0.929 . S
H323 C317 0.930 . S
Mn324 O329 2.095 . S
Mn324 O339 2.162 . S
Mn324 O340 2.297 . S
Mn324 O348 2.385 . S
Mn324 O349 2.209 . S
Mn324 O350 2.094 . S
Mn325 O330 2.121 . S
Mn325 N332 2.257 . S
Mn325 N341 2.282 . S
Mn325 O349 2.215 . S
Mn325 O351 2.117 . S
C326 O348 1.234 . S
C326 O349 1.283 . S
C327 O339 1.281 . S
C327 O340 1.236 . S
C328 O350 1.240 . S
C328 O351 1.264 . S
O329 Mn324 2.095 . S
O329 C338 1.250 . S
O330 Mn325 2.121 . S
O330 C338 1.258 . S
C331 N332 1.326 . S
C331 C335 1.460 . S
C331 H337 0.929 . S
N332 Mn325 2.257 . S
N332 C331 1.326 . S
N332 C336 1.362 . S
C333 C334 1.258 . S
C333 C336 1.431 . S
C333 C353 1.449 . S
C334 C333 1.258 . S
C334 C335 1.477 . S
C334 H354 0.931 . S
C335 C331 1.460 . S
C335 C334 1.477 . S
C335 H355 0.930 . S
C336 N332 1.362 . S
C336 C333 1.431 . S
C336 C346 1.476 . S
H337 C331 0.929 . S
C338 O329 1.250 . S
C338 O330 1.258 . S
O339 Mn324 2.162 . S
O339 C327 1.281 . S
O340 Mn324 2.297 . S
O340 C327 1.236 . S
N341 Mn325 2.282 . S
N341 C342 1.328 . S
N341 C346 1.318 . S
C342 N341 1.328 . S
C342 C343 1.457 . S
C342 H347 0.929 . S
C343 C342 1.457 . S
C343 C344 1.291 . S
C343 H356 0.931 . S
C344 C343 1.291 . S
C344 C345 1.373 . S
C344 H357 0.929 . S
C345 C344 1.373 . S
C345 C346 1.396 . S
C345 C352 1.403 . S
C346 C336 1.476 . S
C346 N341 1.318 . S
C346 C345 1.396 . S
H347 C342 0.929 . S
O348 Mn324 2.385 . S
O348 C326 1.234 . S
O349 Mn324 2.209 . S
O349 Mn325 2.215 . S
O349 C326 1.283 . S
O350 Mn324 2.094 . S
O350 C328 1.240 . S
O351 Mn325 2.117 . S
O351 C328 1.264 . S
C352 C345 1.403 . S
C352 C353 1.399 . S
C352 H358 0.929 . S
C353 C333 1.449 . S
C353 C352 1.399 . S
C353 H359 0.930 . S
H354 C334 0.931 . S
H355 C335 0.930 . S
H356 C343 0.931 . S
H357 C344 0.929 . S
H358 C352 0.929 . S
H359 C353 0.930 . S
Mn360 O365 2.095 . S
Mn360 O375 2.162 . S
Mn360 O376 2.297 . S
Mn360 O384 2.385 1_545 S
Mn360 O385 2.209 . S
Mn360 O386 2.094 . S
Mn361 O366 2.121 . S
Mn361 N368 2.257 . S
Mn361 N377 2.282 1_545 S
Mn361 O385 2.215 . S
Mn361 O387 2.117 . S
C362 O384 1.234 . S
C362 O385 1.283 1_565 S
C363 O375 1.281 . S
C363 O376 1.236 . S
C364 O386 1.240 . S
C364 O387 1.264 . S
O365 Mn360 2.095 . S
O365 C374 1.250 . S
O366 Mn361 2.121 . S
O366 C374 1.258 . S
C367 N368 1.326 . S
C367 C371 1.460 . S
C367 H373 0.929 . S
N368 Mn361 2.257 . S
N368 C367 1.326 . S
N368 C372 1.362 1_545 S
C369 C370 1.258 . S
C369 C372 1.431 . S
C369 C389 1.449 . S
C370 C369 1.258 . S
C370 C371 1.477 1_565 S
C370 H390 0.931 . S
C371 C367 1.460 . S
C371 C370 1.477 1_545 S
C371 H391 0.930 . S
C372 N368 1.362 1_565 S
C372 C369 1.431 . S
C372 C382 1.476 . S
H373 C367 0.929 . S
C374 O365 1.250 . S
C374 O366 1.258 . S
O375 Mn360 2.162 . S
O375 C363 1.281 . S
O376 Mn360 2.297 . S
O376 C363 1.236 . S
N377 Mn361 2.282 1_565 S
N377 C378 1.328 . S
N377 C382 1.318 . S
C378 N377 1.328 . S
C378 C379 1.457 . S
C378 H383 0.929 . S
C379 C378 1.457 . S
C379 C380 1.291 . S
C379 H392 0.931 . S
C380 C379 1.291 . S
C380 C381 1.373 . S
C380 H393 0.929 . S
C381 C380 1.373 . S
C381 C382 1.396 . S
C381 C388 1.403 . S
C382 C372 1.476 . S
C382 N377 1.318 . S
C382 C381 1.396 . S
H383 C378 0.929 . S
O384 Mn360 2.385 1_565 S
O384 C362 1.234 . S
O385 Mn360 2.209 . S
O385 Mn361 2.215 . S
O385 C362 1.283 1_545 S
O386 Mn360 2.094 . S
O386 C364 1.240 . S
O387 Mn361 2.117 . S
O387 C364 1.264 . S
C388 C381 1.403 . S
C388 C389 1.399 . S
C388 H394 0.929 . S
C389 C369 1.449 . S
C389 C388 1.399 . S
C389 H395 0.930 . S
H390 C370 0.931 . S
H391 C371 0.930 . S
H392 C379 0.931 . S
H393 C380 0.929 . S
H394 C388 0.929 . S
H395 C389 0.930 . S
Mn396 O401 2.095 . S
Mn396 O411 2.162 . S
Mn396 O412 2.297 . S
Mn396 O420 2.385 1_655 S
Mn396 O421 2.209 . S
Mn396 O422 2.094 . S
Mn397 O402 2.121 . S
Mn397 N404 2.257 . S
Mn397 N413 2.282 1_655 S
Mn397 O421 2.215 . S
Mn397 O423 2.117 . S
C398 O420 1.234 . S
C398 O421 1.283 1_455 S
C399 O411 1.281 . S
C399 O412 1.236 . S
C400 O422 1.240 . S
C400 O423 1.264 . S
O401 Mn396 2.095 . S
O401 C410 1.250 . S
O402 Mn397 2.121 . S
O402 C410 1.258 . S
C403 N404 1.326 . S
C403 C407 1.460 . S
C403 H409 0.929 . S
N404 Mn397 2.257 . S
N404 C403 1.326 . S
N404 C408 1.362 1_655 S
C405 C406 1.258 . S
C405 C408 1.431 . S
C405 C425 1.449 . S
C406 C405 1.258 . S
C406 C407 1.477 1_455 S
C406 H426 0.931 . S
C407 C403 1.460 . S
C407 C406 1.477 1_655 S
C407 H427 0.930 . S
C408 N404 1.362 1_455 S
C408 C405 1.431 . S
C408 C418 1.476 . S
H409 C403 0.929 . S
C410 O401 1.250 . S
C410 O402 1.258 . S
O411 Mn396 2.162 . S
O411 C399 1.281 . S
O412 Mn396 2.297 . S
O412 C399 1.236 . S
N413 Mn397 2.282 1_455 S
N413 C414 1.328 . S
N413 C418 1.318 . S
C414 N413 1.328 . S
C414 C415 1.457 . S
C414 H419 0.929 . S
C415 C414 1.457 . S
C415 C416 1.291 . S
C415 H428 0.931 . S
C416 C415 1.291 . S
C416 C417 1.373 . S
C416 H429 0.929 . S
C417 C416 1.373 . S
C417 C418 1.396 . S
C417 C424 1.403 . S
C418 C408 1.476 . S
C418 N413 1.318 . S
C418 C417 1.396 . S
H419 C414 0.929 . S
O420 Mn396 2.385 1_455 S
O420 C398 1.234 . S
O421 Mn396 2.209 . S
O421 Mn397 2.215 . S
O421 C398 1.283 1_655 S
O422 Mn396 2.094 . S
O422 C400 1.240 . S
O423 Mn397 2.117 . S
O423 C400 1.264 . S
C424 C417 1.403 . S
C424 C425 1.399 . S
C424 H430 0.929 . S
C425 C405 1.449 . S
C425 C424 1.399 . S
C425 H431 0.930 . S
H426 C406 0.931 . S
H427 C407 0.930 . S
H428 C415 0.931 . S
H429 C416 0.929 . S
H430 C424 0.929 . S
H431 C425 0.930 . S
Mn432 O437 2.095 . S
Mn432 O447 2.162 . S
Mn432 O448 2.297 . S
Mn432 O456 2.385 . S
Mn432 O457 2.209 . S
Mn432 O458 2.094 . S
Mn433 O438 2.121 . S
Mn433 N440 2.257 . S
Mn433 N449 2.282 . S
Mn433 O457 2.215 . S
Mn433 O459 2.117 . S
C434 O456 1.234 . S
C434 O457 1.283 . S
C435 O447 1.281 . S
C435 O448 1.236 . S
C436 O458 1.240 . S
C436 O459 1.264 . S
O437 Mn432 2.095 . S
O437 C446 1.250 . S
O438 Mn433 2.121 . S
O438 C446 1.258 . S
C439 N440 1.326 . S
C439 C443 1.460 . S
C439 H445 0.929 . S
N440 Mn433 2.257 . S
N440 C439 1.326 . S
N440 C444 1.362 . S
C441 C442 1.258 . S
C441 C444 1.431 . S
C441 C461 1.449 . S
C442 C441 1.258 . S
C442 C443 1.477 . S
C442 H462 0.931 . S
C443 C439 1.460 . S
C443 C442 1.477 . S
C443 H463 0.930 . S
C444 N440 1.362 . S
C444 C441 1.431 . S
C444 C454 1.476 . S
H445 C439 0.929 . S
C446 O437 1.250 . S
C446 O438 1.258 . S
O447 Mn432 2.162 . S
O447 C435 1.281 . S
O448 Mn432 2.297 . S
O448 C435 1.236 . S
N449 Mn433 2.282 . S
N449 C450 1.328 . S
N449 C454 1.318 . S
C450 N449 1.328 . S
C450 C451 1.457 . S
C450 H455 0.929 . S
C451 C450 1.457 . S
C451 C452 1.291 . S
C451 H464 0.931 . S
C452 C451 1.291 . S
C452 C453 1.373 . S
C452 H465 0.929 . S
C453 C452 1.373 . S
C453 C454 1.396 . S
C453 C460 1.403 . S
C454 C444 1.476 . S
C454 N449 1.318 . S
C454 C453 1.396 . S
H455 C450 0.929 . S
O456 Mn432 2.385 . S
O456 C434 1.234 . S
O457 Mn432 2.209 . S
O457 Mn433 2.215 . S
O457 C434 1.283 . S
O458 Mn432 2.094 . S
O458 C436 1.240 . S
O459 Mn433 2.117 . S
O459 C436 1.264 . S
C460 C453 1.403 . S
C460 C461 1.399 . S
C460 H466 0.929 . S
C461 C441 1.449 . S
C461 C460 1.399 . S
C461 H467 0.930 . S
H462 C442 0.931 . S
H463 C443 0.930 . S
H464 C451 0.931 . S
H465 C452 0.929 . S
H466 C460 0.929 . S
H467 C461 0.930 . S
Mn468 O473 2.095 . S
Mn468 O483 2.162 . S
Mn468 O484 2.297 . S
Mn468 O492 2.385 . S
Mn468 O493 2.209 . S
Mn468 O494 2.094 . S
Mn469 O474 2.121 . S
Mn469 N476 2.257 . S
Mn469 N485 2.282 . S
Mn469 O493 2.215 . S
Mn469 O495 2.117 . S
C470 O492 1.234 . S
C470 O493 1.283 . S
C471 O483 1.281 . S
C471 O484 1.236 . S
C472 O494 1.240 . S
C472 O495 1.264 . S
O473 Mn468 2.095 . S
O473 C482 1.250 . S
O474 Mn469 2.121 . S
O474 C482 1.258 . S
C475 N476 1.326 . S
C475 C479 1.460 . S
C475 H481 0.929 . S
N476 Mn469 2.257 . S
N476 C475 1.326 . S
N476 C480 1.362 . S
C477 C478 1.258 . S
C477 C480 1.431 . S
C477 C497 1.449 . S
C478 C477 1.258 . S
C478 C479 1.477 . S
C478 H498 0.931 . S
C479 C475 1.460 . S
C479 C478 1.477 . S
C479 H499 0.930 . S
C480 N476 1.362 . S
C480 C477 1.431 . S
C480 C490 1.476 . S
H481 C475 0.929 . S
C482 O473 1.250 . S
C482 O474 1.258 . S
O483 Mn468 2.162 . S
O483 C471 1.281 . S
O484 Mn468 2.297 . S
O484 C471 1.236 . S
N485 Mn469 2.282 . S
N485 C486 1.328 . S
N485 C490 1.318 . S
C486 N485 1.328 . S
C486 C487 1.457 . S
C486 H491 0.929 . S
C487 C486 1.457 . S
C487 C488 1.291 . S
C487 H500 0.931 . S
C488 C487 1.291 . S
C488 C489 1.373 . S
C488 H501 0.929 . S
C489 C488 1.373 . S
C489 C490 1.396 . S
C489 C496 1.403 . S
C490 C480 1.476 . S
C490 N485 1.318 . S
C490 C489 1.396 . S
H491 C486 0.929 . S
O492 Mn468 2.385 . S
O492 C470 1.234 . S
O493 Mn468 2.209 . S
O493 Mn469 2.215 . S
O493 C470 1.283 . S
O494 Mn468 2.094 . S
O494 C472 1.240 . S
O495 Mn469 2.117 . S
O495 C472 1.264 . S
C496 C489 1.403 . S
C496 C497 1.399 . S
C496 H502 0.929 . S
C497 C477 1.449 . S
C497 C496 1.399 . S
C497 H503 0.930 . S
H498 C478 0.931 . S
H499 C479 0.930 . S
H500 C487 0.931 . S
H501 C488 0.929 . S
H502 C496 0.929 . S
H503 C497 0.930 . S
Mn504 O509 2.095 . S
Mn504 O519 2.162 . S
Mn504 O520 2.297 . S
Mn504 O528 2.385 . S
Mn504 O529 2.209 . S
Mn504 O530 2.094 . S
Mn505 O510 2.121 . S
Mn505 N512 2.257 . S
Mn505 N521 2.282 . S
Mn505 O529 2.215 . S
Mn505 O531 2.117 . S
C506 O528 1.234 . S
C506 O529 1.283 . S
C507 O519 1.281 . S
C507 O520 1.236 . S
C508 O530 1.240 . S
C508 O531 1.264 . S
O509 Mn504 2.095 . S
O509 C518 1.250 . S
O510 Mn505 2.121 . S
O510 C518 1.258 . S
C511 N512 1.326 . S
C511 C515 1.460 . S
C511 H517 0.929 . S
N512 Mn505 2.257 . S
N512 C511 1.326 . S
N512 C516 1.362 . S
C513 C514 1.258 . S
C513 C516 1.431 . S
C513 C533 1.449 . S
C514 C513 1.258 . S
C514 C515 1.477 . S
C514 H534 0.931 . S
C515 C511 1.460 . S
C515 C514 1.477 . S
C515 H535 0.930 . S
C516 N512 1.362 . S
C516 C513 1.431 . S
C516 C526 1.476 . S
H517 C511 0.929 . S
C518 O509 1.250 . S
C518 O510 1.258 . S
O519 Mn504 2.162 . S
O519 C507 1.281 . S
O520 Mn504 2.297 . S
O520 C507 1.236 . S
N521 Mn505 2.282 . S
N521 C522 1.328 . S
N521 C526 1.318 . S
C522 N521 1.328 . S
C522 C523 1.457 . S
C522 H527 0.929 . S
C523 C522 1.457 . S
C523 C524 1.291 . S
C523 H536 0.931 . S
C524 C523 1.291 . S
C524 C525 1.373 . S
C524 H537 0.929 . S
C525 C524 1.373 . S
C525 C526 1.396 . S
C525 C532 1.403 . S
C526 C516 1.476 . S
C526 N521 1.318 . S
C526 C525 1.396 . S
H527 C522 0.929 . S
O528 Mn504 2.385 . S
O528 C506 1.234 . S
O529 Mn504 2.209 . S
O529 Mn505 2.215 . S
O529 C506 1.283 . S
O530 Mn504 2.094 . S
O530 C508 1.240 . S
O531 Mn505 2.117 . S
O531 C508 1.264 . S
C532 C525 1.403 . S
C532 C533 1.399 . S
C532 H538 0.929 . S
C533 C513 1.449 . S
C533 C532 1.399 . S
C533 H539 0.930 . S
H534 C514 0.931 . S
H535 C515 0.930 . S
H536 C523 0.931 . S
H537 C524 0.929 . S
H538 C532 0.929 . S
H539 C533 0.930 . S
Mn540 O545 2.095 . S
Mn540 O555 2.162 . S
Mn540 O556 2.297 . S
Mn540 O564 2.385 . S
Mn540 O565 2.209 . S
Mn540 O566 2.094 . S
Mn541 O546 2.121 . S
Mn541 N548 2.257 . S
Mn541 N557 2.282 . S
Mn541 O565 2.215 . S
Mn541 O567 2.117 . S
C542 O564 1.234 . S
C542 O565 1.283 . S
C543 O555 1.281 . S
C543 O556 1.236 . S
C544 O566 1.240 . S
C544 O567 1.264 . S
O545 Mn540 2.095 . S
O545 C554 1.250 . S
O546 Mn541 2.121 . S
O546 C554 1.258 . S
C547 N548 1.326 . S
C547 C551 1.460 . S
C547 H553 0.929 . S
N548 Mn541 2.257 . S
N548 C547 1.326 . S
N548 C552 1.362 . S
C549 C550 1.258 . S
C549 C552 1.431 . S
C549 C569 1.449 . S
C550 C549 1.258 . S
C550 C551 1.477 . S
C550 H570 0.931 . S
C551 C547 1.460 . S
C551 C550 1.477 . S
C551 H571 0.930 . S
C552 N548 1.362 . S
C552 C549 1.431 . S
C552 C562 1.476 . S
H553 C547 0.929 . S
C554 O545 1.250 . S
C554 O546 1.258 . S
O555 Mn540 2.162 . S
O555 C543 1.281 . S
O556 Mn540 2.297 . S
O556 C543 1.236 . S
N557 Mn541 2.282 . S
N557 C558 1.328 . S
N557 C562 1.318 . S
C558 N557 1.328 . S
C558 C559 1.457 . S
C558 H563 0.929 . S
C559 C558 1.457 . S
C559 C560 1.291 . S
C559 H572 0.931 . S
C560 C559 1.291 . S
C560 C561 1.373 . S
C560 H573 0.929 . S
C561 C560 1.373 . S
C561 C562 1.396 . S
C561 C568 1.403 . S
C562 C552 1.476 . S
C562 N557 1.318 . S
C562 C561 1.396 . S
H563 C558 0.929 . S
O564 Mn540 2.385 . S
O564 C542 1.234 . S
O565 Mn540 2.209 . S
O565 Mn541 2.215 . S
O565 C542 1.283 . S
O566 Mn540 2.094 . S
O566 C544 1.240 . S
O567 Mn541 2.117 . S
O567 C544 1.264 . S
C568 C561 1.403 . S
C568 C569 1.399 . S
C568 H574 0.929 . S
C569 C549 1.449 . S
C569 C568 1.399 . S
C569 H575 0.930 . S
H570 C550 0.931 . S
H571 C551 0.930 . S
H572 C559 0.931 . S
H573 C560 0.929 . S
H574 C568 0.929 . S
H575 C569 0.930 . S
Mn576 O581 2.095 . S
Mn576 O591 2.162 . S
Mn576 O592 2.297 . S
Mn576 O600 2.385 . S
Mn576 O601 2.209 . S
Mn576 O602 2.094 . S
Mn577 O582 2.121 . S
Mn577 N584 2.257 . S
Mn577 N593 2.282 . S
Mn577 O601 2.215 . S
Mn577 O603 2.117 . S
C578 O600 1.234 . S
C578 O601 1.283 . S
C579 O591 1.281 . S
C579 O592 1.236 . S
C580 O602 1.240 . S
C580 O603 1.264 . S
O581 Mn576 2.095 . S
O581 C590 1.250 . S
O582 Mn577 2.121 . S
O582 C590 1.258 . S
C583 N584 1.326 . S
C583 C587 1.460 . S
C583 H589 0.929 . S
N584 Mn577 2.257 . S
N584 C583 1.326 . S
N584 C588 1.362 . S
C585 C586 1.258 . S
C585 C588 1.431 . S
C585 C605 1.449 . S
C586 C585 1.258 . S
C586 C587 1.477 . S
C586 H606 0.931 . S
C587 C583 1.460 . S
C587 C586 1.477 . S
C587 H607 0.930 . S
C588 N584 1.362 . S
C588 C585 1.431 . S
C588 C598 1.476 . S
H589 C583 0.929 . S
C590 O581 1.250 . S
C590 O582 1.258 . S
O591 Mn576 2.162 . S
O591 C579 1.281 . S
O592 Mn576 2.297 . S
O592 C579 1.236 . S
N593 Mn577 2.282 . S
N593 C594 1.328 . S
N593 C598 1.318 . S
C594 N593 1.328 . S
C594 C595 1.457 . S
C594 H599 0.929 . S
C595 C594 1.457 . S
C595 C596 1.291 . S
C595 H608 0.931 . S
C596 C595 1.291 . S
C596 C597 1.373 . S
C596 H609 0.929 . S
C597 C596 1.373 . S
C597 C598 1.396 . S
C597 C604 1.403 . S
C598 C588 1.476 . S
C598 N593 1.318 . S
C598 C597 1.396 . S
H599 C594 0.929 . S
O600 Mn576 2.385 . S
O600 C578 1.234 . S
O601 Mn576 2.209 . S
O601 Mn577 2.215 . S
O601 C578 1.283 . S
O602 Mn576 2.094 . S
O602 C580 1.240 . S
O603 Mn577 2.117 . S
O603 C580 1.264 . S
C604 C597 1.403 . S
C604 C605 1.399 . S
C604 H610 0.929 . S
C605 C585 1.449 . S
C605 C604 1.399 . S
C605 H611 0.930 . S
H606 C586 0.931 . S
H607 C587 0.930 . S
H608 C595 0.931 . S
H609 C596 0.929 . S
H610 C604 0.929 . S
H611 C605 0.930 . S
Mn612 O617 2.095 . S
Mn612 O627 2.162 . S
Mn612 O628 2.297 . S
Mn612 O636 2.385 . S
Mn612 O637 2.209 . S
Mn612 O638 2.094 . S
Mn613 O618 2.121 . S
Mn613 N620 2.257 . S
Mn613 N629 2.282 . S
Mn613 O637 2.215 . S
Mn613 O639 2.117 . S
C614 O636 1.234 . S
C614 O637 1.283 . S
C615 O627 1.281 . S
C615 O628 1.236 . S
C616 O638 1.240 . S
C616 O639 1.264 . S
O617 Mn612 2.095 . S
O617 C626 1.250 . S
O618 Mn613 2.121 . S
O618 C626 1.258 . S
C619 N620 1.326 . S
C619 C623 1.460 . S
C619 H625 0.929 . S
N620 Mn613 2.257 . S
N620 C619 1.326 . S
N620 C624 1.362 . S
C621 C622 1.258 . S
C621 C624 1.431 . S
C621 C641 1.449 . S
C622 C621 1.258 . S
C622 C623 1.477 . S
C622 H642 0.931 . S
C623 C619 1.460 . S
C623 C622 1.477 . S
C623 H643 0.930 . S
C624 N620 1.362 . S
C624 C621 1.431 . S
C624 C634 1.476 . S
H625 C619 0.929 . S
C626 O617 1.250 . S
C626 O618 1.258 . S
O627 Mn612 2.162 . S
O627 C615 1.281 . S
O628 Mn612 2.297 . S
O628 C615 1.236 . S
N629 Mn613 2.282 . S
N629 C630 1.328 . S
N629 C634 1.318 . S
C630 N629 1.328 . S
C630 C631 1.457 . S
C630 H635 0.929 . S
C631 C630 1.457 . S
C631 C632 1.291 . S
C631 H644 0.931 . S
C632 C631 1.291 . S
C632 C633 1.373 . S
C632 H645 0.929 . S
C633 C632 1.373 . S
C633 C634 1.396 . S
C633 C640 1.403 . S
C634 C624 1.476 . S
C634 N629 1.318 . S
C634 C633 1.396 . S
H635 C630 0.929 . S
O636 Mn612 2.385 . S
O636 C614 1.234 . S
O637 Mn612 2.209 . S
O637 Mn613 2.215 . S
O637 C614 1.283 . S
O638 Mn612 2.094 . S
O638 C616 1.240 . S
O639 Mn613 2.117 . S
O639 C616 1.264 . S
C640 C633 1.403 . S
C640 C641 1.399 . S
C640 H646 0.929 . S
C641 C621 1.449 . S
C641 C640 1.399 . S
C641 H647 0.930 . S
H642 C622 0.931 . S
H643 C623 0.930 . S
H644 C631 0.931 . S
H645 C632 0.929 . S
H646 C640 0.929 . S
H647 C641 0.930 . S
Mn648 O653 2.095 . S
Mn648 O663 2.162 . S
Mn648 O664 2.297 . S
Mn648 O672 2.385 . S
Mn648 O673 2.209 . S
Mn648 O674 2.094 . S
Mn649 O654 2.121 . S
Mn649 N656 2.257 . S
Mn649 N665 2.282 . S
Mn649 O673 2.215 . S
Mn649 O675 2.117 . S
C650 O672 1.234 . S
C650 O673 1.283 . S
C651 O663 1.281 . S
C651 O664 1.236 . S
C652 O674 1.240 . S
C652 O675 1.264 . S
O653 Mn648 2.095 . S
O653 C662 1.250 . S
O654 Mn649 2.121 . S
O654 C662 1.258 . S
C655 N656 1.326 . S
C655 C659 1.460 . S
C655 H661 0.929 . S
N656 Mn649 2.257 . S
N656 C655 1.326 . S
N656 C660 1.362 . S
C657 C658 1.258 . S
C657 C660 1.431 . S
C657 C677 1.449 . S
C658 C657 1.258 . S
C658 C659 1.477 . S
C658 H678 0.931 . S
C659 C655 1.460 . S
C659 C658 1.477 . S
C659 H679 0.930 . S
C660 N656 1.362 . S
C660 C657 1.431 . S
C660 C670 1.476 . S
H661 C655 0.929 . S
C662 O653 1.250 . S
C662 O654 1.258 . S
O663 Mn648 2.162 . S
O663 C651 1.281 . S
O664 Mn648 2.297 . S
O664 C651 1.236 . S
N665 Mn649 2.282 . S
N665 C666 1.328 . S
N665 C670 1.318 . S
C666 N665 1.328 . S
C666 C667 1.457 . S
C666 H671 0.929 . S
C667 C666 1.457 . S
C667 C668 1.291 . S
C667 H680 0.931 . S
C668 C667 1.291 . S
C668 C669 1.373 . S
C668 H681 0.929 . S
C669 C668 1.373 . S
C669 C670 1.396 . S
C669 C676 1.403 . S
C670 C660 1.476 . S
C670 N665 1.318 . S
C670 C669 1.396 . S
H671 C666 0.929 . S
O672 Mn648 2.385 . S
O672 C650 1.234 . S
O673 Mn648 2.209 . S
O673 Mn649 2.215 . S
O673 C650 1.283 . S
O674 Mn648 2.094 . S
O674 C652 1.240 . S
O675 Mn649 2.117 . S
O675 C652 1.264 . S
C676 C669 1.403 . S
C676 C677 1.399 . S
C676 H682 0.929 . S
C677 C657 1.449 . S
C677 C676 1.399 . S
C677 H683 0.930 . S
H678 C658 0.931 . S
H679 C659 0.930 . S
H680 C667 0.931 . S
H681 C668 0.929 . S
H682 C676 0.929 . S
H683 C677 0.930 . S
Mn684 O689 2.095 . S
Mn684 O699 2.162 . S
Mn684 O700 2.297 . S
Mn684 O708 2.385 . S
Mn684 O709 2.209 . S
Mn684 O710 2.094 . S
Mn685 O690 2.121 . S
Mn685 N692 2.257 . S
Mn685 N701 2.282 . S
Mn685 O709 2.215 . S
Mn685 O711 2.117 . S
C686 O708 1.234 . S
C686 O709 1.283 . S
C687 O699 1.281 . S
C687 O700 1.236 . S
C688 O710 1.240 . S
C688 O711 1.264 . S
O689 Mn684 2.095 . S
O689 C698 1.250 . S
O690 Mn685 2.121 . S
O690 C698 1.258 . S
C691 N692 1.326 . S
C691 C695 1.460 . S
C691 H697 0.929 . S
N692 Mn685 2.257 . S
N692 C691 1.326 . S
N692 C696 1.362 . S
C693 C694 1.258 . S
C693 C696 1.431 . S
C693 C713 1.449 . S
C694 C693 1.258 . S
C694 C695 1.477 . S
C694 H714 0.931 . S
C695 C691 1.460 . S
C695 C694 1.477 . S
C695 H715 0.930 . S
C696 N692 1.362 . S
C696 C693 1.431 . S
C696 C706 1.476 . S
H697 C691 0.929 . S
C698 O689 1.250 . S
C698 O690 1.258 . S
O699 Mn684 2.162 . S
O699 C687 1.281 . S
O700 Mn684 2.297 . S
O700 C687 1.236 . S
N701 Mn685 2.282 . S
N701 C702 1.328 . S
N701 C706 1.318 . S
C702 N701 1.328 . S
C702 C703 1.457 . S
C702 H707 0.929 . S
C703 C702 1.457 . S
C703 C704 1.291 . S
C703 H716 0.931 . S
C704 C703 1.291 . S
C704 C705 1.373 . S
C704 H717 0.929 . S
C705 C704 1.373 . S
C705 C706 1.396 . S
C705 C712 1.403 . S
C706 C696 1.476 . S
C706 N701 1.318 . S
C706 C705 1.396 . S
H707 C702 0.929 . S
O708 Mn684 2.385 . S
O708 C686 1.234 . S
O709 Mn684 2.209 . S
O709 Mn685 2.215 . S
O709 C686 1.283 . S
O710 Mn684 2.094 . S
O710 C688 1.240 . S
O711 Mn685 2.117 . S
O711 C688 1.264 . S
C712 C705 1.403 . S
C712 C713 1.399 . S
C712 H718 0.929 . S
C713 C693 1.449 . S
C713 C712 1.399 . S
C713 H719 0.930 . S
H714 C694 0.931 . S
H715 C695 0.930 . S
H716 C703 0.931 . S
H717 C704 0.929 . S
H718 C712 0.929 . S
H719 C713 0.930 . S
Mn720 O725 2.095 . S
Mn720 O735 2.162 . S
Mn720 O736 2.297 . S
Mn720 O744 2.385 . S
Mn720 O745 2.209 . S
Mn720 O746 2.094 . S
Mn721 O726 2.121 . S
Mn721 N728 2.257 . S
Mn721 N737 2.282 . S
Mn721 O745 2.215 . S
Mn721 O747 2.117 . S
C722 O744 1.234 . S
C722 O745 1.283 . S
C723 O735 1.281 . S
C723 O736 1.236 . S
C724 O746 1.240 . S
C724 O747 1.264 . S
O725 Mn720 2.095 . S
O725 C734 1.250 . S
O726 Mn721 2.121 . S
O726 C734 1.258 . S
C727 N728 1.326 . S
C727 C731 1.460 . S
C727 H733 0.929 . S
N728 Mn721 2.257 . S
N728 C727 1.326 . S
N728 C732 1.362 . S
C729 C730 1.258 . S
C729 C732 1.431 . S
C729 C749 1.449 . S
C730 C729 1.258 . S
C730 C731 1.477 . S
C730 H750 0.931 . S
C731 C727 1.460 . S
C731 C730 1.477 . S
C731 H751 0.930 . S
C732 N728 1.362 . S
C732 C729 1.431 . S
C732 C742 1.476 . S
H733 C727 0.929 . S
C734 O725 1.250 . S
C734 O726 1.258 . S
O735 Mn720 2.162 . S
O735 C723 1.281 . S
O736 Mn720 2.297 . S
O736 C723 1.236 . S
N737 Mn721 2.282 . S
N737 C738 1.328 . S
N737 C742 1.318 . S
C738 N737 1.328 . S
C738 C739 1.457 . S
C738 H743 0.929 . S
C739 C738 1.457 . S
C739 C740 1.291 . S
C739 H752 0.931 . S
C740 C739 1.291 . S
C740 C741 1.373 . S
C740 H753 0.929 . S
C741 C740 1.373 . S
C741 C742 1.396 . S
C741 C748 1.403 . S
C742 C732 1.476 . S
C742 N737 1.318 . S
C742 C741 1.396 . S
H743 C738 0.929 . S
O744 Mn720 2.385 . S
O744 C722 1.234 . S
O745 Mn720 2.209 . S
O745 Mn721 2.215 . S
O745 C722 1.283 . S
O746 Mn720 2.094 . S
O746 C724 1.240 . S
O747 Mn721 2.117 . S
O747 C724 1.264 . S
C748 C741 1.403 . S
C748 C749 1.399 . S
C748 H754 0.929 . S
C749 C729 1.449 . S
C749 C748 1.399 . S
C749 H755 0.930 . S
H750 C730 0.931 . S
H751 C731 0.930 . S
H752 C739 0.931 . S
H753 C740 0.929 . S
H754 C748 0.929 . S
H755 C749 0.930 . S
Mn756 O761 2.095 . S
Mn756 O771 2.162 . S
Mn756 O772 2.297 . S
Mn756 O780 2.385 . S
Mn756 O781 2.209 . S
Mn756 O782 2.094 . S
Mn757 O762 2.121 . S
Mn757 N764 2.257 . S
Mn757 N773 2.282 . S
Mn757 O781 2.215 . S
Mn757 O783 2.117 . S
C758 O780 1.234 . S
C758 O781 1.283 . S
C759 O771 1.281 . S
C759 O772 1.236 . S
C760 O782 1.240 . S
C760 O783 1.264 . S
O761 Mn756 2.095 . S
O761 C770 1.250 . S
O762 Mn757 2.121 . S
O762 C770 1.258 . S
C763 N764 1.326 . S
C763 C767 1.460 . S
C763 H769 0.929 . S
N764 Mn757 2.257 . S
N764 C763 1.326 . S
N764 C768 1.362 . S
C765 C766 1.258 . S
C765 C768 1.431 . S
C765 C785 1.449 . S
C766 C765 1.258 . S
C766 C767 1.477 . S
C766 H786 0.931 . S
C767 C763 1.460 . S
C767 C766 1.477 . S
C767 H787 0.930 . S
C768 N764 1.362 . S
C768 C765 1.431 . S
C768 C778 1.476 . S
H769 C763 0.929 . S
C770 O761 1.250 . S
C770 O762 1.258 . S
O771 Mn756 2.162 . S
O771 C759 1.281 . S
O772 Mn756 2.297 . S
O772 C759 1.236 . S
N773 Mn757 2.282 . S
N773 C774 1.328 . S
N773 C778 1.318 . S
C774 N773 1.328 . S
C774 C775 1.457 . S
C774 H779 0.929 . S
C775 C774 1.457 . S
C775 C776 1.291 . S
C775 H788 0.931 . S
C776 C775 1.291 . S
C776 C777 1.373 . S
C776 H789 0.929 . S
C777 C776 1.373 . S
C777 C778 1.396 . S
C777 C784 1.403 . S
C778 C768 1.476 . S
C778 N773 1.318 . S
C778 C777 1.396 . S
H779 C774 0.929 . S
O780 Mn756 2.385 . S
O780 C758 1.234 . S
O781 Mn756 2.209 . S
O781 Mn757 2.215 . S
O781 C758 1.283 . S
O782 Mn756 2.094 . S
O782 C760 1.240 . S
O783 Mn757 2.117 . S
O783 C760 1.264 . S
C784 C777 1.403 . S
C784 C785 1.399 . S
C784 H790 0.929 . S
C785 C765 1.449 . S
C785 C784 1.399 . S
C785 H791 0.930 . S
H786 C766 0.931 . S
H787 C767 0.930 . S
H788 C775 0.931 . S
H789 C776 0.929 . S
H790 C784 0.929 . S
H791 C785 0.930 . S
Mn792 O797 2.095 . S
Mn792 O807 2.162 . S
Mn792 O808 2.297 . S
Mn792 O816 2.385 . S
Mn792 O817 2.209 . S
Mn792 O818 2.094 . S
Mn793 O798 2.121 . S
Mn793 N800 2.257 . S
Mn793 N809 2.282 . S
Mn793 O817 2.215 . S
Mn793 O819 2.117 . S
C794 O816 1.234 . S
C794 O817 1.283 . S
C795 O807 1.281 . S
C795 O808 1.236 . S
C796 O818 1.240 . S
C796 O819 1.264 . S
O797 Mn792 2.095 . S
O797 C806 1.250 . S
O798 Mn793 2.121 . S
O798 C806 1.258 . S
C799 N800 1.326 . S
C799 C803 1.460 . S
C799 H805 0.929 . S
N800 Mn793 2.257 . S
N800 C799 1.326 . S
N800 C804 1.362 . S
C801 C802 1.258 . S
C801 C804 1.431 . S
C801 C821 1.449 . S
C802 C801 1.258 . S
C802 C803 1.477 . S
C802 H822 0.931 . S
C803 C799 1.460 . S
C803 C802 1.477 . S
C803 H823 0.930 . S
C804 N800 1.362 . S
C804 C801 1.431 . S
C804 C814 1.476 . S
H805 C799 0.929 . S
C806 O797 1.250 . S
C806 O798 1.258 . S
O807 Mn792 2.162 . S
O807 C795 1.281 . S
O808 Mn792 2.297 . S
O808 C795 1.236 . S
N809 Mn793 2.282 . S
N809 C810 1.328 . S
N809 C814 1.318 . S
C810 N809 1.328 . S
C810 C811 1.457 . S
C810 H815 0.929 . S
C811 C810 1.457 . S
C811 C812 1.291 . S
C811 H824 0.931 . S
C812 C811 1.291 . S
C812 C813 1.373 . S
C812 H825 0.929 . S
C813 C812 1.373 . S
C813 C814 1.396 . S
C813 C820 1.403 . S
C814 C804 1.476 . S
C814 N809 1.318 . S
C814 C813 1.396 . S
H815 C810 0.929 . S
O816 Mn792 2.385 . S
O816 C794 1.234 . S
O817 Mn792 2.209 . S
O817 Mn793 2.215 . S
O817 C794 1.283 . S
O818 Mn792 2.094 . S
O818 C796 1.240 . S
O819 Mn793 2.117 . S
O819 C796 1.264 . S
C820 C813 1.403 . S
C820 C821 1.399 . S
C820 H826 0.929 . S
C821 C801 1.449 . S
C821 C820 1.399 . S
C821 H827 0.930 . S
H822 C802 0.931 . S
H823 C803 0.930 . S
H824 C811 0.931 . S
H825 C812 0.929 . S
H826 C820 0.929 . S
H827 C821 0.930 . S
Mn828 O833 2.095 . S
Mn828 O843 2.162 . S
Mn828 O844 2.297 . S
Mn828 O852 2.385 . S
Mn828 O853 2.209 . S
Mn828 O854 2.094 . S
Mn829 O834 2.121 . S
Mn829 N836 2.257 . S
Mn829 N845 2.282 . S
Mn829 O853 2.215 . S
Mn829 O855 2.117 . S
C830 O852 1.234 . S
C830 O853 1.283 . S
C831 O843 1.281 . S
C831 O844 1.236 . S
C832 O854 1.240 . S
C832 O855 1.264 . S
O833 Mn828 2.095 . S
O833 C842 1.250 . S
O834 Mn829 2.121 . S
O834 C842 1.258 . S
C835 N836 1.326 . S
C835 C839 1.460 . S
C835 H841 0.929 . S
N836 Mn829 2.257 . S
N836 C835 1.326 . S
N836 C840 1.362 . S
C837 C838 1.258 . S
C837 C840 1.431 . S
C837 C857 1.449 . S
C838 C837 1.258 . S
C838 C839 1.477 . S
C838 H858 0.931 . S
C839 C835 1.460 . S
C839 C838 1.477 . S
C839 H859 0.930 . S
C840 N836 1.362 . S
C840 C837 1.431 . S
C840 C850 1.476 . S
H841 C835 0.929 . S
C842 O833 1.250 . S
C842 O834 1.258 . S
O843 Mn828 2.162 . S
O843 C831 1.281 . S
O844 Mn828 2.297 . S
O844 C831 1.236 . S
N845 Mn829 2.282 . S
N845 C846 1.328 . S
N845 C850 1.318 . S
C846 N845 1.328 . S
C846 C847 1.457 . S
C846 H851 0.929 . S
C847 C846 1.457 . S
C847 C848 1.291 . S
C847 H860 0.931 . S
C848 C847 1.291 . S
C848 C849 1.373 . S
C848 H861 0.929 . S
C849 C848 1.373 . S
C849 C850 1.396 . S
C849 C856 1.403 . S
C850 C840 1.476 . S
C850 N845 1.318 . S
C850 C849 1.396 . S
H851 C846 0.929 . S
O852 Mn828 2.385 . S
O852 C830 1.234 . S
O853 Mn828 2.209 . S
O853 Mn829 2.215 . S
O853 C830 1.283 . S
O854 Mn828 2.094 . S
O854 C832 1.240 . S
O855 Mn829 2.117 . S
O855 C832 1.264 . S
C856 C849 1.403 . S
C856 C857 1.399 . S
C856 H862 0.929 . S
C857 C837 1.449 . S
C857 C856 1.399 . S
C857 H863 0.930 . S
H858 C838 0.931 . S
H859 C839 0.930 . S
H860 C847 0.931 . S
H861 C848 0.929 . S
H862 C856 0.929 . S
H863 C857 0.930 . S
Mn864 O869 2.095 . S
Mn864 O879 2.162 . S
Mn864 O880 2.297 . S
Mn864 O888 2.385 . S
Mn864 O889 2.209 . S
Mn864 O890 2.094 . S
Mn865 O870 2.121 . S
Mn865 N872 2.257 . S
Mn865 N881 2.282 . S
Mn865 O889 2.215 . S
Mn865 O891 2.117 . S
C866 O888 1.234 . S
C866 O889 1.283 . S
C867 O879 1.281 . S
C867 O880 1.236 . S
C868 O890 1.240 . S
C868 O891 1.264 . S
O869 Mn864 2.095 . S
O869 C878 1.250 . S
O870 Mn865 2.121 . S
O870 C878 1.258 . S
C871 N872 1.326 . S
C871 C875 1.460 . S
C871 H877 0.929 . S
N872 Mn865 2.257 . S
N872 C871 1.326 . S
N872 C876 1.362 . S
C873 C874 1.258 . S
C873 C876 1.431 . S
C873 C893 1.449 . S
C874 C873 1.258 . S
C874 C875 1.477 . S
C874 H894 0.931 . S
C875 C871 1.460 . S
C875 C874 1.477 . S
C875 H895 0.930 . S
C876 N872 1.362 . S
C876 C873 1.431 . S
C876 C886 1.476 . S
H877 C871 0.929 . S
C878 O869 1.250 . S
C878 O870 1.258 . S
O879 Mn864 2.162 . S
O879 C867 1.281 . S
O880 Mn864 2.297 . S
O880 C867 1.236 . S
N881 Mn865 2.282 . S
N881 C882 1.328 . S
N881 C886 1.318 . S
C882 N881 1.328 . S
C882 C883 1.457 . S
C882 H887 0.929 . S
C883 C882 1.457 . S
C883 C884 1.291 . S
C883 H896 0.931 . S
C884 C883 1.291 . S
C884 C885 1.373 . S
C884 H897 0.929 . S
C885 C884 1.373 . S
C885 C886 1.396 . S
C885 C892 1.403 . S
C886 C876 1.476 . S
C886 N881 1.318 . S
C886 C885 1.396 . S
H887 C882 0.929 . S
O888 Mn864 2.385 . S
O888 C866 1.234 . S
O889 Mn864 2.209 . S
O889 Mn865 2.215 . S
O889 C866 1.283 . S
O890 Mn864 2.094 . S
O890 C868 1.240 . S
O891 Mn865 2.117 . S
O891 C868 1.264 . S
C892 C885 1.403 . S
C892 C893 1.399 . S
C892 H898 0.929 . S
C893 C873 1.449 . S
C893 C892 1.399 . S
C893 H899 0.930 . S
H894 C874 0.931 . S
H895 C875 0.930 . S
H896 C883 0.931 . S
H897 C884 0.929 . S
H898 C892 0.929 . S
H899 C893 0.930 . S
Mn900 O905 2.095 . S
Mn900 O915 2.162 . S
Mn900 O916 2.297 . S
Mn900 O924 2.385 . S
Mn900 O925 2.209 . S
Mn900 O926 2.094 . S
Mn901 O906 2.121 . S
Mn901 N908 2.257 . S
Mn901 N917 2.282 . S
Mn901 O925 2.215 . S
Mn901 O927 2.117 . S
C902 O924 1.234 . S
C902 O925 1.283 . S
C903 O915 1.281 . S
C903 O916 1.236 . S
C904 O926 1.240 . S
C904 O927 1.264 . S
O905 Mn900 2.095 . S
O905 C914 1.250 . S
O906 Mn901 2.121 . S
O906 C914 1.258 . S
C907 N908 1.326 . S
C907 C911 1.460 . S
C907 H913 0.929 . S
N908 Mn901 2.257 . S
N908 C907 1.326 . S
N908 C912 1.362 . S
C909 C910 1.258 . S
C909 C912 1.431 . S
C909 C929 1.449 . S
C910 C909 1.258 . S
C910 C911 1.477 . S
C910 H930 0.931 . S
C911 C907 1.460 . S
C911 C910 1.477 . S
C911 H931 0.930 . S
C912 N908 1.362 . S
C912 C909 1.431 . S
C912 C922 1.476 . S
H913 C907 0.929 . S
C914 O905 1.250 . S
C914 O906 1.258 . S
O915 Mn900 2.162 . S
O915 C903 1.281 . S
O916 Mn900 2.297 . S
O916 C903 1.236 . S
N917 Mn901 2.282 . S
N917 C918 1.328 . S
N917 C922 1.318 . S
C918 N917 1.328 . S
C918 C919 1.457 . S
C918 H923 0.929 . S
C919 C918 1.457 . S
C919 C920 1.291 . S
C919 H932 0.931 . S
C920 C919 1.291 . S
C920 C921 1.373 . S
C920 H933 0.929 . S
C921 C920 1.373 . S
C921 C922 1.396 . S
C921 C928 1.403 . S
C922 C912 1.476 . S
C922 N917 1.318 . S
C922 C921 1.396 . S
H923 C918 0.929 . S
O924 Mn900 2.385 . S
O924 C902 1.234 . S
O925 Mn900 2.209 . S
O925 Mn901 2.215 . S
O925 C902 1.283 . S
O926 Mn900 2.094 . S
O926 C904 1.240 . S
O927 Mn901 2.117 . S
O927 C904 1.264 . S
C928 C921 1.403 . S
C928 C929 1.399 . S
C928 H934 0.929 . S
C929 C909 1.449 . S
C929 C928 1.399 . S
C929 H935 0.930 . S
H930 C910 0.931 . S
H931 C911 0.930 . S
H932 C919 0.931 . S
H933 C920 0.929 . S
H934 C928 0.929 . S
H935 C929 0.930 . S
Mn936 O941 2.095 . S
Mn936 O951 2.162 . S
Mn936 O952 2.297 . S
Mn936 O960 2.385 . S
Mn936 O961 2.209 . S
Mn936 O962 2.094 . S
Mn937 O942 2.121 . S
Mn937 N944 2.257 . S
Mn937 N953 2.282 . S
Mn937 O961 2.215 . S
Mn937 O963 2.117 . S
C938 O960 1.234 . S
C938 O961 1.283 . S
C939 O951 1.281 . S
C939 O952 1.236 . S
C940 O962 1.240 . S
C940 O963 1.264 . S
O941 Mn936 2.095 . S
O941 C950 1.250 . S
O942 Mn937 2.121 . S
O942 C950 1.258 . S
C943 N944 1.326 . S
C943 C947 1.460 . S
C943 H949 0.929 . S
N944 Mn937 2.257 . S
N944 C943 1.326 . S
N944 C948 1.362 . S
C945 C946 1.258 . S
C945 C948 1.431 . S
C945 C965 1.449 . S
C946 C945 1.258 . S
C946 C947 1.477 . S
C946 H966 0.931 . S
C947 C943 1.460 . S
C947 C946 1.477 . S
C947 H967 0.930 . S
C948 N944 1.362 . S
C948 C945 1.431 . S
C948 C958 1.476 . S
H949 C943 0.929 . S
C950 O941 1.250 . S
C950 O942 1.258 . S
O951 Mn936 2.162 . S
O951 C939 1.281 . S
O952 Mn936 2.297 . S
O952 C939 1.236 . S
N953 Mn937 2.282 . S
N953 C954 1.328 . S
N953 C958 1.318 . S
C954 N953 1.328 . S
C954 C955 1.457 . S
C954 H959 0.929 . S
C955 C954 1.457 . S
C955 C956 1.291 . S
C955 H968 0.931 . S
C956 C955 1.291 . S
C956 C957 1.373 . S
C956 H969 0.929 . S
C957 C956 1.373 . S
C957 C958 1.396 . S
C957 C964 1.403 . S
C958 C948 1.476 . S
C958 N953 1.318 . S
C958 C957 1.396 . S
H959 C954 0.929 . S
O960 Mn936 2.385 . S
O960 C938 1.234 . S
O961 Mn936 2.209 . S
O961 Mn937 2.215 . S
O961 C938 1.283 . S
O962 Mn936 2.094 . S
O962 C940 1.240 . S
O963 Mn937 2.117 . S
O963 C940 1.264 . S
C964 C957 1.403 . S
C964 C965 1.399 . S
C964 H970 0.929 . S
C965 C945 1.449 . S
C965 C964 1.399 . S
C965 H971 0.930 . S
H966 C946 0.931 . S
H967 C947 0.930 . S
H968 C955 0.931 . S
H969 C956 0.929 . S
H970 C964 0.929 . S
H971 C965 0.930 . S
Mn972 O977 2.095 . S
Mn972 O987 2.162 . S
Mn972 O988 2.297 . S
Mn972 O996 2.385 . S
Mn972 O997 2.209 . S
Mn972 O998 2.094 . S
Mn973 O978 2.121 . S
Mn973 N980 2.257 . S
Mn973 N989 2.282 . S
Mn973 O997 2.215 . S
Mn973 O999 2.117 . S
C974 O996 1.234 . S
C974 O997 1.283 . S
C975 O987 1.281 . S
C975 O988 1.236 . S
C976 O998 1.240 . S
C976 O999 1.264 . S
O977 Mn972 2.095 . S
O977 C986 1.250 . S
O978 Mn973 2.121 . S
O978 C986 1.258 . S
C979 N980 1.326 . S
C979 C983 1.460 . S
C979 H985 0.929 . S
N980 Mn973 2.257 . S
N980 C979 1.326 . S
N980 C984 1.362 . S
C981 C982 1.258 . S
C981 C984 1.431 . S
C981 C1001 1.449 . S
C982 C981 1.258 . S
C982 C983 1.477 . S
C982 H1002 0.931 . S
C983 C979 1.460 . S
C983 C982 1.477 . S
C983 H1003 0.930 . S
C984 N980 1.362 . S
C984 C981 1.431 . S
C984 C994 1.476 . S
H985 C979 0.929 . S
C986 O977 1.250 . S
C986 O978 1.258 . S
O987 Mn972 2.162 . S
O987 C975 1.281 . S
O988 Mn972 2.297 . S
O988 C975 1.236 . S
N989 Mn973 2.282 . S
N989 C990 1.328 . S
N989 C994 1.318 . S
C990 N989 1.328 . S
C990 C991 1.457 . S
C990 H995 0.929 . S
C991 C990 1.457 . S
C991 C992 1.291 . S
C991 H1004 0.931 . S
C992 C991 1.291 . S
C992 C993 1.373 . S
C992 H1005 0.929 . S
C993 C992 1.373 . S
C993 C994 1.396 . S
C993 C1000 1.403 . S
C994 C984 1.476 . S
C994 N989 1.318 . S
C994 C993 1.396 . S
H995 C990 0.929 . S
O996 Mn972 2.385 . S
O996 C974 1.234 . S
O997 Mn972 2.209 . S
O997 Mn973 2.215 . S
O997 C974 1.283 . S
O998 Mn972 2.094 . S
O998 C976 1.240 . S
O999 Mn973 2.117 . S
O999 C976 1.264 . S
C1000 C993 1.403 . S
C1000 C1001 1.399 . S
C1000 H1006 0.929 . S
C1001 C981 1.449 . S
C1001 C1000 1.399 . S
C1001 H1007 0.930 . S
H1002 C982 0.931 . S
H1003 C983 0.930 . S
H1004 C991 0.931 . S
H1005 C992 0.929 . S
H1006 C1000 0.929 . S
H1007 C1001 0.930 . S
Mn1008 O1013 2.095 . S
Mn1008 O1023 2.162 . S
Mn1008 O1024 2.297 . S
Mn1008 O1032 2.385 . S
Mn1008 O1033 2.209 . S
Mn1008 O1034 2.094 . S
Mn1009 O1014 2.121 . S
Mn1009 N1016 2.257 . S
Mn1009 N1025 2.282 . S
Mn1009 O1033 2.215 . S
Mn1009 O1035 2.117 . S
C1010 O1032 1.234 . S
C1010 O1033 1.283 . S
C1011 O1023 1.281 . S
C1011 O1024 1.236 . S
C1012 O1034 1.240 . S
C1012 O1035 1.264 . S
O1013 Mn1008 2.095 . S
O1013 C1022 1.250 . S
O1014 Mn1009 2.121 . S
O1014 C1022 1.258 . S
C1015 N1016 1.326 . S
C1015 C1019 1.460 . S
C1015 H1021 0.929 . S
N1016 Mn1009 2.257 . S
N1016 C1015 1.326 . S
N1016 C1020 1.362 . S
C1017 C1018 1.258 . S
C1017 C1020 1.431 . S
C1017 C1037 1.449 . S
C1018 C1017 1.258 . S
C1018 C1019 1.477 . S
C1018 H1038 0.931 . S
C1019 C1015 1.460 . S
C1019 C1018 1.477 . S
C1019 H1039 0.930 . S
C1020 N1016 1.362 . S
C1020 C1017 1.431 . S
C1020 C1030 1.476 . S
H1021 C1015 0.929 . S
C1022 O1013 1.250 . S
C1022 O1014 1.258 . S
O1023 Mn1008 2.162 . S
O1023 C1011 1.281 . S
O1024 Mn1008 2.297 . S
O1024 C1011 1.236 . S
N1025 Mn1009 2.282 . S
N1025 C1026 1.328 . S
N1025 C1030 1.318 . S
C1026 N1025 1.328 . S
C1026 C1027 1.457 . S
C1026 H1031 0.929 . S
C1027 C1026 1.457 . S
C1027 C1028 1.291 . S
C1027 H1040 0.931 . S
C1028 C1027 1.291 . S
C1028 C1029 1.373 . S
C1028 H1041 0.929 . S
C1029 C1028 1.373 . S
C1029 C1030 1.396 . S
C1029 C1036 1.403 . S
C1030 C1020 1.476 . S
C1030 N1025 1.318 . S
C1030 C1029 1.396 . S
H1031 C1026 0.929 . S
O1032 Mn1008 2.385 . S
O1032 C1010 1.234 . S
O1033 Mn1008 2.209 . S
O1033 Mn1009 2.215 . S
O1033 C1010 1.283 . S
O1034 Mn1008 2.094 . S
O1034 C1012 1.240 . S
O1035 Mn1009 2.117 . S
O1035 C1012 1.264 . S
C1036 C1029 1.403 . S
C1036 C1037 1.399 . S
C1036 H1042 0.929 . S
C1037 C1017 1.449 . S
C1037 C1036 1.399 . S
C1037 H1043 0.930 . S
H1038 C1018 0.931 . S
H1039 C1019 0.930 . S
H1040 C1027 0.931 . S
H1041 C1028 0.929 . S
H1042 C1036 0.929 . S
H1043 C1037 0.930 . S
Mn1044 O1049 2.095 . S
Mn1044 O1059 2.162 . S
Mn1044 O1060 2.297 . S
Mn1044 O1068 2.385 . S
Mn1044 O1069 2.209 . S
Mn1044 O1070 2.094 . S
Mn1045 O1050 2.121 . S
Mn1045 N1052 2.257 . S
Mn1045 N1061 2.282 . S
Mn1045 O1069 2.215 . S
Mn1045 O1071 2.117 . S
C1046 O1068 1.234 . S
C1046 O1069 1.283 . S
C1047 O1059 1.281 . S
C1047 O1060 1.236 . S
C1048 O1070 1.240 . S
C1048 O1071 1.264 . S
O1049 Mn1044 2.095 . S
O1049 C1058 1.250 . S
O1050 Mn1045 2.121 . S
O1050 C1058 1.258 . S
C1051 N1052 1.326 . S
C1051 C1055 1.460 . S
C1051 H1057 0.929 . S
N1052 Mn1045 2.257 . S
N1052 C1051 1.326 . S
N1052 C1056 1.362 . S
C1053 C1054 1.258 . S
C1053 C1056 1.431 . S
C1053 C1073 1.449 . S
C1054 C1053 1.258 . S
C1054 C1055 1.477 . S
C1054 H1074 0.931 . S
C1055 C1051 1.460 . S
C1055 C1054 1.477 . S
C1055 H1075 0.930 . S
C1056 N1052 1.362 . S
C1056 C1053 1.431 . S
C1056 C1066 1.476 . S
H1057 C1051 0.929 . S
C1058 O1049 1.250 . S
C1058 O1050 1.258 . S
O1059 Mn1044 2.162 . S
O1059 C1047 1.281 . S
O1060 Mn1044 2.297 . S
O1060 C1047 1.236 . S
N1061 Mn1045 2.282 . S
N1061 C1062 1.328 . S
N1061 C1066 1.318 . S
C1062 N1061 1.328 . S
C1062 C1063 1.457 . S
C1062 H1067 0.929 . S
C1063 C1062 1.457 . S
C1063 C1064 1.291 . S
C1063 H1076 0.931 . S
C1064 C1063 1.291 . S
C1064 C1065 1.373 . S
C1064 H1077 0.929 . S
C1065 C1064 1.373 . S
C1065 C1066 1.396 . S
C1065 C1072 1.403 . S
C1066 C1056 1.476 . S
C1066 N1061 1.318 . S
C1066 C1065 1.396 . S
H1067 C1062 0.929 . S
O1068 Mn1044 2.385 . S
O1068 C1046 1.234 . S
O1069 Mn1044 2.209 . S
O1069 Mn1045 2.215 . S
O1069 C1046 1.283 . S
O1070 Mn1044 2.094 . S
O1070 C1048 1.240 . S
O1071 Mn1045 2.117 . S
O1071 C1048 1.264 . S
C1072 C1065 1.403 . S
C1072 C1073 1.399 . S
C1072 H1078 0.929 . S
C1073 C1053 1.449 . S
C1073 C1072 1.399 . S
C1073 H1079 0.930 . S
H1074 C1054 0.931 . S
H1075 C1055 0.930 . S
H1076 C1063 0.931 . S
H1077 C1064 0.929 . S
H1078 C1072 0.929 . S
H1079 C1073 0.930 . S
Mn1080 O1085 2.095 . S
Mn1080 O1095 2.162 . S
Mn1080 O1096 2.297 . S
Mn1080 O1104 2.385 . S
Mn1080 O1105 2.209 . S
Mn1080 O1106 2.094 . S
Mn1081 O1086 2.121 . S
Mn1081 N1088 2.257 . S
Mn1081 N1097 2.282 . S
Mn1081 O1105 2.215 . S
Mn1081 O1107 2.117 . S
C1082 O1104 1.234 . S
C1082 O1105 1.283 . S
C1083 O1095 1.281 . S
C1083 O1096 1.236 . S
C1084 O1106 1.240 . S
C1084 O1107 1.264 . S
O1085 Mn1080 2.095 . S
O1085 C1094 1.250 . S
O1086 Mn1081 2.121 . S
O1086 C1094 1.258 . S
C1087 N1088 1.326 . S
C1087 C1091 1.460 . S
C1087 H1093 0.929 . S
N1088 Mn1081 2.257 . S
N1088 C1087 1.326 . S
N1088 C1092 1.362 . S
C1089 C1090 1.258 . S
C1089 C1092 1.431 . S
C1089 C1109 1.449 . S
C1090 C1089 1.258 . S
C1090 C1091 1.477 . S
C1090 H1110 0.931 . S
C1091 C1087 1.460 . S
C1091 C1090 1.477 . S
C1091 H1111 0.930 . S
C1092 N1088 1.362 . S
C1092 C1089 1.431 . S
C1092 C1102 1.476 . S
H1093 C1087 0.929 . S
C1094 O1085 1.250 . S
C1094 O1086 1.258 . S
O1095 Mn1080 2.162 . S
O1095 C1083 1.281 . S
O1096 Mn1080 2.297 . S
O1096 C1083 1.236 . S
N1097 Mn1081 2.282 . S
N1097 C1098 1.328 . S
N1097 C1102 1.318 . S
C1098 N1097 1.328 . S
C1098 C1099 1.457 . S
C1098 H1103 0.929 . S
C1099 C1098 1.457 . S
C1099 C1100 1.291 . S
C1099 H1112 0.931 . S
C1100 C1099 1.291 . S
C1100 C1101 1.373 . S
C1100 H1113 0.929 . S
C1101 C1100 1.373 . S
C1101 C1102 1.396 . S
C1101 C1108 1.403 . S
C1102 C1092 1.476 . S
C1102 N1097 1.318 . S
C1102 C1101 1.396 . S
H1103 C1098 0.929 . S
O1104 Mn1080 2.385 . S
O1104 C1082 1.234 . S
O1105 Mn1080 2.209 . S
O1105 Mn1081 2.215 . S
O1105 C1082 1.283 . S
O1106 Mn1080 2.094 . S
O1106 C1084 1.240 . S
O1107 Mn1081 2.117 . S
O1107 C1084 1.264 . S
C1108 C1101 1.403 . S
C1108 C1109 1.399 . S
C1108 H1114 0.929 . S
C1109 C1089 1.449 . S
C1109 C1108 1.399 . S
C1109 H1115 0.930 . S
H1110 C1090 0.931 . S
H1111 C1091 0.930 . S
H1112 C1099 0.931 . S
H1113 C1100 0.929 . S
H1114 C1108 0.929 . S
H1115 C1109 0.930 . S
Mn1116 O1121 2.095 . S
Mn1116 O1131 2.162 . S
Mn1116 O1132 2.297 . S
Mn1116 O1140 2.385 . S
Mn1116 O1141 2.209 . S
Mn1116 O1142 2.094 . S
Mn1117 O1122 2.121 . S
Mn1117 N1124 2.257 . S
Mn1117 N1133 2.282 . S
Mn1117 O1141 2.215 . S
Mn1117 O1143 2.117 . S
C1118 O1140 1.234 . S
C1118 O1141 1.283 . S
C1119 O1131 1.281 . S
C1119 O1132 1.236 . S
C1120 O1142 1.240 . S
C1120 O1143 1.264 . S
O1121 Mn1116 2.095 . S
O1121 C1130 1.250 . S
O1122 Mn1117 2.121 . S
O1122 C1130 1.258 . S
C1123 N1124 1.326 . S
C1123 C1127 1.460 . S
C1123 H1129 0.929 . S
N1124 Mn1117 2.257 . S
N1124 C1123 1.326 . S
N1124 C1128 1.362 . S
C1125 C1126 1.258 . S
C1125 C1128 1.431 . S
C1125 C1145 1.449 . S
C1126 C1125 1.258 . S
C1126 C1127 1.477 . S
C1126 H1146 0.931 . S
C1127 C1123 1.460 . S
C1127 C1126 1.477 . S
C1127 H1147 0.930 . S
C1128 N1124 1.362 . S
C1128 C1125 1.431 . S
C1128 C1138 1.476 . S
H1129 C1123 0.929 . S
C1130 O1121 1.250 . S
C1130 O1122 1.258 . S
O1131 Mn1116 2.162 . S
O1131 C1119 1.281 . S
O1132 Mn1116 2.297 . S
O1132 C1119 1.236 . S
N1133 Mn1117 2.282 . S
N1133 C1134 1.328 . S
N1133 C1138 1.318 . S
C1134 N1133 1.328 . S
C1134 C1135 1.457 . S
C1134 H1139 0.929 . S
C1135 C1134 1.457 . S
C1135 C1136 1.291 . S
C1135 H1148 0.931 . S
C1136 C1135 1.291 . S
C1136 C1137 1.373 . S
C1136 H1149 0.929 . S
C1137 C1136 1.373 . S
C1137 C1138 1.396 . S
C1137 C1144 1.403 . S
C1138 C1128 1.476 . S
C1138 N1133 1.318 . S
C1138 C1137 1.396 . S
H1139 C1134 0.929 . S
O1140 Mn1116 2.385 . S
O1140 C1118 1.234 . S
O1141 Mn1116 2.209 . S
O1141 Mn1117 2.215 . S
O1141 C1118 1.283 . S
O1142 Mn1116 2.094 . S
O1142 C1120 1.240 . S
O1143 Mn1117 2.117 . S
O1143 C1120 1.264 . S
C1144 C1137 1.403 . S
C1144 C1145 1.399 . S
C1144 H1150 0.929 . S
C1145 C1125 1.449 . S
C1145 C1144 1.399 . S
C1145 H1151 0.930 . S
H1146 C1126 0.931 . S
H1147 C1127 0.930 . S
H1148 C1135 0.931 . S
H1149 C1136 0.929 . S
H1150 C1144 0.929 . S
H1151 C1145 0.930 . S
Mn1152 O1157 2.095 . S
Mn1152 O1167 2.162 . S
Mn1152 O1168 2.297 . S
Mn1152 O1176 2.385 . S
Mn1152 O1177 2.209 . S
Mn1152 O1178 2.094 . S
Mn1153 O1158 2.121 . S
Mn1153 N1160 2.257 . S
Mn1153 N1169 2.282 . S
Mn1153 O1177 2.215 . S
Mn1153 O1179 2.117 . S
C1154 O1176 1.234 . S
C1154 O1177 1.283 . S
C1155 O1167 1.281 . S
C1155 O1168 1.236 . S
C1156 O1178 1.240 . S
C1156 O1179 1.264 . S
O1157 Mn1152 2.095 . S
O1157 C1166 1.250 . S
O1158 Mn1153 2.121 . S
O1158 C1166 1.258 . S
C1159 N1160 1.326 . S
C1159 C1163 1.460 . S
C1159 H1165 0.929 . S
N1160 Mn1153 2.257 . S
N1160 C1159 1.326 . S
N1160 C1164 1.362 . S
C1161 C1162 1.258 . S
C1161 C1164 1.431 . S
C1161 C1181 1.449 . S
C1162 C1161 1.258 . S
C1162 C1163 1.477 . S
C1162 H1182 0.931 . S
C1163 C1159 1.460 . S
C1163 C1162 1.477 . S
C1163 H1183 0.930 . S
C1164 N1160 1.362 . S
C1164 C1161 1.431 . S
C1164 C1174 1.476 . S
H1165 C1159 0.929 . S
C1166 O1157 1.250 . S
C1166 O1158 1.258 . S
O1167 Mn1152 2.162 . S
O1167 C1155 1.281 . S
O1168 Mn1152 2.297 . S
O1168 C1155 1.236 . S
N1169 Mn1153 2.282 . S
N1169 C1170 1.328 . S
N1169 C1174 1.318 . S
C1170 N1169 1.328 . S
C1170 C1171 1.457 . S
C1170 H1175 0.929 . S
C1171 C1170 1.457 . S
C1171 C1172 1.291 . S
C1171 H1184 0.931 . S
C1172 C1171 1.291 . S
C1172 C1173 1.373 . S
C1172 H1185 0.929 . S
C1173 C1172 1.373 . S
C1173 C1174 1.396 . S
C1173 C1180 1.403 . S
C1174 C1164 1.476 . S
C1174 N1169 1.318 . S
C1174 C1173 1.396 . S
H1175 C1170 0.929 . S
O1176 Mn1152 2.385 . S
O1176 C1154 1.234 . S
O1177 Mn1152 2.209 . S
O1177 Mn1153 2.215 . S
O1177 C1154 1.283 . S
O1178 Mn1152 2.094 . S
O1178 C1156 1.240 . S
O1179 Mn1153 2.117 . S
O1179 C1156 1.264 . S
C1180 C1173 1.403 . S
C1180 C1181 1.399 . S
C1180 H1186 0.929 . S
C1181 C1161 1.449 . S
C1181 C1180 1.399 . S
C1181 H1187 0.930 . S
H1182 C1162 0.931 . S
H1183 C1163 0.930 . S
H1184 C1171 0.931 . S
H1185 C1172 0.929 . S
H1186 C1180 0.929 . S
H1187 C1181 0.930 . S
Mn1188 O1193 2.095 . S
Mn1188 O1203 2.162 . S
Mn1188 O1204 2.297 . S
Mn1188 O1212 2.385 . S
Mn1188 O1213 2.209 . S
Mn1188 O1214 2.094 . S
Mn1189 O1194 2.121 . S
Mn1189 N1196 2.257 . S
Mn1189 N1205 2.282 . S
Mn1189 O1213 2.215 . S
Mn1189 O1215 2.117 . S
C1190 O1212 1.234 . S
C1190 O1213 1.283 . S
C1191 O1203 1.281 . S
C1191 O1204 1.236 . S
C1192 O1214 1.240 . S
C1192 O1215 1.264 . S
O1193 Mn1188 2.095 . S
O1193 C1202 1.250 . S
O1194 Mn1189 2.121 . S
O1194 C1202 1.258 . S
C1195 N1196 1.326 . S
C1195 C1199 1.460 . S
C1195 H1201 0.929 . S
N1196 Mn1189 2.257 . S
N1196 C1195 1.326 . S
N1196 C1200 1.362 . S
C1197 C1198 1.258 . S
C1197 C1200 1.431 . S
C1197 C1217 1.449 . S
C1198 C1197 1.258 . S
C1198 C1199 1.477 . S
C1198 H1218 0.931 . S
C1199 C1195 1.460 . S
C1199 C1198 1.477 . S
C1199 H1219 0.930 . S
C1200 N1196 1.362 . S
C1200 C1197 1.431 . S
C1200 C1210 1.476 . S
H1201 C1195 0.929 . S
C1202 O1193 1.250 . S
C1202 O1194 1.258 . S
O1203 Mn1188 2.162 . S
O1203 C1191 1.281 . S
O1204 Mn1188 2.297 . S
O1204 C1191 1.236 . S
N1205 Mn1189 2.282 . S
N1205 C1206 1.328 . S
N1205 C1210 1.318 . S
C1206 N1205 1.328 . S
C1206 C1207 1.457 . S
C1206 H1211 0.929 . S
C1207 C1206 1.457 . S
C1207 C1208 1.291 . S
C1207 H1220 0.931 . S
C1208 C1207 1.291 . S
C1208 C1209 1.373 . S
C1208 H1221 0.929 . S
C1209 C1208 1.373 . S
C1209 C1210 1.396 . S
C1209 C1216 1.403 . S
C1210 C1200 1.476 . S
C1210 N1205 1.318 . S
C1210 C1209 1.396 . S
H1211 C1206 0.929 . S
O1212 Mn1188 2.385 . S
O1212 C1190 1.234 . S
O1213 Mn1188 2.209 . S
O1213 Mn1189 2.215 . S
O1213 C1190 1.283 . S
O1214 Mn1188 2.094 . S
O1214 C1192 1.240 . S
O1215 Mn1189 2.117 . S
O1215 C1192 1.264 . S
C1216 C1209 1.403 . S
C1216 C1217 1.399 . S
C1216 H1222 0.929 . S
C1217 C1197 1.449 . S
C1217 C1216 1.399 . S
C1217 H1223 0.930 . S
H1218 C1198 0.931 . S
H1219 C1199 0.930 . S
H1220 C1207 0.931 . S
H1221 C1208 0.929 . S
H1222 C1216 0.929 . S
H1223 C1217 0.930 . S
Mn1224 O1229 2.095 . S
Mn1224 O1239 2.162 . S
Mn1224 O1240 2.297 . S
Mn1224 O1248 2.385 . S
Mn1224 O1249 2.209 . S
Mn1224 O1250 2.094 . S
Mn1225 O1230 2.121 . S
Mn1225 N1232 2.257 . S
Mn1225 N1241 2.282 . S
Mn1225 O1249 2.215 . S
Mn1225 O1251 2.117 . S
C1226 O1248 1.234 . S
C1226 O1249 1.283 . S
C1227 O1239 1.281 . S
C1227 O1240 1.236 . S
C1228 O1250 1.240 . S
C1228 O1251 1.264 . S
O1229 Mn1224 2.095 . S
O1229 C1238 1.250 . S
O1230 Mn1225 2.121 . S
O1230 C1238 1.258 . S
C1231 N1232 1.326 . S
C1231 C1235 1.460 . S
C1231 H1237 0.929 . S
N1232 Mn1225 2.257 . S
N1232 C1231 1.326 . S
N1232 C1236 1.362 . S
C1233 C1234 1.258 . S
C1233 C1236 1.431 . S
C1233 C1253 1.449 . S
C1234 C1233 1.258 . S
C1234 C1235 1.477 . S
C1234 H1254 0.931 . S
C1235 C1231 1.460 . S
C1235 C1234 1.477 . S
C1235 H1255 0.930 . S
C1236 N1232 1.362 . S
C1236 C1233 1.431 . S
C1236 C1246 1.476 . S
H1237 C1231 0.929 . S
C1238 O1229 1.250 . S
C1238 O1230 1.258 . S
O1239 Mn1224 2.162 . S
O1239 C1227 1.281 . S
O1240 Mn1224 2.297 . S
O1240 C1227 1.236 . S
N1241 Mn1225 2.282 . S
N1241 C1242 1.328 . S
N1241 C1246 1.318 . S
C1242 N1241 1.328 . S
C1242 C1243 1.457 . S
C1242 H1247 0.929 . S
C1243 C1242 1.457 . S
C1243 C1244 1.291 . S
C1243 H1256 0.931 . S
C1244 C1243 1.291 . S
C1244 C1245 1.373 . S
C1244 H1257 0.929 . S
C1245 C1244 1.373 . S
C1245 C1246 1.396 . S
C1245 C1252 1.403 . S
C1246 C1236 1.476 . S
C1246 N1241 1.318 . S
C1246 C1245 1.396 . S
H1247 C1242 0.929 . S
O1248 Mn1224 2.385 . S
O1248 C1226 1.234 . S
O1249 Mn1224 2.209 . S
O1249 Mn1225 2.215 . S
O1249 C1226 1.283 . S
O1250 Mn1224 2.094 . S
O1250 C1228 1.240 . S
O1251 Mn1225 2.117 . S
O1251 C1228 1.264 . S
C1252 C1245 1.403 . S
C1252 C1253 1.399 . S
C1252 H1258 0.929 . S
C1253 C1233 1.449 . S
C1253 C1252 1.399 . S
C1253 H1259 0.930 . S
H1254 C1234 0.931 . S
H1255 C1235 0.930 . S
H1256 C1243 0.931 . S
H1257 C1244 0.929 . S
H1258 C1252 0.929 . S
H1259 C1253 0.930 . S
Mn1260 O1265 2.095 . S
Mn1260 O1275 2.162 . S
Mn1260 O1276 2.297 . S
Mn1260 O1284 2.385 . S
Mn1260 O1285 2.209 . S
Mn1260 O1286 2.094 . S
Mn1261 O1266 2.121 . S
Mn1261 N1268 2.257 . S
Mn1261 N1277 2.282 . S
Mn1261 O1285 2.215 . S
Mn1261 O1287 2.117 . S
C1262 O1284 1.234 . S
C1262 O1285 1.283 . S
C1263 O1275 1.281 . S
C1263 O1276 1.236 . S
C1264 O1286 1.240 . S
C1264 O1287 1.264 . S
O1265 Mn1260 2.095 . S
O1265 C1274 1.250 . S
O1266 Mn1261 2.121 . S
O1266 C1274 1.258 . S
C1267 N1268 1.326 . S
C1267 C1271 1.460 . S
C1267 H1273 0.929 . S
N1268 Mn1261 2.257 . S
N1268 C1267 1.326 . S
N1268 C1272 1.362 . S
C1269 C1270 1.258 . S
C1269 C1272 1.431 . S
C1269 C1289 1.449 . S
C1270 C1269 1.258 . S
C1270 C1271 1.477 . S
C1270 H1290 0.931 . S
C1271 C1267 1.460 . S
C1271 C1270 1.477 . S
C1271 H1291 0.930 . S
C1272 N1268 1.362 . S
C1272 C1269 1.431 . S
C1272 C1282 1.476 . S
H1273 C1267 0.929 . S
C1274 O1265 1.250 . S
C1274 O1266 1.258 . S
O1275 Mn1260 2.162 . S
O1275 C1263 1.281 . S
O1276 Mn1260 2.297 . S
O1276 C1263 1.236 . S
N1277 Mn1261 2.282 . S
N1277 C1278 1.328 . S
N1277 C1282 1.318 . S
C1278 N1277 1.328 . S
C1278 C1279 1.457 . S
C1278 H1283 0.929 . S
C1279 C1278 1.457 . S
C1279 C1280 1.291 . S
C1279 H1292 0.931 . S
C1280 C1279 1.291 . S
C1280 C1281 1.373 . S
C1280 H1293 0.929 . S
C1281 C1280 1.373 . S
C1281 C1282 1.396 . S
C1281 C1288 1.403 . S
C1282 C1272 1.476 . S
C1282 N1277 1.318 . S
C1282 C1281 1.396 . S
H1283 C1278 0.929 . S
O1284 Mn1260 2.385 . S
O1284 C1262 1.234 . S
O1285 Mn1260 2.209 . S
O1285 Mn1261 2.215 . S
O1285 C1262 1.283 . S
O1286 Mn1260 2.094 . S
O1286 C1264 1.240 . S
O1287 Mn1261 2.117 . S
O1287 C1264 1.264 . S
C1288 C1281 1.403 . S
C1288 C1289 1.399 . S
C1288 H1294 0.929 . S
C1289 C1269 1.449 . S
C1289 C1288 1.399 . S
C1289 H1295 0.930 . S
H1290 C1270 0.931 . S
H1291 C1271 0.930 . S
H1292 C1279 0.931 . S
H1293 C1280 0.929 . S
H1294 C1288 0.929 . S
H1295 C1289 0.930 . S
H1296 C1304 0.929 . S
H1297 C1306 0.930 . S
H1298 C1308 0.930 . S
H1299 C1311 0.929 . S
H1300 C1314 0.930 . S
H1301 C1316 0.960 . S
H1302 C1316 0.960 . S
H1303 C1316 0.960 . S
C1304 H1296 0.929 . S
C1304 C1305 1.377 . S
C1304 C1306 1.384 . S
C1305 C1304 1.377 . S
C1305 C1311 1.390 . S
C1306 H1297 0.930 . S
C1306 C1304 1.384 . S
C1306 C1307 1.372 . S
C1307 C1306 1.372 . S
C1307 C1308 1.400 . S
C1307 C1312 1.490 . S
C1308 H1298 0.930 . S
C1308 C1307 1.400 . S
C1308 C1311 1.386 . S
H1309 C1325 0.930 1_554 S
H1310 C1326 0.931 . S
C1311 H1299 0.929 . S
C1311 C1305 1.390 . S
C1311 C1308 1.386 . S
C1312 C1307 1.490 . S
C1312 C1314 1.395 . S
C1312 C1315 1.403 . S
H1313 C1319 0.930 . S
C1314 H1300 0.930 . S
C1314 C1312 1.395 . S
C1314 C1317 1.403 . S
C1315 C1312 1.403 . S
C1315 C1316 1.524 . S
C1315 C1319 1.400 . S
C1316 H1301 0.960 . S
C1316 H1302 0.960 . S
C1316 H1303 0.960 . S
C1316 C1315 1.524 . S
C1317 C1314 1.403 . S
C1317 C1318 1.392 . S
C1317 C1321 1.495 . S
C1318 C1317 1.392 . S
C1318 C1319 1.385 . S
C1318 C1320 1.478 . S
C1319 H1313 0.930 . S
C1319 C1315 1.400 . S
C1319 C1318 1.385 . S
C1320 C1318 1.478 . S
C1320 C1322 1.381 . S
C1320 C1326 1.383 . S
C1321 C1317 1.495 . S
C1321 H1327 0.959 . S
C1321 H1328 0.961 . S
C1321 H1329 0.960 . S
C1322 C1320 1.381 . S
C1322 C1323 1.394 . S
C1322 H1330 0.930 . S
C1323 C1322 1.394 . S
C1323 C1324 1.383 . S
C1323 H1331 0.929 . S
C1324 C1323 1.383 . S
C1324 C1325 1.377 . S
C1325 H1309 0.930 1_556 S
C1325 C1324 1.377 . S
C1325 C1326 1.379 . S
C1326 H1310 0.931 . S
C1326 C1320 1.383 . S
C1326 C1325 1.379 . S
H1327 C1321 0.959 . S
H1328 C1321 0.961 . S
H1329 C1321 0.960 . S
H1330 C1322 0.930 . S
H1331 C1323 0.929 . S
H1332 C1340 0.929 . S
H1333 C1342 0.930 . S
H1334 C1344 0.930 . S
H1335 C1347 0.929 . S
H1336 C1350 0.930 . S
H1337 C1352 0.960 . S
H1338 C1352 0.960 . S
H1339 C1352 0.960 . S
C1340 H1332 0.929 . S
C1340 C1341 1.377 . S
C1340 C1342 1.384 . S
C1341 C1340 1.377 . S
C1341 C1347 1.390 . S
C1342 H1333 0.930 . S
C1342 C1340 1.384 . S
C1342 C1343 1.372 . S
C1343 C1342 1.372 . S
C1343 C1344 1.400 . S
C1343 C1348 1.490 . S
C1344 H1334 0.930 . S
C1344 C1343 1.400 . S
C1344 C1347 1.386 . S
H1345 C1361 0.930 . S
H1346 C1362 0.931 . S
C1347 H1335 0.929 . S
C1347 C1341 1.390 . S
C1347 C1344 1.386 . S
C1348 C1343 1.490 . S
C1348 C1350 1.395 . S
C1348 C1351 1.403 . S
H1349 C1355 0.930 . S
C1350 H1336 0.930 . S
C1350 C1348 1.395 . S
C1350 C1353 1.403 . S
C1351 C1348 1.403 . S
C1351 C1352 1.524 . S
C1351 C1355 1.400 . S
C1352 H1337 0.960 . S
C1352 H1338 0.960 . S
C1352 H1339 0.960 . S
C1352 C1351 1.524 . S
C1353 C1350 1.403 . S
C1353 C1354 1.392 . S
C1353 C1357 1.495 . S
C1354 C1353 1.392 . S
C1354 C1355 1.385 . S
C1354 C1356 1.478 . S
C1355 H1349 0.930 . S
C1355 C1351 1.400 . S
C1355 C1354 1.385 . S
C1356 C1354 1.478 . S
C1356 C1358 1.381 . S
C1356 C1362 1.383 . S
C1357 C1353 1.495 . S
C1357 H1363 0.959 . S
C1357 H1364 0.961 . S
C1357 H1365 0.960 . S
C1358 C1356 1.381 . S
C1358 C1359 1.394 1_556 S
C1358 H1366 0.930 . S
C1359 C1358 1.394 1_554 S
C1359 C1360 1.383 1_554 S
C1359 H1367 0.929 . S
C1360 C1359 1.383 1_556 S
C1360 C1361 1.377 . S
C1361 H1345 0.930 . S
C1361 C1360 1.377 . S
C1361 C1362 1.379 . S
C1362 H1346 0.931 . S
C1362 C1356 1.383 . S
C1362 C1361 1.379 . S
H1363 C1357 0.959 . S
H1364 C1357 0.961 . S
H1365 C1357 0.960 . S
H1366 C1358 0.930 . S
H1367 C1359 0.929 . S
H1368 C1376 0.929 1_554 S
H1369 C1378 0.930 . S
H1370 C1380 0.930 . S
H1371 C1383 0.929 . S
H1372 C1386 0.930 . S
H1373 C1388 0.960 . S
H1374 C1388 0.960 . S
H1375 C1388 0.960 . S
C1376 H1368 0.929 1_556 S
C1376 C1377 1.377 . S
C1376 C1378 1.384 . S
C1377 C1376 1.377 . S
C1377 C1383 1.390 . S
C1378 H1369 0.930 . S
C1378 C1376 1.384 . S
C1378 C1379 1.372 . S
C1379 C1378 1.372 . S
C1379 C1380 1.400 . S
C1379 C1384 1.490 . S
C1380 H1370 0.930 . S
C1380 C1379 1.400 . S
C1380 C1383 1.386 . S
H1381 C1397 0.930 . S
H1382 C1398 0.931 . S
C1383 H1371 0.929 . S
C1383 C1377 1.390 . S
C1383 C1380 1.386 . S
C1384 C1379 1.490 . S
C1384 C1386 1.395 . S
C1384 C1387 1.403 . S
H1385 C1391 0.930 . S
C1386 H1372 0.930 . S
C1386 C1384 1.395 . S
C1386 C1389 1.403 . S
C1387 C1384 1.403 . S
C1387 C1388 1.524 . S
C1387 C1391 1.400 . S
C1388 H1373 0.960 . S
C1388 H1374 0.960 . S
C1388 H1375 0.960 . S
C1388 C1387 1.524 . S
C1389 C1386 1.403 . S
C1389 C1390 1.392 . S
C1389 C1393 1.495 . S
C1390 C1389 1.392 . S
C1390 C1391 1.385 . S
C1390 C1392 1.478 . S
C1391 H1385 0.930 . S
C1391 C1387 1.400 . S
C1391 C1390 1.385 . S
C1392 C1390 1.478 . S
C1392 C1394 1.381 . S
C1392 C1398 1.383 . S
C1393 C1389 1.495 . S
C1393 H1399 0.959 . S
C1393 H1400 0.961 . S
C1393 H1401 0.960 . S
C1394 C1392 1.381 . S
C1394 C1395 1.394 . S
C1394 H1402 0.930 . S
C1395 C1394 1.394 . S
C1395 C1396 1.383 . S
C1395 H1403 0.929 . S
C1396 C1395 1.383 . S
C1396 C1397 1.377 . S
C1397 H1381 0.930 . S
C1397 C1396 1.377 . S
C1397 C1398 1.379 . S
C1398 H1382 0.931 . S
C1398 C1392 1.383 . S
C1398 C1397 1.379 . S
H1399 C1393 0.959 . S
H1400 C1393 0.961 . S
H1401 C1393 0.960 . S
H1402 C1394 0.930 . S
H1403 C1395 0.929 . S
H1404 C1412 0.929 . S
H1405 C1414 0.930 . S
H1406 C1416 0.930 . S
H1407 C1419 0.929 . S
H1408 C1422 0.930 . S
H1409 C1424 0.960 . S
H1410 C1424 0.960 . S
H1411 C1424 0.960 . S
C1412 H1404 0.929 . S
C1412 C1413 1.377 . S
C1412 C1414 1.384 . S
C1413 C1412 1.377 . S
C1413 C1419 1.390 . S
C1414 H1405 0.930 . S
C1414 C1412 1.384 . S
C1414 C1415 1.372 . S
C1415 C1414 1.372 . S
C1415 C1416 1.400 . S
C1415 C1420 1.490 . S
C1416 H1406 0.930 . S
C1416 C1415 1.400 . S
C1416 C1419 1.386 . S
H1417 C1433 0.930 . S
H1418 C1434 0.931 . S
C1419 H1407 0.929 . S
C1419 C1413 1.390 . S
C1419 C1416 1.386 . S
C1420 C1415 1.490 . S
C1420 C1422 1.395 . S
C1420 C1423 1.403 . S
H1421 C1427 0.930 . S
C1422 H1408 0.930 . S
C1422 C1420 1.395 . S
C1422 C1425 1.403 . S
C1423 C1420 1.403 . S
C1423 C1424 1.524 . S
C1423 C1427 1.400 . S
C1424 H1409 0.960 . S
C1424 H1410 0.960 . S
C1424 H1411 0.960 . S
C1424 C1423 1.524 . S
C1425 C1422 1.403 . S
C1425 C1426 1.392 . S
C1425 C1429 1.495 . S
C1426 C1425 1.392 . S
C1426 C1427 1.385 . S
C1426 C1428 1.478 . S
C1427 H1421 0.930 . S
C1427 C1423 1.400 . S
C1427 C1426 1.385 . S
C1428 C1426 1.478 . S
C1428 C1430 1.381 . S
C1428 C1434 1.383 . S
C1429 C1425 1.495 . S
C1429 H1435 0.959 . S
C1429 H1436 0.961 . S
C1429 H1437 0.960 . S
C1430 C1428 1.381 . S
C1430 C1431 1.394 . S
C1430 H1438 0.930 . S
C1431 C1430 1.394 . S
C1431 C1432 1.383 . S
C1431 H1439 0.929 . S
C1432 C1431 1.383 . S
C1432 C1433 1.377 . S
C1433 H1417 0.930 . S
C1433 C1432 1.377 . S
C1433 C1434 1.379 . S
C1434 H1418 0.931 . S
C1434 C1428 1.383 . S
C1434 C1433 1.379 . S
H1435 C1429 0.959 . S
H1436 C1429 0.961 . S
H1437 C1429 0.960 . S
H1438 C1430 0.930 . S
H1439 C1431 0.929 . S
H1440 C1448 0.929 . S
H1441 C1450 0.930 . S
H1442 C1452 0.930 . S
H1443 C1455 0.929 . S
H1444 C1458 0.930 . S
H1445 C1460 0.960 . S
H1446 C1460 0.960 . S
H1447 C1460 0.960 . S
C1448 H1440 0.929 . S
C1448 C1449 1.377 . S
C1448 C1450 1.384 . S
C1449 C1448 1.377 . S
C1449 C1455 1.390 . S
C1450 H1441 0.930 . S
C1450 C1448 1.384 . S
C1450 C1451 1.372 . S
C1451 C1450 1.372 . S
C1451 C1452 1.400 . S
C1451 C1456 1.490 . S
C1452 H1442 0.930 . S
C1452 C1451 1.400 . S
C1452 C1455 1.386 . S
H1453 C1469 0.930 . S
H1454 C1470 0.931 . S
C1455 H1443 0.929 . S
C1455 C1449 1.390 . S
C1455 C1452 1.386 . S
C1456 C1451 1.490 . S
C1456 C1458 1.395 . S
C1456 C1459 1.403 . S
H1457 C1463 0.930 . S
C1458 H1444 0.930 . S
C1458 C1456 1.395 . S
C1458 C1461 1.403 . S
C1459 C1456 1.403 . S
C1459 C1460 1.524 . S
C1459 C1463 1.400 . S
C1460 H1445 0.960 . S
C1460 H1446 0.960 . S
C1460 H1447 0.960 . S
C1460 C1459 1.524 . S
C1461 C1458 1.403 . S
C1461 C1462 1.392 . S
C1461 C1465 1.495 . S
C1462 C1461 1.392 . S
C1462 C1463 1.385 . S
C1462 C1464 1.478 . S
C1463 H1457 0.930 . S
C1463 C1459 1.400 . S
C1463 C1462 1.385 . S
C1464 C1462 1.478 . S
C1464 C1466 1.381 . S
C1464 C1470 1.383 . S
C1465 C1461 1.495 . S
C1465 H1471 0.959 . S
C1465 H1472 0.961 . S
C1465 H1473 0.960 . S
C1466 C1464 1.381 . S
C1466 C1467 1.394 . S
C1466 H1474 0.930 . S
C1467 C1466 1.394 . S
C1467 C1468 1.383 . S
C1467 H1475 0.929 . S
C1468 C1467 1.383 . S
C1468 C1469 1.377 . S
C1469 H1453 0.930 . S
C1469 C1468 1.377 . S
C1469 C1470 1.379 . S
C1470 H1454 0.931 . S
C1470 C1464 1.383 . S
C1470 C1469 1.379 . S
H1471 C1465 0.959 . S
H1472 C1465 0.961 . S
H1473 C1465 0.960 . S
H1474 C1466 0.930 . S
H1475 C1467 0.929 . S
H1476 C1484 0.929 . S
H1477 C1486 0.930 . S
H1478 C1488 0.930 . S
H1479 C1491 0.929 . S
H1480 C1494 0.930 . S
H1481 C1496 0.960 . S
H1482 C1496 0.960 . S
H1483 C1496 0.960 . S
C1484 H1476 0.929 . S
C1484 C1485 1.377 . S
C1484 C1486 1.384 . S
C1485 C1484 1.377 . S
C1485 C1491 1.390 . S
C1486 H1477 0.930 . S
C1486 C1484 1.384 . S
C1486 C1487 1.372 . S
C1487 C1486 1.372 . S
C1487 C1488 1.400 . S
C1487 C1492 1.490 . S
C1488 H1478 0.930 . S
C1488 C1487 1.400 . S
C1488 C1491 1.386 . S
H1489 C1505 0.930 . S
H1490 C1506 0.931 . S
C1491 H1479 0.929 . S
C1491 C1485 1.390 . S
C1491 C1488 1.386 . S
C1492 C1487 1.490 . S
C1492 C1494 1.395 . S
C1492 C1495 1.403 . S
H1493 C1499 0.930 . S
C1494 H1480 0.930 . S
C1494 C1492 1.395 . S
C1494 C1497 1.403 . S
C1495 C1492 1.403 . S
C1495 C1496 1.524 . S
C1495 C1499 1.400 . S
C1496 H1481 0.960 . S
C1496 H1482 0.960 . S
C1496 H1483 0.960 . S
C1496 C1495 1.524 . S
C1497 C1494 1.403 . S
C1497 C1498 1.392 . S
C1497 C1501 1.495 . S
C1498 C1497 1.392 . S
C1498 C1499 1.385 . S
C1498 C1500 1.478 . S
C1499 H1493 0.930 . S
C1499 C1495 1.400 . S
C1499 C1498 1.385 . S
C1500 C1498 1.478 . S
C1500 C1502 1.381 . S
C1500 C1506 1.383 . S
C1501 C1497 1.495 . S
C1501 H1507 0.959 . S
C1501 H1508 0.961 . S
C1501 H1509 0.960 . S
C1502 C1500 1.381 . S
C1502 C1503 1.394 . S
C1502 H1510 0.930 . S
C1503 C1502 1.394 . S
C1503 C1504 1.383 . S
C1503 H1511 0.929 . S
C1504 C1503 1.383 . S
C1504 C1505 1.377 . S
C1505 H1489 0.930 . S
C1505 C1504 1.377 . S
C1505 C1506 1.379 . S
C1506 H1490 0.931 . S
C1506 C1500 1.383 . S
C1506 C1505 1.379 . S
H1507 C1501 0.959 . S
H1508 C1501 0.961 . S
H1509 C1501 0.960 . S
H1510 C1502 0.930 . S
H1511 C1503 0.929 . S
H1512 C1520 0.929 . S
H1513 C1522 0.930 . S
H1514 C1524 0.930 . S
H1515 C1527 0.929 . S
H1516 C1530 0.930 . S
H1517 C1532 0.960 . S
H1518 C1532 0.960 . S
H1519 C1532 0.960 . S
C1520 H1512 0.929 . S
C1520 C1521 1.377 . S
C1520 C1522 1.384 . S
C1521 C1520 1.377 . S
C1521 C1527 1.390 . S
C1522 H1513 0.930 . S
C1522 C1520 1.384 . S
C1522 C1523 1.372 . S
C1523 C1522 1.372 . S
C1523 C1524 1.400 . S
C1523 C1528 1.490 . S
C1524 H1514 0.930 . S
C1524 C1523 1.400 . S
C1524 C1527 1.386 . S
H1525 C1541 0.930 . S
H1526 C1542 0.931 . S
C1527 H1515 0.929 . S
C1527 C1521 1.390 . S
C1527 C1524 1.386 . S
C1528 C1523 1.490 . S
C1528 C1530 1.395 . S
C1528 C1531 1.403 . S
H1529 C1535 0.930 . S
C1530 H1516 0.930 . S
C1530 C1528 1.395 . S
C1530 C1533 1.403 . S
C1531 C1528 1.403 . S
C1531 C1532 1.524 . S
C1531 C1535 1.400 . S
C1532 H1517 0.960 . S
C1532 H1518 0.960 . S
C1532 H1519 0.960 . S
C1532 C1531 1.524 . S
C1533 C1530 1.403 . S
C1533 C1534 1.392 . S
C1533 C1537 1.495 . S
C1534 C1533 1.392 . S
C1534 C1535 1.385 . S
C1534 C1536 1.478 . S
C1535 H1529 0.930 . S
C1535 C1531 1.400 . S
C1535 C1534 1.385 . S
C1536 C1534 1.478 . S
C1536 C1538 1.381 . S
C1536 C1542 1.383 . S
C1537 C1533 1.495 . S
C1537 H1543 0.959 . S
C1537 H1544 0.961 . S
C1537 H1545 0.960 . S
C1538 C1536 1.381 . S
C1538 C1539 1.395 1_554 S
C1538 H1546 0.930 . S
C1539 C1538 1.395 1_556 S
C1539 C1540 1.384 1_556 S
C1539 H1547 0.928 . S
C1540 C1539 1.384 1_554 S
C1540 C1541 1.377 . S
C1541 H1525 0.930 . S
C1541 C1540 1.377 . S
C1541 C1542 1.379 . S
C1542 H1526 0.931 . S
C1542 C1536 1.383 . S
C1542 C1541 1.379 . S
H1543 C1537 0.959 . S
H1544 C1537 0.961 . S
H1545 C1537 0.960 . S
H1546 C1538 0.930 . S
H1547 C1539 0.928 . S
H1548 C1556 0.929 . S
H1549 C1558 0.930 . S
H1550 C1560 0.930 . S
H1551 C1563 0.929 . S
H1552 C1566 0.930 . S
H1553 C1568 0.960 . S
H1554 C1568 0.960 . S
H1555 C1568 0.960 . S
C1556 H1548 0.929 . S
C1556 C1557 1.377 . S
C1556 C1558 1.384 . S
C1557 C1556 1.377 . S
C1557 C1563 1.390 . S
C1558 H1549 0.930 . S
C1558 C1556 1.384 . S
C1558 C1559 1.372 . S
C1559 C1558 1.372 . S
C1559 C1560 1.400 . S
C1559 C1564 1.490 . S
C1560 H1550 0.930 . S
C1560 C1559 1.400 . S
C1560 C1563 1.386 . S
H1561 C1577 0.930 . S
H1562 C1578 0.931 . S
C1563 H1551 0.929 . S
C1563 C1557 1.390 . S
C1563 C1560 1.386 . S
C1564 C1559 1.490 . S
C1564 C1566 1.395 . S
C1564 C1567 1.403 . S
H1565 C1571 0.930 . S
C1566 H1552 0.930 . S
C1566 C1564 1.395 . S
C1566 C1569 1.403 . S
C1567 C1564 1.403 . S
C1567 C1568 1.524 . S
C1567 C1571 1.400 . S
C1568 H1553 0.960 . S
C1568 H1554 0.960 . S
C1568 H1555 0.960 . S
C1568 C1567 1.524 . S
C1569 C1566 1.403 . S
C1569 C1570 1.392 . S
C1569 C1573 1.495 . S
C1570 C1569 1.392 . S
C1570 C1571 1.385 . S
C1570 C1572 1.478 . S
C1571 H1565 0.930 . S
C1571 C1567 1.400 . S
C1571 C1570 1.385 . S
C1572 C1570 1.478 . S
C1572 C1574 1.381 . S
C1572 C1578 1.383 . S
C1573 C1569 1.495 . S
C1573 H1579 0.959 . S
C1573 H1580 0.961 . S
C1573 H1581 0.960 . S
C1574 C1572 1.381 . S
C1574 C1575 1.394 . S
C1574 H1582 0.930 . S
C1575 C1574 1.394 . S
C1575 C1576 1.383 . S
C1575 H1583 0.929 . S
C1576 C1575 1.383 . S
C1576 C1577 1.377 . S
C1577 H1561 0.930 . S
C1577 C1576 1.377 . S
C1577 C1578 1.379 . S
C1578 H1562 0.931 . S
C1578 C1572 1.383 . S
C1578 C1577 1.379 . S
H1579 C1573 0.959 . S
H1580 C1573 0.961 . S
H1581 C1573 0.960 . S
H1582 C1574 0.930 . S
H1583 C1575 0.929 . S
H1584 C1592 0.929 . S
H1585 C1594 0.930 . S
H1586 C1596 0.930 . S
H1587 C1599 0.929 . S
H1588 C1602 0.930 . S
H1589 C1604 0.960 . S
H1590 C1604 0.960 . S
H1591 C1604 0.960 . S
C1592 H1584 0.929 . S
C1592 C1593 1.377 . S
C1592 C1594 1.384 . S
C1593 C1592 1.377 . S
C1593 C1599 1.390 . S
C1594 H1585 0.930 . S
C1594 C1592 1.384 . S
C1594 C1595 1.372 . S
C1595 C1594 1.372 . S
C1595 C1596 1.400 . S
C1595 C1600 1.490 . S
C1596 H1586 0.930 . S
C1596 C1595 1.400 . S
C1596 C1599 1.386 . S
H1597 C1613 0.930 . S
H1598 C1614 0.931 . S
C1599 H1587 0.929 . S
C1599 C1593 1.390 . S
C1599 C1596 1.386 . S
C1600 C1595 1.490 . S
C1600 C1602 1.395 . S
C1600 C1603 1.403 . S
H1601 C1607 0.930 . S
C1602 H1588 0.930 . S
C1602 C1600 1.395 . S
C1602 C1605 1.403 . S
C1603 C1600 1.403 . S
C1603 C1604 1.524 . S
C1603 C1607 1.400 . S
C1604 H1589 0.960 . S
C1604 H1590 0.960 . S
C1604 H1591 0.960 . S
C1604 C1603 1.524 . S
C1605 C1602 1.403 . S
C1605 C1606 1.392 . S
C1605 C1609 1.495 . S
C1606 C1605 1.392 . S
C1606 C1607 1.385 . S
C1606 C1608 1.478 . S
C1607 H1601 0.930 . S
C1607 C1603 1.400 . S
C1607 C1606 1.385 . S
C1608 C1606 1.478 . S
C1608 C1610 1.381 . S
C1608 C1614 1.383 . S
C1609 C1605 1.495 . S
C1609 H1615 0.959 . S
C1609 H1616 0.961 . S
C1609 H1617 0.960 . S
C1610 C1608 1.381 . S
C1610 C1611 1.394 . S
C1610 H1618 0.930 . S
C1611 C1610 1.394 . S
C1611 C1612 1.383 . S
C1611 H1619 0.929 . S
C1612 C1611 1.383 . S
C1612 C1613 1.377 . S
C1613 H1597 0.930 . S
C1613 C1612 1.377 . S
C1613 C1614 1.379 . S
C1614 H1598 0.931 . S
C1614 C1608 1.383 . S
C1614 C1613 1.379 . S
H1615 C1609 0.959 . S
H1616 C1609 0.961 . S
H1617 C1609 0.960 . S
H1618 C1610 0.930 . S
H1619 C1611 0.929 . S
H1620 C1628 0.929 . S
H1621 C1630 0.930 . S
H1622 C1632 0.930 . S
H1623 C1635 0.929 . S
H1624 C1638 0.930 . S
H1625 C1640 0.960 . S
H1626 C1640 0.960 . S
H1627 C1640 0.960 . S
C1628 H1620 0.929 . S
C1628 C1629 1.377 . S
C1628 C1630 1.384 . S
C1629 C1628 1.377 . S
C1629 C1635 1.390 . S
C1630 H1621 0.930 . S
C1630 C1628 1.384 . S
C1630 C1631 1.372 . S
C1631 C1630 1.372 . S
C1631 C1632 1.400 . S
C1631 C1636 1.490 . S
C1632 H1622 0.930 . S
C1632 C1631 1.400 . S
C1632 C1635 1.386 . S
H1633 C1649 0.930 . S
H1634 C1650 0.931 . S
C1635 H1623 0.929 . S
C1635 C1629 1.390 . S
C1635 C1632 1.386 . S
C1636 C1631 1.490 . S
C1636 C1638 1.395 . S
C1636 C1639 1.403 . S
H1637 C1643 0.930 . S
C1638 H1624 0.930 . S
C1638 C1636 1.395 . S
C1638 C1641 1.403 . S
C1639 C1636 1.403 . S
C1639 C1640 1.524 . S
C1639 C1643 1.400 . S
C1640 H1625 0.960 . S
C1640 H1626 0.960 . S
C1640 H1627 0.960 . S
C1640 C1639 1.524 . S
C1641 C1638 1.403 . S
C1641 C1642 1.392 . S
C1641 C1645 1.495 . S
C1642 C1641 1.392 . S
C1642 C1643 1.385 . S
C1642 C1644 1.478 . S
C1643 H1637 0.930 . S
C1643 C1639 1.400 . S
C1643 C1642 1.385 . S
C1644 C1642 1.478 . S
C1644 C1646 1.381 . S
C1644 C1650 1.383 . S
C1645 C1641 1.495 . S
C1645 H1651 0.959 . S
C1645 H1652 0.961 . S
C1645 H1653 0.960 . S
C1646 C1644 1.381 . S
C1646 C1647 1.394 . S
C1646 H1654 0.930 . S
C1647 C1646 1.394 . S
C1647 C1648 1.383 . S
C1647 H1655 0.929 . S
C1648 C1647 1.383 . S
C1648 C1649 1.377 . S
C1649 H1633 0.930 . S
C1649 C1648 1.377 . S
C1649 C1650 1.379 . S
C1650 H1634 0.931 . S
C1650 C1644 1.383 . S
C1650 C1649 1.379 . S
H1651 C1645 0.959 . S
H1652 C1645 0.961 . S
H1653 C1645 0.960 . S
H1654 C1646 0.930 . S
H1655 C1647 0.929 . S
H1656 C1664 0.929 . S
H1657 C1666 0.930 . S
H1658 C1668 0.930 . S
H1659 C1671 0.929 . S
H1660 C1674 0.930 . S
H1661 C1676 0.960 . S
H1662 C1676 0.960 . S
H1663 C1676 0.960 . S
C1664 H1656 0.929 . S
C1664 C1665 1.377 . S
C1664 C1666 1.384 . S
C1665 C1664 1.377 . S
C1665 C1671 1.390 . S
C1666 H1657 0.930 . S
C1666 C1664 1.384 . S
C1666 C1667 1.372 . S
C1667 C1666 1.372 . S
C1667 C1668 1.400 . S
C1667 C1672 1.490 . S
C1668 H1658 0.930 . S
C1668 C1667 1.400 . S
C1668 C1671 1.386 . S
H1669 C1685 0.930 . S
H1670 C1686 0.931 . S
C1671 H1659 0.929 . S
C1671 C1665 1.390 . S
C1671 C1668 1.386 . S
C1672 C1667 1.490 . S
C1672 C1674 1.395 . S
C1672 C1675 1.403 . S
H1673 C1679 0.930 . S
C1674 H1660 0.930 . S
C1674 C1672 1.395 . S
C1674 C1677 1.403 . S
C1675 C1672 1.403 . S
C1675 C1676 1.524 . S
C1675 C1679 1.400 . S
C1676 H1661 0.960 . S
C1676 H1662 0.960 . S
C1676 H1663 0.960 . S
C1676 C1675 1.524 . S
C1677 C1674 1.403 . S
C1677 C1678 1.392 . S
C1677 C1681 1.495 . S
C1678 C1677 1.392 . S
C1678 C1679 1.385 . S
C1678 C1680 1.478 . S
C1679 H1673 0.930 . S
C1679 C1675 1.400 . S
C1679 C1678 1.385 . S
C1680 C1678 1.478 . S
C1680 C1682 1.381 . S
C1680 C1686 1.383 . S
C1681 C1677 1.495 . S
C1681 H1687 0.959 . S
C1681 H1688 0.961 . S
C1681 H1689 0.960 . S
C1682 C1680 1.381 . S
C1682 C1683 1.394 . S
C1682 H1690 0.930 . S
C1683 C1682 1.394 . S
C1683 C1684 1.383 . S
C1683 H1691 0.929 . S
C1684 C1683 1.383 . S
C1684 C1685 1.377 . S
C1685 H1669 0.930 . S
C1685 C1684 1.377 . S
C1685 C1686 1.379 . S
C1686 H1670 0.931 . S
C1686 C1680 1.383 . S
C1686 C1685 1.379 . S
H1687 C1681 0.959 . S
H1688 C1681 0.961 . S
H1689 C1681 0.960 . S
H1690 C1682 0.930 . S
H1691 C1683 0.929 . S
H1692 C1700 0.929 . S
H1693 C1702 0.930 . S
H1694 C1704 0.930 . S
H1695 C1707 0.929 . S
H1696 C1710 0.930 . S
H1697 C1712 0.960 . S
H1698 C1712 0.960 . S
H1699 C1712 0.960 . S
C1700 H1692 0.929 . S
C1700 C1701 1.377 . S
C1700 C1702 1.384 . S
C1701 C1700 1.377 . S
C1701 C1707 1.390 . S
C1702 H1693 0.930 . S
C1702 C1700 1.384 . S
C1702 C1703 1.372 . S
C1703 C1702 1.372 . S
C1703 C1704 1.400 . S
C1703 C1708 1.490 . S
C1704 H1694 0.930 . S
C1704 C1703 1.400 . S
C1704 C1707 1.386 . S
H1705 C1721 0.930 . S
H1706 C1722 0.931 . S
C1707 H1695 0.929 . S
C1707 C1701 1.390 . S
C1707 C1704 1.386 . S
C1708 C1703 1.490 . S
C1708 C1710 1.395 . S
C1708 C1711 1.403 . S
H1709 C1715 0.930 . S
C1710 H1696 0.930 . S
C1710 C1708 1.395 . S
C1710 C1713 1.403 . S
C1711 C1708 1.403 . S
C1711 C1712 1.524 . S
C1711 C1715 1.400 . S
C1712 H1697 0.960 . S
C1712 H1698 0.960 . S
C1712 H1699 0.960 . S
C1712 C1711 1.524 . S
C1713 C1710 1.403 . S
C1713 C1714 1.392 . S
C1713 C1717 1.495 . S
C1714 C1713 1.392 . S
C1714 C1715 1.385 . S
C1714 C1716 1.478 . S
C1715 H1709 0.930 . S
C1715 C1711 1.400 . S
C1715 C1714 1.385 . S
C1716 C1714 1.478 . S
C1716 C1718 1.381 . S
C1716 C1722 1.383 . S
C1717 C1713 1.495 . S
C1717 H1723 0.959 . S
C1717 H1724 0.961 . S
C1717 H1725 0.960 . S
C1718 C1716 1.381 . S
C1718 C1719 1.394 . S
C1718 H1726 0.930 . S
C1719 C1718 1.394 . S
C1719 C1720 1.383 . S
C1719 H1727 0.929 . S
C1720 C1719 1.383 . S
C1720 C1721 1.377 . S
C1721 H1705 0.930 . S
C1721 C1720 1.377 . S
C1721 C1722 1.379 . S
C1722 H1706 0.931 . S
C1722 C1716 1.383 . S
C1722 C1721 1.379 . S
H1723 C1717 0.959 . S
H1724 C1717 0.961 . S
H1725 C1717 0.960 . S
H1726 C1718 0.930 . S
H1727 C1719 0.929 . S
H1728 C1736 0.929 . S
H1729 C1738 0.930 . S
H1730 C1740 0.930 . S
H1731 C1743 0.929 . S
H1732 C1746 0.930 . S
H1733 C1748 0.960 . S
H1734 C1748 0.960 . S
H1735 C1748 0.960 . S
C1736 H1728 0.929 . S
C1736 C1737 1.377 . S
C1736 C1738 1.384 . S
C1737 C1736 1.377 . S
C1737 C1743 1.390 . S
C1738 H1729 0.930 . S
C1738 C1736 1.384 . S
C1738 C1739 1.372 . S
C1739 C1738 1.372 . S
C1739 C1740 1.400 . S
C1739 C1744 1.490 . S
C1740 H1730 0.930 . S
C1740 C1739 1.400 . S
C1740 C1743 1.386 . S
H1741 C1757 0.930 . S
H1742 C1758 0.931 . S
C1743 H1731 0.929 . S
C1743 C1737 1.390 . S
C1743 C1740 1.386 . S
C1744 C1739 1.490 . S
C1744 C1746 1.395 1_455 S
C1744 C1747 1.403 . S
H1745 C1751 0.928 . S
C1746 H1732 0.930 . S
C1746 C1744 1.395 1_655 S
C1746 C1749 1.403 . S
C1747 C1744 1.403 . S
C1747 C1748 1.524 . S
C1747 C1751 1.358 1_455 S
C1748 H1733 0.960 . S
C1748 H1734 0.960 . S
C1748 H1735 0.960 . S
C1748 C1747 1.524 . S
C1749 C1746 1.403 . S
C1749 C1750 1.392 . S
C1749 C1753 1.495 . S
C1750 C1749 1.392 . S
C1750 C1751 1.441 . S
C1750 C1752 1.478 . S
C1751 H1745 0.928 . S
C1751 C1747 1.358 1_655 S
C1751 C1750 1.441 . S
C1752 C1750 1.478 . S
C1752 C1754 1.381 . S
C1752 C1758 1.383 . S
C1753 C1749 1.495 . S
C1753 H1759 0.959 . S
C1753 H1760 0.961 . S
C1753 H1761 0.960 . S
C1754 C1752 1.381 . S
C1754 C1755 1.394 . S
C1754 H1762 0.930 . S
C1755 C1754 1.394 . S
C1755 C1756 1.383 . S
C1755 H1763 0.929 . S
C1756 C1755 1.383 . S
C1756 C1757 1.377 . S
C1757 H1741 0.930 . S
C1757 C1756 1.377 . S
C1757 C1758 1.379 . S
C1758 H1742 0.931 . S
C1758 C1752 1.383 . S
C1758 C1757 1.379 . S
H1759 C1753 0.959 . S
H1760 C1753 0.961 . S
H1761 C1753 0.960 . S
H1762 C1754 0.930 . S
H1763 C1755 0.929 . S
H1764 C1772 0.929 . S
H1765 C1774 0.930 . S
H1766 C1776 0.930 . S
H1767 C1779 0.929 . S
H1768 C1782 0.930 . S
H1769 C1784 0.960 . S
H1770 C1784 0.960 . S
H1771 C1784 0.960 . S
C1772 H1764 0.929 . S
C1772 C1773 1.377 . S
C1772 C1774 1.384 . S
C1773 C1772 1.377 . S
C1773 C1779 1.390 . S
C1774 H1765 0.930 . S
C1774 C1772 1.384 . S
C1774 C1775 1.372 . S
C1775 C1774 1.372 . S
C1775 C1776 1.400 . S
C1775 C1780 1.490 . S
C1776 H1766 0.930 . S
C1776 C1775 1.400 . S
C1776 C1779 1.386 . S
H1777 C1793 0.930 . S
H1778 C1794 0.931 . S
C1779 H1767 0.929 . S
C1779 C1773 1.390 . S
C1779 C1776 1.386 . S
C1780 C1775 1.490 . S
C1780 C1782 1.395 . S
C1780 C1783 1.403 . S
H1781 C1787 0.930 . S
C1782 H1768 0.930 . S
C1782 C1780 1.395 . S
C1782 C1785 1.403 . S
C1783 C1780 1.403 . S
C1783 C1784 1.524 . S
C1783 C1787 1.400 . S
C1784 H1769 0.960 . S
C1784 H1770 0.960 . S
C1784 H1771 0.960 . S
C1784 C1783 1.524 . S
C1785 C1782 1.403 . S
C1785 C1786 1.392 . S
C1785 C1789 1.495 . S
C1786 C1785 1.392 . S
C1786 C1787 1.385 . S
C1786 C1788 1.478 . S
C1787 H1781 0.930 . S
C1787 C1783 1.400 . S
C1787 C1786 1.385 . S
C1788 C1786 1.478 . S
C1788 C1790 1.381 . S
C1788 C1794 1.383 . S
C1789 C1785 1.495 . S
C1789 H1795 0.959 . S
C1789 H1796 0.961 . S
C1789 H1797 0.960 . S
C1790 C1788 1.381 . S
C1790 C1791 1.394 . S
C1790 H1798 0.930 . S
C1791 C1790 1.394 . S
C1791 C1792 1.383 . S
C1791 H1799 0.929 . S
C1792 C1791 1.383 . S
C1792 C1793 1.377 . S
C1793 H1777 0.930 . S
C1793 C1792 1.377 . S
C1793 C1794 1.379 . S
C1794 H1778 0.931 . S
C1794 C1788 1.383 . S
C1794 C1793 1.379 . S
H1795 C1789 0.959 . S
H1796 C1789 0.961 . S
H1797 C1789 0.960 . S
H1798 C1790 0.930 . S
H1799 C1791 0.929 . S
H1800 C1808 0.929 . S
H1801 C1810 0.930 . S
H1802 C1812 0.930 . S
H1803 C1815 0.929 . S
H1804 C1818 0.930 . S
H1805 C1820 0.960 . S
H1806 C1820 0.960 . S
H1807 C1820 0.960 . S
C1808 H1800 0.929 . S
C1808 C1809 1.377 . S
C1808 C1810 1.384 . S
C1809 C1808 1.377 . S
C1809 C1815 1.390 . S
C1810 H1801 0.930 . S
C1810 C1808 1.384 . S
C1810 C1811 1.372 . S
C1811 C1810 1.372 . S
C1811 C1812 1.400 . S
C1811 C1816 1.490 . S
C1812 H1802 0.930 . S
C1812 C1811 1.400 . S
C1812 C1815 1.386 . S
H1813 C1829 0.930 . S
H1814 C1830 0.931 . S
C1815 H1803 0.929 . S
C1815 C1809 1.390 . S
C1815 C1812 1.386 . S
C1816 C1811 1.490 . S
C1816 C1818 1.395 1_565 S
C1816 C1819 1.403 . S
H1817 C1823 0.930 . S
C1818 H1804 0.930 . S
C1818 C1816 1.395 1_545 S
C1818 C1821 1.403 . S
C1819 C1816 1.403 . S
C1819 C1820 1.524 . S
C1819 C1823 1.400 1_565 S
C1820 H1805 0.960 . S
C1820 H1806 0.960 . S
C1820 H1807 0.960 . S
C1820 C1819 1.524 . S
C1821 C1818 1.403 . S
C1821 C1822 1.392 . S
C1821 C1825 1.495 . S
C1822 C1821 1.392 . S
C1822 C1823 1.385 . S
C1822 C1824 1.478 . S
C1823 H1817 0.930 . S
C1823 C1819 1.400 1_545 S
C1823 C1822 1.385 . S
C1824 C1822 1.478 . S
C1824 C1826 1.381 . S
C1824 C1830 1.383 . S
C1825 C1821 1.495 . S
C1825 H1831 0.959 . S
C1825 H1832 0.961 . S
C1825 H1833 0.960 . S
C1826 C1824 1.381 . S
C1826 C1827 1.394 . S
C1826 H1834 0.930 . S
C1827 C1826 1.394 . S
C1827 C1828 1.383 . S
C1827 H1835 0.929 . S
C1828 C1827 1.383 . S
C1828 C1829 1.377 . S
C1829 H1813 0.930 . S
C1829 C1828 1.377 . S
C1829 C1830 1.379 . S
C1830 H1814 0.931 . S
C1830 C1824 1.383 . S
C1830 C1829 1.379 . S
H1831 C1825 0.959 . S
H1832 C1825 0.961 . S
H1833 C1825 0.960 . S
H1834 C1826 0.930 . S
H1835 C1827 0.929 . S
H1836 C1844 0.929 . S
H1837 C1846 0.930 . S
H1838 C1848 0.930 . S
H1839 C1851 0.929 . S
H1840 C1854 0.930 . S
H1841 C1856 0.960 . S
H1842 C1856 0.960 . S
H1843 C1856 0.960 . S
C1844 H1836 0.929 . S
C1844 C1845 1.377 . S
C1844 C1846 1.384 . S
C1845 C1844 1.377 . S
C1845 C1851 1.390 . S
C1846 H1837 0.930 . S
C1846 C1844 1.384 . S
C1846 C1847 1.372 . S
C1847 C1846 1.372 . S
C1847 C1848 1.400 . S
C1847 C1852 1.490 . S
C1848 H1838 0.930 . S
C1848 C1847 1.400 . S
C1848 C1851 1.386 . S
H1849 C1865 0.930 . S
H1850 C1866 0.931 . S
C1851 H1839 0.929 . S
C1851 C1845 1.390 . S
C1851 C1848 1.386 . S
C1852 C1847 1.490 . S
C1852 C1854 1.395 . S
C1852 C1855 1.403 . S
H1853 C1859 0.930 . S
C1854 H1840 0.930 . S
C1854 C1852 1.395 . S
C1854 C1857 1.403 1_565 S
C1855 C1852 1.403 . S
C1855 C1856 1.524 . S
C1855 C1859 1.400 1_565 S
C1856 H1841 0.960 . S
C1856 H1842 0.960 . S
C1856 H1843 0.960 . S
C1856 C1855 1.524 . S
C1857 C1854 1.403 1_545 S
C1857 C1858 1.392 . S
C1857 C1861 1.495 . S
C1858 C1857 1.392 . S
C1858 C1859 1.385 . S
C1858 C1860 1.478 . S
C1859 H1853 0.930 . S
C1859 C1855 1.400 1_545 S
C1859 C1858 1.385 . S
C1860 C1858 1.478 . S
C1860 C1862 1.381 . S
C1860 C1866 1.383 . S
C1861 C1857 1.495 . S
C1861 H1867 0.959 . S
C1861 H1868 0.961 . S
C1861 H1869 0.960 . S
C1862 C1860 1.381 . S
C1862 C1863 1.394 . S
C1862 H1870 0.930 . S
C1863 C1862 1.394 . S
C1863 C1864 1.383 . S
C1863 H1871 0.929 . S
C1864 C1863 1.383 . S
C1864 C1865 1.377 . S
C1865 H1849 0.930 . S
C1865 C1864 1.377 . S
C1865 C1866 1.379 . S
C1866 H1850 0.931 . S
C1866 C1860 1.383 . S
C1866 C1865 1.379 . S
H1867 C1861 0.959 . S
H1868 C1861 0.961 . S
H1869 C1861 0.960 . S
H1870 C1862 0.930 . S
H1871 C1863 0.929 . S
H1872 C1880 0.929 . S
H1873 C1882 0.930 . S
H1874 C1884 0.930 . S
H1875 C1887 0.929 . S
H1876 C1890 0.930 . S
H1877 C1892 0.960 . S
H1878 C1892 0.960 . S
H1879 C1892 0.960 . S
C1880 H1872 0.929 . S
C1880 C1881 1.377 . S
C1880 C1882 1.384 . S
C1881 C1880 1.377 . S
C1881 C1887 1.390 . S
C1882 H1873 0.930 . S
C1882 C1880 1.384 . S
C1882 C1883 1.372 . S
C1883 C1882 1.372 . S
C1883 C1884 1.400 . S
C1883 C1888 1.490 . S
C1884 H1874 0.930 . S
C1884 C1883 1.400 . S
C1884 C1887 1.386 . S
H1885 C1901 0.930 . S
H1886 C1902 0.931 . S
C1887 H1875 0.929 . S
C1887 C1881 1.390 . S
C1887 C1884 1.386 . S
C1888 C1883 1.490 . S
C1888 C1890 1.395 . S
C1888 C1891 1.403 . S
H1889 C1895 0.930 . S
C1890 H1876 0.930 . S
C1890 C1888 1.395 . S
C1890 C1893 1.403 1_455 S
C1891 C1888 1.403 . S
C1891 C1892 1.524 . S
C1891 C1895 1.400 1_455 S
C1892 H1877 0.960 . S
C1892 H1878 0.960 . S
C1892 H1879 0.960 . S
C1892 C1891 1.524 . S
C1893 C1890 1.403 1_655 S
C1893 C1894 1.392 . S
C1893 C1897 1.495 . S
C1894 C1893 1.392 . S
C1894 C1895 1.385 . S
C1894 C1896 1.478 . S
C1895 H1889 0.930 . S
C1895 C1891 1.400 1_655 S
C1895 C1894 1.385 . S
C1896 C1894 1.478 . S
C1896 C1898 1.381 . S
C1896 C1902 1.383 . S
C1897 C1893 1.495 . S
C1897 H1903 0.959 . S
C1897 H1904 0.961 . S
C1897 H1905 0.960 . S
C1898 C1896 1.381 . S
C1898 C1899 1.394 . S
C1898 H1906 0.930 . S
C1899 C1898 1.394 . S
C1899 C1900 1.383 . S
C1899 H1907 0.929 . S
C1900 C1899 1.383 . S
C1900 C1901 1.377 . S
C1901 H1885 0.930 . S
C1901 C1900 1.377 . S
C1901 C1902 1.379 . S
C1902 H1886 0.931 . S
C1902 C1896 1.383 . S
C1902 C1901 1.379 . S
H1903 C1897 0.959 . S
H1904 C1897 0.961 . S
H1905 C1897 0.960 . S
H1906 C1898 0.930 . S
H1907 C1899 0.929 . S
H1908 C1916 0.929 . S
H1909 C1918 0.930 . S
H1910 C1920 0.930 . S
H1911 C1923 0.929 . S
H1912 C1926 0.930 . S
H1913 C1928 0.960 . S
H1914 C1928 0.960 . S
H1915 C1928 0.960 . S
C1916 H1908 0.929 . S
C1916 C1917 1.377 . S
C1916 C1918 1.384 . S
C1917 C1916 1.377 . S
C1917 C1923 1.390 . S
C1918 H1909 0.930 . S
C1918 C1916 1.384 . S
C1918 C1919 1.372 . S
C1919 C1918 1.372 . S
C1919 C1920 1.400 . S
C1919 C1924 1.490 . S
C1920 H1910 0.930 . S
C1920 C1919 1.400 . S
C1920 C1923 1.386 . S
H1921 C1937 0.930 . S
H1922 C1938 0.931 . S
C1923 H1911 0.929 . S
C1923 C1917 1.390 . S
C1923 C1920 1.386 . S
C1924 C1919 1.490 . S
C1924 C1926 1.395 . S
C1924 C1927 1.403 . S
H1925 C1931 0.930 . S
C1926 H1912 0.930 . S
C1926 C1924 1.395 . S
C1926 C1929 1.403 . S
C1927 C1924 1.403 . S
C1927 C1928 1.524 . S
C1927 C1931 1.400 . S
C1928 H1913 0.960 . S
C1928 H1914 0.960 . S
C1928 H1915 0.960 . S
C1928 C1927 1.524 . S
C1929 C1926 1.403 . S
C1929 C1930 1.392 . S
C1929 C1933 1.495 . S
C1930 C1929 1.392 . S
C1930 C1931 1.385 . S
C1930 C1932 1.478 . S
C1931 H1925 0.930 . S
C1931 C1927 1.400 . S
C1931 C1930 1.385 . S
C1932 C1930 1.478 . S
C1932 C1934 1.381 . S
C1932 C1938 1.383 . S
C1933 C1929 1.495 . S
C1933 H1939 0.959 . S
C1933 H1940 0.961 . S
C1933 H1941 0.960 . S
C1934 C1932 1.381 . S
C1934 C1935 1.394 . S
C1934 H1942 0.930 . S
C1935 C1934 1.394 . S
C1935 C1936 1.383 . S
C1935 H1943 0.929 . S
C1936 C1935 1.383 . S
C1936 C1937 1.377 . S
C1937 H1921 0.930 . S
C1937 C1936 1.377 . S
C1937 C1938 1.379 . S
C1938 H1922 0.931 . S
C1938 C1932 1.383 . S
C1938 C1937 1.379 . S
H1939 C1933 0.959 . S
H1940 C1933 0.961 . S
H1941 C1933 0.960 . S
H1942 C1934 0.930 . S
H1943 C1935 0.929 . S
H1944 C1952 0.929 . S
H1945 C1954 0.930 . S
H1946 C1956 0.930 . S
H1947 C1959 0.929 . S
H1948 C1962 0.930 . S
H1949 C1964 0.960 . S
H1950 C1964 0.960 . S
H1951 C1964 0.960 . S
C1952 H1944 0.929 . S
C1952 C1953 1.377 . S
C1952 C1954 1.384 . S
C1953 C1952 1.377 . S
C1953 C1959 1.390 1_556 S
C1954 H1945 0.930 . S
C1954 C1952 1.384 . S
C1954 C1955 1.372 . S
C1955 C1954 1.372 . S
C1955 C1956 1.400 1_556 S
C1955 C1960 1.490 . S
C1956 H1946 0.930 . S
C1956 C1955 1.400 1_554 S
C1956 C1959 1.386 . S
H1957 C1973 0.930 . S
H1958 C1974 0.931 . S
C1959 H1947 0.929 . S
C1959 C1953 1.390 1_554 S
C1959 C1956 1.386 . S
C1960 C1955 1.490 . S
C1960 C1962 1.395 . S
C1960 C1963 1.403 1_556 S
H1961 C1967 0.930 . S
C1962 H1948 0.930 . S
C1962 C1960 1.395 . S
C1962 C1965 1.403 . S
C1963 C1960 1.403 1_554 S
C1963 C1964 1.524 . S
C1963 C1967 1.400 . S
C1964 H1949 0.960 . S
C1964 H1950 0.960 . S
C1964 H1951 0.960 . S
C1964 C1963 1.524 . S
C1965 C1962 1.403 . S
C1965 C1966 1.392 1_556 S
C1965 C1969 1.495 . S
C1966 C1965 1.392 1_554 S
C1966 C1967 1.385 . S
C1966 C1968 1.478 . S
C1967 H1961 0.930 . S
C1967 C1963 1.400 . S
C1967 C1966 1.385 . S
C1968 C1966 1.478 . S
C1968 C1970 1.381 1_554 S
C1968 C1974 1.383 . S
C1969 C1965 1.495 . S
C1969 H1975 0.959 . S
C1969 H1976 0.961 . S
C1969 H1977 0.960 . S
C1970 C1968 1.381 1_556 S
C1970 C1971 1.394 1_556 S
C1970 H1978 0.930 . S
C1971 C1970 1.394 1_554 S
C1971 C1972 1.383 . S
C1971 H1979 0.929 1_554 S
C1972 C1971 1.383 . S
C1972 C1973 1.377 . S
C1973 H1957 0.930 . S
C1973 C1972 1.377 . S
C1973 C1974 1.379 . S
C1974 H1958 0.931 . S
C1974 C1968 1.383 . S
C1974 C1973 1.379 . S
H1975 C1969 0.959 . S
H1976 C1969 0.961 . S
H1977 C1969 0.960 . S
H1978 C1970 0.930 . S
H1979 C1971 0.929 1_556 S
H1980 C1988 0.929 . S
H1981 C1990 0.930 . S
H1982 C1992 0.930 . S
H1983 C1995 0.929 . S
H1984 C1998 0.930 . S
H1985 C2000 0.960 . S
H1986 C2000 0.960 . S
H1987 C2000 0.960 . S
C1988 H1980 0.929 . S
C1988 C1989 1.377 1_554 S
C1988 C1990 1.384 . S
C1989 C1988 1.377 1_556 S
C1989 C1995 1.390 . S
C1990 H1981 0.930 . S
C1990 C1988 1.384 . S
C1990 C1991 1.372 1_554 S
C1991 C1990 1.372 1_556 S
C1991 C1992 1.400 . S
C1991 C1996 1.491 1_556 S
C1992 H1982 0.930 . S
C1992 C1991 1.400 . S
C1992 C1995 1.386 . S
H1993 C2009 0.930 1_556 S
H1994 C2010 0.931 1_556 S
C1995 H1983 0.929 . S
C1995 C1989 1.390 . S
C1995 C1992 1.386 . S
C1996 C1991 1.491 1_554 S
C1996 C1998 1.392 . S
C1996 C1999 1.404 1_554 S
H1997 C2003 0.930 . S
C1998 H1984 0.930 . S
C1998 C1996 1.392 . S
C1998 C2001 1.403 . S
C1999 C1996 1.404 1_556 S
C1999 C2000 1.524 . S
C1999 C2003 1.400 . S
C2000 H1985 0.960 . S
C2000 H1986 0.960 . S
C2000 H1987 0.960 . S
C2000 C1999 1.524 . S
C2001 C1998 1.403 . S
C2001 C2002 1.392 . S
C2001 C2005 1.495 . S
C2002 C2001 1.392 . S
C2002 C2003 1.385 1_554 S
C2002 C2004 1.478 . S
C2003 H1997 0.930 . S
C2003 C1999 1.400 . S
C2003 C2002 1.385 1_556 S
C2004 C2002 1.478 . S
C2004 C2006 1.381 . S
C2004 C2010 1.383 . S
C2005 C2001 1.495 . S
C2005 H2011 0.959 . S
C2005 H2012 0.961 . S
C2005 H2013 0.960 . S
C2006 C2004 1.381 . S
C2006 C2007 1.394 . S
C2006 H2014 0.930 . S
C2007 C2006 1.394 . S
C2007 C2008 1.383 . S
C2007 H2015 0.929 . S
C2008 C2007 1.383 . S
C2008 C2009 1.377 . S
C2009 H1993 0.930 1_554 S
C2009 C2008 1.377 . S
C2009 C2010 1.379 . S
C2010 H1994 0.931 1_554 S
C2010 C2004 1.383 . S
C2010 C2009 1.379 . S
H2011 C2005 0.959 . S
H2012 C2005 0.961 . S
H2013 C2005 0.960 . S
H2014 C2006 0.930 . S
H2015 C2007 0.929 . S
H2016 C2024 0.929 1_554 S
H2017 C2026 0.930 . S
H2018 C2028 0.930 . S
H2019 C2031 0.929 . S
H2020 C2034 0.930 . S
H2021 C2036 0.960 . S
H2022 C2036 0.960 . S
H2023 C2036 0.960 . S
C2024 H2016 0.929 1_556 S
C2024 C2025 1.377 . S
C2024 C2026 1.384 1_556 S
C2025 C2024 1.377 . S
C2025 C2031 1.390 . S
C2026 H2017 0.930 . S
C2026 C2024 1.384 1_554 S
C2026 C2027 1.372 1_554 S
C2027 C2026 1.372 1_556 S
C2027 C2028 1.400 . S
C2027 C2032 1.492 . S
C2028 H2018 0.930 . S
C2028 C2027 1.400 . S
C2028 C2031 1.386 . S
H2029 C2045 0.930 . S
H2030 C2046 0.931 . S
C2031 H2019 0.929 . S
C2031 C2025 1.390 . S
C2031 C2028 1.386 . S
C2032 C2027 1.492 . S
C2032 C2034 1.389 1_556 S
C2032 C2035 1.407 . S
H2033 C2039 0.930 . S
C2034 H2020 0.930 . S
C2034 C2032 1.389 1_554 S
C2034 C2037 1.403 . S
C2035 C2032 1.407 . S
C2035 C2036 1.524 . S
C2035 C2039 1.400 . S
C2036 H2021 0.960 . S
C2036 H2022 0.960 . S
C2036 H2023 0.960 . S
C2036 C2035 1.524 . S
C2037 C2034 1.403 . S
C2037 C2038 1.392 . S
C2037 C2041 1.495 . S
C2038 C2037 1.392 . S
C2038 C2039 1.385 1_554 S
C2038 C2040 1.478 . S
C2039 H2033 0.930 . S
C2039 C2035 1.400 . S
C2039 C2038 1.385 1_556 S
C2040 C2038 1.478 . S
C2040 C2042 1.381 . S
C2040 C2046 1.383 . S
C2041 C2037 1.495 . S
C2041 H2047 0.959 . S
C2041 H2048 0.961 . S
C2041 H2049 0.960 . S
C2042 C2040 1.381 . S
C2042 C2043 1.394 . S
C2042 H2050 0.930 . S
C2043 C2042 1.394 . S
C2043 C2044 1.383 . S
C2043 H2051 0.929 . S
C2044 C2043 1.383 . S
C2044 C2045 1.377 . S
C2045 H2029 0.930 . S
C2045 C2044 1.377 . S
C2045 C2046 1.379 . S
C2046 H2030 0.931 . S
C2046 C2040 1.383 . S
C2046 C2045 1.379 . S
H2047 C2041 0.959 . S
H2048 C2041 0.961 . S
H2049 C2041 0.960 . S
H2050 C2042 0.930 . S
H2051 C2043 0.929 . S
H2052 C2060 0.929 . S
H2053 C2062 0.930 . S
H2054 C2064 0.930 . S
H2055 C2067 0.929 . S
H2056 C2070 0.930 . S
H2057 C2072 0.960 . S
H2058 C2072 0.960 . S
H2059 C2072 0.960 . S
C2060 H2052 0.929 . S
C2060 C2061 1.377 . S
C2060 C2062 1.384 . S
C2061 C2060 1.377 . S
C2061 C2067 1.390 . S
C2062 H2053 0.930 . S
C2062 C2060 1.384 . S
C2062 C2063 1.372 . S
C2063 C2062 1.372 . S
C2063 C2064 1.400 . S
C2063 C2068 1.490 . S
C2064 H2054 0.930 . S
C2064 C2063 1.400 . S
C2064 C2067 1.386 . S
H2065 C2081 0.930 . S
H2066 C2082 0.931 . S
C2067 H2055 0.929 . S
C2067 C2061 1.390 . S
C2067 C2064 1.386 . S
C2068 C2063 1.490 . S
C2068 C2070 1.395 . S
C2068 C2071 1.403 . S
H2069 C2075 0.930 . S
C2070 H2056 0.930 . S
C2070 C2068 1.395 . S
C2070 C2073 1.403 . S
C2071 C2068 1.403 . S
C2071 C2072 1.524 . S
C2071 C2075 1.400 . S
C2072 H2057 0.960 . S
C2072 H2058 0.960 . S
C2072 H2059 0.960 . S
C2072 C2071 1.524 . S
C2073 C2070 1.403 . S
C2073 C2074 1.392 . S
C2073 C2077 1.495 . S
C2074 C2073 1.392 . S
C2074 C2075 1.385 . S
C2074 C2076 1.478 . S
C2075 H2069 0.930 . S
C2075 C2071 1.400 . S
C2075 C2074 1.385 . S
C2076 C2074 1.478 . S
C2076 C2078 1.381 . S
C2076 C2082 1.383 . S
C2077 C2073 1.495 . S
C2077 H2083 0.959 . S
C2077 H2084 0.961 . S
C2077 H2085 0.960 . S
C2078 C2076 1.381 . S
C2078 C2079 1.394 . S
C2078 H2086 0.930 . S
C2079 C2078 1.394 . S
C2079 C2080 1.383 . S
C2079 H2087 0.929 . S
C2080 C2079 1.383 . S
C2080 C2081 1.377 . S
C2081 H2065 0.930 . S
C2081 C2080 1.377 . S
C2081 C2082 1.379 . S
C2082 H2066 0.931 . S
C2082 C2076 1.383 . S
C2082 C2081 1.379 . S
H2083 C2077 0.959 . S
H2084 C2077 0.961 . S
H2085 C2077 0.960 . S
H2086 C2078 0.930 . S
H2087 C2079 0.929 . S
H2088 C2096 0.929 . S
H2089 C2098 0.930 . S
H2090 C2100 0.930 . S
H2091 C2103 0.929 . S
H2092 C2106 0.930 . S
H2093 C2108 0.960 . S
H2094 C2108 0.960 . S
H2095 C2108 0.960 . S
C2096 H2088 0.929 . S
C2096 C2097 1.377 . S
C2096 C2098 1.384 . S
C2097 C2096 1.377 . S
C2097 C2103 1.390 . S
C2098 H2089 0.930 . S
C2098 C2096 1.384 . S
C2098 C2099 1.372 . S
C2099 C2098 1.372 . S
C2099 C2100 1.400 . S
C2099 C2104 1.490 . S
C2100 H2090 0.930 . S
C2100 C2099 1.400 . S
C2100 C2103 1.386 . S
H2101 C2117 0.930 . S
H2102 C2118 0.931 . S
C2103 H2091 0.929 . S
C2103 C2097 1.390 . S
C2103 C2100 1.386 . S
C2104 C2099 1.490 . S
C2104 C2106 1.395 . S
C2104 C2107 1.403 . S
H2105 C2111 0.930 . S
C2106 H2092 0.930 . S
C2106 C2104 1.395 . S
C2106 C2109 1.403 . S
C2107 C2104 1.403 . S
C2107 C2108 1.524 . S
C2107 C2111 1.400 . S
C2108 H2093 0.960 . S
C2108 H2094 0.960 . S
C2108 H2095 0.960 . S
C2108 C2107 1.524 . S
C2109 C2106 1.403 . S
C2109 C2110 1.392 . S
C2109 C2113 1.495 . S
C2110 C2109 1.392 . S
C2110 C2111 1.385 . S
C2110 C2112 1.478 . S
C2111 H2105 0.930 . S
C2111 C2107 1.400 . S
C2111 C2110 1.385 . S
C2112 C2110 1.478 . S
C2112 C2114 1.381 . S
C2112 C2118 1.383 . S
C2113 C2109 1.495 . S
C2113 H2119 0.959 . S
C2113 H2120 0.961 . S
C2113 H2121 0.960 . S
C2114 C2112 1.381 . S
C2114 C2115 1.394 . S
C2114 H2122 0.930 . S
C2115 C2114 1.394 . S
C2115 C2116 1.383 . S
C2115 H2123 0.929 . S
C2116 C2115 1.383 . S
C2116 C2117 1.377 . S
C2117 H2101 0.930 . S
C2117 C2116 1.377 . S
C2117 C2118 1.379 . S
C2118 H2102 0.931 . S
C2118 C2112 1.383 . S
C2118 C2117 1.379 . S
H2119 C2113 0.959 . S
H2120 C2113 0.961 . S
H2121 C2113 0.960 . S
H2122 C2114 0.930 . S
H2123 C2115 0.929 . S
H2124 C2132 0.929 . S
H2125 C2134 0.930 . S
H2126 C2136 0.930 . S
H2127 C2139 0.929 . S
H2128 C2142 0.930 . S
H2129 C2144 0.960 . S
H2130 C2144 0.960 . S
H2131 C2144 0.960 . S
C2132 H2124 0.929 . S
C2132 C2133 1.377 . S
C2132 C2134 1.384 . S
C2133 C2132 1.377 . S
C2133 C2139 1.390 . S
C2134 H2125 0.930 . S
C2134 C2132 1.384 . S
C2134 C2135 1.372 . S
C2135 C2134 1.372 . S
C2135 C2136 1.400 . S
C2135 C2140 1.490 . S
C2136 H2126 0.930 . S
C2136 C2135 1.400 . S
C2136 C2139 1.386 . S
H2137 C2153 0.930 . S
H2138 C2154 0.931 . S
C2139 H2127 0.929 . S
C2139 C2133 1.390 . S
C2139 C2136 1.386 . S
C2140 C2135 1.490 . S
C2140 C2142 1.395 . S
C2140 C2143 1.403 . S
H2141 C2147 0.930 . S
C2142 H2128 0.930 . S
C2142 C2140 1.395 . S
C2142 C2145 1.403 . S
C2143 C2140 1.403 . S
C2143 C2144 1.524 . S
C2143 C2147 1.400 . S
C2144 H2129 0.960 . S
C2144 H2130 0.960 . S
C2144 H2131 0.960 . S
C2144 C2143 1.524 . S
C2145 C2142 1.403 . S
C2145 C2146 1.392 . S
C2145 C2149 1.495 . S
C2146 C2145 1.392 . S
C2146 C2147 1.385 . S
C2146 C2148 1.478 . S
C2147 H2141 0.930 . S
C2147 C2143 1.400 . S
C2147 C2146 1.385 . S
C2148 C2146 1.478 . S
C2148 C2150 1.381 . S
C2148 C2154 1.383 . S
C2149 C2145 1.495 . S
C2149 H2155 0.959 . S
C2149 H2156 0.961 . S
C2149 H2157 0.960 . S
C2150 C2148 1.381 . S
C2150 C2151 1.394 . S
C2150 H2158 0.930 . S
C2151 C2150 1.394 . S
C2151 C2152 1.383 . S
C2151 H2159 0.929 . S
C2152 C2151 1.383 . S
C2152 C2153 1.377 . S
C2153 H2137 0.930 . S
C2153 C2152 1.377 . S
C2153 C2154 1.379 . S
C2154 H2138 0.931 . S
C2154 C2148 1.383 . S
C2154 C2153 1.379 . S
H2155 C2149 0.959 . S
H2156 C2149 0.961 . S
H2157 C2149 0.960 . S
H2158 C2150 0.930 . S
H2159 C2151 0.929 . S
H2160 C2168 0.929 1_556 S
H2161 C2170 0.930 . S
H2162 C2172 0.930 . S
H2163 C2175 0.929 . S
H2164 C2178 0.930 . S
H2165 C2180 0.960 . S
H2166 C2180 0.960 . S
H2167 C2180 0.960 1_554 S
C2168 H2160 0.929 1_554 S
C2168 C2169 1.377 . S
C2168 C2170 1.384 1_554 S
C2169 C2168 1.377 . S
C2169 C2175 1.390 . S
C2170 H2161 0.930 . S
C2170 C2168 1.384 1_556 S
C2170 C2171 1.372 1_556 S
C2171 C2170 1.372 1_554 S
C2171 C2172 1.400 . S
C2171 C2176 1.500 . S
C2172 H2162 0.930 . S
C2172 C2171 1.400 . S
C2172 C2175 1.386 . S
H2173 C2189 0.921 1_554 S
H2174 C2190 0.931 1_554 S
C2175 H2163 0.929 . S
C2175 C2169 1.390 . S
C2175 C2172 1.386 . S
C2176 C2171 1.500 . S
C2176 C2178 1.399 . S
C2176 C2179 1.390 1_554 S
H2177 C2183 0.930 . S
C2178 H2164 0.930 . S
C2178 C2176 1.399 . S
C2178 C2181 1.403 1_554 S
C2179 C2176 1.390 1_556 S
C2179 C2180 1.524 . S
C2179 C2183 1.400 . S
C2180 H2165 0.960 . S
C2180 H2166 0.960 . S
C2180 H2167 0.960 1_556 S
C2180 C2179 1.524 . S
C2181 C2178 1.403 1_556 S
C2181 C2182 1.392 . S
C2181 C2185 1.491 1_556 S
C2182 C2181 1.392 . S
C2182 C2183 1.385 . S
C2182 C2184 1.478 . S
C2183 H2177 0.930 . S
C2183 C2179 1.400 . S
C2183 C2182 1.385 . S
C2184 C2182 1.478 . S
C2184 C2186 1.381 . S
C2184 C2190 1.383 . S
C2185 C2181 1.491 1_554 S
C2185 H2191 0.973 . S
C2185 H2192 0.989 . S
C2185 H2193 0.924 1_554 S
C2186 C2184 1.381 . S
C2186 C2187 1.394 . S
C2186 H2194 0.930 . S
C2187 C2186 1.394 . S
C2187 C2188 1.383 . S
C2187 H2195 0.929 . S
C2188 C2187 1.383 . S
C2188 C2189 1.377 . S
C2189 H2173 0.921 1_556 S
C2189 C2188 1.377 . S
C2189 C2190 1.379 . S
C2190 H2174 0.931 1_556 S
C2190 C2184 1.383 . S
C2190 C2189 1.379 . S
H2191 C2185 0.973 . S
H2192 C2185 0.989 . S
H2193 C2185 0.924 1_556 S
H2194 C2186 0.930 . S
H2195 C2187 0.929 . S
H2196 C2204 0.927 1_554 S
H2197 C2206 0.930 1_554 S
H2198 C2208 0.930 . S
H2199 C2211 0.929 . S
H2200 C2214 0.930 . S
H2201 C2216 0.960 1_554 S
H2202 C2216 0.960 1_554 S
H2203 C2216 0.960 . S
C2204 H2196 0.927 1_556 S
C2204 C2205 1.377 . S
C2204 C2206 1.384 . S
C2205 C2204 1.377 . S
C2205 C2211 1.390 . S
C2206 H2197 0.930 1_556 S
C2206 C2204 1.384 . S
C2206 C2207 1.372 . S
C2207 C2206 1.372 . S
C2207 C2208 1.400 . S
C2207 C2212 1.490 . S
C2208 H2198 0.930 . S
C2208 C2207 1.400 . S
C2208 C2211 1.386 . S
H2209 C2225 0.955 . S
H2210 C2226 0.931 . S
C2211 H2199 0.929 . S
C2211 C2205 1.390 . S
C2211 C2208 1.386 . S
C2212 C2207 1.490 . S
C2212 C2214 1.395 . S
C2212 C2215 1.403 . S
H2213 C2219 0.930 . S
C2214 H2200 0.930 . S
C2214 C2212 1.395 . S
C2214 C2217 1.403 . S
C2215 C2212 1.403 . S
C2215 C2216 1.524 . S
C2215 C2219 1.400 1_556 S
C2216 H2201 0.960 1_556 S
C2216 H2202 0.960 1_556 S
C2216 H2203 0.960 . S
C2216 C2215 1.524 . S
C2217 C2214 1.403 . S
C2217 C2218 1.392 1_556 S
C2217 C2221 1.495 . S
C2218 C2217 1.392 1_554 S
C2218 C2219 1.385 . S
C2218 C2220 1.478 . S
C2219 H2213 0.930 . S
C2219 C2215 1.400 1_554 S
C2219 C2218 1.385 . S
C2220 C2218 1.478 . S
C2220 C2222 1.381 . S
C2220 C2226 1.383 1_554 S
C2221 C2217 1.495 . S
C2221 H2227 0.959 . S
C2221 H2228 0.961 . S
C2221 H2229 0.960 1_556 S
C2222 C2220 1.381 . S
C2222 C2223 1.394 . S
C2222 H2230 0.930 . S
C2223 C2222 1.394 . S
C2223 C2224 1.383 . S
C2223 H2231 0.929 . S
C2224 C2223 1.383 . S
C2224 C2225 1.342 1_554 S
C2225 H2209 0.955 . S
C2225 C2224 1.342 1_556 S
C2225 C2226 1.390 . S
C2226 H2210 0.931 . S
C2226 C2220 1.383 1_556 S
C2226 C2225 1.390 . S
H2227 C2221 0.959 . S
H2228 C2221 0.961 . S
H2229 C2221 0.960 1_554 S
H2230 C2222 0.930 . S
H2231 C2223 0.929 . S
H2232 C2240 0.929 . S
H2233 C2242 0.930 1_556 S
H2234 C2244 0.930 . S
H2235 C2247 0.929 . S
H2236 C2250 0.930 . S
H2237 C2252 0.960 . S
H2238 C2252 0.960 . S
H2239 C2252 0.960 . S
C2240 H2232 0.929 . S
C2240 C2241 1.377 . S
C2240 C2242 1.384 . S
C2241 C2240 1.377 . S
C2241 C2247 1.390 . S
C2242 H2233 0.930 1_554 S
C2242 C2240 1.384 . S
C2242 C2243 1.372 . S
C2243 C2242 1.372 . S
C2243 C2244 1.400 . S
C2243 C2248 1.497 . S
C2244 H2234 0.930 . S
C2244 C2243 1.400 . S
C2244 C2247 1.386 . S
H2245 C2261 0.930 . S
H2246 C2262 0.931 . S
C2247 H2235 0.929 . S
C2247 C2241 1.390 . S
C2247 C2244 1.386 . S
C2248 C2243 1.497 . S
C2248 C2250 1.370 1_554 S
C2248 C2251 1.420 . S
H2249 C2255 0.930 . S
C2250 H2236 0.930 . S
C2250 C2248 1.370 1_556 S
C2250 C2253 1.403 . S
C2251 C2248 1.420 . S
C2251 C2252 1.524 . S
C2251 C2255 1.400 . S
C2252 H2237 0.960 . S
C2252 H2238 0.960 . S
C2252 H2239 0.960 . S
C2252 C2251 1.524 . S
C2253 C2250 1.403 . S
C2253 C2254 1.392 . S
C2253 C2257 1.495 . S
C2254 C2253 1.392 . S
C2254 C2255 1.385 1_556 S
C2254 C2256 1.478 . S
C2255 H2249 0.930 . S
C2255 C2251 1.400 . S
C2255 C2254 1.385 1_554 S
C2256 C2254 1.478 . S
C2256 C2258 1.381 . S
C2256 C2262 1.383 . S
C2257 C2253 1.495 . S
C2257 H2263 0.959 . S
C2257 H2264 0.961 . S
C2257 H2265 0.960 . S
C2258 C2256 1.381 . S
C2258 C2259 1.394 . S
C2258 H2266 0.930 . S
C2259 C2258 1.394 . S
C2259 C2260 1.383 . S
C2259 H2267 0.929 . S
C2260 C2259 1.383 . S
C2260 C2261 1.377 . S
C2261 H2245 0.930 . S
C2261 C2260 1.377 . S
C2261 C2262 1.379 . S
C2262 H2246 0.931 . S
C2262 C2256 1.383 . S
C2262 C2261 1.379 . S
H2263 C2257 0.959 . S
H2264 C2257 0.961 . S
H2265 C2257 0.960 . S
H2266 C2258 0.930 . S
H2267 C2259 0.929 . S
H2268 C2276 0.929 . S
H2269 C2278 0.930 . S
H2270 C2280 0.930 . S
H2271 C2283 0.929 . S
H2272 C2286 0.930 . S
H2273 C2288 0.960 . S
H2274 C2288 0.960 . S
H2275 C2288 0.960 . S
C2276 H2268 0.929 . S
C2276 C2277 1.377 . S
C2276 C2278 1.384 . S
C2277 C2276 1.377 . S
C2277 C2283 1.390 . S
C2278 H2269 0.930 . S
C2278 C2276 1.384 . S
C2278 C2279 1.372 . S
C2279 C2278 1.372 . S
C2279 C2280 1.400 . S
C2279 C2284 1.490 . S
C2280 H2270 0.930 . S
C2280 C2279 1.400 . S
C2280 C2283 1.386 . S
H2281 C2297 0.930 . S
H2282 C2298 0.931 . S
C2283 H2271 0.929 . S
C2283 C2277 1.390 . S
C2283 C2280 1.386 . S
C2284 C2279 1.490 . S
C2284 C2286 1.395 . S
C2284 C2287 1.403 . S
H2285 C2291 0.930 . S
C2286 H2272 0.930 . S
C2286 C2284 1.395 . S
C2286 C2289 1.403 . S
C2287 C2284 1.403 . S
C2287 C2288 1.524 . S
C2287 C2291 1.400 . S
C2288 H2273 0.960 . S
C2288 H2274 0.960 . S
C2288 H2275 0.960 . S
C2288 C2287 1.524 . S
C2289 C2286 1.403 . S
C2289 C2290 1.392 . S
C2289 C2293 1.495 . S
C2290 C2289 1.392 . S
C2290 C2291 1.385 . S
C2290 C2292 1.478 . S
C2291 H2285 0.930 . S
C2291 C2287 1.400 . S
C2291 C2290 1.385 . S
C2292 C2290 1.478 . S
C2292 C2294 1.381 . S
C2292 C2298 1.383 . S
C2293 C2289 1.495 . S
C2293 H2299 0.959 . S
C2293 H2300 0.961 . S
C2293 H2301 0.960 . S
C2294 C2292 1.381 . S
C2294 C2295 1.394 . S
C2294 H2302 0.930 . S
C2295 C2294 1.394 . S
C2295 C2296 1.383 . S
C2295 H2303 0.929 . S
C2296 C2295 1.383 . S
C2296 C2297 1.377 . S
C2297 H2281 0.930 . S
C2297 C2296 1.377 . S
C2297 C2298 1.379 . S
C2298 H2282 0.931 . S
C2298 C2292 1.383 . S
C2298 C2297 1.379 . S
H2299 C2293 0.959 . S
H2300 C2293 0.961 . S
H2301 C2293 0.960 . S
H2302 C2294 0.930 . S
H2303 C2295 0.929 . S
H2304 C2312 0.929 . S
H2305 C2314 0.930 . S
H2306 C2316 0.930 . S
H2307 C2319 0.929 . S
H2308 C2322 0.930 . S
H2309 C2324 0.960 . S
H2310 C2324 0.960 . S
H2311 C2324 0.960 . S
C2312 H2304 0.929 . S
C2312 C2313 1.377 . S
C2312 C2314 1.384 . S
C2313 C2312 1.377 . S
C2313 C2319 1.390 . S
C2314 H2305 0.930 . S
C2314 C2312 1.384 . S
C2314 C2315 1.372 . S
C2315 C2314 1.372 . S
C2315 C2316 1.400 . S
C2315 C2320 1.490 . S
C2316 H2306 0.930 . S
C2316 C2315 1.400 . S
C2316 C2319 1.386 . S
H2317 C2333 0.930 . S
H2318 C2334 0.931 . S
C2319 H2307 0.929 . S
C2319 C2313 1.390 . S
C2319 C2316 1.386 . S
C2320 C2315 1.490 . S
C2320 C2322 1.395 . S
C2320 C2323 1.403 . S
H2321 C2327 0.930 . S
C2322 H2308 0.930 . S
C2322 C2320 1.395 . S
C2322 C2325 1.403 . S
C2323 C2320 1.403 . S
C2323 C2324 1.524 . S
C2323 C2327 1.400 . S
C2324 H2309 0.960 . S
C2324 H2310 0.960 . S
C2324 H2311 0.960 . S
C2324 C2323 1.524 . S
C2325 C2322 1.403 . S
C2325 C2326 1.392 . S
C2325 C2329 1.495 . S
C2326 C2325 1.392 . S
C2326 C2327 1.385 . S
C2326 C2328 1.478 . S
C2327 H2321 0.930 . S
C2327 C2323 1.400 . S
C2327 C2326 1.385 . S
C2328 C2326 1.478 . S
C2328 C2330 1.381 . S
C2328 C2334 1.383 . S
C2329 C2325 1.495 . S
C2329 H2335 0.959 . S
C2329 H2336 0.961 . S
C2329 H2337 0.960 . S
C2330 C2328 1.381 . S
C2330 C2331 1.394 . S
C2330 H2338 0.930 . S
C2331 C2330 1.394 . S
C2331 C2332 1.383 . S
C2331 H2339 0.929 . S
C2332 C2331 1.383 . S
C2332 C2333 1.377 . S
C2333 H2317 0.930 . S
C2333 C2332 1.377 . S
C2333 C2334 1.379 . S
C2334 H2318 0.931 . S
C2334 C2328 1.383 . S
C2334 C2333 1.379 . S
H2335 C2329 0.959 . S
H2336 C2329 0.961 . S
H2337 C2329 0.960 . S
H2338 C2330 0.930 . S
H2339 C2331 0.929 . S
H2340 C2348 0.929 . S
H2341 C2350 0.930 . S
H2342 C2352 0.930 . S
H2343 C2355 0.929 . S
H2344 C2358 0.930 . S
H2345 C2360 0.960 . S
H2346 C2360 0.960 . S
H2347 C2360 0.960 . S
C2348 H2340 0.929 . S
C2348 C2349 1.377 . S
C2348 C2350 1.384 . S
C2349 C2348 1.377 . S
C2349 C2355 1.390 . S
C2350 H2341 0.930 . S
C2350 C2348 1.384 . S
C2350 C2351 1.372 . S
C2351 C2350 1.372 . S
C2351 C2352 1.400 . S
C2351 C2356 1.490 . S
C2352 H2342 0.930 . S
C2352 C2351 1.400 . S
C2352 C2355 1.386 . S
H2353 C2369 0.930 . S
H2354 C2370 0.931 . S
C2355 H2343 0.929 . S
C2355 C2349 1.390 . S
C2355 C2352 1.386 . S
C2356 C2351 1.490 . S
C2356 C2358 1.395 . S
C2356 C2359 1.403 . S
H2357 C2363 0.930 . S
C2358 H2344 0.930 . S
C2358 C2356 1.395 . S
C2358 C2361 1.403 . S
C2359 C2356 1.403 . S
C2359 C2360 1.524 . S
C2359 C2363 1.400 . S
C2360 H2345 0.960 . S
C2360 H2346 0.960 . S
C2360 H2347 0.960 . S
C2360 C2359 1.524 . S
C2361 C2358 1.403 . S
C2361 C2362 1.392 . S
C2361 C2365 1.495 . S
C2362 C2361 1.392 . S
C2362 C2363 1.385 . S
C2362 C2364 1.478 . S
C2363 H2357 0.930 . S
C2363 C2359 1.400 . S
C2363 C2362 1.385 . S
C2364 C2362 1.478 . S
C2364 C2366 1.381 . S
C2364 C2370 1.383 . S
C2365 C2361 1.495 . S
C2365 H2371 0.959 . S
C2365 H2372 0.961 . S
C2365 H2373 0.960 . S
C2366 C2364 1.381 . S
C2366 C2367 1.394 . S
C2366 H2374 0.930 . S
C2367 C2366 1.394 . S
C2367 C2368 1.383 . S
C2367 H2375 0.929 . S
C2368 C2367 1.383 . S
C2368 C2369 1.377 . S
C2369 H2353 0.930 . S
C2369 C2368 1.377 . S
C2369 C2370 1.379 . S
C2370 H2354 0.931 . S
C2370 C2364 1.383 . S
C2370 C2369 1.379 . S
H2371 C2365 0.959 . S
H2372 C2365 0.961 . S
H2373 C2365 0.960 . S
H2374 C2366 0.930 . S
H2375 C2367 0.929 . S
H2376 C2384 0.929 . S
H2377 C2386 0.930 . S
H2378 C2388 0.930 . S
H2379 C2391 0.929 . S
H2380 C2394 0.930 . S
H2381 C2396 0.960 . S
H2382 C2396 0.960 . S
H2383 C2396 0.960 . S
C2384 H2376 0.929 . S
C2384 C2385 1.377 . S
C2384 C2386 1.384 . S
C2385 C2384 1.377 . S
C2385 C2391 1.390 . S
C2386 H2377 0.930 . S
C2386 C2384 1.384 . S
C2386 C2387 1.372 . S
C2387 C2386 1.372 . S
C2387 C2388 1.400 . S
C2387 C2392 1.490 . S
C2388 H2378 0.930 . S
C2388 C2387 1.400 . S
C2388 C2391 1.386 . S
H2389 C2405 0.930 . S
H2390 C2406 0.931 . S
C2391 H2379 0.929 . S
C2391 C2385 1.390 . S
C2391 C2388 1.386 . S
C2392 C2387 1.490 . S
C2392 C2394 1.395 . S
C2392 C2395 1.403 . S
H2393 C2399 0.930 . S
C2394 H2380 0.930 . S
C2394 C2392 1.395 . S
C2394 C2397 1.403 . S
C2395 C2392 1.403 . S
C2395 C2396 1.524 . S
C2395 C2399 1.400 . S
C2396 H2381 0.960 . S
C2396 H2382 0.960 . S
C2396 H2383 0.960 . S
C2396 C2395 1.524 . S
C2397 C2394 1.403 . S
C2397 C2398 1.392 . S
C2397 C2401 1.495 . S
C2398 C2397 1.392 . S
C2398 C2399 1.385 . S
C2398 C2400 1.478 . S
C2399 H2393 0.930 . S
C2399 C2395 1.400 . S
C2399 C2398 1.385 . S
C2400 C2398 1.478 . S
C2400 C2402 1.381 . S
C2400 C2406 1.383 . S
C2401 C2397 1.495 . S
C2401 H2407 0.959 . S
C2401 H2408 0.961 . S
C2401 H2409 0.960 . S
C2402 C2400 1.381 . S
C2402 C2403 1.394 . S
C2402 H2410 0.930 . S
C2403 C2402 1.394 . S
C2403 C2404 1.383 . S
C2403 H2411 0.929 . S
C2404 C2403 1.383 . S
C2404 C2405 1.377 . S
C2405 H2389 0.930 . S
C2405 C2404 1.377 . S
C2405 C2406 1.379 . S
C2406 H2390 0.931 . S
C2406 C2400 1.383 . S
C2406 C2405 1.379 . S
H2407 C2401 0.959 . S
H2408 C2401 0.961 . S
H2409 C2401 0.960 . S
H2410 C2402 0.930 . S
H2411 C2403 0.929 . S
H2412 C2420 0.929 . S
H2413 C2422 0.930 . S
H2414 C2424 0.930 . S
H2415 C2427 0.929 . S
H2416 C2430 0.930 . S
H2417 C2432 0.960 . S
H2418 C2432 0.960 . S
H2419 C2432 0.960 . S
C2420 H2412 0.929 . S
C2420 C2421 1.377 . S
C2420 C2422 1.384 . S
C2421 C2420 1.377 . S
C2421 C2427 1.390 . S
C2422 H2413 0.930 . S
C2422 C2420 1.384 . S
C2422 C2423 1.372 . S
C2423 C2422 1.372 . S
C2423 C2424 1.400 . S
C2423 C2428 1.490 . S
C2424 H2414 0.930 . S
C2424 C2423 1.400 . S
C2424 C2427 1.386 . S
H2425 C2441 0.930 . S
H2426 C2442 0.931 . S
C2427 H2415 0.929 . S
C2427 C2421 1.390 . S
C2427 C2424 1.386 . S
C2428 C2423 1.490 . S
C2428 C2430 1.395 . S
C2428 C2431 1.403 . S
H2429 C2435 0.930 . S
C2430 H2416 0.930 . S
C2430 C2428 1.395 . S
C2430 C2433 1.403 . S
C2431 C2428 1.403 . S
C2431 C2432 1.524 . S
C2431 C2435 1.400 . S
C2432 H2417 0.960 . S
C2432 H2418 0.960 . S
C2432 H2419 0.960 . S
C2432 C2431 1.524 . S
C2433 C2430 1.403 . S
C2433 C2434 1.392 . S
C2433 C2437 1.495 . S
C2434 C2433 1.392 . S
C2434 C2435 1.385 . S
C2434 C2436 1.478 . S
C2435 H2429 0.930 . S
C2435 C2431 1.400 . S
C2435 C2434 1.385 . S
C2436 C2434 1.478 . S
C2436 C2438 1.381 . S
C2436 C2442 1.383 . S
C2437 C2433 1.495 . S
C2437 H2443 0.959 . S
C2437 H2444 0.961 . S
C2437 H2445 0.960 . S
C2438 C2436 1.381 . S
C2438 C2439 1.394 . S
C2438 H2446 0.930 . S
C2439 C2438 1.394 . S
C2439 C2440 1.383 . S
C2439 H2447 0.929 . S
C2440 C2439 1.383 . S
C2440 C2441 1.377 . S
C2441 H2425 0.930 . S
C2441 C2440 1.377 . S
C2441 C2442 1.379 . S
C2442 H2426 0.931 . S
C2442 C2436 1.383 . S
C2442 C2441 1.379 . S
H2443 C2437 0.959 . S
H2444 C2437 0.961 . S
H2445 C2437 0.960 . S
H2446 C2438 0.930 . S
H2447 C2439 0.929 . S
H2448 C2456 0.929 . S
H2449 C2458 0.930 . S
H2450 C2460 0.930 . S
H2451 C2463 0.929 . S
H2452 C2466 0.930 . S
H2453 C2468 0.960 . S
H2454 C2468 0.960 . S
H2455 C2468 0.960 . S
C2456 H2448 0.929 . S
C2456 C2457 1.377 . S
C2456 C2458 1.384 . S
C2457 C2456 1.377 . S
C2457 C2463 1.390 . S
C2458 H2449 0.930 . S
C2458 C2456 1.384 . S
C2458 C2459 1.372 . S
C2459 C2458 1.372 . S
C2459 C2460 1.400 . S
C2459 C2464 1.490 . S
C2460 H2450 0.930 . S
C2460 C2459 1.400 . S
C2460 C2463 1.386 . S
H2461 C2477 0.930 . S
H2462 C2478 0.931 . S
C2463 H2451 0.929 . S
C2463 C2457 1.390 . S
C2463 C2460 1.386 . S
C2464 C2459 1.490 . S
C2464 C2466 1.395 . S
C2464 C2467 1.403 . S
H2465 C2471 0.930 . S
C2466 H2452 0.930 . S
C2466 C2464 1.395 . S
C2466 C2469 1.403 . S
C2467 C2464 1.403 . S
C2467 C2468 1.524 . S
C2467 C2471 1.400 . S
C2468 H2453 0.960 . S
C2468 H2454 0.960 . S
C2468 H2455 0.960 . S
C2468 C2467 1.524 . S
C2469 C2466 1.403 . S
C2469 C2470 1.392 . S
C2469 C2473 1.495 . S
C2470 C2469 1.392 . S
C2470 C2471 1.385 . S
C2470 C2472 1.478 . S
C2471 H2465 0.930 . S
C2471 C2467 1.400 . S
C2471 C2470 1.385 . S
C2472 C2470 1.478 . S
C2472 C2474 1.381 . S
C2472 C2478 1.383 . S
C2473 C2469 1.495 . S
C2473 H2479 0.959 . S
C2473 H2480 0.961 . S
C2473 H2481 0.960 . S
C2474 C2472 1.381 . S
C2474 C2475 1.394 . S
C2474 H2482 0.930 . S
C2475 C2474 1.394 . S
C2475 C2476 1.383 . S
C2475 H2483 0.929 . S
C2476 C2475 1.383 . S
C2476 C2477 1.377 . S
C2477 H2461 0.930 . S
C2477 C2476 1.377 . S
C2477 C2478 1.379 . S
C2478 H2462 0.931 . S
C2478 C2472 1.383 . S
C2478 C2477 1.379 . S
H2479 C2473 0.959 . S
H2480 C2473 0.961 . S
H2481 C2473 0.960 . S
H2482 C2474 0.930 . S
H2483 C2475 0.929 . S
H2484 C2492 0.929 . S
H2485 C2494 0.930 . S
H2486 C2496 0.930 . S
H2487 C2499 0.929 . S
H2488 C2502 0.930 . S
H2489 C2504 0.960 . S
H2490 C2504 0.960 . S
H2491 C2504 0.960 . S
C2492 H2484 0.929 . S
C2492 C2493 1.377 . S
C2492 C2494 1.384 . S
C2493 C2492 1.377 . S
C2493 C2499 1.390 . S
C2494 H2485 0.930 . S
C2494 C2492 1.384 . S
C2494 C2495 1.372 . S
C2495 C2494 1.372 . S
C2495 C2496 1.400 . S
C2495 C2500 1.490 . S
C2496 H2486 0.930 . S
C2496 C2495 1.400 . S
C2496 C2499 1.386 . S
H2497 C2513 0.930 . S
H2498 C2514 0.931 . S
C2499 H2487 0.929 . S
C2499 C2493 1.390 . S
C2499 C2496 1.386 . S
C2500 C2495 1.490 . S
C2500 C2502 1.395 . S
C2500 C2503 1.403 . S
H2501 C2507 0.930 . S
C2502 H2488 0.930 . S
C2502 C2500 1.395 . S
C2502 C2505 1.403 . S
C2503 C2500 1.403 . S
C2503 C2504 1.524 . S
C2503 C2507 1.400 . S
C2504 H2489 0.960 . S
C2504 H2490 0.960 . S
C2504 H2491 0.960 . S
C2504 C2503 1.524 . S
C2505 C2502 1.403 . S
C2505 C2506 1.392 . S
C2505 C2509 1.495 . S
C2506 C2505 1.392 . S
C2506 C2507 1.385 . S
C2506 C2508 1.478 . S
C2507 H2501 0.930 . S
C2507 C2503 1.400 . S
C2507 C2506 1.385 . S
C2508 C2506 1.478 . S
C2508 C2510 1.381 . S
C2508 C2514 1.383 . S
C2509 C2505 1.495 . S
C2509 H2515 0.959 . S
C2509 H2516 0.961 . S
C2509 H2517 0.960 . S
C2510 C2508 1.381 . S
C2510 C2511 1.394 . S
C2510 H2518 0.930 . S
C2511 C2510 1.394 . S
C2511 C2512 1.383 . S
C2511 H2519 0.929 . S
C2512 C2511 1.383 . S
C2512 C2513 1.377 . S
C2513 H2497 0.930 . S
C2513 C2512 1.377 . S
C2513 C2514 1.379 . S
C2514 H2498 0.931 . S
C2514 C2508 1.383 . S
C2514 C2513 1.379 . S
H2515 C2509 0.959 . S
H2516 C2509 0.961 . S
H2517 C2509 0.960 . S
H2518 C2510 0.930 . S
H2519 C2511 0.929 . S
H2520 C2528 0.929 . S
H2521 C2530 0.930 . S
H2522 C2532 0.930 . S
H2523 C2535 0.929 . S
H2524 C2538 0.930 . S
H2525 C2540 0.960 . S
H2526 C2540 0.960 . S
H2527 C2540 0.960 . S
C2528 H2520 0.929 . S
C2528 C2529 1.377 . S
C2528 C2530 1.384 . S
C2529 C2528 1.377 . S
C2529 C2535 1.390 . S
C2530 H2521 0.930 . S
C2530 C2528 1.384 . S
C2530 C2531 1.372 . S
C2531 C2530 1.372 . S
C2531 C2532 1.400 . S
C2531 C2536 1.490 . S
C2532 H2522 0.930 . S
C2532 C2531 1.400 . S
C2532 C2535 1.386 . S
H2533 C2549 0.930 . S
H2534 C2550 0.931 . S
C2535 H2523 0.929 . S
C2535 C2529 1.390 . S
C2535 C2532 1.386 . S
C2536 C2531 1.490 . S
C2536 C2538 1.395 . S
C2536 C2539 1.403 . S
H2537 C2543 0.930 . S
C2538 H2524 0.930 . S
C2538 C2536 1.395 . S
C2538 C2541 1.403 . S
C2539 C2536 1.403 . S
C2539 C2540 1.524 . S
C2539 C2543 1.400 . S
C2540 H2525 0.960 . S
C2540 H2526 0.960 . S
C2540 H2527 0.960 . S
C2540 C2539 1.524 . S
C2541 C2538 1.403 . S
C2541 C2542 1.392 . S
C2541 C2545 1.495 . S
C2542 C2541 1.392 . S
C2542 C2543 1.385 . S
C2542 C2544 1.478 . S
C2543 H2537 0.930 . S
C2543 C2539 1.400 . S
C2543 C2542 1.385 . S
C2544 C2542 1.478 . S
C2544 C2546 1.381 . S
C2544 C2550 1.383 . S
C2545 C2541 1.495 . S
C2545 H2551 0.959 . S
C2545 H2552 0.961 . S
C2545 H2553 0.960 . S
C2546 C2544 1.381 . S
C2546 C2547 1.394 . S
C2546 H2554 0.930 . S
C2547 C2546 1.394 . S
C2547 C2548 1.383 . S
C2547 H2555 0.929 . S
C2548 C2547 1.383 . S
C2548 C2549 1.377 . S
C2549 H2533 0.930 . S
C2549 C2548 1.377 . S
C2549 C2550 1.379 . S
C2550 H2534 0.931 . S
C2550 C2544 1.383 . S
C2550 C2549 1.379 . S
H2551 C2545 0.959 . S
H2552 C2545 0.961 . S
H2553 C2545 0.960 . S
H2554 C2546 0.930 . S
H2555 C2547 0.929 . S
H2556 C2564 0.929 . S
H2557 C2566 0.930 . S
H2558 C2568 0.930 . S
H2559 C2571 0.929 . S
H2560 C2574 0.930 . S
H2561 C2576 0.960 . S
H2562 C2576 0.960 . S
H2563 C2576 0.960 . S
C2564 H2556 0.929 . S
C2564 C2565 1.377 . S
C2564 C2566 1.384 . S
C2565 C2564 1.377 . S
C2565 C2571 1.390 . S
C2566 H2557 0.930 . S
C2566 C2564 1.384 . S
C2566 C2567 1.372 . S
C2567 C2566 1.372 . S
C2567 C2568 1.400 . S
C2567 C2572 1.490 . S
C2568 H2558 0.930 . S
C2568 C2567 1.400 . S
C2568 C2571 1.386 . S
H2569 C2585 0.930 . S
H2570 C2586 0.931 . S
C2571 H2559 0.929 . S
C2571 C2565 1.390 . S
C2571 C2568 1.386 . S
C2572 C2567 1.490 . S
C2572 C2574 1.395 . S
C2572 C2575 1.403 . S
H2573 C2579 0.930 . S
C2574 H2560 0.930 . S
C2574 C2572 1.395 . S
C2574 C2577 1.403 . S
C2575 C2572 1.403 . S
C2575 C2576 1.524 . S
C2575 C2579 1.400 . S
C2576 H2561 0.960 . S
C2576 H2562 0.960 . S
C2576 H2563 0.960 . S
C2576 C2575 1.524 . S
C2577 C2574 1.403 . S
C2577 C2578 1.392 . S
C2577 C2581 1.495 . S
C2578 C2577 1.392 . S
C2578 C2579 1.385 . S
C2578 C2580 1.478 . S
C2579 H2573 0.930 . S
C2579 C2575 1.400 . S
C2579 C2578 1.385 . S
C2580 C2578 1.478 . S
C2580 C2582 1.381 . S
C2580 C2586 1.383 . S
C2581 C2577 1.495 . S
C2581 H2587 0.959 . S
C2581 H2588 0.961 . S
C2581 H2589 0.960 . S
C2582 C2580 1.381 . S
C2582 C2583 1.394 . S
C2582 H2590 0.930 . S
C2583 C2582 1.394 . S
C2583 C2584 1.383 . S
C2583 H2591 0.929 . S
C2584 C2583 1.383 . S
C2584 C2585 1.377 . S
C2585 H2569 0.930 . S
C2585 C2584 1.377 . S
C2585 C2586 1.379 . S
C2586 H2570 0.931 . S
C2586 C2580 1.383 . S
C2586 C2585 1.379 . S
H2587 C2581 0.959 . S
H2588 C2581 0.961 . S
H2589 C2581 0.960 . S
H2590 C2582 0.930 . S
H2591 C2583 0.929 . S
H2592 C2600 0.929 . S
H2593 C2602 0.930 . S
H2594 C2604 0.930 . S
H2595 C2607 0.929 . S
H2596 C2610 0.930 . S
H2597 C2612 0.960 . S
H2598 C2612 0.960 . S
H2599 C2612 0.960 . S
C2600 H2592 0.929 . S
C2600 C2601 1.377 . S
C2600 C2602 1.384 . S
C2601 C2600 1.377 . S
C2601 C2607 1.390 . S
C2602 H2593 0.930 . S
C2602 C2600 1.384 . S
C2602 C2603 1.372 . S
C2603 C2602 1.372 . S
C2603 C2604 1.400 . S
C2603 C2608 1.490 . S
C2604 H2594 0.930 . S
C2604 C2603 1.400 . S
C2604 C2607 1.386 . S
H2605 C2621 0.930 . S
H2606 C2622 0.931 . S
C2607 H2595 0.929 . S
C2607 C2601 1.390 . S
C2607 C2604 1.386 . S
C2608 C2603 1.490 . S
C2608 C2610 1.395 . S
C2608 C2611 1.403 . S
H2609 C2615 0.930 . S
C2610 H2596 0.930 . S
C2610 C2608 1.395 . S
C2610 C2613 1.403 . S
C2611 C2608 1.403 . S
C2611 C2612 1.524 . S
C2611 C2615 1.400 . S
C2612 H2597 0.960 . S
C2612 H2598 0.960 . S
C2612 H2599 0.960 . S
C2612 C2611 1.524 . S
C2613 C2610 1.403 . S
C2613 C2614 1.392 . S
C2613 C2617 1.495 . S
C2614 C2613 1.392 . S
C2614 C2615 1.385 . S
C2614 C2616 1.478 . S
C2615 H2609 0.930 . S
C2615 C2611 1.400 . S
C2615 C2614 1.385 . S
C2616 C2614 1.478 . S
C2616 C2618 1.381 . S
C2616 C2622 1.383 . S
C2617 C2613 1.495 . S
C2617 H2623 0.959 . S
C2617 H2624 0.961 . S
C2617 H2625 0.960 . S
C2618 C2616 1.381 . S
C2618 C2619 1.394 . S
C2618 H2626 0.930 . S
C2619 C2618 1.394 . S
C2619 C2620 1.383 . S
C2619 H2627 0.929 . S
C2620 C2619 1.383 . S
C2620 C2621 1.377 . S
C2621 H2605 0.930 . S
C2621 C2620 1.377 . S
C2621 C2622 1.379 . S
C2622 H2606 0.931 . S
C2622 C2616 1.383 . S
C2622 C2621 1.379 . S
H2623 C2617 0.959 . S
H2624 C2617 0.961 . S
H2625 C2617 0.960 . S
H2626 C2618 0.930 . S
H2627 C2619 0.929 . S
H2628 C2636 0.929 . S
H2629 C2638 0.930 . S
H2630 C2640 0.930 . S
H2631 C2643 0.929 . S
H2632 C2646 0.930 . S
H2633 C2648 0.960 . S
H2634 C2648 0.960 . S
H2635 C2648 0.960 . S
C2636 H2628 0.929 . S
C2636 C2637 1.377 . S
C2636 C2638 1.384 . S
C2637 C2636 1.377 . S
C2637 C2643 1.390 . S
C2638 H2629 0.930 . S
C2638 C2636 1.384 . S
C2638 C2639 1.372 . S
C2639 C2638 1.372 . S
C2639 C2640 1.400 . S
C2639 C2644 1.490 . S
C2640 H2630 0.930 . S
C2640 C2639 1.400 . S
C2640 C2643 1.386 . S
H2641 C2657 0.930 . S
H2642 C2658 0.931 . S
C2643 H2631 0.929 . S
C2643 C2637 1.390 . S
C2643 C2640 1.386 . S
C2644 C2639 1.490 . S
C2644 C2646 1.395 . S
C2644 C2647 1.403 . S
H2645 C2651 0.930 . S
C2646 H2632 0.930 . S
C2646 C2644 1.395 . S
C2646 C2649 1.403 . S
C2647 C2644 1.403 . S
C2647 C2648 1.524 . S
C2647 C2651 1.400 . S
C2648 H2633 0.960 . S
C2648 H2634 0.960 . S
C2648 H2635 0.960 . S
C2648 C2647 1.524 . S
C2649 C2646 1.403 . S
C2649 C2650 1.392 . S
C2649 C2653 1.495 . S
C2650 C2649 1.392 . S
C2650 C2651 1.385 . S
C2650 C2652 1.478 . S
C2651 H2645 0.930 . S
C2651 C2647 1.400 . S
C2651 C2650 1.385 . S
C2652 C2650 1.478 . S
C2652 C2654 1.381 . S
C2652 C2658 1.383 . S
C2653 C2649 1.495 . S
C2653 H2659 0.959 . S
C2653 H2660 0.961 . S
C2653 H2661 0.960 . S
C2654 C2652 1.381 . S
C2654 C2655 1.394 . S
C2654 H2662 0.930 . S
C2655 C2654 1.394 . S
C2655 C2656 1.383 . S
C2655 H2663 0.929 . S
C2656 C2655 1.383 . S
C2656 C2657 1.377 . S
C2657 H2641 0.930 . S
C2657 C2656 1.377 . S
C2657 C2658 1.379 . S
C2658 H2642 0.931 . S
C2658 C2652 1.383 . S
C2658 C2657 1.379 . S
H2659 C2653 0.959 . S
H2660 C2653 0.961 . S
H2661 C2653 0.960 . S
H2662 C2654 0.930 . S
H2663 C2655 0.929 . S
H2664 C2672 0.929 . S
H2665 C2674 0.930 . S
H2666 C2676 0.930 . S
H2667 C2679 0.929 . S
H2668 C2682 0.930 . S
H2669 C2684 0.960 . S
H2670 C2684 0.960 . S
H2671 C2684 0.960 . S
C2672 H2664 0.929 . S
C2672 C2673 1.377 . S
C2672 C2674 1.384 . S
C2673 C2672 1.377 . S
C2673 C2679 1.390 . S
C2674 H2665 0.930 . S
C2674 C2672 1.384 . S
C2674 C2675 1.372 . S
C2675 C2674 1.372 . S
C2675 C2676 1.400 . S
C2675 C2680 1.490 . S
C2676 H2666 0.930 . S
C2676 C2675 1.400 . S
C2676 C2679 1.386 . S
H2677 C2693 0.930 . S
H2678 C2694 0.931 . S
C2679 H2667 0.929 . S
C2679 C2673 1.390 . S
C2679 C2676 1.386 . S
C2680 C2675 1.490 . S
C2680 C2682 1.395 . S
C2680 C2683 1.403 . S
H2681 C2687 0.930 . S
C2682 H2668 0.930 . S
C2682 C2680 1.395 . S
C2682 C2685 1.403 . S
C2683 C2680 1.403 . S
C2683 C2684 1.524 . S
C2683 C2687 1.400 . S
C2684 H2669 0.960 . S
C2684 H2670 0.960 . S
C2684 H2671 0.960 . S
C2684 C2683 1.524 . S
C2685 C2682 1.403 . S
C2685 C2686 1.392 . S
C2685 C2689 1.495 . S
C2686 C2685 1.392 . S
C2686 C2687 1.385 . S
C2686 C2688 1.478 . S
C2687 H2681 0.930 . S
C2687 C2683 1.400 . S
C2687 C2686 1.385 . S
C2688 C2686 1.478 . S
C2688 C2690 1.381 . S
C2688 C2694 1.383 . S
C2689 C2685 1.495 . S
C2689 H2695 0.959 . S
C2689 H2696 0.961 . S
C2689 H2697 0.960 . S
C2690 C2688 1.381 . S
C2690 C2691 1.394 . S
C2690 H2698 0.930 . S
C2691 C2690 1.394 . S
C2691 C2692 1.383 . S
C2691 H2699 0.929 . S
C2692 C2691 1.383 . S
C2692 C2693 1.377 . S
C2693 H2677 0.930 . S
C2693 C2692 1.377 . S
C2693 C2694 1.379 . S
C2694 H2678 0.931 . S
C2694 C2688 1.383 . S
C2694 C2693 1.379 . S
H2695 C2689 0.959 . S
H2696 C2689 0.961 . S
H2697 C2689 0.960 . S
H2698 C2690 0.930 . S
H2699 C2691 0.929 . S
H2700 C2708 0.929 . S
H2701 C2710 0.930 . S
H2702 C2712 0.930 . S
H2703 C2715 0.929 . S
H2704 C2718 0.930 . S
H2705 C2720 0.960 . S
H2706 C2720 0.960 . S
H2707 C2720 0.960 . S
C2708 H2700 0.929 . S
C2708 C2709 1.377 . S
C2708 C2710 1.384 . S
C2709 C2708 1.377 . S
C2709 C2715 1.390 . S
C2710 H2701 0.930 . S
C2710 C2708 1.384 . S
C2710 C2711 1.372 . S
C2711 C2710 1.372 . S
C2711 C2712 1.400 . S
C2711 C2716 1.490 . S
C2712 H2702 0.930 . S
C2712 C2711 1.400 . S
C2712 C2715 1.386 . S
H2713 C2729 0.930 . S
H2714 C2730 0.931 . S
C2715 H2703 0.929 . S
C2715 C2709 1.390 . S
C2715 C2712 1.386 . S
C2716 C2711 1.490 . S
C2716 C2718 1.395 . S
C2716 C2719 1.403 . S
H2717 C2723 0.930 . S
C2718 H2704 0.930 . S
C2718 C2716 1.395 . S
C2718 C2721 1.403 . S
C2719 C2716 1.403 . S
C2719 C2720 1.524 . S
C2719 C2723 1.400 . S
C2720 H2705 0.960 . S
C2720 H2706 0.960 . S
C2720 H2707 0.960 . S
C2720 C2719 1.524 . S
C2721 C2718 1.403 . S
C2721 C2722 1.392 . S
C2721 C2725 1.495 . S
C2722 C2721 1.392 . S
C2722 C2723 1.385 . S
C2722 C2724 1.478 . S
C2723 H2717 0.930 . S
C2723 C2719 1.400 . S
C2723 C2722 1.385 . S
C2724 C2722 1.478 . S
C2724 C2726 1.381 . S
C2724 C2730 1.383 . S
C2725 C2721 1.495 . S
C2725 H2731 0.959 . S
C2725 H2732 0.961 . S
C2725 H2733 0.960 . S
C2726 C2724 1.381 . S
C2726 C2727 1.394 . S
C2726 H2734 0.930 . S
C2727 C2726 1.394 . S
C2727 C2728 1.383 . S
C2727 H2735 0.929 . S
C2728 C2727 1.383 . S
C2728 C2729 1.377 . S
C2729 H2713 0.930 . S
C2729 C2728 1.377 . S
C2729 C2730 1.379 . S
C2730 H2714 0.931 . S
C2730 C2724 1.383 . S
C2730 C2729 1.379 . S
H2731 C2725 0.959 . S
H2732 C2725 0.961 . S
H2733 C2725 0.960 . S
H2734 C2726 0.930 . S
H2735 C2727 0.929 . S
H2736 C2744 0.929 . S
H2737 C2746 0.930 . S
H2738 C2748 0.930 . S
H2739 C2751 0.929 . S
H2740 C2754 0.930 . S
H2741 C2756 0.960 . S
H2742 C2756 0.960 . S
H2743 C2756 0.960 . S
C2744 H2736 0.929 . S
C2744 C2745 1.377 . S
C2744 C2746 1.384 . S
C2745 C2744 1.377 . S
C2745 C2751 1.390 . S
C2746 H2737 0.930 . S
C2746 C2744 1.384 . S
C2746 C2747 1.372 . S
C2747 C2746 1.372 . S
C2747 C2748 1.400 . S
C2747 C2752 1.490 . S
C2748 H2738 0.930 . S
C2748 C2747 1.400 . S
C2748 C2751 1.386 . S
H2749 C2765 0.930 . S
H2750 C2766 0.931 . S
C2751 H2739 0.929 . S
C2751 C2745 1.390 . S
C2751 C2748 1.386 . S
C2752 C2747 1.490 . S
C2752 C2754 1.395 . S
C2752 C2755 1.403 . S
H2753 C2759 0.930 . S
C2754 H2740 0.930 . S
C2754 C2752 1.395 . S
C2754 C2757 1.403 . S
C2755 C2752 1.403 . S
C2755 C2756 1.524 . S
C2755 C2759 1.400 . S
C2756 H2741 0.960 . S
C2756 H2742 0.960 . S
C2756 H2743 0.960 . S
C2756 C2755 1.524 . S
C2757 C2754 1.403 . S
C2757 C2758 1.392 . S
C2757 C2761 1.495 . S
C2758 C2757 1.392 . S
C2758 C2759 1.385 . S
C2758 C2760 1.478 . S
C2759 H2753 0.930 . S
C2759 C2755 1.400 . S
C2759 C2758 1.385 . S
C2760 C2758 1.478 . S
C2760 C2762 1.381 . S
C2760 C2766 1.383 . S
C2761 C2757 1.495 . S
C2761 H2767 0.959 . S
C2761 H2768 0.961 . S
C2761 H2769 0.960 . S
C2762 C2760 1.381 . S
C2762 C2763 1.394 . S
C2762 H2770 0.930 . S
C2763 C2762 1.394 . S
C2763 C2764 1.383 . S
C2763 H2771 0.929 . S
C2764 C2763 1.383 . S
C2764 C2765 1.377 . S
C2765 H2749 0.930 . S
C2765 C2764 1.377 . S
C2765 C2766 1.379 . S
C2766 H2750 0.931 . S
C2766 C2760 1.383 . S
C2766 C2765 1.379 . S
H2767 C2761 0.959 . S
H2768 C2761 0.961 . S
H2769 C2761 0.960 . S
H2770 C2762 0.930 . S
H2771 C2763 0.929 . S
H2772 C2780 0.929 . S
H2773 C2782 0.930 . S
H2774 C2784 0.930 . S
H2775 C2787 0.929 . S
H2776 C2790 0.930 . S
H2777 C2792 0.960 . S
H2778 C2792 0.960 . S
H2779 C2792 0.960 . S
C2780 H2772 0.929 . S
C2780 C2781 1.377 . S
C2780 C2782 1.384 . S
C2781 C2780 1.377 . S
C2781 C2787 1.390 . S
C2782 H2773 0.930 . S
C2782 C2780 1.384 . S
C2782 C2783 1.372 . S
C2783 C2782 1.372 . S
C2783 C2784 1.400 . S
C2783 C2788 1.490 . S
C2784 H2774 0.930 . S
C2784 C2783 1.400 . S
C2784 C2787 1.386 . S
H2785 C2801 0.930 . S
H2786 C2802 0.931 . S
C2787 H2775 0.929 . S
C2787 C2781 1.390 . S
C2787 C2784 1.386 . S
C2788 C2783 1.490 . S
C2788 C2790 1.395 . S
C2788 C2791 1.403 . S
H2789 C2795 0.930 . S
C2790 H2776 0.930 . S
C2790 C2788 1.395 . S
C2790 C2793 1.403 . S
C2791 C2788 1.403 . S
C2791 C2792 1.524 . S
C2791 C2795 1.400 . S
C2792 H2777 0.960 . S
C2792 H2778 0.960 . S
C2792 H2779 0.960 . S
C2792 C2791 1.524 . S
C2793 C2790 1.403 . S
C2793 C2794 1.392 . S
C2793 C2797 1.495 . S
C2794 C2793 1.392 . S
C2794 C2795 1.385 . S
C2794 C2796 1.478 . S
C2795 H2789 0.930 . S
C2795 C2791 1.400 . S
C2795 C2794 1.385 . S
C2796 C2794 1.478 . S
C2796 C2798 1.381 . S
C2796 C2802 1.383 . S
C2797 C2793 1.495 . S
C2797 H2803 0.959 . S
C2797 H2804 0.961 . S
C2797 H2805 0.960 . S
C2798 C2796 1.381 . S
C2798 C2799 1.394 . S
C2798 H2806 0.930 . S
C2799 C2798 1.394 . S
C2799 C2800 1.383 . S
C2799 H2807 0.929 . S
C2800 C2799 1.383 . S
C2800 C2801 1.377 . S
C2801 H2785 0.930 . S
C2801 C2800 1.377 . S
C2801 C2802 1.379 . S
C2802 H2786 0.931 . S
C2802 C2796 1.383 . S
C2802 C2801 1.379 . S
H2803 C2797 0.959 . S
H2804 C2797 0.961 . S
H2805 C2797 0.960 . S
H2806 C2798 0.930 . S
H2807 C2799 0.929 . S
H2808 C2816 0.929 . S
H2809 C2818 0.930 . S
H2810 C2820 0.930 . S
H2811 C2823 0.929 . S
H2812 C2826 0.930 . S
H2813 C2828 0.960 . S
H2814 C2828 0.960 . S
H2815 C2828 0.960 . S
C2816 H2808 0.929 . S
C2816 C2817 1.377 . S
C2816 C2818 1.384 . S
C2817 C2816 1.377 . S
C2817 C2823 1.390 . S
C2818 H2809 0.930 . S
C2818 C2816 1.384 . S
C2818 C2819 1.372 . S
C2819 C2818 1.372 . S
C2819 C2820 1.400 . S
C2819 C2824 1.490 . S
C2820 H2810 0.930 . S
C2820 C2819 1.400 . S
C2820 C2823 1.386 . S
H2821 C2837 0.930 . S
H2822 C2838 0.931 . S
C2823 H2811 0.929 . S
C2823 C2817 1.390 . S
C2823 C2820 1.386 . S
C2824 C2819 1.490 . S
C2824 C2826 1.395 . S
C2824 C2827 1.403 . S
H2825 C2831 0.930 . S
C2826 H2812 0.930 . S
C2826 C2824 1.395 . S
C2826 C2829 1.403 . S
C2827 C2824 1.403 . S
C2827 C2828 1.524 . S
C2827 C2831 1.400 . S
C2828 H2813 0.960 . S
C2828 H2814 0.960 . S
C2828 H2815 0.960 . S
C2828 C2827 1.524 . S
C2829 C2826 1.403 . S
C2829 C2830 1.392 . S
C2829 C2833 1.495 . S
C2830 C2829 1.392 . S
C2830 C2831 1.385 . S
C2830 C2832 1.478 . S
C2831 H2825 0.930 . S
C2831 C2827 1.400 . S
C2831 C2830 1.385 . S
C2832 C2830 1.478 . S
C2832 C2834 1.381 . S
C2832 C2838 1.383 . S
C2833 C2829 1.495 . S
C2833 H2839 0.959 . S
C2833 H2840 0.961 . S
C2833 H2841 0.960 . S
C2834 C2832 1.381 . S
C2834 C2835 1.394 . S
C2834 H2842 0.930 . S
C2835 C2834 1.394 . S
C2835 C2836 1.383 . S
C2835 H2843 0.929 . S
C2836 C2835 1.383 . S
C2836 C2837 1.377 . S
C2837 H2821 0.930 . S
C2837 C2836 1.377 . S
C2837 C2838 1.379 . S
C2838 H2822 0.931 . S
C2838 C2832 1.383 . S
C2838 C2837 1.379 . S
H2839 C2833 0.959 . S
H2840 C2833 0.961 . S
H2841 C2833 0.960 . S
H2842 C2834 0.930 . S
H2843 C2835 0.929 . S
H2844 C2852 0.929 . S
H2845 C2854 0.930 . S
H2846 C2856 0.930 . S
H2847 C2859 0.929 . S
H2848 C2862 0.930 . S
H2849 C2864 0.960 . S
H2850 C2864 0.960 . S
H2851 C2864 0.960 . S
C2852 H2844 0.929 . S
C2852 C2853 1.377 . S
C2852 C2854 1.384 . S
C2853 C2852 1.377 . S
C2853 C2859 1.390 . S
C2854 H2845 0.930 . S
C2854 C2852 1.384 . S
C2854 C2855 1.372 . S
C2855 C2854 1.372 . S
C2855 C2856 1.400 . S
C2855 C2860 1.490 . S
C2856 H2846 0.930 . S
C2856 C2855 1.400 . S
C2856 C2859 1.386 . S
H2857 C2873 0.930 . S
H2858 C2874 0.931 . S
C2859 H2847 0.929 . S
C2859 C2853 1.390 . S
C2859 C2856 1.386 . S
C2860 C2855 1.490 . S
C2860 C2862 1.395 . S
C2860 C2863 1.403 . S
H2861 C2867 0.930 . S
C2862 H2848 0.930 . S
C2862 C2860 1.395 . S
C2862 C2865 1.403 . S
C2863 C2860 1.403 . S
C2863 C2864 1.524 . S
C2863 C2867 1.400 . S
C2864 H2849 0.960 . S
C2864 H2850 0.960 . S
C2864 H2851 0.960 . S
C2864 C2863 1.524 . S
C2865 C2862 1.403 . S
C2865 C2866 1.392 . S
C2865 C2869 1.495 . S
C2866 C2865 1.392 . S
C2866 C2867 1.385 . S
C2866 C2868 1.478 . S
C2867 H2861 0.930 . S
C2867 C2863 1.400 . S
C2867 C2866 1.385 . S
C2868 C2866 1.478 . S
C2868 C2870 1.381 . S
C2868 C2874 1.383 . S
C2869 C2865 1.495 . S
C2869 H2875 0.959 . S
C2869 H2876 0.961 . S
C2869 H2877 0.960 . S
C2870 C2868 1.381 . S
C2870 C2871 1.394 . S
C2870 H2878 0.930 . S
C2871 C2870 1.394 . S
C2871 C2872 1.383 . S
C2871 H2879 0.929 . S
C2872 C2871 1.383 . S
C2872 C2873 1.377 . S
C2873 H2857 0.930 . S
C2873 C2872 1.377 . S
C2873 C2874 1.379 . S
C2874 H2858 0.931 . S
C2874 C2868 1.383 . S
C2874 C2873 1.379 . S
H2875 C2869 0.959 . S
H2876 C2869 0.961 . S
H2877 C2869 0.960 . S
H2878 C2870 0.930 . S
H2879 C2871 0.929 . S
H2880 C2888 0.929 . S
H2881 C2890 0.930 . S
H2882 C2892 0.930 . S
H2883 C2895 0.929 . S
H2884 C2898 0.930 . S
H2885 C2900 0.960 . S
H2886 C2900 0.960 . S
H2887 C2900 0.960 . S
C2888 H2880 0.929 . S
C2888 C2889 1.377 . S
C2888 C2890 1.384 . S
C2889 C2888 1.377 . S
C2889 C2895 1.390 . S
C2890 H2881 0.930 . S
C2890 C2888 1.384 . S
C2890 C2891 1.372 . S
C2891 C2890 1.372 . S
C2891 C2892 1.400 . S
C2891 C2896 1.490 . S
C2892 H2882 0.930 . S
C2892 C2891 1.400 . S
C2892 C2895 1.386 . S
H2893 C2909 0.930 . S
H2894 C2910 0.931 . S
C2895 H2883 0.929 . S
C2895 C2889 1.390 . S
C2895 C2892 1.386 . S
C2896 C2891 1.490 . S
C2896 C2898 1.395 . S
C2896 C2899 1.403 . S
H2897 C2903 0.930 . S
C2898 H2884 0.930 . S
C2898 C2896 1.395 . S
C2898 C2901 1.403 . S
C2899 C2896 1.403 . S
C2899 C2900 1.524 . S
C2899 C2903 1.400 . S
C2900 H2885 0.960 . S
C2900 H2886 0.960 . S
C2900 H2887 0.960 . S
C2900 C2899 1.524 . S
C2901 C2898 1.403 . S
C2901 C2902 1.392 . S
C2901 C2905 1.495 . S
C2902 C2901 1.392 . S
C2902 C2903 1.385 . S
C2902 C2904 1.478 . S
C2903 H2897 0.930 . S
C2903 C2899 1.400 . S
C2903 C2902 1.385 . S
C2904 C2902 1.478 . S
C2904 C2906 1.381 . S
C2904 C2910 1.383 . S
C2905 C2901 1.495 . S
C2905 H2911 0.959 . S
C2905 H2912 0.961 . S
C2905 H2913 0.960 . S
C2906 C2904 1.381 . S
C2906 C2907 1.394 . S
C2906 H2914 0.930 . S
C2907 C2906 1.394 . S
C2907 C2908 1.383 . S
C2907 H2915 0.929 . S
C2908 C2907 1.383 . S
C2908 C2909 1.377 . S
C2909 H2893 0.930 . S
C2909 C2908 1.377 . S
C2909 C2910 1.379 . S
C2910 H2894 0.931 . S
C2910 C2904 1.383 . S
C2910 C2909 1.379 . S
H2911 C2905 0.959 . S
H2912 C2905 0.961 . S
H2913 C2905 0.960 . S
H2914 C2906 0.930 . S
H2915 C2907 0.929 . S
H2916 C2924 0.929 . S
H2917 C2926 0.930 . S
H2918 C2928 0.930 . S
H2919 C2931 0.929 . S
H2920 C2934 0.930 . S
H2921 C2936 0.960 . S
H2922 C2936 0.960 . S
H2923 C2936 0.960 . S
C2924 H2916 0.929 . S
C2924 C2925 1.377 . S
C2924 C2926 1.384 . S
C2925 C2924 1.377 . S
C2925 C2931 1.390 . S
C2926 H2917 0.930 . S
C2926 C2924 1.384 . S
C2926 C2927 1.372 . S
C2927 C2926 1.372 . S
C2927 C2928 1.400 . S
C2927 C2932 1.490 . S
C2928 H2918 0.930 . S
C2928 C2927 1.400 . S
C2928 C2931 1.386 . S
H2929 C2945 0.930 . S
H2930 C2946 0.931 . S
C2931 H2919 0.929 . S
C2931 C2925 1.390 . S
C2931 C2928 1.386 . S
C2932 C2927 1.490 . S
C2932 C2934 1.395 . S
C2932 C2935 1.403 . S
H2933 C2939 0.930 . S
C2934 H2920 0.930 . S
C2934 C2932 1.395 . S
C2934 C2937 1.403 . S
C2935 C2932 1.403 . S
C2935 C2936 1.524 . S
C2935 C2939 1.400 . S
C2936 H2921 0.960 . S
C2936 H2922 0.960 . S
C2936 H2923 0.960 . S
C2936 C2935 1.524 . S
C2937 C2934 1.403 . S
C2937 C2938 1.392 . S
C2937 C2941 1.495 . S
C2938 C2937 1.392 . S
C2938 C2939 1.385 . S
C2938 C2940 1.478 . S
C2939 H2933 0.930 . S
C2939 C2935 1.400 . S
C2939 C2938 1.385 . S
C2940 C2938 1.478 . S
C2940 C2942 1.381 . S
C2940 C2946 1.383 . S
C2941 C2937 1.495 . S
C2941 H2947 0.959 . S
C2941 H2948 0.961 . S
C2941 H2949 0.960 . S
C2942 C2940 1.381 . S
C2942 C2943 1.394 . S
C2942 H2950 0.930 . S
C2943 C2942 1.394 . S
C2943 C2944 1.383 . S
C2943 H2951 0.929 . S
C2944 C2943 1.383 . S
C2944 C2945 1.377 . S
C2945 H2929 0.930 . S
C2945 C2944 1.377 . S
C2945 C2946 1.379 . S
C2946 H2930 0.931 . S
C2946 C2940 1.383 . S
C2946 C2945 1.379 . S
H2947 C2941 0.959 . S
H2948 C2941 0.961 . S
H2949 C2941 0.960 . S
H2950 C2942 0.930 . S
H2951 C2943 0.929 . S
H2952 C2960 0.929 . S
H2953 C2962 0.930 . S
H2954 C2964 0.930 . S
H2955 C2967 0.929 . S
H2956 C2970 0.930 . S
H2957 C2972 0.960 . S
H2958 C2972 0.960 . S
H2959 C2972 0.960 . S
C2960 H2952 0.929 . S
C2960 C2961 1.377 . S
C2960 C2962 1.384 . S
C2961 C2960 1.377 . S
C2961 C2967 1.390 . S
C2962 H2953 0.930 . S
C2962 C2960 1.384 . S
C2962 C2963 1.372 . S
C2963 C2962 1.372 . S
C2963 C2964 1.400 . S
C2963 C2968 1.490 . S
C2964 H2954 0.930 . S
C2964 C2963 1.400 . S
C2964 C2967 1.386 . S
H2965 C2981 0.930 . S
H2966 C2982 0.931 . S
C2967 H2955 0.929 . S
C2967 C2961 1.390 . S
C2967 C2964 1.386 . S
C2968 C2963 1.490 . S
C2968 C2970 1.395 . S
C2968 C2971 1.403 . S
H2969 C2975 0.930 . S
C2970 H2956 0.930 . S
C2970 C2968 1.395 . S
C2970 C2973 1.403 . S
C2971 C2968 1.403 . S
C2971 C2972 1.524 . S
C2971 C2975 1.400 . S
C2972 H2957 0.960 . S
C2972 H2958 0.960 . S
C2972 H2959 0.960 . S
C2972 C2971 1.524 . S
C2973 C2970 1.403 . S
C2973 C2974 1.392 . S
C2973 C2977 1.495 . S
C2974 C2973 1.392 . S
C2974 C2975 1.385 . S
C2974 C2976 1.478 . S
C2975 H2969 0.930 . S
C2975 C2971 1.400 . S
C2975 C2974 1.385 . S
C2976 C2974 1.478 . S
C2976 C2978 1.381 . S
C2976 C2982 1.383 . S
C2977 C2973 1.495 . S
C2977 H2983 0.959 . S
C2977 H2984 0.961 . S
C2977 H2985 0.960 . S
C2978 C2976 1.381 . S
C2978 C2979 1.394 . S
C2978 H2986 0.930 . S
C2979 C2978 1.394 . S
C2979 C2980 1.383 . S
C2979 H2987 0.929 . S
C2980 C2979 1.383 . S
C2980 C2981 1.377 . S
C2981 H2965 0.930 . S
C2981 C2980 1.377 . S
C2981 C2982 1.379 . S
C2982 H2966 0.931 . S
C2982 C2976 1.383 . S
C2982 C2981 1.379 . S
H2983 C2977 0.959 . S
H2984 C2977 0.961 . S
H2985 C2977 0.960 . S
H2986 C2978 0.930 . S
H2987 C2979 0.929 . S
H2988 C2996 0.929 . S
H2989 C2998 0.930 . S
H2990 C3000 0.930 . S
H2991 C3003 0.929 . S
H2992 C3006 0.930 . S
H2993 C3008 0.960 . S
H2994 C3008 0.960 . S
H2995 C3008 0.960 . S
C2996 H2988 0.929 . S
C2996 C2997 1.377 . S
C2996 C2998 1.384 . S
C2997 C2996 1.377 . S
C2997 C3003 1.390 . S
C2998 H2989 0.930 . S
C2998 C2996 1.384 . S
C2998 C2999 1.372 . S
C2999 C2998 1.372 . S
C2999 C3000 1.400 . S
C2999 C3004 1.490 . S
C3000 H2990 0.930 . S
C3000 C2999 1.400 . S
C3000 C3003 1.386 . S
H3001 C3017 0.930 . S
H3002 C3018 0.931 . S
C3003 H2991 0.929 . S
C3003 C2997 1.390 . S
C3003 C3000 1.386 . S
C3004 C2999 1.490 . S
C3004 C3006 1.395 . S
C3004 C3007 1.403 . S
H3005 C3011 0.930 . S
C3006 H2992 0.930 . S
C3006 C3004 1.395 . S
C3006 C3009 1.403 . S
C3007 C3004 1.403 . S
C3007 C3008 1.524 . S
C3007 C3011 1.400 . S
C3008 H2993 0.960 . S
C3008 H2994 0.960 . S
C3008 H2995 0.960 . S
C3008 C3007 1.524 . S
C3009 C3006 1.403 . S
C3009 C3010 1.392 . S
C3009 C3013 1.495 . S
C3010 C3009 1.392 . S
C3010 C3011 1.385 . S
C3010 C3012 1.478 . S
C3011 H3005 0.930 . S
C3011 C3007 1.400 . S
C3011 C3010 1.385 . S
C3012 C3010 1.478 . S
C3012 C3014 1.381 . S
C3012 C3018 1.383 . S
C3013 C3009 1.495 . S
C3013 H3019 0.959 . S
C3013 H3020 0.961 . S
C3013 H3021 0.960 . S
C3014 C3012 1.381 . S
C3014 C3015 1.394 . S
C3014 H3022 0.930 . S
C3015 C3014 1.394 . S
C3015 C3016 1.383 . S
C3015 H3023 0.929 . S
C3016 C3015 1.383 . S
C3016 C3017 1.377 . S
C3017 H3001 0.930 . S
C3017 C3016 1.377 . S
C3017 C3018 1.379 . S
C3018 H3002 0.931 . S
C3018 C3012 1.383 . S
C3018 C3017 1.379 . S
H3019 C3013 0.959 . S
H3020 C3013 0.961 . S
H3021 C3013 0.960 . S
H3022 C3014 0.930 . S
H3023 C3015 0.929 . S
H3024 C3032 0.929 . S
H3025 C3034 0.930 . S
H3026 C3036 0.930 . S
H3027 C3039 0.929 . S
H3028 C3042 0.930 . S
H3029 C3044 0.960 . S
H3030 C3044 0.960 . S
H3031 C3044 0.960 . S
C3032 H3024 0.929 . S
C3032 C3033 1.377 . S
C3032 C3034 1.384 . S
C3033 C3032 1.377 . S
C3033 C3039 1.390 . S
C3034 H3025 0.930 . S
C3034 C3032 1.384 . S
C3034 C3035 1.372 . S
C3035 C3034 1.372 . S
C3035 C3036 1.400 . S
C3035 C3040 1.490 . S
C3036 H3026 0.930 . S
C3036 C3035 1.400 . S
C3036 C3039 1.386 . S
H3037 C3053 0.930 . S
H3038 C3054 0.931 . S
C3039 H3027 0.929 . S
C3039 C3033 1.390 . S
C3039 C3036 1.386 . S
C3040 C3035 1.490 . S
C3040 C3042 1.395 . S
C3040 C3043 1.403 . S
H3041 C3047 0.930 . S
C3042 H3028 0.930 . S
C3042 C3040 1.395 . S
C3042 C3045 1.403 . S
C3043 C3040 1.403 . S
C3043 C3044 1.524 . S
C3043 C3047 1.400 . S
C3044 H3029 0.960 . S
C3044 H3030 0.960 . S
C3044 H3031 0.960 . S
C3044 C3043 1.524 . S
C3045 C3042 1.403 . S
C3045 C3046 1.392 . S
C3045 C3049 1.495 . S
C3046 C3045 1.392 . S
C3046 C3047 1.385 . S
C3046 C3048 1.478 . S
C3047 H3041 0.930 . S
C3047 C3043 1.400 . S
C3047 C3046 1.385 . S
C3048 C3046 1.478 . S
C3048 C3050 1.381 . S
C3048 C3054 1.383 . S
C3049 C3045 1.495 . S
C3049 H3055 0.959 . S
C3049 H3056 0.961 . S
C3049 H3057 0.960 . S
C3050 C3048 1.381 . S
C3050 C3051 1.394 . S
C3050 H3058 0.930 . S
C3051 C3050 1.394 . S
C3051 C3052 1.383 . S
C3051 H3059 0.929 . S
C3052 C3051 1.383 . S
C3052 C3053 1.377 . S
C3053 H3037 0.930 . S
C3053 C3052 1.377 . S
C3053 C3054 1.379 . S
C3054 H3038 0.931 . S
C3054 C3048 1.383 . S
C3054 C3053 1.379 . S
H3055 C3049 0.959 . S
H3056 C3049 0.961 . S
H3057 C3049 0.960 . S
H3058 C3050 0.930 . S
H3059 C3051 0.929 . S
H3060 C3068 0.929 . S
H3061 C3070 0.930 . S
H3062 C3072 0.930 . S
H3063 C3075 0.929 . S
H3064 C3078 0.930 . S
H3065 C3080 0.960 . S
H3066 C3080 0.960 . S
H3067 C3080 0.960 . S
C3068 H3060 0.929 . S
C3068 C3069 1.377 . S
C3068 C3070 1.384 . S
C3069 C3068 1.377 . S
C3069 C3075 1.390 . S
C3070 H3061 0.930 . S
C3070 C3068 1.384 . S
C3070 C3071 1.372 . S
C3071 C3070 1.372 . S
C3071 C3072 1.400 . S
C3071 C3076 1.490 . S
C3072 H3062 0.930 . S
C3072 C3071 1.400 . S
C3072 C3075 1.386 . S
H3073 C3089 0.930 . S
H3074 C3090 0.931 . S
C3075 H3063 0.929 . S
C3075 C3069 1.390 . S
C3075 C3072 1.386 . S
C3076 C3071 1.490 . S
C3076 C3078 1.395 . S
C3076 C3079 1.403 . S
H3077 C3083 0.930 . S
C3078 H3064 0.930 . S
C3078 C3076 1.395 . S
C3078 C3081 1.403 . S
C3079 C3076 1.403 . S
C3079 C3080 1.524 . S
C3079 C3083 1.400 . S
C3080 H3065 0.960 . S
C3080 H3066 0.960 . S
C3080 H3067 0.960 . S
C3080 C3079 1.524 . S
C3081 C3078 1.403 . S
C3081 C3082 1.392 . S
C3081 C3085 1.495 . S
C3082 C3081 1.392 . S
C3082 C3083 1.385 . S
C3082 C3084 1.478 . S
C3083 H3077 0.930 . S
C3083 C3079 1.400 . S
C3083 C3082 1.385 . S
C3084 C3082 1.478 . S
C3084 C3086 1.381 . S
C3084 C3090 1.383 . S
C3085 C3081 1.495 . S
C3085 H3091 0.959 . S
C3085 H3092 0.961 . S
C3085 H3093 0.960 . S
C3086 C3084 1.381 . S
C3086 C3087 1.394 . S
C3086 H3094 0.930 . S
C3087 C3086 1.394 . S
C3087 C3088 1.383 . S
C3087 H3095 0.929 . S
C3088 C3087 1.383 . S
C3088 C3089 1.377 . S
C3089 H3073 0.930 . S
C3089 C3088 1.377 . S
C3089 C3090 1.379 . S
C3090 H3074 0.931 . S
C3090 C3084 1.383 . S
C3090 C3089 1.379 . S
H3091 C3085 0.959 . S
H3092 C3085 0.961 . S
H3093 C3085 0.960 . S
H3094 C3086 0.930 . S
H3095 C3087 0.929 . S
H3096 C3104 0.929 . S
H3097 C3106 0.930 . S
H3098 C3108 0.930 . S
H3099 C3111 0.929 . S
H3100 C3114 0.930 . S
H3101 C3116 0.960 . S
H3102 C3116 0.960 . S
H3103 C3116 0.960 . S
C3104 H3096 0.929 . S
C3104 C3105 1.377 . S
C3104 C3106 1.384 . S
C3105 C3104 1.377 . S
C3105 C3111 1.390 . S
C3106 H3097 0.930 . S
C3106 C3104 1.384 . S
C3106 C3107 1.372 . S
C3107 C3106 1.372 . S
C3107 C3108 1.400 . S
C3107 C3112 1.490 . S
C3108 H3098 0.930 . S
C3108 C3107 1.400 . S
C3108 C3111 1.386 . S
H3109 C3125 0.930 . S
H3110 C3126 0.931 . S
C3111 H3099 0.929 . S
C3111 C3105 1.390 . S
C3111 C3108 1.386 . S
C3112 C3107 1.490 . S
C3112 C3114 1.395 . S
C3112 C3115 1.403 . S
H3113 C3119 0.930 . S
C3114 H3100 0.930 . S
C3114 C3112 1.395 . S
C3114 C3117 1.403 . S
C3115 C3112 1.403 . S
C3115 C3116 1.524 . S
C3115 C3119 1.400 . S
C3116 H3101 0.960 . S
C3116 H3102 0.960 . S
C3116 H3103 0.960 . S
C3116 C3115 1.524 . S
C3117 C3114 1.403 . S
C3117 C3118 1.392 . S
C3117 C3121 1.495 . S
C3118 C3117 1.392 . S
C3118 C3119 1.385 . S
C3118 C3120 1.478 . S
C3119 H3113 0.930 . S
C3119 C3115 1.400 . S
C3119 C3118 1.385 . S
C3120 C3118 1.478 . S
C3120 C3122 1.381 . S
C3120 C3126 1.383 . S
C3121 C3117 1.495 . S
C3121 H3127 0.959 . S
C3121 H3128 0.961 . S
C3121 H3129 0.960 . S
C3122 C3120 1.381 . S
C3122 C3123 1.394 . S
C3122 H3130 0.930 . S
C3123 C3122 1.394 . S
C3123 C3124 1.383 . S
C3123 H3131 0.929 . S
C3124 C3123 1.383 . S
C3124 C3125 1.377 . S
C3125 H3109 0.930 . S
C3125 C3124 1.377 . S
C3125 C3126 1.379 . S
C3126 H3110 0.931 . S
C3126 C3120 1.383 . S
C3126 C3125 1.379 . S
H3127 C3121 0.959 . S
H3128 C3121 0.961 . S
H3129 C3121 0.960 . S
H3130 C3122 0.930 . S
H3131 C3123 0.929 . S
H3132 C3140 0.929 . S
H3133 C3142 0.930 . S
H3134 C3144 0.930 . S
H3135 C3147 0.929 . S
H3136 C3150 0.930 . S
H3137 C3152 0.960 . S
H3138 C3152 0.960 . S
H3139 C3152 0.960 . S
C3140 H3132 0.929 . S
C3140 C3141 1.377 . S
C3140 C3142 1.384 . S
C3141 C3140 1.377 . S
C3141 C3147 1.390 . S
C3142 H3133 0.930 . S
C3142 C3140 1.384 . S
C3142 C3143 1.372 . S
C3143 C3142 1.372 . S
C3143 C3144 1.400 . S
C3143 C3148 1.490 . S
C3144 H3134 0.930 . S
C3144 C3143 1.400 . S
C3144 C3147 1.386 . S
H3145 C3161 0.930 . S
H3146 C3162 0.931 . S
C3147 H3135 0.929 . S
C3147 C3141 1.390 . S
C3147 C3144 1.386 . S
C3148 C3143 1.490 . S
C3148 C3150 1.395 . S
C3148 C3151 1.403 . S
H3149 C3155 0.930 . S
C3150 H3136 0.930 . S
C3150 C3148 1.395 . S
C3150 C3153 1.403 . S
C3151 C3148 1.403 . S
C3151 C3152 1.524 . S
C3151 C3155 1.400 . S
C3152 H3137 0.960 . S
C3152 H3138 0.960 . S
C3152 H3139 0.960 . S
C3152 C3151 1.524 . S
C3153 C3150 1.403 . S
C3153 C3154 1.392 . S
C3153 C3157 1.495 . S
C3154 C3153 1.392 . S
C3154 C3155 1.385 . S
C3154 C3156 1.478 . S
C3155 H3149 0.930 . S
C3155 C3151 1.400 . S
C3155 C3154 1.385 . S
C3156 C3154 1.478 . S
C3156 C3158 1.381 . S
C3156 C3162 1.383 . S
C3157 C3153 1.495 . S
C3157 H3163 0.959 . S
C3157 H3164 0.961 . S
C3157 H3165 0.960 . S
C3158 C3156 1.381 . S
C3158 C3159 1.394 . S
C3158 H3166 0.930 . S
C3159 C3158 1.394 . S
C3159 C3160 1.383 . S
C3159 H3167 0.929 . S
C3160 C3159 1.383 . S
C3160 C3161 1.377 . S
C3161 H3145 0.930 . S
C3161 C3160 1.377 . S
C3161 C3162 1.379 . S
C3162 H3146 0.931 . S
C3162 C3156 1.383 . S
C3162 C3161 1.379 . S
H3163 C3157 0.959 . S
H3164 C3157 0.961 . S
H3165 C3157 0.960 . S
H3166 C3158 0.930 . S
H3167 C3159 0.929 . S
H3168 C3176 0.929 . S
H3169 C3178 0.930 . S
H3170 C3180 0.930 . S
H3171 C3183 0.929 . S
H3172 C3186 0.930 . S
H3173 C3188 0.960 . S
H3174 C3188 0.960 . S
H3175 C3188 0.960 . S
C3176 H3168 0.929 . S
C3176 C3177 1.377 . S
C3176 C3178 1.384 . S
C3177 C3176 1.377 . S
C3177 C3183 1.390 . S
C3178 H3169 0.930 . S
C3178 C3176 1.384 . S
C3178 C3179 1.372 . S
C3179 C3178 1.372 . S
C3179 C3180 1.400 . S
C3179 C3184 1.490 . S
C3180 H3170 0.930 . S
C3180 C3179 1.400 . S
C3180 C3183 1.386 . S
H3181 C3197 0.930 . S
H3182 C3198 0.931 . S
C3183 H3171 0.929 . S
C3183 C3177 1.390 . S
C3183 C3180 1.386 . S
C3184 C3179 1.490 . S
C3184 C3186 1.395 . S
C3184 C3187 1.403 . S
H3185 C3191 0.930 . S
C3186 H3172 0.930 . S
C3186 C3184 1.395 . S
C3186 C3189 1.403 . S
C3187 C3184 1.403 . S
C3187 C3188 1.524 . S
C3187 C3191 1.400 . S
C3188 H3173 0.960 . S
C3188 H3174 0.960 . S
C3188 H3175 0.960 . S
C3188 C3187 1.524 . S
C3189 C3186 1.403 . S
C3189 C3190 1.392 . S
C3189 C3193 1.495 . S
C3190 C3189 1.392 . S
C3190 C3191 1.385 . S
C3190 C3192 1.478 . S
C3191 H3185 0.930 . S
C3191 C3187 1.400 . S
C3191 C3190 1.385 . S
C3192 C3190 1.478 . S
C3192 C3194 1.381 . S
C3192 C3198 1.383 . S
C3193 C3189 1.495 . S
C3193 H3199 0.959 . S
C3193 H3200 0.961 . S
C3193 H3201 0.960 . S
C3194 C3192 1.381 . S
C3194 C3195 1.394 . S
C3194 H3202 0.930 . S
C3195 C3194 1.394 . S
C3195 C3196 1.383 . S
C3195 H3203 0.929 . S
C3196 C3195 1.383 . S
C3196 C3197 1.377 . S
C3197 H3181 0.930 . S
C3197 C3196 1.377 . S
C3197 C3198 1.379 . S
C3198 H3182 0.931 . S
C3198 C3192 1.383 . S
C3198 C3197 1.379 . S
H3199 C3193 0.959 . S
H3200 C3193 0.961 . S
H3201 C3193 0.960 . S
H3202 C3194 0.930 . S
H3203 C3195 0.929 . S
H3204 C3212 0.929 . S
H3205 C3214 0.930 . S
H3206 C3216 0.930 . S
H3207 C3219 0.929 . S
H3208 C3222 0.930 . S
H3209 C3224 0.960 . S
H3210 C3224 0.960 . S
H3211 C3224 0.960 . S
C3212 H3204 0.929 . S
C3212 C3213 1.377 . S
C3212 C3214 1.384 . S
C3213 C3212 1.377 . S
C3213 C3219 1.390 . S
C3214 H3205 0.930 . S
C3214 C3212 1.384 . S
C3214 C3215 1.372 . S
C3215 C3214 1.372 . S
C3215 C3216 1.400 . S
C3215 C3220 1.490 . S
C3216 H3206 0.930 . S
C3216 C3215 1.400 . S
C3216 C3219 1.386 . S
H3217 C3233 0.930 . S
H3218 C3234 0.931 . S
C3219 H3207 0.929 . S
C3219 C3213 1.390 . S
C3219 C3216 1.386 . S
C3220 C3215 1.490 . S
C3220 C3222 1.395 . S
C3220 C3223 1.403 . S
H3221 C3227 0.930 . S
C3222 H3208 0.930 . S
C3222 C3220 1.395 . S
C3222 C3225 1.403 . S
C3223 C3220 1.403 . S
C3223 C3224 1.524 . S
C3223 C3227 1.400 . S
C3224 H3209 0.960 . S
C3224 H3210 0.960 . S
C3224 H3211 0.960 . S
C3224 C3223 1.524 . S
C3225 C3222 1.403 . S
C3225 C3226 1.392 . S
C3225 C3229 1.495 . S
C3226 C3225 1.392 . S
C3226 C3227 1.385 . S
C3226 C3228 1.478 . S
C3227 H3221 0.930 . S
C3227 C3223 1.400 . S
C3227 C3226 1.385 . S
C3228 C3226 1.478 . S
C3228 C3230 1.381 . S
C3228 C3234 1.383 . S
C3229 C3225 1.495 . S
C3229 H3235 0.959 . S
C3229 H3236 0.961 . S
C3229 H3237 0.960 . S
C3230 C3228 1.381 . S
C3230 C3231 1.394 . S
C3230 H3238 0.930 . S
C3231 C3230 1.394 . S
C3231 C3232 1.383 . S
C3231 H3239 0.929 . S
C3232 C3231 1.383 . S
C3232 C3233 1.377 . S
C3233 H3217 0.930 . S
C3233 C3232 1.377 . S
C3233 C3234 1.379 . S
C3234 H3218 0.931 . S
C3234 C3228 1.383 . S
C3234 C3233 1.379 . S
H3235 C3229 0.959 . S
H3236 C3229 0.961 . S
H3237 C3229 0.960 . S
H3238 C3230 0.930 . S
H3239 C3231 0.929 . S
H3240 C3248 0.929 . S
H3241 C3250 0.930 . S
H3242 C3252 0.930 . S
H3243 C3255 0.929 . S
H3244 C3258 0.930 . S
H3245 C3260 0.960 . S
H3246 C3260 0.960 . S
H3247 C3260 0.960 . S
C3248 H3240 0.929 . S
C3248 C3249 1.377 . S
C3248 C3250 1.384 . S
C3249 C3248 1.377 . S
C3249 C3255 1.390 . S
C3250 H3241 0.930 . S
C3250 C3248 1.384 . S
C3250 C3251 1.372 . S
C3251 C3250 1.372 . S
C3251 C3252 1.400 . S
C3251 C3256 1.490 . S
C3252 H3242 0.930 . S
C3252 C3251 1.400 . S
C3252 C3255 1.386 . S
H3253 C3269 0.930 . S
H3254 C3270 0.931 . S
C3255 H3243 0.929 . S
C3255 C3249 1.390 . S
C3255 C3252 1.386 . S
C3256 C3251 1.490 . S
C3256 C3258 1.395 . S
C3256 C3259 1.403 . S
H3257 C3263 0.930 . S
C3258 H3244 0.930 . S
C3258 C3256 1.395 . S
C3258 C3261 1.403 . S
C3259 C3256 1.403 . S
C3259 C3260 1.524 . S
C3259 C3263 1.400 . S
C3260 H3245 0.960 . S
C3260 H3246 0.960 . S
C3260 H3247 0.960 . S
C3260 C3259 1.524 . S
C3261 C3258 1.403 . S
C3261 C3262 1.392 . S
C3261 C3265 1.495 . S
C3262 C3261 1.392 . S
C3262 C3263 1.385 . S
C3262 C3264 1.478 . S
C3263 H3257 0.930 . S
C3263 C3259 1.400 . S
C3263 C3262 1.385 . S
C3264 C3262 1.478 . S
C3264 C3266 1.381 . S
C3264 C3270 1.383 . S
C3265 C3261 1.495 . S
C3265 H3271 0.959 . S
C3265 H3272 0.961 . S
C3265 H3273 0.960 . S
C3266 C3264 1.381 . S
C3266 C3267 1.394 . S
C3266 H3274 0.930 . S
C3267 C3266 1.394 . S
C3267 C3268 1.383 . S
C3267 H3275 0.929 . S
C3268 C3267 1.383 . S
C3268 C3269 1.377 . S
C3269 H3253 0.930 . S
C3269 C3268 1.377 . S
C3269 C3270 1.379 . S
C3270 H3254 0.931 . S
C3270 C3264 1.383 . S
C3270 C3269 1.379 . S
H3271 C3265 0.959 . S
H3272 C3265 0.961 . S
H3273 C3265 0.960 . S
H3274 C3266 0.930 . S
H3275 C3267 0.929 . S
H3276 C3284 0.929 . S
H3277 C3286 0.930 . S
H3278 C3288 0.930 . S
H3279 C3291 0.929 . S
H3280 C3294 0.930 . S
H3281 C3296 0.960 . S
H3282 C3296 0.960 . S
H3283 C3296 0.960 . S
C3284 H3276 0.929 . S
C3284 C3285 1.377 1_565 S
C3284 C3286 1.384 . S
C3285 C3284 1.377 1_545 S
C3285 C3291 1.390 . S
C3286 H3277 0.930 . S
C3286 C3284 1.384 . S
C3286 C3287 1.372 1_565 S
C3287 C3286 1.372 1_545 S
C3287 C3288 1.400 . S
C3287 C3292 1.490 . S
C3288 H3278 0.930 . S
C3288 C3287 1.400 . S
C3288 C3291 1.386 . S
H3289 C3305 0.926 1_545 S
H3290 C3306 0.931 . S
C3291 H3279 0.929 . S
C3291 C3285 1.390 . S
C3291 C3288 1.386 . S
C3292 C3287 1.490 . S
C3292 C3294 1.395 1_545 S
C3292 C3295 1.403 . S
H3293 C3299 0.930 . S
C3294 H3280 0.930 . S
C3294 C3292 1.395 1_565 S
C3294 C3297 1.403 . S
C3295 C3292 1.403 . S
C3295 C3296 1.524 . S
C3295 C3299 1.400 . S
C3296 H3281 0.960 . S
C3296 H3282 0.960 . S
C3296 H3283 0.960 . S
C3296 C3295 1.524 . S
C3297 C3294 1.403 . S
C3297 C3298 1.392 . S
C3297 C3301 1.495 . S
C3298 C3297 1.392 . S
C3298 C3299 1.385 1_565 S
C3298 C3300 1.478 . S
C3299 H3293 0.930 . S
C3299 C3295 1.400 . S
C3299 C3298 1.385 1_545 S
C3300 C3298 1.478 . S
C3300 C3302 1.381 . S
C3300 C3306 1.383 1_565 S
C3301 C3297 1.495 . S
C3301 H3307 0.959 . S
C3301 H3308 0.961 . S
C3301 H3309 0.960 . S
C3302 C3300 1.381 . S
C3302 C3303 1.394 . S
C3302 H3310 0.930 . S
C3303 C3302 1.394 . S
C3303 C3304 1.383 . S
C3303 H3311 0.929 . S
C3304 C3303 1.383 . S
C3304 C3305 1.381 . S
C3305 H3289 0.926 1_565 S
C3305 C3304 1.381 . S
C3305 C3306 1.379 1_565 S
C3306 H3290 0.931 . S
C3306 C3300 1.383 1_545 S
C3306 C3305 1.379 1_545 S
H3307 C3301 0.959 . S
H3308 C3301 0.961 . S
H3309 C3301 0.960 . S
H3310 C3302 0.930 . S
H3311 C3303 0.929 . S
H3312 C3320 0.929 . S
H3313 C3322 0.930 . S
H3314 C3324 0.930 . S
H3315 C3327 0.929 . S
H3316 C3330 0.930 . S
H3317 C3332 0.960 . S
H3318 C3332 0.960 . S
H3319 C3332 0.960 . S
C3320 H3312 0.929 . S
C3320 C3321 1.377 . S
C3320 C3322 1.384 . S
C3321 C3320 1.377 . S
C3321 C3327 1.390 1_455 S
C3322 H3313 0.930 . S
C3322 C3320 1.384 . S
C3322 C3323 1.372 . S
C3323 C3322 1.372 . S
C3323 C3324 1.400 1_455 S
C3323 C3328 1.490 . S
C3324 H3314 0.930 . S
C3324 C3323 1.400 1_655 S
C3324 C3327 1.386 . S
H3325 C3341 0.930 . S
H3326 C3342 0.931 . S
C3327 H3315 0.929 . S
C3327 C3321 1.390 1_655 S
C3327 C3324 1.386 . S
C3328 C3323 1.490 . S
C3328 C3330 1.395 . S
C3328 C3331 1.403 1_455 S
H3329 C3335 0.930 . S
C3330 H3316 0.930 . S
C3330 C3328 1.395 . S
C3330 C3333 1.403 . S
C3331 C3328 1.403 1_655 S
C3331 C3332 1.524 . S
C3331 C3335 1.400 . S
C3332 H3317 0.960 . S
C3332 H3318 0.960 . S
C3332 H3319 0.960 . S
C3332 C3331 1.524 . S
C3333 C3330 1.403 . S
C3333 C3334 1.347 1_455 S
C3333 C3337 1.495 . S
C3334 C3333 1.347 1_655 S
C3334 C3335 1.426 . S
C3334 C3336 1.487 . S
C3335 H3329 0.930 . S
C3335 C3331 1.400 . S
C3335 C3334 1.426 . S
C3336 C3334 1.487 . S
C3336 C3338 1.381 1_655 S
C3336 C3342 1.383 . S
C3337 C3333 1.495 . S
C3337 H3343 0.959 . S
C3337 H3344 0.961 . S
C3337 H3345 0.960 . S
C3338 C3336 1.381 1_455 S
C3338 C3339 1.394 . S
C3338 H3346 0.930 . S
C3339 C3338 1.394 . S
C3339 C3340 1.383 1_455 S
C3339 H3347 0.929 . S
C3340 C3339 1.383 1_655 S
C3340 C3341 1.377 . S
C3341 H3325 0.930 . S
C3341 C3340 1.377 . S
C3341 C3342 1.379 . S
C3342 H3326 0.931 . S
C3342 C3336 1.383 . S
C3342 C3341 1.379 . S
H3343 C3337 0.959 . S
H3344 C3337 0.961 . S
H3345 C3337 0.960 . S
H3346 C3338 0.930 . S
H3347 C3339 0.929 . S
H3348 C3356 0.929 . S
H3349 C3358 0.930 . S
H3350 C3360 0.930 . S
H3351 C3363 0.929 . S
H3352 C3366 0.930 . S
H3353 C3368 0.960 . S
H3354 C3368 0.960 . S
H3355 C3368 0.960 . S
C3356 H3348 0.929 . S
C3356 C3357 1.377 . S
C3356 C3358 1.384 . S
C3357 C3356 1.377 . S
C3357 C3363 1.390 . S
C3358 H3349 0.930 . S
C3358 C3356 1.384 . S
C3358 C3359 1.372 . S
C3359 C3358 1.372 . S
C3359 C3360 1.400 . S
C3359 C3364 1.490 . S
C3360 H3350 0.930 . S
C3360 C3359 1.400 . S
C3360 C3363 1.386 . S
H3361 C3377 0.930 . S
H3362 C3378 0.931 . S
C3363 H3351 0.929 . S
C3363 C3357 1.390 . S
C3363 C3360 1.386 . S
C3364 C3359 1.490 . S
C3364 C3366 1.395 . S
C3364 C3367 1.403 . S
H3365 C3371 0.930 . S
C3366 H3352 0.930 . S
C3366 C3364 1.395 . S
C3366 C3369 1.403 . S
C3367 C3364 1.403 . S
C3367 C3368 1.524 . S
C3367 C3371 1.400 . S
C3368 H3353 0.960 . S
C3368 H3354 0.960 . S
C3368 H3355 0.960 . S
C3368 C3367 1.524 . S
C3369 C3366 1.403 . S
C3369 C3370 1.392 . S
C3369 C3373 1.495 . S
C3370 C3369 1.392 . S
C3370 C3371 1.385 . S
C3370 C3372 1.478 . S
C3371 H3365 0.930 . S
C3371 C3367 1.400 . S
C3371 C3370 1.385 . S
C3372 C3370 1.478 . S
C3372 C3374 1.381 . S
C3372 C3378 1.383 . S
C3373 C3369 1.495 . S
C3373 H3379 0.959 . S
C3373 H3380 0.961 . S
C3373 H3381 0.960 . S
C3374 C3372 1.381 . S
C3374 C3375 1.394 . S
C3374 H3382 0.930 . S
C3375 C3374 1.394 . S
C3375 C3376 1.383 . S
C3375 H3383 0.929 . S
C3376 C3375 1.383 . S
C3376 C3377 1.377 . S
C3377 H3361 0.930 . S
C3377 C3376 1.377 . S
C3377 C3378 1.379 . S
C3378 H3362 0.931 . S
C3378 C3372 1.383 . S
C3378 C3377 1.379 . S
H3379 C3373 0.959 . S
H3380 C3373 0.961 . S
H3381 C3373 0.960 . S
H3382 C3374 0.930 . S
H3383 C3375 0.929 . S
H3384 C3392 0.895 1_565 S
H3385 C3394 0.923 1_565 S
H3386 C3396 0.930 . S
H3387 C3399 0.929 . S
H3388 C3402 0.930 . S
H3389 C3404 0.960 . S
H3390 C3404 0.960 . S
H3391 C3404 0.960 . S
C3392 H3384 0.895 1_545 S
C3392 C3393 1.377 . S
C3392 C3394 1.385 . S
C3393 C3392 1.377 . S
C3393 C3399 1.390 . S
C3394 H3385 0.923 1_545 S
C3394 C3392 1.385 . S
C3394 C3395 1.378 . S
C3395 C3394 1.378 . S
C3395 C3396 1.400 . S
C3395 C3400 1.490 . S
C3396 H3386 0.930 . S
C3396 C3395 1.400 . S
C3396 C3399 1.386 . S
H3397 C3413 0.881 1_545 S
H3398 C3414 0.931 . S
C3399 H3387 0.929 . S
C3399 C3393 1.390 . S
C3399 C3396 1.386 . S
C3400 C3395 1.490 . S
C3400 C3402 1.395 . S
C3400 C3403 1.403 1_545 S
H3401 C3407 0.930 . S
C3402 H3388 0.930 . S
C3402 C3400 1.395 . S
C3402 C3405 1.403 . S
C3403 C3400 1.403 1_565 S
C3403 C3404 1.524 . S
C3403 C3407 1.400 . S
C3404 H3389 0.960 . S
C3404 H3390 0.960 . S
C3404 H3391 0.960 . S
C3404 C3403 1.524 . S
C3405 C3402 1.403 . S
C3405 C3406 1.392 1_545 S
C3405 C3409 1.495 . S
C3406 C3405 1.392 1_565 S
C3406 C3407 1.385 . S
C3406 C3408 1.478 . S
C3407 H3401 0.930 . S
C3407 C3403 1.400 . S
C3407 C3406 1.385 . S
C3408 C3406 1.478 . S
C3408 C3410 1.381 . S
C3408 C3414 1.383 1_565 S
C3409 C3405 1.495 . S
C3409 H3415 0.959 . S
C3409 H3416 0.961 . S
C3409 H3417 0.960 . S
C3410 C3408 1.381 . S
C3410 C3411 1.394 . S
C3410 H3418 0.930 . S
C3411 C3410 1.394 . S
C3411 C3412 1.383 . S
C3411 H3419 0.929 . S
C3412 C3411 1.383 . S
C3412 C3413 1.437 . S
C3413 H3397 0.881 1_565 S
C3413 C3412 1.437 . S
C3413 C3414 1.371 1_565 S
C3414 H3398 0.931 . S
C3414 C3408 1.383 1_545 S
C3414 C3413 1.371 1_545 S
H3415 C3409 0.959 . S
H3416 C3409 0.961 . S
H3417 C3409 0.960 . S
H3418 C3410 0.930 . S
H3419 C3411 0.929 . S
H3420 C3428 0.929 . S
H3421 C3430 0.930 . S
H3422 C3432 0.930 . S
H3423 C3435 0.929 . S
H3424 C3438 0.930 . S
H3425 C3440 0.960 . S
H3426 C3440 0.960 . S
H3427 C3440 0.960 . S
C3428 H3420 0.929 . S
C3428 C3429 1.377 1_455 S
C3428 C3430 1.384 . S
C3429 C3428 1.377 1_655 S
C3429 C3435 1.390 . S
C3430 H3421 0.930 . S
C3430 C3428 1.384 . S
C3430 C3431 1.372 1_455 S
C3431 C3430 1.372 1_655 S
C3431 C3432 1.400 . S
C3431 C3436 1.490 . S
C3432 H3422 0.930 . S
C3432 C3431 1.400 . S
C3432 C3435 1.386 . S
H3433 C3449 0.930 . S
H3434 C3450 0.931 . S
C3435 H3423 0.929 . S
C3435 C3429 1.390 . S
C3435 C3432 1.386 . S
C3436 C3431 1.490 . S
C3436 C3438 1.395 1_655 S
C3436 C3439 1.403 . S
H3437 C3443 0.930 . S
C3438 H3424 0.930 . S
C3438 C3436 1.395 1_455 S
C3438 C3441 1.403 . S
C3439 C3436 1.403 . S
C3439 C3440 1.524 . S
C3439 C3443 1.400 . S
C3440 H3425 0.960 . S
C3440 H3426 0.960 . S
C3440 H3427 0.960 . S
C3440 C3439 1.524 . S
C3441 C3438 1.403 . S
C3441 C3442 1.392 . S
C3441 C3445 1.495 . S
C3442 C3441 1.392 . S
C3442 C3443 1.385 1_455 S
C3442 C3444 1.478 . S
C3443 H3437 0.930 . S
C3443 C3439 1.400 . S
C3443 C3442 1.385 1_655 S
C3444 C3442 1.478 . S
C3444 C3446 1.381 . S
C3444 C3450 1.383 1_455 S
C3445 C3441 1.495 . S
C3445 H3451 0.959 . S
C3445 H3452 0.961 . S
C3445 H3453 0.960 . S
C3446 C3444 1.381 . S
C3446 C3447 1.394 . S
C3446 H3454 0.930 . S
C3447 C3446 1.394 . S
C3447 C3448 1.383 . S
C3447 H3455 0.929 . S
C3448 C3447 1.383 . S
C3448 C3449 1.377 1_455 S
C3449 H3433 0.930 . S
C3449 C3448 1.377 1_655 S
C3449 C3450 1.379 . S
C3450 H3434 0.931 . S
C3450 C3444 1.383 1_655 S
C3450 C3449 1.379 . S
H3451 C3445 0.959 . S
H3452 C3445 0.961 . S
H3453 C3445 0.960 . S
H3454 C3446 0.930 . S
H3455 C3447 0.929 . S
H3456 C3464 0.929 . S
H3457 C3466 0.930 . S
H3458 C3468 0.930 . S
H3459 C3471 0.929 . S
H3460 C3474 0.930 . S
H3461 C3476 0.960 . S
H3462 C3476 0.960 . S
H3463 C3476 0.960 . S
C3464 H3456 0.929 . S
C3464 C3465 1.377 . S
C3464 C3466 1.384 . S
C3465 C3464 1.377 . S
C3465 C3471 1.390 . S
C3466 H3457 0.930 . S
C3466 C3464 1.384 . S
C3466 C3467 1.372 . S
C3467 C3466 1.372 . S
C3467 C3468 1.400 . S
C3467 C3472 1.490 . S
C3468 H3458 0.930 . S
C3468 C3467 1.400 . S
C3468 C3471 1.386 . S
H3469 C3485 0.930 . S
H3470 C3486 0.931 . S
C3471 H3459 0.929 . S
C3471 C3465 1.390 . S
C3471 C3468 1.386 . S
C3472 C3467 1.490 . S
C3472 C3474 1.395 . S
C3472 C3475 1.403 . S
H3473 C3479 0.930 . S
C3474 H3460 0.930 . S
C3474 C3472 1.395 . S
C3474 C3477 1.403 . S
C3475 C3472 1.403 . S
C3475 C3476 1.524 . S
C3475 C3479 1.400 . S
C3476 H3461 0.960 . S
C3476 H3462 0.960 . S
C3476 H3463 0.960 . S
C3476 C3475 1.524 . S
C3477 C3474 1.403 . S
C3477 C3478 1.392 . S
C3477 C3481 1.495 . S
C3478 C3477 1.392 . S
C3478 C3479 1.385 . S
C3478 C3480 1.478 . S
C3479 H3473 0.930 . S
C3479 C3475 1.400 . S
C3479 C3478 1.385 . S
C3480 C3478 1.478 . S
C3480 C3482 1.381 . S
C3480 C3486 1.383 . S
C3481 C3477 1.495 . S
C3481 H3487 0.959 . S
C3481 H3488 0.961 . S
C3481 H3489 0.960 . S
C3482 C3480 1.381 . S
C3482 C3483 1.394 . S
C3482 H3490 0.930 . S
C3483 C3482 1.394 . S
C3483 C3484 1.383 . S
C3483 H3491 0.929 . S
C3484 C3483 1.383 . S
C3484 C3485 1.377 . S
C3485 H3469 0.930 . S
C3485 C3484 1.377 . S
C3485 C3486 1.379 . S
C3486 H3470 0.931 . S
C3486 C3480 1.383 . S
C3486 C3485 1.379 . S
H3487 C3481 0.959 . S
H3488 C3481 0.961 . S
H3489 C3481 0.960 . S
H3490 C3482 0.930 . S
H3491 C3483 0.929 . S
H3492 C3500 0.929 . S
H3493 C3502 0.930 . S
H3494 C3504 0.930 . S
H3495 C3507 0.929 . S
H3496 C3510 0.930 . S
H3497 C3512 0.960 . S
H3498 C3512 0.960 . S
H3499 C3512 0.960 . S
C3500 H3492 0.929 . S
C3500 C3501 1.377 . S
C3500 C3502 1.384 . S
C3501 C3500 1.377 . S
C3501 C3507 1.390 . S
C3502 H3493 0.930 . S
C3502 C3500 1.384 . S
C3502 C3503 1.372 . S
C3503 C3502 1.372 . S
C3503 C3504 1.400 . S
C3503 C3508 1.490 . S
C3504 H3494 0.930 . S
C3504 C3503 1.400 . S
C3504 C3507 1.386 . S
H3505 C3521 0.930 . S
H3506 C3522 0.931 . S
C3507 H3495 0.929 . S
C3507 C3501 1.390 . S
C3507 C3504 1.386 . S
C3508 C3503 1.490 . S
C3508 C3510 1.395 . S
C3508 C3511 1.403 . S
H3509 C3515 0.930 . S
C3510 H3496 0.930 . S
C3510 C3508 1.395 . S
C3510 C3513 1.403 . S
C3511 C3508 1.403 . S
C3511 C3512 1.524 . S
C3511 C3515 1.400 . S
C3512 H3497 0.960 . S
C3512 H3498 0.960 . S
C3512 H3499 0.960 . S
C3512 C3511 1.524 . S
C3513 C3510 1.403 . S
C3513 C3514 1.392 . S
C3513 C3517 1.495 . S
C3514 C3513 1.392 . S
C3514 C3515 1.385 . S
C3514 C3516 1.478 . S
C3515 H3509 0.930 . S
C3515 C3511 1.400 . S
C3515 C3514 1.385 . S
C3516 C3514 1.478 . S
C3516 C3518 1.381 . S
C3516 C3522 1.383 . S
C3517 C3513 1.495 . S
C3517 H3523 0.959 . S
C3517 H3524 0.961 . S
C3517 H3525 0.960 . S
C3518 C3516 1.381 . S
C3518 C3519 1.394 . S
C3518 H3526 0.930 . S
C3519 C3518 1.394 . S
C3519 C3520 1.383 . S
C3519 H3527 0.929 . S
C3520 C3519 1.383 . S
C3520 C3521 1.377 . S
C3521 H3505 0.930 . S
C3521 C3520 1.377 . S
C3521 C3522 1.379 . S
C3522 H3506 0.931 . S
C3522 C3516 1.383 . S
C3522 C3521 1.379 . S
H3523 C3517 0.959 . S
H3524 C3517 0.961 . S
H3525 C3517 0.960 . S
H3526 C3518 0.930 . S
H3527 C3519 0.929 . S
H3528 C3536 0.929 . S
H3529 C3538 0.930 . S
H3530 C3540 0.930 . S
H3531 C3543 0.929 . S
H3532 C3546 0.930 . S
H3533 C3548 0.960 . S
H3534 C3548 0.960 . S
H3535 C3548 0.960 . S
C3536 H3528 0.929 . S
C3536 C3537 1.377 . S
C3536 C3538 1.384 . S
C3537 C3536 1.377 . S
C3537 C3543 1.390 . S
C3538 H3529 0.930 . S
C3538 C3536 1.384 . S
C3538 C3539 1.372 . S
C3539 C3538 1.372 . S
C3539 C3540 1.400 . S
C3539 C3544 1.490 . S
C3540 H3530 0.930 . S
C3540 C3539 1.400 . S
C3540 C3543 1.386 . S
H3541 C3557 0.930 . S
H3542 C3558 0.931 . S
C3543 H3531 0.929 . S
C3543 C3537 1.390 . S
C3543 C3540 1.386 . S
C3544 C3539 1.490 . S
C3544 C3546 1.395 . S
C3544 C3547 1.403 . S
H3545 C3551 0.930 . S
C3546 H3532 0.930 . S
C3546 C3544 1.395 . S
C3546 C3549 1.403 . S
C3547 C3544 1.403 . S
C3547 C3548 1.524 . S
C3547 C3551 1.400 . S
C3548 H3533 0.960 . S
C3548 H3534 0.960 . S
C3548 H3535 0.960 . S
C3548 C3547 1.524 . S
C3549 C3546 1.403 . S
C3549 C3550 1.392 . S
C3549 C3553 1.495 . S
C3550 C3549 1.392 . S
C3550 C3551 1.385 . S
C3550 C3552 1.478 . S
C3551 H3545 0.930 . S
C3551 C3547 1.400 . S
C3551 C3550 1.385 . S
C3552 C3550 1.478 . S
C3552 C3554 1.381 . S
C3552 C3558 1.383 . S
C3553 C3549 1.495 . S
C3553 H3559 0.959 . S
C3553 H3560 0.961 . S
C3553 H3561 0.960 . S
C3554 C3552 1.381 . S
C3554 C3555 1.394 . S
C3554 H3562 0.930 . S
C3555 C3554 1.394 . S
C3555 C3556 1.383 . S
C3555 H3563 0.929 . S
C3556 C3555 1.383 . S
C3556 C3557 1.377 . S
C3557 H3541 0.930 . S
C3557 C3556 1.377 . S
C3557 C3558 1.379 . S
C3558 H3542 0.931 . S
C3558 C3552 1.383 . S
C3558 C3557 1.379 . S
H3559 C3553 0.959 . S
H3560 C3553 0.961 . S
H3561 C3553 0.960 . S
H3562 C3554 0.930 . S
H3563 C3555 0.929 . S
H3564 C3572 0.929 . S
H3565 C3574 0.930 . S
H3566 C3576 0.930 . S
H3567 C3579 0.929 . S
H3568 C3582 0.930 . S
H3569 C3584 0.960 . S
H3570 C3584 0.960 . S
H3571 C3584 0.960 . S
C3572 H3564 0.929 . S
C3572 C3573 1.377 . S
C3572 C3574 1.384 . S
C3573 C3572 1.377 . S
C3573 C3579 1.390 . S
C3574 H3565 0.930 . S
C3574 C3572 1.384 . S
C3574 C3575 1.372 . S
C3575 C3574 1.372 . S
C3575 C3576 1.400 . S
C3575 C3580 1.490 . S
C3576 H3566 0.930 . S
C3576 C3575 1.400 . S
C3576 C3579 1.386 . S
H3577 C3593 0.930 . S
H3578 C3594 0.931 . S
C3579 H3567 0.929 . S
C3579 C3573 1.390 . S
C3579 C3576 1.386 . S
C3580 C3575 1.490 . S
C3580 C3582 1.395 . S
C3580 C3583 1.403 . S
H3581 C3587 0.930 . S
C3582 H3568 0.930 . S
C3582 C3580 1.395 . S
C3582 C3585 1.403 . S
C3583 C3580 1.403 . S
C3583 C3584 1.524 . S
C3583 C3587 1.400 . S
C3584 H3569 0.960 . S
C3584 H3570 0.960 . S
C3584 H3571 0.960 . S
C3584 C3583 1.524 . S
C3585 C3582 1.403 . S
C3585 C3586 1.392 . S
C3585 C3589 1.495 . S
C3586 C3585 1.392 . S
C3586 C3587 1.385 . S
C3586 C3588 1.478 . S
C3587 H3581 0.930 . S
C3587 C3583 1.400 . S
C3587 C3586 1.385 . S
C3588 C3586 1.478 . S
C3588 C3590 1.381 . S
C3588 C3594 1.383 . S
C3589 C3585 1.495 . S
C3589 H3595 0.959 . S
C3589 H3596 0.961 . S
C3589 H3597 0.960 . S
C3590 C3588 1.381 . S
C3590 C3591 1.394 1_554 S
C3590 H3598 0.930 . S
C3591 C3590 1.394 1_556 S
C3591 C3592 1.383 . S
C3591 H3599 0.929 . S
C3592 C3591 1.383 . S
C3592 C3593 1.377 . S
C3593 H3577 0.930 . S
C3593 C3592 1.377 . S
C3593 C3594 1.379 1_556 S
C3594 H3578 0.931 . S
C3594 C3588 1.383 . S
C3594 C3593 1.379 1_554 S
H3595 C3589 0.959 . S
H3596 C3589 0.961 . S
H3597 C3589 0.960 . S
H3598 C3590 0.930 . S
H3599 C3591 0.929 . S
H3600 C3608 0.929 . S
H3601 C3610 0.930 . S
H3602 C3612 0.930 . S
H3603 C3615 0.929 . S
H3604 C3618 0.930 . S
H3605 C3620 0.960 . S
H3606 C3620 0.960 . S
H3607 C3620 0.960 . S
C3608 H3600 0.929 . S
C3608 C3609 1.377 . S
C3608 C3610 1.384 . S
C3609 C3608 1.377 . S
C3609 C3615 1.390 . S
C3610 H3601 0.930 . S
C3610 C3608 1.384 . S
C3610 C3611 1.372 . S
C3611 C3610 1.372 . S
C3611 C3612 1.400 . S
C3611 C3616 1.490 . S
C3612 H3602 0.930 . S
C3612 C3611 1.400 . S
C3612 C3615 1.386 . S
H3613 C3629 0.930 . S
H3614 C3630 0.931 . S
C3615 H3603 0.929 . S
C3615 C3609 1.390 . S
C3615 C3612 1.386 . S
C3616 C3611 1.490 . S
C3616 C3618 1.395 . S
C3616 C3619 1.403 . S
H3617 C3623 0.930 . S
C3618 H3604 0.930 . S
C3618 C3616 1.395 . S
C3618 C3621 1.403 . S
C3619 C3616 1.403 . S
C3619 C3620 1.524 . S
C3619 C3623 1.400 . S
C3620 H3605 0.960 . S
C3620 H3606 0.960 . S
C3620 H3607 0.960 . S
C3620 C3619 1.524 . S
C3621 C3618 1.403 . S
C3621 C3622 1.392 . S
C3621 C3625 1.495 . S
C3622 C3621 1.392 . S
C3622 C3623 1.385 . S
C3622 C3624 1.478 . S
C3623 H3617 0.930 . S
C3623 C3619 1.400 . S
C3623 C3622 1.385 . S
C3624 C3622 1.478 . S
C3624 C3626 1.381 . S
C3624 C3630 1.383 . S
C3625 C3621 1.495 . S
C3625 H3631 0.959 . S
C3625 H3632 0.961 . S
C3625 H3633 0.960 . S
C3626 C3624 1.381 . S
C3626 C3627 1.394 1_554 S
C3626 H3634 0.930 . S
C3627 C3626 1.394 1_556 S
C3627 C3628 1.383 . S
C3627 H3635 0.929 . S
C3628 C3627 1.383 . S
C3628 C3629 1.377 . S
C3629 H3613 0.930 . S
C3629 C3628 1.377 . S
C3629 C3630 1.379 1_556 S
C3630 H3614 0.931 . S
C3630 C3624 1.383 . S
C3630 C3629 1.379 1_554 S
H3631 C3625 0.959 . S
H3632 C3625 0.961 . S
H3633 C3625 0.960 . S
H3634 C3626 0.930 . S
H3635 C3627 0.929 . S
H3636 C3644 0.929 . S
H3637 C3646 0.930 . S
H3638 C3648 0.930 . S
H3639 C3651 0.929 . S
H3640 C3654 0.930 . S
H3641 C3656 0.960 . S
H3642 C3656 0.960 . S
H3643 C3656 0.960 . S
C3644 H3636 0.929 . S
C3644 C3645 1.377 . S
C3644 C3646 1.384 . S
C3645 C3644 1.377 . S
C3645 C3651 1.390 . S
C3646 H3637 0.930 . S
C3646 C3644 1.384 . S
C3646 C3647 1.372 . S
C3647 C3646 1.372 . S
C3647 C3648 1.400 . S
C3647 C3652 1.490 . S
C3648 H3638 0.930 . S
C3648 C3647 1.400 . S
C3648 C3651 1.386 . S
H3649 C3665 0.930 . S
H3650 C3666 0.931 . S
C3651 H3639 0.929 . S
C3651 C3645 1.390 . S
C3651 C3648 1.386 . S
C3652 C3647 1.490 . S
C3652 C3654 1.395 . S
C3652 C3655 1.403 . S
H3653 C3659 0.930 . S
C3654 H3640 0.930 . S
C3654 C3652 1.395 . S
C3654 C3657 1.403 . S
C3655 C3652 1.403 . S
C3655 C3656 1.524 . S
C3655 C3659 1.400 . S
C3656 H3641 0.960 . S
C3656 H3642 0.960 . S
C3656 H3643 0.960 . S
C3656 C3655 1.524 . S
C3657 C3654 1.403 . S
C3657 C3658 1.392 . S
C3657 C3661 1.495 . S
C3658 C3657 1.392 . S
C3658 C3659 1.385 . S
C3658 C3660 1.478 . S
C3659 H3653 0.930 . S
C3659 C3655 1.400 . S
C3659 C3658 1.385 . S
C3660 C3658 1.478 . S
C3660 C3662 1.381 . S
C3660 C3666 1.383 . S
C3661 C3657 1.495 . S
C3661 H3667 0.959 . S
C3661 H3668 0.961 . S
C3661 H3669 0.960 . S
C3662 C3660 1.381 . S
C3662 C3663 1.394 1_554 S
C3662 H3670 0.930 . S
C3663 C3662 1.394 1_556 S
C3663 C3664 1.383 . S
C3663 H3671 0.929 . S
C3664 C3663 1.383 . S
C3664 C3665 1.377 . S
C3665 H3649 0.930 . S
C3665 C3664 1.377 . S
C3665 C3666 1.379 1_556 S
C3666 H3650 0.931 . S
C3666 C3660 1.383 . S
C3666 C3665 1.379 1_554 S
H3667 C3661 0.959 . S
H3668 C3661 0.961 . S
H3669 C3661 0.960 . S
H3670 C3662 0.930 . S
H3671 C3663 0.929 . S
H3672 C3680 0.929 . S
H3673 C3682 0.930 . S
H3674 C3684 0.930 . S
H3675 C3687 0.929 . S
H3676 C3690 0.930 . S
H3677 C3692 0.960 . S
H3678 C3692 0.960 . S
H3679 C3692 0.960 . S
C3680 H3672 0.929 . S
C3680 C3681 1.377 . S
C3680 C3682 1.384 1_554 S
C3681 C3680 1.377 . S
C3681 C3687 1.390 . S
C3682 H3673 0.930 . S
C3682 C3680 1.384 1_556 S
C3682 C3683 1.372 . S
C3683 C3682 1.372 . S
C3683 C3684 1.400 . S
C3683 C3688 1.490 . S
C3684 H3674 0.930 . S
C3684 C3683 1.400 . S
C3684 C3687 1.386 1_556 S
H3685 C3701 0.930 . S
H3686 C3702 0.931 . S
C3687 H3675 0.929 . S
C3687 C3681 1.390 . S
C3687 C3684 1.386 1_554 S
C3688 C3683 1.490 . S
C3688 C3690 1.395 . S
C3688 C3691 1.403 . S
H3689 C3695 0.930 . S
C3690 H3676 0.930 . S
C3690 C3688 1.395 . S
C3690 C3693 1.403 . S
C3691 C3688 1.403 . S
C3691 C3692 1.524 . S
C3691 C3695 1.400 . S
C3692 H3677 0.960 . S
C3692 H3678 0.960 . S
C3692 H3679 0.960 . S
C3692 C3691 1.524 . S
C3693 C3690 1.403 . S
C3693 C3694 1.392 . S
C3693 C3697 1.495 . S
C3694 C3693 1.392 . S
C3694 C3695 1.385 . S
C3694 C3696 1.478 . S
C3695 H3689 0.930 . S
C3695 C3691 1.400 . S
C3695 C3694 1.385 . S
C3696 C3694 1.478 . S
C3696 C3698 1.381 . S
C3696 C3702 1.383 . S
C3697 C3693 1.495 . S
C3697 H3703 0.959 . S
C3697 H3704 0.961 . S
C3697 H3705 0.960 . S
C3698 C3696 1.381 . S
C3698 C3699 1.394 . S
C3698 H3706 0.930 . S
C3699 C3698 1.394 . S
C3699 C3700 1.383 . S
C3699 H3707 0.929 . S
C3700 C3699 1.383 . S
C3700 C3701 1.377 . S
C3701 H3685 0.930 . S
C3701 C3700 1.377 . S
C3701 C3702 1.379 . S
C3702 H3686 0.931 . S
C3702 C3696 1.383 . S
C3702 C3701 1.379 . S
H3703 C3697 0.959 . S
H3704 C3697 0.961 . S
H3705 C3697 0.960 . S
H3706 C3698 0.930 . S
H3707 C3699 0.929 . S
H3708 C3716 0.929 . S
H3709 C3718 0.930 . S
H3710 C3720 0.930 . S
H3711 C3723 0.929 . S
H3712 C3726 0.930 . S
H3713 C3728 0.960 . S
H3714 C3728 0.960 . S
H3715 C3728 0.960 . S
C3716 H3708 0.929 . S
C3716 C3717 1.377 . S
C3716 C3718 1.384 1_554 S
C3717 C3716 1.377 . S
C3717 C3723 1.390 . S
C3718 H3709 0.930 . S
C3718 C3716 1.384 1_556 S
C3718 C3719 1.372 . S
C3719 C3718 1.372 . S
C3719 C3720 1.400 . S
C3719 C3724 1.490 . S
C3720 H3710 0.930 . S
C3720 C3719 1.400 . S
C3720 C3723 1.386 1_556 S
H3721 C3737 0.930 . S
H3722 C3738 0.931 . S
C3723 H3711 0.929 . S
C3723 C3717 1.390 . S
C3723 C3720 1.386 1_554 S
C3724 C3719 1.490 . S
C3724 C3726 1.395 . S
C3724 C3727 1.403 . S
H3725 C3731 0.930 . S
C3726 H3712 0.930 . S
C3726 C3724 1.395 . S
C3726 C3729 1.403 . S
C3727 C3724 1.403 . S
C3727 C3728 1.524 . S
C3727 C3731 1.400 . S
C3728 H3713 0.960 . S
C3728 H3714 0.960 . S
C3728 H3715 0.960 . S
C3728 C3727 1.524 . S
C3729 C3726 1.403 . S
C3729 C3730 1.392 . S
C3729 C3733 1.495 . S
C3730 C3729 1.392 . S
C3730 C3731 1.385 . S
C3730 C3732 1.478 . S
C3731 H3725 0.930 . S
C3731 C3727 1.400 . S
C3731 C3730 1.385 . S
C3732 C3730 1.478 . S
C3732 C3734 1.381 . S
C3732 C3738 1.383 . S
C3733 C3729 1.495 . S
C3733 H3739 0.959 . S
C3733 H3740 0.961 . S
C3733 H3741 0.960 . S
C3734 C3732 1.381 . S
C3734 C3735 1.394 . S
C3734 H3742 0.930 . S
C3735 C3734 1.394 . S
C3735 C3736 1.383 . S
C3735 H3743 0.929 . S
C3736 C3735 1.383 . S
C3736 C3737 1.377 . S
C3737 H3721 0.930 . S
C3737 C3736 1.377 . S
C3737 C3738 1.379 . S
C3738 H3722 0.931 . S
C3738 C3732 1.383 . S
C3738 C3737 1.379 . S
H3739 C3733 0.959 . S
H3740 C3733 0.961 . S
H3741 C3733 0.960 . S
H3742 C3734 0.930 . S
H3743 C3735 0.929 . S
H3744 C3752 0.929 . S
H3745 C3754 0.930 . S
H3746 C3756 0.930 . S
H3747 C3759 0.929 . S
H3748 C3762 0.930 . S
H3749 C3764 0.960 . S
H3750 C3764 0.960 . S
H3751 C3764 0.960 . S
C3752 H3744 0.929 . S
C3752 C3753 1.377 . S
C3752 C3754 1.384 1_554 S
C3753 C3752 1.377 . S
C3753 C3759 1.390 . S
C3754 H3745 0.930 . S
C3754 C3752 1.384 1_556 S
C3754 C3755 1.372 . S
C3755 C3754 1.372 . S
C3755 C3756 1.400 . S
C3755 C3760 1.490 . S
C3756 H3746 0.930 . S
C3756 C3755 1.400 . S
C3756 C3759 1.386 1_556 S
H3757 C3773 0.930 . S
H3758 C3774 0.931 . S
C3759 H3747 0.929 . S
C3759 C3753 1.390 . S
C3759 C3756 1.386 1_554 S
C3760 C3755 1.490 . S
C3760 C3762 1.395 . S
C3760 C3763 1.403 . S
H3761 C3767 0.930 . S
C3762 H3748 0.930 . S
C3762 C3760 1.395 . S
C3762 C3765 1.403 . S
C3763 C3760 1.403 . S
C3763 C3764 1.524 . S
C3763 C3767 1.400 . S
C3764 H3749 0.960 . S
C3764 H3750 0.960 . S
C3764 H3751 0.960 . S
C3764 C3763 1.524 . S
C3765 C3762 1.403 . S
C3765 C3766 1.392 . S
C3765 C3769 1.495 . S
C3766 C3765 1.392 . S
C3766 C3767 1.385 . S
C3766 C3768 1.478 . S
C3767 H3761 0.930 . S
C3767 C3763 1.400 . S
C3767 C3766 1.385 . S
C3768 C3766 1.478 . S
C3768 C3770 1.381 . S
C3768 C3774 1.383 . S
C3769 C3765 1.495 . S
C3769 H3775 0.959 . S
C3769 H3776 0.961 . S
C3769 H3777 0.960 . S
C3770 C3768 1.381 . S
C3770 C3771 1.394 . S
C3770 H3778 0.930 . S
C3771 C3770 1.394 . S
C3771 C3772 1.383 . S
C3771 H3779 0.929 . S
C3772 C3771 1.383 . S
C3772 C3773 1.377 . S
C3773 H3757 0.930 . S
C3773 C3772 1.377 . S
C3773 C3774 1.379 . S
C3774 H3758 0.931 . S
C3774 C3768 1.383 . S
C3774 C3773 1.379 . S
H3775 C3769 0.959 . S
H3776 C3769 0.961 . S
H3777 C3769 0.960 . S
H3778 C3770 0.930 . S
H3779 C3771 0.929 . S
H3780 C3788 0.929 . S
H3781 C3790 0.930 . S
H3782 C3792 0.930 . S
H3783 C3795 0.929 . S
H3784 C3798 0.930 . S
H3785 C3800 0.960 . S
H3786 C3800 0.960 . S
H3787 C3800 0.960 . S
C3788 H3780 0.929 . S
C3788 C3789 1.377 . S
C3788 C3790 1.384 . S
C3789 C3788 1.377 . S
C3789 C3795 1.390 . S
C3790 H3781 0.930 . S
C3790 C3788 1.384 . S
C3790 C3791 1.372 . S
C3791 C3790 1.372 . S
C3791 C3792 1.400 . S
C3791 C3796 1.490 . S
C3792 H3782 0.930 . S
C3792 C3791 1.400 . S
C3792 C3795 1.386 . S
H3793 C3809 0.930 . S
H3794 C3810 0.931 . S
C3795 H3783 0.929 . S
C3795 C3789 1.390 . S
C3795 C3792 1.386 . S
C3796 C3791 1.490 . S
C3796 C3798 1.395 . S
C3796 C3799 1.403 . S
H3797 C3803 0.930 . S
C3798 H3784 0.930 . S
C3798 C3796 1.395 . S
C3798 C3801 1.403 . S
C3799 C3796 1.403 . S
C3799 C3800 1.524 . S
C3799 C3803 1.400 . S
C3800 H3785 0.960 . S
C3800 H3786 0.960 . S
C3800 H3787 0.960 . S
C3800 C3799 1.524 . S
C3801 C3798 1.403 . S
C3801 C3802 1.392 . S
C3801 C3805 1.495 . S
C3802 C3801 1.392 . S
C3802 C3803 1.385 . S
C3802 C3804 1.478 . S
C3803 H3797 0.930 . S
C3803 C3799 1.400 . S
C3803 C3802 1.385 . S
C3804 C3802 1.478 . S
C3804 C3806 1.381 . S
C3804 C3810 1.383 . S
C3805 C3801 1.495 . S
C3805 H3811 0.959 . S
C3805 H3812 0.961 . S
C3805 H3813 0.960 . S
C3806 C3804 1.381 . S
C3806 C3807 1.394 . S
C3806 H3814 0.930 . S
C3807 C3806 1.394 . S
C3807 C3808 1.383 . S
C3807 H3815 0.929 . S
C3808 C3807 1.383 . S
C3808 C3809 1.377 . S
C3809 H3793 0.930 . S
C3809 C3808 1.377 . S
C3809 C3810 1.379 . S
C3810 H3794 0.931 . S
C3810 C3804 1.383 . S
C3810 C3809 1.379 . S
H3811 C3805 0.959 . S
H3812 C3805 0.961 . S
H3813 C3805 0.960 . S
H3814 C3806 0.930 . S
H3815 C3807 0.929 . S
H3816 C3824 0.929 . S
H3817 C3826 0.930 . S
H3818 C3828 0.930 . S
H3819 C3831 0.929 . S
H3820 C3834 0.930 . S
H3821 C3836 0.960 . S
H3822 C3836 0.960 . S
H3823 C3836 0.960 . S
C3824 H3816 0.929 . S
C3824 C3825 1.377 . S
C3824 C3826 1.384 . S
C3825 C3824 1.377 . S
C3825 C3831 1.390 . S
C3826 H3817 0.930 . S
C3826 C3824 1.384 . S
C3826 C3827 1.372 . S
C3827 C3826 1.372 . S
C3827 C3828 1.400 . S
C3827 C3832 1.490 . S
C3828 H3818 0.930 . S
C3828 C3827 1.400 . S
C3828 C3831 1.386 . S
H3829 C3845 0.930 . S
H3830 C3846 0.931 . S
C3831 H3819 0.929 . S
C3831 C3825 1.390 . S
C3831 C3828 1.386 . S
C3832 C3827 1.490 . S
C3832 C3834 1.395 . S
C3832 C3835 1.403 . S
H3833 C3839 0.930 . S
C3834 H3820 0.930 . S
C3834 C3832 1.395 . S
C3834 C3837 1.403 . S
C3835 C3832 1.403 . S
C3835 C3836 1.524 . S
C3835 C3839 1.400 . S
C3836 H3821 0.960 . S
C3836 H3822 0.960 . S
C3836 H3823 0.960 . S
C3836 C3835 1.524 . S
C3837 C3834 1.403 . S
C3837 C3838 1.392 . S
C3837 C3841 1.495 . S
C3838 C3837 1.392 . S
C3838 C3839 1.385 . S
C3838 C3840 1.478 . S
C3839 H3833 0.930 . S
C3839 C3835 1.400 . S
C3839 C3838 1.385 . S
C3840 C3838 1.478 . S
C3840 C3842 1.381 . S
C3840 C3846 1.383 . S
C3841 C3837 1.495 . S
C3841 H3847 0.959 . S
C3841 H3848 0.961 . S
C3841 H3849 0.960 . S
C3842 C3840 1.381 . S
C3842 C3843 1.394 . S
C3842 H3850 0.930 . S
C3843 C3842 1.394 . S
C3843 C3844 1.383 . S
C3843 H3851 0.929 . S
C3844 C3843 1.383 . S
C3844 C3845 1.377 . S
C3845 H3829 0.930 . S
C3845 C3844 1.377 . S
C3845 C3846 1.379 . S
C3846 H3830 0.931 . S
C3846 C3840 1.383 . S
C3846 C3845 1.379 . S
H3847 C3841 0.959 . S
H3848 C3841 0.961 . S
H3849 C3841 0.960 . S
H3850 C3842 0.930 . S
H3851 C3843 0.929 . S
H3852 C3860 0.929 . S
H3853 C3862 0.930 . S
H3854 C3864 0.930 . S
H3855 C3867 0.929 . S
H3856 C3870 0.930 . S
H3857 C3872 0.960 . S
H3858 C3872 0.960 . S
H3859 C3872 0.960 . S
C3860 H3852 0.929 . S
C3860 C3861 1.377 . S
C3860 C3862 1.384 . S
C3861 C3860 1.377 . S
C3861 C3867 1.390 . S
C3862 H3853 0.930 . S
C3862 C3860 1.384 . S
C3862 C3863 1.372 . S
C3863 C3862 1.372 . S
C3863 C3864 1.400 . S
C3863 C3868 1.490 . S
C3864 H3854 0.930 . S
C3864 C3863 1.400 . S
C3864 C3867 1.386 . S
H3865 C3881 0.930 . S
H3866 C3882 0.931 . S
C3867 H3855 0.929 . S
C3867 C3861 1.390 . S
C3867 C3864 1.386 . S
C3868 C3863 1.490 . S
C3868 C3870 1.395 . S
C3868 C3871 1.403 . S
H3869 C3875 0.930 . S
C3870 H3856 0.930 . S
C3870 C3868 1.395 . S
C3870 C3873 1.403 . S
C3871 C3868 1.403 . S
C3871 C3872 1.524 . S
C3871 C3875 1.400 . S
C3872 H3857 0.960 . S
C3872 H3858 0.960 . S
C3872 H3859 0.960 . S
C3872 C3871 1.524 . S
C3873 C3870 1.403 . S
C3873 C3874 1.392 . S
C3873 C3877 1.495 . S
C3874 C3873 1.392 . S
C3874 C3875 1.385 . S
C3874 C3876 1.478 . S
C3875 H3869 0.930 . S
C3875 C3871 1.400 . S
C3875 C3874 1.385 . S
C3876 C3874 1.478 . S
C3876 C3878 1.381 . S
C3876 C3882 1.383 . S
C3877 C3873 1.495 . S
C3877 H3883 0.959 . S
C3877 H3884 0.961 . S
C3877 H3885 0.960 . S
C3878 C3876 1.381 . S
C3878 C3879 1.394 . S
C3878 H3886 0.930 . S
C3879 C3878 1.394 . S
C3879 C3880 1.383 . S
C3879 H3887 0.929 . S
C3880 C3879 1.383 . S
C3880 C3881 1.377 . S
C3881 H3865 0.930 . S
C3881 C3880 1.377 . S
C3881 C3882 1.379 . S
C3882 H3866 0.931 . S
C3882 C3876 1.383 . S
C3882 C3881 1.379 . S
H3883 C3877 0.959 . S
H3884 C3877 0.961 . S
H3885 C3877 0.960 . S
H3886 C3878 0.930 . S
H3887 C3879 0.929 . S
C1305 C580 1.050 . S
C1324 C4 1.027 1_556 S
C1341 C616 1.043 . S
C1360 C40 1.062 1_556 S
C1377 C76 1.050 1_556 S
C1396 C544 1.027 . S
C1413 C940 1.047 . S
C1432 C112 1.039 . S
C1449 C868 1.049 . S
C1468 C148 1.044 . S
C1485 C184 1.051 . S
C1504 C904 1.027 . S
C1521 C1228 1.050 . S
C1540 C220 1.050 1_554 S
C1557 C1264 1.051 . S
C1576 C256 1.063 1_554 S
C1593 C1192 1.043 . S
C1612 C292 1.026 1_554 S
C1629 C724 1.048 . S
C1648 C328 1.039 . S
C1665 C364 1.050 . S
C1684 C652 1.051 . S
C1701 C688 1.043 . S
C1720 C400 1.026 . S
C1737 C1012 1.046 . S
C1756 C436 1.041 . S
C1773 C472 1.044 . S
C1792 C1048 1.057 . S
C1809 C976 1.051 . S
C1828 C508 1.025 . S
C1845 C1156 1.048 . S
C1864 C760 1.059 . S
C1881 C1084 1.049 . S
C1900 C796 1.062 . S
C1917 C832 1.045 . S
C1936 C1120 1.047 . S
C1953 C254 1.472 . S
C1972 C14 1.380 . S
C1989 C290 1.474 . S
C2008 C50 1.411 . S
C2025 C218 1.474 . S
C2044 C86 1.427 . S
C2061 C122 1.405 . S
C2080 C398 1.467 . S
C2097 C326 1.474 . S
C2116 C158 1.379 . S
C2133 C194 1.395 . S
C2152 C362 1.474 . S
C2169 C38 1.474 . S
C2188 C230 1.388 . S
C2205 C266 1.393 . S
C2224 C74 1.473 . S
C2241 C2 1.472 . S
C2260 C302 1.429 . S
C2277 C182 1.473 . S
C2296 C338 1.428 . S
C2313 C110 1.473 . S
C2332 C374 1.403 . S
C2349 C410 1.402 . S
C2368 C146 1.472 . S
C2385 C446 1.396 . S
C2404 C686 1.475 . S
C2421 C722 1.472 . S
C2440 C482 1.403 . S
C2457 C650 1.474 . S
C2476 C518 1.422 . S
C2493 C554 1.399 . S
C2512 C830 1.465 . S
C2529 C758 1.473 . S
C2548 C590 1.366 . S
C2565 C626 1.406 . S
C2584 C794 1.467 . S
C2601 C662 1.405 . S
C2620 C470 1.465 . S
C2637 C698 1.396 . S
C2656 C506 1.475 . S
C2673 C434 1.474 . S
C2692 C734 1.364 . S
C2709 C614 1.473 . S
C2728 C770 1.410 . S
C2745 C542 1.472 . S
C2764 C806 1.407 . S
C2781 C842 1.398 . S
C2800 C578 1.474 . S
C2817 C1118 1.473 . S
C2836 C878 1.365 . S
C2853 C914 1.393 . S
C2872 C1154 1.470 . S
C2889 C950 1.399 . S
C2908 C1082 1.475 . S
C2925 C1262 1.474 . S
C2944 C986 1.423 . S
C2961 C1022 1.395 . S
C2980 C1190 1.467 . S
C2997 C1226 1.472 . S
C3016 C1058 1.404 . S
C3033 C902 1.473 . S
C3052 C1094 1.423 . S
C3069 C938 1.473 . S
C3088 C1130 1.408 . S
C3105 C1166 1.395 . S
C3124 C866 1.475 . S
C3141 C1202 1.393 . S
C3160 C1046 1.475 . S
C3177 C974 1.475 . S
C3196 C1238 1.373 . S
C3213 C1010 1.473 . S
C3232 C1274 1.403 . S
C3249 C3 1.511 . S
C3268 C111 1.507 . S
C3285 C39 1.512 . S
C3304 C147 1.507 . S
C3321 C183 1.511 . S
C3340 C75 1.509 . S
C3357 C219 1.511 . S
C3376 C327 1.507 . S
C3393 C363 1.512 . S
C3412 C255 1.509 . S
C3429 C399 1.512 . S
C3448 C291 1.508 . S
C3465 C435 1.512 . S
C3484 C543 1.507 . S
C3501 C471 1.512 . S
C3520 C579 1.509 . S
C3537 C615 1.512 . S
C3556 C507 1.510 . S
C3573 C651 1.511 . S
C3592 C759 1.508 . S
C3609 C687 1.512 . S
C3628 C795 1.510 . S
C3645 C723 1.512 . S
C3664 C831 1.507 . S
C3681 C975 1.511 . S
C3700 C867 1.509 . S
C3717 C1011 1.511 . S
C3736 C903 1.507 . S
C3753 C1047 1.511 . S
C3772 C939 1.508 . S
C3789 C1083 1.512 . S
C3808 C1191 1.510 . S
C3825 C1227 1.512 . S
C3844 C1119 1.510 . S
C3861 C1263 1.511 . S
C3880 C1155 1.507 . S
