# Generated by pormake.
# Topology som, (6)-cn, num edge types: 1
# Building blocks:
#     Node 0, Type 0, BuildingBlock: BETDEL_clean_sbu_0, # of connection points: 6
#     Node 1, Type 0, BuildingBlock: BETDEL_clean_sbu_0, # of connection points: 6
#     Node 2, Type 0, BuildingBlock: BETDEL_clean_sbu_0, # of connection points: 6
#     Node 3, Type 0, BuildingBlock: BETDEL_clean_sbu_0, # of connection points: 6
#     Node 4, Type 0, BuildingBlock: BETDEL_clean_sbu_0, # of connection points: 6
#     Node 5, Type 0, BuildingBlock: BETDEL_clean_sbu_0, # of connection points: 6
#     Node 6, Type 0, BuildingBlock: BETDEL_clean_sbu_0, # of connection points: 6
#     Node 7, Type 0, BuildingBlock: BETDEL_clean_sbu_0, # of connection points: 6
#     Node 8, Type 0, BuildingBlock: BETDEL_clean_sbu_0, # of connection points: 6
#     Node 9, Type 0, BuildingBlock: BETDEL_clean_sbu_0, # of connection points: 6
#     Node 10, Type 0, BuildingBlock: BETDEL_clean_sbu_0, # of connection points: 6
#     Node 11, Type 0, BuildingBlock: BETDEL_clean_sbu_0, # of connection points: 6
#     Node 12, Type 0, BuildingBlock: BETDEL_clean_sbu_0, # of connection points: 6
#     Node 13, Type 0, BuildingBlock: BETDEL_clean_sbu_0, # of connection points: 6
#     Node 14, Type 0, BuildingBlock: BETDEL_clean_sbu_0, # of connection points: 6
#     Node 15, Type 0, BuildingBlock: BETDEL_clean_sbu_0, # of connection points: 6
#     Node 16, Type 0, BuildingBlock: BETDEL_clean_sbu_0, # of connection points: 6
#     Node 17, Type 0, BuildingBlock: BETDEL_clean_sbu_0, # of connection points: 6
#     Node 18, Type 0, BuildingBlock: BETDEL_clean_sbu_0, # of connection points: 6
#     Node 19, Type 0, BuildingBlock: BETDEL_clean_sbu_0, # of connection points: 6
#     Node 20, Type 0, BuildingBlock: BETDEL_clean_sbu_0, # of connection points: 6
#     Node 21, Type 0, BuildingBlock: BETDEL_clean_sbu_0, # of connection points: 6
#     Node 22, Type 0, BuildingBlock: BETDEL_clean_sbu_0, # of connection points: 6
#     Node 23, Type 0, BuildingBlock: BETDEL_clean_sbu_0, # of connection points: 6
#     Node 24, Type 0, BuildingBlock: BETDEL_clean_sbu_0, # of connection points: 6
#     Node 25, Type 0, BuildingBlock: BETDEL_clean_sbu_0, # of connection points: 6
#     Node 26, Type 0, BuildingBlock: BETDEL_clean_sbu_0, # of connection points: 6
#     Node 27, Type 0, BuildingBlock: BETDEL_clean_sbu_0, # of connection points: 6
#     Node 28, Type 0, BuildingBlock: BETDEL_clean_sbu_0, # of connection points: 6
#     Node 29, Type 0, BuildingBlock: BETDEL_clean_sbu_0, # of connection points: 6
#     Node 30, Type 0, BuildingBlock: BETDEL_clean_sbu_0, # of connection points: 6
#     Node 31, Type 0, BuildingBlock: BETDEL_clean_sbu_0, # of connection points: 6
#     Edge 32, Type (0, 0), BuildingBlock: XIVTED_clean_linker_0, # of connection points: 2
#     Edge 33, Type (0, 0), BuildingBlock: XIVTED_clean_linker_0, # of connection points: 2
#     Edge 34, Type (0, 0), BuildingBlock: XIVTED_clean_linker_0, # of connection points: 2
#     Edge 35, Type (0, 0), BuildingBlock: XIVTED_clean_linker_0, # of connection points: 2
#     Edge 36, Type (0, 0), BuildingBlock: XIVTED_clean_linker_0, # of connection points: 2
#     Edge 37, Type (0, 0), BuildingBlock: XIVTED_clean_linker_0, # of connection points: 2
#     Edge 38, Type (0, 0), BuildingBlock: XIVTED_clean_linker_0, # of connection points: 2
#     Edge 39, Type (0, 0), BuildingBlock: XIVTED_clean_linker_0, # of connection points: 2
#     Edge 40, Type (0, 0), BuildingBlock: XIVTED_clean_linker_0, # of connection points: 2
#     Edge 41, Type (0, 0), BuildingBlock: XIVTED_clean_linker_0, # of connection points: 2
#     Edge 42, Type (0, 0), BuildingBlock: XIVTED_clean_linker_0, # of connection points: 2
#     Edge 43, Type (0, 0), BuildingBlock: XIVTED_clean_linker_0, # of connection points: 2
#     Edge 44, Type (0, 0), BuildingBlock: XIVTED_clean_linker_0, # of connection points: 2
#     Edge 45, Type (0, 0), BuildingBlock: XIVTED_clean_linker_0, # of connection points: 2
#     Edge 46, Type (0, 0), BuildingBlock: XIVTED_clean_linker_0, # of connection points: 2
#     Edge 47, Type (0, 0), BuildingBlock: XIVTED_clean_linker_0, # of connection points: 2
#     Edge 48, Type (0, 0), BuildingBlock: XIVTED_clean_linker_0, # of connection points: 2
#     Edge 49, Type (0, 0), BuildingBlock: XIVTED_clean_linker_0, # of connection points: 2
#     Edge 50, Type (0, 0), BuildingBlock: XIVTED_clean_linker_0, # of connection points: 2
#     Edge 51, Type (0, 0), BuildingBlock: XIVTED_clean_linker_0, # of connection points: 2
#     Edge 52, Type (0, 0), BuildingBlock: XIVTED_clean_linker_0, # of connection points: 2
#     Edge 53, Type (0, 0), BuildingBlock: XIVTED_clean_linker_0, # of connection points: 2
#     Edge 54, Type (0, 0), BuildingBlock: XIVTED_clean_linker_0, # of connection points: 2
#     Edge 55, Type (0, 0), BuildingBlock: XIVTED_clean_linker_0, # of connection points: 2
#     Edge 56, Type (0, 0), BuildingBlock: XIVTED_clean_linker_0, # of connection points: 2
#     Edge 57, Type (0, 0), BuildingBlock: XIVTED_clean_linker_0, # of connection points: 2
#     Edge 58, Type (0, 0), BuildingBlock: XIVTED_clean_linker_0, # of connection points: 2
#     Edge 59, Type (0, 0), BuildingBlock: XIVTED_clean_linker_0, # of connection points: 2
#     Edge 60, Type (0, 0), BuildingBlock: XIVTED_clean_linker_0, # of connection points: 2
#     Edge 61, Type (0, 0), BuildingBlock: XIVTED_clean_linker_0, # of connection points: 2
#     Edge 62, Type (0, 0), BuildingBlock: XIVTED_clean_linker_0, # of connection points: 2
#     Edge 63, Type (0, 0), BuildingBlock: XIVTED_clean_linker_0, # of connection points: 2
#     Edge 64, Type (0, 0), BuildingBlock: XIVTED_clean_linker_0, # of connection points: 2
#     Edge 65, Type (0, 0), BuildingBlock: XIVTED_clean_linker_0, # of connection points: 2
#     Edge 66, Type (0, 0), BuildingBlock: XIVTED_clean_linker_0, # of connection points: 2
#     Edge 67, Type (0, 0), BuildingBlock: XIVTED_clean_linker_0, # of connection points: 2
#     Edge 68, Type (0, 0), BuildingBlock: XIVTED_clean_linker_0, # of connection points: 2
#     Edge 69, Type (0, 0), BuildingBlock: XIVTED_clean_linker_0, # of connection points: 2
#     Edge 70, Type (0, 0), BuildingBlock: XIVTED_clean_linker_0, # of connection points: 2
#     Edge 71, Type (0, 0), BuildingBlock: XIVTED_clean_linker_0, # of connection points: 2
#     Edge 72, Type (0, 0), BuildingBlock: XIVTED_clean_linker_0, # of connection points: 2
#     Edge 73, Type (0, 0), BuildingBlock: XIVTED_clean_linker_0, # of connection points: 2
#     Edge 74, Type (0, 0), BuildingBlock: XIVTED_clean_linker_0, # of connection points: 2
#     Edge 75, Type (0, 0), BuildingBlock: XIVTED_clean_linker_0, # of connection points: 2
#     Edge 76, Type (0, 0), BuildingBlock: XIVTED_clean_linker_0, # of connection points: 2
#     Edge 77, Type (0, 0), BuildingBlock: XIVTED_clean_linker_0, # of connection points: 2
#     Edge 78, Type (0, 0), BuildingBlock: XIVTED_clean_linker_0, # of connection points: 2
#     Edge 79, Type (0, 0), BuildingBlock: XIVTED_clean_linker_0, # of connection points: 2
#     Edge 80, Type (0, 0), BuildingBlock: XIVTED_clean_linker_0, # of connection points: 2
#     Edge 81, Type (0, 0), BuildingBlock: XIVTED_clean_linker_0, # of connection points: 2
#     Edge 82, Type (0, 0), BuildingBlock: XIVTED_clean_linker_0, # of connection points: 2
#     Edge 83, Type (0, 0), BuildingBlock: XIVTED_clean_linker_0, # of connection points: 2
#     Edge 84, Type (0, 0), BuildingBlock: XIVTED_clean_linker_0, # of connection points: 2
#     Edge 85, Type (0, 0), BuildingBlock: XIVTED_clean_linker_0, # of connection points: 2
#     Edge 86, Type (0, 0), BuildingBlock: XIVTED_clean_linker_0, # of connection points: 2
#     Edge 87, Type (0, 0), BuildingBlock: XIVTED_clean_linker_0, # of connection points: 2
#     Edge 88, Type (0, 0), BuildingBlock: XIVTED_clean_linker_0, # of connection points: 2
#     Edge 89, Type (0, 0), BuildingBlock: XIVTED_clean_linker_0, # of connection points: 2
#     Edge 90, Type (0, 0), BuildingBlock: XIVTED_clean_linker_0, # of connection points: 2
#     Edge 91, Type (0, 0), BuildingBlock: XIVTED_clean_linker_0, # of connection points: 2
#     Edge 92, Type (0, 0), BuildingBlock: XIVTED_clean_linker_0, # of connection points: 2
#     Edge 93, Type (0, 0), BuildingBlock: XIVTED_clean_linker_0, # of connection points: 2
#     Edge 94, Type (0, 0), BuildingBlock: XIVTED_clean_linker_0, # of connection points: 2
#     Edge 95, Type (0, 0), BuildingBlock: XIVTED_clean_linker_0, # of connection points: 2
#     Edge 96, Type (0, 0), BuildingBlock: XIVTED_clean_linker_0, # of connection points: 2
#     Edge 97, Type (0, 0), BuildingBlock: XIVTED_clean_linker_0, # of connection points: 2
#     Edge 98, Type (0, 0), BuildingBlock: XIVTED_clean_linker_0, # of connection points: 2
#     Edge 99, Type (0, 0), BuildingBlock: XIVTED_clean_linker_0, # of connection points: 2
#     Edge 100, Type (0, 0), BuildingBlock: XIVTED_clean_linker_0, # of connection points: 2
#     Edge 101, Type (0, 0), BuildingBlock: XIVTED_clean_linker_0, # of connection points: 2
#     Edge 102, Type (0, 0), BuildingBlock: XIVTED_clean_linker_0, # of connection points: 2
#     Edge 103, Type (0, 0), BuildingBlock: XIVTED_clean_linker_0, # of connection points: 2
#     Edge 104, Type (0, 0), BuildingBlock: XIVTED_clean_linker_0, # of connection points: 2
#     Edge 105, Type (0, 0), BuildingBlock: XIVTED_clean_linker_0, # of connection points: 2
#     Edge 106, Type (0, 0), BuildingBlock: XIVTED_clean_linker_0, # of connection points: 2
#     Edge 107, Type (0, 0), BuildingBlock: XIVTED_clean_linker_0, # of connection points: 2
#     Edge 108, Type (0, 0), BuildingBlock: XIVTED_clean_linker_0, # of connection points: 2
#     Edge 109, Type (0, 0), BuildingBlock: XIVTED_clean_linker_0, # of connection points: 2
#     Edge 110, Type (0, 0), BuildingBlock: XIVTED_clean_linker_0, # of connection points: 2
#     Edge 111, Type (0, 0), BuildingBlock: XIVTED_clean_linker_0, # of connection points: 2
#     Edge 112, Type (0, 0), BuildingBlock: XIVTED_clean_linker_0, # of connection points: 2
#     Edge 113, Type (0, 0), BuildingBlock: XIVTED_clean_linker_0, # of connection points: 2
#     Edge 114, Type (0, 0), BuildingBlock: XIVTED_clean_linker_0, # of connection points: 2
#     Edge 115, Type (0, 0), BuildingBlock: XIVTED_clean_linker_0, # of connection points: 2
#     Edge 116, Type (0, 0), BuildingBlock: XIVTED_clean_linker_0, # of connection points: 2
#     Edge 117, Type (0, 0), BuildingBlock: XIVTED_clean_linker_0, # of connection points: 2
#     Edge 118, Type (0, 0), BuildingBlock: XIVTED_clean_linker_0, # of connection points: 2
#     Edge 119, Type (0, 0), BuildingBlock: XIVTED_clean_linker_0, # of connection points: 2
#     Edge 120, Type (0, 0), BuildingBlock: XIVTED_clean_linker_0, # of connection points: 2
#     Edge 121, Type (0, 0), BuildingBlock: XIVTED_clean_linker_0, # of connection points: 2
#     Edge 122, Type (0, 0), BuildingBlock: XIVTED_clean_linker_0, # of connection points: 2
#     Edge 123, Type (0, 0), BuildingBlock: XIVTED_clean_linker_0, # of connection points: 2
#     Edge 124, Type (0, 0), BuildingBlock: XIVTED_clean_linker_0, # of connection points: 2
#     Edge 125, Type (0, 0), BuildingBlock: XIVTED_clean_linker_0, # of connection points: 2
#     Edge 126, Type (0, 0), BuildingBlock: XIVTED_clean_linker_0, # of connection points: 2
#     Edge 127, Type (0, 0), BuildingBlock: XIVTED_clean_linker_0, # of connection points: 2
# Relax obj value: 0.061
# Max RMSD: 0.112
# Mean RMSD: 0.112
data_MOF--net-som--node1-BETDEL_clean_sbu_0--edge1-XIVTED_clean_linker_0
_symmetry_space_group_name_H-M    P1
_symmetry_Int_Tables_number       1
_symmetry_cell_setting            triclinic
loop_
_symmetry_equiv_pos_as_xyz
'x, y, z'
_cell_length_a     18.233111
_cell_length_b     59.027599
_cell_length_c     114.15358
_cell_angle_alpha  90.00055
_cell_angle_beta   90.007338
_cell_angle_gamma 89.871867
loop_
_atom_site_label
_atom_site_type_symbol
_atom_site_fract_x
_atom_site_fract_y
_atom_site_fract_z
_atom_type_partial_charge
Dy0 Dy 0.96018 0.49319 0.07801 0.0
C1 C 0.26629 0.47431 0.07917 0.0
C2 C 0.81092 0.49657 0.07604 0.0
Dy3 Dy 0.11729 0.47752 0.07667 0.0
O4 O 0.8494 0.50391 0.08481 0.0
O5 O 0.85426 0.48804 0.06816 0.0
O6 O 0.98616 0.51118 0.09484 0.0
O7 O 0.03913 0.48048 0.09088 0.0
C8 C 0.03577 0.49666 0.09806 0.0
C9 C 0.04517 0.47454 0.0562 0.0
O10 O 0.06903 0.44497 0.08302 0.0
O11 O 0.94973 0.45548 0.07855 0.0
O12 O 0.22879 0.46629 0.07045 0.0
O13 O 0.22208 0.48348 0.08673 0.0
O14 O 0.09439 0.46013 0.05971 0.0
O15 O 0.03928 0.49036 0.06361 0.0
O16 O 1.00576 0.52527 0.07109 0.0
O17 O 0.12592 0.51565 0.07557 0.0
C18 C 0.9987 0.44001 0.08161 0.0
C19 C 0.07556 0.53076 0.07241 0.0
Dy20 Dy 0.33898 0.73047 0.07271 0.0
C21 C 0.0333 0.7495 0.0742 0.0
C22 C 0.48833 0.72697 0.07055 0.0
Dy23 Dy 0.1826 0.74613 0.07186 0.0
O24 O 0.44944 0.7181 0.07888 0.0
O25 O 0.44529 0.73712 0.06315 0.0
O26 O 0.31609 0.71279 0.08974 0.0
O27 O 0.26215 0.74333 0.08592 0.0
C28 C 0.26691 0.72727 0.09314 0.0
C29 C 0.25182 0.74891 0.0511 0.0
O30 O 0.23167 0.77817 0.07876 0.0
O31 O 0.34965 0.76821 0.07333 0.0
O32 O 0.07197 0.75903 0.06604 0.0
O33 O 0.07655 0.73877 0.08134 0.0
O34 O 0.20413 0.76353 0.05487 0.0
O35 O 0.25845 0.73305 0.05847 0.0
O36 O 0.29242 0.69834 0.066 0.0
O37 O 0.17361 0.70803 0.07119 0.0
C38 C 0.30148 0.78342 0.077 0.0
C39 C 0.22313 0.69284 0.06785 0.0
Dy40 Dy 0.97818 0.73428 0.19403 0.0
C41 C 0.28734 0.75406 0.18805 0.0
C42 C 0.82905 0.73133 0.19599 0.0
Dy43 Dy 0.14317 0.75024 0.19403 0.0
O44 O 0.86852 0.72111 0.18814 0.0
O45 O 0.87144 0.74247 0.20309 0.0
O46 O 1.00309 0.71506 0.17749 0.0
O47 O 0.05798 0.74554 0.18092 0.0
C48 C 0.05345 0.72902 0.17399 0.0
C49 C 0.09393 0.74896 0.21621 0.0
O50 O 0.08885 0.78332 0.18949 0.0
O51 O 0.96703 0.77153 0.19144 0.0
O52 O 0.25136 0.76836 0.19456 0.0
O53 O 0.24341 0.73827 0.18435 0.0
O54 O 0.15947 0.75541 0.21334 0.0
O55 O 0.05903 0.74415 0.20699 0.0
O56 O 0.02886 0.70469 0.20275 0.0
O57 O 0.14625 0.7121 0.19569 0.0
C58 C 1.01703 0.7874 0.18963 0.0
C59 C 0.09719 0.69835 0.20056 0.0
Dy60 Dy 0.35252 0.49686 0.19707 0.0
C61 C 0.04706 0.47931 0.19561 0.0
C62 C 0.50174 0.49991 0.19913 0.0
Dy63 Dy 0.19606 0.48227 0.19808 0.0
O64 O 0.46323 0.50807 0.19055 0.0
O65 O 0.45848 0.49065 0.20678 0.0
O66 O 0.32875 0.51473 0.18006 0.0
O67 O 0.27491 0.4843 0.18396 0.0
C68 C 0.2795 0.50028 0.17672 0.0
C69 C 0.26537 0.47874 0.21876 0.0
O70 O 0.24347 0.44961 0.1915 0.0
O71 O 0.36224 0.4591 0.19662 0.0
O72 O 0.08484 0.47072 0.20416 0.0
O73 O 0.09096 0.48897 0.18819 0.0
O74 O 0.21733 0.46439 0.2149 0.0
O75 O 0.27274 0.49473 0.21147 0.0
O76 O 0.30868 0.52926 0.20386 0.0
O77 O 0.18885 0.52056 0.19893 0.0
C78 C 0.31319 0.44403 0.19319 0.0
C79 C 0.23971 0.53536 0.2022 0.0
Dy80 Dy 0.92011 0.49693 0.94916 0.0
C81 C 0.22612 0.47754 0.94979 0.0
C82 C 0.77091 0.50036 0.94684 0.0
Dy83 Dy 0.07678 0.48114 0.94782 0.0
O84 O 0.8094 0.50936 0.95518 0.0
O85 O 0.81426 0.49012 0.93952 0.0
O86 O 0.94245 0.51375 0.96626 0.0
O87 O 0.99749 0.48351 0.96223 0.0
C88 C 0.99107 0.49915 0.96974 0.0
C89 C 1.00182 0.47855 0.92761 0.0
O90 O 0.03052 0.44886 0.95437 0.0
O91 O 0.91099 0.4588 0.94971 0.0
O92 O 0.1871 0.46937 0.94128 0.0
O93 O 0.18324 0.48703 0.95744 0.0
O94 O 0.05154 0.46396 0.93069 0.0
O95 O 0.99862 0.49438 0.93497 0.0
O96 O 0.96915 0.52923 0.94253 0.0
O97 O 0.08774 0.51888 0.94745 0.0
C98 C 0.96088 0.44348 0.95275 0.0
C99 C 0.0393 0.5343 0.94411 0.0
Dy100 Dy 0.85521 0.22832 0.94358 0.0
C101 C 0.54948 0.24715 0.94458 0.0
C102 C 1.00444 0.2251 0.94117 0.0
Dy103 Dy 0.69896 0.24374 0.9427 0.0
O104 O 0.96616 0.21592 0.94947 0.0
O105 O 0.96087 0.23546 0.93392 0.0
O106 O 0.83407 0.2102 0.96035 0.0
O107 O 0.77854 0.24066 0.95705 0.0
C108 C 0.7858 0.22451 0.96425 0.0
C109 C 0.77244 0.24797 0.92245 0.0
O110 O 0.74439 0.27555 0.94999 0.0
O111 O 0.86388 0.26639 0.94496 0.0
O112 O 0.58878 0.25582 0.93624 0.0
O113 O 0.59214 0.23724 0.95212 0.0
O114 O 0.72364 0.2624 0.92603 0.0
O115 O 0.77636 0.23146 0.92942 0.0
O116 O 0.80729 0.19595 0.93694 0.0
O117 O 0.6885 0.20603 0.94189 0.0
C118 C 0.8138 0.28128 0.94846 0.0
C119 C 0.73734 0.19075 0.93855 0.0
Dy120 Dy 0.89549 0.22634 0.82167 0.0
C121 C 0.20996 0.24593 0.81927 0.0
C122 C 0.75122 0.22251 0.82754 0.0
Dy123 Dy 0.06101 0.24281 0.82144 0.0
O124 O 0.78748 0.2081 0.82113 0.0
O125 O 0.79497 0.23838 0.83122 0.0
O126 O 0.87988 0.22095 0.80231 0.0
O127 O 0.97928 0.23268 0.80872 0.0
C128 C 0.94503 0.22779 0.79947 0.0
C129 C 0.98624 0.24749 0.84162 0.0
O130 O 1.00854 0.27249 0.8131 0.0
O131 O 0.89214 0.2645 0.82045 0.0
O132 O 0.17081 0.25604 0.8272 0.0
O133 O 0.16731 0.23481 0.8122 0.0
O134 O 0.03689 0.26148 0.83826 0.0
O135 O 0.9819 0.23128 0.83452 0.0
O136 O 0.95118 0.19394 0.82708 0.0
O137 O 0.07228 0.20551 0.82402 0.0
C138 C 0.94042 0.27859 0.81563 0.0
C139 C 0.02296 0.18979 0.82657 0.0
Dy140 Dy 0.85788 0.49523 0.82597 0.0
C141 C 0.55199 0.47801 0.82548 0.0
C142 C 1.00669 0.49809 0.82853 0.0
Dy143 Dy 0.70124 0.48088 0.82734 0.0
O144 O 0.96933 0.50643 0.81987 0.0
O145 O 0.9625 0.48868 0.836 0.0
O146 O 0.8367 0.51315 0.80919 0.0
O147 O 0.77962 0.48306 0.81274 0.0
C148 C 0.78736 0.49908 0.80546 0.0
C149 C 0.77615 0.47773 0.84756 0.0
O150 O 0.74389 0.44857 0.82029 0.0
O151 O 0.86466 0.45696 0.82476 0.0
O152 O 0.59077 0.46971 0.83399 0.0
O153 O 0.59494 0.48733 0.81781 0.0
O154 O 0.72646 0.46327 0.8444 0.0
O155 O 0.7799 0.49354 0.84022 0.0
O156 O 0.81145 0.52825 0.83221 0.0
O157 O 0.69181 0.51861 0.82765 0.0
C158 C 0.81304 0.44235 0.82157 0.0
C159 C 0.74155 0.53377 0.83069 0.0
Dy160 Dy 0.95614 -0.00321 0.58041 0.0
C161 C 0.26194 0.9775 0.58147 0.0
C162 C 0.80673 0.00025 0.57857 0.0
Dy163 Dy 0.11279 0.98083 0.57907 0.0
O164 O 0.84601 0.00872 0.58697 0.0
O165 O 0.84938 -0.00945 0.57096 0.0
O166 O 0.98276 0.01509 0.59713 0.0
O167 O 0.03512 0.98422 0.59334 0.0
C168 C 0.03216 0.00057 0.60042 0.0
C169 C 0.04036 0.97745 0.55864 0.0
O170 O 0.06409 0.94848 0.58563 0.0
O171 O 0.94478 0.95914 0.58127 0.0
O172 O 0.22373 0.96866 0.57305 0.0
O173 O 0.21834 0.98755 0.58882 0.0
O174 O 0.08945 0.96308 0.56224 0.0
O175 O 0.03473 -0.00656 0.56595 0.0
O176 O 1.002 0.02844 0.57302 0.0
O177 O 0.12206 0.01891 0.57757 0.0
C178 C 0.99358 0.94363 0.58433 0.0
C179 C 0.07188 0.03393 0.57424 0.0
Dy180 Dy 0.34922 0.23175 0.57274 0.0
C181 C 0.04361 0.25069 0.57425 0.0
C182 C 0.49861 0.22826 0.57065 0.0
Dy183 Dy 0.19297 0.24738 0.57197 0.0
O184 O 0.45967 0.2196 0.57903 0.0
O185 O 0.45561 0.2382 0.56316 0.0
O186 O 0.3259 0.21338 0.58954 0.0
O187 O 0.27225 0.24415 0.58606 0.0
C188 C 0.27686 0.22777 0.59309 0.0
C189 C 0.26242 0.25085 0.55127 0.0
O190 O 0.24154 0.27938 0.57896 0.0
O191 O 0.35979 0.26949 0.57363 0.0
O192 O 0.08229 0.25995 0.56601 0.0
O193 O 0.08687 0.24024 0.5815 0.0
O194 O 0.21498 0.26539 0.55519 0.0
O195 O 0.26889 0.23471 0.55849 0.0
O196 O 0.30293 0.19972 0.56584 0.0
O197 O 0.18408 0.20931 0.57105 0.0
C198 C 0.31138 0.28465 0.57728 0.0
C199 C 0.23361 0.19419 0.56764 0.0
Dy200 Dy 0.98172 0.23437 0.69357 0.0
C201 C 0.29095 0.25476 0.68784 0.0
C202 C 0.83256 0.23121 0.69542 0.0
Dy203 Dy 0.14663 0.25085 0.69369 0.0
O204 O 0.87276 0.22013 0.68798 0.0
O205 O 0.87425 0.24334 0.70219 0.0
O206 O 1.00751 0.21538 0.67693 0.0
O207 O 0.06186 0.24577 0.68058 0.0
C208 C 0.0581 0.22939 0.67358 0.0
C209 C 0.09586 0.24984 0.71579 0.0
O210 O 0.09128 0.28349 0.6886 0.0
O211 O 0.96986 0.27158 0.69089 0.0
O212 O 0.2543 0.26929 0.69411 0.0
O213 O 0.24762 0.23867 0.68429 0.0
O214 O 0.16126 0.25658 0.71301 0.0
O215 O 0.06187 0.24477 0.70653 0.0
O216 O 0.03303 0.20532 0.70263 0.0
O217 O 0.15042 0.21275 0.69557 0.0
C218 C 1.01937 0.28748 0.68881 0.0
C219 C 0.10157 0.19907 0.70055 0.0
Dy220 Dy 0.34519 -0.00311 0.69976 0.0
C221 C 0.03962 0.97942 0.69836 0.0
C222 C 0.49435 -8e-05 0.70186 0.0
Dy223 Dy 0.18861 0.98235 0.70079 0.0
O224 O 0.45594 0.0081 0.69328 0.0
O225 O 0.45103 -0.00937 0.70949 0.0
O226 O 0.32165 0.01471 0.68273 0.0
O227 O 0.26742 0.98437 0.68667 0.0
C228 C 0.27213 0.00033 0.67941 0.0
C229 C 0.25813 0.97886 0.72146 0.0
O230 O 0.23585 0.94978 0.69409 0.0
O231 O 0.35465 0.95911 0.69927 0.0
O232 O 0.07746 0.97071 0.70686 0.0
O233 O 0.08345 -0.01081 0.69096 0.0
O234 O 0.20996 0.96451 0.71763 0.0
O235 O 0.26543 -0.00517 0.71416 0.0
O236 O 0.30138 0.02935 0.70647 0.0
O237 O 0.18153 0.02061 0.70156 0.0
C238 C 0.3055 0.94413 0.69577 0.0
C239 C 0.23242 0.03543 0.70478 0.0
Dy240 Dy 0.92547 -0.0013 0.4513 0.0
C241 C 0.23156 0.97921 0.45244 0.0
C242 C 0.77628 0.00208 0.44886 0.0
Dy243 Dy 0.08225 0.98279 0.45032 0.0
O244 O 0.81416 0.01031 0.45748 0.0
O245 O 0.82026 -0.00732 0.44134 0.0
O246 O 0.94724 0.0158 0.46834 0.0
O247 O 1.00177 0.98534 0.46455 0.0
C248 C 0.99508 0.0011 0.47199 0.0
C249 C 1.00859 0.9798 0.43004 0.0
O250 O 0.03534 0.95043 0.45665 0.0
O251 O 0.91635 0.96058 0.45174 0.0
O252 O 0.19324 0.97214 0.44359 0.0
O253 O 0.18797 0.98755 0.46034 0.0
O254 O 0.05764 0.96515 0.43332 0.0
O255 O 1.00505 -0.00415 0.43728 0.0
O256 O 0.97504 0.03092 0.44469 0.0
O257 O 0.09308 0.02055 0.44994 0.0
C258 C 0.96578 0.94516 0.45485 0.0
C259 C 0.0451 0.03594 0.4464 0.0
Dy260 Dy 0.86271 0.72981 0.44457 0.0
C261 C 0.55195 0.7499 0.44894 0.0
C262 C 1.01146 0.72654 0.44264 0.0
Dy263 Dy 0.69659 0.7452 0.44376 0.0
O264 O 0.97207 0.71666 0.45059 0.0
O265 O 0.96931 0.73764 0.43548 0.0
O266 O 0.83931 0.71211 0.46141 0.0
O267 O 0.78131 0.74173 0.4574 0.0
C268 C 0.78831 0.72599 0.46484 0.0
C269 C 0.75432 0.743 0.42195 0.0
O270 O 0.74712 0.77809 0.44881 0.0
O271 O 0.87034 0.76763 0.4468 0.0
O272 O 0.58908 0.76356 0.44225 0.0
O273 O 0.59471 0.73422 0.45315 0.0
O274 O 0.68681 0.74887 0.42392 0.0
O275 O 0.78351 0.7388 0.43163 0.0
O276 O 0.81094 0.69902 0.43671 0.0
O277 O 0.69318 0.70746 0.44336 0.0
C278 C 0.81814 0.783 0.44866 0.0
C279 C 0.74177 0.69324 0.4388 0.0
Dy280 Dy 0.8946 0.72759 0.32238 0.0
C281 C 0.2096 0.74614 0.31943 0.0
C282 C 0.75044 0.72367 0.32825 0.0
Dy283 Dy 0.06104 0.74322 0.3221 0.0
O284 O 0.78708 0.70907 0.32201 0.0
O285 O 0.7937 0.73982 0.33174 0.0
O286 O 0.87725 0.72343 0.30299 0.0
O287 O 0.97776 0.73434 0.30934 0.0
C288 C 0.94251 0.73007 0.3001 0.0
C289 C 0.98942 0.74664 0.34267 0.0
O290 O 1.00873 0.77353 0.31432 0.0
O291 O 0.8931 0.76579 0.322 0.0
O292 O 0.17096 0.75773 0.32687 0.0
O293 O 0.16659 0.73361 0.31308 0.0
O294 O 0.04282 0.75991 0.33965 0.0
O295 O 0.98203 0.73133 0.33512 0.0
O296 O 0.94967 0.69465 0.32722 0.0
O297 O 0.07109 0.70584 0.32407 0.0
C298 C 0.94143 0.77987 0.31721 0.0
C299 C 1.02127 0.69022 0.32651 0.0
Dy300 Dy 0.85317 -0.0044 0.3292 0.0
C301 C 0.54741 0.97872 0.32907 0.0
C302 C 1.00208 -0.00158 0.33153 0.0
Dy303 Dy 0.69669 0.98162 0.33069 0.0
O304 O 0.96397 0.00749 0.32317 0.0
O305 O 0.95863 0.98824 0.33884 0.0
O306 O 0.83186 0.01373 0.31245 0.0
O307 O 0.7741 0.98381 0.316 0.0
C308 C 0.78187 -0.00013 0.30875 0.0
C309 C 0.77236 0.97763 0.35078 0.0
O310 O 0.73836 0.94946 0.32329 0.0
O311 O 0.85943 0.95735 0.32775 0.0
O312 O 0.58694 0.96983 0.33733 0.0
O313 O 0.5896 -0.0113 0.32152 0.0
O314 O 0.72248 0.96335 0.3475 0.0
O315 O 0.77622 -0.00624 0.34362 0.0
O316 O 0.80801 0.02859 0.33566 0.0
O317 O 0.68788 0.01936 0.33125 0.0
C318 C 0.80731 0.94297 0.32449 0.0
C319 C 0.73826 0.03434 0.33426 0.0
Dy320 Dy 0.46165 0.4954 0.57676 0.0
C321 C 0.7674 0.47752 0.57773 0.0
C322 C 0.31233 0.49863 0.57494 0.0
Dy323 Dy 0.61829 0.48058 0.57542 0.0
O324 O 0.35089 0.50539 0.58381 0.0
O325 O 0.35557 0.49068 0.56688 0.0
O326 O 0.48705 0.51354 0.59356 0.0
O327 O 0.54045 0.48284 0.58974 0.0
C328 C 0.53631 0.49903 0.5969 0.0
C329 C 0.54709 0.47741 0.55488 0.0
O330 O 0.57186 0.44774 0.58171 0.0
O331 O 0.4524 0.45764 0.57708 0.0
O332 O 0.72973 0.46995 0.56893 0.0
O333 O 0.72337 0.4862 0.58547 0.0
O334 O 0.59592 0.463 0.55851 0.0
O335 O 0.54042 0.49325 0.56227 0.0
O336 O 0.5052 0.52784 0.57003 0.0
O337 O 0.62553 0.51879 0.5746 0.0
C338 C 0.50193 0.4424 0.5802 0.0
C339 C 0.57451 0.53371 0.57147 0.0
Dy340 Dy 0.84018 0.73355 0.57313 0.0
C341 C 0.53441 0.75255 0.57448 0.0
C342 C 0.98951 0.73005 0.57107 0.0
Dy343 Dy 0.68365 0.74915 0.57213 0.0
O344 O 0.95055 0.72136 0.57944 0.0
O345 O 0.94656 0.74001 0.56358 0.0
O346 O 0.81648 0.71606 0.59022 0.0
O347 O 0.76284 0.74656 0.58621 0.0
C348 C 0.76715 0.73061 0.59349 0.0
C349 C 0.75315 0.7516 0.55138 0.0
O350 O 0.73292 0.78133 0.57891 0.0
O351 O 0.85094 0.77124 0.57357 0.0
O352 O 0.573 0.76195 0.56627 0.0
O353 O 0.5777 0.74191 0.58165 0.0
O354 O 0.70531 0.76625 0.55507 0.0
O355 O 0.75983 0.7359 0.55884 0.0
O356 O 0.79415 0.7014 0.56643 0.0
O357 O 0.67511 0.71095 0.57156 0.0
C358 C 0.80286 0.78651 0.57719 0.0
C359 C 0.72498 0.69579 0.56828 0.0
Dy360 Dy 0.45687 0.73306 0.69296 0.0
C361 C 0.76249 0.75132 0.6917 0.0
C362 C 0.30762 0.72977 0.6949 0.0
Dy363 Dy 0.6135 0.74816 0.69416 0.0
O364 O 0.34622 0.72247 0.68613 0.0
O365 O 0.35083 0.73825 0.7028 0.0
O366 O 0.48175 0.71524 0.67604 0.0
O367 O 0.53495 0.74585 0.67996 0.0
C368 C 0.53088 0.72977 0.67274 0.0
C369 C 0.54288 0.75112 0.71475 0.0
O370 O 0.56566 0.781 0.68805 0.0
O371 O 0.44659 0.77082 0.6927 0.0
O372 O 0.72484 0.75921 0.70044 0.0
O373 O 0.71844 0.74228 0.68409 0.0
O374 O 0.5915 0.76553 0.71114 0.0
O375 O 0.53634 0.73531 0.70735 0.0
O376 O 0.50197 0.70067 0.69965 0.0
O377 O 0.62189 0.70998 0.69502 0.0
C378 C 0.49562 0.78621 0.68965 0.0
C379 C 0.57151 0.69496 0.69817 0.0
Dy380 Dy 0.83694 0.49521 0.69723 0.0
C381 C 0.53169 0.47532 0.6956 0.0
C382 C 0.98638 0.4988 0.69938 0.0
Dy383 Dy 0.68103 0.47891 0.69798 0.0
O384 O 0.94726 0.50763 0.69105 0.0
O385 O 0.94346 0.48871 0.7068 0.0
O386 O 0.81326 0.51281 0.68017 0.0
O387 O 0.76072 0.48214 0.68401 0.0
C388 C 0.7646 0.49821 0.67679 0.0
C389 C 0.7503 0.47597 0.7187 0.0
O390 O 0.73244 0.44695 0.69116 0.0
O391 O 0.84948 0.4576 0.69669 0.0
O392 O 0.5705 0.46615 0.70387 0.0
O393 O 0.57488 0.48576 0.68835 0.0
O394 O 0.7034 0.46126 0.71484 0.0
O395 O 0.75617 0.49205 0.71144 0.0
O396 O 0.78896 0.52709 0.70402 0.0
O397 O 0.67066 0.51706 0.69876 0.0
C398 C 0.80267 0.44212 0.69297 0.0
C399 C 0.71947 0.5324 0.70214 0.0
Dy400 Dy 0.43461 0.49795 0.4475 0.0
C401 C 0.74073 0.47945 0.44855 0.0
C402 C 0.28554 0.501 0.44501 0.0
Dy403 Dy 0.59153 0.48273 0.44643 0.0
O404 O 0.32325 0.50979 0.4535 0.0
O405 O 0.32955 0.49114 0.43766 0.0
O406 O 0.45593 0.51542 0.46446 0.0
O407 O 0.51176 0.48516 0.46078 0.0
C408 C 0.5045 0.501 0.46816 0.0
C409 C 0.51733 0.47903 0.42623 0.0
O410 O 0.54641 0.45038 0.4531 0.0
O411 O 0.42669 0.45979 0.44828 0.0
O412 O 0.70245 0.47171 0.43985 0.0
O413 O 0.69722 0.48836 0.45629 0.0
O414 O 0.56697 0.46462 0.42955 0.0
O415 O 0.51346 0.49522 0.43338 0.0
O416 O 0.48243 0.53029 0.44073 0.0
O417 O 0.60137 0.52051 0.44573 0.0
C418 C 0.47706 0.44471 0.45146 0.0
C419 C 0.55236 0.53565 0.44227 0.0
Dy420 Dy 0.36455 0.22975 0.444 0.0
C421 C 0.05868 0.24873 0.44455 0.0
C422 C 0.51373 0.22638 0.44165 0.0
Dy423 Dy 0.20816 0.24524 0.44279 0.0
O424 O 0.47555 0.21798 0.45018 0.0
O425 O 0.4701 0.23604 0.43416 0.0
O426 O 0.34258 0.2121 0.46084 0.0
O427 O 0.28723 0.24253 0.45727 0.0
C428 C 0.29418 0.22653 0.46457 0.0
C429 C 0.28291 0.24838 0.4226 0.0
O430 O 0.25325 0.27729 0.4498 0.0
O431 O 0.37305 0.26793 0.44505 0.0
O432 O 0.09807 0.2569 0.43609 0.0
O433 O 0.10123 0.23929 0.45226 0.0
O434 O 0.23397 0.26305 0.42587 0.0
O435 O 0.28611 0.2323 0.42981 0.0
O436 O 0.31633 0.19707 0.43776 0.0
O437 O 0.19736 0.20755 0.4424 0.0
C438 C 0.32273 0.28296 0.44832 0.0
C439 C 0.24615 0.19206 0.43932 0.0
Dy440 Dy 0.43582 0.23014 0.32197 0.0
C441 C 0.74148 0.24879 0.32107 0.0
C442 C 0.28668 0.22696 0.32426 0.0
Dy443 Dy 0.59223 0.2454 0.32306 0.0
O444 O 0.32534 0.21751 0.31607 0.0
O445 O 0.32979 0.23759 0.33145 0.0
O446 O 0.45794 0.21233 0.30513 0.0
O447 O 0.51295 0.24272 0.30866 0.0
C448 C 0.50622 0.22671 0.30138 0.0
C449 C 0.51794 0.24926 0.34326 0.0
O450 O 0.54658 0.27762 0.31619 0.0
O451 O 0.42708 0.26824 0.32104 0.0
O452 O 0.70239 0.2573 0.32949 0.0
O453 O 0.69874 0.23901 0.31352 0.0
O454 O 0.5674 0.26362 0.33991 0.0
O455 O 0.51431 0.23302 0.33615 0.0
O456 O 0.48392 0.19808 0.32907 0.0
O457 O 0.60267 0.20761 0.32394 0.0
C458 C 0.47711 0.28329 0.31781 0.0
C459 C 0.55378 0.19258 0.32751 0.0
Dy460 Dy 0.35371 0.49767 0.32634 0.0
C461 C 0.04816 0.47773 0.32556 0.0
C462 C 0.50288 0.50121 0.32885 0.0
Dy463 Dy 0.19771 0.48137 0.32738 0.0
O464 O 0.46457 0.51 0.32042 0.0
O465 O 0.45928 0.49115 0.33619 0.0
O466 O 0.33147 0.51528 0.3095 0.0
O467 O 0.27741 0.48468 0.31301 0.0
C468 C 0.28384 0.50072 0.30571 0.0
C469 C 0.27244 0.47857 0.34762 0.0
O470 O 0.24488 0.44967 0.32025 0.0
O471 O 0.36404 0.45951 0.32511 0.0
O472 O 0.08777 0.46937 0.33396 0.0
O473 O 0.0906 0.48737 0.31792 0.0
O474 O 0.22431 0.4637 0.34435 0.0
O475 O 0.27468 0.49462 0.34038 0.0
O476 O 0.30266 0.52999 0.33271 0.0
O477 O 0.18485 0.51897 0.32775 0.0
C478 C 0.31472 0.44431 0.32174 0.0
C479 C 0.2322 0.53465 0.33103 0.0
Dy480 Dy 0.458 -0.00683 0.07957 0.0
C481 C 0.76384 0.97489 0.08075 0.0
C482 C 0.3087 -0.00368 0.07761 0.0
Dy483 Dy 0.61486 0.97799 0.07826 0.0
O484 O 0.34723 0.00419 0.08625 0.0
O485 O 0.35198 0.98734 0.06986 0.0
O486 O 0.48336 0.01093 0.09653 0.0
O487 O 0.53665 0.98037 0.09248 0.0
C488 C 0.53284 -0.00363 0.09974 0.0
C489 C 0.5434 0.97465 0.05777 0.0
O490 O 0.56752 0.94524 0.08452 0.0
O491 O 0.44807 0.95545 0.08002 0.0
O492 O 0.72639 0.96684 0.07204 0.0
O493 O 0.71962 0.98407 0.08831 0.0
O494 O 0.5925 0.96032 0.06139 0.0
O495 O 0.53692 -0.0094 0.0651 0.0
O496 O 0.50231 0.02532 0.07259 0.0
O497 O 0.62263 0.01618 0.07714 0.0
C498 C 0.49738 0.94008 0.08306 0.0
C499 C 0.5718 0.03109 0.07393 0.0
Dy500 Dy 0.83954 0.23032 0.07257 0.0
C501 C 0.53394 0.24915 0.0739 0.0
C502 C 0.98892 0.22687 0.07052 0.0
Dy503 Dy 0.68328 0.2458 0.07165 0.0
O504 O 0.94997 0.21826 0.07891 0.0
O505 O 0.94594 0.23674 0.06301 0.0
O506 O 0.81605 0.21245 0.08954 0.0
O507 O 0.76235 0.24306 0.08577 0.0
C508 C 0.76688 0.22693 0.09294 0.0
C509 C 0.75289 0.24888 0.05096 0.0
O510 O 0.73182 0.27797 0.07853 0.0
O511 O 0.85003 0.26805 0.07321 0.0
O512 O 0.57261 0.25828 0.06563 0.0
O513 O 0.57717 0.2388 0.0812 0.0
O514 O 0.70534 0.26348 0.05478 0.0
O515 O 0.75943 0.23288 0.05826 0.0
O516 O 0.79378 0.19814 0.06584 0.0
O517 O 0.67482 0.20766 0.071 0.0
C518 C 0.80167 0.28324 0.07683 0.0
C519 C 0.72463 0.19252 0.0677 0.0
Dy520 Dy 0.46661 0.23284 0.19316 0.0
C521 C 0.77217 0.25116 0.19174 0.0
C522 C 0.31736 0.22957 0.19519 0.0
Dy523 Dy 0.62316 0.248 0.19423 0.0
O524 O 0.35593 0.22181 0.18652 0.0
O525 O 0.36061 0.2385 0.20295 0.0
O526 O 0.49102 0.21489 0.17625 0.0
O527 O 0.54433 0.24551 0.18008 0.0
C528 C 0.54011 0.22938 0.17289 0.0
C529 C 0.55282 0.25127 0.21483 0.0
O530 O 0.57503 0.2807 0.18794 0.0
O531 O 0.45612 0.2706 0.19272 0.0
O532 O 0.73448 0.25927 0.20042 0.0
O533 O 0.72814 0.2419 0.1842 0.0
O534 O 0.60124 0.26566 0.21112 0.0
O535 O 0.54628 0.23532 0.20751 0.0
O536 O 0.51208 0.20062 0.2 0.0
O537 O 0.63178 0.20981 0.19519 0.0
C538 C 0.50499 0.28594 0.18954 0.0
C539 C 0.58154 0.19485 0.19847 0.0
Dy540 Dy 0.83127 -0.00824 0.20027 0.0
C541 C 0.52794 0.97668 0.19694 0.0
C542 C 0.98124 -0.00983 0.20058 0.0
Dy543 Dy 0.67601 0.97837 0.20077 0.0
O544 O 0.9421 0.00535 0.20601 0.0
O545 O 0.93866 0.97636 0.19505 0.0
O546 O 0.81286 0.00938 0.18304 0.0
O547 O 0.75543 0.97955 0.18669 0.0
C548 C 0.76284 -0.00454 0.17947 0.0
C549 C 0.73708 0.97571 0.22217 0.0
O550 O 0.72935 0.94636 0.1944 0.0
O551 O 0.83201 0.95519 0.20491 0.0
O552 O 0.56518 0.96181 0.20287 0.0
O553 O 0.57192 -0.00808 0.19281 0.0
O554 O 0.68626 0.96231 0.21833 0.0
O555 O 0.75001 -0.00907 0.21464 0.0
O556 O 0.79082 0.02563 0.20551 0.0
O557 O 0.67038 0.01656 0.20119 0.0
C558 C 0.79282 0.94027 0.19908 0.0
C559 C 0.72167 0.03158 0.20391 0.0
Dy560 Dy 0.42606 -0.00369 0.9506 0.0
C561 C 0.73215 0.97763 0.95182 0.0
C562 C 0.27694 -0.00058 0.94814 0.0
Dy563 Dy 0.58293 0.98095 0.94966 0.0
O564 O 0.31475 0.00812 0.95664 0.0
O565 O 0.32089 -0.01038 0.94076 0.0
O566 O 0.44751 0.014 0.96749 0.0
O567 O 0.50281 0.98357 0.96395 0.0
C568 C 0.49572 -0.00046 0.97126 0.0
C569 C 0.5093 0.97727 0.9294 0.0
O570 O 0.53739 0.94863 0.95628 0.0
O571 O 0.41798 0.95817 0.95134 0.0
O572 O 0.69391 0.9699 0.94312 0.0
O573 O 0.68858 0.98656 0.95955 0.0
O574 O 0.55875 0.96283 0.93276 0.0
O575 O 0.50532 -0.00654 0.93654 0.0
O576 O 0.47424 0.0285 0.94372 0.0
O577 O 0.59283 0.01872 0.94893 0.0
C578 C 0.46806 0.94303 0.95455 0.0
C579 C 0.54411 0.03384 0.94534 0.0
Dy580 Dy 0.35517 0.72871 0.94377 0.0
C581 C 0.04918 0.7476 0.94431 0.0
C582 C 0.50428 0.72548 0.94134 0.0
Dy583 Dy 0.19861 0.74416 0.94254 0.0
O584 O 0.46616 0.7165 0.94972 0.0
O585 O 0.46063 0.73565 0.93404 0.0
O586 O 0.33341 0.71104 0.96064 0.0
O587 O 0.2775 0.7413 0.957 0.0
C588 C 0.2845 0.72535 0.96433 0.0
C589 C 0.27384 0.7478 0.92242 0.0
O590 O 0.24356 0.77605 0.94979 0.0
O591 O 0.3636 0.76687 0.94509 0.0
O592 O 0.08856 0.756 0.93591 0.0
O593 O 0.09172 0.73794 0.95195 0.0
O594 O 0.22467 0.76235 0.92575 0.0
O595 O 0.27701 0.73154 0.92954 0.0
O596 O 0.30712 0.69617 0.93731 0.0
O597 O 0.188 0.70647 0.94195 0.0
C598 C 0.3131 0.78178 0.94843 0.0
C599 C 0.23695 0.69108 0.9388 0.0
Dy600 Dy 0.43153 0.72956 0.82208 0.0
C601 C 0.73742 0.74828 0.82114 0.0
C602 C 0.2825 0.72632 0.82454 0.0
Dy603 Dy 0.58822 0.74486 0.8232 0.0
O604 O 0.32034 0.7181 0.8159 0.0
O605 O 0.3264 0.7357 0.83206 0.0
O606 O 0.45298 0.71257 0.80502 0.0
O607 O 0.50814 0.74282 0.80888 0.0
C608 C 0.50111 0.72713 0.8014 0.0
C609 C 0.51453 0.74756 0.84351 0.0
O610 O 0.54231 0.77745 0.81693 0.0
O611 O 0.42296 0.76773 0.82172 0.0
O612 O 0.69899 0.75553 0.82994 0.0
O613 O 0.69404 0.7398 0.81326 0.0
O614 O 0.56366 0.76218 0.84032 0.0
O615 O 0.51084 0.73172 0.83616 0.0
O616 O 0.48027 0.69702 0.82848 0.0
O617 O 0.59868 0.70707 0.82338 0.0
C618 C 0.47287 0.78298 0.81868 0.0
C619 C 0.55017 0.69176 0.82674 0.0
Dy620 Dy 0.35236 -0.0027 0.82901 0.0
C621 C 0.04673 0.97781 0.82829 0.0
C622 C 0.50148 0.00073 0.83149 0.0
Dy623 Dy 0.19621 0.98135 0.83009 0.0
O624 O 0.46321 0.00951 0.82305 0.0
O625 O 0.4579 -0.00931 0.83884 0.0
O626 O 0.33028 0.01503 0.81219 0.0
O627 O 0.27561 0.98454 0.81569 0.0
C628 C 0.28224 0.00059 0.80841 0.0
C629 C 0.27104 0.97817 0.85029 0.0
O630 O 0.24265 0.9496 0.82289 0.0
O631 O 0.36209 0.95914 0.82772 0.0
O632 O 0.08631 0.96938 0.83668 0.0
O633 O 0.08914 0.9875 0.82066 0.0
O634 O 0.22259 0.96343 0.84699 0.0
O635 O 0.27361 -0.00568 0.84311 0.0
O636 O 0.3024 0.02974 0.83538 0.0
O637 O 0.18408 0.01897 0.83058 0.0
C638 C 0.31237 0.94408 0.82434 0.0
C639 C 0.232 0.03455 0.83379 0.0
H640 H 0.07926 0.4007 0.08326 0.0
H641 H 0.72227 0.32167 0.08202 0.0
H642 H 0.85702 0.42618 0.08378 0.0
H643 H 0.94391 0.2971 0.07756 0.0
H644 H 0.77114 0.3598 0.08528 0.0
H645 H 0.03097 0.36203 0.08395 0.0
C646 C 1.02049 0.39818 0.08364 0.0
C647 C 0.97216 0.41665 0.08329 0.0
C648 C 0.80895 0.34599 0.08365 0.0
C649 C 0.91656 0.37263 0.08403 0.0
C650 C 0.78104 0.32426 0.08178 0.0
C651 C 0.8289 0.30624 0.07937 0.0
C652 C 0.88514 0.34962 0.08313 0.0
C653 C 0.90471 0.31052 0.07923 0.0
C654 C 0.99288 0.37613 0.084 0.0
C655 C 0.8964 0.41243 0.08385 0.0
N656 N 0.93039 0.33176 0.08103 0.0
N657 N 0.87096 0.39088 0.08411 0.0
H658 H 0.57877 0.90086 0.08406 0.0
H659 H 0.22258 0.82153 0.08291 0.0
H660 H 0.35633 0.926 0.0856 0.0
H661 H 0.44369 0.79744 0.07724 0.0
H662 H 0.27154 0.8595 0.08654 0.0
H663 H 0.53106 0.8621 0.0844 0.0
C664 C 0.52009 0.89824 0.08461 0.0
C665 C 0.47148 0.91664 0.08463 0.0
C666 C 0.30923 0.84583 0.08455 0.0
C667 C 0.41656 0.87255 0.08496 0.0
C668 C 0.28127 0.82419 0.08247 0.0
C669 C 0.32892 0.80635 0.07964 0.0
C670 C 0.38529 0.84956 0.08381 0.0
C671 C 0.40464 0.81072 0.07925 0.0
C672 C 0.49283 0.87614 0.08475 0.0
C673 C 0.39587 0.9123 0.08538 0.0
N674 N 0.43039 0.83188 0.08126 0.0
N675 N 0.37075 0.89072 0.08543 0.0
H676 H 0.92934 0.92614 0.20535 0.0
H677 H 0.88165 0.80029 0.18209 0.0
H678 H 0.73343 0.90342 0.18764 0.0
H679 H 0.08762 0.82744 0.19426 0.0
H680 H 0.82767 0.83803 0.1832 0.0
H681 H 0.98769 0.89017 0.20105 0.0
C682 C 0.89817 0.91352 0.2006 0.0
C683 C 0.82586 0.91778 0.19692 0.0
C684 C 0.88489 0.83583 0.18548 0.0
C685 C 0.89339 0.87636 0.19189 0.0
C686 C 0.91589 0.81429 0.18485 0.0
C687 C 0.98912 0.81071 0.18822 0.0
C688 C 0.92713 0.85391 0.18966 0.0
C689 C 0.031 0.82946 0.1916 0.0
C690 C 0.93203 0.89299 0.19807 0.0
C691 C 0.78898 0.90079 0.1907 0.0
N692 N 0.99905 0.85024 0.19239 0.0
N693 N 0.8231 0.88073 0.18843 0.0
H694 H 0.232 0.40568 0.18877 0.0
H695 H 0.58626 0.3249 0.18728 0.0
H696 H 0.45487 0.42943 0.19227 0.0
H697 H 0.36328 0.30039 0.18811 0.0
H698 H 0.53902 0.36375 0.18644 0.0
H699 H 0.27921 0.36714 0.18599 0.0
C700 C 0.29069 0.40283 0.18889 0.0
C701 C 0.33939 0.42076 0.19089 0.0
C702 C 0.50052 0.34982 0.18673 0.0
C703 C 0.39375 0.37688 0.18768 0.0
C704 C 0.52752 0.32766 0.18717 0.0
C705 C 0.47875 0.30941 0.18791 0.0
C706 C 0.42433 0.35366 0.187 0.0
C707 C 0.40304 0.31396 0.18771 0.0
C708 C 0.31765 0.38085 0.18731 0.0
C709 C 0.41506 0.41611 0.1909 0.0
N710 N 0.37821 0.33562 0.18735 0.0
N711 N 0.43981 0.39465 0.18938 0.0
H712 H 0.9604 0.57278 0.9388 0.0
H713 H 0.31769 0.65173 0.93753 0.0
H714 H 0.18168 0.5482 0.94371 0.0
H715 H 0.09553 0.67719 0.93644 0.0
H716 H 0.26939 0.61303 0.93711 0.0
H717 H 1.00958 0.61083 0.93547 0.0
C718 C 1.01916 0.57534 0.93914 0.0
C719 C 0.0668 0.55733 0.94167 0.0
C720 C 0.23134 0.62713 0.93688 0.0
C721 C 0.12344 0.60065 0.93782 0.0
C722 C 0.25895 0.64919 0.93706 0.0
C723 C 0.21062 0.66768 0.93718 0.0
C724 C 0.155 0.62364 0.93677 0.0
C725 C 0.13489 0.66343 0.93655 0.0
C726 C 0.04726 0.59704 0.93723 0.0
C727 C 0.14262 0.5616 0.94193 0.0
N728 N 0.10945 0.64188 0.93645 0.0
N729 N 0.16849 0.58281 0.94008 0.0
H730 H 0.81891 0.15163 0.93717 0.0
H731 H 0.46403 0.07182 0.93957 0.0
H732 H 0.59608 0.17655 0.9364 0.0
H733 H 0.68607 0.04814 0.94476 0.0
H734 H 0.51199 0.10984 0.93573 0.0
H735 H 0.77161 0.11281 0.93702 0.0
C736 C 0.76021 0.14894 0.93681 0.0
C737 C 0.71141 0.1673 0.93696 0.0
C738 C 0.5501 0.09625 0.93766 0.0
C739 C 0.65695 0.12313 0.93687 0.0
C740 C 0.52271 0.07457 0.93986 0.0
C741 C 0.57093 0.05683 0.94262 0.0
C742 C 0.62615 0.10011 0.93818 0.0
C743 C 0.6466 0.06133 0.9428 0.0
C744 C 0.73318 0.12682 0.93679 0.0
C745 C 0.63577 0.16288 0.93648 0.0
N746 N 0.67178 0.08252 0.94067 0.0
N747 N 0.61088 0.14126 0.93654 0.0
H748 H 0.94601 0.15063 0.83115 0.0
H749 H 0.30971 0.07442 0.83491 0.0
H750 H 0.1663 0.17705 0.82856 0.0
H751 H 0.08965 0.04759 0.83609 0.0
H752 H 0.25819 0.11282 0.83494 0.0
H753 H 0.99768 0.11304 0.83508 0.0
C754 C 1.00503 0.14858 0.83145 0.0
C755 C 0.05168 0.16699 0.82939 0.0
C756 C 0.2213 0.09848 0.8353 0.0
C757 C 0.11117 0.12418 0.8339 0.0
C758 C 0.25077 0.0766 0.83533 0.0
C759 C 0.20397 0.05782 0.83532 0.0
C760 C 0.14466 0.10148 0.83527 0.0
C761 C 0.12789 0.06159 0.83589 0.0
C762 C 0.03456 0.12715 0.8337 0.0
C763 C 0.1279 0.16336 0.82996 0.0
N764 N 0.10064 0.08296 0.83574 0.0
N765 N 0.15515 0.1424 0.8321 0.0
H766 H 0.47034 0.65356 0.83193 0.0
H767 H 0.82415 0.57263 0.83203 0.0
H768 H 0.69211 0.67716 0.82672 0.0
H769 H 0.60083 0.54845 0.83307 0.0
H770 H 0.77767 0.6116 0.83273 0.0
H771 H 0.51822 0.61518 0.83484 0.0
C772 C 0.52896 0.65071 0.83144 0.0
C773 C 0.5771 0.66855 0.82896 0.0
C774 C 0.73898 0.59772 0.83288 0.0
C775 C 0.63225 0.62483 0.83231 0.0
C776 C 0.76554 0.5755 0.83253 0.0
C777 C 0.71634 0.55731 0.83233 0.0
C778 C 0.66283 0.60165 0.83309 0.0
C779 C 0.64084 0.56198 0.83302 0.0
C780 C 0.55631 0.62882 0.8331 0.0
C781 C 0.6527 0.6639 0.82849 0.0
N782 N 0.61644 0.58367 0.8333 0.0
N783 N 0.67786 0.6425 0.8301 0.0
H784 H 0.85234 0.93019 0.58755 0.0
H785 H 0.9456 0.79988 0.5779 0.0
H786 H 0.07292 0.904 0.58467 0.0
H787 H 0.72512 0.8251 0.58283 0.0
H788 H 0.99305 0.83747 0.58179 0.0
H789 H 0.80549 0.89164 0.58755 0.0
C790 C 0.89111 0.91629 0.58702 0.0
C791 C 0.96674 0.92031 0.58595 0.0
C792 C 0.93432 0.83483 0.58208 0.0
C793 C 0.91307 0.87606 0.58587 0.0
C794 C 0.90691 0.81333 0.5798 0.0
C795 C 0.83095 0.80935 0.57991 0.0
C796 C 0.88561 0.85265 0.58442 0.0
C797 C 0.78396 0.82744 0.58259 0.0
C798 C 0.86416 0.89426 0.58703 0.0
C799 C 1.01426 0.90166 0.58546 0.0
N800 N 0.81209 0.84839 0.58465 0.0
N801 N 0.98651 0.88031 0.58528 0.0
H802 H 0.23096 0.32297 0.58216 0.0
H803 H 0.58437 0.40352 0.58223 0.0
H804 H 0.45333 0.29893 0.5779 0.0
H805 H 0.36087 0.42794 0.58223 0.0
H806 H 0.53798 0.36465 0.5834 0.0
H807 H 0.27842 0.36139 0.58488 0.0
C808 C 0.28964 0.32573 0.58187 0.0
C809 C 0.33809 0.30777 0.57966 0.0
C810 C 0.49922 0.37857 0.58322 0.0
C811 C 0.39274 0.35153 0.58277 0.0
C812 C 0.52572 0.40073 0.58259 0.0
C813 C 0.47648 0.41895 0.58198 0.0
C814 C 0.42309 0.37472 0.58328 0.0
C815 C 0.40094 0.41439 0.5825 0.0
C816 C 0.31674 0.34764 0.58341 0.0
C817 C 0.41373 0.31229 0.57944 0.0
N818 N 0.3766 0.39274 0.58306 0.0
N819 N 0.43865 0.33372 0.5809 0.0
H820 H 0.09531 0.32773 0.68863 0.0
H821 H 0.72851 0.40284 0.68744 0.0
H822 H 0.87775 0.29994 0.68459 0.0
H823 H 0.94636 0.42972 0.69262 0.0
H824 H 0.78279 0.36526 0.68425 0.0
H825 H 0.04244 0.36584 0.68776 0.0
C826 C 0.03669 0.32962 0.68742 0.0
C827 C 0.99092 0.31062 0.68686 0.0
C828 C 0.81855 0.37947 0.68603 0.0
C829 C 0.92993 0.35405 0.68595 0.0
C830 C 0.78753 0.40088 0.68785 0.0
C831 C 0.83271 0.41939 0.69045 0.0
C832 C 0.89513 0.37667 0.68679 0.0
C833 C 0.90903 0.41592 0.69081 0.0
C834 C 1.00641 0.35136 0.68697 0.0
C835 C 0.9152 0.31409 0.68526 0.0
N836 N 0.93766 0.39501 0.68906 0.0
N837 N 0.88706 0.33535 0.68496 0.0
H838 H 0.57748 0.82516 0.68814 0.0
H839 H 0.2242 0.9062 0.69053 0.0
H840 H 0.35421 0.80086 0.68808 0.0
H841 H 0.44703 0.92931 0.69513 0.0
H842 H 0.27111 0.86783 0.68709 0.0
H843 H 0.53075 0.86409 0.68796 0.0
C844 C 0.51878 0.82799 0.68796 0.0
C845 C 0.46975 0.80976 0.68828 0.0
C846 C 0.30961 0.88137 0.68881 0.0
C847 C 0.41592 0.8541 0.68813 0.0
C848 C 0.28283 0.90325 0.69077 0.0
C849 C 0.33159 0.92094 0.69325 0.0
C850 C 0.38561 0.87727 0.68927 0.0
C851 C 0.40716 0.91617 0.69339 0.0
C852 C 0.49208 0.85019 0.68791 0.0
C853 C 0.39412 0.8144 0.68801 0.0
N854 N 0.43175 0.89481 0.69148 0.0
N855 N 0.36956 0.8361 0.68803 0.0
H856 H 0.96745 0.07426 0.44035 0.0
H857 H 0.32632 0.15255 0.43879 0.0
H858 H 0.18763 0.04973 0.44644 0.0
H859 H 0.10482 0.17831 0.43671 0.0
H860 H 0.27729 0.11392 0.43889 0.0
H861 H 1.01768 0.11203 0.43657 0.0
C862 C 0.02619 0.07678 0.44086 0.0
C863 C 0.07319 0.05886 0.44383 0.0
C864 C 0.23955 0.12806 0.43832 0.0
C865 C 0.13103 0.10185 0.43947 0.0
C866 C 0.26759 0.15008 0.4382 0.0
C867 C 0.21961 0.16863 0.4379 0.0
C868 C 0.16316 0.12469 0.43809 0.0
C869 C 0.14388 0.16449 0.43714 0.0
C870 C 0.05488 0.09831 0.4387 0.0
C871 C 0.14902 0.06306 0.44431 0.0
N872 N 0.118 0.14299 0.43734 0.0
N873 N 0.17547 0.0841 0.44219 0.0
H874 H 0.82444 0.65454 0.43605 0.0
H875 H 0.47136 0.57385 0.4373 0.0
H876 H 0.60094 0.67888 0.43652 0.0
H877 H 0.69418 0.55007 0.44136 0.0
H878 H 0.51843 0.61219 0.4341 0.0
H879 H 0.77809 0.61565 0.43487 0.0
C880 C 0.76579 0.65173 0.43575 0.0
C881 C 0.71653 0.66991 0.43657 0.0
C882 C 0.55692 0.59851 0.43563 0.0
C883 C 0.66318 0.62566 0.43529 0.0
C884 C 0.53004 0.57665 0.43746 0.0
C885 C 0.57873 0.55878 0.43975 0.0
C886 C 0.63296 0.60246 0.43606 0.0
C887 C 0.65437 0.56336 0.43979 0.0
C888 C 0.73931 0.62956 0.43513 0.0
C889 C 0.64098 0.66533 0.43612 0.0
N890 N 0.67908 0.58474 0.43803 0.0
N891 N 0.61665 0.64368 0.4356 0.0
H892 H 0.30852 0.57464 0.33325 0.0
H893 H 0.94385 0.65056 0.32966 0.0
H894 H 0.089 0.54729 0.3326 0.0
H895 H 0.16408 0.67747 0.32905 0.0
H896 H 0.99548 0.61264 0.33276 0.0
H897 H 0.25598 0.61287 0.33391 0.0
C898 C 0.24946 0.57665 0.33337 0.0
C899 C 0.20322 0.55779 0.3327 0.0
C900 C 0.0323 0.62693 0.332 0.0
C901 C 0.14272 0.60129 0.33338 0.0
C902 C 1.0028 0.64854 0.33023 0.0
C903 C 0.04951 0.6672 0.32895 0.0
C904 C 0.10893 0.62404 0.33251 0.0
C905 C 0.12565 0.6636 0.32983 0.0
C906 C 0.21941 0.59845 0.33371 0.0
C907 C 0.12693 0.56136 0.33292 0.0
N908 N 0.15285 0.64248 0.33149 0.0
N909 N 0.09914 0.58266 0.33315 0.0
H910 H 0.82278 0.07283 0.33498 0.0
H911 H 0.47279 0.15521 0.33367 0.0
H912 H 0.5985 0.04976 0.33689 0.0
H913 H 0.69522 0.17742 0.32764 0.0
H914 H 0.51915 0.11695 0.33744 0.0
H915 H 0.77824 0.11204 0.33508 0.0
C916 C 0.76437 0.07601 0.33557 0.0
C917 C 0.71429 0.05804 0.33577 0.0
C918 C 0.55774 0.13026 0.33534 0.0
C919 C 0.66298 0.10265 0.33582 0.0
C920 C 0.53126 0.15208 0.33318 0.0
C921 C 0.58001 0.16949 0.33021 0.0
C922 C 0.63345 0.12589 0.33455 0.0
C923 C 0.65538 0.16449 0.32977 0.0
C924 C 0.73891 0.09835 0.33558 0.0
C925 C 0.63911 0.06309 0.33655 0.0
N926 N 0.6797 0.14315 0.33187 0.0
N927 N 0.61576 0.0849 0.33646 0.0
H928 H 0.10625 0.46185 0.10913 0.0
H929 H 0.26397 0.53585 0.1616 0.0
H930 H 0.05307 0.53274 0.11273 0.0
H931 H 0.21358 0.46491 0.16555 0.0
H932 H 0.20538 0.53533 0.14221 0.0
H933 H 0.16597 0.46288 0.12839 0.0
C934 C 0.1075 0.47765 0.11396 0.0
C935 C 0.07441 0.49722 0.10941 0.0
C936 C 0.20717 0.51992 0.14735 0.0
C937 C 0.14317 0.49856 0.13129 0.0
C938 C 0.24066 0.52019 0.15837 0.0
C939 C 0.24349 0.5004 0.16514 0.0
C940 C 0.17788 0.4996 0.14301 0.0
C941 C 0.21234 0.48054 0.16059 0.0
C942 C 0.14122 0.47819 0.12494 0.0
C943 C 0.0776 0.51726 0.116 0.0
N944 N 0.18138 0.48059 0.14976 0.0
N945 N 0.11176 0.51746 0.1266 0.0
H946 H 0.20437 0.76304 0.1046 0.0
H947 H 0.06605 0.69247 0.15951 0.0
H948 H 0.25522 0.69205 0.10849 0.0
H949 H 0.1204 0.76336 0.16207 0.0
H950 H 0.11888 0.69169 0.13973 0.0
H951 H 0.155 0.76334 0.1246 0.0
C952 C 0.20475 0.7475 0.10965 0.0
C953 C 0.23407 0.7275 0.10495 0.0
C954 C 0.11949 0.70737 0.14466 0.0
C955 C 0.17726 0.72768 0.12769 0.0
C956 C 0.08936 0.70783 0.15591 0.0
C957 C 0.08894 0.728 0.16239 0.0
C958 C 0.14783 0.72735 0.13978 0.0
C959 C 0.11984 0.74745 0.15735 0.0
C960 C 0.17703 0.74772 0.12106 0.0
C961 C 0.23336 0.70783 0.11184 0.0
N962 N 0.14735 0.74672 0.14629 0.0
N963 N 0.20496 0.70836 0.12286 0.0
H964 H 0.8482 0.51306 0.85773 0.0
H965 H 0.92891 0.51381 0.91737 0.0
H966 H 0.78403 0.44378 0.86384 0.0
H967 H 0.9918 0.4442 0.91165 0.0
H968 H 0.87374 0.51466 0.8978 0.0
H969 H 0.90187 0.51435 0.87738 0.0
C970 C 0.84536 0.49813 0.86323 0.0
C971 C 0.81105 0.47834 0.85923 0.0
C972 C 0.90021 0.49927 0.90079 0.0
C973 C 0.87183 0.47974 0.88171 0.0
C974 C 0.93109 0.49871 0.91198 0.0
C975 C 0.96559 0.47897 0.91605 0.0
C976 C 0.90314 0.47985 0.89368 0.0
C977 C 0.96633 0.45982 0.90876 0.0
C978 C 0.87537 0.49895 0.87447 0.0
C979 C 0.80944 0.45941 0.86666 0.0
N980 N 0.93516 0.46068 0.89794 0.0
N981 N 0.83988 0.46052 0.87754 0.0
H982 H 0.91665 0.21273 0.85274 0.0
H983 H 0.78741 0.28436 0.90799 0.0
H984 H 0.97648 0.28292 0.85694 0.0
H985 H 0.83269 0.21274 0.91019 0.0
H986 H 0.83859 0.28469 0.88809 0.0
H987 H 0.86553 0.21292 0.87261 0.0
C988 C 0.91851 0.22822 0.85782 0.0
C989 C 0.95104 0.24783 0.85325 0.0
C990 C 0.83747 0.26894 0.89296 0.0
C991 C 0.89233 0.24818 0.87587 0.0
C992 C 0.80824 0.26873 0.90427 0.0
C993 C 0.80593 0.24849 0.91069 0.0
C994 C 0.863 0.24868 0.88797 0.0
C995 C 0.8337 0.2287 0.90552 0.0
C996 C 0.88979 0.22826 0.86916 0.0
C997 C 0.95212 0.26743 0.86019 0.0
N998 N 0.86046 0.22923 0.8944 0.0
N999 N 0.92284 0.26716 0.87115 0.0
H1000 H 0.05031 0.03686 0.61492 0.0
H1001 H 0.20394 0.96513 0.66845 0.0
H1002 H 0.09923 0.96558 0.61189 0.0
H1003 H 0.2583 0.03571 0.66412 0.0
H1004 H 0.14723 0.96529 0.64898 0.0
H1005 H 0.10983 0.03719 0.63423 0.0
C1006 C 0.07364 0.0213 0.61833 0.0
C1007 C 0.06989 0.00116 0.61185 0.0
C1008 C 0.17168 0.98072 0.65229 0.0
C1009 C 0.13663 0.00134 0.6339 0.0
C1010 C 0.20366 0.98067 0.66341 0.0
C1011 C 0.23605 0.00042 0.66784 0.0
C1012 C 0.17069 0.00077 0.64569 0.0
C1013 C 0.23421 0.02011 0.66096 0.0
C1014 C 0.10767 0.02152 0.6293 0.0
C1015 C 0.10111 0.98147 0.61662 0.0
N1016 N 0.2016 0.01985 0.65024 0.0
N1017 N 0.13255 0.98199 0.62742 0.0
H1018 H 0.26243 0.19155 0.60772 0.0
H1019 H 0.12862 0.26392 0.66244 0.0
H1020 H 0.21565 0.26303 0.60516 0.0
H1021 H 0.06919 0.19365 0.65845 0.0
H1022 H 0.18141 0.26338 0.64268 0.0
H1023 H 0.21025 0.19144 0.62756 0.0
C1024 C 0.24111 0.20719 0.61135 0.0
C1025 C 0.24324 0.22733 0.60484 0.0
C1026 C 0.15688 0.24809 0.64615 0.0
C1027 C 0.18504 0.22739 0.62749 0.0
C1028 C 0.12719 0.24834 0.65742 0.0
C1029 C 0.09425 0.22881 0.66202 0.0
C1030 C 0.15492 0.22806 0.63954 0.0
C1031 C 0.09382 0.20908 0.65518 0.0
C1032 C 0.21131 0.2071 0.62262 0.0
C1033 C 0.21481 0.24714 0.6099 0.0
N1034 N 0.12404 0.20915 0.64427 0.0
N1035 N 0.1875 0.24673 0.62098 0.0
H1036 H 0.94137 0.01507 0.41882 0.0
H1037 H 0.78674 0.94195 0.36581 0.0
H1038 H 0.99165 0.94398 0.41521 0.0
H1039 H 0.83897 0.01281 0.36208 0.0
H1040 H 0.84384 0.94221 0.3853 0.0
H1041 H 0.88424 0.01449 0.39935 0.0
C1042 C 0.94002 -0.00067 0.41394 0.0
C1043 C 0.97151 0.97956 0.41856 0.0
C1044 C 0.84286 0.95766 0.38019 0.0
C1045 C 0.90575 0.97873 0.39644 0.0
C1046 C 0.81024 0.95754 0.36911 0.0
C1047 C 0.80826 0.97738 0.36237 0.0
C1048 C 0.87221 0.97789 0.38463 0.0
C1049 C 0.83957 -0.00286 0.36701 0.0
C1050 C 0.90782 -0.00096 0.40284 0.0
C1051 C 0.96833 0.95961 0.4119 0.0
N1052 N 0.8697 -0.00304 0.37791 0.0
N1053 N 0.93563 0.95965 0.40119 0.0
H1054 H 0.02902 0.77071 0.36208 0.0
H1055 H 0.68858 0.73545 0.40099 0.0
H1056 H 0.87154 0.7217 0.34984 0.0
H1057 H 0.89892 0.74955 0.41652 0.0
H1058 H 0.74597 0.73589 0.38153 0.0
H1059 H 0.97315 0.76895 0.38162 0.0
C1060 C 0.98234 0.75972 0.36349 0.0
C1061 C 0.95447 0.74642 0.35434 0.0
C1062 C 0.77958 0.73872 0.38922 0.0
C1063 C 0.89021 0.74453 0.37655 0.0
C1064 C 0.74697 0.73853 0.40028 0.0
C1065 C 0.78947 0.74224 0.41033 0.0
C1066 C 0.85477 0.74331 0.3882 0.0
C1067 C 0.86472 0.74624 0.40898 0.0
C1068 C 0.95088 0.75863 0.37463 0.0
C1069 C 0.89422 0.73236 0.35664 0.0
N1070 N 0.895 0.74694 0.39809 0.0
N1071 N 0.86361 0.73192 0.3675 0.0
H1072 H 0.56009 0.53552 0.61099 0.0
H1073 H 0.69119 0.46359 0.66609 0.0
H1074 H 0.59299 0.46325 0.60914 0.0
H1075 H 0.75767 0.533 0.66108 0.0
H1076 H 0.63673 0.46376 0.64643 0.0
H1077 H 0.61604 0.5356 0.63056 0.0
C1078 C 0.57909 0.51969 0.61473 0.0
C1079 C 0.57204 0.49936 0.60849 0.0
C1080 C 0.66337 0.47892 0.64965 0.0
C1081 C 0.63451 0.49925 0.63086 0.0
C1082 C 0.69409 0.47888 0.66086 0.0
C1083 C 0.72923 0.49829 0.66516 0.0
C1084 C 0.66665 0.49864 0.64279 0.0
C1085 C 0.73132 0.51766 0.65805 0.0
C1086 C 0.61109 0.51975 0.62585 0.0
C1087 C 0.59775 0.4793 0.61367 0.0
N1088 N 0.70011 0.5174 0.64722 0.0
N1089 N 0.6272 0.4797 0.62462 0.0
H1090 H 0.69967 0.76598 0.60455 0.0
H1091 H 0.54727 0.69382 0.65799 0.0
H1092 H 0.75243 0.69516 0.60864 0.0
H1093 H 0.59714 0.76491 0.66132 0.0
H1094 H 0.6052 0.69375 0.63857 0.0
H1095 H 0.64332 0.76578 0.62408 0.0
C1096 C 0.69908 0.75038 0.60955 0.0
C1097 C 0.73094 0.73057 0.60504 0.0
C1098 C 0.60357 0.70932 0.64358 0.0
C1099 C 0.66606 0.73017 0.62723 0.0
C1100 C 0.57045 0.70939 0.65462 0.0
C1101 C 0.56751 0.7294 0.66122 0.0
C1102 C 0.63245 0.72952 0.63904 0.0
C1103 C 0.59848 0.74912 0.6565 0.0
C1104 C 0.66731 0.75031 0.62069 0.0
C1105 C 0.72875 0.7108 0.61186 0.0
N1106 N 0.62908 0.74875 0.64563 0.0
N1107 N 0.69641 0.71105 0.62259 0.0
H1108 H 0.3392 0.51417 0.35849 0.0
H1109 H 0.50091 0.44283 0.41163 0.0
H1110 H 0.29069 0.44317 0.36275 0.0
H1111 H 0.44869 0.51384 0.41485 0.0
H1112 H 0.44082 0.44237 0.39237 0.0
H1113 H 0.39778 0.51422 0.37783 0.0
C1114 C 0.34117 0.49858 0.36349 0.0
C1115 C 0.30985 0.47865 0.35908 0.0
C1116 C 0.44243 0.45801 0.39732 0.0
C1117 C 0.37732 0.47854 0.38107 0.0
C1118 C 0.47679 0.4583 0.40827 0.0
C1119 C 0.47971 0.4784 0.41479 0.0
C1120 C 0.41226 0.47809 0.39279 0.0
C1121 C 0.44746 0.49799 0.41008 0.0
C1122 C 0.37422 0.49865 0.37452 0.0
C1123 C 0.31389 0.45891 0.36589 0.0
N1124 N 0.41564 0.49741 0.39931 0.0
N1125 N 0.34745 0.4593 0.37654 0.0
H1126 H 0.35046 0.21303 0.41153 0.0
H1127 H 0.50213 0.28528 0.35801 0.0
H1128 H 0.29854 0.28393 0.40754 0.0
H1129 H 0.45245 0.21415 0.35479 0.0
H1130 H 0.445 0.28537 0.37749 0.0
H1131 H 0.40697 0.21328 0.39202 0.0
C1132 C 0.35129 0.22866 0.40655 0.0
C1133 C 0.31957 0.24847 0.41108 0.0
C1134 C 0.44652 0.26978 0.37249 0.0
C1135 C 0.3846 0.24893 0.38891 0.0
C1136 C 0.47917 0.2697 0.36142 0.0
C1137 C 0.4819 0.24968 0.35483 0.0
C1138 C 0.41791 0.24957 0.37708 0.0
C1139 C 0.45125 0.22995 0.3596 0.0
C1140 C 0.38315 0.22876 0.39543 0.0
C1141 C 0.3221 0.26828 0.40431 0.0
N1142 N 0.4211 0.23033 0.3705 0.0
N1143 N 0.35446 0.26805 0.39357 0.0
H1144 H 0.75212 0.03156 0.16466 0.0
H1145 H 0.59952 0.9608 0.11072 0.0
H1146 H 0.69617 0.96086 0.16772 0.0
H1147 H 0.54859 0.03171 0.11497 0.0
H1148 H 0.65539 0.96064 0.13027 0.0
H1149 H 0.69648 0.03216 0.14505 0.0
C1150 C 0.72823 0.01617 0.16118 0.0
C1151 C 0.72867 -0.00387 0.16776 0.0
C1152 C 0.63197 0.97621 0.12691 0.0
C1153 C 0.66634 -0.0034 0.14539 0.0
C1154 C 0.60047 0.97635 0.11576 0.0
C1155 C 0.56916 -0.00372 0.11129 0.0
C1156 C 0.63357 -0.00374 0.13352 0.0
C1157 C 0.57182 0.01597 0.11816 0.0
C1158 C 0.69638 0.01655 0.15004 0.0
C1159 C 0.69678 0.97667 0.16291 0.0
N1160 N 0.6039 0.01552 0.12892 0.0
N1161 N 0.66748 0.97732 0.15195 0.0
H1162 H 0.75243 0.19117 0.10787 0.0
H1163 H 0.60709 0.26446 0.16155 0.0
H1164 H 0.70297 0.26235 0.10452 0.0
H1165 H 0.55408 0.19364 0.15791 0.0
H1166 H 0.66166 0.26384 0.1419 0.0
H1167 H 0.69752 0.19149 0.12752 0.0
C1168 C 0.72999 0.20684 0.11129 0.0
C1169 C 0.73212 0.22676 0.10461 0.0
C1170 C 0.63805 0.24846 0.14542 0.0
C1171 C 0.67068 0.22733 0.12704 0.0
C1172 C 0.60731 0.24876 0.15663 0.0
C1173 C 0.57582 0.22908 0.1613 0.0
C1174 C 0.63863 0.22821 0.13896 0.0
C1175 C 0.57748 0.20919 0.15458 0.0
C1176 C 0.69861 0.207 0.12245 0.0
C1177 C 0.70218 0.24662 0.10939 0.0
N1178 N 0.60877 0.20921 0.14376 0.0
N1179 N 0.67327 0.24647 0.12038 0.0
H1180 H 0.33798 0.01353 0.86136 0.0
H1181 H 0.49369 0.94125 0.91465 0.0
H1182 H 0.28798 0.94256 0.86531 0.0
H1183 H 0.44254 0.01233 0.91796 0.0
H1184 H 0.43563 0.94114 0.89523 0.0
H1185 H 0.39523 0.01324 0.88081 0.0
C1186 C 0.33938 -0.00213 0.86631 0.0
C1187 C 0.30799 0.97805 0.86179 0.0
C1188 C 0.43704 0.95672 0.90024 0.0
C1189 C 0.37389 0.97756 0.8839 0.0
C1190 C 0.47023 0.95681 0.91127 0.0
C1191 C 0.47283 0.97683 0.91787 0.0
C1192 C 0.40774 0.97691 0.8957 0.0
C1193 C 0.44149 -0.00346 0.91314 0.0
C1194 C 0.37167 -0.00224 0.87741 0.0
C1195 C 0.31126 0.95822 0.86854 0.0
N1196 N 0.41081 -0.00386 0.90228 0.0
N1197 N 0.34405 0.95842 0.87925 0.0
H1198 H 0.44632 0.71215 0.85435 0.0
H1199 H 0.29117 0.78394 0.90783 0.0
H1200 H 0.49872 0.78286 0.85873 0.0
H1201 H 0.34026 0.71269 0.91094 0.0
H1202 H 0.35003 0.78415 0.88848 0.0
H1203 H 0.38869 0.71221 0.87378 0.0
C1204 C 0.44538 0.7277 0.85939 0.0
C1205 C 0.47752 0.74752 0.855 0.0
C1206 C 0.34801 0.76851 0.89342 0.0
C1207 C 0.4112 0.74775 0.87707 0.0
C1208 C 0.31437 0.76836 0.90442 0.0
C1209 C 0.31094 0.74826 0.91094 0.0
C1210 C 0.37694 0.74831 0.88884 0.0
C1211 C 0.34195 0.72854 0.90618 0.0
C1212 C 0.41289 0.72769 0.87047 0.0
C1213 C 0.47485 0.76721 0.86186 0.0
N1214 N 0.37308 0.729 0.89535 0.0
N1215 N 0.44183 0.76688 0.87255 0.0
H1216 H 0.08367 0.67601 0.06783 0.0
H1217 H 0.21517 0.54758 0.07156 0.0
H1218 H 0.31052 0.65551 0.06492 0.0
H1219 H 0.98807 0.56754 0.06813 0.0
H1220 H 0.25137 0.58695 0.06874 0.0
H1221 H 0.0475 0.63629 0.06742 0.0
C1222 C 0.12588 0.66316 0.06702 0.0
C1223 C 0.20029 0.66906 0.0665 0.0
C1224 C 0.19365 0.58269 0.06852 0.0
C1225 C 0.15925 0.62357 0.06612 0.0
C1226 C 0.17289 0.56021 0.07017 0.0
C1227 C 0.09842 0.55429 0.07017 0.0
C1228 C 0.13953 0.59936 0.06695 0.0
C1229 C 0.04611 0.57135 0.06825 0.0
C1230 C 0.10515 0.64048 0.06676 0.0
C1231 C 0.25253 0.65171 0.06537 0.0
N1232 N 0.06767 0.59316 0.0668 0.0
N1233 N 0.23103 0.62971 0.06533 0.0
H1234 H 1.00752 0.66291 0.20631 0.0
H1235 H 0.33098 0.57139 0.20576 0.0
H1236 H 0.23466 0.67961 0.20001 0.0
H1237 H 0.10194 0.55404 0.20234 0.0
H1238 H 0.29682 0.6113 0.20712 0.0
H1239 H 0.04219 0.62313 0.20837 0.0
C1240 C 0.06479 0.65827 0.20547 0.0
C1241 C 0.11823 0.67461 0.20288 0.0
C1242 C 0.25407 0.59873 0.20613 0.0
C1243 C 0.15804 0.62912 0.20523 0.0
C1244 C 0.27344 0.57593 0.20539 0.0
C1245 C 0.21923 0.55935 0.20384 0.0
C1246 C 0.17995 0.605 0.2054 0.0
C1247 C 0.14558 0.56626 0.20343 0.0
C1248 C 0.08442 0.63554 0.20661 0.0
C1249 C 0.19154 0.66758 0.2019 0.0
N1250 N 0.12809 0.5886 0.20417 0.0
N1251 N 0.20927 0.64533 0.20304 0.0
H1252 H 0.95322 0.29821 0.94918 0.0
H1253 H 0.82133 0.42661 0.95291 0.0
H1254 H 0.72619 0.31795 0.95299 0.0
H1255 H 0.04834 0.40613 0.95555 0.0
H1256 H 0.78523 0.38687 0.95343 0.0
H1257 H 0.98923 0.33761 0.95192 0.0
C1258 C 0.91091 0.31081 0.95064 0.0
C1259 C 0.83651 0.30481 0.95077 0.0
C1260 C 0.8429 0.39108 0.954 0.0
C1261 C 0.8774 0.34994 0.95388 0.0
C1262 C 0.8636 0.41377 0.95368 0.0
C1263 C 0.93803 0.41968 0.95409 0.0
C1264 C 0.89705 0.37418 0.95462 0.0
C1265 C 0.99033 0.40234 0.95517 0.0
C1266 C 0.93157 0.3333 0.95224 0.0
C1267 C 0.78417 0.32182 0.95279 0.0
N1268 N 0.96885 0.38034 0.95529 0.0
N1269 N 0.80561 0.34367 0.95417 0.0
H1270 H 0.95067 0.42367 0.82027 0.0
H1271 H 0.80305 0.29714 0.81683 0.0
H1272 H 0.72091 0.40684 0.81739 0.0
H1273 H 0.03028 0.31473 0.81131 0.0
H1274 H 0.7717 0.33734 0.81681 0.0
H1275 H 0.98141 0.38384 0.81697 0.0
C1276 C 0.90671 0.41163 0.81891 0.0
C1277 C 0.8331 0.41857 0.81918 0.0
C1278 C 0.82832 0.3324 0.81548 0.0
C1279 C 0.86785 0.37305 0.81542 0.0
C1280 C 0.84627 0.30944 0.8155 0.0
C1281 C 0.91947 0.30257 0.81416 0.0
C1282 C 0.88409 0.3486 0.81427 0.0
C1283 C 0.97312 0.31925 0.8124 0.0
C1284 C 0.92431 0.38893 0.81697 0.0
C1285 C 0.77842 0.40227 0.81729 0.0
N1286 N 0.95446 0.34152 0.81264 0.0
N1287 N 0.7969 0.38024 0.81559 0.0
H1288 H 0.98507 0.07033 0.56887 0.0
H1289 H 0.32093 0.15678 0.56475 0.0
H1290 H 0.21167 0.05064 0.5734 0.0
H1291 H 0.09415 0.17743 0.56753 0.0
H1292 H 0.28173 0.11721 0.56464 0.0
H1293 H 0.02456 0.10916 0.56525 0.0
C1294 C 0.04315 0.07413 0.56905 0.0
C1295 C 0.09512 0.05726 0.57155 0.0
C1296 C 0.24061 0.13044 0.56519 0.0
C1297 C 0.14057 0.10163 0.56739 0.0
C1298 C 0.26289 0.15302 0.5652 0.0
C1299 C 0.21076 0.17041 0.56628 0.0
C1300 C 0.16574 0.12528 0.5662 0.0
C1301 C 0.1363 0.16456 0.56682 0.0
C1302 C 0.06562 0.09631 0.56699 0.0
C1303 C 0.16965 0.06315 0.57162 0.0
N1304 N 0.11604 0.14247 0.56684 0.0
N1305 N 0.19015 0.0849 0.56961 0.0
H1306 H 0.23941 0.18052 0.70021 0.0
H1307 H 0.09468 0.054 0.70513 0.0
H1308 H 1.01258 0.16386 0.70683 0.0
H1309 H 0.32398 0.07165 0.70753 0.0
H1310 H 0.06327 0.09422 0.70586 0.0
H1311 H 0.27186 0.14072 0.70299 0.0
C1312 C 0.19649 0.16854 0.70232 0.0
C1313 C 0.12309 0.17551 0.70319 0.0
C1314 C 0.12041 0.08926 0.70634 0.0
C1315 C 0.15978 0.12996 0.7063 0.0
C1316 C 0.13839 0.06631 0.7059 0.0
C1317 C 0.21208 0.05947 0.70619 0.0
C1318 C 0.17656 0.10547 0.70694 0.0
C1319 C 0.26642 0.07615 0.70725 0.0
C1320 C 0.21509 0.14583 0.70394 0.0
C1321 C 0.06986 0.15926 0.70604 0.0
N1322 N 0.2476 0.09841 0.70747 0.0
N1323 N 0.08917 0.13719 0.70737 0.0
H1324 H 0.95748 0.79962 0.45115 0.0
H1325 H 0.82622 0.92843 0.45408 0.0
H1326 H 0.72991 0.82023 0.45144 0.0
H1327 H 0.0523 0.9076 0.45783 0.0
H1328 H 0.78967 0.88875 0.45392 0.0
H1329 H 0.99317 0.83895 0.45425 0.0
C1330 C 0.91494 0.81238 0.45189 0.0
C1331 C 0.84052 0.80661 0.45095 0.0
C1332 C 0.84723 0.89285 0.45487 0.0
C1333 C 0.88117 0.85167 0.4545 0.0
C1334 C 0.8682 0.91552 0.45496 0.0
C1335 C 0.94254 0.92134 0.45588 0.0
C1336 C 0.90101 0.87586 0.45561 0.0
C1337 C 0.99438 0.90389 0.45706 0.0
C1338 C 0.93542 0.83484 0.4537 0.0
C1339 C 0.78793 0.82387 0.45207 0.0
N1340 N 0.97267 0.88191 0.45679 0.0
N1341 N 0.80932 0.84564 0.45371 0.0
H1342 H 0.03214 0.8158 0.31278 0.0
H1343 H 0.71387 0.90794 0.32001 0.0
H1344 H 0.80519 0.79897 0.31917 0.0
H1345 H 0.94427 0.92381 0.32305 0.0
H1346 H 0.74582 0.86843 0.31645 0.0
H1347 H 0.99948 0.85596 0.31312 0.0
C1348 C 0.9753 0.82051 0.31411 0.0
C1349 C 0.92136 0.804 0.31605 0.0
C1350 C 0.78937 0.88057 0.31786 0.0
C1351 C 0.88392 0.84987 0.31648 0.0
C1352 C 0.77125 0.90316 0.31988 0.0
C1353 C 0.82652 0.91919 0.32192 0.0
C1354 C 0.8633 0.87396 0.3178 0.0
C1355 C 0.89988 0.91199 0.32161 0.0
C1356 C 0.95686 0.84344 0.31436 0.0
C1357 C 0.84867 0.81112 0.31774 0.0
N1358 N 0.91617 0.88985 0.31961 0.0
N1359 N 0.83213 0.83354 0.31796 0.0
H1360 H 0.48445 0.57005 0.56757 0.0
H1361 H 0.81342 0.65904 0.56443 0.0
H1362 H 0.7129 0.55152 0.57086 0.0
H1363 H 0.58643 0.67814 0.56912 0.0
H1364 H 0.77663 0.61933 0.56379 0.0
H1365 H 0.52056 0.60957 0.56523 0.0
C1366 C 0.54223 0.57425 0.56774 0.0
C1367 C 0.59575 0.55748 0.5695 0.0
C1368 C 0.7349 0.63224 0.5649 0.0
C1369 C 0.63728 0.60264 0.56681 0.0
C1370 C 0.75577 0.65492 0.56523 0.0
C1371 C 0.70295 0.67192 0.56693 0.0
C1372 C 0.66068 0.62655 0.56622 0.0
C1373 C 0.62908 0.66558 0.56789 0.0
C1374 C 0.56274 0.59683 0.56642 0.0
C1375 C 0.66976 0.56392 0.56961 0.0
N1376 N 0.61015 0.64336 0.56756 0.0
N1377 N 0.68835 0.58603 0.56831 0.0
H1378 H 0.57965 0.54931 0.70154 0.0
H1379 H 0.71088 0.67778 0.69902 0.0
H1380 H 0.80565 0.5697 0.70556 0.0
H1381 H 0.48348 0.65818 0.70195 0.0
H1382 H 0.74665 0.63823 0.70154 0.0
H1383 H 0.54301 0.58908 0.70193 0.0
C1384 C 0.62155 0.56213 0.70259 0.0
C1385 C 0.6959 0.55618 0.70344 0.0
C1386 C 0.68895 0.64261 0.70171 0.0
C1387 C 0.65434 0.60171 0.70381 0.0
C1388 C 0.66844 0.66518 0.70023 0.0
C1389 C 0.59403 0.67127 0.70021 0.0
C1390 C 0.63465 0.62598 0.70306 0.0
C1391 C 0.54149 0.65424 0.70188 0.0
C1392 C 0.60055 0.58484 0.70283 0.0
C1393 C 0.74772 0.57351 0.70485 0.0
N1394 N 0.56281 0.63233 0.70316 0.0
N1395 N 0.72599 0.59551 0.70488 0.0
H1396 H 0.5659 0.40778 0.45471 0.0
H1397 H 0.23443 0.31943 0.45288 0.0
H1398 H 0.33828 0.42723 0.45141 0.0
H1399 H 0.46174 0.30041 0.44853 0.0
H1400 H 0.27201 0.3588 0.45529 0.0
H1401 H 0.52861 0.36809 0.45546 0.0
C1402 C 0.50805 0.40374 0.45425 0.0
C1403 C 0.45514 0.42084 0.4529 0.0
C1404 C 0.31364 0.34599 0.45386 0.0
C1405 C 0.41229 0.3755 0.45373 0.0
C1406 C 0.29228 0.32349 0.4525 0.0
C1407 C 0.345 0.30662 0.45041 0.0
C1408 C 0.38825 0.35163 0.45318 0.0
C1409 C 0.41917 0.31289 0.45003 0.0
C1410 C 0.48688 0.38107 0.45464 0.0
C1411 C 0.381 0.4146 0.45235 0.0
N1412 N 0.43859 0.33492 0.45137 0.0
N1413 N 0.3618 0.39241 0.45273 0.0
H1414 H 0.56501 0.32048 0.31501 0.0
H1415 H 0.22906 0.4077 0.31651 0.0
H1416 H 0.3378 0.30039 0.3173 0.0
H1417 H 0.45475 0.4274 0.32176 0.0
H1418 H 0.26907 0.36862 0.31376 0.0
H1419 H 0.52612 0.36012 0.31437 0.0
C1420 C 0.50695 0.32438 0.31526 0.0
C1421 C 0.45458 0.30712 0.31632 0.0
C1422 C 0.30984 0.38152 0.31547 0.0
C1423 C 0.40991 0.35235 0.31562 0.0
C1424 C 0.28708 0.40385 0.31703 0.0
C1425 C 0.33859 0.42083 0.31947 0.0
C1426 C 0.38465 0.37612 0.31631 0.0
C1427 C 0.41306 0.41483 0.31999 0.0
C1428 C 0.48486 0.347 0.31494 0.0
C1429 C 0.38012 0.31315 0.3166 0.0
N1430 N 0.43386 0.39293 0.31846 0.0
N1431 N 0.36003 0.33528 0.3163 0.0
H1432 H 0.48268 0.06725 0.06916 0.0
H1433 H 0.8132 0.1555 0.06459 0.0
H1434 H 0.71061 0.04864 0.07317 0.0
H1435 H 0.58592 0.17508 0.06827 0.0
H1436 H 0.77606 0.11577 0.06464 0.0
H1437 H 0.51966 0.10643 0.06589 0.0
C1438 C 0.54053 0.07136 0.06931 0.0
C1439 C 0.59363 0.05467 0.07153 0.0
C1440 C 0.73436 0.12879 0.06536 0.0
C1441 C 0.63619 0.09946 0.06776 0.0
C1442 C 0.75544 0.15147 0.06528 0.0
C1443 C 0.70261 0.16862 0.06653 0.0
C1444 C 0.65996 0.12326 0.06663 0.0
C1445 C 0.62858 0.1624 0.06739 0.0
C1446 C 0.56155 0.09374 0.06745 0.0
C1447 C 0.66777 0.06099 0.07158 0.0
N1448 N 0.60948 0.14021 0.06748 0.0
N1449 N 0.68687 0.08292 0.06975 0.0
H1450 H 0.72057 0.17715 0.19844 0.0
H1451 H 0.58346 0.04952 0.20423 0.0
H1452 H 0.49358 0.15854 0.20329 0.0
H1453 H 0.81198 0.06851 0.20544 0.0
H1454 H 0.54975 0.08949 0.20413 0.0
H1455 H 0.75557 0.13754 0.20114 0.0
C1456 C 0.67808 0.16477 0.20011 0.0
C1457 C 0.60395 0.17116 0.20057 0.0
C1458 C 0.60727 0.08493 0.20451 0.0
C1459 C 0.6437 0.12582 0.20364 0.0
C1460 C 0.62661 0.0621 0.20455 0.0
C1461 C 0.70072 0.05567 0.20478 0.0
C1462 C 0.66241 0.10149 0.20458 0.0
C1463 C 0.75417 0.07271 0.20525 0.0
C1464 C 0.69817 0.14216 0.20169 0.0
C1465 C 0.55137 0.1544 0.20283 0.0
N1466 N 0.73397 0.09487 0.20503 0.0
N1467 N 0.57224 0.13248 0.2042 0.0
H1468 H 0.22478 0.81798 0.95351 0.0
H1469 H 0.55665 0.90592 0.9574 0.0
H1470 H 0.45217 0.79916 0.94903 0.0
H1471 H 0.3292 0.92569 0.95433 0.0
H1472 H 0.51914 0.86621 0.95744 0.0
H1473 H 0.26248 0.85709 0.95679 0.0
C1474 C 0.28266 0.82203 0.95327 0.0
C1475 C 0.33538 0.8053 0.9509 0.0
C1476 C 0.47749 0.87927 0.95683 0.0
C1477 C 0.37878 0.85002 0.95467 0.0
C1478 C 0.49879 0.90194 0.95686 0.0
C1479 C 0.446 0.91914 0.95576 0.0
C1480 C 0.4029 0.8738 0.95576 0.0
C1481 C 0.37183 0.91298 0.95509 0.0
C1482 C 0.3041 0.84438 0.95513 0.0
C1483 C 0.4096 0.81154 0.95073 0.0
N1484 N 0.35251 0.8908 0.95505 0.0
N1485 N 0.4291 0.83344 0.95256 0.0
H1486 H 0.56067 0.82024 0.81613 0.0
H1487 H 0.22576 0.90766 0.81917 0.0
H1488 H 0.33358 0.80016 0.81879 0.0
H1489 H 0.45211 0.92697 0.82406 0.0
H1490 H 0.26503 0.86858 0.81612 0.0
H1491 H 0.52201 0.8599 0.81604 0.0
C1492 C 0.50266 0.82414 0.81659 0.0
C1493 C 0.45028 0.80687 0.81757 0.0
C1494 C 0.30609 0.8814 0.81782 0.0
C1495 C 0.40588 0.85215 0.8175 0.0
C1496 C 0.28376 0.90373 0.81955 0.0
C1497 C 0.3357 0.92059 0.82197 0.0
C1498 C 0.38091 0.8759 0.81846 0.0
C1499 C 0.41012 0.91449 0.82231 0.0
C1500 C 0.48071 0.84678 0.81658 0.0
C1501 C 0.37591 0.81293 0.81812 0.0
N1502 N 0.4305 0.8926 0.82061 0.0
N1503 N 0.35595 0.83508 0.81812 0.0
H1504 H 0.72397 0.47758 0.05923 0.0
H1505 H 0.35212 0.49419 0.09589 0.0
H1506 H 0.71473 0.51083 0.09284 0.0
H1507 H 0.36354 0.45915 0.06279 0.0
H1508 H 0.48489 0.50036 0.09504 0.0
H1509 H 0.59139 0.47139 0.0602 0.0
C1510 C 0.69381 0.48378 0.06676 0.0
C1511 C 0.73017 0.49477 0.07595 0.0
C1512 C 0.45847 0.49121 0.08799 0.0
C1513 C 0.57869 0.48751 0.07721 0.0
C1514 C 0.38279 0.48759 0.08851 0.0
C1515 C 0.34701 0.47611 0.07941 0.0
C1516 C 0.49854 0.48336 0.07827 0.0
C1517 C 0.38911 0.46804 0.07 0.0
C1518 C 0.61821 0.48014 0.06734 0.0
C1519 C 0.68867 0.50234 0.08554 0.0
N1520 N 0.46257 0.47189 0.06966 0.0
N1521 N 0.61517 0.49852 0.08594 0.0
H1522 H 0.58353 0.70848 0.08635 0.0
H1523 H 0.9377 0.7685 0.05863 0.0
H1524 H 0.57669 0.74974 0.0552 0.0
H1525 H 0.94535 0.72617 0.08939 0.0
H1526 H 0.80516 0.76243 0.05743 0.0
H1527 H 0.71609 0.71453 0.08755 0.0
C1528 C 0.61015 0.71863 0.07969 0.0
C1529 C 0.56922 0.72858 0.07064 0.0
C1530 C 0.83566 0.75455 0.06448 0.0
C1531 C 0.72078 0.73586 0.07204 0.0
C1532 C 0.91127 0.75812 0.0652 0.0
C1533 C 0.95242 0.74786 0.07414 0.0
C1534 C 0.80086 0.74057 0.07275 0.0
C1535 C 0.91554 0.73445 0.08238 0.0
C1536 C 0.68577 0.72218 0.08041 0.0
C1537 C 0.60632 0.74168 0.06229 0.0
N1538 N 0.84192 0.73113 0.08147 0.0
N1539 N 0.67994 0.74502 0.06321 0.0
H1540 H 0.74092 0.75886 0.20912 0.0
H1541 H 0.37112 0.72344 0.17605 0.0
H1542 H 0.73474 0.70959 0.18125 0.0
H1543 H 0.38675 0.78072 0.19937 0.0
H1544 H 0.50357 0.71747 0.17801 0.0
H1545 H 0.60945 0.76565 0.20641 0.0
C1546 C 0.71161 0.74927 0.20253 0.0
C1547 C 0.74851 0.7336 0.19543 0.0
C1548 C 0.47818 0.73149 0.1826 0.0
C1549 C 0.59849 0.74146 0.19214 0.0
C1550 C 0.4027 0.73498 0.18143 0.0
C1551 C 0.3681 0.75261 0.18755 0.0
C1552 C 0.51913 0.74559 0.19005 0.0
C1553 C 0.41138 0.76696 0.19446 0.0
C1554 C 0.63674 0.75329 0.20091 0.0
C1555 C 0.70818 0.72178 0.18694 0.0
N1556 N 0.48453 0.76302 0.19561 0.0
N1557 N 0.63533 0.72595 0.18553 0.0
H1558 H 0.96045 0.50032 0.17933 0.0
H1559 H 0.58911 0.4795 0.21547 0.0
H1560 H 0.95057 0.4627 0.21168 0.0
H1561 H 0.59751 0.51595 0.18276 0.0
H1562 H 0.72199 0.47377 0.21442 0.0
H1563 H 0.82744 0.50606 0.18031 0.0
C1564 C 0.93008 0.49308 0.18657 0.0
C1565 C 0.96632 0.48099 0.19543 0.0
C1566 C 0.6949 0.48311 0.20749 0.0
C1567 C 0.81455 0.48772 0.19671 0.0
C1568 C 0.61914 0.48649 0.20813 0.0
C1569 C 0.5825 0.49824 0.1992 0.0
C1570 C 0.73424 0.49153 0.19784 0.0
C1571 C 0.62381 0.50683 0.18984 0.0
C1572 C 0.85427 0.49645 0.18717 0.0
C1573 C 0.92461 0.47208 0.20466 0.0
N1574 N 0.69745 0.50325 0.18938 0.0
N1575 N 0.851 0.47569 0.20508 0.0
H1576 H 0.67504 0.51815 0.96274 0.0
H1577 H 0.3213 0.46053 0.93355 0.0
H1578 H 0.68335 0.47822 0.93113 0.0
H1579 H 0.31438 0.49888 0.96568 0.0
H1580 H 0.45388 0.46668 0.93252 0.0
H1581 H 0.54249 0.51199 0.96373 0.0
C1582 C 0.64874 0.50828 0.95594 0.0
C1583 C 0.69007 0.49872 0.94683 0.0
C1584 C 0.42353 0.47366 0.93983 0.0
C1585 C 0.53854 0.49132 0.94797 0.0
C1586 C 0.3479 0.47006 0.94045 0.0
C1587 C 0.30697 0.47917 0.94973 0.0
C1588 C 0.45849 0.48657 0.94854 0.0
C1589 C 0.34402 0.49149 0.9584 0.0
C1590 C 0.57314 0.50465 0.95654 0.0
C1591 C 0.6534 0.48596 0.93828 0.0
N1592 N 0.41762 0.4949 0.95757 0.0
N1593 N 0.57976 0.48257 0.93908 0.0
H1594 H 0.45487 0.26503 0.92849 0.0
H1595 H 0.10011 0.20644 0.9568 0.0
H1596 H 0.46064 0.22506 0.9601 0.0
H1597 H 0.09225 0.24794 0.92573 0.0
H1598 H 0.23267 0.21236 0.95787 0.0
H1599 H 0.32222 0.25908 0.9273 0.0
C1600 C 0.42801 0.25519 0.93525 0.0
C1601 C 0.46863 0.24557 0.94443 0.0
C1602 C 0.20214 0.2201 0.95078 0.0
C1603 C 0.31705 0.23841 0.94304 0.0
C1604 C 0.12651 0.21662 0.95013 0.0
C1605 C 0.0853 0.22669 0.94115 0.0
C1606 C 0.23693 0.2338 0.94239 0.0
C1607 C 0.12213 0.23981 0.93277 0.0
C1608 C 0.35235 0.2517 0.93453 0.0
C1609 C 0.43125 0.23285 0.9529 0.0
N1610 N 0.19583 0.24305 0.93362 0.0
N1611 N 0.35764 0.22958 0.95198 0.0
H1612 H 0.66731 0.25315 0.83948 0.0
H1613 H 0.29785 0.21833 0.80611 0.0
H1614 H 0.65195 0.19606 0.81603 0.0
H1615 H 0.30456 0.26767 0.83394 0.0
H1616 H 0.42927 0.21139 0.80885 0.0
H1617 H 0.53513 0.25934 0.83737 0.0
C1618 C 0.63583 0.24169 0.83404 0.0
C1619 C 0.67045 0.22405 0.82794 0.0
C1620 C 0.40209 0.22381 0.81433 0.0
C1621 C 0.51967 0.23133 0.82525 0.0
C1622 C 0.32727 0.22791 0.81269 0.0
C1623 C 0.29052 0.24364 0.81979 0.0
C1624 C 0.44043 0.23559 0.8231 0.0
C1625 C 0.33098 0.25545 0.82826 0.0
C1626 C 0.56049 0.24532 0.83277 0.0
C1627 C 0.62728 0.20981 0.82093 0.0
N1628 N 0.40374 0.25117 0.82969 0.0
N1629 N 0.55425 0.21388 0.8197 0.0
H1630 H 0.09276 0.47747 0.84503 0.0
H1631 H 0.46473 0.49818 0.80909 0.0
H1632 H 0.10357 0.51454 0.81252 0.0
H1633 H 0.45631 0.46217 0.84193 0.0
H1634 H 0.3319 0.50382 0.81008 0.0
H1635 H 0.22594 0.47191 0.84423 0.0
C1636 C 0.12337 0.48463 0.83779 0.0
C1637 C 0.08737 0.4965 0.82883 0.0
C1638 C 0.35895 0.4946 0.81705 0.0
C1639 C 0.23922 0.48999 0.82776 0.0
C1640 C 0.43469 0.49128 0.81645 0.0
C1641 C 0.47129 0.47966 0.82543 0.0
C1642 C 0.31956 0.48626 0.82672 0.0
C1643 C 0.42999 0.47118 0.83481 0.0
C1644 C 0.19925 0.48136 0.8373 0.0
C1645 C 0.12934 0.50532 0.81962 0.0
N1646 N 0.3563 0.47469 0.83523 0.0
N1647 N 0.20299 0.50182 0.8193 0.0
H1648 H 0.35805 0.95967 0.56564 0.0
H1649 H 0.7117 0.01733 0.59484 0.0
H1650 H 0.34925 -0.00039 0.59724 0.0
H1651 H 0.71838 0.97877 0.56277 0.0
H1652 H 0.57907 0.01116 0.59591 0.0
H1653 H 0.49058 0.96576 0.56472 0.0
C1654 C 0.38424 0.96954 0.57246 0.0
C1655 C 0.34278 0.97912 0.58154 0.0
C1656 C 0.60941 0.00413 0.5886 0.0
C1657 C 0.49435 0.98644 0.58048 0.0
C1658 C 0.68504 0.00775 0.58796 0.0
C1659 C 0.7259 -0.00141 0.57869 0.0
C1660 C 0.57441 -0.00882 0.57992 0.0
C1661 C 0.68881 0.9862 0.57005 0.0
C1662 C 0.45985 0.97312 0.57189 0.0
C1663 C 0.37933 -0.00814 0.59011 0.0
N1664 N 0.61524 0.98279 0.5709 0.0
N1665 N 0.45301 -0.00478 0.58935 0.0
H1666 H 0.59359 0.21013 0.58658 0.0
H1667 H 0.94824 0.26923 0.5585 0.0
H1668 H 0.5872 0.25059 0.55515 0.0
H1669 H 0.95547 0.22777 0.58958 0.0
H1670 H 0.81571 0.26316 0.55732 0.0
H1671 H 0.72617 0.21613 0.58777 0.0
C1672 C 0.62031 0.22009 0.57986 0.0
C1673 C 0.5795 0.22984 0.57074 0.0
C1674 C 0.84611 0.25546 0.56444 0.0
C1675 C 0.73109 0.23706 0.57211 0.0
C1676 C 0.92171 0.25903 0.56515 0.0
C1677 C 0.96274 0.24903 0.57417 0.0
C1678 C 0.81119 0.24174 0.5728 0.0
C1679 C 0.92576 0.23586 0.58251 0.0
C1680 C 0.69595 0.22361 0.58057 0.0
C1681 C 0.61673 0.2427 0.5623 0.0
N1682 N 0.85213 0.23254 0.5816 0.0
N1683 N 0.69037 0.24601 0.56321 0.0
H1684 H 0.73925 0.20745 0.68135 0.0
H1685 H 0.3893 0.28301 0.69833 0.0
H1686 H 0.74338 0.26028 0.70744 0.0
H1687 H 0.37603 0.22315 0.67678 0.0
H1688 H 0.52162 0.27707 0.70024 0.0
H1689 H 0.60779 0.21419 0.67858 0.0
C1690 C 0.71221 0.22029 0.68659 0.0
C1691 C 0.752 0.23326 0.69468 0.0
C1692 C 0.48992 0.26532 0.69502 0.0
C1693 C 0.60211 0.24139 0.69139 0.0
C1694 C 0.4145 0.26883 0.69384 0.0
C1695 C 0.37178 0.25353 0.68739 0.0
C1696 C 0.52289 0.2464 0.6897 0.0
C1697 C 0.40709 0.23535 0.68182 0.0
C1698 C 0.63731 0.22422 0.68496 0.0
C1699 C 0.71455 0.24981 0.70117 0.0
N1700 N 0.48057 0.23222 0.68314 0.0
N1701 N 0.64178 0.25348 0.69934 0.0
H1702 H 0.95303 0.00059 0.68214 0.0
H1703 H 0.58162 0.9794 0.71818 0.0
H1704 H 0.94316 0.96265 0.71438 0.0
H1705 H 0.59019 0.01612 0.68555 0.0
H1706 H 0.71452 0.9737 0.71714 0.0
H1707 H 0.82005 0.00632 0.68313 0.0
C1708 C 0.92266 -0.00672 0.68936 0.0
C1709 C 0.9589 0.9811 0.69818 0.0
C1710 C 0.68746 0.9831 0.71023 0.0
C1711 C 0.80715 0.98781 0.69948 0.0
C1712 C 0.61169 0.98645 0.71086 0.0
C1713 C 0.5751 -0.00173 0.70195 0.0
C1714 C 0.72685 -0.00839 0.7006 0.0
C1715 C 0.61645 0.00695 0.69262 0.0
C1716 C 0.84686 -0.00336 0.68996 0.0
C1717 C 0.91719 0.9721 0.70739 0.0
N1718 N 0.6901 0.00339 0.69217 0.0
N1719 N 0.84358 0.9757 0.70782 0.0
H1720 H 0.68982 0.98202 0.43228 0.0
H1721 H 0.3188 -0.00182 0.46926 0.0
H1722 H 0.67943 0.0172 0.46534 0.0
H1723 H 0.32769 0.96508 0.43562 0.0
H1724 H 0.45141 0.0045 0.46823 0.0
H1725 H 0.55721 0.97567 0.43329 0.0
C1726 C 0.65941 -0.01139 0.43969 0.0
C1727 C 0.69548 0.0002 0.44872 0.0
C1728 C 0.42448 -0.00425 0.46109 0.0
C1729 C 0.54401 -0.00728 0.45005 0.0
C1730 C 0.34887 -0.00797 0.46172 0.0
C1731 C 0.31238 0.98105 0.45253 0.0
C1732 C 0.46387 -0.01153 0.45118 0.0
C1733 C 0.35381 0.97356 0.44291 0.0
C1734 C 0.5838 0.98488 0.4403 0.0
C1735 C 0.65364 0.00825 0.45816 0.0
N1736 N 0.42726 0.97746 0.44248 0.0
N1737 N 0.58022 0.00429 0.45861 0.0
H1738 H 0.45443 0.77666 0.43721 0.0
H1739 H 0.105 0.70466 0.45741 0.0
H1740 H 0.46683 0.72045 0.46128 0.0
H1741 H 0.0997 0.75356 0.42934 0.0
H1742 H 0.23638 0.71156 0.45978 0.0
H1743 H 0.32202 0.77077 0.43554 0.0
C1744 C 0.42899 0.76332 0.44229 0.0
C1745 C 0.47136 0.74899 0.44938 0.0
C1746 C 0.20665 0.72069 0.45305 0.0
C1747 C 0.32052 0.74191 0.44738 0.0
C1748 C 0.13182 0.71666 0.45166 0.0
C1749 C 0.09181 0.72851 0.44314 0.0
C1750 C 0.24148 0.73682 0.44594 0.0
C1751 C 0.12885 0.74398 0.43597 0.0
C1752 C 0.3536 0.75983 0.44125 0.0
C1753 C 0.43596 0.73187 0.45572 0.0
N1754 N 0.20164 0.7478 0.43757 0.0
N1755 N 0.36256 0.72873 0.45453 0.0
H1756 H 0.29658 0.71658 0.30731 0.0
H1757 H 0.66607 0.75488 0.33966 0.0
H1758 H 0.30492 0.76996 0.33307 0.0
H1759 H 0.65177 0.69626 0.31723 0.0
H1760 H 0.53396 0.7608 0.33738 0.0
H1761 H 0.42791 0.70984 0.31023 0.0
C1762 C 0.32636 0.72708 0.31346 0.0
C1763 C 0.2901 0.74389 0.31993 0.0
C1764 C 0.55951 0.74651 0.33305 0.0
C1765 C 0.43985 0.73607 0.32347 0.0
C1766 C 0.63481 0.74303 0.33442 0.0
C1767 C 0.66971 0.72505 0.32863 0.0
C1768 C 0.519 0.73199 0.32575 0.0
C1769 C 0.62686 0.71029 0.32187 0.0
C1770 C 0.40113 0.7231 0.31521 0.0
C1771 C 0.33097 0.75687 0.32787 0.0
N1772 N 0.55381 0.7142 0.32054 0.0
N1773 N 0.40364 0.75267 0.32944 0.0
H1774 H 0.0974 0.01728 0.31602 0.0
H1775 H 0.45335 0.96061 0.34511 0.0
H1776 H 0.08975 0.97605 0.34719 0.0
H1777 H 0.45854 0.0005 0.31347 0.0
H1778 H 0.32029 0.96598 0.34609 0.0
H1779 H 0.23029 0.01203 0.31525 0.0
C1780 C 0.12392 0.00728 0.32277 0.0
C1781 C 0.08278 -0.00291 0.33169 0.0
C1782 C 0.35043 0.97348 0.3389 0.0
C1783 C 0.23466 -0.00925 0.33079 0.0
C1784 C 0.42627 0.97033 0.33831 0.0
C1785 C 0.46672 0.9801 0.32918 0.0
C1786 C 0.31493 0.98656 0.33031 0.0
C1787 C 0.42921 -0.00737 0.32064 0.0
C1788 C 0.19973 0.00419 0.32229 0.0
C1789 C 0.11967 0.98424 0.34018 0.0
N1790 N 0.35543 -0.00444 0.32143 0.0
N1791 N 0.19359 0.98136 0.3395 0.0
H1792 H 0.2248 0.48133 0.55772 0.0
H1793 H 0.8539 0.49583 0.59484 0.0
H1794 H 0.21685 0.51152 0.5921 0.0
H1795 H 0.86391 0.46362 0.56097 0.0
H1796 H 0.98683 0.50169 0.59408 0.0
H1797 H 0.092 0.47546 0.55857 0.0
C1798 C 0.19489 0.48691 0.5654 0.0
C1799 C 0.23162 0.49696 0.57484 0.0
C1800 C 0.96005 0.49324 0.58684 0.0
C1801 C 0.07999 0.49006 0.57596 0.0
C1802 C 0.88428 0.4898 0.5873 0.0
C1803 C 0.8481 0.4792 0.57796 0.0
C1804 C 0.99976 0.48609 0.57694 0.0
C1805 C 0.88983 0.47182 0.56837 0.0
C1806 C 0.11918 0.48346 0.56591 0.0
C1807 C 0.19046 0.50377 0.58461 0.0
N1808 N 0.96337 0.47548 0.56808 0.0
N1809 N 0.11687 0.50014 0.58494 0.0
H1810 H 0.43871 0.77128 0.55884 0.0
H1811 H 0.08466 0.712 0.58701 0.0
H1812 H 0.44661 0.72957 0.58983 0.0
H1813 H 0.07784 0.75241 0.55556 0.0
H1814 H 0.21722 0.71807 0.58816 0.0
H1815 H 0.30615 0.76523 0.55772 0.0
C1816 C 0.41233 0.76103 0.56548 0.0
C1817 C 0.45355 0.75094 0.57445 0.0
C1818 C 0.1869 0.72552 0.58097 0.0
C1819 C 0.30198 0.74368 0.57316 0.0
C1820 C 0.11128 0.72196 0.58028 0.0
C1821 C 0.07037 0.73167 0.57116 0.0
C1822 C 0.2219 0.73898 0.5725 0.0
C1823 C 0.10746 0.74454 0.56271 0.0
C1824 C 0.3367 0.75748 0.5648 0.0
C1825 C 0.41674 0.73772 0.58279 0.0
N1826 N 0.18107 0.74789 0.56361 0.0
N1827 N 0.3431 0.73441 0.58192 0.0
H1828 H 0.84894 0.73156 0.67498 0.0
H1829 H 0.22015 0.74871 0.71169 0.0
H1830 H 0.85917 0.76653 0.70811 0.0
H1831 H 0.21193 0.71538 0.67811 0.0
H1832 H 0.08737 0.75471 0.71071 0.0
H1833 H 0.9819 0.72558 0.67585 0.0
C1834 C 0.87938 0.73818 0.68237 0.0
C1835 C 0.84323 0.74958 0.69147 0.0
C1836 C 0.11447 0.74599 0.70357 0.0
C1837 C 0.99494 0.74256 0.69264 0.0
C1838 C 0.19018 0.74245 0.70417 0.0
C1839 C 0.22686 0.7315 0.69498 0.0
C1840 C 0.0752 0.73853 0.6937 0.0
C1841 C 0.1856 0.72386 0.68539 0.0
C1842 C 0.95516 0.73466 0.68291 0.0
C1843 C 0.88504 0.75769 0.70089 0.0
N1844 N 0.11201 0.72757 0.68499 0.0
N1845 N 0.9586 0.75395 0.70125 0.0
H1846 H 0.08153 0.51701 0.68351 0.0
H1847 H 0.43623 0.45678 0.71131 0.0
H1848 H 0.07504 0.47597 0.71474 0.0
H1849 H 0.4433 0.49839 0.68029 0.0
H1850 H 0.3037 0.46307 0.71253 0.0
H1851 H 0.21406 0.5107 0.68227 0.0
C1852 C 0.10821 0.50686 0.69018 0.0
C1853 C 0.06735 0.49705 0.69926 0.0
C1854 C 0.33406 0.47075 0.70541 0.0
C1855 C 0.21895 0.48946 0.69781 0.0
C1856 C 0.40968 0.46705 0.70468 0.0
C1857 C 0.45071 0.47703 0.69566 0.0
C1858 C 0.29908 0.4846 0.69708 0.0
C1859 C 0.41363 0.4903 0.68735 0.0
C1860 C 0.18383 0.50315 0.68943 0.0
C1861 C 0.10457 0.48393 0.70762 0.0
N1862 N 0.34 0.49376 0.68828 0.0
N1863 N 0.17818 0.48045 0.70667 0.0
H1864 H 0.82766 0.49954 0.46503 0.0
H1865 H 0.19946 0.47986 0.42876 0.0
H1866 H 0.83695 0.46391 0.43208 0.0
H1867 H 0.18851 0.5175 0.46109 0.0
H1868 H 0.0667 0.47386 0.42976 0.0
H1869 H 0.96038 0.50552 0.46399 0.0
C1870 C 0.85785 0.49277 0.45764 0.0
C1871 C 0.82149 0.48118 0.44864 0.0
C1872 C 0.09321 0.48353 0.43661 0.0
C1873 C 0.97305 0.48819 0.44729 0.0
C1874 C 0.1689 0.48706 0.436 0.0
C1875 C 0.2048 0.49923 0.44484 0.0
C1876 C 0.05324 0.49218 0.44616 0.0
C1877 C 0.16282 0.50806 0.45408 0.0
C1878 C 0.93352 0.4963 0.457 0.0
C1879 C 0.86301 0.4729 0.43922 0.0
N1880 N 0.08933 0.5043 0.45452 0.0
N1881 N 0.93654 0.47661 0.43877 0.0
H1882 H 0.96409 0.26536 0.42809 0.0
H1883 H 0.60947 0.20909 0.45767 0.0
H1884 H 0.96987 0.22784 0.46049 0.0
H1885 H 0.60143 0.24787 0.42568 0.0
H1886 H 0.74199 0.21509 0.45858 0.0
H1887 H 0.83142 0.2593 0.42702 0.0
C1888 C 0.93723 0.25604 0.43504 0.0
C1889 C 0.97784 0.24713 0.44441 0.0
C1890 C 0.71145 0.22222 0.45132 0.0
C1891 C 0.82629 0.23985 0.44317 0.0
C1892 C 0.63583 0.21869 0.45077 0.0
C1893 C 0.59457 0.22797 0.44157 0.0
C1894 C 0.74619 0.23519 0.44263 0.0
C1895 C 0.63135 0.24036 0.4329 0.0
C1896 C 0.86157 0.25248 0.4344 0.0
C1897 C 0.94049 0.23506 0.45314 0.0
N1898 N 0.70506 0.24368 0.43366 0.0
N1899 N 0.86688 0.23171 0.45229 0.0
H1900 H 0.19137 0.20822 0.30863 0.0
H1901 H 0.83614 0.26672 0.33707 0.0
H1902 H 0.19863 0.24985 0.33965 0.0
H1903 H 0.83021 0.22679 0.30545 0.0
H1904 H 0.96888 0.26086 0.33816 0.0
H1905 H 0.05866 0.21412 0.30756 0.0
C1906 C 0.16481 0.21842 0.31528 0.0
C1907 C 0.20585 0.22853 0.32425 0.0
C1908 C 0.93871 0.25346 0.33094 0.0
C1909 C 0.05417 0.23562 0.32302 0.0
C1910 C 0.863 0.2569 0.33029 0.0
C1911 C 0.82232 0.24726 0.32114 0.0
C1912 C 0.974 0.2402 0.3224 0.0
C1913 C 0.85967 0.23459 0.31263 0.0
C1914 C 0.08911 0.2219 0.31464 0.0
C1915 C 0.16887 0.24169 0.33261 0.0
N1916 N 0.93337 0.23135 0.31349 0.0
N1917 N 0.09514 0.24491 0.33178 0.0
H1918 H 0.95353 0.46081 0.34192 0.0
H1919 H 0.59879 0.519 0.31302 0.0
H1920 H 0.95907 0.49927 0.30982 0.0
H1921 H 0.59074 0.47894 0.34457 0.0
H1922 H 0.7313 0.51272 0.312 0.0
H1923 H 0.8209 0.46716 0.3431 0.0
C1924 C 0.92663 0.47039 0.33505 0.0
C1925 C 0.96722 0.47947 0.32574 0.0
C1926 C 0.70075 0.50537 0.31919 0.0
C1927 C 0.81563 0.4871 0.32711 0.0
C1928 C 0.62513 0.50907 0.31981 0.0
C1929 C 0.58383 0.49951 0.32891 0.0
C1930 C 0.7355 0.49196 0.32773 0.0
C1931 C 0.62065 0.48668 0.33743 0.0
C1932 C 0.85098 0.47412 0.33576 0.0
C1933 C 0.92976 0.49189 0.31713 0.0
N1934 N 0.69434 0.48321 0.33662 0.0
N1935 N 0.85619 0.4954 0.31804 0.0
H1936 H 0.84976 -0.005 0.0974 0.0
H1937 H 0.2218 0.97668 0.06102 0.0
H1938 H 0.86099 0.95928 0.06449 0.0
H1939 H 0.21252 0.01136 0.09424 0.0
H1940 H 0.08916 0.9707 0.062 0.0
H1941 H 0.98266 0.00094 0.09655 0.0
C1942 C 0.8804 0.98821 0.09006 0.0
C1943 C 0.84456 0.97661 0.08101 0.0
C1944 C 0.11598 0.97971 0.06906 0.0
C1945 C 0.9962 0.98357 0.07989 0.0
C1946 C 0.19162 0.98323 0.06846 0.0
C1947 C 0.22797 -0.00543 0.07755 0.0
C1948 C 0.07641 0.98755 0.07883 0.0
C1949 C 0.18644 0.00258 0.08703 0.0
C1950 C 0.95615 -0.0083 0.08954 0.0
C1951 C 0.88663 0.96827 0.07167 0.0
N1952 N 0.11289 -0.00113 0.08744 0.0
N1953 N 0.96014 0.97198 0.07132 0.0
H1954 H 0.08394 0.20896 0.08652 0.0
H1955 H 0.43852 0.26749 0.05811 0.0
H1956 H 0.0774 0.24899 0.05493 0.0
H1957 H 0.44586 0.22653 0.08936 0.0
H1958 H 0.30595 0.26149 0.05699 0.0
H1959 H 0.21654 0.21495 0.08765 0.0
C1960 C 0.11063 0.21883 0.07975 0.0
C1961 C 0.06979 0.22845 0.0706 0.0
C1962 C 0.33638 0.25389 0.06413 0.0
C1963 C 0.22138 0.23566 0.07192 0.0
C1964 C 0.41201 0.25742 0.06481 0.0
C1965 C 0.45307 0.24754 0.07386 0.0
C1966 C 0.30149 0.24031 0.07256 0.0
C1967 C 0.41612 0.23453 0.08226 0.0
C1968 C 0.18627 0.22234 0.08043 0.0
C1969 C 0.10697 0.2412 0.06211 0.0
N1970 N 0.34246 0.23123 0.08139 0.0
N1971 N 0.18061 0.2445 0.06299 0.0
H1972 H 0.85868 0.23083 0.17521 0.0
H1973 H 0.22995 0.24931 0.21174 0.0
H1974 H 0.86886 0.26689 0.20802 0.0
H1975 H 0.22153 0.21442 0.17858 0.0
H1976 H 0.0972 0.25532 0.2107 0.0
H1977 H 0.99162 0.22483 0.17615 0.0
C1978 C 0.8891 0.23769 0.18254 0.0
C1979 C 0.85294 0.2494 0.19154 0.0
C1980 C 0.12424 0.24625 0.20367 0.0
C1981 C 1.00464 0.24237 0.19278 0.0
C1982 C 0.19994 0.24272 0.2043 0.0
C1983 C 0.23657 0.23132 0.19525 0.0
C1984 C 0.08491 0.23836 0.19389 0.0
C1985 C 0.19525 0.22325 0.18577 0.0
C1986 C 0.96487 0.23416 0.18312 0.0
C1987 C 0.89473 0.25781 0.20089 0.0
N1988 N 0.12166 0.22697 0.18531 0.0
N1989 N 0.96829 0.25406 0.20129 0.0
H1990 H 0.44537 0.01379 0.1917 0.0
H1991 H 0.06066 0.95241 0.19612 0.0
H1992 H 0.4277 0.94375 0.20205 0.0
H1993 H 0.0843 0.02309 0.20489 0.0
H1994 H 0.19423 0.94882 0.19513 0.0
H1995 H 0.31158 0.01746 0.19309 0.0
C1996 C 0.41316 -0.00089 0.19412 0.0
C1997 C 0.44729 0.97839 0.19672 0.0
C1998 C 0.17022 0.96508 0.19732 0.0
C1999 C 0.29495 0.9825 0.19831 0.0
C2000 C 0.09417 0.96718 0.19786 0.0
C2001 C 0.06176 0.98809 0.2006 0.0
C2002 C 0.21417 0.98417 0.19926 0.0
C2003 C 0.10744 0.00667 0.2028 0.0
C2004 C 0.33711 0.0013 0.19502 0.0
C2005 C 0.4033 0.95998 0.19995 0.0
N2006 N 0.18162 0.00435 0.20195 0.0
N2007 N 0.3292 0.96242 0.20058 0.0
H2008 H 0.81915 -0.00224 0.96829 0.0
H2009 H 0.19066 0.97834 0.93189 0.0
H2010 H 0.82836 0.96211 0.93535 0.0
H2011 H 0.18007 0.01577 0.96429 0.0
H2012 H 0.05794 0.97226 0.93294 0.0
H2013 H 0.95186 0.00379 0.96722 0.0
C2014 C 0.84932 -0.009 0.9609 0.0
C2015 C 0.81292 0.97939 0.95191 0.0
C2016 C 0.08452 0.98191 0.9398 0.0
C2017 C 0.96448 0.98645 0.95053 0.0
C2018 C 0.16018 0.98548 0.93916 0.0
C2019 C 0.19619 -0.00239 0.948 0.0
C2020 C 0.04466 -0.00951 0.94937 0.0
C2021 C 0.1543 0.00637 0.95727 0.0
C2022 C 0.92498 -0.00545 0.96025 0.0
C2023 C 0.85444 0.97111 0.94248 0.0
N2024 N 0.08083 0.00257 0.95774 0.0
N2025 N 0.92795 0.97485 0.94202 0.0
H2026 H 0.95452 0.76481 0.92803 0.0
H2027 H 0.60024 0.70733 0.95708 0.0
H2028 H 0.96051 0.72618 0.96008 0.0
H2029 H 0.59169 0.74778 0.92564 0.0
H2030 H 0.7328 0.71327 0.95801 0.0
H2031 H 0.82182 0.75882 0.92694 0.0
C2032 C 0.92769 0.75525 0.9349 0.0
C2033 C 0.96836 0.74602 0.94418 0.0
C2034 C 0.70212 0.72078 0.95087 0.0
C2035 C 0.81681 0.73882 0.94291 0.0
C2036 C 0.62649 0.71728 0.9503 0.0
C2037 C 0.5851 0.72705 0.94126 0.0
C2038 C 0.73671 0.73419 0.94234 0.0
C2039 C 0.62173 0.73989 0.93274 0.0
C2040 C 0.85202 0.75174 0.93424 0.0
C2041 C 0.93107 0.73366 0.9528 0.0
N2042 N 0.69545 0.74315 0.93351 0.0
N2043 N 0.85746 0.73036 0.95194 0.0
H2044 H 0.19597 0.74653 0.84109 0.0
H2045 H 0.8248 0.7291 0.80439 0.0
H2046 H 0.18583 0.71083 0.80818 0.0
H2047 H 0.8333 0.76288 0.83785 0.0
H2048 H 0.95758 0.72302 0.80539 0.0
H2049 H 0.06314 0.75266 0.84013 0.0
C2050 C 0.16557 0.73978 0.83373 0.0
C2051 C 0.20173 0.72812 0.82471 0.0
C2052 C 0.93053 0.73186 0.81249 0.0
C2053 C 0.0501 0.73532 0.82345 0.0
C2054 C 0.85483 0.73544 0.81189 0.0
C2055 C 0.81821 0.74654 0.82104 0.0
C2056 C 0.96986 0.73941 0.82234 0.0
C2057 C 0.85955 0.75429 0.83059 0.0
C2058 C 0.08985 0.74338 0.83314 0.0
C2059 C 0.15995 0.71985 0.81533 0.0
N2060 N 0.93312 0.75052 0.83102 0.0
N2061 N 0.08643 0.72368 0.81491 0.0
H2062 H 0.59725 0.01864 0.81569 0.0
H2063 H 0.95224 0.96072 0.84461 0.0
H2064 H 0.58935 0.97849 0.84722 0.0
H2065 H 0.95764 -0.00065 0.81257 0.0
H2066 H 0.81955 0.96694 0.84578 0.0
H2067 H 0.72981 0.01251 0.8147 0.0
C2068 C 0.62364 0.00872 0.82248 0.0
C2069 C 0.58239 -0.00091 0.83156 0.0
C2070 C 0.84962 0.97396 0.83846 0.0
C2071 C 0.73408 -0.00829 0.83042 0.0
C2072 C 0.92529 0.97032 0.83776 0.0
C2073 C 0.96583 0.97948 0.82846 0.0
C2074 C 0.81423 0.98695 0.82981 0.0
C2075 C 0.92835 -0.00809 0.81986 0.0
C2076 C 0.69929 0.00511 0.82188 0.0
C2077 C 0.61924 0.98628 0.84009 0.0
N2078 N 0.85474 -0.00466 0.82076 0.0
N2079 N 0.69297 0.9829 0.83929 0.0
H2080 H 0.97985 0.51074 0.04531 0.0
H2081 H 0.05488 0.46259 0.9806 0.0
H2082 H 0.07595 0.44525 0.0384 0.0
H2083 H 0.96049 0.52829 0.9876 0.0
H2084 H 0.06466 0.45603 1.00174 0.0
H2085 H 0.96955 0.51713 0.02417 0.0
C2086 C 0.99793 0.4976 0.03934 0.0
C2087 C 0.02905 0.47748 0.0436 0.0
C2088 C 0.04213 0.47194 0.99865 0.0
C2089 C 1.01849 0.48476 0.01941 0.0
C2090 C 0.03705 0.47573 0.98659 0.0
C2091 C 1.00661 0.49598 0.98235 0.0
C2092 C 1.01656 0.4885 1.00653 0.0
C2093 C 0.9841 0.5124 0.99049 0.0
C2094 C 0.99255 0.5013 0.02727 0.0
C2095 C 0.05181 0.46104 0.03548 0.0
N2096 N 0.98919 0.50827 1.00218 0.0
N2097 N 0.04645 0.46509 0.02379 0.0
H2098 H 0.22413 0.76186 0.9757 0.0
H2099 H 0.3106 0.71215 0.03973 0.0
H2100 H 0.31601 0.6955 0.98183 0.0
H2101 H 0.21971 0.77863 0.03358 0.0
H2102 H 0.31476 0.70588 0.01852 0.0
H2103 H 0.21916 0.768 0.99691 0.0
C2104 C 0.24231 0.74847 0.98152 0.0
C2105 C 0.27078 0.72818 0.97701 0.0
C2106 C 0.29425 0.72189 0.02181 0.0
C2107 C 0.26641 0.73518 1.00126 0.0
C2108 C 0.29241 0.72553 0.03391 0.0
C2109 C 0.26455 0.74591 0.03841 0.0
C2110 C 0.26801 0.73876 0.01416 0.0
C2111 C 0.24141 0.76264 0.03047 0.0
C2112 C 0.24002 0.75204 0.99362 0.0
C2113 C 0.29389 0.71143 0.98494 0.0
N2114 N 0.24329 0.75865 0.01875 0.0
N2115 N 0.29159 0.71535 0.99666 0.0
H2116 H 0.8665 0.71814 0.28079 0.0
H2117 H 0.16913 0.7615 0.2355 0.0
H2118 H 0.07292 0.74711 0.29148 0.0
H2119 H 0.96388 0.73172 0.22484 0.0
H2120 H 0.13422 0.75678 0.25594 0.0
H2121 H 0.90129 0.72298 0.26037 0.0
C2122 C 0.91952 0.72546 0.27882 0.0
C2123 C 0.96706 0.73223 0.28784 0.0
C2124 C 0.09658 0.75131 0.24917 0.0
C2125 C 1.00709 0.73795 0.26436 0.0
C2126 C 0.11633 0.75403 0.23748 0.0
C2127 C 0.06917 0.74699 0.22847 0.0
C2128 C 0.02902 0.74141 0.25195 0.0
C2129 C 1.00164 0.73743 0.23154 0.0
C2130 C 0.93922 0.72825 0.26713 0.0
C2131 C 0.03486 0.74162 0.28478 0.0
N2132 N 0.98359 0.73487 0.24305 0.0
N2133 N 0.05285 0.74425 0.27327 0.0
H2134 H 0.31941 0.51567 0.23054 0.0
H2135 H 0.23087 0.46357 0.29397 0.0
H2136 H 0.23534 0.44822 0.23596 0.0
H2137 H 0.31207 0.53133 0.28848 0.0
H2138 H 0.23001 0.45776 0.27271 0.0
H2139 H 0.32008 0.52144 0.2518 0.0
C2140 C 0.3021 0.50198 0.23621 0.0
C2141 C 0.27704 0.48147 0.23149 0.0
C2142 C 0.24759 0.47395 0.27615 0.0
C2143 C 0.27642 0.48804 0.25579 0.0
C2144 C 0.24747 0.47732 0.28829 0.0
C2145 C 0.27182 0.49793 0.29298 0.0
C2146 C 0.27227 0.49132 0.26869 0.0
C2147 C 0.29314 0.51514 0.28522 0.0
C2148 C 0.30187 0.50532 0.24835 0.0
C2149 C 0.25485 0.46433 0.23924 0.0
N2150 N 0.29328 0.51141 0.27347 0.0
N2151 N 0.25468 0.46803 0.25099 0.0
H2152 H 0.81463 0.19363 0.98137 0.0
H2153 H 0.72585 0.2797 0.03377 0.0
H2154 H 0.73033 0.2612 0.97609 0.0
H2155 H 0.80639 0.21174 0.0392 0.0
H2156 H 0.7299 0.27349 0.01262 0.0
H2157 H 0.81042 0.19969 1.00254 0.0
C2158 C 0.79439 0.20967 0.98469 0.0
C2159 C 0.77301 0.22697 0.97697 0.0
C2160 C 0.74708 0.25995 0.01841 0.0
C2161 C 0.76905 0.23416 1.00121 0.0
C2162 C 0.74522 0.26354 0.03049 0.0
C2163 C 0.7656 0.24618 0.03824 0.0
C2164 C 0.76942 0.23882 0.01402 0.0
C2165 C 0.79027 0.22559 0.03353 0.0
C2166 C 0.79242 0.21316 0.99678 0.0
C2167 C 0.74725 0.2474 0.98173 0.0
N2168 N 0.79109 0.22243 0.02171 0.0
N2169 N 0.74643 0.25048 0.99355 0.0
H2170 H 0.87197 0.21455 0.78008 0.0
H2171 H 0.1682 0.26337 0.73518 0.0
H2172 H 0.07301 0.24663 0.79099 0.0
H2173 H 0.96778 0.23097 0.72423 0.0
H2174 H 0.13354 0.25776 0.75557 0.0
H2175 H 0.90639 0.22024 0.75968 0.0
C2176 C 0.92378 0.22271 0.77817 0.0
C2177 C 0.96988 0.23013 0.78723 0.0
C2178 C 0.09687 0.25191 0.74875 0.0
C2179 C 1.00938 0.23685 0.76381 0.0
C2180 C 0.11647 0.25516 0.73709 0.0
C2181 C 0.07065 0.24761 0.72801 0.0
C2182 C 0.03085 0.24097 0.75143 0.0
C2183 C 1.00446 0.23709 0.73098 0.0
C2184 C 0.94323 0.22599 0.7665 0.0
C2185 C 0.03613 0.24059 0.78425 0.0
N2186 N 0.98658 0.23402 0.74246 0.0
N2187 N 0.05387 0.24371 0.77277 0.0
H2188 H 0.81242 0.53031 0.78842 0.0
H2189 H 0.72501 0.44483 0.73578 0.0
H2190 H 0.73262 0.46231 0.79359 0.0
H2191 H 0.80226 0.51311 0.73059 0.0
H2192 H 0.72949 0.4507 0.75695 0.0
H2193 H 0.80673 0.5246 0.76725 0.0
C2194 C 0.79283 0.51425 0.78508 0.0
C2195 C 0.7732 0.49672 0.79277 0.0
C2196 C 0.74583 0.46438 0.75121 0.0
C2197 C 0.76756 0.48993 0.76851 0.0
C2198 C 0.74373 0.461 0.73912 0.0
C2199 C 0.76311 0.47854 0.73142 0.0
C2200 C 0.76742 0.4855 0.75568 0.0
C2201 C 0.78696 0.49912 0.73621 0.0
C2202 C 0.79002 0.51095 0.77299 0.0
C2203 C 0.74816 0.47627 0.78798 0.0
N2204 N 0.78806 0.50208 0.74804 0.0
N2205 N 0.74653 0.47339 0.77615 0.0
H2206 H 0.97723 0.01373 0.54749 0.0
H2207 H 0.05653 0.96448 0.48313 0.0
H2208 H 0.07083 0.94772 0.54102 0.0
H2209 H 0.96378 0.03057 0.48967 0.0
H2210 H 0.06385 0.95814 0.50432 0.0
H2211 H 0.96901 0.01987 0.5263 0.0
C2212 C 0.99515 0.00042 0.5416 0.0
C2213 C 0.02502 0.98023 0.546 0.0
C2214 C 0.04222 0.97408 0.50112 0.0
C2215 C 1.01688 0.98723 0.52177 0.0
C2216 C 0.03856 0.97775 0.48903 0.0
C2217 C 1.00929 -0.00195 0.48465 0.0
C2218 C 1.01642 -0.00918 0.50887 0.0
C2219 C 0.98652 0.01465 0.49268 0.0
C2220 C 0.99098 0.00398 0.52951 0.0
C2221 C 0.04766 0.96358 0.53799 0.0
N2222 N 0.99022 0.01063 0.50439 0.0
N2223 N 0.04351 0.96749 0.52628 0.0
H2224 H 0.3193 0.1955 0.48172 0.0
H2225 H 0.23491 0.28185 0.53416 0.0
H2226 H 0.24134 0.26376 0.47634 0.0
H2227 H 0.31557 0.21385 0.5394 0.0
H2228 H 0.23832 0.27577 0.51299 0.0
H2229 H 0.31521 0.20163 0.50287 0.0
C2230 C 0.30045 0.21171 0.48501 0.0
C2231 C 0.28086 0.22918 0.47727 0.0
C2232 C 0.25568 0.2622 0.51875 0.0
C2233 C 0.27706 0.23645 0.5015 0.0
C2234 C 0.25418 0.26571 0.53084 0.0
C2235 C 0.27478 0.24829 0.53854 0.0
C2236 C 0.2778 0.24108 0.51431 0.0
C2237 C 0.29929 0.22773 0.53377 0.0
C2238 C 0.29857 0.21525 0.49709 0.0
C2239 C 0.25681 0.24983 0.482 0.0
N2240 N 0.29969 0.22465 0.52196 0.0
N2241 N 0.25603 0.25294 0.49382 0.0
H2242 H 0.22693 0.96373 0.79671 0.0
H2243 H 0.3139 0.01562 0.73318 0.0
H2244 H 0.31135 0.0311 0.79116 0.0
H2245 H 0.2278 0.94845 0.73871 0.0
H2246 H 0.31605 0.02136 0.75444 0.0
H2247 H 0.22457 0.958 0.77545 0.0
C2248 C 0.24396 0.97742 0.79101 0.0
C2249 C 0.26961 -0.00212 0.79569 0.0
C2250 C 0.29706 0.00531 0.751 0.0
C2251 C 0.26832 -0.00864 0.77139 0.0
C2252 C 0.29643 0.00198 0.73887 0.0
C2253 C 0.27039 0.98157 0.73418 0.0
C2254 C 0.27149 0.9881 0.75848 0.0
C2255 C 0.24805 0.96449 0.74196 0.0
C2256 C 0.24321 0.97409 0.77888 0.0
C2257 C 0.29141 0.01502 0.78791 0.0
N2258 N 0.24873 0.96818 0.75371 0.0
N2259 N 0.29067 0.01133 0.77616 0.0
H2260 H 0.72479 0.7624 0.47586 0.0
H2261 H 0.8119 0.71457 0.54025 0.0
H2262 H 0.81798 0.6964 0.48251 0.0
H2263 H 0.71991 0.78075 0.53364 0.0
H2264 H 0.81527 0.70764 0.5191 0.0
H2265 H 0.71831 0.76897 0.49704 0.0
C2266 C 0.74279 0.74916 0.48178 0.0
C2267 C 0.77226 0.72887 0.47744 0.0
C2268 C 0.79467 0.72373 0.52227 0.0
C2269 C 0.76631 0.73638 0.50164 0.0
C2270 C 0.7933 0.72774 0.53434 0.0
C2271 C 0.76542 0.74824 0.5387 0.0
C2272 C 0.76794 0.74032 0.51451 0.0
C2273 C 0.74169 0.76468 0.53065 0.0
C2274 C 0.7397 0.75298 0.49387 0.0
C2275 C 0.79513 0.71233 0.48549 0.0
N2276 N 0.74316 0.76033 0.51896 0.0
N2277 N 0.79214 0.7165 0.49719 0.0
H2278 H 0.70181 0.9461 0.23947 0.0
H2279 H 0.81176 0.03038 0.29153 0.0
H2280 H 0.79828 0.01184 0.23379 0.0
H2281 H 0.71982 0.96398 0.29713 0.0
H2282 H 0.80338 0.02447 0.27039 0.0
H2283 H 0.70802 0.95238 0.26059 0.0
C2284 C 0.72496 0.9618 0.24269 0.0
C2285 C 0.7494 0.97851 0.23488 0.0
C2286 C 0.78463 0.01123 0.27622 0.0
C2287 C 0.75588 0.98595 0.25907 0.0
C2288 C 0.78898 0.01464 0.2883 0.0
C2289 C 0.76673 -0.0024 0.29609 0.0
C2290 C 0.75786 -0.00941 0.27188 0.0
C2291 C 0.73758 0.97756 0.29143 0.0
C2292 C 0.72815 0.96542 0.25475 0.0
C2293 C 0.77897 -0.0015 0.23951 0.0
N2294 N 0.73441 0.97456 0.27962 0.0
N2295 N 0.78103 0.00172 0.25132 0.0
H2296 H 0.48469 0.51381 0.54369 0.0
H2297 H 0.5671 0.46468 0.47939 0.0
H2298 H 0.5786 0.44784 0.53725 0.0
H2299 H 0.47167 0.53047 0.48578 0.0
H2300 H 0.57404 0.45846 0.50058 0.0
H2301 H 0.47732 0.52003 0.52249 0.0
C2302 C 0.50287 0.50053 0.53781 0.0
C2303 C 0.53254 0.48032 0.54222 0.0
C2304 C 0.55191 0.47431 0.49736 0.0
C2305 C 0.52538 0.4874 0.51798 0.0
C2306 C 0.54847 0.47792 0.48526 0.0
C2307 C 0.51856 0.49809 0.48083 0.0
C2308 C 0.52526 0.49099 0.50508 0.0
C2309 C 0.49495 0.51464 0.48883 0.0
C2310 C 0.49918 0.50414 0.52571 0.0
C2311 C 0.55557 0.46371 0.53421 0.0
N2312 N 0.49846 0.51069 0.50055 0.0
N2313 N 0.55188 0.46766 0.5225 0.0
H2314 H 0.56168 0.76381 0.79026 0.0
H2315 H 0.48152 0.71462 0.72592 0.0
H2316 H 0.47042 0.69763 0.78375 0.0
H2317 H 0.57353 0.78072 0.73238 0.0
H2318 H 0.47446 0.70837 0.74711 0.0
H2319 H 0.56843 0.77016 0.76906 0.0
C2320 C 0.54394 0.75052 0.78436 0.0
C2321 C 0.51522 0.73021 0.78875 0.0
C2322 C 0.49584 0.7243 0.7439 0.0
C2323 C 0.52166 0.73744 0.76453 0.0
C2324 C 0.49934 0.72792 0.73181 0.0
C2325 C 0.5284 0.74818 0.7274 0.0
C2326 C 0.52159 0.74106 0.75163 0.0
C2327 C 0.55098 0.76482 0.73541 0.0
C2328 C 0.54727 0.7542 0.77227 0.0
C2329 C 0.49272 0.71358 0.78073 0.0
N2330 N 0.54747 0.76085 0.74712 0.0
N2331 N 0.49606 0.7176 0.76902 0.0
H2332 H 0.47828 0.19616 0.28408 0.0
H2333 H 0.57983 0.28182 0.23215 0.0
H2334 H 0.56441 0.26326 0.28981 0.0
H2335 H 0.49525 0.21456 0.22636 0.0
H2336 H 0.57217 0.2756 0.25327 0.0
H2337 H 0.48588 0.20233 0.26294 0.0
C2338 C 0.49959 0.21212 0.28087 0.0
C2339 C 0.52053 0.22926 0.2887 0.0
C2340 C 0.5549 0.26222 0.24741 0.0
C2341 C 0.52844 0.23657 0.2645 0.0
C2342 C 0.55885 0.26581 0.23534 0.0
C2343 C 0.53837 0.24864 0.2275 0.0
C2344 C 0.53037 0.24127 0.2517 0.0
C2345 C 0.51154 0.22825 0.23211 0.0
C2346 C 0.5035 0.21568 0.2688 0.0
C2347 C 0.54775 0.24959 0.28408 0.0
N2348 N 0.50872 0.22508 0.24391 0.0
N2349 N 0.55051 0.25273 0.27227 0.0
H2350 H 0.56978 0.94408 0.04042 0.0
H2351 H 0.46703 0.02998 0.9886 0.0
H2352 H 0.4851 0.01142 0.0463 0.0
H2353 H 0.5542 0.96292 0.9828 0.0
H2354 H 0.47454 0.0237 1.00972 0.0
H2355 H 0.56156 0.95035 0.01931 0.0
C2356 C 0.54864 0.96012 0.03725 0.0
C2357 C 0.52833 0.97729 0.04512 0.0
C2358 C 0.4924 0.01038 1.00385 0.0
C2359 C 0.5197 0.98472 0.02093 0.0
C2360 C 0.48854 0.014 0.99178 0.0
C2361 C 0.50982 -0.00309 0.98394 0.0
C2362 C 0.51764 -0.01053 1.00813 0.0
C2363 C 0.53727 0.97655 0.98854 0.0
C2364 C 0.54437 0.96373 0.02519 0.0
C2365 C 0.50126 -0.00228 0.04054 0.0
N2366 N 0.53999 0.97335 1.00034 0.0
N2367 N 0.49815 0.00092 0.02874 0.0
loop_
_geom_bond_atom_site_label_1
_geom_bond_atom_site_label_2
_geom_bond_distance
_geom_bond_site_symmetry_2
_ccdc_geom_bond_type
Dy0 O4 2.398 . S
Dy0 O5 2.491 . S
Dy0 O6 2.403 . S
Dy0 O7 2.664 1_655 S
Dy0 O11 2.326 . S
Dy0 O15 2.310 1_655 S
Dy0 O16 2.351 1_655 S
C1 O12 1.185 . S
C1 O13 1.355 . S
C2 O4 1.185 . S
C2 O5 1.355 . S
Dy3 O7 2.310 . S
Dy3 O10 2.351 . S
Dy3 O12 2.398 . S
Dy3 O13 2.491 . S
Dy3 O14 2.403 . S
Dy3 O15 2.664 . S
Dy3 O17 2.326 . S
O4 Dy0 2.398 . S
O4 C2 1.185 . S
O5 Dy0 2.491 . S
O5 C2 1.355 . S
O6 Dy0 2.403 . S
O6 C8 1.254 1_655 S
O7 Dy0 2.664 1_455 S
O7 Dy3 2.310 . S
O7 C8 1.268 . S
C8 O6 1.254 1_455 S
C8 O7 1.268 . S
C9 O14 1.254 . S
C9 O15 1.268 . S
O10 Dy3 2.351 . S
O10 C18 1.249 1_455 S
O11 Dy0 2.326 . S
O11 C18 1.267 . S
O12 C1 1.185 . S
O12 Dy3 2.398 . S
O13 C1 1.355 . S
O13 Dy3 2.491 . S
O14 Dy3 2.403 . S
O14 C9 1.254 . S
O15 Dy0 2.310 1_455 S
O15 Dy3 2.664 . S
O15 C9 1.268 . S
O16 Dy0 2.351 1_455 S
O16 C19 1.249 . S
O17 Dy3 2.326 . S
O17 C19 1.267 . S
C18 O10 1.249 1_655 S
C18 O11 1.267 . S
C19 O16 1.249 . S
C19 O17 1.267 . S
Dy20 O24 2.398 . S
Dy20 O25 2.491 . S
Dy20 O26 2.403 . S
Dy20 O27 2.664 . S
Dy20 O31 2.326 . S
Dy20 O35 2.310 . S
Dy20 O36 2.351 . S
C21 O32 1.185 1_655 S
C21 O33 1.355 1_655 S
C22 O24 1.185 . S
C22 O25 1.355 . S
Dy23 O27 2.310 . S
Dy23 O30 2.351 . S
Dy23 O32 2.398 . S
Dy23 O33 2.491 . S
Dy23 O34 2.403 . S
Dy23 O35 2.664 . S
Dy23 O37 2.326 . S
O24 Dy20 2.398 . S
O24 C22 1.185 . S
O25 Dy20 2.491 . S
O25 C22 1.355 . S
O26 Dy20 2.403 . S
O26 C28 1.254 . S
O27 Dy20 2.664 . S
O27 Dy23 2.310 . S
O27 C28 1.268 . S
C28 O26 1.254 . S
C28 O27 1.268 . S
C29 O34 1.254 . S
C29 O35 1.268 . S
O30 Dy23 2.351 . S
O30 C38 1.249 . S
O31 Dy20 2.326 . S
O31 C38 1.267 . S
O32 C21 1.185 1_455 S
O32 Dy23 2.398 . S
O33 C21 1.355 1_455 S
O33 Dy23 2.491 . S
O34 Dy23 2.403 . S
O34 C29 1.254 . S
O35 Dy20 2.310 . S
O35 Dy23 2.664 . S
O35 C29 1.268 . S
O36 Dy20 2.351 . S
O36 C39 1.249 . S
O37 Dy23 2.326 . S
O37 C39 1.267 . S
C38 O30 1.249 . S
C38 O31 1.267 . S
C39 O36 1.249 . S
C39 O37 1.267 . S
Dy40 O44 2.398 . S
Dy40 O45 2.491 . S
Dy40 O46 2.403 . S
Dy40 O47 2.664 1_655 S
Dy40 O51 2.326 . S
Dy40 O55 2.310 1_655 S
Dy40 O56 2.351 1_655 S
C41 O52 1.185 . S
C41 O53 1.355 . S
C42 O44 1.185 . S
C42 O45 1.355 . S
Dy43 O47 2.310 . S
Dy43 O50 2.351 . S
Dy43 O52 2.398 . S
Dy43 O53 2.491 . S
Dy43 O54 2.403 . S
Dy43 O55 2.664 . S
Dy43 O57 2.326 . S
O44 Dy40 2.398 . S
O44 C42 1.185 . S
O45 Dy40 2.491 . S
O45 C42 1.355 . S
O46 Dy40 2.403 . S
O46 C48 1.254 1_655 S
O47 Dy40 2.664 1_455 S
O47 Dy43 2.310 . S
O47 C48 1.268 . S
C48 O46 1.254 1_455 S
C48 O47 1.268 . S
C49 O54 1.254 . S
C49 O55 1.268 . S
O50 Dy43 2.351 . S
O50 C58 1.249 1_455 S
O51 Dy40 2.326 . S
O51 C58 1.267 . S
O52 C41 1.185 . S
O52 Dy43 2.398 . S
O53 C41 1.355 . S
O53 Dy43 2.491 . S
O54 Dy43 2.403 . S
O54 C49 1.254 . S
O55 Dy40 2.310 1_455 S
O55 Dy43 2.664 . S
O55 C49 1.268 . S
O56 Dy40 2.351 1_455 S
O56 C59 1.249 . S
O57 Dy43 2.326 . S
O57 C59 1.267 . S
C58 O50 1.249 1_655 S
C58 O51 1.267 . S
C59 O56 1.249 . S
C59 O57 1.267 . S
Dy60 O64 2.398 . S
Dy60 O65 2.491 . S
Dy60 O66 2.403 . S
Dy60 O67 2.664 . S
Dy60 O71 2.326 . S
Dy60 O75 2.310 . S
Dy60 O76 2.351 . S
C61 O72 1.185 1_655 S
C61 O73 1.355 1_655 S
C62 O64 1.185 . S
C62 O65 1.355 . S
Dy63 O67 2.310 . S
Dy63 O70 2.351 . S
Dy63 O72 2.398 . S
Dy63 O73 2.491 . S
Dy63 O74 2.403 . S
Dy63 O75 2.664 . S
Dy63 O77 2.326 . S
O64 Dy60 2.398 . S
O64 C62 1.185 . S
O65 Dy60 2.491 . S
O65 C62 1.355 . S
O66 Dy60 2.403 . S
O66 C68 1.254 . S
O67 Dy60 2.664 . S
O67 Dy63 2.310 . S
O67 C68 1.268 . S
C68 O66 1.254 . S
C68 O67 1.268 . S
C69 O74 1.254 . S
C69 O75 1.268 . S
O70 Dy63 2.351 . S
O70 C78 1.249 . S
O71 Dy60 2.326 . S
O71 C78 1.267 . S
O72 C61 1.185 1_455 S
O72 Dy63 2.398 . S
O73 C61 1.355 1_455 S
O73 Dy63 2.491 . S
O74 Dy63 2.403 . S
O74 C69 1.254 . S
O75 Dy60 2.310 . S
O75 Dy63 2.664 . S
O75 C69 1.268 . S
O76 Dy60 2.351 . S
O76 C79 1.249 . S
O77 Dy63 2.326 . S
O77 C79 1.267 . S
C78 O70 1.249 . S
C78 O71 1.267 . S
C79 O76 1.249 . S
C79 O77 1.267 . S
Dy80 O84 2.398 . S
Dy80 O85 2.491 . S
Dy80 O86 2.403 . S
Dy80 O87 2.664 . S
Dy80 O91 2.326 . S
Dy80 O95 2.310 . S
Dy80 O96 2.351 . S
C81 O92 1.185 . S
C81 O93 1.355 . S
C82 O84 1.185 . S
C82 O85 1.355 . S
Dy83 O87 2.310 1_455 S
Dy83 O90 2.351 1_455 S
Dy83 O92 2.398 . S
Dy83 O93 2.491 . S
Dy83 O94 2.403 . S
Dy83 O95 2.664 1_455 S
Dy83 O97 2.326 . S
O84 Dy80 2.398 . S
O84 C82 1.185 . S
O85 Dy80 2.491 . S
O85 C82 1.355 . S
O86 Dy80 2.403 . S
O86 C88 1.254 . S
O87 Dy80 2.664 . S
O87 Dy83 2.310 1_655 S
O87 C88 1.268 . S
C88 O86 1.254 . S
C88 O87 1.268 . S
C89 O94 1.254 1_655 S
C89 O95 1.268 . S
O90 Dy83 2.351 1_655 S
O90 C98 1.249 . S
O91 Dy80 2.326 . S
O91 C98 1.267 . S
O92 C81 1.185 . S
O92 Dy83 2.398 . S
O93 C81 1.355 . S
O93 Dy83 2.491 . S
O94 Dy83 2.403 . S
O94 C89 1.254 1_455 S
O95 Dy80 2.310 . S
O95 Dy83 2.664 1_655 S
O95 C89 1.268 . S
O96 Dy80 2.351 . S
O96 C99 1.249 1_655 S
O97 Dy83 2.326 . S
O97 C99 1.267 . S
C98 O90 1.249 . S
C98 O91 1.267 . S
C99 O96 1.249 1_455 S
C99 O97 1.267 . S
Dy100 O104 2.398 . S
Dy100 O105 2.491 . S
Dy100 O106 2.403 . S
Dy100 O107 2.664 . S
Dy100 O111 2.326 . S
Dy100 O115 2.310 . S
Dy100 O116 2.351 . S
C101 O112 1.185 . S
C101 O113 1.355 . S
C102 O104 1.185 1_455 S
C102 O105 1.355 1_455 S
Dy103 O107 2.310 . S
Dy103 O110 2.351 . S
Dy103 O112 2.398 . S
Dy103 O113 2.491 . S
Dy103 O114 2.403 . S
Dy103 O115 2.664 . S
Dy103 O117 2.326 . S
O104 Dy100 2.398 . S
O104 C102 1.185 1_655 S
O105 Dy100 2.491 . S
O105 C102 1.355 1_655 S
O106 Dy100 2.403 . S
O106 C108 1.254 . S
O107 Dy100 2.664 . S
O107 Dy103 2.310 . S
O107 C108 1.268 . S
C108 O106 1.254 . S
C108 O107 1.268 . S
C109 O114 1.254 . S
C109 O115 1.268 . S
O110 Dy103 2.351 . S
O110 C118 1.249 . S
O111 Dy100 2.326 . S
O111 C118 1.267 . S
O112 C101 1.185 . S
O112 Dy103 2.398 . S
O113 C101 1.355 . S
O113 Dy103 2.491 . S
O114 Dy103 2.403 . S
O114 C109 1.254 . S
O115 Dy100 2.310 . S
O115 Dy103 2.664 . S
O115 C109 1.268 . S
O116 Dy100 2.351 . S
O116 C119 1.249 . S
O117 Dy103 2.326 . S
O117 C119 1.267 . S
C118 O110 1.249 . S
C118 O111 1.267 . S
C119 O116 1.249 . S
C119 O117 1.267 . S
Dy120 O124 2.398 . S
Dy120 O125 2.491 . S
Dy120 O126 2.403 . S
Dy120 O127 2.664 . S
Dy120 O131 2.326 . S
Dy120 O135 2.310 . S
Dy120 O136 2.351 . S
C121 O132 1.185 . S
C121 O133 1.355 . S
C122 O124 1.185 . S
C122 O125 1.355 . S
Dy123 O127 2.310 1_455 S
Dy123 O130 2.351 1_455 S
Dy123 O132 2.398 . S
Dy123 O133 2.491 . S
Dy123 O134 2.403 . S
Dy123 O135 2.664 1_455 S
Dy123 O137 2.326 . S
O124 Dy120 2.398 . S
O124 C122 1.185 . S
O125 Dy120 2.491 . S
O125 C122 1.355 . S
O126 Dy120 2.403 . S
O126 C128 1.254 . S
O127 Dy120 2.664 . S
O127 Dy123 2.310 1_655 S
O127 C128 1.268 . S
C128 O126 1.254 . S
C128 O127 1.268 . S
C129 O134 1.254 1_655 S
C129 O135 1.268 . S
O130 Dy123 2.351 1_655 S
O130 C138 1.249 . S
O131 Dy120 2.326 . S
O131 C138 1.267 . S
O132 C121 1.185 . S
O132 Dy123 2.398 . S
O133 C121 1.355 . S
O133 Dy123 2.491 . S
O134 Dy123 2.403 . S
O134 C129 1.254 1_455 S
O135 Dy120 2.310 . S
O135 Dy123 2.664 1_655 S
O135 C129 1.268 . S
O136 Dy120 2.351 . S
O136 C139 1.249 1_655 S
O137 Dy123 2.326 . S
O137 C139 1.267 . S
C138 O130 1.249 . S
C138 O131 1.267 . S
C139 O136 1.249 1_455 S
C139 O137 1.267 . S
Dy140 O144 2.398 . S
Dy140 O145 2.491 . S
Dy140 O146 2.403 . S
Dy140 O147 2.664 . S
Dy140 O151 2.326 . S
Dy140 O155 2.310 . S
Dy140 O156 2.351 . S
C141 O152 1.185 . S
C141 O153 1.355 . S
C142 O144 1.185 1_455 S
C142 O145 1.355 1_455 S
Dy143 O147 2.310 . S
Dy143 O150 2.351 . S
Dy143 O152 2.398 . S
Dy143 O153 2.491 . S
Dy143 O154 2.403 . S
Dy143 O155 2.664 . S
Dy143 O157 2.326 . S
O144 Dy140 2.398 . S
O144 C142 1.185 1_655 S
O145 Dy140 2.491 . S
O145 C142 1.355 1_655 S
O146 Dy140 2.403 . S
O146 C148 1.254 . S
O147 Dy140 2.664 . S
O147 Dy143 2.310 . S
O147 C148 1.268 . S
C148 O146 1.254 . S
C148 O147 1.268 . S
C149 O154 1.254 . S
C149 O155 1.268 . S
O150 Dy143 2.351 . S
O150 C158 1.249 . S
O151 Dy140 2.326 . S
O151 C158 1.267 . S
O152 C141 1.185 . S
O152 Dy143 2.398 . S
O153 C141 1.355 . S
O153 Dy143 2.491 . S
O154 Dy143 2.403 . S
O154 C149 1.254 . S
O155 Dy140 2.310 . S
O155 Dy143 2.664 . S
O155 C149 1.268 . S
O156 Dy140 2.351 . S
O156 C159 1.249 . S
O157 Dy143 2.326 . S
O157 C159 1.267 . S
C158 O150 1.249 . S
C158 O151 1.267 . S
C159 O156 1.249 . S
C159 O157 1.267 . S
Dy160 O164 2.398 . S
Dy160 O165 2.491 1_545 S
Dy160 O166 2.403 . S
Dy160 O167 2.664 1_645 S
Dy160 O171 2.326 1_545 S
Dy160 O175 2.310 1_645 S
Dy160 O176 2.351 1_655 S
C161 O172 1.185 1_545 S
C161 O173 1.355 . S
C162 O164 1.185 1_565 S
C162 O165 1.355 . S
Dy163 O167 2.310 . S
Dy163 O170 2.351 . S
Dy163 O172 2.398 . S
Dy163 O173 2.491 1_565 S
Dy163 O174 2.403 . S
Dy163 O175 2.664 . S
Dy163 O177 2.326 1_565 S
O164 Dy160 2.398 . S
O164 C162 1.185 1_545 S
O165 Dy160 2.491 1_565 S
O165 C162 1.355 . S
O166 Dy160 2.403 . S
O166 C168 1.263 1_655 S
O167 Dy160 2.664 1_465 S
O167 Dy163 2.310 . S
O167 C168 1.265 1_565 S
C168 O166 1.263 1_455 S
C168 O167 1.265 1_545 S
C169 O174 1.254 . S
C169 O175 1.268 . S
O170 Dy163 2.351 . S
O170 C178 1.249 1_455 S
O171 Dy160 2.326 1_565 S
O171 C178 1.267 . S
O172 C161 1.185 1_565 S
O172 Dy163 2.398 . S
O173 C161 1.355 . S
O173 Dy163 2.491 1_545 S
O174 Dy163 2.403 . S
O174 C169 1.254 . S
O175 Dy160 2.310 1_465 S
O175 Dy163 2.664 . S
O175 C169 1.268 . S
O176 Dy160 2.351 1_455 S
O176 C179 1.249 . S
O177 Dy163 2.326 1_545 S
O177 C179 1.267 . S
C178 O170 1.249 1_655 S
C178 O171 1.267 . S
C179 O176 1.249 . S
C179 O177 1.267 . S
Dy180 O184 2.398 . S
Dy180 O185 2.491 . S
Dy180 O186 2.403 . S
Dy180 O187 2.664 . S
Dy180 O191 2.326 . S
Dy180 O195 2.310 . S
Dy180 O196 2.351 . S
C181 O192 1.185 1_655 S
C181 O193 1.355 1_655 S
C182 O184 1.185 . S
C182 O185 1.355 . S
Dy183 O187 2.310 . S
Dy183 O190 2.351 . S
Dy183 O192 2.398 . S
Dy183 O193 2.491 . S
Dy183 O194 2.403 . S
Dy183 O195 2.664 . S
Dy183 O197 2.326 . S
O184 Dy180 2.398 . S
O184 C182 1.185 . S
O185 Dy180 2.491 . S
O185 C182 1.355 . S
O186 Dy180 2.403 . S
O186 C188 1.254 . S
O187 Dy180 2.664 . S
O187 Dy183 2.310 . S
O187 C188 1.268 . S
C188 O186 1.254 . S
C188 O187 1.268 . S
C189 O194 1.254 . S
C189 O195 1.268 . S
O190 Dy183 2.351 . S
O190 C198 1.249 . S
O191 Dy180 2.326 . S
O191 C198 1.267 . S
O192 C181 1.185 1_455 S
O192 Dy183 2.398 . S
O193 C181 1.355 1_455 S
O193 Dy183 2.491 . S
O194 Dy183 2.403 . S
O194 C189 1.254 . S
O195 Dy180 2.310 . S
O195 Dy183 2.664 . S
O195 C189 1.268 . S
O196 Dy180 2.351 . S
O196 C199 1.249 . S
O197 Dy183 2.326 . S
O197 C199 1.267 . S
C198 O190 1.249 . S
C198 O191 1.267 . S
C199 O196 1.249 . S
C199 O197 1.267 . S
Dy200 O204 2.398 . S
Dy200 O205 2.491 . S
Dy200 O206 2.403 . S
Dy200 O207 2.664 1_655 S
Dy200 O211 2.326 . S
Dy200 O215 2.310 1_655 S
Dy200 O216 2.351 1_655 S
C201 O212 1.185 . S
C201 O213 1.355 . S
C202 O204 1.185 . S
C202 O205 1.355 . S
Dy203 O207 2.310 . S
Dy203 O210 2.351 . S
Dy203 O212 2.398 . S
Dy203 O213 2.491 . S
Dy203 O214 2.403 . S
Dy203 O215 2.664 . S
Dy203 O217 2.326 . S
O204 Dy200 2.398 . S
O204 C202 1.185 . S
O205 Dy200 2.491 . S
O205 C202 1.355 . S
O206 Dy200 2.403 . S
O206 C208 1.254 1_655 S
O207 Dy200 2.664 1_455 S
O207 Dy203 2.310 . S
O207 C208 1.268 . S
C208 O206 1.254 1_455 S
C208 O207 1.268 . S
C209 O214 1.254 . S
C209 O215 1.268 . S
O210 Dy203 2.351 . S
O210 C218 1.249 1_455 S
O211 Dy200 2.326 . S
O211 C218 1.267 . S
O212 C201 1.185 . S
O212 Dy203 2.398 . S
O213 C201 1.355 . S
O213 Dy203 2.491 . S
O214 Dy203 2.403 . S
O214 C209 1.254 . S
O215 Dy200 2.310 1_455 S
O215 Dy203 2.664 . S
O215 C209 1.268 . S
O216 Dy200 2.351 1_455 S
O216 C219 1.249 . S
O217 Dy203 2.326 . S
O217 C219 1.267 . S
C218 O210 1.249 1_655 S
C218 O211 1.267 . S
C219 O216 1.249 . S
C219 O217 1.267 . S
Dy220 O224 2.398 . S
Dy220 O225 2.491 1_545 S
Dy220 O226 2.403 . S
Dy220 O227 2.664 1_545 S
Dy220 O231 2.326 1_545 S
Dy220 O235 2.310 1_545 S
Dy220 O236 2.351 . S
C221 O232 1.185 1_645 S
C221 O233 1.355 1_655 S
C222 O224 1.185 1_565 S
C222 O225 1.355 . S
Dy223 O227 2.310 . S
Dy223 O230 2.351 . S
Dy223 O232 2.398 . S
Dy223 O233 2.491 1_565 S
Dy223 O234 2.403 . S
Dy223 O235 2.664 . S
Dy223 O237 2.326 1_565 S
O224 Dy220 2.398 . S
O224 C222 1.185 1_545 S
O225 Dy220 2.491 1_565 S
O225 C222 1.355 . S
O226 Dy220 2.403 . S
O226 C228 1.263 . S
O227 Dy220 2.664 1_565 S
O227 Dy223 2.310 . S
O227 C228 1.265 1_565 S
C228 O226 1.263 . S
C228 O227 1.265 1_545 S
C229 O234 1.254 . S
C229 O235 1.268 . S
O230 Dy223 2.351 . S
O230 C238 1.249 . S
O231 Dy220 2.326 1_565 S
O231 C238 1.267 . S
O232 C221 1.185 1_465 S
O232 Dy223 2.398 . S
O233 C221 1.355 1_455 S
O233 Dy223 2.491 1_545 S
O234 Dy223 2.403 . S
O234 C229 1.254 . S
O235 Dy220 2.310 1_565 S
O235 Dy223 2.664 . S
O235 C229 1.268 . S
O236 Dy220 2.351 . S
O236 C239 1.249 . S
O237 Dy223 2.326 1_545 S
O237 C239 1.267 . S
C238 O230 1.249 . S
C238 O231 1.267 . S
C239 O236 1.249 . S
C239 O237 1.267 . S
Dy240 O244 2.398 . S
Dy240 O245 2.491 1_545 S
Dy240 O246 2.403 . S
Dy240 O247 2.664 . S
Dy240 O251 2.326 1_545 S
Dy240 O255 2.310 . S
Dy240 O256 2.351 . S
C241 O252 1.185 1_545 S
C241 O253 1.355 . S
C242 O244 1.185 1_565 S
C242 O245 1.355 . S
Dy243 O247 2.310 1_465 S
Dy243 O250 2.351 1_455 S
Dy243 O252 2.398 . S
Dy243 O253 2.491 1_565 S
Dy243 O254 2.403 . S
Dy243 O255 2.664 1_465 S
Dy243 O257 2.326 1_565 S
O244 Dy240 2.398 . S
O244 C242 1.185 1_545 S
O245 Dy240 2.491 1_565 S
O245 C242 1.355 . S
O246 Dy240 2.403 . S
O246 C248 1.254 . S
O247 Dy240 2.664 . S
O247 Dy243 2.310 1_645 S
O247 C248 1.268 . S
C248 O246 1.254 . S
C248 O247 1.268 . S
C249 O254 1.263 1_655 S
C249 O255 1.265 1_565 S
O250 Dy243 2.351 1_655 S
O250 C258 1.249 . S
O251 Dy240 2.326 1_565 S
O251 C258 1.267 . S
O252 C241 1.185 1_565 S
O252 Dy243 2.398 . S
O253 C241 1.355 . S
O253 Dy243 2.491 1_545 S
O254 Dy243 2.403 . S
O254 C249 1.263 1_455 S
O255 Dy240 2.310 . S
O255 Dy243 2.664 1_645 S
O255 C249 1.265 1_545 S
O256 Dy240 2.351 . S
O256 C259 1.249 1_655 S
O257 Dy243 2.326 1_545 S
O257 C259 1.267 . S
C258 O250 1.249 . S
C258 O251 1.267 . S
C259 O256 1.249 1_455 S
C259 O257 1.267 . S
Dy260 O264 2.398 . S
Dy260 O265 2.491 . S
Dy260 O266 2.403 . S
Dy260 O267 2.664 . S
Dy260 O271 2.326 . S
Dy260 O275 2.310 . S
Dy260 O276 2.351 . S
C261 O272 1.185 . S
C261 O273 1.355 . S
C262 O264 1.185 1_455 S
C262 O265 1.355 1_455 S
Dy263 O267 2.310 . S
Dy263 O270 2.351 . S
Dy263 O272 2.398 . S
Dy263 O273 2.491 . S
Dy263 O274 2.403 . S
Dy263 O275 2.664 . S
Dy263 O277 2.326 . S
O264 Dy260 2.398 . S
O264 C262 1.185 1_655 S
O265 Dy260 2.491 . S
O265 C262 1.355 1_655 S
O266 Dy260 2.403 . S
O266 C268 1.254 . S
O267 Dy260 2.664 . S
O267 Dy263 2.310 . S
O267 C268 1.268 . S
C268 O266 1.254 . S
C268 O267 1.268 . S
C269 O274 1.254 . S
C269 O275 1.268 . S
O270 Dy263 2.351 . S
O270 C278 1.249 . S
O271 Dy260 2.326 . S
O271 C278 1.267 . S
O272 C261 1.185 . S
O272 Dy263 2.398 . S
O273 C261 1.355 . S
O273 Dy263 2.491 . S
O274 Dy263 2.403 . S
O274 C269 1.254 . S
O275 Dy260 2.310 . S
O275 Dy263 2.664 . S
O275 C269 1.268 . S
O276 Dy260 2.351 . S
O276 C279 1.249 . S
O277 Dy263 2.326 . S
O277 C279 1.267 . S
C278 O270 1.249 . S
C278 O271 1.267 . S
C279 O276 1.249 . S
C279 O277 1.267 . S
Dy280 O284 2.398 . S
Dy280 O285 2.491 . S
Dy280 O286 2.403 . S
Dy280 O287 2.664 . S
Dy280 O291 2.326 . S
Dy280 O295 2.310 . S
Dy280 O296 2.351 . S
C281 O292 1.185 . S
C281 O293 1.355 . S
C282 O284 1.185 . S
C282 O285 1.355 . S
Dy283 O287 2.310 1_455 S
Dy283 O290 2.351 1_455 S
Dy283 O292 2.398 . S
Dy283 O293 2.491 . S
Dy283 O294 2.403 . S
Dy283 O295 2.664 1_455 S
Dy283 O297 2.326 . S
O284 Dy280 2.398 . S
O284 C282 1.185 . S
O285 Dy280 2.491 . S
O285 C282 1.355 . S
O286 Dy280 2.403 . S
O286 C288 1.254 . S
O287 Dy280 2.664 . S
O287 Dy283 2.310 1_655 S
O287 C288 1.268 . S
C288 O286 1.254 . S
C288 O287 1.268 . S
C289 O294 1.254 1_655 S
C289 O295 1.268 . S
O290 Dy283 2.351 1_655 S
O290 C298 1.249 . S
O291 Dy280 2.326 . S
O291 C298 1.267 . S
O292 C281 1.185 . S
O292 Dy283 2.398 . S
O293 C281 1.355 . S
O293 Dy283 2.491 . S
O294 Dy283 2.403 . S
O294 C289 1.254 1_455 S
O295 Dy280 2.310 . S
O295 Dy283 2.664 1_655 S
O295 C289 1.268 . S
O296 Dy280 2.351 . S
O296 C299 1.249 1_655 S
O297 Dy283 2.326 . S
O297 C299 1.267 . S
C298 O290 1.249 . S
C298 O291 1.267 . S
C299 O296 1.249 1_455 S
C299 O297 1.267 . S
Dy300 O304 2.398 . S
Dy300 O305 2.491 1_545 S
Dy300 O306 2.403 . S
Dy300 O307 2.664 . S
Dy300 O311 2.326 1_545 S
Dy300 O315 2.310 . S
Dy300 O316 2.351 . S
C301 O312 1.185 1_545 S
C301 O313 1.355 . S
C302 O304 1.185 1_465 S
C302 O305 1.355 1_455 S
Dy303 O307 2.310 1_565 S
Dy303 O310 2.351 . S
Dy303 O312 2.398 . S
Dy303 O313 2.491 1_565 S
Dy303 O314 2.403 . S
Dy303 O315 2.664 1_565 S
Dy303 O317 2.326 1_565 S
O304 Dy300 2.398 . S
O304 C302 1.185 1_645 S
O305 Dy300 2.491 1_565 S
O305 C302 1.355 1_655 S
O306 Dy300 2.403 . S
O306 C308 1.254 . S
O307 Dy300 2.664 . S
O307 Dy303 2.310 1_545 S
O307 C308 1.268 . S
C308 O306 1.254 . S
C308 O307 1.268 . S
C309 O314 1.263 . S
C309 O315 1.265 1_565 S
O310 Dy303 2.351 . S
O310 C318 1.249 . S
O311 Dy300 2.326 1_565 S
O311 C318 1.267 . S
O312 C301 1.185 1_565 S
O312 Dy303 2.398 . S
O313 C301 1.355 . S
O313 Dy303 2.491 1_545 S
O314 Dy303 2.403 . S
O314 C309 1.263 . S
O315 Dy300 2.310 . S
O315 Dy303 2.664 1_545 S
O315 C309 1.265 1_545 S
O316 Dy300 2.351 . S
O316 C319 1.249 . S
O317 Dy303 2.326 1_545 S
O317 C319 1.267 . S
C318 O310 1.249 . S
C318 O311 1.267 . S
C319 O316 1.249 . S
C319 O317 1.267 . S
Dy320 O324 2.398 . S
Dy320 O325 2.491 . S
Dy320 O326 2.403 . S
Dy320 O327 2.664 . S
Dy320 O331 2.326 . S
Dy320 O335 2.310 . S
Dy320 O336 2.351 . S
C321 O332 1.185 . S
C321 O333 1.355 . S
C322 O324 1.185 . S
C322 O325 1.355 . S
Dy323 O327 2.310 . S
Dy323 O330 2.351 . S
Dy323 O332 2.398 . S
Dy323 O333 2.491 . S
Dy323 O334 2.403 . S
Dy323 O335 2.664 . S
Dy323 O337 2.326 . S
O324 Dy320 2.398 . S
O324 C322 1.185 . S
O325 Dy320 2.491 . S
O325 C322 1.355 . S
O326 Dy320 2.403 . S
O326 C328 1.254 . S
O327 Dy320 2.664 . S
O327 Dy323 2.310 . S
O327 C328 1.268 . S
C328 O326 1.254 . S
C328 O327 1.268 . S
C329 O334 1.254 . S
C329 O335 1.268 . S
O330 Dy323 2.351 . S
O330 C338 1.249 . S
O331 Dy320 2.326 . S
O331 C338 1.267 . S
O332 C321 1.185 . S
O332 Dy323 2.398 . S
O333 C321 1.355 . S
O333 Dy323 2.491 . S
O334 Dy323 2.403 . S
O334 C329 1.254 . S
O335 Dy320 2.310 . S
O335 Dy323 2.664 . S
O335 C329 1.268 . S
O336 Dy320 2.351 . S
O336 C339 1.249 . S
O337 Dy323 2.326 . S
O337 C339 1.267 . S
C338 O330 1.249 . S
C338 O331 1.267 . S
C339 O336 1.249 . S
C339 O337 1.267 . S
Dy340 O344 2.398 . S
Dy340 O345 2.491 . S
Dy340 O346 2.403 . S
Dy340 O347 2.664 . S
Dy340 O351 2.326 . S
Dy340 O355 2.310 . S
Dy340 O356 2.351 . S
C341 O352 1.185 . S
C341 O353 1.355 . S
C342 O344 1.185 . S
C342 O345 1.355 . S
Dy343 O347 2.310 . S
Dy343 O350 2.351 . S
Dy343 O352 2.398 . S
Dy343 O353 2.491 . S
Dy343 O354 2.403 . S
Dy343 O355 2.664 . S
Dy343 O357 2.326 . S
O344 Dy340 2.398 . S
O344 C342 1.185 . S
O345 Dy340 2.491 . S
O345 C342 1.355 . S
O346 Dy340 2.403 . S
O346 C348 1.254 . S
O347 Dy340 2.664 . S
O347 Dy343 2.310 . S
O347 C348 1.268 . S
C348 O346 1.254 . S
C348 O347 1.268 . S
C349 O354 1.254 . S
C349 O355 1.268 . S
O350 Dy343 2.351 . S
O350 C358 1.249 . S
O351 Dy340 2.326 . S
O351 C358 1.267 . S
O352 C341 1.185 . S
O352 Dy343 2.398 . S
O353 C341 1.355 . S
O353 Dy343 2.491 . S
O354 Dy343 2.403 . S
O354 C349 1.254 . S
O355 Dy340 2.310 . S
O355 Dy343 2.664 . S
O355 C349 1.268 . S
O356 Dy340 2.351 . S
O356 C359 1.249 . S
O357 Dy343 2.326 . S
O357 C359 1.267 . S
C358 O350 1.249 . S
C358 O351 1.267 . S
C359 O356 1.249 . S
C359 O357 1.267 . S
Dy360 O364 2.398 . S
Dy360 O365 2.491 . S
Dy360 O366 2.403 . S
Dy360 O367 2.664 . S
Dy360 O371 2.326 . S
Dy360 O375 2.310 . S
Dy360 O376 2.351 . S
C361 O372 1.185 . S
C361 O373 1.355 . S
C362 O364 1.185 . S
C362 O365 1.355 . S
Dy363 O367 2.310 . S
Dy363 O370 2.351 . S
Dy363 O372 2.398 . S
Dy363 O373 2.491 . S
Dy363 O374 2.403 . S
Dy363 O375 2.664 . S
Dy363 O377 2.326 . S
O364 Dy360 2.398 . S
O364 C362 1.185 . S
O365 Dy360 2.491 . S
O365 C362 1.355 . S
O366 Dy360 2.403 . S
O366 C368 1.254 . S
O367 Dy360 2.664 . S
O367 Dy363 2.310 . S
O367 C368 1.268 . S
C368 O366 1.254 . S
C368 O367 1.268 . S
C369 O374 1.254 . S
C369 O375 1.268 . S
O370 Dy363 2.351 . S
O370 C378 1.249 . S
O371 Dy360 2.326 . S
O371 C378 1.267 . S
O372 C361 1.185 . S
O372 Dy363 2.398 . S
O373 C361 1.355 . S
O373 Dy363 2.491 . S
O374 Dy363 2.403 . S
O374 C369 1.254 . S
O375 Dy360 2.310 . S
O375 Dy363 2.664 . S
O375 C369 1.268 . S
O376 Dy360 2.351 . S
O376 C379 1.249 . S
O377 Dy363 2.326 . S
O377 C379 1.267 . S
C378 O370 1.249 . S
C378 O371 1.267 . S
C379 O376 1.249 . S
C379 O377 1.267 . S
Dy380 O384 2.398 . S
Dy380 O385 2.491 . S
Dy380 O386 2.403 . S
Dy380 O387 2.664 . S
Dy380 O391 2.326 . S
Dy380 O395 2.310 . S
Dy380 O396 2.351 . S
C381 O392 1.185 . S
C381 O393 1.355 . S
C382 O384 1.185 . S
C382 O385 1.355 . S
Dy383 O387 2.310 . S
Dy383 O390 2.351 . S
Dy383 O392 2.398 . S
Dy383 O393 2.491 . S
Dy383 O394 2.403 . S
Dy383 O395 2.664 . S
Dy383 O397 2.326 . S
O384 Dy380 2.398 . S
O384 C382 1.185 . S
O385 Dy380 2.491 . S
O385 C382 1.355 . S
O386 Dy380 2.403 . S
O386 C388 1.254 . S
O387 Dy380 2.664 . S
O387 Dy383 2.310 . S
O387 C388 1.268 . S
C388 O386 1.254 . S
C388 O387 1.268 . S
C389 O394 1.254 . S
C389 O395 1.268 . S
O390 Dy383 2.351 . S
O390 C398 1.249 . S
O391 Dy380 2.326 . S
O391 C398 1.267 . S
O392 C381 1.185 . S
O392 Dy383 2.398 . S
O393 C381 1.355 . S
O393 Dy383 2.491 . S
O394 Dy383 2.403 . S
O394 C389 1.254 . S
O395 Dy380 2.310 . S
O395 Dy383 2.664 . S
O395 C389 1.268 . S
O396 Dy380 2.351 . S
O396 C399 1.249 . S
O397 Dy383 2.326 . S
O397 C399 1.267 . S
C398 O390 1.249 . S
C398 O391 1.267 . S
C399 O396 1.249 . S
C399 O397 1.267 . S
Dy400 O404 2.398 . S
Dy400 O405 2.491 . S
Dy400 O406 2.403 . S
Dy400 O407 2.664 . S
Dy400 O411 2.326 . S
Dy400 O415 2.310 . S
Dy400 O416 2.351 . S
C401 O412 1.185 . S
C401 O413 1.355 . S
C402 O404 1.185 . S
C402 O405 1.355 . S
Dy403 O407 2.310 . S
Dy403 O410 2.351 . S
Dy403 O412 2.398 . S
Dy403 O413 2.491 . S
Dy403 O414 2.403 . S
Dy403 O415 2.664 . S
Dy403 O417 2.326 . S
O404 Dy400 2.398 . S
O404 C402 1.185 . S
O405 Dy400 2.491 . S
O405 C402 1.355 . S
O406 Dy400 2.403 . S
O406 C408 1.254 . S
O407 Dy400 2.664 . S
O407 Dy403 2.310 . S
O407 C408 1.268 . S
C408 O406 1.254 . S
C408 O407 1.268 . S
C409 O414 1.254 . S
C409 O415 1.268 . S
O410 Dy403 2.351 . S
O410 C418 1.249 . S
O411 Dy400 2.326 . S
O411 C418 1.267 . S
O412 C401 1.185 . S
O412 Dy403 2.398 . S
O413 C401 1.355 . S
O413 Dy403 2.491 . S
O414 Dy403 2.403 . S
O414 C409 1.254 . S
O415 Dy400 2.310 . S
O415 Dy403 2.664 . S
O415 C409 1.268 . S
O416 Dy400 2.351 . S
O416 C419 1.249 . S
O417 Dy403 2.326 . S
O417 C419 1.267 . S
C418 O410 1.249 . S
C418 O411 1.267 . S
C419 O416 1.249 . S
C419 O417 1.267 . S
Dy420 O424 2.398 . S
Dy420 O425 2.491 . S
Dy420 O426 2.403 . S
Dy420 O427 2.664 . S
Dy420 O431 2.326 . S
Dy420 O435 2.310 . S
Dy420 O436 2.351 . S
C421 O432 1.185 . S
C421 O433 1.355 . S
C422 O424 1.185 . S
C422 O425 1.355 . S
Dy423 O427 2.310 . S
Dy423 O430 2.351 . S
Dy423 O432 2.398 . S
Dy423 O433 2.491 . S
Dy423 O434 2.403 . S
Dy423 O435 2.664 . S
Dy423 O437 2.326 . S
O424 Dy420 2.398 . S
O424 C422 1.185 . S
O425 Dy420 2.491 . S
O425 C422 1.355 . S
O426 Dy420 2.403 . S
O426 C428 1.254 . S
O427 Dy420 2.664 . S
O427 Dy423 2.310 . S
O427 C428 1.268 . S
C428 O426 1.254 . S
C428 O427 1.268 . S
C429 O434 1.254 . S
C429 O435 1.268 . S
O430 Dy423 2.351 . S
O430 C438 1.249 . S
O431 Dy420 2.326 . S
O431 C438 1.267 . S
O432 C421 1.185 . S
O432 Dy423 2.398 . S
O433 C421 1.355 . S
O433 Dy423 2.491 . S
O434 Dy423 2.403 . S
O434 C429 1.254 . S
O435 Dy420 2.310 . S
O435 Dy423 2.664 . S
O435 C429 1.268 . S
O436 Dy420 2.351 . S
O436 C439 1.249 . S
O437 Dy423 2.326 . S
O437 C439 1.267 . S
C438 O430 1.249 . S
C438 O431 1.267 . S
C439 O436 1.249 . S
C439 O437 1.267 . S
Dy440 O444 2.398 . S
Dy440 O445 2.491 . S
Dy440 O446 2.403 . S
Dy440 O447 2.664 . S
Dy440 O451 2.326 . S
Dy440 O455 2.310 . S
Dy440 O456 2.351 . S
C441 O452 1.185 . S
C441 O453 1.355 . S
C442 O444 1.185 . S
C442 O445 1.355 . S
Dy443 O447 2.310 . S
Dy443 O450 2.351 . S
Dy443 O452 2.398 . S
Dy443 O453 2.491 . S
Dy443 O454 2.403 . S
Dy443 O455 2.664 . S
Dy443 O457 2.326 . S
O444 Dy440 2.398 . S
O444 C442 1.185 . S
O445 Dy440 2.491 . S
O445 C442 1.355 . S
O446 Dy440 2.403 . S
O446 C448 1.254 . S
O447 Dy440 2.664 . S
O447 Dy443 2.310 . S
O447 C448 1.268 . S
C448 O446 1.254 . S
C448 O447 1.268 . S
C449 O454 1.254 . S
C449 O455 1.268 . S
O450 Dy443 2.351 . S
O450 C458 1.249 . S
O451 Dy440 2.326 . S
O451 C458 1.267 . S
O452 C441 1.185 . S
O452 Dy443 2.398 . S
O453 C441 1.355 . S
O453 Dy443 2.491 . S
O454 Dy443 2.403 . S
O454 C449 1.254 . S
O455 Dy440 2.310 . S
O455 Dy443 2.664 . S
O455 C449 1.268 . S
O456 Dy440 2.351 . S
O456 C459 1.249 . S
O457 Dy443 2.326 . S
O457 C459 1.267 . S
C458 O450 1.249 . S
C458 O451 1.267 . S
C459 O456 1.249 . S
C459 O457 1.267 . S
Dy460 O464 2.398 . S
Dy460 O465 2.491 . S
Dy460 O466 2.403 . S
Dy460 O467 2.664 . S
Dy460 O471 2.326 . S
Dy460 O475 2.310 . S
Dy460 O476 2.351 . S
C461 O472 1.185 . S
C461 O473 1.355 . S
C462 O464 1.185 . S
C462 O465 1.355 . S
Dy463 O467 2.310 . S
Dy463 O470 2.351 . S
Dy463 O472 2.398 . S
Dy463 O473 2.491 . S
Dy463 O474 2.403 . S
Dy463 O475 2.664 . S
Dy463 O477 2.326 . S
O464 Dy460 2.398 . S
O464 C462 1.185 . S
O465 Dy460 2.491 . S
O465 C462 1.355 . S
O466 Dy460 2.403 . S
O466 C468 1.254 . S
O467 Dy460 2.664 . S
O467 Dy463 2.310 . S
O467 C468 1.268 . S
C468 O466 1.254 . S
C468 O467 1.268 . S
C469 O474 1.254 . S
C469 O475 1.268 . S
O470 Dy463 2.351 . S
O470 C478 1.249 . S
O471 Dy460 2.326 . S
O471 C478 1.267 . S
O472 C461 1.185 . S
O472 Dy463 2.398 . S
O473 C461 1.355 . S
O473 Dy463 2.491 . S
O474 Dy463 2.403 . S
O474 C469 1.254 . S
O475 Dy460 2.310 . S
O475 Dy463 2.664 . S
O475 C469 1.268 . S
O476 Dy460 2.351 . S
O476 C479 1.249 . S
O477 Dy463 2.326 . S
O477 C479 1.267 . S
C478 O470 1.249 . S
C478 O471 1.267 . S
C479 O476 1.249 . S
C479 O477 1.267 . S
Dy480 O484 2.398 . S
Dy480 O485 2.491 1_545 S
Dy480 O486 2.403 . S
Dy480 O487 2.664 1_545 S
Dy480 O491 2.326 1_545 S
Dy480 O495 2.310 1_545 S
Dy480 O496 2.351 . S
C481 O492 1.185 1_545 S
C481 O493 1.355 . S
C482 O484 1.185 1_565 S
C482 O485 1.355 . S
Dy483 O487 2.310 . S
Dy483 O490 2.351 . S
Dy483 O492 2.398 . S
Dy483 O493 2.491 1_565 S
Dy483 O494 2.403 . S
Dy483 O495 2.664 . S
Dy483 O497 2.326 1_565 S
O484 Dy480 2.398 . S
O484 C482 1.185 1_545 S
O485 Dy480 2.491 1_565 S
O485 C482 1.355 . S
O486 Dy480 2.403 . S
O486 C488 1.263 . S
O487 Dy480 2.664 1_565 S
O487 Dy483 2.310 . S
O487 C488 1.265 1_565 S
C488 O486 1.263 . S
C488 O487 1.265 1_545 S
C489 O494 1.254 . S
C489 O495 1.268 . S
O490 Dy483 2.351 . S
O490 C498 1.249 . S
O491 Dy480 2.326 1_565 S
O491 C498 1.267 . S
O492 C481 1.185 1_565 S
O492 Dy483 2.398 . S
O493 C481 1.355 . S
O493 Dy483 2.491 1_545 S
O494 Dy483 2.403 . S
O494 C489 1.254 . S
O495 Dy480 2.310 1_565 S
O495 Dy483 2.664 . S
O495 C489 1.268 . S
O496 Dy480 2.351 . S
O496 C499 1.249 . S
O497 Dy483 2.326 1_545 S
O497 C499 1.267 . S
C498 O490 1.249 . S
C498 O491 1.267 . S
C499 O496 1.249 . S
C499 O497 1.267 . S
Dy500 O504 2.398 . S
Dy500 O505 2.491 . S
Dy500 O506 2.403 . S
Dy500 O507 2.664 . S
Dy500 O511 2.326 . S
Dy500 O515 2.310 . S
Dy500 O516 2.351 . S
C501 O512 1.185 . S
C501 O513 1.355 . S
C502 O504 1.185 . S
C502 O505 1.355 . S
Dy503 O507 2.310 . S
Dy503 O510 2.351 . S
Dy503 O512 2.398 . S
Dy503 O513 2.491 . S
Dy503 O514 2.403 . S
Dy503 O515 2.664 . S
Dy503 O517 2.326 . S
O504 Dy500 2.398 . S
O504 C502 1.185 . S
O505 Dy500 2.491 . S
O505 C502 1.355 . S
O506 Dy500 2.403 . S
O506 C508 1.254 . S
O507 Dy500 2.664 . S
O507 Dy503 2.310 . S
O507 C508 1.268 . S
C508 O506 1.254 . S
C508 O507 1.268 . S
C509 O514 1.254 . S
C509 O515 1.268 . S
O510 Dy503 2.351 . S
O510 C518 1.249 . S
O511 Dy500 2.326 . S
O511 C518 1.267 . S
O512 C501 1.185 . S
O512 Dy503 2.398 . S
O513 C501 1.355 . S
O513 Dy503 2.491 . S
O514 Dy503 2.403 . S
O514 C509 1.254 . S
O515 Dy500 2.310 . S
O515 Dy503 2.664 . S
O515 C509 1.268 . S
O516 Dy500 2.351 . S
O516 C519 1.249 . S
O517 Dy503 2.326 . S
O517 C519 1.267 . S
C518 O510 1.249 . S
C518 O511 1.267 . S
C519 O516 1.249 . S
C519 O517 1.267 . S
Dy520 O524 2.398 . S
Dy520 O525 2.491 . S
Dy520 O526 2.403 . S
Dy520 O527 2.664 . S
Dy520 O531 2.326 . S
Dy520 O535 2.310 . S
Dy520 O536 2.351 . S
C521 O532 1.185 . S
C521 O533 1.355 . S
C522 O524 1.185 . S
C522 O525 1.355 . S
Dy523 O527 2.310 . S
Dy523 O530 2.351 . S
Dy523 O532 2.398 . S
Dy523 O533 2.491 . S
Dy523 O534 2.403 . S
Dy523 O535 2.664 . S
Dy523 O537 2.326 . S
O524 Dy520 2.398 . S
O524 C522 1.185 . S
O525 Dy520 2.491 . S
O525 C522 1.355 . S
O526 Dy520 2.403 . S
O526 C528 1.254 . S
O527 Dy520 2.664 . S
O527 Dy523 2.310 . S
O527 C528 1.268 . S
C528 O526 1.254 . S
C528 O527 1.268 . S
C529 O534 1.254 . S
C529 O535 1.268 . S
O530 Dy523 2.351 . S
O530 C538 1.249 . S
O531 Dy520 2.326 . S
O531 C538 1.267 . S
O532 C521 1.185 . S
O532 Dy523 2.398 . S
O533 C521 1.355 . S
O533 Dy523 2.491 . S
O534 Dy523 2.403 . S
O534 C529 1.254 . S
O535 Dy520 2.310 . S
O535 Dy523 2.664 . S
O535 C529 1.268 . S
O536 Dy520 2.351 . S
O536 C539 1.249 . S
O537 Dy523 2.326 . S
O537 C539 1.267 . S
C538 O530 1.249 . S
C538 O531 1.267 . S
C539 O536 1.249 . S
C539 O537 1.267 . S
Dy540 O544 2.398 . S
Dy540 O545 2.491 1_545 S
Dy540 O546 2.403 . S
Dy540 O547 2.664 1_545 S
Dy540 O551 2.326 1_545 S
Dy540 O555 2.310 1_545 S
Dy540 O556 2.351 . S
C541 O552 1.185 1_545 S
C541 O553 1.355 . S
C542 O544 1.185 1_565 S
C542 O545 1.355 . S
Dy543 O547 2.310 . S
Dy543 O550 2.351 . S
Dy543 O552 2.398 . S
Dy543 O553 2.491 1_565 S
Dy543 O554 2.403 . S
Dy543 O555 2.664 . S
Dy543 O557 2.326 1_565 S
O544 Dy540 2.398 . S
O544 C542 1.185 1_545 S
O545 Dy540 2.491 1_565 S
O545 C542 1.355 . S
O546 Dy540 2.403 . S
O546 C548 1.263 . S
O547 Dy540 2.664 1_565 S
O547 Dy543 2.310 . S
O547 C548 1.265 1_565 S
C548 O546 1.263 . S
C548 O547 1.265 1_545 S
C549 O554 1.254 . S
C549 O555 1.268 . S
O550 Dy543 2.351 . S
O550 C558 1.249 . S
O551 Dy540 2.326 1_565 S
O551 C558 1.267 . S
O552 C541 1.185 1_565 S
O552 Dy543 2.398 . S
O553 C541 1.355 . S
O553 Dy543 2.491 1_545 S
O554 Dy543 2.403 . S
O554 C549 1.254 . S
O555 Dy540 2.310 1_565 S
O555 Dy543 2.664 . S
O555 C549 1.268 . S
O556 Dy540 2.351 . S
O556 C559 1.249 . S
O557 Dy543 2.326 1_545 S
O557 C559 1.267 . S
C558 O550 1.249 . S
C558 O551 1.267 . S
C559 O556 1.249 . S
C559 O557 1.267 . S
Dy560 O564 2.398 . S
Dy560 O565 2.491 1_545 S
Dy560 O566 2.403 . S
Dy560 O567 2.664 . S
Dy560 O571 2.326 1_545 S
Dy560 O575 2.310 . S
Dy560 O576 2.351 . S
C561 O572 1.185 1_545 S
C561 O573 1.355 . S
C562 O564 1.185 1_565 S
C562 O565 1.355 . S
Dy563 O567 2.310 1_565 S
Dy563 O570 2.351 . S
Dy563 O572 2.398 . S
Dy563 O573 2.491 1_565 S
Dy563 O574 2.403 . S
Dy563 O575 2.664 1_565 S
Dy563 O577 2.326 1_565 S
O564 Dy560 2.398 . S
O564 C562 1.185 1_545 S
O565 Dy560 2.491 1_565 S
O565 C562 1.355 . S
O566 Dy560 2.403 . S
O566 C568 1.254 . S
O567 Dy560 2.664 . S
O567 Dy563 2.310 1_545 S
O567 C568 1.268 . S
C568 O566 1.254 . S
C568 O567 1.268 . S
C569 O574 1.263 . S
C569 O575 1.265 1_565 S
O570 Dy563 2.351 . S
O570 C578 1.249 . S
O571 Dy560 2.326 1_565 S
O571 C578 1.267 . S
O572 C561 1.185 1_565 S
O572 Dy563 2.398 . S
O573 C561 1.355 . S
O573 Dy563 2.491 1_545 S
O574 Dy563 2.403 . S
O574 C569 1.263 . S
O575 Dy560 2.310 . S
O575 Dy563 2.664 1_545 S
O575 C569 1.265 1_545 S
O576 Dy560 2.351 . S
O576 C579 1.249 . S
O577 Dy563 2.326 1_545 S
O577 C579 1.267 . S
C578 O570 1.249 . S
C578 O571 1.267 . S
C579 O576 1.249 . S
C579 O577 1.267 . S
Dy580 O584 2.398 . S
Dy580 O585 2.491 . S
Dy580 O586 2.403 . S
Dy580 O587 2.664 . S
Dy580 O591 2.326 . S
Dy580 O595 2.310 . S
Dy580 O596 2.351 . S
C581 O592 1.185 . S
C581 O593 1.355 . S
C582 O584 1.185 . S
C582 O585 1.355 . S
Dy583 O587 2.310 . S
Dy583 O590 2.351 . S
Dy583 O592 2.398 . S
Dy583 O593 2.491 . S
Dy583 O594 2.403 . S
Dy583 O595 2.664 . S
Dy583 O597 2.326 . S
O584 Dy580 2.398 . S
O584 C582 1.185 . S
O585 Dy580 2.491 . S
O585 C582 1.355 . S
O586 Dy580 2.403 . S
O586 C588 1.254 . S
O587 Dy580 2.664 . S
O587 Dy583 2.310 . S
O587 C588 1.268 . S
C588 O586 1.254 . S
C588 O587 1.268 . S
C589 O594 1.254 . S
C589 O595 1.268 . S
O590 Dy583 2.351 . S
O590 C598 1.249 . S
O591 Dy580 2.326 . S
O591 C598 1.267 . S
O592 C581 1.185 . S
O592 Dy583 2.398 . S
O593 C581 1.355 . S
O593 Dy583 2.491 . S
O594 Dy583 2.403 . S
O594 C589 1.254 . S
O595 Dy580 2.310 . S
O595 Dy583 2.664 . S
O595 C589 1.268 . S
O596 Dy580 2.351 . S
O596 C599 1.249 . S
O597 Dy583 2.326 . S
O597 C599 1.267 . S
C598 O590 1.249 . S
C598 O591 1.267 . S
C599 O596 1.249 . S
C599 O597 1.267 . S
Dy600 O604 2.398 . S
Dy600 O605 2.491 . S
Dy600 O606 2.403 . S
Dy600 O607 2.664 . S
Dy600 O611 2.326 . S
Dy600 O615 2.310 . S
Dy600 O616 2.351 . S
C601 O612 1.185 . S
C601 O613 1.355 . S
C602 O604 1.185 . S
C602 O605 1.355 . S
Dy603 O607 2.310 . S
Dy603 O610 2.351 . S
Dy603 O612 2.398 . S
Dy603 O613 2.491 . S
Dy603 O614 2.403 . S
Dy603 O615 2.664 . S
Dy603 O617 2.326 . S
O604 Dy600 2.398 . S
O604 C602 1.185 . S
O605 Dy600 2.491 . S
O605 C602 1.355 . S
O606 Dy600 2.403 . S
O606 C608 1.254 . S
O607 Dy600 2.664 . S
O607 Dy603 2.310 . S
O607 C608 1.268 . S
C608 O606 1.254 . S
C608 O607 1.268 . S
C609 O614 1.254 . S
C609 O615 1.268 . S
O610 Dy603 2.351 . S
O610 C618 1.249 . S
O611 Dy600 2.326 . S
O611 C618 1.267 . S
O612 C601 1.185 . S
O612 Dy603 2.398 . S
O613 C601 1.355 . S
O613 Dy603 2.491 . S
O614 Dy603 2.403 . S
O614 C609 1.254 . S
O615 Dy600 2.310 . S
O615 Dy603 2.664 . S
O615 C609 1.268 . S
O616 Dy600 2.351 . S
O616 C619 1.249 . S
O617 Dy603 2.326 . S
O617 C619 1.267 . S
C618 O610 1.249 . S
C618 O611 1.267 . S
C619 O616 1.249 . S
C619 O617 1.267 . S
Dy620 O624 2.398 . S
Dy620 O625 2.491 1_545 S
Dy620 O626 2.403 . S
Dy620 O627 2.664 . S
Dy620 O631 2.326 1_545 S
Dy620 O635 2.310 . S
Dy620 O636 2.351 . S
C621 O632 1.185 1_545 S
C621 O633 1.355 . S
C622 O624 1.185 1_565 S
C622 O625 1.355 . S
Dy623 O627 2.310 1_565 S
Dy623 O630 2.351 . S
Dy623 O632 2.398 . S
Dy623 O633 2.491 1_565 S
Dy623 O634 2.403 . S
Dy623 O635 2.664 1_565 S
Dy623 O637 2.326 1_565 S
O624 Dy620 2.398 . S
O624 C622 1.185 1_545 S
O625 Dy620 2.491 1_565 S
O625 C622 1.355 . S
O626 Dy620 2.403 . S
O626 C628 1.254 . S
O627 Dy620 2.664 . S
O627 Dy623 2.310 1_545 S
O627 C628 1.268 . S
C628 O626 1.254 . S
C628 O627 1.268 . S
C629 O634 1.263 . S
C629 O635 1.265 1_565 S
O630 Dy623 2.351 . S
O630 C638 1.249 . S
O631 Dy620 2.326 1_565 S
O631 C638 1.267 . S
O632 C621 1.185 1_565 S
O632 Dy623 2.398 . S
O633 C621 1.355 . S
O633 Dy623 2.491 1_545 S
O634 Dy623 2.403 . S
O634 C629 1.263 . S
O635 Dy620 2.310 . S
O635 Dy623 2.664 1_545 S
O635 C629 1.265 1_545 S
O636 Dy620 2.351 . S
O636 C639 1.249 . S
O637 Dy623 2.326 1_545 S
O637 C639 1.267 . S
C638 O630 1.249 . S
C638 O631 1.267 . S
C639 O636 1.249 . S
C639 O637 1.267 . S
H640 C646 0.930 1_455 S
H641 C650 0.930 . S
H642 C655 0.929 . S
H643 C653 0.929 . S
H644 C648 0.929 . S
H645 C654 0.929 . S
C646 H640 0.930 1_655 S
C646 C647 1.367 . S
C646 C654 1.378 . S
C647 C646 1.367 . S
C647 C655 1.433 . S
C648 H644 0.929 . S
C648 C650 1.378 . S
C648 C652 1.350 . S
C649 C652 1.463 . S
C649 C654 1.350 . S
C649 N657 1.427 . S
C650 H641 0.930 . S
C650 C648 1.378 . S
C650 C651 1.367 . S
C651 C650 1.367 . S
C651 C653 1.433 . S
C652 C648 1.350 . S
C652 C649 1.463 . S
C652 N656 1.427 . S
C653 H643 0.929 . S
C653 C651 1.433 . S
C653 N656 1.384 . S
C654 H645 0.929 . S
C654 C646 1.378 . S
C654 C649 1.350 . S
C655 H642 0.929 . S
C655 C647 1.433 . S
C655 N657 1.384 . S
N656 C652 1.427 . S
N656 C653 1.384 . S
N657 C649 1.427 . S
N657 C655 1.384 . S
H658 C664 0.930 . S
H659 C668 0.930 . S
H660 C673 0.929 . S
H661 C671 0.929 . S
H662 C666 0.929 . S
H663 C672 0.929 . S
C664 H658 0.930 . S
C664 C665 1.367 . S
C664 C672 1.378 . S
C665 C664 1.367 . S
C665 C673 1.433 . S
C666 H662 0.929 . S
C666 C668 1.378 . S
C666 C670 1.350 . S
C667 C670 1.463 . S
C667 C672 1.350 . S
C667 N675 1.427 . S
C668 H659 0.930 . S
C668 C666 1.378 . S
C668 C669 1.367 . S
C669 C668 1.367 . S
C669 C671 1.433 . S
C670 C666 1.350 . S
C670 C667 1.463 . S
C670 N674 1.427 . S
C671 H661 0.929 . S
C671 C669 1.433 . S
C671 N674 1.384 . S
C672 H663 0.929 . S
C672 C664 1.378 . S
C672 C667 1.350 . S
C673 H660 0.929 . S
C673 C665 1.433 . S
C673 N675 1.384 . S
N674 C670 1.427 . S
N674 C671 1.384 . S
N675 C667 1.427 . S
N675 C673 1.384 . S
H676 C682 0.930 . S
H677 C686 0.930 . S
H678 C691 0.929 . S
H679 C689 0.929 . S
H680 C684 0.929 . S
H681 C690 0.929 . S
C682 H676 0.930 . S
C682 C683 1.367 . S
C682 C690 1.378 . S
C683 C682 1.367 . S
C683 C691 1.433 . S
C684 H680 0.929 . S
C684 C686 1.378 . S
C684 C688 1.350 . S
C685 C688 1.463 . S
C685 C690 1.350 . S
C685 N693 1.427 . S
C686 H677 0.930 . S
C686 C684 1.378 . S
C686 C687 1.367 . S
C687 C686 1.367 . S
C687 C689 1.433 . S
C688 C684 1.350 . S
C688 C685 1.463 . S
C688 N692 1.427 . S
C689 H679 0.929 . S
C689 C687 1.433 . S
C689 N692 1.384 . S
C690 H681 0.929 . S
C690 C682 1.378 . S
C690 C685 1.350 . S
C691 H678 0.929 . S
C691 C683 1.433 . S
C691 N693 1.384 . S
N692 C688 1.427 . S
N692 C689 1.384 . S
N693 C685 1.427 . S
N693 C691 1.384 . S
H694 C700 0.930 . S
H695 C704 0.930 . S
H696 C709 0.929 . S
H697 C707 0.929 . S
H698 C702 0.929 . S
H699 C708 0.929 . S
C700 H694 0.930 . S
C700 C701 1.367 . S
C700 C708 1.378 . S
C701 C700 1.367 . S
C701 C709 1.433 . S
C702 H698 0.929 . S
C702 C704 1.378 . S
C702 C706 1.350 . S
C703 C706 1.463 . S
C703 C708 1.350 . S
C703 N711 1.427 . S
C704 H695 0.930 . S
C704 C702 1.378 . S
C704 C705 1.367 . S
C705 C704 1.367 . S
C705 C707 1.433 . S
C706 C702 1.350 . S
C706 C703 1.463 . S
C706 N710 1.427 . S
C707 H697 0.929 . S
C707 C705 1.433 . S
C707 N710 1.384 . S
C708 H699 0.929 . S
C708 C700 1.378 . S
C708 C703 1.350 . S
C709 H696 0.929 . S
C709 C701 1.433 . S
C709 N711 1.384 . S
N710 C706 1.427 . S
N710 C707 1.384 . S
N711 C703 1.427 . S
N711 C709 1.384 . S
H712 C718 0.930 . S
H713 C722 0.930 . S
H714 C727 0.929 . S
H715 C725 0.929 . S
H716 C720 0.929 . S
H717 C726 0.929 . S
C718 H712 0.930 . S
C718 C719 1.367 . S
C718 C726 1.378 . S
C719 C718 1.367 . S
C719 C727 1.433 . S
C720 H716 0.929 . S
C720 C722 1.378 . S
C720 C724 1.350 . S
C721 C724 1.463 . S
C721 C726 1.350 . S
C721 N729 1.427 . S
C722 H713 0.930 . S
C722 C720 1.378 . S
C722 C723 1.367 . S
C723 C722 1.367 . S
C723 C725 1.433 . S
C724 C720 1.350 . S
C724 C721 1.463 . S
C724 N728 1.427 . S
C725 H715 0.929 . S
C725 C723 1.433 . S
C725 N728 1.384 . S
C726 H717 0.929 . S
C726 C718 1.378 . S
C726 C721 1.350 . S
C727 H714 0.929 . S
C727 C719 1.433 . S
C727 N729 1.384 . S
N728 C724 1.427 . S
N728 C725 1.384 . S
N729 C721 1.427 . S
N729 C727 1.384 . S
H730 C736 0.930 . S
H731 C740 0.930 . S
H732 C745 0.929 . S
H733 C743 0.929 . S
H734 C738 0.929 . S
H735 C744 0.929 . S
C736 H730 0.930 . S
C736 C737 1.367 . S
C736 C744 1.378 . S
C737 C736 1.367 . S
C737 C745 1.433 . S
C738 H734 0.929 . S
C738 C740 1.378 . S
C738 C742 1.350 . S
C739 C742 1.463 . S
C739 C744 1.350 . S
C739 N747 1.427 . S
C740 H731 0.930 . S
C740 C738 1.378 . S
C740 C741 1.367 . S
C741 C740 1.367 . S
C741 C743 1.433 . S
C742 C738 1.350 . S
C742 C739 1.463 . S
C742 N746 1.427 . S
C743 H733 0.929 . S
C743 C741 1.433 . S
C743 N746 1.384 . S
C744 H735 0.929 . S
C744 C736 1.378 . S
C744 C739 1.350 . S
C745 H732 0.929 . S
C745 C737 1.433 . S
C745 N747 1.384 . S
N746 C742 1.427 . S
N746 C743 1.384 . S
N747 C739 1.427 . S
N747 C745 1.384 . S
H748 C754 0.930 1_655 S
H749 C758 0.930 . S
H750 C763 0.929 . S
H751 C761 0.929 . S
H752 C756 0.929 . S
H753 C762 0.929 . S
C754 H748 0.930 1_455 S
C754 C755 1.367 . S
C754 C762 1.378 . S
C755 C754 1.367 . S
C755 C763 1.433 . S
C756 H752 0.929 . S
C756 C758 1.378 . S
C756 C760 1.350 . S
C757 C760 1.463 . S
C757 C762 1.350 . S
C757 N765 1.427 . S
C758 H749 0.930 . S
C758 C756 1.378 . S
C758 C759 1.367 . S
C759 C758 1.367 . S
C759 C761 1.433 . S
C760 C756 1.350 . S
C760 C757 1.463 . S
C760 N764 1.427 . S
C761 H751 0.929 . S
C761 C759 1.433 . S
C761 N764 1.384 . S
C762 H753 0.929 . S
C762 C754 1.378 . S
C762 C757 1.350 . S
C763 H750 0.929 . S
C763 C755 1.433 . S
C763 N765 1.384 . S
N764 C760 1.427 . S
N764 C761 1.384 . S
N765 C757 1.427 . S
N765 C763 1.384 . S
H766 C772 0.930 . S
H767 C776 0.930 . S
H768 C781 0.929 . S
H769 C779 0.929 . S
H770 C774 0.929 . S
H771 C780 0.929 . S
C772 H766 0.930 . S
C772 C773 1.367 . S
C772 C780 1.378 . S
C773 C772 1.367 . S
C773 C781 1.433 . S
C774 H770 0.929 . S
C774 C776 1.378 . S
C774 C778 1.350 . S
C775 C778 1.463 . S
C775 C780 1.350 . S
C775 N783 1.427 . S
C776 H767 0.930 . S
C776 C774 1.378 . S
C776 C777 1.367 . S
C777 C776 1.367 . S
C777 C779 1.433 . S
C778 C774 1.350 . S
C778 C775 1.463 . S
C778 N782 1.427 . S
C779 H769 0.929 . S
C779 C777 1.433 . S
C779 N782 1.384 . S
C780 H771 0.929 . S
C780 C772 1.378 . S
C780 C775 1.350 . S
C781 H768 0.929 . S
C781 C773 1.433 . S
C781 N783 1.384 . S
N782 C778 1.427 . S
N782 C779 1.384 . S
N783 C775 1.427 . S
N783 C781 1.384 . S
H784 C790 0.930 . S
H785 C794 0.930 . S
H786 C799 0.929 1_455 S
H787 C797 0.929 . S
H788 C792 0.929 . S
H789 C798 0.929 . S
C790 H784 0.930 . S
C790 C791 1.367 . S
C790 C798 1.378 . S
C791 C790 1.367 . S
C791 C799 1.433 . S
C792 H788 0.929 . S
C792 C794 1.378 . S
C792 C796 1.350 . S
C793 C796 1.463 . S
C793 C798 1.350 . S
C793 N801 1.427 . S
C794 H785 0.930 . S
C794 C792 1.378 . S
C794 C795 1.367 . S
C795 C794 1.367 . S
C795 C797 1.433 . S
C796 C792 1.350 . S
C796 C793 1.463 . S
C796 N800 1.427 . S
C797 H787 0.929 . S
C797 C795 1.433 . S
C797 N800 1.384 . S
C798 H789 0.929 . S
C798 C790 1.378 . S
C798 C793 1.350 . S
C799 H786 0.929 1_655 S
C799 C791 1.433 . S
C799 N801 1.384 . S
N800 C796 1.427 . S
N800 C797 1.384 . S
N801 C793 1.427 . S
N801 C799 1.384 . S
H802 C808 0.930 . S
H803 C812 0.930 . S
H804 C817 0.929 . S
H805 C815 0.929 . S
H806 C810 0.929 . S
H807 C816 0.929 . S
C808 H802 0.930 . S
C808 C809 1.367 . S
C808 C816 1.378 . S
C809 C808 1.367 . S
C809 C817 1.433 . S
C810 H806 0.929 . S
C810 C812 1.378 . S
C810 C814 1.350 . S
C811 C814 1.463 . S
C811 C816 1.350 . S
C811 N819 1.427 . S
C812 H803 0.930 . S
C812 C810 1.378 . S
C812 C813 1.367 . S
C813 C812 1.367 . S
C813 C815 1.433 . S
C814 C810 1.350 . S
C814 C811 1.463 . S
C814 N818 1.427 . S
C815 H805 0.929 . S
C815 C813 1.433 . S
C815 N818 1.384 . S
C816 H807 0.929 . S
C816 C808 1.378 . S
C816 C811 1.350 . S
C817 H804 0.929 . S
C817 C809 1.433 . S
C817 N819 1.384 . S
N818 C814 1.427 . S
N818 C815 1.384 . S
N819 C811 1.427 . S
N819 C817 1.384 . S
H820 C826 0.930 . S
H821 C830 0.930 . S
H822 C835 0.929 . S
H823 C833 0.929 . S
H824 C828 0.929 . S
H825 C834 0.929 . S
C826 H820 0.930 . S
C826 C827 1.367 . S
C826 C834 1.378 . S
C827 C826 1.367 . S
C827 C835 1.433 . S
C828 H824 0.929 . S
C828 C830 1.378 . S
C828 C832 1.350 . S
C829 C832 1.463 . S
C829 C834 1.350 . S
C829 N837 1.427 . S
C830 H821 0.930 . S
C830 C828 1.378 . S
C830 C831 1.367 . S
C831 C830 1.367 . S
C831 C833 1.433 . S
C832 C828 1.350 . S
C832 C829 1.463 . S
C832 N836 1.427 . S
C833 H823 0.929 . S
C833 C831 1.433 . S
C833 N836 1.384 . S
C834 H825 0.929 . S
C834 C826 1.378 . S
C834 C829 1.350 . S
C835 H822 0.929 . S
C835 C827 1.433 . S
C835 N837 1.384 . S
N836 C832 1.427 . S
N836 C833 1.384 . S
N837 C829 1.427 . S
N837 C835 1.384 . S
H838 C844 0.930 . S
H839 C848 0.930 . S
H840 C853 0.929 . S
H841 C851 0.929 . S
H842 C846 0.929 . S
H843 C852 0.929 . S
C844 H838 0.930 . S
C844 C845 1.367 . S
C844 C852 1.378 . S
C845 C844 1.367 . S
C845 C853 1.433 . S
C846 H842 0.929 . S
C846 C848 1.378 . S
C846 C850 1.350 . S
C847 C850 1.463 . S
C847 C852 1.350 . S
C847 N855 1.427 . S
C848 H839 0.930 . S
C848 C846 1.378 . S
C848 C849 1.367 . S
C849 C848 1.367 . S
C849 C851 1.433 . S
C850 C846 1.350 . S
C850 C847 1.463 . S
C850 N854 1.427 . S
C851 H841 0.929 . S
C851 C849 1.433 . S
C851 N854 1.384 . S
C852 H843 0.929 . S
C852 C844 1.378 . S
C852 C847 1.350 . S
C853 H840 0.929 . S
C853 C845 1.433 . S
C853 N855 1.384 . S
N854 C850 1.427 . S
N854 C851 1.384 . S
N855 C847 1.427 . S
N855 C853 1.384 . S
H856 C862 0.930 1_655 S
H857 C866 0.930 . S
H858 C871 0.929 . S
H859 C869 0.929 . S
H860 C864 0.929 . S
H861 C870 0.929 . S
C862 H856 0.930 1_455 S
C862 C863 1.367 . S
C862 C870 1.378 . S
C863 C862 1.367 . S
C863 C871 1.433 . S
C864 H860 0.929 . S
C864 C866 1.378 . S
C864 C868 1.350 . S
C865 C868 1.463 . S
C865 C870 1.350 . S
C865 N873 1.427 . S
C866 H857 0.930 . S
C866 C864 1.378 . S
C866 C867 1.367 . S
C867 C866 1.367 . S
C867 C869 1.433 . S
C868 C864 1.350 . S
C868 C865 1.463 . S
C868 N872 1.427 . S
C869 H859 0.929 . S
C869 C867 1.433 . S
C869 N872 1.384 . S
C870 H861 0.929 . S
C870 C862 1.378 . S
C870 C865 1.350 . S
C871 H858 0.929 . S
C871 C863 1.433 . S
C871 N873 1.384 . S
N872 C868 1.427 . S
N872 C869 1.384 . S
N873 C865 1.427 . S
N873 C871 1.384 . S
H874 C880 0.930 . S
H875 C884 0.930 . S
H876 C889 0.929 . S
H877 C887 0.929 . S
H878 C882 0.929 . S
H879 C888 0.929 . S
C880 H874 0.930 . S
C880 C881 1.367 . S
C880 C888 1.378 . S
C881 C880 1.367 . S
C881 C889 1.433 . S
C882 H878 0.929 . S
C882 C884 1.378 . S
C882 C886 1.350 . S
C883 C886 1.463 . S
C883 C888 1.350 . S
C883 N891 1.427 . S
C884 H875 0.930 . S
C884 C882 1.378 . S
C884 C885 1.367 . S
C885 C884 1.367 . S
C885 C887 1.433 . S
C886 C882 1.350 . S
C886 C883 1.463 . S
C886 N890 1.427 . S
C887 H877 0.929 . S
C887 C885 1.433 . S
C887 N890 1.384 . S
C888 H879 0.929 . S
C888 C880 1.378 . S
C888 C883 1.350 . S
C889 H876 0.929 . S
C889 C881 1.433 . S
C889 N891 1.384 . S
N890 C886 1.427 . S
N890 C887 1.384 . S
N891 C883 1.427 . S
N891 C889 1.384 . S
H892 C898 0.930 . S
H893 C902 0.930 1_655 S
H894 C907 0.929 . S
H895 C905 0.929 . S
H896 C900 0.929 . S
H897 C906 0.929 . S
C898 H892 0.930 . S
C898 C899 1.367 . S
C898 C906 1.378 . S
C899 C898 1.367 . S
C899 C907 1.433 . S
C900 H896 0.929 . S
C900 C902 1.378 . S
C900 C904 1.350 . S
C901 C904 1.463 . S
C901 C906 1.350 . S
C901 N909 1.427 . S
C902 H893 0.930 1_455 S
C902 C900 1.378 . S
C902 C903 1.367 . S
C903 C902 1.367 . S
C903 C905 1.433 . S
C904 C900 1.350 . S
C904 C901 1.463 . S
C904 N908 1.427 . S
C905 H895 0.929 . S
C905 C903 1.433 . S
C905 N908 1.384 . S
C906 H897 0.929 . S
C906 C898 1.378 . S
C906 C901 1.350 . S
C907 H894 0.929 . S
C907 C899 1.433 . S
C907 N909 1.384 . S
N908 C904 1.427 . S
N908 C905 1.384 . S
N909 C901 1.427 . S
N909 C907 1.384 . S
H910 C916 0.930 . S
H911 C920 0.930 . S
H912 C925 0.929 . S
H913 C923 0.929 . S
H914 C918 0.929 . S
H915 C924 0.929 . S
C916 H910 0.930 . S
C916 C917 1.367 . S
C916 C924 1.378 . S
C917 C916 1.367 . S
C917 C925 1.433 . S
C918 H914 0.929 . S
C918 C920 1.378 . S
C918 C922 1.350 . S
C919 C922 1.463 . S
C919 C924 1.350 . S
C919 N927 1.427 . S
C920 H911 0.930 . S
C920 C918 1.378 . S
C920 C921 1.367 . S
C921 C920 1.367 . S
C921 C923 1.433 . S
C922 C918 1.350 . S
C922 C919 1.463 . S
C922 N926 1.427 . S
C923 H913 0.929 . S
C923 C921 1.433 . S
C923 N926 1.384 . S
C924 H915 0.929 . S
C924 C916 1.378 . S
C924 C919 1.350 . S
C925 H912 0.929 . S
C925 C917 1.433 . S
C925 N927 1.384 . S
N926 C922 1.427 . S
N926 C923 1.384 . S
N927 C919 1.427 . S
N927 C925 1.384 . S
H928 C934 0.930 . S
H929 C938 0.930 . S
H930 C943 0.929 . S
H931 C941 0.929 . S
H932 C936 0.929 . S
H933 C942 0.929 . S
C934 H928 0.930 . S
C934 C935 1.367 . S
C934 C942 1.378 . S
C935 C934 1.367 . S
C935 C943 1.433 . S
C936 H932 0.929 . S
C936 C938 1.378 . S
C936 C940 1.350 . S
C937 C940 1.463 . S
C937 C942 1.350 . S
C937 N945 1.427 . S
C938 H929 0.930 . S
C938 C936 1.378 . S
C938 C939 1.367 . S
C939 C938 1.367 . S
C939 C941 1.433 . S
C940 C936 1.350 . S
C940 C937 1.463 . S
C940 N944 1.427 . S
C941 H931 0.929 . S
C941 C939 1.433 . S
C941 N944 1.384 . S
C942 H933 0.929 . S
C942 C934 1.378 . S
C942 C937 1.350 . S
C943 H930 0.929 . S
C943 C935 1.433 . S
C943 N945 1.384 . S
N944 C940 1.427 . S
N944 C941 1.384 . S
N945 C937 1.427 . S
N945 C943 1.384 . S
H946 C952 0.930 . S
H947 C956 0.930 . S
H948 C961 0.929 . S
H949 C959 0.929 . S
H950 C954 0.929 . S
H951 C960 0.929 . S
C952 H946 0.930 . S
C952 C953 1.367 . S
C952 C960 1.378 . S
C953 C952 1.367 . S
C953 C961 1.433 . S
C954 H950 0.929 . S
C954 C956 1.378 . S
C954 C958 1.350 . S
C955 C958 1.463 . S
C955 C960 1.350 . S
C955 N963 1.427 . S
C956 H947 0.930 . S
C956 C954 1.378 . S
C956 C957 1.367 . S
C957 C956 1.367 . S
C957 C959 1.433 . S
C958 C954 1.350 . S
C958 C955 1.463 . S
C958 N962 1.427 . S
C959 H949 0.929 . S
C959 C957 1.433 . S
C959 N962 1.384 . S
C960 H951 0.929 . S
C960 C952 1.378 . S
C960 C955 1.350 . S
C961 H948 0.929 . S
C961 C953 1.433 . S
C961 N963 1.384 . S
N962 C958 1.427 . S
N962 C959 1.384 . S
N963 C955 1.427 . S
N963 C961 1.384 . S
H964 C970 0.930 . S
H965 C974 0.930 . S
H966 C979 0.929 . S
H967 C977 0.929 1_455 S
H968 C972 0.929 . S
H969 C978 0.929 . S
C970 H964 0.930 . S
C970 C971 1.367 . S
C970 C978 1.378 . S
C971 C970 1.367 . S
C971 C979 1.433 . S
C972 H968 0.929 . S
C972 C974 1.378 . S
C972 C976 1.350 . S
C973 C976 1.463 . S
C973 C978 1.350 . S
C973 N981 1.427 . S
C974 H965 0.930 . S
C974 C972 1.378 . S
C974 C975 1.367 . S
C975 C974 1.367 . S
C975 C977 1.433 . S
C976 C972 1.350 . S
C976 C973 1.463 . S
C976 N980 1.427 . S
C977 H967 0.929 1_655 S
C977 C975 1.433 . S
C977 N980 1.384 . S
C978 H969 0.929 . S
C978 C970 1.378 . S
C978 C973 1.350 . S
C979 H966 0.929 . S
C979 C971 1.433 . S
C979 N981 1.384 . S
N980 C976 1.427 . S
N980 C977 1.384 . S
N981 C973 1.427 . S
N981 C979 1.384 . S
H982 C988 0.930 . S
H983 C992 0.930 . S
H984 C997 0.929 . S
H985 C995 0.929 . S
H986 C990 0.929 . S
H987 C996 0.929 . S
C988 H982 0.930 . S
C988 C989 1.367 . S
C988 C996 1.378 . S
C989 C988 1.367 . S
C989 C997 1.433 . S
C990 H986 0.929 . S
C990 C992 1.378 . S
C990 C994 1.350 . S
C991 C994 1.463 . S
C991 C996 1.350 . S
C991 N999 1.427 . S
C992 H983 0.930 . S
C992 C990 1.378 . S
C992 C993 1.367 . S
C993 C992 1.367 . S
C993 C995 1.433 . S
C994 C990 1.350 . S
C994 C991 1.463 . S
C994 N998 1.427 . S
C995 H985 0.929 . S
C995 C993 1.433 . S
C995 N998 1.384 . S
C996 H987 0.929 . S
C996 C988 1.378 . S
C996 C991 1.350 . S
C997 H984 0.929 . S
C997 C989 1.433 . S
C997 N999 1.384 . S
N998 C994 1.427 . S
N998 C995 1.384 . S
N999 C991 1.427 . S
N999 C997 1.384 . S
H1000 C1006 0.930 . S
H1001 C1010 0.930 . S
H1002 C1015 0.929 . S
H1003 C1013 0.929 . S
H1004 C1008 0.929 . S
H1005 C1014 0.929 . S
C1006 H1000 0.930 . S
C1006 C1007 1.367 1_545 S
C1006 C1014 1.378 . S
C1007 C1006 1.367 1_565 S
C1007 C1015 1.433 . S
C1008 H1004 0.929 . S
C1008 C1010 1.378 . S
C1008 C1012 1.350 . S
C1009 C1012 1.463 . S
C1009 C1014 1.350 1_565 S
C1009 N1017 1.427 . S
C1010 H1001 0.930 . S
C1010 C1008 1.378 . S
C1010 C1011 1.367 . S
C1011 C1010 1.367 . S
C1011 C1013 1.433 1_565 S
C1012 C1008 1.350 . S
C1012 C1009 1.463 . S
C1012 N1016 1.427 1_565 S
C1013 H1003 0.929 . S
C1013 C1011 1.433 1_545 S
C1013 N1016 1.384 . S
C1014 H1005 0.929 . S
C1014 C1006 1.378 . S
C1014 C1009 1.350 1_545 S
C1015 H1002 0.929 . S
C1015 C1007 1.433 . S
C1015 N1017 1.384 . S
N1016 C1012 1.427 1_545 S
N1016 C1013 1.384 . S
N1017 C1009 1.427 . S
N1017 C1015 1.384 . S
H1018 C1024 0.930 . S
H1019 C1028 0.930 . S
H1020 C1033 0.929 . S
H1021 C1031 0.929 . S
H1022 C1026 0.929 . S
H1023 C1032 0.929 . S
C1024 H1018 0.930 . S
C1024 C1025 1.367 . S
C1024 C1032 1.378 . S
C1025 C1024 1.367 . S
C1025 C1033 1.433 . S
C1026 H1022 0.929 . S
C1026 C1028 1.378 . S
C1026 C1030 1.350 . S
C1027 C1030 1.463 . S
C1027 C1032 1.350 . S
C1027 N1035 1.427 . S
C1028 H1019 0.930 . S
C1028 C1026 1.378 . S
C1028 C1029 1.367 . S
C1029 C1028 1.367 . S
C1029 C1031 1.433 . S
C1030 C1026 1.350 . S
C1030 C1027 1.463 . S
C1030 N1034 1.427 . S
C1031 H1021 0.929 . S
C1031 C1029 1.433 . S
C1031 N1034 1.384 . S
C1032 H1023 0.929 . S
C1032 C1024 1.378 . S
C1032 C1027 1.350 . S
C1033 H1020 0.929 . S
C1033 C1025 1.433 . S
C1033 N1035 1.384 . S
N1034 C1030 1.427 . S
N1034 C1031 1.384 . S
N1035 C1027 1.427 . S
N1035 C1033 1.384 . S
H1036 C1042 0.930 1_455 S
H1037 C1046 0.930 . S
H1038 C1051 0.929 . S
H1039 C1049 0.929 . S
H1040 C1044 0.929 . S
H1041 C1050 0.929 . S
C1042 H1036 0.930 1_655 S
C1042 C1043 1.367 . S
C1042 C1050 1.378 . S
C1043 C1042 1.367 . S
C1043 C1051 1.433 1_545 S
C1044 H1040 0.929 . S
C1044 C1046 1.378 . S
C1044 C1048 1.350 1_565 S
C1045 C1048 1.463 . S
C1045 C1050 1.350 . S
C1045 N1053 1.427 1_545 S
C1046 H1037 0.930 . S
C1046 C1044 1.378 . S
C1046 C1047 1.367 1_565 S
C1047 C1046 1.367 1_545 S
C1047 C1049 1.433 . S
C1048 C1044 1.350 1_545 S
C1048 C1045 1.463 . S
C1048 N1052 1.427 . S
C1049 H1039 0.929 . S
C1049 C1047 1.433 . S
C1049 N1052 1.384 . S
C1050 H1041 0.929 . S
C1050 C1042 1.378 . S
C1050 C1045 1.350 . S
C1051 H1038 0.929 . S
C1051 C1043 1.433 1_565 S
C1051 N1053 1.384 . S
N1052 C1048 1.427 . S
N1052 C1049 1.384 . S
N1053 C1045 1.427 1_565 S
N1053 C1051 1.384 . S
H1054 C1060 0.930 1_455 S
H1055 C1064 0.930 . S
H1056 C1069 0.929 . S
H1057 C1067 0.929 . S
H1058 C1062 0.929 . S
H1059 C1068 0.929 . S
C1060 H1054 0.930 1_655 S
C1060 C1061 1.367 . S
C1060 C1068 1.378 . S
C1061 C1060 1.367 . S
C1061 C1069 1.433 . S
C1062 H1058 0.929 . S
C1062 C1064 1.378 . S
C1062 C1066 1.350 . S
C1063 C1066 1.463 . S
C1063 C1068 1.350 . S
C1063 N1071 1.427 . S
C1064 H1055 0.930 . S
C1064 C1062 1.378 . S
C1064 C1065 1.367 . S
C1065 C1064 1.367 . S
C1065 C1067 1.433 . S
C1066 C1062 1.350 . S
C1066 C1063 1.463 . S
C1066 N1070 1.427 . S
C1067 H1057 0.929 . S
C1067 C1065 1.433 . S
C1067 N1070 1.384 . S
C1068 H1059 0.929 . S
C1068 C1060 1.378 . S
C1068 C1063 1.350 . S
C1069 H1056 0.929 . S
C1069 C1061 1.433 . S
C1069 N1071 1.384 . S
N1070 C1066 1.427 . S
N1070 C1067 1.384 . S
N1071 C1063 1.427 . S
N1071 C1069 1.384 . S
H1072 C1078 0.930 . S
H1073 C1082 0.930 . S
H1074 C1087 0.929 . S
H1075 C1085 0.929 . S
H1076 C1080 0.929 . S
H1077 C1086 0.929 . S
C1078 H1072 0.930 . S
C1078 C1079 1.367 . S
C1078 C1086 1.378 . S
C1079 C1078 1.367 . S
C1079 C1087 1.433 . S
C1080 H1076 0.929 . S
C1080 C1082 1.378 . S
C1080 C1084 1.350 . S
C1081 C1084 1.463 . S
C1081 C1086 1.350 . S
C1081 N1089 1.427 . S
C1082 H1073 0.930 . S
C1082 C1080 1.378 . S
C1082 C1083 1.367 . S
C1083 C1082 1.367 . S
C1083 C1085 1.433 . S
C1084 C1080 1.350 . S
C1084 C1081 1.463 . S
C1084 N1088 1.427 . S
C1085 H1075 0.929 . S
C1085 C1083 1.433 . S
C1085 N1088 1.384 . S
C1086 H1077 0.929 . S
C1086 C1078 1.378 . S
C1086 C1081 1.350 . S
C1087 H1074 0.929 . S
C1087 C1079 1.433 . S
C1087 N1089 1.384 . S
N1088 C1084 1.427 . S
N1088 C1085 1.384 . S
N1089 C1081 1.427 . S
N1089 C1087 1.384 . S
H1090 C1096 0.930 . S
H1091 C1100 0.930 . S
H1092 C1105 0.929 . S
H1093 C1103 0.929 . S
H1094 C1098 0.929 . S
H1095 C1104 0.929 . S
C1096 H1090 0.930 . S
C1096 C1097 1.367 . S
C1096 C1104 1.378 . S
C1097 C1096 1.367 . S
C1097 C1105 1.433 . S
C1098 H1094 0.929 . S
C1098 C1100 1.378 . S
C1098 C1102 1.350 . S
C1099 C1102 1.463 . S
C1099 C1104 1.350 . S
C1099 N1107 1.427 . S
C1100 H1091 0.930 . S
C1100 C1098 1.378 . S
C1100 C1101 1.367 . S
C1101 C1100 1.367 . S
C1101 C1103 1.433 . S
C1102 C1098 1.350 . S
C1102 C1099 1.463 . S
C1102 N1106 1.427 . S
C1103 H1093 0.929 . S
C1103 C1101 1.433 . S
C1103 N1106 1.384 . S
C1104 H1095 0.929 . S
C1104 C1096 1.378 . S
C1104 C1099 1.350 . S
C1105 H1092 0.929 . S
C1105 C1097 1.433 . S
C1105 N1107 1.384 . S
N1106 C1102 1.427 . S
N1106 C1103 1.384 . S
N1107 C1099 1.427 . S
N1107 C1105 1.384 . S
H1108 C1114 0.930 . S
H1109 C1118 0.930 . S
H1110 C1123 0.929 . S
H1111 C1121 0.929 . S
H1112 C1116 0.929 . S
H1113 C1122 0.929 . S
C1114 H1108 0.930 . S
C1114 C1115 1.367 . S
C1114 C1122 1.378 . S
C1115 C1114 1.367 . S
C1115 C1123 1.433 . S
C1116 H1112 0.929 . S
C1116 C1118 1.378 . S
C1116 C1120 1.350 . S
C1117 C1120 1.463 . S
C1117 C1122 1.350 . S
C1117 N1125 1.427 . S
C1118 H1109 0.930 . S
C1118 C1116 1.378 . S
C1118 C1119 1.367 . S
C1119 C1118 1.367 . S
C1119 C1121 1.433 . S
C1120 C1116 1.350 . S
C1120 C1117 1.463 . S
C1120 N1124 1.427 . S
C1121 H1111 0.929 . S
C1121 C1119 1.433 . S
C1121 N1124 1.384 . S
C1122 H1113 0.929 . S
C1122 C1114 1.378 . S
C1122 C1117 1.350 . S
C1123 H1110 0.929 . S
C1123 C1115 1.433 . S
C1123 N1125 1.384 . S
N1124 C1120 1.427 . S
N1124 C1121 1.384 . S
N1125 C1117 1.427 . S
N1125 C1123 1.384 . S
H1126 C1132 0.930 . S
H1127 C1136 0.930 . S
H1128 C1141 0.929 . S
H1129 C1139 0.929 . S
H1130 C1134 0.929 . S
H1131 C1140 0.929 . S
C1132 H1126 0.930 . S
C1132 C1133 1.367 . S
C1132 C1140 1.378 . S
C1133 C1132 1.367 . S
C1133 C1141 1.433 . S
C1134 H1130 0.929 . S
C1134 C1136 1.378 . S
C1134 C1138 1.350 . S
C1135 C1138 1.463 . S
C1135 C1140 1.350 . S
C1135 N1143 1.427 . S
C1136 H1127 0.930 . S
C1136 C1134 1.378 . S
C1136 C1137 1.367 . S
C1137 C1136 1.367 . S
C1137 C1139 1.433 . S
C1138 C1134 1.350 . S
C1138 C1135 1.463 . S
C1138 N1142 1.427 . S
C1139 H1129 0.929 . S
C1139 C1137 1.433 . S
C1139 N1142 1.384 . S
C1140 H1131 0.929 . S
C1140 C1132 1.378 . S
C1140 C1135 1.350 . S
C1141 H1128 0.929 . S
C1141 C1133 1.433 . S
C1141 N1143 1.384 . S
N1142 C1138 1.427 . S
N1142 C1139 1.384 . S
N1143 C1135 1.427 . S
N1143 C1141 1.384 . S
H1144 C1150 0.930 . S
H1145 C1154 0.930 . S
H1146 C1159 0.929 . S
H1147 C1157 0.929 . S
H1148 C1152 0.929 . S
H1149 C1158 0.929 . S
C1150 H1144 0.930 . S
C1150 C1151 1.367 1_545 S
C1150 C1158 1.378 . S
C1151 C1150 1.367 1_565 S
C1151 C1159 1.433 . S
C1152 H1148 0.929 . S
C1152 C1154 1.378 . S
C1152 C1156 1.350 . S
C1153 C1156 1.463 . S
C1153 C1158 1.350 1_565 S
C1153 N1161 1.427 . S
C1154 H1145 0.930 . S
C1154 C1152 1.378 . S
C1154 C1155 1.367 . S
C1155 C1154 1.367 . S
C1155 C1157 1.433 1_565 S
C1156 C1152 1.350 . S
C1156 C1153 1.463 . S
C1156 N1160 1.427 1_565 S
C1157 H1147 0.929 . S
C1157 C1155 1.433 1_545 S
C1157 N1160 1.384 . S
C1158 H1149 0.929 . S
C1158 C1150 1.378 . S
C1158 C1153 1.350 1_545 S
C1159 H1146 0.929 . S
C1159 C1151 1.433 . S
C1159 N1161 1.384 . S
N1160 C1156 1.427 1_545 S
N1160 C1157 1.384 . S
N1161 C1153 1.427 . S
N1161 C1159 1.384 . S
H1162 C1168 0.930 . S
H1163 C1172 0.930 . S
H1164 C1177 0.929 . S
H1165 C1175 0.929 . S
H1166 C1170 0.929 . S
H1167 C1176 0.929 . S
C1168 H1162 0.930 . S
C1168 C1169 1.367 . S
C1168 C1176 1.378 . S
C1169 C1168 1.367 . S
C1169 C1177 1.433 . S
C1170 H1166 0.929 . S
C1170 C1172 1.378 . S
C1170 C1174 1.350 . S
C1171 C1174 1.463 . S
C1171 C1176 1.350 . S
C1171 N1179 1.427 . S
C1172 H1163 0.930 . S
C1172 C1170 1.378 . S
C1172 C1173 1.367 . S
C1173 C1172 1.367 . S
C1173 C1175 1.433 . S
C1174 C1170 1.350 . S
C1174 C1171 1.463 . S
C1174 N1178 1.427 . S
C1175 H1165 0.929 . S
C1175 C1173 1.433 . S
C1175 N1178 1.384 . S
C1176 H1167 0.929 . S
C1176 C1168 1.378 . S
C1176 C1171 1.350 . S
C1177 H1164 0.929 . S
C1177 C1169 1.433 . S
C1177 N1179 1.384 . S
N1178 C1174 1.427 . S
N1178 C1175 1.384 . S
N1179 C1171 1.427 . S
N1179 C1177 1.384 . S
H1180 C1186 0.930 . S
H1181 C1190 0.930 . S
H1182 C1195 0.929 . S
H1183 C1193 0.929 . S
H1184 C1188 0.929 . S
H1185 C1194 0.929 . S
C1186 H1180 0.930 . S
C1186 C1187 1.367 . S
C1186 C1194 1.378 . S
C1187 C1186 1.367 . S
C1187 C1195 1.433 1_545 S
C1188 H1184 0.929 . S
C1188 C1190 1.378 . S
C1188 C1192 1.350 1_565 S
C1189 C1192 1.463 . S
C1189 C1194 1.350 . S
C1189 N1197 1.427 1_545 S
C1190 H1181 0.930 . S
C1190 C1188 1.378 . S
C1190 C1191 1.367 1_565 S
C1191 C1190 1.367 1_545 S
C1191 C1193 1.433 . S
C1192 C1188 1.350 1_545 S
C1192 C1189 1.463 . S
C1192 N1196 1.427 . S
C1193 H1183 0.929 . S
C1193 C1191 1.433 . S
C1193 N1196 1.384 . S
C1194 H1185 0.929 . S
C1194 C1186 1.378 . S
C1194 C1189 1.350 . S
C1195 H1182 0.929 . S
C1195 C1187 1.433 1_565 S
C1195 N1197 1.384 . S
N1196 C1192 1.427 . S
N1196 C1193 1.384 . S
N1197 C1189 1.427 1_565 S
N1197 C1195 1.384 . S
H1198 C1204 0.930 . S
H1199 C1208 0.930 . S
H1200 C1213 0.929 . S
H1201 C1211 0.929 . S
H1202 C1206 0.929 . S
H1203 C1212 0.929 . S
C1204 H1198 0.930 . S
C1204 C1205 1.367 . S
C1204 C1212 1.378 . S
C1205 C1204 1.367 . S
C1205 C1213 1.433 . S
C1206 H1202 0.929 . S
C1206 C1208 1.378 . S
C1206 C1210 1.350 . S
C1207 C1210 1.463 . S
C1207 C1212 1.350 . S
C1207 N1215 1.427 . S
C1208 H1199 0.930 . S
C1208 C1206 1.378 . S
C1208 C1209 1.367 . S
C1209 C1208 1.367 . S
C1209 C1211 1.433 . S
C1210 C1206 1.350 . S
C1210 C1207 1.463 . S
C1210 N1214 1.427 . S
C1211 H1201 0.929 . S
C1211 C1209 1.433 . S
C1211 N1214 1.384 . S
C1212 H1203 0.929 . S
C1212 C1204 1.378 . S
C1212 C1207 1.350 . S
C1213 H1200 0.929 . S
C1213 C1205 1.433 . S
C1213 N1215 1.384 . S
N1214 C1210 1.427 . S
N1214 C1211 1.384 . S
N1215 C1207 1.427 . S
N1215 C1213 1.384 . S
H1216 C1222 0.930 . S
H1217 C1226 0.930 . S
H1218 C1231 0.929 . S
H1219 C1229 0.929 . S
H1220 C1224 0.929 . S
H1221 C1230 0.929 . S
C1222 H1216 0.930 . S
C1222 C1223 1.367 . S
C1222 C1230 1.378 . S
C1223 C1222 1.367 . S
C1223 C1231 1.433 . S
C1224 H1220 0.929 . S
C1224 C1226 1.378 . S
C1224 C1228 1.350 . S
C1225 C1228 1.463 . S
C1225 C1230 1.350 . S
C1225 N1233 1.427 . S
C1226 H1217 0.930 . S
C1226 C1224 1.378 . S
C1226 C1227 1.367 . S
C1227 C1226 1.367 . S
C1227 C1229 1.433 . S
C1228 C1224 1.350 . S
C1228 C1225 1.463 . S
C1228 N1232 1.427 . S
C1229 H1219 0.929 . S
C1229 C1227 1.433 . S
C1229 N1232 1.384 . S
C1230 H1221 0.929 . S
C1230 C1222 1.378 . S
C1230 C1225 1.350 . S
C1231 H1218 0.929 . S
C1231 C1223 1.433 . S
C1231 N1233 1.384 . S
N1232 C1228 1.427 . S
N1232 C1229 1.384 . S
N1233 C1225 1.427 . S
N1233 C1231 1.384 . S
H1234 C1240 0.930 . S
H1235 C1244 0.930 . S
H1236 C1249 0.929 . S
H1237 C1247 0.929 . S
H1238 C1242 0.929 . S
H1239 C1248 0.929 . S
C1240 H1234 0.930 . S
C1240 C1241 1.367 . S
C1240 C1248 1.378 . S
C1241 C1240 1.367 . S
C1241 C1249 1.433 . S
C1242 H1238 0.929 . S
C1242 C1244 1.378 . S
C1242 C1246 1.350 . S
C1243 C1246 1.463 . S
C1243 C1248 1.350 . S
C1243 N1251 1.427 . S
C1244 H1235 0.930 . S
C1244 C1242 1.378 . S
C1244 C1245 1.367 . S
C1245 C1244 1.367 . S
C1245 C1247 1.433 . S
C1246 C1242 1.350 . S
C1246 C1243 1.463 . S
C1246 N1250 1.427 . S
C1247 H1237 0.929 . S
C1247 C1245 1.433 . S
C1247 N1250 1.384 . S
C1248 H1239 0.929 . S
C1248 C1240 1.378 . S
C1248 C1243 1.350 . S
C1249 H1236 0.929 . S
C1249 C1241 1.433 . S
C1249 N1251 1.384 . S
N1250 C1246 1.427 . S
N1250 C1247 1.384 . S
N1251 C1243 1.427 . S
N1251 C1249 1.384 . S
H1252 C1258 0.930 . S
H1253 C1262 0.930 . S
H1254 C1267 0.929 . S
H1255 C1265 0.929 . S
H1256 C1260 0.929 . S
H1257 C1266 0.929 . S
C1258 H1252 0.930 . S
C1258 C1259 1.367 . S
C1258 C1266 1.378 . S
C1259 C1258 1.367 . S
C1259 C1267 1.433 . S
C1260 H1256 0.929 . S
C1260 C1262 1.378 . S
C1260 C1264 1.350 . S
C1261 C1264 1.463 . S
C1261 C1266 1.350 . S
C1261 N1269 1.427 . S
C1262 H1253 0.930 . S
C1262 C1260 1.378 . S
C1262 C1263 1.367 . S
C1263 C1262 1.367 . S
C1263 C1265 1.433 . S
C1264 C1260 1.350 . S
C1264 C1261 1.463 . S
C1264 N1268 1.427 . S
C1265 H1255 0.929 . S
C1265 C1263 1.433 . S
C1265 N1268 1.384 . S
C1266 H1257 0.929 . S
C1266 C1258 1.378 . S
C1266 C1261 1.350 . S
C1267 H1254 0.929 . S
C1267 C1259 1.433 . S
C1267 N1269 1.384 . S
N1268 C1264 1.427 . S
N1268 C1265 1.384 . S
N1269 C1261 1.427 . S
N1269 C1267 1.384 . S
H1270 C1276 0.930 . S
H1271 C1280 0.930 . S
H1272 C1285 0.929 . S
H1273 C1283 0.929 . S
H1274 C1278 0.929 . S
H1275 C1284 0.929 . S
C1276 H1270 0.930 . S
C1276 C1277 1.367 . S
C1276 C1284 1.378 . S
C1277 C1276 1.367 . S
C1277 C1285 1.433 . S
C1278 H1274 0.929 . S
C1278 C1280 1.378 . S
C1278 C1282 1.350 . S
C1279 C1282 1.463 . S
C1279 C1284 1.350 . S
C1279 N1287 1.427 . S
C1280 H1271 0.930 . S
C1280 C1278 1.378 . S
C1280 C1281 1.367 . S
C1281 C1280 1.367 . S
C1281 C1283 1.433 . S
C1282 C1278 1.350 . S
C1282 C1279 1.463 . S
C1282 N1286 1.427 . S
C1283 H1273 0.929 . S
C1283 C1281 1.433 . S
C1283 N1286 1.384 . S
C1284 H1275 0.929 . S
C1284 C1276 1.378 . S
C1284 C1279 1.350 . S
C1285 H1272 0.929 . S
C1285 C1277 1.433 . S
C1285 N1287 1.384 . S
N1286 C1282 1.427 . S
N1286 C1283 1.384 . S
N1287 C1279 1.427 . S
N1287 C1285 1.384 . S
H1288 C1294 0.930 . S
H1289 C1298 0.930 . S
H1290 C1303 0.929 . S
H1291 C1301 0.929 . S
H1292 C1296 0.929 . S
H1293 C1302 0.929 . S
C1294 H1288 0.930 . S
C1294 C1295 1.367 . S
C1294 C1302 1.378 . S
C1295 C1294 1.367 . S
C1295 C1303 1.433 . S
C1296 H1292 0.929 . S
C1296 C1298 1.378 . S
C1296 C1300 1.350 . S
C1297 C1300 1.463 . S
C1297 C1302 1.350 . S
C1297 N1305 1.427 . S
C1298 H1289 0.930 . S
C1298 C1296 1.378 . S
C1298 C1299 1.367 . S
C1299 C1298 1.367 . S
C1299 C1301 1.433 . S
C1300 C1296 1.350 . S
C1300 C1297 1.463 . S
C1300 N1304 1.427 . S
C1301 H1291 0.929 . S
C1301 C1299 1.433 . S
C1301 N1304 1.384 . S
C1302 H1293 0.929 . S
C1302 C1294 1.378 . S
C1302 C1297 1.350 . S
C1303 H1290 0.929 . S
C1303 C1295 1.433 . S
C1303 N1305 1.384 . S
N1304 C1300 1.427 . S
N1304 C1301 1.384 . S
N1305 C1297 1.427 . S
N1305 C1303 1.384 . S
H1306 C1312 0.930 . S
H1307 C1316 0.930 . S
H1308 C1321 0.929 . S
H1309 C1319 0.929 . S
H1310 C1314 0.929 . S
H1311 C1320 0.929 . S
C1312 H1306 0.930 . S
C1312 C1313 1.367 . S
C1312 C1320 1.378 . S
C1313 C1312 1.367 . S
C1313 C1321 1.433 . S
C1314 H1310 0.929 . S
C1314 C1316 1.378 . S
C1314 C1318 1.350 . S
C1315 C1318 1.463 . S
C1315 C1320 1.350 . S
C1315 N1323 1.427 . S
C1316 H1307 0.930 . S
C1316 C1314 1.378 . S
C1316 C1317 1.367 . S
C1317 C1316 1.367 . S
C1317 C1319 1.433 . S
C1318 C1314 1.350 . S
C1318 C1315 1.463 . S
C1318 N1322 1.427 . S
C1319 H1309 0.929 . S
C1319 C1317 1.433 . S
C1319 N1322 1.384 . S
C1320 H1311 0.929 . S
C1320 C1312 1.378 . S
C1320 C1315 1.350 . S
C1321 H1308 0.929 . S
C1321 C1313 1.433 . S
C1321 N1323 1.384 . S
N1322 C1318 1.427 . S
N1322 C1319 1.384 . S
N1323 C1315 1.427 . S
N1323 C1321 1.384 . S
H1324 C1330 0.930 . S
H1325 C1334 0.930 . S
H1326 C1339 0.929 . S
H1327 C1337 0.929 . S
H1328 C1332 0.929 . S
H1329 C1338 0.929 . S
C1330 H1324 0.930 . S
C1330 C1331 1.367 . S
C1330 C1338 1.378 . S
C1331 C1330 1.367 . S
C1331 C1339 1.433 . S
C1332 H1328 0.929 . S
C1332 C1334 1.378 . S
C1332 C1336 1.350 . S
C1333 C1336 1.463 . S
C1333 C1338 1.350 . S
C1333 N1341 1.427 . S
C1334 H1325 0.930 . S
C1334 C1332 1.378 . S
C1334 C1335 1.367 . S
C1335 C1334 1.367 . S
C1335 C1337 1.433 . S
C1336 C1332 1.350 . S
C1336 C1333 1.463 . S
C1336 N1340 1.427 . S
C1337 H1327 0.929 . S
C1337 C1335 1.433 . S
C1337 N1340 1.384 . S
C1338 H1329 0.929 . S
C1338 C1330 1.378 . S
C1338 C1333 1.350 . S
C1339 H1326 0.929 . S
C1339 C1331 1.433 . S
C1339 N1341 1.384 . S
N1340 C1336 1.427 . S
N1340 C1337 1.384 . S
N1341 C1333 1.427 . S
N1341 C1339 1.384 . S
H1342 C1348 0.930 . S
H1343 C1352 0.930 . S
H1344 C1357 0.929 . S
H1345 C1355 0.929 . S
H1346 C1350 0.929 . S
H1347 C1356 0.929 . S
C1348 H1342 0.930 . S
C1348 C1349 1.367 . S
C1348 C1356 1.378 . S
C1349 C1348 1.367 . S
C1349 C1357 1.433 . S
C1350 H1346 0.929 . S
C1350 C1352 1.378 . S
C1350 C1354 1.350 . S
C1351 C1354 1.463 . S
C1351 C1356 1.350 . S
C1351 N1359 1.427 . S
C1352 H1343 0.930 . S
C1352 C1350 1.378 . S
C1352 C1353 1.367 . S
C1353 C1352 1.367 . S
C1353 C1355 1.433 . S
C1354 C1350 1.350 . S
C1354 C1351 1.463 . S
C1354 N1358 1.427 . S
C1355 H1345 0.929 . S
C1355 C1353 1.433 . S
C1355 N1358 1.384 . S
C1356 H1347 0.929 . S
C1356 C1348 1.378 . S
C1356 C1351 1.350 . S
C1357 H1344 0.929 . S
C1357 C1349 1.433 . S
C1357 N1359 1.384 . S
N1358 C1354 1.427 . S
N1358 C1355 1.384 . S
N1359 C1351 1.427 . S
N1359 C1357 1.384 . S
H1360 C1366 0.930 . S
H1361 C1370 0.930 . S
H1362 C1375 0.929 . S
H1363 C1373 0.929 . S
H1364 C1368 0.929 . S
H1365 C1374 0.929 . S
C1366 H1360 0.930 . S
C1366 C1367 1.367 . S
C1366 C1374 1.378 . S
C1367 C1366 1.367 . S
C1367 C1375 1.433 . S
C1368 H1364 0.929 . S
C1368 C1370 1.378 . S
C1368 C1372 1.350 . S
C1369 C1372 1.463 . S
C1369 C1374 1.350 . S
C1369 N1377 1.427 . S
C1370 H1361 0.930 . S
C1370 C1368 1.378 . S
C1370 C1371 1.367 . S
C1371 C1370 1.367 . S
C1371 C1373 1.433 . S
C1372 C1368 1.350 . S
C1372 C1369 1.463 . S
C1372 N1376 1.427 . S
C1373 H1363 0.929 . S
C1373 C1371 1.433 . S
C1373 N1376 1.384 . S
C1374 H1365 0.929 . S
C1374 C1366 1.378 . S
C1374 C1369 1.350 . S
C1375 H1362 0.929 . S
C1375 C1367 1.433 . S
C1375 N1377 1.384 . S
N1376 C1372 1.427 . S
N1376 C1373 1.384 . S
N1377 C1369 1.427 . S
N1377 C1375 1.384 . S
H1378 C1384 0.930 . S
H1379 C1388 0.930 . S
H1380 C1393 0.929 . S
H1381 C1391 0.929 . S
H1382 C1386 0.929 . S
H1383 C1392 0.929 . S
C1384 H1378 0.930 . S
C1384 C1385 1.367 . S
C1384 C1392 1.378 . S
C1385 C1384 1.367 . S
C1385 C1393 1.433 . S
C1386 H1382 0.929 . S
C1386 C1388 1.378 . S
C1386 C1390 1.350 . S
C1387 C1390 1.463 . S
C1387 C1392 1.350 . S
C1387 N1395 1.427 . S
C1388 H1379 0.930 . S
C1388 C1386 1.378 . S
C1388 C1389 1.367 . S
C1389 C1388 1.367 . S
C1389 C1391 1.433 . S
C1390 C1386 1.350 . S
C1390 C1387 1.463 . S
C1390 N1394 1.427 . S
C1391 H1381 0.929 . S
C1391 C1389 1.433 . S
C1391 N1394 1.384 . S
C1392 H1383 0.929 . S
C1392 C1384 1.378 . S
C1392 C1387 1.350 . S
C1393 H1380 0.929 . S
C1393 C1385 1.433 . S
C1393 N1395 1.384 . S
N1394 C1390 1.427 . S
N1394 C1391 1.384 . S
N1395 C1387 1.427 . S
N1395 C1393 1.384 . S
H1396 C1402 0.930 . S
H1397 C1406 0.930 . S
H1398 C1411 0.929 . S
H1399 C1409 0.929 . S
H1400 C1404 0.929 . S
H1401 C1410 0.929 . S
C1402 H1396 0.930 . S
C1402 C1403 1.367 . S
C1402 C1410 1.378 . S
C1403 C1402 1.367 . S
C1403 C1411 1.433 . S
C1404 H1400 0.929 . S
C1404 C1406 1.378 . S
C1404 C1408 1.350 . S
C1405 C1408 1.463 . S
C1405 C1410 1.350 . S
C1405 N1413 1.427 . S
C1406 H1397 0.930 . S
C1406 C1404 1.378 . S
C1406 C1407 1.367 . S
C1407 C1406 1.367 . S
C1407 C1409 1.433 . S
C1408 C1404 1.350 . S
C1408 C1405 1.463 . S
C1408 N1412 1.427 . S
C1409 H1399 0.929 . S
C1409 C1407 1.433 . S
C1409 N1412 1.384 . S
C1410 H1401 0.929 . S
C1410 C1402 1.378 . S
C1410 C1405 1.350 . S
C1411 H1398 0.929 . S
C1411 C1403 1.433 . S
C1411 N1413 1.384 . S
N1412 C1408 1.427 . S
N1412 C1409 1.384 . S
N1413 C1405 1.427 . S
N1413 C1411 1.384 . S
H1414 C1420 0.930 . S
H1415 C1424 0.930 . S
H1416 C1429 0.929 . S
H1417 C1427 0.929 . S
H1418 C1422 0.929 . S
H1419 C1428 0.929 . S
C1420 H1414 0.930 . S
C1420 C1421 1.367 . S
C1420 C1428 1.378 . S
C1421 C1420 1.367 . S
C1421 C1429 1.433 . S
C1422 H1418 0.929 . S
C1422 C1424 1.378 . S
C1422 C1426 1.350 . S
C1423 C1426 1.463 . S
C1423 C1428 1.350 . S
C1423 N1431 1.427 . S
C1424 H1415 0.930 . S
C1424 C1422 1.378 . S
C1424 C1425 1.367 . S
C1425 C1424 1.367 . S
C1425 C1427 1.433 . S
C1426 C1422 1.350 . S
C1426 C1423 1.463 . S
C1426 N1430 1.427 . S
C1427 H1417 0.929 . S
C1427 C1425 1.433 . S
C1427 N1430 1.384 . S
C1428 H1419 0.929 . S
C1428 C1420 1.378 . S
C1428 C1423 1.350 . S
C1429 H1416 0.929 . S
C1429 C1421 1.433 . S
C1429 N1431 1.384 . S
N1430 C1426 1.427 . S
N1430 C1427 1.384 . S
N1431 C1423 1.427 . S
N1431 C1429 1.384 . S
H1432 C1438 0.930 . S
H1433 C1442 0.930 . S
H1434 C1447 0.929 . S
H1435 C1445 0.929 . S
H1436 C1440 0.929 . S
H1437 C1446 0.929 . S
C1438 H1432 0.930 . S
C1438 C1439 1.367 . S
C1438 C1446 1.378 . S
C1439 C1438 1.367 . S
C1439 C1447 1.433 . S
C1440 H1436 0.929 . S
C1440 C1442 1.378 . S
C1440 C1444 1.350 . S
C1441 C1444 1.463 . S
C1441 C1446 1.350 . S
C1441 N1449 1.427 . S
C1442 H1433 0.930 . S
C1442 C1440 1.378 . S
C1442 C1443 1.367 . S
C1443 C1442 1.367 . S
C1443 C1445 1.433 . S
C1444 C1440 1.350 . S
C1444 C1441 1.463 . S
C1444 N1448 1.427 . S
C1445 H1435 0.929 . S
C1445 C1443 1.433 . S
C1445 N1448 1.384 . S
C1446 H1437 0.929 . S
C1446 C1438 1.378 . S
C1446 C1441 1.350 . S
C1447 H1434 0.929 . S
C1447 C1439 1.433 . S
C1447 N1449 1.384 . S
N1448 C1444 1.427 . S
N1448 C1445 1.384 . S
N1449 C1441 1.427 . S
N1449 C1447 1.384 . S
H1450 C1456 0.930 . S
H1451 C1460 0.930 . S
H1452 C1465 0.929 . S
H1453 C1463 0.929 . S
H1454 C1458 0.929 . S
H1455 C1464 0.929 . S
C1456 H1450 0.930 . S
C1456 C1457 1.367 . S
C1456 C1464 1.378 . S
C1457 C1456 1.367 . S
C1457 C1465 1.433 . S
C1458 H1454 0.929 . S
C1458 C1460 1.378 . S
C1458 C1462 1.350 . S
C1459 C1462 1.463 . S
C1459 C1464 1.350 . S
C1459 N1467 1.427 . S
C1460 H1451 0.930 . S
C1460 C1458 1.378 . S
C1460 C1461 1.367 . S
C1461 C1460 1.367 . S
C1461 C1463 1.433 . S
C1462 C1458 1.350 . S
C1462 C1459 1.463 . S
C1462 N1466 1.427 . S
C1463 H1453 0.929 . S
C1463 C1461 1.433 . S
C1463 N1466 1.384 . S
C1464 H1455 0.929 . S
C1464 C1456 1.378 . S
C1464 C1459 1.350 . S
C1465 H1452 0.929 . S
C1465 C1457 1.433 . S
C1465 N1467 1.384 . S
N1466 C1462 1.427 . S
N1466 C1463 1.384 . S
N1467 C1459 1.427 . S
N1467 C1465 1.384 . S
H1468 C1474 0.930 . S
H1469 C1478 0.930 . S
H1470 C1483 0.929 . S
H1471 C1481 0.929 . S
H1472 C1476 0.929 . S
H1473 C1482 0.929 . S
C1474 H1468 0.930 . S
C1474 C1475 1.367 . S
C1474 C1482 1.378 . S
C1475 C1474 1.367 . S
C1475 C1483 1.433 . S
C1476 H1472 0.929 . S
C1476 C1478 1.378 . S
C1476 C1480 1.350 . S
C1477 C1480 1.463 . S
C1477 C1482 1.350 . S
C1477 N1485 1.427 . S
C1478 H1469 0.930 . S
C1478 C1476 1.378 . S
C1478 C1479 1.367 . S
C1479 C1478 1.367 . S
C1479 C1481 1.433 . S
C1480 C1476 1.350 . S
C1480 C1477 1.463 . S
C1480 N1484 1.427 . S
C1481 H1471 0.929 . S
C1481 C1479 1.433 . S
C1481 N1484 1.384 . S
C1482 H1473 0.929 . S
C1482 C1474 1.378 . S
C1482 C1477 1.350 . S
C1483 H1470 0.929 . S
C1483 C1475 1.433 . S
C1483 N1485 1.384 . S
N1484 C1480 1.427 . S
N1484 C1481 1.384 . S
N1485 C1477 1.427 . S
N1485 C1483 1.384 . S
H1486 C1492 0.930 . S
H1487 C1496 0.930 . S
H1488 C1501 0.929 . S
H1489 C1499 0.929 . S
H1490 C1494 0.929 . S
H1491 C1500 0.929 . S
C1492 H1486 0.930 . S
C1492 C1493 1.367 . S
C1492 C1500 1.378 . S
C1493 C1492 1.367 . S
C1493 C1501 1.433 . S
C1494 H1490 0.929 . S
C1494 C1496 1.378 . S
C1494 C1498 1.350 . S
C1495 C1498 1.463 . S
C1495 C1500 1.350 . S
C1495 N1503 1.427 . S
C1496 H1487 0.930 . S
C1496 C1494 1.378 . S
C1496 C1497 1.367 . S
C1497 C1496 1.367 . S
C1497 C1499 1.433 . S
C1498 C1494 1.350 . S
C1498 C1495 1.463 . S
C1498 N1502 1.427 . S
C1499 H1489 0.929 . S
C1499 C1497 1.433 . S
C1499 N1502 1.384 . S
C1500 H1491 0.929 . S
C1500 C1492 1.378 . S
C1500 C1495 1.350 . S
C1501 H1488 0.929 . S
C1501 C1493 1.433 . S
C1501 N1503 1.384 . S
N1502 C1498 1.427 . S
N1502 C1499 1.384 . S
N1503 C1495 1.427 . S
N1503 C1501 1.384 . S
H1504 C1510 0.930 . S
H1505 C1514 0.930 . S
H1506 C1519 0.929 . S
H1507 C1517 0.929 . S
H1508 C1512 0.929 . S
H1509 C1518 0.929 . S
C1510 H1504 0.930 . S
C1510 C1511 1.367 . S
C1510 C1518 1.378 . S
C1511 C1510 1.367 . S
C1511 C1519 1.433 . S
C1512 H1508 0.929 . S
C1512 C1514 1.378 . S
C1512 C1516 1.350 . S
C1513 C1516 1.463 . S
C1513 C1518 1.350 . S
C1513 N1521 1.427 . S
C1514 H1505 0.930 . S
C1514 C1512 1.378 . S
C1514 C1515 1.367 . S
C1515 C1514 1.367 . S
C1515 C1517 1.433 . S
C1516 C1512 1.350 . S
C1516 C1513 1.463 . S
C1516 N1520 1.427 . S
C1517 H1507 0.929 . S
C1517 C1515 1.433 . S
C1517 N1520 1.384 . S
C1518 H1509 0.929 . S
C1518 C1510 1.378 . S
C1518 C1513 1.350 . S
C1519 H1506 0.929 . S
C1519 C1511 1.433 . S
C1519 N1521 1.384 . S
N1520 C1516 1.427 . S
N1520 C1517 1.384 . S
N1521 C1513 1.427 . S
N1521 C1519 1.384 . S
H1522 C1528 0.930 . S
H1523 C1532 0.930 . S
H1524 C1537 0.929 . S
H1525 C1535 0.929 . S
H1526 C1530 0.929 . S
H1527 C1536 0.929 . S
C1528 H1522 0.930 . S
C1528 C1529 1.367 . S
C1528 C1536 1.378 . S
C1529 C1528 1.367 . S
C1529 C1537 1.433 . S
C1530 H1526 0.929 . S
C1530 C1532 1.378 . S
C1530 C1534 1.350 . S
C1531 C1534 1.463 . S
C1531 C1536 1.350 . S
C1531 N1539 1.427 . S
C1532 H1523 0.930 . S
C1532 C1530 1.378 . S
C1532 C1533 1.367 . S
C1533 C1532 1.367 . S
C1533 C1535 1.433 . S
C1534 C1530 1.350 . S
C1534 C1531 1.463 . S
C1534 N1538 1.427 . S
C1535 H1525 0.929 . S
C1535 C1533 1.433 . S
C1535 N1538 1.384 . S
C1536 H1527 0.929 . S
C1536 C1528 1.378 . S
C1536 C1531 1.350 . S
C1537 H1524 0.929 . S
C1537 C1529 1.433 . S
C1537 N1539 1.384 . S
N1538 C1534 1.427 . S
N1538 C1535 1.384 . S
N1539 C1531 1.427 . S
N1539 C1537 1.384 . S
H1540 C1546 0.930 . S
H1541 C1550 0.930 . S
H1542 C1555 0.929 . S
H1543 C1553 0.929 . S
H1544 C1548 0.929 . S
H1545 C1554 0.929 . S
C1546 H1540 0.930 . S
C1546 C1547 1.367 . S
C1546 C1554 1.378 . S
C1547 C1546 1.367 . S
C1547 C1555 1.433 . S
C1548 H1544 0.929 . S
C1548 C1550 1.378 . S
C1548 C1552 1.350 . S
C1549 C1552 1.463 . S
C1549 C1554 1.350 . S
C1549 N1557 1.427 . S
C1550 H1541 0.930 . S
C1550 C1548 1.378 . S
C1550 C1551 1.367 . S
C1551 C1550 1.367 . S
C1551 C1553 1.433 . S
C1552 C1548 1.350 . S
C1552 C1549 1.463 . S
C1552 N1556 1.427 . S
C1553 H1543 0.929 . S
C1553 C1551 1.433 . S
C1553 N1556 1.384 . S
C1554 H1545 0.929 . S
C1554 C1546 1.378 . S
C1554 C1549 1.350 . S
C1555 H1542 0.929 . S
C1555 C1547 1.433 . S
C1555 N1557 1.384 . S
N1556 C1552 1.427 . S
N1556 C1553 1.384 . S
N1557 C1549 1.427 . S
N1557 C1555 1.384 . S
H1558 C1564 0.930 . S
H1559 C1568 0.930 . S
H1560 C1573 0.929 . S
H1561 C1571 0.929 . S
H1562 C1566 0.929 . S
H1563 C1572 0.929 . S
C1564 H1558 0.930 . S
C1564 C1565 1.367 . S
C1564 C1572 1.378 . S
C1565 C1564 1.367 . S
C1565 C1573 1.433 . S
C1566 H1562 0.929 . S
C1566 C1568 1.378 . S
C1566 C1570 1.350 . S
C1567 C1570 1.463 . S
C1567 C1572 1.350 . S
C1567 N1575 1.427 . S
C1568 H1559 0.930 . S
C1568 C1566 1.378 . S
C1568 C1569 1.367 . S
C1569 C1568 1.367 . S
C1569 C1571 1.433 . S
C1570 C1566 1.350 . S
C1570 C1567 1.463 . S
C1570 N1574 1.427 . S
C1571 H1561 0.929 . S
C1571 C1569 1.433 . S
C1571 N1574 1.384 . S
C1572 H1563 0.929 . S
C1572 C1564 1.378 . S
C1572 C1567 1.350 . S
C1573 H1560 0.929 . S
C1573 C1565 1.433 . S
C1573 N1575 1.384 . S
N1574 C1570 1.427 . S
N1574 C1571 1.384 . S
N1575 C1567 1.427 . S
N1575 C1573 1.384 . S
H1576 C1582 0.930 . S
H1577 C1586 0.930 . S
H1578 C1591 0.929 . S
H1579 C1589 0.929 . S
H1580 C1584 0.929 . S
H1581 C1590 0.929 . S
C1582 H1576 0.930 . S
C1582 C1583 1.367 . S
C1582 C1590 1.378 . S
C1583 C1582 1.367 . S
C1583 C1591 1.433 . S
C1584 H1580 0.929 . S
C1584 C1586 1.378 . S
C1584 C1588 1.350 . S
C1585 C1588 1.463 . S
C1585 C1590 1.350 . S
C1585 N1593 1.427 . S
C1586 H1577 0.930 . S
C1586 C1584 1.378 . S
C1586 C1587 1.367 . S
C1587 C1586 1.367 . S
C1587 C1589 1.433 . S
C1588 C1584 1.350 . S
C1588 C1585 1.463 . S
C1588 N1592 1.427 . S
C1589 H1579 0.929 . S
C1589 C1587 1.433 . S
C1589 N1592 1.384 . S
C1590 H1581 0.929 . S
C1590 C1582 1.378 . S
C1590 C1585 1.350 . S
C1591 H1578 0.929 . S
C1591 C1583 1.433 . S
C1591 N1593 1.384 . S
N1592 C1588 1.427 . S
N1592 C1589 1.384 . S
N1593 C1585 1.427 . S
N1593 C1591 1.384 . S
H1594 C1600 0.930 . S
H1595 C1604 0.930 . S
H1596 C1609 0.929 . S
H1597 C1607 0.929 . S
H1598 C1602 0.929 . S
H1599 C1608 0.929 . S
C1600 H1594 0.930 . S
C1600 C1601 1.367 . S
C1600 C1608 1.378 . S
C1601 C1600 1.367 . S
C1601 C1609 1.433 . S
C1602 H1598 0.929 . S
C1602 C1604 1.378 . S
C1602 C1606 1.350 . S
C1603 C1606 1.463 . S
C1603 C1608 1.350 . S
C1603 N1611 1.427 . S
C1604 H1595 0.930 . S
C1604 C1602 1.378 . S
C1604 C1605 1.367 . S
C1605 C1604 1.367 . S
C1605 C1607 1.433 . S
C1606 C1602 1.350 . S
C1606 C1603 1.463 . S
C1606 N1610 1.427 . S
C1607 H1597 0.929 . S
C1607 C1605 1.433 . S
C1607 N1610 1.384 . S
C1608 H1599 0.929 . S
C1608 C1600 1.378 . S
C1608 C1603 1.350 . S
C1609 H1596 0.929 . S
C1609 C1601 1.433 . S
C1609 N1611 1.384 . S
N1610 C1606 1.427 . S
N1610 C1607 1.384 . S
N1611 C1603 1.427 . S
N1611 C1609 1.384 . S
H1612 C1618 0.930 . S
H1613 C1622 0.930 . S
H1614 C1627 0.929 . S
H1615 C1625 0.929 . S
H1616 C1620 0.929 . S
H1617 C1626 0.929 . S
C1618 H1612 0.930 . S
C1618 C1619 1.367 . S
C1618 C1626 1.378 . S
C1619 C1618 1.367 . S
C1619 C1627 1.433 . S
C1620 H1616 0.929 . S
C1620 C1622 1.378 . S
C1620 C1624 1.350 . S
C1621 C1624 1.463 . S
C1621 C1626 1.350 . S
C1621 N1629 1.427 . S
C1622 H1613 0.930 . S
C1622 C1620 1.378 . S
C1622 C1623 1.367 . S
C1623 C1622 1.367 . S
C1623 C1625 1.433 . S
C1624 C1620 1.350 . S
C1624 C1621 1.463 . S
C1624 N1628 1.427 . S
C1625 H1615 0.929 . S
C1625 C1623 1.433 . S
C1625 N1628 1.384 . S
C1626 H1617 0.929 . S
C1626 C1618 1.378 . S
C1626 C1621 1.350 . S
C1627 H1614 0.929 . S
C1627 C1619 1.433 . S
C1627 N1629 1.384 . S
N1628 C1624 1.427 . S
N1628 C1625 1.384 . S
N1629 C1621 1.427 . S
N1629 C1627 1.384 . S
H1630 C1636 0.930 . S
H1631 C1640 0.930 . S
H1632 C1645 0.929 . S
H1633 C1643 0.929 . S
H1634 C1638 0.929 . S
H1635 C1644 0.929 . S
C1636 H1630 0.930 . S
C1636 C1637 1.367 . S
C1636 C1644 1.378 . S
C1637 C1636 1.367 . S
C1637 C1645 1.433 . S
C1638 H1634 0.929 . S
C1638 C1640 1.378 . S
C1638 C1642 1.350 . S
C1639 C1642 1.463 . S
C1639 C1644 1.350 . S
C1639 N1647 1.427 . S
C1640 H1631 0.930 . S
C1640 C1638 1.378 . S
C1640 C1641 1.367 . S
C1641 C1640 1.367 . S
C1641 C1643 1.433 . S
C1642 C1638 1.350 . S
C1642 C1639 1.463 . S
C1642 N1646 1.427 . S
C1643 H1633 0.929 . S
C1643 C1641 1.433 . S
C1643 N1646 1.384 . S
C1644 H1635 0.929 . S
C1644 C1636 1.378 . S
C1644 C1639 1.350 . S
C1645 H1632 0.929 . S
C1645 C1637 1.433 . S
C1645 N1647 1.384 . S
N1646 C1642 1.427 . S
N1646 C1643 1.384 . S
N1647 C1639 1.427 . S
N1647 C1645 1.384 . S
H1648 C1654 0.930 . S
H1649 C1658 0.930 . S
H1650 C1663 0.929 . S
H1651 C1661 0.929 . S
H1652 C1656 0.929 . S
H1653 C1662 0.929 . S
C1654 H1648 0.930 . S
C1654 C1655 1.367 . S
C1654 C1662 1.378 . S
C1655 C1654 1.367 . S
C1655 C1663 1.433 1_545 S
C1656 H1652 0.929 . S
C1656 C1658 1.378 . S
C1656 C1660 1.350 . S
C1657 C1660 1.463 1_545 S
C1657 C1662 1.347 . S
C1657 N1665 1.429 1_545 S
C1658 H1649 0.930 . S
C1658 C1656 1.378 . S
C1658 C1659 1.367 . S
C1659 C1658 1.367 . S
C1659 C1661 1.433 1_565 S
C1660 C1656 1.350 . S
C1660 C1657 1.463 1_565 S
C1660 N1664 1.427 1_565 S
C1661 H1651 0.929 . S
C1661 C1659 1.433 1_545 S
C1661 N1664 1.384 . S
C1662 H1653 0.929 . S
C1662 C1654 1.378 . S
C1662 C1657 1.347 . S
C1663 H1650 0.929 . S
C1663 C1655 1.433 1_565 S
C1663 N1665 1.384 . S
N1664 C1660 1.427 1_545 S
N1664 C1661 1.384 . S
N1665 C1657 1.429 1_565 S
N1665 C1663 1.384 . S
H1666 C1672 0.930 . S
H1667 C1676 0.930 . S
H1668 C1681 0.929 . S
H1669 C1679 0.929 . S
H1670 C1674 0.929 . S
H1671 C1680 0.929 . S
C1672 H1666 0.930 . S
C1672 C1673 1.367 . S
C1672 C1680 1.378 . S
C1673 C1672 1.367 . S
C1673 C1681 1.433 . S
C1674 H1670 0.929 . S
C1674 C1676 1.378 . S
C1674 C1678 1.350 . S
C1675 C1678 1.463 . S
C1675 C1680 1.350 . S
C1675 N1683 1.427 . S
C1676 H1667 0.930 . S
C1676 C1674 1.378 . S
C1676 C1677 1.367 . S
C1677 C1676 1.367 . S
C1677 C1679 1.433 . S
C1678 C1674 1.350 . S
C1678 C1675 1.463 . S
C1678 N1682 1.427 . S
C1679 H1669 0.929 . S
C1679 C1677 1.433 . S
C1679 N1682 1.384 . S
C1680 H1671 0.929 . S
C1680 C1672 1.378 . S
C1680 C1675 1.350 . S
C1681 H1668 0.929 . S
C1681 C1673 1.433 . S
C1681 N1683 1.384 . S
N1682 C1678 1.427 . S
N1682 C1679 1.384 . S
N1683 C1675 1.427 . S
N1683 C1681 1.384 . S
H1684 C1690 0.930 . S
H1685 C1694 0.930 . S
H1686 C1699 0.929 . S
H1687 C1697 0.929 . S
H1688 C1692 0.929 . S
H1689 C1698 0.929 . S
C1690 H1684 0.930 . S
C1690 C1691 1.367 . S
C1690 C1698 1.378 . S
C1691 C1690 1.367 . S
C1691 C1699 1.433 . S
C1692 H1688 0.929 . S
C1692 C1694 1.378 . S
C1692 C1696 1.350 . S
C1693 C1696 1.463 . S
C1693 C1698 1.350 . S
C1693 N1701 1.427 . S
C1694 H1685 0.930 . S
C1694 C1692 1.378 . S
C1694 C1695 1.367 . S
C1695 C1694 1.367 . S
C1695 C1697 1.433 . S
C1696 C1692 1.350 . S
C1696 C1693 1.463 . S
C1696 N1700 1.427 . S
C1697 H1687 0.929 . S
C1697 C1695 1.433 . S
C1697 N1700 1.384 . S
C1698 H1689 0.929 . S
C1698 C1690 1.378 . S
C1698 C1693 1.350 . S
C1699 H1686 0.929 . S
C1699 C1691 1.433 . S
C1699 N1701 1.384 . S
N1700 C1696 1.427 . S
N1700 C1697 1.384 . S
N1701 C1693 1.427 . S
N1701 C1699 1.384 . S
H1702 C1708 0.930 . S
H1703 C1712 0.930 . S
H1704 C1717 0.929 . S
H1705 C1715 0.929 . S
H1706 C1710 0.929 . S
H1707 C1716 0.929 . S
C1708 H1702 0.930 . S
C1708 C1709 1.367 1_565 S
C1708 C1716 1.378 . S
C1709 C1708 1.367 1_545 S
C1709 C1717 1.433 . S
C1710 H1706 0.929 . S
C1710 C1712 1.378 . S
C1710 C1714 1.350 1_545 S
C1711 C1714 1.463 . S
C1711 C1716 1.350 . S
C1711 N1719 1.427 1_565 S
C1712 H1703 0.930 . S
C1712 C1710 1.378 . S
C1712 C1713 1.367 1_545 S
C1713 C1712 1.367 1_565 S
C1713 C1715 1.433 . S
C1714 C1710 1.350 1_565 S
C1714 C1711 1.463 . S
C1714 N1718 1.427 . S
C1715 H1705 0.929 . S
C1715 C1713 1.433 . S
C1715 N1718 1.384 . S
C1716 H1707 0.929 . S
C1716 C1708 1.378 . S
C1716 C1711 1.350 . S
C1717 H1704 0.929 . S
C1717 C1709 1.433 . S
C1717 N1719 1.384 . S
N1718 C1714 1.427 . S
N1718 C1715 1.384 . S
N1719 C1711 1.427 1_545 S
N1719 C1717 1.384 . S
H1720 C1726 0.930 . S
H1721 C1730 0.930 . S
H1722 C1735 0.929 . S
H1723 C1733 0.929 . S
H1724 C1728 0.929 . S
H1725 C1734 0.929 . S
C1726 H1720 0.930 . S
C1726 C1727 1.367 1_545 S
C1726 C1734 1.378 . S
C1727 C1726 1.367 1_565 S
C1727 C1735 1.433 . S
C1728 H1724 0.929 . S
C1728 C1730 1.378 . S
C1728 C1732 1.350 1_565 S
C1729 C1732 1.467 . S
C1729 C1734 1.379 . S
C1729 N1737 1.393 1_545 S
C1730 H1721 0.930 . S
C1730 C1728 1.378 . S
C1730 C1731 1.367 1_565 S
C1731 C1730 1.367 1_545 S
C1731 C1733 1.433 . S
C1732 C1728 1.350 1_545 S
C1732 C1729 1.467 . S
C1732 N1736 1.427 . S
C1733 H1723 0.929 . S
C1733 C1731 1.433 . S
C1733 N1736 1.384 . S
C1734 H1725 0.929 . S
C1734 C1726 1.378 . S
C1734 C1729 1.379 . S
C1735 H1722 0.929 . S
C1735 C1727 1.433 . S
C1735 N1737 1.384 . S
N1736 C1732 1.427 . S
N1736 C1733 1.384 . S
N1737 C1729 1.393 1_565 S
N1737 C1735 1.384 . S
H1738 C1744 0.930 . S
H1739 C1748 0.930 . S
H1740 C1753 0.929 . S
H1741 C1751 0.929 . S
H1742 C1746 0.929 . S
H1743 C1752 0.929 . S
C1744 H1738 0.930 . S
C1744 C1745 1.367 . S
C1744 C1752 1.378 . S
C1745 C1744 1.367 . S
C1745 C1753 1.433 . S
C1746 H1742 0.929 . S
C1746 C1748 1.378 . S
C1746 C1750 1.350 . S
C1747 C1750 1.463 . S
C1747 C1752 1.350 . S
C1747 N1755 1.427 . S
C1748 H1739 0.930 . S
C1748 C1746 1.378 . S
C1748 C1749 1.367 . S
C1749 C1748 1.367 . S
C1749 C1751 1.433 . S
C1750 C1746 1.350 . S
C1750 C1747 1.463 . S
C1750 N1754 1.427 . S
C1751 H1741 0.929 . S
C1751 C1749 1.433 . S
C1751 N1754 1.384 . S
C1752 H1743 0.929 . S
C1752 C1744 1.378 . S
C1752 C1747 1.350 . S
C1753 H1740 0.929 . S
C1753 C1745 1.433 . S
C1753 N1755 1.384 . S
N1754 C1750 1.427 . S
N1754 C1751 1.384 . S
N1755 C1747 1.427 . S
N1755 C1753 1.384 . S
H1756 C1762 0.930 . S
H1757 C1766 0.930 . S
H1758 C1771 0.929 . S
H1759 C1769 0.929 . S
H1760 C1764 0.929 . S
H1761 C1770 0.929 . S
C1762 H1756 0.930 . S
C1762 C1763 1.367 . S
C1762 C1770 1.378 . S
C1763 C1762 1.367 . S
C1763 C1771 1.433 . S
C1764 H1760 0.929 . S
C1764 C1766 1.378 . S
C1764 C1768 1.350 . S
C1765 C1768 1.463 . S
C1765 C1770 1.350 . S
C1765 N1773 1.427 . S
C1766 H1757 0.930 . S
C1766 C1764 1.378 . S
C1766 C1767 1.367 . S
C1767 C1766 1.367 . S
C1767 C1769 1.433 . S
C1768 C1764 1.350 . S
C1768 C1765 1.463 . S
C1768 N1772 1.427 . S
C1769 H1759 0.929 . S
C1769 C1767 1.433 . S
C1769 N1772 1.384 . S
C1770 H1761 0.929 . S
C1770 C1762 1.378 . S
C1770 C1765 1.350 . S
C1771 H1758 0.929 . S
C1771 C1763 1.433 . S
C1771 N1773 1.384 . S
N1772 C1768 1.427 . S
N1772 C1769 1.384 . S
N1773 C1765 1.427 . S
N1773 C1771 1.384 . S
H1774 C1780 0.930 . S
H1775 C1784 0.930 . S
H1776 C1789 0.929 . S
H1777 C1787 0.929 . S
H1778 C1782 0.929 . S
H1779 C1788 0.929 . S
C1780 H1774 0.930 . S
C1780 C1781 1.367 . S
C1780 C1788 1.378 . S
C1781 C1780 1.367 . S
C1781 C1789 1.433 1_565 S
C1782 H1778 0.929 . S
C1782 C1784 1.378 . S
C1782 C1786 1.350 . S
C1783 C1786 1.463 . S
C1783 C1788 1.350 1_545 S
C1783 N1791 1.427 . S
C1784 H1775 0.930 . S
C1784 C1782 1.378 . S
C1784 C1785 1.367 . S
C1785 C1784 1.367 . S
C1785 C1787 1.433 1_545 S
C1786 C1782 1.350 . S
C1786 C1783 1.463 . S
C1786 N1790 1.427 1_545 S
C1787 H1777 0.929 . S
C1787 C1785 1.433 1_565 S
C1787 N1790 1.384 . S
C1788 H1779 0.929 . S
C1788 C1780 1.378 . S
C1788 C1783 1.350 1_565 S
C1789 H1776 0.929 . S
C1789 C1781 1.433 1_545 S
C1789 N1791 1.384 . S
N1790 C1786 1.427 1_565 S
N1790 C1787 1.384 . S
N1791 C1783 1.427 . S
N1791 C1789 1.384 . S
H1792 C1798 0.930 . S
H1793 C1802 0.930 . S
H1794 C1807 0.929 . S
H1795 C1805 0.929 . S
H1796 C1800 0.929 . S
H1797 C1806 0.929 . S
C1798 H1792 0.930 . S
C1798 C1799 1.367 . S
C1798 C1806 1.378 . S
C1799 C1798 1.367 . S
C1799 C1807 1.433 . S
C1800 H1796 0.929 . S
C1800 C1802 1.378 . S
C1800 C1804 1.350 . S
C1801 C1804 1.463 1_455 S
C1801 C1806 1.350 . S
C1801 N1809 1.427 . S
C1802 H1793 0.930 . S
C1802 C1800 1.378 . S
C1802 C1803 1.367 . S
C1803 C1802 1.367 . S
C1803 C1805 1.433 . S
C1804 C1800 1.350 . S
C1804 C1801 1.463 1_655 S
C1804 N1808 1.427 . S
C1805 H1795 0.929 . S
C1805 C1803 1.433 . S
C1805 N1808 1.384 . S
C1806 H1797 0.929 . S
C1806 C1798 1.378 . S
C1806 C1801 1.350 . S
C1807 H1794 0.929 . S
C1807 C1799 1.433 . S
C1807 N1809 1.384 . S
N1808 C1804 1.427 . S
N1808 C1805 1.384 . S
N1809 C1801 1.427 . S
N1809 C1807 1.384 . S
H1810 C1816 0.930 . S
H1811 C1820 0.930 . S
H1812 C1825 0.929 . S
H1813 C1823 0.929 . S
H1814 C1818 0.929 . S
H1815 C1824 0.929 . S
C1816 H1810 0.930 . S
C1816 C1817 1.367 . S
C1816 C1824 1.378 . S
C1817 C1816 1.367 . S
C1817 C1825 1.433 . S
C1818 H1814 0.929 . S
C1818 C1820 1.378 . S
C1818 C1822 1.350 . S
C1819 C1822 1.463 . S
C1819 C1824 1.350 . S
C1819 N1827 1.427 . S
C1820 H1811 0.930 . S
C1820 C1818 1.378 . S
C1820 C1821 1.367 . S
C1821 C1820 1.367 . S
C1821 C1823 1.433 . S
C1822 C1818 1.350 . S
C1822 C1819 1.463 . S
C1822 N1826 1.427 . S
C1823 H1813 0.929 . S
C1823 C1821 1.433 . S
C1823 N1826 1.384 . S
C1824 H1815 0.929 . S
C1824 C1816 1.378 . S
C1824 C1819 1.350 . S
C1825 H1812 0.929 . S
C1825 C1817 1.433 . S
C1825 N1827 1.384 . S
N1826 C1822 1.427 . S
N1826 C1823 1.384 . S
N1827 C1819 1.427 . S
N1827 C1825 1.384 . S
H1828 C1834 0.930 . S
H1829 C1838 0.930 . S
H1830 C1843 0.929 . S
H1831 C1841 0.929 . S
H1832 C1836 0.929 . S
H1833 C1842 0.929 . S
C1834 H1828 0.930 . S
C1834 C1835 1.367 . S
C1834 C1842 1.378 . S
C1835 C1834 1.367 . S
C1835 C1843 1.433 . S
C1836 H1832 0.929 . S
C1836 C1838 1.378 . S
C1836 C1840 1.350 . S
C1837 C1840 1.463 1_655 S
C1837 C1842 1.350 . S
C1837 N1845 1.427 . S
C1838 H1829 0.930 . S
C1838 C1836 1.378 . S
C1838 C1839 1.367 . S
C1839 C1838 1.367 . S
C1839 C1841 1.433 . S
C1840 C1836 1.350 . S
C1840 C1837 1.463 1_455 S
C1840 N1844 1.427 . S
C1841 H1831 0.929 . S
C1841 C1839 1.433 . S
C1841 N1844 1.384 . S
C1842 H1833 0.929 . S
C1842 C1834 1.378 . S
C1842 C1837 1.350 . S
C1843 H1830 0.929 . S
C1843 C1835 1.433 . S
C1843 N1845 1.384 . S
N1844 C1840 1.427 . S
N1844 C1841 1.384 . S
N1845 C1837 1.427 . S
N1845 C1843 1.384 . S
H1846 C1852 0.930 . S
H1847 C1856 0.930 . S
H1848 C1861 0.929 . S
H1849 C1859 0.929 . S
H1850 C1854 0.929 . S
H1851 C1860 0.929 . S
C1852 H1846 0.930 . S
C1852 C1853 1.367 . S
C1852 C1860 1.378 . S
C1853 C1852 1.367 . S
C1853 C1861 1.433 . S
C1854 H1850 0.929 . S
C1854 C1856 1.378 . S
C1854 C1858 1.350 . S
C1855 C1858 1.463 . S
C1855 C1860 1.350 . S
C1855 N1863 1.427 . S
C1856 H1847 0.930 . S
C1856 C1854 1.378 . S
C1856 C1857 1.367 . S
C1857 C1856 1.367 . S
C1857 C1859 1.433 . S
C1858 C1854 1.350 . S
C1858 C1855 1.463 . S
C1858 N1862 1.427 . S
C1859 H1849 0.929 . S
C1859 C1857 1.433 . S
C1859 N1862 1.384 . S
C1860 H1851 0.929 . S
C1860 C1852 1.378 . S
C1860 C1855 1.350 . S
C1861 H1848 0.929 . S
C1861 C1853 1.433 . S
C1861 N1863 1.384 . S
N1862 C1858 1.427 . S
N1862 C1859 1.384 . S
N1863 C1855 1.427 . S
N1863 C1861 1.384 . S
H1864 C1870 0.930 . S
H1865 C1874 0.930 . S
H1866 C1879 0.929 . S
H1867 C1877 0.929 . S
H1868 C1872 0.929 . S
H1869 C1878 0.929 . S
C1870 H1864 0.930 . S
C1870 C1871 1.367 . S
C1870 C1878 1.378 . S
C1871 C1870 1.367 . S
C1871 C1879 1.433 . S
C1872 H1868 0.929 . S
C1872 C1874 1.378 . S
C1872 C1876 1.350 . S
C1873 C1876 1.463 1_655 S
C1873 C1878 1.350 . S
C1873 N1881 1.427 . S
C1874 H1865 0.930 . S
C1874 C1872 1.378 . S
C1874 C1875 1.367 . S
C1875 C1874 1.367 . S
C1875 C1877 1.433 . S
C1876 C1872 1.350 . S
C1876 C1873 1.463 1_455 S
C1876 N1880 1.427 . S
C1877 H1867 0.929 . S
C1877 C1875 1.433 . S
C1877 N1880 1.384 . S
C1878 H1869 0.929 . S
C1878 C1870 1.378 . S
C1878 C1873 1.350 . S
C1879 H1866 0.929 . S
C1879 C1871 1.433 . S
C1879 N1881 1.384 . S
N1880 C1876 1.427 . S
N1880 C1877 1.384 . S
N1881 C1873 1.427 . S
N1881 C1879 1.384 . S
H1882 C1888 0.930 . S
H1883 C1892 0.930 . S
H1884 C1897 0.929 . S
H1885 C1895 0.929 . S
H1886 C1890 0.929 . S
H1887 C1896 0.929 . S
C1888 H1882 0.930 . S
C1888 C1889 1.367 . S
C1888 C1896 1.378 . S
C1889 C1888 1.367 . S
C1889 C1897 1.433 . S
C1890 H1886 0.929 . S
C1890 C1892 1.378 . S
C1890 C1894 1.350 . S
C1891 C1894 1.463 . S
C1891 C1896 1.350 . S
C1891 N1899 1.427 . S
C1892 H1883 0.930 . S
C1892 C1890 1.378 . S
C1892 C1893 1.367 . S
C1893 C1892 1.367 . S
C1893 C1895 1.433 . S
C1894 C1890 1.350 . S
C1894 C1891 1.463 . S
C1894 N1898 1.427 . S
C1895 H1885 0.929 . S
C1895 C1893 1.433 . S
C1895 N1898 1.384 . S
C1896 H1887 0.929 . S
C1896 C1888 1.378 . S
C1896 C1891 1.350 . S
C1897 H1884 0.929 . S
C1897 C1889 1.433 . S
C1897 N1899 1.384 . S
N1898 C1894 1.427 . S
N1898 C1895 1.384 . S
N1899 C1891 1.427 . S
N1899 C1897 1.384 . S
H1900 C1906 0.930 . S
H1901 C1910 0.930 . S
H1902 C1915 0.929 . S
H1903 C1913 0.929 . S
H1904 C1908 0.929 . S
H1905 C1914 0.929 . S
C1906 H1900 0.930 . S
C1906 C1907 1.367 . S
C1906 C1914 1.378 . S
C1907 C1906 1.367 . S
C1907 C1915 1.433 . S
C1908 H1904 0.929 . S
C1908 C1910 1.378 . S
C1908 C1912 1.350 . S
C1909 C1912 1.463 1_455 S
C1909 C1914 1.350 . S
C1909 N1917 1.427 . S
C1910 H1901 0.930 . S
C1910 C1908 1.378 . S
C1910 C1911 1.367 . S
C1911 C1910 1.367 . S
C1911 C1913 1.433 . S
C1912 C1908 1.350 . S
C1912 C1909 1.463 1_655 S
C1912 N1916 1.427 . S
C1913 H1903 0.929 . S
C1913 C1911 1.433 . S
C1913 N1916 1.384 . S
C1914 H1905 0.929 . S
C1914 C1906 1.378 . S
C1914 C1909 1.350 . S
C1915 H1902 0.929 . S
C1915 C1907 1.433 . S
C1915 N1917 1.384 . S
N1916 C1912 1.427 . S
N1916 C1913 1.384 . S
N1917 C1909 1.427 . S
N1917 C1915 1.384 . S
H1918 C1924 0.930 . S
H1919 C1928 0.930 . S
H1920 C1933 0.929 . S
H1921 C1931 0.929 . S
H1922 C1926 0.929 . S
H1923 C1932 0.929 . S
C1924 H1918 0.930 . S
C1924 C1925 1.367 . S
C1924 C1932 1.378 . S
C1925 C1924 1.367 . S
C1925 C1933 1.433 . S
C1926 H1922 0.929 . S
C1926 C1928 1.378 . S
C1926 C1930 1.350 . S
C1927 C1930 1.463 . S
C1927 C1932 1.350 . S
C1927 N1935 1.427 . S
C1928 H1919 0.930 . S
C1928 C1926 1.378 . S
C1928 C1929 1.367 . S
C1929 C1928 1.367 . S
C1929 C1931 1.433 . S
C1930 C1926 1.350 . S
C1930 C1927 1.463 . S
C1930 N1934 1.427 . S
C1931 H1921 0.929 . S
C1931 C1929 1.433 . S
C1931 N1934 1.384 . S
C1932 H1923 0.929 . S
C1932 C1924 1.378 . S
C1932 C1927 1.350 . S
C1933 H1920 0.929 . S
C1933 C1925 1.433 . S
C1933 N1935 1.384 . S
N1934 C1930 1.427 . S
N1934 C1931 1.384 . S
N1935 C1927 1.427 . S
N1935 C1933 1.384 . S
H1936 C1942 0.930 . S
H1937 C1946 0.930 . S
H1938 C1951 0.929 . S
H1939 C1949 0.929 . S
H1940 C1944 0.933 . S
H1941 C1950 0.929 . S
C1942 H1936 0.930 . S
C1942 C1943 1.367 1_565 S
C1942 C1950 1.378 . S
C1943 C1942 1.367 1_545 S
C1943 C1951 1.433 . S
C1944 H1940 0.933 . S
C1944 C1946 1.376 1_545 S
C1944 C1948 1.347 1_545 S
C1945 C1948 1.466 1_655 S
C1945 C1950 1.355 . S
C1945 N1953 1.419 1_565 S
C1946 H1937 0.930 . S
C1946 C1944 1.376 1_565 S
C1946 C1947 1.367 . S
C1947 C1946 1.367 . S
C1947 C1949 1.433 . S
C1948 C1944 1.347 1_565 S
C1948 C1945 1.466 1_455 S
C1948 N1952 1.427 . S
C1949 H1939 0.929 . S
C1949 C1947 1.433 . S
C1949 N1952 1.384 . S
C1950 H1941 0.929 . S
C1950 C1942 1.378 . S
C1950 C1945 1.355 . S
C1951 H1938 0.929 . S
C1951 C1943 1.433 . S
C1951 N1953 1.384 . S
N1952 C1948 1.427 . S
N1952 C1949 1.384 . S
N1953 C1945 1.419 1_545 S
N1953 C1951 1.384 . S
H1954 C1960 0.930 . S
H1955 C1964 0.930 . S
H1956 C1969 0.929 . S
H1957 C1967 0.929 . S
H1958 C1962 0.929 . S
H1959 C1968 0.929 . S
C1960 H1954 0.930 . S
C1960 C1961 1.367 . S
C1960 C1968 1.378 . S
C1961 C1960 1.367 . S
C1961 C1969 1.433 . S
C1962 H1958 0.929 . S
C1962 C1964 1.378 . S
C1962 C1966 1.350 . S
C1963 C1966 1.463 . S
C1963 C1968 1.350 . S
C1963 N1971 1.427 . S
C1964 H1955 0.930 . S
C1964 C1962 1.378 . S
C1964 C1965 1.367 . S
C1965 C1964 1.367 . S
C1965 C1967 1.433 . S
C1966 C1962 1.350 . S
C1966 C1963 1.463 . S
C1966 N1970 1.427 . S
C1967 H1957 0.929 . S
C1967 C1965 1.433 . S
C1967 N1970 1.384 . S
C1968 H1959 0.929 . S
C1968 C1960 1.378 . S
C1968 C1963 1.350 . S
C1969 H1956 0.929 . S
C1969 C1961 1.433 . S
C1969 N1971 1.384 . S
N1970 C1966 1.427 . S
N1970 C1967 1.384 . S
N1971 C1963 1.427 . S
N1971 C1969 1.384 . S
H1972 C1978 0.930 . S
H1973 C1982 0.930 . S
H1974 C1987 0.929 . S
H1975 C1985 0.929 . S
H1976 C1980 0.929 . S
H1977 C1986 0.929 . S
C1978 H1972 0.930 . S
C1978 C1979 1.367 . S
C1978 C1986 1.378 . S
C1979 C1978 1.367 . S
C1979 C1987 1.433 . S
C1980 H1976 0.929 . S
C1980 C1982 1.378 . S
C1980 C1984 1.350 . S
C1981 C1984 1.463 1_655 S
C1981 C1986 1.350 . S
C1981 N1989 1.427 . S
C1982 H1973 0.930 . S
C1982 C1980 1.378 . S
C1982 C1983 1.367 . S
C1983 C1982 1.367 . S
C1983 C1985 1.433 . S
C1984 C1980 1.350 . S
C1984 C1981 1.463 1_455 S
C1984 N1988 1.427 . S
C1985 H1975 0.929 . S
C1985 C1983 1.433 . S
C1985 N1988 1.384 . S
C1986 H1977 0.929 . S
C1986 C1978 1.378 . S
C1986 C1981 1.350 . S
C1987 H1974 0.929 . S
C1987 C1979 1.433 . S
C1987 N1989 1.384 . S
N1988 C1984 1.427 . S
N1988 C1985 1.384 . S
N1989 C1981 1.427 . S
N1989 C1987 1.384 . S
H1990 C1996 0.930 . S
H1991 C2000 0.930 . S
H1992 C2005 0.929 . S
H1993 C2003 0.929 . S
H1994 C1998 0.929 . S
H1995 C2004 0.929 . S
C1996 H1990 0.930 . S
C1996 C1997 1.367 . S
C1996 C2004 1.378 . S
C1997 C1996 1.367 . S
C1997 C2005 1.433 1_545 S
C1998 H1994 0.929 . S
C1998 C2000 1.378 . S
C1998 C2002 1.350 . S
C1999 C2002 1.461 1_545 S
C1999 C2004 1.360 . S
C1999 N2007 1.419 1_545 S
C2000 H1991 0.930 . S
C2000 C1998 1.378 . S
C2000 C2001 1.367 . S
C2001 C2000 1.367 . S
C2001 C2003 1.433 1_565 S
C2002 C1998 1.350 . S
C2002 C1999 1.461 1_565 S
C2002 N2006 1.427 1_565 S
C2003 H1993 0.929 . S
C2003 C2001 1.433 1_545 S
C2003 N2006 1.384 . S
C2004 H1995 0.929 . S
C2004 C1996 1.378 . S
C2004 C1999 1.360 . S
C2005 H1992 0.929 . S
C2005 C1997 1.433 1_565 S
C2005 N2007 1.384 . S
N2006 C2002 1.427 1_545 S
N2006 C2003 1.384 . S
N2007 C1999 1.419 1_565 S
N2007 C2005 1.384 . S
H2008 C2014 0.930 . S
H2009 C2018 0.930 . S
H2010 C2023 0.929 . S
H2011 C2021 0.929 . S
H2012 C2016 0.929 . S
H2013 C2022 0.929 . S
C2014 H2008 0.930 . S
C2014 C2015 1.367 1_565 S
C2014 C2022 1.378 . S
C2015 C2014 1.367 1_545 S
C2015 C2023 1.433 . S
C2016 H2012 0.929 . S
C2016 C2018 1.378 . S
C2016 C2020 1.350 . S
C2017 C2020 1.463 1_655 S
C2017 C2022 1.350 1_545 S
C2017 N2025 1.427 . S
C2018 H2009 0.930 . S
C2018 C2016 1.378 . S
C2018 C2019 1.367 1_545 S
C2019 C2018 1.367 1_565 S
C2019 C2021 1.433 . S
C2020 C2016 1.350 . S
C2020 C2017 1.463 1_455 S
C2020 N2024 1.427 1_545 S
C2021 H2011 0.929 . S
C2021 C2019 1.433 . S
C2021 N2024 1.384 . S
C2022 H2013 0.929 . S
C2022 C2014 1.378 . S
C2022 C2017 1.350 1_565 S
C2023 H2010 0.929 . S
C2023 C2015 1.433 . S
C2023 N2025 1.384 . S
N2024 C2020 1.427 1_565 S
N2024 C2021 1.384 . S
N2025 C2017 1.427 . S
N2025 C2023 1.384 . S
H2026 C2032 0.930 . S
H2027 C2036 0.930 . S
H2028 C2041 0.929 . S
H2029 C2039 0.929 . S
H2030 C2034 0.929 . S
H2031 C2040 0.929 . S
C2032 H2026 0.930 . S
C2032 C2033 1.367 . S
C2032 C2040 1.378 . S
C2033 C2032 1.367 . S
C2033 C2041 1.433 . S
C2034 H2030 0.929 . S
C2034 C2036 1.378 . S
C2034 C2038 1.350 . S
C2035 C2038 1.463 . S
C2035 C2040 1.350 . S
C2035 N2043 1.427 . S
C2036 H2027 0.930 . S
C2036 C2034 1.378 . S
C2036 C2037 1.367 . S
C2037 C2036 1.367 . S
C2037 C2039 1.433 . S
C2038 C2034 1.350 . S
C2038 C2035 1.463 . S
C2038 N2042 1.427 . S
C2039 H2029 0.929 . S
C2039 C2037 1.433 . S
C2039 N2042 1.384 . S
C2040 H2031 0.929 . S
C2040 C2032 1.378 . S
C2040 C2035 1.350 . S
C2041 H2028 0.929 . S
C2041 C2033 1.433 . S
C2041 N2043 1.384 . S
N2042 C2038 1.427 . S
N2042 C2039 1.384 . S
N2043 C2035 1.427 . S
N2043 C2041 1.384 . S
H2044 C2050 0.930 . S
H2045 C2054 0.930 . S
H2046 C2059 0.929 . S
H2047 C2057 0.929 . S
H2048 C2052 0.929 . S
H2049 C2058 0.929 . S
C2050 H2044 0.930 . S
C2050 C2051 1.367 . S
C2050 C2058 1.378 . S
C2051 C2050 1.367 . S
C2051 C2059 1.433 . S
C2052 H2048 0.929 . S
C2052 C2054 1.378 . S
C2052 C2056 1.350 . S
C2053 C2056 1.463 1_455 S
C2053 C2058 1.350 . S
C2053 N2061 1.427 . S
C2054 H2045 0.930 . S
C2054 C2052 1.378 . S
C2054 C2055 1.367 . S
C2055 C2054 1.367 . S
C2055 C2057 1.433 . S
C2056 C2052 1.350 . S
C2056 C2053 1.463 1_655 S
C2056 N2060 1.427 . S
C2057 H2047 0.929 . S
C2057 C2055 1.433 . S
C2057 N2060 1.384 . S
C2058 H2049 0.929 . S
C2058 C2050 1.378 . S
C2058 C2053 1.350 . S
C2059 H2046 0.929 . S
C2059 C2051 1.433 . S
C2059 N2061 1.384 . S
N2060 C2056 1.427 . S
N2060 C2057 1.384 . S
N2061 C2053 1.427 . S
N2061 C2059 1.384 . S
H2062 C2068 0.930 . S
H2063 C2072 0.930 . S
H2064 C2077 0.929 . S
H2065 C2075 0.929 . S
H2066 C2070 0.929 . S
H2067 C2076 0.929 . S
C2068 H2062 0.930 . S
C2068 C2069 1.367 1_545 S
C2068 C2076 1.378 . S
C2069 C2068 1.367 1_565 S
C2069 C2077 1.433 . S
C2070 H2066 0.929 . S
C2070 C2072 1.378 . S
C2070 C2074 1.350 1_565 S
C2071 C2074 1.463 . S
C2071 C2076 1.350 . S
C2071 N2079 1.427 1_545 S
C2072 H2063 0.930 . S
C2072 C2070 1.378 . S
C2072 C2073 1.367 1_565 S
C2073 C2072 1.367 1_545 S
C2073 C2075 1.433 . S
C2074 C2070 1.350 1_545 S
C2074 C2071 1.463 . S
C2074 N2078 1.427 . S
C2075 H2065 0.929 . S
C2075 C2073 1.433 . S
C2075 N2078 1.384 . S
C2076 H2067 0.929 . S
C2076 C2068 1.378 . S
C2076 C2071 1.350 . S
C2077 H2064 0.929 . S
C2077 C2069 1.433 . S
C2077 N2079 1.384 . S
N2078 C2074 1.427 . S
N2078 C2075 1.384 . S
N2079 C2071 1.427 1_565 S
N2079 C2077 1.384 . S
H2080 C2086 0.930 . S
H2081 C2090 0.930 . S
H2082 C2095 0.929 . S
H2083 C2093 0.929 . S
H2084 C2088 0.929 . S
H2085 C2094 0.929 . S
C2086 H2080 0.930 . S
C2086 C2087 1.367 1_655 S
C2086 C2094 1.378 . S
C2087 C2086 1.367 1_455 S
C2087 C2095 1.433 . S
C2088 H2084 0.929 . S
C2088 C2090 1.378 . S
C2088 C2092 1.350 . S
C2089 C2092 1.463 1_654 S
C2089 C2094 1.350 . S
C2089 N2097 1.427 1_655 S
C2090 H2081 0.930 . S
C2090 C2088 1.378 . S
C2090 C2091 1.367 1_455 S
C2091 C2090 1.367 1_655 S
C2091 C2093 1.433 . S
C2092 C2088 1.350 . S
C2092 C2089 1.463 1_456 S
C2092 N2096 1.427 1_455 S
C2093 H2083 0.929 . S
C2093 C2091 1.433 . S
C2093 N2096 1.384 . S
C2094 H2085 0.929 . S
C2094 C2086 1.378 . S
C2094 C2089 1.350 . S
C2095 H2082 0.929 . S
C2095 C2087 1.433 . S
C2095 N2097 1.384 . S
N2096 C2092 1.427 1_655 S
N2096 C2093 1.384 . S
N2097 C2089 1.427 1_455 S
N2097 C2095 1.384 . S
H2098 C2104 0.930 . S
H2099 C2108 0.930 . S
H2100 C2113 0.929 . S
H2101 C2111 0.929 . S
H2102 C2106 0.929 . S
H2103 C2112 0.929 . S
C2104 H2098 0.930 . S
C2104 C2105 1.367 . S
C2104 C2112 1.378 . S
C2105 C2104 1.367 . S
C2105 C2113 1.433 . S
C2106 H2102 0.929 . S
C2106 C2108 1.378 . S
C2106 C2110 1.350 . S
C2107 C2110 1.463 1_556 S
C2107 C2112 1.350 . S
C2107 N2115 1.427 . S
C2108 H2099 0.930 . S
C2108 C2106 1.378 . S
C2108 C2109 1.367 . S
C2109 C2108 1.367 . S
C2109 C2111 1.433 . S
C2110 C2106 1.350 . S
C2110 C2107 1.463 1_554 S
C2110 N2114 1.427 . S
C2111 H2101 0.929 . S
C2111 C2109 1.433 . S
C2111 N2114 1.384 . S
C2112 H2103 0.929 . S
C2112 C2104 1.378 . S
C2112 C2107 1.350 . S
C2113 H2100 0.929 . S
C2113 C2105 1.433 . S
C2113 N2115 1.384 . S
N2114 C2110 1.427 . S
N2114 C2111 1.384 . S
N2115 C2107 1.427 . S
N2115 C2113 1.384 . S
H2116 C2122 0.930 . S
H2117 C2126 0.930 . S
H2118 C2131 0.929 . S
H2119 C2129 0.929 . S
H2120 C2124 0.929 . S
H2121 C2130 0.929 . S
C2122 H2116 0.930 . S
C2122 C2123 1.367 . S
C2122 C2130 1.378 . S
C2123 C2122 1.367 . S
C2123 C2131 1.433 1_655 S
C2124 H2120 0.929 . S
C2124 C2126 1.378 . S
C2124 C2128 1.350 . S
C2125 C2128 1.463 1_655 S
C2125 C2130 1.350 . S
C2125 N2133 1.427 1_655 S
C2126 H2117 0.930 . S
C2126 C2124 1.378 . S
C2126 C2127 1.367 . S
C2127 C2126 1.367 . S
C2127 C2129 1.433 1_455 S
C2128 C2124 1.350 . S
C2128 C2125 1.463 1_455 S
C2128 N2132 1.427 1_455 S
C2129 H2119 0.929 . S
C2129 C2127 1.433 1_655 S
C2129 N2132 1.384 . S
C2130 H2121 0.929 . S
C2130 C2122 1.378 . S
C2130 C2125 1.350 . S
C2131 H2118 0.929 . S
C2131 C2123 1.433 1_455 S
C2131 N2133 1.384 . S
N2132 C2128 1.427 1_655 S
N2132 C2129 1.384 . S
N2133 C2125 1.427 1_455 S
N2133 C2131 1.384 . S
H2134 C2140 0.930 . S
H2135 C2144 0.930 . S
H2136 C2149 0.929 . S
H2137 C2147 0.929 . S
H2138 C2142 0.929 . S
H2139 C2148 0.929 . S
C2140 H2134 0.930 . S
C2140 C2141 1.367 . S
C2140 C2148 1.378 . S
C2141 C2140 1.367 . S
C2141 C2149 1.433 . S
C2142 H2138 0.929 . S
C2142 C2144 1.378 . S
C2142 C2146 1.350 . S
C2143 C2146 1.463 . S
C2143 C2148 1.350 . S
C2143 N2151 1.427 . S
C2144 H2135 0.930 . S
C2144 C2142 1.378 . S
C2144 C2145 1.367 . S
C2145 C2144 1.367 . S
C2145 C2147 1.433 . S
C2146 C2142 1.350 . S
C2146 C2143 1.463 . S
C2146 N2150 1.427 . S
C2147 H2137 0.929 . S
C2147 C2145 1.433 . S
C2147 N2150 1.384 . S
C2148 H2139 0.929 . S
C2148 C2140 1.378 . S
C2148 C2143 1.350 . S
C2149 H2136 0.929 . S
C2149 C2141 1.433 . S
C2149 N2151 1.384 . S
N2150 C2146 1.427 . S
N2150 C2147 1.384 . S
N2151 C2143 1.427 . S
N2151 C2149 1.384 . S
H2152 C2158 0.930 . S
H2153 C2162 0.930 . S
H2154 C2167 0.929 . S
H2155 C2165 0.929 . S
H2156 C2160 0.929 . S
H2157 C2166 0.929 . S
C2158 H2152 0.930 . S
C2158 C2159 1.367 . S
C2158 C2166 1.378 . S
C2159 C2158 1.367 . S
C2159 C2167 1.433 . S
C2160 H2156 0.929 . S
C2160 C2162 1.378 . S
C2160 C2164 1.350 . S
C2161 C2164 1.463 1_556 S
C2161 C2166 1.350 . S
C2161 N2169 1.427 . S
C2162 H2153 0.930 . S
C2162 C2160 1.378 . S
C2162 C2163 1.367 . S
C2163 C2162 1.367 . S
C2163 C2165 1.433 . S
C2164 C2160 1.350 . S
C2164 C2161 1.463 1_554 S
C2164 N2168 1.427 . S
C2165 H2155 0.929 . S
C2165 C2163 1.433 . S
C2165 N2168 1.384 . S
C2166 H2157 0.929 . S
C2166 C2158 1.378 . S
C2166 C2161 1.350 . S
C2167 H2154 0.929 . S
C2167 C2159 1.433 . S
C2167 N2169 1.384 . S
N2168 C2164 1.427 . S
N2168 C2165 1.384 . S
N2169 C2161 1.427 . S
N2169 C2167 1.384 . S
H2170 C2176 0.930 . S
H2171 C2180 0.930 . S
H2172 C2185 0.929 . S
H2173 C2183 0.929 . S
H2174 C2178 0.929 . S
H2175 C2184 0.929 . S
C2176 H2170 0.930 . S
C2176 C2177 1.367 . S
C2176 C2184 1.378 . S
C2177 C2176 1.367 . S
C2177 C2185 1.433 1_655 S
C2178 H2174 0.929 . S
C2178 C2180 1.378 . S
C2178 C2182 1.350 . S
C2179 C2182 1.463 1_655 S
C2179 C2184 1.350 . S
C2179 N2187 1.427 1_655 S
C2180 H2171 0.930 . S
C2180 C2178 1.378 . S
C2180 C2181 1.367 . S
C2181 C2180 1.367 . S
C2181 C2183 1.433 1_455 S
C2182 C2178 1.350 . S
C2182 C2179 1.463 1_455 S
C2182 N2186 1.427 1_455 S
C2183 H2173 0.929 . S
C2183 C2181 1.433 1_655 S
C2183 N2186 1.384 . S
C2184 H2175 0.929 . S
C2184 C2176 1.378 . S
C2184 C2179 1.350 . S
C2185 H2172 0.929 . S
C2185 C2177 1.433 1_455 S
C2185 N2187 1.384 . S
N2186 C2182 1.427 1_655 S
N2186 C2183 1.384 . S
N2187 C2179 1.427 1_455 S
N2187 C2185 1.384 . S
H2188 C2194 0.930 . S
H2189 C2198 0.930 . S
H2190 C2203 0.929 . S
H2191 C2201 0.929 . S
H2192 C2196 0.929 . S
H2193 C2202 0.929 . S
C2194 H2188 0.930 . S
C2194 C2195 1.367 . S
C2194 C2202 1.378 . S
C2195 C2194 1.367 . S
C2195 C2203 1.433 . S
C2196 H2192 0.929 . S
C2196 C2198 1.378 . S
C2196 C2200 1.350 . S
C2197 C2200 1.463 . S
C2197 C2202 1.350 . S
C2197 N2205 1.427 . S
C2198 H2189 0.930 . S
C2198 C2196 1.378 . S
C2198 C2199 1.367 . S
C2199 C2198 1.367 . S
C2199 C2201 1.433 . S
C2200 C2196 1.350 . S
C2200 C2197 1.463 . S
C2200 N2204 1.427 . S
C2201 H2191 0.929 . S
C2201 C2199 1.433 . S
C2201 N2204 1.384 . S
C2202 H2193 0.929 . S
C2202 C2194 1.378 . S
C2202 C2197 1.350 . S
C2203 H2190 0.929 . S
C2203 C2195 1.433 . S
C2203 N2205 1.384 . S
N2204 C2200 1.427 . S
N2204 C2201 1.384 . S
N2205 C2197 1.427 . S
N2205 C2203 1.384 . S
H2206 C2212 0.930 . S
H2207 C2216 0.930 . S
H2208 C2221 0.929 . S
H2209 C2219 0.929 . S
H2210 C2214 0.929 . S
H2211 C2220 0.929 . S
C2212 H2206 0.930 . S
C2212 C2213 1.367 1_545 S
C2212 C2220 1.378 . S
C2213 C2212 1.367 1_565 S
C2213 C2221 1.433 1_455 S
C2214 H2210 0.929 . S
C2214 C2216 1.378 . S
C2214 C2218 1.353 . S
C2215 C2218 1.462 1_445 S
C2215 C2220 1.353 . S
C2215 N2223 1.424 1_445 S
C2216 H2207 0.930 . S
C2216 C2214 1.378 . S
C2216 C2217 1.367 1_565 S
C2217 C2216 1.367 1_545 S
C2217 C2219 1.433 1_655 S
C2218 C2214 1.353 . S
C2218 C2215 1.462 1_665 S
C2218 N2222 1.424 1_665 S
C2219 H2209 0.929 . S
C2219 C2217 1.433 1_455 S
C2219 N2222 1.384 . S
C2220 H2211 0.929 . S
C2220 C2212 1.378 . S
C2220 C2215 1.353 . S
C2221 H2208 0.929 . S
C2221 C2213 1.433 1_655 S
C2221 N2223 1.384 . S
N2222 C2218 1.424 1_445 S
N2222 C2219 1.384 . S
N2223 C2215 1.424 1_665 S
N2223 C2221 1.384 . S
H2224 C2230 0.930 . S
H2225 C2234 0.930 . S
H2226 C2239 0.929 . S
H2227 C2237 0.929 . S
H2228 C2232 0.929 . S
H2229 C2238 0.929 . S
C2230 H2224 0.930 . S
C2230 C2231 1.367 . S
C2230 C2238 1.378 . S
C2231 C2230 1.367 . S
C2231 C2239 1.433 . S
C2232 H2228 0.929 . S
C2232 C2234 1.378 . S
C2232 C2236 1.350 . S
C2233 C2236 1.463 . S
C2233 C2238 1.350 . S
C2233 N2241 1.427 . S
C2234 H2225 0.930 . S
C2234 C2232 1.378 . S
C2234 C2235 1.367 . S
C2235 C2234 1.367 . S
C2235 C2237 1.433 . S
C2236 C2232 1.350 . S
C2236 C2233 1.463 . S
C2236 N2240 1.427 . S
C2237 H2227 0.929 . S
C2237 C2235 1.433 . S
C2237 N2240 1.384 . S
C2238 H2229 0.929 . S
C2238 C2230 1.378 . S
C2238 C2233 1.350 . S
C2239 H2226 0.929 . S
C2239 C2231 1.433 . S
C2239 N2241 1.384 . S
N2240 C2236 1.427 . S
N2240 C2237 1.384 . S
N2241 C2233 1.427 . S
N2241 C2239 1.384 . S
H2242 C2248 0.930 . S
H2243 C2252 0.930 . S
H2244 C2257 0.929 . S
H2245 C2255 0.929 . S
H2246 C2250 0.929 . S
H2247 C2256 0.929 . S
C2248 H2242 0.930 . S
C2248 C2249 1.367 1_565 S
C2248 C2256 1.378 . S
C2249 C2248 1.367 1_545 S
C2249 C2257 1.433 . S
C2250 H2246 0.929 . S
C2250 C2252 1.378 . S
C2250 C2254 1.360 . S
C2251 C2254 1.462 1_565 S
C2251 C2256 1.360 . S
C2251 N2259 1.417 1_565 S
C2252 H2243 0.930 . S
C2252 C2250 1.378 . S
C2252 C2253 1.367 1_545 S
C2253 C2252 1.367 1_565 S
C2253 C2255 1.433 . S
C2254 C2250 1.360 . S
C2254 C2251 1.462 1_545 S
C2254 N2258 1.417 1_545 S
C2255 H2245 0.929 . S
C2255 C2253 1.433 . S
C2255 N2258 1.384 . S
C2256 H2247 0.929 . S
C2256 C2248 1.378 . S
C2256 C2251 1.360 . S
C2257 H2244 0.929 . S
C2257 C2249 1.433 . S
C2257 N2259 1.384 . S
N2258 C2254 1.417 1_565 S
N2258 C2255 1.384 . S
N2259 C2251 1.417 1_545 S
N2259 C2257 1.384 . S
H2260 C2266 0.930 . S
H2261 C2270 0.930 . S
H2262 C2275 0.929 . S
H2263 C2273 0.929 . S
H2264 C2268 0.929 . S
H2265 C2274 0.929 . S
C2266 H2260 0.930 . S
C2266 C2267 1.367 . S
C2266 C2274 1.378 . S
C2267 C2266 1.367 . S
C2267 C2275 1.433 . S
C2268 H2264 0.929 . S
C2268 C2270 1.378 . S
C2268 C2272 1.350 . S
C2269 C2272 1.463 . S
C2269 C2274 1.350 . S
C2269 N2277 1.427 . S
C2270 H2261 0.930 . S
C2270 C2268 1.378 . S
C2270 C2271 1.367 . S
C2271 C2270 1.367 . S
C2271 C2273 1.433 . S
C2272 C2268 1.350 . S
C2272 C2269 1.463 . S
C2272 N2276 1.427 . S
C2273 H2263 0.929 . S
C2273 C2271 1.433 . S
C2273 N2276 1.384 . S
C2274 H2265 0.929 . S
C2274 C2266 1.378 . S
C2274 C2269 1.350 . S
C2275 H2262 0.929 . S
C2275 C2267 1.433 . S
C2275 N2277 1.384 . S
N2276 C2272 1.427 . S
N2276 C2273 1.384 . S
N2277 C2269 1.427 . S
N2277 C2275 1.384 . S
H2278 C2284 0.930 . S
H2279 C2288 0.930 . S
H2280 C2293 0.929 . S
H2281 C2291 0.929 . S
H2282 C2286 0.929 . S
H2283 C2292 0.929 . S
C2284 H2278 0.930 . S
C2284 C2285 1.367 . S
C2284 C2292 1.378 . S
C2285 C2284 1.367 . S
C2285 C2293 1.433 1_565 S
C2286 H2282 0.929 . S
C2286 C2288 1.378 . S
C2286 C2290 1.350 . S
C2287 C2290 1.463 1_565 S
C2287 C2292 1.350 . S
C2287 N2295 1.427 1_565 S
C2288 H2279 0.930 . S
C2288 C2286 1.378 . S
C2288 C2289 1.367 . S
C2289 C2288 1.367 . S
C2289 C2291 1.433 1_545 S
C2290 C2286 1.350 . S
C2290 C2287 1.463 1_545 S
C2290 N2294 1.427 1_545 S
C2291 H2281 0.929 . S
C2291 C2289 1.433 1_565 S
C2291 N2294 1.384 . S
C2292 H2283 0.929 . S
C2292 C2284 1.378 . S
C2292 C2287 1.350 . S
C2293 H2280 0.929 . S
C2293 C2285 1.433 1_545 S
C2293 N2295 1.384 . S
N2294 C2290 1.427 1_565 S
N2294 C2291 1.384 . S
N2295 C2287 1.427 1_545 S
N2295 C2293 1.384 . S
H2296 C2302 0.930 . S
H2297 C2306 0.930 . S
H2298 C2311 0.929 . S
H2299 C2309 0.929 . S
H2300 C2304 0.929 . S
H2301 C2310 0.929 . S
C2302 H2296 0.930 . S
C2302 C2303 1.367 . S
C2302 C2310 1.378 . S
C2303 C2302 1.367 . S
C2303 C2311 1.433 . S
C2304 H2300 0.929 . S
C2304 C2306 1.378 . S
C2304 C2308 1.350 . S
C2305 C2308 1.463 . S
C2305 C2310 1.350 . S
C2305 N2313 1.427 . S
C2306 H2297 0.930 . S
C2306 C2304 1.378 . S
C2306 C2307 1.367 . S
C2307 C2306 1.367 . S
C2307 C2309 1.433 . S
C2308 C2304 1.350 . S
C2308 C2305 1.463 . S
C2308 N2312 1.427 . S
C2309 H2299 0.929 . S
C2309 C2307 1.433 . S
C2309 N2312 1.384 . S
C2310 H2301 0.929 . S
C2310 C2302 1.378 . S
C2310 C2305 1.350 . S
C2311 H2298 0.929 . S
C2311 C2303 1.433 . S
C2311 N2313 1.384 . S
N2312 C2308 1.427 . S
N2312 C2309 1.384 . S
N2313 C2305 1.427 . S
N2313 C2311 1.384 . S
H2314 C2320 0.930 . S
H2315 C2324 0.930 . S
H2316 C2329 0.929 . S
H2317 C2327 0.929 . S
H2318 C2322 0.929 . S
H2319 C2328 0.929 . S
C2320 H2314 0.930 . S
C2320 C2321 1.367 . S
C2320 C2328 1.378 . S
C2321 C2320 1.367 . S
C2321 C2329 1.433 . S
C2322 H2318 0.929 . S
C2322 C2324 1.378 . S
C2322 C2326 1.350 . S
C2323 C2326 1.463 . S
C2323 C2328 1.350 . S
C2323 N2331 1.427 . S
C2324 H2315 0.930 . S
C2324 C2322 1.378 . S
C2324 C2325 1.367 . S
C2325 C2324 1.367 . S
C2325 C2327 1.433 . S
C2326 C2322 1.350 . S
C2326 C2323 1.463 . S
C2326 N2330 1.427 . S
C2327 H2317 0.929 . S
C2327 C2325 1.433 . S
C2327 N2330 1.384 . S
C2328 H2319 0.929 . S
C2328 C2320 1.378 . S
C2328 C2323 1.350 . S
C2329 H2316 0.929 . S
C2329 C2321 1.433 . S
C2329 N2331 1.384 . S
N2330 C2326 1.427 . S
N2330 C2327 1.384 . S
N2331 C2323 1.427 . S
N2331 C2329 1.384 . S
H2332 C2338 0.930 . S
H2333 C2342 0.930 . S
H2334 C2347 0.929 . S
H2335 C2345 0.929 . S
H2336 C2340 0.929 . S
H2337 C2346 0.929 . S
C2338 H2332 0.930 . S
C2338 C2339 1.367 . S
C2338 C2346 1.378 . S
C2339 C2338 1.367 . S
C2339 C2347 1.433 . S
C2340 H2336 0.929 . S
C2340 C2342 1.378 . S
C2340 C2344 1.350 . S
C2341 C2344 1.463 . S
C2341 C2346 1.350 . S
C2341 N2349 1.427 . S
C2342 H2333 0.930 . S
C2342 C2340 1.378 . S
C2342 C2343 1.367 . S
C2343 C2342 1.367 . S
C2343 C2345 1.433 . S
C2344 C2340 1.350 . S
C2344 C2341 1.463 . S
C2344 N2348 1.427 . S
C2345 H2335 0.929 . S
C2345 C2343 1.433 . S
C2345 N2348 1.384 . S
C2346 H2337 0.929 . S
C2346 C2338 1.378 . S
C2346 C2341 1.350 . S
C2347 H2334 0.929 . S
C2347 C2339 1.433 . S
C2347 N2349 1.384 . S
N2348 C2344 1.427 . S
N2348 C2345 1.384 . S
N2349 C2341 1.427 . S
N2349 C2347 1.384 . S
H2350 C2356 0.930 . S
H2351 C2360 0.930 . S
H2352 C2365 0.929 . S
H2353 C2363 0.929 . S
H2354 C2358 0.929 . S
H2355 C2364 0.929 . S
C2356 H2350 0.930 . S
C2356 C2357 1.367 . S
C2356 C2364 1.378 . S
C2357 C2356 1.367 . S
C2357 C2365 1.433 1_565 S
C2358 H2354 0.929 . S
C2358 C2360 1.378 . S
C2358 C2362 1.392 . S
C2359 C2362 1.458 1_564 S
C2359 C2364 1.392 . S
C2359 N2367 1.387 1_565 S
C2360 H2351 0.930 . S
C2360 C2358 1.378 . S
C2360 C2361 1.367 . S
C2361 C2360 1.367 . S
C2361 C2363 1.433 1_545 S
C2362 C2358 1.392 . S
C2362 C2359 1.458 1_546 S
C2362 N2366 1.387 1_545 S
C2363 H2353 0.929 . S
C2363 C2361 1.433 1_565 S
C2363 N2366 1.384 . S
C2364 H2355 0.929 . S
C2364 C2356 1.378 . S
C2364 C2359 1.392 . S
C2365 H2352 0.929 . S
C2365 C2357 1.433 1_545 S
C2365 N2367 1.384 . S
N2366 C2362 1.387 1_565 S
N2366 C2363 1.384 . S
N2367 C2359 1.387 1_545 S
N2367 C2365 1.384 . S
C647 C18 1.585 . S
C651 C518 1.581 . S
C665 C498 1.584 . S
C669 C38 1.581 . S
C683 C558 1.586 . S
C687 C58 1.581 . S
C701 C78 1.581 . S
C705 C538 1.587 . S
C719 C99 1.581 . S
C723 C599 1.585 . S
C737 C119 1.587 . S
C741 C579 1.581 . S
C755 C139 1.582 . S
C759 C639 1.583 . S
C773 C619 1.587 . S
C777 C159 1.582 . S
C791 C178 1.584 . S
C795 C358 1.587 . S
C809 C198 1.584 . S
C813 C338 1.581 . S
C827 C218 1.585 . S
C831 C398 1.581 . S
C845 C378 1.582 . S
C849 C238 1.583 . S
C863 C259 1.581 . S
C867 C439 1.584 . S
C881 C279 1.587 . S
C885 C419 1.582 . S
C899 C479 1.581 . S
C903 C299 1.583 . S
C917 C319 1.581 . S
C921 C459 1.587 . S
C935 C8 1.541 . S
C939 C68 1.537 . S
C953 C28 1.545 . S
C957 C48 1.540 . S
C971 C149 1.544 . S
C975 C89 1.543 . S
C989 C129 1.542 . S
C993 C109 1.537 . S
C1007 C168 1.534 1_565 S
C1011 C228 1.538 1_565 S
C1025 C188 1.537 . S
C1029 C208 1.543 . S
C1043 C249 1.536 1_545 S
C1047 C309 1.534 1_545 S
C1061 C289 1.537 . S
C1065 C269 1.539 . S
C1079 C328 1.541 . S
C1083 C388 1.545 . S
C1097 C348 1.545 . S
C1101 C368 1.540 . S
C1115 C469 1.541 . S
C1119 C409 1.537 . S
C1133 C429 1.541 . S
C1137 C449 1.537 . S
C1151 C548 1.534 1_565 S
C1155 C488 1.538 1_565 S
C1169 C508 1.536 . S
C1173 C528 1.541 . S
C1187 C629 1.540 1_545 S
C1191 C569 1.535 1_545 S
C1205 C609 1.542 . S
C1209 C589 1.537 . S
C1223 C39 1.503 . S
C1227 C19 1.498 . S
C1241 C59 1.491 . S
C1245 C79 1.494 . S
C1259 C118 1.500 . S
C1263 C98 1.504 . S
C1277 C158 1.501 . S
C1281 C138 1.504 . S
C1295 C179 1.493 . S
C1299 C199 1.491 . S
C1313 C219 1.503 . S
C1317 C239 1.498 . S
C1331 C278 1.496 . S
C1335 C258 1.502 . S
C1349 C298 1.498 . S
C1353 C318 1.493 . S
C1367 C339 1.491 . S
C1371 C359 1.494 . S
C1385 C399 1.502 . S
C1389 C379 1.503 . S
C1403 C418 1.493 . S
C1407 C438 1.499 . S
C1421 C458 1.491 . S
C1425 C478 1.493 . S
C1439 C499 1.492 . S
C1443 C519 1.497 . S
C1457 C539 1.502 . S
C1461 C559 1.496 . S
C1475 C598 1.499 . S
C1479 C578 1.493 . S
C1493 C618 1.493 . S
C1497 C638 1.491 . S
C1511 C2 1.644 . S
C1515 C1 1.644 . S
C1529 C22 1.639 . S
C1533 C21 1.639 . S
C1547 C42 1.643 . S
C1551 C41 1.643 . S
C1565 C61 1.638 . S
C1569 C62 1.638 . S
C1583 C82 1.634 . S
C1587 C81 1.634 . S
C1601 C101 1.638 . S
C1605 C102 1.638 . S
C1619 C122 1.643 . S
C1623 C121 1.643 . S
C1637 C142 1.645 . S
C1641 C141 1.645 . S
C1655 C161 1.643 . S
C1659 C162 1.643 . S
C1673 C182 1.639 . S
C1677 C181 1.639 . S
C1691 C202 1.635 . S
C1695 C201 1.635 . S
C1709 C221 1.634 . S
C1713 C222 1.634 . S
C1727 C242 1.634 . S
C1731 C241 1.634 . S
C1745 C261 1.638 . S
C1749 C262 1.638 . S
C1763 C281 1.645 . S
C1767 C282 1.645 . S
C1781 C302 1.642 . S
C1785 C301 1.642 . S
C1799 C322 1.633 . S
C1803 C321 1.633 . S
C1817 C341 1.641 . S
C1821 C342 1.641 1_455 S
C1835 C361 1.636 . S
C1839 C362 1.636 . S
C1853 C382 1.645 1_455 S
C1857 C381 1.645 . S
C1871 C401 1.638 . S
C1875 C402 1.638 . S
C1889 C421 1.636 1_655 S
C1893 C422 1.636 . S
C1907 C442 1.633 . S
C1911 C441 1.633 . S
C1925 C461 1.642 1_655 S
C1929 C462 1.642 . S
C1943 C481 1.637 . S
C1947 C482 1.637 . S
C1961 C502 1.635 1_455 S
C1965 C501 1.635 . S
C1979 C521 1.633 . S
C1983 C522 1.633 . S
C1997 C541 1.645 . S
C2001 C542 1.645 1_455 S
C2015 C561 1.633 . S
C2019 C562 1.633 . S
C2033 C581 1.643 1_655 S
C2037 C582 1.643 . S
C2051 C602 1.639 . S
C2055 C601 1.639 . S
C2069 C622 1.633 . S
C2073 C621 1.633 1_655 S
C2087 C9 1.473 . S
C2091 C88 1.473 . S
C2105 C588 1.473 . S
C2109 C29 1.473 . S
C2123 C288 1.460 . S
C2127 C49 1.460 . S
C2141 C69 1.465 . S
C2145 C468 1.465 . S
C2159 C108 1.460 . S
C2163 C509 1.460 . S
C2177 C128 1.460 . S
C2181 C209 1.460 . S
C2195 C148 1.462 . S
C2199 C389 1.462 . S
C2213 C169 1.464 . S
C2217 C248 1.464 . S
C2231 C428 1.461 . S
C2235 C189 1.461 . S
C2249 C628 1.473 . S
C2253 C229 1.473 . S
C2267 C268 1.473 . S
C2271 C349 1.473 . S
C2285 C549 1.466 . S
C2289 C308 1.466 . S
C2303 C329 1.466 . S
C2307 C408 1.466 . S
C2321 C608 1.474 . S
C2325 C369 1.474 . S
C2339 C448 1.463 . S
C2343 C529 1.463 . S
C2357 C489 1.467 . S
C2361 C568 1.467 . S
