# Generated by pormake.
# Topology som, (6)-cn, num edge types: 1
# Building blocks:
#     Node 0, Type 0, BuildingBlock: BETFEN_clean_sbu_0, # of connection points: 6
#     Node 1, Type 0, BuildingBlock: BETFEN_clean_sbu_0, # of connection points: 6
#     Node 2, Type 0, BuildingBlock: BETFEN_clean_sbu_0, # of connection points: 6
#     Node 3, Type 0, BuildingBlock: BETFEN_clean_sbu_0, # of connection points: 6
#     Node 4, Type 0, BuildingBlock: BETFEN_clean_sbu_0, # of connection points: 6
#     Node 5, Type 0, BuildingBlock: BETFEN_clean_sbu_0, # of connection points: 6
#     Node 6, Type 0, BuildingBlock: BETFEN_clean_sbu_0, # of connection points: 6
#     Node 7, Type 0, BuildingBlock: BETFEN_clean_sbu_0, # of connection points: 6
#     Node 8, Type 0, BuildingBlock: BETFEN_clean_sbu_0, # of connection points: 6
#     Node 9, Type 0, BuildingBlock: BETFEN_clean_sbu_0, # of connection points: 6
#     Node 10, Type 0, BuildingBlock: BETFEN_clean_sbu_0, # of connection points: 6
#     Node 11, Type 0, BuildingBlock: BETFEN_clean_sbu_0, # of connection points: 6
#     Node 12, Type 0, BuildingBlock: BETFEN_clean_sbu_0, # of connection points: 6
#     Node 13, Type 0, BuildingBlock: BETFEN_clean_sbu_0, # of connection points: 6
#     Node 14, Type 0, BuildingBlock: BETFEN_clean_sbu_0, # of connection points: 6
#     Node 15, Type 0, BuildingBlock: BETFEN_clean_sbu_0, # of connection points: 6
#     Node 16, Type 0, BuildingBlock: BETFEN_clean_sbu_0, # of connection points: 6
#     Node 17, Type 0, BuildingBlock: BETFEN_clean_sbu_0, # of connection points: 6
#     Node 18, Type 0, BuildingBlock: BETFEN_clean_sbu_0, # of connection points: 6
#     Node 19, Type 0, BuildingBlock: BETFEN_clean_sbu_0, # of connection points: 6
#     Node 20, Type 0, BuildingBlock: BETFEN_clean_sbu_0, # of connection points: 6
#     Node 21, Type 0, BuildingBlock: BETFEN_clean_sbu_0, # of connection points: 6
#     Node 22, Type 0, BuildingBlock: BETFEN_clean_sbu_0, # of connection points: 6
#     Node 23, Type 0, BuildingBlock: BETFEN_clean_sbu_0, # of connection points: 6
#     Node 24, Type 0, BuildingBlock: BETFEN_clean_sbu_0, # of connection points: 6
#     Node 25, Type 0, BuildingBlock: BETFEN_clean_sbu_0, # of connection points: 6
#     Node 26, Type 0, BuildingBlock: BETFEN_clean_sbu_0, # of connection points: 6
#     Node 27, Type 0, BuildingBlock: BETFEN_clean_sbu_0, # of connection points: 6
#     Node 28, Type 0, BuildingBlock: BETFEN_clean_sbu_0, # of connection points: 6
#     Node 29, Type 0, BuildingBlock: BETFEN_clean_sbu_0, # of connection points: 6
#     Node 30, Type 0, BuildingBlock: BETFEN_clean_sbu_0, # of connection points: 6
#     Node 31, Type 0, BuildingBlock: BETFEN_clean_sbu_0, # of connection points: 6
#     Edge 32, Type (0, 0), BuildingBlock: MIFKUJ_clean_linker_0, # of connection points: 2
#     Edge 33, Type (0, 0), BuildingBlock: MIFKUJ_clean_linker_0, # of connection points: 2
#     Edge 34, Type (0, 0), BuildingBlock: MIFKUJ_clean_linker_0, # of connection points: 2
#     Edge 35, Type (0, 0), BuildingBlock: MIFKUJ_clean_linker_0, # of connection points: 2
#     Edge 36, Type (0, 0), BuildingBlock: MIFKUJ_clean_linker_0, # of connection points: 2
#     Edge 37, Type (0, 0), BuildingBlock: MIFKUJ_clean_linker_0, # of connection points: 2
#     Edge 38, Type (0, 0), BuildingBlock: MIFKUJ_clean_linker_0, # of connection points: 2
#     Edge 39, Type (0, 0), BuildingBlock: MIFKUJ_clean_linker_0, # of connection points: 2
#     Edge 40, Type (0, 0), BuildingBlock: MIFKUJ_clean_linker_0, # of connection points: 2
#     Edge 41, Type (0, 0), BuildingBlock: MIFKUJ_clean_linker_0, # of connection points: 2
#     Edge 42, Type (0, 0), BuildingBlock: MIFKUJ_clean_linker_0, # of connection points: 2
#     Edge 43, Type (0, 0), BuildingBlock: MIFKUJ_clean_linker_0, # of connection points: 2
#     Edge 44, Type (0, 0), BuildingBlock: MIFKUJ_clean_linker_0, # of connection points: 2
#     Edge 45, Type (0, 0), BuildingBlock: MIFKUJ_clean_linker_0, # of connection points: 2
#     Edge 46, Type (0, 0), BuildingBlock: MIFKUJ_clean_linker_0, # of connection points: 2
#     Edge 47, Type (0, 0), BuildingBlock: MIFKUJ_clean_linker_0, # of connection points: 2
#     Edge 48, Type (0, 0), BuildingBlock: MIFKUJ_clean_linker_0, # of connection points: 2
#     Edge 49, Type (0, 0), BuildingBlock: MIFKUJ_clean_linker_0, # of connection points: 2
#     Edge 50, Type (0, 0), BuildingBlock: MIFKUJ_clean_linker_0, # of connection points: 2
#     Edge 51, Type (0, 0), BuildingBlock: MIFKUJ_clean_linker_0, # of connection points: 2
#     Edge 52, Type (0, 0), BuildingBlock: MIFKUJ_clean_linker_0, # of connection points: 2
#     Edge 53, Type (0, 0), BuildingBlock: MIFKUJ_clean_linker_0, # of connection points: 2
#     Edge 54, Type (0, 0), BuildingBlock: MIFKUJ_clean_linker_0, # of connection points: 2
#     Edge 55, Type (0, 0), BuildingBlock: MIFKUJ_clean_linker_0, # of connection points: 2
#     Edge 56, Type (0, 0), BuildingBlock: MIFKUJ_clean_linker_0, # of connection points: 2
#     Edge 57, Type (0, 0), BuildingBlock: MIFKUJ_clean_linker_0, # of connection points: 2
#     Edge 58, Type (0, 0), BuildingBlock: MIFKUJ_clean_linker_0, # of connection points: 2
#     Edge 59, Type (0, 0), BuildingBlock: MIFKUJ_clean_linker_0, # of connection points: 2
#     Edge 60, Type (0, 0), BuildingBlock: MIFKUJ_clean_linker_0, # of connection points: 2
#     Edge 61, Type (0, 0), BuildingBlock: MIFKUJ_clean_linker_0, # of connection points: 2
#     Edge 62, Type (0, 0), BuildingBlock: MIFKUJ_clean_linker_0, # of connection points: 2
#     Edge 63, Type (0, 0), BuildingBlock: MIFKUJ_clean_linker_0, # of connection points: 2
#     Edge 64, Type (0, 0), BuildingBlock: MIFKUJ_clean_linker_0, # of connection points: 2
#     Edge 65, Type (0, 0), BuildingBlock: MIFKUJ_clean_linker_0, # of connection points: 2
#     Edge 66, Type (0, 0), BuildingBlock: MIFKUJ_clean_linker_0, # of connection points: 2
#     Edge 67, Type (0, 0), BuildingBlock: MIFKUJ_clean_linker_0, # of connection points: 2
#     Edge 68, Type (0, 0), BuildingBlock: MIFKUJ_clean_linker_0, # of connection points: 2
#     Edge 69, Type (0, 0), BuildingBlock: MIFKUJ_clean_linker_0, # of connection points: 2
#     Edge 70, Type (0, 0), BuildingBlock: MIFKUJ_clean_linker_0, # of connection points: 2
#     Edge 71, Type (0, 0), BuildingBlock: MIFKUJ_clean_linker_0, # of connection points: 2
#     Edge 72, Type (0, 0), BuildingBlock: MIFKUJ_clean_linker_0, # of connection points: 2
#     Edge 73, Type (0, 0), BuildingBlock: MIFKUJ_clean_linker_0, # of connection points: 2
#     Edge 74, Type (0, 0), BuildingBlock: MIFKUJ_clean_linker_0, # of connection points: 2
#     Edge 75, Type (0, 0), BuildingBlock: MIFKUJ_clean_linker_0, # of connection points: 2
#     Edge 76, Type (0, 0), BuildingBlock: MIFKUJ_clean_linker_0, # of connection points: 2
#     Edge 77, Type (0, 0), BuildingBlock: MIFKUJ_clean_linker_0, # of connection points: 2
#     Edge 78, Type (0, 0), BuildingBlock: MIFKUJ_clean_linker_0, # of connection points: 2
#     Edge 79, Type (0, 0), BuildingBlock: MIFKUJ_clean_linker_0, # of connection points: 2
#     Edge 80, Type (0, 0), BuildingBlock: MIFKUJ_clean_linker_0, # of connection points: 2
#     Edge 81, Type (0, 0), BuildingBlock: MIFKUJ_clean_linker_0, # of connection points: 2
#     Edge 82, Type (0, 0), BuildingBlock: MIFKUJ_clean_linker_0, # of connection points: 2
#     Edge 83, Type (0, 0), BuildingBlock: MIFKUJ_clean_linker_0, # of connection points: 2
#     Edge 84, Type (0, 0), BuildingBlock: MIFKUJ_clean_linker_0, # of connection points: 2
#     Edge 85, Type (0, 0), BuildingBlock: MIFKUJ_clean_linker_0, # of connection points: 2
#     Edge 86, Type (0, 0), BuildingBlock: MIFKUJ_clean_linker_0, # of connection points: 2
#     Edge 87, Type (0, 0), BuildingBlock: MIFKUJ_clean_linker_0, # of connection points: 2
#     Edge 88, Type (0, 0), BuildingBlock: MIFKUJ_clean_linker_0, # of connection points: 2
#     Edge 89, Type (0, 0), BuildingBlock: MIFKUJ_clean_linker_0, # of connection points: 2
#     Edge 90, Type (0, 0), BuildingBlock: MIFKUJ_clean_linker_0, # of connection points: 2
#     Edge 91, Type (0, 0), BuildingBlock: MIFKUJ_clean_linker_0, # of connection points: 2
#     Edge 92, Type (0, 0), BuildingBlock: MIFKUJ_clean_linker_0, # of connection points: 2
#     Edge 93, Type (0, 0), BuildingBlock: MIFKUJ_clean_linker_0, # of connection points: 2
#     Edge 94, Type (0, 0), BuildingBlock: MIFKUJ_clean_linker_0, # of connection points: 2
#     Edge 95, Type (0, 0), BuildingBlock: MIFKUJ_clean_linker_0, # of connection points: 2
#     Edge 96, Type (0, 0), BuildingBlock: MIFKUJ_clean_linker_0, # of connection points: 2
#     Edge 97, Type (0, 0), BuildingBlock: MIFKUJ_clean_linker_0, # of connection points: 2
#     Edge 98, Type (0, 0), BuildingBlock: MIFKUJ_clean_linker_0, # of connection points: 2
#     Edge 99, Type (0, 0), BuildingBlock: MIFKUJ_clean_linker_0, # of connection points: 2
#     Edge 100, Type (0, 0), BuildingBlock: MIFKUJ_clean_linker_0, # of connection points: 2
#     Edge 101, Type (0, 0), BuildingBlock: MIFKUJ_clean_linker_0, # of connection points: 2
#     Edge 102, Type (0, 0), BuildingBlock: MIFKUJ_clean_linker_0, # of connection points: 2
#     Edge 103, Type (0, 0), BuildingBlock: MIFKUJ_clean_linker_0, # of connection points: 2
#     Edge 104, Type (0, 0), BuildingBlock: MIFKUJ_clean_linker_0, # of connection points: 2
#     Edge 105, Type (0, 0), BuildingBlock: MIFKUJ_clean_linker_0, # of connection points: 2
#     Edge 106, Type (0, 0), BuildingBlock: MIFKUJ_clean_linker_0, # of connection points: 2
#     Edge 107, Type (0, 0), BuildingBlock: MIFKUJ_clean_linker_0, # of connection points: 2
#     Edge 108, Type (0, 0), BuildingBlock: MIFKUJ_clean_linker_0, # of connection points: 2
#     Edge 109, Type (0, 0), BuildingBlock: MIFKUJ_clean_linker_0, # of connection points: 2
#     Edge 110, Type (0, 0), BuildingBlock: MIFKUJ_clean_linker_0, # of connection points: 2
#     Edge 111, Type (0, 0), BuildingBlock: MIFKUJ_clean_linker_0, # of connection points: 2
#     Edge 112, Type (0, 0), BuildingBlock: MIFKUJ_clean_linker_0, # of connection points: 2
#     Edge 113, Type (0, 0), BuildingBlock: MIFKUJ_clean_linker_0, # of connection points: 2
#     Edge 114, Type (0, 0), BuildingBlock: MIFKUJ_clean_linker_0, # of connection points: 2
#     Edge 115, Type (0, 0), BuildingBlock: MIFKUJ_clean_linker_0, # of connection points: 2
#     Edge 116, Type (0, 0), BuildingBlock: MIFKUJ_clean_linker_0, # of connection points: 2
#     Edge 117, Type (0, 0), BuildingBlock: MIFKUJ_clean_linker_0, # of connection points: 2
#     Edge 118, Type (0, 0), BuildingBlock: MIFKUJ_clean_linker_0, # of connection points: 2
#     Edge 119, Type (0, 0), BuildingBlock: MIFKUJ_clean_linker_0, # of connection points: 2
#     Edge 120, Type (0, 0), BuildingBlock: MIFKUJ_clean_linker_0, # of connection points: 2
#     Edge 121, Type (0, 0), BuildingBlock: MIFKUJ_clean_linker_0, # of connection points: 2
#     Edge 122, Type (0, 0), BuildingBlock: MIFKUJ_clean_linker_0, # of connection points: 2
#     Edge 123, Type (0, 0), BuildingBlock: MIFKUJ_clean_linker_0, # of connection points: 2
#     Edge 124, Type (0, 0), BuildingBlock: MIFKUJ_clean_linker_0, # of connection points: 2
#     Edge 125, Type (0, 0), BuildingBlock: MIFKUJ_clean_linker_0, # of connection points: 2
#     Edge 126, Type (0, 0), BuildingBlock: MIFKUJ_clean_linker_0, # of connection points: 2
#     Edge 127, Type (0, 0), BuildingBlock: MIFKUJ_clean_linker_0, # of connection points: 2
# Relax obj value: 0.068
# Max RMSD: 0.129
# Mean RMSD: 0.129
data_MOF--net-som--node1-BETFEN_clean_sbu_0--edge1-MIFKUJ_clean_linker_0
_symmetry_space_group_name_H-M    P1
_symmetry_Int_Tables_number       1
_symmetry_cell_setting            triclinic
loop_
_symmetry_equiv_pos_as_xyz
'x, y, z'
_cell_length_a     31.039065
_cell_length_b     73.446119
_cell_length_c     149.50818
_cell_angle_alpha  90.027231
_cell_angle_beta   90.096022
_cell_angle_gamma 89.993329
loop_
_atom_site_label
_atom_site_type_symbol
_atom_site_fract_x
_atom_site_fract_y
_atom_site_fract_z
_atom_type_partial_charge
Pr0 Pr 0.9982 0.49813 0.07042 0.0
Pr1 Pr 0.09604 0.48212 0.07122 0.0
C2 C 0.91517 0.50599 0.06642 0.0
C3 C 0.86908 0.50073 0.06727 0.0
C4 C 0.84859 0.49938 0.07564 0.0
C5 C 0.80401 0.49626 0.07617 0.0
C6 C 0.77879 0.49451 0.06837 0.0
C7 C 0.79972 0.4954 0.06003 0.0
C8 C 0.84419 0.49849 0.0595 0.0
C9 C 0.03904 0.49846 0.08719 0.0
C10 C 1.01269 0.45341 0.07331 0.0
C11 C 0.17502 0.47289 0.07736 0.0
C12 C 0.22209 0.47489 0.0761 0.0
C13 C 0.24054 0.47803 0.06767 0.0
C14 C 0.2855 0.47943 0.06675 0.0
C15 C 0.31298 0.4778 0.07424 0.0
C16 C 0.29395 0.47483 0.08267 0.0
C17 C 0.2492 0.4733 0.08356 0.0
C18 C 0.07163 0.48706 0.05322 0.0
C19 C 0.07712 0.52664 0.06812 0.0
O20 O 0.93996 0.49619 0.06122 0.0
O21 O 0.93524 0.51243 0.07346 0.0
O22 O 0.0417 0.48591 0.08143 0.0
O23 O 1.01208 0.511 0.0846 0.0
O24 O 0.05524 0.4553 0.07341 0.0
O25 O 0.9859 0.46717 0.07215 0.0
O26 O 0.1537 0.48713 0.08025 0.0
O27 O 0.1535 0.46311 0.07152 0.0
O28 O 0.04916 0.49041 0.06007 0.0
O29 O 0.10884 0.48065 0.05567 0.0
O30 O 0.0375 0.52285 0.06551 0.0
O31 O 0.10324 0.51415 0.07156 0.0
H32 H 0.86677 0.50113 0.08176 0.0
H33 H 0.7891 0.49582 0.08271 0.0
H34 H 0.78166 0.49381 0.05387 0.0
H35 H 0.85904 0.49952 0.05296 0.0
H36 H 0.22026 0.47925 0.06179 0.0
H37 H 0.29869 0.48147 0.06012 0.0
H38 H 0.31355 0.47386 0.08865 0.0
H39 H 0.23564 0.47083 0.09012 0.0
Pr40 Pr 0.28536 0.74331 0.07033 0.0
Pr41 Pr 0.19531 0.75926 0.07077 0.0
C42 C 0.36933 0.73432 0.06773 0.0
C43 C 0.41569 0.73904 0.06908 0.0
C44 C 0.44051 0.72928 0.07533 0.0
C45 C 0.48521 0.73186 0.07594 0.0
C46 C 0.5066 0.7442 0.07026 0.0
C47 C 0.48155 0.75432 0.06416 0.0
C48 C 0.43677 0.75174 0.06356 0.0
C49 C 0.24797 0.7451 0.08747 0.0
C50 C 0.27475 0.78794 0.07162 0.0
C51 C 0.11192 0.76795 0.07424 0.0
C52 C 0.06534 0.76362 0.07285 0.0
C53 C 0.04092 0.77342 0.06654 0.0
C54 C 0.99613 0.7711 0.06592 0.0
C55 C 0.97426 0.75898 0.07163 0.0
C56 C 0.99887 0.74886 0.07781 0.0
C57 C 0.0437 0.7512 0.07843 0.0
C58 C 0.22975 0.75756 0.05346 0.0
C59 C 0.20914 0.71415 0.0683 0.0
O60 O 0.34652 0.74377 0.06201 0.0
O61 O 0.34682 0.72879 0.0746 0.0
O62 O 0.24682 0.75763 0.0817 0.0
O63 O 0.2697 0.73124 0.08455 0.0
O64 O 0.23513 0.7854 0.07459 0.0
O65 O 0.29756 0.77429 0.06846 0.0
O66 O 0.13513 0.75731 0.07936 0.0
O67 O 0.13386 0.77481 0.06758 0.0
O68 O 0.2332 0.74503 0.05925 0.0
O69 O 0.20716 0.77108 0.0565 0.0
O70 O 0.249 0.71753 0.06585 0.0
O71 O 0.18372 0.7273 0.07129 0.0
H72 H 0.42551 0.71926 0.07963 0.0
H73 H 0.50307 0.72402 0.08083 0.0
H74 H 0.49669 0.76381 0.0596 0.0
H75 H 0.41889 0.75935 0.05858 0.0
H76 H 0.05629 0.78326 0.0622 0.0
H77 H 0.97859 0.77894 0.06098 0.0
H78 H 0.98333 0.73956 0.0824 0.0
H79 H 0.06122 0.7436 0.08347 0.0
Pr80 Pr 1.00284 0.74428 0.19135 0.0
Pr81 Pr 0.09699 0.76031 0.19246 0.0
C82 C 0.91793 0.73597 0.19053 0.0
C83 C 0.8721 0.73971 0.19266 0.0
C84 C 0.84342 0.72501 0.19326 0.0
C85 C 0.79901 0.72793 0.19412 0.0
C86 C 0.78192 0.7457 0.19444 0.0
C87 C 0.81103 0.76047 0.19408 0.0
C88 C 0.8556 0.75751 0.19317 0.0
C89 C 0.0508 0.7447 0.17539 0.0
C90 C 1.01552 0.78851 0.19354 0.0
C91 C 0.17793 0.76984 0.18766 0.0
C92 C 0.22468 0.76748 0.18962 0.0
C93 C 0.25058 0.78291 0.19101 0.0
C94 C 0.29535 0.78127 0.19203 0.0
C95 C 0.31562 0.76412 0.19165 0.0
C96 C 0.28944 0.74861 0.19046 0.0
C97 C 0.24459 0.75026 0.18945 0.0
C98 C 0.06889 0.75519 0.21012 0.0
C99 C 0.07869 0.71543 0.19508 0.0
O100 O 0.94357 0.72937 0.1967 0.0
O101 O 0.93737 0.74678 0.18487 0.0
O102 O 0.04849 0.75758 0.18097 0.0
O103 O 0.02823 0.73086 0.17803 0.0
O104 O 0.0555 0.78687 0.19059 0.0
O105 O 0.99229 0.77422 0.19577 0.0
O106 O 0.15698 0.75606 0.18416 0.0
O107 O 0.15459 0.77949 0.19323 0.0
O108 O 0.04697 0.75158 0.20318 0.0
O109 O 0.10609 0.76197 0.20798 0.0
O110 O 0.03765 0.71878 0.19656 0.0
O111 O 0.10579 0.72826 0.19238 0.0
H112 H 0.85526 0.71117 0.19276 0.0
H113 H 0.77799 0.71618 0.19421 0.0
H114 H 0.79941 0.77434 0.19443 0.0
H115 H 0.87701 0.76911 0.19269 0.0
H116 H 0.23622 0.79636 0.19113 0.0
H117 H 0.3141 0.79352 0.19309 0.0
H118 H 0.30369 0.73518 0.19003 0.0
H119 H 0.22568 0.73807 0.18834 0.0
Pr120 Pr 0.28802 0.49914 0.19095 0.0
Pr121 Pr 0.1966 0.48303 0.19086 0.0
C122 C 0.37131 0.50817 0.19422 0.0
C123 C 0.41774 0.50318 0.19374 0.0
C124 C 0.43808 0.49885 0.18561 0.0
C125 C 0.48289 0.4961 0.18526 0.0
C126 C 0.5085 0.49774 0.19303 0.0
C127 C 0.48773 0.50161 0.20118 0.0
C128 C 0.44305 0.5043 0.20152 0.0
C129 C 0.24807 0.49856 0.17408 0.0
C130 C 0.27694 0.45444 0.18852 0.0
C131 C 0.11333 0.47379 0.18764 0.0
C132 C 0.06664 0.47818 0.1882 0.0
C133 C 0.04704 0.48385 0.1962 0.0
C134 C 1.0021 0.48614 0.19668 0.0
C135 C 0.97565 0.48274 0.18917 0.0
C136 C 0.99573 0.47744 0.18114 0.0
C137 C 0.04051 0.47518 0.18067 0.0
C138 C 0.23461 0.48409 0.20789 0.0
C139 C 0.21074 0.52819 0.19306 0.0
O140 O 0.34692 0.4998 0.20005 0.0
O141 O 0.35092 0.5124 0.18684 0.0
O142 O 0.24676 0.4858 0.17975 0.0
O143 O 0.27249 0.51179 0.17686 0.0
O144 O 0.23526 0.45663 0.18703 0.0
O145 O 0.30187 0.46804 0.19099 0.0
O146 O 0.13717 0.48258 0.18187 0.0
O147 O 0.13403 0.46951 0.19496 0.0
O148 O 0.23676 0.49676 0.20215 0.0
O149 O 0.21157 0.47061 0.20492 0.0
O150 O 0.25143 0.52512 0.19501 0.0
O151 O 0.18444 0.5149 0.19059 0.0
H152 H 0.41957 0.49796 0.17948 0.0
H153 H 0.49763 0.49328 0.17885 0.0
H154 H 0.50606 0.50267 0.20733 0.0
H155 H 0.42832 0.50768 0.20788 0.0
H156 H 0.06629 0.48616 0.20215 0.0
H157 H 0.98802 0.49005 0.20301 0.0
H158 H 0.97686 0.47502 0.17516 0.0
H159 H 0.05472 0.47072 0.17443 0.0
Pr160 Pr 0.93451 0.50947 0.94137 0.0
Pr161 Pr 0.03045 0.49266 0.94165 0.0
C162 C 0.85445 0.51824 0.93569 0.0
C163 C 0.80756 0.51537 0.93733 0.0
C164 C 0.78246 0.52944 0.941 0.0
C165 C 0.73767 0.5276 0.94181 0.0
C166 C 0.71649 0.5117 0.93889 0.0
C167 C 0.74182 0.49749 0.93535 0.0
C168 C 0.78668 0.49928 0.9346 0.0
C169 C 0.96024 0.5049 0.9593 0.0
C170 C 0.95145 0.46504 0.9451 0.0
C171 C 0.11407 0.48409 0.94466 0.0
C172 C 0.16011 0.48861 0.94297 0.0
C173 C 0.18627 0.47596 0.93848 0.0
C174 C 0.23074 0.47878 0.93768 0.0
C175 C 0.25046 0.4943 0.9414 0.0
C176 C 0.22403 0.50725 0.94568 0.0
C177 C 0.17943 0.50443 0.94647 0.0
C178 C 0.98708 0.49276 0.92514 0.0
C179 C 0.01815 0.5376 0.939 0.0
O180 O 0.87684 0.50464 0.93241 0.0
O181 O 0.87627 0.52822 0.94141 0.0
O182 O 0.98214 0.50104 0.95243 0.0
O183 O 0.92324 0.51161 0.95691 0.0
O184 O 0.99129 0.46882 0.94752 0.0
O185 O 0.9259 0.47744 0.94141 0.0
O186 O 0.09157 0.49477 0.94989 0.0
O187 O 0.09136 0.47704 0.93813 0.0
O188 O 0.9872 0.50549 0.93081 0.0
O189 O 1.01157 0.4794 0.92777 0.0
O190 O 0.97554 0.53613 0.93905 0.0
O191 O 0.04418 0.52353 0.94 0.0
H192 H 0.79741 0.54206 0.94311 0.0
H193 H 0.71964 0.53874 0.94473 0.0
H194 H 0.72694 0.48513 0.93289 0.0
H195 H 0.80483 0.48817 0.9317 0.0
H196 H 0.17245 0.46359 0.93576 0.0
H197 H 0.24974 0.46866 0.9342 0.0
H198 H 0.23801 0.51928 0.94869 0.0
H199 H 0.16036 0.51443 0.95003 0.0
Pr200 Pr 0.83908 0.23223 0.94049 0.0
Pr201 Pr 0.74825 0.24804 0.93957 0.0
C202 C 0.92325 0.22359 0.93803 0.0
C203 C 0.96955 0.22822 0.93938 0.0
C204 C 0.99515 0.21738 0.94502 0.0
C205 C 0.03986 0.21996 0.94552 0.0
C206 C 0.06036 0.23339 0.94033 0.0
C207 C 0.03454 0.24455 0.93484 0.0
C208 C 0.98977 0.24199 0.93436 0.0
C209 C 0.798 0.23318 0.95717 0.0
C210 C 0.82414 0.27727 0.94301 0.0
C211 C 0.66421 0.25684 0.94192 0.0
C212 C 0.61804 0.25193 0.94062 0.0
C213 C 0.59186 0.26278 0.9351 0.0
C214 C 0.54724 0.25991 0.93464 0.0
C215 C 0.52746 0.24618 0.93977 0.0
C216 C 0.55387 0.23502 0.94513 0.0
C217 C 0.59855 0.23785 0.94556 0.0
C218 C 0.79162 0.24724 0.92306 0.0
C219 C 0.75989 0.20338 0.93726 0.0
O220 O 0.90056 0.23315 0.93234 0.0
O221 O 0.9007 0.21792 0.94487 0.0
O222 O 0.79647 0.24582 0.9514 0.0
O223 O 0.82185 0.21979 0.95441 0.0
O224 O 0.78304 0.27398 0.94435 0.0
O225 O 0.8512 0.26415 0.9407 0.0
O226 O 0.68696 0.24765 0.94776 0.0
O227 O 0.68672 0.26218 0.93501 0.0
O228 O 0.79176 0.2346 0.92879 0.0
O229 O 0.76658 0.26048 0.92556 0.0
O230 O 0.80188 0.20564 0.9363 0.0
O231 O 0.73414 0.21695 0.93935 0.0
H232 H 0.98075 0.20646 0.94886 0.0
H233 H 0.05854 0.21093 0.94974 0.0
H234 H 0.04898 0.2552 0.93084 0.0
H235 H 0.9712 0.25054 0.92988 0.0
H236 H 0.60573 0.27391 0.93132 0.0
H237 H 0.52806 0.26894 0.93052 0.0
H238 H 0.53995 0.22415 0.94907 0.0
H239 H 0.61761 0.22928 0.94993 0.0
Pr240 Pr 0.92575 0.22992 0.81951 0.0
Pr241 Pr 0.03064 0.24394 0.8184 0.0
C242 C 0.8469 0.22141 0.82578 0.0
C243 C 0.80004 0.22345 0.82441 0.0
C244 C 0.78158 0.22437 0.81584 0.0
C245 C 0.73673 0.22576 0.81484 0.0
C246 C 0.70957 0.22623 0.82239 0.0
C247 C 0.72849 0.22555 0.83094 0.0
C248 C 0.77317 0.22417 0.83193 0.0
C249 C 0.95485 0.23342 0.80172 0.0
C250 C 0.95087 0.27428 0.81699 0.0
C251 C 0.10993 0.25118 0.81208 0.0
C252 C 0.15623 0.2472 0.81327 0.0
C253 C 0.17504 0.24544 0.82178 0.0
C254 C 0.21956 0.24262 0.82264 0.0
C255 C 0.24605 0.24153 0.81501 0.0
C256 C 0.22669 0.24281 0.80652 0.0
C257 C 0.18232 0.24561 0.80567 0.0
C258 C 0.99782 0.24151 0.83603 0.0
C259 C 1.00852 0.20036 0.8223 0.0
O260 O 0.86827 0.23588 0.82835 0.0
O261 O 0.8683 0.21102 0.82019 0.0
O262 O 0.97569 0.23634 0.80883 0.0
O263 O 0.91598 0.22822 0.80379 0.0
O264 O 0.99169 0.27029 0.81527 0.0
O265 O 0.92152 0.26197 0.81934 0.0
O266 O 0.08573 0.238 0.80894 0.0
O267 O 0.09079 0.26126 0.81816 0.0
O268 O 0.97993 0.23801 0.8287 0.0
O269 O 0.03747 0.24643 0.83441 0.0
O270 O 0.96647 0.20353 0.82308 0.0
O271 O 0.03724 0.21274 0.81997 0.0
H272 H 0.80174 0.22388 0.80994 0.0
H273 H 0.72329 0.22612 0.80815 0.0
H274 H 0.70879 0.22621 0.8369 0.0
H275 H 0.7868 0.22356 0.8386 0.0
H276 H 0.15549 0.2465 0.82775 0.0
H277 H 0.23337 0.24178 0.82928 0.0
H278 H 0.24586 0.24165 0.8005 0.0
H279 H 0.16839 0.24676 0.79904 0.0
Pr280 Pr 0.83929 0.50836 0.81948 0.0
Pr281 Pr 0.75007 0.49232 0.82024 0.0
C282 C 0.92287 0.5182 0.82186 0.0
C283 C 0.96959 0.51365 0.82148 0.0
C284 C 0.98972 0.50738 0.81364 0.0
C285 C 0.03472 0.50507 0.81332 0.0
C286 C 0.06072 0.50904 0.82083 0.0
C287 C 0.04011 0.51488 0.82872 0.0
C288 C 0.99531 0.51723 0.829 0.0
C289 C 0.79956 0.50661 0.80266 0.0
C290 C 0.82595 0.46293 0.81786 0.0
C291 C 0.66545 0.48297 0.8192 0.0
C292 C 0.61946 0.48894 0.81884 0.0
C293 C 0.59784 0.49531 0.8265 0.0
C294 C 0.55317 0.49843 0.82635 0.0
C295 C 0.52877 0.49524 0.81854 0.0
C296 C 0.55077 0.48943 0.81081 0.0
C297 C 0.59537 0.48628 0.81097 0.0
C298 C 0.79362 0.49345 0.83677 0.0
C299 C 0.75984 0.53696 0.82041 0.0
O300 O 0.89931 0.51105 0.8282 0.0
O301 O 0.9017 0.52063 0.81439 0.0
O302 O 0.79845 0.49401 0.80845 0.0
O303 O 0.82131 0.52054 0.80553 0.0
O304 O 0.78484 0.46585 0.81628 0.0
O305 O 0.85229 0.47645 0.82003 0.0
O306 O 0.68987 0.48529 0.81217 0.0
O307 O 0.6866 0.48466 0.82672 0.0
O308 O 0.79203 0.50637 0.83119 0.0
O309 O 0.7722 0.47944 0.83389 0.0
O310 O 0.80006 0.53476 0.8231 0.0
O311 O 0.73692 0.52304 0.8176 0.0
H312 H 0.97086 0.50465 0.80769 0.0
H313 H 0.04921 0.50072 0.8071 0.0
H314 H 0.05861 0.51776 0.8347 0.0
H315 H 0.98067 0.52229 0.83508 0.0
H316 H 0.61513 0.49734 0.83272 0.0
H317 H 0.53752 0.50267 0.83247 0.0
H318 H 0.53343 0.48709 0.80463 0.0
H319 H 0.61084 0.48123 0.80497 0.0
Pr320 Pr 0.99992 -0.00206 0.57226 0.0
Pr321 Pr 0.09677 0.98211 0.57234 0.0
C322 C 0.91652 0.00623 0.56893 0.0
C323 C 0.87045 0.00202 0.57067 0.0
C324 C 0.84399 0.01542 0.5745 0.0
C325 C 0.79949 0.01272 0.57528 0.0
C326 C 0.78013 -0.00344 0.57218 0.0
C327 C 0.80687 0.98291 0.56857 0.0
C328 C 0.85148 0.98561 0.56781 0.0
C329 C 0.0414 -0.00322 0.589 0.0
C330 C 1.01407 0.95306 0.57425 0.0
C331 C 0.17699 0.97322 0.57782 0.0
C332 C 0.22381 0.97584 0.57608 0.0
C333 C 0.2484 0.96156 0.57247 0.0
C334 C 0.29318 0.9632 0.57155 0.0
C335 C 0.3147 0.97914 0.57429 0.0
C336 C 0.28991 0.99355 0.57778 0.0
C337 C 0.24512 0.99192 0.57867 0.0
C338 C 0.07102 0.98764 0.55446 0.0
C339 C 0.07816 0.02652 0.56926 0.0
O340 O 0.93903 0.99487 0.56407 0.0
O341 O 0.93905 0.01402 0.57528 0.0
O342 O 0.04392 0.98481 0.58296 0.0
O343 O 1.01432 0.00948 0.58671 0.0
O344 O 0.05661 0.95501 0.5743 0.0
O345 O 0.98731 0.96691 0.57338 0.0
O346 O 0.15513 0.98701 0.58106 0.0
O347 O 0.15468 0.9632 0.57221 0.0
O348 O 0.04886 0.99079 0.56138 0.0
O349 O 0.10839 0.98118 0.55676 0.0
O350 O 0.03829 0.02259 0.56692 0.0
O351 O 0.10443 0.01415 0.57273 0.0
H352 H 0.85761 0.02824 0.57671 0.0
H353 H 0.78019 0.02342 0.57824 0.0
H354 H 0.79318 0.97036 0.56604 0.0
H355 H 0.87086 0.97503 0.56477 0.0
H356 H 0.23309 0.94893 0.57048 0.0
H357 H 0.31095 0.9519 0.56872 0.0
H358 H 0.30524 0.00595 0.58008 0.0
H359 H 0.22739 0.00315 0.58159 0.0
Pr360 Pr 0.27601 0.24602 0.56893 0.0
Pr361 Pr 0.17124 0.2597 0.57018 0.0
C362 C 0.3558 0.23779 0.56315 0.0
C363 C 0.40223 0.24138 0.56456 0.0
C364 C 0.42187 0.23971 0.573 0.0
C365 C 0.4664 0.24235 0.57396 0.0
C366 C 0.49217 0.2467 0.56651 0.0
C367 C 0.47207 0.24872 0.55813 0.0
C368 C 0.42771 0.24606 0.55717 0.0
C369 C 0.24498 0.25057 0.5867 0.0
C370 C 0.25218 0.29008 0.57005 0.0
C371 C 0.09262 0.26776 0.57665 0.0
C372 C 0.04594 0.26451 0.57539 0.0
C373 C 0.02464 0.26902 0.56738 0.0
C374 C 0.97993 0.26682 0.56662 0.0
C375 C 0.95561 0.2602 0.57387 0.0
C376 C 0.97719 0.25541 0.5818 0.0
C377 C 0.02184 0.25747 0.58252 0.0
C378 C 0.19844 0.25501 0.55234 0.0
C379 C 0.1966 0.21556 0.56737 0.0
O380 O 0.33272 0.25108 0.55978 0.0
O381 O 0.33517 0.22801 0.56912 0.0
O382 O 0.22635 0.25294 0.57936 0.0
O383 O 0.28468 0.24594 0.58501 0.0
O384 O 0.21181 0.28668 0.57254 0.0
O385 O 0.27965 0.27731 0.56756 0.0
O386 O 0.11579 0.25408 0.57958 0.0
O387 O 0.11276 0.27801 0.5708 0.0
O388 O 0.22008 0.25245 0.55939 0.0
O389 O 0.15983 0.26041 0.55451 0.0
O390 O 0.2373 0.21973 0.56569 0.0
O391 O 0.16716 0.22766 0.56991 0.0
H392 H 0.40297 0.23614 0.57882 0.0
H393 H 0.48078 0.24053 0.58051 0.0
H394 H 0.49064 0.25238 0.55227 0.0
H395 H 0.41329 0.24747 0.5506 0.0
H396 H 0.04235 0.27446 0.56175 0.0
H397 H 0.96425 0.27074 0.56044 0.0
H398 H 0.95956 0.25003 0.58746 0.0
H399 H 0.03758 0.25372 0.58873 0.0
Pr400 Pr 1.00575 0.24207 0.69139 0.0
Pr401 Pr 0.10321 0.25835 0.69069 0.0
C402 C 0.92261 0.23342 0.69491 0.0
C403 C 0.8764 0.23857 0.69404 0.0
C404 C 0.85585 0.23989 0.68566 0.0
C405 C 0.81122 0.24292 0.6851 0.0
C406 C 0.78598 0.24461 0.69289 0.0
C407 C 0.80693 0.24374 0.70124 0.0
C408 C 0.85146 0.24074 0.7018 0.0
C409 C 0.04466 0.24464 0.67442 0.0
C410 C 0.01986 0.28724 0.69084 0.0
C411 C 0.18206 0.26759 0.68455 0.0
C412 C 0.22912 0.26489 0.68567 0.0
C413 C 0.24855 0.26329 0.69413 0.0
C414 C 0.29349 0.26145 0.69491 0.0
C415 C 0.31999 0.26117 0.68725 0.0
C416 C 0.30007 0.2625 0.6788 0.0
C417 C 0.2553 0.26438 0.67804 0.0
C418 C 0.08004 0.25161 0.70864 0.0
C419 C 0.08516 0.21375 0.69337 0.0
O420 O 0.94684 0.24281 0.70041 0.0
O421 O 0.94332 0.22775 0.68781 0.0
O422 O 0.04762 0.25621 0.68064 0.0
O423 O 0.01868 0.23153 0.67669 0.0
O424 O 0.06192 0.28537 0.68944 0.0
O425 O 0.99386 0.27324 0.69206 0.0
O426 O 0.15971 0.25393 0.68132 0.0
O427 O 0.16139 0.27697 0.69066 0.0
O428 O 0.05745 0.24882 0.70174 0.0
O429 O 0.11704 0.25836 0.70627 0.0
O430 O 0.04595 0.21742 0.69624 0.0
O431 O 0.10994 0.22628 0.68958 0.0
H432 H 0.87402 0.23818 0.67954 0.0
H433 H 0.7963 0.24335 0.67855 0.0
H434 H 0.78888 0.24527 0.70739 0.0
H435 H 0.8663 0.23971 0.70834 0.0
H436 H 0.22909 0.26364 0.70013 0.0
H437 H 0.3075 0.26063 0.70153 0.0
H438 H 0.31905 0.262 0.67273 0.0
H439 H 0.24104 0.2656 0.67144 0.0
Pr440 Pr 0.27222 0.99382 0.69461 0.0
Pr441 Pr 0.16822 0.97841 0.69351 0.0
C442 C 0.35178 0.00174 0.70064 0.0
C443 C 0.39815 -0.00205 0.69918 0.0
C444 C 0.41857 0.00178 0.691 0.0
C445 C 0.46303 -0.00096 0.69003 0.0
C446 C 0.488 0.99238 0.69719 0.0
C447 C 0.46724 0.98826 0.70529 0.0
C448 C 0.4229 0.99104 0.70627 0.0
C449 C 0.23937 0.99064 0.67697 0.0
C450 C 0.25262 0.94982 0.69092 0.0
C451 C 0.08885 0.96962 0.68753 0.0
C452 C 0.04204 0.97212 0.68905 0.0
C453 C 0.02227 0.96754 0.6972 0.0
C454 C 0.97754 0.96937 0.69824 0.0
C455 C 0.95169 0.97584 0.69117 0.0
C456 C 0.97177 0.98052 0.68306 0.0
C457 C 0.01633 0.97864 0.68202 0.0
C458 C 0.19795 0.98227 0.71128 0.0
C459 C 0.19052 0.02297 0.69609 0.0
O460 O 0.32834 0.98845 0.70391 0.0
O461 O 0.33131 0.01183 0.69473 0.0
O462 O 0.22185 0.98698 0.68429 0.0
O463 O 0.27849 -0.00372 0.67859 0.0
O464 O 0.21042 0.95247 0.69 0.0
O465 O 0.28046 0.96258 0.69326 0.0
O466 O 0.11045 0.98376 0.68464 0.0
O467 O 0.11077 0.95939 0.69312 0.0
O468 O 0.21795 0.98562 0.70413 0.0
O469 O 0.15944 0.97651 0.70926 0.0
O470 O 0.23124 0.01946 0.69816 0.0
O471 O 0.16262 0.01042 0.69333 0.0
H472 H 0.40035 0.00705 0.68539 0.0
H473 H 0.47784 0.00211 0.68365 0.0
H474 H 0.48542 0.98329 0.71098 0.0
H475 H 0.40801 0.98806 0.71266 0.0
H476 H 0.04125 0.96249 0.70276 0.0
H477 H 0.96325 0.96582 0.70461 0.0
H478 H 0.95292 0.98529 0.67743 0.0
H479 H 0.03071 0.98211 0.67565 0.0
Pr480 Pr 0.92275 0.01084 0.44325 0.0
Pr481 Pr 0.02685 -0.00338 0.44408 0.0
C482 C 0.84378 0.02054 0.43744 0.0
C483 C 0.79709 0.01798 0.43907 0.0
C484 C 0.77074 0.0333 0.44032 0.0
C485 C 0.72609 0.0314 0.44123 0.0
C486 C 0.7066 0.0141 0.44084 0.0
C487 C 0.73321 -0.00128 0.43975 0.0
C488 C 0.77792 0.00063 0.43888 0.0
C489 C 0.95025 0.00464 0.461 0.0
C490 C 0.94672 0.9664 0.44462 0.0
C491 C 0.10675 0.98693 0.44929 0.0
C492 C 0.15315 0.98966 0.44741 0.0
C493 C 0.17963 0.97444 0.44602 0.0
C494 C 0.22414 0.97649 0.44493 0.0
C495 C 0.24336 0.99384 0.44527 0.0
C496 C 0.21659 0.00913 0.44647 0.0
C497 C 0.172 0.00708 0.44753 0.0
C498 C 0.99575 0.00275 0.42642 0.0
C499 C 1.00478 0.04073 0.44382 0.0
O500 O 0.86544 0.00672 0.43418 0.0
O501 O 0.8657 0.03021 0.44327 0.0
O502 O 0.97181 0.00253 0.45391 0.0
O503 O 0.91165 0.01014 0.4589 0.0
O504 O 0.98734 0.9702 0.44661 0.0
O505 O 0.9177 0.97892 0.4424 0.0
O506 O 0.0854 0.00057 0.45281 0.0
O507 O 0.08411 0.97739 0.44353 0.0
O508 O 0.97714 0.00468 0.43378 0.0
O509 O 0.03531 -0.00216 0.42804 0.0
O510 O 0.96441 0.03763 0.44121 0.0
O511 O 0.03181 0.02772 0.4462 0.0
H512 H 0.78468 0.04682 0.44048 0.0
H513 H 0.70684 0.04353 0.44221 0.0
H514 H 0.71941 0.98521 0.43931 0.0
H515 H 0.79732 0.98854 0.43789 0.0
H516 H 0.16592 0.96087 0.44591 0.0
H517 H 0.24352 0.96442 0.44386 0.0
H518 H 0.23018 0.02269 0.44686 0.0
H519 H 0.15247 0.0191 0.44861 0.0
Pr520 Pr 0.83985 0.73236 0.44191 0.0
Pr521 Pr 0.74866 0.74786 0.44263 0.0
C522 C 0.92299 0.72428 0.43792 0.0
C523 C 0.96953 0.72866 0.43911 0.0
C524 C 0.99047 0.72682 0.44742 0.0
C525 C 0.03528 0.72923 0.44813 0.0
C526 C 0.06036 0.7335 0.44056 0.0
C527 C 0.03907 0.73566 0.4323 0.0
C528 C 0.99438 0.73325 0.43159 0.0
C529 C 0.8072 0.73388 0.45935 0.0
C530 C 0.82449 0.77745 0.44428 0.0
C531 C 0.665 0.75621 0.44595 0.0
C532 C 0.61872 0.75122 0.44484 0.0
C533 C 0.59747 0.75279 0.43655 0.0
C534 C 0.55277 0.75004 0.4359 0.0
C535 C 0.52804 0.7457 0.44351 0.0
C536 C 0.54964 0.74374 0.45175 0.0
C537 C 0.59425 0.7465 0.4524 0.0
C538 C 0.78442 0.74581 0.42533 0.0
C539 C 0.75996 0.70334 0.4409 0.0
O540 O 0.89928 0.73532 0.43312 0.0
O541 O 0.90188 0.71688 0.44455 0.0
O542 O 0.80196 0.74626 0.45353 0.0
O543 O 0.83108 0.72079 0.45628 0.0
O544 O 0.78481 0.77391 0.44679 0.0
O545 O 0.85024 0.7644 0.44131 0.0
O546 O 0.68881 0.74649 0.45138 0.0
O547 O 0.68635 0.76232 0.43904 0.0
O548 O 0.78718 0.73367 0.43127 0.0
O549 O 0.7605 0.7592 0.42806 0.0
O550 O 0.80014 0.70592 0.43822 0.0
O551 O 0.73697 0.71684 0.44412 0.0
H552 H 0.97241 0.72323 0.45335 0.0
H553 H 0.05028 0.72768 0.45463 0.0
H554 H 0.0571 0.73866 0.42628 0.0
H555 H 0.97932 0.7345 0.42508 0.0
H556 H 0.61517 0.7565 0.43059 0.0
H557 H 0.53755 0.75143 0.42941 0.0
H558 H 0.53187 0.74068 0.45779 0.0
H559 H 0.60946 0.74545 0.45891 0.0
Pr560 Pr 0.93544 0.73104 0.32008 0.0
Pr561 Pr 0.03255 0.74729 0.32154 0.0
C562 C 0.85123 0.72178 0.3207 0.0
C563 C 0.80523 0.72714 0.3212 0.0
C564 C 0.7776 0.72183 0.31422 0.0
C565 C 0.73326 0.72492 0.31476 0.0
C566 C 0.71521 0.73337 0.32232 0.0
C567 C 0.74303 0.73919 0.32922 0.0
C568 C 0.78762 0.73602 0.32868 0.0
C569 C 0.98444 0.72992 0.30436 0.0
C570 C 0.95299 0.77619 0.31864 0.0
C571 C 0.11407 0.75637 0.31719 0.0
C572 C 0.1605 0.75318 0.31906 0.0
C573 C 0.18083 0.76028 0.32672 0.0
C574 C 0.22544 0.75834 0.32794 0.0
C575 C 0.25079 0.74928 0.32152 0.0
C576 C 0.2302 0.742 0.31392 0.0
C577 C 0.18574 0.74398 0.31271 0.0
C578 C 0.99429 0.74467 0.33869 0.0
C579 C 1.01561 0.70302 0.32484 0.0
O580 O 0.8756 0.72291 0.32786 0.0
O581 O 0.87189 0.72504 0.31326 0.0
O582 O 0.98392 0.74305 0.30988 0.0
O583 O 0.95926 0.71686 0.30701 0.0
O584 O 0.99472 0.77326 0.31781 0.0
O585 O 0.92492 0.76295 0.32025 0.0
O586 O 0.09261 0.74322 0.31325 0.0
O587 O 0.09102 0.76557 0.323 0.0
O588 O 0.97867 0.7404 0.33123 0.0
O589 O 0.03338 0.7506 0.33748 0.0
O590 O 0.97332 0.70539 0.32528 0.0
O591 O 0.04263 0.71605 0.32252 0.0
H592 H 0.79024 0.71487 0.3084 0.0
H593 H 0.71301 0.72054 0.30926 0.0
H594 H 0.7302 0.74565 0.33515 0.0
H595 H 0.80807 0.74019 0.33419 0.0
H596 H 0.16244 0.76756 0.33173 0.0
H597 H 0.24008 0.76395 0.33391 0.0
H598 H 0.24862 0.7352 0.30876 0.0
H599 H 0.17119 0.7386 0.30667 0.0
Pr600 Pr 0.84585 0.00971 0.32085 0.0
Pr601 Pr 0.75534 0.99506 0.32171 0.0
C602 C 0.92973 0.01862 0.32348 0.0
C603 C 0.97619 0.01388 0.3227 0.0
C604 C 0.99681 0.01221 0.31436 0.0
C605 C 0.04169 0.00988 0.31387 0.0
C606 C 0.06705 0.00931 0.3217 0.0
C607 C 0.04606 0.01049 0.33002 0.0
C608 C 1.00132 0.01277 0.3305 0.0
C609 C 0.80733 0.00634 0.30395 0.0
C610 C 0.82925 0.9645 0.32038 0.0
C611 C 0.67076 0.98621 0.32003 0.0
C612 C 0.62475 0.99203 0.31996 0.0
C613 C 0.60191 0.99486 0.32797 0.0
C614 C 0.55723 -0.00218 0.32786 0.0
C615 C 0.53408 -0.00207 0.31974 0.0
C616 C 0.55725 -0.00437 0.31173 0.0
C617 C 0.60188 0.99267 0.31184 0.0
C618 C 0.79643 -0.00174 0.33848 0.0
C619 C 0.76863 0.03943 0.32115 0.0
O620 O 0.90644 0.01007 0.32942 0.0
O621 O 0.90809 0.02297 0.31627 0.0
O622 O 0.80492 0.99452 0.3101 0.0
O623 O 0.83031 0.02023 0.30643 0.0
O624 O 0.78857 0.96784 0.3186 0.0
O625 O 0.85667 0.97781 0.32221 0.0
O626 O 0.69528 0.9905 0.31324 0.0
O627 O 0.69167 0.98586 0.32762 0.0
O628 O 0.79736 0.01012 0.33235 0.0
O629 O 0.77286 0.98447 0.33613 0.0
O630 O 0.80838 0.03677 0.32402 0.0
O631 O 0.7445 0.0257 0.31856 0.0
H632 H 0.97848 0.01315 0.30821 0.0
H633 H 0.05666 0.00917 0.30734 0.0
H634 H 0.06428 0.00981 0.33619 0.0
H635 H 0.98644 0.01414 0.33702 0.0
H636 H 0.61827 0.99422 0.33437 0.0
H637 H 0.54061 -0.00067 0.33418 0.0
H638 H 0.54081 -0.00409 0.30533 0.0
H639 H 0.61831 0.99036 0.30556 0.0
Pr640 Pr 0.49491 0.49643 0.57055 0.0
Pr641 Pr 0.59083 0.47936 0.57087 0.0
C642 C 0.41154 0.50571 0.56765 0.0
C643 C 0.36543 0.5003 0.56802 0.0
C644 C 0.34714 0.49207 0.57561 0.0
C645 C 0.30253 0.48883 0.57604 0.0
C646 C 0.27517 0.49383 0.5689 0.0
C647 C 0.29397 0.50158 0.56123 0.0
C648 C 0.33843 0.50478 0.56081 0.0
C649 C 0.53931 0.49718 0.58689 0.0
C650 C 0.50657 0.45155 0.57337 0.0
C651 C 0.67083 0.47041 0.57656 0.0
C652 C 0.71782 0.47287 0.57491 0.0
C653 C 0.74378 0.45756 0.57328 0.0
C654 C 0.78863 0.45924 0.57249 0.0
C655 C 0.80898 0.4763 0.57339 0.0
C656 C 0.78278 0.49169 0.57488 0.0
C657 C 0.73784 0.49001 0.57561 0.0
C658 C 0.56509 0.48361 0.55292 0.0
C659 C 0.57445 0.52412 0.56747 0.0
O660 O 0.43604 0.49848 0.56148 0.0
O661 O 0.43189 0.50874 0.57519 0.0
O662 O 0.53862 0.48404 0.58145 0.0
O663 O 0.51548 0.5106 0.58407 0.0
O664 O 0.5492 0.45293 0.57342 0.0
O665 O 0.48065 0.46558 0.57216 0.0
O666 O 0.64896 0.48431 0.57968 0.0
O667 O 0.64868 0.46031 0.57095 0.0
O668 O 0.54308 0.48765 0.55976 0.0
O669 O 0.60203 0.47694 0.55536 0.0
O670 O 0.53413 0.52078 0.56524 0.0
O671 O 0.60023 0.51136 0.57078 0.0
H672 H 0.36713 0.4885 0.58129 0.0
H673 H 0.28933 0.48294 0.58208 0.0
H674 H 0.27426 0.50531 0.55554 0.0
H675 H 0.35165 0.51115 0.55488 0.0
H676 H 0.72939 0.44416 0.57274 0.0
H677 H 0.80735 0.44709 0.57118 0.0
H678 H 0.79704 0.50503 0.57573 0.0
H679 H 0.71895 0.50211 0.57695 0.0
Pr680 Pr 0.79223 0.73896 0.57215 0.0
Pr681 Pr 0.69678 0.75619 0.57196 0.0
C682 C 0.87665 0.72968 0.5709 0.0
C683 C 0.92245 0.73589 0.57053 0.0
C684 C 0.94556 0.73958 0.57844 0.0
C685 C 0.98997 0.74308 0.57821 0.0
C686 C 1.01281 0.74294 0.57008 0.0
C687 C 0.98943 0.73968 0.56214 0.0
C688 C 0.94495 0.73614 0.56237 0.0
C689 C 0.74717 0.73996 0.58843 0.0
C690 C 0.78071 0.78413 0.57245 0.0
C691 C 0.61712 0.76572 0.57759 0.0
C692 C 0.5701 0.76308 0.57624 0.0
C693 C 0.55148 0.76154 0.56769 0.0
C694 C 0.50657 0.7598 0.56671 0.0
C695 C 0.47928 0.75961 0.57425 0.0
C696 C 0.49837 0.76088 0.58278 0.0
C697 C 0.5431 0.76259 0.58375 0.0
C698 C 0.72404 0.75195 0.55417 0.0
C699 C 0.71297 0.71108 0.56888 0.0
O700 O 0.85173 0.73185 0.5639 0.0
O701 O 0.85595 0.73135 0.57847 0.0
O702 O 0.74859 0.7526 0.58273 0.0
O703 O 0.76983 0.72605 0.58583 0.0
O704 O 0.73887 0.78261 0.5741 0.0
O705 O 0.80544 0.76991 0.5708 0.0
O706 O 0.63899 0.75215 0.58104 0.0
O707 O 0.63871 0.77491 0.57155 0.0
O708 O 0.74539 0.74773 0.56109 0.0
O709 O 0.68695 0.75873 0.55643 0.0
O710 O 0.75402 0.71404 0.56716 0.0
O711 O 0.68677 0.72415 0.57174 0.0
H712 H 0.92964 0.73922 0.58488 0.0
H713 H 1.00665 0.74523 0.58449 0.0
H714 H 1.00555 0.7397 0.55572 0.0
H715 H 0.92839 0.73316 0.55616 0.0
H716 H 0.57155 0.76186 0.56177 0.0
H717 H 0.49317 0.75898 0.56003 0.0
H718 H 0.47874 0.76044 0.58876 0.0
H719 H 0.55664 0.76367 0.59042 0.0
Pr720 Pr 0.49957 0.74413 0.69205 0.0
Pr721 Pr 0.59441 0.76053 0.69269 0.0
C722 C 0.41469 0.73549 0.69199 0.0
C723 C 0.36889 0.74143 0.69268 0.0
C724 C 0.3436 0.74223 0.68487 0.0
C725 C 0.29922 0.74543 0.68533 0.0
C726 C 0.27861 0.74792 0.69361 0.0
C727 C 0.30411 0.74776 0.70143 0.0
C728 C 0.3487 0.74444 0.70097 0.0
C729 C 0.54655 0.74419 0.676 0.0
C730 C 0.51208 0.78893 0.69269 0.0
C731 C 0.67475 0.76988 0.68742 0.0
C732 C 0.72171 0.76728 0.68893 0.0
C733 C 0.74056 0.76831 0.69748 0.0
C734 C 0.78541 0.76658 0.69854 0.0
C735 C 0.81245 0.76374 0.69109 0.0
C736 C 0.79321 0.76262 0.68257 0.0
C737 C 0.74854 0.76437 0.68151 0.0
C738 C 0.56643 0.75622 0.71044 0.0
C739 C 0.57657 0.71542 0.69547 0.0
O740 O 0.4388 0.73444 0.69918 0.0
O741 O 0.43616 0.74032 0.68486 0.0
O742 O 0.54452 0.75724 0.68149 0.0
O743 O 0.52428 0.73036 0.67879 0.0
O744 O 0.55312 0.78713 0.69042 0.0
O745 O 0.48761 0.77486 0.69468 0.0
O746 O 0.65319 0.75629 0.68392 0.0
O747 O 0.65256 0.7792 0.69332 0.0
O748 O 0.54487 0.75227 0.70351 0.0
O749 O 0.60384 0.76272 0.70823 0.0
O750 O 0.53545 0.71859 0.697 0.0
O751 O 0.60357 0.72842 0.69287 0.0
H752 H 0.35794 0.73984 0.67838 0.0
H753 H 0.28094 0.74581 0.67916 0.0
H754 H 0.28939 0.74951 0.70793 0.0
H755 H 0.36707 0.74375 0.70713 0.0
H756 H 0.7207 0.77052 0.70333 0.0
H757 H 0.79886 0.7673 0.70522 0.0
H758 H 0.81276 0.76076 0.67665 0.0
H759 H 0.73492 0.76367 0.67484 0.0
Pr760 Pr 0.79546 0.50081 0.68978 0.0
Pr761 Pr 0.69938 0.48415 0.6895 0.0
C762 C 0.87892 0.5096 0.69288 0.0
C763 C 0.92506 0.50493 0.69135 0.0
C764 C 0.95061 0.51625 0.68595 0.0
C765 C 0.99512 0.51341 0.68523 0.0
C766 C 1.01553 0.49921 0.68994 0.0
C767 C 0.98973 0.48757 0.69517 0.0
C768 C 0.94512 0.49042 0.69589 0.0
C769 C 0.75292 0.50039 0.67319 0.0
C770 C 0.78321 0.45573 0.68779 0.0
C771 C 0.61946 0.47492 0.68392 0.0
C772 C 0.57267 0.47786 0.68564 0.0
C773 C 0.54748 0.46372 0.6892 0.0
C774 C 0.50276 0.46567 0.69013 0.0
C775 C 0.48164 0.48173 0.68737 0.0
C776 C 0.50716 0.496 0.68395 0.0
C777 C 0.55199 0.49414 0.68316 0.0
C778 C 0.72384 0.48989 0.70741 0.0
C779 C 0.71597 0.5287 0.69277 0.0
O780 O 0.85608 0.49928 0.69822 0.0
O781 O 0.85654 0.51623 0.6862 0.0
O782 O 0.75216 0.4878 0.67894 0.0
O783 O 0.77816 0.51356 0.67574 0.0
O784 O 0.74058 0.45727 0.68779 0.0
O785 O 0.80928 0.46984 0.68852 0.0
O786 O 0.64167 0.48841 0.68048 0.0
O787 O 0.64152 0.46521 0.6897 0.0
O788 O 0.74647 0.4932 0.70057 0.0
O789 O 0.68666 0.48341 0.70501 0.0
O790 O 0.75591 0.52509 0.69523 0.0
O791 O 0.69064 0.51613 0.68916 0.0
H792 H 0.93631 0.52764 0.68243 0.0
H793 H 1.01363 0.52248 0.68101 0.0
H794 H 1.00418 0.4766 0.69897 0.0
H795 H 0.92661 0.48151 0.70019 0.0
H796 H 0.56232 0.45098 0.69116 0.0
H797 H 0.48481 0.45448 0.693 0.0
H798 H 0.49253 0.5085 0.6816 0.0
H799 H 0.57027 0.50534 0.68038 0.0
Pr800 Pr 0.43843 0.50732 0.44069 0.0
Pr801 Pr 0.53526 0.49049 0.44127 0.0
C802 C 0.35929 0.51654 0.43462 0.0
C803 C 0.3122 0.51427 0.43586 0.0
C804 C 0.29333 0.51241 0.44435 0.0
C805 C 0.24836 0.5108 0.44522 0.0
C806 C 0.22128 0.51095 0.43762 0.0
C807 C 0.2407 0.5126 0.42914 0.0
C808 C 0.28545 0.51431 0.4283 0.0
C809 C 0.4631 0.5024 0.45866 0.0
C810 C 0.4554 0.46266 0.44412 0.0
C811 C 0.61864 0.48192 0.44467 0.0
C812 C 0.66481 0.48722 0.44383 0.0
C813 C 0.68571 0.48796 0.43549 0.0
C814 C 0.73033 0.49105 0.43497 0.0
C815 C 0.75527 0.49339 0.44278 0.0
C816 C 0.73397 0.49309 0.45109 0.0
C817 C 0.68946 0.49001 0.4516 0.0
C818 C 0.49334 0.49089 0.42457 0.0
C819 C 0.52289 0.53547 0.43889 0.0
O820 O 0.38094 0.50252 0.43159 0.0
O821 O 0.3807 0.52622 0.44053 0.0
O822 O 0.48545 0.49873 0.45182 0.0
O823 O 0.4262 0.50913 0.4562 0.0
O824 O 0.49562 0.46608 0.44642 0.0
O825 O 0.42962 0.4753 0.4407 0.0
O826 O 0.59437 0.49098 0.45028 0.0
O827 O 0.59782 0.4765 0.43752 0.0
O828 O 0.49213 0.50335 0.43038 0.0
O829 O 0.51914 0.47789 0.4271 0.0
O830 O 0.48027 0.53391 0.43849 0.0
O831 O 0.54873 0.52144 0.44016 0.0
H832 H 0.31326 0.51237 0.4503 0.0
H833 H 0.23484 0.50976 0.45187 0.0
H834 H 0.22138 0.51242 0.42311 0.0
H835 H 0.29929 0.51576 0.42169 0.0
H836 H 0.66783 0.48573 0.42936 0.0
H837 H 0.74546 0.49101 0.42845 0.0
H838 H 0.75175 0.49513 0.45725 0.0
H839 H 0.67441 0.48941 0.45813 0.0
Pr840 Pr 0.34083 0.23073 0.44108 0.0
Pr841 Pr 0.24472 0.24752 0.44123 0.0
C842 C 0.42076 0.22191 0.43538 0.0
C843 C 0.46773 0.22481 0.4369 0.0
C844 C 0.4896 0.2167 0.44413 0.0
C845 C 0.53445 0.21849 0.44503 0.0
C846 C 0.55863 0.22841 0.43872 0.0
C847 C 0.53654 0.23666 0.43156 0.0
C848 C 0.4918 0.23483 0.43065 0.0
C849 C 0.3145 0.23517 0.45896 0.0
C850 C 0.32384 0.27525 0.44481 0.0
C851 C 0.16101 0.25591 0.44421 0.0
C852 C 0.11509 0.25059 0.44284 0.0
C853 C 0.09072 0.25851 0.43592 0.0
C854 C 0.04628 0.25535 0.43525 0.0
C855 C 0.02479 0.24431 0.44151 0.0
C856 C 0.04943 0.236 0.4483 0.0
C857 C 0.09391 0.23915 0.44897 0.0
C858 C 0.28877 0.24794 0.42485 0.0
C859 C 0.25723 0.20261 0.43852 0.0
O860 O 0.39844 0.23553 0.43209 0.0
O861 O 0.39904 0.21206 0.44114 0.0
O862 O 0.29288 0.23905 0.45205 0.0
O863 O 0.35167 0.22853 0.45665 0.0
O864 O 0.2836 0.27163 0.44698 0.0
O865 O 0.34976 0.26275 0.44133 0.0
O866 O 0.18453 0.24635 0.44978 0.0
O867 O 0.18289 0.26207 0.43737 0.0
O868 O 0.28854 0.23501 0.43041 0.0
O869 O 0.26406 0.2612 0.42752 0.0
O870 O 0.29982 0.20405 0.43882 0.0
O871 O 0.23103 0.21667 0.4393 0.0
H872 H 0.4722 0.20878 0.44905 0.0
H873 H 0.55018 0.21211 0.45069 0.0
H874 H 0.55397 0.24416 0.42649 0.0
H875 H 0.4761 0.24101 0.42493 0.0
H876 H 0.10578 0.26754 0.43113 0.0
H877 H 0.02868 0.26176 0.42984 0.0
H878 H 0.03413 0.22759 0.45332 0.0
H879 H 0.11144 0.233 0.45447 0.0
Pr880 Pr 0.43969 0.23138 0.32054 0.0
Pr881 Pr 0.53077 0.24665 0.32047 0.0
C882 C 0.35591 0.22355 0.32399 0.0
C883 C 0.30959 0.22848 0.32289 0.0
C884 C 0.28625 0.2232 0.31524 0.0
C885 C 0.24148 0.22577 0.31476 0.0
C886 C 0.21874 0.23358 0.32196 0.0
C887 C 0.24235 0.23928 0.32951 0.0
C888 C 0.28707 0.23671 0.32998 0.0
C889 C 0.47612 0.23168 0.30338 0.0
C890 C 0.45559 0.27623 0.3178 0.0
C891 C 0.6147 0.25504 0.31763 0.0
C892 C 0.66087 0.24989 0.31878 0.0
C893 C 0.68443 0.25567 0.32632 0.0
C894 C 0.72911 0.2529 0.32683 0.0
C895 C 0.75156 0.24443 0.31979 0.0
C896 C 0.72776 0.23823 0.31236 0.0
C897 C 0.6831 0.24096 0.31186 0.0
C898 C 0.49037 0.24663 0.3373 0.0
C899 C 0.51831 0.20219 0.32327 0.0
O900 O 0.38001 0.23348 0.32928 0.0
O901 O 0.37699 0.21704 0.31713 0.0
O902 O 0.48029 0.24436 0.30907 0.0
O903 O 0.45136 0.21885 0.30641 0.0
O904 O 0.49577 0.27255 0.31572 0.0
O905 O 0.42906 0.26336 0.32062 0.0
O906 O 0.59115 0.24579 0.31195 0.0
O907 O 0.59293 0.26069 0.32459 0.0
O908 O 0.48974 0.23367 0.33176 0.0
O909 O 0.51352 0.26008 0.33435 0.0
O910 O 0.47673 0.20476 0.32463 0.0
O911 O 0.54402 0.21549 0.32079 0.0
H912 H 0.30231 0.21657 0.3097 0.0
H913 H 0.22451 0.221 0.30888 0.0
H914 H 0.2262 0.24558 0.33513 0.0
H915 H 0.30387 0.24076 0.33602 0.0
H916 H 0.6686 0.26285 0.33172 0.0
H917 H 0.74629 0.25805 0.33261 0.0
H918 H 0.74372 0.23142 0.30686 0.0
H919 H 0.66618 0.23649 0.30591 0.0
Pr920 Pr 0.33689 0.5087 0.32048 0.0
Pr921 Pr 0.24685 0.49279 0.3204 0.0
C922 C 0.42059 0.51737 0.32367 0.0
C923 C 0.46697 0.5129 0.3222 0.0
C924 C 0.49275 0.5246 0.31704 0.0
C925 C 0.53741 0.52194 0.31641 0.0
C926 C 0.55772 0.50759 0.32103 0.0
C927 C 0.53178 0.49562 0.32604 0.0
C928 C 0.487 0.49821 0.3266 0.0
C929 C 0.30106 0.50683 0.30326 0.0
C930 C 0.32289 0.46359 0.31818 0.0
C931 C 0.16273 0.48375 0.31798 0.0
C932 C 0.11643 0.48868 0.31917 0.0
C933 C 0.09073 0.47862 0.32512 0.0
C934 C 0.04611 0.48151 0.32562 0.0
C935 C 0.0257 0.4945 0.32012 0.0
C936 C 0.05161 0.50484 0.31428 0.0
C937 C 0.09632 0.50196 0.3138 0.0
C938 C 0.28629 0.49418 0.33739 0.0
C939 C 0.25729 0.53744 0.32164 0.0
O940 O 0.39765 0.50693 0.32891 0.0
O941 O 0.39831 0.52406 0.317 0.0
O942 O 0.29788 0.49442 0.30911 0.0
O943 O 0.32385 0.52038 0.3062 0.0
O944 O 0.2826 0.46686 0.316 0.0
O945 O 0.34881 0.47679 0.32092 0.0
O946 O 0.18566 0.49254 0.31205 0.0
O947 O 0.18514 0.4789 0.325 0.0
O948 O 0.28692 0.50684 0.33168 0.0
O949 O 0.26342 0.48057 0.33455 0.0
O950 O 0.29753 0.53501 0.3243 0.0
O951 O 0.23409 0.52372 0.3187 0.0
H952 H 0.47851 0.53619 0.31366 0.0
H953 H 0.55626 0.53155 0.31257 0.0
H954 H 0.54615 0.4843 0.3296 0.0
H955 H 0.46827 0.48894 0.33066 0.0
H956 H 0.10499 0.46808 0.32924 0.0
H957 H 0.02742 0.47307 0.3301 0.0
H958 H 0.03732 0.51513 0.31003 0.0
H959 H 0.11494 0.50989 0.30908 0.0
Pr960 Pr 0.50278 0.99431 0.06998 0.0
Pr961 Pr 0.60725 0.97985 0.07119 0.0
C962 C 0.4236 0.00223 0.06372 0.0
C963 C 0.37696 -0.00095 0.06497 0.0
C964 C 0.35766 -0.00079 0.07346 0.0
C965 C 0.31296 -0.00304 0.07432 0.0
C966 C 0.28672 0.99452 0.06671 0.0
C967 C 0.30648 0.99405 0.05825 0.0
C968 C 0.35102 -0.0037 0.0574 0.0
C969 C 0.53589 0.99247 0.08764 0.0
C970 C 0.5239 0.9508 0.07425 0.0
C971 C 0.68632 0.97151 0.07745 0.0
C972 C 0.7331 0.97384 0.07603 0.0
C973 C 0.75167 0.97334 0.06747 0.0
C974 C 0.79644 0.97502 0.06645 0.0
C975 C 0.82346 0.97719 0.07396 0.0
C976 C 0.80443 0.97794 0.08249 0.0
C977 C 0.75983 0.97626 0.0835 0.0
C978 C 0.57811 0.98286 0.05335 0.0
C979 C 0.5833 0.02407 0.06813 0.0
O980 O 0.44664 0.98857 0.06071 0.0
O981 O 0.44381 0.01236 0.06964 0.0
O982 O 0.55367 0.98868 0.08035 0.0
O983 O 0.49629 -0.00259 0.08597 0.0
O984 O 0.56605 0.95381 0.07498 0.0
O985 O 0.49543 0.96321 0.07179 0.0
O986 O 0.66465 0.98585 0.08008 0.0
O987 O 0.66492 0.96104 0.07187 0.0
O988 O 0.55723 0.9861 0.06042 0.0
O989 O 0.61683 0.97757 0.05551 0.0
O990 O 0.54242 0.02017 0.06645 0.0
O991 O 0.61237 0.01181 0.07066 0.0
H992 H 0.37699 0.00127 0.07941 0.0
H993 H 0.29887 -0.00246 0.08094 0.0
H994 H 0.28753 0.99187 0.05225 0.0
H995 H 0.36524 -0.00394 0.05078 0.0
H996 H 0.73168 0.97152 0.06159 0.0
H997 H 0.80995 0.97424 0.05978 0.0
H998 H 0.82399 0.97994 0.08842 0.0
H999 H 0.74617 0.97676 0.09016 0.0
Pr1000 Pr 0.78463 0.24165 0.06969 0.0
Pr1001 Pr 0.69472 0.25769 0.06955 0.0
C1002 C 0.8688 0.23243 0.06757 0.0
C1003 C 0.91502 0.23794 0.06829 0.0
C1004 C 0.93906 0.23398 0.07604 0.0
C1005 C 0.98372 0.23698 0.07632 0.0
C1006 C 1.00579 0.24391 0.06883 0.0
C1007 C 0.98152 0.24826 0.06115 0.0
C1008 C 0.93685 0.24528 0.06088 0.0
C1009 C 0.74486 0.24367 0.08658 0.0
C1010 C 0.77432 0.28636 0.07054 0.0
C1011 C 0.61112 0.26665 0.07263 0.0
C1012 C 0.56461 0.26178 0.07166 0.0
C1013 C 0.54162 0.26577 0.06377 0.0
C1014 C 0.49679 0.26325 0.06332 0.0
C1015 C 0.47357 0.2568 0.07077 0.0
C1016 C 0.49683 0.25242 0.07858 0.0
C1017 C 0.5416 0.25492 0.07902 0.0
C1018 C 0.73145 0.25567 0.05246 0.0
C1019 C 0.70854 0.21241 0.06765 0.0
O1020 O 0.84512 0.23945 0.0612 0.0
O1021 O 0.84704 0.22936 0.0749 0.0
O1022 O 0.74473 0.25618 0.08079 0.0
O1023 O 0.76646 0.22965 0.08379 0.0
O1024 O 0.73407 0.28406 0.07318 0.0
O1025 O 0.79748 0.27254 0.0677 0.0
O1026 O 0.63482 0.25746 0.07829 0.0
O1027 O 0.63258 0.27192 0.06557 0.0
O1028 O 0.73388 0.2432 0.05831 0.0
O1029 O 0.70899 0.26938 0.05534 0.0
O1030 O 0.74893 0.21554 0.06554 0.0
O1031 O 0.68263 0.22576 0.07022 0.0
H1032 H 0.9236 0.22802 0.08183 0.0
H1033 H 1.00117 0.23323 0.08232 0.0
H1034 H 0.9971 0.25385 0.05529 0.0
H1035 H 0.91961 0.24832 0.05475 0.0
H1036 H 0.55803 0.27133 0.058 0.0
H1037 H 0.48016 0.267 0.05723 0.0
H1038 H 0.48038 0.24716 0.08441 0.0
H1039 H 0.55809 0.25189 0.08524 0.0
Pr1040 Pr 0.50189 0.24174 0.1908 0.0
Pr1041 Pr 0.59716 0.25857 0.19117 0.0
C1042 C 0.41786 0.23208 0.19226 0.0
C1043 C 0.37189 0.23784 0.19178 0.0
C1044 C 0.3454 0.23069 0.185 0.0
C1045 C 0.30111 0.23435 0.18483 0.0
C1046 C 0.28183 0.24522 0.19147 0.0
C1047 C 0.30851 0.25263 0.1982 0.0
C1048 C 0.35297 0.24898 0.19835 0.0
C1049 C 0.54684 0.24293 0.1745 0.0
C1050 C 0.51377 0.28689 0.19068 0.0
C1051 C 0.67734 0.26785 0.18578 0.0
C1052 C 0.72434 0.2648 0.18725 0.0
C1053 C 0.74657 0.27291 0.19444 0.0
C1054 C 0.79149 0.27112 0.19525 0.0
C1055 C 0.81544 0.26127 0.18887 0.0
C1056 C 0.79295 0.25292 0.18178 0.0
C1057 C 0.74815 0.25472 0.18097 0.0
C1058 C 0.57081 0.2528 0.20895 0.0
C1059 C 0.58038 0.21372 0.19405 0.0
O1060 O 0.44145 0.23729 0.19907 0.0
O1061 O 0.43962 0.23103 0.1848 0.0
O1062 O 0.54564 0.25554 0.18024 0.0
O1063 O 0.52411 0.22903 0.17708 0.0
O1064 O 0.55593 0.28533 0.18946 0.0
O1065 O 0.48833 0.2727 0.1918 0.0
O1066 O 0.65502 0.25459 0.18215 0.0
O1067 O 0.65551 0.27716 0.19174 0.0
O1068 O 0.54903 0.24933 0.20199 0.0
O1069 O 0.6078 0.25973 0.20674 0.0
O1070 O 0.53984 0.21705 0.19606 0.0
O1071 O 0.60652 0.22653 0.19094 0.0
H1072 H 0.3588 0.22183 0.17992 0.0
H1073 H 0.28174 0.22813 0.17963 0.0
H1074 H 0.29503 0.26123 0.20337 0.0
H1075 H 0.37232 0.25464 0.20371 0.0
H1076 H 0.72945 0.28095 0.19936 0.0
H1077 H 0.80757 0.27792 0.20075 0.0
H1078 H 0.80998 0.24498 0.17681 0.0
H1079 H 0.73218 0.24842 0.17531 0.0
Pr1080 Pr 0.78194 -0.00353 0.19179 0.0
Pr1081 Pr 0.684 0.98139 0.19163 0.0
C1082 C 0.86547 0.00404 0.19536 0.0
C1083 C 0.91133 -0.00136 0.19433 0.0
C1084 C 0.9329 0.00014 0.1861 0.0
C1085 C 0.97741 -0.003 0.18554 0.0
C1086 C 1.00144 0.99239 0.19322 0.0
C1087 C 0.97949 0.99042 0.20139 0.0
C1088 C 0.93509 0.99355 0.20194 0.0
C1089 C 0.7397 -0.00347 0.17516 0.0
C1090 C 0.76538 0.95178 0.18967 0.0
C1091 C 0.60435 0.97285 0.18571 0.0
C1092 C 0.5574 0.97538 0.18696 0.0
C1093 C 0.53737 0.97318 0.19532 0.0
C1094 C 0.49243 0.97467 0.19611 0.0
C1095 C 0.46661 0.97836 0.18855 0.0
C1096 C 0.48706 0.98087 0.18025 0.0
C1097 C 0.53183 0.97938 0.17947 0.0
C1098 C 0.7103 0.98646 0.20949 0.0
C1099 C 0.70474 0.02564 0.19474 0.0
O1100 O 0.84109 0.99428 0.20066 0.0
O1101 O 0.84477 0.01058 0.18843 0.0
O1102 O 0.73699 0.98421 0.18104 0.0
O1103 O 0.76729 0.00896 0.17757 0.0
O1104 O 0.72296 0.954 0.18984 0.0
O1105 O 0.79294 0.96539 0.19034 0.0
O1106 O 0.62639 0.98674 0.18267 0.0
O1107 O 0.62558 0.96293 0.19154 0.0
O1108 O 0.73239 0.98947 0.20255 0.0
O1109 O 0.67228 0.98063 0.20722 0.0
O1110 O 0.74463 0.02151 0.19699 0.0
O1111 O 0.67768 0.01343 0.19139 0.0
H1112 H 0.91567 0.00419 0.18011 0.0
H1113 H 0.99322 -0.00119 0.17915 0.0
H1114 H 0.99672 0.98662 0.20741 0.0
H1115 H 0.91948 0.99242 0.20839 0.0
H1116 H 0.55631 0.97008 0.20122 0.0
H1117 H 0.47784 0.97252 0.20259 0.0
H1118 H 0.46846 0.98405 0.17431 0.0
H1119 H 0.54652 0.98116 0.17296 0.0
Pr1120 Pr 0.429 0.01059 0.94241 0.0
Pr1121 Pr 0.53266 0.99512 0.94335 0.0
C1122 C 0.35053 0.01993 0.93616 0.0
C1123 C 0.30355 0.01693 0.93736 0.0
C1124 C 0.27786 0.03068 0.94113 0.0
C1125 C 0.23313 0.02858 0.94176 0.0
C1126 C 0.21284 0.0127 0.93858 0.0
C1127 C 0.23862 -0.0011 0.93483 0.0
C1128 C 0.28338 0.001 0.93422 0.0
C1129 C 0.45698 0.00514 0.96019 0.0
C1130 C 0.45071 0.96601 0.94481 0.0
C1131 C 0.61285 0.98566 0.9485 0.0
C1132 C 0.65918 0.98876 0.9465 0.0
C1133 C 0.68397 0.97474 0.94271 0.0
C1134 C 0.72836 0.97691 0.94143 0.0
C1135 C 0.74926 0.99313 0.94397 0.0
C1136 C 0.72425 0.00727 0.94764 0.0
C1137 C 0.67983 0.00511 0.9489 0.0
C1138 C 0.49985 -1e-05 0.92575 0.0
C1139 C 0.51311 0.03953 0.94201 0.0
O1140 O 0.37346 0.00651 0.93286 0.0
O1141 O 0.3711 0.02945 0.94226 0.0
O1142 O 0.47808 0.00239 0.95309 0.0
O1143 O 0.41871 0.01111 0.95809 0.0
O1144 O 0.49165 0.9695 0.94666 0.0
O1145 O 0.42249 0.97865 0.94229 0.0
O1146 O 0.59112 -0.0009 0.95213 0.0
O1147 O 0.59015 0.97606 0.94277 0.0
O1148 O 0.48278 0.00297 0.93316 0.0
O1149 O 0.53909 0.99446 0.92722 0.0
O1150 O 0.472 0.03679 0.93982 0.0
O1151 O 0.53965 0.02637 0.94446 0.0
H1152 H 0.29231 0.04321 0.94351 0.0
H1153 H 0.21445 0.03941 0.94477 0.0
H1154 H 0.22413 0.98662 0.93218 0.0
H1155 H 0.30201 0.99023 0.93113 0.0
H1156 H 0.66911 0.96193 0.94085 0.0
H1157 H 0.74633 0.96582 0.93845 0.0
H1158 H 0.73916 0.01986 0.9498 0.0
H1159 H 0.66189 0.01617 0.95191 0.0
Pr1160 Pr 0.33994 0.73268 0.94181 0.0
Pr1161 Pr 0.24125 0.74855 0.94176 0.0
C1162 C 0.4227 0.72367 0.93827 0.0
C1163 C 0.46886 0.72901 0.93885 0.0
C1164 C 0.49346 0.72453 0.94645 0.0
C1165 C 0.53802 0.72744 0.94659 0.0
C1166 C 0.55934 0.73481 0.93913 0.0
C1167 C 0.53459 0.73973 0.93161 0.0
C1168 C 0.48993 0.73681 0.93146 0.0
C1169 C 0.29982 0.73472 0.95852 0.0
C1170 C 0.32192 0.77799 0.94298 0.0
C1171 C 0.16055 0.75799 0.94657 0.0
C1172 C 0.1142 0.7544 0.94479 0.0
C1173 C 0.09428 0.75969 0.93674 0.0
C1174 C 0.04981 0.7573 0.93551 0.0
C1175 C 0.02423 0.74956 0.94229 0.0
C1176 C 0.04444 0.74403 0.95027 0.0
C1177 C 0.08878 0.74647 0.9515 0.0
C1178 C 0.27239 0.74199 0.9242 0.0
C1179 C 0.25851 0.70407 0.94097 0.0
O1180 O 0.39775 0.73202 0.9325 0.0
O1181 O 0.40276 0.71918 0.94565 0.0
O1182 O 0.29608 0.74659 0.9524 0.0
O1183 O 0.3264 0.72187 0.95619 0.0
O1184 O 0.28004 0.77518 0.9438 0.0
O1185 O 0.35027 0.7646 0.94193 0.0
O1186 O 0.18259 0.74511 0.95058 0.0
O1187 O 0.18293 0.76694 0.94056 0.0
O1188 O 0.28978 0.73913 0.9316 0.0
O1189 O 0.23385 0.74824 0.92568 0.0
O1190 O 0.29851 0.70677 0.93814 0.0
O1191 O 0.23417 0.71746 0.94398 0.0
H1192 H 0.47849 0.71833 0.95224 0.0
H1193 H 0.55587 0.72374 0.95255 0.0
H1194 H 0.5499 0.74524 0.92569 0.0
H1195 H 0.4721 0.7402 0.92546 0.0
H1196 H 0.11286 0.76588 0.93142 0.0
H1197 H 0.03546 0.76153 0.92924 0.0
H1198 H 0.02579 0.73827 0.95569 0.0
H1199 H 0.1031 0.74245 0.95782 0.0
Pr1200 Pr 0.42884 0.73052 0.82195 0.0
Pr1201 Pr 0.52678 0.74635 0.82126 0.0
C1202 C 0.34943 0.72221 0.82807 0.0
C1203 C 0.30249 0.72499 0.82676 0.0
C1204 C 0.28226 0.72226 0.81844 0.0
C1205 C 0.2374 0.72411 0.8176 0.0
C1206 C 0.21179 0.7288 0.82503 0.0
C1207 C 0.23239 0.73173 0.8333 0.0
C1208 C 0.2771 0.72981 0.83415 0.0
C1209 C 0.4535 0.7355 0.80398 0.0
C1210 C 0.44811 0.77494 0.81864 0.0
C1211 C 0.61004 0.75371 0.81736 0.0
C1212 C 0.65588 0.74847 0.81873 0.0
C1213 C 0.67633 0.75029 0.82709 0.0
C1214 C 0.72073 0.74711 0.82797 0.0
C1215 C 0.74578 0.74206 0.82052 0.0
C1216 C 0.72498 0.73985 0.81222 0.0
C1217 C 0.68067 0.74303 0.81134 0.0
C1218 C 0.48617 0.74618 0.83803 0.0
C1219 C 0.51155 0.70152 0.82394 0.0
O1220 O 0.37188 0.73609 0.83102 0.0
O1221 O 0.37038 0.71207 0.82229 0.0
O1222 O 0.47582 0.73879 0.81086 0.0
O1223 O 0.41616 0.72915 0.80637 0.0
O1224 O 0.4876 0.77097 0.81603 0.0
O1225 O 0.42233 0.76261 0.8223 0.0
O1226 O 0.58581 0.74304 0.81245 0.0
O1227 O 0.58916 0.76138 0.82398 0.0
O1228 O 0.48344 0.73391 0.83214 0.0
O1229 O 0.51336 0.75874 0.83559 0.0
O1230 O 0.469 0.70345 0.82396 0.0
O1231 O 0.53851 0.71528 0.82297 0.0
H1232 H 0.30102 0.71857 0.81261 0.0
H1233 H 0.22279 0.72197 0.8111 0.0
H1234 H 0.21383 0.73508 0.8392 0.0
H1235 H 0.29188 0.73181 0.84064 0.0
H1236 H 0.65826 0.7545 0.83292 0.0
H1237 H 0.73551 0.74873 0.83449 0.0
H1238 H 0.74318 0.7362 0.80631 0.0
H1239 H 0.66595 0.74171 0.80479 0.0
Pr1240 Pr 0.34174 0.00905 0.82219 0.0
Pr1241 Pr 0.25066 0.99372 0.82191 0.0
C1242 C 0.4247 0.01775 0.82605 0.0
C1243 C 0.47149 0.01361 0.8252 0.0
C1244 C 0.49305 0.01443 0.81694 0.0
C1245 C 0.53805 0.01247 0.81651 0.0
C1246 C 0.56271 0.00969 0.82433 0.0
C1247 C 0.54076 0.00845 0.83254 0.0
C1248 C 0.49589 0.01048 0.83297 0.0
C1249 C 0.30782 0.00636 0.80483 0.0
C1250 C 0.32633 0.96391 0.82031 0.0
C1251 C 0.16638 0.98545 0.81923 0.0
C1252 C 0.12059 0.99132 0.82018 0.0
C1253 C 0.09857 0.98982 0.82837 0.0
C1254 C 0.05404 0.9931 0.82886 0.0
C1255 C 0.03028 -0.00215 0.82117 0.0
C1256 C 0.0527 -6e-05 0.81305 0.0
C1257 C 0.09713 -0.00333 0.81256 0.0
C1258 C 0.28786 -0.00319 0.83908 0.0
C1259 C 0.26284 0.03831 0.82211 0.0
O1260 O 0.401 0.00731 0.83115 0.0
O1261 O 0.40382 0.0241 0.81912 0.0
O1262 O 0.30294 0.99445 0.81089 0.0
O1263 O 0.33257 0.0195 0.80756 0.0
O1264 O 0.28643 0.96738 0.81786 0.0
O1265 O 0.35206 0.97703 0.82325 0.0
O1266 O 0.19037 0.99358 0.81327 0.0
O1267 O 0.18793 0.98066 0.82638 0.0
O1268 O 0.28984 0.00869 0.833 0.0
O1269 O 0.26462 0.98307 0.83652 0.0
O1270 O 0.30227 0.03582 0.82525 0.0
O1271 O 0.23967 0.02452 0.81924 0.0
H1272 H 0.47534 0.01702 0.81082 0.0
H1273 H 0.5536 0.01372 0.81006 0.0
H1274 H 0.55825 0.00601 0.8387 0.0
H1275 H 0.48026 0.01003 0.83943 0.0
H1276 H 0.11541 0.98557 0.83436 0.0
H1277 H 0.03798 0.99122 0.83522 0.0
H1278 H 0.03577 0.00387 0.80702 0.0
H1279 H 0.11294 -0.00216 0.80613 0.0
H1280 H 0.04334 0.41977 0.06834 0.0
H1281 H 1.00343 0.39082 0.06878 0.0
H1282 H 0.89708 0.41778 0.08176 0.0
H1283 H 0.93631 0.44651 0.08129 0.0
H1284 H 0.91277 0.38311 0.08872 0.0
H1285 H 0.89239 0.41274 0.06017 0.0
H1286 H 0.91625 0.42686 0.04607 0.0
H1287 H 0.97981 0.37722 0.03856 0.0
H1288 H 0.95675 0.36288 0.05269 0.0
H1289 H 0.74674 0.31802 0.07875 0.0
H1290 H 0.78678 0.34684 0.07996 0.0
H1291 H 0.89074 0.32366 0.06458 0.0
H1292 H 0.85123 0.29537 0.0632 0.0
H1293 H 0.8751 0.35697 0.05911 0.0
H1294 H 0.89568 0.32696 0.08745 0.0
H1295 H 0.8718 0.31244 0.10147 0.0
H1296 H 0.80912 0.36198 0.10941 0.0
H1297 H 0.83213 0.37673 0.09537 0.0
C1298 C 1.01184 0.41938 0.07144 0.0
C1299 C 0.99273 0.43538 0.07469 0.0
C1300 C 0.98902 0.40291 0.07165 0.0
C1301 C 0.94712 0.40224 0.07523 0.0
C1302 C 0.92928 0.41799 0.07897 0.0
C1303 C 0.95169 0.43442 0.07865 0.0
C1304 C 0.92026 0.38563 0.07445 0.0
C1305 C 0.90427 0.37743 0.08225 0.0
C1306 C 0.90938 0.37821 0.06602 0.0
C1307 C 0.92327 0.38681 0.05753 0.0
C1308 C 0.91178 0.40489 0.05555 0.0
C1309 C 0.9251 0.41292 0.04754 0.0
C1310 C 0.94966 0.40296 0.04143 0.0
C1311 C 0.96086 0.38493 0.04331 0.0
C1312 C 0.94766 0.37684 0.05131 0.0
C1313 C 0.77792 0.31919 0.07557 0.0
C1314 C 0.79581 0.30435 0.07093 0.0
C1315 C 0.80089 0.33559 0.07631 0.0
C1316 C 0.84202 0.33732 0.07244 0.0
C1317 C 0.85916 0.32267 0.06763 0.0
C1318 C 0.83643 0.30642 0.06689 0.0
C1319 C 0.86799 0.35419 0.07339 0.0
C1320 C 0.88365 0.36255 0.0656 0.0
C1321 C 0.8787 0.36166 0.08184 0.0
C1322 C 0.86522 0.35288 0.09032 0.0
C1323 C 0.87654 0.33472 0.09216 0.0
C1324 C 0.8632 0.32645 0.10011 0.0
C1325 C 0.83884 0.33626 0.10631 0.0
C1326 C 0.82792 0.35439 0.10459 0.0
C1327 C 0.84112 0.36271 0.09664 0.0
H1328 H 0.82851 0.32983 0.11246 0.0
H1329 H 0.95993 0.40917 0.03523 0.0
H1330 H 0.54969 0.91762 0.06789 0.0
H1331 H 0.5079 0.88917 0.06866 0.0
H1332 H 0.41524 0.91541 0.08585 0.0
H1333 H 0.4563 0.94377 0.08496 0.0
H1334 H 0.43166 0.87808 0.09037 0.0
H1335 H 0.39351 0.91607 0.06527 0.0
H1336 H 0.40889 0.93412 0.05174 0.0
H1337 H 0.45952 0.88657 0.03875 0.0
H1338 H 0.44509 0.86829 0.05227 0.0
H1339 H 0.25411 0.81777 0.08201 0.0
H1340 H 0.29602 0.84609 0.08346 0.0
H1341 H 0.38577 0.82649 0.06366 0.0
H1342 H 0.34428 0.79867 0.06209 0.0
H1343 H 0.36877 0.86138 0.06095 0.0
H1344 H 0.40759 0.82326 0.08599 0.0
H1345 H 0.39292 0.80511 0.09952 0.0
H1346 H 0.34158 0.85242 0.1126 0.0
H1347 H 0.35542 0.8708 0.09909 0.0
C1348 C 0.52118 0.91706 0.07205 0.0
C1349 C 0.50601 0.93277 0.07635 0.0
C1350 C 0.49724 0.90091 0.07246 0.0
C1351 C 0.4583 0.9003 0.07725 0.0
C1352 C 0.44517 0.9156 0.08213 0.0
C1353 C 0.46858 0.93176 0.0816 0.0
C1354 C 0.42861 0.88461 0.07635 0.0
C1355 C 0.41763 0.87447 0.08396 0.0
C1356 C 0.41037 0.87996 0.06798 0.0
C1357 C 0.4187 0.89087 0.05982 0.0
C1358 C 0.40828 0.9095 0.05956 0.0
C1359 C 0.41677 0.91976 0.05189 0.0
C1360 C 0.43529 0.91151 0.0444 0.0
C1361 C 0.44525 0.89295 0.04456 0.0
C1362 C 0.43692 0.88263 0.05223 0.0
C1363 C 0.28241 0.81969 0.07789 0.0
C1364 C 0.29605 0.80594 0.072 0.0
C1365 C 0.3065 0.83577 0.07877 0.0
C1366 C 0.34438 0.83828 0.07375 0.0
C1367 C 0.3568 0.82486 0.06762 0.0
C1368 C 0.33303 0.80889 0.06677 0.0
C1369 C 0.37226 0.85453 0.07495 0.0
C1370 C 0.38275 0.86491 0.06737 0.0
C1371 C 0.39008 0.85933 0.08335 0.0
C1372 C 0.38209 0.84835 0.0915 0.0
C1373 C 0.39288 0.82976 0.09173 0.0
C1374 C 0.38476 0.81943 0.0994 0.0
C1375 C 0.36621 0.82759 0.10691 0.0
C1376 C 0.35587 0.84611 0.10677 0.0
C1377 C 0.36386 0.85649 0.09911 0.0
H1378 H 0.35996 0.81958 0.11284 0.0
H1379 H 0.44183 0.91948 0.03847 0.0
H1380 H 0.73747 0.91943 0.19682 0.0
H1381 H 0.77798 0.8906 0.19718 0.0
H1382 H 0.87686 0.91456 0.18071 0.0
H1383 H 0.83704 0.94318 0.1804 0.0
H1384 H 0.85924 0.87852 0.17612 0.0
H1385 H 0.8903 0.91496 0.20233 0.0
H1386 H 0.87045 0.93212 0.21589 0.0
H1387 H 0.81495 0.88386 0.22726 0.0
H1388 H 0.83392 0.86647 0.21369 0.0
H1389 H 0.03665 0.82018 0.18474 0.0
H1390 H 0.99327 0.84814 0.184 0.0
H1391 H 0.90179 0.82486 0.20243 0.0
H1392 H 0.94485 0.79725 0.2033 0.0
H1393 H 0.91373 0.86013 0.20601 0.0
H1394 H 0.88323 0.82333 0.18022 0.0
H1395 H 0.9011 0.80584 0.16664 0.0
H1396 H 0.95305 0.854 0.15447 0.0
H1397 H 0.93603 0.87173 0.16804 0.0
C1398 C 0.7673 0.91833 0.19311 0.0
C1399 C 0.78434 0.9335 0.18864 0.0
C1400 C 0.79051 0.90195 0.19336 0.0
C1401 C 0.83064 0.90056 0.18904 0.0
C1402 C 0.84606 0.91535 0.18409 0.0
C1403 C 0.82332 0.9317 0.18394 0.0
C1404 C 0.85855 0.88437 0.19023 0.0
C1405 C 0.8714 0.87455 0.18264 0.0
C1406 C 0.87397 0.8791 0.19875 0.0
C1407 C 0.86308 0.88947 0.20696 0.0
C1408 C 0.87357 0.90804 0.20769 0.0
C1409 C 0.86252 0.91781 0.21538 0.0
C1410 C 0.84132 0.9091 0.22242 0.0
C1411 C 0.83129 0.89059 0.2218 0.0
C1412 C 0.8422 0.88077 0.21411 0.0
C1413 C 1.00776 0.82121 0.18876 0.0
C1414 C 0.99398 0.80646 0.194 0.0
C1415 C 0.98284 0.8371 0.18828 0.0
C1416 C 0.94389 0.83844 0.19305 0.0
C1417 C 0.93155 0.82412 0.19867 0.0
C1418 C 0.95621 0.8083 0.19912 0.0
C1419 C 0.9146 0.85424 0.19188 0.0
C1420 C 0.90152 0.86403 0.19948 0.0
C1421 C 0.89875 0.8594 0.18337 0.0
C1422 C 0.90878 0.84881 0.17518 0.0
C1423 C 0.89876 0.83016 0.17467 0.0
C1424 C 0.9087 0.82021 0.16698 0.0
C1425 C 0.92832 0.82879 0.15971 0.0
C1426 C 0.93793 0.84736 0.16011 0.0
C1427 C 0.92813 0.85737 0.1678 0.0
H1428 H 0.93598 0.82106 0.15375 0.0
H1429 H 0.83276 0.91668 0.22837 0.0
H1430 H 0.24408 0.42028 0.19164 0.0
H1431 H 0.2845 0.39142 0.19139 0.0
H1432 H 0.39754 0.41997 0.18223 0.0
H1433 H 0.35786 0.44862 0.18258 0.0
H1434 H 0.38472 0.38624 0.1736 0.0
H1435 H 0.39081 0.4121 0.20324 0.0
H1436 H 0.35953 0.42462 0.21709 0.0
H1437 H 0.29312 0.37422 0.22174 0.0
H1438 H 0.32349 0.36151 0.20783 0.0
H1439 H 0.54531 0.31983 0.18461 0.0
H1440 H 0.50602 0.34889 0.18384 0.0
H1441 H 0.39511 0.32348 0.1959 0.0
H1442 H 0.43375 0.29486 0.19682 0.0
H1443 H 0.40775 0.35613 0.20293 0.0
H1444 H 0.40064 0.33007 0.17341 0.0
H1445 H 0.43048 0.31738 0.15946 0.0
H1446 H 0.49714 0.36757 0.15445 0.0
H1447 H 0.46813 0.38048 0.16845 0.0
C1448 C 0.27728 0.42027 0.18942 0.0
C1449 C 0.29798 0.43664 0.18721 0.0
C1450 C 0.30035 0.40385 0.18931 0.0
C1451 C 0.34409 0.40365 0.18685 0.0
C1452 C 0.36389 0.41985 0.18415 0.0
C1453 C 0.34119 0.4362 0.1844 0.0
C1454 C 0.3704 0.38691 0.18768 0.0
C1455 C 0.39006 0.37971 0.18001 0.0
C1456 C 0.37705 0.37837 0.19604 0.0
C1457 C 0.35901 0.38594 0.20444 0.0
C1458 C 0.36923 0.40375 0.20718 0.0
C1459 C 0.35172 0.41087 0.21504 0.0
C1460 C 0.32425 0.40024 0.22028 0.0
C1461 C 0.31433 0.38245 0.21767 0.0
C1462 C 0.33169 0.37528 0.2098 0.0
C1463 C 0.51273 0.32054 0.18717 0.0
C1464 C 0.49261 0.30498 0.19069 0.0
C1465 C 0.49024 0.33709 0.18668 0.0
C1466 C 0.44741 0.33828 0.18972 0.0
C1467 C 0.42802 0.32291 0.1935 0.0
C1468 C 0.45024 0.30648 0.19397 0.0
C1469 C 0.42188 0.35527 0.18882 0.0
C1470 C 0.40244 0.3626 0.19649 0.0
C1471 C 0.41528 0.36385 0.18045 0.0
C1472 C 0.43263 0.35616 0.17202 0.0
C1473 C 0.42194 0.33834 0.16937 0.0
C1474 C 0.43866 0.33112 0.16145 0.0
C1475 C 0.4658 0.34164 0.15609 0.0
C1476 C 0.47618 0.35943 0.15862 0.0
C1477 C 0.4596 0.3667 0.16655 0.0
H1478 H 0.4787 0.33603 0.14995 0.0
H1479 H 0.31073 0.40578 0.22637 0.0
H1480 H 0.09493 0.5437 0.93107 0.0
H1481 H 0.13568 0.57195 0.93054 0.0
H1482 H 0.0311 0.6001 0.94357 0.0
H1483 H 0.98928 0.57163 0.94391 0.0
H1484 H 0.06815 0.62139 0.9311 0.0
H1485 H 0.1172 0.58595 0.9557 0.0
H1486 H 0.1429 0.55837 0.96344 0.0
H1487 H 0.2556 0.55738 0.94683 0.0
H1488 H 0.23031 0.58489 0.93891 0.0
H1489 H 0.18489 0.69374 0.9493 0.0
H1490 H 0.14656 0.66512 0.94801 0.0
H1491 H 0.2469 0.64382 0.93107 0.0
H1492 H 0.28618 0.6729 0.93227 0.0
H1493 H 0.21362 0.61904 0.94496 0.0
H1494 H 0.16119 0.65756 0.92109 0.0
H1495 H 0.13304 0.68644 0.91503 0.0
H1496 H 0.02309 0.68274 0.93232 0.0
H1497 H 0.05088 0.65394 0.93857 0.0
C1498 C 0.08029 0.55593 0.93374 0.0
C1499 C 0.03912 0.55543 0.93764 0.0
C1500 C 0.10374 0.57207 0.93346 0.0
C1501 C 0.08696 0.58803 0.93723 0.0
C1502 C 0.04479 0.58788 0.94068 0.0
C1503 C 0.02091 0.57166 0.94086 0.0
C1504 C 0.11451 0.60451 0.93789 0.0
C1505 C 0.09976 0.6209 0.9342 0.0
C1506 C 0.15603 0.60384 0.94187 0.0
C1507 C 0.17168 0.5874 0.94666 0.0
C1508 C 0.14734 0.57979 0.95366 0.0
C1509 C 0.16185 0.56419 0.95809 0.0
C1510 C 0.20084 0.55613 0.95563 0.0
C1511 C 0.22542 0.56366 0.94873 0.0
C1512 C 0.21104 0.57928 0.94428 0.0
C1513 C 0.19921 0.68304 0.94529 0.0
C1514 C 0.23847 0.68575 0.94077 0.0
C1515 C 0.17709 0.66665 0.94458 0.0
C1516 C 0.19348 0.65251 0.93933 0.0
C1517 C 0.23364 0.65469 0.93512 0.0
C1518 C 0.25601 0.67126 0.93581 0.0
C1519 C 0.16735 0.63581 0.9381 0.0
C1520 C 0.18225 0.61941 0.94175 0.0
C1521 C 0.12561 0.63658 0.93426 0.0
C1522 C 0.10826 0.65364 0.93033 0.0
C1523 C 0.1311 0.66294 0.92363 0.0
C1524 C 0.11521 0.67929 0.92016 0.0
C1525 C 0.07634 0.68643 0.9233 0.0
C1526 C 0.05319 0.67719 0.92989 0.0
C1527 C 0.06896 0.66083 0.93339 0.0
H1528 H 0.06413 0.69911 0.92062 0.0
H1529 H 0.21203 0.54408 0.95909 0.0
H1530 H 0.78355 0.16997 0.94373 0.0
H1531 H 0.74027 0.14202 0.9432 0.0
H1532 H 0.64674 0.16919 0.92645 0.0
H1533 H 0.68865 0.19723 0.92743 0.0
H1534 H 0.60576 0.15334 0.93855 0.0
H1535 H 0.71725 0.13347 0.91891 0.0
H1536 H 0.79148 0.12738 0.91388 0.0
H1537 H 0.80999 0.09045 0.9358 0.0
H1538 H 0.73606 0.09651 0.94105 0.0
H1539 H 0.48828 0.06871 0.93154 0.0
H1540 H 0.52859 0.09724 0.92934 0.0
H1541 H 0.62198 0.07998 0.94899 0.0
H1542 H 0.58254 0.05179 0.95116 0.0
H1543 H 0.6605 0.09073 0.93368 0.0
H1544 H 0.54829 0.11354 0.9536 0.0
H1545 H 0.47269 0.11944 0.95778 0.0
H1546 H 0.45447 0.15045 0.93373 0.0
H1547 H 0.5299 0.14467 0.9294 0.0
C1548 C 0.75425 0.16975 0.93978 0.0
C1549 C 0.73937 0.18563 0.9356 0.0
C1550 C 0.72948 0.15379 0.93946 0.0
C1551 C 0.69012 0.15339 0.93474 0.0
C1552 C 0.67665 0.16911 0.93019 0.0
C1553 C 0.70077 0.18509 0.9307 0.0
C1554 C 0.66135 0.13715 0.93505 0.0
C1555 C 0.61774 0.13969 0.93732 0.0
C1556 C 0.67667 0.11925 0.93354 0.0
C1557 C 0.7212 0.11558 0.93041 0.0
C1558 C 0.73725 0.12416 0.9227 0.0
C1559 C 0.77926 0.12069 0.9198 0.0
C1560 C 0.80547 0.10857 0.92453 0.0
C1561 C 0.78968 0.09986 0.93215 0.0
C1562 C 0.7477 0.10329 0.93509 0.0
C1563 C 0.51695 0.07121 0.93549 0.0
C1564 C 0.5324 0.05793 0.94146 0.0
C1565 C 0.54004 0.08745 0.93421 0.0
C1566 C 0.57855 0.09064 0.93895 0.0
C1567 C 0.59273 0.07772 0.94518 0.0
C1568 C 0.56997 0.06161 0.94643 0.0
C1569 C 0.60551 0.107 0.93731 0.0
C1570 C 0.64869 0.10445 0.9348 0.0
C1571 C 0.58969 0.12488 0.93846 0.0
C1572 C 0.54455 0.12852 0.94113 0.0
C1573 C 0.52807 0.12154 0.94919 0.0
C1574 C 0.48529 0.1249 0.9516 0.0
C1575 C 0.45876 0.1353 0.94602 0.0
C1576 C 0.47504 0.14243 0.93805 0.0
C1577 C 0.51781 0.13914 0.93562 0.0
H1578 H 0.42561 0.13782 0.94788 0.0
H1579 H 0.83798 0.1059 0.92227 0.0
H1580 H 0.07167 0.19299 0.83407 0.0
H1581 H 0.11333 0.16488 0.8353 0.0
H1582 H 0.0299 0.13934 0.81587 0.0
H1583 H 0.98696 0.16746 0.81492 0.0
H1584 H 0.05577 0.115 0.82798 0.0
H1585 H 0.12509 0.15956 0.80968 0.0
H1586 H 0.15484 0.18979 0.80604 0.0
H1587 H 0.24674 0.18468 0.82738 0.0
H1588 H 0.21707 0.15451 0.83125 0.0
H1589 H 0.19698 0.04902 0.81149 0.0
H1590 H 0.15391 0.07656 0.81261 0.0
H1591 H 0.23611 0.09618 0.83381 0.0
H1592 H 0.28018 0.06835 0.83267 0.0
H1593 H 0.21152 0.12336 0.82164 0.0
H1594 H 0.14221 0.07629 0.83878 0.0
H1595 H 0.11173 0.04568 0.84117 0.0
H1596 H 0.01845 0.05514 0.82045 0.0
H1597 H 0.04893 0.08569 0.8178 0.0
C1598 C 0.06153 0.18118 0.83027 0.0
C1599 C 0.02624 0.18228 0.82441 0.0
C1600 C 0.08556 0.16519 0.8309 0.0
C1601 C 0.07557 0.15016 0.82548 0.0
C1602 C 0.03841 0.15081 0.82007 0.0
C1603 C 1.01377 0.1668 0.81955 0.0
C1604 C 0.10567 0.13441 0.82501 0.0
C1605 C 0.08972 0.11681 0.82652 0.0
C1606 C 0.1502 0.13679 0.8232 0.0
C1607 C 0.16855 0.15484 0.82081 0.0
C1608 C 0.15146 0.16493 0.81364 0.0
C1609 C 0.16831 0.18205 0.81153 0.0
C1610 C 0.20257 0.18917 0.81649 0.0
C1611 C 0.22014 0.17915 0.82356 0.0
C1612 C 0.20333 0.16203 0.82571 0.0
C1613 C 0.20631 0.05923 0.81636 0.0
C1614 C 0.24174 0.0564 0.82208 0.0
C1615 C 0.18147 0.07496 0.817 0.0
C1616 C 0.19107 0.0882 0.82345 0.0
C1617 C 0.2279 0.086 0.82885 0.0
C1618 C 0.25313 0.07017 0.82817 0.0
C1619 C 0.16161 0.10397 0.82462 0.0
C1620 C 0.17766 0.12158 0.8232 0.0
C1621 C 0.11703 0.10155 0.82635 0.0
C1622 C 0.09815 0.08326 0.82804 0.0
C1623 C 0.11541 0.07181 0.83468 0.0
C1624 C 0.09812 0.05446 0.83609 0.0
C1625 C 0.06326 0.04846 0.83095 0.0
C1626 C 0.04552 0.05981 0.82441 0.0
C1627 C 0.06278 0.07715 0.82296 0.0
H1628 H 0.04995 0.03503 0.83204 0.0
H1629 H 0.2156 0.2024 0.81484 0.0
H1630 H 0.58216 0.69396 0.83381 0.0
H1631 H 0.62321 0.66568 0.8342 0.0
H1632 H 0.52899 0.64025 0.817 0.0
H1633 H 0.48661 0.66858 0.81691 0.0
H1634 H 0.55859 0.6163 0.82877 0.0
H1635 H 0.62404 0.65904 0.80873 0.0
H1636 H 0.65524 0.68853 0.80425 0.0
H1637 H 0.75475 0.68259 0.82401 0.0
H1638 H 0.72374 0.65317 0.82872 0.0
H1639 H 0.68788 0.54691 0.81135 0.0
H1640 H 0.64652 0.57484 0.81279 0.0
H1641 H 0.73991 0.5958 0.83154 0.0
H1642 H 0.78234 0.56763 0.83004 0.0
H1643 H 0.71171 0.62191 0.81961 0.0
H1644 H 0.64623 0.57789 0.83906 0.0
H1645 H 0.61497 0.54801 0.84284 0.0
H1646 H 0.51521 0.556 0.82331 0.0
H1647 H 0.54623 0.58584 0.81931 0.0
C1648 C 0.56978 0.68223 0.83023 0.0
C1649 C 0.53143 0.68346 0.82526 0.0
C1650 C 0.59344 0.66611 0.83041 0.0
C1651 C 0.57998 0.65098 0.8254 0.0
C1652 C 0.54025 0.6518 0.82085 0.0
C1653 C 0.51598 0.66793 0.82082 0.0
C1654 C 0.60851 0.63477 0.82459 0.0
C1655 C 0.5919 0.61752 0.82667 0.0
C1656 C 0.65236 0.63635 0.82201 0.0
C1657 C 0.67132 0.65397 0.81914 0.0
C1658 C 0.65241 0.66407 0.81217 0.0
C1659 C 0.67006 0.68077 0.80958 0.0
C1660 C 0.70689 0.68743 0.81385 0.0
C1661 C 0.72618 0.67741 0.82071 0.0
C1662 C 0.7086 0.66072 0.82334 0.0
C1663 C 0.69996 0.55746 0.81576 0.0
C1664 C 0.73823 0.55495 0.82068 0.0
C1665 C 0.67607 0.57342 0.8166 0.0
C1666 C 0.68949 0.58722 0.82244 0.0
C1667 C 0.72876 0.58522 0.82705 0.0
C1668 C 0.75302 0.56917 0.82618 0.0
C1669 C 0.66175 0.60349 0.82378 0.0
C1670 C 0.67848 0.62074 0.82177 0.0
C1671 C 0.61794 0.60188 0.82634 0.0
C1672 C 0.59875 0.58407 0.82885 0.0
C1673 C 0.61777 0.57324 0.83553 0.0
C1674 C 0.60008 0.55632 0.83772 0.0
C1675 C 0.56317 0.55011 0.83331 0.0
C1676 C 0.54381 0.56084 0.82672 0.0
C1677 C 0.56139 0.57777 0.8245 0.0
H1678 H 0.5495 0.53703 0.83503 0.0
H1679 H 0.72058 0.70031 0.81182 0.0
H1680 H 0.04791 0.91928 0.5703 0.0
H1681 H 1.0096 0.88994 0.57075 0.0
H1682 H 0.89688 0.91686 0.5812 0.0
H1683 H 0.93451 0.94589 0.58079 0.0
H1684 H 0.91054 0.88398 0.58937 0.0
H1685 H 0.90374 0.90865 0.55949 0.0
H1686 H 0.93425 0.92061 0.54548 0.0
H1687 H 1.00124 0.87019 0.54121 0.0
H1688 H 0.97173 0.85805 0.55531 0.0
H1689 H 0.74999 0.81712 0.5787 0.0
H1690 H 0.78977 0.84605 0.57954 0.0
H1691 H 0.90032 0.82034 0.56747 0.0
H1692 H 0.8612 0.79188 0.56647 0.0
H1693 H 0.88792 0.85268 0.56033 0.0
H1694 H 0.89489 0.82763 0.59002 0.0
H1695 H 0.86467 0.81534 0.60402 0.0
H1696 H 0.79828 0.86574 0.60868 0.0
H1697 H 0.82763 0.87825 0.59463 0.0
C1698 C 1.01523 0.91883 0.57282 0.0
C1699 C 0.99411 0.9349 0.57541 0.0
C1700 C 0.99333 0.90212 0.57304 0.0
C1701 C 0.95021 0.90128 0.57592 0.0
C1702 C 0.93004 0.91717 0.57894 0.0
C1703 C 0.95161 0.93379 0.57864 0.0
C1704 C 0.92477 0.88421 0.57527 0.0
C1705 C 0.90535 0.87718 0.58302 0.0
C1706 C 0.91829 0.87527 0.567 0.0
C1707 C 0.93593 0.88252 0.55851 0.0
C1708 C 0.92528 0.90017 0.55561 0.0
C1709 C 0.94234 0.90697 0.54764 0.0
C1710 C 0.96973 0.89618 0.54245 0.0
C1711 C 0.98008 0.87855 0.54523 0.0
C1712 C 0.96321 0.8717 0.55322 0.0
C1713 C 0.78261 0.81773 0.57616 0.0
C1714 C 0.80239 0.80213 0.57258 0.0
C1715 C 0.80541 0.83421 0.5767 0.0
C1716 C 0.84825 0.83529 0.57366 0.0
C1717 C 0.86741 0.81986 0.56987 0.0
C1718 C 0.84487 0.80352 0.56935 0.0
C1719 C 0.87388 0.85231 0.57444 0.0
C1720 C 0.89321 0.85939 0.56671 0.0
C1721 C 0.88041 0.86122 0.58273 0.0
C1722 C 0.86308 0.8538 0.59122 0.0
C1723 C 0.87359 0.83604 0.594 0.0
C1724 C 0.85666 0.82905 0.60194 0.0
C1725 C 0.82946 0.83973 0.60722 0.0
C1726 C 0.81928 0.85747 0.60457 0.0
C1727 C 0.83607 0.86452 0.59662 0.0
H1728 H 0.81636 0.83428 0.61337 0.0
H1729 H 0.98288 0.90145 0.53628 0.0
H1730 H 0.23032 0.31882 0.5811 0.0
H1731 H 0.27066 0.34756 0.58278 0.0
H1732 H 0.3543 0.33174 0.56112 0.0
H1733 H 0.31459 0.30346 0.55939 0.0
H1734 H 0.39842 0.34015 0.57666 0.0
H1735 H 0.28419 0.36482 0.55817 0.0
H1736 H 0.20886 0.37244 0.55448 0.0
H1737 H 0.19936 0.40467 0.57837 0.0
H1738 H 0.27448 0.397 0.58227 0.0
H1739 H 0.52563 0.41821 0.5661 0.0
H1740 H 0.48042 0.3908 0.56676 0.0
H1741 H 0.39442 0.4181 0.58507 0.0
H1742 H 0.43825 0.44556 0.58405 0.0
H1743 H 0.34883 0.40383 0.57297 0.0
H1744 H 0.46509 0.38153 0.59093 0.0
H1745 H 0.5395 0.37317 0.59503 0.0
H1746 H 0.54445 0.33566 0.573 0.0
H1747 H 0.47082 0.34419 0.56862 0.0
C1748 C 0.25663 0.32175 0.57658 0.0
C1749 C 0.26966 0.30881 0.5702 0.0
C1750 C 0.27975 0.33809 0.57756 0.0
C1751 C 0.31585 0.34162 0.57215 0.0
C1752 C 0.32697 0.32918 0.56545 0.0
C1753 C 0.30412 0.31302 0.56446 0.0
C1754 C 0.34438 0.3575 0.57372 0.0
C1755 C 0.38777 0.35412 0.57581 0.0
C1756 C 0.33001 0.37565 0.57289 0.0
C1757 C 0.28476 0.38013 0.57058 0.0
C1758 C 0.26589 0.37336 0.56269 0.0
C1759 C 0.22326 0.37772 0.56055 0.0
C1760 C 0.19928 0.38897 0.5662 0.0
C1761 C 0.21793 0.39591 0.574 0.0
C1762 C 0.26052 0.39156 0.57618 0.0
C1763 C 0.49762 0.41812 0.57041 0.0
C1764 C 0.48533 0.43392 0.57501 0.0
C1765 C 0.47174 0.40248 0.5708 0.0
C1766 C 0.43385 0.4023 0.57599 0.0
C1767 C 0.42313 0.41787 0.58096 0.0
C1768 C 0.44836 0.43352 0.58042 0.0
C1769 C 0.40357 0.38656 0.57576 0.0
C1770 C 0.35972 0.38993 0.57395 0.0
C1771 C 0.41751 0.36835 0.5769 0.0
C1772 C 0.46248 0.36365 0.57939 0.0
C1773 C 0.48229 0.37169 0.58689 0.0
C1774 C 0.52439 0.36691 0.58926 0.0
C1775 C 0.54688 0.35396 0.58426 0.0
C1776 C 0.52729 0.34578 0.57686 0.0
C1777 C 0.48537 0.3506 0.57442 0.0
H1778 H 0.57938 0.35021 0.58613 0.0
H1779 H 0.1663 0.39235 0.56453 0.0
H1780 H 0.05011 0.31962 0.68377 0.0
H1781 H 1.01072 0.34863 0.68274 0.0
H1782 H 0.90378 0.3248 0.69693 0.0
H1783 H 0.94219 0.2961 0.6979 0.0
H1784 H 0.87558 0.34203 0.68256 0.0
H1785 H 0.97295 0.35535 0.70689 0.0
H1786 H 0.04393 0.35855 0.71416 0.0
H1787 H 0.08109 0.39831 0.69459 0.0
H1788 H 1.01051 0.39516 0.68713 0.0
H1789 H 0.75323 0.42213 0.69313 0.0
H1790 H 0.79371 0.39337 0.69321 0.0
H1791 H 0.90068 0.42013 0.68031 0.0
H1792 H 0.86123 0.44874 0.68049 0.0
H1793 H 0.9299 0.40146 0.69353 0.0
H1794 H 0.83206 0.38877 0.66935 0.0
H1795 H 0.76112 0.38562 0.66205 0.0
H1796 H 0.72498 0.34476 0.68115 0.0
H1797 H 0.79552 0.34784 0.68863 0.0
C1798 C 0.01843 0.32068 0.68675 0.0
C1799 C 0.99924 0.30548 0.69084 0.0
C1800 C 0.99591 0.33724 0.68615 0.0
C1801 C 0.95412 0.33888 0.68973 0.0
C1802 C 0.93568 0.32385 0.69403 0.0
C1803 C 0.95789 0.30741 0.69459 0.0
C1804 C 0.92864 0.35597 0.68888 0.0
C1805 C 0.88732 0.35501 0.68503 0.0
C1806 C 0.9442 0.37298 0.69192 0.0
C1807 C 0.98664 0.37486 0.69639 0.0
C1808 C 0.9964 0.36466 0.70409 0.0
C1809 C 0.03653 0.36648 0.70825 0.0
C1810 C 0.06705 0.37858 0.70482 0.0
C1811 C 0.05746 0.38891 0.69723 0.0
C1812 C 0.01739 0.38712 0.69303 0.0
C1813 C 0.78509 0.42174 0.6902 0.0
C1814 C 0.8041 0.43769 0.68685 0.0
C1815 C 0.80826 0.40531 0.69023 0.0
C1816 C 0.85039 0.40453 0.68675 0.0
C1817 C 0.86851 0.42036 0.68311 0.0
C1818 C 0.84577 0.43672 0.68319 0.0
C1819 C 0.87669 0.38756 0.68722 0.0
C1820 C 0.91817 0.38852 0.691 0.0
C1821 C 0.8613 0.37056 0.6841 0.0
C1822 C 0.81891 0.36867 0.6796 0.0
C1823 C 0.80886 0.37921 0.67203 0.0
C1824 C 0.76875 0.37742 0.66785 0.0
C1825 C 0.73852 0.36504 0.67115 0.0
C1826 C 0.7484 0.35437 0.67861 0.0
C1827 C 0.78845 0.35612 0.68282 0.0
H1828 H 0.70749 0.36367 0.66791 0.0
H1829 H 0.09809 0.37998 0.70806 0.0
H1830 H 0.44665 0.79952 0.70341 0.0
H1831 H 0.40277 0.82689 0.70221 0.0
H1832 H 0.48327 0.8462 0.68072 0.0
H1833 H 0.52838 0.81877 0.68207 0.0
H1834 H 0.45984 0.87365 0.69146 0.0
H1835 H 0.38567 0.82461 0.67688 0.0
H1836 H 0.35264 0.79421 0.67542 0.0
H1837 H 0.26414 0.80684 0.69657 0.0
H1838 H 0.29723 0.83718 0.6983 0.0
H1839 H 0.31415 0.94198 0.67884 0.0
H1840 H 0.35732 0.91418 0.67794 0.0
H1841 H 0.27988 0.89002 0.69876 0.0
H1842 H 0.23526 0.91765 0.69931 0.0
H1843 H 0.3025 0.8649 0.68735 0.0
H1844 H 0.3786 0.91293 0.70264 0.0
H1845 H 0.41089 0.94346 0.70426 0.0
H1846 H 0.49553 0.93262 0.68221 0.0
H1847 H 0.46312 0.90219 0.68032 0.0
C1848 C 0.45542 0.8097 0.69849 0.0
C1849 C 0.49074 0.80694 0.69277 0.0
C1850 C 0.43006 0.82529 0.69778 0.0
C1851 C 0.43882 0.83835 0.69119 0.0
C1852 C 0.47558 0.83619 0.68579 0.0
C1853 C 0.50147 0.82058 0.68658 0.0
C1854 C 0.40896 0.854 0.68991 0.0
C1855 C 0.42554 0.87174 0.69042 0.0
C1856 C 0.36394 0.85151 0.68875 0.0
C1857 C 0.34424 0.83316 0.68777 0.0
C1858 C 0.35947 0.82086 0.68128 0.0
C1859 C 0.3407 0.80363 0.6804 0.0
C1860 C 0.30637 0.79861 0.68591 0.0
C1861 C 0.29078 0.81076 0.69232 0.0
C1862 C 0.30954 0.82797 0.69325 0.0
C1863 C 0.30566 0.93049 0.68303 0.0
C1864 C 0.27141 0.93181 0.68911 0.0
C1865 C 0.33064 0.91471 0.6826 0.0
C1866 C 0.3228 0.90019 0.68848 0.0
C1867 C 0.28681 0.90109 0.69419 0.0
C1868 C 0.26116 0.91679 0.69448 0.0
C1869 C 0.35329 0.88455 0.68901 0.0
C1870 C 0.33683 0.86681 0.68836 0.0
C1871 C 0.39838 0.88704 0.69009 0.0
C1872 C 0.41805 0.90533 0.69127 0.0
C1873 C 0.40385 0.91711 0.69809 0.0
C1874 C 0.42217 0.93439 0.69906 0.0
C1875 C 0.45511 0.93998 0.69332 0.0
C1876 C 0.46991 0.92829 0.68663 0.0
C1877 C 0.45155 0.91103 0.6856 0.0
H1878 H 0.46925 0.95335 0.69407 0.0
H1879 H 0.29169 0.78533 0.68518 0.0
H1880 H 0.98246 0.06987 0.43315 0.0
H1881 H 0.02204 0.09877 0.43178 0.0
H1882 H 0.1079 0.08199 0.45295 0.0
H1883 H 0.0685 0.05357 0.45444 0.0
H1884 H 0.0909 0.11739 0.45435 0.0
H1885 H 0.13421 0.07563 0.43094 0.0
H1886 H 0.12068 0.05553 0.41802 0.0
H1887 H 0.07031 0.10076 0.40311 0.0
H1888 H 0.08308 0.1211 0.416 0.0
H1889 H 0.2777 0.17022 0.44653 0.0
H1890 H 0.23266 0.14264 0.44675 0.0
H1891 H 0.14445 0.16759 0.42811 0.0
H1892 H 0.18864 0.19514 0.42801 0.0
H1893 H 0.15955 0.12936 0.42496 0.0
H1894 H 0.11784 0.17118 0.44816 0.0
H1895 H 0.13103 0.19138 0.46105 0.0
H1896 H 0.17829 0.14604 0.47631 0.0
H1897 H 0.16589 0.12559 0.46344 0.0
C1898 C 1.00913 0.0726 0.43764 0.0
C1899 C 0.02268 0.05939 0.44383 0.0
C1900 C 0.03194 0.08901 0.4368 0.0
C1901 C 0.06844 0.0924 0.44216 0.0
C1902 C 0.08006 0.07969 0.44872 0.0
C1903 C 0.05755 0.06338 0.44953 0.0
C1904 C 0.09661 0.10846 0.44066 0.0
C1905 C 0.10607 0.11991 0.44793 0.0
C1906 C 0.11607 0.11194 0.43227 0.0
C1907 C 0.10918 0.09983 0.42446 0.0
C1908 C 0.12004 0.08126 0.42492 0.0
C1909 C 0.11253 0.06983 0.4176 0.0
C1910 C 0.09453 0.07685 0.40976 0.0
C1911 C 0.08419 0.09534 0.4092 0.0
C1912 C 0.09158 0.10683 0.41651 0.0
C1913 C 0.24937 0.16956 0.4423 0.0
C1914 C 0.23649 0.18474 0.43727 0.0
C1915 C 0.22357 0.1539 0.44246 0.0
C1916 C 0.18507 0.15318 0.43749 0.0
C1917 C 0.17399 0.16786 0.43198 0.0
C1918 C 0.19921 0.18358 0.43195 0.0
C1919 C 0.15419 0.13799 0.43868 0.0
C1920 C 0.14421 0.12681 0.43136 0.0
C1921 C 0.13426 0.13472 0.44702 0.0
C1922 C 0.14136 0.1469 0.45481 0.0
C1923 C 0.13137 0.16554 0.45424 0.0
C1924 C 0.13863 0.17703 0.46154 0.0
C1925 C 0.15556 0.17 0.46948 0.0
C1926 C 0.1652 0.15146 0.47014 0.0
C1927 C 0.15803 0.13991 0.46285 0.0
H1928 H 0.16107 0.17892 0.47514 0.0
H1929 H 0.08867 0.06798 0.4041 0.0
H1930 H 0.67472 0.69679 0.44313 0.0
H1931 H 0.63636 0.66828 0.44193 0.0
H1932 H 0.7546 0.64056 0.43532 0.0
H1933 H 0.79406 0.66965 0.43637 0.0
H1934 H 0.68583 0.62939 0.42481 0.0
H1935 H 0.7135 0.63652 0.45607 0.0
H1936 H 0.71565 0.65277 0.4705 0.0
H1937 H 0.57813 0.65897 0.46983 0.0
H1938 H 0.57519 0.64297 0.45533 0.0
H1939 H 0.60606 0.54143 0.4342 0.0
H1940 H 0.64462 0.5701 0.43354 0.0
H1941 H 0.52803 0.59903 0.44018 0.0
H1942 H 0.48866 0.56996 0.44096 0.0
H1943 H 0.59691 0.60937 0.45057 0.0
H1944 H 0.56954 0.60179 0.41929 0.0
H1945 H 0.56793 0.58542 0.4049 0.0
H1946 H 0.70555 0.57967 0.40568 0.0
H1947 H 0.70795 0.59579 0.42015 0.0
C1948 C 0.69305 0.68471 0.44144 0.0
C1949 C 0.73783 0.68552 0.43996 0.0
C1950 C 0.67082 0.66835 0.44078 0.0
C1951 C 0.69265 0.65222 0.43872 0.0
C1952 C 0.73719 0.65288 0.43699 0.0
C1953 C 0.75971 0.66946 0.43761 0.0
C1954 C 0.66819 0.63484 0.43847 0.0
C1955 C 0.66699 0.62482 0.43049 0.0
C1956 C 0.64259 0.62918 0.4458 0.0
C1957 C 0.64418 0.63865 0.45458 0.0
C1958 C 0.68374 0.64145 0.45897 0.0
C1959 C 0.6851 0.6506 0.46717 0.0
C1960 C 0.64706 0.65693 0.47107 0.0
C1961 C 0.60757 0.65407 0.4668 0.0
C1962 C 0.60603 0.64493 0.45859 0.0
C1963 C 0.58826 0.55385 0.43547 0.0
C1964 C 0.54419 0.55337 0.4377 0.0
C1965 C 0.61046 0.57029 0.43502 0.0
C1966 C 0.58922 0.58673 0.43673 0.0
C1967 C 0.54499 0.58645 0.4388 0.0
C1968 C 0.5225 0.56988 0.4392 0.0
C1969 C 0.6143 0.60395 0.43689 0.0
C1970 C 0.61571 0.61393 0.44488 0.0
C1971 C 0.64018 0.6095 0.42958 0.0
C1972 C 0.63887 0.59987 0.42085 0.0
C1973 C 0.59944 0.59691 0.41643 0.0
C1974 C 0.59839 0.5877 0.40825 0.0
C1975 C 0.6366 0.58148 0.40439 0.0
C1976 C 0.67597 0.58449 0.40868 0.0
C1977 C 0.6772 0.59369 0.41687 0.0
H1978 H 0.63572 0.57435 0.39805 0.0
H1979 H 0.64819 0.66403 0.47741 0.0
H1980 H 0.28502 0.56904 0.32995 0.0
H1981 H 0.24471 0.59776 0.33134 0.0
H1982 H 0.14031 0.57468 0.31598 0.0
H1983 H 0.18009 0.54653 0.31441 0.0
H1984 H 0.15364 0.6081 0.31078 0.0
H1985 H 0.13725 0.5773 0.33902 0.0
H1986 H 0.16257 0.56264 0.35291 0.0
H1987 H 0.22484 0.61229 0.36087 0.0
H1988 H 0.20034 0.62718 0.34697 0.0
H1989 H 0.98416 0.66908 0.32077 0.0
H1990 H 0.02468 0.6403 0.32142 0.0
H1991 H 0.13169 0.66826 0.33372 0.0
H1992 H 0.09174 0.69684 0.33303 0.0
H1993 H 0.11847 0.63314 0.34072 0.0
H1994 H 0.13336 0.66363 0.31215 0.0
H1995 H 0.10391 0.6781 0.29856 0.0
H1996 H 0.04104 0.62809 0.29139 0.0
H1997 H 0.06966 0.6134 0.30501 0.0
C1998 C 0.25369 0.57021 0.32681 0.0
C1999 C 0.23576 0.55543 0.32213 0.0
C2000 C 0.23056 0.58657 0.32765 0.0
C2001 C 0.1892 0.5883 0.32385 0.0
C2002 C 0.17206 0.57371 0.31897 0.0
C2003 C 0.19495 0.55753 0.31813 0.0
C2004 C 0.1628 0.60502 0.325 0.0
C2005 C 0.14574 0.61345 0.31734 0.0
C2006 C 0.15274 0.61218 0.33354 0.0
C2007 C 0.1674 0.60328 0.34191 0.0
C2008 C 0.15663 0.58504 0.3437 0.0
C2009 C 0.17078 0.5767 0.35158 0.0
C2010 C 0.19542 0.58651 0.35775 0.0
C2011 C 0.20583 0.6047 0.35607 0.0
C2012 C 0.19181 0.6131 0.3482 0.0
C2013 C 0.01583 0.66891 0.32383 0.0
C2014 C 0.03504 0.68514 0.32678 0.0
C2015 C 0.03901 0.65255 0.32415 0.0
C2016 C 0.08138 0.65225 0.32752 0.0
C2017 C 0.09914 0.6682 0.33108 0.0
C2018 C 0.07633 0.68452 0.33065 0.0
C2019 C 0.10903 0.63593 0.32652 0.0
C2020 C 0.12646 0.62771 0.33418 0.0
C2021 C 0.11923 0.62885 0.31798 0.0
C2022 C 0.10327 0.63748 0.30964 0.0
C2023 C 0.1131 0.65575 0.3077 0.0
C2024 C 0.09657 0.66399 0.29999 0.0
C2025 C 0.07045 0.65404 0.29414 0.0
C2026 C 0.06118 0.63579 0.29594 0.0
C2027 C 0.07757 0.6275 0.30365 0.0
H2028 H 0.05737 0.66047 0.28822 0.0
H2029 H 0.20634 0.58003 0.36385 0.0
H2030 H 0.78992 0.06943 0.3313 0.0
H2031 H 0.7492 0.09811 0.33232 0.0
H2032 H 0.66146 0.07888 0.312 0.0
H2033 H 0.70172 0.05056 0.31091 0.0
H2034 H 0.68112 0.11448 0.30959 0.0
H2035 H 0.63581 0.07508 0.33375 0.0
H2036 H 0.64739 0.0562 0.34718 0.0
H2037 H 0.69753 0.10258 0.36126 0.0
H2038 H 0.68679 0.12168 0.34786 0.0
H2039 H 0.49568 0.1691 0.31637 0.0
H2040 H 0.53971 0.14119 0.31681 0.0
H2041 H 0.63083 0.16791 0.33423 0.0
H2042 H 0.5878 0.19582 0.33358 0.0
H2043 H 0.61201 0.12964 0.33858 0.0
H2044 H 0.65871 0.16888 0.31485 0.0
H2045 H 0.64933 0.18835 0.30157 0.0
H2046 H 0.59863 0.14291 0.28684 0.0
H2047 H 0.60716 0.1232 0.30012 0.0
C2048 C 0.76241 0.07151 0.32695 0.0
C2049 C 0.74878 0.05771 0.32109 0.0
C2050 C 0.73903 0.08781 0.32758 0.0
C2051 C 0.70196 0.0905 0.32231 0.0
C2052 C 0.68982 0.07709 0.31614 0.0
C2053 C 0.71283 0.06086 0.31556 0.0
C2054 C 0.67424 0.10679 0.32342 0.0
C2055 C 0.66577 0.11768 0.31591 0.0
C2056 C 0.65479 0.11118 0.33171 0.0
C2057 C 0.66095 0.09975 0.33978 0.0
C2058 C 0.64961 0.08121 0.33969 0.0
C2059 C 0.65597 0.07048 0.3473 0.0
C2060 C 0.6733 0.07817 0.35506 0.0
C2061 C 0.68418 0.09663 0.35524 0.0
C2062 C 0.67795 0.10742 0.34764 0.0
C2063 C 0.52447 0.16876 0.32048 0.0
C2064 C 0.5385 0.18445 0.32496 0.0
C2065 C 0.54964 0.15293 0.32069 0.0
C2066 C 0.58854 0.1526 0.32553 0.0
C2067 C 0.60088 0.1679 0.3305 0.0
C2068 C 0.57635 0.18379 0.33011 0.0
C2069 C 0.61852 0.13704 0.32472 0.0
C2070 C 0.62744 0.12638 0.33227 0.0
C2071 C 0.63859 0.13288 0.31649 0.0
C2072 C 0.6331 0.14463 0.3085 0.0
C2073 C 0.64511 0.16309 0.30881 0.0
C2074 C 0.64007 0.17415 0.30128 0.0
C2075 C 0.62336 0.16687 0.29337 0.0
C2076 C 0.61156 0.14852 0.29298 0.0
C2077 C 0.61651 0.13739 0.30051 0.0
H2078 H 0.6198 0.17545 0.28754 0.0
H2079 H 0.67821 0.06984 0.36095 0.0
H2080 H 0.029 0.52257 0.10094 0.0
H2081 H 0.06454 0.52243 0.11559 0.0
H2082 H 0.13475 0.47408 0.10818 0.0
H2083 H 0.0986 0.47398 0.09355 0.0
H2084 H 0.06446 0.49792 0.12915 0.0
H2085 H 0.23875 0.47817 0.11817 0.0
H2086 H 0.28761 0.48248 0.10535 0.0
H2087 H 0.21498 0.52925 0.09701 0.0
H2088 H 0.16643 0.52553 0.1099 0.0
H2089 H 0.19162 0.47311 0.16738 0.0
H2090 H 0.15585 0.47312 0.15271 0.0
H2091 H 0.22114 0.52301 0.14587 0.0
H2092 H 0.25639 0.52319 0.16053 0.0
H2093 H 0.22363 0.49943 0.13204 0.0
H2094 H 0.118 0.52438 0.15134 0.0
H2095 H 0.06933 0.52661 0.16431 0.0
H2096 H 1.00437 0.47784 0.156 0.0
H2097 H 0.05315 0.47515 0.14303 0.0
C2098 C 0.05198 0.51189 0.10243 0.0
C2099 C 0.06109 0.49834 0.09605 0.0
C2100 C 0.07219 0.51178 0.11083 0.0
C2101 C 0.10254 0.49829 0.11302 0.0
C2102 C 0.11175 0.48473 0.10665 0.0
C2103 C 0.09108 0.48469 0.09828 0.0
C2104 C 0.1245 0.49849 0.12195 0.0
C2105 C 0.09929 0.49807 0.12976 0.0
C2106 C 0.16996 0.49924 0.12283 0.0
C2107 C 0.19853 0.50138 0.11494 0.0
C2108 C 0.23322 0.48938 0.11361 0.0
C2109 C 0.26098 0.49177 0.10634 0.0
C2110 C 0.25436 0.50612 0.10036 0.0
C2111 C 0.21999 0.51811 0.10163 0.0
C2112 C 0.19232 0.51586 0.10891 0.0
C2113 C 0.19825 0.4841 0.16275 0.0
C2114 C 0.22677 0.49818 0.16514 0.0
C2115 C 0.17774 0.48411 0.15436 0.0
C2116 C 0.18559 0.49811 0.14815 0.0
C2117 C 0.21455 0.51203 0.1505 0.0
C2118 C 0.23462 0.51214 0.15891 0.0
C2119 C 0.16363 0.49835 0.13921 0.0
C2120 C 0.18883 0.49892 0.13141 0.0
C2121 C 0.11816 0.49825 0.13835 0.0
C2122 C 0.08953 0.49946 0.14626 0.0
C2123 C 0.09369 0.514 0.15233 0.0
C2124 C 0.06601 0.51538 0.15967 0.0
C2125 C 0.03375 0.5024 0.16096 0.0
C2126 C 0.02934 0.4879 0.15497 0.0
C2127 C 0.05701 0.48644 0.14763 0.0
H2128 H 1.01208 0.50362 0.16658 0.0
H2129 H 0.27591 0.50796 0.09475 0.0
H2130 H 0.21354 0.77488 0.09603 0.0
H2131 H 0.18079 0.77599 0.11099 0.0
H2132 H 0.20298 0.7184 0.11412 0.0
H2133 H 0.23622 0.71728 0.09928 0.0
H2134 H 0.11931 0.72925 0.11906 0.0
H2135 H 0.26676 0.74746 0.12464 0.0
H2136 H 0.33115 0.7666 0.12244 0.0
H2137 H 0.25962 0.81395 0.13038 0.0
H2138 H 0.19459 0.79511 0.13251 0.0
H2139 H 0.07421 0.71632 0.16471 0.0
H2140 H 0.1087 0.71739 0.15005 0.0
H2141 H 0.11149 0.77609 0.15136 0.0
H2142 H 0.07906 0.77492 0.16631 0.0
H2143 H 0.18057 0.76626 0.14375 0.0
H2144 H 0.03423 0.75003 0.13838 0.0
H2145 H 0.96673 0.73265 0.14002 0.0
H2146 H 0.03053 0.68419 0.13094 0.0
H2147 H 0.09858 0.70123 0.12936 0.0
C2148 C 0.2115 0.76247 0.09992 0.0
C2149 C 0.22769 0.746 0.09648 0.0
C2150 C 0.19286 0.76313 0.10848 0.0
C2151 C 0.18958 0.74729 0.11373 0.0
C2152 C 0.20515 0.73081 0.11023 0.0
C2153 C 0.22429 0.7302 0.10174 0.0
C2154 C 0.16979 0.74775 0.12285 0.0
C2155 C 0.13297 0.73718 0.12449 0.0
C2156 C 0.18658 0.7586 0.12988 0.0
C2157 C 0.2257 0.7699 0.12865 0.0
C2158 C 0.26466 0.76197 0.12585 0.0
C2159 C 0.30129 0.77276 0.12463 0.0
C2160 C 0.29944 0.79148 0.12625 0.0
C2161 C 0.26098 0.79945 0.12911 0.0
C2162 C 0.22424 0.78872 0.13034 0.0
C2163 C 0.08234 0.72946 0.16189 0.0
C2164 C 0.07352 0.74554 0.16664 0.0
C2165 C 0.1018 0.73009 0.15344 0.0
C2166 C 0.11178 0.74685 0.14936 0.0
C2167 C 0.104 0.76294 0.15424 0.0
C2168 C 0.08534 0.76229 0.1628 0.0
C2169 C 0.13007 0.74754 0.14005 0.0
C2170 C 0.16661 0.75835 0.13835 0.0
C2171 C 0.11247 0.73718 0.1329 0.0
C2172 C 0.0716 0.72688 0.13383 0.0
C2173 C 0.03394 0.73564 0.13679 0.0
C2174 C 0.99557 0.72585 0.13771 0.0
C2175 C 0.99437 0.70732 0.13561 0.0
C2176 C 0.03152 0.69854 0.13257 0.0
C2177 C 0.06999 0.70826 0.13166 0.0
H2178 H 0.96463 0.69977 0.13632 0.0
H2179 H 0.32786 0.7998 0.12532 0.0
H2180 H 0.83061 0.52297 0.84518 0.0
H2181 H 0.86288 0.52405 0.86017 0.0
H2182 H 0.83792 0.46664 0.86345 0.0
H2183 H 0.80453 0.46571 0.84865 0.0
H2184 H 0.81778 0.48207 0.87807 0.0
H2185 H 0.94379 0.48603 0.8595 0.0
H2186 H 0.99389 0.49798 0.84814 0.0
H2187 H 0.99752 0.54954 0.86168 0.0
H2188 H 0.9473 0.53791 0.8731 0.0
H2189 H 0.96907 0.4646 0.91377 0.0
H2190 H 0.93422 0.46604 0.89902 0.0
H2191 H 0.92167 0.52423 0.90163 0.0
H2192 H 0.95527 0.5228 0.91651 0.0
H2193 H 0.96006 0.50991 0.88448 0.0
H2194 H 0.83462 0.50523 0.90312 0.0
H2195 H 0.78992 0.49204 0.91508 0.0
H2196 H 0.78963 0.44048 0.90152 0.0
H2197 H 0.83437 0.45342 0.88945 0.0
C2198 C 0.83215 0.51058 0.8491 0.0
C2199 C 0.81484 0.49427 0.84572 0.0
C2200 C 0.85092 0.51117 0.85767 0.0
C2201 C 0.85345 0.49538 0.86302 0.0
C2202 C 0.83641 0.47907 0.85956 0.0
C2203 C 0.81736 0.47853 0.85105 0.0
C2204 C 0.87251 0.4958 0.87228 0.0
C2205 C 0.84916 0.488 0.87938 0.0
C2206 C 0.91306 0.50388 0.87421 0.0
C2207 C 0.94145 0.51116 0.8671 0.0
C2208 C 0.95486 0.49998 0.85999 0.0
C2209 C 0.98344 0.50667 0.85357 0.0
C2210 C 0.99886 0.52451 0.85419 0.0
C2211 C 0.98555 0.53573 0.86121 0.0
C2212 C 0.95709 0.52909 0.86766 0.0
C2213 C 0.95867 0.47769 0.91122 0.0
C2214 C 0.965 0.49358 0.9163 0.0
C2215 C 0.93872 0.47849 0.9028 0.0
C2216 C 0.92538 0.49525 0.8992 0.0
C2217 C 0.93175 0.51116 0.90425 0.0
C2218 C 0.95085 0.51031 0.91277 0.0
C2219 C 0.90546 0.4961 0.8901 0.0
C2220 C 0.92863 0.5041 0.88308 0.0
C2221 C 0.86503 0.4881 0.88822 0.0
C2222 C 0.83818 0.48024 0.89544 0.0
C2223 C 0.82532 0.49104 0.90273 0.0
C2224 C 0.79991 0.48362 0.90952 0.0
C2225 C 0.78717 0.46539 0.9091 0.0
C2226 C 0.7996 0.45459 0.90185 0.0
C2227 C 0.82488 0.46197 0.89502 0.0
H2228 H 0.76754 0.45967 0.91437 0.0
H2229 H 0.02123 0.52965 0.84926 0.0
H2230 H 0.03297 0.23169 0.8521 0.0
H2231 H 0.99794 0.23177 0.86687 0.0
H2232 H 0.88105 0.25201 0.85487 0.0
H2233 H 0.91574 0.25159 0.84012 0.0
H2234 H 0.91797 0.27152 0.87151 0.0
H2235 H 0.87292 0.21282 0.85988 0.0
H2236 H 0.88666 0.18254 0.85335 0.0
H2237 H 0.96427 0.16823 0.87609 0.0
H2238 H 0.95155 0.19857 0.88268 0.0
H2239 H 0.77556 0.26811 0.90831 0.0
H2240 H 0.8098 0.26652 0.89365 0.0
H2241 H 0.89244 0.22332 0.90311 0.0
H2242 H 0.85544 0.22391 0.91756 0.0
H2243 H 0.87557 0.21525 0.88756 0.0
H2244 H 0.92437 0.27206 0.8995 0.0
H2245 H 0.92055 0.30288 0.90602 0.0
H2246 H 0.84702 0.32137 0.88343 0.0
H2247 H 0.85007 0.29063 0.87681 0.0
C2248 C 0.99971 0.23602 0.85263 0.0
C2249 C 0.97675 0.2413 0.84494 0.0
C2250 C 0.97973 0.23604 0.86106 0.0
C2251 C 0.93676 0.2418 0.86198 0.0
C2252 C 0.91409 0.24739 0.85432 0.0
C2253 C 0.93374 0.24695 0.84588 0.0
C2254 C 0.91569 0.24233 0.87096 0.0
C2255 C 0.90817 0.25926 0.875 0.0
C2256 C 0.90438 0.22631 0.87564 0.0
C2257 C 0.9117 0.20803 0.87172 0.0
C2258 C 0.89328 0.20328 0.86344 0.0
C2259 C 0.9008 0.18609 0.85974 0.0
C2260 C 0.92643 0.17348 0.86429 0.0
C2261 C 0.94448 0.17802 0.87257 0.0
C2262 C 0.9371 0.19521 0.87629 0.0
C2263 C 0.80101 0.25826 0.90726 0.0
C2264 C 0.81304 0.24627 0.91415 0.0
C2265 C 0.82107 0.25748 0.89886 0.0
C2266 C 0.85496 0.24516 0.8972 0.0
C2267 C 0.86669 0.23305 0.90411 0.0
C2268 C 0.84569 0.23347 0.91243 0.0
C2269 C 0.87736 0.24461 0.88826 0.0
C2270 C 0.88529 0.22763 0.88417 0.0
C2271 C 0.89004 0.26064 0.88362 0.0
C2272 C 0.88715 0.279 0.8877 0.0
C2273 C 0.90706 0.28266 0.89597 0.0
C2274 C 0.90512 0.30013 0.89967 0.0
C2275 C 0.88354 0.31407 0.89514 0.0
C2276 C 0.86372 0.31056 0.88693 0.0
C2277 C 0.86559 0.29313 0.88319 0.0
H2278 H 0.8823 0.32762 0.89798 0.0
H2279 H 0.93222 0.16018 0.86142 0.0
H2280 H 0.0201 0.01549 0.60415 0.0
H2281 H 0.05165 0.01288 0.61906 0.0
H2282 H 0.14114 0.9726 0.60922 0.0
H2283 H 0.10681 0.97411 0.59446 0.0
H2284 H 0.12369 0.96286 0.62464 0.0
H2285 H 0.16569 0.02079 0.61373 0.0
H2286 H 0.15779 0.05133 0.60729 0.0
H2287 H 0.0819 0.06805 0.62985 0.0
H2288 H 0.08842 0.03728 0.63633 0.0
H2289 H 0.27575 0.98101 0.66102 0.0
H2290 H 0.24125 0.9803 0.64617 0.0
H2291 H 0.12222 -0.00118 0.65787 0.0
H2292 H 0.15646 -0.00077 0.67269 0.0
H2293 H 0.1569 0.01904 0.64173 0.0
H2294 H 0.12016 0.95876 0.65241 0.0
H2295 H 0.13772 0.92847 0.65852 0.0
H2296 H 0.21713 0.91726 0.63568 0.0
H2297 H 0.20058 0.94762 0.6295 0.0
C2298 C 0.04649 0.00606 0.60516 0.0
C2299 C 0.06139 0.99524 0.59806 0.0
C2300 C 0.06492 0.00467 0.61371 0.0
C2301 C 0.10001 0.99294 0.61535 0.0
C2302 C 0.11443 0.98188 0.60824 0.0
C2303 C 0.09505 0.98287 0.59974 0.0
C2304 C 0.12146 0.99224 0.62441 0.0
C2305 C 0.13134 0.97523 0.62827 0.0
C2306 C 0.13161 0.00823 0.62935 0.0
C2307 C 0.1272 0.02669 0.62546 0.0
C2308 C 0.147 0.03093 0.61728 0.0
C2309 C 0.14279 0.04832 0.61363 0.0
C2310 C 0.11941 0.06171 0.61816 0.0
C2311 C 0.1 0.05767 0.62634 0.0
C2312 C 0.10387 0.04024 0.63001 0.0
C2313 C 0.24211 0.98476 0.66041 0.0
C2314 C 0.21848 0.98984 0.66803 0.0
C2315 C 0.22242 0.98431 0.65194 0.0
C2316 C 0.17901 0.98937 0.6509 0.0
C2317 C 0.1556 0.9947 0.6585 0.0
C2318 C 0.17501 0.99474 0.66699 0.0
C2319 C 0.15848 0.98983 0.64186 0.0
C2320 C 0.14901 0.00677 0.63803 0.0
C2321 C 0.14988 0.97385 0.63688 0.0
C2322 C 0.1595 0.95554 0.64055 0.0
C2323 C 0.1417 0.94991 0.64873 0.0
C2324 C 0.1514 0.93271 0.6522 0.0
C2325 C 0.17862 0.92097 0.6475 0.0
C2326 C 0.19609 0.92638 0.63932 0.0
C2327 C 0.18654 0.94358 0.63583 0.0
H2328 H 0.18609 0.90766 0.65019 0.0
H2329 H 0.11637 0.07523 0.61536 0.0
H2330 H 0.16488 0.23898 0.59144 0.0
H2331 H 0.13181 0.23908 0.60626 0.0
H2332 H 0.24617 0.26416 0.6172 0.0
H2333 H 0.27998 0.26301 0.60237 0.0
H2334 H 0.22245 0.24253 0.62871 0.0
H2335 H 0.14213 0.28711 0.61308 0.0
H2336 H 0.0983 0.30085 0.60109 0.0
H2337 H 0.998 0.26181 0.60584 0.0
H2338 H 0.04157 0.24759 0.61775 0.0
H2339 H 0.10618 0.26922 0.66901 0.0
H2340 H 0.14148 0.27126 0.65433 0.0
H2341 H 0.0642 0.22655 0.64477 0.0
H2342 H 0.03017 0.22395 0.65951 0.0
H2343 H 0.0697 0.26017 0.63306 0.0
H2344 H 0.15817 0.21686 0.64957 0.0
H2345 H 0.20335 0.20794 0.66242 0.0
H2346 H 0.29132 0.25144 0.6566 0.0
H2347 H 0.24604 0.26093 0.64385 0.0
C2348 C 0.18257 0.24482 0.59698 0.0
C2349 C 0.22459 0.25139 0.5957 0.0
C2350 C 0.16364 0.2449 0.6055 0.0
C2351 C 0.18569 0.2521 0.61296 0.0
C2352 C 0.22801 0.25856 0.61165 0.0
C2353 C 0.24737 0.25801 0.60315 0.0
C2354 C 0.16512 0.25242 0.62211 0.0
C2355 C 0.18922 0.24669 0.6296 0.0
C2356 C 0.12158 0.25779 0.62349 0.0
C2357 C 0.09534 0.26617 0.61627 0.0
C2358 C 0.11089 0.28135 0.61152 0.0
C2359 C 0.08606 0.28924 0.60475 0.0
C2360 C 0.04538 0.28222 0.60271 0.0
C2361 C 0.02948 0.26725 0.60744 0.0
C2362 C 0.05426 0.25926 0.6142 0.0
C2363 C 0.09699 0.25971 0.6638 0.0
C2364 C 0.06565 0.24628 0.66548 0.0
C2365 C 0.11709 0.26094 0.6554 0.0
C2366 C 0.10557 0.24905 0.64842 0.0
C2367 C 0.07364 0.23589 0.65003 0.0
C2368 C 0.05429 0.23439 0.65848 0.0
C2369 C 0.12696 0.25013 0.63946 0.0
C2370 C 0.10296 0.25613 0.63206 0.0
C2371 C 0.17091 0.24565 0.63823 0.0
C2372 C 0.19841 0.23974 0.64582 0.0
C2373 C 0.18689 0.22465 0.65109 0.0
C2374 C 0.21255 0.21948 0.65835 0.0
C2375 C 0.25012 0.22915 0.66034 0.0
C2376 C 0.26218 0.24398 0.65506 0.0
C2377 C 0.23649 0.24927 0.64782 0.0
H2378 H 0.26993 0.22515 0.66598 0.0
H2379 H 0.0262 0.28835 0.59747 0.0
H2380 H 0.03284 0.01368 0.41071 0.0
H2381 H 0.99987 0.01446 0.39571 0.0
H2382 H 0.88091 0.99423 0.4067 0.0
H2383 H 0.91351 0.99382 0.42168 0.0
H2384 H 0.92051 0.97505 0.39014 0.0
H2385 H 0.87497 0.03394 0.40191 0.0
H2386 H 0.88999 0.0639 0.40868 0.0
H2387 H 0.97096 0.07779 0.38645 0.0
H2388 H 0.95688 0.04778 0.37961 0.0
H2389 H 0.77896 0.97873 0.35353 0.0
H2390 H 0.81272 0.98098 0.36823 0.0
H2391 H 0.89611 0.02356 0.35846 0.0
H2392 H 0.85982 0.02219 0.34387 0.0
H2393 H 0.8796 0.03184 0.3743 0.0
H2394 H 0.92846 0.9761 0.36198 0.0
H2395 H 0.92397 0.94595 0.35478 0.0
H2396 H 0.85129 0.92551 0.37703 0.0
H2397 H 0.85479 0.95563 0.38431 0.0
C2398 C 0.99951 0.0096 0.40992 0.0
C2399 C 0.97545 0.00402 0.4174 0.0
C2400 C 0.98072 0.01004 0.40136 0.0
C2401 C 0.93781 0.00446 0.40007 0.0
C2402 C 0.91394 -0.0013 0.40753 0.0
C2403 C 0.93241 -0.00133 0.41611 0.0
C2404 C 0.91806 0.00423 0.39093 0.0
C2405 C 0.911 0.98743 0.3867 0.0
C2406 C 0.90749 0.0204 0.38627 0.0
C2407 C 0.91523 0.03855 0.3903 0.0
C2408 C 0.89625 0.04333 0.3985 0.0
C2409 C 0.90453 0.06033 0.40235 0.0
C2410 C 0.93152 0.07273 0.39801 0.0
C2411 C 0.95011 0.06817 0.38981 0.0
C2412 C 0.94195 0.05118 0.38594 0.0
C2413 C 0.8044 0.98863 0.35451 0.0
C2414 C 0.81698 0.00013 0.34747 0.0
C2415 C 0.82413 0.9898 0.36294 0.0
C2416 C 0.85824 0.00205 0.36452 0.0
C2417 C 0.87023 0.01386 0.35751 0.0
C2418 C 0.84961 0.01301 0.34912 0.0
C2419 C 0.88097 0.0025 0.37345 0.0
C2420 C 0.88893 0.01935 0.37765 0.0
C2421 C 0.89368 0.98634 0.37799 0.0
C2422 C 0.89155 0.96818 0.37365 0.0
C2423 C 0.91126 0.96521 0.36531 0.0
C2424 C 0.90892 0.94812 0.36121 0.0
C2425 C 0.88727 0.93384 0.36543 0.0
C2426 C 0.868 0.9366 0.37376 0.0
C2427 C 0.87018 0.95367 0.37788 0.0
H2428 H 0.8855 0.92062 0.36225 0.0
H2429 H 0.93794 0.08587 0.40101 0.0
H2430 H 0.90744 0.74194 0.34185 0.0
H2431 H 0.87053 0.74164 0.3564 0.0
H2432 H 0.99308 0.74506 0.36986 0.0
H2433 H 0.03002 0.74581 0.35536 0.0
H2434 H 0.90639 0.71432 0.37395 0.0
H2435 H 0.96937 0.7776 0.37401 0.0
H2436 H 0.97862 0.80768 0.36689 0.0
H2437 H 0.84147 0.8127 0.36398 0.0
H2438 H 0.83156 0.7825 0.37094 0.0
H2439 H 0.84985 0.72351 0.41973 0.0
H2440 H 0.88515 0.72304 0.40514 0.0
H2441 H 0.79597 0.76378 0.39556 0.0
H2442 H 0.76358 0.76546 0.41043 0.0
H2443 H 0.8641 0.77201 0.38878 0.0
H2444 H 0.79522 0.71401 0.38993 0.0
H2445 H 0.77589 0.68394 0.39607 0.0
H2446 H 0.90858 0.66752 0.39512 0.0
H2447 H 0.92878 0.69758 0.38907 0.0
C2448 C 0.92649 0.74252 0.34791 0.0
C2449 C 0.97167 0.74384 0.34745 0.0
C2450 C 0.90536 0.74242 0.35622 0.0
C2451 C 0.92902 0.74344 0.36423 0.0
C2452 C 0.97415 0.7444 0.36378 0.0
C2453 C 0.99521 0.74481 0.35548 0.0
C2454 C 0.90676 0.74351 0.37306 0.0
C2455 C 0.89748 0.7269 0.37727 0.0
C2456 C 0.89356 0.75985 0.37722 0.0
C2457 C 0.8998 0.77774 0.37287 0.0
C2458 C 0.94128 0.78501 0.37172 0.0
C2459 C 0.94662 0.8021 0.36776 0.0
C2460 C 0.91064 0.81208 0.36499 0.0
C2461 C 0.86929 0.80495 0.36612 0.0
C2462 C 0.86381 0.78785 0.37007 0.0
C2463 C 0.83801 0.73244 0.41452 0.0
C2464 C 0.8041 0.74461 0.41627 0.0
C2465 C 0.85785 0.73199 0.40609 0.0
C2466 C 0.84299 0.74309 0.39903 0.0
C2467 C 0.80854 0.75507 0.40079 0.0
C2468 C 0.78974 0.75597 0.40931 0.0
C2469 C 0.86388 0.74268 0.38993 0.0
C2470 C 0.87282 0.75928 0.38558 0.0
C2471 C 0.87558 0.72622 0.38553 0.0
C2472 C 0.86354 0.70811 0.38913 0.0
C2473 C 0.8203 0.70402 0.39108 0.0
C2474 C 0.80919 0.68698 0.39454 0.0
C2475 C 0.841 0.67385 0.39601 0.0
C2476 C 0.88398 0.67771 0.39399 0.0
C2477 C 0.89527 0.69474 0.39054 0.0
H2478 H 0.83234 0.66066 0.39869 0.0
H2479 H 0.91476 0.82539 0.362 0.0
H2480 H 0.56415 0.52637 0.59702 0.0
H2481 H 0.60198 0.52607 0.61148 0.0
H2482 H 0.604 0.46742 0.61099 0.0
H2483 H 0.56765 0.46764 0.59637 0.0
H2484 H 0.57069 0.48771 0.6281 0.0
H2485 H 0.69041 0.48029 0.60807 0.0
H2486 H 0.73499 0.48786 0.59499 0.0
H2487 H 0.75842 0.54121 0.60569 0.0
H2488 H 0.71329 0.53402 0.61882 0.0
H2489 H 0.70583 0.47236 0.66598 0.0
H2490 H 0.67026 0.47126 0.65135 0.0
H2491 H 0.71203 0.5262 0.64598 0.0
H2492 H 0.7486 0.52712 0.6605 0.0
H2493 H 0.72294 0.50709 0.63154 0.0
H2494 H 0.60249 0.51521 0.65135 0.0
H2495 H 0.55497 0.50858 0.66413 0.0
H2496 H 0.53172 0.45484 0.65388 0.0
H2497 H 0.57888 0.46123 0.64098 0.0
C2498 C 0.57282 0.51342 0.59998 0.0
C2499 C 0.56285 0.49703 0.59557 0.0
C2500 C 0.59444 0.51326 0.60823 0.0
C2501 C 0.60568 0.49672 0.61234 0.0
C2502 C 0.59555 0.48033 0.60797 0.0
C2503 C 0.57491 0.48049 0.5996 0.0
C2504 C 0.62771 0.4966 0.62122 0.0
C2505 C 0.60416 0.49169 0.62885 0.0
C2506 C 0.67101 0.50223 0.62224 0.0
C2507 C 0.69799 0.5067 0.61436 0.0
C2508 C 0.70458 0.49373 0.60758 0.0
C2509 C 0.72999 0.49794 0.60016 0.0
C2510 C 0.74921 0.51508 0.59946 0.0
C2511 C 0.74325 0.52799 0.60621 0.0
C2512 C 0.71779 0.52385 0.61366 0.0
C2513 C 0.70733 0.48422 0.66168 0.0
C2514 C 0.73009 0.49983 0.66441 0.0
C2515 C 0.68672 0.48363 0.65332 0.0
C2516 C 0.68782 0.49874 0.64751 0.0
C2517 C 0.71058 0.51433 0.65026 0.0
C2518 C 0.73142 0.51488 0.6586 0.0
C2519 C 0.66596 0.49821 0.63854 0.0
C2520 C 0.68948 0.50306 0.63085 0.0
C2521 C 0.62247 0.49261 0.63748 0.0
C2522 C 0.59452 0.48864 0.64526 0.0
C2523 C 0.58748 0.50193 0.65186 0.0
C2524 C 0.56054 0.49823 0.65912 0.0
C2525 C 0.54056 0.48124 0.65986 0.0
C2526 C 0.54729 0.46797 0.65331 0.0
C2527 C 0.57397 0.47165 0.64601 0.0
H2528 H 0.51969 0.47839 0.66548 0.0
H2529 H 0.7689 0.51831 0.5937 0.0
H2530 H 0.70984 0.76992 0.5962 0.0
H2531 H 0.67531 0.77193 0.61095 0.0
H2532 H 0.69855 0.71471 0.61518 0.0
H2533 H 0.7335 0.71269 0.60052 0.0
H2534 H 0.61422 0.72584 0.61985 0.0
H2535 H 0.76193 0.74516 0.62517 0.0
H2536 H 0.82501 0.7647 0.62228 0.0
H2537 H 0.75098 0.81211 0.62907 0.0
H2538 H 0.68727 0.79285 0.63189 0.0
H2539 H 0.56956 0.71544 0.66555 0.0
H2540 H 0.60368 0.71591 0.65085 0.0
H2541 H 0.60685 0.77464 0.6516 0.0
H2542 H 0.57483 0.77408 0.66661 0.0
H2543 H 0.67521 0.76468 0.64389 0.0
H2544 H 0.52935 0.74827 0.63884 0.0
H2545 H 0.46143 0.73129 0.64072 0.0
H2546 H 0.52402 0.68204 0.63232 0.0
H2547 H 0.5925 0.69868 0.63051 0.0
C2548 C 0.70752 0.75777 0.60027 0.0
C2549 C 0.72462 0.74115 0.5972 0.0
C2550 C 0.68788 0.75894 0.60872 0.0
C2551 C 0.68457 0.7435 0.61424 0.0
C2552 C 0.70074 0.72682 0.61107 0.0
C2553 C 0.72082 0.72569 0.60269 0.0
C2554 C 0.6646 0.74463 0.62333 0.0
C2555 C 0.62783 0.73416 0.62515 0.0
C2556 C 0.68118 0.75607 0.63015 0.0
C2557 C 0.71975 0.76758 0.62866 0.0
C2558 C 0.75904 0.75976 0.626 0.0
C2559 C 0.79492 0.77078 0.62438 0.0
C2560 C 0.79197 0.78964 0.62546 0.0
C2561 C 0.7532 0.7975 0.62822 0.0
C2562 C 0.71722 0.78654 0.62984 0.0
C2563 C 0.57771 0.72846 0.6626 0.0
C2564 C 0.56911 0.74473 0.66722 0.0
C2565 C 0.59694 0.72874 0.65412 0.0
C2566 C 0.6069 0.74533 0.64988 0.0
C2567 C 0.59937 0.76162 0.65462 0.0
C2568 C 0.58093 0.76131 0.66321 0.0
C2569 C 0.62492 0.74558 0.64053 0.0
C2570 C 0.66131 0.75635 0.63864 0.0
C2571 C 0.60726 0.73478 0.63354 0.0
C2572 C 0.56616 0.72469 0.63462 0.0
C2573 C 0.52871 0.73379 0.63746 0.0
C2574 C 0.4901 0.72424 0.6385 0.0
C2575 C 0.48844 0.70559 0.63666 0.0
C2576 C 0.52537 0.69648 0.63376 0.0
C2577 C 0.56409 0.70597 0.63271 0.0
H2578 H 0.45851 0.69822 0.63747 0.0
H2579 H 0.81974 0.79816 0.62419 0.0
H2580 H 0.3393 0.52069 0.34444 0.0
H2581 H 0.37455 0.5209 0.35918 0.0
H2582 H 0.31681 0.46898 0.36527 0.0
H2583 H 0.28161 0.46876 0.35063 0.0
H2584 H 0.31047 0.49082 0.37939 0.0
H2585 H 0.42424 0.47259 0.35941 0.0
H2586 H 0.4738 0.47523 0.34659 0.0
H2587 H 0.5226 0.52565 0.35706 0.0
H2588 H 0.47312 0.52336 0.36991 0.0
H2589 H 0.50318 0.46765 0.41044 0.0
H2590 H 0.46819 0.46898 0.39573 0.0
H2591 H 0.39832 0.5169 0.40388 0.0
H2592 H 0.43439 0.51599 0.41852 0.0
H2593 H 0.46878 0.49705 0.38272 0.0
H2594 H 0.29263 0.51095 0.3937 0.0
H2595 H 0.24424 0.50477 0.40641 0.0
H2596 H 0.3214 0.45868 0.41388 0.0
H2597 H 0.36952 0.46426 0.40108 0.0
C2598 C 0.3341 0.50935 0.34893 0.0
C2599 C 0.30757 0.49472 0.34635 0.0
C2600 C 0.35443 0.50943 0.35736 0.0
C2601 C 0.34867 0.49489 0.36339 0.0
C2602 C 0.32182 0.48039 0.36081 0.0
C2603 C 0.30174 0.48026 0.3524 0.0
C2604 C 0.37035 0.49465 0.37237 0.0
C2605 C 0.34507 0.49233 0.3801 0.0
C2606 C 0.41561 0.49632 0.37339 0.0
C2607 C 0.4447 0.49789 0.36557 0.0
C2608 C 0.44524 0.48433 0.35893 0.0
C2609 C 0.4734 0.48574 0.35167 0.0
C2610 C 0.50125 0.50063 0.351 0.0
C2611 C 0.50097 0.51414 0.35758 0.0
C2612 C 0.47294 0.51278 0.36486 0.0
C2613 C 0.48044 0.47851 0.4091 0.0
C2614 C 0.47143 0.49165 0.41569 0.0
C2615 C 0.46053 0.47928 0.40067 0.0
C2616 C 0.43045 0.493 0.39867 0.0
C2617 C 0.42121 0.50612 0.40526 0.0
C2618 C 0.44177 0.50555 0.41364 0.0
C2619 C 0.40882 0.4935 0.38971 0.0
C2620 C 0.43411 0.49582 0.38201 0.0
C2621 C 0.36362 0.49163 0.38871 0.0
C2622 C 0.33509 0.48822 0.39649 0.0
C2623 C 0.29923 0.49948 0.39804 0.0
C2624 C 0.27175 0.49604 0.40525 0.0
C2625 C 0.27981 0.48137 0.41096 0.0
C2626 C 0.31529 0.47008 0.40947 0.0
C2627 C 0.3427 0.47338 0.40224 0.0
H2628 H 0.25853 0.47875 0.41654 0.0
H2629 H 0.52324 0.50166 0.34542 0.0
H2630 H 0.30533 0.27645 0.41366 0.0
H2631 H 0.34034 0.27577 0.39902 0.0
H2632 H 0.35598 0.21756 0.40127 0.0
H2633 H 0.32309 0.21843 0.41616 0.0
H2634 H 0.42287 0.22929 0.39376 0.0
H2635 H 0.27437 0.23991 0.38761 0.0
H2636 H 0.20354 0.25494 0.38874 0.0
H2637 H 0.25837 0.30486 0.37909 0.0
H2638 H 0.32969 0.29019 0.37801 0.0
H2639 H 0.45676 0.21726 0.34625 0.0
H2640 H 0.42327 0.21687 0.36114 0.0
H2641 H 0.4419 0.27485 0.36335 0.0
H2642 H 0.47622 0.27524 0.34858 0.0
H2643 H 0.35669 0.26218 0.36822 0.0
H2644 H 0.50669 0.24916 0.37445 0.0
H2645 H 0.57428 0.23188 0.37273 0.0
H2646 H 0.51063 0.18315 0.38147 0.0
H2647 H 0.44246 0.2001 0.38313 0.0
C2648 C 0.31635 0.26351 0.41103 0.0
C2649 C 0.31109 0.24748 0.41604 0.0
C2650 C 0.33612 0.26309 0.4026 0.0
C2651 C 0.35 0.24653 0.39882 0.0
C2652 C 0.34552 0.23054 0.40393 0.0
C2653 C 0.32654 0.23102 0.41246 0.0
C2654 C 0.36921 0.24593 0.38958 0.0
C2655 C 0.40785 0.23629 0.38818 0.0
C2656 C 0.35028 0.25512 0.38219 0.0
C2657 C 0.30746 0.264 0.38282 0.0
C2658 C 0.27138 0.25413 0.38579 0.0
C2659 C 0.23114 0.26258 0.38641 0.0
C2660 C 0.22648 0.28086 0.38401 0.0
C2661 C 0.26204 0.29071 0.38096 0.0
C2662 C 0.30238 0.28233 0.38033 0.0
C2663 C 0.45377 0.22991 0.34992 0.0
C2664 C 0.46935 0.24627 0.34625 0.0
C2665 C 0.43468 0.22967 0.35844 0.0
C2666 C 0.43016 0.24582 0.36341 0.0
C2667 C 0.445 0.26221 0.35967 0.0
C2668 C 0.46475 0.26241 0.35123 0.0
C2669 C 0.4101 0.2457 0.3725 0.0
C2670 C 0.37137 0.25517 0.37384 0.0
C2671 C 0.42836 0.23602 0.37977 0.0
C2672 C 0.46938 0.22586 0.37882 0.0
C2673 C 0.50701 0.23473 0.37593 0.0
C2674 C 0.54545 0.225 0.37498 0.0
C2675 C 0.54672 0.20641 0.37696 0.0
C2676 C 0.50958 0.19754 0.37993 0.0
C2677 C 0.47105 0.2072 0.38088 0.0
H2678 H 0.57651 0.19891 0.37622 0.0
H2679 H 0.19529 0.28738 0.38449 0.0
H2680 H 0.75633 0.0177 0.16054 0.0
H2681 H 0.72236 0.01656 0.14582 0.0
H2682 H 0.63824 0.97364 0.15496 0.0
H2683 H 0.67501 0.97373 0.16946 0.0
H2684 H 0.65554 0.96568 0.13942 0.0
H2685 H 0.60837 0.02247 0.15149 0.0
H2686 H 0.61312 0.05312 0.15817 0.0
H2687 H 0.68639 0.07179 0.13564 0.0
H2688 H 0.68262 0.0412 0.12888 0.0
H2689 H 0.49999 0.98306 0.10366 0.0
H2690 H 0.53447 0.98308 0.11851 0.0
H2691 H 0.65244 0.00251 0.10673 0.0
H2692 H 0.61828 0.00211 0.09189 0.0
H2693 H 0.61529 0.02229 0.1234 0.0
H2694 H 0.65946 0.96342 0.11176 0.0
H2695 H 0.64507 0.93327 0.10515 0.0
H2696 H 0.5658 0.91926 0.12763 0.0
H2697 H 0.57917 0.94948 0.13431 0.0
C2698 C 0.73056 0.00802 0.15942 0.0
C2699 C 0.718 -0.00401 0.16625 0.0
C2700 C 0.71068 0.0075 0.15098 0.0
C2701 C 0.6765 -0.00462 0.14921 0.0
C2702 C 0.6642 0.98324 0.15605 0.0
C2703 C 0.685 0.98341 0.16441 0.0
C2704 C 0.65445 0.99504 0.1402 0.0
C2705 C 0.6463 0.97815 0.13604 0.0
C2706 C 0.64237 0.01117 0.13556 0.0
C2707 C 0.64551 0.02948 0.13971 0.0
C2708 C 0.62582 0.03306 0.148 0.0
C2709 C 0.62827 0.05044 0.15179 0.0
C2710 C 0.65001 0.06439 0.14733 0.0
C2711 C 0.66954 0.06098 0.13908 0.0
C2712 C 0.66725 0.04362 0.13527 0.0
C2713 C 0.53337 0.9872 0.10425 0.0
C2714 C 0.55676 0.99225 0.0966 0.0
C2715 C 0.55303 0.9872 0.11273 0.0
C2716 C 0.59614 0.99272 0.11375 0.0
C2717 C 0.61927 -0.00191 0.10612 0.0
C2718 C 0.59991 -0.00234 0.09762 0.0
C2719 C 0.61693 0.9931 0.12277 0.0
C2720 C 0.62465 0.00996 0.12688 0.0
C2721 C 0.62759 0.977 0.12746 0.0
C2722 C 0.61991 0.95878 0.12349 0.0
C2723 C 0.63861 0.95398 0.11525 0.0
C2724 C 0.63072 0.93687 0.1115 0.0
C2725 C 0.60443 0.92438 0.11595 0.0
C2726 C 0.5861 0.92896 0.12418 0.0
C2727 C 0.59385 0.94608 0.12796 0.0
H2728 H 0.59835 0.91113 0.11303 0.0
H2729 H 0.65164 0.07787 0.15024 0.0
H2730 H 0.71063 0.27373 0.09498 0.0
H2731 H 0.67711 0.27518 0.10987 0.0
H2732 H 0.69741 0.21751 0.11319 0.0
H2733 H 0.73143 0.21606 0.09843 0.0
H2734 H 0.61324 0.22922 0.11791 0.0
H2735 H 0.76203 0.24627 0.12369 0.0
H2736 H 0.82649 0.26526 0.12127 0.0
H2737 H 0.75563 0.3129 0.12906 0.0
H2738 H 0.69056 0.2942 0.13141 0.0
H2739 H 0.56773 0.21496 0.16333 0.0
H2740 H 0.60184 0.21647 0.14864 0.0
H2741 H 0.60872 0.275 0.15077 0.0
H2742 H 0.57671 0.27334 0.16575 0.0
H2743 H 0.67648 0.26507 0.1428 0.0
H2744 H 0.52966 0.25073 0.13741 0.0
H2745 H 0.46077 0.23431 0.13892 0.0
H2746 H 0.52045 0.18526 0.12939 0.0
H2747 H 0.58988 0.20133 0.12793 0.0
C2748 C 0.70799 0.26138 0.0989 0.0
C2749 C 0.7239 0.24479 0.09553 0.0
C2750 C 0.6889 0.26222 0.10742 0.0
C2751 C 0.68486 0.24646 0.1127 0.0
C2752 C 0.70012 0.22986 0.10927 0.0
C2753 C 0.71971 0.22906 0.10083 0.0
C2754 C 0.66476 0.2471 0.1218 0.0
C2755 C 0.62731 0.2369 0.12338 0.0
C2756 C 0.68199 0.2577 0.12888 0.0
C2757 C 0.72134 0.26886 0.12765 0.0
C2758 C 0.76013 0.26081 0.12483 0.0
C2759 C 0.79678 0.27152 0.12348 0.0
C2760 C 0.79512 0.29029 0.12498 0.0
C2761 C 0.75685 0.29837 0.12788 0.0
C2762 C 0.72009 0.28771 0.12924 0.0
C2763 C 0.57666 0.22815 0.16068 0.0
C2764 C 0.56911 0.24404 0.16569 0.0
C2765 C 0.59591 0.22904 0.15221 0.0
C2766 C 0.60695 0.24591 0.14836 0.0
C2767 C 0.60041 0.26179 0.15348 0.0
C2768 C 0.58196 0.26085 0.16206 0.0
C2769 C 0.62504 0.24686 0.13902 0.0
C2770 C 0.66209 0.25741 0.13736 0.0
C2771 C 0.60675 0.23694 0.13178 0.0
C2772 C 0.56507 0.2272 0.13264 0.0
C2773 C 0.52817 0.23641 0.13569 0.0
C2774 C 0.48901 0.22717 0.13653 0.0
C2775 C 0.48626 0.20874 0.13427 0.0
C2776 C 0.52264 0.19953 0.13115 0.0
C2777 C 0.5619 0.2087 0.13031 0.0
H2778 H 0.45592 0.20161 0.13493 0.0
H2779 H 0.8235 0.29856 0.12392 0.0
H2780 H 0.34955 0.02115 0.84472 0.0
H2781 H 0.38547 0.02243 0.85938 0.0
H2782 H 0.3074 0.9777 0.86857 0.0
H2783 H 0.27261 0.97592 0.85385 0.0
H2784 H 0.31469 0.00892 0.881 0.0
H2785 H 0.40159 0.96783 0.86343 0.0
H2786 H 0.44553 0.95879 0.85044 0.0
H2787 H 0.53421 0.00226 0.85593 0.0
H2788 H 0.49024 0.01182 0.86884 0.0
H2789 H 0.42069 0.9866 0.92154 0.0
H2790 H 0.38478 0.98645 0.90698 0.0
H2791 H 0.49292 0.01504 0.89549 0.0
H2792 H 0.53005 0.0139 0.91 0.0
H2793 H 0.46944 0.99318 0.88395 0.0
H2794 H 0.3854 0.03507 0.90127 0.0
H2795 H 0.34282 0.04518 0.91428 0.0
H2796 H 0.25012 0.003 0.90927 0.0
H2797 H 0.29242 0.99248 0.89629 0.0
C2798 C 0.3401 0.01158 0.84986 0.0
C2799 C 0.30838 -0.00164 0.84809 0.0
C2800 C 0.36062 0.01234 0.85825 0.0
C2801 C 0.34921 0.00015 0.86511 0.0
C2802 C 0.31674 0.98727 0.86341 0.0
C2803 C 0.29695 0.98624 0.85498 0.0
C2804 C 0.37172 0.00051 0.87398 0.0
C2805 C 0.34846 0.00536 0.88167 0.0
C2806 C 0.41605 -0.00368 0.87485 0.0
C2807 C 0.44232 0.99067 0.86704 0.0
C2808 C 0.43016 0.9756 0.8618 0.0
C2809 C 0.45514 0.97035 0.85447 0.0
C2810 C 0.49264 0.97995 0.85236 0.0
C2811 C 0.50517 0.99484 0.85757 0.0
C2812 C 0.4802 0.00019 0.86489 0.0
C2813 C 0.43648 0.99305 0.91592 0.0
C2814 C 0.47776 0.00059 0.91693 0.0
C2815 C 0.41584 0.99304 0.90756 0.0
C2816 C 0.43518 0.00126 0.90005 0.0
C2817 C 0.47681 0.00868 0.9011 0.0
C2818 C 0.49805 0.00813 0.90941 0.0
C2819 C 0.41263 0.00175 0.8911 0.0
C2820 C 0.4358 -0.00302 0.88335 0.0
C2821 C 0.36832 0.00635 0.89016 0.0
C2822 C 0.34225 0.01292 0.89784 0.0
C2823 C 0.35599 0.02792 0.90295 0.0
C2824 C 0.33192 0.03371 0.91032 0.0
C2825 C 0.29379 0.02474 0.91259 0.0
C2826 C 0.27963 0.00995 0.90749 0.0
C2827 C 0.30361 0.00408 0.90012 0.0
H2828 H 0.27518 0.02925 0.91829 0.0
H2829 H 0.51197 0.97585 0.84669 0.0
H2830 H 0.42401 0.72235 0.84374 0.0
H2831 H 0.38727 0.72183 0.85828 0.0
H2832 H 0.46422 0.76723 0.86713 0.0
H2833 H 0.49959 0.7684 0.85246 0.0
H2834 H 0.45572 0.73271 0.87933 0.0
H2835 H 0.37662 0.77906 0.863 0.0
H2836 H 0.33532 0.79033 0.85004 0.0
H2837 H 0.23989 0.7489 0.85424 0.0
H2838 H 0.28128 0.73706 0.86708 0.0
H2839 H 0.35423 0.75274 0.92052 0.0
H2840 H 0.39012 0.75382 0.906 0.0
H2841 H 0.27674 0.73102 0.89351 0.0
H2842 H 0.23977 0.73137 0.90801 0.0
H2843 H 0.30463 0.75355 0.88277 0.0
H2844 H 0.37965 0.70632 0.89851 0.0
H2845 H 0.41969 0.69274 0.91112 0.0
H2846 H 0.5206 0.73212 0.90779 0.0
H2847 H 0.48092 0.74607 0.89522 0.0
C2848 C 0.43275 0.73236 0.84874 0.0
C2849 C 0.46436 0.74556 0.84689 0.0
C2850 C 0.41189 0.73198 0.85707 0.0
C2851 C 0.42298 0.74449 0.8638 0.0
C2852 C 0.45517 0.75744 0.86204 0.0
C2853 C 0.47526 0.75812 0.85364 0.0
C2854 C 0.40072 0.74416 0.87264 0.0
C2855 C 0.42283 0.73743 0.88014 0.0
C2856 C 0.35741 0.74979 0.87362 0.0
C2857 C 0.33238 0.75701 0.86593 0.0
C2858 C 0.34714 0.77219 0.86109 0.0
C2859 C 0.32368 0.77871 0.85377 0.0
C2860 C 0.28511 0.77027 0.85129 0.0
C2861 C 0.26985 0.75537 0.85615 0.0
C2862 C 0.29333 0.74874 0.86344 0.0
C2863 C 0.33722 0.74776 0.91468 0.0
C2864 C 0.29452 0.74165 0.91541 0.0
C2865 C 0.35784 0.74829 0.90634 0.0
C2866 C 0.33696 0.74197 0.89856 0.0
C2867 C 0.294 0.73592 0.89933 0.0
C2868 C 0.27286 0.736 0.90764 0.0
C2869 C 0.35946 0.74201 0.88964 0.0
C2870 C 0.33745 0.7487 0.88206 0.0
C2871 C 0.40268 0.73596 0.88855 0.0
C2872 C 0.42714 0.72732 0.89596 0.0
C2873 C 0.41032 0.71211 0.90048 0.0
C2874 C 0.43295 0.70435 0.90762 0.0
C2875 C 0.47264 0.71157 0.91025 0.0
C2876 C 0.48987 0.72653 0.90573 0.0
C2877 C 0.46735 0.73436 0.89859 0.0
H2878 H 0.49005 0.70559 0.9158 0.0
H2879 H 0.26699 0.77532 0.84561 0.0
H2880 H 0.12619 0.70147 0.06996 0.0
H2881 H 0.1023 0.66967 0.06949 0.0
H2882 H 0.23369 0.65224 0.06551 0.0
H2883 H 0.25741 0.68375 0.06565 0.0
H2884 H 0.18457 0.63352 0.05513 0.0
H2885 H 0.18161 0.64964 0.08622 0.0
H2886 H 0.16104 0.66786 0.0994 0.0
H2887 H 0.02765 0.65575 0.0946 0.0
H2888 H 0.04739 0.63767 0.08131 0.0
H2889 H 0.15953 0.54017 0.06897 0.0
H2890 H 0.1813 0.57233 0.06862 0.0
H2891 H 0.04822 0.58844 0.06621 0.0
H2892 H 0.02624 0.55659 0.0664 0.0
H2893 H 0.09687 0.60753 0.07973 0.0
H2894 H 0.10332 0.59055 0.04852 0.0
H2895 H 0.12713 0.5717 0.0358 0.0
H2896 H 0.25908 0.5847 0.04166 0.0
H2897 H 0.23606 0.60342 0.0545 0.0
C2898 C 0.14988 0.69084 0.06895 0.0
C2899 C 0.19366 0.69514 0.06785 0.0
C2900 C 0.13626 0.67267 0.06872 0.0
C2901 C 0.16631 0.65852 0.06757 0.0
C2902 C 0.20988 0.66288 0.06638 0.0
C2903 C 0.22339 0.68096 0.06648 0.0
C2904 C 0.15284 0.63913 0.06767 0.0
C2905 C 0.1658 0.62783 0.06057 0.0
C2906 C 0.12791 0.63169 0.0747 0.0
C2907 C 0.11595 0.64247 0.08272 0.0
C2908 C 0.14786 0.65098 0.08794 0.0
C2909 C 0.13636 0.66126 0.09543 0.0
C2910 C 0.09305 0.66301 0.09782 0.0
C2911 C 0.06117 0.65442 0.09274 0.0
C2912 C 0.0725 0.64414 0.08522 0.0
C2913 C 0.13499 0.55058 0.06832 0.0
C2914 C 0.09123 0.54583 0.06766 0.0
C2915 C 0.14744 0.56889 0.06812 0.0
C2916 C 0.11627 0.58267 0.06739 0.0
C2917 C 0.07266 0.57797 0.06679 0.0
C2918 C 0.06027 0.55974 0.06685 0.0
C2919 C 0.12886 0.60207 0.06724 0.0
C2920 C 0.11567 0.61331 0.07431 0.0
C2921 C 0.15413 0.6094 0.06027 0.0
C2922 C 0.16799 0.59822 0.05253 0.0
C2923 C 0.13743 0.58925 0.04715 0.0
C2924 C 0.15078 0.57862 0.03991 0.0
C2925 C 0.19459 0.57696 0.03794 0.0
C2926 C 0.22515 0.58597 0.0432 0.0
C2927 C 0.21197 0.59661 0.05046 0.0
H2928 H 0.20486 0.56873 0.03233 0.0
H2929 H 0.08421 0.67097 0.10363 0.0
H2930 H 0.16048 0.70192 0.19276 0.0
H2931 H 0.18255 0.66991 0.19294 0.0
H2932 H 0.05209 0.65387 0.19901 0.0
H2933 H 0.03009 0.68562 0.19911 0.0
H2934 H 0.1055 0.63392 0.20827 0.0
H2935 H 0.09242 0.65175 0.17761 0.0
H2936 H 0.10629 0.67077 0.16433 0.0
H2937 H 0.24092 0.65758 0.1657 0.0
H2938 H 0.22795 0.63872 0.17909 0.0
H2939 H 0.1272 0.54056 0.19386 0.0
H2940 H 0.10326 0.57245 0.19454 0.0
H2941 H 0.2355 0.59034 0.19359 0.0
H2942 H 0.25961 0.55881 0.19303 0.0
H2943 H 0.17923 0.60884 0.18154 0.0
H2944 H 0.18945 0.59101 0.21267 0.0
H2945 H 0.1725 0.5717 0.22568 0.0
H2946 H 0.0381 0.58429 0.22279 0.0
H2947 H 0.05422 0.60347 0.20966 0.0
C2948 C 0.13661 0.69158 0.19422 0.0
C2949 C 0.09347 0.69634 0.19585 0.0
C2950 C 0.1492 0.6733 0.19428 0.0
C2951 C 0.11876 0.65949 0.19583 0.0
C2952 C 0.0761 0.66428 0.19777 0.0
C2953 C 0.06359 0.68249 0.19779 0.0
C2954 C 0.1308 0.64 0.19518 0.0
C2955 C 0.12117 0.62841 0.20238 0.0
C2956 C 0.15142 0.63281 0.18752 0.0
C2957 C 0.15928 0.64397 0.1794 0.0
C2958 C 0.12503 0.65301 0.17512 0.0
C2959 C 0.13272 0.66375 0.16757 0.0
C2960 C 0.17448 0.66542 0.16419 0.0
C2961 C 0.2086 0.6563 0.16834 0.0
C2962 C 0.2011 0.64557 0.1759 0.0
C2963 C 0.15107 0.55131 0.1938 0.0
C2964 C 0.19525 0.54718 0.19346 0.0
C2965 C 0.1374 0.56946 0.1942 0.0
C2966 C 0.16773 0.58366 0.19413 0.0
C2967 C 0.21168 0.57955 0.19364 0.0
C2968 C 0.22534 0.5615 0.19338 0.0
C2969 C 0.15411 0.60291 0.19464 0.0
C2970 C 0.16342 0.6144 0.18741 0.0
C2971 C 0.13266 0.60995 0.20221 0.0
C2972 C 0.12299 0.5985 0.21012 0.0
C2973 C 0.15624 0.58952 0.21476 0.0
C2974 C 0.1468 0.57863 0.22216 0.0
C2975 C 0.10423 0.57672 0.22504 0.0
C2976 C 0.07104 0.58575 0.22054 0.0
C2977 C 0.08032 0.59664 0.21312 0.0
H2978 H 0.09698 0.56829 0.23078 0.0
H2979 H 0.18037 0.67374 0.15835 0.0
H2980 H 0.77463 0.30768 0.94413 0.0
H2981 H 0.79811 0.3392 0.94524 0.0
H2982 H 0.93078 0.32183 0.9454 0.0
H2983 H 0.90752 0.2899 0.94417 0.0
H2984 H 0.90512 0.35019 0.95877 0.0
H2985 H 0.89771 0.33606 0.92746 0.0
H2986 H 0.8619 0.32377 0.91407 0.0
H2987 H 0.7625 0.36415 0.91634 0.0
H2988 H 0.7967 0.37619 0.93002 0.0
H2989 H 0.99954 0.43555 0.94986 0.0
H2990 H 0.97768 0.40383 0.95023 0.0
H2991 H 0.84825 0.41918 0.94281 0.0
H2992 H 0.87038 0.45118 0.94213 0.0
H2993 H 0.8728 0.39129 0.93328 0.0
H2994 H 0.87543 0.40497 0.96447 0.0
H2995 H 0.90548 0.41653 0.97865 0.0
H2996 H 1.00859 0.37769 0.97708 0.0
H2997 H 0.9795 0.36606 0.96281 0.0
C2998 C 0.80887 0.31045 0.94446 0.0
C2999 C 0.83927 0.29625 0.94403 0.0
C3000 C 0.82216 0.32851 0.94509 0.0
C3001 C 0.86607 0.33279 0.94536 0.0
C3002 C 0.89669 0.31871 0.9452 0.0
C3003 C 0.88338 0.30054 0.94445 0.0
C3004 C 0.87947 0.35209 0.94544 0.0
C3005 C 0.8988 0.35918 0.95316 0.0
C3006 C 0.86963 0.36381 0.93821 0.0
C3007 C 0.84957 0.35691 0.92984 0.0
C3008 C 0.86797 0.34222 0.92517 0.0
C3009 C 0.84798 0.3353 0.91751 0.0
C3010 C 0.81003 0.34321 0.91432 0.0
C3011 C 0.79191 0.35803 0.91881 0.0
C3012 C 0.81152 0.36487 0.92654 0.0
C3013 C 0.96624 0.43229 0.94839 0.0
C3014 C 0.93665 0.44597 0.94598 0.0
C3015 C 0.95375 0.41408 0.94865 0.0
C3016 C 0.91117 0.40909 0.94668 0.0
C3017 C 0.8813 0.42271 0.94438 0.0
C3018 C 0.89393 0.441 0.94402 0.0
C3019 C 0.89859 0.38958 0.94665 0.0
C3020 C 0.8793 0.38241 0.93891 0.0
C3021 C 0.90795 0.37784 0.95392 0.0
C3022 C 0.92549 0.38476 0.96252 0.0
C3023 C 0.9047 0.39899 0.96711 0.0
C3024 C 0.92153 0.40554 0.97517 0.0
C3025 C 0.95898 0.39788 0.97875 0.0
C3026 C 0.97961 0.38362 0.97429 0.0
C3027 C 0.96294 0.37703 0.96622 0.0
H3028 H 0.97196 0.40297 0.98499 0.0
H3029 H 0.79468 0.33785 0.90837 0.0
H3030 H 0.77798 0.43221 0.81576 0.0
H3031 H 0.80246 0.40078 0.81553 0.0
H3032 H 0.93392 0.41865 0.81867 0.0
H3033 H 0.9096 0.45051 0.81895 0.0
H3034 H 0.92086 0.3909 0.8053 0.0
H3035 H 0.8875 0.40237 0.83611 0.0
H3036 H 0.84224 0.41308 0.84859 0.0
H3037 H 0.74472 0.37412 0.84158 0.0
H3038 H 0.7891 0.36338 0.82896 0.0
H3039 H 1.00401 0.30375 0.81558 0.0
H3040 H 0.98443 0.33579 0.81552 0.0
H3041 H 0.84997 0.32133 0.81724 0.0
H3042 H 0.86944 0.28902 0.81758 0.0
H3043 H 0.867 0.34801 0.82836 0.0
H3044 H 0.89713 0.33699 0.79744 0.0
H3045 H 0.93967 0.32647 0.78452 0.0
H3046 H 0.04005 0.36439 0.79115 0.0
H3047 H 0.99835 0.37498 0.80419 0.0
C3048 C 0.81219 0.42958 0.81638 0.0
C3049 C 0.84185 0.44393 0.81741 0.0
C3050 C 0.82606 0.41155 0.81627 0.0
C3051 C 0.86989 0.4074 0.81717 0.0
C3052 C 0.89989 0.42162 0.81799 0.0
C3053 C 0.88595 0.43978 0.81817 0.0
C3054 C 0.88375 0.3881 0.81736 0.0
C3055 C 0.90979 0.38154 0.81042 0.0
C3056 C 0.86808 0.37587 0.8239 0.0
C3057 C 0.8415 0.38217 0.83154 0.0
C3058 C 0.85626 0.39618 0.83719 0.0
C3059 C 0.83078 0.40225 0.84429 0.0
C3060 C 0.7906 0.39431 0.84586 0.0
C3061 C 0.77585 0.38027 0.84035 0.0
C3062 C 0.80117 0.37417 0.83322 0.0
C3063 C 0.97017 0.30729 0.81588 0.0
C3064 C 0.93826 0.29374 0.81654 0.0
C3065 C 0.95903 0.32569 0.81581 0.0
C3066 C 0.91569 0.33102 0.81623 0.0
C3067 C 0.88366 0.31755 0.81688 0.0
C3068 C 0.89482 0.29908 0.81705 0.0
C3069 C 0.90403 0.35065 0.81625 0.0
C3070 C 0.87833 0.35731 0.82324 0.0
C3071 C 0.91971 0.36294 0.80971 0.0
C3072 C 0.94478 0.35665 0.80184 0.0
C3073 C 0.92842 0.343 0.79618 0.0
C3074 C 0.95235 0.33703 0.78883 0.0
C3075 C 0.99258 0.34472 0.78703 0.0
C3076 C 1.0089 0.35843 0.79256 0.0
C3077 C 0.98511 0.36443 0.79993 0.0
H3078 H 1.01107 0.34009 0.78133 0.0
H3079 H 0.77092 0.39903 0.85137 0.0
H3080 H 0.16061 0.04011 0.5703 0.0
H3081 H 0.183 0.07197 0.56886 0.0
H3082 H 0.0505 0.0879 0.56486 0.0
H3083 H 0.02826 0.05626 0.56595 0.0
H3084 H 0.09698 0.10639 0.55406 0.0
H3085 H 0.10525 0.09331 0.58544 0.0
H3086 H 0.128 0.07784 0.59923 0.0
H3087 H 0.26039 0.08998 0.59338 0.0
H3088 H 0.23826 0.10543 0.57945 0.0
H3089 H 0.11526 0.20062 0.56721 0.0
H3090 H 0.09656 0.1682 0.56627 0.0
H3091 H 0.23137 0.15437 0.56479 0.0
H3092 H 0.25038 0.18645 0.56566 0.0
H3093 H 0.18624 0.135 0.57775 0.0
H3094 H 0.17393 0.15079 0.54666 0.0
H3095 H 0.14693 0.16856 0.53383 0.0
H3096 H 0.01723 0.15279 0.54009 0.0
H3097 H 0.04342 0.13513 0.55304 0.0
C3098 C 0.13633 0.05041 0.56908 0.0
C3099 C 0.09267 0.04563 0.56826 0.0
C3100 C 0.14911 0.06864 0.5683 0.0
C3101 C 0.11836 0.08242 0.56686 0.0
C3102 C 0.07489 0.07757 0.56593 0.0
C3103 C 0.06221 0.05941 0.56659 0.0
C3104 C 0.13095 0.10195 0.56647 0.0
C3105 C 0.11618 0.11265 0.55929 0.0
C3106 C 0.15657 0.11017 0.5732 0.0
C3107 C 0.17015 0.10031 0.58137 0.0
C3108 C 0.13925 0.09249 0.58704 0.0
C3109 C 0.15206 0.08377 0.5949 0.0
C3110 C 0.1957 0.08289 0.5972 0.0
C3111 C 0.22662 0.09066 0.5916 0.0
C3112 C 0.21396 0.0994 0.58372 0.0
C3113 C 0.14088 0.19068 0.56664 0.0
C3114 C 0.18429 0.19616 0.56652 0.0
C3115 C 0.13014 0.17219 0.56605 0.0
C3116 C 0.16266 0.15895 0.56542 0.0
C3117 C 0.20586 0.1644 0.56526 0.0
C3118 C 0.21658 0.18279 0.56574 0.0
C3119 C 0.15207 0.13931 0.5654 0.0
C3120 C 0.16727 0.12864 0.5725 0.0
C3121 C 0.1264 0.13124 0.55868 0.0
C3122 C 0.11061 0.14178 0.55087 0.0
C3123 C 0.13962 0.15124 0.54535 0.0
C3124 C 0.12447 0.16127 0.53805 0.0
C3125 C 0.08038 0.16184 0.53616 0.0
C3126 C 0.05137 0.15235 0.54156 0.0
C3127 C 0.06635 0.14231 0.54888 0.0
H3128 H 0.06872 0.16961 0.5305 0.0
H3129 H 0.20562 0.07627 0.60333 0.0
H3130 H 0.14485 0.19625 0.68295 0.0
H3131 H 0.16315 0.16376 0.68323 0.0
H3132 H 0.07924 0.15616 0.70591 0.0
H3133 H 0.05963 0.18829 0.70542 0.0
H3134 H 0.19915 0.1411 0.69408 0.0
H3135 H 0.02993 0.11592 0.70539 0.0
H3136 H 0.95384 0.12521 0.70395 0.0
H3137 H 0.98351 0.15449 0.67988 0.0
H3138 H 0.05961 0.14516 0.68111 0.0
H3139 H 0.22005 0.04969 0.70718 0.0
H3140 H 0.20197 0.08206 0.70682 0.0
H3141 H 0.11357 0.07224 0.68502 0.0
H3142 H 0.13 0.03968 0.68568 0.0
H3143 H 0.0801 0.09605 0.69497 0.0
H3144 H 0.21957 0.09012 0.68204 0.0
H3145 H 0.29567 0.08063 0.68116 0.0
H3146 H 0.32549 0.1132 0.70421 0.0
H3147 H 0.24943 0.1227 0.7053 0.0
C3148 C 0.13062 0.18764 0.68803 0.0
C3149 C 0.10041 0.19474 0.69409 0.0
C3150 C 0.14106 0.16908 0.68819 0.0
C3151 C 0.1218 0.15738 0.69446 0.0
C3152 C 0.09354 0.16474 0.70083 0.0
C3153 C 0.08253 0.18315 0.70058 0.0
C3154 C 0.13032 0.13743 0.69426 0.0
C3155 C 0.17311 0.13126 0.69427 0.0
C3156 C 0.09641 0.1245 0.69426 0.0
C3157 C 0.05056 0.12998 0.6934 0.0
C3158 C 0.02017 0.12427 0.69977 0.0
C3159 C 0.97705 0.12956 0.699 0.0
C3160 C 0.96388 0.14048 0.69185 0.0
C3161 C 0.99378 0.14608 0.68544 0.0
C3162 C 0.03691 0.14081 0.68617 0.0
C3163 C 0.19644 0.05443 0.70237 0.0
C3164 C 0.17657 0.0422 0.69643 0.0
C3165 C 0.18637 0.07297 0.70212 0.0
C3166 C 0.15724 0.07975 0.69573 0.0
C3167 C 0.13629 0.06741 0.68999 0.0
C3168 C 0.14564 0.04879 0.69038 0.0
C3169 C 0.14898 0.09968 0.69496 0.0
C3170 C 0.10619 0.10586 0.69477 0.0
C3171 C 0.1829 0.11258 0.69445 0.0
C3172 C 0.22873 0.107 0.69379 0.0
C3173 C 0.24231 0.09517 0.68695 0.0
C3174 C 0.28544 0.0898 0.68641 0.0
C3175 C 0.31537 0.09628 0.69264 0.0
C3176 C 0.30226 0.10818 0.6994 0.0
C3177 C 0.25915 0.11358 0.69997 0.0
H3178 H 0.34875 0.0921 0.69221 0.0
H3179 H 0.9305 0.14458 0.69126 0.0
H3180 H 0.90624 0.79083 0.4415 0.0
H3181 H 0.92875 0.82289 0.44166 0.0
H3182 H 0.79869 0.83919 0.44784 0.0
H3183 H 0.77602 0.80749 0.44775 0.0
H3184 H 0.83489 0.85908 0.4339 0.0
H3185 H 0.87109 0.83946 0.46388 0.0
H3186 H 0.90714 0.81981 0.47497 0.0
H3187 H 0.03054 0.83449 0.46425 0.0
H3188 H 0.99519 0.85405 0.453 0.0
H3189 H 0.86517 0.95193 0.44531 0.0
H3190 H 0.84542 0.91965 0.44544 0.0
H3191 H 0.9798 0.90486 0.44391 0.0
H3192 H 0.99973 0.93688 0.44411 0.0
H3193 H 0.94286 0.88371 0.4552 0.0
H3194 H 0.90982 0.90312 0.42537 0.0
H3195 H 0.87618 0.92235 0.41379 0.0
H3196 H 0.75056 0.90756 0.42332 0.0
H3197 H 0.78348 0.88841 0.43505 0.0
C3198 C 0.88253 0.80125 0.44293 0.0
C3199 C 0.83938 0.79658 0.44463 0.0
C3200 C 0.89543 0.81953 0.44303 0.0
C3201 C 0.86531 0.83337 0.44477 0.0
C3202 C 0.82236 0.82872 0.44646 0.0
C3203 C 0.80956 0.81054 0.44645 0.0
C3204 C 0.87804 0.85279 0.44476 0.0
C3205 C 0.85821 0.86454 0.43861 0.0
C3206 C 0.90922 0.85974 0.45075 0.0
C3207 C 0.93047 0.84806 0.45754 0.0
C3208 C 0.90589 0.83838 0.46384 0.0
C3209 C 0.92619 0.82728 0.47016 0.0
C3210 C 0.97107 0.82586 0.4703 0.0
C3211 C 0.99577 0.83558 0.46413 0.0
C3212 C 0.97562 0.84669 0.45778 0.0
C3213 C 0.89045 0.94178 0.44501 0.0
C3214 C 0.93398 0.94699 0.4447 0.0
C3215 C 0.87915 0.92333 0.44504 0.0
C3216 C 0.91112 0.90979 0.44456 0.0
C3217 C 0.95454 0.91501 0.4443 0.0
C3218 C 0.96586 0.93338 0.44441 0.0
C3219 C 0.89963 0.89015 0.44434 0.0
C3220 C 0.91966 0.87832 0.45046 0.0
C3221 C 0.86903 0.88307 0.43822 0.0
C3222 C 0.84913 0.89447 0.43114 0.0
C3223 C 0.87503 0.90406 0.42504 0.0
C3224 C 0.85609 0.91493 0.41844 0.0
C3225 C 0.81127 0.91621 0.41783 0.0
C3226 C 0.78528 0.90657 0.42381 0.0
C3227 C 0.80405 0.8957 0.43043 0.0
H3228 H 0.79667 0.92463 0.41272 0.0
H3229 H 0.98672 0.81726 0.4752 0.0
H3230 H 1.00217 0.80619 0.3154 0.0
H3231 H 0.97998 0.83788 0.31541 0.0
H3232 H 0.8486 0.82178 0.32036 0.0
H3233 H 0.87053 0.78964 0.3204 0.0
H3234 H 0.85959 0.84995 0.30711 0.0
H3235 H 0.90554 0.83506 0.33695 0.0
H3236 H 0.95679 0.82267 0.34797 0.0
H3237 H 0.04963 0.86334 0.3407 0.0
H3238 H 0.99968 0.8755 0.32933 0.0
H3239 H 0.77841 0.93445 0.32051 0.0
H3240 H 0.80021 0.90273 0.31997 0.0
H3241 H 0.93379 0.91892 0.31936 0.0
H3242 H 0.91207 0.95106 0.32014 0.0
H3243 H 0.92245 0.89056 0.33026 0.0
H3244 H 0.88197 0.90482 0.30032 0.0
H3245 H 0.83562 0.9168 0.28828 0.0
H3246 H 0.73744 0.878 0.295 0.0
H3247 H 0.78294 0.86596 0.30719 0.0
C3248 C 0.96842 0.80924 0.31645 0.0
C3249 C 0.93814 0.79531 0.31799 0.0
C3250 C 0.95588 0.82743 0.31646 0.0
C3251 C 0.91285 0.83213 0.31801 0.0
C3252 C 0.88206 0.81834 0.31919 0.0
C3253 C 0.89464 0.80002 0.31923 0.0
C3254 C 0.90072 0.85154 0.31867 0.0
C3255 C 0.87271 0.8588 0.31224 0.0
C3256 C 0.91928 0.86312 0.3252 0.0
C3257 C 0.94894 0.8561 0.33221 0.0
C3258 C 0.93702 0.84127 0.33763 0.0
C3259 C 0.96583 0.8343 0.34395 0.0
C3260 C 1.00636 0.84225 0.34507 0.0
C3261 C 0.01821 0.85718 0.33983 0.0
C3262 C 0.9897 0.86409 0.33343 0.0
C3263 C 0.8125 0.93136 0.32024 0.0
C3264 C 0.84356 0.94531 0.32026 0.0
C3265 C 0.82488 0.91316 0.31991 0.0
C3266 C 0.86856 0.90846 0.31943 0.0
C3267 C 0.89985 0.92229 0.31967 0.0
C3268 C 0.88744 0.94062 0.3201 0.0
C3269 C 0.88107 0.88903 0.31871 0.0
C3270 C 0.90921 0.88174 0.32512 0.0
C3271 C 0.86315 0.87746 0.31208 0.0
C3272 C 0.83574 0.88459 0.30472 0.0
C3273 C 0.85037 0.89893 0.29928 0.0
C3274 C 0.82427 0.90572 0.29242 0.0
C3275 C 0.78358 0.89819 0.29089 0.0
C3276 C 0.76895 0.88383 0.2962 0.0
C3277 C 0.7949 0.877 0.30308 0.0
H3278 H 0.76342 0.90347 0.28558 0.0
H3279 H 0.02857 0.83684 0.34998 0.0
H3280 H 0.6574 0.53703 0.56869 0.0
H3281 H 0.68063 0.56891 0.56848 0.0
H3282 H 0.54846 0.58606 0.5653 0.0
H3283 H 0.52541 0.55447 0.56512 0.0
H3284 H 0.59436 0.60596 0.55533 0.0
H3285 H 0.60337 0.58797 0.58581 0.0
H3286 H 0.62508 0.56903 0.59867 0.0
H3287 H 0.75811 0.58095 0.59346 0.0
H3288 H 0.73722 0.59976 0.58048 0.0
H3289 H 0.62928 0.69876 0.56965 0.0
H3290 H 0.60459 0.66702 0.569 0.0
H3291 H 0.73584 0.64893 0.56588 0.0
H3292 H 0.76073 0.68034 0.56643 0.0
H3293 H 0.68916 0.63005 0.57931 0.0
H3294 H 0.67343 0.64768 0.54789 0.0
H3295 H 0.64538 0.66659 0.53556 0.0
H3296 H 0.51584 0.65657 0.54424 0.0
H3297 H 0.54307 0.63741 0.55658 0.0
C3298 C 0.6334 0.54761 0.56787 0.0
C3299 C 0.58959 0.54319 0.56692 0.0
C3300 C 0.64665 0.56584 0.56782 0.0
C3301 C 0.6162 0.57995 0.56702 0.0
C3302 C 0.5726 0.57547 0.56591 0.0
C3303 C 0.55947 0.55733 0.56582 0.0
C3304 C 0.62937 0.5994 0.56738 0.0
C3305 C 0.61467 0.61122 0.56065 0.0
C3306 C 0.65594 0.60636 0.57429 0.0
C3307 C 0.66874 0.59514 0.58212 0.0
C3308 C 0.63728 0.58645 0.58737 0.0
C3309 C 0.64942 0.57575 0.59468 0.0
C3310 C 0.69294 0.57378 0.59687 0.0
C3311 C 0.72441 0.58249 0.59175 0.0
C3312 C 0.71243 0.59318 0.58441 0.0
C3313 C 0.65282 0.68803 0.56877 0.0
C3314 C 0.69696 0.69213 0.56809 0.0
C3315 C 0.63868 0.66993 0.56839 0.0
C3316 C 0.66847 0.65567 0.56739 0.0
C3317 C 0.71239 0.65974 0.56667 0.0
C3318 C 0.72648 0.67775 0.56695 0.0
C3319 C 0.65429 0.63641 0.56724 0.0
C3320 C 0.6688 0.62469 0.57402 0.0
C3321 C 0.62656 0.62963 0.56053 0.0
C3322 C 0.61028 0.6413 0.55319 0.0
C3323 C 0.63899 0.64963 0.5472 0.0
C3324 C 0.62324 0.66036 0.54021 0.0
C3325 C 0.57892 0.66292 0.53915 0.0
C3326 C 0.55018 0.65463 0.54507 0.0
C3327 C 0.56572 0.64377 0.55204 0.0
H3328 H 0.56685 0.67125 0.53373 0.0
H3329 H 0.70222 0.56556 0.60256 0.0
H3330 H 0.63528 0.54217 0.68908 0.0
H3331 H 0.61137 0.57388 0.69004 0.0
H3332 H 0.73755 0.58982 0.69932 0.0
H3333 H 0.76133 0.55828 0.6986 0.0
H3334 H 0.6785 0.60706 0.70857 0.0
H3335 H 0.70511 0.59634 0.67742 0.0
H3336 H 0.69772 0.58031 0.663 0.0
H3337 H 0.56205 0.59175 0.66272 0.0
H3338 H 0.56853 0.60762 0.67721 0.0
H3339 H 0.65961 0.70275 0.69708 0.0
H3340 H 0.68328 0.6708 0.69728 0.0
H3341 H 0.55132 0.65316 0.69491 0.0
H3342 H 0.52734 0.68479 0.6949 0.0
H3343 H 0.61386 0.63729 0.68208 0.0
H3344 H 0.58675 0.6446 0.71385 0.0
H3345 H 0.59345 0.65953 0.72855 0.0
H3346 H 0.73125 0.65524 0.72712 0.0
H3347 H 0.72522 0.63993 0.71245 0.0
C3348 C 0.65786 0.55241 0.69137 0.0
C3349 C 0.70028 0.54766 0.69372 0.0
C3350 C 0.64422 0.57055 0.69187 0.0
C3351 C 0.67289 0.58429 0.69462 0.0
C3352 C 0.71488 0.57949 0.69716 0.0
C3353 C 0.72843 0.5614 0.69672 0.0
C3354 C 0.6595 0.60371 0.69478 0.0
C3355 C 0.66492 0.61368 0.70272 0.0
C3356 C 0.64116 0.61237 0.68721 0.0
C3357 C 0.63724 0.60301 0.67845 0.0
C3358 C 0.67365 0.59533 0.67431 0.0
C3359 C 0.66963 0.58629 0.66613 0.0
C3360 C 0.62942 0.58497 0.66196 0.0
C3361 C 0.59317 0.59276 0.66596 0.0
C3362 C 0.597 0.60179 0.67416 0.0
C3363 C 0.63567 0.69205 0.69666 0.0
C3364 C 0.59162 0.69631 0.696 0.0
C3365 C 0.64921 0.67385 0.69679 0.0
C3366 C 0.61896 0.65969 0.6961 0.0
C3367 C 0.57509 0.66391 0.69545 0.0
C3368 C 0.5615 0.68202 0.69549 0.0
C3369 C 0.63293 0.64044 0.69584 0.0
C3370 C 0.62765 0.63057 0.68788 0.0
C3371 C 0.65163 0.63189 0.70335 0.0
C3372 C 0.65556 0.64135 0.71204 0.0
C3373 C 0.61848 0.64699 0.71665 0.0
C3374 C 0.62215 0.65547 0.72498 0.0
C3375 C 0.66277 0.65853 0.72874 0.0
C3376 C 0.69981 0.65294 0.72419 0.0
C3377 C 0.69628 0.64427 0.71589 0.0
H3378 H 0.66552 0.66514 0.73518 0.0
H3379 H 0.62637 0.57796 0.65562 0.0
H3380 H 0.50435 0.43224 0.44626 0.0
H3381 H 0.48039 0.4007 0.44694 0.0
H3382 H 0.34823 0.41812 0.44463 0.0
H3383 H 0.37199 0.45002 0.44378 0.0
H3384 H 0.36966 0.39004 0.45875 0.0
H3385 H 0.38452 0.40274 0.42724 0.0
H3386 H 0.423 0.41414 0.41396 0.0
H3387 H 0.52466 0.37556 0.41851 0.0
H3388 H 0.48709 0.36414 0.43191 0.0
H3389 H 0.27542 0.30511 0.44882 0.0
H3390 H 0.29819 0.33671 0.44939 0.0
H3391 H 0.42895 0.32052 0.44369 0.0
H3392 H 0.40598 0.28863 0.44279 0.0
H3393 H 0.40843 0.34848 0.43384 0.0
H3394 H 0.39608 0.33514 0.46494 0.0
H3395 H 0.36158 0.32388 0.47871 0.0
H3396 H 0.26036 0.36327 0.47571 0.0
H3397 H 0.29392 0.3746 0.46185 0.0
C3398 C 0.4701 0.42947 0.44596 0.0
C3399 C 0.44002 0.44367 0.44495 0.0
C3400 C 0.45655 0.4114 0.44633 0.0
C3401 C 0.41267 0.40714 0.4458 0.0
C3402 C 0.3823 0.42123 0.44504 0.0
C3403 C 0.39591 0.43938 0.44453 0.0
C3404 C 0.39909 0.38786 0.44578 0.0
C3405 C 0.37741 0.38096 0.45326 0.0
C3406 C 0.41077 0.376 0.43874 0.0
C3407 C 0.43319 0.38271 0.43063 0.0
C3408 C 0.41526 0.3968 0.42545 0.0
C3409 C 0.43688 0.40325 0.4179 0.0
C3410 C 0.47631 0.39561 0.4154 0.0
C3411 C 0.49414 0.38148 0.42045 0.0
C3412 C 0.47268 0.375 0.42803 0.0
C3413 C 0.30917 0.30816 0.44776 0.0
C3414 C 0.33894 0.29428 0.44578 0.0
C3415 C 0.32218 0.3263 0.44814 0.0
C3416 C 0.36541 0.33102 0.44672 0.0
C3417 C 0.3954 0.3172 0.44483 0.0
C3418 C 0.38228 0.29898 0.44435 0.0
C3419 C 0.37867 0.35046 0.44683 0.0
C3420 C 0.40047 0.35745 0.43936 0.0
C3421 C 0.36755 0.36234 0.45394 0.0
C3422 C 0.34733 0.35561 0.4623 0.0
C3423 C 0.36629 0.34131 0.46718 0.0
C3424 C 0.34692 0.33493 0.47501 0.0
C3425 C 0.30874 0.34282 0.47807 0.0
C3426 C 0.28991 0.35715 0.47333 0.0
C3427 C 0.30911 0.36357 0.46548 0.0
H3428 H 0.2938 0.33786 0.48414 0.0
H3429 H 0.493 0.40062 0.40955 0.0
H3430 H 0.37349 0.28977 0.31964 0.0
H3431 H 0.3515 0.32186 0.31932 0.0
H3432 H 0.48318 0.33791 0.31463 0.0
H3433 H 0.50539 0.30613 0.31489 0.0
H3434 H 0.44307 0.35785 0.32823 0.0
H3435 H 0.41644 0.3388 0.29781 0.0
H3436 H 0.38471 0.31925 0.28611 0.0
H3437 H 0.25762 0.33296 0.2952 0.0
H3438 H 0.28864 0.35241 0.30704 0.0
H3439 H 0.40639 0.45118 0.31799 0.0
H3440 H 0.43035 0.41939 0.31736 0.0
H3441 H 0.29782 0.40155 0.31718 0.0
H3442 H 0.27389 0.43305 0.31743 0.0
H3443 H 0.33993 0.38232 0.30588 0.0
H3444 H 0.36378 0.40048 0.33641 0.0
H3445 H 0.39328 0.41985 0.34843 0.0
H3446 H 0.52197 0.40739 0.3399 0.0
H3447 H 0.49321 0.38815 0.32774 0.0
C3448 C 0.39767 0.30013 0.31849 0.0
C3449 C 0.44113 0.29538 0.31726 0.0
C3450 C 0.38508 0.31843 0.31831 0.0
C3451 C 0.4158 0.33219 0.31694 0.0
C3452 C 0.45907 0.32747 0.31572 0.0
C3453 C 0.47159 0.30926 0.31581 0.0
C3454 C 0.40314 0.3516 0.31684 0.0
C3455 C 0.42085 0.36329 0.3233 0.0
C3456 C 0.37355 0.35851 0.31051 0.0
C3457 C 0.35487 0.34691 0.30336 0.0
C3458 C 0.38174 0.33752 0.29736 0.0
C3459 C 0.36388 0.32649 0.2907 0.0
C3460 C 0.31918 0.32482 0.28993 0.0
C3461 C 0.29224 0.33424 0.29581 0.0
C3462 C 0.30994 0.34528 0.3025 0.0
C3463 C 0.38248 0.44045 0.31779 0.0
C3464 C 0.33831 0.4446 0.31775 0.0
C3465 C 0.39615 0.4223 0.31747 0.0
C3466 C 0.36585 0.40805 0.31734 0.0
C3467 C 0.32181 0.41227 0.31725 0.0
C3468 C 0.30819 0.43032 0.31741 0.0
C3469 C 0.37953 0.38869 0.31734 0.0
C3470 C 0.36211 0.37696 0.31084 0.0
C3471 C 0.40896 0.38169 0.32372 0.0
C3472 C 0.42633 0.39302 0.33111 0.0
C3473 C 0.39837 0.40196 0.33707 0.0
C3474 C 0.41495 0.4129 0.34391 0.0
C3475 C 0.45947 0.41489 0.34491 0.0
C3476 C 0.4875 0.40587 0.3391 0.0
C3477 C 0.47108 0.39493 0.33224 0.0
H3478 H 0.47225 0.42339 0.3502 0.0
H3479 H 0.30542 0.31627 0.28477 0.0
H3480 H 0.66496 0.03852 0.06852 0.0
H3481 H 0.6848 0.07077 0.06815 0.0
H3482 H 0.55052 0.08554 0.06627 0.0
H3483 H 0.53057 0.05355 0.06635 0.0
H3484 H 0.59453 0.10604 0.05558 0.0
H3485 H 0.60779 0.08822 0.08625 0.0
H3486 H 0.63329 0.06959 0.09891 0.0
H3487 H 0.76418 0.08388 0.09287 0.0
H3488 H 0.73949 0.1024 0.08008 0.0
H3489 H 0.62525 0.19975 0.06883 0.0
H3490 H 0.60165 0.16781 0.0687 0.0
H3491 H 0.7336 0.15035 0.06592 0.0
H3492 H 0.75734 0.1819 0.06597 0.0
H3493 H 0.68831 0.13177 0.07933 0.0
H3494 H 0.67215 0.14923 0.04826 0.0
H3495 H 0.64415 0.16797 0.03588 0.0
H3496 H 0.51444 0.15486 0.04349 0.0
H3497 H 0.54176 0.13618 0.05599 0.0
C3498 C 0.63971 0.04864 0.06798 0.0
C3499 C 0.5962 0.04343 0.0675 0.0
C3500 C 0.65105 0.06707 0.06782 0.0
C3501 C 0.61907 0.08059 0.06733 0.0
C3502 C 0.57576 0.07538 0.06665 0.0
C3503 C 0.56444 0.05702 0.06672 0.0
C3504 C 0.63043 0.10021 0.06761 0.0
C3505 C 0.61457 0.11169 0.06085 0.0
C3506 C 0.65685 0.10759 0.07444 0.0
C3507 C 0.67181 0.09655 0.08216 0.0
C3508 C 0.64203 0.08729 0.08758 0.0
C3509 C 0.65633 0.07676 0.09479 0.0
C3510 C 0.70033 0.07551 0.09668 0.0
C3511 C 0.73011 0.08484 0.09139 0.0
C3512 C 0.71598 0.09536 0.08416 0.0
C3513 C 0.64914 0.18909 0.06816 0.0
C3514 C 0.69312 0.19337 0.06738 0.0
C3515 C 0.63563 0.17089 0.06808 0.0
C3516 C 0.66597 0.15678 0.0673 0.0
C3517 C 0.70976 0.16105 0.06655 0.0
C3518 C 0.72318 0.17913 0.06653 0.0
C3519 C 0.6526 0.13746 0.06729 0.0
C3520 C 0.66808 0.12607 0.07411 0.0
C3521 C 0.62539 0.13021 0.0606 0.0
C3522 C 0.60898 0.14149 0.05311 0.0
C3523 C 0.63766 0.15049 0.04734 0.0
C3524 C 0.6219 0.16107 0.04029 0.0
C3525 C 0.57751 0.16266 0.03891 0.0
C3526 C 0.54881 0.15364 0.04457 0.0
C3527 C 0.56441 0.14304 0.05164 0.0
H3528 H 0.5653 0.17082 0.03344 0.0
H3529 H 0.71134 0.06736 0.10226 0.0
H3530 H 0.53165 0.18361 0.19717 0.0
H3531 H 0.55494 0.15214 0.19798 0.0
H3532 H 0.68664 0.16881 0.19374 0.0
H3533 H 0.66321 0.20065 0.19264 0.0
H3534 H 0.66872 0.14011 0.18385 0.0
H3535 H 0.65001 0.15499 0.2146 0.0
H3536 H 0.61289 0.16708 0.2279 0.0
H3537 H 0.5118 0.12776 0.22451 0.0
H3538 H 0.54799 0.1156 0.21111 0.0
H3539 H 0.75653 0.05515 0.19707 0.0
H3540 H 0.7356 0.0871 0.19764 0.0
H3541 H 0.60204 0.07193 0.19493 0.0
H3542 H 0.62272 0.03967 0.19422 0.0
H3543 H 0.62345 0.09978 0.20876 0.0
H3544 H 0.6459 0.08507 0.17773 0.0
H3545 H 0.68802 0.07245 0.16524 0.0
H3546 H 0.78718 0.11215 0.16979 0.0
H3547 H 0.74648 0.12453 0.18258 0.0
C3548 C 0.56569 0.18071 0.19647 0.0
C3549 C 0.59565 0.19471 0.19489 0.0
C3550 C 0.57897 0.16263 0.19698 0.0
C3551 C 0.62263 0.15811 0.19609 0.0
C3552 C 0.65277 0.17202 0.19449 0.0
C3553 C 0.63938 0.19019 0.19389 0.0
C3554 C 0.63615 0.13876 0.19656 0.0
C3555 C 0.65943 0.13139 0.18938 0.0
C3556 C 0.62337 0.12727 0.2037 0.0
C3557 C 0.60157 0.13448 0.2118 0.0
C3558 C 0.61971 0.149 0.21665 0.0
C3559 C 0.59885 0.15586 0.22422 0.0
C3560 C 0.55997 0.14822 0.22704 0.0
C3561 C 0.54191 0.13368 0.22231 0.0
C3562 C 0.56261 0.12678 0.21474 0.0
C3563 C 0.72261 0.05852 0.19667 0.0
C3564 C 0.69123 0.04486 0.19558 0.0
C3565 C 0.71079 0.0768 0.19698 0.0
C3566 C 0.6674 0.0818 0.19629 0.0
C3567 C 0.63574 0.06825 0.19548 0.0
C3568 C 0.6476 0.04988 0.19504 0.0
C3569 C 0.65557 0.10126 0.19606 0.0
C3570 C 0.63273 0.1086 0.20328 0.0
C3571 C 0.66927 0.11276 0.18902 0.0
C3572 C 0.69333 0.1056 0.18119 0.0
C3573 C 0.67689 0.091 0.17614 0.0
C3574 C 0.70049 0.0839 0.16899 0.0
C3575 C 0.74018 0.09152 0.1667 0.0
C3576 C 0.75642 0.10625 0.17157 0.0
C3577 C 0.73315 0.11328 0.17879 0.0
H3578 H 0.75835 0.08603 0.16114 0.0
H3579 H 0.54387 0.15355 0.2329 0.0
H3580 H 0.40519 0.7908 0.94406 0.0
H3581 H 0.42838 0.82274 0.94463 0.0
H3582 H 0.29584 0.84014 0.94323 0.0
H3583 H 0.27244 0.80859 0.94263 0.0
H3584 H 0.34748 0.85912 0.93173 0.0
H3585 H 0.34708 0.84096 0.96274 0.0
H3586 H 0.36778 0.8218 0.97559 0.0
H3587 H 0.50092 0.83507 0.97136 0.0
H3588 H 0.48104 0.85412 0.9584 0.0
H3589 H 0.3687 0.95222 0.94319 0.0
H3590 H 0.34724 0.92016 0.94333 0.0
H3591 H 0.47964 0.90428 0.94742 0.0
H3592 H 0.50118 0.93609 0.94754 0.0
H3593 H 0.42948 0.88419 0.95744 0.0
H3594 H 0.4311 0.90236 0.92658 0.0
H3595 H 0.41151 0.92147 0.91363 0.0
H3596 H 0.27811 0.90792 0.91727 0.0
H3597 H 0.29686 0.88892 0.93032 0.0
C3598 C 0.38103 0.80144 0.94387 0.0
C3599 C 0.33697 0.79711 0.94333 0.0
C3600 C 0.39431 0.81965 0.94422 0.0
C3601 C 0.36374 0.83376 0.94401 0.0
C3602 C 0.31991 0.82945 0.94339 0.0
C3603 C 0.30664 0.81136 0.94309 0.0
C3604 C 0.37696 0.8531 0.94444 0.0
C3605 C 0.36508 0.86466 0.93738 0.0
C3606 C 0.40064 0.86019 0.95174 0.0
C3607 C 0.41261 0.8488 0.95954 0.0
C3608 C 0.3808 0.83967 0.9645 0.0
C3609 C 0.39238 0.82885 0.97182 0.0
C3610 C 0.43565 0.82717 0.97427 0.0
C3611 C 0.46743 0.83635 0.96944 0.0
C3612 C 0.45602 0.84717 0.96211 0.0
C3613 C 0.3932 0.94191 0.94417 0.0
C3614 C 0.43668 0.94677 0.94531 0.0
C3615 C 0.38092 0.92359 0.94421 0.0
C3616 C 0.41197 0.9098 0.94525 0.0
C3617 C 0.45514 0.91466 0.94661 0.0
C3618 C 0.46737 0.93291 0.94665 0.0
C3619 C 0.39989 0.89029 0.94474 0.0
C3620 C 0.412 0.87868 0.95177 0.0
C3621 C 0.37665 0.88312 0.93738 0.0
C3622 C 0.36535 0.89436 0.92947 0.0
C3623 C 0.39756 0.90355 0.92465 0.0
C3624 C 0.38661 0.91435 0.91729 0.0
C3625 C 0.34358 0.91594 0.91464 0.0
C3626 C 0.31142 0.90669 0.91933 0.0
C3627 C 0.32219 0.89589 0.92671 0.0
H3628 H 0.33517 0.92432 0.90895 0.0
H3629 H 0.44455 0.8188 0.97994 0.0
H3630 H 0.49247 0.80359 0.81155 0.0
H3631 H 0.47235 0.8356 0.8116 0.0
H3632 H 0.35103 0.82211 0.82398 0.0
H3633 H 0.37141 0.78991 0.82417 0.0
H3634 H 0.41031 0.85474 0.80426 0.0
H3635 H 0.32248 0.85616 0.83808 0.0
H3636 H 0.32078 0.83852 0.85213 0.0
H3637 H 0.45304 0.8232 0.84839 0.0
H3638 H 0.45566 0.84092 0.83439 0.0
H3639 H 0.29171 0.93634 0.81048 0.0
H3640 H 0.31467 0.9046 0.80987 0.0
H3641 H 0.41868 0.91641 0.82814 0.0
H3642 H 0.39594 0.94844 0.82875 0.0
H3643 H 0.37173 0.88514 0.83279 0.0
H3644 H 0.44152 0.91036 0.80712 0.0
H3645 H 0.44808 0.92687 0.79284 0.0
H3646 H 0.36118 0.88911 0.78036 0.0
H3647 H 0.35332 0.87258 0.79462 0.0
C3648 C 0.46137 0.80734 0.81426 0.0
C3649 C 0.43373 0.79414 0.81794 0.0
C3650 C 0.44987 0.8257 0.81425 0.0
C3651 C 0.41049 0.83132 0.81791 0.0
C3652 C 0.38197 0.81813 0.82127 0.0
C3653 C 0.39356 0.7997 0.82133 0.0
C3654 C 0.40011 0.85105 0.81838 0.0
C3655 C 0.40171 0.86137 0.81049 0.0
C3656 C 0.38971 0.85978 0.82655 0.0
C3657 C 0.38912 0.84975 0.83516 0.0
C3658 C 0.35128 0.84914 0.8403 0.0
C3659 C 0.35013 0.8391 0.84824 0.0
C3660 C 0.38674 0.8297 0.85114 0.0
C3661 C 0.42467 0.83044 0.84613 0.0
C3662 C 0.426 0.84048 0.83819 0.0
C3663 C 0.31959 0.93225 0.81435 0.0
C3664 C 0.34202 0.94491 0.81967 0.0
C3665 C 0.33272 0.91409 0.81397 0.0
C3666 C 0.3684 0.90816 0.81894 0.0
C3667 C 0.39101 0.92074 0.82426 0.0
C3668 C 0.37816 0.93903 0.82456 0.0
C3669 C 0.38149 0.88874 0.81864 0.0
C3670 C 0.38028 0.87849 0.82656 0.0
C3671 C 0.39277 0.8801 0.81051 0.0
C3672 C 0.39653 0.89032 0.80198 0.0
C3673 C 0.42336 0.9057 0.80137 0.0
C3674 C 0.42741 0.91504 0.79327 0.0
C3675 C 0.4051 0.90902 0.7857 0.0
C3676 C 0.3785 0.89373 0.78623 0.0
C3677 C 0.37419 0.88439 0.79432 0.0
H3678 H 0.40846 0.91621 0.77942 0.0
H3679 H 0.38571 0.82187 0.85726 0.0
H3680 H 0.71709 0.51018 0.05765 0.0
H3681 H 0.63892 0.50687 0.05848 0.0
H3682 H 0.65281 0.47119 0.08119 0.0
H3683 H 0.73133 0.47402 0.08025 0.0
H3684 H 0.59325 0.45816 0.06962 0.0
H3685 H 0.62142 0.51574 0.08374 0.0
H3686 H 0.65138 0.54676 0.08481 0.0
H3687 H 0.57723 0.56308 0.0619 0.0
H3688 H 0.54725 0.53208 0.06063 0.0
H3689 H 0.37539 0.45916 0.08367 0.0
H3690 H 0.45333 0.46206 0.08263 0.0
H3691 H 0.43885 0.50139 0.06144 0.0
H3692 H 0.36054 0.49943 0.06281 0.0
H3693 H 0.49914 0.5125 0.07212 0.0
H3694 H 0.4708 0.45537 0.05782 0.0
H3695 H 0.4412 0.42434 0.05641 0.0
H3696 H 0.51569 0.40709 0.0791 0.0
H3697 H 0.54533 0.43809 0.08072 0.0
C3698 C 0.70368 0.50146 0.06277 0.0
C3699 C 0.73081 0.49237 0.06888 0.0
C3700 C 0.65879 0.49973 0.0633 0.0
C3701 C 0.63969 0.48895 0.06997 0.0
C3702 C 0.66662 0.47965 0.076 0.0
C3703 C 0.71159 0.4814 0.0755 0.0
C3704 C 0.59171 0.48738 0.07063 0.0
C3705 C 0.57271 0.47003 0.07029 0.0
C3706 C 0.56461 0.50286 0.07125 0.0
C3707 C 0.58241 0.52154 0.07204 0.0
C3708 C 0.61175 0.52591 0.07889 0.0
C3709 C 0.62869 0.5435 0.07954 0.0
C3710 C 0.6163 0.55687 0.07341 0.0
C3711 C 0.58684 0.5527 0.06664 0.0
C3712 C 0.56983 0.53513 0.06595 0.0
C3713 C 0.38852 0.46862 0.07884 0.0
C3714 C 0.36111 0.47909 0.07334 0.0
C3715 C 0.43342 0.47006 0.07817 0.0
C3716 C 0.45242 0.48173 0.07185 0.0
C3717 C 0.42524 0.49221 0.06635 0.0
C3718 C 0.38025 0.49091 0.06708 0.0
C3719 C 0.50047 0.48325 0.07111 0.0
C3720 C 0.51955 0.5006 0.07144 0.0
C3721 C 0.52763 0.46776 0.07042 0.0
C3722 C 0.50997 0.4491 0.06944 0.0
C3723 C 0.48064 0.44499 0.06255 0.0
C3724 C 0.46389 0.4274 0.06171 0.0
C3725 C 0.47647 0.41377 0.06768 0.0
C3726 C 0.50593 0.41767 0.07449 0.0
C3727 C 0.52275 0.43525 0.07537 0.0
H3728 H 0.46347 0.40016 0.06701 0.0
H3729 H 0.62946 0.57048 0.07392 0.0
H3730 H 0.56708 0.71722 0.07261 0.0
H3731 H 0.64541 0.71998 0.07293 0.0
H3732 H 0.63472 0.77783 0.06859 0.0
H3733 H 0.55608 0.7752 0.06832 0.0
H3734 H 0.69696 0.76402 0.0583 0.0
H3735 H 0.66062 0.75992 0.08936 0.0
H3736 H 0.62671 0.74661 0.10275 0.0
H3737 H 0.69964 0.69748 0.09913 0.0
H3738 H 0.73356 0.71041 0.08564 0.0
H3739 H 0.91436 0.78615 0.06911 0.0
H3740 H 0.83594 0.78366 0.06877 0.0
H3741 H 0.84548 0.72584 0.0733 0.0
H3742 H 0.92413 0.72819 0.07361 0.0
H3743 H 0.78373 0.73981 0.08352 0.0
H3744 H 0.81988 0.74389 0.05243 0.0
H3745 H 0.85364 0.75718 0.03902 0.0
H3746 H 0.78101 0.80637 0.0427 0.0
H3747 H 0.74723 0.79346 0.05621 0.0
C3748 C 0.58119 0.73061 0.07185 0.0
C3749 C 0.55483 0.746 0.07051 0.0
C3750 C 0.62622 0.73216 0.07201 0.0
C3751 C 0.64633 0.74916 0.0709 0.0
C3752 C 0.6202 0.76454 0.06946 0.0
C3753 C 0.57509 0.763 0.06929 0.0
C3754 C 0.69449 0.75083 0.07115 0.0
C3755 C 0.71582 0.75896 0.06389 0.0
C3756 C 0.71955 0.74386 0.07831 0.0
C3757 C 0.69932 0.73607 0.08644 0.0
C3758 C 0.66918 0.74622 0.09138 0.0
C3759 C 0.65 0.73875 0.09899 0.0
C3760 C 0.66093 0.72119 0.10177 0.0
C3761 C 0.69116 0.71107 0.09696 0.0
C3762 C 0.7104 0.71847 0.08933 0.0
C3763 C 0.89996 0.77282 0.06991 0.0
C3764 C 0.926 0.75735 0.07133 0.0
C3765 C 0.85488 0.77143 0.06974 0.0
C3766 C 0.83443 0.75451 0.0709 0.0
C3767 C 0.86025 0.73907 0.07239 0.0
C3768 C 0.90538 0.74045 0.07258 0.0
C3769 C 0.78623 0.75298 0.07067 0.0
C3770 C 0.76487 0.74488 0.07794 0.0
C3771 C 0.76115 0.75998 0.06351 0.0
C3772 C 0.78135 0.76777 0.05539 0.0
C3773 C 0.81136 0.75759 0.05042 0.0
C3774 C 0.83045 0.76505 0.04279 0.0
C3775 C 0.81956 0.78263 0.04002 0.0
C3776 C 0.78946 0.79277 0.04486 0.0
C3777 C 0.77031 0.78538 0.0525 0.0
H3778 H 0.83438 0.78837 0.03412 0.0
H3779 H 0.64605 0.71543 0.10767 0.0
H3780 H 0.72072 0.72542 0.20335 0.0
H3781 H 0.64251 0.7289 0.20303 0.0
H3782 H 0.65529 0.77629 0.18627 0.0
H3783 H 0.73364 0.77266 0.18633 0.0
H3784 H 0.59484 0.7815 0.19947 0.0
H3785 H 0.62572 0.73637 0.17723 0.0
H3786 H 0.65712 0.70797 0.17133 0.0
H3787 H 0.58384 0.67682 0.19025 0.0
H3788 H 0.55245 0.70508 0.19635 0.0
H3789 H 0.3772 0.7869 0.18458 0.0
H3790 H 0.45547 0.78428 0.18553 0.0
H3791 H 0.44238 0.73494 0.20089 0.0
H3792 H 0.36387 0.73754 0.20004 0.0
H3793 H 0.50327 0.73078 0.18851 0.0
H3794 H 0.47189 0.77574 0.21074 0.0
H3795 H 0.44066 0.80408 0.21674 0.0
H3796 H 0.51479 0.83547 0.19806 0.0
H3797 H 0.54604 0.80728 0.19185 0.0
C3798 C 0.7071 0.73653 0.19952 0.0
C3799 C 0.73399 0.74865 0.1948 0.0
C3800 C 0.66217 0.73853 0.19938 0.0
C3801 C 0.64274 0.75273 0.19454 0.0
C3802 C 0.66938 0.76521 0.19006 0.0
C3803 C 0.71437 0.76315 0.19014 0.0
C3804 C 0.59469 0.75436 0.19404 0.0
C3805 C 0.57487 0.77049 0.19697 0.0
C3806 C 0.56833 0.73988 0.19097 0.0
C3807 C 0.58708 0.72286 0.18731 0.0
C3808 C 0.61658 0.72348 0.18018 0.0
C3809 C 0.63433 0.70741 0.17679 0.0
C3810 C 0.62258 0.69061 0.18043 0.0
C3811 C 0.59296 0.68985 0.18745 0.0
C3812 C 0.57516 0.70589 0.19087 0.0
C3813 C 0.39079 0.7756 0.18828 0.0
C3814 C 0.3638 0.7625 0.19228 0.0
C3815 C 0.43578 0.77409 0.1888 0.0
C3816 C 0.45518 0.75952 0.19338 0.0
C3817 C 0.42841 0.74632 0.19731 0.0
C3818 C 0.38336 0.74781 0.19679 0.0
C3819 C 0.50327 0.75793 0.19396 0.0
C3820 C 0.52315 0.7418 0.19104 0.0
C3821 C 0.52967 0.7724 0.19705 0.0
C3822 C 0.51097 0.78938 0.20077 0.0
C3823 C 0.48127 0.78868 0.20786 0.0
C3824 C 0.46361 0.80472 0.21131 0.0
C3825 C 0.47564 0.82156 0.20777 0.0
C3826 C 0.50545 0.82241 0.20078 0.0
C3827 C 0.52318 0.8064 0.1973 0.0
H3828 H 0.46195 0.83397 0.21045 0.0
H3829 H 0.63634 0.67818 0.17779 0.0
H3830 H 0.91441 0.46114 0.18109 0.0
H3831 H 0.83614 0.46387 0.18173 0.0
H3832 H 0.84822 0.51014 0.19929 0.0
H3833 H 0.92683 0.5077 0.19858 0.0
H3834 H 0.78577 0.48719 0.20509 0.0
H3835 H 0.82213 0.51557 0.17722 0.0
H3836 H 0.85603 0.51754 0.16235 0.0
H3837 H 0.7818 0.47167 0.15339 0.0
H3838 H 0.74791 0.46925 0.16826 0.0
H3839 H 0.56941 0.51809 0.20189 0.0
H3840 H 0.64771 0.51533 0.2013 0.0
H3841 H 0.63588 0.47087 0.18261 0.0
H3842 H 0.55726 0.4736 0.18315 0.0
H3843 H 0.69844 0.49282 0.17741 0.0
H3844 H 0.66226 0.46411 0.20512 0.0
H3845 H 0.62865 0.46157 0.22 0.0
H3846 H 0.70252 0.50728 0.22927 0.0
H3847 H 0.73616 0.51025 0.2144 0.0
C3848 C 0.90064 0.47208 0.185 0.0
C3849 C 0.92741 0.4843 0.18971 0.0
C3850 C 0.85565 0.47358 0.18539 0.0
C3851 C 0.83597 0.48735 0.19047 0.0
C3852 C 0.86245 0.49938 0.19532 0.0
C3853 C 0.90755 0.49792 0.19492 0.0
C3854 C 0.78788 0.48916 0.19073 0.0
C3855 C 0.76676 0.48868 0.19904 0.0
C3856 C 0.76268 0.49063 0.18284 0.0
C3857 C 0.78279 0.49212 0.17388 0.0
C3858 C 0.81327 0.50581 0.1721 0.0
C3859 C 0.83245 0.50702 0.16367 0.0
C3860 C 0.82116 0.49471 0.15693 0.0
C3861 C 0.79056 0.48118 0.15862 0.0
C3862 C 0.77133 0.4799 0.16704 0.0
C3863 C 0.58331 0.50756 0.19772 0.0
C3864 C 0.55667 0.49597 0.19262 0.0
C3865 C 0.62831 0.506 0.19739 0.0
C3866 C 0.64809 0.49269 0.19202 0.0
C3867 C 0.62164 0.48126 0.18682 0.0
C3868 C 0.57655 0.48286 0.18712 0.0
C3869 C 0.69623 0.49085 0.19177 0.0
C3870 C 0.71739 0.49132 0.18346 0.0
C3871 C 0.72146 0.4893 0.19966 0.0
C3872 C 0.70142 0.48751 0.20862 0.0
C3873 C 0.6711 0.4737 0.21031 0.0
C3874 C 0.65209 0.47217 0.21874 0.0
C3875 C 0.66336 0.48428 0.22557 0.0
C3876 C 0.69378 0.49792 0.22397 0.0
C3877 C 0.71286 0.49953 0.21555 0.0
H3878 H 0.6486 0.48307 0.23209 0.0
H3879 H 0.83604 0.49566 0.15041 0.0
H3880 H 0.6557 0.53853 0.93624 0.0
H3881 H 0.57736 0.53595 0.93688 0.0
H3882 H 0.58871 0.47874 0.94283 0.0
H3883 H 0.66724 0.48125 0.94244 0.0
H3884 H 0.52772 0.48511 0.92998 0.0
H3885 H 0.56207 0.50856 0.95908 0.0
H3886 H 0.59483 0.52985 0.96988 0.0
H3887 H 0.52088 0.57385 0.95882 0.0
H3888 H 0.4881 0.55286 0.94786 0.0
H3889 H 0.31269 0.46803 0.94341 0.0
H3890 H 0.39078 0.47152 0.94286 0.0
H3891 H 0.37601 0.52916 0.93837 0.0
H3892 H 0.29752 0.52578 0.93886 0.0
H3893 H 0.43878 0.52308 0.95027 0.0
H3894 H 0.40397 0.49999 0.92126 0.0
H3895 H 0.37124 0.479 0.91031 0.0
H3896 H 0.44609 0.43481 0.92092 0.0
H3897 H 0.47885 0.45549 0.93202 0.0
C3898 C 0.64177 0.52542 0.93783 0.0
C3899 C 0.66828 0.51013 0.93933 0.0
C3900 C 0.59676 0.52396 0.93816 0.0
C3901 C 0.57693 0.50717 0.93997 0.0
C3902 C 0.60314 0.49184 0.9414 0.0
C3903 C 0.64819 0.49331 0.94113 0.0
C3904 C 0.52892 0.50557 0.94029 0.0
C3905 C 0.50834 0.49324 0.93451 0.0
C3906 C 0.50334 0.51652 0.94601 0.0
C3907 C 0.52297 0.52917 0.95259 0.0
C3908 C 0.55307 0.52281 0.9589 0.0
C3909 C 0.57159 0.53481 0.96506 0.0
C3910 C 0.56004 0.5532 0.96502 0.0
C3911 C 0.52985 0.55961 0.95884 0.0
C3912 C 0.51126 0.54766 0.95265 0.0
C3913 C 0.32586 0.48145 0.94218 0.0
C3914 C 0.29846 0.49658 0.94108 0.0
C3915 C 0.37072 0.48343 0.94189 0.0
C3916 C 0.38956 0.50057 0.94044 0.0
C3917 C 0.3624 0.51577 0.93948 0.0
C3918 C 0.31742 0.51381 0.93979 0.0
C3919 C 0.43751 0.50256 0.93998 0.0
C3920 C 0.45811 0.51496 0.94573 0.0
C3921 C 0.46313 0.49173 0.9342 0.0
C3922 C 0.44356 0.47926 0.92753 0.0
C3923 C 0.41321 0.48576 0.9213 0.0
C3924 C 0.39469 0.47393 0.91506 0.0
C3925 C 0.40649 0.45557 0.91493 0.0
C3926 C 0.43693 0.44902 0.92103 0.0
C3927 C 0.45552 0.4608 0.9273 0.0
H3928 H 0.39213 0.44643 0.9101 0.0
H3929 H 0.5744 0.56247 0.9698 0.0
H3930 H 0.4743 0.23913 0.95404 0.0
H3931 H 0.3958 0.2367 0.95415 0.0
H3932 H 0.39273 0.24617 0.92569 0.0
H3933 H 0.47134 0.24866 0.92553 0.0
H3934 H 0.33231 0.26583 0.93359 0.0
H3935 H 0.3761 0.20322 0.93506 0.0
H3936 H 0.4157 0.17692 0.94117 0.0
H3937 H 0.3509 0.18328 0.96633 0.0
H3938 H 0.31141 0.20984 0.96042 0.0
H3939 H 0.11426 0.24001 0.92613 0.0
H3940 H 0.19279 0.24215 0.92613 0.0
H3941 H 0.19471 0.23279 0.9546 0.0
H3942 H 0.11603 0.23066 0.95465 0.0
H3943 H 0.25569 0.21305 0.94679 0.0
H3944 H 0.21253 0.27563 0.94548 0.0
H3945 H 0.17359 0.30232 0.93958 0.0
H3946 H 0.23741 0.29617 0.9143 0.0
H3947 H 0.27631 0.26927 0.92001 0.0
C3948 C 0.45706 0.24044 0.94777 0.0
C3949 C 0.47943 0.24401 0.93977 0.0
C3950 C 0.412 0.23908 0.94784 0.0
C3951 C 0.38805 0.24105 0.93991 0.0
C3952 C 0.41027 0.24462 0.93191 0.0
C3953 C 0.45534 0.24607 0.93184 0.0
C3954 C 0.33988 0.23974 0.93997 0.0
C3955 C 0.31564 0.25415 0.93636 0.0
C3956 C 0.31777 0.22475 0.94379 0.0
C3957 C 0.3411 0.20864 0.94732 0.0
C3958 C 0.3705 0.19909 0.94192 0.0
C3959 C 0.3929 0.18412 0.94534 0.0
C3960 C 0.3859 0.17845 0.95414 0.0
C3961 C 0.35634 0.1877 0.95952 0.0
C3962 C 0.33392 0.20271 0.95613 0.0
C3963 C 0.13123 0.23866 0.93242 0.0
C3964 C 0.10849 0.23525 0.9404 0.0
C3965 C 0.17632 0.23984 0.93241 0.0
C3966 C 0.19997 0.23783 0.94038 0.0
C3967 C 0.17741 0.23436 0.94835 0.0
C3968 C 0.13229 0.23312 0.94836 0.0
C3969 C 0.24814 0.23913 0.94039 0.0
C3970 C 0.27238 0.22472 0.94401 0.0
C3971 C 0.27027 0.25413 0.9366 0.0
C3972 C 0.24701 0.27033 0.93315 0.0
C3973 C 0.21801 0.27988 0.93864 0.0
C3974 C 0.19599 0.29506 0.93533 0.0
C3975 C 0.20294 0.30091 0.92656 0.0
C3976 C 0.23202 0.29161 0.92109 0.0
C3977 C 0.25409 0.27641 0.92436 0.0
H3978 H 0.18586 0.31267 0.92401 0.0
H3979 H 0.40333 0.16688 0.95679 0.0
H3980 H 0.64804 0.20831 0.83216 0.0
H3981 H 0.56983 0.21075 0.83091 0.0
H3982 H 0.584 0.2485 0.80903 0.0
H3983 H 0.66249 0.24661 0.81044 0.0
H3984 H 0.52406 0.2602 0.82058 0.0
H3985 H 0.55416 0.20394 0.80549 0.0
H3986 H 0.58474 0.17314 0.80385 0.0
H3987 H 0.50975 0.15455 0.82615 0.0
H3988 H 0.47914 0.18532 0.82801 0.0
H3989 H 0.30855 0.25858 0.80519 0.0
H3990 H 0.38655 0.25541 0.80647 0.0
H3991 H 0.3702 0.21743 0.82819 0.0
H3992 H 0.29177 0.22002 0.82673 0.0
H3993 H 0.43115 0.20574 0.81691 0.0
H3994 H 0.40081 0.26177 0.83201 0.0
H3995 H 0.37028 0.29256 0.83378 0.0
H3996 H 0.4458 0.31157 0.81164 0.0
H3997 H 0.47636 0.28082 0.80965 0.0
C3998 C 0.63462 0.21725 0.82711 0.0
C3999 C 0.66173 0.22729 0.82141 0.0
C4000 C 0.58978 0.21848 0.82635 0.0
C4001 C 0.57087 0.22966 0.81981 0.0
C4002 C 0.59778 0.23973 0.81411 0.0
C4003 C 0.64269 0.23852 0.81487 0.0
C4004 C 0.52309 0.23106 0.81903 0.0
C4005 C 0.50382 0.24831 0.81965 0.0
C4006 C 0.49643 0.21551 0.81807 0.0
C4007 C 0.51467 0.19698 0.81694 0.0
C4008 C 0.54444 0.19332 0.81009 0.0
C4009 C 0.56173 0.17586 0.80911 0.0
C4010 C 0.54928 0.16191 0.81491 0.0
C4011 C 0.51941 0.16538 0.82168 0.0
C4012 C 0.50204 0.18282 0.82269 0.0
C4013 C 0.32143 0.24939 0.81019 0.0
C4014 C 0.29375 0.23956 0.81586 0.0
C4015 C 0.36616 0.24775 0.81098 0.0
C4016 C 0.38442 0.23638 0.81751 0.0
C4017 C 0.35693 0.22636 0.82312 0.0
C4018 C 0.31208 0.22798 0.82233 0.0
C4019 C 0.43214 0.23489 0.81842 0.0
C4020 C 0.4514 0.21763 0.81784 0.0
C4021 C 0.4588 0.25043 0.81944 0.0
C4022 C 0.44056 0.26895 0.82063 0.0
C4023 C 0.41066 0.27248 0.82747 0.0
C4024 C 0.39339 0.28993 0.82853 0.0
C4025 C 0.40601 0.304 0.82281 0.0
C4026 C 0.43601 0.30066 0.81605 0.0
C4027 C 0.45335 0.28322 0.81497 0.0
H4028 H 0.39261 0.3175 0.82364 0.0
H4029 H 0.56271 0.1484 0.81414 0.0
H4030 H 0.12111 0.53145 0.82866 0.0
H4031 H 0.19943 0.52906 0.82821 0.0
H4032 H 0.18931 0.48159 0.81137 0.0
H4033 H 0.1106 0.48346 0.81208 0.0
H4034 H 0.24966 0.47622 0.82367 0.0
H4035 H 0.21827 0.52436 0.80303 0.0
H4036 H 0.18641 0.5534 0.79805 0.0
H4037 H 0.25791 0.58208 0.81823 0.0
H4038 H 0.28977 0.55316 0.82342 0.0
H4039 H 0.46868 0.4736 0.81015 0.0
H4040 H 0.39033 0.47631 0.81034 0.0
H4041 H 0.40019 0.52344 0.82742 0.0
H4042 H 0.47891 0.5212 0.827 0.0
H4043 H 0.34003 0.529 0.81495 0.0
H4044 H 0.37116 0.48091 0.83563 0.0
H4045 H 0.40304 0.4519 0.84064 0.0
H4046 H 0.332 0.42316 0.82042 0.0
H4047 H 0.30012 0.45205 0.8152 0.0
C4048 C 0.13532 0.52035 0.82493 0.0
C4049 C 0.10905 0.50763 0.82042 0.0
C4050 C 0.1804 0.51913 0.82459 0.0
C4051 C 0.20071 0.50529 0.81965 0.0
C4052 C 0.17466 0.49247 0.8152 0.0
C4053 C 0.12949 0.49366 0.81555 0.0
C4054 C 0.24897 0.50409 0.81922 0.0
C4055 C 0.2693 0.48771 0.82163 0.0
C4056 C 0.27509 0.51915 0.81678 0.0
C4057 C 0.25609 0.53657 0.81366 0.0
C4058 C 0.22695 0.53684 0.80645 0.0
C4059 C 0.20893 0.55328 0.80358 0.0
C4060 C 0.22004 0.56957 0.80784 0.0
C4061 C 0.24929 0.56945 0.81495 0.0
C4062 C 0.26737 0.55304 0.81785 0.0
C4063 C 0.45439 0.48471 0.81386 0.0
C4064 C 0.48054 0.49717 0.81856 0.0
C4065 C 0.40932 0.48611 0.81405 0.0
C4066 C 0.38893 0.49992 0.819 0.0
C4067 C 0.41489 0.51259 0.82358 0.0
C4068 C 0.46005 0.5112 0.82339 0.0
C4069 C 0.34068 0.50112 0.8194 0.0
C4070 C 0.32036 0.51751 0.81698 0.0
C4071 C 0.31457 0.48607 0.82183 0.0
C4072 C 0.33358 0.46867 0.82497 0.0
C4073 C 0.36259 0.46842 0.83221 0.0
C4074 C 0.38062 0.452 0.83509 0.0
C4075 C 0.36964 0.4357 0.83084 0.0
C4076 C 0.34052 0.43579 0.8237 0.0
C4077 C 0.32243 0.45219 0.82078 0.0
H4078 H 0.38363 0.423 0.83308 0.0
H4079 H 0.20606 0.58228 0.80561 0.0
H4080 H 0.37493 0.9525 0.57761 0.0
H4081 H 0.45331 0.9549 0.57698 0.0
H4082 H 0.44247 0.01143 0.56954 0.0
H4083 H 0.36391 0.00895 0.5698 0.0
H4084 H 0.50308 -0.00456 0.55983 0.0
H4085 H 0.46942 -0.00202 0.59113 0.0
H4086 H 0.43697 0.98742 0.60525 0.0
H4087 H 0.51067 0.93803 0.60382 0.0
H4088 H 0.54316 0.9482 0.58963 0.0
H4089 H 0.71806 0.02229 0.56877 0.0
H4090 H 0.63994 0.01874 0.56911 0.0
H4091 H 0.65471 0.96214 0.57611 0.0
H4092 H 0.73317 0.96574 0.5761 0.0
H4093 H 0.59238 0.97749 0.58592 0.0
H4094 H 0.6271 0.97533 0.55472 0.0
H4095 H 0.65974 0.98611 0.54066 0.0
H4096 H 0.58413 0.035 0.54194 0.0
H4097 H 0.55145 0.02462 0.55609 0.0
C4098 C 0.38907 0.96541 0.57572 0.0
C4099 C 0.36279 0.98054 0.57377 0.0
C4100 C 0.43407 0.96682 0.57547 0.0
C4101 C 0.45406 0.98343 0.57334 0.0
C4102 C 0.42797 -0.00152 0.57124 0.0
C4103 C 0.38294 -0.00292 0.57147 0.0
C4104 C 0.50206 0.98513 0.5733 0.0
C4105 C 0.52251 0.99173 0.56558 0.0
C4106 C 0.52777 0.97989 0.58072 0.0
C4107 C 0.50839 0.97377 0.58927 0.0
C4108 C 0.47846 0.98481 0.59379 0.0
C4109 C 0.4601 0.9789 0.60181 0.0
C4110 C 0.47166 0.96204 0.60542 0.0
C4111 C 0.5017 0.95107 0.60102 0.0
C4112 C 0.52012 0.95691 0.59299 0.0
C4113 C 0.70484 0.00911 0.57049 0.0
C4114 C 0.73219 0.9943 0.57242 0.0
C4115 C 0.66 0.00705 0.57057 0.0
C4116 C 0.64122 0.9901 0.57251 0.0
C4117 C 0.66833 0.97534 0.57455 0.0
C4118 C 0.71327 0.97739 0.57447 0.0
C4119 C 0.59336 0.98786 0.57246 0.0
C4120 C 0.57294 0.98116 0.58016 0.0
C4121 C 0.56768 0.99304 0.56503 0.0
C4122 C 0.58712 -0.00073 0.55651 0.0
C4123 C 0.61766 0.98844 0.55204 0.0
C4124 C 0.63614 0.99447 0.54405 0.0
C4125 C 0.62409 0.01124 0.54042 0.0
C4126 C 0.59346 0.02201 0.54477 0.0
C4127 C 0.57492 0.01606 0.55277 0.0
H4128 H 0.63843 0.01589 0.53424 0.0
H4129 H 0.45742 0.9575 0.61163 0.0
H4130 H 0.5384 0.26291 0.58009 0.0
H4131 H 0.61674 0.26548 0.5815 0.0
H4132 H 0.63232 0.23795 0.55622 0.0
H4133 H 0.55435 0.23473 0.55493 0.0
H4134 H 0.68689 0.2246 0.56776 0.0
H4135 H 0.64714 0.28478 0.55862 0.0
H4136 H 0.61186 0.31487 0.55888 0.0
H4137 H 0.666 0.32565 0.58479 0.0
H4138 H 0.70116 0.29552 0.58475 0.0
H4139 H 0.90734 0.24698 0.55991 0.0
H4140 H 0.82872 0.24474 0.55891 0.0
H4141 H 0.81728 0.26752 0.58539 0.0
H4142 H 0.89576 0.27005 0.58638 0.0
H4143 H 0.76111 0.28323 0.57355 0.0
H4144 H 0.80238 0.22276 0.58224 0.0
H4145 H 0.84257 0.19391 0.581 0.0
H4146 H 0.78718 0.1844 0.55508 0.0
H4147 H 0.74711 0.21334 0.55611 0.0
C4148 C 0.55849 0.2573 0.57486 0.0
C4149 C 0.5399 0.24866 0.56738 0.0
C4150 C 0.60334 0.25896 0.57562 0.0
C4151 C 0.63059 0.2521 0.56892 0.0
C4152 C 0.61209 0.24342 0.56148 0.0
C4153 C 0.56736 0.24173 0.56071 0.0
C4154 C 0.67838 0.25346 0.56973 0.0
C4155 C 0.70306 0.23749 0.56892 0.0
C4156 C 0.69969 0.27017 0.57144 0.0
C4157 C 0.67645 0.28781 0.57172 0.0
C4158 C 0.651 0.29345 0.56443 0.0
C4159 C 0.63117 0.31054 0.56452 0.0
C4160 C 0.6368 0.32216 0.57183 0.0
C4161 C 0.66175 0.31663 0.57912 0.0
C4162 C 0.68162 0.29955 0.57907 0.0
C4163 C 0.88806 0.25159 0.5655 0.0
C4164 C 0.90784 0.25864 0.57324 0.0
C4165 C 0.84315 0.25017 0.56495 0.0
C4166 C 0.81709 0.25581 0.57211 0.0
C4167 C 0.83672 0.26302 0.5798 0.0
C4168 C 0.8816 0.26433 0.58038 0.0
C4169 C 0.76933 0.25444 0.57155 0.0
C4170 C 0.74476 0.27038 0.57242 0.0
C4171 C 0.74813 0.23774 0.56983 0.0
C4172 C 0.77207 0.2203 0.56921 0.0
C4173 C 0.79904 0.21459 0.57624 0.0
C4174 C 0.82175 0.19821 0.57558 0.0
C4175 C 0.81752 0.18735 0.56796 0.0
C4176 C 0.79047 0.19283 0.56098 0.0
C4177 C 0.76772 0.20922 0.5616 0.0
H4178 H 0.83513 0.17467 0.56746 0.0
H4179 H 0.62214 0.33552 0.57182 0.0
H4180 H 0.72439 0.22888 0.70358 0.0
H4181 H 0.64621 0.23211 0.70272 0.0
H4182 H 0.65971 0.26775 0.67999 0.0
H4183 H 0.73825 0.26502 0.68098 0.0
H4184 H 0.60007 0.28077 0.69138 0.0
H4185 H 0.62825 0.22312 0.67749 0.0
H4186 H 0.65825 0.19211 0.67643 0.0
H4187 H 0.58474 0.17579 0.69937 0.0
H4188 H 0.55473 0.20679 0.70065 0.0
H4189 H 0.38174 0.27835 0.67711 0.0
H4190 H 0.45991 0.27556 0.67813 0.0
H4191 H 0.44637 0.23853 0.70031 0.0
H4192 H 0.36788 0.24067 0.69911 0.0
H4193 H 0.50619 0.22628 0.68923 0.0
H4194 H 0.47781 0.28374 0.70317 0.0
H4195 H 0.44796 0.31475 0.70438 0.0
H4196 H 0.52182 0.33147 0.68155 0.0
H4197 H 0.55168 0.30047 0.68014 0.0
C4198 C 0.7109 0.23758 0.69844 0.0
C4199 C 0.73795 0.24669 0.69235 0.0
C4200 C 0.66599 0.23926 0.6979 0.0
C4201 C 0.64675 0.25 0.69122 0.0
C4202 C 0.6736 0.25931 0.68519 0.0
C4203 C 0.7186 0.25762 0.68572 0.0
C4204 C 0.59873 0.25152 0.69054 0.0
C4205 C 0.57961 0.26886 0.69079 0.0
C4206 C 0.57169 0.236 0.68999 0.0
C4207 C 0.58957 0.21733 0.68922 0.0
C4208 C 0.61874 0.21296 0.68235 0.0
C4209 C 0.6357 0.19538 0.6817 0.0
C4210 C 0.62349 0.182 0.68784 0.0
C4211 C 0.59421 0.18617 0.69463 0.0
C4212 C 0.57719 0.20374 0.69531 0.0
C4213 C 0.39521 0.26945 0.68217 0.0
C4214 C 0.36811 0.25973 0.68802 0.0
C4215 C 0.44015 0.26804 0.68281 0.0
C4216 C 0.4594 0.25702 0.68938 0.0
C4217 C 0.43251 0.2472 0.6952 0.0
C4218 C 0.38749 0.24857 0.69455 0.0
C4219 C 0.50745 0.25554 0.69008 0.0
C4220 C 0.5266 0.23821 0.68984 0.0
C4221 C 0.53451 0.27107 0.69065 0.0
C4222 C 0.51665 0.28973 0.6915 0.0
C4223 C 0.48743 0.29399 0.69837 0.0
C4224 C 0.47055 0.31157 0.6991 0.0
C4225 C 0.48289 0.32506 0.69303 0.0
C4226 C 0.51224 0.321 0.68624 0.0
C4227 C 0.52918 0.30343 0.68547 0.0
H4228 H 0.4698 0.33867 0.69361 0.0
H4229 H 0.63666 0.16839 0.68732 0.0
H4230 H 0.89927 0.00331 0.68514 0.0
H4231 H 0.82094 0.00555 0.68624 0.0
H4232 H 0.81731 0.95474 0.70066 0.0
H4233 H 0.89573 0.95214 0.69936 0.0
H4234 H 0.7549 0.95582 0.6881 0.0
H4235 H 0.80401 0.99519 0.7115 0.0
H4236 H 0.84598 0.02023 0.71821 0.0
H4237 H 0.78397 0.05854 0.70074 0.0
H4238 H 0.74204 0.03368 0.69383 0.0
H4239 H 0.53847 0.96442 0.70345 0.0
H4240 H 0.61681 0.96144 0.70255 0.0
H4241 H 0.62381 0.01195 0.68793 0.0
H4242 H 0.54556 0.01528 0.68902 0.0
H4243 H 0.68447 0.01064 0.70082 0.0
H4244 H 0.63528 0.971 0.67742 0.0
H4245 H 0.59209 0.94594 0.67107 0.0
H4246 H 0.65375 0.90801 0.68879 0.0
H4247 H 0.69683 0.93291 0.69536 0.0
C4248 C 0.88186 0.99254 0.6885 0.0
C4249 C 0.90395 0.97754 0.69216 0.0
C4250 C 0.83701 0.99392 0.6892 0.0
C4251 C 0.81311 0.9804 0.69361 0.0
C4252 C 0.83499 0.96537 0.69724 0.0
C4253 C 0.87992 0.964 0.69657 0.0
C4254 C 0.7653 0.9819 0.69434 0.0
C4255 C 0.73954 0.9677 0.691 0.0
C4256 C 0.74506 -0.00245 0.69795 0.0
C4257 C 0.77019 0.01254 0.70209 0.0
C4258 C 0.79958 0.00893 0.70904 0.0
C4259 C 0.82331 0.02309 0.71289 0.0
C4260 C 0.81773 0.04095 0.70989 0.0
C4261 C 0.78831 0.04469 0.70305 0.0
C4262 C 0.76452 0.03057 0.69917 0.0
C4263 C 0.55666 0.97494 0.70007 0.0
C4264 C 0.5356 0.99009 0.6963 0.0
C4265 C 0.60148 0.97314 0.6995 0.0
C4266 C 0.62631 0.98639 0.6951 0.0
C4267 C 0.6054 0.00152 0.69134 0.0
C4268 C 0.56057 0.00332 0.69189 0.0
C4269 C 0.67409 0.98462 0.69454 0.0
C4270 C 0.69985 -0.00124 0.69792 0.0
C4271 C 0.69428 0.96891 0.69099 0.0
C4272 C 0.66899 0.95385 0.68694 0.0
C4273 C 0.63943 0.95734 0.68 0.0
C4274 C 0.61498 0.94316 0.67636 0.0
C4275 C 0.62008 0.92541 0.67954 0.0
C4276 C 0.64979 0.92178 0.68634 0.0
C4277 C 0.67425 0.93591 0.69002 0.0
H4278 H 0.60109 0.91445 0.67672 0.0
H4279 H 0.83613 0.0519 0.71288 0.0
H4280 H 0.65965 0.98758 0.44941 0.0
H4281 H 0.58133 0.9842 0.44995 0.0
H4282 H 0.56654 0.0329 0.43415 0.0
H4283 H 0.64477 0.03624 0.43345 0.0
H4284 H 0.5106 0.03255 0.448 0.0
H4285 H 0.55297 0.9914 0.42475 0.0
H4286 H 0.59413 0.96617 0.41802 0.0
H4287 H 0.54214 0.92912 0.43741 0.0
H4288 H 0.50111 0.95419 0.44434 0.0
H4289 H 0.28942 0.02051 0.43659 0.0
H4290 H 0.36768 0.02409 0.43586 0.0
H4291 H 0.38402 0.97542 0.45162 0.0
H4292 H 0.30591 0.97187 0.4525 0.0
H4293 H 0.43915 0.97589 0.43766 0.0
H4294 H 0.3971 0.01714 0.46096 0.0
H4295 H 0.35597 0.04239 0.46767 0.0
H4296 H 0.40736 0.0793 0.44815 0.0
H4297 H 0.44836 0.0542 0.44124 0.0
C4298 C 0.63982 -0.0025 0.44598 0.0
C4299 C 0.65874 0.01218 0.44137 0.0
C4300 C 0.59497 -0.00443 0.44631 0.0
C4301 C 0.56797 0.00821 0.44202 0.0
C4302 C 0.58666 0.023 0.43753 0.0
C4303 C 0.63149 0.02492 0.43717 0.0
C4304 C 0.52025 0.00602 0.44221 0.0
C4305 C 0.49495 0.02026 0.44563 0.0
C4306 C 0.49978 0.98983 0.43929 0.0
C4307 C 0.52431 0.97471 0.43512 0.0
C4308 C 0.55058 0.9779 0.42762 0.0
C4309 C 0.57384 0.96363 0.42376 0.0
C4310 C 0.57085 0.94606 0.4273 0.0
C4311 C 0.54448 0.94273 0.43469 0.0
C4312 C 0.52119 0.95697 0.43858 0.0
C4313 C 0.30959 0.01064 0.43997 0.0
C4314 C 0.29115 -0.0041 0.44461 0.0
C4315 C 0.3544 0.01269 0.43953 0.0
C4316 C 0.38182 0.00011 0.44375 0.0
C4317 C 0.36358 0.98527 0.44828 0.0
C4318 C 0.31881 0.98323 0.44874 0.0
C4319 C 0.4295 0.00241 0.44347 0.0
C4320 C 0.4548 0.98819 0.44003 0.0
C4321 C 0.44996 0.01861 0.44637 0.0
C4322 C 0.42544 0.03374 0.45053 0.0
C4323 C 0.39936 0.03061 0.45805 0.0
C4324 C 0.37611 0.0449 0.4619 0.0
C4325 C 0.37895 0.06243 0.45832 0.0
C4326 C 0.40514 0.06571 0.4509 0.0
C4327 C 0.42841 0.05146 0.44702 0.0
H4328 H 0.36094 0.07348 0.46131 0.0
H4329 H 0.58887 0.93503 0.4243 0.0
H4330 H 0.47097 0.76592 0.43347 0.0
H4331 H 0.3925 0.76357 0.43294 0.0
H4332 H 0.39673 0.71955 0.45198 0.0
H4333 H 0.47541 0.72137 0.45231 0.0
H4334 H 0.33935 0.71213 0.43926 0.0
H4335 H 0.36812 0.7635 0.45815 0.0
H4336 H 0.40004 0.79313 0.46219 0.0
H4337 H 0.33384 0.81854 0.44026 0.0
H4338 H 0.30197 0.78899 0.43601 0.0
H4339 H 0.11685 0.71302 0.45063 0.0
H4340 H 0.19538 0.71515 0.45125 0.0
H4341 H 0.19229 0.75933 0.43229 0.0
H4342 H 0.11363 0.75773 0.43187 0.0
H4343 H 0.24914 0.7666 0.44506 0.0
H4344 H 0.22057 0.71521 0.42614 0.0
H4345 H 0.18878 0.68556 0.42208 0.0
H4346 H 0.25464 0.66019 0.44407 0.0
H4347 H 0.28638 0.68975 0.44833 0.0
C4348 C 0.4554 0.75555 0.43746 0.0
C4349 C 0.4799 0.74387 0.44296 0.0
C4350 C 0.41028 0.75437 0.43723 0.0
C4351 C 0.38831 0.74157 0.44253 0.0
C4352 C 0.41268 0.72962 0.44787 0.0
C4353 C 0.45782 0.73079 0.4481 0.0
C4354 C 0.34004 0.74067 0.44254 0.0
C4355 C 0.31969 0.724 0.44065 0.0
C4356 C 0.31401 0.7562 0.44415 0.0
C4357 C 0.333 0.77399 0.44671 0.0
C4358 C 0.36063 0.77538 0.45415 0.0
C4359 C 0.37867 0.79216 0.45648 0.0
C4360 C 0.36907 0.8077 0.45147 0.0
C4361 C 0.3413 0.80649 0.44412 0.0
C4362 C 0.32321 0.78973 0.44176 0.0
C4363 C 0.13271 0.72337 0.44667 0.0
C4364 C 0.10853 0.73515 0.44117 0.0
C4365 C 0.17785 0.72443 0.44695 0.0
C4366 C 0.20015 0.73722 0.44171 0.0
C4367 C 0.17609 0.74926 0.43637 0.0
C4368 C 0.13096 0.74822 0.43608 0.0
C4369 C 0.24844 0.73806 0.44177 0.0
C4370 C 0.26879 0.75472 0.44367 0.0
C4371 C 0.27446 0.72252 0.44017 0.0
C4372 C 0.2555 0.70473 0.43761 0.0
C4373 C 0.22801 0.70333 0.43015 0.0
C4374 C 0.21005 0.68654 0.42781 0.0
C4375 C 0.21959 0.67101 0.43283 0.0
C4376 C 0.24722 0.67223 0.44019 0.0
C4377 C 0.26523 0.689 0.44257 0.0
H4378 H 0.20566 0.65802 0.431 0.0
H4379 H 0.38306 0.82068 0.45329 0.0
H4380 H 0.30276 0.72008 0.3176 0.0
H4381 H 0.38118 0.71823 0.31856 0.0
H4382 H 0.38592 0.773 0.32892 0.0
H4383 H 0.30743 0.77518 0.32769 0.0
H4384 H 0.4462 0.76827 0.31637 0.0
H4385 H 0.40216 0.73585 0.34258 0.0
H4386 H 0.36187 0.71284 0.35118 0.0
H4387 H 0.42191 0.67013 0.33605 0.0
H4388 H 0.46214 0.6929 0.32727 0.0
H4389 H 0.66909 0.76287 0.32847 0.0
H4390 H 0.59056 0.76623 0.32925 0.0
H4391 H 0.57491 0.71214 0.31849 0.0
H4392 H 0.65304 0.70855 0.31788 0.0
H4393 H 0.52028 0.71766 0.33208 0.0
H4394 H 0.56107 0.74975 0.3054 0.0
H4395 H 0.60084 0.77248 0.29652 0.0
H4396 H 0.5466 0.81554 0.31234 0.0
H4397 H 0.50693 0.79302 0.3214 0.0
C4398 C 0.32041 0.73178 0.32005 0.0
C4399 C 0.29858 0.74779 0.32257 0.0
C4400 C 0.36534 0.73064 0.32068 0.0
C4401 C 0.38962 0.7454 0.32391 0.0
C4402 C 0.36797 0.76139 0.32644 0.0
C4403 C 0.32299 0.76255 0.32581 0.0
C4404 C 0.43758 0.74426 0.32444 0.0
C4405 C 0.46238 0.75738 0.31994 0.0
C4406 C 0.45889 0.72984 0.32892 0.0
C4407 C 0.43489 0.7161 0.33422 0.0
C4408 C 0.40654 0.72156 0.34104 0.0
C4409 C 0.38375 0.70856 0.34596 0.0
C4410 C 0.38925 0.69004 0.34415 0.0
C4411 C 0.41765 0.68448 0.33744 0.0
C4412 C 0.44049 0.69743 0.3325 0.0
C4413 C 0.64891 0.75164 0.32634 0.0
C4414 C 0.66747 0.73549 0.32304 0.0
C4415 C 0.60399 0.75363 0.32672 0.0
C4416 C 0.57668 0.73951 0.32383 0.0
C4417 C 0.59518 0.72326 0.32073 0.0
C4418 C 0.63995 0.72129 0.32031 0.0
C4419 C 0.52885 0.74159 0.32396 0.0
C4420 C 0.50409 0.72864 0.32857 0.0
C4421 C 0.50759 0.75613 0.31956 0.0
C4422 C 0.53144 0.76969 0.31414 0.0
C4423 C 0.55792 0.76405 0.30703 0.0
C4424 C 0.58039 0.7769 0.30196 0.0
C4425 C 0.57636 0.79544 0.30389 0.0
C4426 C 0.54976 0.80117 0.31087 0.0
C4427 C 0.52726 0.78837 0.31598 0.0
H4428 H 0.59376 0.80536 0.29995 0.0
H4429 H 0.37158 0.67999 0.34796 0.0
H4430 H 0.12662 0.0274 0.33198 0.0
H4431 H 0.20508 0.02546 0.33133 0.0
H4432 H 0.19581 0.98709 0.30959 0.0
H4433 H 0.11699 0.98859 0.31035 0.0
H4434 H 0.25561 0.9763 0.3216 0.0
H4435 H 0.22415 0.03146 0.30585 0.0
H4436 H 0.1918 0.06179 0.30361 0.0
H4437 H 0.26179 0.08236 0.32626 0.0
H4438 H 0.29413 0.05207 0.32871 0.0
H4439 H 0.47594 0.97994 0.30902 0.0
H4440 H 0.39748 0.98224 0.30903 0.0
H4441 H 0.40382 0.02149 0.33045 0.0
H4442 H 0.48259 0.01974 0.33027 0.0
H4443 H 0.34533 0.03179 0.31833 0.0
H4444 H 0.37581 0.97661 0.33426 0.0
H4445 H 0.40802 0.94629 0.33659 0.0
H4446 H 0.33974 0.92574 0.31371 0.0
H4447 H 0.30756 0.95603 0.31117 0.0
C4448 C 0.14113 0.0184 0.3271 0.0
C4449 C 0.11521 0.00812 0.32123 0.0
C4450 C 0.18617 0.01745 0.32668 0.0
C4451 C 0.20662 0.00628 0.32034 0.0
C4452 C 0.18092 -0.00414 0.31452 0.0
C4453 C 0.13578 -0.00316 0.31492 0.0
C4454 C 0.25474 0.00539 0.31987 0.0
C4455 C 0.27517 0.98841 0.32074 0.0
C4456 C 0.28055 0.02121 0.31898 0.0
C4457 C 0.26124 0.03945 0.31751 0.0
C4458 C 0.23238 0.04241 0.31039 0.0
C4459 C 0.21409 0.0596 0.30908 0.0
C4460 C 0.22465 0.07398 0.3148 0.0
C4461 C 0.2536 0.0712 0.32184 0.0
C4462 C 0.27195 0.05403 0.32319 0.0
C4463 C 0.46082 0.98926 0.31367 0.0
C4464 C 0.48593 -0.00035 0.31965 0.0
C4465 C 0.41574 0.9904 0.31374 0.0
C4466 C 0.39442 0.00185 0.31983 0.0
C4467 C 0.41934 0.01248 0.32571 0.0
C4468 C 0.46448 0.01135 0.32565 0.0
C4469 C 0.34624 0.0027 0.32008 0.0
C4470 C 0.32579 0.01967 0.31917 0.0
C4471 C 0.3204 0.98687 0.32095 0.0
C4472 C 0.33962 0.96864 0.32247 0.0
C4473 C 0.36793 0.96567 0.32968 0.0
C4474 C 0.38614 0.94848 0.33105 0.0
C4475 C 0.37602 0.93411 0.32528 0.0
C4476 C 0.34759 0.93689 0.31816 0.0
C4477 C 0.32933 0.95406 0.31676 0.0
H4478 H 0.39015 0.92081 0.32635 0.0
H4479 H 0.21046 0.08728 0.31378 0.0
H4480 H 0.21219 0.51728 0.56308 0.0
H4481 H 0.13416 0.51374 0.56396 0.0
H4482 H 0.15051 0.46211 0.57725 0.0
H4483 H 0.22896 0.46532 0.57615 0.0
H4484 H 0.0878 0.45986 0.56488 0.0
H4485 H 0.12104 0.50052 0.58889 0.0
H4486 H 0.15289 0.52763 0.59603 0.0
H4487 H 0.07711 0.56234 0.57908 0.0
H4488 H 0.04523 0.53542 0.57174 0.0
H4489 H 0.87019 0.45245 0.57982 0.0
H4490 H 0.94852 0.45498 0.57905 0.0
H4491 H 0.93634 0.50644 0.56543 0.0
H4492 H 0.85781 0.5039 0.56604 0.0
H4493 H 0.99714 0.50835 0.57826 0.0
H4494 H 0.96444 0.46745 0.55417 0.0
H4495 H 0.93287 0.44022 0.54708 0.0
H4496 H 1.0078 0.40578 0.56433 0.0
H4497 H 0.03937 0.43283 0.57161 0.0
C4498 C 0.19936 0.50506 0.56611 0.0
C4499 C 0.2272 0.49158 0.56953 0.0
C4500 C 0.15453 0.50314 0.5667 0.0
C4501 C 0.13613 0.48776 0.57078 0.0
C4502 C 0.16374 0.47416 0.57411 0.0
C4503 C 0.2087 0.47608 0.57354 0.0
C4504 C 0.08817 0.48589 0.5715 0.0
C4505 C 0.06808 0.47035 0.56793 0.0
C4506 C 0.06204 0.49971 0.5753 0.0
C4507 C 0.08106 0.51594 0.57971 0.0
C4508 C 0.11142 0.51393 0.58663 0.0
C4509 C 0.12943 0.52927 0.59072 0.0
C4510 C 0.11711 0.5467 0.58799 0.0
C4511 C 0.08666 0.54883 0.58118 0.0
C4512 C 0.06858 0.53353 0.57706 0.0
C4513 C 0.88397 0.46422 0.57654 0.0
C4514 C 0.85721 0.47791 0.57294 0.0
C4515 C 0.92899 0.46567 0.57613 0.0
C4516 C 0.94865 0.48081 0.57209 0.0
C4517 C 0.92214 0.49461 0.56859 0.0
C4518 C 0.87707 0.49316 0.56898 0.0
C4519 C 0.99673 0.48235 0.5716 0.0
C4520 C 0.01686 0.49784 0.57522 0.0
C4521 C 0.02287 0.46846 0.56787 0.0
C4522 C 1.00391 0.45217 0.5635 0.0
C4523 C 0.9739 0.45407 0.55651 0.0
C4524 C 0.95606 0.43867 0.55244 0.0
C4525 C 0.96822 0.42128 0.55527 0.0
C4526 C 0.99834 0.41926 0.56215 0.0
C4527 C 0.01624 0.43462 0.56625 0.0
H4528 H 0.95439 0.40937 0.55211 0.0
H4529 H 0.13109 0.55856 0.59117 0.0
H4530 H 0.41715 0.77755 0.58392 0.0
H4531 H 0.33899 0.77478 0.58279 0.0
H4532 H 0.35336 0.73622 0.56125 0.0
H4533 H 0.4319 0.73889 0.56237 0.0
H4534 H 0.28924 0.75939 0.55756 0.0
H4535 H 0.32735 0.72238 0.58266 0.0
H4536 H 0.36156 0.71526 0.59714 0.0
H4537 H 0.2863 0.75686 0.60989 0.0
H4538 H 0.25207 0.76441 0.59546 0.0
H4539 H 0.07279 0.72582 0.5594 0.0
H4540 H 0.1511 0.72915 0.55959 0.0
H4541 H 0.14093 0.76873 0.58078 0.0
H4542 H 0.06251 0.76571 0.58054 0.0
H4543 H 0.20306 0.7444 0.58448 0.0
H4544 H 0.16511 0.78135 0.5592 0.0
H4545 H 0.13089 0.78807 0.54467 0.0
H4546 H 0.20563 0.74593 0.53222 0.0
H4547 H 0.23989 0.73878 0.5467 0.0
C4548 C 0.40386 0.76833 0.57899 0.0
C4549 C 0.4312 0.7583 0.5733 0.0
C4550 C 0.35895 0.76678 0.57833 0.0
C4551 C 0.33994 0.75505 0.57203 0.0
C4552 C 0.36704 0.74535 0.56619 0.0
C4553 C 0.41207 0.74692 0.56682 0.0
C4554 C 0.29193 0.75289 0.57159 0.0
C4555 C 0.27052 0.75586 0.56342 0.0
C4556 C 0.26705 0.74861 0.57926 0.0
C4557 C 0.28745 0.74407 0.58796 0.0
C4558 C 0.31833 0.7301 0.58854 0.0
C4559 C 0.33769 0.72598 0.59674 0.0
C4560 C 0.32619 0.73564 0.60443 0.0
C4561 C 0.29522 0.74941 0.60393 0.0
C4562 C 0.2758 0.75361 0.59574 0.0
C4563 C 0.08699 0.73548 0.56401 0.0
C4564 C 0.06086 0.74551 0.56994 0.0
C4565 C 0.132 0.73732 0.56413 0.0
C4566 C 0.15223 0.74929 0.57016 0.0
C4567 C 0.12631 0.75935 0.57608 0.0
C4568 C 0.0813 0.75755 0.57595 0.0
C4569 C 0.20033 0.75102 0.57047 0.0
C4570 C 0.22178 0.74794 0.57861 0.0
C4571 C 0.2252 0.75512 0.56277 0.0
C4572 C 0.20474 0.75941 0.55406 0.0
C4573 C 0.17399 0.77342 0.55338 0.0
C4574 C 0.15464 0.77732 0.54515 0.0
C4575 C 0.16599 0.7674 0.53753 0.0
C4576 C 0.19682 0.75358 0.53813 0.0
C4577 C 0.21624 0.74961 0.54634 0.0
H4578 H 0.15097 0.77044 0.53117 0.0
H4579 H 0.34121 0.73242 0.61077 0.0
H4580 H 0.86777 0.74096 0.68208 0.0
H4581 H 0.94601 0.73901 0.68331 0.0
H4582 H 0.94492 0.78035 0.70379 0.0
H4583 H 0.86647 0.78286 0.70237 0.0
H4584 H 1.00953 0.78654 0.69235 0.0
H4585 H 0.96044 0.73496 0.70893 0.0
H4586 H 0.91916 0.70683 0.71165 0.0
H4587 H 0.98434 0.68057 0.68987 0.0
H4588 H 0.0256 0.70864 0.68693 0.0
H4589 H 0.23031 0.77067 0.70436 0.0
H4590 H 0.15164 0.77358 0.70493 0.0
H4591 H 0.13953 0.73288 0.68427 0.0
H4592 H 0.21769 0.72948 0.68389 0.0
H4593 H 0.0815 0.72697 0.69694 0.0
H4594 H 0.12854 0.77907 0.68004 0.0
H4595 H 0.17123 0.80695 0.67762 0.0
H4596 H 0.11046 0.83214 0.70024 0.0
H4597 H 0.06793 0.80428 0.70289 0.0
C4598 C 0.88403 0.74977 0.68681 0.0
C4599 C 0.86043 0.76208 0.69212 0.0
C4600 C 0.92895 0.7485 0.68757 0.0
C4601 C 0.95166 0.75937 0.69372 0.0
C4602 C 0.92831 0.77175 0.69901 0.0
C4603 C 0.88329 0.77303 0.69825 0.0
C4604 C 0.99968 0.75786 0.69455 0.0
C4605 C 0.02517 0.77355 0.69349 0.0
C4606 C 0.02051 0.74089 0.6959 0.0
C4607 C 0.99584 0.72397 0.69767 0.0
C4608 C 0.96574 0.72323 0.70468 0.0
C4609 C 0.94238 0.70729 0.70627 0.0
C4610 C 0.94905 0.69194 0.70092 0.0
C4611 C 0.97917 0.69248 0.69399 0.0
C4612 C 1.00259 0.7084 0.69237 0.0
C4613 C 0.21089 0.76223 0.69999 0.0
C4614 C 0.23059 0.74992 0.69404 0.0
C4615 C 0.16583 0.76402 0.70026 0.0
C4616 C 0.13938 0.7536 0.69457 0.0
C4617 C 0.159 0.74114 0.68872 0.0
C4618 C 0.2039 0.73935 0.68845 0.0
C4619 C 0.09133 0.75559 0.69462 0.0
C4620 C 0.06583 0.73998 0.69584 0.0
C4621 C 0.07057 0.77262 0.69343 0.0
C4622 C 0.09537 0.78952 0.69172 0.0
C4623 C 0.12446 0.79052 0.68453 0.0
C4624 C 0.14863 0.80632 0.68311 0.0
C4625 C 0.14365 0.82129 0.68879 0.0
C4626 C 0.11434 0.82052 0.69586 0.0
C4627 C 0.09019 0.80473 0.69732 0.0
H4628 H 0.16243 0.8335 0.68769 0.0
H4629 H 0.93093 0.6796 0.70216 0.0
H4630 H 0.07739 0.52595 0.68987 0.0
H4631 H 0.15553 0.52252 0.68937 0.0
H4632 H 0.14151 0.46412 0.68899 0.0
H4633 H 0.06302 0.46745 0.68944 0.0
H4634 H 0.20472 0.47351 0.70014 0.0
H4635 H 0.16842 0.48803 0.66998 0.0
H4636 H 0.13494 0.50545 0.65771 0.0
H4637 H 0.20935 0.55252 0.66492 0.0
H4638 H 0.24285 0.53545 0.67733 0.0
H4639 H 0.42021 0.45477 0.68538 0.0
H4640 H 0.342 0.45755 0.68621 0.0
H4641 H 0.35402 0.51522 0.69079 0.0
H4642 H 0.43244 0.51255 0.69044 0.0
H4643 H 0.29225 0.50571 0.67736 0.0
H4644 H 0.32834 0.49024 0.70766 0.0
H4645 H 0.36194 0.47196 0.7196 0.0
H4646 H 0.28787 0.42537 0.71154 0.0
H4647 H 0.25428 0.44332 0.69944 0.0
C4648 C 0.09075 0.51235 0.68956 0.0
C4649 C 0.06355 0.49699 0.68962 0.0
C4650 C 0.13563 0.51041 0.6893 0.0
C4651 C 0.1547 0.49306 0.68902 0.0
C4652 C 0.12775 0.47767 0.6892 0.0
C4653 C 0.08276 0.4796 0.68947 0.0
C4654 C 0.20267 0.49104 0.6886 0.0
C4655 C 0.22371 0.48035 0.69507 0.0
C4656 C 0.22788 0.50018 0.68209 0.0
C4657 C 0.20782 0.51051 0.67464 0.0
C4658 C 0.17738 0.50214 0.669 0.0
C4659 C 0.15845 0.51194 0.66201 0.0
C4660 C 0.16992 0.53009 0.66055 0.0
C4661 C 0.20044 0.53847 0.66607 0.0
C4662 C 0.21944 0.52873 0.67308 0.0
C4663 C 0.40659 0.46805 0.68675 0.0
C4664 C 0.43336 0.48341 0.68788 0.0
C4665 C 0.3616 0.4696 0.68715 0.0
C4666 C 0.34202 0.48658 0.68858 0.0
C4667 C 0.36835 0.50198 0.68963 0.0
C4668 C 0.41338 0.50041 0.68937 0.0
C4669 C 0.29409 0.48827 0.68891 0.0
C4670 C 0.27314 0.49888 0.68241 0.0
C4671 C 0.26897 0.47891 0.69533 0.0
C4672 C 0.28917 0.46807 0.70258 0.0
C4673 C 0.31954 0.47605 0.70837 0.0
C4674 C 0.33851 0.46576 0.71518 0.0
C4675 C 0.32715 0.44749 0.71631 0.0
C4676 C 0.2967 0.43951 0.71064 0.0
C4677 C 0.27767 0.44974 0.70381 0.0
H4678 H 0.34185 0.43955 0.72159 0.0
H4679 H 0.15524 0.53766 0.65514 0.0
H4680 H 0.81676 0.47884 0.45395 0.0
H4681 H 0.89488 0.48228 0.45322 0.0
H4682 H 0.88167 0.51599 0.42978 0.0
H4683 H 0.80324 0.51267 0.43048 0.0
H4684 H 0.94574 0.49248 0.42747 0.0
H4685 H 0.90601 0.53417 0.45062 0.0
H4686 H 0.87132 0.54401 0.46464 0.0
H4687 H 0.94725 0.50552 0.47945 0.0
H4688 H 0.98199 0.49526 0.46549 0.0
H4689 H 0.15895 0.528 0.42749 0.0
H4690 H 0.08085 0.52489 0.42847 0.0
H4691 H 0.09519 0.48816 0.45074 0.0
H4692 H 0.17365 0.4908 0.44969 0.0
H4693 H 0.03088 0.51324 0.45368 0.0
H4694 H 0.07074 0.47179 0.43034 0.0
H4695 H 0.10582 0.46255 0.41626 0.0
H4696 H 0.02959 0.50139 0.40174 0.0
H4697 H 0.9945 0.51107 0.41576 0.0
C4698 C 0.83028 0.4872 0.44869 0.0
C4699 C 0.80331 0.49559 0.44231 0.0
C4700 C 0.87518 0.48913 0.44827 0.0
C4701 C 0.89449 0.49961 0.44151 0.0
C4702 C 0.86776 0.50783 0.43507 0.0
C4703 C 0.82278 0.50588 0.43547 0.0
C4704 C 0.94248 0.5018 0.44112 0.0
C4705 C 0.9642 0.49728 0.43317 0.0
C4706 C 0.96706 0.50767 0.44859 0.0
C4707 C 0.94629 0.51382 0.457 0.0
C4708 C 0.91507 0.5277 0.45686 0.0
C4709 C 0.89543 0.53337 0.46479 0.0
C4710 C 0.90699 0.52536 0.47292 0.0
C4711 C 0.93829 0.51169 0.47314 0.0
C4712 C 0.95799 0.50595 0.46522 0.0
C4713 C 0.14576 0.51905 0.43255 0.0
C4714 C 0.17313 0.50952 0.43846 0.0
C4715 C 0.10086 0.51736 0.43312 0.0
C4716 C 0.0819 0.50613 0.43962 0.0
C4717 C 0.10892 0.49692 0.44567 0.0
C4718 C 0.15393 0.49852 0.44507 0.0
C4719 C 0.03399 0.50394 0.44004 0.0
C4720 C 1.01234 0.50845 0.44799 0.0
C4721 C 1.00945 0.49814 0.43256 0.0
C4722 C 0.0303 0.49228 0.42411 0.0
C4723 C 0.0617 0.47847 0.42415 0.0
C4724 C 0.08155 0.47314 0.41618 0.0
C4725 C 0.07003 0.48141 0.40812 0.0
C4726 C 0.03853 0.49501 0.408 0.0
C4727 C 0.01863 0.50042 0.41595 0.0
H4728 H 0.08543 0.47727 0.40195 0.0
H4729 H 0.89176 0.52978 0.47906 0.0
H4730 H 0.97654 0.21361 0.44507 0.0
H4731 H 0.89809 0.21047 0.44495 0.0
H4732 H 0.88548 0.26658 0.4369 0.0
H4733 H 0.96367 0.27003 0.43734 0.0
H4734 H 0.82863 0.25922 0.44948 0.0
H4735 H 0.87109 0.23044 0.42201 0.0
H4736 H 0.91129 0.20873 0.4126 0.0
H4737 H 0.85489 0.16394 0.42684 0.0
H4738 H 0.81477 0.1854 0.43642 0.0
H4739 H 0.60999 0.25813 0.43533 0.0
H4740 H 0.68851 0.26013 0.43603 0.0
H4741 H 0.69514 0.20418 0.44464 0.0
H4742 H 0.61658 0.20191 0.4437 0.0
H4743 H 0.75494 0.21073 0.43215 0.0
H4744 H 0.71116 0.23954 0.45939 0.0
H4745 H 0.671 0.26126 0.46879 0.0
H4746 H 0.72995 0.30603 0.45499 0.0
H4747 H 0.77005 0.28456 0.44542 0.0
C4748 C 0.95714 0.22533 0.44332 0.0
C4749 C 0.97678 0.24206 0.44117 0.0
C4750 C 0.91215 0.22346 0.44317 0.0
C4751 C 0.88559 0.23822 0.44081 0.0
C4752 C 0.90508 0.25495 0.43871 0.0
C4753 C 0.95 0.25684 0.43888 0.0
C4754 C 0.83755 0.23639 0.44063 0.0
C4755 C 0.81257 0.24875 0.4456 0.0
C4756 C 0.8163 0.22246 0.43576 0.0
C4757 C 0.84028 0.20953 0.42999 0.0
C4758 C 0.86752 0.21596 0.42318 0.0
C4759 C 0.89024 0.2037 0.41781 0.0
C4760 C 0.88574 0.18497 0.41914 0.0
C4761 C 0.8584 0.17846 0.42583 0.0
C4762 C 0.83563 0.19066 0.43123 0.0
C4763 C 0.62807 0.24619 0.43733 0.0
C4764 C 0.60668 0.22985 0.43947 0.0
C4765 C 0.67309 0.24742 0.43781 0.0
C4766 C 0.69799 0.23237 0.44048 0.0
C4767 C 0.67679 0.21602 0.44259 0.0
C4768 C 0.63173 0.21479 0.44213 0.0
C4769 C 0.74606 0.23364 0.44095 0.0
C4770 C 0.77103 0.22118 0.43605 0.0
C4771 C 0.76732 0.24748 0.44588 0.0
C4772 C 0.74329 0.26043 0.45163 0.0
C4773 C 0.7153 0.25401 0.45831 0.0
C4774 C 0.69259 0.26628 0.46368 0.0
C4775 C 0.69783 0.28502 0.46247 0.0
C4776 C 0.72588 0.29152 0.45591 0.0
C4777 C 0.74864 0.2793 0.45052 0.0
H4778 H 0.68023 0.29449 0.46664 0.0
H4779 H 0.90336 0.1755 0.41497 0.0
H4780 H 0.1614 0.22782 0.33567 0.0
H4781 H 0.0829 0.22981 0.33528 0.0
H4782 H 0.0876 0.24411 0.30733 0.0
H4783 H 0.16639 0.24275 0.30774 0.0
H4784 H 0.02986 0.26483 0.3158 0.0
H4785 H 0.05948 0.20089 0.31428 0.0
H4786 H 0.09166 0.17177 0.31905 0.0
H4787 H 0.02524 0.17536 0.34416 0.0
H4788 H 0.99311 0.20465 0.33959 0.0
H4789 H 0.80879 0.24943 0.30601 0.0
H4790 H 0.88732 0.24738 0.30641 0.0
H4791 H 0.88261 0.23418 0.33449 0.0
H4792 H 0.80379 0.23573 0.33408 0.0
H4793 H 0.94025 0.21289 0.32595 0.0
H4794 H 0.91059 0.27687 0.3274 0.0
H4795 H 0.87823 0.30591 0.32255 0.0
H4796 H 0.94464 0.30209 0.29745 0.0
H4797 H 0.97694 0.27289 0.3021 0.0
C4798 C 0.14591 0.23162 0.32945 0.0
C4799 C 0.17056 0.23512 0.32173 0.0
C4800 C 0.10081 0.23254 0.32921 0.0
C4801 C 0.07902 0.23686 0.32124 0.0
C4802 C 0.10349 0.24066 0.31356 0.0
C4803 C 0.14864 0.23973 0.31379 0.0
C4804 C 0.03082 0.23744 0.32093 0.0
C4805 C 1.01033 0.25336 0.3179 0.0
C4806 C 1.00502 0.22267 0.32386 0.0
C4807 C 0.02424 0.20506 0.32663 0.0
C4808 C 0.05201 0.19554 0.32085 0.0
C4809 C 0.07019 0.17899 0.32351 0.0
C4810 C 0.06059 0.17174 0.33192 0.0
C4811 C 0.0327 0.18101 0.33766 0.0
C4812 C 1.01447 0.19758 0.33503 0.0
C4813 C 0.82431 0.24587 0.31226 0.0
C4814 C 0.79968 0.24275 0.32002 0.0
C4815 C 0.86939 0.2449 0.3125 0.0
C4816 C 0.89116 0.24086 0.32051 0.0
C4817 C 0.86671 0.23741 0.32823 0.0
C4818 C 0.82157 0.23843 0.328 0.0
C4819 C 0.93934 0.24026 0.32082 0.0
C4820 C 0.9598 0.22435 0.32385 0.0
C4821 C 0.96512 0.25502 0.31788 0.0
C4822 C 0.94584 0.2726 0.31507 0.0
C4823 C 0.91802 0.28215 0.32082 0.0
C4824 C 0.89974 0.29865 0.31811 0.0
C4825 C 0.90928 0.30582 0.30969 0.0
C4826 C 0.93723 0.29652 0.30397 0.0
C4827 C 0.95556 0.28 0.30664 0.0
H4828 H 0.8951 0.3186 0.3076 0.0
H4829 H 0.07469 0.15893 0.33397 0.0
H4830 H 0.97111 0.49342 0.33465 0.0
H4831 H 0.89253 0.49566 0.33479 0.0
H4832 H 0.89197 0.50293 0.30618 0.0
H4833 H 0.97056 0.50061 0.30597 0.0
H4834 H 0.83601 0.52584 0.3138 0.0
H4835 H 0.865 0.46169 0.31606 0.0
H4836 H 0.89801 0.43415 0.32255 0.0
H4837 H 0.83542 0.44486 0.3476 0.0
H4838 H 0.80249 0.47262 0.34129 0.0
H4839 H 0.61239 0.51095 0.30666 0.0
H4840 H 0.69101 0.50877 0.3065 0.0
H4841 H 0.69104 0.49793 0.33485 0.0
H4842 H 0.61231 0.49974 0.335 0.0
H4843 H 0.74763 0.47692 0.3274 0.0
H4844 H 0.71881 0.54092 0.32542 0.0
H4845 H 0.68627 0.56882 0.3192 0.0
H4846 H 0.74882 0.559 0.29406 0.0
H4847 H 0.78128 0.5309 0.30009 0.0
C4848 C 0.95437 0.49538 0.32836 0.0
C4849 C 0.97756 0.49673 0.32029 0.0
C4850 C 0.90925 0.49667 0.32845 0.0
C4851 C 0.88592 0.49921 0.32048 0.0
C4852 C 0.90899 0.50098 0.31244 0.0
C4853 C 0.95413 0.49971 0.31234 0.0
C4854 C 0.8376 0.49992 0.3205 0.0
C4855 C 0.81671 0.51502 0.31667 0.0
C4856 C 0.81208 0.48606 0.32443 0.0
C4857 C 0.83161 0.46932 0.32822 0.0
C4858 C 0.85852 0.45824 0.32297 0.0
C4859 C 0.87717 0.44258 0.32661 0.0
C4860 C 0.8689 0.43778 0.33549 0.0
C4861 C 0.84184 0.44861 0.34073 0.0
C4862 C 0.82314 0.46429 0.33712 0.0
C4863 C 0.62911 0.50815 0.31287 0.0
C4864 C 0.60581 0.50559 0.32085 0.0
C4865 C 0.67425 0.50696 0.31278 0.0
C4866 C 0.69749 0.50351 0.3207 0.0
C4867 C 0.6742 0.50062 0.32864 0.0
C4868 C 0.62902 0.50162 0.32871 0.0
C4869 C 0.74589 0.50287 0.32071 0.0
C4870 C 0.76684 0.48777 0.32453 0.0
C4871 C 0.77147 0.51678 0.31681 0.0
C4872 C 0.75213 0.53371 0.31318 0.0
C4873 C 0.72538 0.54464 0.31854 0.0
C4874 C 0.70699 0.5605 0.31505 0.0
C4875 C 0.71538 0.56566 0.30623 0.0
C4876 C 0.74229 0.55498 0.30089 0.0
C4877 C 0.76072 0.53909 0.30434 0.0
H4878 H 0.70111 0.57794 0.30354 0.0
H4879 H 0.88338 0.42566 0.3383 0.0
H4880 H 0.86966 -0.00444 0.06112 0.0
H4881 H 0.94799 -0.00187 0.05978 0.0
H4882 H 0.96393 0.96467 0.08325 0.0
H4883 H 0.8858 0.96192 0.0846 0.0
H4884 H 0.01593 0.99364 0.08404 0.0
H4885 H 0.9826 0.94779 0.06223 0.0
H4886 H 0.94533 0.93471 0.04914 0.0
H4887 H 0.9955 0.97735 0.03251 0.0
H4888 H 0.03261 0.99084 0.04554 0.0
H4889 H 0.24046 0.9757 0.07937 0.0
H4890 H 0.16215 0.97278 0.08057 0.0
H4891 H 0.14633 0.00621 0.05709 0.0
H4892 H 0.22445 0.00931 0.05588 0.0
H4893 H 0.09429 0.97723 0.05629 0.0
H4894 H 0.12743 0.02313 0.07808 0.0
H4895 H 0.1647 0.03627 0.09115 0.0
H4896 H 0.11482 0.99361 0.10781 0.0
H4897 H 0.0777 0.98007 0.0948 0.0
C4898 C 0.8898 0.98856 0.06594 0.0
C4899 C 0.87126 0.97854 0.07298 0.0
C4900 C 0.93465 0.99008 0.06518 0.0
C4901 C 0.96201 0.98149 0.07138 0.0
C4902 C 0.94359 0.97149 0.0784 0.0
C4903 C 0.89882 0.96998 0.07918 0.0
C4904 C 1.00978 0.9831 0.07065 0.0
C4905 C 0.03309 0.98982 0.07801 0.0
C4906 C 0.03224 0.97852 0.06272 0.0
C4907 C 1.01002 0.97042 0.05488 0.0
C4908 C 0.9854 0.95446 0.0558 0.0
C4909 C 0.96436 0.94696 0.04839 0.0
C4910 C 0.96795 0.95522 0.04001 0.0
C4911 C 0.9927 0.97098 0.03901 0.0
C4912 C 1.01377 0.97855 0.0464 0.0
C4913 C 0.22035 0.98259 0.07451 0.0
C4914 C 0.23893 0.99275 0.06753 0.0
C4915 C 0.17551 0.98087 0.0752 0.0
C4916 C 0.14819 0.98939 0.06896 0.0
C4917 C 0.16665 -0.00055 0.06197 0.0
C4918 C 0.21142 0.00116 0.06127 0.0
C4919 C 0.10043 0.98776 0.06968 0.0
C4920 C 0.07711 0.98105 0.06232 0.0
C4921 C 0.07796 0.99235 0.07761 0.0
C4922 C 0.10015 0.00049 0.08544 0.0
C4923 C 0.12468 0.01647 0.08451 0.0
C4924 C 0.14573 0.024 0.09191 0.0
C4925 C 0.14222 0.01575 0.1003 0.0
C4926 C 0.11756 -3e-05 0.1013 0.0
C4927 C 0.09648 0.99237 0.09392 0.0
H4928 H 0.15854 0.02161 0.10602 0.0
H4929 H 0.95164 0.94939 0.03428 0.0
H4930 H 0.06313 0.23675 0.05525 0.0
H4931 H 0.14158 0.23932 0.05548 0.0
H4932 H 0.13693 0.25754 0.08287 0.0
H4933 H 0.0582 0.25555 0.08261 0.0
H4934 H 0.19409 0.27732 0.07366 0.0
H4935 H 0.16614 0.21354 0.07736 0.0
H4936 H 0.1346 0.18372 0.07352 0.0
H4937 H 0.20091 0.18422 0.04834 0.0
H4938 H 0.2324 0.21418 0.05197 0.0
H4939 H 0.41544 0.26473 0.0841 0.0
H4940 H 0.33699 0.26254 0.08366 0.0
H4941 H 0.34293 0.24383 0.05635 0.0
H4942 H 0.4217 0.2454 0.05684 0.0
H4943 H 0.28507 0.2244 0.0654 0.0
H4944 H 0.31341 0.28804 0.0617 0.0
H4945 H 0.3448 0.31791 0.06547 0.0
H4946 H 0.27771 0.31778 0.09057 0.0
H4947 H 0.24636 0.28776 0.087 0.0
C4948 C 0.07861 0.24153 0.0613 0.0
C4949 C 0.05396 0.24591 0.06892 0.0
C4950 C 0.12371 0.2428 0.06146 0.0
C4951 C 0.14555 0.24838 0.06924 0.0
C4952 C 0.12106 0.2531 0.07679 0.0
C4953 C 0.07592 0.25182 0.07665 0.0
C4954 C 0.19381 0.24926 0.0695 0.0
C4955 C 0.21392 0.26565 0.07197 0.0
C4956 C 0.22005 0.23422 0.06709 0.0
C4957 C 0.20129 0.21618 0.0649 0.0
C4958 C 0.17374 0.20736 0.07097 0.0
C4959 C 0.15591 0.19042 0.06884 0.0
C4960 C 0.16566 0.1821 0.06068 0.0
C4961 C 0.19335 0.19069 0.05465 0.0
C4962 C 0.21122 0.20764 0.05674 0.0
C4963 C 0.40025 0.25994 0.07802 0.0
C4964 C 0.4253 0.25525 0.0705 0.0
C4965 C 0.35514 0.25889 0.07774 0.0
C4966 C 0.33365 0.25326 0.06993 0.0
C4967 C 0.35852 0.24831 0.06246 0.0
C4968 C 0.40369 0.24935 0.06273 0.0
C4969 C 0.28538 0.25246 0.06957 0.0
C4970 C 0.26526 0.23607 0.06709 0.0
C4971 C 0.25914 0.26751 0.07196 0.0
C4972 C 0.27788 0.28557 0.07412 0.0
C4973 C 0.30562 0.29431 0.06806 0.0
C4974 C 0.32336 0.31128 0.07015 0.0
C4975 C 0.31335 0.31972 0.07827 0.0
C4976 C 0.28549 0.31121 0.08429 0.0
C4977 C 0.2677 0.29423 0.08223 0.0
H4978 H 0.32711 0.33286 0.07988 0.0
H4979 H 0.15183 0.16899 0.05904 0.0
H4980 H 0.87426 0.26261 0.17516 0.0
H4981 H 0.95257 0.2602 0.17602 0.0
H4982 H 0.94506 0.25507 0.2047 0.0
H4983 H 0.86641 0.25735 0.2039 0.0
H4984 H 1.00975 0.27754 0.20015 0.0
H4985 H 0.96462 0.21788 0.19132 0.0
H4986 H 0.92625 0.19511 0.18217 0.0
H4987 H 0.99705 0.21198 0.15896 0.0
H4988 H 0.03544 0.23504 0.16795 0.0
H4989 H 0.22665 0.24612 0.20588 0.0
H4990 H 0.14828 0.24956 0.20579 0.0
H4991 H 0.14977 0.25431 0.17705 0.0
H4992 H 0.22811 0.25099 0.17709 0.0
H4993 H 0.08785 0.23157 0.18206 0.0
H4994 H 0.13243 0.29153 0.19093 0.0
H4995 H 0.17079 0.3142 0.20014 0.0
H4996 H 0.10125 0.29656 0.22338 0.0
H4997 H 0.06287 0.2736 0.21432 0.0
C4998 C 0.88906 0.26076 0.18166 0.0
C4999 C 0.86363 0.26001 0.18945 0.0
C5000 C 0.93405 0.25943 0.18214 0.0
C5001 C 0.95498 0.25719 0.19041 0.0
C5002 C 0.92984 0.25677 0.19823 0.0
C5003 C 0.88475 0.25813 0.19776 0.0
C5004 C 1.00299 0.25529 0.19088 0.0
C5005 C 0.02674 0.26731 0.19629 0.0
C5006 C 0.02554 0.24219 0.18572 0.0
C5007 C 1.00261 0.22831 0.18029 0.0
C5008 C 0.97178 0.21683 0.18425 0.0
C5009 C 0.95006 0.20386 0.17909 0.0
C5010 C 0.95913 0.20213 0.16998 0.0
C5011 C 0.99002 0.21335 0.16601 0.0
C5012 C 1.01179 0.22636 0.17114 0.0
C5013 C 0.21047 0.24818 0.19954 0.0
C5014 C 0.23402 0.24826 0.19149 0.0
C5015 C 0.16547 0.25011 0.1995 0.0
C5016 C 0.14282 0.25232 0.19141 0.0
C5017 C 0.16627 0.25254 0.18338 0.0
C5018 C 0.21121 0.2506 0.18342 0.0
C5019 C 0.0947 0.25392 0.19128 0.0
C5020 C 0.07089 0.24181 0.18593 0.0
C5021 C 0.07215 0.26691 0.19651 0.0
C5022 C 0.0951 0.28072 0.20196 0.0
C5023 C 0.12556 0.29239 0.19802 0.0
C5024 C 0.14727 0.30531 0.20321 0.0
C5025 C 0.13855 0.30679 0.21235 0.0
C5026 C 0.10802 0.29538 0.2163 0.0
C5027 C 0.08626 0.28242 0.21114 0.0
H5028 H 0.15538 0.3168 0.21635 0.0
H5029 H 0.94229 0.19208 0.166 0.0
H5030 H 0.41761 0.99374 0.2019 0.0
H5031 H 0.339 -0.00447 0.20282 0.0
H5032 H 0.3281 0.96706 0.17769 0.0
H5033 H 0.4065 0.96512 0.17674 0.0
H5034 H 0.27465 -0.00456 0.17798 0.0
H5035 H 0.30718 0.94584 0.19777 0.0
H5036 H 0.34321 0.93064 0.21044 0.0
H5037 H 0.2884 0.96952 0.22862 0.0
H5038 H 0.25249 0.98511 0.21603 0.0
H5039 H 0.05013 0.97602 0.18011 0.0
H5040 H 0.12864 0.9733 0.17939 0.0
H5041 H 0.13986 0.0014 0.20462 0.0
H5042 H 0.06155 0.0042 0.20538 0.0
H5043 H 0.19315 0.97309 0.20429 0.0
H5044 H 0.16109 0.02282 0.18456 0.0
H5045 H 0.12511 0.03817 0.17192 0.0
H5046 H 0.17917 -0.00076 0.15368 0.0
H5047 H 0.21502 0.9835 0.16623 0.0
C5048 C 0.39852 0.98768 0.19661 0.0
C5049 C 0.41859 0.9793 0.18924 0.0
C5050 C 0.35349 0.98874 0.19714 0.0
C5051 C 0.32743 0.98131 0.19036 0.0
C5052 C 0.34738 0.97297 0.18299 0.0
C5053 C 0.39233 0.97193 0.18245 0.0
C5054 C 0.27944 0.9824 0.19085 0.0
C5055 C 0.25683 0.99031 0.18369 0.0
C5056 C 0.25604 0.97612 0.19837 0.0
C5057 C 0.27751 0.96675 0.20595 0.0
C5058 C 0.30309 0.95123 0.20446 0.0
C5059 C 0.32344 0.94253 0.21163 0.0
C5060 C 0.3182 0.94914 0.22033 0.0
C5061 C 0.29249 0.96443 0.22187 0.0
C5062 C 0.2721 0.9732 0.21473 0.0
C5063 C 0.06929 0.98173 0.18548 0.0
C5064 C 0.04933 0.99034 0.1928 0.0
C5065 C 0.11425 0.98015 0.18507 0.0
C5066 C 0.14039 0.98731 0.19191 0.0
C5067 C 0.12053 -0.00429 0.19927 0.0
C5068 C 0.07562 -0.00275 0.1997 0.0
C5069 C 0.18836 0.98611 0.19142 0.0
C5070 C 0.21098 0.97819 0.19858 0.0
C5071 C 0.21178 0.9924 0.1839 0.0
C5072 C 0.19038 0.00188 0.17634 0.0
C5073 C 0.16504 0.01745 0.17786 0.0
C5074 C 0.14472 0.02623 0.17071 0.0
C5075 C 0.14976 0.01965 0.16201 0.0
C5076 C 0.17524 0.0043 0.16043 0.0
C5077 C 0.1956 -0.00455 0.16755 0.0
H5078 H 0.134 0.02647 0.15648 0.0
H5079 H 0.33397 0.94238 0.22587 0.0
H5080 H 0.81164 0.96723 0.94683 0.0
H5081 H 0.8896 0.97054 0.94559 0.0
H5082 H 0.87377 0.0269 0.93821 0.0
H5083 H 0.79551 0.02349 0.93904 0.0
H5084 H 0.93395 0.01157 0.92811 0.0
H5085 H 0.90493 0.01408 0.95958 0.0
H5086 H 0.87504 0.00343 0.97392 0.0
H5087 H 0.95081 0.95464 0.97218 0.0
H5088 H 0.98074 0.96489 0.95776 0.0
H5089 H 0.15092 0.0387 0.93553 0.0
H5090 H 0.07272 0.03538 0.93639 0.0
H5091 H 0.08773 0.97871 0.94326 0.0
H5092 H 0.16609 0.98208 0.94273 0.0
H5093 H 0.02801 0.99434 0.9536 0.0
H5094 H 0.05727 0.99213 0.92209 0.0
H5095 H 0.08731 0.00309 0.90782 0.0
H5096 H 1.01116 0.05174 0.90974 0.0
H5097 H 0.9811 0.04118 0.92409 0.0
C5098 C 0.82457 0.98028 0.94481 0.0
C5099 C 0.79702 0.9951 0.94305 0.0
C5100 C 0.86933 0.98221 0.94422 0.0
C5101 C 0.88778 -0.00094 0.94195 0.0
C5102 C 0.86042 0.01379 0.94002 0.0
C5103 C 0.8156 0.01185 0.94058 0.0
C5104 C 0.93554 0.0013 0.9416 0.0
C5105 C 0.95443 0.00803 0.93374 0.0
C5106 C 0.96255 -0.00366 0.94885 0.0
C5107 C 0.94476 0.99018 0.95755 0.0
C5108 C 0.91498 0.00102 0.96222 0.0
C5109 C 0.89807 0.99506 0.97037 0.0
C5110 C 0.91094 0.97835 0.97395 0.0
C5111 C 0.94084 0.96758 0.96939 0.0
C5112 C 0.95782 0.97346 0.96124 0.0
C5113 C 0.13768 0.02556 0.93731 0.0
C5114 C 0.16499 0.01066 0.93905 0.0
C5115 C 0.09285 0.02363 0.93771 0.0
C5116 C 0.07417 0.00673 0.93978 0.0
C5117 C 0.10129 0.99188 0.94161 0.0
C5118 C 0.14615 0.99379 0.94123 0.0
C5119 C 0.0264 0.00457 0.94011 0.0
C5120 C 1.00751 -0.00213 0.94798 0.0
C5121 C 0.99941 0.00961 0.93287 0.0
C5122 C 0.01725 0.01594 0.92421 0.0
C5123 C 0.04717 0.00522 0.9195 0.0
C5124 C 0.06416 0.01136 0.91139 0.0
C5125 C 0.05123 0.02812 0.90788 0.0
C5126 C 0.02119 0.03877 0.91247 0.0
C5127 C 1.00413 0.03271 0.92059 0.0
H5128 H 0.06443 0.03285 0.9016 0.0
H5129 H 0.8978 0.97376 0.98026 0.0
H5130 H 0.9678 0.774 0.93478 0.0
H5131 H 0.88942 0.77159 0.9336 0.0
H5132 H 0.89382 0.71903 0.9464 0.0
H5133 H 0.97236 0.72108 0.94736 0.0
H5134 H 0.83805 0.7186 0.93272 0.0
H5135 H 0.86447 0.75739 0.95797 0.0
H5136 H 0.89525 0.78374 0.96596 0.0
H5137 H 0.82873 0.8202 0.94824 0.0
H5138 H 0.79801 0.79404 0.94006 0.0
H5139 H 0.61931 0.71081 0.94564 0.0
H5140 H 0.69766 0.71374 0.94562 0.0
H5141 H 0.68698 0.76562 0.93232 0.0
H5142 H 0.60825 0.76301 0.93252 0.0
H5143 H 0.74573 0.76694 0.94575 0.0
H5144 H 0.71724 0.72775 0.92082 0.0
H5145 H 0.68615 0.70118 0.91306 0.0
H5146 H 0.75636 0.66521 0.93041 0.0
H5147 H 0.78741 0.69158 0.93836 0.0
C5148 C 0.95221 0.7618 0.93724 0.0
C5149 C 0.97653 0.74777 0.9412 0.0
C5150 C 0.90726 0.76053 0.93664 0.0
C5151 C 0.88549 0.74524 0.94003 0.0
C5152 C 0.90975 0.73101 0.94378 0.0
C5153 C 0.95469 0.73227 0.94439 0.0
C5154 C 0.83747 0.74417 0.93977 0.0
C5155 C 0.81791 0.72908 0.93566 0.0
C5156 C 0.81097 0.75801 0.94343 0.0
C5157 C 0.82932 0.77376 0.94834 0.0
C5158 C 0.85669 0.77103 0.95573 0.0
C5159 C 0.87407 0.78593 0.9603 0.0
C5160 C 0.86405 0.80364 0.95759 0.0
C5161 C 0.83652 0.80648 0.95032 0.0
C5162 C 0.81909 0.79162 0.94572 0.0
C5163 C 0.6335 0.72295 0.94278 0.0
C5164 C 0.6073 0.73669 0.93909 0.0
C5165 C 0.67843 0.72451 0.9427 0.0
C5166 C 0.69839 0.7398 0.93888 0.0
C5167 C 0.6724 0.75365 0.93527 0.0
C5168 C 0.62736 0.75208 0.93533 0.0
C5169 C 0.74633 0.74134 0.93872 0.0
C5170 C 0.76588 0.75651 0.94277 0.0
C5171 C 0.77282 0.72754 0.93503 0.0
C5172 C 0.75434 0.71165 0.93024 0.0
C5173 C 0.72579 0.71418 0.92303 0.0
C5174 C 0.70822 0.69915 0.91859 0.0
C5175 C 0.71919 0.68152 0.92125 0.0
C5176 C 0.74785 0.67888 0.92835 0.0
C5177 C 0.76548 0.69386 0.93282 0.0
H5178 H 0.70556 0.6699 0.91781 0.0
H5179 H 0.87754 0.81515 0.96114 0.0
H5180 H 0.15622 0.70685 0.81557 0.0
H5181 H 0.07766 0.70876 0.81473 0.0
H5182 H 0.07971 0.75589 0.83194 0.0
H5183 H 0.15826 0.75405 0.83282 0.0
H5184 H 0.01821 0.73335 0.83713 0.0
H5185 H 0.06099 0.75906 0.809 0.0
H5186 H 0.09862 0.75989 0.79449 0.0
H5187 H 0.02968 0.71227 0.78593 0.0
H5188 H 0.99204 0.71102 0.80044 0.0
H5189 H 0.80291 0.76321 0.82994 0.0
H5190 H 0.88125 0.76036 0.83072 0.0
H5191 H 0.87581 0.71322 0.81355 0.0
H5192 H 0.79731 0.71602 0.81272 0.0
H5193 H 0.93888 0.73514 0.80832 0.0
H5194 H 0.89531 0.70971 0.8364 0.0
H5195 H 0.85751 0.70901 0.85089 0.0
H5196 H 0.92789 0.75616 0.85956 0.0
H5197 H 0.96571 0.7573 0.84507 0.0
C5198 C 0.14007 0.71778 0.81909 0.0
C5199 C 0.16381 0.73031 0.82425 0.0
C5200 C 0.095 0.71884 0.81861 0.0
C5201 C 0.0725 0.73258 0.82321 0.0
C5202 C 0.09613 0.74512 0.82835 0.0
C5203 C 0.14115 0.74402 0.82886 0.0
C5204 C 0.02439 0.73372 0.82279 0.0
C5205 C 1.00095 0.73399 0.83083 0.0
C5206 C 1.00151 0.73409 0.81458 0.0
C5207 C 0.02402 0.73484 0.80584 0.0
C5208 C 0.0541 0.74869 0.80405 0.0
C5209 C 0.07538 0.74925 0.79582 0.0
C5210 C 0.06663 0.73612 0.7893 0.0
C5211 C 0.03647 0.72242 0.79099 0.0
C5212 C 1.01513 0.72179 0.79921 0.0
C5213 C 0.81824 0.75206 0.82643 0.0
C5214 C 0.79358 0.7398 0.8213 0.0
C5215 C 0.86319 0.75046 0.82687 0.0
C5216 C 0.88469 0.73645 0.82227 0.0
C5217 C 0.86016 0.72418 0.81715 0.0
C5218 C 0.81519 0.72581 0.81668 0.0
C5219 C 0.93272 0.73483 0.82267 0.0
C5220 C 0.95614 0.73447 0.81463 0.0
C5221 C 0.9556 0.73439 0.83088 0.0
C5222 C 0.93305 0.73369 0.83961 0.0
C5223 C 0.9025 0.72001 0.84137 0.0
C5224 C 0.8811 0.71952 0.84959 0.0
C5225 C 0.89022 0.73256 0.85613 0.0
C5226 C 0.92083 0.74609 0.85448 0.0
C5227 C 0.94228 0.74665 0.84627 0.0
H5228 H 0.87362 0.73216 0.86249 0.0
H5229 H 0.08314 0.73658 0.78294 0.0
H5230 H 0.61396 0.99382 0.81141 0.0
H5231 H 0.69257 0.99247 0.81082 0.0
H5232 H 0.70021 0.02115 0.83594 0.0
H5233 H 0.62174 0.02328 0.83638 0.0
H5234 H 0.75933 0.03402 0.82507 0.0
H5235 H 0.71683 0.97412 0.83421 0.0
H5236 H 0.67735 0.94505 0.83321 0.0
H5237 H 0.73664 0.93383 0.80787 0.0
H5238 H 0.77606 0.96296 0.80866 0.0
H5239 H 0.98019 0.01349 0.83433 0.0
H5240 H 0.90151 0.0156 0.83494 0.0
H5241 H 0.89249 0.98885 0.80932 0.0
H5242 H 0.97089 0.9862 0.8088 0.0
H5243 H 0.83431 0.97509 0.82058 0.0
H5244 H 0.87774 0.03515 0.81167 0.0
H5245 H 0.91869 0.06378 0.81308 0.0
H5246 H 0.85827 0.07449 0.83836 0.0
H5247 H 0.81751 0.04574 0.83718 0.0
C5248 C 0.63224 1e-05 0.81678 0.0
C5249 C 0.61104 0.00857 0.82397 0.0
C5250 C 0.67739 -0.00095 0.81648 0.0
C5251 C 0.70269 0.00647 0.8234 0.0
C5252 C 0.68168 0.01523 0.83052 0.0
C5253 C 0.63656 0.01625 0.83082 0.0
C5254 C 0.75092 0.00514 0.82323 0.0
C5255 C 0.77564 0.02108 0.8242 0.0
C5256 C 0.77264 0.98835 0.82193 0.0
C5257 C 0.74906 0.97081 0.82145 0.0
C5258 C 0.7212 0.96551 0.82839 0.0
C5259 C 0.69888 0.94902 0.82787 0.0
C5260 C 0.70439 0.93762 0.82047 0.0
C5261 C 0.73235 0.94268 0.81359 0.0
C5262 C 0.75472 0.95918 0.81408 0.0
C5263 C 0.96151 0.00798 0.82884 0.0
C5264 C 0.98219 -0.00025 0.82149 0.0
C5265 C 0.91641 0.00933 0.82916 0.0
C5266 C 0.89078 0.00256 0.82213 0.0
C5267 C 0.91133 0.99424 0.81483 0.0
C5268 C 0.95636 0.99291 0.81449 0.0
C5269 C 0.84264 0.00396 0.82239 0.0
C5270 C 0.81796 0.98803 0.82144 0.0
C5271 C 0.82101 0.02074 0.82373 0.0
C5272 C 0.84487 0.0382 0.82438 0.0
C5273 C 0.87339 0.04355 0.81756 0.0
C5274 C 0.89656 0.0598 0.81832 0.0
C5275 C 0.89117 0.07092 0.82582 0.0
C5276 C 0.86246 0.06584 0.83256 0.0
C5277 C 0.8393 0.04958 0.83185 0.0
H5278 H 0.90917 0.08349 0.82639 0.0
H5279 H 0.68709 0.92485 0.82008 0.0
H5280 H 0.9972 0.50219 0.0462 0.0
H5281 H 0.9786 0.50585 0.03029 0.0
H5282 H 0.09907 0.48078 0.02287 0.0
H5283 H 0.11794 0.47753 0.03861 0.0
H5284 H 0.08558 0.5084 0.0123 0.0
H5285 H 0.99993 0.45767 0.02218 0.0
H5286 H 0.94737 0.44225 0.0319 0.0
H5287 H 0.84992 0.48068 0.0242 0.0
H5288 H 0.90218 0.49654 0.01452 0.0
H5289 H 0.03506 0.48996 0.96625 0.0
H5290 H 0.0545 0.48677 0.98215 0.0
H5291 H 0.93458 0.5122 0.98965 0.0
H5292 H 0.91491 0.51502 0.97393 0.0
H5293 H 0.94804 0.48446 1.00016 0.0
H5294 H 0.03397 0.53508 0.99014 0.0
H5295 H 0.08682 0.55034 0.98038 0.0
H5296 H 0.18385 0.51187 0.98828 0.0
H5297 H 0.13138 0.49622 0.99799 0.0
C5298 C 0.01959 0.49747 0.04116 0.0
C5299 C 0.05892 0.48948 0.04368 0.0
C5300 C 1.00895 0.49951 0.03205 0.0
C5301 C 0.03722 0.49342 0.02529 0.0
C5302 C 0.07664 0.48565 0.02787 0.0
C5303 C 0.08731 0.48371 0.03692 0.0
C5304 C 0.02602 0.49486 0.01555 0.0
C5305 C 0.05565 0.50298 0.00965 0.0
C5306 C 0.98676 0.48808 0.01201 0.0
C5307 C 0.95507 0.47839 0.01769 0.0
C5308 C 0.96735 0.46289 0.02259 0.0
C5309 C 0.93761 0.45406 0.0281 0.0
C5310 C 0.89534 0.46048 0.02869 0.0
C5311 C 0.88269 0.47573 0.02375 0.0
C5312 C 0.91236 0.48464 0.01824 0.0
C5313 C 1.01298 0.49486 0.97131 0.0
C5314 C 0.97353 0.50279 0.96882 0.0
C5315 C 0.02412 0.4931 0.98041 0.0
C5316 C 0.9962 0.4994 0.98718 0.0
C5317 C 0.95673 0.50718 0.98463 0.0
C5318 C 0.94559 0.50885 0.9756 0.0
C5319 C 1.00755 0.49802 0.99691 0.0
C5320 C 0.97794 0.4899 1.00281 0.0
C5321 C 0.04684 0.50479 1.00044 0.0
C5322 C 0.07863 0.51438 0.99473 0.0
C5323 C 0.06651 0.52982 0.98976 0.0
C5324 C 0.0964 0.53854 0.98424 0.0
C5325 C 0.13863 0.53204 0.98369 0.0
C5326 C 0.15111 0.51687 0.9887 0.0
C5327 C 0.12132 0.50808 0.99422 0.0
H5328 H 0.1617 0.5388 0.9794 0.0
H5329 H 0.87238 0.45363 0.03296 0.0
H5330 H 0.30547 0.71 0.97194 0.0
H5331 H 0.29099 0.71438 0.98782 0.0
H5332 H 0.2502 0.76951 0.98262 0.0
H5333 H 0.26514 0.76519 0.96658 0.0
H5334 H 0.30504 0.76796 0.99681 0.0
H5335 H 0.17711 0.73663 0.98801 0.0
H5336 H 0.13443 0.71234 0.98084 0.0
H5337 H 0.19251 0.67262 0.99813 0.0
H5338 H 0.23607 0.69663 1.00532 0.0
H5339 H 0.21975 0.78283 0.04033 0.0
H5340 H 0.23013 0.77913 0.02425 0.0
H5341 H 0.27083 0.72363 0.02842 0.0
H5342 H 0.25996 0.72724 0.04461 0.0
H5343 H 0.21428 0.72592 0.01465 0.0
H5344 H 0.34331 0.75716 0.02321 0.0
H5345 H 0.38633 0.78141 0.03032 0.0
H5346 H 0.3262 0.82132 0.01343 0.0
H5347 H 0.28232 0.79734 0.00631 0.0
C5348 C 0.29296 0.72303 0.97414 0.0
C5349 C 0.28643 0.73725 0.96799 0.0
C5350 C 0.28456 0.72549 0.98325 0.0
C5351 C 0.26918 0.74224 0.98646 0.0
C5352 C 0.26201 0.75645 0.98031 0.0
C5353 C 0.27029 0.75395 0.97115 0.0
C5354 C 0.26223 0.74493 0.99628 0.0
C5355 C 0.28457 0.75896 1.00068 0.0
C5356 C 0.2365 0.7329 1.00141 0.0
C5357 C 0.21014 0.71842 0.99715 0.0
C5358 C 0.18104 0.7227 0.99024 0.0
C5359 C 0.15664 0.70898 0.98618 0.0
C5360 C 0.16082 0.69094 0.98902 0.0
C5361 C 0.18934 0.68659 0.99594 0.0
C5362 C 0.21386 0.70026 1.00001 0.0
C5363 C 0.23119 0.76985 0.03785 0.0
C5364 C 0.23906 0.75533 0.04377 0.0
C5365 C 0.23726 0.76777 0.02863 0.0
C5366 C 0.25163 0.75114 0.02507 0.0
C5367 C 0.25975 0.7366 0.03098 0.0
C5368 C 0.25375 0.7387 0.04024 0.0
C5369 C 0.25721 0.74891 0.01519 0.0
C5370 C 0.23464 0.73496 0.01078 0.0
C5371 C 0.28272 0.76102 0.01004 0.0
C5372 C 0.3092 0.77547 0.01429 0.0
C5373 C 0.339 0.77113 0.02106 0.0
C5374 C 0.36358 0.78482 0.02509 0.0
C5375 C 0.35892 0.8029 0.02235 0.0
C5376 C 0.32974 0.80732 0.01556 0.0
C5377 C 0.30502 0.79367 0.01152 0.0
H5378 H 0.37798 0.81349 0.02547 0.0
H5379 H 0.14191 0.68034 0.98587 0.0
H5380 H 0.97043 0.70567 0.29089 0.0
H5381 H 0.98374 0.70959 0.27496 0.0
H5382 H 0.04211 0.76187 0.28015 0.0
H5383 H 0.02714 0.75825 0.29619 0.0
H5384 H 0.99218 0.76525 0.26651 0.0
H5385 H 0.10084 0.72216 0.27396 0.0
H5386 H 0.13236 0.69407 0.28019 0.0
H5387 H 0.05473 0.66184 0.26243 0.0
H5388 H 0.02211 0.68972 0.2562 0.0
H5389 H 0.1005 0.77282 0.22457 0.0
H5390 H 0.08346 0.768 0.24033 0.0
H5391 H 0.99135 0.72666 0.23303 0.0
H5392 H 1.00765 0.73181 0.21706 0.0
H5393 H 0.05668 0.7173 0.24737 0.0
H5394 H 0.95028 0.76248 0.23982 0.0
H5395 H 0.92542 0.79156 0.2334 0.0
H5396 H 1.00766 0.82095 0.25146 0.0
H5397 H 0.03357 0.79202 0.25789 0.0
C5398 C 0.98653 0.71795 0.28868 0.0
C5399 C 0.99771 0.73166 0.29483 0.0
C5400 C 0.99436 0.72014 0.27952 0.0
C5401 C 1.01444 0.73596 0.27626 0.0
C5402 C 0.02653 0.74953 0.28244 0.0
C5403 C 0.01824 0.74742 0.29163 0.0
C5404 C 0.0211 0.73856 0.2664 0.0
C5405 C 1.00682 0.75481 0.26239 0.0
C5406 C 0.03946 0.72487 0.26087 0.0
C5407 C 0.05873 0.70805 0.26466 0.0
C5408 C 0.09018 0.70908 0.27143 0.0
C5409 C 0.10831 0.69319 0.27496 0.0
C5410 C 0.09559 0.67619 0.2717 0.0
C5411 C 0.06458 0.67503 0.26494 0.0
C5412 C 0.04626 0.69087 0.26141 0.0
C5413 C 0.07627 0.7628 0.22629 0.0
C5414 C 0.05531 0.75272 0.21956 0.0
C5415 C 0.06659 0.76007 0.23532 0.0
C5416 C 0.03618 0.74697 0.23788 0.0
C5417 C 1.01496 0.73684 0.2312 0.0
C5418 C 0.02406 0.73986 0.22209 0.0
C5419 C 0.02761 0.74386 0.24758 0.0
C5420 C 0.04177 0.7276 0.25155 0.0
C5421 C 1.00994 0.75764 0.25309 0.0
C5422 C 0.99416 0.77506 0.24928 0.0
C5423 C 0.96336 0.77514 0.24237 0.0
C5424 C 0.94902 0.7916 0.23874 0.0
C5425 C 0.96502 0.80809 0.242 0.0
C5426 C 0.99532 0.80816 0.24893 0.0
C5427 C 1.00982 0.79173 0.25257 0.0
H5428 H 0.95388 0.82082 0.23918 0.0
H5429 H 0.10978 0.66391 0.27442 0.0
H5430 H 0.26663 0.51423 0.21662 0.0
H5431 H 0.2782 0.51797 0.23277 0.0
H5432 H 0.23725 0.46257 0.23713 0.0
H5433 H 0.22516 0.45887 0.22108 0.0
H5434 H 0.20002 0.48429 0.24903 0.0
H5435 H 0.34423 0.47532 0.23839 0.0
H5436 H 0.40712 0.4816 0.22882 0.0
H5437 H 0.41479 0.53592 0.23933 0.0
H5438 H 0.35148 0.53006 0.24887 0.0
H5439 H 0.26951 0.47647 0.29461 0.0
H5440 H 0.25898 0.47232 0.27845 0.0
H5441 H 0.30117 0.52748 0.27385 0.0
H5442 H 0.31229 0.53156 0.28991 0.0
H5443 H 0.33804 0.50568 0.26206 0.0
H5444 H 0.19353 0.5148 0.27257 0.0
H5445 H 0.13008 0.50872 0.28201 0.0
H5446 H 0.12275 0.45424 0.27168 0.0
H5447 H 0.18659 0.45992 0.26227 0.0
C5448 C 0.26045 0.50282 0.22103 0.0
C5449 C 0.24496 0.48626 0.21756 0.0
C5450 C 0.26712 0.50495 0.23027 0.0
C5451 C 0.25879 0.49052 0.23623 0.0
C5452 C 0.24377 0.47394 0.23273 0.0
C5453 C 0.23707 0.47182 0.22352 0.0
C5454 C 0.265 0.49268 0.24612 0.0
C5455 C 0.23042 0.48874 0.25187 0.0
C5456 C 0.30431 0.49884 0.24989 0.0
C5457 C 0.34285 0.5023 0.24428 0.0
C5458 C 0.35916 0.48865 0.23862 0.0
C5459 C 0.3949 0.49213 0.2332 0.0
C5460 C 0.41487 0.50917 0.23345 0.0
C5461 C 0.39924 0.52274 0.23914 0.0
C5462 C 0.36345 0.51934 0.24456 0.0
C5463 C 0.27623 0.48773 0.29015 0.0
C5464 C 0.29172 0.50434 0.29356 0.0
C5465 C 0.27016 0.48537 0.2809 0.0
C5466 C 0.27906 0.49962 0.27486 0.0
C5467 C 0.29421 0.51623 0.27831 0.0
C5468 C 0.30035 0.51857 0.28752 0.0
C5469 C 0.27303 0.4973 0.26498 0.0
C5470 C 0.30765 0.50121 0.25922 0.0
C5471 C 0.23375 0.49112 0.2612 0.0
C5472 C 0.1951 0.48773 0.26678 0.0
C5473 C 0.17857 0.50149 0.27236 0.0
C5474 C 0.14251 0.49812 0.2777 0.0
C5475 C 0.12247 0.48109 0.27747 0.0
C5476 C 0.13836 0.46742 0.27187 0.0
C5477 C 0.17446 0.4707 0.26652 0.0
H5478 H 0.09457 0.47851 0.28161 0.0
H5479 H 0.44249 0.51184 0.22924 0.0
H5480 H 0.76919 0.26396 0.96584 0.0
H5481 H 0.75723 0.26787 0.98198 0.0
H5482 H 0.79036 0.21155 0.98635 0.0
H5483 H 0.80201 0.20757 0.9703 0.0
H5484 H 0.72217 0.22105 0.99647 0.0
H5485 H 0.86299 0.24573 0.99041 0.0
H5486 H 0.91491 0.26581 0.98277 0.0
H5487 H 0.84675 0.31285 0.99229 0.0
H5488 H 0.79405 0.29303 0.99988 0.0
H5489 H 0.75772 0.22462 0.04364 0.0
H5490 H 0.76883 0.22077 0.02747 0.0
H5491 H 0.7386 0.27745 0.0233 0.0
H5492 H 0.72773 0.28135 0.03938 0.0
H5493 H 0.80512 0.26794 0.01305 0.0
H5494 H 0.66445 0.24454 0.01882 0.0
H5495 H 0.60925 0.22544 0.02605 0.0
H5496 H 0.67376 0.1772 0.01691 0.0
H5497 H 0.72971 0.19603 0.0097 0.0
C5498 C 0.77351 0.25238 0.97024 0.0
C5499 C 0.78679 0.23548 0.96678 0.0
C5500 C 0.76693 0.25465 0.97948 0.0
C5501 C 0.77347 0.24007 0.98545 0.0
C5502 C 0.7852 0.22304 0.98193 0.0
C5503 C 0.79195 0.22079 0.97273 0.0
C5504 C 0.76908 0.24252 0.99535 0.0
C5505 C 0.74077 0.23115 1.0001 0.0
C5506 C 0.79247 0.25597 1.00013 0.0
C5507 C 0.82434 0.2679 0.99564 0.0
C5508 C 0.8589 0.26036 0.99082 0.0
C5509 C 0.88849 0.27169 0.98651 0.0
C5510 C 0.88406 0.29059 0.98702 0.0
C5511 C 0.8501 0.2982 0.99188 0.0
C5512 C 0.82039 0.28693 0.9962 0.0
C5513 C 0.7538 0.23627 0.03928 0.0
C5514 C 0.74162 0.25327 0.0428 0.0
C5515 C 0.75991 0.23405 0.03002 0.0
C5516 C 0.75406 0.24877 0.0241 0.0
C5517 C 0.74326 0.26585 0.02768 0.0
C5518 C 0.73694 0.26805 0.03689 0.0
C5519 C 0.75834 0.24641 0.01418 0.0
C5520 C 0.78661 0.2578 0.00943 0.0
C5521 C 0.73466 0.23308 0.00939 0.0
C5522 C 0.70149 0.22169 0.0138 0.0
C5523 C 0.6671 0.22985 0.01842 0.0
C5524 C 0.63564 0.21908 0.0225 0.0
C5525 C 0.63804 0.20013 0.02194 0.0
C5526 C 0.67197 0.19189 0.01733 0.0
C5527 C 0.70356 0.2026 0.01325 0.0
H5528 H 0.61348 0.19184 0.02504 0.0
H5529 H 0.90699 0.29934 0.98368 0.0
H5530 H 0.91173 0.22405 0.78666 0.0
H5531 H 0.9343 0.22709 0.77113 0.0
H5532 H 0.05439 0.25089 0.77979 0.0
H5533 H 0.03184 0.24762 0.79548 0.0
H5534 H 0.95171 0.25534 0.76101 0.0
H5535 H 0.13299 0.24096 0.76454 0.0
H5536 H 0.18254 0.2245 0.77462 0.0
H5537 H 0.08189 0.1868 0.7813 0.0
H5538 H 0.03192 0.20291 0.77118 0.0
H5539 H 0.12669 0.25972 0.72347 0.0
H5540 H 0.10621 0.2566 0.73914 0.0
H5541 H 0.98388 0.23393 0.73112 0.0
H5542 H 1.00413 0.23743 0.71532 0.0
H5543 H 0.08864 0.22938 0.74968 0.0
H5544 H 0.90672 0.24484 0.74632 0.0
H5545 H 0.85763 0.26215 0.73649 0.0
H5546 H 0.96045 0.29866 0.72965 0.0
H5547 H 1.00998 0.28173 0.73953 0.0
C5548 C 0.94307 0.22989 0.78529 0.0
C5549 C 0.97017 0.23544 0.79234 0.0
C5550 C 0.95589 0.23169 0.77637 0.0
C5551 C 0.99624 0.23909 0.7742 0.0
C5552 C 0.02336 0.24485 0.78124 0.0
C5553 C 1.01051 0.24299 0.79022 0.0
C5554 C 1.00932 0.24065 0.76457 0.0
C5555 C 0.98146 0.24946 0.75853 0.0
C5556 C 0.04854 0.23339 0.76128 0.0
C5557 C 0.07865 0.22325 0.76717 0.0
C5558 C 0.12153 0.2291 0.76812 0.0
C5559 C 0.14966 0.21985 0.77385 0.0
C5560 C 0.13533 0.20465 0.77862 0.0
C5561 C 0.09291 0.19861 0.77763 0.0
C5562 C 0.06466 0.2078 0.7719 0.0
C5563 C 0.09536 0.25406 0.72502 0.0
C5564 C 0.0669 0.24895 0.71812 0.0
C5565 C 0.08374 0.25221 0.73402 0.0
C5566 C 0.04327 0.2452 0.73641 0.0
C5567 C 1.01502 0.23969 0.72951 0.0
C5568 C 0.02663 0.24163 0.72046 0.0
C5569 C 0.03085 0.24396 0.74609 0.0
C5570 C 0.05887 0.23524 0.75215 0.0
C5571 C 0.99185 0.25139 0.74941 0.0
C5572 C 0.96213 0.26189 0.74359 0.0
C5573 C 0.91878 0.25661 0.74275 0.0
C5574 C 0.8909 0.26635 0.73716 0.0
C5575 C 0.90595 0.28146 0.73243 0.0
C5576 C 0.94887 0.28692 0.7333 0.0
C5577 C 0.97687 0.27724 0.73888 0.0
H5578 H 0.88433 0.28895 0.72809 0.0
H5579 H 0.15712 0.19755 0.78307 0.0
H5580 H 0.78834 0.47464 0.79334 0.0
H5581 H 0.78028 0.47097 0.77711 0.0
H5582 H 0.77909 0.52939 0.77399 0.0
H5583 H 0.7893 0.533 0.7901 0.0
H5584 H 0.72559 0.47795 0.76525 0.0
H5585 H 0.8191 0.54325 0.75447 0.0
H5586 H 0.88026 0.56183 0.75976 0.0
H5587 H 0.93073 0.5159 0.77412 0.0
H5588 H 0.87023 0.49698 0.76882 0.0
H5589 H 0.66938 0.49629 0.72109 0.0
H5590 H 0.68563 0.49885 0.73697 0.0
H5591 H 0.82097 0.49185 0.73136 0.0
H5592 H 0.80466 0.49034 0.71523 0.0
H5593 H 0.81526 0.51411 0.74433 0.0
H5594 H 0.75295 0.45602 0.73973 0.0
H5595 H 0.70008 0.43345 0.73435 0.0
H5596 H 0.60209 0.45796 0.75064 0.0
H5597 H 0.65423 0.48083 0.75602 0.0
C5598 C 0.78618 0.48668 0.78918 0.0
C5599 C 0.7898 0.50411 0.79299 0.0
C5600 C 0.7816 0.48459 0.77988 0.0
C5601 C 0.78009 0.49989 0.77419 0.0
C5602 C 0.78163 0.51731 0.7781 0.0
C5603 C 0.78701 0.51938 0.78735 0.0
C5604 C 0.77657 0.49771 0.76422 0.0
C5605 C 0.74531 0.48587 0.7607 0.0
C5606 C 0.80312 0.50751 0.75817 0.0
C5607 C 0.83988 0.51875 0.76131 0.0
C5608 C 0.84335 0.53709 0.75873 0.0
C5609 C 0.87788 0.54769 0.76173 0.0
C5610 C 0.90928 0.54007 0.76729 0.0
C5611 C 0.9063 0.52181 0.76984 0.0
C5612 C 0.87187 0.51115 0.76684 0.0
C5613 C 0.70271 0.49546 0.72322 0.0
C5614 C 0.73573 0.49298 0.71692 0.0
C5615 C 0.71197 0.49674 0.73235 0.0
C5616 C 0.75444 0.49493 0.7355 0.0
C5617 C 0.78784 0.49312 0.72917 0.0
C5618 C 0.77858 0.49227 0.71994 0.0
C5619 C 0.76335 0.49479 0.74538 0.0
C5620 C 0.79565 0.50616 0.74888 0.0
C5621 C 0.73894 0.484 0.75142 0.0
C5622 C 0.70745 0.47023 0.74823 0.0
C5623 C 0.72006 0.45666 0.74213 0.0
C5624 C 0.69023 0.44381 0.73908 0.0
C5625 C 0.64774 0.44429 0.74214 0.0
C5626 C 0.63501 0.45761 0.74827 0.0
C5627 C 0.66471 0.47051 0.75133 0.0
H5628 H 0.62468 0.43433 0.73977 0.0
H5629 H 0.93597 0.5483 0.76962 0.0
H5630 H 0.99179 -0.00189 0.54761 0.0
H5631 H 0.97177 0.00127 0.53174 0.0
H5632 H 0.10076 0.98614 0.52404 0.0
H5633 H 0.12072 0.9831 0.53975 0.0
H5634 H 0.07406 0.01372 0.51393 0.0
H5635 H 0.01698 0.95578 0.52282 0.0
H5636 H 0.97397 0.93472 0.53199 0.0
H5637 H 0.8585 0.96357 0.52492 0.0
H5638 H 0.90102 0.98501 0.51579 0.0
H5639 H 0.03097 0.99495 0.46746 0.0
H5640 H 0.05279 0.99196 0.48325 0.0
H5641 H 0.92392 0.00605 0.4915 0.0
H5642 H 0.9022 0.00881 0.47591 0.0
H5643 H 0.95152 0.9788 0.5013 0.0
H5644 H 1.00887 0.03686 0.49238 0.0
H5645 H 0.05211 0.05764 0.48306 0.0
H5646 H 0.1671 0.02842 0.49009 0.0
H5647 H 0.12442 0.00729 0.49936 0.0
C5648 C 0.0158 -0.00448 0.54252 0.0
C5649 C 0.05777 0.99027 0.54496 0.0
C5650 C 1.00435 -0.00274 0.53344 0.0
C5651 C 0.03466 0.9938 0.52662 0.0
C5652 C 0.07672 0.98893 0.5291 0.0
C5653 C 0.08804 0.98712 0.53813 0.0
C5654 C 0.02284 0.99488 0.5169 0.0
C5655 C 0.0475 0.00593 0.51116 0.0
C5656 C 0.98789 0.98495 0.51323 0.0
C5657 C 0.96223 0.97211 0.5187 0.0
C5658 C 0.98246 0.95772 0.52328 0.0
C5659 C 0.95815 0.9457 0.52846 0.0
C5660 C 0.91351 0.94782 0.52906 0.0
C5661 C 0.89309 0.96196 0.52446 0.0
C5662 C 0.91728 0.97405 0.51928 0.0
C5663 C 1.00743 -0.00264 0.47266 0.0
C5664 C 0.96492 0.00218 0.47041 0.0
C5665 C 0.01989 -0.00427 0.48169 0.0
C5666 C 0.9901 -0.00107 0.48864 0.0
C5667 C 0.94759 0.00346 0.48634 0.0
C5668 C 0.93525 0.0051 0.47738 0.0
C5669 C 1.00256 -0.00229 0.49833 0.0
C5670 C 0.97805 0.98662 0.50406 0.0
C5671 C 0.03763 0.00761 0.50199 0.0
C5672 C 0.06339 0.02038 0.49649 0.0
C5673 C 0.04334 0.03479 0.49189 0.0
C5674 C 0.06774 0.04664 0.48662 0.0
C5675 C 0.11231 0.04432 0.48596 0.0
C5676 C 0.13257 0.03018 0.49059 0.0
C5677 C 0.10829 0.01827 0.49586 0.0
H5678 H 0.13115 0.0535 0.48188 0.0
H5679 H 0.89471 0.93847 0.53306 0.0
H5680 H 0.3589 0.22473 0.4737 0.0
H5681 H 0.33908 0.22799 0.48938 0.0
H5682 H 0.2198 0.25368 0.48163 0.0
H5683 H 0.2399 0.25052 0.46575 0.0
H5684 H 0.25828 0.27168 0.49553 0.0
H5685 H 0.22122 0.20987 0.48913 0.0
H5686 H 0.23294 0.17863 0.48359 0.0
H5687 H 0.33522 0.17118 0.5026 0.0
H5688 H 0.32464 0.20249 0.50816 0.0
H5689 H 0.15458 0.26473 0.53745 0.0
H5690 H 0.17562 0.26144 0.52184 0.0
H5691 H 0.29595 0.23723 0.53002 0.0
H5692 H 0.2747 0.24049 0.54584 0.0
H5693 H 0.25757 0.21845 0.51596 0.0
H5694 H 0.2943 0.28026 0.52238 0.0
H5695 H 0.28246 0.31148 0.52792 0.0
H5696 H 0.18035 0.31888 0.50885 0.0
H5697 H 0.19112 0.28758 0.50329 0.0
C5698 C 0.32832 0.23104 0.4753 0.0
C5699 C 0.30087 0.23729 0.46845 0.0
C5700 C 0.31693 0.23283 0.4843 0.0
C5701 C 0.27764 0.24086 0.48675 0.0
C5702 C 0.25023 0.24735 0.47993 0.0
C5703 C 0.26163 0.2455 0.47086 0.0
C5704 C 0.26593 0.24262 0.49643 0.0
C5705 C 0.25745 0.25999 0.49995 0.0
C5706 C 0.26604 0.22747 0.50233 0.0
C5707 C 0.2724 0.2086 0.49901 0.0
C5708 C 0.24645 0.20163 0.49208 0.0
C5709 C 0.25284 0.1839 0.48895 0.0
C5710 C 0.28484 0.17295 0.49273 0.0
C5711 C 0.31047 0.17969 0.49967 0.0
C5712 C 0.30428 0.19743 0.50282 0.0
C5713 C 0.18566 0.25875 0.53597 0.0
C5714 C 0.21309 0.25297 0.54291 0.0
C5715 C 0.19772 0.25694 0.527 0.0
C5716 C 0.23762 0.24929 0.52469 0.0
C5717 C 0.26505 0.24326 0.53161 0.0
C5718 C 0.25302 0.24519 0.54065 0.0
C5719 C 0.24989 0.24751 0.51505 0.0
C5720 C 0.25844 0.23014 0.51153 0.0
C5721 C 0.2498 0.26265 0.50916 0.0
C5722 C 0.24326 0.2815 0.51247 0.0
C5723 C 0.26907 0.28848 0.51942 0.0
C5724 C 0.2626 0.3062 0.52255 0.0
C5725 C 0.2306 0.31714 0.51875 0.0
C5726 C 0.20508 0.31038 0.5118 0.0
C5727 C 0.21138 0.29266 0.50864 0.0
H5728 H 0.22565 0.33086 0.52119 0.0
H5729 H 0.28971 0.15922 0.49029 0.0
H5730 H 0.24939 0.98255 0.79739 0.0
H5731 H 0.23222 0.97855 0.78148 0.0
H5732 H 0.32618 0.01956 0.77467 0.0
H5733 H 0.34138 0.02427 0.79051 0.0
H5734 H 0.26339 0.02429 0.7643 0.0
H5735 H 0.34203 0.9709 0.77264 0.0
H5736 H 0.35728 0.94385 0.78186 0.0
H5737 H 0.23626 0.92032 0.77406 0.0
H5738 H 0.21973 0.94749 0.76498 0.0
H5739 H 0.27025 0.00036 0.71752 0.0
H5740 H 0.29275 0.00408 0.73324 0.0
H5741 H 0.18397 0.97199 0.74174 0.0
H5742 H 0.16149 0.96835 0.7262 0.0
H5743 H 0.25804 0.96257 0.75088 0.0
H5744 H 0.1801 0.01744 0.74299 0.0
H5745 H 0.16687 0.0448 0.73383 0.0
H5746 H 0.29259 0.06517 0.74047 0.0
H5747 H 0.30681 0.03777 0.74957 0.0
C5748 C 0.26623 0.99072 0.79248 0.0
C5749 C 0.29689 0.00365 0.79522 0.0
C5750 C 0.25665 0.98835 0.78335 0.0
C5751 C 0.27848 -0.00153 0.77674 0.0
C5752 C 0.30876 0.01153 0.77954 0.0
C5753 C 0.3176 0.01416 0.78864 0.0
C5754 C 0.27012 -0.00445 0.76693 0.0
C5755 C 0.26293 0.01077 0.76139 0.0
C5756 C 0.26898 0.97794 0.76299 0.0
C5757 C 0.27946 0.96132 0.7682 0.0
C5758 C 0.31858 0.95999 0.77292 0.0
C5759 C 0.32745 0.94463 0.77813 0.0
C5760 C 0.29775 0.93037 0.77855 0.0
C5761 C 0.25921 0.9314 0.77374 0.0
C5762 C 0.25005 0.94678 0.76856 0.0
C5763 C 0.25147 0.99399 0.72275 0.0
C5764 C 0.21408 0.98408 0.72061 0.0
C5765 C 0.2642 -0.00383 0.73174 0.0
C5766 C 0.23995 0.98837 0.73872 0.0
C5767 C 0.20332 0.9781 0.73652 0.0
C5768 C 0.1904 0.97611 0.72761 0.0
C5769 C 0.25136 0.99128 0.74835 0.0
C5770 C 0.25898 0.97606 0.75384 0.0
C5771 C 0.25352 0.00887 0.75221 0.0
C5772 C 0.24468 0.02548 0.74688 0.0
C5773 C 0.20503 0.0277 0.74245 0.0
C5774 C 0.19734 0.04322 0.73727 0.0
C5775 C 0.22892 0.05669 0.73655 0.0
C5776 C 0.26819 0.05471 0.74103 0.0
C5777 C 0.27607 0.03919 0.7462 0.0
H5778 H 0.22293 0.06868 0.73253 0.0
H5779 H 0.30454 0.91853 0.78262 0.0
H5780 H 0.75716 0.75955 0.4679 0.0
H5781 H 0.74584 0.76298 0.48407 0.0
H5782 H 0.82964 0.71713 0.48894 0.0
H5783 H 0.83917 0.71319 0.4729 0.0
H5784 H 0.76816 0.71425 0.49973 0.0
H5785 H 0.85998 0.76421 0.49216 0.0
H5786 H 0.88255 0.79167 0.48393 0.0
H5787 H 0.77005 0.82005 0.49313 0.0
H5788 H 0.7465 0.79266 0.50132 0.0
H5789 H 0.7919 0.73238 0.54694 0.0
H5790 H 0.81093 0.7298 0.53097 0.0
H5791 H 0.70773 0.76663 0.52421 0.0
H5792 H 0.68843 0.76902 0.53996 0.0
H5793 H 0.78332 0.77415 0.51473 0.0
H5794 H 0.69262 0.72271 0.52204 0.0
H5795 H 0.67439 0.69546 0.53081 0.0
H5796 H 0.79154 0.66963 0.52229 0.0
H5797 H 0.81098 0.69703 0.51362 0.0
C5798 C 0.77299 0.7502 0.47244 0.0
C5799 C 0.79917 0.73615 0.4691 0.0
C5800 C 0.76682 0.75223 0.48171 0.0
C5801 C 0.7875 0.74052 0.48784 0.0
C5802 C 0.81323 0.72638 0.48445 0.0
C5803 C 0.81878 0.72418 0.47522 0.0
C5804 C 0.78231 0.74273 0.49777 0.0
C5805 C 0.77221 0.72734 0.50298 0.0
C5806 C 0.78706 0.75978 0.50214 0.0
C5807 C 0.80127 0.77632 0.49728 0.0
C5808 C 0.83991 0.77627 0.49238 0.0
C5809 C 0.8529 0.79183 0.48773 0.0
C5810 C 0.82768 0.80759 0.48798 0.0
C5811 C 0.78951 0.80783 0.49292 0.0
C5812 C 0.77635 0.79229 0.49758 0.0
C5813 C 0.7736 0.74 0.54203 0.0
C5814 C 0.73855 0.75082 0.54471 0.0
C5815 C 0.78441 0.73852 0.53291 0.0
C5816 C 0.76066 0.74801 0.52635 0.0
C5817 C 0.72663 0.75923 0.5291 0.0
C5818 C 0.71551 0.76049 0.53814 0.0
C5819 C 0.76933 0.74571 0.51658 0.0
C5820 C 0.77982 0.76108 0.51143 0.0
C5821 C 0.76564 0.72862 0.51228 0.0
C5822 C 0.75347 0.71198 0.51727 0.0
C5823 C 0.71464 0.71127 0.52209 0.0
C5824 C 0.70408 0.69578 0.52704 0.0
C5825 C 0.73183 0.68079 0.52713 0.0
C5826 C 0.77012 0.68126 0.52223 0.0
C5827 C 0.78094 0.69678 0.5173 0.0
H5828 H 0.72368 0.66881 0.53098 0.0
H5829 H 0.83774 0.81962 0.48438 0.0
H5830 H 0.79262 0.98983 0.21647 0.0
H5831 H 0.81305 0.99152 0.23237 0.0
H5832 H 0.67865 0.99113 0.2397 0.0
H5833 H 0.65858 0.98862 0.224 0.0
H5834 H 0.80438 0.01345 0.24544 0.0
H5835 H 0.65893 0.97117 0.25903 0.0
H5836 H 0.61404 0.94519 0.25427 0.0
H5837 H 0.71496 0.92684 0.23684 0.0
H5838 H 0.76067 0.95255 0.24159 0.0
H5839 H 0.78879 0.03184 0.29139 0.0
H5840 H 0.7747 0.02741 0.27546 0.0
H5841 H 0.78916 0.96934 0.27882 0.0
H5842 H 0.80028 0.97379 0.29493 0.0
H5843 H 0.73253 0.97306 0.26742 0.0
H5844 H 0.87098 -0.00024 0.26918 0.0
H5845 H 0.92688 0.02182 0.27367 0.0
H5846 H 0.8591 0.06447 0.25995 0.0
H5847 H 0.80247 0.04271 0.25548 0.0
C5848 C 0.76758 0.99013 0.22149 0.0
C5849 C 0.72402 0.98892 0.21897 0.0
C5850 C 0.77922 0.9911 0.2306 0.0
C5851 C 0.74751 0.99102 0.23735 0.0
C5852 C 0.70399 0.9906 0.23474 0.0
C5853 C 0.69247 0.98931 0.22571 0.0
C5854 C 0.7593 0.99147 0.24712 0.0
C5855 C 0.7887 0.00458 0.25022 0.0
C5856 C 0.74027 0.9795 0.25344 0.0
C5857 C 0.71306 0.9639 0.25061 0.0
C5858 C 0.67162 0.96155 0.25421 0.0
C5859 C 0.64601 0.94687 0.25151 0.0
C5860 C 0.66159 0.9344 0.24523 0.0
C5861 C 0.70287 0.93655 0.24167 0.0
C5862 C 0.72861 0.95118 0.24436 0.0
C5863 C 0.78856 0.01811 0.28873 0.0
C5864 C 0.79578 0.00318 0.29441 0.0
C5865 C 0.78101 0.01557 0.27957 0.0
C5866 C 0.78214 -0.00195 0.27574 0.0
C5867 C 0.78828 0.98304 0.28149 0.0
C5868 C 0.79465 0.98557 0.29073 0.0
C5869 C 0.77661 -0.00453 0.2658 0.0
C5870 C 0.7484 0.98192 0.26265 0.0
C5871 C 0.79828 0.00648 0.25941 0.0
C5872 C 0.8323 0.01962 0.26206 0.0
C5873 C 0.86786 0.01387 0.26717 0.0
C5874 C 0.89969 0.02631 0.26971 0.0
C5875 C 0.8965 0.04454 0.26711 0.0
C5876 C 0.86151 0.05035 0.26196 0.0
C5877 C 0.82956 0.03796 0.25941 0.0
H5878 H 0.92117 0.05415 0.26909 0.0
H5879 H 0.6417 0.92307 0.24314 0.0
H5880 H 0.61327 0.47518 0.53844 0.0
H5881 H 0.59555 0.47852 0.52266 0.0
H5882 H 0.47131 0.50052 0.52969 0.0
H5883 H 0.48901 0.49701 0.54569 0.0
H5884 H 0.46518 0.47587 0.51594 0.0
H5885 H 0.55164 0.52826 0.52217 0.0
H5886 H 0.61486 0.54496 0.52789 0.0
H5887 H 0.69681 0.51585 0.50972 0.0
H5888 H 0.63414 0.49877 0.50398 0.0
H5889 H 0.41447 0.51037 0.47314 0.0
H5890 H 0.43211 0.50691 0.48892 0.0
H5891 H 0.55687 0.48546 0.48188 0.0
H5892 H 0.53927 0.48911 0.46588 0.0
H5893 H 0.5628 0.50978 0.49564 0.0
H5894 H 0.47668 0.45739 0.48939 0.0
H5895 H 0.41369 0.44054 0.48368 0.0
H5896 H 0.33136 0.46943 0.50186 0.0
H5897 H 0.39379 0.48667 0.50759 0.0
C5898 C 0.5821 0.48077 0.53667 0.0
C5899 C 0.55259 0.48589 0.54336 0.0
C5900 C 0.57209 0.48275 0.5276 0.0
C5901 C 0.53233 0.49003 0.52492 0.0
C5902 C 0.50232 0.49494 0.53157 0.0
C5903 C 0.51244 0.49297 0.54071 0.0
C5904 C 0.52248 0.49227 0.51516 0.0
C5905 C 0.48615 0.48355 0.51154 0.0
C5906 C 0.55048 0.5018 0.5093 0.0
C5907 C 0.58822 0.51212 0.5127 0.0
C5908 C 0.58318 0.52532 0.51944 0.0
C5909 C 0.61892 0.53487 0.52268 0.0
C5910 C 0.65984 0.53144 0.51918 0.0
C5911 C 0.6651 0.51848 0.51243 0.0
C5912 C 0.62947 0.50887 0.50917 0.0
C5913 C 0.44573 0.50487 0.47491 0.0
C5914 C 0.47543 0.49997 0.46822 0.0
C5915 C 0.4557 0.50282 0.48398 0.0
C5916 C 0.4956 0.49566 0.48666 0.0
C5917 C 0.52576 0.49094 0.48001 0.0
C5918 C 0.51569 0.49299 0.47086 0.0
C5919 C 0.50546 0.4934 0.49642 0.0
C5920 C 0.54181 0.50211 0.50004 0.0
C5921 C 0.4775 0.48383 0.50227 0.0
C5922 C 0.43989 0.47344 0.49887 0.0
C5923 C 0.4451 0.46026 0.49213 0.0
C5924 C 0.4095 0.45062 0.48889 0.0
C5925 C 0.36853 0.45394 0.49239 0.0
C5926 C 0.3631 0.46689 0.49915 0.0
C5927 C 0.3986 0.47658 0.5024 0.0
H5928 H 0.34101 0.44647 0.48988 0.0
H5929 H 0.68746 0.53885 0.5217 0.0
H5930 H 0.5286 0.75026 0.79717 0.0
H5931 H 0.54784 0.75401 0.7813 0.0
H5932 H 0.42671 0.72987 0.77355 0.0
H5933 H 0.40774 0.726 0.78926 0.0
H5934 H 0.49023 0.71644 0.76348 0.0
H5935 H 0.44329 0.77612 0.77266 0.0
H5936 H 0.44439 0.80366 0.78211 0.0
H5937 H 0.57595 0.8136 0.77474 0.0
H5938 H 0.57583 0.78596 0.76535 0.0
H5939 H 0.49065 0.74181 0.71717 0.0
H5940 H 0.47018 0.73884 0.73302 0.0
H5941 H 0.59034 0.76368 0.74088 0.0
H5942 H 0.61053 0.76676 0.72521 0.0
H5943 H 0.5271 0.77692 0.7509 0.0
H5944 H 0.57547 0.71799 0.74191 0.0
H5945 H 0.5765 0.69074 0.73235 0.0
H5946 H 0.44551 0.67894 0.73954 0.0
H5947 H 0.44335 0.70652 0.74897 0.0
C5948 C 0.50623 0.74574 0.79206 0.0
C5949 C 0.46664 0.73786 0.79448 0.0
C5950 C 0.51712 0.74794 0.78299 0.0
C5951 C 0.48859 0.74234 0.77617 0.0
C5952 C 0.44937 0.73428 0.77863 0.0
C5953 C 0.43849 0.73214 0.78764 0.0
C5954 C 0.49897 0.7449 0.76646 0.0
C5955 C 0.49776 0.72972 0.76072 0.0
C5956 C 0.50971 0.76213 0.76283 0.0
C5957 C 0.50968 0.77887 0.76838 0.0
C5958 C 0.47254 0.78411 0.77311 0.0
C5959 C 0.47298 0.79975 0.77844 0.0
C5960 C 0.51025 0.81035 0.77904 0.0
C5961 C 0.54712 0.80536 0.77428 0.0
C5962 C 0.54688 0.78972 0.76895 0.0
C5963 C 0.51253 0.74666 0.72229 0.0
C5964 C 0.55227 0.75444 0.71992 0.0
C5965 C 0.5009 0.74494 0.73135 0.0
C5966 C 0.52883 0.75094 0.73821 0.0
C5967 C 0.56809 0.75899 0.73578 0.0
C5968 C 0.5797 0.76065 0.72678 0.0
C5969 C 0.51817 0.74847 0.74791 0.0
C5970 C 0.51941 0.76365 0.75365 0.0
C5971 C 0.50773 0.73123 0.75156 0.0
C5972 C 0.50909 0.71443 0.74606 0.0
C5973 C 0.54677 0.70966 0.7414 0.0
C5974 C 0.54756 0.69414 0.736 0.0
C5975 C 0.51108 0.68307 0.73533 0.0
C5976 C 0.47374 0.68753 0.74006 0.0
C5977 C 0.47268 0.70313 0.74542 0.0
H5978 H 0.51176 0.67105 0.73114 0.0
H5979 H 0.51053 0.82244 0.78318 0.0
H5980 H 0.43521 0.21484 0.28954 0.0
H5981 H 0.44739 0.21851 0.27355 0.0
H5982 H 0.55099 0.2561 0.27907 0.0
H5983 H 0.53664 0.25334 0.29517 0.0
H5984 H 0.51086 0.26839 0.26576 0.0
H5985 H 0.56253 0.20787 0.27197 0.0
H5986 H 0.55821 0.17627 0.27748 0.0
H5987 H 0.45406 0.16531 0.25935 0.0
H5988 H 0.4572 0.19691 0.25382 0.0
H5989 H 0.61396 0.26372 0.22375 0.0
H5990 H 0.59416 0.25999 0.2394 0.0
H5991 H 0.47756 0.23239 0.2315 0.0
H5992 H 0.49747 0.23614 0.21563 0.0
H5993 H 0.52048 0.21492 0.24558 0.0
H5994 H 0.47207 0.27536 0.239 0.0
H5995 H 0.4788 0.3067 0.23326 0.0
H5996 H 0.58068 0.31734 0.25201 0.0
H5997 H 0.575 0.28597 0.25778 0.0
C5998 C 0.46072 0.22387 0.28736 0.0
C5999 C 0.48518 0.23372 0.29365 0.0
C6000 C 0.46795 0.22585 0.27817 0.0
C6001 C 0.50098 0.23722 0.27497 0.0
C6002 C 0.5254 0.24715 0.28127 0.0
C6003 C 0.51736 0.24553 0.2905 0.0
C6004 C 0.50928 0.23908 0.26509 0.0
C6005 C 0.51359 0.25661 0.26141 0.0
C6006 C 0.51162 0.22385 0.25923 0.0
C6007 C 0.50985 0.20482 0.26254 0.0
C6008 C 0.53851 0.19876 0.2692 0.0
C6009 C 0.53631 0.18084 0.27232 0.0
C6010 C 0.50587 0.16881 0.26879 0.0
C6011 C 0.4776 0.17465 0.2621 0.0
C6012 C 0.47958 0.19256 0.25896 0.0
C6013 C 0.58396 0.25689 0.2253 0.0
C6014 C 0.55718 0.2503 0.21842 0.0
C6015 C 0.57261 0.25482 0.23429 0.0
C6016 C 0.53409 0.24611 0.23669 0.0
C6017 C 0.50738 0.23924 0.22984 0.0
C6018 C 0.51867 0.24143 0.22077 0.0
C6019 C 0.52253 0.24412 0.24636 0.0
C6020 C 0.51764 0.22661 0.24997 0.0
C6021 C 0.52006 0.25933 0.25218 0.0
C6022 C 0.52332 0.27826 0.24877 0.0
C6023 C 0.49612 0.28434 0.24186 0.0
C6024 C 0.49972 0.30212 0.23861 0.0
C6025 C 0.53021 0.31399 0.24226 0.0
C6026 C 0.5571 0.30812 0.24919 0.0
C6027 C 0.55367 0.29035 0.25245 0.0
H6028 H 0.53295 0.32775 0.23973 0.0
H6029 H 0.50425 0.15495 0.27122 0.0
H6030 H 0.62204 0.97336 0.03845 0.0
H6031 H 0.60128 0.97698 0.02284 0.0
H6032 H 0.48049 0.00074 0.03099 0.0
H6033 H 0.50127 -0.00307 0.04681 0.0
H6034 H 0.46903 0.97701 0.01719 0.0
H6035 H 0.5633 0.02727 0.02296 0.0
H6036 H 0.62977 0.0423 0.02818 0.0
H6037 H 0.70383 0.01186 0.00909 0.0
H6038 H 0.63785 -0.00356 1.00384 0.0
H6039 H 0.41254 0.01348 0.97517 0.0
H6040 H 0.43341 0.00933 0.99073 0.0
H6041 H 0.55483 0.9865 0.98235 0.0
H6042 H 0.53403 0.99096 0.96657 0.0
H6043 H 0.56624 0.0095 0.99626 0.0
H6044 H 0.47223 0.95935 0.99042 0.0
H6045 H 0.40595 0.94418 0.98519 0.0
H6046 H 0.33163 0.97418 1.0044 0.0
H6047 H 0.39741 0.98974 0.00965 0.0
C6048 C 0.59096 0.97936 0.03696 0.0
C6049 C 0.56333 0.98489 0.04391 0.0
C6050 C 0.5792 0.9815 0.02799 0.0
C6051 C 0.53959 0.98943 0.02566 0.0
C6052 C 0.51135 0.99465 0.03259 0.0
C6053 C 0.52318 0.99247 0.04163 0.0
C6054 C 0.5281 0.99212 0.016 0.0
C6055 C 0.48998 0.98438 0.01265 0.0
C6056 C 0.55595 0.00125 0.00995 0.0
C6057 C 0.59566 0.01058 0.01306 0.0
C6058 C 0.5938 0.02368 0.01992 0.0
C6059 C 0.63138 0.03228 0.02288 0.0
C6060 C 0.67101 0.028 0.01899 0.0
C6061 C 0.67311 0.01514 0.01211 0.0
C6062 C 0.63562 0.00648 0.00913 0.0
C6063 C 0.44375 0.00755 0.9766 0.0
C6064 C 0.47157 0.00249 0.9696 0.0
C6065 C 0.45557 0.00509 0.98555 0.0
C6066 C 0.49542 -0.00272 0.9878 0.0
C6067 C 0.52378 0.99247 0.98082 0.0
C6068 C 0.51191 0.99499 0.9718 0.0
C6069 C 0.50711 0.99441 0.99745 0.0
C6070 C 0.54529 0.00213 1.00079 0.0
C6071 C 0.47933 0.98523 1.00349 0.0
C6072 C 0.43973 0.97583 1.00038 0.0
C6073 C 0.44172 0.96282 0.99348 0.0
C6074 C 0.40424 0.95413 0.99052 0.0
C6075 C 0.36459 0.95825 0.99445 0.0
C6076 C 0.36236 0.97102 1.00136 0.0
C6077 C 0.39974 0.97976 1.00434 0.0
H6078 H 0.33561 0.95151 0.99214 0.0
H6079 H 0.70007 0.03468 0.02129 0.0
loop_
_geom_bond_atom_site_label_1
_geom_bond_atom_site_label_2
_geom_bond_distance
_geom_bond_site_symmetry_2
_ccdc_geom_bond_type
Pr0 C2 2.880 . S
Pr0 O20 2.562 . S
Pr0 O21 2.490 . S
Pr0 O22 2.695 1_655 S
Pr0 O23 2.512 . S
Pr0 O25 2.437 . S
Pr0 O28 2.436 1_655 S
Pr0 O30 2.438 1_655 S
Pr1 C11 2.880 . S
Pr1 O22 2.436 . S
Pr1 O24 2.438 . S
Pr1 O26 2.562 . S
Pr1 O27 2.490 . S
Pr1 O28 2.695 . S
Pr1 O29 2.512 . S
Pr1 O31 2.437 . S
C2 Pr0 2.880 . S
C2 C3 1.491 . S
C2 O20 1.254 . S
C2 O21 1.225 . S
C3 C2 1.491 . S
C3 C4 1.392 . S
C3 C8 1.356 . S
C4 C3 1.392 . S
C4 C5 1.368 . S
C4 H32 0.929 . S
C5 C4 1.368 . S
C5 C6 1.386 . S
C5 H33 0.929 . S
C6 C5 1.386 . S
C6 C7 1.373 . S
C7 C6 1.373 . S
C7 C8 1.409 . S
C7 H34 0.931 . S
C8 C3 1.356 . S
C8 C7 1.409 . S
C8 H35 0.930 . S
C9 O22 1.270 . S
C9 O23 1.248 1_455 S
C10 O24 1.267 1_655 S
C10 O25 1.278 . S
C11 Pr1 2.880 . S
C11 C12 1.491 . S
C11 O26 1.254 . S
C11 O27 1.225 . S
C12 C11 1.491 . S
C12 C13 1.392 . S
C12 C17 1.356 . S
C13 C12 1.392 . S
C13 C14 1.368 . S
C13 H36 0.929 . S
C14 C13 1.368 . S
C14 C15 1.386 . S
C14 H37 0.929 . S
C15 C14 1.386 . S
C15 C16 1.373 . S
C16 C15 1.373 . S
C16 C17 1.409 . S
C16 H38 0.931 . S
C17 C12 1.356 . S
C17 C16 1.409 . S
C17 H39 0.930 . S
C18 O28 1.270 . S
C18 O29 1.248 . S
C19 O30 1.267 . S
C19 O31 1.278 . S
O20 Pr0 2.562 . S
O20 C2 1.254 . S
O21 Pr0 2.490 . S
O21 C2 1.225 . S
O22 Pr0 2.695 1_455 S
O22 Pr1 2.436 . S
O22 C9 1.270 . S
O23 Pr0 2.512 . S
O23 C9 1.248 1_655 S
O24 Pr1 2.438 . S
O24 C10 1.267 1_455 S
O25 Pr0 2.437 . S
O25 C10 1.278 . S
O26 Pr1 2.562 . S
O26 C11 1.254 . S
O27 Pr1 2.490 . S
O27 C11 1.225 . S
O28 Pr0 2.436 1_455 S
O28 Pr1 2.695 . S
O28 C18 1.270 . S
O29 Pr1 2.512 . S
O29 C18 1.248 . S
O30 Pr0 2.438 1_455 S
O30 C19 1.267 . S
O31 Pr1 2.437 . S
O31 C19 1.278 . S
H32 C4 0.929 . S
H33 C5 0.929 . S
H34 C7 0.931 . S
H35 C8 0.930 . S
H36 C13 0.929 . S
H37 C14 0.929 . S
H38 C16 0.931 . S
H39 C17 0.930 . S
Pr40 C42 2.880 . S
Pr40 O60 2.562 . S
Pr40 O61 2.490 . S
Pr40 O62 2.695 . S
Pr40 O63 2.512 . S
Pr40 O65 2.437 . S
Pr40 O68 2.436 . S
Pr40 O70 2.438 . S
Pr41 C51 2.880 . S
Pr41 O62 2.436 . S
Pr41 O64 2.438 . S
Pr41 O66 2.562 . S
Pr41 O67 2.490 . S
Pr41 O68 2.695 . S
Pr41 O69 2.512 . S
Pr41 O71 2.437 . S
C42 Pr40 2.880 . S
C42 C43 1.491 . S
C42 O60 1.254 . S
C42 O61 1.225 . S
C43 C42 1.491 . S
C43 C44 1.392 . S
C43 C48 1.356 . S
C44 C43 1.392 . S
C44 C45 1.368 . S
C44 H72 0.929 . S
C45 C44 1.368 . S
C45 C46 1.386 . S
C45 H73 0.929 . S
C46 C45 1.386 . S
C46 C47 1.373 . S
C47 C46 1.373 . S
C47 C48 1.409 . S
C47 H74 0.931 . S
C48 C43 1.356 . S
C48 C47 1.409 . S
C48 H75 0.930 . S
C49 O62 1.270 . S
C49 O63 1.248 . S
C50 O64 1.267 . S
C50 O65 1.278 . S
C51 Pr41 2.880 . S
C51 C52 1.491 . S
C51 O66 1.254 . S
C51 O67 1.225 . S
C52 C51 1.491 . S
C52 C53 1.392 . S
C52 C57 1.356 . S
C53 C52 1.392 . S
C53 C54 1.368 1_455 S
C53 H76 0.929 . S
C54 C53 1.368 1_655 S
C54 C55 1.386 . S
C54 H77 0.929 . S
C55 C54 1.386 . S
C55 C56 1.373 . S
C56 C55 1.373 . S
C56 C57 1.409 1_655 S
C56 H78 0.931 . S
C57 C52 1.356 . S
C57 C56 1.409 1_455 S
C57 H79 0.930 . S
C58 O68 1.270 . S
C58 O69 1.248 . S
C59 O70 1.267 . S
C59 O71 1.278 . S
O60 Pr40 2.562 . S
O60 C42 1.254 . S
O61 Pr40 2.490 . S
O61 C42 1.225 . S
O62 Pr40 2.695 . S
O62 Pr41 2.436 . S
O62 C49 1.270 . S
O63 Pr40 2.512 . S
O63 C49 1.248 . S
O64 Pr41 2.438 . S
O64 C50 1.267 . S
O65 Pr40 2.437 . S
O65 C50 1.278 . S
O66 Pr41 2.562 . S
O66 C51 1.254 . S
O67 Pr41 2.490 . S
O67 C51 1.225 . S
O68 Pr40 2.436 . S
O68 Pr41 2.695 . S
O68 C58 1.270 . S
O69 Pr41 2.512 . S
O69 C58 1.248 . S
O70 Pr40 2.438 . S
O70 C59 1.267 . S
O71 Pr41 2.437 . S
O71 C59 1.278 . S
H72 C44 0.929 . S
H73 C45 0.929 . S
H74 C47 0.931 . S
H75 C48 0.930 . S
H76 C53 0.929 . S
H77 C54 0.929 . S
H78 C56 0.931 . S
H79 C57 0.930 . S
Pr80 C82 2.880 . S
Pr80 O100 2.562 . S
Pr80 O101 2.490 . S
Pr80 O102 2.695 1_655 S
Pr80 O103 2.512 . S
Pr80 O105 2.437 . S
Pr80 O108 2.436 1_655 S
Pr80 O110 2.438 1_655 S
Pr81 C91 2.880 . S
Pr81 O102 2.436 . S
Pr81 O104 2.438 . S
Pr81 O106 2.562 . S
Pr81 O107 2.490 . S
Pr81 O108 2.695 . S
Pr81 O109 2.512 . S
Pr81 O111 2.437 . S
C82 Pr80 2.880 . S
C82 C83 1.491 . S
C82 O100 1.254 . S
C82 O101 1.225 . S
C83 C82 1.491 . S
C83 C84 1.392 . S
C83 C88 1.356 . S
C84 C83 1.392 . S
C84 C85 1.368 . S
C84 H112 0.929 . S
C85 C84 1.368 . S
C85 C86 1.386 . S
C85 H113 0.929 . S
C86 C85 1.386 . S
C86 C87 1.373 . S
C87 C86 1.373 . S
C87 C88 1.409 . S
C87 H114 0.931 . S
C88 C83 1.356 . S
C88 C87 1.409 . S
C88 H115 0.930 . S
C89 O102 1.270 . S
C89 O103 1.248 1_455 S
C90 O104 1.267 1_655 S
C90 O105 1.278 . S
C91 Pr81 2.880 . S
C91 C92 1.491 . S
C91 O106 1.254 . S
C91 O107 1.225 . S
C92 C91 1.491 . S
C92 C93 1.392 . S
C92 C97 1.356 . S
C93 C92 1.392 . S
C93 C94 1.368 . S
C93 H116 0.929 . S
C94 C93 1.368 . S
C94 C95 1.386 . S
C94 H117 0.929 . S
C95 C94 1.386 . S
C95 C96 1.373 . S
C96 C95 1.373 . S
C96 C97 1.409 . S
C96 H118 0.931 . S
C97 C92 1.356 . S
C97 C96 1.409 . S
C97 H119 0.930 . S
C98 O108 1.270 . S
C98 O109 1.248 . S
C99 O110 1.267 . S
C99 O111 1.278 . S
O100 Pr80 2.562 . S
O100 C82 1.254 . S
O101 Pr80 2.490 . S
O101 C82 1.225 . S
O102 Pr80 2.695 1_455 S
O102 Pr81 2.436 . S
O102 C89 1.270 . S
O103 Pr80 2.512 . S
O103 C89 1.248 1_655 S
O104 Pr81 2.438 . S
O104 C90 1.267 1_455 S
O105 Pr80 2.437 . S
O105 C90 1.278 . S
O106 Pr81 2.562 . S
O106 C91 1.254 . S
O107 Pr81 2.490 . S
O107 C91 1.225 . S
O108 Pr80 2.436 1_455 S
O108 Pr81 2.695 . S
O108 C98 1.270 . S
O109 Pr81 2.512 . S
O109 C98 1.248 . S
O110 Pr80 2.438 1_455 S
O110 C99 1.267 . S
O111 Pr81 2.437 . S
O111 C99 1.278 . S
H112 C84 0.929 . S
H113 C85 0.929 . S
H114 C87 0.931 . S
H115 C88 0.930 . S
H116 C93 0.929 . S
H117 C94 0.929 . S
H118 C96 0.931 . S
H119 C97 0.930 . S
Pr120 C122 2.880 . S
Pr120 O140 2.562 . S
Pr120 O141 2.490 . S
Pr120 O142 2.695 . S
Pr120 O143 2.512 . S
Pr120 O145 2.437 . S
Pr120 O148 2.436 . S
Pr120 O150 2.438 . S
Pr121 C131 2.880 . S
Pr121 O142 2.436 . S
Pr121 O144 2.438 . S
Pr121 O146 2.562 . S
Pr121 O147 2.490 . S
Pr121 O148 2.695 . S
Pr121 O149 2.512 . S
Pr121 O151 2.437 . S
C122 Pr120 2.880 . S
C122 C123 1.491 . S
C122 O140 1.254 . S
C122 O141 1.225 . S
C123 C122 1.491 . S
C123 C124 1.392 . S
C123 C128 1.356 . S
C124 C123 1.392 . S
C124 C125 1.368 . S
C124 H152 0.929 . S
C125 C124 1.368 . S
C125 C126 1.386 . S
C125 H153 0.929 . S
C126 C125 1.386 . S
C126 C127 1.373 . S
C127 C126 1.373 . S
C127 C128 1.409 . S
C127 H154 0.931 . S
C128 C123 1.356 . S
C128 C127 1.409 . S
C128 H155 0.930 . S
C129 O142 1.270 . S
C129 O143 1.248 . S
C130 O144 1.267 . S
C130 O145 1.278 . S
C131 Pr121 2.880 . S
C131 C132 1.491 . S
C131 O146 1.254 . S
C131 O147 1.225 . S
C132 C131 1.491 . S
C132 C133 1.392 . S
C132 C137 1.356 . S
C133 C132 1.392 . S
C133 C134 1.368 1_455 S
C133 H156 0.929 . S
C134 C133 1.368 1_655 S
C134 C135 1.386 . S
C134 H157 0.929 . S
C135 C134 1.386 . S
C135 C136 1.373 . S
C136 C135 1.373 . S
C136 C137 1.409 1_655 S
C136 H158 0.931 . S
C137 C132 1.356 . S
C137 C136 1.409 1_455 S
C137 H159 0.930 . S
C138 O148 1.270 . S
C138 O149 1.248 . S
C139 O150 1.267 . S
C139 O151 1.278 . S
O140 Pr120 2.562 . S
O140 C122 1.254 . S
O141 Pr120 2.490 . S
O141 C122 1.225 . S
O142 Pr120 2.695 . S
O142 Pr121 2.436 . S
O142 C129 1.270 . S
O143 Pr120 2.512 . S
O143 C129 1.248 . S
O144 Pr121 2.438 . S
O144 C130 1.267 . S
O145 Pr120 2.437 . S
O145 C130 1.278 . S
O146 Pr121 2.562 . S
O146 C131 1.254 . S
O147 Pr121 2.490 . S
O147 C131 1.225 . S
O148 Pr120 2.436 . S
O148 Pr121 2.695 . S
O148 C138 1.270 . S
O149 Pr121 2.512 . S
O149 C138 1.248 . S
O150 Pr120 2.438 . S
O150 C139 1.267 . S
O151 Pr121 2.437 . S
O151 C139 1.278 . S
H152 C124 0.929 . S
H153 C125 0.929 . S
H154 C127 0.931 . S
H155 C128 0.930 . S
H156 C133 0.929 . S
H157 C134 0.929 . S
H158 C136 0.931 . S
H159 C137 0.930 . S
Pr160 C162 2.880 . S
Pr160 O180 2.562 . S
Pr160 O181 2.490 . S
Pr160 O182 2.695 . S
Pr160 O183 2.512 . S
Pr160 O185 2.437 . S
Pr160 O188 2.436 . S
Pr160 O190 2.438 . S
Pr161 C171 2.880 . S
Pr161 O182 2.436 1_455 S
Pr161 O184 2.438 1_455 S
Pr161 O186 2.562 . S
Pr161 O187 2.490 . S
Pr161 O188 2.695 1_455 S
Pr161 O189 2.512 . S
Pr161 O191 2.437 . S
C162 Pr160 2.880 . S
C162 C163 1.491 . S
C162 O180 1.254 . S
C162 O181 1.225 . S
C163 C162 1.491 . S
C163 C164 1.392 . S
C163 C168 1.356 . S
C164 C163 1.392 . S
C164 C165 1.368 . S
C164 H192 0.929 . S
C165 C164 1.368 . S
C165 C166 1.386 . S
C165 H193 0.929 . S
C166 C165 1.386 . S
C166 C167 1.373 . S
C167 C166 1.373 . S
C167 C168 1.409 . S
C167 H194 0.931 . S
C168 C163 1.356 . S
C168 C167 1.409 . S
C168 H195 0.930 . S
C169 O182 1.270 . S
C169 O183 1.248 . S
C170 O184 1.267 . S
C170 O185 1.278 . S
C171 Pr161 2.880 . S
C171 C172 1.491 . S
C171 O186 1.254 . S
C171 O187 1.225 . S
C172 C171 1.491 . S
C172 C173 1.392 . S
C172 C177 1.356 . S
C173 C172 1.392 . S
C173 C174 1.368 . S
C173 H196 0.929 . S
C174 C173 1.368 . S
C174 C175 1.386 . S
C174 H197 0.929 . S
C175 C174 1.386 . S
C175 C176 1.373 . S
C176 C175 1.373 . S
C176 C177 1.409 . S
C176 H198 0.931 . S
C177 C172 1.356 . S
C177 C176 1.409 . S
C177 H199 0.930 . S
C178 O188 1.270 . S
C178 O189 1.248 1_655 S
C179 O190 1.267 1_455 S
C179 O191 1.278 . S
O180 Pr160 2.562 . S
O180 C162 1.254 . S
O181 Pr160 2.490 . S
O181 C162 1.225 . S
O182 Pr160 2.695 . S
O182 Pr161 2.436 1_655 S
O182 C169 1.270 . S
O183 Pr160 2.512 . S
O183 C169 1.248 . S
O184 Pr161 2.438 1_655 S
O184 C170 1.267 . S
O185 Pr160 2.437 . S
O185 C170 1.278 . S
O186 Pr161 2.562 . S
O186 C171 1.254 . S
O187 Pr161 2.490 . S
O187 C171 1.225 . S
O188 Pr160 2.436 . S
O188 Pr161 2.695 1_655 S
O188 C178 1.270 . S
O189 Pr161 2.512 . S
O189 C178 1.248 1_455 S
O190 Pr160 2.438 . S
O190 C179 1.267 1_655 S
O191 Pr161 2.437 . S
O191 C179 1.278 . S
H192 C164 0.929 . S
H193 C165 0.929 . S
H194 C167 0.931 . S
H195 C168 0.930 . S
H196 C173 0.929 . S
H197 C174 0.929 . S
H198 C176 0.931 . S
H199 C177 0.930 . S
Pr200 C202 2.880 . S
Pr200 O220 2.562 . S
Pr200 O221 2.490 . S
Pr200 O222 2.695 . S
Pr200 O223 2.512 . S
Pr200 O225 2.437 . S
Pr200 O228 2.436 . S
Pr200 O230 2.438 . S
Pr201 C211 2.880 . S
Pr201 O222 2.436 . S
Pr201 O224 2.438 . S
Pr201 O226 2.562 . S
Pr201 O227 2.490 . S
Pr201 O228 2.695 . S
Pr201 O229 2.512 . S
Pr201 O231 2.437 . S
C202 Pr200 2.880 . S
C202 C203 1.491 . S
C202 O220 1.254 . S
C202 O221 1.225 . S
C203 C202 1.491 . S
C203 C204 1.392 . S
C203 C208 1.356 . S
C204 C203 1.392 . S
C204 C205 1.368 1_655 S
C204 H232 0.929 . S
C205 C204 1.368 1_455 S
C205 C206 1.386 . S
C205 H233 0.929 . S
C206 C205 1.386 . S
C206 C207 1.373 . S
C207 C206 1.373 . S
C207 C208 1.409 1_455 S
C207 H234 0.931 . S
C208 C203 1.356 . S
C208 C207 1.409 1_655 S
C208 H235 0.930 . S
C209 O222 1.270 . S
C209 O223 1.248 . S
C210 O224 1.267 . S
C210 O225 1.278 . S
C211 Pr201 2.880 . S
C211 C212 1.491 . S
C211 O226 1.254 . S
C211 O227 1.225 . S
C212 C211 1.491 . S
C212 C213 1.392 . S
C212 C217 1.356 . S
C213 C212 1.392 . S
C213 C214 1.368 . S
C213 H236 0.929 . S
C214 C213 1.368 . S
C214 C215 1.386 . S
C214 H237 0.929 . S
C215 C214 1.386 . S
C215 C216 1.373 . S
C216 C215 1.373 . S
C216 C217 1.409 . S
C216 H238 0.931 . S
C217 C212 1.356 . S
C217 C216 1.409 . S
C217 H239 0.930 . S
C218 O228 1.270 . S
C218 O229 1.248 . S
C219 O230 1.267 . S
C219 O231 1.278 . S
O220 Pr200 2.562 . S
O220 C202 1.254 . S
O221 Pr200 2.490 . S
O221 C202 1.225 . S
O222 Pr200 2.695 . S
O222 Pr201 2.436 . S
O222 C209 1.270 . S
O223 Pr200 2.512 . S
O223 C209 1.248 . S
O224 Pr201 2.438 . S
O224 C210 1.267 . S
O225 Pr200 2.437 . S
O225 C210 1.278 . S
O226 Pr201 2.562 . S
O226 C211 1.254 . S
O227 Pr201 2.490 . S
O227 C211 1.225 . S
O228 Pr200 2.436 . S
O228 Pr201 2.695 . S
O228 C218 1.270 . S
O229 Pr201 2.512 . S
O229 C218 1.248 . S
O230 Pr200 2.438 . S
O230 C219 1.267 . S
O231 Pr201 2.437 . S
O231 C219 1.278 . S
H232 C204 0.929 . S
H233 C205 0.929 . S
H234 C207 0.931 . S
H235 C208 0.930 . S
H236 C213 0.929 . S
H237 C214 0.929 . S
H238 C216 0.931 . S
H239 C217 0.930 . S
Pr240 C242 2.880 . S
Pr240 O260 2.562 . S
Pr240 O261 2.490 . S
Pr240 O262 2.695 . S
Pr240 O263 2.512 . S
Pr240 O265 2.437 . S
Pr240 O268 2.436 . S
Pr240 O270 2.438 . S
Pr241 C251 2.880 . S
Pr241 O262 2.436 1_455 S
Pr241 O264 2.438 1_455 S
Pr241 O266 2.562 . S
Pr241 O267 2.490 . S
Pr241 O268 2.695 1_455 S
Pr241 O269 2.512 . S
Pr241 O271 2.437 . S
C242 Pr240 2.880 . S
C242 C243 1.491 . S
C242 O260 1.254 . S
C242 O261 1.225 . S
C243 C242 1.491 . S
C243 C244 1.392 . S
C243 C248 1.356 . S
C244 C243 1.392 . S
C244 C245 1.368 . S
C244 H272 0.929 . S
C245 C244 1.368 . S
C245 C246 1.386 . S
C245 H273 0.929 . S
C246 C245 1.386 . S
C246 C247 1.373 . S
C247 C246 1.373 . S
C247 C248 1.409 . S
C247 H274 0.931 . S
C248 C243 1.356 . S
C248 C247 1.409 . S
C248 H275 0.930 . S
C249 O262 1.270 . S
C249 O263 1.248 . S
C250 O264 1.267 . S
C250 O265 1.278 . S
C251 Pr241 2.880 . S
C251 C252 1.491 . S
C251 O266 1.254 . S
C251 O267 1.225 . S
C252 C251 1.491 . S
C252 C253 1.392 . S
C252 C257 1.356 . S
C253 C252 1.392 . S
C253 C254 1.368 . S
C253 H276 0.929 . S
C254 C253 1.368 . S
C254 C255 1.386 . S
C254 H277 0.929 . S
C255 C254 1.386 . S
C255 C256 1.373 . S
C256 C255 1.373 . S
C256 C257 1.409 . S
C256 H278 0.931 . S
C257 C252 1.356 . S
C257 C256 1.409 . S
C257 H279 0.930 . S
C258 O268 1.270 . S
C258 O269 1.248 1_655 S
C259 O270 1.267 1_455 S
C259 O271 1.278 . S
O260 Pr240 2.562 . S
O260 C242 1.254 . S
O261 Pr240 2.490 . S
O261 C242 1.225 . S
O262 Pr240 2.695 . S
O262 Pr241 2.436 1_655 S
O262 C249 1.270 . S
O263 Pr240 2.512 . S
O263 C249 1.248 . S
O264 Pr241 2.438 1_655 S
O264 C250 1.267 . S
O265 Pr240 2.437 . S
O265 C250 1.278 . S
O266 Pr241 2.562 . S
O266 C251 1.254 . S
O267 Pr241 2.490 . S
O267 C251 1.225 . S
O268 Pr240 2.436 . S
O268 Pr241 2.695 1_655 S
O268 C258 1.270 . S
O269 Pr241 2.512 . S
O269 C258 1.248 1_455 S
O270 Pr240 2.438 . S
O270 C259 1.267 1_655 S
O271 Pr241 2.437 . S
O271 C259 1.278 . S
H272 C244 0.929 . S
H273 C245 0.929 . S
H274 C247 0.931 . S
H275 C248 0.930 . S
H276 C253 0.929 . S
H277 C254 0.929 . S
H278 C256 0.931 . S
H279 C257 0.930 . S
Pr280 C282 2.880 . S
Pr280 O300 2.562 . S
Pr280 O301 2.490 . S
Pr280 O302 2.695 . S
Pr280 O303 2.512 . S
Pr280 O305 2.437 . S
Pr280 O308 2.436 . S
Pr280 O310 2.438 . S
Pr281 C291 2.880 . S
Pr281 O302 2.436 . S
Pr281 O304 2.438 . S
Pr281 O306 2.562 . S
Pr281 O307 2.490 . S
Pr281 O308 2.695 . S
Pr281 O309 2.512 . S
Pr281 O311 2.437 . S
C282 Pr280 2.880 . S
C282 C283 1.491 . S
C282 O300 1.254 . S
C282 O301 1.225 . S
C283 C282 1.491 . S
C283 C284 1.392 . S
C283 C288 1.356 . S
C284 C283 1.392 . S
C284 C285 1.368 1_655 S
C284 H312 0.929 . S
C285 C284 1.368 1_455 S
C285 C286 1.386 . S
C285 H313 0.929 . S
C286 C285 1.386 . S
C286 C287 1.373 . S
C287 C286 1.373 . S
C287 C288 1.409 1_455 S
C287 H314 0.931 . S
C288 C283 1.356 . S
C288 C287 1.409 1_655 S
C288 H315 0.930 . S
C289 O302 1.270 . S
C289 O303 1.248 . S
C290 O304 1.267 . S
C290 O305 1.278 . S
C291 Pr281 2.880 . S
C291 C292 1.491 . S
C291 O306 1.254 . S
C291 O307 1.225 . S
C292 C291 1.491 . S
C292 C293 1.392 . S
C292 C297 1.356 . S
C293 C292 1.392 . S
C293 C294 1.368 . S
C293 H316 0.929 . S
C294 C293 1.368 . S
C294 C295 1.386 . S
C294 H317 0.929 . S
C295 C294 1.386 . S
C295 C296 1.373 . S
C296 C295 1.373 . S
C296 C297 1.409 . S
C296 H318 0.931 . S
C297 C292 1.356 . S
C297 C296 1.409 . S
C297 H319 0.930 . S
C298 O308 1.270 . S
C298 O309 1.248 . S
C299 O310 1.267 . S
C299 O311 1.278 . S
O300 Pr280 2.562 . S
O300 C282 1.254 . S
O301 Pr280 2.490 . S
O301 C282 1.225 . S
O302 Pr280 2.695 . S
O302 Pr281 2.436 . S
O302 C289 1.270 . S
O303 Pr280 2.512 . S
O303 C289 1.248 . S
O304 Pr281 2.438 . S
O304 C290 1.267 . S
O305 Pr280 2.437 . S
O305 C290 1.278 . S
O306 Pr281 2.562 . S
O306 C291 1.254 . S
O307 Pr281 2.490 . S
O307 C291 1.225 . S
O308 Pr280 2.436 . S
O308 Pr281 2.695 . S
O308 C298 1.270 . S
O309 Pr281 2.512 . S
O309 C298 1.248 . S
O310 Pr280 2.438 . S
O310 C299 1.267 . S
O311 Pr281 2.437 . S
O311 C299 1.278 . S
H312 C284 0.929 . S
H313 C285 0.929 . S
H314 C287 0.931 . S
H315 C288 0.930 . S
H316 C293 0.929 . S
H317 C294 0.929 . S
H318 C296 0.931 . S
H319 C297 0.930 . S
Pr320 C322 2.880 1_545 S
Pr320 O340 2.562 1_545 S
Pr320 O341 2.490 . S
Pr320 O342 2.695 1_645 S
Pr320 O343 2.512 . S
Pr320 O345 2.437 1_545 S
Pr320 O348 2.436 1_645 S
Pr320 O350 2.438 1_655 S
Pr321 C331 2.880 . S
Pr321 O342 2.436 . S
Pr321 O344 2.438 . S
Pr321 O346 2.562 . S
Pr321 O347 2.490 . S
Pr321 O348 2.695 . S
Pr321 O349 2.512 . S
Pr321 O351 2.437 1_565 S
C322 Pr320 2.880 1_565 S
C322 C323 1.491 . S
C322 O340 1.254 . S
C322 O341 1.225 1_565 S
C323 C322 1.491 . S
C323 C324 1.392 . S
C323 C328 1.356 . S
C324 C323 1.392 . S
C324 C325 1.368 . S
C324 H352 0.925 1_565 S
C325 C324 1.368 . S
C325 C326 1.386 . S
C325 H353 0.929 . S
C326 C325 1.386 . S
C326 C327 1.373 . S
C327 C326 1.373 . S
C327 C328 1.409 . S
C327 H354 0.931 . S
C328 C323 1.356 . S
C328 C327 1.409 . S
C328 H355 0.930 . S
C329 O342 1.270 . S
C329 O343 1.248 1_465 S
C330 O344 1.267 1_655 S
C330 O345 1.278 . S
C331 Pr321 2.880 . S
C331 C332 1.491 . S
C331 O346 1.254 . S
C331 O347 1.225 . S
C332 C331 1.491 . S
C332 C333 1.392 . S
C332 C337 1.356 1_565 S
C333 C332 1.392 . S
C333 C334 1.380 . S
C333 H356 0.929 . S
C334 C333 1.380 . S
C334 C335 1.360 1_565 S
C334 H357 0.946 . S
C335 C334 1.360 1_545 S
C335 C336 1.373 . S
C336 C335 1.373 . S
C336 C337 1.409 . S
C336 H358 0.931 . S
C337 C332 1.356 1_545 S
C337 C336 1.409 . S
C337 H359 0.930 . S
C338 O348 1.270 . S
C338 O349 1.248 . S
C339 O350 1.267 . S
C339 O351 1.278 . S
O340 Pr320 2.562 1_565 S
O340 C322 1.254 . S
O341 Pr320 2.490 . S
O341 C322 1.225 1_545 S
O342 Pr320 2.695 1_465 S
O342 Pr321 2.436 . S
O342 C329 1.270 . S
O343 Pr320 2.512 . S
O343 C329 1.248 1_645 S
O344 Pr321 2.438 . S
O344 C330 1.267 1_455 S
O345 Pr320 2.437 1_565 S
O345 C330 1.278 . S
O346 Pr321 2.562 . S
O346 C331 1.254 . S
O347 Pr321 2.490 . S
O347 C331 1.225 . S
O348 Pr320 2.436 1_465 S
O348 Pr321 2.695 . S
O348 C338 1.270 . S
O349 Pr321 2.512 . S
O349 C338 1.248 . S
O350 Pr320 2.438 1_455 S
O350 C339 1.267 . S
O351 Pr321 2.437 1_545 S
O351 C339 1.278 . S
H352 C324 0.925 1_545 S
H353 C325 0.929 . S
H354 C327 0.931 . S
H355 C328 0.930 . S
H356 C333 0.929 . S
H357 C334 0.946 . S
H358 C336 0.931 . S
H359 C337 0.930 . S
Pr360 C362 2.880 . S
Pr360 O380 2.562 . S
Pr360 O381 2.490 . S
Pr360 O382 2.695 . S
Pr360 O383 2.512 . S
Pr360 O385 2.437 . S
Pr360 O388 2.436 . S
Pr360 O390 2.438 . S
Pr361 C371 2.880 . S
Pr361 O382 2.436 . S
Pr361 O384 2.438 . S
Pr361 O386 2.562 . S
Pr361 O387 2.490 . S
Pr361 O388 2.695 . S
Pr361 O389 2.512 . S
Pr361 O391 2.437 . S
C362 Pr360 2.880 . S
C362 C363 1.491 . S
C362 O380 1.254 . S
C362 O381 1.225 . S
C363 C362 1.491 . S
C363 C364 1.392 . S
C363 C368 1.356 . S
C364 C363 1.392 . S
C364 C365 1.368 . S
C364 H392 0.929 . S
C365 C364 1.368 . S
C365 C366 1.386 . S
C365 H393 0.929 . S
C366 C365 1.386 . S
C366 C367 1.373 . S
C367 C366 1.373 . S
C367 C368 1.409 . S
C367 H394 0.931 . S
C368 C363 1.356 . S
C368 C367 1.409 . S
C368 H395 0.930 . S
C369 O382 1.270 . S
C369 O383 1.248 . S
C370 O384 1.267 . S
C370 O385 1.278 . S
C371 Pr361 2.880 . S
C371 C372 1.491 . S
C371 O386 1.254 . S
C371 O387 1.225 . S
C372 C371 1.491 . S
C372 C373 1.392 . S
C372 C377 1.356 . S
C373 C372 1.392 . S
C373 C374 1.368 1_455 S
C373 H396 0.929 . S
C374 C373 1.368 1_655 S
C374 C375 1.386 . S
C374 H397 0.929 . S
C375 C374 1.386 . S
C375 C376 1.373 . S
C376 C375 1.373 . S
C376 C377 1.409 1_655 S
C376 H398 0.931 . S
C377 C372 1.356 . S
C377 C376 1.409 1_455 S
C377 H399 0.930 . S
C378 O388 1.270 . S
C378 O389 1.248 . S
C379 O390 1.267 . S
C379 O391 1.278 . S
O380 Pr360 2.562 . S
O380 C362 1.254 . S
O381 Pr360 2.490 . S
O381 C362 1.225 . S
O382 Pr360 2.695 . S
O382 Pr361 2.436 . S
O382 C369 1.270 . S
O383 Pr360 2.512 . S
O383 C369 1.248 . S
O384 Pr361 2.438 . S
O384 C370 1.267 . S
O385 Pr360 2.437 . S
O385 C370 1.278 . S
O386 Pr361 2.562 . S
O386 C371 1.254 . S
O387 Pr361 2.490 . S
O387 C371 1.225 . S
O388 Pr360 2.436 . S
O388 Pr361 2.695 . S
O388 C378 1.270 . S
O389 Pr361 2.512 . S
O389 C378 1.248 . S
O390 Pr360 2.438 . S
O390 C379 1.267 . S
O391 Pr361 2.437 . S
O391 C379 1.278 . S
H392 C364 0.929 . S
H393 C365 0.929 . S
H394 C367 0.931 . S
H395 C368 0.930 . S
H396 C373 0.929 . S
H397 C374 0.929 . S
H398 C376 0.931 . S
H399 C377 0.930 . S
Pr400 C402 2.880 . S
Pr400 O420 2.562 . S
Pr400 O421 2.490 . S
Pr400 O422 2.695 1_655 S
Pr400 O423 2.512 . S
Pr400 O425 2.437 . S
Pr400 O428 2.436 1_655 S
Pr400 O430 2.438 1_655 S
Pr401 C411 2.880 . S
Pr401 O422 2.436 . S
Pr401 O424 2.438 . S
Pr401 O426 2.562 . S
Pr401 O427 2.490 . S
Pr401 O428 2.695 . S
Pr401 O429 2.512 . S
Pr401 O431 2.437 . S
C402 Pr400 2.880 . S
C402 C403 1.491 . S
C402 O420 1.254 . S
C402 O421 1.225 . S
C403 C402 1.491 . S
C403 C404 1.392 . S
C403 C408 1.356 . S
C404 C403 1.392 . S
C404 C405 1.368 . S
C404 H432 0.929 . S
C405 C404 1.368 . S
C405 C406 1.386 . S
C405 H433 0.929 . S
C406 C405 1.386 . S
C406 C407 1.373 . S
C407 C406 1.373 . S
C407 C408 1.409 . S
C407 H434 0.931 . S
C408 C403 1.356 . S
C408 C407 1.409 . S
C408 H435 0.930 . S
C409 O422 1.270 . S
C409 O423 1.248 1_455 S
C410 O424 1.267 1_655 S
C410 O425 1.278 . S
C411 Pr401 2.880 . S
C411 C412 1.491 . S
C411 O426 1.254 . S
C411 O427 1.225 . S
C412 C411 1.491 . S
C412 C413 1.392 . S
C412 C417 1.356 . S
C413 C412 1.392 . S
C413 C414 1.368 . S
C413 H436 0.929 . S
C414 C413 1.368 . S
C414 C415 1.386 . S
C414 H437 0.929 . S
C415 C414 1.386 . S
C415 C416 1.373 . S
C416 C415 1.373 . S
C416 C417 1.409 . S
C416 H438 0.931 . S
C417 C412 1.356 . S
C417 C416 1.409 . S
C417 H439 0.930 . S
C418 O428 1.270 . S
C418 O429 1.248 . S
C419 O430 1.267 . S
C419 O431 1.278 . S
O420 Pr400 2.562 . S
O420 C402 1.254 . S
O421 Pr400 2.490 . S
O421 C402 1.225 . S
O422 Pr400 2.695 1_455 S
O422 Pr401 2.436 . S
O422 C409 1.270 . S
O423 Pr400 2.512 . S
O423 C409 1.248 1_655 S
O424 Pr401 2.438 . S
O424 C410 1.267 1_455 S
O425 Pr400 2.437 . S
O425 C410 1.278 . S
O426 Pr401 2.562 . S
O426 C411 1.254 . S
O427 Pr401 2.490 . S
O427 C411 1.225 . S
O428 Pr400 2.436 1_455 S
O428 Pr401 2.695 . S
O428 C418 1.270 . S
O429 Pr401 2.512 . S
O429 C418 1.248 . S
O430 Pr400 2.438 1_455 S
O430 C419 1.267 . S
O431 Pr401 2.437 . S
O431 C419 1.278 . S
H432 C404 0.929 . S
H433 C405 0.929 . S
H434 C407 0.931 . S
H435 C408 0.930 . S
H436 C413 0.929 . S
H437 C414 0.929 . S
H438 C416 0.931 . S
H439 C417 0.930 . S
Pr440 C442 2.880 1_545 S
Pr440 O460 2.562 1_545 S
Pr440 O461 2.490 . S
Pr440 O462 2.695 1_545 S
Pr440 O463 2.512 . S
Pr440 O465 2.437 1_545 S
Pr440 O468 2.436 1_545 S
Pr440 O470 2.438 . S
Pr441 C451 2.880 . S
Pr441 O462 2.436 . S
Pr441 O464 2.438 . S
Pr441 O466 2.562 . S
Pr441 O467 2.490 . S
Pr441 O468 2.695 . S
Pr441 O469 2.512 . S
Pr441 O471 2.437 1_565 S
C442 Pr440 2.880 1_565 S
C442 C443 1.491 . S
C442 O460 1.254 . S
C442 O461 1.225 1_565 S
C443 C442 1.491 . S
C443 C444 1.392 . S
C443 C448 1.356 . S
C444 C443 1.392 . S
C444 C445 1.368 . S
C444 H472 0.925 1_565 S
C445 C444 1.368 . S
C445 C446 1.386 . S
C445 H473 0.929 . S
C446 C445 1.386 . S
C446 C447 1.373 . S
C447 C446 1.373 . S
C447 C448 1.409 . S
C447 H474 0.931 . S
C448 C443 1.356 . S
C448 C447 1.409 . S
C448 H475 0.930 . S
C449 O462 1.270 . S
C449 O463 1.248 1_565 S
C450 O464 1.267 . S
C450 O465 1.278 . S
C451 Pr441 2.880 . S
C451 C452 1.491 . S
C451 O466 1.254 . S
C451 O467 1.225 . S
C452 C451 1.491 . S
C452 C453 1.392 . S
C452 C457 1.356 1_565 S
C453 C452 1.392 . S
C453 C454 1.380 1_455 S
C453 H476 0.929 . S
C454 C453 1.380 1_655 S
C454 C455 1.360 1_565 S
C454 H477 0.946 . S
C455 C454 1.360 1_545 S
C455 C456 1.373 . S
C456 C455 1.373 . S
C456 C457 1.409 1_655 S
C456 H478 0.931 . S
C457 C452 1.356 1_545 S
C457 C456 1.409 1_455 S
C457 H479 0.930 . S
C458 O468 1.270 . S
C458 O469 1.248 . S
C459 O470 1.267 . S
C459 O471 1.278 . S
O460 Pr440 2.562 1_565 S
O460 C442 1.254 . S
O461 Pr440 2.490 . S
O461 C442 1.225 1_545 S
O462 Pr440 2.695 1_565 S
O462 Pr441 2.436 . S
O462 C449 1.270 . S
O463 Pr440 2.512 . S
O463 C449 1.248 1_545 S
O464 Pr441 2.438 . S
O464 C450 1.267 . S
O465 Pr440 2.437 1_565 S
O465 C450 1.278 . S
O466 Pr441 2.562 . S
O466 C451 1.254 . S
O467 Pr441 2.490 . S
O467 C451 1.225 . S
O468 Pr440 2.436 1_565 S
O468 Pr441 2.695 . S
O468 C458 1.270 . S
O469 Pr441 2.512 . S
O469 C458 1.248 . S
O470 Pr440 2.438 . S
O470 C459 1.267 . S
O471 Pr441 2.437 1_545 S
O471 C459 1.278 . S
H472 C444 0.925 1_545 S
H473 C445 0.929 . S
H474 C447 0.931 . S
H475 C448 0.930 . S
H476 C453 0.929 . S
H477 C454 0.946 . S
H478 C456 0.931 . S
H479 C457 0.930 . S
Pr480 C482 2.880 . S
Pr480 O500 2.562 . S
Pr480 O501 2.490 . S
Pr480 O502 2.695 . S
Pr480 O503 2.512 . S
Pr480 O505 2.437 1_545 S
Pr480 O508 2.436 . S
Pr480 O510 2.438 . S
Pr481 C491 2.880 1_565 S
Pr481 O502 2.436 1_465 S
Pr481 O504 2.438 1_455 S
Pr481 O506 2.562 1_565 S
Pr481 O507 2.490 . S
Pr481 O508 2.695 1_465 S
Pr481 O509 2.512 . S
Pr481 O511 2.437 1_565 S
C482 Pr480 2.880 . S
C482 C483 1.491 . S
C482 O500 1.254 . S
C482 O501 1.225 . S
C483 C482 1.491 . S
C483 C484 1.392 . S
C483 C488 1.356 1_545 S
C484 C483 1.392 . S
C484 C485 1.380 . S
C484 H512 0.929 . S
C485 C484 1.380 . S
C485 C486 1.360 1_545 S
C485 H513 0.946 . S
C486 C485 1.360 1_565 S
C486 C487 1.373 . S
C487 C486 1.373 . S
C487 C488 1.409 . S
C487 H514 0.931 . S
C488 C483 1.356 1_565 S
C488 C487 1.409 . S
C488 H515 0.930 . S
C489 O502 1.270 . S
C489 O503 1.248 . S
C490 O504 1.267 . S
C490 O505 1.278 . S
C491 Pr481 2.880 1_545 S
C491 C492 1.491 . S
C491 O506 1.254 . S
C491 O507 1.225 1_545 S
C492 C491 1.491 . S
C492 C493 1.392 . S
C492 C497 1.356 . S
C493 C492 1.392 . S
C493 C494 1.368 . S
C493 H516 0.925 1_545 S
C494 C493 1.368 . S
C494 C495 1.386 . S
C494 H517 0.929 . S
C495 C494 1.386 . S
C495 C496 1.373 . S
C496 C495 1.373 . S
C496 C497 1.409 . S
C496 H518 0.931 . S
C497 C492 1.356 . S
C497 C496 1.409 . S
C497 H519 0.930 . S
C498 O508 1.270 . S
C498 O509 1.248 1_645 S
C499 O510 1.267 1_455 S
C499 O511 1.278 . S
O500 Pr480 2.562 . S
O500 C482 1.254 . S
O501 Pr480 2.490 . S
O501 C482 1.225 . S
O502 Pr480 2.695 . S
O502 Pr481 2.436 1_645 S
O502 C489 1.270 . S
O503 Pr480 2.512 . S
O503 C489 1.248 . S
O504 Pr481 2.438 1_655 S
O504 C490 1.267 . S
O505 Pr480 2.437 1_565 S
O505 C490 1.278 . S
O506 Pr481 2.562 1_545 S
O506 C491 1.254 . S
O507 Pr481 2.490 . S
O507 C491 1.225 1_565 S
O508 Pr480 2.436 . S
O508 Pr481 2.695 1_645 S
O508 C498 1.270 . S
O509 Pr481 2.512 . S
O509 C498 1.248 1_465 S
O510 Pr480 2.438 . S
O510 C499 1.267 1_655 S
O511 Pr481 2.437 1_545 S
O511 C499 1.278 . S
H512 C484 0.929 . S
H513 C485 0.946 . S
H514 C487 0.931 . S
H515 C488 0.930 . S
H516 C493 0.925 1_565 S
H517 C494 0.929 . S
H518 C496 0.931 . S
H519 C497 0.930 . S
Pr520 C522 2.880 . S
Pr520 O540 2.562 . S
Pr520 O541 2.490 . S
Pr520 O542 2.695 . S
Pr520 O543 2.512 . S
Pr520 O545 2.437 . S
Pr520 O548 2.436 . S
Pr520 O550 2.438 . S
Pr521 C531 2.880 . S
Pr521 O542 2.436 . S
Pr521 O544 2.438 . S
Pr521 O546 2.562 . S
Pr521 O547 2.490 . S
Pr521 O548 2.695 . S
Pr521 O549 2.512 . S
Pr521 O551 2.437 . S
C522 Pr520 2.880 . S
C522 C523 1.491 . S
C522 O540 1.254 . S
C522 O541 1.225 . S
C523 C522 1.491 . S
C523 C524 1.392 . S
C523 C528 1.356 . S
C524 C523 1.392 . S
C524 C525 1.368 1_655 S
C524 H552 0.929 . S
C525 C524 1.368 1_455 S
C525 C526 1.386 . S
C525 H553 0.929 . S
C526 C525 1.386 . S
C526 C527 1.373 . S
C527 C526 1.373 . S
C527 C528 1.409 1_455 S
C527 H554 0.931 . S
C528 C523 1.356 . S
C528 C527 1.409 1_655 S
C528 H555 0.930 . S
C529 O542 1.270 . S
C529 O543 1.248 . S
C530 O544 1.267 . S
C530 O545 1.278 . S
C531 Pr521 2.880 . S
C531 C532 1.491 . S
C531 O546 1.254 . S
C531 O547 1.225 . S
C532 C531 1.491 . S
C532 C533 1.392 . S
C532 C537 1.356 . S
C533 C532 1.392 . S
C533 C534 1.368 . S
C533 H556 0.929 . S
C534 C533 1.368 . S
C534 C535 1.386 . S
C534 H557 0.929 . S
C535 C534 1.386 . S
C535 C536 1.373 . S
C536 C535 1.373 . S
C536 C537 1.409 . S
C536 H558 0.931 . S
C537 C532 1.356 . S
C537 C536 1.409 . S
C537 H559 0.930 . S
C538 O548 1.270 . S
C538 O549 1.248 . S
C539 O550 1.267 . S
C539 O551 1.278 . S
O540 Pr520 2.562 . S
O540 C522 1.254 . S
O541 Pr520 2.490 . S
O541 C522 1.225 . S
O542 Pr520 2.695 . S
O542 Pr521 2.436 . S
O542 C529 1.270 . S
O543 Pr520 2.512 . S
O543 C529 1.248 . S
O544 Pr521 2.438 . S
O544 C530 1.267 . S
O545 Pr520 2.437 . S
O545 C530 1.278 . S
O546 Pr521 2.562 . S
O546 C531 1.254 . S
O547 Pr521 2.490 . S
O547 C531 1.225 . S
O548 Pr520 2.436 . S
O548 Pr521 2.695 . S
O548 C538 1.270 . S
O549 Pr521 2.512 . S
O549 C538 1.248 . S
O550 Pr520 2.438 . S
O550 C539 1.267 . S
O551 Pr521 2.437 . S
O551 C539 1.278 . S
H552 C524 0.929 . S
H553 C525 0.929 . S
H554 C527 0.931 . S
H555 C528 0.930 . S
H556 C533 0.929 . S
H557 C534 0.929 . S
H558 C536 0.931 . S
H559 C537 0.930 . S
Pr560 C562 2.880 . S
Pr560 O580 2.562 . S
Pr560 O581 2.490 . S
Pr560 O582 2.695 . S
Pr560 O583 2.512 . S
Pr560 O585 2.437 . S
Pr560 O588 2.436 . S
Pr560 O590 2.438 . S
Pr561 C571 2.880 . S
Pr561 O582 2.436 1_455 S
Pr561 O584 2.438 1_455 S
Pr561 O586 2.562 . S
Pr561 O587 2.490 . S
Pr561 O588 2.695 1_455 S
Pr561 O589 2.512 . S
Pr561 O591 2.437 . S
C562 Pr560 2.880 . S
C562 C563 1.491 . S
C562 O580 1.254 . S
C562 O581 1.225 . S
C563 C562 1.491 . S
C563 C564 1.392 . S
C563 C568 1.356 . S
C564 C563 1.392 . S
C564 C565 1.368 . S
C564 H592 0.929 . S
C565 C564 1.368 . S
C565 C566 1.386 . S
C565 H593 0.929 . S
C566 C565 1.386 . S
C566 C567 1.373 . S
C567 C566 1.373 . S
C567 C568 1.409 . S
C567 H594 0.931 . S
C568 C563 1.356 . S
C568 C567 1.409 . S
C568 H595 0.930 . S
C569 O582 1.270 . S
C569 O583 1.248 . S
C570 O584 1.267 . S
C570 O585 1.278 . S
C571 Pr561 2.880 . S
C571 C572 1.491 . S
C571 O586 1.254 . S
C571 O587 1.225 . S
C572 C571 1.491 . S
C572 C573 1.392 . S
C572 C577 1.356 . S
C573 C572 1.392 . S
C573 C574 1.368 . S
C573 H596 0.929 . S
C574 C573 1.368 . S
C574 C575 1.386 . S
C574 H597 0.929 . S
C575 C574 1.386 . S
C575 C576 1.373 . S
C576 C575 1.373 . S
C576 C577 1.409 . S
C576 H598 0.931 . S
C577 C572 1.356 . S
C577 C576 1.409 . S
C577 H599 0.930 . S
C578 O588 1.270 . S
C578 O589 1.248 1_655 S
C579 O590 1.267 1_455 S
C579 O591 1.278 . S
O580 Pr560 2.562 . S
O580 C562 1.254 . S
O581 Pr560 2.490 . S
O581 C562 1.225 . S
O582 Pr560 2.695 . S
O582 Pr561 2.436 1_655 S
O582 C569 1.270 . S
O583 Pr560 2.512 . S
O583 C569 1.248 . S
O584 Pr561 2.438 1_655 S
O584 C570 1.267 . S
O585 Pr560 2.437 . S
O585 C570 1.278 . S
O586 Pr561 2.562 . S
O586 C571 1.254 . S
O587 Pr561 2.490 . S
O587 C571 1.225 . S
O588 Pr560 2.436 . S
O588 Pr561 2.695 1_655 S
O588 C578 1.270 . S
O589 Pr561 2.512 . S
O589 C578 1.248 1_455 S
O590 Pr560 2.438 . S
O590 C579 1.267 1_655 S
O591 Pr561 2.437 . S
O591 C579 1.278 . S
H592 C564 0.929 . S
H593 C565 0.929 . S
H594 C567 0.931 . S
H595 C568 0.930 . S
H596 C573 0.929 . S
H597 C574 0.929 . S
H598 C576 0.931 . S
H599 C577 0.930 . S
Pr600 C602 2.880 . S
Pr600 O620 2.562 . S
Pr600 O621 2.490 . S
Pr600 O622 2.695 . S
Pr600 O623 2.512 . S
Pr600 O625 2.437 1_545 S
Pr600 O628 2.436 . S
Pr600 O630 2.438 . S
Pr601 C611 2.880 1_565 S
Pr601 O622 2.436 1_565 S
Pr601 O624 2.438 . S
Pr601 O626 2.562 1_565 S
Pr601 O627 2.490 . S
Pr601 O628 2.695 1_565 S
Pr601 O629 2.512 . S
Pr601 O631 2.437 1_565 S
C602 Pr600 2.880 . S
C602 C603 1.491 . S
C602 O620 1.254 . S
C602 O621 1.225 . S
C603 C602 1.491 . S
C603 C604 1.392 . S
C603 C608 1.356 1_545 S
C604 C603 1.392 . S
C604 C605 1.380 1_655 S
C604 H632 0.929 . S
C605 C604 1.380 1_455 S
C605 C606 1.360 1_545 S
C605 H633 0.946 . S
C606 C605 1.360 1_565 S
C606 C607 1.373 . S
C607 C606 1.373 . S
C607 C608 1.409 1_455 S
C607 H634 0.931 . S
C608 C603 1.356 1_565 S
C608 C607 1.409 1_655 S
C608 H635 0.930 . S
C609 O622 1.270 . S
C609 O623 1.248 . S
C610 O624 1.267 . S
C610 O625 1.278 . S
C611 Pr601 2.880 1_545 S
C611 C612 1.491 . S
C611 O626 1.254 . S
C611 O627 1.225 1_545 S
C612 C611 1.491 . S
C612 C613 1.392 . S
C612 C617 1.356 . S
C613 C612 1.392 . S
C613 C614 1.368 . S
C613 H636 0.925 1_545 S
C614 C613 1.368 . S
C614 C615 1.386 . S
C614 H637 0.929 . S
C615 C614 1.386 . S
C615 C616 1.373 . S
C616 C615 1.373 . S
C616 C617 1.409 . S
C616 H638 0.931 . S
C617 C612 1.356 . S
C617 C616 1.409 . S
C617 H639 0.930 . S
C618 O628 1.270 . S
C618 O629 1.248 1_545 S
C619 O630 1.267 . S
C619 O631 1.278 . S
O620 Pr600 2.562 . S
O620 C602 1.254 . S
O621 Pr600 2.490 . S
O621 C602 1.225 . S
O622 Pr600 2.695 . S
O622 Pr601 2.436 1_545 S
O622 C609 1.270 . S
O623 Pr600 2.512 . S
O623 C609 1.248 . S
O624 Pr601 2.438 . S
O624 C610 1.267 . S
O625 Pr600 2.437 1_565 S
O625 C610 1.278 . S
O626 Pr601 2.562 1_545 S
O626 C611 1.254 . S
O627 Pr601 2.490 . S
O627 C611 1.225 1_565 S
O628 Pr600 2.436 . S
O628 Pr601 2.695 1_545 S
O628 C618 1.270 . S
O629 Pr601 2.512 . S
O629 C618 1.248 1_565 S
O630 Pr600 2.438 . S
O630 C619 1.267 . S
O631 Pr601 2.437 1_545 S
O631 C619 1.278 . S
H632 C604 0.929 . S
H633 C605 0.946 . S
H634 C607 0.931 . S
H635 C608 0.930 . S
H636 C613 0.925 1_565 S
H637 C614 0.929 . S
H638 C616 0.931 . S
H639 C617 0.930 . S
Pr640 C642 2.880 . S
Pr640 O660 2.562 . S
Pr640 O661 2.490 . S
Pr640 O662 2.695 . S
Pr640 O663 2.512 . S
Pr640 O665 2.437 . S
Pr640 O668 2.436 . S
Pr640 O670 2.438 . S
Pr641 C651 2.880 . S
Pr641 O662 2.436 . S
Pr641 O664 2.438 . S
Pr641 O666 2.562 . S
Pr641 O667 2.490 . S
Pr641 O668 2.695 . S
Pr641 O669 2.512 . S
Pr641 O671 2.437 . S
C642 Pr640 2.880 . S
C642 C643 1.491 . S
C642 O660 1.254 . S
C642 O661 1.225 . S
C643 C642 1.491 . S
C643 C644 1.392 . S
C643 C648 1.356 . S
C644 C643 1.392 . S
C644 C645 1.368 . S
C644 H672 0.929 . S
C645 C644 1.368 . S
C645 C646 1.386 . S
C645 H673 0.929 . S
C646 C645 1.386 . S
C646 C647 1.373 . S
C647 C646 1.373 . S
C647 C648 1.409 . S
C647 H674 0.931 . S
C648 C643 1.356 . S
C648 C647 1.409 . S
C648 H675 0.930 . S
C649 O662 1.270 . S
C649 O663 1.248 . S
C650 O664 1.267 . S
C650 O665 1.278 . S
C651 Pr641 2.880 . S
C651 C652 1.491 . S
C651 O666 1.254 . S
C651 O667 1.225 . S
C652 C651 1.491 . S
C652 C653 1.392 . S
C652 C657 1.356 . S
C653 C652 1.392 . S
C653 C654 1.368 . S
C653 H676 0.929 . S
C654 C653 1.368 . S
C654 C655 1.386 . S
C654 H677 0.929 . S
C655 C654 1.386 . S
C655 C656 1.373 . S
C656 C655 1.373 . S
C656 C657 1.409 . S
C656 H678 0.931 . S
C657 C652 1.356 . S
C657 C656 1.409 . S
C657 H679 0.930 . S
C658 O668 1.270 . S
C658 O669 1.248 . S
C659 O670 1.267 . S
C659 O671 1.278 . S
O660 Pr640 2.562 . S
O660 C642 1.254 . S
O661 Pr640 2.490 . S
O661 C642 1.225 . S
O662 Pr640 2.695 . S
O662 Pr641 2.436 . S
O662 C649 1.270 . S
O663 Pr640 2.512 . S
O663 C649 1.248 . S
O664 Pr641 2.438 . S
O664 C650 1.267 . S
O665 Pr640 2.437 . S
O665 C650 1.278 . S
O666 Pr641 2.562 . S
O666 C651 1.254 . S
O667 Pr641 2.490 . S
O667 C651 1.225 . S
O668 Pr640 2.436 . S
O668 Pr641 2.695 . S
O668 C658 1.270 . S
O669 Pr641 2.512 . S
O669 C658 1.248 . S
O670 Pr640 2.438 . S
O670 C659 1.267 . S
O671 Pr641 2.437 . S
O671 C659 1.278 . S
H672 C644 0.929 . S
H673 C645 0.929 . S
H674 C647 0.931 . S
H675 C648 0.930 . S
H676 C653 0.929 . S
H677 C654 0.929 . S
H678 C656 0.931 . S
H679 C657 0.930 . S
Pr680 C682 2.880 . S
Pr680 O700 2.562 . S
Pr680 O701 2.490 . S
Pr680 O702 2.695 . S
Pr680 O703 2.512 . S
Pr680 O705 2.437 . S
Pr680 O708 2.436 . S
Pr680 O710 2.438 . S
Pr681 C691 2.880 . S
Pr681 O702 2.436 . S
Pr681 O704 2.438 . S
Pr681 O706 2.562 . S
Pr681 O707 2.490 . S
Pr681 O708 2.695 . S
Pr681 O709 2.512 . S
Pr681 O711 2.437 . S
C682 Pr680 2.880 . S
C682 C683 1.491 . S
C682 O700 1.254 . S
C682 O701 1.225 . S
C683 C682 1.491 . S
C683 C684 1.392 . S
C683 C688 1.356 . S
C684 C683 1.392 . S
C684 C685 1.368 . S
C684 H712 0.929 . S
C685 C684 1.368 . S
C685 C686 1.386 . S
C685 H713 0.929 . S
C686 C685 1.386 . S
C686 C687 1.373 . S
C687 C686 1.373 . S
C687 C688 1.409 . S
C687 H714 0.931 . S
C688 C683 1.356 . S
C688 C687 1.409 . S
C688 H715 0.930 . S
C689 O702 1.270 . S
C689 O703 1.248 . S
C690 O704 1.267 . S
C690 O705 1.278 . S
C691 Pr681 2.880 . S
C691 C692 1.491 . S
C691 O706 1.254 . S
C691 O707 1.225 . S
C692 C691 1.491 . S
C692 C693 1.392 . S
C692 C697 1.356 . S
C693 C692 1.392 . S
C693 C694 1.368 . S
C693 H716 0.929 . S
C694 C693 1.368 . S
C694 C695 1.386 . S
C694 H717 0.929 . S
C695 C694 1.386 . S
C695 C696 1.373 . S
C696 C695 1.373 . S
C696 C697 1.409 . S
C696 H718 0.931 . S
C697 C692 1.356 . S
C697 C696 1.409 . S
C697 H719 0.930 . S
C698 O708 1.270 . S
C698 O709 1.248 . S
C699 O710 1.267 . S
C699 O711 1.278 . S
O700 Pr680 2.562 . S
O700 C682 1.254 . S
O701 Pr680 2.490 . S
O701 C682 1.225 . S
O702 Pr680 2.695 . S
O702 Pr681 2.436 . S
O702 C689 1.270 . S
O703 Pr680 2.512 . S
O703 C689 1.248 . S
O704 Pr681 2.438 . S
O704 C690 1.267 . S
O705 Pr680 2.437 . S
O705 C690 1.278 . S
O706 Pr681 2.562 . S
O706 C691 1.254 . S
O707 Pr681 2.490 . S
O707 C691 1.225 . S
O708 Pr680 2.436 . S
O708 Pr681 2.695 . S
O708 C698 1.270 . S
O709 Pr681 2.512 . S
O709 C698 1.248 . S
O710 Pr680 2.438 . S
O710 C699 1.267 . S
O711 Pr681 2.437 . S
O711 C699 1.278 . S
H712 C684 0.929 . S
H713 C685 0.929 . S
H714 C687 0.931 . S
H715 C688 0.930 . S
H716 C693 0.929 . S
H717 C694 0.929 . S
H718 C696 0.931 . S
H719 C697 0.930 . S
Pr720 C722 2.880 . S
Pr720 O740 2.562 . S
Pr720 O741 2.490 . S
Pr720 O742 2.695 . S
Pr720 O743 2.512 . S
Pr720 O745 2.437 . S
Pr720 O748 2.436 . S
Pr720 O750 2.438 . S
Pr721 C731 2.880 . S
Pr721 O742 2.436 . S
Pr721 O744 2.438 . S
Pr721 O746 2.562 . S
Pr721 O747 2.490 . S
Pr721 O748 2.695 . S
Pr721 O749 2.512 . S
Pr721 O751 2.437 . S
C722 Pr720 2.880 . S
C722 C723 1.491 . S
C722 O740 1.254 . S
C722 O741 1.225 . S
C723 C722 1.491 . S
C723 C724 1.392 . S
C723 C728 1.356 . S
C724 C723 1.392 . S
C724 C725 1.368 . S
C724 H752 0.929 . S
C725 C724 1.368 . S
C725 C726 1.386 . S
C725 H753 0.929 . S
C726 C725 1.386 . S
C726 C727 1.373 . S
C727 C726 1.373 . S
C727 C728 1.409 . S
C727 H754 0.931 . S
C728 C723 1.356 . S
C728 C727 1.409 . S
C728 H755 0.930 . S
C729 O742 1.270 . S
C729 O743 1.248 . S
C730 O744 1.267 . S
C730 O745 1.278 . S
C731 Pr721 2.880 . S
C731 C732 1.491 . S
C731 O746 1.254 . S
C731 O747 1.225 . S
C732 C731 1.491 . S
C732 C733 1.392 . S
C732 C737 1.356 . S
C733 C732 1.392 . S
C733 C734 1.368 . S
C733 H756 0.929 . S
C734 C733 1.368 . S
C734 C735 1.386 . S
C734 H757 0.929 . S
C735 C734 1.386 . S
C735 C736 1.373 . S
C736 C735 1.373 . S
C736 C737 1.409 . S
C736 H758 0.931 . S
C737 C732 1.356 . S
C737 C736 1.409 . S
C737 H759 0.930 . S
C738 O748 1.270 . S
C738 O749 1.248 . S
C739 O750 1.267 . S
C739 O751 1.278 . S
O740 Pr720 2.562 . S
O740 C722 1.254 . S
O741 Pr720 2.490 . S
O741 C722 1.225 . S
O742 Pr720 2.695 . S
O742 Pr721 2.436 . S
O742 C729 1.270 . S
O743 Pr720 2.512 . S
O743 C729 1.248 . S
O744 Pr721 2.438 . S
O744 C730 1.267 . S
O745 Pr720 2.437 . S
O745 C730 1.278 . S
O746 Pr721 2.562 . S
O746 C731 1.254 . S
O747 Pr721 2.490 . S
O747 C731 1.225 . S
O748 Pr720 2.436 . S
O748 Pr721 2.695 . S
O748 C738 1.270 . S
O749 Pr721 2.512 . S
O749 C738 1.248 . S
O750 Pr720 2.438 . S
O750 C739 1.267 . S
O751 Pr721 2.437 . S
O751 C739 1.278 . S
H752 C724 0.929 . S
H753 C725 0.929 . S
H754 C727 0.931 . S
H755 C728 0.930 . S
H756 C733 0.929 . S
H757 C734 0.929 . S
H758 C736 0.931 . S
H759 C737 0.930 . S
Pr760 C762 2.880 . S
Pr760 O780 2.562 . S
Pr760 O781 2.490 . S
Pr760 O782 2.695 . S
Pr760 O783 2.512 . S
Pr760 O785 2.437 . S
Pr760 O788 2.436 . S
Pr760 O790 2.438 . S
Pr761 C771 2.880 . S
Pr761 O782 2.436 . S
Pr761 O784 2.438 . S
Pr761 O786 2.562 . S
Pr761 O787 2.490 . S
Pr761 O788 2.695 . S
Pr761 O789 2.512 . S
Pr761 O791 2.437 . S
C762 Pr760 2.880 . S
C762 C763 1.491 . S
C762 O780 1.254 . S
C762 O781 1.225 . S
C763 C762 1.491 . S
C763 C764 1.392 . S
C763 C768 1.356 . S
C764 C763 1.392 . S
C764 C765 1.368 . S
C764 H792 0.929 . S
C765 C764 1.368 . S
C765 C766 1.386 . S
C765 H793 0.929 . S
C766 C765 1.386 . S
C766 C767 1.373 . S
C767 C766 1.373 . S
C767 C768 1.409 . S
C767 H794 0.931 . S
C768 C763 1.356 . S
C768 C767 1.409 . S
C768 H795 0.930 . S
C769 O782 1.270 . S
C769 O783 1.248 . S
C770 O784 1.267 . S
C770 O785 1.278 . S
C771 Pr761 2.880 . S
C771 C772 1.491 . S
C771 O786 1.254 . S
C771 O787 1.225 . S
C772 C771 1.491 . S
C772 C773 1.392 . S
C772 C777 1.356 . S
C773 C772 1.392 . S
C773 C774 1.368 . S
C773 H796 0.929 . S
C774 C773 1.368 . S
C774 C775 1.386 . S
C774 H797 0.929 . S
C775 C774 1.386 . S
C775 C776 1.373 . S
C776 C775 1.373 . S
C776 C777 1.409 . S
C776 H798 0.931 . S
C777 C772 1.356 . S
C777 C776 1.409 . S
C777 H799 0.930 . S
C778 O788 1.270 . S
C778 O789 1.248 . S
C779 O790 1.267 . S
C779 O791 1.278 . S
O780 Pr760 2.562 . S
O780 C762 1.254 . S
O781 Pr760 2.490 . S
O781 C762 1.225 . S
O782 Pr760 2.695 . S
O782 Pr761 2.436 . S
O782 C769 1.270 . S
O783 Pr760 2.512 . S
O783 C769 1.248 . S
O784 Pr761 2.438 . S
O784 C770 1.267 . S
O785 Pr760 2.437 . S
O785 C770 1.278 . S
O786 Pr761 2.562 . S
O786 C771 1.254 . S
O787 Pr761 2.490 . S
O787 C771 1.225 . S
O788 Pr760 2.436 . S
O788 Pr761 2.695 . S
O788 C778 1.270 . S
O789 Pr761 2.512 . S
O789 C778 1.248 . S
O790 Pr760 2.438 . S
O790 C779 1.267 . S
O791 Pr761 2.437 . S
O791 C779 1.278 . S
H792 C764 0.929 . S
H793 C765 0.929 . S
H794 C767 0.931 . S
H795 C768 0.930 . S
H796 C773 0.929 . S
H797 C774 0.929 . S
H798 C776 0.931 . S
H799 C777 0.930 . S
Pr800 C802 2.880 . S
Pr800 O820 2.562 . S
Pr800 O821 2.490 . S
Pr800 O822 2.695 . S
Pr800 O823 2.512 . S
Pr800 O825 2.437 . S
Pr800 O828 2.436 . S
Pr800 O830 2.438 . S
Pr801 C811 2.880 . S
Pr801 O822 2.436 . S
Pr801 O824 2.438 . S
Pr801 O826 2.562 . S
Pr801 O827 2.490 . S
Pr801 O828 2.695 . S
Pr801 O829 2.512 . S
Pr801 O831 2.437 . S
C802 Pr800 2.880 . S
C802 C803 1.491 . S
C802 O820 1.254 . S
C802 O821 1.225 . S
C803 C802 1.491 . S
C803 C804 1.392 . S
C803 C808 1.356 . S
C804 C803 1.392 . S
C804 C805 1.368 . S
C804 H832 0.929 . S
C805 C804 1.368 . S
C805 C806 1.386 . S
C805 H833 0.929 . S
C806 C805 1.386 . S
C806 C807 1.373 . S
C807 C806 1.373 . S
C807 C808 1.409 . S
C807 H834 0.931 . S
C808 C803 1.356 . S
C808 C807 1.409 . S
C808 H835 0.930 . S
C809 O822 1.270 . S
C809 O823 1.248 . S
C810 O824 1.267 . S
C810 O825 1.278 . S
C811 Pr801 2.880 . S
C811 C812 1.491 . S
C811 O826 1.254 . S
C811 O827 1.225 . S
C812 C811 1.491 . S
C812 C813 1.392 . S
C812 C817 1.356 . S
C813 C812 1.392 . S
C813 C814 1.368 . S
C813 H836 0.929 . S
C814 C813 1.368 . S
C814 C815 1.386 . S
C814 H837 0.929 . S
C815 C814 1.386 . S
C815 C816 1.373 . S
C816 C815 1.373 . S
C816 C817 1.409 . S
C816 H838 0.931 . S
C817 C812 1.356 . S
C817 C816 1.409 . S
C817 H839 0.930 . S
C818 O828 1.270 . S
C818 O829 1.248 . S
C819 O830 1.267 . S
C819 O831 1.278 . S
O820 Pr800 2.562 . S
O820 C802 1.254 . S
O821 Pr800 2.490 . S
O821 C802 1.225 . S
O822 Pr800 2.695 . S
O822 Pr801 2.436 . S
O822 C809 1.270 . S
O823 Pr800 2.512 . S
O823 C809 1.248 . S
O824 Pr801 2.438 . S
O824 C810 1.267 . S
O825 Pr800 2.437 . S
O825 C810 1.278 . S
O826 Pr801 2.562 . S
O826 C811 1.254 . S
O827 Pr801 2.490 . S
O827 C811 1.225 . S
O828 Pr800 2.436 . S
O828 Pr801 2.695 . S
O828 C818 1.270 . S
O829 Pr801 2.512 . S
O829 C818 1.248 . S
O830 Pr800 2.438 . S
O830 C819 1.267 . S
O831 Pr801 2.437 . S
O831 C819 1.278 . S
H832 C804 0.929 . S
H833 C805 0.929 . S
H834 C807 0.931 . S
H835 C808 0.930 . S
H836 C813 0.929 . S
H837 C814 0.929 . S
H838 C816 0.931 . S
H839 C817 0.930 . S
Pr840 C842 2.880 . S
Pr840 O860 2.562 . S
Pr840 O861 2.490 . S
Pr840 O862 2.695 . S
Pr840 O863 2.512 . S
Pr840 O865 2.437 . S
Pr840 O868 2.436 . S
Pr840 O870 2.438 . S
Pr841 C851 2.880 . S
Pr841 O862 2.436 . S
Pr841 O864 2.438 . S
Pr841 O866 2.562 . S
Pr841 O867 2.490 . S
Pr841 O868 2.695 . S
Pr841 O869 2.512 . S
Pr841 O871 2.437 . S
C842 Pr840 2.880 . S
C842 C843 1.491 . S
C842 O860 1.254 . S
C842 O861 1.225 . S
C843 C842 1.491 . S
C843 C844 1.392 . S
C843 C848 1.356 . S
C844 C843 1.392 . S
C844 C845 1.368 . S
C844 H872 0.929 . S
C845 C844 1.368 . S
C845 C846 1.386 . S
C845 H873 0.929 . S
C846 C845 1.386 . S
C846 C847 1.373 . S
C847 C846 1.373 . S
C847 C848 1.409 . S
C847 H874 0.931 . S
C848 C843 1.356 . S
C848 C847 1.409 . S
C848 H875 0.930 . S
C849 O862 1.270 . S
C849 O863 1.248 . S
C850 O864 1.267 . S
C850 O865 1.278 . S
C851 Pr841 2.880 . S
C851 C852 1.491 . S
C851 O866 1.254 . S
C851 O867 1.225 . S
C852 C851 1.491 . S
C852 C853 1.392 . S
C852 C857 1.356 . S
C853 C852 1.392 . S
C853 C854 1.368 . S
C853 H876 0.929 . S
C854 C853 1.368 . S
C854 C855 1.386 . S
C854 H877 0.929 . S
C855 C854 1.386 . S
C855 C856 1.373 . S
C856 C855 1.373 . S
C856 C857 1.409 . S
C856 H878 0.931 . S
C857 C852 1.356 . S
C857 C856 1.409 . S
C857 H879 0.930 . S
C858 O868 1.270 . S
C858 O869 1.248 . S
C859 O870 1.267 . S
C859 O871 1.278 . S
O860 Pr840 2.562 . S
O860 C842 1.254 . S
O861 Pr840 2.490 . S
O861 C842 1.225 . S
O862 Pr840 2.695 . S
O862 Pr841 2.436 . S
O862 C849 1.270 . S
O863 Pr840 2.512 . S
O863 C849 1.248 . S
O864 Pr841 2.438 . S
O864 C850 1.267 . S
O865 Pr840 2.437 . S
O865 C850 1.278 . S
O866 Pr841 2.562 . S
O866 C851 1.254 . S
O867 Pr841 2.490 . S
O867 C851 1.225 . S
O868 Pr840 2.436 . S
O868 Pr841 2.695 . S
O868 C858 1.270 . S
O869 Pr841 2.512 . S
O869 C858 1.248 . S
O870 Pr840 2.438 . S
O870 C859 1.267 . S
O871 Pr841 2.437 . S
O871 C859 1.278 . S
H872 C844 0.929 . S
H873 C845 0.929 . S
H874 C847 0.931 . S
H875 C848 0.930 . S
H876 C853 0.929 . S
H877 C854 0.929 . S
H878 C856 0.931 . S
H879 C857 0.930 . S
Pr880 C882 2.880 . S
Pr880 O900 2.562 . S
Pr880 O901 2.490 . S
Pr880 O902 2.695 . S
Pr880 O903 2.512 . S
Pr880 O905 2.437 . S
Pr880 O908 2.436 . S
Pr880 O910 2.438 . S
Pr881 C891 2.880 . S
Pr881 O902 2.436 . S
Pr881 O904 2.438 . S
Pr881 O906 2.562 . S
Pr881 O907 2.490 . S
Pr881 O908 2.695 . S
Pr881 O909 2.512 . S
Pr881 O911 2.437 . S
C882 Pr880 2.880 . S
C882 C883 1.491 . S
C882 O900 1.254 . S
C882 O901 1.225 . S
C883 C882 1.491 . S
C883 C884 1.392 . S
C883 C888 1.356 . S
C884 C883 1.392 . S
C884 C885 1.368 . S
C884 H912 0.929 . S
C885 C884 1.368 . S
C885 C886 1.386 . S
C885 H913 0.929 . S
C886 C885 1.386 . S
C886 C887 1.373 . S
C887 C886 1.373 . S
C887 C888 1.409 . S
C887 H914 0.931 . S
C888 C883 1.356 . S
C888 C887 1.409 . S
C888 H915 0.930 . S
C889 O902 1.270 . S
C889 O903 1.248 . S
C890 O904 1.267 . S
C890 O905 1.278 . S
C891 Pr881 2.880 . S
C891 C892 1.491 . S
C891 O906 1.254 . S
C891 O907 1.225 . S
C892 C891 1.491 . S
C892 C893 1.392 . S
C892 C897 1.356 . S
C893 C892 1.392 . S
C893 C894 1.368 . S
C893 H916 0.929 . S
C894 C893 1.368 . S
C894 C895 1.386 . S
C894 H917 0.929 . S
C895 C894 1.386 . S
C895 C896 1.373 . S
C896 C895 1.373 . S
C896 C897 1.409 . S
C896 H918 0.931 . S
C897 C892 1.356 . S
C897 C896 1.409 . S
C897 H919 0.930 . S
C898 O908 1.270 . S
C898 O909 1.248 . S
C899 O910 1.267 . S
C899 O911 1.278 . S
O900 Pr880 2.562 . S
O900 C882 1.254 . S
O901 Pr880 2.490 . S
O901 C882 1.225 . S
O902 Pr880 2.695 . S
O902 Pr881 2.436 . S
O902 C889 1.270 . S
O903 Pr880 2.512 . S
O903 C889 1.248 . S
O904 Pr881 2.438 . S
O904 C890 1.267 . S
O905 Pr880 2.437 . S
O905 C890 1.278 . S
O906 Pr881 2.562 . S
O906 C891 1.254 . S
O907 Pr881 2.490 . S
O907 C891 1.225 . S
O908 Pr880 2.436 . S
O908 Pr881 2.695 . S
O908 C898 1.270 . S
O909 Pr881 2.512 . S
O909 C898 1.248 . S
O910 Pr880 2.438 . S
O910 C899 1.267 . S
O911 Pr881 2.437 . S
O911 C899 1.278 . S
H912 C884 0.929 . S
H913 C885 0.929 . S
H914 C887 0.931 . S
H915 C888 0.930 . S
H916 C893 0.929 . S
H917 C894 0.929 . S
H918 C896 0.931 . S
H919 C897 0.930 . S
Pr920 C922 2.880 . S
Pr920 O940 2.562 . S
Pr920 O941 2.490 . S
Pr920 O942 2.695 . S
Pr920 O943 2.512 . S
Pr920 O945 2.437 . S
Pr920 O948 2.436 . S
Pr920 O950 2.438 . S
Pr921 C931 2.880 . S
Pr921 O942 2.436 . S
Pr921 O944 2.438 . S
Pr921 O946 2.562 . S
Pr921 O947 2.490 . S
Pr921 O948 2.695 . S
Pr921 O949 2.512 . S
Pr921 O951 2.437 . S
C922 Pr920 2.880 . S
C922 C923 1.491 . S
C922 O940 1.254 . S
C922 O941 1.225 . S
C923 C922 1.491 . S
C923 C924 1.392 . S
C923 C928 1.356 . S
C924 C923 1.392 . S
C924 C925 1.368 . S
C924 H952 0.929 . S
C925 C924 1.368 . S
C925 C926 1.386 . S
C925 H953 0.929 . S
C926 C925 1.386 . S
C926 C927 1.373 . S
C927 C926 1.373 . S
C927 C928 1.409 . S
C927 H954 0.931 . S
C928 C923 1.356 . S
C928 C927 1.409 . S
C928 H955 0.930 . S
C929 O942 1.270 . S
C929 O943 1.248 . S
C930 O944 1.267 . S
C930 O945 1.278 . S
C931 Pr921 2.880 . S
C931 C932 1.491 . S
C931 O946 1.254 . S
C931 O947 1.225 . S
C932 C931 1.491 . S
C932 C933 1.392 . S
C932 C937 1.356 . S
C933 C932 1.392 . S
C933 C934 1.368 . S
C933 H956 0.929 . S
C934 C933 1.368 . S
C934 C935 1.386 . S
C934 H957 0.929 . S
C935 C934 1.386 . S
C935 C936 1.373 . S
C936 C935 1.373 . S
C936 C937 1.409 . S
C936 H958 0.931 . S
C937 C932 1.356 . S
C937 C936 1.409 . S
C937 H959 0.930 . S
C938 O948 1.270 . S
C938 O949 1.248 . S
C939 O950 1.267 . S
C939 O951 1.278 . S
O940 Pr920 2.562 . S
O940 C922 1.254 . S
O941 Pr920 2.490 . S
O941 C922 1.225 . S
O942 Pr920 2.695 . S
O942 Pr921 2.436 . S
O942 C929 1.270 . S
O943 Pr920 2.512 . S
O943 C929 1.248 . S
O944 Pr921 2.438 . S
O944 C930 1.267 . S
O945 Pr920 2.437 . S
O945 C930 1.278 . S
O946 Pr921 2.562 . S
O946 C931 1.254 . S
O947 Pr921 2.490 . S
O947 C931 1.225 . S
O948 Pr920 2.436 . S
O948 Pr921 2.695 . S
O948 C938 1.270 . S
O949 Pr921 2.512 . S
O949 C938 1.248 . S
O950 Pr920 2.438 . S
O950 C939 1.267 . S
O951 Pr921 2.437 . S
O951 C939 1.278 . S
H952 C924 0.929 . S
H953 C925 0.929 . S
H954 C927 0.931 . S
H955 C928 0.930 . S
H956 C933 0.929 . S
H957 C934 0.929 . S
H958 C936 0.931 . S
H959 C937 0.930 . S
Pr960 C962 2.880 1_545 S
Pr960 O980 2.562 1_545 S
Pr960 O981 2.490 . S
Pr960 O982 2.695 1_545 S
Pr960 O983 2.512 . S
Pr960 O985 2.437 1_545 S
Pr960 O988 2.436 1_545 S
Pr960 O990 2.438 . S
Pr961 C971 2.880 . S
Pr961 O982 2.436 . S
Pr961 O984 2.438 . S
Pr961 O986 2.562 . S
Pr961 O987 2.490 . S
Pr961 O988 2.695 . S
Pr961 O989 2.512 . S
Pr961 O991 2.437 1_565 S
C962 Pr960 2.880 1_565 S
C962 C963 1.491 . S
C962 O980 1.254 . S
C962 O981 1.225 1_565 S
C963 C962 1.491 . S
C963 C964 1.392 . S
C963 C968 1.356 . S
C964 C963 1.392 . S
C964 C965 1.368 . S
C964 H992 0.925 1_565 S
C965 C964 1.368 . S
C965 C966 1.386 . S
C965 H993 0.929 . S
C966 C965 1.386 . S
C966 C967 1.373 . S
C967 C966 1.373 . S
C967 C968 1.409 . S
C967 H994 0.931 . S
C968 C963 1.356 . S
C968 C967 1.409 . S
C968 H995 0.930 . S
C969 O982 1.270 . S
C969 O983 1.248 1_565 S
C970 O984 1.267 . S
C970 O985 1.278 . S
C971 Pr961 2.880 . S
C971 C972 1.491 . S
C971 O986 1.254 . S
C971 O987 1.225 . S
C972 C971 1.491 . S
C972 C973 1.392 . S
C972 C977 1.356 1_565 S
C973 C972 1.392 . S
C973 C974 1.380 . S
C973 H996 0.929 . S
C974 C973 1.380 . S
C974 C975 1.360 1_565 S
C974 H997 0.946 . S
C975 C974 1.360 1_545 S
C975 C976 1.373 . S
C976 C975 1.373 . S
C976 C977 1.409 . S
C976 H998 0.931 . S
C977 C972 1.356 1_545 S
C977 C976 1.409 . S
C977 H999 0.930 . S
C978 O988 1.270 . S
C978 O989 1.248 . S
C979 O990 1.267 . S
C979 O991 1.278 . S
O980 Pr960 2.562 1_565 S
O980 C962 1.254 . S
O981 Pr960 2.490 . S
O981 C962 1.225 1_545 S
O982 Pr960 2.695 1_565 S
O982 Pr961 2.436 . S
O982 C969 1.270 . S
O983 Pr960 2.512 . S
O983 C969 1.248 1_545 S
O984 Pr961 2.438 . S
O984 C970 1.267 . S
O985 Pr960 2.437 1_565 S
O985 C970 1.278 . S
O986 Pr961 2.562 . S
O986 C971 1.254 . S
O987 Pr961 2.490 . S
O987 C971 1.225 . S
O988 Pr960 2.436 1_565 S
O988 Pr961 2.695 . S
O988 C978 1.270 . S
O989 Pr961 2.512 . S
O989 C978 1.248 . S
O990 Pr960 2.438 . S
O990 C979 1.267 . S
O991 Pr961 2.437 1_545 S
O991 C979 1.278 . S
H992 C964 0.925 1_545 S
H993 C965 0.929 . S
H994 C967 0.931 . S
H995 C968 0.930 . S
H996 C973 0.929 . S
H997 C974 0.946 . S
H998 C976 0.931 . S
H999 C977 0.930 . S
Pr1000 C1002 2.880 . S
Pr1000 O1020 2.562 . S
Pr1000 O1021 2.490 . S
Pr1000 O1022 2.695 . S
Pr1000 O1023 2.512 . S
Pr1000 O1025 2.437 . S
Pr1000 O1028 2.436 . S
Pr1000 O1030 2.438 . S
Pr1001 C1011 2.880 . S
Pr1001 O1022 2.436 . S
Pr1001 O1024 2.438 . S
Pr1001 O1026 2.562 . S
Pr1001 O1027 2.490 . S
Pr1001 O1028 2.695 . S
Pr1001 O1029 2.512 . S
Pr1001 O1031 2.437 . S
C1002 Pr1000 2.880 . S
C1002 C1003 1.491 . S
C1002 O1020 1.254 . S
C1002 O1021 1.225 . S
C1003 C1002 1.491 . S
C1003 C1004 1.392 . S
C1003 C1008 1.356 . S
C1004 C1003 1.392 . S
C1004 C1005 1.368 . S
C1004 H1032 0.929 . S
C1005 C1004 1.368 . S
C1005 C1006 1.386 . S
C1005 H1033 0.929 . S
C1006 C1005 1.386 . S
C1006 C1007 1.373 . S
C1007 C1006 1.373 . S
C1007 C1008 1.409 . S
C1007 H1034 0.931 . S
C1008 C1003 1.356 . S
C1008 C1007 1.409 . S
C1008 H1035 0.930 . S
C1009 O1022 1.270 . S
C1009 O1023 1.248 . S
C1010 O1024 1.267 . S
C1010 O1025 1.278 . S
C1011 Pr1001 2.880 . S
C1011 C1012 1.491 . S
C1011 O1026 1.254 . S
C1011 O1027 1.225 . S
C1012 C1011 1.491 . S
C1012 C1013 1.392 . S
C1012 C1017 1.356 . S
C1013 C1012 1.392 . S
C1013 C1014 1.368 . S
C1013 H1036 0.929 . S
C1014 C1013 1.368 . S
C1014 C1015 1.386 . S
C1014 H1037 0.929 . S
C1015 C1014 1.386 . S
C1015 C1016 1.373 . S
C1016 C1015 1.373 . S
C1016 C1017 1.409 . S
C1016 H1038 0.931 . S
C1017 C1012 1.356 . S
C1017 C1016 1.409 . S
C1017 H1039 0.930 . S
C1018 O1028 1.270 . S
C1018 O1029 1.248 . S
C1019 O1030 1.267 . S
C1019 O1031 1.278 . S
O1020 Pr1000 2.562 . S
O1020 C1002 1.254 . S
O1021 Pr1000 2.490 . S
O1021 C1002 1.225 . S
O1022 Pr1000 2.695 . S
O1022 Pr1001 2.436 . S
O1022 C1009 1.270 . S
O1023 Pr1000 2.512 . S
O1023 C1009 1.248 . S
O1024 Pr1001 2.438 . S
O1024 C1010 1.267 . S
O1025 Pr1000 2.437 . S
O1025 C1010 1.278 . S
O1026 Pr1001 2.562 . S
O1026 C1011 1.254 . S
O1027 Pr1001 2.490 . S
O1027 C1011 1.225 . S
O1028 Pr1000 2.436 . S
O1028 Pr1001 2.695 . S
O1028 C1018 1.270 . S
O1029 Pr1001 2.512 . S
O1029 C1018 1.248 . S
O1030 Pr1000 2.438 . S
O1030 C1019 1.267 . S
O1031 Pr1001 2.437 . S
O1031 C1019 1.278 . S
H1032 C1004 0.929 . S
H1033 C1005 0.929 . S
H1034 C1007 0.931 . S
H1035 C1008 0.930 . S
H1036 C1013 0.929 . S
H1037 C1014 0.929 . S
H1038 C1016 0.931 . S
H1039 C1017 0.930 . S
Pr1040 C1042 2.880 . S
Pr1040 O1060 2.562 . S
Pr1040 O1061 2.490 . S
Pr1040 O1062 2.695 . S
Pr1040 O1063 2.512 . S
Pr1040 O1065 2.437 . S
Pr1040 O1068 2.436 . S
Pr1040 O1070 2.438 . S
Pr1041 C1051 2.880 . S
Pr1041 O1062 2.436 . S
Pr1041 O1064 2.438 . S
Pr1041 O1066 2.562 . S
Pr1041 O1067 2.490 . S
Pr1041 O1068 2.695 . S
Pr1041 O1069 2.512 . S
Pr1041 O1071 2.437 . S
C1042 Pr1040 2.880 . S
C1042 C1043 1.491 . S
C1042 O1060 1.254 . S
C1042 O1061 1.225 . S
C1043 C1042 1.491 . S
C1043 C1044 1.392 . S
C1043 C1048 1.356 . S
C1044 C1043 1.392 . S
C1044 C1045 1.368 . S
C1044 H1072 0.929 . S
C1045 C1044 1.368 . S
C1045 C1046 1.386 . S
C1045 H1073 0.929 . S
C1046 C1045 1.386 . S
C1046 C1047 1.373 . S
C1047 C1046 1.373 . S
C1047 C1048 1.409 . S
C1047 H1074 0.931 . S
C1048 C1043 1.356 . S
C1048 C1047 1.409 . S
C1048 H1075 0.930 . S
C1049 O1062 1.270 . S
C1049 O1063 1.248 . S
C1050 O1064 1.267 . S
C1050 O1065 1.278 . S
C1051 Pr1041 2.880 . S
C1051 C1052 1.491 . S
C1051 O1066 1.254 . S
C1051 O1067 1.225 . S
C1052 C1051 1.491 . S
C1052 C1053 1.392 . S
C1052 C1057 1.356 . S
C1053 C1052 1.392 . S
C1053 C1054 1.368 . S
C1053 H1076 0.929 . S
C1054 C1053 1.368 . S
C1054 C1055 1.386 . S
C1054 H1077 0.929 . S
C1055 C1054 1.386 . S
C1055 C1056 1.373 . S
C1056 C1055 1.373 . S
C1056 C1057 1.409 . S
C1056 H1078 0.931 . S
C1057 C1052 1.356 . S
C1057 C1056 1.409 . S
C1057 H1079 0.930 . S
C1058 O1068 1.270 . S
C1058 O1069 1.248 . S
C1059 O1070 1.267 . S
C1059 O1071 1.278 . S
O1060 Pr1040 2.562 . S
O1060 C1042 1.254 . S
O1061 Pr1040 2.490 . S
O1061 C1042 1.225 . S
O1062 Pr1040 2.695 . S
O1062 Pr1041 2.436 . S
O1062 C1049 1.270 . S
O1063 Pr1040 2.512 . S
O1063 C1049 1.248 . S
O1064 Pr1041 2.438 . S
O1064 C1050 1.267 . S
O1065 Pr1040 2.437 . S
O1065 C1050 1.278 . S
O1066 Pr1041 2.562 . S
O1066 C1051 1.254 . S
O1067 Pr1041 2.490 . S
O1067 C1051 1.225 . S
O1068 Pr1040 2.436 . S
O1068 Pr1041 2.695 . S
O1068 C1058 1.270 . S
O1069 Pr1041 2.512 . S
O1069 C1058 1.248 . S
O1070 Pr1040 2.438 . S
O1070 C1059 1.267 . S
O1071 Pr1041 2.437 . S
O1071 C1059 1.278 . S
H1072 C1044 0.929 . S
H1073 C1045 0.929 . S
H1074 C1047 0.931 . S
H1075 C1048 0.930 . S
H1076 C1053 0.929 . S
H1077 C1054 0.929 . S
H1078 C1056 0.931 . S
H1079 C1057 0.930 . S
Pr1080 C1082 2.880 1_545 S
Pr1080 O1100 2.562 1_545 S
Pr1080 O1101 2.490 . S
Pr1080 O1102 2.695 1_545 S
Pr1080 O1103 2.512 . S
Pr1080 O1105 2.437 1_545 S
Pr1080 O1108 2.436 1_545 S
Pr1080 O1110 2.438 . S
Pr1081 C1091 2.880 . S
Pr1081 O1102 2.436 . S
Pr1081 O1104 2.438 . S
Pr1081 O1106 2.562 . S
Pr1081 O1107 2.490 . S
Pr1081 O1108 2.695 . S
Pr1081 O1109 2.512 . S
Pr1081 O1111 2.437 1_565 S
C1082 Pr1080 2.880 1_565 S
C1082 C1083 1.491 . S
C1082 O1100 1.254 . S
C1082 O1101 1.225 1_565 S
C1083 C1082 1.491 . S
C1083 C1084 1.392 . S
C1083 C1088 1.356 . S
C1084 C1083 1.392 . S
C1084 C1085 1.368 . S
C1084 H1112 0.925 1_565 S
C1085 C1084 1.368 . S
C1085 C1086 1.386 . S
C1085 H1113 0.929 . S
C1086 C1085 1.386 . S
C1086 C1087 1.373 . S
C1087 C1086 1.373 . S
C1087 C1088 1.409 . S
C1087 H1114 0.931 . S
C1088 C1083 1.356 . S
C1088 C1087 1.409 . S
C1088 H1115 0.930 . S
C1089 O1102 1.270 . S
C1089 O1103 1.248 1_565 S
C1090 O1104 1.267 . S
C1090 O1105 1.278 . S
C1091 Pr1081 2.880 . S
C1091 C1092 1.491 . S
C1091 O1106 1.254 . S
C1091 O1107 1.225 . S
C1092 C1091 1.491 . S
C1092 C1093 1.392 . S
C1092 C1097 1.356 1_565 S
C1093 C1092 1.392 . S
C1093 C1094 1.380 . S
C1093 H1116 0.929 . S
C1094 C1093 1.380 . S
C1094 C1095 1.360 1_565 S
C1094 H1117 0.946 . S
C1095 C1094 1.360 1_545 S
C1095 C1096 1.373 . S
C1096 C1095 1.373 . S
C1096 C1097 1.409 . S
C1096 H1118 0.931 . S
C1097 C1092 1.356 1_545 S
C1097 C1096 1.409 . S
C1097 H1119 0.930 . S
C1098 O1108 1.270 . S
C1098 O1109 1.248 . S
C1099 O1110 1.267 . S
C1099 O1111 1.278 . S
O1100 Pr1080 2.562 1_565 S
O1100 C1082 1.254 . S
O1101 Pr1080 2.490 . S
O1101 C1082 1.225 1_545 S
O1102 Pr1080 2.695 1_565 S
O1102 Pr1081 2.436 . S
O1102 C1089 1.270 . S
O1103 Pr1080 2.512 . S
O1103 C1089 1.248 1_545 S
O1104 Pr1081 2.438 . S
O1104 C1090 1.267 . S
O1105 Pr1080 2.437 1_565 S
O1105 C1090 1.278 . S
O1106 Pr1081 2.562 . S
O1106 C1091 1.254 . S
O1107 Pr1081 2.490 . S
O1107 C1091 1.225 . S
O1108 Pr1080 2.436 1_565 S
O1108 Pr1081 2.695 . S
O1108 C1098 1.270 . S
O1109 Pr1081 2.512 . S
O1109 C1098 1.248 . S
O1110 Pr1080 2.438 . S
O1110 C1099 1.267 . S
O1111 Pr1081 2.437 1_545 S
O1111 C1099 1.278 . S
H1112 C1084 0.925 1_545 S
H1113 C1085 0.929 . S
H1114 C1087 0.931 . S
H1115 C1088 0.930 . S
H1116 C1093 0.929 . S
H1117 C1094 0.946 . S
H1118 C1096 0.931 . S
H1119 C1097 0.930 . S
Pr1120 C1122 2.880 . S
Pr1120 O1140 2.562 . S
Pr1120 O1141 2.490 . S
Pr1120 O1142 2.695 . S
Pr1120 O1143 2.512 . S
Pr1120 O1145 2.437 1_545 S
Pr1120 O1148 2.436 . S
Pr1120 O1150 2.438 . S
Pr1121 C1131 2.880 1_565 S
Pr1121 O1142 2.436 1_565 S
Pr1121 O1144 2.438 . S
Pr1121 O1146 2.562 1_565 S
Pr1121 O1147 2.490 . S
Pr1121 O1148 2.695 1_565 S
Pr1121 O1149 2.512 . S
Pr1121 O1151 2.437 1_565 S
C1122 Pr1120 2.880 . S
C1122 C1123 1.491 . S
C1122 O1140 1.254 . S
C1122 O1141 1.225 . S
C1123 C1122 1.491 . S
C1123 C1124 1.392 . S
C1123 C1128 1.356 1_545 S
C1124 C1123 1.392 . S
C1124 C1125 1.380 . S
C1124 H1152 0.929 . S
C1125 C1124 1.380 . S
C1125 C1126 1.360 1_545 S
C1125 H1153 0.946 . S
C1126 C1125 1.360 1_565 S
C1126 C1127 1.373 . S
C1127 C1126 1.373 . S
C1127 C1128 1.409 . S
C1127 H1154 0.931 . S
C1128 C1123 1.356 1_565 S
C1128 C1127 1.409 . S
C1128 H1155 0.930 . S
C1129 O1142 1.270 . S
C1129 O1143 1.248 . S
C1130 O1144 1.267 . S
C1130 O1145 1.278 . S
C1131 Pr1121 2.880 1_545 S
C1131 C1132 1.491 . S
C1131 O1146 1.254 . S
C1131 O1147 1.225 1_545 S
C1132 C1131 1.491 . S
C1132 C1133 1.392 . S
C1132 C1137 1.356 . S
C1133 C1132 1.392 . S
C1133 C1134 1.368 . S
C1133 H1156 0.925 1_545 S
C1134 C1133 1.368 . S
C1134 C1135 1.386 . S
C1134 H1157 0.929 . S
C1135 C1134 1.386 . S
C1135 C1136 1.373 . S
C1136 C1135 1.373 . S
C1136 C1137 1.409 . S
C1136 H1158 0.931 . S
C1137 C1132 1.356 . S
C1137 C1136 1.409 . S
C1137 H1159 0.930 . S
C1138 O1148 1.270 . S
C1138 O1149 1.248 1_545 S
C1139 O1150 1.267 . S
C1139 O1151 1.278 . S
O1140 Pr1120 2.562 . S
O1140 C1122 1.254 . S
O1141 Pr1120 2.490 . S
O1141 C1122 1.225 . S
O1142 Pr1120 2.695 . S
O1142 Pr1121 2.436 1_545 S
O1142 C1129 1.270 . S
O1143 Pr1120 2.512 . S
O1143 C1129 1.248 . S
O1144 Pr1121 2.438 . S
O1144 C1130 1.267 . S
O1145 Pr1120 2.437 1_565 S
O1145 C1130 1.278 . S
O1146 Pr1121 2.562 1_545 S
O1146 C1131 1.254 . S
O1147 Pr1121 2.490 . S
O1147 C1131 1.225 1_565 S
O1148 Pr1120 2.436 . S
O1148 Pr1121 2.695 1_545 S
O1148 C1138 1.270 . S
O1149 Pr1121 2.512 . S
O1149 C1138 1.248 1_565 S
O1150 Pr1120 2.438 . S
O1150 C1139 1.267 . S
O1151 Pr1121 2.437 1_545 S
O1151 C1139 1.278 . S
H1152 C1124 0.929 . S
H1153 C1125 0.946 . S
H1154 C1127 0.931 . S
H1155 C1128 0.930 . S
H1156 C1133 0.925 1_565 S
H1157 C1134 0.929 . S
H1158 C1136 0.931 . S
H1159 C1137 0.930 . S
Pr1160 C1162 2.880 . S
Pr1160 O1180 2.562 . S
Pr1160 O1181 2.490 . S
Pr1160 O1182 2.695 . S
Pr1160 O1183 2.512 . S
Pr1160 O1185 2.437 . S
Pr1160 O1188 2.436 . S
Pr1160 O1190 2.438 . S
Pr1161 C1171 2.880 . S
Pr1161 O1182 2.436 . S
Pr1161 O1184 2.438 . S
Pr1161 O1186 2.562 . S
Pr1161 O1187 2.490 . S
Pr1161 O1188 2.695 . S
Pr1161 O1189 2.512 . S
Pr1161 O1191 2.437 . S
C1162 Pr1160 2.880 . S
C1162 C1163 1.491 . S
C1162 O1180 1.254 . S
C1162 O1181 1.225 . S
C1163 C1162 1.491 . S
C1163 C1164 1.392 . S
C1163 C1168 1.356 . S
C1164 C1163 1.392 . S
C1164 C1165 1.368 . S
C1164 H1192 0.929 . S
C1165 C1164 1.368 . S
C1165 C1166 1.386 . S
C1165 H1193 0.929 . S
C1166 C1165 1.386 . S
C1166 C1167 1.373 . S
C1167 C1166 1.373 . S
C1167 C1168 1.409 . S
C1167 H1194 0.931 . S
C1168 C1163 1.356 . S
C1168 C1167 1.409 . S
C1168 H1195 0.930 . S
C1169 O1182 1.270 . S
C1169 O1183 1.248 . S
C1170 O1184 1.267 . S
C1170 O1185 1.278 . S
C1171 Pr1161 2.880 . S
C1171 C1172 1.491 . S
C1171 O1186 1.254 . S
C1171 O1187 1.225 . S
C1172 C1171 1.491 . S
C1172 C1173 1.392 . S
C1172 C1177 1.356 . S
C1173 C1172 1.392 . S
C1173 C1174 1.368 . S
C1173 H1196 0.929 . S
C1174 C1173 1.368 . S
C1174 C1175 1.386 . S
C1174 H1197 0.929 . S
C1175 C1174 1.386 . S
C1175 C1176 1.373 . S
C1176 C1175 1.373 . S
C1176 C1177 1.409 . S
C1176 H1198 0.931 . S
C1177 C1172 1.356 . S
C1177 C1176 1.409 . S
C1177 H1199 0.930 . S
C1178 O1188 1.270 . S
C1178 O1189 1.248 . S
C1179 O1190 1.267 . S
C1179 O1191 1.278 . S
O1180 Pr1160 2.562 . S
O1180 C1162 1.254 . S
O1181 Pr1160 2.490 . S
O1181 C1162 1.225 . S
O1182 Pr1160 2.695 . S
O1182 Pr1161 2.436 . S
O1182 C1169 1.270 . S
O1183 Pr1160 2.512 . S
O1183 C1169 1.248 . S
O1184 Pr1161 2.438 . S
O1184 C1170 1.267 . S
O1185 Pr1160 2.437 . S
O1185 C1170 1.278 . S
O1186 Pr1161 2.562 . S
O1186 C1171 1.254 . S
O1187 Pr1161 2.490 . S
O1187 C1171 1.225 . S
O1188 Pr1160 2.436 . S
O1188 Pr1161 2.695 . S
O1188 C1178 1.270 . S
O1189 Pr1161 2.512 . S
O1189 C1178 1.248 . S
O1190 Pr1160 2.438 . S
O1190 C1179 1.267 . S
O1191 Pr1161 2.437 . S
O1191 C1179 1.278 . S
H1192 C1164 0.929 . S
H1193 C1165 0.929 . S
H1194 C1167 0.931 . S
H1195 C1168 0.930 . S
H1196 C1173 0.929 . S
H1197 C1174 0.929 . S
H1198 C1176 0.931 . S
H1199 C1177 0.930 . S
Pr1200 C1202 2.880 . S
Pr1200 O1220 2.562 . S
Pr1200 O1221 2.490 . S
Pr1200 O1222 2.695 . S
Pr1200 O1223 2.512 . S
Pr1200 O1225 2.437 . S
Pr1200 O1228 2.436 . S
Pr1200 O1230 2.438 . S
Pr1201 C1211 2.880 . S
Pr1201 O1222 2.436 . S
Pr1201 O1224 2.438 . S
Pr1201 O1226 2.562 . S
Pr1201 O1227 2.490 . S
Pr1201 O1228 2.695 . S
Pr1201 O1229 2.512 . S
Pr1201 O1231 2.437 . S
C1202 Pr1200 2.880 . S
C1202 C1203 1.491 . S
C1202 O1220 1.254 . S
C1202 O1221 1.225 . S
C1203 C1202 1.491 . S
C1203 C1204 1.392 . S
C1203 C1208 1.356 . S
C1204 C1203 1.392 . S
C1204 C1205 1.368 . S
C1204 H1232 0.929 . S
C1205 C1204 1.368 . S
C1205 C1206 1.386 . S
C1205 H1233 0.929 . S
C1206 C1205 1.386 . S
C1206 C1207 1.373 . S
C1207 C1206 1.373 . S
C1207 C1208 1.409 . S
C1207 H1234 0.931 . S
C1208 C1203 1.356 . S
C1208 C1207 1.409 . S
C1208 H1235 0.930 . S
C1209 O1222 1.270 . S
C1209 O1223 1.248 . S
C1210 O1224 1.267 . S
C1210 O1225 1.278 . S
C1211 Pr1201 2.880 . S
C1211 C1212 1.491 . S
C1211 O1226 1.254 . S
C1211 O1227 1.225 . S
C1212 C1211 1.491 . S
C1212 C1213 1.392 . S
C1212 C1217 1.356 . S
C1213 C1212 1.392 . S
C1213 C1214 1.368 . S
C1213 H1236 0.929 . S
C1214 C1213 1.368 . S
C1214 C1215 1.386 . S
C1214 H1237 0.929 . S
C1215 C1214 1.386 . S
C1215 C1216 1.373 . S
C1216 C1215 1.373 . S
C1216 C1217 1.409 . S
C1216 H1238 0.931 . S
C1217 C1212 1.356 . S
C1217 C1216 1.409 . S
C1217 H1239 0.930 . S
C1218 O1228 1.270 . S
C1218 O1229 1.248 . S
C1219 O1230 1.267 . S
C1219 O1231 1.278 . S
O1220 Pr1200 2.562 . S
O1220 C1202 1.254 . S
O1221 Pr1200 2.490 . S
O1221 C1202 1.225 . S
O1222 Pr1200 2.695 . S
O1222 Pr1201 2.436 . S
O1222 C1209 1.270 . S
O1223 Pr1200 2.512 . S
O1223 C1209 1.248 . S
O1224 Pr1201 2.438 . S
O1224 C1210 1.267 . S
O1225 Pr1200 2.437 . S
O1225 C1210 1.278 . S
O1226 Pr1201 2.562 . S
O1226 C1211 1.254 . S
O1227 Pr1201 2.490 . S
O1227 C1211 1.225 . S
O1228 Pr1200 2.436 . S
O1228 Pr1201 2.695 . S
O1228 C1218 1.270 . S
O1229 Pr1201 2.512 . S
O1229 C1218 1.248 . S
O1230 Pr1200 2.438 . S
O1230 C1219 1.267 . S
O1231 Pr1201 2.437 . S
O1231 C1219 1.278 . S
H1232 C1204 0.929 . S
H1233 C1205 0.929 . S
H1234 C1207 0.931 . S
H1235 C1208 0.930 . S
H1236 C1213 0.929 . S
H1237 C1214 0.929 . S
H1238 C1216 0.931 . S
H1239 C1217 0.930 . S
Pr1240 C1242 2.880 . S
Pr1240 O1260 2.562 . S
Pr1240 O1261 2.490 . S
Pr1240 O1262 2.695 . S
Pr1240 O1263 2.512 . S
Pr1240 O1265 2.437 1_545 S
Pr1240 O1268 2.436 . S
Pr1240 O1270 2.438 . S
Pr1241 C1251 2.880 1_565 S
Pr1241 O1262 2.436 1_565 S
Pr1241 O1264 2.438 . S
Pr1241 O1266 2.562 1_565 S
Pr1241 O1267 2.490 . S
Pr1241 O1268 2.695 1_565 S
Pr1241 O1269 2.512 . S
Pr1241 O1271 2.437 1_565 S
C1242 Pr1240 2.880 . S
C1242 C1243 1.491 . S
C1242 O1260 1.254 . S
C1242 O1261 1.225 . S
C1243 C1242 1.491 . S
C1243 C1244 1.392 . S
C1243 C1248 1.356 1_545 S
C1244 C1243 1.392 . S
C1244 C1245 1.380 . S
C1244 H1272 0.929 . S
C1245 C1244 1.380 . S
C1245 C1246 1.360 1_545 S
C1245 H1273 0.946 . S
C1246 C1245 1.360 1_565 S
C1246 C1247 1.373 . S
C1247 C1246 1.373 . S
C1247 C1248 1.409 . S
C1247 H1274 0.931 . S
C1248 C1243 1.356 1_565 S
C1248 C1247 1.409 . S
C1248 H1275 0.930 . S
C1249 O1262 1.270 . S
C1249 O1263 1.248 . S
C1250 O1264 1.267 . S
C1250 O1265 1.278 . S
C1251 Pr1241 2.880 1_545 S
C1251 C1252 1.491 . S
C1251 O1266 1.254 . S
C1251 O1267 1.225 1_545 S
C1252 C1251 1.491 . S
C1252 C1253 1.392 . S
C1252 C1257 1.356 . S
C1253 C1252 1.392 . S
C1253 C1254 1.368 . S
C1253 H1276 0.925 1_545 S
C1254 C1253 1.368 . S
C1254 C1255 1.386 . S
C1254 H1277 0.929 . S
C1255 C1254 1.386 . S
C1255 C1256 1.373 . S
C1256 C1255 1.373 . S
C1256 C1257 1.409 . S
C1256 H1278 0.931 . S
C1257 C1252 1.356 . S
C1257 C1256 1.409 . S
C1257 H1279 0.930 . S
C1258 O1268 1.270 . S
C1258 O1269 1.248 1_545 S
C1259 O1270 1.267 . S
C1259 O1271 1.278 . S
O1260 Pr1240 2.562 . S
O1260 C1242 1.254 . S
O1261 Pr1240 2.490 . S
O1261 C1242 1.225 . S
O1262 Pr1240 2.695 . S
O1262 Pr1241 2.436 1_545 S
O1262 C1249 1.270 . S
O1263 Pr1240 2.512 . S
O1263 C1249 1.248 . S
O1264 Pr1241 2.438 . S
O1264 C1250 1.267 . S
O1265 Pr1240 2.437 1_565 S
O1265 C1250 1.278 . S
O1266 Pr1241 2.562 1_545 S
O1266 C1251 1.254 . S
O1267 Pr1241 2.490 . S
O1267 C1251 1.225 1_565 S
O1268 Pr1240 2.436 . S
O1268 Pr1241 2.695 1_545 S
O1268 C1258 1.270 . S
O1269 Pr1241 2.512 . S
O1269 C1258 1.248 1_565 S
O1270 Pr1240 2.438 . S
O1270 C1259 1.267 . S
O1271 Pr1241 2.437 1_545 S
O1271 C1259 1.278 . S
H1272 C1244 0.929 . S
H1273 C1245 0.946 . S
H1274 C1247 0.931 . S
H1275 C1248 0.930 . S
H1276 C1253 0.925 1_565 S
H1277 C1254 0.929 . S
H1278 C1256 0.931 . S
H1279 C1257 0.930 . S
H1280 C1298 0.951 1_455 S
H1281 C1300 0.951 . S
H1282 C1302 0.950 . S
H1283 C1303 0.950 . S
H1284 C1305 0.950 . S
H1285 C1308 0.950 . S
H1286 C1309 0.950 . S
H1287 C1311 0.950 . S
H1288 C1312 0.950 . S
H1289 C1313 0.951 . S
H1290 C1315 0.951 . S
H1291 C1317 0.950 . S
H1292 C1318 0.950 . S
H1293 C1320 0.950 . S
H1294 C1323 0.950 . S
H1295 C1324 0.950 . S
H1296 C1326 0.950 . S
H1297 C1327 0.950 . S
C1298 H1280 0.951 1_655 S
C1298 C1299 1.366 . S
C1298 C1300 1.388 . S
C1299 C1298 1.366 . S
C1299 C1303 1.385 . S
C1300 H1281 0.951 . S
C1300 C1298 1.388 . S
C1300 C1301 1.366 . S
C1301 C1300 1.366 . S
C1301 C1302 1.414 . S
C1301 C1304 1.499 . S
C1302 H1282 0.950 . S
C1302 C1301 1.414 . S
C1302 C1303 1.374 . S
C1303 H1283 0.950 . S
C1303 C1299 1.385 . S
C1303 C1302 1.374 . S
C1304 C1301 1.499 . S
C1304 C1305 1.373 . S
C1304 C1306 1.389 . S
C1305 H1284 0.950 . S
C1305 C1304 1.373 . S
C1305 C1321 1.377 . S
C1306 C1304 1.389 . S
C1306 C1307 1.524 . S
C1306 C1320 1.377 . S
C1307 C1306 1.524 . S
C1307 C1308 1.397 . S
C1307 C1312 1.363 . S
C1308 H1285 0.950 . S
C1308 C1307 1.397 . S
C1308 C1309 1.334 . S
C1309 H1286 0.950 . S
C1309 C1308 1.334 . S
C1309 C1310 1.287 . S
C1310 C1309 1.287 . S
C1310 C1311 1.524 . S
C1310 H1329 0.913 . S
C1311 H1287 0.950 . S
C1311 C1310 1.524 . S
C1311 C1312 1.415 . S
C1312 H1288 0.950 . S
C1312 C1307 1.363 . S
C1312 C1311 1.415 . S
C1313 H1289 0.951 . S
C1313 C1314 1.366 . S
C1313 C1315 1.388 . S
C1314 C1313 1.366 . S
C1314 C1318 1.385 . S
C1315 H1290 0.951 . S
C1315 C1313 1.388 . S
C1315 C1316 1.366 . S
C1316 C1315 1.366 . S
C1316 C1317 1.414 . S
C1316 C1319 1.499 . S
C1317 H1291 0.950 . S
C1317 C1316 1.414 . S
C1317 C1318 1.374 . S
C1318 H1292 0.950 . S
C1318 C1314 1.385 . S
C1318 C1317 1.374 . S
C1319 C1316 1.499 . S
C1319 C1320 1.373 . S
C1319 C1321 1.389 . S
C1320 H1293 0.950 . S
C1320 C1306 1.377 . S
C1320 C1319 1.373 . S
C1321 C1305 1.377 . S
C1321 C1319 1.389 . S
C1321 C1322 1.524 . S
C1322 C1321 1.524 . S
C1322 C1323 1.397 . S
C1322 C1327 1.363 . S
C1323 H1294 0.950 . S
C1323 C1322 1.397 . S
C1323 C1324 1.334 . S
C1324 H1295 0.950 . S
C1324 C1323 1.334 . S
C1324 C1325 1.287 . S
C1325 C1324 1.287 . S
C1325 C1326 1.524 . S
C1325 H1328 0.999 . S
C1326 H1296 0.950 . S
C1326 C1325 1.524 . S
C1326 C1327 1.415 . S
C1327 H1297 0.950 . S
C1327 C1322 1.363 . S
C1327 C1326 1.415 . S
H1328 C1325 0.999 . S
H1329 C1310 0.913 . S
H1330 C1348 0.951 . S
H1331 C1350 0.951 . S
H1332 C1352 0.950 . S
H1333 C1353 0.950 . S
H1334 C1355 0.950 . S
H1335 C1358 0.950 . S
H1336 C1359 0.950 . S
H1337 C1361 0.950 . S
H1338 C1362 0.950 . S
H1339 C1363 0.951 . S
H1340 C1365 0.951 . S
H1341 C1367 0.950 . S
H1342 C1368 0.950 . S
H1343 C1370 0.950 . S
H1344 C1373 0.950 . S
H1345 C1374 0.950 . S
H1346 C1376 0.950 . S
H1347 C1377 0.950 . S
C1348 H1330 0.951 . S
C1348 C1349 1.366 . S
C1348 C1350 1.388 . S
C1349 C1348 1.366 . S
C1349 C1353 1.385 . S
C1350 H1331 0.951 . S
C1350 C1348 1.388 . S
C1350 C1351 1.366 . S
C1351 C1350 1.366 . S
C1351 C1352 1.414 . S
C1351 C1354 1.499 . S
C1352 H1332 0.950 . S
C1352 C1351 1.414 . S
C1352 C1353 1.374 . S
C1353 H1333 0.950 . S
C1353 C1349 1.385 . S
C1353 C1352 1.374 . S
C1354 C1351 1.499 . S
C1354 C1355 1.373 . S
C1354 C1356 1.389 . S
C1355 H1334 0.950 . S
C1355 C1354 1.373 . S
C1355 C1371 1.377 . S
C1356 C1354 1.389 . S
C1356 C1357 1.524 . S
C1356 C1370 1.377 . S
C1357 C1356 1.524 . S
C1357 C1358 1.397 . S
C1357 C1362 1.363 . S
C1358 H1335 0.950 . S
C1358 C1357 1.397 . S
C1358 C1359 1.334 . S
C1359 H1336 0.950 . S
C1359 C1358 1.334 . S
C1359 C1360 1.287 . S
C1360 C1359 1.287 . S
C1360 C1361 1.524 . S
C1360 H1379 0.913 . S
C1361 H1337 0.950 . S
C1361 C1360 1.524 . S
C1361 C1362 1.415 . S
C1362 H1338 0.950 . S
C1362 C1357 1.363 . S
C1362 C1361 1.415 . S
C1363 H1339 0.951 . S
C1363 C1364 1.366 . S
C1363 C1365 1.388 . S
C1364 C1363 1.366 . S
C1364 C1368 1.385 . S
C1365 H1340 0.951 . S
C1365 C1363 1.388 . S
C1365 C1366 1.366 . S
C1366 C1365 1.366 . S
C1366 C1367 1.414 . S
C1366 C1369 1.499 . S
C1367 H1341 0.950 . S
C1367 C1366 1.414 . S
C1367 C1368 1.374 . S
C1368 H1342 0.950 . S
C1368 C1364 1.385 . S
C1368 C1367 1.374 . S
C1369 C1366 1.499 . S
C1369 C1370 1.373 . S
C1369 C1371 1.389 . S
C1370 H1343 0.950 . S
C1370 C1356 1.377 . S
C1370 C1369 1.373 . S
C1371 C1355 1.377 . S
C1371 C1369 1.389 . S
C1371 C1372 1.524 . S
C1372 C1371 1.524 . S
C1372 C1373 1.397 . S
C1372 C1377 1.363 . S
C1373 H1344 0.950 . S
C1373 C1372 1.397 . S
C1373 C1374 1.334 . S
C1374 H1345 0.950 . S
C1374 C1373 1.334 . S
C1374 C1375 1.287 . S
C1375 C1374 1.287 . S
C1375 C1376 1.524 . S
C1375 H1378 0.999 . S
C1376 H1346 0.950 . S
C1376 C1375 1.524 . S
C1376 C1377 1.415 . S
C1377 H1347 0.950 . S
C1377 C1372 1.363 . S
C1377 C1376 1.415 . S
H1378 C1375 0.999 . S
H1379 C1360 0.913 . S
H1380 C1398 0.951 . S
H1381 C1400 0.951 . S
H1382 C1402 0.950 . S
H1383 C1403 0.950 . S
H1384 C1405 0.950 . S
H1385 C1408 0.950 . S
H1386 C1409 0.950 . S
H1387 C1411 0.950 . S
H1388 C1412 0.950 . S
H1389 C1413 0.951 1_455 S
H1390 C1415 0.951 . S
H1391 C1417 0.950 . S
H1392 C1418 0.950 . S
H1393 C1420 0.950 . S
H1394 C1423 0.950 . S
H1395 C1424 0.950 . S
H1396 C1426 0.950 . S
H1397 C1427 0.950 . S
C1398 H1380 0.951 . S
C1398 C1399 1.366 . S
C1398 C1400 1.388 . S
C1399 C1398 1.366 . S
C1399 C1403 1.385 . S
C1400 H1381 0.951 . S
C1400 C1398 1.388 . S
C1400 C1401 1.366 . S
C1401 C1400 1.366 . S
C1401 C1402 1.414 . S
C1401 C1404 1.499 . S
C1402 H1382 0.950 . S
C1402 C1401 1.414 . S
C1402 C1403 1.374 . S
C1403 H1383 0.950 . S
C1403 C1399 1.385 . S
C1403 C1402 1.374 . S
C1404 C1401 1.499 . S
C1404 C1405 1.373 . S
C1404 C1406 1.389 . S
C1405 H1384 0.950 . S
C1405 C1404 1.373 . S
C1405 C1421 1.377 . S
C1406 C1404 1.389 . S
C1406 C1407 1.524 . S
C1406 C1420 1.377 . S
C1407 C1406 1.524 . S
C1407 C1408 1.397 . S
C1407 C1412 1.363 . S
C1408 H1385 0.950 . S
C1408 C1407 1.397 . S
C1408 C1409 1.334 . S
C1409 H1386 0.950 . S
C1409 C1408 1.334 . S
C1409 C1410 1.287 . S
C1410 C1409 1.287 . S
C1410 C1411 1.524 . S
C1410 H1429 0.913 . S
C1411 H1387 0.950 . S
C1411 C1410 1.524 . S
C1411 C1412 1.415 . S
C1412 H1388 0.950 . S
C1412 C1407 1.363 . S
C1412 C1411 1.415 . S
C1413 H1389 0.951 1_655 S
C1413 C1414 1.366 . S
C1413 C1415 1.388 . S
C1414 C1413 1.366 . S
C1414 C1418 1.385 . S
C1415 H1390 0.951 . S
C1415 C1413 1.388 . S
C1415 C1416 1.366 . S
C1416 C1415 1.366 . S
C1416 C1417 1.414 . S
C1416 C1419 1.499 . S
C1417 H1391 0.950 . S
C1417 C1416 1.414 . S
C1417 C1418 1.374 . S
C1418 H1392 0.950 . S
C1418 C1414 1.385 . S
C1418 C1417 1.374 . S
C1419 C1416 1.499 . S
C1419 C1420 1.373 . S
C1419 C1421 1.389 . S
C1420 H1393 0.950 . S
C1420 C1406 1.377 . S
C1420 C1419 1.373 . S
C1421 C1405 1.377 . S
C1421 C1419 1.389 . S
C1421 C1422 1.524 . S
C1422 C1421 1.524 . S
C1422 C1423 1.397 . S
C1422 C1427 1.363 . S
C1423 H1394 0.950 . S
C1423 C1422 1.397 . S
C1423 C1424 1.334 . S
C1424 H1395 0.950 . S
C1424 C1423 1.334 . S
C1424 C1425 1.287 . S
C1425 C1424 1.287 . S
C1425 C1426 1.524 . S
C1425 H1428 0.999 . S
C1426 H1396 0.950 . S
C1426 C1425 1.524 . S
C1426 C1427 1.415 . S
C1427 H1397 0.950 . S
C1427 C1422 1.363 . S
C1427 C1426 1.415 . S
H1428 C1425 0.999 . S
H1429 C1410 0.913 . S
H1430 C1448 0.951 . S
H1431 C1450 0.951 . S
H1432 C1452 0.950 . S
H1433 C1453 0.950 . S
H1434 C1455 0.950 . S
H1435 C1458 0.950 . S
H1436 C1459 0.950 . S
H1437 C1461 0.950 . S
H1438 C1462 0.950 . S
H1439 C1463 0.951 . S
H1440 C1465 0.951 . S
H1441 C1467 0.950 . S
H1442 C1468 0.950 . S
H1443 C1470 0.950 . S
H1444 C1473 0.950 . S
H1445 C1474 0.950 . S
H1446 C1476 0.950 . S
H1447 C1477 0.950 . S
C1448 H1430 0.951 . S
C1448 C1449 1.366 . S
C1448 C1450 1.388 . S
C1449 C1448 1.366 . S
C1449 C1453 1.385 . S
C1450 H1431 0.951 . S
C1450 C1448 1.388 . S
C1450 C1451 1.366 . S
C1451 C1450 1.366 . S
C1451 C1452 1.414 . S
C1451 C1454 1.499 . S
C1452 H1432 0.950 . S
C1452 C1451 1.414 . S
C1452 C1453 1.374 . S
C1453 H1433 0.950 . S
C1453 C1449 1.385 . S
C1453 C1452 1.374 . S
C1454 C1451 1.499 . S
C1454 C1455 1.373 . S
C1454 C1456 1.389 . S
C1455 H1434 0.950 . S
C1455 C1454 1.373 . S
C1455 C1471 1.377 . S
C1456 C1454 1.389 . S
C1456 C1457 1.524 . S
C1456 C1470 1.377 . S
C1457 C1456 1.524 . S
C1457 C1458 1.397 . S
C1457 C1462 1.363 . S
C1458 H1435 0.950 . S
C1458 C1457 1.397 . S
C1458 C1459 1.334 . S
C1459 H1436 0.950 . S
C1459 C1458 1.334 . S
C1459 C1460 1.287 . S
C1460 C1459 1.287 . S
C1460 C1461 1.524 . S
C1460 H1479 0.913 . S
C1461 H1437 0.950 . S
C1461 C1460 1.524 . S
C1461 C1462 1.415 . S
C1462 H1438 0.950 . S
C1462 C1457 1.363 . S
C1462 C1461 1.415 . S
C1463 H1439 0.951 . S
C1463 C1464 1.366 . S
C1463 C1465 1.388 . S
C1464 C1463 1.366 . S
C1464 C1468 1.385 . S
C1465 H1440 0.951 . S
C1465 C1463 1.388 . S
C1465 C1466 1.366 . S
C1466 C1465 1.366 . S
C1466 C1467 1.414 . S
C1466 C1469 1.499 . S
C1467 H1441 0.950 . S
C1467 C1466 1.414 . S
C1467 C1468 1.374 . S
C1468 H1442 0.950 . S
C1468 C1464 1.385 . S
C1468 C1467 1.374 . S
C1469 C1466 1.499 . S
C1469 C1470 1.373 . S
C1469 C1471 1.389 . S
C1470 H1443 0.950 . S
C1470 C1456 1.377 . S
C1470 C1469 1.373 . S
C1471 C1455 1.377 . S
C1471 C1469 1.389 . S
C1471 C1472 1.524 . S
C1472 C1471 1.524 . S
C1472 C1473 1.397 . S
C1472 C1477 1.363 . S
C1473 H1444 0.950 . S
C1473 C1472 1.397 . S
C1473 C1474 1.334 . S
C1474 H1445 0.950 . S
C1474 C1473 1.334 . S
C1474 C1475 1.287 . S
C1475 C1474 1.287 . S
C1475 C1476 1.524 . S
C1475 H1478 0.999 . S
C1476 H1446 0.950 . S
C1476 C1475 1.524 . S
C1476 C1477 1.415 . S
C1477 H1447 0.950 . S
C1477 C1472 1.363 . S
C1477 C1476 1.415 . S
H1478 C1475 0.999 . S
H1479 C1460 0.913 . S
H1480 C1498 0.951 . S
H1481 C1500 0.951 . S
H1482 C1502 0.950 . S
H1483 C1503 0.950 1_655 S
H1484 C1505 0.950 . S
H1485 C1508 0.950 . S
H1486 C1509 0.950 . S
H1487 C1511 0.950 . S
H1488 C1512 0.950 . S
H1489 C1513 0.951 . S
H1490 C1515 0.951 . S
H1491 C1517 0.950 . S
H1492 C1518 0.950 . S
H1493 C1520 0.950 . S
H1494 C1523 0.950 . S
H1495 C1524 0.950 . S
H1496 C1526 0.950 . S
H1497 C1527 0.950 . S
C1498 H1480 0.951 . S
C1498 C1499 1.366 . S
C1498 C1500 1.388 . S
C1499 C1498 1.366 . S
C1499 C1503 1.385 . S
C1500 H1481 0.951 . S
C1500 C1498 1.388 . S
C1500 C1501 1.366 . S
C1501 C1500 1.366 . S
C1501 C1502 1.414 . S
C1501 C1504 1.499 . S
C1502 H1482 0.950 . S
C1502 C1501 1.414 . S
C1502 C1503 1.374 . S
C1503 H1483 0.950 1_455 S
C1503 C1499 1.385 . S
C1503 C1502 1.374 . S
C1504 C1501 1.499 . S
C1504 C1505 1.373 . S
C1504 C1506 1.389 . S
C1505 H1484 0.950 . S
C1505 C1504 1.373 . S
C1505 C1521 1.377 . S
C1506 C1504 1.389 . S
C1506 C1507 1.524 . S
C1506 C1520 1.377 . S
C1507 C1506 1.524 . S
C1507 C1508 1.397 . S
C1507 C1512 1.363 . S
C1508 H1485 0.950 . S
C1508 C1507 1.397 . S
C1508 C1509 1.334 . S
C1509 H1486 0.950 . S
C1509 C1508 1.334 . S
C1509 C1510 1.287 . S
C1510 C1509 1.287 . S
C1510 C1511 1.524 . S
C1510 H1529 0.913 . S
C1511 H1487 0.950 . S
C1511 C1510 1.524 . S
C1511 C1512 1.415 . S
C1512 H1488 0.950 . S
C1512 C1507 1.363 . S
C1512 C1511 1.415 . S
C1513 H1489 0.951 . S
C1513 C1514 1.366 . S
C1513 C1515 1.388 . S
C1514 C1513 1.366 . S
C1514 C1518 1.385 . S
C1515 H1490 0.951 . S
C1515 C1513 1.388 . S
C1515 C1516 1.366 . S
C1516 C1515 1.366 . S
C1516 C1517 1.414 . S
C1516 C1519 1.499 . S
C1517 H1491 0.950 . S
C1517 C1516 1.414 . S
C1517 C1518 1.374 . S
C1518 H1492 0.950 . S
C1518 C1514 1.385 . S
C1518 C1517 1.374 . S
C1519 C1516 1.499 . S
C1519 C1520 1.373 . S
C1519 C1521 1.389 . S
C1520 H1493 0.950 . S
C1520 C1506 1.377 . S
C1520 C1519 1.373 . S
C1521 C1505 1.377 . S
C1521 C1519 1.389 . S
C1521 C1522 1.524 . S
C1522 C1521 1.524 . S
C1522 C1523 1.397 . S
C1522 C1527 1.363 . S
C1523 H1494 0.950 . S
C1523 C1522 1.397 . S
C1523 C1524 1.334 . S
C1524 H1495 0.950 . S
C1524 C1523 1.334 . S
C1524 C1525 1.287 . S
C1525 C1524 1.287 . S
C1525 C1526 1.524 . S
C1525 H1528 0.999 . S
C1526 H1496 0.950 . S
C1526 C1525 1.524 . S
C1526 C1527 1.415 . S
C1527 H1497 0.950 . S
C1527 C1522 1.363 . S
C1527 C1526 1.415 . S
H1528 C1525 0.999 . S
H1529 C1510 0.913 . S
H1530 C1548 0.951 . S
H1531 C1550 0.951 . S
H1532 C1552 0.950 . S
H1533 C1553 0.950 . S
H1534 C1555 0.950 . S
H1535 C1558 0.950 . S
H1536 C1559 0.950 . S
H1537 C1561 0.950 . S
H1538 C1562 0.950 . S
H1539 C1563 0.951 . S
H1540 C1565 0.951 . S
H1541 C1567 0.950 . S
H1542 C1568 0.950 . S
H1543 C1570 0.950 . S
H1544 C1573 0.950 . S
H1545 C1574 0.950 . S
H1546 C1576 0.950 . S
H1547 C1577 0.950 . S
C1548 H1530 0.951 . S
C1548 C1549 1.366 . S
C1548 C1550 1.388 . S
C1549 C1548 1.366 . S
C1549 C1553 1.385 . S
C1550 H1531 0.951 . S
C1550 C1548 1.388 . S
C1550 C1551 1.366 . S
C1551 C1550 1.366 . S
C1551 C1552 1.414 . S
C1551 C1554 1.499 . S
C1552 H1532 0.950 . S
C1552 C1551 1.414 . S
C1552 C1553 1.374 . S
C1553 H1533 0.950 . S
C1553 C1549 1.385 . S
C1553 C1552 1.374 . S
C1554 C1551 1.499 . S
C1554 C1555 1.373 . S
C1554 C1556 1.389 . S
C1555 H1534 0.950 . S
C1555 C1554 1.373 . S
C1555 C1571 1.377 . S
C1556 C1554 1.389 . S
C1556 C1557 1.524 . S
C1556 C1570 1.377 . S
C1557 C1556 1.524 . S
C1557 C1558 1.397 . S
C1557 C1562 1.363 . S
C1558 H1535 0.950 . S
C1558 C1557 1.397 . S
C1558 C1559 1.334 . S
C1559 H1536 0.950 . S
C1559 C1558 1.334 . S
C1559 C1560 1.287 . S
C1560 C1559 1.287 . S
C1560 C1561 1.524 . S
C1560 H1579 0.913 . S
C1561 H1537 0.950 . S
C1561 C1560 1.524 . S
C1561 C1562 1.415 . S
C1562 H1538 0.950 . S
C1562 C1557 1.363 . S
C1562 C1561 1.415 . S
C1563 H1539 0.951 . S
C1563 C1564 1.366 . S
C1563 C1565 1.388 . S
C1564 C1563 1.366 . S
C1564 C1568 1.385 . S
C1565 H1540 0.951 . S
C1565 C1563 1.388 . S
C1565 C1566 1.366 . S
C1566 C1565 1.366 . S
C1566 C1567 1.414 . S
C1566 C1569 1.499 . S
C1567 H1541 0.950 . S
C1567 C1566 1.414 . S
C1567 C1568 1.374 . S
C1568 H1542 0.950 . S
C1568 C1564 1.385 . S
C1568 C1567 1.374 . S
C1569 C1566 1.499 . S
C1569 C1570 1.373 . S
C1569 C1571 1.389 . S
C1570 H1543 0.950 . S
C1570 C1556 1.377 . S
C1570 C1569 1.373 . S
C1571 C1555 1.377 . S
C1571 C1569 1.389 . S
C1571 C1572 1.524 . S
C1572 C1571 1.524 . S
C1572 C1573 1.397 . S
C1572 C1577 1.363 . S
C1573 H1544 0.950 . S
C1573 C1572 1.397 . S
C1573 C1574 1.334 . S
C1574 H1545 0.950 . S
C1574 C1573 1.334 . S
C1574 C1575 1.287 . S
C1575 C1574 1.287 . S
C1575 C1576 1.524 . S
C1575 H1578 0.999 . S
C1576 H1546 0.950 . S
C1576 C1575 1.524 . S
C1576 C1577 1.415 . S
C1577 H1547 0.950 . S
C1577 C1572 1.363 . S
C1577 C1576 1.415 . S
H1578 C1575 0.999 . S
H1579 C1560 0.913 . S
H1580 C1598 0.951 . S
H1581 C1600 0.951 . S
H1582 C1602 0.950 . S
H1583 C1603 0.950 1_655 S
H1584 C1605 0.950 . S
H1585 C1608 0.950 . S
H1586 C1609 0.950 . S
H1587 C1611 0.950 . S
H1588 C1612 0.950 . S
H1589 C1613 0.951 . S
H1590 C1615 0.951 . S
H1591 C1617 0.950 . S
H1592 C1618 0.950 . S
H1593 C1620 0.950 . S
H1594 C1623 0.950 . S
H1595 C1624 0.950 . S
H1596 C1626 0.950 . S
H1597 C1627 0.950 . S
C1598 H1580 0.951 . S
C1598 C1599 1.366 . S
C1598 C1600 1.388 . S
C1599 C1598 1.366 . S
C1599 C1603 1.385 . S
C1600 H1581 0.951 . S
C1600 C1598 1.388 . S
C1600 C1601 1.366 . S
C1601 C1600 1.366 . S
C1601 C1602 1.414 . S
C1601 C1604 1.499 . S
C1602 H1582 0.950 . S
C1602 C1601 1.414 . S
C1602 C1603 1.374 . S
C1603 H1583 0.950 1_455 S
C1603 C1599 1.385 . S
C1603 C1602 1.374 . S
C1604 C1601 1.499 . S
C1604 C1605 1.373 . S
C1604 C1606 1.389 . S
C1605 H1584 0.950 . S
C1605 C1604 1.373 . S
C1605 C1621 1.377 . S
C1606 C1604 1.389 . S
C1606 C1607 1.524 . S
C1606 C1620 1.377 . S
C1607 C1606 1.524 . S
C1607 C1608 1.397 . S
C1607 C1612 1.363 . S
C1608 H1585 0.950 . S
C1608 C1607 1.397 . S
C1608 C1609 1.334 . S
C1609 H1586 0.950 . S
C1609 C1608 1.334 . S
C1609 C1610 1.287 . S
C1610 C1609 1.287 . S
C1610 C1611 1.524 . S
C1610 H1629 0.913 . S
C1611 H1587 0.950 . S
C1611 C1610 1.524 . S
C1611 C1612 1.415 . S
C1612 H1588 0.950 . S
C1612 C1607 1.363 . S
C1612 C1611 1.415 . S
C1613 H1589 0.951 . S
C1613 C1614 1.366 . S
C1613 C1615 1.388 . S
C1614 C1613 1.366 . S
C1614 C1618 1.385 . S
C1615 H1590 0.951 . S
C1615 C1613 1.388 . S
C1615 C1616 1.366 . S
C1616 C1615 1.366 . S
C1616 C1617 1.414 . S
C1616 C1619 1.499 . S
C1617 H1591 0.950 . S
C1617 C1616 1.414 . S
C1617 C1618 1.374 . S
C1618 H1592 0.950 . S
C1618 C1614 1.385 . S
C1618 C1617 1.374 . S
C1619 C1616 1.499 . S
C1619 C1620 1.373 . S
C1619 C1621 1.389 . S
C1620 H1593 0.950 . S
C1620 C1606 1.377 . S
C1620 C1619 1.373 . S
C1621 C1605 1.377 . S
C1621 C1619 1.389 . S
C1621 C1622 1.524 . S
C1622 C1621 1.524 . S
C1622 C1623 1.397 . S
C1622 C1627 1.363 . S
C1623 H1594 0.950 . S
C1623 C1622 1.397 . S
C1623 C1624 1.334 . S
C1624 H1595 0.950 . S
C1624 C1623 1.334 . S
C1624 C1625 1.287 . S
C1625 C1624 1.287 . S
C1625 C1626 1.524 . S
C1625 H1628 0.999 . S
C1626 H1596 0.950 . S
C1626 C1625 1.524 . S
C1626 C1627 1.415 . S
C1627 H1597 0.950 . S
C1627 C1622 1.363 . S
C1627 C1626 1.415 . S
H1628 C1625 0.999 . S
H1629 C1610 0.913 . S
H1630 C1648 0.951 . S
H1631 C1650 0.951 . S
H1632 C1652 0.950 . S
H1633 C1653 0.950 . S
H1634 C1655 0.950 . S
H1635 C1658 0.950 . S
H1636 C1659 0.950 . S
H1637 C1661 0.950 . S
H1638 C1662 0.950 . S
H1639 C1663 0.951 . S
H1640 C1665 0.951 . S
H1641 C1667 0.950 . S
H1642 C1668 0.950 . S
H1643 C1670 0.950 . S
H1644 C1673 0.950 . S
H1645 C1674 0.950 . S
H1646 C1676 0.950 . S
H1647 C1677 0.950 . S
C1648 H1630 0.951 . S
C1648 C1649 1.366 . S
C1648 C1650 1.388 . S
C1649 C1648 1.366 . S
C1649 C1653 1.385 . S
C1650 H1631 0.951 . S
C1650 C1648 1.388 . S
C1650 C1651 1.366 . S
C1651 C1650 1.366 . S
C1651 C1652 1.414 . S
C1651 C1654 1.499 . S
C1652 H1632 0.950 . S
C1652 C1651 1.414 . S
C1652 C1653 1.374 . S
C1653 H1633 0.950 . S
C1653 C1649 1.385 . S
C1653 C1652 1.374 . S
C1654 C1651 1.499 . S
C1654 C1655 1.373 . S
C1654 C1656 1.389 . S
C1655 H1634 0.950 . S
C1655 C1654 1.373 . S
C1655 C1671 1.377 . S
C1656 C1654 1.389 . S
C1656 C1657 1.524 . S
C1656 C1670 1.377 . S
C1657 C1656 1.524 . S
C1657 C1658 1.397 . S
C1657 C1662 1.363 . S
C1658 H1635 0.950 . S
C1658 C1657 1.397 . S
C1658 C1659 1.334 . S
C1659 H1636 0.950 . S
C1659 C1658 1.334 . S
C1659 C1660 1.287 . S
C1660 C1659 1.287 . S
C1660 C1661 1.524 . S
C1660 H1679 0.913 . S
C1661 H1637 0.950 . S
C1661 C1660 1.524 . S
C1661 C1662 1.415 . S
C1662 H1638 0.950 . S
C1662 C1657 1.363 . S
C1662 C1661 1.415 . S
C1663 H1639 0.951 . S
C1663 C1664 1.366 . S
C1663 C1665 1.388 . S
C1664 C1663 1.366 . S
C1664 C1668 1.385 . S
C1665 H1640 0.951 . S
C1665 C1663 1.388 . S
C1665 C1666 1.366 . S
C1666 C1665 1.366 . S
C1666 C1667 1.414 . S
C1666 C1669 1.499 . S
C1667 H1641 0.950 . S
C1667 C1666 1.414 . S
C1667 C1668 1.374 . S
C1668 H1642 0.950 . S
C1668 C1664 1.385 . S
C1668 C1667 1.374 . S
C1669 C1666 1.499 . S
C1669 C1670 1.373 . S
C1669 C1671 1.389 . S
C1670 H1643 0.950 . S
C1670 C1656 1.377 . S
C1670 C1669 1.373 . S
C1671 C1655 1.377 . S
C1671 C1669 1.389 . S
C1671 C1672 1.524 . S
C1672 C1671 1.524 . S
C1672 C1673 1.397 . S
C1672 C1677 1.363 . S
C1673 H1644 0.950 . S
C1673 C1672 1.397 . S
C1673 C1674 1.334 . S
C1674 H1645 0.950 . S
C1674 C1673 1.334 . S
C1674 C1675 1.287 . S
C1675 C1674 1.287 . S
C1675 C1676 1.524 . S
C1675 H1678 0.999 . S
C1676 H1646 0.950 . S
C1676 C1675 1.524 . S
C1676 C1677 1.415 . S
C1677 H1647 0.950 . S
C1677 C1672 1.363 . S
C1677 C1676 1.415 . S
H1678 C1675 0.999 . S
H1679 C1660 0.913 . S
H1680 C1698 0.951 1_455 S
H1681 C1700 0.951 . S
H1682 C1702 0.950 . S
H1683 C1703 0.950 . S
H1684 C1705 0.950 . S
H1685 C1708 0.950 . S
H1686 C1709 0.950 . S
H1687 C1711 0.950 1_455 S
H1688 C1712 0.950 . S
H1689 C1713 0.951 . S
H1690 C1715 0.951 . S
H1691 C1717 0.950 . S
H1692 C1718 0.950 . S
H1693 C1720 0.950 . S
H1694 C1723 0.950 . S
H1695 C1724 0.950 . S
H1696 C1726 0.950 . S
H1697 C1727 0.950 . S
C1698 H1680 0.951 1_655 S
C1698 C1699 1.366 . S
C1698 C1700 1.388 . S
C1699 C1698 1.366 . S
C1699 C1703 1.385 . S
C1700 H1681 0.951 . S
C1700 C1698 1.388 . S
C1700 C1701 1.366 . S
C1701 C1700 1.366 . S
C1701 C1702 1.414 . S
C1701 C1704 1.499 . S
C1702 H1682 0.950 . S
C1702 C1701 1.414 . S
C1702 C1703 1.374 . S
C1703 H1683 0.950 . S
C1703 C1699 1.385 . S
C1703 C1702 1.374 . S
C1704 C1701 1.499 . S
C1704 C1705 1.373 . S
C1704 C1706 1.389 . S
C1705 H1684 0.950 . S
C1705 C1704 1.373 . S
C1705 C1721 1.377 . S
C1706 C1704 1.389 . S
C1706 C1707 1.524 . S
C1706 C1720 1.377 . S
C1707 C1706 1.524 . S
C1707 C1708 1.397 . S
C1707 C1712 1.363 . S
C1708 H1685 0.950 . S
C1708 C1707 1.397 . S
C1708 C1709 1.334 . S
C1709 H1686 0.950 . S
C1709 C1708 1.334 . S
C1709 C1710 1.287 . S
C1710 C1709 1.287 . S
C1710 C1711 1.524 . S
C1710 H1729 0.913 1_655 S
C1711 H1687 0.950 1_655 S
C1711 C1710 1.524 . S
C1711 C1712 1.415 . S
C1712 H1688 0.950 . S
C1712 C1707 1.363 . S
C1712 C1711 1.415 . S
C1713 H1689 0.951 . S
C1713 C1714 1.366 . S
C1713 C1715 1.388 . S
C1714 C1713 1.366 . S
C1714 C1718 1.385 . S
C1715 H1690 0.951 . S
C1715 C1713 1.388 . S
C1715 C1716 1.366 . S
C1716 C1715 1.366 . S
C1716 C1717 1.414 . S
C1716 C1719 1.499 . S
C1717 H1691 0.950 . S
C1717 C1716 1.414 . S
C1717 C1718 1.374 . S
C1718 H1692 0.950 . S
C1718 C1714 1.385 . S
C1718 C1717 1.374 . S
C1719 C1716 1.499 . S
C1719 C1720 1.373 . S
C1719 C1721 1.389 . S
C1720 H1693 0.950 . S
C1720 C1706 1.377 . S
C1720 C1719 1.373 . S
C1721 C1705 1.377 . S
C1721 C1719 1.389 . S
C1721 C1722 1.524 . S
C1722 C1721 1.524 . S
C1722 C1723 1.397 . S
C1722 C1727 1.363 . S
C1723 H1694 0.950 . S
C1723 C1722 1.397 . S
C1723 C1724 1.334 . S
C1724 H1695 0.950 . S
C1724 C1723 1.334 . S
C1724 C1725 1.287 . S
C1725 C1724 1.287 . S
C1725 C1726 1.524 . S
C1725 H1728 0.999 . S
C1726 H1696 0.950 . S
C1726 C1725 1.524 . S
C1726 C1727 1.415 . S
C1727 H1697 0.950 . S
C1727 C1722 1.363 . S
C1727 C1726 1.415 . S
H1728 C1725 0.999 . S
H1729 C1710 0.913 1_455 S
H1730 C1748 0.951 . S
H1731 C1750 0.951 . S
H1732 C1752 0.950 . S
H1733 C1753 0.950 . S
H1734 C1755 0.950 . S
H1735 C1758 0.950 . S
H1736 C1759 0.950 . S
H1737 C1761 0.950 . S
H1738 C1762 0.950 . S
H1739 C1763 0.951 . S
H1740 C1765 0.951 . S
H1741 C1767 0.950 . S
H1742 C1768 0.950 . S
H1743 C1770 0.950 . S
H1744 C1773 0.950 . S
H1745 C1774 0.950 . S
H1746 C1776 0.950 . S
H1747 C1777 0.950 . S
C1748 H1730 0.951 . S
C1748 C1749 1.366 . S
C1748 C1750 1.388 . S
C1749 C1748 1.366 . S
C1749 C1753 1.385 . S
C1750 H1731 0.951 . S
C1750 C1748 1.388 . S
C1750 C1751 1.366 . S
C1751 C1750 1.366 . S
C1751 C1752 1.414 . S
C1751 C1754 1.499 . S
C1752 H1732 0.950 . S
C1752 C1751 1.414 . S
C1752 C1753 1.374 . S
C1753 H1733 0.950 . S
C1753 C1749 1.385 . S
C1753 C1752 1.374 . S
C1754 C1751 1.499 . S
C1754 C1755 1.373 . S
C1754 C1756 1.389 . S
C1755 H1734 0.950 . S
C1755 C1754 1.373 . S
C1755 C1771 1.377 . S
C1756 C1754 1.389 . S
C1756 C1757 1.524 . S
C1756 C1770 1.377 . S
C1757 C1756 1.524 . S
C1757 C1758 1.397 . S
C1757 C1762 1.363 . S
C1758 H1735 0.950 . S
C1758 C1757 1.397 . S
C1758 C1759 1.334 . S
C1759 H1736 0.950 . S
C1759 C1758 1.334 . S
C1759 C1760 1.287 . S
C1760 C1759 1.287 . S
C1760 C1761 1.524 . S
C1760 H1779 0.913 . S
C1761 H1737 0.950 . S
C1761 C1760 1.524 . S
C1761 C1762 1.415 . S
C1762 H1738 0.950 . S
C1762 C1757 1.363 . S
C1762 C1761 1.415 . S
C1763 H1739 0.951 . S
C1763 C1764 1.366 . S
C1763 C1765 1.388 . S
C1764 C1763 1.366 . S
C1764 C1768 1.385 . S
C1765 H1740 0.951 . S
C1765 C1763 1.388 . S
C1765 C1766 1.366 . S
C1766 C1765 1.366 . S
C1766 C1767 1.414 . S
C1766 C1769 1.499 . S
C1767 H1741 0.950 . S
C1767 C1766 1.414 . S
C1767 C1768 1.374 . S
C1768 H1742 0.950 . S
C1768 C1764 1.385 . S
C1768 C1767 1.374 . S
C1769 C1766 1.499 . S
C1769 C1770 1.373 . S
C1769 C1771 1.389 . S
C1770 H1743 0.950 . S
C1770 C1756 1.377 . S
C1770 C1769 1.373 . S
C1771 C1755 1.377 . S
C1771 C1769 1.389 . S
C1771 C1772 1.524 . S
C1772 C1771 1.524 . S
C1772 C1773 1.397 . S
C1772 C1777 1.363 . S
C1773 H1744 0.950 . S
C1773 C1772 1.397 . S
C1773 C1774 1.334 . S
C1774 H1745 0.950 . S
C1774 C1773 1.334 . S
C1774 C1775 1.287 . S
C1775 C1774 1.287 . S
C1775 C1776 1.524 . S
C1775 H1778 0.999 . S
C1776 H1746 0.950 . S
C1776 C1775 1.524 . S
C1776 C1777 1.415 . S
C1777 H1747 0.950 . S
C1777 C1772 1.363 . S
C1777 C1776 1.415 . S
H1778 C1775 0.999 . S
H1779 C1760 0.913 . S
H1780 C1798 0.951 1_455 S
H1781 C1800 0.951 . S
H1782 C1802 0.950 . S
H1783 C1803 0.950 . S
H1784 C1805 0.950 . S
H1785 C1808 0.950 . S
H1786 C1809 0.950 . S
H1787 C1811 0.950 . S
H1788 C1812 0.950 . S
H1789 C1813 0.951 . S
H1790 C1815 0.951 . S
H1791 C1817 0.950 . S
H1792 C1818 0.950 . S
H1793 C1820 0.950 . S
H1794 C1823 0.950 . S
H1795 C1824 0.950 . S
H1796 C1826 0.950 . S
H1797 C1827 0.950 . S
C1798 H1780 0.951 1_655 S
C1798 C1799 1.366 . S
C1798 C1800 1.388 . S
C1799 C1798 1.366 . S
C1799 C1803 1.385 . S
C1800 H1781 0.951 . S
C1800 C1798 1.388 . S
C1800 C1801 1.366 . S
C1801 C1800 1.366 . S
C1801 C1802 1.414 . S
C1801 C1804 1.499 . S
C1802 H1782 0.950 . S
C1802 C1801 1.414 . S
C1802 C1803 1.374 . S
C1803 H1783 0.950 . S
C1803 C1799 1.385 . S
C1803 C1802 1.374 . S
C1804 C1801 1.499 . S
C1804 C1805 1.373 . S
C1804 C1806 1.389 . S
C1805 H1784 0.950 . S
C1805 C1804 1.373 . S
C1805 C1821 1.377 . S
C1806 C1804 1.389 . S
C1806 C1807 1.524 . S
C1806 C1820 1.377 . S
C1807 C1806 1.524 . S
C1807 C1808 1.397 . S
C1807 C1812 1.363 . S
C1808 H1785 0.950 . S
C1808 C1807 1.397 . S
C1808 C1809 1.334 . S
C1809 H1786 0.950 . S
C1809 C1808 1.334 . S
C1809 C1810 1.287 1_655 S
C1810 C1809 1.287 1_455 S
C1810 C1811 1.524 . S
C1810 H1829 0.913 . S
C1811 H1787 0.950 . S
C1811 C1810 1.524 . S
C1811 C1812 1.415 1_455 S
C1812 H1788 0.950 . S
C1812 C1807 1.363 . S
C1812 C1811 1.415 1_655 S
C1813 H1789 0.951 . S
C1813 C1814 1.366 . S
C1813 C1815 1.388 . S
C1814 C1813 1.366 . S
C1814 C1818 1.385 . S
C1815 H1790 0.951 . S
C1815 C1813 1.388 . S
C1815 C1816 1.366 . S
C1816 C1815 1.366 . S
C1816 C1817 1.414 . S
C1816 C1819 1.499 . S
C1817 H1791 0.950 . S
C1817 C1816 1.414 . S
C1817 C1818 1.374 . S
C1818 H1792 0.950 . S
C1818 C1814 1.385 . S
C1818 C1817 1.374 . S
C1819 C1816 1.499 . S
C1819 C1820 1.373 . S
C1819 C1821 1.389 . S
C1820 H1793 0.950 . S
C1820 C1806 1.377 . S
C1820 C1819 1.373 . S
C1821 C1805 1.377 . S
C1821 C1819 1.389 . S
C1821 C1822 1.524 . S
C1822 C1821 1.524 . S
C1822 C1823 1.397 . S
C1822 C1827 1.363 . S
C1823 H1794 0.950 . S
C1823 C1822 1.397 . S
C1823 C1824 1.334 . S
C1824 H1795 0.950 . S
C1824 C1823 1.334 . S
C1824 C1825 1.287 . S
C1825 C1824 1.287 . S
C1825 C1826 1.524 . S
C1825 H1828 0.999 . S
C1826 H1796 0.950 . S
C1826 C1825 1.524 . S
C1826 C1827 1.415 . S
C1827 H1797 0.950 . S
C1827 C1822 1.363 . S
C1827 C1826 1.415 . S
H1828 C1825 0.999 . S
H1829 C1810 0.913 . S
H1830 C1848 0.951 . S
H1831 C1850 0.951 . S
H1832 C1852 0.950 . S
H1833 C1853 0.950 . S
H1834 C1855 0.950 . S
H1835 C1858 0.950 . S
H1836 C1859 0.950 . S
H1837 C1861 0.950 . S
H1838 C1862 0.950 . S
H1839 C1863 0.951 . S
H1840 C1865 0.951 . S
H1841 C1867 0.950 . S
H1842 C1868 0.950 . S
H1843 C1870 0.950 . S
H1844 C1873 0.950 . S
H1845 C1874 0.950 . S
H1846 C1876 0.950 . S
H1847 C1877 0.950 . S
C1848 H1830 0.951 . S
C1848 C1849 1.366 . S
C1848 C1850 1.388 . S
C1849 C1848 1.366 . S
C1849 C1853 1.385 . S
C1850 H1831 0.951 . S
C1850 C1848 1.388 . S
C1850 C1851 1.366 . S
C1851 C1850 1.366 . S
C1851 C1852 1.414 . S
C1851 C1854 1.499 . S
C1852 H1832 0.950 . S
C1852 C1851 1.414 . S
C1852 C1853 1.374 . S
C1853 H1833 0.950 . S
C1853 C1849 1.385 . S
C1853 C1852 1.374 . S
C1854 C1851 1.499 . S
C1854 C1855 1.373 . S
C1854 C1856 1.389 . S
C1855 H1834 0.950 . S
C1855 C1854 1.373 . S
C1855 C1871 1.377 . S
C1856 C1854 1.389 . S
C1856 C1857 1.524 . S
C1856 C1870 1.377 . S
C1857 C1856 1.524 . S
C1857 C1858 1.397 . S
C1857 C1862 1.363 . S
C1858 H1835 0.950 . S
C1858 C1857 1.397 . S
C1858 C1859 1.334 . S
C1859 H1836 0.950 . S
C1859 C1858 1.334 . S
C1859 C1860 1.287 . S
C1860 C1859 1.287 . S
C1860 C1861 1.524 . S
C1860 H1879 0.913 . S
C1861 H1837 0.950 . S
C1861 C1860 1.524 . S
C1861 C1862 1.415 . S
C1862 H1838 0.950 . S
C1862 C1857 1.363 . S
C1862 C1861 1.415 . S
C1863 H1839 0.951 . S
C1863 C1864 1.366 . S
C1863 C1865 1.388 . S
C1864 C1863 1.366 . S
C1864 C1868 1.385 . S
C1865 H1840 0.951 . S
C1865 C1863 1.388 . S
C1865 C1866 1.366 . S
C1866 C1865 1.366 . S
C1866 C1867 1.414 . S
C1866 C1869 1.499 . S
C1867 H1841 0.950 . S
C1867 C1866 1.414 . S
C1867 C1868 1.374 . S
C1868 H1842 0.950 . S
C1868 C1864 1.385 . S
C1868 C1867 1.374 . S
C1869 C1866 1.499 . S
C1869 C1870 1.373 . S
C1869 C1871 1.389 . S
C1870 H1843 0.950 . S
C1870 C1856 1.377 . S
C1870 C1869 1.373 . S
C1871 C1855 1.377 . S
C1871 C1869 1.389 . S
C1871 C1872 1.524 . S
C1872 C1871 1.524 . S
C1872 C1873 1.397 . S
C1872 C1877 1.363 . S
C1873 H1844 0.950 . S
C1873 C1872 1.397 . S
C1873 C1874 1.334 . S
C1874 H1845 0.950 . S
C1874 C1873 1.334 . S
C1874 C1875 1.287 . S
C1875 C1874 1.287 . S
C1875 C1876 1.524 . S
C1875 H1878 0.999 . S
C1876 H1846 0.950 . S
C1876 C1875 1.524 . S
C1876 C1877 1.415 . S
C1877 H1847 0.950 . S
C1877 C1872 1.363 . S
C1877 C1876 1.415 . S
H1878 C1875 0.999 . S
H1879 C1860 0.913 . S
H1880 C1898 0.951 1_655 S
H1881 C1900 0.951 . S
H1882 C1902 0.950 . S
H1883 C1903 0.950 . S
H1884 C1905 0.950 . S
H1885 C1908 0.950 . S
H1886 C1909 0.950 . S
H1887 C1911 0.950 . S
H1888 C1912 0.950 . S
H1889 C1913 0.951 . S
H1890 C1915 0.951 . S
H1891 C1917 0.950 . S
H1892 C1918 0.950 . S
H1893 C1920 0.950 . S
H1894 C1923 0.950 . S
H1895 C1924 0.950 . S
H1896 C1926 0.950 . S
H1897 C1927 0.950 . S
C1898 H1880 0.951 1_455 S
C1898 C1899 1.366 . S
C1898 C1900 1.388 . S
C1899 C1898 1.366 . S
C1899 C1903 1.385 . S
C1900 H1881 0.951 . S
C1900 C1898 1.388 . S
C1900 C1901 1.366 . S
C1901 C1900 1.366 . S
C1901 C1902 1.414 . S
C1901 C1904 1.499 . S
C1902 H1882 0.950 . S
C1902 C1901 1.414 . S
C1902 C1903 1.374 . S
C1903 H1883 0.950 . S
C1903 C1899 1.385 . S
C1903 C1902 1.374 . S
C1904 C1901 1.499 . S
C1904 C1905 1.373 . S
C1904 C1906 1.389 . S
C1905 H1884 0.950 . S
C1905 C1904 1.373 . S
C1905 C1921 1.377 . S
C1906 C1904 1.389 . S
C1906 C1907 1.524 . S
C1906 C1920 1.377 . S
C1907 C1906 1.524 . S
C1907 C1908 1.397 . S
C1907 C1912 1.363 . S
C1908 H1885 0.950 . S
C1908 C1907 1.397 . S
C1908 C1909 1.334 . S
C1909 H1886 0.950 . S
C1909 C1908 1.334 . S
C1909 C1910 1.287 . S
C1910 C1909 1.287 . S
C1910 C1911 1.524 . S
C1910 H1929 0.913 . S
C1911 H1887 0.950 . S
C1911 C1910 1.524 . S
C1911 C1912 1.415 . S
C1912 H1888 0.950 . S
C1912 C1907 1.363 . S
C1912 C1911 1.415 . S
C1913 H1889 0.951 . S
C1913 C1914 1.366 . S
C1913 C1915 1.388 . S
C1914 C1913 1.366 . S
C1914 C1918 1.385 . S
C1915 H1890 0.951 . S
C1915 C1913 1.388 . S
C1915 C1916 1.366 . S
C1916 C1915 1.366 . S
C1916 C1917 1.414 . S
C1916 C1919 1.499 . S
C1917 H1891 0.950 . S
C1917 C1916 1.414 . S
C1917 C1918 1.374 . S
C1918 H1892 0.950 . S
C1918 C1914 1.385 . S
C1918 C1917 1.374 . S
C1919 C1916 1.499 . S
C1919 C1920 1.373 . S
C1919 C1921 1.389 . S
C1920 H1893 0.950 . S
C1920 C1906 1.377 . S
C1920 C1919 1.373 . S
C1921 C1905 1.377 . S
C1921 C1919 1.389 . S
C1921 C1922 1.524 . S
C1922 C1921 1.524 . S
C1922 C1923 1.397 . S
C1922 C1927 1.363 . S
C1923 H1894 0.950 . S
C1923 C1922 1.397 . S
C1923 C1924 1.334 . S
C1924 H1895 0.950 . S
C1924 C1923 1.334 . S
C1924 C1925 1.287 . S
C1925 C1924 1.287 . S
C1925 C1926 1.524 . S
C1925 H1928 0.999 . S
C1926 H1896 0.950 . S
C1926 C1925 1.524 . S
C1926 C1927 1.415 . S
C1927 H1897 0.950 . S
C1927 C1922 1.363 . S
C1927 C1926 1.415 . S
H1928 C1925 0.999 . S
H1929 C1910 0.913 . S
H1930 C1948 0.951 . S
H1931 C1950 0.951 . S
H1932 C1952 0.950 . S
H1933 C1953 0.950 . S
H1934 C1955 0.950 . S
H1935 C1958 0.950 . S
H1936 C1959 0.950 . S
H1937 C1961 0.950 . S
H1938 C1962 0.950 . S
H1939 C1963 0.951 . S
H1940 C1965 0.951 . S
H1941 C1967 0.950 . S
H1942 C1968 0.950 . S
H1943 C1970 0.950 . S
H1944 C1973 0.950 . S
H1945 C1974 0.950 . S
H1946 C1976 0.950 . S
H1947 C1977 0.950 . S
C1948 H1930 0.951 . S
C1948 C1949 1.366 . S
C1948 C1950 1.388 . S
C1949 C1948 1.366 . S
C1949 C1953 1.385 . S
C1950 H1931 0.951 . S
C1950 C1948 1.388 . S
C1950 C1951 1.366 . S
C1951 C1950 1.366 . S
C1951 C1952 1.414 . S
C1951 C1954 1.499 . S
C1952 H1932 0.950 . S
C1952 C1951 1.414 . S
C1952 C1953 1.374 . S
C1953 H1933 0.950 . S
C1953 C1949 1.385 . S
C1953 C1952 1.374 . S
C1954 C1951 1.499 . S
C1954 C1955 1.373 . S
C1954 C1956 1.389 . S
C1955 H1934 0.950 . S
C1955 C1954 1.373 . S
C1955 C1971 1.377 . S
C1956 C1954 1.389 . S
C1956 C1957 1.524 . S
C1956 C1970 1.377 . S
C1957 C1956 1.524 . S
C1957 C1958 1.397 . S
C1957 C1962 1.363 . S
C1958 H1935 0.950 . S
C1958 C1957 1.397 . S
C1958 C1959 1.334 . S
C1959 H1936 0.950 . S
C1959 C1958 1.334 . S
C1959 C1960 1.287 . S
C1960 C1959 1.287 . S
C1960 C1961 1.524 . S
C1960 H1979 0.913 . S
C1961 H1937 0.950 . S
C1961 C1960 1.524 . S
C1961 C1962 1.415 . S
C1962 H1938 0.950 . S
C1962 C1957 1.363 . S
C1962 C1961 1.415 . S
C1963 H1939 0.951 . S
C1963 C1964 1.366 . S
C1963 C1965 1.388 . S
C1964 C1963 1.366 . S
C1964 C1968 1.385 . S
C1965 H1940 0.951 . S
C1965 C1963 1.388 . S
C1965 C1966 1.366 . S
C1966 C1965 1.366 . S
C1966 C1967 1.414 . S
C1966 C1969 1.499 . S
C1967 H1941 0.950 . S
C1967 C1966 1.414 . S
C1967 C1968 1.374 . S
C1968 H1942 0.950 . S
C1968 C1964 1.385 . S
C1968 C1967 1.374 . S
C1969 C1966 1.499 . S
C1969 C1970 1.373 . S
C1969 C1971 1.389 . S
C1970 H1943 0.950 . S
C1970 C1956 1.377 . S
C1970 C1969 1.373 . S
C1971 C1955 1.377 . S
C1971 C1969 1.389 . S
C1971 C1972 1.524 . S
C1972 C1971 1.524 . S
C1972 C1973 1.397 . S
C1972 C1977 1.363 . S
C1973 H1944 0.950 . S
C1973 C1972 1.397 . S
C1973 C1974 1.334 . S
C1974 H1945 0.950 . S
C1974 C1973 1.334 . S
C1974 C1975 1.287 . S
C1975 C1974 1.287 . S
C1975 C1976 1.524 . S
C1975 H1978 0.999 . S
C1976 H1946 0.950 . S
C1976 C1975 1.524 . S
C1976 C1977 1.415 . S
C1977 H1947 0.950 . S
C1977 C1972 1.363 . S
C1977 C1976 1.415 . S
H1978 C1975 0.999 . S
H1979 C1960 0.913 . S
H1980 C1998 0.951 . S
H1981 C2000 0.951 . S
H1982 C2002 0.950 . S
H1983 C2003 0.950 . S
H1984 C2005 0.950 . S
H1985 C2008 0.950 . S
H1986 C2009 0.950 . S
H1987 C2011 0.950 . S
H1988 C2012 0.950 . S
H1989 C2013 0.951 1_655 S
H1990 C2015 0.951 . S
H1991 C2017 0.950 . S
H1992 C2018 0.950 . S
H1993 C2020 0.950 . S
H1994 C2023 0.950 . S
H1995 C2024 0.950 . S
H1996 C2026 0.950 1_655 S
H1997 C2027 0.950 . S
C1998 H1980 0.951 . S
C1998 C1999 1.366 . S
C1998 C2000 1.388 . S
C1999 C1998 1.366 . S
C1999 C2003 1.385 . S
C2000 H1981 0.951 . S
C2000 C1998 1.388 . S
C2000 C2001 1.366 . S
C2001 C2000 1.366 . S
C2001 C2002 1.414 . S
C2001 C2004 1.499 . S
C2002 H1982 0.950 . S
C2002 C2001 1.414 . S
C2002 C2003 1.374 . S
C2003 H1983 0.950 . S
C2003 C1999 1.385 . S
C2003 C2002 1.374 . S
C2004 C2001 1.499 . S
C2004 C2005 1.373 . S
C2004 C2006 1.389 . S
C2005 H1984 0.950 . S
C2005 C2004 1.373 . S
C2005 C2021 1.377 . S
C2006 C2004 1.389 . S
C2006 C2007 1.524 . S
C2006 C2020 1.377 . S
C2007 C2006 1.524 . S
C2007 C2008 1.397 . S
C2007 C2012 1.363 . S
C2008 H1985 0.950 . S
C2008 C2007 1.397 . S
C2008 C2009 1.334 . S
C2009 H1986 0.950 . S
C2009 C2008 1.334 . S
C2009 C2010 1.287 . S
C2010 C2009 1.287 . S
C2010 C2011 1.524 . S
C2010 H2029 0.913 . S
C2011 H1987 0.950 . S
C2011 C2010 1.524 . S
C2011 C2012 1.415 . S
C2012 H1988 0.950 . S
C2012 C2007 1.363 . S
C2012 C2011 1.415 . S
C2013 H1989 0.951 1_455 S
C2013 C2014 1.366 . S
C2013 C2015 1.388 . S
C2014 C2013 1.366 . S
C2014 C2018 1.385 . S
C2015 H1990 0.951 . S
C2015 C2013 1.388 . S
C2015 C2016 1.366 . S
C2016 C2015 1.366 . S
C2016 C2017 1.414 . S
C2016 C2019 1.499 . S
C2017 H1991 0.950 . S
C2017 C2016 1.414 . S
C2017 C2018 1.374 . S
C2018 H1992 0.950 . S
C2018 C2014 1.385 . S
C2018 C2017 1.374 . S
C2019 C2016 1.499 . S
C2019 C2020 1.373 . S
C2019 C2021 1.389 . S
C2020 H1993 0.950 . S
C2020 C2006 1.377 . S
C2020 C2019 1.373 . S
C2021 C2005 1.377 . S
C2021 C2019 1.389 . S
C2021 C2022 1.524 . S
C2022 C2021 1.524 . S
C2022 C2023 1.397 . S
C2022 C2027 1.363 . S
C2023 H1994 0.950 . S
C2023 C2022 1.397 . S
C2023 C2024 1.334 . S
C2024 H1995 0.950 . S
C2024 C2023 1.334 . S
C2024 C2025 1.287 . S
C2025 C2024 1.287 . S
C2025 C2026 1.524 . S
C2025 H2028 0.999 . S
C2026 H1996 0.950 1_455 S
C2026 C2025 1.524 . S
C2026 C2027 1.415 . S
C2027 H1997 0.950 . S
C2027 C2022 1.363 . S
C2027 C2026 1.415 . S
H2028 C2025 0.999 . S
H2029 C2010 0.913 . S
H2030 C2048 0.951 . S
H2031 C2050 0.951 . S
H2032 C2052 0.950 . S
H2033 C2053 0.950 . S
H2034 C2055 0.950 . S
H2035 C2058 0.950 . S
H2036 C2059 0.950 . S
H2037 C2061 0.950 . S
H2038 C2062 0.950 . S
H2039 C2063 0.951 . S
H2040 C2065 0.951 . S
H2041 C2067 0.950 . S
H2042 C2068 0.950 . S
H2043 C2070 0.950 . S
H2044 C2073 0.950 . S
H2045 C2074 0.950 . S
H2046 C2076 0.950 . S
H2047 C2077 0.950 . S
C2048 H2030 0.951 . S
C2048 C2049 1.366 . S
C2048 C2050 1.388 . S
C2049 C2048 1.366 . S
C2049 C2053 1.385 . S
C2050 H2031 0.951 . S
C2050 C2048 1.388 . S
C2050 C2051 1.366 . S
C2051 C2050 1.366 . S
C2051 C2052 1.414 . S
C2051 C2054 1.499 . S
C2052 H2032 0.950 . S
C2052 C2051 1.414 . S
C2052 C2053 1.374 . S
C2053 H2033 0.950 . S
C2053 C2049 1.385 . S
C2053 C2052 1.374 . S
C2054 C2051 1.499 . S
C2054 C2055 1.373 . S
C2054 C2056 1.389 . S
C2055 H2034 0.950 . S
C2055 C2054 1.373 . S
C2055 C2071 1.377 . S
C2056 C2054 1.389 . S
C2056 C2057 1.524 . S
C2056 C2070 1.377 . S
C2057 C2056 1.524 . S
C2057 C2058 1.397 . S
C2057 C2062 1.363 . S
C2058 H2035 0.950 . S
C2058 C2057 1.397 . S
C2058 C2059 1.334 . S
C2059 H2036 0.950 . S
C2059 C2058 1.334 . S
C2059 C2060 1.287 . S
C2060 C2059 1.287 . S
C2060 C2061 1.524 . S
C2060 H2079 0.913 . S
C2061 H2037 0.950 . S
C2061 C2060 1.524 . S
C2061 C2062 1.415 . S
C2062 H2038 0.950 . S
C2062 C2057 1.363 . S
C2062 C2061 1.415 . S
C2063 H2039 0.951 . S
C2063 C2064 1.366 . S
C2063 C2065 1.388 . S
C2064 C2063 1.366 . S
C2064 C2068 1.385 . S
C2065 H2040 0.951 . S
C2065 C2063 1.388 . S
C2065 C2066 1.366 . S
C2066 C2065 1.366 . S
C2066 C2067 1.414 . S
C2066 C2069 1.499 . S
C2067 H2041 0.950 . S
C2067 C2066 1.414 . S
C2067 C2068 1.374 . S
C2068 H2042 0.950 . S
C2068 C2064 1.385 . S
C2068 C2067 1.374 . S
C2069 C2066 1.499 . S
C2069 C2070 1.373 . S
C2069 C2071 1.389 . S
C2070 H2043 0.950 . S
C2070 C2056 1.377 . S
C2070 C2069 1.373 . S
C2071 C2055 1.377 . S
C2071 C2069 1.389 . S
C2071 C2072 1.524 . S
C2072 C2071 1.524 . S
C2072 C2073 1.397 . S
C2072 C2077 1.363 . S
C2073 H2044 0.950 . S
C2073 C2072 1.397 . S
C2073 C2074 1.334 . S
C2074 H2045 0.950 . S
C2074 C2073 1.334 . S
C2074 C2075 1.287 . S
C2075 C2074 1.287 . S
C2075 C2076 1.524 . S
C2075 H2078 0.999 . S
C2076 H2046 0.950 . S
C2076 C2075 1.524 . S
C2076 C2077 1.415 . S
C2077 H2047 0.950 . S
C2077 C2072 1.363 . S
C2077 C2076 1.415 . S
H2078 C2075 0.999 . S
H2079 C2060 0.913 . S
H2080 C2098 0.951 . S
H2081 C2100 0.951 . S
H2082 C2102 0.950 . S
H2083 C2103 0.950 . S
H2084 C2105 0.950 . S
H2085 C2108 0.950 . S
H2086 C2109 0.950 . S
H2087 C2111 0.950 . S
H2088 C2112 0.950 . S
H2089 C2113 0.951 . S
H2090 C2115 0.951 . S
H2091 C2117 0.950 . S
H2092 C2118 0.950 . S
H2093 C2120 0.950 . S
H2094 C2123 0.950 . S
H2095 C2124 0.950 . S
H2096 C2126 0.950 1_655 S
H2097 C2127 0.950 . S
C2098 H2080 0.951 . S
C2098 C2099 1.366 . S
C2098 C2100 1.388 . S
C2099 C2098 1.366 . S
C2099 C2103 1.385 . S
C2100 H2081 0.951 . S
C2100 C2098 1.388 . S
C2100 C2101 1.366 . S
C2101 C2100 1.366 . S
C2101 C2102 1.414 . S
C2101 C2104 1.499 . S
C2102 H2082 0.950 . S
C2102 C2101 1.414 . S
C2102 C2103 1.374 . S
C2103 H2083 0.950 . S
C2103 C2099 1.385 . S
C2103 C2102 1.374 . S
C2104 C2101 1.499 . S
C2104 C2105 1.373 . S
C2104 C2106 1.389 . S
C2105 H2084 0.950 . S
C2105 C2104 1.373 . S
C2105 C2121 1.377 . S
C2106 C2104 1.389 . S
C2106 C2107 1.524 . S
C2106 C2120 1.377 . S
C2107 C2106 1.524 . S
C2107 C2108 1.397 . S
C2107 C2112 1.363 . S
C2108 H2085 0.950 . S
C2108 C2107 1.397 . S
C2108 C2109 1.334 . S
C2109 H2086 0.950 . S
C2109 C2108 1.334 . S
C2109 C2110 1.287 . S
C2110 C2109 1.287 . S
C2110 C2111 1.524 . S
C2110 H2129 0.913 . S
C2111 H2087 0.950 . S
C2111 C2110 1.524 . S
C2111 C2112 1.415 . S
C2112 H2088 0.950 . S
C2112 C2107 1.363 . S
C2112 C2111 1.415 . S
C2113 H2089 0.951 . S
C2113 C2114 1.366 . S
C2113 C2115 1.388 . S
C2114 C2113 1.366 . S
C2114 C2118 1.385 . S
C2115 H2090 0.951 . S
C2115 C2113 1.388 . S
C2115 C2116 1.366 . S
C2116 C2115 1.366 . S
C2116 C2117 1.414 . S
C2116 C2119 1.499 . S
C2117 H2091 0.950 . S
C2117 C2116 1.414 . S
C2117 C2118 1.374 . S
C2118 H2092 0.950 . S
C2118 C2114 1.385 . S
C2118 C2117 1.374 . S
C2119 C2116 1.499 . S
C2119 C2120 1.373 . S
C2119 C2121 1.389 . S
C2120 H2093 0.950 . S
C2120 C2106 1.377 . S
C2120 C2119 1.373 . S
C2121 C2105 1.377 . S
C2121 C2119 1.389 . S
C2121 C2122 1.524 . S
C2122 C2121 1.524 . S
C2122 C2123 1.397 . S
C2122 C2127 1.363 . S
C2123 H2094 0.950 . S
C2123 C2122 1.397 . S
C2123 C2124 1.334 . S
C2124 H2095 0.950 . S
C2124 C2123 1.334 . S
C2124 C2125 1.287 . S
C2125 C2124 1.287 . S
C2125 C2126 1.524 . S
C2125 H2128 0.999 1_455 S
C2126 H2096 0.950 1_455 S
C2126 C2125 1.524 . S
C2126 C2127 1.415 . S
C2127 H2097 0.950 . S
C2127 C2122 1.363 . S
C2127 C2126 1.415 . S
H2128 C2125 0.999 1_655 S
H2129 C2110 0.913 . S
H2130 C2148 0.951 . S
H2131 C2150 0.951 . S
H2132 C2152 0.950 . S
H2133 C2153 0.950 . S
H2134 C2155 0.950 . S
H2135 C2158 0.950 . S
H2136 C2159 0.950 . S
H2137 C2161 0.950 . S
H2138 C2162 0.950 . S
H2139 C2163 0.951 . S
H2140 C2165 0.951 . S
H2141 C2167 0.950 . S
H2142 C2168 0.950 . S
H2143 C2170 0.950 . S
H2144 C2173 0.950 . S
H2145 C2174 0.950 . S
H2146 C2176 0.950 . S
H2147 C2177 0.950 . S
C2148 H2130 0.951 . S
C2148 C2149 1.366 . S
C2148 C2150 1.388 . S
C2149 C2148 1.366 . S
C2149 C2153 1.385 . S
C2150 H2131 0.951 . S
C2150 C2148 1.388 . S
C2150 C2151 1.366 . S
C2151 C2150 1.366 . S
C2151 C2152 1.414 . S
C2151 C2154 1.499 . S
C2152 H2132 0.950 . S
C2152 C2151 1.414 . S
C2152 C2153 1.374 . S
C2153 H2133 0.950 . S
C2153 C2149 1.385 . S
C2153 C2152 1.374 . S
C2154 C2151 1.499 . S
C2154 C2155 1.373 . S
C2154 C2156 1.389 . S
C2155 H2134 0.950 . S
C2155 C2154 1.373 . S
C2155 C2171 1.377 . S
C2156 C2154 1.389 . S
C2156 C2157 1.524 . S
C2156 C2170 1.377 . S
C2157 C2156 1.524 . S
C2157 C2158 1.397 . S
C2157 C2162 1.363 . S
C2158 H2135 0.950 . S
C2158 C2157 1.397 . S
C2158 C2159 1.334 . S
C2159 H2136 0.950 . S
C2159 C2158 1.334 . S
C2159 C2160 1.287 . S
C2160 C2159 1.287 . S
C2160 C2161 1.524 . S
C2160 H2179 0.913 . S
C2161 H2137 0.950 . S
C2161 C2160 1.524 . S
C2161 C2162 1.415 . S
C2162 H2138 0.950 . S
C2162 C2157 1.363 . S
C2162 C2161 1.415 . S
C2163 H2139 0.951 . S
C2163 C2164 1.366 . S
C2163 C2165 1.388 . S
C2164 C2163 1.366 . S
C2164 C2168 1.385 . S
C2165 H2140 0.951 . S
C2165 C2163 1.388 . S
C2165 C2166 1.366 . S
C2166 C2165 1.366 . S
C2166 C2167 1.414 . S
C2166 C2169 1.499 . S
C2167 H2141 0.950 . S
C2167 C2166 1.414 . S
C2167 C2168 1.374 . S
C2168 H2142 0.950 . S
C2168 C2164 1.385 . S
C2168 C2167 1.374 . S
C2169 C2166 1.499 . S
C2169 C2170 1.373 . S
C2169 C2171 1.389 . S
C2170 H2143 0.950 . S
C2170 C2156 1.377 . S
C2170 C2169 1.373 . S
C2171 C2155 1.377 . S
C2171 C2169 1.389 . S
C2171 C2172 1.524 . S
C2172 C2171 1.524 . S
C2172 C2173 1.397 . S
C2172 C2177 1.363 . S
C2173 H2144 0.950 . S
C2173 C2172 1.397 . S
C2173 C2174 1.334 1_455 S
C2174 H2145 0.950 . S
C2174 C2173 1.334 1_655 S
C2174 C2175 1.287 . S
C2175 C2174 1.287 . S
C2175 C2176 1.524 1_655 S
C2175 H2178 0.999 . S
C2176 H2146 0.950 . S
C2176 C2175 1.524 1_455 S
C2176 C2177 1.415 . S
C2177 H2147 0.950 . S
C2177 C2172 1.363 . S
C2177 C2176 1.415 . S
H2178 C2175 0.999 . S
H2179 C2160 0.913 . S
H2180 C2198 0.951 . S
H2181 C2200 0.951 . S
H2182 C2202 0.950 . S
H2183 C2203 0.950 . S
H2184 C2205 0.950 . S
H2185 C2208 0.950 . S
H2186 C2209 0.950 . S
H2187 C2211 0.950 . S
H2188 C2212 0.950 . S
H2189 C2213 0.951 . S
H2190 C2215 0.951 . S
H2191 C2217 0.950 . S
H2192 C2218 0.950 . S
H2193 C2220 0.950 . S
H2194 C2223 0.950 . S
H2195 C2224 0.950 . S
H2196 C2226 0.950 . S
H2197 C2227 0.950 . S
C2198 H2180 0.951 . S
C2198 C2199 1.366 . S
C2198 C2200 1.388 . S
C2199 C2198 1.366 . S
C2199 C2203 1.385 . S
C2200 H2181 0.951 . S
C2200 C2198 1.388 . S
C2200 C2201 1.366 . S
C2201 C2200 1.366 . S
C2201 C2202 1.414 . S
C2201 C2204 1.499 . S
C2202 H2182 0.950 . S
C2202 C2201 1.414 . S
C2202 C2203 1.374 . S
C2203 H2183 0.950 . S
C2203 C2199 1.385 . S
C2203 C2202 1.374 . S
C2204 C2201 1.499 . S
C2204 C2205 1.373 . S
C2204 C2206 1.389 . S
C2205 H2184 0.950 . S
C2205 C2204 1.373 . S
C2205 C2221 1.377 . S
C2206 C2204 1.389 . S
C2206 C2207 1.524 . S
C2206 C2220 1.377 . S
C2207 C2206 1.524 . S
C2207 C2208 1.397 . S
C2207 C2212 1.363 . S
C2208 H2185 0.950 . S
C2208 C2207 1.397 . S
C2208 C2209 1.334 . S
C2209 H2186 0.950 . S
C2209 C2208 1.334 . S
C2209 C2210 1.287 . S
C2210 C2209 1.287 . S
C2210 C2211 1.524 . S
C2210 H2229 0.913 . S
C2211 H2187 0.950 . S
C2211 C2210 1.524 . S
C2211 C2212 1.415 . S
C2212 H2188 0.950 . S
C2212 C2207 1.363 . S
C2212 C2211 1.415 . S
C2213 H2189 0.951 . S
C2213 C2214 1.366 . S
C2213 C2215 1.388 . S
C2214 C2213 1.366 . S
C2214 C2218 1.385 . S
C2215 H2190 0.951 . S
C2215 C2213 1.388 . S
C2215 C2216 1.366 . S
C2216 C2215 1.366 . S
C2216 C2217 1.414 . S
C2216 C2219 1.499 . S
C2217 H2191 0.950 . S
C2217 C2216 1.414 . S
C2217 C2218 1.374 . S
C2218 H2192 0.950 . S
C2218 C2214 1.385 . S
C2218 C2217 1.374 . S
C2219 C2216 1.499 . S
C2219 C2220 1.373 . S
C2219 C2221 1.389 . S
C2220 H2193 0.950 . S
C2220 C2206 1.377 . S
C2220 C2219 1.373 . S
C2221 C2205 1.377 . S
C2221 C2219 1.389 . S
C2221 C2222 1.524 . S
C2222 C2221 1.524 . S
C2222 C2223 1.397 . S
C2222 C2227 1.363 . S
C2223 H2194 0.950 . S
C2223 C2222 1.397 . S
C2223 C2224 1.334 . S
C2224 H2195 0.950 . S
C2224 C2223 1.334 . S
C2224 C2225 1.287 . S
C2225 C2224 1.287 . S
C2225 C2226 1.524 . S
C2225 H2228 0.999 . S
C2226 H2196 0.950 . S
C2226 C2225 1.524 . S
C2226 C2227 1.415 . S
C2227 H2197 0.950 . S
C2227 C2222 1.363 . S
C2227 C2226 1.415 . S
H2228 C2225 0.999 . S
H2229 C2210 0.913 . S
H2230 C2248 0.951 . S
H2231 C2250 0.951 . S
H2232 C2252 0.950 . S
H2233 C2253 0.950 . S
H2234 C2255 0.950 . S
H2235 C2258 0.950 . S
H2236 C2259 0.950 . S
H2237 C2261 0.950 . S
H2238 C2262 0.950 . S
H2239 C2263 0.951 . S
H2240 C2265 0.951 . S
H2241 C2267 0.950 . S
H2242 C2268 0.950 . S
H2243 C2270 0.950 . S
H2244 C2273 0.950 . S
H2245 C2274 0.950 . S
H2246 C2276 0.950 . S
H2247 C2277 0.950 . S
C2248 H2230 0.951 . S
C2248 C2249 1.366 . S
C2248 C2250 1.388 . S
C2249 C2248 1.366 . S
C2249 C2253 1.385 . S
C2250 H2231 0.951 . S
C2250 C2248 1.388 . S
C2250 C2251 1.366 . S
C2251 C2250 1.366 . S
C2251 C2252 1.414 . S
C2251 C2254 1.499 . S
C2252 H2232 0.950 . S
C2252 C2251 1.414 . S
C2252 C2253 1.374 . S
C2253 H2233 0.950 . S
C2253 C2249 1.385 . S
C2253 C2252 1.374 . S
C2254 C2251 1.499 . S
C2254 C2255 1.373 . S
C2254 C2256 1.389 . S
C2255 H2234 0.950 . S
C2255 C2254 1.373 . S
C2255 C2271 1.377 . S
C2256 C2254 1.389 . S
C2256 C2257 1.524 . S
C2256 C2270 1.377 . S
C2257 C2256 1.524 . S
C2257 C2258 1.397 . S
C2257 C2262 1.363 . S
C2258 H2235 0.950 . S
C2258 C2257 1.397 . S
C2258 C2259 1.334 . S
C2259 H2236 0.950 . S
C2259 C2258 1.334 . S
C2259 C2260 1.287 . S
C2260 C2259 1.287 . S
C2260 C2261 1.524 . S
C2260 H2279 0.913 . S
C2261 H2237 0.950 . S
C2261 C2260 1.524 . S
C2261 C2262 1.415 . S
C2262 H2238 0.950 . S
C2262 C2257 1.363 . S
C2262 C2261 1.415 . S
C2263 H2239 0.951 . S
C2263 C2264 1.366 . S
C2263 C2265 1.388 . S
C2264 C2263 1.366 . S
C2264 C2268 1.385 . S
C2265 H2240 0.951 . S
C2265 C2263 1.388 . S
C2265 C2266 1.366 . S
C2266 C2265 1.366 . S
C2266 C2267 1.414 . S
C2266 C2269 1.499 . S
C2267 H2241 0.950 . S
C2267 C2266 1.414 . S
C2267 C2268 1.374 . S
C2268 H2242 0.950 . S
C2268 C2264 1.385 . S
C2268 C2267 1.374 . S
C2269 C2266 1.499 . S
C2269 C2270 1.373 . S
C2269 C2271 1.389 . S
C2270 H2243 0.950 . S
C2270 C2256 1.377 . S
C2270 C2269 1.373 . S
C2271 C2255 1.377 . S
C2271 C2269 1.389 . S
C2271 C2272 1.524 . S
C2272 C2271 1.524 . S
C2272 C2273 1.397 . S
C2272 C2277 1.363 . S
C2273 H2244 0.950 . S
C2273 C2272 1.397 . S
C2273 C2274 1.334 . S
C2274 H2245 0.950 . S
C2274 C2273 1.334 . S
C2274 C2275 1.287 . S
C2275 C2274 1.287 . S
C2275 C2276 1.524 . S
C2275 H2278 0.999 . S
C2276 H2246 0.950 . S
C2276 C2275 1.524 . S
C2276 C2277 1.415 . S
C2277 H2247 0.950 . S
C2277 C2272 1.363 . S
C2277 C2276 1.415 . S
H2278 C2275 0.999 . S
H2279 C2260 0.913 . S
H2280 C2298 0.956 . S
H2281 C2300 0.966 . S
H2282 C2302 0.950 . S
H2283 C2303 0.950 . S
H2284 C2305 0.950 . S
H2285 C2308 0.950 . S
H2286 C2309 0.950 . S
H2287 C2311 0.950 . S
H2288 C2312 0.950 . S
H2289 C2313 0.951 . S
H2290 C2315 0.951 . S
H2291 C2317 0.949 . S
H2292 C2318 0.952 . S
H2293 C2320 0.950 . S
H2294 C2323 0.950 . S
H2295 C2324 0.950 . S
H2296 C2326 0.950 . S
H2297 C2327 0.950 . S
C2298 H2280 0.956 . S
C2298 C2299 1.360 1_545 S
C2298 C2300 1.387 . S
C2299 C2298 1.360 1_565 S
C2299 C2303 1.385 . S
C2300 H2281 0.966 . S
C2300 C2298 1.387 . S
C2300 C2301 1.353 1_545 S
C2301 C2300 1.353 1_565 S
C2301 C2302 1.414 . S
C2301 C2304 1.499 . S
C2302 H2282 0.950 . S
C2302 C2301 1.414 . S
C2302 C2303 1.374 . S
C2303 H2283 0.950 . S
C2303 C2299 1.385 . S
C2303 C2302 1.374 . S
C2304 C2301 1.499 . S
C2304 C2305 1.373 . S
C2304 C2306 1.389 1_565 S
C2305 H2284 0.950 . S
C2305 C2304 1.373 . S
C2305 C2321 1.377 . S
C2306 C2304 1.389 1_545 S
C2306 C2307 1.524 . S
C2306 C2320 1.377 . S
C2307 C2306 1.524 . S
C2307 C2308 1.397 . S
C2307 C2312 1.363 . S
C2308 H2285 0.950 . S
C2308 C2307 1.397 . S
C2308 C2309 1.334 . S
C2309 H2286 0.950 . S
C2309 C2308 1.334 . S
C2309 C2310 1.287 . S
C2310 C2309 1.287 . S
C2310 C2311 1.524 . S
C2310 H2329 0.913 . S
C2311 H2287 0.950 . S
C2311 C2310 1.524 . S
C2311 C2312 1.415 . S
C2312 H2288 0.950 . S
C2312 C2307 1.363 . S
C2312 C2311 1.415 . S
C2313 H2289 0.951 . S
C2313 C2314 1.366 . S
C2313 C2315 1.388 . S
C2314 C2313 1.366 . S
C2314 C2318 1.383 1_565 S
C2315 H2290 0.951 . S
C2315 C2313 1.388 . S
C2315 C2316 1.366 . S
C2316 C2315 1.366 . S
C2316 C2317 1.416 1_565 S
C2316 C2319 1.499 . S
C2317 H2291 0.949 . S
C2317 C2316 1.416 1_545 S
C2317 C2318 1.374 . S
C2318 H2292 0.952 . S
C2318 C2314 1.383 1_545 S
C2318 C2317 1.374 . S
C2319 C2316 1.499 . S
C2319 C2320 1.373 1_565 S
C2319 C2321 1.389 . S
C2320 H2293 0.950 . S
C2320 C2306 1.377 . S
C2320 C2319 1.373 1_545 S
C2321 C2305 1.377 . S
C2321 C2319 1.389 . S
C2321 C2322 1.524 . S
C2322 C2321 1.524 . S
C2322 C2323 1.397 . S
C2322 C2327 1.363 . S
C2323 H2294 0.950 . S
C2323 C2322 1.397 . S
C2323 C2324 1.334 . S
C2324 H2295 0.950 . S
C2324 C2323 1.334 . S
C2324 C2325 1.287 . S
C2325 C2324 1.287 . S
C2325 C2326 1.524 . S
C2325 H2328 0.999 . S
C2326 H2296 0.950 . S
C2326 C2325 1.524 . S
C2326 C2327 1.415 . S
C2327 H2297 0.950 . S
C2327 C2322 1.363 . S
C2327 C2326 1.415 . S
H2328 C2325 0.999 . S
H2329 C2310 0.913 . S
H2330 C2348 0.951 . S
H2331 C2350 0.951 . S
H2332 C2352 0.950 . S
H2333 C2353 0.950 . S
H2334 C2355 0.950 . S
H2335 C2358 0.950 . S
H2336 C2359 0.950 . S
H2337 C2361 0.950 1_655 S
H2338 C2362 0.950 . S
H2339 C2363 0.951 . S
H2340 C2365 0.951 . S
H2341 C2367 0.950 . S
H2342 C2368 0.950 . S
H2343 C2370 0.950 . S
H2344 C2373 0.950 . S
H2345 C2374 0.950 . S
H2346 C2376 0.950 . S
H2347 C2377 0.950 . S
C2348 H2330 0.951 . S
C2348 C2349 1.366 . S
C2348 C2350 1.388 . S
C2349 C2348 1.366 . S
C2349 C2353 1.385 . S
C2350 H2331 0.951 . S
C2350 C2348 1.388 . S
C2350 C2351 1.366 . S
C2351 C2350 1.366 . S
C2351 C2352 1.414 . S
C2351 C2354 1.499 . S
C2352 H2332 0.950 . S
C2352 C2351 1.414 . S
C2352 C2353 1.374 . S
C2353 H2333 0.950 . S
C2353 C2349 1.385 . S
C2353 C2352 1.374 . S
C2354 C2351 1.499 . S
C2354 C2355 1.373 . S
C2354 C2356 1.389 . S
C2355 H2334 0.950 . S
C2355 C2354 1.373 . S
C2355 C2371 1.377 . S
C2356 C2354 1.389 . S
C2356 C2357 1.524 . S
C2356 C2370 1.377 . S
C2357 C2356 1.524 . S
C2357 C2358 1.397 . S
C2357 C2362 1.363 . S
C2358 H2335 0.950 . S
C2358 C2357 1.397 . S
C2358 C2359 1.334 . S
C2359 H2336 0.950 . S
C2359 C2358 1.334 . S
C2359 C2360 1.287 . S
C2360 C2359 1.287 . S
C2360 C2361 1.524 . S
C2360 H2379 0.913 . S
C2361 H2337 0.950 1_455 S
C2361 C2360 1.524 . S
C2361 C2362 1.415 . S
C2362 H2338 0.950 . S
C2362 C2357 1.363 . S
C2362 C2361 1.415 . S
C2363 H2339 0.951 . S
C2363 C2364 1.366 . S
C2363 C2365 1.388 . S
C2364 C2363 1.366 . S
C2364 C2368 1.385 . S
C2365 H2340 0.951 . S
C2365 C2363 1.388 . S
C2365 C2366 1.366 . S
C2366 C2365 1.366 . S
C2366 C2367 1.414 . S
C2366 C2369 1.499 . S
C2367 H2341 0.950 . S
C2367 C2366 1.414 . S
C2367 C2368 1.374 . S
C2368 H2342 0.950 . S
C2368 C2364 1.385 . S
C2368 C2367 1.374 . S
C2369 C2366 1.499 . S
C2369 C2370 1.373 . S
C2369 C2371 1.389 . S
C2370 H2343 0.950 . S
C2370 C2356 1.377 . S
C2370 C2369 1.373 . S
C2371 C2355 1.377 . S
C2371 C2369 1.389 . S
C2371 C2372 1.524 . S
C2372 C2371 1.524 . S
C2372 C2373 1.397 . S
C2372 C2377 1.363 . S
C2373 H2344 0.950 . S
C2373 C2372 1.397 . S
C2373 C2374 1.334 . S
C2374 H2345 0.950 . S
C2374 C2373 1.334 . S
C2374 C2375 1.287 . S
C2375 C2374 1.287 . S
C2375 C2376 1.524 . S
C2375 H2378 0.999 . S
C2376 H2346 0.950 . S
C2376 C2375 1.524 . S
C2376 C2377 1.415 . S
C2377 H2347 0.950 . S
C2377 C2372 1.363 . S
C2377 C2376 1.415 . S
H2378 C2375 0.999 . S
H2379 C2360 0.913 . S
H2380 C2398 0.951 . S
H2381 C2400 0.951 . S
H2382 C2402 0.950 . S
H2383 C2403 0.950 . S
H2384 C2405 0.950 . S
H2385 C2408 0.950 . S
H2386 C2409 0.950 . S
H2387 C2411 0.950 . S
H2388 C2412 0.950 . S
H2389 C2413 0.951 . S
H2390 C2415 0.951 . S
H2391 C2417 0.950 . S
H2392 C2418 0.950 . S
H2393 C2420 0.950 . S
H2394 C2423 0.950 . S
H2395 C2424 0.950 . S
H2396 C2426 0.950 . S
H2397 C2427 0.950 . S
C2398 H2380 0.951 . S
C2398 C2399 1.366 . S
C2398 C2400 1.388 . S
C2399 C2398 1.366 . S
C2399 C2403 1.385 1_545 S
C2400 H2381 0.951 . S
C2400 C2398 1.388 . S
C2400 C2401 1.366 . S
C2401 C2400 1.366 . S
C2401 C2402 1.414 1_545 S
C2401 C2404 1.499 . S
C2402 H2382 0.950 . S
C2402 C2401 1.414 1_565 S
C2402 C2403 1.374 . S
C2403 H2383 0.950 . S
C2403 C2399 1.385 1_565 S
C2403 C2402 1.374 . S
C2404 C2401 1.499 . S
C2404 C2405 1.373 1_545 S
C2404 C2406 1.389 . S
C2405 H2384 0.950 . S
C2405 C2404 1.373 1_565 S
C2405 C2421 1.377 . S
C2406 C2404 1.389 . S
C2406 C2407 1.524 . S
C2406 C2420 1.377 . S
C2407 C2406 1.524 . S
C2407 C2408 1.397 . S
C2407 C2412 1.363 . S
C2408 H2385 0.950 . S
C2408 C2407 1.397 . S
C2408 C2409 1.334 . S
C2409 H2386 0.950 . S
C2409 C2408 1.334 . S
C2409 C2410 1.287 . S
C2410 C2409 1.287 . S
C2410 C2411 1.524 . S
C2410 H2429 0.913 . S
C2411 H2387 0.950 . S
C2411 C2410 1.524 . S
C2411 C2412 1.415 . S
C2412 H2388 0.950 . S
C2412 C2407 1.363 . S
C2412 C2411 1.415 . S
C2413 H2389 0.951 . S
C2413 C2414 1.366 1_565 S
C2413 C2415 1.388 . S
C2414 C2413 1.366 1_545 S
C2414 C2418 1.385 . S
C2415 H2390 0.951 . S
C2415 C2413 1.388 . S
C2415 C2416 1.366 1_565 S
C2416 C2415 1.366 1_545 S
C2416 C2417 1.414 . S
C2416 C2419 1.499 . S
C2417 H2391 0.950 . S
C2417 C2416 1.414 . S
C2417 C2418 1.374 . S
C2418 H2392 0.950 . S
C2418 C2414 1.385 . S
C2418 C2417 1.374 . S
C2419 C2416 1.499 . S
C2419 C2420 1.373 . S
C2419 C2421 1.389 1_545 S
C2420 H2393 0.950 . S
C2420 C2406 1.377 . S
C2420 C2419 1.373 . S
C2421 C2405 1.377 . S
C2421 C2419 1.389 1_565 S
C2421 C2422 1.524 . S
C2422 C2421 1.524 . S
C2422 C2423 1.397 . S
C2422 C2427 1.363 . S
C2423 H2394 0.950 . S
C2423 C2422 1.397 . S
C2423 C2424 1.334 . S
C2424 H2395 0.950 . S
C2424 C2423 1.334 . S
C2424 C2425 1.287 . S
C2425 C2424 1.287 . S
C2425 C2426 1.524 . S
C2425 H2428 0.999 . S
C2426 H2396 0.950 . S
C2426 C2425 1.524 . S
C2426 C2427 1.415 . S
C2427 H2397 0.950 . S
C2427 C2422 1.363 . S
C2427 C2426 1.415 . S
H2428 C2425 0.999 . S
H2429 C2410 0.913 . S
H2430 C2448 0.951 . S
H2431 C2450 0.951 . S
H2432 C2452 0.950 . S
H2433 C2453 0.950 . S
H2434 C2455 0.950 . S
H2435 C2458 0.950 . S
H2436 C2459 0.950 . S
H2437 C2461 0.950 . S
H2438 C2462 0.950 . S
H2439 C2463 0.951 . S
H2440 C2465 0.951 . S
H2441 C2467 0.950 . S
H2442 C2468 0.950 . S
H2443 C2470 0.950 . S
H2444 C2473 0.950 . S
H2445 C2474 0.950 . S
H2446 C2476 0.950 . S
H2447 C2477 0.950 . S
C2448 H2430 0.951 . S
C2448 C2449 1.366 . S
C2448 C2450 1.388 . S
C2449 C2448 1.366 . S
C2449 C2453 1.385 . S
C2450 H2431 0.951 . S
C2450 C2448 1.388 . S
C2450 C2451 1.366 . S
C2451 C2450 1.366 . S
C2451 C2452 1.414 . S
C2451 C2454 1.499 . S
C2452 H2432 0.950 . S
C2452 C2451 1.414 . S
C2452 C2453 1.374 . S
C2453 H2433 0.950 . S
C2453 C2449 1.385 . S
C2453 C2452 1.374 . S
C2454 C2451 1.499 . S
C2454 C2455 1.373 . S
C2454 C2456 1.389 . S
C2455 H2434 0.950 . S
C2455 C2454 1.373 . S
C2455 C2471 1.377 . S
C2456 C2454 1.389 . S
C2456 C2457 1.524 . S
C2456 C2470 1.377 . S
C2457 C2456 1.524 . S
C2457 C2458 1.397 . S
C2457 C2462 1.363 . S
C2458 H2435 0.950 . S
C2458 C2457 1.397 . S
C2458 C2459 1.334 . S
C2459 H2436 0.950 . S
C2459 C2458 1.334 . S
C2459 C2460 1.287 . S
C2460 C2459 1.287 . S
C2460 C2461 1.524 . S
C2460 H2479 0.913 . S
C2461 H2437 0.950 . S
C2461 C2460 1.524 . S
C2461 C2462 1.415 . S
C2462 H2438 0.950 . S
C2462 C2457 1.363 . S
C2462 C2461 1.415 . S
C2463 H2439 0.951 . S
C2463 C2464 1.366 . S
C2463 C2465 1.388 . S
C2464 C2463 1.366 . S
C2464 C2468 1.385 . S
C2465 H2440 0.951 . S
C2465 C2463 1.388 . S
C2465 C2466 1.366 . S
C2466 C2465 1.366 . S
C2466 C2467 1.414 . S
C2466 C2469 1.499 . S
C2467 H2441 0.950 . S
C2467 C2466 1.414 . S
C2467 C2468 1.374 . S
C2468 H2442 0.950 . S
C2468 C2464 1.385 . S
C2468 C2467 1.374 . S
C2469 C2466 1.499 . S
C2469 C2470 1.373 . S
C2469 C2471 1.389 . S
C2470 H2443 0.950 . S
C2470 C2456 1.377 . S
C2470 C2469 1.373 . S
C2471 C2455 1.377 . S
C2471 C2469 1.389 . S
C2471 C2472 1.524 . S
C2472 C2471 1.524 . S
C2472 C2473 1.397 . S
C2472 C2477 1.363 . S
C2473 H2444 0.950 . S
C2473 C2472 1.397 . S
C2473 C2474 1.334 . S
C2474 H2445 0.950 . S
C2474 C2473 1.334 . S
C2474 C2475 1.287 . S
C2475 C2474 1.287 . S
C2475 C2476 1.524 . S
C2475 H2478 0.999 . S
C2476 H2446 0.950 . S
C2476 C2475 1.524 . S
C2476 C2477 1.415 . S
C2477 H2447 0.950 . S
C2477 C2472 1.363 . S
C2477 C2476 1.415 . S
H2478 C2475 0.999 . S
H2479 C2460 0.913 . S
H2480 C2498 0.951 . S
H2481 C2500 0.951 . S
H2482 C2502 0.950 . S
H2483 C2503 0.950 . S
H2484 C2505 0.950 . S
H2485 C2508 0.950 . S
H2486 C2509 0.950 . S
H2487 C2511 0.950 . S
H2488 C2512 0.950 . S
H2489 C2513 0.951 . S
H2490 C2515 0.951 . S
H2491 C2517 0.950 . S
H2492 C2518 0.950 . S
H2493 C2520 0.950 . S
H2494 C2523 0.950 . S
H2495 C2524 0.950 . S
H2496 C2526 0.950 . S
H2497 C2527 0.950 . S
C2498 H2480 0.951 . S
C2498 C2499 1.366 . S
C2498 C2500 1.388 . S
C2499 C2498 1.366 . S
C2499 C2503 1.385 . S
C2500 H2481 0.951 . S
C2500 C2498 1.388 . S
C2500 C2501 1.366 . S
C2501 C2500 1.366 . S
C2501 C2502 1.414 . S
C2501 C2504 1.499 . S
C2502 H2482 0.950 . S
C2502 C2501 1.414 . S
C2502 C2503 1.374 . S
C2503 H2483 0.950 . S
C2503 C2499 1.385 . S
C2503 C2502 1.374 . S
C2504 C2501 1.499 . S
C2504 C2505 1.373 . S
C2504 C2506 1.389 . S
C2505 H2484 0.950 . S
C2505 C2504 1.373 . S
C2505 C2521 1.377 . S
C2506 C2504 1.389 . S
C2506 C2507 1.524 . S
C2506 C2520 1.377 . S
C2507 C2506 1.524 . S
C2507 C2508 1.397 . S
C2507 C2512 1.363 . S
C2508 H2485 0.950 . S
C2508 C2507 1.397 . S
C2508 C2509 1.334 . S
C2509 H2486 0.950 . S
C2509 C2508 1.334 . S
C2509 C2510 1.287 . S
C2510 C2509 1.287 . S
C2510 C2511 1.524 . S
C2510 H2529 0.913 . S
C2511 H2487 0.950 . S
C2511 C2510 1.524 . S
C2511 C2512 1.415 . S
C2512 H2488 0.950 . S
C2512 C2507 1.363 . S
C2512 C2511 1.415 . S
C2513 H2489 0.951 . S
C2513 C2514 1.366 . S
C2513 C2515 1.388 . S
C2514 C2513 1.366 . S
C2514 C2518 1.385 . S
C2515 H2490 0.951 . S
C2515 C2513 1.388 . S
C2515 C2516 1.366 . S
C2516 C2515 1.366 . S
C2516 C2517 1.414 . S
C2516 C2519 1.499 . S
C2517 H2491 0.950 . S
C2517 C2516 1.414 . S
C2517 C2518 1.374 . S
C2518 H2492 0.950 . S
C2518 C2514 1.385 . S
C2518 C2517 1.374 . S
C2519 C2516 1.499 . S
C2519 C2520 1.373 . S
C2519 C2521 1.389 . S
C2520 H2493 0.950 . S
C2520 C2506 1.377 . S
C2520 C2519 1.373 . S
C2521 C2505 1.377 . S
C2521 C2519 1.389 . S
C2521 C2522 1.524 . S
C2522 C2521 1.524 . S
C2522 C2523 1.397 . S
C2522 C2527 1.363 . S
C2523 H2494 0.950 . S
C2523 C2522 1.397 . S
C2523 C2524 1.334 . S
C2524 H2495 0.950 . S
C2524 C2523 1.334 . S
C2524 C2525 1.287 . S
C2525 C2524 1.287 . S
C2525 C2526 1.524 . S
C2525 H2528 0.999 . S
C2526 H2496 0.950 . S
C2526 C2525 1.524 . S
C2526 C2527 1.415 . S
C2527 H2497 0.950 . S
C2527 C2522 1.363 . S
C2527 C2526 1.415 . S
H2528 C2525 0.999 . S
H2529 C2510 0.913 . S
H2530 C2548 0.951 . S
H2531 C2550 0.951 . S
H2532 C2552 0.950 . S
H2533 C2553 0.950 . S
H2534 C2555 0.950 . S
H2535 C2558 0.950 . S
H2536 C2559 0.950 . S
H2537 C2561 0.950 . S
H2538 C2562 0.950 . S
H2539 C2563 0.951 . S
H2540 C2565 0.951 . S
H2541 C2567 0.950 . S
H2542 C2568 0.950 . S
H2543 C2570 0.950 . S
H2544 C2573 0.950 . S
H2545 C2574 0.950 . S
H2546 C2576 0.950 . S
H2547 C2577 0.950 . S
C2548 H2530 0.951 . S
C2548 C2549 1.366 . S
C2548 C2550 1.388 . S
C2549 C2548 1.366 . S
C2549 C2553 1.385 . S
C2550 H2531 0.951 . S
C2550 C2548 1.388 . S
C2550 C2551 1.366 . S
C2551 C2550 1.366 . S
C2551 C2552 1.414 . S
C2551 C2554 1.499 . S
C2552 H2532 0.950 . S
C2552 C2551 1.414 . S
C2552 C2553 1.374 . S
C2553 H2533 0.950 . S
C2553 C2549 1.385 . S
C2553 C2552 1.374 . S
C2554 C2551 1.499 . S
C2554 C2555 1.373 . S
C2554 C2556 1.389 . S
C2555 H2534 0.950 . S
C2555 C2554 1.373 . S
C2555 C2571 1.377 . S
C2556 C2554 1.389 . S
C2556 C2557 1.524 . S
C2556 C2570 1.377 . S
C2557 C2556 1.524 . S
C2557 C2558 1.397 . S
C2557 C2562 1.363 . S
C2558 H2535 0.950 . S
C2558 C2557 1.397 . S
C2558 C2559 1.334 . S
C2559 H2536 0.950 . S
C2559 C2558 1.334 . S
C2559 C2560 1.287 . S
C2560 C2559 1.287 . S
C2560 C2561 1.524 . S
C2560 H2579 0.913 . S
C2561 H2537 0.950 . S
C2561 C2560 1.524 . S
C2561 C2562 1.415 . S
C2562 H2538 0.950 . S
C2562 C2557 1.363 . S
C2562 C2561 1.415 . S
C2563 H2539 0.951 . S
C2563 C2564 1.366 . S
C2563 C2565 1.388 . S
C2564 C2563 1.366 . S
C2564 C2568 1.385 . S
C2565 H2540 0.951 . S
C2565 C2563 1.388 . S
C2565 C2566 1.366 . S
C2566 C2565 1.366 . S
C2566 C2567 1.414 . S
C2566 C2569 1.499 . S
C2567 H2541 0.950 . S
C2567 C2566 1.414 . S
C2567 C2568 1.374 . S
C2568 H2542 0.950 . S
C2568 C2564 1.385 . S
C2568 C2567 1.374 . S
C2569 C2566 1.499 . S
C2569 C2570 1.373 . S
C2569 C2571 1.389 . S
C2570 H2543 0.950 . S
C2570 C2556 1.377 . S
C2570 C2569 1.373 . S
C2571 C2555 1.377 . S
C2571 C2569 1.389 . S
C2571 C2572 1.524 . S
C2572 C2571 1.524 . S
C2572 C2573 1.397 . S
C2572 C2577 1.363 . S
C2573 H2544 0.950 . S
C2573 C2572 1.397 . S
C2573 C2574 1.334 . S
C2574 H2545 0.950 . S
C2574 C2573 1.334 . S
C2574 C2575 1.287 . S
C2575 C2574 1.287 . S
C2575 C2576 1.524 . S
C2575 H2578 0.999 . S
C2576 H2546 0.950 . S
C2576 C2575 1.524 . S
C2576 C2577 1.415 . S
C2577 H2547 0.950 . S
C2577 C2572 1.363 . S
C2577 C2576 1.415 . S
H2578 C2575 0.999 . S
H2579 C2560 0.913 . S
H2580 C2598 0.951 . S
H2581 C2600 0.951 . S
H2582 C2602 0.950 . S
H2583 C2603 0.950 . S
H2584 C2605 0.950 . S
H2585 C2608 0.950 . S
H2586 C2609 0.950 . S
H2587 C2611 0.950 . S
H2588 C2612 0.950 . S
H2589 C2613 0.951 . S
H2590 C2615 0.951 . S
H2591 C2617 0.950 . S
H2592 C2618 0.950 . S
H2593 C2620 0.950 . S
H2594 C2623 0.950 . S
H2595 C2624 0.950 . S
H2596 C2626 0.950 . S
H2597 C2627 0.950 . S
C2598 H2580 0.951 . S
C2598 C2599 1.366 . S
C2598 C2600 1.388 . S
C2599 C2598 1.366 . S
C2599 C2603 1.385 . S
C2600 H2581 0.951 . S
C2600 C2598 1.388 . S
C2600 C2601 1.366 . S
C2601 C2600 1.366 . S
C2601 C2602 1.414 . S
C2601 C2604 1.499 . S
C2602 H2582 0.950 . S
C2602 C2601 1.414 . S
C2602 C2603 1.374 . S
C2603 H2583 0.950 . S
C2603 C2599 1.385 . S
C2603 C2602 1.374 . S
C2604 C2601 1.499 . S
C2604 C2605 1.373 . S
C2604 C2606 1.389 . S
C2605 H2584 0.950 . S
C2605 C2604 1.373 . S
C2605 C2621 1.377 . S
C2606 C2604 1.389 . S
C2606 C2607 1.524 . S
C2606 C2620 1.377 . S
C2607 C2606 1.524 . S
C2607 C2608 1.397 . S
C2607 C2612 1.363 . S
C2608 H2585 0.950 . S
C2608 C2607 1.397 . S
C2608 C2609 1.334 . S
C2609 H2586 0.950 . S
C2609 C2608 1.334 . S
C2609 C2610 1.287 . S
C2610 C2609 1.287 . S
C2610 C2611 1.524 . S
C2610 H2629 0.913 . S
C2611 H2587 0.950 . S
C2611 C2610 1.524 . S
C2611 C2612 1.415 . S
C2612 H2588 0.950 . S
C2612 C2607 1.363 . S
C2612 C2611 1.415 . S
C2613 H2589 0.951 . S
C2613 C2614 1.366 . S
C2613 C2615 1.388 . S
C2614 C2613 1.366 . S
C2614 C2618 1.385 . S
C2615 H2590 0.951 . S
C2615 C2613 1.388 . S
C2615 C2616 1.366 . S
C2616 C2615 1.366 . S
C2616 C2617 1.414 . S
C2616 C2619 1.499 . S
C2617 H2591 0.950 . S
C2617 C2616 1.414 . S
C2617 C2618 1.374 . S
C2618 H2592 0.950 . S
C2618 C2614 1.385 . S
C2618 C2617 1.374 . S
C2619 C2616 1.499 . S
C2619 C2620 1.373 . S
C2619 C2621 1.389 . S
C2620 H2593 0.950 . S
C2620 C2606 1.377 . S
C2620 C2619 1.373 . S
C2621 C2605 1.377 . S
C2621 C2619 1.389 . S
C2621 C2622 1.524 . S
C2622 C2621 1.524 . S
C2622 C2623 1.397 . S
C2622 C2627 1.363 . S
C2623 H2594 0.950 . S
C2623 C2622 1.397 . S
C2623 C2624 1.334 . S
C2624 H2595 0.950 . S
C2624 C2623 1.334 . S
C2624 C2625 1.287 . S
C2625 C2624 1.287 . S
C2625 C2626 1.524 . S
C2625 H2628 0.999 . S
C2626 H2596 0.950 . S
C2626 C2625 1.524 . S
C2626 C2627 1.415 . S
C2627 H2597 0.950 . S
C2627 C2622 1.363 . S
C2627 C2626 1.415 . S
H2628 C2625 0.999 . S
H2629 C2610 0.913 . S
H2630 C2648 0.951 . S
H2631 C2650 0.951 . S
H2632 C2652 0.950 . S
H2633 C2653 0.950 . S
H2634 C2655 0.950 . S
H2635 C2658 0.950 . S
H2636 C2659 0.950 . S
H2637 C2661 0.950 . S
H2638 C2662 0.950 . S
H2639 C2663 0.951 . S
H2640 C2665 0.951 . S
H2641 C2667 0.950 . S
H2642 C2668 0.950 . S
H2643 C2670 0.950 . S
H2644 C2673 0.950 . S
H2645 C2674 0.950 . S
H2646 C2676 0.950 . S
H2647 C2677 0.950 . S
C2648 H2630 0.951 . S
C2648 C2649 1.366 . S
C2648 C2650 1.388 . S
C2649 C2648 1.366 . S
C2649 C2653 1.385 . S
C2650 H2631 0.951 . S
C2650 C2648 1.388 . S
C2650 C2651 1.366 . S
C2651 C2650 1.366 . S
C2651 C2652 1.414 . S
C2651 C2654 1.499 . S
C2652 H2632 0.950 . S
C2652 C2651 1.414 . S
C2652 C2653 1.374 . S
C2653 H2633 0.950 . S
C2653 C2649 1.385 . S
C2653 C2652 1.374 . S
C2654 C2651 1.499 . S
C2654 C2655 1.373 . S
C2654 C2656 1.389 . S
C2655 H2634 0.950 . S
C2655 C2654 1.373 . S
C2655 C2671 1.377 . S
C2656 C2654 1.389 . S
C2656 C2657 1.524 . S
C2656 C2670 1.377 . S
C2657 C2656 1.524 . S
C2657 C2658 1.397 . S
C2657 C2662 1.363 . S
C2658 H2635 0.950 . S
C2658 C2657 1.397 . S
C2658 C2659 1.334 . S
C2659 H2636 0.950 . S
C2659 C2658 1.334 . S
C2659 C2660 1.287 . S
C2660 C2659 1.287 . S
C2660 C2661 1.524 . S
C2660 H2679 0.913 . S
C2661 H2637 0.950 . S
C2661 C2660 1.524 . S
C2661 C2662 1.415 . S
C2662 H2638 0.950 . S
C2662 C2657 1.363 . S
C2662 C2661 1.415 . S
C2663 H2639 0.951 . S
C2663 C2664 1.366 . S
C2663 C2665 1.388 . S
C2664 C2663 1.366 . S
C2664 C2668 1.385 . S
C2665 H2640 0.951 . S
C2665 C2663 1.388 . S
C2665 C2666 1.366 . S
C2666 C2665 1.366 . S
C2666 C2667 1.414 . S
C2666 C2669 1.499 . S
C2667 H2641 0.950 . S
C2667 C2666 1.414 . S
C2667 C2668 1.374 . S
C2668 H2642 0.950 . S
C2668 C2664 1.385 . S
C2668 C2667 1.374 . S
C2669 C2666 1.499 . S
C2669 C2670 1.373 . S
C2669 C2671 1.389 . S
C2670 H2643 0.950 . S
C2670 C2656 1.377 . S
C2670 C2669 1.373 . S
C2671 C2655 1.377 . S
C2671 C2669 1.389 . S
C2671 C2672 1.524 . S
C2672 C2671 1.524 . S
C2672 C2673 1.397 . S
C2672 C2677 1.363 . S
C2673 H2644 0.950 . S
C2673 C2672 1.397 . S
C2673 C2674 1.334 . S
C2674 H2645 0.950 . S
C2674 C2673 1.334 . S
C2674 C2675 1.287 . S
C2675 C2674 1.287 . S
C2675 C2676 1.524 . S
C2675 H2678 0.999 . S
C2676 H2646 0.950 . S
C2676 C2675 1.524 . S
C2676 C2677 1.415 . S
C2677 H2647 0.950 . S
C2677 C2672 1.363 . S
C2677 C2676 1.415 . S
H2678 C2675 0.999 . S
H2679 C2660 0.913 . S
H2680 C2698 0.969 . S
H2681 C2700 0.951 . S
H2682 C2702 0.950 . S
H2683 C2703 0.950 . S
H2684 C2705 0.950 . S
H2685 C2708 0.950 . S
H2686 C2709 0.950 . S
H2687 C2711 0.950 . S
H2688 C2712 0.950 . S
H2689 C2713 0.951 . S
H2690 C2715 0.951 . S
H2691 C2717 0.962 . S
H2692 C2718 0.965 . S
H2693 C2720 0.950 . S
H2694 C2723 0.950 . S
H2695 C2724 0.950 . S
H2696 C2726 0.950 . S
H2697 C2727 0.950 . S
C2698 H2680 0.969 . S
C2698 C2699 1.349 1_545 S
C2698 C2700 1.390 . S
C2699 C2698 1.349 1_565 S
C2699 C2703 1.385 . S
C2700 H2681 0.951 . S
C2700 C2698 1.390 . S
C2700 C2701 1.366 1_545 S
C2701 C2700 1.366 1_565 S
C2701 C2702 1.414 . S
C2701 C2704 1.499 . S
C2702 H2682 0.950 . S
C2702 C2701 1.414 . S
C2702 C2703 1.374 . S
C2703 H2683 0.950 . S
C2703 C2699 1.385 . S
C2703 C2702 1.374 . S
C2704 C2701 1.499 . S
C2704 C2705 1.373 . S
C2704 C2706 1.389 1_565 S
C2705 H2684 0.950 . S
C2705 C2704 1.373 . S
C2705 C2721 1.377 . S
C2706 C2704 1.389 1_545 S
C2706 C2707 1.524 . S
C2706 C2720 1.377 . S
C2707 C2706 1.524 . S
C2707 C2708 1.397 . S
C2707 C2712 1.363 . S
C2708 H2685 0.950 . S
C2708 C2707 1.397 . S
C2708 C2709 1.334 . S
C2709 H2686 0.950 . S
C2709 C2708 1.334 . S
C2709 C2710 1.287 . S
C2710 C2709 1.287 . S
C2710 C2711 1.524 . S
C2710 H2729 0.913 . S
C2711 H2687 0.950 . S
C2711 C2710 1.524 . S
C2711 C2712 1.415 . S
C2712 H2688 0.950 . S
C2712 C2707 1.363 . S
C2712 C2711 1.415 . S
C2713 H2689 0.951 . S
C2713 C2714 1.366 . S
C2713 C2715 1.388 . S
C2714 C2713 1.366 . S
C2714 C2718 1.371 1_565 S
C2715 H2690 0.951 . S
C2715 C2713 1.388 . S
C2715 C2716 1.366 . S
C2716 C2715 1.366 . S
C2716 C2717 1.403 1_565 S
C2716 C2719 1.499 . S
C2717 H2691 0.962 . S
C2717 C2716 1.403 1_545 S
C2717 C2718 1.374 . S
C2718 H2692 0.965 . S
C2718 C2714 1.371 1_545 S
C2718 C2717 1.374 . S
C2719 C2716 1.499 . S
C2719 C2720 1.373 1_565 S
C2719 C2721 1.389 . S
C2720 H2693 0.950 . S
C2720 C2706 1.377 . S
C2720 C2719 1.373 1_545 S
C2721 C2705 1.377 . S
C2721 C2719 1.389 . S
C2721 C2722 1.524 . S
C2722 C2721 1.524 . S
C2722 C2723 1.397 . S
C2722 C2727 1.363 . S
C2723 H2694 0.950 . S
C2723 C2722 1.397 . S
C2723 C2724 1.334 . S
C2724 H2695 0.950 . S
C2724 C2723 1.334 . S
C2724 C2725 1.287 . S
C2725 C2724 1.287 . S
C2725 C2726 1.524 . S
C2725 H2728 0.999 . S
C2726 H2696 0.950 . S
C2726 C2725 1.524 . S
C2726 C2727 1.415 . S
C2727 H2697 0.950 . S
C2727 C2722 1.363 . S
C2727 C2726 1.415 . S
H2728 C2725 0.999 . S
H2729 C2710 0.913 . S
H2730 C2748 0.951 . S
H2731 C2750 0.951 . S
H2732 C2752 0.950 . S
H2733 C2753 0.950 . S
H2734 C2755 0.950 . S
H2735 C2758 0.950 . S
H2736 C2759 0.950 . S
H2737 C2761 0.950 . S
H2738 C2762 0.950 . S
H2739 C2763 0.951 . S
H2740 C2765 0.951 . S
H2741 C2767 0.950 . S
H2742 C2768 0.950 . S
H2743 C2770 0.950 . S
H2744 C2773 0.950 . S
H2745 C2774 0.950 . S
H2746 C2776 0.950 . S
H2747 C2777 0.950 . S
C2748 H2730 0.951 . S
C2748 C2749 1.366 . S
C2748 C2750 1.388 . S
C2749 C2748 1.366 . S
C2749 C2753 1.385 . S
C2750 H2731 0.951 . S
C2750 C2748 1.388 . S
C2750 C2751 1.366 . S
C2751 C2750 1.366 . S
C2751 C2752 1.414 . S
C2751 C2754 1.499 . S
C2752 H2732 0.950 . S
C2752 C2751 1.414 . S
C2752 C2753 1.374 . S
C2753 H2733 0.950 . S
C2753 C2749 1.385 . S
C2753 C2752 1.374 . S
C2754 C2751 1.499 . S
C2754 C2755 1.373 . S
C2754 C2756 1.389 . S
C2755 H2734 0.950 . S
C2755 C2754 1.373 . S
C2755 C2771 1.377 . S
C2756 C2754 1.389 . S
C2756 C2757 1.524 . S
C2756 C2770 1.377 . S
C2757 C2756 1.524 . S
C2757 C2758 1.397 . S
C2757 C2762 1.363 . S
C2758 H2735 0.950 . S
C2758 C2757 1.397 . S
C2758 C2759 1.334 . S
C2759 H2736 0.950 . S
C2759 C2758 1.334 . S
C2759 C2760 1.287 . S
C2760 C2759 1.287 . S
C2760 C2761 1.524 . S
C2760 H2779 0.913 . S
C2761 H2737 0.950 . S
C2761 C2760 1.524 . S
C2761 C2762 1.415 . S
C2762 H2738 0.950 . S
C2762 C2757 1.363 . S
C2762 C2761 1.415 . S
C2763 H2739 0.951 . S
C2763 C2764 1.366 . S
C2763 C2765 1.388 . S
C2764 C2763 1.366 . S
C2764 C2768 1.385 . S
C2765 H2740 0.951 . S
C2765 C2763 1.388 . S
C2765 C2766 1.366 . S
C2766 C2765 1.366 . S
C2766 C2767 1.414 . S
C2766 C2769 1.499 . S
C2767 H2741 0.950 . S
C2767 C2766 1.414 . S
C2767 C2768 1.374 . S
C2768 H2742 0.950 . S
C2768 C2764 1.385 . S
C2768 C2767 1.374 . S
C2769 C2766 1.499 . S
C2769 C2770 1.373 . S
C2769 C2771 1.389 . S
C2770 H2743 0.950 . S
C2770 C2756 1.377 . S
C2770 C2769 1.373 . S
C2771 C2755 1.377 . S
C2771 C2769 1.389 . S
C2771 C2772 1.524 . S
C2772 C2771 1.524 . S
C2772 C2773 1.397 . S
C2772 C2777 1.363 . S
C2773 H2744 0.950 . S
C2773 C2772 1.397 . S
C2773 C2774 1.334 . S
C2774 H2745 0.950 . S
C2774 C2773 1.334 . S
C2774 C2775 1.287 . S
C2775 C2774 1.287 . S
C2775 C2776 1.524 . S
C2775 H2778 0.999 . S
C2776 H2746 0.950 . S
C2776 C2775 1.524 . S
C2776 C2777 1.415 . S
C2777 H2747 0.950 . S
C2777 C2772 1.363 . S
C2777 C2776 1.415 . S
H2778 C2775 0.999 . S
H2779 C2760 0.913 . S
H2780 C2798 0.951 . S
H2781 C2800 0.951 . S
H2782 C2802 0.950 . S
H2783 C2803 0.950 . S
H2784 C2805 0.950 . S
H2785 C2808 0.950 . S
H2786 C2809 0.950 . S
H2787 C2811 0.950 . S
H2788 C2812 0.950 1_545 S
H2789 C2813 0.951 . S
H2790 C2815 0.951 . S
H2791 C2817 0.950 . S
H2792 C2818 0.950 . S
H2793 C2820 0.947 1_565 S
H2794 C2823 0.950 . S
H2795 C2824 0.950 . S
H2796 C2826 0.950 . S
H2797 C2827 0.950 . S
C2798 H2780 0.951 . S
C2798 C2799 1.366 . S
C2798 C2800 1.388 . S
C2799 C2798 1.366 . S
C2799 C2803 1.385 1_545 S
C2800 H2781 0.951 . S
C2800 C2798 1.388 . S
C2800 C2801 1.366 . S
C2801 C2800 1.366 . S
C2801 C2802 1.414 1_545 S
C2801 C2804 1.499 . S
C2802 H2782 0.950 . S
C2802 C2801 1.414 1_565 S
C2802 C2803 1.374 . S
C2803 H2783 0.950 . S
C2803 C2799 1.385 1_565 S
C2803 C2802 1.374 . S
C2804 C2801 1.499 . S
C2804 C2805 1.373 . S
C2804 C2806 1.389 1_545 S
C2805 H2784 0.950 . S
C2805 C2804 1.373 . S
C2805 C2821 1.377 . S
C2806 C2804 1.389 1_565 S
C2806 C2807 1.524 . S
C2806 C2820 1.376 1_565 S
C2807 C2806 1.524 . S
C2807 C2808 1.397 . S
C2807 C2812 1.363 . S
C2808 H2785 0.950 . S
C2808 C2807 1.397 . S
C2808 C2809 1.334 . S
C2809 H2786 0.950 . S
C2809 C2808 1.334 . S
C2809 C2810 1.287 . S
C2810 C2809 1.287 . S
C2810 C2811 1.524 . S
C2810 H2829 0.913 . S
C2811 H2787 0.950 . S
C2811 C2810 1.524 . S
C2811 C2812 1.415 . S
C2812 H2788 0.950 1_565 S
C2812 C2807 1.363 . S
C2812 C2811 1.415 . S
C2813 H2789 0.951 . S
C2813 C2814 1.366 1_565 S
C2813 C2815 1.388 . S
C2814 C2813 1.366 1_545 S
C2814 C2818 1.385 . S
C2815 H2790 0.951 . S
C2815 C2813 1.388 . S
C2815 C2816 1.366 1_565 S
C2816 C2815 1.366 1_545 S
C2816 C2817 1.414 . S
C2816 C2819 1.499 . S
C2817 H2791 0.950 . S
C2817 C2816 1.414 . S
C2817 C2818 1.374 . S
C2818 H2792 0.950 . S
C2818 C2814 1.385 . S
C2818 C2817 1.374 . S
C2819 C2816 1.499 . S
C2819 C2820 1.378 . S
C2819 C2821 1.389 . S
C2820 H2793 0.947 1_545 S
C2820 C2806 1.376 1_545 S
C2820 C2819 1.378 . S
C2821 C2805 1.377 . S
C2821 C2819 1.389 . S
C2821 C2822 1.524 . S
C2822 C2821 1.524 . S
C2822 C2823 1.397 . S
C2822 C2827 1.363 . S
C2823 H2794 0.950 . S
C2823 C2822 1.397 . S
C2823 C2824 1.334 . S
C2824 H2795 0.950 . S
C2824 C2823 1.334 . S
C2824 C2825 1.287 . S
C2825 C2824 1.287 . S
C2825 C2826 1.524 . S
C2825 H2828 0.999 . S
C2826 H2796 0.950 . S
C2826 C2825 1.524 . S
C2826 C2827 1.415 . S
C2827 H2797 0.950 . S
C2827 C2822 1.363 . S
C2827 C2826 1.415 . S
H2828 C2825 0.999 . S
H2829 C2810 0.913 . S
H2830 C2848 0.951 . S
H2831 C2850 0.951 . S
H2832 C2852 0.950 . S
H2833 C2853 0.950 . S
H2834 C2855 0.950 . S
H2835 C2858 0.950 . S
H2836 C2859 0.950 . S
H2837 C2861 0.950 . S
H2838 C2862 0.950 . S
H2839 C2863 0.951 . S
H2840 C2865 0.951 . S
H2841 C2867 0.950 . S
H2842 C2868 0.950 . S
H2843 C2870 0.950 . S
H2844 C2873 0.950 . S
H2845 C2874 0.950 . S
H2846 C2876 0.950 . S
H2847 C2877 0.950 . S
C2848 H2830 0.951 . S
C2848 C2849 1.366 . S
C2848 C2850 1.388 . S
C2849 C2848 1.366 . S
C2849 C2853 1.385 . S
C2850 H2831 0.951 . S
C2850 C2848 1.388 . S
C2850 C2851 1.366 . S
C2851 C2850 1.366 . S
C2851 C2852 1.414 . S
C2851 C2854 1.499 . S
C2852 H2832 0.950 . S
C2852 C2851 1.414 . S
C2852 C2853 1.374 . S
C2853 H2833 0.950 . S
C2853 C2849 1.385 . S
C2853 C2852 1.374 . S
C2854 C2851 1.499 . S
C2854 C2855 1.373 . S
C2854 C2856 1.389 . S
C2855 H2834 0.950 . S
C2855 C2854 1.373 . S
C2855 C2871 1.377 . S
C2856 C2854 1.389 . S
C2856 C2857 1.524 . S
C2856 C2870 1.377 . S
C2857 C2856 1.524 . S
C2857 C2858 1.397 . S
C2857 C2862 1.363 . S
C2858 H2835 0.950 . S
C2858 C2857 1.397 . S
C2858 C2859 1.334 . S
C2859 H2836 0.950 . S
C2859 C2858 1.334 . S
C2859 C2860 1.287 . S
C2860 C2859 1.287 . S
C2860 C2861 1.524 . S
C2860 H2879 0.913 . S
C2861 H2837 0.950 . S
C2861 C2860 1.524 . S
C2861 C2862 1.415 . S
C2862 H2838 0.950 . S
C2862 C2857 1.363 . S
C2862 C2861 1.415 . S
C2863 H2839 0.951 . S
C2863 C2864 1.366 . S
C2863 C2865 1.388 . S
C2864 C2863 1.366 . S
C2864 C2868 1.385 . S
C2865 H2840 0.951 . S
C2865 C2863 1.388 . S
C2865 C2866 1.366 . S
C2866 C2865 1.366 . S
C2866 C2867 1.414 . S
C2866 C2869 1.499 . S
C2867 H2841 0.950 . S
C2867 C2866 1.414 . S
C2867 C2868 1.374 . S
C2868 H2842 0.950 . S
C2868 C2864 1.385 . S
C2868 C2867 1.374 . S
C2869 C2866 1.499 . S
C2869 C2870 1.373 . S
C2869 C2871 1.389 . S
C2870 H2843 0.950 . S
C2870 C2856 1.377 . S
C2870 C2869 1.373 . S
C2871 C2855 1.377 . S
C2871 C2869 1.389 . S
C2871 C2872 1.524 . S
C2872 C2871 1.524 . S
C2872 C2873 1.397 . S
C2872 C2877 1.363 . S
C2873 H2844 0.950 . S
C2873 C2872 1.397 . S
C2873 C2874 1.334 . S
C2874 H2845 0.950 . S
C2874 C2873 1.334 . S
C2874 C2875 1.287 . S
C2875 C2874 1.287 . S
C2875 C2876 1.524 . S
C2875 H2878 0.999 . S
C2876 H2846 0.950 . S
C2876 C2875 1.524 . S
C2876 C2877 1.415 . S
C2877 H2847 0.950 . S
C2877 C2872 1.363 . S
C2877 C2876 1.415 . S
H2878 C2875 0.999 . S
H2879 C2860 0.913 . S
H2880 C2898 0.951 . S
H2881 C2900 0.951 . S
H2882 C2902 0.950 . S
H2883 C2903 0.950 . S
H2884 C2905 0.950 . S
H2885 C2908 0.950 . S
H2886 C2909 0.950 . S
H2887 C2911 0.950 . S
H2888 C2912 0.950 . S
H2889 C2913 0.951 . S
H2890 C2915 0.951 . S
H2891 C2917 0.950 . S
H2892 C2918 0.950 . S
H2893 C2920 0.950 . S
H2894 C2923 0.950 . S
H2895 C2924 0.950 . S
H2896 C2926 0.950 . S
H2897 C2927 0.950 . S
C2898 H2880 0.951 . S
C2898 C2899 1.366 . S
C2898 C2900 1.388 . S
C2899 C2898 1.366 . S
C2899 C2903 1.385 . S
C2900 H2881 0.951 . S
C2900 C2898 1.388 . S
C2900 C2901 1.366 . S
C2901 C2900 1.366 . S
C2901 C2902 1.414 . S
C2901 C2904 1.499 . S
C2902 H2882 0.950 . S
C2902 C2901 1.414 . S
C2902 C2903 1.374 . S
C2903 H2883 0.950 . S
C2903 C2899 1.385 . S
C2903 C2902 1.374 . S
C2904 C2901 1.499 . S
C2904 C2905 1.373 . S
C2904 C2906 1.389 . S
C2905 H2884 0.950 . S
C2905 C2904 1.373 . S
C2905 C2921 1.377 . S
C2906 C2904 1.389 . S
C2906 C2907 1.524 . S
C2906 C2920 1.377 . S
C2907 C2906 1.524 . S
C2907 C2908 1.397 . S
C2907 C2912 1.363 . S
C2908 H2885 0.950 . S
C2908 C2907 1.397 . S
C2908 C2909 1.334 . S
C2909 H2886 0.950 . S
C2909 C2908 1.334 . S
C2909 C2910 1.287 . S
C2910 C2909 1.287 . S
C2910 C2911 1.524 . S
C2910 H2929 0.913 . S
C2911 H2887 0.950 . S
C2911 C2910 1.524 . S
C2911 C2912 1.415 . S
C2912 H2888 0.950 . S
C2912 C2907 1.363 . S
C2912 C2911 1.415 . S
C2913 H2889 0.951 . S
C2913 C2914 1.366 . S
C2913 C2915 1.388 . S
C2914 C2913 1.366 . S
C2914 C2918 1.385 . S
C2915 H2890 0.951 . S
C2915 C2913 1.388 . S
C2915 C2916 1.366 . S
C2916 C2915 1.366 . S
C2916 C2917 1.414 . S
C2916 C2919 1.499 . S
C2917 H2891 0.950 . S
C2917 C2916 1.414 . S
C2917 C2918 1.374 . S
C2918 H2892 0.950 . S
C2918 C2914 1.385 . S
C2918 C2917 1.374 . S
C2919 C2916 1.499 . S
C2919 C2920 1.373 . S
C2919 C2921 1.389 . S
C2920 H2893 0.950 . S
C2920 C2906 1.377 . S
C2920 C2919 1.373 . S
C2921 C2905 1.377 . S
C2921 C2919 1.389 . S
C2921 C2922 1.524 . S
C2922 C2921 1.524 . S
C2922 C2923 1.397 . S
C2922 C2927 1.363 . S
C2923 H2894 0.950 . S
C2923 C2922 1.397 . S
C2923 C2924 1.334 . S
C2924 H2895 0.950 . S
C2924 C2923 1.334 . S
C2924 C2925 1.287 . S
C2925 C2924 1.287 . S
C2925 C2926 1.524 . S
C2925 H2928 0.999 . S
C2926 H2896 0.950 . S
C2926 C2925 1.524 . S
C2926 C2927 1.415 . S
C2927 H2897 0.950 . S
C2927 C2922 1.363 . S
C2927 C2926 1.415 . S
H2928 C2925 0.999 . S
H2929 C2910 0.913 . S
H2930 C2948 0.951 . S
H2931 C2950 0.951 . S
H2932 C2952 0.950 . S
H2933 C2953 0.950 . S
H2934 C2955 0.950 . S
H2935 C2958 0.950 . S
H2936 C2959 0.950 . S
H2937 C2961 0.950 . S
H2938 C2962 0.950 . S
H2939 C2963 0.951 . S
H2940 C2965 0.951 . S
H2941 C2967 0.950 . S
H2942 C2968 0.950 . S
H2943 C2970 0.950 . S
H2944 C2973 0.950 . S
H2945 C2974 0.950 . S
H2946 C2976 0.950 . S
H2947 C2977 0.950 . S
C2948 H2930 0.951 . S
C2948 C2949 1.366 . S
C2948 C2950 1.388 . S
C2949 C2948 1.366 . S
C2949 C2953 1.385 . S
C2950 H2931 0.951 . S
C2950 C2948 1.388 . S
C2950 C2951 1.366 . S
C2951 C2950 1.366 . S
C2951 C2952 1.414 . S
C2951 C2954 1.499 . S
C2952 H2932 0.950 . S
C2952 C2951 1.414 . S
C2952 C2953 1.374 . S
C2953 H2933 0.950 . S
C2953 C2949 1.385 . S
C2953 C2952 1.374 . S
C2954 C2951 1.499 . S
C2954 C2955 1.373 . S
C2954 C2956 1.389 . S
C2955 H2934 0.950 . S
C2955 C2954 1.373 . S
C2955 C2971 1.377 . S
C2956 C2954 1.389 . S
C2956 C2957 1.524 . S
C2956 C2970 1.377 . S
C2957 C2956 1.524 . S
C2957 C2958 1.397 . S
C2957 C2962 1.363 . S
C2958 H2935 0.950 . S
C2958 C2957 1.397 . S
C2958 C2959 1.334 . S
C2959 H2936 0.950 . S
C2959 C2958 1.334 . S
C2959 C2960 1.287 . S
C2960 C2959 1.287 . S
C2960 C2961 1.524 . S
C2960 H2979 0.913 . S
C2961 H2937 0.950 . S
C2961 C2960 1.524 . S
C2961 C2962 1.415 . S
C2962 H2938 0.950 . S
C2962 C2957 1.363 . S
C2962 C2961 1.415 . S
C2963 H2939 0.951 . S
C2963 C2964 1.366 . S
C2963 C2965 1.388 . S
C2964 C2963 1.366 . S
C2964 C2968 1.385 . S
C2965 H2940 0.951 . S
C2965 C2963 1.388 . S
C2965 C2966 1.366 . S
C2966 C2965 1.366 . S
C2966 C2967 1.414 . S
C2966 C2969 1.499 . S
C2967 H2941 0.950 . S
C2967 C2966 1.414 . S
C2967 C2968 1.374 . S
C2968 H2942 0.950 . S
C2968 C2964 1.385 . S
C2968 C2967 1.374 . S
C2969 C2966 1.499 . S
C2969 C2970 1.373 . S
C2969 C2971 1.389 . S
C2970 H2943 0.950 . S
C2970 C2956 1.377 . S
C2970 C2969 1.373 . S
C2971 C2955 1.377 . S
C2971 C2969 1.389 . S
C2971 C2972 1.524 . S
C2972 C2971 1.524 . S
C2972 C2973 1.397 . S
C2972 C2977 1.363 . S
C2973 H2944 0.950 . S
C2973 C2972 1.397 . S
C2973 C2974 1.334 . S
C2974 H2945 0.950 . S
C2974 C2973 1.334 . S
C2974 C2975 1.287 . S
C2975 C2974 1.287 . S
C2975 C2976 1.524 . S
C2975 H2978 0.999 . S
C2976 H2946 0.950 . S
C2976 C2975 1.524 . S
C2976 C2977 1.415 . S
C2977 H2947 0.950 . S
C2977 C2972 1.363 . S
C2977 C2976 1.415 . S
H2978 C2975 0.999 . S
H2979 C2960 0.913 . S
H2980 C2998 0.951 . S
H2981 C3000 0.951 . S
H2982 C3002 0.950 . S
H2983 C3003 0.950 . S
H2984 C3005 0.950 . S
H2985 C3008 0.950 . S
H2986 C3009 0.950 . S
H2987 C3011 0.950 . S
H2988 C3012 0.950 . S
H2989 C3013 0.951 . S
H2990 C3015 0.951 . S
H2991 C3017 0.950 . S
H2992 C3018 0.950 . S
H2993 C3020 0.950 . S
H2994 C3023 0.950 . S
H2995 C3024 0.950 . S
H2996 C3026 0.950 1_455 S
H2997 C3027 0.950 . S
C2998 H2980 0.951 . S
C2998 C2999 1.366 . S
C2998 C3000 1.388 . S
C2999 C2998 1.366 . S
C2999 C3003 1.385 . S
C3000 H2981 0.951 . S
C3000 C2998 1.388 . S
C3000 C3001 1.366 . S
C3001 C3000 1.366 . S
C3001 C3002 1.414 . S
C3001 C3004 1.499 . S
C3002 H2982 0.950 . S
C3002 C3001 1.414 . S
C3002 C3003 1.374 . S
C3003 H2983 0.950 . S
C3003 C2999 1.385 . S
C3003 C3002 1.374 . S
C3004 C3001 1.499 . S
C3004 C3005 1.373 . S
C3004 C3006 1.389 . S
C3005 H2984 0.950 . S
C3005 C3004 1.373 . S
C3005 C3021 1.377 . S
C3006 C3004 1.389 . S
C3006 C3007 1.524 . S
C3006 C3020 1.377 . S
C3007 C3006 1.524 . S
C3007 C3008 1.397 . S
C3007 C3012 1.363 . S
C3008 H2985 0.950 . S
C3008 C3007 1.397 . S
C3008 C3009 1.334 . S
C3009 H2986 0.950 . S
C3009 C3008 1.334 . S
C3009 C3010 1.287 . S
C3010 C3009 1.287 . S
C3010 C3011 1.524 . S
C3010 H3029 0.913 . S
C3011 H2987 0.950 . S
C3011 C3010 1.524 . S
C3011 C3012 1.415 . S
C3012 H2988 0.950 . S
C3012 C3007 1.363 . S
C3012 C3011 1.415 . S
C3013 H2989 0.951 . S
C3013 C3014 1.366 . S
C3013 C3015 1.388 . S
C3014 C3013 1.366 . S
C3014 C3018 1.385 . S
C3015 H2990 0.951 . S
C3015 C3013 1.388 . S
C3015 C3016 1.366 . S
C3016 C3015 1.366 . S
C3016 C3017 1.414 . S
C3016 C3019 1.499 . S
C3017 H2991 0.950 . S
C3017 C3016 1.414 . S
C3017 C3018 1.374 . S
C3018 H2992 0.950 . S
C3018 C3014 1.385 . S
C3018 C3017 1.374 . S
C3019 C3016 1.499 . S
C3019 C3020 1.373 . S
C3019 C3021 1.389 . S
C3020 H2993 0.950 . S
C3020 C3006 1.377 . S
C3020 C3019 1.373 . S
C3021 C3005 1.377 . S
C3021 C3019 1.389 . S
C3021 C3022 1.524 . S
C3022 C3021 1.524 . S
C3022 C3023 1.397 . S
C3022 C3027 1.363 . S
C3023 H2994 0.950 . S
C3023 C3022 1.397 . S
C3023 C3024 1.334 . S
C3024 H2995 0.950 . S
C3024 C3023 1.334 . S
C3024 C3025 1.287 . S
C3025 C3024 1.287 . S
C3025 C3026 1.524 . S
C3025 H3028 0.999 . S
C3026 H2996 0.950 1_655 S
C3026 C3025 1.524 . S
C3026 C3027 1.415 . S
C3027 H2997 0.950 . S
C3027 C3022 1.363 . S
C3027 C3026 1.415 . S
H3028 C3025 0.999 . S
H3029 C3010 0.913 . S
H3030 C3048 0.951 . S
H3031 C3050 0.951 . S
H3032 C3052 0.950 . S
H3033 C3053 0.950 . S
H3034 C3055 0.950 . S
H3035 C3058 0.950 . S
H3036 C3059 0.950 . S
H3037 C3061 0.950 . S
H3038 C3062 0.950 . S
H3039 C3063 0.951 . S
H3040 C3065 0.951 . S
H3041 C3067 0.950 . S
H3042 C3068 0.950 . S
H3043 C3070 0.950 . S
H3044 C3073 0.950 . S
H3045 C3074 0.950 . S
H3046 C3076 0.950 . S
H3047 C3077 0.950 . S
C3048 H3030 0.951 . S
C3048 C3049 1.366 . S
C3048 C3050 1.388 . S
C3049 C3048 1.366 . S
C3049 C3053 1.385 . S
C3050 H3031 0.951 . S
C3050 C3048 1.388 . S
C3050 C3051 1.366 . S
C3051 C3050 1.366 . S
C3051 C3052 1.414 . S
C3051 C3054 1.499 . S
C3052 H3032 0.950 . S
C3052 C3051 1.414 . S
C3052 C3053 1.374 . S
C3053 H3033 0.950 . S
C3053 C3049 1.385 . S
C3053 C3052 1.374 . S
C3054 C3051 1.499 . S
C3054 C3055 1.373 . S
C3054 C3056 1.389 . S
C3055 H3034 0.950 . S
C3055 C3054 1.373 . S
C3055 C3071 1.377 . S
C3056 C3054 1.389 . S
C3056 C3057 1.524 . S
C3056 C3070 1.377 . S
C3057 C3056 1.524 . S
C3057 C3058 1.397 . S
C3057 C3062 1.363 . S
C3058 H3035 0.950 . S
C3058 C3057 1.397 . S
C3058 C3059 1.334 . S
C3059 H3036 0.950 . S
C3059 C3058 1.334 . S
C3059 C3060 1.287 . S
C3060 C3059 1.287 . S
C3060 C3061 1.524 . S
C3060 H3079 0.913 . S
C3061 H3037 0.950 . S
C3061 C3060 1.524 . S
C3061 C3062 1.415 . S
C3062 H3038 0.950 . S
C3062 C3057 1.363 . S
C3062 C3061 1.415 . S
C3063 H3039 0.951 . S
C3063 C3064 1.366 . S
C3063 C3065 1.388 . S
C3064 C3063 1.366 . S
C3064 C3068 1.385 . S
C3065 H3040 0.951 . S
C3065 C3063 1.388 . S
C3065 C3066 1.366 . S
C3066 C3065 1.366 . S
C3066 C3067 1.414 . S
C3066 C3069 1.499 . S
C3067 H3041 0.950 . S
C3067 C3066 1.414 . S
C3067 C3068 1.374 . S
C3068 H3042 0.950 . S
C3068 C3064 1.385 . S
C3068 C3067 1.374 . S
C3069 C3066 1.499 . S
C3069 C3070 1.373 . S
C3069 C3071 1.389 . S
C3070 H3043 0.950 . S
C3070 C3056 1.377 . S
C3070 C3069 1.373 . S
C3071 C3055 1.377 . S
C3071 C3069 1.389 . S
C3071 C3072 1.524 . S
C3072 C3071 1.524 . S
C3072 C3073 1.397 . S
C3072 C3077 1.363 . S
C3073 H3044 0.950 . S
C3073 C3072 1.397 . S
C3073 C3074 1.334 . S
C3074 H3045 0.950 . S
C3074 C3073 1.334 . S
C3074 C3075 1.287 1_655 S
C3075 C3074 1.287 1_455 S
C3075 C3076 1.524 . S
C3075 H3078 0.999 . S
C3076 H3046 0.950 . S
C3076 C3075 1.524 . S
C3076 C3077 1.415 1_455 S
C3077 H3047 0.950 . S
C3077 C3072 1.363 . S
C3077 C3076 1.415 1_655 S
H3078 C3075 0.999 . S
H3079 C3060 0.913 . S
H3080 C3098 0.951 . S
H3081 C3100 0.951 . S
H3082 C3102 0.950 . S
H3083 C3103 0.950 . S
H3084 C3105 0.950 . S
H3085 C3108 0.950 . S
H3086 C3109 0.950 . S
H3087 C3111 0.950 . S
H3088 C3112 0.950 . S
H3089 C3113 0.951 . S
H3090 C3115 0.951 . S
H3091 C3117 0.950 . S
H3092 C3118 0.950 . S
H3093 C3120 0.950 . S
H3094 C3123 0.950 . S
H3095 C3124 0.950 . S
H3096 C3126 0.950 . S
H3097 C3127 0.950 . S
C3098 H3080 0.951 . S
C3098 C3099 1.366 . S
C3098 C3100 1.388 . S
C3099 C3098 1.366 . S
C3099 C3103 1.385 . S
C3100 H3081 0.951 . S
C3100 C3098 1.388 . S
C3100 C3101 1.366 . S
C3101 C3100 1.366 . S
C3101 C3102 1.414 . S
C3101 C3104 1.499 . S
C3102 H3082 0.950 . S
C3102 C3101 1.414 . S
C3102 C3103 1.374 . S
C3103 H3083 0.950 . S
C3103 C3099 1.385 . S
C3103 C3102 1.374 . S
C3104 C3101 1.499 . S
C3104 C3105 1.373 . S
C3104 C3106 1.389 . S
C3105 H3084 0.950 . S
C3105 C3104 1.373 . S
C3105 C3121 1.377 . S
C3106 C3104 1.389 . S
C3106 C3107 1.524 . S
C3106 C3120 1.377 . S
C3107 C3106 1.524 . S
C3107 C3108 1.397 . S
C3107 C3112 1.363 . S
C3108 H3085 0.950 . S
C3108 C3107 1.397 . S
C3108 C3109 1.334 . S
C3109 H3086 0.950 . S
C3109 C3108 1.334 . S
C3109 C3110 1.287 . S
C3110 C3109 1.287 . S
C3110 C3111 1.524 . S
C3110 H3129 0.913 . S
C3111 H3087 0.950 . S
C3111 C3110 1.524 . S
C3111 C3112 1.415 . S
C3112 H3088 0.950 . S
C3112 C3107 1.363 . S
C3112 C3111 1.415 . S
C3113 H3089 0.951 . S
C3113 C3114 1.366 . S
C3113 C3115 1.388 . S
C3114 C3113 1.366 . S
C3114 C3118 1.385 . S
C3115 H3090 0.951 . S
C3115 C3113 1.388 . S
C3115 C3116 1.366 . S
C3116 C3115 1.366 . S
C3116 C3117 1.414 . S
C3116 C3119 1.499 . S
C3117 H3091 0.950 . S
C3117 C3116 1.414 . S
C3117 C3118 1.374 . S
C3118 H3092 0.950 . S
C3118 C3114 1.385 . S
C3118 C3117 1.374 . S
C3119 C3116 1.499 . S
C3119 C3120 1.373 . S
C3119 C3121 1.389 . S
C3120 H3093 0.950 . S
C3120 C3106 1.377 . S
C3120 C3119 1.373 . S
C3121 C3105 1.377 . S
C3121 C3119 1.389 . S
C3121 C3122 1.524 . S
C3122 C3121 1.524 . S
C3122 C3123 1.397 . S
C3122 C3127 1.363 . S
C3123 H3094 0.950 . S
C3123 C3122 1.397 . S
C3123 C3124 1.334 . S
C3124 H3095 0.950 . S
C3124 C3123 1.334 . S
C3124 C3125 1.287 . S
C3125 C3124 1.287 . S
C3125 C3126 1.524 . S
C3125 H3128 0.999 . S
C3126 H3096 0.950 . S
C3126 C3125 1.524 . S
C3126 C3127 1.415 . S
C3127 H3097 0.950 . S
C3127 C3122 1.363 . S
C3127 C3126 1.415 . S
H3128 C3125 0.999 . S
H3129 C3110 0.913 . S
H3130 C3148 0.951 . S
H3131 C3150 0.951 . S
H3132 C3152 0.950 . S
H3133 C3153 0.950 . S
H3134 C3155 0.950 . S
H3135 C3158 0.950 . S
H3136 C3159 0.950 . S
H3137 C3161 0.950 . S
H3138 C3162 0.950 . S
H3139 C3163 0.951 . S
H3140 C3165 0.951 . S
H3141 C3167 0.950 . S
H3142 C3168 0.950 . S
H3143 C3170 0.950 . S
H3144 C3173 0.950 . S
H3145 C3174 0.950 . S
H3146 C3176 0.950 . S
H3147 C3177 0.950 . S
C3148 H3130 0.951 . S
C3148 C3149 1.366 . S
C3148 C3150 1.388 . S
C3149 C3148 1.366 . S
C3149 C3153 1.385 . S
C3150 H3131 0.951 . S
C3150 C3148 1.388 . S
C3150 C3151 1.366 . S
C3151 C3150 1.366 . S
C3151 C3152 1.414 . S
C3151 C3154 1.499 . S
C3152 H3132 0.950 . S
C3152 C3151 1.414 . S
C3152 C3153 1.374 . S
C3153 H3133 0.950 . S
C3153 C3149 1.385 . S
C3153 C3152 1.374 . S
C3154 C3151 1.499 . S
C3154 C3155 1.373 . S
C3154 C3156 1.389 . S
C3155 H3134 0.950 . S
C3155 C3154 1.373 . S
C3155 C3171 1.377 . S
C3156 C3154 1.389 . S
C3156 C3157 1.524 . S
C3156 C3170 1.377 . S
C3157 C3156 1.524 . S
C3157 C3158 1.397 . S
C3157 C3162 1.363 . S
C3158 H3135 0.950 . S
C3158 C3157 1.397 . S
C3158 C3159 1.334 1_455 S
C3159 H3136 0.950 . S
C3159 C3158 1.334 1_655 S
C3159 C3160 1.287 . S
C3160 C3159 1.287 . S
C3160 C3161 1.524 . S
C3160 H3179 0.913 . S
C3161 H3137 0.950 . S
C3161 C3160 1.524 . S
C3161 C3162 1.415 1_655 S
C3162 H3138 0.950 . S
C3162 C3157 1.363 . S
C3162 C3161 1.415 1_455 S
C3163 H3139 0.951 . S
C3163 C3164 1.366 . S
C3163 C3165 1.388 . S
C3164 C3163 1.366 . S
C3164 C3168 1.385 . S
C3165 H3140 0.951 . S
C3165 C3163 1.388 . S
C3165 C3166 1.366 . S
C3166 C3165 1.366 . S
C3166 C3167 1.414 . S
C3166 C3169 1.499 . S
C3167 H3141 0.950 . S
C3167 C3166 1.414 . S
C3167 C3168 1.374 . S
C3168 H3142 0.950 . S
C3168 C3164 1.385 . S
C3168 C3167 1.374 . S
C3169 C3166 1.499 . S
C3169 C3170 1.373 . S
C3169 C3171 1.389 . S
C3170 H3143 0.950 . S
C3170 C3156 1.377 . S
C3170 C3169 1.373 . S
C3171 C3155 1.377 . S
C3171 C3169 1.389 . S
C3171 C3172 1.524 . S
C3172 C3171 1.524 . S
C3172 C3173 1.397 . S
C3172 C3177 1.363 . S
C3173 H3144 0.950 . S
C3173 C3172 1.397 . S
C3173 C3174 1.334 . S
C3174 H3145 0.950 . S
C3174 C3173 1.334 . S
C3174 C3175 1.287 . S
C3175 C3174 1.287 . S
C3175 C3176 1.524 . S
C3175 H3178 0.999 . S
C3176 H3146 0.950 . S
C3176 C3175 1.524 . S
C3176 C3177 1.415 . S
C3177 H3147 0.950 . S
C3177 C3172 1.363 . S
C3177 C3176 1.415 . S
H3178 C3175 0.999 . S
H3179 C3160 0.913 . S
H3180 C3198 0.951 . S
H3181 C3200 0.951 . S
H3182 C3202 0.950 . S
H3183 C3203 0.950 . S
H3184 C3205 0.950 . S
H3185 C3208 0.950 . S
H3186 C3209 0.950 . S
H3187 C3211 0.950 . S
H3188 C3212 0.950 . S
H3189 C3213 0.951 . S
H3190 C3215 0.951 . S
H3191 C3217 0.950 . S
H3192 C3218 0.950 . S
H3193 C3220 0.950 . S
H3194 C3223 0.950 . S
H3195 C3224 0.950 . S
H3196 C3226 0.950 . S
H3197 C3227 0.950 . S
C3198 H3180 0.951 . S
C3198 C3199 1.366 . S
C3198 C3200 1.388 . S
C3199 C3198 1.366 . S
C3199 C3203 1.385 . S
C3200 H3181 0.951 . S
C3200 C3198 1.388 . S
C3200 C3201 1.366 . S
C3201 C3200 1.366 . S
C3201 C3202 1.414 . S
C3201 C3204 1.499 . S
C3202 H3182 0.950 . S
C3202 C3201 1.414 . S
C3202 C3203 1.374 . S
C3203 H3183 0.950 . S
C3203 C3199 1.385 . S
C3203 C3202 1.374 . S
C3204 C3201 1.499 . S
C3204 C3205 1.373 . S
C3204 C3206 1.389 . S
C3205 H3184 0.950 . S
C3205 C3204 1.373 . S
C3205 C3221 1.377 . S
C3206 C3204 1.389 . S
C3206 C3207 1.524 . S
C3206 C3220 1.377 . S
C3207 C3206 1.524 . S
C3207 C3208 1.397 . S
C3207 C3212 1.363 . S
C3208 H3185 0.950 . S
C3208 C3207 1.397 . S
C3208 C3209 1.334 . S
C3209 H3186 0.950 . S
C3209 C3208 1.334 . S
C3209 C3210 1.287 1_655 S
C3210 C3209 1.287 1_455 S
C3210 C3211 1.524 . S
C3210 H3229 0.913 . S
C3211 H3187 0.950 . S
C3211 C3210 1.524 . S
C3211 C3212 1.415 1_455 S
C3212 H3188 0.950 . S
C3212 C3207 1.363 . S
C3212 C3211 1.415 1_655 S
C3213 H3189 0.951 . S
C3213 C3214 1.366 . S
C3213 C3215 1.388 . S
C3214 C3213 1.366 . S
C3214 C3218 1.385 . S
C3215 H3190 0.951 . S
C3215 C3213 1.388 . S
C3215 C3216 1.366 . S
C3216 C3215 1.366 . S
C3216 C3217 1.414 . S
C3216 C3219 1.499 . S
C3217 H3191 0.950 . S
C3217 C3216 1.414 . S
C3217 C3218 1.374 . S
C3218 H3192 0.950 . S
C3218 C3214 1.385 . S
C3218 C3217 1.374 . S
C3219 C3216 1.499 . S
C3219 C3220 1.373 . S
C3219 C3221 1.389 . S
C3220 H3193 0.950 . S
C3220 C3206 1.377 . S
C3220 C3219 1.373 . S
C3221 C3205 1.377 . S
C3221 C3219 1.389 . S
C3221 C3222 1.524 . S
C3222 C3221 1.524 . S
C3222 C3223 1.397 . S
C3222 C3227 1.363 . S
C3223 H3194 0.950 . S
C3223 C3222 1.397 . S
C3223 C3224 1.334 . S
C3224 H3195 0.950 . S
C3224 C3223 1.334 . S
C3224 C3225 1.287 . S
C3225 C3224 1.287 . S
C3225 C3226 1.524 . S
C3225 H3228 0.999 . S
C3226 H3196 0.950 . S
C3226 C3225 1.524 . S
C3226 C3227 1.415 . S
C3227 H3197 0.950 . S
C3227 C3222 1.363 . S
C3227 C3226 1.415 . S
H3228 C3225 0.999 . S
H3229 C3210 0.913 . S
H3230 C3248 0.951 . S
H3231 C3250 0.951 . S
H3232 C3252 0.950 . S
H3233 C3253 0.950 . S
H3234 C3255 0.950 . S
H3235 C3258 0.950 . S
H3236 C3259 0.950 . S
H3237 C3261 0.950 . S
H3238 C3262 0.950 . S
H3239 C3263 0.951 . S
H3240 C3265 0.951 . S
H3241 C3267 0.950 . S
H3242 C3268 0.950 . S
H3243 C3270 0.950 . S
H3244 C3273 0.950 . S
H3245 C3274 0.950 . S
H3246 C3276 0.950 . S
H3247 C3277 0.950 . S
C3248 H3230 0.951 . S
C3248 C3249 1.366 . S
C3248 C3250 1.388 . S
C3249 C3248 1.366 . S
C3249 C3253 1.385 . S
C3250 H3231 0.951 . S
C3250 C3248 1.388 . S
C3250 C3251 1.366 . S
C3251 C3250 1.366 . S
C3251 C3252 1.414 . S
C3251 C3254 1.499 . S
C3252 H3232 0.950 . S
C3252 C3251 1.414 . S
C3252 C3253 1.374 . S
C3253 H3233 0.950 . S
C3253 C3249 1.385 . S
C3253 C3252 1.374 . S
C3254 C3251 1.499 . S
C3254 C3255 1.373 . S
C3254 C3256 1.389 . S
C3255 H3234 0.950 . S
C3255 C3254 1.373 . S
C3255 C3271 1.377 . S
C3256 C3254 1.389 . S
C3256 C3257 1.524 . S
C3256 C3270 1.377 . S
C3257 C3256 1.524 . S
C3257 C3258 1.397 . S
C3257 C3262 1.363 . S
C3258 H3235 0.950 . S
C3258 C3257 1.397 . S
C3258 C3259 1.334 . S
C3259 H3236 0.950 . S
C3259 C3258 1.334 . S
C3259 C3260 1.287 . S
C3260 C3259 1.287 . S
C3260 C3261 1.524 . S
C3260 H3279 0.913 . S
C3261 H3237 0.950 . S
C3261 C3260 1.524 . S
C3261 C3262 1.415 . S
C3262 H3238 0.950 . S
C3262 C3257 1.363 . S
C3262 C3261 1.415 . S
C3263 H3239 0.951 . S
C3263 C3264 1.366 . S
C3263 C3265 1.388 . S
C3264 C3263 1.366 . S
C3264 C3268 1.385 . S
C3265 H3240 0.951 . S
C3265 C3263 1.388 . S
C3265 C3266 1.366 . S
C3266 C3265 1.366 . S
C3266 C3267 1.414 . S
C3266 C3269 1.499 . S
C3267 H3241 0.950 . S
C3267 C3266 1.414 . S
C3267 C3268 1.374 . S
C3268 H3242 0.950 . S
C3268 C3264 1.385 . S
C3268 C3267 1.374 . S
C3269 C3266 1.499 . S
C3269 C3270 1.373 . S
C3269 C3271 1.389 . S
C3270 H3243 0.950 . S
C3270 C3256 1.377 . S
C3270 C3269 1.373 . S
C3271 C3255 1.377 . S
C3271 C3269 1.389 . S
C3271 C3272 1.524 . S
C3272 C3271 1.524 . S
C3272 C3273 1.397 . S
C3272 C3277 1.363 . S
C3273 H3244 0.950 . S
C3273 C3272 1.397 . S
C3273 C3274 1.334 . S
C3274 H3245 0.950 . S
C3274 C3273 1.334 . S
C3274 C3275 1.287 . S
C3275 C3274 1.287 . S
C3275 C3276 1.524 . S
C3275 H3278 0.999 . S
C3276 H3246 0.950 . S
C3276 C3275 1.524 . S
C3276 C3277 1.415 . S
C3277 H3247 0.950 . S
C3277 C3272 1.363 . S
C3277 C3276 1.415 . S
H3278 C3275 0.999 . S
H3279 C3260 0.913 . S
H3280 C3298 0.951 . S
H3281 C3300 0.951 . S
H3282 C3302 0.950 . S
H3283 C3303 0.950 . S
H3284 C3305 0.950 . S
H3285 C3308 0.950 . S
H3286 C3309 0.950 . S
H3287 C3311 0.950 . S
H3288 C3312 0.950 . S
H3289 C3313 0.951 . S
H3290 C3315 0.951 . S
H3291 C3317 0.950 . S
H3292 C3318 0.950 . S
H3293 C3320 0.950 . S
H3294 C3323 0.950 . S
H3295 C3324 0.950 . S
H3296 C3326 0.950 . S
H3297 C3327 0.950 . S
C3298 H3280 0.951 . S
C3298 C3299 1.366 . S
C3298 C3300 1.388 . S
C3299 C3298 1.366 . S
C3299 C3303 1.385 . S
C3300 H3281 0.951 . S
C3300 C3298 1.388 . S
C3300 C3301 1.366 . S
C3301 C3300 1.366 . S
C3301 C3302 1.414 . S
C3301 C3304 1.499 . S
C3302 H3282 0.950 . S
C3302 C3301 1.414 . S
C3302 C3303 1.374 . S
C3303 H3283 0.950 . S
C3303 C3299 1.385 . S
C3303 C3302 1.374 . S
C3304 C3301 1.499 . S
C3304 C3305 1.373 . S
C3304 C3306 1.389 . S
C3305 H3284 0.950 . S
C3305 C3304 1.373 . S
C3305 C3321 1.377 . S
C3306 C3304 1.389 . S
C3306 C3307 1.524 . S
C3306 C3320 1.377 . S
C3307 C3306 1.524 . S
C3307 C3308 1.397 . S
C3307 C3312 1.363 . S
C3308 H3285 0.950 . S
C3308 C3307 1.397 . S
C3308 C3309 1.334 . S
C3309 H3286 0.950 . S
C3309 C3308 1.334 . S
C3309 C3310 1.287 . S
C3310 C3309 1.287 . S
C3310 C3311 1.524 . S
C3310 H3329 0.913 . S
C3311 H3287 0.950 . S
C3311 C3310 1.524 . S
C3311 C3312 1.415 . S
C3312 H3288 0.950 . S
C3312 C3307 1.363 . S
C3312 C3311 1.415 . S
C3313 H3289 0.951 . S
C3313 C3314 1.366 . S
C3313 C3315 1.388 . S
C3314 C3313 1.366 . S
C3314 C3318 1.385 . S
C3315 H3290 0.951 . S
C3315 C3313 1.388 . S
C3315 C3316 1.366 . S
C3316 C3315 1.366 . S
C3316 C3317 1.414 . S
C3316 C3319 1.499 . S
C3317 H3291 0.950 . S
C3317 C3316 1.414 . S
C3317 C3318 1.374 . S
C3318 H3292 0.950 . S
C3318 C3314 1.385 . S
C3318 C3317 1.374 . S
C3319 C3316 1.499 . S
C3319 C3320 1.373 . S
C3319 C3321 1.389 . S
C3320 H3293 0.950 . S
C3320 C3306 1.377 . S
C3320 C3319 1.373 . S
C3321 C3305 1.377 . S
C3321 C3319 1.389 . S
C3321 C3322 1.524 . S
C3322 C3321 1.524 . S
C3322 C3323 1.397 . S
C3322 C3327 1.363 . S
C3323 H3294 0.950 . S
C3323 C3322 1.397 . S
C3323 C3324 1.334 . S
C3324 H3295 0.950 . S
C3324 C3323 1.334 . S
C3324 C3325 1.287 . S
C3325 C3324 1.287 . S
C3325 C3326 1.524 . S
C3325 H3328 0.999 . S
C3326 H3296 0.950 . S
C3326 C3325 1.524 . S
C3326 C3327 1.415 . S
C3327 H3297 0.950 . S
C3327 C3322 1.363 . S
C3327 C3326 1.415 . S
H3328 C3325 0.999 . S
H3329 C3310 0.913 . S
H3330 C3348 0.951 . S
H3331 C3350 0.951 . S
H3332 C3352 0.950 . S
H3333 C3353 0.950 . S
H3334 C3355 0.950 . S
H3335 C3358 0.950 . S
H3336 C3359 0.950 . S
H3337 C3361 0.950 . S
H3338 C3362 0.950 . S
H3339 C3363 0.951 . S
H3340 C3365 0.951 . S
H3341 C3367 0.950 . S
H3342 C3368 0.950 . S
H3343 C3370 0.950 . S
H3344 C3373 0.950 . S
H3345 C3374 0.950 . S
H3346 C3376 0.950 . S
H3347 C3377 0.950 . S
C3348 H3330 0.951 . S
C3348 C3349 1.366 . S
C3348 C3350 1.388 . S
C3349 C3348 1.366 . S
C3349 C3353 1.385 . S
C3350 H3331 0.951 . S
C3350 C3348 1.388 . S
C3350 C3351 1.366 . S
C3351 C3350 1.366 . S
C3351 C3352 1.414 . S
C3351 C3354 1.499 . S
C3352 H3332 0.950 . S
C3352 C3351 1.414 . S
C3352 C3353 1.374 . S
C3353 H3333 0.950 . S
C3353 C3349 1.385 . S
C3353 C3352 1.374 . S
C3354 C3351 1.499 . S
C3354 C3355 1.373 . S
C3354 C3356 1.389 . S
C3355 H3334 0.950 . S
C3355 C3354 1.373 . S
C3355 C3371 1.377 . S
C3356 C3354 1.389 . S
C3356 C3357 1.524 . S
C3356 C3370 1.377 . S
C3357 C3356 1.524 . S
C3357 C3358 1.397 . S
C3357 C3362 1.363 . S
C3358 H3335 0.950 . S
C3358 C3357 1.397 . S
C3358 C3359 1.334 . S
C3359 H3336 0.950 . S
C3359 C3358 1.334 . S
C3359 C3360 1.287 . S
C3360 C3359 1.287 . S
C3360 C3361 1.524 . S
C3360 H3379 0.913 . S
C3361 H3337 0.950 . S
C3361 C3360 1.524 . S
C3361 C3362 1.415 . S
C3362 H3338 0.950 . S
C3362 C3357 1.363 . S
C3362 C3361 1.415 . S
C3363 H3339 0.951 . S
C3363 C3364 1.366 . S
C3363 C3365 1.388 . S
C3364 C3363 1.366 . S
C3364 C3368 1.385 . S
C3365 H3340 0.951 . S
C3365 C3363 1.388 . S
C3365 C3366 1.366 . S
C3366 C3365 1.366 . S
C3366 C3367 1.414 . S
C3366 C3369 1.499 . S
C3367 H3341 0.950 . S
C3367 C3366 1.414 . S
C3367 C3368 1.374 . S
C3368 H3342 0.950 . S
C3368 C3364 1.385 . S
C3368 C3367 1.374 . S
C3369 C3366 1.499 . S
C3369 C3370 1.373 . S
C3369 C3371 1.389 . S
C3370 H3343 0.950 . S
C3370 C3356 1.377 . S
C3370 C3369 1.373 . S
C3371 C3355 1.377 . S
C3371 C3369 1.389 . S
C3371 C3372 1.524 . S
C3372 C3371 1.524 . S
C3372 C3373 1.397 . S
C3372 C3377 1.363 . S
C3373 H3344 0.950 . S
C3373 C3372 1.397 . S
C3373 C3374 1.334 . S
C3374 H3345 0.950 . S
C3374 C3373 1.334 . S
C3374 C3375 1.287 . S
C3375 C3374 1.287 . S
C3375 C3376 1.524 . S
C3375 H3378 0.999 . S
C3376 H3346 0.950 . S
C3376 C3375 1.524 . S
C3376 C3377 1.415 . S
C3377 H3347 0.950 . S
C3377 C3372 1.363 . S
C3377 C3376 1.415 . S
H3378 C3375 0.999 . S
H3379 C3360 0.913 . S
H3380 C3398 0.951 . S
H3381 C3400 0.951 . S
H3382 C3402 0.950 . S
H3383 C3403 0.950 . S
H3384 C3405 0.950 . S
H3385 C3408 0.950 . S
H3386 C3409 0.950 . S
H3387 C3411 0.950 . S
H3388 C3412 0.950 . S
H3389 C3413 0.951 . S
H3390 C3415 0.951 . S
H3391 C3417 0.950 . S
H3392 C3418 0.950 . S
H3393 C3420 0.950 . S
H3394 C3423 0.950 . S
H3395 C3424 0.950 . S
H3396 C3426 0.950 . S
H3397 C3427 0.950 . S
C3398 H3380 0.951 . S
C3398 C3399 1.366 . S
C3398 C3400 1.388 . S
C3399 C3398 1.366 . S
C3399 C3403 1.385 . S
C3400 H3381 0.951 . S
C3400 C3398 1.388 . S
C3400 C3401 1.366 . S
C3401 C3400 1.366 . S
C3401 C3402 1.414 . S
C3401 C3404 1.499 . S
C3402 H3382 0.950 . S
C3402 C3401 1.414 . S
C3402 C3403 1.374 . S
C3403 H3383 0.950 . S
C3403 C3399 1.385 . S
C3403 C3402 1.374 . S
C3404 C3401 1.499 . S
C3404 C3405 1.373 . S
C3404 C3406 1.389 . S
C3405 H3384 0.950 . S
C3405 C3404 1.373 . S
C3405 C3421 1.377 . S
C3406 C3404 1.389 . S
C3406 C3407 1.524 . S
C3406 C3420 1.377 . S
C3407 C3406 1.524 . S
C3407 C3408 1.397 . S
C3407 C3412 1.363 . S
C3408 H3385 0.950 . S
C3408 C3407 1.397 . S
C3408 C3409 1.334 . S
C3409 H3386 0.950 . S
C3409 C3408 1.334 . S
C3409 C3410 1.287 . S
C3410 C3409 1.287 . S
C3410 C3411 1.524 . S
C3410 H3429 0.913 . S
C3411 H3387 0.950 . S
C3411 C3410 1.524 . S
C3411 C3412 1.415 . S
C3412 H3388 0.950 . S
C3412 C3407 1.363 . S
C3412 C3411 1.415 . S
C3413 H3389 0.951 . S
C3413 C3414 1.366 . S
C3413 C3415 1.388 . S
C3414 C3413 1.366 . S
C3414 C3418 1.385 . S
C3415 H3390 0.951 . S
C3415 C3413 1.388 . S
C3415 C3416 1.366 . S
C3416 C3415 1.366 . S
C3416 C3417 1.414 . S
C3416 C3419 1.499 . S
C3417 H3391 0.950 . S
C3417 C3416 1.414 . S
C3417 C3418 1.374 . S
C3418 H3392 0.950 . S
C3418 C3414 1.385 . S
C3418 C3417 1.374 . S
C3419 C3416 1.499 . S
C3419 C3420 1.373 . S
C3419 C3421 1.389 . S
C3420 H3393 0.950 . S
C3420 C3406 1.377 . S
C3420 C3419 1.373 . S
C3421 C3405 1.377 . S
C3421 C3419 1.389 . S
C3421 C3422 1.524 . S
C3422 C3421 1.524 . S
C3422 C3423 1.397 . S
C3422 C3427 1.363 . S
C3423 H3394 0.950 . S
C3423 C3422 1.397 . S
C3423 C3424 1.334 . S
C3424 H3395 0.950 . S
C3424 C3423 1.334 . S
C3424 C3425 1.287 . S
C3425 C3424 1.287 . S
C3425 C3426 1.524 . S
C3425 H3428 0.999 . S
C3426 H3396 0.950 . S
C3426 C3425 1.524 . S
C3426 C3427 1.415 . S
C3427 H3397 0.950 . S
C3427 C3422 1.363 . S
C3427 C3426 1.415 . S
H3428 C3425 0.999 . S
H3429 C3410 0.913 . S
H3430 C3448 0.951 . S
H3431 C3450 0.951 . S
H3432 C3452 0.950 . S
H3433 C3453 0.950 . S
H3434 C3455 0.950 . S
H3435 C3458 0.950 . S
H3436 C3459 0.950 . S
H3437 C3461 0.950 . S
H3438 C3462 0.950 . S
H3439 C3463 0.951 . S
H3440 C3465 0.951 . S
H3441 C3467 0.950 . S
H3442 C3468 0.950 . S
H3443 C3470 0.950 . S
H3444 C3473 0.950 . S
H3445 C3474 0.950 . S
H3446 C3476 0.950 . S
H3447 C3477 0.950 . S
C3448 H3430 0.951 . S
C3448 C3449 1.366 . S
C3448 C3450 1.388 . S
C3449 C3448 1.366 . S
C3449 C3453 1.385 . S
C3450 H3431 0.951 . S
C3450 C3448 1.388 . S
C3450 C3451 1.366 . S
C3451 C3450 1.366 . S
C3451 C3452 1.414 . S
C3451 C3454 1.499 . S
C3452 H3432 0.950 . S
C3452 C3451 1.414 . S
C3452 C3453 1.374 . S
C3453 H3433 0.950 . S
C3453 C3449 1.385 . S
C3453 C3452 1.374 . S
C3454 C3451 1.499 . S
C3454 C3455 1.373 . S
C3454 C3456 1.389 . S
C3455 H3434 0.950 . S
C3455 C3454 1.373 . S
C3455 C3471 1.377 . S
C3456 C3454 1.389 . S
C3456 C3457 1.524 . S
C3456 C3470 1.377 . S
C3457 C3456 1.524 . S
C3457 C3458 1.397 . S
C3457 C3462 1.363 . S
C3458 H3435 0.950 . S
C3458 C3457 1.397 . S
C3458 C3459 1.334 . S
C3459 H3436 0.950 . S
C3459 C3458 1.334 . S
C3459 C3460 1.287 . S
C3460 C3459 1.287 . S
C3460 C3461 1.524 . S
C3460 H3479 0.913 . S
C3461 H3437 0.950 . S
C3461 C3460 1.524 . S
C3461 C3462 1.415 . S
C3462 H3438 0.950 . S
C3462 C3457 1.363 . S
C3462 C3461 1.415 . S
C3463 H3439 0.951 . S
C3463 C3464 1.366 . S
C3463 C3465 1.388 . S
C3464 C3463 1.366 . S
C3464 C3468 1.385 . S
C3465 H3440 0.951 . S
C3465 C3463 1.388 . S
C3465 C3466 1.366 . S
C3466 C3465 1.366 . S
C3466 C3467 1.414 . S
C3466 C3469 1.499 . S
C3467 H3441 0.950 . S
C3467 C3466 1.414 . S
C3467 C3468 1.374 . S
C3468 H3442 0.950 . S
C3468 C3464 1.385 . S
C3468 C3467 1.374 . S
C3469 C3466 1.499 . S
C3469 C3470 1.373 . S
C3469 C3471 1.389 . S
C3470 H3443 0.950 . S
C3470 C3456 1.377 . S
C3470 C3469 1.373 . S
C3471 C3455 1.377 . S
C3471 C3469 1.389 . S
C3471 C3472 1.524 . S
C3472 C3471 1.524 . S
C3472 C3473 1.397 . S
C3472 C3477 1.363 . S
C3473 H3444 0.950 . S
C3473 C3472 1.397 . S
C3473 C3474 1.334 . S
C3474 H3445 0.950 . S
C3474 C3473 1.334 . S
C3474 C3475 1.287 . S
C3475 C3474 1.287 . S
C3475 C3476 1.524 . S
C3475 H3478 0.999 . S
C3476 H3446 0.950 . S
C3476 C3475 1.524 . S
C3476 C3477 1.415 . S
C3477 H3447 0.950 . S
C3477 C3472 1.363 . S
C3477 C3476 1.415 . S
H3478 C3475 0.999 . S
H3479 C3460 0.913 . S
H3480 C3498 0.951 . S
H3481 C3500 0.951 . S
H3482 C3502 0.950 . S
H3483 C3503 0.950 . S
H3484 C3505 0.950 . S
H3485 C3508 0.950 . S
H3486 C3509 0.950 . S
H3487 C3511 0.950 . S
H3488 C3512 0.950 . S
H3489 C3513 0.951 . S
H3490 C3515 0.951 . S
H3491 C3517 0.950 . S
H3492 C3518 0.950 . S
H3493 C3520 0.950 . S
H3494 C3523 0.950 . S
H3495 C3524 0.950 . S
H3496 C3526 0.950 . S
H3497 C3527 0.950 . S
C3498 H3480 0.951 . S
C3498 C3499 1.366 . S
C3498 C3500 1.388 . S
C3499 C3498 1.366 . S
C3499 C3503 1.385 . S
C3500 H3481 0.951 . S
C3500 C3498 1.388 . S
C3500 C3501 1.366 . S
C3501 C3500 1.366 . S
C3501 C3502 1.414 . S
C3501 C3504 1.499 . S
C3502 H3482 0.950 . S
C3502 C3501 1.414 . S
C3502 C3503 1.374 . S
C3503 H3483 0.950 . S
C3503 C3499 1.385 . S
C3503 C3502 1.374 . S
C3504 C3501 1.499 . S
C3504 C3505 1.373 . S
C3504 C3506 1.389 . S
C3505 H3484 0.950 . S
C3505 C3504 1.373 . S
C3505 C3521 1.377 . S
C3506 C3504 1.389 . S
C3506 C3507 1.524 . S
C3506 C3520 1.377 . S
C3507 C3506 1.524 . S
C3507 C3508 1.397 . S
C3507 C3512 1.363 . S
C3508 H3485 0.950 . S
C3508 C3507 1.397 . S
C3508 C3509 1.334 . S
C3509 H3486 0.950 . S
C3509 C3508 1.334 . S
C3509 C3510 1.287 . S
C3510 C3509 1.287 . S
C3510 C3511 1.524 . S
C3510 H3529 0.913 . S
C3511 H3487 0.950 . S
C3511 C3510 1.524 . S
C3511 C3512 1.415 . S
C3512 H3488 0.950 . S
C3512 C3507 1.363 . S
C3512 C3511 1.415 . S
C3513 H3489 0.951 . S
C3513 C3514 1.366 . S
C3513 C3515 1.388 . S
C3514 C3513 1.366 . S
C3514 C3518 1.385 . S
C3515 H3490 0.951 . S
C3515 C3513 1.388 . S
C3515 C3516 1.366 . S
C3516 C3515 1.366 . S
C3516 C3517 1.414 . S
C3516 C3519 1.499 . S
C3517 H3491 0.950 . S
C3517 C3516 1.414 . S
C3517 C3518 1.374 . S
C3518 H3492 0.950 . S
C3518 C3514 1.385 . S
C3518 C3517 1.374 . S
C3519 C3516 1.499 . S
C3519 C3520 1.373 . S
C3519 C3521 1.389 . S
C3520 H3493 0.950 . S
C3520 C3506 1.377 . S
C3520 C3519 1.373 . S
C3521 C3505 1.377 . S
C3521 C3519 1.389 . S
C3521 C3522 1.524 . S
C3522 C3521 1.524 . S
C3522 C3523 1.397 . S
C3522 C3527 1.363 . S
C3523 H3494 0.950 . S
C3523 C3522 1.397 . S
C3523 C3524 1.334 . S
C3524 H3495 0.950 . S
C3524 C3523 1.334 . S
C3524 C3525 1.287 . S
C3525 C3524 1.287 . S
C3525 C3526 1.524 . S
C3525 H3528 0.999 . S
C3526 H3496 0.950 . S
C3526 C3525 1.524 . S
C3526 C3527 1.415 . S
C3527 H3497 0.950 . S
C3527 C3522 1.363 . S
C3527 C3526 1.415 . S
H3528 C3525 0.999 . S
H3529 C3510 0.913 . S
H3530 C3548 0.951 . S
H3531 C3550 0.951 . S
H3532 C3552 0.950 . S
H3533 C3553 0.950 . S
H3534 C3555 0.950 . S
H3535 C3558 0.950 . S
H3536 C3559 0.950 . S
H3537 C3561 0.950 . S
H3538 C3562 0.950 . S
H3539 C3563 0.951 . S
H3540 C3565 0.951 . S
H3541 C3567 0.950 . S
H3542 C3568 0.950 . S
H3543 C3570 0.950 . S
H3544 C3573 0.950 . S
H3545 C3574 0.950 . S
H3546 C3576 0.950 . S
H3547 C3577 0.950 . S
C3548 H3530 0.951 . S
C3548 C3549 1.366 . S
C3548 C3550 1.388 . S
C3549 C3548 1.366 . S
C3549 C3553 1.385 . S
C3550 H3531 0.951 . S
C3550 C3548 1.388 . S
C3550 C3551 1.366 . S
C3551 C3550 1.366 . S
C3551 C3552 1.414 . S
C3551 C3554 1.499 . S
C3552 H3532 0.950 . S
C3552 C3551 1.414 . S
C3552 C3553 1.374 . S
C3553 H3533 0.950 . S
C3553 C3549 1.385 . S
C3553 C3552 1.374 . S
C3554 C3551 1.499 . S
C3554 C3555 1.373 . S
C3554 C3556 1.389 . S
C3555 H3534 0.950 . S
C3555 C3554 1.373 . S
C3555 C3571 1.377 . S
C3556 C3554 1.389 . S
C3556 C3557 1.524 . S
C3556 C3570 1.377 . S
C3557 C3556 1.524 . S
C3557 C3558 1.397 . S
C3557 C3562 1.363 . S
C3558 H3535 0.950 . S
C3558 C3557 1.397 . S
C3558 C3559 1.334 . S
C3559 H3536 0.950 . S
C3559 C3558 1.334 . S
C3559 C3560 1.287 . S
C3560 C3559 1.287 . S
C3560 C3561 1.524 . S
C3560 H3579 0.913 . S
C3561 H3537 0.950 . S
C3561 C3560 1.524 . S
C3561 C3562 1.415 . S
C3562 H3538 0.950 . S
C3562 C3557 1.363 . S
C3562 C3561 1.415 . S
C3563 H3539 0.951 . S
C3563 C3564 1.366 . S
C3563 C3565 1.388 . S
C3564 C3563 1.366 . S
C3564 C3568 1.385 . S
C3565 H3540 0.951 . S
C3565 C3563 1.388 . S
C3565 C3566 1.366 . S
C3566 C3565 1.366 . S
C3566 C3567 1.414 . S
C3566 C3569 1.499 . S
C3567 H3541 0.950 . S
C3567 C3566 1.414 . S
C3567 C3568 1.374 . S
C3568 H3542 0.950 . S
C3568 C3564 1.385 . S
C3568 C3567 1.374 . S
C3569 C3566 1.499 . S
C3569 C3570 1.373 . S
C3569 C3571 1.389 . S
C3570 H3543 0.950 . S
C3570 C3556 1.377 . S
C3570 C3569 1.373 . S
C3571 C3555 1.377 . S
C3571 C3569 1.389 . S
C3571 C3572 1.524 . S
C3572 C3571 1.524 . S
C3572 C3573 1.397 . S
C3572 C3577 1.363 . S
C3573 H3544 0.950 . S
C3573 C3572 1.397 . S
C3573 C3574 1.334 . S
C3574 H3545 0.950 . S
C3574 C3573 1.334 . S
C3574 C3575 1.287 . S
C3575 C3574 1.287 . S
C3575 C3576 1.524 . S
C3575 H3578 0.999 . S
C3576 H3546 0.950 . S
C3576 C3575 1.524 . S
C3576 C3577 1.415 . S
C3577 H3547 0.950 . S
C3577 C3572 1.363 . S
C3577 C3576 1.415 . S
H3578 C3575 0.999 . S
H3579 C3560 0.913 . S
H3580 C3598 0.951 . S
H3581 C3600 0.951 . S
H3582 C3602 0.950 . S
H3583 C3603 0.950 . S
H3584 C3605 0.950 . S
H3585 C3608 0.950 . S
H3586 C3609 0.950 . S
H3587 C3611 0.950 . S
H3588 C3612 0.950 . S
H3589 C3613 0.951 . S
H3590 C3615 0.951 . S
H3591 C3617 0.950 . S
H3592 C3618 0.950 . S
H3593 C3620 0.950 . S
H3594 C3623 0.950 . S
H3595 C3624 0.950 . S
H3596 C3626 0.950 . S
H3597 C3627 0.950 . S
C3598 H3580 0.951 . S
C3598 C3599 1.366 . S
C3598 C3600 1.388 . S
C3599 C3598 1.366 . S
C3599 C3603 1.385 . S
C3600 H3581 0.951 . S
C3600 C3598 1.388 . S
C3600 C3601 1.366 . S
C3601 C3600 1.366 . S
C3601 C3602 1.414 . S
C3601 C3604 1.499 . S
C3602 H3582 0.950 . S
C3602 C3601 1.414 . S
C3602 C3603 1.374 . S
C3603 H3583 0.950 . S
C3603 C3599 1.385 . S
C3603 C3602 1.374 . S
C3604 C3601 1.499 . S
C3604 C3605 1.373 . S
C3604 C3606 1.389 . S
C3605 H3584 0.950 . S
C3605 C3604 1.373 . S
C3605 C3621 1.377 . S
C3606 C3604 1.389 . S
C3606 C3607 1.524 . S
C3606 C3620 1.377 . S
C3607 C3606 1.524 . S
C3607 C3608 1.397 . S
C3607 C3612 1.363 . S
C3608 H3585 0.950 . S
C3608 C3607 1.397 . S
C3608 C3609 1.334 . S
C3609 H3586 0.950 . S
C3609 C3608 1.334 . S
C3609 C3610 1.287 . S
C3610 C3609 1.287 . S
C3610 C3611 1.524 . S
C3610 H3629 0.913 . S
C3611 H3587 0.950 . S
C3611 C3610 1.524 . S
C3611 C3612 1.415 . S
C3612 H3588 0.950 . S
C3612 C3607 1.363 . S
C3612 C3611 1.415 . S
C3613 H3589 0.951 . S
C3613 C3614 1.366 . S
C3613 C3615 1.388 . S
C3614 C3613 1.366 . S
C3614 C3618 1.385 . S
C3615 H3590 0.951 . S
C3615 C3613 1.388 . S
C3615 C3616 1.366 . S
C3616 C3615 1.366 . S
C3616 C3617 1.414 . S
C3616 C3619 1.499 . S
C3617 H3591 0.950 . S
C3617 C3616 1.414 . S
C3617 C3618 1.374 . S
C3618 H3592 0.950 . S
C3618 C3614 1.385 . S
C3618 C3617 1.374 . S
C3619 C3616 1.499 . S
C3619 C3620 1.373 . S
C3619 C3621 1.389 . S
C3620 H3593 0.950 . S
C3620 C3606 1.377 . S
C3620 C3619 1.373 . S
C3621 C3605 1.377 . S
C3621 C3619 1.389 . S
C3621 C3622 1.524 . S
C3622 C3621 1.524 . S
C3622 C3623 1.397 . S
C3622 C3627 1.363 . S
C3623 H3594 0.950 . S
C3623 C3622 1.397 . S
C3623 C3624 1.334 . S
C3624 H3595 0.950 . S
C3624 C3623 1.334 . S
C3624 C3625 1.287 . S
C3625 C3624 1.287 . S
C3625 C3626 1.524 . S
C3625 H3628 0.999 . S
C3626 H3596 0.950 . S
C3626 C3625 1.524 . S
C3626 C3627 1.415 . S
C3627 H3597 0.950 . S
C3627 C3622 1.363 . S
C3627 C3626 1.415 . S
H3628 C3625 0.999 . S
H3629 C3610 0.913 . S
H3630 C3648 0.951 . S
H3631 C3650 0.951 . S
H3632 C3652 0.950 . S
H3633 C3653 0.950 . S
H3634 C3655 0.950 . S
H3635 C3658 0.950 . S
H3636 C3659 0.950 . S
H3637 C3661 0.950 . S
H3638 C3662 0.950 . S
H3639 C3663 0.951 . S
H3640 C3665 0.951 . S
H3641 C3667 0.950 . S
H3642 C3668 0.950 . S
H3643 C3670 0.950 . S
H3644 C3673 0.950 . S
H3645 C3674 0.950 . S
H3646 C3676 0.950 . S
H3647 C3677 0.950 . S
C3648 H3630 0.951 . S
C3648 C3649 1.366 . S
C3648 C3650 1.388 . S
C3649 C3648 1.366 . S
C3649 C3653 1.385 . S
C3650 H3631 0.951 . S
C3650 C3648 1.388 . S
C3650 C3651 1.366 . S
C3651 C3650 1.366 . S
C3651 C3652 1.414 . S
C3651 C3654 1.499 . S
C3652 H3632 0.950 . S
C3652 C3651 1.414 . S
C3652 C3653 1.374 . S
C3653 H3633 0.950 . S
C3653 C3649 1.385 . S
C3653 C3652 1.374 . S
C3654 C3651 1.499 . S
C3654 C3655 1.373 . S
C3654 C3656 1.389 . S
C3655 H3634 0.950 . S
C3655 C3654 1.373 . S
C3655 C3671 1.377 . S
C3656 C3654 1.389 . S
C3656 C3657 1.524 . S
C3656 C3670 1.377 . S
C3657 C3656 1.524 . S
C3657 C3658 1.397 . S
C3657 C3662 1.363 . S
C3658 H3635 0.950 . S
C3658 C3657 1.397 . S
C3658 C3659 1.334 . S
C3659 H3636 0.950 . S
C3659 C3658 1.334 . S
C3659 C3660 1.287 . S
C3660 C3659 1.287 . S
C3660 C3661 1.524 . S
C3660 H3679 0.913 . S
C3661 H3637 0.950 . S
C3661 C3660 1.524 . S
C3661 C3662 1.415 . S
C3662 H3638 0.950 . S
C3662 C3657 1.363 . S
C3662 C3661 1.415 . S
C3663 H3639 0.951 . S
C3663 C3664 1.366 . S
C3663 C3665 1.388 . S
C3664 C3663 1.366 . S
C3664 C3668 1.385 . S
C3665 H3640 0.951 . S
C3665 C3663 1.388 . S
C3665 C3666 1.366 . S
C3666 C3665 1.366 . S
C3666 C3667 1.414 . S
C3666 C3669 1.499 . S
C3667 H3641 0.950 . S
C3667 C3666 1.414 . S
C3667 C3668 1.374 . S
C3668 H3642 0.950 . S
C3668 C3664 1.385 . S
C3668 C3667 1.374 . S
C3669 C3666 1.499 . S
C3669 C3670 1.373 . S
C3669 C3671 1.389 . S
C3670 H3643 0.950 . S
C3670 C3656 1.377 . S
C3670 C3669 1.373 . S
C3671 C3655 1.377 . S
C3671 C3669 1.389 . S
C3671 C3672 1.524 . S
C3672 C3671 1.524 . S
C3672 C3673 1.397 . S
C3672 C3677 1.363 . S
C3673 H3644 0.950 . S
C3673 C3672 1.397 . S
C3673 C3674 1.334 . S
C3674 H3645 0.950 . S
C3674 C3673 1.334 . S
C3674 C3675 1.287 . S
C3675 C3674 1.287 . S
C3675 C3676 1.524 . S
C3675 H3678 0.999 . S
C3676 H3646 0.950 . S
C3676 C3675 1.524 . S
C3676 C3677 1.415 . S
C3677 H3647 0.950 . S
C3677 C3672 1.363 . S
C3677 C3676 1.415 . S
H3678 C3675 0.999 . S
H3679 C3660 0.913 . S
H3680 C3698 0.951 . S
H3681 C3700 0.951 . S
H3682 C3702 0.950 . S
H3683 C3703 0.950 . S
H3684 C3705 0.950 . S
H3685 C3708 0.950 . S
H3686 C3709 0.950 . S
H3687 C3711 0.950 . S
H3688 C3712 0.950 . S
H3689 C3713 0.951 . S
H3690 C3715 0.951 . S
H3691 C3717 0.950 . S
H3692 C3718 0.950 . S
H3693 C3720 0.950 . S
H3694 C3723 0.950 . S
H3695 C3724 0.950 . S
H3696 C3726 0.950 . S
H3697 C3727 0.950 . S
C3698 H3680 0.951 . S
C3698 C3699 1.366 . S
C3698 C3700 1.388 . S
C3699 C3698 1.366 . S
C3699 C3703 1.385 . S
C3700 H3681 0.951 . S
C3700 C3698 1.388 . S
C3700 C3701 1.366 . S
C3701 C3700 1.366 . S
C3701 C3702 1.414 . S
C3701 C3704 1.499 . S
C3702 H3682 0.950 . S
C3702 C3701 1.414 . S
C3702 C3703 1.374 . S
C3703 H3683 0.950 . S
C3703 C3699 1.385 . S
C3703 C3702 1.374 . S
C3704 C3701 1.499 . S
C3704 C3705 1.373 . S
C3704 C3706 1.389 . S
C3705 H3684 0.950 . S
C3705 C3704 1.373 . S
C3705 C3721 1.377 . S
C3706 C3704 1.389 . S
C3706 C3707 1.524 . S
C3706 C3720 1.377 . S
C3707 C3706 1.524 . S
C3707 C3708 1.397 . S
C3707 C3712 1.363 . S
C3708 H3685 0.950 . S
C3708 C3707 1.397 . S
C3708 C3709 1.334 . S
C3709 H3686 0.950 . S
C3709 C3708 1.334 . S
C3709 C3710 1.287 . S
C3710 C3709 1.287 . S
C3710 C3711 1.524 . S
C3710 H3729 0.913 . S
C3711 H3687 0.950 . S
C3711 C3710 1.524 . S
C3711 C3712 1.415 . S
C3712 H3688 0.950 . S
C3712 C3707 1.363 . S
C3712 C3711 1.415 . S
C3713 H3689 0.951 . S
C3713 C3714 1.366 . S
C3713 C3715 1.388 . S
C3714 C3713 1.366 . S
C3714 C3718 1.385 . S
C3715 H3690 0.951 . S
C3715 C3713 1.388 . S
C3715 C3716 1.366 . S
C3716 C3715 1.366 . S
C3716 C3717 1.414 . S
C3716 C3719 1.499 . S
C3717 H3691 0.950 . S
C3717 C3716 1.414 . S
C3717 C3718 1.374 . S
C3718 H3692 0.950 . S
C3718 C3714 1.385 . S
C3718 C3717 1.374 . S
C3719 C3716 1.499 . S
C3719 C3720 1.373 . S
C3719 C3721 1.389 . S
C3720 H3693 0.950 . S
C3720 C3706 1.377 . S
C3720 C3719 1.373 . S
C3721 C3705 1.377 . S
C3721 C3719 1.389 . S
C3721 C3722 1.524 . S
C3722 C3721 1.524 . S
C3722 C3723 1.397 . S
C3722 C3727 1.363 . S
C3723 H3694 0.950 . S
C3723 C3722 1.397 . S
C3723 C3724 1.334 . S
C3724 H3695 0.950 . S
C3724 C3723 1.334 . S
C3724 C3725 1.287 . S
C3725 C3724 1.287 . S
C3725 C3726 1.524 . S
C3725 H3728 0.999 . S
C3726 H3696 0.950 . S
C3726 C3725 1.524 . S
C3726 C3727 1.415 . S
C3727 H3697 0.950 . S
C3727 C3722 1.363 . S
C3727 C3726 1.415 . S
H3728 C3725 0.999 . S
H3729 C3710 0.913 . S
H3730 C3748 0.951 . S
H3731 C3750 0.951 . S
H3732 C3752 0.950 . S
H3733 C3753 0.950 . S
H3734 C3755 0.950 . S
H3735 C3758 0.950 . S
H3736 C3759 0.950 . S
H3737 C3761 0.950 . S
H3738 C3762 0.950 . S
H3739 C3763 0.951 . S
H3740 C3765 0.951 . S
H3741 C3767 0.950 . S
H3742 C3768 0.950 . S
H3743 C3770 0.950 . S
H3744 C3773 0.950 . S
H3745 C3774 0.950 . S
H3746 C3776 0.950 . S
H3747 C3777 0.950 . S
C3748 H3730 0.951 . S
C3748 C3749 1.366 . S
C3748 C3750 1.388 . S
C3749 C3748 1.366 . S
C3749 C3753 1.385 . S
C3750 H3731 0.951 . S
C3750 C3748 1.388 . S
C3750 C3751 1.366 . S
C3751 C3750 1.366 . S
C3751 C3752 1.414 . S
C3751 C3754 1.499 . S
C3752 H3732 0.950 . S
C3752 C3751 1.414 . S
C3752 C3753 1.374 . S
C3753 H3733 0.950 . S
C3753 C3749 1.385 . S
C3753 C3752 1.374 . S
C3754 C3751 1.499 . S
C3754 C3755 1.373 . S
C3754 C3756 1.389 . S
C3755 H3734 0.950 . S
C3755 C3754 1.373 . S
C3755 C3771 1.377 . S
C3756 C3754 1.389 . S
C3756 C3757 1.524 . S
C3756 C3770 1.377 . S
C3757 C3756 1.524 . S
C3757 C3758 1.397 . S
C3757 C3762 1.363 . S
C3758 H3735 0.950 . S
C3758 C3757 1.397 . S
C3758 C3759 1.334 . S
C3759 H3736 0.950 . S
C3759 C3758 1.334 . S
C3759 C3760 1.287 . S
C3760 C3759 1.287 . S
C3760 C3761 1.524 . S
C3760 H3779 0.913 . S
C3761 H3737 0.950 . S
C3761 C3760 1.524 . S
C3761 C3762 1.415 . S
C3762 H3738 0.950 . S
C3762 C3757 1.363 . S
C3762 C3761 1.415 . S
C3763 H3739 0.951 . S
C3763 C3764 1.366 . S
C3763 C3765 1.388 . S
C3764 C3763 1.366 . S
C3764 C3768 1.385 . S
C3765 H3740 0.951 . S
C3765 C3763 1.388 . S
C3765 C3766 1.366 . S
C3766 C3765 1.366 . S
C3766 C3767 1.414 . S
C3766 C3769 1.499 . S
C3767 H3741 0.950 . S
C3767 C3766 1.414 . S
C3767 C3768 1.374 . S
C3768 H3742 0.950 . S
C3768 C3764 1.385 . S
C3768 C3767 1.374 . S
C3769 C3766 1.499 . S
C3769 C3770 1.373 . S
C3769 C3771 1.389 . S
C3770 H3743 0.950 . S
C3770 C3756 1.377 . S
C3770 C3769 1.373 . S
C3771 C3755 1.377 . S
C3771 C3769 1.389 . S
C3771 C3772 1.524 . S
C3772 C3771 1.524 . S
C3772 C3773 1.397 . S
C3772 C3777 1.363 . S
C3773 H3744 0.950 . S
C3773 C3772 1.397 . S
C3773 C3774 1.334 . S
C3774 H3745 0.950 . S
C3774 C3773 1.334 . S
C3774 C3775 1.287 . S
C3775 C3774 1.287 . S
C3775 C3776 1.524 . S
C3775 H3778 0.999 . S
C3776 H3746 0.950 . S
C3776 C3775 1.524 . S
C3776 C3777 1.415 . S
C3777 H3747 0.950 . S
C3777 C3772 1.363 . S
C3777 C3776 1.415 . S
H3778 C3775 0.999 . S
H3779 C3760 0.913 . S
H3780 C3798 0.951 . S
H3781 C3800 0.951 . S
H3782 C3802 0.950 . S
H3783 C3803 0.950 . S
H3784 C3805 0.950 . S
H3785 C3808 0.950 . S
H3786 C3809 0.950 . S
H3787 C3811 0.950 . S
H3788 C3812 0.950 . S
H3789 C3813 0.951 . S
H3790 C3815 0.951 . S
H3791 C3817 0.950 . S
H3792 C3818 0.950 . S
H3793 C3820 0.950 . S
H3794 C3823 0.950 . S
H3795 C3824 0.950 . S
H3796 C3826 0.950 . S
H3797 C3827 0.950 . S
C3798 H3780 0.951 . S
C3798 C3799 1.366 . S
C3798 C3800 1.388 . S
C3799 C3798 1.366 . S
C3799 C3803 1.385 . S
C3800 H3781 0.951 . S
C3800 C3798 1.388 . S
C3800 C3801 1.366 . S
C3801 C3800 1.366 . S
C3801 C3802 1.414 . S
C3801 C3804 1.499 . S
C3802 H3782 0.950 . S
C3802 C3801 1.414 . S
C3802 C3803 1.374 . S
C3803 H3783 0.950 . S
C3803 C3799 1.385 . S
C3803 C3802 1.374 . S
C3804 C3801 1.499 . S
C3804 C3805 1.373 . S
C3804 C3806 1.389 . S
C3805 H3784 0.950 . S
C3805 C3804 1.373 . S
C3805 C3821 1.377 . S
C3806 C3804 1.389 . S
C3806 C3807 1.524 . S
C3806 C3820 1.377 . S
C3807 C3806 1.524 . S
C3807 C3808 1.397 . S
C3807 C3812 1.363 . S
C3808 H3785 0.950 . S
C3808 C3807 1.397 . S
C3808 C3809 1.334 . S
C3809 H3786 0.950 . S
C3809 C3808 1.334 . S
C3809 C3810 1.287 . S
C3810 C3809 1.287 . S
C3810 C3811 1.524 . S
C3810 H3829 0.913 . S
C3811 H3787 0.950 . S
C3811 C3810 1.524 . S
C3811 C3812 1.415 . S
C3812 H3788 0.950 . S
C3812 C3807 1.363 . S
C3812 C3811 1.415 . S
C3813 H3789 0.951 . S
C3813 C3814 1.366 . S
C3813 C3815 1.388 . S
C3814 C3813 1.366 . S
C3814 C3818 1.385 . S
C3815 H3790 0.951 . S
C3815 C3813 1.388 . S
C3815 C3816 1.366 . S
C3816 C3815 1.366 . S
C3816 C3817 1.414 . S
C3816 C3819 1.499 . S
C3817 H3791 0.950 . S
C3817 C3816 1.414 . S
C3817 C3818 1.374 . S
C3818 H3792 0.950 . S
C3818 C3814 1.385 . S
C3818 C3817 1.374 . S
C3819 C3816 1.499 . S
C3819 C3820 1.373 . S
C3819 C3821 1.389 . S
C3820 H3793 0.950 . S
C3820 C3806 1.377 . S
C3820 C3819 1.373 . S
C3821 C3805 1.377 . S
C3821 C3819 1.389 . S
C3821 C3822 1.524 . S
C3822 C3821 1.524 . S
C3822 C3823 1.397 . S
C3822 C3827 1.363 . S
C3823 H3794 0.950 . S
C3823 C3822 1.397 . S
C3823 C3824 1.334 . S
C3824 H3795 0.950 . S
C3824 C3823 1.334 . S
C3824 C3825 1.287 . S
C3825 C3824 1.287 . S
C3825 C3826 1.524 . S
C3825 H3828 0.999 . S
C3826 H3796 0.950 . S
C3826 C3825 1.524 . S
C3826 C3827 1.415 . S
C3827 H3797 0.950 . S
C3827 C3822 1.363 . S
C3827 C3826 1.415 . S
H3828 C3825 0.999 . S
H3829 C3810 0.913 . S
H3830 C3848 0.951 . S
H3831 C3850 0.951 . S
H3832 C3852 0.950 . S
H3833 C3853 0.950 . S
H3834 C3855 0.950 . S
H3835 C3858 0.950 . S
H3836 C3859 0.950 . S
H3837 C3861 0.950 . S
H3838 C3862 0.950 . S
H3839 C3863 0.951 . S
H3840 C3865 0.951 . S
H3841 C3867 0.950 . S
H3842 C3868 0.950 . S
H3843 C3870 0.950 . S
H3844 C3873 0.950 . S
H3845 C3874 0.950 . S
H3846 C3876 0.950 . S
H3847 C3877 0.950 . S
C3848 H3830 0.951 . S
C3848 C3849 1.366 . S
C3848 C3850 1.388 . S
C3849 C3848 1.366 . S
C3849 C3853 1.385 . S
C3850 H3831 0.951 . S
C3850 C3848 1.388 . S
C3850 C3851 1.366 . S
C3851 C3850 1.366 . S
C3851 C3852 1.414 . S
C3851 C3854 1.499 . S
C3852 H3832 0.950 . S
C3852 C3851 1.414 . S
C3852 C3853 1.374 . S
C3853 H3833 0.950 . S
C3853 C3849 1.385 . S
C3853 C3852 1.374 . S
C3854 C3851 1.499 . S
C3854 C3855 1.373 . S
C3854 C3856 1.389 . S
C3855 H3834 0.950 . S
C3855 C3854 1.373 . S
C3855 C3871 1.377 . S
C3856 C3854 1.389 . S
C3856 C3857 1.524 . S
C3856 C3870 1.377 . S
C3857 C3856 1.524 . S
C3857 C3858 1.397 . S
C3857 C3862 1.363 . S
C3858 H3835 0.950 . S
C3858 C3857 1.397 . S
C3858 C3859 1.334 . S
C3859 H3836 0.950 . S
C3859 C3858 1.334 . S
C3859 C3860 1.287 . S
C3860 C3859 1.287 . S
C3860 C3861 1.524 . S
C3860 H3879 0.913 . S
C3861 H3837 0.950 . S
C3861 C3860 1.524 . S
C3861 C3862 1.415 . S
C3862 H3838 0.950 . S
C3862 C3857 1.363 . S
C3862 C3861 1.415 . S
C3863 H3839 0.951 . S
C3863 C3864 1.366 . S
C3863 C3865 1.388 . S
C3864 C3863 1.366 . S
C3864 C3868 1.385 . S
C3865 H3840 0.951 . S
C3865 C3863 1.388 . S
C3865 C3866 1.366 . S
C3866 C3865 1.366 . S
C3866 C3867 1.414 . S
C3866 C3869 1.499 . S
C3867 H3841 0.950 . S
C3867 C3866 1.414 . S
C3867 C3868 1.374 . S
C3868 H3842 0.950 . S
C3868 C3864 1.385 . S
C3868 C3867 1.374 . S
C3869 C3866 1.499 . S
C3869 C3870 1.373 . S
C3869 C3871 1.389 . S
C3870 H3843 0.950 . S
C3870 C3856 1.377 . S
C3870 C3869 1.373 . S
C3871 C3855 1.377 . S
C3871 C3869 1.389 . S
C3871 C3872 1.524 . S
C3872 C3871 1.524 . S
C3872 C3873 1.397 . S
C3872 C3877 1.363 . S
C3873 H3844 0.950 . S
C3873 C3872 1.397 . S
C3873 C3874 1.334 . S
C3874 H3845 0.950 . S
C3874 C3873 1.334 . S
C3874 C3875 1.287 . S
C3875 C3874 1.287 . S
C3875 C3876 1.524 . S
C3875 H3878 0.999 . S
C3876 H3846 0.950 . S
C3876 C3875 1.524 . S
C3876 C3877 1.415 . S
C3877 H3847 0.950 . S
C3877 C3872 1.363 . S
C3877 C3876 1.415 . S
H3878 C3875 0.999 . S
H3879 C3860 0.913 . S
H3880 C3898 0.951 . S
H3881 C3900 0.951 . S
H3882 C3902 0.950 . S
H3883 C3903 0.950 . S
H3884 C3905 0.950 . S
H3885 C3908 0.950 . S
H3886 C3909 0.950 . S
H3887 C3911 0.950 . S
H3888 C3912 0.950 . S
H3889 C3913 0.951 . S
H3890 C3915 0.951 . S
H3891 C3917 0.950 . S
H3892 C3918 0.950 . S
H3893 C3920 0.950 . S
H3894 C3923 0.950 . S
H3895 C3924 0.950 . S
H3896 C3926 0.950 . S
H3897 C3927 0.950 . S
C3898 H3880 0.951 . S
C3898 C3899 1.366 . S
C3898 C3900 1.388 . S
C3899 C3898 1.366 . S
C3899 C3903 1.385 . S
C3900 H3881 0.951 . S
C3900 C3898 1.388 . S
C3900 C3901 1.366 . S
C3901 C3900 1.366 . S
C3901 C3902 1.414 . S
C3901 C3904 1.499 . S
C3902 H3882 0.950 . S
C3902 C3901 1.414 . S
C3902 C3903 1.374 . S
C3903 H3883 0.950 . S
C3903 C3899 1.385 . S
C3903 C3902 1.374 . S
C3904 C3901 1.499 . S
C3904 C3905 1.373 . S
C3904 C3906 1.389 . S
C3905 H3884 0.950 . S
C3905 C3904 1.373 . S
C3905 C3921 1.377 . S
C3906 C3904 1.389 . S
C3906 C3907 1.524 . S
C3906 C3920 1.377 . S
C3907 C3906 1.524 . S
C3907 C3908 1.397 . S
C3907 C3912 1.363 . S
C3908 H3885 0.950 . S
C3908 C3907 1.397 . S
C3908 C3909 1.334 . S
C3909 H3886 0.950 . S
C3909 C3908 1.334 . S
C3909 C3910 1.287 . S
C3910 C3909 1.287 . S
C3910 C3911 1.524 . S
C3910 H3929 0.913 . S
C3911 H3887 0.950 . S
C3911 C3910 1.524 . S
C3911 C3912 1.415 . S
C3912 H3888 0.950 . S
C3912 C3907 1.363 . S
C3912 C3911 1.415 . S
C3913 H3889 0.951 . S
C3913 C3914 1.366 . S
C3913 C3915 1.388 . S
C3914 C3913 1.366 . S
C3914 C3918 1.385 . S
C3915 H3890 0.951 . S
C3915 C3913 1.388 . S
C3915 C3916 1.366 . S
C3916 C3915 1.366 . S
C3916 C3917 1.414 . S
C3916 C3919 1.499 . S
C3917 H3891 0.950 . S
C3917 C3916 1.414 . S
C3917 C3918 1.374 . S
C3918 H3892 0.950 . S
C3918 C3914 1.385 . S
C3918 C3917 1.374 . S
C3919 C3916 1.499 . S
C3919 C3920 1.373 . S
C3919 C3921 1.389 . S
C3920 H3893 0.950 . S
C3920 C3906 1.377 . S
C3920 C3919 1.373 . S
C3921 C3905 1.377 . S
C3921 C3919 1.389 . S
C3921 C3922 1.524 . S
C3922 C3921 1.524 . S
C3922 C3923 1.397 . S
C3922 C3927 1.363 . S
C3923 H3894 0.950 . S
C3923 C3922 1.397 . S
C3923 C3924 1.334 . S
C3924 H3895 0.950 . S
C3924 C3923 1.334 . S
C3924 C3925 1.287 . S
C3925 C3924 1.287 . S
C3925 C3926 1.524 . S
C3925 H3928 0.999 . S
C3926 H3896 0.950 . S
C3926 C3925 1.524 . S
C3926 C3927 1.415 . S
C3927 H3897 0.950 . S
C3927 C3922 1.363 . S
C3927 C3926 1.415 . S
H3928 C3925 0.999 . S
H3929 C3910 0.913 . S
H3930 C3948 0.951 . S
H3931 C3950 0.951 . S
H3932 C3952 0.950 . S
H3933 C3953 0.950 . S
H3934 C3955 0.950 . S
H3935 C3958 0.950 . S
H3936 C3959 0.950 . S
H3937 C3961 0.950 . S
H3938 C3962 0.950 . S
H3939 C3963 0.951 . S
H3940 C3965 0.951 . S
H3941 C3967 0.950 . S
H3942 C3968 0.950 . S
H3943 C3970 0.950 . S
H3944 C3973 0.950 . S
H3945 C3974 0.950 . S
H3946 C3976 0.950 . S
H3947 C3977 0.950 . S
C3948 H3930 0.951 . S
C3948 C3949 1.366 . S
C3948 C3950 1.388 . S
C3949 C3948 1.366 . S
C3949 C3953 1.385 . S
C3950 H3931 0.951 . S
C3950 C3948 1.388 . S
C3950 C3951 1.366 . S
C3951 C3950 1.366 . S
C3951 C3952 1.414 . S
C3951 C3954 1.499 . S
C3952 H3932 0.950 . S
C3952 C3951 1.414 . S
C3952 C3953 1.374 . S
C3953 H3933 0.950 . S
C3953 C3949 1.385 . S
C3953 C3952 1.374 . S
C3954 C3951 1.499 . S
C3954 C3955 1.373 . S
C3954 C3956 1.389 . S
C3955 H3934 0.950 . S
C3955 C3954 1.373 . S
C3955 C3971 1.377 . S
C3956 C3954 1.389 . S
C3956 C3957 1.524 . S
C3956 C3970 1.377 . S
C3957 C3956 1.524 . S
C3957 C3958 1.397 . S
C3957 C3962 1.363 . S
C3958 H3935 0.950 . S
C3958 C3957 1.397 . S
C3958 C3959 1.334 . S
C3959 H3936 0.950 . S
C3959 C3958 1.334 . S
C3959 C3960 1.287 . S
C3960 C3959 1.287 . S
C3960 C3961 1.524 . S
C3960 H3979 0.913 . S
C3961 H3937 0.950 . S
C3961 C3960 1.524 . S
C3961 C3962 1.415 . S
C3962 H3938 0.950 . S
C3962 C3957 1.363 . S
C3962 C3961 1.415 . S
C3963 H3939 0.951 . S
C3963 C3964 1.366 . S
C3963 C3965 1.388 . S
C3964 C3963 1.366 . S
C3964 C3968 1.385 . S
C3965 H3940 0.951 . S
C3965 C3963 1.388 . S
C3965 C3966 1.366 . S
C3966 C3965 1.366 . S
C3966 C3967 1.414 . S
C3966 C3969 1.499 . S
C3967 H3941 0.950 . S
C3967 C3966 1.414 . S
C3967 C3968 1.374 . S
C3968 H3942 0.950 . S
C3968 C3964 1.385 . S
C3968 C3967 1.374 . S
C3969 C3966 1.499 . S
C3969 C3970 1.373 . S
C3969 C3971 1.389 . S
C3970 H3943 0.950 . S
C3970 C3956 1.377 . S
C3970 C3969 1.373 . S
C3971 C3955 1.377 . S
C3971 C3969 1.389 . S
C3971 C3972 1.524 . S
C3972 C3971 1.524 . S
C3972 C3973 1.397 . S
C3972 C3977 1.363 . S
C3973 H3944 0.950 . S
C3973 C3972 1.397 . S
C3973 C3974 1.334 . S
C3974 H3945 0.950 . S
C3974 C3973 1.334 . S
C3974 C3975 1.287 . S
C3975 C3974 1.287 . S
C3975 C3976 1.524 . S
C3975 H3978 0.999 . S
C3976 H3946 0.950 . S
C3976 C3975 1.524 . S
C3976 C3977 1.415 . S
C3977 H3947 0.950 . S
C3977 C3972 1.363 . S
C3977 C3976 1.415 . S
H3978 C3975 0.999 . S
H3979 C3960 0.913 . S
H3980 C3998 0.951 . S
H3981 C4000 0.951 . S
H3982 C4002 0.950 . S
H3983 C4003 0.950 . S
H3984 C4005 0.950 . S
H3985 C4008 0.950 . S
H3986 C4009 0.950 . S
H3987 C4011 0.950 . S
H3988 C4012 0.950 . S
H3989 C4013 0.951 . S
H3990 C4015 0.951 . S
H3991 C4017 0.950 . S
H3992 C4018 0.950 . S
H3993 C4020 0.950 . S
H3994 C4023 0.950 . S
H3995 C4024 0.950 . S
H3996 C4026 0.950 . S
H3997 C4027 0.950 . S
C3998 H3980 0.951 . S
C3998 C3999 1.366 . S
C3998 C4000 1.388 . S
C3999 C3998 1.366 . S
C3999 C4003 1.385 . S
C4000 H3981 0.951 . S
C4000 C3998 1.388 . S
C4000 C4001 1.366 . S
C4001 C4000 1.366 . S
C4001 C4002 1.414 . S
C4001 C4004 1.499 . S
C4002 H3982 0.950 . S
C4002 C4001 1.414 . S
C4002 C4003 1.374 . S
C4003 H3983 0.950 . S
C4003 C3999 1.385 . S
C4003 C4002 1.374 . S
C4004 C4001 1.499 . S
C4004 C4005 1.373 . S
C4004 C4006 1.389 . S
C4005 H3984 0.950 . S
C4005 C4004 1.373 . S
C4005 C4021 1.377 . S
C4006 C4004 1.389 . S
C4006 C4007 1.524 . S
C4006 C4020 1.377 . S
C4007 C4006 1.524 . S
C4007 C4008 1.397 . S
C4007 C4012 1.363 . S
C4008 H3985 0.950 . S
C4008 C4007 1.397 . S
C4008 C4009 1.334 . S
C4009 H3986 0.950 . S
C4009 C4008 1.334 . S
C4009 C4010 1.287 . S
C4010 C4009 1.287 . S
C4010 C4011 1.524 . S
C4010 H4029 0.913 . S
C4011 H3987 0.950 . S
C4011 C4010 1.524 . S
C4011 C4012 1.415 . S
C4012 H3988 0.950 . S
C4012 C4007 1.363 . S
C4012 C4011 1.415 . S
C4013 H3989 0.951 . S
C4013 C4014 1.366 . S
C4013 C4015 1.388 . S
C4014 C4013 1.366 . S
C4014 C4018 1.385 . S
C4015 H3990 0.951 . S
C4015 C4013 1.388 . S
C4015 C4016 1.366 . S
C4016 C4015 1.366 . S
C4016 C4017 1.414 . S
C4016 C4019 1.499 . S
C4017 H3991 0.950 . S
C4017 C4016 1.414 . S
C4017 C4018 1.374 . S
C4018 H3992 0.950 . S
C4018 C4014 1.385 . S
C4018 C4017 1.374 . S
C4019 C4016 1.499 . S
C4019 C4020 1.373 . S
C4019 C4021 1.389 . S
C4020 H3993 0.950 . S
C4020 C4006 1.377 . S
C4020 C4019 1.373 . S
C4021 C4005 1.377 . S
C4021 C4019 1.389 . S
C4021 C4022 1.524 . S
C4022 C4021 1.524 . S
C4022 C4023 1.397 . S
C4022 C4027 1.363 . S
C4023 H3994 0.950 . S
C4023 C4022 1.397 . S
C4023 C4024 1.334 . S
C4024 H3995 0.950 . S
C4024 C4023 1.334 . S
C4024 C4025 1.287 . S
C4025 C4024 1.287 . S
C4025 C4026 1.524 . S
C4025 H4028 0.999 . S
C4026 H3996 0.950 . S
C4026 C4025 1.524 . S
C4026 C4027 1.415 . S
C4027 H3997 0.950 . S
C4027 C4022 1.363 . S
C4027 C4026 1.415 . S
H4028 C4025 0.999 . S
H4029 C4010 0.913 . S
H4030 C4048 0.951 . S
H4031 C4050 0.951 . S
H4032 C4052 0.950 . S
H4033 C4053 0.950 . S
H4034 C4055 0.950 . S
H4035 C4058 0.950 . S
H4036 C4059 0.950 . S
H4037 C4061 0.950 . S
H4038 C4062 0.950 . S
H4039 C4063 0.951 . S
H4040 C4065 0.951 . S
H4041 C4067 0.950 . S
H4042 C4068 0.950 . S
H4043 C4070 0.950 . S
H4044 C4073 0.950 . S
H4045 C4074 0.950 . S
H4046 C4076 0.950 . S
H4047 C4077 0.950 . S
C4048 H4030 0.951 . S
C4048 C4049 1.366 . S
C4048 C4050 1.388 . S
C4049 C4048 1.366 . S
C4049 C4053 1.385 . S
C4050 H4031 0.951 . S
C4050 C4048 1.388 . S
C4050 C4051 1.366 . S
C4051 C4050 1.366 . S
C4051 C4052 1.414 . S
C4051 C4054 1.499 . S
C4052 H4032 0.950 . S
C4052 C4051 1.414 . S
C4052 C4053 1.374 . S
C4053 H4033 0.950 . S
C4053 C4049 1.385 . S
C4053 C4052 1.374 . S
C4054 C4051 1.499 . S
C4054 C4055 1.373 . S
C4054 C4056 1.389 . S
C4055 H4034 0.950 . S
C4055 C4054 1.373 . S
C4055 C4071 1.377 . S
C4056 C4054 1.389 . S
C4056 C4057 1.524 . S
C4056 C4070 1.377 . S
C4057 C4056 1.524 . S
C4057 C4058 1.397 . S
C4057 C4062 1.363 . S
C4058 H4035 0.950 . S
C4058 C4057 1.397 . S
C4058 C4059 1.334 . S
C4059 H4036 0.950 . S
C4059 C4058 1.334 . S
C4059 C4060 1.287 . S
C4060 C4059 1.287 . S
C4060 C4061 1.524 . S
C4060 H4079 0.913 . S
C4061 H4037 0.950 . S
C4061 C4060 1.524 . S
C4061 C4062 1.415 . S
C4062 H4038 0.950 . S
C4062 C4057 1.363 . S
C4062 C4061 1.415 . S
C4063 H4039 0.951 . S
C4063 C4064 1.366 . S
C4063 C4065 1.388 . S
C4064 C4063 1.366 . S
C4064 C4068 1.385 . S
C4065 H4040 0.951 . S
C4065 C4063 1.388 . S
C4065 C4066 1.366 . S
C4066 C4065 1.366 . S
C4066 C4067 1.414 . S
C4066 C4069 1.499 . S
C4067 H4041 0.950 . S
C4067 C4066 1.414 . S
C4067 C4068 1.374 . S
C4068 H4042 0.950 . S
C4068 C4064 1.385 . S
C4068 C4067 1.374 . S
C4069 C4066 1.499 . S
C4069 C4070 1.373 . S
C4069 C4071 1.389 . S
C4070 H4043 0.950 . S
C4070 C4056 1.377 . S
C4070 C4069 1.373 . S
C4071 C4055 1.377 . S
C4071 C4069 1.389 . S
C4071 C4072 1.524 . S
C4072 C4071 1.524 . S
C4072 C4073 1.397 . S
C4072 C4077 1.363 . S
C4073 H4044 0.950 . S
C4073 C4072 1.397 . S
C4073 C4074 1.334 . S
C4074 H4045 0.950 . S
C4074 C4073 1.334 . S
C4074 C4075 1.287 . S
C4075 C4074 1.287 . S
C4075 C4076 1.524 . S
C4075 H4078 0.999 . S
C4076 H4046 0.950 . S
C4076 C4075 1.524 . S
C4076 C4077 1.415 . S
C4077 H4047 0.950 . S
C4077 C4072 1.363 . S
C4077 C4076 1.415 . S
H4078 C4075 0.999 . S
H4079 C4060 0.913 . S
H4080 C4098 0.951 . S
H4081 C4100 0.951 . S
H4082 C4102 0.950 . S
H4083 C4103 0.950 . S
H4084 C4105 0.950 . S
H4085 C4108 0.950 1_545 S
H4086 C4109 0.950 1_545 S
H4087 C4111 0.950 . S
H4088 C4112 0.950 . S
H4089 C4113 0.990 . S
H4090 C4115 0.951 . S
H4091 C4117 0.950 . S
H4092 C4118 0.950 . S
H4093 C4120 0.950 . S
H4094 C4123 0.950 . S
H4095 C4124 0.950 . S
H4096 C4126 0.950 . S
H4097 C4127 0.950 . S
C4098 H4080 0.951 . S
C4098 C4099 1.366 1_565 S
C4098 C4100 1.388 . S
C4099 C4098 1.366 1_545 S
C4099 C4103 1.385 . S
C4100 H4081 0.951 . S
C4100 C4098 1.388 . S
C4100 C4101 1.366 1_565 S
C4101 C4100 1.366 1_545 S
C4101 C4102 1.414 . S
C4101 C4104 1.494 1_545 S
C4102 H4082 0.950 . S
C4102 C4101 1.414 . S
C4102 C4103 1.374 . S
C4103 H4083 0.950 . S
C4103 C4099 1.385 . S
C4103 C4102 1.374 . S
C4104 C4101 1.494 1_565 S
C4104 C4105 1.362 1_565 S
C4104 C4106 1.408 . S
C4105 H4084 0.950 . S
C4105 C4104 1.362 1_545 S
C4105 C4121 1.377 . S
C4106 C4104 1.408 . S
C4106 C4107 1.524 . S
C4106 C4120 1.377 . S
C4107 C4106 1.524 . S
C4107 C4108 1.397 . S
C4107 C4112 1.363 . S
C4108 H4085 0.950 1_565 S
C4108 C4107 1.397 . S
C4108 C4109 1.334 . S
C4109 H4086 0.950 1_565 S
C4109 C4108 1.334 . S
C4109 C4110 1.287 . S
C4110 C4109 1.287 . S
C4110 C4111 1.524 . S
C4110 H4129 0.913 . S
C4111 H4087 0.950 . S
C4111 C4110 1.524 . S
C4111 C4112 1.415 . S
C4112 H4088 0.950 . S
C4112 C4107 1.363 . S
C4112 C4111 1.415 . S
C4113 H4089 0.990 . S
C4113 C4114 1.320 1_545 S
C4113 C4115 1.396 . S
C4114 C4113 1.320 1_565 S
C4114 C4118 1.385 . S
C4115 H4090 0.951 . S
C4115 C4113 1.396 . S
C4115 C4116 1.366 1_545 S
C4116 C4115 1.366 1_565 S
C4116 C4117 1.414 . S
C4116 C4119 1.499 . S
C4117 H4091 0.950 . S
C4117 C4116 1.414 . S
C4117 C4118 1.374 . S
C4118 H4092 0.950 . S
C4118 C4114 1.385 . S
C4118 C4117 1.374 . S
C4119 C4116 1.499 . S
C4119 C4120 1.373 . S
C4119 C4121 1.389 1_565 S
C4120 H4093 0.950 . S
C4120 C4106 1.377 . S
C4120 C4119 1.373 . S
C4121 C4105 1.377 . S
C4121 C4119 1.389 1_545 S
C4121 C4122 1.524 . S
C4122 C4121 1.524 . S
C4122 C4123 1.397 1_545 S
C4122 C4127 1.363 . S
C4123 H4094 0.950 . S
C4123 C4122 1.397 1_565 S
C4123 C4124 1.334 . S
C4124 H4095 0.950 . S
C4124 C4123 1.334 . S
C4124 C4125 1.287 1_565 S
C4125 C4124 1.287 1_545 S
C4125 C4126 1.524 . S
C4125 H4128 0.999 . S
C4126 H4096 0.950 . S
C4126 C4125 1.524 . S
C4126 C4127 1.415 . S
C4127 H4097 0.950 . S
C4127 C4122 1.363 . S
C4127 C4126 1.415 . S
H4128 C4125 0.999 . S
H4129 C4110 0.913 . S
H4130 C4148 0.951 . S
H4131 C4150 0.951 . S
H4132 C4152 0.950 . S
H4133 C4153 0.950 . S
H4134 C4155 0.950 . S
H4135 C4158 0.950 . S
H4136 C4159 0.950 . S
H4137 C4161 0.950 . S
H4138 C4162 0.950 . S
H4139 C4163 0.951 . S
H4140 C4165 0.951 . S
H4141 C4167 0.950 . S
H4142 C4168 0.950 . S
H4143 C4170 0.950 . S
H4144 C4173 0.950 . S
H4145 C4174 0.950 . S
H4146 C4176 0.950 . S
H4147 C4177 0.950 . S
C4148 H4130 0.951 . S
C4148 C4149 1.366 . S
C4148 C4150 1.388 . S
C4149 C4148 1.366 . S
C4149 C4153 1.385 . S
C4150 H4131 0.951 . S
C4150 C4148 1.388 . S
C4150 C4151 1.366 . S
C4151 C4150 1.366 . S
C4151 C4152 1.414 . S
C4151 C4154 1.499 . S
C4152 H4132 0.950 . S
C4152 C4151 1.414 . S
C4152 C4153 1.374 . S
C4153 H4133 0.950 . S
C4153 C4149 1.385 . S
C4153 C4152 1.374 . S
C4154 C4151 1.499 . S
C4154 C4155 1.373 . S
C4154 C4156 1.389 . S
C4155 H4134 0.950 . S
C4155 C4154 1.373 . S
C4155 C4171 1.377 . S
C4156 C4154 1.389 . S
C4156 C4157 1.524 . S
C4156 C4170 1.377 . S
C4157 C4156 1.524 . S
C4157 C4158 1.397 . S
C4157 C4162 1.363 . S
C4158 H4135 0.950 . S
C4158 C4157 1.397 . S
C4158 C4159 1.334 . S
C4159 H4136 0.950 . S
C4159 C4158 1.334 . S
C4159 C4160 1.287 . S
C4160 C4159 1.287 . S
C4160 C4161 1.524 . S
C4160 H4179 0.913 . S
C4161 H4137 0.950 . S
C4161 C4160 1.524 . S
C4161 C4162 1.415 . S
C4162 H4138 0.950 . S
C4162 C4157 1.363 . S
C4162 C4161 1.415 . S
C4163 H4139 0.951 . S
C4163 C4164 1.366 . S
C4163 C4165 1.388 . S
C4164 C4163 1.366 . S
C4164 C4168 1.385 . S
C4165 H4140 0.951 . S
C4165 C4163 1.388 . S
C4165 C4166 1.366 . S
C4166 C4165 1.366 . S
C4166 C4167 1.414 . S
C4166 C4169 1.499 . S
C4167 H4141 0.950 . S
C4167 C4166 1.414 . S
C4167 C4168 1.374 . S
C4168 H4142 0.950 . S
C4168 C4164 1.385 . S
C4168 C4167 1.374 . S
C4169 C4166 1.499 . S
C4169 C4170 1.373 . S
C4169 C4171 1.389 . S
C4170 H4143 0.950 . S
C4170 C4156 1.377 . S
C4170 C4169 1.373 . S
C4171 C4155 1.377 . S
C4171 C4169 1.389 . S
C4171 C4172 1.524 . S
C4172 C4171 1.524 . S
C4172 C4173 1.397 . S
C4172 C4177 1.363 . S
C4173 H4144 0.950 . S
C4173 C4172 1.397 . S
C4173 C4174 1.334 . S
C4174 H4145 0.950 . S
C4174 C4173 1.334 . S
C4174 C4175 1.287 . S
C4175 C4174 1.287 . S
C4175 C4176 1.524 . S
C4175 H4178 0.999 . S
C4176 H4146 0.950 . S
C4176 C4175 1.524 . S
C4176 C4177 1.415 . S
C4177 H4147 0.950 . S
C4177 C4172 1.363 . S
C4177 C4176 1.415 . S
H4178 C4175 0.999 . S
H4179 C4160 0.913 . S
H4180 C4198 0.951 . S
H4181 C4200 0.951 . S
H4182 C4202 0.950 . S
H4183 C4203 0.950 . S
H4184 C4205 0.950 . S
H4185 C4208 0.950 . S
H4186 C4209 0.950 . S
H4187 C4211 0.950 . S
H4188 C4212 0.950 . S
H4189 C4213 0.951 . S
H4190 C4215 0.951 . S
H4191 C4217 0.950 . S
H4192 C4218 0.950 . S
H4193 C4220 0.950 . S
H4194 C4223 0.950 . S
H4195 C4224 0.950 . S
H4196 C4226 0.950 . S
H4197 C4227 0.950 . S
C4198 H4180 0.951 . S
C4198 C4199 1.366 . S
C4198 C4200 1.388 . S
C4199 C4198 1.366 . S
C4199 C4203 1.385 . S
C4200 H4181 0.951 . S
C4200 C4198 1.388 . S
C4200 C4201 1.366 . S
C4201 C4200 1.366 . S
C4201 C4202 1.414 . S
C4201 C4204 1.499 . S
C4202 H4182 0.950 . S
C4202 C4201 1.414 . S
C4202 C4203 1.374 . S
C4203 H4183 0.950 . S
C4203 C4199 1.385 . S
C4203 C4202 1.374 . S
C4204 C4201 1.499 . S
C4204 C4205 1.373 . S
C4204 C4206 1.389 . S
C4205 H4184 0.950 . S
C4205 C4204 1.373 . S
C4205 C4221 1.377 . S
C4206 C4204 1.389 . S
C4206 C4207 1.524 . S
C4206 C4220 1.377 . S
C4207 C4206 1.524 . S
C4207 C4208 1.397 . S
C4207 C4212 1.363 . S
C4208 H4185 0.950 . S
C4208 C4207 1.397 . S
C4208 C4209 1.334 . S
C4209 H4186 0.950 . S
C4209 C4208 1.334 . S
C4209 C4210 1.287 . S
C4210 C4209 1.287 . S
C4210 C4211 1.524 . S
C4210 H4229 0.913 . S
C4211 H4187 0.950 . S
C4211 C4210 1.524 . S
C4211 C4212 1.415 . S
C4212 H4188 0.950 . S
C4212 C4207 1.363 . S
C4212 C4211 1.415 . S
C4213 H4189 0.951 . S
C4213 C4214 1.366 . S
C4213 C4215 1.388 . S
C4214 C4213 1.366 . S
C4214 C4218 1.385 . S
C4215 H4190 0.951 . S
C4215 C4213 1.388 . S
C4215 C4216 1.366 . S
C4216 C4215 1.366 . S
C4216 C4217 1.414 . S
C4216 C4219 1.499 . S
C4217 H4191 0.950 . S
C4217 C4216 1.414 . S
C4217 C4218 1.374 . S
C4218 H4192 0.950 . S
C4218 C4214 1.385 . S
C4218 C4217 1.374 . S
C4219 C4216 1.499 . S
C4219 C4220 1.373 . S
C4219 C4221 1.389 . S
C4220 H4193 0.950 . S
C4220 C4206 1.377 . S
C4220 C4219 1.373 . S
C4221 C4205 1.377 . S
C4221 C4219 1.389 . S
C4221 C4222 1.524 . S
C4222 C4221 1.524 . S
C4222 C4223 1.397 . S
C4222 C4227 1.363 . S
C4223 H4194 0.950 . S
C4223 C4222 1.397 . S
C4223 C4224 1.334 . S
C4224 H4195 0.950 . S
C4224 C4223 1.334 . S
C4224 C4225 1.287 . S
C4225 C4224 1.287 . S
C4225 C4226 1.524 . S
C4225 H4228 0.999 . S
C4226 H4196 0.950 . S
C4226 C4225 1.524 . S
C4226 C4227 1.415 . S
C4227 H4197 0.950 . S
C4227 C4222 1.363 . S
C4227 C4226 1.415 . S
H4228 C4225 0.999 . S
H4229 C4210 0.913 . S
H4230 C4248 0.951 . S
H4231 C4250 0.951 . S
H4232 C4252 0.950 . S
H4233 C4253 0.950 . S
H4234 C4255 0.950 . S
H4235 C4258 0.950 . S
H4236 C4259 0.950 . S
H4237 C4261 0.950 . S
H4238 C4262 0.950 . S
H4239 C4263 0.951 . S
H4240 C4265 0.951 . S
H4241 C4267 0.950 . S
H4242 C4268 0.950 . S
H4243 C4270 0.950 . S
H4244 C4273 0.950 . S
H4245 C4274 0.950 . S
H4246 C4276 0.950 . S
H4247 C4277 0.950 . S
C4248 H4230 0.951 . S
C4248 C4249 1.366 . S
C4248 C4250 1.388 . S
C4249 C4248 1.366 . S
C4249 C4253 1.385 1_545 S
C4250 H4231 0.951 . S
C4250 C4248 1.388 . S
C4250 C4251 1.366 . S
C4251 C4250 1.366 . S
C4251 C4252 1.414 1_545 S
C4251 C4254 1.499 1_545 S
C4252 H4232 0.950 . S
C4252 C4251 1.414 1_565 S
C4252 C4253 1.374 . S
C4253 H4233 0.950 . S
C4253 C4249 1.385 1_565 S
C4253 C4252 1.374 . S
C4254 C4251 1.499 1_565 S
C4254 C4255 1.373 . S
C4254 C4256 1.389 1_565 S
C4255 H4234 0.950 . S
C4255 C4254 1.373 . S
C4255 C4271 1.377 . S
C4256 C4254 1.389 1_545 S
C4256 C4257 1.524 . S
C4256 C4270 1.377 . S
C4257 C4256 1.524 . S
C4257 C4258 1.397 . S
C4257 C4262 1.363 . S
C4258 H4235 0.950 . S
C4258 C4257 1.397 . S
C4258 C4259 1.334 . S
C4259 H4236 0.950 . S
C4259 C4258 1.334 . S
C4259 C4260 1.287 . S
C4260 C4259 1.287 . S
C4260 C4261 1.524 . S
C4260 H4279 0.913 . S
C4261 H4237 0.950 . S
C4261 C4260 1.524 . S
C4261 C4262 1.415 . S
C4262 H4238 0.950 . S
C4262 C4257 1.363 . S
C4262 C4261 1.415 . S
C4263 H4239 0.951 . S
C4263 C4264 1.366 . S
C4263 C4265 1.388 . S
C4264 C4263 1.366 . S
C4264 C4268 1.385 1_565 S
C4265 H4240 0.951 . S
C4265 C4263 1.388 . S
C4265 C4266 1.366 . S
C4266 C4265 1.366 . S
C4266 C4267 1.414 1_565 S
C4266 C4269 1.499 . S
C4267 H4241 0.950 . S
C4267 C4266 1.414 1_545 S
C4267 C4268 1.374 . S
C4268 H4242 0.950 . S
C4268 C4264 1.385 1_545 S
C4268 C4267 1.374 . S
C4269 C4266 1.499 . S
C4269 C4270 1.373 1_565 S
C4269 C4271 1.389 . S
C4270 H4243 0.950 . S
C4270 C4256 1.377 . S
C4270 C4269 1.373 1_545 S
C4271 C4255 1.377 . S
C4271 C4269 1.389 . S
C4271 C4272 1.524 . S
C4272 C4271 1.524 . S
C4272 C4273 1.397 . S
C4272 C4277 1.363 . S
C4273 H4244 0.950 . S
C4273 C4272 1.397 . S
C4273 C4274 1.334 . S
C4274 H4245 0.950 . S
C4274 C4273 1.334 . S
C4274 C4275 1.287 . S
C4275 C4274 1.287 . S
C4275 C4276 1.524 . S
C4275 H4278 0.999 . S
C4276 H4246 0.950 . S
C4276 C4275 1.524 . S
C4276 C4277 1.415 . S
C4277 H4247 0.950 . S
C4277 C4272 1.363 . S
C4277 C4276 1.415 . S
H4278 C4275 0.999 . S
H4279 C4260 0.913 . S
H4280 C4298 0.951 . S
H4281 C4300 0.951 . S
H4282 C4302 0.950 . S
H4283 C4303 0.950 . S
H4284 C4305 0.950 . S
H4285 C4308 0.950 . S
H4286 C4309 0.950 . S
H4287 C4311 0.950 . S
H4288 C4312 0.950 . S
H4289 C4313 0.951 . S
H4290 C4315 0.951 . S
H4291 C4317 0.950 . S
H4292 C4318 0.981 . S
H4293 C4320 0.950 . S
H4294 C4323 0.950 . S
H4295 C4324 0.950 . S
H4296 C4326 0.950 . S
H4297 C4327 0.950 . S
C4298 H4280 0.951 . S
C4298 C4299 1.366 . S
C4298 C4300 1.388 . S
C4299 C4298 1.366 . S
C4299 C4303 1.385 1_565 S
C4300 H4281 0.951 . S
C4300 C4298 1.388 . S
C4300 C4301 1.366 . S
C4301 C4300 1.366 . S
C4301 C4302 1.414 1_565 S
C4301 C4304 1.499 1_565 S
C4302 H4282 0.950 . S
C4302 C4301 1.414 1_545 S
C4302 C4303 1.374 . S
C4303 H4283 0.950 . S
C4303 C4299 1.385 1_545 S
C4303 C4302 1.374 . S
C4304 C4301 1.499 1_545 S
C4304 C4305 1.373 . S
C4304 C4306 1.389 1_545 S
C4305 H4284 0.950 . S
C4305 C4304 1.373 . S
C4305 C4321 1.377 . S
C4306 C4304 1.389 1_565 S
C4306 C4307 1.524 . S
C4306 C4320 1.377 . S
C4307 C4306 1.524 . S
C4307 C4308 1.397 . S
C4307 C4312 1.363 . S
C4308 H4285 0.950 . S
C4308 C4307 1.397 . S
C4308 C4309 1.334 . S
C4309 H4286 0.950 . S
C4309 C4308 1.334 . S
C4309 C4310 1.287 . S
C4310 C4309 1.287 . S
C4310 C4311 1.524 . S
C4310 H4329 0.913 . S
C4311 H4287 0.950 . S
C4311 C4310 1.524 . S
C4311 C4312 1.415 . S
C4312 H4288 0.950 . S
C4312 C4307 1.363 . S
C4312 C4311 1.415 . S
C4313 H4289 0.951 . S
C4313 C4314 1.366 . S
C4313 C4315 1.388 . S
C4314 C4313 1.366 . S
C4314 C4318 1.348 1_545 S
C4315 H4290 0.951 . S
C4315 C4313 1.388 . S
C4315 C4316 1.366 . S
C4316 C4315 1.366 . S
C4316 C4317 1.414 1_545 S
C4316 C4319 1.499 . S
C4317 H4291 0.950 . S
C4317 C4316 1.414 1_565 S
C4317 C4318 1.381 . S
C4318 H4292 0.981 . S
C4318 C4314 1.348 1_565 S
C4318 C4317 1.381 . S
C4319 C4316 1.499 . S
C4319 C4320 1.373 1_545 S
C4319 C4321 1.389 . S
C4320 H4293 0.950 . S
C4320 C4306 1.377 . S
C4320 C4319 1.373 1_565 S
C4321 C4305 1.377 . S
C4321 C4319 1.389 . S
C4321 C4322 1.524 . S
C4322 C4321 1.524 . S
C4322 C4323 1.397 . S
C4322 C4327 1.363 . S
C4323 H4294 0.950 . S
C4323 C4322 1.397 . S
C4323 C4324 1.334 . S
C4324 H4295 0.950 . S
C4324 C4323 1.334 . S
C4324 C4325 1.287 . S
C4325 C4324 1.287 . S
C4325 C4326 1.524 . S
C4325 H4328 0.999 . S
C4326 H4296 0.950 . S
C4326 C4325 1.524 . S
C4326 C4327 1.415 . S
C4327 H4297 0.950 . S
C4327 C4322 1.363 . S
C4327 C4326 1.415 . S
H4328 C4325 0.999 . S
H4329 C4310 0.913 . S
H4330 C4348 0.951 . S
H4331 C4350 0.951 . S
H4332 C4352 0.950 . S
H4333 C4353 0.950 . S
H4334 C4355 0.950 . S
H4335 C4358 0.950 . S
H4336 C4359 0.950 . S
H4337 C4361 0.950 . S
H4338 C4362 0.950 . S
H4339 C4363 0.951 . S
H4340 C4365 0.951 . S
H4341 C4367 0.950 . S
H4342 C4368 0.950 . S
H4343 C4370 0.950 . S
H4344 C4373 0.950 . S
H4345 C4374 0.950 . S
H4346 C4376 0.950 . S
H4347 C4377 0.950 . S
C4348 H4330 0.951 . S
C4348 C4349 1.366 . S
C4348 C4350 1.388 . S
C4349 C4348 1.366 . S
C4349 C4353 1.385 . S
C4350 H4331 0.951 . S
C4350 C4348 1.388 . S
C4350 C4351 1.366 . S
C4351 C4350 1.366 . S
C4351 C4352 1.414 . S
C4351 C4354 1.499 . S
C4352 H4332 0.950 . S
C4352 C4351 1.414 . S
C4352 C4353 1.374 . S
C4353 H4333 0.950 . S
C4353 C4349 1.385 . S
C4353 C4352 1.374 . S
C4354 C4351 1.499 . S
C4354 C4355 1.373 . S
C4354 C4356 1.389 . S
C4355 H4334 0.950 . S
C4355 C4354 1.373 . S
C4355 C4371 1.377 . S
C4356 C4354 1.389 . S
C4356 C4357 1.524 . S
C4356 C4370 1.377 . S
C4357 C4356 1.524 . S
C4357 C4358 1.397 . S
C4357 C4362 1.363 . S
C4358 H4335 0.950 . S
C4358 C4357 1.397 . S
C4358 C4359 1.334 . S
C4359 H4336 0.950 . S
C4359 C4358 1.334 . S
C4359 C4360 1.287 . S
C4360 C4359 1.287 . S
C4360 C4361 1.524 . S
C4360 H4379 0.913 . S
C4361 H4337 0.950 . S
C4361 C4360 1.524 . S
C4361 C4362 1.415 . S
C4362 H4338 0.950 . S
C4362 C4357 1.363 . S
C4362 C4361 1.415 . S
C4363 H4339 0.951 . S
C4363 C4364 1.366 . S
C4363 C4365 1.388 . S
C4364 C4363 1.366 . S
C4364 C4368 1.385 . S
C4365 H4340 0.951 . S
C4365 C4363 1.388 . S
C4365 C4366 1.366 . S
C4366 C4365 1.366 . S
C4366 C4367 1.414 . S
C4366 C4369 1.499 . S
C4367 H4341 0.950 . S
C4367 C4366 1.414 . S
C4367 C4368 1.374 . S
C4368 H4342 0.950 . S
C4368 C4364 1.385 . S
C4368 C4367 1.374 . S
C4369 C4366 1.499 . S
C4369 C4370 1.373 . S
C4369 C4371 1.389 . S
C4370 H4343 0.950 . S
C4370 C4356 1.377 . S
C4370 C4369 1.373 . S
C4371 C4355 1.377 . S
C4371 C4369 1.389 . S
C4371 C4372 1.524 . S
C4372 C4371 1.524 . S
C4372 C4373 1.397 . S
C4372 C4377 1.363 . S
C4373 H4344 0.950 . S
C4373 C4372 1.397 . S
C4373 C4374 1.334 . S
C4374 H4345 0.950 . S
C4374 C4373 1.334 . S
C4374 C4375 1.287 . S
C4375 C4374 1.287 . S
C4375 C4376 1.524 . S
C4375 H4378 0.999 . S
C4376 H4346 0.950 . S
C4376 C4375 1.524 . S
C4376 C4377 1.415 . S
C4377 H4347 0.950 . S
C4377 C4372 1.363 . S
C4377 C4376 1.415 . S
H4378 C4375 0.999 . S
H4379 C4360 0.913 . S
H4380 C4398 0.951 . S
H4381 C4400 0.951 . S
H4382 C4402 0.950 . S
H4383 C4403 0.950 . S
H4384 C4405 0.950 . S
H4385 C4408 0.950 . S
H4386 C4409 0.950 . S
H4387 C4411 0.950 . S
H4388 C4412 0.950 . S
H4389 C4413 0.951 . S
H4390 C4415 0.951 . S
H4391 C4417 0.950 . S
H4392 C4418 0.950 . S
H4393 C4420 0.950 . S
H4394 C4423 0.950 . S
H4395 C4424 0.950 . S
H4396 C4426 0.950 . S
H4397 C4427 0.950 . S
C4398 H4380 0.951 . S
C4398 C4399 1.366 . S
C4398 C4400 1.388 . S
C4399 C4398 1.366 . S
C4399 C4403 1.385 . S
C4400 H4381 0.951 . S
C4400 C4398 1.388 . S
C4400 C4401 1.366 . S
C4401 C4400 1.366 . S
C4401 C4402 1.414 . S
C4401 C4404 1.499 . S
C4402 H4382 0.950 . S
C4402 C4401 1.414 . S
C4402 C4403 1.374 . S
C4403 H4383 0.950 . S
C4403 C4399 1.385 . S
C4403 C4402 1.374 . S
C4404 C4401 1.499 . S
C4404 C4405 1.373 . S
C4404 C4406 1.389 . S
C4405 H4384 0.950 . S
C4405 C4404 1.373 . S
C4405 C4421 1.377 . S
C4406 C4404 1.389 . S
C4406 C4407 1.524 . S
C4406 C4420 1.377 . S
C4407 C4406 1.524 . S
C4407 C4408 1.397 . S
C4407 C4412 1.363 . S
C4408 H4385 0.950 . S
C4408 C4407 1.397 . S
C4408 C4409 1.334 . S
C4409 H4386 0.950 . S
C4409 C4408 1.334 . S
C4409 C4410 1.287 . S
C4410 C4409 1.287 . S
C4410 C4411 1.524 . S
C4410 H4429 0.913 . S
C4411 H4387 0.950 . S
C4411 C4410 1.524 . S
C4411 C4412 1.415 . S
C4412 H4388 0.950 . S
C4412 C4407 1.363 . S
C4412 C4411 1.415 . S
C4413 H4389 0.951 . S
C4413 C4414 1.366 . S
C4413 C4415 1.388 . S
C4414 C4413 1.366 . S
C4414 C4418 1.385 . S
C4415 H4390 0.951 . S
C4415 C4413 1.388 . S
C4415 C4416 1.366 . S
C4416 C4415 1.366 . S
C4416 C4417 1.414 . S
C4416 C4419 1.499 . S
C4417 H4391 0.950 . S
C4417 C4416 1.414 . S
C4417 C4418 1.374 . S
C4418 H4392 0.950 . S
C4418 C4414 1.385 . S
C4418 C4417 1.374 . S
C4419 C4416 1.499 . S
C4419 C4420 1.373 . S
C4419 C4421 1.389 . S
C4420 H4393 0.950 . S
C4420 C4406 1.377 . S
C4420 C4419 1.373 . S
C4421 C4405 1.377 . S
C4421 C4419 1.389 . S
C4421 C4422 1.524 . S
C4422 C4421 1.524 . S
C4422 C4423 1.397 . S
C4422 C4427 1.363 . S
C4423 H4394 0.950 . S
C4423 C4422 1.397 . S
C4423 C4424 1.334 . S
C4424 H4395 0.950 . S
C4424 C4423 1.334 . S
C4424 C4425 1.287 . S
C4425 C4424 1.287 . S
C4425 C4426 1.524 . S
C4425 H4428 0.999 . S
C4426 H4396 0.950 . S
C4426 C4425 1.524 . S
C4426 C4427 1.415 . S
C4427 H4397 0.950 . S
C4427 C4422 1.363 . S
C4427 C4426 1.415 . S
H4428 C4425 0.999 . S
H4429 C4410 0.913 . S
H4430 C4448 0.951 . S
H4431 C4450 0.951 . S
H4432 C4452 0.950 . S
H4433 C4453 0.950 . S
H4434 C4455 0.950 . S
H4435 C4458 0.950 . S
H4436 C4459 0.950 . S
H4437 C4461 0.950 . S
H4438 C4462 0.950 . S
H4439 C4463 0.951 1_565 S
H4440 C4465 0.957 . S
H4441 C4467 0.950 . S
H4442 C4468 0.950 . S
H4443 C4470 0.950 . S
H4444 C4473 0.950 . S
H4445 C4474 0.950 . S
H4446 C4476 0.950 . S
H4447 C4477 0.950 . S
C4448 H4430 0.951 . S
C4448 C4449 1.366 1_545 S
C4448 C4450 1.388 . S
C4449 C4448 1.366 1_565 S
C4449 C4453 1.385 . S
C4450 H4431 0.951 . S
C4450 C4448 1.388 . S
C4450 C4451 1.366 1_545 S
C4451 C4450 1.366 1_565 S
C4451 C4452 1.414 . S
C4451 C4454 1.499 1_565 S
C4452 H4432 0.950 . S
C4452 C4451 1.414 . S
C4452 C4453 1.374 . S
C4453 H4433 0.950 . S
C4453 C4449 1.385 . S
C4453 C4452 1.374 . S
C4454 C4451 1.499 1_545 S
C4454 C4455 1.373 1_545 S
C4454 C4456 1.389 . S
C4455 H4434 0.950 . S
C4455 C4454 1.373 1_565 S
C4455 C4471 1.377 . S
C4456 C4454 1.389 . S
C4456 C4457 1.524 . S
C4456 C4470 1.377 . S
C4457 C4456 1.524 . S
C4457 C4458 1.397 . S
C4457 C4462 1.363 . S
C4458 H4435 0.950 . S
C4458 C4457 1.397 . S
C4458 C4459 1.334 . S
C4459 H4436 0.950 . S
C4459 C4458 1.334 . S
C4459 C4460 1.287 . S
C4460 C4459 1.287 . S
C4460 C4461 1.524 . S
C4460 H4479 0.913 . S
C4461 H4437 0.950 . S
C4461 C4460 1.524 . S
C4461 C4462 1.415 . S
C4462 H4438 0.950 . S
C4462 C4457 1.363 . S
C4462 C4461 1.415 . S
C4463 H4439 0.951 1_545 S
C4463 C4464 1.366 . S
C4463 C4465 1.386 1_545 S
C4464 C4463 1.366 . S
C4464 C4468 1.385 . S
C4465 H4440 0.957 . S
C4465 C4463 1.386 1_565 S
C4465 C4466 1.361 1_565 S
C4466 C4465 1.361 1_545 S
C4466 C4467 1.414 . S
C4466 C4469 1.499 . S
C4467 H4441 0.950 . S
C4467 C4466 1.414 . S
C4467 C4468 1.374 . S
C4468 H4442 0.950 . S
C4468 C4464 1.385 . S
C4468 C4467 1.374 . S
C4469 C4466 1.499 . S
C4469 C4470 1.373 . S
C4469 C4471 1.389 1_545 S
C4470 H4443 0.950 . S
C4470 C4456 1.377 . S
C4470 C4469 1.373 . S
C4471 C4455 1.377 . S
C4471 C4469 1.389 1_565 S
C4471 C4472 1.524 . S
C4472 C4471 1.524 . S
C4472 C4473 1.397 . S
C4472 C4477 1.363 . S
C4473 H4444 0.950 . S
C4473 C4472 1.397 . S
C4473 C4474 1.334 . S
C4474 H4445 0.950 . S
C4474 C4473 1.334 . S
C4474 C4475 1.287 . S
C4475 C4474 1.287 . S
C4475 C4476 1.524 . S
C4475 H4478 0.999 . S
C4476 H4446 0.950 . S
C4476 C4475 1.524 . S
C4476 C4477 1.415 . S
C4477 H4447 0.950 . S
C4477 C4472 1.363 . S
C4477 C4476 1.415 . S
H4478 C4475 0.999 . S
H4479 C4460 0.913 . S
H4480 C4498 0.951 . S
H4481 C4500 0.951 . S
H4482 C4502 0.950 . S
H4483 C4503 0.950 . S
H4484 C4505 0.950 . S
H4485 C4508 0.950 . S
H4486 C4509 0.950 . S
H4487 C4511 0.950 . S
H4488 C4512 0.950 . S
H4489 C4513 0.951 . S
H4490 C4515 0.951 . S
H4491 C4517 0.950 . S
H4492 C4518 0.950 . S
H4493 C4520 0.950 . S
H4494 C4523 0.950 . S
H4495 C4524 0.950 . S
H4496 C4526 0.950 . S
H4497 C4527 0.950 1_455 S
C4498 H4480 0.951 . S
C4498 C4499 1.366 . S
C4498 C4500 1.388 . S
C4499 C4498 1.366 . S
C4499 C4503 1.385 . S
C4500 H4481 0.951 . S
C4500 C4498 1.388 . S
C4500 C4501 1.366 . S
C4501 C4500 1.366 . S
C4501 C4502 1.414 . S
C4501 C4504 1.499 . S
C4502 H4482 0.950 . S
C4502 C4501 1.414 . S
C4502 C4503 1.374 . S
C4503 H4483 0.950 . S
C4503 C4499 1.385 . S
C4503 C4502 1.374 . S
C4504 C4501 1.499 . S
C4504 C4505 1.373 . S
C4504 C4506 1.389 . S
C4505 H4484 0.950 . S
C4505 C4504 1.373 . S
C4505 C4521 1.377 . S
C4506 C4504 1.389 . S
C4506 C4507 1.524 . S
C4506 C4520 1.377 . S
C4507 C4506 1.524 . S
C4507 C4508 1.397 . S
C4507 C4512 1.363 . S
C4508 H4485 0.950 . S
C4508 C4507 1.397 . S
C4508 C4509 1.334 . S
C4509 H4486 0.950 . S
C4509 C4508 1.334 . S
C4509 C4510 1.287 . S
C4510 C4509 1.287 . S
C4510 C4511 1.524 . S
C4510 H4529 0.913 . S
C4511 H4487 0.950 . S
C4511 C4510 1.524 . S
C4511 C4512 1.415 . S
C4512 H4488 0.950 . S
C4512 C4507 1.363 . S
C4512 C4511 1.415 . S
C4513 H4489 0.951 . S
C4513 C4514 1.366 . S
C4513 C4515 1.388 . S
C4514 C4513 1.366 . S
C4514 C4518 1.385 . S
C4515 H4490 0.951 . S
C4515 C4513 1.388 . S
C4515 C4516 1.366 . S
C4516 C4515 1.366 . S
C4516 C4517 1.414 . S
C4516 C4519 1.499 . S
C4517 H4491 0.950 . S
C4517 C4516 1.414 . S
C4517 C4518 1.374 . S
C4518 H4492 0.950 . S
C4518 C4514 1.385 . S
C4518 C4517 1.374 . S
C4519 C4516 1.499 . S
C4519 C4520 1.373 1_655 S
C4519 C4521 1.389 1_655 S
C4520 H4493 0.950 . S
C4520 C4506 1.377 . S
C4520 C4519 1.373 1_455 S
C4521 C4505 1.377 . S
C4521 C4519 1.389 1_455 S
C4521 C4522 1.524 1_455 S
C4522 C4521 1.524 1_655 S
C4522 C4523 1.397 . S
C4522 C4527 1.363 . S
C4523 H4494 0.950 . S
C4523 C4522 1.397 . S
C4523 C4524 1.334 . S
C4524 H4495 0.950 . S
C4524 C4523 1.334 . S
C4524 C4525 1.287 . S
C4525 C4524 1.287 . S
C4525 C4526 1.524 . S
C4525 H4528 0.999 . S
C4526 H4496 0.950 . S
C4526 C4525 1.524 . S
C4526 C4527 1.415 . S
C4527 H4497 0.950 1_655 S
C4527 C4522 1.363 . S
C4527 C4526 1.415 . S
H4528 C4525 0.999 . S
H4529 C4510 0.913 . S
H4530 C4548 0.951 . S
H4531 C4550 0.951 . S
H4532 C4552 0.950 . S
H4533 C4553 0.950 . S
H4534 C4555 0.950 . S
H4535 C4558 0.950 . S
H4536 C4559 0.950 . S
H4537 C4561 0.950 . S
H4538 C4562 0.950 . S
H4539 C4563 0.951 . S
H4540 C4565 0.951 . S
H4541 C4567 0.950 . S
H4542 C4568 0.950 . S
H4543 C4570 0.950 . S
H4544 C4573 0.950 . S
H4545 C4574 0.950 . S
H4546 C4576 0.950 . S
H4547 C4577 0.950 . S
C4548 H4530 0.951 . S
C4548 C4549 1.366 . S
C4548 C4550 1.388 . S
C4549 C4548 1.366 . S
C4549 C4553 1.385 . S
C4550 H4531 0.951 . S
C4550 C4548 1.388 . S
C4550 C4551 1.366 . S
C4551 C4550 1.366 . S
C4551 C4552 1.414 . S
C4551 C4554 1.499 . S
C4552 H4532 0.950 . S
C4552 C4551 1.414 . S
C4552 C4553 1.374 . S
C4553 H4533 0.950 . S
C4553 C4549 1.385 . S
C4553 C4552 1.374 . S
C4554 C4551 1.499 . S
C4554 C4555 1.373 . S
C4554 C4556 1.389 . S
C4555 H4534 0.950 . S
C4555 C4554 1.373 . S
C4555 C4571 1.377 . S
C4556 C4554 1.389 . S
C4556 C4557 1.524 . S
C4556 C4570 1.377 . S
C4557 C4556 1.524 . S
C4557 C4558 1.397 . S
C4557 C4562 1.363 . S
C4558 H4535 0.950 . S
C4558 C4557 1.397 . S
C4558 C4559 1.334 . S
C4559 H4536 0.950 . S
C4559 C4558 1.334 . S
C4559 C4560 1.287 . S
C4560 C4559 1.287 . S
C4560 C4561 1.524 . S
C4560 H4579 0.913 . S
C4561 H4537 0.950 . S
C4561 C4560 1.524 . S
C4561 C4562 1.415 . S
C4562 H4538 0.950 . S
C4562 C4557 1.363 . S
C4562 C4561 1.415 . S
C4563 H4539 0.951 . S
C4563 C4564 1.366 . S
C4563 C4565 1.388 . S
C4564 C4563 1.366 . S
C4564 C4568 1.385 . S
C4565 H4540 0.951 . S
C4565 C4563 1.388 . S
C4565 C4566 1.366 . S
C4566 C4565 1.366 . S
C4566 C4567 1.414 . S
C4566 C4569 1.499 . S
C4567 H4541 0.950 . S
C4567 C4566 1.414 . S
C4567 C4568 1.374 . S
C4568 H4542 0.950 . S
C4568 C4564 1.385 . S
C4568 C4567 1.374 . S
C4569 C4566 1.499 . S
C4569 C4570 1.373 . S
C4569 C4571 1.389 . S
C4570 H4543 0.950 . S
C4570 C4556 1.377 . S
C4570 C4569 1.373 . S
C4571 C4555 1.377 . S
C4571 C4569 1.389 . S
C4571 C4572 1.524 . S
C4572 C4571 1.524 . S
C4572 C4573 1.397 . S
C4572 C4577 1.363 . S
C4573 H4544 0.950 . S
C4573 C4572 1.397 . S
C4573 C4574 1.334 . S
C4574 H4545 0.950 . S
C4574 C4573 1.334 . S
C4574 C4575 1.287 . S
C4575 C4574 1.287 . S
C4575 C4576 1.524 . S
C4575 H4578 0.999 . S
C4576 H4546 0.950 . S
C4576 C4575 1.524 . S
C4576 C4577 1.415 . S
C4577 H4547 0.950 . S
C4577 C4572 1.363 . S
C4577 C4576 1.415 . S
H4578 C4575 0.999 . S
H4579 C4560 0.913 . S
H4580 C4598 0.951 . S
H4581 C4600 0.951 . S
H4582 C4602 0.950 . S
H4583 C4603 0.950 . S
H4584 C4605 0.950 1_655 S
H4585 C4608 0.950 . S
H4586 C4609 0.950 . S
H4587 C4611 0.950 . S
H4588 C4612 0.950 . S
H4589 C4613 0.951 . S
H4590 C4615 0.951 . S
H4591 C4617 0.950 . S
H4592 C4618 0.950 . S
H4593 C4620 0.950 . S
H4594 C4623 0.950 . S
H4595 C4624 0.950 . S
H4596 C4626 0.950 . S
H4597 C4627 0.950 . S
C4598 H4580 0.951 . S
C4598 C4599 1.366 . S
C4598 C4600 1.388 . S
C4599 C4598 1.366 . S
C4599 C4603 1.385 . S
C4600 H4581 0.951 . S
C4600 C4598 1.388 . S
C4600 C4601 1.366 . S
C4601 C4600 1.366 . S
C4601 C4602 1.414 . S
C4601 C4604 1.499 . S
C4602 H4582 0.950 . S
C4602 C4601 1.414 . S
C4602 C4603 1.374 . S
C4603 H4583 0.950 . S
C4603 C4599 1.385 . S
C4603 C4602 1.374 . S
C4604 C4601 1.499 . S
C4604 C4605 1.373 1_655 S
C4604 C4606 1.389 1_655 S
C4605 H4584 0.950 1_455 S
C4605 C4604 1.373 1_455 S
C4605 C4621 1.377 . S
C4606 C4604 1.389 1_455 S
C4606 C4607 1.524 . S
C4606 C4620 1.377 . S
C4607 C4606 1.524 . S
C4607 C4608 1.397 1_455 S
C4607 C4612 1.363 . S
C4608 H4585 0.950 . S
C4608 C4607 1.397 1_655 S
C4608 C4609 1.334 . S
C4609 H4586 0.950 . S
C4609 C4608 1.334 . S
C4609 C4610 1.287 . S
C4610 C4609 1.287 . S
C4610 C4611 1.524 1_655 S
C4610 H4629 0.913 . S
C4611 H4587 0.950 . S
C4611 C4610 1.524 1_455 S
C4611 C4612 1.415 . S
C4612 H4588 0.950 . S
C4612 C4607 1.363 . S
C4612 C4611 1.415 . S
C4613 H4589 0.951 . S
C4613 C4614 1.366 . S
C4613 C4615 1.388 . S
C4614 C4613 1.366 . S
C4614 C4618 1.385 . S
C4615 H4590 0.951 . S
C4615 C4613 1.388 . S
C4615 C4616 1.366 . S
C4616 C4615 1.366 . S
C4616 C4617 1.414 . S
C4616 C4619 1.499 . S
C4617 H4591 0.950 . S
C4617 C4616 1.414 . S
C4617 C4618 1.374 . S
C4618 H4592 0.950 . S
C4618 C4614 1.385 . S
C4618 C4617 1.374 . S
C4619 C4616 1.499 . S
C4619 C4620 1.373 . S
C4619 C4621 1.389 . S
C4620 H4593 0.950 . S
C4620 C4606 1.377 . S
C4620 C4619 1.373 . S
C4621 C4605 1.377 . S
C4621 C4619 1.389 . S
C4621 C4622 1.524 . S
C4622 C4621 1.524 . S
C4622 C4623 1.397 . S
C4622 C4627 1.363 . S
C4623 H4594 0.950 . S
C4623 C4622 1.397 . S
C4623 C4624 1.334 . S
C4624 H4595 0.950 . S
C4624 C4623 1.334 . S
C4624 C4625 1.287 . S
C4625 C4624 1.287 . S
C4625 C4626 1.524 . S
C4625 H4628 0.999 . S
C4626 H4596 0.950 . S
C4626 C4625 1.524 . S
C4626 C4627 1.415 . S
C4627 H4597 0.950 . S
C4627 C4622 1.363 . S
C4627 C4626 1.415 . S
H4628 C4625 0.999 . S
H4629 C4610 0.913 . S
H4630 C4648 0.951 . S
H4631 C4650 0.951 . S
H4632 C4652 0.950 . S
H4633 C4653 0.950 . S
H4634 C4655 0.950 . S
H4635 C4658 0.950 . S
H4636 C4659 0.950 . S
H4637 C4661 0.950 . S
H4638 C4662 0.950 . S
H4639 C4663 0.951 . S
H4640 C4665 0.951 . S
H4641 C4667 0.950 . S
H4642 C4668 0.950 . S
H4643 C4670 0.950 . S
H4644 C4673 0.950 . S
H4645 C4674 0.950 . S
H4646 C4676 0.950 . S
H4647 C4677 0.950 . S
C4648 H4630 0.951 . S
C4648 C4649 1.366 . S
C4648 C4650 1.388 . S
C4649 C4648 1.366 . S
C4649 C4653 1.385 . S
C4650 H4631 0.951 . S
C4650 C4648 1.388 . S
C4650 C4651 1.366 . S
C4651 C4650 1.366 . S
C4651 C4652 1.414 . S
C4651 C4654 1.499 . S
C4652 H4632 0.950 . S
C4652 C4651 1.414 . S
C4652 C4653 1.374 . S
C4653 H4633 0.950 . S
C4653 C4649 1.385 . S
C4653 C4652 1.374 . S
C4654 C4651 1.499 . S
C4654 C4655 1.373 . S
C4654 C4656 1.389 . S
C4655 H4634 0.950 . S
C4655 C4654 1.373 . S
C4655 C4671 1.377 . S
C4656 C4654 1.389 . S
C4656 C4657 1.524 . S
C4656 C4670 1.377 . S
C4657 C4656 1.524 . S
C4657 C4658 1.397 . S
C4657 C4662 1.363 . S
C4658 H4635 0.950 . S
C4658 C4657 1.397 . S
C4658 C4659 1.334 . S
C4659 H4636 0.950 . S
C4659 C4658 1.334 . S
C4659 C4660 1.287 . S
C4660 C4659 1.287 . S
C4660 C4661 1.524 . S
C4660 H4679 0.913 . S
C4661 H4637 0.950 . S
C4661 C4660 1.524 . S
C4661 C4662 1.415 . S
C4662 H4638 0.950 . S
C4662 C4657 1.363 . S
C4662 C4661 1.415 . S
C4663 H4639 0.951 . S
C4663 C4664 1.366 . S
C4663 C4665 1.388 . S
C4664 C4663 1.366 . S
C4664 C4668 1.385 . S
C4665 H4640 0.951 . S
C4665 C4663 1.388 . S
C4665 C4666 1.366 . S
C4666 C4665 1.366 . S
C4666 C4667 1.414 . S
C4666 C4669 1.499 . S
C4667 H4641 0.950 . S
C4667 C4666 1.414 . S
C4667 C4668 1.374 . S
C4668 H4642 0.950 . S
C4668 C4664 1.385 . S
C4668 C4667 1.374 . S
C4669 C4666 1.499 . S
C4669 C4670 1.373 . S
C4669 C4671 1.389 . S
C4670 H4643 0.950 . S
C4670 C4656 1.377 . S
C4670 C4669 1.373 . S
C4671 C4655 1.377 . S
C4671 C4669 1.389 . S
C4671 C4672 1.524 . S
C4672 C4671 1.524 . S
C4672 C4673 1.397 . S
C4672 C4677 1.363 . S
C4673 H4644 0.950 . S
C4673 C4672 1.397 . S
C4673 C4674 1.334 . S
C4674 H4645 0.950 . S
C4674 C4673 1.334 . S
C4674 C4675 1.287 . S
C4675 C4674 1.287 . S
C4675 C4676 1.524 . S
C4675 H4678 0.999 . S
C4676 H4646 0.950 . S
C4676 C4675 1.524 . S
C4676 C4677 1.415 . S
C4677 H4647 0.950 . S
C4677 C4672 1.363 . S
C4677 C4676 1.415 . S
H4678 C4675 0.999 . S
H4679 C4660 0.913 . S
H4680 C4698 0.951 . S
H4681 C4700 0.951 . S
H4682 C4702 0.950 . S
H4683 C4703 0.950 . S
H4684 C4705 0.950 . S
H4685 C4708 0.950 . S
H4686 C4709 0.950 . S
H4687 C4711 0.950 . S
H4688 C4712 0.950 . S
H4689 C4713 0.951 . S
H4690 C4715 0.951 . S
H4691 C4717 0.950 . S
H4692 C4718 0.950 . S
H4693 C4720 0.950 1_455 S
H4694 C4723 0.950 . S
H4695 C4724 0.950 . S
H4696 C4726 0.950 . S
H4697 C4727 0.950 1_655 S
C4698 H4680 0.951 . S
C4698 C4699 1.366 . S
C4698 C4700 1.388 . S
C4699 C4698 1.366 . S
C4699 C4703 1.385 . S
C4700 H4681 0.951 . S
C4700 C4698 1.388 . S
C4700 C4701 1.366 . S
C4701 C4700 1.366 . S
C4701 C4702 1.414 . S
C4701 C4704 1.499 . S
C4702 H4682 0.950 . S
C4702 C4701 1.414 . S
C4702 C4703 1.374 . S
C4703 H4683 0.950 . S
C4703 C4699 1.385 . S
C4703 C4702 1.374 . S
C4704 C4701 1.499 . S
C4704 C4705 1.373 . S
C4704 C4706 1.389 . S
C4705 H4684 0.950 . S
C4705 C4704 1.373 . S
C4705 C4721 1.377 . S
C4706 C4704 1.389 . S
C4706 C4707 1.524 . S
C4706 C4720 1.377 . S
C4707 C4706 1.524 . S
C4707 C4708 1.397 . S
C4707 C4712 1.363 . S
C4708 H4685 0.950 . S
C4708 C4707 1.397 . S
C4708 C4709 1.334 . S
C4709 H4686 0.950 . S
C4709 C4708 1.334 . S
C4709 C4710 1.287 . S
C4710 C4709 1.287 . S
C4710 C4711 1.524 . S
C4710 H4729 0.913 . S
C4711 H4687 0.950 . S
C4711 C4710 1.524 . S
C4711 C4712 1.415 . S
C4712 H4688 0.950 . S
C4712 C4707 1.363 . S
C4712 C4711 1.415 . S
C4713 H4689 0.951 . S
C4713 C4714 1.366 . S
C4713 C4715 1.388 . S
C4714 C4713 1.366 . S
C4714 C4718 1.385 . S
C4715 H4690 0.951 . S
C4715 C4713 1.388 . S
C4715 C4716 1.366 . S
C4716 C4715 1.366 . S
C4716 C4717 1.414 . S
C4716 C4719 1.499 . S
C4717 H4691 0.950 . S
C4717 C4716 1.414 . S
C4717 C4718 1.374 . S
C4718 H4692 0.950 . S
C4718 C4714 1.385 . S
C4718 C4717 1.374 . S
C4719 C4716 1.499 . S
C4719 C4720 1.373 1_455 S
C4719 C4721 1.389 1_455 S
C4720 H4693 0.950 1_655 S
C4720 C4706 1.377 . S
C4720 C4719 1.373 1_655 S
C4721 C4705 1.377 . S
C4721 C4719 1.389 1_655 S
C4721 C4722 1.524 1_655 S
C4722 C4721 1.524 1_455 S
C4722 C4723 1.397 . S
C4722 C4727 1.363 . S
C4723 H4694 0.950 . S
C4723 C4722 1.397 . S
C4723 C4724 1.334 . S
C4724 H4695 0.950 . S
C4724 C4723 1.334 . S
C4724 C4725 1.287 . S
C4725 C4724 1.287 . S
C4725 C4726 1.524 . S
C4725 H4728 0.999 . S
C4726 H4696 0.950 . S
C4726 C4725 1.524 . S
C4726 C4727 1.415 . S
C4727 H4697 0.950 1_455 S
C4727 C4722 1.363 . S
C4727 C4726 1.415 . S
H4728 C4725 0.999 . S
H4729 C4710 0.913 . S
H4730 C4748 0.951 . S
H4731 C4750 0.951 . S
H4732 C4752 0.950 . S
H4733 C4753 0.950 . S
H4734 C4755 0.950 . S
H4735 C4758 0.950 . S
H4736 C4759 0.950 . S
H4737 C4761 0.950 . S
H4738 C4762 0.950 . S
H4739 C4763 0.951 . S
H4740 C4765 0.951 . S
H4741 C4767 0.950 . S
H4742 C4768 0.950 . S
H4743 C4770 0.950 . S
H4744 C4773 0.950 . S
H4745 C4774 0.950 . S
H4746 C4776 0.950 . S
H4747 C4777 0.950 . S
C4748 H4730 0.951 . S
C4748 C4749 1.366 . S
C4748 C4750 1.388 . S
C4749 C4748 1.366 . S
C4749 C4753 1.385 . S
C4750 H4731 0.951 . S
C4750 C4748 1.388 . S
C4750 C4751 1.366 . S
C4751 C4750 1.366 . S
C4751 C4752 1.414 . S
C4751 C4754 1.499 . S
C4752 H4732 0.950 . S
C4752 C4751 1.414 . S
C4752 C4753 1.374 . S
C4753 H4733 0.950 . S
C4753 C4749 1.385 . S
C4753 C4752 1.374 . S
C4754 C4751 1.499 . S
C4754 C4755 1.373 . S
C4754 C4756 1.389 . S
C4755 H4734 0.950 . S
C4755 C4754 1.373 . S
C4755 C4771 1.377 . S
C4756 C4754 1.389 . S
C4756 C4757 1.524 . S
C4756 C4770 1.377 . S
C4757 C4756 1.524 . S
C4757 C4758 1.397 . S
C4757 C4762 1.363 . S
C4758 H4735 0.950 . S
C4758 C4757 1.397 . S
C4758 C4759 1.334 . S
C4759 H4736 0.950 . S
C4759 C4758 1.334 . S
C4759 C4760 1.287 . S
C4760 C4759 1.287 . S
C4760 C4761 1.524 . S
C4760 H4779 0.913 . S
C4761 H4737 0.950 . S
C4761 C4760 1.524 . S
C4761 C4762 1.415 . S
C4762 H4738 0.950 . S
C4762 C4757 1.363 . S
C4762 C4761 1.415 . S
C4763 H4739 0.951 . S
C4763 C4764 1.366 . S
C4763 C4765 1.388 . S
C4764 C4763 1.366 . S
C4764 C4768 1.385 . S
C4765 H4740 0.951 . S
C4765 C4763 1.388 . S
C4765 C4766 1.366 . S
C4766 C4765 1.366 . S
C4766 C4767 1.414 . S
C4766 C4769 1.499 . S
C4767 H4741 0.950 . S
C4767 C4766 1.414 . S
C4767 C4768 1.374 . S
C4768 H4742 0.950 . S
C4768 C4764 1.385 . S
C4768 C4767 1.374 . S
C4769 C4766 1.499 . S
C4769 C4770 1.373 . S
C4769 C4771 1.389 . S
C4770 H4743 0.950 . S
C4770 C4756 1.377 . S
C4770 C4769 1.373 . S
C4771 C4755 1.377 . S
C4771 C4769 1.389 . S
C4771 C4772 1.524 . S
C4772 C4771 1.524 . S
C4772 C4773 1.397 . S
C4772 C4777 1.363 . S
C4773 H4744 0.950 . S
C4773 C4772 1.397 . S
C4773 C4774 1.334 . S
C4774 H4745 0.950 . S
C4774 C4773 1.334 . S
C4774 C4775 1.287 . S
C4775 C4774 1.287 . S
C4775 C4776 1.524 . S
C4775 H4778 0.999 . S
C4776 H4746 0.950 . S
C4776 C4775 1.524 . S
C4776 C4777 1.415 . S
C4777 H4747 0.950 . S
C4777 C4772 1.363 . S
C4777 C4776 1.415 . S
H4778 C4775 0.999 . S
H4779 C4760 0.913 . S
H4780 C4798 0.951 . S
H4781 C4800 0.951 . S
H4782 C4802 0.950 . S
H4783 C4803 0.950 . S
H4784 C4805 0.950 . S
H4785 C4808 0.950 . S
H4786 C4809 0.950 . S
H4787 C4811 0.950 . S
H4788 C4812 0.950 1_655 S
H4789 C4813 0.951 . S
H4790 C4815 0.951 . S
H4791 C4817 0.950 . S
H4792 C4818 0.950 . S
H4793 C4820 0.950 . S
H4794 C4823 0.950 . S
H4795 C4824 0.950 . S
H4796 C4826 0.950 . S
H4797 C4827 0.950 . S
C4798 H4780 0.951 . S
C4798 C4799 1.366 . S
C4798 C4800 1.388 . S
C4799 C4798 1.366 . S
C4799 C4803 1.385 . S
C4800 H4781 0.951 . S
C4800 C4798 1.388 . S
C4800 C4801 1.366 . S
C4801 C4800 1.366 . S
C4801 C4802 1.414 . S
C4801 C4804 1.499 . S
C4802 H4782 0.950 . S
C4802 C4801 1.414 . S
C4802 C4803 1.374 . S
C4803 H4783 0.950 . S
C4803 C4799 1.385 . S
C4803 C4802 1.374 . S
C4804 C4801 1.499 . S
C4804 C4805 1.373 1_455 S
C4804 C4806 1.389 1_455 S
C4805 H4784 0.950 . S
C4805 C4804 1.373 1_655 S
C4805 C4821 1.377 . S
C4806 C4804 1.389 1_655 S
C4806 C4807 1.524 1_655 S
C4806 C4820 1.377 . S
C4807 C4806 1.524 1_455 S
C4807 C4808 1.397 . S
C4807 C4812 1.363 . S
C4808 H4785 0.950 . S
C4808 C4807 1.397 . S
C4808 C4809 1.334 . S
C4809 H4786 0.950 . S
C4809 C4808 1.334 . S
C4809 C4810 1.287 . S
C4810 C4809 1.287 . S
C4810 C4811 1.524 . S
C4810 H4829 0.913 . S
C4811 H4787 0.950 . S
C4811 C4810 1.524 . S
C4811 C4812 1.415 . S
C4812 H4788 0.950 1_455 S
C4812 C4807 1.363 . S
C4812 C4811 1.415 . S
C4813 H4789 0.951 . S
C4813 C4814 1.366 . S
C4813 C4815 1.388 . S
C4814 C4813 1.366 . S
C4814 C4818 1.385 . S
C4815 H4790 0.951 . S
C4815 C4813 1.388 . S
C4815 C4816 1.366 . S
C4816 C4815 1.366 . S
C4816 C4817 1.414 . S
C4816 C4819 1.499 . S
C4817 H4791 0.950 . S
C4817 C4816 1.414 . S
C4817 C4818 1.374 . S
C4818 H4792 0.950 . S
C4818 C4814 1.385 . S
C4818 C4817 1.374 . S
C4819 C4816 1.499 . S
C4819 C4820 1.373 . S
C4819 C4821 1.389 . S
C4820 H4793 0.950 . S
C4820 C4806 1.377 . S
C4820 C4819 1.373 . S
C4821 C4805 1.377 . S
C4821 C4819 1.389 . S
C4821 C4822 1.524 . S
C4822 C4821 1.524 . S
C4822 C4823 1.397 . S
C4822 C4827 1.363 . S
C4823 H4794 0.950 . S
C4823 C4822 1.397 . S
C4823 C4824 1.334 . S
C4824 H4795 0.950 . S
C4824 C4823 1.334 . S
C4824 C4825 1.287 . S
C4825 C4824 1.287 . S
C4825 C4826 1.524 . S
C4825 H4828 0.999 . S
C4826 H4796 0.950 . S
C4826 C4825 1.524 . S
C4826 C4827 1.415 . S
C4827 H4797 0.950 . S
C4827 C4822 1.363 . S
C4827 C4826 1.415 . S
H4828 C4825 0.999 . S
H4829 C4810 0.913 . S
H4830 C4848 0.951 . S
H4831 C4850 0.951 . S
H4832 C4852 0.950 . S
H4833 C4853 0.950 . S
H4834 C4855 0.950 . S
H4835 C4858 0.950 . S
H4836 C4859 0.950 . S
H4837 C4861 0.950 . S
H4838 C4862 0.950 . S
H4839 C4863 0.951 . S
H4840 C4865 0.951 . S
H4841 C4867 0.950 . S
H4842 C4868 0.950 . S
H4843 C4870 0.950 . S
H4844 C4873 0.950 . S
H4845 C4874 0.950 . S
H4846 C4876 0.950 . S
H4847 C4877 0.950 . S
C4848 H4830 0.951 . S
C4848 C4849 1.366 . S
C4848 C4850 1.388 . S
C4849 C4848 1.366 . S
C4849 C4853 1.385 . S
C4850 H4831 0.951 . S
C4850 C4848 1.388 . S
C4850 C4851 1.366 . S
C4851 C4850 1.366 . S
C4851 C4852 1.414 . S
C4851 C4854 1.499 . S
C4852 H4832 0.950 . S
C4852 C4851 1.414 . S
C4852 C4853 1.374 . S
C4853 H4833 0.950 . S
C4853 C4849 1.385 . S
C4853 C4852 1.374 . S
C4854 C4851 1.499 . S
C4854 C4855 1.373 . S
C4854 C4856 1.389 . S
C4855 H4834 0.950 . S
C4855 C4854 1.373 . S
C4855 C4871 1.377 . S
C4856 C4854 1.389 . S
C4856 C4857 1.524 . S
C4856 C4870 1.377 . S
C4857 C4856 1.524 . S
C4857 C4858 1.397 . S
C4857 C4862 1.363 . S
C4858 H4835 0.950 . S
C4858 C4857 1.397 . S
C4858 C4859 1.334 . S
C4859 H4836 0.950 . S
C4859 C4858 1.334 . S
C4859 C4860 1.287 . S
C4860 C4859 1.287 . S
C4860 C4861 1.524 . S
C4860 H4879 0.913 . S
C4861 H4837 0.950 . S
C4861 C4860 1.524 . S
C4861 C4862 1.415 . S
C4862 H4838 0.950 . S
C4862 C4857 1.363 . S
C4862 C4861 1.415 . S
C4863 H4839 0.951 . S
C4863 C4864 1.366 . S
C4863 C4865 1.388 . S
C4864 C4863 1.366 . S
C4864 C4868 1.385 . S
C4865 H4840 0.951 . S
C4865 C4863 1.388 . S
C4865 C4866 1.366 . S
C4866 C4865 1.366 . S
C4866 C4867 1.414 . S
C4866 C4869 1.499 . S
C4867 H4841 0.950 . S
C4867 C4866 1.414 . S
C4867 C4868 1.374 . S
C4868 H4842 0.950 . S
C4868 C4864 1.385 . S
C4868 C4867 1.374 . S
C4869 C4866 1.499 . S
C4869 C4870 1.373 . S
C4869 C4871 1.389 . S
C4870 H4843 0.950 . S
C4870 C4856 1.377 . S
C4870 C4869 1.373 . S
C4871 C4855 1.377 . S
C4871 C4869 1.389 . S
C4871 C4872 1.524 . S
C4872 C4871 1.524 . S
C4872 C4873 1.397 . S
C4872 C4877 1.363 . S
C4873 H4844 0.950 . S
C4873 C4872 1.397 . S
C4873 C4874 1.334 . S
C4874 H4845 0.950 . S
C4874 C4873 1.334 . S
C4874 C4875 1.287 . S
C4875 C4874 1.287 . S
C4875 C4876 1.524 . S
C4875 H4878 0.999 . S
C4876 H4846 0.950 . S
C4876 C4875 1.524 . S
C4876 C4877 1.415 . S
C4877 H4847 0.950 . S
C4877 C4872 1.363 . S
C4877 C4876 1.415 . S
H4878 C4875 0.999 . S
H4879 C4860 0.913 . S
H4880 C4898 0.951 . S
H4881 C4900 0.951 . S
H4882 C4902 0.950 . S
H4883 C4903 0.950 . S
H4884 C4905 0.943 1_645 S
H4885 C4908 0.950 . S
H4886 C4909 0.950 . S
H4887 C4911 0.974 1_455 S
H4888 C4912 0.950 1_545 S
H4889 C4913 0.951 . S
H4890 C4915 0.951 . S
H4891 C4917 0.950 1_545 S
H4892 C4918 0.950 1_545 S
H4893 C4920 0.950 . S
H4894 C4923 0.950 . S
H4895 C4924 0.950 . S
H4896 C4926 0.950 . S
H4897 C4927 0.950 . S
C4898 H4880 0.951 . S
C4898 C4899 1.366 . S
C4898 C4900 1.388 . S
C4899 C4898 1.366 . S
C4899 C4903 1.385 1_545 S
C4900 H4881 0.951 . S
C4900 C4898 1.388 . S
C4900 C4901 1.402 . S
C4901 C4900 1.402 . S
C4901 C4902 1.390 1_545 S
C4901 C4904 1.490 1_545 S
C4902 H4882 0.950 . S
C4902 C4901 1.390 1_565 S
C4902 C4903 1.374 . S
C4903 H4883 0.950 . S
C4903 C4899 1.385 1_565 S
C4903 C4902 1.374 . S
C4904 C4901 1.490 1_565 S
C4904 C4905 1.378 1_655 S
C4904 C4906 1.389 1_655 S
C4905 H4884 0.943 1_465 S
C4905 C4904 1.378 1_455 S
C4905 C4921 1.381 . S
C4906 C4904 1.389 1_455 S
C4906 C4907 1.524 1_455 S
C4906 C4920 1.377 . S
C4907 C4906 1.524 1_655 S
C4907 C4908 1.397 . S
C4907 C4912 1.363 1_655 S
C4908 H4885 0.950 . S
C4908 C4907 1.397 . S
C4908 C4909 1.334 . S
C4909 H4886 0.950 . S
C4909 C4908 1.334 . S
C4909 C4910 1.287 . S
C4910 C4909 1.287 . S
C4910 C4911 1.524 . S
C4910 H4929 0.913 . S
C4911 H4887 0.974 1_655 S
C4911 C4910 1.524 . S
C4911 C4912 1.415 1_655 S
C4912 H4888 0.950 1_565 S
C4912 C4907 1.363 1_455 S
C4912 C4911 1.415 1_455 S
C4913 H4889 0.951 . S
C4913 C4914 1.366 . S
C4913 C4915 1.388 . S
C4914 C4913 1.366 . S
C4914 C4918 1.385 . S
C4915 H4890 0.951 . S
C4915 C4913 1.388 . S
C4915 C4916 1.366 . S
C4916 C4915 1.366 . S
C4916 C4917 1.414 . S
C4916 C4919 1.499 . S
C4917 H4891 0.950 1_565 S
C4917 C4916 1.414 . S
C4917 C4918 1.374 . S
C4918 H4892 0.950 1_565 S
C4918 C4914 1.385 . S
C4918 C4917 1.374 . S
C4919 C4916 1.499 . S
C4919 C4920 1.373 . S
C4919 C4921 1.389 . S
C4920 H4893 0.950 . S
C4920 C4906 1.377 . S
C4920 C4919 1.373 . S
C4921 C4905 1.381 . S
C4921 C4919 1.389 . S
C4921 C4922 1.524 1_565 S
C4922 C4921 1.524 1_545 S
C4922 C4923 1.397 . S
C4922 C4927 1.363 1_545 S
C4923 H4894 0.950 . S
C4923 C4922 1.397 . S
C4923 C4924 1.334 . S
C4924 H4895 0.950 . S
C4924 C4923 1.334 . S
C4924 C4925 1.287 . S
C4925 C4924 1.287 . S
C4925 C4926 1.524 1_545 S
C4925 H4928 0.999 . S
C4926 H4896 0.950 . S
C4926 C4925 1.524 1_565 S
C4926 C4927 1.415 . S
C4927 H4897 0.950 . S
C4927 C4922 1.363 1_565 S
C4927 C4926 1.415 . S
H4928 C4925 0.999 . S
H4929 C4910 0.913 . S
H4930 C4948 0.951 . S
H4931 C4950 0.951 . S
H4932 C4952 0.950 . S
H4933 C4953 0.950 . S
H4934 C4955 0.950 . S
H4935 C4958 0.950 . S
H4936 C4959 0.950 . S
H4937 C4961 0.950 . S
H4938 C4962 0.950 . S
H4939 C4963 0.951 . S
H4940 C4965 0.951 . S
H4941 C4967 0.950 . S
H4942 C4968 0.950 . S
H4943 C4970 0.950 . S
H4944 C4973 0.950 . S
H4945 C4974 0.950 . S
H4946 C4976 0.950 . S
H4947 C4977 0.950 . S
C4948 H4930 0.951 . S
C4948 C4949 1.366 . S
C4948 C4950 1.388 . S
C4949 C4948 1.366 . S
C4949 C4953 1.385 . S
C4950 H4931 0.951 . S
C4950 C4948 1.388 . S
C4950 C4951 1.366 . S
C4951 C4950 1.366 . S
C4951 C4952 1.414 . S
C4951 C4954 1.499 . S
C4952 H4932 0.950 . S
C4952 C4951 1.414 . S
C4952 C4953 1.374 . S
C4953 H4933 0.950 . S
C4953 C4949 1.385 . S
C4953 C4952 1.374 . S
C4954 C4951 1.499 . S
C4954 C4955 1.373 . S
C4954 C4956 1.389 . S
C4955 H4934 0.950 . S
C4955 C4954 1.373 . S
C4955 C4971 1.377 . S
C4956 C4954 1.389 . S
C4956 C4957 1.524 . S
C4956 C4970 1.377 . S
C4957 C4956 1.524 . S
C4957 C4958 1.397 . S
C4957 C4962 1.363 . S
C4958 H4935 0.950 . S
C4958 C4957 1.397 . S
C4958 C4959 1.334 . S
C4959 H4936 0.950 . S
C4959 C4958 1.334 . S
C4959 C4960 1.287 . S
C4960 C4959 1.287 . S
C4960 C4961 1.524 . S
C4960 H4979 0.913 . S
C4961 H4937 0.950 . S
C4961 C4960 1.524 . S
C4961 C4962 1.415 . S
C4962 H4938 0.950 . S
C4962 C4957 1.363 . S
C4962 C4961 1.415 . S
C4963 H4939 0.951 . S
C4963 C4964 1.366 . S
C4963 C4965 1.388 . S
C4964 C4963 1.366 . S
C4964 C4968 1.385 . S
C4965 H4940 0.951 . S
C4965 C4963 1.388 . S
C4965 C4966 1.366 . S
C4966 C4965 1.366 . S
C4966 C4967 1.414 . S
C4966 C4969 1.499 . S
C4967 H4941 0.950 . S
C4967 C4966 1.414 . S
C4967 C4968 1.374 . S
C4968 H4942 0.950 . S
C4968 C4964 1.385 . S
C4968 C4967 1.374 . S
C4969 C4966 1.499 . S
C4969 C4970 1.373 . S
C4969 C4971 1.389 . S
C4970 H4943 0.950 . S
C4970 C4956 1.377 . S
C4970 C4969 1.373 . S
C4971 C4955 1.377 . S
C4971 C4969 1.389 . S
C4971 C4972 1.524 . S
C4972 C4971 1.524 . S
C4972 C4973 1.397 . S
C4972 C4977 1.363 . S
C4973 H4944 0.950 . S
C4973 C4972 1.397 . S
C4973 C4974 1.334 . S
C4974 H4945 0.950 . S
C4974 C4973 1.334 . S
C4974 C4975 1.287 . S
C4975 C4974 1.287 . S
C4975 C4976 1.524 . S
C4975 H4978 0.999 . S
C4976 H4946 0.950 . S
C4976 C4975 1.524 . S
C4976 C4977 1.415 . S
C4977 H4947 0.950 . S
C4977 C4972 1.363 . S
C4977 C4976 1.415 . S
H4978 C4975 0.999 . S
H4979 C4960 0.913 . S
H4980 C4998 0.951 . S
H4981 C5000 0.951 . S
H4982 C5002 0.950 . S
H4983 C5003 0.950 . S
H4984 C5005 0.950 1_655 S
H4985 C5008 0.950 . S
H4986 C5009 0.950 . S
H4987 C5011 0.950 . S
H4988 C5012 0.950 . S
H4989 C5013 0.951 . S
H4990 C5015 0.951 . S
H4991 C5017 0.950 . S
H4992 C5018 0.950 . S
H4993 C5020 0.950 . S
H4994 C5023 0.950 . S
H4995 C5024 0.950 . S
H4996 C5026 0.950 . S
H4997 C5027 0.950 . S
C4998 H4980 0.951 . S
C4998 C4999 1.366 . S
C4998 C5000 1.388 . S
C4999 C4998 1.366 . S
C4999 C5003 1.385 . S
C5000 H4981 0.951 . S
C5000 C4998 1.388 . S
C5000 C5001 1.366 . S
C5001 C5000 1.366 . S
C5001 C5002 1.414 . S
C5001 C5004 1.499 . S
C5002 H4982 0.950 . S
C5002 C5001 1.414 . S
C5002 C5003 1.374 . S
C5003 H4983 0.950 . S
C5003 C4999 1.385 . S
C5003 C5002 1.374 . S
C5004 C5001 1.499 . S
C5004 C5005 1.373 1_655 S
C5004 C5006 1.389 1_655 S
C5005 H4984 0.950 1_455 S
C5005 C5004 1.373 1_455 S
C5005 C5021 1.377 . S
C5006 C5004 1.389 1_455 S
C5006 C5007 1.524 1_455 S
C5006 C5020 1.377 . S
C5007 C5006 1.524 1_655 S
C5007 C5008 1.397 . S
C5007 C5012 1.363 1_655 S
C5008 H4985 0.950 . S
C5008 C5007 1.397 . S
C5008 C5009 1.334 . S
C5009 H4986 0.950 . S
C5009 C5008 1.334 . S
C5009 C5010 1.287 . S
C5010 C5009 1.287 . S
C5010 C5011 1.524 . S
C5010 H5029 0.913 . S
C5011 H4987 0.950 . S
C5011 C5010 1.524 . S
C5011 C5012 1.415 1_655 S
C5012 H4988 0.950 . S
C5012 C5007 1.363 1_455 S
C5012 C5011 1.415 1_455 S
C5013 H4989 0.951 . S
C5013 C5014 1.366 . S
C5013 C5015 1.388 . S
C5014 C5013 1.366 . S
C5014 C5018 1.385 . S
C5015 H4990 0.951 . S
C5015 C5013 1.388 . S
C5015 C5016 1.366 . S
C5016 C5015 1.366 . S
C5016 C5017 1.414 . S
C5016 C5019 1.499 . S
C5017 H4991 0.950 . S
C5017 C5016 1.414 . S
C5017 C5018 1.374 . S
C5018 H4992 0.950 . S
C5018 C5014 1.385 . S
C5018 C5017 1.374 . S
C5019 C5016 1.499 . S
C5019 C5020 1.373 . S
C5019 C5021 1.389 . S
C5020 H4993 0.950 . S
C5020 C5006 1.377 . S
C5020 C5019 1.373 . S
C5021 C5005 1.377 . S
C5021 C5019 1.389 . S
C5021 C5022 1.524 . S
C5022 C5021 1.524 . S
C5022 C5023 1.397 . S
C5022 C5027 1.363 . S
C5023 H4994 0.950 . S
C5023 C5022 1.397 . S
C5023 C5024 1.334 . S
C5024 H4995 0.950 . S
C5024 C5023 1.334 . S
C5024 C5025 1.287 . S
C5025 C5024 1.287 . S
C5025 C5026 1.524 . S
C5025 H5028 0.999 . S
C5026 H4996 0.950 . S
C5026 C5025 1.524 . S
C5026 C5027 1.415 . S
C5027 H4997 0.950 . S
C5027 C5022 1.363 . S
C5027 C5026 1.415 . S
H5028 C5025 0.999 . S
H5029 C5010 0.913 . S
H5030 C5048 0.951 . S
H5031 C5050 0.951 . S
H5032 C5052 0.950 . S
H5033 C5053 0.950 . S
H5034 C5055 0.955 . S
H5035 C5058 0.950 . S
H5036 C5059 0.950 . S
H5037 C5061 0.950 . S
H5038 C5062 0.950 1_545 S
H5039 C5063 0.951 . S
H5040 C5065 0.951 . S
H5041 C5067 0.950 1_545 S
H5042 C5068 0.945 1_545 S
H5043 C5070 0.950 . S
H5044 C5073 0.950 . S
H5045 C5074 0.950 . S
H5046 C5076 0.950 1_565 S
H5047 C5077 0.950 . S
C5048 H5030 0.951 . S
C5048 C5049 1.366 . S
C5048 C5050 1.388 . S
C5049 C5048 1.366 . S
C5049 C5053 1.385 1_545 S
C5050 H5031 0.951 . S
C5050 C5048 1.388 . S
C5050 C5051 1.398 . S
C5051 C5050 1.398 . S
C5051 C5052 1.394 1_545 S
C5051 C5054 1.490 1_545 S
C5052 H5032 0.950 . S
C5052 C5051 1.394 1_565 S
C5052 C5053 1.374 . S
C5053 H5033 0.950 . S
C5053 C5049 1.385 1_565 S
C5053 C5052 1.374 . S
C5054 C5051 1.490 1_565 S
C5054 C5055 1.370 1_565 S
C5054 C5056 1.389 . S
C5055 H5034 0.955 . S
C5055 C5054 1.370 1_545 S
C5055 C5071 1.375 1_545 S
C5056 C5054 1.389 . S
C5056 C5057 1.524 . S
C5056 C5070 1.377 . S
C5057 C5056 1.524 . S
C5057 C5058 1.397 . S
C5057 C5062 1.363 . S
C5058 H5035 0.950 . S
C5058 C5057 1.397 . S
C5058 C5059 1.334 . S
C5059 H5036 0.950 . S
C5059 C5058 1.334 . S
C5059 C5060 1.287 . S
C5060 C5059 1.287 . S
C5060 C5061 1.524 . S
C5060 H5079 0.913 . S
C5061 H5037 0.950 . S
C5061 C5060 1.524 . S
C5061 C5062 1.415 . S
C5062 H5038 0.950 1_565 S
C5062 C5057 1.363 . S
C5062 C5061 1.415 . S
C5063 H5039 0.951 . S
C5063 C5064 1.366 . S
C5063 C5065 1.388 . S
C5064 C5063 1.366 . S
C5064 C5068 1.385 . S
C5065 H5040 0.951 . S
C5065 C5063 1.388 . S
C5065 C5066 1.366 . S
C5066 C5065 1.366 . S
C5066 C5067 1.414 . S
C5066 C5069 1.499 . S
C5067 H5041 0.950 1_565 S
C5067 C5066 1.414 . S
C5067 C5068 1.374 . S
C5068 H5042 0.945 1_565 S
C5068 C5064 1.385 . S
C5068 C5067 1.374 . S
C5069 C5066 1.499 . S
C5069 C5070 1.373 . S
C5069 C5071 1.389 . S
C5070 H5043 0.950 . S
C5070 C5056 1.377 . S
C5070 C5069 1.373 . S
C5071 C5055 1.375 1_565 S
C5071 C5069 1.389 . S
C5071 C5072 1.524 1_565 S
C5072 C5071 1.524 1_545 S
C5072 C5073 1.397 . S
C5072 C5077 1.363 1_545 S
C5073 H5044 0.950 . S
C5073 C5072 1.397 . S
C5073 C5074 1.334 . S
C5074 H5045 0.950 . S
C5074 C5073 1.334 . S
C5074 C5075 1.287 . S
C5075 C5074 1.287 . S
C5075 C5076 1.524 . S
C5075 H5078 0.999 . S
C5076 H5046 0.950 1_545 S
C5076 C5075 1.524 . S
C5076 C5077 1.415 1_545 S
C5077 H5047 0.950 . S
C5077 C5072 1.363 1_565 S
C5077 C5076 1.415 1_565 S
H5078 C5075 0.999 . S
H5079 C5060 0.913 . S
H5080 C5098 1.000 . S
H5081 C5100 0.951 . S
H5082 C5102 0.950 . S
H5083 C5103 0.950 . S
H5084 C5105 0.950 . S
H5085 C5108 0.950 . S
H5086 C5109 0.977 . S
H5087 C5111 0.950 . S
H5088 C5112 0.950 . S
H5089 C5113 0.951 . S
H5090 C5115 0.951 . S
H5091 C5117 0.950 . S
H5092 C5118 0.950 . S
H5093 C5120 0.950 . S
H5094 C5123 0.950 1_565 S
H5095 C5124 0.914 1_565 S
H5096 C5126 0.950 . S
H5097 C5127 0.950 1_655 S
C5098 H5080 1.000 . S
C5098 C5099 1.309 1_565 S
C5098 C5100 1.398 . S
C5099 C5098 1.309 1_545 S
C5099 C5103 1.385 . S
C5100 H5081 0.951 . S
C5100 C5098 1.398 . S
C5100 C5101 1.366 1_565 S
C5101 C5100 1.366 1_545 S
C5101 C5102 1.414 . S
C5101 C5104 1.499 . S
C5102 H5082 0.950 . S
C5102 C5101 1.414 . S
C5102 C5103 1.374 . S
C5103 H5083 0.950 . S
C5103 C5099 1.385 . S
C5103 C5102 1.374 . S
C5104 C5101 1.499 . S
C5104 C5105 1.373 . S
C5104 C5106 1.389 1_545 S
C5105 H5084 0.950 . S
C5105 C5104 1.373 . S
C5105 C5121 1.377 . S
C5106 C5104 1.389 1_565 S
C5106 C5107 1.524 . S
C5106 C5120 1.377 . S
C5107 C5106 1.524 . S
C5107 C5108 1.397 1_565 S
C5107 C5112 1.363 . S
C5108 H5085 0.950 . S
C5108 C5107 1.397 1_545 S
C5108 C5109 1.344 . S
C5109 H5086 0.977 . S
C5109 C5108 1.344 . S
C5109 C5110 1.250 1_545 S
C5110 C5109 1.250 1_565 S
C5110 C5111 1.524 . S
C5110 H5129 0.913 . S
C5111 H5087 0.950 . S
C5111 C5110 1.524 . S
C5111 C5112 1.415 . S
C5112 H5088 0.950 . S
C5112 C5107 1.363 . S
C5112 C5111 1.415 . S
C5113 H5089 0.951 . S
C5113 C5114 1.366 1_545 S
C5113 C5115 1.388 . S
C5114 C5113 1.366 1_565 S
C5114 C5118 1.385 . S
C5115 H5090 0.951 . S
C5115 C5113 1.388 . S
C5115 C5116 1.366 1_545 S
C5116 C5115 1.366 1_565 S
C5116 C5117 1.414 . S
C5116 C5119 1.494 1_565 S
C5117 H5091 0.950 . S
C5117 C5116 1.414 . S
C5117 C5118 1.374 . S
C5118 H5092 0.950 . S
C5118 C5114 1.385 . S
C5118 C5117 1.374 . S
C5119 C5116 1.494 1_545 S
C5119 C5120 1.360 1_445 S
C5119 C5121 1.411 1_455 S
C5120 H5093 0.950 . S
C5120 C5106 1.377 . S
C5120 C5119 1.360 1_665 S
C5121 C5105 1.377 . S
C5121 C5119 1.411 1_655 S
C5121 C5122 1.524 1_655 S
C5122 C5121 1.524 1_455 S
C5122 C5123 1.397 . S
C5122 C5127 1.363 . S
C5123 H5094 0.950 1_545 S
C5123 C5122 1.397 . S
C5123 C5124 1.334 . S
C5124 H5095 0.914 1_545 S
C5124 C5123 1.334 . S
C5124 C5125 1.287 . S
C5125 C5124 1.287 . S
C5125 C5126 1.524 . S
C5125 H5128 0.999 . S
C5126 H5096 0.950 . S
C5126 C5125 1.524 . S
C5126 C5127 1.415 . S
C5127 H5097 0.950 1_455 S
C5127 C5122 1.363 . S
C5127 C5126 1.415 . S
H5128 C5125 0.999 . S
H5129 C5110 0.913 . S
H5130 C5148 0.951 . S
H5131 C5150 0.951 . S
H5132 C5152 0.950 . S
H5133 C5153 0.950 . S
H5134 C5155 0.950 . S
H5135 C5158 0.950 . S
H5136 C5159 0.950 . S
H5137 C5161 0.950 . S
H5138 C5162 0.950 . S
H5139 C5163 0.951 . S
H5140 C5165 0.951 . S
H5141 C5167 0.950 . S
H5142 C5168 0.950 . S
H5143 C5170 0.950 . S
H5144 C5173 0.950 . S
H5145 C5174 0.950 . S
H5146 C5176 0.950 . S
H5147 C5177 0.950 . S
C5148 H5130 0.951 . S
C5148 C5149 1.366 . S
C5148 C5150 1.388 . S
C5149 C5148 1.366 . S
C5149 C5153 1.385 . S
C5150 H5131 0.951 . S
C5150 C5148 1.388 . S
C5150 C5151 1.366 . S
C5151 C5150 1.366 . S
C5151 C5152 1.414 . S
C5151 C5154 1.499 . S
C5152 H5132 0.950 . S
C5152 C5151 1.414 . S
C5152 C5153 1.374 . S
C5153 H5133 0.950 . S
C5153 C5149 1.385 . S
C5153 C5152 1.374 . S
C5154 C5151 1.499 . S
C5154 C5155 1.373 . S
C5154 C5156 1.389 . S
C5155 H5134 0.950 . S
C5155 C5154 1.373 . S
C5155 C5171 1.377 . S
C5156 C5154 1.389 . S
C5156 C5157 1.524 . S
C5156 C5170 1.377 . S
C5157 C5156 1.524 . S
C5157 C5158 1.397 . S
C5157 C5162 1.363 . S
C5158 H5135 0.950 . S
C5158 C5157 1.397 . S
C5158 C5159 1.334 . S
C5159 H5136 0.950 . S
C5159 C5158 1.334 . S
C5159 C5160 1.287 . S
C5160 C5159 1.287 . S
C5160 C5161 1.524 . S
C5160 H5179 0.913 . S
C5161 H5137 0.950 . S
C5161 C5160 1.524 . S
C5161 C5162 1.415 . S
C5162 H5138 0.950 . S
C5162 C5157 1.363 . S
C5162 C5161 1.415 . S
C5163 H5139 0.951 . S
C5163 C5164 1.366 . S
C5163 C5165 1.388 . S
C5164 C5163 1.366 . S
C5164 C5168 1.385 . S
C5165 H5140 0.951 . S
C5165 C5163 1.388 . S
C5165 C5166 1.366 . S
C5166 C5165 1.366 . S
C5166 C5167 1.414 . S
C5166 C5169 1.499 . S
C5167 H5141 0.950 . S
C5167 C5166 1.414 . S
C5167 C5168 1.374 . S
C5168 H5142 0.950 . S
C5168 C5164 1.385 . S
C5168 C5167 1.374 . S
C5169 C5166 1.499 . S
C5169 C5170 1.373 . S
C5169 C5171 1.389 . S
C5170 H5143 0.950 . S
C5170 C5156 1.377 . S
C5170 C5169 1.373 . S
C5171 C5155 1.377 . S
C5171 C5169 1.389 . S
C5171 C5172 1.524 . S
C5172 C5171 1.524 . S
C5172 C5173 1.397 . S
C5172 C5177 1.363 . S
C5173 H5144 0.950 . S
C5173 C5172 1.397 . S
C5173 C5174 1.334 . S
C5174 H5145 0.950 . S
C5174 C5173 1.334 . S
C5174 C5175 1.287 . S
C5175 C5174 1.287 . S
C5175 C5176 1.524 . S
C5175 H5178 0.999 . S
C5176 H5146 0.950 . S
C5176 C5175 1.524 . S
C5176 C5177 1.415 . S
C5177 H5147 0.950 . S
C5177 C5172 1.363 . S
C5177 C5176 1.415 . S
H5178 C5175 0.999 . S
H5179 C5160 0.913 . S
H5180 C5198 0.951 . S
H5181 C5200 0.951 . S
H5182 C5202 0.950 . S
H5183 C5203 0.950 . S
H5184 C5205 0.950 1_455 S
H5185 C5208 0.950 . S
H5186 C5209 0.950 . S
H5187 C5211 0.950 . S
H5188 C5212 0.950 . S
H5189 C5213 0.951 . S
H5190 C5215 0.951 . S
H5191 C5217 0.950 . S
H5192 C5218 0.950 . S
H5193 C5220 0.950 . S
H5194 C5223 0.950 . S
H5195 C5224 0.950 . S
H5196 C5226 0.950 . S
H5197 C5227 0.950 . S
C5198 H5180 0.951 . S
C5198 C5199 1.366 . S
C5198 C5200 1.388 . S
C5199 C5198 1.366 . S
C5199 C5203 1.385 . S
C5200 H5181 0.951 . S
C5200 C5198 1.388 . S
C5200 C5201 1.366 . S
C5201 C5200 1.366 . S
C5201 C5202 1.414 . S
C5201 C5204 1.499 . S
C5202 H5182 0.950 . S
C5202 C5201 1.414 . S
C5202 C5203 1.374 . S
C5203 H5183 0.950 . S
C5203 C5199 1.385 . S
C5203 C5202 1.374 . S
C5204 C5201 1.499 . S
C5204 C5205 1.373 1_455 S
C5204 C5206 1.389 1_455 S
C5205 H5184 0.950 1_655 S
C5205 C5204 1.373 1_655 S
C5205 C5221 1.377 . S
C5206 C5204 1.389 1_655 S
C5206 C5207 1.524 1_655 S
C5206 C5220 1.377 . S
C5207 C5206 1.524 1_455 S
C5207 C5208 1.397 . S
C5207 C5212 1.363 1_455 S
C5208 H5185 0.950 . S
C5208 C5207 1.397 . S
C5208 C5209 1.334 . S
C5209 H5186 0.950 . S
C5209 C5208 1.334 . S
C5209 C5210 1.287 . S
C5210 C5209 1.287 . S
C5210 C5211 1.524 . S
C5210 H5229 0.913 . S
C5211 H5187 0.950 . S
C5211 C5210 1.524 . S
C5211 C5212 1.415 1_455 S
C5212 H5188 0.950 . S
C5212 C5207 1.363 1_655 S
C5212 C5211 1.415 1_655 S
C5213 H5189 0.951 . S
C5213 C5214 1.366 . S
C5213 C5215 1.388 . S
C5214 C5213 1.366 . S
C5214 C5218 1.385 . S
C5215 H5190 0.951 . S
C5215 C5213 1.388 . S
C5215 C5216 1.366 . S
C5216 C5215 1.366 . S
C5216 C5217 1.414 . S
C5216 C5219 1.499 . S
C5217 H5191 0.950 . S
C5217 C5216 1.414 . S
C5217 C5218 1.374 . S
C5218 H5192 0.950 . S
C5218 C5214 1.385 . S
C5218 C5217 1.374 . S
C5219 C5216 1.499 . S
C5219 C5220 1.373 . S
C5219 C5221 1.389 . S
C5220 H5193 0.950 . S
C5220 C5206 1.377 . S
C5220 C5219 1.373 . S
C5221 C5205 1.377 . S
C5221 C5219 1.389 . S
C5221 C5222 1.524 . S
C5222 C5221 1.524 . S
C5222 C5223 1.397 . S
C5222 C5227 1.363 . S
C5223 H5194 0.950 . S
C5223 C5222 1.397 . S
C5223 C5224 1.334 . S
C5224 H5195 0.950 . S
C5224 C5223 1.334 . S
C5224 C5225 1.287 . S
C5225 C5224 1.287 . S
C5225 C5226 1.524 . S
C5225 H5228 0.999 . S
C5226 H5196 0.950 . S
C5226 C5225 1.524 . S
C5226 C5227 1.415 . S
C5227 H5197 0.950 . S
C5227 C5222 1.363 . S
C5227 C5226 1.415 . S
H5228 C5225 0.999 . S
H5229 C5210 0.913 . S
H5230 C5248 0.951 . S
H5231 C5250 0.951 . S
H5232 C5252 0.950 . S
H5233 C5253 0.950 . S
H5234 C5255 0.950 . S
H5235 C5258 0.950 . S
H5236 C5259 0.950 . S
H5237 C5261 0.950 . S
H5238 C5262 0.950 . S
H5239 C5263 0.951 . S
H5240 C5265 0.951 . S
H5241 C5267 0.950 1_565 S
H5242 C5268 0.937 1_565 S
H5243 C5270 0.950 . S
H5244 C5273 0.950 . S
H5245 C5274 0.950 . S
H5246 C5276 0.950 . S
H5247 C5277 0.950 . S
C5248 H5230 0.951 . S
C5248 C5249 1.366 . S
C5248 C5250 1.388 . S
C5249 C5248 1.366 . S
C5249 C5253 1.385 1_565 S
C5250 H5231 0.951 . S
C5250 C5248 1.388 . S
C5250 C5251 1.366 . S
C5251 C5250 1.366 . S
C5251 C5252 1.414 1_565 S
C5251 C5254 1.490 1_565 S
C5252 H5232 0.950 . S
C5252 C5251 1.414 1_545 S
C5252 C5253 1.374 . S
C5253 H5233 0.950 . S
C5253 C5249 1.385 1_545 S
C5253 C5252 1.374 . S
C5254 C5251 1.490 1_545 S
C5254 C5255 1.432 . S
C5254 C5256 1.343 1_545 S
C5255 H5234 0.950 . S
C5255 C5254 1.432 . S
C5255 C5271 1.377 . S
C5256 C5254 1.343 1_565 S
C5256 C5257 1.524 . S
C5256 C5270 1.377 . S
C5257 C5256 1.524 . S
C5257 C5258 1.397 . S
C5257 C5262 1.363 . S
C5258 H5235 0.950 . S
C5258 C5257 1.397 . S
C5258 C5259 1.334 . S
C5259 H5236 0.950 . S
C5259 C5258 1.334 . S
C5259 C5260 1.287 . S
C5260 C5259 1.287 . S
C5260 C5261 1.524 . S
C5260 H5279 0.913 . S
C5261 H5237 0.950 . S
C5261 C5260 1.524 . S
C5261 C5262 1.415 . S
C5262 H5238 0.950 . S
C5262 C5257 1.363 . S
C5262 C5261 1.415 . S
C5263 H5239 0.951 . S
C5263 C5264 1.366 . S
C5263 C5265 1.388 . S
C5264 C5263 1.366 . S
C5264 C5268 1.385 . S
C5265 H5240 0.951 . S
C5265 C5263 1.388 . S
C5265 C5266 1.366 . S
C5266 C5265 1.366 . S
C5266 C5267 1.414 . S
C5266 C5269 1.499 . S
C5267 H5241 0.950 1_545 S
C5267 C5266 1.414 . S
C5267 C5268 1.374 . S
C5268 H5242 0.937 1_545 S
C5268 C5264 1.385 . S
C5268 C5267 1.374 . S
C5269 C5266 1.499 . S
C5269 C5270 1.373 1_545 S
C5269 C5271 1.389 . S
C5270 H5243 0.950 . S
C5270 C5256 1.377 . S
C5270 C5269 1.373 1_565 S
C5271 C5255 1.377 . S
C5271 C5269 1.389 . S
C5271 C5272 1.524 . S
C5272 C5271 1.524 . S
C5272 C5273 1.397 . S
C5272 C5277 1.363 . S
C5273 H5244 0.950 . S
C5273 C5272 1.397 . S
C5273 C5274 1.334 . S
C5274 H5245 0.950 . S
C5274 C5273 1.334 . S
C5274 C5275 1.287 . S
C5275 C5274 1.287 . S
C5275 C5276 1.524 . S
C5275 H5278 0.999 . S
C5276 H5246 0.950 . S
C5276 C5275 1.524 . S
C5276 C5277 1.415 . S
C5277 H5247 0.950 . S
C5277 C5272 1.363 . S
C5277 C5276 1.415 . S
H5278 C5275 0.999 . S
H5279 C5260 0.913 . S
H5280 C5298 0.951 . S
H5281 C5300 0.951 . S
H5282 C5302 0.950 . S
H5283 C5303 0.950 . S
H5284 C5305 0.950 . S
H5285 C5308 0.950 . S
H5286 C5309 0.950 . S
H5287 C5311 0.950 . S
H5288 C5312 0.950 . S
H5289 C5313 0.951 . S
H5290 C5315 0.951 . S
H5291 C5317 0.950 . S
H5292 C5318 0.950 . S
H5293 C5320 0.950 . S
H5294 C5323 0.950 . S
H5295 C5324 0.950 . S
H5296 C5326 0.950 . S
H5297 C5327 0.950 . S
C5298 H5280 0.951 . S
C5298 C5299 1.366 1_655 S
C5298 C5300 1.388 . S
C5299 C5298 1.366 1_455 S
C5299 C5303 1.385 . S
C5300 H5281 0.951 . S
C5300 C5298 1.388 . S
C5300 C5301 1.366 1_655 S
C5301 C5300 1.366 1_455 S
C5301 C5302 1.414 . S
C5301 C5304 1.499 . S
C5302 H5282 0.950 . S
C5302 C5301 1.414 . S
C5302 C5303 1.374 . S
C5303 H5283 0.950 . S
C5303 C5299 1.385 . S
C5303 C5302 1.374 . S
C5304 C5301 1.499 . S
C5304 C5305 1.373 . S
C5304 C5306 1.389 1_455 S
C5305 H5284 0.950 . S
C5305 C5304 1.373 . S
C5305 C5321 1.377 1_554 S
C5306 C5304 1.389 1_655 S
C5306 C5307 1.524 . S
C5306 C5320 1.377 1_554 S
C5307 C5306 1.524 . S
C5307 C5308 1.397 . S
C5307 C5312 1.363 . S
C5308 H5285 0.950 . S
C5308 C5307 1.397 . S
C5308 C5309 1.334 . S
C5309 H5286 0.950 . S
C5309 C5308 1.334 . S
C5309 C5310 1.287 . S
C5310 C5309 1.287 . S
C5310 C5311 1.524 . S
C5310 H5329 0.913 . S
C5311 H5287 0.950 . S
C5311 C5310 1.524 . S
C5311 C5312 1.415 . S
C5312 H5288 0.950 . S
C5312 C5307 1.363 . S
C5312 C5311 1.415 . S
C5313 H5289 0.951 . S
C5313 C5314 1.366 1_455 S
C5313 C5315 1.388 . S
C5314 C5313 1.366 1_655 S
C5314 C5318 1.385 . S
C5315 H5290 0.951 . S
C5315 C5313 1.388 . S
C5315 C5316 1.366 1_455 S
C5316 C5315 1.366 1_655 S
C5316 C5317 1.414 . S
C5316 C5319 1.499 . S
C5317 H5291 0.950 . S
C5317 C5316 1.414 . S
C5317 C5318 1.374 . S
C5318 H5292 0.950 . S
C5318 C5314 1.385 . S
C5318 C5317 1.374 . S
C5319 C5316 1.499 . S
C5319 C5320 1.373 . S
C5319 C5321 1.389 1_655 S
C5320 H5293 0.950 . S
C5320 C5306 1.377 1_556 S
C5320 C5319 1.373 . S
C5321 C5305 1.377 1_556 S
C5321 C5319 1.389 1_455 S
C5321 C5322 1.524 . S
C5322 C5321 1.524 . S
C5322 C5323 1.397 . S
C5322 C5327 1.363 . S
C5323 H5294 0.950 . S
C5323 C5322 1.397 . S
C5323 C5324 1.334 . S
C5324 H5295 0.950 . S
C5324 C5323 1.334 . S
C5324 C5325 1.287 . S
C5325 C5324 1.287 . S
C5325 C5326 1.524 . S
C5325 H5328 0.999 . S
C5326 H5296 0.950 . S
C5326 C5325 1.524 . S
C5326 C5327 1.415 . S
C5327 H5297 0.950 . S
C5327 C5322 1.363 . S
C5327 C5326 1.415 . S
H5328 C5325 0.999 . S
H5329 C5310 0.913 . S
H5330 C5348 0.951 . S
H5331 C5350 0.951 . S
H5332 C5352 0.950 . S
H5333 C5353 0.950 . S
H5334 C5355 0.950 . S
H5335 C5358 0.950 . S
H5336 C5359 0.950 . S
H5337 C5361 0.950 . S
H5338 C5362 0.950 . S
H5339 C5363 0.951 . S
H5340 C5365 0.951 . S
H5341 C5367 0.950 . S
H5342 C5368 0.950 . S
H5343 C5370 0.950 . S
H5344 C5373 0.950 . S
H5345 C5374 0.950 . S
H5346 C5376 0.950 . S
H5347 C5377 0.950 . S
C5348 H5330 0.951 . S
C5348 C5349 1.366 . S
C5348 C5350 1.388 . S
C5349 C5348 1.366 . S
C5349 C5353 1.385 . S
C5350 H5331 0.951 . S
C5350 C5348 1.388 . S
C5350 C5351 1.366 . S
C5351 C5350 1.366 . S
C5351 C5352 1.414 . S
C5351 C5354 1.499 . S
C5352 H5332 0.950 . S
C5352 C5351 1.414 . S
C5352 C5353 1.374 . S
C5353 H5333 0.950 . S
C5353 C5349 1.385 . S
C5353 C5352 1.374 . S
C5354 C5351 1.499 . S
C5354 C5355 1.373 . S
C5354 C5356 1.389 . S
C5355 H5334 0.950 . S
C5355 C5354 1.373 . S
C5355 C5371 1.377 1_556 S
C5356 C5354 1.389 . S
C5356 C5357 1.524 . S
C5356 C5370 1.377 1_556 S
C5357 C5356 1.524 . S
C5357 C5358 1.397 . S
C5357 C5362 1.363 . S
C5358 H5335 0.950 . S
C5358 C5357 1.397 . S
C5358 C5359 1.334 . S
C5359 H5336 0.950 . S
C5359 C5358 1.334 . S
C5359 C5360 1.287 . S
C5360 C5359 1.287 . S
C5360 C5361 1.524 . S
C5360 H5379 0.913 . S
C5361 H5337 0.950 . S
C5361 C5360 1.524 . S
C5361 C5362 1.415 . S
C5362 H5338 0.950 . S
C5362 C5357 1.363 . S
C5362 C5361 1.415 . S
C5363 H5339 0.951 . S
C5363 C5364 1.366 . S
C5363 C5365 1.388 . S
C5364 C5363 1.366 . S
C5364 C5368 1.385 . S
C5365 H5340 0.951 . S
C5365 C5363 1.388 . S
C5365 C5366 1.366 . S
C5366 C5365 1.366 . S
C5366 C5367 1.414 . S
C5366 C5369 1.499 . S
C5367 H5341 0.950 . S
C5367 C5366 1.414 . S
C5367 C5368 1.374 . S
C5368 H5342 0.950 . S
C5368 C5364 1.385 . S
C5368 C5367 1.374 . S
C5369 C5366 1.499 . S
C5369 C5370 1.373 . S
C5369 C5371 1.389 . S
C5370 H5343 0.950 . S
C5370 C5356 1.377 1_554 S
C5370 C5369 1.373 . S
C5371 C5355 1.377 1_554 S
C5371 C5369 1.389 . S
C5371 C5372 1.524 . S
C5372 C5371 1.524 . S
C5372 C5373 1.397 . S
C5372 C5377 1.363 . S
C5373 H5344 0.950 . S
C5373 C5372 1.397 . S
C5373 C5374 1.334 . S
C5374 H5345 0.950 . S
C5374 C5373 1.334 . S
C5374 C5375 1.287 . S
C5375 C5374 1.287 . S
C5375 C5376 1.524 . S
C5375 H5378 0.999 . S
C5376 H5346 0.950 . S
C5376 C5375 1.524 . S
C5376 C5377 1.415 . S
C5377 H5347 0.950 . S
C5377 C5372 1.363 . S
C5377 C5376 1.415 . S
H5378 C5375 0.999 . S
H5379 C5360 0.913 . S
H5380 C5398 0.951 . S
H5381 C5400 0.951 . S
H5382 C5402 0.950 . S
H5383 C5403 0.950 . S
H5384 C5405 0.950 . S
H5385 C5408 0.950 . S
H5386 C5409 0.950 . S
H5387 C5411 0.950 . S
H5388 C5412 0.950 . S
H5389 C5413 0.951 . S
H5390 C5415 0.951 . S
H5391 C5417 0.950 . S
H5392 C5418 0.950 . S
H5393 C5420 0.950 . S
H5394 C5423 0.950 . S
H5395 C5424 0.950 . S
H5396 C5426 0.950 . S
H5397 C5427 0.950 . S
C5398 H5380 0.951 . S
C5398 C5399 1.366 . S
C5398 C5400 1.388 . S
C5399 C5398 1.366 . S
C5399 C5403 1.385 1_655 S
C5400 H5381 0.951 . S
C5400 C5398 1.388 . S
C5400 C5401 1.366 . S
C5401 C5400 1.366 . S
C5401 C5402 1.414 1_655 S
C5401 C5404 1.501 . S
C5402 H5382 0.950 . S
C5402 C5401 1.414 1_455 S
C5402 C5403 1.374 . S
C5403 H5383 0.950 . S
C5403 C5399 1.385 1_455 S
C5403 C5402 1.374 . S
C5404 C5401 1.501 . S
C5404 C5405 1.381 . S
C5404 C5406 1.381 1_655 S
C5405 H5384 0.950 . S
C5405 C5404 1.381 . S
C5405 C5421 1.377 . S
C5406 C5404 1.381 1_455 S
C5406 C5407 1.524 . S
C5406 C5420 1.377 . S
C5407 C5406 1.524 . S
C5407 C5408 1.397 . S
C5407 C5412 1.363 . S
C5408 H5385 0.950 . S
C5408 C5407 1.397 . S
C5408 C5409 1.334 . S
C5409 H5386 0.950 . S
C5409 C5408 1.334 . S
C5409 C5410 1.287 . S
C5410 C5409 1.287 . S
C5410 C5411 1.524 . S
C5410 H5429 0.913 . S
C5411 H5387 0.950 . S
C5411 C5410 1.524 . S
C5411 C5412 1.415 . S
C5412 H5388 0.950 . S
C5412 C5407 1.363 . S
C5412 C5411 1.415 . S
C5413 H5389 0.951 . S
C5413 C5414 1.366 . S
C5413 C5415 1.388 . S
C5414 C5413 1.366 . S
C5414 C5418 1.385 1_455 S
C5415 H5390 0.951 . S
C5415 C5413 1.388 . S
C5415 C5416 1.366 . S
C5416 C5415 1.366 . S
C5416 C5417 1.414 1_455 S
C5416 C5419 1.501 . S
C5417 H5391 0.950 . S
C5417 C5416 1.414 1_655 S
C5417 C5418 1.374 . S
C5418 H5392 0.950 . S
C5418 C5414 1.385 1_655 S
C5418 C5417 1.374 . S
C5419 C5416 1.501 . S
C5419 C5420 1.381 . S
C5419 C5421 1.381 1_455 S
C5420 H5393 0.950 . S
C5420 C5406 1.377 . S
C5420 C5419 1.381 . S
C5421 C5405 1.377 . S
C5421 C5419 1.381 1_655 S
C5421 C5422 1.524 . S
C5422 C5421 1.524 . S
C5422 C5423 1.397 . S
C5422 C5427 1.363 . S
C5423 H5394 0.950 . S
C5423 C5422 1.397 . S
C5423 C5424 1.334 . S
C5424 H5395 0.950 . S
C5424 C5423 1.334 . S
C5424 C5425 1.287 . S
C5425 C5424 1.287 . S
C5425 C5426 1.524 . S
C5425 H5428 0.999 . S
C5426 H5396 0.950 . S
C5426 C5425 1.524 . S
C5426 C5427 1.415 . S
C5427 H5397 0.950 . S
C5427 C5422 1.363 . S
C5427 C5426 1.415 . S
H5428 C5425 0.999 . S
H5429 C5410 0.913 . S
H5430 C5448 0.951 . S
H5431 C5450 0.951 . S
H5432 C5452 0.950 . S
H5433 C5453 0.950 . S
H5434 C5455 0.950 . S
H5435 C5458 0.950 . S
H5436 C5459 0.950 . S
H5437 C5461 0.950 . S
H5438 C5462 0.950 . S
H5439 C5463 0.951 . S
H5440 C5465 0.951 . S
H5441 C5467 0.950 . S
H5442 C5468 0.950 . S
H5443 C5470 0.950 . S
H5444 C5473 0.950 . S
H5445 C5474 0.950 . S
H5446 C5476 0.950 . S
H5447 C5477 0.950 . S
C5448 H5430 0.951 . S
C5448 C5449 1.366 . S
C5448 C5450 1.388 . S
C5449 C5448 1.366 . S
C5449 C5453 1.385 . S
C5450 H5431 0.951 . S
C5450 C5448 1.388 . S
C5450 C5451 1.366 . S
C5451 C5450 1.366 . S
C5451 C5452 1.414 . S
C5451 C5454 1.499 . S
C5452 H5432 0.950 . S
C5452 C5451 1.414 . S
C5452 C5453 1.374 . S
C5453 H5433 0.950 . S
C5453 C5449 1.385 . S
C5453 C5452 1.374 . S
C5454 C5451 1.499 . S
C5454 C5455 1.373 . S
C5454 C5456 1.389 . S
C5455 H5434 0.950 . S
C5455 C5454 1.373 . S
C5455 C5471 1.377 . S
C5456 C5454 1.389 . S
C5456 C5457 1.524 . S
C5456 C5470 1.377 . S
C5457 C5456 1.524 . S
C5457 C5458 1.397 . S
C5457 C5462 1.363 . S
C5458 H5435 0.950 . S
C5458 C5457 1.397 . S
C5458 C5459 1.334 . S
C5459 H5436 0.950 . S
C5459 C5458 1.334 . S
C5459 C5460 1.287 . S
C5460 C5459 1.287 . S
C5460 C5461 1.524 . S
C5460 H5479 0.913 . S
C5461 H5437 0.950 . S
C5461 C5460 1.524 . S
C5461 C5462 1.415 . S
C5462 H5438 0.950 . S
C5462 C5457 1.363 . S
C5462 C5461 1.415 . S
C5463 H5439 0.951 . S
C5463 C5464 1.366 . S
C5463 C5465 1.388 . S
C5464 C5463 1.366 . S
C5464 C5468 1.385 . S
C5465 H5440 0.951 . S
C5465 C5463 1.388 . S
C5465 C5466 1.366 . S
C5466 C5465 1.366 . S
C5466 C5467 1.414 . S
C5466 C5469 1.499 . S
C5467 H5441 0.950 . S
C5467 C5466 1.414 . S
C5467 C5468 1.374 . S
C5468 H5442 0.950 . S
C5468 C5464 1.385 . S
C5468 C5467 1.374 . S
C5469 C5466 1.499 . S
C5469 C5470 1.373 . S
C5469 C5471 1.389 . S
C5470 H5443 0.950 . S
C5470 C5456 1.377 . S
C5470 C5469 1.373 . S
C5471 C5455 1.377 . S
C5471 C5469 1.389 . S
C5471 C5472 1.524 . S
C5472 C5471 1.524 . S
C5472 C5473 1.397 . S
C5472 C5477 1.363 . S
C5473 H5444 0.950 . S
C5473 C5472 1.397 . S
C5473 C5474 1.334 . S
C5474 H5445 0.950 . S
C5474 C5473 1.334 . S
C5474 C5475 1.287 . S
C5475 C5474 1.287 . S
C5475 C5476 1.524 . S
C5475 H5478 0.999 . S
C5476 H5446 0.950 . S
C5476 C5475 1.524 . S
C5476 C5477 1.415 . S
C5477 H5447 0.950 . S
C5477 C5472 1.363 . S
C5477 C5476 1.415 . S
H5478 C5475 0.999 . S
H5479 C5460 0.913 . S
H5480 C5498 0.951 . S
H5481 C5500 0.951 . S
H5482 C5502 0.950 . S
H5483 C5503 0.950 . S
H5484 C5505 0.950 . S
H5485 C5508 0.950 . S
H5486 C5509 0.950 . S
H5487 C5511 0.950 . S
H5488 C5512 0.950 . S
H5489 C5513 0.951 . S
H5490 C5515 0.951 . S
H5491 C5517 0.950 . S
H5492 C5518 0.950 . S
H5493 C5520 0.950 . S
H5494 C5523 0.950 . S
H5495 C5524 0.950 . S
H5496 C5526 0.950 . S
H5497 C5527 0.950 . S
C5498 H5480 0.951 . S
C5498 C5499 1.366 . S
C5498 C5500 1.388 . S
C5499 C5498 1.366 . S
C5499 C5503 1.385 . S
C5500 H5481 0.951 . S
C5500 C5498 1.388 . S
C5500 C5501 1.366 . S
C5501 C5500 1.366 . S
C5501 C5502 1.414 . S
C5501 C5504 1.499 . S
C5502 H5482 0.950 . S
C5502 C5501 1.414 . S
C5502 C5503 1.374 . S
C5503 H5483 0.950 . S
C5503 C5499 1.385 . S
C5503 C5502 1.374 . S
C5504 C5501 1.499 . S
C5504 C5505 1.373 . S
C5504 C5506 1.389 . S
C5505 H5484 0.950 . S
C5505 C5504 1.373 . S
C5505 C5521 1.377 1_556 S
C5506 C5504 1.389 . S
C5506 C5507 1.524 . S
C5506 C5520 1.377 1_556 S
C5507 C5506 1.524 . S
C5507 C5508 1.397 . S
C5507 C5512 1.363 . S
C5508 H5485 0.950 . S
C5508 C5507 1.397 . S
C5508 C5509 1.334 . S
C5509 H5486 0.950 . S
C5509 C5508 1.334 . S
C5509 C5510 1.287 . S
C5510 C5509 1.287 . S
C5510 C5511 1.524 . S
C5510 H5529 0.913 . S
C5511 H5487 0.950 . S
C5511 C5510 1.524 . S
C5511 C5512 1.415 . S
C5512 H5488 0.950 . S
C5512 C5507 1.363 . S
C5512 C5511 1.415 . S
C5513 H5489 0.951 . S
C5513 C5514 1.366 . S
C5513 C5515 1.388 . S
C5514 C5513 1.366 . S
C5514 C5518 1.385 . S
C5515 H5490 0.951 . S
C5515 C5513 1.388 . S
C5515 C5516 1.366 . S
C5516 C5515 1.366 . S
C5516 C5517 1.414 . S
C5516 C5519 1.499 . S
C5517 H5491 0.950 . S
C5517 C5516 1.414 . S
C5517 C5518 1.374 . S
C5518 H5492 0.950 . S
C5518 C5514 1.385 . S
C5518 C5517 1.374 . S
C5519 C5516 1.499 . S
C5519 C5520 1.373 . S
C5519 C5521 1.389 . S
C5520 H5493 0.950 . S
C5520 C5506 1.377 1_554 S
C5520 C5519 1.373 . S
C5521 C5505 1.377 1_554 S
C5521 C5519 1.389 . S
C5521 C5522 1.524 . S
C5522 C5521 1.524 . S
C5522 C5523 1.397 . S
C5522 C5527 1.363 . S
C5523 H5494 0.950 . S
C5523 C5522 1.397 . S
C5523 C5524 1.334 . S
C5524 H5495 0.950 . S
C5524 C5523 1.334 . S
C5524 C5525 1.287 . S
C5525 C5524 1.287 . S
C5525 C5526 1.524 . S
C5525 H5528 0.999 . S
C5526 H5496 0.950 . S
C5526 C5525 1.524 . S
C5526 C5527 1.415 . S
C5527 H5497 0.950 . S
C5527 C5522 1.363 . S
C5527 C5526 1.415 . S
H5528 C5525 0.999 . S
H5529 C5510 0.913 . S
H5530 C5548 0.946 1_455 S
H5531 C5550 0.951 . S
H5532 C5552 0.950 . S
H5533 C5553 0.950 . S
H5534 C5555 0.950 . S
H5535 C5558 0.950 . S
H5536 C5559 0.950 . S
H5537 C5561 0.950 . S
H5538 C5562 0.950 . S
H5539 C5563 0.945 1_655 S
H5540 C5565 0.951 . S
H5541 C5567 0.950 . S
H5542 C5568 0.950 . S
H5543 C5570 0.950 . S
H5544 C5573 0.950 . S
H5545 C5574 0.950 . S
H5546 C5576 0.950 . S
H5547 C5577 0.950 . S
C5548 H5530 0.946 1_655 S
C5548 C5549 1.374 . S
C5548 C5550 1.385 1_655 S
C5549 C5548 1.374 . S
C5549 C5553 1.385 . S
C5550 H5531 0.951 . S
C5550 C5548 1.385 1_455 S
C5550 C5551 1.366 1_455 S
C5551 C5550 1.366 1_655 S
C5551 C5552 1.414 . S
C5551 C5554 1.499 . S
C5552 H5532 0.950 . S
C5552 C5551 1.414 . S
C5552 C5553 1.374 . S
C5553 H5533 0.950 . S
C5553 C5549 1.385 . S
C5553 C5552 1.374 . S
C5554 C5551 1.499 . S
C5554 C5555 1.373 . S
C5554 C5556 1.389 1_655 S
C5555 H5534 0.950 . S
C5555 C5554 1.373 . S
C5555 C5571 1.377 . S
C5556 C5554 1.389 1_455 S
C5556 C5557 1.524 . S
C5556 C5570 1.377 . S
C5557 C5556 1.524 . S
C5557 C5558 1.397 . S
C5557 C5562 1.363 . S
C5558 H5535 0.950 . S
C5558 C5557 1.397 . S
C5558 C5559 1.334 . S
C5559 H5536 0.950 . S
C5559 C5558 1.334 . S
C5559 C5560 1.287 . S
C5560 C5559 1.287 . S
C5560 C5561 1.524 . S
C5560 H5579 0.913 . S
C5561 H5537 0.950 . S
C5561 C5560 1.524 . S
C5561 C5562 1.415 . S
C5562 H5538 0.950 . S
C5562 C5557 1.363 . S
C5562 C5561 1.415 . S
C5563 H5539 0.945 1_455 S
C5563 C5564 1.374 . S
C5563 C5565 1.385 1_455 S
C5564 C5563 1.374 . S
C5564 C5568 1.385 . S
C5565 H5540 0.951 . S
C5565 C5563 1.385 1_655 S
C5565 C5566 1.366 1_655 S
C5566 C5565 1.366 1_455 S
C5566 C5567 1.414 . S
C5566 C5569 1.499 . S
C5567 H5541 0.950 . S
C5567 C5566 1.414 . S
C5567 C5568 1.374 . S
C5568 H5542 0.950 . S
C5568 C5564 1.385 . S
C5568 C5567 1.374 . S
C5569 C5566 1.499 . S
C5569 C5570 1.373 . S
C5569 C5571 1.389 1_455 S
C5570 H5543 0.950 . S
C5570 C5556 1.377 . S
C5570 C5569 1.373 . S
C5571 C5555 1.377 . S
C5571 C5569 1.389 1_655 S
C5571 C5572 1.524 . S
C5572 C5571 1.524 . S
C5572 C5573 1.397 . S
C5572 C5577 1.363 . S
C5573 H5544 0.950 . S
C5573 C5572 1.397 . S
C5573 C5574 1.334 . S
C5574 H5545 0.950 . S
C5574 C5573 1.334 . S
C5574 C5575 1.287 . S
C5575 C5574 1.287 . S
C5575 C5576 1.524 . S
C5575 H5578 0.999 . S
C5576 H5546 0.950 . S
C5576 C5575 1.524 . S
C5576 C5577 1.415 . S
C5577 H5547 0.950 . S
C5577 C5572 1.363 . S
C5577 C5576 1.415 . S
H5578 C5575 0.999 . S
H5579 C5560 0.913 . S
H5580 C5598 0.951 . S
H5581 C5600 0.951 . S
H5582 C5602 0.950 . S
H5583 C5603 0.950 . S
H5584 C5605 0.950 . S
H5585 C5608 0.950 . S
H5586 C5609 0.950 . S
H5587 C5611 0.950 . S
H5588 C5612 0.950 . S
H5589 C5613 0.951 . S
H5590 C5615 0.951 . S
H5591 C5617 0.950 . S
H5592 C5618 0.950 . S
H5593 C5620 0.950 . S
H5594 C5623 0.950 . S
H5595 C5624 0.950 . S
H5596 C5626 0.950 . S
H5597 C5627 0.950 . S
C5598 H5580 0.951 . S
C5598 C5599 1.366 . S
C5598 C5600 1.388 . S
C5599 C5598 1.366 . S
C5599 C5603 1.385 . S
C5600 H5581 0.951 . S
C5600 C5598 1.388 . S
C5600 C5601 1.366 . S
C5601 C5600 1.366 . S
C5601 C5602 1.414 . S
C5601 C5604 1.499 . S
C5602 H5582 0.950 . S
C5602 C5601 1.414 . S
C5602 C5603 1.374 . S
C5603 H5583 0.950 . S
C5603 C5599 1.385 . S
C5603 C5602 1.374 . S
C5604 C5601 1.499 . S
C5604 C5605 1.373 . S
C5604 C5606 1.389 . S
C5605 H5584 0.950 . S
C5605 C5604 1.373 . S
C5605 C5621 1.377 . S
C5606 C5604 1.389 . S
C5606 C5607 1.524 . S
C5606 C5620 1.377 . S
C5607 C5606 1.524 . S
C5607 C5608 1.397 . S
C5607 C5612 1.363 . S
C5608 H5585 0.950 . S
C5608 C5607 1.397 . S
C5608 C5609 1.334 . S
C5609 H5586 0.950 . S
C5609 C5608 1.334 . S
C5609 C5610 1.287 . S
C5610 C5609 1.287 . S
C5610 C5611 1.524 . S
C5610 H5629 0.913 . S
C5611 H5587 0.950 . S
C5611 C5610 1.524 . S
C5611 C5612 1.415 . S
C5612 H5588 0.950 . S
C5612 C5607 1.363 . S
C5612 C5611 1.415 . S
C5613 H5589 0.951 . S
C5613 C5614 1.366 . S
C5613 C5615 1.388 . S
C5614 C5613 1.366 . S
C5614 C5618 1.385 . S
C5615 H5590 0.951 . S
C5615 C5613 1.388 . S
C5615 C5616 1.366 . S
C5616 C5615 1.366 . S
C5616 C5617 1.414 . S
C5616 C5619 1.499 . S
C5617 H5591 0.950 . S
C5617 C5616 1.414 . S
C5617 C5618 1.374 . S
C5618 H5592 0.950 . S
C5618 C5614 1.385 . S
C5618 C5617 1.374 . S
C5619 C5616 1.499 . S
C5619 C5620 1.373 . S
C5619 C5621 1.389 . S
C5620 H5593 0.950 . S
C5620 C5606 1.377 . S
C5620 C5619 1.373 . S
C5621 C5605 1.377 . S
C5621 C5619 1.389 . S
C5621 C5622 1.524 . S
C5622 C5621 1.524 . S
C5622 C5623 1.397 . S
C5622 C5627 1.363 . S
C5623 H5594 0.950 . S
C5623 C5622 1.397 . S
C5623 C5624 1.334 . S
C5624 H5595 0.950 . S
C5624 C5623 1.334 . S
C5624 C5625 1.287 . S
C5625 C5624 1.287 . S
C5625 C5626 1.524 . S
C5625 H5628 0.999 . S
C5626 H5596 0.950 . S
C5626 C5625 1.524 . S
C5626 C5627 1.415 . S
C5627 H5597 0.950 . S
C5627 C5622 1.363 . S
C5627 C5626 1.415 . S
H5628 C5625 0.999 . S
H5629 C5610 0.913 . S
H5630 C5648 0.951 . S
H5631 C5650 0.951 . S
H5632 C5652 0.950 . S
H5633 C5653 0.950 . S
H5634 C5655 0.950 . S
H5635 C5658 0.950 . S
H5636 C5659 0.950 . S
H5637 C5661 0.950 . S
H5638 C5662 0.950 1_655 S
H5639 C5663 0.951 . S
H5640 C5665 0.951 . S
H5641 C5667 0.950 . S
H5642 C5668 0.950 . S
H5643 C5670 0.950 . S
H5644 C5673 0.950 . S
H5645 C5674 0.950 . S
H5646 C5676 0.950 . S
H5647 C5677 0.950 1_455 S
C5648 H5630 0.951 . S
C5648 C5649 1.366 1_655 S
C5648 C5650 1.388 . S
C5649 C5648 1.366 1_455 S
C5649 C5653 1.385 1_565 S
C5650 H5631 0.951 . S
C5650 C5648 1.388 . S
C5650 C5651 1.366 1_655 S
C5651 C5650 1.366 1_455 S
C5651 C5652 1.414 1_565 S
C5651 C5654 1.502 . S
C5652 H5632 0.950 . S
C5652 C5651 1.414 1_545 S
C5652 C5653 1.374 . S
C5653 H5633 0.950 . S
C5653 C5649 1.385 1_545 S
C5653 C5652 1.374 . S
C5654 C5651 1.502 . S
C5654 C5655 1.334 1_465 S
C5654 C5656 1.427 . S
C5655 H5634 0.950 . S
C5655 C5654 1.334 1_645 S
C5655 C5671 1.377 . S
C5656 C5654 1.427 . S
C5656 C5657 1.524 . S
C5656 C5670 1.377 . S
C5657 C5656 1.524 . S
C5657 C5658 1.397 . S
C5657 C5662 1.363 . S
C5658 H5635 0.950 . S
C5658 C5657 1.397 . S
C5658 C5659 1.334 . S
C5659 H5636 0.950 . S
C5659 C5658 1.334 . S
C5659 C5660 1.287 . S
C5660 C5659 1.287 . S
C5660 C5661 1.524 . S
C5660 H5679 0.913 . S
C5661 H5637 0.950 . S
C5661 C5660 1.524 . S
C5661 C5662 1.415 . S
C5662 H5638 0.950 1_455 S
C5662 C5657 1.363 . S
C5662 C5661 1.415 . S
C5663 H5639 0.951 . S
C5663 C5664 1.366 1_455 S
C5663 C5665 1.388 . S
C5664 C5663 1.366 1_655 S
C5664 C5668 1.385 1_545 S
C5665 H5640 0.951 . S
C5665 C5663 1.388 . S
C5665 C5666 1.366 1_455 S
C5666 C5665 1.366 1_655 S
C5666 C5667 1.414 1_545 S
C5666 C5669 1.502 . S
C5667 H5641 0.950 . S
C5667 C5666 1.414 1_565 S
C5667 C5668 1.374 . S
C5668 H5642 0.950 . S
C5668 C5664 1.385 1_565 S
C5668 C5667 1.374 . S
C5669 C5666 1.502 . S
C5669 C5670 1.334 1_645 S
C5669 C5671 1.427 . S
C5670 H5643 0.950 . S
C5670 C5656 1.377 . S
C5670 C5669 1.334 1_465 S
C5671 C5655 1.377 . S
C5671 C5669 1.427 . S
C5671 C5672 1.524 . S
C5672 C5671 1.524 . S
C5672 C5673 1.397 . S
C5672 C5677 1.363 . S
C5673 H5644 0.950 . S
C5673 C5672 1.397 . S
C5673 C5674 1.334 . S
C5674 H5645 0.950 . S
C5674 C5673 1.334 . S
C5674 C5675 1.287 . S
C5675 C5674 1.287 . S
C5675 C5676 1.524 . S
C5675 H5678 0.999 . S
C5676 H5646 0.950 . S
C5676 C5675 1.524 . S
C5676 C5677 1.415 . S
C5677 H5647 0.950 1_655 S
C5677 C5672 1.363 . S
C5677 C5676 1.415 . S
H5678 C5675 0.999 . S
H5679 C5660 0.913 . S
H5680 C5698 0.951 . S
H5681 C5700 0.951 . S
H5682 C5702 0.950 . S
H5683 C5703 0.950 . S
H5684 C5705 0.950 . S
H5685 C5708 0.950 . S
H5686 C5709 0.950 . S
H5687 C5711 0.950 . S
H5688 C5712 0.950 . S
H5689 C5713 0.951 . S
H5690 C5715 0.951 . S
H5691 C5717 0.950 . S
H5692 C5718 0.950 . S
H5693 C5720 0.950 . S
H5694 C5723 0.950 . S
H5695 C5724 0.950 . S
H5696 C5726 0.950 . S
H5697 C5727 0.950 . S
C5698 H5680 0.951 . S
C5698 C5699 1.366 . S
C5698 C5700 1.388 . S
C5699 C5698 1.366 . S
C5699 C5703 1.385 . S
C5700 H5681 0.951 . S
C5700 C5698 1.388 . S
C5700 C5701 1.366 . S
C5701 C5700 1.366 . S
C5701 C5702 1.414 . S
C5701 C5704 1.499 . S
C5702 H5682 0.950 . S
C5702 C5701 1.414 . S
C5702 C5703 1.374 . S
C5703 H5683 0.950 . S
C5703 C5699 1.385 . S
C5703 C5702 1.374 . S
C5704 C5701 1.499 . S
C5704 C5705 1.373 . S
C5704 C5706 1.389 . S
C5705 H5684 0.950 . S
C5705 C5704 1.373 . S
C5705 C5721 1.377 . S
C5706 C5704 1.389 . S
C5706 C5707 1.524 . S
C5706 C5720 1.377 . S
C5707 C5706 1.524 . S
C5707 C5708 1.397 . S
C5707 C5712 1.363 . S
C5708 H5685 0.950 . S
C5708 C5707 1.397 . S
C5708 C5709 1.334 . S
C5709 H5686 0.950 . S
C5709 C5708 1.334 . S
C5709 C5710 1.287 . S
C5710 C5709 1.287 . S
C5710 C5711 1.524 . S
C5710 H5729 0.913 . S
C5711 H5687 0.950 . S
C5711 C5710 1.524 . S
C5711 C5712 1.415 . S
C5712 H5688 0.950 . S
C5712 C5707 1.363 . S
C5712 C5711 1.415 . S
C5713 H5689 0.951 . S
C5713 C5714 1.366 . S
C5713 C5715 1.388 . S
C5714 C5713 1.366 . S
C5714 C5718 1.385 . S
C5715 H5690 0.951 . S
C5715 C5713 1.388 . S
C5715 C5716 1.366 . S
C5716 C5715 1.366 . S
C5716 C5717 1.414 . S
C5716 C5719 1.499 . S
C5717 H5691 0.950 . S
C5717 C5716 1.414 . S
C5717 C5718 1.374 . S
C5718 H5692 0.950 . S
C5718 C5714 1.385 . S
C5718 C5717 1.374 . S
C5719 C5716 1.499 . S
C5719 C5720 1.373 . S
C5719 C5721 1.389 . S
C5720 H5693 0.950 . S
C5720 C5706 1.377 . S
C5720 C5719 1.373 . S
C5721 C5705 1.377 . S
C5721 C5719 1.389 . S
C5721 C5722 1.524 . S
C5722 C5721 1.524 . S
C5722 C5723 1.397 . S
C5722 C5727 1.363 . S
C5723 H5694 0.950 . S
C5723 C5722 1.397 . S
C5723 C5724 1.334 . S
C5724 H5695 0.950 . S
C5724 C5723 1.334 . S
C5724 C5725 1.287 . S
C5725 C5724 1.287 . S
C5725 C5726 1.524 . S
C5725 H5728 0.999 . S
C5726 H5696 0.950 . S
C5726 C5725 1.524 . S
C5726 C5727 1.415 . S
C5727 H5697 0.950 . S
C5727 C5722 1.363 . S
C5727 C5726 1.415 . S
H5728 C5725 0.999 . S
H5729 C5710 0.913 . S
H5730 C5748 0.951 . S
H5731 C5750 0.951 . S
H5732 C5752 0.950 . S
H5733 C5753 0.950 . S
H5734 C5755 0.950 . S
H5735 C5758 0.950 . S
H5736 C5759 0.950 . S
H5737 C5761 0.950 . S
H5738 C5762 0.950 . S
H5739 C5763 0.951 . S
H5740 C5765 0.951 . S
H5741 C5767 0.950 . S
H5742 C5768 0.950 . S
H5743 C5770 0.950 . S
H5744 C5773 0.950 . S
H5745 C5774 0.950 . S
H5746 C5776 0.950 . S
H5747 C5777 0.950 . S
C5748 H5730 0.951 . S
C5748 C5749 1.366 . S
C5748 C5750 1.388 . S
C5749 C5748 1.366 . S
C5749 C5753 1.385 . S
C5750 H5731 0.951 . S
C5750 C5748 1.388 . S
C5750 C5751 1.368 . S
C5751 C5750 1.368 . S
C5751 C5752 1.416 . S
C5751 C5754 1.497 1_545 S
C5752 H5732 0.950 . S
C5752 C5751 1.416 . S
C5752 C5753 1.374 . S
C5753 H5733 0.950 . S
C5753 C5749 1.385 . S
C5753 C5752 1.374 . S
C5754 C5751 1.497 1_565 S
C5754 C5755 1.364 1_565 S
C5754 C5756 1.399 . S
C5755 H5734 0.950 . S
C5755 C5754 1.364 1_545 S
C5755 C5771 1.377 . S
C5756 C5754 1.399 . S
C5756 C5757 1.524 . S
C5756 C5770 1.377 . S
C5757 C5756 1.524 . S
C5757 C5758 1.397 . S
C5757 C5762 1.363 . S
C5758 H5735 0.950 . S
C5758 C5757 1.397 . S
C5758 C5759 1.334 . S
C5759 H5736 0.950 . S
C5759 C5758 1.334 . S
C5759 C5760 1.287 . S
C5760 C5759 1.287 . S
C5760 C5761 1.524 . S
C5760 H5779 0.913 . S
C5761 H5737 0.950 . S
C5761 C5760 1.524 . S
C5761 C5762 1.415 . S
C5762 H5738 0.950 . S
C5762 C5757 1.363 . S
C5762 C5761 1.415 . S
C5763 H5739 0.951 . S
C5763 C5764 1.366 . S
C5763 C5765 1.388 . S
C5764 C5763 1.366 . S
C5764 C5768 1.385 . S
C5765 H5740 0.951 . S
C5765 C5763 1.388 . S
C5765 C5766 1.368 . S
C5766 C5765 1.368 . S
C5766 C5767 1.416 . S
C5766 C5769 1.497 1_565 S
C5767 H5741 0.950 . S
C5767 C5766 1.416 . S
C5767 C5768 1.374 . S
C5768 H5742 0.950 . S
C5768 C5764 1.385 . S
C5768 C5767 1.374 . S
C5769 C5766 1.497 1_545 S
C5769 C5770 1.364 1_545 S
C5769 C5771 1.399 . S
C5770 H5743 0.950 . S
C5770 C5756 1.377 . S
C5770 C5769 1.364 1_565 S
C5771 C5755 1.377 . S
C5771 C5769 1.399 . S
C5771 C5772 1.524 . S
C5772 C5771 1.524 . S
C5772 C5773 1.397 . S
C5772 C5777 1.363 . S
C5773 H5744 0.950 . S
C5773 C5772 1.397 . S
C5773 C5774 1.334 . S
C5774 H5745 0.950 . S
C5774 C5773 1.334 . S
C5774 C5775 1.287 . S
C5775 C5774 1.287 . S
C5775 C5776 1.524 . S
C5775 H5778 0.999 . S
C5776 H5746 0.950 . S
C5776 C5775 1.524 . S
C5776 C5777 1.415 . S
C5777 H5747 0.950 . S
C5777 C5772 1.363 . S
C5777 C5776 1.415 . S
H5778 C5775 0.999 . S
H5779 C5760 0.913 . S
H5780 C5798 0.951 . S
H5781 C5800 0.951 . S
H5782 C5802 0.950 . S
H5783 C5803 0.950 . S
H5784 C5805 0.950 . S
H5785 C5808 0.950 . S
H5786 C5809 0.950 . S
H5787 C5811 0.950 . S
H5788 C5812 0.950 . S
H5789 C5813 0.951 . S
H5790 C5815 0.951 . S
H5791 C5817 0.950 . S
H5792 C5818 0.950 . S
H5793 C5820 0.950 . S
H5794 C5823 0.950 . S
H5795 C5824 0.950 . S
H5796 C5826 0.950 . S
H5797 C5827 0.950 . S
C5798 H5780 0.951 . S
C5798 C5799 1.366 . S
C5798 C5800 1.388 . S
C5799 C5798 1.366 . S
C5799 C5803 1.385 . S
C5800 H5781 0.951 . S
C5800 C5798 1.388 . S
C5800 C5801 1.366 . S
C5801 C5800 1.366 . S
C5801 C5802 1.414 . S
C5801 C5804 1.499 . S
C5802 H5782 0.950 . S
C5802 C5801 1.414 . S
C5802 C5803 1.374 . S
C5803 H5783 0.950 . S
C5803 C5799 1.385 . S
C5803 C5802 1.374 . S
C5804 C5801 1.499 . S
C5804 C5805 1.373 . S
C5804 C5806 1.389 . S
C5805 H5784 0.950 . S
C5805 C5804 1.373 . S
C5805 C5821 1.377 . S
C5806 C5804 1.389 . S
C5806 C5807 1.524 . S
C5806 C5820 1.377 . S
C5807 C5806 1.524 . S
C5807 C5808 1.397 . S
C5807 C5812 1.363 . S
C5808 H5785 0.950 . S
C5808 C5807 1.397 . S
C5808 C5809 1.334 . S
C5809 H5786 0.950 . S
C5809 C5808 1.334 . S
C5809 C5810 1.287 . S
C5810 C5809 1.287 . S
C5810 C5811 1.524 . S
C5810 H5829 0.913 . S
C5811 H5787 0.950 . S
C5811 C5810 1.524 . S
C5811 C5812 1.415 . S
C5812 H5788 0.950 . S
C5812 C5807 1.363 . S
C5812 C5811 1.415 . S
C5813 H5789 0.951 . S
C5813 C5814 1.366 . S
C5813 C5815 1.388 . S
C5814 C5813 1.366 . S
C5814 C5818 1.385 . S
C5815 H5790 0.951 . S
C5815 C5813 1.388 . S
C5815 C5816 1.366 . S
C5816 C5815 1.366 . S
C5816 C5817 1.414 . S
C5816 C5819 1.499 . S
C5817 H5791 0.950 . S
C5817 C5816 1.414 . S
C5817 C5818 1.374 . S
C5818 H5792 0.950 . S
C5818 C5814 1.385 . S
C5818 C5817 1.374 . S
C5819 C5816 1.499 . S
C5819 C5820 1.373 . S
C5819 C5821 1.389 . S
C5820 H5793 0.950 . S
C5820 C5806 1.377 . S
C5820 C5819 1.373 . S
C5821 C5805 1.377 . S
C5821 C5819 1.389 . S
C5821 C5822 1.524 . S
C5822 C5821 1.524 . S
C5822 C5823 1.397 . S
C5822 C5827 1.363 . S
C5823 H5794 0.950 . S
C5823 C5822 1.397 . S
C5823 C5824 1.334 . S
C5824 H5795 0.950 . S
C5824 C5823 1.334 . S
C5824 C5825 1.287 . S
C5825 C5824 1.287 . S
C5825 C5826 1.524 . S
C5825 H5828 0.999 . S
C5826 H5796 0.950 . S
C5826 C5825 1.524 . S
C5826 C5827 1.415 . S
C5827 H5797 0.950 . S
C5827 C5822 1.363 . S
C5827 C5826 1.415 . S
H5828 C5825 0.999 . S
H5829 C5810 0.913 . S
H5830 C5848 0.951 . S
H5831 C5850 0.951 . S
H5832 C5852 0.950 . S
H5833 C5853 0.950 . S
H5834 C5855 0.950 . S
H5835 C5858 0.950 . S
H5836 C5859 0.950 . S
H5837 C5861 0.950 . S
H5838 C5862 0.950 . S
H5839 C5863 0.951 . S
H5840 C5865 0.951 . S
H5841 C5867 0.950 . S
H5842 C5868 0.950 . S
H5843 C5870 0.950 . S
H5844 C5873 0.950 . S
H5845 C5874 0.950 . S
H5846 C5876 0.950 . S
H5847 C5877 0.950 . S
C5848 H5830 0.951 . S
C5848 C5849 1.366 . S
C5848 C5850 1.388 . S
C5849 C5848 1.366 . S
C5849 C5853 1.385 1_565 S
C5850 H5831 0.951 . S
C5850 C5848 1.388 . S
C5850 C5851 1.366 . S
C5851 C5850 1.366 . S
C5851 C5852 1.414 1_565 S
C5851 C5854 1.502 . S
C5852 H5832 0.950 . S
C5852 C5851 1.414 1_545 S
C5852 C5853 1.374 . S
C5853 H5833 0.950 . S
C5853 C5849 1.385 1_545 S
C5853 C5852 1.374 . S
C5854 C5851 1.502 . S
C5854 C5855 1.335 1_565 S
C5854 C5856 1.426 . S
C5855 H5834 0.950 . S
C5855 C5854 1.335 1_545 S
C5855 C5871 1.377 . S
C5856 C5854 1.426 . S
C5856 C5857 1.524 . S
C5856 C5870 1.377 . S
C5857 C5856 1.524 . S
C5857 C5858 1.397 . S
C5857 C5862 1.363 . S
C5858 H5835 0.950 . S
C5858 C5857 1.397 . S
C5858 C5859 1.334 . S
C5859 H5836 0.950 . S
C5859 C5858 1.334 . S
C5859 C5860 1.287 . S
C5860 C5859 1.287 . S
C5860 C5861 1.524 . S
C5860 H5879 0.913 . S
C5861 H5837 0.950 . S
C5861 C5860 1.524 . S
C5861 C5862 1.415 . S
C5862 H5838 0.950 . S
C5862 C5857 1.363 . S
C5862 C5861 1.415 . S
C5863 H5839 0.951 . S
C5863 C5864 1.366 . S
C5863 C5865 1.388 . S
C5864 C5863 1.366 . S
C5864 C5868 1.385 1_545 S
C5865 H5840 0.951 . S
C5865 C5863 1.388 . S
C5865 C5866 1.366 . S
C5866 C5865 1.366 . S
C5866 C5867 1.414 1_545 S
C5866 C5869 1.502 . S
C5867 H5841 0.950 . S
C5867 C5866 1.414 1_565 S
C5867 C5868 1.374 . S
C5868 H5842 0.950 . S
C5868 C5864 1.385 1_565 S
C5868 C5867 1.374 . S
C5869 C5866 1.502 . S
C5869 C5870 1.335 1_545 S
C5869 C5871 1.426 . S
C5870 H5843 0.950 . S
C5870 C5856 1.377 . S
C5870 C5869 1.335 1_565 S
C5871 C5855 1.377 . S
C5871 C5869 1.426 . S
C5871 C5872 1.524 . S
C5872 C5871 1.524 . S
C5872 C5873 1.397 . S
C5872 C5877 1.363 . S
C5873 H5844 0.950 . S
C5873 C5872 1.397 . S
C5873 C5874 1.334 . S
C5874 H5845 0.950 . S
C5874 C5873 1.334 . S
C5874 C5875 1.287 . S
C5875 C5874 1.287 . S
C5875 C5876 1.524 . S
C5875 H5878 0.999 . S
C5876 H5846 0.950 . S
C5876 C5875 1.524 . S
C5876 C5877 1.415 . S
C5877 H5847 0.950 . S
C5877 C5872 1.363 . S
C5877 C5876 1.415 . S
H5878 C5875 0.999 . S
H5879 C5860 0.913 . S
H5880 C5898 0.951 . S
H5881 C5900 0.951 . S
H5882 C5902 0.950 . S
H5883 C5903 0.950 . S
H5884 C5905 0.950 . S
H5885 C5908 0.950 . S
H5886 C5909 0.950 . S
H5887 C5911 0.950 . S
H5888 C5912 0.950 . S
H5889 C5913 0.951 . S
H5890 C5915 0.951 . S
H5891 C5917 0.950 . S
H5892 C5918 0.950 . S
H5893 C5920 0.950 . S
H5894 C5923 0.950 . S
H5895 C5924 0.950 . S
H5896 C5926 0.950 . S
H5897 C5927 0.950 . S
C5898 H5880 0.951 . S
C5898 C5899 1.366 . S
C5898 C5900 1.388 . S
C5899 C5898 1.366 . S
C5899 C5903 1.385 . S
C5900 H5881 0.951 . S
C5900 C5898 1.388 . S
C5900 C5901 1.366 . S
C5901 C5900 1.366 . S
C5901 C5902 1.414 . S
C5901 C5904 1.499 . S
C5902 H5882 0.950 . S
C5902 C5901 1.414 . S
C5902 C5903 1.374 . S
C5903 H5883 0.950 . S
C5903 C5899 1.385 . S
C5903 C5902 1.374 . S
C5904 C5901 1.499 . S
C5904 C5905 1.373 . S
C5904 C5906 1.389 . S
C5905 H5884 0.950 . S
C5905 C5904 1.373 . S
C5905 C5921 1.377 . S
C5906 C5904 1.389 . S
C5906 C5907 1.524 . S
C5906 C5920 1.377 . S
C5907 C5906 1.524 . S
C5907 C5908 1.397 . S
C5907 C5912 1.363 . S
C5908 H5885 0.950 . S
C5908 C5907 1.397 . S
C5908 C5909 1.334 . S
C5909 H5886 0.950 . S
C5909 C5908 1.334 . S
C5909 C5910 1.287 . S
C5910 C5909 1.287 . S
C5910 C5911 1.524 . S
C5910 H5929 0.913 . S
C5911 H5887 0.950 . S
C5911 C5910 1.524 . S
C5911 C5912 1.415 . S
C5912 H5888 0.950 . S
C5912 C5907 1.363 . S
C5912 C5911 1.415 . S
C5913 H5889 0.951 . S
C5913 C5914 1.366 . S
C5913 C5915 1.388 . S
C5914 C5913 1.366 . S
C5914 C5918 1.385 . S
C5915 H5890 0.951 . S
C5915 C5913 1.388 . S
C5915 C5916 1.366 . S
C5916 C5915 1.366 . S
C5916 C5917 1.414 . S
C5916 C5919 1.499 . S
C5917 H5891 0.950 . S
C5917 C5916 1.414 . S
C5917 C5918 1.374 . S
C5918 H5892 0.950 . S
C5918 C5914 1.385 . S
C5918 C5917 1.374 . S
C5919 C5916 1.499 . S
C5919 C5920 1.373 . S
C5919 C5921 1.389 . S
C5920 H5893 0.950 . S
C5920 C5906 1.377 . S
C5920 C5919 1.373 . S
C5921 C5905 1.377 . S
C5921 C5919 1.389 . S
C5921 C5922 1.524 . S
C5922 C5921 1.524 . S
C5922 C5923 1.397 . S
C5922 C5927 1.363 . S
C5923 H5894 0.950 . S
C5923 C5922 1.397 . S
C5923 C5924 1.334 . S
C5924 H5895 0.950 . S
C5924 C5923 1.334 . S
C5924 C5925 1.287 . S
C5925 C5924 1.287 . S
C5925 C5926 1.524 . S
C5925 H5928 0.999 . S
C5926 H5896 0.950 . S
C5926 C5925 1.524 . S
C5926 C5927 1.415 . S
C5927 H5897 0.950 . S
C5927 C5922 1.363 . S
C5927 C5926 1.415 . S
H5928 C5925 0.999 . S
H5929 C5910 0.913 . S
H5930 C5948 0.951 . S
H5931 C5950 0.951 . S
H5932 C5952 0.950 . S
H5933 C5953 0.950 . S
H5934 C5955 0.950 . S
H5935 C5958 0.950 . S
H5936 C5959 0.950 . S
H5937 C5961 0.950 . S
H5938 C5962 0.950 . S
H5939 C5963 0.951 . S
H5940 C5965 0.951 . S
H5941 C5967 0.950 . S
H5942 C5968 0.950 . S
H5943 C5970 0.950 . S
H5944 C5973 0.950 . S
H5945 C5974 0.950 . S
H5946 C5976 0.950 . S
H5947 C5977 0.950 . S
C5948 H5930 0.951 . S
C5948 C5949 1.366 . S
C5948 C5950 1.388 . S
C5949 C5948 1.366 . S
C5949 C5953 1.385 . S
C5950 H5931 0.951 . S
C5950 C5948 1.388 . S
C5950 C5951 1.366 . S
C5951 C5950 1.366 . S
C5951 C5952 1.414 . S
C5951 C5954 1.499 . S
C5952 H5932 0.950 . S
C5952 C5951 1.414 . S
C5952 C5953 1.374 . S
C5953 H5933 0.950 . S
C5953 C5949 1.385 . S
C5953 C5952 1.374 . S
C5954 C5951 1.499 . S
C5954 C5955 1.373 . S
C5954 C5956 1.389 . S
C5955 H5934 0.950 . S
C5955 C5954 1.373 . S
C5955 C5971 1.377 . S
C5956 C5954 1.389 . S
C5956 C5957 1.524 . S
C5956 C5970 1.377 . S
C5957 C5956 1.524 . S
C5957 C5958 1.397 . S
C5957 C5962 1.363 . S
C5958 H5935 0.950 . S
C5958 C5957 1.397 . S
C5958 C5959 1.334 . S
C5959 H5936 0.950 . S
C5959 C5958 1.334 . S
C5959 C5960 1.287 . S
C5960 C5959 1.287 . S
C5960 C5961 1.524 . S
C5960 H5979 0.913 . S
C5961 H5937 0.950 . S
C5961 C5960 1.524 . S
C5961 C5962 1.415 . S
C5962 H5938 0.950 . S
C5962 C5957 1.363 . S
C5962 C5961 1.415 . S
C5963 H5939 0.951 . S
C5963 C5964 1.366 . S
C5963 C5965 1.388 . S
C5964 C5963 1.366 . S
C5964 C5968 1.385 . S
C5965 H5940 0.951 . S
C5965 C5963 1.388 . S
C5965 C5966 1.366 . S
C5966 C5965 1.366 . S
C5966 C5967 1.414 . S
C5966 C5969 1.499 . S
C5967 H5941 0.950 . S
C5967 C5966 1.414 . S
C5967 C5968 1.374 . S
C5968 H5942 0.950 . S
C5968 C5964 1.385 . S
C5968 C5967 1.374 . S
C5969 C5966 1.499 . S
C5969 C5970 1.373 . S
C5969 C5971 1.389 . S
C5970 H5943 0.950 . S
C5970 C5956 1.377 . S
C5970 C5969 1.373 . S
C5971 C5955 1.377 . S
C5971 C5969 1.389 . S
C5971 C5972 1.524 . S
C5972 C5971 1.524 . S
C5972 C5973 1.397 . S
C5972 C5977 1.363 . S
C5973 H5944 0.950 . S
C5973 C5972 1.397 . S
C5973 C5974 1.334 . S
C5974 H5945 0.950 . S
C5974 C5973 1.334 . S
C5974 C5975 1.287 . S
C5975 C5974 1.287 . S
C5975 C5976 1.524 . S
C5975 H5978 0.999 . S
C5976 H5946 0.950 . S
C5976 C5975 1.524 . S
C5976 C5977 1.415 . S
C5977 H5947 0.950 . S
C5977 C5972 1.363 . S
C5977 C5976 1.415 . S
H5978 C5975 0.999 . S
H5979 C5960 0.913 . S
H5980 C5998 0.951 . S
H5981 C6000 0.951 . S
H5982 C6002 0.950 . S
H5983 C6003 0.950 . S
H5984 C6005 0.950 . S
H5985 C6008 0.950 . S
H5986 C6009 0.950 . S
H5987 C6011 0.950 . S
H5988 C6012 0.950 . S
H5989 C6013 0.951 . S
H5990 C6015 0.951 . S
H5991 C6017 0.950 . S
H5992 C6018 0.950 . S
H5993 C6020 0.950 . S
H5994 C6023 0.950 . S
H5995 C6024 0.950 . S
H5996 C6026 0.950 . S
H5997 C6027 0.950 . S
C5998 H5980 0.951 . S
C5998 C5999 1.366 . S
C5998 C6000 1.388 . S
C5999 C5998 1.366 . S
C5999 C6003 1.385 . S
C6000 H5981 0.951 . S
C6000 C5998 1.388 . S
C6000 C6001 1.366 . S
C6001 C6000 1.366 . S
C6001 C6002 1.414 . S
C6001 C6004 1.499 . S
C6002 H5982 0.950 . S
C6002 C6001 1.414 . S
C6002 C6003 1.374 . S
C6003 H5983 0.950 . S
C6003 C5999 1.385 . S
C6003 C6002 1.374 . S
C6004 C6001 1.499 . S
C6004 C6005 1.373 . S
C6004 C6006 1.389 . S
C6005 H5984 0.950 . S
C6005 C6004 1.373 . S
C6005 C6021 1.377 . S
C6006 C6004 1.389 . S
C6006 C6007 1.524 . S
C6006 C6020 1.377 . S
C6007 C6006 1.524 . S
C6007 C6008 1.397 . S
C6007 C6012 1.363 . S
C6008 H5985 0.950 . S
C6008 C6007 1.397 . S
C6008 C6009 1.334 . S
C6009 H5986 0.950 . S
C6009 C6008 1.334 . S
C6009 C6010 1.287 . S
C6010 C6009 1.287 . S
C6010 C6011 1.524 . S
C6010 H6029 0.913 . S
C6011 H5987 0.950 . S
C6011 C6010 1.524 . S
C6011 C6012 1.415 . S
C6012 H5988 0.950 . S
C6012 C6007 1.363 . S
C6012 C6011 1.415 . S
C6013 H5989 0.951 . S
C6013 C6014 1.366 . S
C6013 C6015 1.388 . S
C6014 C6013 1.366 . S
C6014 C6018 1.385 . S
C6015 H5990 0.951 . S
C6015 C6013 1.388 . S
C6015 C6016 1.366 . S
C6016 C6015 1.366 . S
C6016 C6017 1.414 . S
C6016 C6019 1.499 . S
C6017 H5991 0.950 . S
C6017 C6016 1.414 . S
C6017 C6018 1.374 . S
C6018 H5992 0.950 . S
C6018 C6014 1.385 . S
C6018 C6017 1.374 . S
C6019 C6016 1.499 . S
C6019 C6020 1.373 . S
C6019 C6021 1.389 . S
C6020 H5993 0.950 . S
C6020 C6006 1.377 . S
C6020 C6019 1.373 . S
C6021 C6005 1.377 . S
C6021 C6019 1.389 . S
C6021 C6022 1.524 . S
C6022 C6021 1.524 . S
C6022 C6023 1.397 . S
C6022 C6027 1.363 . S
C6023 H5994 0.950 . S
C6023 C6022 1.397 . S
C6023 C6024 1.334 . S
C6024 H5995 0.950 . S
C6024 C6023 1.334 . S
C6024 C6025 1.287 . S
C6025 C6024 1.287 . S
C6025 C6026 1.524 . S
C6025 H6028 0.999 . S
C6026 H5996 0.950 . S
C6026 C6025 1.524 . S
C6026 C6027 1.415 . S
C6027 H5997 0.950 . S
C6027 C6022 1.363 . S
C6027 C6026 1.415 . S
H6028 C6025 0.999 . S
H6029 C6010 0.913 . S
H6030 C6048 0.951 . S
H6031 C6050 0.951 . S
H6032 C6052 0.950 . S
H6033 C6053 0.950 . S
H6034 C6055 0.950 . S
H6035 C6058 0.950 1_545 S
H6036 C6059 0.950 . S
H6037 C6061 0.950 . S
H6038 C6062 0.966 . S
H6039 C6063 0.951 . S
H6040 C6065 0.951 . S
H6041 C6067 0.950 . S
H6042 C6068 0.950 . S
H6043 C6070 0.950 . S
H6044 C6073 0.950 1_565 S
H6045 C6074 0.950 . S
H6046 C6076 0.950 . S
H6047 C6077 0.966 . S
C6048 H6030 0.951 . S
C6048 C6049 1.366 . S
C6048 C6050 1.388 . S
C6049 C6048 1.366 . S
C6049 C6053 1.385 1_565 S
C6050 H6031 0.951 . S
C6050 C6048 1.388 . S
C6050 C6051 1.366 . S
C6051 C6050 1.366 . S
C6051 C6052 1.414 1_565 S
C6051 C6054 1.499 1_565 S
C6052 H6032 0.950 . S
C6052 C6051 1.414 1_545 S
C6052 C6053 1.374 . S
C6053 H6033 0.950 . S
C6053 C6049 1.385 1_545 S
C6053 C6052 1.374 . S
C6054 C6051 1.499 1_545 S
C6054 C6055 1.371 . S
C6054 C6056 1.392 1_545 S
C6055 H6034 0.950 . S
C6055 C6054 1.371 . S
C6055 C6071 1.377 1_554 S
C6056 C6054 1.392 1_565 S
C6056 C6057 1.524 . S
C6056 C6070 1.377 1_554 S
C6057 C6056 1.524 . S
C6057 C6058 1.397 . S
C6057 C6062 1.363 . S
C6058 H6035 0.950 1_565 S
C6058 C6057 1.397 . S
C6058 C6059 1.334 . S
C6059 H6036 0.950 . S
C6059 C6058 1.334 . S
C6059 C6060 1.287 . S
C6060 C6059 1.287 . S
C6060 C6061 1.524 . S
C6060 H6079 0.913 . S
C6061 H6037 0.950 . S
C6061 C6060 1.524 . S
C6061 C6062 1.415 . S
C6062 H6038 0.966 . S
C6062 C6057 1.363 . S
C6062 C6061 1.415 . S
C6063 H6039 0.951 . S
C6063 C6064 1.366 . S
C6063 C6065 1.388 . S
C6064 C6063 1.366 . S
C6064 C6068 1.385 1_545 S
C6065 H6040 0.951 . S
C6065 C6063 1.388 . S
C6065 C6066 1.366 . S
C6066 C6065 1.366 . S
C6066 C6067 1.414 1_545 S
C6066 C6069 1.499 1_545 S
C6067 H6041 0.950 . S
C6067 C6066 1.414 1_565 S
C6067 C6068 1.374 . S
C6068 H6042 0.950 . S
C6068 C6064 1.385 1_565 S
C6068 C6067 1.374 . S
C6069 C6066 1.499 1_565 S
C6069 C6070 1.371 . S
C6069 C6071 1.392 1_565 S
C6070 H6043 0.950 . S
C6070 C6056 1.377 1_556 S
C6070 C6069 1.371 . S
C6071 C6055 1.377 1_556 S
C6071 C6069 1.392 1_545 S
C6071 C6072 1.524 . S
C6072 C6071 1.524 . S
C6072 C6073 1.397 . S
C6072 C6077 1.363 . S
C6073 H6044 0.950 1_545 S
C6073 C6072 1.397 . S
C6073 C6074 1.334 . S
C6074 H6045 0.950 . S
C6074 C6073 1.334 . S
C6074 C6075 1.287 . S
C6075 C6074 1.287 . S
C6075 C6076 1.524 . S
C6075 H6078 0.999 . S
C6076 H6046 0.950 . S
C6076 C6075 1.524 . S
C6076 C6077 1.415 . S
C6077 H6047 0.966 . S
C6077 C6072 1.363 . S
C6077 C6076 1.415 . S
H6078 C6075 0.999 . S
H6079 C6060 0.913 . S
C1299 C10 1.645 . S
C1314 C1010 1.646 . S
C1349 C970 1.646 . S
C1364 C50 1.646 . S
C1399 C1090 1.646 . S
C1414 C90 1.646 . S
C1449 C130 1.646 . S
C1464 C1050 1.646 . S
C1499 C179 1.645 . S
C1514 C1179 1.646 . S
C1549 C219 1.646 . S
C1564 C1139 1.646 . S
C1599 C259 1.646 . S
C1614 C1259 1.646 . S
C1649 C1219 1.645 . S
C1664 C299 1.646 . S
C1699 C330 1.646 . S
C1714 C690 1.646 . S
C1749 C370 1.646 . S
C1764 C650 1.646 . S
C1799 C410 1.646 . S
C1814 C770 1.646 . S
C1849 C730 1.646 . S
C1864 C450 1.646 . S
C1899 C499 1.646 . S
C1914 C859 1.646 . S
C1949 C539 1.646 . S
C1964 C819 1.646 . S
C1999 C939 1.646 . S
C2014 C579 1.646 . S
C2049 C619 1.646 . S
C2064 C899 1.646 . S
C2099 C9 1.579 . S
C2114 C129 1.579 . S
C2149 C49 1.579 . S
C2164 C89 1.579 . S
C2199 C298 1.579 . S
C2214 C178 1.579 . S
C2249 C258 1.579 . S
C2264 C218 1.579 . S
C2299 C329 1.579 . S
C2314 C449 1.579 . S
C2349 C369 1.579 . S
C2364 C409 1.579 . S
C2399 C498 1.579 . S
C2414 C618 1.579 . S
C2449 C578 1.579 . S
C2464 C538 1.579 . S
C2499 C649 1.579 . S
C2514 C769 1.579 . S
C2549 C689 1.579 . S
C2564 C729 1.579 . S
C2599 C938 1.579 . S
C2614 C818 1.579 . S
C2649 C858 1.579 . S
C2664 C898 1.579 . S
C2699 C1089 1.579 . S
C2714 C969 1.579 . S
C2749 C1009 1.579 . S
C2764 C1049 1.580 . S
C2799 C1258 1.579 . S
C2814 C1138 1.579 . S
C2849 C1218 1.579 . S
C2864 C1178 1.579 . S
C2899 C59 1.494 . S
C2914 C19 1.494 . S
C2949 C99 1.494 . S
C2964 C139 1.494 . S
C2999 C210 1.494 . S
C3014 C170 1.494 . S
C3049 C290 1.494 . S
C3064 C250 1.494 . S
C3099 C339 1.494 . S
C3114 C379 1.494 . S
C3149 C419 1.494 . S
C3164 C459 1.494 . S
C3199 C530 1.493 . S
C3214 C490 1.493 . S
C3249 C570 1.494 . S
C3264 C610 1.494 . S
C3299 C659 1.494 . S
C3314 C699 1.494 . S
C3349 C779 1.494 . S
C3364 C739 1.494 . S
C3399 C810 1.494 . S
C3414 C850 1.494 . S
C3449 C890 1.494 . S
C3464 C930 1.493 . S
C3499 C979 1.493 . S
C3514 C1019 1.494 . S
C3549 C1059 1.494 . S
C3564 C1099 1.494 . S
C3599 C1170 1.494 . S
C3614 C1130 1.493 . S
C3649 C1210 1.493 . S
C3664 C1250 1.494 . S
C3699 C6 1.758 . S
C3714 C15 1.758 . S
C3749 C46 1.758 . S
C3764 C55 1.758 . S
C3799 C86 1.758 . S
C3814 C95 1.758 . S
C3849 C135 1.758 . S
C3864 C126 1.758 . S
C3899 C166 1.758 . S
C3914 C175 1.758 . S
C3949 C215 1.757 . S
C3964 C206 1.757 . S
C3999 C246 1.758 . S
C4014 C255 1.758 . S
C4049 C286 1.758 . S
C4064 C295 1.758 . S
C4099 C335 1.758 . S
C4114 C326 1.758 . S
C4149 C366 1.757 . S
C4164 C375 1.757 . S
C4199 C406 1.758 . S
C4214 C415 1.758 . S
C4249 C455 1.757 . S
C4264 C446 1.757 . S
C4299 C486 1.758 . S
C4314 C495 1.758 . S
C4349 C535 1.758 . S
C4364 C526 1.758 . S
C4399 C575 1.757 . S
C4414 C566 1.757 . S
C4449 C606 1.758 . S
C4464 C615 1.758 . S
C4499 C646 1.758 . S
C4514 C655 1.758 . S
C4549 C695 1.758 . S
C4564 C686 1.758 1_455 S
C4599 C735 1.757 . S
C4614 C726 1.757 . S
C4649 C766 1.757 1_455 S
C4664 C775 1.757 . S
C4699 C815 1.758 . S
C4714 C806 1.758 . S
C4749 C855 1.757 1_655 S
C4764 C846 1.757 . S
C4799 C886 1.758 . S
C4814 C895 1.758 . S
C4849 C935 1.758 1_655 S
C4864 C926 1.758 . S
C4899 C975 1.758 . S
C4914 C966 1.758 . S
C4949 C1006 1.758 1_455 S
C4964 C1015 1.758 . S
C4999 C1055 1.757 . S
C5014 C1046 1.757 . S
C5049 C1095 1.758 . S
C5064 C1086 1.758 1_455 S
C5099 C1135 1.758 . S
C5114 C1126 1.758 . S
C5149 C1175 1.758 1_655 S
C5164 C1166 1.758 . S
C5199 C1206 1.757 . S
C5214 C1215 1.757 . S
C5249 C1246 1.757 . S
C5264 C1255 1.757 1_655 S
C5299 C18 1.478 . S
C5314 C169 1.478 . S
C5349 C1169 1.478 . S
C5364 C58 1.478 . S
C5399 C569 1.479 . S
C5414 C98 1.479 . S
C5449 C138 1.478 . S
C5464 C929 1.478 . S
C5499 C209 1.479 . S
C5514 C1018 1.479 . S
C5549 C249 1.478 . S
C5564 C418 1.478 . S
C5599 C289 1.479 . S
C5614 C778 1.479 . S
C5649 C338 1.480 . S
C5664 C489 1.480 . S
C5699 C849 1.479 . S
C5714 C378 1.479 . S
C5749 C1249 1.479 . S
C5764 C458 1.479 . S
C5799 C529 1.479 . S
C5814 C698 1.479 . S
C5849 C1098 1.480 . S
C5864 C609 1.480 . S
C5899 C658 1.479 . S
C5914 C809 1.479 . S
C5949 C1209 1.479 . S
C5964 C738 1.479 . S
C5999 C889 1.479 . S
C6014 C1058 1.479 . S
C6049 C978 1.480 . S
C6064 C1129 1.480 . S
