# Generated by pormake.
# Topology etf, (3)-cn, num edge types: 1
# Building blocks:
#     Node 0, Type 0, BuildingBlock: WUSLED_clean_sbu_0, # of connection points: 3
#     Node 1, Type 0, BuildingBlock: WUSLED_clean_sbu_0, # of connection points: 3
#     Node 2, Type 0, BuildingBlock: WUSLED_clean_sbu_0, # of connection points: 3
#     Node 3, Type 0, BuildingBlock: WUSLED_clean_sbu_0, # of connection points: 3
#     Node 4, Type 0, BuildingBlock: WUSLED_clean_sbu_0, # of connection points: 3
#     Node 5, Type 0, BuildingBlock: WUSLED_clean_sbu_0, # of connection points: 3
#     Node 6, Type 0, BuildingBlock: WUSLED_clean_sbu_0, # of connection points: 3
#     Node 7, Type 0, BuildingBlock: WUSLED_clean_sbu_0, # of connection points: 3
#     Node 8, Type 0, BuildingBlock: WUSLED_clean_sbu_0, # of connection points: 3
#     Node 9, Type 0, BuildingBlock: WUSLED_clean_sbu_0, # of connection points: 3
#     Node 10, Type 0, BuildingBlock: WUSLED_clean_sbu_0, # of connection points: 3
#     Node 11, Type 0, BuildingBlock: WUSLED_clean_sbu_0, # of connection points: 3
#     Node 12, Type 0, BuildingBlock: WUSLED_clean_sbu_0, # of connection points: 3
#     Node 13, Type 0, BuildingBlock: WUSLED_clean_sbu_0, # of connection points: 3
#     Node 14, Type 0, BuildingBlock: WUSLED_clean_sbu_0, # of connection points: 3
#     Node 15, Type 0, BuildingBlock: WUSLED_clean_sbu_0, # of connection points: 3
#     Node 16, Type 0, BuildingBlock: WUSLED_clean_sbu_0, # of connection points: 3
#     Node 17, Type 0, BuildingBlock: WUSLED_clean_sbu_0, # of connection points: 3
#     Node 18, Type 0, BuildingBlock: WUSLED_clean_sbu_0, # of connection points: 3
#     Node 19, Type 0, BuildingBlock: WUSLED_clean_sbu_0, # of connection points: 3
#     Node 20, Type 0, BuildingBlock: WUSLED_clean_sbu_0, # of connection points: 3
#     Node 21, Type 0, BuildingBlock: WUSLED_clean_sbu_0, # of connection points: 3
#     Node 22, Type 0, BuildingBlock: WUSLED_clean_sbu_0, # of connection points: 3
#     Node 23, Type 0, BuildingBlock: WUSLED_clean_sbu_0, # of connection points: 3
#     Node 24, Type 0, BuildingBlock: WUSLED_clean_sbu_0, # of connection points: 3
#     Node 25, Type 0, BuildingBlock: WUSLED_clean_sbu_0, # of connection points: 3
#     Node 26, Type 0, BuildingBlock: WUSLED_clean_sbu_0, # of connection points: 3
#     Node 27, Type 0, BuildingBlock: WUSLED_clean_sbu_0, # of connection points: 3
#     Node 28, Type 0, BuildingBlock: WUSLED_clean_sbu_0, # of connection points: 3
#     Node 29, Type 0, BuildingBlock: WUSLED_clean_sbu_0, # of connection points: 3
#     Node 30, Type 0, BuildingBlock: WUSLED_clean_sbu_0, # of connection points: 3
#     Node 31, Type 0, BuildingBlock: WUSLED_clean_sbu_0, # of connection points: 3
#     Node 32, Type 0, BuildingBlock: WUSLED_clean_sbu_0, # of connection points: 3
#     Node 33, Type 0, BuildingBlock: WUSLED_clean_sbu_0, # of connection points: 3
#     Node 34, Type 0, BuildingBlock: WUSLED_clean_sbu_0, # of connection points: 3
#     Node 35, Type 0, BuildingBlock: WUSLED_clean_sbu_0, # of connection points: 3
#     Edge 36, Type (0, 0), BuildingBlock: CIFDUS_clean_linker_0, # of connection points: 2
#     Edge 37, Type (0, 0), BuildingBlock: CIFDUS_clean_linker_0, # of connection points: 2
#     Edge 38, Type (0, 0), BuildingBlock: CIFDUS_clean_linker_0, # of connection points: 2
#     Edge 39, Type (0, 0), BuildingBlock: CIFDUS_clean_linker_0, # of connection points: 2
#     Edge 40, Type (0, 0), BuildingBlock: CIFDUS_clean_linker_0, # of connection points: 2
#     Edge 41, Type (0, 0), BuildingBlock: CIFDUS_clean_linker_0, # of connection points: 2
#     Edge 42, Type (0, 0), BuildingBlock: CIFDUS_clean_linker_0, # of connection points: 2
#     Edge 43, Type (0, 0), BuildingBlock: CIFDUS_clean_linker_0, # of connection points: 2
#     Edge 44, Type (0, 0), BuildingBlock: CIFDUS_clean_linker_0, # of connection points: 2
#     Edge 45, Type (0, 0), BuildingBlock: CIFDUS_clean_linker_0, # of connection points: 2
#     Edge 46, Type (0, 0), BuildingBlock: CIFDUS_clean_linker_0, # of connection points: 2
#     Edge 47, Type (0, 0), BuildingBlock: CIFDUS_clean_linker_0, # of connection points: 2
#     Edge 48, Type (0, 0), BuildingBlock: CIFDUS_clean_linker_0, # of connection points: 2
#     Edge 49, Type (0, 0), BuildingBlock: CIFDUS_clean_linker_0, # of connection points: 2
#     Edge 50, Type (0, 0), BuildingBlock: CIFDUS_clean_linker_0, # of connection points: 2
#     Edge 51, Type (0, 0), BuildingBlock: CIFDUS_clean_linker_0, # of connection points: 2
#     Edge 52, Type (0, 0), BuildingBlock: CIFDUS_clean_linker_0, # of connection points: 2
#     Edge 53, Type (0, 0), BuildingBlock: CIFDUS_clean_linker_0, # of connection points: 2
#     Edge 54, Type (0, 0), BuildingBlock: CIFDUS_clean_linker_0, # of connection points: 2
#     Edge 55, Type (0, 0), BuildingBlock: CIFDUS_clean_linker_0, # of connection points: 2
#     Edge 56, Type (0, 0), BuildingBlock: CIFDUS_clean_linker_0, # of connection points: 2
#     Edge 57, Type (0, 0), BuildingBlock: CIFDUS_clean_linker_0, # of connection points: 2
#     Edge 58, Type (0, 0), BuildingBlock: CIFDUS_clean_linker_0, # of connection points: 2
#     Edge 59, Type (0, 0), BuildingBlock: CIFDUS_clean_linker_0, # of connection points: 2
#     Edge 60, Type (0, 0), BuildingBlock: CIFDUS_clean_linker_0, # of connection points: 2
#     Edge 61, Type (0, 0), BuildingBlock: CIFDUS_clean_linker_0, # of connection points: 2
#     Edge 62, Type (0, 0), BuildingBlock: CIFDUS_clean_linker_0, # of connection points: 2
#     Edge 63, Type (0, 0), BuildingBlock: CIFDUS_clean_linker_0, # of connection points: 2
#     Edge 64, Type (0, 0), BuildingBlock: CIFDUS_clean_linker_0, # of connection points: 2
#     Edge 65, Type (0, 0), BuildingBlock: CIFDUS_clean_linker_0, # of connection points: 2
#     Edge 66, Type (0, 0), BuildingBlock: CIFDUS_clean_linker_0, # of connection points: 2
#     Edge 67, Type (0, 0), BuildingBlock: CIFDUS_clean_linker_0, # of connection points: 2
#     Edge 68, Type (0, 0), BuildingBlock: CIFDUS_clean_linker_0, # of connection points: 2
#     Edge 69, Type (0, 0), BuildingBlock: CIFDUS_clean_linker_0, # of connection points: 2
#     Edge 70, Type (0, 0), BuildingBlock: CIFDUS_clean_linker_0, # of connection points: 2
#     Edge 71, Type (0, 0), BuildingBlock: CIFDUS_clean_linker_0, # of connection points: 2
#     Edge 72, Type (0, 0), BuildingBlock: CIFDUS_clean_linker_0, # of connection points: 2
#     Edge 73, Type (0, 0), BuildingBlock: CIFDUS_clean_linker_0, # of connection points: 2
#     Edge 74, Type (0, 0), BuildingBlock: CIFDUS_clean_linker_0, # of connection points: 2
#     Edge 75, Type (0, 0), BuildingBlock: CIFDUS_clean_linker_0, # of connection points: 2
#     Edge 76, Type (0, 0), BuildingBlock: CIFDUS_clean_linker_0, # of connection points: 2
#     Edge 77, Type (0, 0), BuildingBlock: CIFDUS_clean_linker_0, # of connection points: 2
#     Edge 78, Type (0, 0), BuildingBlock: CIFDUS_clean_linker_0, # of connection points: 2
#     Edge 79, Type (0, 0), BuildingBlock: CIFDUS_clean_linker_0, # of connection points: 2
#     Edge 80, Type (0, 0), BuildingBlock: CIFDUS_clean_linker_0, # of connection points: 2
#     Edge 81, Type (0, 0), BuildingBlock: CIFDUS_clean_linker_0, # of connection points: 2
#     Edge 82, Type (0, 0), BuildingBlock: CIFDUS_clean_linker_0, # of connection points: 2
#     Edge 83, Type (0, 0), BuildingBlock: CIFDUS_clean_linker_0, # of connection points: 2
#     Edge 84, Type (0, 0), BuildingBlock: CIFDUS_clean_linker_0, # of connection points: 2
#     Edge 85, Type (0, 0), BuildingBlock: CIFDUS_clean_linker_0, # of connection points: 2
#     Edge 86, Type (0, 0), BuildingBlock: CIFDUS_clean_linker_0, # of connection points: 2
#     Edge 87, Type (0, 0), BuildingBlock: CIFDUS_clean_linker_0, # of connection points: 2
#     Edge 88, Type (0, 0), BuildingBlock: CIFDUS_clean_linker_0, # of connection points: 2
#     Edge 89, Type (0, 0), BuildingBlock: CIFDUS_clean_linker_0, # of connection points: 2
# Relax obj value: 0.003
# Max RMSD: 0.006
# Mean RMSD: 0.006
data_MOF--net-etf--node1-WUSLED_clean_sbu_0--edge1-CIFDUS_clean_linker_0
_symmetry_space_group_name_H-M    P1
_symmetry_Int_Tables_number       1
_symmetry_cell_setting            triclinic
loop_
_symmetry_equiv_pos_as_xyz
'x, y, z'
_cell_length_a     124.2078
_cell_length_b     123.84597
_cell_length_c     70.497304
_cell_angle_alpha  90.03926
_cell_angle_beta   89.942729
_cell_angle_gamma 120.02801
loop_
_atom_site_label
_atom_site_type_symbol
_atom_site_fract_x
_atom_site_fract_y
_atom_site_fract_z
_atom_type_partial_charge
C0 C 0.08104 0.28207 0.24992 0.0
C1 C 0.074 0.282 0.23435 0.0
C2 C 0.05481 0.26823 0.25163 0.0
C3 C 0.06097 0.27501 0.23513 0.0
C4 C 0.06206 0.26809 0.26683 0.0
C5 C 0.07499 0.27486 0.26588 0.0
U6 U 0.1165 0.30614 0.23765 0.0
O7 O 0.12821 0.32134 0.25746 0.0
O8 O 0.132 0.30576 0.2523 0.0
C9 C 0.13512 0.3163 0.26107 0.0
C10 C 0.09454 0.29039 0.25141 0.0
C11 C 0.14449 0.3211 0.27605 0.0
C12 C 0.15082 0.32268 0.30896 0.0
C13 C 0.1418 0.31675 0.2948 0.0
C14 C 0.16518 0.33689 0.28546 0.0
C15 C 0.16248 0.33303 0.30442 0.0
C16 C 0.15625 0.33099 0.27144 0.0
C17 C 0.12525 0.31844 0.18391 0.0
C18 C 0.14307 0.33126 0.1637 0.0
C19 C 0.12214 0.32262 0.15142 0.0
C20 C 0.11735 0.31703 0.16884 0.0
C21 C 0.13504 0.32992 0.1486 0.0
C22 C 0.13819 0.32554 0.18134 0.0
C23 C 0.11916 0.3121 0.20167 0.0
O24 O 0.10202 0.2868 0.24427 0.0
O25 O 0.09883 0.30245 0.25029 0.0
O26 O 0.11661 0.31817 0.21455 0.0
O27 O 0.12088 0.30318 0.20842 0.0
H28 H 0.07853 0.28755 0.22188 0.0
H29 H 0.05573 0.27512 0.22294 0.0
H30 H 0.05782 0.26324 0.2799 0.0
H31 H 0.08031 0.27491 0.2781 0.0
H32 H 0.14849 0.31954 0.32351 0.0
H33 H 0.1327 0.3091 0.29856 0.0
H34 H 0.17415 0.34468 0.2815 0.0
H35 H 0.15843 0.3344 0.257 0.0
H36 H 0.15305 0.33688 0.16198 0.0
H37 H 0.11567 0.32113 0.14007 0.0
H38 H 0.10735 0.31151 0.17054 0.0
H39 H 0.14445 0.32672 0.19286 0.0
C40 C 0.74907 0.80685 0.24875 0.0
C41 C 0.74867 0.7989 0.2343 0.0
C42 C 0.76427 0.7959 0.25102 0.0
C43 C 0.75619 0.79344 0.23545 0.0
C44 C 0.76473 0.80414 0.26517 0.0
C45 C 0.75717 0.80946 0.26406 0.0
U46 U 0.72457 0.81825 0.238 0.0
O47 O 0.71043 0.81485 0.2597 0.0
O48 O 0.72556 0.83425 0.25343 0.0
C49 C 0.71561 0.82682 0.26338 0.0
C50 C 0.74052 0.81178 0.24966 0.0
C51 C 0.71068 0.83153 0.27798 0.0
C52 C 0.70677 0.8338 0.31098 0.0
C53 C 0.71189 0.82957 0.29722 0.0
C54 C 0.69911 0.84182 0.28626 0.0
C55 C 0.70018 0.83986 0.30567 0.0
C56 C 0.70441 0.83777 0.27257 0.0
C57 C 0.71243 0.81505 0.18367 0.0
C58 C 0.69711 0.81438 0.1615 0.0
C59 C 0.71302 0.80993 0.15073 0.0
C60 C 0.71798 0.81203 0.16895 0.0
C61 C 0.70233 0.81073 0.14686 0.0
C62 C 0.7021 0.81646 0.17988 0.0
C63 C 0.71726 0.81606 0.20293 0.0
O64 O 0.74402 0.82299 0.2431 0.0
O65 O 0.7285 0.80392 0.24861 0.0
O66 O 0.71141 0.8071 0.21542 0.0
O67 O 0.72708 0.82622 0.20915 0.0
H68 H 0.74235 0.79667 0.22246 0.0
H69 H 0.75534 0.78699 0.22439 0.0
H70 H 0.77096 0.80658 0.27715 0.0
H71 H 0.75752 0.81553 0.27543 0.0
H72 H 0.70801 0.83235 0.32578 0.0
H73 H 0.71679 0.8248 0.30158 0.0
H74 H 0.69395 0.84623 0.28157 0.0
H75 H 0.70339 0.83927 0.2577 0.0
H76 H 0.68886 0.81505 0.15898 0.0
H77 H 0.71743 0.8074 0.1397 0.0
H78 H 0.72599 0.81098 0.17165 0.0
H79 H 0.69774 0.81885 0.19117 0.0
C80 C 0.22448 0.94963 0.2532 0.0
C81 C 0.23241 0.95708 0.23854 0.0
C82 C 0.23653 0.97588 0.2558 0.0
C83 C 0.23843 0.97017 0.23988 0.0
C84 C 0.22818 0.9684 0.2699 0.0
C85 C 0.22222 0.95542 0.26858 0.0
U86 U 0.21427 0.91511 0.23721 0.0
O87 O 0.21726 0.90183 0.25394 0.0
O88 O 0.1982 0.89792 0.24838 0.0
C89 C 0.2053 0.89408 0.2562 0.0
C90 C 0.21944 0.93601 0.25448 0.0
C91 C 0.20114 0.88693 0.27407 0.0
C92 C 0.19969 0.88492 0.30848 0.0
C93 C 0.20312 0.89243 0.2921 0.0
C94 C 0.19208 0.86649 0.28885 0.0
C95 C 0.19426 0.87182 0.30706 0.0
C96 C 0.19552 0.87395 0.27266 0.0
C97 C 0.21886 0.90873 0.18338 0.0
C98 C 0.21348 0.89023 0.16445 0.0
C99 C 0.2266 0.91078 0.15119 0.0
C100 C 0.2257 0.91614 0.16804 0.0
C101 C 0.22051 0.89775 0.14899 0.0
C102 C 0.21269 0.89569 0.18158 0.0
C103 C 0.21867 0.91536 0.20068 0.0
O104 O 0.20858 0.92854 0.24671 0.0
O105 O 0.22738 0.93196 0.25293 0.0
O106 O 0.22701 0.91746 0.21379 0.0
O107 O 0.20788 0.91305 0.20753 0.0
H108 H 0.23434 0.95283 0.22656 0.0
H109 H 0.24495 0.97582 0.22893 0.0
H110 H 0.22674 0.97261 0.28241 0.0
H111 H 0.21624 0.94986 0.28011 0.0
H112 H 0.20162 0.88942 0.32222 0.0
H113 H 0.2075 0.90246 0.29351 0.0
H114 H 0.18764 0.85649 0.287 0.0
H115 H 0.19389 0.86952 0.25888 0.0
H116 H 0.20852 0.88017 0.16334 0.0
H117 H 0.2324 0.91698 0.14006 0.0
H118 H 0.23055 0.92622 0.16917 0.0
H119 H 0.20732 0.88977 0.19328 0.0
C120 C 0.28748 0.07556 0.27841 0.0
C121 C 0.28762 0.06697 0.29124 0.0
C122 C 0.27155 0.04972 0.27272 0.0
C123 C 0.27966 0.05413 0.28845 0.0
C124 C 0.27154 0.05847 0.26003 0.0
C125 C 0.27936 0.07121 0.26293 0.0
U126 U 0.31256 0.11161 0.29002 0.0
O127 O 0.32649 0.12202 0.26778 0.0
O128 O 0.31167 0.12659 0.27448 0.0
C129 C 0.32139 0.12888 0.26416 0.0
C130 C 0.29628 0.08901 0.2795 0.0
C131 C 0.32641 0.1387 0.24978 0.0
C132 C 0.33091 0.14501 0.21686 0.0
C133 C 0.32583 0.13561 0.23057 0.0
C134 C 0.33732 0.16065 0.24158 0.0
C135 C 0.33685 0.15767 0.22221 0.0
C136 C 0.33205 0.15123 0.25523 0.0
C137 C 0.32516 0.1206 0.34414 0.0
C138 C 0.337 0.13614 0.36817 0.0
C139 C 0.32695 0.11413 0.37578 0.0
C140 C 0.32243 0.11116 0.3573 0.0
C141 C 0.3342 0.12666 0.3816 0.0
C142 C 0.3325 0.13312 0.34956 0.0
C143 C 0.32057 0.11725 0.32469 0.0
O144 O 0.2929 0.09689 0.28578 0.0
O145 O 0.30828 0.09308 0.28006 0.0
O146 O 0.32586 0.11344 0.3123 0.0
O147 O 0.31083 0.11779 0.31867 0.0
H148 H 0.29392 0.07018 0.30322 0.0
H149 H 0.27983 0.04766 0.29861 0.0
H150 H 0.26568 0.05548 0.24755 0.0
H151 H 0.27928 0.07771 0.25271 0.0
H152 H 0.33014 0.14234 0.20208 0.0
H153 H 0.32142 0.12594 0.22617 0.0
H154 H 0.34197 0.17026 0.24628 0.0
H155 H 0.33261 0.15373 0.27007 0.0
H156 H 0.34246 0.14588 0.37206 0.0
H157 H 0.32487 0.10653 0.38541 0.0
H158 H 0.31686 0.10145 0.35324 0.0
H159 H 0.33475 0.14052 0.33943 0.0
C160 C 0.95615 0.21995 0.27763 0.0
C161 C 0.96354 0.22458 0.29398 0.0
C162 C 0.98203 0.23 0.27506 0.0
C163 C 0.97647 0.22952 0.2927 0.0
C164 C 0.97454 0.22529 0.25892 0.0
C165 C 0.96174 0.22025 0.26025 0.0
U166 U 0.92064 0.20903 0.29038 0.0
O167 O 0.9093 0.21238 0.26989 0.0
O168 O 0.90498 0.19294 0.27587 0.0
C169 C 0.90221 0.2004 0.2665 0.0
C170 C 0.94269 0.21517 0.27727 0.0
C171 C 0.89279 0.19599 0.2515 0.0
C172 C 0.8867 0.19532 0.21861 0.0
C173 C 0.89602 0.19898 0.23239 0.0
C174 C 0.87097 0.18535 0.24294 0.0
C175 C 0.87401 0.18863 0.22376 0.0
C176 C 0.88026 0.18904 0.25663 0.0
C177 C 0.91203 0.21201 0.3446 0.0
C178 C 0.89612 0.21205 0.36466 0.0
C179 C 0.91514 0.2147 0.37854 0.0
C180 C 0.91931 0.21377 0.36066 0.0
C181 C 0.9035 0.2138 0.38082 0.0
C182 C 0.90037 0.21113 0.34655 0.0
C183 C 0.91758 0.21185 0.3263 0.0
O184 O 0.93503 0.20404 0.28412 0.0
O185 O 0.93865 0.22312 0.27854 0.0
O186 O 0.91987 0.22051 0.31361 0.0
O187 O 0.91626 0.20137 0.31946 0.0
H188 H 0.95937 0.22449 0.30753 0.0
H189 H 0.98215 0.23319 0.3053 0.0
H190 H 0.97863 0.22554 0.24522 0.0
H191 H 0.95616 0.21673 0.2475 0.0
H192 H 0.88949 0.19816 0.20408 0.0
H193 H 0.9057 0.20433 0.22819 0.0
H194 H 0.86139 0.17993 0.24751 0.0
H195 H 0.87764 0.18661 0.27134 0.0
H196 H 0.88709 0.21131 0.36606 0.0
H197 H 0.92115 0.21631 0.39061 0.0
H198 H 0.9284 0.21462 0.35935 0.0
H199 H 0.89465 0.20984 0.33422 0.0
C200 C 0.81178 0.74432 0.27828 0.0
C201 C 0.80393 0.74381 0.29299 0.0
C202 C 0.80082 0.75956 0.2768 0.0
C203 C 0.79847 0.75137 0.29224 0.0
C204 C 0.80902 0.76018 0.26252 0.0
C205 C 0.81433 0.75261 0.26323 0.0
U206 U 0.82324 0.72007 0.28979 0.0
O207 O 0.81986 0.70485 0.27004 0.0
O208 O 0.83907 0.72055 0.27479 0.0
C209 C 0.8318 0.70977 0.26655 0.0
C210 C 0.81675 0.73579 0.27669 0.0
C211 C 0.83621 0.7056 0.25038 0.0
C212 C 0.84301 0.70687 0.21778 0.0
C213 C 0.83903 0.71155 0.23268 0.0
C214 C 0.84146 0.69046 0.2383 0.0
C215 C 0.84426 0.69625 0.22045 0.0
C216 C 0.83747 0.69509 0.25306 0.0
C217 C 0.82049 0.70841 0.34389 0.0
C218 C 0.82206 0.69312 0.36355 0.0
C219 C 0.8164 0.70745 0.37766 0.0
C220 C 0.81721 0.71276 0.35997 0.0
C221 C 0.8188 0.69762 0.37962 0.0
C222 C 0.82296 0.69855 0.34566 0.0
C223 C 0.82053 0.71428 0.32579 0.0
O224 O 0.82797 0.73938 0.28316 0.0
O225 O 0.80899 0.72374 0.27805 0.0
O226 O 0.81186 0.70793 0.31315 0.0
O227 O 0.83097 0.72339 0.31882 0.0
H228 H 0.80177 0.73738 0.30469 0.0
H229 H 0.7921 0.75046 0.30343 0.0
H230 H 0.81143 0.76653 0.25069 0.0
H231 H 0.82035 0.75309 0.25172 0.0
H232 H 0.84492 0.71145 0.20411 0.0
H233 H 0.83807 0.71967 0.23035 0.0
H234 H 0.8425 0.68242 0.24099 0.0
H235 H 0.83535 0.69044 0.2667 0.0
H236 H 0.82391 0.68549 0.36489 0.0
H237 H 0.81376 0.71096 0.38984 0.0
H238 H 0.81516 0.72027 0.3588 0.0
H239 H 0.82544 0.69502 0.33335 0.0
C240 C 0.95687 0.74869 0.7793 0.0
C241 C 0.96404 0.7544 0.79555 0.0
C242 C 0.98293 0.76473 0.77602 0.0
C243 C 0.977 0.76237 0.7939 0.0
C244 C 0.97555 0.75905 0.75994 0.0
C245 C 0.96275 0.75113 0.76161 0.0
U246 U 0.92151 0.7245 0.79399 0.0
O247 O 0.9055 0.72425 0.77992 0.0
O248 O 0.90956 0.70888 0.77504 0.0
C249 C 0.90222 0.71347 0.77182 0.0
C250 C 0.94328 0.74023 0.77941 0.0
C251 C 0.89319 0.70868 0.75632 0.0
C252 C 0.8868 0.70787 0.72354 0.0
C253 C 0.89589 0.71338 0.73777 0.0
C254 C 0.87267 0.69283 0.74636 0.0
C255 C 0.875 0.69742 0.72764 0.0
C256 C 0.88155 0.6985 0.76047 0.0
C257 C 0.91373 0.71222 0.84797 0.0
C258 C 0.89675 0.69936 0.86966 0.0
C259 C 0.91813 0.7077 0.87943 0.0
C260 C 0.92218 0.71348 0.86197 0.0
C261 C 0.90538 0.70076 0.88393 0.0
C262 C 0.90091 0.70502 0.8517 0.0
C263 C 0.91927 0.71856 0.82993 0.0
O264 O 0.93898 0.72817 0.78038 0.0
O265 O 0.93595 0.74384 0.78713 0.0
O266 O 0.91731 0.72738 0.82344 0.0
O267 O 0.92202 0.71272 0.81693 0.0
H268 H 0.95967 0.75265 0.80938 0.0
H269 H 0.98239 0.76651 0.80662 0.0
H270 H 0.97962 0.76081 0.74591 0.0
H271 H 0.95738 0.74691 0.74889 0.0
H272 H 0.88905 0.71191 0.7095 0.0
H273 H 0.90493 0.72123 0.73432 0.0
H274 H 0.8641 0.68457 0.75032 0.0
H275 H 0.87939 0.69468 0.7747 0.0
H276 H 0.88685 0.69411 0.87236 0.0
H277 H 0.92522 0.70858 0.8892 0.0
H278 H 0.9321 0.71885 0.85929 0.0
H279 H 0.89419 0.70384 0.84092 0.0
C280 C 0.28327 0.21627 0.78083 0.0
C281 C 0.28152 0.22201 0.79673 0.0
C282 C 0.26792 0.22719 0.77818 0.0
C283 C 0.274 0.22749 0.79539 0.0
C284 C 0.26954 0.22099 0.76261 0.0
C285 C 0.2772 0.21578 0.76391 0.0
U286 U 0.30788 0.20542 0.79403 0.0
O287 O 0.30789 0.18959 0.77935 0.0
O288 O 0.32293 0.20912 0.77396 0.0
C289 C 0.31827 0.19718 0.77043 0.0
C290 C 0.29193 0.21141 0.78036 0.0
C291 C 0.32323 0.19298 0.75501 0.0
C292 C 0.32757 0.19161 0.72175 0.0
C293 C 0.32167 0.19484 0.73582 0.0
C294 C 0.33602 0.18414 0.74602 0.0
C295 C 0.33507 0.18643 0.7267 0.0
C296 C 0.33028 0.18749 0.75994 0.0
C297 C 0.32035 0.20841 0.84749 0.0
C298 C 0.33664 0.20692 0.86443 0.0
C299 C 0.32431 0.21419 0.88081 0.0
C300 C 0.31757 0.21264 0.86422 0.0
C301 C 0.33405 0.21159 0.88099 0.0
C302 C 0.32978 0.20528 0.84771 0.0
C303 C 0.31366 0.20845 0.83021 0.0
O304 O 0.30389 0.21936 0.78175 0.0
O305 O 0.28849 0.20031 0.78739 0.0
O306 O 0.30483 0.19785 0.82319 0.0
O307 O 0.31968 0.21715 0.81742 0.0
H308 H 0.28622 0.22257 0.80994 0.0
H309 H 0.27336 0.23229 0.80777 0.0
H310 H 0.26487 0.21996 0.74926 0.0
H311 H 0.27845 0.21138 0.75146 0.0
H312 H 0.32662 0.19366 0.70713 0.0
H313 H 0.3162 0.19907 0.73176 0.0
H314 H 0.34124 0.17977 0.75059 0.0
H315 H 0.3315 0.18593 0.77471 0.0
H316 H 0.34422 0.20497 0.86428 0.0
H317 H 0.32229 0.21799 0.89328 0.0
H318 H 0.31039 0.21518 0.8643 0.0
H319 H 0.3321 0.20202 0.83494 0.0
C320 C 0.81511 0.07475 0.78215 0.0
C321 C 0.81203 0.06568 0.79623 0.0
C322 C 0.80425 0.04939 0.77223 0.0
C323 C 0.80664 0.05309 0.79134 0.0
C324 C 0.80797 0.05863 0.75811 0.0
C325 C 0.81329 0.07122 0.76303 0.0
U326 U 0.82686 0.11109 0.79381 0.0
O327 O 0.84245 0.12464 0.77596 0.0
O328 O 0.82316 0.12062 0.7706 0.0
C329 C 0.83484 0.1264 0.76513 0.0
C330 C 0.81925 0.08761 0.78788 0.0
C331 C 0.83944 0.13724 0.75265 0.0
C332 C 0.84389 0.14481 0.72031 0.0
C333 C 0.84106 0.13543 0.73353 0.0
C334 C 0.84429 0.15834 0.74549 0.0
C335 C 0.84539 0.15638 0.72601 0.0
C336 C 0.84118 0.14877 0.75871 0.0
C337 C 0.8242 0.12203 0.84709 0.0
C338 C 0.826 0.13799 0.86894 0.0
C339 C 0.81778 0.11673 0.87982 0.0
C340 C 0.81939 0.11322 0.86169 0.0
C341 C 0.82107 0.12916 0.88372 0.0
C342 C 0.82752 0.13443 0.85074 0.0
C343 C 0.82515 0.11808 0.82792 0.0
O344 O 0.8119 0.09232 0.78604 0.0
O345 O 0.83088 0.09559 0.7922 0.0
O346 O 0.83525 0.11823 0.82192 0.0
O347 O 0.81606 0.11442 0.81559 0.0
H348 H 0.81336 0.06831 0.81107 0.0
H349 H 0.80382 0.04621 0.80255 0.0
H350 H 0.80645 0.05607 0.74325 0.0
H351 H 0.81566 0.07812 0.75198 0.0
H352 H 0.84437 0.14273 0.70554 0.0
H353 H 0.83963 0.1265 0.72864 0.0
H354 H 0.84567 0.1672 0.75055 0.0
H355 H 0.83993 0.15029 0.77349 0.0
H356 H 0.82877 0.14766 0.87143 0.0
H357 H 0.8137 0.1096 0.89065 0.0
H358 H 0.81667 0.10358 0.85899 0.0
H359 H 0.83122 0.14132 0.83951 0.0
C360 C 0.75268 0.9493 0.75165 0.0
C361 C 0.75519 0.95756 0.7364 0.0
C362 C 0.76897 0.97524 0.75676 0.0
C363 C 0.76333 0.97047 0.73895 0.0
C364 C 0.76623 0.9668 0.77176 0.0
C365 C 0.75832 0.95407 0.76917 0.0
U366 U 0.72836 0.91461 0.73427 0.0
O367 O 0.72724 0.89781 0.74701 0.0
O368 O 0.71188 0.90168 0.75092 0.0
C369 C 0.71613 0.89404 0.75413 0.0
C370 C 0.74383 0.93574 0.75096 0.0
C371 C 0.71253 0.88689 0.77197 0.0
C372 C 0.71527 0.88333 0.80511 0.0
C373 C 0.71937 0.89098 0.78889 0.0
C374 C 0.69764 0.86762 0.78746 0.0
C375 C 0.7043 0.87154 0.80455 0.0
C376 C 0.70169 0.87521 0.77146 0.0
C377 C 0.718 0.90788 0.67988 0.0
C378 C 0.70212 0.89085 0.66089 0.0
C379 C 0.71492 0.91128 0.647 0.0
C380 C 0.72124 0.91564 0.66403 0.0
C381 C 0.70498 0.899 0.64533 0.0
C382 C 0.70858 0.8953 0.67822 0.0
C383 C 0.72429 0.91401 0.6977 0.0
O384 O 0.73194 0.93186 0.74878 0.0
O385 O 0.7474 0.92827 0.74361 0.0
O386 O 0.73273 0.91177 0.70492 0.0
O387 O 0.71796 0.91634 0.71038 0.0
H388 H 0.75087 0.95407 0.72273 0.0
H389 H 0.76524 0.97667 0.72701 0.0
H390 H 0.76999 0.97001 0.78581 0.0
H391 H 0.75639 0.94789 0.78117 0.0
H392 H 0.72058 0.88667 0.8181 0.0
H393 H 0.7278 0.89999 0.78956 0.0
H394 H 0.68936 0.85854 0.78628 0.0
H395 H 0.69635 0.87186 0.75848 0.0
H396 H 0.69451 0.88132 0.65999 0.0
H397 H 0.71754 0.91773 0.63523 0.0
H398 H 0.72849 0.92534 0.66497 0.0
H399 H 0.70595 0.88912 0.69035 0.0
C400 C 0.08264 0.81129 0.75051 0.0
C401 C 0.0755 0.80587 0.73415 0.0
C402 C 0.05627 0.79977 0.75203 0.0
C403 C 0.06244 0.80027 0.73488 0.0
C404 C 0.06362 0.80563 0.76809 0.0
C405 C 0.07658 0.81133 0.76727 0.0
U406 U 0.11721 0.82167 0.73427 0.0
O407 O 0.13422 0.83755 0.74623 0.0
O408 O 0.13034 0.81835 0.7507 0.0
C409 C 0.13805 0.83028 0.75352 0.0
C410 C 0.09625 0.81627 0.75151 0.0
C411 C 0.14519 0.83404 0.77141 0.0
C412 C 0.14755 0.83755 0.80554 0.0
C413 C 0.14012 0.83428 0.78911 0.0
C414 C 0.16509 0.84056 0.78659 0.0
C415 C 0.16017 0.84066 0.80452 0.0
C416 C 0.15769 0.83723 0.77037 0.0
C417 C 0.1238 0.81788 0.67996 0.0
C418 C 0.14089 0.81868 0.66165 0.0
C419 C 0.12178 0.81426 0.64597 0.0
C420 C 0.1169 0.81526 0.66323 0.0
C421 C 0.13383 0.81599 0.64481 0.0
C422 C 0.1359 0.81964 0.67917 0.0
C423 C 0.11733 0.8178 0.69763 0.0
O424 O 0.10024 0.80831 0.74958 0.0
O425 O 0.10372 0.82723 0.74392 0.0
O426 O 0.1194 0.82848 0.70476 0.0
O427 O 0.1153 0.80931 0.71048 0.0
H428 H 0.07995 0.80577 0.72099 0.0
H429 H 0.05721 0.79617 0.72202 0.0
H430 H 0.0594 0.80538 0.78164 0.0
H431 H 0.0819 0.81543 0.78007 0.0
H432 H 0.14332 0.83738 0.81906 0.0
H433 H 0.13045 0.83181 0.79025 0.0
H434 H 0.17477 0.84321 0.78491 0.0
H435 H 0.1618 0.83715 0.75684 0.0
H436 H 0.15023 0.82009 0.66126 0.0
H437 H 0.11593 0.81187 0.63352 0.0
H438 H 0.10751 0.81372 0.66354 0.0
H439 H 0.14138 0.8216 0.69198 0.0
C440 C 0.22022 0.27949 0.75049 0.0
C441 C 0.22541 0.27747 0.73412 0.0
C442 C 0.23127 0.2641 0.75213 0.0
C443 C 0.23094 0.26994 0.73495 0.0
C444 C 0.22553 0.26596 0.76813 0.0
C445 C 0.22031 0.27363 0.76733 0.0
U446 U 0.20972 0.30349 0.73402 0.0
O447 O 0.19387 0.30477 0.74568 0.0
O448 O 0.21304 0.32002 0.75034 0.0
C449 C 0.20114 0.31584 0.75309 0.0
C450 C 0.21513 0.28802 0.7514 0.0
C451 C 0.1974 0.31906 0.77112 0.0
C452 C 0.19783 0.32105 0.8055 0.0
C453 C 0.20035 0.31628 0.78902 0.0
C454 C 0.18912 0.33101 0.7863 0.0
C455 C 0.19242 0.3287 0.80427 0.0
C456 C 0.19157 0.32622 0.76999 0.0
C457 C 0.21389 0.3144 0.68039 0.0
C458 C 0.2075 0.32661 0.66124 0.0
C459 C 0.22236 0.32117 0.64883 0.0
C460 C 0.22161 0.3149 0.66557 0.0
C461 C 0.21544 0.32721 0.64646 0.0
C462 C 0.20674 0.32025 0.67821 0.0
C463 C 0.21374 0.30743 0.69743 0.0
O464 O 0.22302 0.30001 0.74961 0.0
O465 O 0.20422 0.28445 0.74369 0.0
O466 O 0.20296 0.29904 0.70452 0.0
O467 O 0.22229 0.31358 0.71032 0.0
H468 H 0.22546 0.28194 0.72089 0.0
H469 H 0.2352 0.26911 0.72211 0.0
H470 H 0.22482 0.26151 0.78157 0.0
H471 H 0.21631 0.27502 0.78012 0.0
H472 H 0.20032 0.31894 0.81916 0.0
H473 H 0.20486 0.31076 0.79021 0.0
H474 H 0.18512 0.33697 0.78471 0.0
H475 H 0.1893 0.32853 0.7563 0.0
H476 H 0.2021 0.33123 0.65981 0.0
H477 H 0.22839 0.32124 0.63765 0.0
H478 H 0.22711 0.31037 0.66691 0.0
H479 H 0.20069 0.31995 0.68952 0.0
C480 C 0.74754 0.61555 0.58227 0.0
C481 C 0.73897 0.61567 0.56948 0.0
C482 C 0.72187 0.59961 0.58815 0.0
C483 C 0.72618 0.60769 0.57236 0.0
C484 C 0.7306 0.59963 0.60081 0.0
C485 C 0.74328 0.60746 0.59782 0.0
U486 U 0.78337 0.64063 0.57037 0.0
O487 O 0.79381 0.65468 0.59244 0.0
O488 O 0.79828 0.63972 0.58588 0.0
C489 C 0.80056 0.64949 0.59615 0.0
C490 C 0.76092 0.62435 0.5811 0.0
C491 C 0.81045 0.6546 0.61026 0.0
C492 C 0.81688 0.65848 0.64308 0.0
C493 C 0.80749 0.65306 0.6295 0.0
C494 C 0.83227 0.6669 0.61806 0.0
C495 C 0.82957 0.6658 0.63775 0.0
C496 C 0.82283 0.66136 0.60457 0.0
C497 C 0.79221 0.65322 0.51635 0.0
C498 C 0.80773 0.66503 0.49238 0.0
C499 C 0.78578 0.65517 0.48482 0.0
C500 C 0.7828 0.6506 0.50325 0.0
C501 C 0.79828 0.66234 0.479 0.0
C502 C 0.80469 0.66051 0.51096 0.0
C503 C 0.78883 0.6486 0.53572 0.0
O504 O 0.76872 0.62094 0.57471 0.0
O505 O 0.76496 0.63638 0.58051 0.0
O506 O 0.78507 0.65393 0.54813 0.0
O507 O 0.78946 0.63889 0.54172 0.0
H508 H 0.74213 0.62196 0.55746 0.0
H509 H 0.71969 0.60784 0.56226 0.0
H510 H 0.72765 0.59378 0.61333 0.0
H511 H 0.74979 0.60743 0.60801 0.0
H512 H 0.8138 0.65684 0.65759 0.0
H513 H 0.79788 0.64774 0.63406 0.0
H514 H 0.84157 0.67209 0.6125 0.0
H515 H 0.82521 0.66257 0.58963 0.0
H516 H 0.81744 0.67043 0.48847 0.0
H517 H 0.77821 0.65319 0.47523 0.0
H518 H 0.77311 0.64508 0.50734 0.0
H519 H 0.81206 0.66267 0.52108 0.0
C520 C 0.4165 0.13979 0.58373 0.0
C521 C 0.41932 0.13526 0.56733 0.0
C522 C 0.43222 0.12947 0.58616 0.0
C523 C 0.42719 0.13015 0.56854 0.0
C524 C 0.42942 0.1342 0.60235 0.0
C525 C 0.42167 0.13929 0.6011 0.0
U526 U 0.39214 0.15103 0.57087 0.0
O527 O 0.37741 0.14774 0.59129 0.0
O528 O 0.39263 0.16714 0.58547 0.0
C529 C 0.38234 0.15972 0.59472 0.0
C530 C 0.40791 0.14472 0.58411 0.0
C531 C 0.37746 0.16415 0.60994 0.0
C532 C 0.37248 0.16507 0.643 0.0
C533 C 0.37811 0.16145 0.62907 0.0
C534 C 0.36598 0.17444 0.61873 0.0
C535 C 0.3661 0.17141 0.63793 0.0
C536 C 0.37154 0.17079 0.60492 0.0
C537 C 0.3803 0.14819 0.51685 0.0
C538 C 0.36489 0.14973 0.49751 0.0
C539 C 0.37931 0.1444 0.48295 0.0
C540 C 0.38467 0.14513 0.50057 0.0
C541 C 0.36939 0.14666 0.48123 0.0
C542 C 0.37038 0.15055 0.51532 0.0
C543 C 0.38625 0.14818 0.53487 0.0
O544 O 0.41146 0.15585 0.57717 0.0
O545 O 0.39592 0.13686 0.58284 0.0
O546 O 0.37993 0.13954 0.54761 0.0
O547 O 0.39536 0.15865 0.54176 0.0
H548 H 0.41536 0.13552 0.55377 0.0
H549 H 0.4291 0.1265 0.55582 0.0
H550 H 0.43327 0.13405 0.61605 0.0
H551 H 0.41959 0.14276 0.6139 0.0
H552 H 0.37272 0.16246 0.65758 0.0
H553 H 0.38271 0.15633 0.63318 0.0
H554 H 0.36151 0.17959 0.61424 0.0
H555 H 0.37103 0.17299 0.59019 0.0
H556 H 0.35722 0.15151 0.49639 0.0
H557 H 0.38284 0.14193 0.47063 0.0
H558 H 0.39225 0.14318 0.50152 0.0
H559 H 0.36684 0.15289 0.52777 0.0
C560 C 0.89281 0.28533 0.58227 0.0
C561 C 0.90156 0.29446 0.57019 0.0
C562 C 0.903 0.31077 0.59122 0.0
C563 C 0.90658 0.30709 0.57456 0.0
C564 C 0.89394 0.30148 0.60301 0.0
C565 C 0.8889 0.28887 0.59857 0.0
U566 U 0.88088 0.24892 0.57104 0.0
O567 O 0.88452 0.23919 0.59411 0.0
O568 O 0.86526 0.2352 0.58855 0.0
C569 C 0.8728 0.23337 0.59938 0.0
C570 C 0.88836 0.27215 0.57857 0.0
C571 C 0.86805 0.22265 0.6121 0.0
C572 C 0.86402 0.21526 0.64456 0.0
C573 C 0.8674 0.22481 0.63143 0.0
C574 C 0.86131 0.20102 0.61899 0.0
C575 C 0.86113 0.20328 0.63858 0.0
C576 C 0.86484 0.21068 0.60581 0.0
C577 C 0.88357 0.23868 0.5174 0.0
C578 C 0.88184 0.22339 0.4943 0.0
C579 C 0.88954 0.24483 0.48478 0.0
C580 C 0.8881 0.24787 0.50333 0.0
C581 C 0.88636 0.23253 0.47999 0.0
C582 C 0.88049 0.22647 0.51286 0.0
C583 C 0.88233 0.24168 0.53702 0.0
O584 O 0.87675 0.26425 0.57403 0.0
O585 O 0.89598 0.26768 0.57866 0.0
O586 O 0.89158 0.24558 0.54912 0.0
O587 O 0.87245 0.24202 0.54291 0.0
H588 H 0.90468 0.29183 0.55756 0.0
H589 H 0.91363 0.31391 0.56524 0.0
H590 H 0.89078 0.30394 0.61575 0.0
H591 H 0.88216 0.28188 0.60808 0.0
H592 H 0.86417 0.21744 0.65947 0.0
H593 H 0.8699 0.23405 0.63645 0.0
H594 H 0.85891 0.19184 0.61386 0.0
H595 H 0.86526 0.20888 0.59087 0.0
H596 H 0.87918 0.21381 0.49116 0.0
H597 H 0.89333 0.25218 0.47425 0.0
H598 H 0.89063 0.25739 0.50672 0.0
H599 H 0.87702 0.2193 0.52369 0.0
C600 C 0.95496 0.41134 0.60795 0.0
C601 C 0.95607 0.40297 0.62019 0.0
C602 C 0.93949 0.38528 0.60289 0.0
C603 C 0.94834 0.39 0.6177 0.0
C604 C 0.93801 0.39382 0.59167 0.0
C605 C 0.94568 0.40661 0.59408 0.0
U606 U 0.97943 0.44573 0.62461 0.0
O607 O 0.99598 0.45899 0.60838 0.0
O608 O 0.98068 0.46284 0.61293 0.0
C609 C 0.99176 0.4667 0.60561 0.0
C610 C 0.96392 0.42488 0.60724 0.0
C611 C 0.99504 0.47378 0.58767 0.0
C612 C 0.9931 0.47626 0.5538 0.0
C613 C 0.98906 0.46886 0.57031 0.0
C614 C 1.00909 0.49331 0.57198 0.0
C615 C 1.00334 0.48861 0.55432 0.0
C616 C 1.00491 0.48605 0.58834 0.0
C617 C 0.9895 0.45192 0.67876 0.0
C618 C 1.00235 0.47022 0.69819 0.0
C619 C 0.99432 0.4495 0.71125 0.0
C620 C 0.98848 0.44432 0.69411 0.0
C621 C 1.00139 0.46247 0.71352 0.0
C622 C 0.99646 0.46496 0.6808 0.0
C623 C 0.98299 0.44546 0.66126 0.0
O624 O 0.96051 0.43252 0.61437 0.0
O625 O 0.9758 0.42868 0.60946 0.0
O626 O 0.9894 0.4433 0.6485 0.0
O627 O 0.97468 0.44788 0.65401 0.0
H628 H 0.96317 0.40641 0.63107 0.0
H629 H 0.94977 0.38375 0.62671 0.0
H630 H 0.93104 0.39066 0.58062 0.0
H631 H 0.94463 0.41288 0.58453 0.0
H632 H 0.98813 0.47225 0.54073 0.0
H633 H 0.98134 0.45939 0.5695 0.0
H634 H 1.01717 0.50249 0.57334 0.0
H635 H 1.00966 0.49001 0.60161 0.0
H636 H 1.00781 0.48027 0.69956 0.0
H637 H 0.99325 0.44328 0.72283 0.0
H638 H 0.9831 0.43425 0.69284 0.0
H639 H 0.99737 0.471 0.66906 0.0
C640 C 0.62293 0.55324 0.61288 0.0
C641 C 0.63092 0.56116 0.62702 0.0
C642 C 0.64878 0.56509 0.60768 0.0
C643 C 0.64384 0.56707 0.62441 0.0
C644 C 0.64076 0.5568 0.59398 0.0
C645 C 0.62793 0.55091 0.59659 0.0
U646 U 0.58702 0.5419 0.62442 0.0
O647 O 0.57651 0.54554 0.6026 0.0
O648 O 0.57212 0.52608 0.60877 0.0
C649 C 0.56985 0.53361 0.59861 0.0
C650 C 0.60948 0.54838 0.61314 0.0
C651 C 0.56004 0.52886 0.58437 0.0
C652 C 0.55384 0.52739 0.55153 0.0
C653 C 0.56313 0.53109 0.56522 0.0
C654 C 0.53824 0.51868 0.57623 0.0
C655 C 0.5411 0.52123 0.55669 0.0
C656 C 0.54759 0.52256 0.58986 0.0
C657 C 0.57785 0.54512 0.67851 0.0
C658 C 0.56304 0.54567 0.70044 0.0
C659 C 0.58349 0.55052 0.71136 0.0
C660 C 0.58643 0.54836 0.69323 0.0
C661 C 0.57191 0.54955 0.71507 0.0
C662 C 0.56604 0.54353 0.68216 0.0
C663 C 0.58178 0.54412 0.65936 0.0
O664 O 0.60178 0.53714 0.61961 0.0
O665 O 0.60533 0.55627 0.61411 0.0
O666 O 0.58498 0.55311 0.64689 0.0
O667 O 0.58137 0.5339 0.65318 0.0
H668 H 0.62721 0.56315 0.63961 0.0
H669 H 0.64996 0.57357 0.63503 0.0
H670 H 0.64441 0.55533 0.58087 0.0
H671 H 0.62187 0.54495 0.58543 0.0
H672 H 0.557 0.52982 0.53712 0.0
H673 H 0.5728 0.53595 0.56083 0.0
H674 H 0.52885 0.51365 0.58149 0.0
H675 H 0.54508 0.52073 0.60472 0.0
H676 H 0.55406 0.54487 0.70288 0.0
H677 H 0.59042 0.55323 0.72241 0.0
H678 H 0.59556 0.54956 0.6906 0.0
H679 H 0.5593 0.54097 0.67084 0.0
C680 C 0.47918 0.07657 0.60842 0.0
C681 C 0.47505 0.07911 0.6255 0.0
C682 C 0.46766 0.09145 0.60835 0.0
C683 C 0.46947 0.08659 0.62548 0.0
C684 C 0.47204 0.08889 0.59145 0.0
C685 C 0.47779 0.08169 0.59157 0.0
U686 U 0.48995 0.05287 0.62452 0.0
O687 O 0.48732 0.03664 0.60807 0.0
O688 O 0.50625 0.0521 0.61365 0.0
C689 C 0.49932 0.04108 0.60588 0.0
C690 C 0.48454 0.0683 0.60695 0.0
C691 C 0.50355 0.03814 0.58805 0.0
C692 C 0.50309 0.0356 0.55374 0.0
C693 C 0.50036 0.04043 0.56995 0.0
C694 C 0.51266 0.02675 0.57351 0.0
C695 C 0.50902 0.0285 0.55553 0.0
C696 C 0.50995 0.03153 0.58958 0.0
C697 C 0.48525 0.04201 0.67828 0.0
C698 C 0.48923 0.02758 0.69626 0.0
C699 C 0.47861 0.03728 0.71109 0.0
C700 C 0.47962 0.04366 0.69433 0.0
C701 C 0.48334 0.0291 0.71239 0.0
C702 C 0.49015 0.03397 0.67927 0.0
C703 C 0.48533 0.04875 0.66099 0.0
O704 O 0.49535 0.07191 0.61503 0.0
O705 O 0.47679 0.05625 0.60829 0.0
O706 O 0.47714 0.04233 0.64778 0.0
O707 O 0.4961 0.05741 0.65426 0.0
H708 H 0.47607 0.07528 0.63873 0.0
H709 H 0.46657 0.0885 0.63894 0.0
H710 H 0.47067 0.09202 0.57783 0.0
H711 H 0.48087 0.0798 0.57822 0.0
H712 H 0.50014 0.03696 0.53993 0.0
H713 H 0.49536 0.04546 0.56845 0.0
H714 H 0.5171 0.02118 0.57521 0.0
H715 H 0.51239 0.02958 0.60341 0.0
H716 H 0.49311 0.02147 0.69675 0.0
H717 H 0.47374 0.03854 0.72287 0.0
H718 H 0.47573 0.04978 0.69381 0.0
H719 H 0.49457 0.03258 0.66699 0.0
C720 C 0.6234 0.08216 0.11555 0.0
C721 C 0.63255 0.08461 0.12916 0.0
C722 C 0.64873 0.09826 0.10691 0.0
C723 C 0.64511 0.09262 0.1249 0.0
C724 C 0.63945 0.09582 0.09339 0.0
C725 C 0.62689 0.08785 0.0977 0.0
U726 U 0.58712 0.05708 0.12688 0.0
O727 O 0.57343 0.05904 0.10922 0.0
O728 O 0.5775 0.04378 0.10381 0.0
C729 C 0.57162 0.0496 0.09847 0.0
C730 C 0.6103 0.07314 0.11952 0.0
C731 C 0.56096 0.04342 0.0856 0.0
C732 C 0.55303 0.04216 0.05372 0.0
C733 C 0.56213 0.04852 0.06747 0.0
C734 C 0.54119 0.02568 0.07638 0.0
C735 C 0.54261 0.03054 0.0579 0.0
C736 C 0.55033 0.03207 0.09017 0.0
C737 C 0.5767 0.04335 0.18027 0.0
C738 C 0.56115 0.03137 0.20422 0.0
C739 C 0.58304 0.04002 0.21117 0.0
C740 C 0.58608 0.04517 0.19298 0.0
C741 C 0.57052 0.03306 0.21719 0.0
C742 C 0.56424 0.03643 0.18595 0.0
C743 C 0.5797 0.04798 0.16074 0.0
O744 O 0.60596 0.06106 0.11892 0.0
O745 O 0.60233 0.07666 0.12455 0.0
O746 O 0.57969 0.05808 0.15504 0.0
O747 O 0.58411 0.04309 0.14862 0.0
H748 H 0.62999 0.08025 0.14301 0.0
H749 H 0.652 0.0944 0.13571 0.0
H750 H 0.6419 0.09984 0.07932 0.0
H751 H 0.61992 0.08592 0.08696 0.0
H752 H 0.55443 0.04607 0.03959 0.0
H753 H 0.57035 0.05723 0.06371 0.0
H754 H 0.53315 0.01679 0.07999 0.0
H755 H 0.5493 0.02799 0.10411 0.0
H756 H 0.55143 0.02628 0.20814 0.0
H757 H 0.59059 0.04127 0.22024 0.0
H758 H 0.59576 0.05038 0.18874 0.0
H759 H 0.55687 0.03487 0.17617 0.0
C760 C 0.94985 0.54981 0.11376 0.0
C761 C 0.94336 0.55206 0.12802 0.0
C762 C 0.93418 0.5595 0.10434 0.0
C763 C 0.93554 0.55681 0.12337 0.0
C764 C 0.94075 0.5571 0.0902 0.0
C765 C 0.94844 0.55227 0.09487 0.0
U766 U 0.9746 0.53879 0.12827 0.0
O767 O 0.97397 0.52317 0.11221 0.0
O768 O 0.98905 0.54272 0.10674 0.0
C769 C 0.98391 0.53084 0.10241 0.0
C770 C 0.95883 0.54582 0.11843 0.0
C771 C 0.9892 0.52633 0.08801 0.0
C772 C 0.99383 0.52479 0.055 0.0
C773 C 0.98776 0.52798 0.06873 0.0
C774 C 1.00234 0.51774 0.07981 0.0
C775 C 1.00142 0.51983 0.06037 0.0
C776 C 0.99638 0.52106 0.09348 0.0
C777 C 0.98836 0.54204 0.181 0.0
C778 C 1.00092 0.53622 0.20018 0.0
C779 C 0.99522 0.55096 0.21233 0.0
C780 C 0.98869 0.54977 0.1957 0.0
C781 C 1.00151 0.54427 0.21492 0.0
C782 C 0.99444 0.53516 0.18328 0.0
C783 C 0.98159 0.54177 0.16378 0.0
O784 O 0.97089 0.55347 0.11787 0.0
O785 O 0.95521 0.5344 0.12413 0.0
O786 O 0.97261 0.53112 0.15715 0.0
O787 O 0.98728 0.55049 0.15091 0.0
H788 H 0.94445 0.55031 0.14275 0.0
H789 H 0.93055 0.55828 0.13473 0.0
H790 H 0.94031 0.55929 0.07547 0.0
H791 H 0.95352 0.55072 0.08371 0.0
H792 H 0.99293 0.52671 0.04031 0.0
H793 H 0.98223 0.53207 0.06431 0.0
H794 H 1.00773 0.51359 0.0846 0.0
H795 H 0.99755 0.51971 0.10836 0.0
H796 H 1.00543 0.53072 0.20165 0.0
H797 H 0.99561 0.55751 0.22285 0.0
H798 H 0.98403 0.55515 0.19417 0.0
H799 H 0.99423 0.52907 0.17208 0.0
C800 C 0.48285 0.40873 0.11373 0.0
C801 C 0.47681 0.40135 0.12959 0.0
C802 C 0.47098 0.38251 0.11095 0.0
C803 C 0.47101 0.38831 0.12825 0.0
C804 C 0.47752 0.39009 0.09545 0.0
C805 C 0.48341 0.40304 0.0969 0.0
U806 U 0.49353 0.44418 0.12662 0.0
O807 O 0.50932 0.45997 0.11196 0.0
O808 O 0.48983 0.45551 0.10652 0.0
C809 C 0.50174 0.46275 0.10302 0.0
C810 C 0.48766 0.42223 0.11304 0.0
C811 C 0.50596 0.47194 0.08775 0.0
C812 C 0.50764 0.47769 0.05454 0.0
C813 C 0.50448 0.46856 0.06855 0.0
C814 C 0.51424 0.49354 0.07895 0.0
C815 C 0.51233 0.4903 0.05961 0.0
C816 C 0.51098 0.48444 0.09281 0.0
C817 C 0.4905 0.45332 0.18035 0.0
C818 C 0.491 0.47014 0.19897 0.0
C819 C 0.48678 0.45088 0.21422 0.0
C820 C 0.4879 0.44622 0.19687 0.0
C821 C 0.48834 0.46287 0.21557 0.0
C822 C 0.4921 0.46538 0.18137 0.0
C823 C 0.49056 0.44711 0.16262 0.0
O824 O 0.47968 0.42621 0.11444 0.0
O825 O 0.49872 0.42992 0.12005 0.0
O826 O 0.50109 0.44868 0.15573 0.0
O827 O 0.48188 0.44454 0.14988 0.0
H828 H 0.47629 0.4056 0.14273 0.0
H829 H 0.46631 0.38278 0.14063 0.0
H830 H 0.4776 0.38608 0.08184 0.0
H831 H 0.48799 0.40863 0.08448 0.0
H832 H 0.50591 0.47474 0.03986 0.0
H833 H 0.5006 0.45888 0.06444 0.0
H834 H 0.51822 0.50312 0.08353 0.0
H835 H 0.51221 0.48716 0.10762 0.0
H836 H 0.49226 0.47944 0.19964 0.0
H837 H 0.48446 0.44494 0.2266 0.0
H838 H 0.48649 0.43685 0.1963 0.0
H839 H 0.49404 0.47099 0.16868 0.0
C840 C 0.41955 0.28337 0.08384 0.0
C841 C 0.4254 0.29031 0.06743 0.0
C842 C 0.43569 0.30944 0.08638 0.0
C843 C 0.43346 0.3033 0.06872 0.0
C844 C 0.42986 0.30232 0.1026 0.0
C845 C 0.42189 0.28951 0.1013 0.0
U846 U 0.39538 0.24886 0.06707 0.0
O847 O 0.39422 0.23174 0.0787 0.0
O848 O 0.3792 0.23596 0.08424 0.0
C849 C 0.38332 0.22813 0.08651 0.0
C850 C 0.4111 0.26975 0.08414 0.0
C851 C 0.37971 0.22036 0.1037 0.0
C852 C 0.37739 0.21674 0.13784 0.0
C853 C 0.38203 0.22505 0.12235 0.0
C854 C 0.36813 0.19931 0.116 0.0
C855 C 0.37042 0.20375 0.13473 0.0
C856 C 0.37279 0.20749 0.10078 0.0
C857 C 0.38358 0.24154 1.0139 0.0
C858 C 0.36965 0.22254 0.99658 0.0
C859 C 0.37693 0.2427 0.98196 0.0
C860 C 0.3838 0.24851 0.99818 0.0
C861 C 0.3697 0.22962 0.9808 0.0
C862 C 0.37651 0.22846 1.01306 0.0
C863 C 0.39081 0.24863 0.03063 0.0
O864 O 0.39912 0.26568 0.08295 0.0
O865 O 0.41456 0.26246 0.07583 0.0
O866 O 0.39935 0.24637 0.03737 0.0
O867 O 0.38486 0.25109 0.04381 0.0
H868 H 0.42373 0.28574 0.05378 0.0
H869 H 0.43777 0.30855 0.05594 0.0
H870 H 0.43153 0.30665 0.11646 0.0
H871 H 0.41756 0.28432 0.11414 0.0
H872 H 0.37934 0.22044 0.15214 0.0
H873 H 0.38729 0.23501 0.12489 0.0
H874 H 0.36255 0.18943 0.11301 0.0
H875 H 0.37074 0.20371 0.08652 0.0
H876 H 0.36436 0.21245 0.99622 0.0
H877 H 0.37705 0.2486 0.97057 0.0
H878 H 0.38917 0.25861 0.99856 0.0
H879 H 0.37623 0.22287 0.02506 0.0
C880 C 0.74838 0.14454 0.08414 0.0
C881 C 0.74054 0.14119 0.06815 0.0
C882 C 0.72235 0.13307 0.08898 0.0
C883 C 0.72753 0.13551 0.07059 0.0
C884 C 0.73033 0.13696 0.10467 0.0
C885 C 0.74313 0.14261 0.10226 0.0
U886 U 0.78312 0.15518 0.06705 0.0
O887 O 0.79988 0.17133 0.0792 0.0
O888 O 0.79597 0.15212 0.08462 0.0
C889 C 0.8036 0.16412 0.08704 0.0
C890 C 0.76196 0.14958 0.08344 0.0
C891 C 0.81161 0.16837 0.104 0.0
C892 C 0.81574 0.16803 0.13774 0.0
C893 C 0.80723 0.16506 0.1227 0.0
C894 C 0.83281 0.17812 0.11553 0.0
C895 C 0.82869 0.17425 0.1342 0.0
C896 C 0.82441 0.17511 0.10071 0.0
C897 C 0.79051 0.15143 1.01326 0.0
C898 C 0.80785 0.15229 0.99572 0.0
C899 C 0.78905 0.14812 0.97925 0.0
C900 C 0.78388 0.14897 0.99628 0.0
C901 C 0.80106 0.14976 0.97869 0.0
C902 C 0.80262 0.15317 1.013 0.0
C903 C 0.7838 0.15124 0.03061 0.0
O904 O 0.76606 0.14169 0.08198 0.0
O905 O 0.76922 0.16047 0.07551 0.0
O906 O 0.78559 0.16188 0.03749 0.0
O907 O 0.78181 0.14284 0.04361 0.0
H908 H 0.74441 0.14262 0.05399 0.0
H909 H 0.72153 0.13251 0.05826 0.0
H910 H 0.7266 0.13523 0.11895 0.0
H911 H 0.74898 0.14516 0.11475 0.0
H912 H 0.81214 0.16491 0.1519 0.0
H913 H 0.79734 0.15984 0.12556 0.0
H914 H 0.84262 0.18338 0.11215 0.0
H915 H 0.82797 0.17779 0.08641 0.0
H916 H 0.81716 0.15361 0.99563 0.0
H917 H 0.78351 0.14595 0.96646 0.0
H918 H 0.77451 0.14747 0.99623 0.0
H919 H 0.80788 0.15503 0.02602 0.0
C920 C 0.88659 0.61229 0.08435 0.0
C921 C 0.89337 0.61062 0.06975 0.0
C922 C 0.89763 0.59739 0.09069 0.0
C923 C 0.89881 0.60312 0.07289 0.0
C924 C 0.89025 0.59864 0.10464 0.0
C925 C 0.88489 0.60602 0.10153 0.0
U926 U 0.87643 0.63664 0.06656 0.0
O927 O 0.86078 0.63786 0.07907 0.0
O928 O 0.88 0.65323 0.08301 0.0
C929 C 0.86813 0.64898 0.08625 0.0
C930 C 0.8819 0.62114 0.08358 0.0
C931 C 0.86463 0.65239 0.10432 0.0
C932 C 0.85882 0.64949 0.13773 0.0
C933 C 0.86226 0.64554 0.12121 0.0
C934 C 0.86 0.66693 0.1204 0.0
C935 C 0.85772 0.66031 0.13749 0.0
C936 C 0.86346 0.66305 0.10413 0.0
C937 C 0.88013 0.64745 1.01279 0.0
C938 C 0.87474 0.66073 0.99438 0.0
C939 C 0.88752 0.65313 0.98042 0.0
C940 C 0.8868 0.64686 0.99718 0.0
C941 C 0.88151 0.66008 0.97883 0.0
C942 C 0.87406 0.65444 1.01139 0.0
C943 C 0.88009 0.6406 0.02992 0.0
O944 O 0.88994 0.63306 0.08135 0.0
O945 O 0.87091 0.61756 0.07617 0.0
O946 O 0.86937 0.63223 0.0372 0.0
O947 O 0.88874 0.64679 0.04265 0.0
H948 H 0.89478 0.61538 0.05631 0.0
H949 H 0.9044 0.60232 0.06178 0.0
H950 H 0.8888 0.59411 0.11829 0.0
H951 H 0.87967 0.60713 0.11293 0.0
H952 H 0.85721 0.64421 0.15069 0.0
H953 H 0.86308 0.63725 0.12164 0.0
H954 H 0.85897 0.67509 0.11945 0.0
H955 H 0.86514 0.66839 0.0912 0.0
H956 H 0.87014 0.66618 0.99342 0.0
H957 H 0.89285 0.65257 0.96865 0.0
H958 H 0.89155 0.64155 0.99799 0.0
H959 H 0.8689 0.65506 0.02333 0.0
C960 C 0.41389 0.94902 0.91668 0.0
C961 C 0.40653 0.94822 0.90107 0.0
C962 C 0.3877 0.93367 0.91861 0.0
C963 C 0.39353 0.94061 0.90204 0.0
C964 C 0.39528 0.93443 0.93393 0.0
C965 C 0.40816 0.94203 0.93296 0.0
U966 U 0.44949 0.97316 0.90398 0.0
O967 O 0.46132 0.98831 0.92386 0.0
O968 O 0.4649 0.97263 0.91876 0.0
C969 C 0.46817 0.98322 0.92749 0.0
C970 C 0.42742 0.95751 0.91759 0.0
C971 C 0.47743 0.98785 0.94279 0.0
C972 C 0.48355 0.98895 0.97582 0.0
C973 C 0.47464 0.98321 0.96142 0.0
C974 C 0.49801 1.00367 0.95292 0.0
C975 C 0.49518 0.99944 0.97169 0.0
C976 C 0.48922 0.99789 0.93862 0.0
C977 C 0.45874 0.98537 0.85027 0.0
C978 C 0.47552 1.00247 0.83283 0.0
C979 C 0.45685 0.9875 0.81633 0.0
C980 C 0.45202 0.98112 0.83332 0.0
C981 C 0.46853 0.99837 0.81594 0.0
C982 C 0.47066 0.99599 0.84995 0.0
C983 C 0.45224 0.97895 0.86782 0.0
O984 O 0.43492 0.95387 0.91068 0.0
O985 O 0.43171 0.96956 0.91624 0.0
O986 O 0.44997 0.98523 0.8807 0.0
O987 O 0.45367 0.96988 0.87471 0.0
H988 H 0.41078 0.95364 0.88838 0.0
H989 H 0.38806 0.94046 0.89 0.0
H990 H 0.39133 0.92908 0.94675 0.0
H991 H 0.4137 0.94255 0.94518 0.0
H992 H 0.48118 0.9856 0.99027 0.0
H993 H 0.46553 0.97547 0.9649 0.0
H994 H 0.50693 1.01169 0.94942 0.0
H995 H 0.49151 1.00156 0.92432 0.0
H996 H 0.48457 1.01085 0.83284 0.0
H997 H 0.4512 0.98424 0.80363 0.0
H998 H 0.44276 0.97301 0.83333 0.0
H999 H 0.47599 0.99947 0.8629 0.0
C1000 C 0.0831 0.47288 0.9165 0.0
C1001 C 0.08412 0.46514 0.90299 0.0
C1002 C 0.09908 0.46317 0.92317 0.0
C1003 C 0.09213 0.4604 0.90621 0.0
C1004 C 0.09789 0.47095 0.93658 0.0
C1005 C 0.09009 0.47582 0.93318 0.0
U1006 U 0.05853 0.48454 0.90465 0.0
O1007 O 0.04454 0.48078 0.92696 0.0
O1008 O 0.05967 0.50022 0.92104 0.0
C1009 C 0.04991 0.49268 0.93127 0.0
C1010 C 0.07441 0.47757 0.91423 0.0
C1011 C 0.04473 0.49752 0.94529 0.0
C1012 C 0.03957 0.49886 0.97805 0.0
C1013 C 0.04538 0.49524 0.96456 0.0
C1014 C 0.03276 0.50749 0.95304 0.0
C1015 C 0.03297 0.50484 0.97244 0.0
C1016 C 0.03854 0.5038 0.93957 0.0
C1017 C 0.04613 0.48197 0.85061 0.0
C1018 C 0.03007 0.47986 0.82876 0.0
C1019 C 0.04784 0.47869 0.81717 0.0
C1020 C 0.05267 0.48066 0.83549 0.0
C1021 C 0.03632 0.47794 0.81363 0.0
C1022 C 0.03492 0.48179 0.84718 0.0
C1023 C 0.05079 0.48288 0.86994 0.0
O1024 O 0.07805 0.48906 0.90887 0.0
O1025 O 0.06237 0.46978 0.91352 0.0
O1026 O 0.04499 0.47379 0.88224 0.0
O1027 O 0.06084 0.49285 0.87612 0.0
H1028 H 0.07875 0.46277 0.89001 0.0
H1029 H 0.09289 0.45463 0.89537 0.0
H1030 H 0.10276 0.47308 0.95 0.0
H1031 H 0.0893 0.48168 0.94386 0.0
H1032 H 0.03985 0.4965 0.99275 0.0
H1033 H 0.05014 0.49037 0.96915 0.0
H1034 H 0.02803 0.51232 0.94819 0.0
H1035 H 0.03798 0.50564 0.92469 0.0
H1036 H 0.02118 0.4793 0.82655 0.0
H1037 H 0.05303 0.47753 0.8058 0.0
H1038 H 0.06137 0.48083 0.83793 0.0
H1039 H 0.0298 0.48285 0.85879 0.0
C1040 C 0.55873 0.61861 0.91769 0.0
C1041 C 0.56359 0.62603 0.90139 0.0
C1042 C 0.56908 0.6446 0.92028 0.0
C1043 C 0.56867 0.63902 0.90268 0.0
C1044 C 0.56418 0.6371 0.93639 0.0
C1045 C 0.55899 0.62423 0.93505 0.0
U1046 U 0.54764 0.58303 0.90472 0.0
O1047 O 0.551 0.5716 0.92506 0.0
O1048 O 0.53162 0.56734 0.9192 0.0
C1049 C 0.53905 0.56449 0.92843 0.0
C1050 C 0.55381 0.6051 0.91806 0.0
C1051 C 0.53463 0.55515 0.94352 0.0
C1052 C 0.5332 0.54917 0.97659 0.0
C1053 C 0.53678 0.55846 0.96274 0.0
C1054 C 0.52498 0.53335 0.95203 0.0
C1055 C 0.52748 0.53649 0.97133 0.0
C1056 C 0.52857 0.54259 0.9383 0.0
C1057 C 0.55082 0.57394 0.85109 0.0
C1058 C 0.54614 0.55598 0.83139 0.0
C1059 C 0.55747 0.57685 0.8183 0.0
C1060 C 0.55677 0.58175 0.83566 0.0
C1061 C 0.55233 0.56394 0.81592 0.0
C1062 C 0.54538 0.56097 0.84896 0.0
C1063 C 0.55073 0.58014 0.86879 0.0
O1064 O 0.54274 0.59752 0.91099 0.0
O1065 O 0.56167 0.60095 0.9169 0.0
O1066 O 0.55938 0.58269 0.88156 0.0
O1067 O 0.54016 0.5785 0.87562 0.0
H1068 H 0.56354 0.62184 0.88788 0.0
H1069 H 0.57247 0.64472 0.89011 0.0
H1070 H 0.56438 0.64121 0.95005 0.0
H1071 H 0.55532 0.61863 0.94776 0.0
H1072 H 0.53537 0.55198 0.99128 0.0
H1073 H 0.54144 0.56817 0.96697 0.0
H1074 H 0.52031 0.52372 0.94743 0.0
H1075 H 0.52682 0.53993 0.92349 0.0
H1076 H 0.54214 0.54599 0.83002 0.0
H1077 H 0.56202 0.58325 0.80666 0.0
H1078 H 0.56092 0.59178 0.83703 0.0
H1079 H 0.54071 0.55479 0.86079 0.0
C1080 C 0.62202 0.74439 0.94168 0.0
C1081 C 0.62223 0.73756 0.95742 0.0
C1082 C 0.60787 0.71797 0.94136 0.0
C1083 C 0.61513 0.72447 0.95732 0.0
C1084 C 0.60741 0.725 0.92604 0.0
C1085 C 0.61433 0.73801 0.92629 0.0
U1086 U 0.64575 0.77887 0.95725 0.0
O1087 O 0.66225 0.79236 0.94118 0.0
O1088 O 0.6468 0.79598 0.94593 0.0
C1089 C 0.65793 0.80001 0.93867 0.0
C1090 C 0.63037 0.75799 0.93971 0.0
C1091 C 0.66128 0.80732 0.921 0.0
C1092 C 0.65947 0.81025 0.88725 0.0
C1093 C 0.65549 0.80256 0.90343 0.0
C1094 C 0.67495 0.8273 0.90616 0.0
C1095 C 0.66934 0.82269 0.8885 0.0
C1096 C 0.67094 0.81971 0.92218 0.0
C1097 C 0.65608 0.78493 1.01128 0.0
C1098 C 0.66957 0.80323 0.03032 0.0
C1099 C 0.66046 0.78258 0.04404 0.0
C1100 C 0.65459 0.77738 0.02693 0.0
C1101 C 0.66814 0.79554 0.04599 0.0
C1102 C 0.66358 0.79795 1.01299 0.0
C1103 C 0.64954 0.77844 0.99381 0.0
O1104 O 0.62682 0.76539 0.94732 0.0
O1105 O 0.64236 0.76218 0.94135 0.0
O1106 O 0.65596 0.77647 0.98083 0.0
O1107 O 0.64107 0.78072 0.98682 0.0
H1108 H 0.62808 0.74231 0.96952 0.0
H1109 H 0.61552 0.71945 0.96963 0.0
H1110 H 0.60216 0.7205 0.91336 0.0
H1111 H 0.61408 0.74311 0.91398 0.0
H1112 H 0.655 0.80647 0.87375 0.0
H1113 H 0.64801 0.79299 0.90223 0.0
H1114 H 0.68241 0.83686 0.90765 0.0
H1115 H 0.67547 0.82356 0.93563 0.0
H1116 H 0.67547 0.81325 0.03134 0.0
H1117 H 0.65888 0.77636 0.05585 0.0
H1118 H 0.64879 0.76733 0.02593 0.0
H1119 H 0.66485 0.80395 1.00102 0.0
C1120 C 0.28774 0.88629 0.9423 0.0
C1121 C 0.29482 0.89399 0.95734 0.0
C1122 C 0.31415 0.89751 0.94202 0.0
C1123 C 0.30787 0.89961 0.95715 0.0
C1124 C 0.30676 0.88931 0.92749 0.0
C1125 C 0.29383 0.88395 0.92755 0.0
U1126 U 0.25325 0.87566 0.95782 0.0
O1127 O 0.23981 0.87862 0.94155 0.0
O1128 O 0.23619 0.85954 0.94646 0.0
C1129 C 0.23218 0.86663 0.93903 0.0
C1130 C 0.27417 0.88121 0.94039 0.0
C1131 C 0.22496 0.86258 0.92121 0.0
C1132 C 0.22264 0.85953 0.88698 0.0
C1133 C 0.23017 0.86306 0.90333 0.0
C1134 C 0.20475 0.8549 0.90636 0.0
C1135 C 0.20981 0.85551 0.88829 0.0
C1136 C 0.21222 0.85841 0.92251 0.0
C1137 C 0.2469 0.87941 1.01199 0.0
C1138 C 0.22971 0.87919 0.029 0.0
C1139 C 0.24837 0.88339 0.04595 0.0
C1140 C 0.25348 0.88204 0.0291 0.0
C1141 C 0.23656 0.88223 0.04601 0.0
C1142 C 0.23483 0.87772 1.01203 0.0
C1143 C 0.2536 0.87965 0.99453 0.0
O1144 O 0.26668 0.87017 0.94771 0.0
O1145 O 0.27003 0.88907 0.94225 0.0
O1146 O 0.25538 0.88805 0.98165 0.0
O1147 O 0.25153 0.86899 0.98734 0.0
H1148 H 0.29032 0.89598 0.9689 0.0
H1149 H 0.31294 0.90592 0.96861 0.0
H1150 H 0.31081 0.88685 0.91589 0.0
H1151 H 0.28855 0.878 0.91581 0.0
H1152 H 0.22692 0.86021 0.87331 0.0
H1153 H 0.24001 0.86627 0.90198 0.0
H1154 H 0.19492 0.85159 0.90813 0.0
H1155 H 0.208 0.85793 0.93618 0.0
H1156 H 0.22059 0.87833 0.02876 0.0
H1157 H 0.25389 0.88593 0.05879 0.0
H1158 H 0.26283 0.88347 0.02932 0.0
H1159 H 0.22959 0.87572 0.99897 0.0
C1160 C 0.14632 0.41017 0.9414 0.0
C1161 C 0.13963 0.4111 0.95684 0.0
C1162 C 0.13454 0.42457 0.93812 0.0
C1163 C 0.1338 0.41834 0.95521 0.0
C1164 C 0.14163 0.42396 0.92315 0.0
C1165 C 0.14749 0.41691 0.92483 0.0
U1166 U 0.15702 0.38619 0.95783 0.0
O1167 O 0.15431 0.37001 0.94115 0.0
O1168 O 0.17326 0.38554 0.94635 0.0
C1169 C 0.16629 0.3745 0.93864 0.0
C1170 C 0.15136 0.40158 0.94076 0.0
C1171 C 0.17033 0.37164 0.92057 0.0
C1172 C 0.16954 0.36928 0.88625 0.0
C1173 C 0.16682 0.37387 0.90273 0.0
C1174 C 0.17953 0.36056 0.90531 0.0
C1175 C 0.17564 0.36226 0.8874 0.0
C1176 C 0.17694 0.36523 0.92163 0.0
C1177 C 0.15313 0.37642 1.01254 0.0
C1178 C 0.15201 0.35971 0.03229 0.0
C1179 C 0.14943 0.37614 0.0463 0.0
C1180 C 0.15125 0.3818 0.02869 0.0
C1181 C 0.14933 0.36481 0.04829 0.0
C1182 C 0.15383 0.36546 0.01438 0.0
C1183 C 0.15311 0.38224 0.99435 0.0
O1184 O 0.16233 0.40522 0.9483 0.0
O1185 O 0.14352 0.38958 0.94261 0.0
O1186 O 0.14478 0.37545 0.98151 0.0
O1187 O 0.1637 0.39103 0.98732 0.0
H1188 H 0.13855 0.40594 0.96978 0.0
H1189 H 0.12824 0.41858 0.96687 0.0
H1190 H 0.14223 0.42858 0.90981 0.0
H1191 H 0.15256 0.41629 0.91274 0.0
H1192 H 0.16662 0.37099 0.87267 0.0
H1193 H 0.16171 0.37881 0.90159 0.0
H1194 H 0.18408 0.3551 0.90693 0.0
H1195 H 0.17965 0.36335 0.93528 0.0
H1196 H 0.15202 0.35099 0.03343 0.0
H1197 H 0.14768 0.38046 0.05836 0.0
H1198 H 0.15073 0.39025 0.02759 0.0
H1199 H 0.1553 0.36116 1.00202 0.0
C1200 C 0.28959 0.41544 0.44887 0.0
C1201 C 0.29721 0.41697 0.46443 0.0
C1202 C 0.31563 0.42978 0.44506 0.0
C1203 C 0.31015 0.4242 0.46258 0.0
C1204 C 0.30783 0.42855 0.4298 0.0
C1205 C 0.29495 0.42148 0.43174 0.0
U1206 U 0.25359 0.39089 0.46011 0.0
O1207 O 0.23919 0.39221 0.44346 0.0
O1208 O 0.24315 0.37676 0.43841 0.0
C1209 C 0.23703 0.3824 0.43338 0.0
C1210 C 0.27615 0.40684 0.44909 0.0
C1211 C 0.22683 0.37656 0.41987 0.0
C1212 C 0.21958 0.37497 0.38756 0.0
C1213 C 0.22855 0.38136 0.40145 0.0
C1214 C 0.20681 0.35931 0.41081 0.0
C1215 C 0.20871 0.36372 0.392 0.0
C1216 C 0.21588 0.36563 0.4246 0.0
C1217 C 0.24369 0.3779 0.51386 0.0
C1218 C 0.22878 0.36167 0.53474 0.0
C1219 C 0.24845 0.37795 0.54711 0.0
C1220 C 0.25173 0.38333 0.52919 0.0
C1221 C 0.23714 0.36678 0.55008 0.0
C1222 C 0.23206 0.3672 0.51671 0.0
C1223 C 0.2481 0.38323 0.49499 0.0
O1224 O 0.27193 0.39478 0.45 0.0
O1225 O 0.26853 0.4104 0.45574 0.0
O1226 O 0.24764 0.39301 0.48883 0.0
O1227 O 0.25133 0.37751 0.48245 0.0
H1228 H 0.29319 0.41237 0.47777 0.0
H1229 H 0.31588 0.42517 0.47475 0.0
H1230 H 0.31165 0.43255 0.41606 0.0
H1231 H 0.28914 0.42031 0.41955 0.0
H1232 H 0.22143 0.37857 0.37321 0.0
H1233 H 0.23707 0.38978 0.39762 0.0
H1234 H 0.19842 0.35084 0.4148 0.0
H1235 H 0.21447 0.36184 0.43882 0.0
H1236 H 0.21999 0.3531 0.53636 0.0
H1237 H 0.25496 0.38252 0.55858 0.0
H1238 H 0.26071 0.39165 0.52721 0.0
H1239 H 0.22571 0.36294 0.50494 0.0
C1240 C 0.61759 0.8827 0.44455 0.0
C1241 C 0.61162 0.8837 0.46088 0.0
C1242 C 0.60142 0.89256 0.44185 0.0
C1243 C 0.60354 0.88858 0.45951 0.0
C1244 C 0.60739 0.89141 0.42571 0.0
C1245 C 0.61535 0.88656 0.42708 0.0
U1246 U 0.64152 0.87197 0.46118 0.0
O1247 O 0.64248 0.85601 0.44909 0.0
O1248 O 0.65771 0.87529 0.44406 0.0
C1249 C 0.65348 0.86332 0.44155 0.0
C1250 C 0.62603 0.87752 0.44434 0.0
C1251 C 0.65729 0.85923 0.42452 0.0
C1252 C 0.65954 0.85763 0.39046 0.0
C1253 C 0.65479 0.86127 0.40582 0.0
C1254 C 0.66931 0.85021 0.41257 0.0
C1255 C 0.66683 0.85199 0.39376 0.0
C1256 C 0.66452 0.85367 0.42766 0.0
C1257 C 0.65286 0.87563 0.51461 0.0
C1258 C 0.66739 0.87138 0.53182 0.0
C1259 C 0.65762 0.88162 0.54762 0.0
C1260 C 0.65129 0.88099 0.53104 0.0
C1261 C 0.666 0.8771 0.54827 0.0
C1262 C 0.66085 0.87063 0.51505 0.0
C1263 C 0.64596 0.87582 0.4977 0.0
O1264 O 0.63802 0.88538 0.44581 0.0
O1265 O 0.62243 0.86663 0.45232 0.0
O1266 O 0.6373 0.86514 0.49067 0.0
O1267 O 0.65214 0.88437 0.48479 0.0
H1268 H 0.61321 0.88076 0.47455 0.0
H1269 H 0.5991 0.88942 0.47222 0.0
H1270 H 0.60584 0.89419 0.41188 0.0
H1271 H 0.61976 0.88578 0.4143 0.0
H1272 H 0.65744 0.85911 0.37612 0.0
H1273 H 0.6493 0.86568 0.40313 0.0
H1274 H 0.67516 0.84625 0.41574 0.0
H1275 H 0.66669 0.8522 0.44198 0.0
H1276 H 0.67376 0.8678 0.53174 0.0
H1277 H 0.65589 0.88569 0.56001 0.0
H1278 H 0.6451 0.88479 0.53106 0.0
H1279 H 0.66216 0.86639 0.50249 0.0
C1280 C 0.14952 0.74369 0.44433 0.0
C1281 C 0.14394 0.73654 0.46063 0.0
C1282 C 0.13786 0.71724 0.44282 0.0
C1283 C 0.13827 0.72345 0.45992 0.0
C1284 C 0.14391 0.7246 0.42683 0.0
C1285 C 0.14968 0.73761 0.42765 0.0
U1286 U 0.15989 0.77838 0.46039 0.0
O1287 O 0.1758 0.79543 0.44853 0.0
O1288 O 0.15666 0.7915 0.44368 0.0
C1289 C 0.16858 0.79923 0.44102 0.0
C1290 C 0.15452 0.75733 0.44329 0.0
C1291 C 0.17245 0.80636 0.42313 0.0
C1292 C 0.17428 0.80836 0.38875 0.0
C1293 C 0.17112 0.80092 0.40518 0.0
C1294 C 0.18037 0.82663 0.40819 0.0
C1295 C 0.17886 0.82136 0.39002 0.0
C1296 C 0.17713 0.81922 0.42442 0.0
C1297 C 0.15594 0.78495 0.51474 0.0
C1298 C 0.15737 0.80222 0.53348 0.0
C1299 C 0.15166 0.78251 0.54853 0.0
C1300 C 0.15268 0.77772 0.5312 0.0
C1301 C 0.15405 0.79482 0.55008 0.0
C1302 C 0.15832 0.79731 0.51586 0.0
C1303 C 0.15596 0.7786 0.49699 0.0
O1304 O 0.14659 0.76136 0.44511 0.0
O1305 O 0.16542 0.76482 0.45093 0.0
O1306 O 0.16662 0.78065 0.48994 0.0
O1307 O 0.14752 0.77657 0.48409 0.0
H1308 H 0.14375 0.74102 0.47372 0.0
H1309 H 0.13403 0.71821 0.47272 0.0
H1310 H 0.14375 0.72035 0.41334 0.0
H1311 H 0.15392 0.74294 0.41489 0.0
H1312 H 0.17283 0.80384 0.37509 0.0
H1313 H 0.16746 0.79097 0.40386 0.0
H1314 H 0.18419 0.83656 0.41005 0.0
H1315 H 0.17824 0.8236 0.43815 0.0
H1316 H 0.1593 0.81176 0.53414 0.0
H1317 H 0.14873 0.77637 0.56072 0.0
H1318 H 0.15066 0.76814 0.53062 0.0
H1319 H 0.16079 0.80306 0.50326 0.0
C1320 C 0.08632 0.61727 0.41775 0.0
C1321 C 0.09203 0.62422 0.40128 0.0
C1322 C 0.10243 0.64349 0.4201 0.0
C1323 C 0.10004 0.63725 0.40247 0.0
C1324 C 0.09675 0.63633 0.43639 0.0
C1325 C 0.0888 0.62347 0.43518 0.0
U1326 U 0.06251 0.58251 0.4009 0.0
O1327 O 0.06134 0.56555 0.41326 0.0
O1328 O 0.04592 0.5693 0.41708 0.0
C1329 C 0.05016 0.56165 0.42021 0.0
C1330 C 0.07788 0.60357 0.41811 0.0
C1331 C 0.04646 0.55441 0.43804 0.0
C1332 C 0.04825 0.55136 0.47177 0.0
C1333 C 0.05268 0.55884 0.45539 0.0
C1334 C 0.03145 0.53514 0.45351 0.0
C1335 C 0.03744 0.5394 0.47112 0.0
C1336 C 0.03596 0.54249 0.43728 0.0
C1337 C 0.05163 0.57539 0.34717 0.0
C1338 C 0.03566 0.55704 0.33066 0.0
C1339 C 0.04673 0.57681 0.3142 0.0
C1340 C 0.05368 0.58232 0.33051 0.0
C1341 C 0.03754 0.5642 0.3142 0.0
C1342 C 0.04271 0.5626 0.34713 0.0
C1343 C 0.05852 0.58235 0.36423 0.0
O1344 O 0.06589 0.59936 0.41646 0.0
O1345 O 0.08151 0.59629 0.41025 0.0
O1346 O 0.06696 0.58008 0.3714 0.0
O1347 O 0.0523 0.58468 0.37711 0.0
H1348 H 0.09028 0.61963 0.38763 0.0
H1349 H 0.10419 0.64245 0.38958 0.0
H1350 H 0.09852 0.64064 0.45026 0.0
H1351 H 0.0846 0.6183 0.44808 0.0
H1352 H 0.05334 0.55497 0.48487 0.0
H1353 H 0.06086 0.56802 0.45629 0.0
H1354 H 0.02298 0.52624 0.45218 0.0
H1355 H 0.03102 0.5389 0.42402 0.0
H1356 H 0.02847 0.5473 0.33096 0.0
H1357 H 0.04819 0.58253 0.30178 0.0
H1358 H 0.06046 0.5922 0.33028 0.0
H1359 H 0.04094 0.55708 0.35987 0.0
C1360 C 0.41339 0.47684 0.41145 0.0
C1361 C 0.40559 0.476 0.39652 0.0
C1362 C 0.38795 0.46775 0.41815 0.0
C1363 C 0.39294 0.47143 0.39982 0.0
C1364 C 0.39592 0.46887 0.43314 0.0
C1365 C 0.40854 0.47333 0.42978 0.0
U1366 U 0.44965 0.48832 0.40053 0.0
O1367 O 0.46327 0.50402 0.41818 0.0
O1368 O 0.45933 0.48471 0.42352 0.0
C1369 C 0.46509 0.49642 0.42896 0.0
C1370 C 0.42647 0.48096 0.40776 0.0
C1371 C 0.47601 0.50104 0.44119 0.0
C1372 C 0.48455 0.50793 0.47262 0.0
C1373 C 0.47494 0.50449 0.45965 0.0
C1374 C 0.49649 0.50441 0.44872 0.0
C1375 C 0.49543 0.50775 0.46754 0.0
C1376 C 0.48687 0.50114 0.43562 0.0
C1377 C 0.46041 0.48557 0.34726 0.0
C1378 C 0.47627 0.48674 0.32594 0.0
C1379 C 0.45552 0.48004 0.3142 0.0
C1380 C 0.45191 0.48157 0.33228 0.0
C1381 C 0.46775 0.48261 0.31077 0.0
C1382 C 0.47259 0.48816 0.34408 0.0
C1383 C 0.45635 0.4865 0.36633 0.0
O1384 O 0.43095 0.47337 0.40908 0.0
O1385 O 0.43434 0.49242 0.40235 0.0
O1386 O 0.45653 0.49665 0.37229 0.0
O1387 O 0.45278 0.47742 0.3787 0.0
H1388 H 0.40922 0.47861 0.38225 0.0
H1389 H 0.38703 0.47052 0.38793 0.0
H1390 H 0.3924 0.46629 0.44747 0.0
H1391 H 0.4145 0.47398 0.44147 0.0
H1392 H 0.48336 0.5108 0.48659 0.0
H1393 H 0.46654 0.50439 0.46415 0.0
H1394 H 0.50454 0.5039 0.44417 0.0
H1395 H 0.48776 0.49836 0.42139 0.0
H1396 H 0.48579 0.48894 0.32379 0.0
H1397 H 0.44863 0.47658 0.303 0.0
H1398 H 0.44241 0.47942 0.33463 0.0
H1399 H 0.47923 0.49124 0.35562 0.0
C1400 C 0.55418 0.94462 0.4148 0.0
C1401 C 0.5606 0.9436 0.39917 0.0
C1402 C 0.5662 0.93041 0.41776 0.0
C1403 C 0.56648 0.93645 0.40061 0.0
C1404 C 0.5593 0.93112 0.43302 0.0
C1405 C 0.55336 0.93813 0.4315 0.0
U1406 U 0.54306 0.96912 0.40197 0.0
O1407 O 0.52761 0.96902 0.41757 0.0
O1408 O 0.54705 0.98452 0.42187 0.0
C1409 C 0.53523 0.9795 0.4263 0.0
C1410 C 0.54921 0.9532 0.41538 0.0
C1411 C 0.53078 0.98467 0.44108 0.0
C1412 C 0.52438 0.98518 0.47353 0.0
C1413 C 0.52718 0.97915 0.4591 0.0
C1414 C 0.52849 1.002 0.45184 0.0
C1415 C 0.5253 0.99679 0.47006 0.0
C1416 C 0.53119 0.99597 0.43749 0.0
C1417 C 0.54645 0.98177 0.34836 0.0
C1418 C 0.54132 0.99477 0.32876 0.0
C1419 C 0.55409 0.98678 0.31598 0.0
C1420 C 0.55319 0.98082 0.33315 0.0
C1421 C 0.54818 0.99378 0.31362 0.0
C1422 C 0.54046 0.98878 0.34615 0.0
C1423 C 0.54616 0.97517 0.36593 0.0
O1424 O 0.55707 0.96522 0.41402 0.0
O1425 O 0.53813 0.94969 0.40838 0.0
O1426 O 0.5355 0.96642 0.37287 0.0
O1427 O 0.55489 0.98104 0.3787 0.0
H1428 H 0.56135 0.94856 0.38613 0.0
H1429 H 0.57151 0.93592 0.38842 0.0
H1430 H 0.55897 0.92678 0.4465 0.0
H1431 H 0.54851 0.93889 0.44376 0.0
H1432 H 0.52204 0.98107 0.48757 0.0
H1433 H 0.52693 0.97046 0.46216 0.0
H1434 H 0.52923 1.01093 0.44888 0.0
H1435 H 0.53399 1.00034 0.42367 0.0
H1436 H 0.53676 1.00022 0.32715 0.0
H1437 H 0.55943 0.98593 0.30451 0.0
H1438 H 0.55785 0.97544 0.33457 0.0
H1439 H 0.53522 0.98965 0.35775 0.0
H1440 H 0.12573 0.34152 0.12739 0.0
H1441 H 0.15502 0.33246 0.12791 0.0
H1442 H 0.16199 0.3421 0.09657 0.0
H1443 H 0.15956 0.35315 0.06877 0.0
H1444 H 0.12957 0.36128 0.06909 0.0
H1445 H 0.12299 0.35178 0.10014 0.0
C1446 C 0.13356 0.34151 0.12062 0.0
C1447 C 0.13979 0.3362 0.12997 0.0
C1448 C 0.13738 0.34689 0.10264 0.0
C1449 C 0.15012 0.33658 0.12111 0.0
C1450 C 0.15404 0.342 0.10312 0.0
C1451 C 0.15153 0.35272 0.07561 0.0
C1452 C 0.14517 0.35807 0.06668 0.0
C1453 C 0.14771 0.34717 0.09368 0.0
C1454 C 0.13479 0.35746 0.07576 0.0
C1455 C 0.13097 0.35199 0.09353 0.0
H1456 H 0.69209 0.82159 0.12464 0.0
H1457 H 0.69857 0.79045 0.12695 0.0
H1458 H 0.68917 0.78351 0.09593 0.0
H1459 H 0.67924 0.78611 0.06814 0.0
H1460 H 0.67178 0.81653 0.06516 0.0
H1461 H 0.68159 0.82401 0.09625 0.0
C1462 C 0.69137 0.81326 0.11836 0.0
C1463 C 0.69621 0.80666 0.12804 0.0
C1464 C 0.68585 0.80921 0.10035 0.0
C1465 C 0.69522 0.79589 0.11968 0.0
C1466 C 0.68976 0.79184 0.10195 0.0
C1467 C 0.67962 0.79432 0.07431 0.0
C1468 C 0.67468 0.80068 0.06435 0.0
C1469 C 0.68509 0.79843 0.09216 0.0
C1470 C 0.67559 0.81149 0.07243 0.0
C1471 C 0.68111 0.81572 0.09028 0.0
H1472 H 0.22313 0.90703 0.1129 0.0
H1473 H 0.22115 0.87598 0.14384 0.0
H1474 H 0.22518 0.86802 0.11464 0.0
H1475 H 0.23084 0.87068 0.08051 0.0
H1476 H 0.23326 0.90201 0.05021 0.0
H1477 H 0.22814 0.9094 0.07917 0.0
C1478 C 0.22375 0.89861 0.11347 0.0
C1479 C 0.22198 0.89227 0.13085 0.0
C1480 C 0.22638 0.89423 0.09671 0.0
C1481 C 0.22234 0.88108 0.13082 0.0
C1482 C 0.22478 0.87656 0.1141 0.0
C1483 C 0.23005 0.87902 0.08029 0.0
C1484 C 0.23223 0.88573 0.06328 0.0
C1485 C 0.22702 0.88316 0.09702 0.0
C1486 C 0.23138 0.8966 0.06311 0.0
C1487 C 0.22853 0.90085 0.07967 0.0
H1488 H 0.3562 0.14619 0.39492 0.0
H1489 H 0.32222 0.11385 0.41372 0.0
H1490 H 0.32998 0.11729 0.446 0.0
H1491 H 0.34659 0.12912 0.46915 0.0
H1492 H 0.38027 0.16168 0.45092 0.0
H1493 H 0.37225 0.15884 0.41844 0.0
C1494 C 0.35035 0.14001 0.40608 0.0
C1495 C 0.33869 0.12961 0.40161 0.0
C1496 C 0.35476 0.14217 0.42488 0.0
C1497 C 0.3314 0.12169 0.41643 0.0
C1498 C 0.33576 0.12371 0.43504 0.0
C1499 C 0.35204 0.13568 0.45807 0.0
C1500 C 0.36389 0.14567 0.46231 0.0
C1501 C 0.34745 0.13385 0.43943 0.0
C1502 C 0.37104 0.15399 0.44787 0.0
C1503 C 0.36649 0.15233 0.42934 0.0
H1504 H 0.89399 0.21641 0.46801 0.0
H1505 H 0.88193 0.24144 0.44724 0.0
H1506 H 0.88575 0.23757 0.41476 0.0
H1507 H 0.8933 0.22774 0.39217 0.0
H1508 H 0.90474 0.20226 0.41288 0.0
H1509 H 0.90011 0.20545 0.44535 0.0
C1510 C 0.89197 0.22086 0.4564 0.0
C1511 C 0.88783 0.22935 0.46017 0.0
C1512 C 0.89406 0.2185 0.43767 0.0
C1513 C 0.88542 0.23511 0.44486 0.0
C1514 C 0.88751 0.23284 0.42622 0.0
C1515 C 0.89457 0.22273 0.40377 0.0
C1516 C 0.89939 0.21482 0.40015 0.0
C1517 C 0.89195 0.22465 0.42246 0.0
C1518 C 0.90116 0.20852 0.41535 0.0
C1519 C 0.8985 0.21031 0.43392 0.0
H1520 H 0.80099 0.67497 0.39162 0.0
H1521 H 0.83376 0.70841 0.40995 0.0
H1522 H 0.83072 0.70033 0.44245 0.0
H1523 H 0.81789 0.68429 0.46586 0.0
H1524 H 0.78539 0.6505 0.4469 0.0
H1525 H 0.78893 0.65837 0.41467 0.0
C1526 C 0.80754 0.68035 0.40274 0.0
C1527 C 0.81766 0.69213 0.39855 0.0
C1528 C 0.8056 0.67573 0.42135 0.0
C1529 C 0.82598 0.69923 0.41299 0.0
C1530 C 0.8242 0.69464 0.43152 0.0
C1531 C 0.81171 0.67851 0.45468 0.0
C1532 C 0.80124 0.66688 0.45906 0.0
C1533 C 0.81394 0.68296 0.43592 0.0
C1534 C 0.79329 0.65966 0.44423 0.0
C1535 C 0.79537 0.66408 0.42566 0.0
H1536 H 0.88347 0.67973 0.89563 0.0
H1537 H 0.91845 0.70945 0.91726 0.0
H1538 H 0.91443 0.69921 0.94753 0.0
H1539 H 0.90133 0.68172 0.96835 0.0
H1540 H 0.86517 0.65343 0.94937 0.0
H1541 H 0.869 0.66352 0.9181 0.0
C1542 C 0.89014 0.68416 0.90697 0.0
C1543 C 0.90159 0.69514 0.90342 0.0
C1544 C 0.88746 0.67857 0.92513 0.0
C1545 C 0.90992 0.70063 0.91873 0.0
C1546 C 0.90756 0.69488 0.93639 0.0
C1547 C 0.89423 0.67792 0.95742 0.0
C1548 C 0.88297 0.66698 0.96105 0.0
C1549 C 0.89645 0.68382 0.93971 0.0
C1550 C 0.87385 0.66198 0.94684 0.0
C1551 C 0.87609 0.6677 0.92897 0.0
H1552 H 0.32931 0.20116 0.91639 0.0
H1553 H 0.35734 0.2311 0.8828 0.0
H1554 H 0.37101 0.23911 0.91045 0.0
H1555 H 0.37498 0.23764 0.94391 0.0
H1556 H 0.34685 0.20808 0.97824 0.0
H1557 H 0.3336 0.19948 0.95038 0.0
C1558 C 0.33849 0.20933 0.91517 0.0
C1559 C 0.34246 0.21545 0.89759 0.0
C1560 C 0.34635 0.21384 0.93116 0.0
C1561 C 0.35425 0.22613 0.89615 0.0
C1562 C 0.36202 0.23073 0.91195 0.0
C1563 C 0.36589 0.22942 0.94552 0.0
C1564 C 0.36196 0.22368 0.96345 0.0
C1565 C 0.35816 0.22468 0.92953 0.0
C1566 C 0.35029 0.21271 0.96475 0.0
C1567 C 0.3426 0.20783 0.9488 0.0
H1568 H 0.81352 0.14577 0.89327 0.0
H1569 H 0.82427 0.12064 0.91788 0.0
H1570 H 0.8196 0.12517 0.94945 0.0
H1571 H 0.81166 0.13566 0.97018 0.0
H1572 H 0.8013 0.16101 0.94553 0.0
H1573 H 0.80695 0.15726 0.91404 0.0
C1574 C 0.81509 0.14145 0.90553 0.0
C1575 C 0.81913 0.13275 0.90306 0.0
C1576 C 0.8125 0.14418 0.92374 0.0
C1577 C 0.82089 0.12714 0.91921 0.0
C1578 C 0.81832 0.1298 0.93735 0.0
C1579 C 0.81088 0.14053 0.95794 0.0
C1580 C 0.80609 0.1486 0.96017 0.0
C1581 C 0.814 0.13821 0.93979 0.0
C1582 C 0.80492 0.1547 0.94414 0.0
C1583 C 0.80813 0.15255 0.92613 0.0
H1584 H 0.67547 0.89701 0.57196 0.0
H1585 H 0.67349 0.86149 0.56443 0.0
H1586 H 0.68514 0.86475 0.59402 0.0
H1587 H 0.69589 0.87796 0.62247 0.0
H1588 H 0.69603 0.91267 0.6295 0.0
H1589 H 0.68475 0.9092 0.60005 0.0
C1590 C 0.6773 0.88978 0.57685 0.0
C1591 C 0.67341 0.87893 0.56595 0.0
C1592 C 0.68366 0.89156 0.59398 0.0
C1593 C 0.67641 0.86999 0.57238 0.0
C1594 C 0.68299 0.87181 0.58942 0.0
C1595 C 0.69331 0.88465 0.6176 0.0
C1596 C 0.69701 0.89567 0.62809 0.0
C1597 C 0.68664 0.88257 0.60044 0.0
C1598 C 0.69357 0.90425 0.62156 0.0
C1599 C 0.68707 0.90228 0.60471 0.0
H1600 H 0.14712 0.80434 0.63637 0.0
H1601 H 0.13111 0.82465 0.61059 0.0
H1602 H 0.13629 0.82041 0.57917 0.0
H1603 H 0.14425 0.80984 0.55867 0.0
H1604 H 0.16105 0.79028 0.58455 0.0
H1605 H 0.15672 0.79534 0.61594 0.0
C1606 C 0.14498 0.80805 0.62391 0.0
C1607 C 0.13859 0.81469 0.62595 0.0
C1608 C 0.14802 0.8056 0.60573 0.0
C1609 C 0.13581 0.8193 0.60952 0.0
C1610 C 0.13881 0.81692 0.59148 0.0
C1611 C 0.14719 0.80689 0.57115 0.0
C1612 C 0.1528 0.79951 0.56908 0.0
C1613 C 0.14475 0.80992 0.58935 0.0
C1614 C 0.15644 0.79571 0.58557 0.0
C1615 C 0.15402 0.79866 0.60362 0.0
H1616 H 0.23705 0.34306 0.62927 0.0
H1617 H 0.19742 0.32725 0.62374 0.0
H1618 H 0.20047 0.33814 0.59337 0.0
H1619 H 0.21462 0.35211 0.5683 0.0
H1620 H 0.25415 0.36623 0.57396 0.0
H1621 H 0.25085 0.35625 0.60446 0.0
C1622 C 0.22905 0.34194 0.62141 0.0
C1623 C 0.21703 0.33434 0.62872 0.0
C1624 C 0.23086 0.34804 0.60401 0.0
C1625 C 0.20679 0.33316 0.61849 0.0
C1626 C 0.20853 0.33931 0.60108 0.0
C1627 C 0.22252 0.35292 0.57607 0.0
C1628 C 0.23467 0.36023 0.56875 0.0
C1629 C 0.22056 0.34675 0.59363 0.0
C1630 C 0.24473 0.36115 0.5793 0.0
C1631 C 0.24286 0.35528 0.59676 0.0
H1632 H 1.01525 0.45513 0.73307 0.0
H1633 H 1.00183 0.48116 0.73516 0.0
H1634 H 1.01129 0.48828 0.7666 0.0
H1635 H 0.02327 0.4868 0.79369 0.0
H1636 H 0.0361 0.46022 0.79077 0.0
H1637 H 0.02703 0.4537 0.75948 0.0
C1638 C 1.01438 0.46237 0.74041 0.0
C1639 C 1.00784 0.4676 0.73185 0.0
C1640 C 0.01977 0.46633 0.75834 0.0
C1641 C 1.00693 0.47707 0.74141 0.0
C1642 C 1.01226 0.48107 0.75942 0.0
C1643 C 0.02402 0.47954 0.78622 0.0
C1644 C 0.03053 0.47414 0.79454 0.0
C1645 C 0.01866 0.47571 0.76808 0.0
C1646 C 0.03144 0.46478 0.78459 0.0
C1647 C 0.02616 0.46095 0.76671 0.0
H1648 H 0.55086 0.5384 0.73717 0.0
H1649 H 0.58808 0.5701 0.73472 0.0
H1650 H 0.58538 0.57695 0.76572 0.0
H1651 H 0.57279 0.57397 0.79361 0.0
H1652 H 0.53524 0.54299 0.79657 0.0
H1653 H 0.5378 0.53573 0.76544 0.0
C1654 C 0.55832 0.54684 0.74341 0.0
C1655 C 0.56972 0.55362 0.73375 0.0
C1656 C 0.5567 0.55082 0.76136 0.0
C1657 C 0.57932 0.56453 0.74203 0.0
C1658 C 0.57777 0.56852 0.75972 0.0
C1659 C 0.56507 0.5657 0.7874 0.0
C1660 C 0.55381 0.55908 0.79739 0.0
C1661 C 0.56655 0.56172 0.76952 0.0
C1662 C 0.54406 0.5482 0.78928 0.0
C1663 C 0.54548 0.5441 0.77141 0.0
H1664 H 0.48403 0.03695 0.74889 0.0
H1665 H 0.47862 1.00502 0.71645 0.0
H1666 H 0.47404 0.99283 0.74557 0.0
H1667 H 0.47035 0.99084 0.78024 0.0
H1668 H 0.47565 0.0228 0.81225 0.0
H1669 H 0.48102 0.03521 0.78322 0.0
C1670 C 0.48174 0.02729 0.74806 0.0
C1671 C 0.48158 0.02194 0.73031 0.0
C1672 C 0.47891 0.02026 0.76482 0.0
C1673 C 0.47896 1.00949 0.72981 0.0
C1674 C 0.47621 1.00245 0.74648 0.0
C1675 C 0.4728 1.00056 0.78081 0.0
C1676 C 0.47274 1.00596 0.79837 0.0
C1677 C 0.47599 1.00768 0.76404 0.0
C1678 C 0.47585 0.01852 0.79895 0.0
C1679 C 0.47885 0.02559 0.78235 0.0
H1680 H 0.56798 0.01524 0.30213 0.0
H1681 H 0.53179 0.98636 0.28422 0.0
H1682 H 0.53526 0.99592 0.25262 0.0
H1683 H 0.54925 1.01189 0.22977 0.0
H1684 H 0.58455 0.04205 0.24957 0.0
H1685 H 0.58089 0.03238 0.28044 0.0
C1686 C 0.56081 1.01118 0.29133 0.0
C1687 C 0.54962 1.00024 0.29538 0.0
C1688 C 0.56283 0.01679 0.2734 0.0
C1689 C 0.54041 0.9949 0.28136 0.0
C1690 C 0.54243 1.00033 0.26331 0.0
C1691 C 0.55608 0.01657 0.24083 0.0
C1692 C 0.5674 0.0276 0.23678 0.0
C1693 C 0.55369 1.01124 0.2591 0.0
C1694 C 0.57602 0.0333 0.25164 0.0
C1695 C 0.57388 0.02786 0.26955 0.0
H1696 H 0.9971 0.54984 0.25081 0.0
H1697 H 0.023 0.5431 0.21917 0.0
H1698 H 0.03591 0.54769 0.24733 0.0
H1699 H 0.04078 0.55519 0.28059 0.0
H1700 H 1.01542 0.563 0.31118 0.0
H1701 H 1.00175 0.55707 0.2835 0.0
C1702 C 1.00565 0.54954 0.2498 0.0
C1703 C 1.00901 0.5462 0.23256 0.0
C1704 C 1.01329 0.5526 0.2659 0.0
C1705 C 0.01996 0.54545 0.23213 0.0
C1706 C 0.02748 0.54822 0.24824 0.0
C1707 C 0.03214 0.55536 0.28119 0.0
C1708 C 0.02891 0.55926 0.29792 0.0
C1709 C 0.02434 0.55198 0.26514 0.0
C1710 C 1.01789 0.55976 0.29851 0.0
C1711 C 1.01013 0.55645 0.28268 0.0
H1712 H 0.48297 0.47342 0.30148 0.0
H1713 H 0.4608 0.48766 0.27661 0.0
H1714 H 0.46554 0.48327 0.24497 0.0
H1715 H 0.47537 0.47466 0.22426 0.0
H1716 H 0.49796 0.46098 0.24924 0.0
H1717 H 0.49386 0.46611 0.28083 0.0
C1718 C 0.47935 0.47579 0.28916 0.0
C1719 C 0.47144 0.48077 0.29151 0.0
C1720 C 0.48221 0.47336 0.27095 0.0
C1721 C 0.4667 0.48357 0.2753 0.0
C1722 C 0.46948 0.48115 0.25715 0.0
C1723 C 0.47957 0.47302 0.2366 0.0
C1724 C 0.48692 0.46741 0.2344 0.0
C1725 C 0.47713 0.47594 0.2548 0.0
C1726 C 0.49215 0.46517 0.25057 0.0
C1727 C 0.48983 0.46812 0.26864 0.0
H1728 H 0.03901 0.24675 0.27112 0.0
H1729 H 0.03937 0.27598 0.23711 0.0
H1730 H 1.01702 0.26652 0.24095 0.0
H1731 H 0.99732 0.2503 0.25453 0.0
H1732 H 0.99695 0.22211 0.29066 0.0
H1733 H 0.0194 0.23098 0.28581 0.0
C1734 C 0.03428 0.25118 0.26468 0.0
C1735 C 0.041 0.26206 0.25361 0.0
C1736 C 0.0214 0.24593 0.26748 0.0
C1737 C 0.03452 0.26744 0.24523 0.0
C1738 C 0.02171 0.26212 0.24761 0.0
C1739 C 1.00222 0.24618 0.26139 0.0
C1740 C 0.99563 0.23568 0.27305 0.0
C1741 C 1.01507 0.25142 0.25875 0.0
C1742 C 1.00195 0.23031 0.28184 0.0
C1743 C 1.01473 0.23534 0.27898 0.0
H1744 H 0.79391 0.7669 0.24444 0.0
H1745 H 0.79363 0.7697 0.30556 0.0
H1746 H 0.78231 0.78097 0.30298 0.0
H1747 H 0.77168 0.78914 0.28354 0.0
H1748 H 0.77456 0.78886 0.22242 0.0
H1749 H 0.78581 0.77755 0.22505 0.0
C1750 C 0.7917 0.77019 0.25729 0.0
C1751 C 0.79457 0.7672 0.27523 0.0
C1752 C 0.78554 0.77705 0.25575 0.0
C1753 C 0.79128 0.77145 0.29156 0.0
C1754 C 0.78489 0.77803 0.29011 0.0
C1755 C 0.77496 0.78691 0.27071 0.0
C1756 C 0.77198 0.78975 0.25275 0.0
C1757 C 0.78184 0.78075 0.27227 0.0
C1758 C 0.77627 0.7865 0.23644 0.0
C1759 C 0.78285 0.78011 0.23791 0.0
H1760 H 0.27672 0.03092 0.2778 0.0
H1761 H 0.24761 0.03788 0.25939 0.0
H1762 H 0.2343 0.01583 0.25198 0.0
H1763 H 0.23078 0.99429 0.25091 0.0
H1764 H 0.25992 0.9875 0.26926 0.0
H1765 H 0.2732 1.0096 0.27695 0.0
C1766 C 0.26741 0.02761 0.27243 0.0
C1767 C 0.26324 0.03612 0.26917 0.0
C1768 C 0.25976 0.01488 0.2682 0.0
C1769 C 0.25119 0.03162 0.26182 0.0
C1770 C 0.24351 0.01897 0.25765 0.0
C1771 C 0.24008 0.99774 0.25643 0.0
C1772 C 0.24451 0.98941 0.25927 0.0
C1773 C 0.2477 1.0105 0.26072 0.0
C1774 C 0.25647 0.99385 0.2667 0.0
C1775 C 0.26402 1.00645 0.27118 0.0
H1776 H 0.04079 0.80428 0.775 0.0
H1777 H 0.03999 0.77842 0.73301 0.0
H1778 H 1.01759 0.76582 0.73638 0.0
H1779 H 0.99832 0.76131 0.75224 0.0
H1780 H 0.99871 0.78656 0.79479 0.0
H1781 H 0.02121 0.79982 0.79078 0.0
C1782 C 0.0358 0.79585 0.76665 0.0
C1783 C 0.04231 0.79247 0.75363 0.0
C1784 C 0.0228 0.78835 0.76899 0.0
C1785 C 0.03541 0.78156 0.7428 0.0
C1786 C 0.02253 0.7742 0.74488 0.0
C1787 C 1.00324 0.7698 0.76051 0.0
C1788 C 0.99672 0.77287 0.77383 0.0
C1789 C 1.01615 0.77743 0.75803 0.0
C1790 C 1.00343 0.78381 0.78463 0.0
C1791 C 1.01632 0.79147 0.78223 0.0
H1792 H 0.26151 0.2353 0.74547 0.0
H1793 H 0.2563 0.2333 0.80644 0.0
H1794 H 0.24538 0.24479 0.80367 0.0
H1795 H 0.23808 0.25597 0.78461 0.0
H1796 H 0.23941 0.25429 0.72323 0.0
H1797 H 0.25102 0.24352 0.72598 0.0
C1798 C 0.25778 0.23694 0.7583 0.0
C1799 C 0.2602 0.23345 0.77626 0.0
C1800 C 0.25081 0.24304 0.75665 0.0
C1801 C 0.25526 0.23616 0.79241 0.0
C1802 C 0.24878 0.24265 0.79086 0.0
C1803 C 0.24042 0.25309 0.77154 0.0
C1804 C 0.23772 0.25644 0.75365 0.0
C1805 C 0.24661 0.24624 0.77307 0.0
C1806 C 0.24147 0.25251 0.73735 0.0
C1807 C 0.24809 0.24611 0.73884 0.0
H1808 H 0.76746 0.995 0.74224 0.0
H1809 H 0.7897 0.98634 0.77944 0.0
H1810 H 0.80215 1.0082 0.78824 0.0
H1811 H 0.80678 0.02998 0.78563 0.0
H1812 H 0.78508 0.03865 0.74734 0.0
H1813 H 0.7727 0.01677 0.73847 0.0
C1814 C 0.77516 0.99788 0.752 0.0
C1815 C 0.77742 0.98888 0.7603 0.0
C1816 C 0.78249 1.01057 0.75683 0.0
C1817 C 0.78744 0.99292 0.77312 0.0
C1818 C 0.79466 1.00548 0.77813 0.0
C1819 C 0.79933 0.02706 0.77537 0.0
C1820 C 0.79695 0.03597 0.76703 0.0
C1821 C 0.79222 0.0144 0.77021 0.0
C1822 C 0.78728 0.03202 0.75371 0.0
C1823 C 0.78013 0.01949 0.74869 0.0
H1824 H 0.70325 0.605 0.58381 0.0
H1825 H 0.71012 0.57555 0.601 0.0
H1826 H 0.6882 0.56226 0.60887 0.0
H1827 H 0.66688 0.55897 0.61101 0.0
H1828 H 0.66013 0.58842 0.59387 0.0
H1829 H 0.68207 0.60163 0.58541 0.0
C1830 C 0.69993 0.59561 0.589 0.0
C1831 C 0.70836 0.59132 0.59181 0.0
C1832 C 0.68729 0.588 0.5935 0.0
C1833 C 0.70389 0.57918 0.59892 0.0
C1834 C 0.69133 0.57154 0.60335 0.0
C1835 C 0.67031 0.56831 0.60551 0.0
C1836 C 0.66209 0.57288 0.60324 0.0
C1837 C 0.68294 0.57586 0.6008 0.0
C1838 C 0.66645 0.58488 0.59591 0.0
C1839 C 0.67894 0.59238 0.59103 0.0
H1840 H 0.43176 0.11401 0.61408 0.0
H1841 H 0.45079 0.13204 0.56229 0.0
H1842 H 0.46387 0.12254 0.56518 0.0
H1843 H 0.46988 0.10923 0.58238 0.0
H1844 H 0.44957 0.0899 0.63292 0.0
H1845 H 0.43767 0.10052 0.6311 0.0
C1846 C 0.43886 0.11599 0.6035 0.0
C1847 C 0.44024 0.12372 0.58793 0.0
C1848 C 0.44631 0.11045 0.6052 0.0
C1849 C 0.44938 0.12599 0.57425 0.0
C1850 C 0.45692 0.12063 0.57598 0.0
C1851 C 0.46272 0.10705 0.59289 0.0
C1852 C 0.46076 0.09857 0.60775 0.0
C1853 C 0.45541 0.11277 0.59133 0.0
C1854 C 0.45165 0.09647 0.62148 0.0
C1855 C 0.44464 0.10244 0.62034 0.0
H1856 H 0.93025 0.365 0.62695 0.0
H1857 H 0.93278 0.37474 0.56761 0.0
H1858 H 0.92097 0.3529 0.55909 0.0
H1859 H 0.91045 0.33093 0.56801 0.0
H1860 H 0.90939 0.32086 0.62688 0.0
H1861 H 0.91998 0.34279 0.63586 0.0
C1862 C 0.92833 0.36238 0.61214 0.0
C1863 C 0.93234 0.37168 0.59807 0.0
C1864 C 0.92175 0.34965 0.60714 0.0
C1865 C 0.92957 0.36795 0.57894 0.0
C1866 C 0.9229 0.35538 0.57395 0.0
C1867 C 0.91262 0.3335 0.5828 0.0
C1868 C 0.90908 0.32417 0.59669 0.0
C1869 C 0.91901 0.34615 0.58788 0.0
C1870 C 0.91178 0.32776 0.61584 0.0
C1871 C 0.91797 0.34035 0.62101 0.0
H1872 H 0.66792 0.0945 0.11568 0.0
H1873 H 0.65968 0.12029 0.08712 0.0
H1874 H 0.68155 0.13319 0.07819 0.0
H1875 H 0.70331 0.13719 0.07855 0.0
H1876 H 0.71111 0.11133 0.10785 0.0
H1877 H 0.68927 0.09852 0.11645 0.0
C1878 C 0.67091 0.10301 0.10768 0.0
C1879 C 0.66213 0.10638 0.10206 0.0
C1880 C 0.68349 0.11038 0.1026 0.0
C1881 C 0.6662 0.11737 0.09144 0.0
C1882 C 0.67873 0.12479 0.08638 0.0
C1883 C 0.70014 0.12868 0.08662 0.0
C1884 C 0.70878 0.12514 0.09245 0.0
C1885 C 0.68748 0.12136 0.09176 0.0
C1886 C 0.70461 0.1142 0.10317 0.0
C1887 C 0.69213 0.10689 0.10815 0.0
H1888 H 0.9293 0.57518 0.12558 0.0
H1889 H 0.92107 0.55651 0.07127 0.0
H1890 H 0.90972 0.5669 0.06183 0.0
H1891 H 0.90189 0.58134 0.06892 0.0
H1892 H 0.90945 0.59898 0.12395 0.0
H1893 H 0.92062 0.58843 0.13329 0.0
C1894 C 0.92483 0.57309 0.11181 0.0
C1895 C 0.92631 0.56511 0.09917 0.0
C1896 C 0.91797 0.57884 0.10656 0.0
C1897 C 0.92053 0.56286 0.08124 0.0
C1898 C 0.91388 0.56873 0.07582 0.0
C1899 C 0.90605 0.58294 0.08289 0.0
C1900 C 0.9047 0.59093 0.09568 0.0
C1901 C 0.9126 0.57683 0.0883 0.0
C1902 C 0.91008 0.59273 0.11384 0.0
C1903 C 0.91658 0.58676 0.11922 0.0
H1904 H 0.43128 0.32511 0.10746 0.0
H1905 H 0.45838 0.32475 0.06959 0.0
H1906 H 0.47192 0.34728 0.07409 0.0
H1907 H 0.4761 0.367 0.0894 0.0
H1908 H 0.44831 0.36685 0.12654 0.0
H1909 H 0.43526 0.34451 0.12223 0.0
C1910 C 0.4402 0.32991 0.10028 0.0
C1911 C 0.44382 0.32322 0.08825 0.0
C1912 C 0.44791 0.34277 0.10302 0.0
C1913 C 0.4553 0.32968 0.07878 0.0
C1914 C 0.46308 0.34255 0.08146 0.0
C1915 C 0.46716 0.36212 0.09648 0.0
C1916 C 0.46334 0.3687 0.10855 0.0
C1917 C 0.45948 0.34919 0.09361 0.0
C1918 C 0.45173 0.36209 0.11764 0.0
C1919 C 0.44415 0.34929 0.11501 0.0
H1920 H 0.37301 0.92889 0.95031 0.0
H1921 H 0.37088 0.92048 0.89045 0.0
H1922 H 0.34828 0.90884 0.89241 0.0
H1923 H 0.32929 0.90216 0.91047 0.0
H1924 H 0.3314 0.90773 0.97133 0.0
H1925 H 0.35388 0.91953 0.96928 0.0
C1926 C 0.3677 0.92433 0.93768 0.0
C1927 C 0.37382 0.92585 0.92013 0.0
C1928 C 0.35464 0.91728 0.93897 0.0
C1929 C 0.36656 0.9199 0.90403 0.0
C1930 C 0.35358 0.91311 0.90517 0.0
C1931 C 0.33445 0.90553 0.92356 0.0
C1932 C 0.3282 0.904 0.94104 0.0
C1933 C 0.34752 0.91188 0.92252 0.0
C1934 C 0.33557 0.90897 0.95747 0.0
C1935 C 0.34857 0.91565 0.9564 0.0
H1936 H 0.0959 0.44046 0.91238 0.0
H1937 H 0.12113 0.4739 0.94308 0.0
H1938 H 0.13385 0.46477 0.95148 0.0
H1939 H 0.13805 0.44718 0.95001 0.0
H1940 H 0.11364 0.4146 0.91733 0.0
H1941 H 0.10064 0.42362 0.90941 0.0
C1942 C 0.10428 0.4459 0.92062 0.0
C1943 C 0.10735 0.45785 0.92719 0.0
C1944 C 0.11178 0.44072 0.92508 0.0
C1945 C 0.11823 0.46456 0.93816 0.0
C1946 C 0.12563 0.45938 0.94289 0.0
C1947 C 0.12981 0.44207 0.94133 0.0
C1948 C 0.12661 0.43015 0.93454 0.0
C1949 C 0.12247 0.44743 0.93654 0.0
C1950 C 0.11612 0.42371 0.92292 0.0
C1951 C 0.10872 0.42888 0.91833 0.0
H1952 H 0.58965 0.66012 0.94011 0.0
H1953 H 0.56085 0.65938 0.90528 0.0
H1954 H 0.56978 0.68194 0.90965 0.0
H1955 H 0.58592 0.70181 0.92325 0.0
H1956 H 0.61569 0.70254 0.95602 0.0
H1957 H 0.60609 0.68006 0.95294 0.0
C1958 C 0.58541 0.66496 0.93343 0.0
C1959 C 0.57474 0.65825 0.92222 0.0
C1960 C 0.5907 0.6779 0.93578 0.0
C1961 C 0.5692 0.66449 0.91371 0.0
C1962 C 0.57427 0.67733 0.9163 0.0
C1963 C 0.59043 0.69713 0.92959 0.0
C1964 C 0.60154 0.70404 0.94003 0.0
C1965 C 0.58508 0.68416 0.92723 0.0
C1966 C 0.60701 0.6976 0.94834 0.0
C1967 C 0.6016 0.68469 0.9464 0.0
H1968 H 0.37289 0.44779 0.43997 0.0
H1969 H 0.37258 0.47563 0.40362 0.0
H1970 H 0.35021 0.46648 0.40872 0.0
H1971 H 0.33074 0.45061 0.42386 0.0
H1972 H 0.33137 0.42258 0.45953 0.0
H1973 H 0.35366 0.43204 0.4548 0.0
C1974 C 0.36797 0.45197 0.43335 0.0
C1975 C 0.37441 0.46241 0.42151 0.0
C1976 C 0.35516 0.4467 0.43636 0.0
C1977 C 0.36782 0.46752 0.41269 0.0
C1978 C 0.35504 0.46233 0.41567 0.0
C1979 C 0.33573 0.44652 0.43053 0.0
C1980 C 0.32934 0.43596 0.44229 0.0
C1981 C 0.3486 0.4519 0.42748 0.0
C1982 C 0.33603 0.43088 0.45086 0.0
C1983 C 0.34879 0.43622 0.448 0.0
H1984 H 0.60633 0.91336 0.42235 0.0
H1985 H 0.57808 0.88417 0.45676 0.0
H1986 H 0.56444 0.89299 0.45206 0.0
H1987 H 0.56058 0.90904 0.43775 0.0
H1988 H 0.5895 0.9384 0.4041 0.0
H1989 H 0.60267 0.92929 0.4086 0.0
C1990 C 0.59717 0.90888 0.42878 0.0
C1991 C 0.59324 0.89812 0.4399 0.0
C1992 C 0.58943 0.91398 0.426 0.0
C1993 C 0.58139 0.89254 0.44832 0.0
C1994 C 0.57357 0.89754 0.44552 0.0
C1995 C 0.56978 0.91348 0.43144 0.0
C1996 C 0.57391 0.92435 0.4203 0.0
C1997 C 0.57749 0.90829 0.43436 0.0
C1998 C 0.58587 0.92988 0.41226 0.0
C1999 C 0.5935 0.92475 0.415 0.0
H2000 H 0.099 0.65929 0.44295 0.0
H2001 H 0.12432 0.65905 0.40124 0.0
H2002 H 0.1377 0.68164 0.40486 0.0
H2003 H 0.14227 0.70148 0.42023 0.0
H2004 H 0.11628 0.70121 0.46135 0.0
H2005 H 0.10353 0.67877 0.45819 0.0
C2006 C 0.10752 0.66409 0.43477 0.0
C2007 C 0.11059 0.65736 0.42185 0.0
C2008 C 0.11521 0.67704 0.43703 0.0
C2009 C 0.12158 0.66393 0.41113 0.0
C2010 C 0.1293 0.67687 0.41331 0.0
C2011 C 0.13378 0.69659 0.42844 0.0
C2012 C 0.13043 0.70326 0.44121 0.0
C2013 C 0.12619 0.68355 0.42622 0.0
C2014 C 0.11941 0.69651 0.4518 0.0
C2015 C 0.11197 0.6836 0.44984 0.0
H2016 H 0.20116 0.37213 0.36191 0.0
H2017 H 0.19622 0.33841 0.38801 0.0
H2018 H 0.18137 0.32592 0.36353 0.0
H2019 H 0.16984 0.3245 0.33446 0.0
H2020 H 0.17534 0.35825 0.30786 0.0
H2021 H 0.19017 0.37077 0.33242 0.0
C2022 C 0.19694 0.36206 0.36216 0.0
C2023 C 0.19971 0.35624 0.37694 0.0
C2024 C 0.18857 0.35491 0.34783 0.0
C2025 C 0.19403 0.34315 0.37709 0.0
C2026 C 0.18561 0.33599 0.36299 0.0
C2027 C 0.17426 0.33459 0.33414 0.0
C2028 C 0.17153 0.34044 0.31939 0.0
C2029 C 0.18278 0.34175 0.34832 0.0
C2030 C 0.17742 0.35353 0.31897 0.0
C2031 C 0.18584 0.3607 0.33305 0.0
H2032 H 0.67692 0.86369 0.35991 0.0
H2033 H 0.66823 0.83075 0.39239 0.0
H2034 H 0.67815 0.82447 0.36861 0.0
H2035 H 0.68894 0.82796 0.33847 0.0
H2036 H 0.69793 0.86083 0.30562 0.0
H2037 H 0.68777 0.86713 0.32921 0.0
C2038 C 0.67703 0.85505 0.36163 0.0
C2039 C 0.67192 0.8478 0.37807 0.0
C2040 C 0.68269 0.85136 0.34773 0.0
C2041 C 0.6723 0.83668 0.38011 0.0
C2042 C 0.67792 0.83302 0.36646 0.0
C2043 C 0.68889 0.83662 0.33655 0.0
C2044 C 0.69425 0.84389 0.32024 0.0
C2045 C 0.68319 0.8403 0.35026 0.0
C2046 C 0.69374 0.85492 0.31787 0.0
C2047 C 0.68799 0.85859 0.33143 0.0
H2048 H 0.17718 0.84252 0.38498 0.0
H2049 H 0.18781 0.81861 0.3556 0.0
H2050 H 0.19306 0.83178 0.32759 0.0
H2051 H 0.19555 0.85051 0.31179 0.0
H2052 H 0.18538 0.87466 0.34138 0.0
H2053 H 0.17985 0.86134 0.36932 0.0
C2054 C 0.18087 0.84023 0.37266 0.0
C2055 C 0.18206 0.82945 0.37269 0.0
C2056 C 0.18421 0.84804 0.35666 0.0
C2057 C 0.18651 0.82662 0.35613 0.0
C2058 C 0.18967 0.83425 0.34007 0.0
C2059 C 0.19195 0.85282 0.3242 0.0
C2060 C 0.19091 0.86367 0.32428 0.0
C2061 C 0.18861 0.84501 0.3402 0.0
C2062 C 0.18651 0.86655 0.34083 0.0
C2063 C 0.18322 0.85885 0.35683 0.0
H2064 H 0.34941 0.15785 0.19045 0.0
H2065 H 0.33762 0.18023 0.22139 0.0
H2066 H 0.3476 0.19682 0.19788 0.0
H2067 H 0.35915 0.20474 0.16774 0.0
H2068 H 0.37055 0.18192 0.1371 0.0
H2069 H 0.36089 0.16565 0.16092 0.0
C2070 C 0.34884 0.16626 0.19197 0.0
C2071 C 0.34272 0.16772 0.20771 0.0
C2072 C 0.35446 0.1757 0.17831 0.0
C2073 C 0.3424 0.17887 0.20958 0.0
C2074 C 0.34805 0.18836 0.19607 0.0
C2075 C 0.35967 0.19629 0.16645 0.0
C2076 C 0.3655 0.19455 0.15054 0.0
C2077 C 0.3541 0.18688 0.18033 0.0
C2078 C 0.36595 0.18345 0.14901 0.0
C2079 C 0.36047 0.17413 0.16267 0.0
H2080 H 0.82794 0.17866 0.17251 0.0
H2081 H 0.85052 0.174 0.13019 0.0
H2082 H 0.86634 0.17828 0.15365 0.0
H2083 H 0.87381 0.18284 0.18621 0.0
H2084 H 0.85141 0.18733 0.22896 0.0
H2085 H 0.83528 0.18272 0.20562 0.0
C2086 C 0.83622 0.17841 0.1684 0.0
C2087 C 0.838 0.17626 0.14931 0.0
C2088 C 0.84531 0.18055 0.18219 0.0
C2089 C 0.84894 0.17608 0.14449 0.0
C2090 C 0.85801 0.17837 0.158 0.0
C2091 C 0.86551 0.18301 0.19047 0.0
C2092 C 0.86398 0.18549 0.20945 0.0
C2093 C 0.85633 0.18065 0.17687 0.0
C2094 C 0.85289 0.18525 0.2146 0.0
C2095 C 0.84364 0.18274 0.20117 0.0
H2096 H 0.83595 0.67181 0.21122 0.0
H2097 H 0.86235 0.70954 0.19439 0.0
H2098 H 0.8688 0.70171 0.16759 0.0
H2099 H 0.867 0.68435 0.14886 0.0
H2100 H 0.84066 0.64652 0.16512 0.0
H2101 H 0.8345 0.65422 0.19266 0.0
C2102 C 0.84322 0.67833 0.20183 0.0
C2103 C 0.84853 0.69129 0.20471 0.0
C2104 C 0.84699 0.67376 0.18644 0.0
C2105 C 0.85789 0.69955 0.19229 0.0
C2106 C 0.86165 0.69508 0.17701 0.0
C2107 C 0.85981 0.67774 0.15827 0.0
C2108 C 0.85427 0.66485 0.15478 0.0
C2109 C 0.85621 0.68223 0.17387 0.0
C2110 C 0.8452 0.65648 0.16751 0.0
C2111 C 0.8416 0.66089 0.1832 0.0
H2112 H 0.82765 0.66614 0.67726 0.0
H2113 H 0.85546 0.68114 0.6325 0.0
H2114 H 0.87128 0.69183 0.65571 0.0
H2115 H 0.87777 0.69683 0.68876 0.0
H2116 H 0.8495 0.68377 0.73254 0.0
H2117 H 0.8337 0.67206 0.70936 0.0
C2118 C 0.837 0.6716 0.67197 0.0
C2119 C 0.83976 0.6724 0.65237 0.0
C2120 C 0.84633 0.67807 0.68547 0.0
C2121 C 0.8524 0.6799 0.64702 0.0
C2122 C 0.86174 0.68621 0.66047 0.0
C2123 C 0.86817 0.69169 0.69338 0.0
C2124 C 0.86515 0.69111 0.71278 0.0
C2125 C 0.85882 0.68537 0.67975 0.0
C2126 C 0.85249 0.68411 0.71805 0.0
C2127 C 0.84328 0.67748 0.70467 0.0
H2128 H 0.37205 0.17795 0.67524 0.0
H2129 H 0.34416 0.17137 0.63311 0.0
H2130 H 0.33238 0.17562 0.65645 0.0
H2131 H 0.32927 0.18003 0.68914 0.0
H2132 H 0.35752 0.18723 0.73104 0.0
H2133 H 0.3692 0.18291 0.70778 0.0
C2134 C 0.36332 0.17728 0.67114 0.0
C2135 C 0.3591 0.17433 0.65231 0.0
C2136 C 0.35637 0.17947 0.68476 0.0
C2137 C 0.34787 0.17385 0.64733 0.0
C2138 C 0.341 0.17614 0.66076 0.0
C2139 C 0.33807 0.1809 0.69325 0.0
C2140 C 0.34228 0.18386 0.71211 0.0
C2141 C 0.3451 0.17885 0.67957 0.0
C2142 C 0.35366 0.1846 0.71693 0.0
C2143 C 0.36053 0.1823 0.70351 0.0
H2144 H 0.84845 0.19864 0.67211 0.0
H2145 H 0.86858 0.18594 0.63731 0.0
H2146 H 0.86551 0.17044 0.66112 0.0
H2147 H 0.85806 0.16118 0.69232 0.0
H2148 H 0.83729 0.17335 0.72675 0.0
H2149 H 0.84043 0.1889 0.70304 0.0
C2150 C 0.85227 0.19256 0.66976 0.0
C2151 C 0.85871 0.19347 0.65283 0.0
C2152 C 0.85065 0.18376 0.68365 0.0
C2153 C 0.86337 0.18533 0.64998 0.0
C2154 C 0.86174 0.17653 0.6637 0.0
C2155 C 0.854 0.16704 0.69462 0.0
C2156 C 0.8475 0.16604 0.71154 0.0
C2157 C 0.85547 0.17572 0.68063 0.0
C2158 C 0.84262 0.17403 0.71421 0.0
C2159 C 0.84427 0.18286 0.70051 0.0
H2160 H 0.69327 0.83748 0.87716 0.0
H2161 H 0.65553 0.8267 0.86233 0.0
H2162 H 0.66304 0.84111 0.8354 0.0
H2163 H 0.68031 0.8569 0.81639 0.0
H2164 H 0.71806 0.86719 0.8306 0.0
H2165 H 0.71056 0.85301 0.85771 0.0
C2166 C 0.6867 0.8383 0.86802 0.0
C2167 C 0.67385 0.831 0.87166 0.0
C2168 C 0.69108 0.84657 0.85257 0.0
C2169 C 0.66544 0.83209 0.85965 0.0
C2170 C 0.66974 0.84038 0.84435 0.0
C2171 C 0.68692 0.85599 0.8253 0.0
C2172 C 0.69977 0.86318 0.82144 0.0
C2173 C 0.68253 0.84766 0.84068 0.0
C2174 C 0.70816 0.86197 0.83338 0.0
C2175 C 0.70387 0.85377 0.8488 0.0
H2176 H 0.17925 0.83603 0.81177 0.0
H2177 H 0.15951 0.85307 0.83656 0.0
H2178 H 0.17283 0.85884 0.86445 0.0
H2179 H 0.19054 0.85979 0.88139 0.0
H2180 H 0.21057 0.84319 0.85631 0.0
H2181 H 0.19706 0.83716 0.82853 0.0
C2182 C 0.17792 0.84118 0.82307 0.0
C2183 C 0.16827 0.84407 0.82182 0.0
C2184 C 0.18582 0.84476 0.83896 0.0
C2185 C 0.16663 0.85047 0.83706 0.0
C2186 C 0.17436 0.8539 0.85301 0.0
C2187 C 0.1919 0.85471 0.86999 0.0
C2188 C 0.20164 0.85197 0.8711 0.0
C2189 C 0.18401 0.85114 0.85409 0.0
C2190 C 0.20333 0.84562 0.85586 0.0
C2191 C 0.19552 0.84207 0.83999 0.0
H2192 H 0.17297 0.33229 0.81301 0.0
H2193 H 0.20862 0.33945 0.8338 0.0
H2194 H 0.20675 0.35061 0.86099 0.0
H2195 H 0.19523 0.35876 0.87856 0.0
H2196 H 0.1594 0.35127 0.85795 0.0
H2197 H 0.16136 0.34026 0.83073 0.0
C2198 C 0.18036 0.33633 0.82344 0.0
C2199 C 0.19089 0.33493 0.82135 0.0
C2200 C 0.1793 0.34286 0.83898 0.0
C2201 C 0.2003 0.34014 0.83517 0.0
C2202 C 0.1993 0.34665 0.85066 0.0
C2203 C 0.18779 0.35466 0.86821 0.0
C2204 C 0.17721 0.356 0.87035 0.0
C2205 C 0.18885 0.34809 0.8527 0.0
C2206 C 0.16778 0.3507 0.85656 0.0
C2207 C 0.16883 0.34425 0.84104 0.0
H2208 H 0.02393 0.51372 0.47404 0.0
H2209 H 0.03863 0.54719 0.50812 0.0
H2210 H 0.02942 0.53458 0.53628 0.0
H2211 H 1.01633 0.51434 0.55106 0.0
H2212 H 1.00196 0.4808 0.51712 0.0
H2213 H 1.01089 0.4934 0.48893 0.0
C2214 C 0.02499 0.51839 0.48748 0.0
C2215 C 0.03207 0.53155 0.48861 0.0
C2216 C 0.01935 0.51109 0.5037 0.0
C2217 C 0.03353 0.53716 0.50654 0.0
C2218 C 0.0281 0.52993 0.52274 0.0
C2219 C 1.01532 0.50961 0.5377 0.0
C2220 C 1.00842 0.49643 0.53667 0.0
C2221 C 0.02092 0.5169 0.52147 0.0
C2222 C 1.00693 0.49083 0.51872 0.0
C2223 C 1.01221 0.49805 0.50246 0.0
H2224 H 0.49307 0.50475 0.50627 0.0
H2225 H 0.52063 0.51778 0.46152 0.0
H2226 H 0.53667 0.52196 0.4847 0.0
H2227 H 0.54283 0.52205 0.51708 0.0
H2228 H 0.51567 0.51261 0.56221 0.0
H2229 H 0.49972 0.50703 0.53908 0.0
C2230 C 0.50258 0.50882 0.50139 0.0
C2231 C 0.50543 0.51082 0.48187 0.0
C2232 C 0.51195 0.51183 0.51487 0.0
C2233 C 0.51791 0.51574 0.47623 0.0
C2234 C 0.52719 0.5183 0.48956 0.0
C2235 C 0.53362 0.51905 0.5224 0.0
C2236 C 0.53098 0.5178 0.54209 0.0
C2237 C 0.52431 0.51639 0.50893 0.0
C2238 C 0.51851 0.51351 0.5476 0.0
C2239 C 0.50916 0.51038 0.53421 0.0
H2240 H 0.52938 0.03458 0.53378 0.0
H2241 H 0.49096 1.00662 0.54165 0.0
H2242 H 0.49253 0.99392 0.51632 0.0
H2243 H 0.50496 0.99075 0.49188 0.0
H2244 H 0.54307 0.01926 0.48285 0.0
H2245 H 0.5416 0.03176 0.50853 0.0
C2246 C 0.52136 0.02576 0.52973 0.0
C2247 C 0.51002 0.02154 0.53926 0.0
C2248 C 0.52232 0.0186 0.51502 0.0
C2249 C 0.49971 1.01006 0.5342 0.0
C2250 C 0.50063 1.00279 0.51983 0.0
C2251 C 0.5129 0.99969 0.49563 0.0
C2252 C 0.52411 1.00411 0.48566 0.0
C2253 C 0.51189 1.00695 0.51014 0.0
C2254 C 0.53435 0.01574 0.49041 0.0
C2255 C 0.53351 0.02287 0.50507 0.0
H2256 H 0.53141 0.03814 0.03217 0.0
H2257 H 0.53438 1.00631 0.04922 0.0
H2258 H 0.52005 0.99378 0.02402 0.0
H2259 H 0.50634 0.99174 0.99729 0.0
H2260 H 0.50361 0.02364 0.98001 0.0
H2261 H 0.51803 0.03623 1.00513 0.0
C2262 C 0.5289 0.02846 0.03033 0.0
C2263 C 0.53378 0.02308 0.04267 0.0
C2264 C 0.52064 0.0213 0.01581 0.0
C2265 C 0.53052 1.01056 0.04011 0.0
C2266 C 0.52239 1.00342 0.02565 0.0
C2267 C 0.50892 1.00144 0.99913 0.0
C2268 C 0.50395 1.00679 0.98697 0.0
C2269 C 0.51731 1.00865 1.0135 0.0
C2270 C 0.5074 0.01938 0.98925 0.0
C2271 C 0.51562 0.02657 1.0036 0.0
H2272 H 0.03907 0.5122 1.00941 0.0
H2273 H 1.01058 0.50381 0.96749 0.0
H2274 H 0.99853 0.50786 0.99066 0.0
H2275 H 0.99547 0.51268 0.02314 0.0
H2276 H 0.02425 0.52161 0.06484 0.0
H2277 H 0.03623 0.51752 0.04172 0.0
C2278 C 0.03016 0.51109 1.00533 0.0
C2279 C 0.02583 0.50771 0.9866 0.0
C2280 C 0.0231 0.51319 0.01884 0.0
C2281 C 1.01436 0.50664 0.98162 0.0
C2282 C 1.00735 0.50882 0.99495 0.0
C2283 C 1.00444 0.51396 0.02721 0.0
C2284 C 1.00877 0.51736 0.04596 0.0
C2285 C 1.01158 0.51201 1.01364 0.0
C2286 C 0.02037 0.51866 0.0508 0.0
C2287 C 0.02738 0.51648 0.03747 0.0
H2288 H 0.52006 0.49156 0.02277 0.0
H2289 H 0.50983 0.51103 0.06346 0.0
H2290 H 0.51389 0.52699 0.04017 0.0
H2291 H 0.51957 0.53518 1.00793 0.0
H2292 H 0.52923 0.51544 0.96699 0.0
H2293 H 0.52521 0.49944 0.99034 0.0
C2294 C 0.5185 0.49915 0.02656 0.0
C2295 C 0.51474 0.50001 0.04507 0.0
C2296 C 0.52043 0.50817 1.01287 0.0
C2297 C 0.51307 0.51017 0.0496 0.0
C2298 C 0.51522 0.51929 0.03617 0.0
C2299 C 0.52094 0.52747 1.00413 0.0
C2300 C 0.5247 0.5266 0.98564 0.0
C2301 C 0.51886 0.51837 0.01774 0.0
C2302 C 0.52612 0.51632 0.98095 0.0
C2303 C 0.52396 0.50719 0.99438 0.0
loop_
_geom_bond_atom_site_label_1
_geom_bond_atom_site_label_2
_geom_bond_distance
_geom_bond_site_symmetry_2
_ccdc_geom_bond_type
C0 C1 1.264 . S
C0 C5 1.479 . S
C0 C10 1.465 . S
C1 C0 1.264 . S
C1 C3 1.339 . S
C1 H28 0.931 . S
C2 C3 1.395 . S
C2 C4 1.320 . S
C3 C1 1.339 . S
C3 C2 1.395 . S
C3 H29 0.929 . S
C4 C2 1.320 . S
C4 C5 1.405 . S
C4 H30 0.930 . S
C5 C0 1.479 . S
C5 C4 1.405 . S
C5 H31 0.931 . S
U6 O7 2.454 . S
U6 O8 2.458 . S
U6 C9 2.984 . S
U6 C10 2.847 . S
U6 C23 2.882 . S
U6 O24 2.441 . S
U6 O25 2.420 . S
U6 O26 2.455 . S
U6 O27 2.449 . S
O7 U6 2.454 . S
O7 C9 1.353 . S
O8 U6 2.458 . S
O8 C9 1.286 . S
C9 U6 2.984 . S
C9 O7 1.353 . S
C9 O8 1.286 . S
C9 C11 1.363 . S
C10 C0 1.465 . S
C10 U6 2.847 . S
C10 O24 1.249 . S
C10 O25 1.202 . S
C11 C9 1.363 . S
C11 C13 1.408 . S
C11 C16 1.342 . S
C12 C13 1.310 . S
C12 C15 1.461 . S
C12 H32 0.932 . S
C13 C11 1.408 . S
C13 C12 1.310 . S
C13 H33 0.930 . S
C14 C15 1.474 . S
C14 C16 1.285 . S
C14 H34 0.929 . S
C15 C12 1.461 . S
C15 C14 1.474 . S
C16 C11 1.342 . S
C16 C14 1.285 . S
C16 H35 0.930 . S
C17 C20 1.424 . S
C17 C22 1.245 . S
C17 C23 1.428 . S
C18 C21 1.260 . S
C18 C22 1.477 . S
C18 H36 0.932 . S
C19 C20 1.384 . S
C19 C21 1.479 . S
C19 H37 0.929 . S
C20 C17 1.424 . S
C20 C19 1.384 . S
C20 H38 0.928 . S
C21 C18 1.260 . S
C21 C19 1.479 . S
C22 C17 1.245 . S
C22 C18 1.477 . S
C22 H39 0.932 . S
C23 U6 2.882 . S
C23 C17 1.428 . S
C23 O26 1.301 . S
C23 O27 1.282 . S
O24 U6 2.441 . S
O24 C10 1.249 . S
O25 U6 2.420 . S
O25 C10 1.202 . S
O26 U6 2.455 . S
O26 C23 1.301 . S
O27 U6 2.449 . S
O27 C23 1.282 . S
H28 C1 0.931 . S
H29 C3 0.929 . S
H30 C4 0.930 . S
H31 C5 0.931 . S
H32 C12 0.932 . S
H33 C13 0.930 . S
H34 C14 0.929 . S
H35 C16 0.930 . S
H36 C18 0.932 . S
H37 C19 0.929 . S
H38 C20 0.928 . S
H39 C22 0.932 . S
C40 C41 1.264 . S
C40 C45 1.479 . S
C40 C50 1.465 . S
C41 C40 1.264 . S
C41 C43 1.339 . S
C41 H68 0.931 . S
C42 C43 1.395 . S
C42 C44 1.320 . S
C43 C41 1.339 . S
C43 C42 1.395 . S
C43 H69 0.929 . S
C44 C42 1.320 . S
C44 C45 1.405 . S
C44 H70 0.930 . S
C45 C40 1.479 . S
C45 C44 1.405 . S
C45 H71 0.931 . S
U46 O47 2.454 . S
U46 O48 2.458 . S
U46 C49 2.984 . S
U46 C50 2.847 . S
U46 C63 2.882 . S
U46 O64 2.441 . S
U46 O65 2.420 . S
U46 O66 2.455 . S
U46 O67 2.449 . S
O47 U46 2.454 . S
O47 C49 1.353 . S
O48 U46 2.458 . S
O48 C49 1.286 . S
C49 U46 2.984 . S
C49 O47 1.353 . S
C49 O48 1.286 . S
C49 C51 1.363 . S
C50 C40 1.465 . S
C50 U46 2.847 . S
C50 O64 1.249 . S
C50 O65 1.202 . S
C51 C49 1.363 . S
C51 C53 1.408 . S
C51 C56 1.342 . S
C52 C53 1.310 . S
C52 C55 1.461 . S
C52 H72 0.932 . S
C53 C51 1.408 . S
C53 C52 1.310 . S
C53 H73 0.930 . S
C54 C55 1.474 . S
C54 C56 1.285 . S
C54 H74 0.929 . S
C55 C52 1.461 . S
C55 C54 1.474 . S
C56 C51 1.342 . S
C56 C54 1.285 . S
C56 H75 0.930 . S
C57 C60 1.424 . S
C57 C62 1.245 . S
C57 C63 1.428 . S
C58 C61 1.260 . S
C58 C62 1.477 . S
C58 H76 0.932 . S
C59 C60 1.384 . S
C59 C61 1.479 . S
C59 H77 0.929 . S
C60 C57 1.424 . S
C60 C59 1.384 . S
C60 H78 0.928 . S
C61 C58 1.260 . S
C61 C59 1.479 . S
C62 C57 1.245 . S
C62 C58 1.477 . S
C62 H79 0.932 . S
C63 U46 2.882 . S
C63 C57 1.428 . S
C63 O66 1.301 . S
C63 O67 1.282 . S
O64 U46 2.441 . S
O64 C50 1.249 . S
O65 U46 2.420 . S
O65 C50 1.202 . S
O66 U46 2.455 . S
O66 C63 1.301 . S
O67 U46 2.449 . S
O67 C63 1.282 . S
H68 C41 0.931 . S
H69 C43 0.929 . S
H70 C44 0.930 . S
H71 C45 0.931 . S
H72 C52 0.932 . S
H73 C53 0.930 . S
H74 C54 0.929 . S
H75 C56 0.930 . S
H76 C58 0.932 . S
H77 C59 0.929 . S
H78 C60 0.928 . S
H79 C62 0.932 . S
C80 C81 1.264 . S
C80 C85 1.479 . S
C80 C90 1.465 . S
C81 C80 1.264 . S
C81 C83 1.339 . S
C81 H108 0.931 . S
C82 C83 1.395 . S
C82 C84 1.320 . S
C83 C81 1.339 . S
C83 C82 1.395 . S
C83 H109 0.929 . S
C84 C82 1.320 . S
C84 C85 1.405 . S
C84 H110 0.930 . S
C85 C80 1.479 . S
C85 C84 1.405 . S
C85 H111 0.931 . S
U86 O87 2.454 . S
U86 O88 2.458 . S
U86 C89 2.984 . S
U86 C90 2.847 . S
U86 C103 2.882 . S
U86 O104 2.441 . S
U86 O105 2.420 . S
U86 O106 2.455 . S
U86 O107 2.449 . S
O87 U86 2.454 . S
O87 C89 1.353 . S
O88 U86 2.458 . S
O88 C89 1.286 . S
C89 U86 2.984 . S
C89 O87 1.353 . S
C89 O88 1.286 . S
C89 C91 1.363 . S
C90 C80 1.465 . S
C90 U86 2.847 . S
C90 O104 1.249 . S
C90 O105 1.202 . S
C91 C89 1.363 . S
C91 C93 1.408 . S
C91 C96 1.342 . S
C92 C93 1.310 . S
C92 C95 1.461 . S
C92 H112 0.932 . S
C93 C91 1.408 . S
C93 C92 1.310 . S
C93 H113 0.930 . S
C94 C95 1.474 . S
C94 C96 1.285 . S
C94 H114 0.929 . S
C95 C92 1.461 . S
C95 C94 1.474 . S
C96 C91 1.342 . S
C96 C94 1.285 . S
C96 H115 0.930 . S
C97 C100 1.424 . S
C97 C102 1.245 . S
C97 C103 1.428 . S
C98 C101 1.260 . S
C98 C102 1.477 . S
C98 H116 0.932 . S
C99 C100 1.384 . S
C99 C101 1.479 . S
C99 H117 0.929 . S
C100 C97 1.424 . S
C100 C99 1.384 . S
C100 H118 0.928 . S
C101 C98 1.260 . S
C101 C99 1.479 . S
C102 C97 1.245 . S
C102 C98 1.477 . S
C102 H119 0.932 . S
C103 U86 2.882 . S
C103 C97 1.428 . S
C103 O106 1.301 . S
C103 O107 1.282 . S
O104 U86 2.441 . S
O104 C90 1.249 . S
O105 U86 2.420 . S
O105 C90 1.202 . S
O106 U86 2.455 . S
O106 C103 1.301 . S
O107 U86 2.449 . S
O107 C103 1.282 . S
H108 C81 0.931 . S
H109 C83 0.929 . S
H110 C84 0.930 . S
H111 C85 0.931 . S
H112 C92 0.932 . S
H113 C93 0.930 . S
H114 C94 0.929 . S
H115 C96 0.930 . S
H116 C98 0.932 . S
H117 C99 0.929 . S
H118 C100 0.928 . S
H119 C102 0.932 . S
C120 C121 1.264 . S
C120 C125 1.479 . S
C120 C130 1.465 . S
C121 C120 1.264 . S
C121 C123 1.339 . S
C121 H148 0.931 . S
C122 C123 1.395 . S
C122 C124 1.320 . S
C123 C121 1.339 . S
C123 C122 1.395 . S
C123 H149 0.929 . S
C124 C122 1.320 . S
C124 C125 1.405 . S
C124 H150 0.930 . S
C125 C120 1.479 . S
C125 C124 1.405 . S
C125 H151 0.931 . S
U126 O127 2.454 . S
U126 O128 2.458 . S
U126 C129 2.984 . S
U126 C130 2.847 . S
U126 C143 2.882 . S
U126 O144 2.441 . S
U126 O145 2.420 . S
U126 O146 2.455 . S
U126 O147 2.449 . S
O127 U126 2.454 . S
O127 C129 1.353 . S
O128 U126 2.458 . S
O128 C129 1.286 . S
C129 U126 2.984 . S
C129 O127 1.353 . S
C129 O128 1.286 . S
C129 C131 1.363 . S
C130 C120 1.465 . S
C130 U126 2.847 . S
C130 O144 1.249 . S
C130 O145 1.202 . S
C131 C129 1.363 . S
C131 C133 1.408 . S
C131 C136 1.342 . S
C132 C133 1.310 . S
C132 C135 1.461 . S
C132 H152 0.932 . S
C133 C131 1.408 . S
C133 C132 1.310 . S
C133 H153 0.930 . S
C134 C135 1.474 . S
C134 C136 1.285 . S
C134 H154 0.929 . S
C135 C132 1.461 . S
C135 C134 1.474 . S
C136 C131 1.342 . S
C136 C134 1.285 . S
C136 H155 0.930 . S
C137 C140 1.424 . S
C137 C142 1.245 . S
C137 C143 1.428 . S
C138 C141 1.260 . S
C138 C142 1.477 . S
C138 H156 0.932 . S
C139 C140 1.384 . S
C139 C141 1.479 . S
C139 H157 0.929 . S
C140 C137 1.424 . S
C140 C139 1.384 . S
C140 H158 0.928 . S
C141 C138 1.260 . S
C141 C139 1.479 . S
C142 C137 1.245 . S
C142 C138 1.477 . S
C142 H159 0.932 . S
C143 U126 2.882 . S
C143 C137 1.428 . S
C143 O146 1.301 . S
C143 O147 1.282 . S
O144 U126 2.441 . S
O144 C130 1.249 . S
O145 U126 2.420 . S
O145 C130 1.202 . S
O146 U126 2.455 . S
O146 C143 1.301 . S
O147 U126 2.449 . S
O147 C143 1.282 . S
H148 C121 0.931 . S
H149 C123 0.929 . S
H150 C124 0.930 . S
H151 C125 0.931 . S
H152 C132 0.932 . S
H153 C133 0.930 . S
H154 C134 0.929 . S
H155 C136 0.930 . S
H156 C138 0.932 . S
H157 C139 0.929 . S
H158 C140 0.928 . S
H159 C142 0.932 . S
C160 C161 1.264 . S
C160 C165 1.479 . S
C160 C170 1.465 . S
C161 C160 1.264 . S
C161 C163 1.339 . S
C161 H188 0.931 . S
C162 C163 1.395 . S
C162 C164 1.320 . S
C163 C161 1.339 . S
C163 C162 1.395 . S
C163 H189 0.929 . S
C164 C162 1.320 . S
C164 C165 1.405 . S
C164 H190 0.930 . S
C165 C160 1.479 . S
C165 C164 1.405 . S
C165 H191 0.931 . S
U166 O167 2.454 . S
U166 O168 2.458 . S
U166 C169 2.984 . S
U166 C170 2.847 . S
U166 C183 2.882 . S
U166 O184 2.441 . S
U166 O185 2.420 . S
U166 O186 2.455 . S
U166 O187 2.449 . S
O167 U166 2.454 . S
O167 C169 1.353 . S
O168 U166 2.458 . S
O168 C169 1.286 . S
C169 U166 2.984 . S
C169 O167 1.353 . S
C169 O168 1.286 . S
C169 C171 1.363 . S
C170 C160 1.465 . S
C170 U166 2.847 . S
C170 O184 1.249 . S
C170 O185 1.202 . S
C171 C169 1.363 . S
C171 C173 1.408 . S
C171 C176 1.342 . S
C172 C173 1.310 . S
C172 C175 1.461 . S
C172 H192 0.932 . S
C173 C171 1.408 . S
C173 C172 1.310 . S
C173 H193 0.930 . S
C174 C175 1.474 . S
C174 C176 1.285 . S
C174 H194 0.929 . S
C175 C172 1.461 . S
C175 C174 1.474 . S
C176 C171 1.342 . S
C176 C174 1.285 . S
C176 H195 0.930 . S
C177 C180 1.424 . S
C177 C182 1.245 . S
C177 C183 1.428 . S
C178 C181 1.260 . S
C178 C182 1.477 . S
C178 H196 0.932 . S
C179 C180 1.384 . S
C179 C181 1.479 . S
C179 H197 0.929 . S
C180 C177 1.424 . S
C180 C179 1.384 . S
C180 H198 0.928 . S
C181 C178 1.260 . S
C181 C179 1.479 . S
C182 C177 1.245 . S
C182 C178 1.477 . S
C182 H199 0.932 . S
C183 U166 2.882 . S
C183 C177 1.428 . S
C183 O186 1.301 . S
C183 O187 1.282 . S
O184 U166 2.441 . S
O184 C170 1.249 . S
O185 U166 2.420 . S
O185 C170 1.202 . S
O186 U166 2.455 . S
O186 C183 1.301 . S
O187 U166 2.449 . S
O187 C183 1.282 . S
H188 C161 0.931 . S
H189 C163 0.929 . S
H190 C164 0.930 . S
H191 C165 0.931 . S
H192 C172 0.932 . S
H193 C173 0.930 . S
H194 C174 0.929 . S
H195 C176 0.930 . S
H196 C178 0.932 . S
H197 C179 0.929 . S
H198 C180 0.928 . S
H199 C182 0.932 . S
C200 C201 1.264 . S
C200 C205 1.479 . S
C200 C210 1.465 . S
C201 C200 1.264 . S
C201 C203 1.339 . S
C201 H228 0.931 . S
C202 C203 1.395 . S
C202 C204 1.320 . S
C203 C201 1.339 . S
C203 C202 1.395 . S
C203 H229 0.929 . S
C204 C202 1.320 . S
C204 C205 1.405 . S
C204 H230 0.930 . S
C205 C200 1.479 . S
C205 C204 1.405 . S
C205 H231 0.931 . S
U206 O207 2.454 . S
U206 O208 2.458 . S
U206 C209 2.984 . S
U206 C210 2.847 . S
U206 C223 2.882 . S
U206 O224 2.441 . S
U206 O225 2.420 . S
U206 O226 2.455 . S
U206 O227 2.449 . S
O207 U206 2.454 . S
O207 C209 1.353 . S
O208 U206 2.458 . S
O208 C209 1.286 . S
C209 U206 2.984 . S
C209 O207 1.353 . S
C209 O208 1.286 . S
C209 C211 1.363 . S
C210 C200 1.465 . S
C210 U206 2.847 . S
C210 O224 1.249 . S
C210 O225 1.202 . S
C211 C209 1.363 . S
C211 C213 1.408 . S
C211 C216 1.342 . S
C212 C213 1.310 . S
C212 C215 1.461 . S
C212 H232 0.932 . S
C213 C211 1.408 . S
C213 C212 1.310 . S
C213 H233 0.930 . S
C214 C215 1.474 . S
C214 C216 1.285 . S
C214 H234 0.929 . S
C215 C212 1.461 . S
C215 C214 1.474 . S
C216 C211 1.342 . S
C216 C214 1.285 . S
C216 H235 0.930 . S
C217 C220 1.424 . S
C217 C222 1.245 . S
C217 C223 1.428 . S
C218 C221 1.260 . S
C218 C222 1.477 . S
C218 H236 0.932 . S
C219 C220 1.384 . S
C219 C221 1.479 . S
C219 H237 0.929 . S
C220 C217 1.424 . S
C220 C219 1.384 . S
C220 H238 0.928 . S
C221 C218 1.260 . S
C221 C219 1.479 . S
C222 C217 1.245 . S
C222 C218 1.477 . S
C222 H239 0.932 . S
C223 U206 2.882 . S
C223 C217 1.428 . S
C223 O226 1.301 . S
C223 O227 1.282 . S
O224 U206 2.441 . S
O224 C210 1.249 . S
O225 U206 2.420 . S
O225 C210 1.202 . S
O226 U206 2.455 . S
O226 C223 1.301 . S
O227 U206 2.449 . S
O227 C223 1.282 . S
H228 C201 0.931 . S
H229 C203 0.929 . S
H230 C204 0.930 . S
H231 C205 0.931 . S
H232 C212 0.932 . S
H233 C213 0.930 . S
H234 C214 0.929 . S
H235 C216 0.930 . S
H236 C218 0.932 . S
H237 C219 0.929 . S
H238 C220 0.928 . S
H239 C222 0.932 . S
C240 C241 1.264 . S
C240 C245 1.479 . S
C240 C250 1.465 . S
C241 C240 1.264 . S
C241 C243 1.339 . S
C241 H268 0.931 . S
C242 C243 1.395 . S
C242 C244 1.320 . S
C243 C241 1.339 . S
C243 C242 1.395 . S
C243 H269 0.929 . S
C244 C242 1.320 . S
C244 C245 1.405 . S
C244 H270 0.930 . S
C245 C240 1.479 . S
C245 C244 1.405 . S
C245 H271 0.931 . S
U246 O247 2.454 . S
U246 O248 2.458 . S
U246 C249 2.984 . S
U246 C250 2.847 . S
U246 C263 2.882 . S
U246 O264 2.441 . S
U246 O265 2.420 . S
U246 O266 2.455 . S
U246 O267 2.449 . S
O247 U246 2.454 . S
O247 C249 1.353 . S
O248 U246 2.458 . S
O248 C249 1.286 . S
C249 U246 2.984 . S
C249 O247 1.353 . S
C249 O248 1.286 . S
C249 C251 1.363 . S
C250 C240 1.465 . S
C250 U246 2.847 . S
C250 O264 1.249 . S
C250 O265 1.202 . S
C251 C249 1.363 . S
C251 C253 1.408 . S
C251 C256 1.342 . S
C252 C253 1.310 . S
C252 C255 1.461 . S
C252 H272 0.932 . S
C253 C251 1.408 . S
C253 C252 1.310 . S
C253 H273 0.930 . S
C254 C255 1.474 . S
C254 C256 1.285 . S
C254 H274 0.929 . S
C255 C252 1.461 . S
C255 C254 1.474 . S
C256 C251 1.342 . S
C256 C254 1.285 . S
C256 H275 0.930 . S
C257 C260 1.424 . S
C257 C262 1.245 . S
C257 C263 1.428 . S
C258 C261 1.260 . S
C258 C262 1.477 . S
C258 H276 0.932 . S
C259 C260 1.384 . S
C259 C261 1.479 . S
C259 H277 0.929 . S
C260 C257 1.424 . S
C260 C259 1.384 . S
C260 H278 0.928 . S
C261 C258 1.260 . S
C261 C259 1.479 . S
C262 C257 1.245 . S
C262 C258 1.477 . S
C262 H279 0.932 . S
C263 U246 2.882 . S
C263 C257 1.428 . S
C263 O266 1.301 . S
C263 O267 1.282 . S
O264 U246 2.441 . S
O264 C250 1.249 . S
O265 U246 2.420 . S
O265 C250 1.202 . S
O266 U246 2.455 . S
O266 C263 1.301 . S
O267 U246 2.449 . S
O267 C263 1.282 . S
H268 C241 0.931 . S
H269 C243 0.929 . S
H270 C244 0.930 . S
H271 C245 0.931 . S
H272 C252 0.932 . S
H273 C253 0.930 . S
H274 C254 0.929 . S
H275 C256 0.930 . S
H276 C258 0.932 . S
H277 C259 0.929 . S
H278 C260 0.928 . S
H279 C262 0.932 . S
C280 C281 1.264 . S
C280 C285 1.479 . S
C280 C290 1.465 . S
C281 C280 1.264 . S
C281 C283 1.339 . S
C281 H308 0.931 . S
C282 C283 1.395 . S
C282 C284 1.320 . S
C283 C281 1.339 . S
C283 C282 1.395 . S
C283 H309 0.929 . S
C284 C282 1.320 . S
C284 C285 1.405 . S
C284 H310 0.930 . S
C285 C280 1.479 . S
C285 C284 1.405 . S
C285 H311 0.931 . S
U286 O287 2.454 . S
U286 O288 2.458 . S
U286 C289 2.984 . S
U286 C290 2.847 . S
U286 C303 2.882 . S
U286 O304 2.441 . S
U286 O305 2.420 . S
U286 O306 2.455 . S
U286 O307 2.449 . S
O287 U286 2.454 . S
O287 C289 1.353 . S
O288 U286 2.458 . S
O288 C289 1.286 . S
C289 U286 2.984 . S
C289 O287 1.353 . S
C289 O288 1.286 . S
C289 C291 1.363 . S
C290 C280 1.465 . S
C290 U286 2.847 . S
C290 O304 1.249 . S
C290 O305 1.202 . S
C291 C289 1.363 . S
C291 C293 1.408 . S
C291 C296 1.342 . S
C292 C293 1.310 . S
C292 C295 1.461 . S
C292 H312 0.932 . S
C293 C291 1.408 . S
C293 C292 1.310 . S
C293 H313 0.930 . S
C294 C295 1.474 . S
C294 C296 1.285 . S
C294 H314 0.929 . S
C295 C292 1.461 . S
C295 C294 1.474 . S
C296 C291 1.342 . S
C296 C294 1.285 . S
C296 H315 0.930 . S
C297 C300 1.424 . S
C297 C302 1.245 . S
C297 C303 1.428 . S
C298 C301 1.260 . S
C298 C302 1.477 . S
C298 H316 0.932 . S
C299 C300 1.384 . S
C299 C301 1.479 . S
C299 H317 0.929 . S
C300 C297 1.424 . S
C300 C299 1.384 . S
C300 H318 0.928 . S
C301 C298 1.260 . S
C301 C299 1.479 . S
C302 C297 1.245 . S
C302 C298 1.477 . S
C302 H319 0.932 . S
C303 U286 2.882 . S
C303 C297 1.428 . S
C303 O306 1.301 . S
C303 O307 1.282 . S
O304 U286 2.441 . S
O304 C290 1.249 . S
O305 U286 2.420 . S
O305 C290 1.202 . S
O306 U286 2.455 . S
O306 C303 1.301 . S
O307 U286 2.449 . S
O307 C303 1.282 . S
H308 C281 0.931 . S
H309 C283 0.929 . S
H310 C284 0.930 . S
H311 C285 0.931 . S
H312 C292 0.932 . S
H313 C293 0.930 . S
H314 C294 0.929 . S
H315 C296 0.930 . S
H316 C298 0.932 . S
H317 C299 0.929 . S
H318 C300 0.928 . S
H319 C302 0.932 . S
C320 C321 1.264 . S
C320 C325 1.479 . S
C320 C330 1.465 . S
C321 C320 1.264 . S
C321 C323 1.339 . S
C321 H348 0.931 . S
C322 C323 1.395 . S
C322 C324 1.320 . S
C323 C321 1.339 . S
C323 C322 1.395 . S
C323 H349 0.929 . S
C324 C322 1.320 . S
C324 C325 1.405 . S
C324 H350 0.930 . S
C325 C320 1.479 . S
C325 C324 1.405 . S
C325 H351 0.931 . S
U326 O327 2.454 . S
U326 O328 2.458 . S
U326 C329 2.984 . S
U326 C330 2.847 . S
U326 C343 2.882 . S
U326 O344 2.441 . S
U326 O345 2.420 . S
U326 O346 2.455 . S
U326 O347 2.449 . S
O327 U326 2.454 . S
O327 C329 1.353 . S
O328 U326 2.458 . S
O328 C329 1.286 . S
C329 U326 2.984 . S
C329 O327 1.353 . S
C329 O328 1.286 . S
C329 C331 1.363 . S
C330 C320 1.465 . S
C330 U326 2.847 . S
C330 O344 1.249 . S
C330 O345 1.202 . S
C331 C329 1.363 . S
C331 C333 1.408 . S
C331 C336 1.342 . S
C332 C333 1.310 . S
C332 C335 1.461 . S
C332 H352 0.932 . S
C333 C331 1.408 . S
C333 C332 1.310 . S
C333 H353 0.930 . S
C334 C335 1.474 . S
C334 C336 1.285 . S
C334 H354 0.929 . S
C335 C332 1.461 . S
C335 C334 1.474 . S
C336 C331 1.342 . S
C336 C334 1.285 . S
C336 H355 0.930 . S
C337 C340 1.424 . S
C337 C342 1.245 . S
C337 C343 1.428 . S
C338 C341 1.260 . S
C338 C342 1.477 . S
C338 H356 0.932 . S
C339 C340 1.384 . S
C339 C341 1.479 . S
C339 H357 0.929 . S
C340 C337 1.424 . S
C340 C339 1.384 . S
C340 H358 0.928 . S
C341 C338 1.260 . S
C341 C339 1.479 . S
C342 C337 1.245 . S
C342 C338 1.477 . S
C342 H359 0.932 . S
C343 U326 2.882 . S
C343 C337 1.428 . S
C343 O346 1.301 . S
C343 O347 1.282 . S
O344 U326 2.441 . S
O344 C330 1.249 . S
O345 U326 2.420 . S
O345 C330 1.202 . S
O346 U326 2.455 . S
O346 C343 1.301 . S
O347 U326 2.449 . S
O347 C343 1.282 . S
H348 C321 0.931 . S
H349 C323 0.929 . S
H350 C324 0.930 . S
H351 C325 0.931 . S
H352 C332 0.932 . S
H353 C333 0.930 . S
H354 C334 0.929 . S
H355 C336 0.930 . S
H356 C338 0.932 . S
H357 C339 0.929 . S
H358 C340 0.928 . S
H359 C342 0.932 . S
C360 C361 1.264 . S
C360 C365 1.479 . S
C360 C370 1.465 . S
C361 C360 1.264 . S
C361 C363 1.339 . S
C361 H388 0.931 . S
C362 C363 1.395 . S
C362 C364 1.320 . S
C363 C361 1.339 . S
C363 C362 1.395 . S
C363 H389 0.929 . S
C364 C362 1.320 . S
C364 C365 1.405 . S
C364 H390 0.930 . S
C365 C360 1.479 . S
C365 C364 1.405 . S
C365 H391 0.931 . S
U366 O367 2.454 . S
U366 O368 2.458 . S
U366 C369 2.984 . S
U366 C370 2.847 . S
U366 C383 2.882 . S
U366 O384 2.441 . S
U366 O385 2.420 . S
U366 O386 2.455 . S
U366 O387 2.449 . S
O367 U366 2.454 . S
O367 C369 1.353 . S
O368 U366 2.458 . S
O368 C369 1.286 . S
C369 U366 2.984 . S
C369 O367 1.353 . S
C369 O368 1.286 . S
C369 C371 1.363 . S
C370 C360 1.465 . S
C370 U366 2.847 . S
C370 O384 1.249 . S
C370 O385 1.202 . S
C371 C369 1.363 . S
C371 C373 1.408 . S
C371 C376 1.342 . S
C372 C373 1.310 . S
C372 C375 1.461 . S
C372 H392 0.932 . S
C373 C371 1.408 . S
C373 C372 1.310 . S
C373 H393 0.930 . S
C374 C375 1.474 . S
C374 C376 1.285 . S
C374 H394 0.929 . S
C375 C372 1.461 . S
C375 C374 1.474 . S
C376 C371 1.342 . S
C376 C374 1.285 . S
C376 H395 0.930 . S
C377 C380 1.424 . S
C377 C382 1.245 . S
C377 C383 1.428 . S
C378 C381 1.260 . S
C378 C382 1.477 . S
C378 H396 0.932 . S
C379 C380 1.384 . S
C379 C381 1.479 . S
C379 H397 0.929 . S
C380 C377 1.424 . S
C380 C379 1.384 . S
C380 H398 0.928 . S
C381 C378 1.260 . S
C381 C379 1.479 . S
C382 C377 1.245 . S
C382 C378 1.477 . S
C382 H399 0.932 . S
C383 U366 2.882 . S
C383 C377 1.428 . S
C383 O386 1.301 . S
C383 O387 1.282 . S
O384 U366 2.441 . S
O384 C370 1.249 . S
O385 U366 2.420 . S
O385 C370 1.202 . S
O386 U366 2.455 . S
O386 C383 1.301 . S
O387 U366 2.449 . S
O387 C383 1.282 . S
H388 C361 0.931 . S
H389 C363 0.929 . S
H390 C364 0.930 . S
H391 C365 0.931 . S
H392 C372 0.932 . S
H393 C373 0.930 . S
H394 C374 0.929 . S
H395 C376 0.930 . S
H396 C378 0.932 . S
H397 C379 0.929 . S
H398 C380 0.928 . S
H399 C382 0.932 . S
C400 C401 1.264 . S
C400 C405 1.479 . S
C400 C410 1.465 . S
C401 C400 1.264 . S
C401 C403 1.339 . S
C401 H428 0.931 . S
C402 C403 1.395 . S
C402 C404 1.320 . S
C403 C401 1.339 . S
C403 C402 1.395 . S
C403 H429 0.929 . S
C404 C402 1.320 . S
C404 C405 1.405 . S
C404 H430 0.930 . S
C405 C400 1.479 . S
C405 C404 1.405 . S
C405 H431 0.931 . S
U406 O407 2.454 . S
U406 O408 2.458 . S
U406 C409 2.984 . S
U406 C410 2.847 . S
U406 C423 2.882 . S
U406 O424 2.441 . S
U406 O425 2.420 . S
U406 O426 2.455 . S
U406 O427 2.449 . S
O407 U406 2.454 . S
O407 C409 1.353 . S
O408 U406 2.458 . S
O408 C409 1.286 . S
C409 U406 2.984 . S
C409 O407 1.353 . S
C409 O408 1.286 . S
C409 C411 1.363 . S
C410 C400 1.465 . S
C410 U406 2.847 . S
C410 O424 1.249 . S
C410 O425 1.202 . S
C411 C409 1.363 . S
C411 C413 1.408 . S
C411 C416 1.342 . S
C412 C413 1.310 . S
C412 C415 1.461 . S
C412 H432 0.932 . S
C413 C411 1.408 . S
C413 C412 1.310 . S
C413 H433 0.930 . S
C414 C415 1.474 . S
C414 C416 1.285 . S
C414 H434 0.929 . S
C415 C412 1.461 . S
C415 C414 1.474 . S
C416 C411 1.342 . S
C416 C414 1.285 . S
C416 H435 0.930 . S
C417 C420 1.424 . S
C417 C422 1.245 . S
C417 C423 1.428 . S
C418 C421 1.260 . S
C418 C422 1.477 . S
C418 H436 0.932 . S
C419 C420 1.384 . S
C419 C421 1.479 . S
C419 H437 0.929 . S
C420 C417 1.424 . S
C420 C419 1.384 . S
C420 H438 0.928 . S
C421 C418 1.260 . S
C421 C419 1.479 . S
C422 C417 1.245 . S
C422 C418 1.477 . S
C422 H439 0.932 . S
C423 U406 2.882 . S
C423 C417 1.428 . S
C423 O426 1.301 . S
C423 O427 1.282 . S
O424 U406 2.441 . S
O424 C410 1.249 . S
O425 U406 2.420 . S
O425 C410 1.202 . S
O426 U406 2.455 . S
O426 C423 1.301 . S
O427 U406 2.449 . S
O427 C423 1.282 . S
H428 C401 0.931 . S
H429 C403 0.929 . S
H430 C404 0.930 . S
H431 C405 0.931 . S
H432 C412 0.932 . S
H433 C413 0.930 . S
H434 C414 0.929 . S
H435 C416 0.930 . S
H436 C418 0.932 . S
H437 C419 0.929 . S
H438 C420 0.928 . S
H439 C422 0.932 . S
C440 C441 1.264 . S
C440 C445 1.479 . S
C440 C450 1.465 . S
C441 C440 1.264 . S
C441 C443 1.339 . S
C441 H468 0.931 . S
C442 C443 1.395 . S
C442 C444 1.320 . S
C443 C441 1.339 . S
C443 C442 1.395 . S
C443 H469 0.929 . S
C444 C442 1.320 . S
C444 C445 1.405 . S
C444 H470 0.930 . S
C445 C440 1.479 . S
C445 C444 1.405 . S
C445 H471 0.931 . S
U446 O447 2.454 . S
U446 O448 2.458 . S
U446 C449 2.984 . S
U446 C450 2.847 . S
U446 C463 2.882 . S
U446 O464 2.441 . S
U446 O465 2.420 . S
U446 O466 2.455 . S
U446 O467 2.449 . S
O447 U446 2.454 . S
O447 C449 1.353 . S
O448 U446 2.458 . S
O448 C449 1.286 . S
C449 U446 2.984 . S
C449 O447 1.353 . S
C449 O448 1.286 . S
C449 C451 1.363 . S
C450 C440 1.465 . S
C450 U446 2.847 . S
C450 O464 1.249 . S
C450 O465 1.202 . S
C451 C449 1.363 . S
C451 C453 1.408 . S
C451 C456 1.342 . S
C452 C453 1.310 . S
C452 C455 1.461 . S
C452 H472 0.932 . S
C453 C451 1.408 . S
C453 C452 1.310 . S
C453 H473 0.930 . S
C454 C455 1.474 . S
C454 C456 1.285 . S
C454 H474 0.929 . S
C455 C452 1.461 . S
C455 C454 1.474 . S
C456 C451 1.342 . S
C456 C454 1.285 . S
C456 H475 0.930 . S
C457 C460 1.424 . S
C457 C462 1.245 . S
C457 C463 1.428 . S
C458 C461 1.260 . S
C458 C462 1.477 . S
C458 H476 0.932 . S
C459 C460 1.384 . S
C459 C461 1.479 . S
C459 H477 0.929 . S
C460 C457 1.424 . S
C460 C459 1.384 . S
C460 H478 0.928 . S
C461 C458 1.260 . S
C461 C459 1.479 . S
C462 C457 1.245 . S
C462 C458 1.477 . S
C462 H479 0.932 . S
C463 U446 2.882 . S
C463 C457 1.428 . S
C463 O466 1.301 . S
C463 O467 1.282 . S
O464 U446 2.441 . S
O464 C450 1.249 . S
O465 U446 2.420 . S
O465 C450 1.202 . S
O466 U446 2.455 . S
O466 C463 1.301 . S
O467 U446 2.449 . S
O467 C463 1.282 . S
H468 C441 0.931 . S
H469 C443 0.929 . S
H470 C444 0.930 . S
H471 C445 0.931 . S
H472 C452 0.932 . S
H473 C453 0.930 . S
H474 C454 0.929 . S
H475 C456 0.930 . S
H476 C458 0.932 . S
H477 C459 0.929 . S
H478 C460 0.928 . S
H479 C462 0.932 . S
C480 C481 1.264 . S
C480 C485 1.479 . S
C480 C490 1.465 . S
C481 C480 1.264 . S
C481 C483 1.339 . S
C481 H508 0.931 . S
C482 C483 1.395 . S
C482 C484 1.320 . S
C483 C481 1.339 . S
C483 C482 1.395 . S
C483 H509 0.929 . S
C484 C482 1.320 . S
C484 C485 1.405 . S
C484 H510 0.930 . S
C485 C480 1.479 . S
C485 C484 1.405 . S
C485 H511 0.931 . S
U486 O487 2.454 . S
U486 O488 2.458 . S
U486 C489 2.984 . S
U486 C490 2.847 . S
U486 C503 2.882 . S
U486 O504 2.441 . S
U486 O505 2.420 . S
U486 O506 2.455 . S
U486 O507 2.449 . S
O487 U486 2.454 . S
O487 C489 1.353 . S
O488 U486 2.458 . S
O488 C489 1.286 . S
C489 U486 2.984 . S
C489 O487 1.353 . S
C489 O488 1.286 . S
C489 C491 1.363 . S
C490 C480 1.465 . S
C490 U486 2.847 . S
C490 O504 1.249 . S
C490 O505 1.202 . S
C491 C489 1.363 . S
C491 C493 1.408 . S
C491 C496 1.342 . S
C492 C493 1.310 . S
C492 C495 1.461 . S
C492 H512 0.932 . S
C493 C491 1.408 . S
C493 C492 1.310 . S
C493 H513 0.930 . S
C494 C495 1.474 . S
C494 C496 1.285 . S
C494 H514 0.929 . S
C495 C492 1.461 . S
C495 C494 1.474 . S
C496 C491 1.342 . S
C496 C494 1.285 . S
C496 H515 0.930 . S
C497 C500 1.424 . S
C497 C502 1.245 . S
C497 C503 1.428 . S
C498 C501 1.260 . S
C498 C502 1.477 . S
C498 H516 0.932 . S
C499 C500 1.384 . S
C499 C501 1.479 . S
C499 H517 0.929 . S
C500 C497 1.424 . S
C500 C499 1.384 . S
C500 H518 0.928 . S
C501 C498 1.260 . S
C501 C499 1.479 . S
C502 C497 1.245 . S
C502 C498 1.477 . S
C502 H519 0.932 . S
C503 U486 2.882 . S
C503 C497 1.428 . S
C503 O506 1.301 . S
C503 O507 1.282 . S
O504 U486 2.441 . S
O504 C490 1.249 . S
O505 U486 2.420 . S
O505 C490 1.202 . S
O506 U486 2.455 . S
O506 C503 1.301 . S
O507 U486 2.449 . S
O507 C503 1.282 . S
H508 C481 0.931 . S
H509 C483 0.929 . S
H510 C484 0.930 . S
H511 C485 0.931 . S
H512 C492 0.932 . S
H513 C493 0.930 . S
H514 C494 0.929 . S
H515 C496 0.930 . S
H516 C498 0.932 . S
H517 C499 0.929 . S
H518 C500 0.928 . S
H519 C502 0.932 . S
C520 C521 1.264 . S
C520 C525 1.479 . S
C520 C530 1.465 . S
C521 C520 1.264 . S
C521 C523 1.339 . S
C521 H548 0.931 . S
C522 C523 1.395 . S
C522 C524 1.320 . S
C523 C521 1.339 . S
C523 C522 1.395 . S
C523 H549 0.929 . S
C524 C522 1.320 . S
C524 C525 1.405 . S
C524 H550 0.930 . S
C525 C520 1.479 . S
C525 C524 1.405 . S
C525 H551 0.931 . S
U526 O527 2.454 . S
U526 O528 2.458 . S
U526 C529 2.984 . S
U526 C530 2.847 . S
U526 C543 2.882 . S
U526 O544 2.441 . S
U526 O545 2.420 . S
U526 O546 2.455 . S
U526 O547 2.449 . S
O527 U526 2.454 . S
O527 C529 1.353 . S
O528 U526 2.458 . S
O528 C529 1.286 . S
C529 U526 2.984 . S
C529 O527 1.353 . S
C529 O528 1.286 . S
C529 C531 1.363 . S
C530 C520 1.465 . S
C530 U526 2.847 . S
C530 O544 1.249 . S
C530 O545 1.202 . S
C531 C529 1.363 . S
C531 C533 1.408 . S
C531 C536 1.342 . S
C532 C533 1.310 . S
C532 C535 1.461 . S
C532 H552 0.932 . S
C533 C531 1.408 . S
C533 C532 1.310 . S
C533 H553 0.930 . S
C534 C535 1.474 . S
C534 C536 1.285 . S
C534 H554 0.929 . S
C535 C532 1.461 . S
C535 C534 1.474 . S
C536 C531 1.342 . S
C536 C534 1.285 . S
C536 H555 0.930 . S
C537 C540 1.424 . S
C537 C542 1.245 . S
C537 C543 1.428 . S
C538 C541 1.260 . S
C538 C542 1.477 . S
C538 H556 0.932 . S
C539 C540 1.384 . S
C539 C541 1.479 . S
C539 H557 0.929 . S
C540 C537 1.424 . S
C540 C539 1.384 . S
C540 H558 0.928 . S
C541 C538 1.260 . S
C541 C539 1.479 . S
C542 C537 1.245 . S
C542 C538 1.477 . S
C542 H559 0.932 . S
C543 U526 2.882 . S
C543 C537 1.428 . S
C543 O546 1.301 . S
C543 O547 1.282 . S
O544 U526 2.441 . S
O544 C530 1.249 . S
O545 U526 2.420 . S
O545 C530 1.202 . S
O546 U526 2.455 . S
O546 C543 1.301 . S
O547 U526 2.449 . S
O547 C543 1.282 . S
H548 C521 0.931 . S
H549 C523 0.929 . S
H550 C524 0.930 . S
H551 C525 0.931 . S
H552 C532 0.932 . S
H553 C533 0.930 . S
H554 C534 0.929 . S
H555 C536 0.930 . S
H556 C538 0.932 . S
H557 C539 0.929 . S
H558 C540 0.928 . S
H559 C542 0.932 . S
C560 C561 1.264 . S
C560 C565 1.479 . S
C560 C570 1.465 . S
C561 C560 1.264 . S
C561 C563 1.339 . S
C561 H588 0.931 . S
C562 C563 1.395 . S
C562 C564 1.320 . S
C563 C561 1.339 . S
C563 C562 1.395 . S
C563 H589 0.929 . S
C564 C562 1.320 . S
C564 C565 1.405 . S
C564 H590 0.930 . S
C565 C560 1.479 . S
C565 C564 1.405 . S
C565 H591 0.931 . S
U566 O567 2.454 . S
U566 O568 2.458 . S
U566 C569 2.984 . S
U566 C570 2.847 . S
U566 C583 2.882 . S
U566 O584 2.441 . S
U566 O585 2.420 . S
U566 O586 2.455 . S
U566 O587 2.449 . S
O567 U566 2.454 . S
O567 C569 1.353 . S
O568 U566 2.458 . S
O568 C569 1.286 . S
C569 U566 2.984 . S
C569 O567 1.353 . S
C569 O568 1.286 . S
C569 C571 1.363 . S
C570 C560 1.465 . S
C570 U566 2.847 . S
C570 O584 1.249 . S
C570 O585 1.202 . S
C571 C569 1.363 . S
C571 C573 1.408 . S
C571 C576 1.342 . S
C572 C573 1.310 . S
C572 C575 1.461 . S
C572 H592 0.932 . S
C573 C571 1.408 . S
C573 C572 1.310 . S
C573 H593 0.930 . S
C574 C575 1.474 . S
C574 C576 1.285 . S
C574 H594 0.929 . S
C575 C572 1.461 . S
C575 C574 1.474 . S
C576 C571 1.342 . S
C576 C574 1.285 . S
C576 H595 0.930 . S
C577 C580 1.424 . S
C577 C582 1.245 . S
C577 C583 1.428 . S
C578 C581 1.260 . S
C578 C582 1.477 . S
C578 H596 0.932 . S
C579 C580 1.384 . S
C579 C581 1.479 . S
C579 H597 0.929 . S
C580 C577 1.424 . S
C580 C579 1.384 . S
C580 H598 0.928 . S
C581 C578 1.260 . S
C581 C579 1.479 . S
C582 C577 1.245 . S
C582 C578 1.477 . S
C582 H599 0.932 . S
C583 U566 2.882 . S
C583 C577 1.428 . S
C583 O586 1.301 . S
C583 O587 1.282 . S
O584 U566 2.441 . S
O584 C570 1.249 . S
O585 U566 2.420 . S
O585 C570 1.202 . S
O586 U566 2.455 . S
O586 C583 1.301 . S
O587 U566 2.449 . S
O587 C583 1.282 . S
H588 C561 0.931 . S
H589 C563 0.929 . S
H590 C564 0.930 . S
H591 C565 0.931 . S
H592 C572 0.932 . S
H593 C573 0.930 . S
H594 C574 0.929 . S
H595 C576 0.930 . S
H596 C578 0.932 . S
H597 C579 0.929 . S
H598 C580 0.928 . S
H599 C582 0.932 . S
C600 C601 1.264 . S
C600 C605 1.479 . S
C600 C610 1.465 . S
C601 C600 1.264 . S
C601 C603 1.339 . S
C601 H628 0.931 . S
C602 C603 1.395 . S
C602 C604 1.320 . S
C603 C601 1.339 . S
C603 C602 1.395 . S
C603 H629 0.929 . S
C604 C602 1.320 . S
C604 C605 1.405 . S
C604 H630 0.930 . S
C605 C600 1.479 . S
C605 C604 1.405 . S
C605 H631 0.931 . S
U606 O607 2.454 . S
U606 O608 2.458 . S
U606 C609 2.984 . S
U606 C610 2.847 . S
U606 C623 2.882 . S
U606 O624 2.441 . S
U606 O625 2.420 . S
U606 O626 2.455 . S
U606 O627 2.449 . S
O607 U606 2.454 . S
O607 C609 1.353 . S
O608 U606 2.458 . S
O608 C609 1.286 . S
C609 U606 2.984 . S
C609 O607 1.353 . S
C609 O608 1.286 . S
C609 C611 1.363 . S
C610 C600 1.465 . S
C610 U606 2.847 . S
C610 O624 1.249 . S
C610 O625 1.202 . S
C611 C609 1.363 . S
C611 C613 1.408 . S
C611 C616 1.342 . S
C612 C613 1.310 . S
C612 C615 1.461 . S
C612 H632 0.932 . S
C613 C611 1.408 . S
C613 C612 1.310 . S
C613 H633 0.930 . S
C614 C615 1.474 . S
C614 C616 1.285 . S
C614 H634 0.929 . S
C615 C612 1.461 . S
C615 C614 1.474 . S
C616 C611 1.342 . S
C616 C614 1.285 . S
C616 H635 0.930 . S
C617 C620 1.424 . S
C617 C622 1.245 . S
C617 C623 1.428 . S
C618 C621 1.260 . S
C618 C622 1.477 . S
C618 H636 0.932 . S
C619 C620 1.384 . S
C619 C621 1.479 . S
C619 H637 0.929 . S
C620 C617 1.424 . S
C620 C619 1.384 . S
C620 H638 0.928 . S
C621 C618 1.260 . S
C621 C619 1.479 . S
C622 C617 1.245 . S
C622 C618 1.477 . S
C622 H639 0.932 . S
C623 U606 2.882 . S
C623 C617 1.428 . S
C623 O626 1.301 . S
C623 O627 1.282 . S
O624 U606 2.441 . S
O624 C610 1.249 . S
O625 U606 2.420 . S
O625 C610 1.202 . S
O626 U606 2.455 . S
O626 C623 1.301 . S
O627 U606 2.449 . S
O627 C623 1.282 . S
H628 C601 0.931 . S
H629 C603 0.929 . S
H630 C604 0.930 . S
H631 C605 0.931 . S
H632 C612 0.932 . S
H633 C613 0.930 . S
H634 C614 0.929 . S
H635 C616 0.930 . S
H636 C618 0.932 . S
H637 C619 0.929 . S
H638 C620 0.928 . S
H639 C622 0.932 . S
C640 C641 1.264 . S
C640 C645 1.479 . S
C640 C650 1.465 . S
C641 C640 1.264 . S
C641 C643 1.339 . S
C641 H668 0.931 . S
C642 C643 1.395 . S
C642 C644 1.320 . S
C643 C641 1.339 . S
C643 C642 1.395 . S
C643 H669 0.929 . S
C644 C642 1.320 . S
C644 C645 1.405 . S
C644 H670 0.930 . S
C645 C640 1.479 . S
C645 C644 1.405 . S
C645 H671 0.931 . S
U646 O647 2.454 . S
U646 O648 2.458 . S
U646 C649 2.984 . S
U646 C650 2.847 . S
U646 C663 2.882 . S
U646 O664 2.441 . S
U646 O665 2.420 . S
U646 O666 2.455 . S
U646 O667 2.449 . S
O647 U646 2.454 . S
O647 C649 1.353 . S
O648 U646 2.458 . S
O648 C649 1.286 . S
C649 U646 2.984 . S
C649 O647 1.353 . S
C649 O648 1.286 . S
C649 C651 1.363 . S
C650 C640 1.465 . S
C650 U646 2.847 . S
C650 O664 1.249 . S
C650 O665 1.202 . S
C651 C649 1.363 . S
C651 C653 1.408 . S
C651 C656 1.342 . S
C652 C653 1.310 . S
C652 C655 1.461 . S
C652 H672 0.932 . S
C653 C651 1.408 . S
C653 C652 1.310 . S
C653 H673 0.930 . S
C654 C655 1.474 . S
C654 C656 1.285 . S
C654 H674 0.929 . S
C655 C652 1.461 . S
C655 C654 1.474 . S
C656 C651 1.342 . S
C656 C654 1.285 . S
C656 H675 0.930 . S
C657 C660 1.424 . S
C657 C662 1.245 . S
C657 C663 1.428 . S
C658 C661 1.260 . S
C658 C662 1.477 . S
C658 H676 0.932 . S
C659 C660 1.384 . S
C659 C661 1.479 . S
C659 H677 0.929 . S
C660 C657 1.424 . S
C660 C659 1.384 . S
C660 H678 0.928 . S
C661 C658 1.260 . S
C661 C659 1.479 . S
C662 C657 1.245 . S
C662 C658 1.477 . S
C662 H679 0.932 . S
C663 U646 2.882 . S
C663 C657 1.428 . S
C663 O666 1.301 . S
C663 O667 1.282 . S
O664 U646 2.441 . S
O664 C650 1.249 . S
O665 U646 2.420 . S
O665 C650 1.202 . S
O666 U646 2.455 . S
O666 C663 1.301 . S
O667 U646 2.449 . S
O667 C663 1.282 . S
H668 C641 0.931 . S
H669 C643 0.929 . S
H670 C644 0.930 . S
H671 C645 0.931 . S
H672 C652 0.932 . S
H673 C653 0.930 . S
H674 C654 0.929 . S
H675 C656 0.930 . S
H676 C658 0.932 . S
H677 C659 0.929 . S
H678 C660 0.928 . S
H679 C662 0.932 . S
C680 C681 1.264 . S
C680 C685 1.479 . S
C680 C690 1.465 . S
C681 C680 1.264 . S
C681 C683 1.339 . S
C681 H708 0.931 . S
C682 C683 1.395 . S
C682 C684 1.320 . S
C683 C681 1.339 . S
C683 C682 1.395 . S
C683 H709 0.929 . S
C684 C682 1.320 . S
C684 C685 1.405 . S
C684 H710 0.930 . S
C685 C680 1.479 . S
C685 C684 1.405 . S
C685 H711 0.931 . S
U686 O687 2.454 . S
U686 O688 2.458 . S
U686 C689 2.984 . S
U686 C690 2.847 . S
U686 C703 2.882 . S
U686 O704 2.441 . S
U686 O705 2.420 . S
U686 O706 2.455 . S
U686 O707 2.449 . S
O687 U686 2.454 . S
O687 C689 1.353 . S
O688 U686 2.458 . S
O688 C689 1.286 . S
C689 U686 2.984 . S
C689 O687 1.353 . S
C689 O688 1.286 . S
C689 C691 1.363 . S
C690 C680 1.465 . S
C690 U686 2.847 . S
C690 O704 1.249 . S
C690 O705 1.202 . S
C691 C689 1.363 . S
C691 C693 1.408 . S
C691 C696 1.342 . S
C692 C693 1.310 . S
C692 C695 1.461 . S
C692 H712 0.932 . S
C693 C691 1.408 . S
C693 C692 1.310 . S
C693 H713 0.930 . S
C694 C695 1.474 . S
C694 C696 1.285 . S
C694 H714 0.929 . S
C695 C692 1.461 . S
C695 C694 1.474 . S
C696 C691 1.342 . S
C696 C694 1.285 . S
C696 H715 0.930 . S
C697 C700 1.424 . S
C697 C702 1.245 . S
C697 C703 1.428 . S
C698 C701 1.260 . S
C698 C702 1.477 . S
C698 H716 0.932 . S
C699 C700 1.384 . S
C699 C701 1.479 . S
C699 H717 0.929 . S
C700 C697 1.424 . S
C700 C699 1.384 . S
C700 H718 0.928 . S
C701 C698 1.260 . S
C701 C699 1.479 . S
C702 C697 1.245 . S
C702 C698 1.477 . S
C702 H719 0.932 . S
C703 U686 2.882 . S
C703 C697 1.428 . S
C703 O706 1.301 . S
C703 O707 1.282 . S
O704 U686 2.441 . S
O704 C690 1.249 . S
O705 U686 2.420 . S
O705 C690 1.202 . S
O706 U686 2.455 . S
O706 C703 1.301 . S
O707 U686 2.449 . S
O707 C703 1.282 . S
H708 C681 0.931 . S
H709 C683 0.929 . S
H710 C684 0.930 . S
H711 C685 0.931 . S
H712 C692 0.932 . S
H713 C693 0.930 . S
H714 C694 0.929 . S
H715 C696 0.930 . S
H716 C698 0.932 . S
H717 C699 0.929 . S
H718 C700 0.928 . S
H719 C702 0.932 . S
C720 C721 1.264 . S
C720 C725 1.479 . S
C720 C730 1.465 . S
C721 C720 1.264 . S
C721 C723 1.339 . S
C721 H748 0.931 . S
C722 C723 1.395 . S
C722 C724 1.320 . S
C723 C721 1.339 . S
C723 C722 1.395 . S
C723 H749 0.929 . S
C724 C722 1.320 . S
C724 C725 1.405 . S
C724 H750 0.930 . S
C725 C720 1.479 . S
C725 C724 1.405 . S
C725 H751 0.931 . S
U726 O727 2.454 . S
U726 O728 2.458 . S
U726 C729 2.984 . S
U726 C730 2.847 . S
U726 C743 2.882 . S
U726 O744 2.441 . S
U726 O745 2.420 . S
U726 O746 2.455 . S
U726 O747 2.449 . S
O727 U726 2.454 . S
O727 C729 1.353 . S
O728 U726 2.458 . S
O728 C729 1.286 . S
C729 U726 2.984 . S
C729 O727 1.353 . S
C729 O728 1.286 . S
C729 C731 1.363 . S
C730 C720 1.465 . S
C730 U726 2.847 . S
C730 O744 1.249 . S
C730 O745 1.202 . S
C731 C729 1.363 . S
C731 C733 1.408 . S
C731 C736 1.342 . S
C732 C733 1.310 . S
C732 C735 1.461 . S
C732 H752 0.932 . S
C733 C731 1.408 . S
C733 C732 1.310 . S
C733 H753 0.930 . S
C734 C735 1.474 . S
C734 C736 1.285 . S
C734 H754 0.929 . S
C735 C732 1.461 . S
C735 C734 1.474 . S
C736 C731 1.342 . S
C736 C734 1.285 . S
C736 H755 0.930 . S
C737 C740 1.424 . S
C737 C742 1.245 . S
C737 C743 1.428 . S
C738 C741 1.260 . S
C738 C742 1.477 . S
C738 H756 0.932 . S
C739 C740 1.384 . S
C739 C741 1.479 . S
C739 H757 0.929 . S
C740 C737 1.424 . S
C740 C739 1.384 . S
C740 H758 0.928 . S
C741 C738 1.260 . S
C741 C739 1.479 . S
C742 C737 1.245 . S
C742 C738 1.477 . S
C742 H759 0.932 . S
C743 U726 2.882 . S
C743 C737 1.428 . S
C743 O746 1.301 . S
C743 O747 1.282 . S
O744 U726 2.441 . S
O744 C730 1.249 . S
O745 U726 2.420 . S
O745 C730 1.202 . S
O746 U726 2.455 . S
O746 C743 1.301 . S
O747 U726 2.449 . S
O747 C743 1.282 . S
H748 C721 0.931 . S
H749 C723 0.929 . S
H750 C724 0.930 . S
H751 C725 0.931 . S
H752 C732 0.932 . S
H753 C733 0.930 . S
H754 C734 0.929 . S
H755 C736 0.930 . S
H756 C738 0.932 . S
H757 C739 0.929 . S
H758 C740 0.928 . S
H759 C742 0.932 . S
C760 C761 1.264 . S
C760 C765 1.479 . S
C760 C770 1.465 . S
C761 C760 1.264 . S
C761 C763 1.339 . S
C761 H788 0.931 . S
C762 C763 1.395 . S
C762 C764 1.320 . S
C763 C761 1.339 . S
C763 C762 1.395 . S
C763 H789 0.929 . S
C764 C762 1.320 . S
C764 C765 1.405 . S
C764 H790 0.930 . S
C765 C760 1.479 . S
C765 C764 1.405 . S
C765 H791 0.931 . S
U766 O767 2.454 . S
U766 O768 2.458 . S
U766 C769 2.984 . S
U766 C770 2.847 . S
U766 C783 2.882 . S
U766 O784 2.441 . S
U766 O785 2.420 . S
U766 O786 2.455 . S
U766 O787 2.449 . S
O767 U766 2.454 . S
O767 C769 1.353 . S
O768 U766 2.458 . S
O768 C769 1.286 . S
C769 U766 2.984 . S
C769 O767 1.353 . S
C769 O768 1.286 . S
C769 C771 1.363 . S
C770 C760 1.465 . S
C770 U766 2.847 . S
C770 O784 1.249 . S
C770 O785 1.202 . S
C771 C769 1.363 . S
C771 C773 1.408 . S
C771 C776 1.342 . S
C772 C773 1.310 . S
C772 C775 1.461 . S
C772 H792 0.932 . S
C773 C771 1.408 . S
C773 C772 1.310 . S
C773 H793 0.930 . S
C774 C775 1.474 . S
C774 C776 1.285 . S
C774 H794 0.929 . S
C775 C772 1.461 . S
C775 C774 1.474 . S
C776 C771 1.342 . S
C776 C774 1.285 . S
C776 H795 0.930 . S
C777 C780 1.424 . S
C777 C782 1.245 . S
C777 C783 1.428 . S
C778 C781 1.260 . S
C778 C782 1.477 . S
C778 H796 0.932 . S
C779 C780 1.384 . S
C779 C781 1.479 . S
C779 H797 0.929 . S
C780 C777 1.424 . S
C780 C779 1.384 . S
C780 H798 0.928 . S
C781 C778 1.260 . S
C781 C779 1.479 . S
C782 C777 1.245 . S
C782 C778 1.477 . S
C782 H799 0.932 . S
C783 U766 2.882 . S
C783 C777 1.428 . S
C783 O786 1.301 . S
C783 O787 1.282 . S
O784 U766 2.441 . S
O784 C770 1.249 . S
O785 U766 2.420 . S
O785 C770 1.202 . S
O786 U766 2.455 . S
O786 C783 1.301 . S
O787 U766 2.449 . S
O787 C783 1.282 . S
H788 C761 0.931 . S
H789 C763 0.929 . S
H790 C764 0.930 . S
H791 C765 0.931 . S
H792 C772 0.932 . S
H793 C773 0.930 . S
H794 C774 0.929 . S
H795 C776 0.930 . S
H796 C778 0.932 . S
H797 C779 0.929 . S
H798 C780 0.928 . S
H799 C782 0.932 . S
C800 C801 1.264 . S
C800 C805 1.479 . S
C800 C810 1.465 . S
C801 C800 1.264 . S
C801 C803 1.339 . S
C801 H828 0.931 . S
C802 C803 1.395 . S
C802 C804 1.320 . S
C803 C801 1.339 . S
C803 C802 1.395 . S
C803 H829 0.929 . S
C804 C802 1.320 . S
C804 C805 1.405 . S
C804 H830 0.930 . S
C805 C800 1.479 . S
C805 C804 1.405 . S
C805 H831 0.931 . S
U806 O807 2.454 . S
U806 O808 2.458 . S
U806 C809 2.984 . S
U806 C810 2.847 . S
U806 C823 2.882 . S
U806 O824 2.441 . S
U806 O825 2.420 . S
U806 O826 2.455 . S
U806 O827 2.449 . S
O807 U806 2.454 . S
O807 C809 1.353 . S
O808 U806 2.458 . S
O808 C809 1.286 . S
C809 U806 2.984 . S
C809 O807 1.353 . S
C809 O808 1.286 . S
C809 C811 1.363 . S
C810 C800 1.465 . S
C810 U806 2.847 . S
C810 O824 1.249 . S
C810 O825 1.202 . S
C811 C809 1.363 . S
C811 C813 1.408 . S
C811 C816 1.342 . S
C812 C813 1.310 . S
C812 C815 1.461 . S
C812 H832 0.932 . S
C813 C811 1.408 . S
C813 C812 1.310 . S
C813 H833 0.930 . S
C814 C815 1.474 . S
C814 C816 1.285 . S
C814 H834 0.929 . S
C815 C812 1.461 . S
C815 C814 1.474 . S
C816 C811 1.342 . S
C816 C814 1.285 . S
C816 H835 0.930 . S
C817 C820 1.424 . S
C817 C822 1.245 . S
C817 C823 1.428 . S
C818 C821 1.260 . S
C818 C822 1.477 . S
C818 H836 0.932 . S
C819 C820 1.384 . S
C819 C821 1.479 . S
C819 H837 0.929 . S
C820 C817 1.424 . S
C820 C819 1.384 . S
C820 H838 0.928 . S
C821 C818 1.260 . S
C821 C819 1.479 . S
C822 C817 1.245 . S
C822 C818 1.477 . S
C822 H839 0.932 . S
C823 U806 2.882 . S
C823 C817 1.428 . S
C823 O826 1.301 . S
C823 O827 1.282 . S
O824 U806 2.441 . S
O824 C810 1.249 . S
O825 U806 2.420 . S
O825 C810 1.202 . S
O826 U806 2.455 . S
O826 C823 1.301 . S
O827 U806 2.449 . S
O827 C823 1.282 . S
H828 C801 0.931 . S
H829 C803 0.929 . S
H830 C804 0.930 . S
H831 C805 0.931 . S
H832 C812 0.932 . S
H833 C813 0.930 . S
H834 C814 0.929 . S
H835 C816 0.930 . S
H836 C818 0.932 . S
H837 C819 0.929 . S
H838 C820 0.928 . S
H839 C822 0.932 . S
C840 C841 1.264 . S
C840 C845 1.479 . S
C840 C850 1.465 . S
C841 C840 1.264 . S
C841 C843 1.339 . S
C841 H868 0.931 . S
C842 C843 1.395 . S
C842 C844 1.320 . S
C843 C841 1.339 . S
C843 C842 1.395 . S
C843 H869 0.929 . S
C844 C842 1.320 . S
C844 C845 1.405 . S
C844 H870 0.930 . S
C845 C840 1.479 . S
C845 C844 1.405 . S
C845 H871 0.931 . S
U846 O847 2.454 . S
U846 O848 2.458 . S
U846 C849 2.984 . S
U846 C850 2.847 . S
U846 C863 2.882 . S
U846 O864 2.441 . S
U846 O865 2.420 . S
U846 O866 2.455 . S
U846 O867 2.449 . S
O847 U846 2.454 . S
O847 C849 1.353 . S
O848 U846 2.458 . S
O848 C849 1.286 . S
C849 U846 2.984 . S
C849 O847 1.353 . S
C849 O848 1.286 . S
C849 C851 1.363 . S
C850 C840 1.465 . S
C850 U846 2.847 . S
C850 O864 1.249 . S
C850 O865 1.202 . S
C851 C849 1.363 . S
C851 C853 1.408 . S
C851 C856 1.342 . S
C852 C853 1.310 . S
C852 C855 1.461 . S
C852 H872 0.932 . S
C853 C851 1.408 . S
C853 C852 1.310 . S
C853 H873 0.930 . S
C854 C855 1.474 . S
C854 C856 1.285 . S
C854 H874 0.929 . S
C855 C852 1.461 . S
C855 C854 1.474 . S
C856 C851 1.342 . S
C856 C854 1.285 . S
C856 H875 0.930 . S
C857 C860 1.424 . S
C857 C862 1.245 . S
C857 C863 1.428 1_556 S
C858 C861 1.260 . S
C858 C862 1.477 . S
C858 H876 0.932 . S
C859 C860 1.384 . S
C859 C861 1.479 . S
C859 H877 0.929 . S
C860 C857 1.424 . S
C860 C859 1.384 . S
C860 H878 0.928 . S
C861 C858 1.260 . S
C861 C859 1.479 . S
C862 C857 1.245 . S
C862 C858 1.477 . S
C862 H879 0.932 1_556 S
C863 U846 2.882 . S
C863 C857 1.428 1_554 S
C863 O866 1.301 . S
C863 O867 1.282 . S
O864 U846 2.441 . S
O864 C850 1.249 . S
O865 U846 2.420 . S
O865 C850 1.202 . S
O866 U846 2.455 . S
O866 C863 1.301 . S
O867 U846 2.449 . S
O867 C863 1.282 . S
H868 C841 0.931 . S
H869 C843 0.929 . S
H870 C844 0.930 . S
H871 C845 0.931 . S
H872 C852 0.932 . S
H873 C853 0.930 . S
H874 C854 0.929 . S
H875 C856 0.930 . S
H876 C858 0.932 . S
H877 C859 0.929 . S
H878 C860 0.928 . S
H879 C862 0.932 1_554 S
C880 C881 1.264 . S
C880 C885 1.479 . S
C880 C890 1.465 . S
C881 C880 1.264 . S
C881 C883 1.339 . S
C881 H908 0.931 . S
C882 C883 1.395 . S
C882 C884 1.320 . S
C883 C881 1.339 . S
C883 C882 1.395 . S
C883 H909 0.929 . S
C884 C882 1.320 . S
C884 C885 1.405 . S
C884 H910 0.930 . S
C885 C880 1.479 . S
C885 C884 1.405 . S
C885 H911 0.931 . S
U886 O887 2.454 . S
U886 O888 2.458 . S
U886 C889 2.984 . S
U886 C890 2.847 . S
U886 C903 2.882 . S
U886 O904 2.441 . S
U886 O905 2.420 . S
U886 O906 2.455 . S
U886 O907 2.449 . S
O887 U886 2.454 . S
O887 C889 1.353 . S
O888 U886 2.458 . S
O888 C889 1.286 . S
C889 U886 2.984 . S
C889 O887 1.353 . S
C889 O888 1.286 . S
C889 C891 1.363 . S
C890 C880 1.465 . S
C890 U886 2.847 . S
C890 O904 1.249 . S
C890 O905 1.202 . S
C891 C889 1.363 . S
C891 C893 1.408 . S
C891 C896 1.342 . S
C892 C893 1.310 . S
C892 C895 1.461 . S
C892 H912 0.932 . S
C893 C891 1.408 . S
C893 C892 1.310 . S
C893 H913 0.930 . S
C894 C895 1.474 . S
C894 C896 1.285 . S
C894 H914 0.929 . S
C895 C892 1.461 . S
C895 C894 1.474 . S
C896 C891 1.342 . S
C896 C894 1.285 . S
C896 H915 0.930 . S
C897 C900 1.424 . S
C897 C902 1.245 . S
C897 C903 1.428 1_556 S
C898 C901 1.260 . S
C898 C902 1.477 . S
C898 H916 0.932 . S
C899 C900 1.384 . S
C899 C901 1.479 . S
C899 H917 0.929 . S
C900 C897 1.424 . S
C900 C899 1.384 . S
C900 H918 0.928 . S
C901 C898 1.260 . S
C901 C899 1.479 . S
C902 C897 1.245 . S
C902 C898 1.477 . S
C902 H919 0.932 1_556 S
C903 U886 2.882 . S
C903 C897 1.428 1_554 S
C903 O906 1.301 . S
C903 O907 1.282 . S
O904 U886 2.441 . S
O904 C890 1.249 . S
O905 U886 2.420 . S
O905 C890 1.202 . S
O906 U886 2.455 . S
O906 C903 1.301 . S
O907 U886 2.449 . S
O907 C903 1.282 . S
H908 C881 0.931 . S
H909 C883 0.929 . S
H910 C884 0.930 . S
H911 C885 0.931 . S
H912 C892 0.932 . S
H913 C893 0.930 . S
H914 C894 0.929 . S
H915 C896 0.930 . S
H916 C898 0.932 . S
H917 C899 0.929 . S
H918 C900 0.928 . S
H919 C902 0.932 1_554 S
C920 C921 1.264 . S
C920 C925 1.479 . S
C920 C930 1.465 . S
C921 C920 1.264 . S
C921 C923 1.339 . S
C921 H948 0.931 . S
C922 C923 1.395 . S
C922 C924 1.320 . S
C923 C921 1.339 . S
C923 C922 1.395 . S
C923 H949 0.929 . S
C924 C922 1.320 . S
C924 C925 1.405 . S
C924 H950 0.930 . S
C925 C920 1.479 . S
C925 C924 1.405 . S
C925 H951 0.931 . S
U926 O927 2.454 . S
U926 O928 2.458 . S
U926 C929 2.984 . S
U926 C930 2.847 . S
U926 C943 2.882 . S
U926 O944 2.441 . S
U926 O945 2.420 . S
U926 O946 2.455 . S
U926 O947 2.449 . S
O927 U926 2.454 . S
O927 C929 1.353 . S
O928 U926 2.458 . S
O928 C929 1.286 . S
C929 U926 2.984 . S
C929 O927 1.353 . S
C929 O928 1.286 . S
C929 C931 1.363 . S
C930 C920 1.465 . S
C930 U926 2.847 . S
C930 O944 1.249 . S
C930 O945 1.202 . S
C931 C929 1.363 . S
C931 C933 1.408 . S
C931 C936 1.342 . S
C932 C933 1.310 . S
C932 C935 1.461 . S
C932 H952 0.932 . S
C933 C931 1.408 . S
C933 C932 1.310 . S
C933 H953 0.930 . S
C934 C935 1.474 . S
C934 C936 1.285 . S
C934 H954 0.929 . S
C935 C932 1.461 . S
C935 C934 1.474 . S
C936 C931 1.342 . S
C936 C934 1.285 . S
C936 H955 0.930 . S
C937 C940 1.424 . S
C937 C942 1.245 . S
C937 C943 1.428 1_556 S
C938 C941 1.260 . S
C938 C942 1.477 . S
C938 H956 0.932 . S
C939 C940 1.384 . S
C939 C941 1.479 . S
C939 H957 0.929 . S
C940 C937 1.424 . S
C940 C939 1.384 . S
C940 H958 0.928 . S
C941 C938 1.260 . S
C941 C939 1.479 . S
C942 C937 1.245 . S
C942 C938 1.477 . S
C942 H959 0.932 1_556 S
C943 U926 2.882 . S
C943 C937 1.428 1_554 S
C943 O946 1.301 . S
C943 O947 1.282 . S
O944 U926 2.441 . S
O944 C930 1.249 . S
O945 U926 2.420 . S
O945 C930 1.202 . S
O946 U926 2.455 . S
O946 C943 1.301 . S
O947 U926 2.449 . S
O947 C943 1.282 . S
H948 C921 0.931 . S
H949 C923 0.929 . S
H950 C924 0.930 . S
H951 C925 0.931 . S
H952 C932 0.932 . S
H953 C933 0.930 . S
H954 C934 0.929 . S
H955 C936 0.930 . S
H956 C938 0.932 . S
H957 C939 0.929 . S
H958 C940 0.928 . S
H959 C942 0.932 1_554 S
C960 C961 1.264 . S
C960 C965 1.479 . S
C960 C970 1.465 . S
C961 C960 1.264 . S
C961 C963 1.339 . S
C961 H988 0.931 . S
C962 C963 1.395 . S
C962 C964 1.320 . S
C963 C961 1.339 . S
C963 C962 1.395 . S
C963 H989 0.929 . S
C964 C962 1.320 . S
C964 C965 1.405 . S
C964 H990 0.930 . S
C965 C960 1.479 . S
C965 C964 1.405 . S
C965 H991 0.931 . S
U966 O967 2.454 . S
U966 O968 2.458 . S
U966 C969 2.984 . S
U966 C970 2.847 . S
U966 C983 2.882 . S
U966 O984 2.441 . S
U966 O985 2.420 . S
U966 O986 2.455 . S
U966 O987 2.449 . S
O967 U966 2.454 . S
O967 C969 1.353 . S
O968 U966 2.458 . S
O968 C969 1.286 . S
C969 U966 2.984 . S
C969 O967 1.353 . S
C969 O968 1.286 . S
C969 C971 1.363 . S
C970 C960 1.465 . S
C970 U966 2.847 . S
C970 O984 1.249 . S
C970 O985 1.202 . S
C971 C969 1.363 . S
C971 C973 1.408 . S
C971 C976 1.342 . S
C972 C973 1.310 . S
C972 C975 1.461 . S
C972 H992 0.932 . S
C973 C971 1.408 . S
C973 C972 1.310 . S
C973 H993 0.930 . S
C974 C975 1.474 . S
C974 C976 1.285 . S
C974 H994 0.929 . S
C975 C972 1.461 . S
C975 C974 1.474 . S
C976 C971 1.342 . S
C976 C974 1.285 . S
C976 H995 0.930 . S
C977 C980 1.424 . S
C977 C982 1.245 . S
C977 C983 1.428 . S
C978 C981 1.260 . S
C978 C982 1.477 . S
C978 H996 0.932 . S
C979 C980 1.384 . S
C979 C981 1.479 . S
C979 H997 0.929 . S
C980 C977 1.424 . S
C980 C979 1.384 . S
C980 H998 0.928 . S
C981 C978 1.260 . S
C981 C979 1.479 . S
C982 C977 1.245 . S
C982 C978 1.477 . S
C982 H999 0.932 . S
C983 U966 2.882 . S
C983 C977 1.428 . S
C983 O986 1.301 . S
C983 O987 1.282 . S
O984 U966 2.441 . S
O984 C970 1.249 . S
O985 U966 2.420 . S
O985 C970 1.202 . S
O986 U966 2.455 . S
O986 C983 1.301 . S
O987 U966 2.449 . S
O987 C983 1.282 . S
H988 C961 0.931 . S
H989 C963 0.929 . S
H990 C964 0.930 . S
H991 C965 0.931 . S
H992 C972 0.932 . S
H993 C973 0.930 . S
H994 C974 0.929 . S
H995 C976 0.930 . S
H996 C978 0.932 . S
H997 C979 0.929 . S
H998 C980 0.928 . S
H999 C982 0.932 . S
C1000 C1001 1.264 . S
C1000 C1005 1.479 . S
C1000 C1010 1.465 . S
C1001 C1000 1.264 . S
C1001 C1003 1.339 . S
C1001 H1028 0.931 . S
C1002 C1003 1.395 . S
C1002 C1004 1.320 . S
C1003 C1001 1.339 . S
C1003 C1002 1.395 . S
C1003 H1029 0.929 . S
C1004 C1002 1.320 . S
C1004 C1005 1.405 . S
C1004 H1030 0.930 . S
C1005 C1000 1.479 . S
C1005 C1004 1.405 . S
C1005 H1031 0.931 . S
U1006 O1007 2.454 . S
U1006 O1008 2.458 . S
U1006 C1009 2.984 . S
U1006 C1010 2.847 . S
U1006 C1023 2.882 . S
U1006 O1024 2.441 . S
U1006 O1025 2.420 . S
U1006 O1026 2.455 . S
U1006 O1027 2.449 . S
O1007 U1006 2.454 . S
O1007 C1009 1.353 . S
O1008 U1006 2.458 . S
O1008 C1009 1.286 . S
C1009 U1006 2.984 . S
C1009 O1007 1.353 . S
C1009 O1008 1.286 . S
C1009 C1011 1.363 . S
C1010 C1000 1.465 . S
C1010 U1006 2.847 . S
C1010 O1024 1.249 . S
C1010 O1025 1.202 . S
C1011 C1009 1.363 . S
C1011 C1013 1.408 . S
C1011 C1016 1.342 . S
C1012 C1013 1.310 . S
C1012 C1015 1.461 . S
C1012 H1032 0.932 . S
C1013 C1011 1.408 . S
C1013 C1012 1.310 . S
C1013 H1033 0.930 . S
C1014 C1015 1.474 . S
C1014 C1016 1.285 . S
C1014 H1034 0.929 . S
C1015 C1012 1.461 . S
C1015 C1014 1.474 . S
C1016 C1011 1.342 . S
C1016 C1014 1.285 . S
C1016 H1035 0.930 . S
C1017 C1020 1.424 . S
C1017 C1022 1.245 . S
C1017 C1023 1.428 . S
C1018 C1021 1.260 . S
C1018 C1022 1.477 . S
C1018 H1036 0.932 . S
C1019 C1020 1.384 . S
C1019 C1021 1.479 . S
C1019 H1037 0.929 . S
C1020 C1017 1.424 . S
C1020 C1019 1.384 . S
C1020 H1038 0.928 . S
C1021 C1018 1.260 . S
C1021 C1019 1.479 . S
C1022 C1017 1.245 . S
C1022 C1018 1.477 . S
C1022 H1039 0.932 . S
C1023 U1006 2.882 . S
C1023 C1017 1.428 . S
C1023 O1026 1.301 . S
C1023 O1027 1.282 . S
O1024 U1006 2.441 . S
O1024 C1010 1.249 . S
O1025 U1006 2.420 . S
O1025 C1010 1.202 . S
O1026 U1006 2.455 . S
O1026 C1023 1.301 . S
O1027 U1006 2.449 . S
O1027 C1023 1.282 . S
H1028 C1001 0.931 . S
H1029 C1003 0.929 . S
H1030 C1004 0.930 . S
H1031 C1005 0.931 . S
H1032 C1012 0.932 . S
H1033 C1013 0.930 . S
H1034 C1014 0.929 . S
H1035 C1016 0.930 . S
H1036 C1018 0.932 . S
H1037 C1019 0.929 . S
H1038 C1020 0.928 . S
H1039 C1022 0.932 . S
C1040 C1041 1.264 . S
C1040 C1045 1.479 . S
C1040 C1050 1.465 . S
C1041 C1040 1.264 . S
C1041 C1043 1.339 . S
C1041 H1068 0.931 . S
C1042 C1043 1.395 . S
C1042 C1044 1.320 . S
C1043 C1041 1.339 . S
C1043 C1042 1.395 . S
C1043 H1069 0.929 . S
C1044 C1042 1.320 . S
C1044 C1045 1.405 . S
C1044 H1070 0.930 . S
C1045 C1040 1.479 . S
C1045 C1044 1.405 . S
C1045 H1071 0.931 . S
U1046 O1047 2.454 . S
U1046 O1048 2.458 . S
U1046 C1049 2.984 . S
U1046 C1050 2.847 . S
U1046 C1063 2.882 . S
U1046 O1064 2.441 . S
U1046 O1065 2.420 . S
U1046 O1066 2.455 . S
U1046 O1067 2.449 . S
O1047 U1046 2.454 . S
O1047 C1049 1.353 . S
O1048 U1046 2.458 . S
O1048 C1049 1.286 . S
C1049 U1046 2.984 . S
C1049 O1047 1.353 . S
C1049 O1048 1.286 . S
C1049 C1051 1.363 . S
C1050 C1040 1.465 . S
C1050 U1046 2.847 . S
C1050 O1064 1.249 . S
C1050 O1065 1.202 . S
C1051 C1049 1.363 . S
C1051 C1053 1.408 . S
C1051 C1056 1.342 . S
C1052 C1053 1.310 . S
C1052 C1055 1.461 . S
C1052 H1072 0.932 . S
C1053 C1051 1.408 . S
C1053 C1052 1.310 . S
C1053 H1073 0.930 . S
C1054 C1055 1.474 . S
C1054 C1056 1.285 . S
C1054 H1074 0.929 . S
C1055 C1052 1.461 . S
C1055 C1054 1.474 . S
C1056 C1051 1.342 . S
C1056 C1054 1.285 . S
C1056 H1075 0.930 . S
C1057 C1060 1.424 . S
C1057 C1062 1.245 . S
C1057 C1063 1.428 . S
C1058 C1061 1.260 . S
C1058 C1062 1.477 . S
C1058 H1076 0.932 . S
C1059 C1060 1.384 . S
C1059 C1061 1.479 . S
C1059 H1077 0.929 . S
C1060 C1057 1.424 . S
C1060 C1059 1.384 . S
C1060 H1078 0.928 . S
C1061 C1058 1.260 . S
C1061 C1059 1.479 . S
C1062 C1057 1.245 . S
C1062 C1058 1.477 . S
C1062 H1079 0.932 . S
C1063 U1046 2.882 . S
C1063 C1057 1.428 . S
C1063 O1066 1.301 . S
C1063 O1067 1.282 . S
O1064 U1046 2.441 . S
O1064 C1050 1.249 . S
O1065 U1046 2.420 . S
O1065 C1050 1.202 . S
O1066 U1046 2.455 . S
O1066 C1063 1.301 . S
O1067 U1046 2.449 . S
O1067 C1063 1.282 . S
H1068 C1041 0.931 . S
H1069 C1043 0.929 . S
H1070 C1044 0.930 . S
H1071 C1045 0.931 . S
H1072 C1052 0.932 . S
H1073 C1053 0.930 . S
H1074 C1054 0.929 . S
H1075 C1056 0.930 . S
H1076 C1058 0.932 . S
H1077 C1059 0.929 . S
H1078 C1060 0.928 . S
H1079 C1062 0.932 . S
C1080 C1081 1.264 . S
C1080 C1085 1.479 . S
C1080 C1090 1.465 . S
C1081 C1080 1.264 . S
C1081 C1083 1.339 . S
C1081 H1108 0.931 . S
C1082 C1083 1.395 . S
C1082 C1084 1.320 . S
C1083 C1081 1.339 . S
C1083 C1082 1.395 . S
C1083 H1109 0.929 . S
C1084 C1082 1.320 . S
C1084 C1085 1.405 . S
C1084 H1110 0.930 . S
C1085 C1080 1.479 . S
C1085 C1084 1.405 . S
C1085 H1111 0.931 . S
U1086 O1087 2.454 . S
U1086 O1088 2.458 . S
U1086 C1089 2.984 . S
U1086 C1090 2.847 . S
U1086 C1103 2.882 . S
U1086 O1104 2.441 . S
U1086 O1105 2.420 . S
U1086 O1106 2.455 . S
U1086 O1107 2.449 . S
O1087 U1086 2.454 . S
O1087 C1089 1.353 . S
O1088 U1086 2.458 . S
O1088 C1089 1.286 . S
C1089 U1086 2.984 . S
C1089 O1087 1.353 . S
C1089 O1088 1.286 . S
C1089 C1091 1.363 . S
C1090 C1080 1.465 . S
C1090 U1086 2.847 . S
C1090 O1104 1.249 . S
C1090 O1105 1.202 . S
C1091 C1089 1.363 . S
C1091 C1093 1.408 . S
C1091 C1096 1.342 . S
C1092 C1093 1.310 . S
C1092 C1095 1.461 . S
C1092 H1112 0.932 . S
C1093 C1091 1.408 . S
C1093 C1092 1.310 . S
C1093 H1113 0.930 . S
C1094 C1095 1.474 . S
C1094 C1096 1.285 . S
C1094 H1114 0.929 . S
C1095 C1092 1.461 . S
C1095 C1094 1.474 . S
C1096 C1091 1.342 . S
C1096 C1094 1.285 . S
C1096 H1115 0.930 . S
C1097 C1100 1.386 1_556 S
C1097 C1102 1.232 1_556 S
C1097 C1103 1.479 . S
C1098 C1101 1.260 . S
C1098 C1102 1.477 . S
C1098 H1116 0.932 . S
C1099 C1100 1.384 . S
C1099 C1101 1.479 . S
C1099 H1117 0.929 . S
C1100 C1097 1.386 1_554 S
C1100 C1099 1.384 . S
C1100 H1118 0.928 . S
C1101 C1098 1.260 . S
C1101 C1099 1.479 . S
C1102 C1097 1.232 1_554 S
C1102 C1098 1.477 . S
C1102 H1119 0.932 1_554 S
C1103 U1086 2.882 . S
C1103 C1097 1.479 . S
C1103 O1106 1.301 . S
C1103 O1107 1.282 . S
O1104 U1086 2.441 . S
O1104 C1090 1.249 . S
O1105 U1086 2.420 . S
O1105 C1090 1.202 . S
O1106 U1086 2.455 . S
O1106 C1103 1.301 . S
O1107 U1086 2.449 . S
O1107 C1103 1.282 . S
H1108 C1081 0.931 . S
H1109 C1083 0.929 . S
H1110 C1084 0.930 . S
H1111 C1085 0.931 . S
H1112 C1092 0.932 . S
H1113 C1093 0.930 . S
H1114 C1094 0.929 . S
H1115 C1096 0.930 . S
H1116 C1098 0.932 . S
H1117 C1099 0.929 . S
H1118 C1100 0.928 . S
H1119 C1102 0.932 1_556 S
C1120 C1121 1.264 . S
C1120 C1125 1.479 . S
C1120 C1130 1.465 . S
C1121 C1120 1.264 . S
C1121 C1123 1.339 . S
C1121 H1148 0.931 . S
C1122 C1123 1.395 . S
C1122 C1124 1.320 . S
C1123 C1121 1.339 . S
C1123 C1122 1.395 . S
C1123 H1149 0.929 . S
C1124 C1122 1.320 . S
C1124 C1125 1.405 . S
C1124 H1150 0.930 . S
C1125 C1120 1.479 . S
C1125 C1124 1.405 . S
C1125 H1151 0.931 . S
U1126 O1127 2.454 . S
U1126 O1128 2.458 . S
U1126 C1129 2.984 . S
U1126 C1130 2.847 . S
U1126 C1143 2.882 . S
U1126 O1144 2.441 . S
U1126 O1145 2.420 . S
U1126 O1146 2.455 . S
U1126 O1147 2.449 . S
O1127 U1126 2.454 . S
O1127 C1129 1.353 . S
O1128 U1126 2.458 . S
O1128 C1129 1.286 . S
C1129 U1126 2.984 . S
C1129 O1127 1.353 . S
C1129 O1128 1.286 . S
C1129 C1131 1.363 . S
C1130 C1120 1.465 . S
C1130 U1126 2.847 . S
C1130 O1144 1.249 . S
C1130 O1145 1.202 . S
C1131 C1129 1.363 . S
C1131 C1133 1.408 . S
C1131 C1136 1.342 . S
C1132 C1133 1.310 . S
C1132 C1135 1.461 . S
C1132 H1152 0.932 . S
C1133 C1131 1.408 . S
C1133 C1132 1.310 . S
C1133 H1153 0.930 . S
C1134 C1135 1.474 . S
C1134 C1136 1.285 . S
C1134 H1154 0.929 . S
C1135 C1132 1.461 . S
C1135 C1134 1.474 . S
C1136 C1131 1.342 . S
C1136 C1134 1.285 . S
C1136 H1155 0.930 . S
C1137 C1140 1.387 1_556 S
C1137 C1142 1.232 1_556 S
C1137 C1143 1.478 . S
C1138 C1141 1.260 . S
C1138 C1142 1.477 . S
C1138 H1156 0.932 . S
C1139 C1140 1.384 . S
C1139 C1141 1.479 . S
C1139 H1157 0.929 . S
C1140 C1137 1.387 1_554 S
C1140 C1139 1.384 . S
C1140 H1158 0.928 . S
C1141 C1138 1.260 . S
C1141 C1139 1.479 . S
C1142 C1137 1.232 1_554 S
C1142 C1138 1.477 . S
C1142 H1159 0.932 1_554 S
C1143 U1126 2.882 . S
C1143 C1137 1.478 . S
C1143 O1146 1.301 . S
C1143 O1147 1.282 . S
O1144 U1126 2.441 . S
O1144 C1130 1.249 . S
O1145 U1126 2.420 . S
O1145 C1130 1.202 . S
O1146 U1126 2.455 . S
O1146 C1143 1.301 . S
O1147 U1126 2.449 . S
O1147 C1143 1.282 . S
H1148 C1121 0.931 . S
H1149 C1123 0.929 . S
H1150 C1124 0.930 . S
H1151 C1125 0.931 . S
H1152 C1132 0.932 . S
H1153 C1133 0.930 . S
H1154 C1134 0.929 . S
H1155 C1136 0.930 . S
H1156 C1138 0.932 . S
H1157 C1139 0.929 . S
H1158 C1140 0.928 . S
H1159 C1142 0.932 1_556 S
C1160 C1161 1.264 . S
C1160 C1165 1.479 . S
C1160 C1170 1.465 . S
C1161 C1160 1.264 . S
C1161 C1163 1.339 . S
C1161 H1188 0.931 . S
C1162 C1163 1.395 . S
C1162 C1164 1.320 . S
C1163 C1161 1.339 . S
C1163 C1162 1.395 . S
C1163 H1189 0.929 . S
C1164 C1162 1.320 . S
C1164 C1165 1.405 . S
C1164 H1190 0.930 . S
C1165 C1160 1.479 . S
C1165 C1164 1.405 . S
C1165 H1191 0.931 . S
U1166 O1167 2.454 . S
U1166 O1168 2.458 . S
U1166 C1169 2.984 . S
U1166 C1170 2.847 . S
U1166 C1183 2.882 . S
U1166 O1184 2.441 . S
U1166 O1185 2.420 . S
U1166 O1186 2.455 . S
U1166 O1187 2.449 . S
O1167 U1166 2.454 . S
O1167 C1169 1.353 . S
O1168 U1166 2.458 . S
O1168 C1169 1.286 . S
C1169 U1166 2.984 . S
C1169 O1167 1.353 . S
C1169 O1168 1.286 . S
C1169 C1171 1.363 . S
C1170 C1160 1.465 . S
C1170 U1166 2.847 . S
C1170 O1184 1.249 . S
C1170 O1185 1.202 . S
C1171 C1169 1.363 . S
C1171 C1173 1.408 . S
C1171 C1176 1.342 . S
C1172 C1173 1.310 . S
C1172 C1175 1.461 . S
C1172 H1192 0.932 . S
C1173 C1171 1.408 . S
C1173 C1172 1.310 . S
C1173 H1193 0.930 . S
C1174 C1175 1.474 . S
C1174 C1176 1.285 . S
C1174 H1194 0.929 . S
C1175 C1172 1.461 . S
C1175 C1174 1.474 . S
C1176 C1171 1.342 . S
C1176 C1174 1.285 . S
C1176 H1195 0.930 . S
C1177 C1180 1.386 1_556 S
C1177 C1182 1.232 1_556 S
C1177 C1183 1.479 . S
C1178 C1181 1.260 . S
C1178 C1182 1.477 . S
C1178 H1196 0.932 . S
C1179 C1180 1.384 . S
C1179 C1181 1.479 . S
C1179 H1197 0.929 . S
C1180 C1177 1.386 1_554 S
C1180 C1179 1.384 . S
C1180 H1198 0.928 . S
C1181 C1178 1.260 . S
C1181 C1179 1.479 . S
C1182 C1177 1.232 1_554 S
C1182 C1178 1.477 . S
C1182 H1199 0.932 1_554 S
C1183 U1166 2.882 . S
C1183 C1177 1.479 . S
C1183 O1186 1.301 . S
C1183 O1187 1.282 . S
O1184 U1166 2.441 . S
O1184 C1170 1.249 . S
O1185 U1166 2.420 . S
O1185 C1170 1.202 . S
O1186 U1166 2.455 . S
O1186 C1183 1.301 . S
O1187 U1166 2.449 . S
O1187 C1183 1.282 . S
H1188 C1161 0.931 . S
H1189 C1163 0.929 . S
H1190 C1164 0.930 . S
H1191 C1165 0.931 . S
H1192 C1172 0.932 . S
H1193 C1173 0.930 . S
H1194 C1174 0.929 . S
H1195 C1176 0.930 . S
H1196 C1178 0.932 . S
H1197 C1179 0.929 . S
H1198 C1180 0.928 . S
H1199 C1182 0.932 1_556 S
C1200 C1201 1.264 . S
C1200 C1205 1.479 . S
C1200 C1210 1.465 . S
C1201 C1200 1.264 . S
C1201 C1203 1.339 . S
C1201 H1228 0.931 . S
C1202 C1203 1.395 . S
C1202 C1204 1.320 . S
C1203 C1201 1.339 . S
C1203 C1202 1.395 . S
C1203 H1229 0.929 . S
C1204 C1202 1.320 . S
C1204 C1205 1.405 . S
C1204 H1230 0.930 . S
C1205 C1200 1.479 . S
C1205 C1204 1.405 . S
C1205 H1231 0.931 . S
U1206 O1207 2.454 . S
U1206 O1208 2.458 . S
U1206 C1209 2.984 . S
U1206 C1210 2.847 . S
U1206 C1223 2.882 . S
U1206 O1224 2.441 . S
U1206 O1225 2.420 . S
U1206 O1226 2.455 . S
U1206 O1227 2.449 . S
O1207 U1206 2.454 . S
O1207 C1209 1.353 . S
O1208 U1206 2.458 . S
O1208 C1209 1.286 . S
C1209 U1206 2.984 . S
C1209 O1207 1.353 . S
C1209 O1208 1.286 . S
C1209 C1211 1.363 . S
C1210 C1200 1.465 . S
C1210 U1206 2.847 . S
C1210 O1224 1.249 . S
C1210 O1225 1.202 . S
C1211 C1209 1.363 . S
C1211 C1213 1.408 . S
C1211 C1216 1.342 . S
C1212 C1213 1.310 . S
C1212 C1215 1.461 . S
C1212 H1232 0.932 . S
C1213 C1211 1.408 . S
C1213 C1212 1.310 . S
C1213 H1233 0.930 . S
C1214 C1215 1.474 . S
C1214 C1216 1.285 . S
C1214 H1234 0.929 . S
C1215 C1212 1.461 . S
C1215 C1214 1.474 . S
C1216 C1211 1.342 . S
C1216 C1214 1.285 . S
C1216 H1235 0.930 . S
C1217 C1220 1.424 . S
C1217 C1222 1.245 . S
C1217 C1223 1.428 . S
C1218 C1221 1.260 . S
C1218 C1222 1.477 . S
C1218 H1236 0.932 . S
C1219 C1220 1.384 . S
C1219 C1221 1.479 . S
C1219 H1237 0.929 . S
C1220 C1217 1.424 . S
C1220 C1219 1.384 . S
C1220 H1238 0.928 . S
C1221 C1218 1.260 . S
C1221 C1219 1.479 . S
C1222 C1217 1.245 . S
C1222 C1218 1.477 . S
C1222 H1239 0.932 . S
C1223 U1206 2.882 . S
C1223 C1217 1.428 . S
C1223 O1226 1.301 . S
C1223 O1227 1.282 . S
O1224 U1206 2.441 . S
O1224 C1210 1.249 . S
O1225 U1206 2.420 . S
O1225 C1210 1.202 . S
O1226 U1206 2.455 . S
O1226 C1223 1.301 . S
O1227 U1206 2.449 . S
O1227 C1223 1.282 . S
H1228 C1201 0.931 . S
H1229 C1203 0.929 . S
H1230 C1204 0.930 . S
H1231 C1205 0.931 . S
H1232 C1212 0.932 . S
H1233 C1213 0.930 . S
H1234 C1214 0.929 . S
H1235 C1216 0.930 . S
H1236 C1218 0.932 . S
H1237 C1219 0.929 . S
H1238 C1220 0.928 . S
H1239 C1222 0.932 . S
C1240 C1241 1.264 . S
C1240 C1245 1.479 . S
C1240 C1250 1.465 . S
C1241 C1240 1.264 . S
C1241 C1243 1.339 . S
C1241 H1268 0.931 . S
C1242 C1243 1.395 . S
C1242 C1244 1.320 . S
C1243 C1241 1.339 . S
C1243 C1242 1.395 . S
C1243 H1269 0.929 . S
C1244 C1242 1.320 . S
C1244 C1245 1.405 . S
C1244 H1270 0.930 . S
C1245 C1240 1.479 . S
C1245 C1244 1.405 . S
C1245 H1271 0.931 . S
U1246 O1247 2.454 . S
U1246 O1248 2.458 . S
U1246 C1249 2.984 . S
U1246 C1250 2.847 . S
U1246 C1263 2.882 . S
U1246 O1264 2.441 . S
U1246 O1265 2.420 . S
U1246 O1266 2.455 . S
U1246 O1267 2.449 . S
O1247 U1246 2.454 . S
O1247 C1249 1.353 . S
O1248 U1246 2.458 . S
O1248 C1249 1.286 . S
C1249 U1246 2.984 . S
C1249 O1247 1.353 . S
C1249 O1248 1.286 . S
C1249 C1251 1.363 . S
C1250 C1240 1.465 . S
C1250 U1246 2.847 . S
C1250 O1264 1.249 . S
C1250 O1265 1.202 . S
C1251 C1249 1.363 . S
C1251 C1253 1.408 . S
C1251 C1256 1.342 . S
C1252 C1253 1.310 . S
C1252 C1255 1.461 . S
C1252 H1272 0.932 . S
C1253 C1251 1.408 . S
C1253 C1252 1.310 . S
C1253 H1273 0.930 . S
C1254 C1255 1.474 . S
C1254 C1256 1.285 . S
C1254 H1274 0.929 . S
C1255 C1252 1.461 . S
C1255 C1254 1.474 . S
C1256 C1251 1.342 . S
C1256 C1254 1.285 . S
C1256 H1275 0.930 . S
C1257 C1260 1.424 . S
C1257 C1262 1.245 . S
C1257 C1263 1.428 . S
C1258 C1261 1.260 . S
C1258 C1262 1.477 . S
C1258 H1276 0.932 . S
C1259 C1260 1.384 . S
C1259 C1261 1.479 . S
C1259 H1277 0.929 . S
C1260 C1257 1.424 . S
C1260 C1259 1.384 . S
C1260 H1278 0.928 . S
C1261 C1258 1.260 . S
C1261 C1259 1.479 . S
C1262 C1257 1.245 . S
C1262 C1258 1.477 . S
C1262 H1279 0.932 . S
C1263 U1246 2.882 . S
C1263 C1257 1.428 . S
C1263 O1266 1.301 . S
C1263 O1267 1.282 . S
O1264 U1246 2.441 . S
O1264 C1250 1.249 . S
O1265 U1246 2.420 . S
O1265 C1250 1.202 . S
O1266 U1246 2.455 . S
O1266 C1263 1.301 . S
O1267 U1246 2.449 . S
O1267 C1263 1.282 . S
H1268 C1241 0.931 . S
H1269 C1243 0.929 . S
H1270 C1244 0.930 . S
H1271 C1245 0.931 . S
H1272 C1252 0.932 . S
H1273 C1253 0.930 . S
H1274 C1254 0.929 . S
H1275 C1256 0.930 . S
H1276 C1258 0.932 . S
H1277 C1259 0.929 . S
H1278 C1260 0.928 . S
H1279 C1262 0.932 . S
C1280 C1281 1.264 . S
C1280 C1285 1.479 . S
C1280 C1290 1.465 . S
C1281 C1280 1.264 . S
C1281 C1283 1.339 . S
C1281 H1308 0.931 . S
C1282 C1283 1.395 . S
C1282 C1284 1.320 . S
C1283 C1281 1.339 . S
C1283 C1282 1.395 . S
C1283 H1309 0.929 . S
C1284 C1282 1.320 . S
C1284 C1285 1.405 . S
C1284 H1310 0.930 . S
C1285 C1280 1.479 . S
C1285 C1284 1.405 . S
C1285 H1311 0.931 . S
U1286 O1287 2.454 . S
U1286 O1288 2.458 . S
U1286 C1289 2.984 . S
U1286 C1290 2.847 . S
U1286 C1303 2.882 . S
U1286 O1304 2.441 . S
U1286 O1305 2.420 . S
U1286 O1306 2.455 . S
U1286 O1307 2.449 . S
O1287 U1286 2.454 . S
O1287 C1289 1.353 . S
O1288 U1286 2.458 . S
O1288 C1289 1.286 . S
C1289 U1286 2.984 . S
C1289 O1287 1.353 . S
C1289 O1288 1.286 . S
C1289 C1291 1.363 . S
C1290 C1280 1.465 . S
C1290 U1286 2.847 . S
C1290 O1304 1.249 . S
C1290 O1305 1.202 . S
C1291 C1289 1.363 . S
C1291 C1293 1.408 . S
C1291 C1296 1.342 . S
C1292 C1293 1.310 . S
C1292 C1295 1.461 . S
C1292 H1312 0.932 . S
C1293 C1291 1.408 . S
C1293 C1292 1.310 . S
C1293 H1313 0.930 . S
C1294 C1295 1.474 . S
C1294 C1296 1.285 . S
C1294 H1314 0.929 . S
C1295 C1292 1.461 . S
C1295 C1294 1.474 . S
C1296 C1291 1.342 . S
C1296 C1294 1.285 . S
C1296 H1315 0.930 . S
C1297 C1300 1.424 . S
C1297 C1302 1.245 . S
C1297 C1303 1.428 . S
C1298 C1301 1.260 . S
C1298 C1302 1.477 . S
C1298 H1316 0.932 . S
C1299 C1300 1.384 . S
C1299 C1301 1.479 . S
C1299 H1317 0.929 . S
C1300 C1297 1.424 . S
C1300 C1299 1.384 . S
C1300 H1318 0.928 . S
C1301 C1298 1.260 . S
C1301 C1299 1.479 . S
C1302 C1297 1.245 . S
C1302 C1298 1.477 . S
C1302 H1319 0.932 . S
C1303 U1286 2.882 . S
C1303 C1297 1.428 . S
C1303 O1306 1.301 . S
C1303 O1307 1.282 . S
O1304 U1286 2.441 . S
O1304 C1290 1.249 . S
O1305 U1286 2.420 . S
O1305 C1290 1.202 . S
O1306 U1286 2.455 . S
O1306 C1303 1.301 . S
O1307 U1286 2.449 . S
O1307 C1303 1.282 . S
H1308 C1281 0.931 . S
H1309 C1283 0.929 . S
H1310 C1284 0.930 . S
H1311 C1285 0.931 . S
H1312 C1292 0.932 . S
H1313 C1293 0.930 . S
H1314 C1294 0.929 . S
H1315 C1296 0.930 . S
H1316 C1298 0.932 . S
H1317 C1299 0.929 . S
H1318 C1300 0.928 . S
H1319 C1302 0.932 . S
C1320 C1321 1.264 . S
C1320 C1325 1.479 . S
C1320 C1330 1.465 . S
C1321 C1320 1.264 . S
C1321 C1323 1.339 . S
C1321 H1348 0.931 . S
C1322 C1323 1.395 . S
C1322 C1324 1.320 . S
C1323 C1321 1.339 . S
C1323 C1322 1.395 . S
C1323 H1349 0.929 . S
C1324 C1322 1.320 . S
C1324 C1325 1.405 . S
C1324 H1350 0.930 . S
C1325 C1320 1.479 . S
C1325 C1324 1.405 . S
C1325 H1351 0.931 . S
U1326 O1327 2.454 . S
U1326 O1328 2.458 . S
U1326 C1329 2.984 . S
U1326 C1330 2.847 . S
U1326 C1343 2.882 . S
U1326 O1344 2.441 . S
U1326 O1345 2.420 . S
U1326 O1346 2.455 . S
U1326 O1347 2.449 . S
O1327 U1326 2.454 . S
O1327 C1329 1.353 . S
O1328 U1326 2.458 . S
O1328 C1329 1.286 . S
C1329 U1326 2.984 . S
C1329 O1327 1.353 . S
C1329 O1328 1.286 . S
C1329 C1331 1.363 . S
C1330 C1320 1.465 . S
C1330 U1326 2.847 . S
C1330 O1344 1.249 . S
C1330 O1345 1.202 . S
C1331 C1329 1.363 . S
C1331 C1333 1.408 . S
C1331 C1336 1.342 . S
C1332 C1333 1.310 . S
C1332 C1335 1.461 . S
C1332 H1352 0.932 . S
C1333 C1331 1.408 . S
C1333 C1332 1.310 . S
C1333 H1353 0.930 . S
C1334 C1335 1.474 . S
C1334 C1336 1.285 . S
C1334 H1354 0.929 . S
C1335 C1332 1.461 . S
C1335 C1334 1.474 . S
C1336 C1331 1.342 . S
C1336 C1334 1.285 . S
C1336 H1355 0.930 . S
C1337 C1340 1.424 . S
C1337 C1342 1.245 . S
C1337 C1343 1.428 . S
C1338 C1341 1.260 . S
C1338 C1342 1.477 . S
C1338 H1356 0.932 . S
C1339 C1340 1.384 . S
C1339 C1341 1.479 . S
C1339 H1357 0.929 . S
C1340 C1337 1.424 . S
C1340 C1339 1.384 . S
C1340 H1358 0.928 . S
C1341 C1338 1.260 . S
C1341 C1339 1.479 . S
C1342 C1337 1.245 . S
C1342 C1338 1.477 . S
C1342 H1359 0.932 . S
C1343 U1326 2.882 . S
C1343 C1337 1.428 . S
C1343 O1346 1.301 . S
C1343 O1347 1.282 . S
O1344 U1326 2.441 . S
O1344 C1330 1.249 . S
O1345 U1326 2.420 . S
O1345 C1330 1.202 . S
O1346 U1326 2.455 . S
O1346 C1343 1.301 . S
O1347 U1326 2.449 . S
O1347 C1343 1.282 . S
H1348 C1321 0.931 . S
H1349 C1323 0.929 . S
H1350 C1324 0.930 . S
H1351 C1325 0.931 . S
H1352 C1332 0.932 . S
H1353 C1333 0.930 . S
H1354 C1334 0.929 . S
H1355 C1336 0.930 . S
H1356 C1338 0.932 . S
H1357 C1339 0.929 . S
H1358 C1340 0.928 . S
H1359 C1342 0.932 . S
C1360 C1361 1.264 . S
C1360 C1365 1.479 . S
C1360 C1370 1.465 . S
C1361 C1360 1.264 . S
C1361 C1363 1.339 . S
C1361 H1388 0.931 . S
C1362 C1363 1.395 . S
C1362 C1364 1.320 . S
C1363 C1361 1.339 . S
C1363 C1362 1.395 . S
C1363 H1389 0.929 . S
C1364 C1362 1.320 . S
C1364 C1365 1.405 . S
C1364 H1390 0.930 . S
C1365 C1360 1.479 . S
C1365 C1364 1.405 . S
C1365 H1391 0.931 . S
U1366 O1367 2.454 . S
U1366 O1368 2.458 . S
U1366 C1369 2.984 . S
U1366 C1370 2.847 . S
U1366 C1383 2.882 . S
U1366 O1384 2.441 . S
U1366 O1385 2.420 . S
U1366 O1386 2.455 . S
U1366 O1387 2.449 . S
O1367 U1366 2.454 . S
O1367 C1369 1.353 . S
O1368 U1366 2.458 . S
O1368 C1369 1.286 . S
C1369 U1366 2.984 . S
C1369 O1367 1.353 . S
C1369 O1368 1.286 . S
C1369 C1371 1.363 . S
C1370 C1360 1.465 . S
C1370 U1366 2.847 . S
C1370 O1384 1.249 . S
C1370 O1385 1.202 . S
C1371 C1369 1.363 . S
C1371 C1373 1.408 . S
C1371 C1376 1.342 . S
C1372 C1373 1.310 . S
C1372 C1375 1.461 . S
C1372 H1392 0.932 . S
C1373 C1371 1.408 . S
C1373 C1372 1.310 . S
C1373 H1393 0.930 . S
C1374 C1375 1.474 . S
C1374 C1376 1.285 . S
C1374 H1394 0.929 . S
C1375 C1372 1.461 . S
C1375 C1374 1.474 . S
C1376 C1371 1.342 . S
C1376 C1374 1.285 . S
C1376 H1395 0.930 . S
C1377 C1380 1.424 . S
C1377 C1382 1.245 . S
C1377 C1383 1.428 . S
C1378 C1381 1.260 . S
C1378 C1382 1.477 . S
C1378 H1396 0.932 . S
C1379 C1380 1.384 . S
C1379 C1381 1.479 . S
C1379 H1397 0.929 . S
C1380 C1377 1.424 . S
C1380 C1379 1.384 . S
C1380 H1398 0.928 . S
C1381 C1378 1.260 . S
C1381 C1379 1.479 . S
C1382 C1377 1.245 . S
C1382 C1378 1.477 . S
C1382 H1399 0.932 . S
C1383 U1366 2.882 . S
C1383 C1377 1.428 . S
C1383 O1386 1.301 . S
C1383 O1387 1.282 . S
O1384 U1366 2.441 . S
O1384 C1370 1.249 . S
O1385 U1366 2.420 . S
O1385 C1370 1.202 . S
O1386 U1366 2.455 . S
O1386 C1383 1.301 . S
O1387 U1366 2.449 . S
O1387 C1383 1.282 . S
H1388 C1361 0.931 . S
H1389 C1363 0.929 . S
H1390 C1364 0.930 . S
H1391 C1365 0.931 . S
H1392 C1372 0.932 . S
H1393 C1373 0.930 . S
H1394 C1374 0.929 . S
H1395 C1376 0.930 . S
H1396 C1378 0.932 . S
H1397 C1379 0.929 . S
H1398 C1380 0.928 . S
H1399 C1382 0.932 . S
C1400 C1401 1.264 . S
C1400 C1405 1.479 . S
C1400 C1410 1.465 . S
C1401 C1400 1.264 . S
C1401 C1403 1.339 . S
C1401 H1428 0.931 . S
C1402 C1403 1.395 . S
C1402 C1404 1.320 . S
C1403 C1401 1.339 . S
C1403 C1402 1.395 . S
C1403 H1429 0.929 . S
C1404 C1402 1.320 . S
C1404 C1405 1.405 . S
C1404 H1430 0.930 . S
C1405 C1400 1.479 . S
C1405 C1404 1.405 . S
C1405 H1431 0.931 . S
U1406 O1407 2.454 . S
U1406 O1408 2.458 . S
U1406 C1409 2.984 . S
U1406 C1410 2.847 . S
U1406 C1423 2.882 . S
U1406 O1424 2.441 . S
U1406 O1425 2.420 . S
U1406 O1426 2.455 . S
U1406 O1427 2.449 . S
O1407 U1406 2.454 . S
O1407 C1409 1.353 . S
O1408 U1406 2.458 . S
O1408 C1409 1.286 . S
C1409 U1406 2.984 . S
C1409 O1407 1.353 . S
C1409 O1408 1.286 . S
C1409 C1411 1.363 . S
C1410 C1400 1.465 . S
C1410 U1406 2.847 . S
C1410 O1424 1.249 . S
C1410 O1425 1.202 . S
C1411 C1409 1.363 . S
C1411 C1413 1.408 . S
C1411 C1416 1.342 . S
C1412 C1413 1.310 . S
C1412 C1415 1.461 . S
C1412 H1432 0.932 . S
C1413 C1411 1.408 . S
C1413 C1412 1.310 . S
C1413 H1433 0.930 . S
C1414 C1415 1.474 . S
C1414 C1416 1.285 . S
C1414 H1434 0.929 . S
C1415 C1412 1.461 . S
C1415 C1414 1.474 . S
C1416 C1411 1.342 . S
C1416 C1414 1.285 . S
C1416 H1435 0.930 . S
C1417 C1420 1.424 . S
C1417 C1422 1.245 . S
C1417 C1423 1.428 . S
C1418 C1421 1.260 . S
C1418 C1422 1.477 . S
C1418 H1436 0.932 . S
C1419 C1420 1.384 . S
C1419 C1421 1.479 . S
C1419 H1437 0.929 . S
C1420 C1417 1.424 . S
C1420 C1419 1.384 . S
C1420 H1438 0.928 . S
C1421 C1418 1.260 . S
C1421 C1419 1.479 . S
C1422 C1417 1.245 . S
C1422 C1418 1.477 . S
C1422 H1439 0.932 . S
C1423 U1406 2.882 . S
C1423 C1417 1.428 . S
C1423 O1426 1.301 . S
C1423 O1427 1.282 . S
O1424 U1406 2.441 . S
O1424 C1410 1.249 . S
O1425 U1406 2.420 . S
O1425 C1410 1.202 . S
O1426 U1406 2.455 . S
O1426 C1423 1.301 . S
O1427 U1406 2.449 . S
O1427 C1423 1.282 . S
H1428 C1401 0.931 . S
H1429 C1403 0.929 . S
H1430 C1404 0.930 . S
H1431 C1405 0.931 . S
H1432 C1412 0.932 . S
H1433 C1413 0.930 . S
H1434 C1414 0.929 . S
H1435 C1416 0.930 . S
H1436 C1418 0.932 . S
H1437 C1419 0.929 . S
H1438 C1420 0.928 . S
H1439 C1422 0.932 . S
H1440 C1446 0.930 . S
H1441 C1449 0.930 . S
H1442 C1450 0.930 . S
H1443 C1451 0.930 . S
H1444 C1454 0.930 . S
H1445 C1455 0.930 . S
C1446 H1440 0.930 . S
C1446 C1447 1.355 . S
C1446 C1448 1.415 . S
C1447 C1446 1.355 . S
C1447 C1449 1.419 . S
C1448 C1446 1.415 . S
C1448 C1453 1.425 . S
C1448 C1455 1.409 . S
C1449 H1441 0.930 . S
C1449 C1447 1.419 . S
C1449 C1450 1.362 . S
C1450 H1442 0.930 . S
C1450 C1449 1.362 . S
C1450 C1453 1.409 . S
C1451 H1443 0.930 . S
C1451 C1452 1.355 . S
C1451 C1453 1.415 . S
C1452 C1451 1.355 . S
C1452 C1454 1.419 . S
C1453 C1448 1.425 . S
C1453 C1450 1.409 . S
C1453 C1451 1.415 . S
C1454 H1444 0.930 . S
C1454 C1452 1.419 . S
C1454 C1455 1.362 . S
C1455 H1445 0.930 . S
C1455 C1448 1.409 . S
C1455 C1454 1.362 . S
H1456 C1462 0.930 . S
H1457 C1465 0.930 . S
H1458 C1466 0.930 . S
H1459 C1467 0.930 . S
H1460 C1470 0.930 . S
H1461 C1471 0.930 . S
C1462 H1456 0.930 . S
C1462 C1463 1.355 . S
C1462 C1464 1.415 . S
C1463 C1462 1.355 . S
C1463 C1465 1.419 . S
C1464 C1462 1.415 . S
C1464 C1469 1.425 . S
C1464 C1471 1.409 . S
C1465 H1457 0.930 . S
C1465 C1463 1.419 . S
C1465 C1466 1.362 . S
C1466 H1458 0.930 . S
C1466 C1465 1.362 . S
C1466 C1469 1.409 . S
C1467 H1459 0.930 . S
C1467 C1468 1.355 . S
C1467 C1469 1.415 . S
C1468 C1467 1.355 . S
C1468 C1470 1.419 . S
C1469 C1464 1.425 . S
C1469 C1466 1.409 . S
C1469 C1467 1.415 . S
C1470 H1460 0.930 . S
C1470 C1468 1.419 . S
C1470 C1471 1.362 . S
C1471 H1461 0.930 . S
C1471 C1464 1.409 . S
C1471 C1470 1.362 . S
H1472 C1478 0.930 . S
H1473 C1481 0.930 . S
H1474 C1482 0.930 . S
H1475 C1483 0.930 . S
H1476 C1486 0.930 . S
H1477 C1487 0.930 . S
C1478 H1472 0.930 . S
C1478 C1479 1.355 . S
C1478 C1480 1.415 . S
C1479 C1478 1.355 . S
C1479 C1481 1.419 . S
C1480 C1478 1.415 . S
C1480 C1485 1.425 . S
C1480 C1487 1.409 . S
C1481 H1473 0.930 . S
C1481 C1479 1.419 . S
C1481 C1482 1.362 . S
C1482 H1474 0.930 . S
C1482 C1481 1.362 . S
C1482 C1485 1.409 . S
C1483 H1475 0.930 . S
C1483 C1484 1.355 . S
C1483 C1485 1.415 . S
C1484 C1483 1.355 . S
C1484 C1486 1.419 . S
C1485 C1480 1.425 . S
C1485 C1482 1.409 . S
C1485 C1483 1.415 . S
C1486 H1476 0.930 . S
C1486 C1484 1.419 . S
C1486 C1487 1.362 . S
C1487 H1477 0.930 . S
C1487 C1480 1.409 . S
C1487 C1486 1.362 . S
H1488 C1494 0.930 . S
H1489 C1497 0.930 . S
H1490 C1498 0.930 . S
H1491 C1499 0.930 . S
H1492 C1502 0.930 . S
H1493 C1503 0.930 . S
C1494 H1488 0.930 . S
C1494 C1495 1.355 . S
C1494 C1496 1.415 . S
C1495 C1494 1.355 . S
C1495 C1497 1.419 . S
C1496 C1494 1.415 . S
C1496 C1501 1.425 . S
C1496 C1503 1.409 . S
C1497 H1489 0.930 . S
C1497 C1495 1.419 . S
C1497 C1498 1.362 . S
C1498 H1490 0.930 . S
C1498 C1497 1.362 . S
C1498 C1501 1.409 . S
C1499 H1491 0.930 . S
C1499 C1500 1.355 . S
C1499 C1501 1.415 . S
C1500 C1499 1.355 . S
C1500 C1502 1.419 . S
C1501 C1496 1.425 . S
C1501 C1498 1.409 . S
C1501 C1499 1.415 . S
C1502 H1492 0.930 . S
C1502 C1500 1.419 . S
C1502 C1503 1.362 . S
C1503 H1493 0.930 . S
C1503 C1496 1.409 . S
C1503 C1502 1.362 . S
H1504 C1510 0.930 . S
H1505 C1513 0.930 . S
H1506 C1514 0.930 . S
H1507 C1515 0.930 . S
H1508 C1518 0.930 . S
H1509 C1519 0.930 . S
C1510 H1504 0.930 . S
C1510 C1511 1.355 . S
C1510 C1512 1.415 . S
C1511 C1510 1.355 . S
C1511 C1513 1.419 . S
C1512 C1510 1.415 . S
C1512 C1517 1.425 . S
C1512 C1519 1.409 . S
C1513 H1505 0.930 . S
C1513 C1511 1.419 . S
C1513 C1514 1.362 . S
C1514 H1506 0.930 . S
C1514 C1513 1.362 . S
C1514 C1517 1.409 . S
C1515 H1507 0.930 . S
C1515 C1516 1.355 . S
C1515 C1517 1.415 . S
C1516 C1515 1.355 . S
C1516 C1518 1.419 . S
C1517 C1512 1.425 . S
C1517 C1514 1.409 . S
C1517 C1515 1.415 . S
C1518 H1508 0.930 . S
C1518 C1516 1.419 . S
C1518 C1519 1.362 . S
C1519 H1509 0.930 . S
C1519 C1512 1.409 . S
C1519 C1518 1.362 . S
H1520 C1526 0.930 . S
H1521 C1529 0.930 . S
H1522 C1530 0.930 . S
H1523 C1531 0.930 . S
H1524 C1534 0.930 . S
H1525 C1535 0.930 . S
C1526 H1520 0.930 . S
C1526 C1527 1.355 . S
C1526 C1528 1.415 . S
C1527 C1526 1.355 . S
C1527 C1529 1.419 . S
C1528 C1526 1.415 . S
C1528 C1533 1.425 . S
C1528 C1535 1.409 . S
C1529 H1521 0.930 . S
C1529 C1527 1.419 . S
C1529 C1530 1.362 . S
C1530 H1522 0.930 . S
C1530 C1529 1.362 . S
C1530 C1533 1.409 . S
C1531 H1523 0.930 . S
C1531 C1532 1.355 . S
C1531 C1533 1.415 . S
C1532 C1531 1.355 . S
C1532 C1534 1.419 . S
C1533 C1528 1.425 . S
C1533 C1530 1.409 . S
C1533 C1531 1.415 . S
C1534 H1524 0.930 . S
C1534 C1532 1.419 . S
C1534 C1535 1.362 . S
C1535 H1525 0.930 . S
C1535 C1528 1.409 . S
C1535 C1534 1.362 . S
H1536 C1542 0.930 . S
H1537 C1545 0.930 . S
H1538 C1546 0.930 . S
H1539 C1547 0.930 . S
H1540 C1550 0.930 . S
H1541 C1551 0.930 . S
C1542 H1536 0.930 . S
C1542 C1543 1.355 . S
C1542 C1544 1.415 . S
C1543 C1542 1.355 . S
C1543 C1545 1.419 . S
C1544 C1542 1.415 . S
C1544 C1549 1.425 . S
C1544 C1551 1.409 . S
C1545 H1537 0.930 . S
C1545 C1543 1.419 . S
C1545 C1546 1.362 . S
C1546 H1538 0.930 . S
C1546 C1545 1.362 . S
C1546 C1549 1.409 . S
C1547 H1539 0.930 . S
C1547 C1548 1.355 . S
C1547 C1549 1.415 . S
C1548 C1547 1.355 . S
C1548 C1550 1.419 . S
C1549 C1544 1.425 . S
C1549 C1546 1.409 . S
C1549 C1547 1.415 . S
C1550 H1540 0.930 . S
C1550 C1548 1.419 . S
C1550 C1551 1.362 . S
C1551 H1541 0.930 . S
C1551 C1544 1.409 . S
C1551 C1550 1.362 . S
H1552 C1558 0.930 . S
H1553 C1561 0.930 . S
H1554 C1562 0.930 . S
H1555 C1563 0.930 . S
H1556 C1566 0.930 . S
H1557 C1567 0.930 . S
C1558 H1552 0.930 . S
C1558 C1559 1.355 . S
C1558 C1560 1.415 . S
C1559 C1558 1.355 . S
C1559 C1561 1.419 . S
C1560 C1558 1.415 . S
C1560 C1565 1.425 . S
C1560 C1567 1.409 . S
C1561 H1553 0.930 . S
C1561 C1559 1.419 . S
C1561 C1562 1.362 . S
C1562 H1554 0.930 . S
C1562 C1561 1.362 . S
C1562 C1565 1.409 . S
C1563 H1555 0.930 . S
C1563 C1564 1.355 . S
C1563 C1565 1.415 . S
C1564 C1563 1.355 . S
C1564 C1566 1.419 . S
C1565 C1560 1.425 . S
C1565 C1562 1.409 . S
C1565 C1563 1.415 . S
C1566 H1556 0.930 . S
C1566 C1564 1.419 . S
C1566 C1567 1.362 . S
C1567 H1557 0.930 . S
C1567 C1560 1.409 . S
C1567 C1566 1.362 . S
H1568 C1574 0.930 . S
H1569 C1577 0.930 . S
H1570 C1578 0.930 . S
H1571 C1579 0.930 . S
H1572 C1582 0.930 . S
H1573 C1583 0.930 . S
C1574 H1568 0.930 . S
C1574 C1575 1.355 . S
C1574 C1576 1.415 . S
C1575 C1574 1.355 . S
C1575 C1577 1.419 . S
C1576 C1574 1.415 . S
C1576 C1581 1.425 . S
C1576 C1583 1.409 . S
C1577 H1569 0.930 . S
C1577 C1575 1.419 . S
C1577 C1578 1.362 . S
C1578 H1570 0.930 . S
C1578 C1577 1.362 . S
C1578 C1581 1.409 . S
C1579 H1571 0.930 . S
C1579 C1580 1.355 . S
C1579 C1581 1.415 . S
C1580 C1579 1.355 . S
C1580 C1582 1.419 . S
C1581 C1576 1.425 . S
C1581 C1578 1.409 . S
C1581 C1579 1.415 . S
C1582 H1572 0.930 . S
C1582 C1580 1.419 . S
C1582 C1583 1.362 . S
C1583 H1573 0.930 . S
C1583 C1576 1.409 . S
C1583 C1582 1.362 . S
H1584 C1590 0.930 . S
H1585 C1593 0.930 . S
H1586 C1594 0.930 . S
H1587 C1595 0.930 . S
H1588 C1598 0.930 . S
H1589 C1599 0.930 . S
C1590 H1584 0.930 . S
C1590 C1591 1.355 . S
C1590 C1592 1.415 . S
C1591 C1590 1.355 . S
C1591 C1593 1.419 . S
C1592 C1590 1.415 . S
C1592 C1597 1.425 . S
C1592 C1599 1.409 . S
C1593 H1585 0.930 . S
C1593 C1591 1.419 . S
C1593 C1594 1.362 . S
C1594 H1586 0.930 . S
C1594 C1593 1.362 . S
C1594 C1597 1.409 . S
C1595 H1587 0.930 . S
C1595 C1596 1.355 . S
C1595 C1597 1.415 . S
C1596 C1595 1.355 . S
C1596 C1598 1.419 . S
C1597 C1592 1.425 . S
C1597 C1594 1.409 . S
C1597 C1595 1.415 . S
C1598 H1588 0.930 . S
C1598 C1596 1.419 . S
C1598 C1599 1.362 . S
C1599 H1589 0.930 . S
C1599 C1592 1.409 . S
C1599 C1598 1.362 . S
H1600 C1606 0.930 . S
H1601 C1609 0.930 . S
H1602 C1610 0.930 . S
H1603 C1611 0.930 . S
H1604 C1614 0.930 . S
H1605 C1615 0.930 . S
C1606 H1600 0.930 . S
C1606 C1607 1.355 . S
C1606 C1608 1.415 . S
C1607 C1606 1.355 . S
C1607 C1609 1.419 . S
C1608 C1606 1.415 . S
C1608 C1613 1.425 . S
C1608 C1615 1.409 . S
C1609 H1601 0.930 . S
C1609 C1607 1.419 . S
C1609 C1610 1.362 . S
C1610 H1602 0.930 . S
C1610 C1609 1.362 . S
C1610 C1613 1.409 . S
C1611 H1603 0.930 . S
C1611 C1612 1.355 . S
C1611 C1613 1.415 . S
C1612 C1611 1.355 . S
C1612 C1614 1.419 . S
C1613 C1608 1.425 . S
C1613 C1610 1.409 . S
C1613 C1611 1.415 . S
C1614 H1604 0.930 . S
C1614 C1612 1.419 . S
C1614 C1615 1.362 . S
C1615 H1605 0.930 . S
C1615 C1608 1.409 . S
C1615 C1614 1.362 . S
H1616 C1622 0.930 . S
H1617 C1625 0.930 . S
H1618 C1626 0.930 . S
H1619 C1627 0.930 . S
H1620 C1630 0.930 . S
H1621 C1631 0.930 . S
C1622 H1616 0.930 . S
C1622 C1623 1.355 . S
C1622 C1624 1.415 . S
C1623 C1622 1.355 . S
C1623 C1625 1.419 . S
C1624 C1622 1.415 . S
C1624 C1629 1.425 . S
C1624 C1631 1.409 . S
C1625 H1617 0.930 . S
C1625 C1623 1.419 . S
C1625 C1626 1.362 . S
C1626 H1618 0.930 . S
C1626 C1625 1.362 . S
C1626 C1629 1.409 . S
C1627 H1619 0.930 . S
C1627 C1628 1.355 . S
C1627 C1629 1.415 . S
C1628 C1627 1.355 . S
C1628 C1630 1.419 . S
C1629 C1624 1.425 . S
C1629 C1626 1.409 . S
C1629 C1627 1.415 . S
C1630 H1620 0.930 . S
C1630 C1628 1.419 . S
C1630 C1631 1.362 . S
C1631 H1621 0.930 . S
C1631 C1624 1.409 . S
C1631 C1630 1.362 . S
H1632 C1638 0.930 . S
H1633 C1641 0.930 . S
H1634 C1642 0.930 . S
H1635 C1643 0.930 . S
H1636 C1646 0.930 . S
H1637 C1647 0.930 . S
C1638 H1632 0.930 . S
C1638 C1639 1.355 . S
C1638 C1640 1.403 1_655 S
C1639 C1638 1.355 . S
C1639 C1641 1.419 . S
C1640 C1638 1.403 1_455 S
C1640 C1645 1.404 1_455 S
C1640 C1647 1.431 . S
C1641 H1633 0.930 . S
C1641 C1639 1.419 . S
C1641 C1642 1.362 . S
C1642 H1634 0.930 . S
C1642 C1641 1.362 . S
C1642 C1645 1.430 . S
C1643 H1635 0.930 . S
C1643 C1644 1.355 . S
C1643 C1645 1.404 1_455 S
C1644 C1643 1.355 . S
C1644 C1646 1.419 . S
C1645 C1640 1.404 1_655 S
C1645 C1642 1.430 . S
C1645 C1643 1.404 1_655 S
C1646 H1636 0.930 . S
C1646 C1644 1.419 . S
C1646 C1647 1.362 . S
C1647 H1637 0.930 . S
C1647 C1640 1.431 . S
C1647 C1646 1.362 . S
H1648 C1654 0.930 . S
H1649 C1657 0.930 . S
H1650 C1658 0.930 . S
H1651 C1659 0.930 . S
H1652 C1662 0.930 . S
H1653 C1663 0.930 . S
C1654 H1648 0.930 . S
C1654 C1655 1.355 . S
C1654 C1656 1.415 . S
C1655 C1654 1.355 . S
C1655 C1657 1.419 . S
C1656 C1654 1.415 . S
C1656 C1661 1.425 . S
C1656 C1663 1.409 . S
C1657 H1649 0.930 . S
C1657 C1655 1.419 . S
C1657 C1658 1.362 . S
C1658 H1650 0.930 . S
C1658 C1657 1.362 . S
C1658 C1661 1.409 . S
C1659 H1651 0.930 . S
C1659 C1660 1.355 . S
C1659 C1661 1.415 . S
C1660 C1659 1.355 . S
C1660 C1662 1.419 . S
C1661 C1656 1.425 . S
C1661 C1658 1.409 . S
C1661 C1659 1.415 . S
C1662 H1652 0.930 . S
C1662 C1660 1.419 . S
C1662 C1663 1.362 . S
C1663 H1653 0.930 . S
C1663 C1656 1.409 . S
C1663 C1662 1.362 . S
H1664 C1670 0.930 . S
H1665 C1673 0.930 . S
H1666 C1674 0.930 . S
H1667 C1675 0.930 . S
H1668 C1678 0.930 . S
H1669 C1679 0.930 . S
C1670 H1664 0.930 . S
C1670 C1671 1.355 . S
C1670 C1672 1.415 . S
C1671 C1670 1.355 . S
C1671 C1673 1.419 . S
C1672 C1670 1.415 . S
C1672 C1677 1.425 1_545 S
C1672 C1679 1.409 . S
C1673 H1665 0.930 . S
C1673 C1671 1.419 . S
C1673 C1674 1.362 1_545 S
C1674 H1666 0.930 . S
C1674 C1673 1.362 1_565 S
C1674 C1677 1.409 . S
C1675 H1667 0.930 . S
C1675 C1676 1.355 . S
C1675 C1677 1.415 . S
C1676 C1675 1.355 . S
C1676 C1678 1.419 . S
C1677 C1672 1.425 1_565 S
C1677 C1674 1.409 . S
C1677 C1675 1.415 . S
C1678 H1668 0.930 . S
C1678 C1676 1.419 . S
C1678 C1679 1.362 1_565 S
C1679 H1669 0.930 . S
C1679 C1672 1.409 . S
C1679 C1678 1.362 1_545 S
H1680 C1686 0.930 . S
H1681 C1689 0.930 . S
H1682 C1690 0.930 . S
H1683 C1691 0.930 . S
H1684 C1694 0.930 . S
H1685 C1695 0.930 . S
C1686 H1680 0.930 . S
C1686 C1687 1.355 . S
C1686 C1688 1.415 1_565 S
C1687 C1686 1.355 . S
C1687 C1689 1.419 . S
C1688 C1686 1.415 1_545 S
C1688 C1693 1.425 1_545 S
C1688 C1695 1.409 . S
C1689 H1681 0.930 . S
C1689 C1687 1.419 . S
C1689 C1690 1.362 . S
C1690 H1682 0.930 . S
C1690 C1689 1.362 . S
C1690 C1693 1.409 . S
C1691 H1683 0.930 . S
C1691 C1692 1.355 . S
C1691 C1693 1.415 1_545 S
C1692 C1691 1.355 . S
C1692 C1694 1.419 . S
C1693 C1688 1.425 1_565 S
C1693 C1690 1.409 . S
C1693 C1691 1.415 1_565 S
C1694 H1684 0.930 . S
C1694 C1692 1.419 . S
C1694 C1695 1.362 . S
C1695 H1685 0.930 . S
C1695 C1688 1.409 . S
C1695 C1694 1.362 . S
H1696 C1702 0.930 . S
H1697 C1705 0.930 . S
H1698 C1706 0.930 . S
H1699 C1707 0.930 . S
H1700 C1710 0.930 . S
H1701 C1711 0.930 . S
C1702 H1696 0.930 . S
C1702 C1703 1.355 . S
C1702 C1704 1.415 . S
C1703 C1702 1.355 . S
C1703 C1705 1.419 . S
C1704 C1702 1.415 . S
C1704 C1709 1.425 1_655 S
C1704 C1711 1.409 . S
C1705 H1697 0.930 . S
C1705 C1703 1.419 . S
C1705 C1706 1.362 1_655 S
C1706 H1698 0.930 . S
C1706 C1705 1.362 1_455 S
C1706 C1709 1.409 . S
C1707 H1699 0.930 . S
C1707 C1708 1.355 . S
C1707 C1709 1.415 . S
C1708 C1707 1.355 . S
C1708 C1710 1.419 . S
C1709 C1704 1.425 1_455 S
C1709 C1706 1.409 . S
C1709 C1707 1.415 . S
C1710 H1700 0.930 . S
C1710 C1708 1.419 . S
C1710 C1711 1.362 1_455 S
C1711 H1701 0.930 . S
C1711 C1704 1.409 . S
C1711 C1710 1.362 1_655 S
H1712 C1718 0.930 . S
H1713 C1721 0.930 . S
H1714 C1722 0.930 . S
H1715 C1723 0.930 . S
H1716 C1726 0.930 . S
H1717 C1727 0.930 . S
C1718 H1712 0.930 . S
C1718 C1719 1.355 . S
C1718 C1720 1.415 . S
C1719 C1718 1.355 . S
C1719 C1721 1.419 . S
C1720 C1718 1.415 . S
C1720 C1725 1.425 . S
C1720 C1727 1.409 . S
C1721 H1713 0.930 . S
C1721 C1719 1.419 . S
C1721 C1722 1.362 . S
C1722 H1714 0.930 . S
C1722 C1721 1.362 . S
C1722 C1725 1.409 . S
C1723 H1715 0.930 . S
C1723 C1724 1.355 . S
C1723 C1725 1.415 . S
C1724 C1723 1.355 . S
C1724 C1726 1.419 . S
C1725 C1720 1.425 . S
C1725 C1722 1.409 . S
C1725 C1723 1.415 . S
C1726 H1716 0.930 . S
C1726 C1724 1.419 . S
C1726 C1727 1.362 . S
C1727 H1717 0.930 . S
C1727 C1720 1.409 . S
C1727 C1726 1.362 . S
H1728 C1734 0.930 . S
H1729 C1737 0.930 . S
H1730 C1738 0.930 . S
H1731 C1739 0.930 . S
H1732 C1742 0.930 . S
H1733 C1743 0.930 . S
C1734 H1728 0.930 . S
C1734 C1735 1.355 . S
C1734 C1736 1.415 . S
C1735 C1734 1.355 . S
C1735 C1737 1.419 . S
C1736 C1734 1.415 . S
C1736 C1741 1.425 1_455 S
C1736 C1743 1.409 1_455 S
C1737 H1729 0.930 . S
C1737 C1735 1.419 . S
C1737 C1738 1.362 . S
C1738 H1730 0.930 . S
C1738 C1737 1.362 . S
C1738 C1741 1.409 1_455 S
C1739 H1731 0.930 . S
C1739 C1740 1.355 . S
C1739 C1741 1.415 . S
C1740 C1739 1.355 . S
C1740 C1742 1.419 . S
C1741 C1736 1.425 1_655 S
C1741 C1738 1.409 1_655 S
C1741 C1739 1.415 . S
C1742 H1732 0.930 . S
C1742 C1740 1.419 . S
C1742 C1743 1.362 . S
C1743 H1733 0.930 . S
C1743 C1736 1.409 1_655 S
C1743 C1742 1.362 . S
H1744 C1750 0.930 . S
H1745 C1753 0.930 . S
H1746 C1754 0.930 . S
H1747 C1755 0.930 . S
H1748 C1758 0.930 . S
H1749 C1759 0.930 . S
C1750 H1744 0.930 . S
C1750 C1751 1.355 . S
C1750 C1752 1.415 . S
C1751 C1750 1.355 . S
C1751 C1753 1.419 . S
C1752 C1750 1.415 . S
C1752 C1757 1.425 . S
C1752 C1759 1.409 . S
C1753 H1745 0.930 . S
C1753 C1751 1.419 . S
C1753 C1754 1.362 . S
C1754 H1746 0.930 . S
C1754 C1753 1.362 . S
C1754 C1757 1.409 . S
C1755 H1747 0.930 . S
C1755 C1756 1.355 . S
C1755 C1757 1.415 . S
C1756 C1755 1.355 . S
C1756 C1758 1.419 . S
C1757 C1752 1.425 . S
C1757 C1754 1.409 . S
C1757 C1755 1.415 . S
C1758 H1748 0.930 . S
C1758 C1756 1.419 . S
C1758 C1759 1.362 . S
C1759 H1749 0.930 . S
C1759 C1752 1.409 . S
C1759 C1758 1.362 . S
H1760 C1766 0.930 . S
H1761 C1769 0.930 . S
H1762 C1770 0.930 . S
H1763 C1771 0.930 . S
H1764 C1774 0.930 . S
H1765 C1775 0.930 . S
C1766 H1760 0.930 . S
C1766 C1767 1.355 . S
C1766 C1768 1.415 . S
C1767 C1766 1.355 . S
C1767 C1769 1.419 . S
C1768 C1766 1.415 . S
C1768 C1773 1.425 1_545 S
C1768 C1775 1.409 1_545 S
C1769 H1761 0.930 . S
C1769 C1767 1.419 . S
C1769 C1770 1.362 . S
C1770 H1762 0.930 . S
C1770 C1769 1.362 . S
C1770 C1773 1.409 1_545 S
C1771 H1763 0.930 . S
C1771 C1772 1.355 . S
C1771 C1773 1.415 . S
C1772 C1771 1.355 . S
C1772 C1774 1.419 . S
C1773 C1768 1.425 1_565 S
C1773 C1770 1.409 1_565 S
C1773 C1771 1.415 . S
C1774 H1764 0.930 . S
C1774 C1772 1.419 . S
C1774 C1775 1.362 . S
C1775 H1765 0.930 . S
C1775 C1768 1.409 1_565 S
C1775 C1774 1.362 . S
H1776 C1782 0.930 . S
H1777 C1785 0.930 . S
H1778 C1786 0.931 . S
H1779 C1787 0.930 . S
H1780 C1790 0.930 . S
H1781 C1791 0.930 . S
C1782 H1776 0.930 . S
C1782 C1783 1.355 . S
C1782 C1784 1.415 . S
C1783 C1782 1.355 . S
C1783 C1785 1.419 . S
C1784 C1782 1.415 . S
C1784 C1789 1.425 1_455 S
C1784 C1791 1.409 1_455 S
C1785 H1777 0.930 . S
C1785 C1783 1.419 . S
C1785 C1786 1.362 . S
C1786 H1778 0.931 . S
C1786 C1785 1.362 . S
C1786 C1789 1.409 1_455 S
C1787 H1779 0.930 . S
C1787 C1788 1.355 . S
C1787 C1789 1.415 . S
C1788 C1787 1.355 . S
C1788 C1790 1.419 . S
C1789 C1784 1.425 1_655 S
C1789 C1786 1.409 1_655 S
C1789 C1787 1.415 . S
C1790 H1780 0.930 . S
C1790 C1788 1.419 . S
C1790 C1791 1.362 . S
C1791 H1781 0.930 . S
C1791 C1784 1.409 1_655 S
C1791 C1790 1.362 . S
H1792 C1798 0.930 . S
H1793 C1801 0.930 . S
H1794 C1802 0.930 . S
H1795 C1803 0.930 . S
H1796 C1806 0.930 . S
H1797 C1807 0.930 . S
C1798 H1792 0.930 . S
C1798 C1799 1.355 . S
C1798 C1800 1.415 . S
C1799 C1798 1.355 . S
C1799 C1801 1.419 . S
C1800 C1798 1.415 . S
C1800 C1805 1.425 . S
C1800 C1807 1.409 . S
C1801 H1793 0.930 . S
C1801 C1799 1.419 . S
C1801 C1802 1.362 . S
C1802 H1794 0.930 . S
C1802 C1801 1.362 . S
C1802 C1805 1.409 . S
C1803 H1795 0.930 . S
C1803 C1804 1.355 . S
C1803 C1805 1.415 . S
C1804 C1803 1.355 . S
C1804 C1806 1.419 . S
C1805 C1800 1.425 . S
C1805 C1802 1.409 . S
C1805 C1803 1.415 . S
C1806 H1796 0.930 . S
C1806 C1804 1.419 . S
C1806 C1807 1.362 . S
C1807 H1797 0.930 . S
C1807 C1800 1.409 . S
C1807 C1806 1.362 . S
H1808 C1814 0.930 . S
H1809 C1817 0.930 . S
H1810 C1818 0.930 . S
H1811 C1819 0.930 . S
H1812 C1822 0.930 . S
H1813 C1823 0.930 . S
C1814 H1808 0.930 . S
C1814 C1815 1.355 . S
C1814 C1816 1.415 . S
C1815 C1814 1.355 . S
C1815 C1817 1.419 . S
C1816 C1814 1.415 . S
C1816 C1821 1.425 1_565 S
C1816 C1823 1.409 1_565 S
C1817 H1809 0.930 . S
C1817 C1815 1.419 . S
C1817 C1818 1.362 . S
C1818 H1810 0.930 . S
C1818 C1817 1.362 . S
C1818 C1821 1.409 1_565 S
C1819 H1811 0.930 . S
C1819 C1820 1.355 . S
C1819 C1821 1.415 . S
C1820 C1819 1.355 . S
C1820 C1822 1.419 . S
C1821 C1816 1.425 1_545 S
C1821 C1818 1.409 1_545 S
C1821 C1819 1.415 . S
C1822 H1812 0.930 . S
C1822 C1820 1.419 . S
C1822 C1823 1.362 . S
C1823 H1813 0.930 . S
C1823 C1816 1.409 1_545 S
C1823 C1822 1.362 . S
H1824 C1830 0.930 . S
H1825 C1833 0.930 . S
H1826 C1834 0.930 . S
H1827 C1835 0.930 . S
H1828 C1838 0.930 . S
H1829 C1839 0.930 . S
C1830 H1824 0.930 . S
C1830 C1831 1.355 . S
C1830 C1832 1.415 . S
C1831 C1830 1.355 . S
C1831 C1833 1.419 . S
C1832 C1830 1.415 . S
C1832 C1837 1.425 . S
C1832 C1839 1.409 . S
C1833 H1825 0.930 . S
C1833 C1831 1.419 . S
C1833 C1834 1.362 . S
C1834 H1826 0.930 . S
C1834 C1833 1.362 . S
C1834 C1837 1.409 . S
C1835 H1827 0.930 . S
C1835 C1836 1.355 . S
C1835 C1837 1.415 . S
C1836 C1835 1.355 . S
C1836 C1838 1.419 . S
C1837 C1832 1.425 . S
C1837 C1834 1.409 . S
C1837 C1835 1.415 . S
C1838 H1828 0.930 . S
C1838 C1836 1.419 . S
C1838 C1839 1.362 . S
C1839 H1829 0.930 . S
C1839 C1832 1.409 . S
C1839 C1838 1.362 . S
H1840 C1846 0.930 . S
H1841 C1849 0.930 . S
H1842 C1850 0.930 . S
H1843 C1851 0.930 . S
H1844 C1854 0.930 . S
H1845 C1855 0.930 . S
C1846 H1840 0.930 . S
C1846 C1847 1.355 . S
C1846 C1848 1.415 . S
C1847 C1846 1.355 . S
C1847 C1849 1.419 . S
C1848 C1846 1.415 . S
C1848 C1853 1.425 . S
C1848 C1855 1.409 . S
C1849 H1841 0.930 . S
C1849 C1847 1.419 . S
C1849 C1850 1.362 . S
C1850 H1842 0.930 . S
C1850 C1849 1.362 . S
C1850 C1853 1.409 . S
C1851 H1843 0.930 . S
C1851 C1852 1.355 . S
C1851 C1853 1.415 . S
C1852 C1851 1.355 . S
C1852 C1854 1.419 . S
C1853 C1848 1.425 . S
C1853 C1850 1.409 . S
C1853 C1851 1.415 . S
C1854 H1844 0.930 . S
C1854 C1852 1.419 . S
C1854 C1855 1.362 . S
C1855 H1845 0.930 . S
C1855 C1848 1.409 . S
C1855 C1854 1.362 . S
H1856 C1862 0.930 . S
H1857 C1865 0.930 . S
H1858 C1866 0.930 . S
H1859 C1867 0.930 . S
H1860 C1870 0.930 . S
H1861 C1871 0.930 . S
C1862 H1856 0.930 . S
C1862 C1863 1.355 . S
C1862 C1864 1.415 . S
C1863 C1862 1.355 . S
C1863 C1865 1.419 . S
C1864 C1862 1.415 . S
C1864 C1869 1.425 . S
C1864 C1871 1.409 . S
C1865 H1857 0.930 . S
C1865 C1863 1.419 . S
C1865 C1866 1.362 . S
C1866 H1858 0.930 . S
C1866 C1865 1.362 . S
C1866 C1869 1.409 . S
C1867 H1859 0.930 . S
C1867 C1868 1.355 . S
C1867 C1869 1.415 . S
C1868 C1867 1.355 . S
C1868 C1870 1.419 . S
C1869 C1864 1.425 . S
C1869 C1866 1.409 . S
C1869 C1867 1.415 . S
C1870 H1860 0.930 . S
C1870 C1868 1.419 . S
C1870 C1871 1.362 . S
C1871 H1861 0.930 . S
C1871 C1864 1.409 . S
C1871 C1870 1.362 . S
H1872 C1878 0.930 . S
H1873 C1881 0.930 . S
H1874 C1882 0.930 . S
H1875 C1883 0.930 . S
H1876 C1886 0.930 . S
H1877 C1887 0.930 . S
C1878 H1872 0.930 . S
C1878 C1879 1.355 . S
C1878 C1880 1.415 . S
C1879 C1878 1.355 . S
C1879 C1881 1.419 . S
C1880 C1878 1.415 . S
C1880 C1885 1.425 . S
C1880 C1887 1.409 . S
C1881 H1873 0.930 . S
C1881 C1879 1.419 . S
C1881 C1882 1.362 . S
C1882 H1874 0.930 . S
C1882 C1881 1.362 . S
C1882 C1885 1.409 . S
C1883 H1875 0.930 . S
C1883 C1884 1.355 . S
C1883 C1885 1.415 . S
C1884 C1883 1.355 . S
C1884 C1886 1.419 . S
C1885 C1880 1.425 . S
C1885 C1882 1.409 . S
C1885 C1883 1.415 . S
C1886 H1876 0.930 . S
C1886 C1884 1.419 . S
C1886 C1887 1.362 . S
C1887 H1877 0.930 . S
C1887 C1880 1.409 . S
C1887 C1886 1.362 . S
H1888 C1894 0.930 . S
H1889 C1897 0.930 . S
H1890 C1898 0.930 . S
H1891 C1899 0.930 . S
H1892 C1902 0.930 . S
H1893 C1903 0.930 . S
C1894 H1888 0.930 . S
C1894 C1895 1.355 . S
C1894 C1896 1.415 . S
C1895 C1894 1.355 . S
C1895 C1897 1.419 . S
C1896 C1894 1.415 . S
C1896 C1901 1.425 . S
C1896 C1903 1.409 . S
C1897 H1889 0.930 . S
C1897 C1895 1.419 . S
C1897 C1898 1.362 . S
C1898 H1890 0.930 . S
C1898 C1897 1.362 . S
C1898 C1901 1.409 . S
C1899 H1891 0.930 . S
C1899 C1900 1.355 . S
C1899 C1901 1.415 . S
C1900 C1899 1.355 . S
C1900 C1902 1.419 . S
C1901 C1896 1.425 . S
C1901 C1898 1.409 . S
C1901 C1899 1.415 . S
C1902 H1892 0.930 . S
C1902 C1900 1.419 . S
C1902 C1903 1.362 . S
C1903 H1893 0.930 . S
C1903 C1896 1.409 . S
C1903 C1902 1.362 . S
H1904 C1910 0.930 . S
H1905 C1913 0.930 . S
H1906 C1914 0.930 . S
H1907 C1915 0.930 . S
H1908 C1918 0.930 . S
H1909 C1919 0.930 . S
C1910 H1904 0.930 . S
C1910 C1911 1.355 . S
C1910 C1912 1.415 . S
C1911 C1910 1.355 . S
C1911 C1913 1.419 . S
C1912 C1910 1.415 . S
C1912 C1917 1.425 . S
C1912 C1919 1.409 . S
C1913 H1905 0.930 . S
C1913 C1911 1.419 . S
C1913 C1914 1.362 . S
C1914 H1906 0.930 . S
C1914 C1913 1.362 . S
C1914 C1917 1.409 . S
C1915 H1907 0.930 . S
C1915 C1916 1.355 . S
C1915 C1917 1.415 . S
C1916 C1915 1.355 . S
C1916 C1918 1.419 . S
C1917 C1912 1.425 . S
C1917 C1914 1.409 . S
C1917 C1915 1.415 . S
C1918 H1908 0.930 . S
C1918 C1916 1.419 . S
C1918 C1919 1.362 . S
C1919 H1909 0.930 . S
C1919 C1912 1.409 . S
C1919 C1918 1.362 . S
H1920 C1926 0.930 . S
H1921 C1929 0.930 . S
H1922 C1930 0.930 . S
H1923 C1931 0.930 . S
H1924 C1934 0.930 . S
H1925 C1935 0.930 . S
C1926 H1920 0.930 . S
C1926 C1927 1.355 . S
C1926 C1928 1.415 . S
C1927 C1926 1.355 . S
C1927 C1929 1.419 . S
C1928 C1926 1.415 . S
C1928 C1933 1.425 . S
C1928 C1935 1.409 . S
C1929 H1921 0.930 . S
C1929 C1927 1.419 . S
C1929 C1930 1.362 . S
C1930 H1922 0.930 . S
C1930 C1929 1.362 . S
C1930 C1933 1.409 . S
C1931 H1923 0.930 . S
C1931 C1932 1.355 . S
C1931 C1933 1.415 . S
C1932 C1931 1.355 . S
C1932 C1934 1.419 . S
C1933 C1928 1.425 . S
C1933 C1930 1.409 . S
C1933 C1931 1.415 . S
C1934 H1924 0.930 . S
C1934 C1932 1.419 . S
C1934 C1935 1.362 . S
C1935 H1925 0.930 . S
C1935 C1928 1.409 . S
C1935 C1934 1.362 . S
H1936 C1942 0.930 . S
H1937 C1945 0.930 . S
H1938 C1946 0.930 . S
H1939 C1947 0.930 . S
H1940 C1950 0.930 . S
H1941 C1951 0.930 . S
C1942 H1936 0.930 . S
C1942 C1943 1.355 . S
C1942 C1944 1.415 . S
C1943 C1942 1.355 . S
C1943 C1945 1.419 . S
C1944 C1942 1.415 . S
C1944 C1949 1.425 . S
C1944 C1951 1.409 . S
C1945 H1937 0.930 . S
C1945 C1943 1.419 . S
C1945 C1946 1.362 . S
C1946 H1938 0.930 . S
C1946 C1945 1.362 . S
C1946 C1949 1.409 . S
C1947 H1939 0.930 . S
C1947 C1948 1.355 . S
C1947 C1949 1.415 . S
C1948 C1947 1.355 . S
C1948 C1950 1.419 . S
C1949 C1944 1.425 . S
C1949 C1946 1.409 . S
C1949 C1947 1.415 . S
C1950 H1940 0.930 . S
C1950 C1948 1.419 . S
C1950 C1951 1.362 . S
C1951 H1941 0.930 . S
C1951 C1944 1.409 . S
C1951 C1950 1.362 . S
H1952 C1958 0.930 . S
H1953 C1961 0.930 . S
H1954 C1962 0.930 . S
H1955 C1963 0.930 . S
H1956 C1966 0.930 . S
H1957 C1967 0.930 . S
C1958 H1952 0.930 . S
C1958 C1959 1.355 . S
C1958 C1960 1.415 . S
C1959 C1958 1.355 . S
C1959 C1961 1.419 . S
C1960 C1958 1.415 . S
C1960 C1965 1.425 . S
C1960 C1967 1.409 . S
C1961 H1953 0.930 . S
C1961 C1959 1.419 . S
C1961 C1962 1.362 . S
C1962 H1954 0.930 . S
C1962 C1961 1.362 . S
C1962 C1965 1.409 . S
C1963 H1955 0.930 . S
C1963 C1964 1.355 . S
C1963 C1965 1.415 . S
C1964 C1963 1.355 . S
C1964 C1966 1.419 . S
C1965 C1960 1.425 . S
C1965 C1962 1.409 . S
C1965 C1963 1.415 . S
C1966 H1956 0.930 . S
C1966 C1964 1.419 . S
C1966 C1967 1.362 . S
C1967 H1957 0.930 . S
C1967 C1960 1.409 . S
C1967 C1966 1.362 . S
H1968 C1974 0.930 . S
H1969 C1977 0.930 . S
H1970 C1978 0.930 . S
H1971 C1979 0.930 . S
H1972 C1982 0.930 . S
H1973 C1983 0.930 . S
C1974 H1968 0.930 . S
C1974 C1975 1.355 . S
C1974 C1976 1.415 . S
C1975 C1974 1.355 . S
C1975 C1977 1.419 . S
C1976 C1974 1.415 . S
C1976 C1981 1.425 . S
C1976 C1983 1.409 . S
C1977 H1969 0.930 . S
C1977 C1975 1.419 . S
C1977 C1978 1.362 . S
C1978 H1970 0.930 . S
C1978 C1977 1.362 . S
C1978 C1981 1.409 . S
C1979 H1971 0.930 . S
C1979 C1980 1.355 . S
C1979 C1981 1.415 . S
C1980 C1979 1.355 . S
C1980 C1982 1.419 . S
C1981 C1976 1.425 . S
C1981 C1978 1.409 . S
C1981 C1979 1.415 . S
C1982 H1972 0.930 . S
C1982 C1980 1.419 . S
C1982 C1983 1.362 . S
C1983 H1973 0.930 . S
C1983 C1976 1.409 . S
C1983 C1982 1.362 . S
H1984 C1990 0.930 . S
H1985 C1993 0.930 . S
H1986 C1994 0.930 . S
H1987 C1995 0.930 . S
H1988 C1998 0.930 . S
H1989 C1999 0.930 . S
C1990 H1984 0.930 . S
C1990 C1991 1.355 . S
C1990 C1992 1.415 . S
C1991 C1990 1.355 . S
C1991 C1993 1.419 . S
C1992 C1990 1.415 . S
C1992 C1997 1.425 . S
C1992 C1999 1.409 . S
C1993 H1985 0.930 . S
C1993 C1991 1.419 . S
C1993 C1994 1.362 . S
C1994 H1986 0.930 . S
C1994 C1993 1.362 . S
C1994 C1997 1.409 . S
C1995 H1987 0.930 . S
C1995 C1996 1.355 . S
C1995 C1997 1.415 . S
C1996 C1995 1.355 . S
C1996 C1998 1.419 . S
C1997 C1992 1.425 . S
C1997 C1994 1.409 . S
C1997 C1995 1.415 . S
C1998 H1988 0.930 . S
C1998 C1996 1.419 . S
C1998 C1999 1.362 . S
C1999 H1989 0.930 . S
C1999 C1992 1.409 . S
C1999 C1998 1.362 . S
H2000 C2006 0.930 . S
H2001 C2009 0.930 . S
H2002 C2010 0.930 . S
H2003 C2011 0.930 . S
H2004 C2014 0.930 . S
H2005 C2015 0.930 . S
C2006 H2000 0.930 . S
C2006 C2007 1.355 . S
C2006 C2008 1.415 . S
C2007 C2006 1.355 . S
C2007 C2009 1.419 . S
C2008 C2006 1.415 . S
C2008 C2013 1.425 . S
C2008 C2015 1.409 . S
C2009 H2001 0.930 . S
C2009 C2007 1.419 . S
C2009 C2010 1.362 . S
C2010 H2002 0.930 . S
C2010 C2009 1.362 . S
C2010 C2013 1.409 . S
C2011 H2003 0.930 . S
C2011 C2012 1.355 . S
C2011 C2013 1.415 . S
C2012 C2011 1.355 . S
C2012 C2014 1.419 . S
C2013 C2008 1.425 . S
C2013 C2010 1.409 . S
C2013 C2011 1.415 . S
C2014 H2004 0.930 . S
C2014 C2012 1.419 . S
C2014 C2015 1.362 . S
C2015 H2005 0.930 . S
C2015 C2008 1.409 . S
C2015 C2014 1.362 . S
H2016 C2022 0.930 . S
H2017 C2025 0.930 . S
H2018 C2026 0.930 . S
H2019 C2027 0.930 . S
H2020 C2030 0.930 . S
H2021 C2031 0.930 . S
C2022 H2016 0.930 . S
C2022 C2023 1.355 . S
C2022 C2024 1.415 . S
C2023 C2022 1.355 . S
C2023 C2025 1.419 . S
C2024 C2022 1.415 . S
C2024 C2029 1.425 . S
C2024 C2031 1.409 . S
C2025 H2017 0.930 . S
C2025 C2023 1.419 . S
C2025 C2026 1.362 . S
C2026 H2018 0.930 . S
C2026 C2025 1.362 . S
C2026 C2029 1.409 . S
C2027 H2019 0.930 . S
C2027 C2028 1.355 . S
C2027 C2029 1.415 . S
C2028 C2027 1.355 . S
C2028 C2030 1.419 . S
C2029 C2024 1.425 . S
C2029 C2026 1.409 . S
C2029 C2027 1.415 . S
C2030 H2020 0.930 . S
C2030 C2028 1.419 . S
C2030 C2031 1.362 . S
C2031 H2021 0.930 . S
C2031 C2024 1.409 . S
C2031 C2030 1.362 . S
H2032 C2038 0.930 . S
H2033 C2041 0.930 . S
H2034 C2042 0.930 . S
H2035 C2043 0.930 . S
H2036 C2046 0.930 . S
H2037 C2047 0.930 . S
C2038 H2032 0.930 . S
C2038 C2039 1.355 . S
C2038 C2040 1.415 . S
C2039 C2038 1.355 . S
C2039 C2041 1.419 . S
C2040 C2038 1.415 . S
C2040 C2045 1.425 . S
C2040 C2047 1.409 . S
C2041 H2033 0.930 . S
C2041 C2039 1.419 . S
C2041 C2042 1.362 . S
C2042 H2034 0.930 . S
C2042 C2041 1.362 . S
C2042 C2045 1.409 . S
C2043 H2035 0.930 . S
C2043 C2044 1.355 . S
C2043 C2045 1.415 . S
C2044 C2043 1.355 . S
C2044 C2046 1.419 . S
C2045 C2040 1.425 . S
C2045 C2042 1.409 . S
C2045 C2043 1.415 . S
C2046 H2036 0.930 . S
C2046 C2044 1.419 . S
C2046 C2047 1.362 . S
C2047 H2037 0.930 . S
C2047 C2040 1.409 . S
C2047 C2046 1.362 . S
H2048 C2054 0.930 . S
H2049 C2057 0.930 . S
H2050 C2058 0.930 . S
H2051 C2059 0.930 . S
H2052 C2062 0.930 . S
H2053 C2063 0.930 . S
C2054 H2048 0.930 . S
C2054 C2055 1.355 . S
C2054 C2056 1.415 . S
C2055 C2054 1.355 . S
C2055 C2057 1.419 . S
C2056 C2054 1.415 . S
C2056 C2061 1.425 . S
C2056 C2063 1.409 . S
C2057 H2049 0.930 . S
C2057 C2055 1.419 . S
C2057 C2058 1.362 . S
C2058 H2050 0.930 . S
C2058 C2057 1.362 . S
C2058 C2061 1.409 . S
C2059 H2051 0.930 . S
C2059 C2060 1.355 . S
C2059 C2061 1.415 . S
C2060 C2059 1.355 . S
C2060 C2062 1.419 . S
C2061 C2056 1.425 . S
C2061 C2058 1.409 . S
C2061 C2059 1.415 . S
C2062 H2052 0.930 . S
C2062 C2060 1.419 . S
C2062 C2063 1.362 . S
C2063 H2053 0.930 . S
C2063 C2056 1.409 . S
C2063 C2062 1.362 . S
H2064 C2070 0.930 . S
H2065 C2073 0.930 . S
H2066 C2074 0.930 . S
H2067 C2075 0.930 . S
H2068 C2078 0.930 . S
H2069 C2079 0.930 . S
C2070 H2064 0.930 . S
C2070 C2071 1.355 . S
C2070 C2072 1.415 . S
C2071 C2070 1.355 . S
C2071 C2073 1.419 . S
C2072 C2070 1.415 . S
C2072 C2077 1.425 . S
C2072 C2079 1.409 . S
C2073 H2065 0.930 . S
C2073 C2071 1.419 . S
C2073 C2074 1.362 . S
C2074 H2066 0.930 . S
C2074 C2073 1.362 . S
C2074 C2077 1.409 . S
C2075 H2067 0.930 . S
C2075 C2076 1.355 . S
C2075 C2077 1.415 . S
C2076 C2075 1.355 . S
C2076 C2078 1.419 . S
C2077 C2072 1.425 . S
C2077 C2074 1.409 . S
C2077 C2075 1.415 . S
C2078 H2068 0.930 . S
C2078 C2076 1.419 . S
C2078 C2079 1.362 . S
C2079 H2069 0.930 . S
C2079 C2072 1.409 . S
C2079 C2078 1.362 . S
H2080 C2086 0.930 . S
H2081 C2089 0.930 . S
H2082 C2090 0.930 . S
H2083 C2091 0.930 . S
H2084 C2094 0.930 . S
H2085 C2095 0.930 . S
C2086 H2080 0.930 . S
C2086 C2087 1.355 . S
C2086 C2088 1.415 . S
C2087 C2086 1.355 . S
C2087 C2089 1.419 . S
C2088 C2086 1.415 . S
C2088 C2093 1.425 . S
C2088 C2095 1.409 . S
C2089 H2081 0.930 . S
C2089 C2087 1.419 . S
C2089 C2090 1.362 . S
C2090 H2082 0.930 . S
C2090 C2089 1.362 . S
C2090 C2093 1.409 . S
C2091 H2083 0.930 . S
C2091 C2092 1.355 . S
C2091 C2093 1.415 . S
C2092 C2091 1.355 . S
C2092 C2094 1.419 . S
C2093 C2088 1.425 . S
C2093 C2090 1.409 . S
C2093 C2091 1.415 . S
C2094 H2084 0.930 . S
C2094 C2092 1.419 . S
C2094 C2095 1.362 . S
C2095 H2085 0.930 . S
C2095 C2088 1.409 . S
C2095 C2094 1.362 . S
H2096 C2102 0.930 . S
H2097 C2105 0.930 . S
H2098 C2106 0.930 . S
H2099 C2107 0.930 . S
H2100 C2110 0.930 . S
H2101 C2111 0.930 . S
C2102 H2096 0.930 . S
C2102 C2103 1.355 . S
C2102 C2104 1.415 . S
C2103 C2102 1.355 . S
C2103 C2105 1.419 . S
C2104 C2102 1.415 . S
C2104 C2109 1.425 . S
C2104 C2111 1.409 . S
C2105 H2097 0.930 . S
C2105 C2103 1.419 . S
C2105 C2106 1.362 . S
C2106 H2098 0.930 . S
C2106 C2105 1.362 . S
C2106 C2109 1.409 . S
C2107 H2099 0.930 . S
C2107 C2108 1.355 . S
C2107 C2109 1.415 . S
C2108 C2107 1.355 . S
C2108 C2110 1.419 . S
C2109 C2104 1.425 . S
C2109 C2106 1.409 . S
C2109 C2107 1.415 . S
C2110 H2100 0.930 . S
C2110 C2108 1.419 . S
C2110 C2111 1.362 . S
C2111 H2101 0.930 . S
C2111 C2104 1.409 . S
C2111 C2110 1.362 . S
H2112 C2118 0.930 . S
H2113 C2121 0.930 . S
H2114 C2122 0.930 . S
H2115 C2123 0.930 . S
H2116 C2126 0.930 . S
H2117 C2127 0.930 . S
C2118 H2112 0.930 . S
C2118 C2119 1.355 . S
C2118 C2120 1.415 . S
C2119 C2118 1.355 . S
C2119 C2121 1.419 . S
C2120 C2118 1.415 . S
C2120 C2125 1.425 . S
C2120 C2127 1.409 . S
C2121 H2113 0.930 . S
C2121 C2119 1.419 . S
C2121 C2122 1.362 . S
C2122 H2114 0.930 . S
C2122 C2121 1.362 . S
C2122 C2125 1.409 . S
C2123 H2115 0.930 . S
C2123 C2124 1.355 . S
C2123 C2125 1.415 . S
C2124 C2123 1.355 . S
C2124 C2126 1.419 . S
C2125 C2120 1.425 . S
C2125 C2122 1.409 . S
C2125 C2123 1.415 . S
C2126 H2116 0.930 . S
C2126 C2124 1.419 . S
C2126 C2127 1.362 . S
C2127 H2117 0.930 . S
C2127 C2120 1.409 . S
C2127 C2126 1.362 . S
H2128 C2134 0.930 . S
H2129 C2137 0.930 . S
H2130 C2138 0.930 . S
H2131 C2139 0.930 . S
H2132 C2142 0.930 . S
H2133 C2143 0.930 . S
C2134 H2128 0.930 . S
C2134 C2135 1.355 . S
C2134 C2136 1.415 . S
C2135 C2134 1.355 . S
C2135 C2137 1.419 . S
C2136 C2134 1.415 . S
C2136 C2141 1.425 . S
C2136 C2143 1.409 . S
C2137 H2129 0.930 . S
C2137 C2135 1.419 . S
C2137 C2138 1.362 . S
C2138 H2130 0.930 . S
C2138 C2137 1.362 . S
C2138 C2141 1.409 . S
C2139 H2131 0.930 . S
C2139 C2140 1.355 . S
C2139 C2141 1.415 . S
C2140 C2139 1.355 . S
C2140 C2142 1.419 . S
C2141 C2136 1.425 . S
C2141 C2138 1.409 . S
C2141 C2139 1.415 . S
C2142 H2132 0.930 . S
C2142 C2140 1.419 . S
C2142 C2143 1.362 . S
C2143 H2133 0.930 . S
C2143 C2136 1.409 . S
C2143 C2142 1.362 . S
H2144 C2150 0.930 . S
H2145 C2153 0.930 . S
H2146 C2154 0.930 . S
H2147 C2155 0.930 . S
H2148 C2158 0.930 . S
H2149 C2159 0.930 . S
C2150 H2144 0.930 . S
C2150 C2151 1.355 . S
C2150 C2152 1.415 . S
C2151 C2150 1.355 . S
C2151 C2153 1.419 . S
C2152 C2150 1.415 . S
C2152 C2157 1.425 . S
C2152 C2159 1.409 . S
C2153 H2145 0.930 . S
C2153 C2151 1.419 . S
C2153 C2154 1.362 . S
C2154 H2146 0.930 . S
C2154 C2153 1.362 . S
C2154 C2157 1.409 . S
C2155 H2147 0.930 . S
C2155 C2156 1.355 . S
C2155 C2157 1.415 . S
C2156 C2155 1.355 . S
C2156 C2158 1.419 . S
C2157 C2152 1.425 . S
C2157 C2154 1.409 . S
C2157 C2155 1.415 . S
C2158 H2148 0.930 . S
C2158 C2156 1.419 . S
C2158 C2159 1.362 . S
C2159 H2149 0.930 . S
C2159 C2152 1.409 . S
C2159 C2158 1.362 . S
H2160 C2166 0.930 . S
H2161 C2169 0.930 . S
H2162 C2170 0.930 . S
H2163 C2171 0.930 . S
H2164 C2174 0.930 . S
H2165 C2175 0.930 . S
C2166 H2160 0.930 . S
C2166 C2167 1.355 . S
C2166 C2168 1.415 . S
C2167 C2166 1.355 . S
C2167 C2169 1.419 . S
C2168 C2166 1.415 . S
C2168 C2173 1.425 . S
C2168 C2175 1.409 . S
C2169 H2161 0.930 . S
C2169 C2167 1.419 . S
C2169 C2170 1.362 . S
C2170 H2162 0.930 . S
C2170 C2169 1.362 . S
C2170 C2173 1.409 . S
C2171 H2163 0.930 . S
C2171 C2172 1.355 . S
C2171 C2173 1.415 . S
C2172 C2171 1.355 . S
C2172 C2174 1.419 . S
C2173 C2168 1.425 . S
C2173 C2170 1.409 . S
C2173 C2171 1.415 . S
C2174 H2164 0.930 . S
C2174 C2172 1.419 . S
C2174 C2175 1.362 . S
C2175 H2165 0.930 . S
C2175 C2168 1.409 . S
C2175 C2174 1.362 . S
H2176 C2182 0.930 . S
H2177 C2185 0.930 . S
H2178 C2186 0.930 . S
H2179 C2187 0.930 . S
H2180 C2190 0.930 . S
H2181 C2191 0.930 . S
C2182 H2176 0.930 . S
C2182 C2183 1.355 . S
C2182 C2184 1.415 . S
C2183 C2182 1.355 . S
C2183 C2185 1.419 . S
C2184 C2182 1.415 . S
C2184 C2189 1.425 . S
C2184 C2191 1.409 . S
C2185 H2177 0.930 . S
C2185 C2183 1.419 . S
C2185 C2186 1.362 . S
C2186 H2178 0.930 . S
C2186 C2185 1.362 . S
C2186 C2189 1.409 . S
C2187 H2179 0.930 . S
C2187 C2188 1.355 . S
C2187 C2189 1.415 . S
C2188 C2187 1.355 . S
C2188 C2190 1.419 . S
C2189 C2184 1.425 . S
C2189 C2186 1.409 . S
C2189 C2187 1.415 . S
C2190 H2180 0.930 . S
C2190 C2188 1.419 . S
C2190 C2191 1.362 . S
C2191 H2181 0.930 . S
C2191 C2184 1.409 . S
C2191 C2190 1.362 . S
H2192 C2198 0.930 . S
H2193 C2201 0.930 . S
H2194 C2202 0.930 . S
H2195 C2203 0.930 . S
H2196 C2206 0.930 . S
H2197 C2207 0.930 . S
C2198 H2192 0.930 . S
C2198 C2199 1.355 . S
C2198 C2200 1.415 . S
C2199 C2198 1.355 . S
C2199 C2201 1.419 . S
C2200 C2198 1.415 . S
C2200 C2205 1.425 . S
C2200 C2207 1.409 . S
C2201 H2193 0.930 . S
C2201 C2199 1.419 . S
C2201 C2202 1.362 . S
C2202 H2194 0.930 . S
C2202 C2201 1.362 . S
C2202 C2205 1.409 . S
C2203 H2195 0.930 . S
C2203 C2204 1.355 . S
C2203 C2205 1.415 . S
C2204 C2203 1.355 . S
C2204 C2206 1.419 . S
C2205 C2200 1.425 . S
C2205 C2202 1.409 . S
C2205 C2203 1.415 . S
C2206 H2196 0.930 . S
C2206 C2204 1.419 . S
C2206 C2207 1.362 . S
C2207 H2197 0.930 . S
C2207 C2200 1.409 . S
C2207 C2206 1.362 . S
H2208 C2214 0.930 . S
H2209 C2217 0.930 . S
H2210 C2218 0.930 . S
H2211 C2219 0.930 . S
H2212 C2222 0.930 . S
H2213 C2223 0.930 . S
C2214 H2208 0.930 . S
C2214 C2215 1.355 . S
C2214 C2216 1.415 1_455 S
C2215 C2214 1.355 . S
C2215 C2217 1.419 . S
C2216 C2214 1.415 1_655 S
C2216 C2221 1.425 1_655 S
C2216 C2223 1.409 . S
C2217 H2209 0.930 . S
C2217 C2215 1.419 . S
C2217 C2218 1.362 . S
C2218 H2210 0.930 . S
C2218 C2217 1.362 . S
C2218 C2221 1.409 . S
C2219 H2211 0.930 . S
C2219 C2220 1.355 . S
C2219 C2221 1.415 1_655 S
C2220 C2219 1.355 . S
C2220 C2222 1.419 . S
C2221 C2216 1.425 1_455 S
C2221 C2218 1.409 . S
C2221 C2219 1.415 1_455 S
C2222 H2212 0.930 . S
C2222 C2220 1.419 . S
C2222 C2223 1.362 . S
C2223 H2213 0.930 . S
C2223 C2216 1.409 . S
C2223 C2222 1.362 . S
H2224 C2230 0.930 . S
H2225 C2233 0.930 . S
H2226 C2234 0.930 . S
H2227 C2235 0.930 . S
H2228 C2238 0.930 . S
H2229 C2239 0.930 . S
C2230 H2224 0.930 . S
C2230 C2231 1.355 . S
C2230 C2232 1.415 . S
C2231 C2230 1.355 . S
C2231 C2233 1.419 . S
C2232 C2230 1.415 . S
C2232 C2237 1.425 . S
C2232 C2239 1.409 . S
C2233 H2225 0.930 . S
C2233 C2231 1.419 . S
C2233 C2234 1.362 . S
C2234 H2226 0.930 . S
C2234 C2233 1.362 . S
C2234 C2237 1.409 . S
C2235 H2227 0.930 . S
C2235 C2236 1.355 . S
C2235 C2237 1.415 . S
C2236 C2235 1.355 . S
C2236 C2238 1.419 . S
C2237 C2232 1.425 . S
C2237 C2234 1.409 . S
C2237 C2235 1.415 . S
C2238 H2228 0.930 . S
C2238 C2236 1.419 . S
C2238 C2239 1.362 . S
C2239 H2229 0.930 . S
C2239 C2232 1.409 . S
C2239 C2238 1.362 . S
H2240 C2246 0.930 . S
H2241 C2249 0.930 . S
H2242 C2250 0.930 . S
H2243 C2251 0.930 . S
H2244 C2254 0.930 . S
H2245 C2255 0.930 . S
C2246 H2240 0.930 . S
C2246 C2247 1.355 . S
C2246 C2248 1.415 . S
C2247 C2246 1.355 . S
C2247 C2249 1.419 . S
C2248 C2246 1.415 . S
C2248 C2253 1.425 1_545 S
C2248 C2255 1.409 . S
C2249 H2241 0.930 . S
C2249 C2247 1.419 . S
C2249 C2250 1.362 1_545 S
C2250 H2242 0.930 . S
C2250 C2249 1.362 1_565 S
C2250 C2253 1.409 . S
C2251 H2243 0.930 . S
C2251 C2252 1.355 . S
C2251 C2253 1.415 . S
C2252 C2251 1.355 . S
C2252 C2254 1.419 . S
C2253 C2248 1.425 1_565 S
C2253 C2250 1.409 . S
C2253 C2251 1.415 . S
C2254 H2244 0.930 . S
C2254 C2252 1.419 . S
C2254 C2255 1.362 1_565 S
C2255 H2245 0.930 . S
C2255 C2248 1.409 . S
C2255 C2254 1.362 1_545 S
H2256 C2262 0.930 . S
H2257 C2265 0.930 . S
H2258 C2266 0.930 . S
H2259 C2267 0.930 . S
H2260 C2270 0.930 . S
H2261 C2271 0.930 . S
C2262 H2256 0.930 . S
C2262 C2263 1.355 . S
C2262 C2264 1.408 1_554 S
C2263 C2262 1.355 . S
C2263 C2265 1.419 . S
C2264 C2262 1.408 1_556 S
C2264 C2269 1.425 1_546 S
C2264 C2271 1.416 . S
C2265 H2257 0.930 . S
C2265 C2263 1.419 . S
C2265 C2266 1.362 1_545 S
C2266 H2258 0.930 . S
C2266 C2265 1.362 1_565 S
C2266 C2269 1.416 . S
C2267 H2259 0.930 . S
C2267 C2268 1.355 . S
C2267 C2269 1.408 1_556 S
C2268 C2267 1.355 . S
C2268 C2270 1.419 . S
C2269 C2264 1.425 1_564 S
C2269 C2266 1.416 . S
C2269 C2267 1.408 1_554 S
C2270 H2260 0.930 . S
C2270 C2268 1.419 . S
C2270 C2271 1.362 1_565 S
C2271 H2261 0.930 . S
C2271 C2264 1.416 . S
C2271 C2270 1.362 1_545 S
H2272 C2278 0.930 . S
H2273 C2281 0.930 . S
H2274 C2282 0.930 . S
H2275 C2283 0.930 . S
H2276 C2286 0.930 . S
H2277 C2287 0.930 . S
C2278 H2272 0.930 . S
C2278 C2279 1.355 . S
C2278 C2280 1.415 1_556 S
C2279 C2278 1.355 . S
C2279 C2281 1.419 . S
C2280 C2278 1.415 1_554 S
C2280 C2285 1.425 1_454 S
C2280 C2287 1.409 . S
C2281 H2273 0.930 . S
C2281 C2279 1.419 . S
C2281 C2282 1.362 1_455 S
C2282 H2274 0.930 . S
C2282 C2281 1.362 1_655 S
C2282 C2285 1.409 . S
C2283 H2275 0.930 . S
C2283 C2284 1.355 . S
C2283 C2285 1.415 1_554 S
C2284 C2283 1.355 . S
C2284 C2286 1.419 . S
C2285 C2280 1.425 1_656 S
C2285 C2282 1.409 . S
C2285 C2283 1.415 1_556 S
C2286 H2276 0.930 . S
C2286 C2284 1.419 . S
C2286 C2287 1.362 1_655 S
C2287 H2277 0.930 . S
C2287 C2280 1.409 . S
C2287 C2286 1.362 1_455 S
H2288 C2294 0.930 . S
H2289 C2297 0.930 . S
H2290 C2298 0.930 . S
H2291 C2299 0.930 . S
H2292 C2302 0.930 . S
H2293 C2303 0.930 . S
C2294 H2288 0.930 . S
C2294 C2295 1.355 . S
C2294 C2296 1.415 1_554 S
C2295 C2294 1.355 . S
C2295 C2297 1.419 . S
C2296 C2294 1.415 1_556 S
C2296 C2301 1.425 1_556 S
C2296 C2303 1.409 . S
C2297 H2289 0.930 . S
C2297 C2295 1.419 . S
C2297 C2298 1.362 . S
C2298 H2290 0.930 . S
C2298 C2297 1.362 . S
C2298 C2301 1.409 . S
C2299 H2291 0.930 . S
C2299 C2300 1.355 . S
C2299 C2301 1.415 1_556 S
C2300 C2299 1.355 . S
C2300 C2302 1.419 . S
C2301 C2296 1.425 1_554 S
C2301 C2298 1.409 . S
C2301 C2299 1.415 1_554 S
C2302 H2292 0.930 . S
C2302 C2300 1.419 . S
C2302 C2303 1.362 . S
C2303 H2293 0.930 . S
C2303 C2296 1.409 . S
C2303 C2302 1.362 . S
C1447 C21 1.736 . S
C1452 C1181 1.708 . S
C1463 C61 1.682 . S
C1468 C1101 1.716 . S
C1479 C101 1.700 . S
C1484 C1141 1.672 . S
C1495 C141 1.707 . S
C1500 C541 1.736 . S
C1511 C581 1.719 . S
C1516 C181 1.740 . S
C1527 C221 1.740 . S
C1532 C501 1.728 . S
C1543 C261 1.796 . S
C1548 C941 1.796 . S
C1559 C301 1.780 . S
C1564 C861 1.780 . S
C1575 C341 1.798 . S
C1580 C901 1.798 . S
C1591 C1261 1.782 . S
C1596 C381 1.783 . S
C1607 C421 1.797 . S
C1612 C1301 1.797 . S
C1623 C461 1.789 . S
C1628 C1221 1.789 . S
C1639 C621 1.739 . S
C1644 C1021 1.714 . S
C1655 C661 1.681 . S
C1660 C1061 1.715 . S
C1671 C701 1.693 . S
C1676 C981 1.670 . S
C1687 C1421 1.792 . S
C1692 C741 1.792 . S
C1703 C781 1.777 . S
C1708 C1341 1.777 . S
C1719 C1381 1.797 . S
C1724 C821 1.797 . S
C1735 C2 1.648 . S
C1740 C162 1.680 . S
C1751 C202 1.675 . S
C1756 C42 1.661 . S
C1767 C122 1.666 . S
C1772 C82 1.630 . S
C1783 C402 1.695 . S
C1788 C242 1.686 . S
C1799 C282 1.699 . S
C1804 C442 1.696 . S
C1815 C362 1.682 . S
C1820 C322 1.691 . S
C1831 C482 1.667 . S
C1836 C642 1.630 . S
C1847 C522 1.682 . S
C1852 C682 1.645 . S
C1863 C602 1.639 . S
C1868 C562 1.647 . S
C1879 C722 1.684 . S
C1884 C882 1.693 . S
C1895 C762 1.680 . S
C1900 C922 1.685 . S
C1911 C842 1.691 . S
C1916 C802 1.698 . S
C1927 C962 1.679 . S
C1932 C1122 1.653 . S
C1943 C1002 1.661 . S
C1948 C1162 1.632 . S
C1959 C1042 1.679 . S
C1964 C1082 1.634 . S
C1975 C1362 1.691 . S
C1980 C1202 1.698 . S
C1991 C1242 1.691 . S
C1996 C1402 1.698 . S
C2007 C1322 1.692 . S
C2012 C1282 1.698 . S
C2023 C1215 1.878 . S
C2028 C15 1.866 . S
C2039 C1255 1.923 . S
C2044 C55 1.915 . S
C2055 C1295 1.895 . S
C2060 C95 1.884 . S
C2071 C135 1.906 . S
C2076 C855 1.915 . S
C2087 C895 1.902 . S
C2092 C175 1.892 . S
C2103 C215 1.915 . S
C2108 C935 1.923 . S
C2119 C495 1.878 . S
C2124 C255 1.889 . S
C2135 C535 1.872 . S
C2140 C295 1.884 . S
C2151 C575 1.862 . S
C2156 C335 1.874 . S
C2167 C1095 1.915 . S
C2172 C375 1.923 . S
C2183 C415 1.904 . S
C2188 C1135 1.895 . S
C2199 C455 1.871 . S
C2204 C1175 1.859 . S
C2215 C1335 1.882 . S
C2220 C615 1.871 . S
C2231 C1375 1.906 . S
C2236 C655 1.896 . S
C2247 C695 1.860 . S
C2252 C1415 1.872 . S
C2263 C735 1.874 . S
C2268 C975 1.862 . S
C2279 C1015 1.870 . S
C2284 C775 1.882 . S
C2295 C815 1.896 . S
C2300 C1055 1.886 . S
