# Generated by pormake.
# Topology wjh, (4)-cn, num edge types: 1
# Building blocks:
#     Node 0, Type 0, BuildingBlock: TATPOV_clean_sbu_0, # of connection points: 4
#     Node 1, Type 0, BuildingBlock: TATPOV_clean_sbu_0, # of connection points: 4
#     Node 2, Type 0, BuildingBlock: TATPOV_clean_sbu_0, # of connection points: 4
#     Node 3, Type 0, BuildingBlock: TATPOV_clean_sbu_0, # of connection points: 4
#     Node 4, Type 0, BuildingBlock: TATPOV_clean_sbu_0, # of connection points: 4
#     Node 5, Type 0, BuildingBlock: TATPOV_clean_sbu_0, # of connection points: 4
#     Node 6, Type 0, BuildingBlock: TATPOV_clean_sbu_0, # of connection points: 4
#     Node 7, Type 0, BuildingBlock: TATPOV_clean_sbu_0, # of connection points: 4
#     Node 8, Type 0, BuildingBlock: TATPOV_clean_sbu_0, # of connection points: 4
#     Node 9, Type 0, BuildingBlock: TATPOV_clean_sbu_0, # of connection points: 4
#     Node 10, Type 0, BuildingBlock: TATPOV_clean_sbu_0, # of connection points: 4
#     Node 11, Type 0, BuildingBlock: TATPOV_clean_sbu_0, # of connection points: 4
#     Edge 12, Type (0, 0), BuildingBlock: KIFKEQ_clean_linker_1, # of connection points: 2
#     Edge 13, Type (0, 0), BuildingBlock: KIFKEQ_clean_linker_1, # of connection points: 2
#     Edge 14, Type (0, 0), BuildingBlock: KIFKEQ_clean_linker_1, # of connection points: 2
#     Edge 15, Type (0, 0), BuildingBlock: KIFKEQ_clean_linker_1, # of connection points: 2
#     Edge 16, Type (0, 0), BuildingBlock: KIFKEQ_clean_linker_1, # of connection points: 2
#     Edge 17, Type (0, 0), BuildingBlock: KIFKEQ_clean_linker_1, # of connection points: 2
#     Edge 18, Type (0, 0), BuildingBlock: KIFKEQ_clean_linker_1, # of connection points: 2
#     Edge 19, Type (0, 0), BuildingBlock: KIFKEQ_clean_linker_1, # of connection points: 2
#     Edge 20, Type (0, 0), BuildingBlock: KIFKEQ_clean_linker_1, # of connection points: 2
#     Edge 21, Type (0, 0), BuildingBlock: KIFKEQ_clean_linker_1, # of connection points: 2
#     Edge 22, Type (0, 0), BuildingBlock: KIFKEQ_clean_linker_1, # of connection points: 2
#     Edge 23, Type (0, 0), BuildingBlock: KIFKEQ_clean_linker_1, # of connection points: 2
#     Edge 24, Type (0, 0), BuildingBlock: KIFKEQ_clean_linker_1, # of connection points: 2
#     Edge 25, Type (0, 0), BuildingBlock: KIFKEQ_clean_linker_1, # of connection points: 2
#     Edge 26, Type (0, 0), BuildingBlock: KIFKEQ_clean_linker_1, # of connection points: 2
#     Edge 27, Type (0, 0), BuildingBlock: KIFKEQ_clean_linker_1, # of connection points: 2
#     Edge 28, Type (0, 0), BuildingBlock: KIFKEQ_clean_linker_1, # of connection points: 2
#     Edge 29, Type (0, 0), BuildingBlock: KIFKEQ_clean_linker_1, # of connection points: 2
#     Edge 30, Type (0, 0), BuildingBlock: KIFKEQ_clean_linker_1, # of connection points: 2
#     Edge 31, Type (0, 0), BuildingBlock: KIFKEQ_clean_linker_1, # of connection points: 2
#     Edge 32, Type (0, 0), BuildingBlock: KIFKEQ_clean_linker_1, # of connection points: 2
#     Edge 33, Type (0, 0), BuildingBlock: KIFKEQ_clean_linker_1, # of connection points: 2
#     Edge 34, Type (0, 0), BuildingBlock: KIFKEQ_clean_linker_1, # of connection points: 2
#     Edge 35, Type (0, 0), BuildingBlock: KIFKEQ_clean_linker_1, # of connection points: 2
# Relax obj value: 0.160
# Max RMSD: 0.152
# Mean RMSD: 0.152
data_MOF--net-wjh--node1-TATPOV_clean_sbu_0--edge1-KIFKEQ_clean_linker_1
_symmetry_space_group_name_H-M    P1
_symmetry_Int_Tables_number       1
_symmetry_cell_setting            triclinic
loop_
_symmetry_equiv_pos_as_xyz
'x, y, z'
_cell_length_a     62.800491
_cell_length_b     62.941018
_cell_length_c     25.085623
_cell_angle_alpha  90.058246
_cell_angle_beta   89.704534
_cell_angle_gamma 120.04601
loop_
_atom_site_label
_atom_site_type_symbol
_atom_site_fract_x
_atom_site_fract_y
_atom_site_fract_z
_atom_type_partial_charge
Zn0 Zn 0.46249 0.13548 0.07873 0.0
Zn1 Zn 0.49006 0.13522 1.00469 0.0
O2 O 0.49684 0.1715 1.01175 0.0
O3 O 0.46811 0.1687 0.0665 0.0
O4 O 0.50712 0.13391 0.93596 0.0
O5 O 0.43101 0.10631 0.05939 0.0
O6 O 0.45533 0.10346 1.00016 0.0
C7 C 0.48661 0.18164 0.03734 0.0
C8 C 0.50308 0.1292 0.11482 0.0
O9 O 0.50809 0.12984 0.06536 0.0
O10 O 0.48505 0.13148 0.13003 0.0
C11 C 0.52899 0.14982 0.9225 0.0
O12 O 0.54174 0.16871 0.95391 0.0
C13 C 0.43433 0.09435 0.02313 0.0
Zn14 Zn 0.2947 0.37527 0.30823 0.0
Zn15 Zn 0.31546 0.41498 0.24825 0.0
O16 O 0.27766 0.40045 0.24391 0.0
O17 O 0.26053 0.3649 0.28552 0.0
O18 O 0.33079 0.44088 0.18885 0.0
O19 O 0.31358 0.35989 0.28068 0.0
O20 O 0.33301 0.39482 0.237 0.0
C21 C 0.25843 0.38119 0.26059 0.0
C22 C 0.32034 0.42211 0.3661 0.0
O23 O 0.32549 0.43219 0.32011 0.0
O24 O 0.30822 0.39892 0.37053 0.0
C25 C 0.32372 0.45576 0.17438 0.0
O26 O 0.3053 0.45558 0.19989 0.0
C27 C 0.33109 0.37439 0.25069 0.0
Zn28 Zn 0.83767 0.36383 0.49778 0.0
Zn29 Zn 0.83023 0.37695 0.4081 0.0
O30 O 0.80633 0.33884 0.40811 0.0
O31 O 0.82116 0.32892 0.47708 0.0
O32 O 0.82767 0.39001 0.33506 0.0
O33 O 0.87413 0.38346 0.49452 0.0
O34 O 0.86742 0.38756 0.41032 0.0
C35 C 0.80677 0.32255 0.43779 0.0
C36 C 0.81441 0.39118 0.51144 0.0
O37 O 0.81994 0.3953 0.46205 0.0
O38 O 0.81833 0.37609 0.53647 0.0
C39 C 0.81182 0.39616 0.32277 0.0
O40 O 0.79476 0.39279 0.35776 0.0
C41 C 0.88228 0.39028 0.4478 0.0
Zn42 Zn 0.5028 0.84544 0.65498 0.0
Zn43 Zn 0.4721 0.84074 0.57869 0.0
O44 O 0.46717 0.80562 0.59076 0.0
O45 O 0.49649 0.81145 0.64684 0.0
O46 O 0.45045 0.83808 0.51539 0.0
O47 O 0.53168 0.87407 0.62218 0.0
O48 O 0.50621 0.87059 0.55844 0.0
C49 C 0.47828 0.79714 0.61857 0.0
C50 C 0.46312 0.85261 0.69047 0.0
O51 O 0.45709 0.84951 0.64145 0.0
O52 O 0.48157 0.85131 0.70616 0.0
C53 C 0.45739 0.83829 0.46749 0.0
O54 O 0.47847 0.83915 0.45897 0.0
C55 C 0.52759 0.88189 0.5793 0.0
Zn56 Zn 0.66618 0.58939 0.78783 0.0
Zn57 Zn 0.65001 0.55131 0.72428 0.0
O58 O 0.68796 0.56693 0.7313 0.0
O59 O 0.70174 0.6021 0.77308 0.0
O60 O 0.63947 0.52534 0.66564 0.0
O61 O 0.64669 0.60303 0.75496 0.0
O62 O 0.6322 0.57037 0.70389 0.0
C63 C 0.70582 0.5864 0.75105 0.0
C64 C 0.63782 0.54172 0.84026 0.0
O65 O 0.63493 0.53292 0.79332 0.0
O66 O 0.65051 0.56468 0.84782 0.0
C67 C 0.64445 0.53223 0.61721 0.0
O68 O 0.65694 0.55587 0.60683 0.0
C69 C 0.63196 0.58959 0.71922 0.0
Zn70 Zn 0.13296 0.61762 0.98429 0.0
Zn71 Zn 0.13941 0.60261 0.89614 0.0
O72 O 0.16693 0.63972 0.89949 0.0
O73 O 0.15258 0.65263 0.96455 0.0
O74 O 0.14339 0.58915 0.8247 0.0
O75 O 0.09665 0.60077 0.97977 0.0
O76 O 0.10283 0.5948 0.89616 0.0
C77 C 0.16805 0.65716 0.92776 0.0
C78 C 0.15116 0.58577 0.99983 0.0
O79 O 0.14579 0.58186 0.95052 0.0
O80 O 0.14933 0.60238 0.02411 0.0
C81 C 0.13101 0.58799 0.78362 0.0
O82 O 0.11624 0.5971 0.78619 0.0
C83 C 0.08834 0.59368 0.93344 0.0
Zn84 Zn 0.87683 0.55876 0.82105 0.0
Zn85 Zn 0.85906 0.52797 0.8988 0.0
O86 O 0.84178 0.54905 0.89999 0.0
O87 O 0.86427 0.58024 0.84691 0.0
O88 O 0.84965 0.50792 0.96785 0.0
O89 O 0.9118 0.56805 0.82994 0.0
O90 O 0.89723 0.5438 0.89974 0.0
C91 C 0.84615 0.56924 0.87828 0.0
C92 C 0.84312 0.5086 0.78866 0.0
O93 O 0.84388 0.50346 0.83753 0.0
O94 O 0.85482 0.53067 0.77276 0.0
C95 C 0.82904 0.48917 0.97963 0.0
O96 O 0.81076 0.48154 0.94578 0.0
C97 C 0.91539 0.55828 0.87025 0.0
Zn98 Zn 0.31275 0.87019 1.00698 0.0
Zn99 Zn 0.34009 0.86713 0.07892 0.0
O100 O 0.30768 0.83323 0.07149 0.0
O101 O 0.28196 0.8394 0.02395 0.0
O102 O 0.35701 0.86394 0.14549 0.0
O103 O 0.31715 0.90248 0.02725 0.0
O104 O 0.34255 0.90144 0.08577 0.0
C105 C 0.28655 0.8251 0.05029 0.0
C106 C 0.35648 0.86944 0.96747 0.0
O107 O 0.36163 0.86955 0.01652 0.0
O108 O 0.33681 0.86897 0.95391 0.0
C109 C 0.36376 0.84796 0.14823 0.0
O110 O 0.35959 0.83332 0.10737 0.0
C111 C 0.33311 0.91295 0.06308 0.0
Zn112 Zn 0.51759 0.37188 0.14298 0.0
Zn113 Zn 0.5397 0.38746 0.22402 0.0
O114 O 0.54456 0.35743 0.2054 0.0
O115 O 0.5363 0.35583 0.12007 0.0
O116 O 0.55647 0.4023 0.29525 0.0
O117 O 0.48401 0.35224 0.17395 0.0
O118 O 0.50331 0.37832 0.23846 0.0
C119 C 0.54431 0.34908 0.15869 0.0
C120 C 0.54783 0.42092 0.12987 0.0
O121 O 0.55715 0.41654 0.17053 0.0
O122 O 0.52723 0.40449 0.11277 0.0
C123 C 0.5791 0.41872 0.29831 0.0
O124 O 0.5927 0.42486 0.25488 0.0
C125 C 0.48322 0.36265 0.21635 0.0
Zn126 Zn 0.08772 0.41572 0.31298 0.0
Zn127 Zn 0.10849 0.44805 0.38936 0.0
O128 O 0.12459 0.426 0.39048 0.0
O129 O 0.10147 0.39509 0.33752 0.0
O130 O 0.1211 0.47066 0.4543 0.0
O131 O 0.05358 0.40756 0.33098 0.0
O132 O 0.07078 0.43332 0.39737 0.0
C133 C 0.11965 0.40569 0.3685 0.0
C134 C 0.12071 0.46498 0.27528 0.0
O135 O 0.12201 0.4706 0.32444 0.0
O136 O 0.10789 0.44284 0.26057 0.0
C137 C 0.11928 0.48994 0.4535 0.0
O138 O 0.11074 0.49481 0.41033 0.0
C139 C 0.05161 0.41843 0.37145 0.0
Zn140 Zn 0.64692 0.10154 0.42432 0.0
Zn141 Zn 0.62305 0.10785 0.50379 0.0
O142 O 0.65772 0.13922 0.50066 0.0
O143 O 0.67889 0.13078 0.44276 0.0
O144 O 0.60648 0.11204 0.57037 0.0
O145 O 0.63818 0.06784 0.44578 0.0
O146 O 0.61926 0.07323 0.51412 0.0
C147 C 0.67773 0.14548 0.47543 0.0
C148 C 0.60669 0.10812 0.39092 0.0
O149 O 0.60258 0.10818 0.44075 0.0
O150 O 0.62471 0.10615 0.37448 0.0
C151 C 0.60763 0.13224 0.58263 0.0
O152 O 0.61989 0.15132 0.5512 0.0
C153 C 0.62542 0.05973 0.48777 0.0
Zn154 Zn 0.431 0.58696 0.64049 0.0
Zn155 Zn 0.42207 0.57634 0.74061 0.0
O156 O 0.42133 0.60945 0.73286 0.0
O157 O 0.42846 0.61658 0.64665 0.0
O158 O 0.4129 0.56477 0.81834 0.0
O159 O 0.46337 0.58856 0.64369 0.0
O160 O 0.45724 0.58106 0.7298 0.0
C161 C 0.42395 0.62252 0.69156 0.0
C162 C 0.38897 0.5419 0.65027 0.0
O163 O 0.39469 0.54607 0.69942 0.0
O164 O 0.4019 0.55737 0.61509 0.0
C165 C 0.39053 0.55505 0.83354 0.0
O166 O 0.37426 0.5544 0.79987 0.0
C167 C 0.47076 0.58553 0.68829 0.0
H168 H 0.50574 0.1396 0.22058 0.0
H169 H 0.53411 0.11107 0.10007 0.0
H170 H 0.53045 0.13428 0.28766 0.0
H171 H 0.55805 0.10464 0.16769 0.0
H172 H 0.56007 0.1005 0.40479 0.0
H173 H 0.53423 0.10441 0.33756 0.0
H174 H 0.59292 0.12713 0.22158 0.0
H175 H 0.61808 0.12216 0.28771 0.0
C176 C 0.51711 0.13196 0.20855 0.0
C177 C 0.51809 0.12581 0.15509 0.0
C178 C 0.53113 0.12873 0.24711 0.0
C179 C 0.5462 0.11897 0.23317 0.0
C180 C 0.54697 0.1126 0.17966 0.0
C181 C 0.5332 0.11618 0.14091 0.0
C182 C 0.56734 0.10628 0.36486 0.0
C183 C 0.59099 0.11089 0.3514 0.0
C184 C 0.55263 0.10863 0.32639 0.0
C185 C 0.56148 0.11599 0.27405 0.0
C186 C 0.58528 0.12087 0.26105 0.0
C187 C 0.59978 0.11819 0.29915 0.0
H188 H 0.34 0.47175 0.37323 0.0
H189 H 0.31556 0.40653 0.46946 0.0
H190 H 0.34941 0.49629 0.45386 0.0
H191 H 0.32482 0.43121 0.55027 0.0
H192 H 0.38453 0.49698 0.65964 0.0
H193 H 0.36297 0.46399 0.59487 0.0
H194 H 0.32776 0.50224 0.53053 0.0
H195 H 0.34979 0.53533 0.59436 0.0
C196 C 0.33663 0.46264 0.41155 0.0
C197 C 0.3271 0.43722 0.41488 0.0
C198 C 0.3417 0.47664 0.45777 0.0
C199 C 0.33742 0.46555 0.50836 0.0
C200 C 0.32817 0.44018 0.51181 0.0
C201 C 0.32293 0.42612 0.46551 0.0
C202 C 0.37114 0.49757 0.63355 0.0
C203 C 0.36873 0.51852 0.63157 0.0
C204 C 0.35896 0.47884 0.59617 0.0
C205 C 0.34429 0.481 0.55675 0.0
C206 C 0.33944 0.50046 0.55969 0.0
C207 C 0.35172 0.51917 0.59665 0.0
H208 H 0.82626 0.51324 0.6923 0.0
H209 H 0.82951 0.46012 0.79573 0.0
H210 H 0.8094 0.48289 0.62136 0.0
H211 H 0.81361 0.43003 0.72429 0.0
H212 H 0.78417 0.37693 0.59761 0.0
H213 H 0.78217 0.40393 0.66461 0.0
H214 H 0.82782 0.46656 0.56435 0.0
H215 H 0.82876 0.43935 0.49665 0.0
C216 C 0.82315 0.49496 0.69998 0.0
C217 C 0.82961 0.48912 0.74915 0.0
C218 C 0.81353 0.4776 0.6593 0.0
C219 C 0.81046 0.45412 0.66671 0.0
C220 C 0.81543 0.44783 0.71721 0.0
C221 C 0.82475 0.46513 0.75817 0.0
C222 C 0.79298 0.39642 0.58924 0.0
C223 C 0.80696 0.4062 0.54254 0.0
C224 C 0.79203 0.41189 0.62776 0.0
C225 C 0.80545 0.43746 0.62064 0.0
C226 C 0.81722 0.44696 0.57127 0.0
C227 C 0.81781 0.43139 0.53231 0.0
H228 H 0.46269 0.84676 0.79767 0.0
H229 H 0.43023 0.86827 0.67256 0.0
H230 H 0.4376 0.85244 0.86342 0.0
H231 H 0.40578 0.87516 0.73897 0.0
H232 H 0.34528 0.85535 0.86409 0.0
H233 H 0.37177 0.8529 0.7964 0.0
H234 H 0.4319 0.8819 0.90866 0.0
H235 H 0.40492 0.88315 0.97714 0.0
C236 C 0.4504 0.85306 0.78431 0.0
C237 C 0.44835 0.85703 0.72997 0.0
C238 C 0.43613 0.85652 0.82213 0.0
C239 C 0.41973 0.86439 0.80661 0.0
C240 C 0.41797 0.86873 0.75222 0.0
C241 C 0.43202 0.86491 0.71418 0.0
C242 C 0.3642 0.86129 0.87419 0.0
C243 C 0.37302 0.86927 0.92595 0.0
C244 C 0.37945 0.86006 0.83526 0.0
C245 C 0.40397 0.86714 0.84705 0.0
C246 C 0.41297 0.87582 0.89851 0.0
C247 C 0.39758 0.87666 0.93771 0.0
H248 H 0.52955 0.43844 0.0553 0.0
H249 H 0.59749 0.45372 0.13094 0.0
H250 H 0.55264 0.46953 0.98826 0.0
H251 H 0.6207 0.48518 0.06322 0.0
H252 H 0.64763 0.55287 0.94575 0.0
H253 H 0.62668 0.52635 0.02223 0.0
H254 H 0.5806 0.46741 0.91531 0.0
H255 H 0.60148 0.49372 0.83885 0.0
C256 C 0.54943 0.44876 0.05817 0.0
C257 C 0.56178 0.44337 0.09776 0.0
C258 C 0.5626 0.46645 0.01963 0.0
C259 C 0.58836 0.47922 0.02006 0.0
C260 C 0.60078 0.47539 0.06208 0.0
C261 C 0.58754 0.4575 0.1008 0.0
C262 C 0.63307 0.53422 0.93858 0.0
C263 C 0.62604 0.52538 0.8863 0.0
C264 C 0.62121 0.5191 0.98233 0.0
C265 C 0.60194 0.49505 0.97443 0.0
C266 C 0.59522 0.48607 0.92228 0.0
C267 C 0.60725 0.50105 0.87859 0.0
H268 H 0.13362 0.45941 0.17472 0.0
H269 H 0.13609 0.51372 0.28388 0.0
H270 H 0.14977 0.48992 0.10368 0.0
H271 H 0.1511 0.54393 0.21258 0.0
H272 H 0.18085 0.59771 0.08596 0.0
H273 H 0.18156 0.56933 0.1509 0.0
H274 H 0.13247 0.50831 0.05111 0.0
H275 H 0.13296 0.53686 0.98519 0.0
C276 C 0.13777 0.47795 0.18354 0.0
C277 C 0.13325 0.48416 0.23451 0.0
C278 C 0.14697 0.49541 0.14282 0.0
C279 C 0.15148 0.51932 0.15207 0.0
C280 C 0.14821 0.52581 0.204 0.0
C281 C 0.13938 0.50844 0.24491 0.0
C282 C 0.17087 0.57823 0.07734 0.0
C283 C 0.15653 0.56934 0.03118 0.0
C284 C 0.1711 0.56197 0.11466 0.0
C285 C 0.15653 0.53651 0.10703 0.0
C286 C 0.14401 0.52778 0.05836 0.0
C287 C 0.1442 0.54412 0.0205 0.0
H288 H 0.5654 0.34106 0.0723 0.0
H289 H 0.52889 0.30862 0.2212 0.0
H290 H 0.55537 0.30061 0.03899 0.0
H291 H 0.5187 0.26811 0.1877 0.0
H292 H 0.46581 0.20765 0.0736 0.0
H293 H 0.48703 0.24917 0.10855 0.0
H294 H 0.55638 0.25866 0.0528 0.0
H295 H 0.53507 0.21641 0.01833 0.0
C296 C 0.55627 0.3254 0.09882 0.0
C297 C 0.54774 0.32788 0.14917 0.0
C298 C 0.55044 0.30227 0.07961 0.0
C299 C 0.53577 0.28128 0.11031 0.0
C300 C 0.52976 0.28408 0.16303 0.0
C301 C 0.53588 0.30728 0.18252 0.0
C302 C 0.48554 0.21863 0.06786 0.0
C303 C 0.49877 0.20861 0.04359 0.0
C304 C 0.49772 0.2423 0.0886 0.0
C305 C 0.5234 0.25673 0.08505 0.0
C306 C 0.53657 0.24765 0.05685 0.0
C307 C 0.52434 0.22365 0.03649 0.0
H308 H 0.214 0.34357 0.29459 0.0
H309 H 0.24963 0.41871 0.23912 0.0
H310 H 0.17955 0.34735 0.32791 0.0
H311 H 0.21496 0.42228 0.27177 0.0
H312 H 0.16846 0.43257 0.39356 0.0
H313 H 0.20057 0.42439 0.3629 0.0
H314 H 0.14523 0.35355 0.30421 0.0
H315 H 0.11311 0.36149 0.33561 0.0
C316 C 0.21418 0.36067 0.28805 0.0
C317 C 0.23476 0.38094 0.26472 0.0
C318 C 0.19446 0.36286 0.30748 0.0
C319 C 0.19492 0.38534 0.30396 0.0
C320 C 0.21448 0.40494 0.27658 0.0
C321 C 0.23415 0.40274 0.25696 0.0
C322 C 0.1631 0.41491 0.37581 0.0
C323 C 0.13822 0.39779 0.36655 0.0
C324 C 0.18151 0.41041 0.3573 0.0
C325 C 0.17541 0.38865 0.32961 0.0
C326 C 0.15053 0.37058 0.32493 0.0
C327 C 0.13213 0.3751 0.34321 0.0
H328 H 0.67685 0.1864 0.50946 0.0
H329 H 0.72456 0.16264 0.43996 0.0
H330 H 0.70843 0.22917 0.49371 0.0
H331 H 0.75577 0.20515 0.42363 0.0
H332 H 0.75896 0.30056 0.40378 0.0
H333 H 0.72781 0.25705 0.41446 0.0
H334 H 0.78367 0.24217 0.47273 0.0
H335 H 0.8145 0.28518 0.46157 0.0
C336 C 0.69422 0.1903 0.49182 0.0
C337 C 0.69823 0.17114 0.47609 0.0
C338 C 0.71211 0.21475 0.48193 0.0
C339 C 0.73439 0.22047 0.45662 0.0
C340 C 0.73879 0.20134 0.44317 0.0
C341 C 0.72092 0.17697 0.45273 0.0
C342 C 0.76459 0.28779 0.41734 0.0
C343 C 0.78908 0.29615 0.43179 0.0
C344 C 0.74675 0.26302 0.42431 0.0
C345 C 0.75328 0.2463 0.44518 0.0
C346 C 0.77806 0.25454 0.45648 0.0
C347 C 0.79573 0.27918 0.45 0.0
H348 H 0.43126 0.75996 0.59912 0.0
H349 H 0.50184 0.77411 0.65702 0.0
H350 H 0.41296 0.71708 0.62691 0.0
H351 H 0.48382 0.73143 0.6836 0.0
H352 H 0.44584 0.6597 0.76455 0.0
H353 H 0.45627 0.70232 0.74921 0.0
H354 H 0.41332 0.68023 0.60469 0.0
H355 H 0.40257 0.638 0.62094 0.0
C356 C 0.44296 0.75381 0.61667 0.0
C357 C 0.468 0.77042 0.6257 0.0
C358 C 0.43245 0.7293 0.63309 0.0
C359 C 0.44681 0.72091 0.65863 0.0
C360 C 0.47203 0.73739 0.66571 0.0
C361 C 0.48246 0.7618 0.64958 0.0
C362 C 0.43783 0.66391 0.73093 0.0
C363 C 0.42355 0.6457 0.69379 0.0
C364 C 0.44411 0.68832 0.72151 0.0
C365 C 0.43613 0.69478 0.67491 0.0
C366 C 0.41981 0.67603 0.64088 0.0
C367 C 0.41363 0.65178 0.65022 0.0
H368 H 0.7176 0.55047 0.73556 0.0
H369 H 0.74762 0.62484 0.79258 0.0
H370 H 0.7521 0.54872 0.77474 0.0
H371 H 0.78195 0.62289 0.83229 0.0
H372 H 0.85121 0.61302 0.84666 0.0
H373 H 0.81845 0.61924 0.81279 0.0
H374 H 0.76441 0.54694 0.86802 0.0
H375 H 0.79719 0.54052 0.90129 0.0
C376 C 0.73182 0.56666 0.75531 0.0
C377 C 0.72969 0.58773 0.76123 0.0
C378 C 0.75137 0.56549 0.77862 0.0
C379 C 0.76933 0.58541 0.808 0.0
C380 C 0.76828 0.60716 0.81036 0.0
C381 C 0.74865 0.6083 0.78727 0.0
C382 C 0.8323 0.59873 0.85313 0.0
C383 C 0.82684 0.57614 0.87608 0.0
C384 C 0.81353 0.60227 0.83342 0.0
C385 C 0.78892 0.58328 0.83624 0.0
C386 C 0.7833 0.56163 0.86388 0.0
C387 C 0.80207 0.55813 0.88387 0.0
H388 H 0.21307 0.66957 0.96344 0.0
H389 H 0.1704 0.69967 0.89868 0.0
H390 H 0.24268 0.70964 0.99889 0.0
H391 H 0.20081 0.74032 0.93032 0.0
H392 H 0.2366 0.80062 0.04798 0.0
H393 H 0.21011 0.75977 1.01198 0.0
H394 H 0.27335 0.75025 0.99253 0.0
H395 H 0.29933 0.79044 0.03212 0.0
C396 C 0.21087 0.68517 0.95418 0.0
C397 C 0.18977 0.68176 0.92772 0.0
C398 C 0.2277 0.70817 0.97499 0.0
C399 C 0.22387 0.72825 0.96898 0.0
C400 C 0.20393 0.72515 0.93767 0.0
C401 C 0.18682 0.70204 0.91812 0.0
C402 C 0.24458 0.78936 0.03769 0.0
C403 C 0.26991 0.79855 0.04325 0.0
C404 C 0.22956 0.76616 0.0158 0.0
C405 C 0.23963 0.75187 0.99743 0.0
C406 C 0.26481 0.76056 1.0061 0.0
C407 C 0.27974 0.78357 0.02928 0.0
H408 H 0.60858 0.17327 0.62202 0.0
H409 H 0.57929 0.09622 0.65529 0.0
H410 H 0.58921 0.17721 0.70291 0.0
H411 H 0.56014 0.10026 0.73681 0.0
H412 H 0.50887 0.11186 0.85053 0.0
H413 H 0.52736 0.10741 0.76843 0.0
H414 H 0.593 0.17678 0.799 0.0
H415 H 0.57445 0.1814 0.88051 0.0
C416 C 0.59804 0.15715 0.6466 0.0
C417 C 0.59556 0.13443 0.63201 0.0
C418 C 0.58703 0.15945 0.69328 0.0
C419 C 0.57314 0.13908 0.72668 0.0
C420 C 0.57048 0.11629 0.71185 0.0
C421 C 0.58159 0.11401 0.6652 0.0
C422 C 0.52724 0.12619 0.83972 0.0
C423 C 0.54012 0.14702 0.87226 0.0
C424 C 0.53791 0.12356 0.79274 0.0
C425 C 0.56171 0.14173 0.77689 0.0
C426 C 0.57454 0.16256 0.80945 0.0
C427 C 0.56392 0.16514 0.85648 0.0
H428 H 0.34428 0.53353 0.87638 0.0
H429 H 0.41782 0.54848 0.91089 0.0
H430 H 0.3296 0.51106 0.95971 0.0
H431 H 0.40312 0.52626 0.9954 0.0
H432 H 0.36076 0.45945 0.1091 0.0
H433 H 0.37797 0.48488 0.02957 0.0
H434 H 0.33054 0.51537 0.0545 0.0
H435 H 0.313 0.48961 0.13319 0.0
C436 C 0.35744 0.53227 0.90202 0.0
C437 C 0.38228 0.54286 0.88665 0.0
C438 C 0.34899 0.51945 0.95019 0.0
C439 C 0.36511 0.51677 0.98466 0.0
C440 C 0.39008 0.52766 0.96969 0.0
C441 C 0.39857 0.54058 0.92136 0.0
C442 C 0.35407 0.47166 0.09778 0.0
C443 C 0.33533 0.4723 0.12756 0.0
C444 C 0.36408 0.4864 0.05224 0.0
C445 C 0.35562 0.50218 0.03515 0.0
C446 C 0.33726 0.50318 0.06572 0.0
C447 C 0.32727 0.48846 0.11118 0.0
H448 H 0.8644 0.49688 0.05305 0.0
H449 H 0.78697 0.45027 0.0207 0.0
H450 H 0.85978 0.47387 0.13464 0.0
H451 H 0.78243 0.42713 0.10219 0.0
H452 H 0.77975 0.40947 0.28205 0.0
H453 H 0.78365 0.43169 0.19957 0.0
H454 H 0.8517 0.43322 0.1635 0.0
H455 H 0.84795 0.41118 0.24623 0.0
C456 C 0.84637 0.48174 0.0633 0.0
C457 C 0.82606 0.47548 0.03014 0.0
C458 C 0.84376 0.46841 0.10998 0.0
C459 C 0.82075 0.44855 0.12502 0.0
C460 C 0.80038 0.44244 0.09214 0.0
C461 C 0.80302 0.45566 0.04523 0.0
C462 C 0.7955 0.41442 0.25646 0.0
C463 C 0.81355 0.40852 0.27098 0.0
C464 C 0.79768 0.4271 0.20897 0.0
C465 C 0.81804 0.43436 0.17486 0.0
C466 C 0.83594 0.42822 0.18911 0.0
C467 C 0.83369 0.4154 0.23643 0.0
H468 H 0.4154 0.84173 0.46956 0.0
H469 H 0.46598 0.83598 0.36129 0.0
H470 H 0.39208 0.84358 0.39363 0.0
H471 H 0.44292 0.8381 0.28577 0.0
H472 H 0.38227 0.81729 0.16361 0.0
H473 H 0.40365 0.81416 0.24123 0.0
H474 H 0.39589 0.87103 0.31963 0.0
H475 H 0.37414 0.874 0.24194 0.0
C476 C 0.42153 0.8408 0.42964 0.0
C477 C 0.44258 0.83866 0.42167 0.0
C478 C 0.40825 0.84204 0.38607 0.0
C479 C 0.41558 0.84098 0.33345 0.0
C480 C 0.43652 0.83865 0.32564 0.0
C481 C 0.44984 0.83755 0.36908 0.0
C482 C 0.38504 0.82913 0.19737 0.0
C483 C 0.3765 0.84596 0.1963 0.0
C484 C 0.39745 0.82741 0.24187 0.0
C485 C 0.40163 0.8424 0.28674 0.0
C486 C 0.39281 0.85903 0.28603 0.0
C487 C 0.38046 0.86083 0.24131 0.0
H488 H 0.61498 0.48189 0.62211 0.0
H489 H 0.65388 0.54168 0.51092 0.0
H490 H 0.59991 0.45285 0.54771 0.0
H491 H 0.63862 0.51291 0.43708 0.0
H492 H 0.62644 0.4549 0.31697 0.0
H493 H 0.64279 0.48064 0.39563 0.0
H494 H 0.57161 0.4408 0.47211 0.0
H495 H 0.55528 0.41466 0.39346 0.0
C496 C 0.62038 0.48885 0.5819 0.0
C497 C 0.63569 0.51417 0.57265 0.0
C498 C 0.61162 0.47221 0.53919 0.0
C499 C 0.61808 0.48046 0.48623 0.0
C500 C 0.63355 0.50576 0.47724 0.0
C501 C 0.6422 0.52234 0.51974 0.0
C502 C 0.61427 0.45141 0.35068 0.0
C503 C 0.58946 0.43274 0.34856 0.0
C504 C 0.62364 0.46633 0.39579 0.0
C505 C 0.60849 0.46306 0.44017 0.0
C506 C 0.58389 0.44379 0.43889 0.0
C507 C 0.57448 0.42883 0.39364 0.0
H508 H 0.12282 0.53483 0.45899 0.0
H509 H 0.1279 0.48103 0.55642 0.0
H510 H 0.12819 0.55963 0.5375 0.0
H511 H 0.13261 0.50564 0.63575 0.0
H512 H 0.15845 0.56567 0.76419 0.0
H513 H 0.15824 0.54325 0.68428 0.0
H514 H 0.10446 0.558 0.61304 0.0
H515 H 0.10515 0.58077 0.69179 0.0
C516 C 0.12513 0.52828 0.49723 0.0
C517 C 0.12473 0.50581 0.50134 0.0
C518 C 0.12806 0.54247 0.54246 0.0
C519 C 0.13049 0.53455 0.59333 0.0
C520 C 0.13095 0.51245 0.59728 0.0
C521 C 0.12816 0.49827 0.55179 0.0
C522 C 0.14674 0.56428 0.73125 0.0
C523 C 0.13187 0.57513 0.73449 0.0
C524 C 0.14649 0.55126 0.68554 0.0
C525 C 0.13139 0.5488 0.64191 0.0
C526 C 0.11668 0.55983 0.64524 0.0
C527 C 0.11696 0.57282 0.69074 0.0
H528 H 0.44156 0.05799 0.98376 0.0
H529 H 0.38596 0.07101 0.05294 0.0
H530 H 0.415 0.01401 0.99848 0.0
H531 H 0.35943 0.02698 0.06752 0.0
H532 H 0.31363 0.94156 0.03496 0.0
H533 H 0.33637 0.98587 0.02016 0.0
H534 H 0.40156 -0.0105 0.08552 0.0
H535 H 0.37891 0.94522 0.10043 0.0
C536 C 0.42341 0.05145 1.0006 0.0
C537 C 0.41594 0.06801 0.01751 0.0
C538 C 0.40837 0.0263 1.00983 0.0
C539 C 0.38546 0.01722 0.03543 0.0
C540 C 0.37709 0.03352 0.04815 0.0
C541 C 0.39224 0.0587 0.03951 0.0
C542 C 0.33264 0.95191 0.04753 0.0
C543 C 0.34452 0.93986 0.06859 0.0
C544 C 0.34566 0.97724 0.03876 0.0
C545 C 0.37085 -0.00905 0.0504 0.0
C546 C 0.38227 0.97921 0.07501 0.0
C547 C 0.36919 0.95393 0.08438 0.0
H548 H 0.47561 0.39439 0.27661 0.0
H549 H 0.43726 0.32578 0.191 0.0
H550 H 0.43728 0.39529 0.28429 0.0
H551 H 0.39899 0.32673 0.19887 0.0
H552 H 0.33192 0.33184 0.26733 0.0
H553 H 0.36798 0.32666 0.26561 0.0
H554 H 0.41267 0.40131 0.21049 0.0
H555 H 0.37679 0.40658 0.21191 0.0
C556 C 0.4589 0.37917 0.26077 0.0
C557 C 0.45947 0.36013 0.2328 0.0
C558 C 0.43705 0.37985 0.26458 0.0
C559 C 0.41536 0.36133 0.24117 0.0
C560 C 0.41548 0.34128 0.21704 0.0
C561 C 0.43738 0.34075 0.21264 0.0
C562 C 0.34935 0.34701 0.25393 0.0
C563 C 0.3515 0.36966 0.23994 0.0
C564 C 0.36997 0.34405 0.25319 0.0
C565 C 0.39314 0.36376 0.23905 0.0
C566 C 0.39509 0.386 0.22272 0.0
C567 C 0.37446 0.38888 0.22284 0.0
H568 H 0.0076 0.38773 0.32478 0.0
H569 H 0.0406 0.44231 0.44885 0.0
H570 H 0.968 0.38438 0.34272 0.0
H571 H 0.00078 0.43914 0.46629 0.0
H572 H 0.91854 0.40077 0.51994 0.0
H573 H 0.96018 0.40933 0.5021 0.0
H574 H 0.94742 0.40855 0.33287 0.0
H575 H 0.90541 0.39948 0.35063 0.0
C576 C 0.00642 0.39901 0.35599 0.0
C577 C 0.02728 0.41527 0.38547 0.0
C578 C -0.01626 0.39727 0.36584 0.0
C579 C 0.98133 0.41172 0.40541 0.0
C580 C 0.00207 0.42771 0.4356 0.0
C581 C 0.02485 0.42949 0.42568 0.0
C582 C 0.92467 0.40272 0.47887 0.0
C583 C 0.90855 0.39914 0.43663 0.0
C584 C 0.94861 0.40777 0.46872 0.0
C585 C 0.95698 0.40932 0.41611 0.0
C586 C 0.94131 0.40701 0.37386 0.0
C587 C 0.91732 0.402 0.38402 0.0
H588 H 0.52709 0.90477 0.48655 0.0
H589 H 0.57021 0.91475 0.62804 0.0
H590 H 0.55423 0.94804 0.46357 0.0
H591 H 0.59673 0.95786 0.60542 0.0
H592 H 0.6045 0.03683 0.58245 0.0
H593 H 0.58403 -0.00728 0.60126 0.0
H594 H 0.60203 0.97954 0.44299 0.0
H595 H 0.62292 0.02346 0.42433 0.0
C596 C 0.54258 0.916 0.51211 0.0
C597 C 0.54636 0.90633 0.55926 0.0
C598 C 0.55805 0.94072 0.499 0.0
C599 C 0.57727 0.95619 0.53325 0.0
C600 C 0.58183 0.94629 0.57881 0.0
C601 C 0.5667 0.92155 0.59142 0.0
C602 C 0.60443 0.02456 0.55204 0.0
C603 C 0.61533 0.03363 0.50201 0.0
C604 C 0.59278 -0.00061 0.56279 0.0
C605 C 0.59146 0.98289 0.52337 0.0
C606 C 0.60276 -0.00805 0.47383 0.0
C607 C 0.61481 0.0171 0.46343 0.0
H608 H 0.62106 0.62347 0.7591 0.0
H609 H 0.59544 0.56348 0.64694 0.0
H610 H 0.58245 0.62344 0.75003 0.0
H611 H 0.55683 0.56362 0.63792 0.0
H612 H 0.49873 0.58582 0.60483 0.0
H613 H 0.53912 0.58945 0.60704 0.0
H614 H 0.5387 0.59283 0.77892 0.0
H615 H 0.49801 0.58922 0.77693 0.0
C616 C 0.60745 0.61063 0.73158 0.0
C617 C 0.61131 0.59333 0.70401 0.0
C618 C 0.58522 0.61046 0.72694 0.0
C619 C 0.5665 0.59324 0.69409 0.0
C620 C 0.57095 0.57708 0.66366 0.0
C621 C 0.59311 0.57706 0.66869 0.0
C622 C 0.50719 0.58736 0.64323 0.0
C623 C 0.49513 0.58725 0.69081 0.0
C624 C 0.53031 0.58935 0.64437 0.0
C625 C 0.54208 0.59152 0.69305 0.0
C626 C 0.53013 0.59148 0.74074 0.0
C627 C 0.50679 0.58922 0.73966 0.0
H628 H 0.05294 0.58527 1.00684 0.0
H629 H 0.06441 0.58325 0.83725 0.0
H630 H 0.01086 0.57529 0.99118 0.0
H631 H 0.02179 0.5727 0.82163 0.0
H632 H 0.95754 0.58832 0.81525 0.0
H633 H -0.00158 0.59421 0.82921 0.0
H634 H 0.97082 0.54317 0.96115 0.0
H635 H 0.92982 0.53754 0.94783 0.0
C636 C 0.0464 0.58243 0.96613 0.0
C637 C 0.06213 0.58528 0.92319 0.0
C638 C 0.02216 0.57651 0.95725 0.0
C639 C 0.01301 0.5733 0.9052 0.0
C640 C 0.02845 0.57539 0.86221 0.0
C641 C 0.05279 0.58127 0.87112 0.0
C642 C 0.96014 0.57838 0.8474 0.0
C643 C 0.9404 0.56254 0.88063 0.0
C644 C -0.01644 0.58157 0.85499 0.0
C645 C -0.01217 0.56903 0.896 0.0
C646 C 0.96814 0.55324 0.92941 0.0
C647 C 0.94466 0.55002 0.92181 0.0
loop_
_geom_bond_atom_site_label_1
_geom_bond_atom_site_label_2
_geom_bond_distance
_geom_bond_site_symmetry_2
_ccdc_geom_bond_type
Zn0 O3 2.031 . S
Zn0 O5 2.049 . S
Zn0 O10 2.067 . S
Zn1 O2 1.962 . S
Zn1 O4 1.986 1_554 S
Zn1 O6 1.996 . S
Zn1 O9 1.943 . S
O2 Zn1 1.962 . S
O2 C7 1.254 . S
O3 Zn0 2.031 . S
O3 C7 1.269 . S
O4 Zn1 1.986 1_556 S
O4 C11 1.262 . S
O5 Zn0 2.049 . S
O5 C13 1.260 . S
O6 Zn1 1.996 . S
O6 C13 1.257 . S
C7 O2 1.254 . S
C7 O3 1.269 . S
C8 O9 1.249 . S
C8 O10 1.270 . S
O9 Zn1 1.943 . S
O9 C8 1.249 . S
O10 Zn0 2.067 . S
O10 C8 1.270 . S
C11 O4 1.262 . S
C11 O12 1.232 . S
O12 C11 1.232 . S
C13 O5 1.260 . S
C13 O6 1.257 . S
Zn14 O17 2.031 . S
Zn14 O19 2.049 . S
Zn14 O24 2.067 . S
Zn15 O16 1.962 . S
Zn15 O18 1.986 . S
Zn15 O20 1.996 . S
Zn15 O23 1.943 . S
O16 Zn15 1.962 . S
O16 C21 1.254 . S
O17 Zn14 2.031 . S
O17 C21 1.269 . S
O18 Zn15 1.986 . S
O18 C25 1.262 . S
O19 Zn14 2.049 . S
O19 C27 1.260 . S
O20 Zn15 1.996 . S
O20 C27 1.257 . S
C21 O16 1.254 . S
C21 O17 1.269 . S
C22 O23 1.249 . S
C22 O24 1.270 . S
O23 Zn15 1.943 . S
O23 C22 1.249 . S
O24 Zn14 2.067 . S
O24 C22 1.270 . S
C25 O18 1.262 . S
C25 O26 1.232 . S
O26 C25 1.232 . S
C27 O19 1.260 . S
C27 O20 1.257 . S
Zn28 O31 2.031 . S
Zn28 O33 2.049 . S
Zn28 O38 2.067 . S
Zn29 O30 1.962 . S
Zn29 O32 1.986 . S
Zn29 O34 1.996 . S
Zn29 O37 1.943 . S
O30 Zn29 1.962 . S
O30 C35 1.254 . S
O31 Zn28 2.031 . S
O31 C35 1.269 . S
O32 Zn29 1.986 . S
O32 C39 1.262 . S
O33 Zn28 2.049 . S
O33 C41 1.260 . S
O34 Zn29 1.996 . S
O34 C41 1.257 . S
C35 O30 1.254 . S
C35 O31 1.269 . S
C36 O37 1.249 . S
C36 O38 1.270 . S
O37 Zn29 1.943 . S
O37 C36 1.249 . S
O38 Zn28 2.067 . S
O38 C36 1.270 . S
C39 O32 1.262 . S
C39 O40 1.232 . S
O40 C39 1.232 . S
C41 O33 1.260 . S
C41 O34 1.257 . S
Zn42 O45 2.031 . S
Zn42 O47 2.049 . S
Zn42 O52 2.067 . S
Zn43 O44 1.962 . S
Zn43 O46 1.986 . S
Zn43 O48 1.996 . S
Zn43 O51 1.943 . S
O44 Zn43 1.962 . S
O44 C49 1.254 . S
O45 Zn42 2.031 . S
O45 C49 1.269 . S
O46 Zn43 1.986 . S
O46 C53 1.262 . S
O47 Zn42 2.049 . S
O47 C55 1.260 . S
O48 Zn43 1.996 . S
O48 C55 1.257 . S
C49 O44 1.254 . S
C49 O45 1.269 . S
C50 O51 1.249 . S
C50 O52 1.270 . S
O51 Zn43 1.943 . S
O51 C50 1.249 . S
O52 Zn42 2.067 . S
O52 C50 1.270 . S
C53 O46 1.262 . S
C53 O54 1.232 . S
O54 C53 1.232 . S
C55 O47 1.260 . S
C55 O48 1.257 . S
Zn56 O59 2.031 . S
Zn56 O61 2.049 . S
Zn56 O66 2.067 . S
Zn57 O58 1.962 . S
Zn57 O60 1.986 . S
Zn57 O62 1.996 . S
Zn57 O65 1.943 . S
O58 Zn57 1.962 . S
O58 C63 1.254 . S
O59 Zn56 2.031 . S
O59 C63 1.269 . S
O60 Zn57 1.986 . S
O60 C67 1.262 . S
O61 Zn56 2.049 . S
O61 C69 1.260 . S
O62 Zn57 1.996 . S
O62 C69 1.257 . S
C63 O58 1.254 . S
C63 O59 1.269 . S
C64 O65 1.249 . S
C64 O66 1.270 . S
O65 Zn57 1.943 . S
O65 C64 1.249 . S
O66 Zn56 2.067 . S
O66 C64 1.270 . S
C67 O60 1.262 . S
C67 O68 1.232 . S
O68 C67 1.232 . S
C69 O61 1.260 . S
C69 O62 1.257 . S
Zn70 O73 2.031 . S
Zn70 O75 2.049 . S
Zn70 O80 2.067 . S
Zn71 O72 1.962 . S
Zn71 O74 1.986 . S
Zn71 O76 1.996 . S
Zn71 O79 1.943 . S
O72 Zn71 1.962 . S
O72 C77 1.254 . S
O73 Zn70 2.031 . S
O73 C77 1.269 . S
O74 Zn71 1.986 . S
O74 C81 1.262 . S
O75 Zn70 2.049 . S
O75 C83 1.260 . S
O76 Zn71 1.996 . S
O76 C83 1.257 . S
C77 O72 1.254 . S
C77 O73 1.269 . S
C78 O79 1.249 . S
C78 O80 1.270 . S
O79 Zn71 1.943 . S
O79 C78 1.249 . S
O80 Zn70 2.067 . S
O80 C78 1.270 . S
C81 O74 1.262 . S
C81 O82 1.232 . S
O82 C81 1.232 . S
C83 O75 1.260 . S
C83 O76 1.257 . S
Zn84 O87 2.031 . S
Zn84 O89 2.049 . S
Zn84 O94 2.067 . S
Zn85 O86 1.962 . S
Zn85 O88 1.986 . S
Zn85 O90 1.996 . S
Zn85 O93 1.943 . S
O86 Zn85 1.962 . S
O86 C91 1.254 . S
O87 Zn84 2.031 . S
O87 C91 1.269 . S
O88 Zn85 1.986 . S
O88 C95 1.262 . S
O89 Zn84 2.049 . S
O89 C97 1.260 . S
O90 Zn85 1.996 . S
O90 C97 1.257 . S
C91 O86 1.254 . S
C91 O87 1.269 . S
C92 O93 1.249 . S
C92 O94 1.270 . S
O93 Zn85 1.943 . S
O93 C92 1.249 . S
O94 Zn84 2.067 . S
O94 C92 1.270 . S
C95 O88 1.262 . S
C95 O96 1.232 . S
O96 C95 1.232 . S
C97 O89 1.260 . S
C97 O90 1.257 . S
Zn98 O101 2.031 . S
Zn98 O103 2.049 . S
Zn98 O108 2.067 . S
Zn99 O100 1.962 . S
Zn99 O102 1.986 . S
Zn99 O104 1.996 . S
Zn99 O107 1.943 1_554 S
O100 Zn99 1.962 . S
O100 C105 1.254 . S
O101 Zn98 2.031 . S
O101 C105 1.269 1_556 S
O102 Zn99 1.986 . S
O102 C109 1.262 . S
O103 Zn98 2.049 . S
O103 C111 1.260 1_556 S
O104 Zn99 1.996 . S
O104 C111 1.257 . S
C105 O100 1.254 . S
C105 O101 1.269 1_554 S
C106 O107 1.249 . S
C106 O108 1.270 . S
O107 Zn99 1.943 1_556 S
O107 C106 1.249 . S
O108 Zn98 2.067 . S
O108 C106 1.270 . S
C109 O102 1.262 . S
C109 O110 1.232 . S
O110 C109 1.232 . S
C111 O103 1.260 1_554 S
C111 O104 1.257 . S
Zn112 O115 2.031 . S
Zn112 O117 2.049 . S
Zn112 O122 2.067 . S
Zn113 O114 1.962 . S
Zn113 O116 1.986 . S
Zn113 O118 1.996 . S
Zn113 O121 1.943 . S
O114 Zn113 1.962 . S
O114 C119 1.254 . S
O115 Zn112 2.031 . S
O115 C119 1.269 . S
O116 Zn113 1.986 . S
O116 C123 1.262 . S
O117 Zn112 2.049 . S
O117 C125 1.260 . S
O118 Zn113 1.996 . S
O118 C125 1.257 . S
C119 O114 1.254 . S
C119 O115 1.269 . S
C120 O121 1.249 . S
C120 O122 1.270 . S
O121 Zn113 1.943 . S
O121 C120 1.249 . S
O122 Zn112 2.067 . S
O122 C120 1.270 . S
C123 O116 1.262 . S
C123 O124 1.232 . S
O124 C123 1.232 . S
C125 O117 1.260 . S
C125 O118 1.257 . S
Zn126 O129 2.031 . S
Zn126 O131 2.049 . S
Zn126 O136 2.067 . S
Zn127 O128 1.962 . S
Zn127 O130 1.986 . S
Zn127 O132 1.996 . S
Zn127 O135 1.943 . S
O128 Zn127 1.962 . S
O128 C133 1.254 . S
O129 Zn126 2.031 . S
O129 C133 1.269 . S
O130 Zn127 1.986 . S
O130 C137 1.262 . S
O131 Zn126 2.049 . S
O131 C139 1.260 . S
O132 Zn127 1.996 . S
O132 C139 1.257 . S
C133 O128 1.254 . S
C133 O129 1.269 . S
C134 O135 1.249 . S
C134 O136 1.270 . S
O135 Zn127 1.943 . S
O135 C134 1.249 . S
O136 Zn126 2.067 . S
O136 C134 1.270 . S
C137 O130 1.262 . S
C137 O138 1.232 . S
O138 C137 1.232 . S
C139 O131 1.260 . S
C139 O132 1.257 . S
Zn140 O143 2.031 . S
Zn140 O145 2.049 . S
Zn140 O150 2.067 . S
Zn141 O142 1.962 . S
Zn141 O144 1.986 . S
Zn141 O146 1.996 . S
Zn141 O149 1.943 . S
O142 Zn141 1.962 . S
O142 C147 1.254 . S
O143 Zn140 2.031 . S
O143 C147 1.269 . S
O144 Zn141 1.986 . S
O144 C151 1.262 . S
O145 Zn140 2.049 . S
O145 C153 1.260 . S
O146 Zn141 1.996 . S
O146 C153 1.257 . S
C147 O142 1.254 . S
C147 O143 1.269 . S
C148 O149 1.249 . S
C148 O150 1.270 . S
O149 Zn141 1.943 . S
O149 C148 1.249 . S
O150 Zn140 2.067 . S
O150 C148 1.270 . S
C151 O144 1.262 . S
C151 O152 1.232 . S
O152 C151 1.232 . S
C153 O145 1.260 . S
C153 O146 1.257 . S
Zn154 O157 2.031 . S
Zn154 O159 2.049 . S
Zn154 O164 2.067 . S
Zn155 O156 1.962 . S
Zn155 O158 1.986 . S
Zn155 O160 1.996 . S
Zn155 O163 1.943 . S
O156 Zn155 1.962 . S
O156 C161 1.254 . S
O157 Zn154 2.031 . S
O157 C161 1.269 . S
O158 Zn155 1.986 . S
O158 C165 1.262 . S
O159 Zn154 2.049 . S
O159 C167 1.260 . S
O160 Zn155 1.996 . S
O160 C167 1.257 . S
C161 O156 1.254 . S
C161 O157 1.269 . S
C162 O163 1.249 . S
C162 O164 1.270 . S
O163 Zn155 1.943 . S
O163 C162 1.249 . S
O164 Zn154 2.067 . S
O164 C162 1.270 . S
C165 O158 1.262 . S
C165 O166 1.232 . S
O166 C165 1.232 . S
C167 O159 1.260 . S
C167 O160 1.257 . S
H168 C176 0.950 . S
H169 C181 0.950 . S
H170 C178 0.950 . S
H171 C180 0.950 . S
H172 C182 0.950 . S
H173 C184 0.950 . S
H174 C186 0.950 . S
H175 C187 0.950 . S
C176 H168 0.950 . S
C176 C177 1.386 . S
C176 C178 1.391 . S
C177 C176 1.386 . S
C177 C181 1.393 . S
C178 H170 0.950 . S
C178 C176 1.391 . S
C178 C179 1.400 . S
C179 C178 1.400 . S
C179 C180 1.398 . S
C179 C185 1.491 . S
C180 H171 0.950 . S
C180 C179 1.398 . S
C180 C181 1.391 . S
C181 H169 0.950 . S
C181 C177 1.393 . S
C181 C180 1.391 . S
C182 H172 0.950 . S
C182 C183 1.386 . S
C182 C184 1.391 . S
C183 C182 1.386 . S
C183 C187 1.393 . S
C184 H173 0.950 . S
C184 C182 1.391 . S
C184 C185 1.400 . S
C185 C179 1.491 . S
C185 C184 1.400 . S
C185 C186 1.398 . S
C186 H174 0.950 . S
C186 C185 1.398 . S
C186 C187 1.391 . S
C187 H175 0.950 . S
C187 C183 1.393 . S
C187 C186 1.391 . S
H188 C196 0.950 . S
H189 C201 0.950 . S
H190 C198 0.950 . S
H191 C200 0.950 . S
H192 C202 0.950 . S
H193 C204 0.950 . S
H194 C206 0.950 . S
H195 C207 0.950 . S
C196 H188 0.950 . S
C196 C197 1.386 . S
C196 C198 1.391 . S
C197 C196 1.386 . S
C197 C201 1.393 . S
C198 H190 0.950 . S
C198 C196 1.391 . S
C198 C199 1.400 . S
C199 C198 1.400 . S
C199 C200 1.398 . S
C199 C205 1.491 . S
C200 H191 0.950 . S
C200 C199 1.398 . S
C200 C201 1.391 . S
C201 H189 0.950 . S
C201 C197 1.393 . S
C201 C200 1.391 . S
C202 H192 0.950 . S
C202 C203 1.386 . S
C202 C204 1.391 . S
C203 C202 1.386 . S
C203 C207 1.393 . S
C204 H193 0.950 . S
C204 C202 1.391 . S
C204 C205 1.400 . S
C205 C199 1.491 . S
C205 C204 1.400 . S
C205 C206 1.398 . S
C206 H194 0.950 . S
C206 C205 1.398 . S
C206 C207 1.391 . S
C207 H195 0.950 . S
C207 C203 1.393 . S
C207 C206 1.391 . S
H208 C216 0.950 . S
H209 C221 0.950 . S
H210 C218 0.950 . S
H211 C220 0.950 . S
H212 C222 0.950 . S
H213 C224 0.950 . S
H214 C226 0.950 . S
H215 C227 0.950 . S
C216 H208 0.950 . S
C216 C217 1.386 . S
C216 C218 1.391 . S
C217 C216 1.386 . S
C217 C221 1.393 . S
C218 H210 0.950 . S
C218 C216 1.391 . S
C218 C219 1.400 . S
C219 C218 1.400 . S
C219 C220 1.398 . S
C219 C225 1.491 . S
C220 H211 0.950 . S
C220 C219 1.398 . S
C220 C221 1.391 . S
C221 H209 0.950 . S
C221 C217 1.393 . S
C221 C220 1.391 . S
C222 H212 0.950 . S
C222 C223 1.386 . S
C222 C224 1.391 . S
C223 C222 1.386 . S
C223 C227 1.393 . S
C224 H213 0.950 . S
C224 C222 1.391 . S
C224 C225 1.400 . S
C225 C219 1.491 . S
C225 C224 1.400 . S
C225 C226 1.398 . S
C226 H214 0.950 . S
C226 C225 1.398 . S
C226 C227 1.391 . S
C227 H215 0.950 . S
C227 C223 1.393 . S
C227 C226 1.391 . S
H228 C236 0.950 . S
H229 C241 0.950 . S
H230 C238 0.950 . S
H231 C240 0.950 . S
H232 C242 0.950 . S
H233 C244 0.950 . S
H234 C246 0.950 . S
H235 C247 0.950 . S
C236 H228 0.950 . S
C236 C237 1.386 . S
C236 C238 1.391 . S
C237 C236 1.386 . S
C237 C241 1.393 . S
C238 H230 0.950 . S
C238 C236 1.391 . S
C238 C239 1.400 . S
C239 C238 1.400 . S
C239 C240 1.398 . S
C239 C245 1.491 . S
C240 H231 0.950 . S
C240 C239 1.398 . S
C240 C241 1.391 . S
C241 H229 0.950 . S
C241 C237 1.393 . S
C241 C240 1.391 . S
C242 H232 0.950 . S
C242 C243 1.386 . S
C242 C244 1.391 . S
C243 C242 1.386 . S
C243 C247 1.393 . S
C244 H233 0.950 . S
C244 C242 1.391 . S
C244 C245 1.400 . S
C245 C239 1.491 . S
C245 C244 1.400 . S
C245 C246 1.398 . S
C246 H234 0.950 . S
C246 C245 1.398 . S
C246 C247 1.391 . S
C247 H235 0.950 . S
C247 C243 1.393 . S
C247 C246 1.391 . S
H248 C256 0.950 . S
H249 C261 0.950 . S
H250 C258 0.950 . S
H251 C260 0.950 . S
H252 C262 0.950 . S
H253 C264 0.950 . S
H254 C266 0.950 . S
H255 C267 0.950 . S
C256 H248 0.950 . S
C256 C257 1.386 . S
C256 C258 1.391 1_554 S
C257 C256 1.386 . S
C257 C261 1.393 . S
C258 H250 0.950 . S
C258 C256 1.391 1_556 S
C258 C259 1.400 . S
C259 C258 1.400 . S
C259 C260 1.398 1_556 S
C259 C265 1.491 . S
C260 H251 0.950 . S
C260 C259 1.398 1_554 S
C260 C261 1.391 . S
C261 H249 0.950 . S
C261 C257 1.393 . S
C261 C260 1.391 . S
C262 H252 0.950 . S
C262 C263 1.386 . S
C262 C264 1.391 . S
C263 C262 1.386 . S
C263 C267 1.393 . S
C264 H253 0.950 . S
C264 C262 1.391 . S
C264 C265 1.400 . S
C265 C259 1.491 . S
C265 C264 1.400 . S
C265 C266 1.398 . S
C266 H254 0.950 . S
C266 C265 1.398 . S
C266 C267 1.391 . S
C267 H255 0.950 . S
C267 C263 1.393 . S
C267 C266 1.391 . S
H268 C276 0.950 . S
H269 C281 0.950 . S
H270 C278 0.950 . S
H271 C280 0.950 . S
H272 C282 0.950 . S
H273 C284 0.950 . S
H274 C286 0.950 . S
H275 C287 0.950 1_556 S
C276 H268 0.950 . S
C276 C277 1.386 . S
C276 C278 1.391 . S
C277 C276 1.386 . S
C277 C281 1.393 . S
C278 H270 0.950 . S
C278 C276 1.391 . S
C278 C279 1.400 . S
C279 C278 1.400 . S
C279 C280 1.398 . S
C279 C285 1.491 . S
C280 H271 0.950 . S
C280 C279 1.398 . S
C280 C281 1.391 . S
C281 H269 0.950 . S
C281 C277 1.393 . S
C281 C280 1.391 . S
C282 H272 0.950 . S
C282 C283 1.386 . S
C282 C284 1.391 . S
C283 C282 1.386 . S
C283 C287 1.393 . S
C284 H273 0.950 . S
C284 C282 1.391 . S
C284 C285 1.400 . S
C285 C279 1.491 . S
C285 C284 1.400 . S
C285 C286 1.398 . S
C286 H274 0.950 . S
C286 C285 1.398 . S
C286 C287 1.391 . S
C287 H275 0.950 1_554 S
C287 C283 1.393 . S
C287 C286 1.391 . S
H288 C296 0.950 . S
H289 C301 0.950 . S
H290 C298 0.950 . S
H291 C300 0.950 . S
H292 C302 0.950 . S
H293 C304 0.950 . S
H294 C306 0.950 . S
H295 C307 0.950 . S
C296 H288 0.950 . S
C296 C297 1.386 . S
C296 C298 1.391 . S
C297 C296 1.386 . S
C297 C301 1.393 . S
C298 H290 0.950 . S
C298 C296 1.391 . S
C298 C299 1.400 . S
C299 C298 1.400 . S
C299 C300 1.398 . S
C299 C305 1.491 . S
C300 H291 0.950 . S
C300 C299 1.398 . S
C300 C301 1.391 . S
C301 H289 0.950 . S
C301 C297 1.393 . S
C301 C300 1.391 . S
C302 H292 0.950 . S
C302 C303 1.386 . S
C302 C304 1.391 . S
C303 C302 1.386 . S
C303 C307 1.393 . S
C304 H293 0.950 . S
C304 C302 1.391 . S
C304 C305 1.400 . S
C305 C299 1.491 . S
C305 C304 1.400 . S
C305 C306 1.398 . S
C306 H294 0.950 . S
C306 C305 1.398 . S
C306 C307 1.391 . S
C307 H295 0.950 . S
C307 C303 1.393 . S
C307 C306 1.391 . S
H308 C316 0.950 . S
H309 C321 0.950 . S
H310 C318 0.950 . S
H311 C320 0.950 . S
H312 C322 0.950 . S
H313 C324 0.950 . S
H314 C326 0.950 . S
H315 C327 0.950 . S
C316 H308 0.950 . S
C316 C317 1.386 . S
C316 C318 1.391 . S
C317 C316 1.386 . S
C317 C321 1.393 . S
C318 H310 0.950 . S
C318 C316 1.391 . S
C318 C319 1.400 . S
C319 C318 1.400 . S
C319 C320 1.398 . S
C319 C325 1.491 . S
C320 H311 0.950 . S
C320 C319 1.398 . S
C320 C321 1.391 . S
C321 H309 0.950 . S
C321 C317 1.393 . S
C321 C320 1.391 . S
C322 H312 0.950 . S
C322 C323 1.386 . S
C322 C324 1.391 . S
C323 C322 1.386 . S
C323 C327 1.393 . S
C324 H313 0.950 . S
C324 C322 1.391 . S
C324 C325 1.400 . S
C325 C319 1.491 . S
C325 C324 1.400 . S
C325 C326 1.398 . S
C326 H314 0.950 . S
C326 C325 1.398 . S
C326 C327 1.391 . S
C327 H315 0.950 . S
C327 C323 1.393 . S
C327 C326 1.391 . S
H328 C336 0.950 . S
H329 C341 0.950 . S
H330 C338 0.950 . S
H331 C340 0.950 . S
H332 C342 0.950 . S
H333 C344 0.950 . S
H334 C346 0.950 . S
H335 C347 0.950 . S
C336 H328 0.950 . S
C336 C337 1.386 . S
C336 C338 1.391 . S
C337 C336 1.386 . S
C337 C341 1.393 . S
C338 H330 0.950 . S
C338 C336 1.391 . S
C338 C339 1.400 . S
C339 C338 1.400 . S
C339 C340 1.398 . S
C339 C345 1.491 . S
C340 H331 0.950 . S
C340 C339 1.398 . S
C340 C341 1.391 . S
C341 H329 0.950 . S
C341 C337 1.393 . S
C341 C340 1.391 . S
C342 H332 0.950 . S
C342 C343 1.386 . S
C342 C344 1.391 . S
C343 C342 1.386 . S
C343 C347 1.393 . S
C344 H333 0.950 . S
C344 C342 1.391 . S
C344 C345 1.400 . S
C345 C339 1.491 . S
C345 C344 1.400 . S
C345 C346 1.398 . S
C346 H334 0.950 . S
C346 C345 1.398 . S
C346 C347 1.391 . S
C347 H335 0.950 . S
C347 C343 1.393 . S
C347 C346 1.391 . S
H348 C356 0.950 . S
H349 C361 0.950 . S
H350 C358 0.950 . S
H351 C360 0.950 . S
H352 C362 0.950 . S
H353 C364 0.950 . S
H354 C366 0.950 . S
H355 C367 0.950 . S
C356 H348 0.950 . S
C356 C357 1.386 . S
C356 C358 1.391 . S
C357 C356 1.386 . S
C357 C361 1.393 . S
C358 H350 0.950 . S
C358 C356 1.391 . S
C358 C359 1.400 . S
C359 C358 1.400 . S
C359 C360 1.398 . S
C359 C365 1.491 . S
C360 H351 0.950 . S
C360 C359 1.398 . S
C360 C361 1.391 . S
C361 H349 0.950 . S
C361 C357 1.393 . S
C361 C360 1.391 . S
C362 H352 0.950 . S
C362 C363 1.386 . S
C362 C364 1.391 . S
C363 C362 1.386 . S
C363 C367 1.393 . S
C364 H353 0.950 . S
C364 C362 1.391 . S
C364 C365 1.400 . S
C365 C359 1.491 . S
C365 C364 1.400 . S
C365 C366 1.398 . S
C366 H354 0.950 . S
C366 C365 1.398 . S
C366 C367 1.391 . S
C367 H355 0.950 . S
C367 C363 1.393 . S
C367 C366 1.391 . S
H368 C376 0.950 . S
H369 C381 0.950 . S
H370 C378 0.950 . S
H371 C380 0.950 . S
H372 C382 0.950 . S
H373 C384 0.950 . S
H374 C386 0.950 . S
H375 C387 0.950 . S
C376 H368 0.950 . S
C376 C377 1.386 . S
C376 C378 1.391 . S
C377 C376 1.386 . S
C377 C381 1.393 . S
C378 H370 0.950 . S
C378 C376 1.391 . S
C378 C379 1.400 . S
C379 C378 1.400 . S
C379 C380 1.398 . S
C379 C385 1.491 . S
C380 H371 0.950 . S
C380 C379 1.398 . S
C380 C381 1.391 . S
C381 H369 0.950 . S
C381 C377 1.393 . S
C381 C380 1.391 . S
C382 H372 0.950 . S
C382 C383 1.386 . S
C382 C384 1.391 . S
C383 C382 1.386 . S
C383 C387 1.393 . S
C384 H373 0.950 . S
C384 C382 1.391 . S
C384 C385 1.400 . S
C385 C379 1.491 . S
C385 C384 1.400 . S
C385 C386 1.398 . S
C386 H374 0.950 . S
C386 C385 1.398 . S
C386 C387 1.391 . S
C387 H375 0.950 . S
C387 C383 1.393 . S
C387 C386 1.391 . S
H388 C396 0.950 . S
H389 C401 0.950 . S
H390 C398 0.950 . S
H391 C400 0.950 . S
H392 C402 0.950 . S
H393 C404 0.950 . S
H394 C406 0.950 . S
H395 C407 0.952 . S
C396 H388 0.950 . S
C396 C397 1.386 . S
C396 C398 1.391 . S
C397 C396 1.386 . S
C397 C401 1.393 . S
C398 H390 0.950 . S
C398 C396 1.391 . S
C398 C399 1.400 . S
C399 C398 1.400 . S
C399 C400 1.398 . S
C399 C405 1.491 . S
C400 H391 0.950 . S
C400 C399 1.398 . S
C400 C401 1.391 . S
C401 H389 0.950 . S
C401 C397 1.393 . S
C401 C400 1.391 . S
C402 H392 0.950 . S
C402 C403 1.386 1_556 S
C402 C404 1.391 . S
C403 C402 1.386 1_554 S
C403 C407 1.393 . S
C404 H393 0.950 . S
C404 C402 1.391 . S
C404 C405 1.400 . S
C405 C399 1.491 . S
C405 C404 1.400 . S
C405 C406 1.398 . S
C406 H394 0.950 . S
C406 C405 1.398 . S
C406 C407 1.388 1_556 S
C407 H395 0.952 . S
C407 C403 1.393 . S
C407 C406 1.388 1_554 S
H408 C416 0.950 . S
H409 C421 0.950 . S
H410 C418 0.950 . S
H411 C420 0.950 . S
H412 C422 0.950 . S
H413 C424 0.950 . S
H414 C426 0.950 . S
H415 C427 0.950 . S
C416 H408 0.950 . S
C416 C417 1.386 . S
C416 C418 1.391 . S
C417 C416 1.386 . S
C417 C421 1.393 . S
C418 H410 0.950 . S
C418 C416 1.391 . S
C418 C419 1.400 . S
C419 C418 1.400 . S
C419 C420 1.398 . S
C419 C425 1.491 . S
C420 H411 0.950 . S
C420 C419 1.398 . S
C420 C421 1.391 . S
C421 H409 0.950 . S
C421 C417 1.393 . S
C421 C420 1.391 . S
C422 H412 0.950 . S
C422 C423 1.386 . S
C422 C424 1.391 . S
C423 C422 1.386 . S
C423 C427 1.393 . S
C424 H413 0.950 . S
C424 C422 1.391 . S
C424 C425 1.400 . S
C425 C419 1.491 . S
C425 C424 1.400 . S
C425 C426 1.398 . S
C426 H414 0.950 . S
C426 C425 1.398 . S
C426 C427 1.391 . S
C427 H415 0.950 . S
C427 C423 1.393 . S
C427 C426 1.391 . S
H428 C436 0.950 . S
H429 C441 0.950 . S
H430 C438 0.950 . S
H431 C440 0.950 . S
H432 C442 0.950 . S
H433 C444 0.950 . S
H434 C446 0.950 . S
H435 C447 0.950 . S
C436 H428 0.950 . S
C436 C437 1.386 . S
C436 C438 1.391 . S
C437 C436 1.386 . S
C437 C441 1.393 . S
C438 H430 0.950 . S
C438 C436 1.391 . S
C438 C439 1.400 . S
C439 C438 1.400 . S
C439 C440 1.398 . S
C439 C445 1.491 . S
C440 H431 0.950 . S
C440 C439 1.398 . S
C440 C441 1.391 . S
C441 H429 0.950 . S
C441 C437 1.393 . S
C441 C440 1.391 . S
C442 H432 0.950 . S
C442 C443 1.386 . S
C442 C444 1.391 . S
C443 C442 1.386 . S
C443 C447 1.393 . S
C444 H433 0.950 . S
C444 C442 1.391 . S
C444 C445 1.400 1_554 S
C445 C439 1.491 . S
C445 C444 1.400 1_556 S
C445 C446 1.398 . S
C446 H434 0.950 . S
C446 C445 1.398 . S
C446 C447 1.391 1_556 S
C447 H435 0.950 . S
C447 C443 1.393 . S
C447 C446 1.391 1_554 S
H448 C456 0.950 . S
H449 C461 0.954 . S
H450 C458 0.950 . S
H451 C460 0.950 . S
H452 C462 0.950 . S
H453 C464 0.950 . S
H454 C466 0.950 . S
H455 C467 0.950 . S
C456 H448 0.950 . S
C456 C457 1.386 . S
C456 C458 1.391 . S
C457 C456 1.386 . S
C457 C461 1.393 . S
C458 H450 0.950 . S
C458 C456 1.391 . S
C458 C459 1.400 . S
C459 C458 1.400 . S
C459 C460 1.398 . S
C459 C465 1.491 . S
C460 H451 0.950 . S
C460 C459 1.398 . S
C460 C461 1.391 . S
C461 H449 0.954 . S
C461 C457 1.393 . S
C461 C460 1.391 . S
C462 H452 0.950 . S
C462 C463 1.386 . S
C462 C464 1.391 . S
C463 C462 1.386 . S
C463 C467 1.393 . S
C464 H453 0.950 . S
C464 C462 1.391 . S
C464 C465 1.400 . S
C465 C459 1.491 . S
C465 C464 1.400 . S
C465 C466 1.398 . S
C466 H454 0.950 . S
C466 C465 1.398 . S
C466 C467 1.391 . S
C467 H455 0.950 . S
C467 C463 1.393 . S
C467 C466 1.391 . S
H468 C476 0.950 . S
H469 C481 0.950 . S
H470 C478 0.950 . S
H471 C480 0.950 . S
H472 C482 0.950 . S
H473 C484 0.950 . S
H474 C486 0.950 . S
H475 C487 0.950 . S
C476 H468 0.950 . S
C476 C477 1.386 . S
C476 C478 1.391 . S
C477 C476 1.386 . S
C477 C481 1.393 . S
C478 H470 0.950 . S
C478 C476 1.391 . S
C478 C479 1.400 . S
C479 C478 1.400 . S
C479 C480 1.398 . S
C479 C485 1.491 . S
C480 H471 0.950 . S
C480 C479 1.398 . S
C480 C481 1.391 . S
C481 H469 0.950 . S
C481 C477 1.393 . S
C481 C480 1.391 . S
C482 H472 0.950 . S
C482 C483 1.386 . S
C482 C484 1.391 . S
C483 C482 1.386 . S
C483 C487 1.393 . S
C484 H473 0.950 . S
C484 C482 1.391 . S
C484 C485 1.400 . S
C485 C479 1.491 . S
C485 C484 1.400 . S
C485 C486 1.398 . S
C486 H474 0.950 . S
C486 C485 1.398 . S
C486 C487 1.391 . S
C487 H475 0.950 . S
C487 C483 1.393 . S
C487 C486 1.391 . S
H488 C496 0.950 . S
H489 C501 0.950 . S
H490 C498 0.950 . S
H491 C500 0.950 . S
H492 C502 0.950 . S
H493 C504 0.950 . S
H494 C506 0.950 . S
H495 C507 0.950 . S
C496 H488 0.950 . S
C496 C497 1.386 . S
C496 C498 1.391 . S
C497 C496 1.386 . S
C497 C501 1.393 . S
C498 H490 0.950 . S
C498 C496 1.391 . S
C498 C499 1.400 . S
C499 C498 1.400 . S
C499 C500 1.398 . S
C499 C505 1.491 . S
C500 H491 0.950 . S
C500 C499 1.398 . S
C500 C501 1.391 . S
C501 H489 0.950 . S
C501 C497 1.393 . S
C501 C500 1.391 . S
C502 H492 0.950 . S
C502 C503 1.386 . S
C502 C504 1.391 . S
C503 C502 1.386 . S
C503 C507 1.393 . S
C504 H493 0.950 . S
C504 C502 1.391 . S
C504 C505 1.400 . S
C505 C499 1.491 . S
C505 C504 1.400 . S
C505 C506 1.398 . S
C506 H494 0.950 . S
C506 C505 1.398 . S
C506 C507 1.391 . S
C507 H495 0.950 . S
C507 C503 1.393 . S
C507 C506 1.391 . S
H508 C516 0.950 . S
H509 C521 0.950 . S
H510 C518 0.950 . S
H511 C520 0.950 . S
H512 C522 0.950 . S
H513 C524 0.950 . S
H514 C526 0.950 . S
H515 C527 0.950 . S
C516 H508 0.950 . S
C516 C517 1.386 . S
C516 C518 1.391 . S
C517 C516 1.386 . S
C517 C521 1.393 . S
C518 H510 0.950 . S
C518 C516 1.391 . S
C518 C519 1.400 . S
C519 C518 1.400 . S
C519 C520 1.398 . S
C519 C525 1.491 . S
C520 H511 0.950 . S
C520 C519 1.398 . S
C520 C521 1.391 . S
C521 H509 0.950 . S
C521 C517 1.393 . S
C521 C520 1.391 . S
C522 H512 0.950 . S
C522 C523 1.386 . S
C522 C524 1.391 . S
C523 C522 1.386 . S
C523 C527 1.393 . S
C524 H513 0.950 . S
C524 C522 1.391 . S
C524 C525 1.400 . S
C525 C519 1.491 . S
C525 C524 1.400 . S
C525 C526 1.398 . S
C526 H514 0.950 . S
C526 C525 1.398 . S
C526 C527 1.391 . S
C527 H515 0.950 . S
C527 C523 1.393 . S
C527 C526 1.391 . S
H528 C536 0.950 . S
H529 C541 0.958 . S
H530 C538 0.950 . S
H531 C540 0.950 . S
H532 C542 0.950 . S
H533 C544 0.950 . S
H534 C546 0.950 . S
H535 C547 0.950 . S
C536 H528 0.950 . S
C536 C537 1.386 . S
C536 C538 1.391 . S
C537 C536 1.386 . S
C537 C541 1.384 1_554 S
C538 H530 0.950 . S
C538 C536 1.391 . S
C538 C539 1.400 . S
C539 C538 1.400 . S
C539 C540 1.398 1_554 S
C539 C545 1.491 1_545 S
C540 H531 0.950 . S
C540 C539 1.398 1_556 S
C540 C541 1.391 . S
C541 H529 0.958 . S
C541 C537 1.384 1_556 S
C541 C540 1.391 . S
C542 H532 0.950 . S
C542 C543 1.386 1_556 S
C542 C544 1.391 . S
C543 C542 1.386 1_554 S
C543 C547 1.393 . S
C544 H533 0.950 . S
C544 C542 1.391 . S
C544 C545 1.400 1_556 S
C545 C539 1.491 1_565 S
C545 C544 1.400 1_554 S
C545 C546 1.398 . S
C546 H534 0.950 . S
C546 C545 1.398 . S
C546 C547 1.391 . S
C547 H535 0.950 . S
C547 C543 1.393 . S
C547 C546 1.391 . S
H548 C556 0.950 . S
H549 C561 0.950 . S
H550 C558 0.950 . S
H551 C560 0.950 . S
H552 C562 0.950 . S
H553 C564 0.950 . S
H554 C566 0.950 . S
H555 C567 0.950 . S
C556 H548 0.950 . S
C556 C557 1.386 . S
C556 C558 1.391 . S
C557 C556 1.386 . S
C557 C561 1.393 . S
C558 H550 0.950 . S
C558 C556 1.391 . S
C558 C559 1.400 . S
C559 C558 1.400 . S
C559 C560 1.398 . S
C559 C565 1.491 . S
C560 H551 0.950 . S
C560 C559 1.398 . S
C560 C561 1.391 . S
C561 H549 0.950 . S
C561 C557 1.393 . S
C561 C560 1.391 . S
C562 H552 0.950 . S
C562 C563 1.386 . S
C562 C564 1.391 . S
C563 C562 1.386 . S
C563 C567 1.393 . S
C564 H553 0.950 . S
C564 C562 1.391 . S
C564 C565 1.400 . S
C565 C559 1.491 . S
C565 C564 1.400 . S
C565 C566 1.398 . S
C566 H554 0.950 . S
C566 C565 1.398 . S
C566 C567 1.391 . S
C567 H555 0.950 . S
C567 C563 1.393 . S
C567 C566 1.391 . S
H568 C576 0.950 . S
H569 C581 0.950 . S
H570 C578 0.950 . S
H571 C580 0.950 . S
H572 C582 0.950 . S
H573 C584 0.950 . S
H574 C586 0.950 . S
H575 C587 0.950 . S
C576 H568 0.950 . S
C576 C577 1.386 . S
C576 C578 1.391 . S
C577 C576 1.386 . S
C577 C581 1.393 . S
C578 H570 0.950 . S
C578 C576 1.391 . S
C578 C579 1.400 . S
C579 C578 1.400 . S
C579 C580 1.398 . S
C579 C585 1.491 1_455 S
C580 H571 0.950 . S
C580 C579 1.398 . S
C580 C581 1.391 . S
C581 H569 0.950 . S
C581 C577 1.393 . S
C581 C580 1.391 . S
C582 H572 0.950 . S
C582 C583 1.386 . S
C582 C584 1.391 . S
C583 C582 1.386 . S
C583 C587 1.393 . S
C584 H573 0.950 . S
C584 C582 1.391 . S
C584 C585 1.400 . S
C585 C579 1.491 1_655 S
C585 C584 1.400 . S
C585 C586 1.398 . S
C586 H574 0.950 . S
C586 C585 1.398 . S
C586 C587 1.391 . S
C587 H575 0.950 . S
C587 C583 1.393 . S
C587 C586 1.391 . S
H588 C596 0.950 . S
H589 C601 0.950 . S
H590 C598 0.950 . S
H591 C600 0.950 . S
H592 C602 0.950 . S
H593 C604 0.950 . S
H594 C606 0.950 . S
H595 C607 0.950 . S
C596 H588 0.950 . S
C596 C597 1.386 . S
C596 C598 1.391 . S
C597 C596 1.386 . S
C597 C601 1.393 . S
C598 H590 0.950 . S
C598 C596 1.391 . S
C598 C599 1.400 . S
C599 C598 1.400 . S
C599 C600 1.398 . S
C599 C605 1.491 1_565 S
C600 H591 0.950 . S
C600 C599 1.398 . S
C600 C601 1.391 . S
C601 H589 0.950 . S
C601 C597 1.393 . S
C601 C600 1.391 . S
C602 H592 0.950 . S
C602 C603 1.386 . S
C602 C604 1.391 . S
C603 C602 1.386 . S
C603 C607 1.393 . S
C604 H593 0.950 . S
C604 C602 1.391 . S
C604 C605 1.400 . S
C605 C599 1.491 1_545 S
C605 C604 1.400 . S
C605 C606 1.398 . S
C606 H594 0.950 . S
C606 C605 1.398 . S
C606 C607 1.391 . S
C607 H595 0.950 . S
C607 C603 1.393 . S
C607 C606 1.391 . S
H608 C616 0.950 . S
H609 C621 0.950 . S
H610 C618 0.950 . S
H611 C620 0.950 . S
H612 C622 0.950 . S
H613 C624 0.950 . S
H614 C626 0.950 . S
H615 C627 0.950 . S
C616 H608 0.950 . S
C616 C617 1.386 . S
C616 C618 1.391 . S
C617 C616 1.386 . S
C617 C621 1.393 . S
C618 H610 0.950 . S
C618 C616 1.391 . S
C618 C619 1.400 . S
C619 C618 1.400 . S
C619 C620 1.398 . S
C619 C625 1.491 . S
C620 H611 0.950 . S
C620 C619 1.398 . S
C620 C621 1.391 . S
C621 H609 0.950 . S
C621 C617 1.393 . S
C621 C620 1.391 . S
C622 H612 0.950 . S
C622 C623 1.386 . S
C622 C624 1.391 . S
C623 C622 1.386 . S
C623 C627 1.393 . S
C624 H613 0.950 . S
C624 C622 1.391 . S
C624 C625 1.400 . S
C625 C619 1.491 . S
C625 C624 1.400 . S
C625 C626 1.398 . S
C626 H614 0.950 . S
C626 C625 1.398 . S
C626 C627 1.391 . S
C627 H615 0.950 . S
C627 C623 1.393 . S
C627 C626 1.391 . S
H628 C636 0.950 . S
H629 C641 0.950 . S
H630 C638 0.950 . S
H631 C640 0.950 . S
H632 C642 0.950 . S
H633 C644 0.950 . S
H634 C646 0.950 . S
H635 C647 0.950 . S
C636 H628 0.950 . S
C636 C637 1.386 . S
C636 C638 1.391 . S
C637 C636 1.386 . S
C637 C641 1.393 . S
C638 H630 0.950 . S
C638 C636 1.391 . S
C638 C639 1.400 . S
C639 C638 1.400 . S
C639 C640 1.398 . S
C639 C645 1.491 1_455 S
C640 H631 0.950 . S
C640 C639 1.398 . S
C640 C641 1.391 . S
C641 H629 0.950 . S
C641 C637 1.393 . S
C641 C640 1.391 . S
C642 H632 0.950 . S
C642 C643 1.386 . S
C642 C644 1.391 . S
C643 C642 1.386 . S
C643 C647 1.393 . S
C644 H633 0.950 . S
C644 C642 1.391 . S
C644 C645 1.400 . S
C645 C639 1.491 1_655 S
C645 C644 1.400 . S
C645 C646 1.398 . S
C646 H634 0.950 . S
C646 C645 1.398 . S
C646 C647 1.391 . S
C647 H635 0.950 . S
C647 C643 1.393 . S
C647 C646 1.391 . S
C177 C8 1.568 . S
C183 C148 1.577 . S
C197 C22 1.587 . S
C203 C162 1.568 . S
C217 C92 1.567 . S
C223 C36 1.587 . S
C237 C50 1.571 . S
C243 C106 1.589 . S
C257 C120 1.582 . S
C263 C64 1.586 . S
C277 C134 1.569 . S
C283 C78 1.588 1_554 S
C297 C119 1.076 . S
C303 C7 1.073 . S
C317 C21 1.062 . S
C323 C133 1.059 . S
C337 C147 1.067 . S
C343 C35 1.063 . S
C357 C49 1.076 . S
C363 C161 1.077 . S
C377 C63 1.071 . S
C383 C91 1.075 . S
C397 C77 1.077 . S
C403 C105 1.077 . S
C417 C151 1.400 . S
C423 C11 1.400 . S
C437 C165 1.400 . S
C443 C25 1.400 . S
C457 C95 1.400 1_554 S
C463 C39 1.400 . S
C477 C53 1.400 . S
C483 C109 1.399 . S
C497 C67 1.400 . S
C503 C123 1.400 . S
C517 C137 1.400 . S
C523 C81 1.400 . S
C537 C13 1.188 . S
C543 C111 1.195 . S
C557 C125 1.192 . S
C563 C27 1.184 . S
C577 C139 1.174 . S
C583 C41 1.177 . S
C597 C55 1.178 . S
C603 C153 1.174 . S
C617 C69 1.193 . S
C623 C167 1.200 . S
C637 C83 1.175 . S
C643 C97 1.179 . S
