# Generated by pormake.
# Topology pcl, (4)-cn, num edge types: 1
# Building blocks:
#     Node 0, Type 0, BuildingBlock: ICAMEG_clean_sbu_1, # of connection points: 4
#     Node 1, Type 0, BuildingBlock: ICAMEG_clean_sbu_1, # of connection points: 4
#     Node 2, Type 0, BuildingBlock: ICAMEG_clean_sbu_1, # of connection points: 4
#     Node 3, Type 0, BuildingBlock: ICAMEG_clean_sbu_1, # of connection points: 4
#     Node 4, Type 0, BuildingBlock: ICAMEG_clean_sbu_1, # of connection points: 4
#     Node 5, Type 0, BuildingBlock: ICAMEG_clean_sbu_1, # of connection points: 4
#     Node 6, Type 0, BuildingBlock: ICAMEG_clean_sbu_1, # of connection points: 4
#     Node 7, Type 0, BuildingBlock: ICAMEG_clean_sbu_1, # of connection points: 4
#     Node 8, Type 0, BuildingBlock: ICAMEG_clean_sbu_1, # of connection points: 4
#     Node 9, Type 0, BuildingBlock: ICAMEG_clean_sbu_1, # of connection points: 4
#     Node 10, Type 0, BuildingBlock: ICAMEG_clean_sbu_1, # of connection points: 4
#     Node 11, Type 0, BuildingBlock: ICAMEG_clean_sbu_1, # of connection points: 4
#     Node 12, Type 0, BuildingBlock: ICAMEG_clean_sbu_1, # of connection points: 4
#     Node 13, Type 0, BuildingBlock: ICAMEG_clean_sbu_1, # of connection points: 4
#     Node 14, Type 0, BuildingBlock: ICAMEG_clean_sbu_1, # of connection points: 4
#     Node 15, Type 0, BuildingBlock: ICAMEG_clean_sbu_1, # of connection points: 4
#     Edge 16, Type (0, 0), BuildingBlock: KIFKEQ_clean_linker_1, # of connection points: 2
#     Edge 17, Type (0, 0), BuildingBlock: KIFKEQ_clean_linker_1, # of connection points: 2
#     Edge 18, Type (0, 0), BuildingBlock: KIFKEQ_clean_linker_1, # of connection points: 2
#     Edge 19, Type (0, 0), BuildingBlock: KIFKEQ_clean_linker_1, # of connection points: 2
#     Edge 20, Type (0, 0), BuildingBlock: KIFKEQ_clean_linker_1, # of connection points: 2
#     Edge 21, Type (0, 0), BuildingBlock: KIFKEQ_clean_linker_1, # of connection points: 2
#     Edge 22, Type (0, 0), BuildingBlock: KIFKEQ_clean_linker_1, # of connection points: 2
#     Edge 23, Type (0, 0), BuildingBlock: KIFKEQ_clean_linker_1, # of connection points: 2
#     Edge 24, Type (0, 0), BuildingBlock: KIFKEQ_clean_linker_1, # of connection points: 2
#     Edge 25, Type (0, 0), BuildingBlock: KIFKEQ_clean_linker_1, # of connection points: 2
#     Edge 26, Type (0, 0), BuildingBlock: KIFKEQ_clean_linker_1, # of connection points: 2
#     Edge 27, Type (0, 0), BuildingBlock: KIFKEQ_clean_linker_1, # of connection points: 2
#     Edge 28, Type (0, 0), BuildingBlock: KIFKEQ_clean_linker_1, # of connection points: 2
#     Edge 29, Type (0, 0), BuildingBlock: KIFKEQ_clean_linker_1, # of connection points: 2
#     Edge 30, Type (0, 0), BuildingBlock: KIFKEQ_clean_linker_1, # of connection points: 2
#     Edge 31, Type (0, 0), BuildingBlock: KIFKEQ_clean_linker_1, # of connection points: 2
#     Edge 32, Type (0, 0), BuildingBlock: KIFKEQ_clean_linker_1, # of connection points: 2
#     Edge 33, Type (0, 0), BuildingBlock: KIFKEQ_clean_linker_1, # of connection points: 2
#     Edge 34, Type (0, 0), BuildingBlock: KIFKEQ_clean_linker_1, # of connection points: 2
#     Edge 35, Type (0, 0), BuildingBlock: KIFKEQ_clean_linker_1, # of connection points: 2
#     Edge 36, Type (0, 0), BuildingBlock: KIFKEQ_clean_linker_1, # of connection points: 2
#     Edge 37, Type (0, 0), BuildingBlock: KIFKEQ_clean_linker_1, # of connection points: 2
#     Edge 38, Type (0, 0), BuildingBlock: KIFKEQ_clean_linker_1, # of connection points: 2
#     Edge 39, Type (0, 0), BuildingBlock: KIFKEQ_clean_linker_1, # of connection points: 2
#     Edge 40, Type (0, 0), BuildingBlock: KIFKEQ_clean_linker_1, # of connection points: 2
#     Edge 41, Type (0, 0), BuildingBlock: KIFKEQ_clean_linker_1, # of connection points: 2
#     Edge 42, Type (0, 0), BuildingBlock: KIFKEQ_clean_linker_1, # of connection points: 2
#     Edge 43, Type (0, 0), BuildingBlock: KIFKEQ_clean_linker_1, # of connection points: 2
#     Edge 44, Type (0, 0), BuildingBlock: KIFKEQ_clean_linker_1, # of connection points: 2
#     Edge 45, Type (0, 0), BuildingBlock: KIFKEQ_clean_linker_1, # of connection points: 2
#     Edge 46, Type (0, 0), BuildingBlock: KIFKEQ_clean_linker_1, # of connection points: 2
#     Edge 47, Type (0, 0), BuildingBlock: KIFKEQ_clean_linker_1, # of connection points: 2
# Relax obj value: 0.091
# Max RMSD: 0.122
# Mean RMSD: 0.117
data_MOF--net-pcl--node1-ICAMEG_clean_sbu_1--edge1-KIFKEQ_clean_linker_1
_symmetry_space_group_name_H-M    P1
_symmetry_Int_Tables_number       1
_symmetry_cell_setting            triclinic
loop_
_symmetry_equiv_pos_as_xyz
'x, y, z'
_cell_length_a     55.802933
_cell_length_b     43.887597
_cell_length_c     47.387609
_cell_angle_alpha  90.033369
_cell_angle_beta   89.954422
_cell_angle_gamma 89.984503
loop_
_atom_site_label
_atom_site_type_symbol
_atom_site_fract_x
_atom_site_fract_y
_atom_site_fract_z
_atom_type_partial_charge
Co0 Co 0.14214 0.37585 0.11745 0.0
Co1 Co 0.137 0.30257 0.0937 0.0
O2 O 0.15122 0.3434 0.09109 0.0
C3 C 0.13729 0.40763 0.06243 0.0
O4 O 0.12516 0.38406 0.0531 0.0
C5 C 0.18966 0.29073 0.08627 0.0
O6 O 0.19409 0.31302 0.104 0.0
O7 O 0.1476 0.29917 0.13389 0.0
O8 O 0.13764 0.34595 0.14894 0.0
H9 H 0.08816 0.22004 0.13938 0.0
H10 H 0.18732 0.38243 0.08528 0.0
O11 O 0.1462 0.40727 0.08715 0.0
H12 H 0.21127 0.38341 0.18543 0.0
H13 H 0.14841 0.48001 0.1615 0.0
H14 H 0.10404 0.38285 0.16065 0.0
H15 H 0.16872 0.37878 0.17214 0.0
H16 H 0.16025 0.43858 0.12919 0.0
O17 O 0.16806 0.28359 0.08051 0.0
H18 H 0.10573 0.27141 0.1352 0.0
H19 H 0.13918 0.24654 0.058 0.0
H20 H 0.09173 0.42358 0.19348 0.0
H21 H 0.23008 0.38754 0.09764 0.0
H22 H 0.11398 0.4726 0.19404 0.0
H23 H 0.24229 0.38792 0.14803 0.0
O24 O 0.10805 0.37094 0.10658 0.0
H25 H 0.1481 0.32793 0.99115 0.0
H26 H 0.09105 0.29127 0.06304 0.0
H27 H 0.07765 0.2971 0.01378 0.0
H28 H 0.10628 0.31549 0.97742 0.0
H29 H 0.16069 0.32205 0.04074 0.0
H30 H 0.12216 0.19483 0.06147 0.0
H31 H 0.09636 0.18133 0.10233 0.0
O32 O 0.10501 0.31998 0.10607 0.0
C33 C 0.14321 0.31823 0.15356 0.0
C34 C 0.09933 0.22566 0.12144 0.0
C35 C 0.11844 0.2115 0.07774 0.0
N36 N 0.12335 0.26202 0.09632 0.0
C37 C 0.10928 0.25473 0.11893 0.0
C38 C 0.12808 0.2408 0.07593 0.0
C39 C 0.10395 0.20395 0.10066 0.0
C40 C 0.19249 0.38292 0.10725 0.0
N41 N 0.17555 0.38037 0.12794 0.0
C42 C 0.21673 0.38567 0.11412 0.0
C43 C 0.22357 0.38583 0.1424 0.0
C44 C 0.20618 0.38327 0.16339 0.0
C45 C 0.18211 0.38053 0.15573 0.0
C46 C 0.13859 0.45875 0.16149 0.0
C47 C 0.1139 0.40405 0.16087 0.0
C48 C 0.14518 0.43522 0.14319 0.0
N49 N 0.13294 0.40825 0.14315 0.0
C50 C 0.1068 0.42706 0.17946 0.0
C51 C 0.11928 0.45456 0.17974 0.0
C52 C 0.09561 0.3466 0.10605 0.0
C53 C 0.13547 0.31981 1.00678 0.0
C54 C 0.10361 0.29937 0.04737 0.0
C55 C 0.09592 0.30257 0.01949 0.0
C56 C 0.112 0.31287 0.9991 0.0
N57 N 0.12668 0.30618 0.05474 0.0
C58 C 0.14253 0.31632 0.03487 0.0
Co59 Co 0.88491 0.63657 0.61939 0.0
Co60 Co 0.8879 0.71013 0.596 0.0
O61 O 0.87425 0.66885 0.59356 0.0
C62 C 0.88596 0.60558 0.56344 0.0
O63 O 0.89412 0.63073 0.55198 0.0
C64 C 0.83487 0.72057 0.58906 0.0
O65 O 0.83064 0.69732 0.60573 0.0
O66 O 0.87795 0.71289 0.63648 0.0
O67 O 0.8899 0.66665 0.65071 0.0
H68 H 0.93622 0.79351 0.64113 0.0
H69 H 0.83877 0.62852 0.58965 0.0
O70 O 0.88058 0.60475 0.58951 0.0
H71 H 0.81855 0.62652 0.69096 0.0
H72 H 0.88261 0.53229 0.66368 0.0
H73 H 0.92471 0.631 0.66049 0.0
H74 H 0.86046 0.63267 0.67546 0.0
H75 H 0.86866 0.57319 0.63203 0.0
O76 O 0.85639 0.72856 0.58382 0.0
H77 H 0.91936 0.74176 0.63697 0.0
H78 H 0.88431 0.76638 0.56079 0.0
H79 H 0.93913 0.59081 0.69262 0.0
H80 H 0.79663 0.62188 0.60423 0.0
H81 H 0.91803 0.54102 0.69435 0.0
H82 H 0.7863 0.62098 0.65523 0.0
O83 O 0.91837 0.64252 0.60653 0.0
H84 H 0.87499 0.6866 0.49336 0.0
H85 H 0.93316 0.72258 0.56421 0.0
H86 H 0.9456 0.71799 0.51447 0.0
H87 H 0.91639 0.69998 0.47862 0.0
H88 H 0.86339 0.6911 0.54342 0.0
H89 H 0.90061 0.81846 0.56426 0.0
H90 H 0.92685 0.83228 0.6046 0.0
O91 O 0.92041 0.69349 0.60735 0.0
C92 C 0.88347 0.69398 0.65584 0.0
C93 C 0.92485 0.78775 0.62342 0.0
C94 C 0.90484 0.80176 0.5803 0.0
N95 N 0.90097 0.751 0.5986 0.0
C96 C 0.91529 0.75846 0.62092 0.0
C97 C 0.8956 0.77225 0.57849 0.0
C98 C 0.91957 0.8095 0.60293 0.0
C99 C 0.83442 0.62782 0.61187 0.0
N100 N 0.85204 0.63094 0.63165 0.0
C101 C 0.81053 0.6242 0.62001 0.0
C102 C 0.80474 0.62375 0.64862 0.0
C103 C 0.82283 0.62689 0.66868 0.0
C104 C 0.84652 0.63049 0.65976 0.0
C105 C 0.89192 0.55391 0.66316 0.0
C106 C 0.91534 0.60947 0.66124 0.0
C107 C 0.88414 0.57715 0.64525 0.0
N108 N 0.89575 0.60457 0.64458 0.0
C109 C 0.92363 0.58676 0.67942 0.0
C110 C 0.91179 0.55883 0.68037 0.0
C111 C 0.93033 0.66722 0.60611 0.0
C112 C 0.88786 0.69455 0.50877 0.0
C113 C 0.92037 0.71454 0.54879 0.0
C114 C 0.92751 0.71209 0.52063 0.0
C115 C 0.9111 0.70202 0.50052 0.0
N116 N 0.89753 0.70717 0.55672 0.0
C117 C 0.88136 0.69728 0.53713 0.0
Co118 Co 0.13967 0.6364 0.89656 0.0
Co119 Co 0.13377 0.70942 0.9207 0.0
O120 O 0.14838 0.66879 0.92313 0.0
C121 C 0.1352 0.6042 0.95145 0.0
O122 O 0.1228 0.62749 0.96095 0.0
C123 C 0.18622 0.72204 0.92803 0.0
O124 O 0.19081 0.70012 0.90996 0.0
O125 O 0.14451 0.71322 0.88059 0.0
O126 O 0.13494 0.66645 0.86523 0.0
H127 H 0.08436 0.79155 0.8753 0.0
H128 H 0.18487 0.6304 0.92871 0.0
O129 O 0.14403 0.60485 0.92668 0.0
H130 H 0.20898 0.63034 0.82857 0.0
H131 H 0.14705 0.53264 0.85193 0.0
H132 H 0.10172 0.6291 0.85331 0.0
H133 H 0.16636 0.63418 0.84187 0.0
H134 H 0.15843 0.57404 0.88447 0.0
O135 O 0.16458 0.72872 0.93408 0.0
H136 H 0.10239 0.74041 0.87926 0.0
H137 H 0.1353 0.76523 0.95672 0.0
H138 H 0.08987 0.5884 0.82024 0.0
H139 H 0.22771 0.62609 0.91634 0.0
H140 H 0.1126 0.53974 0.81942 0.0
H141 H 0.23999 0.62617 0.86595 0.0
O142 O 0.10552 0.64073 0.90746 0.0
H143 H 0.14472 0.68359 0.02315 0.0
H144 H 0.0876 0.71983 0.95125 0.0
H145 H 0.07407 0.71349 1.00044 0.0
H146 H 0.10274 0.69531 0.0368 0.0
H147 H 0.15745 0.68997 0.97364 0.0
H148 H 0.1178 0.81672 0.95348 0.0
H149 H 0.09204 0.83012 0.9126 0.0
O150 O 0.10204 0.69164 0.90811 0.0
C151 C 0.14035 0.69425 0.86079 0.0
C152 C 0.0955 0.78596 0.89325 0.0
C153 C 0.1143 0.8001 0.93711 0.0
N154 N 0.11976 0.74978 0.91826 0.0
C155 C 0.10572 0.75702 0.89564 0.0
C156 C 0.12421 0.77094 0.93879 0.0
C157 C 0.09984 0.8076 0.91417 0.0
C158 C 0.19008 0.63011 0.90674 0.0
N159 N 0.17314 0.63248 0.88606 0.0
C160 C 0.21436 0.62781 0.89986 0.0
C161 C 0.22124 0.62791 0.87158 0.0
C162 C 0.20385 0.63029 0.8506 0.0
C163 C 0.17975 0.63257 0.85827 0.0
C164 C 0.13702 0.55375 0.85206 0.0
C165 C 0.11178 0.60806 0.85297 0.0
C166 C 0.14334 0.57725 0.87049 0.0
N167 N 0.13084 0.60404 0.87067 0.0
C168 C 0.10495 0.58506 0.83425 0.0
C169 C 0.1177 0.55776 0.83382 0.0
C170 C 0.09287 0.6649 0.90804 0.0
C171 C 0.13208 0.69162 1.00752 0.0
C172 C 0.10018 0.71182 0.96692 0.0
C173 C 0.09241 0.70834 0.99476 0.0
C174 C 0.10851 0.69816 0.01515 0.0
N175 N 0.12334 0.7054 0.9596 0.0
C176 C 0.13921 0.69538 0.97947 0.0
Co177 Co 0.88482 0.37711 0.39651 0.0
Co178 Co 0.88973 0.30392 0.42053 0.0
O179 O 0.87525 0.34474 0.4228 0.0
C180 C 0.88634 0.40853 0.45217 0.0
O181 O 0.89537 0.38375 0.46342 0.0
C182 C 0.83713 0.29157 0.42746 0.0
O183 O 0.83255 0.3138 0.40974 0.0
O184 O 0.87951 0.3003 0.38023 0.0
O185 O 0.88993 0.34691 0.36532 0.0
H186 H 0.93932 0.22154 0.37559 0.0
H187 H 0.83903 0.38375 0.42738 0.0
O188 O 0.88033 0.40902 0.42629 0.0
H189 H 0.81706 0.38424 0.3266 0.0
H190 H 0.87956 0.48089 0.35158 0.0
H191 H 0.92377 0.38363 0.35434 0.0
H192 H 0.85935 0.37974 0.34107 0.0
H193 H 0.86704 0.43981 0.38386 0.0
O194 O 0.85875 0.28473 0.43334 0.0
H195 H 0.92145 0.27278 0.37943 0.0
H196 H 0.88761 0.24804 0.45639 0.0
H197 H 0.93678 0.42401 0.32157 0.0
H198 H 0.79651 0.3887 0.41384 0.0
H199 H 0.91461 0.47307 0.32004 0.0
H200 H 0.78531 0.38885 0.36312 0.0
O201 O 0.91862 0.37237 0.40851 0.0
H202 H 0.87727 0.32821 0.52312 0.0
H203 H 0.93554 0.29346 0.45174 0.0
H204 H 0.94835 0.2991 0.50123 0.0
H205 H 0.91909 0.31649 0.53735 0.0
H206 H 0.86529 0.32268 0.47329 0.0
H207 H 0.90493 0.19646 0.45325 0.0
H208 H 0.93108 0.18296 0.41268 0.0
O209 O 0.92168 0.32145 0.40847 0.0
C210 C 0.88433 0.31922 0.36061 0.0
C211 C 0.928 0.22717 0.3934 0.0
C212 C 0.90867 0.21308 0.43697 0.0
N213 N 0.90361 0.26346 0.41817 0.0
C214 C 0.91787 0.25617 0.39572 0.0
C215 C 0.89886 0.2423 0.43859 0.0
C216 C 0.92335 0.20552 0.41421 0.0
C217 C 0.83429 0.38412 0.40527 0.0
N218 N 0.85164 0.38152 0.38506 0.0
C219 C 0.81019 0.38679 0.39773 0.0
C220 C 0.80391 0.38682 0.36927 0.0
C221 C 0.82172 0.3842 0.34877 0.0
C222 C 0.84563 0.38155 0.3571 0.0
C223 C 0.88934 0.45959 0.352 0.0
C224 C 0.91394 0.40484 0.35368 0.0
C225 C 0.88235 0.43626 0.37027 0.0
N226 N 0.89454 0.40924 0.37082 0.0
C227 C 0.92143 0.42765 0.33514 0.0
C228 C 0.909 0.45518 0.33431 0.0
C229 C 0.93106 0.34805 0.40896 0.0
C230 C 0.89016 0.32053 0.5076 0.0
C231 C 0.92273 0.30123 0.46727 0.0
C232 C 0.93007 0.30427 0.4953 0.0
C233 C 0.91364 0.314 0.51555 0.0
N234 N 0.89966 0.30768 0.45962 0.0
C235 C 0.88346 0.31722 0.47937 0.0
Co236 Co 0.86331 0.64216 0.90449 0.0
Co237 Co 0.87456 0.67778 0.96821 0.0
O238 O 0.85832 0.67547 0.93148 0.0
C239 C 0.87558 0.69298 0.86481 0.0
O240 O 0.8927 0.70174 0.882 0.0
C241 C 0.82277 0.68514 0.98327 0.0
O242 O 0.81782 0.66289 0.96568 0.0
O243 O 0.86508 0.63512 0.97778 0.0
O244 O 0.86484 0.61151 0.93575 0.0
H245 H 0.92843 0.64024 0.04567 0.0
H246 H 0.8223 0.68416 0.89725 0.0
O247 O 0.86151 0.6714 0.87185 0.0
H248 H 0.78642 0.58201 0.90677 0.0
H249 H 0.84883 0.58486 0.81394 0.0
H250 H 0.89529 0.58827 0.90238 0.0
H251 H 0.83028 0.58866 0.9078 0.0
H252 H 0.8422 0.62602 0.84853 0.0
O253 O 0.84441 0.69375 0.98658 0.0
H254 H 0.90808 0.63778 0.99954 0.0
H255 H 0.87492 0.72331 0.01503 0.0
H256 H 0.90231 0.54652 0.86849 0.0
H257 H 0.77832 0.67857 0.89577 0.0
H258 H 0.879 0.54466 0.82389 0.0
H259 H 0.76011 0.6272 0.90067 0.0
O260 O 0.89881 0.64771 0.90643 0.0
H261 H 0.86057 0.7842 0.93287 0.0
H262 H 0.9206 0.71236 0.97031 0.0
H263 H 0.93297 0.76447 0.95745 0.0
H264 H 0.90283 0.80083 0.93865 0.0
H265 H 0.84902 0.73176 0.94577 0.0
H266 H 0.89476 0.72658 0.06142 0.0
H267 H 0.92181 0.68489 0.07697 0.0
O268 O 0.90524 0.66252 0.95122 0.0
C269 C 0.86405 0.61106 0.96265 0.0
C270 C 0.91673 0.65859 0.0391 0.0
C271 C 0.89781 0.70702 0.04796 0.0
N272 N 0.89044 0.68045 1.00453 0.0
C273 C 0.90521 0.65736 0.01298 0.0
C274 C 0.88658 0.70501 0.0217 0.0
C275 C 0.91299 0.68363 0.05666 0.0
C276 C 0.81449 0.66172 0.89919 0.0
N277 N 0.82883 0.63677 0.9027 0.0
C278 C 0.78959 0.6587 0.89842 0.0
C279 C 0.77938 0.62988 0.90122 0.0
C280 C 0.79413 0.60452 0.90468 0.0
C281 C 0.81896 0.60843 0.90539 0.0
C282 C 0.85907 0.5854 0.83333 0.0
C283 C 0.88496 0.5875 0.8831 0.0
C284 C 0.85544 0.60869 0.85297 0.0
N285 N 0.86823 0.60943 0.87755 0.0
C286 C 0.88906 0.56386 0.86395 0.0
C287 C 0.87599 0.56284 0.83892 0.0
C288 C 0.91273 0.65394 0.92702 0.0
C289 C 0.87385 0.7686 0.94112 0.0
C290 C 0.90739 0.72801 0.96206 0.0
C291 C 0.91449 0.75751 0.95487 0.0
C292 C 0.89757 0.7779 0.94434 0.0
N293 N 0.88407 0.71909 0.95894 0.0
C294 C 0.8674 0.73892 0.94855 0.0
Co295 Co 0.15971 0.37272 0.40172 0.0
Co296 Co 0.15064 0.33704 0.46539 0.0
O297 O 0.16632 0.33958 0.42833 0.0
C298 C 0.15043 0.32096 0.36209 0.0
O299 O 0.134 0.31063 0.37948 0.0
C300 C 0.20251 0.32925 0.47948 0.0
O301 O 0.2074 0.35181 0.46223 0.0
O302 O 0.16089 0.37939 0.47481 0.0
O303 O 0.15634 0.40297 0.43321 0.0
H304 H 0.09887 0.37501 0.54476 0.0
H305 H 0.20303 0.33478 0.39354 0.0
O306 O 0.16314 0.34394 0.36889 0.0
H307 H 0.23293 0.4397 0.40571 0.0
H308 H 0.17155 0.43207 0.31183 0.0
H309 H 0.12465 0.42345 0.39972 0.0
H310 H 0.18956 0.42898 0.4067 0.0
H311 H 0.18025 0.39131 0.34613 0.0
O312 O 0.18091 0.32051 0.48279 0.0
H313 H 0.11834 0.37747 0.49807 0.0
H314 H 0.1506 0.29107 0.5118 0.0
H315 H 0.1155 0.46474 0.36611 0.0
H316 H 0.24657 0.34453 0.39211 0.0
H317 H 0.13903 0.46922 0.32179 0.0
H318 H 0.26176 0.3973 0.39832 0.0
O319 O 0.12473 0.364 0.40362 0.0
H320 H 0.16294 0.23081 0.42862 0.0
H321 H 0.10435 0.30303 0.46871 0.0
H322 H 0.09127 0.25123 0.45572 0.0
H323 H 0.12068 0.21469 0.43558 0.0
H324 H 0.17521 0.28296 0.44169 0.0
H325 H 0.13164 0.2878 0.55874 0.0
H326 H 0.10549 0.32992 0.57545 0.0
O327 O 0.11964 0.35285 0.44947 0.0
C328 C 0.15941 0.40351 0.45988 0.0
C329 C 0.11018 0.35647 0.53768 0.0
C330 C 0.1286 0.30754 0.54554 0.0
N331 N 0.13545 0.33436 0.50214 0.0
C332 C 0.1212 0.3577 0.51124 0.0
C333 C 0.13933 0.30956 0.51897 0.0
C334 C 0.11391 0.33118 0.5549 0.0
C335 C 0.20952 0.35784 0.396 0.0
N336 N 0.19378 0.38127 0.40012 0.0
C337 C 0.23418 0.3632 0.39528 0.0
C338 C 0.24269 0.39281 0.39881 0.0
C339 C 0.22653 0.41661 0.40298 0.0
C340 C 0.20199 0.41038 0.40361 0.0
C341 C 0.16121 0.43039 0.3311 0.0
C342 C 0.13508 0.42538 0.38057 0.0
C343 C 0.16602 0.40733 0.35059 0.0
N344 N 0.1531 0.40516 0.37503 0.0
C345 C 0.12977 0.44875 0.36158 0.0
C346 C 0.14296 0.45124 0.3367 0.0
C347 C 0.11139 0.35908 0.425 0.0
C348 C 0.14997 0.2465 0.43745 0.0
C349 C 0.11725 0.2873 0.45988 0.0
C350 C 0.10974 0.25797 0.45262 0.0
C351 C 0.12625 0.23748 0.44133 0.0
N352 N 0.14057 0.29594 0.45609 0.0
C353 C 0.15684 0.27601 0.44497 0.0
Co354 Co 0.86613 0.37051 0.11286 0.0
Co355 Co 0.87621 0.33524 0.04876 0.0
O356 O 0.86053 0.33747 0.08583 0.0
C357 C 0.87826 0.31921 0.15211 0.0
O358 O 0.89538 0.31045 0.13489 0.0
C359 C 0.82419 0.32863 0.0349 0.0
O360 O 0.81974 0.35107 0.05247 0.0
O361 O 0.86678 0.37803 0.03965 0.0
O362 O 0.86757 0.40138 0.08178 0.0
H363 H 0.92907 0.37276 0.97026 0.0
H364 H 0.82479 0.32912 0.1205 0.0
O365 O 0.86437 0.34104 0.14529 0.0
H366 H 0.78982 0.43194 0.11244 0.0
H367 H 0.8533 0.42732 0.20404 0.0
H368 H 0.89866 0.42384 0.11474 0.0
H369 H 0.83359 0.42458 0.1106 0.0
H370 H 0.84585 0.38656 0.16932 0.0
O371 O 0.84569 0.31966 0.03109 0.0
H372 H 0.90944 0.37512 0.01686 0.0
H373 H 0.8756 0.29 1.00172 0.0
H374 H 0.9065 0.46521 0.14877 0.0
H375 H 0.78089 0.33542 0.12278 0.0
H376 H 0.88374 0.4671 0.19381 0.0
H377 H 0.76314 0.38713 0.11862 0.0
O378 O 0.90155 0.36435 0.11023 0.0
H379 H 0.86222 0.22873 0.08388 0.0
H380 H 0.92203 0.30024 0.04539 0.0
H381 H 0.93432 0.24794 0.05768 0.0
H382 H 0.90429 0.21175 0.07701 0.0
H383 H 0.85075 0.28135 0.07153 0.0
H384 H 0.8947 0.28683 0.95485 0.0
H385 H 0.92173 0.32836 0.93889 0.0
O386 O 0.90726 0.35009 0.06514 0.0
C387 C 0.86621 0.40201 0.05491 0.0
C388 C 0.91738 0.35448 0.977 0.0
C389 C 0.89806 0.30627 0.96834 0.0
N390 N 0.89151 0.33265 0.01207 0.0
C391 C 0.90627 0.35565 1.00339 0.0
C392 C 0.88725 0.30823 0.99487 0.0
C393 C 0.91324 0.32958 0.9594 0.0
C394 C 0.81719 0.35171 0.11888 0.0
N395 N 0.83174 0.37645 0.11532 0.0
C396 C 0.79233 0.35513 0.1201 0.0
C397 C 0.78237 0.38414 0.11772 0.0
C398 C 0.79733 0.40928 0.11421 0.0
C399 C 0.82211 0.40497 0.11304 0.0
C400 C 0.8633 0.42677 0.18447 0.0
C401 C 0.88857 0.42464 0.13421 0.0
C402 C 0.85921 0.4037 0.16475 0.0
N403 N 0.8717 0.40294 0.13992 0.0
C404 C 0.89313 0.44806 0.15343 0.0
C405 C 0.88038 0.44909 0.17871 0.0
C406 C 0.91515 0.3582 0.08929 0.0
C407 C 0.87546 0.24426 0.0754 0.0
C408 C 0.90887 0.28467 0.05387 0.0
C409 C 0.91593 0.25505 0.06074 0.0
C410 C 0.89907 0.23476 0.07157 0.0
N411 N 0.88565 0.29378 0.05759 0.0
C412 C 0.86904 0.27404 0.06828 0.0
Co413 Co 0.15879 0.64175 0.61284 0.0
Co414 Co 0.15125 0.67791 0.54909 0.0
O415 O 0.16631 0.67475 0.58642 0.0
C416 C 0.14957 0.6936 0.65242 0.0
O417 O 0.13346 0.70427 0.63482 0.0
C418 C 0.20353 0.68369 0.53582 0.0
O419 O 0.20767 0.6609 0.55307 0.0
O420 O 0.16069 0.63521 0.53977 0.0
O421 O 0.15549 0.61162 0.58127 0.0
H422 H 0.09974 0.64199 0.46879 0.0
H423 H 0.20251 0.67864 0.6219 0.0
O424 O 0.16212 0.67041 0.64576 0.0
H425 H 0.23108 0.57303 0.61023 0.0
H426 H 0.16834 0.58205 0.70289 0.0
H427 H 0.12298 0.59186 0.61408 0.0
H428 H 0.18789 0.58478 0.60841 0.0
H429 H 0.17816 0.62263 0.66882 0.0
O430 O 0.18217 0.6933 0.53225 0.0
H431 H 0.11849 0.63876 0.51582 0.0
H432 H 0.15293 0.72388 0.50274 0.0
H433 H 0.11271 0.55077 0.64745 0.0
H434 H 0.24587 0.66785 0.62415 0.0
H435 H 0.13547 0.54568 0.69223 0.0
H436 H 0.2604 0.61473 0.6182 0.0
O437 O 0.12396 0.6513 0.61026 0.0
H438 H 0.16546 0.7836 0.58617 0.0
H439 H 0.1058 0.71365 0.54501 0.0
H440 H 0.09374 0.76591 0.55782 0.0
H441 H 0.12369 0.80131 0.57849 0.0
H442 H 0.17671 0.73102 0.57327 0.0
H443 H 0.13473 0.72791 0.45547 0.0
H444 H 0.10783 0.68682 0.43827 0.0
O445 O 0.11962 0.66326 0.56448 0.0
C446 C 0.15882 0.61109 0.55463 0.0
C447 C 0.11137 0.66008 0.47608 0.0
C448 C 0.13103 0.70829 0.46859 0.0
N449 N 0.13665 0.68119 0.51209 0.0
C450 C 0.12199 0.65841 0.50272 0.0
C451 C 0.14134 0.70584 0.49535 0.0
C452 C 0.11594 0.68523 0.45896 0.0
C453 C 0.2087 0.65543 0.61955 0.0
N454 N 0.1927 0.63238 0.61511 0.0
C455 C 0.23327 0.64948 0.62074 0.0
C456 C 0.24141 0.61967 0.61735 0.0
C457 C 0.22497 0.59627 0.61285 0.0
C458 C 0.20054 0.60308 0.61176 0.0
C459 C 0.15833 0.58399 0.68341 0.0
C460 C 0.13307 0.58967 0.63344 0.0
C461 C 0.16378 0.60696 0.66406 0.0
N462 N 0.15128 0.60946 0.63936 0.0
C463 C 0.12713 0.56641 0.65229 0.0
C464 C 0.13989 0.56359 0.67742 0.0
C465 C 0.11096 0.65697 0.58877 0.0
C466 C 0.15226 0.76841 0.5771 0.0
C467 C 0.11893 0.72888 0.55408 0.0
C468 C 0.112 0.75847 0.56123 0.0
C469 C 0.12882 0.77833 0.57282 0.0
N470 N 0.14198 0.71935 0.55827 0.0
C471 C 0.15855 0.73866 0.56968 0.0
Co472 Co 0.63893 0.87408 0.12579 0.0
Co473 Co 0.63551 0.80228 0.09704 0.0
O474 O 0.64909 0.84362 0.09779 0.0
C475 C 0.63478 0.90827 0.07199 0.0
O476 O 0.62503 0.884 0.06057 0.0
C477 C 0.68873 0.79212 0.0906 0.0
O478 O 0.69293 0.81469 0.10807 0.0
O479 O 0.64438 0.79613 0.13761 0.0
O480 O 0.63509 0.84207 0.15538 0.0
H481 H 0.58584 0.71591 0.13464 0.0
H482 H 0.68398 0.88483 0.09432 0.0
O483 O 0.64214 0.90759 0.09739 0.0
H484 H 0.70766 0.87981 0.19445 0.0
H485 H 0.64243 0.97545 0.17551 0.0
H486 H 0.60062 0.8767 0.16918 0.0
H487 H 0.66529 0.87426 0.18067 0.0
H488 H 0.65536 0.93669 0.141 0.0
O489 O 0.66724 0.78456 0.08477 0.0
H490 H 0.60293 0.76774 0.13462 0.0
H491 H 0.63993 0.74888 0.0582 0.0
H492 H 0.58723 0.91472 0.20413 0.0
H493 H 0.72655 0.89094 0.10722 0.0
H494 H 0.60819 0.96452 0.20746 0.0
H495 H 0.73862 0.88831 0.1576 0.0
O496 O 0.60492 0.86871 0.11465 0.0
H497 H 0.65118 0.83506 0.99717 0.0
H498 H 0.59142 0.79184 0.06251 0.0
H499 H 0.58035 0.80085 0.01288 0.0
H500 H 0.61037 0.82254 0.97978 0.0
H501 H 0.66137 0.82606 0.0471 0.0
H502 H 0.62343 0.69678 0.05756 0.0
H503 H 0.59608 0.68003 0.09591 0.0
O504 O 0.60288 0.81815 0.10827 0.0
C505 C 0.64007 0.81393 0.15831 0.0
C506 C 0.59769 0.72296 0.11778 0.0
C507 C 0.61882 0.71221 0.07454 0.0
N508 N 0.62232 0.76138 0.09638 0.0
C509 C 0.60738 0.7523 0.11762 0.0
C510 C 0.62817 0.74172 0.07507 0.0
C511 C 0.60346 0.70283 0.09606 0.0
C512 C 0.68908 0.884 0.11631 0.0
N513 N 0.67218 0.87925 0.1367 0.0
C514 C 0.71322 0.88733 0.12347 0.0
C515 C 0.71998 0.8858 0.15174 0.0
C516 C 0.70262 0.88099 0.17243 0.0
C517 C 0.67867 0.87774 0.16448 0.0
C518 C 0.63318 0.95381 0.1743 0.0
C519 C 0.60993 0.89825 0.1706 0.0
C520 C 0.64039 0.93179 0.15477 0.0
N521 N 0.62887 0.90436 0.15321 0.0
C522 C 0.60222 0.91972 0.19039 0.0
C523 C 0.61398 0.94766 0.19223 0.0
C524 C 0.59297 0.84425 0.11127 0.0
C525 C 0.63795 0.82555 0.01136 0.0
C526 C 0.60452 0.8015 0.04833 0.0
C527 C 0.59818 0.80643 0.0202 0.0
C528 C 0.61504 0.81856 1.00164 0.0
N529 N 0.62702 0.80842 0.05773 0.0
C530 C 0.64365 0.82029 0.03964 0.0
Co531 Co 0.38316 0.13894 0.6204 0.0
Co532 Co 0.38863 0.21183 0.59456 0.0
O533 O 0.37472 0.17078 0.59317 0.0
C534 C 0.39257 0.10541 0.56709 0.0
O535 O 0.40677 0.12776 0.55937 0.0
C536 C 0.33585 0.22291 0.58768 0.0
O537 O 0.3315 0.20051 0.60528 0.0
O538 O 0.37885 0.21651 0.63503 0.0
O539 O 0.3859 0.16938 0.65155 0.0
H540 H 0.4381 0.29582 0.63686 0.0
H541 H 0.33965 0.13067 0.58548 0.0
O542 O 0.38085 0.10714 0.59012 0.0
H543 H 0.31104 0.13121 0.68397 0.0
H544 H 0.37614 0.03513 0.66484 0.0
H545 H 0.41908 0.13331 0.66625 0.0
H546 H 0.35409 0.13659 0.6733 0.0
H547 H 0.36545 0.07592 0.63135 0.0
O548 O 0.35738 0.23028 0.58187 0.0
H549 H 0.42061 0.24427 0.63437 0.0
H550 H 0.38552 0.26687 0.55767 0.0
H551 H 0.43021 0.09324 0.70026 0.0
H552 H 0.29645 0.1248 0.59521 0.0
H553 H 0.40867 0.04372 0.6997 0.0
H554 H 0.2819 0.12518 0.64476 0.0
O555 O 0.41779 0.14435 0.61204 0.0
H556 H 0.37569 0.18256 0.4932 0.0
H557 H 0.43365 0.22328 0.56201 0.0
H558 H 0.4461 0.21593 0.51256 0.0
H559 H 0.41699 0.1955 0.47773 0.0
H560 H 0.36409 0.18997 0.54296 0.0
H561 H 0.40243 0.31874 0.55948 0.0
H562 H 0.42902 0.33346 0.59923 0.0
O563 O 0.4207 0.19496 0.60626 0.0
C564 C 0.38184 0.19766 0.65523 0.0
C565 C 0.42658 0.28966 0.6194 0.0
C566 C 0.40654 0.30253 0.576 0.0
N567 N 0.40216 0.25252 0.59584 0.0
C568 C 0.41667 0.26048 0.61785 0.0
C569 C 0.39695 0.27315 0.57514 0.0
C570 C 0.42147 0.31077 0.5983 0.0
C571 C 0.33346 0.13051 0.6071 0.0
N572 N 0.34937 0.13389 0.62878 0.0
C573 C 0.30898 0.12733 0.61248 0.0
C574 C 0.30082 0.1276 0.64028 0.0
C575 C 0.31716 0.13101 0.66229 0.0
C576 C 0.34151 0.13417 0.65611 0.0
C577 C 0.38562 0.05664 0.66534 0.0
C578 C 0.40952 0.1119 0.66598 0.0
C579 C 0.37968 0.0798 0.64639 0.0
N580 N 0.39149 0.10707 0.647 0.0
C581 C 0.41595 0.08926 0.68524 0.0
C582 C 0.40387 0.06147 0.68489 0.0
C583 C 0.43013 0.16861 0.60932 0.0
C584 C 0.38853 0.19153 0.50816 0.0
C585 C 0.42093 0.21422 0.54705 0.0
C586 C 0.42805 0.21021 0.51903 0.0
C587 C 0.41171 0.19876 0.4995 0.0
N588 N 0.39815 0.20712 0.55538 0.0
C589 C 0.38203 0.19586 0.53635 0.0
Co590 Co 0.6436 0.13428 0.90569 0.0
Co591 Co 0.63541 0.20994 0.92527 0.0
O592 O 0.64919 0.16897 0.93115 0.0
C593 C 0.63908 0.10743 0.96455 0.0
O594 O 0.64149 0.13408 0.97675 0.0
C595 C 0.688 0.22107 0.93242 0.0
O596 O 0.69208 0.19731 0.91627 0.0
O597 O 0.64613 0.21082 0.88496 0.0
O598 O 0.64707 0.16152 0.87222 0.0
H599 H 0.58698 0.28919 0.87432 0.0
H600 H 0.68238 0.13264 0.94884 0.0
O601 O 0.63983 0.10485 0.93781 0.0
H602 H 0.72254 0.11259 0.85808 0.0
H603 H 0.65177 0.02597 0.87148 0.0
H604 H 0.61471 0.12619 0.85386 0.0
H605 H 0.67884 0.12042 0.8601 0.0
H606 H 0.65961 0.06923 0.90338 0.0
O607 O 0.66652 0.22942 0.93742 0.0
H608 H 0.60421 0.23809 0.88191 0.0
H609 H 0.63793 0.26856 0.95712 0.0
H610 H 0.6066 0.0836 0.82123 0.0
H611 H 0.72599 0.12446 0.9479 0.0
H612 H 0.62519 0.03305 0.82997 0.0
H613 H 0.74644 0.11448 0.90225 0.0
O614 O 0.60834 0.14141 0.90725 0.0
H615 H 0.64591 0.19596 0.02984 0.0
H616 H 0.58891 0.22251 0.95428 0.0
H617 H 0.5751 0.22167 1.00368 0.0
H618 H 0.6037 0.20844 0.04189 0.0
H619 H 0.65889 0.19658 0.9801 0.0
H620 H 0.62121 0.32004 0.95025 0.0
H621 H 0.59547 0.3306 0.90865 0.0
O622 O 0.60384 0.19184 0.91364 0.0
C623 C 0.64874 0.18982 0.86658 0.0
C624 C 0.59815 0.28487 0.89255 0.0
C625 C 0.61738 0.30219 0.93514 0.0
N626 N 0.62201 0.25032 0.91995 0.0
C627 C 0.60792 0.25597 0.89697 0.0
C628 C 0.62686 0.27301 0.93887 0.0
C629 C 0.60293 0.30809 0.91181 0.0
C630 C 0.69099 0.1279 0.92895 0.0
N631 N 0.67795 0.12692 0.90457 0.0
C632 C 0.71577 0.12346 0.92852 0.0
C633 C 0.72724 0.11794 0.9029 0.0
C634 C 0.71385 0.11692 0.87812 0.0
C635 C 0.68911 0.12152 0.87937 0.0
C636 C 0.6436 0.0479 0.86742 0.0
C637 C 0.623 0.10431 0.85768 0.0
C638 C 0.64792 0.07247 0.88546 0.0
N639 N 0.63778 0.1003 0.88035 0.0
C640 C 0.61828 0.08026 0.83919 0.0
C641 C 0.6287 0.05189 0.84413 0.0
C642 C 0.59535 0.16524 0.90921 0.0
C643 C 0.63328 0.20181 0.01338 0.0
C644 C 0.60144 0.21643 0.97073 0.0
C645 C 0.59353 0.21614 0.99869 0.0
C646 C 0.60959 0.20876 0.02013 0.0
N647 N 0.6247 0.20954 0.96427 0.0
C648 C 0.64056 0.20234 0.98518 0.0
Co649 Co 0.382 0.8763 0.40835 0.0
Co650 Co 0.39175 0.80013 0.42204 0.0
O651 O 0.37738 0.83973 0.43117 0.0
C652 C 0.39802 0.90532 0.46255 0.0
O653 O 0.41679 0.88731 0.46351 0.0
C654 C 0.33973 0.78725 0.42976 0.0
O655 O 0.33544 0.81091 0.41361 0.0
O656 O 0.37984 0.80201 0.38221 0.0
O657 O 0.38118 0.85204 0.37272 0.0
H658 H 0.43968 0.72634 0.36376 0.0
H659 H 0.34297 0.87401 0.45063 0.0
O660 O 0.38234 0.90222 0.44325 0.0
H661 H 0.30281 0.89361 0.35979 0.0
H662 H 0.36881 0.98636 0.3825 0.0
H663 H 0.41193 0.89167 0.35867 0.0
H664 H 0.34678 0.88903 0.36228 0.0
H665 H 0.36252 0.93968 0.41047 0.0
O666 O 0.36131 0.77909 0.43443 0.0
H667 H 0.42188 0.77623 0.37547 0.0
H668 H 0.39124 0.73927 0.45004 0.0
H669 H 0.41857 0.93778 0.32996 0.0
H670 H 0.29894 0.87883 0.44923 0.0
H671 H 0.39693 0.98557 0.34184 0.0
H672 H 0.27857 0.88854 0.40353 0.0
O673 O 0.41747 0.87107 0.41025 0.0
H674 H 0.38493 0.80943 0.52747 0.0
H675 H 0.43907 0.7857 0.44813 0.0
H676 H 0.4546 0.78424 0.49681 0.0
H677 H 0.42743 0.79607 0.5369 0.0
H678 H 0.37018 0.81089 0.47844 0.0
H679 H 0.40854 0.68891 0.43902 0.0
H680 H 0.43304 0.68224 0.39566 0.0
O681 O 0.42263 0.82021 0.41029 0.0
C682 C 0.37887 0.82436 0.365 0.0
C683 C 0.42909 0.72898 0.38276 0.0
C684 C 0.41158 0.70796 0.42497 0.0
N685 N 0.40566 0.76069 0.41348 0.0
C686 C 0.41902 0.75718 0.38953 0.0
C687 C 0.40178 0.7365 0.43106 0.0
C688 C 0.42534 0.70424 0.40065 0.0
C689 C 0.33424 0.87849 0.4307 0.0
N690 N 0.34744 0.88106 0.40651 0.0
C691 C 0.3093 0.8811 0.43003 0.0
C692 C 0.29788 0.88649 0.40437 0.0
C693 C 0.31147 0.88928 0.37982 0.0
C694 C 0.33637 0.88648 0.38131 0.0
C695 C 0.37832 0.96567 0.37709 0.0
C696 C 0.40234 0.91233 0.36386 0.0
C697 C 0.37488 0.93917 0.39289 0.0
N698 N 0.38672 0.9129 0.38608 0.0
C699 C 0.40622 0.93839 0.34758 0.0
C700 C 0.39409 0.9652 0.35427 0.0
C701 C 0.43079 0.84742 0.40906 0.0
C702 C 0.39692 0.80414 0.51018 0.0
C703 C 0.42714 0.79098 0.46545 0.0
C704 C 0.43603 0.79005 0.49298 0.0
C705 C 0.42078 0.79668 0.51546 0.0
N706 N 0.40369 0.7982 0.46045 0.0
C707 C 0.38866 0.80483 0.48238 0.0
Co708 Co 0.36577 0.14161 0.90172 0.0
Co709 Co 0.37654 0.1764 0.96582 0.0
O710 O 0.36037 0.17442 0.92907 0.0
C711 C 0.37663 0.1938 0.86302 0.0
O712 O 0.39358 0.20287 0.8803 0.0
C713 C 0.32464 0.18335 0.98063 0.0
O714 O 0.31988 0.16119 0.96288 0.0
O715 O 0.36715 0.1336 0.97485 0.0
O716 O 0.36793 0.11052 0.93258 0.0
H717 H 0.43032 0.13821 0.04308 0.0
H718 H 0.32401 0.18258 0.89514 0.0
O719 O 0.36332 0.17129 0.86954 0.0
H720 H 0.28991 0.07935 0.90373 0.0
H721 H 0.35183 0.08527 0.81054 0.0
H722 H 0.39863 0.08863 0.89872 0.0
H723 H 0.33365 0.08719 0.90463 0.0
H724 H 0.34468 0.12573 0.84568 0.0
O725 O 0.34624 0.19203 0.98421 0.0
H726 H 0.4101 0.1362 0.99685 0.0
H727 H 0.37661 0.22135 0.0131 0.0
H728 H 0.40619 0.04758 0.86427 0.0
H729 H 0.28014 0.17579 0.89379 0.0
H730 H 0.3827 0.04575 0.81979 0.0
H731 H 0.26282 0.12387 0.89823 0.0
O732 O 0.40117 0.14813 0.90354 0.0
H733 H 0.36233 0.28315 0.93144 0.0
H734 H 0.42246 0.2112 0.96847 0.0
H735 H 0.4347 0.26352 0.95616 0.0
H736 H 0.40451 0.29992 0.93757 0.0
H737 H 0.3509 0.23051 0.9438 0.0
H738 H 0.39631 0.22416 0.05961 0.0
H739 H 0.42347 0.18243 0.07482 0.0
O740 O 0.40738 0.16148 0.94875 0.0
C741 C 0.36674 0.1097 0.95946 0.0
C742 C 0.41858 0.15657 0.03666 0.0
C743 C 0.39947 0.20479 0.04595 0.0
N744 N 0.39231 0.17871 1.00222 0.0
C745 C 0.40713 0.1556 0.01048 0.0
C746 C 0.38831 0.20303 0.01963 0.0
C747 C 0.41471 0.18138 0.05447 0.0
C748 C 0.31661 0.1599 0.89686 0.0
N749 N 0.33138 0.13531 0.90005 0.0
C750 C 0.29175 0.1562 0.89618 0.0
C751 C 0.28205 0.12708 0.89871 0.0
C752 C 0.29724 0.10209 0.90184 0.0
C753 C 0.322 0.10667 0.90248 0.0
C754 C 0.36215 0.0858 0.82987 0.0
C755 C 0.38823 0.08787 0.8795 0.0
C756 C 0.35822 0.1087 0.84982 0.0
N757 N 0.37112 0.10942 0.87433 0.0
C758 C 0.39263 0.06462 0.86004 0.0
C759 C 0.37947 0.06362 0.83507 0.0
C760 C 0.41501 0.15382 0.92433 0.0
C761 C 0.37563 0.26752 0.93961 0.0
C762 C 0.40923 0.22687 0.96032 0.0
C763 C 0.41626 0.25649 0.95344 0.0
C764 C 0.39931 0.27691 0.94302 0.0
N765 N 0.38594 0.21787 0.95701 0.0
C766 C 0.36925 0.23773 0.94672 0.0
Co767 Co 0.66042 0.8702 0.40373 0.0
Co768 Co 0.64889 0.83588 0.46786 0.0
O769 O 0.66524 0.83738 0.43116 0.0
C770 C 0.6489 0.8179 0.36549 0.0
O771 O 0.63218 0.80909 0.3832 0.0
C772 C 0.7006 0.82827 0.48297 0.0
O773 O 0.70558 0.85043 0.46532 0.0
O774 O 0.65875 0.87855 0.47685 0.0
O775 O 0.65865 0.90142 0.43451 0.0
H776 H 0.59527 0.87545 0.54482 0.0
H777 H 0.70154 0.82818 0.39722 0.0
O778 O 0.66243 0.84034 0.37161 0.0
H779 H 0.73721 0.93054 0.40596 0.0
H780 H 0.6755 0.92585 0.31248 0.0
H781 H 0.62839 0.92397 0.40056 0.0
H782 H 0.69336 0.92381 0.40676 0.0
H783 H 0.68191 0.88534 0.34772 0.0
O784 O 0.67893 0.81979 0.48639 0.0
H785 H 0.61571 0.87687 0.49867 0.0
H786 H 0.64809 0.79114 0.51525 0.0
H787 H 0.62157 0.96508 0.366 0.0
H788 H 0.74552 0.83387 0.396 0.0
H789 H 0.64521 0.96617 0.32158 0.0
H790 H 0.76362 0.88534 0.40049 0.0
O791 O 0.62494 0.86457 0.40547 0.0
H792 H 0.66201 0.72873 0.43383 0.0
H793 H 0.60256 0.80196 0.47041 0.0
H794 H 0.58976 0.74984 0.45817 0.0
H795 H 0.6196 0.71279 0.43979 0.0
H796 H 0.674 0.78119 0.44611 0.0
H797 H 0.62816 0.78891 0.56169 0.0
H798 H 0.60146 0.83123 0.57669 0.0
O799 O 0.6183 0.85129 0.45062 0.0
C800 C 0.65968 0.90235 0.46139 0.0
C801 C 0.60681 0.85683 0.53849 0.0
C802 C 0.6253 0.80828 0.54797 0.0
N803 N 0.63295 0.83403 0.5042 0.0
C804 C 0.61838 0.85747 0.51235 0.0
C805 C 0.63658 0.80971 0.52169 0.0
C806 C 0.61031 0.83203 0.55637 0.0
C807 C 0.7093 0.85067 0.39897 0.0
N808 N 0.6949 0.87563 0.40211 0.0
C809 C 0.73421 0.85374 0.39836 0.0
C810 C 0.74435 0.88262 0.40092 0.0
C811 C 0.72955 0.90799 0.40403 0.0
C812 C 0.70472 0.90403 0.4046 0.0
C813 C 0.66512 0.92565 0.33178 0.0
C814 C 0.63886 0.92441 0.38136 0.0
C815 C 0.66863 0.90273 0.35179 0.0
N816 N 0.65565 0.90241 0.37627 0.0
C817 C 0.63487 0.94769 0.36184 0.0
C818 C 0.64813 0.94827 0.3369 0.0
C819 C 0.61092 0.85913 0.42616 0.0
C820 C 0.64885 0.74464 0.44189 0.0
C821 C 0.61564 0.78601 0.46235 0.0
C822 C 0.60829 0.7565 0.45551 0.0
C823 C 0.62505 0.73572 0.44521 0.0
N824 N 0.63904 0.79455 0.45912 0.0
C825 C 0.65556 0.77434 0.44897 0.0
Co826 Co 0.36364 0.87126 0.1112 0.0
Co827 Co 0.37325 0.83327 0.04808 0.0
O828 O 0.35732 0.83766 0.08487 0.0
C829 C 0.37577 0.82302 0.15435 0.0
O830 O 0.39496 0.81508 0.1401 0.0
C831 C 0.32097 0.8291 0.03358 0.0
O832 O 0.31659 0.85111 0.05163 0.0
O833 O 0.36609 0.87661 0.03785 0.0
O834 O 0.3655 0.90109 0.07945 0.0
H835 H 0.42919 0.86467 0.97025 0.0
H836 H 0.32163 0.83114 0.1198 0.0
O837 O 0.36128 0.84275 0.14437 0.0
H838 H 0.28833 0.93466 0.10984 0.0
H839 H 0.35197 0.93093 0.20105 0.0
H840 H 0.39709 0.92373 0.11177 0.0
H841 H 0.33196 0.92609 0.10799 0.0
H842 H 0.34367 0.88954 0.16726 0.0
O843 O 0.34237 0.81972 0.02988 0.0
H844 H 0.40899 0.86959 0.01634 0.0
H845 H 0.37105 0.78719 1.00174 0.0
H846 H 0.40577 0.9657 0.14484 0.0
H847 H 0.27786 0.83867 0.12215 0.0
H848 H 0.38315 0.96947 0.18987 0.0
H849 H 0.26094 0.89072 0.11702 0.0
O850 O 0.399 0.86442 0.10857 0.0
H851 H 0.35322 0.72917 0.08526 0.0
H852 H 0.41699 0.79406 0.04563 0.0
H853 H 0.42628 0.74112 0.05909 0.0
H854 H 0.39424 0.70823 0.07899 0.0
H855 H 0.34478 0.78239 0.07178 0.0
H856 H 0.39069 0.78151 0.95539 0.0
H857 H 0.42007 0.82037 0.93942 0.0
O858 O 0.40464 0.84581 0.06491 0.0
C859 C 0.36518 0.901 0.05255 0.0
C860 C 0.41647 0.84755 0.977 0.0
C861 C 0.39483 0.8009 0.96864 0.0
N862 N 0.38895 0.82864 0.01178 0.0
C863 C 0.40501 0.85017 1.0031 0.0
C864 C 0.38371 0.80429 0.99487 0.0
C865 C 0.41132 0.8227 0.9597 0.0
C866 C 0.3144 0.85389 0.11774 0.0
N867 N 0.32934 0.87815 0.11361 0.0
C868 C 0.2896 0.85799 0.11901 0.0
C869 C 0.28012 0.8872 0.11609 0.0
C870 C 0.29547 0.91185 0.11201 0.0
C871 C 0.32017 0.90686 0.11081 0.0
C872 C 0.36192 0.92956 0.18148 0.0
C873 C 0.38705 0.92532 0.13123 0.0
C874 C 0.35736 0.90611 0.16229 0.0
N875 N 0.3698 0.90429 0.13747 0.0
C876 C 0.3921 0.94909 0.14991 0.0
C877 C 0.37942 0.95118 0.17519 0.0
C878 C 0.41261 0.85572 0.08843 0.0
C879 C 0.36732 0.74326 0.07657 0.0
C880 C 0.40299 0.77999 0.05444 0.0
C881 C 0.40834 0.74997 0.06193 0.0
C882 C 0.39035 0.73153 0.07307 0.0
N883 N 0.38036 0.79131 0.05788 0.0
C884 C 0.36264 0.77338 0.06884 0.0
Co885 Co 0.65863 0.14321 0.61037 0.0
Co886 Co 0.65008 0.1796 0.54592 0.0
O887 O 0.66484 0.17647 0.58354 0.0
C888 C 0.64002 0.17653 0.66027 0.0
O889 O 0.61994 0.16156 0.65636 0.0
C890 C 0.7029 0.18435 0.53364 0.0
O891 O 0.70728 0.164 0.55327 0.0
O892 O 0.65753 0.13591 0.53729 0.0
O893 O 0.66011 0.11244 0.57935 0.0
H894 H 0.59664 0.14528 0.46679 0.0
H895 H 0.69782 0.18694 0.62183 0.0
O896 O 0.65727 0.17348 0.64266 0.0
H897 H 0.737 0.08644 0.61564 0.0
H898 H 0.66904 0.08613 0.70185 0.0
H899 H 0.62741 0.08861 0.61012 0.0
H900 H 0.69323 0.09121 0.61013 0.0
H901 H 0.67698 0.12742 0.66783 0.0
O902 O 0.68142 0.1925 0.52852 0.0
H903 H 0.61539 0.14208 0.51382 0.0
H904 H 0.65365 0.22406 0.49835 0.0
H905 H 0.61903 0.04679 0.64345 0.0
H906 H 0.74163 0.1832 0.62785 0.0
H907 H 0.6399 0.0454 0.68971 0.0
H908 H 0.76151 0.13267 0.62466 0.0
O909 O 0.62332 0.14707 0.60456 0.0
H910 H 0.66918 0.28506 0.5805 0.0
H911 H 0.60655 0.21881 0.54035 0.0
H912 H 0.597 0.27231 0.55154 0.0
H913 H 0.62848 0.30589 0.57167 0.0
H914 H 0.67786 0.23128 0.56929 0.0
H915 H 0.63548 0.22799 0.45108 0.0
H916 H 0.60667 0.18847 0.43506 0.0
O917 O 0.61823 0.16779 0.56174 0.0
C918 C 0.65999 0.11201 0.55243 0.0
C919 C 0.60912 0.16267 0.47355 0.0
C920 C 0.63095 0.20907 0.46472 0.0
N921 N 0.63551 0.18292 0.50888 0.0
C922 C 0.61976 0.16103 0.50018 0.0
C923 C 0.64124 0.20667 0.49148 0.0
C924 C 0.61478 0.1869 0.45575 0.0
C925 C 0.70632 0.16485 0.62066 0.0
N926 N 0.69298 0.13932 0.61566 0.0
C927 C 0.73114 0.16288 0.62398 0.0
C928 C 0.74229 0.13453 0.62214 0.0
C929 C 0.72856 0.10859 0.61705 0.0
C930 C 0.70378 0.11144 0.61381 0.0
C931 C 0.65985 0.08646 0.68175 0.0
C932 C 0.63663 0.08809 0.63016 0.0
C933 C 0.66425 0.1098 0.66241 0.0
N934 N 0.65271 0.11038 0.63697 0.0
C935 C 0.63179 0.06438 0.64897 0.0
C936 C 0.6435 0.06362 0.67492 0.0
C937 C 0.60999 0.15645 0.58452 0.0
C938 C 0.65532 0.27067 0.5717 0.0
C939 C 0.62028 0.23317 0.54932 0.0
C940 C 0.6148 0.26351 0.5555 0.0
C941 C 0.63247 0.28234 0.56677 0.0
N942 N 0.64274 0.22192 0.55414 0.0
C943 C 0.66015 0.24022 0.56525 0.0
H944 H 0.06908 0.39477 0.08719 0.0
H945 H 0.06205 0.30468 0.12293 0.0
H946 H 0.02543 0.39885 0.08419 0.0
H947 H 0.01829 0.30924 0.12054 0.0
H948 H 0.94073 0.34911 0.13798 0.0
H949 H 0.98445 0.34664 0.14322 0.0
H950 H 0.9929 0.36693 0.05473 0.0
H951 H 0.94936 0.3686 0.04922 0.0
C952 C 0.05824 0.37596 0.09468 0.0
C953 C 0.06907 0.34939 0.1053 0.0
C954 C 0.03326 0.3783 0.09286 0.0
C955 C 0.01851 0.35441 0.1022 0.0
C956 C 0.02926 0.32808 0.11337 0.0
C957 C 0.05429 0.32543 0.1146 0.0
C958 C 0.95193 0.35329 0.11971 0.0
C959 C 0.94156 0.35911 0.09319 0.0
C960 C 0.97691 0.35166 0.12268 0.0
C961 C 0.99202 0.35658 0.09937 0.0
C962 C 0.98168 0.36318 0.07306 0.0
C963 C 0.95675 0.36408 0.06993 0.0
H964 H 0.96341 0.70983 0.62276 0.0
H965 H 0.95735 0.62027 0.58556 0.0
H966 H 1.00719 0.70641 0.61955 0.0
H967 H 1.00101 0.61732 0.58178 0.0
H968 H 0.0771 0.6476 0.54799 0.0
H969 H 0.03349 0.64953 0.55299 0.0
H970 H 0.04116 0.66975 0.64161 0.0
H971 H 0.08487 0.6671 0.63688 0.0
C972 C 0.97139 0.68946 0.61388 0.0
C973 C 0.95688 0.66529 0.60448 0.0
C974 C 0.99643 0.68747 0.61216 0.0
C975 C 1.00746 0.6616 0.60041 0.0
C976 C 0.99297 0.63756 0.59084 0.0
C977 C 0.96799 0.63923 0.59313 0.0
C978 C 0.06952 0.65227 0.56859 0.0
C979 C 0.08448 0.65706 0.59206 0.0
C980 C 0.04455 0.6533 0.57144 0.0
C981 C 0.03397 0.65985 0.59767 0.0
C982 C 0.04887 0.66479 0.62113 0.0
C983 C 0.07386 0.66307 0.61843 0.0
H984 H 0.93775 0.66244 0.87782 0.0
H985 H 0.94727 0.64308 0.96647 0.0
H986 H 0.98143 0.6644 0.87181 0.0
H987 H 0.99076 0.64424 0.96019 0.0
H988 H 0.06662 0.61644 0.92686 0.0
H989 H 0.02299 0.61217 0.93021 0.0
H990 H 0.01542 0.7018 0.89402 0.0
H991 H 0.05913 0.70654 0.89127 0.0
C992 C 0.94914 0.65816 0.8959 0.0
C993 C 0.93905 0.65257 0.92262 0.0
C994 C 0.97409 0.65948 0.89248 0.0
C995 C 0.98942 0.65447 0.91554 0.0
C996 C 0.97935 0.64803 0.94204 0.0
C997 C 0.95446 0.64744 0.94562 0.0
C998 C 0.05568 0.63519 0.91945 0.0
C999 C 0.06637 0.66185 0.9088 0.0
C1000 C 0.03072 0.63276 0.92148 0.0
C1001 C 0.01587 0.65662 0.91231 0.0
C1002 C 0.02647 0.68299 0.90105 0.0
C1003 C 0.05147 0.68573 0.89961 0.0
H1004 H 0.08556 0.34851 0.37684 0.0
H1005 H 0.07748 0.37049 0.46522 0.0
H1006 H 0.04184 0.34631 0.37195 0.0
H1007 H 0.0339 0.36897 0.46005 0.0
H1008 H 0.95765 0.39625 0.42769 0.0
H1009 H 1.00132 0.40009 0.43068 0.0
H1010 H 1.00816 0.31012 0.39488 0.0
H1011 H 0.96444 0.30584 0.39243 0.0
C1012 C 0.07448 0.35324 0.39511 0.0
C1013 C 0.08499 0.35971 0.42142 0.0
C1014 C 0.0495 0.35178 0.39233 0.0
C1015 C 0.03454 0.35748 0.41562 0.0
C1016 C 0.04502 0.36465 0.44173 0.0
C1017 C 0.06996 0.36543 0.44468 0.0
C1018 C 0.96845 0.37732 0.42034 0.0
C1019 C 0.95756 0.35072 0.40983 0.0
C1020 C 0.99342 0.37951 0.42217 0.0
C1021 C 1.00807 0.35544 0.41296 0.0
C1022 C 0.99726 0.32908 0.40194 0.0
C1023 C 0.97226 0.3266 0.40068 0.0
H1024 H 0.4385 0.87816 0.13348 0.0
H1025 H 0.44704 0.83352 0.05271 0.0
H1026 H 0.48198 0.87587 0.14056 0.0
H1027 H 0.49004 0.83088 0.06014 0.0
H1028 H 0.56095 0.7988 0.09863 0.0
H1029 H 0.51759 0.80268 0.09407 0.0
H1030 H 0.52071 0.89749 0.11787 0.0
H1031 H 0.56432 0.89395 0.12204 0.0
C1032 C 0.44954 0.86789 0.11725 0.0
C1033 C 0.43909 0.85577 0.09263 0.0
C1034 C 0.47445 0.86666 0.1213 0.0
C1035 C 0.48939 0.8529 0.10103 0.0
C1036 C 0.47898 0.84118 0.07635 0.0
C1037 C 0.45424 0.8428 0.0721 0.0
C1038 C 0.55253 0.82055 0.10285 0.0
C1039 C 0.56632 0.84617 0.11029 0.0
C1040 C 0.52762 0.82274 0.10021 0.0
C1041 C 0.51575 0.85045 0.1054 0.0
C1042 C 0.52935 0.87582 0.11381 0.0
C1043 C 0.55436 0.87377 0.11605 0.0
H1044 H 0.58396 0.12918 0.62701 0.0
H1045 H 0.57572 0.18166 0.55043 0.0
H1046 H 0.54059 0.13136 0.63454 0.0
H1047 H 0.5327 0.18393 0.55818 0.0
H1048 H 0.46277 0.21414 0.59988 0.0
H1049 H 0.50596 0.2095 0.59433 0.0
H1050 H 0.50146 0.11312 0.61145 0.0
H1051 H 0.45798 0.11748 0.61671 0.0
C1052 C 0.573 0.14115 0.61178 0.0
C1053 C 0.58351 0.15564 0.58832 0.0
C1054 C 0.54814 0.14226 0.61605 0.0
C1055 C 0.5333 0.15816 0.59714 0.0
C1056 C 0.54372 0.17198 0.5734 0.0
C1057 C 0.56844 0.17056 0.56893 0.0
C1058 C 0.47085 0.19189 0.60249 0.0
C1059 C 0.45671 0.16611 0.60838 0.0
C1060 C 0.49566 0.18926 0.59922 0.0
C1061 C 0.50707 0.1609 0.60215 0.0
C1062 C 0.49315 0.13528 0.60911 0.0
C1063 C 0.46823 0.13782 0.61203 0.0
H1064 H 0.56188 0.20805 0.89426 0.0
H1065 H 0.56879 0.11471 0.92199 0.0
H1066 H 0.51812 0.20316 0.8956 0.0
H1067 H 0.52508 0.11029 0.92409 0.0
H1068 H 0.44946 0.14062 0.96332 0.0
H1069 H 0.49299 0.14153 0.95713 0.0
H1070 H 0.48392 0.1668 0.86986 0.0
H1071 H 0.44021 0.16497 0.87572 0.0
C1072 C 0.55409 0.18645 0.90045 0.0
C1073 C 0.56886 0.16175 0.90796 0.0
C1074 C 0.52906 0.18366 0.90113 0.0
C1075 C 0.51826 0.15636 0.90998 0.0
C1076 C 0.53296 0.13159 0.91722 0.0
C1077 C 0.55797 0.13411 0.91588 0.0
C1078 C 0.45671 0.14605 0.94272 0.0
C1079 C 0.44136 0.15262 0.91998 0.0
C1080 C 0.48163 0.14649 0.93919 0.0
C1081 C 0.49179 0.15425 0.91304 0.0
C1082 C 0.47652 0.16078 0.89025 0.0
C1083 C 0.45154 0.15957 0.89358 0.0
H1084 H 0.46471 0.80669 0.39083 0.0
H1085 H 0.45687 0.89728 0.42539 0.0
H1086 H 0.50836 0.81201 0.39278 0.0
H1087 H 0.5005 0.90209 0.428 0.0
H1088 H 0.57612 0.8712 0.46517 0.0
H1089 H 0.53266 0.87064 0.45849 0.0
H1090 H 0.54252 0.84856 0.37053 0.0
H1091 H 0.58614 0.84992 0.37695 0.0
C1092 C 0.47226 0.82781 0.39864 0.0
C1093 C 0.45724 0.85155 0.40796 0.0
C1094 C 0.49725 0.83086 0.39966 0.0
C1095 C 0.50779 0.85743 0.4106 0.0
C1096 C 0.49284 0.88133 0.41955 0.0
C1097 C 0.46785 0.87858 0.41793 0.0
C1098 C 0.56905 0.86655 0.44433 0.0
C1099 C 0.5846 0.86069 0.42158 0.0
C1100 C 0.54418 0.86634 0.4405 0.0
C1101 C 0.53424 0.85955 0.414 0.0
C1102 C 0.54972 0.85381 0.39119 0.0
C1103 C 0.57466 0.85476 0.39485 0.0
H1104 H 0.17815 0.2863 0.18153 0.0
H1105 H 0.10946 0.32968 0.19287 0.0
H1106 H 0.18118 0.2789 0.23295 0.0
H1107 H 0.11213 0.32177 0.24371 0.0
H1108 H 0.18658 0.3289 0.32383 0.0
H1109 H 0.18503 0.31974 0.27301 0.0
H1110 H 0.11464 0.28026 0.28209 0.0
H1111 H 0.11623 0.28907 0.33303 0.0
C1112 C 0.16344 0.29338 0.19495 0.0
C1113 C 0.14355 0.30846 0.18337 0.0
C1114 C 0.16521 0.28936 0.22429 0.0
C1115 C 0.14684 0.29968 0.24233 0.0
C1116 C 0.12642 0.31322 0.2304 0.0
C1117 C 0.12492 0.31785 0.20131 0.0
C1118 C 0.17102 0.31755 0.31511 0.0
C1119 C 0.15145 0.30992 0.33248 0.0
C1120 C 0.1702 0.31216 0.286 0.0
C1121 C 0.14966 0.29945 0.27355 0.0
C1122 C 0.13066 0.29022 0.29111 0.0
C1123 C 0.13163 0.29515 0.3203 0.0
H1124 H 0.91638 0.67983 0.69547 0.0
H1125 H 0.84979 0.7282 0.68394 0.0
H1126 H 0.91389 0.68796 0.74626 0.0
H1127 H 0.84698 0.73591 0.73533 0.0
H1128 H 0.91144 0.72141 0.83538 0.0
H1129 H 0.91347 0.72949 0.78438 0.0
H1130 H 0.84108 0.69629 0.77577 0.0
H1131 H 0.83904 0.68791 0.82668 0.0
C1132 C 0.9014 0.6927 0.70384 0.0
C1133 C 0.88329 0.70343 0.68581 0.0
C1134 C 0.90003 0.6975 0.73292 0.0
C1135 C 0.88026 0.71261 0.74481 0.0
C1136 C 0.86243 0.7242 0.72672 0.0
C1137 C 0.8641 0.71998 0.69737 0.0
C1138 C 0.89573 0.71657 0.82275 0.0
C1139 C 0.87515 0.70378 0.83511 0.0
C1140 C 0.89695 0.72107 0.79351 0.0
C1141 C 0.87748 0.71336 0.77606 0.0
C1142 C 0.8563 0.70266 0.78866 0.0
C1143 C 0.85519 0.69773 0.81783 0.0
H1144 H 0.17517 0.72711 0.83353 0.0
H1145 H 0.10721 0.68237 0.82092 0.0
H1146 H 0.17866 0.73505 0.78222 0.0
H1147 H 0.11032 0.69087 0.77018 0.0
H1148 H 0.18539 0.68553 0.691 0.0
H1149 H 0.1833 0.6942 0.74188 0.0
H1150 H 0.11284 0.73334 0.73229 0.0
H1151 H 0.11499 0.72508 0.68129 0.0
C1152 C 0.16071 0.71983 0.81987 0.0
C1153 C 0.1409 0.70422 0.83105 0.0
C1154 C 0.16275 0.72418 0.79059 0.0
C1155 C 0.14471 0.71367 0.77223 0.0
C1156 C 0.12435 0.69957 0.78377 0.0
C1157 C 0.12261 0.6946 0.81279 0.0
C1158 C 0.16971 0.69674 0.69963 0.0
C1159 C 0.15029 0.70443 0.68209 0.0
C1160 C 0.16858 0.70182 0.72877 0.0
C1161 C 0.14786 0.71429 0.74106 0.0
C1162 C 0.129 0.72359 0.72337 0.0
C1163 C 0.13029 0.71897 0.69415 0.0
H1164 H 0.91399 0.29071 0.18166 0.0
H1165 H 0.84135 0.3236 0.18981 0.0
H1166 H 0.91565 0.28246 0.23267 0.0
H1167 H 0.84301 0.31505 0.24069 0.0
H1168 H 0.85117 0.28417 0.33266 0.0
H1169 H 0.84888 0.27573 0.28132 0.0
H1170 H 0.91556 0.32423 0.27055 0.0
H1171 H 0.91752 0.33308 0.32126 0.0
C1172 C 0.89815 0.29534 0.19417 0.0
C1173 C 0.87761 0.30807 0.18168 0.0
C1174 C 0.89915 0.29074 0.2234 0.0
C1175 C 0.87951 0.29828 0.24069 0.0
C1176 C 0.85836 0.30881 0.22793 0.0
C1177 C 0.85747 0.31385 0.19878 0.0
C1178 C 0.86554 0.29234 0.31927 0.0
C1179 C 0.8845 0.30927 0.33081 0.0
C1180 C 0.86418 0.28769 0.28997 0.0
C1181 C 0.88208 0.29925 0.27193 0.0
C1182 C 0.90165 0.31471 0.28385 0.0
C1183 C 0.90271 0.31992 0.31288 0.0
H1184 H 0.61428 0.78514 0.33782 0.0
H1185 H 0.68471 0.82414 0.32656 0.0
H1186 H 0.6122 0.77461 0.2872 0.0
H1187 H 0.68258 0.81357 0.2761 0.0
H1188 H 0.67573 0.78252 0.18541 0.0
H1189 H 0.67901 0.77437 0.23667 0.0
H1190 H 0.60845 0.81295 0.24798 0.0
H1191 H 0.60546 0.82134 0.19729 0.0
C1192 C 0.62958 0.79073 0.32473 0.0
C1193 C 0.64956 0.80579 0.33622 0.0
C1194 C 0.62833 0.78481 0.29569 0.0
C1195 C 0.64715 0.79345 0.2776 0.0
C1196 C 0.66786 0.8064 0.28945 0.0
C1197 C 0.669 0.81264 0.31838 0.0
C1198 C 0.6607 0.78828 0.19889 0.0
C1199 C 0.6403 0.80237 0.18753 0.0
C1200 C 0.66263 0.78389 0.22817 0.0
C1201 C 0.64398 0.79302 0.24639 0.0
C1202 C 0.62299 0.80528 0.23459 0.0
C1203 C 0.62129 0.81017 0.20556 0.0
H1204 H 0.33997 0.18766 0.82526 0.0
H1205 H 0.41089 0.22591 0.83412 0.0
H1206 H 0.34113 0.1978 0.77467 0.0
H1207 H 0.41202 0.23594 0.78337 0.0
H1208 H 0.41655 0.18842 0.69358 0.0
H1209 H 0.41447 0.19665 0.74438 0.0
H1210 H 0.3444 0.23717 0.73489 0.0
H1211 H 0.3468 0.22924 0.68349 0.0
C1212 C 0.35559 0.19891 0.81653 0.0
C1213 C 0.37545 0.2057 0.83372 0.0
C1214 C 0.35617 0.20489 0.78753 0.0
C1215 C 0.37673 0.21747 0.77498 0.0
C1216 C 0.39599 0.22603 0.79243 0.0
C1217 C 0.39529 0.22041 0.82153 0.0
C1218 C 0.401 0.19989 0.70229 0.0
C1219 C 0.38189 0.20838 0.68473 0.0
C1220 C 0.39983 0.20471 0.73137 0.0
C1221 C 0.37928 0.21758 0.74369 0.0
C1222 C 0.36047 0.2272 0.72597 0.0
C1223 C 0.36188 0.2229 0.69662 0.0
H1224 H 0.62831 0.23636 0.83632 0.0
H1225 H 0.67771 0.16119 0.82889 0.0
H1226 H 0.62894 0.24265 0.78485 0.0
H1227 H 0.67838 0.16729 0.77796 0.0
H1228 H 0.68286 0.18765 0.68675 0.0
H1229 H 0.68863 0.19976 0.73669 0.0
H1230 H 0.61209 0.20876 0.74714 0.0
H1231 H 0.60634 0.19676 0.69742 0.0
C1232 C 0.63976 0.22172 0.82381 0.0
C1233 C 0.65271 0.198 0.83661 0.0
C1234 C 0.64003 0.22518 0.79435 0.0
C1235 C 0.65362 0.20536 0.77726 0.0
C1236 C 0.66788 0.18313 0.7904 0.0
C1237 C 0.66731 0.17941 0.81965 0.0
C1238 C 0.66733 0.19315 0.6995 0.0
C1239 C 0.64411 0.19092 0.68819 0.0
C1240 C 0.67062 0.19988 0.72817 0.0
C1241 C 0.6508 0.20491 0.74598 0.0
C1242 C 0.62776 0.20522 0.73404 0.0
C1243 C 0.62445 0.19816 0.70553 0.0
H1244 H 0.40738 0.79137 0.18805 0.0
H1245 H 0.33763 0.8342 0.18895 0.0
H1246 H 0.40561 0.78605 0.2395 0.0
H1247 H 0.33606 0.82898 0.24002 0.0
H1248 H 0.36612 0.86559 0.32479 0.0
H1249 H 0.36268 0.85837 0.27441 0.0
H1250 H 0.38188 0.76367 0.28366 0.0
H1251 H 0.38482 0.77067 0.3351 0.0
C1252 C 0.39143 0.79894 0.19904 0.0
C1253 C 0.37284 0.8137 0.18434 0.0
C1254 C 0.39041 0.79581 0.22852 0.0
C1255 C 0.37085 0.8075 0.24379 0.0
C1256 C 0.35152 0.82013 0.22885 0.0
C1257 C 0.35245 0.8231 0.19952 0.0
C1258 C 0.36919 0.84299 0.31644 0.0
C1259 C 0.37548 0.81864 0.33427 0.0
C1260 C 0.36718 0.83887 0.28739 0.0
C1261 C 0.37179 0.8104 0.27506 0.0
C1262 C 0.37815 0.78586 0.29265 0.0
C1263 C 0.37971 0.78986 0.32206 0.0
H1264 H 0.32813 0.21911 0.02784 0.0
H1265 H 0.27645 0.18238 0.96931 0.0
H1266 H 0.29605 0.24385 0.05406 0.0
H1267 H 0.24436 0.20838 0.99455 0.0
H1268 H 0.18815 0.23593 0.05869 0.0
H1269 H 0.2205 0.20962 0.03434 0.0
H1270 H 0.26871 0.28336 0.05528 0.0
H1271 H 0.23653 0.30877 0.0809 0.0
C1272 C 0.30989 0.21653 0.0204 0.0
C1273 C 0.30491 0.19864 0.99648 0.0
C1274 C 0.29139 0.23098 0.03537 0.0
C1275 C 0.26732 0.2284 0.02663 0.0
C1276 C 0.26246 0.21058 1.00249 0.0
C1277 C 0.28094 0.19574 0.9878 0.0
C1278 C 0.20571 0.24645 0.05822 0.0
C1279 C 0.2097 0.27447 0.07186 0.0
C1280 C 0.22433 0.23144 0.04397 0.0
C1281 C 0.24748 0.2442 0.04249 0.0
C1282 C 0.2514 0.27231 0.05623 0.0
C1283 C 0.23284 0.28708 0.07087 0.0
H1284 H 0.78825 0.7018 0.5825 0.0
H1285 H 0.83599 0.77628 0.56319 0.0
H1286 H 0.75614 0.7273 0.55684 0.0
H1287 H 0.80374 0.80255 0.53878 0.0
H1288 H 0.74894 0.82981 0.47262 0.0
H1289 H 0.78077 0.80374 0.49814 0.0
H1290 H 0.72837 0.76664 0.55595 0.0
H1291 H 0.69655 0.79155 0.52949 0.0
C1292 C 0.79181 0.72385 0.57311 0.0
C1293 C 0.81476 0.7369 0.5749 0.0
C1294 C 0.7733 0.73865 0.55845 0.0
C1295 C 0.77711 0.76717 0.54545 0.0
C1296 C 0.80004 0.7804 0.5478 0.0
C1297 C 0.81859 0.7654 0.56209 0.0
C1298 C 0.74423 0.81608 0.49079 0.0
C1299 C 0.72014 0.81281 0.49894 0.0
C1300 C 0.76256 0.8012 0.50565 0.0
C1301 C 0.75741 0.78294 0.5294 0.0
C1302 C 0.73323 0.77992 0.53758 0.0
C1303 C 0.71489 0.79445 0.52247 0.0
H1304 H 0.27279 0.83009 0.04535 0.0
H1305 H 0.32415 0.79476 0.98558 0.0
H1306 H 0.24061 0.80428 0.02009 0.0
H1307 H 0.29203 0.7703 0.95941 0.0
H1308 H 0.23322 0.70464 0.93293 0.0
H1309 H 0.26525 0.73027 0.95851 0.0
H1310 H 0.21641 0.80307 0.98048 0.0
H1311 H 0.18422 0.77649 0.95615 0.0
C1312 C 0.27718 0.81712 0.02659 0.0
C1313 C 0.30109 0.81446 0.01759 0.0
C1314 C 0.25866 0.80239 0.0119 0.0
C1315 C 0.26346 0.78495 0.98749 0.0
C1316 C 0.28745 0.7828 0.97835 0.0
C1317 C 0.30596 0.7971 0.99329 0.0
C1318 C 0.22937 0.72616 0.94317 0.0
C1319 C 0.20611 0.73844 0.94246 0.0
C1320 C 0.24782 0.74107 0.95779 0.0
C1321 C 0.24368 0.76899 0.97177 0.0
C1322 C 0.2204 0.7814 0.97062 0.0
C1323 C 0.20188 0.76624 0.95639 0.0
H1324 H 0.75093 0.18533 0.54645 0.0
H1325 H 0.69994 0.21623 0.48428 0.0
H1326 H 0.78302 0.21113 0.52088 0.0
H1327 H 0.73197 0.24077 0.45802 0.0
H1328 H 0.7898 0.30802 0.43149 0.0
H1329 H 0.7579 0.28218 0.4572 0.0
H1330 H 0.80756 0.21107 0.48104 0.0
H1331 H 0.83956 0.23773 0.45642 0.0
C1332 C 0.74661 0.19732 0.52713 0.0
C1333 C 0.72282 0.19876 0.51752 0.0
C1334 C 0.76507 0.21204 0.5123 0.0
C1335 C 0.76029 0.22829 0.48722 0.0
C1336 C 0.73647 0.22919 0.47747 0.0
C1337 C 0.71802 0.21485 0.49248 0.0
C1338 C 0.79387 0.28682 0.44214 0.0
C1339 C 0.81728 0.27503 0.44186 0.0
C1340 C 0.7755 0.27181 0.45684 0.0
C1341 C 0.77994 0.24433 0.47139 0.0
C1342 C 0.80337 0.2324 0.47069 0.0
C1343 C 0.82177 0.24761 0.45631 0.0
H1344 H 0.68753 0.73682 0.06405 0.0
H1345 H 0.73543 0.81081 0.08437 0.0
H1346 H 0.71972 0.71076 0.03931 0.0
H1347 H 0.7675 0.78555 0.05835 0.0
H1348 H 0.8269 0.72136 0.03009 0.0
H1349 H 0.79516 0.74614 0.05684 0.0
H1350 H 0.74267 0.70995 0.9987 0.0
H1351 H 0.77443 0.68394 0.97291 0.0
C1352 C 0.70495 0.74765 0.06309 0.0
C1353 C 0.70885 0.77595 0.07628 0.0
C1354 C 0.72347 0.73278 0.04861 0.0
C1355 C 0.74643 0.74594 0.04641 0.0
C1356 C 0.75031 0.77425 0.0598 0.0
C1357 C 0.73183 0.78892 0.07469 0.0
C1358 C 0.80856 0.71864 0.02306 0.0
C1359 C 0.80325 0.70053 0.99936 0.0
C1360 C 0.79026 0.7331 0.03833 0.0
C1361 C 0.76608 0.73028 0.03015 0.0
C1362 C 0.76088 0.7123 1.00622 0.0
C1363 C 0.77917 0.69746 0.9912 0.0
H1364 H 0.2893 0.20405 0.58102 0.0
H1365 H 0.33726 0.27814 0.56114 0.0
H1366 H 0.25743 0.22914 0.55463 0.0
H1367 H 0.30523 0.30406 0.53604 0.0
H1368 H 0.25087 0.3305 0.46917 0.0
H1369 H 0.28257 0.30461 0.49516 0.0
H1370 H 0.22984 0.26858 0.55316 0.0
H1371 H 0.19822 0.29319 0.52625 0.0
C1372 C 0.29294 0.22594 0.57136 0.0
C1373 C 0.31587 0.23901 0.57318 0.0
C1374 C 0.27459 0.2405 0.55627 0.0
C1375 C 0.27854 0.2688 0.54292 0.0
C1376 C 0.30145 0.28205 0.54532 0.0
C1377 C 0.31986 0.26727 0.56001 0.0
C1378 C 0.24609 0.317 0.48747 0.0
C1379 C 0.22198 0.31391 0.49555 0.0
C1380 C 0.26432 0.30225 0.50258 0.0
C1381 C 0.25901 0.28436 0.52653 0.0
C1382 C 0.23481 0.28154 0.53464 0.0
C1383 C 0.21658 0.29589 0.51926 0.0
H1384 H 0.776 0.33122 0.04616 0.0
H1385 H 0.82722 0.29135 0.9887 0.0
H1386 H 0.74356 0.30525 0.02155 0.0
H1387 H 0.79483 0.26653 0.96319 0.0
H1388 H 0.68737 0.27727 0.95752 0.0
H1389 H 0.72004 0.30362 0.98118 0.0
H1390 H 0.76689 0.22737 0.96386 0.0
H1391 H 0.73441 0.20177 0.93901 0.0
C1392 C 0.78032 0.31716 0.02806 0.0
C1393 C 0.80425 0.31338 0.01948 0.0
C1394 C 0.76165 0.30234 0.01374 0.0
C1395 C 0.76632 0.28362 0.99015 0.0
C1396 C 0.79034 0.28015 0.9815 0.0
C1397 C 0.80901 0.29462 0.99606 0.0
C1398 C 0.70469 0.2662 0.95863 0.0
C1399 C 0.70824 0.23741 0.94624 0.0
C1400 C 0.72348 0.28124 0.97247 0.0
C1401 C 0.74633 0.26777 0.97474 0.0
C1402 C 0.74981 0.23891 0.96224 0.0
C1403 C 0.73109 0.22406 0.94804 0.0
H1404 H 0.20064 0.72048 0.48939 0.0
H1405 H 0.25182 0.67999 0.54639 0.0
H1406 H 0.2331 0.74403 0.46308 0.0
H1407 H 0.28442 0.70481 0.52095 0.0
H1408 H 0.29366 0.80716 0.43711 0.0
H1409 H 0.26136 0.7825 0.46293 0.0
H1410 H 0.30773 0.70581 0.48029 0.0
H1411 H 0.34036 0.73136 0.45562 0.0
C1412 C 0.21886 0.71684 0.49651 0.0
C1413 C 0.22357 0.6983 0.52006 0.0
C1414 C 0.23759 0.73059 0.48147 0.0
C1415 C 0.26165 0.72664 0.48975 0.0
C1416 C 0.26629 0.7081 0.51344 0.0
C1417 C 0.24754 0.69396 0.52825 0.0
C1418 C 0.29693 0.78496 0.44633 0.0
C1419 C 0.31963 0.77125 0.4442 0.0
C1420 C 0.2783 0.77064 0.46111 0.0
C1421 C 0.28166 0.74192 0.47387 0.0
C1422 C 0.30438 0.72809 0.47135 0.0
C1423 C 0.32312 0.74265 0.45692 0.0
H1424 H 0.15262 0.54906 0.9342 0.0
H1425 H 0.12238 0.59491 1.00672 0.0
H1426 H 0.15411 0.50157 0.96069 0.0
H1427 H 0.12394 0.54714 0.03325 0.0
H1428 H 0.15397 0.46321 0.07941 0.0
H1429 H 0.15442 0.51072 0.0529 0.0
H1430 H 0.12448 0.4643 0.98074 0.0
H1431 H 0.12397 0.41652 1.0073 0.0
C1432 C 0.14641 0.54911 0.95586 0.0
C1433 C 0.13735 0.57586 0.96833 0.0
C1434 C 0.14712 0.52178 0.97095 0.0
C1435 C 0.13905 0.52056 0.99899 0.0
C1436 C 0.13044 0.54742 0.01171 0.0
C1437 C 0.12948 0.57475 0.99649 0.0
C1438 C 0.14761 0.46299 0.05783 0.0
C1439 C 0.1389 0.43598 0.04549 0.0
C1440 C 0.14772 0.49032 0.04273 0.0
C1441 C 0.13938 0.49131 0.0148 0.0
C1442 C 0.13116 0.46421 1.0022 0.0
C1443 C 0.1308 0.43687 0.01743 0.0
H1444 H 0.87491 0.59837 0.50759 0.0
H1445 H 0.89476 0.54841 0.58232 0.0
H1446 H 0.87271 0.55083 0.48108 0.0
H1447 H 0.89475 0.50125 0.55571 0.0
H1448 H 0.87676 0.41554 0.50842 0.0
H1449 H 0.8744 0.46304 0.53495 0.0
H1450 H 0.89303 0.51317 0.45932 0.0
H1451 H 0.8932 0.46595 0.43278 0.0
C1452 C 0.87909 0.57717 0.5182 0.0
C1453 C 0.88489 0.57702 0.54696 0.0
C1454 C 0.87806 0.5498 0.50299 0.0
C1455 C 0.88362 0.52169 0.51599 0.0
C1456 C 0.88969 0.52194 0.54485 0.0
C1457 C 0.88995 0.54914 0.56018 0.0
C1458 C 0.88014 0.43685 0.4976 0.0
C1459 C 0.88505 0.43711 0.46859 0.0
C1460 C 0.87903 0.46421 0.51281 0.0
C1461 C 0.88362 0.49245 0.49955 0.0
C1462 C 0.88875 0.49234 0.47042 0.0
C1463 C 0.88909 0.46513 0.45512 0.0
H1464 H 0.8549 0.45675 0.07929 0.0
H1465 H 0.87417 0.41648 0.99925 0.0
H1466 H 0.85271 0.50649 0.05738 0.0
H1467 H 0.87358 0.46672 0.97753 0.0
H1468 H 0.85161 0.55631 0.93912 0.0
H1469 H 0.85058 0.50656 0.96117 0.0
H1470 H 0.87463 0.54658 0.03963 0.0
H1471 H 0.87406 0.59678 0.01786 0.0
C1472 C 0.85873 0.45846 0.05697 0.0
C1473 C 0.86448 0.43238 0.04104 0.0
C1474 C 0.85777 0.48725 0.04439 0.0
C1475 C 0.86306 0.49106 0.01556 0.0
C1476 C 0.86889 0.4649 0.99963 0.0
C1477 C 0.86939 0.43595 0.01214 0.0
C1478 C 0.85637 0.55464 0.96119 0.0
C1479 C 0.86271 0.58077 0.97671 0.0
C1480 C 0.85609 0.52585 0.97383 0.0
C1481 C 0.86265 0.52211 1.0023 0.0
C1482 C 0.86899 0.54833 0.01785 0.0
C1483 C 0.86881 0.57727 1.0053 0.0
H1484 H 0.17183 0.41679 0.51473 0.0
H1485 H 0.14964 0.45922 0.43674 0.0
H1486 H 0.1734 0.46673 0.53725 0.0
H1487 H 0.15017 0.50872 0.45943 0.0
H1488 H 0.17233 0.59775 0.50015 0.0
H1489 H 0.17425 0.54781 0.47767 0.0
H1490 H 0.14898 0.50596 0.55471 0.0
H1491 H 0.14809 0.55548 0.5774 0.0
C1492 C 0.16718 0.43671 0.50241 0.0
C1493 C 0.16063 0.43384 0.47389 0.0
C1494 C 0.16792 0.46542 0.51538 0.0
C1495 C 0.16187 0.49201 0.50026 0.0
C1496 C 0.1554 0.48902 0.47172 0.0
C1497 C 0.1549 0.46043 0.4587 0.0
C1498 C 0.16728 0.57787 0.51231 0.0
C1499 C 0.16006 0.58077 0.54061 0.0
C1500 C 0.16823 0.54915 0.49936 0.0
C1501 C 0.16174 0.5226 0.51428 0.0
C1502 C 0.15456 0.52563 0.5426 0.0
C1503 C 0.15386 0.55423 0.5556 0.0
H1504 H 0.61711 0.05466 0.9497 0.0
H1505 H 0.65706 0.0965 0.01731 0.0
H1506 H 0.61552 0.00713 0.97585 0.0
H1507 H 0.65701 0.04833 0.04292 0.0
H1508 H 0.63578 0.96549 0.09398 0.0
H1509 H 0.63558 0.01369 0.06894 0.0
H1510 H 0.63711 0.96515 0.98942 0.0
H1511 H 0.63567 0.91688 0.0148 0.0
C1512 C 0.62567 0.05357 0.9702 0.0
C1513 C 0.63714 0.0793 0.98154 0.0
C1514 C 0.62502 0.02615 0.98512 0.0
C1515 C 0.63636 0.02344 0.01153 0.0
C1516 C 0.6477 0.04943 0.02292 0.0
C1517 C 0.64784 0.07712 1.00823 0.0
C1518 C 0.63611 0.96515 0.07112 0.0
C1519 C 0.63573 0.93739 0.05633 0.0
C1520 C 0.63615 0.9929 0.05668 0.0
C1521 C 0.63635 0.99368 0.02698 0.0
C1522 C 0.63639 0.96572 0.01223 0.0
C1523 C 0.63578 0.93794 0.02674 0.0
H1524 H 0.35851 0.93984 0.47374 0.0
H1525 H 0.43405 0.93261 0.49258 0.0
H1526 H 0.35675 0.98819 0.49908 0.0
H1527 H 0.43223 0.98121 0.51788 0.0
H1528 H 0.42396 0.08621 0.52635 0.0
H1529 H 0.42508 0.03651 0.50302 0.0
H1530 H 0.36155 0.00926 0.54847 0.0
H1531 H 0.36042 0.05879 0.57192 0.0
C1532 C 0.37468 0.94837 0.48361 0.0
C1533 C 0.39643 0.93237 0.48117 0.0
C1534 C 0.37364 0.97607 0.49814 0.0
C1535 C 0.39439 0.9886 0.51023 0.0
C1536 C 0.41602 0.97224 0.50845 0.0
C1537 C 0.41699 0.94427 0.49424 0.0
C1538 C 0.41011 0.06973 0.53118 0.0
C1539 C 0.39209 0.07648 0.55096 0.0
C1540 C 0.4109 0.04117 0.51804 0.0
C1541 C 0.39351 0.01894 0.52411 0.0
C1542 C 0.37515 0.02597 0.54333 0.0
C1543 C 0.37453 0.05434 0.55675 0.0
H1544 H 0.37591 0.91464 0.99723 0.0
H1545 H 0.35273 0.95603 0.07532 0.0
H1546 H 0.37657 0.96471 0.97497 0.0
H1547 H 0.3518 1.00542 0.05286 0.0
H1548 H 0.37497 0.09522 0.01499 0.0
H1549 H 0.37496 0.04499 0.03663 0.0
H1550 H 0.35468 1.00487 0.95675 0.0
H1551 H 0.35629 0.05474 0.93488 0.0
C1552 C 0.37054 0.9343 0.00954 0.0
C1553 C 0.36419 0.93111 0.03809 0.0
C1554 C 0.37079 0.96314 0.99673 0.0
C1555 C 0.3643 0.98951 0.01201 0.0
C1556 C 0.35748 0.98604 0.04041 0.0
C1557 C 0.35769 0.95741 0.05329 0.0
C1558 C 0.37044 0.07569 1.00207 0.0
C1559 C 0.36547 0.07923 0.97319 0.0
C1560 C 0.37028 0.04673 0.01453 0.0
C1561 C 0.36471 0.02049 0.9986 0.0
C1562 C 0.35949 0.02421 0.96976 0.0
C1563 C 0.3601 0.05305 0.95721 0.0
H1564 H 0.67526 0.05817 0.57538 0.0
H1565 H 0.64853 0.09691 0.49778 0.0
H1566 H 0.67671 0.00824 0.55354 0.0
H1567 H 0.64871 0.04652 0.47623 0.0
H1568 H 0.66991 0.95706 0.43634 0.0
H1569 H 0.67174 0.00711 0.45786 0.0
H1570 H 0.65315 0.96767 0.53855 0.0
H1571 H 0.65268 0.9172 0.51718 0.0
C1572 C 0.66966 0.05608 0.55361 0.0
C1573 C 0.6619 0.08176 0.53835 0.0
C1574 C 0.67023 0.02721 0.54111 0.0
C1575 C 0.66268 0.02296 0.51306 0.0
C1576 C 0.65508 0.04875 0.4977 0.0
C1577 C 0.65486 0.07776 0.51011 0.0
C1578 C 0.66648 0.95891 0.45876 0.0
C1579 C 0.66134 0.93287 0.47502 0.0
C1580 C 0.66726 0.98785 0.4711 0.0
C1581 C 0.6625 0.99181 0.50004 0.0
C1582 C 0.65737 0.9657 0.51633 0.0
C1583 C 0.65696 0.93663 0.50403 0.0
loop_
_geom_bond_atom_site_label_1
_geom_bond_atom_site_label_2
_geom_bond_distance
_geom_bond_site_symmetry_2
_ccdc_geom_bond_type
Co0 O2 2.143 . S
Co0 O8 2.074 . S
Co0 O11 2.093 . S
Co0 O24 2.097 . S
Co0 N41 2.151 . S
Co0 N49 2.214 . S
Co1 O2 2.160 . S
Co1 O7 2.058 . S
Co1 O17 2.057 . S
Co1 O32 2.037 . S
Co1 N36 2.145 . S
Co1 N57 2.257 . S
O2 Co0 2.143 . S
O2 Co1 2.160 . S
C3 O4 1.278 . S
C3 O11 1.224 . S
O4 C3 1.278 . S
C5 O6 1.245 . S
C5 O17 1.232 . S
O6 C5 1.245 . S
O7 Co1 2.058 . S
O7 C33 1.269 . S
O8 Co0 2.074 . S
O8 C33 1.257 . S
H9 C34 0.930 . S
H10 C40 0.930 . S
O11 Co0 2.093 . S
O11 C3 1.224 . S
H12 C44 0.929 . S
H13 C46 0.930 . S
H14 C47 0.930 . S
H15 C45 0.929 . S
H16 C48 0.928 . S
O17 Co1 2.057 . S
O17 C5 1.232 . S
H18 C37 0.929 . S
H19 C38 0.929 . S
H20 C50 0.931 . S
H21 C42 0.929 . S
H22 C51 0.930 . S
H23 C43 0.931 . S
O24 Co0 2.097 . S
O24 C52 1.214 . S
H25 C53 0.929 . S
H26 C54 0.929 . S
H27 C55 0.930 . S
H28 C56 0.929 . S
H29 C58 0.930 . S
H30 C35 0.930 . S
H31 C39 0.930 . S
O32 Co1 2.037 . S
O32 C52 1.234 . S
C33 O7 1.269 . S
C33 O8 1.257 . S
C34 H9 0.930 . S
C34 C37 1.388 . S
C34 C39 1.418 . S
C35 H30 0.930 . S
C35 C38 1.404 . S
C35 C39 1.353 . S
N36 Co1 2.145 . S
N36 C37 1.397 . S
N36 C38 1.334 . S
C37 H18 0.929 . S
C37 C34 1.388 . S
C37 N36 1.397 . S
C38 H19 0.929 . S
C38 C35 1.404 . S
C38 N36 1.334 . S
C39 H31 0.930 . S
C39 C34 1.418 . S
C39 C35 1.353 . S
C40 H10 0.930 . S
C40 N41 1.330 . S
C40 C42 1.446 . S
N41 Co0 2.151 . S
N41 C40 1.330 . S
N41 C45 1.418 . S
C42 H21 0.929 . S
C42 C40 1.446 . S
C42 C43 1.332 . S
C43 H23 0.931 . S
C43 C42 1.332 . S
C43 C44 1.267 . S
C44 H12 0.929 . S
C44 C43 1.267 . S
C44 C45 1.251 . S
C45 H15 0.929 . S
C45 N41 1.418 . S
C45 C44 1.251 . S
C46 H13 0.930 . S
C46 C48 1.406 . S
C46 C51 1.261 . S
C47 H14 0.930 . S
C47 N49 1.325 . S
C47 C50 1.357 . S
C48 H16 0.928 . S
C48 C46 1.406 . S
C48 N49 1.261 . S
N49 Co0 2.214 . S
N49 C47 1.325 . S
N49 C48 1.261 . S
C50 H20 0.931 . S
C50 C47 1.357 . S
C50 C51 1.312 . S
C51 H22 0.930 . S
C51 C46 1.261 . S
C51 C50 1.312 . S
C52 O24 1.214 . S
C52 O32 1.234 . S
C53 H25 0.929 . S
C53 C56 1.391 . S
C53 C58 1.391 1_556 S
C54 H26 0.929 . S
C54 C55 1.390 1_554 S
C54 N57 1.391 . S
C55 H27 0.930 . S
C55 C54 1.390 1_556 S
C55 C56 1.392 . S
C56 H28 0.929 . S
C56 C53 1.391 . S
C56 C55 1.392 . S
N57 Co1 2.257 . S
N57 C54 1.391 . S
N57 C58 1.388 . S
C58 H29 0.930 . S
C58 C53 1.391 1_554 S
C58 N57 1.388 . S
Co59 O61 2.143 . S
Co59 O67 2.074 . S
Co59 O70 2.093 . S
Co59 O83 2.097 . S
Co59 N100 2.151 . S
Co59 N108 2.214 . S
Co60 O61 2.160 . S
Co60 O66 2.058 . S
Co60 O76 2.057 . S
Co60 O91 2.037 . S
Co60 N95 2.145 . S
Co60 N116 2.257 . S
O61 Co59 2.143 . S
O61 Co60 2.160 . S
C62 O63 1.278 . S
C62 O70 1.224 . S
O63 C62 1.278 . S
C64 O65 1.245 . S
C64 O76 1.232 . S
O65 C64 1.245 . S
O66 Co60 2.058 . S
O66 C92 1.269 . S
O67 Co59 2.074 . S
O67 C92 1.257 . S
H68 C93 0.930 . S
H69 C99 0.930 . S
O70 Co59 2.093 . S
O70 C62 1.224 . S
H71 C103 0.929 . S
H72 C105 0.930 . S
H73 C106 0.930 . S
H74 C104 0.929 . S
H75 C107 0.928 . S
O76 Co60 2.057 . S
O76 C64 1.232 . S
H77 C96 0.929 . S
H78 C97 0.929 . S
H79 C109 0.931 . S
H80 C101 0.929 . S
H81 C110 0.930 . S
H82 C102 0.931 . S
O83 Co59 2.097 . S
O83 C111 1.214 . S
H84 C112 0.929 . S
H85 C113 0.929 . S
H86 C114 0.930 . S
H87 C115 0.929 . S
H88 C117 0.930 . S
H89 C94 0.930 . S
H90 C98 0.930 . S
O91 Co60 2.037 . S
O91 C111 1.234 . S
C92 O66 1.269 . S
C92 O67 1.257 . S
C93 H68 0.930 . S
C93 C96 1.388 . S
C93 C98 1.418 . S
C94 H89 0.930 . S
C94 C97 1.404 . S
C94 C98 1.353 . S
N95 Co60 2.145 . S
N95 C96 1.397 . S
N95 C97 1.334 . S
C96 H77 0.929 . S
C96 C93 1.388 . S
C96 N95 1.397 . S
C97 H78 0.929 . S
C97 C94 1.404 . S
C97 N95 1.334 . S
C98 H90 0.930 . S
C98 C93 1.418 . S
C98 C94 1.353 . S
C99 H69 0.930 . S
C99 N100 1.330 . S
C99 C101 1.446 . S
N100 Co59 2.151 . S
N100 C99 1.330 . S
N100 C104 1.418 . S
C101 H80 0.929 . S
C101 C99 1.446 . S
C101 C102 1.332 . S
C102 H82 0.931 . S
C102 C101 1.332 . S
C102 C103 1.267 . S
C103 H71 0.929 . S
C103 C102 1.267 . S
C103 C104 1.251 . S
C104 H74 0.929 . S
C104 N100 1.418 . S
C104 C103 1.251 . S
C105 H72 0.930 . S
C105 C107 1.406 . S
C105 C110 1.261 . S
C106 H73 0.930 . S
C106 N108 1.325 . S
C106 C109 1.357 . S
C107 H75 0.928 . S
C107 C105 1.406 . S
C107 N108 1.261 . S
N108 Co59 2.214 . S
N108 C106 1.325 . S
N108 C107 1.261 . S
C109 H79 0.931 . S
C109 C106 1.357 . S
C109 C110 1.312 . S
C110 H81 0.930 . S
C110 C105 1.261 . S
C110 C109 1.312 . S
C111 O83 1.214 . S
C111 O91 1.234 . S
C112 H84 0.929 . S
C112 C115 1.391 . S
C112 C117 1.391 . S
C113 H85 0.929 . S
C113 C114 1.390 . S
C113 N116 1.391 . S
C114 H86 0.930 . S
C114 C113 1.390 . S
C114 C115 1.392 . S
C115 H87 0.929 . S
C115 C112 1.391 . S
C115 C114 1.392 . S
N116 Co60 2.257 . S
N116 C113 1.391 . S
N116 C117 1.388 . S
C117 H88 0.930 . S
C117 C112 1.391 . S
C117 N116 1.388 . S
Co118 O120 2.143 . S
Co118 O126 2.074 . S
Co118 O129 2.093 . S
Co118 O142 2.097 . S
Co118 N159 2.151 . S
Co118 N167 2.214 . S
Co119 O120 2.160 . S
Co119 O125 2.058 . S
Co119 O135 2.057 . S
Co119 O150 2.037 . S
Co119 N154 2.145 . S
Co119 N175 2.257 . S
O120 Co118 2.143 . S
O120 Co119 2.160 . S
C121 O122 1.278 . S
C121 O129 1.224 . S
O122 C121 1.278 . S
C123 O124 1.245 . S
C123 O135 1.232 . S
O124 C123 1.245 . S
O125 Co119 2.058 . S
O125 C151 1.269 . S
O126 Co118 2.074 . S
O126 C151 1.257 . S
H127 C152 0.930 . S
H128 C158 0.930 . S
O129 Co118 2.093 . S
O129 C121 1.224 . S
H130 C162 0.929 . S
H131 C164 0.930 . S
H132 C165 0.930 . S
H133 C163 0.929 . S
H134 C166 0.928 . S
O135 Co119 2.057 . S
O135 C123 1.232 . S
H136 C155 0.929 . S
H137 C156 0.929 . S
H138 C168 0.931 . S
H139 C160 0.929 . S
H140 C169 0.930 . S
H141 C161 0.931 . S
O142 Co118 2.097 . S
O142 C170 1.214 . S
H143 C171 0.929 . S
H144 C172 0.929 . S
H145 C173 0.930 . S
H146 C174 0.929 . S
H147 C176 0.930 . S
H148 C153 0.930 . S
H149 C157 0.930 . S
O150 Co119 2.037 . S
O150 C170 1.234 . S
C151 O125 1.269 . S
C151 O126 1.257 . S
C152 H127 0.930 . S
C152 C155 1.388 . S
C152 C157 1.418 . S
C153 H148 0.930 . S
C153 C156 1.404 . S
C153 C157 1.353 . S
N154 Co119 2.145 . S
N154 C155 1.397 . S
N154 C156 1.334 . S
C155 H136 0.929 . S
C155 C152 1.388 . S
C155 N154 1.397 . S
C156 H137 0.929 . S
C156 C153 1.404 . S
C156 N154 1.334 . S
C157 H149 0.930 . S
C157 C152 1.418 . S
C157 C153 1.353 . S
C158 H128 0.930 . S
C158 N159 1.330 . S
C158 C160 1.446 . S
N159 Co118 2.151 . S
N159 C158 1.330 . S
N159 C163 1.418 . S
C160 H139 0.929 . S
C160 C158 1.446 . S
C160 C161 1.332 . S
C161 H141 0.931 . S
C161 C160 1.332 . S
C161 C162 1.267 . S
C162 H130 0.929 . S
C162 C161 1.267 . S
C162 C163 1.251 . S
C163 H133 0.929 . S
C163 N159 1.418 . S
C163 C162 1.251 . S
C164 H131 0.930 . S
C164 C166 1.406 . S
C164 C169 1.261 . S
C165 H132 0.930 . S
C165 N167 1.325 . S
C165 C168 1.357 . S
C166 H134 0.928 . S
C166 C164 1.406 . S
C166 N167 1.261 . S
N167 Co118 2.214 . S
N167 C165 1.325 . S
N167 C166 1.261 . S
C168 H138 0.931 . S
C168 C165 1.357 . S
C168 C169 1.312 . S
C169 H140 0.930 . S
C169 C164 1.261 . S
C169 C168 1.312 . S
C170 O142 1.214 . S
C170 O150 1.234 . S
C171 H143 0.929 . S
C171 C174 1.391 . S
C171 C176 1.391 1_554 S
C172 H144 0.929 . S
C172 C173 1.390 1_556 S
C172 N175 1.391 . S
C173 H145 0.930 . S
C173 C172 1.390 1_554 S
C173 C174 1.392 . S
C174 H146 0.929 . S
C174 C171 1.391 . S
C174 C173 1.392 . S
N175 Co119 2.257 . S
N175 C172 1.391 . S
N175 C176 1.388 . S
C176 H147 0.930 . S
C176 C171 1.391 1_556 S
C176 N175 1.388 . S
Co177 O179 2.143 . S
Co177 O185 2.074 . S
Co177 O188 2.093 . S
Co177 O201 2.097 . S
Co177 N218 2.151 . S
Co177 N226 2.214 . S
Co178 O179 2.160 . S
Co178 O184 2.058 . S
Co178 O194 2.057 . S
Co178 O209 2.037 . S
Co178 N213 2.145 . S
Co178 N234 2.257 . S
O179 Co177 2.143 . S
O179 Co178 2.160 . S
C180 O181 1.278 . S
C180 O188 1.224 . S
O181 C180 1.278 . S
C182 O183 1.245 . S
C182 O194 1.232 . S
O183 C182 1.245 . S
O184 Co178 2.058 . S
O184 C210 1.269 . S
O185 Co177 2.074 . S
O185 C210 1.257 . S
H186 C211 0.930 . S
H187 C217 0.930 . S
O188 Co177 2.093 . S
O188 C180 1.224 . S
H189 C221 0.929 . S
H190 C223 0.930 . S
H191 C224 0.930 . S
H192 C222 0.929 . S
H193 C225 0.928 . S
O194 Co178 2.057 . S
O194 C182 1.232 . S
H195 C214 0.929 . S
H196 C215 0.929 . S
H197 C227 0.931 . S
H198 C219 0.929 . S
H199 C228 0.930 . S
H200 C220 0.931 . S
O201 Co177 2.097 . S
O201 C229 1.214 . S
H202 C230 0.929 . S
H203 C231 0.929 . S
H204 C232 0.930 . S
H205 C233 0.929 . S
H206 C235 0.930 . S
H207 C212 0.930 . S
H208 C216 0.930 . S
O209 Co178 2.037 . S
O209 C229 1.234 . S
C210 O184 1.269 . S
C210 O185 1.257 . S
C211 H186 0.930 . S
C211 C214 1.388 . S
C211 C216 1.418 . S
C212 H207 0.930 . S
C212 C215 1.404 . S
C212 C216 1.353 . S
N213 Co178 2.145 . S
N213 C214 1.397 . S
N213 C215 1.334 . S
C214 H195 0.929 . S
C214 C211 1.388 . S
C214 N213 1.397 . S
C215 H196 0.929 . S
C215 C212 1.404 . S
C215 N213 1.334 . S
C216 H208 0.930 . S
C216 C211 1.418 . S
C216 C212 1.353 . S
C217 H187 0.930 . S
C217 N218 1.330 . S
C217 C219 1.446 . S
N218 Co177 2.151 . S
N218 C217 1.330 . S
N218 C222 1.418 . S
C219 H198 0.929 . S
C219 C217 1.446 . S
C219 C220 1.332 . S
C220 H200 0.931 . S
C220 C219 1.332 . S
C220 C221 1.267 . S
C221 H189 0.929 . S
C221 C220 1.267 . S
C221 C222 1.251 . S
C222 H192 0.929 . S
C222 N218 1.418 . S
C222 C221 1.251 . S
C223 H190 0.930 . S
C223 C225 1.406 . S
C223 C228 1.261 . S
C224 H191 0.930 . S
C224 N226 1.325 . S
C224 C227 1.357 . S
C225 H193 0.928 . S
C225 C223 1.406 . S
C225 N226 1.261 . S
N226 Co177 2.214 . S
N226 C224 1.325 . S
N226 C225 1.261 . S
C227 H197 0.931 . S
C227 C224 1.357 . S
C227 C228 1.312 . S
C228 H199 0.930 . S
C228 C223 1.261 . S
C228 C227 1.312 . S
C229 O201 1.214 . S
C229 O209 1.234 . S
C230 H202 0.929 . S
C230 C233 1.391 . S
C230 C235 1.391 . S
C231 H203 0.929 . S
C231 C232 1.390 . S
C231 N234 1.391 . S
C232 H204 0.930 . S
C232 C231 1.390 . S
C232 C233 1.392 . S
C233 H205 0.929 . S
C233 C230 1.391 . S
C233 C232 1.392 . S
N234 Co178 2.257 . S
N234 C231 1.391 . S
N234 C235 1.388 . S
C235 H206 0.930 . S
C235 C230 1.391 . S
C235 N234 1.388 . S
Co236 O238 2.143 . S
Co236 O244 2.074 . S
Co236 O247 2.093 . S
Co236 O260 2.097 . S
Co236 N277 2.151 . S
Co236 N285 2.214 . S
Co237 O238 2.160 . S
Co237 O243 2.058 . S
Co237 O253 2.057 . S
Co237 O268 2.037 . S
Co237 N272 2.145 . S
Co237 N293 2.257 . S
O238 Co236 2.143 . S
O238 Co237 2.160 . S
C239 O240 1.278 . S
C239 O247 1.224 . S
O240 C239 1.278 . S
C241 O242 1.245 . S
C241 O253 1.232 . S
O242 C241 1.245 . S
O243 Co237 2.058 . S
O243 C269 1.269 . S
O244 Co236 2.074 . S
O244 C269 1.257 . S
H245 C270 0.930 . S
H246 C276 0.930 . S
O247 Co236 2.093 . S
O247 C239 1.224 . S
H248 C280 0.929 . S
H249 C282 0.930 . S
H250 C283 0.930 . S
H251 C281 0.929 . S
H252 C284 0.928 . S
O253 Co237 2.057 . S
O253 C241 1.232 . S
H254 C273 0.932 . S
H255 C274 0.929 1_556 S
H256 C286 0.931 . S
H257 C278 0.929 . S
H258 C287 0.930 . S
H259 C279 0.931 . S
O260 Co236 2.097 . S
O260 C288 1.214 . S
H261 C289 0.929 . S
H262 C290 0.929 . S
H263 C291 0.930 . S
H264 C292 0.929 . S
H265 C294 0.930 . S
H266 C271 0.930 . S
H267 C275 0.930 . S
O268 Co237 2.037 . S
O268 C288 1.234 . S
C269 O243 1.269 . S
C269 O244 1.257 . S
C270 H245 0.930 . S
C270 C273 1.383 1_554 S
C270 C275 1.418 . S
C271 H266 0.930 . S
C271 C274 1.404 . S
C271 C275 1.353 . S
N272 Co237 2.145 . S
N272 C273 1.399 . S
N272 C274 1.334 1_556 S
C273 H254 0.932 . S
C273 C270 1.383 1_556 S
C273 N272 1.399 . S
C274 H255 0.929 1_554 S
C274 C271 1.404 . S
C274 N272 1.334 1_554 S
C275 H267 0.930 . S
C275 C270 1.418 . S
C275 C271 1.353 . S
C276 H246 0.930 . S
C276 N277 1.330 . S
C276 C278 1.446 . S
N277 Co236 2.151 . S
N277 C276 1.330 . S
N277 C281 1.418 . S
C278 H257 0.929 . S
C278 C276 1.446 . S
C278 C279 1.332 . S
C279 H259 0.931 . S
C279 C278 1.332 . S
C279 C280 1.267 . S
C280 H248 0.929 . S
C280 C279 1.267 . S
C280 C281 1.251 . S
C281 H251 0.929 . S
C281 N277 1.418 . S
C281 C280 1.251 . S
C282 H249 0.930 . S
C282 C284 1.406 . S
C282 C287 1.261 . S
C283 H250 0.930 . S
C283 N285 1.325 . S
C283 C286 1.357 . S
C284 H252 0.928 . S
C284 C282 1.406 . S
C284 N285 1.261 . S
N285 Co236 2.214 . S
N285 C283 1.325 . S
N285 C284 1.261 . S
C286 H256 0.931 . S
C286 C283 1.357 . S
C286 C287 1.312 . S
C287 H258 0.930 . S
C287 C282 1.261 . S
C287 C286 1.312 . S
C288 O260 1.214 . S
C288 O268 1.234 . S
C289 H261 0.929 . S
C289 C292 1.391 . S
C289 C294 1.391 . S
C290 H262 0.929 . S
C290 C291 1.390 . S
C290 N293 1.391 . S
C291 H263 0.930 . S
C291 C290 1.390 . S
C291 C292 1.392 . S
C292 H264 0.929 . S
C292 C289 1.391 . S
C292 C291 1.392 . S
N293 Co237 2.257 . S
N293 C290 1.391 . S
N293 C294 1.388 . S
C294 H265 0.930 . S
C294 C289 1.391 . S
C294 N293 1.388 . S
Co295 O297 2.143 . S
Co295 O303 2.074 . S
Co295 O306 2.093 . S
Co295 O319 2.097 . S
Co295 N336 2.151 . S
Co295 N344 2.214 . S
Co296 O297 2.160 . S
Co296 O302 2.058 . S
Co296 O312 2.057 . S
Co296 O327 2.037 . S
Co296 N331 2.145 . S
Co296 N352 2.257 . S
O297 Co295 2.143 . S
O297 Co296 2.160 . S
C298 O299 1.278 . S
C298 O306 1.224 . S
O299 C298 1.278 . S
C300 O301 1.245 . S
C300 O312 1.232 . S
O301 C300 1.245 . S
O302 Co296 2.058 . S
O302 C328 1.269 . S
O303 Co295 2.074 . S
O303 C328 1.257 . S
H304 C329 0.930 . S
H305 C335 0.930 . S
O306 Co295 2.093 . S
O306 C298 1.224 . S
H307 C339 0.929 . S
H308 C341 0.930 . S
H309 C342 0.930 . S
H310 C340 0.929 . S
H311 C343 0.928 . S
O312 Co296 2.057 . S
O312 C300 1.232 . S
H313 C332 0.929 . S
H314 C333 0.929 . S
H315 C345 0.931 . S
H316 C337 0.929 . S
H317 C346 0.930 . S
H318 C338 0.931 . S
O319 Co295 2.097 . S
O319 C347 1.214 . S
H320 C348 0.929 . S
H321 C349 0.929 . S
H322 C350 0.930 . S
H323 C351 0.929 . S
H324 C353 0.930 . S
H325 C330 0.930 . S
H326 C334 0.930 . S
O327 Co296 2.037 . S
O327 C347 1.234 . S
C328 O302 1.269 . S
C328 O303 1.257 . S
C329 H304 0.930 . S
C329 C332 1.388 . S
C329 C334 1.418 . S
C330 H325 0.930 . S
C330 C333 1.404 . S
C330 C334 1.353 . S
N331 Co296 2.145 . S
N331 C332 1.397 . S
N331 C333 1.334 . S
C332 H313 0.929 . S
C332 C329 1.388 . S
C332 N331 1.397 . S
C333 H314 0.929 . S
C333 C330 1.404 . S
C333 N331 1.334 . S
C334 H326 0.930 . S
C334 C329 1.418 . S
C334 C330 1.353 . S
C335 H305 0.930 . S
C335 N336 1.330 . S
C335 C337 1.446 . S
N336 Co295 2.151 . S
N336 C335 1.330 . S
N336 C340 1.418 . S
C337 H316 0.929 . S
C337 C335 1.446 . S
C337 C338 1.332 . S
C338 H318 0.931 . S
C338 C337 1.332 . S
C338 C339 1.267 . S
C339 H307 0.929 . S
C339 C338 1.267 . S
C339 C340 1.251 . S
C340 H310 0.929 . S
C340 N336 1.418 . S
C340 C339 1.251 . S
C341 H308 0.930 . S
C341 C343 1.406 . S
C341 C346 1.261 . S
C342 H309 0.930 . S
C342 N344 1.325 . S
C342 C345 1.357 . S
C343 H311 0.928 . S
C343 C341 1.406 . S
C343 N344 1.261 . S
N344 Co295 2.214 . S
N344 C342 1.325 . S
N344 C343 1.261 . S
C345 H315 0.931 . S
C345 C342 1.357 . S
C345 C346 1.312 . S
C346 H317 0.930 . S
C346 C341 1.261 . S
C346 C345 1.312 . S
C347 O319 1.214 . S
C347 O327 1.234 . S
C348 H320 0.929 . S
C348 C351 1.391 . S
C348 C353 1.391 . S
C349 H321 0.929 . S
C349 C350 1.390 . S
C349 N352 1.391 . S
C350 H322 0.930 . S
C350 C349 1.390 . S
C350 C351 1.392 . S
C351 H323 0.929 . S
C351 C348 1.391 . S
C351 C350 1.392 . S
N352 Co296 2.257 . S
N352 C349 1.391 . S
N352 C353 1.388 . S
C353 H324 0.930 . S
C353 C348 1.391 . S
C353 N352 1.388 . S
Co354 O356 2.143 . S
Co354 O362 2.074 . S
Co354 O365 2.093 . S
Co354 O378 2.097 . S
Co354 N395 2.151 . S
Co354 N403 2.214 . S
Co355 O356 2.160 . S
Co355 O361 2.058 . S
Co355 O371 2.057 . S
Co355 O386 2.037 . S
Co355 N390 2.145 . S
Co355 N411 2.257 . S
O356 Co354 2.143 . S
O356 Co355 2.160 . S
C357 O358 1.278 . S
C357 O365 1.224 . S
O358 C357 1.278 . S
C359 O360 1.245 . S
C359 O371 1.232 . S
O360 C359 1.245 . S
O361 Co355 2.058 . S
O361 C387 1.269 . S
O362 Co354 2.074 . S
O362 C387 1.257 . S
H363 C388 0.930 . S
H364 C394 0.930 . S
O365 Co354 2.093 . S
O365 C357 1.224 . S
H366 C398 0.929 . S
H367 C400 0.930 . S
H368 C401 0.930 . S
H369 C399 0.929 . S
H370 C402 0.928 . S
O371 Co355 2.057 . S
O371 C359 1.232 . S
H372 C391 0.932 . S
H373 C392 0.929 1_554 S
H374 C404 0.931 . S
H375 C396 0.929 . S
H376 C405 0.930 . S
H377 C397 0.931 . S
O378 Co354 2.097 . S
O378 C406 1.214 . S
H379 C407 0.929 . S
H380 C408 0.929 . S
H381 C409 0.930 . S
H382 C410 0.929 . S
H383 C412 0.930 . S
H384 C389 0.930 . S
H385 C393 0.930 . S
O386 Co355 2.037 . S
O386 C406 1.234 . S
C387 O361 1.269 . S
C387 O362 1.257 . S
C388 H363 0.930 . S
C388 C391 1.383 1_556 S
C388 C393 1.418 . S
C389 H384 0.930 . S
C389 C392 1.404 . S
C389 C393 1.353 . S
N390 Co355 2.145 . S
N390 C391 1.399 . S
N390 C392 1.334 1_554 S
C391 H372 0.932 . S
C391 C388 1.383 1_554 S
C391 N390 1.399 . S
C392 H373 0.929 1_556 S
C392 C389 1.404 . S
C392 N390 1.334 1_556 S
C393 H385 0.930 . S
C393 C388 1.418 . S
C393 C389 1.353 . S
C394 H364 0.930 . S
C394 N395 1.330 . S
C394 C396 1.446 . S
N395 Co354 2.151 . S
N395 C394 1.330 . S
N395 C399 1.418 . S
C396 H375 0.929 . S
C396 C394 1.446 . S
C396 C397 1.332 . S
C397 H377 0.931 . S
C397 C396 1.332 . S
C397 C398 1.267 . S
C398 H366 0.929 . S
C398 C397 1.267 . S
C398 C399 1.251 . S
C399 H369 0.929 . S
C399 N395 1.418 . S
C399 C398 1.251 . S
C400 H367 0.930 . S
C400 C402 1.406 . S
C400 C405 1.261 . S
C401 H368 0.930 . S
C401 N403 1.325 . S
C401 C404 1.357 . S
C402 H370 0.928 . S
C402 C400 1.406 . S
C402 N403 1.261 . S
N403 Co354 2.214 . S
N403 C401 1.325 . S
N403 C402 1.261 . S
C404 H374 0.931 . S
C404 C401 1.357 . S
C404 C405 1.312 . S
C405 H376 0.930 . S
C405 C400 1.261 . S
C405 C404 1.312 . S
C406 O378 1.214 . S
C406 O386 1.234 . S
C407 H379 0.929 . S
C407 C410 1.391 . S
C407 C412 1.391 . S
C408 H380 0.929 . S
C408 C409 1.390 . S
C408 N411 1.391 . S
C409 H381 0.930 . S
C409 C408 1.390 . S
C409 C410 1.392 . S
C410 H382 0.929 . S
C410 C407 1.391 . S
C410 C409 1.392 . S
N411 Co355 2.257 . S
N411 C408 1.391 . S
N411 C412 1.388 . S
C412 H383 0.930 . S
C412 C407 1.391 . S
C412 N411 1.388 . S
Co413 O415 2.143 . S
Co413 O421 2.074 . S
Co413 O424 2.093 . S
Co413 O437 2.097 . S
Co413 N454 2.151 . S
Co413 N462 2.214 . S
Co414 O415 2.160 . S
Co414 O420 2.058 . S
Co414 O430 2.057 . S
Co414 O445 2.037 . S
Co414 N449 2.145 . S
Co414 N470 2.257 . S
O415 Co413 2.143 . S
O415 Co414 2.160 . S
C416 O417 1.278 . S
C416 O424 1.224 . S
O417 C416 1.278 . S
C418 O419 1.245 . S
C418 O430 1.232 . S
O419 C418 1.245 . S
O420 Co414 2.058 . S
O420 C446 1.269 . S
O421 Co413 2.074 . S
O421 C446 1.257 . S
H422 C447 0.930 . S
H423 C453 0.930 . S
O424 Co413 2.093 . S
O424 C416 1.224 . S
H425 C457 0.929 . S
H426 C459 0.930 . S
H427 C460 0.930 . S
H428 C458 0.929 . S
H429 C461 0.928 . S
O430 Co414 2.057 . S
O430 C418 1.232 . S
H431 C450 0.929 . S
H432 C451 0.929 . S
H433 C463 0.931 . S
H434 C455 0.929 . S
H435 C464 0.930 . S
H436 C456 0.931 . S
O437 Co413 2.097 . S
O437 C465 1.214 . S
H438 C466 0.929 . S
H439 C467 0.929 . S
H440 C468 0.930 . S
H441 C469 0.929 . S
H442 C471 0.930 . S
H443 C448 0.930 . S
H444 C452 0.930 . S
O445 Co414 2.037 . S
O445 C465 1.234 . S
C446 O420 1.269 . S
C446 O421 1.257 . S
C447 H422 0.930 . S
C447 C450 1.388 . S
C447 C452 1.418 . S
C448 H443 0.930 . S
C448 C451 1.404 . S
C448 C452 1.353 . S
N449 Co414 2.145 . S
N449 C450 1.397 . S
N449 C451 1.334 . S
C450 H431 0.929 . S
C450 C447 1.388 . S
C450 N449 1.397 . S
C451 H432 0.929 . S
C451 C448 1.404 . S
C451 N449 1.334 . S
C452 H444 0.930 . S
C452 C447 1.418 . S
C452 C448 1.353 . S
C453 H423 0.930 . S
C453 N454 1.330 . S
C453 C455 1.446 . S
N454 Co413 2.151 . S
N454 C453 1.330 . S
N454 C458 1.418 . S
C455 H434 0.929 . S
C455 C453 1.446 . S
C455 C456 1.332 . S
C456 H436 0.931 . S
C456 C455 1.332 . S
C456 C457 1.267 . S
C457 H425 0.929 . S
C457 C456 1.267 . S
C457 C458 1.251 . S
C458 H428 0.929 . S
C458 N454 1.418 . S
C458 C457 1.251 . S
C459 H426 0.930 . S
C459 C461 1.406 . S
C459 C464 1.261 . S
C460 H427 0.930 . S
C460 N462 1.325 . S
C460 C463 1.357 . S
C461 H429 0.928 . S
C461 C459 1.406 . S
C461 N462 1.261 . S
N462 Co413 2.214 . S
N462 C460 1.325 . S
N462 C461 1.261 . S
C463 H433 0.931 . S
C463 C460 1.357 . S
C463 C464 1.312 . S
C464 H435 0.930 . S
C464 C459 1.261 . S
C464 C463 1.312 . S
C465 O437 1.214 . S
C465 O445 1.234 . S
C466 H438 0.929 . S
C466 C469 1.391 . S
C466 C471 1.391 . S
C467 H439 0.929 . S
C467 C468 1.390 . S
C467 N470 1.391 . S
C468 H440 0.930 . S
C468 C467 1.390 . S
C468 C469 1.392 . S
C469 H441 0.929 . S
C469 C466 1.391 . S
C469 C468 1.392 . S
N470 Co414 2.257 . S
N470 C467 1.391 . S
N470 C471 1.388 . S
C471 H442 0.930 . S
C471 C466 1.391 . S
C471 N470 1.388 . S
Co472 O474 2.143 . S
Co472 O480 2.074 . S
Co472 O483 2.093 . S
Co472 O496 2.097 . S
Co472 N513 2.151 . S
Co472 N521 2.214 . S
Co473 O474 2.160 . S
Co473 O479 2.058 . S
Co473 O489 2.057 . S
Co473 O504 2.037 . S
Co473 N508 2.145 . S
Co473 N529 2.257 . S
O474 Co472 2.143 . S
O474 Co473 2.160 . S
C475 O476 1.278 . S
C475 O483 1.224 . S
O476 C475 1.278 . S
C477 O478 1.245 . S
C477 O489 1.232 . S
O478 C477 1.245 . S
O479 Co473 2.058 . S
O479 C505 1.269 . S
O480 Co472 2.074 . S
O480 C505 1.257 . S
H481 C506 0.930 . S
H482 C512 0.930 . S
O483 Co472 2.093 . S
O483 C475 1.224 . S
H484 C516 0.929 . S
H485 C518 0.930 . S
H486 C519 0.930 . S
H487 C517 0.929 . S
H488 C520 0.928 . S
O489 Co473 2.057 . S
O489 C477 1.232 . S
H490 C509 0.929 . S
H491 C510 0.929 . S
H492 C522 0.931 . S
H493 C514 0.929 . S
H494 C523 0.930 . S
H495 C515 0.931 . S
O496 Co472 2.097 . S
O496 C524 1.214 . S
H497 C525 0.929 . S
H498 C526 0.929 . S
H499 C527 0.930 . S
H500 C528 0.929 . S
H501 C530 0.930 . S
H502 C507 0.930 . S
H503 C511 0.930 . S
O504 Co473 2.037 . S
O504 C524 1.234 . S
C505 O479 1.269 . S
C505 O480 1.257 . S
C506 H481 0.930 . S
C506 C509 1.388 . S
C506 C511 1.418 . S
C507 H502 0.930 . S
C507 C510 1.404 . S
C507 C511 1.353 . S
N508 Co473 2.145 . S
N508 C509 1.397 . S
N508 C510 1.334 . S
C509 H490 0.929 . S
C509 C506 1.388 . S
C509 N508 1.397 . S
C510 H491 0.929 . S
C510 C507 1.404 . S
C510 N508 1.334 . S
C511 H503 0.930 . S
C511 C506 1.418 . S
C511 C507 1.353 . S
C512 H482 0.930 . S
C512 N513 1.330 . S
C512 C514 1.446 . S
N513 Co472 2.151 . S
N513 C512 1.330 . S
N513 C517 1.418 . S
C514 H493 0.929 . S
C514 C512 1.446 . S
C514 C515 1.332 . S
C515 H495 0.931 . S
C515 C514 1.332 . S
C515 C516 1.267 . S
C516 H484 0.929 . S
C516 C515 1.267 . S
C516 C517 1.251 . S
C517 H487 0.929 . S
C517 N513 1.418 . S
C517 C516 1.251 . S
C518 H485 0.930 . S
C518 C520 1.406 . S
C518 C523 1.261 . S
C519 H486 0.930 . S
C519 N521 1.325 . S
C519 C522 1.357 . S
C520 H488 0.928 . S
C520 C518 1.406 . S
C520 N521 1.261 . S
N521 Co472 2.214 . S
N521 C519 1.325 . S
N521 C520 1.261 . S
C522 H492 0.931 . S
C522 C519 1.357 . S
C522 C523 1.312 . S
C523 H494 0.930 . S
C523 C518 1.261 . S
C523 C522 1.312 . S
C524 O496 1.214 . S
C524 O504 1.234 . S
C525 H497 0.929 . S
C525 C528 1.391 . S
C525 C530 1.391 1_556 S
C526 H498 0.929 . S
C526 C527 1.390 1_554 S
C526 N529 1.391 . S
C527 H499 0.930 . S
C527 C526 1.390 1_556 S
C527 C528 1.392 . S
C528 H500 0.929 . S
C528 C525 1.391 . S
C528 C527 1.392 . S
N529 Co473 2.257 . S
N529 C526 1.391 . S
N529 C530 1.388 . S
C530 H501 0.930 . S
C530 C525 1.391 1_554 S
C530 N529 1.388 . S
Co531 O533 2.143 . S
Co531 O539 2.074 . S
Co531 O542 2.093 . S
Co531 O555 2.097 . S
Co531 N572 2.151 . S
Co531 N580 2.214 . S
Co532 O533 2.160 . S
Co532 O538 2.058 . S
Co532 O548 2.057 . S
Co532 O563 2.037 . S
Co532 N567 2.145 . S
Co532 N588 2.257 . S
O533 Co531 2.143 . S
O533 Co532 2.160 . S
C534 O535 1.278 . S
C534 O542 1.224 . S
O535 C534 1.278 . S
C536 O537 1.245 . S
C536 O548 1.232 . S
O537 C536 1.245 . S
O538 Co532 2.058 . S
O538 C564 1.269 . S
O539 Co531 2.074 . S
O539 C564 1.257 . S
H540 C565 0.930 . S
H541 C571 0.930 . S
O542 Co531 2.093 . S
O542 C534 1.224 . S
H543 C575 0.929 . S
H544 C577 0.930 . S
H545 C578 0.930 . S
H546 C576 0.929 . S
H547 C579 0.928 . S
O548 Co532 2.057 . S
O548 C536 1.232 . S
H549 C568 0.929 . S
H550 C569 0.929 . S
H551 C581 0.931 . S
H552 C573 0.929 . S
H553 C582 0.930 . S
H554 C574 0.931 . S
O555 Co531 2.097 . S
O555 C583 1.214 . S
H556 C584 0.929 . S
H557 C585 0.929 . S
H558 C586 0.930 . S
H559 C587 0.929 . S
H560 C589 0.930 . S
H561 C566 0.930 . S
H562 C570 0.930 . S
O563 Co532 2.037 . S
O563 C583 1.234 . S
C564 O538 1.269 . S
C564 O539 1.257 . S
C565 H540 0.930 . S
C565 C568 1.388 . S
C565 C570 1.418 . S
C566 H561 0.930 . S
C566 C569 1.404 . S
C566 C570 1.353 . S
N567 Co532 2.145 . S
N567 C568 1.397 . S
N567 C569 1.334 . S
C568 H549 0.929 . S
C568 C565 1.388 . S
C568 N567 1.397 . S
C569 H550 0.929 . S
C569 C566 1.404 . S
C569 N567 1.334 . S
C570 H562 0.930 . S
C570 C565 1.418 . S
C570 C566 1.353 . S
C571 H541 0.930 . S
C571 N572 1.330 . S
C571 C573 1.446 . S
N572 Co531 2.151 . S
N572 C571 1.330 . S
N572 C576 1.418 . S
C573 H552 0.929 . S
C573 C571 1.446 . S
C573 C574 1.332 . S
C574 H554 0.931 . S
C574 C573 1.332 . S
C574 C575 1.267 . S
C575 H543 0.929 . S
C575 C574 1.267 . S
C575 C576 1.251 . S
C576 H546 0.929 . S
C576 N572 1.418 . S
C576 C575 1.251 . S
C577 H544 0.930 . S
C577 C579 1.406 . S
C577 C582 1.261 . S
C578 H545 0.930 . S
C578 N580 1.325 . S
C578 C581 1.357 . S
C579 H547 0.928 . S
C579 C577 1.406 . S
C579 N580 1.261 . S
N580 Co531 2.214 . S
N580 C578 1.325 . S
N580 C579 1.261 . S
C581 H551 0.931 . S
C581 C578 1.357 . S
C581 C582 1.312 . S
C582 H553 0.930 . S
C582 C577 1.261 . S
C582 C581 1.312 . S
C583 O555 1.214 . S
C583 O563 1.234 . S
C584 H556 0.929 . S
C584 C587 1.391 . S
C584 C589 1.391 . S
C585 H557 0.929 . S
C585 C586 1.390 . S
C585 N588 1.391 . S
C586 H558 0.930 . S
C586 C585 1.390 . S
C586 C587 1.392 . S
C587 H559 0.929 . S
C587 C584 1.391 . S
C587 C586 1.392 . S
N588 Co532 2.257 . S
N588 C585 1.391 . S
N588 C589 1.388 . S
C589 H560 0.930 . S
C589 C584 1.391 . S
C589 N588 1.388 . S
Co590 O592 2.143 . S
Co590 O598 2.074 . S
Co590 O601 2.093 . S
Co590 O614 2.097 . S
Co590 N631 2.151 . S
Co590 N639 2.214 . S
Co591 O592 2.160 . S
Co591 O597 2.058 . S
Co591 O607 2.057 . S
Co591 O622 2.037 . S
Co591 N626 2.145 . S
Co591 N647 2.257 . S
O592 Co590 2.143 . S
O592 Co591 2.160 . S
C593 O594 1.278 . S
C593 O601 1.224 . S
O594 C593 1.278 . S
C595 O596 1.245 . S
C595 O607 1.232 . S
O596 C595 1.245 . S
O597 Co591 2.058 . S
O597 C623 1.269 . S
O598 Co590 2.074 . S
O598 C623 1.257 . S
H599 C624 0.930 . S
H600 C630 0.930 . S
O601 Co590 2.093 . S
O601 C593 1.224 . S
H602 C634 0.929 . S
H603 C636 0.930 . S
H604 C637 0.930 . S
H605 C635 0.929 . S
H606 C638 0.928 . S
O607 Co591 2.057 . S
O607 C595 1.232 . S
H608 C627 0.929 . S
H609 C628 0.929 . S
H610 C640 0.931 . S
H611 C632 0.929 . S
H612 C641 0.930 . S
H613 C633 0.931 . S
O614 Co590 2.097 . S
O614 C642 1.214 . S
H615 C643 0.929 . S
H616 C644 0.929 . S
H617 C645 0.930 . S
H618 C646 0.929 . S
H619 C648 0.930 . S
H620 C625 0.930 . S
H621 C629 0.930 . S
O622 Co591 2.037 . S
O622 C642 1.234 . S
C623 O597 1.269 . S
C623 O598 1.257 . S
C624 H599 0.930 . S
C624 C627 1.388 . S
C624 C629 1.418 . S
C625 H620 0.930 . S
C625 C628 1.404 . S
C625 C629 1.353 . S
N626 Co591 2.145 . S
N626 C627 1.397 . S
N626 C628 1.334 . S
C627 H608 0.929 . S
C627 C624 1.388 . S
C627 N626 1.397 . S
C628 H609 0.929 . S
C628 C625 1.404 . S
C628 N626 1.334 . S
C629 H621 0.930 . S
C629 C624 1.418 . S
C629 C625 1.353 . S
C630 H600 0.930 . S
C630 N631 1.330 . S
C630 C632 1.446 . S
N631 Co590 2.151 . S
N631 C630 1.330 . S
N631 C635 1.418 . S
C632 H611 0.929 . S
C632 C630 1.446 . S
C632 C633 1.332 . S
C633 H613 0.931 . S
C633 C632 1.332 . S
C633 C634 1.267 . S
C634 H602 0.929 . S
C634 C633 1.267 . S
C634 C635 1.251 . S
C635 H605 0.929 . S
C635 N631 1.418 . S
C635 C634 1.251 . S
C636 H603 0.930 . S
C636 C638 1.406 . S
C636 C641 1.261 . S
C637 H604 0.930 . S
C637 N639 1.325 . S
C637 C640 1.357 . S
C638 H606 0.928 . S
C638 C636 1.406 . S
C638 N639 1.261 . S
N639 Co590 2.214 . S
N639 C637 1.325 . S
N639 C638 1.261 . S
C640 H610 0.931 . S
C640 C637 1.357 . S
C640 C641 1.312 . S
C641 H612 0.930 . S
C641 C636 1.261 . S
C641 C640 1.312 . S
C642 O614 1.214 . S
C642 O622 1.234 . S
C643 H615 0.929 . S
C643 C646 1.391 . S
C643 C648 1.391 1_554 S
C644 H616 0.929 . S
C644 C645 1.390 1_556 S
C644 N647 1.391 . S
C645 H617 0.930 . S
C645 C644 1.390 1_554 S
C645 C646 1.392 . S
C646 H618 0.929 . S
C646 C643 1.391 . S
C646 C645 1.392 . S
N647 Co591 2.257 . S
N647 C644 1.391 . S
N647 C648 1.388 . S
C648 H619 0.930 . S
C648 C643 1.391 1_556 S
C648 N647 1.388 . S
Co649 O651 2.143 . S
Co649 O657 2.074 . S
Co649 O660 2.093 . S
Co649 O673 2.097 . S
Co649 N690 2.151 . S
Co649 N698 2.214 . S
Co650 O651 2.160 . S
Co650 O656 2.058 . S
Co650 O666 2.057 . S
Co650 O681 2.037 . S
Co650 N685 2.145 . S
Co650 N706 2.257 . S
O651 Co649 2.143 . S
O651 Co650 2.160 . S
C652 O653 1.278 . S
C652 O660 1.224 . S
O653 C652 1.278 . S
C654 O655 1.245 . S
C654 O666 1.232 . S
O655 C654 1.245 . S
O656 Co650 2.058 . S
O656 C682 1.269 . S
O657 Co649 2.074 . S
O657 C682 1.257 . S
H658 C683 0.930 . S
H659 C689 0.930 . S
O660 Co649 2.093 . S
O660 C652 1.224 . S
H661 C693 0.929 . S
H662 C695 0.930 . S
H663 C696 0.930 . S
H664 C694 0.929 . S
H665 C697 0.928 . S
O666 Co650 2.057 . S
O666 C654 1.232 . S
H667 C686 0.929 . S
H668 C687 0.929 . S
H669 C699 0.931 . S
H670 C691 0.929 . S
H671 C700 0.930 . S
H672 C692 0.931 . S
O673 Co649 2.097 . S
O673 C701 1.214 . S
H674 C702 0.929 . S
H675 C703 0.929 . S
H676 C704 0.930 . S
H677 C705 0.929 . S
H678 C707 0.930 . S
H679 C684 0.930 . S
H680 C688 0.930 . S
O681 Co650 2.037 . S
O681 C701 1.234 . S
C682 O656 1.269 . S
C682 O657 1.257 . S
C683 H658 0.930 . S
C683 C686 1.388 . S
C683 C688 1.418 . S
C684 H679 0.930 . S
C684 C687 1.404 . S
C684 C688 1.353 . S
N685 Co650 2.145 . S
N685 C686 1.397 . S
N685 C687 1.334 . S
C686 H667 0.929 . S
C686 C683 1.388 . S
C686 N685 1.397 . S
C687 H668 0.929 . S
C687 C684 1.404 . S
C687 N685 1.334 . S
C688 H680 0.930 . S
C688 C683 1.418 . S
C688 C684 1.353 . S
C689 H659 0.930 . S
C689 N690 1.330 . S
C689 C691 1.446 . S
N690 Co649 2.151 . S
N690 C689 1.330 . S
N690 C694 1.418 . S
C691 H670 0.929 . S
C691 C689 1.446 . S
C691 C692 1.332 . S
C692 H672 0.931 . S
C692 C691 1.332 . S
C692 C693 1.267 . S
C693 H661 0.929 . S
C693 C692 1.267 . S
C693 C694 1.251 . S
C694 H664 0.929 . S
C694 N690 1.418 . S
C694 C693 1.251 . S
C695 H662 0.930 . S
C695 C697 1.406 . S
C695 C700 1.261 . S
C696 H663 0.930 . S
C696 N698 1.325 . S
C696 C699 1.357 . S
C697 H665 0.928 . S
C697 C695 1.406 . S
C697 N698 1.261 . S
N698 Co649 2.214 . S
N698 C696 1.325 . S
N698 C697 1.261 . S
C699 H669 0.931 . S
C699 C696 1.357 . S
C699 C700 1.312 . S
C700 H671 0.930 . S
C700 C695 1.261 . S
C700 C699 1.312 . S
C701 O673 1.214 . S
C701 O681 1.234 . S
C702 H674 0.929 . S
C702 C705 1.391 . S
C702 C707 1.391 . S
C703 H675 0.929 . S
C703 C704 1.390 . S
C703 N706 1.391 . S
C704 H676 0.930 . S
C704 C703 1.390 . S
C704 C705 1.392 . S
C705 H677 0.929 . S
C705 C702 1.391 . S
C705 C704 1.392 . S
N706 Co650 2.257 . S
N706 C703 1.391 . S
N706 C707 1.388 . S
C707 H678 0.930 . S
C707 C702 1.391 . S
C707 N706 1.388 . S
Co708 O710 2.143 . S
Co708 O716 2.074 . S
Co708 O719 2.093 . S
Co708 O732 2.097 . S
Co708 N749 2.151 . S
Co708 N757 2.214 . S
Co709 O710 2.160 . S
Co709 O715 2.058 . S
Co709 O725 2.057 . S
Co709 O740 2.037 . S
Co709 N744 2.145 . S
Co709 N765 2.257 . S
O710 Co708 2.143 . S
O710 Co709 2.160 . S
C711 O712 1.278 . S
C711 O719 1.224 . S
O712 C711 1.278 . S
C713 O714 1.245 . S
C713 O725 1.232 . S
O714 C713 1.245 . S
O715 Co709 2.058 . S
O715 C741 1.269 . S
O716 Co708 2.074 . S
O716 C741 1.257 . S
H717 C742 0.930 . S
H718 C748 0.930 . S
O719 Co708 2.093 . S
O719 C711 1.224 . S
H720 C752 0.929 . S
H721 C754 0.930 . S
H722 C755 0.930 . S
H723 C753 0.929 . S
H724 C756 0.928 . S
O725 Co709 2.057 . S
O725 C713 1.232 . S
H726 C745 0.932 . S
H727 C746 0.929 1_556 S
H728 C758 0.931 . S
H729 C750 0.929 . S
H730 C759 0.930 . S
H731 C751 0.931 . S
O732 Co708 2.097 . S
O732 C760 1.214 . S
H733 C761 0.929 . S
H734 C762 0.929 . S
H735 C763 0.930 . S
H736 C764 0.929 . S
H737 C766 0.930 . S
H738 C743 0.930 . S
H739 C747 0.930 . S
O740 Co709 2.037 . S
O740 C760 1.234 . S
C741 O715 1.269 . S
C741 O716 1.257 . S
C742 H717 0.930 . S
C742 C745 1.383 1_554 S
C742 C747 1.418 . S
C743 H738 0.930 . S
C743 C746 1.404 . S
C743 C747 1.353 . S
N744 Co709 2.145 . S
N744 C745 1.399 . S
N744 C746 1.334 1_556 S
C745 H726 0.932 . S
C745 C742 1.383 1_556 S
C745 N744 1.399 . S
C746 H727 0.929 1_554 S
C746 C743 1.404 . S
C746 N744 1.334 1_554 S
C747 H739 0.930 . S
C747 C742 1.418 . S
C747 C743 1.353 . S
C748 H718 0.930 . S
C748 N749 1.330 . S
C748 C750 1.446 . S
N749 Co708 2.151 . S
N749 C748 1.330 . S
N749 C753 1.418 . S
C750 H729 0.929 . S
C750 C748 1.446 . S
C750 C751 1.332 . S
C751 H731 0.931 . S
C751 C750 1.332 . S
C751 C752 1.267 . S
C752 H720 0.929 . S
C752 C751 1.267 . S
C752 C753 1.251 . S
C753 H723 0.929 . S
C753 N749 1.418 . S
C753 C752 1.251 . S
C754 H721 0.930 . S
C754 C756 1.406 . S
C754 C759 1.261 . S
C755 H722 0.930 . S
C755 N757 1.325 . S
C755 C758 1.357 . S
C756 H724 0.928 . S
C756 C754 1.406 . S
C756 N757 1.261 . S
N757 Co708 2.214 . S
N757 C755 1.325 . S
N757 C756 1.261 . S
C758 H728 0.931 . S
C758 C755 1.357 . S
C758 C759 1.312 . S
C759 H730 0.930 . S
C759 C754 1.261 . S
C759 C758 1.312 . S
C760 O732 1.214 . S
C760 O740 1.234 . S
C761 H733 0.929 . S
C761 C764 1.391 . S
C761 C766 1.391 . S
C762 H734 0.929 . S
C762 C763 1.390 . S
C762 N765 1.391 . S
C763 H735 0.930 . S
C763 C762 1.390 . S
C763 C764 1.392 . S
C764 H736 0.929 . S
C764 C761 1.391 . S
C764 C763 1.392 . S
N765 Co709 2.257 . S
N765 C762 1.391 . S
N765 C766 1.388 . S
C766 H737 0.930 . S
C766 C761 1.391 . S
C766 N765 1.388 . S
Co767 O769 2.143 . S
Co767 O775 2.074 . S
Co767 O778 2.093 . S
Co767 O791 2.097 . S
Co767 N808 2.151 . S
Co767 N816 2.214 . S
Co768 O769 2.160 . S
Co768 O774 2.058 . S
Co768 O784 2.057 . S
Co768 O799 2.037 . S
Co768 N803 2.145 . S
Co768 N824 2.257 . S
O769 Co767 2.143 . S
O769 Co768 2.160 . S
C770 O771 1.278 . S
C770 O778 1.224 . S
O771 C770 1.278 . S
C772 O773 1.245 . S
C772 O784 1.232 . S
O773 C772 1.245 . S
O774 Co768 2.058 . S
O774 C800 1.269 . S
O775 Co767 2.074 . S
O775 C800 1.257 . S
H776 C801 0.930 . S
H777 C807 0.930 . S
O778 Co767 2.093 . S
O778 C770 1.224 . S
H779 C811 0.929 . S
H780 C813 0.930 . S
H781 C814 0.930 . S
H782 C812 0.929 . S
H783 C815 0.928 . S
O784 Co768 2.057 . S
O784 C772 1.232 . S
H785 C804 0.929 . S
H786 C805 0.929 . S
H787 C817 0.931 . S
H788 C809 0.929 . S
H789 C818 0.930 . S
H790 C810 0.931 . S
O791 Co767 2.097 . S
O791 C819 1.214 . S
H792 C820 0.929 . S
H793 C821 0.929 . S
H794 C822 0.930 . S
H795 C823 0.929 . S
H796 C825 0.930 . S
H797 C802 0.930 . S
H798 C806 0.930 . S
O799 Co768 2.037 . S
O799 C819 1.234 . S
C800 O774 1.269 . S
C800 O775 1.257 . S
C801 H776 0.930 . S
C801 C804 1.388 . S
C801 C806 1.418 . S
C802 H797 0.930 . S
C802 C805 1.404 . S
C802 C806 1.353 . S
N803 Co768 2.145 . S
N803 C804 1.397 . S
N803 C805 1.334 . S
C804 H785 0.929 . S
C804 C801 1.388 . S
C804 N803 1.397 . S
C805 H786 0.929 . S
C805 C802 1.404 . S
C805 N803 1.334 . S
C806 H798 0.930 . S
C806 C801 1.418 . S
C806 C802 1.353 . S
C807 H777 0.930 . S
C807 N808 1.330 . S
C807 C809 1.446 . S
N808 Co767 2.151 . S
N808 C807 1.330 . S
N808 C812 1.418 . S
C809 H788 0.929 . S
C809 C807 1.446 . S
C809 C810 1.332 . S
C810 H790 0.931 . S
C810 C809 1.332 . S
C810 C811 1.267 . S
C811 H779 0.929 . S
C811 C810 1.267 . S
C811 C812 1.251 . S
C812 H782 0.929 . S
C812 N808 1.418 . S
C812 C811 1.251 . S
C813 H780 0.930 . S
C813 C815 1.406 . S
C813 C818 1.261 . S
C814 H781 0.930 . S
C814 N816 1.325 . S
C814 C817 1.357 . S
C815 H783 0.928 . S
C815 C813 1.406 . S
C815 N816 1.261 . S
N816 Co767 2.214 . S
N816 C814 1.325 . S
N816 C815 1.261 . S
C817 H787 0.931 . S
C817 C814 1.357 . S
C817 C818 1.312 . S
C818 H789 0.930 . S
C818 C813 1.261 . S
C818 C817 1.312 . S
C819 O791 1.214 . S
C819 O799 1.234 . S
C820 H792 0.929 . S
C820 C823 1.391 . S
C820 C825 1.391 . S
C821 H793 0.929 . S
C821 C822 1.390 . S
C821 N824 1.391 . S
C822 H794 0.930 . S
C822 C821 1.390 . S
C822 C823 1.392 . S
C823 H795 0.929 . S
C823 C820 1.391 . S
C823 C822 1.392 . S
N824 Co768 2.257 . S
N824 C821 1.391 . S
N824 C825 1.388 . S
C825 H796 0.930 . S
C825 C820 1.391 . S
C825 N824 1.388 . S
Co826 O828 2.143 . S
Co826 O834 2.074 . S
Co826 O837 2.093 . S
Co826 O850 2.097 . S
Co826 N867 2.151 . S
Co826 N875 2.214 . S
Co827 O828 2.160 . S
Co827 O833 2.058 . S
Co827 O843 2.057 . S
Co827 O858 2.037 . S
Co827 N862 2.145 . S
Co827 N883 2.257 . S
O828 Co826 2.143 . S
O828 Co827 2.160 . S
C829 O830 1.278 . S
C829 O837 1.224 . S
O830 C829 1.278 . S
C831 O832 1.245 . S
C831 O843 1.232 . S
O832 C831 1.245 . S
O833 Co827 2.058 . S
O833 C859 1.269 . S
O834 Co826 2.074 . S
O834 C859 1.257 . S
H835 C860 0.930 . S
H836 C866 0.930 . S
O837 Co826 2.093 . S
O837 C829 1.224 . S
H838 C870 0.929 . S
H839 C872 0.930 . S
H840 C873 0.930 . S
H841 C871 0.929 . S
H842 C874 0.928 . S
O843 Co827 2.057 . S
O843 C831 1.232 . S
H844 C863 0.932 . S
H845 C864 0.929 1_554 S
H846 C876 0.931 . S
H847 C868 0.929 . S
H848 C877 0.930 . S
H849 C869 0.931 . S
O850 Co826 2.097 . S
O850 C878 1.214 . S
H851 C879 0.929 . S
H852 C880 0.929 . S
H853 C881 0.930 . S
H854 C882 0.929 . S
H855 C884 0.930 . S
H856 C861 0.930 . S
H857 C865 0.930 . S
O858 Co827 2.037 . S
O858 C878 1.234 . S
C859 O833 1.269 . S
C859 O834 1.257 . S
C860 H835 0.930 . S
C860 C863 1.383 1_556 S
C860 C865 1.418 . S
C861 H856 0.930 . S
C861 C864 1.404 . S
C861 C865 1.353 . S
N862 Co827 2.145 . S
N862 C863 1.399 . S
N862 C864 1.334 1_554 S
C863 H844 0.932 . S
C863 C860 1.383 1_554 S
C863 N862 1.399 . S
C864 H845 0.929 1_556 S
C864 C861 1.404 . S
C864 N862 1.334 1_556 S
C865 H857 0.930 . S
C865 C860 1.418 . S
C865 C861 1.353 . S
C866 H836 0.930 . S
C866 N867 1.330 . S
C866 C868 1.446 . S
N867 Co826 2.151 . S
N867 C866 1.330 . S
N867 C871 1.418 . S
C868 H847 0.929 . S
C868 C866 1.446 . S
C868 C869 1.332 . S
C869 H849 0.931 . S
C869 C868 1.332 . S
C869 C870 1.267 . S
C870 H838 0.929 . S
C870 C869 1.267 . S
C870 C871 1.251 . S
C871 H841 0.929 . S
C871 N867 1.418 . S
C871 C870 1.251 . S
C872 H839 0.930 . S
C872 C874 1.406 . S
C872 C877 1.261 . S
C873 H840 0.930 . S
C873 N875 1.325 . S
C873 C876 1.357 . S
C874 H842 0.928 . S
C874 C872 1.406 . S
C874 N875 1.261 . S
N875 Co826 2.214 . S
N875 C873 1.325 . S
N875 C874 1.261 . S
C876 H846 0.931 . S
C876 C873 1.357 . S
C876 C877 1.312 . S
C877 H848 0.930 . S
C877 C872 1.261 . S
C877 C876 1.312 . S
C878 O850 1.214 . S
C878 O858 1.234 . S
C879 H851 0.929 . S
C879 C882 1.391 . S
C879 C884 1.391 . S
C880 H852 0.929 . S
C880 C881 1.390 . S
C880 N883 1.391 . S
C881 H853 0.930 . S
C881 C880 1.390 . S
C881 C882 1.392 . S
C882 H854 0.929 . S
C882 C879 1.391 . S
C882 C881 1.392 . S
N883 Co827 2.257 . S
N883 C880 1.391 . S
N883 C884 1.388 . S
C884 H855 0.930 . S
C884 C879 1.391 . S
C884 N883 1.388 . S
Co885 O887 2.143 . S
Co885 O893 2.074 . S
Co885 O896 2.093 . S
Co885 O909 2.097 . S
Co885 N926 2.151 . S
Co885 N934 2.214 . S
Co886 O887 2.160 . S
Co886 O892 2.058 . S
Co886 O902 2.057 . S
Co886 O917 2.037 . S
Co886 N921 2.145 . S
Co886 N942 2.257 . S
O887 Co885 2.143 . S
O887 Co886 2.160 . S
C888 O889 1.278 . S
C888 O896 1.224 . S
O889 C888 1.278 . S
C890 O891 1.245 . S
C890 O902 1.232 . S
O891 C890 1.245 . S
O892 Co886 2.058 . S
O892 C918 1.269 . S
O893 Co885 2.074 . S
O893 C918 1.257 . S
H894 C919 0.930 . S
H895 C925 0.930 . S
O896 Co885 2.093 . S
O896 C888 1.224 . S
H897 C929 0.929 . S
H898 C931 0.930 . S
H899 C932 0.930 . S
H900 C930 0.929 . S
H901 C933 0.928 . S
O902 Co886 2.057 . S
O902 C890 1.232 . S
H903 C922 0.929 . S
H904 C923 0.929 . S
H905 C935 0.931 . S
H906 C927 0.929 . S
H907 C936 0.930 . S
H908 C928 0.931 . S
O909 Co885 2.097 . S
O909 C937 1.214 . S
H910 C938 0.929 . S
H911 C939 0.929 . S
H912 C940 0.930 . S
H913 C941 0.929 . S
H914 C943 0.930 . S
H915 C920 0.930 . S
H916 C924 0.930 . S
O917 Co886 2.037 . S
O917 C937 1.234 . S
C918 O892 1.269 . S
C918 O893 1.257 . S
C919 H894 0.930 . S
C919 C922 1.388 . S
C919 C924 1.418 . S
C920 H915 0.930 . S
C920 C923 1.404 . S
C920 C924 1.353 . S
N921 Co886 2.145 . S
N921 C922 1.397 . S
N921 C923 1.334 . S
C922 H903 0.929 . S
C922 C919 1.388 . S
C922 N921 1.397 . S
C923 H904 0.929 . S
C923 C920 1.404 . S
C923 N921 1.334 . S
C924 H916 0.930 . S
C924 C919 1.418 . S
C924 C920 1.353 . S
C925 H895 0.930 . S
C925 N926 1.330 . S
C925 C927 1.446 . S
N926 Co885 2.151 . S
N926 C925 1.330 . S
N926 C930 1.418 . S
C927 H906 0.929 . S
C927 C925 1.446 . S
C927 C928 1.332 . S
C928 H908 0.931 . S
C928 C927 1.332 . S
C928 C929 1.267 . S
C929 H897 0.929 . S
C929 C928 1.267 . S
C929 C930 1.251 . S
C930 H900 0.929 . S
C930 N926 1.418 . S
C930 C929 1.251 . S
C931 H898 0.930 . S
C931 C933 1.406 . S
C931 C936 1.261 . S
C932 H899 0.930 . S
C932 N934 1.325 . S
C932 C935 1.357 . S
C933 H901 0.928 . S
C933 C931 1.406 . S
C933 N934 1.261 . S
N934 Co885 2.214 . S
N934 C932 1.325 . S
N934 C933 1.261 . S
C935 H905 0.931 . S
C935 C932 1.357 . S
C935 C936 1.312 . S
C936 H907 0.930 . S
C936 C931 1.261 . S
C936 C935 1.312 . S
C937 O909 1.214 . S
C937 O917 1.234 . S
C938 H910 0.929 . S
C938 C941 1.391 . S
C938 C943 1.391 . S
C939 H911 0.929 . S
C939 C940 1.390 . S
C939 N942 1.391 . S
C940 H912 0.930 . S
C940 C939 1.390 . S
C940 C941 1.392 . S
C941 H913 0.929 . S
C941 C938 1.391 . S
C941 C940 1.392 . S
N942 Co886 2.257 . S
N942 C939 1.391 . S
N942 C943 1.388 . S
C943 H914 0.930 . S
C943 C938 1.391 . S
C943 N942 1.388 . S
H944 C952 0.950 . S
H945 C957 0.950 . S
H946 C954 0.950 . S
H947 C956 0.950 . S
H948 C958 0.950 . S
H949 C960 0.950 . S
H950 C962 0.950 . S
H951 C963 0.950 . S
C952 H944 0.950 . S
C952 C953 1.386 . S
C952 C954 1.391 . S
C953 C952 1.386 . S
C953 C957 1.393 . S
C954 H946 0.950 . S
C954 C952 1.391 . S
C954 C955 1.400 . S
C955 C954 1.400 . S
C955 C956 1.398 . S
C955 C961 1.491 1_455 S
C956 H947 0.950 . S
C956 C955 1.398 . S
C956 C957 1.391 . S
C957 H945 0.950 . S
C957 C953 1.393 . S
C957 C956 1.391 . S
C958 H948 0.950 . S
C958 C959 1.386 . S
C958 C960 1.391 . S
C959 C958 1.386 . S
C959 C963 1.393 . S
C960 H949 0.950 . S
C960 C958 1.391 . S
C960 C961 1.400 . S
C961 C955 1.491 1_655 S
C961 C960 1.400 . S
C961 C962 1.398 . S
C962 H950 0.950 . S
C962 C961 1.398 . S
C962 C963 1.391 . S
C963 H951 0.950 . S
C963 C959 1.393 . S
C963 C962 1.391 . S
H964 C972 0.950 . S
H965 C977 0.950 . S
H966 C974 0.950 . S
H967 C976 0.950 . S
H968 C978 0.950 . S
H969 C980 0.950 . S
H970 C982 0.950 . S
H971 C983 0.950 . S
C972 H964 0.950 . S
C972 C973 1.386 . S
C972 C974 1.391 . S
C973 C972 1.386 . S
C973 C977 1.393 . S
C974 H966 0.950 . S
C974 C972 1.391 . S
C974 C975 1.400 . S
C975 C974 1.400 . S
C975 C976 1.398 . S
C975 C981 1.491 1_655 S
C976 H967 0.950 . S
C976 C975 1.398 . S
C976 C977 1.391 . S
C977 H965 0.950 . S
C977 C973 1.393 . S
C977 C976 1.391 . S
C978 H968 0.950 . S
C978 C979 1.386 . S
C978 C980 1.391 . S
C979 C978 1.386 . S
C979 C983 1.393 . S
C980 H969 0.950 . S
C980 C978 1.391 . S
C980 C981 1.400 . S
C981 C975 1.491 1_455 S
C981 C980 1.400 . S
C981 C982 1.398 . S
C982 H970 0.950 . S
C982 C981 1.398 . S
C982 C983 1.391 . S
C983 H971 0.950 . S
C983 C979 1.393 . S
C983 C982 1.391 . S
H984 C992 0.950 . S
H985 C997 0.950 . S
H986 C994 0.950 . S
H987 C996 0.950 . S
H988 C998 0.950 . S
H989 C1000 0.950 . S
H990 C1002 0.950 . S
H991 C1003 0.950 . S
C992 H984 0.950 . S
C992 C993 1.386 . S
C992 C994 1.391 . S
C993 C992 1.386 . S
C993 C997 1.393 . S
C994 H986 0.950 . S
C994 C992 1.391 . S
C994 C995 1.400 . S
C995 C994 1.400 . S
C995 C996 1.398 . S
C995 C1001 1.491 1_655 S
C996 H987 0.950 . S
C996 C995 1.398 . S
C996 C997 1.391 . S
C997 H985 0.950 . S
C997 C993 1.393 . S
C997 C996 1.391 . S
C998 H988 0.950 . S
C998 C999 1.386 . S
C998 C1000 1.391 . S
C999 C998 1.386 . S
C999 C1003 1.393 . S
C1000 H989 0.950 . S
C1000 C998 1.391 . S
C1000 C1001 1.400 . S
C1001 C995 1.491 1_455 S
C1001 C1000 1.400 . S
C1001 C1002 1.398 . S
C1002 H990 0.950 . S
C1002 C1001 1.398 . S
C1002 C1003 1.391 . S
C1003 H991 0.950 . S
C1003 C999 1.393 . S
C1003 C1002 1.391 . S
H1004 C1012 0.950 . S
H1005 C1017 0.950 . S
H1006 C1014 0.950 . S
H1007 C1016 0.950 . S
H1008 C1018 0.950 . S
H1009 C1020 0.950 . S
H1010 C1022 0.950 . S
H1011 C1023 0.950 . S
C1012 H1004 0.950 . S
C1012 C1013 1.386 . S
C1012 C1014 1.391 . S
C1013 C1012 1.386 . S
C1013 C1017 1.393 . S
C1014 H1006 0.950 . S
C1014 C1012 1.391 . S
C1014 C1015 1.400 . S
C1015 C1014 1.400 . S
C1015 C1016 1.398 . S
C1015 C1021 1.491 1_455 S
C1016 H1007 0.950 . S
C1016 C1015 1.398 . S
C1016 C1017 1.391 . S
C1017 H1005 0.950 . S
C1017 C1013 1.393 . S
C1017 C1016 1.391 . S
C1018 H1008 0.950 . S
C1018 C1019 1.386 . S
C1018 C1020 1.391 . S
C1019 C1018 1.386 . S
C1019 C1023 1.393 . S
C1020 H1009 0.950 . S
C1020 C1018 1.391 . S
C1020 C1021 1.400 . S
C1021 C1015 1.491 1_655 S
C1021 C1020 1.400 . S
C1021 C1022 1.398 . S
C1022 H1010 0.950 . S
C1022 C1021 1.398 . S
C1022 C1023 1.391 . S
C1023 H1011 0.950 . S
C1023 C1019 1.393 . S
C1023 C1022 1.391 . S
H1024 C1032 0.950 . S
H1025 C1037 0.950 . S
H1026 C1034 0.950 . S
H1027 C1036 0.950 . S
H1028 C1038 0.950 . S
H1029 C1040 0.950 . S
H1030 C1042 0.950 . S
H1031 C1043 0.950 . S
C1032 H1024 0.950 . S
C1032 C1033 1.386 . S
C1032 C1034 1.391 . S
C1033 C1032 1.386 . S
C1033 C1037 1.393 . S
C1034 H1026 0.950 . S
C1034 C1032 1.391 . S
C1034 C1035 1.400 . S
C1035 C1034 1.400 . S
C1035 C1036 1.398 . S
C1035 C1041 1.491 . S
C1036 H1027 0.950 . S
C1036 C1035 1.398 . S
C1036 C1037 1.391 . S
C1037 H1025 0.950 . S
C1037 C1033 1.393 . S
C1037 C1036 1.391 . S
C1038 H1028 0.950 . S
C1038 C1039 1.386 . S
C1038 C1040 1.391 . S
C1039 C1038 1.386 . S
C1039 C1043 1.393 . S
C1040 H1029 0.950 . S
C1040 C1038 1.391 . S
C1040 C1041 1.400 . S
C1041 C1035 1.491 . S
C1041 C1040 1.400 . S
C1041 C1042 1.398 . S
C1042 H1030 0.950 . S
C1042 C1041 1.398 . S
C1042 C1043 1.391 . S
C1043 H1031 0.950 . S
C1043 C1039 1.393 . S
C1043 C1042 1.391 . S
H1044 C1052 0.950 . S
H1045 C1057 0.950 . S
H1046 C1054 0.950 . S
H1047 C1056 0.950 . S
H1048 C1058 0.950 . S
H1049 C1060 0.950 . S
H1050 C1062 0.950 . S
H1051 C1063 0.950 . S
C1052 H1044 0.950 . S
C1052 C1053 1.386 . S
C1052 C1054 1.391 . S
C1053 C1052 1.386 . S
C1053 C1057 1.393 . S
C1054 H1046 0.950 . S
C1054 C1052 1.391 . S
C1054 C1055 1.400 . S
C1055 C1054 1.400 . S
C1055 C1056 1.398 . S
C1055 C1061 1.491 . S
C1056 H1047 0.950 . S
C1056 C1055 1.398 . S
C1056 C1057 1.391 . S
C1057 H1045 0.950 . S
C1057 C1053 1.393 . S
C1057 C1056 1.391 . S
C1058 H1048 0.950 . S
C1058 C1059 1.386 . S
C1058 C1060 1.391 . S
C1059 C1058 1.386 . S
C1059 C1063 1.393 . S
C1060 H1049 0.950 . S
C1060 C1058 1.391 . S
C1060 C1061 1.400 . S
C1061 C1055 1.491 . S
C1061 C1060 1.400 . S
C1061 C1062 1.398 . S
C1062 H1050 0.950 . S
C1062 C1061 1.398 . S
C1062 C1063 1.391 . S
C1063 H1051 0.950 . S
C1063 C1059 1.393 . S
C1063 C1062 1.391 . S
H1064 C1072 0.950 . S
H1065 C1077 0.950 . S
H1066 C1074 0.950 . S
H1067 C1076 0.950 . S
H1068 C1078 0.950 . S
H1069 C1080 0.950 . S
H1070 C1082 0.950 . S
H1071 C1083 0.950 . S
C1072 H1064 0.950 . S
C1072 C1073 1.386 . S
C1072 C1074 1.391 . S
C1073 C1072 1.386 . S
C1073 C1077 1.393 . S
C1074 H1066 0.950 . S
C1074 C1072 1.391 . S
C1074 C1075 1.400 . S
C1075 C1074 1.400 . S
C1075 C1076 1.398 . S
C1075 C1081 1.491 . S
C1076 H1067 0.950 . S
C1076 C1075 1.398 . S
C1076 C1077 1.391 . S
C1077 H1065 0.950 . S
C1077 C1073 1.393 . S
C1077 C1076 1.391 . S
C1078 H1068 0.950 . S
C1078 C1079 1.386 . S
C1078 C1080 1.391 . S
C1079 C1078 1.386 . S
C1079 C1083 1.393 . S
C1080 H1069 0.950 . S
C1080 C1078 1.391 . S
C1080 C1081 1.400 . S
C1081 C1075 1.491 . S
C1081 C1080 1.400 . S
C1081 C1082 1.398 . S
C1082 H1070 0.950 . S
C1082 C1081 1.398 . S
C1082 C1083 1.391 . S
C1083 H1071 0.950 . S
C1083 C1079 1.393 . S
C1083 C1082 1.391 . S
H1084 C1092 0.950 . S
H1085 C1097 0.950 . S
H1086 C1094 0.950 . S
H1087 C1096 0.950 . S
H1088 C1098 0.950 . S
H1089 C1100 0.950 . S
H1090 C1102 0.950 . S
H1091 C1103 0.950 . S
C1092 H1084 0.950 . S
C1092 C1093 1.386 . S
C1092 C1094 1.391 . S
C1093 C1092 1.386 . S
C1093 C1097 1.393 . S
C1094 H1086 0.950 . S
C1094 C1092 1.391 . S
C1094 C1095 1.400 . S
C1095 C1094 1.400 . S
C1095 C1096 1.398 . S
C1095 C1101 1.491 . S
C1096 H1087 0.950 . S
C1096 C1095 1.398 . S
C1096 C1097 1.391 . S
C1097 H1085 0.950 . S
C1097 C1093 1.393 . S
C1097 C1096 1.391 . S
C1098 H1088 0.950 . S
C1098 C1099 1.386 . S
C1098 C1100 1.391 . S
C1099 C1098 1.386 . S
C1099 C1103 1.393 . S
C1100 H1089 0.950 . S
C1100 C1098 1.391 . S
C1100 C1101 1.400 . S
C1101 C1095 1.491 . S
C1101 C1100 1.400 . S
C1101 C1102 1.398 . S
C1102 H1090 0.950 . S
C1102 C1101 1.398 . S
C1102 C1103 1.391 . S
C1103 H1091 0.950 . S
C1103 C1099 1.393 . S
C1103 C1102 1.391 . S
H1104 C1112 0.950 . S
H1105 C1117 0.950 . S
H1106 C1114 0.950 . S
H1107 C1116 0.950 . S
H1108 C1118 0.950 . S
H1109 C1120 0.950 . S
H1110 C1122 0.950 . S
H1111 C1123 0.950 . S
C1112 H1104 0.950 . S
C1112 C1113 1.386 . S
C1112 C1114 1.391 . S
C1113 C1112 1.386 . S
C1113 C1117 1.393 . S
C1114 H1106 0.950 . S
C1114 C1112 1.391 . S
C1114 C1115 1.400 . S
C1115 C1114 1.400 . S
C1115 C1116 1.398 . S
C1115 C1121 1.491 . S
C1116 H1107 0.950 . S
C1116 C1115 1.398 . S
C1116 C1117 1.391 . S
C1117 H1105 0.950 . S
C1117 C1113 1.393 . S
C1117 C1116 1.391 . S
C1118 H1108 0.950 . S
C1118 C1119 1.386 . S
C1118 C1120 1.391 . S
C1119 C1118 1.386 . S
C1119 C1123 1.393 . S
C1120 H1109 0.950 . S
C1120 C1118 1.391 . S
C1120 C1121 1.400 . S
C1121 C1115 1.491 . S
C1121 C1120 1.400 . S
C1121 C1122 1.398 . S
C1122 H1110 0.950 . S
C1122 C1121 1.398 . S
C1122 C1123 1.391 . S
C1123 H1111 0.950 . S
C1123 C1119 1.393 . S
C1123 C1122 1.391 . S
H1124 C1132 0.950 . S
H1125 C1137 0.950 . S
H1126 C1134 0.950 . S
H1127 C1136 0.950 . S
H1128 C1138 0.950 . S
H1129 C1140 0.950 . S
H1130 C1142 0.950 . S
H1131 C1143 0.950 . S
C1132 H1124 0.950 . S
C1132 C1133 1.386 . S
C1132 C1134 1.391 . S
C1133 C1132 1.386 . S
C1133 C1137 1.393 . S
C1134 H1126 0.950 . S
C1134 C1132 1.391 . S
C1134 C1135 1.400 . S
C1135 C1134 1.400 . S
C1135 C1136 1.398 . S
C1135 C1141 1.491 . S
C1136 H1127 0.950 . S
C1136 C1135 1.398 . S
C1136 C1137 1.391 . S
C1137 H1125 0.950 . S
C1137 C1133 1.393 . S
C1137 C1136 1.391 . S
C1138 H1128 0.950 . S
C1138 C1139 1.386 . S
C1138 C1140 1.391 . S
C1139 C1138 1.386 . S
C1139 C1143 1.393 . S
C1140 H1129 0.950 . S
C1140 C1138 1.391 . S
C1140 C1141 1.400 . S
C1141 C1135 1.491 . S
C1141 C1140 1.400 . S
C1141 C1142 1.398 . S
C1142 H1130 0.950 . S
C1142 C1141 1.398 . S
C1142 C1143 1.391 . S
C1143 H1131 0.950 . S
C1143 C1139 1.393 . S
C1143 C1142 1.391 . S
H1144 C1152 0.950 . S
H1145 C1157 0.950 . S
H1146 C1154 0.950 . S
H1147 C1156 0.950 . S
H1148 C1158 0.950 . S
H1149 C1160 0.950 . S
H1150 C1162 0.950 . S
H1151 C1163 0.950 . S
C1152 H1144 0.950 . S
C1152 C1153 1.386 . S
C1152 C1154 1.391 . S
C1153 C1152 1.386 . S
C1153 C1157 1.393 . S
C1154 H1146 0.950 . S
C1154 C1152 1.391 . S
C1154 C1155 1.400 . S
C1155 C1154 1.400 . S
C1155 C1156 1.398 . S
C1155 C1161 1.491 . S
C1156 H1147 0.950 . S
C1156 C1155 1.398 . S
C1156 C1157 1.391 . S
C1157 H1145 0.950 . S
C1157 C1153 1.393 . S
C1157 C1156 1.391 . S
C1158 H1148 0.950 . S
C1158 C1159 1.386 . S
C1158 C1160 1.391 . S
C1159 C1158 1.386 . S
C1159 C1163 1.393 . S
C1160 H1149 0.950 . S
C1160 C1158 1.391 . S
C1160 C1161 1.400 . S
C1161 C1155 1.491 . S
C1161 C1160 1.400 . S
C1161 C1162 1.398 . S
C1162 H1150 0.950 . S
C1162 C1161 1.398 . S
C1162 C1163 1.391 . S
C1163 H1151 0.950 . S
C1163 C1159 1.393 . S
C1163 C1162 1.391 . S
H1164 C1172 0.950 . S
H1165 C1177 0.950 . S
H1166 C1174 0.950 . S
H1167 C1176 0.950 . S
H1168 C1178 0.950 . S
H1169 C1180 0.950 . S
H1170 C1182 0.950 . S
H1171 C1183 0.950 . S
C1172 H1164 0.950 . S
C1172 C1173 1.386 . S
C1172 C1174 1.391 . S
C1173 C1172 1.386 . S
C1173 C1177 1.393 . S
C1174 H1166 0.950 . S
C1174 C1172 1.391 . S
C1174 C1175 1.400 . S
C1175 C1174 1.400 . S
C1175 C1176 1.398 . S
C1175 C1181 1.491 . S
C1176 H1167 0.950 . S
C1176 C1175 1.398 . S
C1176 C1177 1.391 . S
C1177 H1165 0.950 . S
C1177 C1173 1.393 . S
C1177 C1176 1.391 . S
C1178 H1168 0.950 . S
C1178 C1179 1.386 . S
C1178 C1180 1.391 . S
C1179 C1178 1.386 . S
C1179 C1183 1.393 . S
C1180 H1169 0.950 . S
C1180 C1178 1.391 . S
C1180 C1181 1.400 . S
C1181 C1175 1.491 . S
C1181 C1180 1.400 . S
C1181 C1182 1.398 . S
C1182 H1170 0.950 . S
C1182 C1181 1.398 . S
C1182 C1183 1.391 . S
C1183 H1171 0.950 . S
C1183 C1179 1.393 . S
C1183 C1182 1.391 . S
H1184 C1192 0.950 . S
H1185 C1197 0.950 . S
H1186 C1194 0.950 . S
H1187 C1196 0.950 . S
H1188 C1198 0.950 . S
H1189 C1200 0.950 . S
H1190 C1202 0.950 . S
H1191 C1203 0.950 . S
C1192 H1184 0.950 . S
C1192 C1193 1.386 . S
C1192 C1194 1.391 . S
C1193 C1192 1.386 . S
C1193 C1197 1.393 . S
C1194 H1186 0.950 . S
C1194 C1192 1.391 . S
C1194 C1195 1.400 . S
C1195 C1194 1.400 . S
C1195 C1196 1.398 . S
C1195 C1201 1.491 . S
C1196 H1187 0.950 . S
C1196 C1195 1.398 . S
C1196 C1197 1.391 . S
C1197 H1185 0.950 . S
C1197 C1193 1.393 . S
C1197 C1196 1.391 . S
C1198 H1188 0.950 . S
C1198 C1199 1.386 . S
C1198 C1200 1.391 . S
C1199 C1198 1.386 . S
C1199 C1203 1.393 . S
C1200 H1189 0.950 . S
C1200 C1198 1.391 . S
C1200 C1201 1.400 . S
C1201 C1195 1.491 . S
C1201 C1200 1.400 . S
C1201 C1202 1.398 . S
C1202 H1190 0.950 . S
C1202 C1201 1.398 . S
C1202 C1203 1.391 . S
C1203 H1191 0.950 . S
C1203 C1199 1.393 . S
C1203 C1202 1.391 . S
H1204 C1212 0.950 . S
H1205 C1217 0.950 . S
H1206 C1214 0.950 . S
H1207 C1216 0.950 . S
H1208 C1218 0.950 . S
H1209 C1220 0.950 . S
H1210 C1222 0.950 . S
H1211 C1223 0.950 . S
C1212 H1204 0.950 . S
C1212 C1213 1.386 . S
C1212 C1214 1.391 . S
C1213 C1212 1.386 . S
C1213 C1217 1.393 . S
C1214 H1206 0.950 . S
C1214 C1212 1.391 . S
C1214 C1215 1.400 . S
C1215 C1214 1.400 . S
C1215 C1216 1.398 . S
C1215 C1221 1.491 . S
C1216 H1207 0.950 . S
C1216 C1215 1.398 . S
C1216 C1217 1.391 . S
C1217 H1205 0.950 . S
C1217 C1213 1.393 . S
C1217 C1216 1.391 . S
C1218 H1208 0.950 . S
C1218 C1219 1.386 . S
C1218 C1220 1.391 . S
C1219 C1218 1.386 . S
C1219 C1223 1.393 . S
C1220 H1209 0.950 . S
C1220 C1218 1.391 . S
C1220 C1221 1.400 . S
C1221 C1215 1.491 . S
C1221 C1220 1.400 . S
C1221 C1222 1.398 . S
C1222 H1210 0.950 . S
C1222 C1221 1.398 . S
C1222 C1223 1.391 . S
C1223 H1211 0.950 . S
C1223 C1219 1.393 . S
C1223 C1222 1.391 . S
H1224 C1232 0.950 . S
H1225 C1237 0.950 . S
H1226 C1234 0.950 . S
H1227 C1236 0.950 . S
H1228 C1238 0.950 . S
H1229 C1240 0.950 . S
H1230 C1242 0.950 . S
H1231 C1243 0.950 . S
C1232 H1224 0.950 . S
C1232 C1233 1.386 . S
C1232 C1234 1.391 . S
C1233 C1232 1.386 . S
C1233 C1237 1.393 . S
C1234 H1226 0.950 . S
C1234 C1232 1.391 . S
C1234 C1235 1.400 . S
C1235 C1234 1.400 . S
C1235 C1236 1.398 . S
C1235 C1241 1.491 . S
C1236 H1227 0.950 . S
C1236 C1235 1.398 . S
C1236 C1237 1.391 . S
C1237 H1225 0.950 . S
C1237 C1233 1.393 . S
C1237 C1236 1.391 . S
C1238 H1228 0.950 . S
C1238 C1239 1.386 . S
C1238 C1240 1.391 . S
C1239 C1238 1.386 . S
C1239 C1243 1.393 . S
C1240 H1229 0.950 . S
C1240 C1238 1.391 . S
C1240 C1241 1.400 . S
C1241 C1235 1.491 . S
C1241 C1240 1.400 . S
C1241 C1242 1.398 . S
C1242 H1230 0.950 . S
C1242 C1241 1.398 . S
C1242 C1243 1.391 . S
C1243 H1231 0.950 . S
C1243 C1239 1.393 . S
C1243 C1242 1.391 . S
H1244 C1252 0.950 . S
H1245 C1257 0.950 . S
H1246 C1254 0.950 . S
H1247 C1256 0.950 . S
H1248 C1258 0.950 . S
H1249 C1260 0.950 . S
H1250 C1262 0.950 . S
H1251 C1263 0.950 . S
C1252 H1244 0.950 . S
C1252 C1253 1.386 . S
C1252 C1254 1.391 . S
C1253 C1252 1.386 . S
C1253 C1257 1.393 . S
C1254 H1246 0.950 . S
C1254 C1252 1.391 . S
C1254 C1255 1.400 . S
C1255 C1254 1.400 . S
C1255 C1256 1.398 . S
C1255 C1261 1.491 . S
C1256 H1247 0.950 . S
C1256 C1255 1.398 . S
C1256 C1257 1.391 . S
C1257 H1245 0.950 . S
C1257 C1253 1.393 . S
C1257 C1256 1.391 . S
C1258 H1248 0.950 . S
C1258 C1259 1.386 . S
C1258 C1260 1.391 . S
C1259 C1258 1.386 . S
C1259 C1263 1.393 . S
C1260 H1249 0.950 . S
C1260 C1258 1.391 . S
C1260 C1261 1.400 . S
C1261 C1255 1.491 . S
C1261 C1260 1.400 . S
C1261 C1262 1.398 . S
C1262 H1250 0.950 . S
C1262 C1261 1.398 . S
C1262 C1263 1.391 . S
C1263 H1251 0.950 . S
C1263 C1259 1.393 . S
C1263 C1262 1.391 . S
H1264 C1272 0.950 . S
H1265 C1277 0.950 . S
H1266 C1274 0.950 . S
H1267 C1276 0.950 . S
H1268 C1278 0.950 . S
H1269 C1280 0.950 . S
H1270 C1282 0.950 . S
H1271 C1283 0.950 . S
C1272 H1264 0.950 . S
C1272 C1273 1.386 . S
C1272 C1274 1.391 . S
C1273 C1272 1.386 . S
C1273 C1277 1.393 . S
C1274 H1266 0.950 . S
C1274 C1272 1.391 . S
C1274 C1275 1.400 . S
C1275 C1274 1.400 . S
C1275 C1276 1.398 . S
C1275 C1281 1.491 1_556 S
C1276 H1267 0.950 . S
C1276 C1275 1.398 . S
C1276 C1277 1.391 . S
C1277 H1265 0.950 . S
C1277 C1273 1.393 . S
C1277 C1276 1.391 . S
C1278 H1268 0.950 . S
C1278 C1279 1.386 . S
C1278 C1280 1.391 . S
C1279 C1278 1.386 . S
C1279 C1283 1.393 . S
C1280 H1269 0.950 . S
C1280 C1278 1.391 . S
C1280 C1281 1.400 . S
C1281 C1275 1.491 1_554 S
C1281 C1280 1.400 . S
C1281 C1282 1.398 . S
C1282 H1270 0.950 . S
C1282 C1281 1.398 . S
C1282 C1283 1.391 . S
C1283 H1271 0.950 . S
C1283 C1279 1.393 . S
C1283 C1282 1.391 . S
H1284 C1292 0.950 . S
H1285 C1297 0.950 . S
H1286 C1294 0.950 . S
H1287 C1296 0.950 . S
H1288 C1298 0.950 . S
H1289 C1300 0.950 . S
H1290 C1302 0.950 . S
H1291 C1303 0.950 . S
C1292 H1284 0.950 . S
C1292 C1293 1.386 . S
C1292 C1294 1.391 . S
C1293 C1292 1.386 . S
C1293 C1297 1.393 . S
C1294 H1286 0.950 . S
C1294 C1292 1.391 . S
C1294 C1295 1.400 . S
C1295 C1294 1.400 . S
C1295 C1296 1.398 . S
C1295 C1301 1.491 . S
C1296 H1287 0.950 . S
C1296 C1295 1.398 . S
C1296 C1297 1.391 . S
C1297 H1285 0.950 . S
C1297 C1293 1.393 . S
C1297 C1296 1.391 . S
C1298 H1288 0.950 . S
C1298 C1299 1.386 . S
C1298 C1300 1.391 . S
C1299 C1298 1.386 . S
C1299 C1303 1.393 . S
C1300 H1289 0.950 . S
C1300 C1298 1.391 . S
C1300 C1301 1.400 . S
C1301 C1295 1.491 . S
C1301 C1300 1.400 . S
C1301 C1302 1.398 . S
C1302 H1290 0.950 . S
C1302 C1301 1.398 . S
C1302 C1303 1.391 . S
C1303 H1291 0.950 . S
C1303 C1299 1.393 . S
C1303 C1302 1.391 . S
H1304 C1312 0.950 . S
H1305 C1317 0.950 . S
H1306 C1314 0.950 . S
H1307 C1316 0.950 . S
H1308 C1318 0.950 . S
H1309 C1320 0.950 . S
H1310 C1322 0.950 . S
H1311 C1323 0.950 . S
C1312 H1304 0.950 . S
C1312 C1313 1.386 . S
C1312 C1314 1.391 . S
C1313 C1312 1.386 . S
C1313 C1317 1.393 . S
C1314 H1306 0.950 . S
C1314 C1312 1.391 . S
C1314 C1315 1.400 . S
C1315 C1314 1.400 . S
C1315 C1316 1.398 . S
C1315 C1321 1.491 1_554 S
C1316 H1307 0.950 . S
C1316 C1315 1.398 . S
C1316 C1317 1.391 . S
C1317 H1305 0.950 . S
C1317 C1313 1.393 . S
C1317 C1316 1.391 . S
C1318 H1308 0.950 . S
C1318 C1319 1.386 . S
C1318 C1320 1.391 . S
C1319 C1318 1.386 . S
C1319 C1323 1.393 . S
C1320 H1309 0.950 . S
C1320 C1318 1.391 . S
C1320 C1321 1.400 . S
C1321 C1315 1.491 1_556 S
C1321 C1320 1.400 . S
C1321 C1322 1.398 . S
C1322 H1310 0.950 . S
C1322 C1321 1.398 . S
C1322 C1323 1.391 . S
C1323 H1311 0.950 . S
C1323 C1319 1.393 . S
C1323 C1322 1.391 . S
H1324 C1332 0.950 . S
H1325 C1337 0.950 . S
H1326 C1334 0.950 . S
H1327 C1336 0.950 . S
H1328 C1338 0.950 . S
H1329 C1340 0.950 . S
H1330 C1342 0.950 . S
H1331 C1343 0.950 . S
C1332 H1324 0.950 . S
C1332 C1333 1.386 . S
C1332 C1334 1.391 . S
C1333 C1332 1.386 . S
C1333 C1337 1.393 . S
C1334 H1326 0.950 . S
C1334 C1332 1.391 . S
C1334 C1335 1.400 . S
C1335 C1334 1.400 . S
C1335 C1336 1.398 . S
C1335 C1341 1.491 . S
C1336 H1327 0.950 . S
C1336 C1335 1.398 . S
C1336 C1337 1.391 . S
C1337 H1325 0.950 . S
C1337 C1333 1.393 . S
C1337 C1336 1.391 . S
C1338 H1328 0.950 . S
C1338 C1339 1.386 . S
C1338 C1340 1.391 . S
C1339 C1338 1.386 . S
C1339 C1343 1.393 . S
C1340 H1329 0.950 . S
C1340 C1338 1.391 . S
C1340 C1341 1.400 . S
C1341 C1335 1.491 . S
C1341 C1340 1.400 . S
C1341 C1342 1.398 . S
C1342 H1330 0.950 . S
C1342 C1341 1.398 . S
C1342 C1343 1.391 . S
C1343 H1331 0.950 . S
C1343 C1339 1.393 . S
C1343 C1342 1.391 . S
H1344 C1352 0.950 . S
H1345 C1357 0.950 . S
H1346 C1354 0.950 . S
H1347 C1356 0.950 . S
H1348 C1358 0.950 . S
H1349 C1360 0.950 . S
H1350 C1362 0.950 . S
H1351 C1363 0.950 . S
C1352 H1344 0.950 . S
C1352 C1353 1.386 . S
C1352 C1354 1.391 . S
C1353 C1352 1.386 . S
C1353 C1357 1.393 . S
C1354 H1346 0.950 . S
C1354 C1352 1.391 . S
C1354 C1355 1.400 . S
C1355 C1354 1.400 . S
C1355 C1356 1.398 . S
C1355 C1361 1.491 1_554 S
C1356 H1347 0.950 . S
C1356 C1355 1.398 . S
C1356 C1357 1.391 . S
C1357 H1345 0.950 . S
C1357 C1353 1.393 . S
C1357 C1356 1.391 . S
C1358 H1348 0.950 . S
C1358 C1359 1.386 . S
C1358 C1360 1.391 . S
C1359 C1358 1.386 . S
C1359 C1363 1.393 . S
C1360 H1349 0.950 . S
C1360 C1358 1.391 . S
C1360 C1361 1.400 . S
C1361 C1355 1.491 1_556 S
C1361 C1360 1.400 . S
C1361 C1362 1.398 . S
C1362 H1350 0.950 . S
C1362 C1361 1.398 . S
C1362 C1363 1.391 . S
C1363 H1351 0.950 . S
C1363 C1359 1.393 . S
C1363 C1362 1.391 . S
H1364 C1372 0.950 . S
H1365 C1377 0.950 . S
H1366 C1374 0.950 . S
H1367 C1376 0.950 . S
H1368 C1378 0.950 . S
H1369 C1380 0.950 . S
H1370 C1382 0.950 . S
H1371 C1383 0.950 . S
C1372 H1364 0.950 . S
C1372 C1373 1.386 . S
C1372 C1374 1.391 . S
C1373 C1372 1.386 . S
C1373 C1377 1.393 . S
C1374 H1366 0.950 . S
C1374 C1372 1.391 . S
C1374 C1375 1.400 . S
C1375 C1374 1.400 . S
C1375 C1376 1.398 . S
C1375 C1381 1.491 . S
C1376 H1367 0.950 . S
C1376 C1375 1.398 . S
C1376 C1377 1.391 . S
C1377 H1365 0.950 . S
C1377 C1373 1.393 . S
C1377 C1376 1.391 . S
C1378 H1368 0.950 . S
C1378 C1379 1.386 . S
C1378 C1380 1.391 . S
C1379 C1378 1.386 . S
C1379 C1383 1.393 . S
C1380 H1369 0.950 . S
C1380 C1378 1.391 . S
C1380 C1381 1.400 . S
C1381 C1375 1.491 . S
C1381 C1380 1.400 . S
C1381 C1382 1.398 . S
C1382 H1370 0.950 . S
C1382 C1381 1.398 . S
C1382 C1383 1.391 . S
C1383 H1371 0.950 . S
C1383 C1379 1.393 . S
C1383 C1382 1.391 . S
H1384 C1392 0.950 . S
H1385 C1397 0.950 . S
H1386 C1394 0.950 . S
H1387 C1396 0.950 . S
H1388 C1398 0.950 . S
H1389 C1400 0.950 . S
H1390 C1402 0.950 . S
H1391 C1403 0.950 . S
C1392 H1384 0.950 . S
C1392 C1393 1.386 . S
C1392 C1394 1.391 . S
C1393 C1392 1.386 . S
C1393 C1397 1.393 . S
C1394 H1386 0.950 . S
C1394 C1392 1.391 . S
C1394 C1395 1.400 . S
C1395 C1394 1.400 . S
C1395 C1396 1.398 1_554 S
C1395 C1401 1.491 1_554 S
C1396 H1387 0.950 . S
C1396 C1395 1.398 1_556 S
C1396 C1397 1.391 1_556 S
C1397 H1385 0.950 . S
C1397 C1393 1.393 . S
C1397 C1396 1.391 1_554 S
C1398 H1388 0.950 . S
C1398 C1399 1.386 . S
C1398 C1400 1.391 . S
C1399 C1398 1.386 . S
C1399 C1403 1.393 . S
C1400 H1389 0.950 . S
C1400 C1398 1.391 . S
C1400 C1401 1.400 . S
C1401 C1395 1.491 1_556 S
C1401 C1400 1.400 . S
C1401 C1402 1.398 1_556 S
C1402 H1390 0.950 . S
C1402 C1401 1.398 1_554 S
C1402 C1403 1.391 1_554 S
C1403 H1391 0.950 . S
C1403 C1399 1.393 . S
C1403 C1402 1.391 1_556 S
H1404 C1412 0.950 . S
H1405 C1417 0.950 . S
H1406 C1414 0.950 . S
H1407 C1416 0.950 . S
H1408 C1418 0.950 . S
H1409 C1420 0.950 . S
H1410 C1422 0.950 . S
H1411 C1423 0.950 . S
C1412 H1404 0.950 . S
C1412 C1413 1.386 . S
C1412 C1414 1.391 . S
C1413 C1412 1.386 . S
C1413 C1417 1.393 . S
C1414 H1406 0.950 . S
C1414 C1412 1.391 . S
C1414 C1415 1.400 . S
C1415 C1414 1.400 . S
C1415 C1416 1.398 . S
C1415 C1421 1.491 . S
C1416 H1407 0.950 . S
C1416 C1415 1.398 . S
C1416 C1417 1.391 . S
C1417 H1405 0.950 . S
C1417 C1413 1.393 . S
C1417 C1416 1.391 . S
C1418 H1408 0.950 . S
C1418 C1419 1.386 . S
C1418 C1420 1.391 . S
C1419 C1418 1.386 . S
C1419 C1423 1.393 . S
C1420 H1409 0.950 . S
C1420 C1418 1.391 . S
C1420 C1421 1.400 . S
C1421 C1415 1.491 . S
C1421 C1420 1.400 . S
C1421 C1422 1.398 . S
C1422 H1410 0.950 . S
C1422 C1421 1.398 . S
C1422 C1423 1.391 . S
C1423 H1411 0.950 . S
C1423 C1419 1.393 . S
C1423 C1422 1.391 . S
H1424 C1432 0.950 . S
H1425 C1437 0.950 . S
H1426 C1434 0.950 . S
H1427 C1436 0.950 . S
H1428 C1438 0.950 . S
H1429 C1440 0.950 . S
H1430 C1442 0.950 . S
H1431 C1443 0.950 . S
C1432 H1424 0.950 . S
C1432 C1433 1.386 . S
C1432 C1434 1.391 . S
C1433 C1432 1.386 . S
C1433 C1437 1.393 1_556 S
C1434 H1426 0.950 . S
C1434 C1432 1.391 . S
C1434 C1435 1.400 . S
C1435 C1434 1.400 . S
C1435 C1436 1.398 1_556 S
C1435 C1441 1.491 1_556 S
C1436 H1427 0.950 . S
C1436 C1435 1.398 1_554 S
C1436 C1437 1.391 . S
C1437 H1425 0.950 . S
C1437 C1433 1.393 1_554 S
C1437 C1436 1.391 . S
C1438 H1428 0.950 . S
C1438 C1439 1.386 . S
C1438 C1440 1.391 . S
C1439 C1438 1.386 . S
C1439 C1443 1.393 1_554 S
C1440 H1429 0.950 . S
C1440 C1438 1.391 . S
C1440 C1441 1.400 . S
C1441 C1435 1.491 1_554 S
C1441 C1440 1.400 . S
C1441 C1442 1.398 1_554 S
C1442 H1430 0.950 . S
C1442 C1441 1.398 1_556 S
C1442 C1443 1.391 . S
C1443 H1431 0.950 . S
C1443 C1439 1.393 1_556 S
C1443 C1442 1.391 . S
H1444 C1452 0.950 . S
H1445 C1457 0.950 . S
H1446 C1454 0.950 . S
H1447 C1456 0.950 . S
H1448 C1458 0.950 . S
H1449 C1460 0.950 . S
H1450 C1462 0.950 . S
H1451 C1463 0.950 . S
C1452 H1444 0.950 . S
C1452 C1453 1.386 . S
C1452 C1454 1.391 . S
C1453 C1452 1.386 . S
C1453 C1457 1.393 . S
C1454 H1446 0.950 . S
C1454 C1452 1.391 . S
C1454 C1455 1.400 . S
C1455 C1454 1.400 . S
C1455 C1456 1.398 . S
C1455 C1461 1.491 . S
C1456 H1447 0.950 . S
C1456 C1455 1.398 . S
C1456 C1457 1.391 . S
C1457 H1445 0.950 . S
C1457 C1453 1.393 . S
C1457 C1456 1.391 . S
C1458 H1448 0.950 . S
C1458 C1459 1.386 . S
C1458 C1460 1.391 . S
C1459 C1458 1.386 . S
C1459 C1463 1.393 . S
C1460 H1449 0.950 . S
C1460 C1458 1.391 . S
C1460 C1461 1.400 . S
C1461 C1455 1.491 . S
C1461 C1460 1.400 . S
C1461 C1462 1.398 . S
C1462 H1450 0.950 . S
C1462 C1461 1.398 . S
C1462 C1463 1.391 . S
C1463 H1451 0.950 . S
C1463 C1459 1.393 . S
C1463 C1462 1.391 . S
H1464 C1472 0.950 . S
H1465 C1477 0.950 . S
H1466 C1474 0.950 . S
H1467 C1476 0.950 . S
H1468 C1478 0.950 . S
H1469 C1480 0.950 . S
H1470 C1482 0.950 . S
H1471 C1483 0.950 . S
C1472 H1464 0.950 . S
C1472 C1473 1.386 . S
C1472 C1474 1.391 . S
C1473 C1472 1.386 . S
C1473 C1477 1.393 . S
C1474 H1466 0.950 . S
C1474 C1472 1.391 . S
C1474 C1475 1.400 . S
C1475 C1474 1.400 . S
C1475 C1476 1.398 1_554 S
C1475 C1481 1.491 1_554 S
C1476 H1467 0.950 . S
C1476 C1475 1.398 1_556 S
C1476 C1477 1.391 1_556 S
C1477 H1465 0.950 . S
C1477 C1473 1.393 . S
C1477 C1476 1.391 1_554 S
C1478 H1468 0.950 . S
C1478 C1479 1.386 . S
C1478 C1480 1.391 . S
C1479 C1478 1.386 . S
C1479 C1483 1.393 . S
C1480 H1469 0.950 . S
C1480 C1478 1.391 . S
C1480 C1481 1.400 . S
C1481 C1475 1.491 1_556 S
C1481 C1480 1.400 . S
C1481 C1482 1.398 1_556 S
C1482 H1470 0.950 . S
C1482 C1481 1.398 1_554 S
C1482 C1483 1.391 1_554 S
C1483 H1471 0.950 . S
C1483 C1479 1.393 . S
C1483 C1482 1.391 1_556 S
H1484 C1492 0.950 . S
H1485 C1497 0.950 . S
H1486 C1494 0.950 . S
H1487 C1496 0.950 . S
H1488 C1498 0.950 . S
H1489 C1500 0.950 . S
H1490 C1502 0.950 . S
H1491 C1503 0.950 . S
C1492 H1484 0.950 . S
C1492 C1493 1.386 . S
C1492 C1494 1.391 . S
C1493 C1492 1.386 . S
C1493 C1497 1.393 . S
C1494 H1486 0.950 . S
C1494 C1492 1.391 . S
C1494 C1495 1.400 . S
C1495 C1494 1.400 . S
C1495 C1496 1.398 . S
C1495 C1501 1.491 . S
C1496 H1487 0.950 . S
C1496 C1495 1.398 . S
C1496 C1497 1.391 . S
C1497 H1485 0.950 . S
C1497 C1493 1.393 . S
C1497 C1496 1.391 . S
C1498 H1488 0.950 . S
C1498 C1499 1.386 . S
C1498 C1500 1.391 . S
C1499 C1498 1.386 . S
C1499 C1503 1.393 . S
C1500 H1489 0.950 . S
C1500 C1498 1.391 . S
C1500 C1501 1.400 . S
C1501 C1495 1.491 . S
C1501 C1500 1.400 . S
C1501 C1502 1.398 . S
C1502 H1490 0.950 . S
C1502 C1501 1.398 . S
C1502 C1503 1.391 . S
C1503 H1491 0.950 . S
C1503 C1499 1.393 . S
C1503 C1502 1.391 . S
H1504 C1512 0.950 . S
H1505 C1517 0.950 . S
H1506 C1514 0.950 . S
H1507 C1516 0.950 . S
H1508 C1518 0.950 . S
H1509 C1520 0.950 . S
H1510 C1522 0.950 . S
H1511 C1523 0.950 . S
C1512 H1504 0.950 . S
C1512 C1513 1.386 . S
C1512 C1514 1.391 . S
C1513 C1512 1.386 . S
C1513 C1517 1.393 . S
C1514 H1506 0.950 . S
C1514 C1512 1.391 . S
C1514 C1515 1.400 . S
C1515 C1514 1.400 . S
C1515 C1516 1.398 . S
C1515 C1521 1.491 1_546 S
C1516 H1507 0.950 . S
C1516 C1515 1.398 . S
C1516 C1517 1.391 . S
C1517 H1505 0.950 . S
C1517 C1513 1.393 . S
C1517 C1516 1.391 . S
C1518 H1508 0.950 . S
C1518 C1519 1.386 . S
C1518 C1520 1.391 . S
C1519 C1518 1.386 . S
C1519 C1523 1.393 . S
C1520 H1509 0.950 . S
C1520 C1518 1.391 . S
C1520 C1521 1.400 . S
C1521 C1515 1.491 1_564 S
C1521 C1520 1.400 . S
C1521 C1522 1.398 . S
C1522 H1510 0.950 . S
C1522 C1521 1.398 . S
C1522 C1523 1.391 . S
C1523 H1511 0.950 . S
C1523 C1519 1.393 . S
C1523 C1522 1.391 . S
H1524 C1532 0.950 . S
H1525 C1537 0.950 . S
H1526 C1534 0.950 . S
H1527 C1536 0.950 . S
H1528 C1538 0.950 . S
H1529 C1540 0.950 . S
H1530 C1542 0.950 . S
H1531 C1543 0.950 . S
C1532 H1524 0.950 . S
C1532 C1533 1.386 . S
C1532 C1534 1.391 . S
C1533 C1532 1.386 . S
C1533 C1537 1.393 . S
C1534 H1526 0.950 . S
C1534 C1532 1.391 . S
C1534 C1535 1.400 . S
C1535 C1534 1.400 . S
C1535 C1536 1.398 . S
C1535 C1541 1.491 1_565 S
C1536 H1527 0.950 . S
C1536 C1535 1.398 . S
C1536 C1537 1.391 . S
C1537 H1525 0.950 . S
C1537 C1533 1.393 . S
C1537 C1536 1.391 . S
C1538 H1528 0.950 . S
C1538 C1539 1.386 . S
C1538 C1540 1.391 . S
C1539 C1538 1.386 . S
C1539 C1543 1.393 . S
C1540 H1529 0.950 . S
C1540 C1538 1.391 . S
C1540 C1541 1.400 . S
C1541 C1535 1.491 1_545 S
C1541 C1540 1.400 . S
C1541 C1542 1.398 . S
C1542 H1530 0.950 . S
C1542 C1541 1.398 . S
C1542 C1543 1.391 . S
C1543 H1531 0.950 . S
C1543 C1539 1.393 . S
C1543 C1542 1.391 . S
H1544 C1552 0.950 1_556 S
H1545 C1557 0.950 . S
H1546 C1554 0.950 . S
H1547 C1556 0.950 . S
H1548 C1558 0.950 1_554 S
H1549 C1560 0.950 . S
H1550 C1562 0.950 . S
H1551 C1563 0.950 . S
C1552 H1544 0.950 1_554 S
C1552 C1553 1.386 . S
C1552 C1554 1.391 1_554 S
C1553 C1552 1.386 . S
C1553 C1557 1.393 . S
C1554 H1546 0.950 . S
C1554 C1552 1.391 1_556 S
C1554 C1555 1.400 1_556 S
C1555 C1554 1.400 1_554 S
C1555 C1556 1.398 . S
C1555 C1561 1.491 1_564 S
C1556 H1547 0.950 . S
C1556 C1555 1.398 . S
C1556 C1557 1.391 . S
C1557 H1545 0.950 . S
C1557 C1553 1.393 . S
C1557 C1556 1.391 . S
C1558 H1548 0.950 1_556 S
C1558 C1559 1.386 . S
C1558 C1560 1.391 1_556 S
C1559 C1558 1.386 . S
C1559 C1563 1.393 . S
C1560 H1549 0.950 . S
C1560 C1558 1.391 1_554 S
C1560 C1561 1.400 1_554 S
C1561 C1555 1.491 1_546 S
C1561 C1560 1.400 1_556 S
C1561 C1562 1.398 . S
C1562 H1550 0.950 . S
C1562 C1561 1.398 . S
C1562 C1563 1.391 . S
C1563 H1551 0.950 . S
C1563 C1559 1.393 . S
C1563 C1562 1.391 . S
H1564 C1572 0.950 . S
H1565 C1577 0.950 . S
H1566 C1574 0.950 . S
H1567 C1576 0.950 . S
H1568 C1578 0.950 . S
H1569 C1580 0.950 . S
H1570 C1582 0.950 . S
H1571 C1583 0.950 . S
C1572 H1564 0.950 . S
C1572 C1573 1.386 . S
C1572 C1574 1.391 . S
C1573 C1572 1.386 . S
C1573 C1577 1.393 . S
C1574 H1566 0.950 . S
C1574 C1572 1.391 . S
C1574 C1575 1.400 . S
C1575 C1574 1.400 . S
C1575 C1576 1.398 . S
C1575 C1581 1.491 1_545 S
C1576 H1567 0.950 . S
C1576 C1575 1.398 . S
C1576 C1577 1.391 . S
C1577 H1565 0.950 . S
C1577 C1573 1.393 . S
C1577 C1576 1.391 . S
C1578 H1568 0.950 . S
C1578 C1579 1.386 . S
C1578 C1580 1.391 . S
C1579 C1578 1.386 . S
C1579 C1583 1.393 . S
C1580 H1569 0.950 . S
C1580 C1578 1.391 . S
C1580 C1581 1.400 . S
C1581 C1575 1.491 1_565 S
C1581 C1580 1.400 . S
C1581 C1582 1.398 . S
C1582 H1570 0.950 . S
C1582 C1581 1.398 . S
C1582 C1583 1.391 . S
C1583 H1571 0.950 . S
C1583 C1579 1.393 . S
C1583 C1582 1.391 . S
C953 C52 1.530 . S
C959 C406 1.534 . S
C973 C111 1.525 . S
C979 C465 1.532 . S
C993 C288 1.535 . S
C999 C170 1.529 . S
C1013 C347 1.534 . S
C1019 C229 1.528 . S
C1033 C878 1.531 . S
C1039 C524 1.525 . S
C1053 C937 1.532 . S
C1059 C583 1.525 . S
C1073 C642 1.525 . S
C1079 C760 1.532 . S
C1093 C701 1.527 . S
C1099 C819 1.534 . S
C1113 C33 1.593 . S
C1119 C298 1.588 . S
C1133 C92 1.604 . S
C1139 C239 1.577 . S
C1153 C151 1.593 . S
C1159 C416 1.589 . S
C1173 C357 1.576 . S
C1179 C210 1.604 . S
C1193 C770 1.576 . S
C1199 C505 1.604 . S
C1213 C711 1.591 . S
C1219 C564 1.593 . S
C1233 C623 1.595 . S
C1239 C888 1.584 . S
C1253 C829 1.587 . S
C1259 C682 1.594 . S
C1273 C713 1.566 . S
C1279 C5 1.569 . S
C1293 C64 1.569 . S
C1299 C772 1.566 . S
C1313 C831 1.556 . S
C1319 C123 1.561 . S
C1333 C890 1.555 . S
C1339 C182 1.560 . S
C1353 C477 1.561 . S
C1359 C241 1.556 . S
C1373 C536 1.569 . S
C1379 C300 1.566 . S
C1393 C359 1.559 . S
C1399 C595 1.564 . S
C1413 C418 1.560 . S
C1419 C654 1.564 . S
C1433 C121 1.214 . S
C1439 C3 1.198 . S
C1453 C62 1.192 . S
C1459 C180 1.204 . S
C1473 C387 1.950 . S
C1479 C269 1.950 . S
C1493 C328 1.944 . S
C1499 C446 1.944 . S
C1513 C593 1.196 . S
C1519 C475 1.193 . S
C1533 C652 1.212 . S
C1539 C534 1.214 . S
C1553 C859 1.948 . S
C1559 C741 1.948 . S
C1573 C918 1.950 . S
C1579 C800 1.950 . S
