# Generated by pormake.
# Topology qtz-e, (6)-cn, num edge types: 1
# Building blocks:
#     Node 0, Type 0, BuildingBlock: KUMBOL_clean_sbu_0, # of connection points: 6
#     Node 1, Type 0, BuildingBlock: KUMBOL_clean_sbu_0, # of connection points: 6
#     Node 2, Type 0, BuildingBlock: KUMBOL_clean_sbu_0, # of connection points: 6
#     Node 3, Type 0, BuildingBlock: KUMBOL_clean_sbu_0, # of connection points: 6
#     Node 4, Type 0, BuildingBlock: KUMBOL_clean_sbu_0, # of connection points: 6
#     Node 5, Type 0, BuildingBlock: KUMBOL_clean_sbu_0, # of connection points: 6
#     Edge 6, Type (0, 0), BuildingBlock: KIFKEQ_clean_linker_1, # of connection points: 2
#     Edge 7, Type (0, 0), BuildingBlock: KIFKEQ_clean_linker_1, # of connection points: 2
#     Edge 8, Type (0, 0), BuildingBlock: KIFKEQ_clean_linker_1, # of connection points: 2
#     Edge 9, Type (0, 0), BuildingBlock: KIFKEQ_clean_linker_1, # of connection points: 2
#     Edge 10, Type (0, 0), BuildingBlock: KIFKEQ_clean_linker_1, # of connection points: 2
#     Edge 11, Type (0, 0), BuildingBlock: KIFKEQ_clean_linker_1, # of connection points: 2
#     Edge 12, Type (0, 0), BuildingBlock: KIFKEQ_clean_linker_1, # of connection points: 2
#     Edge 13, Type (0, 0), BuildingBlock: KIFKEQ_clean_linker_1, # of connection points: 2
#     Edge 14, Type (0, 0), BuildingBlock: KIFKEQ_clean_linker_1, # of connection points: 2
#     Edge 15, Type (0, 0), BuildingBlock: KIFKEQ_clean_linker_1, # of connection points: 2
#     Edge 16, Type (0, 0), BuildingBlock: KIFKEQ_clean_linker_1, # of connection points: 2
#     Edge 17, Type (0, 0), BuildingBlock: KIFKEQ_clean_linker_1, # of connection points: 2
#     Edge 18, Type (0, 0), BuildingBlock: KIFKEQ_clean_linker_1, # of connection points: 2
#     Edge 19, Type (0, 0), BuildingBlock: KIFKEQ_clean_linker_1, # of connection points: 2
#     Edge 20, Type (0, 0), BuildingBlock: KIFKEQ_clean_linker_1, # of connection points: 2
#     Edge 21, Type (0, 0), BuildingBlock: KIFKEQ_clean_linker_1, # of connection points: 2
#     Edge 22, Type (0, 0), BuildingBlock: KIFKEQ_clean_linker_1, # of connection points: 2
#     Edge 23, Type (0, 0), BuildingBlock: KIFKEQ_clean_linker_1, # of connection points: 2
# Relax obj value: 0.058
# Max RMSD: 0.144
# Mean RMSD: 0.144
data_MOF--net-qtz-e--node1-KUMBOL_clean_sbu_0--edge1-KIFKEQ_clean_linker_1
_symmetry_space_group_name_H-M    P1
_symmetry_Int_Tables_number       1
_symmetry_cell_setting            triclinic
loop_
_symmetry_equiv_pos_as_xyz
'x, y, z'
_cell_length_a     29.990131
_cell_length_b     30.058991
_cell_length_c     46.816931
_cell_angle_alpha  89.871342
_cell_angle_beta   90.296194
_cell_angle_gamma 120.11751
loop_
_atom_site_label
_atom_site_type_symbol
_atom_site_fract_x
_atom_site_fract_y
_atom_site_fract_z
_atom_type_partial_charge
Gd0 Gd 0.19398 0.37781 1.00521 0.0
Gd1 Gd 0.26045 0.50193 0.04394 0.0
C2 C 0.37761 0.65402 1.00302 0.0
C3 C 0.45783 0.67018 0.02525 0.0
C4 C 0.37699 0.59389 0.03777 0.0
C5 C 0.35086 0.60761 0.01846 0.0
C6 C 0.43065 0.62532 0.04166 0.0
C7 C 0.43135 0.68457 1.00601 0.0
C8 C 0.34931 0.66935 0.9859 0.0
C9 C 0.29561 0.6397 0.98539 0.0
N10 N 0.29881 0.5775 0.01629 0.0
C11 C 0.2708 0.5941 1.00117 0.0
H12 H 0.22925 0.57162 1.00068 0.0
C13 C 0.37269 0.53812 0.07478 0.0
N14 N 0.34952 0.55041 0.05341 0.0
C15 C 0.42591 0.56789 0.07928 0.0
C16 C 0.45514 0.61132 0.0624 0.0
H17 H 0.35033 0.50449 0.08782 0.0
H18 H 0.4526 0.72006 0.99411 0.0
H19 H 0.24756 0.33304 0.05228 0.0
H20 H 0.36841 0.70471 0.9737 0.0
H21 H 0.27327 0.65188 0.9728 0.0
H22 H 0.49914 0.69467 0.02779 0.0
H23 H 0.09122 0.34787 0.96479 0.0
H24 H 0.12713 0.19868 0.09225 0.0
H25 H 0.21974 0.26274 0.08704 0.0
H26 H 0.9755 0.17005 0.04166 0.0
H27 H 0.44435 0.55727 0.09571 0.0
H28 H 0.49634 0.63436 0.06597 0.0
H29 H 0.03592 0.16466 0.07539 0.0
H30 H 0.99819 0.28286 0.96323 0.0
N31 N 0.17144 0.31001 0.03793 0.0
C32 C 0.13914 0.22949 0.07682 0.0
C33 C 0.19143 0.26549 0.07389 0.0
C34 C 0.1031 0.23295 0.05928 0.0
C35 C 0.12078 0.274 0.03967 0.0
C36 C 0.20706 0.30533 0.054 0.0
N37 N 0.10588 0.31626 1.00187 0.0
C38 C 0.08686 0.27727 0.02102 0.0
C39 C 0.02262 0.28101 0.97973 0.0
C40 C 1.00187 0.242 1.00023 0.0
C41 C 0.07518 0.31763 0.98063 0.0
C42 C 0.0342 0.23931 0.02099 0.0
H43 H 0.96118 0.21355 0.99945 0.0
O44 O 0.19186 0.36321 0.95959 0.0
O45 O 0.24515 0.46163 1.00252 0.0
O46 O 0.18416 0.48857 0.02687 0.0
O47 O 0.13308 0.40136 1.01408 0.0
O48 O 0.19059 0.42719 0.97013 0.0
O49 O 0.22758 0.33359 0.98789 0.0
O50 O 0.26237 0.5217 0.08859 0.0
O51 O 0.20354 0.41809 0.04667 0.0
O52 O 0.27795 0.40139 0.01802 0.0
O53 O 0.32179 0.49026 0.02503 0.0
O54 O 0.25482 0.4487 0.07986 0.0
O55 O 0.22999 0.55062 0.05676 0.0
C56 C 0.22847 0.46986 0.9795 0.0
C57 C 0.01592 0.19932 0.04113 0.0
C58 C 0.05032 0.19622 0.06031 0.0
C59 C 0.21571 0.33722 0.96148 0.0
C60 C 0.196 0.29117 0.94292 0.0
C61 C 0.14611 0.24951 0.94689 0.0
C62 C 0.22586 0.29019 0.91979 0.0
C63 C 0.2053 0.24836 0.90036 0.0
C64 C 0.12583 0.20796 0.92798 0.0
C65 C 0.15487 0.20749 0.90484 0.0
C66 C 0.13943 0.44772 0.01997 0.0
C67 C 0.21453 0.40764 0.0709 0.0
C68 C 0.24618 0.55384 0.08302 0.0
C69 C 0.27799 0.60571 0.09486 0.0
C70 C 0.30796 0.64851 0.07736 0.0
C71 C 0.27966 0.6121 0.12444 0.0
C72 C 0.31087 0.66072 0.13666 0.0
C73 C 0.34038 0.69664 0.08946 0.0
C74 C 0.342 0.70285 0.11902 0.0
C75 C 0.32116 0.44678 0.02069 0.0
H76 H 0.1226 0.24942 0.96439 0.0
H77 H 0.26437 0.32242 0.91649 0.0
H78 H 0.08717 0.17604 0.93117 0.0
H79 H 0.13806 0.17466 0.89058 0.0
H80 H 0.30631 0.64518 0.05445 0.0
H81 H 0.25617 0.57922 0.13797 0.0
H82 H 0.36355 0.72936 0.07586 0.0
H83 H 0.36593 0.74088 0.12798 0.0
Gd84 Gd 0.82581 0.19463 0.33689 0.0
Gd85 Gd 0.77759 0.26088 0.38357 0.0
C86 C 0.74541 0.38732 0.35427 0.0
C87 C 0.81482 0.46309 0.37725 0.0
C88 C 0.80708 0.37931 0.38421 0.0
C89 C 0.76472 0.35712 0.36618 0.0
C90 C 0.8322 0.4324 0.39028 0.0
C91 C 0.77141 0.44056 0.35934 0.0
C92 C 0.69952 0.36286 0.33851 0.0
C93 C 0.67311 0.30942 0.33583 0.0
N94 N 0.74024 0.30544 0.3619 0.0
C95 C 0.69371 0.28112 0.34808 0.0
H96 H 0.67276 0.23989 0.34576 0.0
C97 C 0.86078 0.36766 0.4169 0.0
N98 N 0.82276 0.34851 0.39656 0.0
C99 C 0.88708 0.42014 0.42346 0.0
C100 C 0.87323 0.45281 0.4098 0.0
H101 H 0.87195 0.34276 0.42745 0.0
H102 H 0.75748 0.46444 0.3501 0.0
H103 H 0.93355 0.24797 0.37767 0.0
H104 H 0.68344 0.38467 0.32901 0.0
H105 H 0.63696 0.28998 0.32424 0.0
H106 H 0.83384 0.50403 0.38148 0.0
H107 H 0.74604 0.09074 0.29893 0.0
H108 H 0.94826 0.12743 0.41674 0.0
H109 H 0.98005 0.22012 0.40962 0.0
H110 H 0.81199 0.97499 0.37345 0.0
H111 H 0.91813 0.43538 0.43899 0.0
H112 H 0.89366 0.49344 0.41495 0.0
H113 H 0.88458 0.03588 0.4036 0.0
H114 H 0.71447 0.99723 0.29874 0.0
N115 N 0.87519 0.17185 0.36658 0.0
C116 C 0.92766 0.13944 0.40252 0.0
C117 C 0.94581 0.19177 0.39847 0.0
C118 C 0.88399 0.10327 0.38751 0.0
C119 C 0.85857 0.12099 0.3693 0.0
C120 C 0.91925 0.20741 0.38016 0.0
N121 N 0.7963 0.10591 0.33435 0.0
C122 C 0.81765 0.08685 0.35264 0.0
C123 C 0.74327 0.02192 0.31417 0.0
C124 C 0.76268 1.00121 0.33407 0.0
C125 C 0.76124 0.07479 0.31431 0.0
C126 C 0.80108 0.03388 0.3533 0.0
H127 H 0.74891 0.96028 0.33386 0.0
O128 O 0.83179 0.18421 0.29133 0.0
O129 O 0.79692 0.24853 0.33995 0.0
O130 O 0.71034 0.19047 0.36423 0.0
O131 O 0.73948 0.1376 0.34502 0.0
O132 O 0.77422 0.20143 0.30411 0.0
O133 O 0.90074 0.2318 0.31571 0.0
O134 O 0.76599 0.25588 0.42941 0.0
O135 O 0.79993 0.20031 0.38078 0.0
O136 O 0.88989 0.27804 0.3477 0.0
O137 O 0.84994 0.32266 0.36444 0.0
O138 O 0.82933 0.25025 0.41461 0.0
O139 O 0.70078 0.23147 0.40054 0.0
C140 C 0.77188 0.23816 0.31689 0.0
C141 C 0.82456 0.01561 0.37237 0.0
C142 C 0.86592 0.05028 0.3895 0.0
C143 C 0.88183 0.21275 0.29061 0.0
C144 C 0.90988 0.19349 0.27321 0.0
C145 C 0.90341 0.14485 0.27887 0.0
C146 C 0.94225 0.22307 0.25033 0.0
C147 C 0.96803 0.20395 0.23326 0.0
C148 C 0.92793 0.12545 0.26201 0.0
C149 C 0.95959 0.15437 0.23944 0.0
C150 C 0.70188 0.14612 0.35354 0.0
C151 C 0.82534 0.20912 0.40373 0.0
C152 C 0.71763 0.24285 0.42677 0.0
C153 C 0.70225 0.27473 0.44291 0.0
C154 C 0.69068 0.30932 0.4291 0.0
C155 C 0.70136 0.27214 0.47273 0.0
C156 C 0.68908 0.30383 0.4888 0.0
C157 C 0.68001 0.34199 0.44497 0.0
C158 C 0.67924 0.33942 0.47469 0.0
C159 C 0.89039 0.32116 0.35509 0.0
H160 H 0.87896 0.12163 0.2962 0.0
H161 H 0.94769 0.26093 0.24612 0.0
H162 H 0.92218 0.08754 0.26637 0.0
H163 H 0.97708 0.13735 0.22659 0.0
H164 H 0.68955 0.3111 0.40616 0.0
H165 H 0.70973 0.24508 0.48343 0.0
H166 H 0.67134 0.36867 0.43418 0.0
H167 H 0.66874 0.36368 0.48655 0.0
Gd168 Gd 0.63829 0.81216 0.6674 0.0
Gd169 Gd 0.51432 0.76178 0.70582 0.0
C170 C 0.3632 0.73575 0.66697 0.0
C171 C 0.3585 0.80903 0.68509 0.0
C172 C 0.43034 0.79716 0.69834 0.0
C173 C 0.41047 0.75346 0.68148 0.0
C174 C 0.40455 0.82539 0.70039 0.0
C175 C 0.33778 0.76421 0.66849 0.0
C176 C 0.34217 0.68922 0.65202 0.0
C177 C 0.36734 0.66077 0.65261 0.0
N178 N 0.43602 0.72681 0.68043 0.0
C179 C 0.41409 0.67989 0.66736 0.0
H180 H 0.43303 0.65741 0.66785 0.0
C181 C 0.49502 0.85368 0.73059 0.0
N182 N 0.47523 0.81219 0.71267 0.0
C183 C 0.47083 0.88294 0.73325 0.0
C184 C 0.42565 0.86902 0.7179 0.0
H185 H 0.53027 0.86529 0.74226 0.0
H186 H 0.30165 0.75144 0.65729 0.0
H187 H 0.68643 0.92004 0.7084 0.0
H188 H 0.30595 0.6743 0.64058 0.0
H189 H 0.35082 0.62416 0.64168 0.0
H190 H 0.33822 0.83033 0.68628 0.0
H191 H 0.66864 0.73318 0.63433 0.0
H192 H 0.81487 0.93455 0.75574 0.0
H193 H 0.75472 0.96555 0.74379 0.0
H194 H 0.83922 0.8004 0.71775 0.0
H195 H 0.48727 0.91644 0.74697 0.0
H196 H 0.40719 0.89195 0.71991 0.0
H197 H 0.84562 0.87215 0.74624 0.0
H198 H 0.73067 0.70215 0.63931 0.0
N199 N 0.70603 0.86211 0.70003 0.0
C200 C 0.78477 0.91418 0.73999 0.0
C201 C 0.75098 0.93183 0.73324 0.0
C202 C 0.78022 0.8713 0.72571 0.0
C203 C 0.74024 0.84612 0.70544 0.0
C204 C 0.71202 0.90559 0.71295 0.0
N205 N 0.69902 0.78443 0.66961 0.0
C206 C 0.73653 0.80582 0.68969 0.0
C207 C 0.73264 0.73116 0.65375 0.0
C208 C 0.76995 0.75102 0.67533 0.0
C209 C 0.69772 0.74888 0.65096 0.0
C210 C 0.77278 0.78943 0.69337 0.0
H211 H 0.79707 0.73736 0.67745 0.0
O212 O 0.67329 0.82495 0.62517 0.0
O213 O 0.55459 0.77749 0.66458 0.0
O214 O 0.52099 0.69452 0.69052 0.0
O215 O 0.60669 0.72539 0.67629 0.0
O216 O 0.58888 0.75997 0.63158 0.0
O217 O 0.66189 0.8835 0.64422 0.0
O218 O 0.49704 0.75045 0.75098 0.0
O219 O 0.59777 0.78489 0.70902 0.0
O220 O 0.61584 0.87375 0.67848 0.0
O221 O 0.52661 0.82753 0.67843 0.0
O222 O 0.57061 0.81256 0.74012 0.0
O223 O 0.4622 0.68517 0.7218 0.0
C224 C 0.54596 0.75377 0.64124 0.0
C225 C 0.81135 0.8128 0.71435 0.0
C226 C 0.81501 0.85366 0.73055 0.0
C227 C 0.6791 0.87064 0.62212 0.0
C228 C 0.72833 0.91117 0.60984 0.0
C229 C 0.77481 0.92595 0.6242 0.0
C230 C 0.72895 0.93652 0.58409 0.0
C231 C 0.77581 0.97718 0.57324 0.0
C232 C 0.82116 0.96549 0.61338 0.0
C233 C 0.8217 0.99106 0.58829 0.0
C234 C 0.55934 0.68715 0.68297 0.0
C235 C 0.60998 0.80936 0.73226 0.0
C236 C 0.46274 0.70193 0.7476 0.0
C237 C 0.41273 0.68537 0.76103 0.0
C238 C 0.36922 0.67615 0.74498 0.0
C239 C 0.40911 0.68046 0.79075 0.0
C240 C 0.36239 0.66621 0.80454 0.0
C241 C 0.32303 0.66327 0.75859 0.0
C242 C 0.3195 0.65831 0.78823 0.0
C243 C 0.57026 0.87101 0.67575 0.0
H244 H 0.77515 0.90711 0.6439 0.0
H245 H 0.69308 0.92562 0.57302 0.0
H246 H 0.85689 0.97672 0.62463 0.0
H247 H 0.85826 0.02185 0.58055 0.0
H248 H 0.37054 0.67854 0.72203 0.0
H249 H 0.44269 0.68748 0.80315 0.0
H250 H 0.28968 0.65631 0.74608 0.0
H251 H 0.28276 0.64652 0.79827 0.0
Gd252 Gd 0.8268 0.64038 1.00467 0.0
Gd253 Gd 0.75905 0.5236 0.0495 0.0
C254 C 0.64278 0.36451 1.01539 0.0
C255 C 0.56161 0.35404 0.03244 0.0
C256 C 0.64235 0.43171 0.04366 0.0
C257 C 0.66923 0.41364 0.02814 0.0
C258 C 0.58833 0.40196 0.04619 0.0
C259 C 0.5888 0.33529 0.01714 0.0
C260 C 0.67148 0.34558 1.00197 0.0
C261 C 0.72522 0.37477 1.00226 0.0
N262 N 0.7215 0.44276 0.02694 0.0
C263 C 0.74976 0.42322 1.01525 0.0
H264 H 0.79131 0.44527 1.01528 0.0
C265 C 0.64508 0.49561 0.07431 0.0
N266 N 0.66932 0.47821 0.05671 0.0
C267 C 0.59147 0.46768 0.07724 0.0
C268 C 0.56289 0.42093 0.06287 0.0
H269 H 0.66699 0.53191 0.08528 0.0
H270 H 0.5678 0.2977 1.00723 0.0
H271 H 0.76609 0.69187 0.04237 0.0
H272 H 0.65261 0.30805 0.9919 0.0
H273 H 0.74779 0.36007 0.9924 0.0
H274 H 0.52005 0.33073 0.03399 0.0
H275 H 0.93707 0.67078 0.97162 0.0
H276 H 0.87984 0.82351 0.08727 0.0
H277 H 0.78858 0.76241 0.07564 0.0
H278 H 0.03917 0.84621 0.05147 0.0
H279 H 0.57221 0.48229 0.0905 0.0
H280 H 0.52136 0.39937 0.0652 0.0
H281 H 0.97325 0.85392 0.07854 0.0
H282 H 0.0301 0.73372 0.97622 0.0
N283 N 0.84396 0.71078 0.03486 0.0
C284 C 0.87027 0.79232 0.07244 0.0
C285 C 0.81877 0.75799 0.06588 0.0
C286 C 0.90885 0.7869 0.05912 0.0
C287 C 0.89428 0.74551 0.04002 0.0
C288 C 0.80623 0.71764 0.04678 0.0
N289 N 0.91545 0.70236 1.00588 0.0
C290 C 0.93125 0.74107 0.02504 0.0
C291 C 1.00279 0.73608 0.99025 0.0
C292 C 0.0199 0.77454 1.011 0.0
C293 C 0.95012 0.70059 0.9877 0.0
C294 C 0.98395 0.77797 0.02839 0.0
H295 H 0.06071 0.80213 1.01289 0.0
O296 O 0.85063 0.6766 0.96269 0.0
O297 O 0.77707 0.55663 1.00611 0.0
O298 O 0.83437 0.53132 0.03579 0.0
O299 O 0.88362 0.61045 1.01231 0.0
O300 O 0.82757 0.58537 0.97208 0.0
O301 O 0.77529 0.65489 0.97823 0.0
O302 O 0.75401 0.51423 0.0955 0.0
O303 O 0.8187 0.60734 0.0485 0.0
O304 O 0.74289 0.6192 1.01559 0.0
O305 O 0.69978 0.53123 0.02462 0.0
O306 O 0.76432 0.58439 0.07998 0.0
O307 O 0.78646 0.477 0.06992 0.0
C308 C 0.79123 0.54423 0.98371 0.0
C309 C 0.99886 0.81785 0.04833 0.0
C310 C 0.96134 0.82226 0.06372 0.0
C311 C 0.80778 0.67621 0.95742 0.0
C312 C 0.81162 0.72347 0.94491 0.0
C313 C 0.83893 0.77022 0.95961 0.0
C314 C 0.78665 0.72194 0.9187 0.0
C315 C 0.78831 0.76684 0.90778 0.0
C316 C 0.84127 0.81461 0.94876 0.0
C317 C 0.81607 0.81296 0.92326 0.0
C318 C 0.87753 0.56698 0.0238 0.0
C319 C 0.80701 0.62242 0.0709 0.0
C320 C 0.76956 0.48073 0.09496 0.0
C321 C 0.73651 0.43251 0.11021 0.0
C322 C 0.70381 0.38674 0.09549 0.0
C323 C 0.73662 0.43269 0.14008 0.0
C324 C 0.70438 0.38752 0.15528 0.0
C325 C 0.67034 0.34226 0.11043 0.0
C326 C 0.67048 0.34252 0.14019 0.0
C327 C 0.6998 0.57372 0.01807 0.0
H328 H 0.85818 0.77228 0.97964 0.0
H329 H 0.76503 0.68586 0.90731 0.0
H330 H 0.86243 0.85051 0.96031 0.0
H331 H 0.81838 0.84805 0.91552 0.0
H332 H 0.70429 0.38495 0.07256 0.0
H333 H 0.76243 0.4678 0.1515 0.0
H334 H 0.64511 0.3072 0.09892 0.0
H335 H 0.64585 0.30689 0.15136 0.0
Gd336 Gd 0.19522 0.82472 0.3423 0.0
Gd337 Gd 0.2488 0.75091 0.37808 0.0
C338 C 0.27144 0.6294 0.33296 0.0
C339 C 0.20114 0.54994 0.35217 0.0
C340 C 0.21352 0.63247 0.36775 0.0
C341 C 0.25488 0.6577 0.34934 0.0
C342 C 0.18635 0.57837 0.36949 0.0
C343 C 0.24373 0.5754 0.33403 0.0
C344 C 0.3164 0.65624 0.31678 0.0
C345 C 0.34451 0.70989 0.31792 0.0
N346 N 0.28101 0.71002 0.34887 0.0
C347 C 0.32654 0.73629 0.33447 0.0
H348 H 0.34867 0.77774 0.33528 0.0
C349 C 0.16208 0.63827 0.40413 0.0
N350 N 0.20011 0.66113 0.38417 0.0
C351 C 0.13385 0.58466 0.40651 0.0
C352 C 0.14563 0.55454 0.3889 0.0
H353 H 0.1525 0.66134 0.41761 0.0
H354 H 0.25556 0.55301 0.32137 0.0
H355 H 0.0957 0.76599 0.38922 0.0
H356 H 0.33043 0.63592 0.30393 0.0
H357 H 0.37993 0.73096 0.30598 0.0
H358 H 0.18058 0.5083 0.35308 0.0
H359 H 0.27254 0.9327 0.30768 0.0
H360 H 0.07824 0.88104 0.43223 0.0
H361 H 0.0517 0.78972 0.42455 0.0
H362 H 0.20301 0.0377 0.38732 0.0
H363 H 0.10285 0.56659 0.42182 0.0
H364 H 0.1236 0.51303 0.39077 0.0
H365 H 0.13518 0.97349 0.41841 0.0
H366 H 0.30092 0.02537 0.31 0.0
N367 N 0.14797 0.84319 0.37616 0.0
C368 C 0.09776 0.87088 0.41635 0.0
C369 C 0.08265 0.81934 0.41203 0.0
C370 C 0.13739 0.90863 0.39981 0.0
C371 C 0.16171 0.89331 0.37951 0.0
C372 C 0.10788 0.80606 0.39163 0.0
N373 N 0.22167 0.91284 0.34295 0.0
C374 C 0.19995 0.92933 0.36236 0.0
C375 C 0.27264 0.99884 0.32497 0.0
C376 C 0.25215 0.01675 0.34569 0.0
C377 C 0.25648 0.94641 0.32372 0.0
C378 C 0.21492 0.98181 0.36455 0.0
H379 H 0.26468 0.05738 0.34665 0.0
O380 O 0.1809 0.84438 0.29953 0.0
O381 O 0.22771 0.774 0.33758 0.0
O382 O 0.31466 0.82596 0.36248 0.0
O383 O 0.28251 0.88061 0.35028 0.0
O384 O 0.24665 0.82936 0.30612 0.0
O385 O 0.12168 0.77719 0.32057 0.0
O386 O 0.26452 0.7406 0.42221 0.0
O387 O 0.2263 0.81107 0.38274 0.0
O388 O 0.13284 0.74136 0.35392 0.0
O389 O 0.17696 0.69615 0.35489 0.0
O390 O 0.20391 0.75809 0.41493 0.0
O391 O 0.32701 0.77481 0.3915 0.0
C392 C 0.25152 0.7911 0.3144 0.0
C393 C 0.19177 0.99752 0.38513 0.0
C394 C 0.15311 0.96097 0.40279 0.0
C395 C 0.13441 0.80511 0.2975 0.0
C396 C 0.09428 0.81379 0.28431 0.0
C397 C 0.07887 0.84509 0.29816 0.0
C398 C 0.06998 0.78954 0.25815 0.0
C399 C 0.02972 0.7958 0.24645 0.0
C400 C 0.03976 0.85191 0.28654 0.0
C401 C 0.01523 0.82736 0.2611 0.0
C402 C 0.32138 0.87172 0.35556 0.0
C403 C 0.20544 0.79989 0.40699 0.0
C404 C 0.3126 0.75486 0.41696 0.0
C405 C 0.3294 0.71864 0.42641 0.0
C406 C 0.33715 0.68813 0.40664 0.0
C407 C 0.33612 0.71306 0.45563 0.0
C408 C 0.34933 0.6765 0.46499 0.0
C409 C 0.34738 0.6501 0.41579 0.0
C410 C 0.35281 0.64377 0.44478 0.0
C411 C 0.1342 0.6978 0.35252 0.0
H412 H 0.0969 0.86395 0.31811 0.0
H413 H 0.0814 0.76495 0.2474 0.0
H414 H 0.02806 0.8761 0.29744 0.0
H415 H 0.9848 0.83322 0.25275 0.0
H416 H 0.3357 0.69354 0.3841 0.0
H417 H 0.33266 0.7383 0.47082 0.0
H418 H 0.35194 0.62599 0.40031 0.0
H419 H 0.36117 0.61412 0.45129 0.0
Gd420 Gd 0.3824 0.18411 0.67584 0.0
Gd421 Gd 0.50226 0.23923 0.71932 0.0
C422 C 0.65775 0.26905 0.6857 0.0
C423 C 0.66935 0.20522 0.7114 0.0
C424 C 0.59289 0.21201 0.71924 0.0
C425 C 0.60965 0.25087 0.69915 0.0
C426 C 0.623 0.18942 0.72601 0.0
C427 C 0.68675 0.24505 0.69132 0.0
C428 C 0.67634 0.31223 0.668 0.0
C429 C 0.64817 0.3374 0.66502 0.0
N430 N 0.58095 0.27365 0.69445 0.0
C431 C 0.60073 0.31797 0.67882 0.0
H432 H 0.57957 0.33801 0.67634 0.0
C433 C 0.53365 0.16485 0.75584 0.0
N434 N 0.54814 0.19796 0.73317 0.0
C435 C 0.56206 0.14117 0.76321 0.0
C436 C 0.60648 0.15286 0.74792 0.0
H437 H 0.49923 0.15549 0.76768 0.0
H438 H 0.72346 0.25809 0.68093 0.0
H439 H 0.34036 0.08409 0.72149 0.0
H440 H 0.71309 0.3274 0.65731 0.0
H441 H 0.66285 0.37169 0.65202 0.0
H442 H 0.6928 0.18801 0.71612 0.0
H443 H 0.35059 0.25812 0.638 0.0
H444 H 0.20332 0.0626 0.76161 0.0
H445 H 0.26983 0.03775 0.75561 0.0
H446 H 0.17117 0.18571 0.71462 0.0
H447 H 0.54962 0.11387 0.78063 0.0
H448 H 0.62849 0.13456 0.75373 0.0
H449 H 0.16718 0.11852 0.74647 0.0
H450 H 0.28403 0.28379 0.638 0.0
N451 N 0.31466 0.13527 0.70798 0.0
C452 C 0.23413 0.08299 0.74638 0.0
C453 C 0.27152 0.06879 0.74301 0.0
C454 C 0.23643 0.12272 0.72968 0.0
C455 C 0.27751 0.14818 0.71029 0.0
C456 C 0.31144 0.09511 0.72342 0.0
N457 N 0.31958 0.20897 0.67402 0.0
C458 C 0.28013 0.18635 0.69276 0.0
C459 C 0.28266 0.25663 0.65369 0.0
C460 C 0.24336 0.23588 0.67397 0.0
C461 C 0.32023 0.24207 0.65375 0.0
C462 C 0.24127 0.19968 0.69358 0.0
H463 H 0.21422 0.24711 0.67386 0.0
O464 O 0.36424 0.17579 0.63044 0.0
O465 O 0.46587 0.21348 0.67673 0.0
O466 O 0.49489 0.30285 0.69842 0.0
O467 O 0.41005 0.27027 0.68202 0.0
O468 O 0.43699 0.234 0.64164 0.0
O469 O 0.34124 0.10794 0.65602 0.0
O470 O 0.51681 0.25863 0.76433 0.0
O471 O 0.41874 0.21571 0.71847 0.0
O472 O 0.4053 0.1226 0.68555 0.0
O473 O 0.48888 0.16306 0.70476 0.0
O474 O 0.44439 0.19359 0.75349 0.0
O475 O 0.5515 0.31856 0.73214 0.0
C476 C 0.47751 0.23683 0.65314 0.0
C477 C 0.20109 0.17562 0.71344 0.0
C478 C 0.19876 0.1373 0.73152 0.0
C479 C 0.3418 0.12579 0.63051 0.0
C480 C 0.29518 0.09763 0.6123 0.0
C481 C 0.25226 0.10349 0.61679 0.0
C482 C 0.2947 0.06713 0.58907 0.0
C483 C 0.25208 0.0439 0.57004 0.0
C484 C 0.20993 0.08024 0.5983 0.0
C485 C 0.20992 0.0511 0.57505 0.0
C486 C 0.45699 0.30923 0.68857 0.0
C487 C 0.40534 0.19462 0.74273 0.0
C488 C 0.5517 0.30613 0.75883 0.0
C489 C 0.60241 0.32386 0.77215 0.0
C490 C 0.64672 0.33842 0.75567 0.0
C491 C 0.60613 0.32421 0.80193 0.0
C492 C 0.65361 0.33926 0.81532 0.0
C493 C 0.69354 0.35154 0.76881 0.0
C494 C 0.69713 0.352 0.79851 0.0
C495 C 0.4475 0.12248 0.69462 0.0
H496 H 0.25176 0.12657 0.63438 0.0
H497 H 0.32789 0.06267 0.58537 0.0
H498 H 0.17703 0.08515 0.60187 0.0
H499 H 0.1765 0.03359 0.5611 0.0
H500 H 0.64556 0.33996 0.73271 0.0
H501 H 0.57212 0.31341 0.81471 0.0
H502 H 0.72738 0.36243 0.75594 0.0
H503 H 0.7344 0.36454 0.80828 0.0
H504 H 0.33405 0.83512 0.28018 0.0
H505 H 0.20359 0.6887 0.30322 0.0
H506 H 0.35386 0.7944 0.24123 0.0
H507 H 0.22449 0.64691 0.26528 0.0
H508 H 0.22322 0.62545 0.16713 0.0
H509 H 0.21446 0.64892 0.21528 0.0
H510 H 0.3805 0.73659 0.22404 0.0
H511 H 0.38906 0.71388 0.17501 0.0
C512 C 0.31064 0.79385 0.27732 0.0
C513 C 0.2679 0.76468 0.29474 0.0
C514 C 0.32221 0.77037 0.25529 0.0
C515 C 0.29076 0.71735 0.25017 0.0
C516 C 0.24911 0.68791 0.26849 0.0
C517 C 0.23731 0.7116 0.29034 0.0
C518 C 0.25786 0.6486 0.17959 0.0
C519 C 0.3068 0.66839 0.16737 0.0
C520 C 0.25289 0.66186 0.20731 0.0
C521 C 0.29683 0.69495 0.22344 0.0
C522 C 0.34596 0.71175 0.2119 0.0
C523 C 0.3509 0.69885 0.18395 0.0
H524 H 0.53207 0.18678 0.64979 0.0
H525 H 0.52369 0.31716 0.61779 0.0
H526 H 0.60314 0.20666 0.61694 0.0
H527 H 0.59365 0.33678 0.5849 0.0
H528 H 0.63611 0.21251 0.5165 0.0
H529 H 0.60044 0.19935 0.56417 0.0
H530 H 0.68554 0.36337 0.57898 0.0
H531 H 0.72112 0.37666 0.53083 0.0
C532 C 0.54636 0.2203 0.63616 0.0
C533 C 0.52355 0.25118 0.63641 0.0
C534 C 0.58677 0.2316 0.61742 0.0
C535 C 0.60438 0.27367 0.59869 0.0
C536 C 0.58198 0.305 0.59962 0.0
C537 C 0.54154 0.29349 0.6181 0.0
C538 C 0.64893 0.24564 0.53031 0.0
C539 C 0.68025 0.29572 0.51981 0.0
C540 C 0.62862 0.23806 0.55772 0.0
C541 C 0.63937 0.28048 0.57496 0.0
C542 C 0.67589 0.33014 0.56578 0.0
C543 C 0.69604 0.33775 0.53829 0.0
H544 H 0.18693 0.50858 0.94357 0.0
H545 H 0.33243 0.52642 0.97138 0.0
H546 H 0.23064 0.57208 0.9062 0.0
H547 H 0.37692 0.59133 0.93434 0.0
H548 H 0.39806 0.61269 0.83434 0.0
H549 H 0.37562 0.57989 0.88264 0.0
H550 H 0.29179 0.66103 0.89311 0.0
H551 H 0.31411 0.69376 0.84432 0.0
C552 C 0.22854 0.52728 0.94203 0.0
C553 C 0.25658 0.51351 0.96038 0.0
C554 C 0.25369 0.56402 0.92091 0.0
C555 C 0.30729 0.58694 0.91748 0.0
C556 C 0.33558 0.57421 0.93652 0.0
C557 C 0.3103 0.5374 0.95775 0.0
C558 C 0.37625 0.62491 0.84722 0.0
C559 C 0.35702 0.65501 0.83546 0.0
C560 C 0.36356 0.60627 0.87499 0.0
C561 C 0.33141 0.61741 0.8915 0.0
C562 C 0.31591 0.65118 0.88061 0.0
C563 C 0.32848 0.66971 0.85274 0.0
H564 H 0.82057 0.34281 0.31474 0.0
H565 H 0.6873 0.20428 0.28435 0.0
H566 H 0.79849 0.39432 0.28355 0.0
H567 H 0.66584 0.2549 0.25259 0.0
H568 H 0.62908 0.34248 0.1958 0.0
H569 H 0.64042 0.31842 0.24405 0.0
H570 H 0.80564 0.40172 0.23233 0.0
H571 H 0.79431 0.42622 0.18478 0.0
C572 C 0.78587 0.32365 0.3019 0.0
C573 C 0.75506 0.2699 0.30204 0.0
C574 C 0.77332 0.35298 0.28399 0.0
C575 C 0.73035 0.32875 0.26565 0.0
C576 C 0.6985 0.27498 0.26688 0.0
C577 C 0.71105 0.24583 0.28474 0.0
C578 C 0.66778 0.35684 0.204 0.0
C579 C 0.71076 0.38513 0.18642 0.0
C580 C 0.67429 0.34319 0.23155 0.0
C581 C 0.72382 0.35712 0.24169 0.0
C582 C 0.76694 0.39049 0.22528 0.0
C583 C 0.76045 0.40442 0.19787 0.0
H584 H 0.48704 0.79474 0.62548 0.0
H585 H 0.5015 0.65964 0.61782 0.0
H586 H 0.42373 0.76369 0.58665 0.0
H587 H 0.43706 0.62748 0.57961 0.0
H588 H 0.42684 0.66202 0.48399 0.0
H589 H 0.45777 0.66765 0.53216 0.0
H590 H 0.34008 0.69781 0.56318 0.0
H591 H 0.30741 0.69058 0.51425 0.0
C592 C 0.47482 0.75736 0.61629 0.0
C593 C 0.49852 0.72925 0.62449 0.0
C594 C 0.43852 0.73945 0.59416 0.0
C595 C 0.42607 0.69351 0.57989 0.0
C596 C 0.44653 0.66335 0.59001 0.0
C597 C 0.48319 0.68156 0.61182 0.0
C598 C 0.40612 0.66805 0.50101 0.0
C599 C 0.36434 0.6755 0.49515 0.0
C600 C 0.42398 0.67129 0.52877 0.0
C601 C 0.40097 0.6826 0.5515 0.0
C602 C 0.35842 0.68898 0.54598 0.0
C603 C 0.34003 0.68518 0.51801 0.0
H604 H 0.68738 0.48237 0.97847 0.0
H605 H 0.83293 0.50017 0.95203 0.0
H606 H 0.64216 0.41117 0.9453 0.0
H607 H 0.78851 0.4313 0.91737 0.0
H608 H 0.61382 0.38577 0.84735 0.0
H609 H 0.63779 0.41771 0.89543 0.0
H610 H 0.73072 0.34513 0.90232 0.0
H611 H 0.70703 0.31362 0.85331 0.0
C612 C 0.7095 0.47007 0.96607 0.0
C613 C 0.76337 0.49596 0.96797 0.0
C614 C 0.68374 0.42961 0.94687 0.0
C615 C 0.71169 0.41586 0.92842 0.0
C616 C 0.76558 0.44015 0.93153 0.0
C617 C 0.79118 0.48005 0.95108 0.0
C618 C 0.63788 0.37498 0.8594 0.0
C619 C 0.65925 0.34794 0.84647 0.0
C620 C 0.65153 0.39316 0.88717 0.0
C621 C 0.68677 0.38455 0.90266 0.0
C622 C 0.70429 0.35324 0.89068 0.0
C623 C 0.69083 0.33528 0.8627 0.0
H624 H 0.3829 0.44503 0.06281 0.0
H625 H 0.3772 0.46773 0.97233 0.0
H626 H 0.47658 0.48199 0.06022 0.0
H627 H 0.4707 0.50446 0.96945 0.0
H628 H 0.63448 0.52195 0.97485 0.0
H629 H 0.5412 0.48559 0.97451 0.0
H630 H 0.55285 0.5685 0.05199 0.0
H631 H 0.64671 0.60444 0.05228 0.0
C632 C 0.40154 0.45615 0.04218 0.0
C633 C 0.37262 0.45207 0.01763 0.0
C634 C 0.45533 0.47837 0.04075 0.0
C635 C 0.4815 0.49699 1.01468 0.0
C636 C 0.45201 0.4904 0.98987 0.0
C637 C 0.39831 0.46867 0.9914 0.0
C638 C 0.6173 0.5339 0.99121 0.0
C639 C 0.64805 0.56712 1.01317 0.0
C640 C 0.56369 0.51268 0.99117 0.0
C641 C 0.53919 0.5235 1.0134 0.0
C642 C 0.5703 0.55873 0.03473 0.0
C643 C 0.62418 0.58035 0.03458 0.0
H644 H 0.05568 0.64254 0.38979 0.0
H645 H 0.11223 0.63733 0.30623 0.0
H646 H 0.99906 0.54878 0.38868 0.0
H647 H 0.05724 0.54418 0.30519 0.0
H648 H 0.91775 0.37706 0.30645 0.0
H649 H 0.97063 0.47077 0.30364 0.0
H650 H 0.01376 0.47573 0.39226 0.0
H651 H 0.96035 0.382 0.39483 0.0
C652 C 0.05427 0.62159 0.37068 0.0
C653 C 0.08754 0.64728 0.34786 0.0
C654 C 0.02291 0.56776 0.37029 0.0
C655 C 0.0243 0.53864 0.34705 0.0
C656 C 0.05493 0.56506 0.3234 0.0
C657 C 0.08622 0.61862 0.32388 0.0
C658 C 0.94044 0.39812 0.3249 0.0
C659 C 0.93613 0.37223 0.35063 0.0
C660 C 0.97013 0.45192 0.32348 0.0
C661 C 0.99577 0.48109 0.34789 0.0
C662 C 0.99369 0.45472 0.3732 0.0
C663 C 0.96413 0.40094 0.37453 0.0
H664 H 0.4626 0.06635 0.73478 0.0
H665 H 0.45185 0.08123 0.64387 0.0
H666 H 0.50044 0.01183 0.72715 0.0
H667 H 0.4894 0.02627 0.63591 0.0
H668 H 0.50767 0.88092 0.63825 0.0
H669 H 0.47424 0.93942 0.64168 0.0
H670 H 0.58213 0.02087 0.70994 0.0
H671 H 0.6151 0.96088 0.70666 0.0
C672 C 0.46735 0.0569 0.71313 0.0
C673 C 0.45376 0.07741 0.68993 0.0
C674 C 0.48976 0.02635 0.70872 0.0
C675 C 0.49912 0.01552 0.68091 0.0
C676 C 0.4828 0.03378 0.65764 0.0
C677 C 0.4605 0.06458 0.66212 0.0
C678 C 0.52565 0.91251 0.65327 0.0
C679 C 0.56451 0.91674 0.67193 0.0
C680 C 0.50621 0.94596 0.65535 0.0
C681 C 0.52488 0.98451 0.67633 0.0
C682 C 0.5663 0.99103 0.6938 0.0
C683 C 0.58607 0.95749 0.69156 0.0
H684 H 0.46649 0.60222 0.69504 0.0
H685 H 0.61949 0.64555 0.6658 0.0
H686 H 0.4418 0.51272 0.69295 0.0
H687 H 0.5938 0.55446 0.66285 0.0
H688 H 0.55061 0.39529 0.69768 0.0
H689 H 0.57486 0.4843 0.69321 0.0
H690 H 0.42094 0.4397 0.6644 0.0
H691 H 0.39567 0.34891 0.66975 0.0
C692 C 0.49511 0.59294 0.68786 0.0
C693 C 0.54551 0.63198 0.68074 0.0
C694 C 0.48043 0.54094 0.68637 0.0
C695 C 0.51543 0.5257 0.67764 0.0
C696 C 0.56573 0.56453 0.67003 0.0
C697 C 0.5806 0.61698 0.67161 0.0
C698 C 0.52147 0.40377 0.69023 0.0
C699 C 0.4707 0.36404 0.68421 0.0
C700 C 0.53588 0.45551 0.68738 0.0
C701 C 0.50022 0.46986 0.67833 0.0
C702 C 0.44953 0.43033 0.67175 0.0
C703 C 0.43494 0.37808 0.67467 0.0
H704 H 0.07001 0.43339 0.97681 0.0
H705 H 0.11224 0.48693 0.06342 0.0
H706 H 1.0084 0.46529 0.97634 0.0
H707 H 0.05169 0.51842 0.06313 0.0
H708 H 0.89937 0.51661 0.06424 0.0
H709 H 0.95835 0.48363 0.06195 0.0
H710 H 1.00915 0.5524 0.97876 0.0
H711 H 0.94881 0.58565 0.98104 0.0
C712 C 0.06512 0.45071 0.99592 0.0
C713 C 0.09508 0.45672 0.02037 0.0
C714 C 0.03062 0.46981 0.99552 0.0
C715 C 0.02509 0.49464 0.01969 0.0
C716 C 0.05437 0.4992 0.04422 0.0
C717 C 0.08896 0.48087 0.04446 0.0
C718 C 0.92342 0.52532 0.0455 0.0
C719 C 0.91957 0.55422 0.02292 0.0
C720 C 0.95734 0.50628 0.04419 0.0
C721 C 0.98855 0.51507 0.02014 0.0
C722 C 0.98531 0.54447 0.9975 0.0
C723 C 0.95141 0.56423 0.99897 0.0
H724 H 0.36213 0.97492 0.34107 0.0
H725 H 0.40717 0.86316 0.363 0.0
H726 H 0.45337 0.04065 0.33663 0.0
H727 H 0.49666 0.92806 0.35939 0.0
H728 H 0.65822 0.0462 0.33252 0.0
H729 H 0.56649 0.98166 0.32921 0.0
H730 H 0.52768 0.08981 0.36549 0.0
H731 H 0.61778 0.15377 0.3681 0.0
C732 C 0.39109 0.9642 0.34493 0.0
C733 C 0.37653 0.9134 0.35247 0.0
C734 C 0.44362 1.00195 0.3425 0.0
C735 C 0.48293 0.98989 0.34755 0.0
C736 C 0.46805 0.939 0.35475 0.0
C737 C 0.41604 0.90159 0.35713 0.0
C738 C 0.63016 0.05631 0.33956 0.0
C739 C 0.6462 0.10556 0.35058 0.0
C740 C 0.57733 0.01918 0.33781 0.0
C741 C 0.53912 0.03027 0.34707 0.0
C742 C 0.55537 0.07975 0.35763 0.0
C743 C 0.60774 0.11658 0.35935 0.0
H744 H 0.35652 0.252 0.73713 0.0
H745 H 0.37368 0.14877 0.79425 0.0
H746 H 0.30709 0.2669 0.77391 0.0
H747 H 0.32657 0.16527 0.83117 0.0
H748 H 0.30266 0.26118 0.90038 0.0
H749 H 0.34745 0.24716 0.86073 0.0
H750 H 0.22084 0.21575 0.8043 0.0
H751 H 0.17562 0.22877 0.8441 0.0
C752 C 0.34886 0.23167 0.75725 0.0
C753 C 0.36845 0.19853 0.76254 0.0
C754 C 0.32097 0.24058 0.77844 0.0
C755 C 0.31354 0.21789 0.8057 0.0
C756 C 0.3322 0.18398 0.81063 0.0
C757 C 0.35889 0.17423 0.78935 0.0
C758 C 0.2847 0.25197 0.87945 0.0
C759 C 0.23551 0.24606 0.8755 0.0
C760 C 0.31015 0.24352 0.85675 0.0
C761 C 0.28761 0.23 0.82932 0.0
C762 C 0.23937 0.22621 0.82508 0.0
C763 C 0.21343 0.23356 0.84792 0.0
H764 H 0.05811 0.20801 0.21734 0.0
H765 H 0.96006 0.26934 0.19403 0.0
H766 H 0.11298 0.25082 0.17683 0.0
H767 H 0.01728 0.31513 0.15397 0.0
H768 H 0.10771 0.35835 0.06929 0.0
H769 H 0.04749 0.30846 0.10752 0.0
H770 H 0.17583 0.33071 0.16019 0.0
H771 H 0.23496 0.37831 0.12172 0.0
C772 C 0.04804 0.2307 0.2036 0.0
C773 C 1.00386 0.23445 0.20916 0.0
C774 C 0.08026 0.25606 0.18035 0.0
C775 C 0.07019 0.28695 0.16177 0.0
C776 C 0.02629 0.29131 0.16741 0.0
C777 C 0.99372 0.26557 0.19075 0.0
C778 C 0.12279 0.35144 0.08881 0.0
C779 C 0.17623 0.37161 0.09219 0.0
C780 C 0.08829 0.32346 0.111 0.0
C781 C 0.10628 0.31525 0.13733 0.0
C782 C 0.15981 0.33505 0.14032 0.0
C783 C 0.19404 0.36269 0.11819 0.0
H784 H 0.7406 0.94194 0.51853 0.0
H785 H 0.81749 0.08068 0.56864 0.0
H786 H 0.75495 0.99346 0.47514 0.0
H787 H 0.82965 0.13196 0.52619 0.0
H788 H 0.89054 0.22222 0.44715 0.0
H789 H 0.87846 0.16335 0.48591 0.0
H790 H 0.73707 0.04715 0.44637 0.0
H791 H 0.7515 0.10588 0.40653 0.0
C792 C 0.75974 0.98342 0.52033 0.0
C793 C 0.77818 0.00718 0.54706 0.0
C794 C 0.76808 0.01315 0.49542 0.0
C795 C 0.79462 0.06749 0.49662 0.0
C796 C 0.81086 0.09064 0.52376 0.0
C797 C 0.80327 0.06112 0.54838 0.0
C798 C 0.85755 0.18362 0.4464 0.0
C799 C 0.82223 0.16881 0.42367 0.0
C800 C 0.84994 0.14987 0.46898 0.0
C801 C 0.8057 0.10047 0.47018 0.0
C802 C 0.7716 0.08463 0.44654 0.0
C803 C 0.77987 0.11832 0.42354 0.0
H804 H 0.6506 0.8705 0.77881 0.0
H805 H 0.64587 0.74089 0.73678 0.0
H806 H 0.69541 0.85968 0.81932 0.0
H807 H 0.68861 0.72789 0.77806 0.0
H808 H 0.79625 0.73737 0.85288 0.0
H809 H 0.75912 0.74996 0.8088 0.0
H810 H 0.67927 0.80887 0.85881 0.0
H811 H 0.71819 0.79848 0.90205 0.0
C812 C 0.65953 0.83978 0.77819 0.0
C813 C 0.64472 0.80678 0.75448 0.0
C814 C 0.68468 0.83292 0.80171 0.0
C815 C 0.69477 0.79182 0.8028 0.0
C816 C 0.68185 0.76002 0.77838 0.0
C817 C 0.65724 0.76745 0.75456 0.0
C818 C 0.7703 0.75249 0.85433 0.0
C819 C 0.76039 0.76706 0.88106 0.0
C820 C 0.74892 0.75986 0.82899 0.0
C821 C 0.7166 0.78157 0.82971 0.0
C822 C 0.70519 0.79385 0.85678 0.0
C823 C 0.72703 0.7872 0.88185 0.0
H824 H 0.92609 0.73368 0.23991 0.0
H825 H 0.06746 0.79817 0.19225 0.0
H826 H 0.87667 0.69651 0.19649 0.0
H827 H 0.01792 0.76308 0.14793 0.0
H828 H 0.91026 0.65269 0.07628 0.0
H829 H 0.9662 0.69423 0.11761 0.0
H830 H 0.84615 0.71376 0.15577 0.0
H831 H 0.78996 0.66971 0.11533 0.0
C832 C 0.94667 0.73997 0.21999 0.0
C833 C 1.00082 0.76895 0.21969 0.0
C834 C 0.91819 0.71918 0.19479 0.0
C835 C 0.94262 0.72739 0.16803 0.0
C836 C 0.99716 0.75539 0.16784 0.0
C837 C 0.02581 0.77561 0.19333 0.0
C838 C 0.89628 0.6667 0.09334 0.0
C839 C 0.84546 0.65774 0.09249 0.0
C840 C 0.92844 0.6906 0.11723 0.0
C841 C 0.91084 0.70659 0.14089 0.0
C842 C 0.86104 0.70048 0.13885 0.0
C843 C 0.8288 0.67589 0.11531 0.0
H844 H 0.2686 0.96179 0.56916 0.0
H845 H 0.23021 0.05301 0.51412 0.0
H846 H 0.25636 0.90431 0.52896 0.0
H847 H 0.21895 0.99621 0.47383 0.0
H848 H 0.25981 0.90624 0.40447 0.0
H849 H 0.2724 0.96716 0.44279 0.0
H850 H 0.17727 0.84037 0.49855 0.0
H851 H 0.16283 0.7798 0.45993 0.0
C852 C 0.25838 0.97007 0.5484 0.0
C853 C 0.25042 0.01206 0.54494 0.0
C854 C 0.25092 0.93688 0.52539 0.0
C855 C 0.23638 0.94541 0.49813 0.0
C856 C 0.23027 0.98852 0.49444 0.0
C857 C 0.23663 0.02101 0.51757 0.0
C858 C 0.24043 0.89144 0.42463 0.0
C859 C 0.20937 0.83804 0.42885 0.0
C860 C 0.24803 0.92636 0.44672 0.0
C861 C 0.22629 0.90872 0.47393 0.0
C862 C 0.1951 0.85536 0.47803 0.0
C863 C 0.18654 0.82063 0.4558 0.0
loop_
_geom_bond_atom_site_label_1
_geom_bond_atom_site_label_2
_geom_bond_distance
_geom_bond_site_symmetry_2
_ccdc_geom_bond_type
Gd0 N31 2.661 1_556 S
Gd0 N37 2.601 . S
Gd0 O44 2.545 . S
Gd0 O45 2.606 . S
Gd0 O47 2.429 . S
Gd0 O48 2.545 . S
Gd0 O49 2.412 . S
Gd0 O51 2.362 1_556 S
Gd0 O52 2.324 1_556 S
Gd0 C59 2.828 . S
Gd1 N10 2.661 . S
Gd1 N14 2.601 . S
Gd1 O45 2.362 1_554 S
Gd1 O46 2.324 . S
Gd1 O50 2.545 . S
Gd1 O51 2.606 . S
Gd1 O53 2.429 . S
Gd1 O54 2.545 . S
Gd1 O55 2.412 . S
Gd1 C68 2.828 . S
C2 C5 1.417 1_556 S
C2 C7 1.431 . S
C2 C8 1.412 . S
C3 C6 1.437 . S
C3 C7 1.317 1_554 S
C3 H22 0.929 . S
C4 C5 1.426 . S
C4 C6 1.413 . S
C4 N14 1.359 . S
C5 C2 1.417 1_554 S
C5 C4 1.426 . S
C5 N10 1.350 . S
C6 C3 1.437 . S
C6 C4 1.413 . S
C6 C16 1.391 . S
C7 C2 1.431 . S
C7 C3 1.317 1_556 S
C7 H18 0.930 . S
C8 C2 1.412 . S
C8 C9 1.355 . S
C8 H20 0.930 . S
C9 C8 1.355 . S
C9 C11 1.402 . S
C9 H21 0.930 . S
N10 Gd1 2.661 . S
N10 C5 1.350 . S
N10 C11 1.307 1_554 S
C11 C9 1.402 . S
C11 N10 1.307 1_556 S
C11 H12 0.930 . S
H12 C11 0.930 . S
C13 N14 1.334 . S
C13 C15 1.394 . S
C13 H17 0.930 . S
N14 Gd1 2.601 . S
N14 C4 1.359 . S
N14 C13 1.334 . S
C15 C13 1.394 . S
C15 C16 1.359 . S
C15 H27 0.930 . S
C16 C6 1.391 . S
C16 C15 1.359 . S
C16 H28 0.929 . S
H17 C13 0.930 . S
H18 C7 0.930 . S
H19 C36 0.930 . S
H20 C8 0.930 . S
H21 C9 0.930 . S
H22 C3 0.929 . S
H23 C41 0.930 . S
H24 C32 0.930 . S
H25 C33 0.930 . S
H26 C57 0.929 1_655 S
H27 C15 0.930 . S
H28 C16 0.929 . S
H29 C58 0.930 . S
H30 C39 0.930 1_655 S
N31 Gd0 2.661 1_554 S
N31 C35 1.350 . S
N31 C36 1.307 . S
C32 H24 0.930 . S
C32 C33 1.355 . S
C32 C34 1.412 . S
C33 H25 0.930 . S
C33 C32 1.355 . S
C33 C36 1.402 . S
C34 C32 1.412 . S
C34 C35 1.417 . S
C34 C58 1.431 . S
C35 N31 1.350 . S
C35 C34 1.417 . S
C35 C38 1.426 . S
C36 H19 0.930 . S
C36 N31 1.307 . S
C36 C33 1.402 . S
N37 Gd0 2.601 . S
N37 C38 1.359 1_556 S
N37 C41 1.334 . S
C38 C35 1.426 . S
C38 N37 1.359 1_554 S
C38 C42 1.413 . S
C39 H30 0.930 1_455 S
C39 C40 1.359 1_455 S
C39 C41 1.394 . S
C40 C39 1.359 1_655 S
C40 C42 1.391 1_656 S
C40 H43 0.929 . S
C41 H23 0.930 . S
C41 N37 1.334 . S
C41 C39 1.394 . S
C42 C38 1.413 . S
C42 C40 1.391 1_454 S
C42 C57 1.437 . S
H43 C40 0.929 . S
O44 Gd0 2.545 . S
O44 C59 1.258 . S
O45 Gd0 2.606 . S
O45 Gd1 2.362 1_556 S
O45 C56 1.284 . S
O46 Gd1 2.324 . S
O46 C66 1.254 . S
O47 Gd0 2.429 . S
O47 C66 1.268 1_556 S
O48 Gd0 2.545 . S
O48 C56 1.250 . S
O49 Gd0 2.412 . S
O49 C59 1.252 . S
O50 Gd1 2.545 . S
O50 C68 1.258 . S
O51 Gd0 2.362 1_554 S
O51 Gd1 2.606 . S
O51 C67 1.284 . S
O52 Gd0 2.324 1_554 S
O52 C75 1.254 . S
O53 Gd1 2.429 . S
O53 C75 1.268 . S
O54 Gd1 2.545 . S
O54 C67 1.250 . S
O55 Gd1 2.412 . S
O55 C68 1.252 . S
C56 O45 1.284 . S
C56 O48 1.250 . S
C57 H26 0.929 1_455 S
C57 C42 1.437 . S
C57 C58 1.317 . S
C58 H29 0.930 . S
C58 C34 1.431 . S
C58 C57 1.317 . S
C59 Gd0 2.828 . S
C59 O44 1.258 . S
C59 O49 1.252 . S
C59 C60 1.497 . S
C60 C59 1.497 . S
C60 C61 1.395 . S
C60 C62 1.380 . S
C61 C60 1.395 . S
C61 C64 1.398 . S
C61 H76 0.930 . S
C62 C60 1.380 . S
C62 C63 1.391 . S
C62 H77 0.930 . S
C63 C62 1.391 . S
C63 C65 1.387 . S
C64 C61 1.398 . S
C64 C65 1.380 . S
C64 H78 0.930 . S
C65 C63 1.387 . S
C65 C64 1.380 . S
C65 H79 0.930 . S
C66 O46 1.254 . S
C66 O47 1.268 1_554 S
C67 O51 1.284 . S
C67 O54 1.250 . S
C68 Gd1 2.828 . S
C68 O50 1.258 . S
C68 O55 1.252 . S
C68 C69 1.497 . S
C69 C68 1.497 . S
C69 C70 1.395 . S
C69 C71 1.380 . S
C70 C69 1.395 . S
C70 C73 1.398 . S
C70 H80 0.930 . S
C71 C69 1.380 . S
C71 C72 1.391 . S
C71 H81 0.930 . S
C72 C71 1.391 . S
C72 C74 1.387 . S
C73 C70 1.398 . S
C73 C74 1.380 . S
C73 H82 0.930 . S
C74 C72 1.387 . S
C74 C73 1.380 . S
C74 H83 0.930 . S
C75 O52 1.254 . S
C75 O53 1.268 . S
H76 C61 0.930 . S
H77 C62 0.930 . S
H78 C64 0.930 . S
H79 C65 0.930 . S
H80 C70 0.930 . S
H81 C71 0.930 . S
H82 C73 0.930 . S
H83 C74 0.930 . S
Gd84 N115 2.661 . S
Gd84 N121 2.601 . S
Gd84 O128 2.545 . S
Gd84 O129 2.606 . S
Gd84 O131 2.429 . S
Gd84 O132 2.545 . S
Gd84 O133 2.412 . S
Gd84 O135 2.362 . S
Gd84 O136 2.324 . S
Gd84 C143 2.828 . S
Gd85 N94 2.661 . S
Gd85 N98 2.601 . S
Gd85 O129 2.362 . S
Gd85 O130 2.324 . S
Gd85 O134 2.545 . S
Gd85 O135 2.606 . S
Gd85 O137 2.429 . S
Gd85 O138 2.545 . S
Gd85 O139 2.412 . S
Gd85 C152 2.828 . S
C86 C89 1.417 . S
C86 C91 1.431 . S
C86 C92 1.412 . S
C87 C90 1.437 . S
C87 C91 1.317 . S
C87 H106 0.929 . S
C88 C89 1.426 . S
C88 C90 1.413 . S
C88 N98 1.359 . S
C89 C86 1.417 . S
C89 C88 1.426 . S
C89 N94 1.350 . S
C90 C87 1.437 . S
C90 C88 1.413 . S
C90 C100 1.391 . S
C91 C86 1.431 . S
C91 C87 1.317 . S
C91 H102 0.930 . S
C92 C86 1.412 . S
C92 C93 1.355 . S
C92 H104 0.930 . S
C93 C92 1.355 . S
C93 C95 1.402 . S
C93 H105 0.930 . S
N94 Gd85 2.661 . S
N94 C89 1.350 . S
N94 C95 1.307 . S
C95 C93 1.402 . S
C95 N94 1.307 . S
C95 H96 0.930 . S
H96 C95 0.930 . S
C97 N98 1.334 . S
C97 C99 1.394 . S
C97 H101 0.930 . S
N98 Gd85 2.601 . S
N98 C88 1.359 . S
N98 C97 1.334 . S
C99 C97 1.394 . S
C99 C100 1.359 . S
C99 H111 0.930 . S
C100 C90 1.391 . S
C100 C99 1.359 . S
C100 H112 0.929 . S
H101 C97 0.930 . S
H102 C91 0.930 . S
H103 C120 0.930 . S
H104 C92 0.930 . S
H105 C93 0.930 . S
H106 C87 0.929 . S
H107 C125 0.930 . S
H108 C116 0.930 . S
H109 C117 0.930 . S
H110 C141 0.929 1_565 S
H111 C99 0.930 . S
H112 C100 0.929 . S
H113 C142 0.930 . S
H114 C123 0.930 1_565 S
N115 Gd84 2.661 . S
N115 C119 1.350 . S
N115 C120 1.307 . S
C116 H108 0.930 . S
C116 C117 1.355 . S
C116 C118 1.412 . S
C117 H109 0.930 . S
C117 C116 1.355 . S
C117 C120 1.402 . S
C118 C116 1.412 . S
C118 C119 1.417 . S
C118 C142 1.431 . S
C119 N115 1.350 . S
C119 C118 1.417 . S
C119 C122 1.426 . S
C120 H103 0.930 . S
C120 N115 1.307 . S
C120 C117 1.402 . S
N121 Gd84 2.601 . S
N121 C122 1.359 . S
N121 C125 1.334 . S
C122 C119 1.426 . S
C122 N121 1.359 . S
C122 C126 1.413 . S
C123 H114 0.930 1_545 S
C123 C124 1.359 1_545 S
C123 C125 1.394 . S
C124 C123 1.359 1_565 S
C124 C126 1.391 1_565 S
C124 H127 0.929 . S
C125 H107 0.930 . S
C125 N121 1.334 . S
C125 C123 1.394 . S
C126 C122 1.413 . S
C126 C124 1.391 1_545 S
C126 C141 1.437 . S
H127 C124 0.929 . S
O128 Gd84 2.545 . S
O128 C143 1.258 . S
O129 Gd84 2.606 . S
O129 Gd85 2.362 . S
O129 C140 1.284 . S
O130 Gd85 2.324 . S
O130 C150 1.254 . S
O131 Gd84 2.429 . S
O131 C150 1.268 . S
O132 Gd84 2.545 . S
O132 C140 1.250 . S
O133 Gd84 2.412 . S
O133 C143 1.252 . S
O134 Gd85 2.545 . S
O134 C152 1.258 . S
O135 Gd84 2.362 . S
O135 Gd85 2.606 . S
O135 C151 1.284 . S
O136 Gd84 2.324 . S
O136 C159 1.254 . S
O137 Gd85 2.429 . S
O137 C159 1.268 . S
O138 Gd85 2.545 . S
O138 C151 1.250 . S
O139 Gd85 2.412 . S
O139 C152 1.252 . S
C140 O129 1.284 . S
C140 O132 1.250 . S
C141 H110 0.929 1_545 S
C141 C126 1.437 . S
C141 C142 1.317 . S
C142 H113 0.930 . S
C142 C118 1.431 . S
C142 C141 1.317 . S
C143 Gd84 2.828 . S
C143 O128 1.258 . S
C143 O133 1.252 . S
C143 C144 1.497 . S
C144 C143 1.497 . S
C144 C145 1.395 . S
C144 C146 1.380 . S
C145 C144 1.395 . S
C145 C148 1.398 . S
C145 H160 0.930 . S
C146 C144 1.380 . S
C146 C147 1.391 . S
C146 H161 0.930 . S
C147 C146 1.391 . S
C147 C149 1.387 . S
C148 C145 1.398 . S
C148 C149 1.380 . S
C148 H162 0.930 . S
C149 C147 1.387 . S
C149 C148 1.380 . S
C149 H163 0.930 . S
C150 O130 1.254 . S
C150 O131 1.268 . S
C151 O135 1.284 . S
C151 O138 1.250 . S
C152 Gd85 2.828 . S
C152 O134 1.258 . S
C152 O139 1.252 . S
C152 C153 1.497 . S
C153 C152 1.497 . S
C153 C154 1.395 . S
C153 C155 1.380 . S
C154 C153 1.395 . S
C154 C157 1.398 . S
C154 H164 0.930 . S
C155 C153 1.380 . S
C155 C156 1.391 . S
C155 H165 0.930 . S
C156 C155 1.391 . S
C156 C158 1.387 . S
C157 C154 1.398 . S
C157 C158 1.380 . S
C157 H166 0.930 . S
C158 C156 1.387 . S
C158 C157 1.380 . S
C158 H167 0.930 . S
C159 O136 1.254 . S
C159 O137 1.268 . S
H160 C145 0.930 . S
H161 C146 0.930 . S
H162 C148 0.930 . S
H163 C149 0.930 . S
H164 C154 0.930 . S
H165 C155 0.930 . S
H166 C157 0.930 . S
H167 C158 0.930 . S
Gd168 N199 2.661 . S
Gd168 N205 2.601 . S
Gd168 O212 2.545 . S
Gd168 O213 2.606 . S
Gd168 O215 2.429 . S
Gd168 O216 2.545 . S
Gd168 O217 2.412 . S
Gd168 O219 2.362 . S
Gd168 O220 2.324 . S
Gd168 C227 2.828 . S
Gd169 N178 2.661 . S
Gd169 N182 2.601 . S
Gd169 O213 2.362 . S
Gd169 O214 2.324 . S
Gd169 O218 2.545 . S
Gd169 O219 2.606 . S
Gd169 O221 2.429 . S
Gd169 O222 2.545 . S
Gd169 O223 2.412 . S
Gd169 C236 2.828 . S
C170 C173 1.417 . S
C170 C175 1.431 . S
C170 C176 1.412 . S
C171 C174 1.437 . S
C171 C175 1.317 . S
C171 H190 0.929 . S
C172 C173 1.426 . S
C172 C174 1.413 . S
C172 N182 1.359 . S
C173 C170 1.417 . S
C173 C172 1.426 . S
C173 N178 1.350 . S
C174 C171 1.437 . S
C174 C172 1.413 . S
C174 C184 1.391 . S
C175 C170 1.431 . S
C175 C171 1.317 . S
C175 H186 0.930 . S
C176 C170 1.412 . S
C176 C177 1.355 . S
C176 H188 0.930 . S
C177 C176 1.355 . S
C177 C179 1.402 . S
C177 H189 0.930 . S
N178 Gd169 2.661 . S
N178 C173 1.350 . S
N178 C179 1.307 . S
C179 C177 1.402 . S
C179 N178 1.307 . S
C179 H180 0.930 . S
H180 C179 0.930 . S
C181 N182 1.334 . S
C181 C183 1.394 . S
C181 H185 0.930 . S
N182 Gd169 2.601 . S
N182 C172 1.359 . S
N182 C181 1.334 . S
C183 C181 1.394 . S
C183 C184 1.359 . S
C183 H195 0.930 . S
C184 C174 1.391 . S
C184 C183 1.359 . S
C184 H196 0.929 . S
H185 C181 0.930 . S
H186 C175 0.930 . S
H187 C204 0.930 . S
H188 C176 0.930 . S
H189 C177 0.930 . S
H190 C171 0.929 . S
H191 C209 0.930 . S
H192 C200 0.930 . S
H193 C201 0.930 . S
H194 C225 0.929 . S
H195 C183 0.930 . S
H196 C184 0.929 . S
H197 C226 0.930 . S
H198 C207 0.930 . S
N199 Gd168 2.661 . S
N199 C203 1.350 . S
N199 C204 1.307 . S
C200 H192 0.930 . S
C200 C201 1.355 . S
C200 C202 1.412 . S
C201 H193 0.930 . S
C201 C200 1.355 . S
C201 C204 1.402 . S
C202 C200 1.412 . S
C202 C203 1.417 . S
C202 C226 1.431 . S
C203 N199 1.350 . S
C203 C202 1.417 . S
C203 C206 1.426 . S
C204 H187 0.930 . S
C204 N199 1.307 . S
C204 C201 1.402 . S
N205 Gd168 2.601 . S
N205 C206 1.359 . S
N205 C209 1.334 . S
C206 C203 1.426 . S
C206 N205 1.359 . S
C206 C210 1.413 . S
C207 H198 0.930 . S
C207 C208 1.359 . S
C207 C209 1.394 . S
C208 C207 1.359 . S
C208 C210 1.391 . S
C208 H211 0.929 . S
C209 H191 0.930 . S
C209 N205 1.334 . S
C209 C207 1.394 . S
C210 C206 1.413 . S
C210 C208 1.391 . S
C210 C225 1.437 . S
H211 C208 0.929 . S
O212 Gd168 2.545 . S
O212 C227 1.258 . S
O213 Gd168 2.606 . S
O213 Gd169 2.362 . S
O213 C224 1.284 . S
O214 Gd169 2.324 . S
O214 C234 1.254 . S
O215 Gd168 2.429 . S
O215 C234 1.268 . S
O216 Gd168 2.545 . S
O216 C224 1.250 . S
O217 Gd168 2.412 . S
O217 C227 1.252 . S
O218 Gd169 2.545 . S
O218 C236 1.258 . S
O219 Gd168 2.362 . S
O219 Gd169 2.606 . S
O219 C235 1.284 . S
O220 Gd168 2.324 . S
O220 C243 1.254 . S
O221 Gd169 2.429 . S
O221 C243 1.268 . S
O222 Gd169 2.545 . S
O222 C235 1.250 . S
O223 Gd169 2.412 . S
O223 C236 1.252 . S
C224 O213 1.284 . S
C224 O216 1.250 . S
C225 H194 0.929 . S
C225 C210 1.437 . S
C225 C226 1.317 . S
C226 H197 0.930 . S
C226 C202 1.431 . S
C226 C225 1.317 . S
C227 Gd168 2.828 . S
C227 O212 1.258 . S
C227 O217 1.252 . S
C227 C228 1.497 . S
C228 C227 1.497 . S
C228 C229 1.395 . S
C228 C230 1.380 . S
C229 C228 1.395 . S
C229 C232 1.398 . S
C229 H244 0.930 . S
C230 C228 1.380 . S
C230 C231 1.391 . S
C230 H245 0.930 . S
C231 C230 1.391 . S
C231 C233 1.387 . S
C232 C229 1.398 . S
C232 C233 1.380 . S
C232 H246 0.930 . S
C233 C231 1.387 . S
C233 C232 1.380 . S
C233 H247 0.930 . S
C234 O214 1.254 . S
C234 O215 1.268 . S
C235 O219 1.284 . S
C235 O222 1.250 . S
C236 Gd169 2.828 . S
C236 O218 1.258 . S
C236 O223 1.252 . S
C236 C237 1.497 . S
C237 C236 1.497 . S
C237 C238 1.395 . S
C237 C239 1.380 . S
C238 C237 1.395 . S
C238 C241 1.398 . S
C238 H248 0.930 . S
C239 C237 1.380 . S
C239 C240 1.391 . S
C239 H249 0.930 . S
C240 C239 1.391 . S
C240 C242 1.387 . S
C241 C238 1.398 . S
C241 C242 1.380 . S
C241 H250 0.930 . S
C242 C240 1.387 . S
C242 C241 1.380 . S
C242 H251 0.930 . S
C243 O220 1.254 . S
C243 O221 1.268 . S
H244 C229 0.930 . S
H245 C230 0.930 . S
H246 C232 0.930 . S
H247 C233 0.930 . S
H248 C238 0.930 . S
H249 C239 0.930 . S
H250 C241 0.930 . S
H251 C242 0.930 . S
Gd252 N283 2.661 1_556 S
Gd252 N289 2.601 . S
Gd252 O296 2.545 . S
Gd252 O297 2.606 . S
Gd252 O299 2.429 . S
Gd252 O300 2.545 . S
Gd252 O301 2.412 . S
Gd252 O303 2.362 1_556 S
Gd252 O304 2.324 1_556 S
Gd252 C311 2.828 . S
Gd253 N262 2.661 . S
Gd253 N266 2.601 . S
Gd253 O297 2.362 1_554 S
Gd253 O298 2.324 . S
Gd253 O302 2.545 . S
Gd253 O303 2.606 . S
Gd253 O305 2.429 . S
Gd253 O306 2.545 . S
Gd253 O307 2.412 . S
Gd253 C320 2.828 . S
C254 C257 1.417 1_556 S
C254 C259 1.431 . S
C254 C260 1.412 . S
C255 C258 1.437 . S
C255 C259 1.317 1_554 S
C255 H274 0.929 . S
C256 C257 1.426 . S
C256 C258 1.413 . S
C256 N266 1.359 . S
C257 C254 1.417 1_554 S
C257 C256 1.426 . S
C257 N262 1.350 . S
C258 C255 1.437 . S
C258 C256 1.413 . S
C258 C268 1.391 . S
C259 C254 1.431 . S
C259 C255 1.317 1_556 S
C259 H270 0.930 . S
C260 C254 1.412 . S
C260 C261 1.355 . S
C260 H272 0.930 . S
C261 C260 1.355 . S
C261 C263 1.402 . S
C261 H273 0.930 . S
N262 Gd253 2.661 . S
N262 C257 1.350 . S
N262 C263 1.307 1_554 S
C263 C261 1.402 . S
C263 N262 1.307 1_556 S
C263 H264 0.930 . S
H264 C263 0.930 . S
C265 N266 1.334 . S
C265 C267 1.394 . S
C265 H269 0.930 . S
N266 Gd253 2.601 . S
N266 C256 1.359 . S
N266 C265 1.334 . S
C267 C265 1.394 . S
C267 C268 1.359 . S
C267 H279 0.930 . S
C268 C258 1.391 . S
C268 C267 1.359 . S
C268 H280 0.929 . S
H269 C265 0.930 . S
H270 C259 0.930 . S
H271 C288 0.930 . S
H272 C260 0.930 . S
H273 C261 0.930 . S
H274 C255 0.929 . S
H275 C293 0.930 . S
H276 C284 0.930 . S
H277 C285 0.930 . S
H278 C309 0.929 1_455 S
H279 C267 0.930 . S
H280 C268 0.929 . S
H281 C310 0.930 . S
H282 C291 0.930 1_455 S
N283 Gd252 2.661 1_554 S
N283 C287 1.350 . S
N283 C288 1.307 . S
C284 H276 0.930 . S
C284 C285 1.355 . S
C284 C286 1.412 . S
C285 H277 0.930 . S
C285 C284 1.355 . S
C285 C288 1.402 . S
C286 C284 1.412 . S
C286 C287 1.417 . S
C286 C310 1.431 . S
C287 N283 1.350 . S
C287 C286 1.417 . S
C287 C290 1.426 . S
C288 H271 0.930 . S
C288 N283 1.307 . S
C288 C285 1.402 . S
N289 Gd252 2.601 . S
N289 C290 1.359 1_556 S
N289 C293 1.334 . S
C290 C287 1.426 . S
C290 N289 1.359 1_554 S
C290 C294 1.413 . S
C291 H282 0.930 1_655 S
C291 C292 1.359 1_655 S
C291 C293 1.394 . S
C292 C291 1.359 1_455 S
C292 C294 1.391 1_456 S
C292 H295 0.929 . S
C293 H275 0.930 . S
C293 N289 1.334 . S
C293 C291 1.394 . S
C294 C290 1.413 . S
C294 C292 1.391 1_654 S
C294 C309 1.437 . S
H295 C292 0.929 . S
O296 Gd252 2.545 . S
O296 C311 1.258 . S
O297 Gd252 2.606 . S
O297 Gd253 2.362 1_556 S
O297 C308 1.284 . S
O298 Gd253 2.324 . S
O298 C318 1.254 . S
O299 Gd252 2.429 . S
O299 C318 1.268 1_556 S
O300 Gd252 2.545 . S
O300 C308 1.250 . S
O301 Gd252 2.412 . S
O301 C311 1.252 . S
O302 Gd253 2.545 . S
O302 C320 1.258 . S
O303 Gd252 2.362 1_554 S
O303 Gd253 2.606 . S
O303 C319 1.284 . S
O304 Gd252 2.324 1_554 S
O304 C327 1.254 . S
O305 Gd253 2.429 . S
O305 C327 1.268 . S
O306 Gd253 2.545 . S
O306 C319 1.250 . S
O307 Gd253 2.412 . S
O307 C320 1.252 . S
C308 O297 1.284 . S
C308 O300 1.250 . S
C309 H278 0.929 1_655 S
C309 C294 1.437 . S
C309 C310 1.317 . S
C310 H281 0.930 . S
C310 C286 1.431 . S
C310 C309 1.317 . S
C311 Gd252 2.828 . S
C311 O296 1.258 . S
C311 O301 1.252 . S
C311 C312 1.497 . S
C312 C311 1.497 . S
C312 C313 1.395 . S
C312 C314 1.380 . S
C313 C312 1.395 . S
C313 C316 1.398 . S
C313 H328 0.930 . S
C314 C312 1.380 . S
C314 C315 1.391 . S
C314 H329 0.930 . S
C315 C314 1.391 . S
C315 C317 1.387 . S
C316 C313 1.398 . S
C316 C317 1.380 . S
C316 H330 0.930 . S
C317 C315 1.387 . S
C317 C316 1.380 . S
C317 H331 0.930 . S
C318 O298 1.254 . S
C318 O299 1.268 1_554 S
C319 O303 1.284 . S
C319 O306 1.250 . S
C320 Gd253 2.828 . S
C320 O302 1.258 . S
C320 O307 1.252 . S
C320 C321 1.497 . S
C321 C320 1.497 . S
C321 C322 1.395 . S
C321 C323 1.380 . S
C322 C321 1.395 . S
C322 C325 1.398 . S
C322 H332 0.930 . S
C323 C321 1.380 . S
C323 C324 1.391 . S
C323 H333 0.930 . S
C324 C323 1.391 . S
C324 C326 1.387 . S
C325 C322 1.398 . S
C325 C326 1.380 . S
C325 H334 0.930 . S
C326 C324 1.387 . S
C326 C325 1.380 . S
C326 H335 0.930 . S
C327 O304 1.254 . S
C327 O305 1.268 . S
H328 C313 0.930 . S
H329 C314 0.930 . S
H330 C316 0.930 . S
H331 C317 0.930 . S
H332 C322 0.930 . S
H333 C323 0.930 . S
H334 C325 0.930 . S
H335 C326 0.930 . S
Gd336 N367 2.661 . S
Gd336 N373 2.601 . S
Gd336 O380 2.545 . S
Gd336 O381 2.606 . S
Gd336 O383 2.429 . S
Gd336 O384 2.545 . S
Gd336 O385 2.412 . S
Gd336 O387 2.362 . S
Gd336 O388 2.324 . S
Gd336 C395 2.828 . S
Gd337 N346 2.661 . S
Gd337 N350 2.601 . S
Gd337 O381 2.362 . S
Gd337 O382 2.324 . S
Gd337 O386 2.545 . S
Gd337 O387 2.606 . S
Gd337 O389 2.429 . S
Gd337 O390 2.545 . S
Gd337 O391 2.412 . S
Gd337 C404 2.828 . S
C338 C341 1.417 . S
C338 C343 1.431 . S
C338 C344 1.412 . S
C339 C342 1.437 . S
C339 C343 1.317 . S
C339 H358 0.929 . S
C340 C341 1.426 . S
C340 C342 1.413 . S
C340 N350 1.359 . S
C341 C338 1.417 . S
C341 C340 1.426 . S
C341 N346 1.350 . S
C342 C339 1.437 . S
C342 C340 1.413 . S
C342 C352 1.391 . S
C343 C338 1.431 . S
C343 C339 1.317 . S
C343 H354 0.930 . S
C344 C338 1.412 . S
C344 C345 1.355 . S
C344 H356 0.930 . S
C345 C344 1.355 . S
C345 C347 1.402 . S
C345 H357 0.930 . S
N346 Gd337 2.661 . S
N346 C341 1.350 . S
N346 C347 1.307 . S
C347 C345 1.402 . S
C347 N346 1.307 . S
C347 H348 0.930 . S
H348 C347 0.930 . S
C349 N350 1.334 . S
C349 C351 1.394 . S
C349 H353 0.930 . S
N350 Gd337 2.601 . S
N350 C340 1.359 . S
N350 C349 1.334 . S
C351 C349 1.394 . S
C351 C352 1.359 . S
C351 H363 0.930 . S
C352 C342 1.391 . S
C352 C351 1.359 . S
C352 H364 0.929 . S
H353 C349 0.930 . S
H354 C343 0.930 . S
H355 C372 0.930 . S
H356 C344 0.930 . S
H357 C345 0.930 . S
H358 C339 0.929 . S
H359 C377 0.930 . S
H360 C368 0.930 . S
H361 C369 0.930 . S
H362 C393 0.929 1_545 S
H363 C351 0.930 . S
H364 C352 0.929 . S
H365 C394 0.930 . S
H366 C375 0.930 1_545 S
N367 Gd336 2.661 . S
N367 C371 1.350 . S
N367 C372 1.307 . S
C368 H360 0.930 . S
C368 C369 1.355 . S
C368 C370 1.412 . S
C369 H361 0.930 . S
C369 C368 1.355 . S
C369 C372 1.402 . S
C370 C368 1.412 . S
C370 C371 1.417 . S
C370 C394 1.431 . S
C371 N367 1.350 . S
C371 C370 1.417 . S
C371 C374 1.426 . S
C372 H355 0.930 . S
C372 N367 1.307 . S
C372 C369 1.402 . S
N373 Gd336 2.601 . S
N373 C374 1.359 . S
N373 C377 1.334 . S
C374 C371 1.426 . S
C374 N373 1.359 . S
C374 C378 1.413 . S
C375 H366 0.930 1_565 S
C375 C376 1.359 1_565 S
C375 C377 1.394 . S
C376 C375 1.359 1_545 S
C376 C378 1.391 1_545 S
C376 H379 0.929 . S
C377 H359 0.930 . S
C377 N373 1.334 . S
C377 C375 1.394 . S
C378 C374 1.413 . S
C378 C376 1.391 1_565 S
C378 C393 1.437 . S
H379 C376 0.929 . S
O380 Gd336 2.545 . S
O380 C395 1.258 . S
O381 Gd336 2.606 . S
O381 Gd337 2.362 . S
O381 C392 1.284 . S
O382 Gd337 2.324 . S
O382 C402 1.254 . S
O383 Gd336 2.429 . S
O383 C402 1.268 . S
O384 Gd336 2.545 . S
O384 C392 1.250 . S
O385 Gd336 2.412 . S
O385 C395 1.252 . S
O386 Gd337 2.545 . S
O386 C404 1.258 . S
O387 Gd336 2.362 . S
O387 Gd337 2.606 . S
O387 C403 1.284 . S
O388 Gd336 2.324 . S
O388 C411 1.254 . S
O389 Gd337 2.429 . S
O389 C411 1.268 . S
O390 Gd337 2.545 . S
O390 C403 1.250 . S
O391 Gd337 2.412 . S
O391 C404 1.252 . S
C392 O381 1.284 . S
C392 O384 1.250 . S
C393 H362 0.929 1_565 S
C393 C378 1.437 . S
C393 C394 1.317 . S
C394 H365 0.930 . S
C394 C370 1.431 . S
C394 C393 1.317 . S
C395 Gd336 2.828 . S
C395 O380 1.258 . S
C395 O385 1.252 . S
C395 C396 1.497 . S
C396 C395 1.497 . S
C396 C397 1.395 . S
C396 C398 1.380 . S
C397 C396 1.395 . S
C397 C400 1.398 . S
C397 H412 0.930 . S
C398 C396 1.380 . S
C398 C399 1.391 . S
C398 H413 0.930 . S
C399 C398 1.391 . S
C399 C401 1.387 . S
C400 C397 1.398 . S
C400 C401 1.380 . S
C400 H414 0.930 . S
C401 C399 1.387 . S
C401 C400 1.380 . S
C401 H415 0.930 . S
C402 O382 1.254 . S
C402 O383 1.268 . S
C403 O387 1.284 . S
C403 O390 1.250 . S
C404 Gd337 2.828 . S
C404 O386 1.258 . S
C404 O391 1.252 . S
C404 C405 1.497 . S
C405 C404 1.497 . S
C405 C406 1.395 . S
C405 C407 1.380 . S
C406 C405 1.395 . S
C406 C409 1.398 . S
C406 H416 0.930 . S
C407 C405 1.380 . S
C407 C408 1.391 . S
C407 H417 0.930 . S
C408 C407 1.391 . S
C408 C410 1.387 . S
C409 C406 1.398 . S
C409 C410 1.380 . S
C409 H418 0.930 . S
C410 C408 1.387 . S
C410 C409 1.380 . S
C410 H419 0.930 . S
C411 O388 1.254 . S
C411 O389 1.268 . S
H412 C397 0.930 . S
H413 C398 0.930 . S
H414 C400 0.930 . S
H415 C401 0.930 . S
H416 C406 0.930 . S
H417 C407 0.930 . S
H418 C409 0.930 . S
H419 C410 0.930 . S
Gd420 N451 2.661 . S
Gd420 N457 2.601 . S
Gd420 O464 2.545 . S
Gd420 O465 2.606 . S
Gd420 O467 2.429 . S
Gd420 O468 2.545 . S
Gd420 O469 2.412 . S
Gd420 O471 2.362 . S
Gd420 O472 2.324 . S
Gd420 C479 2.828 . S
Gd421 N430 2.661 . S
Gd421 N434 2.601 . S
Gd421 O465 2.362 . S
Gd421 O466 2.324 . S
Gd421 O470 2.545 . S
Gd421 O471 2.606 . S
Gd421 O473 2.429 . S
Gd421 O474 2.545 . S
Gd421 O475 2.412 . S
Gd421 C488 2.828 . S
C422 C425 1.417 . S
C422 C427 1.431 . S
C422 C428 1.412 . S
C423 C426 1.437 . S
C423 C427 1.317 . S
C423 H442 0.929 . S
C424 C425 1.426 . S
C424 C426 1.413 . S
C424 N434 1.359 . S
C425 C422 1.417 . S
C425 C424 1.426 . S
C425 N430 1.350 . S
C426 C423 1.437 . S
C426 C424 1.413 . S
C426 C436 1.391 . S
C427 C422 1.431 . S
C427 C423 1.317 . S
C427 H438 0.930 . S
C428 C422 1.412 . S
C428 C429 1.355 . S
C428 H440 0.930 . S
C429 C428 1.355 . S
C429 C431 1.402 . S
C429 H441 0.930 . S
N430 Gd421 2.661 . S
N430 C425 1.350 . S
N430 C431 1.307 . S
C431 C429 1.402 . S
C431 N430 1.307 . S
C431 H432 0.930 . S
H432 C431 0.930 . S
C433 N434 1.334 . S
C433 C435 1.394 . S
C433 H437 0.930 . S
N434 Gd421 2.601 . S
N434 C424 1.359 . S
N434 C433 1.334 . S
C435 C433 1.394 . S
C435 C436 1.359 . S
C435 H447 0.930 . S
C436 C426 1.391 . S
C436 C435 1.359 . S
C436 H448 0.929 . S
H437 C433 0.930 . S
H438 C427 0.930 . S
H439 C456 0.930 . S
H440 C428 0.930 . S
H441 C429 0.930 . S
H442 C423 0.929 . S
H443 C461 0.930 . S
H444 C452 0.930 . S
H445 C453 0.930 . S
H446 C477 0.929 . S
H447 C435 0.930 . S
H448 C436 0.929 . S
H449 C478 0.930 . S
H450 C459 0.930 . S
N451 Gd420 2.661 . S
N451 C455 1.350 . S
N451 C456 1.307 . S
C452 H444 0.930 . S
C452 C453 1.355 . S
C452 C454 1.412 . S
C453 H445 0.930 . S
C453 C452 1.355 . S
C453 C456 1.402 . S
C454 C452 1.412 . S
C454 C455 1.417 . S
C454 C478 1.431 . S
C455 N451 1.350 . S
C455 C454 1.417 . S
C455 C458 1.426 . S
C456 H439 0.930 . S
C456 N451 1.307 . S
C456 C453 1.402 . S
N457 Gd420 2.601 . S
N457 C458 1.359 . S
N457 C461 1.334 . S
C458 C455 1.426 . S
C458 N457 1.359 . S
C458 C462 1.413 . S
C459 H450 0.930 . S
C459 C460 1.359 . S
C459 C461 1.394 . S
C460 C459 1.359 . S
C460 C462 1.391 . S
C460 H463 0.929 . S
C461 H443 0.930 . S
C461 N457 1.334 . S
C461 C459 1.394 . S
C462 C458 1.413 . S
C462 C460 1.391 . S
C462 C477 1.437 . S
H463 C460 0.929 . S
O464 Gd420 2.545 . S
O464 C479 1.258 . S
O465 Gd420 2.606 . S
O465 Gd421 2.362 . S
O465 C476 1.284 . S
O466 Gd421 2.324 . S
O466 C486 1.254 . S
O467 Gd420 2.429 . S
O467 C486 1.268 . S
O468 Gd420 2.545 . S
O468 C476 1.250 . S
O469 Gd420 2.412 . S
O469 C479 1.252 . S
O470 Gd421 2.545 . S
O470 C488 1.258 . S
O471 Gd420 2.362 . S
O471 Gd421 2.606 . S
O471 C487 1.284 . S
O472 Gd420 2.324 . S
O472 C495 1.254 . S
O473 Gd421 2.429 . S
O473 C495 1.268 . S
O474 Gd421 2.545 . S
O474 C487 1.250 . S
O475 Gd421 2.412 . S
O475 C488 1.252 . S
C476 O465 1.284 . S
C476 O468 1.250 . S
C477 H446 0.929 . S
C477 C462 1.437 . S
C477 C478 1.317 . S
C478 H449 0.930 . S
C478 C454 1.431 . S
C478 C477 1.317 . S
C479 Gd420 2.828 . S
C479 O464 1.258 . S
C479 O469 1.252 . S
C479 C480 1.497 . S
C480 C479 1.497 . S
C480 C481 1.395 . S
C480 C482 1.380 . S
C481 C480 1.395 . S
C481 C484 1.398 . S
C481 H496 0.930 . S
C482 C480 1.380 . S
C482 C483 1.391 . S
C482 H497 0.930 . S
C483 C482 1.391 . S
C483 C485 1.387 . S
C484 C481 1.398 . S
C484 C485 1.380 . S
C484 H498 0.930 . S
C485 C483 1.387 . S
C485 C484 1.380 . S
C485 H499 0.930 . S
C486 O466 1.254 . S
C486 O467 1.268 . S
C487 O471 1.284 . S
C487 O474 1.250 . S
C488 Gd421 2.828 . S
C488 O470 1.258 . S
C488 O475 1.252 . S
C488 C489 1.497 . S
C489 C488 1.497 . S
C489 C490 1.395 . S
C489 C491 1.380 . S
C490 C489 1.395 . S
C490 C493 1.398 . S
C490 H500 0.930 . S
C491 C489 1.380 . S
C491 C492 1.391 . S
C491 H501 0.930 . S
C492 C491 1.391 . S
C492 C494 1.387 . S
C493 C490 1.398 . S
C493 C494 1.380 . S
C493 H502 0.930 . S
C494 C492 1.387 . S
C494 C493 1.380 . S
C494 H503 0.930 . S
C495 O472 1.254 . S
C495 O473 1.268 . S
H496 C481 0.930 . S
H497 C482 0.930 . S
H498 C484 0.930 . S
H499 C485 0.930 . S
H500 C490 0.930 . S
H501 C491 0.930 . S
H502 C493 0.930 . S
H503 C494 0.930 . S
H504 C512 0.950 . S
H505 C517 0.950 . S
H506 C514 0.950 . S
H507 C516 0.950 . S
H508 C518 0.950 . S
H509 C520 0.950 . S
H510 C522 0.950 . S
H511 C523 0.950 . S
C512 H504 0.950 . S
C512 C513 1.386 . S
C512 C514 1.391 . S
C513 C512 1.386 . S
C513 C517 1.393 . S
C514 H506 0.950 . S
C514 C512 1.391 . S
C514 C515 1.400 . S
C515 C514 1.400 . S
C515 C516 1.398 . S
C515 C521 1.491 . S
C516 H507 0.950 . S
C516 C515 1.398 . S
C516 C517 1.391 . S
C517 H505 0.950 . S
C517 C513 1.393 . S
C517 C516 1.391 . S
C518 H508 0.950 . S
C518 C519 1.386 . S
C518 C520 1.391 . S
C519 C518 1.386 . S
C519 C523 1.393 . S
C520 H509 0.950 . S
C520 C518 1.391 . S
C520 C521 1.400 . S
C521 C515 1.491 . S
C521 C520 1.400 . S
C521 C522 1.398 . S
C522 H510 0.950 . S
C522 C521 1.398 . S
C522 C523 1.391 . S
C523 H511 0.950 . S
C523 C519 1.393 . S
C523 C522 1.391 . S
H524 C532 0.950 . S
H525 C537 0.950 . S
H526 C534 0.950 . S
H527 C536 0.950 . S
H528 C538 0.950 . S
H529 C540 0.950 . S
H530 C542 0.950 . S
H531 C543 0.950 . S
C532 H524 0.950 . S
C532 C533 1.386 . S
C532 C534 1.391 . S
C533 C532 1.386 . S
C533 C537 1.393 . S
C534 H526 0.950 . S
C534 C532 1.391 . S
C534 C535 1.400 . S
C535 C534 1.400 . S
C535 C536 1.398 . S
C535 C541 1.491 . S
C536 H527 0.950 . S
C536 C535 1.398 . S
C536 C537 1.391 . S
C537 H525 0.950 . S
C537 C533 1.393 . S
C537 C536 1.391 . S
C538 H528 0.950 . S
C538 C539 1.386 . S
C538 C540 1.391 . S
C539 C538 1.386 . S
C539 C543 1.393 . S
C540 H529 0.950 . S
C540 C538 1.391 . S
C540 C541 1.400 . S
C541 C535 1.491 . S
C541 C540 1.400 . S
C541 C542 1.398 . S
C542 H530 0.950 . S
C542 C541 1.398 . S
C542 C543 1.391 . S
C543 H531 0.950 . S
C543 C539 1.393 . S
C543 C542 1.391 . S
H544 C552 0.950 . S
H545 C557 0.950 . S
H546 C554 0.950 . S
H547 C556 0.950 . S
H548 C558 0.950 . S
H549 C560 0.950 . S
H550 C562 0.950 . S
H551 C563 0.950 . S
C552 H544 0.950 . S
C552 C553 1.386 . S
C552 C554 1.391 . S
C553 C552 1.386 . S
C553 C557 1.393 . S
C554 H546 0.950 . S
C554 C552 1.391 . S
C554 C555 1.400 . S
C555 C554 1.400 . S
C555 C556 1.398 . S
C555 C561 1.491 . S
C556 H547 0.950 . S
C556 C555 1.398 . S
C556 C557 1.391 . S
C557 H545 0.950 . S
C557 C553 1.393 . S
C557 C556 1.391 . S
C558 H548 0.950 . S
C558 C559 1.386 . S
C558 C560 1.391 . S
C559 C558 1.386 . S
C559 C563 1.393 . S
C560 H549 0.950 . S
C560 C558 1.391 . S
C560 C561 1.400 . S
C561 C555 1.491 . S
C561 C560 1.400 . S
C561 C562 1.398 . S
C562 H550 0.950 . S
C562 C561 1.398 . S
C562 C563 1.391 . S
C563 H551 0.950 . S
C563 C559 1.393 . S
C563 C562 1.391 . S
H564 C572 0.950 . S
H565 C577 0.950 . S
H566 C574 0.950 . S
H567 C576 0.950 . S
H568 C578 0.950 . S
H569 C580 0.950 . S
H570 C582 0.950 . S
H571 C583 0.950 . S
C572 H564 0.950 . S
C572 C573 1.386 . S
C572 C574 1.391 . S
C573 C572 1.386 . S
C573 C577 1.393 . S
C574 H566 0.950 . S
C574 C572 1.391 . S
C574 C575 1.400 . S
C575 C574 1.400 . S
C575 C576 1.398 . S
C575 C581 1.491 . S
C576 H567 0.950 . S
C576 C575 1.398 . S
C576 C577 1.391 . S
C577 H565 0.950 . S
C577 C573 1.393 . S
C577 C576 1.391 . S
C578 H568 0.950 . S
C578 C579 1.386 . S
C578 C580 1.391 . S
C579 C578 1.386 . S
C579 C583 1.393 . S
C580 H569 0.950 . S
C580 C578 1.391 . S
C580 C581 1.400 . S
C581 C575 1.491 . S
C581 C580 1.400 . S
C581 C582 1.398 . S
C582 H570 0.950 . S
C582 C581 1.398 . S
C582 C583 1.391 . S
C583 H571 0.950 . S
C583 C579 1.393 . S
C583 C582 1.391 . S
H584 C592 0.950 . S
H585 C597 0.950 . S
H586 C594 0.950 . S
H587 C596 0.950 . S
H588 C598 0.950 . S
H589 C600 0.950 . S
H590 C602 0.950 . S
H591 C603 0.950 . S
C592 H584 0.950 . S
C592 C593 1.386 . S
C592 C594 1.391 . S
C593 C592 1.386 . S
C593 C597 1.393 . S
C594 H586 0.950 . S
C594 C592 1.391 . S
C594 C595 1.400 . S
C595 C594 1.400 . S
C595 C596 1.398 . S
C595 C601 1.491 . S
C596 H587 0.950 . S
C596 C595 1.398 . S
C596 C597 1.391 . S
C597 H585 0.950 . S
C597 C593 1.393 . S
C597 C596 1.391 . S
C598 H588 0.950 . S
C598 C599 1.386 . S
C598 C600 1.391 . S
C599 C598 1.386 . S
C599 C603 1.393 . S
C600 H589 0.950 . S
C600 C598 1.391 . S
C600 C601 1.400 . S
C601 C595 1.491 . S
C601 C600 1.400 . S
C601 C602 1.398 . S
C602 H590 0.950 . S
C602 C601 1.398 . S
C602 C603 1.391 . S
C603 H591 0.950 . S
C603 C599 1.393 . S
C603 C602 1.391 . S
H604 C612 0.950 . S
H605 C617 0.950 . S
H606 C614 0.950 . S
H607 C616 0.950 . S
H608 C618 0.950 . S
H609 C620 0.950 . S
H610 C622 0.950 . S
H611 C623 0.950 . S
C612 H604 0.950 . S
C612 C613 1.386 . S
C612 C614 1.391 . S
C613 C612 1.386 . S
C613 C617 1.393 . S
C614 H606 0.950 . S
C614 C612 1.391 . S
C614 C615 1.400 . S
C615 C614 1.400 . S
C615 C616 1.398 . S
C615 C621 1.491 . S
C616 H607 0.950 . S
C616 C615 1.398 . S
C616 C617 1.391 . S
C617 H605 0.950 . S
C617 C613 1.393 . S
C617 C616 1.391 . S
C618 H608 0.950 . S
C618 C619 1.386 . S
C618 C620 1.391 . S
C619 C618 1.386 . S
C619 C623 1.393 . S
C620 H609 0.950 . S
C620 C618 1.391 . S
C620 C621 1.400 . S
C621 C615 1.491 . S
C621 C620 1.400 . S
C621 C622 1.398 . S
C622 H610 0.950 . S
C622 C621 1.398 . S
C622 C623 1.391 . S
C623 H611 0.950 . S
C623 C619 1.393 . S
C623 C622 1.391 . S
H624 C632 0.950 . S
H625 C637 0.950 . S
H626 C634 0.950 . S
H627 C636 0.950 . S
H628 C638 0.950 . S
H629 C640 0.950 . S
H630 C642 0.950 . S
H631 C643 0.950 . S
C632 H624 0.950 . S
C632 C633 1.386 . S
C632 C634 1.391 . S
C633 C632 1.386 . S
C633 C637 1.393 1_554 S
C634 H626 0.950 . S
C634 C632 1.391 . S
C634 C635 1.400 . S
C635 C634 1.400 . S
C635 C636 1.398 1_554 S
C635 C641 1.491 . S
C636 H627 0.950 . S
C636 C635 1.398 1_556 S
C636 C637 1.391 . S
C637 H625 0.950 . S
C637 C633 1.393 1_556 S
C637 C636 1.391 . S
C638 H628 0.950 . S
C638 C639 1.386 1_556 S
C638 C640 1.391 . S
C639 C638 1.386 1_554 S
C639 C643 1.393 . S
C640 H629 0.950 . S
C640 C638 1.391 . S
C640 C641 1.400 1_556 S
C641 C635 1.491 . S
C641 C640 1.400 1_554 S
C641 C642 1.398 . S
C642 H630 0.950 . S
C642 C641 1.398 . S
C642 C643 1.391 . S
C643 H631 0.950 . S
C643 C639 1.393 . S
C643 C642 1.391 . S
H644 C652 0.950 . S
H645 C657 0.950 . S
H646 C654 0.950 . S
H647 C656 0.950 . S
H648 C658 0.950 . S
H649 C660 0.950 . S
H650 C662 0.950 . S
H651 C663 0.950 . S
C652 H644 0.950 . S
C652 C653 1.386 . S
C652 C654 1.391 . S
C653 C652 1.386 . S
C653 C657 1.393 . S
C654 H646 0.950 . S
C654 C652 1.391 . S
C654 C655 1.400 . S
C655 C654 1.400 . S
C655 C656 1.398 . S
C655 C661 1.491 1_455 S
C656 H647 0.950 . S
C656 C655 1.398 . S
C656 C657 1.391 . S
C657 H645 0.950 . S
C657 C653 1.393 . S
C657 C656 1.391 . S
C658 H648 0.950 . S
C658 C659 1.386 . S
C658 C660 1.391 . S
C659 C658 1.386 . S
C659 C663 1.393 . S
C660 H649 0.950 . S
C660 C658 1.391 . S
C660 C661 1.400 . S
C661 C655 1.491 1_655 S
C661 C660 1.400 . S
C661 C662 1.398 . S
C662 H650 0.950 . S
C662 C661 1.398 . S
C662 C663 1.391 . S
C663 H651 0.950 . S
C663 C659 1.393 . S
C663 C662 1.391 . S
H664 C672 0.950 . S
H665 C677 0.950 . S
H666 C674 0.950 . S
H667 C676 0.950 1_565 S
H668 C678 0.950 . S
H669 C680 0.950 . S
H670 C682 0.950 1_545 S
H671 C683 0.950 . S
C672 H664 0.950 . S
C672 C673 1.386 . S
C672 C674 1.391 . S
C673 C672 1.386 . S
C673 C677 1.393 . S
C674 H666 0.950 . S
C674 C672 1.391 . S
C674 C675 1.400 . S
C675 C674 1.400 . S
C675 C676 1.398 . S
C675 C681 1.491 1_545 S
C676 H667 0.950 1_545 S
C676 C675 1.398 . S
C676 C677 1.391 . S
C677 H665 0.950 . S
C677 C673 1.393 . S
C677 C676 1.391 . S
C678 H668 0.950 . S
C678 C679 1.386 . S
C678 C680 1.391 . S
C679 C678 1.386 . S
C679 C683 1.393 . S
C680 H669 0.950 . S
C680 C678 1.391 . S
C680 C681 1.400 . S
C681 C675 1.491 1_565 S
C681 C680 1.400 . S
C681 C682 1.398 . S
C682 H670 0.950 1_565 S
C682 C681 1.398 . S
C682 C683 1.391 . S
C683 H671 0.950 . S
C683 C679 1.393 . S
C683 C682 1.391 . S
H684 C692 0.950 . S
H685 C697 0.950 . S
H686 C694 0.950 . S
H687 C696 0.950 . S
H688 C698 0.950 . S
H689 C700 0.950 . S
H690 C702 0.950 . S
H691 C703 0.950 . S
C692 H684 0.950 . S
C692 C693 1.386 . S
C692 C694 1.391 . S
C693 C692 1.386 . S
C693 C697 1.393 . S
C694 H686 0.950 . S
C694 C692 1.391 . S
C694 C695 1.400 . S
C695 C694 1.400 . S
C695 C696 1.398 . S
C695 C701 1.491 . S
C696 H687 0.950 . S
C696 C695 1.398 . S
C696 C697 1.391 . S
C697 H685 0.950 . S
C697 C693 1.393 . S
C697 C696 1.391 . S
C698 H688 0.950 . S
C698 C699 1.386 . S
C698 C700 1.391 . S
C699 C698 1.386 . S
C699 C703 1.393 . S
C700 H689 0.950 . S
C700 C698 1.391 . S
C700 C701 1.400 . S
C701 C695 1.491 . S
C701 C700 1.400 . S
C701 C702 1.398 . S
C702 H690 0.950 . S
C702 C701 1.398 . S
C702 C703 1.391 . S
C703 H691 0.950 . S
C703 C699 1.393 . S
C703 C702 1.391 . S
H704 C712 0.950 . S
H705 C717 0.950 . S
H706 C714 0.950 . S
H707 C716 0.938 1_655 S
H708 C718 0.950 . S
H709 C720 0.950 . S
H710 C722 0.938 1_455 S
H711 C723 0.950 . S
C712 H704 0.950 . S
C712 C713 1.386 1_556 S
C712 C714 1.391 . S
C713 C712 1.386 1_554 S
C713 C717 1.393 . S
C714 H706 0.950 . S
C714 C712 1.391 . S
C714 C715 1.400 1_556 S
C715 C714 1.400 1_554 S
C715 C716 1.398 . S
C715 C721 1.491 1_455 S
C716 H707 0.938 1_455 S
C716 C715 1.398 . S
C716 C717 1.391 . S
C717 H705 0.950 . S
C717 C713 1.393 . S
C717 C716 1.391 . S
C718 H708 0.950 . S
C718 C719 1.386 . S
C718 C720 1.391 . S
C719 C718 1.386 . S
C719 C723 1.393 1_554 S
C720 H709 0.950 . S
C720 C718 1.391 . S
C720 C721 1.400 . S
C721 C715 1.491 1_655 S
C721 C720 1.400 . S
C721 C722 1.398 1_554 S
C722 H710 0.938 1_655 S
C722 C721 1.398 1_556 S
C722 C723 1.391 . S
C723 H711 0.950 . S
C723 C719 1.393 1_556 S
C723 C722 1.391 . S
H724 C732 0.950 . S
H725 C737 0.950 . S
H726 C734 0.950 . S
H727 C736 0.950 . S
H728 C738 0.950 . S
H729 C740 0.950 . S
H730 C742 0.950 . S
H731 C743 0.950 . S
C732 H724 0.950 . S
C732 C733 1.386 . S
C732 C734 1.391 1_565 S
C733 C732 1.386 . S
C733 C737 1.393 . S
C734 H726 0.950 . S
C734 C732 1.391 1_545 S
C734 C735 1.400 1_545 S
C735 C734 1.400 1_565 S
C735 C736 1.398 . S
C735 C741 1.491 1_565 S
C736 H727 0.950 . S
C736 C735 1.398 . S
C736 C737 1.391 . S
C737 H725 0.950 . S
C737 C733 1.393 . S
C737 C736 1.391 . S
C738 H728 0.950 . S
C738 C739 1.386 . S
C738 C740 1.391 1_545 S
C739 C738 1.386 . S
C739 C743 1.393 . S
C740 H729 0.950 . S
C740 C738 1.391 1_565 S
C740 C741 1.400 1_565 S
C741 C735 1.491 1_545 S
C741 C740 1.400 1_545 S
C741 C742 1.398 . S
C742 H730 0.950 . S
C742 C741 1.398 . S
C742 C743 1.391 . S
C743 H731 0.950 . S
C743 C739 1.393 . S
C743 C742 1.391 . S
H744 C752 0.950 . S
H745 C757 0.950 . S
H746 C754 0.950 . S
H747 C756 0.950 . S
H748 C758 0.950 . S
H749 C760 0.950 . S
H750 C762 0.950 . S
H751 C763 0.950 . S
C752 H744 0.950 . S
C752 C753 1.386 . S
C752 C754 1.391 . S
C753 C752 1.386 . S
C753 C757 1.393 . S
C754 H746 0.950 . S
C754 C752 1.391 . S
C754 C755 1.400 . S
C755 C754 1.400 . S
C755 C756 1.398 . S
C755 C761 1.491 . S
C756 H747 0.950 . S
C756 C755 1.398 . S
C756 C757 1.391 . S
C757 H745 0.950 . S
C757 C753 1.393 . S
C757 C756 1.391 . S
C758 H748 0.950 . S
C758 C759 1.386 . S
C758 C760 1.391 . S
C759 C758 1.386 . S
C759 C763 1.393 . S
C760 H749 0.950 . S
C760 C758 1.391 . S
C760 C761 1.400 . S
C761 C755 1.491 . S
C761 C760 1.400 . S
C761 C762 1.398 . S
C762 H750 0.950 . S
C762 C761 1.398 . S
C762 C763 1.391 . S
C763 H751 0.950 . S
C763 C759 1.393 . S
C763 C762 1.391 . S
H764 C772 0.950 . S
H765 C777 0.950 . S
H766 C774 0.950 . S
H767 C776 0.953 . S
H768 C778 0.950 . S
H769 C780 0.950 . S
H770 C782 0.950 . S
H771 C783 0.950 . S
C772 H764 0.950 . S
C772 C773 1.386 1_455 S
C772 C774 1.391 . S
C773 C772 1.386 1_655 S
C773 C777 1.393 . S
C774 H766 0.950 . S
C774 C772 1.391 . S
C774 C775 1.400 . S
C775 C774 1.400 . S
C775 C776 1.398 . S
C775 C781 1.491 . S
C776 H767 0.953 . S
C776 C775 1.398 . S
C776 C777 1.391 1_455 S
C777 H765 0.950 . S
C777 C773 1.393 . S
C777 C776 1.391 1_655 S
C778 H768 0.950 . S
C778 C779 1.386 . S
C778 C780 1.391 . S
C779 C778 1.386 . S
C779 C783 1.393 . S
C780 H769 0.950 . S
C780 C778 1.391 . S
C780 C781 1.400 . S
C781 C775 1.491 . S
C781 C780 1.400 . S
C781 C782 1.398 . S
C782 H770 0.950 . S
C782 C781 1.398 . S
C782 C783 1.391 . S
C783 H771 0.950 . S
C783 C779 1.393 . S
C783 C782 1.391 . S
H784 C792 0.950 . S
H785 C797 0.950 . S
H786 C794 0.950 1_565 S
H787 C796 0.950 . S
H788 C798 0.950 . S
H789 C800 0.950 . S
H790 C802 0.950 . S
H791 C803 0.950 . S
C792 H784 0.950 . S
C792 C793 1.386 1_565 S
C792 C794 1.391 1_565 S
C793 C792 1.386 1_545 S
C793 C797 1.393 . S
C794 H786 0.950 1_545 S
C794 C792 1.391 1_545 S
C794 C795 1.400 . S
C795 C794 1.400 . S
C795 C796 1.398 . S
C795 C801 1.491 . S
C796 H787 0.950 . S
C796 C795 1.398 . S
C796 C797 1.391 . S
C797 H785 0.950 . S
C797 C793 1.393 . S
C797 C796 1.391 . S
C798 H788 0.950 . S
C798 C799 1.386 . S
C798 C800 1.391 . S
C799 C798 1.386 . S
C799 C803 1.393 . S
C800 H789 0.950 . S
C800 C798 1.391 . S
C800 C801 1.400 . S
C801 C795 1.491 . S
C801 C800 1.400 . S
C801 C802 1.398 . S
C802 H790 0.950 . S
C802 C801 1.398 . S
C802 C803 1.391 . S
C803 H791 0.950 . S
C803 C799 1.393 . S
C803 C802 1.391 . S
H804 C812 0.950 . S
H805 C817 0.950 . S
H806 C814 0.950 . S
H807 C816 0.950 . S
H808 C818 0.950 . S
H809 C820 0.950 . S
H810 C822 0.950 . S
H811 C823 0.950 . S
C812 H804 0.950 . S
C812 C813 1.386 . S
C812 C814 1.391 . S
C813 C812 1.386 . S
C813 C817 1.393 . S
C814 H806 0.950 . S
C814 C812 1.391 . S
C814 C815 1.400 . S
C815 C814 1.400 . S
C815 C816 1.398 . S
C815 C821 1.491 . S
C816 H807 0.950 . S
C816 C815 1.398 . S
C816 C817 1.391 . S
C817 H805 0.950 . S
C817 C813 1.393 . S
C817 C816 1.391 . S
C818 H808 0.950 . S
C818 C819 1.386 . S
C818 C820 1.391 . S
C819 C818 1.386 . S
C819 C823 1.393 . S
C820 H809 0.950 . S
C820 C818 1.391 . S
C820 C821 1.400 . S
C821 C815 1.491 . S
C821 C820 1.400 . S
C821 C822 1.398 . S
C822 H810 0.950 . S
C822 C821 1.398 . S
C822 C823 1.391 . S
C823 H811 0.950 . S
C823 C819 1.393 . S
C823 C822 1.391 . S
H824 C832 0.950 . S
H825 C837 0.950 1_455 S
H826 C834 0.950 . S
H827 C836 0.950 . S
H828 C838 0.950 . S
H829 C840 0.950 . S
H830 C842 0.950 . S
H831 C843 0.950 . S
C832 H824 0.950 . S
C832 C833 1.386 1_655 S
C832 C834 1.391 . S
C833 C832 1.386 1_455 S
C833 C837 1.393 1_455 S
C834 H826 0.950 . S
C834 C832 1.391 . S
C834 C835 1.400 . S
C835 C834 1.400 . S
C835 C836 1.398 . S
C835 C841 1.491 . S
C836 H827 0.950 . S
C836 C835 1.398 . S
C836 C837 1.391 . S
C837 H825 0.950 1_655 S
C837 C833 1.393 1_655 S
C837 C836 1.391 . S
C838 H828 0.950 . S
C838 C839 1.386 . S
C838 C840 1.391 . S
C839 C838 1.386 . S
C839 C843 1.393 . S
C840 H829 0.950 . S
C840 C838 1.391 . S
C840 C841 1.400 . S
C841 C835 1.491 . S
C841 C840 1.400 . S
C841 C842 1.398 . S
C842 H830 0.950 . S
C842 C841 1.398 . S
C842 C843 1.391 . S
C843 H831 0.950 . S
C843 C839 1.393 . S
C843 C842 1.391 . S
H844 C852 0.950 . S
H845 C857 0.950 . S
H846 C854 0.950 . S
H847 C856 0.950 1_545 S
H848 C858 0.950 . S
H849 C860 0.950 . S
H850 C862 0.950 . S
H851 C863 0.950 . S
C852 H844 0.950 . S
C852 C853 1.386 1_565 S
C852 C854 1.391 . S
C853 C852 1.386 1_545 S
C853 C857 1.393 . S
C854 H846 0.950 . S
C854 C852 1.391 . S
C854 C855 1.400 . S
C855 C854 1.400 . S
C855 C856 1.398 . S
C855 C861 1.491 . S
C856 H847 0.950 1_565 S
C856 C855 1.398 . S
C856 C857 1.391 1_565 S
C857 H845 0.950 . S
C857 C853 1.393 . S
C857 C856 1.391 1_545 S
C858 H848 0.950 . S
C858 C859 1.386 . S
C858 C860 1.391 . S
C859 C858 1.386 . S
C859 C863 1.393 . S
C860 H849 0.950 . S
C860 C858 1.391 . S
C860 C861 1.400 . S
C861 C855 1.491 . S
C861 C860 1.400 . S
C861 C862 1.398 . S
C862 H850 0.950 . S
C862 C861 1.398 . S
C862 C863 1.391 . S
C863 H851 0.950 . S
C863 C859 1.393 . S
C863 C862 1.391 . S
C513 C392 1.144 . S
C519 C72 0.987 . S
C533 C476 1.139 . S
C539 C156 0.984 . S
C553 C56 1.149 . S
C559 C240 0.991 . S
C573 C140 1.126 . S
C579 C324 1.027 . S
C593 C224 1.122 . S
C599 C408 1.014 . S
C613 C308 1.137 . S
C619 C492 0.984 . S
C633 C75 1.802 . S
C639 C327 1.813 . S
C653 C411 1.811 . S
C659 C159 1.808 . S
C673 C495 1.805 . S
C679 C243 1.812 . S
C693 C234 1.792 . S
C699 C486 1.807 . S
C713 C66 1.808 . S
C719 C318 1.811 . S
C733 C402 1.808 . S
C739 C150 1.793 . S
C753 C487 1.216 . S
C759 C63 1.207 . S
C773 C147 1.188 . S
C779 C67 1.199 . S
C793 C231 1.230 1_545 S
C799 C151 1.239 . S
C813 C235 1.199 . S
C819 C315 1.188 . S
C833 C399 1.195 . S
C839 C319 1.204 . S
C853 C483 1.189 . S
C859 C403 1.200 . S
