# Generated by pormake.
# Topology tfs, (6)-cn, num edge types: 1
# Building blocks:
#     Node 0, Type 0, BuildingBlock: PAMTOO_clean_sbu_0, # of connection points: 6
#     Node 1, Type 0, BuildingBlock: PAMTOO_clean_sbu_0, # of connection points: 6
#     Node 2, Type 0, BuildingBlock: PAMTOO_clean_sbu_0, # of connection points: 6
#     Node 3, Type 0, BuildingBlock: PAMTOO_clean_sbu_0, # of connection points: 6
#     Node 4, Type 0, BuildingBlock: PAMTOO_clean_sbu_0, # of connection points: 6
#     Node 5, Type 0, BuildingBlock: PAMTOO_clean_sbu_0, # of connection points: 6
#     Edge 6, Type (0, 0), BuildingBlock: XIVTED_clean_linker_0, # of connection points: 2
#     Edge 7, Type (0, 0), BuildingBlock: XIVTED_clean_linker_0, # of connection points: 2
#     Edge 8, Type (0, 0), BuildingBlock: XIVTED_clean_linker_0, # of connection points: 2
#     Edge 9, Type (0, 0), BuildingBlock: XIVTED_clean_linker_0, # of connection points: 2
#     Edge 10, Type (0, 0), BuildingBlock: XIVTED_clean_linker_0, # of connection points: 2
#     Edge 11, Type (0, 0), BuildingBlock: XIVTED_clean_linker_0, # of connection points: 2
#     Edge 12, Type (0, 0), BuildingBlock: XIVTED_clean_linker_0, # of connection points: 2
#     Edge 13, Type (0, 0), BuildingBlock: XIVTED_clean_linker_0, # of connection points: 2
#     Edge 14, Type (0, 0), BuildingBlock: XIVTED_clean_linker_0, # of connection points: 2
#     Edge 15, Type (0, 0), BuildingBlock: XIVTED_clean_linker_0, # of connection points: 2
#     Edge 16, Type (0, 0), BuildingBlock: XIVTED_clean_linker_0, # of connection points: 2
#     Edge 17, Type (0, 0), BuildingBlock: XIVTED_clean_linker_0, # of connection points: 2
#     Edge 18, Type (0, 0), BuildingBlock: XIVTED_clean_linker_0, # of connection points: 2
#     Edge 19, Type (0, 0), BuildingBlock: XIVTED_clean_linker_0, # of connection points: 2
#     Edge 20, Type (0, 0), BuildingBlock: XIVTED_clean_linker_0, # of connection points: 2
#     Edge 21, Type (0, 0), BuildingBlock: XIVTED_clean_linker_0, # of connection points: 2
#     Edge 22, Type (0, 0), BuildingBlock: XIVTED_clean_linker_0, # of connection points: 2
#     Edge 23, Type (0, 0), BuildingBlock: XIVTED_clean_linker_0, # of connection points: 2
# Relax obj value: 0.578
# Max RMSD: 0.443
# Mean RMSD: 0.335
data_MOF--net-tfs--node1-PAMTOO_clean_sbu_0--edge1-XIVTED_clean_linker_0
_symmetry_space_group_name_H-M    P1
_symmetry_Int_Tables_number       1
_symmetry_cell_setting            triclinic
loop_
_symmetry_equiv_pos_as_xyz
'x, y, z'
_cell_length_a     52.844833
_cell_length_b     46.243922
_cell_length_c     13.678714
_cell_angle_alpha  100.47767
_cell_angle_beta   97.555893
_cell_angle_gamma 122.93741
loop_
_atom_site_label
_atom_site_type_symbol
_atom_site_fract_x
_atom_site_fract_y
_atom_site_fract_z
_atom_type_partial_charge
Dy0 Dy 0.34391 0.52615 0.65444 0.0
Dy1 Dy 0.3469 0.46552 0.50712 0.0
C2 C 0.33965 0.52135 0.421 0.0
O3 O 0.29411 0.48231 0.56366 0.0
O4 O 0.29849 0.43495 0.53107 0.0
O5 O 0.32654 0.55728 0.70406 0.0
O6 O 0.35888 0.55567 0.81618 0.0
O7 O 0.36941 0.47516 0.67218 0.0
O8 O 0.33291 0.48086 0.71618 0.0
O9 O 0.38976 0.51791 0.50925 0.0
O10 O 0.39515 0.55261 0.66416 0.0
O11 O 0.37282 0.44494 0.45961 0.0
O12 O 0.32396 0.41721 0.37674 0.0
C13 C 0.28118 0.44735 0.53738 0.0
O14 O 0.35135 0.54455 0.51391 0.0
O15 O 0.32893 0.48736 0.40753 0.0
C16 C 0.3572 0.60621 0.85965 0.0
C17 C 0.37586 0.67518 -0.02941 0.0
C18 C 0.37503 0.66716 0.8654 0.0
C19 C 0.36584 0.63292 0.81036 0.0
C20 C 0.35986 0.6147 -0.03409 0.0
C21 C 0.36915 0.64898 0.02115 0.0
C22 C 0.34255 0.56858 0.80085 0.0
C23 C 0.35449 0.47584 0.74011 0.0
C24 C 0.40681 0.54754 0.58849 0.0
C25 C 0.34348 0.382 0.37854 0.0
C26 C 0.3384 0.31718 0.35331 0.0
C27 C 0.35104 0.34242 0.45223 0.0
C28 C 0.35352 0.37462 0.46481 0.0
C29 C 0.32984 0.35637 0.28066 0.0
C30 C 0.32733 0.32425 0.268 0.0
C31 C 0.34866 0.41694 0.38684 0.0
H32 H 0.37977 0.68662 0.82393 0.0
H33 H 0.36413 0.62686 0.72845 0.0
H34 H 0.35351 0.59435 0.00524 0.0
H35 H 0.37008 0.65459 0.10246 0.0
H36 H 0.35944 0.33756 0.51958 0.0
H37 H 0.36394 0.39404 0.5413 0.0
H38 H 0.32201 0.36171 0.2133 0.0
H39 H 0.31795 0.30572 0.19053 0.0
Dy40 Dy 0.80487 0.15145 0.25808 0.0
Dy41 Dy 0.88489 0.18985 0.32037 0.0
C42 C 0.83589 0.13228 0.09945 0.0
O43 O 0.81019 0.11551 0.33088 0.0
O44 O 0.86081 0.13255 0.33605 0.0
O45 O 0.76154 0.12831 0.14259 0.0
O46 O 0.76225 0.13412 0.3041 0.0
O47 O 0.87785 0.20788 0.46808 0.0
O48 O 0.8283 0.19186 0.41457 0.0
O49 O 0.87776 0.23337 0.3106 0.0
O50 O 0.82803 0.19878 0.19864 0.0
O51 O 0.92923 0.20629 0.41901 0.0
O52 O 0.92757 0.2191 0.2727 0.0
C53 C 0.83232 0.11035 0.3471 0.0
O54 O 0.81206 0.11907 0.13911 0.0
O55 O 0.86377 0.16202 0.15073 0.0
C56 C 0.7205 0.13012 0.19283 0.0
C57 C 0.66511 0.12735 0.14691 0.0
C58 C 0.68217 0.13063 0.07374 0.0
C59 C 0.70948 0.13195 0.09635 0.0
C60 C 0.70419 0.12831 0.26743 0.0
C61 C 0.67696 0.12712 0.24499 0.0
C62 C 0.74538 0.12406 0.20977 0.0
C63 C 0.85033 0.19527 0.48331 0.0
C64 C 0.85502 0.2302 0.24528 0.0
C65 C 0.97948 0.24117 0.37806 0.0
C66 C 1.04598 0.28386 0.41833 0.0
C67 C 1.03188 0.27903 0.50014 0.0
C68 C 0.99905 0.2578 0.48022 0.0
C69 C 0.99348 0.24556 0.29634 0.0
C70 C 1.02626 0.2664 0.31612 0.0
C71 C 0.94495 0.22244 0.35709 0.0
H72 H 0.67371 0.13054 -0.00291 0.0
H73 H 0.72115 0.13282 0.03639 0.0
H74 H 0.7118 0.12643 0.34206 0.0
H75 H 0.66487 0.12535 0.30414 0.0
H76 H 1.04623 0.29175 0.5798 0.0
H77 H 0.989 0.25531 0.54496 0.0
H78 H 0.97906 0.23335 0.21682 0.0
H79 H 1.03615 0.26975 0.25111 0.0
Dy80 Dy 0.6584 0.83691 0.57761 0.0
Dy81 Dy 0.6833 0.78616 0.48341 0.0
C82 C 0.70296 0.82562 0.7219 0.0
O83 O 0.70778 0.87445 0.57529 0.0
O84 O 0.71359 0.83991 0.44969 0.0
O85 O 0.67257 0.88755 0.67979 0.0
O86 O 0.62365 0.84746 0.59319 0.0
O87 O 0.64189 0.77624 0.37867 0.0
O88 O 0.65274 0.83147 0.40927 0.0
O89 O 0.63966 0.74866 0.53007 0.0
O90 O 0.61817 0.7807 0.55782 0.0
O91 O 0.69838 0.76729 0.36094 0.0
O92 O 0.68743 0.74253 0.4841 0.0
C93 C 0.72052 0.87164 0.5013 0.0
O94 O 0.6773 0.82441 0.70516 0.0
O95 O 0.71305 0.81707 0.64672 0.0
C96 C 0.63543 0.88599 0.75927 0.0
C97 C 0.62073 0.90358 0.94175 0.0
C98 C 0.61541 0.86967 0.90544 0.0
C99 C 0.62289 0.86099 0.81496 0.0
C100 C 0.64142 0.91996 0.79674 0.0
C101 C 0.63419 0.9287 0.88685 0.0
C102 C 0.64402 0.87846 0.66481 0.0
C103 C 0.64602 0.80234 0.3429 0.0
C104 C 0.61681 0.75108 0.54891 0.0
C105 C 0.71789 0.73168 0.38904 0.0
C106 C 0.74673 0.69548 0.35128 0.0
C107 C 0.73777 0.70708 0.27394 0.0
C108 C 0.72339 0.72482 0.29254 0.0
C109 C 0.7284 0.72185 0.46809 0.0
C110 C 0.74266 0.70405 0.44946 0.0
C111 C 0.69633 0.7425 0.39962 0.0
H112 H 0.60511 0.84978 0.94611 0.0
H113 H 0.61865 0.8348 0.78806 0.0
H114 H 0.6514 0.9397 0.75537 0.0
H115 H 0.63795 0.95471 0.91092 0.0
H116 H 0.74029 0.70072 0.19722 0.0
H117 H 0.71507 0.73149 0.2296 0.0
H118 H 0.72436 0.7264 0.5432 0.0
H119 H 0.74973 0.6961 0.51144 0.0
Dy120 Dy 0.79449 0.44933 0.13651 0.0
Dy121 Dy 0.86722 0.51452 0.16787 0.0
C122 C 0.83863 0.50968 0.3585 0.0
O123 O 0.79362 0.497 0.18686 0.0
O124 O 0.84103 0.54054 0.16449 0.0
O125 O 0.76399 0.39474 0.14361 0.0
O126 O 0.74441 0.4201 0.07823 0.0
O127 O 0.84284 0.47856 0.00719 0.0
O128 O 0.79637 0.4687 -0.00053 0.0
O129 O 0.86773 0.47033 0.21192 0.0
O130 O 0.82139 0.42729 0.09283 0.0
O131 O 0.89766 0.55159 0.09357 0.0
O132 O 0.9173 0.54539 0.23165 0.0
C133 C 0.81362 0.52984 0.18235 0.0
O134 O 0.81513 0.47562 0.308 0.0
O135 O 0.86064 0.53053 0.31872 0.0
C136 C 0.7254 0.36171 -0.01635 0.0
C137 C 0.69388 0.31251 0.7831 0.0
C138 C 0.68268 0.30269 0.86815 0.0
C139 C 0.69828 0.32727 -0.03218 0.0
C140 C 0.73813 0.37042 0.90051 0.0
C141 C 0.72227 0.34617 0.80065 0.0
C142 C 0.73969 0.38976 0.08388 0.0
C143 C 0.81961 0.47806 0.95929 0.0
C144 C 0.84729 0.43653 0.15529 0.0
C145 C 0.94248 0.60381 0.21253 0.0
C146 C 0.98121 0.6794 0.2983 0.0
C147 C 0.97403 0.66342 0.1916 0.0
C148 C 0.95492 0.62585 0.14918 0.0
C149 C 0.94799 0.61964 0.31763 0.0
C150 C 0.96733 0.65704 0.36022 0.0
C151 C 0.92271 0.56447 0.16725 0.0
H152 H 0.66052 0.27709 0.8565 0.0
H153 H 0.68836 0.32005 0.03125 0.0
H154 H 0.75947 0.39677 0.91188 0.0
H155 H 0.73123 0.35443 0.73652 0.0
H156 H 0.984 0.67987 0.14161 0.0
H157 H 0.9502 0.61397 0.06721 0.0
H158 H 0.93804 0.6032 0.36775 0.0
H159 H 0.97269 0.66818 0.44298 0.0
Dy160 Dy 0.36949 0.94406 0.02197 0.0
Dy161 Dy 0.29724 0.87642 0.00692 0.0
C162 C 0.32807 0.87826 0.82159 0.0
O163 O 0.33808 0.95567 0.93997 0.0
O164 O 0.28879 0.90182 0.89528 0.0
O165 O 0.40634 0.97544 0.95368 0.0
O166 O 0.41365 0.99228 0.11949 0.0
O167 O 0.31075 0.92729 0.11711 0.0
O168 O 0.36177 0.95047 0.17716 0.0
O169 O 0.32882 0.86555 0.09192 0.0
O170 O 0.37559 0.90289 0.05621 0.0
O171 O 0.25826 0.86034 0.07147 0.0
O172 O 0.25679 0.82062 0.95385 0.0
C173 C 0.30819 0.93418 0.88713 0.0
O174 O 0.35483 0.89648 0.89318 0.0
O175 O 0.30184 0.86574 0.84768 0.0
C176 C 0.45396 0.99291 0.06452 0.0
C177 C 0.49736 0.97726 0.11883 0.0
C178 C 0.47725 0.96128 0.01799 0.0
C179 C 0.45585 0.96918 -0.00925 0.0
C180 C 0.47509 1.01003 0.16423 0.0
C181 C 0.49692 1.00258 0.19088 0.0
C182 C 0.42692 0.99487 0.04448 0.0
C183 C 0.33638 0.94623 0.19331 0.0
C184 C 0.35733 0.87593 0.09008 0.0
C185 C 0.21232 0.82206 0.93375 0.0
C186 C 0.16749 0.82202 0.79724 0.0
C187 C 0.17708 0.83994 0.90355 0.0
C188 C 0.1992 0.83985 -0.02876 0.0
C189 C 0.20176 0.80296 0.82796 0.0
C190 C 0.17962 0.80298 0.76053 0.0
C191 C 0.24045 0.82886 0.00056 0.0
H192 H 0.47761 0.94201 0.96088 0.0
H193 H 0.43981 0.95526 0.91348 0.0
H194 H 0.47389 1.02812 0.22285 0.0
H195 H 0.51244 1.0153 0.26886 0.0
H196 H 0.16803 0.85471 0.93406 0.0
H197 H 0.20702 0.85501 0.05234 0.0
H198 H 0.21133 0.78898 0.79632 0.0
H199 H 0.17195 0.78794 0.67943 0.0
Dy200 Dy 0.44354 0.16179 0.03117 0.0
Dy201 Dy 0.39686 0.08195 0.06003 0.0
C202 C 0.39102 0.09571 0.8553 0.0
O203 O 0.42012 0.17283 0.13884 0.0
O204 O 0.3767 0.11379 0.09358 0.0
O205 O 0.4409 0.19024 0.92548 0.0
O206 O 0.48488 0.21344 0.03862 0.0
O207 O 0.42636 0.11812 0.21769 0.0
O208 O 0.46562 0.17222 0.19704 0.0
O209 O 0.44157 0.08706 0.06262 0.0
O210 O 0.46331 0.13111 -0.01824 0.0
O211 O 0.38395 1.03775 0.12303 0.0
O212 O 0.34858 1.03571 0.0149 0.0
C213 C 0.39152 0.1486 0.14006 0.0
O214 O 0.39556 0.12293 0.92286 0.0
O215 O 0.39539 0.0746 0.89387 0.0
C216 C 0.48609 0.2159 0.86806 0.0
C217 C 0.51243 0.21568 0.70126 0.0
C218 C 0.49495 0.2302 0.70778 0.0
C219 C 0.48168 0.23005 0.7902 0.0
C220 C 0.50298 0.20088 0.86055 0.0
C221 C 0.51612 0.20097 0.7789 0.0
C222 C 0.47124 0.21406 0.95286 0.0
C223 C 0.45316 0.15039 0.25341 0.0
C224 C 0.46344 0.10711 0.02028 0.0
C225 C 0.33465 1.01514 0.1563 0.0
C226 C 0.29718 1.00222 0.29438 0.0
C227 C 0.32966 1.02997 0.32867 0.0
C228 C 0.34814 1.03642 0.26046 0.0
C229 C 0.30214 0.9884 0.12052 0.0
C230 C 0.28354 0.98176 0.18913 0.0
C231 C 0.35398 1.02213 0.08364 0.0
H232 H 0.49141 0.24153 0.64917 0.0
H233 H 0.46799 0.24092 0.7931 0.0
H234 H 0.50634 0.18927 0.91858 0.0
H235 H 0.53008 0.19044 0.77907 0.0
H236 H 0.34124 0.04576 0.40953 0.0
H237 H 0.37309 0.05774 0.2898 0.0
H238 H 0.29123 0.97223 0.03984 0.0
H239 H 0.25867 0.96021 0.1603 0.0
H240 H 0.34138 0.14262 0.03304 0.0
H241 H 0.29347 0.24854 0.22296 0.0
H242 H 0.40435 0.18656 0.33791 0.0
H243 H 0.38476 0.3125 0.44578 0.0
H244 H 0.29851 0.19878 0.17811 0.0
H245 H 0.32153 0.17757 0.09191 0.0
C246 C 0.35007 0.15862 0.11364 0.0
C247 C 0.37442 0.16197 0.18108 0.0
C248 C 0.3175 0.22371 0.2365 0.0
C249 C 0.35189 0.20174 0.24999 0.0
C250 C 0.31457 0.2521 0.26256 0.0
C251 C 0.33899 0.28501 0.33677 0.0
C252 C 0.34517 0.22838 0.28459 0.0
C253 C 0.36534 0.28767 0.38801 0.0
C254 C 0.33875 0.17857 0.14759 0.0
C255 C 0.38576 0.18373 0.28383 0.0
N256 N 0.36785 0.25983 0.36017 0.0
N257 N 0.37466 0.20322 0.31508 0.0
H258 H 0.24132 0.37465 0.42867 0.0
H259 H 0.08912 0.34952 0.5681 0.0
H260 H 0.2422 0.46243 0.60732 0.0
H261 H 0.08303 0.27278 0.3158 0.0
H262 H 0.14614 0.38846 0.59845 0.0
H263 H 0.18418 0.33435 0.40027 0.0
C264 C 0.22956 0.38542 0.46225 0.0
C265 C 0.24664 0.42205 0.52008 0.0
C266 C 0.13232 0.3631 0.5364 0.0
C267 C 0.18131 0.37599 0.48895 0.0
C268 C 0.09972 0.34066 0.51946 0.0
C269 C 0.08101 0.30764 0.43916 0.0
C270 C 0.14662 0.35246 0.47345 0.0
C271 C 0.0963 0.29806 0.37793 0.0
C272 C 0.19694 0.36244 0.44571 0.0
C273 C 0.23006 0.43449 0.56146 0.0
N274 N 0.12811 0.32022 0.39654 0.0
N275 N 0.19847 0.41155 0.5456 0.0
H276 H 0.85446 0.06695 0.32233 0.0
H277 H 0.76677 0.8908 0.39442 0.0
H278 H 0.78666 0.07641 0.4404 0.0
H279 H 0.71868 0.92984 0.5383 0.0
H280 H 0.7987 0.94884 0.35671 0.0
H281 H 0.83051 1.00747 0.35321 0.0
C282 C 0.83486 0.05683 0.35551 0.0
C283 C 0.82252 0.07687 0.37753 0.0
C284 C 0.7814 0.94481 0.39752 0.0
C285 C 0.79441 1.00841 0.41116 0.0
C286 C 0.76304 0.9115 0.41869 0.0
C287 C 0.7405 0.90551 0.47252 0.0
C288 C 0.77676 0.97204 0.4292 0.0
C289 C 0.73631 0.93318 0.49976 0.0
C290 C 0.82086 1.02255 0.37199 0.0
C291 C 0.797 0.06216 0.42053 0.0
N292 N 0.75406 0.96474 0.47797 0.0
N293 N 0.78396 1.02922 0.43513 0.0
H294 H 0.84033 0.59642 0.1478 0.0
H295 H 0.73144 0.63627 0.41333 0.0
H296 H 0.76793 0.52259 0.27002 0.0
H297 H 0.78727 0.70107 0.23435 0.0
H298 H 0.74893 0.59765 0.37324 0.0
H299 H 0.82512 0.63804 0.18864 0.0
C300 C 0.82131 0.58895 0.18311 0.0
C301 C 0.80532 0.55583 0.20497 0.0
C302 C 0.75745 0.62032 0.34265 0.0
C303 C 0.78804 0.60329 0.25251 0.0
C304 C 0.74768 0.64268 0.36641 0.0
C305 C 0.75806 0.6723 0.32802 0.0
C306 C 0.77791 0.62741 0.27994 0.0
C307 C 0.77852 0.6785 0.26534 0.0
C308 C 0.8126 0.61265 0.20613 0.0
C309 C 0.78083 0.54759 0.25074 0.0
N310 N 0.78786 0.65632 0.24348 0.0
N311 N 0.77309 0.57111 0.27311 0.0
H312 H 0.11406 0.81362 0.82821 0.0
H313 H 1.03609 0.72032 0.2482 0.0
H314 H 0.16604 0.82801 0.6013 0.0
H315 H 0.9857 0.727 0.46538 0.0
H316 H 0.08425 0.77433 0.36566 0.0
H317 H 0.06918 0.79719 0.69529 0.0
C318 C 0.11635 0.81431 0.751 0.0
C319 C 0.14338 0.82088 0.72476 0.0
C320 C 0.06258 0.76468 0.38682 0.0
C321 C 0.09187 0.80131 0.57163 0.0
C322 C 1.03483 0.73381 0.31892 0.0
C323 C 1.00696 0.71814 0.34895 0.0
C324 C 0.06251 0.77931 0.48611 0.0
C325 C 1.00699 0.73723 0.4414 0.0
C326 C 0.09063 0.80484 0.67481 0.0
C327 C 0.1451 0.82163 0.62367 0.0
N328 N 1.03458 0.76617 0.50853 0.0
N329 N 0.11937 0.811 0.55004 0.0
H330 H 0.34185 0.99744 0.84155 0.0
H331 H 0.30025 0.04642 0.46713 0.0
H332 H 0.24964 0.89633 0.74712 0.0
H333 H 0.25272 0.9338 0.30035 0.0
H334 H 0.29161 1.03011 0.62571 0.0
H335 H 0.32521 1.01509 0.70513 0.0
C336 C 0.31766 0.97948 0.7949 0.0
C337 C 0.29685 0.94593 0.80898 0.0
C338 C 0.28255 1.0089 0.55377 0.0
C339 C 0.27776 0.9656 0.64839 0.0
C340 C 0.28735 1.01814 0.46325 0.0
C341 C 0.27949 0.99172 0.37242 0.0
C342 C 0.27018 0.9732 0.55284 0.0
C343 C 0.26106 0.95533 0.37038 0.0
C344 C 0.30812 0.98962 0.71647 0.0
C345 C 0.2663 0.92284 0.74067 0.0
N346 N 0.2581 0.94712 0.46061 0.0
N347 N 0.25786 0.93278 0.66153 0.0
H348 H 0.41129 0.88305 0.07185 0.0
H349 H 0.34377 0.68435 0.09991 0.0
H350 H 0.32687 0.81712 0.16102 0.0
H351 H 0.41758 0.74329 0.95951 0.0
H352 H 0.34572 0.73853 0.16395 0.0
H353 H 0.42213 0.83823 0.07354 0.0
C354 C 0.3953 0.85951 0.09375 0.0
C355 C 0.36766 0.8534 0.11376 0.0
C356 C 0.36182 0.73975 0.12049 0.0
C357 C 0.37994 0.80191 0.11513 0.0
C358 C 0.36091 0.70891 0.08453 0.0
C359 C 0.38038 0.70923 0.02342 0.0
C360 C 0.38228 0.77107 0.09495 0.0
C361 C 0.40179 0.7417 0.00481 0.0
C362 C 0.40149 0.83385 0.09432 0.0
C363 C 0.34812 0.82261 0.14301 0.0
N364 N 0.40192 0.77121 0.03944 0.0
N365 N 0.35438 0.79769 0.14123 0.0
H366 H 0.47905 0.07196 0.12671 0.0
H367 H 0.64813 0.15921 0.02644 0.0
H368 H 0.51092 0.13926 0.92709 0.0
H369 H 0.6117 0.08413 0.20356 0.0
H370 H 0.59763 0.15068 -0.01674 0.0
H371 H 0.5269 0.07441 0.14917 0.0
C372 C 0.49571 0.08648 0.08551 0.0
C373 C 0.49063 0.10499 0.02397 0.0
C374 C 0.60071 0.13607 0.03152 0.0
C375 C 0.54604 0.10869 0.05152 0.0
C376 C 0.62955 0.14082 0.05601 0.0
C377 C 0.63449 0.12267 0.11979 0.0
C378 C 0.57652 0.11307 0.0712 0.0
C379 C 0.60944 0.09942 0.15626 0.0
C380 C 0.52317 0.08812 0.09907 0.0
C381 C 0.51369 0.12447 -0.02479 0.0
N382 N 0.5817 0.09542 0.13179 0.0
N383 N 0.54044 0.12599 -0.00949 0.0
H384 H 0.5894 0.67774 0.46624 0.0
H385 H 0.44518 0.61778 0.71532 0.0
H386 H 0.5776 0.7523 0.65751 0.0
H387 H 0.44195 0.54429 0.46066 0.0
H388 H 0.49708 0.66602 0.70957 0.0
H389 H 0.53888 0.62709 0.47797 0.0
C390 C 0.57642 0.68348 0.51145 0.0
C391 C 0.58775 0.71942 0.56038 0.0
C392 C 0.48511 0.6393 0.65517 0.0
C393 C 0.53012 0.6617 0.57461 0.0
C394 C 0.45545 0.61164 0.65874 0.0
C395 C 0.43908 0.57676 0.58876 0.0
C396 C 0.49889 0.6322 0.58171 0.0
C397 C 0.45366 0.57071 0.51642 0.0
C398 C 0.54751 0.65459 0.5176 0.0
C399 C 0.56976 0.72515 0.61751 0.0
N400 N 0.4827 0.59806 0.5149 0.0
N401 N 0.54206 0.69677 0.62309 0.0
H402 H 0.81147 0.36641 0.03314 0.0
H403 H 0.90135 0.30278 0.34992 0.0
H404 H 0.89394 0.44129 0.29258 0.0
H405 H 0.81607 0.23204 0.0985 0.0
H406 H 0.90256 0.35487 0.32456 0.0
H407 H 0.81635 0.31823 0.05022 0.0
C408 C 0.83082 0.37287 0.09356 0.0
C409 C 0.85226 0.40811 0.16175 0.0
C410 C 0.88374 0.32791 0.27475 0.0
C411 C 0.85792 0.35233 0.18246 0.0
C412 C 0.88308 0.29816 0.28891 0.0
C413 C 0.85845 0.2628 0.22681 0.0
C414 C 0.85968 0.32222 0.19767 0.0
C415 C 0.83543 0.25859 0.14906 0.0
C416 C 0.83358 0.34516 0.1034 0.0
C417 C 0.87686 0.41456 0.23823 0.0
N418 N 0.83659 0.28775 0.13721 0.0
N419 N 0.87892 0.38688 0.24699 0.0
H420 H 0.4798 0.90952 0.10867 0.0
H421 H 0.6489 0.96737 0.09794 0.0
H422 H 0.56123 1.01996 0.19517 0.0
H423 H 0.56468 0.85818 -0.02017 0.0
H424 H 0.62136 0.98513 0.19516 0.0
H425 H 0.5141 0.88956 0.12311 0.0
C426 C 0.50503 0.92955 0.13245 0.0
C427 C 0.51791 0.96623 0.14808 0.0
C428 C 0.60917 0.95707 0.15023 0.0
C429 C 0.55718 0.94375 0.16268 0.0
C430 C 0.62485 0.94691 0.09456 0.0
C431 C 0.60865 0.91156 0.02722 0.0
C432 C 0.57706 0.93171 0.13771 0.0
C433 C 0.57795 0.8859 0.0289 0.0
C434 C 0.5246 0.91824 0.14104 0.0
C435 C 0.55059 0.99136 0.18094 0.0
N436 N 0.56288 0.8967 0.08096 0.0
N437 N 0.5692 0.97956 0.18474 0.0
H438 H 0.66177 0.23972 0.687 0.0
H439 H 0.54003 0.27023 0.6108 0.0
H440 H 0.67613 0.33657 0.6397 0.0
H441 H 0.52383 0.16777 0.60521 0.0
H442 H 0.58203 0.2841 0.53055 0.0
H443 H 0.60986 0.2041 0.56429 0.0
C444 C 0.65444 0.25332 0.64736 0.0
C445 C 0.67232 0.29114 0.67764 0.0
C446 C 0.56871 0.25804 0.5439 0.0
C447 C 0.6124 0.25114 0.54368 0.0
C448 C 0.54452 0.25004 0.59 0.0
C449 C 0.52958 0.21873 0.62115 0.0
C450 C 0.57866 0.2352 0.5328 0.0
C451 C 0.53607 0.19337 0.58896 0.0
C452 C 0.62466 0.23305 0.57746 0.0
C453 C 0.66235 0.30743 0.62166 0.0
N454 N 0.56073 0.2026 0.54948 0.0
N455 N 0.63239 0.28746 0.56039 0.0
H456 H 0.29658 0.49611 0.23994 0.0
H457 H 0.40673 0.5376 0.87672 0.0
H458 H 0.39583 0.56986 0.3912 0.0
H459 H 0.32648 0.43179 0.85306 0.0
H460 H 0.40651 0.56019 0.05407 0.0
H461 H 0.30804 0.48758 0.07428 0.0
C462 C 0.32078 0.51196 0.23739 0.0
C463 C 0.3453 0.53319 0.329 0.0
C464 C 0.3897 0.53179 0.01102 0.0
C465 C 0.35858 0.52214 0.14156 0.0
C466 C 0.39026 0.51865 0.9111 0.0
C467 C 0.36646 0.48278 0.85057 0.0
C468 C 0.36493 0.50874 0.04825 0.0
C469 C 0.34519 0.45957 0.89736 0.0
C470 C 0.32733 0.50637 0.14348 0.0
C471 C 0.37631 0.55301 0.32179 0.0
N472 N 0.34433 0.47317 -0.00767 0.0
N473 N 0.38226 0.54626 0.22947 0.0
H474 H 0.87595 0.13086 -0.00424 0.0
H475 H 0.79454 0.15795 0.53481 0.0
H476 H 0.78242 0.10409 0.94843 0.0
H477 H 0.88683 0.18033 0.58972 0.0
H478 H 0.78307 0.12241 0.65683 0.0
H479 H 0.87255 0.12954 0.81554 0.0
C480 C 0.85432 0.12363 0.94629 0.0
C481 C 0.82981 0.11862 -0.01277 0.0
C482 C 0.80568 0.13486 0.64092 0.0
C483 C 0.82628 0.11897 0.7831 0.0
C484 C 0.81234 0.1555 0.57248 0.0
C485 C 0.84208 0.1734 0.55524 0.0
C486 C 0.82898 0.13228 0.69198 0.0
C487 C 0.86392 0.16823 0.60313 0.0
C488 C 0.85239 0.12308 0.84349 0.0
C489 C 0.80207 0.10874 0.9199 0.0
N490 N 0.85702 0.14851 0.66978 0.0
N491 N 0.80142 0.11044 0.82162 0.0
H492 H 0.64861 0.75316 0.20734 0.0
H493 H 0.73066 0.88586 0.88341 0.0
H494 H 0.67464 0.86239 0.27714 0.0
H495 H 0.70348 0.77647 0.8024 0.0
H496 H 0.72544 0.88345 0.0567 0.0
H497 H 0.6785 0.7648 0.08006 0.0
C498 C 0.66031 0.77948 0.19521 0.0
C499 C 0.65899 0.8068 0.253 0.0
C500 C 0.72153 0.86026 0.0024 0.0
C501 C 0.69359 0.82041 0.1082 0.0
C502 C 0.72512 0.86193 0.90418 0.0
C503 C 0.71683 0.83104 0.8289 0.0
C504 C 0.7087 0.82711 0.02331 0.0
C505 C 0.7097 0.80066 0.8587 0.0
C506 C 0.67775 0.78625 0.12354 0.0
C507 C 0.67474 0.84039 0.23406 0.0
N508 N 0.7047 0.79893 0.95302 0.0
N509 N 0.69132 0.84618 0.16324 0.0
H510 H 0.78151 0.49575 0.87751 0.0
H511 H 0.88865 0.56687 0.51657 0.0
H512 H 0.87166 0.51446 0.89304 0.0
H513 H 0.78755 0.49389 0.42394 0.0
H514 H 0.8874 0.58633 0.69375 0.0
H515 H 0.79098 0.53163 0.7575 0.0
C516 C 0.80337 0.50764 0.85655 0.0
C517 C 0.82523 0.50073 0.8911 0.0
C518 C 0.86547 0.56698 0.63357 0.0
C519 C 0.83656 0.54276 0.75893 0.0
C520 C 0.8662 0.55534 0.53342 0.0
C521 C 0.83828 0.52647 0.45911 0.0
C522 C 0.83675 0.54896 0.65809 0.0
C523 C 0.80972 0.51409 0.48209 0.0
C524 C 0.80903 0.5288 0.79046 0.0
C525 C 0.8537 0.51806 0.86552 0.0
N526 N 0.80966 0.52485 0.58076 0.0
N527 N 0.85836 0.5379 0.79979 0.0
H528 H 0.38383 0.98979 0.37289 0.0
H529 H 0.27762 0.85412 0.66183 0.0
H530 H 0.28331 0.91238 0.25577 0.0
H531 H 0.37911 0.92301 0.7584 0.0
H532 H 0.2784 0.8822 0.52709 0.0
H533 H 0.38102 0.97733 0.53883 0.0
C534 C 0.36108 0.97098 0.38319 0.0
C535 C 0.3339 0.95087 0.29966 0.0
C536 C 0.3005 0.89107 0.5776 0.0
C537 C 0.33063 0.93572 0.48624 0.0
C538 C 0.3001 0.87459 0.65342 0.0
C539 C 0.32836 0.88643 0.7224 0.0
C540 C 0.32934 0.91923 0.56962 0.0
C541 C 0.35673 0.91311 0.70757 0.0
C542 C 0.35951 0.96361 0.47733 0.0
C543 C 0.30494 0.9277 0.31747 0.0
N544 N 0.35648 0.92878 0.63312 0.0
N545 N 0.3041 0.91992 0.40819 0.0
H546 H 0.38208 0.13583 0.75257 0.0
H547 H 0.47864 0.12535 0.36414 0.0
H548 H 0.41372 0.06692 0.73185 0.0
H549 H 0.45265 0.19918 0.39571 0.0
H550 H 0.46003 0.10854 0.51218 0.0
H551 H 0.40654 0.15842 0.61878 0.0
C552 C 0.3937 0.12497 0.71831 0.0
C553 C 0.39673 0.1003 0.75516 0.0
C554 C 0.45867 0.12879 0.48789 0.0
C555 C 0.42523 0.12648 0.60421 0.0
C556 C 0.47034 0.13935 0.40571 0.0
C557 C 0.46574 0.16242 0.36547 0.0
C558 C 0.44292 0.14207 0.53068 0.0
C559 C 0.45531 0.18013 0.42249 0.0
C560 C 0.40799 0.13822 0.64304 0.0
C561 C 0.41135 0.08646 0.70693 0.0
N562 N 0.44293 0.16851 0.49996 0.0
N563 N 0.42549 0.10016 0.63474 0.0
loop_
_geom_bond_atom_site_label_1
_geom_bond_atom_site_label_2
_geom_bond_distance
_geom_bond_site_symmetry_2
_ccdc_geom_bond_type
Dy0 O3 2.307 . S
Dy0 O5 2.395 . S
Dy0 O6 2.379 1_556 S
Dy0 O8 2.339 1_556 S
Dy0 O10 2.298 . S
Dy0 O14 2.275 . S
Dy0 C22 2.738 . S
Dy1 O4 2.298 . S
Dy1 O7 2.275 . S
Dy1 O9 2.307 . S
Dy1 O11 2.395 . S
Dy1 O12 2.379 . S
Dy1 O15 2.339 . S
Dy1 C31 2.738 . S
C2 O14 1.254 . S
C2 O15 1.257 . S
O3 Dy0 2.307 . S
O3 C13 1.266 . S
O4 Dy1 2.298 . S
O4 C13 1.236 . S
O5 Dy0 2.395 . S
O5 C22 1.255 . S
O6 Dy0 2.379 1_554 S
O6 C22 1.249 1_554 S
O7 Dy1 2.275 . S
O7 C23 1.254 1_556 S
O8 Dy0 2.339 1_554 S
O8 C23 1.257 . S
O9 Dy1 2.307 . S
O9 C24 1.266 . S
O10 Dy0 2.298 . S
O10 C24 1.236 . S
O11 Dy1 2.395 . S
O11 C31 1.255 . S
O12 Dy1 2.379 . S
O12 C31 1.249 . S
C13 O3 1.266 . S
C13 O4 1.236 . S
O14 Dy0 2.275 . S
O14 C2 1.254 . S
O15 Dy1 2.339 . S
O15 C2 1.257 . S
C16 C19 1.344 . S
C16 C20 1.328 1_556 S
C16 C22 1.516 . S
C17 C18 1.304 . S
C17 C21 1.323 1_556 S
C18 C17 1.304 . S
C18 C19 1.371 . S
C18 H32 0.930 . S
C19 C16 1.344 . S
C19 C18 1.371 . S
C19 H33 0.931 . S
C20 C16 1.328 1_554 S
C20 C21 1.433 . S
C20 H34 0.931 . S
C21 C17 1.323 1_554 S
C21 C20 1.433 . S
C21 H35 0.933 . S
C22 Dy0 2.738 . S
C22 O5 1.255 . S
C22 O6 1.249 1_556 S
C22 C16 1.516 . S
C23 O7 1.254 1_554 S
C23 O8 1.257 . S
C24 O9 1.266 . S
C24 O10 1.236 . S
C25 C28 1.344 . S
C25 C29 1.328 . S
C25 C31 1.516 . S
C26 C27 1.304 . S
C26 C30 1.323 . S
C27 C26 1.304 . S
C27 C28 1.371 . S
C27 H36 0.930 . S
C28 C25 1.344 . S
C28 C27 1.371 . S
C28 H37 0.931 . S
C29 C25 1.328 . S
C29 C30 1.433 . S
C29 H38 0.931 . S
C30 C26 1.323 . S
C30 C29 1.433 . S
C30 H39 0.933 . S
C31 Dy1 2.738 . S
C31 O11 1.255 . S
C31 O12 1.249 . S
C31 C25 1.516 . S
H32 C18 0.930 . S
H33 C19 0.931 . S
H34 C20 0.931 . S
H35 C21 0.933 . S
H36 C27 0.930 . S
H37 C28 0.931 . S
H38 C29 0.931 . S
H39 C30 0.933 . S
Dy40 O43 2.307 . S
Dy40 O45 2.395 1_554 S
Dy40 O46 2.379 . S
Dy40 O48 2.339 . S
Dy40 O50 2.298 . S
Dy40 O54 2.275 1_554 S
Dy40 C62 2.738 1_554 S
Dy41 O44 2.298 . S
Dy41 O47 2.275 . S
Dy41 O49 2.307 . S
Dy41 O51 2.395 . S
Dy41 O52 2.379 . S
Dy41 O55 2.339 1_554 S
Dy41 C71 2.738 . S
C42 O54 1.254 . S
C42 O55 1.257 . S
O43 Dy40 2.307 . S
O43 C53 1.266 . S
O44 Dy41 2.298 . S
O44 C53 1.236 . S
O45 Dy40 2.395 1_556 S
O45 C62 1.255 . S
O46 Dy40 2.379 . S
O46 C62 1.249 1_554 S
O47 Dy41 2.275 . S
O47 C63 1.254 . S
O48 Dy40 2.339 . S
O48 C63 1.257 . S
O49 Dy41 2.307 . S
O49 C64 1.266 . S
O50 Dy40 2.298 . S
O50 C64 1.236 . S
O51 Dy41 2.395 . S
O51 C71 1.255 . S
O52 Dy41 2.379 . S
O52 C71 1.249 . S
C53 O43 1.266 . S
C53 O44 1.236 . S
O54 Dy40 2.275 1_556 S
O54 C42 1.254 . S
O55 Dy41 2.339 1_556 S
O55 C42 1.257 . S
C56 C59 1.344 . S
C56 C60 1.328 1_556 S
C56 C62 1.516 . S
C57 C58 1.304 . S
C57 C61 1.323 . S
C58 C57 1.304 . S
C58 C59 1.371 . S
C58 H72 0.930 . S
C59 C56 1.344 . S
C59 C58 1.371 . S
C59 H73 0.931 . S
C60 C56 1.328 1_554 S
C60 C61 1.433 1_554 S
C60 H74 0.931 . S
C61 C57 1.323 . S
C61 C60 1.433 1_556 S
C61 H75 0.933 . S
C62 Dy40 2.738 1_556 S
C62 O45 1.255 . S
C62 O46 1.249 1_556 S
C62 C56 1.516 . S
C63 O47 1.254 . S
C63 O48 1.257 . S
C64 O49 1.266 . S
C64 O50 1.236 . S
C65 C68 1.344 . S
C65 C69 1.328 . S
C65 C71 1.516 . S
C66 C67 1.304 . S
C66 C70 1.323 . S
C67 C66 1.304 . S
C67 C68 1.371 . S
C67 H76 0.930 . S
C68 C65 1.344 . S
C68 C67 1.371 . S
C68 H77 0.931 . S
C69 C65 1.328 . S
C69 C70 1.433 . S
C69 H78 0.931 . S
C70 C66 1.323 . S
C70 C69 1.433 . S
C70 H79 0.933 . S
C71 Dy41 2.738 . S
C71 O51 1.255 . S
C71 O52 1.249 . S
C71 C65 1.516 . S
H72 C58 0.930 . S
H73 C59 0.931 . S
H74 C60 0.931 . S
H75 C61 0.933 . S
H76 C67 0.930 . S
H77 C68 0.931 . S
H78 C69 0.931 . S
H79 C70 0.933 . S
Dy80 O83 2.307 . S
Dy80 O85 2.395 1_556 S
Dy80 O86 2.379 . S
Dy80 O88 2.339 . S
Dy80 O90 2.298 . S
Dy80 O94 2.275 1_556 S
Dy80 C102 2.738 . S
Dy81 O84 2.298 . S
Dy81 O87 2.275 . S
Dy81 O89 2.307 . S
Dy81 O91 2.395 . S
Dy81 O92 2.379 . S
Dy81 O95 2.339 1_556 S
Dy81 C111 2.738 . S
C82 O94 1.254 . S
C82 O95 1.257 . S
O83 Dy80 2.307 . S
O83 C93 1.266 . S
O84 Dy81 2.298 . S
O84 C93 1.236 . S
O85 Dy80 2.395 1_554 S
O85 C102 1.255 1_554 S
O86 Dy80 2.379 . S
O86 C102 1.249 . S
O87 Dy81 2.275 . S
O87 C103 1.254 . S
O88 Dy80 2.339 . S
O88 C103 1.257 . S
O89 Dy81 2.307 . S
O89 C104 1.266 . S
O90 Dy80 2.298 . S
O90 C104 1.236 . S
O91 Dy81 2.395 . S
O91 C111 1.255 . S
O92 Dy81 2.379 . S
O92 C111 1.249 . S
C93 O83 1.266 . S
C93 O84 1.236 . S
O94 Dy80 2.275 1_554 S
O94 C82 1.254 . S
O95 Dy81 2.339 1_554 S
O95 C82 1.257 . S
C96 C99 1.344 1_556 S
C96 C100 1.328 . S
C96 C102 1.516 . S
C97 C98 1.304 . S
C97 C101 1.323 1_554 S
C98 C97 1.304 . S
C98 C99 1.371 . S
C98 H112 0.930 . S
C99 C96 1.344 1_554 S
C99 C98 1.371 . S
C99 H113 0.931 . S
C100 C96 1.328 . S
C100 C101 1.433 . S
C100 H114 0.931 . S
C101 C97 1.323 1_556 S
C101 C100 1.433 . S
C101 H115 0.933 . S
C102 Dy80 2.738 . S
C102 O85 1.255 1_556 S
C102 O86 1.249 . S
C102 C96 1.516 . S
C103 O87 1.254 . S
C103 O88 1.257 . S
C104 O89 1.266 . S
C104 O90 1.236 . S
C105 C108 1.344 . S
C105 C109 1.328 . S
C105 C111 1.516 . S
C106 C107 1.304 . S
C106 C110 1.323 . S
C107 C106 1.304 . S
C107 C108 1.371 . S
C107 H116 0.930 . S
C108 C105 1.344 . S
C108 C107 1.371 . S
C108 H117 0.931 . S
C109 C105 1.328 . S
C109 C110 1.433 . S
C109 H118 0.931 . S
C110 C106 1.323 . S
C110 C109 1.433 . S
C110 H119 0.933 . S
C111 Dy81 2.738 . S
C111 O91 1.255 . S
C111 O92 1.249 . S
C111 C105 1.516 . S
H112 C98 0.930 . S
H113 C99 0.931 . S
H114 C100 0.931 . S
H115 C101 0.933 . S
H116 C107 0.930 . S
H117 C108 0.931 . S
H118 C109 0.931 . S
H119 C110 0.933 . S
Dy120 O123 2.307 . S
Dy120 O125 2.395 . S
Dy120 O126 2.379 . S
Dy120 O128 2.339 . S
Dy120 O130 2.298 . S
Dy120 O134 2.275 1_556 S
Dy120 C142 2.738 . S
Dy121 O124 2.298 . S
Dy121 O127 2.275 1_554 S
Dy121 O129 2.307 . S
Dy121 O131 2.395 . S
Dy121 O132 2.379 . S
Dy121 O135 2.339 . S
Dy121 C151 2.738 . S
C122 O134 1.254 . S
C122 O135 1.257 . S
O123 Dy120 2.307 . S
O123 C133 1.266 1_556 S
O124 Dy121 2.298 . S
O124 C133 1.236 . S
O125 Dy120 2.395 . S
O125 C142 1.255 . S
O126 Dy120 2.379 . S
O126 C142 1.249 . S
O127 Dy121 2.275 1_556 S
O127 C143 1.254 . S
O128 Dy120 2.339 . S
O128 C143 1.257 . S
O129 Dy121 2.307 . S
O129 C144 1.266 1_554 S
O130 Dy120 2.298 . S
O130 C144 1.236 . S
O131 Dy121 2.395 . S
O131 C151 1.255 . S
O132 Dy121 2.379 . S
O132 C151 1.249 . S
C133 O123 1.266 1_554 S
C133 O124 1.236 . S
O134 Dy120 2.275 1_554 S
O134 C122 1.254 . S
O135 Dy121 2.339 . S
O135 C122 1.257 . S
C136 C139 1.344 . S
C136 C140 1.328 . S
C136 C142 1.516 . S
C137 C138 1.304 . S
C137 C141 1.323 . S
C138 C137 1.304 . S
C138 C139 1.371 . S
C138 H152 0.930 . S
C139 C136 1.344 . S
C139 C138 1.371 . S
C139 H153 0.931 1_556 S
C140 C136 1.328 . S
C140 C141 1.433 . S
C140 H154 0.931 . S
C141 C137 1.323 . S
C141 C140 1.433 . S
C141 H155 0.933 . S
C142 Dy120 2.738 . S
C142 O125 1.255 . S
C142 O126 1.249 . S
C142 C136 1.516 . S
C143 O127 1.254 . S
C143 O128 1.257 . S
C144 O129 1.266 1_556 S
C144 O130 1.236 . S
C145 C148 1.344 . S
C145 C149 1.328 . S
C145 C151 1.516 . S
C146 C147 1.304 . S
C146 C150 1.323 . S
C147 C146 1.304 . S
C147 C148 1.371 . S
C147 H156 0.930 . S
C148 C145 1.344 . S
C148 C147 1.371 . S
C148 H157 0.931 1_554 S
C149 C145 1.328 . S
C149 C150 1.433 . S
C149 H158 0.931 . S
C150 C146 1.323 . S
C150 C149 1.433 . S
C150 H159 0.933 . S
C151 Dy121 2.738 . S
C151 O131 1.255 . S
C151 O132 1.249 . S
C151 C145 1.516 . S
H152 C138 0.930 . S
H153 C139 0.931 1_554 S
H154 C140 0.931 . S
H155 C141 0.933 . S
H156 C147 0.930 . S
H157 C148 0.931 1_556 S
H158 C149 0.931 . S
H159 C150 0.933 . S
Dy160 O163 2.307 . S
Dy160 O165 2.395 . S
Dy160 O166 2.379 . S
Dy160 O168 2.339 . S
Dy160 O170 2.298 . S
Dy160 O174 2.275 1_554 S
Dy160 C182 2.738 . S
Dy161 O164 2.298 . S
Dy161 O167 2.275 1_556 S
Dy161 O169 2.307 . S
Dy161 O171 2.395 . S
Dy161 O172 2.379 . S
Dy161 O175 2.339 . S
Dy161 C191 2.738 . S
C162 O174 1.254 . S
C162 O175 1.257 . S
O163 Dy160 2.307 . S
O163 C173 1.266 1_554 S
O164 Dy161 2.298 . S
O164 C173 1.236 . S
O165 Dy160 2.395 . S
O165 C182 1.255 . S
O166 Dy160 2.379 . S
O166 C182 1.249 . S
O167 Dy161 2.275 1_554 S
O167 C183 1.254 . S
O168 Dy160 2.339 . S
O168 C183 1.257 . S
O169 Dy161 2.307 . S
O169 C184 1.266 1_556 S
O170 Dy160 2.298 . S
O170 C184 1.236 . S
O171 Dy161 2.395 . S
O171 C191 1.255 . S
O172 Dy161 2.379 . S
O172 C191 1.249 . S
C173 O163 1.266 1_556 S
C173 O164 1.236 . S
O174 Dy160 2.275 1_556 S
O174 C162 1.254 . S
O175 Dy161 2.339 . S
O175 C162 1.257 . S
C176 C179 1.344 . S
C176 C180 1.328 . S
C176 C182 1.516 . S
C177 C178 1.304 . S
C177 C181 1.323 . S
C178 C177 1.304 . S
C178 C179 1.371 . S
C178 H192 0.930 1_554 S
C179 C176 1.344 . S
C179 C178 1.371 . S
C179 H193 0.931 1_554 S
C180 C176 1.328 . S
C180 C181 1.433 . S
C180 H194 0.931 . S
C181 C177 1.323 . S
C181 C180 1.433 . S
C181 H195 0.933 . S
C182 Dy160 2.738 . S
C182 O165 1.255 . S
C182 O166 1.249 . S
C182 C176 1.516 . S
C183 O167 1.254 . S
C183 O168 1.257 . S
C184 O169 1.266 1_554 S
C184 O170 1.236 . S
C185 C188 1.344 . S
C185 C189 1.328 . S
C185 C191 1.516 . S
C186 C187 1.304 . S
C186 C190 1.323 . S
C187 C186 1.304 . S
C187 C188 1.371 . S
C187 H196 0.930 1_556 S
C188 C185 1.344 . S
C188 C187 1.371 . S
C188 H197 0.931 1_556 S
C189 C185 1.328 . S
C189 C190 1.433 . S
C189 H198 0.931 . S
C190 C186 1.323 . S
C190 C189 1.433 . S
C190 H199 0.933 . S
C191 Dy161 2.738 . S
C191 O171 1.255 . S
C191 O172 1.249 . S
C191 C185 1.516 . S
H192 C178 0.930 1_556 S
H193 C179 0.931 1_556 S
H194 C180 0.931 . S
H195 C181 0.933 . S
H196 C187 0.930 1_554 S
H197 C188 0.931 1_554 S
H198 C189 0.931 . S
H199 C190 0.933 . S
Dy200 O203 2.307 . S
Dy200 O205 2.395 1_554 S
Dy200 O206 2.379 . S
Dy200 O208 2.339 . S
Dy200 O210 2.298 . S
Dy200 O214 2.275 1_554 S
Dy200 C222 2.738 1_554 S
Dy201 O204 2.298 1_565 S
Dy201 O207 2.275 1_566 S
Dy201 O209 2.306 1_565 S
Dy201 O211 2.395 1_556 S
Dy201 O212 2.379 . S
Dy201 O215 2.339 . S
Dy201 C231 2.738 1_556 S
C202 O214 1.254 . S
C202 O215 1.257 1_545 S
O203 Dy200 2.307 . S
O203 C213 1.266 . S
O204 Dy201 2.298 1_545 S
O204 C213 1.236 1_556 S
O205 Dy200 2.395 1_556 S
O205 C222 1.255 . S
O206 Dy200 2.379 . S
O206 C222 1.249 1_554 S
O207 Dy201 2.275 1_544 S
O207 C223 1.254 . S
O208 Dy200 2.339 . S
O208 C223 1.257 . S
O209 Dy201 2.306 1_545 S
O209 C224 1.265 . S
O210 Dy200 2.298 . S
O210 C224 1.236 1_554 S
O211 Dy201 2.395 1_554 S
O211 C231 1.255 . S
O212 Dy201 2.379 . S
O212 C231 1.249 1_556 S
C213 O203 1.266 . S
C213 O204 1.236 1_554 S
O214 Dy200 2.275 1_556 S
O214 C202 1.254 . S
O215 Dy201 2.339 . S
O215 C202 1.257 1_565 S
C216 C219 1.344 . S
C216 C220 1.328 1_556 S
C216 C222 1.516 . S
C217 C218 1.304 . S
C217 C221 1.323 1_556 S
C218 C217 1.304 . S
C218 C219 1.371 . S
C218 H232 0.930 . S
C219 C216 1.344 . S
C219 C218 1.371 . S
C219 H233 0.931 . S
C220 C216 1.328 1_554 S
C220 C221 1.433 . S
C220 H234 0.931 . S
C221 C217 1.323 1_554 S
C221 C220 1.433 . S
C221 H235 0.933 . S
C222 Dy200 2.738 1_556 S
C222 O205 1.255 . S
C222 O206 1.249 1_556 S
C222 C216 1.516 . S
C223 O207 1.254 . S
C223 O208 1.257 . S
C224 O209 1.265 . S
C224 O210 1.236 1_556 S
C225 C228 1.344 . S
C225 C229 1.328 1_554 S
C225 C231 1.516 . S
C226 C227 1.304 . S
C226 C230 1.323 1_554 S
C227 C226 1.304 . S
C227 C228 1.371 . S
C227 H236 0.930 . S
C228 C225 1.344 . S
C228 C227 1.371 . S
C228 H237 0.931 . S
C229 C225 1.328 1_556 S
C229 C230 1.433 . S
C229 H238 0.931 . S
C230 C226 1.323 1_556 S
C230 C229 1.433 . S
C230 H239 0.933 . S
C231 Dy201 2.738 1_554 S
C231 O211 1.255 . S
C231 O212 1.249 1_554 S
C231 C225 1.516 . S
H232 C218 0.930 . S
H233 C219 0.931 . S
H234 C220 0.931 . S
H235 C221 0.933 . S
H236 C227 0.930 . S
H237 C228 0.931 . S
H238 C229 0.931 . S
H239 C230 0.933 . S
H240 C246 0.930 . S
H241 C250 0.930 . S
H242 C255 0.929 . S
H243 C253 0.929 . S
H244 C248 0.929 . S
H245 C254 0.929 . S
C246 H240 0.930 . S
C246 C247 1.367 . S
C246 C254 1.378 . S
C247 C246 1.367 . S
C247 C255 1.433 . S
C248 H244 0.929 . S
C248 C250 1.378 . S
C248 C252 1.350 . S
C249 C252 1.463 . S
C249 C254 1.350 . S
C249 N257 1.427 . S
C250 H241 0.930 . S
C250 C248 1.378 . S
C250 C251 1.367 . S
C251 C250 1.367 . S
C251 C253 1.433 . S
C252 C248 1.350 . S
C252 C249 1.463 . S
C252 N256 1.427 . S
C253 H243 0.929 . S
C253 C251 1.433 . S
C253 N256 1.384 . S
C254 H245 0.929 . S
C254 C246 1.378 . S
C254 C249 1.350 . S
C255 H242 0.929 . S
C255 C247 1.433 . S
C255 N257 1.384 . S
N256 C252 1.427 . S
N256 C253 1.384 . S
N257 C249 1.427 . S
N257 C255 1.384 . S
H258 C264 0.930 . S
H259 C268 0.930 . S
H260 C273 0.929 . S
H261 C271 0.929 . S
H262 C266 0.929 . S
H263 C272 0.929 . S
C264 H258 0.930 . S
C264 C265 1.367 . S
C264 C272 1.378 . S
C265 C264 1.367 . S
C265 C273 1.433 . S
C266 H262 0.929 . S
C266 C268 1.378 . S
C266 C270 1.350 . S
C267 C270 1.463 . S
C267 C272 1.350 . S
C267 N275 1.427 . S
C268 H259 0.930 . S
C268 C266 1.378 . S
C268 C269 1.367 . S
C269 C268 1.367 . S
C269 C271 1.433 . S
C270 C266 1.350 . S
C270 C267 1.463 . S
C270 N274 1.427 . S
C271 H261 0.929 . S
C271 C269 1.433 . S
C271 N274 1.384 . S
C272 H263 0.929 . S
C272 C264 1.378 . S
C272 C267 1.350 . S
C273 H260 0.929 . S
C273 C265 1.433 . S
C273 N275 1.384 . S
N274 C270 1.427 . S
N274 C271 1.384 . S
N275 C267 1.427 . S
N275 C273 1.384 . S
H276 C282 0.930 . S
H277 C286 0.930 . S
H278 C291 0.929 . S
H279 C289 0.929 . S
H280 C284 0.929 . S
H281 C290 0.929 . S
C282 H276 0.930 . S
C282 C283 1.367 . S
C282 C290 1.378 . S
C283 C282 1.367 . S
C283 C291 1.433 1_545 S
C284 H280 0.929 . S
C284 C286 1.378 . S
C284 C288 1.350 . S
C285 C288 1.463 . S
C285 C290 1.350 1_565 S
C285 N293 1.427 . S
C286 H277 0.930 . S
C286 C284 1.378 . S
C286 C287 1.367 . S
C287 C286 1.367 . S
C287 C289 1.433 . S
C288 C284 1.350 . S
C288 C285 1.463 . S
C288 N292 1.427 . S
C289 H279 0.929 . S
C289 C287 1.433 . S
C289 N292 1.384 . S
C290 H281 0.929 . S
C290 C282 1.378 . S
C290 C285 1.350 1_545 S
C291 H278 0.929 . S
C291 C283 1.433 1_565 S
C291 N293 1.384 . S
N292 C288 1.427 . S
N292 C289 1.384 . S
N293 C285 1.427 . S
N293 C291 1.384 . S
H294 C300 0.930 . S
H295 C304 0.930 . S
H296 C309 0.929 . S
H297 C307 0.929 . S
H298 C302 0.929 . S
H299 C308 0.929 . S
C300 H294 0.930 . S
C300 C301 1.367 . S
C300 C308 1.378 . S
C301 C300 1.367 . S
C301 C309 1.433 . S
C302 H298 0.929 . S
C302 C304 1.378 . S
C302 C306 1.350 . S
C303 C306 1.463 . S
C303 C308 1.350 . S
C303 N311 1.427 . S
C304 H295 0.930 . S
C304 C302 1.378 . S
C304 C305 1.367 . S
C305 C304 1.367 . S
C305 C307 1.433 . S
C306 C302 1.350 . S
C306 C303 1.463 . S
C306 N310 1.427 . S
C307 H297 0.929 . S
C307 C305 1.433 . S
C307 N310 1.384 . S
C308 H299 0.929 . S
C308 C300 1.378 . S
C308 C303 1.350 . S
C309 H296 0.929 . S
C309 C301 1.433 . S
C309 N311 1.384 . S
N310 C306 1.427 . S
N310 C307 1.384 . S
N311 C303 1.427 . S
N311 C309 1.384 . S
H312 C318 0.930 . S
H313 C322 0.930 . S
H314 C327 0.929 . S
H315 C325 0.929 . S
H316 C320 0.929 . S
H317 C326 0.929 . S
C318 H312 0.930 . S
C318 C319 1.367 . S
C318 C326 1.378 . S
C319 C318 1.367 . S
C319 C327 1.433 . S
C320 H316 0.929 . S
C320 C322 1.378 1_455 S
C320 C324 1.350 . S
C321 C324 1.463 . S
C321 C326 1.350 . S
C321 N329 1.427 . S
C322 H313 0.930 . S
C322 C320 1.378 1_655 S
C322 C323 1.367 . S
C323 C322 1.367 . S
C323 C325 1.433 . S
C324 C320 1.350 . S
C324 C321 1.463 . S
C324 N328 1.427 1_455 S
C325 H315 0.929 . S
C325 C323 1.433 . S
C325 N328 1.384 . S
C326 H317 0.929 . S
C326 C318 1.378 . S
C326 C321 1.350 . S
C327 H314 0.929 . S
C327 C319 1.433 . S
C327 N329 1.384 . S
N328 C324 1.427 1_655 S
N328 C325 1.384 . S
N329 C321 1.427 . S
N329 C327 1.384 . S
H330 C336 0.930 . S
H331 C340 0.930 . S
H332 C345 0.929 . S
H333 C343 0.929 . S
H334 C338 0.929 . S
H335 C344 0.929 . S
C336 H330 0.930 . S
C336 C337 1.367 . S
C336 C344 1.378 . S
C337 C336 1.367 . S
C337 C345 1.433 . S
C338 H334 0.929 . S
C338 C340 1.378 . S
C338 C342 1.350 . S
C339 C342 1.463 . S
C339 C344 1.350 . S
C339 N347 1.427 . S
C340 H331 0.930 . S
C340 C338 1.378 . S
C340 C341 1.367 . S
C341 C340 1.367 . S
C341 C343 1.433 . S
C342 C338 1.350 . S
C342 C339 1.463 . S
C342 N346 1.427 . S
C343 H333 0.929 . S
C343 C341 1.433 . S
C343 N346 1.384 . S
C344 H335 0.929 . S
C344 C336 1.378 . S
C344 C339 1.350 . S
C345 H332 0.929 . S
C345 C337 1.433 . S
C345 N347 1.384 . S
N346 C342 1.427 . S
N346 C343 1.384 . S
N347 C339 1.427 . S
N347 C345 1.384 . S
H348 C354 0.930 . S
H349 C358 0.930 . S
H350 C363 0.929 . S
H351 C361 0.929 . S
H352 C356 0.929 . S
H353 C362 0.929 . S
C354 H348 0.930 . S
C354 C355 1.362 1_556 S
C354 C362 1.378 . S
C355 C354 1.362 1_554 S
C355 C363 1.440 . S
C356 H352 0.929 . S
C356 C358 1.378 . S
C356 C360 1.350 . S
C357 C360 1.463 . S
C357 C362 1.350 1_554 S
C357 N365 1.427 . S
C358 H349 0.930 . S
C358 C356 1.378 . S
C358 C359 1.367 . S
C359 C358 1.367 . S
C359 C361 1.433 1_554 S
C360 C356 1.350 . S
C360 C357 1.463 . S
C360 N364 1.427 1_554 S
C361 H351 0.929 . S
C361 C359 1.433 1_556 S
C361 N364 1.384 . S
C362 H353 0.929 . S
C362 C354 1.378 . S
C362 C357 1.350 1_556 S
C363 H350 0.929 . S
C363 C355 1.440 . S
C363 N365 1.384 . S
N364 C360 1.427 1_556 S
N364 C361 1.384 . S
N365 C357 1.427 . S
N365 C363 1.384 . S
H366 C372 0.930 . S
H367 C376 0.930 . S
H368 C381 0.929 . S
H369 C379 0.929 1_554 S
H370 C374 0.929 . S
H371 C380 0.929 1_554 S
C372 H366 0.930 . S
C372 C373 1.367 1_554 S
C372 C380 1.378 1_554 S
C373 C372 1.367 1_556 S
C373 C381 1.433 . S
C374 H370 0.929 . S
C374 C376 1.378 . S
C374 C378 1.350 . S
C375 C378 1.463 . S
C375 C380 1.350 . S
C375 N383 1.427 . S
C376 H367 0.930 . S
C376 C374 1.378 . S
C376 C377 1.367 . S
C377 C376 1.367 . S
C377 C379 1.433 . S
C378 C374 1.350 . S
C378 C375 1.463 . S
C378 N382 1.427 . S
C379 H369 0.929 1_556 S
C379 C377 1.433 . S
C379 N382 1.384 . S
C380 H371 0.929 1_556 S
C380 C372 1.378 1_556 S
C380 C375 1.350 . S
C381 H368 0.929 . S
C381 C373 1.433 . S
C381 N383 1.384 . S
N382 C378 1.427 . S
N382 C379 1.384 . S
N383 C375 1.427 . S
N383 C381 1.384 . S
H384 C390 0.930 . S
H385 C394 0.930 . S
H386 C399 0.929 . S
H387 C397 0.929 . S
H388 C392 0.929 . S
H389 C398 0.929 . S
C390 H384 0.930 . S
C390 C391 1.367 . S
C390 C398 1.378 . S
C391 C390 1.367 . S
C391 C399 1.433 1_556 S
C392 H388 0.929 . S
C392 C394 1.378 . S
C392 C396 1.350 1_554 S
C393 C396 1.463 . S
C393 C398 1.350 . S
C393 N401 1.427 1_556 S
C394 H385 0.930 . S
C394 C392 1.378 . S
C394 C395 1.367 1_554 S
C395 C394 1.367 1_556 S
C395 C397 1.433 . S
C396 C392 1.350 1_556 S
C396 C393 1.463 . S
C396 N400 1.427 . S
C397 H387 0.929 . S
C397 C395 1.433 . S
C397 N400 1.384 . S
C398 H389 0.929 . S
C398 C390 1.378 . S
C398 C393 1.350 . S
C399 H386 0.929 . S
C399 C391 1.433 1_554 S
C399 N401 1.384 . S
N400 C396 1.427 . S
N400 C397 1.384 . S
N401 C393 1.427 1_554 S
N401 C399 1.384 . S
H402 C408 0.930 . S
H403 C412 0.930 . S
H404 C417 0.929 . S
H405 C415 0.929 . S
H406 C410 0.929 . S
H407 C416 0.929 . S
C408 H402 0.930 . S
C408 C409 1.367 . S
C408 C416 1.378 . S
C409 C408 1.367 . S
C409 C417 1.433 1_556 S
C410 H406 0.929 . S
C410 C412 1.378 . S
C410 C414 1.350 . S
C411 C414 1.463 1_556 S
C411 C416 1.350 . S
C411 N419 1.427 1_556 S
C412 H403 0.930 . S
C412 C410 1.378 . S
C412 C413 1.367 . S
C413 C412 1.367 . S
C413 C415 1.433 1_554 S
C414 C410 1.350 . S
C414 C411 1.463 1_554 S
C414 N418 1.427 1_554 S
C415 H405 0.929 . S
C415 C413 1.433 1_556 S
C415 N418 1.384 . S
C416 H407 0.929 . S
C416 C408 1.378 . S
C416 C411 1.350 . S
C417 H404 0.929 . S
C417 C409 1.433 1_554 S
C417 N419 1.384 . S
N418 C414 1.427 1_556 S
N418 C415 1.384 . S
N419 C411 1.427 1_554 S
N419 C417 1.384 . S
H420 C426 0.930 . S
H421 C430 0.930 . S
H422 C435 0.929 . S
H423 C433 0.929 . S
H424 C428 0.929 . S
H425 C434 0.929 . S
C426 H420 0.930 . S
C426 C427 1.367 . S
C426 C434 1.378 . S
C427 C426 1.367 . S
C427 C435 1.433 . S
C428 H424 0.929 . S
C428 C430 1.378 . S
C428 C432 1.350 . S
C429 C432 1.463 . S
C429 C434 1.350 . S
C429 N437 1.427 . S
C430 H421 0.930 . S
C430 C428 1.378 . S
C430 C431 1.367 . S
C431 C430 1.367 . S
C431 C433 1.433 1_554 S
C432 C428 1.350 . S
C432 C429 1.463 . S
C432 N436 1.427 . S
C433 H423 0.929 . S
C433 C431 1.433 1_556 S
C433 N436 1.384 1_556 S
C434 H425 0.929 . S
C434 C426 1.378 . S
C434 C429 1.350 . S
C435 H422 0.929 . S
C435 C427 1.433 . S
C435 N437 1.384 . S
N436 C432 1.427 . S
N436 C433 1.384 1_554 S
N437 C429 1.427 . S
N437 C435 1.384 . S
H438 C444 0.930 . S
H439 C448 0.930 . S
H440 C453 0.929 . S
H441 C451 0.929 . S
H442 C446 0.929 . S
H443 C452 0.929 . S
C444 H438 0.930 . S
C444 C445 1.367 . S
C444 C452 1.378 . S
C445 C444 1.367 . S
C445 C453 1.433 . S
C446 H442 0.929 . S
C446 C448 1.378 . S
C446 C450 1.350 . S
C447 C450 1.463 . S
C447 C452 1.350 . S
C447 N455 1.427 . S
C448 H439 0.930 . S
C448 C446 1.378 . S
C448 C449 1.367 . S
C449 C448 1.367 . S
C449 C451 1.433 . S
C450 C446 1.350 . S
C450 C447 1.463 . S
C450 N454 1.427 . S
C451 H441 0.929 . S
C451 C449 1.433 . S
C451 N454 1.384 . S
C452 H443 0.929 . S
C452 C444 1.378 . S
C452 C447 1.350 . S
C453 H440 0.929 . S
C453 C445 1.433 . S
C453 N455 1.384 . S
N454 C450 1.427 . S
N454 C451 1.384 . S
N455 C447 1.427 . S
N455 C453 1.384 . S
H456 C462 0.930 . S
H457 C466 0.930 . S
H458 C471 0.929 . S
H459 C469 0.929 . S
H460 C464 0.929 . S
H461 C470 0.929 . S
C462 H456 0.930 . S
C462 C463 1.367 . S
C462 C470 1.378 . S
C463 C462 1.367 . S
C463 C471 1.433 . S
C464 H460 0.929 . S
C464 C466 1.378 . S
C464 C468 1.350 . S
C465 C468 1.463 . S
C465 C470 1.350 . S
C465 N473 1.427 . S
C466 H457 0.930 . S
C466 C464 1.378 . S
C466 C467 1.367 . S
C467 C466 1.367 . S
C467 C469 1.433 . S
C468 C464 1.350 . S
C468 C465 1.463 . S
C468 N472 1.427 . S
C469 H459 0.929 . S
C469 C467 1.433 . S
C469 N472 1.384 . S
C470 H461 0.929 . S
C470 C462 1.378 . S
C470 C465 1.350 . S
C471 H458 0.929 . S
C471 C463 1.433 . S
C471 N473 1.384 . S
N472 C468 1.427 . S
N472 C469 1.384 . S
N473 C465 1.427 . S
N473 C471 1.384 . S
H474 C480 0.930 . S
H475 C484 0.930 . S
H476 C489 0.929 . S
H477 C487 0.929 . S
H478 C482 0.929 . S
H479 C488 0.929 . S
C480 H474 0.930 . S
C480 C481 1.367 . S
C480 C488 1.378 . S
C481 C480 1.367 . S
C481 C489 1.433 . S
C482 H478 0.929 . S
C482 C484 1.378 . S
C482 C486 1.350 . S
C483 C486 1.463 . S
C483 C488 1.350 . S
C483 N491 1.427 . S
C484 H475 0.930 . S
C484 C482 1.378 . S
C484 C485 1.367 . S
C485 C484 1.367 . S
C485 C487 1.433 . S
C486 C482 1.350 . S
C486 C483 1.463 . S
C486 N490 1.427 . S
C487 H477 0.929 . S
C487 C485 1.433 . S
C487 N490 1.384 . S
C488 H479 0.929 . S
C488 C480 1.378 . S
C488 C483 1.350 . S
C489 H476 0.929 . S
C489 C481 1.433 . S
C489 N491 1.384 . S
N490 C486 1.427 . S
N490 C487 1.384 . S
N491 C483 1.427 . S
N491 C489 1.384 . S
H492 C498 0.930 . S
H493 C502 0.930 . S
H494 C507 0.929 . S
H495 C505 0.929 . S
H496 C500 0.929 . S
H497 C506 0.929 . S
C498 H492 0.930 . S
C498 C499 1.367 . S
C498 C506 1.378 . S
C499 C498 1.367 . S
C499 C507 1.433 . S
C500 H496 0.929 . S
C500 C502 1.378 . S
C500 C504 1.350 . S
C501 C504 1.463 . S
C501 C506 1.350 . S
C501 N509 1.427 . S
C502 H493 0.930 . S
C502 C500 1.378 . S
C502 C503 1.367 . S
C503 C502 1.367 . S
C503 C505 1.433 . S
C504 C500 1.350 . S
C504 C501 1.463 . S
C504 N508 1.427 . S
C505 H495 0.929 . S
C505 C503 1.433 . S
C505 N508 1.384 . S
C506 H497 0.929 . S
C506 C498 1.378 . S
C506 C501 1.350 . S
C507 H494 0.929 . S
C507 C499 1.433 . S
C507 N509 1.384 . S
N508 C504 1.427 . S
N508 C505 1.384 . S
N509 C501 1.427 . S
N509 C507 1.384 . S
H510 C516 0.930 . S
H511 C520 0.930 . S
H512 C525 0.929 . S
H513 C523 0.929 . S
H514 C518 0.929 . S
H515 C524 0.929 . S
C516 H510 0.930 . S
C516 C517 1.367 . S
C516 C524 1.378 . S
C517 C516 1.367 . S
C517 C525 1.433 . S
C518 H514 0.929 . S
C518 C520 1.378 . S
C518 C522 1.350 . S
C519 C522 1.463 . S
C519 C524 1.350 . S
C519 N527 1.427 . S
C520 H511 0.930 . S
C520 C518 1.378 . S
C520 C521 1.367 . S
C521 C520 1.367 . S
C521 C523 1.433 . S
C522 C518 1.350 . S
C522 C519 1.463 . S
C522 N526 1.427 . S
C523 H513 0.929 . S
C523 C521 1.433 . S
C523 N526 1.384 . S
C524 H515 0.929 . S
C524 C516 1.378 . S
C524 C519 1.350 . S
C525 H512 0.929 . S
C525 C517 1.433 . S
C525 N527 1.384 . S
N526 C522 1.427 . S
N526 C523 1.384 . S
N527 C519 1.427 . S
N527 C525 1.384 . S
H528 C534 0.930 . S
H529 C538 0.930 . S
H530 C543 0.929 . S
H531 C541 0.929 . S
H532 C536 0.929 . S
H533 C542 0.929 . S
C534 H528 0.930 . S
C534 C535 1.367 . S
C534 C542 1.378 . S
C535 C534 1.367 . S
C535 C543 1.433 . S
C536 H532 0.929 . S
C536 C538 1.378 . S
C536 C540 1.350 . S
C537 C540 1.463 . S
C537 C542 1.350 . S
C537 N545 1.427 . S
C538 H529 0.930 . S
C538 C536 1.378 . S
C538 C539 1.367 . S
C539 C538 1.367 . S
C539 C541 1.433 . S
C540 C536 1.350 . S
C540 C537 1.463 . S
C540 N544 1.427 . S
C541 H531 0.929 . S
C541 C539 1.433 . S
C541 N544 1.384 . S
C542 H533 0.929 . S
C542 C534 1.378 . S
C542 C537 1.350 . S
C543 H530 0.929 . S
C543 C535 1.433 . S
C543 N545 1.384 . S
N544 C540 1.427 . S
N544 C541 1.384 . S
N545 C537 1.427 . S
N545 C543 1.384 . S
H546 C552 0.930 . S
H547 C556 0.930 . S
H548 C561 0.929 1_565 S
H549 C559 0.929 . S
H550 C554 0.929 . S
H551 C560 0.929 . S
C552 H546 0.930 . S
C552 C553 1.367 . S
C552 C560 1.378 . S
C553 C552 1.367 . S
C553 C561 1.433 . S
C554 H550 0.929 . S
C554 C556 1.378 . S
C554 C558 1.350 . S
C555 C558 1.463 . S
C555 C560 1.350 . S
C555 N563 1.427 . S
C556 H547 0.930 . S
C556 C554 1.378 . S
C556 C557 1.367 . S
C557 C556 1.367 . S
C557 C559 1.433 . S
C558 C554 1.350 . S
C558 C555 1.463 . S
C558 N562 1.427 . S
C559 H549 0.929 . S
C559 C557 1.433 . S
C559 N562 1.384 . S
C560 H551 0.929 . S
C560 C552 1.378 . S
C560 C555 1.350 . S
C561 H548 0.929 1_545 S
C561 C553 1.433 . S
C561 N563 1.384 . S
N562 C558 1.427 . S
N562 C559 1.384 . S
N563 C555 1.427 . S
N563 C561 1.384 . S
C247 C213 2.747 . S
C251 C26 2.774 . S
C265 C13 3.874 . S
C269 C66 3.784 1_455 S
C283 C53 3.260 . S
C287 C93 3.146 . S
C301 C133 2.912 . S
C305 C106 2.723 . S
C319 C186 1.951 . S
C323 C146 2.037 . S
C337 C173 2.673 . S
C341 C226 2.447 . S
C355 C184 1.424 . S
C359 C17 1.403 1_554 S
C373 C224 3.324 . S
C377 C57 3.322 . S
C391 C104 4.533 . S
C395 C24 4.531 . S
C409 C144 3.434 . S
C413 C64 3.442 . S
C427 C177 0.791 . S
C431 C97 0.816 . S
C445 C137 0.585 . S
C449 C217 0.379 . S
C463 C2 0.591 . S
C467 C23 0.591 . S
C481 C42 0.610 . S
C485 C63 0.610 . S
C499 C103 0.715 . S
C503 C82 0.715 . S
C517 C143 0.528 . S
C521 C122 0.528 . S
C535 C183 0.778 . S
C539 C162 0.778 . S
C553 C202 0.717 . S
C557 C223 0.717 . S
