# Generated by pormake.
# Topology neb, (4)-cn, num edge types: 1
# Building blocks:
#     Node 0, Type 0, BuildingBlock: AZAVOO_clean_sbu_0, # of connection points: 4
#     Node 1, Type 0, BuildingBlock: AZAVOO_clean_sbu_0, # of connection points: 4
#     Node 2, Type 0, BuildingBlock: AZAVOO_clean_sbu_0, # of connection points: 4
#     Node 3, Type 0, BuildingBlock: AZAVOO_clean_sbu_0, # of connection points: 4
#     Node 4, Type 0, BuildingBlock: AZAVOO_clean_sbu_0, # of connection points: 4
#     Node 5, Type 0, BuildingBlock: AZAVOO_clean_sbu_0, # of connection points: 4
#     Node 6, Type 0, BuildingBlock: AZAVOO_clean_sbu_0, # of connection points: 4
#     Node 7, Type 0, BuildingBlock: AZAVOO_clean_sbu_0, # of connection points: 4
#     Node 8, Type 0, BuildingBlock: AZAVOO_clean_sbu_0, # of connection points: 4
#     Node 9, Type 0, BuildingBlock: AZAVOO_clean_sbu_0, # of connection points: 4
#     Node 10, Type 0, BuildingBlock: AZAVOO_clean_sbu_0, # of connection points: 4
#     Node 11, Type 0, BuildingBlock: AZAVOO_clean_sbu_0, # of connection points: 4
#     Node 12, Type 0, BuildingBlock: AZAVOO_clean_sbu_0, # of connection points: 4
#     Node 13, Type 0, BuildingBlock: AZAVOO_clean_sbu_0, # of connection points: 4
#     Node 14, Type 0, BuildingBlock: AZAVOO_clean_sbu_0, # of connection points: 4
#     Node 15, Type 0, BuildingBlock: AZAVOO_clean_sbu_0, # of connection points: 4
#     Edge 16, Type (0, 0), BuildingBlock: XUDNAN_clean_linker_2, # of connection points: 2
#     Edge 17, Type (0, 0), BuildingBlock: XUDNAN_clean_linker_2, # of connection points: 2
#     Edge 18, Type (0, 0), BuildingBlock: XUDNAN_clean_linker_2, # of connection points: 2
#     Edge 19, Type (0, 0), BuildingBlock: XUDNAN_clean_linker_2, # of connection points: 2
#     Edge 20, Type (0, 0), BuildingBlock: XUDNAN_clean_linker_2, # of connection points: 2
#     Edge 21, Type (0, 0), BuildingBlock: XUDNAN_clean_linker_2, # of connection points: 2
#     Edge 22, Type (0, 0), BuildingBlock: XUDNAN_clean_linker_2, # of connection points: 2
#     Edge 23, Type (0, 0), BuildingBlock: XUDNAN_clean_linker_2, # of connection points: 2
#     Edge 24, Type (0, 0), BuildingBlock: XUDNAN_clean_linker_2, # of connection points: 2
#     Edge 25, Type (0, 0), BuildingBlock: XUDNAN_clean_linker_2, # of connection points: 2
#     Edge 26, Type (0, 0), BuildingBlock: XUDNAN_clean_linker_2, # of connection points: 2
#     Edge 27, Type (0, 0), BuildingBlock: XUDNAN_clean_linker_2, # of connection points: 2
#     Edge 28, Type (0, 0), BuildingBlock: XUDNAN_clean_linker_2, # of connection points: 2
#     Edge 29, Type (0, 0), BuildingBlock: XUDNAN_clean_linker_2, # of connection points: 2
#     Edge 30, Type (0, 0), BuildingBlock: XUDNAN_clean_linker_2, # of connection points: 2
#     Edge 31, Type (0, 0), BuildingBlock: XUDNAN_clean_linker_2, # of connection points: 2
#     Edge 32, Type (0, 0), BuildingBlock: XUDNAN_clean_linker_2, # of connection points: 2
#     Edge 33, Type (0, 0), BuildingBlock: XUDNAN_clean_linker_2, # of connection points: 2
#     Edge 34, Type (0, 0), BuildingBlock: XUDNAN_clean_linker_2, # of connection points: 2
#     Edge 35, Type (0, 0), BuildingBlock: XUDNAN_clean_linker_2, # of connection points: 2
#     Edge 36, Type (0, 0), BuildingBlock: XUDNAN_clean_linker_2, # of connection points: 2
#     Edge 37, Type (0, 0), BuildingBlock: XUDNAN_clean_linker_2, # of connection points: 2
#     Edge 38, Type (0, 0), BuildingBlock: XUDNAN_clean_linker_2, # of connection points: 2
#     Edge 39, Type (0, 0), BuildingBlock: XUDNAN_clean_linker_2, # of connection points: 2
#     Edge 40, Type (0, 0), BuildingBlock: XUDNAN_clean_linker_2, # of connection points: 2
#     Edge 41, Type (0, 0), BuildingBlock: XUDNAN_clean_linker_2, # of connection points: 2
#     Edge 42, Type (0, 0), BuildingBlock: XUDNAN_clean_linker_2, # of connection points: 2
#     Edge 43, Type (0, 0), BuildingBlock: XUDNAN_clean_linker_2, # of connection points: 2
#     Edge 44, Type (0, 0), BuildingBlock: XUDNAN_clean_linker_2, # of connection points: 2
#     Edge 45, Type (0, 0), BuildingBlock: XUDNAN_clean_linker_2, # of connection points: 2
#     Edge 46, Type (0, 0), BuildingBlock: XUDNAN_clean_linker_2, # of connection points: 2
#     Edge 47, Type (0, 0), BuildingBlock: XUDNAN_clean_linker_2, # of connection points: 2
# Relax obj value: 0.096
# Max RMSD: 0.145
# Mean RMSD: 0.145
data_MOF--net-neb--node1-AZAVOO_clean_sbu_0--edge1-XUDNAN_clean_linker_2
_symmetry_space_group_name_H-M    P1
_symmetry_Int_Tables_number       1
_symmetry_cell_setting            triclinic
loop_
_symmetry_equiv_pos_as_xyz
'x, y, z'
_cell_length_a     49.008827
_cell_length_b     20.419665
_cell_length_c     72.232122
_cell_angle_alpha  98.265635
_cell_angle_beta   90.239721
_cell_angle_gamma 89.957095
loop_
_atom_site_label
_atom_site_type_symbol
_atom_site_fract_x
_atom_site_fract_y
_atom_site_fract_z
_atom_type_partial_charge
Mg0 Mg 0.11539 0.1379 0.4466 0.0
O1 O 0.12254 0.03731 0.42805 0.0
O2 O 0.14544 0.05804 0.40276 0.0
Mg3 Mg 0.15461 0.16876 0.40566 0.0
C4 C 0.13368 0.01802 0.41221 0.0
C5 C 0.07987 0.12655 0.47851 0.0
O6 O 0.07931 0.18836 0.47536 0.0
O7 O 0.15961 0.13992 0.45744 0.0
O8 O 0.18064 0.16466 0.43194 0.0
O9 O 0.07735 0.15535 0.43089 0.0
O10 O 0.11847 0.18648 0.42329 0.0
C11 C 0.18121 0.15427 0.44897 0.0
C12 C 0.09279 0.18179 0.41955 0.0
O13 O 0.09732 0.08776 0.46977 0.0
Mg14 Mg 0.09462 0.0473 0.80269 0.0
O15 O 0.11094 0.13696 0.82225 0.0
O16 O 0.14251 0.10586 0.84157 0.0
Mg17 Mg 0.14754 0.9934 0.83303 0.0
C18 C 0.12791 0.15043 0.83569 0.0
C19 C 0.05014 0.10843 0.77875 0.0
O20 O 0.03733 0.05314 0.78045 0.0
O21 O 0.13321 0.04288 0.7851 0.0
O22 O 0.16423 0.00542 0.80387 0.0
O23 O 0.06421 0.02705 0.82436 0.0
O24 O 0.10581 0.98504 0.82134 0.0
C25 C 0.15735 0.02315 0.78822 0.0
C26 C 0.08309 0.99052 0.83022 0.0
O27 O 0.0738 0.11851 0.78583 0.0
Mg28 Mg 0.89187 0.82911 0.55099 0.0
O29 O 0.87898 0.92313 0.57037 0.0
O30 O 0.8578 0.89503 0.5954 0.0
Mg31 Mg 0.8543 0.78173 0.59077 0.0
C32 C 0.86727 0.9386 0.58615 0.0
C33 C 0.92911 0.87528 0.52262 0.0
O34 O 0.93882 0.81723 0.52517 0.0
O35 O 0.84812 0.81531 0.53944 0.0
O36 O 0.82811 0.78282 0.56439 0.0
O37 O 0.92962 0.82312 0.56825 0.0
O38 O 0.89043 0.77423 0.57293 0.0
C39 C 0.8272 0.79478 0.5475 0.0
C40 C 0.91507 0.78836 0.5781 0.0
O41 O 0.90638 0.89381 0.53002 0.0
Mg42 Mg 0.8958 0.92113 0.18762 0.0
O43 O 0.88031 0.82736 0.16883 0.0
O44 O 0.84676 0.86083 0.15119 0.0
Mg45 Mg 0.84429 0.97395 0.15619 0.0
C46 C 0.86153 0.81537 0.15647 0.0
C47 C 0.93551 0.89294 0.21718 0.0
O48 O 0.93909 0.95562 0.21554 0.0
O49 O 0.85667 0.93139 0.20473 0.0
O50 O 0.8272 0.97305 0.18577 0.0
O51 O 0.92818 0.93426 0.16715 0.0
O52 O 0.88662 0.97667 0.16672 0.0
C53 C 0.83336 0.95575 0.20157 0.0
C54 C 0.91031 0.96755 0.15909 0.0
O55 O 0.91695 0.86078 0.20746 0.0
Mg56 Mg 0.13369 0.67221 0.95505 0.0
O57 O 0.138 0.58892 0.92955 0.0
O58 O 0.15943 0.63621 0.90753 0.0
Mg59 Mg 0.17049 0.74312 0.91854 0.0
C60 C 0.14782 0.58653 0.91305 0.0
C61 C 0.10359 0.63343 0.98687 0.0
O62 O 0.10595 0.69823 0.98956 0.0
O63 O 0.17872 0.66197 0.96337 0.0
O64 O 0.19835 0.71034 0.94094 0.0
O65 O 0.0947 0.70662 0.94341 0.0
O66 O 0.1356 0.74337 0.93726 0.0
C67 C 0.1999 0.68284 0.95571 0.0
C68 C 0.1097 0.74254 0.93419 0.0
O69 O 0.11699 0.60089 0.97357 0.0
Mg70 Mg 0.09389 0.51267 0.29581 0.0
O71 O 0.10968 0.58352 0.32125 0.0
O72 O 0.1377 0.52706 0.33764 0.0
Mg73 Mg 0.14142 0.42178 0.32184 0.0
C74 C 0.12526 0.58021 0.3353 0.0
C75 C 0.05315 0.5912 0.27559 0.0
O76 O 0.04195 0.53216 0.27379 0.0
O77 O 0.13427 0.5182 0.28071 0.0
O78 O 0.16181 0.4581 0.29645 0.0
O79 O 0.06031 0.47961 0.3131 0.0
O80 O 0.1008 0.43171 0.30937 0.0
C81 C 0.15741 0.49159 0.28308 0.0
C82 C 0.07721 0.43502 0.31721 0.0
O83 O 0.07603 0.60022 0.28388 0.0
Mg84 Mg 0.89923 0.31665 0.03671 0.0
O85 O 0.88317 0.39 0.06168 0.0
O86 O 0.85053 0.3376 0.07535 0.0
Mg87 Mg 0.84787 0.23068 0.06092 0.0
C88 C 0.86481 0.38905 0.07416 0.0
C89 C 0.94339 0.38234 0.01682 0.0
O90 O 0.9486 0.31879 0.01268 0.0
O91 O 0.85997 0.32661 0.01979 0.0
O92 O 0.83131 0.26629 0.03446 0.0
O93 O 0.93099 0.2804 0.05475 0.0
O94 O 0.88975 0.23701 0.05049 0.0
C95 C 0.83663 0.29979 0.02128 0.0
C96 C 0.91315 0.23792 0.05872 0.0
O97 O 0.92169 0.40021 0.02573 0.0
Mg98 Mg 0.88758 0.46136 0.69989 0.0
O99 O 0.87652 0.38391 0.67459 0.0
O100 O 0.84795 0.43305 0.65669 0.0
Mg101 Mg 0.83967 0.53903 0.67095 0.0
C102 C 0.86174 0.38281 0.65994 0.0
C103 C 0.93002 0.41285 0.72282 0.0
O104 O 0.9332 0.47665 0.72261 0.0
O105 O 0.84642 0.44746 0.71325 0.0
O106 O 0.81862 0.50128 0.69591 0.0
O107 O 0.92117 0.50002 0.6838 0.0
O108 O 0.87905 0.53988 0.68554 0.0
C109 C 0.82282 0.46949 0.70968 0.0
C110 C 0.90345 0.54177 0.67916 0.0
O111 O 0.90951 0.3844 0.71433 0.0
Mg112 Mg 0.6128 0.20034 0.93908 0.0
O113 O 0.61963 0.10876 0.91763 0.0
O114 O 0.63782 0.13463 0.89141 0.0
Mg115 Mg 0.64395 0.24793 0.89716 0.0
C116 C 0.62854 0.09206 0.90108 0.0
C117 C 0.57971 0.14034 0.96803 0.0
O118 O 0.56473 0.19105 0.96491 0.0
O119 O 0.65831 0.20569 0.94623 0.0
O120 O 0.67543 0.24001 0.92058 0.0
O121 O 0.57231 0.21774 0.92602 0.0
O122 O 0.61153 0.26056 0.91851 0.0
C123 C 0.67838 0.22474 0.93705 0.0
C124 C 0.58563 0.2544 0.91598 0.0
O125 O 0.60284 0.13183 0.96017 0.0
Mg126 Mg 0.61689 0.08045 0.29202 0.0
O127 O 0.62373 0.17212 0.31395 0.0
O128 O 0.6479 0.14564 0.33806 0.0
Mg129 Mg 0.65914 0.03619 0.33043 0.0
C130 C 0.63497 0.18774 0.32994 0.0
C131 C 0.5796 0.12199 0.26122 0.0
O132 O 0.57864 0.05732 0.25684 0.0
O133 O 0.66051 0.08933 0.2809 0.0
O134 O 0.68346 0.0583 0.30508 0.0
O135 O 0.5811 0.04984 0.30805 0.0
O136 O 0.62362 0.01838 0.31184 0.0
C137 C 0.6829 0.07606 0.28882 0.0
C138 C 0.59851 0.0176 0.31678 0.0
O139 O 0.59659 0.1473 0.27354 0.0
Mg140 Mg 0.41955 0.81122 0.05351 0.0
O141 O 0.40474 0.9093 0.07026 0.0
O142 O 0.37309 0.88489 0.09046 0.0
Mg143 Mg 0.36666 0.77254 0.08586 0.0
C144 C 0.38781 0.92668 0.08348 0.0
C145 C 0.46567 0.8398 0.0288 0.0
O146 O 0.47182 0.78319 0.03444 0.0
O147 O 0.3807 0.80249 0.03588 0.0
O148 O 0.34999 0.77286 0.05593 0.0
O149 O 0.45097 0.7995 0.07516 0.0
O150 O 0.40868 0.76152 0.07534 0.0
C151 C 0.3566 0.78448 0.03961 0.0
C152 C 0.43213 0.77039 0.08345 0.0
O153 O 0.44285 0.86654 0.03357 0.0
Mg154 Mg 0.37734 0.93169 0.69952 0.0
O155 O 0.36971 0.85858 0.6725 0.0
O156 O 0.34783 0.91239 0.65205 0.0
Mg157 Mg 0.33879 0.01707 0.6665 0.0
C158 C 0.35899 0.86024 0.65642 0.0
C159 C 0.41554 0.86161 0.72299 0.0
O160 O 0.42256 0.92422 0.72677 0.0
O161 O 0.3329 0.9205 0.70876 0.0
O162 O 0.3122 0.97622 0.68813 0.0
O163 O 0.41502 0.96956 0.68715 0.0
O164 O 0.37396 0.01243 0.6851 0.0
C165 C 0.31137 0.94393 0.70202 0.0
C166 C 0.39938 0.01231 0.68079 0.0
O167 O 0.39438 0.84656 0.71304 0.0
Mg168 Mg 0.60827 0.70612 0.44788 0.0
O169 O 0.62016 0.62392 0.42372 0.0
O170 O 0.6504 0.67056 0.40643 0.0
Mg171 Mg 0.65912 0.77703 0.41961 0.0
C172 C 0.63586 0.62141 0.40952 0.0
C173 C 0.56381 0.66271 0.4701 0.0
O174 O 0.56031 0.72553 0.46858 0.0
O175 O 0.64839 0.69398 0.46305 0.0
O176 O 0.67771 0.74424 0.44613 0.0
O177 O 0.57535 0.74077 0.43033 0.0
O178 O 0.61785 0.77772 0.43127 0.0
C179 C 0.67231 0.71519 0.46021 0.0
C180 C 0.59376 0.7769 0.42398 0.0
O181 O 0.58524 0.63396 0.46319 0.0
Mg182 Mg 0.59476 0.55302 0.79152 0.0
O183 O 0.60571 0.6384 0.81544 0.0
O184 O 0.62623 0.58823 0.83733 0.0
Mg185 Mg 0.62866 0.47678 0.82846 0.0
C186 C 0.61735 0.64031 0.83143 0.0
C187 C 0.56722 0.59213 0.75868 0.0
O188 O 0.56786 0.52715 0.7567 0.0
O189 O 0.63969 0.5453 0.78177 0.0
O190 O 0.65663 0.49323 0.80448 0.0
O191 O 0.55483 0.53531 0.80541 0.0
O192 O 0.59381 0.48624 0.8104 0.0
C193 C 0.65947 0.51713 0.78921 0.0
C194 C 0.56857 0.4963 0.81453 0.0
O195 O 0.58109 0.62416 0.7719 0.0
Mg196 Mg 0.39662 0.30881 0.54907 0.0
O197 O 0.3816 0.40323 0.5672 0.0
O198 O 0.35121 0.37667 0.58787 0.0
Mg199 Mg 0.34602 0.26359 0.582 0.0
C200 C 0.36532 0.41942 0.58083 0.0
C201 C 0.44023 0.364 0.52422 0.0
O202 O 0.45404 0.31391 0.52906 0.0
O203 O 0.35695 0.29989 0.53269 0.0
O204 O 0.32704 0.26632 0.55263 0.0
O205 O 0.42947 0.29647 0.56964 0.0
O206 O 0.3878 0.25468 0.57038 0.0
C207 C 0.33311 0.28049 0.53645 0.0
C208 C 0.41157 0.26459 0.578 0.0
O209 O 0.41569 0.37292 0.52958 0.0
Mg210 Mg 0.38452 0.43843 0.20252 0.0
O211 O 0.37932 0.3644 0.17532 0.0
O212 O 0.36016 0.41818 0.15374 0.0
Mg213 Mg 0.35011 0.52321 0.16746 0.0
C214 C 0.37053 0.36605 0.15871 0.0
C215 C 0.41798 0.31794 0.2111 0.0
O216 O 0.42314 0.31631 0.19322 0.0
O217 O 0.33916 0.42802 0.20957 0.0
O218 O 0.32108 0.48431 0.18811 0.0
O219 O 0.42376 0.47568 0.19211 0.0
O220 O 0.38319 0.51768 0.18756 0.0
C221 C 0.31856 0.45238 0.20198 0.0
C222 C 0.40906 0.51786 0.18474 0.0
O223 O 0.39991 0.35772 0.2187 0.0
H224 H 0.27911 0.24255 0.53837 0.0
H225 H 0.34139 0.28726 0.49938 0.0
H226 H 0.30989 0.25424 0.47314 0.0
H227 H 0.2514 0.10001 0.50995 0.0
H228 H 0.21641 0.11822 0.51636 0.0
H229 H 0.24353 0.14618 0.53248 0.0
H230 H 0.22631 0.26697 0.5345 0.0
H231 H 0.19891 0.23924 0.5186 0.0
H232 H 0.22185 0.30292 0.51331 0.0
H233 H 0.27315 0.21207 0.45105 0.0
H234 H 0.23093 0.17627 0.43424 0.0
H235 H 0.19094 0.16152 0.4871 0.0
C236 C 0.28606 0.24599 0.52434 0.0
C237 C 0.31287 0.26741 0.52101 0.0
C238 C 0.32104 0.2712 0.50238 0.0
C239 C 0.30333 0.25215 0.48733 0.0
C240 C 0.27738 0.22984 0.49106 0.0
C241 C 0.26852 0.22762 0.50908 0.0
C242 C 0.23928 0.20294 0.50909 0.0
C243 C 0.23757 0.13798 0.51747 0.0
C244 C 0.22048 0.2562 0.51949 0.0
C245 C 0.23321 0.19159 0.48825 0.0
C246 C 0.25566 0.20683 0.47818 0.0
C247 C 0.25535 0.2004 0.45877 0.0
C248 C 0.23119 0.17977 0.44935 0.0
C249 C 0.20741 0.16625 0.4593 0.0
C250 C 0.2087 0.1711 0.47905 0.0
H251 H 0.97783 0.8499 0.50458 0.0
H252 H 0.92163 0.00903 0.52429 0.0
H253 H 0.95523 0.09059 0.51642 0.0
H254 H 0.03831 0.93054 0.52182 0.0
H255 H 0.05902 0.89873 0.50198 0.0
H256 H 0.03014 0.85196 0.50816 0.0
H257 H 0.00986 0.84906 0.47486 0.0
H258 H 0.03898 0.89453 0.46845 0.0
H259 H 0.00502 0.92551 0.46551 0.0
H260 H 0.99598 0.15489 0.50856 0.0
H261 H 0.03861 0.19773 0.49694 0.0
H262 H 0.06813 0.99663 0.48172 0.0
C263 C 0.97239 0.90183 0.50696 0.0
C264 C 0.9471 0.92309 0.51507 0.0
C265 C 0.94079 0.99151 0.51799 0.0
C266 C 0.95983 0.03825 0.51371 0.0
C267 C 0.98494 0.01569 0.50637 0.0
C268 C 0.99106 0.94908 0.50266 0.0
C269 C 0.01947 0.93795 0.4946 0.0
C270 C 0.03781 0.90271 0.50741 0.0
C271 C 0.01825 0.89951 0.47467 0.0
C272 C 0.02847 0.00881 0.49451 0.0
C273 C 0.00831 0.05281 0.50151 0.0
C274 C 0.01184 0.12093 0.50291 0.0
C275 C 0.03622 0.14475 0.49636 0.0
C276 C 0.05673 0.10057 0.48836 0.0
C277 C 0.05296 0.03171 0.48784 0.0
H278 H 0.30153 0.93519 0.73914 0.0
H279 H 0.26116 0.95085 0.68634 0.0
H280 H 0.21733 0.97094 0.70269 0.0
H281 H 0.24318 0.85527 0.76053 0.0
H282 H 0.25002 0.90039 0.7834 0.0
H283 H 0.27763 0.8792 0.76724 0.0
H284 H 0.29136 0.00285 0.77072 0.0
H285 H 0.26346 0.02465 0.78654 0.0
H286 H 0.26656 0.06326 0.76572 0.0
H287 H 0.17927 0.00269 0.7248 0.0
H288 H 0.14758 0.03012 0.75117 0.0
H289 H 0.212 0.99283 0.78985 0.0
C290 C 0.2833 0.94057 0.73097 0.0
C291 C 0.28475 0.94128 0.71146 0.0
C292 C 0.26053 0.95012 0.7013 0.0
C293 C 0.23553 0.96173 0.71046 0.0
C294 C 0.23498 0.96395 0.72978 0.0
C295 C 0.25805 0.95239 0.73993 0.0
C296 C 0.25194 0.96069 0.7607 0.0
C297 C 0.25592 0.89497 0.76842 0.0
C298 C 0.26937 0.01617 0.77155 0.0
C299 C 0.22207 0.98009 0.7606 0.0
C300 C 0.21274 0.98172 0.74261 0.0
C301 C 0.18618 0.0007 0.73895 0.0
C302 C 0.16839 0.01676 0.75406 0.0
C303 C 0.1772 0.01352 0.77263 0.0
C304 C 0.20454 0.99557 0.77585 0.0
H305 H 1.00014 0.10336 0.76097 0.0
H306 H 0.0693 0.23268 0.77686 0.0
H307 H 0.04595 0.323 0.76402 0.0
H308 H 0.98517 0.16643 0.71719 0.0
H309 H 0.94874 0.15957 0.71966 0.0
H310 H 0.97114 0.1038 0.72962 0.0
H311 H 0.94908 0.13841 0.76208 0.0
H312 H 0.92673 0.19457 0.75226 0.0
H313 H 0.94825 0.22467 0.77194 0.0
H314 H 0.0149 0.40048 0.75116 0.0
H315 H 0.97862 0.46042 0.73711 0.0
H316 H 0.92932 0.28171 0.72854 0.0
C317 C 0.01045 0.15052 0.76162 0.0
C318 C 0.03656 0.16091 0.76995 0.0
C319 C 0.04935 0.22339 0.77053 0.0
C320 C 0.03624 0.27512 0.7633 0.0
C321 C 0.01043 0.26353 0.75542 0.0
C322 C 0.99771 0.20278 0.75434 0.0
C323 C 0.96982 0.20407 0.74519 0.0
C324 C 0.96866 0.15559 0.72682 0.0
C325 C 0.94713 0.18958 0.75868 0.0
C326 C 0.9688 0.27532 0.74154 0.0
C327 C 0.99248 0.30851 0.74761 0.0
C328 C 0.99632 0.37503 0.74622 0.0
C329 C 0.97549 0.40867 0.73826 0.0
C330 C 0.95111 0.37577 0.73169 0.0
C331 C 0.94775 0.30812 0.73338 0.0
H332 H 0.81489 0.81228 0.51102 0.0
H333 H 0.7811 0.74005 0.55985 0.0
H334 H 0.73943 0.70571 0.54215 0.0
H335 H 0.75151 0.87753 0.49574 0.0
H336 H 0.75862 0.85438 0.47121 0.0
H337 H 0.78629 0.87239 0.48762 0.0
H338 H 0.80737 0.75743 0.47604 0.0
H339 H 0.77956 0.73878 0.45974 0.0
H340 H 0.78716 0.68396 0.47653 0.0
H341 H 0.70146 0.6778 0.51943 0.0
H342 H 0.66776 0.66789 0.49375 0.0
H343 H 0.72531 0.7593 0.45966 0.0
C344 C 0.79871 0.78949 0.51801 0.0
C345 C 0.80148 0.77886 0.53686 0.0
C346 C 0.77966 0.74894 0.54545 0.0
C347 C 0.75586 0.72882 0.53549 0.0
C348 C 0.75396 0.73907 0.51693 0.0
C349 C 0.7746 0.76932 0.50829 0.0
C350 C 0.76682 0.7762 0.48832 0.0
C351 C 0.76574 0.84948 0.48557 0.0
C352 C 0.7864 0.73673 0.47434 0.0
C353 C 0.73858 0.74544 0.48722 0.0
C354 C 0.73171 0.72375 0.50382 0.0
C355 C 0.70656 0.69457 0.50633 0.0
C356 C 0.68758 0.68894 0.49162 0.0
C357 C 0.69377 0.71279 0.47464 0.0
C358 C 0.71989 0.74027 0.47239 0.0
H359 H 0.69088 0.06419 0.2506 0.0
H360 H 0.73403 0.07697 0.30365 0.0
H361 H 0.77691 0.04787 0.28697 0.0
H362 H 0.72514 0.92636 0.22794 0.0
H363 H 0.72716 0.95379 0.20535 0.0
H364 H 0.69988 0.98257 0.22107 0.0
H365 H 0.71326 0.10435 0.21951 0.0
H366 H 0.74023 0.076 0.20344 0.0
H367 H 0.74789 0.13088 0.22467 0.0
H368 H 0.81377 0.00414 0.26519 0.0
H369 H 0.84446 0.96505 0.23898 0.0
H370 H 0.77856 0.98404 0.19968 0.0
C371 C 0.70949 0.06288 0.25867 0.0
C372 C 0.709 0.07268 0.27845 0.0
C373 C 0.73379 0.06939 0.2885 0.0
C374 C 0.75831 0.05272 0.27916 0.0
C375 C 0.75787 0.04019 0.25974 0.0
C376 C 0.73432 0.04651 0.24953 0.0
C377 C 0.73956 0.02841 0.22874 0.0
C378 C 0.72188 0.96927 0.22029 0.0
C379 C 0.73497 0.0885 0.21849 0.0
C380 C 0.7695 0.00965 0.22898 0.0
C381 C 0.77956 0.01648 0.24703 0.0
C382 C 0.80629 -0.00049 0.25095 0.0
C383 C 0.8235 0.97671 0.23596 0.0
C384 C 0.81399 0.97163 0.21726 0.0
C385 C 0.7865 0.98773 0.21381 0.0
H386 H 0.93663 0.76147 0.22158 0.0
H387 H 0.97767 0.94895 0.23872 0.0
H388 H 0.01174 0.89252 0.25605 0.0
H389 H 0.94795 0.69382 0.26516 0.0
H390 H 0.95326 0.61092 0.25333 0.0
H391 H 0.93125 0.66682 0.2431 0.0
H392 H 0.9599 0.64841 0.21271 0.0
H393 H 0.98211 0.59292 0.22289 0.0
H394 H 0.99613 0.66371 0.21397 0.0
H395 H 0.04286 0.81505 0.26999 0.0
H396 H 0.06761 0.72221 0.28087 0.0
H397 H 0.00605 0.58564 0.25487 0.0
C398 C 0.95257 0.79082 0.22916 0.0
C399 C 0.95447 0.85964 0.22879 0.0
C400 C 0.97577 0.89617 0.23881 0.0
C401 C 0.99525 0.86459 0.24869 0.0
C402 C 0.99308 0.79653 0.24849 0.0
C403 C 0.97218 0.76012 0.23913 0.0
C404 C 0.97488 0.68734 0.24078 0.0
C405 C 0.95038 0.66333 0.25122 0.0
C406 C 0.97848 0.64567 0.22144 0.0
C407 C 1.00076 0.68847 0.25233 0.0
C408 C 0.01093 0.75192 0.25664 0.0
C409 C 0.035 0.76516 0.26682 0.0
C410 C 0.04896 0.71209 0.27287 0.0
C411 C 0.03875 0.64671 0.26875 0.0
C412 C 0.01433 0.63505 0.25833 0.0
H413 H 0.30216 0.75397 0.04227 0.0
H414 H 0.36525 0.78158 0.00201 0.0
H415 H 0.33276 0.74805 0.97624 0.0
H416 H 0.27043 0.61092 0.01573 0.0
H417 H 0.2362 0.63615 0.02247 0.0
H418 H 0.2644 0.66123 0.03796 0.0
H419 H 0.25085 0.78436 0.03888 0.0
H420 H 0.22237 0.75956 0.02367 0.0
H421 H 0.24697 0.81776 0.01723 0.0
H422 H 0.29389 0.71158 0.9549 0.0
H423 H 0.24957 0.68717 0.93927 0.0
H424 H 0.21119 0.68373 0.99318 0.0
C425 C 0.30917 0.75322 0.02804 0.0
C426 C 0.33637 0.77033 0.02421 0.0
C427 C 0.34457 0.76894 0.00536 0.0
C428 C 0.32632 0.74943 0.9906 0.0
C429 C 0.2999 0.73159 0.99489 0.0
C430 C 0.29119 0.73412 0.01313 0.0
C431 C 0.26135 0.71497 0.01388 0.0
C432 C 0.25791 0.65207 0.02306 0.0
C433 C 0.24439 0.7726 0.02401 0.0
C434 C 0.25457 0.70189 0.99318 0.0
C435 C 0.27724 0.71102 0.98251 0.0
C436 C 0.27601 0.70416 0.96309 0.0
C437 C 0.25073 0.6901 0.95434 0.0
C438 C 0.22691 0.68329 0.96499 0.0
C439 C 0.22908 0.68744 0.98465 0.0
H440 H 0.08454 0.50538 0.9791 0.0
H441 H 0.07095 0.69218 0.01493 0.0
H442 H 0.02832 0.64841 0.02626 0.0
H443 H 0.0167 0.47606 0.9653 0.0
H444 H 0.01743 0.38797 0.96562 0.0
H445 H 0.04831 0.43105 0.96137 0.0
H446 H 0.07219 0.38654 0.98911 0.0
H447 H 0.04157 0.34212 0.9932 0.0
H448 H 0.05647 0.39916 0.01187 0.0
H449 H 0.98491 0.5891 0.03128 0.0
H450 H 0.94655 0.51189 0.03303 0.0
H451 H 0.98873 0.36261 0.99465 0.0
C452 C 0.07297 0.5365 0.98968 0.0
C453 C 0.08111 0.6023 0.99609 0.0
C454 C 0.06518 0.64163 0.00978 0.0
C455 C 0.04083 0.61734 0.01627 0.0
C456 C 0.0328 0.55336 0.00908 0.0
C457 C 0.04862 0.51293 -0.00362 0.0
C458 C 0.03498 0.44652 0.99062 0.0
C459 C 0.02901 0.43475 0.96947 0.0
C460 C 0.05234 0.39026 -0.00344 0.0
C461 C 0.00888 0.45646 0.00184 0.0
C462 C 0.00796 0.51858 0.0123 0.0
C463 C 0.98551 0.53999 0.02333 0.0
C464 C 0.96372 0.49599 0.0241 0.0
C465 C 0.96467 0.4312 0.01401 0.0
C466 C 0.98745 0.41173 0.00258 0.0
H467 H 0.30473 0.42245 0.2369 0.0
H468 H 0.27019 0.48203 0.18639 0.0
H469 H 0.2257 0.49957 0.20185 0.0
H470 H 0.24288 0.33638 0.25018 0.0
H471 H 0.24818 0.36329 0.27481 0.0
H472 H 0.27699 0.35069 0.25929 0.0
H473 H 0.29294 0.47069 0.27074 0.0
H474 H 0.26391 0.48409 0.28601 0.0
H475 H 0.27001 0.53858 0.26892 0.0
H476 H 0.18624 0.5211 0.22335 0.0
H477 H 0.15209 0.53068 0.24854 0.0
H478 H 0.21125 0.4545 0.28505 0.0
C479 C 0.28766 0.43761 0.22895 0.0
C480 C 0.29108 0.45107 0.21043 0.0
C481 C 0.26822 0.47165 0.20061 0.0
C482 C 0.2428 0.48195 0.20927 0.0
C483 C 0.2404 0.47091 0.22773 0.0
C484 C 0.26198 0.44798 0.23739 0.0
C485 C 0.25382 0.44116 0.25725 0.0
C486 C 0.25556 0.36856 0.26057 0.0
C487 C 0.27121 0.48633 0.27157 0.0
C488 C 0.22447 0.46478 0.25725 0.0
C489 C 0.21725 0.48205 0.2401 0.0
C490 C 0.19151 0.50702 0.2368 0.0
C491 C 0.17232 0.51278 0.25126 0.0
C492 C 0.17889 0.49319 0.26878 0.0
C493 C 0.2055 0.46968 0.27181 0.0
H494 H 0.69255 0.2093 0.9731 0.0
H495 H 0.72534 0.26812 0.92218 0.0
H496 H 0.76874 0.29885 0.9385 0.0
H497 H 0.72306 0.33856 0.00479 0.0
H498 H 0.73009 0.28724 0.02257 0.0
H499 H 0.7017 0.2681 0.00681 0.0
H500 H 0.72066 0.14977 -0.00316 0.0
H501 H 0.74885 0.16822 0.01279 0.0
H502 H 0.75519 0.13937 0.98841 0.0
H503 H 0.80843 0.32665 0.96081 0.0
H504 H 0.84238 0.33899 0.98654 0.0
H505 H 0.78322 0.26217 0.02253 0.0
C506 C 0.70891 0.22792 0.96528 0.0
C507 C 0.7054 0.23622 0.94633 0.0
C508 C 0.72742 0.26113 0.9367 0.0
C509 C 0.75217 0.27908 0.94587 0.0
C510 C 0.75468 0.27176 0.96466 0.0
C511 C 0.73375 0.24608 0.97419 0.0
C512 C 0.74169 0.24273 0.9943 0.0
C513 C 0.72302 0.28679 0.00792 0.0
C514 C 0.7416 0.17075 -0.00169 0.0
C515 C 0.77035 0.2704 0.99456 0.0
C516 C 0.77747 0.28735 0.9774 0.0
C517 C 0.80309 0.31345 0.97432 0.0
C518 C 0.82219 0.32069 0.98905 0.0
C519 C 0.81555 0.30151 0.00657 0.0
C520 C 0.78905 0.27729 0.00933 0.0
H521 H 0.67503 0.54785 0.75449 0.0
H522 H 0.70503 0.46318 0.80261 0.0
H523 H 0.7486 0.43726 0.78679 0.0
H524 H 0.70724 0.43081 0.71933 0.0
H525 H 0.716 0.49106 0.70439 0.0
H526 H 0.68657 0.5039 0.71935 0.0
H527 H 0.70561 0.61773 0.73433 0.0
H528 H 0.73491 0.60557 0.71926 0.0
H529 H 0.73948 0.62259 0.74426 0.0
H530 H 0.78858 0.41743 0.76597 0.0
H531 H 0.82454 0.41473 0.74215 0.0
H532 H 0.76991 0.51351 0.70746 0.0
C533 C 0.69082 0.52433 0.76174 0.0
C534 C 0.68635 0.50738 0.7798 0.0
C535 C 0.70768 0.47656 0.78876 0.0
C536 C 0.73261 0.46132 0.77988 0.0
C537 C 0.73616 0.47736 0.76201 0.0
C538 C 0.71609 0.50887 0.75307 0.0
C539 C 0.7257 0.52167 0.73398 0.0
C540 C 0.70781 0.48464 0.71834 0.0
C541 C 0.72648 0.59633 0.7329 0.0
C542 C 0.75422 0.49251 0.73373 0.0
C543 C 0.75968 0.46674 0.74999 0.0
C544 C 0.78464 0.43755 0.75315 0.0
C545 C 0.80492 0.43604 0.73949 0.0
C546 C 0.80017 0.46393 0.7229 0.0
C547 C 0.77425 0.49155 0.71994 0.0
H548 H 0.52966 0.14114 0.98473 0.0
H549 H 0.60331 0.02351 0.97415 0.0
H550 H 0.58194 0.93358 0.98847 0.0
H551 H 0.51331 0.08859 0.02954 0.0
H552 H 0.47708 0.08815 0.02512 0.0
H553 H 0.49883 0.14432 0.01493 0.0
H554 H 0.48036 0.09751 0.98201 0.0
H555 H 0.45883 0.04062 0.99206 0.0
H556 H 0.48272 0.00993 0.97396 0.0
H557 H 0.55179 0.85464 0.00247 0.0
H558 H 0.51604 0.79446 0.01703 0.0
H559 H 0.46199 0.96375 0.01834 0.0
C560 C 0.54147 0.09687 0.98563 0.0
C561 C 0.56818 0.08938 0.97834 0.0
C562 C 0.58286 0.03046 0.97971 0.0
C563 C 0.57086 0.97902 0.98776 0.0
C564 C 0.54426 0.98747 0.99441 0.0
C565 C 0.52983 0.04513 0.9936 0.0
C566 C 0.50138 0.04128 0.00147 0.0
C567 C 0.49743 0.09369 0.0188 0.0
C568 C 0.47954 0.0477 0.98647 0.0
C569 C 0.50197 0.97213 0.00667 0.0
C570 C 0.52688 0.94197 0.00248 0.0
C571 C 0.53225 0.87785 0.0059 0.0
C572 C 0.51175 0.84402 0.01413 0.0
C573 C 0.48621 0.87438 0.01883 0.0
C574 C 0.48126 0.9391 0.01487 0.0
H575 H 0.45147 0.21154 0.20079 0.0
H576 H 0.43063 0.36068 0.24767 0.0
H577 H 0.4705 0.32788 0.26515 0.0
H578 H 0.47558 0.08697 0.22999 0.0
H579 H 0.50206 0.05761 0.21362 0.0
H580 H 0.47083 0.09025 0.20537 0.0
H581 H 0.49893 0.17372 0.18943 0.0
H582 H 0.5302 0.14255 0.19801 0.0
H583 H 0.52213 0.22935 0.20329 0.0
H584 H 0.51573 0.28993 0.27566 0.0
H585 H 0.55841 0.23246 0.28171 0.0
H586 H 0.54825 0.10114 0.22929 0.0
C587 C 0.45495 0.23611 0.21491 0.0
C588 C 0.43799 0.28865 0.22288 0.0
C589 C 0.44319 0.31987 0.24136 0.0
C590 C 0.46594 0.30204 0.25133 0.0
C591 C 0.48291 0.25196 0.24278 0.0
C592 C 0.47724 0.21793 0.22524 0.0
C593 C 0.49869 0.16558 0.21937 0.0
C594 C 0.48604 0.09597 0.21695 0.0
C595 C 0.51335 0.17862 0.20146 0.0
C596 C 0.51762 0.17664 0.23617 0.0
C597 C 0.50831 0.22743 0.24936 0.0
C598 C 0.523 0.2493 0.26561 0.0
C599 C 0.54739 0.21684 0.2688 0.0
C600 C 0.55658 0.16233 0.25597 0.0
C601 C 0.54162 0.14253 0.23935 0.0
H602 H 0.45989 0.87659 0.74642 0.0
H603 H 0.41543 0.73018 0.70831 0.0
H604 H 0.4513 0.64777 0.71177 0.0
H605 H 0.52677 0.82871 0.73098 0.0
H606 H 0.54192 0.84176 0.754 0.0
H607 H 0.51256 0.88941 0.74896 0.0
H608 H 0.48627 0.85045 0.77646 0.0
H609 H 0.51575 0.80384 0.78182 0.0
H610 H 0.48323 0.76312 0.77758 0.0
H611 H 0.49287 0.58315 0.71815 0.0
H612 H 0.53404 0.53514 0.73052 0.0
H613 H 0.55112 0.72284 0.76511 0.0
C614 C 0.45753 0.82699 0.73896 0.0
C615 C 0.43487 0.80984 0.72707 0.0
C616 C 0.43252 0.74436 0.71758 0.0
C617 C 0.4529 0.69738 0.71932 0.0
C618 C 0.47536 0.71653 0.73072 0.0
C619 C 0.47756 0.77935 0.74066 0.0
C620 C 0.50346 0.78673 0.75232 0.0
C621 C 0.52229 0.83981 0.74619 0.0
C622 C 0.49677 0.8019 0.77329 0.0
C623 C 0.51553 0.71818 0.74735 0.0
C624 C 0.49912 0.67879 0.73471 0.0
C625 C 0.50581 0.61339 0.72813 0.0
C626 C 0.52934 0.58669 0.73519 0.0
C627 C 0.54582 0.62513 0.74883 0.0
C628 C 0.53911 0.69229 0.7546 0.0
H629 H 0.49216 0.3597 0.50976 0.0
H630 H 0.41927 0.48183 0.51715 0.0
H631 H 0.44308 0.57 0.50373 0.0
H632 H 0.5401 0.488 0.52187 0.0
H633 H 0.56497 0.45615 0.50456 0.0
H634 H 0.54196 0.40035 0.51381 0.0
H635 H 0.52554 0.355 0.48027 0.0
H636 H 0.5487 0.41023 0.47089 0.0
H637 H 0.51285 0.4117 0.46529 0.0
H638 H 0.47515 0.64748 0.49186 0.0
H639 H 0.51282 0.70772 0.47958 0.0
H640 H 0.56508 0.53533 0.47878 0.0
C641 C 0.48111 0.40466 0.50835 0.0
C642 C 0.45385 0.41388 0.51453 0.0
C643 C 0.44012 0.4735 0.51247 0.0
C644 C 0.45348 0.52399 0.50491 0.0
C645 C 0.48047 0.51387 0.49931 0.0
C646 C 0.49408 0.45552 0.50068 0.0
C647 C 0.52319 0.458 0.49376 0.0
C648 C 0.54376 0.45017 0.50944 0.0
C649 C 0.52784 0.40562 0.47653 0.0
C650 C 0.52388 0.52736 0.48862 0.0
C651 C 0.49899 0.55855 0.492 0.0
C652 C 0.49467 0.62345 0.48896 0.0
C653 C 0.51629 0.65732 0.48207 0.0
C654 C 0.5419 0.62618 0.47817 0.0
C655 C 0.54571 0.5603 0.48154 0.0
H656 H 0.12308 0.71095 0.33049 0.0
H657 H 0.13364 0.58208 0.37277 0.0
H658 H 0.13616 0.67989 0.39727 0.0
H659 H 0.17091 0.83573 0.35128 0.0
H660 H 0.15132 0.90355 0.34471 0.0
H661 H 0.14963 0.8233 0.33066 0.0
H662 H 0.09703 0.82333 0.33426 0.0
H663 H 0.09858 0.90345 0.34839 0.0
H664 H 0.08237 0.83535 0.35735 0.0
H665 H 0.13478 0.79228 0.41737 0.0
H666 H 0.13512 0.91079 0.43105 0.0
H667 H 0.12947 0.96573 0.37535 0.0
C668 C 0.12592 0.70341 0.34491 0.0
C669 C 0.12801 0.63901 0.34977 0.0
C670 C 0.13208 0.63105 0.36875 0.0
C671 C 0.1334 0.68626 0.38277 0.0
C672 C 0.13111 0.74913 0.37753 0.0
C673 C 0.12792 0.75799 0.35902 0.0
C674 C 0.1271 0.8308 0.35702 0.0
C675 C 0.15118 0.84942 0.34522 0.0
C676 C 0.09964 0.8493 0.34877 0.0
C677 C 0.13005 0.8615 0.3773 0.0
C678 C 0.13194 0.81363 0.38896 0.0
C679 C 0.13364 0.83019 0.40836 0.0
C680 C 0.13371 0.89749 0.41601 0.0
C681 C 0.13264 0.9472 0.40424 0.0
C682 C 0.13075 0.9287 0.38466 0.0
H683 H 0.11698 0.18409 0.38582 0.0
H684 H 0.04315 0.2402 0.4169 0.0
H685 H 0.02766 0.30224 0.39172 0.0
H686 H 0.12964 0.33273 0.3718 0.0
H687 H 0.14224 0.3008 0.34886 0.0
H688 H 0.14502 0.25174 0.36753 0.0
H689 H 0.11878 0.15575 0.34772 0.0
H690 H 0.11619 0.20429 0.32882 0.0
H691 H 0.08583 0.17138 0.33806 0.0
H692 H 0.0245 0.37341 0.36575 0.0
H693 H 0.03247 0.4406 0.34033 0.0
H694 H 0.10778 0.33325 0.32631 0.0
C695 C 0.09737 0.20844 0.38719 0.0
C696 C 0.08136 0.20812 0.40329 0.0
C697 C 0.05559 0.2397 0.40452 0.0
C698 C 0.04668 0.27507 0.39033 0.0
C699 C 0.06359 0.27683 0.37493 0.0
C700 C 0.08815 0.24313 0.37313 0.0
C701 C 0.10361 0.25652 0.35605 0.0
C702 C 0.13177 0.28729 0.36139 0.0
C703 C 0.10624 0.19321 0.34182 0.0
C704 C 0.08462 0.30571 0.34901 0.0
C705 C 0.06148 0.31646 0.35989 0.0
C706 C 0.04225 0.36432 0.35689 0.0
C707 C 0.04699 0.40239 0.34249 0.0
C708 C 0.07083 0.39241 0.33144 0.0
C709 C 0.08944 0.34243 0.33456 0.0
H710 H 0.13935 0.19891 0.87257 0.0
H711 H 0.12221 0.25958 0.81854 0.0
H712 H 0.12588 0.37668 0.83261 0.0
H713 H 0.09953 0.32867 0.89915 0.0
H714 H 0.12254 0.33991 0.91889 0.0
H715 H 0.11993 0.26031 0.90455 0.0
H716 H 0.17203 0.26045 0.89872 0.0
H717 H 0.17482 0.33997 0.91307 0.0
H718 H 0.1873 0.32901 0.88939 0.0
H719 H 0.13265 0.48605 0.85192 0.0
H720 H 0.13889 0.58335 0.87596 0.0
H721 H 0.14813 0.45479 0.9185 0.0
C722 C 0.13662 0.23698 0.86372 0.0
C723 C 0.13074 0.22027 0.84441 0.0
C724 C 0.12675 0.27132 0.83333 0.0
C725 C 0.12885 0.33794 0.84119 0.0
C726 C 0.13449 0.35285 0.86024 0.0
C727 C 0.13803 0.30408 0.87146 0.0
C728 C 0.14273 0.33425 0.89172 0.0
C729 C 0.11981 0.31461 0.90432 0.0
C730 C 0.1709 0.31476 0.89863 0.0
C731 C 0.14152 0.40752 0.89005 0.0
C732 C 0.13703 0.41677 0.87169 0.0
C733 C 0.136 0.47952 0.86636 0.0
C734 C 0.13966 0.53446 0.88012 0.0
C735 C 0.14392 0.52664 0.89909 0.0
C736 C 0.14464 0.46221 0.90414 0.0
H737 H 0.1311 0.75053 0.90013 0.0
H738 H 0.06171 0.81181 0.93533 0.0
H739 H 0.04484 0.87933 0.91162 0.0
H740 H 0.14419 0.90274 0.8856 0.0
H741 H 0.15394 0.86809 0.8622 0.0
H742 H 0.15857 0.82072 0.88113 0.0
H743 H 0.12973 0.725 0.86334 0.0
H744 H 0.12518 0.77194 0.84426 0.0
H745 H 0.09584 0.74184 0.85543 0.0
H746 H 0.0384 0.94801 0.8846 0.0
H747 H 0.04215 0.0063 0.85677 0.0
H748 H 0.11623 0.89658 0.84064 0.0
C749 C 0.11247 0.77837 0.90294 0.0
C750 C 0.09798 0.77738 0.91962 0.0
C751 C 0.07307 0.81237 0.92252 0.0
C752 C 0.06342 0.85079 0.90919 0.0
C753 C 0.0788 0.85238 0.89304 0.0
C754 C 0.10263 0.81623 0.88985 0.0
C755 C 0.11608 0.8271 0.87184 0.0
C756 C 0.14489 0.85642 0.87542 0.0
C757 C 0.11673 0.76264 0.85789 0.0
C758 C 0.0966 0.87667 0.86557 0.0
C759 C 0.07505 0.89059 0.87777 0.0
C760 C 0.05509 0.93699 0.87488 0.0
C761 C 0.05738 0.96991 0.85911 0.0
C762 C 0.0796 0.95636 0.84668 0.0
C763 C 0.09914 0.9087 0.84997 0.0
H764 H 0.86855 0.25386 0.66603 0.0
H765 H 0.85328 0.37469 0.62233 0.0
H766 H 0.85304 0.27429 0.59873 0.0
H767 H 0.91231 0.13382 0.63981 0.0
H768 H 0.89848 0.06454 0.64956 0.0
H769 H 0.89801 0.14596 0.66301 0.0
H770 H 0.84569 0.13729 0.66706 0.0
H771 H 0.846 0.05581 0.65364 0.0
H772 H 0.82421 0.11915 0.64664 0.0
H773 H 0.85694 0.16153 0.5797 0.0
H774 H 0.86048 0.04287 0.56684 0.0
H775 H 0.86944 0.99406 0.62305 0.0
C776 C 0.86522 0.25911 0.65149 0.0
C777 C 0.86108 0.32211 0.64598 0.0
C778 C 0.85642 0.32692 0.62685 0.0
C779 C 0.85634 0.27021 0.61335 0.0
C780 C 0.8605 0.20888 0.61922 0.0
C781 C 0.86449 0.20281 0.63785 0.0
C782 C 0.86758 0.1308 0.64047 0.0
C783 C 0.89577 0.11805 0.6487 0.0
C784 C 0.84449 0.10952 0.65268 0.0
C785 C 0.86497 0.09744 0.62039 0.0
C786 C 0.86122 0.14348 0.60833 0.0
C787 C 0.85954 0.12495 0.58902 0.0
C788 C 0.86164 0.05754 0.58184 0.0
C789 C 0.86489 0.00939 0.59396 0.0
C790 C 0.86646 0.02977 0.61349 0.0
H791 H 0.92795 0.52298 0.64498 0.0
H792 H 0.89469 0.67296 0.68736 0.0
H793 H 0.90493 0.75912 0.66764 0.0
H794 H 0.98076 0.62836 0.62536 0.0
H795 H 0.97356 0.59084 0.6017 0.0
H796 H 0.96987 0.54324 0.62073 0.0
H797 H 0.91976 0.516 0.6108 0.0
H798 H 0.92348 0.5626 0.59169 0.0
H799 H 0.8965 0.58278 0.60844 0.0
H800 H 0.91275 0.82578 0.64233 0.0
H801 H 0.91119 0.86541 0.61157 0.0
H802 H 0.9364 0.67208 0.58457 0.0
C803 C 0.92367 0.57435 0.65021 0.0
C804 C 0.91104 0.59218 0.66766 0.0
C805 C 0.9046 0.65905 0.67399 0.0
C806 C 0.91062 0.70821 0.663 0.0
C807 C 0.92275 0.68931 0.64565 0.0
C808 C 0.92887 0.62382 0.63915 0.0
C809 C 0.9372 0.61512 0.61879 0.0
C810 C 0.96714 0.59309 0.61652 0.0
C811 C 0.91809 0.5663 0.60673 0.0
C812 C 0.93357 0.68525 0.61466 0.0
C813 C 0.92622 0.72773 0.63053 0.0
C814 C 0.91915 0.79355 0.62989 0.0
C815 C 0.91844 0.81579 0.61244 0.0
C816 C 0.92446 0.772 0.59604 0.0
C817 C 0.93282 0.70674 0.59715 0.0
H818 H 0.90099 0.48769 0.08777 0.0
H819 H 0.81664 0.42624 0.09118 0.0
H820 H 0.80711 0.52638 0.11369 0.0
H821 H 0.90783 0.5531 0.13719 0.0
H822 H 0.92952 0.62074 0.13306 0.0
H823 H 0.92982 0.54447 0.11704 0.0
H824 H 0.91857 0.60877 0.08953 0.0
H825 H 0.91838 0.6852 0.10545 0.0
H826 H 0.88897 0.66173 0.09095 0.0
H827 H 0.80585 0.63675 0.13394 0.0
H828 H 0.81387 0.7471 0.15236 0.0
H829 H 0.89974 0.73264 0.13835 0.0
C830 C 0.88052 0.4955 0.09324 0.0
C831 C 0.85949 0.44942 0.08764 0.0
C832 C 0.83305 0.46084 0.09529 0.0
C833 C 0.82743 0.51758 0.10807 0.0
C834 C 0.84859 0.56192 0.11336 0.0
C835 C 0.87469 0.55126 0.10637 0.0
C836 C 0.8938 0.60633 0.11462 0.0
C837 C 0.91659 0.57954 0.12616 0.0
C838 C 0.90562 0.64265 0.09922 0.0
C839 C 0.87425 0.65011 0.12707 0.0
C840 C 0.84822 0.62374 0.12601 0.0
C841 C 0.82623 0.65733 0.13518 0.0
C842 C 0.83093 0.71977 0.14559 0.0
C843 C 0.85746 0.74719 0.14705 0.0
C844 C 0.87942 0.71161 0.13786 0.0
H845 H 0.87553 0.00018 0.13226 0.0
H846 H 0.96086 0.00276 0.14847 0.0
H847 H 0.97183 0.0671 0.12295 0.0
H848 H 0.88756 0.9871 0.08124 0.0
H849 H 0.85863 0.03898 0.07807 0.0
H850 H 0.85834 0.98745 0.09633 0.0
H851 H 0.84854 0.09075 0.12074 0.0
H852 H 0.84918 0.14267 0.10263 0.0
H853 H 0.87148 0.16041 0.12262 0.0
H854 H 0.97209 0.14411 0.0986 0.0
H855 H 0.96242 0.21772 0.07501 0.0
H856 H 0.8774 0.15785 0.07393 0.0
C857 C 0.89656 0.01334 0.13028 0.0
C858 C 0.91733 0.99702 0.14234 0.0
C859 C 0.94469 0.01461 0.13924 0.0
C860 C 0.95109 0.05126 0.12485 0.0
C861 C 0.92993 0.06847 0.11354 0.0
C862 C 0.90332 0.04887 0.11585 0.0
C863 C 0.88416 0.07552 0.1023 0.0
C864 C 0.87143 0.01888 0.08867 0.0
C865 C 0.86205 0.11997 0.1127 0.0
C866 C 0.90399 0.11523 0.09247 0.0
C867 C 0.93029 0.11066 0.09911 0.0
C868 C 0.95166 0.14708 0.09303 0.0
C869 C 0.94594 0.18901 0.07973 0.0
C870 C 0.91912 0.19373 0.07266 0.0
C871 C 0.89807 0.15565 0.07901 0.0
H872 H 0.61728 0.76911 0.82304 0.0
H873 H 0.62221 0.65455 0.8692 0.0
H874 H 0.62616 0.75708 0.8914 0.0
H875 H 0.66654 0.89392 0.84215 0.0
H876 H 0.64862 0.96153 0.83402 0.0
H877 H 0.64568 0.87912 0.82135 0.0
H878 H 0.59307 0.8856 0.82433 0.0
H879 H 0.59585 0.96808 0.83697 0.0
H880 H 0.57794 0.90506 0.84717 0.0
H881 H 0.62823 0.86969 0.90885 0.0
H882 H 0.63006 0.98862 0.92081 0.0
H883 H 0.6261 0.03418 0.86394 0.0
C884 C 0.61913 0.7658 0.83782 0.0
C885 C 0.61949 0.70359 0.84434 0.0
C886 C 0.62211 0.70138 0.8638 0.0
C887 C 0.62429 0.75942 0.87658 0.0
C888 C 0.62407 0.81969 0.86976 0.0
C889 C 0.62172 0.82368 0.85088 0.0
C890 C 0.62251 0.89545 0.84748 0.0
C891 C 0.64732 0.90824 0.83555 0.0
C892 C 0.59575 0.91467 0.83846 0.0
C893 C 0.62545 0.93076 0.86741 0.0
C894 C 0.62614 0.88574 0.87997 0.0
C895 C 0.62788 0.90554 0.89918 0.0
C896 C 0.62885 0.97329 0.90583 0.0
C897 C 0.62835 0.02077 0.89333 0.0
C898 C 0.62684 -0.00096 0.87382 0.0
H899 H 0.60001 0.37378 0.90813 0.0
H900 H 0.54135 0.2163 0.89328 0.0
H901 H 0.52314 0.27535 0.86805 0.0
H902 H 0.55518 0.51301 0.89702 0.0
H903 H 0.58406 0.55412 0.88843 0.0
H904 H 0.58851 0.50534 0.90715 0.0
H905 H 0.62583 0.43561 0.88794 0.0
H906 H 0.62157 0.48449 0.8694 0.0
H907 H 0.61786 0.39584 0.86461 0.0
H908 H 0.51803 0.34191 0.84096 0.0
H909 H 0.52689 0.40764 0.81521 0.0
H910 H 0.58692 0.52315 0.84967 0.0
C911 C 0.58291 0.35245 0.89982 0.0
C912 C 0.57211 0.29066 0.90241 0.0
C913 C 0.54974 0.26397 0.89142 0.0
C914 C 0.53926 0.29729 0.87718 0.0
C915 C 0.55094 0.35779 0.87464 0.0
C916 C 0.57203 0.38545 0.88594 0.0
C917 C 0.58314 0.44711 0.87947 0.0
C918 C 0.57736 0.50853 0.89388 0.0
C919 C 0.61389 0.44026 0.87509 0.0
C920 C 0.5663 0.44776 0.862 0.0
C921 C 0.54739 0.39686 0.85953 0.0
C922 C 0.53213 0.38308 0.84304 0.0
C923 C 0.53716 0.42065 0.82854 0.0
C924 C 0.55737 0.47047 0.83075 0.0
C925 C 0.57114 0.48581 0.84788 0.0
H926 H 0.6347 0.23568 0.36758 0.0
H927 H 0.63269 0.29725 0.31252 0.0
H928 H 0.63275 0.41427 0.32707 0.0
H929 H 0.58884 0.36513 0.38915 0.0
H930 H 0.60645 0.3754 0.41134 0.0
H931 H 0.60665 0.29621 0.39666 0.0
H932 H 0.6595 0.29593 0.3973 0.0
H933 H 0.65947 0.3752 0.41193 0.0
H934 H 0.67784 0.36449 0.39013 0.0
H935 H 0.6362 0.52361 0.34726 0.0
H936 H 0.63763 0.62019 0.37205 0.0
H937 H 0.63323 0.48981 0.41437 0.0
C938 C 0.63426 0.27391 0.35862 0.0
C939 C 0.63388 0.25752 0.33891 0.0
C940 C 0.63293 0.30875 0.32764 0.0
C941 C 0.63306 0.37532 0.33577 0.0
C942 C 0.6336 0.38987 0.35521 0.0
C943 C 0.63371 0.3408 0.36653 0.0
C944 C 0.6334 0.37031 0.38707 0.0
C945 C 0.60727 0.35059 0.39661 0.0
C946 C 0.65908 0.35028 0.3972 0.0
C947 C 0.63354 0.44361 0.38548 0.0
C948 C 0.63398 0.45353 0.36695 0.0
C949 C 0.63553 0.51656 0.36182 0.0
C950 C 0.63649 0.57103 0.37599 0.0
C951 C 0.63542 0.56234 0.39508 0.0
C952 C 0.63376 0.49775 0.39987 0.0
H953 H 0.62835 0.79919 0.39625 0.0
H954 H 0.54534 0.83283 0.41573 0.0
H955 H 0.53609 0.89659 0.3896 0.0
H956 H 0.64012 0.9564 0.38313 0.0
H957 H 0.65993 0.92492 0.36282 0.0
H958 H 0.65917 0.88057 0.38261 0.0
H959 H 0.6427 0.77487 0.36119 0.0
H960 H 0.64352 0.81887 0.3413 0.0
H961 H 0.61256 0.77868 0.34699 0.0
H962 H 0.53751 0.9626 0.36195 0.0
H963 H 0.54891 0.01983 0.33488 0.0
H964 H 0.63053 0.93687 0.33414 0.0
C965 C 0.60834 0.82045 0.3952 0.0
C966 C 0.58773 0.81239 0.40815 0.0
C967 C 0.56143 0.83892 0.40588 0.0
C968 C 0.55603 0.87517 0.39115 0.0
C969 C 0.57709 0.88317 0.37875 0.0
C970 C 0.60261 0.8558 0.38057 0.0
C971 C 0.62187 0.87087 0.36554 0.0
C972 C 0.64673 0.91056 0.37404 0.0
C973 C 0.63067 0.80703 0.35301 0.0
C974 C 0.60346 0.91244 0.35518 0.0
C975 C 0.57767 0.91913 0.36287 0.0
C976 C 0.5576 0.9573 0.35575 0.0
C977 C 0.56423 0.98961 0.34043 0.0
C978 C 0.59068 0.98334 0.33256 0.0
C979 C 0.61025 0.94358 0.33997 0.0
H980 H 0.37069 0.23552 0.16422 0.0
H981 H 0.37656 0.36233 0.12107 0.0
H982 H 0.38213 0.26395 0.09716 0.0
H983 H 0.41898 0.11179 0.14489 0.0
H984 H 0.3995 0.04344 0.15114 0.0
H985 H 0.39683 0.12394 0.16496 0.0
H986 H 0.34441 0.12189 0.16 0.0
H987 H 0.34693 0.04139 0.14617 0.0
H988 H 0.33073 0.10835 0.13655 0.0
H989 H 0.38929 0.15198 0.07813 0.0
H990 H 0.39298 0.03352 0.06491 0.0
H991 H 0.3785 0.9792 0.11992 0.0
C992 C 0.37322 0.24248 0.14974 0.0
C993 C 0.37333 0.30655 0.1445 0.0
C994 C 0.37633 0.31368 0.12539 0.0
C995 C 0.37962 0.25813 0.11172 0.0
C996 C 0.37941 0.19566 0.11732 0.0
C997 C 0.37592 0.18743 0.13584 0.0
C998 C 0.37539 0.11471 0.13801 0.0
C999 C 0.39909 0.09748 0.15049 0.0
C1000 C 0.34772 0.09547 0.14563 0.0
C1001 C 0.37929 0.08344 0.11786 0.0
C1002 C 0.38196 0.13102 0.10619 0.0
C1003 C 0.38692 0.11423 0.08709 0.0
C1004 C 0.38905 0.04696 0.07972 0.0
C1005 C 0.38568 -0.00258 0.09135 0.0
C1006 C 0.38068 0.0161 0.11065 0.0
H1007 H 0.38329 0.6183 0.17107 0.0
H1008 H 0.46108 0.51645 0.1704 0.0
H1009 H 0.47849 0.58538 0.14745 0.0
H1010 H 0.37884 0.61768 0.12386 0.0
H1011 H 0.36256 0.69737 0.1251 0.0
H1012 H 0.35837 0.64928 0.14385 0.0
H1013 H 0.37662 0.74729 0.1675 0.0
H1014 H 0.38093 0.79582 0.14875 0.0
H1015 H 0.40942 0.78282 0.16366 0.0
H1016 H 0.48515 0.65666 0.12182 0.0
H1017 H 0.47933 0.71685 0.09462 0.0
H1018 H 0.39657 0.76737 0.11203 0.0
C1019 C 0.40412 0.61083 0.16631 0.0
C1020 C 0.4208 0.56178 0.17238 0.0
C1021 C 0.44799 0.55396 0.16591 0.0
C1022 C 0.45806 0.59306 0.15296 0.0
C1023 C 0.4407 0.63987 0.14686 0.0
C1024 C 0.4143 0.64881 0.15339 0.0
C1025 C 0.39857 0.69645 0.14324 0.0
C1026 C 0.37311 0.66318 0.13343 0.0
C1027 C 0.39095 0.75933 0.15659 0.0
C1028 C 0.41981 0.71085 0.12935 0.0
C1029 C 0.44425 0.67932 0.13191 0.0
C1030 C 0.46625 0.68227 0.11987 0.0
C1031 C 0.46281 0.7166 0.10452 0.0
C1032 C 0.43741 0.74595 0.10125 0.0
C1033 C 0.41606 0.74471 0.11413 0.0
H1034 H 0.3587 0.72984 0.66215 0.0
H1035 H 0.36088 0.85549 0.61857 0.0
H1036 H 0.36243 0.75643 0.59455 0.0
H1037 H 0.40311 0.60141 0.64024 0.0
H1038 H 0.38372 0.53497 0.64769 0.0
H1039 H 0.38353 0.61574 0.66151 0.0
H1040 H 0.33074 0.61831 0.65959 0.0
H1041 H 0.33078 0.5376 0.64572 0.0
H1042 H 0.31423 0.60597 0.63701 0.0
H1043 H 0.3661 0.64428 0.57538 0.0
H1044 H 0.36785 0.52578 0.56209 0.0
H1045 H 0.35925 0.47214 0.61774 0.0
C1046 C 0.35962 0.73637 0.64755 0.0
C1047 C 0.35984 0.80034 0.6422 0.0
C1048 C 0.36064 0.80696 0.62296 0.0
C1049 C 0.3616 0.75101 0.60922 0.0
C1050 C 0.36127 0.68869 0.61493 0.0
C1051 C 0.35997 0.68094 0.6336 0.0
C1052 C 0.35893 0.60827 0.63589 0.0
C1053 C 0.3838 0.58898 0.64699 0.0
C1054 C 0.33207 0.59157 0.64509 0.0
C1055 C 0.36012 0.57647 0.61559 0.0
C1056 C 0.36178 0.62383 0.60376 0.0
C1057 C 0.36446 0.60673 0.58447 0.0
C1058 C 0.36548 0.53941 0.57706 0.0
C1059 C 0.3633 0.49003 0.58887 0.0
C1060 C 0.36041 0.50895 0.60837 0.0
H1061 H 0.37781 0.25735 0.60735 0.0
H1062 H 0.45999 0.21257 0.58761 0.0
H1063 H 0.46838 0.15198 0.61447 0.0
H1064 H 0.39422 0.27449 0.65843 0.0
H1065 H 0.36217 0.23748 0.66336 0.0
H1066 H 0.36459 0.28538 0.64432 0.0
H1067 H 0.34575 0.1857 0.62156 0.0
H1068 H 0.34358 0.13735 0.64041 0.0
H1069 H 0.36296 0.10698 0.6198 0.0
H1070 H 0.46456 0.08074 0.64043 0.0
H1071 H 0.45003 0.01266 0.6644 0.0
H1072 H 0.37118 0.11037 0.6675 0.0
C1073 C 0.39769 0.23578 0.60886 0.0
C1074 C 0.41818 0.23885 0.59544 0.0
C1075 C 0.44412 0.21089 0.59792 0.0
C1076 C 0.44902 0.17638 0.61308 0.0
C1077 C 0.42793 0.17195 0.62574 0.0
C1078 C 0.40297 0.2022 0.62397 0.0
C1079 C 0.38301 0.18684 0.6386 0.0
C1080 C 0.37557 0.2498 0.65197 0.0
C1081 C 0.35733 0.15215 0.62954 0.0
C1082 C 0.40011 0.14048 0.64831 0.0
C1083 C 0.42604 0.13273 0.64088 0.0
C1084 C 0.44451 0.08753 0.64663 0.0
C1085 C 0.43607 0.04895 0.66018 0.0
C1086 C 0.4094 0.05585 0.66768 0.0
C1087 C 0.39161 0.1034 0.66194 0.0
loop_
_geom_bond_atom_site_label_1
_geom_bond_atom_site_label_2
_geom_bond_distance
_geom_bond_site_symmetry_2
_ccdc_geom_bond_type
Mg0 O1 2.028 . S
Mg0 O7 1.986 . S
Mg0 O9 2.114 . S
Mg0 O10 2.251 . S
Mg0 O13 2.010 . S
O1 Mg0 2.028 . S
O1 C4 1.250 . S
O2 Mg3 2.028 . S
O2 C4 1.248 . S
Mg3 O2 2.028 . S
Mg3 O8 2.032 . S
Mg3 O10 2.079 . S
C4 O1 1.250 . S
C4 O2 1.248 . S
C5 O6 1.264 . S
C5 O13 1.249 . S
O6 C5 1.264 . S
O7 Mg0 1.986 . S
O7 C11 1.246 . S
O8 Mg3 2.032 . S
O8 C11 1.259 . S
O9 Mg0 2.114 . S
O9 C12 1.252 . S
O10 Mg0 2.251 . S
O10 Mg3 2.079 . S
O10 C12 1.273 . S
C11 O7 1.246 . S
C11 O8 1.259 . S
C12 O9 1.252 . S
C12 O10 1.273 . S
O13 Mg0 2.010 . S
O13 C5 1.249 . S
Mg14 O15 2.028 . S
Mg14 O21 1.986 . S
Mg14 O23 2.114 . S
Mg14 O24 2.251 . S
Mg14 O27 2.010 . S
O15 Mg14 2.028 . S
O15 C18 1.250 . S
O16 Mg17 2.028 . S
O16 C18 1.248 . S
Mg17 O16 2.028 . S
Mg17 O22 2.032 . S
Mg17 O24 2.079 . S
C18 O15 1.250 . S
C18 O16 1.248 . S
C19 O20 1.264 . S
C19 O27 1.249 . S
O20 C19 1.264 . S
O21 Mg14 1.986 . S
O21 C25 1.246 . S
O22 Mg17 2.032 . S
O22 C25 1.259 . S
O23 Mg14 2.114 . S
O23 C26 1.252 . S
O24 Mg14 2.251 . S
O24 Mg17 2.079 . S
O24 C26 1.273 . S
C25 O21 1.246 . S
C25 O22 1.259 . S
C26 O23 1.252 . S
C26 O24 1.273 . S
O27 Mg14 2.010 . S
O27 C19 1.249 . S
Mg28 O29 2.028 . S
Mg28 O35 1.986 . S
Mg28 O37 2.114 . S
Mg28 O38 2.251 . S
Mg28 O41 2.010 . S
O29 Mg28 2.028 . S
O29 C32 1.250 . S
O30 Mg31 2.028 . S
O30 C32 1.248 . S
Mg31 O30 2.028 . S
Mg31 O36 2.032 . S
Mg31 O38 2.079 . S
C32 O29 1.250 . S
C32 O30 1.248 . S
C33 O34 1.264 . S
C33 O41 1.249 . S
O34 C33 1.264 . S
O35 Mg28 1.986 . S
O35 C39 1.246 . S
O36 Mg31 2.032 . S
O36 C39 1.259 . S
O37 Mg28 2.114 . S
O37 C40 1.252 . S
O38 Mg28 2.251 . S
O38 Mg31 2.079 . S
O38 C40 1.273 . S
C39 O35 1.246 . S
C39 O36 1.259 . S
C40 O37 1.252 . S
C40 O38 1.273 . S
O41 Mg28 2.010 . S
O41 C33 1.249 . S
Mg42 O43 2.028 . S
Mg42 O49 1.986 . S
Mg42 O51 2.114 . S
Mg42 O52 2.251 . S
Mg42 O55 2.010 . S
O43 Mg42 2.028 . S
O43 C46 1.250 . S
O44 Mg45 2.028 . S
O44 C46 1.248 . S
Mg45 O44 2.028 . S
Mg45 O50 2.032 . S
Mg45 O52 2.079 . S
C46 O43 1.250 . S
C46 O44 1.248 . S
C47 O48 1.264 . S
C47 O55 1.249 . S
O48 C47 1.264 . S
O49 Mg42 1.986 . S
O49 C53 1.246 . S
O50 Mg45 2.032 . S
O50 C53 1.259 . S
O51 Mg42 2.114 . S
O51 C54 1.252 . S
O52 Mg42 2.251 . S
O52 Mg45 2.079 . S
O52 C54 1.273 . S
C53 O49 1.246 . S
C53 O50 1.259 . S
C54 O51 1.252 . S
C54 O52 1.273 . S
O55 Mg42 2.010 . S
O55 C47 1.249 . S
Mg56 O57 2.028 . S
Mg56 O63 1.986 . S
Mg56 O65 2.114 . S
Mg56 O66 2.251 . S
Mg56 O69 2.010 . S
O57 Mg56 2.028 . S
O57 C60 1.250 . S
O58 Mg59 2.028 . S
O58 C60 1.248 . S
Mg59 O58 2.028 . S
Mg59 O64 2.032 . S
Mg59 O66 2.079 . S
C60 O57 1.250 . S
C60 O58 1.248 . S
C61 O62 1.264 . S
C61 O69 1.249 . S
O62 C61 1.264 . S
O63 Mg56 1.986 . S
O63 C67 1.246 . S
O64 Mg59 2.032 . S
O64 C67 1.259 . S
O65 Mg56 2.114 . S
O65 C68 1.252 . S
O66 Mg56 2.251 . S
O66 Mg59 2.079 . S
O66 C68 1.273 . S
C67 O63 1.246 . S
C67 O64 1.259 . S
C68 O65 1.252 . S
C68 O66 1.273 . S
O69 Mg56 2.010 . S
O69 C61 1.249 . S
Mg70 O71 2.028 . S
Mg70 O77 1.986 . S
Mg70 O79 2.114 . S
Mg70 O80 2.251 . S
Mg70 O83 2.010 . S
O71 Mg70 2.028 . S
O71 C74 1.250 . S
O72 Mg73 2.028 . S
O72 C74 1.248 . S
Mg73 O72 2.028 . S
Mg73 O78 2.032 . S
Mg73 O80 2.079 . S
C74 O71 1.250 . S
C74 O72 1.248 . S
C75 O76 1.264 . S
C75 O83 1.249 . S
O76 C75 1.264 . S
O77 Mg70 1.986 . S
O77 C81 1.246 . S
O78 Mg73 2.032 . S
O78 C81 1.259 . S
O79 Mg70 2.114 . S
O79 C82 1.252 . S
O80 Mg70 2.251 . S
O80 Mg73 2.079 . S
O80 C82 1.273 . S
C81 O77 1.246 . S
C81 O78 1.259 . S
C82 O79 1.252 . S
C82 O80 1.273 . S
O83 Mg70 2.010 . S
O83 C75 1.249 . S
Mg84 O85 2.028 . S
Mg84 O91 1.986 . S
Mg84 O93 2.114 . S
Mg84 O94 2.251 . S
Mg84 O97 2.010 . S
O85 Mg84 2.028 . S
O85 C88 1.250 . S
O86 Mg87 2.028 . S
O86 C88 1.248 . S
Mg87 O86 2.028 . S
Mg87 O92 2.032 . S
Mg87 O94 2.079 . S
C88 O85 1.250 . S
C88 O86 1.248 . S
C89 O90 1.264 . S
C89 O97 1.249 . S
O90 C89 1.264 . S
O91 Mg84 1.986 . S
O91 C95 1.246 . S
O92 Mg87 2.032 . S
O92 C95 1.259 . S
O93 Mg84 2.114 . S
O93 C96 1.252 . S
O94 Mg84 2.251 . S
O94 Mg87 2.079 . S
O94 C96 1.273 . S
C95 O91 1.246 . S
C95 O92 1.259 . S
C96 O93 1.252 . S
C96 O94 1.273 . S
O97 Mg84 2.010 . S
O97 C89 1.249 . S
Mg98 O99 2.028 . S
Mg98 O105 1.986 . S
Mg98 O107 2.114 . S
Mg98 O108 2.251 . S
Mg98 O111 2.010 . S
O99 Mg98 2.028 . S
O99 C102 1.250 . S
O100 Mg101 2.028 . S
O100 C102 1.248 . S
Mg101 O100 2.028 . S
Mg101 O106 2.032 . S
Mg101 O108 2.079 . S
C102 O99 1.250 . S
C102 O100 1.248 . S
C103 O104 1.264 . S
C103 O111 1.249 . S
O104 C103 1.264 . S
O105 Mg98 1.986 . S
O105 C109 1.246 . S
O106 Mg101 2.032 . S
O106 C109 1.259 . S
O107 Mg98 2.114 . S
O107 C110 1.252 . S
O108 Mg98 2.251 . S
O108 Mg101 2.079 . S
O108 C110 1.273 . S
C109 O105 1.246 . S
C109 O106 1.259 . S
C110 O107 1.252 . S
C110 O108 1.273 . S
O111 Mg98 2.010 . S
O111 C103 1.249 . S
Mg112 O113 2.028 . S
Mg112 O119 1.986 . S
Mg112 O121 2.114 . S
Mg112 O122 2.251 . S
Mg112 O125 2.010 . S
O113 Mg112 2.028 . S
O113 C116 1.250 . S
O114 Mg115 2.028 . S
O114 C116 1.248 . S
Mg115 O114 2.028 . S
Mg115 O120 2.032 . S
Mg115 O122 2.079 . S
C116 O113 1.250 . S
C116 O114 1.248 . S
C117 O118 1.264 . S
C117 O125 1.249 . S
O118 C117 1.264 . S
O119 Mg112 1.986 . S
O119 C123 1.246 . S
O120 Mg115 2.032 . S
O120 C123 1.259 . S
O121 Mg112 2.114 . S
O121 C124 1.252 . S
O122 Mg112 2.251 . S
O122 Mg115 2.079 . S
O122 C124 1.273 . S
C123 O119 1.246 . S
C123 O120 1.259 . S
C124 O121 1.252 . S
C124 O122 1.273 . S
O125 Mg112 2.010 . S
O125 C117 1.249 . S
Mg126 O127 2.028 . S
Mg126 O133 1.986 . S
Mg126 O135 2.114 . S
Mg126 O136 2.251 . S
Mg126 O139 2.010 . S
O127 Mg126 2.028 . S
O127 C130 1.250 . S
O128 Mg129 2.028 . S
O128 C130 1.248 . S
Mg129 O128 2.028 . S
Mg129 O134 2.032 . S
Mg129 O136 2.079 . S
C130 O127 1.250 . S
C130 O128 1.248 . S
C131 O132 1.264 . S
C131 O139 1.249 . S
O132 C131 1.264 . S
O133 Mg126 1.986 . S
O133 C137 1.246 . S
O134 Mg129 2.032 . S
O134 C137 1.259 . S
O135 Mg126 2.114 . S
O135 C138 1.252 . S
O136 Mg126 2.251 . S
O136 Mg129 2.079 . S
O136 C138 1.273 . S
C137 O133 1.246 . S
C137 O134 1.259 . S
C138 O135 1.252 . S
C138 O136 1.273 . S
O139 Mg126 2.010 . S
O139 C131 1.249 . S
Mg140 O141 2.028 . S
Mg140 O147 1.986 . S
Mg140 O149 2.114 . S
Mg140 O150 2.251 . S
Mg140 O153 2.010 . S
O141 Mg140 2.028 . S
O141 C144 1.250 . S
O142 Mg143 2.028 . S
O142 C144 1.248 . S
Mg143 O142 2.028 . S
Mg143 O148 2.032 . S
Mg143 O150 2.079 . S
C144 O141 1.250 . S
C144 O142 1.248 . S
C145 O146 1.264 . S
C145 O153 1.249 . S
O146 C145 1.264 . S
O147 Mg140 1.986 . S
O147 C151 1.246 . S
O148 Mg143 2.032 . S
O148 C151 1.259 . S
O149 Mg140 2.114 . S
O149 C152 1.252 . S
O150 Mg140 2.251 . S
O150 Mg143 2.079 . S
O150 C152 1.273 . S
C151 O147 1.246 . S
C151 O148 1.259 . S
C152 O149 1.252 . S
C152 O150 1.273 . S
O153 Mg140 2.010 . S
O153 C145 1.249 . S
Mg154 O155 2.028 . S
Mg154 O161 1.986 . S
Mg154 O163 2.114 . S
Mg154 O164 2.251 . S
Mg154 O167 2.010 . S
O155 Mg154 2.028 . S
O155 C158 1.250 . S
O156 Mg157 2.028 . S
O156 C158 1.248 . S
Mg157 O156 2.028 . S
Mg157 O162 2.032 . S
Mg157 O164 2.079 . S
C158 O155 1.250 . S
C158 O156 1.248 . S
C159 O160 1.264 . S
C159 O167 1.249 . S
O160 C159 1.264 . S
O161 Mg154 1.986 . S
O161 C165 1.246 . S
O162 Mg157 2.032 . S
O162 C165 1.259 . S
O163 Mg154 2.114 . S
O163 C166 1.252 . S
O164 Mg154 2.251 . S
O164 Mg157 2.079 . S
O164 C166 1.273 . S
C165 O161 1.246 . S
C165 O162 1.259 . S
C166 O163 1.252 . S
C166 O164 1.273 . S
O167 Mg154 2.010 . S
O167 C159 1.249 . S
Mg168 O169 2.028 . S
Mg168 O175 1.986 . S
Mg168 O177 2.114 . S
Mg168 O178 2.251 . S
Mg168 O181 2.010 . S
O169 Mg168 2.028 . S
O169 C172 1.250 . S
O170 Mg171 2.028 . S
O170 C172 1.248 . S
Mg171 O170 2.028 . S
Mg171 O176 2.032 . S
Mg171 O178 2.079 . S
C172 O169 1.250 . S
C172 O170 1.248 . S
C173 O174 1.264 . S
C173 O181 1.249 . S
O174 C173 1.264 . S
O175 Mg168 1.986 . S
O175 C179 1.246 . S
O176 Mg171 2.032 . S
O176 C179 1.259 . S
O177 Mg168 2.114 . S
O177 C180 1.252 . S
O178 Mg168 2.251 . S
O178 Mg171 2.079 . S
O178 C180 1.273 . S
C179 O175 1.246 . S
C179 O176 1.259 . S
C180 O177 1.252 . S
C180 O178 1.273 . S
O181 Mg168 2.010 . S
O181 C173 1.249 . S
Mg182 O183 2.028 . S
Mg182 O189 1.986 . S
Mg182 O191 2.114 . S
Mg182 O192 2.251 . S
Mg182 O195 2.010 . S
O183 Mg182 2.028 . S
O183 C186 1.250 . S
O184 Mg185 2.028 . S
O184 C186 1.248 . S
Mg185 O184 2.028 . S
Mg185 O190 2.032 . S
Mg185 O192 2.079 . S
C186 O183 1.250 . S
C186 O184 1.248 . S
C187 O188 1.264 . S
C187 O195 1.249 . S
O188 C187 1.264 . S
O189 Mg182 1.986 . S
O189 C193 1.246 . S
O190 Mg185 2.032 . S
O190 C193 1.259 . S
O191 Mg182 2.114 . S
O191 C194 1.252 . S
O192 Mg182 2.251 . S
O192 Mg185 2.079 . S
O192 C194 1.273 . S
C193 O189 1.246 . S
C193 O190 1.259 . S
C194 O191 1.252 . S
C194 O192 1.273 . S
O195 Mg182 2.010 . S
O195 C187 1.249 . S
Mg196 O197 2.028 . S
Mg196 O203 1.986 . S
Mg196 O205 2.114 . S
Mg196 O206 2.251 . S
Mg196 O209 2.010 . S
O197 Mg196 2.028 . S
O197 C200 1.250 . S
O198 Mg199 2.028 . S
O198 C200 1.248 . S
Mg199 O198 2.028 . S
Mg199 O204 2.032 . S
Mg199 O206 2.079 . S
C200 O197 1.250 . S
C200 O198 1.248 . S
C201 O202 1.264 . S
C201 O209 1.249 . S
O202 C201 1.264 . S
O203 Mg196 1.986 . S
O203 C207 1.246 . S
O204 Mg199 2.032 . S
O204 C207 1.259 . S
O205 Mg196 2.114 . S
O205 C208 1.252 . S
O206 Mg196 2.251 . S
O206 Mg199 2.079 . S
O206 C208 1.273 . S
C207 O203 1.246 . S
C207 O204 1.259 . S
C208 O205 1.252 . S
C208 O206 1.273 . S
O209 Mg196 2.010 . S
O209 C201 1.249 . S
Mg210 O211 2.028 . S
Mg210 O217 1.986 . S
Mg210 O219 2.114 . S
Mg210 O220 2.251 . S
Mg210 O223 2.010 . S
O211 Mg210 2.028 . S
O211 C214 1.250 . S
O212 Mg213 2.028 . S
O212 C214 1.248 . S
Mg213 O212 2.028 . S
Mg213 O218 2.032 . S
Mg213 O220 2.079 . S
C214 O211 1.250 . S
C214 O212 1.248 . S
C215 O216 1.264 . S
C215 O223 1.249 . S
O216 C215 1.264 . S
O217 Mg210 1.986 . S
O217 C221 1.246 . S
O218 Mg213 2.032 . S
O218 C221 1.259 . S
O219 Mg210 2.114 . S
O219 C222 1.252 . S
O220 Mg210 2.251 . S
O220 Mg213 2.079 . S
O220 C222 1.273 . S
C221 O217 1.246 . S
C221 O218 1.259 . S
C222 O219 1.252 . S
C222 O220 1.273 . S
O223 Mg210 2.010 . S
O223 C215 1.249 . S
H224 C236 0.930 . S
H225 C238 0.930 . S
H226 C239 0.930 . S
H227 C243 0.959 . S
H228 C243 0.959 . S
H229 C243 0.961 . S
H230 C244 0.960 . S
H231 C244 0.961 . S
H232 C244 0.959 . S
H233 C247 0.929 . S
H234 C248 0.931 . S
H235 C250 0.930 . S
C236 H224 0.930 . S
C236 C237 1.399 . S
C236 C241 1.399 . S
C237 C236 1.399 . S
C237 C238 1.376 . S
C238 H225 0.930 . S
C238 C237 1.376 . S
C238 C239 1.388 . S
C239 H226 0.930 . S
C239 C238 1.388 . S
C239 C240 1.390 . S
C240 C239 1.390 . S
C240 C241 1.394 . S
C240 C246 1.465 . S
C241 C236 1.399 . S
C241 C240 1.394 . S
C241 C242 1.516 . S
C242 C241 1.516 . S
C242 C243 1.502 . S
C242 C244 1.561 . S
C242 C245 1.526 . S
C243 H227 0.959 . S
C243 H228 0.959 . S
C243 H229 0.961 . S
C243 C242 1.502 . S
C244 H230 0.960 . S
C244 H231 0.961 . S
C244 H232 0.959 . S
C244 C242 1.561 . S
C245 C242 1.526 . S
C245 C246 1.396 . S
C245 C250 1.390 . S
C246 C240 1.465 . S
C246 C245 1.396 . S
C246 C247 1.399 . S
C247 H233 0.929 . S
C247 C246 1.399 . S
C247 C248 1.385 . S
C248 H234 0.931 . S
C248 C247 1.385 . S
C248 C249 1.389 . S
C249 C248 1.389 . S
C249 C250 1.387 . S
C250 H235 0.930 . S
C250 C245 1.390 . S
C250 C249 1.387 . S
H251 C263 0.930 . S
H252 C265 0.930 1_545 S
H253 C266 0.930 . S
H254 C270 0.959 . S
H255 C270 0.959 . S
H256 C270 0.961 . S
H257 C271 0.960 1_655 S
H258 C271 0.961 . S
H259 C271 0.959 1_655 S
H260 C274 0.929 1_655 S
H261 C275 0.931 . S
H262 C277 0.930 1_565 S
C263 H251 0.930 . S
C263 C264 1.399 . S
C263 C268 1.399 . S
C264 C263 1.399 . S
C264 C265 1.376 . S
C265 H252 0.930 1_565 S
C265 C264 1.376 . S
C265 C266 1.388 1_565 S
C266 H253 0.930 . S
C266 C265 1.388 1_545 S
C266 C267 1.390 . S
C267 C266 1.390 . S
C267 C268 1.394 1_545 S
C267 C273 1.465 1_655 S
C268 C263 1.399 . S
C268 C267 1.394 1_565 S
C268 C269 1.516 1_655 S
C269 C268 1.516 1_455 S
C269 C270 1.502 . S
C269 C271 1.561 . S
C269 C272 1.526 . S
C270 H254 0.959 . S
C270 H255 0.959 . S
C270 H256 0.961 . S
C270 C269 1.502 . S
C271 H257 0.960 1_455 S
C271 H258 0.961 . S
C271 H259 0.959 1_455 S
C271 C269 1.561 . S
C272 C269 1.526 . S
C272 C273 1.396 1_565 S
C272 C277 1.390 1_565 S
C273 C267 1.465 1_455 S
C273 C272 1.396 1_545 S
C273 C274 1.399 . S
C274 H260 0.929 1_455 S
C274 C273 1.399 . S
C274 C275 1.385 . S
C275 H261 0.931 . S
C275 C274 1.385 . S
C275 C276 1.389 . S
C276 C275 1.389 . S
C276 C277 1.387 . S
C277 H262 0.930 1_545 S
C277 C272 1.390 1_545 S
C277 C276 1.387 . S
H278 C290 0.930 . S
H279 C292 0.930 . S
H280 C293 0.930 . S
H281 C297 0.959 . S
H282 C297 0.959 . S
H283 C297 0.961 . S
H284 C298 0.960 . S
H285 C298 0.961 . S
H286 C298 0.959 . S
H287 C301 0.929 . S
H288 C302 0.931 . S
H289 C304 0.930 1_565 S
C290 H278 0.930 . S
C290 C291 1.399 . S
C290 C295 1.399 . S
C291 C290 1.399 . S
C291 C292 1.376 1_565 S
C292 H279 0.930 . S
C292 C291 1.376 1_545 S
C292 C293 1.388 . S
C293 H280 0.930 . S
C293 C292 1.388 . S
C293 C294 1.390 . S
C294 C293 1.390 . S
C294 C295 1.394 1_545 S
C294 C300 1.465 . S
C295 C290 1.399 . S
C295 C294 1.394 1_565 S
C295 C296 1.516 . S
C296 C295 1.516 . S
C296 C297 1.502 . S
C296 C298 1.561 . S
C296 C299 1.526 . S
C297 H281 0.959 . S
C297 H282 0.959 . S
C297 H283 0.961 . S
C297 C296 1.502 . S
C298 H284 0.960 . S
C298 H285 0.961 . S
C298 H286 0.959 . S
C298 C296 1.561 . S
C299 C296 1.526 . S
C299 C300 1.396 1_565 S
C299 C304 1.390 1_565 S
C300 C294 1.465 . S
C300 C299 1.396 1_545 S
C300 C301 1.399 . S
C301 H287 0.929 . S
C301 C300 1.399 . S
C301 C302 1.385 . S
C302 H288 0.931 . S
C302 C301 1.385 . S
C302 C303 1.389 . S
C303 C302 1.389 . S
C303 C304 1.387 . S
C304 H289 0.930 1_545 S
C304 C299 1.390 1_545 S
C304 C303 1.387 . S
H305 C317 0.930 . S
H306 C319 0.930 . S
H307 C320 0.930 . S
H308 C324 0.959 . S
H309 C324 0.959 1_655 S
H310 C324 0.961 . S
H311 C325 0.960 . S
H312 C325 0.961 . S
H313 C325 0.959 . S
H314 C328 0.929 . S
H315 C329 0.931 . S
H316 C331 0.930 . S
C317 H305 0.930 . S
C317 C318 1.399 . S
C317 C322 1.399 . S
C318 C317 1.399 . S
C318 C319 1.376 . S
C319 H306 0.930 . S
C319 C318 1.376 . S
C319 C320 1.388 . S
C320 H307 0.930 . S
C320 C319 1.388 . S
C320 C321 1.390 . S
C321 C320 1.390 . S
C321 C322 1.394 . S
C321 C327 1.465 1_455 S
C322 C317 1.399 . S
C322 C321 1.394 . S
C322 C323 1.516 1_455 S
C323 C322 1.516 1_655 S
C323 C324 1.502 1_655 S
C323 C325 1.561 . S
C323 C326 1.526 . S
C324 H308 0.959 . S
C324 H309 0.959 1_455 S
C324 H310 0.961 . S
C324 C323 1.502 1_455 S
C325 H311 0.960 . S
C325 H312 0.961 . S
C325 H313 0.959 . S
C325 C323 1.561 . S
C326 C323 1.526 . S
C326 C327 1.396 . S
C326 C331 1.390 . S
C327 C321 1.465 1_655 S
C327 C326 1.396 . S
C327 C328 1.399 . S
C328 H314 0.929 . S
C328 C327 1.399 . S
C328 C329 1.385 . S
C329 H315 0.931 . S
C329 C328 1.385 . S
C329 C330 1.389 . S
C330 C329 1.389 . S
C330 C331 1.387 . S
C331 H316 0.930 . S
C331 C326 1.390 . S
C331 C330 1.387 . S
H332 C344 0.930 . S
H333 C346 0.930 . S
H334 C347 0.930 . S
H335 C351 0.959 . S
H336 C351 0.959 . S
H337 C351 0.961 . S
H338 C352 0.960 . S
H339 C352 0.961 . S
H340 C352 0.959 . S
H341 C355 0.929 . S
H342 C356 0.931 . S
H343 C358 0.930 . S
C344 H332 0.930 . S
C344 C345 1.399 . S
C344 C349 1.399 . S
C345 C344 1.399 . S
C345 C346 1.376 . S
C346 H333 0.930 . S
C346 C345 1.376 . S
C346 C347 1.388 . S
C347 H334 0.930 . S
C347 C346 1.388 . S
C347 C348 1.390 . S
C348 C347 1.390 . S
C348 C349 1.394 . S
C348 C354 1.465 . S
C349 C344 1.399 . S
C349 C348 1.394 . S
C349 C350 1.516 . S
C350 C349 1.516 . S
C350 C351 1.502 . S
C350 C352 1.561 . S
C350 C353 1.526 . S
C351 H335 0.959 . S
C351 H336 0.959 . S
C351 H337 0.961 . S
C351 C350 1.502 . S
C352 H338 0.960 . S
C352 H339 0.961 . S
C352 H340 0.959 . S
C352 C350 1.561 . S
C353 C350 1.526 . S
C353 C354 1.396 . S
C353 C358 1.390 . S
C354 C348 1.465 . S
C354 C353 1.396 . S
C354 C355 1.399 . S
C355 H341 0.929 . S
C355 C354 1.399 . S
C355 C356 1.385 . S
C356 H342 0.931 . S
C356 C355 1.385 . S
C356 C357 1.389 . S
C357 C356 1.389 . S
C357 C358 1.387 . S
C358 H343 0.930 . S
C358 C353 1.390 . S
C358 C357 1.387 . S
H359 C371 0.930 . S
H360 C373 0.930 . S
H361 C374 0.930 . S
H362 C378 0.959 . S
H363 C378 0.959 . S
H364 C378 0.961 . S
H365 C379 0.960 . S
H366 C379 0.961 . S
H367 C379 0.959 . S
H368 C382 0.929 . S
H369 C383 0.931 . S
H370 C385 0.930 1_545 S
C371 H359 0.930 . S
C371 C372 1.399 . S
C371 C376 1.399 . S
C372 C371 1.399 . S
C372 C373 1.376 . S
C373 H360 0.930 . S
C373 C372 1.376 . S
C373 C374 1.388 1_545 S
C374 H361 0.930 . S
C374 C373 1.388 1_565 S
C374 C375 1.390 . S
C375 C374 1.390 . S
C375 C376 1.394 1_565 S
C375 C381 1.465 . S
C376 C371 1.399 . S
C376 C375 1.394 1_545 S
C376 C377 1.516 . S
C377 C376 1.516 . S
C377 C378 1.502 . S
C377 C379 1.561 . S
C377 C380 1.525 . S
C378 H362 0.959 . S
C378 H363 0.959 . S
C378 H364 0.961 . S
C378 C377 1.502 . S
C379 H365 0.960 . S
C379 H366 0.961 . S
C379 H367 0.959 . S
C379 C377 1.561 . S
C380 C377 1.525 . S
C380 C381 1.397 1_545 S
C380 C385 1.390 1_545 S
C381 C375 1.465 . S
C381 C380 1.397 1_565 S
C381 C382 1.399 . S
C382 H368 0.929 . S
C382 C381 1.399 . S
C382 C383 1.385 . S
C383 H369 0.931 . S
C383 C382 1.385 . S
C383 C384 1.389 . S
C384 C383 1.389 . S
C384 C385 1.387 . S
C385 H370 0.930 1_565 S
C385 C380 1.390 1_565 S
C385 C384 1.387 . S
H386 C398 0.930 . S
H387 C400 0.930 . S
H388 C401 0.924 1_455 S
H389 C405 0.959 . S
H390 C405 0.959 . S
H391 C405 0.961 . S
H392 C406 0.960 . S
H393 C406 0.961 . S
H394 C406 0.959 . S
H395 C409 0.929 . S
H396 C410 0.931 . S
H397 C412 0.930 . S
C398 H386 0.930 . S
C398 C399 1.399 . S
C398 C403 1.399 . S
C399 C398 1.399 . S
C399 C400 1.376 . S
C400 H387 0.930 . S
C400 C399 1.376 . S
C400 C401 1.394 . S
C401 H388 0.924 1_655 S
C401 C400 1.394 . S
C401 C402 1.390 . S
C402 C401 1.390 . S
C402 C403 1.394 . S
C402 C408 1.465 1_655 S
C403 C398 1.399 . S
C403 C402 1.394 . S
C403 C404 1.516 . S
C404 C403 1.516 . S
C404 C405 1.502 . S
C404 C406 1.561 . S
C404 C407 1.526 1_655 S
C405 H389 0.959 . S
C405 H390 0.959 . S
C405 H391 0.961 . S
C405 C404 1.502 . S
C406 H392 0.960 . S
C406 H393 0.961 . S
C406 H394 0.959 . S
C406 C404 1.561 . S
C407 C404 1.526 1_455 S
C407 C408 1.396 . S
C407 C412 1.390 . S
C408 C402 1.465 1_455 S
C408 C407 1.396 . S
C408 C409 1.399 . S
C409 H395 0.929 . S
C409 C408 1.399 . S
C409 C410 1.385 . S
C410 H396 0.931 . S
C410 C409 1.385 . S
C410 C411 1.389 . S
C411 C410 1.389 . S
C411 C412 1.387 . S
C412 H397 0.930 . S
C412 C407 1.390 . S
C412 C411 1.387 . S
H413 C425 0.930 . S
H414 C427 0.930 . S
H415 C428 0.930 . S
H416 C432 0.959 . S
H417 C432 0.959 . S
H418 C432 0.961 . S
H419 C433 0.960 . S
H420 C433 0.961 . S
H421 C433 0.959 . S
H422 C436 0.929 . S
H423 C437 0.931 . S
H424 C439 0.926 1_554 S
C425 H413 0.930 . S
C425 C426 1.399 . S
C425 C430 1.399 . S
C426 C425 1.399 . S
C426 C427 1.376 . S
C427 H414 0.930 . S
C427 C426 1.376 . S
C427 C428 1.388 1_554 S
C428 H415 0.930 . S
C428 C427 1.388 1_556 S
C428 C429 1.390 . S
C429 C428 1.390 . S
C429 C430 1.394 1_556 S
C429 C435 1.465 . S
C430 C425 1.399 . S
C430 C429 1.394 1_554 S
C430 C431 1.516 . S
C431 C430 1.516 . S
C431 C432 1.502 . S
C431 C433 1.561 . S
C431 C434 1.526 1_554 S
C432 H416 0.959 . S
C432 H417 0.959 . S
C432 H418 0.961 . S
C432 C431 1.502 . S
C433 H419 0.960 . S
C433 H420 0.961 . S
C433 H421 0.959 . S
C433 C431 1.561 . S
C434 C431 1.526 1_556 S
C434 C435 1.396 . S
C434 C439 1.390 . S
C435 C429 1.465 . S
C435 C434 1.396 . S
C435 C436 1.399 . S
C436 H422 0.929 . S
C436 C435 1.399 . S
C436 C437 1.385 . S
C437 H423 0.931 . S
C437 C436 1.385 . S
C437 C438 1.389 . S
C438 C437 1.389 . S
C438 C439 1.387 . S
C439 H424 0.926 1_556 S
C439 C434 1.390 . S
C439 C438 1.387 . S
H440 C452 0.930 . S
H441 C454 0.930 . S
H442 C455 0.945 1_554 S
H443 C459 0.959 1_655 S
H444 C459 0.959 . S
H445 C459 0.961 . S
H446 C460 0.993 . S
H447 C460 0.961 . S
H448 C460 0.959 . S
H449 C463 0.929 . S
H450 C464 0.931 . S
H451 C466 0.930 . S
C452 H440 0.930 . S
C452 C453 1.399 . S
C452 C457 1.399 . S
C453 C452 1.399 . S
C453 C454 1.376 . S
C454 H441 0.930 . S
C454 C453 1.376 . S
C454 C455 1.388 . S
C455 H442 0.945 1_556 S
C455 C454 1.388 . S
C455 C456 1.393 . S
C456 C455 1.393 . S
C456 C457 1.399 . S
C456 C462 1.458 1_456 S
C457 C452 1.399 . S
C457 C456 1.399 . S
C457 C458 1.516 . S
C458 C457 1.516 . S
C458 C459 1.502 . S
C458 C460 1.561 1_556 S
C458 C461 1.526 1_456 S
C459 H443 0.959 1_455 S
C459 H444 0.959 . S
C459 H445 0.961 . S
C459 C458 1.502 . S
C460 H446 0.993 . S
C460 H447 0.961 . S
C460 H448 0.959 . S
C460 C458 1.561 1_554 S
C461 C458 1.526 1_654 S
C461 C462 1.396 . S
C461 C466 1.390 . S
C462 C456 1.458 1_654 S
C462 C461 1.396 . S
C462 C463 1.399 . S
C463 H449 0.929 . S
C463 C462 1.399 . S
C463 C464 1.385 . S
C464 H450 0.931 . S
C464 C463 1.385 . S
C464 C465 1.389 . S
C465 C464 1.389 . S
C465 C466 1.387 . S
C466 H451 0.930 . S
C466 C461 1.390 . S
C466 C465 1.387 . S
H467 C479 0.930 . S
H468 C481 0.930 . S
H469 C482 0.930 . S
H470 C486 0.959 . S
H471 C486 0.959 . S
H472 C486 0.961 . S
H473 C487 0.960 . S
H474 C487 0.961 . S
H475 C487 0.959 . S
H476 C490 0.929 . S
H477 C491 0.931 . S
H478 C493 0.930 . S
C479 H467 0.930 . S
C479 C480 1.399 . S
C479 C484 1.399 . S
C480 C479 1.399 . S
C480 C481 1.376 . S
C481 H468 0.930 . S
C481 C480 1.376 . S
C481 C482 1.388 . S
C482 H469 0.930 . S
C482 C481 1.388 . S
C482 C483 1.390 . S
C483 C482 1.390 . S
C483 C484 1.394 . S
C483 C489 1.465 . S
C484 C479 1.399 . S
C484 C483 1.394 . S
C484 C485 1.516 . S
C485 C484 1.516 . S
C485 C486 1.502 . S
C485 C487 1.561 . S
C485 C488 1.526 . S
C486 H470 0.959 . S
C486 H471 0.959 . S
C486 H472 0.961 . S
C486 C485 1.502 . S
C487 H473 0.960 . S
C487 H474 0.961 . S
C487 H475 0.959 . S
C487 C485 1.561 . S
C488 C485 1.526 . S
C488 C489 1.396 . S
C488 C493 1.390 . S
C489 C483 1.465 . S
C489 C488 1.396 . S
C489 C490 1.399 . S
C490 H476 0.929 . S
C490 C489 1.399 . S
C490 C491 1.385 . S
C491 H477 0.931 . S
C491 C490 1.385 . S
C491 C492 1.389 . S
C492 C491 1.389 . S
C492 C493 1.387 . S
C493 H478 0.930 . S
C493 C488 1.390 . S
C493 C492 1.387 . S
H494 C506 0.930 . S
H495 C508 0.930 . S
H496 C509 0.930 . S
H497 C513 0.959 . S
H498 C513 0.959 . S
H499 C513 0.961 . S
H500 C514 0.960 . S
H501 C514 0.961 . S
H502 C514 0.959 . S
H503 C517 0.929 . S
H504 C518 0.931 . S
H505 C520 0.930 . S
C506 H494 0.930 . S
C506 C507 1.399 . S
C506 C511 1.399 . S
C507 C506 1.399 . S
C507 C508 1.376 . S
C508 H495 0.930 . S
C508 C507 1.376 . S
C508 C509 1.388 . S
C509 H496 0.930 . S
C509 C508 1.388 . S
C509 C510 1.390 . S
C510 C509 1.390 . S
C510 C511 1.394 . S
C510 C516 1.487 . S
C511 C506 1.399 . S
C511 C510 1.394 . S
C511 C512 1.516 1_556 S
C512 C511 1.516 1_554 S
C512 C513 1.502 . S
C512 C514 1.561 . S
C512 C515 1.526 . S
C513 H497 0.959 . S
C513 H498 0.959 . S
C513 H499 0.961 . S
C513 C512 1.502 . S
C514 H500 0.960 . S
C514 H501 0.961 . S
C514 H502 0.959 . S
C514 C512 1.561 . S
C515 C512 1.526 . S
C515 C516 1.361 1_554 S
C515 C520 1.390 . S
C516 C510 1.487 . S
C516 C515 1.361 1_556 S
C516 C517 1.408 . S
C517 H503 0.929 . S
C517 C516 1.408 . S
C517 C518 1.385 1_556 S
C518 H504 0.931 . S
C518 C517 1.385 1_554 S
C518 C519 1.389 . S
C519 C518 1.389 . S
C519 C520 1.387 . S
C520 H505 0.930 . S
C520 C515 1.390 . S
C520 C519 1.387 . S
H521 C533 0.930 . S
H522 C535 0.930 . S
H523 C536 0.930 . S
H524 C540 0.959 . S
H525 C540 0.959 . S
H526 C540 0.961 . S
H527 C541 0.960 . S
H528 C541 0.961 . S
H529 C541 0.959 . S
H530 C544 0.929 . S
H531 C545 0.931 . S
H532 C547 0.930 . S
C533 H521 0.930 . S
C533 C534 1.399 . S
C533 C538 1.399 . S
C534 C533 1.399 . S
C534 C535 1.376 . S
C535 H522 0.930 . S
C535 C534 1.376 . S
C535 C536 1.388 . S
C536 H523 0.930 . S
C536 C535 1.388 . S
C536 C537 1.390 . S
C537 C536 1.390 . S
C537 C538 1.394 . S
C537 C543 1.465 . S
C538 C533 1.399 . S
C538 C537 1.394 . S
C538 C539 1.516 . S
C539 C538 1.516 . S
C539 C540 1.502 . S
C539 C541 1.561 . S
C539 C542 1.526 . S
C540 H524 0.959 . S
C540 H525 0.959 . S
C540 H526 0.961 . S
C540 C539 1.502 . S
C541 H527 0.960 . S
C541 H528 0.961 . S
C541 H529 0.959 . S
C541 C539 1.561 . S
C542 C539 1.526 . S
C542 C543 1.396 . S
C542 C547 1.390 . S
C543 C537 1.465 . S
C543 C542 1.396 . S
C543 C544 1.399 . S
C544 H530 0.929 . S
C544 C543 1.399 . S
C544 C545 1.385 . S
C545 H531 0.931 . S
C545 C544 1.385 . S
C545 C546 1.389 . S
C546 C545 1.389 . S
C546 C547 1.387 . S
C547 H532 0.930 . S
C547 C542 1.390 . S
C547 C546 1.387 . S
H548 C560 0.932 . S
H549 C562 0.930 . S
H550 C563 0.930 . S
H551 C567 0.959 . S
H552 C567 0.959 . S
H553 C567 0.961 . S
H554 C568 0.960 . S
H555 C568 0.961 . S
H556 C568 0.959 . S
H557 C571 0.929 . S
H558 C572 0.931 . S
H559 C574 0.930 1_545 S
C560 H548 0.932 . S
C560 C561 1.399 . S
C560 C565 1.399 . S
C561 C560 1.399 . S
C561 C562 1.376 . S
C562 H549 0.930 . S
C562 C561 1.376 . S
C562 C563 1.388 1_545 S
C563 H550 0.930 . S
C563 C562 1.388 1_565 S
C563 C564 1.390 . S
C564 C563 1.390 . S
C564 C565 1.394 1_565 S
C564 C570 1.465 . S
C565 C560 1.399 . S
C565 C564 1.394 1_545 S
C565 C566 1.516 1_556 S
C566 C565 1.516 1_554 S
C566 C567 1.502 . S
C566 C568 1.561 . S
C566 C569 1.513 1_545 S
C567 H551 0.959 . S
C567 H552 0.959 . S
C567 H553 0.961 . S
C567 C566 1.502 . S
C568 H554 0.960 . S
C568 H555 0.961 . S
C568 H556 0.959 . S
C568 C566 1.561 . S
C569 C566 1.513 1_565 S
C569 C570 1.403 1_554 S
C569 C574 1.396 . S
C570 C564 1.465 . S
C570 C569 1.403 1_556 S
C570 C571 1.399 . S
C571 H557 0.929 . S
C571 C570 1.399 . S
C571 C572 1.385 1_556 S
C572 H558 0.931 . S
C572 C571 1.385 1_554 S
C572 C573 1.389 . S
C573 C572 1.389 . S
C573 C574 1.387 . S
C574 H559 0.930 1_565 S
C574 C569 1.396 . S
C574 C573 1.387 . S
H575 C587 0.930 . S
H576 C589 0.930 . S
H577 C590 0.930 . S
H578 C594 0.959 . S
H579 C594 0.959 . S
H580 C594 0.961 . S
H581 C595 0.960 . S
H582 C595 0.961 . S
H583 C595 0.959 . S
H584 C598 0.929 . S
H585 C599 0.931 . S
H586 C601 0.930 . S
C587 H575 0.930 . S
C587 C588 1.399 . S
C587 C592 1.399 . S
C588 C587 1.399 . S
C588 C589 1.376 . S
C589 H576 0.930 . S
C589 C588 1.376 . S
C589 C590 1.388 . S
C590 H577 0.930 . S
C590 C589 1.388 . S
C590 C591 1.390 . S
C591 C590 1.390 . S
C591 C592 1.394 . S
C591 C597 1.465 . S
C592 C587 1.399 . S
C592 C591 1.394 . S
C592 C593 1.516 . S
C593 C592 1.516 . S
C593 C594 1.502 . S
C593 C595 1.561 . S
C593 C596 1.526 . S
C594 H578 0.959 . S
C594 H579 0.959 . S
C594 H580 0.961 . S
C594 C593 1.502 . S
C595 H581 0.960 . S
C595 H582 0.961 . S
C595 H583 0.959 . S
C595 C593 1.561 . S
C596 C593 1.526 . S
C596 C597 1.396 . S
C596 C601 1.390 . S
C597 C591 1.465 . S
C597 C596 1.396 . S
C597 C598 1.399 . S
C598 H584 0.929 . S
C598 C597 1.399 . S
C598 C599 1.385 . S
C599 H585 0.931 . S
C599 C598 1.385 . S
C599 C600 1.389 . S
C600 C599 1.389 . S
C600 C601 1.387 . S
C601 H586 0.930 . S
C601 C596 1.390 . S
C601 C600 1.387 . S
H602 C614 0.930 . S
H603 C616 0.930 . S
H604 C617 0.930 . S
H605 C621 0.959 . S
H606 C621 0.959 . S
H607 C621 0.961 . S
H608 C622 0.960 . S
H609 C622 0.961 . S
H610 C622 0.959 . S
H611 C625 0.929 . S
H612 C626 0.931 . S
H613 C628 0.930 . S
C614 H602 0.930 . S
C614 C615 1.399 . S
C614 C619 1.399 . S
C615 C614 1.399 . S
C615 C616 1.376 . S
C616 H603 0.930 . S
C616 C615 1.376 . S
C616 C617 1.388 . S
C617 H604 0.930 . S
C617 C616 1.388 . S
C617 C618 1.390 . S
C618 C617 1.390 . S
C618 C619 1.394 . S
C618 C624 1.465 . S
C619 C614 1.399 . S
C619 C618 1.394 . S
C619 C620 1.516 . S
C620 C619 1.516 . S
C620 C621 1.502 . S
C620 C622 1.561 . S
C620 C623 1.526 . S
C621 H605 0.959 . S
C621 H606 0.959 . S
C621 H607 0.961 . S
C621 C620 1.502 . S
C622 H608 0.960 . S
C622 H609 0.961 . S
C622 H610 0.959 . S
C622 C620 1.561 . S
C623 C620 1.526 . S
C623 C624 1.396 . S
C623 C628 1.390 . S
C624 C618 1.465 . S
C624 C623 1.396 . S
C624 C625 1.399 . S
C625 H611 0.929 . S
C625 C624 1.399 . S
C625 C626 1.385 . S
C626 H612 0.931 . S
C626 C625 1.385 . S
C626 C627 1.389 . S
C627 C626 1.389 . S
C627 C628 1.387 . S
C628 H613 0.930 . S
C628 C623 1.390 . S
C628 C627 1.387 . S
H629 C641 0.930 . S
H630 C643 0.930 . S
H631 C644 0.930 . S
H632 C648 0.959 . S
H633 C648 0.959 . S
H634 C648 0.961 . S
H635 C649 0.960 . S
H636 C649 0.961 . S
H637 C649 0.959 . S
H638 C652 0.929 . S
H639 C653 0.931 . S
H640 C655 0.930 . S
C641 H629 0.930 . S
C641 C642 1.399 . S
C641 C646 1.399 . S
C642 C641 1.399 . S
C642 C643 1.376 . S
C643 H630 0.930 . S
C643 C642 1.376 . S
C643 C644 1.388 . S
C644 H631 0.930 . S
C644 C643 1.388 . S
C644 C645 1.390 . S
C645 C644 1.390 . S
C645 C646 1.394 . S
C645 C651 1.465 . S
C646 C641 1.399 . S
C646 C645 1.394 . S
C646 C647 1.516 . S
C647 C646 1.516 . S
C647 C648 1.502 . S
C647 C649 1.561 . S
C647 C650 1.526 . S
C648 H632 0.959 . S
C648 H633 0.959 . S
C648 H634 0.961 . S
C648 C647 1.502 . S
C649 H635 0.960 . S
C649 H636 0.961 . S
C649 H637 0.959 . S
C649 C647 1.561 . S
C650 C647 1.526 . S
C650 C651 1.396 . S
C650 C655 1.390 . S
C651 C645 1.465 . S
C651 C650 1.396 . S
C651 C652 1.399 . S
C652 H638 0.929 . S
C652 C651 1.399 . S
C652 C653 1.385 . S
C653 H639 0.931 . S
C653 C652 1.385 . S
C653 C654 1.389 . S
C654 C653 1.389 . S
C654 C655 1.387 . S
C655 H640 0.930 . S
C655 C650 1.390 . S
C655 C654 1.387 . S
H656 C668 0.930 . S
H657 C670 0.930 . S
H658 C671 0.930 . S
H659 C675 0.959 . S
H660 C675 0.959 1_545 S
H661 C675 0.961 . S
H662 C676 0.960 . S
H663 C676 0.961 . S
H664 C676 0.959 . S
H665 C679 0.929 . S
H666 C680 0.931 . S
H667 C682 0.930 1_545 S
C668 H656 0.930 . S
C668 C669 1.399 . S
C668 C673 1.399 . S
C669 C668 1.399 . S
C669 C670 1.376 . S
C670 H657 0.930 . S
C670 C669 1.376 . S
C670 C671 1.388 . S
C671 H658 0.930 . S
C671 C670 1.388 . S
C671 C672 1.390 . S
C672 C671 1.390 . S
C672 C673 1.394 . S
C672 C678 1.465 . S
C673 C668 1.399 . S
C673 C672 1.394 . S
C673 C674 1.516 . S
C674 C673 1.516 . S
C674 C675 1.502 . S
C674 C676 1.561 . S
C674 C677 1.526 . S
C675 H659 0.959 . S
C675 H660 0.959 1_565 S
C675 H661 0.961 . S
C675 C674 1.502 . S
C676 H662 0.960 . S
C676 H663 0.961 . S
C676 H664 0.959 . S
C676 C674 1.561 . S
C677 C674 1.526 . S
C677 C678 1.396 . S
C677 C682 1.390 . S
C678 C672 1.465 . S
C678 C677 1.396 . S
C678 C679 1.399 . S
C679 H665 0.929 . S
C679 C678 1.399 . S
C679 C680 1.385 . S
C680 H666 0.931 . S
C680 C679 1.385 . S
C680 C681 1.389 . S
C681 C680 1.389 . S
C681 C682 1.387 . S
C682 H667 0.930 1_565 S
C682 C677 1.390 . S
C682 C681 1.387 . S
H683 C695 0.930 . S
H684 C697 0.930 . S
H685 C698 0.930 . S
H686 C702 0.959 . S
H687 C702 0.959 . S
H688 C702 0.961 . S
H689 C703 0.960 . S
H690 C703 0.961 . S
H691 C703 0.959 . S
H692 C706 0.929 . S
H693 C707 0.931 . S
H694 C709 0.930 . S
C695 H683 0.930 . S
C695 C696 1.399 . S
C695 C700 1.399 . S
C696 C695 1.399 . S
C696 C697 1.376 . S
C697 H684 0.930 . S
C697 C696 1.376 . S
C697 C698 1.388 . S
C698 H685 0.930 . S
C698 C697 1.388 . S
C698 C699 1.390 . S
C699 C698 1.390 . S
C699 C700 1.394 . S
C699 C705 1.465 . S
C700 C695 1.399 . S
C700 C699 1.394 . S
C700 C701 1.516 . S
C701 C700 1.516 . S
C701 C702 1.502 . S
C701 C703 1.561 . S
C701 C704 1.526 . S
C702 H686 0.959 . S
C702 H687 0.959 . S
C702 H688 0.961 . S
C702 C701 1.502 . S
C703 H689 0.960 . S
C703 H690 0.961 . S
C703 H691 0.959 . S
C703 C701 1.561 . S
C704 C701 1.526 . S
C704 C705 1.396 . S
C704 C709 1.390 . S
C705 C699 1.465 . S
C705 C704 1.396 . S
C705 C706 1.399 . S
C706 H692 0.929 . S
C706 C705 1.399 . S
C706 C707 1.385 . S
C707 H693 0.931 . S
C707 C706 1.385 . S
C707 C708 1.389 . S
C708 C707 1.389 . S
C708 C709 1.387 . S
C709 H694 0.930 . S
C709 C704 1.390 . S
C709 C708 1.387 . S
H710 C722 0.930 . S
H711 C724 0.930 . S
H712 C725 0.930 . S
H713 C729 0.959 . S
H714 C729 0.959 . S
H715 C729 0.961 . S
H716 C730 0.960 . S
H717 C730 0.961 . S
H718 C730 0.959 . S
H719 C733 0.929 . S
H720 C734 0.931 . S
H721 C736 0.930 . S
C722 H710 0.930 . S
C722 C723 1.399 . S
C722 C727 1.399 . S
C723 C722 1.399 . S
C723 C724 1.376 . S
C724 H711 0.930 . S
C724 C723 1.376 . S
C724 C725 1.388 . S
C725 H712 0.930 . S
C725 C724 1.388 . S
C725 C726 1.390 . S
C726 C725 1.390 . S
C726 C727 1.394 . S
C726 C732 1.465 . S
C727 C722 1.399 . S
C727 C726 1.394 . S
C727 C728 1.516 . S
C728 C727 1.516 . S
C728 C729 1.502 . S
C728 C730 1.561 . S
C728 C731 1.526 . S
C729 H713 0.959 . S
C729 H714 0.959 . S
C729 H715 0.961 . S
C729 C728 1.502 . S
C730 H716 0.960 . S
C730 H717 0.961 . S
C730 H718 0.959 . S
C730 C728 1.561 . S
C731 C728 1.526 . S
C731 C732 1.396 . S
C731 C736 1.390 . S
C732 C726 1.465 . S
C732 C731 1.396 . S
C732 C733 1.399 . S
C733 H719 0.929 . S
C733 C732 1.399 . S
C733 C734 1.385 . S
C734 H720 0.931 . S
C734 C733 1.385 . S
C734 C735 1.389 . S
C735 C734 1.389 . S
C735 C736 1.387 . S
C736 H721 0.930 . S
C736 C731 1.390 . S
C736 C735 1.387 . S
H737 C749 0.930 . S
H738 C751 0.930 . S
H739 C752 0.930 . S
H740 C756 0.959 . S
H741 C756 0.959 . S
H742 C756 0.961 . S
H743 C757 0.960 . S
H744 C757 0.961 . S
H745 C757 0.959 . S
H746 C760 0.929 1_545 S
H747 C761 0.931 . S
H748 C763 0.930 . S
C749 H737 0.930 . S
C749 C750 1.399 . S
C749 C754 1.399 . S
C750 C749 1.399 . S
C750 C751 1.376 . S
C751 H738 0.930 . S
C751 C750 1.376 . S
C751 C752 1.388 . S
C752 H739 0.930 . S
C752 C751 1.388 . S
C752 C753 1.390 . S
C753 C752 1.390 . S
C753 C754 1.394 . S
C753 C759 1.465 . S
C754 C749 1.399 . S
C754 C753 1.394 . S
C754 C755 1.516 . S
C755 C754 1.516 . S
C755 C756 1.502 . S
C755 C757 1.561 . S
C755 C758 1.526 . S
C756 H740 0.959 . S
C756 H741 0.959 . S
C756 H742 0.961 . S
C756 C755 1.502 . S
C757 H743 0.960 . S
C757 H744 0.961 . S
C757 H745 0.959 . S
C757 C755 1.561 . S
C758 C755 1.526 . S
C758 C759 1.396 . S
C758 C763 1.390 . S
C759 C753 1.465 . S
C759 C758 1.396 . S
C759 C760 1.399 . S
C760 H746 0.929 1_565 S
C760 C759 1.399 . S
C760 C761 1.385 1_565 S
C761 H747 0.931 . S
C761 C760 1.385 1_545 S
C761 C762 1.389 1_545 S
C762 C761 1.389 1_565 S
C762 C763 1.387 . S
C763 H748 0.930 . S
C763 C758 1.390 . S
C763 C762 1.387 . S
H764 C776 0.930 . S
H765 C778 0.930 . S
H766 C779 0.930 . S
H767 C783 0.959 . S
H768 C783 0.959 1_565 S
H769 C783 0.961 . S
H770 C784 0.960 . S
H771 C784 0.961 1_565 S
H772 C784 0.959 . S
H773 C787 0.929 . S
H774 C788 0.931 . S
H775 C790 0.930 1_565 S
C776 H764 0.930 . S
C776 C777 1.399 . S
C776 C781 1.399 . S
C777 C776 1.399 . S
C777 C778 1.376 . S
C778 H765 0.930 . S
C778 C777 1.376 . S
C778 C779 1.388 . S
C779 H766 0.930 . S
C779 C778 1.388 . S
C779 C780 1.390 . S
C780 C779 1.390 . S
C780 C781 1.394 . S
C780 C786 1.465 . S
C781 C776 1.399 . S
C781 C780 1.394 . S
C781 C782 1.516 . S
C782 C781 1.516 . S
C782 C783 1.502 . S
C782 C784 1.561 . S
C782 C785 1.526 . S
C783 H767 0.959 . S
C783 H768 0.959 1_545 S
C783 H769 0.961 . S
C783 C782 1.502 . S
C784 H770 0.960 . S
C784 H771 0.961 1_545 S
C784 H772 0.959 . S
C784 C782 1.561 . S
C785 C782 1.526 . S
C785 C786 1.396 . S
C785 C790 1.390 . S
C786 C780 1.465 . S
C786 C785 1.396 . S
C786 C787 1.399 . S
C787 H773 0.929 . S
C787 C786 1.399 . S
C787 C788 1.385 . S
C788 H774 0.931 . S
C788 C787 1.385 . S
C788 C789 1.389 . S
C789 C788 1.389 . S
C789 C790 1.387 . S
C790 H775 0.930 1_545 S
C790 C785 1.390 . S
C790 C789 1.387 . S
H791 C803 0.930 . S
H792 C805 0.930 . S
H793 C806 0.930 . S
H794 C810 0.959 . S
H795 C810 0.959 . S
H796 C810 0.961 . S
H797 C811 0.960 . S
H798 C811 0.961 . S
H799 C811 0.959 . S
H800 C814 0.929 . S
H801 C815 0.931 . S
H802 C817 0.930 . S
C803 H791 0.930 . S
C803 C804 1.399 . S
C803 C808 1.399 . S
C804 C803 1.399 . S
C804 C805 1.376 . S
C805 H792 0.930 . S
C805 C804 1.376 . S
C805 C806 1.388 . S
C806 H793 0.930 . S
C806 C805 1.388 . S
C806 C807 1.390 . S
C807 C806 1.390 . S
C807 C808 1.394 . S
C807 C813 1.465 . S
C808 C803 1.399 . S
C808 C807 1.394 . S
C808 C809 1.516 . S
C809 C808 1.516 . S
C809 C810 1.502 . S
C809 C811 1.561 . S
C809 C812 1.526 . S
C810 H794 0.959 . S
C810 H795 0.959 . S
C810 H796 0.961 . S
C810 C809 1.502 . S
C811 H797 0.960 . S
C811 H798 0.961 . S
C811 H799 0.959 . S
C811 C809 1.561 . S
C812 C809 1.526 . S
C812 C813 1.396 . S
C812 C817 1.390 . S
C813 C807 1.465 . S
C813 C812 1.396 . S
C813 C814 1.399 . S
C814 H800 0.929 . S
C814 C813 1.399 . S
C814 C815 1.385 . S
C815 H801 0.931 . S
C815 C814 1.385 . S
C815 C816 1.389 . S
C816 C815 1.389 . S
C816 C817 1.387 . S
C817 H802 0.930 . S
C817 C812 1.390 . S
C817 C816 1.387 . S
H818 C830 0.930 . S
H819 C832 0.930 . S
H820 C833 0.930 . S
H821 C837 0.959 . S
H822 C837 0.959 . S
H823 C837 0.961 . S
H824 C838 0.960 . S
H825 C838 0.961 . S
H826 C838 0.959 . S
H827 C841 0.929 . S
H828 C842 0.931 . S
H829 C844 0.930 . S
C830 H818 0.930 . S
C830 C831 1.399 . S
C830 C835 1.399 . S
C831 C830 1.399 . S
C831 C832 1.376 . S
C832 H819 0.930 . S
C832 C831 1.376 . S
C832 C833 1.388 . S
C833 H820 0.930 . S
C833 C832 1.388 . S
C833 C834 1.390 . S
C834 C833 1.390 . S
C834 C835 1.394 . S
C834 C840 1.465 . S
C835 C830 1.399 . S
C835 C834 1.394 . S
C835 C836 1.516 . S
C836 C835 1.516 . S
C836 C837 1.502 . S
C836 C838 1.561 . S
C836 C839 1.526 . S
C837 H821 0.959 . S
C837 H822 0.959 . S
C837 H823 0.961 . S
C837 C836 1.502 . S
C838 H824 0.960 . S
C838 H825 0.961 . S
C838 H826 0.959 . S
C838 C836 1.561 . S
C839 C836 1.526 . S
C839 C840 1.396 . S
C839 C844 1.390 . S
C840 C834 1.465 . S
C840 C839 1.396 . S
C840 C841 1.399 . S
C841 H827 0.929 . S
C841 C840 1.399 . S
C841 C842 1.385 . S
C842 H828 0.931 . S
C842 C841 1.385 . S
C842 C843 1.389 . S
C843 C842 1.389 . S
C843 C844 1.387 . S
C844 H829 0.930 . S
C844 C839 1.390 . S
C844 C843 1.387 . S
H845 C857 0.930 1_565 S
H846 C859 0.930 . S
H847 C860 0.930 . S
H848 C864 0.959 . S
H849 C864 0.959 . S
H850 C864 0.961 1_565 S
H851 C865 0.960 . S
H852 C865 0.961 . S
H853 C865 0.959 . S
H854 C868 0.929 . S
H855 C869 0.931 . S
H856 C871 0.930 . S
C857 H845 0.930 1_545 S
C857 C858 1.399 . S
C857 C862 1.399 . S
C858 C857 1.399 . S
C858 C859 1.376 . S
C859 H846 0.930 . S
C859 C858 1.376 . S
C859 C860 1.388 . S
C860 H847 0.930 . S
C860 C859 1.388 . S
C860 C861 1.390 . S
C861 C860 1.390 . S
C861 C862 1.394 . S
C861 C867 1.465 . S
C862 C857 1.399 . S
C862 C861 1.394 . S
C862 C863 1.516 . S
C863 C862 1.516 . S
C863 C864 1.502 . S
C863 C865 1.561 . S
C863 C866 1.526 . S
C864 H848 0.959 . S
C864 H849 0.959 . S
C864 H850 0.961 1_545 S
C864 C863 1.502 . S
C865 H851 0.960 . S
C865 H852 0.961 . S
C865 H853 0.959 . S
C865 C863 1.561 . S
C866 C863 1.526 . S
C866 C867 1.396 . S
C866 C871 1.390 . S
C867 C861 1.465 . S
C867 C866 1.396 . S
C867 C868 1.399 . S
C868 H854 0.929 . S
C868 C867 1.399 . S
C868 C869 1.385 . S
C869 H855 0.931 . S
C869 C868 1.385 . S
C869 C870 1.389 . S
C870 C869 1.389 . S
C870 C871 1.387 . S
C871 H856 0.930 . S
C871 C866 1.390 . S
C871 C870 1.387 . S
H872 C884 0.930 . S
H873 C886 0.930 . S
H874 C887 0.930 . S
H875 C891 0.959 . S
H876 C891 0.959 . S
H877 C891 0.961 . S
H878 C892 0.960 . S
H879 C892 0.951 1_545 S
H880 C892 0.959 . S
H881 C895 0.929 . S
H882 C896 0.931 . S
H883 C898 0.930 1_545 S
C884 H872 0.930 . S
C884 C885 1.399 . S
C884 C889 1.399 . S
C885 C884 1.399 . S
C885 C886 1.376 . S
C886 H873 0.930 . S
C886 C885 1.376 . S
C886 C887 1.388 . S
C887 H874 0.930 . S
C887 C886 1.388 . S
C887 C888 1.390 . S
C888 C887 1.390 . S
C888 C889 1.394 . S
C888 C894 1.465 . S
C889 C884 1.399 . S
C889 C888 1.394 . S
C889 C890 1.516 . S
C890 C889 1.516 . S
C890 C891 1.502 . S
C890 C892 1.561 . S
C890 C893 1.526 . S
C891 H875 0.959 . S
C891 H876 0.959 . S
C891 H877 0.961 . S
C891 C890 1.502 . S
C892 H878 0.960 . S
C892 H879 0.951 1_565 S
C892 H880 0.959 . S
C892 C890 1.561 . S
C893 C890 1.526 . S
C893 C894 1.396 . S
C893 C898 1.390 . S
C894 C888 1.465 . S
C894 C893 1.396 . S
C894 C895 1.399 . S
C895 H881 0.929 . S
C895 C894 1.399 . S
C895 C896 1.385 . S
C896 H882 0.931 . S
C896 C895 1.385 . S
C896 C897 1.389 . S
C897 C896 1.389 . S
C897 C898 1.387 . S
C898 H883 0.930 1_565 S
C898 C893 1.390 . S
C898 C897 1.387 . S
H899 C911 0.930 . S
H900 C913 0.930 . S
H901 C914 0.930 . S
H902 C918 0.959 . S
H903 C918 0.959 . S
H904 C918 0.961 . S
H905 C919 0.960 . S
H906 C919 0.961 . S
H907 C919 0.959 . S
H908 C922 0.929 . S
H909 C923 0.931 . S
H910 C925 0.930 . S
C911 H899 0.930 . S
C911 C912 1.399 . S
C911 C916 1.399 . S
C912 C911 1.399 . S
C912 C913 1.376 . S
C913 H900 0.930 . S
C913 C912 1.376 . S
C913 C914 1.388 . S
C914 H901 0.930 . S
C914 C913 1.388 . S
C914 C915 1.390 . S
C915 C914 1.390 . S
C915 C916 1.394 . S
C915 C921 1.465 . S
C916 C911 1.399 . S
C916 C915 1.394 . S
C916 C917 1.516 . S
C917 C916 1.516 . S
C917 C918 1.502 . S
C917 C919 1.561 . S
C917 C920 1.526 . S
C918 H902 0.959 . S
C918 H903 0.959 . S
C918 H904 0.961 . S
C918 C917 1.502 . S
C919 H905 0.960 . S
C919 H906 0.961 . S
C919 H907 0.959 . S
C919 C917 1.561 . S
C920 C917 1.526 . S
C920 C921 1.396 . S
C920 C925 1.390 . S
C921 C915 1.465 . S
C921 C920 1.396 . S
C921 C922 1.399 . S
C922 H908 0.929 . S
C922 C921 1.399 . S
C922 C923 1.385 . S
C923 H909 0.931 . S
C923 C922 1.385 . S
C923 C924 1.389 . S
C924 C923 1.389 . S
C924 C925 1.387 . S
C925 H910 0.930 . S
C925 C920 1.390 . S
C925 C924 1.387 . S
H926 C938 0.930 . S
H927 C940 0.930 . S
H928 C941 0.930 . S
H929 C945 0.959 . S
H930 C945 0.959 . S
H931 C945 0.961 . S
H932 C946 0.960 . S
H933 C946 0.961 . S
H934 C946 0.959 . S
H935 C949 0.929 . S
H936 C950 0.931 . S
H937 C952 0.930 . S
C938 H926 0.930 . S
C938 C939 1.399 . S
C938 C943 1.399 . S
C939 C938 1.399 . S
C939 C940 1.376 . S
C940 H927 0.930 . S
C940 C939 1.376 . S
C940 C941 1.388 . S
C941 H928 0.930 . S
C941 C940 1.388 . S
C941 C942 1.390 . S
C942 C941 1.390 . S
C942 C943 1.394 . S
C942 C948 1.465 . S
C943 C938 1.399 . S
C943 C942 1.394 . S
C943 C944 1.516 . S
C944 C943 1.516 . S
C944 C945 1.502 . S
C944 C946 1.561 . S
C944 C947 1.526 . S
C945 H929 0.959 . S
C945 H930 0.959 . S
C945 H931 0.961 . S
C945 C944 1.502 . S
C946 H932 0.960 . S
C946 H933 0.961 . S
C946 H934 0.959 . S
C946 C944 1.561 . S
C947 C944 1.526 . S
C947 C948 1.396 . S
C947 C952 1.390 . S
C948 C942 1.465 . S
C948 C947 1.396 . S
C948 C949 1.399 . S
C949 H935 0.929 . S
C949 C948 1.399 . S
C949 C950 1.385 . S
C950 H936 0.931 . S
C950 C949 1.385 . S
C950 C951 1.389 . S
C951 C950 1.389 . S
C951 C952 1.387 . S
C952 H937 0.930 . S
C952 C947 1.390 . S
C952 C951 1.387 . S
H953 C965 0.930 . S
H954 C967 0.930 . S
H955 C968 0.930 . S
H956 C972 0.959 . S
H957 C972 0.959 . S
H958 C972 0.961 . S
H959 C973 0.960 . S
H960 C973 0.961 . S
H961 C973 0.959 . S
H962 C976 0.929 1_545 S
H963 C977 0.931 . S
H964 C979 0.930 . S
C965 H953 0.930 . S
C965 C966 1.399 . S
C965 C970 1.399 . S
C966 C965 1.399 . S
C966 C967 1.376 . S
C967 H954 0.930 . S
C967 C966 1.376 . S
C967 C968 1.388 . S
C968 H955 0.930 . S
C968 C967 1.388 . S
C968 C969 1.390 . S
C969 C968 1.390 . S
C969 C970 1.394 . S
C969 C975 1.465 . S
C970 C965 1.399 . S
C970 C969 1.394 . S
C970 C971 1.516 . S
C971 C970 1.516 . S
C971 C972 1.502 . S
C971 C973 1.561 . S
C971 C974 1.526 . S
C972 H956 0.959 . S
C972 H957 0.959 . S
C972 H958 0.961 . S
C972 C971 1.502 . S
C973 H959 0.960 . S
C973 H960 0.961 . S
C973 H961 0.959 . S
C973 C971 1.561 . S
C974 C971 1.526 . S
C974 C975 1.396 . S
C974 C979 1.390 . S
C975 C969 1.465 . S
C975 C974 1.396 . S
C975 C976 1.399 . S
C976 H962 0.929 1_565 S
C976 C975 1.399 . S
C976 C977 1.385 1_565 S
C977 H963 0.931 . S
C977 C976 1.385 1_545 S
C977 C978 1.389 1_545 S
C978 C977 1.389 1_565 S
C978 C979 1.387 . S
C979 H964 0.930 . S
C979 C974 1.390 . S
C979 C978 1.387 . S
H980 C992 0.930 . S
H981 C994 0.930 . S
H982 C995 0.930 . S
H983 C999 0.959 . S
H984 C999 0.959 1_565 S
H985 C999 0.961 . S
H986 C1000 0.960 . S
H987 C1000 0.961 1_565 S
H988 C1000 0.959 . S
H989 C1003 0.929 . S
H990 C1004 0.931 . S
H991 C1006 0.930 1_565 S
C992 H980 0.930 . S
C992 C993 1.399 . S
C992 C997 1.399 . S
C993 C992 1.399 . S
C993 C994 1.376 . S
C994 H981 0.930 . S
C994 C993 1.376 . S
C994 C995 1.388 . S
C995 H982 0.930 . S
C995 C994 1.388 . S
C995 C996 1.390 . S
C996 C995 1.390 . S
C996 C997 1.394 . S
C996 C1002 1.465 . S
C997 C992 1.399 . S
C997 C996 1.394 . S
C997 C998 1.516 . S
C998 C997 1.516 . S
C998 C999 1.502 . S
C998 C1000 1.561 . S
C998 C1001 1.526 . S
C999 H983 0.959 . S
C999 H984 0.959 1_545 S
C999 H985 0.961 . S
C999 C998 1.502 . S
C1000 H986 0.960 . S
C1000 H987 0.961 1_545 S
C1000 H988 0.959 . S
C1000 C998 1.561 . S
C1001 C998 1.526 . S
C1001 C1002 1.396 . S
C1001 C1006 1.390 . S
C1002 C996 1.465 . S
C1002 C1001 1.396 . S
C1002 C1003 1.399 . S
C1003 H989 0.929 . S
C1003 C1002 1.399 . S
C1003 C1004 1.385 . S
C1004 H990 0.931 . S
C1004 C1003 1.385 . S
C1004 C1005 1.389 . S
C1005 C1004 1.389 . S
C1005 C1006 1.387 . S
C1006 H991 0.930 1_545 S
C1006 C1001 1.390 . S
C1006 C1005 1.387 . S
H1007 C1019 0.930 . S
H1008 C1021 0.930 . S
H1009 C1022 0.930 . S
H1010 C1026 0.959 . S
H1011 C1026 0.959 . S
H1012 C1026 0.961 . S
H1013 C1027 0.960 . S
H1014 C1027 0.961 . S
H1015 C1027 0.959 . S
H1016 C1030 0.929 . S
H1017 C1031 0.931 . S
H1018 C1033 0.930 . S
C1019 H1007 0.930 . S
C1019 C1020 1.399 . S
C1019 C1024 1.399 . S
C1020 C1019 1.399 . S
C1020 C1021 1.376 . S
C1021 H1008 0.930 . S
C1021 C1020 1.376 . S
C1021 C1022 1.388 . S
C1022 H1009 0.930 . S
C1022 C1021 1.388 . S
C1022 C1023 1.390 . S
C1023 C1022 1.390 . S
C1023 C1024 1.394 . S
C1023 C1029 1.465 . S
C1024 C1019 1.399 . S
C1024 C1023 1.394 . S
C1024 C1025 1.516 . S
C1025 C1024 1.516 . S
C1025 C1026 1.502 . S
C1025 C1027 1.561 . S
C1025 C1028 1.526 . S
C1026 H1010 0.959 . S
C1026 H1011 0.959 . S
C1026 H1012 0.961 . S
C1026 C1025 1.502 . S
C1027 H1013 0.960 . S
C1027 H1014 0.961 . S
C1027 H1015 0.959 . S
C1027 C1025 1.561 . S
C1028 C1025 1.526 . S
C1028 C1029 1.396 . S
C1028 C1033 1.390 . S
C1029 C1023 1.465 . S
C1029 C1028 1.396 . S
C1029 C1030 1.399 . S
C1030 H1016 0.929 . S
C1030 C1029 1.399 . S
C1030 C1031 1.385 . S
C1031 H1017 0.931 . S
C1031 C1030 1.385 . S
C1031 C1032 1.389 . S
C1032 C1031 1.389 . S
C1032 C1033 1.387 . S
C1033 H1018 0.930 . S
C1033 C1028 1.390 . S
C1033 C1032 1.387 . S
H1034 C1046 0.930 . S
H1035 C1048 0.930 . S
H1036 C1049 0.930 . S
H1037 C1053 0.959 . S
H1038 C1053 0.959 . S
H1039 C1053 0.961 . S
H1040 C1054 0.960 . S
H1041 C1054 0.961 . S
H1042 C1054 0.959 . S
H1043 C1057 0.929 . S
H1044 C1058 0.931 . S
H1045 C1060 0.930 . S
C1046 H1034 0.930 . S
C1046 C1047 1.399 . S
C1046 C1051 1.399 . S
C1047 C1046 1.399 . S
C1047 C1048 1.376 . S
C1048 H1035 0.930 . S
C1048 C1047 1.376 . S
C1048 C1049 1.388 . S
C1049 H1036 0.930 . S
C1049 C1048 1.388 . S
C1049 C1050 1.390 . S
C1050 C1049 1.390 . S
C1050 C1051 1.394 . S
C1050 C1056 1.465 . S
C1051 C1046 1.399 . S
C1051 C1050 1.394 . S
C1051 C1052 1.516 . S
C1052 C1051 1.516 . S
C1052 C1053 1.502 . S
C1052 C1054 1.561 . S
C1052 C1055 1.526 . S
C1053 H1037 0.959 . S
C1053 H1038 0.959 . S
C1053 H1039 0.961 . S
C1053 C1052 1.502 . S
C1054 H1040 0.960 . S
C1054 H1041 0.961 . S
C1054 H1042 0.959 . S
C1054 C1052 1.561 . S
C1055 C1052 1.526 . S
C1055 C1056 1.396 . S
C1055 C1060 1.390 . S
C1056 C1050 1.465 . S
C1056 C1055 1.396 . S
C1056 C1057 1.399 . S
C1057 H1043 0.929 . S
C1057 C1056 1.399 . S
C1057 C1058 1.385 . S
C1058 H1044 0.931 . S
C1058 C1057 1.385 . S
C1058 C1059 1.389 . S
C1059 C1058 1.389 . S
C1059 C1060 1.387 . S
C1060 H1045 0.930 . S
C1060 C1055 1.390 . S
C1060 C1059 1.387 . S
H1061 C1073 0.930 . S
H1062 C1075 0.930 . S
H1063 C1076 0.930 . S
H1064 C1080 0.959 . S
H1065 C1080 0.959 . S
H1066 C1080 0.961 . S
H1067 C1081 0.960 . S
H1068 C1081 0.961 . S
H1069 C1081 0.959 . S
H1070 C1084 0.929 1_565 S
H1071 C1085 0.931 . S
H1072 C1087 0.930 . S
C1073 H1061 0.930 . S
C1073 C1074 1.399 . S
C1073 C1078 1.399 . S
C1074 C1073 1.399 . S
C1074 C1075 1.376 . S
C1075 H1062 0.930 . S
C1075 C1074 1.376 . S
C1075 C1076 1.388 . S
C1076 H1063 0.930 . S
C1076 C1075 1.388 . S
C1076 C1077 1.390 . S
C1077 C1076 1.390 . S
C1077 C1078 1.394 . S
C1077 C1083 1.465 . S
C1078 C1073 1.399 . S
C1078 C1077 1.394 . S
C1078 C1079 1.516 . S
C1079 C1078 1.516 . S
C1079 C1080 1.502 . S
C1079 C1081 1.561 . S
C1079 C1082 1.526 . S
C1080 H1064 0.959 . S
C1080 H1065 0.959 . S
C1080 H1066 0.961 . S
C1080 C1079 1.502 . S
C1081 H1067 0.960 . S
C1081 H1068 0.961 . S
C1081 H1069 0.959 . S
C1081 C1079 1.561 . S
C1082 C1079 1.526 . S
C1082 C1083 1.396 . S
C1082 C1087 1.390 . S
C1083 C1077 1.465 . S
C1083 C1082 1.396 . S
C1083 C1084 1.399 . S
C1084 H1070 0.929 1_545 S
C1084 C1083 1.399 . S
C1084 C1085 1.385 1_545 S
C1085 H1071 0.931 . S
C1085 C1084 1.385 1_565 S
C1085 C1086 1.389 1_565 S
C1086 C1085 1.389 1_545 S
C1086 C1087 1.387 . S
C1087 H1072 0.930 . S
C1087 C1082 1.390 . S
C1087 C1086 1.387 . S
C237 C207 1.492 . S
C249 C11 1.474 . S
C264 C33 1.415 . S
C276 C5 1.331 . S
C291 C165 1.480 . S
C303 C25 1.504 . S
C318 C19 1.439 . S
C330 C103 1.317 . S
C345 C39 1.456 . S
C357 C179 1.517 . S
C372 C137 1.457 . S
C384 C53 1.518 . S
C399 C47 1.412 . S
C411 C75 1.366 . S
C426 C151 1.518 . S
C438 C67 1.458 . S
C453 C61 1.316 . S
C465 C89 1.437 . S
C480 C221 1.473 . S
C492 C81 1.509 . S
C507 C123 1.485 . S
C519 C95 1.499 . S
C534 C193 1.463 . S
C546 C109 1.516 . S
C561 C117 1.429 . S
C573 C145 1.322 . S
C588 C215 1.316 . S
C600 C131 1.439 . S
C615 C159 1.423 . S
C627 C187 1.325 . S
C642 C201 1.433 . S
C654 C173 1.319 . S
C669 C74 1.059 . S
C681 C4 1.134 1_565 S
C696 C12 1.187 . S
C708 C82 1.163 . S
C723 C18 1.121 . S
C735 C60 1.052 . S
C750 C68 1.187 . S
C762 C26 1.163 1_565 S
C777 C102 1.051 . S
C789 C32 1.127 1_545 S
C804 C110 1.159 . S
C816 C40 1.151 . S
C831 C88 1.086 . S
C843 C46 1.082 . S
C858 C54 1.183 1_545 S
C870 C96 1.159 . S
C885 C186 1.111 . S
C897 C116 1.132 1_565 S
C912 C124 1.150 . S
C924 C194 1.180 . S
C939 C130 1.104 . S
C951 C172 1.052 . S
C966 C180 1.187 . S
C978 C138 1.160 1_565 S
C993 C214 1.051 . S
C1005 C144 1.129 1_545 S
C1020 C222 1.163 . S
C1032 C152 1.186 . S
C1047 C158 1.060 . S
C1059 C200 1.112 . S
C1074 C208 1.181 . S
C1086 C166 1.156 1_545 S
