# Generated by pormake.
# Topology utn, (3)-cn, num edge types: 1
# Building blocks:
#     Node 0, Type 0, BuildingBlock: OLANEW_clean_sbu_2, # of connection points: 3
#     Node 1, Type 0, BuildingBlock: OLANEW_clean_sbu_2, # of connection points: 3
#     Node 2, Type 0, BuildingBlock: OLANEW_clean_sbu_2, # of connection points: 3
#     Node 3, Type 0, BuildingBlock: OLANEW_clean_sbu_2, # of connection points: 3
#     Node 4, Type 0, BuildingBlock: OLANEW_clean_sbu_2, # of connection points: 3
#     Node 5, Type 0, BuildingBlock: OLANEW_clean_sbu_2, # of connection points: 3
#     Node 6, Type 0, BuildingBlock: OLANEW_clean_sbu_2, # of connection points: 3
#     Node 7, Type 0, BuildingBlock: OLANEW_clean_sbu_2, # of connection points: 3
#     Node 8, Type 0, BuildingBlock: OLANEW_clean_sbu_2, # of connection points: 3
#     Node 9, Type 0, BuildingBlock: OLANEW_clean_sbu_2, # of connection points: 3
#     Node 10, Type 0, BuildingBlock: OLANEW_clean_sbu_2, # of connection points: 3
#     Node 11, Type 0, BuildingBlock: OLANEW_clean_sbu_2, # of connection points: 3
#     Node 12, Type 0, BuildingBlock: OLANEW_clean_sbu_2, # of connection points: 3
#     Node 13, Type 0, BuildingBlock: OLANEW_clean_sbu_2, # of connection points: 3
#     Node 14, Type 0, BuildingBlock: OLANEW_clean_sbu_2, # of connection points: 3
#     Node 15, Type 0, BuildingBlock: OLANEW_clean_sbu_2, # of connection points: 3
#     Node 16, Type 0, BuildingBlock: OLANEW_clean_sbu_2, # of connection points: 3
#     Node 17, Type 0, BuildingBlock: OLANEW_clean_sbu_2, # of connection points: 3
#     Node 18, Type 0, BuildingBlock: OLANEW_clean_sbu_2, # of connection points: 3
#     Node 19, Type 0, BuildingBlock: OLANEW_clean_sbu_2, # of connection points: 3
#     Node 20, Type 0, BuildingBlock: OLANEW_clean_sbu_2, # of connection points: 3
#     Node 21, Type 0, BuildingBlock: OLANEW_clean_sbu_2, # of connection points: 3
#     Node 22, Type 0, BuildingBlock: OLANEW_clean_sbu_2, # of connection points: 3
#     Node 23, Type 0, BuildingBlock: OLANEW_clean_sbu_2, # of connection points: 3
#     Node 24, Type 0, BuildingBlock: OLANEW_clean_sbu_2, # of connection points: 3
#     Node 25, Type 0, BuildingBlock: OLANEW_clean_sbu_2, # of connection points: 3
#     Node 26, Type 0, BuildingBlock: OLANEW_clean_sbu_2, # of connection points: 3
#     Node 27, Type 0, BuildingBlock: OLANEW_clean_sbu_2, # of connection points: 3
#     Node 28, Type 0, BuildingBlock: OLANEW_clean_sbu_2, # of connection points: 3
#     Node 29, Type 0, BuildingBlock: OLANEW_clean_sbu_2, # of connection points: 3
#     Node 30, Type 0, BuildingBlock: OLANEW_clean_sbu_2, # of connection points: 3
#     Node 31, Type 0, BuildingBlock: OLANEW_clean_sbu_2, # of connection points: 3
#     Edge 32, Type (0, 0), BuildingBlock: AJUNOK_clean_linker_0, # of connection points: 2
#     Edge 33, Type (0, 0), BuildingBlock: AJUNOK_clean_linker_0, # of connection points: 2
#     Edge 34, Type (0, 0), BuildingBlock: AJUNOK_clean_linker_0, # of connection points: 2
#     Edge 35, Type (0, 0), BuildingBlock: AJUNOK_clean_linker_0, # of connection points: 2
#     Edge 36, Type (0, 0), BuildingBlock: AJUNOK_clean_linker_0, # of connection points: 2
#     Edge 37, Type (0, 0), BuildingBlock: AJUNOK_clean_linker_0, # of connection points: 2
#     Edge 38, Type (0, 0), BuildingBlock: AJUNOK_clean_linker_0, # of connection points: 2
#     Edge 39, Type (0, 0), BuildingBlock: AJUNOK_clean_linker_0, # of connection points: 2
#     Edge 40, Type (0, 0), BuildingBlock: AJUNOK_clean_linker_0, # of connection points: 2
#     Edge 41, Type (0, 0), BuildingBlock: AJUNOK_clean_linker_0, # of connection points: 2
#     Edge 42, Type (0, 0), BuildingBlock: AJUNOK_clean_linker_0, # of connection points: 2
#     Edge 43, Type (0, 0), BuildingBlock: AJUNOK_clean_linker_0, # of connection points: 2
#     Edge 44, Type (0, 0), BuildingBlock: AJUNOK_clean_linker_0, # of connection points: 2
#     Edge 45, Type (0, 0), BuildingBlock: AJUNOK_clean_linker_0, # of connection points: 2
#     Edge 46, Type (0, 0), BuildingBlock: AJUNOK_clean_linker_0, # of connection points: 2
#     Edge 47, Type (0, 0), BuildingBlock: AJUNOK_clean_linker_0, # of connection points: 2
#     Edge 48, Type (0, 0), BuildingBlock: AJUNOK_clean_linker_0, # of connection points: 2
#     Edge 49, Type (0, 0), BuildingBlock: AJUNOK_clean_linker_0, # of connection points: 2
#     Edge 50, Type (0, 0), BuildingBlock: AJUNOK_clean_linker_0, # of connection points: 2
#     Edge 51, Type (0, 0), BuildingBlock: AJUNOK_clean_linker_0, # of connection points: 2
#     Edge 52, Type (0, 0), BuildingBlock: AJUNOK_clean_linker_0, # of connection points: 2
#     Edge 53, Type (0, 0), BuildingBlock: AJUNOK_clean_linker_0, # of connection points: 2
#     Edge 54, Type (0, 0), BuildingBlock: AJUNOK_clean_linker_0, # of connection points: 2
#     Edge 55, Type (0, 0), BuildingBlock: AJUNOK_clean_linker_0, # of connection points: 2
#     Edge 56, Type (0, 0), BuildingBlock: AJUNOK_clean_linker_0, # of connection points: 2
#     Edge 57, Type (0, 0), BuildingBlock: AJUNOK_clean_linker_0, # of connection points: 2
#     Edge 58, Type (0, 0), BuildingBlock: AJUNOK_clean_linker_0, # of connection points: 2
#     Edge 59, Type (0, 0), BuildingBlock: AJUNOK_clean_linker_0, # of connection points: 2
#     Edge 60, Type (0, 0), BuildingBlock: AJUNOK_clean_linker_0, # of connection points: 2
#     Edge 61, Type (0, 0), BuildingBlock: AJUNOK_clean_linker_0, # of connection points: 2
#     Edge 62, Type (0, 0), BuildingBlock: AJUNOK_clean_linker_0, # of connection points: 2
#     Edge 63, Type (0, 0), BuildingBlock: AJUNOK_clean_linker_0, # of connection points: 2
#     Edge 64, Type (0, 0), BuildingBlock: AJUNOK_clean_linker_0, # of connection points: 2
#     Edge 65, Type (0, 0), BuildingBlock: AJUNOK_clean_linker_0, # of connection points: 2
#     Edge 66, Type (0, 0), BuildingBlock: AJUNOK_clean_linker_0, # of connection points: 2
#     Edge 67, Type (0, 0), BuildingBlock: AJUNOK_clean_linker_0, # of connection points: 2
#     Edge 68, Type (0, 0), BuildingBlock: AJUNOK_clean_linker_0, # of connection points: 2
#     Edge 69, Type (0, 0), BuildingBlock: AJUNOK_clean_linker_0, # of connection points: 2
#     Edge 70, Type (0, 0), BuildingBlock: AJUNOK_clean_linker_0, # of connection points: 2
#     Edge 71, Type (0, 0), BuildingBlock: AJUNOK_clean_linker_0, # of connection points: 2
#     Edge 72, Type (0, 0), BuildingBlock: AJUNOK_clean_linker_0, # of connection points: 2
#     Edge 73, Type (0, 0), BuildingBlock: AJUNOK_clean_linker_0, # of connection points: 2
#     Edge 74, Type (0, 0), BuildingBlock: AJUNOK_clean_linker_0, # of connection points: 2
#     Edge 75, Type (0, 0), BuildingBlock: AJUNOK_clean_linker_0, # of connection points: 2
#     Edge 76, Type (0, 0), BuildingBlock: AJUNOK_clean_linker_0, # of connection points: 2
#     Edge 77, Type (0, 0), BuildingBlock: AJUNOK_clean_linker_0, # of connection points: 2
#     Edge 78, Type (0, 0), BuildingBlock: AJUNOK_clean_linker_0, # of connection points: 2
#     Edge 79, Type (0, 0), BuildingBlock: AJUNOK_clean_linker_0, # of connection points: 2
# Relax obj value: 0.007
# Max RMSD: 0.024
# Mean RMSD: 0.024
data_MOF--net-utn--node1-OLANEW_clean_sbu_2--edge1-AJUNOK_clean_linker_0
_symmetry_space_group_name_H-M    P1
_symmetry_Int_Tables_number       1
_symmetry_cell_setting            triclinic
loop_
_symmetry_equiv_pos_as_xyz
'x, y, z'
_cell_length_a     63.688245
_cell_length_b     63.666653
_cell_length_c     20.883761
_cell_angle_alpha  89.998172
_cell_angle_beta   89.996534
_cell_angle_gamma 89.989463
loop_
_atom_site_label
_atom_site_type_symbol
_atom_site_fract_x
_atom_site_fract_y
_atom_site_fract_z
_atom_type_partial_charge
O0 O 0.25474 0.11054 0.3217 0.0
Cd1 Cd 0.25713 0.10744 0.20552 0.0
O2 O 0.25471 0.1449 0.31573 0.0
Cd3 Cd 0.25472 0.17698 0.35373 0.0
O4 O 0.25419 0.21105 0.36607 0.0
C5 C 0.23703 0.2205 0.37767 0.0
O6 O 0.21991 0.20927 0.38547 0.0
C7 C 0.25382 0.12828 0.34939 0.0
C8 C 0.22723 0.07871 0.16224 0.0
O9 O 0.24584 0.07279 0.17701 0.0
O10 O 0.22292 0.09831 0.16707 0.0
O11 O 0.1382 0.9989 0.58792 0.0
Cd12 Cd 0.13936 0.99934 0.47118 0.0
O13 O 0.10524 0.9894 0.58547 0.0
Cd14 Cd 0.07399 0.9799 0.61888 0.0
O15 O 0.04005 0.97754 0.63214 0.0
C16 C 0.02983 0.99213 0.65973 0.0
O17 O 0.04021 0.00818 0.68341 0.0
C18 C 0.12158 0.99389 0.61788 0.0
C19 C 0.17051 0.97223 0.42631 0.0
O20 O 0.17456 0.99154 0.43838 0.0
O21 O 0.15165 0.96583 0.43507 0.0
O22 O 0.22964 0.88524 0.82802 0.0
Cd23 Cd 0.22672 0.8866 0.71153 0.0
O24 O 0.24552 0.85493 0.82003 0.0
Cd25 Cd 0.26214 0.82634 0.84942 0.0
O26 O 0.27184 0.7937 0.86194 0.0
C27 C 0.26054 0.78078 0.8931 0.0
O28 O 0.24336 0.78765 0.92093 0.0
C29 C 0.23866 0.8698 0.85503 0.0
C30 C 0.25843 0.912 0.66139 0.0
O31 O 0.24047 0.91967 0.6763 0.0
O32 O 0.26122 0.89225 0.66946 0.0
O33 O 0.35987 0.00223 0.08563 0.0
Cd34 Cd 0.35879 0.00341 0.96886 0.0
O35 O 0.39418 0.00478 0.08275 0.0
Cd36 Cd 0.42595 0.00484 0.12315 0.0
O37 O 0.45968 0.00827 0.13901 0.0
C38 C 0.47069 0.99505 0.16991 0.0
O39 O 0.46137 0.97877 0.19609 0.0
C40 C 0.37729 0.00345 0.11501 0.0
C41 C 0.32807 0.03125 0.92533 0.0
O42 O 0.32387 0.0118 0.93462 0.0
O43 O 0.34686 0.03746 0.93652 0.0
O44 O 0.25798 0.88443 0.1607 0.0
Cd45 Cd 0.26148 0.88467 0.27709 0.0
O46 O 0.24545 0.85252 0.16536 0.0
Cd47 Cd 0.23183 0.82263 0.13386 0.0
O48 O 0.22505 0.78928 0.12089 0.0
C49 C 0.23889 0.77706 0.09772 0.0
O50 O 0.25692 0.78501 0.07905 0.0
C51 C 0.25049 0.8685 0.13205 0.0
C52 C 0.23324 0.91335 0.33005 0.0
O53 O 0.25195 0.91887 0.31508 0.0
O54 O 0.22801 0.89415 0.32057 0.0
O55 O 0.3582 0.99919 0.41984 0.0
Cd56 Cd 0.35584 0.9967 0.53624 0.0
O57 O 0.39259 0.99873 0.42562 0.0
Cd58 Cd 0.42418 0.9966 0.38445 0.0
O59 O 0.45782 0.99167 0.37021 0.0
C60 C 0.46959 0.00421 0.33932 0.0
O61 O 0.46123 0.02091 0.31252 0.0
C62 C 0.37595 0.99969 0.39217 0.0
C63 C 0.32468 0.96841 0.57376 0.0
O64 O 0.32054 0.98793 0.56566 0.0
O65 O 0.34361 0.96234 0.56418 0.0
O66 O 0.23752 0.11292 0.65378 0.0
Cd67 Cd 0.23194 0.11172 0.76934 0.0
O68 O 0.23758 0.14734 0.65442 0.0
Cd69 Cd 0.24228 0.17857 0.6128 0.0
O70 O 0.24855 0.21192 0.59762 0.0
C71 C 0.26694 0.21856 0.60964 0.0
O72 O 0.28131 0.20494 0.62749 0.0
C73 C 0.23937 0.13018 0.62378 0.0
C74 C 0.26289 0.08676 0.82567 0.0
O75 O 0.24538 0.07885 0.80737 0.0
O76 O 0.26555 0.10656 0.81819 0.0
O77 O 0.13634 0.9835 0.92787 0.0
Cd78 Cd 0.13732 0.98507 0.04449 0.0
O79 O 0.10694 0.00117 0.92916 0.0
Cd80 Cd 0.07908 0.01794 0.89452 0.0
O81 O 0.04648 0.02742 0.87994 0.0
C82 C 0.0334 0.01466 0.85534 0.0
O83 O 0.04012 0.99619 0.83611 0.0
C84 C 0.12146 0.99222 0.89729 0.0
C85 C 0.16564 0.01595 0.08374 0.0
O86 O 0.17152 0.99686 0.07592 0.0
O87 O 0.14627 0.0203 0.0737 0.0
O88 O 0.78645 0.84971 0.64308 0.0
Cd89 Cd 0.7969 0.84304 0.75394 0.0
O90 O 0.75364 0.85695 0.66701 0.0
Cd91 Cd 0.75826 0.84629 0.76562 0.0
O92 O 0.76423 0.81967 0.82927 0.0
C93 C 0.74916 0.81004 0.85628 0.0
O94 O 0.73009 0.81766 0.85027 0.0
C95 C 0.76819 0.85548 0.62549 0.0
C96 C 0.82067 0.87604 0.80372 0.0
O97 O 0.82952 0.86014 0.77744 0.0
O98 O 0.80057 0.87624 0.80661 0.0
O99 O 0.88953 0.01677 0.41175 0.0
Cd100 Cd 0.89397 0.02122 0.52722 0.0
O101 O 0.89321 0.9825 0.41632 0.0
Cd102 Cd 0.90479 0.98281 0.51492 0.0
O103 O 0.93272 0.97983 0.5752 0.0
C104 C 0.94057 0.99522 0.60574 0.0
O105 O 0.93058 0.01326 0.60551 0.0
C106 C 0.88929 0.99898 0.38406 0.0
C107 C 0.8673 0.05227 0.57529 0.0
O108 O 0.88597 0.0567 0.55686 0.0
O109 O 0.86129 0.03311 0.57101 0.0
O110 O 0.72948 0.14173 0.16254 0.0
Cd111 Cd 0.72254 0.14734 0.2764 0.0
O112 O 0.76345 0.14678 0.17268 0.0
Cd113 Cd 0.76082 0.15952 0.26975 0.0
O114 O 0.76117 0.18805 0.32824 0.0
C115 C 0.74583 0.19403 0.36268 0.0
O116 O 0.72935 0.18175 0.36782 0.0
C117 C 0.74778 0.14184 0.13807 0.0
C118 C 0.69466 0.11731 0.32418 0.0
O119 O 0.68803 0.13499 0.30281 0.0
O120 O 0.71449 0.11395 0.32327 0.0
O121 O 0.60868 0.98081 0.91921 0.0
Cd122 Cd 0.60387 0.97483 0.03388 0.0
O123 O 0.60616 0.01509 0.92832 0.0
Cd124 Cd 0.59438 0.01349 0.02671 0.0
O125 O 0.5662 0.01444 0.08662 0.0
C126 C 0.56021 0.99945 0.12245 0.0
O127 O 0.57235 0.98289 0.12854 0.0
C128 C 0.60958 0.99897 0.8939 0.0
C129 C 0.63358 0.94659 0.08141 0.0
O130 O 0.61558 0.94025 0.06194 0.0
O131 O 0.63741 0.96633 0.07876 0.0
O132 O 0.77461 0.1403 0.83405 0.0
Cd133 Cd 0.77976 0.14443 0.71872 0.0
O134 O 0.74026 0.14234 0.82744 0.0
Cd135 Cd 0.74078 0.15321 0.72801 0.0
O136 O 0.73765 0.18107 0.66741 0.0
C137 C 0.75119 0.18723 0.62684 0.0
O138 O 0.76783 0.17554 0.61627 0.0
C139 C 0.75671 0.13943 0.86087 0.0
C140 C 0.80882 0.11537 0.6718 0.0
O141 O 0.81463 0.13362 0.69064 0.0
O142 O 0.78922 0.11093 0.67508 0.0
O143 O 0.60943 0.0238 0.58808 0.0
Cd144 Cd 0.60485 0.02829 0.47263 0.0
O145 O 0.60566 0.98955 0.58396 0.0
Cd146 Cd 0.594 0.98983 0.48538 0.0
O147 O 0.56571 0.98676 0.42671 0.0
C148 C 0.55897 0.00077 0.38855 0.0
O149 O 0.57029 0.01776 0.3794 0.0
C150 C 0.60963 0.00606 0.61604 0.0
C151 C 0.63442 0.05638 0.42331 0.0
O152 O 0.61628 0.06272 0.44167 0.0
O153 O 0.63845 0.03672 0.42786 0.0
O154 O 0.73162 0.85925 0.33046 0.0
Cd155 Cd 0.72247 0.85468 0.2176 0.0
O156 O 0.76392 0.84822 0.3154 0.0
Cd157 Cd 0.75824 0.8369 0.21794 0.0
O158 O 0.75529 0.80981 0.15406 0.0
C159 C 0.73737 0.8025 0.13918 0.0
O160 O 0.72051 0.81262 0.15829 0.0
C161 C 0.74992 0.85574 0.35233 0.0
C162 C 0.69425 0.88523 0.17523 0.0
O163 O 0.68775 0.86752 0.19668 0.0
O164 O 0.71411 0.88842 0.1738 0.0
O165 O 0.89237 0.97778 0.07666 0.0
Cd166 Cd 0.89823 0.97421 0.96142 0.0
O167 O 0.89407 0.01223 0.07524 0.0
Cd168 Cd 0.90616 0.01249 0.97727 0.0
O169 O 0.93376 0.01083 0.91525 0.0
C170 C 0.94518 0.02711 0.91008 0.0
O171 O 0.93877 0.04456 0.93741 0.0
C172 C 0.89088 0.99525 0.10588 0.0
C173 C 0.87253 0.94309 0.90936 0.0
O174 O 0.89121 0.93886 0.92828 0.0
O175 O 0.86612 0.96208 0.91467 0.0
O176 O 0.75832 0.61304 0.80201 0.0
Cd177 Cd 0.75864 0.61322 0.68533 0.0
O178 O 0.75619 0.6474 0.80795 0.0
Cd179 Cd 0.75095 0.67695 0.85938 0.0
O180 O 0.74595 0.70969 0.88681 0.0
C181 C 0.76145 0.72144 0.90036 0.0
O182 O 0.7804 0.71327 0.90088 0.0
C183 C 0.75696 0.62963 0.83552 0.0
C184 C 0.73105 0.58224 0.64237 0.0
O185 O 0.75053 0.5782 0.65145 0.0
O186 O 0.72477 0.60109 0.65236 0.0
O187 O 0.63671 0.50356 0.0883 0.0
Cd188 Cd 0.64175 0.50694 0.97307 0.0
O189 O 0.60244 0.50153 0.07928 0.0
Cd190 Cd 0.57021 0.49984 0.11591 0.0
O191 O 0.53682 0.49379 0.13098 0.0
C192 C 0.52505 0.50468 0.16724 0.0
O193 O 0.53318 0.5205 0.19909 0.0
C194 C 0.6188 0.50132 0.11417 0.0
C195 C 0.6716 0.47782 0.93184 0.0
O196 O 0.67706 0.4962 0.95049 0.0
O197 O 0.65197 0.47338 0.93193 0.0
O198 O 0.74601 0.39525 0.34055 0.0
Cd199 Cd 0.74165 0.39951 0.22513 0.0
O200 O 0.74526 0.36096 0.33056 0.0
Cd201 Cd 0.74838 0.3287 0.36622 0.0
O202 O 0.75267 0.29489 0.3794 0.0
C203 C 0.74 0.28353 0.4113 0.0
O204 O 0.72399 0.2925 0.43998 0.0
C205 C 0.7469 0.37713 0.36593 0.0
C206 C 0.76717 0.43164 0.17793 0.0
O207 O 0.74825 0.43534 0.19551 0.0
O208 O 0.77393 0.41273 0.18272 0.0
O209 O 0.86124 0.49032 0.5743 0.0
Cd210 Cd 0.86297 0.48324 0.45941 0.0
O211 O 0.89561 0.49061 0.58068 0.0
Cd212 Cd 0.92566 0.49643 0.62875 0.0
O213 O 0.95867 0.50358 0.64741 0.0
C214 C 0.97074 0.49176 0.67988 0.0
O215 O 0.96299 0.47469 0.70612 0.0
C216 C 0.8778 0.49269 0.60746 0.0
C217 C 0.83386 0.50837 0.39534 0.0
O218 O 0.82916 0.48964 0.4126 0.0
O219 O 0.8524 0.51506 0.40766 0.0
O220 O 0.75811 0.38638 0.67505 0.0
Cd221 Cd 0.75855 0.38482 0.79189 0.0
O222 O 0.75355 0.35233 0.67038 0.0
Cd223 Cd 0.74986 0.32152 0.62467 0.0
O224 O 0.7438 0.28817 0.60838 0.0
C225 C 0.75551 0.2763 0.57488 0.0
O226 O 0.77197 0.28441 0.54613 0.0
C227 C 0.75544 0.36988 0.64183 0.0
C228 C 0.73148 0.41499 0.84272 0.0
O229 O 0.75099 0.41902 0.83414 0.0
O230 O 0.72488 0.39662 0.82776 0.0
O231 O 0.85434 0.5169 0.90321 0.0
Cd232 Cd 0.85086 0.52414 0.01767 0.0
O233 O 0.88855 0.51454 0.91224 0.0
Cd234 Cd 0.9208 0.51071 0.87712 0.0
O235 O 0.95439 0.50512 0.86387 0.0
C236 C 0.96626 0.51757 0.83294 0.0
O237 O 0.95796 0.53411 0.80519 0.0
C238 C 0.87214 0.51362 0.87759 0.0
C239 C 0.82315 0.49569 0.07442 0.0
O240 O 0.8166 0.51326 0.05216 0.0
O241 O 0.84285 0.49174 0.07029 0.0
O242 O 0.7466 0.60185 0.13237 0.0
Cd243 Cd 0.74189 0.59472 0.24616 0.0
O244 O 0.74548 0.63597 0.14727 0.0
Cd245 Cd 0.74446 0.66867 0.11425 0.0
O246 O 0.74692 0.70248 0.09742 0.0
C247 C 0.73078 0.71363 0.0861 0.0
O248 O 0.71236 0.70442 0.08247 0.0
C249 C 0.74756 0.62036 0.10984 0.0
C250 C 0.77157 0.5657 0.28934 0.0
O251 O 0.75377 0.55963 0.26753 0.0
O252 O 0.7752 0.5855 0.29088 0.0
O253 O 0.63556 0.49076 0.41754 0.0
Cd254 Cd 0.63948 0.48911 0.53347 0.0
O255 O 0.60114 0.49115 0.42298 0.0
Cd256 Cd 0.56984 0.49554 0.3816 0.0
O257 O 0.53656 0.50208 0.36617 0.0
C258 C 0.52439 0.49008 0.33469 0.0
O259 O 0.53219 0.47322 0.30739 0.0
C260 C 0.61784 0.49159 0.38977 0.0
C261 C 0.6698 0.51827 0.57095 0.0
O262 O 0.67484 0.49931 0.55726 0.0
O263 O 0.65032 0.52327 0.56799 0.0
O264 O 0.28442 0.35625 0.14254 0.0
Cd265 Cd 0.29169 0.34816 0.25488 0.0
O266 O 0.25066 0.36108 0.15811 0.0
Cd267 Cd 0.25237 0.34772 0.25429 0.0
O268 O 0.25263 0.31929 0.31291 0.0
C269 C 0.23534 0.30981 0.32236 0.0
O270 O 0.21798 0.31847 0.30093 0.0
C271 C 0.26648 0.36146 0.12094 0.0
C272 C 0.31648 0.37934 0.31058 0.0
O273 O 0.32479 0.36308 0.28481 0.0
O274 O 0.2964 0.38076 0.31019 0.0
O275 O 0.39377 0.52397 0.91742 0.0
Cd276 Cd 0.40043 0.5286 0.03168 0.0
O277 O 0.38842 0.49 0.9255 0.0
Cd278 Cd 0.40085 0.4892 0.02322 0.0
O279 O 0.42964 0.4863 0.07969 0.0
C280 C 0.43556 0.49878 0.12363 0.0
O281 O 0.4231 0.51423 0.14085 0.0
C282 C 0.38864 0.50661 0.89164 0.0
C283 C 0.37416 0.55935 0.08307 0.0
O284 O 0.3925 0.56399 0.06214 0.0
O285 O 0.36834 0.54011 0.07991 0.0
O286 O 0.23208 0.63867 0.66596 0.0
Cd287 Cd 0.22509 0.64388 0.78001 0.0
O288 O 0.26628 0.64124 0.67685 0.0
Cd289 Cd 0.26359 0.65254 0.7753 0.0
O290 O 0.26025 0.68008 0.83688 0.0
C291 C 0.27561 0.69281 0.83863 0.0
O292 O 0.29295 0.68771 0.80826 0.0
C293 C 0.25036 0.63783 0.64156 0.0
C294 C 0.19623 0.61454 0.82601 0.0
O295 O 0.19019 0.63249 0.80523 0.0
O296 O 0.21595 0.61056 0.82529 0.0
O297 O 0.10518 0.47884 0.41652 0.0
Cd298 Cd 0.1016 0.47255 0.53144 0.0
O299 O 0.10382 0.51315 0.4269 0.0
Cd300 Cd 0.09273 0.51154 0.52606 0.0
O301 O 0.06506 0.51325 0.58803 0.0
C302 C 0.05944 0.49898 0.62703 0.0
O303 O 0.07161 0.48251 0.6348 0.0
C304 C 0.10641 0.49704 0.39171 0.0
C305 C 0.13369 0.44642 0.57572 0.0
O306 O 0.11601 0.43885 0.55766 0.0
O307 O 0.13608 0.46639 0.57333 0.0
O308 O 0.27944 0.64424 0.34355 0.0
Cd309 Cd 0.28708 0.65104 0.23071 0.0
O310 O 0.24573 0.63923 0.32751 0.0
Cd311 Cd 0.24781 0.65099 0.22941 0.0
O312 O 0.24888 0.67836 0.16632 0.0
C313 C 0.23196 0.68855 0.15756 0.0
O314 O 0.21451 0.68104 0.18209 0.0
C315 C 0.26141 0.63936 0.36522 0.0
C316 C 0.31602 0.62214 0.18266 0.0
O317 O 0.29627 0.61828 0.18192 0.0
O318 O 0.32204 0.63974 0.20607 0.0
O319 O 0.10769 0.52294 0.08608 0.0
Cd320 Cd 0.10352 0.52796 0.97079 0.0
O321 O 0.09907 0.48957 0.08205 0.0
Cd322 Cd 0.08755 0.49135 0.98339 0.0
O323 O 0.06002 0.49214 0.92067 0.0
C324 C 0.05487 0.50825 0.88825 0.0
O325 O 0.06751 0.52454 0.88802 0.0
C326 C 0.1054 0.50535 0.11405 0.0
C327 C 0.13401 0.55523 0.92267 0.0
O328 O 0.11605 0.56208 0.94095 0.0
O329 O 0.13742 0.53544 0.92677 0.0
O330 O 0.23702 0.36572 0.82074 0.0
Cd331 Cd 0.22981 0.36115 0.70658 0.0
O332 O 0.27091 0.36044 0.80988 0.0
Cd333 Cd 0.26754 0.34887 0.71195 0.0
O334 O 0.26502 0.32031 0.65444 0.0
C335 C 0.27976 0.30709 0.66197 0.0
O336 O 0.29568 0.31233 0.69868 0.0
C337 C 0.25531 0.36514 0.84513 0.0
C338 C 0.19932 0.38942 0.66414 0.0
O339 O 0.19427 0.37102 0.68377 0.0
O340 O 0.21882 0.39435 0.66432 0.0
O341 O 0.38425 0.48505 0.584 0.0
Cd342 Cd 0.38861 0.48156 0.46829 0.0
O343 O 0.39225 0.5186 0.58265 0.0
Cd344 Cd 0.40339 0.51794 0.48349 0.0
O345 O 0.43114 0.51714 0.42179 0.0
C346 C 0.43577 0.5018 0.38542 0.0
O347 O 0.42239 0.48621 0.3799 0.0
C348 C 0.3863 0.50241 0.61344 0.0
C349 C 0.36604 0.44774 0.41862 0.0
O350 O 0.3852 0.4456 0.43625 0.0
O351 O 0.35759 0.4659 0.4248 0.0
C352 C 0.23864 0.14487 0.44766 0.0
C353 C 0.25132 0.12928 0.41968 0.0
C354 C 0.23505 0.14526 0.5139 0.0
C355 C 0.24397 0.13006 0.55443 0.0
H356 H 0.23075 0.15638 0.41806 0.0
H357 H 0.22458 0.1571 0.53303 0.0
S358 S 0.27875 0.08619 0.50512 0.0
N359 N 0.27306 0.09845 0.43764 0.0
N360 N 0.2663 0.09918 0.56206 0.0
C361 C 0.25672 0.11442 0.52707 0.0
C362 C 0.26039 0.11404 0.45973 0.0
C363 C 0.10304 0.99551 0.72413 0.0
C364 C 0.12172 0.99314 0.68899 0.0
C365 C 0.10295 0.99459 0.79115 0.0
C366 C 0.12166 0.99228 0.82615 0.0
H367 H 0.08834 0.99856 0.70027 0.0
H368 H 0.08799 0.99537 0.81518 0.0
S369 S 0.17507 0.98574 0.75737 0.0
N370 N 0.15954 0.98792 0.69448 0.0
N371 N 0.15955 0.9876 0.82037 0.0
C372 C 0.14054 0.99005 0.79168 0.0
C373 C 0.14056 0.99038 0.72332 0.0
C374 C 0.24356 0.85069 0.9593 0.0
C375 C 0.24147 0.8697 0.92563 0.0
C376 C 0.24696 0.8504 0.02557 0.0
C377 C 0.2474 0.86906 0.06156 0.0
H378 H 0.24221 0.83583 0.93491 0.0
H379 H 0.24965 0.8354 0.04808 0.0
S380 S 0.24191 0.92315 0.99692 0.0
N381 N 0.24014 0.90782 0.93345 0.0
N382 N 0.24514 0.90721 0.05845 0.0
C383 C 0.24497 0.88822 0.02868 0.0
C384 C 0.2421 0.88854 0.96087 0.0
C385 C 0.36391 0.98898 0.21793 0.0
C386 C 0.37766 0.00262 0.18559 0.0
C387 C 0.36355 0.98807 0.28493 0.0
C388 C 0.37701 0.00069 0.3218 0.0
H389 H 0.35341 0.97885 0.19122 0.0
H390 H 0.35278 0.9773 0.30805 0.0
S391 S 0.41358 0.04128 0.26068 0.0
N392 N 0.40332 0.03069 0.19563 0.0
N393 N 0.40301 0.0286 0.32169 0.0
C394 C 0.39048 0.01475 0.29023 0.0
C395 C 0.39071 0.01581 0.222 0.0
C396 C 0.77483 0.85379 0.44488 0.0
C397 C 0.75465 0.85865 0.42161 0.0
C398 C 0.77923 0.85376 0.51057 0.0
C399 C 0.76366 0.85853 0.55616 0.0
H400 H 0.78727 0.84931 0.41229 0.0
H401 H 0.79487 0.84921 0.52561 0.0
S402 S 0.70887 0.87481 0.52036 0.0
N403 N 0.71937 0.87023 0.44946 0.0
N404 N 0.72765 0.87013 0.57294 0.0
C405 C 0.74369 0.86455 0.53355 0.0
C406 C 0.73921 0.86462 0.46639 0.0
C407 C 0.88826 0.01517 0.20909 0.0
C408 C 0.88738 0.99585 0.17634 0.0
C409 C 0.88782 0.01607 0.27613 0.0
C410 C 0.88655 0.9977 0.31343 0.0
H411 H 0.89007 0.02975 0.18296 0.0
H412 H 0.88936 0.0313 0.29876 0.0
S413 S 0.8809 0.94331 0.25136 0.0
N414 N 0.88297 0.958 0.18655 0.0
N415 N 0.88221 0.95972 0.3124 0.0
C416 C 0.8844 0.97836 0.28135 0.0
C417 C 0.88479 0.97743 0.21295 0.0
C418 C 0.73501 0.1377 0.96088 0.0
C419 C 0.75493 0.137 0.9316 0.0
C420 C 0.73285 0.13824 0.02764 0.0
C421 C 0.75051 0.13819 0.06818 0.0
H422 H 0.72089 0.13856 0.93209 0.0
H423 H 0.71718 0.13956 0.04737 0.0
S424 S 0.80613 0.13364 0.01635 0.0
N425 N 0.79264 0.13417 0.9489 0.0
N426 N 0.78857 0.13526 0.07424 0.0
C427 C 0.77049 0.13628 0.03978 0.0
C428 C 0.77269 0.13565 0.97164 0.0
C429 C 0.61129 0.98495 0.71721 0.0
C430 C 0.6126 0.00463 0.68665 0.0
C431 C 0.61132 0.98324 0.7841 0.0
C432 C 0.61259 0.00113 0.82354 0.0
H433 H 0.60952 0.9707 0.68939 0.0
H434 H 0.60952 0.96775 0.80489 0.0
S435 S 0.61903 0.05618 0.76786 0.0
N436 N 0.61724 0.0423 0.70134 0.0
N437 N 0.61723 0.03906 0.82695 0.0
C438 C 0.61509 0.02082 0.79373 0.0
C439 C 0.61512 0.02257 0.72544 0.0
C440 C 0.73937 0.61018 0.99774 0.0
C441 C 0.75022 0.62337 0.04035 0.0
C442 C 0.74169 0.61239 0.93145 0.0
C443 C 0.75489 0.62788 0.90553 0.0
H444 H 0.72886 0.59817 0.01578 0.0
H445 H 0.7329 0.60202 0.90022 0.0
S446 S 0.78917 0.66422 0.99655 0.0
N447 N 0.77639 0.6509 0.05214 0.0
N448 N 0.78049 0.65527 0.9272 0.0
C449 C 0.76628 0.6408 0.94749 0.0
C450 C 0.76401 0.63848 0.01509 0.0
C451 C 0.63081 0.51093 0.22349 0.0
C452 C 0.61739 0.49902 0.1843 0.0
C453 C 0.63066 0.50853 0.29008 0.0
C454 C 0.617 0.49421 0.31981 0.0
H455 H 0.64156 0.52219 0.20249 0.0
H456 H 0.64128 0.51799 0.31857 0.0
S457 S 0.58077 0.45735 0.2384 0.0
N458 N 0.59158 0.47092 0.17962 0.0
N459 N 0.59089 0.46683 0.30523 0.0
C460 C 0.6037 0.48198 0.28131 0.0
C461 C 0.604 0.48428 0.21334 0.0
C462 C 0.74098 0.35781 0.53662 0.0
C463 C 0.75421 0.37138 0.57123 0.0
C464 C 0.73895 0.35954 0.47001 0.0
C465 C 0.7499 0.37505 0.43571 0.0
H466 H 0.73148 0.34627 0.56121 0.0
H467 H 0.72815 0.34913 0.44559 0.0
S468 S 0.7865 0.41451 0.50344 0.0
N469 N 0.7785 0.40081 0.56601 0.0
N470 N 0.77442 0.40423 0.44089 0.0
C471 C 0.76305 0.38882 0.46965 0.0
C472 C 0.76525 0.38696 0.53738 0.0
C473 C 0.89025 0.48966 0.72053 0.0
C474 C 0.87623 0.49835 0.67584 0.0
C475 C 0.88885 0.49468 0.78573 0.0
C476 C 0.87354 0.50876 0.80846 0.0
H477 H 0.90202 0.47844 0.70535 0.0
H478 H 0.89944 0.48694 0.81865 0.0
S479 S 0.83307 0.53576 0.71068 0.0
N480 N 0.84641 0.52151 0.65863 0.0
N481 N 0.84396 0.53119 0.78107 0.0
C482 C 0.85931 0.51741 0.76426 0.0
C483 C 0.86063 0.51217 0.69797 0.0
C484 C 0.27805 0.36349 0.94278 0.0
C485 C 0.25828 0.36768 0.91538 0.0
C486 C 0.28073 0.36259 0.00929 0.0
C487 C 0.26378 0.36582 0.05143 0.0
H488 H 0.29147 0.36001 0.91275 0.0
H489 H 0.29611 0.35845 0.02754 0.0
S490 S 0.20945 0.38051 0.00454 0.0
N491 N 0.22194 0.37745 0.93592 0.0
N492 N 0.22699 0.37574 0.06088 0.0
C493 C 0.24423 0.37142 0.02484 0.0
C494 C 0.24148 0.37235 0.95693 0.0
C495 C 0.38854 0.5235 0.78338 0.0
C496 C 0.38492 0.50558 0.82133 0.0
C497 C 0.38799 0.52249 0.71641 0.0
C498 C 0.38374 0.50352 0.68423 0.0
H499 H 0.39264 0.53836 0.80534 0.0
H500 H 0.39166 0.53661 0.68979 0.0
S501 S 0.37035 0.45263 0.7612 0.0
N502 N 0.37487 0.46869 0.82168 0.0
N503 N 0.37379 0.46679 0.69584 0.0
C504 C 0.37883 0.48575 0.72156 0.0
C505 C 0.37943 0.48677 0.78998 0.0
C506 C 0.273 0.63814 0.54354 0.0
C507 C 0.2531 0.63501 0.57133 0.0
C508 C 0.27565 0.63853 0.47697 0.0
C509 C 0.25853 0.6358 0.43511 0.0
H510 H 0.2866 0.64114 0.57328 0.0
H511 H 0.29119 0.64179 0.45837 0.0
S512 S 0.20359 0.62412 0.48329 0.0
N513 N 0.21629 0.62695 0.55161 0.0
N514 N 0.22127 0.62769 0.42655 0.0
C515 C 0.23875 0.63136 0.46218 0.0
C516 C 0.23604 0.63097 0.53016 0.0
C517 C 0.1063 0.48176 0.28121 0.0
C518 C 0.10895 0.49936 0.32124 0.0
C519 C 0.10599 0.48378 0.2144 0.0
C520 C 0.10843 0.50346 0.18452 0.0
H521 H 0.10366 0.46633 0.30152 0.0
H522 H 0.1032 0.46979 0.18612 0.0
S523 S 0.1184 0.55416 0.26735 0.0
N524 N 0.1159 0.53692 0.32587 0.0
N525 N 0.1154 0.54071 0.20041 0.0
C526 C 0.11225 0.52104 0.22386 0.0
C527 C 0.11247 0.519 0.29207 0.0
C528 C 0.21661 0.04188 0.1356 0.0
C529 C 0.21118 0.06324 0.14125 0.0
C530 C 0.2018 0.0268 0.11704 0.0
C531 C 0.18088 0.03239 0.10343 0.0
H532 H 0.23246 0.03668 0.14571 0.0
H533 H 0.20685 0.01059 0.11354 0.0
S534 S 0.15852 0.08625 0.11042 0.0
N535 N 0.18333 0.08924 0.13127 0.0
N536 N 0.15552 0.06091 0.09649 0.0
C537 C 0.17521 0.0537 0.1087 0.0
C538 C 0.19033 0.0691 0.12752 0.0
C539 C 0.19687 0.92251 0.36572 0.0
C540 C 0.21786 0.92867 0.35613 0.0
C541 C 0.18179 0.93667 0.38851 0.0
C542 C 0.18702 0.95763 0.40283 0.0
H543 H 0.19191 0.90662 0.35504 0.0
H544 H 0.16585 0.93109 0.39462 0.0
S545 S 0.23999 0.98163 0.3882 0.0
N546 N 0.24323 0.95714 0.3642 0.0
N547 N 0.21491 0.98375 0.40706 0.0
C548 C 0.20802 0.96399 0.39416 0.0
C549 C 0.22341 0.94954 0.37085 0.0
C550 C 0.28769 0.9609 0.60729 0.0
C551 C 0.30806 0.95346 0.59428 0.0
C552 C 0.27177 0.94735 0.6282 0.0
C553 C 0.2755 0.92575 0.63694 0.0
H554 H 0.28396 0.97741 0.60183 0.0
H555 H 0.25644 0.95398 0.63801 0.0
S556 S 0.32598 0.89809 0.60768 0.0
N557 N 0.33098 0.92288 0.59032 0.0
N558 N 0.30109 0.89744 0.62953 0.0
C559 C 0.29573 0.918 0.62325 0.0
C560 C 0.31198 0.93183 0.602 0.0
C561 C 0.27606 0.05158 0.86113 0.0
C562 C 0.27964 0.07324 0.8532 0.0
C563 C 0.29173 0.03824 0.88492 0.0
C564 C 0.31169 0.04596 0.9017 0.0
H565 H 0.26105 0.04475 0.84845 0.0
H566 H 0.28814 0.02168 0.8896 0.0
S567 S 0.32903 0.10159 0.89187 0.0
N568 N 0.30462 0.10191 0.86543 0.0
N569 N 0.33404 0.07686 0.91001 0.0
C570 C 0.31545 0.06765 0.89475 0.0
C571 C 0.29945 0.08126 0.8706 0.0
C572 C 0.8676 0.90693 0.86481 0.0
C573 C 0.85887 0.92643 0.88218 0.0
C574 C 0.85515 0.89086 0.83912 0.0
C575 C 0.8334 0.8935 0.83036 0.0
H576 H 0.88424 0.90404 0.87074 0.0
H577 H 0.86267 0.87617 0.82656 0.0
S578 S 0.80272 0.94154 0.86823 0.0
N579 N 0.82704 0.94749 0.8886 0.0
N580 N 0.80364 0.91724 0.84088 0.0
C581 C 0.82442 0.91291 0.84762 0.0
C582 C 0.83714 0.92937 0.8733 0.0
C583 C 0.83166 0.06391 0.6113 0.0
C584 C 0.85291 0.06874 0.6002 0.0
C585 C 0.8176 0.07909 0.63416 0.0
C586 C 0.82419 0.09974 0.64733 0.0
H587 H 0.82571 0.04827 0.60194 0.0
H588 H 0.80141 0.07449 0.64173 0.0
S589 S 0.87829 0.12053 0.6271 0.0
N590 N 0.87993 0.09574 0.60452 0.0
N591 N 0.85355 0.12422 0.64772 0.0
C592 C 0.84544 0.10481 0.63674 0.0
C593 C 0.85977 0.08934 0.61311 0.0
C594 C 0.65863 0.10685 0.36003 0.0
C595 C 0.67975 0.10136 0.34929 0.0
C596 C 0.64418 0.09223 0.38401 0.0
C597 C 0.65016 0.07143 0.39776 0.0
H598 H 0.65317 0.12264 0.35026 0.0
H599 H 0.62813 0.09732 0.39154 0.0
S600 S 0.70357 0.0489 0.3775 0.0
N601 N 0.70592 0.07354 0.35403 0.0
N602 N 0.67876 0.04606 0.39865 0.0
C603 C 0.67122 0.06566 0.38694 0.0
C604 C 0.68599 0.08061 0.3629 0.0
C605 C 0.65805 0.89587 0.14173 0.0
C606 C 0.67919 0.90134 0.15211 0.0
C607 C 0.64349 0.91059 0.11889 0.0
C608 C 0.6494 0.93147 0.10605 0.0
H609 H 0.65267 0.88 0.1507 0.0
H610 H 0.62745 0.9055 0.11145 0.0
S611 S 0.70278 0.95402 0.12635 0.0
N612 N 0.70527 0.92925 0.14837 0.0
N613 N 0.67791 0.95693 0.10595 0.0
C614 C 0.67046 0.93724 0.11676 0.0
C615 C 0.68534 0.92219 0.13958 0.0
C616 C 0.67971 0.55485 0.60248 0.0
C617 C 0.6859 0.53411 0.58883 0.0
C618 C 0.69444 0.57026 0.61899 0.0
C619 C 0.71601 0.56561 0.62271 0.0
H620 H 0.66332 0.55932 0.60049 0.0
H621 H 0.68876 0.58594 0.62935 0.0
S622 S 0.74058 0.51375 0.59046 0.0
N623 N 0.71523 0.50977 0.57937 0.0
N624 N 0.74289 0.53871 0.61049 0.0
C625 C 0.72248 0.54495 0.60886 0.0
C626 C 0.70745 0.52922 0.59193 0.0
C627 C 0.69498 0.42783 0.86286 0.0
C628 C 0.71677 0.43116 0.86744 0.0
C629 C 0.6806 0.44297 0.88389 0.0
C630 C 0.68737 0.4621 0.9106 0.0
H631 H 0.68889 0.41348 0.84209 0.0
H632 H 0.66401 0.43964 0.87867 0.0
S633 S 0.74281 0.47806 0.93726 0.0
N634 N 0.74447 0.45473 0.90319 0.0
N635 N 0.71747 0.48318 0.94293 0.0
C636 C 0.70914 0.46554 0.91649 0.0
C637 C 0.72382 0.45009 0.89488 0.0
C638 C 0.8025 0.4446 0.14395 0.0
C639 C 0.78096 0.44855 0.15282 0.0
C640 C 0.81597 0.46003 0.11953 0.0
C641 C 0.80848 0.48007 0.10255 0.0
H642 H 0.80911 0.42942 0.15589 0.0
H643 H 0.83238 0.45605 0.11333 0.0
S644 S 0.75337 0.49863 0.11724 0.0
N645 N 0.75274 0.47416 0.14329 0.0
N646 N 0.77805 0.50317 0.09743 0.0
C647 C 0.78698 0.48435 0.1117 0.0
C648 C 0.77324 0.46861 0.1368 0.0
C649 C 0.80645 0.55793 0.33894 0.0
C650 C 0.78743 0.55047 0.31318 0.0
C651 C 0.82149 0.54415 0.36398 0.0
C652 C 0.81812 0.52232 0.36473 0.0
H653 H 0.80973 0.57461 0.34057 0.0
H654 H 0.83569 0.55077 0.38417 0.0
S655 S 0.77169 0.49446 0.29885 0.0
N656 N 0.76659 0.51958 0.28679 0.0
N657 N 0.79484 0.49372 0.33432 0.0
C658 C 0.79942 0.51454 0.3378 0.0
C659 C 0.7841 0.52859 0.3119 0.0
C660 C 0.33212 0.43186 0.38254 0.0
C661 C 0.35392 0.42985 0.39185 0.0
C662 C 0.3202 0.41539 0.35693 0.0
C663 C 0.32957 0.39625 0.33901 0.0
H664 H 0.3241 0.44627 0.39523 0.0
H665 H 0.30349 0.41782 0.35061 0.0
S666 S 0.38613 0.38283 0.35386 0.0
N667 N 0.38441 0.40706 0.38149 0.0
N668 N 0.36204 0.37616 0.33302 0.0
C669 C 0.35136 0.39397 0.3482 0.0
C670 C 0.36351 0.41073 0.37471 0.0
C671 C 0.32459 0.58606 0.14305 0.0
C672 C 0.33131 0.60657 0.15763 0.0
C673 C 0.33859 0.57093 0.11961 0.0
C674 C 0.35989 0.5757 0.10914 0.0
H675 H 0.30835 0.58155 0.15005 0.0
H676 H 0.33256 0.5554 0.10909 0.0
S677 S 0.38559 0.6271 0.13969 0.0
N678 N 0.36083 0.63083 0.16011 0.0
N679 N 0.3871 0.60245 0.11562 0.0
C680 C 0.36687 0.59615 0.12346 0.0
C681 C 0.35262 0.61155 0.14783 0.0
C682 C 0.14491 0.59085 0.88432 0.0
C683 C 0.15024 0.56985 0.8977 0.0
C684 C 0.15984 0.60508 0.8609 0.0
C685 C 0.1808 0.59898 0.85038 0.0
H686 H 0.12902 0.59641 0.89171 0.0
H687 H 0.15488 0.62105 0.85143 0.0
S688 S 0.20297 0.54576 0.87775 0.0
N689 N 0.17805 0.54362 0.89845 0.0
N690 N 0.20612 0.57037 0.85488 0.0
C691 C 0.18639 0.57802 0.8636 0.0
C692 C 0.17113 0.56346 0.88706 0.0
C693 C 0.14652 0.4111 0.61096 0.0
C694 C 0.15078 0.4324 0.59852 0.0
C695 C 0.16227 0.39742 0.63237 0.0
C696 C 0.18301 0.40441 0.64175 0.0
H697 H 0.13084 0.40487 0.60441 0.0
H698 H 0.15811 0.38118 0.64124 0.0
S699 S 0.20252 0.45873 0.61581 0.0
N700 N 0.17736 0.45987 0.59718 0.0
N701 N 0.20697 0.43415 0.637 0.0
C702 C 0.18754 0.42567 0.62937 0.0
C703 C 0.17144 0.43966 0.60795 0.0
C704 C 0.25472 0.25547 0.36794 0.0
C705 C 0.23604 0.2438 0.37382 0.0
C706 C 0.25433 0.27706 0.35499 0.0
C707 C 0.23524 0.2879 0.347 0.0
H708 H 0.26985 0.24776 0.37116 0.0
H709 H 0.26918 0.28507 0.34842 0.0
S710 S 0.18186 0.26532 0.36704 0.0
N711 N 0.19786 0.24523 0.3777 0.0
N712 N 0.19714 0.28576 0.3532 0.0
C713 C 0.21644 0.27673 0.35707 0.0
C714 C 0.21683 0.25472 0.37053 0.0
C715 C 0.9959 0.97485 0.63073 0.0
C716 C 0.0065 0.99223 0.65691 0.0
C717 C 0.97433 0.97554 0.61805 0.0
C718 C 0.96238 0.99367 0.63081 0.0
H719 H 0.00444 0.96079 0.61745 0.0
H720 H 0.96722 0.96201 0.59527 0.0
S721 S 0.98188 0.04235 0.70868 0.0
N722 N 0.00289 0.02733 0.70194 0.0
N723 N 0.96231 0.02856 0.67849 0.0
C724 C 0.97244 0.01062 0.66146 0.0
C725 C 0.99449 0.00992 0.6744 0.0
C726 C 0.28781 0.72994 0.84841 0.0
C727 C 0.27283 0.71448 0.86364 0.0
C728 C 0.28411 0.7512 0.86119 0.0
C729 C 0.26533 0.75795 0.89012 0.0
H730 H 0.30215 0.72579 0.82354 0.0
H731 H 0.29581 0.76249 0.84593 0.0
S732 S 0.22245 0.72339 0.94895 0.0
N733 N 0.23954 0.70711 0.91628 0.0
N734 N 0.23257 0.7471 0.94044 0.0
C735 C 0.25088 0.74251 0.9101 0.0
C736 C 0.25463 0.72079 0.89681 0.0
C737 C 0.50326 0.01515 0.14379 0.0
C738 C 0.49395 0.99692 0.16919 0.0
C739 C 0.52491 0.0163 0.13286 0.0
C740 C 0.53824 0.99925 0.14674 0.0
H741 H 0.49368 0.02843 0.12974 0.0
H742 H 0.53103 0.03038 0.11053 0.0
S743 S 0.52228 0.9492 0.22407 0.0
N744 N 0.50012 0.96235 0.2153 0.0
N745 N 0.54088 0.96459 0.19528 0.0
C746 C 0.52941 0.98158 0.17714 0.0
C747 C 0.50727 0.98038 0.18817 0.0
C748 C 0.25204 0.71922 0.11383 0.0
C749 C 0.23263 0.71019 0.13076 0.0
C750 C 0.25372 0.74066 0.09941 0.0
C751 C 0.23608 0.75396 0.1017 0.0
H752 H 0.26628 0.70992 0.11449 0.0
H753 H 0.26917 0.747 0.08957 0.0
S754 S 0.18101 0.73739 0.13041 0.0
N755 N 0.19489 0.7157 0.13937 0.0
N756 N 0.19813 0.75598 0.11281 0.0
C757 C 0.21634 0.74483 0.11338 0.0
C758 C 0.21459 0.72296 0.1277 0.0
C759 C 0.506 0.01839 0.32484 0.0
C760 C 0.49275 0.00155 0.34137 0.0
C761 C 0.52769 0.0175 0.33633 0.0
C762 C 0.53698 0.99971 0.36472 0.0
H763 H 0.49951 0.0328 0.30572 0.0
H764 H 0.53701 0.0313 0.32579 0.0
S765 S 0.50983 0.9497 0.40402 0.0
N766 N 0.49097 0.96535 0.37831 0.0
N767 N 0.53164 0.96361 0.39957 0.0
C768 C 0.52417 0.98206 0.37604 0.0
C769 C 0.50209 0.98301 0.36456 0.0
C770 C 0.29194 0.26982 0.66085 0.0
C771 C 0.27764 0.2851 0.63903 0.0
C772 C 0.28885 0.24846 0.64829 0.0
C773 C 0.27131 0.24141 0.61346 0.0
H774 H 0.30524 0.27423 0.69023 0.0
H775 H 0.29987 0.23735 0.66862 0.0
S776 S 0.2312 0.2752 0.53577 0.0
N777 N 0.24668 0.29185 0.57377 0.0
N778 N 0.24088 0.25161 0.55022 0.0
C779 C 0.25765 0.25658 0.58751 0.0
C780 C 0.26082 0.27842 0.60024 0.0
C781 C 0.99601 0.00265 0.85149 0.0
C782 C 0.01055 0.01916 0.85812 0.0
C783 C 0.97463 0.00568 0.86456 0.0
C784 C 0.9669 0.02535 0.88452 0.0
H785 H 0.00126 0.98699 0.83915 0.0
H786 H 0.96429 0.9922 0.86179 0.0
S787 S 0.99782 0.0747 0.89574 0.0
N788 N 0.01524 0.05659 0.87637 0.0
N789 N 0.97509 0.06234 0.90054 0.0
C790 C 0.98099 0.0424 0.88577 0.0
C791 C 0.0028 0.03929 0.87275 0.0
C792 C 0.77266 0.77933 0.87791 0.0
C793 C 0.75257 0.78849 0.88186 0.0
C794 C 0.77564 0.7578 0.88839 0.0
C795 C 0.75863 0.74454 0.90289 0.0
H796 H 0.78609 0.78858 0.86318 0.0
H797 H 0.7912 0.75136 0.88125 0.0
S798 S 0.70375 0.76137 0.93318 0.0
N799 N 0.71604 0.78315 0.91232 0.0
N800 N 0.72163 0.74262 0.93087 0.0
C801 C 0.73883 0.75378 0.91286 0.0
C802 C 0.73582 0.77577 0.90278 0.0
C803 C 0.76051 0.25132 0.38347 0.0
C804 C 0.74222 0.26029 0.40963 0.0
C805 C 0.76201 0.2297 0.37232 0.0
C806 C 0.74525 0.21605 0.38662 0.0
H807 H 0.77357 0.26117 0.36923 0.0
H808 H 0.77612 0.22383 0.3496 0.0
S809 S 0.69513 0.23109 0.46514 0.0
N810 N 0.70788 0.25348 0.45641 0.0
N811 N 0.71076 0.21278 0.43579 0.0
C812 C 0.7275 0.22456 0.41741 0.0
C813 C 0.72596 0.24667 0.42877 0.0
C814 C 0.76887 0.23963 0.559 0.0
C815 C 0.75241 0.25319 0.57674 0.0
C816 C 0.76778 0.21799 0.57133 0.0
C817 C 0.75016 0.20907 0.60167 0.0
H818 H 0.78321 0.24586 0.5386 0.0
H819 H 0.78136 0.20843 0.5601 0.0
S820 S 0.70092 0.2371 0.6442 0.0
N821 N 0.7166 0.25564 0.6166 0.0
N822 N 0.71445 0.21505 0.63916 0.0
C823 C 0.73278 0.22217 0.61383 0.0
C824 C 0.73394 0.2442 0.6016 0.0
C825 C 0.71444 0.74893 0.10229 0.0
C826 C 0.73231 0.73687 0.0876 0.0
C827 C 0.71601 0.77051 0.11465 0.0
C828 C 0.73552 0.7809 0.11271 0.0
H829 H 0.69923 0.74151 0.10762 0.0
H830 H 0.70195 0.77881 0.12916 0.0
S831 S 0.78626 0.75728 0.06271 0.0
N832 N 0.76956 0.73746 0.06218 0.0
N833 N 0.77252 0.77806 0.08466 0.0
C834 C 0.75318 0.76938 0.09232 0.0
C835 C 0.75159 0.74736 0.08011 0.0
C836 C 0.4883 0.51732 0.1865 0.0
C837 C 0.502 0.50126 0.1664 0.0
C838 C 0.46656 0.51581 0.17644 0.0
C839 C 0.45772 0.49819 0.14584 0.0
H840 H 0.49444 0.53163 0.20735 0.0
H841 H 0.45682 0.52905 0.18972 0.0
S842 S 0.48629 0.44989 0.09733 0.0
N843 N 0.50479 0.46579 0.12403 0.0
N844 N 0.46404 0.46294 0.10512 0.0
C845 C 0.47106 0.48126 0.13079 0.0
C846 C 0.49316 0.48281 0.14098 0.0
C847 C 0.00766 0.47879 0.69229 0.0
C848 C 0.99376 0.4954 0.67871 0.0
C849 C 0.02922 0.48057 0.67967 0.0
C850 C 0.03772 0.49905 0.65318 0.0
H851 H 0.00174 0.46386 0.70933 0.0
H852 H 0.03904 0.46692 0.68739 0.0
S853 S 0.0087 0.54868 0.62278 0.0
N854 N 0.99053 0.53204 0.64728 0.0
N855 N 0.031 0.53548 0.62414 0.0
C856 C 0.02429 0.51645 0.64544 0.0
C857 C 0.00233 0.51459 0.65798 0.0
C858 C 0.01907 0.49312 0.87075 0.0
C859 C 0.03324 0.50984 0.86176 0.0
C860 C 0.99762 0.49546 0.85802 0.0
C861 C 0.98939 0.51458 0.83542 0.0
H862 H 0.02436 0.47834 0.89072 0.0
H863 H 0.98731 0.48236 0.8683 0.0
S864 S 0.02022 0.56216 0.7938 0.0
N865 N 0.03783 0.54538 0.82103 0.0
N866 N 0.99747 0.5498 0.7974 0.0
C867 C 0.00357 0.53089 0.82121 0.0
C868 C 0.02549 0.52851 0.83424 0.0
C869 C 0.49374 0.51274 0.36297 0.0
C870 C 0.50138 0.49396 0.33615 0.0
C871 C 0.47231 0.51567 0.37464 0.0
C872 C 0.45753 0.49993 0.36017 0.0
H873 H 0.50447 0.52504 0.37754 0.0
H874 H 0.46748 0.53006 0.39807 0.0
S875 S 0.4689 0.4493 0.27888 0.0
N876 N 0.49213 0.46041 0.28787 0.0
N877 N 0.45178 0.466 0.30937 0.0
C878 C 0.46472 0.48179 0.32834 0.0
C879 C 0.48664 0.47877 0.3165 0.0
loop_
_geom_bond_atom_site_label_1
_geom_bond_atom_site_label_2
_geom_bond_distance
_geom_bond_site_symmetry_2
_ccdc_geom_bond_type
O0 Cd1 2.300 . S
O0 C7 1.275 . S
Cd1 O0 2.300 . S
Cd1 O9 2.381 . S
Cd1 O10 2.378 . S
O2 Cd3 2.385 . S
O2 C7 1.255 . S
Cd3 O2 2.385 . S
Cd3 O4 2.317 . S
O4 Cd3 2.317 . S
O4 C5 1.232 . S
C5 O4 1.232 . S
C5 O6 1.218 . S
O6 C5 1.218 . S
C7 O0 1.275 . S
C7 O2 1.255 . S
C8 O9 1.258 . S
C8 O10 1.256 . S
O9 Cd1 2.381 . S
O9 C8 1.258 . S
O10 Cd1 2.378 . S
O10 C8 1.256 . S
O11 Cd12 2.300 . S
O11 C18 1.275 . S
Cd12 O11 2.300 . S
Cd12 O20 2.381 . S
Cd12 O21 2.378 . S
O13 Cd14 2.385 . S
O13 C18 1.255 . S
Cd14 O13 2.385 . S
Cd14 O15 2.317 . S
O15 Cd14 2.317 . S
O15 C16 1.232 . S
C16 O15 1.232 . S
C16 O17 1.218 . S
O17 C16 1.218 . S
C18 O11 1.275 . S
C18 O13 1.255 . S
C19 O20 1.258 . S
C19 O21 1.256 . S
O20 Cd12 2.381 . S
O20 C19 1.258 . S
O21 Cd12 2.378 . S
O21 C19 1.256 . S
O22 Cd23 2.300 . S
O22 C29 1.275 . S
Cd23 O22 2.300 . S
Cd23 O31 2.381 . S
Cd23 O32 2.378 . S
O24 Cd25 2.385 . S
O24 C29 1.255 . S
Cd25 O24 2.385 . S
Cd25 O26 2.317 . S
O26 Cd25 2.317 . S
O26 C27 1.232 . S
C27 O26 1.232 . S
C27 O28 1.218 . S
O28 C27 1.218 . S
C29 O22 1.275 . S
C29 O24 1.255 . S
C30 O31 1.258 . S
C30 O32 1.256 . S
O31 Cd23 2.381 . S
O31 C30 1.258 . S
O32 Cd23 2.378 . S
O32 C30 1.256 . S
O33 Cd34 2.300 . S
O33 C40 1.275 . S
Cd34 O33 2.300 . S
Cd34 O42 2.381 1_554 S
Cd34 O43 2.378 1_554 S
O35 Cd36 2.385 . S
O35 C40 1.255 . S
Cd36 O35 2.385 . S
Cd36 O37 2.317 1_554 S
O37 Cd36 2.317 1_556 S
O37 C38 1.232 1_556 S
C38 O37 1.232 1_554 S
C38 O39 1.218 . S
O39 C38 1.218 . S
C40 O33 1.275 . S
C40 O35 1.255 . S
C41 O42 1.258 . S
C41 O43 1.256 . S
O42 Cd34 2.381 1_556 S
O42 C41 1.258 . S
O43 Cd34 2.378 1_556 S
O43 C41 1.256 . S
O44 Cd45 2.300 . S
O44 C51 1.275 . S
Cd45 O44 2.300 . S
Cd45 O53 2.381 . S
Cd45 O54 2.378 . S
O46 Cd47 2.385 . S
O46 C51 1.255 . S
Cd47 O46 2.385 . S
Cd47 O48 2.317 . S
O48 Cd47 2.317 . S
O48 C49 1.232 . S
C49 O48 1.232 . S
C49 O50 1.218 . S
O50 C49 1.218 . S
C51 O44 1.275 . S
C51 O46 1.255 . S
C52 O53 1.258 . S
C52 O54 1.256 . S
O53 Cd45 2.381 . S
O53 C52 1.258 . S
O54 Cd45 2.378 . S
O54 C52 1.256 . S
O55 Cd56 2.300 . S
O55 C62 1.275 . S
Cd56 O55 2.300 . S
Cd56 O64 2.381 . S
Cd56 O65 2.378 . S
O57 Cd58 2.385 . S
O57 C62 1.255 . S
Cd58 O57 2.385 . S
Cd58 O59 2.317 . S
O59 Cd58 2.317 . S
O59 C60 1.232 . S
C60 O59 1.232 . S
C60 O61 1.218 . S
O61 C60 1.218 . S
C62 O55 1.275 . S
C62 O57 1.255 . S
C63 O64 1.258 . S
C63 O65 1.256 . S
O64 Cd56 2.381 . S
O64 C63 1.258 . S
O65 Cd56 2.378 . S
O65 C63 1.256 . S
O66 Cd67 2.300 . S
O66 C73 1.275 . S
Cd67 O66 2.300 . S
Cd67 O75 2.381 . S
Cd67 O76 2.378 . S
O68 Cd69 2.385 . S
O68 C73 1.255 . S
Cd69 O68 2.385 . S
Cd69 O70 2.317 . S
O70 Cd69 2.317 . S
O70 C71 1.232 . S
C71 O70 1.232 . S
C71 O72 1.218 . S
O72 C71 1.218 . S
C73 O66 1.275 . S
C73 O68 1.255 . S
C74 O75 1.258 . S
C74 O76 1.256 . S
O75 Cd67 2.381 . S
O75 C74 1.258 . S
O76 Cd67 2.378 . S
O76 C74 1.256 . S
O77 Cd78 2.300 . S
O77 C84 1.275 . S
Cd78 O77 2.300 . S
Cd78 O86 2.381 1_556 S
Cd78 O87 2.378 1_556 S
O79 Cd80 2.385 . S
O79 C84 1.255 . S
Cd80 O79 2.385 . S
Cd80 O81 2.317 1_556 S
O81 Cd80 2.317 1_554 S
O81 C82 1.232 1_554 S
C82 O81 1.232 1_556 S
C82 O83 1.218 . S
O83 C82 1.218 . S
C84 O77 1.275 . S
C84 O79 1.255 . S
C85 O86 1.258 . S
C85 O87 1.256 . S
O86 Cd78 2.381 1_554 S
O86 C85 1.258 . S
O87 Cd78 2.378 1_554 S
O87 C85 1.256 . S
O88 Cd89 2.300 . S
O88 C95 1.275 . S
Cd89 O88 2.300 . S
Cd89 O97 2.381 . S
Cd89 O98 2.378 . S
O90 Cd91 2.385 . S
O90 C95 1.255 . S
Cd91 O90 2.385 . S
Cd91 O92 2.317 . S
O92 Cd91 2.317 . S
O92 C93 1.232 . S
C93 O92 1.232 . S
C93 O94 1.218 . S
O94 C93 1.218 . S
C95 O88 1.275 . S
C95 O90 1.255 . S
C96 O97 1.258 . S
C96 O98 1.256 . S
O97 Cd89 2.381 . S
O97 C96 1.258 . S
O98 Cd89 2.378 . S
O98 C96 1.256 . S
O99 Cd100 2.300 . S
O99 C106 1.278 1_545 S
Cd100 O99 2.300 . S
Cd100 O108 2.381 . S
Cd100 O109 2.378 . S
O101 Cd102 2.385 . S
O101 C106 1.253 . S
Cd102 O101 2.385 . S
Cd102 O103 2.317 . S
O103 Cd102 2.317 . S
O103 C104 1.232 . S
C104 O103 1.232 . S
C104 O105 1.218 . S
O105 C104 1.218 . S
C106 O99 1.278 1_565 S
C106 O101 1.253 . S
C107 O108 1.258 . S
C107 O109 1.256 . S
O108 Cd100 2.381 . S
O108 C107 1.258 . S
O109 Cd100 2.378 . S
O109 C107 1.256 . S
O110 Cd111 2.300 . S
O110 C117 1.275 . S
Cd111 O110 2.300 . S
Cd111 O119 2.381 . S
Cd111 O120 2.378 . S
O112 Cd113 2.385 . S
O112 C117 1.255 . S
Cd113 O112 2.385 . S
Cd113 O114 2.317 . S
O114 Cd113 2.317 . S
O114 C115 1.232 . S
C115 O114 1.232 . S
C115 O116 1.218 . S
O116 C115 1.218 . S
C117 O110 1.275 . S
C117 O112 1.255 . S
C118 O119 1.258 . S
C118 O120 1.256 . S
O119 Cd111 2.381 . S
O119 C118 1.258 . S
O120 Cd111 2.378 . S
O120 C118 1.256 . S
O121 Cd122 2.300 1_556 S
O121 C128 1.278 1_565 S
Cd122 O121 2.300 1_554 S
Cd122 O130 2.381 . S
Cd122 O131 2.378 . S
O123 Cd124 2.385 1_556 S
O123 C128 1.253 . S
Cd124 O123 2.385 1_554 S
Cd124 O125 2.317 . S
O125 Cd124 2.317 . S
O125 C126 1.232 . S
C126 O125 1.232 . S
C126 O127 1.218 1_554 S
O127 C126 1.218 1_556 S
C128 O121 1.278 1_545 S
C128 O123 1.253 . S
C129 O130 1.258 . S
C129 O131 1.256 . S
O130 Cd122 2.381 . S
O130 C129 1.258 . S
O131 Cd122 2.378 . S
O131 C129 1.256 . S
O132 Cd133 2.300 . S
O132 C139 1.275 . S
Cd133 O132 2.300 . S
Cd133 O141 2.381 . S
Cd133 O142 2.378 . S
O134 Cd135 2.385 . S
O134 C139 1.255 . S
Cd135 O134 2.385 . S
Cd135 O136 2.317 . S
O136 Cd135 2.317 . S
O136 C137 1.232 . S
C137 O136 1.232 . S
C137 O138 1.218 . S
O138 C137 1.218 . S
C139 O132 1.275 . S
C139 O134 1.255 . S
C140 O141 1.258 . S
C140 O142 1.256 . S
O141 Cd133 2.381 . S
O141 C140 1.258 . S
O142 Cd133 2.378 . S
O142 C140 1.256 . S
O143 Cd144 2.300 . S
O143 C150 1.280 1_545 S
Cd144 O143 2.300 . S
Cd144 O152 2.381 . S
Cd144 O153 2.378 . S
O145 Cd146 2.385 . S
O145 C150 1.252 . S
Cd146 O145 2.385 . S
Cd146 O147 2.317 . S
O147 Cd146 2.317 . S
O147 C148 1.232 . S
C148 O147 1.232 . S
C148 O149 1.218 . S
O149 C148 1.218 . S
C150 O143 1.280 1_565 S
C150 O145 1.252 . S
C151 O152 1.258 . S
C151 O153 1.256 . S
O152 Cd144 2.381 . S
O152 C151 1.258 . S
O153 Cd144 2.378 . S
O153 C151 1.256 . S
O154 Cd155 2.300 . S
O154 C161 1.275 . S
Cd155 O154 2.300 . S
Cd155 O163 2.381 . S
Cd155 O164 2.378 . S
O156 Cd157 2.385 . S
O156 C161 1.255 . S
Cd157 O156 2.385 . S
Cd157 O158 2.317 . S
O158 Cd157 2.317 . S
O158 C159 1.232 . S
C159 O158 1.232 . S
C159 O160 1.218 . S
O160 C159 1.218 . S
C161 O154 1.275 . S
C161 O156 1.255 . S
C162 O163 1.258 . S
C162 O164 1.256 . S
O163 Cd155 2.381 . S
O163 C162 1.258 . S
O164 Cd155 2.378 . S
O164 C162 1.256 . S
O165 Cd166 2.300 1_554 S
O165 C172 1.280 1_565 S
Cd166 O165 2.300 1_556 S
Cd166 O174 2.381 . S
Cd166 O175 2.378 . S
O167 Cd168 2.385 1_554 S
O167 C172 1.252 . S
Cd168 O167 2.385 1_556 S
Cd168 O169 2.317 . S
O169 Cd168 2.317 . S
O169 C170 1.232 . S
C170 O169 1.232 . S
C170 O171 1.218 1_556 S
O171 C170 1.218 1_554 S
C172 O165 1.280 1_545 S
C172 O167 1.252 . S
C173 O174 1.258 . S
C173 O175 1.256 . S
O174 Cd166 2.381 . S
O174 C173 1.258 . S
O175 Cd166 2.378 . S
O175 C173 1.256 . S
O176 Cd177 2.300 . S
O176 C183 1.275 . S
Cd177 O176 2.300 . S
Cd177 O185 2.381 . S
Cd177 O186 2.378 . S
O178 Cd179 2.385 . S
O178 C183 1.255 . S
Cd179 O178 2.385 . S
Cd179 O180 2.317 . S
O180 Cd179 2.317 . S
O180 C181 1.232 . S
C181 O180 1.232 . S
C181 O182 1.218 . S
O182 C181 1.218 . S
C183 O176 1.275 . S
C183 O178 1.255 . S
C184 O185 1.258 . S
C184 O186 1.256 . S
O185 Cd177 2.381 . S
O185 C184 1.258 . S
O186 Cd177 2.378 . S
O186 C184 1.256 . S
O187 Cd188 2.300 . S
O187 C194 1.275 . S
Cd188 O187 2.300 . S
Cd188 O196 2.381 1_554 S
Cd188 O197 2.378 1_554 S
O189 Cd190 2.385 . S
O189 C194 1.255 . S
Cd190 O189 2.385 . S
Cd190 O191 2.317 1_554 S
O191 Cd190 2.317 1_556 S
O191 C192 1.232 1_556 S
C192 O191 1.232 1_554 S
C192 O193 1.218 . S
O193 C192 1.218 . S
C194 O187 1.275 . S
C194 O189 1.255 . S
C195 O196 1.258 . S
C195 O197 1.256 . S
O196 Cd188 2.381 1_556 S
O196 C195 1.258 . S
O197 Cd188 2.378 1_556 S
O197 C195 1.256 . S
O198 Cd199 2.300 . S
O198 C205 1.275 . S
Cd199 O198 2.300 . S
Cd199 O207 2.381 . S
Cd199 O208 2.378 . S
O200 Cd201 2.385 . S
O200 C205 1.255 . S
Cd201 O200 2.385 . S
Cd201 O202 2.317 . S
O202 Cd201 2.317 . S
O202 C203 1.232 . S
C203 O202 1.232 . S
C203 O204 1.218 . S
O204 C203 1.218 . S
C205 O198 1.275 . S
C205 O200 1.255 . S
C206 O207 1.258 . S
C206 O208 1.256 . S
O207 Cd199 2.381 . S
O207 C206 1.258 . S
O208 Cd199 2.378 . S
O208 C206 1.256 . S
O209 Cd210 2.300 . S
O209 C216 1.275 . S
Cd210 O209 2.300 . S
Cd210 O218 2.381 . S
Cd210 O219 2.378 . S
O211 Cd212 2.385 . S
O211 C216 1.255 . S
Cd212 O211 2.385 . S
Cd212 O213 2.317 . S
O213 Cd212 2.317 . S
O213 C214 1.232 . S
C214 O213 1.232 . S
C214 O215 1.218 . S
O215 C214 1.218 . S
C216 O209 1.275 . S
C216 O211 1.255 . S
C217 O218 1.258 . S
C217 O219 1.256 . S
O218 Cd210 2.381 . S
O218 C217 1.258 . S
O219 Cd210 2.378 . S
O219 C217 1.256 . S
O220 Cd221 2.300 . S
O220 C227 1.275 . S
Cd221 O220 2.300 . S
Cd221 O229 2.381 . S
Cd221 O230 2.378 . S
O222 Cd223 2.385 . S
O222 C227 1.255 . S
Cd223 O222 2.385 . S
Cd223 O224 2.317 . S
O224 Cd223 2.317 . S
O224 C225 1.232 . S
C225 O224 1.232 . S
C225 O226 1.218 . S
O226 C225 1.218 . S
C227 O220 1.275 . S
C227 O222 1.255 . S
C228 O229 1.258 . S
C228 O230 1.256 . S
O229 Cd221 2.381 . S
O229 C228 1.258 . S
O230 Cd221 2.378 . S
O230 C228 1.256 . S
O231 Cd232 2.300 . S
O231 C238 1.275 . S
Cd232 O231 2.300 . S
Cd232 O240 2.381 1_556 S
Cd232 O241 2.378 1_556 S
O233 Cd234 2.385 . S
O233 C238 1.255 . S
Cd234 O233 2.385 . S
Cd234 O235 2.317 1_556 S
O235 Cd234 2.317 1_554 S
O235 C236 1.232 1_554 S
C236 O235 1.232 1_556 S
C236 O237 1.218 . S
O237 C236 1.218 . S
C238 O231 1.275 . S
C238 O233 1.255 . S
C239 O240 1.258 . S
C239 O241 1.256 . S
O240 Cd232 2.381 1_554 S
O240 C239 1.258 . S
O241 Cd232 2.378 1_554 S
O241 C239 1.256 . S
O242 Cd243 2.300 . S
O242 C249 1.275 . S
Cd243 O242 2.300 . S
Cd243 O251 2.381 . S
Cd243 O252 2.378 . S
O244 Cd245 2.385 . S
O244 C249 1.255 . S
Cd245 O244 2.385 . S
Cd245 O246 2.317 . S
O246 Cd245 2.317 . S
O246 C247 1.232 . S
C247 O246 1.232 . S
C247 O248 1.218 . S
O248 C247 1.218 . S
C249 O242 1.275 . S
C249 O244 1.255 . S
C250 O251 1.258 . S
C250 O252 1.256 . S
O251 Cd243 2.381 . S
O251 C250 1.258 . S
O252 Cd243 2.378 . S
O252 C250 1.256 . S
O253 Cd254 2.300 . S
O253 C260 1.275 . S
Cd254 O253 2.300 . S
Cd254 O262 2.381 . S
Cd254 O263 2.378 . S
O255 Cd256 2.385 . S
O255 C260 1.255 . S
Cd256 O255 2.385 . S
Cd256 O257 2.317 . S
O257 Cd256 2.317 . S
O257 C258 1.232 . S
C258 O257 1.232 . S
C258 O259 1.218 . S
O259 C258 1.218 . S
C260 O253 1.275 . S
C260 O255 1.255 . S
C261 O262 1.258 . S
C261 O263 1.256 . S
O262 Cd254 2.381 . S
O262 C261 1.258 . S
O263 Cd254 2.378 . S
O263 C261 1.256 . S
O264 Cd265 2.300 . S
O264 C271 1.275 . S
Cd265 O264 2.300 . S
Cd265 O273 2.381 . S
Cd265 O274 2.378 . S
O266 Cd267 2.385 . S
O266 C271 1.255 . S
Cd267 O266 2.385 . S
Cd267 O268 2.317 . S
O268 Cd267 2.317 . S
O268 C269 1.232 . S
C269 O268 1.232 . S
C269 O270 1.218 . S
O270 C269 1.218 . S
C271 O264 1.275 . S
C271 O266 1.255 . S
C272 O273 1.258 . S
C272 O274 1.256 . S
O273 Cd265 2.381 . S
O273 C272 1.258 . S
O274 Cd265 2.378 . S
O274 C272 1.256 . S
O275 Cd276 2.300 1_556 S
O275 C282 1.275 . S
Cd276 O275 2.300 1_554 S
Cd276 O284 2.381 . S
Cd276 O285 2.378 . S
O277 Cd278 2.385 1_556 S
O277 C282 1.255 . S
Cd278 O277 2.385 1_554 S
Cd278 O279 2.317 . S
O279 Cd278 2.317 . S
O279 C280 1.232 . S
C280 O279 1.232 . S
C280 O281 1.218 1_554 S
O281 C280 1.218 1_556 S
C282 O275 1.275 . S
C282 O277 1.255 . S
C283 O284 1.258 . S
C283 O285 1.256 . S
O284 Cd276 2.381 . S
O284 C283 1.258 . S
O285 Cd276 2.378 . S
O285 C283 1.256 . S
O286 Cd287 2.300 . S
O286 C293 1.275 . S
Cd287 O286 2.300 . S
Cd287 O295 2.381 . S
Cd287 O296 2.378 . S
O288 Cd289 2.385 . S
O288 C293 1.255 . S
Cd289 O288 2.385 . S
Cd289 O290 2.317 . S
O290 Cd289 2.317 . S
O290 C291 1.232 . S
C291 O290 1.232 . S
C291 O292 1.218 . S
O292 C291 1.218 . S
C293 O286 1.275 . S
C293 O288 1.255 . S
C294 O295 1.258 . S
C294 O296 1.256 . S
O295 Cd287 2.381 . S
O295 C294 1.258 . S
O296 Cd287 2.378 . S
O296 C294 1.256 . S
O297 Cd298 2.300 . S
O297 C304 1.275 . S
Cd298 O297 2.300 . S
Cd298 O306 2.381 . S
Cd298 O307 2.378 . S
O299 Cd300 2.385 . S
O299 C304 1.255 . S
Cd300 O299 2.385 . S
Cd300 O301 2.317 . S
O301 Cd300 2.317 . S
O301 C302 1.232 . S
C302 O301 1.232 . S
C302 O303 1.218 . S
O303 C302 1.218 . S
C304 O297 1.275 . S
C304 O299 1.255 . S
C305 O306 1.258 . S
C305 O307 1.256 . S
O306 Cd298 2.381 . S
O306 C305 1.258 . S
O307 Cd298 2.378 . S
O307 C305 1.256 . S
O308 Cd309 2.300 . S
O308 C315 1.275 . S
Cd309 O308 2.300 . S
Cd309 O317 2.381 . S
Cd309 O318 2.378 . S
O310 Cd311 2.385 . S
O310 C315 1.255 . S
Cd311 O310 2.385 . S
Cd311 O312 2.317 . S
O312 Cd311 2.317 . S
O312 C313 1.232 . S
C313 O312 1.232 . S
C313 O314 1.218 . S
O314 C313 1.218 . S
C315 O308 1.275 . S
C315 O310 1.255 . S
C316 O317 1.258 . S
C316 O318 1.256 . S
O317 Cd309 2.381 . S
O317 C316 1.258 . S
O318 Cd309 2.378 . S
O318 C316 1.256 . S
O319 Cd320 2.300 1_554 S
O319 C326 1.275 . S
Cd320 O319 2.300 1_556 S
Cd320 O328 2.381 . S
Cd320 O329 2.378 . S
O321 Cd322 2.385 1_554 S
O321 C326 1.255 . S
Cd322 O321 2.385 1_556 S
Cd322 O323 2.317 . S
O323 Cd322 2.317 . S
O323 C324 1.232 . S
C324 O323 1.232 . S
C324 O325 1.218 1_556 S
O325 C324 1.218 1_554 S
C326 O319 1.275 . S
C326 O321 1.255 . S
C327 O328 1.258 . S
C327 O329 1.256 . S
O328 Cd320 2.381 . S
O328 C327 1.258 . S
O329 Cd320 2.378 . S
O329 C327 1.256 . S
O330 Cd331 2.300 . S
O330 C337 1.275 . S
Cd331 O330 2.300 . S
Cd331 O339 2.381 . S
Cd331 O340 2.378 . S
O332 Cd333 2.385 . S
O332 C337 1.255 . S
Cd333 O332 2.385 . S
Cd333 O334 2.317 . S
O334 Cd333 2.317 . S
O334 C335 1.232 . S
C335 O334 1.232 . S
C335 O336 1.218 . S
O336 C335 1.218 . S
C337 O330 1.275 . S
C337 O332 1.255 . S
C338 O339 1.258 . S
C338 O340 1.256 . S
O339 Cd331 2.381 . S
O339 C338 1.258 . S
O340 Cd331 2.378 . S
O340 C338 1.256 . S
O341 Cd342 2.300 . S
O341 C348 1.275 . S
Cd342 O341 2.300 . S
Cd342 O350 2.381 . S
Cd342 O351 2.378 . S
O343 Cd344 2.385 . S
O343 C348 1.255 . S
Cd344 O343 2.385 . S
Cd344 O345 2.317 . S
O345 Cd344 2.317 . S
O345 C346 1.232 . S
C346 O345 1.232 . S
C346 O347 1.218 . S
O347 C346 1.218 . S
C348 O341 1.275 . S
C348 O343 1.255 . S
C349 O350 1.258 . S
C349 O351 1.256 . S
O350 Cd342 2.381 . S
O350 C349 1.258 . S
O351 Cd342 2.378 . S
O351 C349 1.256 . S
C352 C353 1.369 . S
C352 C354 1.419 . S
C352 H356 0.930 . S
C353 C352 1.369 . S
C353 C362 1.429 . S
C354 C352 1.419 . S
C354 C355 1.363 . S
C354 H357 0.929 . S
C355 C354 1.363 . S
C355 C361 1.428 . S
H356 C352 0.930 . S
H357 C354 0.929 . S
S358 N359 1.613 . S
S358 N360 1.610 . S
N359 S358 1.613 . S
N359 C362 1.350 . S
N360 S358 1.610 . S
N360 C361 1.351 . S
C361 C355 1.428 . S
C361 N360 1.351 . S
C361 C362 1.434 . S
C362 C353 1.429 . S
C362 N359 1.350 . S
C362 C361 1.434 . S
C363 C364 1.370 . S
C363 C365 1.416 1_545 S
C363 H367 0.930 . S
C364 C363 1.370 . S
C364 C373 1.429 . S
C365 C363 1.416 1_565 S
C365 C366 1.365 . S
C365 H368 0.933 . S
C366 C365 1.365 . S
C366 C372 1.430 . S
H367 C363 0.930 . S
H368 C365 0.933 . S
S369 N370 1.614 . S
S369 N371 1.610 . S
N370 S369 1.614 . S
N370 C373 1.349 1_565 S
N371 S369 1.610 . S
N371 C372 1.355 . S
C372 C366 1.430 . S
C372 N371 1.355 . S
C372 C373 1.432 1_565 S
C373 C364 1.429 . S
C373 N370 1.349 1_545 S
C373 C372 1.432 1_545 S
C374 C375 1.369 . S
C374 C376 1.419 1_556 S
C374 H378 0.930 . S
C375 C374 1.369 . S
C375 C384 1.429 . S
C376 C374 1.419 1_554 S
C376 C377 1.363 . S
C376 H379 0.929 . S
C377 C376 1.363 . S
C377 C383 1.428 . S
H378 C374 0.930 . S
H379 C376 0.929 . S
S380 N381 1.613 1_554 S
S380 N382 1.610 . S
N381 S380 1.613 1_556 S
N381 C384 1.350 . S
N382 S380 1.610 . S
N382 C383 1.351 . S
C383 C377 1.428 . S
C383 N382 1.351 . S
C383 C384 1.434 1_554 S
C384 C375 1.429 . S
C384 N381 1.350 . S
C384 C383 1.434 1_556 S
C385 C386 1.369 . S
C385 C387 1.419 . S
C385 H389 0.930 . S
C386 C385 1.369 . S
C386 C395 1.429 1_565 S
C387 C385 1.419 . S
C387 C388 1.363 1_565 S
C387 H390 0.929 . S
C388 C387 1.363 1_545 S
C388 C394 1.428 . S
H389 C385 0.930 . S
H390 C387 0.929 . S
S391 N392 1.613 . S
S391 N393 1.610 . S
N392 S391 1.613 . S
N392 C395 1.350 . S
N393 S391 1.610 . S
N393 C394 1.351 . S
C394 C388 1.428 . S
C394 N393 1.351 . S
C394 C395 1.434 . S
C395 C386 1.429 1_545 S
C395 N392 1.350 . S
C395 C394 1.434 . S
C396 C397 1.369 . S
C396 C398 1.419 . S
C396 H400 0.930 . S
C397 C396 1.369 . S
C397 C406 1.429 . S
C398 C396 1.419 . S
C398 C399 1.363 . S
C398 H401 0.929 . S
C399 C398 1.363 . S
C399 C405 1.428 . S
H400 C396 0.930 . S
H401 C398 0.929 . S
S402 N403 1.613 . S
S402 N404 1.610 . S
N403 S402 1.613 . S
N403 C406 1.350 . S
N404 S402 1.610 . S
N404 C405 1.351 . S
C405 C399 1.428 . S
C405 N404 1.351 . S
C405 C406 1.434 . S
C406 C397 1.429 . S
C406 N403 1.350 . S
C406 C405 1.434 . S
C407 C408 1.414 . S
C407 C409 1.419 . S
C407 H411 0.930 . S
C408 C407 1.414 . S
C408 C417 1.381 1_545 S
C409 C407 1.419 . S
C409 C410 1.363 1_545 S
C409 H412 0.929 . S
C410 C409 1.363 1_565 S
C410 C416 1.428 . S
H411 C407 0.930 . S
H412 C409 0.929 . S
S413 N414 1.613 . S
S413 N415 1.610 . S
N414 S413 1.613 . S
N414 C417 1.350 . S
N415 S413 1.610 . S
N415 C416 1.351 . S
C416 C410 1.428 . S
C416 N415 1.351 . S
C416 C417 1.434 . S
C417 C408 1.381 1_565 S
C417 N414 1.350 . S
C417 C416 1.434 . S
C418 C419 1.369 . S
C418 C420 1.419 1_556 S
C418 H422 0.930 . S
C419 C418 1.369 . S
C419 C428 1.429 . S
C420 C418 1.419 1_554 S
C420 C421 1.363 . S
C420 H423 0.929 . S
C421 C420 1.363 . S
C421 C427 1.428 . S
H422 C418 0.930 . S
H423 C420 0.929 . S
S424 N425 1.613 . S
S424 N426 1.610 1_556 S
N425 S424 1.613 . S
N425 C428 1.350 . S
N426 S424 1.610 1_554 S
N426 C427 1.351 . S
C427 C421 1.428 . S
C427 N426 1.351 . S
C427 C428 1.434 1_554 S
C428 C419 1.429 . S
C428 N425 1.350 . S
C428 C427 1.434 1_556 S
C429 C430 1.369 . S
C429 C431 1.419 . S
C429 H433 0.930 . S
C430 C429 1.369 . S
C430 C439 1.429 1_565 S
C431 C429 1.419 . S
C431 C432 1.363 1_565 S
C431 H434 0.929 . S
C432 C431 1.363 1_545 S
C432 C438 1.428 . S
H433 C429 0.930 . S
H434 C431 0.929 . S
S435 N436 1.613 . S
S435 N437 1.610 . S
N436 S435 1.613 . S
N436 C439 1.350 . S
N437 S435 1.610 . S
N437 C438 1.351 . S
C438 C432 1.428 . S
C438 N437 1.351 . S
C438 C439 1.434 . S
C439 C430 1.429 1_545 S
C439 N436 1.350 . S
C439 C438 1.434 . S
C440 C441 1.369 . S
C440 C442 1.419 1_554 S
C440 H444 0.930 . S
C441 C440 1.369 . S
C441 C450 1.429 . S
C442 C440 1.419 1_556 S
C442 C443 1.363 . S
C442 H445 0.929 . S
C443 C442 1.363 . S
C443 C449 1.428 . S
H444 C440 0.930 . S
H445 C442 0.929 . S
S446 N447 1.613 . S
S446 N448 1.610 1_554 S
N447 S446 1.613 . S
N447 C450 1.350 . S
N448 S446 1.610 1_556 S
N448 C449 1.351 . S
C449 C443 1.428 . S
C449 N448 1.351 . S
C449 C450 1.434 1_556 S
C450 C441 1.429 . S
C450 N447 1.350 . S
C450 C449 1.434 1_554 S
C451 C452 1.369 . S
C451 C453 1.419 . S
C451 H455 0.930 . S
C452 C451 1.369 . S
C452 C461 1.429 . S
C453 C451 1.419 . S
C453 C454 1.363 . S
C453 H456 0.929 . S
C454 C453 1.363 . S
C454 C460 1.428 . S
H455 C451 0.930 . S
H456 C453 0.929 . S
S457 N458 1.613 . S
S457 N459 1.610 . S
N458 S457 1.613 . S
N458 C461 1.350 . S
N459 S457 1.610 . S
N459 C460 1.351 . S
C460 C454 1.428 . S
C460 N459 1.351 . S
C460 C461 1.434 . S
C461 C452 1.429 . S
C461 N458 1.350 . S
C461 C460 1.434 . S
C462 C463 1.369 . S
C462 C464 1.419 . S
C462 H466 0.930 . S
C463 C462 1.369 . S
C463 C472 1.429 . S
C464 C462 1.419 . S
C464 C465 1.363 . S
C464 H467 0.929 . S
C465 C464 1.363 . S
C465 C471 1.428 . S
H466 C462 0.930 . S
H467 C464 0.929 . S
S468 N469 1.613 . S
S468 N470 1.610 . S
N469 S468 1.613 . S
N469 C472 1.350 . S
N470 S468 1.610 . S
N470 C471 1.351 . S
C471 C465 1.428 . S
C471 N470 1.351 . S
C471 C472 1.434 . S
C472 C463 1.429 . S
C472 N469 1.350 . S
C472 C471 1.434 . S
C473 C474 1.369 . S
C473 C475 1.419 . S
C473 H477 0.930 . S
C474 C473 1.369 . S
C474 C483 1.429 . S
C475 C473 1.419 . S
C475 C476 1.363 . S
C475 H478 0.929 . S
C476 C475 1.363 . S
C476 C482 1.428 . S
H477 C473 0.930 . S
H478 C475 0.929 . S
S479 N480 1.613 . S
S479 N481 1.610 . S
N480 S479 1.613 . S
N480 C483 1.350 . S
N481 S479 1.610 . S
N481 C482 1.351 . S
C482 C476 1.428 . S
C482 N481 1.351 . S
C482 C483 1.434 . S
C483 C474 1.429 . S
C483 N480 1.350 . S
C483 C482 1.434 . S
C484 C485 1.369 . S
C484 C486 1.419 1_556 S
C484 H488 0.930 . S
C485 C484 1.369 . S
C485 C494 1.429 . S
C486 C484 1.419 1_554 S
C486 C487 1.363 . S
C486 H489 0.929 . S
C487 C486 1.363 . S
C487 C493 1.428 . S
H488 C484 0.930 . S
H489 C486 0.929 . S
S490 N491 1.613 . S
S490 N492 1.610 1_556 S
N491 S490 1.613 . S
N491 C494 1.350 . S
N492 S490 1.610 1_554 S
N492 C493 1.351 . S
C493 C487 1.428 . S
C493 N492 1.351 . S
C493 C494 1.434 1_554 S
C494 C485 1.429 . S
C494 N491 1.350 . S
C494 C493 1.434 1_556 S
C495 C496 1.369 . S
C495 C497 1.419 . S
C495 H499 0.930 . S
C496 C495 1.369 . S
C496 C505 1.429 . S
C497 C495 1.419 . S
C497 C498 1.363 . S
C497 H500 0.929 . S
C498 C497 1.363 . S
C498 C504 1.428 . S
H499 C495 0.930 . S
H500 C497 0.929 . S
S501 N502 1.613 . S
S501 N503 1.610 . S
N502 S501 1.613 . S
N502 C505 1.350 . S
N503 S501 1.610 . S
N503 C504 1.351 . S
C504 C498 1.428 . S
C504 N503 1.351 . S
C504 C505 1.434 . S
C505 C496 1.429 . S
C505 N502 1.350 . S
C505 C504 1.434 . S
C506 C507 1.369 . S
C506 C508 1.419 . S
C506 H510 0.930 . S
C507 C506 1.369 . S
C507 C516 1.429 . S
C508 C506 1.419 . S
C508 C509 1.363 . S
C508 H511 0.929 . S
C509 C508 1.363 . S
C509 C515 1.428 . S
H510 C506 0.930 . S
H511 C508 0.929 . S
S512 N513 1.613 . S
S512 N514 1.610 . S
N513 S512 1.613 . S
N513 C516 1.350 . S
N514 S512 1.610 . S
N514 C515 1.351 . S
C515 C509 1.428 . S
C515 N514 1.351 . S
C515 C516 1.434 . S
C516 C507 1.429 . S
C516 N513 1.350 . S
C516 C515 1.434 . S
C517 C518 1.369 . S
C517 C519 1.419 . S
C517 H521 0.930 . S
C518 C517 1.369 . S
C518 C527 1.429 . S
C519 C517 1.419 . S
C519 C520 1.363 . S
C519 H522 0.929 . S
C520 C519 1.363 . S
C520 C526 1.428 . S
H521 C517 0.930 . S
H522 C519 0.929 . S
S523 N524 1.613 . S
S523 N525 1.610 . S
N524 S523 1.613 . S
N524 C527 1.350 . S
N525 S523 1.610 . S
N525 C526 1.351 . S
C526 C520 1.428 . S
C526 N525 1.351 . S
C526 C527 1.434 . S
C527 C518 1.429 . S
C527 N524 1.350 . S
C527 C526 1.434 . S
C528 C529 1.369 . S
C528 C530 1.419 . S
C528 H532 0.930 . S
C529 C528 1.369 . S
C529 C538 1.429 . S
C530 C528 1.419 . S
C530 C531 1.363 . S
C530 H533 0.929 . S
C531 C530 1.363 . S
C531 C537 1.428 . S
H532 C528 0.930 . S
H533 C530 0.929 . S
S534 N535 1.613 . S
S534 N536 1.610 . S
N535 S534 1.613 . S
N535 C538 1.350 . S
N536 S534 1.610 . S
N536 C537 1.351 . S
C537 C531 1.428 . S
C537 N536 1.351 . S
C537 C538 1.434 . S
C538 C529 1.429 . S
C538 N535 1.350 . S
C538 C537 1.434 . S
C539 C540 1.369 . S
C539 C541 1.419 . S
C539 H543 0.930 . S
C540 C539 1.369 . S
C540 C549 1.429 . S
C541 C539 1.419 . S
C541 C542 1.363 . S
C541 H544 0.929 . S
C542 C541 1.363 . S
C542 C548 1.428 . S
H543 C539 0.930 . S
H544 C541 0.929 . S
S545 N546 1.613 . S
S545 N547 1.610 . S
N546 S545 1.613 . S
N546 C549 1.350 . S
N547 S545 1.610 . S
N547 C548 1.351 . S
C548 C542 1.428 . S
C548 N547 1.351 . S
C548 C549 1.434 . S
C549 C540 1.429 . S
C549 N546 1.350 . S
C549 C548 1.434 . S
C550 C551 1.369 . S
C550 C552 1.419 . S
C550 H554 0.930 . S
C551 C550 1.369 . S
C551 C560 1.429 . S
C552 C550 1.419 . S
C552 C553 1.363 . S
C552 H555 0.929 . S
C553 C552 1.363 . S
C553 C559 1.428 . S
H554 C550 0.930 . S
H555 C552 0.929 . S
S556 N557 1.613 . S
S556 N558 1.610 . S
N557 S556 1.613 . S
N557 C560 1.350 . S
N558 S556 1.610 . S
N558 C559 1.351 . S
C559 C553 1.428 . S
C559 N558 1.351 . S
C559 C560 1.434 . S
C560 C551 1.429 . S
C560 N557 1.350 . S
C560 C559 1.434 . S
C561 C562 1.369 . S
C561 C563 1.419 . S
C561 H565 0.930 . S
C562 C561 1.369 . S
C562 C571 1.429 . S
C563 C561 1.419 . S
C563 C564 1.363 . S
C563 H566 0.929 . S
C564 C563 1.363 . S
C564 C570 1.428 . S
H565 C561 0.930 . S
H566 C563 0.929 . S
S567 N568 1.613 . S
S567 N569 1.610 . S
N568 S567 1.613 . S
N568 C571 1.350 . S
N569 S567 1.610 . S
N569 C570 1.351 . S
C570 C564 1.428 . S
C570 N569 1.351 . S
C570 C571 1.434 . S
C571 C562 1.429 . S
C571 N568 1.350 . S
C571 C570 1.434 . S
C572 C573 1.369 . S
C572 C574 1.419 . S
C572 H576 0.930 . S
C573 C572 1.369 . S
C573 C582 1.429 . S
C574 C572 1.419 . S
C574 C575 1.363 . S
C574 H577 0.929 . S
C575 C574 1.363 . S
C575 C581 1.428 . S
H576 C572 0.930 . S
H577 C574 0.929 . S
S578 N579 1.613 . S
S578 N580 1.610 . S
N579 S578 1.613 . S
N579 C582 1.350 . S
N580 S578 1.610 . S
N580 C581 1.351 . S
C581 C575 1.428 . S
C581 N580 1.351 . S
C581 C582 1.434 . S
C582 C573 1.429 . S
C582 N579 1.350 . S
C582 C581 1.434 . S
C583 C584 1.369 . S
C583 C585 1.419 . S
C583 H587 0.930 . S
C584 C583 1.369 . S
C584 C593 1.429 . S
C585 C583 1.419 . S
C585 C586 1.363 . S
C585 H588 0.929 . S
C586 C585 1.363 . S
C586 C592 1.428 . S
H587 C583 0.930 . S
H588 C585 0.929 . S
S589 N590 1.613 . S
S589 N591 1.610 . S
N590 S589 1.613 . S
N590 C593 1.350 . S
N591 S589 1.610 . S
N591 C592 1.351 . S
C592 C586 1.428 . S
C592 N591 1.351 . S
C592 C593 1.434 . S
C593 C584 1.429 . S
C593 N590 1.350 . S
C593 C592 1.434 . S
C594 C595 1.369 . S
C594 C596 1.419 . S
C594 H598 0.930 . S
C595 C594 1.369 . S
C595 C604 1.429 . S
C596 C594 1.419 . S
C596 C597 1.363 . S
C596 H599 0.929 . S
C597 C596 1.363 . S
C597 C603 1.428 . S
H598 C594 0.930 . S
H599 C596 0.929 . S
S600 N601 1.613 . S
S600 N602 1.610 . S
N601 S600 1.613 . S
N601 C604 1.350 . S
N602 S600 1.610 . S
N602 C603 1.351 . S
C603 C597 1.428 . S
C603 N602 1.351 . S
C603 C604 1.434 . S
C604 C595 1.429 . S
C604 N601 1.350 . S
C604 C603 1.434 . S
C605 C606 1.369 . S
C605 C607 1.419 . S
C605 H609 0.930 . S
C606 C605 1.369 . S
C606 C615 1.429 . S
C607 C605 1.419 . S
C607 C608 1.363 . S
C607 H610 0.929 . S
C608 C607 1.363 . S
C608 C614 1.428 . S
H609 C605 0.930 . S
H610 C607 0.929 . S
S611 N612 1.613 . S
S611 N613 1.610 . S
N612 S611 1.613 . S
N612 C615 1.350 . S
N613 S611 1.610 . S
N613 C614 1.351 . S
C614 C608 1.428 . S
C614 N613 1.351 . S
C614 C615 1.434 . S
C615 C606 1.429 . S
C615 N612 1.350 . S
C615 C614 1.434 . S
C616 C617 1.369 . S
C616 C618 1.419 . S
C616 H620 0.930 . S
C617 C616 1.369 . S
C617 C626 1.429 . S
C618 C616 1.419 . S
C618 C619 1.363 . S
C618 H621 0.929 . S
C619 C618 1.363 . S
C619 C625 1.428 . S
H620 C616 0.930 . S
H621 C618 0.929 . S
S622 N623 1.613 . S
S622 N624 1.610 . S
N623 S622 1.613 . S
N623 C626 1.350 . S
N624 S622 1.610 . S
N624 C625 1.351 . S
C625 C619 1.428 . S
C625 N624 1.351 . S
C625 C626 1.434 . S
C626 C617 1.429 . S
C626 N623 1.350 . S
C626 C625 1.434 . S
C627 C628 1.369 . S
C627 C629 1.419 . S
C627 H631 0.930 . S
C628 C627 1.369 . S
C628 C637 1.429 . S
C629 C627 1.419 . S
C629 C630 1.363 . S
C629 H632 0.929 . S
C630 C629 1.363 . S
C630 C636 1.428 . S
H631 C627 0.930 . S
H632 C629 0.929 . S
S633 N634 1.613 . S
S633 N635 1.610 . S
N634 S633 1.613 . S
N634 C637 1.350 . S
N635 S633 1.610 . S
N635 C636 1.351 . S
C636 C630 1.428 . S
C636 N635 1.351 . S
C636 C637 1.434 . S
C637 C628 1.429 . S
C637 N634 1.350 . S
C637 C636 1.434 . S
C638 C639 1.369 . S
C638 C640 1.419 . S
C638 H642 0.930 . S
C639 C638 1.369 . S
C639 C648 1.429 . S
C640 C638 1.419 . S
C640 C641 1.363 . S
C640 H643 0.929 . S
C641 C640 1.363 . S
C641 C647 1.428 . S
H642 C638 0.930 . S
H643 C640 0.929 . S
S644 N645 1.613 1_556 S
S644 N646 1.610 1_556 S
N645 S644 1.613 1_554 S
N645 C648 1.350 . S
N646 S644 1.610 1_554 S
N646 C647 1.351 . S
C647 C641 1.428 . S
C647 N646 1.351 . S
C647 C648 1.434 . S
C648 C639 1.429 . S
C648 N645 1.350 . S
C648 C647 1.434 . S
C649 C650 1.369 . S
C649 C651 1.419 . S
C649 H653 0.930 . S
C650 C649 1.369 . S
C650 C659 1.429 . S
C651 C649 1.419 . S
C651 C652 1.363 . S
C651 H654 0.929 . S
C652 C651 1.363 . S
C652 C658 1.428 . S
H653 C649 0.930 . S
H654 C651 0.929 . S
S655 N656 1.613 . S
S655 N657 1.610 . S
N656 S655 1.613 . S
N656 C659 1.350 . S
N657 S655 1.610 . S
N657 C658 1.351 . S
C658 C652 1.428 . S
C658 N657 1.351 . S
C658 C659 1.434 . S
C659 C650 1.429 . S
C659 N656 1.350 . S
C659 C658 1.434 . S
C660 C661 1.369 . S
C660 C662 1.419 . S
C660 H664 0.930 . S
C661 C660 1.369 . S
C661 C670 1.429 . S
C662 C660 1.419 . S
C662 C663 1.363 . S
C662 H665 0.929 . S
C663 C662 1.363 . S
C663 C669 1.428 . S
H664 C660 0.930 . S
H665 C662 0.929 . S
S666 N667 1.613 . S
S666 N668 1.610 . S
N667 S666 1.613 . S
N667 C670 1.350 . S
N668 S666 1.610 . S
N668 C669 1.351 . S
C669 C663 1.428 . S
C669 N668 1.351 . S
C669 C670 1.434 . S
C670 C661 1.429 . S
C670 N667 1.350 . S
C670 C669 1.434 . S
C671 C672 1.369 . S
C671 C673 1.419 . S
C671 H675 0.930 . S
C672 C671 1.369 . S
C672 C681 1.429 . S
C673 C671 1.419 . S
C673 C674 1.363 . S
C673 H676 0.929 . S
C674 C673 1.363 . S
C674 C680 1.428 . S
H675 C671 0.930 . S
H676 C673 0.929 . S
S677 N678 1.613 . S
S677 N679 1.610 . S
N678 S677 1.613 . S
N678 C681 1.350 . S
N679 S677 1.610 . S
N679 C680 1.351 . S
C680 C674 1.428 . S
C680 N679 1.351 . S
C680 C681 1.434 . S
C681 C672 1.429 . S
C681 N678 1.350 . S
C681 C680 1.434 . S
C682 C683 1.369 . S
C682 C684 1.419 . S
C682 H686 0.930 . S
C683 C682 1.369 . S
C683 C692 1.429 . S
C684 C682 1.419 . S
C684 C685 1.363 . S
C684 H687 0.929 . S
C685 C684 1.363 . S
C685 C691 1.428 . S
H686 C682 0.930 . S
H687 C684 0.929 . S
S688 N689 1.613 . S
S688 N690 1.610 . S
N689 S688 1.613 . S
N689 C692 1.350 . S
N690 S688 1.610 . S
N690 C691 1.351 . S
C691 C685 1.428 . S
C691 N690 1.351 . S
C691 C692 1.434 . S
C692 C683 1.429 . S
C692 N689 1.350 . S
C692 C691 1.434 . S
C693 C694 1.369 . S
C693 C695 1.419 . S
C693 H697 0.930 . S
C694 C693 1.369 . S
C694 C703 1.429 . S
C695 C693 1.419 . S
C695 C696 1.363 . S
C695 H698 0.929 . S
C696 C695 1.363 . S
C696 C702 1.428 . S
H697 C693 0.930 . S
H698 C695 0.929 . S
S699 N700 1.613 . S
S699 N701 1.610 . S
N700 S699 1.613 . S
N700 C703 1.350 . S
N701 S699 1.610 . S
N701 C702 1.351 . S
C702 C696 1.428 . S
C702 N701 1.351 . S
C702 C703 1.434 . S
C703 C694 1.429 . S
C703 N700 1.350 . S
C703 C702 1.434 . S
C704 C705 1.369 . S
C704 C706 1.419 . S
C704 H708 0.930 . S
C705 C704 1.369 . S
C705 C714 1.429 . S
C706 C704 1.419 . S
C706 C707 1.363 . S
C706 H709 0.929 . S
C707 C706 1.363 . S
C707 C713 1.428 . S
H708 C704 0.930 . S
H709 C706 0.929 . S
S710 N711 1.613 . S
S710 N712 1.610 . S
N711 S710 1.613 . S
N711 C714 1.350 . S
N712 S710 1.610 . S
N712 C713 1.351 . S
C713 C707 1.428 . S
C713 N712 1.351 . S
C713 C714 1.434 . S
C714 C705 1.429 . S
C714 N711 1.350 . S
C714 C713 1.434 . S
C715 C716 1.369 1_565 S
C715 C717 1.419 1_455 S
C715 H719 0.930 . S
C716 C715 1.369 1_545 S
C716 C725 1.429 . S
C717 C715 1.419 1_655 S
C717 C718 1.363 . S
C717 H720 0.929 . S
C718 C717 1.363 . S
C718 C724 1.428 1_565 S
H719 C715 0.930 . S
H720 C717 0.929 . S
S721 N722 1.613 1_655 S
S721 N723 1.610 . S
N722 S721 1.613 1_455 S
N722 C725 1.350 . S
N723 S721 1.610 . S
N723 C724 1.351 . S
C724 C718 1.428 1_545 S
C724 N723 1.351 . S
C724 C725 1.434 1_655 S
C725 C716 1.429 . S
C725 N722 1.350 . S
C725 C724 1.434 1_455 S
C726 C727 1.369 . S
C726 C728 1.419 . S
C726 H730 0.930 . S
C727 C726 1.369 . S
C727 C736 1.429 . S
C728 C726 1.419 . S
C728 C729 1.363 . S
C728 H731 0.929 . S
C729 C728 1.363 . S
C729 C735 1.428 . S
H730 C726 0.930 . S
H731 C728 0.929 . S
S732 N733 1.613 . S
S732 N734 1.610 . S
N733 S732 1.613 . S
N733 C736 1.350 . S
N734 S732 1.610 . S
N734 C735 1.351 . S
C735 C729 1.428 . S
C735 N734 1.351 . S
C735 C736 1.434 . S
C736 C727 1.429 . S
C736 N733 1.350 . S
C736 C735 1.434 . S
C737 C738 1.369 1_544 S
C737 C739 1.419 . S
C737 H741 0.930 . S
C738 C737 1.369 1_566 S
C738 C747 1.429 . S
C739 C737 1.419 . S
C739 C740 1.363 . S
C739 H742 0.929 . S
C740 C739 1.363 . S
C740 C746 1.428 1_544 S
H741 C737 0.930 . S
H742 C739 0.929 . S
S743 N744 1.613 . S
S743 N745 1.610 . S
N744 S743 1.613 . S
N744 C747 1.350 . S
N745 S743 1.610 . S
N745 C746 1.351 . S
C746 C740 1.428 1_566 S
C746 N745 1.351 . S
C746 C747 1.434 . S
C747 C738 1.429 . S
C747 N744 1.350 . S
C747 C746 1.434 . S
C748 C749 1.369 . S
C748 C750 1.419 . S
C748 H752 0.930 . S
C749 C748 1.369 . S
C749 C758 1.429 . S
C750 C748 1.419 . S
C750 C751 1.363 . S
C750 H753 0.929 . S
C751 C750 1.363 . S
C751 C757 1.428 . S
H752 C748 0.930 . S
H753 C750 0.929 . S
S754 N755 1.613 . S
S754 N756 1.610 . S
N755 S754 1.613 . S
N755 C758 1.350 . S
N756 S754 1.610 . S
N756 C757 1.351 . S
C757 C751 1.428 . S
C757 N756 1.351 . S
C757 C758 1.434 . S
C758 C749 1.429 . S
C758 N755 1.350 . S
C758 C757 1.434 . S
C759 C760 1.369 . S
C759 C761 1.419 . S
C759 H763 0.930 . S
C760 C759 1.369 . S
C760 C769 1.429 1_545 S
C761 C759 1.419 . S
C761 C762 1.363 1_545 S
C761 H764 0.929 . S
C762 C761 1.363 1_565 S
C762 C768 1.428 . S
H763 C759 0.930 . S
H764 C761 0.929 . S
S765 N766 1.613 . S
S765 N767 1.610 . S
N766 S765 1.613 . S
N766 C769 1.350 . S
N767 S765 1.610 . S
N767 C768 1.351 . S
C768 C762 1.428 . S
C768 N767 1.351 . S
C768 C769 1.434 . S
C769 C760 1.429 1_565 S
C769 N766 1.350 . S
C769 C768 1.434 . S
C770 C771 1.369 . S
C770 C772 1.419 . S
C770 H774 0.930 . S
C771 C770 1.369 . S
C771 C780 1.429 . S
C772 C770 1.419 . S
C772 C773 1.363 . S
C772 H775 0.929 . S
C773 C772 1.363 . S
C773 C779 1.428 . S
H774 C770 0.930 . S
H775 C772 0.929 . S
S776 N777 1.613 . S
S776 N778 1.610 . S
N777 S776 1.613 . S
N777 C780 1.350 . S
N778 S776 1.610 . S
N778 C779 1.351 . S
C779 C773 1.428 . S
C779 N778 1.351 . S
C779 C780 1.434 . S
C780 C771 1.429 . S
C780 N777 1.350 . S
C780 C779 1.434 . S
C781 C782 1.369 . S
C781 C783 1.419 1_455 S
C781 H785 0.930 . S
C782 C781 1.369 . S
C782 C791 1.429 1_564 S
C783 C781 1.419 1_655 S
C783 C784 1.363 1_564 S
C783 H786 0.929 . S
C784 C783 1.363 1_546 S
C784 C790 1.428 . S
H785 C781 0.930 . S
H786 C783 0.929 . S
S787 N788 1.613 . S
S787 N789 1.610 1_455 S
N788 S787 1.613 . S
N788 C791 1.350 . S
N789 S787 1.610 1_655 S
N789 C790 1.351 . S
C790 C784 1.428 . S
C790 N789 1.351 . S
C790 C791 1.434 1_655 S
C791 C782 1.429 1_546 S
C791 N788 1.350 . S
C791 C790 1.434 1_455 S
C792 C793 1.369 . S
C792 C794 1.419 . S
C792 H796 0.930 . S
C793 C792 1.369 . S
C793 C802 1.429 . S
C794 C792 1.419 . S
C794 C795 1.363 . S
C794 H797 0.929 . S
C795 C794 1.363 . S
C795 C801 1.428 . S
H796 C792 0.930 . S
H797 C794 0.929 . S
S798 N799 1.613 . S
S798 N800 1.610 . S
N799 S798 1.613 . S
N799 C802 1.350 . S
N800 S798 1.610 . S
N800 C801 1.351 . S
C801 C795 1.428 . S
C801 N800 1.351 . S
C801 C802 1.434 . S
C802 C793 1.429 . S
C802 N799 1.350 . S
C802 C801 1.434 . S
C803 C804 1.369 . S
C803 C805 1.419 . S
C803 H807 0.930 . S
C804 C803 1.369 . S
C804 C813 1.429 . S
C805 C803 1.419 . S
C805 C806 1.363 . S
C805 H808 0.929 . S
C806 C805 1.363 . S
C806 C812 1.428 . S
H807 C803 0.930 . S
H808 C805 0.929 . S
S809 N810 1.613 . S
S809 N811 1.610 . S
N810 S809 1.613 . S
N810 C813 1.350 . S
N811 S809 1.610 . S
N811 C812 1.351 . S
C812 C806 1.428 . S
C812 N811 1.351 . S
C812 C813 1.434 . S
C813 C804 1.429 . S
C813 N810 1.350 . S
C813 C812 1.434 . S
C814 C815 1.369 . S
C814 C816 1.419 . S
C814 H818 0.930 . S
C815 C814 1.369 . S
C815 C824 1.429 . S
C816 C814 1.419 . S
C816 C817 1.363 . S
C816 H819 0.929 . S
C817 C816 1.363 . S
C817 C823 1.428 . S
H818 C814 0.930 . S
H819 C816 0.929 . S
S820 N821 1.613 . S
S820 N822 1.610 . S
N821 S820 1.613 . S
N821 C824 1.350 . S
N822 S820 1.610 . S
N822 C823 1.351 . S
C823 C817 1.428 . S
C823 N822 1.351 . S
C823 C824 1.434 . S
C824 C815 1.429 . S
C824 N821 1.350 . S
C824 C823 1.434 . S
C825 C826 1.369 . S
C825 C827 1.419 . S
C825 H829 0.930 . S
C826 C825 1.369 . S
C826 C835 1.429 . S
C827 C825 1.419 . S
C827 C828 1.363 . S
C827 H830 0.929 . S
C828 C827 1.363 . S
C828 C834 1.428 . S
H829 C825 0.930 . S
H830 C827 0.929 . S
S831 N832 1.613 . S
S831 N833 1.610 . S
N832 S831 1.613 . S
N832 C835 1.350 . S
N833 S831 1.610 . S
N833 C834 1.351 . S
C834 C828 1.428 . S
C834 N833 1.351 . S
C834 C835 1.434 . S
C835 C826 1.429 . S
C835 N832 1.350 . S
C835 C834 1.434 . S
C836 C837 1.369 . S
C836 C838 1.419 . S
C836 H840 0.930 . S
C837 C836 1.369 . S
C837 C846 1.429 1_556 S
C838 C836 1.419 . S
C838 C839 1.363 1_556 S
C838 H841 0.929 . S
C839 C838 1.363 1_554 S
C839 C845 1.428 . S
H840 C836 0.930 . S
H841 C838 0.929 . S
S842 N843 1.613 . S
S842 N844 1.610 . S
N843 S842 1.613 . S
N843 C846 1.350 . S
N844 S842 1.610 . S
N844 C845 1.351 . S
C845 C839 1.428 . S
C845 N844 1.351 . S
C845 C846 1.434 . S
C846 C837 1.429 1_554 S
C846 N843 1.350 . S
C846 C845 1.434 . S
C847 C848 1.369 . S
C847 C849 1.419 1_655 S
C847 H851 0.930 . S
C848 C847 1.369 . S
C848 C857 1.429 . S
C849 C847 1.419 1_455 S
C849 C850 1.363 . S
C849 H852 0.929 . S
C850 C849 1.363 . S
C850 C856 1.428 . S
H851 C847 0.930 . S
H852 C849 0.929 . S
S853 N854 1.613 . S
S853 N855 1.610 1_655 S
N854 S853 1.613 . S
N854 C857 1.350 . S
N855 S853 1.610 1_455 S
N855 C856 1.351 . S
C856 C850 1.428 . S
C856 N855 1.351 . S
C856 C857 1.434 1_455 S
C857 C848 1.429 . S
C857 N854 1.350 . S
C857 C856 1.434 1_655 S
C858 C859 1.369 . S
C858 C860 1.419 1_455 S
C858 H862 0.930 . S
C859 C858 1.369 . S
C859 C868 1.429 1_556 S
C860 C858 1.419 1_655 S
C860 C861 1.363 1_556 S
C860 H863 0.929 . S
C861 C860 1.363 1_554 S
C861 C867 1.428 . S
H862 C858 0.930 . S
H863 C860 0.929 . S
S864 N865 1.613 . S
S864 N866 1.610 1_455 S
N865 S864 1.613 . S
N865 C868 1.350 . S
N866 S864 1.610 1_655 S
N866 C867 1.351 . S
C867 C861 1.428 . S
C867 N866 1.351 . S
C867 C868 1.434 1_655 S
C868 C859 1.429 1_554 S
C868 N865 1.350 . S
C868 C867 1.434 1_455 S
C869 C870 1.369 . S
C869 C871 1.419 . S
C869 H873 0.930 . S
C870 C869 1.369 . S
C870 C879 1.429 . S
C871 C869 1.419 . S
C871 C872 1.363 . S
C871 H874 0.929 . S
C872 C871 1.363 . S
C872 C878 1.428 . S
H873 C869 0.930 . S
H874 C871 0.929 . S
S875 N876 1.613 . S
S875 N877 1.610 . S
N876 S875 1.613 . S
N876 C879 1.350 . S
N877 S875 1.610 . S
N877 C878 1.351 . S
C878 C872 1.428 . S
C878 N877 1.351 . S
C878 C879 1.434 . S
C879 C870 1.429 . S
C879 N876 1.350 . S
C879 C878 1.434 . S
C353 C7 1.465 . S
C355 C73 1.455 . S
C364 C18 1.457 1_545 S
C366 C84 1.461 1_565 S
C375 C29 1.458 . S
C377 C51 1.460 . S
C386 C40 1.455 1_565 S
C388 C62 1.464 1_545 S
C397 C161 1.579 . S
C399 C95 1.581 . S
C408 C172 1.578 . S
C410 C106 1.583 . S
C419 C139 1.579 . S
C421 C117 1.581 . S
C430 C150 1.579 . S
C432 C128 1.581 . S
C441 C249 1.457 . S
C443 C183 1.464 . S
C452 C194 1.453 . S
C454 C260 1.465 . S
C463 C227 1.463 . S
C465 C205 1.457 . S
C474 C216 1.453 . S
C476 C238 1.465 . S
C485 C337 1.579 . S
C487 C271 1.580 . S
C496 C282 1.584 . S
C498 C348 1.580 . S
C507 C293 1.580 . S
C509 C315 1.580 . S
C518 C304 1.583 . S
C520 C326 1.583 . S
C529 C8 1.598 . S
C531 C85 1.601 . S
C540 C52 1.601 . S
C542 C19 1.605 . S
C551 C63 1.601 . S
C553 C30 1.599 . S
C562 C74 1.599 . S
C564 C41 1.601 . S
C573 C173 1.641 . S
C575 C96 1.642 . S
C584 C107 1.643 . S
C586 C140 1.642 . S
C595 C118 1.641 . S
C597 C151 1.641 . S
C606 C162 1.641 . S
C608 C129 1.643 . S
C617 C261 1.601 . S
C619 C184 1.605 . S
C628 C228 1.605 . S
C630 C195 1.603 . S
C639 C206 1.605 . S
C641 C239 1.600 . S
C650 C250 1.602 . S
C652 C217 1.605 . S
C661 C349 1.643 . S
C663 C272 1.641 . S
C672 C316 1.643 . S
C674 C283 1.641 . S
C683 C327 1.641 . S
C685 C294 1.641 . S
C694 C305 1.640 . S
C696 C338 1.642 . S
C705 C5 1.280 . S
C707 C269 1.661 . S
C716 C16 1.283 1_545 S
C718 C104 1.664 . S
C727 C291 1.666 . S
C729 C27 1.275 . S
C738 C38 1.280 1_566 S
C740 C126 1.665 . S
C749 C313 1.657 . S
C751 C49 1.267 . S
C760 C60 1.263 1_545 S
C762 C148 1.659 . S
C771 C335 1.665 . S
C773 C71 1.272 . S
C782 C82 1.268 1_564 S
C784 C170 1.658 . S
C793 C93 1.657 . S
C795 C181 1.269 . S
C804 C203 1.282 . S
C806 C115 1.665 . S
C815 C225 1.264 . S
C817 C137 1.659 . S
C826 C247 1.263 . S
C828 C159 1.660 . S
C837 C192 1.263 1_556 S
C839 C280 1.659 . S
C848 C214 1.263 . S
C850 C302 1.660 . S
C859 C324 1.663 . S
C861 C236 1.281 1_554 S
C870 C258 1.281 . S
C872 C346 1.665 . S
