# Generated by pormake.
# Topology gie, (4)-cn, num edge types: 1
# Building blocks:
#     Node 0, Type 0, BuildingBlock: NAWXER_clean_sbu_0, # of connection points: 4
#     Node 1, Type 0, BuildingBlock: NAWXER_clean_sbu_0, # of connection points: 4
#     Node 2, Type 0, BuildingBlock: NAWXER_clean_sbu_0, # of connection points: 4
#     Node 3, Type 0, BuildingBlock: NAWXER_clean_sbu_0, # of connection points: 4
#     Node 4, Type 0, BuildingBlock: NAWXER_clean_sbu_0, # of connection points: 4
#     Node 5, Type 0, BuildingBlock: NAWXER_clean_sbu_0, # of connection points: 4
#     Node 6, Type 0, BuildingBlock: NAWXER_clean_sbu_0, # of connection points: 4
#     Node 7, Type 0, BuildingBlock: NAWXER_clean_sbu_0, # of connection points: 4
#     Node 8, Type 0, BuildingBlock: NAWXER_clean_sbu_0, # of connection points: 4
#     Node 9, Type 0, BuildingBlock: NAWXER_clean_sbu_0, # of connection points: 4
#     Node 10, Type 0, BuildingBlock: NAWXER_clean_sbu_0, # of connection points: 4
#     Node 11, Type 0, BuildingBlock: NAWXER_clean_sbu_0, # of connection points: 4
#     Node 12, Type 0, BuildingBlock: NAWXER_clean_sbu_0, # of connection points: 4
#     Node 13, Type 0, BuildingBlock: NAWXER_clean_sbu_0, # of connection points: 4
#     Node 14, Type 0, BuildingBlock: NAWXER_clean_sbu_0, # of connection points: 4
#     Node 15, Type 0, BuildingBlock: NAWXER_clean_sbu_0, # of connection points: 4
#     Node 16, Type 0, BuildingBlock: NAWXER_clean_sbu_0, # of connection points: 4
#     Node 17, Type 0, BuildingBlock: NAWXER_clean_sbu_0, # of connection points: 4
#     Node 18, Type 0, BuildingBlock: NAWXER_clean_sbu_0, # of connection points: 4
#     Node 19, Type 0, BuildingBlock: NAWXER_clean_sbu_0, # of connection points: 4
#     Node 20, Type 0, BuildingBlock: NAWXER_clean_sbu_0, # of connection points: 4
#     Node 21, Type 0, BuildingBlock: NAWXER_clean_sbu_0, # of connection points: 4
#     Node 22, Type 0, BuildingBlock: NAWXER_clean_sbu_0, # of connection points: 4
#     Node 23, Type 0, BuildingBlock: NAWXER_clean_sbu_0, # of connection points: 4
#     Node 24, Type 0, BuildingBlock: NAWXER_clean_sbu_0, # of connection points: 4
#     Node 25, Type 0, BuildingBlock: NAWXER_clean_sbu_0, # of connection points: 4
#     Node 26, Type 0, BuildingBlock: NAWXER_clean_sbu_0, # of connection points: 4
#     Node 27, Type 0, BuildingBlock: NAWXER_clean_sbu_0, # of connection points: 4
#     Node 28, Type 0, BuildingBlock: NAWXER_clean_sbu_0, # of connection points: 4
#     Node 29, Type 0, BuildingBlock: NAWXER_clean_sbu_0, # of connection points: 4
#     Node 30, Type 0, BuildingBlock: NAWXER_clean_sbu_0, # of connection points: 4
#     Node 31, Type 0, BuildingBlock: NAWXER_clean_sbu_0, # of connection points: 4
#     Node 32, Type 0, BuildingBlock: NAWXER_clean_sbu_0, # of connection points: 4
#     Node 33, Type 0, BuildingBlock: NAWXER_clean_sbu_0, # of connection points: 4
#     Node 34, Type 0, BuildingBlock: NAWXER_clean_sbu_0, # of connection points: 4
#     Node 35, Type 0, BuildingBlock: NAWXER_clean_sbu_0, # of connection points: 4
#     Node 36, Type 0, BuildingBlock: NAWXER_clean_sbu_0, # of connection points: 4
#     Node 37, Type 0, BuildingBlock: NAWXER_clean_sbu_0, # of connection points: 4
#     Node 38, Type 0, BuildingBlock: NAWXER_clean_sbu_0, # of connection points: 4
#     Node 39, Type 0, BuildingBlock: NAWXER_clean_sbu_0, # of connection points: 4
#     Node 40, Type 0, BuildingBlock: NAWXER_clean_sbu_0, # of connection points: 4
#     Node 41, Type 0, BuildingBlock: NAWXER_clean_sbu_0, # of connection points: 4
#     Node 42, Type 0, BuildingBlock: NAWXER_clean_sbu_0, # of connection points: 4
#     Node 43, Type 0, BuildingBlock: NAWXER_clean_sbu_0, # of connection points: 4
#     Node 44, Type 0, BuildingBlock: NAWXER_clean_sbu_0, # of connection points: 4
#     Node 45, Type 0, BuildingBlock: NAWXER_clean_sbu_0, # of connection points: 4
#     Node 46, Type 0, BuildingBlock: NAWXER_clean_sbu_0, # of connection points: 4
#     Node 47, Type 0, BuildingBlock: NAWXER_clean_sbu_0, # of connection points: 4
#     Node 48, Type 0, BuildingBlock: NAWXER_clean_sbu_0, # of connection points: 4
#     Node 49, Type 0, BuildingBlock: NAWXER_clean_sbu_0, # of connection points: 4
#     Node 50, Type 0, BuildingBlock: NAWXER_clean_sbu_0, # of connection points: 4
#     Node 51, Type 0, BuildingBlock: NAWXER_clean_sbu_0, # of connection points: 4
#     Node 52, Type 0, BuildingBlock: NAWXER_clean_sbu_0, # of connection points: 4
#     Node 53, Type 0, BuildingBlock: NAWXER_clean_sbu_0, # of connection points: 4
#     Node 54, Type 0, BuildingBlock: NAWXER_clean_sbu_0, # of connection points: 4
#     Node 55, Type 0, BuildingBlock: NAWXER_clean_sbu_0, # of connection points: 4
#     Node 56, Type 0, BuildingBlock: NAWXER_clean_sbu_0, # of connection points: 4
#     Node 57, Type 0, BuildingBlock: NAWXER_clean_sbu_0, # of connection points: 4
#     Node 58, Type 0, BuildingBlock: NAWXER_clean_sbu_0, # of connection points: 4
#     Node 59, Type 0, BuildingBlock: NAWXER_clean_sbu_0, # of connection points: 4
#     Node 60, Type 0, BuildingBlock: NAWXER_clean_sbu_0, # of connection points: 4
#     Node 61, Type 0, BuildingBlock: NAWXER_clean_sbu_0, # of connection points: 4
#     Node 62, Type 0, BuildingBlock: NAWXER_clean_sbu_0, # of connection points: 4
#     Node 63, Type 0, BuildingBlock: NAWXER_clean_sbu_0, # of connection points: 4
#     Node 64, Type 0, BuildingBlock: NAWXER_clean_sbu_0, # of connection points: 4
#     Node 65, Type 0, BuildingBlock: NAWXER_clean_sbu_0, # of connection points: 4
#     Node 66, Type 0, BuildingBlock: NAWXER_clean_sbu_0, # of connection points: 4
#     Node 67, Type 0, BuildingBlock: NAWXER_clean_sbu_0, # of connection points: 4
#     Node 68, Type 0, BuildingBlock: NAWXER_clean_sbu_0, # of connection points: 4
#     Node 69, Type 0, BuildingBlock: NAWXER_clean_sbu_0, # of connection points: 4
#     Node 70, Type 0, BuildingBlock: NAWXER_clean_sbu_0, # of connection points: 4
#     Node 71, Type 0, BuildingBlock: NAWXER_clean_sbu_0, # of connection points: 4
#     Node 72, Type 0, BuildingBlock: NAWXER_clean_sbu_0, # of connection points: 4
#     Node 73, Type 0, BuildingBlock: NAWXER_clean_sbu_0, # of connection points: 4
#     Node 74, Type 0, BuildingBlock: NAWXER_clean_sbu_0, # of connection points: 4
#     Node 75, Type 0, BuildingBlock: NAWXER_clean_sbu_0, # of connection points: 4
#     Node 76, Type 0, BuildingBlock: NAWXER_clean_sbu_0, # of connection points: 4
#     Node 77, Type 0, BuildingBlock: NAWXER_clean_sbu_0, # of connection points: 4
#     Node 78, Type 0, BuildingBlock: NAWXER_clean_sbu_0, # of connection points: 4
#     Node 79, Type 0, BuildingBlock: NAWXER_clean_sbu_0, # of connection points: 4
#     Node 80, Type 0, BuildingBlock: NAWXER_clean_sbu_0, # of connection points: 4
#     Node 81, Type 0, BuildingBlock: NAWXER_clean_sbu_0, # of connection points: 4
#     Node 82, Type 0, BuildingBlock: NAWXER_clean_sbu_0, # of connection points: 4
#     Node 83, Type 0, BuildingBlock: NAWXER_clean_sbu_0, # of connection points: 4
#     Node 84, Type 0, BuildingBlock: NAWXER_clean_sbu_0, # of connection points: 4
#     Node 85, Type 0, BuildingBlock: NAWXER_clean_sbu_0, # of connection points: 4
#     Node 86, Type 0, BuildingBlock: NAWXER_clean_sbu_0, # of connection points: 4
#     Node 87, Type 0, BuildingBlock: NAWXER_clean_sbu_0, # of connection points: 4
#     Node 88, Type 0, BuildingBlock: NAWXER_clean_sbu_0, # of connection points: 4
#     Node 89, Type 0, BuildingBlock: NAWXER_clean_sbu_0, # of connection points: 4
#     Node 90, Type 0, BuildingBlock: NAWXER_clean_sbu_0, # of connection points: 4
#     Node 91, Type 0, BuildingBlock: NAWXER_clean_sbu_0, # of connection points: 4
#     Node 92, Type 0, BuildingBlock: NAWXER_clean_sbu_0, # of connection points: 4
#     Node 93, Type 0, BuildingBlock: NAWXER_clean_sbu_0, # of connection points: 4
#     Node 94, Type 0, BuildingBlock: NAWXER_clean_sbu_0, # of connection points: 4
#     Node 95, Type 0, BuildingBlock: NAWXER_clean_sbu_0, # of connection points: 4
#     Edge 96, Type (0, 0), BuildingBlock: KIFKEQ_clean_linker_1, # of connection points: 2
#     Edge 97, Type (0, 0), BuildingBlock: KIFKEQ_clean_linker_1, # of connection points: 2
#     Edge 98, Type (0, 0), BuildingBlock: KIFKEQ_clean_linker_1, # of connection points: 2
#     Edge 99, Type (0, 0), BuildingBlock: KIFKEQ_clean_linker_1, # of connection points: 2
#     Edge 100, Type (0, 0), BuildingBlock: KIFKEQ_clean_linker_1, # of connection points: 2
#     Edge 101, Type (0, 0), BuildingBlock: KIFKEQ_clean_linker_1, # of connection points: 2
#     Edge 102, Type (0, 0), BuildingBlock: KIFKEQ_clean_linker_1, # of connection points: 2
#     Edge 103, Type (0, 0), BuildingBlock: KIFKEQ_clean_linker_1, # of connection points: 2
#     Edge 104, Type (0, 0), BuildingBlock: KIFKEQ_clean_linker_1, # of connection points: 2
#     Edge 105, Type (0, 0), BuildingBlock: KIFKEQ_clean_linker_1, # of connection points: 2
#     Edge 106, Type (0, 0), BuildingBlock: KIFKEQ_clean_linker_1, # of connection points: 2
#     Edge 107, Type (0, 0), BuildingBlock: KIFKEQ_clean_linker_1, # of connection points: 2
#     Edge 108, Type (0, 0), BuildingBlock: KIFKEQ_clean_linker_1, # of connection points: 2
#     Edge 109, Type (0, 0), BuildingBlock: KIFKEQ_clean_linker_1, # of connection points: 2
#     Edge 110, Type (0, 0), BuildingBlock: KIFKEQ_clean_linker_1, # of connection points: 2
#     Edge 111, Type (0, 0), BuildingBlock: KIFKEQ_clean_linker_1, # of connection points: 2
#     Edge 112, Type (0, 0), BuildingBlock: KIFKEQ_clean_linker_1, # of connection points: 2
#     Edge 113, Type (0, 0), BuildingBlock: KIFKEQ_clean_linker_1, # of connection points: 2
#     Edge 114, Type (0, 0), BuildingBlock: KIFKEQ_clean_linker_1, # of connection points: 2
#     Edge 115, Type (0, 0), BuildingBlock: KIFKEQ_clean_linker_1, # of connection points: 2
#     Edge 116, Type (0, 0), BuildingBlock: KIFKEQ_clean_linker_1, # of connection points: 2
#     Edge 117, Type (0, 0), BuildingBlock: KIFKEQ_clean_linker_1, # of connection points: 2
#     Edge 118, Type (0, 0), BuildingBlock: KIFKEQ_clean_linker_1, # of connection points: 2
#     Edge 119, Type (0, 0), BuildingBlock: KIFKEQ_clean_linker_1, # of connection points: 2
#     Edge 120, Type (0, 0), BuildingBlock: KIFKEQ_clean_linker_1, # of connection points: 2
#     Edge 121, Type (0, 0), BuildingBlock: KIFKEQ_clean_linker_1, # of connection points: 2
#     Edge 122, Type (0, 0), BuildingBlock: KIFKEQ_clean_linker_1, # of connection points: 2
#     Edge 123, Type (0, 0), BuildingBlock: KIFKEQ_clean_linker_1, # of connection points: 2
#     Edge 124, Type (0, 0), BuildingBlock: KIFKEQ_clean_linker_1, # of connection points: 2
#     Edge 125, Type (0, 0), BuildingBlock: KIFKEQ_clean_linker_1, # of connection points: 2
#     Edge 126, Type (0, 0), BuildingBlock: KIFKEQ_clean_linker_1, # of connection points: 2
#     Edge 127, Type (0, 0), BuildingBlock: KIFKEQ_clean_linker_1, # of connection points: 2
#     Edge 128, Type (0, 0), BuildingBlock: KIFKEQ_clean_linker_1, # of connection points: 2
#     Edge 129, Type (0, 0), BuildingBlock: KIFKEQ_clean_linker_1, # of connection points: 2
#     Edge 130, Type (0, 0), BuildingBlock: KIFKEQ_clean_linker_1, # of connection points: 2
#     Edge 131, Type (0, 0), BuildingBlock: KIFKEQ_clean_linker_1, # of connection points: 2
#     Edge 132, Type (0, 0), BuildingBlock: KIFKEQ_clean_linker_1, # of connection points: 2
#     Edge 133, Type (0, 0), BuildingBlock: KIFKEQ_clean_linker_1, # of connection points: 2
#     Edge 134, Type (0, 0), BuildingBlock: KIFKEQ_clean_linker_1, # of connection points: 2
#     Edge 135, Type (0, 0), BuildingBlock: KIFKEQ_clean_linker_1, # of connection points: 2
#     Edge 136, Type (0, 0), BuildingBlock: KIFKEQ_clean_linker_1, # of connection points: 2
#     Edge 137, Type (0, 0), BuildingBlock: KIFKEQ_clean_linker_1, # of connection points: 2
#     Edge 138, Type (0, 0), BuildingBlock: KIFKEQ_clean_linker_1, # of connection points: 2
#     Edge 139, Type (0, 0), BuildingBlock: KIFKEQ_clean_linker_1, # of connection points: 2
#     Edge 140, Type (0, 0), BuildingBlock: KIFKEQ_clean_linker_1, # of connection points: 2
#     Edge 141, Type (0, 0), BuildingBlock: KIFKEQ_clean_linker_1, # of connection points: 2
#     Edge 142, Type (0, 0), BuildingBlock: KIFKEQ_clean_linker_1, # of connection points: 2
#     Edge 143, Type (0, 0), BuildingBlock: KIFKEQ_clean_linker_1, # of connection points: 2
#     Edge 144, Type (0, 0), BuildingBlock: KIFKEQ_clean_linker_1, # of connection points: 2
#     Edge 145, Type (0, 0), BuildingBlock: KIFKEQ_clean_linker_1, # of connection points: 2
#     Edge 146, Type (0, 0), BuildingBlock: KIFKEQ_clean_linker_1, # of connection points: 2
#     Edge 147, Type (0, 0), BuildingBlock: KIFKEQ_clean_linker_1, # of connection points: 2
#     Edge 148, Type (0, 0), BuildingBlock: KIFKEQ_clean_linker_1, # of connection points: 2
#     Edge 149, Type (0, 0), BuildingBlock: KIFKEQ_clean_linker_1, # of connection points: 2
#     Edge 150, Type (0, 0), BuildingBlock: KIFKEQ_clean_linker_1, # of connection points: 2
#     Edge 151, Type (0, 0), BuildingBlock: KIFKEQ_clean_linker_1, # of connection points: 2
#     Edge 152, Type (0, 0), BuildingBlock: KIFKEQ_clean_linker_1, # of connection points: 2
#     Edge 153, Type (0, 0), BuildingBlock: KIFKEQ_clean_linker_1, # of connection points: 2
#     Edge 154, Type (0, 0), BuildingBlock: KIFKEQ_clean_linker_1, # of connection points: 2
#     Edge 155, Type (0, 0), BuildingBlock: KIFKEQ_clean_linker_1, # of connection points: 2
#     Edge 156, Type (0, 0), BuildingBlock: KIFKEQ_clean_linker_1, # of connection points: 2
#     Edge 157, Type (0, 0), BuildingBlock: KIFKEQ_clean_linker_1, # of connection points: 2
#     Edge 158, Type (0, 0), BuildingBlock: KIFKEQ_clean_linker_1, # of connection points: 2
#     Edge 159, Type (0, 0), BuildingBlock: KIFKEQ_clean_linker_1, # of connection points: 2
#     Edge 160, Type (0, 0), BuildingBlock: KIFKEQ_clean_linker_1, # of connection points: 2
#     Edge 161, Type (0, 0), BuildingBlock: KIFKEQ_clean_linker_1, # of connection points: 2
#     Edge 162, Type (0, 0), BuildingBlock: KIFKEQ_clean_linker_1, # of connection points: 2
#     Edge 163, Type (0, 0), BuildingBlock: KIFKEQ_clean_linker_1, # of connection points: 2
#     Edge 164, Type (0, 0), BuildingBlock: KIFKEQ_clean_linker_1, # of connection points: 2
#     Edge 165, Type (0, 0), BuildingBlock: KIFKEQ_clean_linker_1, # of connection points: 2
#     Edge 166, Type (0, 0), BuildingBlock: KIFKEQ_clean_linker_1, # of connection points: 2
#     Edge 167, Type (0, 0), BuildingBlock: KIFKEQ_clean_linker_1, # of connection points: 2
#     Edge 168, Type (0, 0), BuildingBlock: KIFKEQ_clean_linker_1, # of connection points: 2
#     Edge 169, Type (0, 0), BuildingBlock: KIFKEQ_clean_linker_1, # of connection points: 2
#     Edge 170, Type (0, 0), BuildingBlock: KIFKEQ_clean_linker_1, # of connection points: 2
#     Edge 171, Type (0, 0), BuildingBlock: KIFKEQ_clean_linker_1, # of connection points: 2
#     Edge 172, Type (0, 0), BuildingBlock: KIFKEQ_clean_linker_1, # of connection points: 2
#     Edge 173, Type (0, 0), BuildingBlock: KIFKEQ_clean_linker_1, # of connection points: 2
#     Edge 174, Type (0, 0), BuildingBlock: KIFKEQ_clean_linker_1, # of connection points: 2
#     Edge 175, Type (0, 0), BuildingBlock: KIFKEQ_clean_linker_1, # of connection points: 2
#     Edge 176, Type (0, 0), BuildingBlock: KIFKEQ_clean_linker_1, # of connection points: 2
#     Edge 177, Type (0, 0), BuildingBlock: KIFKEQ_clean_linker_1, # of connection points: 2
#     Edge 178, Type (0, 0), BuildingBlock: KIFKEQ_clean_linker_1, # of connection points: 2
#     Edge 179, Type (0, 0), BuildingBlock: KIFKEQ_clean_linker_1, # of connection points: 2
#     Edge 180, Type (0, 0), BuildingBlock: KIFKEQ_clean_linker_1, # of connection points: 2
#     Edge 181, Type (0, 0), BuildingBlock: KIFKEQ_clean_linker_1, # of connection points: 2
#     Edge 182, Type (0, 0), BuildingBlock: KIFKEQ_clean_linker_1, # of connection points: 2
#     Edge 183, Type (0, 0), BuildingBlock: KIFKEQ_clean_linker_1, # of connection points: 2
#     Edge 184, Type (0, 0), BuildingBlock: KIFKEQ_clean_linker_1, # of connection points: 2
#     Edge 185, Type (0, 0), BuildingBlock: KIFKEQ_clean_linker_1, # of connection points: 2
#     Edge 186, Type (0, 0), BuildingBlock: KIFKEQ_clean_linker_1, # of connection points: 2
#     Edge 187, Type (0, 0), BuildingBlock: KIFKEQ_clean_linker_1, # of connection points: 2
#     Edge 188, Type (0, 0), BuildingBlock: KIFKEQ_clean_linker_1, # of connection points: 2
#     Edge 189, Type (0, 0), BuildingBlock: KIFKEQ_clean_linker_1, # of connection points: 2
#     Edge 190, Type (0, 0), BuildingBlock: KIFKEQ_clean_linker_1, # of connection points: 2
#     Edge 191, Type (0, 0), BuildingBlock: KIFKEQ_clean_linker_1, # of connection points: 2
#     Edge 192, Type (0, 0), BuildingBlock: KIFKEQ_clean_linker_1, # of connection points: 2
#     Edge 193, Type (0, 0), BuildingBlock: KIFKEQ_clean_linker_1, # of connection points: 2
#     Edge 194, Type (0, 0), BuildingBlock: KIFKEQ_clean_linker_1, # of connection points: 2
#     Edge 195, Type (0, 0), BuildingBlock: KIFKEQ_clean_linker_1, # of connection points: 2
#     Edge 196, Type (0, 0), BuildingBlock: KIFKEQ_clean_linker_1, # of connection points: 2
#     Edge 197, Type (0, 0), BuildingBlock: KIFKEQ_clean_linker_1, # of connection points: 2
#     Edge 198, Type (0, 0), BuildingBlock: KIFKEQ_clean_linker_1, # of connection points: 2
#     Edge 199, Type (0, 0), BuildingBlock: KIFKEQ_clean_linker_1, # of connection points: 2
#     Edge 200, Type (0, 0), BuildingBlock: KIFKEQ_clean_linker_1, # of connection points: 2
#     Edge 201, Type (0, 0), BuildingBlock: KIFKEQ_clean_linker_1, # of connection points: 2
#     Edge 202, Type (0, 0), BuildingBlock: KIFKEQ_clean_linker_1, # of connection points: 2
#     Edge 203, Type (0, 0), BuildingBlock: KIFKEQ_clean_linker_1, # of connection points: 2
#     Edge 204, Type (0, 0), BuildingBlock: KIFKEQ_clean_linker_1, # of connection points: 2
#     Edge 205, Type (0, 0), BuildingBlock: KIFKEQ_clean_linker_1, # of connection points: 2
#     Edge 206, Type (0, 0), BuildingBlock: KIFKEQ_clean_linker_1, # of connection points: 2
#     Edge 207, Type (0, 0), BuildingBlock: KIFKEQ_clean_linker_1, # of connection points: 2
#     Edge 208, Type (0, 0), BuildingBlock: KIFKEQ_clean_linker_1, # of connection points: 2
#     Edge 209, Type (0, 0), BuildingBlock: KIFKEQ_clean_linker_1, # of connection points: 2
#     Edge 210, Type (0, 0), BuildingBlock: KIFKEQ_clean_linker_1, # of connection points: 2
#     Edge 211, Type (0, 0), BuildingBlock: KIFKEQ_clean_linker_1, # of connection points: 2
#     Edge 212, Type (0, 0), BuildingBlock: KIFKEQ_clean_linker_1, # of connection points: 2
#     Edge 213, Type (0, 0), BuildingBlock: KIFKEQ_clean_linker_1, # of connection points: 2
#     Edge 214, Type (0, 0), BuildingBlock: KIFKEQ_clean_linker_1, # of connection points: 2
#     Edge 215, Type (0, 0), BuildingBlock: KIFKEQ_clean_linker_1, # of connection points: 2
#     Edge 216, Type (0, 0), BuildingBlock: KIFKEQ_clean_linker_1, # of connection points: 2
#     Edge 217, Type (0, 0), BuildingBlock: KIFKEQ_clean_linker_1, # of connection points: 2
#     Edge 218, Type (0, 0), BuildingBlock: KIFKEQ_clean_linker_1, # of connection points: 2
#     Edge 219, Type (0, 0), BuildingBlock: KIFKEQ_clean_linker_1, # of connection points: 2
#     Edge 220, Type (0, 0), BuildingBlock: KIFKEQ_clean_linker_1, # of connection points: 2
#     Edge 221, Type (0, 0), BuildingBlock: KIFKEQ_clean_linker_1, # of connection points: 2
#     Edge 222, Type (0, 0), BuildingBlock: KIFKEQ_clean_linker_1, # of connection points: 2
#     Edge 223, Type (0, 0), BuildingBlock: KIFKEQ_clean_linker_1, # of connection points: 2
#     Edge 224, Type (0, 0), BuildingBlock: KIFKEQ_clean_linker_1, # of connection points: 2
#     Edge 225, Type (0, 0), BuildingBlock: KIFKEQ_clean_linker_1, # of connection points: 2
#     Edge 226, Type (0, 0), BuildingBlock: KIFKEQ_clean_linker_1, # of connection points: 2
#     Edge 227, Type (0, 0), BuildingBlock: KIFKEQ_clean_linker_1, # of connection points: 2
#     Edge 228, Type (0, 0), BuildingBlock: KIFKEQ_clean_linker_1, # of connection points: 2
#     Edge 229, Type (0, 0), BuildingBlock: KIFKEQ_clean_linker_1, # of connection points: 2
#     Edge 230, Type (0, 0), BuildingBlock: KIFKEQ_clean_linker_1, # of connection points: 2
#     Edge 231, Type (0, 0), BuildingBlock: KIFKEQ_clean_linker_1, # of connection points: 2
#     Edge 232, Type (0, 0), BuildingBlock: KIFKEQ_clean_linker_1, # of connection points: 2
#     Edge 233, Type (0, 0), BuildingBlock: KIFKEQ_clean_linker_1, # of connection points: 2
#     Edge 234, Type (0, 0), BuildingBlock: KIFKEQ_clean_linker_1, # of connection points: 2
#     Edge 235, Type (0, 0), BuildingBlock: KIFKEQ_clean_linker_1, # of connection points: 2
#     Edge 236, Type (0, 0), BuildingBlock: KIFKEQ_clean_linker_1, # of connection points: 2
#     Edge 237, Type (0, 0), BuildingBlock: KIFKEQ_clean_linker_1, # of connection points: 2
#     Edge 238, Type (0, 0), BuildingBlock: KIFKEQ_clean_linker_1, # of connection points: 2
#     Edge 239, Type (0, 0), BuildingBlock: KIFKEQ_clean_linker_1, # of connection points: 2
#     Edge 240, Type (0, 0), BuildingBlock: KIFKEQ_clean_linker_1, # of connection points: 2
#     Edge 241, Type (0, 0), BuildingBlock: KIFKEQ_clean_linker_1, # of connection points: 2
#     Edge 242, Type (0, 0), BuildingBlock: KIFKEQ_clean_linker_1, # of connection points: 2
#     Edge 243, Type (0, 0), BuildingBlock: KIFKEQ_clean_linker_1, # of connection points: 2
#     Edge 244, Type (0, 0), BuildingBlock: KIFKEQ_clean_linker_1, # of connection points: 2
#     Edge 245, Type (0, 0), BuildingBlock: KIFKEQ_clean_linker_1, # of connection points: 2
#     Edge 246, Type (0, 0), BuildingBlock: KIFKEQ_clean_linker_1, # of connection points: 2
#     Edge 247, Type (0, 0), BuildingBlock: KIFKEQ_clean_linker_1, # of connection points: 2
#     Edge 248, Type (0, 0), BuildingBlock: KIFKEQ_clean_linker_1, # of connection points: 2
#     Edge 249, Type (0, 0), BuildingBlock: KIFKEQ_clean_linker_1, # of connection points: 2
#     Edge 250, Type (0, 0), BuildingBlock: KIFKEQ_clean_linker_1, # of connection points: 2
#     Edge 251, Type (0, 0), BuildingBlock: KIFKEQ_clean_linker_1, # of connection points: 2
#     Edge 252, Type (0, 0), BuildingBlock: KIFKEQ_clean_linker_1, # of connection points: 2
#     Edge 253, Type (0, 0), BuildingBlock: KIFKEQ_clean_linker_1, # of connection points: 2
#     Edge 254, Type (0, 0), BuildingBlock: KIFKEQ_clean_linker_1, # of connection points: 2
#     Edge 255, Type (0, 0), BuildingBlock: KIFKEQ_clean_linker_1, # of connection points: 2
#     Edge 256, Type (0, 0), BuildingBlock: KIFKEQ_clean_linker_1, # of connection points: 2
#     Edge 257, Type (0, 0), BuildingBlock: KIFKEQ_clean_linker_1, # of connection points: 2
#     Edge 258, Type (0, 0), BuildingBlock: KIFKEQ_clean_linker_1, # of connection points: 2
#     Edge 259, Type (0, 0), BuildingBlock: KIFKEQ_clean_linker_1, # of connection points: 2
#     Edge 260, Type (0, 0), BuildingBlock: KIFKEQ_clean_linker_1, # of connection points: 2
#     Edge 261, Type (0, 0), BuildingBlock: KIFKEQ_clean_linker_1, # of connection points: 2
#     Edge 262, Type (0, 0), BuildingBlock: KIFKEQ_clean_linker_1, # of connection points: 2
#     Edge 263, Type (0, 0), BuildingBlock: KIFKEQ_clean_linker_1, # of connection points: 2
#     Edge 264, Type (0, 0), BuildingBlock: KIFKEQ_clean_linker_1, # of connection points: 2
#     Edge 265, Type (0, 0), BuildingBlock: KIFKEQ_clean_linker_1, # of connection points: 2
#     Edge 266, Type (0, 0), BuildingBlock: KIFKEQ_clean_linker_1, # of connection points: 2
#     Edge 267, Type (0, 0), BuildingBlock: KIFKEQ_clean_linker_1, # of connection points: 2
#     Edge 268, Type (0, 0), BuildingBlock: KIFKEQ_clean_linker_1, # of connection points: 2
#     Edge 269, Type (0, 0), BuildingBlock: KIFKEQ_clean_linker_1, # of connection points: 2
#     Edge 270, Type (0, 0), BuildingBlock: KIFKEQ_clean_linker_1, # of connection points: 2
#     Edge 271, Type (0, 0), BuildingBlock: KIFKEQ_clean_linker_1, # of connection points: 2
#     Edge 272, Type (0, 0), BuildingBlock: KIFKEQ_clean_linker_1, # of connection points: 2
#     Edge 273, Type (0, 0), BuildingBlock: KIFKEQ_clean_linker_1, # of connection points: 2
#     Edge 274, Type (0, 0), BuildingBlock: KIFKEQ_clean_linker_1, # of connection points: 2
#     Edge 275, Type (0, 0), BuildingBlock: KIFKEQ_clean_linker_1, # of connection points: 2
#     Edge 276, Type (0, 0), BuildingBlock: KIFKEQ_clean_linker_1, # of connection points: 2
#     Edge 277, Type (0, 0), BuildingBlock: KIFKEQ_clean_linker_1, # of connection points: 2
#     Edge 278, Type (0, 0), BuildingBlock: KIFKEQ_clean_linker_1, # of connection points: 2
#     Edge 279, Type (0, 0), BuildingBlock: KIFKEQ_clean_linker_1, # of connection points: 2
#     Edge 280, Type (0, 0), BuildingBlock: KIFKEQ_clean_linker_1, # of connection points: 2
#     Edge 281, Type (0, 0), BuildingBlock: KIFKEQ_clean_linker_1, # of connection points: 2
#     Edge 282, Type (0, 0), BuildingBlock: KIFKEQ_clean_linker_1, # of connection points: 2
#     Edge 283, Type (0, 0), BuildingBlock: KIFKEQ_clean_linker_1, # of connection points: 2
#     Edge 284, Type (0, 0), BuildingBlock: KIFKEQ_clean_linker_1, # of connection points: 2
#     Edge 285, Type (0, 0), BuildingBlock: KIFKEQ_clean_linker_1, # of connection points: 2
#     Edge 286, Type (0, 0), BuildingBlock: KIFKEQ_clean_linker_1, # of connection points: 2
#     Edge 287, Type (0, 0), BuildingBlock: KIFKEQ_clean_linker_1, # of connection points: 2
# Relax obj value: 0.074
# Max RMSD: 0.230
# Mean RMSD: 0.230
data_MOF--net-gie--node1-NAWXER_clean_sbu_0--edge1-KIFKEQ_clean_linker_1
_symmetry_space_group_name_H-M    P1
_symmetry_Int_Tables_number       1
_symmetry_cell_setting            triclinic
loop_
_symmetry_equiv_pos_as_xyz
'x, y, z'
_cell_length_a     89.441323
_cell_length_b     89.421353
_cell_length_c     89.473484
_cell_angle_alpha  89.993625
_cell_angle_beta   89.986603
_cell_angle_gamma 89.998495
loop_
_atom_site_label
_atom_site_type_symbol
_atom_site_fract_x
_atom_site_fract_y
_atom_site_fract_z
_atom_type_partial_charge
C0 C 0.99933 0.1126 0.39874 0.0
C1 C 0.03213 0.15542 0.39256 0.0
O2 O 0.99721 0.12215 0.40922 0.0
Zn3 Zn 0.00731 0.14309 0.41589 0.0
O4 O 0.00949 0.11492 0.38915 0.0
Zn5 Zn 0.01611 0.13399 0.39642 0.0
O6 O 0.02852 0.12855 0.41642 0.0
O7 O 0.0162 0.13892 0.43499 0.0
O8 O 0.03093 0.14371 0.38464 0.0
O9 O 0.02411 0.15676 0.40443 0.0
O10 O 0.99028 0.15591 0.41615 0.0
O11 O 0.99686 0.14882 0.39343 0.0
C12 C 0.02718 0.1312 0.43044 0.0
C13 C 0.98818 0.15627 0.40213 0.0
C14 C 0.09971 0.73817 0.65128 0.0
C15 C 0.12478 0.77788 0.67838 0.0
O16 O 0.10707 0.74664 0.64233 0.0
Zn17 Zn 0.12178 0.76589 0.64458 0.0
O18 O 0.10017 0.74062 0.66524 0.0
Zn19 Zn 0.11293 0.75777 0.66444 0.0
O20 O 0.09925 0.77434 0.65282 0.0
O21 O 0.11176 0.78016 0.63234 0.0
O22 O 0.11676 0.76721 0.68316 0.0
O23 O 0.12772 0.77877 0.66435 0.0
O24 O 0.14047 0.75884 0.63701 0.0
O25 O 0.13411 0.74781 0.65807 0.0
C26 C 0.10032 0.78178 0.64057 0.0
C27 C 0.14329 0.74933 0.64713 0.0
C28 C 0.4773 0.87495 0.92977 0.0
C29 C 0.5167 0.84953 0.90234 0.0
O30 O 0.47616 0.8775 0.9157 0.0
Zn31 Zn 0.48908 0.87197 0.89595 0.0
O32 O 0.48823 0.8673 0.93456 0.0
Zn33 Zn 0.49732 0.86291 0.91568 0.0
O34 O 0.5078 0.88376 0.90903 0.0
O35 O 0.49579 0.891 0.88878 0.0
O36 O 0.51396 0.84956 0.91625 0.0
O37 O 0.5085 0.85738 0.89352 0.0
O38 O 0.47485 0.86195 0.88363 0.0
O39 O 0.48049 0.84947 0.90417 0.0
C40 C 0.50585 0.89329 0.89849 0.0
C41 C 0.47309 0.85056 0.89191 0.0
C42 C 0.40652 0.26776 0.15078 0.0
C43 C 0.38168 0.22785 0.17785 0.0
O44 O 0.39918 0.25929 0.14181 0.0
Zn45 Zn 0.38448 0.23999 0.14407 0.0
O46 O 0.40605 0.26529 0.16474 0.0
Zn47 Zn 0.39331 0.24813 0.16391 0.0
O48 O 0.40706 0.23163 0.15221 0.0
O49 O 0.39455 0.22581 0.13174 0.0
O50 O 0.38956 0.23862 0.18262 0.0
O51 O 0.37871 0.22696 0.16383 0.0
O52 O 0.36575 0.24701 0.13655 0.0
O53 O 0.37212 0.2581 0.15755 0.0
C54 C 0.40601 0.22422 0.13994 0.0
C55 C 0.36294 0.25656 0.14663 0.0
C56 C 0.02799 0.87559 0.07636 0.0
C57 C 0.98908 0.85001 0.10431 0.0
O58 O 0.02917 0.87832 0.09039 0.0
Zn59 Zn 0.01659 0.87279 0.11029 0.0
O60 O 0.01715 0.86772 0.07174 0.0
Zn61 Zn 0.00818 0.86349 0.09075 0.0
O62 O 0.99762 0.88431 0.09728 0.0
O63 O 0.00973 0.89183 0.11737 0.0
O64 O 0.99165 0.8501 0.09036 0.0
O65 O 0.99731 0.85793 0.11306 0.0
O66 O 0.03138 0.86314 0.12229 0.0
O67 O 0.02502 0.85014 0.10234 0.0
C68 C 0.99957 0.89395 0.10772 0.0
C69 C 0.03285 0.8515 0.11431 0.0
C70 C 0.40751 0.73955 0.35448 0.0
C71 C 0.38184 0.77887 0.32719 0.0
O72 O 0.39978 0.74777 0.36339 0.0
Zn73 Zn 0.38499 0.76709 0.36102 0.0
O74 O 0.4073 0.74229 0.34057 0.0
Zn75 Zn 0.39409 0.75903 0.34129 0.0
O76 O 0.40757 0.77568 0.35292 0.0
O77 O 0.39472 0.78186 0.373 0.0
O78 O 0.39016 0.7684 0.32249 0.0
O79 O 0.37881 0.77969 0.3412 0.0
O80 O 0.36639 0.75997 0.36861 0.0
O81 O 0.37296 0.74873 0.34773 0.0
C82 C 0.40629 0.78342 0.36494 0.0
C83 C 0.36371 0.7503 0.35861 0.0
C84 C 0.47771 0.13238 0.57665 0.0
C85 C 0.51709 0.15652 0.60516 0.0
O86 O 0.47663 0.12906 0.59056 0.0
Zn87 Zn 0.48899 0.13438 0.61066 0.0
O88 O 0.48839 0.1406 0.57227 0.0
Zn89 Zn 0.49762 0.14393 0.59133 0.0
O90 O 0.50756 0.12265 0.5974 0.0
O91 O 0.49554 0.11522 0.61759 0.0
O92 O 0.51478 0.15655 0.59117 0.0
O93 O 0.50844 0.14895 0.6138 0.0
O94 O 0.4742 0.14398 0.62268 0.0
O95 O 0.48112 0.15741 0.60319 0.0
C96 C 0.5055 0.11295 0.60778 0.0
C97 C 0.4731 0.15588 0.61503 0.0
C98 C 0.10116 0.26689 0.85512 0.0
C99 C 0.1264 0.22814 0.82673 0.0
O100 O 0.10868 0.25825 0.86381 0.0
Zn101 Zn 0.12358 0.23906 0.86079 0.0
O102 O 0.10147 0.26477 0.8411 0.0
Zn103 Zn 0.11437 0.24784 0.84134 0.0
O104 O 0.10082 0.23102 0.85283 0.0
O105 O 0.11392 0.22418 0.87258 0.0
O106 O 0.11858 0.23907 0.82224 0.0
O107 O 0.12908 0.22675 0.84074 0.0
O108 O 0.14262 0.24585 0.86803 0.0
O109 O 0.13517 0.25813 0.84802 0.0
C110 C 0.10219 0.22299 0.86468 0.0
C111 C 0.14477 0.25609 0.85847 0.0
C112 C 0.42953 0.02711 0.13025 0.0
C113 C 0.40202 0.98836 0.15653 0.0
O114 O 0.41545 0.02829 0.1277 0.0
Zn115 Zn 0.39561 0.01572 0.13377 0.0
O116 O 0.43424 0.0163 0.13811 0.0
Zn117 Zn 0.41531 0.00739 0.14264 0.0
O118 O 0.40842 0.99686 0.12185 0.0
O119 O 0.38782 0.00857 0.11524 0.0
O120 O 0.41598 0.99083 0.15606 0.0
O121 O 0.39313 0.99663 0.14883 0.0
O122 O 0.38376 0.03054 0.14342 0.0
O123 O 0.40395 0.02436 0.15615 0.0
C124 C 0.39752 0.99857 0.11266 0.0
C125 C 0.39192 0.03214 0.15491 0.0
C126 C 0.22773 0.17851 0.3794 0.0
C127 C 0.26734 0.15234 0.40579 0.0
O128 O 0.2267 0.16434 0.37727 0.0
Zn129 Zn 0.23984 0.14485 0.38364 0.0
O130 O 0.23855 0.1836 0.387 0.0
Zn131 Zn 0.24778 0.165 0.39193 0.0
O132 O 0.2581 0.15791 0.37112 0.0
O133 O 0.24691 0.13683 0.36515 0.0
O134 O 0.26452 0.16624 0.40518 0.0
O135 O 0.25918 0.14318 0.39833 0.0
O136 O 0.22573 0.13272 0.39399 0.0
O137 O 0.23103 0.15375 0.40578 0.0
C138 C 0.25656 0.14677 0.36219 0.0
C139 C 0.22382 0.14133 0.40509 0.0
C140 C 0.07592 0.97857 0.63111 0.0
C141 C 0.10419 0.01773 0.65565 0.0
O142 O 0.08985 0.97749 0.62783 0.0
Zn143 Zn 0.10989 0.99012 0.63306 0.0
O144 O 0.07147 0.98933 0.63918 0.0
Zn145 Zn 0.09045 0.99851 0.64264 0.0
O146 O 0.09657 0.00895 0.62165 0.0
O147 O 0.11673 0.99704 0.61398 0.0
O148 O 0.09021 0.01537 0.65566 0.0
O149 O 0.11286 0.0093 0.64789 0.0
O150 O 0.1223 0.97565 0.64269 0.0
O151 O 0.10229 0.98171 0.65583 0.0
C152 C 0.10696 0.0071 0.61193 0.0
C153 C 0.1144 0.97411 0.65437 0.0
C154 C 0.25012 0.85794 0.86118 0.0
C155 C 0.28264 0.86461 0.90413 0.0
O156 O 0.24796 0.84755 0.87083 0.0
Zn157 Zn 0.25793 0.8412 0.89199 0.0
O158 O 0.26029 0.86755 0.86341 0.0
Zn159 Zn 0.26684 0.86046 0.88253 0.0
O160 O 0.27899 0.8402 0.87722 0.0
O161 O 0.26691 0.82204 0.88863 0.0
O162 O 0.28175 0.87229 0.89223 0.0
O163 O 0.27448 0.85286 0.90557 0.0
O164 O 0.24084 0.84117 0.90463 0.0
O165 O 0.24748 0.86378 0.89719 0.0
C166 C 0.27771 0.82629 0.8805 0.0
C167 C 0.23874 0.8552 0.90473 0.0
C168 C 0.43064 0.97965 0.37472 0.0
C169 C 0.40173 0.01844 0.35012 0.0
O170 O 0.41672 0.97842 0.37798 0.0
Zn171 Zn 0.3965 0.99053 0.37255 0.0
O172 O 0.43494 0.99038 0.36653 0.0
Zn173 Zn 0.41577 0.99935 0.36305 0.0
O174 O 0.40941 0.00943 0.38417 0.0
O175 O 0.38937 0.99717 0.3916 0.0
O176 O 0.41576 0.01636 0.35023 0.0
O177 O 0.39316 0.00975 0.35773 0.0
O178 O 0.38475 0.97549 0.36305 0.0
O179 O 0.40422 0.98252 0.34966 0.0
C180 C 0.399 0.00732 0.39382 0.0
C181 C 0.39249 0.97435 0.35122 0.0
C182 C 0.24983 0.14823 0.64379 0.0
C183 C 0.28328 0.14299 0.60131 0.0
O184 O 0.24783 0.15887 0.63439 0.0
Zn185 Zn 0.25823 0.16599 0.61377 0.0
O186 O 0.2601 0.13873 0.64149 0.0
Zn187 Zn 0.26699 0.14636 0.62265 0.0
O188 O 0.27922 0.16632 0.62863 0.0
O189 O 0.26696 0.18504 0.61843 0.0
O190 O 0.282 0.13484 0.61286 0.0
O191 O 0.27521 0.15484 0.6001 0.0
O192 O 0.24138 0.1664 0.60074 0.0
O193 O 0.24793 0.14357 0.60757 0.0
C194 C 0.27784 0.1804 0.62623 0.0
C195 C 0.23931 0.15237 0.60016 0.0
C196 C 0.10972 0.99854 0.89291 0.0
C197 C 0.11514 0.03125 0.85002 0.0
O198 O 0.09864 0.99693 0.88394 0.0
Zn199 Zn 0.09165 0.00698 0.86309 0.0
O200 O 0.11965 0.0082 0.88996 0.0
Zn201 Zn 0.11167 0.01528 0.87142 0.0
O202 O 0.09201 0.02819 0.87756 0.0
O203 O 0.07291 0.01611 0.8678 0.0
O204 O 0.12364 0.02957 0.86125 0.0
O205 O 0.10286 0.02382 0.84919 0.0
O206 O 0.09073 0.98992 0.85018 0.0
O207 O 0.11374 0.99622 0.85647 0.0
C208 C 0.07786 0.02704 0.87533 0.0
C209 C 0.10471 0.98769 0.84928 0.0
C210 C 0.22731 0.82712 0.12693 0.0
C211 C 0.26635 0.85514 0.10157 0.0
O212 O 0.22595 0.84118 0.1294 0.0
Zn213 Zn 0.23839 0.86112 0.12375 0.0
O214 O 0.2383 0.82248 0.11927 0.0
Zn215 Zn 0.24721 0.84153 0.11489 0.0
O216 O 0.2573 0.84846 0.1357 0.0
O217 O 0.24501 0.86862 0.14272 0.0
O218 O 0.26425 0.84111 0.1021 0.0
O219 O 0.25767 0.86393 0.10891 0.0
O220 O 0.22362 0.87282 0.11385 0.0
O221 O 0.23053 0.85288 0.10104 0.0
C222 C 0.25518 0.85906 0.14512 0.0
C223 C 0.22252 0.86478 0.10221 0.0
C224 C 0.15693 0.40229 0.9899 0.0
C225 C 0.13139 0.42958 0.02925 0.0
O226 O 0.14874 0.39347 0.99777 0.0
Zn227 Zn 0.13382 0.39586 0.01698 0.0
O228 O 0.15713 0.41615 0.99294 0.0
Zn229 Zn 0.14351 0.41552 0.0093 0.0
O230 O 0.15635 0.40344 0.02606 0.0
O231 O 0.14336 0.38312 0.03129 0.0
O232 O 0.13972 0.43428 0.01879 0.0
O233 O 0.12817 0.41561 0.02995 0.0
O234 O 0.11488 0.38913 0.00976 0.0
O235 O 0.12265 0.40955 0.99833 0.0
C236 C 0.1549 0.39112 0.0333 0.0
C237 C 0.11292 0.39911 0.99989 0.0
C238 C 0.65747 0.10516 0.01651 0.0
C239 C 0.63146 0.07707 0.97809 0.0
O240 O 0.64954 0.11392 0.00832 0.0
Zn241 Zn 0.63438 0.11111 0.98934 0.0
O242 O 0.65724 0.0912 0.01401 0.0
Zn243 Zn 0.64376 0.09159 0.99756 0.0
O244 O 0.6569 0.10313 0.98059 0.0
O245 O 0.64377 0.123 0.97427 0.0
O246 O 0.63992 0.07262 0.98854 0.0
O247 O 0.62826 0.09104 0.97708 0.0
O248 O 0.61583 0.11864 0.99667 0.0
O249 O 0.62277 0.098 0.00815 0.0
C250 C 0.65541 0.11505 0.9727 0.0
C251 C 0.61341 0.10879 0.00657 0.0
C252 C 0.15109 0.40678 0.26748 0.0
C253 C 0.17911 0.38123 0.22867 0.0
O254 O 0.14233 0.39886 0.25926 0.0
Zn255 Zn 0.14513 0.38403 0.23996 0.0
O256 O 0.16503 0.40673 0.26487 0.0
Zn257 Zn 0.16463 0.39337 0.24835 0.0
O258 O 0.15303 0.40669 0.23148 0.0
O259 O 0.13311 0.39361 0.22516 0.0
O260 O 0.18367 0.38917 0.23947 0.0
O261 O 0.16508 0.37846 0.22745 0.0
O262 O 0.13804 0.365 0.24678 0.0
O263 O 0.15812 0.37251 0.25892 0.0
C264 C 0.14105 0.40528 0.22366 0.0
C265 C 0.14768 0.36286 0.25693 0.0
C266 C 0.84875 0.90104 0.51727 0.0
C267 C 0.87515 0.92796 0.47817 0.0
O268 O 0.85634 0.89203 0.50904 0.0
Zn269 Zn 0.8711 0.89409 0.4898 0.0
O270 O 0.84926 0.91497 0.51461 0.0
Zn271 Zn 0.86259 0.91407 0.49793 0.0
O272 O 0.84893 0.90294 0.48097 0.0
O273 O 0.86093 0.88208 0.47547 0.0
O274 O 0.86739 0.93284 0.48898 0.0
O275 O 0.87742 0.91382 0.47699 0.0
O276 O 0.88963 0.88613 0.49684 0.0
O277 O 0.88343 0.90704 0.50822 0.0
C278 C 0.84977 0.89063 0.4736 0.0
C279 C 0.89247 0.896 0.50659 0.0
C280 C 0.86474 0.10009 0.22409 0.0
C281 C 0.85809 0.14256 0.25717 0.0
O282 O 0.85246 0.09893 0.23146 0.0
Zn283 Zn 0.84094 0.11222 0.24842 0.0
O284 O 0.87303 0.11145 0.22599 0.0
Zn285 Zn 0.86068 0.12133 0.2403 0.0
O286 O 0.86308 0.10658 0.2596 0.0
O287 O 0.84032 0.09874 0.26494 0.0
O288 O 0.86784 0.1403 0.24714 0.0
O289 O 0.84753 0.13302 0.25904 0.0
O290 O 0.82206 0.11665 0.2394 0.0
O291 O 0.84092 0.12697 0.22742 0.0
C292 C 0.85423 0.09867 0.26771 0.0
C293 C 0.82684 0.12441 0.22854 0.0
C294 C 0.3492 0.6054 0.48932 0.0
C295 C 0.37462 0.57687 0.52786 0.0
O296 O 0.3572 0.61403 0.49759 0.0
Zn297 Zn 0.37208 0.61096 0.5168 0.0
O298 O 0.3492 0.59142 0.4918 0.0
Zn299 Zn 0.36259 0.59157 0.50828 0.0
O300 O 0.34942 0.60316 0.52523 0.0
O301 O 0.36265 0.62295 0.5317 0.0
O302 O 0.36664 0.57243 0.51703 0.0
O303 O 0.37749 0.59087 0.52916 0.0
O304 O 0.39112 0.61796 0.51002 0.0
O305 O 0.38347 0.598 0.49776 0.0
C306 C 0.35093 0.61507 0.53314 0.0
C307 C 0.39319 0.60835 0.49981 0.0
C308 C 0.148 0.64355 0.25002 0.0
C309 C 0.14209 0.60067 0.28282 0.0
O310 O 0.15849 0.63402 0.24784 0.0
Zn311 Zn 0.16527 0.61308 0.25791 0.0
O312 O 0.13849 0.64123 0.26026 0.0
Zn313 Zn 0.14583 0.62217 0.26683 0.0
O314 O 0.16591 0.62764 0.27908 0.0
O315 O 0.18442 0.61725 0.26665 0.0
O316 O 0.13415 0.61238 0.2817 0.0
O317 O 0.15391 0.59935 0.27473 0.0
O318 O 0.16548 0.60031 0.24087 0.0
O319 O 0.14277 0.60741 0.24756 0.0
C320 C 0.17993 0.62499 0.27764 0.0
C321 C 0.15145 0.59999 0.23882 0.0
C322 C 0.35491 0.4079 0.73984 0.0
C323 C 0.32657 0.38205 0.77829 0.0
O324 O 0.36356 0.39987 0.74805 0.0
Zn325 Zn 0.3606 0.38487 0.76719 0.0
O326 O 0.34094 0.4079 0.74236 0.0
Zn327 Zn 0.34117 0.39437 0.75876 0.0
O328 O 0.35275 0.4075 0.77576 0.0
O329 O 0.37258 0.39431 0.78213 0.0
O330 O 0.32207 0.39011 0.76753 0.0
O331 O 0.34058 0.37926 0.77955 0.0
O332 O 0.36765 0.36589 0.76019 0.0
O333 O 0.3477 0.37364 0.748 0.0
C334 C 0.36468 0.406 0.78363 0.0
C335 C 0.35808 0.36393 0.74994 0.0
C336 C 0.97373 0.84977 0.6147 0.0
C337 C 0.00601 0.89297 0.60855 0.0
O338 O 0.97518 0.8612 0.62299 0.0
Zn339 Zn 0.98941 0.87142 0.61089 0.0
O340 O 0.98128 0.84882 0.6025 0.0
Zn341 Zn 0.99796 0.86268 0.59111 0.0
O342 O 0.01505 0.84989 0.59048 0.0
O343 O 0.00878 0.85679 0.61335 0.0
O344 O 0.00802 0.88357 0.59792 0.0
O345 O 0.99601 0.89047 0.61828 0.0
O346 O 0.97657 0.87696 0.5911 0.0
O347 O 0.98888 0.86708 0.57223 0.0
C348 C 0.01736 0.84944 0.60447 0.0
C349 C 0.97783 0.87455 0.57701 0.0
C350 C 0.88162 0.22785 0.32706 0.0
C351 C 0.90612 0.26752 0.35475 0.0
O352 O 0.88962 0.2386 0.32244 0.0
Zn353 Zn 0.89321 0.24798 0.3413 0.0
O354 O 0.8785 0.22689 0.34103 0.0
Zn355 Zn 0.8839 0.2397 0.36091 0.0
O356 O 0.86479 0.24647 0.36789 0.0
O357 O 0.87209 0.25817 0.34748 0.0
O358 O 0.89853 0.25907 0.36356 0.0
O359 O 0.90603 0.26502 0.3408 0.0
O360 O 0.90667 0.23139 0.35311 0.0
O361 O 0.8938 0.22539 0.3733 0.0
C362 C 0.86248 0.25633 0.35798 0.0
C363 C 0.90541 0.22387 0.36528 0.0
C364 C 0.48896 0.15621 0.10423 0.0
C365 C 0.52848 0.13021 0.07754 0.0
O366 O 0.49127 0.15531 0.09027 0.0
Zn367 Zn 0.50838 0.14247 0.09128 0.0
O368 O 0.49748 0.14906 0.11331 0.0
Zn369 Zn 0.51663 0.13419 0.11132 0.0
O370 O 0.53086 0.14447 0.1233 0.0
O371 O 0.5251 0.15649 0.1025 0.0
O372 O 0.52962 0.12801 0.09169 0.0
O373 O 0.51756 0.13775 0.07258 0.0
O374 O 0.4984 0.12156 0.09826 0.0
O375 O 0.50957 0.1156 0.11932 0.0
C376 C 0.5325 0.15572 0.11481 0.0
C377 C 0.49998 0.11259 0.10934 0.0
C378 C 0.62472 0.77887 0.8266 0.0
C379 C 0.59914 0.73991 0.85446 0.0
O380 O 0.61676 0.7681 0.82198 0.0
Zn381 Zn 0.61248 0.75917 0.84098 0.0
O382 O 0.62741 0.78007 0.84063 0.0
Zn383 Zn 0.62173 0.76755 0.86053 0.0
O384 O 0.64071 0.76083 0.86771 0.0
O385 O 0.63337 0.74872 0.84755 0.0
O386 O 0.60699 0.74817 0.86324 0.0
O387 O 0.5992 0.74255 0.84053 0.0
O388 O 0.59908 0.77597 0.85257 0.0
O389 O 0.61209 0.7823 0.87253 0.0
C390 C 0.64296 0.75073 0.85803 0.0
C391 C 0.60044 0.78377 0.86457 0.0
C392 C 0.9748 0.15546 0.89029 0.0
C393 C 0.00774 0.11276 0.89627 0.0
O394 O 0.97677 0.14428 0.88179 0.0
Zn395 Zn 0.99096 0.13415 0.89402 0.0
O396 O 0.98204 0.15634 0.90267 0.0
Zn397 Zn 0.99889 0.14274 0.91405 0.0
O398 O 0.01556 0.15611 0.91504 0.0
O399 O 0.01021 0.14892 0.8921 0.0
O400 O 0.00926 0.12186 0.90726 0.0
O401 O 0.99809 0.11556 0.88629 0.0
O402 O 0.97785 0.12805 0.9136 0.0
O403 O 0.98967 0.13807 0.93273 0.0
C404 C 0.01834 0.15655 0.90114 0.0
C405 C 0.97885 0.1304 0.92774 0.0
C406 C 0.62554 0.22803 0.67883 0.0
C407 C 0.59912 0.26701 0.65176 0.0
O408 O 0.61771 0.23879 0.6837 0.0
Zn409 Zn 0.61294 0.24781 0.6649 0.0
O410 O 0.62795 0.22693 0.66472 0.0
Zn411 Zn 0.62196 0.23978 0.64506 0.0
O412 O 0.6408 0.24691 0.63773 0.0
O413 O 0.63351 0.25871 0.65809 0.0
O414 O 0.60702 0.25897 0.64285 0.0
O415 O 0.59932 0.26422 0.66567 0.0
O416 O 0.59965 0.2308 0.65348 0.0
O417 O 0.61201 0.22538 0.63281 0.0
C418 C 0.64298 0.25698 0.64746 0.0
C419 C 0.60072 0.22344 0.64119 0.0
C420 C 0.53352 0.85148 0.39174 0.0
C421 C 0.50043 0.89411 0.39778 0.0
O422 O 0.53207 0.86305 0.38364 0.0
Zn423 Zn 0.51729 0.87284 0.39551 0.0
O424 O 0.52567 0.85025 0.40372 0.0
Zn425 Zn 0.50885 0.86379 0.41513 0.0
O426 O 0.49225 0.85048 0.41568 0.0
O427 O 0.49795 0.85802 0.3929 0.0
O428 O 0.4984 0.88461 0.40834 0.0
O429 O 0.51055 0.89179 0.38815 0.0
O430 O 0.52982 0.87863 0.41537 0.0
O431 O 0.51776 0.86823 0.43411 0.0
C432 C 0.48968 0.85024 0.40173 0.0
C433 C 0.5286 0.87608 0.42943 0.0
C434 C 0.88017 0.77872 0.17852 0.0
C435 C 0.90666 0.73974 0.15144 0.0
O436 O 0.88811 0.76803 0.18338 0.0
Zn437 Zn 0.89286 0.75903 0.16456 0.0
O438 O 0.8778 0.77983 0.16441 0.0
Zn439 Zn 0.88419 0.76725 0.14469 0.0
O440 O 0.86569 0.76014 0.13675 0.0
O441 O 0.87202 0.74869 0.15758 0.0
O442 O 0.89908 0.74803 0.14247 0.0
O443 O 0.90617 0.74233 0.16537 0.0
O444 O 0.90652 0.77591 0.15331 0.0
O445 O 0.89406 0.78203 0.13295 0.0
C446 C 0.86293 0.75033 0.14659 0.0
C447 C 0.90544 0.78366 0.14126 0.0
C448 C 0.60702 0.00664 0.89362 0.0
C449 C 0.6141 0.97413 0.85076 0.0
O450 O 0.61687 0.99671 0.89132 0.0
Zn451 Zn 0.60983 0.98998 0.87225 0.0
O452 O 0.59652 0.00856 0.88404 0.0
Zn453 Zn 0.59026 0.9984 0.86295 0.0
O454 O 0.57133 0.98912 0.86655 0.0
O455 O 0.58987 0.97732 0.87768 0.0
O456 O 0.60197 0.98174 0.84949 0.0
O457 O 0.62211 0.97557 0.86238 0.0
O458 O 0.61262 0.00928 0.85757 0.0
O459 O 0.5899 0.01543 0.8501 0.0
C460 C 0.5759 0.97837 0.87457 0.0
C461 C 0.60389 0.01778 0.84997 0.0
C462 C 0.7389 0.85498 0.60085 0.0
C463 C 0.77784 0.82644 0.62553 0.0
O464 O 0.74097 0.84095 0.60116 0.0
Zn465 Zn 0.75802 0.84115 0.61385 0.0
O466 O 0.74764 0.86366 0.60827 0.0
Zn467 Zn 0.76697 0.86056 0.62296 0.0
O468 O 0.78177 0.87233 0.61317 0.0
O469 O 0.77474 0.85261 0.60011 0.0
O470 O 0.7793 0.84045 0.62824 0.0
O471 O 0.76678 0.822 0.61787 0.0
O472 O 0.74802 0.84783 0.6348 0.0
O473 O 0.76046 0.8678 0.64208 0.0
C474 C 0.78282 0.86444 0.60142 0.0
C475 C 0.75022 0.85827 0.64437 0.0
C476 C 0.8975 0.99931 0.39391 0.0
C477 C 0.89137 0.03243 0.35133 0.0
O478 O 0.88765 0.00916 0.39131 0.0
Zn479 Zn 0.89526 0.01623 0.37264 0.0
O480 O 0.90831 0.99759 0.38462 0.0
Zn481 Zn 0.91475 0.00764 0.36349 0.0
O482 O 0.93376 0.0167 0.36712 0.0
O483 O 0.91537 0.02849 0.37849 0.0
O484 O 0.90321 0.02439 0.34992 0.0
O485 O 0.8835 0.03121 0.36307 0.0
O486 O 0.89232 0.99718 0.35764 0.0
O487 O 0.91508 0.99062 0.35067 0.0
C488 C 0.92932 0.02736 0.37533 0.0
C489 C 0.90106 0.98854 0.3502 0.0
C490 C 0.76797 0.15101 0.09951 0.0
C491 C 0.72915 0.17887 0.12528 0.0
O492 O 0.76599 0.16504 0.10037 0.0
Zn493 Zn 0.74887 0.16452 0.1131 0.0
O494 O 0.7592 0.14214 0.10663 0.0
Zn495 Zn 0.74009 0.14479 0.12157 0.0
O496 O 0.72518 0.13337 0.11164 0.0
O497 O 0.73198 0.15352 0.09912 0.0
O498 O 0.72776 0.16478 0.12767 0.0
O499 O 0.74011 0.18353 0.11759 0.0
O500 O 0.75865 0.15744 0.13407 0.0
O501 O 0.74691 0.1367 0.14016 0.0
C502 C 0.72393 0.14164 0.10018 0.0
C503 C 0.75676 0.14645 0.1431 0.0
C504 C 0.6139 0.03302 0.65427 0.0
C505 C 0.60661 0.9993 0.61236 0.0
O506 O 0.62158 0.0316 0.64242 0.0
Zn507 Zn 0.60945 0.01656 0.6332 0.0
O508 O 0.60204 0.0251 0.65596 0.0
Zn509 Zn 0.59018 0.00822 0.64307 0.0
O510 O 0.59007 0.99185 0.65659 0.0
O511 O 0.61261 0.99746 0.64825 0.0
O512 O 0.5963 0.99742 0.62218 0.0
O513 O 0.61628 0.00949 0.61423 0.0
O514 O 0.58932 0.02882 0.62769 0.0
O515 O 0.57111 0.01726 0.63955 0.0
C516 C 0.60403 0.98931 0.65644 0.0
C517 C 0.57542 0.02777 0.63109 0.0
C518 C 0.72325 0.86498 0.4044 0.0
C519 C 0.75626 0.859 0.3617 0.0
O520 O 0.72446 0.87298 0.39274 0.0
Zn521 Zn 0.73928 0.86121 0.38295 0.0
O522 O 0.73123 0.85307 0.40565 0.0
Zn523 Zn 0.74799 0.84163 0.39196 0.0
O524 O 0.76494 0.84122 0.40485 0.0
O525 O 0.75849 0.86403 0.39785 0.0
O526 O 0.75828 0.84845 0.3712 0.0
O527 O 0.74607 0.86858 0.36397 0.0
O528 O 0.72685 0.84128 0.3773 0.0
O529 O 0.73909 0.82259 0.38759 0.0
C530 C 0.7671 0.85524 0.40528 0.0
C531 C 0.72816 0.82722 0.37984 0.0
C532 C 0.90098 0.01829 0.15512 0.0
C533 C 0.92928 0.9793 0.13019 0.0
O534 O 0.915 0.01621 0.15465 0.0
Zn535 Zn 0.9147 0.99914 0.14188 0.0
O536 O 0.89225 0.00961 0.14771 0.0
Zn537 Zn 0.89521 0.99051 0.13276 0.0
O538 O 0.88343 0.97558 0.14236 0.0
O539 O 0.90315 0.98241 0.15549 0.0
O540 O 0.91532 0.97817 0.12702 0.0
O541 O 0.93371 0.99003 0.13831 0.0
O542 O 0.9083 0.00909 0.12068 0.0
O543 O 0.88765 0.99749 0.11405 0.0
C544 C 0.8913 0.97438 0.15409 0.0
C545 C 0.8975 0.00732 0.11139 0.0
C546 C 0.78225 0.14215 0.90421 0.0
C547 C 0.74879 0.14896 0.86206 0.0
O548 O 0.7807 0.13424 0.89254 0.0
Zn549 Zn 0.76594 0.14637 0.88305 0.0
O550 O 0.7745 0.15417 0.90567 0.0
Zn551 Zn 0.75765 0.16591 0.89245 0.0
O552 O 0.74119 0.16637 0.90592 0.0
O553 O 0.74671 0.14366 0.89799 0.0
O554 O 0.74688 0.1594 0.87172 0.0
O555 O 0.75898 0.13932 0.8641 0.0
O556 O 0.77855 0.16624 0.87746 0.0
O557 O 0.76664 0.18491 0.88816 0.0
C558 C 0.73854 0.15242 0.90596 0.0
C559 C 0.77741 0.18028 0.88021 0.0
C560 C 0.87432 0.5762 0.97722 0.0
C561 C 0.84901 0.60491 0.01567 0.0
O562 O 0.86583 0.57189 0.98771 0.0
Zn563 Zn 0.86228 0.59099 0.99669 0.0
O564 O 0.8777 0.5901 0.97616 0.0
Zn565 Zn 0.87211 0.61028 0.98831 0.0
O566 O 0.89109 0.61718 0.99525 0.0
O567 O 0.88327 0.59715 0.00732 0.0
O568 O 0.85716 0.61347 0.00746 0.0
O569 O 0.84883 0.59095 0.01313 0.0
O570 O 0.84934 0.60273 0.97978 0.0
O571 O 0.86283 0.62229 0.97324 0.0
C572 C 0.89305 0.60748 0.0054 0.0
C573 C 0.85102 0.61456 0.97181 0.0
C574 C 0.37417 0.92762 0.0283 0.0
C575 C 0.34785 0.90108 0.98889 0.0
O576 O 0.36641 0.93262 0.01754 0.0
Zn577 Zn 0.36157 0.91393 0.00845 0.0
O578 O 0.37639 0.91347 0.02937 0.0
Zn579 Zn 0.37001 0.89386 0.01643 0.0
O580 O 0.38854 0.88589 0.0094 0.0
O581 O 0.38247 0.90695 0.9982 0.0
O582 O 0.35537 0.892 0.99709 0.0
O583 O 0.34832 0.91499 0.99169 0.0
O584 O 0.34784 0.90275 0.02531 0.0
O585 O 0.35973 0.88179 0.03066 0.0
C586 C 0.39147 0.89587 0.99977 0.0
C587 C 0.34861 0.89038 0.03259 0.0
C588 C 0.85536 0.59945 0.73969 0.0
C589 C 0.82763 0.62529 0.7785 0.0
O590 O 0.84142 0.59965 0.74231 0.0
Zn591 Zn 0.84196 0.61299 0.75889 0.0
O592 O 0.86419 0.6073 0.74788 0.0
Zn593 Zn 0.86158 0.62227 0.76703 0.0
O594 O 0.87353 0.61272 0.78194 0.0
O595 O 0.85359 0.59969 0.77564 0.0
O596 O 0.84161 0.62843 0.77942 0.0
O597 O 0.82308 0.61686 0.76807 0.0
O598 O 0.84835 0.63404 0.74845 0.0
O599 O 0.86911 0.64086 0.75978 0.0
C600 C 0.86557 0.60108 0.78345 0.0
C601 C 0.85917 0.64337 0.75 0.0
C602 C 0.13171 0.07867 0.52837 0.0
C603 C 0.1564 0.10618 0.48867 0.0
O604 O 0.13963 0.07402 0.51759 0.0
Zn605 Zn 0.14336 0.09285 0.50832 0.0
O606 O 0.1288 0.09271 0.52946 0.0
Zn607 Zn 0.1347 0.11265 0.51673 0.0
O608 O 0.11595 0.12041 0.51003 0.0
O609 O 0.122 0.09938 0.49878 0.0
O610 O 0.1492 0.11509 0.49732 0.0
O611 O 0.15587 0.0922 0.491 0.0
O612 O 0.15732 0.10425 0.52483 0.0
O613 O 0.14493 0.12469 0.53101 0.0
C614 C 0.1129 0.11035 0.50053 0.0
C615 C 0.15638 0.11643 0.5324 0.0
C616 C 0.17979 0.88223 0.77645 0.0
C617 C 0.15167 0.90675 0.73706 0.0
O618 O 0.1843 0.89037 0.76576 0.0
Zn619 Zn 0.16535 0.89384 0.75647 0.0
O620 O 0.16585 0.87899 0.77745 0.0
Zn621 Zn 0.14585 0.88431 0.76478 0.0
O622 O 0.13901 0.86521 0.758 0.0
O623 O 0.15932 0.8727 0.74623 0.0
O624 O 0.14298 0.89903 0.74551 0.0
O625 O 0.16564 0.90677 0.73948 0.0
O626 O 0.15346 0.90708 0.77318 0.0
O627 O 0.13341 0.89396 0.77917 0.0
C628 C 0.1489 0.86301 0.74811 0.0
C629 C 0.14132 0.90564 0.78073 0.0
C630 C 0.63104 0.42973 0.47784 0.0
C631 C 0.65645 0.40207 0.51701 0.0
O632 O 0.63865 0.43444 0.48882 0.0
Zn633 Zn 0.64311 0.41551 0.49775 0.0
O634 O 0.62861 0.41564 0.47653 0.0
Zn635 Zn 0.63426 0.39578 0.48923 0.0
O636 O 0.61527 0.38838 0.49595 0.0
O637 O 0.6223 0.40869 0.50797 0.0
O638 O 0.64902 0.39322 0.50848 0.0
O639 O 0.65602 0.41607 0.51472 0.0
O640 O 0.65681 0.40415 0.48093 0.0
O641 O 0.64432 0.38371 0.47488 0.0
C642 C 0.61287 0.39807 0.506 0.0
C643 C 0.65576 0.39196 0.47336 0.0
C644 C 0.85843 0.36247 0.75632 0.0
C645 C 0.86436 0.40516 0.72322 0.0
O646 O 0.86791 0.36465 0.74601 0.0
Zn647 Zn 0.86059 0.38369 0.73926 0.0
O648 O 0.84796 0.37204 0.75841 0.0
Zn649 Zn 0.84115 0.39285 0.74815 0.0
O650 O 0.822 0.38859 0.73942 0.0
O651 O 0.84051 0.37815 0.72703 0.0
O652 O 0.85253 0.40648 0.73131 0.0
O653 O 0.87228 0.39343 0.72434 0.0
O654 O 0.86367 0.39857 0.75845 0.0
O655 O 0.84097 0.40575 0.7651 0.0
C656 C 0.82648 0.3808 0.72846 0.0
C657 C 0.85501 0.40606 0.76714 0.0
C658 C 0.64204 0.6013 0.22334 0.0
C659 C 0.6489 0.64376 0.25637 0.0
O660 O 0.63382 0.61271 0.2252 0.0
Zn661 Zn 0.64622 0.62255 0.23949 0.0
O662 O 0.65433 0.6001 0.2307 0.0
Zn663 Zn 0.66592 0.61337 0.24761 0.0
O664 O 0.6665 0.5999 0.26412 0.0
O665 O 0.64376 0.6078 0.25878 0.0
O666 O 0.65941 0.63417 0.25825 0.0
O667 O 0.63915 0.64156 0.24634 0.0
O668 O 0.666 0.62809 0.22659 0.0
O669 O 0.68481 0.61771 0.23858 0.0
C670 C 0.65259 0.59986 0.26688 0.0
C671 C 0.68007 0.62547 0.22772 0.0
C672 C 0.50015 0.61332 0.89779 0.0
C673 C 0.53336 0.65585 0.89155 0.0
O674 O 0.49858 0.62256 0.90867 0.0
Zn675 Zn 0.50889 0.64366 0.91514 0.0
O676 O 0.50986 0.61597 0.88782 0.0
Zn677 Zn 0.51702 0.63456 0.89544 0.0
O678 O 0.52954 0.62836 0.9153 0.0
O679 O 0.51819 0.63973 0.93396 0.0
O680 O 0.53186 0.64427 0.88351 0.0
O681 O 0.52557 0.65713 0.90355 0.0
O682 O 0.4922 0.65691 0.91581 0.0
O683 O 0.49779 0.64945 0.893 0.0
C684 C 0.52866 0.6314 0.9293 0.0
C685 C 0.48956 0.65719 0.90188 0.0
C686 C 0.60048 0.23856 0.15071 0.0
C687 C 0.62582 0.27748 0.17884 0.0
O688 O 0.60774 0.24731 0.14193 0.0
Zn689 Zn 0.62266 0.26641 0.14475 0.0
O690 O 0.60116 0.24055 0.16473 0.0
Zn691 Zn 0.61393 0.25766 0.16438 0.0
O692 O 0.60011 0.27454 0.15315 0.0
O693 O 0.61288 0.28129 0.13315 0.0
O694 O 0.61812 0.2665 0.18342 0.0
O695 O 0.62842 0.27883 0.16479 0.0
O696 O 0.64139 0.25956 0.13696 0.0
O697 O 0.63499 0.24785 0.15761 0.0
C698 C 0.60132 0.28256 0.14127 0.0
C699 C 0.64419 0.24971 0.14676 0.0
C700 C 0.97742 0.37506 0.42842 0.0
C701 C 0.0172 0.34988 0.40151 0.0
O702 O 0.97657 0.37803 0.41439 0.0
Zn703 Zn 0.9896 0.37211 0.39466 0.0
O704 O 0.9881 0.36708 0.43321 0.0
Zn705 Zn 0.99754 0.36324 0.41452 0.0
O706 O 0.00764 0.38446 0.40812 0.0
O707 O 0.99652 0.3908 0.38711 0.0
O708 O 0.01434 0.3501 0.41539 0.0
O709 O 0.00903 0.35756 0.39253 0.0
O710 O 0.97543 0.36203 0.38229 0.0
O711 O 0.98093 0.34966 0.40292 0.0
C712 C 0.00606 0.39365 0.39719 0.0
C713 C 0.97362 0.35068 0.3906 0.0
C714 C 0.90633 0.76637 0.65043 0.0
C715 C 0.88053 0.72754 0.67826 0.0
O716 O 0.89914 0.75764 0.64156 0.0
Zn717 Zn 0.88419 0.73852 0.64421 0.0
O718 O 0.90556 0.76431 0.66444 0.0
Zn719 Zn 0.89281 0.74719 0.66392 0.0
O720 O 0.90668 0.73033 0.65279 0.0
O721 O 0.89404 0.72363 0.63269 0.0
O722 O 0.88835 0.73841 0.6829 0.0
O723 O 0.87808 0.72617 0.66419 0.0
O724 O 0.86557 0.74545 0.63624 0.0
O725 O 0.87182 0.75703 0.65701 0.0
C726 C 0.90555 0.72233 0.64088 0.0
C727 C 0.86271 0.75524 0.64608 0.0
C728 C 0.52819 0.37474 0.57668 0.0
C729 C 0.4891 0.35029 0.60514 0.0
O730 O 0.52937 0.378 0.5906 0.0
Zn731 Zn 0.51712 0.37237 0.61078 0.0
O732 O 0.51748 0.36656 0.57232 0.0
Zn733 Zn 0.50842 0.36318 0.59136 0.0
O734 O 0.4987 0.38451 0.59764 0.0
O735 O 0.51031 0.39118 0.61827 0.0
O736 O 0.49122 0.35061 0.59112 0.0
O737 O 0.49785 0.35767 0.61383 0.0
O738 O 0.53198 0.36267 0.62257 0.0
O739 O 0.52499 0.34948 0.60295 0.0
C740 C 0.50054 0.39386 0.60838 0.0
C741 C 0.53305 0.35086 0.61477 0.0
C742 C 0.90663 0.23832 0.85499 0.0
C743 C 0.88224 0.27811 0.82739 0.0
O744 O 0.89939 0.24698 0.86386 0.0
Zn745 Zn 0.88491 0.2664 0.86134 0.0
O746 O 0.90615 0.24063 0.84101 0.0
Zn747 Zn 0.89365 0.25796 0.84161 0.0
O748 O 0.90757 0.27445 0.85311 0.0
O749 O 0.89507 0.28064 0.87348 0.0
O750 O 0.89009 0.26725 0.82276 0.0
O751 O 0.87925 0.2792 0.84139 0.0
O752 O 0.86611 0.25975 0.86897 0.0
O753 O 0.87225 0.24844 0.84801 0.0
C754 C 0.90656 0.28202 0.86528 0.0
C755 C 0.8631 0.25022 0.85893 0.0
C756 C 0.9773 0.63185 0.07611 0.0
C757 C 0.01622 0.657 0.10432 0.0
O758 O 0.97626 0.6286 0.09004 0.0
Zn759 Zn 0.98862 0.63423 0.11008 0.0
O760 O 0.98787 0.64018 0.07169 0.0
Zn761 Zn 0.99702 0.64382 0.09069 0.0
O762 O 0.00755 0.62281 0.09701 0.0
O763 O 0.99546 0.61523 0.11711 0.0
O764 O 0.0136 0.6571 0.09038 0.0
O765 O 0.00798 0.64902 0.113 0.0
O766 O 0.97375 0.6438 0.12214 0.0
O767 O 0.98036 0.65709 0.10247 0.0
C768 C 0.00559 0.61312 0.10743 0.0
C769 C 0.97246 0.65561 0.11437 0.0
C770 C 0.59921 0.76736 0.35462 0.0
C771 C 0.6247 0.72846 0.32665 0.0
O772 O 0.60698 0.75902 0.3634 0.0
Zn773 Zn 0.62179 0.73977 0.36066 0.0
O774 O 0.59941 0.76482 0.34068 0.0
Zn775 Zn 0.61262 0.7481 0.34109 0.0
O776 O 0.59921 0.73128 0.35255 0.0
O777 O 0.61217 0.72484 0.37248 0.0
O778 O 0.61639 0.73902 0.32215 0.0
O779 O 0.62783 0.72743 0.34062 0.0
O780 O 0.64042 0.74675 0.36827 0.0
O781 O 0.6338 0.75826 0.34755 0.0
C782 C 0.60057 0.72337 0.36446 0.0
C783 C 0.64309 0.75653 0.35837 0.0
C784 C 0.90123 0.48915 0.65711 0.0
C785 C 0.92873 0.52773 0.63043 0.0
O786 O 0.89233 0.49752 0.64954 0.0
Zn787 Zn 0.89475 0.51665 0.63455 0.0
O788 O 0.9152 0.49155 0.65651 0.0
Zn789 Zn 0.91455 0.50821 0.64317 0.0
O790 O 0.90353 0.52523 0.65682 0.0
O791 O 0.88321 0.53159 0.6444 0.0
O792 O 0.93347 0.51699 0.63836 0.0
O793 O 0.91462 0.52901 0.62809 0.0
O794 O 0.88667 0.50958 0.6161 0.0
O795 O 0.90741 0.49791 0.62237 0.0
C796 C 0.89155 0.53312 0.65576 0.0
C797 C 0.8964 0.49966 0.61331 0.0
C798 C 0.75686 0.65034 0.86242 0.0
C799 C 0.72364 0.64248 0.9046 0.0
O800 O 0.75873 0.66062 0.87227 0.0
Zn801 Zn 0.74811 0.6665 0.89334 0.0
O802 O 0.74682 0.64053 0.86434 0.0
Zn803 Zn 0.73991 0.64718 0.88342 0.0
O804 O 0.72744 0.66721 0.87809 0.0
O805 O 0.73885 0.6855 0.88998 0.0
O806 O 0.72511 0.63486 0.89273 0.0
O807 O 0.73144 0.65442 0.90631 0.0
O808 O 0.76466 0.6667 0.90666 0.0
O809 O 0.75927 0.64418 0.89814 0.0
C810 C 0.72834 0.68111 0.88155 0.0
C811 C 0.76743 0.65279 0.90628 0.0
C812 C 0.60551 0.51822 0.15612 0.0
C813 C 0.57754 0.47856 0.13188 0.0
O814 O 0.61425 0.50968 0.14856 0.0
Zn815 Zn 0.61147 0.49025 0.13405 0.0
O816 O 0.59153 0.5158 0.15606 0.0
Zn817 Zn 0.5919 0.49868 0.14333 0.0
O818 O 0.60366 0.48209 0.15683 0.0
O819 O 0.62382 0.47594 0.14396 0.0
O820 O 0.57298 0.48936 0.13983 0.0
O821 O 0.59151 0.47751 0.12875 0.0
O822 O 0.61847 0.49683 0.11493 0.0
O823 O 0.59811 0.50869 0.12215 0.0
C824 C 0.6158 0.47451 0.15557 0.0
C825 C 0.6086 0.50672 0.11256 0.0
C826 C 0.77761 0.32695 0.38102 0.0
C827 C 0.73867 0.35541 0.40588 0.0
O828 O 0.77875 0.34089 0.37779 0.0
Zn829 Zn 0.76648 0.36105 0.38352 0.0
O830 O 0.76694 0.32257 0.38925 0.0
Zn831 Zn 0.75785 0.34161 0.39277 0.0
O832 O 0.74787 0.34795 0.37157 0.0
O833 O 0.75949 0.36855 0.36478 0.0
O834 O 0.74076 0.34139 0.40553 0.0
O835 O 0.74735 0.3641 0.39841 0.0
O836 O 0.78142 0.37287 0.39308 0.0
O837 O 0.77454 0.35323 0.40632 0.0
C838 C 0.74963 0.3587 0.36222 0.0
C839 C 0.78258 0.36506 0.40487 0.0
C840 C 0.89221 0.47331 0.84991 0.0
C841 C 0.89886 0.50595 0.89266 0.0
O842 O 0.9045 0.48068 0.8488 0.0
Zn843 Zn 0.91604 0.49748 0.86226 0.0
O844 O 0.88399 0.47506 0.86133 0.0
Zn845 Zn 0.89633 0.48927 0.87133 0.0
O846 O 0.89393 0.50878 0.85683 0.0
O847 O 0.91668 0.51415 0.84899 0.0
O848 O 0.88912 0.49592 0.89034 0.0
O849 O 0.90942 0.50791 0.88315 0.0
O850 O 0.93492 0.48846 0.86663 0.0
O851 O 0.91611 0.4764 0.87694 0.0
C852 C 0.90278 0.51697 0.849 0.0
C853 C 0.93019 0.47758 0.87439 0.0
C854 C 0.7781 0.6795 0.12472 0.0
C855 C 0.73924 0.65184 0.09882 0.0
O856 O 0.77943 0.6654 0.12708 0.0
Zn857 Zn 0.76708 0.64548 0.12088 0.0
O858 O 0.76721 0.68423 0.11697 0.0
Zn859 Zn 0.75839 0.66526 0.1124 0.0
O860 O 0.74855 0.65818 0.13335 0.0
O861 O 0.76019 0.63738 0.13944 0.0
O862 O 0.74127 0.66585 0.09966 0.0
O863 O 0.74798 0.64294 0.10595 0.0
O864 O 0.78197 0.63404 0.11096 0.0
O865 O 0.77527 0.65422 0.09844 0.0
C866 C 0.75037 0.64717 0.14237 0.0
C867 C 0.78328 0.64231 0.09951 0.0
C868 C 0.57748 0.52862 0.37453 0.0
C869 C 0.6057 0.48957 0.34947 0.0
O870 O 0.59145 0.52972 0.37764 0.0
Zn871 Zn 0.61155 0.51742 0.37173 0.0
O872 O 0.57302 0.51796 0.36632 0.0
Zn873 Zn 0.59203 0.50884 0.36266 0.0
O874 O 0.59848 0.49896 0.38388 0.0
O875 O 0.61921 0.51049 0.3904 0.0
O876 O 0.59169 0.49171 0.34994 0.0
O877 O 0.61446 0.49825 0.35685 0.0
O878 O 0.62329 0.53234 0.3621 0.0
O879 O 0.60354 0.52553 0.34901 0.0
C880 C 0.60931 0.50072 0.39313 0.0
C881 C 0.61539 0.53355 0.35038 0.0
C882 C 0.75569 0.35949 0.64351 0.0
C883 C 0.72389 0.36593 0.60006 0.0
O884 O 0.75743 0.34856 0.63435 0.0
Zn885 Zn 0.74788 0.34216 0.61299 0.0
O886 O 0.74617 0.36955 0.64052 0.0
Zn887 Zn 0.73948 0.36194 0.62172 0.0
O888 O 0.72658 0.34204 0.62735 0.0
O889 O 0.7385 0.32335 0.61657 0.0
O890 O 0.72529 0.37413 0.61155 0.0
O891 O 0.73142 0.35372 0.59907 0.0
O892 O 0.76521 0.34152 0.60047 0.0
O893 O 0.75889 0.3644 0.60722 0.0
C894 C 0.72762 0.32802 0.62436 0.0
C895 C 0.76754 0.3555 0.59999 0.0
C896 C 0.65767 0.9016 0.48883 0.0
C897 C 0.63207 0.92865 0.52834 0.0
O898 O 0.64994 0.89266 0.497 0.0
Zn899 Zn 0.6353 0.89484 0.51633 0.0
O900 O 0.65746 0.9155 0.49165 0.0
Zn901 Zn 0.64422 0.91472 0.50841 0.0
O902 O 0.65766 0.90321 0.52516 0.0
O903 O 0.64529 0.88258 0.53064 0.0
O904 O 0.64021 0.93345 0.51778 0.0
O905 O 0.62915 0.91461 0.52919 0.0
O906 O 0.61669 0.88722 0.50932 0.0
O907 O 0.62305 0.90827 0.49823 0.0
C908 C 0.6566 0.89092 0.53251 0.0
C909 C 0.61388 0.89731 0.49978 0.0
C910 C 0.15735 0.60543 0.51728 0.0
C911 C 0.13296 0.57751 0.47772 0.0
O912 O 0.14968 0.61417 0.50885 0.0
Zn913 Zn 0.13506 0.61142 0.48951 0.0
O914 O 0.15741 0.59147 0.51477 0.0
Zn915 Zn 0.14455 0.59185 0.49777 0.0
O916 O 0.15788 0.60374 0.48117 0.0
O917 O 0.14489 0.62386 0.47516 0.0
O918 O 0.14105 0.57295 0.48841 0.0
O919 O 0.12974 0.59147 0.47676 0.0
O920 O 0.11592 0.61824 0.49636 0.0
O921 O 0.12344 0.59788 0.50803 0.0
C922 C 0.15654 0.6159 0.47363 0.0
C923 C 0.11375 0.60831 0.50623 0.0
C924 C 0.64172 0.90651 0.7233 0.0
C925 C 0.64739 0.86366 0.75604 0.0
O926 O 0.65347 0.90791 0.73146 0.0
Zn927 Zn 0.66476 0.89422 0.74829 0.0
O928 O 0.6338 0.8948 0.72447 0.0
Zn929 Zn 0.64533 0.88517 0.7395 0.0
O930 O 0.64222 0.89996 0.75868 0.0
O931 O 0.66493 0.90684 0.76546 0.0
O932 O 0.63757 0.86648 0.74622 0.0
O933 O 0.65822 0.87289 0.75796 0.0
O934 O 0.68387 0.89062 0.73944 0.0
O935 O 0.66558 0.87927 0.72747 0.0
C936 C 0.6509 0.90728 0.76748 0.0
C937 C 0.67953 0.8824 0.72875 0.0
C938 C 0.3499 0.4013 0.0179 0.0
C939 C 0.3759 0.4286 0.97882 0.0
O940 O 0.35706 0.39235 0.00926 0.0
Zn941 Zn 0.37194 0.39465 0.99018 0.0
O942 O 0.3508 0.4153 0.01582 0.0
Zn943 Zn 0.36366 0.4146 0.99872 0.0
O944 O 0.3497 0.40366 0.98183 0.0
O945 O 0.36167 0.38291 0.97576 0.0
O946 O 0.36837 0.43345 0.9898 0.0
O947 O 0.37811 0.41446 0.97751 0.0
O948 O 0.39052 0.38655 0.99713 0.0
O949 O 0.38454 0.40748 0.00857 0.0
C950 C 0.35046 0.39147 0.97422 0.0
C951 C 0.39351 0.39641 0.00685 0.0
C952 C 0.32794 0.62452 0.72826 0.0
C953 C 0.35535 0.59896 0.76754 0.0
O954 O 0.34202 0.62704 0.72708 0.0
Zn955 Zn 0.36182 0.62137 0.73992 0.0
O956 O 0.32318 0.61678 0.73914 0.0
Zn957 Zn 0.34206 0.61235 0.74813 0.0
O958 O 0.34872 0.63322 0.75854 0.0
O959 O 0.36905 0.64037 0.7466 0.0
O960 O 0.34144 0.59903 0.76477 0.0
O961 O 0.36421 0.60678 0.75936 0.0
O962 O 0.37409 0.61134 0.72565 0.0
O963 O 0.35351 0.59891 0.73128 0.0
C964 C 0.35929 0.64273 0.7566 0.0
C965 C 0.36578 0.59998 0.72387 0.0
C966 C 0.84916 0.10487 0.98728 0.0
C967 C 0.87551 0.07801 0.02646 0.0
O968 O 0.85684 0.11386 0.99543 0.0
Zn969 Zn 0.87166 0.11181 0.01461 0.0
O970 O 0.84958 0.09094 0.98999 0.0
Zn971 Zn 0.863 0.09183 0.00661 0.0
O972 O 0.84947 0.10315 0.02356 0.0
O973 O 0.8616 0.12398 0.02891 0.0
O974 O 0.86771 0.07309 0.01569 0.0
O975 O 0.87787 0.09214 0.02753 0.0
O976 O 0.89023 0.11959 0.00742 0.0
O977 O 0.88384 0.09866 0.99618 0.0
C978 C 0.8504 0.1155 0.03086 0.0
C979 C 0.89296 0.10964 0.99771 0.0
C980 C 0.64723 0.1427 0.749 0.0
C981 C 0.64041 0.09992 0.78159 0.0
O982 O 0.65812 0.13346 0.74744 0.0
Zn983 Zn 0.66442 0.11223 0.75763 0.0
O984 O 0.63713 0.13994 0.75856 0.0
Zn985 Zn 0.64459 0.12126 0.76552 0.0
O986 O 0.66434 0.12719 0.77848 0.0
O987 O 0.68313 0.11606 0.76706 0.0
O988 O 0.63217 0.1113 0.77971 0.0
O989 O 0.65274 0.09879 0.7743 0.0
O990 O 0.66522 0.09904 0.74085 0.0
O991 O 0.64241 0.10674 0.7461 0.0
C992 C 0.67836 0.12417 0.77765 0.0
C993 C 0.65134 0.09898 0.73795 0.0
C994 C 0.85816 0.86408 0.24855 0.0
C995 C 0.86484 0.90677 0.28128 0.0
O996 O 0.84731 0.87335 0.24692 0.0
Zn997 Zn 0.84101 0.89458 0.25709 0.0
O998 O 0.86819 0.86681 0.25818 0.0
Zn999 Zn 0.86074 0.88551 0.26513 0.0
O1000 O 0.84084 0.87968 0.27796 0.0
O1001 O 0.8222 0.89086 0.26634 0.0
O1002 O 0.87307 0.89536 0.27946 0.0
O1003 O 0.85259 0.90795 0.27389 0.0
O1004 O 0.84039 0.90783 0.24038 0.0
O1005 O 0.86316 0.90017 0.24582 0.0
C1006 C 0.82684 0.88278 0.27701 0.0
C1007 C 0.8543 0.90797 0.23764 0.0
C1008 C 0.51788 0.34938 0.10482 0.0
C1009 C 0.47881 0.3751 0.07733 0.0
O1010 O 0.51515 0.34951 0.09091 0.0
Zn1011 Zn 0.49868 0.363 0.0915 0.0
O1012 O 0.50977 0.3573 0.11367 0.0
Zn1013 Zn 0.49051 0.37212 0.1112 0.0
O1014 O 0.47617 0.36227 0.12355 0.0
O1015 O 0.4817 0.34973 0.10301 0.0
O1016 O 0.47763 0.37769 0.0914 0.0
O1017 O 0.48971 0.36738 0.0726 0.0
O1018 O 0.50932 0.38378 0.09809 0.0
O1019 O 0.49736 0.39111 0.11834 0.0
C1020 C 0.47431 0.35089 0.11527 0.0
C1021 C 0.50742 0.39333 0.10862 0.0
C1022 C 0.38217 0.72808 0.82655 0.0
C1023 C 0.4062 0.76724 0.85535 0.0
O1024 O 0.39036 0.73882 0.82225 0.0
Zn1025 Zn 0.39363 0.74791 0.84137 0.0
O1026 O 0.37883 0.72689 0.84044 0.0
Zn1027 Zn 0.38407 0.73911 0.86064 0.0
O1028 O 0.36489 0.74566 0.86759 0.0
O1029 O 0.37239 0.75782 0.84752 0.0
O1030 O 0.39863 0.75853 0.86392 0.0
O1031 O 0.40624 0.76505 0.84134 0.0
O1032 O 0.40714 0.73135 0.85312 0.0
O1033 O 0.39373 0.72423 0.87254 0.0
C1034 C 0.36267 0.75572 0.85786 0.0
C1035 C 0.40564 0.72324 0.86488 0.0
C1036 C 0.98934 0.65596 0.60437 0.0
C1037 C 0.02877 0.63078 0.57691 0.0
O1038 O 0.99209 0.65584 0.59046 0.0
Zn1039 Zn 0.00876 0.64253 0.59108 0.0
O1040 O 0.99749 0.6481 0.61321 0.0
Zn1041 Zn 0.01677 0.63336 0.61077 0.0
O1042 O 0.03107 0.64318 0.62321 0.0
O1043 O 0.02548 0.65586 0.60279 0.0
O1044 O 0.02969 0.62764 0.59089 0.0
O1045 O 0.01807 0.63884 0.57229 0.0
O1046 O 0.99842 0.62137 0.59733 0.0
O1047 O 0.00971 0.61465 0.61813 0.0
C1048 C 0.03285 0.65465 0.61506 0.0
C1049 C 1.00001 0.61205 0.60814 0.0
C1050 C 0.12404 0.27764 0.3269 0.0
C1051 C 0.09839 0.23888 0.35495 0.0
O1052 O 0.11566 0.26714 0.32242 0.0
Zn1053 Zn 0.11195 0.25796 0.34135 0.0
O1054 O 0.1273 0.27858 0.34085 0.0
Zn1055 Zn 0.12139 0.26615 0.36086 0.0
O1056 O 0.14003 0.25888 0.36822 0.0
O1057 O 0.13301 0.24746 0.34758 0.0
O1058 O 0.10634 0.24709 0.36367 0.0
O1059 O 0.09852 0.24143 0.341 0.0
O1060 O 0.09883 0.27485 0.35304 0.0
O1061 O 0.11201 0.28112 0.37289 0.0
C1062 C 0.14243 0.24904 0.35831 0.0
C1063 C 0.10034 0.28268 0.36498 0.0
C1064 C 0.51713 0.65694 0.40155 0.0
C1065 C 0.47821 0.63186 0.42974 0.0
O1066 O 0.51446 0.65707 0.41548 0.0
Zn1067 Zn 0.49793 0.64376 0.41517 0.0
O1068 O 0.50894 0.64892 0.39287 0.0
Zn1069 Zn 0.48961 0.6341 0.39579 0.0
O1070 O 0.47473 0.64363 0.38367 0.0
O1071 O 0.48124 0.65693 0.40336 0.0
O1072 O 0.4772 0.62856 0.41582 0.0
O1073 O 0.48879 0.64018 0.43416 0.0
O1074 O 0.50852 0.62276 0.40898 0.0
O1075 O 0.49653 0.61506 0.38887 0.0
C1076 C 0.47337 0.65542 0.39145 0.0
C1077 C 0.50663 0.61302 0.3986 0.0
C1078 C 0.12353 0.72833 0.17981 0.0
C1079 C 0.09833 0.76736 0.15176 0.0
O1080 O 0.1152 0.73889 0.18427 0.0
Zn1081 Zn 0.11157 0.74801 0.16531 0.0
O1082 O 0.12674 0.72732 0.16585 0.0
Zn1083 Zn 0.12084 0.73969 0.14579 0.0
O1084 O 0.13953 0.74662 0.13828 0.0
O1085 O 0.13282 0.75814 0.15897 0.0
O1086 O 0.10611 0.75902 0.14302 0.0
O1087 O 0.09842 0.76478 0.1657 0.0
O1088 O 0.09816 0.73126 0.15375 0.0
O1089 O 0.11123 0.72481 0.13389 0.0
C1090 C 0.14216 0.7564 0.14819 0.0
C1091 C 0.09957 0.72336 0.14183 0.0
C1092 C 0.98982 0.34938 0.90121 0.0
C1093 C 0.02918 0.37467 0.92863 0.0
O1094 O 0.99207 0.35 0.91519 0.0
Zn1095 Zn 0.00924 0.36273 0.91451 0.0
O1096 O 0.99842 0.35664 0.89229 0.0
Zn1097 Zn 0.01764 0.37138 0.8947 0.0
O1098 O 0.03205 0.36125 0.88274 0.0
O1099 O 0.02591 0.34888 0.90321 0.0
O1100 O 0.03027 0.37749 0.91459 0.0
O1101 O 0.01843 0.36672 0.93331 0.0
O1102 O 0.99939 0.38387 0.90778 0.0
O1103 O 0.01074 0.38999 0.88683 0.0
C1104 C 0.03351 0.34985 0.89105 0.0
C1105 C 1.00108 0.39293 0.89677 0.0
C1106 C 0.38173 0.27918 0.67939 0.0
C1107 C 0.40675 0.23943 0.65225 0.0
O1108 O 0.3897 0.26847 0.68413 0.0
Zn1109 Zn 0.39347 0.25907 0.66539 0.0
O1110 O 0.37874 0.28009 0.66537 0.0
Zn1111 Zn 0.38457 0.26712 0.64558 0.0
O1112 O 0.36586 0.2603 0.63805 0.0
O1113 O 0.37219 0.24907 0.65901 0.0
O1114 O 0.39907 0.24767 0.64334 0.0
O1115 O 0.40655 0.2422 0.66615 0.0
O1116 O 0.40707 0.27566 0.6538 0.0
O1117 O 0.39465 0.28131 0.63326 0.0
C1118 C 0.36299 0.25074 0.64811 0.0
C1119 C 0.40604 0.28302 0.64152 0.0
C1120 C 0.10856 0.50699 0.39314 0.0
C1121 C 0.11426 0.47323 0.35104 0.0
O1122 O 0.11806 0.49671 0.39098 0.0
Zn1123 Zn 0.11065 0.48976 0.37215 0.0
O1124 O 0.09801 0.50898 0.38363 0.0
Zn1125 Zn 0.09108 0.49827 0.363 0.0
O1126 O 0.07202 0.48953 0.3676 0.0
O1127 O 0.0907 0.47744 0.37808 0.0
O1128 O 0.10235 0.48116 0.34971 0.0
O1129 O 0.12239 0.47475 0.36256 0.0
O1130 O 0.11344 0.50887 0.35707 0.0
O1131 O 0.09072 0.51469 0.34945 0.0
C1132 C 0.07664 0.47873 0.37553 0.0
C1133 C 0.1047 0.51712 0.34918 0.0
C1134 C 0.23815 0.35442 0.10031 0.0
C1135 C 0.27789 0.3275 0.12566 0.0
O1136 O 0.24048 0.34045 0.10107 0.0
Zn1137 Zn 0.25774 0.34138 0.11369 0.0
O1138 O 0.24676 0.36346 0.10741 0.0
Zn1139 Zn 0.26612 0.36135 0.122 0.0
O1140 O 0.28022 0.37341 0.11169 0.0
O1141 O 0.27434 0.3527 0.09957 0.0
O1142 O 0.2791 0.34164 0.12794 0.0
O1143 O 0.26689 0.32262 0.11818 0.0
O1144 O 0.248 0.3483 0.13474 0.0
O1145 O 0.25935 0.3693 0.14066 0.0
C1146 C 0.28175 0.36501 0.10037 0.0
C1147 C 0.24973 0.35935 0.14372 0.0
C1148 C 0.39202 0.5331 0.85165 0.0
C1149 C 0.39757 0.49965 0.89405 0.0
O1150 O 0.3838 0.53153 0.8631 0.0
Zn1151 Zn 0.39559 0.51672 0.87288 0.0
O1152 O 0.40406 0.52531 0.8505 0.0
Zn1153 Zn 0.41538 0.50841 0.86406 0.0
O1154 O 0.41605 0.49178 0.85069 0.0
O1155 O 0.3932 0.49757 0.85792 0.0
O1156 O 0.40849 0.49799 0.88487 0.0
O1157 O 0.38778 0.50956 0.89143 0.0
O1158 O 0.41541 0.52928 0.87905 0.0
O1159 O 0.43427 0.51738 0.86866 0.0
C1160 C 0.40209 0.48927 0.85025 0.0
C1161 C 0.4295 0.52813 0.87656 0.0
C1162 C 0.26772 0.65192 0.60001 0.0
C1163 C 0.22846 0.67872 0.62622 0.0
O1164 O 0.26503 0.66585 0.60048 0.0
Zn1165 Zn 0.24833 0.66489 0.61378 0.0
O1166 O 0.25949 0.6429 0.60758 0.0
Zn1167 Zn 0.24021 0.64491 0.62229 0.0
O1168 O 0.22597 0.63281 0.6121 0.0
O1169 O 0.23147 0.65367 0.60007 0.0
O1170 O 0.22731 0.66458 0.62851 0.0
O1171 O 0.23931 0.68363 0.61853 0.0
O1172 O 0.25865 0.65788 0.6346 0.0
O1173 O 0.24723 0.63698 0.64082 0.0
C1174 C 0.22414 0.64133 0.60091 0.0
C1175 C 0.25701 0.64684 0.64364 0.0
C1176 C 0.11411 0.53263 0.15621 0.0
C1177 C 0.10647 0.49961 0.1139 0.0
O1178 O 0.12212 0.53077 0.14467 0.0
Zn1179 Zn 0.10954 0.51644 0.13501 0.0
O1180 O 0.10186 0.52528 0.15762 0.0
Zn1181 Zn 0.08994 0.50852 0.1446 0.0
O1182 O 0.08947 0.49196 0.15804 0.0
O1183 O 0.11209 0.49707 0.14969 0.0
O1184 O 0.09601 0.49786 0.12358 0.0
O1185 O 0.11638 0.50951 0.11603 0.0
O1186 O 0.08972 0.5293 0.12943 0.0
O1187 O 0.0711 0.51795 0.14088 0.0
C1188 C 0.10335 0.48903 0.15779 0.0
C1189 C 0.07574 0.52849 0.13263 0.0
C1190 C 0.22312 0.36583 0.90598 0.0
C1191 C 0.25562 0.35999 0.86291 0.0
O1192 O 0.22416 0.37372 0.89424 0.0
Zn1193 Zn 0.23914 0.36214 0.88449 0.0
O1194 O 0.2313 0.35407 0.90731 0.0
Zn1195 Zn 0.24801 0.34274 0.89354 0.0
O1196 O 0.26523 0.34259 0.90604 0.0
O1197 O 0.25842 0.3653 0.89916 0.0
O1198 O 0.25757 0.3492 0.87218 0.0
O1199 O 0.2458 0.36982 0.86571 0.0
O1200 O 0.22708 0.34183 0.87876 0.0
O1201 O 0.23919 0.32362 0.8901 0.0
C1202 C 0.26725 0.35662 0.90644 0.0
C1203 C 0.22842 0.32789 0.88195 0.0
C1204 C 0.42924 0.47827 0.63008 0.0
C1205 C 0.40145 0.51709 0.65589 0.0
O1206 O 0.43389 0.4892 0.6378 0.0
Zn1207 Zn 0.4149 0.49792 0.64236 0.0
O1208 O 0.41514 0.47684 0.62774 0.0
Zn1209 Zn 0.39516 0.48912 0.63394 0.0
O1210 O 0.387 0.49592 0.61537 0.0
O1211 O 0.40775 0.50765 0.6214 0.0
O1212 O 0.39256 0.5083 0.64881 0.0
O1213 O 0.41546 0.5151 0.65501 0.0
O1214 O 0.40393 0.4811 0.65643 0.0
O1215 O 0.38379 0.47423 0.64395 0.0
C1216 C 0.39674 0.50577 0.6124 0.0
C1217 C 0.39205 0.47305 0.65542 0.0
C1218 C 0.28356 0.64253 0.40533 0.0
C1219 C 0.2508 0.6472 0.36235 0.0
O1220 O 0.28227 0.63421 0.39391 0.0
Zn1221 Zn 0.26744 0.64563 0.38391 0.0
O1222 O 0.27558 0.65447 0.40631 0.0
Zn1223 Zn 0.25876 0.66547 0.39223 0.0
O1224 O 0.24159 0.66616 0.40495 0.0
O1225 O 0.2483 0.6432 0.39886 0.0
O1226 O 0.24898 0.65827 0.3713 0.0
O1227 O 0.26059 0.63741 0.36539 0.0
O1228 O 0.27989 0.66549 0.37763 0.0
O1229 O 0.26765 0.68439 0.38756 0.0
C1230 C 0.23956 0.65215 0.40591 0.0
C1231 C 0.27857 0.67961 0.37989 0.0
C1232 C 0.37393 0.07775 0.47815 0.0
C1233 C 0.34884 0.1061 0.51704 0.0
O1234 O 0.36548 0.07336 0.48865 0.0
Zn1235 Zn 0.36197 0.09239 0.4978 0.0
O1236 O 0.37728 0.09167 0.47717 0.0
Zn1237 Zn 0.3717 0.11176 0.48952 0.0
O1238 O 0.39072 0.11865 0.49637 0.0
O1239 O 0.38304 0.09849 0.50832 0.0
O1240 O 0.3569 0.11475 0.50885 0.0
O1241 O 0.34865 0.09217 0.51436 0.0
O1242 O 0.34889 0.10426 0.48108 0.0
O1243 O 0.36229 0.1239 0.47462 0.0
C1244 C 0.39279 0.10886 0.50641 0.0
C1245 C 0.35049 0.11617 0.47321 0.0
C1246 C 0.87446 0.42964 0.52777 0.0
C1247 C 0.84863 0.4024 0.48853 0.0
O1248 O 0.86666 0.43447 0.51698 0.0
Zn1249 Zn 0.86222 0.41564 0.50782 0.0
O1250 O 0.87707 0.41555 0.52878 0.0
Zn1251 Zn 0.87145 0.39587 0.51578 0.0
O1252 O 0.89041 0.38886 0.50875 0.0
O1253 O 0.88294 0.40919 0.49701 0.0
O1254 O 0.85662 0.39354 0.49655 0.0
O1255 O 0.84865 0.41631 0.49138 0.0
O1256 O 0.84907 0.40395 0.52475 0.0
O1257 O 0.86166 0.38338 0.53005 0.0
C1258 C 0.89254 0.39867 0.49875 0.0
C1259 C 0.85028 0.39162 0.53204 0.0
C1260 C 0.32708 0.1248 0.27706 0.0
C1261 C 0.35462 0.09878 0.23814 0.0
O1262 O 0.32234 0.11695 0.26626 0.0
Zn1263 Zn 0.34124 0.11247 0.25728 0.0
O1264 O 0.34115 0.1274 0.27818 0.0
Zn1265 Zn 0.36094 0.12171 0.26536 0.0
O1266 O 0.36804 0.14065 0.25831 0.0
O1267 O 0.34781 0.13316 0.24643 0.0
O1268 O 0.36342 0.10679 0.24619 0.0
O1269 O 0.3407 0.09883 0.24089 0.0
O1270 O 0.35277 0.09933 0.27435 0.0
O1271 O 0.37328 0.11195 0.27978 0.0
C1272 C 0.35833 0.14276 0.24822 0.0
C1273 C 0.36503 0.10057 0.28173 0.0
C1274 C 0.63293 0.5764 0.02744 0.0
C1275 C 0.65767 0.60407 0.98786 0.0
O1276 O 0.64117 0.5718 0.01688 0.0
Zn1277 Zn 0.6447 0.59064 0.00745 0.0
O1278 O 0.62966 0.59036 0.02827 0.0
Zn1279 Zn 0.63508 0.61022 0.0154 0.0
O1280 O 0.61599 0.61695 0.00861 0.0
O1281 O 0.62356 0.59657 0.99697 0.0
O1282 O 0.6496 0.61279 0.99594 0.0
O1283 O 0.65801 0.59019 0.9908 0.0
O1284 O 0.65779 0.60263 0.02409 0.0
O1285 O 0.64479 0.62286 0.02966 0.0
C1286 C 0.61383 0.60698 0.99878 0.0
C1287 C 0.65639 0.61489 0.03144 0.0
C1288 C 0.67842 0.38052 0.27771 0.0
C1289 C 0.65155 0.40645 0.23836 0.0
O1290 O 0.68332 0.38806 0.26677 0.0
Zn1291 Zn 0.66457 0.39278 0.25775 0.0
O1292 O 0.66427 0.37833 0.27897 0.0
Zn1293 Zn 0.64455 0.38454 0.26613 0.0
O1294 O 0.63647 0.36594 0.25915 0.0
O1295 O 0.65751 0.37185 0.24788 0.0
O1296 O 0.64249 0.39936 0.24695 0.0
O1297 O 0.66553 0.40553 0.2406 0.0
O1298 O 0.65347 0.40686 0.27449 0.0
O1299 O 0.63268 0.39491 0.28041 0.0
C1300 C 0.64641 0.3629 0.24952 0.0
C1301 C 0.64121 0.40614 0.28197 0.0
C1302 C 0.13151 0.92809 0.97804 0.0
C1303 C 0.15747 0.90117 0.01737 0.0
O1304 O 0.13922 0.93299 0.98887 0.0
Zn1305 Zn 0.14384 0.91422 0.99788 0.0
O1306 O 0.12917 0.91395 0.9769 0.0
Zn1307 Zn 0.13532 0.89423 0.98978 0.0
O1308 O 0.11671 0.88637 0.9967 0.0
O1309 O 0.12285 0.90735 0.00798 0.0
O1310 O 0.14991 0.89217 0.00912 0.0
O1311 O 0.15705 0.91509 0.01465 0.0
O1312 O 0.15753 0.90305 0.98098 0.0
O1313 O 0.14554 0.88218 0.97552 0.0
C1314 C 0.11379 0.89634 0.00633 0.0
C1315 C 0.15669 0.89073 0.97363 0.0
C1316 C 0.36441 0.90608 0.22425 0.0
C1317 C 0.35693 0.86393 0.25764 0.0
O1318 O 0.37203 0.8942 0.22568 0.0
Zn1319 Zn 0.3599 0.88497 0.24068 0.0
O1320 O 0.35257 0.90783 0.2322 0.0
Zn1321 Zn 0.3407 0.89489 0.24907 0.0
O1322 O 0.34065 0.90825 0.26554 0.0
O1323 O 0.36315 0.89984 0.25992 0.0
O1324 O 0.34666 0.87378 0.25962 0.0
O1325 O 0.36665 0.86591 0.24752 0.0
O1326 O 0.33969 0.87961 0.22845 0.0
O1327 O 0.32158 0.89157 0.24008 0.0
C1328 C 0.3546 0.90799 0.26813 0.0
C1329 C 0.32582 0.88311 0.22954 0.0
C1330 C 0.1407 0.10004 0.72369 0.0
C1331 C 0.1472 0.14316 0.75588 0.0
O1332 O 0.13254 0.11155 0.72517 0.0
Zn1333 Zn 0.14467 0.1215 0.73954 0.0
O1334 O 0.15285 0.09889 0.73128 0.0
Zn1335 Zn 0.16435 0.11256 0.74795 0.0
O1336 O 0.16479 0.0999 0.76515 0.0
O1337 O 0.142 0.10686 0.75879 0.0
O1338 O 0.15806 0.13392 0.75761 0.0
O1339 O 0.13714 0.14029 0.74633 0.0
O1340 O 0.1647 0.12716 0.72687 0.0
O1341 O 0.18325 0.1161 0.73875 0.0
C1342 C 0.1508 0.09949 0.76741 0.0
C1343 C 0.17869 0.12408 0.72796 0.0
H1344 H 0.03663 0.18277 0.40578 0.0
H1345 H 0.05114 0.15538 0.36872 0.0
H1346 H 0.05295 0.20295 0.39717 0.0
H1347 H 0.06755 0.17534 0.36034 0.0
H1348 H 0.08046 0.21977 0.33937 0.0
H1349 H 0.06482 0.19979 0.34906 0.0
H1350 H 0.0794 0.21001 0.39394 0.0
H1351 H 0.09495 0.23031 0.38423 0.0
C1352 C 0.04337 0.181 0.39588 0.0
C1353 C 0.04249 0.16749 0.38789 0.0
C1354 C 0.05278 0.19254 0.39099 0.0
C1355 C 0.06148 0.1908 0.37801 0.0
C1356 C 0.0608 0.17716 0.37023 0.0
C1357 C 0.05143 0.16567 0.37509 0.0
C1358 C 0.08038 0.21778 0.35131 0.0
C1359 C 0.08901 0.22663 0.36101 0.0
C1360 C 0.07146 0.20625 0.35686 0.0
C1361 C 0.07092 0.20323 0.37227 0.0
C1362 C 0.07948 0.21213 0.38202 0.0
C1363 C 0.08845 0.22369 0.37644 0.0
H1364 H 0.04416 0.84397 0.59134 0.0
H1365 H 0.01844 0.83442 0.63099 0.0
H1366 H 0.06449 0.82856 0.60067 0.0
H1367 H 0.03825 0.81798 0.63995 0.0
H1368 H 0.08121 0.79791 0.65814 0.0
H1369 H 0.0617 0.81515 0.64999 0.0
H1370 H 0.07193 0.80449 0.6039 0.0
H1371 H 0.09203 0.78828 0.61216 0.0
C1372 C 0.04283 0.8384 0.60201 0.0
C1373 C 0.02975 0.84034 0.61043 0.0
C1374 C 0.05444 0.82942 0.60734 0.0
C1375 C 0.05307 0.82174 0.62103 0.0
C1376 C 0.03993 0.82383 0.62949 0.0
C1377 C 0.02849 0.83318 0.62433 0.0
C1378 C 0.07926 0.79937 0.64628 0.0
C1379 C 0.08818 0.79188 0.63578 0.0
C1380 C 0.068 0.80918 0.64157 0.0
C1381 C 0.06515 0.8114 0.62622 0.0
C1382 C 0.07396 0.80354 0.61579 0.0
C1383 C 0.08545 0.7941 0.6205 0.0
H1384 H 0.42103 0.7683 0.88201 0.0
H1385 H 0.411 0.79436 0.84272 0.0
H1386 H 0.43716 0.7883 0.8912 0.0
H1387 H 0.42606 0.81482 0.85226 0.0
H1388 H 0.4663 0.84245 0.86351 0.0
H1389 H 0.45012 0.82232 0.85529 0.0
H1390 H 0.4399 0.81177 0.90141 0.0
H1391 H 0.4571 0.83134 0.90952 0.0
C1392 C 0.42208 0.77846 0.8755 0.0
C1393 C 0.41492 0.77976 0.86161 0.0
C1394 C 0.43126 0.79 0.88078 0.0
C1395 C 0.43315 0.80325 0.87244 0.0
C1396 C 0.42538 0.80468 0.85882 0.0
C1397 C 0.41659 0.79299 0.85337 0.0
C1398 C 0.46058 0.83581 0.87188 0.0
C1399 C 0.46291 0.83847 0.88714 0.0
C1400 C 0.45115 0.8243 0.86718 0.0
C1401 C 0.44343 0.81539 0.87763 0.0
C1402 C 0.44576 0.81816 0.89297 0.0
C1403 C 0.45554 0.82946 0.89767 0.0
H1404 H 0.46235 0.16203 0.09078 0.0
H1405 H 0.48785 0.1715 0.13057 0.0
H1406 H 0.44208 0.17764 0.09992 0.0
H1407 H 0.46812 0.18811 0.13935 0.0
H1408 H 0.42513 0.20809 0.15748 0.0
H1409 H 0.44468 0.19091 0.14932 0.0
H1410 H 0.43451 0.20165 0.10323 0.0
H1411 H 0.41436 0.21781 0.11151 0.0
C1412 C 0.46365 0.16763 0.10144 0.0
C1413 C 0.47664 0.16559 0.10996 0.0
C1414 C 0.45208 0.17673 0.10666 0.0
C1415 C 0.45339 0.1844 0.12036 0.0
C1416 C 0.46647 0.18226 0.12889 0.0
C1417 C 0.47787 0.17281 0.12383 0.0
C1418 C 0.4271 0.20667 0.14562 0.0
C1419 C 0.41819 0.21417 0.13512 0.0
C1420 C 0.43839 0.1969 0.14089 0.0
C1421 C 0.44128 0.19472 0.12554 0.0
C1422 C 0.43246 0.20258 0.11511 0.0
C1423 C 0.42094 0.21199 0.11984 0.0
H1424 H 0.05162 0.85144 0.13837 0.0
H1425 H 0.03764 0.82433 0.10091 0.0
H1426 H 0.06802 0.83142 0.14674 0.0
H1427 H 0.05387 0.80413 0.1095 0.0
H1428 H 0.09527 0.77628 0.12255 0.0
H1429 H 0.0801 0.79689 0.11292 0.0
H1430 H 0.06532 0.80691 0.15778 0.0
H1431 H 0.08061 0.78663 0.1674 0.0
C1432 C 0.05203 0.8412 0.13191 0.0
C1433 C 0.04324 0.83947 0.119 0.0
C1434 C 0.06139 0.82968 0.13676 0.0
C1435 C 0.06218 0.81611 0.12887 0.0
C1436 C 0.05363 0.81448 0.11577 0.0
C1437 C 0.04426 0.82604 0.1109 0.0
C1438 C 0.08881 0.78292 0.13034 0.0
C1439 C 0.0892 0.77982 0.14575 0.0
C1440 C 0.08005 0.79467 0.12482 0.0
C1441 C 0.07154 0.8036 0.13458 0.0
C1442 C 0.07193 0.80044 0.14997 0.0
C1443 C 0.08065 0.78873 0.15548 0.0
H1444 H 0.43337 0.78841 0.35142 0.0
H1445 H 0.4063 0.80221 0.38899 0.0
H1446 H 0.45342 0.80494 0.35985 0.0
H1447 H 0.42614 0.81889 0.39719 0.0
H1448 H 0.47072 0.83234 0.41755 0.0
H1449 H 0.45069 0.81665 0.40811 0.0
H1450 H 0.46033 0.83128 0.3631 0.0
H1451 H 0.48071 0.84686 0.37256 0.0
C1452 C 0.43165 0.79505 0.3614 0.0
C1453 C 0.41827 0.7939 0.36958 0.0
C1454 C 0.44311 0.80458 0.36619 0.0
C1455 C 0.44143 0.81317 0.37925 0.0
C1456 C 0.42792 0.81223 0.38723 0.0
C1457 C 0.4165 0.80271 0.38247 0.0
C1458 C 0.46859 0.83227 0.40563 0.0
C1459 C 0.47733 0.8409 0.39582 0.0
C1460 C 0.45702 0.82331 0.40022 0.0
C1461 C 0.45383 0.82276 0.38485 0.0
C1462 C 0.46258 0.83135 0.375 0.0
C1463 C 0.4742 0.84034 0.38043 0.0
H1464 H 0.41029 0.23053 0.62313 0.0
H1465 H 0.42424 0.22017 0.6682 0.0
H1466 H 0.42583 0.21014 0.61369 0.0
H1467 H 0.43993 0.20007 0.65876 0.0
H1468 H 0.45424 0.1557 0.63902 0.0
H1469 H 0.43772 0.17558 0.64747 0.0
H1470 H 0.45223 0.20336 0.61072 0.0
H1471 H 0.46861 0.1833 0.60205 0.0
C1472 C 0.41666 0.22392 0.63102 0.0
C1473 C 0.41599 0.22696 0.64642 0.0
C1474 C 0.42564 0.2123 0.6256 0.0
C1475 C 0.4341 0.20345 0.63547 0.0
C1476 C 0.43338 0.20651 0.65086 0.0
C1477 C 0.42444 0.2181 0.65627 0.0
C1478 C 0.4539 0.16602 0.63269 0.0
C1479 C 0.46281 0.16792 0.61988 0.0
C1480 C 0.44447 0.17746 0.63759 0.0
C1481 C 0.44371 0.1911 0.62983 0.0
C1482 C 0.45244 0.19294 0.61688 0.0
C1483 C 0.46189 0.18147 0.61196 0.0
H1484 H 0.0749 0.21854 0.8514 0.0
H1485 H 0.10209 0.20407 0.88863 0.0
H1486 H 0.05469 0.20225 0.85991 0.0
H1487 H 0.08207 0.18765 0.89691 0.0
H1488 H 0.03736 0.17417 0.91728 0.0
H1489 H 0.0575 0.18992 0.90801 0.0
H1490 H 0.04778 0.17591 0.86284 0.0
H1491 H 0.02737 0.16031 0.87209 0.0
C1492 C 0.07662 0.21181 0.86133 0.0
C1493 C 0.0901 0.21267 0.86937 0.0
C1494 C 0.06506 0.20242 0.86616 0.0
C1495 C 0.06673 0.1937 0.87914 0.0
C1496 C 0.08031 0.1944 0.88702 0.0
C1497 C 0.09184 0.20377 0.8822 0.0
C1498 C 0.0395 0.17441 0.90536 0.0
C1499 C 0.03075 0.16595 0.89544 0.0
C1500 C 0.05112 0.18339 0.90006 0.0
C1501 C 0.0543 0.18414 0.88468 0.0
C1502 C 0.04553 0.1757 0.87473 0.0
C1503 C 0.03389 0.16669 0.88005 0.0
H1504 H 0.40549 0.03724 0.18196 0.0
H1505 H 0.36784 0.05086 0.15491 0.0
H1506 H 0.39691 0.05368 0.20203 0.0
H1507 H 0.3595 0.06742 0.17477 0.0
H1508 H 0.38379 0.09567 0.22914 0.0
H1509 H 0.39341 0.0801 0.20884 0.0
H1510 H 0.34856 0.06488 0.19937 0.0
H1511 H 0.33895 0.08056 0.21936 0.0
C1512 C 0.39547 0.04382 0.18024 0.0
C1513 C 0.3873 0.04265 0.16686 0.0
C1514 C 0.3906 0.0533 0.19171 0.0
C1515 C 0.37746 0.06178 0.19005 0.0
C1516 C 0.36951 0.06083 0.17653 0.0
C1517 C 0.37435 0.05139 0.1651 0.0
C1518 C 0.37599 0.08902 0.22269 0.0
C1519 C 0.36059 0.08941 0.22585 0.0
C1520 C 0.38152 0.08004 0.21112 0.0
C1521 C 0.37175 0.07129 0.20244 0.0
C1522 C 0.35637 0.07167 0.20566 0.0
C1523 C 0.35086 0.08061 0.2172 0.0
H1524 H 0.17125 0.13281 0.48717 0.0
H1525 H 0.16182 0.09278 0.462 0.0
H1526 H 0.18757 0.14162 0.46718 0.0
H1527 H 0.17712 0.10192 0.44152 0.0
H1528 H 0.21743 0.11306 0.41394 0.0
H1529 H 0.20124 0.1051 0.43416 0.0
H1530 H 0.19033 0.15134 0.44351 0.0
H1531 H 0.20754 0.15922 0.42384 0.0
C1532 C 0.17249 0.12603 0.47721 0.0
C1533 C 0.1654 0.11206 0.47616 0.0
C1534 C 0.18177 0.1311 0.46567 0.0
C1535 C 0.18388 0.12247 0.45265 0.0
C1536 C 0.17625 0.10873 0.45148 0.0
C1537 C 0.16733 0.1035 0.46317 0.0
C1538 C 0.21156 0.12151 0.42034 0.0
C1539 C 0.2137 0.13675 0.41731 0.0
C1540 C 0.20213 0.11696 0.4319 0.0
C1541 C 0.19421 0.12752 0.44049 0.0
C1542 C 0.19635 0.14283 0.43736 0.0
C1543 C 0.20614 0.14739 0.42601 0.0
H1544 H 0.14295 0.96753 0.66217 0.0
H1545 H 0.09712 0.95787 0.67362 0.0
H1546 H 0.1515 0.95136 0.68218 0.0
H1547 H 0.10553 0.94064 0.69301 0.0
H1548 H 0.12496 0.92144 0.73605 0.0
H1549 H 0.11574 0.93776 0.71627 0.0
H1550 H 0.15501 0.92749 0.68987 0.0
H1551 H 0.16459 0.91225 0.71019 0.0
C1552 C 0.1347 0.96171 0.66886 0.0
C1553 C 0.11939 0.96392 0.66635 0.0
C1554 C 0.13958 0.95228 0.6803 0.0
C1555 C 0.12927 0.94443 0.68928 0.0
C1556 C 0.11388 0.94662 0.68661 0.0
C1557 C 0.10901 0.95641 0.67541 0.0
C1558 C 0.13155 0.92272 0.72597 0.0
C1559 C 0.14552 0.91572 0.72467 0.0
C1560 C 0.12624 0.93201 0.71454 0.0
C1561 C 0.13462 0.93416 0.70136 0.0
C1562 C 0.14838 0.9266 0.69995 0.0
C1563 C 0.15386 0.91771 0.71155 0.0
H1564 H 0.28665 0.85149 0.93153 0.0
H1565 H 0.30154 0.88862 0.90441 0.0
H1566 H 0.30263 0.86005 0.95193 0.0
H1567 H 0.31767 0.89697 0.92465 0.0
H1568 H 0.34413 0.87205 0.9798 0.0
H1569 H 0.32885 0.86287 0.95913 0.0
H1570 H 0.31516 0.90812 0.94921 0.0
H1571 H 0.3306 0.91732 0.96961 0.0
C1572 C 0.2934 0.86141 0.92987 0.0
C1573 C 0.29276 0.8694 0.91635 0.0
C1574 C 0.30262 0.86627 0.94154 0.0
C1575 C 0.31138 0.87924 0.93995 0.0
C1576 C 0.31089 0.88708 0.92634 0.0
C1577 C 0.30169 0.88223 0.91469 0.0
C1578 C 0.33788 0.88004 0.97318 0.0
C1579 C 0.33862 0.89543 0.97635 0.0
C1580 C 0.32906 0.87476 0.96139 0.0
C1581 C 0.3208 0.88476 0.95249 0.0
C1582 C 0.32155 0.90013 0.95569 0.0
C1583 C 0.33035 0.9054 0.96746 0.0
H1584 H 0.36883 0.95511 0.35159 0.0
H1585 H 0.40559 0.96977 0.32385 0.0
H1586 H 0.36049 0.93846 0.3318 0.0
H1587 H 0.39702 0.95321 0.30387 0.0
H1588 H 0.3392 0.9258 0.28744 0.0
H1589 H 0.34904 0.9413 0.30741 0.0
H1590 H 0.39384 0.92661 0.29693 0.0
H1591 H 0.38397 0.91115 0.27661 0.0
C1592 C 0.37514 0.95479 0.34126 0.0
C1593 C 0.38783 0.96386 0.33928 0.0
C1594 C 0.37031 0.94528 0.32988 0.0
C1595 C 0.37801 0.9446 0.31621 0.0
C1596 C 0.39091 0.9534 0.31432 0.0
C1597 C 0.39576 0.96295 0.32573 0.0
C1598 C 0.35116 0.92581 0.28937 0.0
C1599 C 0.36079 0.91719 0.28043 0.0
C1600 C 0.35679 0.93465 0.3009 0.0
C1601 C 0.37222 0.93512 0.30384 0.0
C1602 C 0.38191 0.92656 0.29488 0.0
C1603 C 0.37625 0.91765 0.2833 0.0
H1604 H 0.28782 0.15665 0.57419 0.0
H1605 H 0.30245 0.11927 0.60109 0.0
H1606 H 0.30413 0.14834 0.55389 0.0
H1607 H 0.31885 0.11118 0.581 0.0
H1608 H 0.34581 0.13538 0.52594 0.0
H1609 H 0.33058 0.14503 0.54653 0.0
H1610 H 0.31574 0.10015 0.55648 0.0
H1611 H 0.33103 0.09052 0.53624 0.0
C1612 C 0.29459 0.14675 0.57583 0.0
C1613 C 0.29373 0.13856 0.58923 0.0
C1614 C 0.304 0.14203 0.56422 0.0
C1615 C 0.31271 0.12902 0.56578 0.0
C1616 C 0.3121 0.12109 0.57933 0.0
C1617 C 0.30273 0.12578 0.59089 0.0
C1618 C 0.33932 0.12759 0.53256 0.0
C1619 C 0.3397 0.11217 0.52947 0.0
C1620 C 0.33054 0.13313 0.5443 0.0
C1621 C 0.32201 0.12336 0.5532 0.0
C1622 C 0.32237 0.10797 0.55003 0.0
C1623 C 0.33109 0.10245 0.53833 0.0
H1624 H 0.14341 0.03765 0.84128 0.0
H1625 H 0.09729 0.04755 0.83125 0.0
H1626 H 0.15144 0.05404 0.82127 0.0
H1627 H 0.10525 0.06497 0.81178 0.0
H1628 H 0.12416 0.08465 0.76847 0.0
H1629 H 0.11517 0.06808 0.78819 0.0
H1630 H 0.15457 0.07832 0.81437 0.0
H1631 H 0.1639 0.09387 0.79417 0.0
C1632 C 0.13498 0.04356 0.83489 0.0
C1633 C 0.11974 0.04138 0.83783 0.0
C1634 C 0.13958 0.05311 0.82346 0.0
C1635 C 0.12905 0.06112 0.8149 0.0
C1636 C 0.11373 0.0589 0.81791 0.0
C1637 C 0.10913 0.04899 0.82913 0.0
C1638 C 0.13083 0.08331 0.77849 0.0
C1639 C 0.14477 0.09039 0.77977 0.0
C1640 C 0.12565 0.07388 0.78987 0.0
C1641 C 0.13416 0.07163 0.80294 0.0
C1642 C 0.14786 0.07929 0.80435 0.0
C1643 C 0.15319 0.08835 0.79282 0.0
H1644 H 0.20355 0.88867 0.10177 0.0
H1645 H 0.21845 0.85134 0.07494 0.0
H1646 H 0.18746 0.8969 0.08147 0.0
H1647 H 0.2025 0.85979 0.05445 0.0
H1648 H 0.17491 0.91725 0.03657 0.0
H1649 H 0.1903 0.90794 0.05694 0.0
H1650 H 0.17626 0.86278 0.04707 0.0
H1651 H 0.16101 0.87209 0.02641 0.0
C1652 C 0.20341 0.88221 0.09153 0.0
C1653 C 0.21235 0.86937 0.08997 0.0
C1654 C 0.19423 0.88699 0.07985 0.0
C1655 C 0.19377 0.87907 0.06629 0.0
C1656 C 0.2025 0.86607 0.0648 0.0
C1657 C 0.2117 0.86127 0.07652 0.0
C1658 C 0.17507 0.90533 0.03872 0.0
C1659 C 0.16669 0.89542 0.02986 0.0
C1660 C 0.18384 0.9 0.05047 0.0
C1661 C 0.18446 0.88462 0.05369 0.0
C1662 C 0.17613 0.87468 0.0448 0.0
C1663 C 0.16733 0.88003 0.03302 0.0
H1664 H 0.21148 0.34094 0.09474 0.0
H1665 H 0.23677 0.38092 0.08532 0.0
H1666 H 0.19095 0.35023 0.07957 0.0
H1667 H 0.21678 0.38985 0.06915 0.0
H1668 H 0.17389 0.4083 0.04986 0.0
H1669 H 0.19337 0.39984 0.06692 0.0
H1670 H 0.18286 0.3539 0.05578 0.0
H1671 H 0.16273 0.36249 0.03973 0.0
C1672 C 0.21268 0.35168 0.08925 0.0
C1673 C 0.22569 0.36021 0.09118 0.0
C1674 C 0.20095 0.35699 0.08041 0.0
C1675 C 0.20211 0.3708 0.07289 0.0
C1676 C 0.21523 0.37932 0.07491 0.0
C1677 C 0.22678 0.37417 0.0841 0.0
C1678 C 0.17574 0.3964 0.05119 0.0
C1679 C 0.16677 0.38604 0.04357 0.0
C1680 C 0.18701 0.39151 0.06088 0.0
C1681 C 0.18984 0.37612 0.06285 0.0
C1682 C 0.18088 0.36581 0.05498 0.0
C1683 C 0.16937 0.37072 0.04564 0.0
H1684 H 0.68251 0.10164 0.96757 0.0
H1685 H 0.65518 0.13908 0.95387 0.0
H1686 H 0.70247 0.11021 0.95101 0.0
H1687 H 0.67495 0.14742 0.93717 0.0
H1688 H 0.71956 0.16809 0.92396 0.0
H1689 H 0.69952 0.15848 0.93956 0.0
H1690 H 0.70926 0.11358 0.92463 0.0
H1691 H 0.72963 0.1232 0.90913 0.0
C1692 C 0.68071 0.11162 0.96095 0.0
C1693 C 0.66728 0.11973 0.96213 0.0
C1694 C 0.69212 0.11648 0.9514 0.0
C1695 C 0.69035 0.12956 0.94284 0.0
C1696 C 0.67679 0.13745 0.9438 0.0
C1697 C 0.66541 0.13261 0.95333 0.0
C1698 C 0.71745 0.15616 0.92395 0.0
C1699 C 0.7262 0.14642 0.91526 0.0
C1700 C 0.70587 0.15065 0.93285 0.0
C1701 C 0.70271 0.13526 0.93329 0.0
C1702 C 0.71148 0.12548 0.92463 0.0
C1703 C 0.7231 0.13101 0.91569 0.0
H1704 H 0.11676 0.4053 0.20518 0.0
H1705 H 0.15451 0.43237 0.21849 0.0
H1706 H 0.10828 0.4252 0.18871 0.0
H1707 H 0.14581 0.45246 0.20215 0.0
H1708 H 0.08773 0.47004 0.17587 0.0
H1709 H 0.09739 0.44985 0.19128 0.0
H1710 H 0.14216 0.45933 0.17582 0.0
H1711 H 0.1325 0.47982 0.16052 0.0
C1712 C 0.12326 0.4155 0.20461 0.0
C1713 C 0.13628 0.41725 0.21323 0.0
C1714 C 0.11834 0.42696 0.19521 0.0
C1715 C 0.12629 0.44048 0.19419 0.0
C1716 C 0.13949 0.44214 0.20258 0.0
C1717 C 0.14443 0.43065 0.21201 0.0
C1718 C 0.09964 0.46783 0.1757 0.0
C1719 C 0.10934 0.47656 0.16693 0.0
C1720 C 0.10517 0.45618 0.18449 0.0
C1721 C 0.12054 0.45291 0.18474 0.0
C1722 C 0.13027 0.46164 0.17599 0.0
C1723 C 0.12472 0.47332 0.16715 0.0
H1724 H 0.7681 0.8818 0.42034 0.0
H1725 H 0.79395 0.84225 0.41066 0.0
H1726 H 0.78788 0.89073 0.43689 0.0
H1727 H 0.81419 0.85153 0.42617 0.0
H1728 H 0.8412 0.86237 0.46684 0.0
H1729 H 0.82118 0.85443 0.45042 0.0
H1730 H 0.81147 0.9007 0.44 0.0
H1731 H 0.83095 0.90856 0.45744 0.0
C1732 C 0.77816 0.87516 0.42157 0.0
C1733 C 0.77947 0.86128 0.41437 0.0
C1734 C 0.78957 0.8803 0.43099 0.0
C1735 C 0.8027 0.87182 0.4331 0.0
C1736 C 0.80413 0.8582 0.42532 0.0
C1737 C 0.79258 0.8529 0.41627 0.0
C1738 C 0.83477 0.87083 0.46103 0.0
C1739 C 0.83765 0.88607 0.46336 0.0
C1740 C 0.82332 0.86629 0.45147 0.0
C1741 C 0.8147 0.87687 0.4436 0.0
C1742 C 0.81765 0.89218 0.44596 0.0
C1743 C 0.8289 0.89673 0.45588 0.0
H1744 H 0.8471 0.08114 0.20783 0.0
H1745 H 0.89314 0.09207 0.21714 0.0
H1746 H 0.8552 0.06191 0.19024 0.0
H1747 H 0.90134 0.07226 0.20056 0.0
H1748 H 0.91374 0.04523 0.16064 0.0
H1749 H 0.90432 0.06529 0.17631 0.0
H1750 H 0.86542 0.03852 0.18698 0.0
H1751 H 0.87448 0.01895 0.17027 0.0
C1752 C 0.85896 0.07928 0.20622 0.0
C1753 C 0.8695 0.08815 0.21374 0.0
C1754 C 0.86364 0.06818 0.19621 0.0
C1755 C 0.87899 0.06546 0.19379 0.0
C1756 C 0.88945 0.07422 0.20166 0.0
C1757 C 0.88477 0.08553 0.21132 0.0
C1758 C 0.90312 0.04372 0.16627 0.0
C1759 C 0.89485 0.03055 0.1643 0.0
C1760 C 0.89775 0.05517 0.17541 0.0
C1761 C 0.88415 0.05356 0.18322 0.0
C1762 C 0.8758 0.04036 0.18105 0.0
C1763 C 0.88102 0.02907 0.17154 0.0
H1764 H 0.28675 0.66799 0.58235 0.0
H1765 H 0.27669 0.62284 0.59638 0.0
H1766 H 0.30682 0.65863 0.56658 0.0
H1767 H 0.29704 0.61349 0.58077 0.0
H1768 H 0.35118 0.63906 0.55201 0.0
H1769 H 0.33137 0.64745 0.56864 0.0
H1770 H 0.3037 0.61049 0.55444 0.0
H1771 H 0.32369 0.60188 0.53796 0.0
C1772 C 0.28887 0.65607 0.58214 0.0
C1773 C 0.28011 0.64617 0.59064 0.0
C1774 C 0.30045 0.6507 0.57315 0.0
C1775 C 0.30358 0.63531 0.57245 0.0
C1776 C 0.29482 0.6254 0.58095 0.0
C1777 C 0.28321 0.63077 0.58996 0.0
C1778 C 0.3409 0.63267 0.55245 0.0
C1779 C 0.33901 0.61982 0.5436 0.0
C1780 C 0.3295 0.63754 0.56194 0.0
C1781 C 0.31591 0.62971 0.5628 0.0
C1782 C 0.31409 0.6167 0.55414 0.0
C1783 C 0.32552 0.61181 0.54464 0.0
H1784 H 0.11834 0.60065 0.30195 0.0
H1785 H 0.15534 0.57329 0.28719 0.0
H1786 H 0.11004 0.58065 0.31835 0.0
H1787 H 0.14681 0.55307 0.3035 0.0
H1788 H 0.13401 0.5256 0.34552 0.0
H1789 H 0.14368 0.54588 0.32993 0.0
H1790 H 0.09873 0.55623 0.31564 0.0
H1791 H 0.08907 0.53627 0.33132 0.0
C1792 C 0.12472 0.59036 0.30219 0.0
C1793 C 0.13747 0.58856 0.29318 0.0
C1794 C 0.1199 0.57884 0.31155 0.0
C1795 C 0.12768 0.56519 0.31215 0.0
C1796 C 0.14063 0.56348 0.30338 0.0
C1797 C 0.14547 0.57504 0.29398 0.0
C1798 C 0.1262 0.53223 0.33907 0.0
C1799 C 0.11076 0.52934 0.33973 0.0
C1800 C 0.13176 0.5438 0.33007 0.0
C1801 C 0.12198 0.55273 0.32159 0.0
C1802 C 0.10656 0.54974 0.32222 0.0
C1803 C 0.10103 0.53822 0.33116 0.0
H1804 H 0.3729 0.48052 0.84669 0.0
H1805 H 0.41791 0.47016 0.83248 0.0
H1806 H 0.36336 0.46017 0.83116 0.0
H1807 H 0.40837 0.45011 0.8168 0.0
H1808 H 0.38871 0.40578 0.80246 0.0
H1809 H 0.39717 0.42563 0.81901 0.0
H1810 H 0.36015 0.45328 0.80491 0.0
H1811 H 0.35148 0.43325 0.78852 0.0
C1812 C 0.38076 0.47394 0.84024 0.0
C1813 C 0.39617 0.47695 0.84087 0.0
C1814 C 0.37528 0.46233 0.83128 0.0
C1815 C 0.3851 0.45347 0.82277 0.0
C1816 C 0.40051 0.45654 0.8234 0.0
C1817 C 0.40597 0.46811 0.83233 0.0
C1818 C 0.38232 0.41606 0.80291 0.0
C1819 C 0.36944 0.41793 0.7941 0.0
C1820 C 0.38723 0.42749 0.81235 0.0
C1821 C 0.37941 0.4411 0.81321 0.0
C1822 C 0.36636 0.44288 0.80462 0.0
C1823 C 0.36143 0.43143 0.79516 0.0
H1824 H 0.92174 0.76732 0.62408 0.0
H1825 H 0.91151 0.79329 0.66339 0.0
H1826 H 0.93817 0.78719 0.61518 0.0
H1827 H 0.9269 0.81363 0.65412 0.0
H1828 H 0.96702 0.84144 0.64305 0.0
H1829 H 0.95097 0.82117 0.65118 0.0
H1830 H 0.94097 0.81066 0.60501 0.0
H1831 H 0.95806 0.83039 0.59699 0.0
C1832 C 0.92284 0.77742 0.63068 0.0
C1833 C 0.91549 0.77874 0.64448 0.0
C1834 C 0.93219 0.78889 0.62555 0.0
C1835 C 0.93409 0.80211 0.63394 0.0
C1836 C 0.92621 0.80352 0.64751 0.0
C1837 C 0.91723 0.7919 0.65281 0.0
C1838 C 0.96139 0.83477 0.63465 0.0
C1839 C 0.96374 0.8375 0.6194 0.0
C1840 C 0.95203 0.82318 0.6393 0.0
C1841 C 0.9444 0.81425 0.62881 0.0
C1842 C 0.94677 0.81707 0.61348 0.0
C1843 C 0.95648 0.82845 0.60884 0.0
H1844 H 0.98743 0.17145 0.37566 0.0
H1845 H 0.96113 0.16148 0.41481 0.0
H1846 H 0.96767 0.18788 0.36652 0.0
H1847 H 0.94088 0.17685 0.4053 0.0
H1848 H 0.91321 0.21702 0.39377 0.0
H1849 H 0.93328 0.20084 0.40218 0.0
H1850 H 0.9444 0.19084 0.35615 0.0
H1851 H 0.92492 0.20805 0.34787 0.0
C1852 C 0.97727 0.17259 0.38216 0.0
C1853 C 0.97583 0.16533 0.39598 0.0
C1854 C 0.96586 0.18194 0.37689 0.0
C1855 C 0.95258 0.18392 0.38517 0.0
C1856 C 0.95104 0.1761 0.39877 0.0
C1857 C 0.9626 0.16713 0.4042 0.0
C1858 C 0.91998 0.21135 0.38547 0.0
C1859 C 0.9175 0.21375 0.37018 0.0
C1860 C 0.93145 0.20192 0.39027 0.0
C1861 C 0.94051 0.19426 0.3799 0.0
C1862 C 0.93792 0.19666 0.36454 0.0
C1863 C 0.92666 0.20645 0.35975 0.0
H1864 H 0.54852 0.17483 0.09702 0.0
H1865 H 0.53894 0.16435 0.1431 0.0
H1866 H 0.56576 0.19444 0.10503 0.0
H1867 H 0.55515 0.18448 0.15119 0.0
H1868 H 0.59494 0.21167 0.16361 0.0
H1869 H 0.5794 0.19151 0.15423 0.0
H1870 H 0.5688 0.218 0.11514 0.0
H1871 H 0.58537 0.23772 0.12418 0.0
C1872 C 0.54999 0.17687 0.10886 0.0
C1873 C 0.54253 0.16799 0.11944 0.0
C1874 C 0.5598 0.18818 0.1135 0.0
C1875 C 0.56207 0.19109 0.12882 0.0
C1876 C 0.55419 0.18237 0.13932 0.0
C1877 C 0.54474 0.17087 0.13469 0.0
C1878 C 0.58934 0.21311 0.15297 0.0
C1879 C 0.5913 0.22625 0.14464 0.0
C1880 C 0.58027 0.2016 0.14761 0.0
C1881 C 0.57253 0.20309 0.13397 0.0
C1882 C 0.57467 0.21626 0.12557 0.0
C1883 C 0.5841 0.22763 0.13077 0.0
H1884 H 0.60048 0.80241 0.88872 0.0
H1885 H 0.57324 0.78865 0.85127 0.0
H1886 H 0.58054 0.8188 0.89725 0.0
H1887 H 0.5531 0.80491 0.86002 0.0
H1888 H 0.53583 0.83165 0.91799 0.0
H1889 H 0.556 0.8162 0.90833 0.0
H1890 H 0.54615 0.83122 0.86351 0.0
H1891 H 0.52569 0.84654 0.87317 0.0
C1892 C 0.59023 0.80287 0.8823 0.0
C1893 C 0.58844 0.79415 0.86934 0.0
C1894 C 0.57875 0.81222 0.88724 0.0
C1895 C 0.56517 0.81309 0.87939 0.0
C1896 C 0.56347 0.8046 0.86626 0.0
C1897 C 0.57498 0.79522 0.86129 0.0
C1898 C 0.53795 0.8317 0.90608 0.0
C1899 C 0.52914 0.84036 0.89636 0.0
C1900 C 0.54959 0.82289 0.90054 0.0
C1901 C 0.55274 0.82252 0.88515 0.0
C1902 C 0.54393 0.83115 0.87541 0.0
C1903 C 0.53226 0.84 0.88096 0.0
H1904 H 0.96817 0.16404 0.862 0.0
H1905 H 0.95841 0.17413 0.90813 0.0
H1906 H 0.95173 0.18405 0.85401 0.0
H1907 H 0.94096 0.19358 0.90022 0.0
H1908 H 0.92154 0.23704 0.88156 0.0
H1909 H 0.93801 0.21719 0.89039 0.0
H1910 H 0.92753 0.19122 0.85092 0.0
H1911 H 0.91207 0.21157 0.84173 0.0
C1912 C 0.96228 0.17044 0.87043 0.0
C1913 C 0.96453 0.16753 0.88567 0.0
C1914 C 0.9527 0.18187 0.86586 0.0
C1915 C 0.94476 0.19046 0.87641 0.0
C1916 C 0.947 0.18744 0.89172 0.0
C1917 C 0.95693 0.17622 0.89629 0.0
C1918 C 0.9228 0.22704 0.87484 0.0
C1919 C 0.91567 0.22586 0.86092 0.0
C1920 C 0.93217 0.21558 0.87993 0.0
C1921 C 0.93432 0.20252 0.87136 0.0
C1922 C 0.92663 0.20122 0.85767 0.0
C1923 C 0.91762 0.21283 0.85242 0.0
H1924 H 0.54408 0.16136 0.59227 0.0
H1925 H 0.51844 0.17129 0.63187 0.0
H1926 H 0.56466 0.17636 0.60166 0.0
H1927 H 0.53856 0.18736 0.64091 0.0
H1928 H 0.58166 0.20735 0.6589 0.0
H1929 H 0.56206 0.19013 0.65091 0.0
H1930 H 0.57237 0.20032 0.60473 0.0
H1931 H 0.59254 0.21651 0.61283 0.0
C1932 C 0.54283 0.16692 0.60296 0.0
C1933 C 0.52968 0.16523 0.61132 0.0
C1934 C 0.55459 0.17567 0.60832 0.0
C1935 C 0.55332 0.1834 0.62199 0.0
C1936 C 0.54015 0.18149 0.63045 0.0
C1937 C 0.52854 0.17235 0.62525 0.0
C1938 C 0.57973 0.20577 0.64706 0.0
C1939 C 0.58868 0.21316 0.63649 0.0
C1940 C 0.56841 0.19598 0.64243 0.0
C1941 C 0.56554 0.19365 0.62711 0.0
C1942 C 0.57441 0.20135 0.61661 0.0
C1943 C 0.58595 0.21079 0.62124 0.0
H1944 H 0.55241 0.85132 0.36778 0.0
H1945 H 0.53818 0.82433 0.40525 0.0
H1946 H 0.56879 0.83126 0.35952 0.0
H1947 H 0.55442 0.80406 0.39676 0.0
H1948 H 0.59597 0.77622 0.38384 0.0
H1949 H 0.58068 0.79677 0.39342 0.0
H1950 H 0.56604 0.80675 0.34851 0.0
H1951 H 0.58145 0.78654 0.33894 0.0
C1952 C 0.55276 0.8411 0.37427 0.0
C1953 C 0.54391 0.83941 0.38714 0.0
C1954 C 0.56211 0.82955 0.36947 0.0
C1955 C 0.56283 0.81599 0.3774 0.0
C1956 C 0.55422 0.8144 0.39046 0.0
C1957 C 0.54485 0.82599 0.39528 0.0
C1958 C 0.58951 0.78284 0.37602 0.0
C1959 C 0.58998 0.77976 0.36061 0.0
C1960 C 0.58069 0.79456 0.38152 0.0
C1961 C 0.57219 0.80346 0.37173 0.0
C1962 C 0.57265 0.8003 0.35634 0.0
C1963 C 0.58143 0.78863 0.35086 0.0
H1964 H 0.90558 0.8026 0.11737 0.0
H1965 H 0.93246 0.78857 0.15498 0.0
H1966 H 0.92553 0.81914 0.10922 0.0
H1967 H 0.95264 0.805 0.14659 0.0
H1968 H 0.97014 0.83196 0.0887 0.0
H1969 H 0.95007 0.8164 0.09831 0.0
H1970 H 0.95977 0.83139 0.14317 0.0
H1971 H 0.98018 0.84686 0.13354 0.0
C1972 C 0.91576 0.80303 0.12391 0.0
C1973 C 0.91745 0.79417 0.13678 0.0
C1974 C 0.92724 0.81248 0.11919 0.0
C1975 C 0.94075 0.81329 0.12717 0.0
C1976 C 0.94234 0.80471 0.14025 0.0
C1977 C 0.9308 0.79524 0.14501 0.0
C1978 C 0.96802 0.83199 0.10062 0.0
C1979 C 0.97676 0.8407 0.11034 0.0
C1980 C 0.95643 0.82311 0.10612 0.0
C1981 C 0.95323 0.82272 0.1215 0.0
C1982 C 0.96202 0.83136 0.13127 0.0
C1983 C 0.97365 0.84028 0.12575 0.0
H1984 H 0.64258 0.96716 0.84302 0.0
H1985 H 0.59665 0.95855 0.83112 0.0
H1986 H 0.65096 0.95114 0.82283 0.0
H1987 H 0.6049 0.94149 0.81149 0.0
H1988 H 0.62451 0.92262 0.76827 0.0
H1989 H 0.61536 0.93884 0.7882 0.0
H1990 H 0.65393 0.92718 0.81503 0.0
H1991 H 0.66346 0.91202 0.79463 0.0
C1992 C 0.63427 0.9616 0.83619 0.0
C1993 C 0.61898 0.96406 0.83864 0.0
C1994 C 0.63905 0.95226 0.82464 0.0
C1995 C 0.62866 0.94476 0.81548 0.0
C1996 C 0.6133 0.9472 0.81806 0.0
C1997 C 0.60852 0.9569 0.82939 0.0
C1998 C 0.63097 0.92358 0.77847 0.0
C1999 C 0.64474 0.91621 0.77989 0.0
C2000 C 0.6257 0.9328 0.78998 0.0
C2001 C 0.63392 0.93454 0.80332 0.0
C2002 C 0.64745 0.92661 0.80483 0.0
C2003 C 0.65289 0.91777 0.79318 0.0
H2004 H 0.84494 0.87193 0.52612 0.0
H2005 H 0.83126 0.91712 0.53643 0.0
H2006 H 0.82943 0.86261 0.54658 0.0
H2007 H 0.81561 0.9078 0.55661 0.0
H2008 H 0.80184 0.8883 0.60123 0.0
H2009 H 0.81811 0.89659 0.5811 0.0
H2010 H 0.80312 0.85973 0.55373 0.0
H2011 H 0.78697 0.85122 0.57406 0.0
C2012 C 0.83861 0.87987 0.53272 0.0
C2013 C 0.83938 0.89528 0.52966 0.0
C2014 C 0.82966 0.87451 0.54439 0.0
C2015 C 0.82131 0.88446 0.55327 0.0
C2016 C 0.82208 0.89985 0.55015 0.0
C2017 C 0.831 0.90519 0.53851 0.0
C2018 C 0.80202 0.88191 0.59095 0.0
C2019 C 0.79304 0.86912 0.58925 0.0
C2020 C 0.8113 0.88673 0.57937 0.0
C2021 C 0.81184 0.87889 0.56576 0.0
C2022 C 0.80306 0.86595 0.56412 0.0
C2023 C 0.79375 0.86111 0.57574 0.0
H2024 H 0.86742 0.05134 0.35136 0.0
H2025 H 0.90466 0.03704 0.32407 0.0
H2026 H 0.85908 0.0678 0.33141 0.0
H2027 H 0.89609 0.05339 0.30393 0.0
H2028 H 0.8834 0.09533 0.27663 0.0
H2029 H 0.89292 0.07983 0.29702 0.0
H2030 H 0.84794 0.06524 0.30687 0.0
H2031 H 0.83842 0.08085 0.28677 0.0
C2032 C 0.87384 0.05169 0.34109 0.0
C2033 C 0.88668 0.0428 0.33929 0.0
C2034 C 0.869 0.06109 0.32962 0.0
C2035 C 0.87684 0.06183 0.31603 0.0
C2036 C 0.88986 0.05317 0.31431 0.0
C2037 C 0.89472 0.04374 0.32582 0.0
C2038 C 0.87555 0.08884 0.28318 0.0
C2039 C 0.86014 0.08937 0.28009 0.0
C2040 C 0.88101 0.0799 0.29481 0.0
C2041 C 0.87118 0.07134 0.30361 0.0
C2042 C 0.85579 0.07188 0.30047 0.0
C2043 C 0.85034 0.08078 0.28888 0.0
H2044 H 0.67541 0.08945 0.03547 0.0
H2045 H 0.66106 0.13444 0.02513 0.0
H2046 H 0.69109 0.099 0.05546 0.0
H2047 H 0.67667 0.14401 0.04546 0.0
H2048 H 0.71959 0.15529 0.073 0.0
H2049 H 0.7032 0.14706 0.0527 0.0
H2050 H 0.6881 0.11014 0.07994 0.0
H2051 H 0.70455 0.11812 0.09999 0.0
C2052 C 0.67554 0.10139 0.0375 0.0
C2053 C 0.66692 0.11117 0.02872 0.0
C2054 C 0.68448 0.10686 0.04904 0.0
C2055 C 0.68505 0.12226 0.05214 0.0
C2056 C 0.67655 0.1321 0.04329 0.0
C2057 C 0.66755 0.1266 0.0317 0.0
C2058 C 0.71272 0.14545 0.07465 0.0
C2059 C 0.71349 0.1373 0.08807 0.0
C2060 C 0.70328 0.14078 0.06306 0.0
C2061 C 0.69445 0.12786 0.06465 0.0
C2062 C 0.69497 0.11997 0.07822 0.0
C2063 C 0.70437 0.12461 0.08976 0.0
H2064 H 0.63818 0.05159 0.65403 0.0
H2065 H 0.60076 0.03806 0.68145 0.0
H2066 H 0.64676 0.06813 0.67387 0.0
H2067 H 0.60953 0.05442 0.70143 0.0
H2068 H 0.66726 0.08131 0.7188 0.0
H2069 H 0.65781 0.0659 0.6985 0.0
H2070 H 0.61284 0.0807 0.70811 0.0
H2071 H 0.62228 0.09597 0.72868 0.0
C2072 C 0.63177 0.05214 0.66429 0.0
C2073 C 0.61881 0.04345 0.66616 0.0
C2074 C 0.63674 0.06156 0.67571 0.0
C2075 C 0.62888 0.06254 0.68928 0.0
C2076 C 0.61577 0.05405 0.69106 0.0
C2077 C 0.61079 0.04461 0.67963 0.0
C2078 C 0.65536 0.08133 0.71659 0.0
C2079 C 0.64553 0.08988 0.72538 0.0
C2080 C 0.64994 0.07254 0.70487 0.0
C2081 C 0.63457 0.07209 0.70164 0.0
C2082 C 0.62473 0.08068 0.71041 0.0
C2083 C 0.63015 0.08949 0.72214 0.0
H2084 H 0.71881 0.85152 0.43161 0.0
H2085 H 0.7044 0.88898 0.4047 0.0
H2086 H 0.70267 0.86 0.45195 0.0
H2087 H 0.68812 0.89724 0.42485 0.0
H2088 H 0.66105 0.8725 0.47972 0.0
H2089 H 0.67638 0.86314 0.45914 0.0
H2090 H 0.69075 0.90822 0.44941 0.0
H2091 H 0.67528 0.91759 0.4697 0.0
C2092 C 0.71213 0.86148 0.42998 0.0
C2093 C 0.71297 0.86961 0.41655 0.0
C2094 C 0.70281 0.8663 0.44161 0.0
C2095 C 0.69417 0.87935 0.44006 0.0
C2096 C 0.69482 0.88729 0.42652 0.0
C2097 C 0.70411 0.88249 0.41492 0.0
C2098 C 0.66745 0.88041 0.47316 0.0
C2099 C 0.66689 0.8958 0.47634 0.0
C2100 C 0.67631 0.87503 0.46142 0.0
C2101 C 0.68476 0.88493 0.4526 0.0
C2102 C 0.6842 0.90031 0.45583 0.0
C2103 C 0.67538 0.90567 0.46753 0.0
H2104 H 0.90454 0.96984 0.18139 0.0
H2105 H 0.86745 0.95536 0.15402 0.0
H2106 H 0.89601 0.95343 0.2015 0.0
H2107 H 0.85915 0.93883 0.17393 0.0
H2108 H 0.83844 0.92564 0.2185 0.0
H2109 H 0.84793 0.9413 0.19842 0.0
H2110 H 0.89297 0.92699 0.2084 0.0
H2111 H 0.88347 0.91145 0.22878 0.0
C2112 C 0.89464 0.96309 0.17961 0.0
C2113 C 0.88663 0.96399 0.16612 0.0
C2114 C 0.8898 0.95363 0.19111 0.0
C2115 C 0.87684 0.94489 0.18936 0.0
C2116 C 0.86903 0.9456 0.17575 0.0
C2117 C 0.87384 0.95503 0.16429 0.0
C2118 C 0.85037 0.92579 0.21643 0.0
C2119 C 0.86019 0.91726 0.22525 0.0
C2120 C 0.85581 0.93471 0.20484 0.0
C2121 C 0.8712 0.93535 0.20175 0.0
C2122 C 0.88106 0.92685 0.21058 0.0
C2123 C 0.87561 0.91788 0.2222 0.0
H2124 H 0.84568 0.13396 0.97825 0.0
H2125 H 0.83124 0.0889 0.9684 0.0
H2126 H 0.83003 0.14338 0.95798 0.0
H2127 H 0.81542 0.09834 0.94841 0.0
H2128 H 0.78731 0.15539 0.93139 0.0
H2129 H 0.80374 0.14666 0.95136 0.0
H2130 H 0.8174 0.10939 0.92384 0.0
H2131 H 0.80082 0.11791 0.90405 0.0
C2132 C 0.83915 0.12607 0.97179 0.0
C2133 C 0.83975 0.11067 0.97494 0.0
C2134 C 0.83011 0.13148 0.96023 0.0
C2135 C 0.82149 0.12162 0.95154 0.0
C2136 C 0.82209 0.10623 0.95471 0.0
C2137 C 0.83111 0.10082 0.96625 0.0
C2138 C 0.79386 0.14536 0.92959 0.0
C2139 C 0.79268 0.13731 0.91614 0.0
C2140 C 0.80333 0.1404 0.94101 0.0
C2141 C 0.81183 0.12728 0.93924 0.0
C2142 C 0.81083 0.1194 0.92568 0.0
C2143 C 0.80137 0.12434 0.91429 0.0
H2144 H 0.77641 0.62353 0.90887 0.0
H2145 H 0.78668 0.66821 0.92418 0.0
H2146 H 0.79697 0.6137 0.92398 0.0
H2147 H 0.80692 0.65839 0.93937 0.0
H2148 H 0.85131 0.6387 0.9531 0.0
H2149 H 0.83148 0.64726 0.93657 0.0
H2150 H 0.80385 0.61011 0.95036 0.0
H2151 H 0.82384 0.60135 0.96674 0.0
C2152 C 0.78302 0.63125 0.91545 0.0
C2153 C 0.77991 0.64666 0.91529 0.0
C2154 C 0.79475 0.62561 0.92416 0.0
C2155 C 0.80362 0.63527 0.93284 0.0
C2156 C 0.80048 0.65066 0.93263 0.0
C2157 C 0.78878 0.65628 0.92398 0.0
C2158 C 0.84105 0.6323 0.95258 0.0
C2159 C 0.83914 0.61938 0.96132 0.0
C2160 C 0.82964 0.63725 0.94314 0.0
C2161 C 0.81604 0.62943 0.94222 0.0
C2162 C 0.81424 0.61632 0.95071 0.0
C2163 C 0.82567 0.61135 0.96017 0.0
H2164 H 0.26726 0.88168 0.08646 0.0
H2165 H 0.2932 0.84217 0.09605 0.0
H2166 H 0.28691 0.89057 0.06974 0.0
H2167 H 0.31331 0.8514 0.08035 0.0
H2168 H 0.34001 0.86213 0.03942 0.0
H2169 H 0.3201 0.85424 0.056 0.0
H2170 H 0.3105 0.90054 0.0664 0.0
H2171 H 0.32987 0.90835 0.04882 0.0
C2172 C 0.27732 0.87504 0.08517 0.0
C2173 C 0.27868 0.86118 0.09241 0.0
C2174 C 0.28866 0.88016 0.07565 0.0
C2175 C 0.30177 0.87168 0.07345 0.0
C2176 C 0.30326 0.85808 0.08127 0.0
C2177 C 0.29178 0.8528 0.09043 0.0
C2178 C 0.33362 0.87061 0.04525 0.0
C2179 C 0.33651 0.88584 0.04287 0.0
C2180 C 0.32224 0.8661 0.05492 0.0
C2181 C 0.31368 0.87669 0.06283 0.0
C2182 C 0.31663 0.892 0.06041 0.0
C2183 C 0.32781 0.89652 0.0504 0.0
H2184 H 0.91857 0.53609 0.83122 0.0
H2185 H 0.87367 0.52621 0.84612 0.0
H2186 H 0.90905 0.55641 0.81591 0.0
H2187 H 0.86416 0.54684 0.83094 0.0
H2188 H 0.88976 0.60102 0.80207 0.0
H2189 H 0.89815 0.58104 0.8185 0.0
H2190 H 0.86071 0.55383 0.80468 0.0
H2191 H 0.85211 0.57399 0.78841 0.0
C2192 C 0.90666 0.5383 0.83131 0.0
C2193 C 0.89688 0.52951 0.83992 0.0
C2194 C 0.90121 0.55004 0.82258 0.0
C2195 C 0.88585 0.55331 0.82224 0.0
C2196 C 0.87604 0.54452 0.83084 0.0
C2197 C 0.8815 0.53276 0.83961 0.0
C2198 C 0.88326 0.59082 0.80256 0.0
C2199 C 0.87029 0.58909 0.79386 0.0
C2200 C 0.88812 0.57932 0.81193 0.0
C2201 C 0.88017 0.56579 0.81283 0.0
C2202 C 0.86703 0.56416 0.80435 0.0
C2203 C 0.86214 0.57569 0.79497 0.0
H2204 H 0.17574 0.0987 0.5481 0.0
H2205 H 0.16473 0.14479 0.53905 0.0
H2206 H 0.19538 0.10674 0.56527 0.0
H2207 H 0.18491 0.15293 0.55518 0.0
H2208 H 0.21238 0.16521 0.59483 0.0
H2209 H 0.19218 0.15586 0.57932 0.0
H2210 H 0.21882 0.11696 0.56829 0.0
H2211 H 0.23854 0.12595 0.58484 0.0
C2212 C 0.17768 0.11056 0.54967 0.0
C2213 C 0.16865 0.12113 0.54238 0.0
C2214 C 0.189 0.11521 0.55943 0.0
C2215 C 0.19179 0.13055 0.56182 0.0
C2216 C 0.18291 0.14104 0.55412 0.0
C2217 C 0.17138 0.13639 0.54471 0.0
C2218 C 0.21384 0.15462 0.58914 0.0
C2219 C 0.22701 0.14633 0.59097 0.0
C2220 C 0.20231 0.14928 0.58009 0.0
C2221 C 0.20383 0.1357 0.57223 0.0
C2222 C 0.21704 0.12734 0.57425 0.0
C2223 C 0.22843 0.13252 0.58367 0.0
H2224 H 0.1586 0.92495 0.79686 0.0
H2225 H 0.11275 0.9133 0.78748 0.0
H2226 H 0.1502 0.94424 0.8142 0.0
H2227 H 0.10421 0.93322 0.8038 0.0
H2228 H 0.09156 0.96091 0.84349 0.0
H2229 H 0.10089 0.94079 0.82779 0.0
H2230 H 0.13987 0.96746 0.81709 0.0
H2231 H 0.13093 0.98701 0.83379 0.0
C2232 C 0.1467 0.92668 0.79839 0.0
C2233 C 0.13632 0.91761 0.79093 0.0
C2234 C 0.14184 0.93782 0.80825 0.0
C2235 C 0.12645 0.94041 0.81056 0.0
C2236 C 0.11613 0.93141 0.80277 0.0
C2237 C 0.121 0.92003 0.79326 0.0
C2238 C 0.10216 0.96237 0.83782 0.0
C2239 C 0.11052 0.97548 0.83983 0.0
C2240 C 0.1075 0.95089 0.82867 0.0
C2241 C 0.12114 0.95242 0.82092 0.0
C2242 C 0.12948 0.96563 0.82301 0.0
C2243 C 0.12432 0.97693 0.83252 0.0
H2244 H 0.66397 0.36357 0.46673 0.0
H2245 H 0.67508 0.40959 0.45747 0.0
H2246 H 0.68409 0.35531 0.45057 0.0
H2247 H 0.69465 0.40143 0.44027 0.0
H2248 H 0.73786 0.38199 0.42091 0.0
H2249 H 0.71807 0.39116 0.43731 0.0
H2250 H 0.69141 0.35223 0.42648 0.0
H2251 H 0.71166 0.3427 0.41113 0.0
C2252 C 0.67062 0.37193 0.461 0.0
C2253 C 0.66795 0.38721 0.4633 0.0
C2254 C 0.68212 0.36721 0.45158 0.0
C2255 C 0.69102 0.37765 0.44382 0.0
C2256 C 0.68826 0.393 0.44615 0.0
C2257 C 0.67697 0.39772 0.45593 0.0
C2258 C 0.72772 0.37546 0.42209 0.0
C2259 C 0.72631 0.36159 0.4149 0.0
C2260 C 0.7163 0.38074 0.43142 0.0
C2261 C 0.70306 0.37242 0.43345 0.0
C2262 C 0.70154 0.35879 0.42569 0.0
C2263 C 0.71311 0.35334 0.41674 0.0
H2264 H 0.91714 0.46987 0.67461 0.0
H2265 H 0.87202 0.4806 0.66106 0.0
H2266 H 0.90769 0.44975 0.69025 0.0
H2267 H 0.86256 0.46018 0.67657 0.0
H2268 H 0.8881 0.40525 0.70405 0.0
H2269 H 0.89638 0.42535 0.68773 0.0
H2270 H 0.85965 0.45286 0.70284 0.0
H2271 H 0.85115 0.43255 0.71903 0.0
C2272 C 0.9052 0.4679 0.6749 0.0
C2273 C 0.89535 0.47684 0.66654 0.0
C2274 C 0.89978 0.45628 0.68382 0.0
C2275 C 0.88437 0.45328 0.68461 0.0
C2276 C 0.87449 0.46227 0.67632 0.0
C2277 C 0.87992 0.47392 0.66736 0.0
C2278 C 0.88173 0.41555 0.70388 0.0
C2279 C 0.86899 0.4173 0.71291 0.0
C2280 C 0.88654 0.42713 0.69457 0.0
C2281 C 0.87876 0.44077 0.69405 0.0
C2282 C 0.86583 0.44244 0.70287 0.0
C2283 C 0.861 0.43083 0.71221 0.0
H2284 H 0.65956 0.58234 0.20697 0.0
H2285 H 0.61359 0.59315 0.21678 0.0
H2286 H 0.65134 0.56288 0.18972 0.0
H2287 H 0.60527 0.5731 0.20056 0.0
H2288 H 0.59244 0.54507 0.16145 0.0
H2289 H 0.60189 0.56553 0.1766 0.0
H2290 H 0.64133 0.53942 0.18696 0.0
H2291 H 0.63223 0.51948 0.17076 0.0
C2292 C 0.64769 0.58041 0.20553 0.0
C2293 C 0.6372 0.5893 0.2131 0.0
C2294 C 0.64293 0.56917 0.19572 0.0
C2295 C 0.62757 0.56631 0.19357 0.0
C2296 C 0.61716 0.57513 0.20146 0.0
C2297 C 0.62192 0.5866 0.21091 0.0
C2298 C 0.60318 0.5438 0.1669 0.0
C2299 C 0.61159 0.53072 0.16499 0.0
C2300 C 0.60858 0.55548 0.17574 0.0
C2301 C 0.62234 0.55418 0.18331 0.0
C2302 C 0.63081 0.54104 0.18121 0.0
C2303 C 0.62558 0.52953 0.17199 0.0
H2304 H 0.58129 0.72083 0.83877 0.0
H2305 H 0.59611 0.73083 0.88364 0.0
H2306 H 0.5659 0.70059 0.8483 0.0
H2307 H 0.58083 0.71026 0.89319 0.0
H2308 H 0.55209 0.656 0.86746 0.0
H2309 H 0.56855 0.676 0.85918 0.0
H2310 H 0.55455 0.70313 0.89661 0.0
H2311 H 0.53824 0.68293 0.90511 0.0
C2312 C 0.58134 0.71866 0.85068 0.0
C2313 C 0.58996 0.72746 0.86043 0.0
C2314 C 0.57257 0.70697 0.85614 0.0
C2315 C 0.57219 0.70373 0.8715 0.0
C2316 C 0.58078 0.71254 0.8813 0.0
C2317 C 0.58959 0.72428 0.87582 0.0
C2318 C 0.55254 0.6662 0.87398 0.0
C2319 C 0.54377 0.66788 0.88691 0.0
C2320 C 0.56194 0.67771 0.86918 0.0
C2321 C 0.56279 0.69122 0.87716 0.0
C2322 C 0.55426 0.69281 0.89027 0.0
C2323 C 0.54484 0.68126 0.8951 0.0
H2324 H 0.53681 0.33149 0.08898 0.0
H2325 H 0.52674 0.34586 0.13399 0.0
H2326 H 0.55679 0.31572 0.09843 0.0
H2327 H 0.54705 0.33019 0.14346 0.0
H2328 H 0.60127 0.30174 0.11759 0.0
H2329 H 0.58134 0.31833 0.10951 0.0
H2330 H 0.55397 0.30364 0.14649 0.0
H2331 H 0.57413 0.28713 0.15481 0.0
C2332 C 0.5389 0.33136 0.1009 0.0
C2333 C 0.53018 0.33999 0.11072 0.0
C2334 C 0.55044 0.32236 0.10632 0.0
C2335 C 0.55359 0.32175 0.1217 0.0
C2336 C 0.54483 0.33032 0.13156 0.0
C2337 C 0.53326 0.33936 0.12613 0.0
C2338 C 0.59104 0.30205 0.12406 0.0
C2339 C 0.58927 0.29302 0.13681 0.0
C2340 C 0.57957 0.31152 0.11937 0.0
C2341 C 0.56601 0.31222 0.12727 0.0
C2342 C 0.56433 0.30344 0.14022 0.0
C2343 C 0.57585 0.29393 0.14494 0.0
H2344 H 0.96719 0.34221 0.36222 0.0
H2345 H 0.95727 0.33185 0.40825 0.0
H2346 H 0.95094 0.32209 0.35407 0.0
H2347 H 0.93999 0.31233 0.4002 0.0
H2348 H 0.9208 0.26888 0.38145 0.0
H2349 H 0.93715 0.28879 0.39037 0.0
H2350 H 0.92689 0.31467 0.35077 0.0
H2351 H 0.9116 0.29424 0.3415 0.0
C2352 C 0.9613 0.33573 0.3706 0.0
C2353 C 0.96345 0.33858 0.38585 0.0
C2354 C 0.95183 0.32423 0.36594 0.0
C2355 C 0.94389 0.31554 0.37642 0.0
C2356 C 0.94603 0.31853 0.39174 0.0
C2357 C 0.95586 0.3298 0.3964 0.0
C2358 C 0.92209 0.27887 0.37472 0.0
C2359 C 0.91508 0.28 0.36074 0.0
C2360 C 0.93139 0.29037 0.37986 0.0
C2361 C 0.93356 0.30343 0.37129 0.0
C2362 C 0.92598 0.30467 0.35753 0.0
C2363 C 0.91706 0.29302 0.35224 0.0
H2364 H 0.97031 0.67376 0.58854 0.0
H2365 H 0.98046 0.65942 0.63354 0.0
H2366 H 0.95024 0.68942 0.59802 0.0
H2367 H 0.96007 0.67498 0.64303 0.0
H2368 H 0.90569 0.70315 0.61721 0.0
H2369 H 0.92571 0.68667 0.60911 0.0
H2370 H 0.95299 0.70146 0.64611 0.0
H2371 H 0.93274 0.71784 0.65444 0.0
C2372 C 0.96821 0.67387 0.60046 0.0
C2373 C 0.97698 0.66529 0.61027 0.0
C2374 C 0.95663 0.68281 0.60589 0.0
C2375 C 0.95348 0.68339 0.62128 0.0
C2376 C 0.96229 0.67487 0.63113 0.0
C2377 C 0.97391 0.66589 0.62568 0.0
C2378 C 0.91592 0.70288 0.62368 0.0
C2379 C 0.91763 0.7119 0.63644 0.0
C2380 C 0.92744 0.69347 0.61898 0.0
C2381 C 0.941 0.69285 0.62687 0.0
C2382 C 0.94263 0.7016 0.63984 0.0
C2383 C 0.93106 0.71105 0.64457 0.0
H2384 H 0.53748 0.32355 0.60153 0.0
H2385 H 0.55184 0.35073 0.6388 0.0
H2386 H 0.55369 0.3033 0.61011 0.0
H2387 H 0.56816 0.33067 0.64717 0.0
H2388 H 0.58124 0.28594 0.66767 0.0
H2389 H 0.56558 0.30606 0.65824 0.0
H2390 H 0.58012 0.29639 0.61322 0.0
H2391 H 0.59566 0.27599 0.62265 0.0
C2392 C 0.54416 0.32525 0.61148 0.0
C2393 C 0.54329 0.33873 0.61952 0.0
C2394 C 0.55351 0.31367 0.61635 0.0
C2395 C 0.56216 0.31533 0.62937 0.0
C2396 C 0.56146 0.32892 0.63724 0.0
C2397 C 0.55214 0.34046 0.63238 0.0
C2398 C 0.58114 0.28809 0.65576 0.0
C2399 C 0.58974 0.27936 0.64592 0.0
C2400 C 0.5722 0.29969 0.65036 0.0
C2401 C 0.57164 0.30288 0.63498 0.0
C2402 C 0.5802 0.29413 0.62512 0.0
C2403 C 0.58917 0.2825 0.63053 0.0
H2404 H 0.98878 0.33417 0.87481 0.0
H2405 H 0.96299 0.34401 0.91433 0.0
H2406 H 0.96895 0.31774 0.86588 0.0
H2407 H 0.94265 0.32861 0.90504 0.0
H2408 H 0.9149 0.28849 0.89367 0.0
H2409 H 0.93512 0.30456 0.9019 0.0
H2410 H 0.94551 0.31498 0.85578 0.0
H2411 H 0.92587 0.29787 0.84766 0.0
C2412 C 0.97872 0.33299 0.88145 0.0
C2413 C 0.97744 0.34023 0.8953 0.0
C2414 C 0.96727 0.32364 0.87631 0.0
C2415 C 0.9541 0.32164 0.88474 0.0
C2416 C 0.95272 0.32939 0.89839 0.0
C2417 C 0.96433 0.33837 0.9037 0.0
C2418 C 0.92155 0.29422 0.88531 0.0
C2419 C 0.91882 0.29198 0.87004 0.0
C2420 C 0.9331 0.30358 0.89001 0.0
C2421 C 0.94198 0.31134 0.87956 0.0
C2422 C 0.93915 0.30908 0.86422 0.0
C2423 C 0.92782 0.29935 0.85952 0.0
H2424 H 0.96787 0.68289 0.10118 0.0
H2425 H 0.95378 0.65569 0.13855 0.0
H2426 H 0.95173 0.70311 0.10984 0.0
H2427 H 0.93745 0.67576 0.147 0.0
H2428 H 0.9102 0.73075 0.12234 0.0
H2429 H 0.92556 0.71019 0.11298 0.0
H2430 H 0.93976 0.70031 0.15806 0.0
H2431 H 0.92425 0.72059 0.16743 0.0
C2432 C 0.96125 0.68117 0.11117 0.0
C2433 C 0.96218 0.66769 0.11921 0.0
C2434 C 0.95193 0.69274 0.11609 0.0
C2435 C 0.94334 0.69109 0.12916 0.0
C2436 C 0.9441 0.67751 0.13704 0.0
C2437 C 0.95341 0.66596 0.13213 0.0
C2438 C 0.91658 0.72417 0.13025 0.0
C2439 C 0.91596 0.72731 0.14564 0.0
C2440 C 0.92545 0.71244 0.12487 0.0
C2441 C 0.93386 0.70357 0.13477 0.0
C2442 C 0.93324 0.70675 0.15014 0.0
C2443 C 0.9244 0.71845 0.15551 0.0
H2444 H 0.53618 0.67488 0.41715 0.0
H2445 H 0.52606 0.65998 0.37232 0.0
H2446 H 0.55628 0.69037 0.40753 0.0
H2447 H 0.54651 0.6754 0.36268 0.0
H2448 H 0.57347 0.71845 0.35095 0.0
H2449 H 0.55343 0.70189 0.35937 0.0
H2450 H 0.58083 0.68768 0.3965 0.0
H2451 H 0.60067 0.70436 0.38831 0.0
C2452 C 0.53829 0.67483 0.40523 0.0
C2453 C 0.52951 0.66615 0.39551 0.0
C2454 C 0.5499 0.68367 0.39972 0.0
C2455 C 0.55307 0.68406 0.38434 0.0
C2456 C 0.54427 0.67543 0.37457 0.0
C2457 C 0.53262 0.66654 0.3801 0.0
C2458 C 0.57523 0.71174 0.36088 0.0
C2459 C 0.58863 0.71283 0.36902 0.0
C2460 C 0.56377 0.70219 0.36565 0.0
C2461 C 0.56549 0.69354 0.37866 0.0
C2462 C 0.57904 0.69439 0.38658 0.0
C2463 C 0.59045 0.70391 0.38183 0.0
H2464 H 0.83954 0.58155 0.72076 0.0
H2465 H 0.88454 0.59611 0.73069 0.0
H2466 H 0.84898 0.56601 0.7006 0.0
H2467 H 0.89399 0.58067 0.71019 0.0
H2468 H 0.86783 0.55227 0.656 0.0
H2469 H 0.85985 0.5688 0.67602 0.0
H2470 H 0.89719 0.55427 0.70299 0.0
H2471 H 0.9054 0.53786 0.68273 0.0
C2472 C 0.85146 0.58151 0.7186 0.0
C2473 C 0.86128 0.59012 0.72733 0.0
C2474 C 0.85686 0.57265 0.70696 0.0
C2475 C 0.87223 0.57217 0.7037 0.0
C2476 C 0.8821 0.5807 0.71248 0.0
C2477 C 0.87667 0.58961 0.72417 0.0
C2478 C 0.8744 0.55262 0.66616 0.0
C2479 C 0.88721 0.54366 0.66779 0.0
C2480 C 0.86977 0.56206 0.67768 0.0
C2481 C 0.87779 0.56276 0.69117 0.0
C2482 C 0.89082 0.55407 0.69269 0.0
C2483 C 0.89548 0.54461 0.68112 0.0
H2484 H 0.71835 0.65554 0.9318 0.0
H2485 H 0.70531 0.61803 0.90427 0.0
H2486 H 0.70193 0.64661 0.95167 0.0
H2487 H 0.68873 0.60929 0.92399 0.0
H2488 H 0.67567 0.58849 0.96876 0.0
H2489 H 0.69107 0.59822 0.94861 0.0
H2490 H 0.67556 0.64295 0.95822 0.0
H2491 H 0.66027 0.63322 0.97867 0.0
C2492 C 0.71191 0.64546 0.92993 0.0
C2493 C 0.71322 0.63746 0.91647 0.0
C2494 C 0.70242 0.64039 0.9413 0.0
C2495 C 0.69406 0.6272 0.93945 0.0
C2496 C 0.69519 0.61936 0.92588 0.0
C2497 C 0.70465 0.62442 0.91453 0.0
C2498 C 0.67549 0.6004 0.96659 0.0
C2499 C 0.66672 0.61007 0.97535 0.0
C2500 C 0.68427 0.60598 0.95495 0.0
C2501 C 0.68452 0.62137 0.95176 0.0
C2502 C 0.67573 0.63106 0.96049 0.0
C2503 C 0.66691 0.62547 0.97215 0.0
H2504 H 0.66478 0.41186 0.21157 0.0
H2505 H 0.6254 0.42206 0.23745 0.0
H2506 H 0.65562 0.42744 0.1913 0.0
H2507 H 0.61663 0.43866 0.21772 0.0
H2508 H 0.59828 0.45866 0.17492 0.0
H2509 H 0.60644 0.44143 0.1944 0.0
H2510 H 0.65256 0.45146 0.1836 0.0
H2511 H 0.64427 0.46767 0.1635 0.0
C2512 C 0.65421 0.41761 0.21295 0.0
C2513 C 0.6458 0.41579 0.22605 0.0
C2514 C 0.64898 0.4267 0.20138 0.0
C2515 C 0.6354 0.43458 0.20279 0.0
C2516 C 0.62698 0.43265 0.21598 0.0
C2517 C 0.63204 0.4232 0.22738 0.0
C2518 C 0.61015 0.45707 0.17674 0.0
C2519 C 0.62065 0.4644 0.16767 0.0
C2520 C 0.61488 0.44727 0.18799 0.0
C2521 C 0.63023 0.44489 0.19069 0.0
C2522 C 0.64067 0.45255 0.1817 0.0
C2523 C 0.63593 0.462 0.17022 0.0
H2524 H 0.7872 0.35182 0.43214 0.0
H2525 H 0.80133 0.38914 0.40488 0.0
H2526 H 0.80347 0.36047 0.4523 0.0
H2527 H 0.81771 0.39758 0.42485 0.0
H2528 H 0.83071 0.41821 0.46955 0.0
H2529 H 0.81512 0.40868 0.44945 0.0
H2530 H 0.82991 0.36372 0.45914 0.0
H2531 H 0.84539 0.37325 0.47953 0.0
C2532 C 0.79385 0.36179 0.4304 0.0
C2533 C 0.79289 0.36983 0.41693 0.0
C2534 C 0.80323 0.3667 0.44193 0.0
C2535 C 0.81183 0.37976 0.44022 0.0
C2536 C 0.81105 0.38762 0.42664 0.0
C2537 C 0.8017 0.38272 0.41514 0.0
C2538 C 0.83068 0.40629 0.46741 0.0
C2539 C 0.83933 0.3965 0.47615 0.0
C2540 C 0.82179 0.40083 0.45581 0.0
C2541 C 0.82131 0.38544 0.45263 0.0
C2542 C 0.82993 0.37562 0.46139 0.0
C2543 C 0.83886 0.3811 0.47301 0.0
H2544 H 0.84237 0.41134 0.79417 0.0
H2545 H 0.88163 0.421 0.7679 0.0
H2546 H 0.85203 0.42659 0.81443 0.0
H2547 H 0.89094 0.4373 0.78769 0.0
H2548 H 0.90964 0.45722 0.83059 0.0
H2549 H 0.90129 0.44006 0.81108 0.0
H2550 H 0.85529 0.45066 0.82182 0.0
H2551 H 0.86374 0.46678 0.84189 0.0
C2552 C 0.85304 0.4169 0.79271 0.0
C2553 C 0.86124 0.41506 0.77948 0.0
C2554 C 0.85855 0.4258 0.80428 0.0
C2555 C 0.87222 0.43349 0.80275 0.0
C2556 C 0.8805 0.43146 0.78948 0.0
C2557 C 0.87514 0.42219 0.77805 0.0
C2558 C 0.89776 0.45575 0.82876 0.0
C2559 C 0.88733 0.46321 0.83781 0.0
C2560 C 0.89293 0.446 0.8175 0.0
C2561 C 0.87755 0.44378 0.8148 0.0
C2562 C 0.8672 0.4516 0.82375 0.0
C2563 C 0.87203 0.46099 0.83522 0.0
H2564 H 0.78771 0.65591 0.0723 0.0
H2565 H 0.80258 0.61874 0.09937 0.0
H2566 H 0.80403 0.64753 0.052 0.0
H2567 H 0.81896 0.61061 0.07931 0.0
H2568 H 0.83098 0.58956 0.03482 0.0
H2569 H 0.81559 0.5994 0.05487 0.0
H2570 H 0.8306 0.64416 0.04465 0.0
H2571 H 0.84596 0.63429 0.02424 0.0
C2572 C 0.79453 0.64605 0.07398 0.0
C2573 C 0.79373 0.63792 0.08742 0.0
C2574 C 0.80394 0.64129 0.06238 0.0
C2575 C 0.81269 0.62832 0.06399 0.0
C2576 C 0.81215 0.62048 0.07759 0.0
C2577 C 0.8028 0.6252 0.08913 0.0
C2578 C 0.83105 0.60151 0.03681 0.0
C2579 C 0.83976 0.61113 0.02794 0.0
C2580 C 0.82227 0.60715 0.04839 0.0
C2581 C 0.82195 0.62256 0.05144 0.0
C2582 C 0.83054 0.63224 0.04251 0.0
C2583 C 0.83939 0.62657 0.03088 0.0
H2584 H 0.6234 0.59655 0.27577 0.0
H2585 H 0.66835 0.58199 0.28592 0.0
H2586 H 0.61384 0.58102 0.29612 0.0
H2587 H 0.65879 0.56635 0.30596 0.0
H2588 H 0.60211 0.53814 0.32311 0.0
H2589 H 0.61067 0.55452 0.30298 0.0
H2590 H 0.64762 0.56899 0.3305 0.0
H2591 H 0.63929 0.55251 0.35043 0.0
C2592 C 0.63124 0.59004 0.28231 0.0
C2593 C 0.64665 0.59056 0.27924 0.0
C2594 C 0.62574 0.58108 0.29391 0.0
C2595 C 0.63556 0.57249 0.3027 0.0
C2596 C 0.65095 0.57301 0.29958 0.0
C2597 C 0.65643 0.58193 0.28801 0.0
C2598 C 0.61203 0.54486 0.32487 0.0
C2599 C 0.62006 0.54393 0.33835 0.0
C2600 C 0.61689 0.5543 0.31337 0.0
C2601 C 0.62988 0.56299 0.3151 0.0
C2602 C 0.63772 0.56226 0.3287 0.0
C2603 C 0.63288 0.55285 0.34016 0.0
H2604 H 0.66193 0.41515 0.54382 0.0
H2605 H 0.67149 0.37555 0.51802 0.0
H2606 H 0.67735 0.40579 0.5641 0.0
H2607 H 0.68795 0.36655 0.53779 0.0
H2608 H 0.70795 0.34832 0.58084 0.0
H2609 H 0.69081 0.35646 0.56124 0.0
H2610 H 0.70142 0.40259 0.57148 0.0
H2611 H 0.71752 0.39433 0.59166 0.0
C2612 C 0.6675 0.40448 0.54246 0.0
C2613 C 0.66557 0.39609 0.52937 0.0
C2614 C 0.6765 0.39913 0.55403 0.0
C2615 C 0.6842 0.38545 0.55263 0.0
C2616 C 0.6821 0.377 0.53949 0.0
C2617 C 0.67273 0.38219 0.52807 0.0
C2618 C 0.7065 0.36018 0.57886 0.0
C2619 C 0.71393 0.3707 0.58782 0.0
C2620 C 0.69675 0.3649 0.56755 0.0
C2621 C 0.69454 0.38025 0.5647 0.0
C2622 C 0.70236 0.3907 0.57352 0.0
C2623 C 0.71175 0.38598 0.58505 0.0
H2624 H 0.71183 0.84235 0.59585 0.0
H2625 H 0.73815 0.88146 0.58566 0.0
H2626 H 0.69163 0.85175 0.58035 0.0
H2627 H 0.71841 0.89049 0.56913 0.0
H2628 H 0.67559 0.90869 0.54856 0.0
H2629 H 0.69494 0.90072 0.56608 0.0
H2630 H 0.68462 0.85449 0.55606 0.0
H2631 H 0.66472 0.86256 0.53954 0.0
C2632 C 0.71331 0.85293 0.59014 0.0
C2633 C 0.72653 0.86116 0.59188 0.0
C2634 C 0.70178 0.85829 0.5811 0.0
C2635 C 0.70336 0.87182 0.57318 0.0
C2636 C 0.7166 0.88015 0.57515 0.0
C2637 C 0.72799 0.87496 0.58455 0.0
C2638 C 0.67748 0.89684 0.55022 0.0
C2639 C 0.6686 0.88624 0.54281 0.0
C2640 C 0.68865 0.89223 0.56019 0.0
C2641 C 0.69141 0.87691 0.56267 0.0
C2642 C 0.68264 0.86637 0.5549 0.0
C2643 C 0.67126 0.87098 0.54528 0.0
H2644 H 0.2126 0.66513 0.4111 0.0
H2645 H 0.23873 0.62598 0.42159 0.0
H2646 H 0.19228 0.65586 0.42655 0.0
H2647 H 0.21892 0.6171 0.43807 0.0
H2648 H 0.17614 0.5985 0.45796 0.0
H2649 H 0.19568 0.60674 0.44083 0.0
H2650 H 0.18434 0.65282 0.45044 0.0
H2651 H 0.16419 0.64443 0.46655 0.0
C2652 C 0.21403 0.65458 0.41689 0.0
C2653 C 0.22722 0.64628 0.41518 0.0
C2654 C 0.20242 0.64929 0.4259 0.0
C2655 C 0.20388 0.63574 0.43383 0.0
C2656 C 0.21716 0.62742 0.43202 0.0
C2657 C 0.2286 0.63255 0.42264 0.0
C2658 C 0.17784 0.61038 0.45629 0.0
C2659 C 0.16861 0.62082 0.46348 0.0
C2660 C 0.18913 0.61515 0.44655 0.0
C2661 C 0.19171 0.63051 0.44408 0.0
C2662 C 0.18255 0.64091 0.45159 0.0
C2663 C 0.17102 0.63612 0.46098 0.0
H2664 H 0.65492 0.93388 0.71876 0.0
H2665 H 0.6182 0.90618 0.70395 0.0
H2666 H 0.64643 0.9539 0.70215 0.0
H2667 H 0.60995 0.92597 0.68729 0.0
H2668 H 0.63341 0.98092 0.65978 0.0
H2669 H 0.64329 0.96077 0.67544 0.0
H2670 H 0.59848 0.95038 0.69019 0.0
H2671 H 0.58864 0.97019 0.67448 0.0
C2672 C 0.64512 0.93201 0.7119 0.0
C2673 C 0.63717 0.91848 0.71278 0.0
C2674 C 0.64031 0.94345 0.70233 0.0
C2675 C 0.62744 0.94157 0.69349 0.0
C2676 C 0.61974 0.92789 0.69414 0.0
C2677 C 0.62453 0.9165 0.70367 0.0
C2678 C 0.62569 0.97429 0.66634 0.0
C2679 C 0.61023 0.97713 0.66581 0.0
C2680 C 0.63135 0.96281 0.67537 0.0
C2681 C 0.62166 0.95392 0.68399 0.0
C2682 C 0.60624 0.95685 0.68349 0.0
C2683 C 0.6006 0.96828 0.67452 0.0
H2684 H 0.34186 0.36332 0.96714 0.0
H2685 H 0.33138 0.40964 0.95863 0.0
H2686 H 0.3217 0.35561 0.95079 0.0
H2687 H 0.31173 0.40202 0.94126 0.0
H2688 H 0.26817 0.38302 0.92181 0.0
H2689 H 0.28809 0.3919 0.93823 0.0
H2690 H 0.31471 0.35322 0.92644 0.0
H2691 H 0.29437 0.34398 0.91106 0.0
C2692 C 0.33534 0.37187 0.96154 0.0
C2693 C 0.33821 0.38707 0.96409 0.0
C2694 C 0.32382 0.36746 0.95201 0.0
C2695 C 0.31509 0.37814 0.94441 0.0
C2696 C 0.31801 0.39342 0.94701 0.0
C2697 C 0.32934 0.39783 0.95689 0.0
C2698 C 0.27834 0.3765 0.92277 0.0
C2699 C 0.27971 0.36275 0.91533 0.0
C2700 C 0.28982 0.38161 0.93211 0.0
C2701 C 0.30306 0.37323 0.93391 0.0
C2702 C 0.30456 0.35978 0.92584 0.0
C2703 C 0.29295 0.35451 0.91687 0.0
H2704 H 0.37517 0.51796 0.67141 0.0
H2705 H 0.41437 0.54406 0.66099 0.0
H2706 H 0.36629 0.5378 0.68789 0.0
H2707 H 0.40512 0.56436 0.67644 0.0
H2708 H 0.39415 0.5919 0.71686 0.0
H2709 H 0.40228 0.57181 0.70058 0.0
H2710 H 0.35608 0.56125 0.6907 0.0
H2711 H 0.34807 0.58078 0.70798 0.0
C2712 C 0.38175 0.52808 0.67247 0.0
C2713 C 0.39551 0.52945 0.66506 0.0
C2714 C 0.37663 0.53953 0.68185 0.0
C2715 C 0.385 0.55277 0.68371 0.0
C2716 C 0.39853 0.55423 0.67577 0.0
C2717 C 0.40381 0.54264 0.66676 0.0
C2718 C 0.38575 0.58526 0.7112 0.0
C2719 C 0.37049 0.5879 0.71365 0.0
C2720 C 0.39039 0.57377 0.70171 0.0
C2721 C 0.37989 0.56487 0.69407 0.0
C2722 C 0.36456 0.56763 0.69651 0.0
C2723 C 0.35992 0.5789 0.70634 0.0
H2724 H 0.76881 0.12464 0.08414 0.0
H2725 H 0.79485 0.16398 0.0941 0.0
H2726 H 0.78851 0.11574 0.06751 0.0
H2727 H 0.81503 0.15473 0.07847 0.0
H2728 H 0.84209 0.14382 0.03777 0.0
H2729 H 0.82212 0.15186 0.05422 0.0
H2730 H 0.81203 0.10563 0.06445 0.0
H2731 H 0.83146 0.09768 0.047 0.0
C2732 C 0.77889 0.13124 0.08294 0.0
C2733 C 0.78027 0.14505 0.09027 0.0
C2734 C 0.79027 0.12612 0.07348 0.0
C2735 C 0.80344 0.13453 0.07143 0.0
C2736 C 0.80494 0.14811 0.07929 0.0
C2737 C 0.79342 0.15339 0.0884 0.0
C2738 C 0.83559 0.13539 0.04354 0.0
C2739 C 0.83834 0.12013 0.04115 0.0
C2740 C 0.82417 0.13998 0.05313 0.0
C2741 C 0.81544 0.12945 0.06094 0.0
C2742 C 0.81829 0.11412 0.05853 0.0
C2743 C 0.8295 0.10953 0.0486 0.0
H2744 H 0.63059 0.01874 0.83527 0.0
H2745 H 0.59089 0.0446 0.84426 0.0
H2746 H 0.6397 0.03839 0.81871 0.0
H2747 H 0.60036 0.06477 0.82874 0.0
H2748 H 0.61197 0.09169 0.7881 0.0
H2749 H 0.60367 0.07182 0.80458 0.0
H2750 H 0.64975 0.06183 0.81559 0.0
H2751 H 0.65795 0.0811 0.79809 0.0
C2752 C 0.62396 0.02879 0.83389 0.0
C2753 C 0.61 0.03013 0.84091 0.0
C2754 C 0.62921 0.04014 0.82446 0.0
C2755 C 0.62076 0.05325 0.82216 0.0
C2756 C 0.60702 0.05472 0.82975 0.0
C2757 C 0.60162 0.04321 0.8388 0.0
C2758 C 0.62031 0.08521 0.79404 0.0
C2759 C 0.63559 0.08793 0.79185 0.0
C2760 C 0.61556 0.07386 0.80365 0.0
C2761 C 0.62598 0.06519 0.81168 0.0
C2762 C 0.64134 0.06803 0.80948 0.0
C2763 C 0.64608 0.07915 0.79953 0.0
H2764 H 0.91381 0.96158 0.34472 0.0
H2765 H 0.87461 0.98793 0.335 0.0
H2766 H 0.90439 0.94153 0.32904 0.0
H2767 H 0.86556 0.96837 0.31828 0.0
H2768 H 0.84721 0.92575 0.2975 0.0
H2769 H 0.85531 0.94498 0.31508 0.0
H2770 H 0.90146 0.93459 0.30477 0.0
H2771 H 0.89325 0.91478 0.28819 0.0
C2772 C 0.90321 0.9631 0.33907 0.0
C2773 C 0.89495 0.97629 0.34101 0.0
C2774 C 0.89783 0.95166 0.32992 0.0
C2775 C 0.88426 0.9533 0.32209 0.0
C2776 C 0.87593 0.96651 0.32423 0.0
C2777 C 0.88114 0.9778 0.33374 0.0
C2778 C 0.85907 0.92761 0.29911 0.0
C2779 C 0.86961 0.91873 0.2916 0.0
C2780 C 0.86376 0.9387 0.30911 0.0
C2781 C 0.8791 0.94141 0.31153 0.0
C2782 C 0.88957 0.93265 0.30366 0.0
C2783 C 0.88488 0.92133 0.29401 0.0
H2784 H 0.4676 0.34263 0.14366 0.0
H2785 H 0.45795 0.33208 0.09762 0.0
H2786 H 0.45131 0.32254 0.15181 0.0
H2787 H 0.44063 0.3126 0.10567 0.0
H2788 H 0.42152 0.26916 0.12429 0.0
H2789 H 0.43789 0.28909 0.1155 0.0
H2790 H 0.42733 0.3149 0.15507 0.0
H2791 H 0.41199 0.29443 0.16422 0.0
C2792 C 0.46176 0.33612 0.13528 0.0
C2793 C 0.46401 0.3389 0.12002 0.0
C2794 C 0.45227 0.32464 0.13994 0.0
C2795 C 0.44441 0.31588 0.12946 0.0
C2796 C 0.44662 0.31883 0.11413 0.0
C2797 C 0.45647 0.33009 0.10947 0.0
C2798 C 0.42275 0.27914 0.13105 0.0
C2799 C 0.41562 0.28023 0.14497 0.0
C2800 C 0.43206 0.29065 0.12598 0.0
C2801 C 0.43413 0.30372 0.13457 0.0
C2802 C 0.42648 0.30491 0.14829 0.0
C2803 C 0.41754 0.29323 0.15352 0.0
H2804 H 0.43304 0.71894 0.8518 0.0
H2805 H 0.40565 0.70427 0.88881 0.0
H2806 H 0.45324 0.70267 0.86036 0.0
H2807 H 0.42567 0.68787 0.89715 0.0
H2808 H 0.47033 0.67473 0.9178 0.0
H2809 H 0.45017 0.69032 0.90839 0.0
H2810 H 0.46028 0.67631 0.8633 0.0
H2811 H 0.48074 0.66083 0.87272 0.0
C2812 C 0.43128 0.71218 0.86169 0.0
C2813 C 0.41775 0.71298 0.86966 0.0
C2814 C 0.44283 0.7028 0.86655 0.0
C2815 C 0.4411 0.69403 0.87949 0.0
C2816 C 0.42747 0.69466 0.88729 0.0
C2817 C 0.41595 0.70402 0.88245 0.0
C2818 C 0.46827 0.67493 0.90587 0.0
C2819 C 0.47716 0.6665 0.89602 0.0
C2820 C 0.45664 0.68382 0.90048 0.0
C2821 C 0.45355 0.68452 0.88509 0.0
C2822 C 0.46245 0.67612 0.8752 0.0
C2823 C 0.47412 0.66719 0.88061 0.0
H2824 H 0.04914 0.67371 0.59763 0.0
H2825 H 0.03926 0.6628 0.64354 0.0
H2826 H 0.06619 0.69332 0.60589 0.0
H2827 H 0.05527 0.68303 0.65192 0.0
H2828 H 0.09429 0.71146 0.66466 0.0
H2829 H 0.07914 0.69092 0.65538 0.0
H2830 H 0.06858 0.7168 0.61585 0.0
H2831 H 0.08477 0.73681 0.62477 0.0
C2832 C 0.05051 0.67566 0.6095 0.0
C2833 C 0.04299 0.66671 0.61995 0.0
C2834 C 0.0602 0.68698 0.61428 0.0
C2835 C 0.06225 0.68988 0.62964 0.0
C2836 C 0.05443 0.68098 0.64003 0.0
C2837 C 0.0451 0.66942 0.63524 0.0
C2838 C 0.08878 0.71266 0.65395 0.0
C2839 C 0.09066 0.72569 0.64544 0.0
C2840 C 0.07994 0.70093 0.64864 0.0
C2841 C 0.07237 0.70212 0.63487 0.0
C2842 C 0.07437 0.71524 0.62635 0.0
C2843 C 0.08357 0.7268 0.6315 0.0
H2844 H 0.10059 0.30148 0.38904 0.0
H2845 H 0.07325 0.28784 0.35162 0.0
H2846 H 0.08089 0.31833 0.39731 0.0
H2847 H 0.05338 0.30452 0.3601 0.0
H2848 H 0.03617 0.33219 0.41758 0.0
H2849 H 0.05627 0.31643 0.40828 0.0
H2850 H 0.04685 0.33089 0.36318 0.0
H2851 H 0.02645 0.3465 0.37247 0.0
C2852 C 0.09037 0.30206 0.38257 0.0
C2853 C 0.08848 0.29326 0.36969 0.0
C2854 C 0.07904 0.31167 0.38736 0.0
C2855 C 0.06551 0.31271 0.37943 0.0
C2856 C 0.06371 0.3041 0.36639 0.0
C2857 C 0.07508 0.29447 0.36158 0.0
C2858 C 0.03838 0.33206 0.40568 0.0
C2859 C 0.02969 0.34062 0.39577 0.0
C2860 C 0.04998 0.32308 0.40035 0.0
C2861 C 0.05322 0.32243 0.38499 0.0
C2862 C 0.04455 0.33102 0.37507 0.0
C2863 C 0.03292 0.34003 0.3804 0.0
H2864 H 0.42516 0.72042 0.33854 0.0
H2865 H 0.41075 0.73035 0.38357 0.0
H2866 H 0.44058 0.7001 0.34791 0.0
H2867 H 0.42603 0.70973 0.39294 0.0
H2868 H 0.45474 0.65549 0.36722 0.0
H2869 H 0.43828 0.67548 0.35884 0.0
H2870 H 0.45224 0.70273 0.39618 0.0
H2871 H 0.46852 0.68259 0.40477 0.0
C2872 C 0.4252 0.71822 0.35045 0.0
C2873 C 0.4167 0.72703 0.3603 0.0
C2874 C 0.43399 0.70648 0.35581 0.0
C2875 C 0.43451 0.70323 0.37118 0.0
C2876 C 0.426 0.71203 0.38106 0.0
C2877 C 0.41718 0.7238 0.37568 0.0
C2878 C 0.45428 0.66571 0.3737 0.0
C2879 C 0.46301 0.66744 0.38664 0.0
C2880 C 0.44489 0.67722 0.36884 0.0
C2881 C 0.444 0.69076 0.37678 0.0
C2882 C 0.45254 0.6924 0.38988 0.0
C2883 C 0.46194 0.68087 0.39475 0.0
H2884 H 0.03536 0.67491 0.08877 0.0
H2885 H 0.02504 0.66007 0.13358 0.0
H2886 H 0.05542 0.69042 0.09846 0.0
H2887 H 0.04544 0.6755 0.14328 0.0
H2888 H 0.07239 0.71845 0.15519 0.0
H2889 H 0.05236 0.70193 0.14664 0.0
H2890 H 0.07992 0.68782 0.10958 0.0
H2891 H 0.09973 0.70446 0.1179 0.0
C2892 C 0.03742 0.67488 0.1007 0.0
C2893 C 0.02859 0.66621 0.11039 0.0
C2894 C 0.04901 0.68372 0.10625 0.0
C2895 C 0.0521 0.68414 0.12164 0.0
C2896 C 0.04326 0.67551 0.13138 0.0
C2897 C 0.03163 0.66661 0.12581 0.0
C2898 C 0.07418 0.71177 0.14525 0.0
C2899 C 0.08762 0.71287 0.13717 0.0
C2900 C 0.06274 0.70225 0.1404 0.0
C2901 C 0.0645 0.69363 0.12737 0.0
C2902 C 0.07808 0.6945 0.11951 0.0
C2903 C 0.08948 0.704 0.12433 0.0
H2904 H 0.09609 0.29391 0.84242 0.0
H2905 H 0.08597 0.26769 0.88159 0.0
H2906 H 0.08068 0.31417 0.85182 0.0
H2907 H 0.06951 0.2875 0.89064 0.0
H2908 H 0.04928 0.33059 0.90883 0.0
H2909 H 0.06653 0.31099 0.90085 0.0
H2910 H 0.05647 0.32134 0.85466 0.0
H2911 H 0.04025 0.34149 0.86274 0.0
C2912 C 0.0904 0.29247 0.85301 0.0
C2913 C 0.09215 0.27925 0.86126 0.0
C2914 C 0.08141 0.30403 0.85838 0.0
C2915 C 0.07353 0.3025 0.87193 0.0
C2916 C 0.07549 0.28926 0.88027 0.0
C2917 C 0.08485 0.27784 0.87507 0.0
C2918 C 0.05087 0.32864 0.89699 0.0
C2919 C 0.04356 0.33762 0.8864 0.0
C2920 C 0.06069 0.31734 0.89237 0.0
C2921 C 0.0631 0.31453 0.87705 0.0
C2922 C 0.05538 0.32336 0.86654 0.0
C2923 C 0.04593 0.33488 0.87115 0.0
H2924 H 0.48817 0.33523 0.63167 0.0
H2925 H 0.46207 0.34529 0.5924 0.0
H2926 H 0.46828 0.31893 0.64077 0.0
H2927 H 0.44171 0.33003 0.60187 0.0
H2928 H 0.41422 0.28969 0.61312 0.0
H2929 H 0.43435 0.30588 0.60488 0.0
H2930 H 0.4448 0.31622 0.65099 0.0
H2931 H 0.42523 0.29901 0.65912 0.0
C2932 C 0.47803 0.33414 0.62513 0.0
C2933 C 0.47668 0.34137 0.61129 0.0
C2934 C 0.46655 0.32487 0.63037 0.0
C2935 C 0.45331 0.32294 0.62203 0.0
C2936 C 0.45185 0.33075 0.60843 0.0
C2937 C 0.46347 0.33965 0.60303 0.0
C2938 C 0.42085 0.29543 0.62147 0.0
C2939 C 0.41816 0.29314 0.63674 0.0
C2940 C 0.43235 0.30487 0.61677 0.0
C2941 C 0.44122 0.31262 0.62722 0.0
C2942 C 0.43843 0.31032 0.64256 0.0
C2943 C 0.42714 0.30054 0.64726 0.0
H2944 H 0.10066 0.46831 0.32399 0.0
H2945 H 0.13807 0.45414 0.35109 0.0
H2946 H 0.10903 0.45178 0.30391 0.0
H2947 H 0.14621 0.43748 0.33121 0.0
H2948 H 0.12186 0.40997 0.27641 0.0
H2949 H 0.11229 0.42537 0.29688 0.0
H2950 H 0.15723 0.44013 0.30667 0.0
H2951 H 0.16678 0.42464 0.28654 0.0
C2952 C 0.11059 0.46158 0.32572 0.0
C2953 C 0.11876 0.46264 0.33911 0.0
C2954 C 0.11533 0.45205 0.31424 0.0
C2955 C 0.12835 0.44339 0.31591 0.0
C2956 C 0.13629 0.4442 0.32945 0.0
C2957 C 0.13157 0.45371 0.34089 0.0
C2958 C 0.12969 0.41648 0.28297 0.0
C2959 C 0.14509 0.41602 0.27986 0.0
C2960 C 0.12419 0.42536 0.29465 0.0
C2961 C 0.134 0.43393 0.30346 0.0
C2962 C 0.14938 0.43348 0.30028 0.0
C2963 C 0.15485 0.42464 0.28866 0.0
H2964 H 0.33483 0.37478 0.0187 0.0
H2965 H 0.34385 0.41446 0.04459 0.0
H2966 H 0.31815 0.36572 0.03826 0.0
H2967 H 0.32816 0.40505 0.06464 0.0
H2968 H 0.28775 0.39337 0.09169 0.0
H2969 H 0.30393 0.40168 0.07161 0.0
H2970 H 0.31519 0.35563 0.06177 0.0
H2971 H 0.29798 0.34739 0.08132 0.0
C2972 C 0.33341 0.38144 0.02872 0.0
C2973 C 0.34051 0.39537 0.0301 0.0
C2974 C 0.32391 0.37622 0.04001 0.0
C2975 C 0.3216 0.38465 0.05312 0.0
C2976 C 0.32919 0.39839 0.0546 0.0
C2977 C 0.33834 0.40377 0.04315 0.0
C2978 C 0.29367 0.38504 0.0852 0.0
C2979 C 0.29167 0.36975 0.08807 0.0
C2980 C 0.30311 0.38979 0.07372 0.0
C2981 C 0.31116 0.37939 0.06507 0.0
C2982 C 0.30908 0.36402 0.06799 0.0
C2983 C 0.29929 0.35926 0.07925 0.0
H2984 H 0.40574 0.53797 0.82464 0.0
H2985 H 0.368 0.5519 0.85142 0.0
H2986 H 0.39732 0.55429 0.80441 0.0
H2987 H 0.35981 0.56835 0.8314 0.0
H2988 H 0.33952 0.58111 0.78655 0.0
H2989 H 0.34899 0.56568 0.8068 0.0
H2990 H 0.39394 0.58059 0.79729 0.0
H2991 H 0.38447 0.5959 0.77673 0.0
C2992 C 0.39573 0.5446 0.82627 0.0
C2993 C 0.38749 0.54355 0.83962 0.0
C2994 C 0.39095 0.55401 0.8147 0.0
C2995 C 0.37783 0.56255 0.81624 0.0
C2996 C 0.36981 0.56172 0.82973 0.0
C2997 C 0.37457 0.55234 0.84126 0.0
C2998 C 0.35143 0.58115 0.78876 0.0
C2999 C 0.36123 0.58978 0.78001 0.0
C3000 C 0.35685 0.57235 0.80045 0.0
C3001 C 0.37222 0.57195 0.80373 0.0
C3002 C 0.38205 0.58055 0.79497 0.0
C3003 C 0.37662 0.58938 0.78324 0.0
H3004 H 0.20776 0.65911 0.58215 0.0
H3005 H 0.21791 0.61302 0.59215 0.0
H3006 H 0.19062 0.65108 0.56249 0.0
H3007 H 0.20181 0.60493 0.57193 0.0
H3008 H 0.16272 0.59219 0.544 0.0
H3009 H 0.17777 0.60156 0.56454 0.0
H3010 H 0.18792 0.64132 0.53883 0.0
H3011 H 0.1718 0.63228 0.51878 0.0
C3012 C 0.20643 0.64726 0.58 0.0
C3013 C 0.21404 0.63668 0.58873 0.0
C3014 C 0.19668 0.64262 0.56865 0.0
C3015 C 0.19464 0.62729 0.56555 0.0
C3016 C 0.20261 0.61679 0.57417 0.0
C3017 C 0.212 0.62142 0.58573 0.0
C3018 C 0.16811 0.60298 0.54283 0.0
C3019 C 0.16617 0.61149 0.52982 0.0
C3020 C 0.17689 0.60834 0.55456 0.0
C3021 C 0.18438 0.62216 0.55339 0.0
C3022 C 0.18224 0.63075 0.54034 0.0
C3023 C 0.17307 0.62554 0.52877 0.0
H3024 H 0.12492 0.58491 0.23805 0.0
H3025 H 0.16406 0.59493 0.21172 0.0
H3026 H 0.11567 0.56865 0.21822 0.0
H3027 H 0.15444 0.57972 0.19141 0.0
H3028 H 0.14268 0.5395 0.16378 0.0
H3029 H 0.15121 0.55572 0.18376 0.0
H3030 H 0.10524 0.566 0.19494 0.0
H3031 H 0.09683 0.54876 0.17556 0.0
C3032 C 0.1314 0.58382 0.22787 0.0
C3033 C 0.14525 0.59104 0.22644 0.0
C3034 C 0.12607 0.57457 0.21642 0.0
C3035 C 0.13431 0.57266 0.20311 0.0
C3036 C 0.14794 0.58043 0.20158 0.0
C3037 C 0.15343 0.5893 0.21318 0.0
C3038 C 0.13442 0.54525 0.17053 0.0
C3039 C 0.11911 0.5429 0.16813 0.0
C3040 C 0.1393 0.5547 0.18195 0.0
C3041 C 0.12897 0.56241 0.19102 0.0
C3042 C 0.11359 0.56012 0.18845 0.0
C3043 C 0.10873 0.55032 0.17725 0.0
H3044 H 0.1749 0.41818 0.97107 0.0
H3045 H 0.16011 0.37318 0.9807 0.0
H3046 H 0.19049 0.40878 0.95092 0.0
H3047 H 0.17562 0.36377 0.96024 0.0
H3048 H 0.20417 0.38973 0.9062 0.0
H3049 H 0.18771 0.39786 0.92623 0.0
H3050 H 0.2022 0.36063 0.95336 0.0
H3051 H 0.21858 0.35228 0.93314 0.0
C3052 C 0.1749 0.40627 0.96885 0.0
C3053 C 0.16622 0.39644 0.9775 0.0
C3054 C 0.1838 0.40089 0.95722 0.0
C3055 C 0.18425 0.38553 0.95391 0.0
C3056 C 0.17561 0.37565 0.96259 0.0
C3057 C 0.16666 0.38106 0.97424 0.0
C3058 C 0.20384 0.38322 0.9164 0.0
C3059 C 0.21277 0.37038 0.91808 0.0
C3060 C 0.19445 0.38794 0.92792 0.0
C3061 C 0.19373 0.37997 0.94144 0.0
C3062 C 0.20242 0.36695 0.94304 0.0
C3063 C 0.21186 0.36222 0.93148 0.0
H3064 H 0.36844 0.45379 0.6558 0.0
H3065 H 0.40567 0.46888 0.68264 0.0
H3066 H 0.36031 0.43764 0.67605 0.0
H3067 H 0.3973 0.4528 0.70313 0.0
H3068 H 0.38422 0.41106 0.73119 0.0
H3069 H 0.39399 0.42631 0.71068 0.0
H3070 H 0.34917 0.44116 0.70051 0.0
H3071 H 0.33943 0.42585 0.7207 0.0
C3072 C 0.37492 0.45367 0.66603 0.0
C3073 C 0.38766 0.46272 0.66762 0.0
C3074 C 0.37019 0.44445 0.67768 0.0
C3075 C 0.37806 0.44405 0.69127 0.0
C3076 C 0.39104 0.45279 0.69276 0.0
C3077 C 0.3958 0.46206 0.68106 0.0
C3078 C 0.37647 0.41757 0.72455 0.0
C3079 C 0.36104 0.41717 0.72755 0.0
C3080 C 0.38208 0.42637 0.71286 0.0
C3081 C 0.37235 0.43488 0.7039 0.0
C3082 C 0.35695 0.43454 0.70702 0.0
C3083 C 0.35137 0.4258 0.71867 0.0
H3084 H 0.34597 0.63475 0.48077 0.0
H3085 H 0.33127 0.58995 0.47016 0.0
H3086 H 0.3306 0.64455 0.46035 0.0
H3087 H 0.31585 0.59971 0.4501 0.0
H3088 H 0.30291 0.61901 0.40555 0.0
H3089 H 0.31922 0.61092 0.42568 0.0
H3090 H 0.30407 0.64781 0.45292 0.0
H3091 H 0.28782 0.65615 0.43254 0.0
C3092 C 0.33946 0.627 0.47412 0.0
C3093 C 0.33992 0.61155 0.47706 0.0
C3094 C 0.3306 0.63263 0.46249 0.0
C3095 C 0.32208 0.6229 0.45354 0.0
C3096 C 0.32248 0.60749 0.45659 0.0
C3097 C 0.33128 0.60189 0.46818 0.0
C3098 C 0.30306 0.62547 0.41579 0.0
C3099 C 0.29396 0.63818 0.41746 0.0
C3100 C 0.31238 0.62077 0.42737 0.0
C3101 C 0.31283 0.62862 0.44097 0.0
C3102 C 0.30404 0.64157 0.44254 0.0
C3103 C 0.29468 0.6463 0.4309 0.0
H3104 H 0.32329 0.10298 0.46827 0.0
H3105 H 0.3507 0.14032 0.45449 0.0
H3106 H 0.30339 0.11151 0.45169 0.0
H3107 H 0.33095 0.14864 0.43771 0.0
H3108 H 0.28622 0.16872 0.42334 0.0
H3109 H 0.30631 0.15965 0.43927 0.0
H3110 H 0.29696 0.11433 0.42538 0.0
H3111 H 0.2766 0.12339 0.40963 0.0
C3112 C 0.32512 0.11294 0.46163 0.0
C3113 C 0.33857 0.121 0.46276 0.0
C3114 C 0.31374 0.11779 0.45206 0.0
C3115 C 0.31555 0.13079 0.4434 0.0
C3116 C 0.32909 0.13872 0.4444 0.0
C3117 C 0.34045 0.13389 0.45396 0.0
C3118 C 0.28845 0.15682 0.42364 0.0
C3119 C 0.27979 0.14678 0.4152 0.0
C3120 C 0.30004 0.15162 0.43273 0.0
C3121 C 0.30328 0.13626 0.43359 0.0
C3122 C 0.29465 0.12622 0.42511 0.0
C3123 C 0.28304 0.13142 0.41601 0.0
H3124 H 0.84222 0.36315 0.53878 0.0
H3125 H 0.83141 0.40915 0.54847 0.0
H3126 H 0.82226 0.35487 0.55515 0.0
H3127 H 0.81205 0.40098 0.56585 0.0
H3128 H 0.76876 0.38205 0.58504 0.0
H3129 H 0.78861 0.39099 0.56866 0.0
H3130 H 0.8147 0.35157 0.57917 0.0
H3131 H 0.79432 0.34228 0.59453 0.0
C3132 C 0.83569 0.3715 0.54465 0.0
C3133 C 0.83836 0.38678 0.54238 0.0
C3134 C 0.82427 0.36676 0.55419 0.0
C3135 C 0.81548 0.3772 0.56207 0.0
C3136 C 0.81832 0.39255 0.55985 0.0
C3137 C 0.8295 0.39728 0.54996 0.0
C3138 C 0.77879 0.37536 0.58381 0.0
C3139 C 0.77999 0.36144 0.59093 0.0
C3140 C 0.79026 0.38051 0.57448 0.0
C3141 C 0.80337 0.37201 0.57239 0.0
C3142 C 0.80468 0.35829 0.58004 0.0
C3143 C 0.79304 0.35298 0.589 0.0
H3144 H 0.41425 0.04555 0.34493 0.0
H3145 H 0.3751 0.01916 0.33517 0.0
H3146 H 0.40468 0.06572 0.32951 0.0
H3147 H 0.36589 0.03886 0.31869 0.0
H3148 H 0.34744 0.08147 0.29792 0.0
H3149 H 0.35557 0.06221 0.31546 0.0
H3150 H 0.4017 0.0729 0.30536 0.0
H3151 H 0.39345 0.09273 0.28884 0.0
C3152 C 0.40362 0.04405 0.33933 0.0
C3153 C 0.39544 0.0308 0.34118 0.0
C3154 C 0.39815 0.05556 0.33032 0.0
C3155 C 0.38456 0.05396 0.32252 0.0
C3156 C 0.37628 0.0407 0.3246 0.0
C3157 C 0.38158 0.02932 0.33398 0.0
C3158 C 0.3593 0.07969 0.29958 0.0
C3159 C 0.36981 0.08866 0.29213 0.0
C3160 C 0.36401 0.06856 0.30956 0.0
C3161 C 0.37936 0.06592 0.31202 0.0
C3162 C 0.3898 0.07479 0.30423 0.0
C3163 C 0.38509 0.08613 0.2946 0.0
H3164 H 0.67583 0.59765 0.04747 0.0
H3165 H 0.66396 0.64349 0.03826 0.0
H3166 H 0.6953 0.60608 0.06457 0.0
H3167 H 0.68405 0.65205 0.05435 0.0
H3168 H 0.71228 0.66476 0.09356 0.0
H3169 H 0.69194 0.65532 0.07826 0.0
H3170 H 0.71859 0.61647 0.06707 0.0
H3171 H 0.73842 0.62553 0.0834 0.0
C3172 C 0.67753 0.60955 0.049 0.0
C3173 C 0.66835 0.61992 0.04164 0.0
C3174 C 0.68879 0.61443 0.05872 0.0
C3175 C 0.69138 0.62982 0.06099 0.0
C3176 C 0.68225 0.64013 0.05334 0.0
C3177 C 0.67076 0.63524 0.04397 0.0
C3178 C 0.71371 0.65416 0.08788 0.0
C3179 C 0.7269 0.64588 0.08963 0.0
C3180 C 0.70209 0.64877 0.07895 0.0
C3181 C 0.70354 0.63515 0.07116 0.0
C3182 C 0.71683 0.62685 0.07302 0.0
C3183 C 0.72829 0.63208 0.08231 0.0
H3184 H 0.63231 0.48846 0.33447 0.0
H3185 H 0.59271 0.46271 0.34414 0.0
H3186 H 0.64128 0.46859 0.31804 0.0
H3187 H 0.60201 0.44238 0.32876 0.0
H3188 H 0.61297 0.41491 0.28849 0.0
H3189 H 0.605 0.43516 0.30461 0.0
H3190 H 0.65124 0.44498 0.31501 0.0
H3191 H 0.65913 0.42525 0.29785 0.0
C3192 C 0.62567 0.47841 0.33325 0.0
C3193 C 0.61176 0.47716 0.34043 0.0
C3194 C 0.63082 0.46694 0.32391 0.0
C3195 C 0.62234 0.45381 0.32183 0.0
C3196 C 0.60869 0.45244 0.32957 0.0
C3197 C 0.60337 0.46405 0.33855 0.0
C3198 C 0.62142 0.42142 0.29422 0.0
C3199 C 0.63666 0.41848 0.29197 0.0
C3200 C 0.61687 0.433 0.30363 0.0
C3201 C 0.62742 0.44172 0.31142 0.0
C3202 C 0.64273 0.43873 0.30911 0.0
C3203 C 0.6473 0.42734 0.29935 0.0
H3204 H 0.17546 0.90875 0.95749 0.0
H3205 H 0.16517 0.86251 0.96662 0.0
H3206 H 0.19476 0.90097 0.93979 0.0
H3207 H 0.185 0.85465 0.94992 0.0
H3208 H 0.21168 0.84263 0.90986 0.0
H3209 H 0.19158 0.85202 0.92548 0.0
H3210 H 0.21833 0.89086 0.93638 0.0
H3211 H 0.23799 0.88182 0.91972 0.0
C3212 C 0.17747 0.89692 0.95582 0.0
C3213 C 0.16876 0.88622 0.9633 0.0
C3214 C 0.1886 0.89242 0.94574 0.0
C3215 C 0.19147 0.87713 0.94322 0.0
C3216 C 0.1829 0.86651 0.95109 0.0
C3217 C 0.17158 0.871 0.96082 0.0
C3218 C 0.21317 0.85324 0.91551 0.0
C3219 C 0.22638 0.86147 0.91366 0.0
C3220 C 0.2017 0.85859 0.92462 0.0
C3221 C 0.20332 0.87212 0.93253 0.0
C3222 C 0.21651 0.8805 0.9304 0.0
C3223 C 0.22784 0.8753 0.92092 0.0
H3224 H 0.38841 0.90545 0.20537 0.0
H3225 H 0.35152 0.93343 0.21923 0.0
H3226 H 0.39693 0.92503 0.18851 0.0
H3227 H 0.36026 0.95318 0.20254 0.0
H3228 H 0.37281 0.97976 0.16033 0.0
H3229 H 0.36328 0.95963 0.17615 0.0
H3230 H 0.40833 0.94948 0.19029 0.0
H3231 H 0.41786 0.9693 0.17433 0.0
C3232 C 0.38211 0.91579 0.20484 0.0
C3233 C 0.36931 0.91788 0.21371 0.0
C3234 C 0.38706 0.92706 0.19522 0.0
C3235 C 0.37934 0.94072 0.19424 0.0
C3236 C 0.36639 0.94274 0.20292 0.0
C3237 C 0.36142 0.93144 0.21256 0.0
C3238 C 0.38068 0.9732 0.16679 0.0
C3239 C 0.3961 0.97613 0.16603 0.0
C3240 C 0.3752 0.96172 0.17592 0.0
C3241 C 0.38504 0.95291 0.18446 0.0
C3242 C 0.40045 0.95587 0.18368 0.0
C3243 C 0.40592 0.96732 0.17458 0.0
H3244 H 0.11231 0.09176 0.71721 0.0
H3245 H 0.15831 0.081 0.70752 0.0
H3246 H 0.10405 0.07179 0.70086 0.0
H3247 H 0.15016 0.06162 0.69012 0.0
H3248 H 0.13086 0.01855 0.67043 0.0
H3249 H 0.14001 0.0382 0.68698 0.0
H3250 H 0.10088 0.06478 0.67667 0.0
H3251 H 0.09136 0.04463 0.66118 0.0
C3252 C 0.12066 0.08521 0.71135 0.0
C3253 C 0.13593 0.08792 0.71358 0.0
C3254 C 0.11594 0.07381 0.70182 0.0
C3255 C 0.12638 0.06508 0.69388 0.0
C3256 C 0.14173 0.06788 0.69614 0.0
C3257 C 0.14645 0.07906 0.70604 0.0
C3258 C 0.12429 0.02865 0.67175 0.0
C3259 C 0.11036 0.03006 0.66468 0.0
C3260 C 0.12956 0.03999 0.68117 0.0
C3261 C 0.12117 0.05315 0.6834 0.0
C3262 C 0.10749 0.05469 0.67573 0.0
C3263 C 0.10206 0.04319 0.6667 0.0
H3264 H 0.05391 0.11763 0.42417 0.0
H3265 H 0.02669 0.13314 0.46093 0.0
H3266 H 0.07385 0.11125 0.44162 0.0
H3267 H 0.04645 0.12641 0.4784 0.0
H3268 H 0.1033 0.09159 0.47821 0.0
H3269 H 0.08172 0.09494 0.46179 0.0
H3270 H 0.07066 0.13596 0.4848 0.0
H3271 H 0.09188 0.13245 0.50134 0.0
C3272 C 0.05208 0.11948 0.43599 0.0
C3273 C 0.03875 0.12602 0.44113 0.0
C3274 C 0.0635 0.11574 0.44602 0.0
C3275 C 0.06182 0.11842 0.46142 0.0
C3276 C 0.04824 0.12446 0.46659 0.0
C3277 C 0.03687 0.12825 0.45657 0.0
C3278 C 0.09616 0.10124 0.47984 0.0
C3279 C 0.09934 0.11176 0.49109 0.0
C3280 C 0.08385 0.10321 0.47037 0.0
C3281 C 0.07444 0.11573 0.47195 0.0
C3282 C 0.0775 0.12607 0.48339 0.0
C3283 C 0.08976 0.1241 0.49284 0.0
H3284 H 0.15634 0.86084 0.71863 0.0
H3285 H 0.13893 0.83535 0.75566 0.0
H3286 H 0.15155 0.83989 0.70187 0.0
H3287 H 0.13518 0.81395 0.73933 0.0
H3288 H 0.11199 0.7857 0.70472 0.0
H3289 H 0.11907 0.80572 0.72146 0.0
H3290 H 0.15673 0.81625 0.69294 0.0
H3291 H 0.14885 0.79669 0.67559 0.0
C3292 C 0.15182 0.85058 0.72322 0.0
C3293 C 0.14786 0.84973 0.73838 0.0
C3294 C 0.14913 0.8385 0.71364 0.0
C3295 C 0.14274 0.82515 0.7191 0.0
C3296 C 0.13961 0.82413 0.73451 0.0
C3297 C 0.14191 0.83634 0.74396 0.0
C3298 C 0.12183 0.79224 0.70206 0.0
C3299 C 0.12987 0.78961 0.68886 0.0
C3300 C 0.12602 0.80371 0.71177 0.0
C3301 C 0.13862 0.81267 0.70875 0.0
C3302 C 0.14683 0.80982 0.6956 0.0
C3303 C 0.1424 0.79853 0.68568 0.0
H3304 H 0.41239 0.87369 1.0004 0.0
H3305 H 0.40075 0.9144 0.97711 0.0
H3306 H 0.43352 0.87014 0.98373 0.0
H3307 H 0.42222 0.91099 0.96054 0.0
H3308 H 0.47763 0.87345 0.96025 0.0
H3309 H 0.45768 0.88011 0.97751 0.0
H3310 H 0.4303 0.89448 0.94042 0.0
H3311 H 0.45044 0.88815 0.92313 0.0
C3312 C 0.41443 0.88199 0.99181 0.0
C3313 C 0.40484 0.89432 0.99009 0.0
C3314 C 0.42663 0.88 0.9823 0.0
C3315 C 0.42962 0.8903 0.97081 0.0
C3316 C 0.42015 0.90276 0.96918 0.0
C3317 C 0.4079 0.90476 0.97874 0.0
C3318 C 0.46741 0.87816 0.95577 0.0
C3319 C 0.4656 0.88016 0.94029 0.0
C3320 C 0.45593 0.8819 0.96567 0.0
C3321 C 0.44231 0.88768 0.96036 0.0
C3322 C 0.44068 0.89017 0.94491 0.0
C3323 C 0.45221 0.88647 0.93499 0.0
H3324 H 0.39484 0.22008 0.20401 0.0
H3325 H 0.35783 0.2087 0.17526 0.0
H3326 H 0.38818 0.19995 0.22079 0.0
H3327 H 0.35036 0.18902 0.19267 0.0
H3328 H 0.35092 0.14466 0.21869 0.0
H3329 H 0.35567 0.16547 0.20172 0.0
H3330 H 0.37239 0.19163 0.23884 0.0
H3331 H 0.36868 0.17039 0.25537 0.0
C3332 C 0.38506 0.21342 0.20144 0.0
C3333 C 0.37684 0.216 0.18833 0.0
C3334 C 0.38111 0.20189 0.21117 0.0
C3335 C 0.36858 0.19279 0.2083 0.0
C3336 C 0.36021 0.19556 0.19523 0.0
C3337 C 0.36441 0.20692 0.18527 0.0
C3338 C 0.35553 0.15493 0.22316 0.0
C3339 C 0.35958 0.15589 0.23828 0.0
C3340 C 0.3582 0.16694 0.21346 0.0
C3341 C 0.36464 0.18032 0.21876 0.0
C3342 C 0.36791 0.18142 0.23413 0.0
C3343 C 0.36565 0.16929 0.2437 0.0
H3344 H 0.05467 0.8892 0.08279 0.0
H3345 H 0.02763 0.87371 0.04588 0.0
H3346 H 0.07473 0.89551 0.06543 0.0
H3347 H 0.0475 0.88037 0.02852 0.0
H3348 H 0.10429 0.91508 0.02872 0.0
H3349 H 0.08274 0.91176 0.04519 0.0
H3350 H 0.07173 0.87063 0.02237 0.0
H3351 H 0.09293 0.87409 0.00579 0.0
C3352 C 0.05291 0.88735 0.07095 0.0
C3353 C 0.03959 0.88081 0.06574 0.0
C3354 C 0.06439 0.89104 0.06098 0.0
C3355 C 0.06279 0.88833 0.04558 0.0
C3356 C 0.04923 0.88234 0.04034 0.0
C3357 C 0.0378 0.87859 0.0503 0.0
C3358 C 0.09718 0.9054 0.02715 0.0
C3359 C 0.10035 0.89485 0.01593 0.0
C3360 C 0.08488 0.90345 0.03665 0.0
C3361 C 0.07548 0.89093 0.03511 0.0
C3362 C 0.07856 0.88053 0.02374 0.0
C3363 C 0.09081 0.88247 0.01427 0.0
H3364 H 0.35778 0.79765 0.33024 0.0
H3365 H 0.39412 0.78652 0.30053 0.0
H3366 H 0.34966 0.8172 0.31299 0.0
H3367 H 0.38679 0.80651 0.28385 0.0
H3368 H 0.36643 0.83616 0.24998 0.0
H3369 H 0.37032 0.81476 0.26627 0.0
H3370 H 0.35489 0.84087 0.30398 0.0
H3371 H 0.34998 0.86188 0.28729 0.0
C3372 C 0.36406 0.79944 0.32004 0.0
C3373 C 0.37653 0.79049 0.31669 0.0
C3374 C 0.35949 0.81073 0.31018 0.0
C3375 C 0.36749 0.81355 0.29689 0.0
C3376 C 0.38001 0.80454 0.29367 0.0
C3377 C 0.38434 0.79308 0.30333 0.0
C3378 C 0.36369 0.83721 0.26173 0.0
C3379 C 0.35798 0.85066 0.2674 0.0
C3380 C 0.36606 0.82499 0.27115 0.0
C3381 C 0.36324 0.82605 0.28661 0.0
C3382 C 0.35707 0.83946 0.29217 0.0
C3383 C 0.35431 0.85157 0.28262 0.0
H3384 H 0.39496 0.1013 0.53587 0.0
H3385 H 0.42041 0.11903 0.49896 0.0
H3386 H 0.41591 0.10601 0.55265 0.0
H3387 H 0.44179 0.12274 0.51532 0.0
H3388 H 0.47018 0.14546 0.5503 0.0
H3389 H 0.4502 0.1386 0.53337 0.0
H3390 H 0.43953 0.1006 0.56139 0.0
H3391 H 0.45902 0.10823 0.57888 0.0
C3392 C 0.4052 0.10588 0.53131 0.0
C3393 C 0.40605 0.10994 0.51618 0.0
C3394 C 0.41729 0.10853 0.5409 0.0
C3395 C 0.43063 0.11497 0.53548 0.0
C3396 C 0.43162 0.11824 0.5201 0.0
C3397 C 0.41941 0.11598 0.51064 0.0
C3398 C 0.46362 0.13559 0.55279 0.0
C3399 C 0.46616 0.12739 0.56592 0.0
C3400 C 0.45217 0.13154 0.54299 0.0
C3401 C 0.44315 0.11893 0.54584 0.0
C3402 C 0.44598 0.11053 0.55887 0.0
C3403 C 0.45724 0.11481 0.56888 0.0
H3404 H 0.12533 0.16439 0.75514 0.0
H3405 H 0.16595 0.15237 0.77837 0.0
H3406 H 0.12191 0.18546 0.77188 0.0
H3407 H 0.16269 0.17381 0.795 0.0
H3408 H 0.12482 0.22907 0.79625 0.0
H3409 H 0.13164 0.20951 0.7786 0.0
H3410 H 0.14628 0.18154 0.81516 0.0
H3411 H 0.13982 0.2013 0.83282 0.0
C3412 C 0.13366 0.16635 0.76371 0.0
C3413 C 0.14589 0.15664 0.76543 0.0
C3414 C 0.13174 0.17853 0.77327 0.0
C3415 C 0.14203 0.18137 0.7848 0.0
C3416 C 0.15446 0.17184 0.78635 0.0
C3417 C 0.15638 0.15961 0.77676 0.0
C3418 C 0.12962 0.2188 0.80053 0.0
C3419 C 0.13167 0.21671 0.81596 0.0
C3420 C 0.13347 0.20755 0.7904 0.0
C3421 C 0.13937 0.19388 0.79546 0.0
C3422 C 0.14189 0.19198 0.81086 0.0
C3423 C 0.13811 0.20328 0.821 0.0
H3424 H 0.47743 0.10328 0.09073 0.0
H3425 H 0.50046 0.0917 0.13158 0.0
H3426 H 0.46079 0.08187 0.0941 0.0
H3427 H 0.4837 0.07061 0.13509 0.0
H3428 H 0.42309 0.05389 0.11678 0.0
H3429 H 0.44052 0.07393 0.11047 0.0
H3430 H 0.47741 0.04643 0.12516 0.0
H3431 H 0.46002 0.02659 0.13179 0.0
C3432 C 0.47899 0.09615 0.10039 0.0
C3433 C 0.49029 0.09922 0.11088 0.0
C3434 C 0.46939 0.08394 0.10236 0.0
C3435 C 0.4709 0.0745 0.11486 0.0
C3436 C 0.48235 0.07748 0.12521 0.0
C3437 C 0.49192 0.08966 0.12324 0.0
C3438 C 0.43494 0.05207 0.11852 0.0
C3439 C 0.44014 0.03868 0.12492 0.0
C3440 C 0.44494 0.06354 0.11484 0.0
C3441 C 0.46037 0.06186 0.11745 0.0
C3442 C 0.46559 0.04823 0.12329 0.0
C3443 C 0.4556 0.0368 0.12701 0.0
H3444 H 0.20038 0.17154 0.36734 0.0
H3445 H 0.22863 0.20898 0.3789 0.0
H3446 H 0.18027 0.18884 0.36072 0.0
H3447 H 0.20877 0.22619 0.37196 0.0
H3448 H 0.15039 0.22535 0.34038 0.0
H3449 H 0.17167 0.20843 0.34361 0.0
H3450 H 0.18524 0.23319 0.38278 0.0
H3451 H 0.16436 0.25015 0.37941 0.0
C3452 C 0.20238 0.18345 0.36824 0.0
C3453 C 0.21605 0.18887 0.37382 0.0
C3454 C 0.19088 0.19337 0.36438 0.0
C3455 C 0.19284 0.20891 0.36597 0.0
C3456 C 0.20676 0.21429 0.3709 0.0
C3457 C 0.21819 0.20441 0.37482 0.0
C3458 C 0.15802 0.22724 0.34959 0.0
C3459 C 0.15567 0.23912 0.35962 0.0
C3460 C 0.17015 0.21749 0.35149 0.0
C3461 C 0.1802 0.21946 0.36343 0.0
C3462 C 0.1779 0.23146 0.37331 0.0
C3463 C 0.16583 0.24116 0.37143 0.0
H3464 H 0.03526 0.8956 0.60049 0.0
H3465 H 0.99859 0.92022 0.61983 0.0
H3466 H 0.05192 0.91664 0.60509 0.0
H3467 H 0.0148 0.94174 0.62342 0.0
H3468 H 0.05012 0.97063 0.64494 0.0
H3469 H 0.03325 0.95044 0.63856 0.0
H3470 H 0.06021 0.94031 0.59967 0.0
H3471 H 0.07771 0.95997 0.60685 0.0
C3472 C 0.03071 0.90568 0.60543 0.0
C3473 C 0.01569 0.90626 0.60993 0.0
C3474 C 0.04024 0.91783 0.608 0.0
C3475 C 0.03485 0.931 0.61479 0.0
C3476 C 0.01958 0.93172 0.61862 0.0
C3477 C 0.01019 0.91942 0.61643 0.0
C3478 C 0.05239 0.96413 0.63498 0.0
C3479 C 0.06523 0.96687 0.6264 0.0
C3480 C 0.04262 0.95256 0.63121 0.0
C3481 C 0.04519 0.94364 0.61849 0.0
C3482 C 0.05792 0.94667 0.6097 0.0
C3483 C 0.06793 0.95803 0.61372 0.0
H3484 H 0.36029 0.78504 0.84992 0.0
H3485 H 0.33517 0.74833 0.86854 0.0
H3486 H 0.33932 0.8018 0.85445 0.0
H3487 H 0.31372 0.76467 0.87207 0.0
H3488 H 0.28513 0.80012 0.89399 0.0
H3489 H 0.30509 0.78302 0.88743 0.0
H3490 H 0.31576 0.81036 0.84893 0.0
H3491 H 0.29633 0.82804 0.85628 0.0
C3492 C 0.35011 0.7805 0.85466 0.0
C3493 C 0.34937 0.76544 0.859 0.0
C3494 C 0.338 0.79009 0.8572 0.0
C3495 C 0.32472 0.78473 0.8638 0.0
C3496 C 0.32383 0.76941 0.86742 0.0
C3497 C 0.33608 0.75995 0.86526 0.0
C3498 C 0.2917 0.80242 0.88407 0.0
C3499 C 0.28919 0.81542 0.87566 0.0
C3500 C 0.30313 0.79252 0.88019 0.0
C3501 C 0.31215 0.79514 0.86755 0.0
C3502 C 0.30932 0.80803 0.85891 0.0
C3503 C 0.2981 0.81814 0.86303 0.0
H3504 H 0.47103 0.89667 0.40547 0.0
H3505 H 0.508 0.92145 0.38691 0.0
H3506 H 0.45445 0.91777 0.4008 0.0
H3507 H 0.49185 0.94301 0.38325 0.0
H3508 H 0.45679 0.97201 0.36131 0.0
H3509 H 0.47364 0.95184 0.36787 0.0
H3510 H 0.44614 0.94144 0.40631 0.0
H3511 H 0.42869 0.96108 0.39896 0.0
C3512 C 0.47565 0.90679 0.40069 0.0
C3513 C 0.49074 0.90741 0.39642 0.0
C3514 C 0.46618 0.91898 0.39808 0.0
C3515 C 0.47167 0.93221 0.39147 0.0
C3516 C 0.487 0.93295 0.3879 0.0
C3517 C 0.49635 0.92063 0.39013 0.0
C3518 C 0.45441 0.96546 0.37122 0.0
C3519 C 0.44142 0.96812 0.37962 0.0
C3520 C 0.46416 0.9539 0.37509 0.0
C3521 C 0.46141 0.94489 0.38772 0.0
C3522 C 0.44856 0.94786 0.39635 0.0
C3523 C 0.43859 0.95922 0.39223 0.0
H3524 H 0.27698 0.21093 0.62527 0.0
H3525 H 0.3046 0.17399 0.63966 0.0
H3526 H 0.29657 0.2284 0.63245 0.0
H3527 H 0.32439 0.19147 0.64648 0.0
H3528 H 0.35383 0.22793 0.66657 0.0
H3529 H 0.33232 0.21138 0.66315 0.0
H3530 H 0.3206 0.23514 0.62276 0.0
H3531 H 0.34171 0.25178 0.62634 0.0
C3532 C 0.28722 0.20653 0.63002 0.0
C3533 C 0.28927 0.19105 0.63177 0.0
C3534 C 0.29849 0.21655 0.63407 0.0
C3535 C 0.31214 0.21135 0.6399 0.0
C3536 C 0.31398 0.19589 0.64216 0.0
C3537 C 0.30266 0.18585 0.63817 0.0
C3538 C 0.34655 0.2297 0.65706 0.0
C3539 C 0.34951 0.24118 0.64673 0.0
C3540 C 0.33428 0.22016 0.65505 0.0
C3541 C 0.32471 0.22192 0.64268 0.0
C3542 C 0.32756 0.23359 0.63255 0.0
C3543 C 0.33977 0.24309 0.63455 0.0
H3544 H 0.04736 0.02649 0.87473 0.0
H3545 H 0.08469 0.05413 0.88802 0.0
H3546 H 0.03015 0.04644 0.88147 0.0
H3547 H 0.06742 0.07429 0.89444 0.0
H3548 H 0.0308 0.10399 0.91457 0.0
H3549 H 0.04749 0.08258 0.91125 0.0
H3550 H 0.02368 0.07038 0.87105 0.0
H3551 H 0.00692 0.09144 0.8745 0.0
C3552 C 0.05191 0.03681 0.87915 0.0
C3553 C 0.06743 0.03875 0.88072 0.0
C3554 C 0.04203 0.04829 0.88294 0.0
C3555 C 0.0474 0.06205 0.88833 0.0
C3556 C 0.06289 0.0638 0.89043 0.0
C3557 C 0.0728 0.05227 0.88668 0.0
C3558 C 0.02906 0.09665 0.9051 0.0
C3559 C 0.01751 0.09944 0.89481 0.0
C3560 C 0.03869 0.08444 0.90315 0.0
C3561 C 0.03692 0.07473 0.89089 0.0
C3562 C 0.02524 0.07745 0.88075 0.0
C3563 C 0.01566 0.08962 0.88268 0.0
H3564 H 0.20034 0.83349 0.13997 0.0
H3565 H 0.22814 0.79659 0.12586 0.0
H3566 H 0.18047 0.816 0.14653 0.0
H3567 H 0.20848 0.7791 0.1328 0.0
H3568 H 0.151 0.77943 0.16653 0.0
H3569 H 0.17241 0.79612 0.16315 0.0
H3570 H 0.18458 0.77222 0.12298 0.0
H3571 H 0.16357 0.75544 0.12652 0.0
C3572 C 0.2023 0.82164 0.13848 0.0
C3573 C 0.21578 0.81646 0.13225 0.0
C3574 C 0.19093 0.81159 0.14232 0.0
C3575 C 0.19281 0.79613 0.14008 0.0
C3576 C 0.20653 0.79094 0.1344 0.0
C3577 C 0.21785 0.80098 0.13049 0.0
C3578 C 0.15835 0.77767 0.15707 0.0
C3579 C 0.15555 0.7661 0.1468 0.0
C3580 C 0.17056 0.78729 0.15508 0.0
C3581 C 0.18024 0.78553 0.1428 0.0
C3582 C 0.17754 0.77379 0.1327 0.0
C3583 C 0.16539 0.7642 0.13469 0.0
H3584 H 0.14414 0.45593 0.03722 0.0
H3585 H 0.10712 0.42684 0.0478 0.0
H3586 H 0.13682 0.47271 0.05714 0.0
H3587 H 0.09905 0.4442 0.06728 0.0
H3588 H 0.09904 0.47008 0.11184 0.0
H3589 H 0.10404 0.45321 0.091 0.0
H3590 H 0.12047 0.4906 0.06501 0.0
H3591 H 0.11649 0.50704 0.08626 0.0
C3592 C 0.13422 0.45328 0.04365 0.0
C3593 C 0.12619 0.44008 0.04093 0.0
C3594 C 0.1299 0.463 0.05506 0.0
C3595 C 0.1172 0.46001 0.06387 0.0
C3596 C 0.10901 0.44685 0.06095 0.0
C3597 C 0.11356 0.43692 0.04971 0.0
C3598 C 0.10361 0.47463 0.10159 0.0
C3599 C 0.10753 0.4898 0.10068 0.0
C3600 C 0.10642 0.46499 0.08957 0.0
C3601 C 0.1129 0.4704 0.07626 0.0
C3602 C 0.11597 0.48582 0.07517 0.0
C3603 C 0.11355 0.49533 0.08731 0.0
H3604 H 0.61762 0.99924 0.9211 0.0
H3605 H 0.59924 0.03603 0.89594 0.0
H3606 H 0.62144 0.01563 0.94244 0.0
H3607 H 0.60407 0.05284 0.91681 0.0
H3608 H 0.60697 0.07928 0.95978 0.0
H3609 H 0.59905 0.06168 0.94046 0.0
H3610 H 0.63728 0.03377 0.95057 0.0
H3611 H 0.64441 0.05075 0.97038 0.0
C3612 C 0.61445 0.0109 0.92016 0.0
C3613 C 0.6082 0.01639 0.90688 0.0
C3614 C 0.61678 0.02038 0.93234 0.0
C3615 C 0.61336 0.03574 0.9314 0.0
C3616 C 0.6067 0.04111 0.91816 0.0
C3617 C 0.60399 0.03149 0.90611 0.0
C3618 C 0.61353 0.06926 0.95792 0.0
C3619 C 0.62625 0.06634 0.96664 0.0
C3620 C 0.60908 0.0592 0.94676 0.0
C3621 C 0.61746 0.04616 0.94383 0.0
C3622 C 0.63022 0.04337 0.95264 0.0
C3623 C 0.63443 0.05322 0.96398 0.0
H3624 H 0.17288 0.36747 0.20203 0.0
H3625 H 0.20959 0.383 0.22932 0.0
H3626 H 0.19043 0.36088 0.18223 0.0
H3627 H 0.22713 0.37606 0.20972 0.0
H3628 H 0.25038 0.38173 0.16444 0.0
H3629 H 0.23364 0.3855 0.18547 0.0
H3630 H 0.21066 0.34439 0.17469 0.0
H3631 H 0.22727 0.34077 0.15331 0.0
C3632 C 0.18471 0.36928 0.2039 0.0
C3633 C 0.18981 0.3759 0.21721 0.0
C3634 C 0.19479 0.36542 0.19257 0.0
C3635 C 0.2102 0.36805 0.19432 0.0
C3636 C 0.21532 0.37415 0.20787 0.0
C3637 C 0.20525 0.37806 0.21915 0.0
C3638 C 0.24183 0.37341 0.16658 0.0
C3639 C 0.24016 0.36096 0.15715 0.0
C3640 C 0.23227 0.37553 0.17873 0.0
C3641 C 0.22079 0.36524 0.1818 0.0
C3642 C 0.21927 0.35262 0.17253 0.0
C3643 C 0.22886 0.3505 0.16034 0.0
H3644 H 0.87522 0.95843 0.47939 0.0
H3645 H 0.88777 0.92143 0.45098 0.0
H3646 H 0.88241 0.97593 0.45987 0.0
H3647 H 0.89464 0.939 0.43123 0.0
H3648 H 0.9154 0.97575 0.4022 0.0
H3649 H 0.91179 0.95871 0.42328 0.0
H3650 H 0.87223 0.98324 0.43619 0.0
H3651 H 0.87599 1.00035 0.41548 0.0
C3652 C 0.87957 0.95402 0.46898 0.0
C3653 C 0.88079 0.93851 0.4667 0.0
C3654 C 0.88362 0.96407 0.45775 0.0
C3655 C 0.88893 0.95889 0.4439 0.0
C3656 C 0.8907 0.94339 0.4418 0.0
C3657 C 0.88669 0.9333 0.4531 0.0
C3658 C 0.90603 0.97758 0.40964 0.0
C3659 C 0.89599 0.98943 0.40714 0.0
C3660 C 0.9039 0.96775 0.42166 0.0
C3661 C 0.89173 0.9696 0.43145 0.0
C3662 C 0.88186 0.9816 0.42904 0.0
C3663 C 0.88398 0.99139 0.41708 0.0
H3664 H 0.79635 0.12306 0.22898 0.0
H3665 H 0.83346 0.13769 0.20173 0.0
H3666 H 0.77904 0.12995 0.20916 0.0
H3667 H 0.81613 0.14425 0.18171 0.0
H3668 H 0.7796 0.16468 0.15247 0.0
H3669 H 0.79617 0.16096 0.17386 0.0
H3670 H 0.77255 0.1203 0.18498 0.0
H3671 H 0.75586 0.12417 0.16393 0.0
C3672 C 0.80082 0.12779 0.21877 0.0
C3673 C 0.81631 0.12972 0.2169 0.0
C3674 C 0.79089 0.13167 0.20736 0.0
C3675 C 0.79619 0.13751 0.19377 0.0
C3676 C 0.81165 0.13991 0.19208 0.0
C3677 C 0.8216 0.13607 0.20354 0.0
C3678 C 0.77787 0.15502 0.15957 0.0
C3679 C 0.7664 0.14472 0.15647 0.0
C3680 C 0.78743 0.15284 0.17177 0.0
C3681 C 0.7857 0.14033 0.18116 0.0
C3682 C 0.77407 0.13018 0.17815 0.0
C3683 C 0.76454 0.13236 0.16599 0.0
H3684 H 0.38851 0.5829 0.55446 0.0
H3685 H 0.37252 0.5464 0.52715 0.0
H3686 H 0.39505 0.56523 0.57417 0.0
H3687 H 0.37941 0.52873 0.54666 0.0
H3688 H 0.37416 0.50525 0.59189 0.0
H3689 H 0.37023 0.52209 0.57096 0.0
H3690 H 0.41146 0.54496 0.58149 0.0
H3691 H 0.41523 0.52826 0.60276 0.0
C3692 C 0.38659 0.57109 0.55257 0.0
C3693 C 0.37987 0.56608 0.53928 0.0
C3694 C 0.39042 0.56094 0.56384 0.0
C3695 C 0.38766 0.54556 0.56206 0.0
C3696 C 0.38143 0.54053 0.54853 0.0
C3697 C 0.37755 0.55066 0.5373 0.0
C3698 C 0.38246 0.51379 0.58971 0.0
C3699 C 0.39499 0.51542 0.59905 0.0
C3700 C 0.38025 0.52341 0.57762 0.0
C3701 C 0.39054 0.53489 0.57451 0.0
C3702 C 0.40323 0.53636 0.58368 0.0
C3703 C 0.40543 0.52673 0.59581 0.0
H3704 H 0.25142 0.62462 0.34184 0.0
H3705 H 0.22827 0.66564 0.35268 0.0
H3706 H 0.23465 0.62066 0.32086 0.0
H3707 H 0.21164 0.66183 0.33137 0.0
H3708 H 0.21042 0.62296 0.27697 0.0
H3709 H 0.22804 0.62987 0.29653 0.0
H3710 H 0.19144 0.64533 0.32402 0.0
H3711 H 0.17384 0.63877 0.30428 0.0
C3712 C 0.24286 0.6329 0.33965 0.0
C3713 C 0.24118 0.64543 0.34899 0.0
C3714 C 0.23328 0.63068 0.32753 0.0
C3715 C 0.22179 0.64093 0.32439 0.0
C3716 C 0.22026 0.65362 0.33357 0.0
C3717 C 0.22986 0.65585 0.34573 0.0
C3718 C 0.20613 0.62795 0.28713 0.0
C3719 C 0.1907 0.63022 0.28909 0.0
C3720 C 0.21623 0.63184 0.29839 0.0
C3721 C 0.21116 0.63803 0.31192 0.0
C3722 C 0.19576 0.64073 0.31369 0.0
C3723 C 0.18565 0.63689 0.3024 0.0
H3724 H 0.27837 0.34156 0.85366 0.0
H3725 H 0.2547 0.38198 0.84181 0.0
H3726 H 0.29504 0.34513 0.83231 0.0
H3727 H 0.27149 0.38574 0.82084 0.0
H3728 H 0.3327 0.36841 0.805 0.0
H3729 H 0.31505 0.36167 0.82467 0.0
H3730 H 0.27843 0.37636 0.7968 0.0
H3731 H 0.29607 0.38348 0.77735 0.0
C3732 C 0.27667 0.35116 0.84648 0.0
C3733 C 0.2652 0.36149 0.84947 0.0
C3734 C 0.28629 0.35326 0.83429 0.0
C3735 C 0.28463 0.36573 0.82484 0.0
C3736 C 0.27297 0.37588 0.82771 0.0
C3737 C 0.26337 0.37377 0.83983 0.0
C3738 C 0.32087 0.37007 0.80302 0.0
C3739 C 0.31581 0.37662 0.78966 0.0
C3740 C 0.31073 0.36613 0.81427 0.0
C3741 C 0.29531 0.36858 0.81238 0.0
C3742 C 0.29024 0.37459 0.79876 0.0
C3743 C 0.30037 0.3786 0.78757 0.0
H3744 H 0.90155 0.91428 0.52953 0.0
H3745 H 0.91344 0.87387 0.50587 0.0
H3746 H 0.92289 0.9107 0.54623 0.0
H3747 H 0.93443 0.87014 0.52265 0.0
H3748 H 0.97836 0.87328 0.54652 0.0
H3749 H 0.95852 0.88005 0.52919 0.0
H3750 H 0.93082 0.89397 0.56622 0.0
H3751 H 0.95085 0.88753 0.58359 0.0
C3752 C 0.90873 0.90468 0.52785 0.0
C3753 C 0.90577 0.89437 0.51635 0.0
C3754 C 0.9209 0.90257 0.53748 0.0
C3755 C 0.93039 0.89014 0.53578 0.0
C3756 C 0.92752 0.87997 0.52415 0.0
C3757 C 0.91539 0.88207 0.51456 0.0
C3758 C 0.96809 0.8779 0.55098 0.0
C3759 C 0.96616 0.87976 0.56646 0.0
C3760 C 0.95668 0.88172 0.54104 0.0
C3761 C 0.943 0.88741 0.54631 0.0
C3762 C 0.94125 0.88973 0.56176 0.0
C3763 C 0.95271 0.88597 0.57173 0.0
H3764 H 0.85754 0.20906 0.32944 0.0
H3765 H 0.89491 0.21999 0.30095 0.0
H3766 H 0.85001 0.18941 0.31206 0.0
H3767 H 0.88817 0.19985 0.28418 0.0
H3768 H 0.86867 0.17003 0.24975 0.0
H3769 H 0.87244 0.19142 0.26608 0.0
H3770 H 0.85532 0.16576 0.30338 0.0
H3771 H 0.85052 0.14481 0.28662 0.0
C3772 C 0.86418 0.20719 0.31949 0.0
C3773 C 0.87675 0.21611 0.3165 0.0
C3774 C 0.85995 0.19584 0.30955 0.0
C3775 C 0.86842 0.19292 0.29657 0.0
C3776 C 0.88105 0.2019 0.29374 0.0
C3777 C 0.88503 0.21343 0.30345 0.0
C3778 C 0.86556 0.16908 0.26142 0.0
C3779 C 0.85936 0.15579 0.26695 0.0
C3780 C 0.86786 0.1813 0.27087 0.0
C3781 C 0.86447 0.18037 0.28623 0.0
C3782 C 0.85792 0.16709 0.29164 0.0
C3783 C 0.85522 0.15501 0.28206 0.0
H3784 H 0.5558 0.11795 0.0843 0.0
H3785 H 0.52754 0.13012 0.04707 0.0
H3786 H 0.57581 0.11134 0.0669 0.0
H3787 H 0.54731 0.12318 0.02976 0.0
H3788 H 0.5917 0.13015 0.00562 0.0
H3789 H 0.57092 0.1337 0.02267 0.0
H3790 H 0.58418 0.09428 0.04724 0.0
H3791 H 0.60536 0.09088 0.03024 0.0
C3792 C 0.55377 0.119 0.07241 0.0
C3793 C 0.54013 0.12472 0.06709 0.0
C3794 C 0.56522 0.11514 0.06243 0.0
C3795 C 0.56324 0.11688 0.04692 0.0
C3796 C 0.54935 0.122 0.04163 0.0
C3797 C 0.53797 0.12592 0.05158 0.0
C3798 C 0.59018 0.12215 0.01458 0.0
C3799 C 0.60023 0.11023 0.01655 0.0
C3800 C 0.57817 0.12414 0.02433 0.0
C3801 C 0.57581 0.11424 0.03631 0.0
C3802 C 0.58575 0.10219 0.03821 0.0
C3803 C 0.59782 0.10018 0.02841 0.0
H3804 H 0.62363 0.77801 0.79611 0.0
H3805 H 0.63823 0.80562 0.83295 0.0
H3806 H 0.63092 0.79752 0.77859 0.0
H3807 H 0.64515 0.82534 0.81543 0.0
H3808 H 0.66563 0.85442 0.77895 0.0
H3809 H 0.66192 0.83304 0.79557 0.0
H3810 H 0.62153 0.82158 0.77168 0.0
H3811 H 0.62541 0.84257 0.75495 0.0
C3812 C 0.62843 0.78824 0.80047 0.0
C3813 C 0.63023 0.7903 0.81594 0.0
C3814 C 0.63255 0.79946 0.79043 0.0
C3815 C 0.63848 0.81308 0.79559 0.0
C3816 C 0.64075 0.81495 0.81104 0.0
C3817 C 0.6367 0.80367 0.8211 0.0
C3818 C 0.65605 0.84723 0.77717 0.0
C3819 C 0.64582 0.85022 0.76562 0.0
C3820 C 0.65387 0.83503 0.78675 0.0
C3821 C 0.64142 0.82557 0.78498 0.0
C3822 C 0.63137 0.82845 0.77325 0.0
C3823 C 0.63356 0.84059 0.76369 0.0
H3824 H 0.91426 0.13144 0.99847 0.0
H3825 H 0.9017 0.09133 0.97465 0.0
H3826 H 0.93532 0.13487 0.9817 0.0
H3827 H 0.92311 0.09462 0.95795 0.0
H3828 H 0.97927 0.13103 0.95821 0.0
H3829 H 0.95925 0.12438 0.97535 0.0
H3830 H 0.93153 0.11135 0.93801 0.0
H3831 H 0.95178 0.11771 0.92081 0.0
C3832 C 0.91607 0.12325 0.98974 0.0
C3833 C 0.90626 0.11111 0.98791 0.0
C3834 C 0.92824 0.12517 0.98016 0.0
C3835 C 0.93097 0.11499 0.9685 0.0
C3836 C 0.92125 0.10274 0.96674 0.0
C3837 C 0.90904 0.10081 0.97636 0.0
C3838 C 0.96897 0.12662 0.95363 0.0
C3839 C 0.96709 0.12503 0.93812 0.0
C3840 C 0.95744 0.12288 0.96347 0.0
C3841 C 0.9437 0.11751 0.95806 0.0
C3842 C 0.94201 0.11536 0.94257 0.0
C3843 C 0.95359 0.11907 0.9327 0.0
H3844 H 0.66554 0.15143 0.7259 0.0
H3845 H 0.62573 0.16424 0.7501 0.0
H3846 H 0.66219 0.17287 0.70922 0.0
H3847 H 0.62223 0.18528 0.73337 0.0
H3848 H 0.62523 0.22884 0.70931 0.0
H3849 H 0.6324 0.20913 0.72661 0.0
H3850 H 0.64529 0.1811 0.68945 0.0
H3851 H 0.63847 0.20104 0.6721 0.0
C3852 C 0.65613 0.15884 0.72772 0.0
C3853 C 0.6459 0.15611 0.73934 0.0
C3854 C 0.65417 0.17107 0.71811 0.0
C3855 C 0.64196 0.18083 0.71996 0.0
C3856 C 0.6319 0.17818 0.73174 0.0
C3857 C 0.63386 0.16601 0.7413 0.0
C3858 C 0.62972 0.21853 0.70481 0.0
C3859 C 0.63114 0.21647 0.68931 0.0
C3860 C 0.63377 0.20719 0.71474 0.0
C3861 C 0.63925 0.19344 0.70943 0.0
C3862 C 0.64122 0.19158 0.69394 0.0
C3863 C 0.63723 0.20299 0.68398 0.0
H3864 H 0.52786 0.87498 0.45992 0.0
H3865 H 0.55542 0.88941 0.42296 0.0
H3866 H 0.54755 0.88195 0.47734 0.0
H3867 H 0.57531 0.89603 0.4404 0.0
H3868 H 0.60482 0.9159 0.47705 0.0
H3869 H 0.58335 0.9126 0.46044 0.0
H3870 H 0.57155 0.87203 0.48388 0.0
H3871 H 0.59263 0.87549 0.50057 0.0
C3872 C 0.5381 0.87969 0.4555 0.0
C3873 C 0.5401 0.88151 0.44003 0.0
C3874 C 0.54943 0.88363 0.4655 0.0
C3875 C 0.5631 0.8894 0.46028 0.0
C3876 C 0.56489 0.89174 0.44483 0.0
C3877 C 0.55351 0.88786 0.43482 0.0
C3878 C 0.59754 0.90637 0.47873 0.0
C3879 C 0.60046 0.89596 0.49014 0.0
C3880 C 0.58529 0.90443 0.46915 0.0
C3881 C 0.5757 0.89206 0.47082 0.0
C3882 C 0.57853 0.88182 0.4824 0.0
C3883 C 0.59072 0.88376 0.49194 0.0
H3884 H 0.87968 0.84255 0.24971 0.0
H3885 H 0.8399 0.85528 0.22544 0.0
H3886 H 0.88322 0.82148 0.23304 0.0
H3887 H 0.84328 0.8338 0.20883 0.0
H3888 H 0.86705 0.8056 0.17177 0.0
H3889 H 0.86014 0.82553 0.18909 0.0
H3890 H 0.87316 0.79761 0.22629 0.0
H3891 H 0.88043 0.77791 0.20901 0.0
C3892 C 0.87156 0.84076 0.24092 0.0
C3893 C 0.85951 0.85065 0.23891 0.0
C3894 C 0.87354 0.82857 0.23139 0.0
C3895 C 0.8635 0.82588 0.2196 0.0
C3896 C 0.85129 0.83562 0.21771 0.0
C3897 C 0.8493 0.84788 0.22729 0.0
C3898 C 0.86829 0.80367 0.18366 0.0
C3899 C 0.87446 0.79022 0.18899 0.0
C3900 C 0.86425 0.81507 0.1936 0.0
C3901 C 0.86624 0.81325 0.20909 0.0
C3902 C 0.87178 0.79953 0.21442 0.0
C3903 C 0.87588 0.78819 0.2045 0.0
H3904 H 0.54974 0.97055 0.86134 0.0
H3905 H 0.5782 0.95969 0.89873 0.0
H3906 H 0.5329 0.95047 0.86816 0.0
H3907 H 0.56076 0.94013 0.90635 0.0
H3908 H 0.5353 0.89557 0.90602 0.0
H3909 H 0.55207 0.91648 0.90111 0.0
H3910 H 0.51477 0.94209 0.88391 0.0
H3911 H 0.49843 0.92073 0.88779 0.0
C3912 C 0.55222 0.96403 0.87124 0.0
C3913 C 0.56528 0.96669 0.8795 0.0
C3914 C 0.54247 0.95253 0.87527 0.0
C3915 C 0.54529 0.94359 0.88793 0.0
C3916 C 0.55827 0.94651 0.89638 0.0
C3917 C 0.56824 0.95782 0.8921 0.0
C3918 C 0.53074 0.90574 0.90127 0.0
C3919 C 0.51563 0.90652 0.89715 0.0
C3920 C 0.54033 0.91781 0.89852 0.0
C3921 C 0.53492 0.93107 0.89192 0.0
C3922 C 0.51956 0.93199 0.88853 0.0
C3923 C 0.5101 0.91979 0.8909 0.0
H3924 H 0.85337 0.77769 0.66476 0.0
H3925 H 0.84188 0.75482 0.62378 0.0
H3926 H 0.83205 0.79441 0.66137 0.0
H3927 H 0.82088 0.77169 0.62024 0.0
H3928 H 0.8047 0.83242 0.63893 0.0
H3929 H 0.82452 0.81474 0.64508 0.0
H3930 H 0.7967 0.77827 0.6299 0.0
H3931 H 0.77705 0.79597 0.62341 0.0
C3932 C 0.84628 0.77619 0.65506 0.0
C3933 C 0.84935 0.76492 0.64454 0.0
C3934 C 0.83411 0.78583 0.65307 0.0
C3935 C 0.82475 0.78441 0.64052 0.0
C3936 C 0.82771 0.77297 0.63015 0.0
C3937 C 0.83983 0.76334 0.63214 0.0
C3938 C 0.80276 0.82062 0.63703 0.0
C3939 C 0.78934 0.81563 0.63056 0.0
C3940 C 0.8141 0.81046 0.64063 0.0
C3941 C 0.81225 0.79508 0.63788 0.0
C3942 C 0.79861 0.79007 0.6319 0.0
C3943 C 0.78731 0.80021 0.62825 0.0
H3944 H 0.95549 0.03504 0.36203 0.0
H3945 H 0.92725 0.04595 0.39958 0.0
H3946 H 0.97238 0.0551 0.36872 0.0
H3947 H 0.94475 0.06551 0.40707 0.0
H3948 H 0.96993 0.11016 0.40638 0.0
H3949 H 0.95326 0.08914 0.40166 0.0
H3950 H 0.99059 0.06372 0.38421 0.0
H3951 H 0.00683 0.0852 0.38791 0.0
C3952 C 0.95308 0.04156 0.37195 0.0
C3953 C 0.94005 0.03892 0.38028 0.0
C3954 C 0.96286 0.05306 0.3759 0.0
C3955 C 0.96011 0.06203 0.38854 0.0
C3956 C 0.94719 0.0591 0.3971 0.0
C3957 C 0.93718 0.0478 0.3929 0.0
C3958 C 0.97452 0.10001 0.40161 0.0
C3959 C 0.98961 0.09932 0.39738 0.0
C3960 C 0.96499 0.08788 0.39897 0.0
C3961 C 0.97043 0.07463 0.39238 0.0
C3962 C 0.98577 0.07381 0.38885 0.0
C3963 C 0.99518 0.08608 0.3911 0.0
H3964 H 0.65323 0.22682 0.16509 0.0
H3965 H 0.66533 0.25055 0.12478 0.0
H3966 H 0.67456 0.21011 0.1616 0.0
H3967 H 0.68633 0.23372 0.12113 0.0
H3968 H 0.73002 0.20938 0.12412 0.0
H3969 H 0.71036 0.22691 0.13095 0.0
H3970 H 0.68237 0.19011 0.14496 0.0
H3971 H 0.70222 0.17255 0.13847 0.0
C3972 C 0.66046 0.22852 0.15552 0.0
C3973 C 0.65756 0.24003 0.14521 0.0
C3974 C 0.67263 0.21888 0.15347 0.0
C3975 C 0.68218 0.22055 0.14108 0.0
C3976 C 0.67938 0.23223 0.13093 0.0
C3977 C 0.66725 0.24184 0.13297 0.0
C3978 C 0.71973 0.20502 0.12879 0.0
C3979 C 0.71766 0.18954 0.13065 0.0
C3980 C 0.70841 0.21508 0.13263 0.0
C3981 C 0.69471 0.20993 0.13836 0.0
C3982 C 0.69283 0.19448 0.1407 0.0
C3983 C 0.70419 0.1844 0.13691 0.0
H3984 H 0.57737 0.04609 0.60663 0.0
H3985 H 0.54925 0.03551 0.64438 0.0
H3986 H 0.55984 0.06556 0.59901 0.0
H3987 H 0.53231 0.05549 0.63752 0.0
H3988 H 0.49788 0.08548 0.6183 0.0
H3989 H 0.51407 0.06393 0.62188 0.0
H3990 H 0.55142 0.08929 0.6044 0.0
H3991 H 0.53481 0.11039 0.59981 0.0
C3992 C 0.56745 0.04799 0.61332 0.0
C3993 C 0.56464 0.03925 0.62605 0.0
C3994 C 0.55743 0.05924 0.60904 0.0
C3995 C 0.54454 0.06223 0.6176 0.0
C3996 C 0.54182 0.05338 0.63034 0.0
C3997 C 0.55163 0.04194 0.63439 0.0
C3998 C 0.50952 0.08632 0.61505 0.0
C3999 C 0.51512 0.09958 0.60883 0.0
C4000 C 0.51889 0.07401 0.61724 0.0
C4001 C 0.53423 0.07482 0.6137 0.0
C4002 C 0.53969 0.08805 0.6071 0.0
C4003 C 0.53019 0.10023 0.60453 0.0
H4004 H 0.66435 0.75564 0.38017 0.0
H4005 H 0.65203 0.7795 0.34001 0.0
H4006 H 0.68535 0.77241 0.38376 0.0
H4007 H 0.67343 0.79618 0.34344 0.0
H4008 H 0.72896 0.7967 0.38099 0.0
H4009 H 0.70931 0.77921 0.37401 0.0
H4010 H 0.68142 0.8161 0.36004 0.0
H4011 H 0.70127 0.8336 0.36664 0.0
C4012 C 0.66622 0.76437 0.37198 0.0
C4013 C 0.65646 0.76623 0.35981 0.0
C4014 C 0.67837 0.77395 0.374 0.0
C4015 C 0.68114 0.78565 0.36387 0.0
C4016 C 0.67153 0.78738 0.35154 0.0
C4017 C 0.65932 0.77777 0.34952 0.0
C4018 C 0.7187 0.80109 0.3763 0.0
C4019 C 0.71665 0.81656 0.37449 0.0
C4020 C 0.70739 0.79105 0.37237 0.0
C4021 C 0.6937 0.79624 0.36661 0.0
C4022 C 0.69186 0.8117 0.36431 0.0
C4023 C 0.70322 0.82174 0.36818 0.0
H4024 H 0.00691 0.92152 0.11817 0.0
H4025 H 0.97012 0.89613 0.10012 0.0
H4026 H 0.99056 0.94296 0.12164 0.0
H4027 H 0.95334 0.91712 0.10462 0.0
H4028 H 0.92715 0.96032 0.10622 0.0
H4029 H 0.94466 0.94066 0.09898 0.0
H4030 H 0.97238 0.95169 0.13707 0.0
H4031 H 0.95549 0.97183 0.14351 0.0
C4032 C 0.99526 0.92054 0.11503 0.0
C4033 C 0.98976 0.90718 0.10893 0.0
C4034 C 0.98579 0.93278 0.11715 0.0
C4035 C 0.97045 0.93184 0.11368 0.0
C4036 C 0.96506 0.91848 0.10726 0.0
C4037 C 0.97466 0.90636 0.10475 0.0
C4038 C 0.93711 0.95859 0.1129 0.0
C4039 C 0.94 0.96766 0.12537 0.0
C4040 C 0.94712 0.94722 0.10884 0.0
C4041 C 0.96007 0.94445 0.11739 0.0
C4042 C 0.96284 0.95361 0.1299 0.0
C4043 C 0.95305 0.96515 0.1337 0.0
H4044 H 0.85358 0.22778 0.84025 0.0
H4045 H 0.84199 0.25116 0.88091 0.0
H4046 H 0.832 0.21134 0.84363 0.0
H4047 H 0.82078 0.23462 0.88444 0.0
H4048 H 0.80409 0.17384 0.8666 0.0
H4049 H 0.82404 0.19125 0.86004 0.0
H4050 H 0.79664 0.22819 0.87485 0.0
H4051 H 0.7769 0.21078 0.88177 0.0
C4052 C 0.84641 0.22947 0.84986 0.0
C4053 C 0.84954 0.24078 0.86031 0.0
C4054 C 0.83409 0.21999 0.85184 0.0
C4055 C 0.82464 0.22164 0.86431 0.0
C4056 C 0.82765 0.23315 0.87458 0.0
C4057 C 0.83991 0.2426 0.8726 0.0
C4058 C 0.80227 0.18569 0.86833 0.0
C4059 C 0.78895 0.1909 0.87485 0.0
C4060 C 0.81369 0.19569 0.86449 0.0
C4061 C 0.81201 0.21113 0.86703 0.0
C4062 C 0.79843 0.21636 0.87301 0.0
C4063 C 0.78707 0.20637 0.87691 0.0
H4064 H 0.86114 0.54999 0.96942 0.0
H4065 H 0.89893 0.57816 0.95912 0.0
H4066 H 0.86823 0.53301 0.94956 0.0
H4067 H 0.90678 0.5606 0.93978 0.0
H4068 H 0.90661 0.53533 0.89511 0.0
H4069 H 0.90167 0.55206 0.91604 0.0
H4070 H 0.88403 0.51478 0.94139 0.0
H4071 H 0.88797 0.49847 0.92 0.0
C4072 C 0.87118 0.55237 0.96308 0.0
C4073 C 0.87947 0.5654 0.96582 0.0
C4074 C 0.87536 0.54254 0.95171 0.0
C4075 C 0.88818 0.54526 0.94297 0.0
C4076 C 0.89669 0.55819 0.94601 0.0
C4077 C 0.89228 0.56823 0.95719 0.0
C4078 C 0.90177 0.53076 0.90523 0.0
C4079 C 0.89754 0.51567 0.90592 0.0
C4080 C 0.899 0.54032 0.91731 0.0
C4081 C 0.89225 0.53491 0.93049 0.0
C4082 C 0.88877 0.51956 0.93134 0.0
C4083 C 0.89116 0.51013 0.91913 0.0
H4084 H 0.37437 0.9581 0.02732 0.0
H4085 H 0.38687 0.92083 0.05539 0.0
H4086 H 0.38176 0.97542 0.04691 0.0
H4087 H 0.39394 0.93823 0.07523 0.0
H4088 H 0.37575 0.99964 0.09138 0.0
H4089 H 0.37172 0.98259 0.0707 0.0
H4090 H 0.41126 0.95781 0.08321 0.0
H4091 H 0.41515 0.97482 0.10428 0.0
C4092 C 0.37874 0.95359 0.03767 0.0
C4093 C 0.3799 0.93806 0.03983 0.0
C4094 C 0.38291 0.96353 0.04894 0.0
C4095 C 0.38827 0.95823 0.06273 0.0
C4096 C 0.38996 0.94271 0.06471 0.0
C4097 C 0.38584 0.93272 0.05336 0.0
C4098 C 0.38367 0.99063 0.08971 0.0
C4099 C 0.39578 0.98861 0.09952 0.0
C4100 C 0.3814 0.98088 0.07776 0.0
C4101 C 0.39119 0.96884 0.07522 0.0
C4102 C 0.40343 0.96689 0.08492 0.0
C4103 C 0.40571 0.97669 0.09693 0.0
H4104 H 0.74957 0.64066 0.83461 0.0
H4105 H 0.78646 0.65754 0.86066 0.0
H4106 H 0.76617 0.63677 0.81345 0.0
H4107 H 0.80345 0.65263 0.83991 0.0
H4108 H 0.83029 0.64956 0.79708 0.0
H4109 H 0.81272 0.65775 0.81631 0.0
H4110 H 0.78399 0.6203 0.80564 0.0
H4111 H 0.80098 0.61287 0.78596 0.0
C4112 C 0.76129 0.64351 0.83578 0.0
C4113 C 0.76676 0.64933 0.84926 0.0
C4114 C 0.77089 0.64113 0.8237 0.0
C4115 C 0.78632 0.64406 0.82494 0.0
C4116 C 0.79167 0.65036 0.83836 0.0
C4117 C 0.78195 0.65312 0.85033 0.0
C4118 C 0.82011 0.64322 0.7988 0.0
C4119 C 0.81697 0.63064 0.78996 0.0
C4120 C 0.81007 0.64784 0.80991 0.0
C4121 C 0.79679 0.63976 0.81263 0.0
C4122 C 0.79379 0.62713 0.80372 0.0
C4123 C 0.80363 0.62275 0.79245 0.0
H4124 H 0.14459 0.05227 0.53586 0.0
H4125 H 0.1076 0.0811 0.54719 0.0
H4126 H 0.13744 0.03512 0.55552 0.0
H4127 H 0.09965 0.06335 0.56637 0.0
H4128 H 0.09953 0.03663 0.6103 0.0
H4129 H 0.10456 0.05387 0.5898 0.0
H4130 H 0.12135 0.01702 0.56327 0.0
H4131 H 0.11734 1.00019 0.58423 0.0
C4132 C 0.13471 0.05479 0.54241 0.0
C4133 C 0.12665 0.06802 0.53997 0.0
C4134 C 0.13049 0.04484 0.55367 0.0
C4135 C 0.11781 0.04764 0.56259 0.0
C4136 C 0.1096 0.06085 0.55996 0.0
C4137 C 0.11407 0.07101 0.54889 0.0
C4138 C 0.10419 0.03227 0.60001 0.0
C4139 C 0.10818 0.01713 0.59887 0.0
C4140 C 0.10702 0.04213 0.58818 0.0
C4141 C 0.11359 0.03699 0.5748 0.0
C4142 C 0.11678 0.02161 0.57349 0.0
C4143 C 0.11433 0.01186 0.58545 0.0
H4144 H 0.2575 0.86875 0.83374 0.0
H4145 H 0.22069 0.85036 0.85888 0.0
H4146 H 0.24109 0.87274 0.81245 0.0
H4147 H 0.20387 0.85535 0.83805 0.0
H4148 H 0.17759 0.85796 0.795 0.0
H4149 H 0.19512 0.85023 0.81443 0.0
H4150 H 0.22291 0.88853 0.8042 0.0
H4151 H 0.20597 0.89547 0.78426 0.0
C4152 C 0.24584 0.86562 0.83469 0.0
C4153 C 0.24035 0.85929 0.84794 0.0
C4154 C 0.23634 0.86804 0.82253 0.0
C4155 C 0.22098 0.86464 0.82347 0.0
C4156 C 0.21561 0.85796 0.8367 0.0
C4157 C 0.22523 0.85515 0.84872 0.0
C4158 C 0.18755 0.86459 0.79687 0.0
C4159 C 0.19046 0.87726 0.78807 0.0
C4160 C 0.19758 0.86025 0.8081 0.0
C4161 C 0.21057 0.8687 0.81102 0.0
C4162 C 0.21334 0.88143 0.80215 0.0
C4163 C 0.20352 0.88553 0.79073 0.0
H4164 H 0.63104 0.50171 0.41448 0.0
H4165 H 0.59111 0.47759 0.4019 0.0
H4166 H 0.63473 0.48479 0.43536 0.0
H4167 H 0.59464 0.46076 0.42315 0.0
H4168 H 0.63182 0.46023 0.47882 0.0
H4169 H 0.62482 0.47776 0.45924 0.0
H4170 H 0.61152 0.44091 0.43098 0.0
H4171 H 0.61818 0.42334 0.45077 0.0
C4172 C 0.62292 0.4929 0.41627 0.0
C4173 C 0.61079 0.491 0.40647 0.0
C4174 C 0.62499 0.48323 0.42833 0.0
C4175 C 0.61497 0.47141 0.43098 0.0
C4176 C 0.60266 0.46965 0.42134 0.0
C4177 C 0.60058 0.47935 0.40922 0.0
C4178 C 0.62729 0.45585 0.46848 0.0
C4179 C 0.62568 0.44037 0.46632 0.0
C4180 C 0.62333 0.46591 0.45722 0.0
C4181 C 0.61775 0.46075 0.44346 0.0
C4182 C 0.61566 0.44528 0.44148 0.0
C4183 C 0.61956 0.4352 0.4528 0.0
H4184 H 0.75487 0.3815 0.6646 0.0
H4185 H 0.77817 0.3408 0.65292 0.0
H4186 H 0.77158 0.38509 0.68566 0.0
H4187 H 0.79477 0.34423 0.67435 0.0
H4188 H 0.79598 0.38252 0.7293 0.0
H4189 H 0.77833 0.37562 0.70977 0.0
H4190 H 0.81491 0.36066 0.68199 0.0
H4191 H 0.83256 0.3672 0.70171 0.0
C4192 C 0.76344 0.37319 0.66663 0.0
C4193 C 0.76519 0.36088 0.65702 0.0
C4194 C 0.77299 0.37521 0.6788 0.0
C4195 C 0.78454 0.36494 0.68174 0.0
C4196 C 0.7861 0.35244 0.67231 0.0
C4197 C 0.77653 0.35043 0.66009 0.0
C4198 C 0.80026 0.37763 0.71909 0.0
C4199 C 0.8157 0.37552 0.71704 0.0
C4200 C 0.79014 0.37374 0.70785 0.0
C4201 C 0.79519 0.36771 0.69423 0.0
C4202 C 0.8106 0.36514 0.69238 0.0
C4203 C 0.82074 0.36897 0.70366 0.0
H4204 H 0.75111 0.62486 0.16317 0.0
H4205 H 0.72761 0.6655 0.15171 0.0
H4206 H 0.73436 0.62106 0.18419 0.0
H4207 H 0.71098 0.66185 0.17308 0.0
H4208 H 0.71055 0.62399 0.22818 0.0
H4209 H 0.72791 0.63078 0.20838 0.0
H4210 H 0.69091 0.64522 0.18088 0.0
H4211 H 0.67353 0.63875 0.20089 0.0
C4212 C 0.74247 0.63309 0.16523 0.0
C4213 C 0.7407 0.64548 0.15572 0.0
C4214 C 0.7329 0.63096 0.17737 0.0
C4215 C 0.72133 0.64117 0.18037 0.0
C4216 C 0.71968 0.65369 0.17099 0.0
C4217 C 0.72927 0.65583 0.1588 0.0
C4218 C 0.7061 0.62873 0.21797 0.0
C4219 C 0.69063 0.63073 0.21609 0.0
C4220 C 0.71606 0.63256 0.20657 0.0
C4221 C 0.71081 0.6384 0.19296 0.0
C4222 C 0.69536 0.64086 0.19126 0.0
C4223 C 0.68538 0.63709 0.20271 0.0
H4224 H 0.53636 0.64387 0.95585 0.0
H4225 H 0.54732 0.60722 0.92644 0.0
H4226 H 0.55636 0.63662 0.97255 0.0
H4227 H 0.56686 0.59918 0.94373 0.0
H4228 H 0.6116 0.59962 0.96927 0.0
H4229 H 0.59054 0.60438 0.95262 0.0
H4230 H 0.56466 0.62036 0.99027 0.0
H4231 H 0.58613 0.61664 0.00649 0.0
C4232 C 0.54288 0.63403 0.95312 0.0
C4233 C 0.54026 0.62612 0.93984 0.0
C4234 C 0.55434 0.62975 0.9628 0.0
C4235 C 0.5633 0.61717 0.95968 0.0
C4236 C 0.56043 0.60906 0.94647 0.0
C4237 C 0.54915 0.61358 0.93658 0.0
C4238 C 0.60133 0.60403 0.97393 0.0
C4239 C 0.6005 0.60791 0.9891 0.0
C4240 C 0.58918 0.60671 0.96441 0.0
C4241 C 0.57582 0.613 0.96995 0.0
C4242 C 0.57484 0.61601 0.98539 0.0
C4243 C 0.5871 0.61373 0.99477 0.0
H4244 H 0.62373 0.27698 0.2093 0.0
H4245 H 0.63934 0.30428 0.17263 0.0
H4246 H 0.63018 0.29679 0.22681 0.0
H4247 H 0.64547 0.32428 0.19014 0.0
H4248 H 0.66511 0.35341 0.22714 0.0
H4249 H 0.66171 0.33202 0.2105 0.0
H4250 H 0.62047 0.32106 0.23314 0.0
H4251 H 0.62402 0.34214 0.24991 0.0
C4252 C 0.6286 0.28719 0.20497 0.0
C4253 C 0.63093 0.28907 0.18954 0.0
C4254 C 0.63222 0.2986 0.21501 0.0
C4255 C 0.63821 0.31221 0.20989 0.0
C4256 C 0.641 0.3139 0.1945 0.0
C4257 C 0.63742 0.30245 0.18444 0.0
C4258 C 0.65539 0.34635 0.22864 0.0
C4259 C 0.64484 0.34951 0.23986 0.0
C4260 C 0.65339 0.33415 0.21903 0.0
C4261 C 0.64081 0.32481 0.22046 0.0
C4262 C 0.6304 0.32786 0.23185 0.0
C4263 C 0.6324 0.34003 0.24143 0.0
H4264 H 0.95845 0.39905 0.42579 0.0
H4265 H 0.96959 0.36198 0.45459 0.0
H4266 H 0.93884 0.40669 0.44323 0.0
H4267 H 0.94955 0.36881 0.47139 0.0
H4268 H 0.92019 0.38846 0.50595 0.0
H4269 H 0.94143 0.38477 0.48942 0.0
H4270 H 0.91524 0.4014 0.45228 0.0
H4271 H 0.89442 0.40613 0.46924 0.0
C4272 C 0.95663 0.3925 0.43582 0.0
C4273 C 0.96562 0.38 0.43889 0.0
C4274 C 0.94532 0.39679 0.44579 0.0
C4275 C 0.94252 0.38845 0.45888 0.0
C4276 C 0.95152 0.37585 0.46176 0.0
C4277 C 0.963 0.37181 0.45201 0.0
C4278 C 0.91909 0.39148 0.49427 0.0
C4279 C 0.90568 0.3975 0.48884 0.0
C4280 C 0.93122 0.38923 0.48471 0.0
C4281 C 0.93009 0.39247 0.46933 0.0
C4282 C 0.91671 0.3989 0.46402 0.0
C4283 C 0.90471 0.40155 0.47372 0.0
H4284 H 0.88076 0.66486 0.75065 0.0
H4285 H 0.84087 0.65172 0.72678 0.0
H4286 H 0.88425 0.68562 0.73354 0.0
H4287 H 0.8442 0.67286 0.70975 0.0
H4288 H 0.86759 0.70044 0.67207 0.0
H4289 H 0.86095 0.68075 0.68978 0.0
H4290 H 0.87411 0.70936 0.7264 0.0
H4291 H 0.88111 0.72882 0.70873 0.0
C4292 C 0.87261 0.6665 0.74185 0.0
C4293 C 0.86054 0.65659 0.74009 0.0
C4294 C 0.87456 0.6785 0.73207 0.0
C4295 C 0.86448 0.68097 0.72027 0.0
C4296 C 0.85225 0.6712 0.71862 0.0
C4297 C 0.8503 0.65914 0.72844 0.0
C4298 C 0.86893 0.70257 0.68391 0.0
C4299 C 0.87503 0.71614 0.68897 0.0
C4300 C 0.86505 0.69131 0.69408 0.0
C4301 C 0.86714 0.69341 0.70952 0.0
C4302 C 0.87265 0.70724 0.71457 0.0
C4303 C 0.87659 0.71844 0.70443 0.0
H4304 H 0.54663 0.39914 0.57839 0.0
H4305 H 0.53589 0.36114 0.55069 0.0
H4306 H 0.56603 0.40658 0.5607 0.0
H4307 H 0.55582 0.36778 0.53363 0.0
H4308 H 0.58555 0.38685 0.49877 0.0
H4309 H 0.5642 0.38313 0.51518 0.0
H4310 H 0.58965 0.40128 0.55213 0.0
H4311 H 0.61051 0.40601 0.53529 0.0
C4312 C 0.54849 0.39235 0.56854 0.0
C4313 C 0.53971 0.37962 0.56587 0.0
C4314 C 0.5597 0.39652 0.55843 0.0
C4315 C 0.56263 0.38782 0.54561 0.0
C4316 C 0.55376 0.37506 0.54306 0.0
C4317 C 0.54235 0.37114 0.55295 0.0
C4318 C 0.58646 0.39019 0.51038 0.0
C4319 C 0.59966 0.39667 0.51579 0.0
C4320 C 0.57426 0.38793 0.51988 0.0
C4321 C 0.57513 0.39165 0.53517 0.0
C4322 C 0.58834 0.39844 0.54045 0.0
C4323 C 0.60039 0.40108 0.53082 0.0
H4324 H 0.851 0.36057 0.78579 0.0
H4325 H 0.8694 0.33498 0.74931 0.0
H4326 H 0.85593 0.33993 0.80285 0.0
H4327 H 0.87331 0.31385 0.76597 0.0
H4328 H 0.89562 0.28574 0.80129 0.0
H4329 H 0.88894 0.30566 0.78424 0.0
H4330 H 0.8507 0.31644 0.8119 0.0
H4331 H 0.8582 0.29702 0.82956 0.0
C4332 C 0.8558 0.35036 0.78138 0.0
C4333 C 0.85994 0.34939 0.76628 0.0
C4334 C 0.85856 0.33844 0.79114 0.0
C4335 C 0.8652 0.32512 0.78594 0.0
C4336 C 0.86865 0.32401 0.7706 0.0
C4337 C 0.86627 0.33607 0.76096 0.0
C4338 C 0.88575 0.29234 0.80369 0.0
C4339 C 0.87743 0.28981 0.81675 0.0
C4340 C 0.88179 0.30374 0.79381 0.0
C4341 C 0.86914 0.31274 0.79649 0.0
C4342 C 0.86065 0.31 0.8095 0.0
C4343 C 0.86486 0.29878 0.8196 0.0
H4344 H 0.89495 0.60016 0.03494 0.0
H4345 H 0.92075 0.61755 0.99811 0.0
H4346 H 0.91575 0.60502 0.05187 0.0
H4347 H 0.94196 0.62142 0.01463 0.0
H4348 H 0.96985 0.64467 0.04963 0.0
H4349 H 0.95003 0.63755 0.03262 0.0
H4350 H 0.93935 0.59974 0.06089 0.0
H4351 H 0.95868 0.60762 0.07846 0.0
C4352 C 0.90523 0.60469 0.03043 0.0
C4353 C 0.90622 0.60862 0.01528 0.0
C4354 C 0.91723 0.60743 0.04011 0.0
C4355 C 0.93061 0.61383 0.03476 0.0
C4356 C 0.93176 0.61696 0.01936 0.0
C4357 C 0.91964 0.61461 0.00981 0.0
C4358 C 0.96332 0.63478 0.05217 0.0
C4359 C 0.96582 0.62671 0.06538 0.0
C4360 C 0.95197 0.63059 0.04232 0.0
C4361 C 0.94301 0.61795 0.0452 0.0
C4362 C 0.94577 0.60968 0.05834 0.0
C4363 C 0.95694 0.61411 0.06839 0.0
H4364 H 0.65638 0.6459 0.28585 0.0
H4365 H 0.6385 0.67131 0.24899 0.0
H4366 H 0.65156 0.6668 0.30266 0.0
H4367 H 0.63471 0.69266 0.26538 0.0
H4368 H 0.61179 0.72083 0.30031 0.0
H4369 H 0.6188 0.7009 0.28342 0.0
H4370 H 0.65679 0.69044 0.31151 0.0
H4371 H 0.64898 0.70989 0.32901 0.0
C4372 C 0.65173 0.65612 0.28131 0.0
C4373 C 0.64767 0.65697 0.26618 0.0
C4374 C 0.64903 0.66818 0.29092 0.0
C4375 C 0.64253 0.6815 0.28552 0.0
C4376 C 0.63925 0.6825 0.27015 0.0
C4377 C 0.64156 0.67031 0.26067 0.0
C4378 C 0.62169 0.71433 0.30283 0.0
C4379 C 0.62984 0.71693 0.31598 0.0
C4380 C 0.62583 0.70291 0.29305 0.0
C4381 C 0.63849 0.69398 0.29591 0.0
C4382 C 0.64684 0.69684 0.30897 0.0
C4383 C 0.64245 0.70807 0.31898 0.0
H4384 H 0.95921 0.52647 0.63056 0.0
H4385 H 0.92232 0.55474 0.61739 0.0
H4386 H 0.97677 0.54592 0.62324 0.0
H4387 H 0.93993 0.57442 0.61042 0.0
H4388 H 1.00099 0.59045 0.6296 0.0
H4389 H 0.98399 0.56965 0.63323 0.0
H4390 H 0.9597 0.58241 0.59348 0.0
H4391 H 0.97665 0.60362 0.59001 0.0
C4392 C 0.95484 0.53683 0.62605 0.0
C4393 C 0.93935 0.5391 0.62469 0.0
C4394 C 0.96492 0.54802 0.62191 0.0
C4395 C 0.95977 0.56183 0.61642 0.0
C4396 C 0.94429 0.56389 0.61451 0.0
C4397 C 0.93419 0.55263 0.61858 0.0
C4398 C 0.99211 0.58881 0.62154 0.0
C4399 C 0.99019 0.59875 0.60952 0.0
C4400 C 0.98239 0.57677 0.62357 0.0
C4401 C 0.97048 0.57429 0.61363 0.0
C4402 C 0.96867 0.58408 0.60144 0.0
C4403 C 0.97844 0.59618 0.59939 0.0
H4404 H 0.64546 0.72133 0.85035 0.0
H4405 H 0.67035 0.75835 0.86865 0.0
H4406 H 0.66655 0.70472 0.85506 0.0
H4407 H 0.69187 0.74217 0.87236 0.0
H4408 H 0.7204 0.70718 0.89491 0.0
H4409 H 0.70029 0.72398 0.8881 0.0
H4410 H 0.69035 0.6964 0.84961 0.0
H4411 H 0.70997 0.67901 0.85717 0.0
C4412 C 0.6556 0.72595 0.85507 0.0
C4413 C 0.65626 0.74106 0.85928 0.0
C4414 C 0.66777 0.71647 0.85771 0.0
C4415 C 0.681 0.72197 0.86428 0.0
C4416 C 0.6818 0.73733 0.86774 0.0
C4417 C 0.6695 0.74668 0.86549 0.0
C4418 C 0.71397 0.70476 0.88494 0.0
C4419 C 0.71675 0.69178 0.87658 0.0
C4420 C 0.70245 0.71448 0.88092 0.0
C4421 C 0.6936 0.71171 0.8682 0.0
C4422 C 0.69667 0.69884 0.85963 0.0
C4423 C 0.708 0.6889 0.86387 0.0
H4424 H 0.55143 0.4708 0.14524 0.0
H4425 H 0.57981 0.45971 0.10785 0.0
H4426 H 0.53459 0.45067 0.1386 0.0
H4427 H 0.56237 0.44009 0.10041 0.0
H4428 H 0.53688 0.39555 0.10103 0.0
H4429 H 0.55368 0.41647 0.10579 0.0
H4430 H 0.51643 0.44219 0.12296 0.0
H4431 H 0.50006 0.42082 0.11923 0.0
C4432 C 0.55389 0.46421 0.13538 0.0
C4433 C 0.56693 0.46683 0.12706 0.0
C4434 C 0.54414 0.45268 0.13145 0.0
C4435 C 0.54693 0.44366 0.11884 0.0
C4436 C 0.55989 0.44654 0.11034 0.0
C4437 C 0.56987 0.45788 0.11451 0.0
C4438 C 0.53234 0.40575 0.10574 0.0
C4439 C 0.51723 0.40655 0.1099 0.0
C4440 C 0.54194 0.41782 0.10841 0.0
C4441 C 0.53656 0.43112 0.11496 0.0
C4442 C 0.5212 0.43206 0.11838 0.0
C4443 C 0.51173 0.41985 0.1161 0.0
H4444 H 0.78518 0.30076 0.39435 0.0
H4445 H 0.79624 0.32889 0.35676 0.0
H4446 H 0.80513 0.28373 0.38766 0.0
H4447 H 0.81567 0.31125 0.34927 0.0
H4448 H 0.86016 0.28565 0.34993 0.0
H4449 H 0.83924 0.30248 0.35452 0.0
H4450 H 0.8136 0.26543 0.37223 0.0
H4451 H 0.83499 0.24903 0.36867 0.0
C4452 C 0.79171 0.30312 0.38443 0.0
C4453 C 0.78914 0.31616 0.37608 0.0
C4454 C 0.80314 0.29325 0.38047 0.0
C4455 C 0.81211 0.29592 0.3678 0.0
C4456 C 0.80926 0.30886 0.35925 0.0
C4457 C 0.79803 0.31895 0.36345 0.0
C4458 C 0.84997 0.28115 0.35471 0.0
C4459 C 0.84921 0.26609 0.35908 0.0
C4460 C 0.8379 0.29078 0.35728 0.0
C4461 C 0.82462 0.28547 0.36395 0.0
C4462 C 0.82371 0.27015 0.36756 0.0
C4463 C 0.83592 0.26066 0.36537 0.0
H4464 H 0.96067 0.47843 0.8734 0.0
H4465 H 0.92376 0.45065 0.88757 0.0
H4466 H 0.97817 0.45887 0.88053 0.0
H4467 H 0.94131 0.43087 0.89436 0.0
H4468 H 1.00195 0.41396 0.87472 0.0
H4469 H 0.98504 0.43482 0.87084 0.0
H4470 H 0.96127 0.42323 0.91126 0.0
H4471 H 0.97809 0.402 0.915 0.0
C4472 C 0.95628 0.46816 0.87808 0.0
C4473 C 0.9408 0.46607 0.8798 0.0
C4474 C 0.96632 0.4569 0.8821 0.0
C4475 C 0.96115 0.44322 0.88787 0.0
C4476 C 0.94569 0.44131 0.89007 0.0
C4477 C 0.93562 0.45263 0.8861 0.0
C4478 C 0.9932 0.41589 0.88287 0.0
C4479 C 0.99138 0.40627 0.89516 0.0
C4480 C 0.98354 0.42794 0.88068 0.0
C4481 C 0.97179 0.43075 0.89075 0.0
C4482 C 0.9701 0.42129 0.90321 0.0
C4483 C 0.9798 0.40919 0.9054 0.0
H4484 H 0.80497 0.67306 0.13796 0.0
H4485 H 0.77726 0.71001 0.12379 0.0
H4486 H 0.82483 0.69055 0.1446 0.0
H4487 H 0.79691 0.72748 0.13076 0.0
H4488 H 0.8419 0.75103 0.12455 0.0
H4489 H 0.82096 0.73417 0.12086 0.0
H4490 H 0.83268 0.71055 0.16133 0.0
H4491 H 0.85398 0.72733 0.16487 0.0
C4492 C 0.80302 0.68492 0.13647 0.0
C4493 C 0.78958 0.69012 0.1302 0.0
C4494 C 0.81439 0.69496 0.14035 0.0
C4495 C 0.81253 0.71042 0.13808 0.0
C4496 C 0.79884 0.71563 0.13238 0.0
C4497 C 0.78753 0.70561 0.12845 0.0
C4498 C 0.83999 0.74232 0.13273 0.0
C4499 C 0.84965 0.74053 0.14499 0.0
C4500 C 0.82789 0.73268 0.13067 0.0
C4501 C 0.82508 0.72101 0.14082 0.0
C4502 C 0.83462 0.71933 0.15322 0.0
C4503 C 0.84677 0.729 0.15529 0.0
H4504 H 0.49941 0.58534 0.3884 0.0
H4505 H 0.53616 0.61109 0.406 0.0
H4506 H 0.51595 0.56411 0.3846 0.0
H4507 H 0.55312 0.5903 0.40118 0.0
H4508 H 0.57984 0.54742 0.39863 0.0
H4509 H 0.56223 0.56679 0.4064 0.0
H4510 H 0.53397 0.55585 0.36869 0.0
H4511 H 0.55098 0.536 0.36171 0.0
C4512 C 0.51109 0.58644 0.3914 0.0
C4513 C 0.51653 0.59985 0.39744 0.0
C4514 C 0.52067 0.57431 0.38908 0.0
C4515 C 0.53606 0.57544 0.39228 0.0
C4516 C 0.54137 0.58882 0.39872 0.0
C4517 C 0.53167 0.60082 0.40143 0.0
C4518 C 0.56975 0.54911 0.39214 0.0
C4519 C 0.56675 0.54014 0.37962 0.0
C4520 C 0.55968 0.56031 0.39651 0.0
C4521 C 0.54653 0.56301 0.38824 0.0
C4522 C 0.54366 0.55397 0.37567 0.0
C4523 C 0.55352 0.54259 0.37154 0.0
H4524 H 0.6448 0.28647 0.65507 0.0
H4525 H 0.67051 0.25007 0.63666 0.0
H4526 H 0.66548 0.30358 0.65031 0.0
H4527 H 0.69164 0.26674 0.63294 0.0
H4528 H 0.71994 0.30198 0.61089 0.0
H4529 H 0.69989 0.28502 0.6174 0.0
H4530 H 0.68896 0.31266 0.65559 0.0
H4531 H 0.70853 0.33026 0.64826 0.0
C4532 C 0.65504 0.28209 0.6503 0.0
C4533 C 0.65604 0.267 0.6461 0.0
C4534 C 0.66698 0.29188 0.64764 0.0
C4535 C 0.68033 0.2867 0.64103 0.0
C4536 C 0.68146 0.27136 0.63756 0.0
C4537 C 0.66939 0.26171 0.63983 0.0
C4538 C 0.71329 0.3044 0.62072 0.0
C4539 C 0.71582 0.31743 0.62908 0.0
C4540 C 0.70181 0.29457 0.62458 0.0
C4541 C 0.69274 0.29725 0.63717 0.0
C4542 C 0.69547 0.31025 0.64569 0.0
C4543 C 0.70677 0.32031 0.64158 0.0
H4544 H 0.64438 0.95531 0.53592 0.0
H4545 H 0.60807 0.92561 0.54723 0.0
H4546 H 0.63696 0.97217 0.55571 0.0
H4547 H 0.59986 0.94305 0.56659 0.0
H4548 H 0.59979 0.96958 0.61081 0.0
H4549 H 0.6049 0.95252 0.59015 0.0
H4550 H 0.62033 0.98984 0.56347 0.0
H4551 H 0.61625 0.00651 0.58453 0.0
C4552 C 0.63459 0.95253 0.54249 0.0
C4553 C 0.62679 0.93915 0.53999 0.0
C4554 C 0.63021 0.9623 0.55382 0.0
C4555 C 0.61765 0.95918 0.56279 0.0
C4556 C 0.6097 0.94582 0.56013 0.0
C4557 C 0.61433 0.93584 0.54895 0.0
C4558 C 0.60416 0.97408 0.60045 0.0
C4559 C 0.60778 0.98931 0.59928 0.0
C4560 C 0.60704 0.96432 0.58854 0.0
C4561 C 0.61328 0.96966 0.57508 0.0
C4562 C 0.61604 0.98512 0.57375 0.0
C4563 C 0.61355 0.99476 0.58577 0.0
H4564 H 0.14624 0.55137 0.46987 0.0
H4565 H 0.10878 0.57979 0.45906 0.0
H4566 H 0.13937 0.53447 0.44987 0.0
H4567 H 0.10113 0.5623 0.43956 0.0
H4568 H 0.10123 0.53653 0.39519 0.0
H4569 H 0.1063 0.55346 0.41593 0.0
H4570 H 0.12352 0.5163 0.44173 0.0
H4571 H 0.11945 0.49979 0.42055 0.0
C4572 C 0.13632 0.55384 0.46337 0.0
C4573 C 0.12804 0.5669 0.46604 0.0
C4574 C 0.13227 0.54405 0.45192 0.0
C4575 C 0.11957 0.54683 0.44302 0.0
C4576 C 0.11112 0.55983 0.44592 0.0
C4577 C 0.11541 0.56983 0.45719 0.0
C4578 C 0.10602 0.53204 0.40536 0.0
C4579 C 0.11008 0.51691 0.40624 0.0
C4580 C 0.10887 0.54172 0.41733 0.0
C4581 C 0.11552 0.53639 0.43059 0.0
C4582 C 0.11886 0.52102 0.43161 0.0
C4583 C 0.11639 0.51147 0.41952 0.0
H4584 H 0.67762 0.85799 0.71037 0.0
H4585 H 0.70581 0.8956 0.72127 0.0
H4586 H 0.69532 0.8503 0.69109 0.0
H4587 H 0.72291 0.8887 0.70145 0.0
H4588 H 0.75758 0.86922 0.67176 0.0
H4589 H 0.74117 0.87309 0.6931 0.0
H4590 H 0.70401 0.85558 0.66751 0.0
H4591 H 0.72081 0.85071 0.64666 0.0
C4592 C 0.68759 0.86464 0.70857 0.0
C4593 C 0.69038 0.87734 0.71736 0.0
C4594 C 0.69771 0.86032 0.69743 0.0
C4595 C 0.71067 0.86884 0.69456 0.0
C4596 C 0.71335 0.88156 0.70346 0.0
C4597 C 0.70345 0.88563 0.7148 0.0
C4598 C 0.74593 0.86605 0.67083 0.0
C4599 C 0.74044 0.85971 0.65758 0.0
C4600 C 0.73643 0.86839 0.68301 0.0
C4601 C 0.72109 0.8649 0.68209 0.0
C4602 C 0.71573 0.85824 0.66885 0.0
C4603 C 0.72535 0.85551 0.65681 0.0
H4604 H 0.37575 0.50045 0.91533 0.0
H4605 H 0.41561 0.47629 0.90256 0.0
H4606 H 0.37206 0.48344 0.93615 0.0
H4607 H 0.41206 0.45936 0.92374 0.0
H4608 H 0.3754 0.4591 0.97972 0.0
H4609 H 0.38227 0.47652 0.96001 0.0
H4610 H 0.39512 0.43951 0.93175 0.0
H4611 H 0.38856 0.42203 0.95167 0.0
C4612 C 0.38384 0.4916 0.91706 0.0
C4613 C 0.39597 0.48974 0.90725 0.0
C4614 C 0.38177 0.48188 0.92909 0.0
C4615 C 0.39179 0.47004 0.93168 0.0
C4616 C 0.40405 0.46827 0.92198 0.0
C4617 C 0.40613 0.47803 0.9099 0.0
C4618 C 0.37982 0.45466 0.96936 0.0
C4619 C 0.38132 0.43915 0.96724 0.0
C4620 C 0.38369 0.46466 0.95801 0.0
C4621 C 0.38908 0.45942 0.94421 0.0
C4622 C 0.3911 0.44394 0.94227 0.0
C4623 C 0.38728 0.43391 0.95368 0.0
H4624 H 0.29745 0.62352 0.72904 0.0
H4625 H 0.33442 0.63767 0.70134 0.0
H4626 H 0.28001 0.63057 0.70942 0.0
H4627 H 0.31693 0.64439 0.6815 0.0
H4628 H 0.2563 0.62468 0.66456 0.0
H4629 H 0.27324 0.62079 0.68538 0.0
H4630 H 0.29695 0.66127 0.67379 0.0
H4631 H 0.28009 0.66501 0.65261 0.0
C4632 C 0.30187 0.62818 0.71877 0.0
C4633 C 0.31735 0.62992 0.71672 0.0
C4634 C 0.29186 0.63215 0.70748 0.0
C4635 C 0.29706 0.63789 0.69381 0.0
C4636 C 0.31252 0.64012 0.69194 0.0
C4637 C 0.32256 0.63619 0.70329 0.0
C4638 C 0.26505 0.63283 0.66647 0.0
C4639 C 0.26683 0.64515 0.65688 0.0
C4640 C 0.27473 0.63064 0.6785 0.0
C4641 C 0.28645 0.64074 0.68131 0.0
C4642 C 0.28813 0.6532 0.67185 0.0
C4643 C 0.27841 0.65539 0.65977 0.0
H4644 H 0.87534 0.04752 0.02556 0.0
H4645 H 0.8882 0.08471 0.05356 0.0
H4646 H 0.88243 0.03017 0.04524 0.0
H4647 H 0.89495 0.0673 0.07349 0.0
H4648 H 0.9155 0.03073 0.10288 0.0
H4649 H 0.91197 0.04759 0.08164 0.0
H4650 H 0.87227 0.02313 0.06901 0.0
H4651 H 0.87596 0.0062 0.08987 0.0
C4652 C 0.87973 0.052 0.03591 0.0
C4653 C 0.88108 0.06752 0.03803 0.0
C4654 C 0.88373 0.04204 0.04724 0.0
C4655 C 0.88909 0.04732 0.06104 0.0
C4656 C 0.89097 0.06283 0.06297 0.0
C4657 C 0.88703 0.07282 0.05157 0.0
C4658 C 0.90611 0.02888 0.09546 0.0
C4659 C 0.89602 0.0171 0.09808 0.0
C4660 C 0.90403 0.0386 0.08335 0.0
C4661 C 0.89184 0.03672 0.07358 0.0
C4662 C 0.88192 0.02479 0.07612 0.0
C4663 C 0.88399 0.01511 0.08818 0.0
H4664 H 0.71918 0.15608 0.86026 0.0
H4665 H 0.75601 0.13875 0.83442 0.0
H4666 H 0.70219 0.15106 0.83954 0.0
H4667 H 0.73943 0.13475 0.81328 0.0
H4668 H 0.70468 0.11135 0.78548 0.0
H4669 H 0.72151 0.11848 0.8054 0.0
H4670 H 0.69305 0.15619 0.81592 0.0
H4671 H 0.67562 0.14827 0.79645 0.0
C4672 C 0.72367 0.15152 0.84999 0.0
C4673 C 0.73885 0.14765 0.84896 0.0
C4674 C 0.71396 0.1487 0.83804 0.0
C4675 C 0.7193 0.14227 0.82467 0.0
C4676 C 0.73471 0.13921 0.82349 0.0
C4677 C 0.7443 0.14164 0.83556 0.0
C4678 C 0.70205 0.12121 0.792 0.0
C4679 C 0.68885 0.12927 0.78938 0.0
C4680 C 0.7118 0.12542 0.80341 0.0
C4681 C 0.70884 0.13806 0.81232 0.0
C4682 C 0.69567 0.14627 0.80951 0.0
C4683 C 0.6857 0.14181 0.79827 0.0
H4684 H 0.82905 0.85857 0.29572 0.0
H4685 H 0.80082 0.89616 0.28487 0.0
H4686 H 0.81149 0.85102 0.31523 0.0
H4687 H 0.78389 0.88942 0.30486 0.0
H4688 H 0.7491 0.86994 0.33427 0.0
H4689 H 0.76561 0.87376 0.31303 0.0
H4690 H 0.80264 0.85625 0.33883 0.0
H4691 H 0.7857 0.85141 0.3596 0.0
C4692 C 0.81912 0.86525 0.29759 0.0
C4693 C 0.81625 0.87788 0.28872 0.0
C4694 C 0.80908 0.86101 0.30885 0.0
C4695 C 0.79612 0.86954 0.31173 0.0
C4696 C 0.79342 0.88224 0.30282 0.0
C4697 C 0.80323 0.88623 0.29138 0.0
C4698 C 0.76074 0.86677 0.33528 0.0
C4699 C 0.76614 0.86044 0.34856 0.0
C4700 C 0.7703 0.86908 0.32315 0.0
C4701 C 0.78564 0.86559 0.32416 0.0
C4702 C 0.79092 0.85893 0.33743 0.0
C4703 C 0.78123 0.85622 0.34942 0.0
H4704 H 0.47932 0.3735 0.04686 0.0
H4705 H 0.45194 0.38838 0.08378 0.0
H4706 H 0.45951 0.38016 0.02947 0.0
H4707 H 0.43193 0.39472 0.06635 0.0
H4708 H 0.41429 0.37407 0.00626 0.0
H4709 H 0.43531 0.37035 0.02305 0.0
H4710 H 0.42418 0.41129 0.04617 0.0
H4711 H 0.40285 0.41486 0.0295 0.0
C4712 C 0.46909 0.37825 0.05128 0.0
C4713 C 0.46718 0.38031 0.06674 0.0
C4714 C 0.45769 0.38199 0.04129 0.0
C4715 C 0.44406 0.38783 0.04651 0.0
C4716 C 0.44233 0.39037 0.06193 0.0
C4717 C 0.45378 0.38666 0.07194 0.0
C4718 C 0.41635 0.38235 0.01485 0.0
C4719 C 0.40685 0.39475 0.01653 0.0
C4720 C 0.42848 0.38026 0.02444 0.0
C4721 C 0.43147 0.39053 0.03596 0.0
C4722 C 0.4221 0.40307 0.03752 0.0
C4723 C 0.40993 0.40517 0.0279 0.0
H4724 H 0.37021 0.67007 0.74909 0.0
H4725 H 0.35136 0.64528 0.7859 0.0
H4726 H 0.37382 0.6916 0.76528 0.0
H4727 H 0.35598 0.66635 0.80253 0.0
H4728 H 0.35785 0.70961 0.82835 0.0
H4729 H 0.3505 0.69004 0.81084 0.0
H4730 H 0.38919 0.70026 0.78361 0.0
H4731 H 0.39576 0.72036 0.80052 0.0
C4732 C 0.36691 0.66925 0.76072 0.0
C4733 C 0.36056 0.65603 0.76627 0.0
C4734 C 0.36911 0.68154 0.77009 0.0
C4735 C 0.36545 0.68078 0.78539 0.0
C4736 C 0.35877 0.66757 0.79082 0.0
C4737 C 0.35618 0.65541 0.78132 0.0
C4738 C 0.36464 0.70772 0.8185 0.0
C4739 C 0.37733 0.71654 0.81576 0.0
C4740 C 0.36052 0.6964 0.80849 0.0
C4741 C 0.36922 0.69341 0.79569 0.0
C4742 C 0.38192 0.70235 0.79304 0.0
C4743 C 0.3858 0.71387 0.80284 0.0
H4744 H 0.0861 0.61871 0.4991 0.0
H4745 H 0.11169 0.6003 0.53557 0.0
H4746 H 0.0648 0.62212 0.51563 0.0
H4747 H 0.09084 0.60474 0.55253 0.0
H4748 H 0.04775 0.60674 0.5791 0.0
H4749 H 0.0673 0.59937 0.5615 0.0
H4750 H 0.05649 0.63765 0.53392 0.0
H4751 H 0.03648 0.64421 0.55087 0.0
C4752 C 0.08715 0.61546 0.51072 0.0
C4753 C 0.10053 0.6093 0.51608 0.0
C4754 C 0.07498 0.61755 0.52029 0.0
C4755 C 0.07604 0.61401 0.53561 0.0
C4756 C 0.0894 0.60746 0.54084 0.0
C4757 C 0.10143 0.60498 0.53113 0.0
C4758 C 0.04952 0.61343 0.56916 0.0
C4759 C 0.04052 0.62598 0.56631 0.0
C4760 C 0.06081 0.6093 0.5591 0.0
C4761 C 0.06358 0.61783 0.54612 0.0
C4762 C 0.05455 0.63046 0.54345 0.0
C4763 C 0.04309 0.63434 0.55328 0.0
H4764 H 0.14825 0.29632 0.32923 0.0
H4765 H 0.111 0.28535 0.30062 0.0
H4766 H 0.15587 0.31593 0.31182 0.0
H4767 H 0.11783 0.30542 0.28382 0.0
H4768 H 0.13729 0.33532 0.24947 0.0
H4769 H 0.13361 0.31389 0.26576 0.0
H4770 H 0.15047 0.3396 0.30313 0.0
H4771 H 0.15517 0.36061 0.28641 0.0
C4772 C 0.14167 0.29816 0.31924 0.0
C4773 C 0.1291 0.28925 0.31624 0.0
C4774 C 0.14594 0.30949 0.30928 0.0
C4775 C 0.13752 0.31238 0.29627 0.0
C4776 C 0.12491 0.30339 0.2934 0.0
C4777 C 0.12088 0.29188 0.30314 0.0
C4778 C 0.14036 0.33628 0.26114 0.0
C4779 C 0.14645 0.34961 0.2667 0.0
C4780 C 0.13812 0.32403 0.27057 0.0
C4781 C 0.14145 0.32495 0.28594 0.0
C4782 C 0.14791 0.33827 0.29138 0.0
C4783 C 0.15054 0.35039 0.28182 0.0
H4784 H 0.4596 0.60763 0.42752 0.0
H4785 H 0.47058 0.64499 0.456 0.0
H4786 H 0.44006 0.60003 0.445 0.0
H4787 H 0.45056 0.63817 0.47289 0.0
H4788 H 0.42076 0.61863 0.50729 0.0
H4789 H 0.44218 0.62229 0.49098 0.0
H4790 H 0.41638 0.60558 0.45361 0.0
H4791 H 0.39538 0.60091 0.47034 0.0
C4792 C 0.45777 0.61424 0.4375 0.0
C4793 C 0.46665 0.62685 0.44044 0.0
C4794 C 0.44648 0.60998 0.44749 0.0
C4795 C 0.44361 0.61844 0.46047 0.0
C4796 C 0.45258 0.63107 0.4633 0.0
C4797 C 0.46405 0.6351 0.45353 0.0
C4798 C 0.41978 0.61558 0.49561 0.0
C4799 C 0.40643 0.60955 0.49004 0.0
C4800 C 0.43202 0.61782 0.48618 0.0
C4801 C 0.43106 0.61452 0.47081 0.0
C4802 C 0.41772 0.60811 0.46536 0.0
C4803 C 0.40561 0.60549 0.47492 0.0
H4804 H 0.14796 0.70994 0.17767 0.0
H4805 H 0.11036 0.72052 0.20599 0.0
H4806 H 0.15571 0.69051 0.1952 0.0
H4807 H 0.11732 0.70059 0.22291 0.0
H4808 H 0.13698 0.67091 0.25744 0.0
H4809 H 0.13302 0.69227 0.2411 0.0
H4810 H 0.15058 0.66684 0.20385 0.0
H4811 H 0.15555 0.64594 0.2206 0.0
C4812 C 0.14132 0.70805 0.18762 0.0
C4813 C 0.12861 0.7168 0.1905 0.0
C4814 C 0.14568 0.69682 0.19764 0.0
C4815 C 0.1372 0.69384 0.2106 0.0
C4816 C 0.12445 0.70268 0.21336 0.0
C4817 C 0.12034 0.7141 0.20356 0.0
C4818 C 0.14014 0.67001 0.24578 0.0
C4819 C 0.14652 0.65679 0.24026 0.0
C4820 C 0.13774 0.68221 0.23632 0.0
C4821 C 0.14122 0.68134 0.22098 0.0
C4822 C 0.14793 0.66813 0.21558 0.0
C4823 C 0.15071 0.65607 0.22516 0.0
H4824 H 0.11148 0.40635 0.9703 0.0
H4825 H 0.08503 0.38947 0.00689 0.0
H4826 H 0.09088 0.40151 0.95311 0.0
H4827 H 0.06401 0.38567 0.99012 0.0
H4828 H 0.03648 0.36214 0.95523 0.0
H4829 H 0.05619 0.36934 0.97227 0.0
H4830 H 0.06745 0.40662 0.94353 0.0
H4831 H 0.04819 0.39862 0.9259 0.0
C4832 C 0.10109 0.40195 0.9747 0.0
C4833 C 0.09986 0.39813 0.98986 0.0
C4834 C 0.08921 0.39922 0.96486 0.0
C4835 C 0.07571 0.39294 0.97007 0.0
C4836 C 0.07431 0.39 0.98549 0.0
C4837 C 0.08631 0.39232 0.99519 0.0
C4838 C 0.04311 0.37193 0.95258 0.0
C4839 C 0.04076 0.37983 0.93924 0.0
C4840 C 0.0544 0.37618 0.96246 0.0
C4841 C 0.06346 0.38872 0.95949 0.0
C4842 C 0.06092 0.39678 0.94618 0.0
C4843 C 0.0498 0.39228 0.93609 0.0
H4844 H 0.39476 0.28684 0.70564 0.0
H4845 H 0.35786 0.29829 0.67677 0.0
H4846 H 0.38798 0.30687 0.72249 0.0
H4847 H 0.35027 0.31788 0.69423 0.0
H4848 H 0.35091 0.3622 0.72035 0.0
H4849 H 0.35569 0.34143 0.70334 0.0
H4850 H 0.37197 0.31503 0.74049 0.0
H4851 H 0.36822 0.33622 0.75708 0.0
C4852 C 0.38497 0.29349 0.70306 0.0
C4853 C 0.37682 0.29097 0.6899 0.0
C4854 C 0.38096 0.30497 0.71282 0.0
C4855 C 0.36843 0.31405 0.70993 0.0
C4856 C 0.36012 0.31134 0.6968 0.0
C4857 C 0.36438 0.30003 0.68682 0.0
C4858 C 0.35543 0.35189 0.72482 0.0
C4859 C 0.35935 0.35084 0.73997 0.0
C4860 C 0.35811 0.33991 0.71509 0.0
C4861 C 0.36444 0.32648 0.7204 0.0
C4862 C 0.36758 0.32528 0.73579 0.0
C4863 C 0.3653 0.33738 0.74539 0.0
H4864 H 0.08299 0.45197 0.38905 0.0
H4865 H 0.04613 0.47956 0.37443 0.0
H4866 H 0.06548 0.43217 0.39578 0.0
H4867 H 0.02863 0.45997 0.38153 0.0
H4868 H 0.00522 0.41489 0.37536 0.0
H4869 H 0.02193 0.43595 0.37182 0.0
H4870 H 0.04546 0.42421 0.41234 0.0
H4871 H 0.02882 0.40276 0.41572 0.0
C4872 C 0.07113 0.45391 0.38749 0.0
C4873 C 0.06597 0.4673 0.38105 0.0
C4874 C 0.06108 0.44258 0.39143 0.0
C4875 C 0.04563 0.4444 0.38907 0.0
C4876 C 0.04046 0.45805 0.38322 0.0
C4877 C 0.0505 0.46933 0.37921 0.0
C4878 C 0.01387 0.41682 0.38361 0.0
C4879 C 0.01569 0.40709 0.39581 0.0
C4880 C 0.02342 0.429 0.38162 0.0
C4881 C 0.03504 0.43183 0.39181 0.0
C4882 C 0.03672 0.42226 0.40419 0.0
C4883 C 0.02713 0.41002 0.40618 0.0
H4884 H 0.30514 0.33407 0.13815 0.0
H4885 H 0.27699 0.29701 0.12517 0.0
H4886 H 0.32509 0.31656 0.14463 0.0
H4887 H 0.29672 0.27958 0.13196 0.0
H4888 H 0.35439 0.27973 0.16491 0.0
H4889 H 0.33316 0.29665 0.16155 0.0
H4890 H 0.32051 0.27265 0.12159 0.0
H4891 H 0.34139 0.25567 0.12509 0.0
C4892 C 0.30313 0.32219 0.13688 0.0
C4893 C 0.28953 0.31696 0.13099 0.0
C4894 C 0.31454 0.31215 0.14067 0.0
C4895 C 0.31257 0.29666 0.13868 0.0
C4896 C 0.29874 0.29144 0.13335 0.0
C4897 C 0.28739 0.30145 0.12952 0.0
C4898 C 0.34697 0.27799 0.1555 0.0
C4899 C 0.3496 0.26633 0.14528 0.0
C4900 C 0.33487 0.28775 0.15352 0.0
C4901 C 0.32511 0.28601 0.14131 0.0
C4902 C 0.32764 0.27419 0.13126 0.0
C4903 C 0.3397 0.26448 0.13322 0.0
H4904 H 0.46 0.52734 0.87581 0.0
H4905 H 0.42295 0.55507 0.88967 0.0
H4906 H 0.47739 0.54708 0.88273 0.0
H4907 H 0.44038 0.57503 0.89625 0.0
H4908 H 0.4771 0.6046 0.91616 0.0
H4909 H 0.46033 0.58323 0.91286 0.0
H4910 H 0.48408 0.57096 0.87263 0.0
H4911 H 0.50092 0.59194 0.87609 0.0
C4912 C 0.45556 0.53764 0.88039 0.0
C4913 C 0.44006 0.53967 0.88207 0.0
C4914 C 0.46554 0.549 0.88429 0.0
C4915 C 0.46029 0.56273 0.88988 0.0
C4916 C 0.44482 0.56456 0.89209 0.0
C4917 C 0.43482 0.55314 0.88825 0.0
C4918 C 0.4788 0.59724 0.9067 0.0
C4919 C 0.49036 0.59999 0.8964 0.0
C4920 C 0.46914 0.58505 0.90476 0.0
C4921 C 0.47086 0.57534 0.89249 0.0
C4922 C 0.48256 0.57803 0.88235 0.0
C4923 C 0.49218 0.59016 0.88428 0.0
H4924 H 0.22939 0.7092 0.62592 0.0
H4925 H 0.20131 0.67207 0.63888 0.0
H4926 H 0.20965 0.72658 0.63277 0.0
H4927 H 0.18135 0.68953 0.64542 0.0
H4928 H 0.15189 0.7263 0.66554 0.0
H4929 H 0.17322 0.70948 0.66231 0.0
H4930 H 0.18584 0.73334 0.62225 0.0
H4931 H 0.16486 0.75022 0.62561 0.0
C4932 C 0.21902 0.70473 0.63029 0.0
C4933 C 0.21689 0.68922 0.63172 0.0
C4934 C 0.20766 0.71472 0.63415 0.0
C4935 C 0.19383 0.70946 0.63947 0.0
C4936 C 0.19189 0.69397 0.64146 0.0
C4937 C 0.20331 0.68395 0.63764 0.0
C4938 C 0.15932 0.72803 0.65613 0.0
C4939 C 0.15666 0.73961 0.64584 0.0
C4940 C 0.17148 0.71833 0.65423 0.0
C4941 C 0.18126 0.72006 0.64204 0.0
C4942 C 0.17869 0.73181 0.63191 0.0
C4943 C 0.16658 0.74146 0.63379 0.0
H4944 H 0.04935 0.53637 0.14538 0.0
H4945 H 0.07843 0.54709 0.10841 0.0
H4946 H 0.03255 0.55631 0.13812 0.0
H4947 H 0.06105 0.56656 0.10038 0.0
H4948 H 0.03517 0.61105 0.1002 0.0
H4949 H 0.05204 0.59025 0.10534 0.0
H4950 H 0.01466 0.56431 0.12187 0.0
H4951 H 0.9982 0.58554 0.11773 0.0
C4952 C 0.05199 0.54284 0.13549 0.0
C4953 C 0.0652 0.54015 0.12746 0.0
C4954 C 0.04226 0.55426 0.1312 0.0
C4955 C 0.04525 0.56312 0.11852 0.0
C4956 C 0.05841 0.56021 0.11033 0.0
C4957 C 0.06835 0.54897 0.11486 0.0
C4958 C 0.03061 0.60082 0.10482 0.0
C4959 C 0.01544 0.59993 0.10871 0.0
C4960 C 0.04026 0.58882 0.10772 0.0
C4961 C 0.03485 0.57552 0.11425 0.0
C4962 C 0.01943 0.57446 0.11733 0.0
C4963 C 0.00991 0.58658 0.11481 0.0
H4964 H 0.22116 0.30169 0.89539 0.0
H4965 H 0.20987 0.32953 0.85765 0.0
H4966 H 0.20149 0.28435 0.88868 0.0
H4967 H 0.19073 0.31158 0.85014 0.0
H4968 H 0.14664 0.28549 0.85078 0.0
H4969 H 0.16726 0.30261 0.85552 0.0
H4970 H 0.1934 0.26588 0.87317 0.0
H4971 H 0.17228 0.24916 0.86943 0.0
C4972 C 0.21463 0.30393 0.88543 0.0
C4973 C 0.21704 0.31696 0.87704 0.0
C4974 C 0.20337 0.29388 0.88147 0.0
C4975 C 0.19443 0.29639 0.86876 0.0
C4976 C 0.19712 0.30933 0.86016 0.0
C4977 C 0.20818 0.3196 0.86437 0.0
C4978 C 0.15686 0.28113 0.85559 0.0
C4979 C 0.15784 0.26606 0.85987 0.0
C4980 C 0.16876 0.29092 0.85824 0.0
C4981 C 0.18209 0.28578 0.8649 0.0
C4982 C 0.18323 0.27046 0.86848 0.0
C4983 C 0.17117 0.26079 0.86621 0.0
H4984 H 0.45973 0.47955 0.63064 0.0
H4985 H 0.42302 0.4512 0.61712 0.0
H4986 H 0.47738 0.46009 0.62357 0.0
H4987 H 0.44071 0.43154 0.6104 0.0
H4988 H 0.50155 0.41539 0.62994 0.0
H4989 H 0.48459 0.43627 0.63353 0.0
H4990 H 0.46057 0.42377 0.59354 0.0
H4991 H 0.47743 0.40253 0.59012 0.0
C4992 C 0.45541 0.46918 0.62611 0.0
C4993 C 0.43994 0.46689 0.62456 0.0
C4994 C 0.46555 0.45798 0.62212 0.0
C4995 C 0.46048 0.44417 0.61657 0.0
C4996 C 0.44502 0.44208 0.61452 0.0
C4997 C 0.43486 0.45333 0.61844 0.0
C4998 C 0.49274 0.41712 0.62182 0.0
C4999 C 0.49084 0.40724 0.60976 0.0
C5000 C 0.48304 0.42919 0.62384 0.0
C5001 C 0.47121 0.43174 0.61381 0.0
C5002 C 0.46947 0.42203 0.60156 0.0
C5003 C 0.47919 0.40992 0.59955 0.0
H5004 H 0.27768 0.71013 0.38045 0.0
H5005 H 0.3056 0.67307 0.36698 0.0
H5006 H 0.29739 0.72754 0.3735 0.0
H5007 H 0.32552 0.69052 0.36036 0.0
H5008 H 0.35507 0.72717 0.34031 0.0
H5009 H 0.3337 0.7104 0.34361 0.0
H5010 H 0.32123 0.73436 0.38365 0.0
H5011 H 0.34222 0.75119 0.3802 0.0
C5012 C 0.28801 0.70569 0.37594 0.0
C5013 C 0.2901 0.69019 0.37439 0.0
C5014 C 0.29935 0.71568 0.37203 0.0
C5015 C 0.31313 0.71044 0.36653 0.0
C5016 C 0.31502 0.69496 0.36444 0.0
C5017 C 0.30362 0.68494 0.36831 0.0
C5018 C 0.34767 0.72892 0.34973 0.0
C5019 C 0.35037 0.74053 0.35998 0.0
C5020 C 0.33548 0.71926 0.35167 0.0
C5021 C 0.32572 0.72103 0.36389 0.0
C5022 C 0.32834 0.7328 0.37398 0.0
C5023 C 0.34047 0.74241 0.37204 0.0
H5024 H 0.39848 0.07987 0.45998 0.0
H5025 H 0.36088 0.05146 0.47034 0.0
H5026 H 0.40647 0.06229 0.4407 0.0
H5027 H 0.36811 0.03446 0.45054 0.0
H5028 H 0.38818 0.9999 0.42122 0.0
H5029 H 0.38407 0.0163 0.4425 0.0
H5030 H 0.4015 0.05356 0.41699 0.0
H5031 H 0.4066 0.03676 0.39617 0.0
C5032 C 0.39189 0.06989 0.45806 0.0
C5033 C 0.37911 0.067 0.4667 0.0
C5034 C 0.39639 0.05984 0.44692 0.0
C5035 C 0.38799 0.04683 0.44393 0.0
C5036 C 0.37517 0.04406 0.45266 0.0
C5037 C 0.37091 0.0539 0.46399 0.0
C5038 C 0.3913 0.01157 0.42029 0.0
C5039 C 0.39765 0.01708 0.40706 0.0
C5040 C 0.38881 0.02106 0.43244 0.0
C5041 C 0.39217 0.03643 0.43151 0.0
C5042 C 0.39892 0.04181 0.41832 0.0
C5043 C 0.40178 0.0322 0.4063 0.0
H5044 H 0.88767 0.42286 0.55457 0.0
H5045 H 0.87325 0.46014 0.52744 0.0
H5046 H 0.89423 0.44009 0.57469 0.0
H5047 H 0.88014 0.47734 0.54734 0.0
H5048 H 0.91458 0.47666 0.60414 0.0
H5049 H 0.9109 0.46004 0.58276 0.0
H5050 H 0.87034 0.48372 0.57147 0.0
H5051 H 0.87416 0.50044 0.59249 0.0
C5052 C 0.8861 0.43474 0.55281 0.0
C5053 C 0.8798 0.4401 0.53945 0.0
C5054 C 0.88993 0.44463 0.56432 0.0
C5055 C 0.88758 0.4601 0.5627 0.0
C5056 C 0.88181 0.46548 0.5491 0.0
C5057 C 0.87793 0.4556 0.53764 0.0
C5058 C 0.90495 0.47837 0.59701 0.0
C5059 C 0.89467 0.48989 0.60004 0.0
C5060 C 0.90279 0.46879 0.58481 0.0
C5061 C 0.89034 0.47055 0.57537 0.0
C5062 C 0.88019 0.48218 0.57833 0.0
C5063 C 0.88234 0.49173 0.59048 0.0
H5064 H 0.3336 0.13825 0.30381 0.0
H5065 H 0.29659 0.12343 0.27655 0.0
H5066 H 0.3162 0.14486 0.32377 0.0
H5067 H 0.27922 0.13037 0.2963 0.0
H5068 H 0.27936 0.16515 0.35292 0.0
H5069 H 0.29608 0.1615 0.3316 0.0
H5070 H 0.27279 0.12066 0.32048 0.0
H5071 H 0.25598 0.12445 0.34143 0.0
C5072 C 0.32175 0.13661 0.30199 0.0
C5073 C 0.31651 0.13018 0.28864 0.0
C5074 C 0.31176 0.14047 0.31341 0.0
C5075 C 0.29631 0.13802 0.31171 0.0
C5076 C 0.29106 0.13213 0.29811 0.0
C5077 C 0.30103 0.12822 0.28675 0.0
C5078 C 0.27774 0.15547 0.34583 0.0
C5079 C 0.26632 0.1451 0.34889 0.0
C5080 C 0.28738 0.15333 0.33367 0.0
C5081 C 0.28578 0.14079 0.3243 0.0
C5082 C 0.27422 0.13057 0.32729 0.0
C5083 C 0.26461 0.1327 0.3394 0.0
H5084 H 0.64612 0.55031 0.03556 0.0
H5085 H 0.60853 0.57876 0.04581 0.0
H5086 H 0.63904 0.53351 0.05557 0.0
H5087 H 0.60067 0.56136 0.06532 0.0
H5088 H 0.6008 0.53608 0.11005 0.0
H5089 H 0.60571 0.55276 0.08907 0.0
H5090 H 0.62314 0.51538 0.06373 0.0
H5091 H 0.61924 0.49912 0.08516 0.0
C5092 C 0.63613 0.5528 0.04194 0.0
C5093 C 0.62788 0.56585 0.03912 0.0
C5094 C 0.63195 0.54307 0.05339 0.0
C5095 C 0.61916 0.54589 0.06213 0.0
C5096 C 0.61073 0.55887 0.05907 0.0
C5097 C 0.61515 0.56882 0.0478 0.0
C5098 C 0.60557 0.53148 0.09991 0.0
C5099 C 0.60978 0.51637 0.09924 0.0
C5100 C 0.60833 0.54102 0.08781 0.0
C5101 C 0.61503 0.53556 0.07463 0.0
C5102 C 0.61844 0.5202 0.07378 0.0
C5103 C 0.61607 0.51079 0.08602 0.0
H5104 H 0.70889 0.38045 0.27654 0.0
H5105 H 0.67186 0.36817 0.30503 0.0
H5106 H 0.72636 0.37341 0.29613 0.0
H5107 H 0.6894 0.36145 0.32485 0.0
H5108 H 0.75075 0.38008 0.34052 0.0
H5109 H 0.73367 0.38374 0.31976 0.0
H5110 H 0.70906 0.34429 0.33289 0.0
H5111 H 0.72607 0.34078 0.35401 0.0
C5112 C 0.70446 0.3762 0.28698 0.0
C5113 C 0.68896 0.375 0.28925 0.0
C5114 C 0.7145 0.37223 0.29825 0.0
C5115 C 0.7093 0.36704 0.31214 0.0
C5116 C 0.6938 0.36531 0.31425 0.0
C5117 C 0.68373 0.36922 0.30291 0.0
C5118 C 0.74177 0.3721 0.33895 0.0
C5119 C 0.73978 0.36014 0.34896 0.0
C5120 C 0.73201 0.37415 0.32697 0.0
C5121 C 0.71999 0.36429 0.32461 0.0
C5122 C 0.71811 0.35218 0.33447 0.0
C5123 C 0.72792 0.35011 0.34651 0.0
H5124 H 0.09145 0.97557 0.90192 0.0
H5125 H 0.13177 0.99932 0.91395 0.0
H5126 H 0.09501 0.95881 0.92321 0.0
H5127 H 0.13547 0.98247 0.93491 0.0
H5128 H 0.13223 0.95858 0.97873 0.0
H5129 H 0.12532 0.97591 0.95896 0.0
H5130 H 0.11191 0.93881 0.9311 0.0
H5131 H 0.11851 0.92141 0.95108 0.0
C5132 C 0.10103 0.97726 0.90912 0.0
C5133 C 0.11132 0.98879 0.90622 0.0
C5134 C 0.10311 0.9676 0.92127 0.0
C5135 C 0.11551 0.9693 0.93079 0.0
C5136 C 0.12566 0.98097 0.92797 0.0
C5137 C 0.12359 0.9906 0.91586 0.0
C5138 C 0.12768 0.95409 0.96845 0.0
C5139 C 0.12604 0.93859 0.96645 0.0
C5140 C 0.12379 0.96404 0.95707 0.0
C5141 C 0.11823 0.95875 0.94337 0.0
C5142 C 0.11606 0.94327 0.94155 0.0
C5143 C 0.11991 0.93329 0.95298 0.0
H5144 H 0.2999 0.89678 0.22166 0.0
H5145 H 0.32739 0.85845 0.21148 0.0
H5146 H 0.28281 0.88996 0.2018 0.0
H5147 H 0.30969 0.85087 0.19216 0.0
H5148 H 0.28448 0.85113 0.1476 0.0
H5149 H 0.30128 0.85605 0.16843 0.0
H5150 H 0.26429 0.8745 0.19363 0.0
H5151 H 0.2479 0.87056 0.17231 0.0
C5152 C 0.3021 0.88668 0.21534 0.0
C5153 C 0.31498 0.87815 0.21811 0.0
C5154 C 0.29221 0.88266 0.20397 0.0
C5155 C 0.2947 0.86976 0.19528 0.0
C5156 C 0.30747 0.86103 0.19835 0.0
C5157 C 0.31758 0.86528 0.20951 0.0
C5158 C 0.27999 0.85616 0.15766 0.0
C5159 C 0.26495 0.86059 0.15832 0.0
C5160 C 0.28959 0.85891 0.16969 0.0
C5161 C 0.28428 0.86584 0.18281 0.0
C5162 C 0.26899 0.86959 0.18363 0.0
C5163 C 0.25951 0.8672 0.17145 0.0
H5164 H 0.20469 0.11058 0.7202 0.0
H5165 H 0.17669 0.14832 0.70931 0.0
H5166 H 0.22176 0.11731 0.70031 0.0
H5167 H 0.19438 0.15586 0.68993 0.0
H5168 H 0.22038 0.15577 0.64578 0.0
H5169 H 0.20331 0.15074 0.66639 0.0
H5170 H 0.24014 0.13287 0.69222 0.0
H5171 H 0.2568 0.13689 0.67112 0.0
C5172 C 0.20236 0.12053 0.7137 0.0
C5173 C 0.18937 0.12893 0.71632 0.0
C5174 C 0.21225 0.12451 0.70231 0.0
C5175 C 0.20965 0.13726 0.69344 0.0
C5176 C 0.19671 0.14583 0.69628 0.0
C5177 C 0.1866 0.1416 0.70747 0.0
C5178 C 0.22478 0.15084 0.65593 0.0
C5179 C 0.23986 0.14659 0.65683 0.0
C5180 C 0.21501 0.14802 0.66783 0.0
C5181 C 0.2202 0.14122 0.68107 0.0
C5182 C 0.23552 0.13766 0.68212 0.0
C5183 C 0.24516 0.14009 0.67007 0.0
loop_
_geom_bond_atom_site_label_1
_geom_bond_atom_site_label_2
_geom_bond_distance
_geom_bond_site_symmetry_2
_ccdc_geom_bond_type
C0 O2 1.247 . S
C0 O4 1.295 . S
C1 O8 1.247 . S
C1 O9 1.258 . S
O2 C0 1.247 . S
O2 Zn3 2.028 1_655 S
Zn3 O2 2.028 1_455 S
Zn3 O7 2.035 . S
Zn3 O9 2.035 . S
Zn3 O10 2.028 1_455 S
O4 C0 1.295 . S
O4 Zn5 1.996 1_655 S
Zn5 O4 1.996 1_455 S
Zn5 O6 2.028 . S
Zn5 O8 2.028 . S
Zn5 O11 2.035 1_455 S
O6 Zn5 2.028 . S
O6 C12 1.247 . S
O7 Zn3 2.035 . S
O7 C12 1.258 . S
O8 C1 1.247 . S
O8 Zn5 2.028 . S
O9 C1 1.258 . S
O9 Zn3 2.035 . S
O10 Zn3 2.028 1_655 S
O10 C13 1.247 . S
O11 Zn5 2.035 1_655 S
O11 C13 1.258 . S
C12 O6 1.247 . S
C12 O7 1.258 . S
C13 O10 1.247 . S
C13 O11 1.258 . S
C14 O16 1.247 . S
C14 O18 1.258 . S
C15 O22 1.247 . S
C15 O23 1.258 . S
O16 C14 1.247 . S
O16 Zn17 2.028 . S
Zn17 O16 2.028 . S
Zn17 O21 2.035 . S
Zn17 O23 2.035 . S
Zn17 O24 2.028 . S
O18 C14 1.258 . S
O18 Zn19 2.035 . S
Zn19 O18 2.035 . S
Zn19 O20 2.028 . S
Zn19 O22 2.028 . S
Zn19 O25 2.035 . S
O20 Zn19 2.028 . S
O20 C26 1.247 . S
O21 Zn17 2.035 . S
O21 C26 1.258 . S
O22 C15 1.247 . S
O22 Zn19 2.028 . S
O23 C15 1.258 . S
O23 Zn17 2.035 . S
O24 Zn17 2.028 . S
O24 C27 1.247 . S
O25 Zn19 2.035 . S
O25 C27 1.258 . S
C26 O20 1.247 . S
C26 O21 1.258 . S
C27 O24 1.247 . S
C27 O25 1.258 . S
C28 O30 1.247 . S
C28 O32 1.258 . S
C29 O36 1.247 . S
C29 O37 1.258 . S
O30 C28 1.247 . S
O30 Zn31 2.028 . S
Zn31 O30 2.028 . S
Zn31 O35 2.035 . S
Zn31 O37 2.035 . S
Zn31 O38 2.028 . S
O32 C28 1.258 . S
O32 Zn33 2.035 . S
Zn33 O32 2.035 . S
Zn33 O34 2.028 . S
Zn33 O36 2.028 . S
Zn33 O39 2.035 . S
O34 Zn33 2.028 . S
O34 C40 1.247 . S
O35 Zn31 2.035 . S
O35 C40 1.258 . S
O36 C29 1.247 . S
O36 Zn33 2.028 . S
O37 C29 1.258 . S
O37 Zn31 2.035 . S
O38 Zn31 2.028 . S
O38 C41 1.247 . S
O39 Zn33 2.035 . S
O39 C41 1.258 . S
C40 O34 1.247 . S
C40 O35 1.258 . S
C41 O38 1.247 . S
C41 O39 1.258 . S
C42 O44 1.247 . S
C42 O46 1.258 . S
C43 O50 1.247 . S
C43 O51 1.258 . S
O44 C42 1.247 . S
O44 Zn45 2.028 . S
Zn45 O44 2.028 . S
Zn45 O49 2.035 . S
Zn45 O51 2.035 . S
Zn45 O52 2.028 . S
O46 C42 1.258 . S
O46 Zn47 2.035 . S
Zn47 O46 2.035 . S
Zn47 O48 2.028 . S
Zn47 O50 2.028 . S
Zn47 O53 2.035 . S
O48 Zn47 2.028 . S
O48 C54 1.247 . S
O49 Zn45 2.035 . S
O49 C54 1.258 . S
O50 C43 1.247 . S
O50 Zn47 2.028 . S
O51 C43 1.258 . S
O51 Zn45 2.035 . S
O52 Zn45 2.028 . S
O52 C55 1.247 . S
O53 Zn47 2.035 . S
O53 C55 1.258 . S
C54 O48 1.247 . S
C54 O49 1.258 . S
C55 O52 1.247 . S
C55 O53 1.258 . S
C56 O58 1.247 . S
C56 O60 1.258 . S
C57 O64 1.247 . S
C57 O65 1.258 . S
O58 C56 1.247 . S
O58 Zn59 2.028 . S
Zn59 O58 2.028 . S
Zn59 O63 1.996 1_455 S
Zn59 O65 2.035 1_455 S
Zn59 O66 2.028 . S
O60 C56 1.258 . S
O60 Zn61 2.035 . S
Zn61 O60 2.035 . S
Zn61 O62 2.028 1_455 S
Zn61 O64 2.028 1_455 S
Zn61 O67 2.035 . S
O62 Zn61 2.028 1_655 S
O62 C68 1.247 . S
O63 Zn59 1.996 1_655 S
O63 C68 1.295 . S
O64 C57 1.247 . S
O64 Zn61 2.028 1_655 S
O65 C57 1.258 . S
O65 Zn59 2.035 1_655 S
O66 Zn59 2.028 . S
O66 C69 1.247 . S
O67 Zn61 2.035 . S
O67 C69 1.258 . S
C68 O62 1.247 . S
C68 O63 1.295 . S
C69 O66 1.247 . S
C69 O67 1.258 . S
C70 O72 1.247 . S
C70 O74 1.258 . S
C71 O78 1.247 . S
C71 O79 1.258 . S
O72 C70 1.247 . S
O72 Zn73 2.028 . S
Zn73 O72 2.028 . S
Zn73 O77 2.035 . S
Zn73 O79 2.035 . S
Zn73 O80 2.028 . S
O74 C70 1.258 . S
O74 Zn75 2.035 . S
Zn75 O74 2.035 . S
Zn75 O76 2.028 . S
Zn75 O78 2.028 . S
Zn75 O81 2.035 . S
O76 Zn75 2.028 . S
O76 C82 1.247 . S
O77 Zn73 2.035 . S
O77 C82 1.258 . S
O78 C71 1.247 . S
O78 Zn75 2.028 . S
O79 C71 1.258 . S
O79 Zn73 2.035 . S
O80 Zn73 2.028 . S
O80 C83 1.247 . S
O81 Zn75 2.035 . S
O81 C83 1.258 . S
C82 O76 1.247 . S
C82 O77 1.258 . S
C83 O80 1.247 . S
C83 O81 1.258 . S
C84 O86 1.247 . S
C84 O88 1.258 . S
C85 O92 1.247 . S
C85 O93 1.258 . S
O86 C84 1.247 . S
O86 Zn87 2.028 . S
Zn87 O86 2.028 . S
Zn87 O91 2.035 . S
Zn87 O93 2.035 . S
Zn87 O94 2.028 . S
O88 C84 1.258 . S
O88 Zn89 2.035 . S
Zn89 O88 2.035 . S
Zn89 O90 2.028 . S
Zn89 O92 2.028 . S
Zn89 O95 2.035 . S
O90 Zn89 2.028 . S
O90 C96 1.247 . S
O91 Zn87 2.035 . S
O91 C96 1.258 . S
O92 C85 1.247 . S
O92 Zn89 2.028 . S
O93 C85 1.258 . S
O93 Zn87 2.035 . S
O94 Zn87 2.028 . S
O94 C97 1.247 . S
O95 Zn89 2.035 . S
O95 C97 1.258 . S
C96 O90 1.247 . S
C96 O91 1.258 . S
C97 O94 1.247 . S
C97 O95 1.258 . S
C98 O100 1.247 . S
C98 O102 1.258 . S
C99 O106 1.247 . S
C99 O107 1.258 . S
O100 C98 1.247 . S
O100 Zn101 2.028 . S
Zn101 O100 2.028 . S
Zn101 O105 2.035 . S
Zn101 O107 2.035 . S
Zn101 O108 2.028 . S
O102 C98 1.258 . S
O102 Zn103 2.035 . S
Zn103 O102 2.035 . S
Zn103 O104 2.028 . S
Zn103 O106 2.028 . S
Zn103 O109 2.035 . S
O104 Zn103 2.028 . S
O104 C110 1.247 . S
O105 Zn101 2.035 . S
O105 C110 1.258 . S
O106 C99 1.247 . S
O106 Zn103 2.028 . S
O107 C99 1.258 . S
O107 Zn101 2.035 . S
O108 Zn101 2.028 . S
O108 C111 1.247 . S
O109 Zn103 2.035 . S
O109 C111 1.258 . S
C110 O104 1.247 . S
C110 O105 1.258 . S
C111 O108 1.247 . S
C111 O109 1.258 . S
C112 O114 1.247 . S
C112 O116 1.258 . S
C113 O120 1.247 . S
C113 O121 1.258 . S
O114 C112 1.247 . S
O114 Zn115 2.028 . S
Zn115 O114 2.028 . S
Zn115 O119 1.996 1_545 S
Zn115 O121 2.035 1_545 S
Zn115 O122 2.028 . S
O116 C112 1.258 . S
O116 Zn117 2.035 . S
Zn117 O116 2.035 . S
Zn117 O118 2.028 1_545 S
Zn117 O120 2.028 1_545 S
Zn117 O123 2.035 . S
O118 Zn117 2.028 1_565 S
O118 C124 1.247 . S
O119 Zn115 1.996 1_565 S
O119 C124 1.295 . S
O120 C113 1.247 . S
O120 Zn117 2.028 1_565 S
O121 C113 1.258 . S
O121 Zn115 2.035 1_565 S
O122 Zn115 2.028 . S
O122 C125 1.247 . S
O123 Zn117 2.035 . S
O123 C125 1.258 . S
C124 O118 1.247 . S
C124 O119 1.295 . S
C125 O122 1.247 . S
C125 O123 1.258 . S
C126 O128 1.247 . S
C126 O130 1.258 . S
C127 O134 1.247 . S
C127 O135 1.258 . S
O128 C126 1.247 . S
O128 Zn129 2.028 . S
Zn129 O128 2.028 . S
Zn129 O133 2.035 . S
Zn129 O135 2.035 . S
Zn129 O136 2.028 . S
O130 C126 1.258 . S
O130 Zn131 2.035 . S
Zn131 O130 2.035 . S
Zn131 O132 2.028 . S
Zn131 O134 2.028 . S
Zn131 O137 2.035 . S
O132 Zn131 2.028 . S
O132 C138 1.247 . S
O133 Zn129 2.035 . S
O133 C138 1.258 . S
O134 C127 1.247 . S
O134 Zn131 2.028 . S
O135 C127 1.258 . S
O135 Zn129 2.035 . S
O136 Zn129 2.028 . S
O136 C139 1.247 . S
O137 Zn131 2.035 . S
O137 C139 1.258 . S
C138 O132 1.247 . S
C138 O133 1.258 . S
C139 O136 1.247 . S
C139 O137 1.258 . S
C140 O142 1.247 . S
C140 O144 1.258 . S
C141 O148 1.247 . S
C141 O149 1.258 . S
O142 C140 1.247 . S
O142 Zn143 2.028 . S
Zn143 O142 2.028 . S
Zn143 O147 1.996 1_565 S
Zn143 O149 2.035 1_565 S
Zn143 O150 2.028 . S
O144 C140 1.258 . S
O144 Zn145 2.035 . S
Zn145 O144 2.035 . S
Zn145 O146 2.028 1_565 S
Zn145 O148 2.028 1_565 S
Zn145 O151 2.035 . S
O146 Zn145 2.028 1_545 S
O146 C152 1.247 . S
O147 Zn143 1.996 1_545 S
O147 C152 1.295 . S
O148 C141 1.247 . S
O148 Zn145 2.028 1_545 S
O149 C141 1.258 . S
O149 Zn143 2.035 1_545 S
O150 Zn143 2.028 . S
O150 C153 1.247 . S
O151 Zn145 2.035 . S
O151 C153 1.258 . S
C152 O146 1.247 . S
C152 O147 1.295 . S
C153 O150 1.247 . S
C153 O151 1.258 . S
C154 O156 1.247 . S
C154 O158 1.258 . S
C155 O162 1.247 . S
C155 O163 1.258 . S
O156 C154 1.247 . S
O156 Zn157 2.028 . S
Zn157 O156 2.028 . S
Zn157 O161 2.035 . S
Zn157 O163 2.035 . S
Zn157 O164 2.028 . S
O158 C154 1.258 . S
O158 Zn159 2.035 . S
Zn159 O158 2.035 . S
Zn159 O160 2.028 . S
Zn159 O162 2.028 . S
Zn159 O165 2.035 . S
O160 Zn159 2.028 . S
O160 C166 1.247 . S
O161 Zn157 2.035 . S
O161 C166 1.258 . S
O162 C155 1.247 . S
O162 Zn159 2.028 . S
O163 C155 1.258 . S
O163 Zn157 2.035 . S
O164 Zn157 2.028 . S
O164 C167 1.247 . S
O165 Zn159 2.035 . S
O165 C167 1.258 . S
C166 O160 1.247 . S
C166 O161 1.258 . S
C167 O164 1.247 . S
C167 O165 1.258 . S
C168 O170 1.247 . S
C168 O172 1.258 . S
C169 O176 1.247 . S
C169 O177 1.258 . S
O170 C168 1.247 . S
O170 Zn171 2.028 . S
Zn171 O170 2.028 . S
Zn171 O175 1.996 1_565 S
Zn171 O177 2.035 1_565 S
Zn171 O178 2.028 . S
O172 C168 1.258 . S
O172 Zn173 2.035 . S
Zn173 O172 2.035 . S
Zn173 O174 2.028 1_565 S
Zn173 O176 2.028 1_565 S
Zn173 O179 2.035 . S
O174 Zn173 2.028 1_545 S
O174 C180 1.247 . S
O175 Zn171 1.996 1_545 S
O175 C180 1.295 . S
O176 C169 1.247 . S
O176 Zn173 2.028 1_545 S
O177 C169 1.258 . S
O177 Zn171 2.035 1_545 S
O178 Zn171 2.028 . S
O178 C181 1.247 . S
O179 Zn173 2.035 . S
O179 C181 1.258 . S
C180 O174 1.247 . S
C180 O175 1.295 . S
C181 O178 1.247 . S
C181 O179 1.258 . S
C182 O184 1.247 . S
C182 O186 1.258 . S
C183 O190 1.247 . S
C183 O191 1.258 . S
O184 C182 1.247 . S
O184 Zn185 2.028 . S
Zn185 O184 2.028 . S
Zn185 O189 2.035 . S
Zn185 O191 2.035 . S
Zn185 O192 2.028 . S
O186 C182 1.258 . S
O186 Zn187 2.035 . S
Zn187 O186 2.035 . S
Zn187 O188 2.028 . S
Zn187 O190 2.028 . S
Zn187 O193 2.035 . S
O188 Zn187 2.028 . S
O188 C194 1.247 . S
O189 Zn185 2.035 . S
O189 C194 1.258 . S
O190 C183 1.247 . S
O190 Zn187 2.028 . S
O191 C183 1.258 . S
O191 Zn185 2.035 . S
O192 Zn185 2.028 . S
O192 C195 1.247 . S
O193 Zn187 2.035 . S
O193 C195 1.258 . S
C194 O188 1.247 . S
C194 O189 1.258 . S
C195 O192 1.247 . S
C195 O193 1.258 . S
C196 O198 1.247 . S
C196 O200 1.295 . S
C197 O204 1.247 . S
C197 O205 1.258 . S
O198 C196 1.247 . S
O198 Zn199 2.028 1_565 S
Zn199 O198 2.028 1_545 S
Zn199 O203 2.035 . S
Zn199 O205 2.035 . S
Zn199 O206 2.028 1_545 S
O200 C196 1.295 . S
O200 Zn201 1.996 1_565 S
Zn201 O200 1.996 1_545 S
Zn201 O202 2.028 . S
Zn201 O204 2.028 . S
Zn201 O207 2.035 1_545 S
O202 Zn201 2.028 . S
O202 C208 1.247 . S
O203 Zn199 2.035 . S
O203 C208 1.258 . S
O204 C197 1.247 . S
O204 Zn201 2.028 . S
O205 C197 1.258 . S
O205 Zn199 2.035 . S
O206 Zn199 2.028 1_565 S
O206 C209 1.247 . S
O207 Zn201 2.035 1_565 S
O207 C209 1.258 . S
C208 O202 1.247 . S
C208 O203 1.258 . S
C209 O206 1.247 . S
C209 O207 1.258 . S
C210 O212 1.247 . S
C210 O214 1.258 . S
C211 O218 1.247 . S
C211 O219 1.258 . S
O212 C210 1.247 . S
O212 Zn213 2.028 . S
Zn213 O212 2.028 . S
Zn213 O217 2.035 . S
Zn213 O219 2.035 . S
Zn213 O220 2.028 . S
O214 C210 1.258 . S
O214 Zn215 2.035 . S
Zn215 O214 2.035 . S
Zn215 O216 2.028 . S
Zn215 O218 2.028 . S
Zn215 O221 2.035 . S
O216 Zn215 2.028 . S
O216 C222 1.247 . S
O217 Zn213 2.035 . S
O217 C222 1.258 . S
O218 C211 1.247 . S
O218 Zn215 2.028 . S
O219 C211 1.258 . S
O219 Zn213 2.035 . S
O220 Zn213 2.028 . S
O220 C223 1.247 . S
O221 Zn215 2.035 . S
O221 C223 1.258 . S
C222 O216 1.247 . S
C222 O217 1.258 . S
C223 O220 1.247 . S
C223 O221 1.258 . S
C224 O226 1.247 . S
C224 O228 1.258 . S
C225 O232 1.247 . S
C225 O233 1.258 . S
O226 C224 1.247 . S
O226 Zn227 2.028 1_556 S
Zn227 O226 2.028 1_554 S
Zn227 O231 2.035 . S
Zn227 O233 2.035 . S
Zn227 O234 1.992 1_554 S
O228 C224 1.258 . S
O228 Zn229 2.035 1_556 S
Zn229 O228 2.035 1_554 S
Zn229 O230 2.028 . S
Zn229 O232 2.028 . S
Zn229 O235 2.035 1_554 S
O230 Zn229 2.028 . S
O230 C236 1.247 . S
O231 Zn227 2.035 . S
O231 C236 1.258 . S
O232 C225 1.247 . S
O232 Zn229 2.028 . S
O233 C225 1.258 . S
O233 Zn227 2.035 . S
O234 Zn227 1.992 1_556 S
O234 C237 1.282 . S
O235 Zn229 2.035 1_556 S
O235 C237 1.258 . S
C236 O230 1.247 . S
C236 O231 1.258 . S
C237 O234 1.282 . S
C237 O235 1.258 . S
C238 O240 1.247 . S
C238 O242 1.258 . S
C239 O246 1.247 . S
C239 O247 1.258 . S
O240 C238 1.247 . S
O240 Zn241 2.028 1_554 S
Zn241 O240 2.028 1_556 S
Zn241 O245 2.035 . S
Zn241 O247 2.035 . S
Zn241 O248 1.992 1_556 S
O242 C238 1.258 . S
O242 Zn243 2.035 1_554 S
Zn243 O242 2.035 1_556 S
Zn243 O244 2.028 . S
Zn243 O246 2.028 . S
Zn243 O249 2.035 1_556 S
O244 Zn243 2.028 . S
O244 C250 1.247 . S
O245 Zn241 2.035 . S
O245 C250 1.258 . S
O246 C239 1.247 . S
O246 Zn243 2.028 . S
O247 C239 1.258 . S
O247 Zn241 2.035 . S
O248 Zn241 1.992 1_554 S
O248 C251 1.282 . S
O249 Zn243 2.035 1_554 S
O249 C251 1.258 . S
C250 O244 1.247 . S
C250 O245 1.258 . S
C251 O248 1.282 . S
C251 O249 1.258 . S
C252 O254 1.247 . S
C252 O256 1.258 . S
C253 O260 1.247 . S
C253 O261 1.258 . S
O254 C252 1.247 . S
O254 Zn255 2.028 . S
Zn255 O254 2.028 . S
Zn255 O259 2.035 . S
Zn255 O261 2.035 . S
Zn255 O262 2.028 . S
O256 C252 1.258 . S
O256 Zn257 2.035 . S
Zn257 O256 2.035 . S
Zn257 O258 2.028 . S
Zn257 O260 2.028 . S
Zn257 O263 2.035 . S
O258 Zn257 2.028 . S
O258 C264 1.247 . S
O259 Zn255 2.035 . S
O259 C264 1.258 . S
O260 C253 1.247 . S
O260 Zn257 2.028 . S
O261 C253 1.258 . S
O261 Zn255 2.035 . S
O262 Zn255 2.028 . S
O262 C265 1.247 . S
O263 Zn257 2.035 . S
O263 C265 1.258 . S
C264 O258 1.247 . S
C264 O259 1.258 . S
C265 O262 1.247 . S
C265 O263 1.258 . S
C266 O268 1.247 . S
C266 O270 1.258 . S
C267 O274 1.247 . S
C267 O275 1.258 . S
O268 C266 1.247 . S
O268 Zn269 2.028 . S
Zn269 O268 2.028 . S
Zn269 O273 2.035 . S
Zn269 O275 2.035 . S
Zn269 O276 2.028 . S
O270 C266 1.258 . S
O270 Zn271 2.035 . S
Zn271 O270 2.035 . S
Zn271 O272 2.028 . S
Zn271 O274 2.028 . S
Zn271 O277 2.035 . S
O272 Zn271 2.028 . S
O272 C278 1.247 . S
O273 Zn269 2.035 . S
O273 C278 1.258 . S
O274 C267 1.247 . S
O274 Zn271 2.028 . S
O275 C267 1.258 . S
O275 Zn269 2.035 . S
O276 Zn269 2.028 . S
O276 C279 1.247 . S
O277 Zn271 2.035 . S
O277 C279 1.258 . S
C278 O272 1.247 . S
C278 O273 1.258 . S
C279 O276 1.247 . S
C279 O277 1.258 . S
C280 O282 1.247 . S
C280 O284 1.258 . S
C281 O288 1.247 . S
C281 O289 1.258 . S
O282 C280 1.247 . S
O282 Zn283 2.028 . S
Zn283 O282 2.028 . S
Zn283 O287 2.035 . S
Zn283 O289 2.035 . S
Zn283 O290 2.028 . S
O284 C280 1.258 . S
O284 Zn285 2.035 . S
Zn285 O284 2.035 . S
Zn285 O286 2.028 . S
Zn285 O288 2.028 . S
Zn285 O291 2.035 . S
O286 Zn285 2.028 . S
O286 C292 1.247 . S
O287 Zn283 2.035 . S
O287 C292 1.258 . S
O288 C281 1.247 . S
O288 Zn285 2.028 . S
O289 C281 1.258 . S
O289 Zn283 2.035 . S
O290 Zn283 2.028 . S
O290 C293 1.247 . S
O291 Zn285 2.035 . S
O291 C293 1.258 . S
C292 O286 1.247 . S
C292 O287 1.258 . S
C293 O290 1.247 . S
C293 O291 1.258 . S
C294 O296 1.247 . S
C294 O298 1.258 . S
C295 O302 1.247 . S
C295 O303 1.258 . S
O296 C294 1.247 . S
O296 Zn297 2.028 . S
Zn297 O296 2.028 . S
Zn297 O301 2.035 . S
Zn297 O303 2.035 . S
Zn297 O304 2.028 . S
O298 C294 1.258 . S
O298 Zn299 2.035 . S
Zn299 O298 2.035 . S
Zn299 O300 2.028 . S
Zn299 O302 2.028 . S
Zn299 O305 2.035 . S
O300 Zn299 2.028 . S
O300 C306 1.247 . S
O301 Zn297 2.035 . S
O301 C306 1.258 . S
O302 C295 1.247 . S
O302 Zn299 2.028 . S
O303 C295 1.258 . S
O303 Zn297 2.035 . S
O304 Zn297 2.028 . S
O304 C307 1.247 . S
O305 Zn299 2.035 . S
O305 C307 1.258 . S
C306 O300 1.247 . S
C306 O301 1.258 . S
C307 O304 1.247 . S
C307 O305 1.258 . S
C308 O310 1.247 . S
C308 O312 1.258 . S
C309 O316 1.247 . S
C309 O317 1.258 . S
O310 C308 1.247 . S
O310 Zn311 2.028 . S
Zn311 O310 2.028 . S
Zn311 O315 2.035 . S
Zn311 O317 2.035 . S
Zn311 O318 2.028 . S
O312 C308 1.258 . S
O312 Zn313 2.035 . S
Zn313 O312 2.035 . S
Zn313 O314 2.028 . S
Zn313 O316 2.028 . S
Zn313 O319 2.035 . S
O314 Zn313 2.028 . S
O314 C320 1.247 . S
O315 Zn311 2.035 . S
O315 C320 1.258 . S
O316 C309 1.247 . S
O316 Zn313 2.028 . S
O317 C309 1.258 . S
O317 Zn311 2.035 . S
O318 Zn311 2.028 . S
O318 C321 1.247 . S
O319 Zn313 2.035 . S
O319 C321 1.258 . S
C320 O314 1.247 . S
C320 O315 1.258 . S
C321 O318 1.247 . S
C321 O319 1.258 . S
C322 O324 1.247 . S
C322 O326 1.258 . S
C323 O330 1.247 . S
C323 O331 1.258 . S
O324 C322 1.247 . S
O324 Zn325 2.028 . S
Zn325 O324 2.028 . S
Zn325 O329 2.035 . S
Zn325 O331 2.035 . S
Zn325 O332 2.028 . S
O326 C322 1.258 . S
O326 Zn327 2.035 . S
Zn327 O326 2.035 . S
Zn327 O328 2.028 . S
Zn327 O330 2.028 . S
Zn327 O333 2.035 . S
O328 Zn327 2.028 . S
O328 C334 1.247 . S
O329 Zn325 2.035 . S
O329 C334 1.258 . S
O330 C323 1.247 . S
O330 Zn327 2.028 . S
O331 C323 1.258 . S
O331 Zn325 2.035 . S
O332 Zn325 2.028 . S
O332 C335 1.247 . S
O333 Zn327 2.035 . S
O333 C335 1.258 . S
C334 O328 1.247 . S
C334 O329 1.258 . S
C335 O332 1.247 . S
C335 O333 1.258 . S
C336 O338 1.247 . S
C336 O340 1.258 . S
C337 O344 1.247 . S
C337 O345 1.295 . S
O338 C336 1.247 . S
O338 Zn339 2.028 . S
Zn339 O338 2.028 . S
Zn339 O343 2.035 1_655 S
Zn339 O345 1.996 1_655 S
Zn339 O346 2.028 . S
O340 C336 1.258 . S
O340 Zn341 2.035 . S
Zn341 O340 2.035 . S
Zn341 O342 2.028 1_655 S
Zn341 O344 2.028 1_655 S
Zn341 O347 2.035 . S
O342 Zn341 2.028 1_455 S
O342 C348 1.247 . S
O343 Zn339 2.035 1_455 S
O343 C348 1.258 . S
O344 C337 1.247 . S
O344 Zn341 2.028 1_455 S
O345 C337 1.295 . S
O345 Zn339 1.996 1_455 S
O346 Zn339 2.028 . S
O346 C349 1.247 . S
O347 Zn341 2.035 . S
O347 C349 1.258 . S
C348 O342 1.247 . S
C348 O343 1.258 . S
C349 O346 1.247 . S
C349 O347 1.258 . S
C350 O352 1.247 . S
C350 O354 1.258 . S
C351 O358 1.247 . S
C351 O359 1.258 . S
O352 C350 1.247 . S
O352 Zn353 2.028 . S
Zn353 O352 2.028 . S
Zn353 O357 2.035 . S
Zn353 O359 2.035 . S
Zn353 O360 2.028 . S
O354 C350 1.258 . S
O354 Zn355 2.035 . S
Zn355 O354 2.035 . S
Zn355 O356 2.028 . S
Zn355 O358 2.028 . S
Zn355 O361 2.035 . S
O356 Zn355 2.028 . S
O356 C362 1.247 . S
O357 Zn353 2.035 . S
O357 C362 1.258 . S
O358 C351 1.247 . S
O358 Zn355 2.028 . S
O359 C351 1.258 . S
O359 Zn353 2.035 . S
O360 Zn353 2.028 . S
O360 C363 1.247 . S
O361 Zn355 2.035 . S
O361 C363 1.258 . S
C362 O356 1.247 . S
C362 O357 1.258 . S
C363 O360 1.247 . S
C363 O361 1.258 . S
C364 O366 1.247 . S
C364 O368 1.258 . S
C365 O372 1.247 . S
C365 O373 1.258 . S
O366 C364 1.247 . S
O366 Zn367 2.028 . S
Zn367 O366 2.028 . S
Zn367 O371 2.035 . S
Zn367 O373 2.035 . S
Zn367 O374 2.028 . S
O368 C364 1.258 . S
O368 Zn369 2.035 . S
Zn369 O368 2.035 . S
Zn369 O370 2.028 . S
Zn369 O372 2.028 . S
Zn369 O375 2.035 . S
O370 Zn369 2.028 . S
O370 C376 1.247 . S
O371 Zn367 2.035 . S
O371 C376 1.258 . S
O372 C365 1.247 . S
O372 Zn369 2.028 . S
O373 C365 1.258 . S
O373 Zn367 2.035 . S
O374 Zn367 2.028 . S
O374 C377 1.247 . S
O375 Zn369 2.035 . S
O375 C377 1.258 . S
C376 O370 1.247 . S
C376 O371 1.258 . S
C377 O374 1.247 . S
C377 O375 1.258 . S
C378 O380 1.247 . S
C378 O382 1.258 . S
C379 O386 1.247 . S
C379 O387 1.258 . S
O380 C378 1.247 . S
O380 Zn381 2.028 . S
Zn381 O380 2.028 . S
Zn381 O385 2.035 . S
Zn381 O387 2.035 . S
Zn381 O388 2.028 . S
O382 C378 1.258 . S
O382 Zn383 2.035 . S
Zn383 O382 2.035 . S
Zn383 O384 2.028 . S
Zn383 O386 2.028 . S
Zn383 O389 2.035 . S
O384 Zn383 2.028 . S
O384 C390 1.247 . S
O385 Zn381 2.035 . S
O385 C390 1.258 . S
O386 C379 1.247 . S
O386 Zn383 2.028 . S
O387 C379 1.258 . S
O387 Zn381 2.035 . S
O388 Zn381 2.028 . S
O388 C391 1.247 . S
O389 Zn383 2.035 . S
O389 C391 1.258 . S
C390 O384 1.247 . S
C390 O385 1.258 . S
C391 O388 1.247 . S
C391 O389 1.258 . S
C392 O394 1.247 . S
C392 O396 1.258 . S
C393 O400 1.247 . S
C393 O401 1.295 . S
O394 C392 1.247 . S
O394 Zn395 2.028 . S
Zn395 O394 2.028 . S
Zn395 O399 2.035 1_655 S
Zn395 O401 1.996 1_655 S
Zn395 O402 2.028 . S
O396 C392 1.258 . S
O396 Zn397 2.035 . S
Zn397 O396 2.035 . S
Zn397 O398 2.028 1_655 S
Zn397 O400 2.028 1_655 S
Zn397 O403 2.035 . S
O398 Zn397 2.028 1_455 S
O398 C404 1.247 . S
O399 Zn395 2.035 1_455 S
O399 C404 1.258 . S
O400 C393 1.247 . S
O400 Zn397 2.028 1_455 S
O401 C393 1.295 . S
O401 Zn395 1.996 1_455 S
O402 Zn395 2.028 . S
O402 C405 1.247 . S
O403 Zn397 2.035 . S
O403 C405 1.258 . S
C404 O398 1.247 . S
C404 O399 1.258 . S
C405 O402 1.247 . S
C405 O403 1.258 . S
C406 O408 1.247 . S
C406 O410 1.258 . S
C407 O414 1.247 . S
C407 O415 1.258 . S
O408 C406 1.247 . S
O408 Zn409 2.028 . S
Zn409 O408 2.028 . S
Zn409 O413 2.035 . S
Zn409 O415 2.035 . S
Zn409 O416 2.028 . S
O410 C406 1.258 . S
O410 Zn411 2.035 . S
Zn411 O410 2.035 . S
Zn411 O412 2.028 . S
Zn411 O414 2.028 . S
Zn411 O417 2.035 . S
O412 Zn411 2.028 . S
O412 C418 1.247 . S
O413 Zn409 2.035 . S
O413 C418 1.258 . S
O414 C407 1.247 . S
O414 Zn411 2.028 . S
O415 C407 1.258 . S
O415 Zn409 2.035 . S
O416 Zn409 2.028 . S
O416 C419 1.247 . S
O417 Zn411 2.035 . S
O417 C419 1.258 . S
C418 O412 1.247 . S
C418 O413 1.258 . S
C419 O416 1.247 . S
C419 O417 1.258 . S
C420 O422 1.247 . S
C420 O424 1.258 . S
C421 O428 1.247 . S
C421 O429 1.258 . S
O422 C420 1.247 . S
O422 Zn423 2.028 . S
Zn423 O422 2.028 . S
Zn423 O427 2.035 . S
Zn423 O429 2.035 . S
Zn423 O430 2.028 . S
O424 C420 1.258 . S
O424 Zn425 2.035 . S
Zn425 O424 2.035 . S
Zn425 O426 2.028 . S
Zn425 O428 2.028 . S
Zn425 O431 2.035 . S
O426 Zn425 2.028 . S
O426 C432 1.247 . S
O427 Zn423 2.035 . S
O427 C432 1.258 . S
O428 C421 1.247 . S
O428 Zn425 2.028 . S
O429 C421 1.258 . S
O429 Zn423 2.035 . S
O430 Zn423 2.028 . S
O430 C433 1.247 . S
O431 Zn425 2.035 . S
O431 C433 1.258 . S
C432 O426 1.247 . S
C432 O427 1.258 . S
C433 O430 1.247 . S
C433 O431 1.258 . S
C434 O436 1.247 . S
C434 O438 1.258 . S
C435 O442 1.247 . S
C435 O443 1.258 . S
O436 C434 1.247 . S
O436 Zn437 2.028 . S
Zn437 O436 2.028 . S
Zn437 O441 2.035 . S
Zn437 O443 2.035 . S
Zn437 O444 2.028 . S
O438 C434 1.258 . S
O438 Zn439 2.035 . S
Zn439 O438 2.035 . S
Zn439 O440 2.028 . S
Zn439 O442 2.028 . S
Zn439 O445 2.035 . S
O440 Zn439 2.028 . S
O440 C446 1.247 . S
O441 Zn437 2.035 . S
O441 C446 1.258 . S
O442 C435 1.247 . S
O442 Zn439 2.028 . S
O443 C435 1.258 . S
O443 Zn437 2.035 . S
O444 Zn437 2.028 . S
O444 C447 1.247 . S
O445 Zn439 2.035 . S
O445 C447 1.258 . S
C446 O440 1.247 . S
C446 O441 1.258 . S
C447 O444 1.247 . S
C447 O445 1.258 . S
C448 O450 1.282 . S
C448 O452 1.258 . S
C449 O456 1.247 . S
C449 O457 1.258 . S
O450 C448 1.282 . S
O450 Zn451 1.992 1_545 S
Zn451 O450 1.992 1_565 S
Zn451 O455 2.035 . S
Zn451 O457 2.035 . S
Zn451 O458 2.028 1_565 S
O452 C448 1.258 . S
O452 Zn453 2.035 1_545 S
Zn453 O452 2.035 1_565 S
Zn453 O454 2.028 . S
Zn453 O456 2.028 . S
Zn453 O459 2.035 1_565 S
O454 Zn453 2.028 . S
O454 C460 1.247 . S
O455 Zn451 2.035 . S
O455 C460 1.258 . S
O456 C449 1.247 . S
O456 Zn453 2.028 . S
O457 C449 1.258 . S
O457 Zn451 2.035 . S
O458 Zn451 2.028 1_545 S
O458 C461 1.247 . S
O459 Zn453 2.035 1_545 S
O459 C461 1.258 . S
C460 O454 1.247 . S
C460 O455 1.258 . S
C461 O458 1.247 . S
C461 O459 1.258 . S
C462 O464 1.247 . S
C462 O466 1.258 . S
C463 O470 1.247 . S
C463 O471 1.258 . S
O464 C462 1.247 . S
O464 Zn465 2.028 . S
Zn465 O464 2.028 . S
Zn465 O469 2.035 . S
Zn465 O471 2.035 . S
Zn465 O472 2.028 . S
O466 C462 1.258 . S
O466 Zn467 2.035 . S
Zn467 O466 2.035 . S
Zn467 O468 2.028 . S
Zn467 O470 2.028 . S
Zn467 O473 2.035 . S
O468 Zn467 2.028 . S
O468 C474 1.247 . S
O469 Zn465 2.035 . S
O469 C474 1.258 . S
O470 C463 1.247 . S
O470 Zn467 2.028 . S
O471 C463 1.258 . S
O471 Zn465 2.035 . S
O472 Zn465 2.028 . S
O472 C475 1.247 . S
O473 Zn467 2.035 . S
O473 C475 1.258 . S
C474 O468 1.247 . S
C474 O469 1.258 . S
C475 O472 1.247 . S
C475 O473 1.258 . S
C476 O478 1.282 . S
C476 O480 1.258 . S
C477 O484 1.247 . S
C477 O485 1.258 . S
O478 C476 1.282 . S
O478 Zn479 1.992 1_565 S
Zn479 O478 1.992 1_545 S
Zn479 O483 2.035 . S
Zn479 O485 2.035 . S
Zn479 O486 2.028 1_545 S
O480 C476 1.258 . S
O480 Zn481 2.035 1_565 S
Zn481 O480 2.035 1_545 S
Zn481 O482 2.028 . S
Zn481 O484 2.028 . S
Zn481 O487 2.035 1_545 S
O482 Zn481 2.028 . S
O482 C488 1.247 . S
O483 Zn479 2.035 . S
O483 C488 1.258 . S
O484 C477 1.247 . S
O484 Zn481 2.028 . S
O485 C477 1.258 . S
O485 Zn479 2.035 . S
O486 Zn479 2.028 1_565 S
O486 C489 1.247 . S
O487 Zn481 2.035 1_565 S
O487 C489 1.258 . S
C488 O482 1.247 . S
C488 O483 1.258 . S
C489 O486 1.247 . S
C489 O487 1.258 . S
C490 O492 1.247 . S
C490 O494 1.258 . S
C491 O498 1.247 . S
C491 O499 1.258 . S
O492 C490 1.247 . S
O492 Zn493 2.028 . S
Zn493 O492 2.028 . S
Zn493 O497 2.035 . S
Zn493 O499 2.035 . S
Zn493 O500 2.028 . S
O494 C490 1.258 . S
O494 Zn495 2.035 . S
Zn495 O494 2.035 . S
Zn495 O496 2.028 . S
Zn495 O498 2.028 . S
Zn495 O501 2.035 . S
O496 Zn495 2.028 . S
O496 C502 1.247 . S
O497 Zn493 2.035 . S
O497 C502 1.258 . S
O498 C491 1.247 . S
O498 Zn495 2.028 . S
O499 C491 1.258 . S
O499 Zn493 2.035 . S
O500 Zn493 2.028 . S
O500 C503 1.247 . S
O501 Zn495 2.035 . S
O501 C503 1.258 . S
C502 O496 1.247 . S
C502 O497 1.258 . S
C503 O500 1.247 . S
C503 O501 1.258 . S
C504 O506 1.247 . S
C504 O508 1.258 . S
C505 O512 1.247 . S
C505 O513 1.295 . S
O506 C504 1.247 . S
O506 Zn507 2.028 . S
Zn507 O506 2.028 . S
Zn507 O511 2.035 1_545 S
Zn507 O513 1.996 1_545 S
Zn507 O514 2.028 . S
O508 C504 1.258 . S
O508 Zn509 2.035 . S
Zn509 O508 2.035 . S
Zn509 O510 2.028 1_545 S
Zn509 O512 2.028 1_545 S
Zn509 O515 2.035 . S
O510 Zn509 2.028 1_565 S
O510 C516 1.247 . S
O511 Zn507 2.035 1_565 S
O511 C516 1.258 . S
O512 C505 1.247 . S
O512 Zn509 2.028 1_565 S
O513 C505 1.295 . S
O513 Zn507 1.996 1_565 S
O514 Zn507 2.028 . S
O514 C517 1.247 . S
O515 Zn509 2.035 . S
O515 C517 1.258 . S
C516 O510 1.247 . S
C516 O511 1.258 . S
C517 O514 1.247 . S
C517 O515 1.258 . S
C518 O520 1.247 . S
C518 O522 1.258 . S
C519 O526 1.247 . S
C519 O527 1.258 . S
O520 C518 1.247 . S
O520 Zn521 2.028 . S
Zn521 O520 2.028 . S
Zn521 O525 2.035 . S
Zn521 O527 2.035 . S
Zn521 O528 2.028 . S
O522 C518 1.258 . S
O522 Zn523 2.035 . S
Zn523 O522 2.035 . S
Zn523 O524 2.028 . S
Zn523 O526 2.028 . S
Zn523 O529 2.035 . S
O524 Zn523 2.028 . S
O524 C530 1.247 . S
O525 Zn521 2.035 . S
O525 C530 1.258 . S
O526 C519 1.247 . S
O526 Zn523 2.028 . S
O527 C519 1.258 . S
O527 Zn521 2.035 . S
O528 Zn521 2.028 . S
O528 C531 1.247 . S
O529 Zn523 2.035 . S
O529 C531 1.258 . S
C530 O524 1.247 . S
C530 O525 1.258 . S
C531 O528 1.247 . S
C531 O529 1.258 . S
C532 O534 1.247 . S
C532 O536 1.258 . S
C533 O540 1.247 . S
C533 O541 1.258 . S
O534 C532 1.247 . S
O534 Zn535 2.028 1_545 S
Zn535 O534 2.028 1_565 S
Zn535 O539 2.035 . S
Zn535 O541 2.035 . S
Zn535 O542 2.028 1_565 S
O536 C532 1.258 . S
O536 Zn537 2.035 1_545 S
Zn537 O536 2.035 1_565 S
Zn537 O538 2.028 . S
Zn537 O540 2.028 . S
Zn537 O543 1.996 1_565 S
O538 Zn537 2.028 . S
O538 C544 1.247 . S
O539 Zn535 2.035 . S
O539 C544 1.258 . S
O540 C533 1.247 . S
O540 Zn537 2.028 . S
O541 C533 1.258 . S
O541 Zn535 2.035 . S
O542 Zn535 2.028 1_545 S
O542 C545 1.247 . S
O543 Zn537 1.996 1_545 S
O543 C545 1.295 . S
C544 O538 1.247 . S
C544 O539 1.258 . S
C545 O542 1.247 . S
C545 O543 1.295 . S
C546 O548 1.247 . S
C546 O550 1.258 . S
C547 O554 1.247 . S
C547 O555 1.258 . S
O548 C546 1.247 . S
O548 Zn549 2.028 . S
Zn549 O548 2.028 . S
Zn549 O553 2.035 . S
Zn549 O555 2.035 . S
Zn549 O556 2.028 . S
O550 C546 1.258 . S
O550 Zn551 2.035 . S
Zn551 O550 2.035 . S
Zn551 O552 2.028 . S
Zn551 O554 2.028 . S
Zn551 O557 2.035 . S
O552 Zn551 2.028 . S
O552 C558 1.247 . S
O553 Zn549 2.035 . S
O553 C558 1.258 . S
O554 C547 1.247 . S
O554 Zn551 2.028 . S
O555 C547 1.258 . S
O555 Zn549 2.035 . S
O556 Zn549 2.028 . S
O556 C559 1.247 . S
O557 Zn551 2.035 . S
O557 C559 1.258 . S
C558 O552 1.247 . S
C558 O553 1.258 . S
C559 O556 1.247 . S
C559 O557 1.258 . S
C560 O562 1.247 . S
C560 O564 1.258 . S
C561 O568 1.247 . S
C561 O569 1.258 . S
O562 C560 1.247 . S
O562 Zn563 2.028 . S
Zn563 O562 2.028 . S
Zn563 O567 2.035 1_556 S
Zn563 O569 2.035 1_556 S
Zn563 O570 2.028 . S
O564 C560 1.258 . S
O564 Zn565 2.035 . S
Zn565 O564 2.035 . S
Zn565 O566 1.992 1_556 S
Zn565 O568 2.028 1_556 S
Zn565 O571 2.035 . S
O566 Zn565 1.992 1_554 S
O566 C572 1.282 . S
O567 Zn563 2.035 1_554 S
O567 C572 1.258 . S
O568 C561 1.247 . S
O568 Zn565 2.028 1_554 S
O569 C561 1.258 . S
O569 Zn563 2.035 1_554 S
O570 Zn563 2.028 . S
O570 C573 1.247 . S
O571 Zn565 2.035 . S
O571 C573 1.258 . S
C572 O566 1.282 . S
C572 O567 1.258 . S
C573 O570 1.247 . S
C573 O571 1.258 . S
C574 O576 1.247 . S
C574 O578 1.258 . S
C575 O582 1.247 . S
C575 O583 1.258 . S
O576 C574 1.247 . S
O576 Zn577 2.028 . S
Zn577 O576 2.028 . S
Zn577 O581 2.035 1_554 S
Zn577 O583 2.035 1_554 S
Zn577 O584 2.028 . S
O578 C574 1.258 . S
O578 Zn579 2.035 . S
Zn579 O578 2.035 . S
Zn579 O580 1.992 1_554 S
Zn579 O582 2.028 1_554 S
Zn579 O585 2.035 . S
O580 Zn579 1.992 1_556 S
O580 C586 1.282 . S
O581 Zn577 2.035 1_556 S
O581 C586 1.258 . S
O582 C575 1.247 . S
O582 Zn579 2.028 1_556 S
O583 C575 1.258 . S
O583 Zn577 2.035 1_556 S
O584 Zn577 2.028 . S
O584 C587 1.247 . S
O585 Zn579 2.035 . S
O585 C587 1.258 . S
C586 O580 1.282 . S
C586 O581 1.258 . S
C587 O584 1.247 . S
C587 O585 1.258 . S
C588 O590 1.247 . S
C588 O592 1.258 . S
C589 O596 1.247 . S
C589 O597 1.258 . S
O590 C588 1.247 . S
O590 Zn591 2.028 . S
Zn591 O590 2.028 . S
Zn591 O595 2.035 . S
Zn591 O597 2.035 . S
Zn591 O598 2.028 . S
O592 C588 1.258 . S
O592 Zn593 2.035 . S
Zn593 O592 2.035 . S
Zn593 O594 2.028 . S
Zn593 O596 2.028 . S
Zn593 O599 2.035 . S
O594 Zn593 2.028 . S
O594 C600 1.247 . S
O595 Zn591 2.035 . S
O595 C600 1.258 . S
O596 C589 1.247 . S
O596 Zn593 2.028 . S
O597 C589 1.258 . S
O597 Zn591 2.035 . S
O598 Zn591 2.028 . S
O598 C601 1.247 . S
O599 Zn593 2.035 . S
O599 C601 1.258 . S
C600 O594 1.247 . S
C600 O595 1.258 . S
C601 O598 1.247 . S
C601 O599 1.258 . S
C602 O604 1.247 . S
C602 O606 1.258 . S
C603 O610 1.247 . S
C603 O611 1.258 . S
O604 C602 1.247 . S
O604 Zn605 2.028 . S
Zn605 O604 2.028 . S
Zn605 O609 2.035 . S
Zn605 O611 2.035 . S
Zn605 O612 2.028 . S
O606 C602 1.258 . S
O606 Zn607 2.035 . S
Zn607 O606 2.035 . S
Zn607 O608 2.028 . S
Zn607 O610 2.028 . S
Zn607 O613 2.035 . S
O608 Zn607 2.028 . S
O608 C614 1.247 . S
O609 Zn605 2.035 . S
O609 C614 1.258 . S
O610 C603 1.247 . S
O610 Zn607 2.028 . S
O611 C603 1.258 . S
O611 Zn605 2.035 . S
O612 Zn605 2.028 . S
O612 C615 1.247 . S
O613 Zn607 2.035 . S
O613 C615 1.258 . S
C614 O608 1.247 . S
C614 O609 1.258 . S
C615 O612 1.247 . S
C615 O613 1.258 . S
C616 O618 1.247 . S
C616 O620 1.258 . S
C617 O624 1.247 . S
C617 O625 1.258 . S
O618 C616 1.247 . S
O618 Zn619 2.028 . S
Zn619 O618 2.028 . S
Zn619 O623 2.035 . S
Zn619 O625 2.035 . S
Zn619 O626 2.028 . S
O620 C616 1.258 . S
O620 Zn621 2.035 . S
Zn621 O620 2.035 . S
Zn621 O622 2.028 . S
Zn621 O624 2.028 . S
Zn621 O627 2.035 . S
O622 Zn621 2.028 . S
O622 C628 1.247 . S
O623 Zn619 2.035 . S
O623 C628 1.258 . S
O624 C617 1.247 . S
O624 Zn621 2.028 . S
O625 C617 1.258 . S
O625 Zn619 2.035 . S
O626 Zn619 2.028 . S
O626 C629 1.247 . S
O627 Zn621 2.035 . S
O627 C629 1.258 . S
C628 O622 1.247 . S
C628 O623 1.258 . S
C629 O626 1.247 . S
C629 O627 1.258 . S
C630 O632 1.247 . S
C630 O634 1.258 . S
C631 O638 1.247 . S
C631 O639 1.258 . S
O632 C630 1.247 . S
O632 Zn633 2.028 . S
Zn633 O632 2.028 . S
Zn633 O637 2.035 . S
Zn633 O639 2.035 . S
Zn633 O640 2.028 . S
O634 C630 1.258 . S
O634 Zn635 2.035 . S
Zn635 O634 2.035 . S
Zn635 O636 2.028 . S
Zn635 O638 2.028 . S
Zn635 O641 2.035 . S
O636 Zn635 2.028 . S
O636 C642 1.247 . S
O637 Zn633 2.035 . S
O637 C642 1.258 . S
O638 C631 1.247 . S
O638 Zn635 2.028 . S
O639 C631 1.258 . S
O639 Zn633 2.035 . S
O640 Zn633 2.028 . S
O640 C643 1.247 . S
O641 Zn635 2.035 . S
O641 C643 1.258 . S
C642 O636 1.247 . S
C642 O637 1.258 . S
C643 O640 1.247 . S
C643 O641 1.258 . S
C644 O646 1.247 . S
C644 O648 1.258 . S
C645 O652 1.247 . S
C645 O653 1.258 . S
O646 C644 1.247 . S
O646 Zn647 2.028 . S
Zn647 O646 2.028 . S
Zn647 O651 2.035 . S
Zn647 O653 2.035 . S
Zn647 O654 2.028 . S
O648 C644 1.258 . S
O648 Zn649 2.035 . S
Zn649 O648 2.035 . S
Zn649 O650 2.028 . S
Zn649 O652 2.028 . S
Zn649 O655 2.035 . S
O650 Zn649 2.028 . S
O650 C656 1.247 . S
O651 Zn647 2.035 . S
O651 C656 1.258 . S
O652 C645 1.247 . S
O652 Zn649 2.028 . S
O653 C645 1.258 . S
O653 Zn647 2.035 . S
O654 Zn647 2.028 . S
O654 C657 1.247 . S
O655 Zn649 2.035 . S
O655 C657 1.258 . S
C656 O650 1.247 . S
C656 O651 1.258 . S
C657 O654 1.247 . S
C657 O655 1.258 . S
C658 O660 1.247 . S
C658 O662 1.258 . S
C659 O666 1.247 . S
C659 O667 1.258 . S
O660 C658 1.247 . S
O660 Zn661 2.028 . S
Zn661 O660 2.028 . S
Zn661 O665 2.035 . S
Zn661 O667 2.035 . S
Zn661 O668 2.028 . S
O662 C658 1.258 . S
O662 Zn663 2.035 . S
Zn663 O662 2.035 . S
Zn663 O664 2.028 . S
Zn663 O666 2.028 . S
Zn663 O669 2.035 . S
O664 Zn663 2.028 . S
O664 C670 1.247 . S
O665 Zn661 2.035 . S
O665 C670 1.258 . S
O666 C659 1.247 . S
O666 Zn663 2.028 . S
O667 C659 1.258 . S
O667 Zn661 2.035 . S
O668 Zn661 2.028 . S
O668 C671 1.247 . S
O669 Zn663 2.035 . S
O669 C671 1.258 . S
C670 O664 1.247 . S
C670 O665 1.258 . S
C671 O668 1.247 . S
C671 O669 1.258 . S
C672 O674 1.247 . S
C672 O676 1.258 . S
C673 O680 1.247 . S
C673 O681 1.258 . S
O674 C672 1.247 . S
O674 Zn675 2.028 . S
Zn675 O674 2.028 . S
Zn675 O679 2.035 . S
Zn675 O681 2.035 . S
Zn675 O682 2.028 . S
O676 C672 1.258 . S
O676 Zn677 2.035 . S
Zn677 O676 2.035 . S
Zn677 O678 2.028 . S
Zn677 O680 2.028 . S
Zn677 O683 2.035 . S
O678 Zn677 2.028 . S
O678 C684 1.247 . S
O679 Zn675 2.035 . S
O679 C684 1.258 . S
O680 C673 1.247 . S
O680 Zn677 2.028 . S
O681 C673 1.258 . S
O681 Zn675 2.035 . S
O682 Zn675 2.028 . S
O682 C685 1.247 . S
O683 Zn677 2.035 . S
O683 C685 1.258 . S
C684 O678 1.247 . S
C684 O679 1.258 . S
C685 O682 1.247 . S
C685 O683 1.258 . S
C686 O688 1.247 . S
C686 O690 1.258 . S
C687 O694 1.247 . S
C687 O695 1.258 . S
O688 C686 1.247 . S
O688 Zn689 2.028 . S
Zn689 O688 2.028 . S
Zn689 O693 2.035 . S
Zn689 O695 2.035 . S
Zn689 O696 2.028 . S
O690 C686 1.258 . S
O690 Zn691 2.035 . S
Zn691 O690 2.035 . S
Zn691 O692 2.028 . S
Zn691 O694 2.028 . S
Zn691 O697 2.035 . S
O692 Zn691 2.028 . S
O692 C698 1.247 . S
O693 Zn689 2.035 . S
O693 C698 1.258 . S
O694 C687 1.247 . S
O694 Zn691 2.028 . S
O695 C687 1.258 . S
O695 Zn689 2.035 . S
O696 Zn689 2.028 . S
O696 C699 1.247 . S
O697 Zn691 2.035 . S
O697 C699 1.258 . S
C698 O692 1.247 . S
C698 O693 1.258 . S
C699 O696 1.247 . S
C699 O697 1.258 . S
C700 O702 1.247 . S
C700 O704 1.258 . S
C701 O708 1.247 . S
C701 O709 1.258 . S
O702 C700 1.247 . S
O702 Zn703 2.028 . S
Zn703 O702 2.028 . S
Zn703 O707 1.996 1_655 S
Zn703 O709 2.035 1_655 S
Zn703 O710 2.028 . S
O704 C700 1.258 . S
O704 Zn705 2.035 . S
Zn705 O704 2.035 . S
Zn705 O706 2.028 1_655 S
Zn705 O708 2.028 1_655 S
Zn705 O711 2.035 . S
O706 Zn705 2.028 1_455 S
O706 C712 1.247 . S
O707 Zn703 1.996 1_455 S
O707 C712 1.295 . S
O708 C701 1.247 . S
O708 Zn705 2.028 1_455 S
O709 C701 1.258 . S
O709 Zn703 2.035 1_455 S
O710 Zn703 2.028 . S
O710 C713 1.247 . S
O711 Zn705 2.035 . S
O711 C713 1.258 . S
C712 O706 1.247 . S
C712 O707 1.295 . S
C713 O710 1.247 . S
C713 O711 1.258 . S
C714 O716 1.247 . S
C714 O718 1.258 . S
C715 O722 1.247 . S
C715 O723 1.258 . S
O716 C714 1.247 . S
O716 Zn717 2.028 . S
Zn717 O716 2.028 . S
Zn717 O721 2.035 . S
Zn717 O723 2.035 . S
Zn717 O724 2.028 . S
O718 C714 1.258 . S
O718 Zn719 2.035 . S
Zn719 O718 2.035 . S
Zn719 O720 2.028 . S
Zn719 O722 2.028 . S
Zn719 O725 2.035 . S
O720 Zn719 2.028 . S
O720 C726 1.247 . S
O721 Zn717 2.035 . S
O721 C726 1.258 . S
O722 C715 1.247 . S
O722 Zn719 2.028 . S
O723 C715 1.258 . S
O723 Zn717 2.035 . S
O724 Zn717 2.028 . S
O724 C727 1.247 . S
O725 Zn719 2.035 . S
O725 C727 1.258 . S
C726 O720 1.247 . S
C726 O721 1.258 . S
C727 O724 1.247 . S
C727 O725 1.258 . S
C728 O730 1.247 . S
C728 O732 1.258 . S
C729 O736 1.247 . S
C729 O737 1.258 . S
O730 C728 1.247 . S
O730 Zn731 2.028 . S
Zn731 O730 2.028 . S
Zn731 O735 2.035 . S
Zn731 O737 2.035 . S
Zn731 O738 2.028 . S
O732 C728 1.258 . S
O732 Zn733 2.035 . S
Zn733 O732 2.035 . S
Zn733 O734 2.028 . S
Zn733 O736 2.028 . S
Zn733 O739 2.035 . S
O734 Zn733 2.028 . S
O734 C740 1.247 . S
O735 Zn731 2.035 . S
O735 C740 1.258 . S
O736 C729 1.247 . S
O736 Zn733 2.028 . S
O737 C729 1.258 . S
O737 Zn731 2.035 . S
O738 Zn731 2.028 . S
O738 C741 1.247 . S
O739 Zn733 2.035 . S
O739 C741 1.258 . S
C740 O734 1.247 . S
C740 O735 1.258 . S
C741 O738 1.247 . S
C741 O739 1.258 . S
C742 O744 1.247 . S
C742 O746 1.258 . S
C743 O750 1.247 . S
C743 O751 1.258 . S
O744 C742 1.247 . S
O744 Zn745 2.028 . S
Zn745 O744 2.028 . S
Zn745 O749 2.035 . S
Zn745 O751 2.035 . S
Zn745 O752 2.028 . S
O746 C742 1.258 . S
O746 Zn747 2.035 . S
Zn747 O746 2.035 . S
Zn747 O748 2.028 . S
Zn747 O750 2.028 . S
Zn747 O753 2.035 . S
O748 Zn747 2.028 . S
O748 C754 1.247 . S
O749 Zn745 2.035 . S
O749 C754 1.258 . S
O750 C743 1.247 . S
O750 Zn747 2.028 . S
O751 C743 1.258 . S
O751 Zn745 2.035 . S
O752 Zn745 2.028 . S
O752 C755 1.247 . S
O753 Zn747 2.035 . S
O753 C755 1.258 . S
C754 O748 1.247 . S
C754 O749 1.258 . S
C755 O752 1.247 . S
C755 O753 1.258 . S
C756 O758 1.247 . S
C756 O760 1.258 . S
C757 O764 1.247 . S
C757 O765 1.258 . S
O758 C756 1.247 . S
O758 Zn759 2.028 . S
Zn759 O758 2.028 . S
Zn759 O763 1.996 1_655 S
Zn759 O765 2.035 1_655 S
Zn759 O766 2.028 . S
O760 C756 1.258 . S
O760 Zn761 2.035 . S
Zn761 O760 2.035 . S
Zn761 O762 2.028 1_655 S
Zn761 O764 2.028 1_655 S
Zn761 O767 2.035 . S
O762 Zn761 2.028 1_455 S
O762 C768 1.247 . S
O763 Zn759 1.996 1_455 S
O763 C768 1.295 . S
O764 C757 1.247 . S
O764 Zn761 2.028 1_455 S
O765 C757 1.258 . S
O765 Zn759 2.035 1_455 S
O766 Zn759 2.028 . S
O766 C769 1.247 . S
O767 Zn761 2.035 . S
O767 C769 1.258 . S
C768 O762 1.247 . S
C768 O763 1.295 . S
C769 O766 1.247 . S
C769 O767 1.258 . S
C770 O772 1.247 . S
C770 O774 1.258 . S
C771 O778 1.247 . S
C771 O779 1.258 . S
O772 C770 1.247 . S
O772 Zn773 2.028 . S
Zn773 O772 2.028 . S
Zn773 O777 2.035 . S
Zn773 O779 2.035 . S
Zn773 O780 2.028 . S
O774 C770 1.258 . S
O774 Zn775 2.035 . S
Zn775 O774 2.035 . S
Zn775 O776 2.028 . S
Zn775 O778 2.028 . S
Zn775 O781 2.035 . S
O776 Zn775 2.028 . S
O776 C782 1.247 . S
O777 Zn773 2.035 . S
O777 C782 1.258 . S
O778 C771 1.247 . S
O778 Zn775 2.028 . S
O779 C771 1.258 . S
O779 Zn773 2.035 . S
O780 Zn773 2.028 . S
O780 C783 1.247 . S
O781 Zn775 2.035 . S
O781 C783 1.258 . S
C782 O776 1.247 . S
C782 O777 1.258 . S
C783 O780 1.247 . S
C783 O781 1.258 . S
C784 O786 1.247 . S
C784 O788 1.258 . S
C785 O792 1.247 . S
C785 O793 1.258 . S
O786 C784 1.247 . S
O786 Zn787 2.028 . S
Zn787 O786 2.028 . S
Zn787 O791 2.035 . S
Zn787 O793 2.035 . S
Zn787 O794 2.028 . S
O788 C784 1.258 . S
O788 Zn789 2.035 . S
Zn789 O788 2.035 . S
Zn789 O790 2.028 . S
Zn789 O792 2.028 . S
Zn789 O795 2.035 . S
O790 Zn789 2.028 . S
O790 C796 1.247 . S
O791 Zn787 2.035 . S
O791 C796 1.258 . S
O792 C785 1.247 . S
O792 Zn789 2.028 . S
O793 C785 1.258 . S
O793 Zn787 2.035 . S
O794 Zn787 2.028 . S
O794 C797 1.247 . S
O795 Zn789 2.035 . S
O795 C797 1.258 . S
C796 O790 1.247 . S
C796 O791 1.258 . S
C797 O794 1.247 . S
C797 O795 1.258 . S
C798 O800 1.247 . S
C798 O802 1.258 . S
C799 O806 1.247 . S
C799 O807 1.258 . S
O800 C798 1.247 . S
O800 Zn801 2.028 . S
Zn801 O800 2.028 . S
Zn801 O805 2.035 . S
Zn801 O807 2.035 . S
Zn801 O808 2.028 . S
O802 C798 1.258 . S
O802 Zn803 2.035 . S
Zn803 O802 2.035 . S
Zn803 O804 2.028 . S
Zn803 O806 2.028 . S
Zn803 O809 2.035 . S
O804 Zn803 2.028 . S
O804 C810 1.247 . S
O805 Zn801 2.035 . S
O805 C810 1.258 . S
O806 C799 1.247 . S
O806 Zn803 2.028 . S
O807 C799 1.258 . S
O807 Zn801 2.035 . S
O808 Zn801 2.028 . S
O808 C811 1.247 . S
O809 Zn803 2.035 . S
O809 C811 1.258 . S
C810 O804 1.247 . S
C810 O805 1.258 . S
C811 O808 1.247 . S
C811 O809 1.258 . S
C812 O814 1.247 . S
C812 O816 1.258 . S
C813 O820 1.247 . S
C813 O821 1.258 . S
O814 C812 1.247 . S
O814 Zn815 2.028 . S
Zn815 O814 2.028 . S
Zn815 O819 2.035 . S
Zn815 O821 2.035 . S
Zn815 O822 2.028 . S
O816 C812 1.258 . S
O816 Zn817 2.035 . S
Zn817 O816 2.035 . S
Zn817 O818 2.028 . S
Zn817 O820 2.028 . S
Zn817 O823 2.035 . S
O818 Zn817 2.028 . S
O818 C824 1.247 . S
O819 Zn815 2.035 . S
O819 C824 1.258 . S
O820 C813 1.247 . S
O820 Zn817 2.028 . S
O821 C813 1.258 . S
O821 Zn815 2.035 . S
O822 Zn815 2.028 . S
O822 C825 1.247 . S
O823 Zn817 2.035 . S
O823 C825 1.258 . S
C824 O818 1.247 . S
C824 O819 1.258 . S
C825 O822 1.247 . S
C825 O823 1.258 . S
C826 O828 1.247 . S
C826 O830 1.258 . S
C827 O834 1.247 . S
C827 O835 1.258 . S
O828 C826 1.247 . S
O828 Zn829 2.028 . S
Zn829 O828 2.028 . S
Zn829 O833 2.035 . S
Zn829 O835 2.035 . S
Zn829 O836 2.028 . S
O830 C826 1.258 . S
O830 Zn831 2.035 . S
Zn831 O830 2.035 . S
Zn831 O832 2.028 . S
Zn831 O834 2.028 . S
Zn831 O837 2.035 . S
O832 Zn831 2.028 . S
O832 C838 1.247 . S
O833 Zn829 2.035 . S
O833 C838 1.258 . S
O834 C827 1.247 . S
O834 Zn831 2.028 . S
O835 C827 1.258 . S
O835 Zn829 2.035 . S
O836 Zn829 2.028 . S
O836 C839 1.247 . S
O837 Zn831 2.035 . S
O837 C839 1.258 . S
C838 O832 1.247 . S
C838 O833 1.258 . S
C839 O836 1.247 . S
C839 O837 1.258 . S
C840 O842 1.247 . S
C840 O844 1.258 . S
C841 O848 1.247 . S
C841 O849 1.258 . S
O842 C840 1.247 . S
O842 Zn843 2.028 . S
Zn843 O842 2.028 . S
Zn843 O847 2.035 . S
Zn843 O849 2.035 . S
Zn843 O850 2.028 . S
O844 C840 1.258 . S
O844 Zn845 2.035 . S
Zn845 O844 2.035 . S
Zn845 O846 2.028 . S
Zn845 O848 2.028 . S
Zn845 O851 2.035 . S
O846 Zn845 2.028 . S
O846 C852 1.247 . S
O847 Zn843 2.035 . S
O847 C852 1.258 . S
O848 C841 1.247 . S
O848 Zn845 2.028 . S
O849 C841 1.258 . S
O849 Zn843 2.035 . S
O850 Zn843 2.028 . S
O850 C853 1.247 . S
O851 Zn845 2.035 . S
O851 C853 1.258 . S
C852 O846 1.247 . S
C852 O847 1.258 . S
C853 O850 1.247 . S
C853 O851 1.258 . S
C854 O856 1.247 . S
C854 O858 1.258 . S
C855 O862 1.247 . S
C855 O863 1.258 . S
O856 C854 1.247 . S
O856 Zn857 2.028 . S
Zn857 O856 2.028 . S
Zn857 O861 2.035 . S
Zn857 O863 2.035 . S
Zn857 O864 2.028 . S
O858 C854 1.258 . S
O858 Zn859 2.035 . S
Zn859 O858 2.035 . S
Zn859 O860 2.028 . S
Zn859 O862 2.028 . S
Zn859 O865 2.035 . S
O860 Zn859 2.028 . S
O860 C866 1.247 . S
O861 Zn857 2.035 . S
O861 C866 1.258 . S
O862 C855 1.247 . S
O862 Zn859 2.028 . S
O863 C855 1.258 . S
O863 Zn857 2.035 . S
O864 Zn857 2.028 . S
O864 C867 1.247 . S
O865 Zn859 2.035 . S
O865 C867 1.258 . S
C866 O860 1.247 . S
C866 O861 1.258 . S
C867 O864 1.247 . S
C867 O865 1.258 . S
C868 O870 1.247 . S
C868 O872 1.258 . S
C869 O876 1.247 . S
C869 O877 1.258 . S
O870 C868 1.247 . S
O870 Zn871 2.028 . S
Zn871 O870 2.028 . S
Zn871 O875 2.035 . S
Zn871 O877 2.035 . S
Zn871 O878 2.028 . S
O872 C868 1.258 . S
O872 Zn873 2.035 . S
Zn873 O872 2.035 . S
Zn873 O874 2.028 . S
Zn873 O876 2.028 . S
Zn873 O879 2.035 . S
O874 Zn873 2.028 . S
O874 C880 1.247 . S
O875 Zn871 2.035 . S
O875 C880 1.258 . S
O876 C869 1.247 . S
O876 Zn873 2.028 . S
O877 C869 1.258 . S
O877 Zn871 2.035 . S
O878 Zn871 2.028 . S
O878 C881 1.247 . S
O879 Zn873 2.035 . S
O879 C881 1.258 . S
C880 O874 1.247 . S
C880 O875 1.258 . S
C881 O878 1.247 . S
C881 O879 1.258 . S
C882 O884 1.247 . S
C882 O886 1.258 . S
C883 O890 1.247 . S
C883 O891 1.258 . S
O884 C882 1.247 . S
O884 Zn885 2.028 . S
Zn885 O884 2.028 . S
Zn885 O889 2.035 . S
Zn885 O891 2.035 . S
Zn885 O892 2.028 . S
O886 C882 1.258 . S
O886 Zn887 2.035 . S
Zn887 O886 2.035 . S
Zn887 O888 2.028 . S
Zn887 O890 2.028 . S
Zn887 O893 2.035 . S
O888 Zn887 2.028 . S
O888 C894 1.247 . S
O889 Zn885 2.035 . S
O889 C894 1.258 . S
O890 C883 1.247 . S
O890 Zn887 2.028 . S
O891 C883 1.258 . S
O891 Zn885 2.035 . S
O892 Zn885 2.028 . S
O892 C895 1.247 . S
O893 Zn887 2.035 . S
O893 C895 1.258 . S
C894 O888 1.247 . S
C894 O889 1.258 . S
C895 O892 1.247 . S
C895 O893 1.258 . S
C896 O898 1.247 . S
C896 O900 1.258 . S
C897 O904 1.247 . S
C897 O905 1.258 . S
O898 C896 1.247 . S
O898 Zn899 2.028 . S
Zn899 O898 2.028 . S
Zn899 O903 2.035 . S
Zn899 O905 2.035 . S
Zn899 O906 2.028 . S
O900 C896 1.258 . S
O900 Zn901 2.035 . S
Zn901 O900 2.035 . S
Zn901 O902 2.028 . S
Zn901 O904 2.028 . S
Zn901 O907 2.035 . S
O902 Zn901 2.028 . S
O902 C908 1.247 . S
O903 Zn899 2.035 . S
O903 C908 1.258 . S
O904 C897 1.247 . S
O904 Zn901 2.028 . S
O905 C897 1.258 . S
O905 Zn899 2.035 . S
O906 Zn899 2.028 . S
O906 C909 1.247 . S
O907 Zn901 2.035 . S
O907 C909 1.258 . S
C908 O902 1.247 . S
C908 O903 1.258 . S
C909 O906 1.247 . S
C909 O907 1.258 . S
C910 O912 1.247 . S
C910 O914 1.258 . S
C911 O918 1.247 . S
C911 O919 1.258 . S
O912 C910 1.247 . S
O912 Zn913 2.028 . S
Zn913 O912 2.028 . S
Zn913 O917 2.035 . S
Zn913 O919 2.035 . S
Zn913 O920 2.028 . S
O914 C910 1.258 . S
O914 Zn915 2.035 . S
Zn915 O914 2.035 . S
Zn915 O916 2.028 . S
Zn915 O918 2.028 . S
Zn915 O921 2.035 . S
O916 Zn915 2.028 . S
O916 C922 1.247 . S
O917 Zn913 2.035 . S
O917 C922 1.258 . S
O918 C911 1.247 . S
O918 Zn915 2.028 . S
O919 C911 1.258 . S
O919 Zn913 2.035 . S
O920 Zn913 2.028 . S
O920 C923 1.247 . S
O921 Zn915 2.035 . S
O921 C923 1.258 . S
C922 O916 1.247 . S
C922 O917 1.258 . S
C923 O920 1.247 . S
C923 O921 1.258 . S
C924 O926 1.247 . S
C924 O928 1.258 . S
C925 O932 1.247 . S
C925 O933 1.258 . S
O926 C924 1.247 . S
O926 Zn927 2.028 . S
Zn927 O926 2.028 . S
Zn927 O931 2.035 . S
Zn927 O933 2.035 . S
Zn927 O934 2.028 . S
O928 C924 1.258 . S
O928 Zn929 2.035 . S
Zn929 O928 2.035 . S
Zn929 O930 2.028 . S
Zn929 O932 2.028 . S
Zn929 O935 2.035 . S
O930 Zn929 2.028 . S
O930 C936 1.247 . S
O931 Zn927 2.035 . S
O931 C936 1.258 . S
O932 C925 1.247 . S
O932 Zn929 2.028 . S
O933 C925 1.258 . S
O933 Zn927 2.035 . S
O934 Zn927 2.028 . S
O934 C937 1.247 . S
O935 Zn929 2.035 . S
O935 C937 1.258 . S
C936 O930 1.247 . S
C936 O931 1.258 . S
C937 O934 1.247 . S
C937 O935 1.258 . S
C938 O940 1.247 . S
C938 O942 1.258 . S
C939 O946 1.247 . S
C939 O947 1.258 . S
O940 C938 1.247 . S
O940 Zn941 2.028 1_554 S
Zn941 O940 2.028 1_556 S
Zn941 O945 2.035 . S
Zn941 O947 2.035 . S
Zn941 O948 1.992 1_556 S
O942 C938 1.258 . S
O942 Zn943 2.035 1_554 S
Zn943 O942 2.035 1_556 S
Zn943 O944 2.028 . S
Zn943 O946 2.028 . S
Zn943 O949 2.035 1_556 S
O944 Zn943 2.028 . S
O944 C950 1.247 . S
O945 Zn941 2.035 . S
O945 C950 1.258 . S
O946 C939 1.247 . S
O946 Zn943 2.028 . S
O947 C939 1.258 . S
O947 Zn941 2.035 . S
O948 Zn941 1.992 1_554 S
O948 C951 1.282 . S
O949 Zn943 2.035 1_554 S
O949 C951 1.258 . S
C950 O944 1.247 . S
C950 O945 1.258 . S
C951 O948 1.282 . S
C951 O949 1.258 . S
C952 O954 1.247 . S
C952 O956 1.258 . S
C953 O960 1.247 . S
C953 O961 1.258 . S
O954 C952 1.247 . S
O954 Zn955 2.028 . S
Zn955 O954 2.028 . S
Zn955 O959 2.035 . S
Zn955 O961 2.035 . S
Zn955 O962 2.028 . S
O956 C952 1.258 . S
O956 Zn957 2.035 . S
Zn957 O956 2.035 . S
Zn957 O958 2.028 . S
Zn957 O960 2.028 . S
Zn957 O963 2.035 . S
O958 Zn957 2.028 . S
O958 C964 1.247 . S
O959 Zn955 2.035 . S
O959 C964 1.258 . S
O960 C953 1.247 . S
O960 Zn957 2.028 . S
O961 C953 1.258 . S
O961 Zn955 2.035 . S
O962 Zn955 2.028 . S
O962 C965 1.247 . S
O963 Zn957 2.035 . S
O963 C965 1.258 . S
C964 O958 1.247 . S
C964 O959 1.258 . S
C965 O962 1.247 . S
C965 O963 1.258 . S
C966 O968 1.247 . S
C966 O970 1.258 . S
C967 O974 1.247 . S
C967 O975 1.258 . S
O968 C966 1.247 . S
O968 Zn969 2.028 1_556 S
Zn969 O968 2.028 1_554 S
Zn969 O973 2.035 . S
Zn969 O975 2.035 . S
Zn969 O976 1.992 1_554 S
O970 C966 1.258 . S
O970 Zn971 2.035 1_556 S
Zn971 O970 2.035 1_554 S
Zn971 O972 2.028 . S
Zn971 O974 2.028 . S
Zn971 O977 2.035 1_554 S
O972 Zn971 2.028 . S
O972 C978 1.247 . S
O973 Zn969 2.035 . S
O973 C978 1.258 . S
O974 C967 1.247 . S
O974 Zn971 2.028 . S
O975 C967 1.258 . S
O975 Zn969 2.035 . S
O976 Zn969 1.992 1_556 S
O976 C979 1.282 . S
O977 Zn971 2.035 1_556 S
O977 C979 1.258 . S
C978 O972 1.247 . S
C978 O973 1.258 . S
C979 O976 1.282 . S
C979 O977 1.258 . S
C980 O982 1.247 . S
C980 O984 1.258 . S
C981 O988 1.247 . S
C981 O989 1.258 . S
O982 C980 1.247 . S
O982 Zn983 2.028 . S
Zn983 O982 2.028 . S
Zn983 O987 2.035 . S
Zn983 O989 2.035 . S
Zn983 O990 2.028 . S
O984 C980 1.258 . S
O984 Zn985 2.035 . S
Zn985 O984 2.035 . S
Zn985 O986 2.028 . S
Zn985 O988 2.028 . S
Zn985 O991 2.035 . S
O986 Zn985 2.028 . S
O986 C992 1.247 . S
O987 Zn983 2.035 . S
O987 C992 1.258 . S
O988 C981 1.247 . S
O988 Zn985 2.028 . S
O989 C981 1.258 . S
O989 Zn983 2.035 . S
O990 Zn983 2.028 . S
O990 C993 1.247 . S
O991 Zn985 2.035 . S
O991 C993 1.258 . S
C992 O986 1.247 . S
C992 O987 1.258 . S
C993 O990 1.247 . S
C993 O991 1.258 . S
C994 O996 1.247 . S
C994 O998 1.258 . S
C995 O1002 1.247 . S
C995 O1003 1.258 . S
O996 C994 1.247 . S
O996 Zn997 2.028 . S
Zn997 O996 2.028 . S
Zn997 O1001 2.035 . S
Zn997 O1003 2.035 . S
Zn997 O1004 2.028 . S
O998 C994 1.258 . S
O998 Zn999 2.035 . S
Zn999 O998 2.035 . S
Zn999 O1000 2.028 . S
Zn999 O1002 2.028 . S
Zn999 O1005 2.035 . S
O1000 Zn999 2.028 . S
O1000 C1006 1.247 . S
O1001 Zn997 2.035 . S
O1001 C1006 1.258 . S
O1002 C995 1.247 . S
O1002 Zn999 2.028 . S
O1003 C995 1.258 . S
O1003 Zn997 2.035 . S
O1004 Zn997 2.028 . S
O1004 C1007 1.247 . S
O1005 Zn999 2.035 . S
O1005 C1007 1.258 . S
C1006 O1000 1.247 . S
C1006 O1001 1.258 . S
C1007 O1004 1.247 . S
C1007 O1005 1.258 . S
C1008 O1010 1.247 . S
C1008 O1012 1.258 . S
C1009 O1016 1.247 . S
C1009 O1017 1.258 . S
O1010 C1008 1.247 . S
O1010 Zn1011 2.028 . S
Zn1011 O1010 2.028 . S
Zn1011 O1015 2.035 . S
Zn1011 O1017 2.035 . S
Zn1011 O1018 2.028 . S
O1012 C1008 1.258 . S
O1012 Zn1013 2.035 . S
Zn1013 O1012 2.035 . S
Zn1013 O1014 2.028 . S
Zn1013 O1016 2.028 . S
Zn1013 O1019 2.035 . S
O1014 Zn1013 2.028 . S
O1014 C1020 1.247 . S
O1015 Zn1011 2.035 . S
O1015 C1020 1.258 . S
O1016 C1009 1.247 . S
O1016 Zn1013 2.028 . S
O1017 C1009 1.258 . S
O1017 Zn1011 2.035 . S
O1018 Zn1011 2.028 . S
O1018 C1021 1.247 . S
O1019 Zn1013 2.035 . S
O1019 C1021 1.258 . S
C1020 O1014 1.247 . S
C1020 O1015 1.258 . S
C1021 O1018 1.247 . S
C1021 O1019 1.258 . S
C1022 O1024 1.247 . S
C1022 O1026 1.258 . S
C1023 O1030 1.247 . S
C1023 O1031 1.258 . S
O1024 C1022 1.247 . S
O1024 Zn1025 2.028 . S
Zn1025 O1024 2.028 . S
Zn1025 O1029 2.035 . S
Zn1025 O1031 2.035 . S
Zn1025 O1032 2.028 . S
O1026 C1022 1.258 . S
O1026 Zn1027 2.035 . S
Zn1027 O1026 2.035 . S
Zn1027 O1028 2.028 . S
Zn1027 O1030 2.028 . S
Zn1027 O1033 2.035 . S
O1028 Zn1027 2.028 . S
O1028 C1034 1.247 . S
O1029 Zn1025 2.035 . S
O1029 C1034 1.258 . S
O1030 C1023 1.247 . S
O1030 Zn1027 2.028 . S
O1031 C1023 1.258 . S
O1031 Zn1025 2.035 . S
O1032 Zn1025 2.028 . S
O1032 C1035 1.247 . S
O1033 Zn1027 2.035 . S
O1033 C1035 1.258 . S
C1034 O1028 1.247 . S
C1034 O1029 1.258 . S
C1035 O1032 1.247 . S
C1035 O1033 1.258 . S
C1036 O1038 1.247 . S
C1036 O1040 1.258 . S
C1037 O1044 1.247 . S
C1037 O1045 1.258 . S
O1038 C1036 1.247 . S
O1038 Zn1039 2.028 1_655 S
Zn1039 O1038 2.028 1_455 S
Zn1039 O1043 2.035 . S
Zn1039 O1045 2.035 . S
Zn1039 O1046 2.028 1_455 S
O1040 C1036 1.258 . S
O1040 Zn1041 2.035 1_655 S
Zn1041 O1040 2.035 1_455 S
Zn1041 O1042 2.028 . S
Zn1041 O1044 2.028 . S
Zn1041 O1047 1.996 1_455 S
O1042 Zn1041 2.028 . S
O1042 C1048 1.247 . S
O1043 Zn1039 2.035 . S
O1043 C1048 1.258 . S
O1044 C1037 1.247 . S
O1044 Zn1041 2.028 . S
O1045 C1037 1.258 . S
O1045 Zn1039 2.035 . S
O1046 Zn1039 2.028 1_655 S
O1046 C1049 1.247 . S
O1047 Zn1041 1.996 1_655 S
O1047 C1049 1.295 . S
C1048 O1042 1.247 . S
C1048 O1043 1.258 . S
C1049 O1046 1.247 . S
C1049 O1047 1.295 . S
C1050 O1052 1.247 . S
C1050 O1054 1.258 . S
C1051 O1058 1.247 . S
C1051 O1059 1.258 . S
O1052 C1050 1.247 . S
O1052 Zn1053 2.028 . S
Zn1053 O1052 2.028 . S
Zn1053 O1057 2.035 . S
Zn1053 O1059 2.035 . S
Zn1053 O1060 2.028 . S
O1054 C1050 1.258 . S
O1054 Zn1055 2.035 . S
Zn1055 O1054 2.035 . S
Zn1055 O1056 2.028 . S
Zn1055 O1058 2.028 . S
Zn1055 O1061 2.035 . S
O1056 Zn1055 2.028 . S
O1056 C1062 1.247 . S
O1057 Zn1053 2.035 . S
O1057 C1062 1.258 . S
O1058 C1051 1.247 . S
O1058 Zn1055 2.028 . S
O1059 C1051 1.258 . S
O1059 Zn1053 2.035 . S
O1060 Zn1053 2.028 . S
O1060 C1063 1.247 . S
O1061 Zn1055 2.035 . S
O1061 C1063 1.258 . S
C1062 O1056 1.247 . S
C1062 O1057 1.258 . S
C1063 O1060 1.247 . S
C1063 O1061 1.258 . S
C1064 O1066 1.247 . S
C1064 O1068 1.258 . S
C1065 O1072 1.247 . S
C1065 O1073 1.258 . S
O1066 C1064 1.247 . S
O1066 Zn1067 2.028 . S
Zn1067 O1066 2.028 . S
Zn1067 O1071 2.035 . S
Zn1067 O1073 2.035 . S
Zn1067 O1074 2.028 . S
O1068 C1064 1.258 . S
O1068 Zn1069 2.035 . S
Zn1069 O1068 2.035 . S
Zn1069 O1070 2.028 . S
Zn1069 O1072 2.028 . S
Zn1069 O1075 2.035 . S
O1070 Zn1069 2.028 . S
O1070 C1076 1.247 . S
O1071 Zn1067 2.035 . S
O1071 C1076 1.258 . S
O1072 C1065 1.247 . S
O1072 Zn1069 2.028 . S
O1073 C1065 1.258 . S
O1073 Zn1067 2.035 . S
O1074 Zn1067 2.028 . S
O1074 C1077 1.247 . S
O1075 Zn1069 2.035 . S
O1075 C1077 1.258 . S
C1076 O1070 1.247 . S
C1076 O1071 1.258 . S
C1077 O1074 1.247 . S
C1077 O1075 1.258 . S
C1078 O1080 1.247 . S
C1078 O1082 1.258 . S
C1079 O1086 1.247 . S
C1079 O1087 1.258 . S
O1080 C1078 1.247 . S
O1080 Zn1081 2.028 . S
Zn1081 O1080 2.028 . S
Zn1081 O1085 2.035 . S
Zn1081 O1087 2.035 . S
Zn1081 O1088 2.028 . S
O1082 C1078 1.258 . S
O1082 Zn1083 2.035 . S
Zn1083 O1082 2.035 . S
Zn1083 O1084 2.028 . S
Zn1083 O1086 2.028 . S
Zn1083 O1089 2.035 . S
O1084 Zn1083 2.028 . S
O1084 C1090 1.247 . S
O1085 Zn1081 2.035 . S
O1085 C1090 1.258 . S
O1086 C1079 1.247 . S
O1086 Zn1083 2.028 . S
O1087 C1079 1.258 . S
O1087 Zn1081 2.035 . S
O1088 Zn1081 2.028 . S
O1088 C1091 1.247 . S
O1089 Zn1083 2.035 . S
O1089 C1091 1.258 . S
C1090 O1084 1.247 . S
C1090 O1085 1.258 . S
C1091 O1088 1.247 . S
C1091 O1089 1.258 . S
C1092 O1094 1.247 . S
C1092 O1096 1.258 . S
C1093 O1100 1.247 . S
C1093 O1101 1.258 . S
O1094 C1092 1.247 . S
O1094 Zn1095 2.028 1_655 S
Zn1095 O1094 2.028 1_455 S
Zn1095 O1099 2.035 . S
Zn1095 O1101 2.035 . S
Zn1095 O1102 2.028 1_455 S
O1096 C1092 1.258 . S
O1096 Zn1097 2.035 1_655 S
Zn1097 O1096 2.035 1_455 S
Zn1097 O1098 2.028 . S
Zn1097 O1100 2.028 . S
Zn1097 O1103 1.996 1_455 S
O1098 Zn1097 2.028 . S
O1098 C1104 1.247 . S
O1099 Zn1095 2.035 . S
O1099 C1104 1.258 . S
O1100 C1093 1.247 . S
O1100 Zn1097 2.028 . S
O1101 C1093 1.258 . S
O1101 Zn1095 2.035 . S
O1102 Zn1095 2.028 1_655 S
O1102 C1105 1.247 . S
O1103 Zn1097 1.996 1_655 S
O1103 C1105 1.295 . S
C1104 O1098 1.247 . S
C1104 O1099 1.258 . S
C1105 O1102 1.247 . S
C1105 O1103 1.295 . S
C1106 O1108 1.247 . S
C1106 O1110 1.258 . S
C1107 O1114 1.247 . S
C1107 O1115 1.258 . S
O1108 C1106 1.247 . S
O1108 Zn1109 2.028 . S
Zn1109 O1108 2.028 . S
Zn1109 O1113 2.035 . S
Zn1109 O1115 2.035 . S
Zn1109 O1116 2.028 . S
O1110 C1106 1.258 . S
O1110 Zn1111 2.035 . S
Zn1111 O1110 2.035 . S
Zn1111 O1112 2.028 . S
Zn1111 O1114 2.028 . S
Zn1111 O1117 2.035 . S
O1112 Zn1111 2.028 . S
O1112 C1118 1.247 . S
O1113 Zn1109 2.035 . S
O1113 C1118 1.258 . S
O1114 C1107 1.247 . S
O1114 Zn1111 2.028 . S
O1115 C1107 1.258 . S
O1115 Zn1109 2.035 . S
O1116 Zn1109 2.028 . S
O1116 C1119 1.247 . S
O1117 Zn1111 2.035 . S
O1117 C1119 1.258 . S
C1118 O1112 1.247 . S
C1118 O1113 1.258 . S
C1119 O1116 1.247 . S
C1119 O1117 1.258 . S
C1120 O1122 1.247 . S
C1120 O1124 1.258 . S
C1121 O1128 1.247 . S
C1121 O1129 1.258 . S
O1122 C1120 1.247 . S
O1122 Zn1123 2.028 . S
Zn1123 O1122 2.028 . S
Zn1123 O1127 2.035 . S
Zn1123 O1129 2.035 . S
Zn1123 O1130 2.028 . S
O1124 C1120 1.258 . S
O1124 Zn1125 2.035 . S
Zn1125 O1124 2.035 . S
Zn1125 O1126 2.028 . S
Zn1125 O1128 2.028 . S
Zn1125 O1131 2.035 . S
O1126 Zn1125 2.028 . S
O1126 C1132 1.247 . S
O1127 Zn1123 2.035 . S
O1127 C1132 1.258 . S
O1128 C1121 1.247 . S
O1128 Zn1125 2.028 . S
O1129 C1121 1.258 . S
O1129 Zn1123 2.035 . S
O1130 Zn1123 2.028 . S
O1130 C1133 1.247 . S
O1131 Zn1125 2.035 . S
O1131 C1133 1.258 . S
C1132 O1126 1.247 . S
C1132 O1127 1.258 . S
C1133 O1130 1.247 . S
C1133 O1131 1.258 . S
C1134 O1136 1.247 . S
C1134 O1138 1.258 . S
C1135 O1142 1.247 . S
C1135 O1143 1.258 . S
O1136 C1134 1.247 . S
O1136 Zn1137 2.028 . S
Zn1137 O1136 2.028 . S
Zn1137 O1141 2.035 . S
Zn1137 O1143 2.035 . S
Zn1137 O1144 2.028 . S
O1138 C1134 1.258 . S
O1138 Zn1139 2.035 . S
Zn1139 O1138 2.035 . S
Zn1139 O1140 2.028 . S
Zn1139 O1142 2.028 . S
Zn1139 O1145 2.035 . S
O1140 Zn1139 2.028 . S
O1140 C1146 1.247 . S
O1141 Zn1137 2.035 . S
O1141 C1146 1.258 . S
O1142 C1135 1.247 . S
O1142 Zn1139 2.028 . S
O1143 C1135 1.258 . S
O1143 Zn1137 2.035 . S
O1144 Zn1137 2.028 . S
O1144 C1147 1.247 . S
O1145 Zn1139 2.035 . S
O1145 C1147 1.258 . S
C1146 O1140 1.247 . S
C1146 O1141 1.258 . S
C1147 O1144 1.247 . S
C1147 O1145 1.258 . S
C1148 O1150 1.247 . S
C1148 O1152 1.258 . S
C1149 O1156 1.247 . S
C1149 O1157 1.258 . S
O1150 C1148 1.247 . S
O1150 Zn1151 2.028 . S
Zn1151 O1150 2.028 . S
Zn1151 O1155 2.035 . S
Zn1151 O1157 2.035 . S
Zn1151 O1158 2.028 . S
O1152 C1148 1.258 . S
O1152 Zn1153 2.035 . S
Zn1153 O1152 2.035 . S
Zn1153 O1154 2.028 . S
Zn1153 O1156 2.028 . S
Zn1153 O1159 2.035 . S
O1154 Zn1153 2.028 . S
O1154 C1160 1.247 . S
O1155 Zn1151 2.035 . S
O1155 C1160 1.258 . S
O1156 C1149 1.247 . S
O1156 Zn1153 2.028 . S
O1157 C1149 1.258 . S
O1157 Zn1151 2.035 . S
O1158 Zn1151 2.028 . S
O1158 C1161 1.247 . S
O1159 Zn1153 2.035 . S
O1159 C1161 1.258 . S
C1160 O1154 1.247 . S
C1160 O1155 1.258 . S
C1161 O1158 1.247 . S
C1161 O1159 1.258 . S
C1162 O1164 1.247 . S
C1162 O1166 1.258 . S
C1163 O1170 1.247 . S
C1163 O1171 1.258 . S
O1164 C1162 1.247 . S
O1164 Zn1165 2.028 . S
Zn1165 O1164 2.028 . S
Zn1165 O1169 2.035 . S
Zn1165 O1171 2.035 . S
Zn1165 O1172 2.028 . S
O1166 C1162 1.258 . S
O1166 Zn1167 2.035 . S
Zn1167 O1166 2.035 . S
Zn1167 O1168 2.028 . S
Zn1167 O1170 2.028 . S
Zn1167 O1173 2.035 . S
O1168 Zn1167 2.028 . S
O1168 C1174 1.247 . S
O1169 Zn1165 2.035 . S
O1169 C1174 1.258 . S
O1170 C1163 1.247 . S
O1170 Zn1167 2.028 . S
O1171 C1163 1.258 . S
O1171 Zn1165 2.035 . S
O1172 Zn1165 2.028 . S
O1172 C1175 1.247 . S
O1173 Zn1167 2.035 . S
O1173 C1175 1.258 . S
C1174 O1168 1.247 . S
C1174 O1169 1.258 . S
C1175 O1172 1.247 . S
C1175 O1173 1.258 . S
C1176 O1178 1.247 . S
C1176 O1180 1.258 . S
C1177 O1184 1.247 . S
C1177 O1185 1.258 . S
O1178 C1176 1.247 . S
O1178 Zn1179 2.028 . S
Zn1179 O1178 2.028 . S
Zn1179 O1183 2.035 . S
Zn1179 O1185 2.035 . S
Zn1179 O1186 2.028 . S
O1180 C1176 1.258 . S
O1180 Zn1181 2.035 . S
Zn1181 O1180 2.035 . S
Zn1181 O1182 2.028 . S
Zn1181 O1184 2.028 . S
Zn1181 O1187 2.035 . S
O1182 Zn1181 2.028 . S
O1182 C1188 1.247 . S
O1183 Zn1179 2.035 . S
O1183 C1188 1.258 . S
O1184 C1177 1.247 . S
O1184 Zn1181 2.028 . S
O1185 C1177 1.258 . S
O1185 Zn1179 2.035 . S
O1186 Zn1179 2.028 . S
O1186 C1189 1.247 . S
O1187 Zn1181 2.035 . S
O1187 C1189 1.258 . S
C1188 O1182 1.247 . S
C1188 O1183 1.258 . S
C1189 O1186 1.247 . S
C1189 O1187 1.258 . S
C1190 O1192 1.247 . S
C1190 O1194 1.258 . S
C1191 O1198 1.247 . S
C1191 O1199 1.258 . S
O1192 C1190 1.247 . S
O1192 Zn1193 2.028 . S
Zn1193 O1192 2.028 . S
Zn1193 O1197 2.035 . S
Zn1193 O1199 2.035 . S
Zn1193 O1200 2.028 . S
O1194 C1190 1.258 . S
O1194 Zn1195 2.035 . S
Zn1195 O1194 2.035 . S
Zn1195 O1196 2.028 . S
Zn1195 O1198 2.028 . S
Zn1195 O1201 2.035 . S
O1196 Zn1195 2.028 . S
O1196 C1202 1.247 . S
O1197 Zn1193 2.035 . S
O1197 C1202 1.258 . S
O1198 C1191 1.247 . S
O1198 Zn1195 2.028 . S
O1199 C1191 1.258 . S
O1199 Zn1193 2.035 . S
O1200 Zn1193 2.028 . S
O1200 C1203 1.247 . S
O1201 Zn1195 2.035 . S
O1201 C1203 1.258 . S
C1202 O1196 1.247 . S
C1202 O1197 1.258 . S
C1203 O1200 1.247 . S
C1203 O1201 1.258 . S
C1204 O1206 1.247 . S
C1204 O1208 1.258 . S
C1205 O1212 1.247 . S
C1205 O1213 1.258 . S
O1206 C1204 1.247 . S
O1206 Zn1207 2.028 . S
Zn1207 O1206 2.028 . S
Zn1207 O1211 2.035 . S
Zn1207 O1213 2.035 . S
Zn1207 O1214 2.028 . S
O1208 C1204 1.258 . S
O1208 Zn1209 2.035 . S
Zn1209 O1208 2.035 . S
Zn1209 O1210 2.028 . S
Zn1209 O1212 2.028 . S
Zn1209 O1215 2.035 . S
O1210 Zn1209 2.028 . S
O1210 C1216 1.247 . S
O1211 Zn1207 2.035 . S
O1211 C1216 1.258 . S
O1212 C1205 1.247 . S
O1212 Zn1209 2.028 . S
O1213 C1205 1.258 . S
O1213 Zn1207 2.035 . S
O1214 Zn1207 2.028 . S
O1214 C1217 1.247 . S
O1215 Zn1209 2.035 . S
O1215 C1217 1.258 . S
C1216 O1210 1.247 . S
C1216 O1211 1.258 . S
C1217 O1214 1.247 . S
C1217 O1215 1.258 . S
C1218 O1220 1.247 . S
C1218 O1222 1.258 . S
C1219 O1226 1.247 . S
C1219 O1227 1.258 . S
O1220 C1218 1.247 . S
O1220 Zn1221 2.028 . S
Zn1221 O1220 2.028 . S
Zn1221 O1225 2.035 . S
Zn1221 O1227 2.035 . S
Zn1221 O1228 2.028 . S
O1222 C1218 1.258 . S
O1222 Zn1223 2.035 . S
Zn1223 O1222 2.035 . S
Zn1223 O1224 2.028 . S
Zn1223 O1226 2.028 . S
Zn1223 O1229 2.035 . S
O1224 Zn1223 2.028 . S
O1224 C1230 1.247 . S
O1225 Zn1221 2.035 . S
O1225 C1230 1.258 . S
O1226 C1219 1.247 . S
O1226 Zn1223 2.028 . S
O1227 C1219 1.258 . S
O1227 Zn1221 2.035 . S
O1228 Zn1221 2.028 . S
O1228 C1231 1.247 . S
O1229 Zn1223 2.035 . S
O1229 C1231 1.258 . S
C1230 O1224 1.247 . S
C1230 O1225 1.258 . S
C1231 O1228 1.247 . S
C1231 O1229 1.258 . S
C1232 O1234 1.247 . S
C1232 O1236 1.258 . S
C1233 O1240 1.247 . S
C1233 O1241 1.258 . S
O1234 C1232 1.247 . S
O1234 Zn1235 2.028 . S
Zn1235 O1234 2.028 . S
Zn1235 O1239 2.035 . S
Zn1235 O1241 2.035 . S
Zn1235 O1242 2.028 . S
O1236 C1232 1.258 . S
O1236 Zn1237 2.035 . S
Zn1237 O1236 2.035 . S
Zn1237 O1238 2.028 . S
Zn1237 O1240 2.028 . S
Zn1237 O1243 2.035 . S
O1238 Zn1237 2.028 . S
O1238 C1244 1.247 . S
O1239 Zn1235 2.035 . S
O1239 C1244 1.258 . S
O1240 C1233 1.247 . S
O1240 Zn1237 2.028 . S
O1241 C1233 1.258 . S
O1241 Zn1235 2.035 . S
O1242 Zn1235 2.028 . S
O1242 C1245 1.247 . S
O1243 Zn1237 2.035 . S
O1243 C1245 1.258 . S
C1244 O1238 1.247 . S
C1244 O1239 1.258 . S
C1245 O1242 1.247 . S
C1245 O1243 1.258 . S
C1246 O1248 1.247 . S
C1246 O1250 1.258 . S
C1247 O1254 1.247 . S
C1247 O1255 1.258 . S
O1248 C1246 1.247 . S
O1248 Zn1249 2.028 . S
Zn1249 O1248 2.028 . S
Zn1249 O1253 2.035 . S
Zn1249 O1255 2.035 . S
Zn1249 O1256 2.028 . S
O1250 C1246 1.258 . S
O1250 Zn1251 2.035 . S
Zn1251 O1250 2.035 . S
Zn1251 O1252 2.028 . S
Zn1251 O1254 2.028 . S
Zn1251 O1257 2.035 . S
O1252 Zn1251 2.028 . S
O1252 C1258 1.247 . S
O1253 Zn1249 2.035 . S
O1253 C1258 1.258 . S
O1254 C1247 1.247 . S
O1254 Zn1251 2.028 . S
O1255 C1247 1.258 . S
O1255 Zn1249 2.035 . S
O1256 Zn1249 2.028 . S
O1256 C1259 1.247 . S
O1257 Zn1251 2.035 . S
O1257 C1259 1.258 . S
C1258 O1252 1.247 . S
C1258 O1253 1.258 . S
C1259 O1256 1.247 . S
C1259 O1257 1.258 . S
C1260 O1262 1.247 . S
C1260 O1264 1.258 . S
C1261 O1268 1.247 . S
C1261 O1269 1.258 . S
O1262 C1260 1.247 . S
O1262 Zn1263 2.028 . S
Zn1263 O1262 2.028 . S
Zn1263 O1267 2.035 . S
Zn1263 O1269 2.035 . S
Zn1263 O1270 2.028 . S
O1264 C1260 1.258 . S
O1264 Zn1265 2.035 . S
Zn1265 O1264 2.035 . S
Zn1265 O1266 2.028 . S
Zn1265 O1268 2.028 . S
Zn1265 O1271 2.035 . S
O1266 Zn1265 2.028 . S
O1266 C1272 1.247 . S
O1267 Zn1263 2.035 . S
O1267 C1272 1.258 . S
O1268 C1261 1.247 . S
O1268 Zn1265 2.028 . S
O1269 C1261 1.258 . S
O1269 Zn1263 2.035 . S
O1270 Zn1263 2.028 . S
O1270 C1273 1.247 . S
O1271 Zn1265 2.035 . S
O1271 C1273 1.258 . S
C1272 O1266 1.247 . S
C1272 O1267 1.258 . S
C1273 O1270 1.247 . S
C1273 O1271 1.258 . S
C1274 O1276 1.247 . S
C1274 O1278 1.258 . S
C1275 O1282 1.247 . S
C1275 O1283 1.258 . S
O1276 C1274 1.247 . S
O1276 Zn1277 2.028 . S
Zn1277 O1276 2.028 . S
Zn1277 O1281 2.035 1_554 S
Zn1277 O1283 2.035 1_554 S
Zn1277 O1284 2.028 . S
O1278 C1274 1.258 . S
O1278 Zn1279 2.035 . S
Zn1279 O1278 2.035 . S
Zn1279 O1280 1.992 1_554 S
Zn1279 O1282 2.028 1_554 S
Zn1279 O1285 2.035 . S
O1280 Zn1279 1.992 1_556 S
O1280 C1286 1.282 . S
O1281 Zn1277 2.035 1_556 S
O1281 C1286 1.258 . S
O1282 C1275 1.247 . S
O1282 Zn1279 2.028 1_556 S
O1283 C1275 1.258 . S
O1283 Zn1277 2.035 1_556 S
O1284 Zn1277 2.028 . S
O1284 C1287 1.247 . S
O1285 Zn1279 2.035 . S
O1285 C1287 1.258 . S
C1286 O1280 1.282 . S
C1286 O1281 1.258 . S
C1287 O1284 1.247 . S
C1287 O1285 1.258 . S
C1288 O1290 1.247 . S
C1288 O1292 1.258 . S
C1289 O1296 1.247 . S
C1289 O1297 1.258 . S
O1290 C1288 1.247 . S
O1290 Zn1291 2.028 . S
Zn1291 O1290 2.028 . S
Zn1291 O1295 2.035 . S
Zn1291 O1297 2.035 . S
Zn1291 O1298 2.028 . S
O1292 C1288 1.258 . S
O1292 Zn1293 2.035 . S
Zn1293 O1292 2.035 . S
Zn1293 O1294 2.028 . S
Zn1293 O1296 2.028 . S
Zn1293 O1299 2.035 . S
O1294 Zn1293 2.028 . S
O1294 C1300 1.247 . S
O1295 Zn1291 2.035 . S
O1295 C1300 1.258 . S
O1296 C1289 1.247 . S
O1296 Zn1293 2.028 . S
O1297 C1289 1.258 . S
O1297 Zn1291 2.035 . S
O1298 Zn1291 2.028 . S
O1298 C1301 1.247 . S
O1299 Zn1293 2.035 . S
O1299 C1301 1.258 . S
C1300 O1294 1.247 . S
C1300 O1295 1.258 . S
C1301 O1298 1.247 . S
C1301 O1299 1.258 . S
C1302 O1304 1.247 . S
C1302 O1306 1.258 . S
C1303 O1310 1.247 . S
C1303 O1311 1.258 . S
O1304 C1302 1.247 . S
O1304 Zn1305 2.028 . S
Zn1305 O1304 2.028 . S
Zn1305 O1309 2.035 1_556 S
Zn1305 O1311 2.035 1_556 S
Zn1305 O1312 2.028 . S
O1306 C1302 1.258 . S
O1306 Zn1307 2.035 . S
Zn1307 O1306 2.035 . S
Zn1307 O1308 1.992 1_556 S
Zn1307 O1310 2.028 1_556 S
Zn1307 O1313 2.035 . S
O1308 Zn1307 1.992 1_554 S
O1308 C1314 1.282 . S
O1309 Zn1305 2.035 1_554 S
O1309 C1314 1.258 . S
O1310 C1303 1.247 . S
O1310 Zn1307 2.028 1_554 S
O1311 C1303 1.258 . S
O1311 Zn1305 2.035 1_554 S
O1312 Zn1305 2.028 . S
O1312 C1315 1.247 . S
O1313 Zn1307 2.035 . S
O1313 C1315 1.258 . S
C1314 O1308 1.282 . S
C1314 O1309 1.258 . S
C1315 O1312 1.247 . S
C1315 O1313 1.258 . S
C1316 O1318 1.247 . S
C1316 O1320 1.258 . S
C1317 O1324 1.247 . S
C1317 O1325 1.258 . S
O1318 C1316 1.247 . S
O1318 Zn1319 2.028 . S
Zn1319 O1318 2.028 . S
Zn1319 O1323 2.035 . S
Zn1319 O1325 2.035 . S
Zn1319 O1326 2.028 . S
O1320 C1316 1.258 . S
O1320 Zn1321 2.035 . S
Zn1321 O1320 2.035 . S
Zn1321 O1322 2.028 . S
Zn1321 O1324 2.028 . S
Zn1321 O1327 2.035 . S
O1322 Zn1321 2.028 . S
O1322 C1328 1.247 . S
O1323 Zn1319 2.035 . S
O1323 C1328 1.258 . S
O1324 C1317 1.247 . S
O1324 Zn1321 2.028 . S
O1325 C1317 1.258 . S
O1325 Zn1319 2.035 . S
O1326 Zn1319 2.028 . S
O1326 C1329 1.247 . S
O1327 Zn1321 2.035 . S
O1327 C1329 1.258 . S
C1328 O1322 1.247 . S
C1328 O1323 1.258 . S
C1329 O1326 1.247 . S
C1329 O1327 1.258 . S
C1330 O1332 1.247 . S
C1330 O1334 1.258 . S
C1331 O1338 1.247 . S
C1331 O1339 1.258 . S
O1332 C1330 1.247 . S
O1332 Zn1333 2.028 . S
Zn1333 O1332 2.028 . S
Zn1333 O1337 2.035 . S
Zn1333 O1339 2.035 . S
Zn1333 O1340 2.028 . S
O1334 C1330 1.258 . S
O1334 Zn1335 2.035 . S
Zn1335 O1334 2.035 . S
Zn1335 O1336 2.028 . S
Zn1335 O1338 2.028 . S
Zn1335 O1341 2.035 . S
O1336 Zn1335 2.028 . S
O1336 C1342 1.247 . S
O1337 Zn1333 2.035 . S
O1337 C1342 1.258 . S
O1338 C1331 1.247 . S
O1338 Zn1335 2.028 . S
O1339 C1331 1.258 . S
O1339 Zn1333 2.035 . S
O1340 Zn1333 2.028 . S
O1340 C1343 1.247 . S
O1341 Zn1335 2.035 . S
O1341 C1343 1.258 . S
C1342 O1336 1.247 . S
C1342 O1337 1.258 . S
C1343 O1340 1.247 . S
C1343 O1341 1.258 . S
H1344 C1352 0.950 . S
H1345 C1357 0.950 . S
H1346 C1354 0.950 . S
H1347 C1356 0.950 . S
H1348 C1358 0.950 . S
H1349 C1360 0.950 . S
H1350 C1362 0.950 . S
H1351 C1363 0.950 . S
C1352 H1344 0.950 . S
C1352 C1353 1.386 . S
C1352 C1354 1.391 . S
C1353 C1352 1.386 . S
C1353 C1357 1.393 . S
C1354 H1346 0.950 . S
C1354 C1352 1.391 . S
C1354 C1355 1.400 . S
C1355 C1354 1.400 . S
C1355 C1356 1.398 . S
C1355 C1361 1.491 . S
C1356 H1347 0.950 . S
C1356 C1355 1.398 . S
C1356 C1357 1.391 . S
C1357 H1345 0.950 . S
C1357 C1353 1.393 . S
C1357 C1356 1.391 . S
C1358 H1348 0.950 . S
C1358 C1359 1.386 . S
C1358 C1360 1.391 . S
C1359 C1358 1.386 . S
C1359 C1363 1.393 . S
C1360 H1349 0.950 . S
C1360 C1358 1.391 . S
C1360 C1361 1.400 . S
C1361 C1355 1.491 . S
C1361 C1360 1.400 . S
C1361 C1362 1.398 . S
C1362 H1350 0.950 . S
C1362 C1361 1.398 . S
C1362 C1363 1.391 . S
C1363 H1351 0.950 . S
C1363 C1359 1.393 . S
C1363 C1362 1.391 . S
H1364 C1372 0.950 . S
H1365 C1377 0.950 . S
H1366 C1374 0.950 . S
H1367 C1376 0.950 . S
H1368 C1378 0.950 . S
H1369 C1380 0.950 . S
H1370 C1382 0.950 . S
H1371 C1383 0.950 . S
C1372 H1364 0.950 . S
C1372 C1373 1.386 . S
C1372 C1374 1.391 . S
C1373 C1372 1.386 . S
C1373 C1377 1.393 . S
C1374 H1366 0.950 . S
C1374 C1372 1.391 . S
C1374 C1375 1.400 . S
C1375 C1374 1.400 . S
C1375 C1376 1.398 . S
C1375 C1381 1.491 . S
C1376 H1367 0.950 . S
C1376 C1375 1.398 . S
C1376 C1377 1.391 . S
C1377 H1365 0.950 . S
C1377 C1373 1.393 . S
C1377 C1376 1.391 . S
C1378 H1368 0.950 . S
C1378 C1379 1.386 . S
C1378 C1380 1.391 . S
C1379 C1378 1.386 . S
C1379 C1383 1.393 . S
C1380 H1369 0.950 . S
C1380 C1378 1.391 . S
C1380 C1381 1.400 . S
C1381 C1375 1.491 . S
C1381 C1380 1.400 . S
C1381 C1382 1.398 . S
C1382 H1370 0.950 . S
C1382 C1381 1.398 . S
C1382 C1383 1.391 . S
C1383 H1371 0.950 . S
C1383 C1379 1.393 . S
C1383 C1382 1.391 . S
H1384 C1392 0.950 . S
H1385 C1397 0.950 . S
H1386 C1394 0.950 . S
H1387 C1396 0.950 . S
H1388 C1398 0.950 . S
H1389 C1400 0.950 . S
H1390 C1402 0.950 . S
H1391 C1403 0.950 . S
C1392 H1384 0.950 . S
C1392 C1393 1.386 . S
C1392 C1394 1.391 . S
C1393 C1392 1.386 . S
C1393 C1397 1.393 . S
C1394 H1386 0.950 . S
C1394 C1392 1.391 . S
C1394 C1395 1.400 . S
C1395 C1394 1.400 . S
C1395 C1396 1.398 . S
C1395 C1401 1.491 . S
C1396 H1387 0.950 . S
C1396 C1395 1.398 . S
C1396 C1397 1.391 . S
C1397 H1385 0.950 . S
C1397 C1393 1.393 . S
C1397 C1396 1.391 . S
C1398 H1388 0.950 . S
C1398 C1399 1.386 . S
C1398 C1400 1.391 . S
C1399 C1398 1.386 . S
C1399 C1403 1.393 . S
C1400 H1389 0.950 . S
C1400 C1398 1.391 . S
C1400 C1401 1.400 . S
C1401 C1395 1.491 . S
C1401 C1400 1.400 . S
C1401 C1402 1.398 . S
C1402 H1390 0.950 . S
C1402 C1401 1.398 . S
C1402 C1403 1.391 . S
C1403 H1391 0.950 . S
C1403 C1399 1.393 . S
C1403 C1402 1.391 . S
H1404 C1412 0.950 . S
H1405 C1417 0.950 . S
H1406 C1414 0.950 . S
H1407 C1416 0.950 . S
H1408 C1418 0.950 . S
H1409 C1420 0.950 . S
H1410 C1422 0.950 . S
H1411 C1423 0.950 . S
C1412 H1404 0.950 . S
C1412 C1413 1.386 . S
C1412 C1414 1.391 . S
C1413 C1412 1.386 . S
C1413 C1417 1.393 . S
C1414 H1406 0.950 . S
C1414 C1412 1.391 . S
C1414 C1415 1.400 . S
C1415 C1414 1.400 . S
C1415 C1416 1.398 . S
C1415 C1421 1.491 . S
C1416 H1407 0.950 . S
C1416 C1415 1.398 . S
C1416 C1417 1.391 . S
C1417 H1405 0.950 . S
C1417 C1413 1.393 . S
C1417 C1416 1.391 . S
C1418 H1408 0.950 . S
C1418 C1419 1.386 . S
C1418 C1420 1.391 . S
C1419 C1418 1.386 . S
C1419 C1423 1.393 . S
C1420 H1409 0.950 . S
C1420 C1418 1.391 . S
C1420 C1421 1.400 . S
C1421 C1415 1.491 . S
C1421 C1420 1.400 . S
C1421 C1422 1.398 . S
C1422 H1410 0.950 . S
C1422 C1421 1.398 . S
C1422 C1423 1.391 . S
C1423 H1411 0.950 . S
C1423 C1419 1.393 . S
C1423 C1422 1.391 . S
H1424 C1432 0.950 . S
H1425 C1437 0.950 . S
H1426 C1434 0.950 . S
H1427 C1436 0.950 . S
H1428 C1438 0.950 . S
H1429 C1440 0.950 . S
H1430 C1442 0.950 . S
H1431 C1443 0.950 . S
C1432 H1424 0.950 . S
C1432 C1433 1.386 . S
C1432 C1434 1.391 . S
C1433 C1432 1.386 . S
C1433 C1437 1.393 . S
C1434 H1426 0.950 . S
C1434 C1432 1.391 . S
C1434 C1435 1.400 . S
C1435 C1434 1.400 . S
C1435 C1436 1.398 . S
C1435 C1441 1.491 . S
C1436 H1427 0.950 . S
C1436 C1435 1.398 . S
C1436 C1437 1.391 . S
C1437 H1425 0.950 . S
C1437 C1433 1.393 . S
C1437 C1436 1.391 . S
C1438 H1428 0.950 . S
C1438 C1439 1.386 . S
C1438 C1440 1.391 . S
C1439 C1438 1.386 . S
C1439 C1443 1.393 . S
C1440 H1429 0.950 . S
C1440 C1438 1.391 . S
C1440 C1441 1.400 . S
C1441 C1435 1.491 . S
C1441 C1440 1.400 . S
C1441 C1442 1.398 . S
C1442 H1430 0.950 . S
C1442 C1441 1.398 . S
C1442 C1443 1.391 . S
C1443 H1431 0.950 . S
C1443 C1439 1.393 . S
C1443 C1442 1.391 . S
H1444 C1452 0.950 . S
H1445 C1457 0.950 . S
H1446 C1454 0.950 . S
H1447 C1456 0.950 . S
H1448 C1458 0.950 . S
H1449 C1460 0.950 . S
H1450 C1462 0.950 . S
H1451 C1463 0.950 . S
C1452 H1444 0.950 . S
C1452 C1453 1.386 . S
C1452 C1454 1.391 . S
C1453 C1452 1.386 . S
C1453 C1457 1.393 . S
C1454 H1446 0.950 . S
C1454 C1452 1.391 . S
C1454 C1455 1.400 . S
C1455 C1454 1.400 . S
C1455 C1456 1.398 . S
C1455 C1461 1.491 . S
C1456 H1447 0.950 . S
C1456 C1455 1.398 . S
C1456 C1457 1.391 . S
C1457 H1445 0.950 . S
C1457 C1453 1.393 . S
C1457 C1456 1.391 . S
C1458 H1448 0.950 . S
C1458 C1459 1.386 . S
C1458 C1460 1.391 . S
C1459 C1458 1.386 . S
C1459 C1463 1.393 . S
C1460 H1449 0.950 . S
C1460 C1458 1.391 . S
C1460 C1461 1.400 . S
C1461 C1455 1.491 . S
C1461 C1460 1.400 . S
C1461 C1462 1.398 . S
C1462 H1450 0.950 . S
C1462 C1461 1.398 . S
C1462 C1463 1.391 . S
C1463 H1451 0.950 . S
C1463 C1459 1.393 . S
C1463 C1462 1.391 . S
H1464 C1472 0.950 . S
H1465 C1477 0.950 . S
H1466 C1474 0.950 . S
H1467 C1476 0.950 . S
H1468 C1478 0.950 . S
H1469 C1480 0.950 . S
H1470 C1482 0.950 . S
H1471 C1483 0.950 . S
C1472 H1464 0.950 . S
C1472 C1473 1.386 . S
C1472 C1474 1.391 . S
C1473 C1472 1.386 . S
C1473 C1477 1.393 . S
C1474 H1466 0.950 . S
C1474 C1472 1.391 . S
C1474 C1475 1.400 . S
C1475 C1474 1.400 . S
C1475 C1476 1.398 . S
C1475 C1481 1.491 . S
C1476 H1467 0.950 . S
C1476 C1475 1.398 . S
C1476 C1477 1.391 . S
C1477 H1465 0.950 . S
C1477 C1473 1.393 . S
C1477 C1476 1.391 . S
C1478 H1468 0.950 . S
C1478 C1479 1.386 . S
C1478 C1480 1.391 . S
C1479 C1478 1.386 . S
C1479 C1483 1.393 . S
C1480 H1469 0.950 . S
C1480 C1478 1.391 . S
C1480 C1481 1.400 . S
C1481 C1475 1.491 . S
C1481 C1480 1.400 . S
C1481 C1482 1.398 . S
C1482 H1470 0.950 . S
C1482 C1481 1.398 . S
C1482 C1483 1.391 . S
C1483 H1471 0.950 . S
C1483 C1479 1.393 . S
C1483 C1482 1.391 . S
H1484 C1492 0.950 . S
H1485 C1497 0.950 . S
H1486 C1494 0.950 . S
H1487 C1496 0.950 . S
H1488 C1498 0.950 . S
H1489 C1500 0.950 . S
H1490 C1502 0.950 . S
H1491 C1503 0.950 . S
C1492 H1484 0.950 . S
C1492 C1493 1.386 . S
C1492 C1494 1.391 . S
C1493 C1492 1.386 . S
C1493 C1497 1.393 . S
C1494 H1486 0.950 . S
C1494 C1492 1.391 . S
C1494 C1495 1.400 . S
C1495 C1494 1.400 . S
C1495 C1496 1.398 . S
C1495 C1501 1.491 . S
C1496 H1487 0.950 . S
C1496 C1495 1.398 . S
C1496 C1497 1.391 . S
C1497 H1485 0.950 . S
C1497 C1493 1.393 . S
C1497 C1496 1.391 . S
C1498 H1488 0.950 . S
C1498 C1499 1.386 . S
C1498 C1500 1.391 . S
C1499 C1498 1.386 . S
C1499 C1503 1.393 . S
C1500 H1489 0.950 . S
C1500 C1498 1.391 . S
C1500 C1501 1.400 . S
C1501 C1495 1.491 . S
C1501 C1500 1.400 . S
C1501 C1502 1.398 . S
C1502 H1490 0.950 . S
C1502 C1501 1.398 . S
C1502 C1503 1.391 . S
C1503 H1491 0.950 . S
C1503 C1499 1.393 . S
C1503 C1502 1.391 . S
H1504 C1512 0.950 . S
H1505 C1517 0.950 . S
H1506 C1514 0.950 . S
H1507 C1516 0.950 . S
H1508 C1518 0.950 . S
H1509 C1520 0.950 . S
H1510 C1522 0.950 . S
H1511 C1523 0.950 . S
C1512 H1504 0.950 . S
C1512 C1513 1.386 . S
C1512 C1514 1.391 . S
C1513 C1512 1.386 . S
C1513 C1517 1.393 . S
C1514 H1506 0.950 . S
C1514 C1512 1.391 . S
C1514 C1515 1.400 . S
C1515 C1514 1.400 . S
C1515 C1516 1.398 . S
C1515 C1521 1.491 . S
C1516 H1507 0.950 . S
C1516 C1515 1.398 . S
C1516 C1517 1.391 . S
C1517 H1505 0.950 . S
C1517 C1513 1.393 . S
C1517 C1516 1.391 . S
C1518 H1508 0.950 . S
C1518 C1519 1.386 . S
C1518 C1520 1.391 . S
C1519 C1518 1.386 . S
C1519 C1523 1.393 . S
C1520 H1509 0.950 . S
C1520 C1518 1.391 . S
C1520 C1521 1.400 . S
C1521 C1515 1.491 . S
C1521 C1520 1.400 . S
C1521 C1522 1.398 . S
C1522 H1510 0.950 . S
C1522 C1521 1.398 . S
C1522 C1523 1.391 . S
C1523 H1511 0.950 . S
C1523 C1519 1.393 . S
C1523 C1522 1.391 . S
H1524 C1532 0.950 . S
H1525 C1537 0.950 . S
H1526 C1534 0.950 . S
H1527 C1536 0.950 . S
H1528 C1538 0.950 . S
H1529 C1540 0.950 . S
H1530 C1542 0.950 . S
H1531 C1543 0.950 . S
C1532 H1524 0.950 . S
C1532 C1533 1.386 . S
C1532 C1534 1.391 . S
C1533 C1532 1.386 . S
C1533 C1537 1.393 . S
C1534 H1526 0.950 . S
C1534 C1532 1.391 . S
C1534 C1535 1.400 . S
C1535 C1534 1.400 . S
C1535 C1536 1.398 . S
C1535 C1541 1.491 . S
C1536 H1527 0.950 . S
C1536 C1535 1.398 . S
C1536 C1537 1.391 . S
C1537 H1525 0.950 . S
C1537 C1533 1.393 . S
C1537 C1536 1.391 . S
C1538 H1528 0.950 . S
C1538 C1539 1.386 . S
C1538 C1540 1.391 . S
C1539 C1538 1.386 . S
C1539 C1543 1.393 . S
C1540 H1529 0.950 . S
C1540 C1538 1.391 . S
C1540 C1541 1.400 . S
C1541 C1535 1.491 . S
C1541 C1540 1.400 . S
C1541 C1542 1.398 . S
C1542 H1530 0.950 . S
C1542 C1541 1.398 . S
C1542 C1543 1.391 . S
C1543 H1531 0.950 . S
C1543 C1539 1.393 . S
C1543 C1542 1.391 . S
H1544 C1552 0.950 . S
H1545 C1557 0.950 . S
H1546 C1554 0.950 . S
H1547 C1556 0.950 . S
H1548 C1558 0.950 . S
H1549 C1560 0.950 . S
H1550 C1562 0.950 . S
H1551 C1563 0.950 . S
C1552 H1544 0.950 . S
C1552 C1553 1.386 . S
C1552 C1554 1.391 . S
C1553 C1552 1.386 . S
C1553 C1557 1.393 . S
C1554 H1546 0.950 . S
C1554 C1552 1.391 . S
C1554 C1555 1.400 . S
C1555 C1554 1.400 . S
C1555 C1556 1.398 . S
C1555 C1561 1.491 . S
C1556 H1547 0.950 . S
C1556 C1555 1.398 . S
C1556 C1557 1.391 . S
C1557 H1545 0.950 . S
C1557 C1553 1.393 . S
C1557 C1556 1.391 . S
C1558 H1548 0.950 . S
C1558 C1559 1.386 . S
C1558 C1560 1.391 . S
C1559 C1558 1.386 . S
C1559 C1563 1.393 . S
C1560 H1549 0.950 . S
C1560 C1558 1.391 . S
C1560 C1561 1.400 . S
C1561 C1555 1.491 . S
C1561 C1560 1.400 . S
C1561 C1562 1.398 . S
C1562 H1550 0.950 . S
C1562 C1561 1.398 . S
C1562 C1563 1.391 . S
C1563 H1551 0.950 . S
C1563 C1559 1.393 . S
C1563 C1562 1.391 . S
H1564 C1572 0.950 . S
H1565 C1577 0.950 . S
H1566 C1574 0.950 . S
H1567 C1576 0.950 . S
H1568 C1578 0.950 . S
H1569 C1580 0.950 . S
H1570 C1582 0.950 . S
H1571 C1583 0.950 . S
C1572 H1564 0.950 . S
C1572 C1573 1.386 . S
C1572 C1574 1.391 . S
C1573 C1572 1.386 . S
C1573 C1577 1.393 . S
C1574 H1566 0.950 . S
C1574 C1572 1.391 . S
C1574 C1575 1.400 . S
C1575 C1574 1.400 . S
C1575 C1576 1.398 . S
C1575 C1581 1.491 . S
C1576 H1567 0.950 . S
C1576 C1575 1.398 . S
C1576 C1577 1.391 . S
C1577 H1565 0.950 . S
C1577 C1573 1.393 . S
C1577 C1576 1.391 . S
C1578 H1568 0.950 . S
C1578 C1579 1.386 . S
C1578 C1580 1.391 . S
C1579 C1578 1.386 . S
C1579 C1583 1.393 . S
C1580 H1569 0.950 . S
C1580 C1578 1.391 . S
C1580 C1581 1.400 . S
C1581 C1575 1.491 . S
C1581 C1580 1.400 . S
C1581 C1582 1.398 . S
C1582 H1570 0.950 . S
C1582 C1581 1.398 . S
C1582 C1583 1.391 . S
C1583 H1571 0.950 . S
C1583 C1579 1.393 . S
C1583 C1582 1.391 . S
H1584 C1592 0.950 . S
H1585 C1597 0.950 . S
H1586 C1594 0.950 . S
H1587 C1596 0.950 . S
H1588 C1598 0.950 . S
H1589 C1600 0.950 . S
H1590 C1602 0.950 . S
H1591 C1603 0.950 . S
C1592 H1584 0.950 . S
C1592 C1593 1.386 . S
C1592 C1594 1.391 . S
C1593 C1592 1.386 . S
C1593 C1597 1.393 . S
C1594 H1586 0.950 . S
C1594 C1592 1.391 . S
C1594 C1595 1.400 . S
C1595 C1594 1.400 . S
C1595 C1596 1.398 . S
C1595 C1601 1.491 . S
C1596 H1587 0.950 . S
C1596 C1595 1.398 . S
C1596 C1597 1.391 . S
C1597 H1585 0.950 . S
C1597 C1593 1.393 . S
C1597 C1596 1.391 . S
C1598 H1588 0.950 . S
C1598 C1599 1.386 . S
C1598 C1600 1.391 . S
C1599 C1598 1.386 . S
C1599 C1603 1.393 . S
C1600 H1589 0.950 . S
C1600 C1598 1.391 . S
C1600 C1601 1.400 . S
C1601 C1595 1.491 . S
C1601 C1600 1.400 . S
C1601 C1602 1.398 . S
C1602 H1590 0.950 . S
C1602 C1601 1.398 . S
C1602 C1603 1.391 . S
C1603 H1591 0.950 . S
C1603 C1599 1.393 . S
C1603 C1602 1.391 . S
H1604 C1612 0.950 . S
H1605 C1617 0.950 . S
H1606 C1614 0.950 . S
H1607 C1616 0.950 . S
H1608 C1618 0.950 . S
H1609 C1620 0.950 . S
H1610 C1622 0.950 . S
H1611 C1623 0.950 . S
C1612 H1604 0.950 . S
C1612 C1613 1.386 . S
C1612 C1614 1.391 . S
C1613 C1612 1.386 . S
C1613 C1617 1.393 . S
C1614 H1606 0.950 . S
C1614 C1612 1.391 . S
C1614 C1615 1.400 . S
C1615 C1614 1.400 . S
C1615 C1616 1.398 . S
C1615 C1621 1.491 . S
C1616 H1607 0.950 . S
C1616 C1615 1.398 . S
C1616 C1617 1.391 . S
C1617 H1605 0.950 . S
C1617 C1613 1.393 . S
C1617 C1616 1.391 . S
C1618 H1608 0.950 . S
C1618 C1619 1.386 . S
C1618 C1620 1.391 . S
C1619 C1618 1.386 . S
C1619 C1623 1.393 . S
C1620 H1609 0.950 . S
C1620 C1618 1.391 . S
C1620 C1621 1.400 . S
C1621 C1615 1.491 . S
C1621 C1620 1.400 . S
C1621 C1622 1.398 . S
C1622 H1610 0.950 . S
C1622 C1621 1.398 . S
C1622 C1623 1.391 . S
C1623 H1611 0.950 . S
C1623 C1619 1.393 . S
C1623 C1622 1.391 . S
H1624 C1632 0.950 . S
H1625 C1637 0.950 . S
H1626 C1634 0.950 . S
H1627 C1636 0.950 . S
H1628 C1638 0.950 . S
H1629 C1640 0.950 . S
H1630 C1642 0.950 . S
H1631 C1643 0.950 . S
C1632 H1624 0.950 . S
C1632 C1633 1.386 . S
C1632 C1634 1.391 . S
C1633 C1632 1.386 . S
C1633 C1637 1.393 . S
C1634 H1626 0.950 . S
C1634 C1632 1.391 . S
C1634 C1635 1.400 . S
C1635 C1634 1.400 . S
C1635 C1636 1.398 . S
C1635 C1641 1.491 . S
C1636 H1627 0.950 . S
C1636 C1635 1.398 . S
C1636 C1637 1.391 . S
C1637 H1625 0.950 . S
C1637 C1633 1.393 . S
C1637 C1636 1.391 . S
C1638 H1628 0.950 . S
C1638 C1639 1.386 . S
C1638 C1640 1.391 . S
C1639 C1638 1.386 . S
C1639 C1643 1.393 . S
C1640 H1629 0.950 . S
C1640 C1638 1.391 . S
C1640 C1641 1.400 . S
C1641 C1635 1.491 . S
C1641 C1640 1.400 . S
C1641 C1642 1.398 . S
C1642 H1630 0.950 . S
C1642 C1641 1.398 . S
C1642 C1643 1.391 . S
C1643 H1631 0.950 . S
C1643 C1639 1.393 . S
C1643 C1642 1.391 . S
H1644 C1652 0.950 . S
H1645 C1657 0.950 . S
H1646 C1654 0.950 . S
H1647 C1656 0.950 . S
H1648 C1658 0.950 . S
H1649 C1660 0.950 . S
H1650 C1662 0.950 . S
H1651 C1663 0.950 . S
C1652 H1644 0.950 . S
C1652 C1653 1.386 . S
C1652 C1654 1.391 . S
C1653 C1652 1.386 . S
C1653 C1657 1.393 . S
C1654 H1646 0.950 . S
C1654 C1652 1.391 . S
C1654 C1655 1.400 . S
C1655 C1654 1.400 . S
C1655 C1656 1.398 . S
C1655 C1661 1.491 . S
C1656 H1647 0.950 . S
C1656 C1655 1.398 . S
C1656 C1657 1.391 . S
C1657 H1645 0.950 . S
C1657 C1653 1.393 . S
C1657 C1656 1.391 . S
C1658 H1648 0.950 . S
C1658 C1659 1.386 . S
C1658 C1660 1.391 . S
C1659 C1658 1.386 . S
C1659 C1663 1.393 . S
C1660 H1649 0.950 . S
C1660 C1658 1.391 . S
C1660 C1661 1.400 . S
C1661 C1655 1.491 . S
C1661 C1660 1.400 . S
C1661 C1662 1.398 . S
C1662 H1650 0.950 . S
C1662 C1661 1.398 . S
C1662 C1663 1.391 . S
C1663 H1651 0.950 . S
C1663 C1659 1.393 . S
C1663 C1662 1.391 . S
H1664 C1672 0.950 . S
H1665 C1677 0.950 . S
H1666 C1674 0.950 . S
H1667 C1676 0.950 . S
H1668 C1678 0.950 . S
H1669 C1680 0.950 . S
H1670 C1682 0.950 . S
H1671 C1683 0.950 . S
C1672 H1664 0.950 . S
C1672 C1673 1.386 . S
C1672 C1674 1.391 . S
C1673 C1672 1.386 . S
C1673 C1677 1.393 . S
C1674 H1666 0.950 . S
C1674 C1672 1.391 . S
C1674 C1675 1.400 . S
C1675 C1674 1.400 . S
C1675 C1676 1.398 . S
C1675 C1681 1.491 . S
C1676 H1667 0.950 . S
C1676 C1675 1.398 . S
C1676 C1677 1.391 . S
C1677 H1665 0.950 . S
C1677 C1673 1.393 . S
C1677 C1676 1.391 . S
C1678 H1668 0.950 . S
C1678 C1679 1.386 . S
C1678 C1680 1.391 . S
C1679 C1678 1.386 . S
C1679 C1683 1.393 . S
C1680 H1669 0.950 . S
C1680 C1678 1.391 . S
C1680 C1681 1.400 . S
C1681 C1675 1.491 . S
C1681 C1680 1.400 . S
C1681 C1682 1.398 . S
C1682 H1670 0.950 . S
C1682 C1681 1.398 . S
C1682 C1683 1.391 . S
C1683 H1671 0.950 . S
C1683 C1679 1.393 . S
C1683 C1682 1.391 . S
H1684 C1692 0.950 . S
H1685 C1697 0.950 . S
H1686 C1694 0.950 . S
H1687 C1696 0.950 . S
H1688 C1698 0.950 . S
H1689 C1700 0.950 . S
H1690 C1702 0.950 . S
H1691 C1703 0.950 . S
C1692 H1684 0.950 . S
C1692 C1693 1.386 . S
C1692 C1694 1.391 . S
C1693 C1692 1.386 . S
C1693 C1697 1.393 . S
C1694 H1686 0.950 . S
C1694 C1692 1.391 . S
C1694 C1695 1.400 . S
C1695 C1694 1.400 . S
C1695 C1696 1.398 . S
C1695 C1701 1.491 . S
C1696 H1687 0.950 . S
C1696 C1695 1.398 . S
C1696 C1697 1.391 . S
C1697 H1685 0.950 . S
C1697 C1693 1.393 . S
C1697 C1696 1.391 . S
C1698 H1688 0.950 . S
C1698 C1699 1.386 . S
C1698 C1700 1.391 . S
C1699 C1698 1.386 . S
C1699 C1703 1.393 . S
C1700 H1689 0.950 . S
C1700 C1698 1.391 . S
C1700 C1701 1.400 . S
C1701 C1695 1.491 . S
C1701 C1700 1.400 . S
C1701 C1702 1.398 . S
C1702 H1690 0.950 . S
C1702 C1701 1.398 . S
C1702 C1703 1.391 . S
C1703 H1691 0.950 . S
C1703 C1699 1.393 . S
C1703 C1702 1.391 . S
H1704 C1712 0.950 . S
H1705 C1717 0.950 . S
H1706 C1714 0.950 . S
H1707 C1716 0.950 . S
H1708 C1718 0.950 . S
H1709 C1720 0.950 . S
H1710 C1722 0.950 . S
H1711 C1723 0.950 . S
C1712 H1704 0.950 . S
C1712 C1713 1.386 . S
C1712 C1714 1.391 . S
C1713 C1712 1.386 . S
C1713 C1717 1.393 . S
C1714 H1706 0.950 . S
C1714 C1712 1.391 . S
C1714 C1715 1.400 . S
C1715 C1714 1.400 . S
C1715 C1716 1.398 . S
C1715 C1721 1.491 . S
C1716 H1707 0.950 . S
C1716 C1715 1.398 . S
C1716 C1717 1.391 . S
C1717 H1705 0.950 . S
C1717 C1713 1.393 . S
C1717 C1716 1.391 . S
C1718 H1708 0.950 . S
C1718 C1719 1.386 . S
C1718 C1720 1.391 . S
C1719 C1718 1.386 . S
C1719 C1723 1.393 . S
C1720 H1709 0.950 . S
C1720 C1718 1.391 . S
C1720 C1721 1.400 . S
C1721 C1715 1.491 . S
C1721 C1720 1.400 . S
C1721 C1722 1.398 . S
C1722 H1710 0.950 . S
C1722 C1721 1.398 . S
C1722 C1723 1.391 . S
C1723 H1711 0.950 . S
C1723 C1719 1.393 . S
C1723 C1722 1.391 . S
H1724 C1732 0.950 . S
H1725 C1737 0.950 . S
H1726 C1734 0.950 . S
H1727 C1736 0.950 . S
H1728 C1738 0.950 . S
H1729 C1740 0.950 . S
H1730 C1742 0.950 . S
H1731 C1743 0.950 . S
C1732 H1724 0.950 . S
C1732 C1733 1.386 . S
C1732 C1734 1.391 . S
C1733 C1732 1.386 . S
C1733 C1737 1.393 . S
C1734 H1726 0.950 . S
C1734 C1732 1.391 . S
C1734 C1735 1.400 . S
C1735 C1734 1.400 . S
C1735 C1736 1.398 . S
C1735 C1741 1.491 . S
C1736 H1727 0.950 . S
C1736 C1735 1.398 . S
C1736 C1737 1.391 . S
C1737 H1725 0.950 . S
C1737 C1733 1.393 . S
C1737 C1736 1.391 . S
C1738 H1728 0.950 . S
C1738 C1739 1.386 . S
C1738 C1740 1.391 . S
C1739 C1738 1.386 . S
C1739 C1743 1.393 . S
C1740 H1729 0.950 . S
C1740 C1738 1.391 . S
C1740 C1741 1.400 . S
C1741 C1735 1.491 . S
C1741 C1740 1.400 . S
C1741 C1742 1.398 . S
C1742 H1730 0.950 . S
C1742 C1741 1.398 . S
C1742 C1743 1.391 . S
C1743 H1731 0.950 . S
C1743 C1739 1.393 . S
C1743 C1742 1.391 . S
H1744 C1752 0.950 . S
H1745 C1757 0.950 . S
H1746 C1754 0.950 . S
H1747 C1756 0.950 . S
H1748 C1758 0.950 . S
H1749 C1760 0.950 . S
H1750 C1762 0.950 . S
H1751 C1763 0.950 . S
C1752 H1744 0.950 . S
C1752 C1753 1.386 . S
C1752 C1754 1.391 . S
C1753 C1752 1.386 . S
C1753 C1757 1.393 . S
C1754 H1746 0.950 . S
C1754 C1752 1.391 . S
C1754 C1755 1.400 . S
C1755 C1754 1.400 . S
C1755 C1756 1.398 . S
C1755 C1761 1.491 . S
C1756 H1747 0.950 . S
C1756 C1755 1.398 . S
C1756 C1757 1.391 . S
C1757 H1745 0.950 . S
C1757 C1753 1.393 . S
C1757 C1756 1.391 . S
C1758 H1748 0.950 . S
C1758 C1759 1.386 . S
C1758 C1760 1.391 . S
C1759 C1758 1.386 . S
C1759 C1763 1.393 . S
C1760 H1749 0.950 . S
C1760 C1758 1.391 . S
C1760 C1761 1.400 . S
C1761 C1755 1.491 . S
C1761 C1760 1.400 . S
C1761 C1762 1.398 . S
C1762 H1750 0.950 . S
C1762 C1761 1.398 . S
C1762 C1763 1.391 . S
C1763 H1751 0.950 . S
C1763 C1759 1.393 . S
C1763 C1762 1.391 . S
H1764 C1772 0.950 . S
H1765 C1777 0.950 . S
H1766 C1774 0.950 . S
H1767 C1776 0.950 . S
H1768 C1778 0.950 . S
H1769 C1780 0.950 . S
H1770 C1782 0.950 . S
H1771 C1783 0.950 . S
C1772 H1764 0.950 . S
C1772 C1773 1.386 . S
C1772 C1774 1.391 . S
C1773 C1772 1.386 . S
C1773 C1777 1.393 . S
C1774 H1766 0.950 . S
C1774 C1772 1.391 . S
C1774 C1775 1.400 . S
C1775 C1774 1.400 . S
C1775 C1776 1.398 . S
C1775 C1781 1.491 . S
C1776 H1767 0.950 . S
C1776 C1775 1.398 . S
C1776 C1777 1.391 . S
C1777 H1765 0.950 . S
C1777 C1773 1.393 . S
C1777 C1776 1.391 . S
C1778 H1768 0.950 . S
C1778 C1779 1.386 . S
C1778 C1780 1.391 . S
C1779 C1778 1.386 . S
C1779 C1783 1.393 . S
C1780 H1769 0.950 . S
C1780 C1778 1.391 . S
C1780 C1781 1.400 . S
C1781 C1775 1.491 . S
C1781 C1780 1.400 . S
C1781 C1782 1.398 . S
C1782 H1770 0.950 . S
C1782 C1781 1.398 . S
C1782 C1783 1.391 . S
C1783 H1771 0.950 . S
C1783 C1779 1.393 . S
C1783 C1782 1.391 . S
H1784 C1792 0.950 . S
H1785 C1797 0.950 . S
H1786 C1794 0.950 . S
H1787 C1796 0.950 . S
H1788 C1798 0.950 . S
H1789 C1800 0.950 . S
H1790 C1802 0.950 . S
H1791 C1803 0.950 . S
C1792 H1784 0.950 . S
C1792 C1793 1.386 . S
C1792 C1794 1.391 . S
C1793 C1792 1.386 . S
C1793 C1797 1.393 . S
C1794 H1786 0.950 . S
C1794 C1792 1.391 . S
C1794 C1795 1.400 . S
C1795 C1794 1.400 . S
C1795 C1796 1.398 . S
C1795 C1801 1.491 . S
C1796 H1787 0.950 . S
C1796 C1795 1.398 . S
C1796 C1797 1.391 . S
C1797 H1785 0.950 . S
C1797 C1793 1.393 . S
C1797 C1796 1.391 . S
C1798 H1788 0.950 . S
C1798 C1799 1.386 . S
C1798 C1800 1.391 . S
C1799 C1798 1.386 . S
C1799 C1803 1.393 . S
C1800 H1789 0.950 . S
C1800 C1798 1.391 . S
C1800 C1801 1.400 . S
C1801 C1795 1.491 . S
C1801 C1800 1.400 . S
C1801 C1802 1.398 . S
C1802 H1790 0.950 . S
C1802 C1801 1.398 . S
C1802 C1803 1.391 . S
C1803 H1791 0.950 . S
C1803 C1799 1.393 . S
C1803 C1802 1.391 . S
H1804 C1812 0.950 . S
H1805 C1817 0.950 . S
H1806 C1814 0.950 . S
H1807 C1816 0.950 . S
H1808 C1818 0.950 . S
H1809 C1820 0.950 . S
H1810 C1822 0.950 . S
H1811 C1823 0.950 . S
C1812 H1804 0.950 . S
C1812 C1813 1.386 . S
C1812 C1814 1.391 . S
C1813 C1812 1.386 . S
C1813 C1817 1.393 . S
C1814 H1806 0.950 . S
C1814 C1812 1.391 . S
C1814 C1815 1.400 . S
C1815 C1814 1.400 . S
C1815 C1816 1.398 . S
C1815 C1821 1.491 . S
C1816 H1807 0.950 . S
C1816 C1815 1.398 . S
C1816 C1817 1.391 . S
C1817 H1805 0.950 . S
C1817 C1813 1.393 . S
C1817 C1816 1.391 . S
C1818 H1808 0.950 . S
C1818 C1819 1.386 . S
C1818 C1820 1.391 . S
C1819 C1818 1.386 . S
C1819 C1823 1.393 . S
C1820 H1809 0.950 . S
C1820 C1818 1.391 . S
C1820 C1821 1.400 . S
C1821 C1815 1.491 . S
C1821 C1820 1.400 . S
C1821 C1822 1.398 . S
C1822 H1810 0.950 . S
C1822 C1821 1.398 . S
C1822 C1823 1.391 . S
C1823 H1811 0.950 . S
C1823 C1819 1.393 . S
C1823 C1822 1.391 . S
H1824 C1832 0.950 . S
H1825 C1837 0.950 . S
H1826 C1834 0.950 . S
H1827 C1836 0.950 . S
H1828 C1838 0.950 . S
H1829 C1840 0.950 . S
H1830 C1842 0.950 . S
H1831 C1843 0.950 . S
C1832 H1824 0.950 . S
C1832 C1833 1.386 . S
C1832 C1834 1.391 . S
C1833 C1832 1.386 . S
C1833 C1837 1.393 . S
C1834 H1826 0.950 . S
C1834 C1832 1.391 . S
C1834 C1835 1.400 . S
C1835 C1834 1.400 . S
C1835 C1836 1.398 . S
C1835 C1841 1.491 . S
C1836 H1827 0.950 . S
C1836 C1835 1.398 . S
C1836 C1837 1.391 . S
C1837 H1825 0.950 . S
C1837 C1833 1.393 . S
C1837 C1836 1.391 . S
C1838 H1828 0.950 . S
C1838 C1839 1.386 . S
C1838 C1840 1.391 . S
C1839 C1838 1.386 . S
C1839 C1843 1.393 . S
C1840 H1829 0.950 . S
C1840 C1838 1.391 . S
C1840 C1841 1.400 . S
C1841 C1835 1.491 . S
C1841 C1840 1.400 . S
C1841 C1842 1.398 . S
C1842 H1830 0.950 . S
C1842 C1841 1.398 . S
C1842 C1843 1.391 . S
C1843 H1831 0.950 . S
C1843 C1839 1.393 . S
C1843 C1842 1.391 . S
H1844 C1852 0.950 . S
H1845 C1857 0.950 . S
H1846 C1854 0.950 . S
H1847 C1856 0.950 . S
H1848 C1858 0.950 . S
H1849 C1860 0.950 . S
H1850 C1862 0.950 . S
H1851 C1863 0.950 . S
C1852 H1844 0.950 . S
C1852 C1853 1.386 . S
C1852 C1854 1.391 . S
C1853 C1852 1.386 . S
C1853 C1857 1.393 . S
C1854 H1846 0.950 . S
C1854 C1852 1.391 . S
C1854 C1855 1.400 . S
C1855 C1854 1.400 . S
C1855 C1856 1.398 . S
C1855 C1861 1.491 . S
C1856 H1847 0.950 . S
C1856 C1855 1.398 . S
C1856 C1857 1.391 . S
C1857 H1845 0.950 . S
C1857 C1853 1.393 . S
C1857 C1856 1.391 . S
C1858 H1848 0.950 . S
C1858 C1859 1.386 . S
C1858 C1860 1.391 . S
C1859 C1858 1.386 . S
C1859 C1863 1.393 . S
C1860 H1849 0.950 . S
C1860 C1858 1.391 . S
C1860 C1861 1.400 . S
C1861 C1855 1.491 . S
C1861 C1860 1.400 . S
C1861 C1862 1.398 . S
C1862 H1850 0.950 . S
C1862 C1861 1.398 . S
C1862 C1863 1.391 . S
C1863 H1851 0.950 . S
C1863 C1859 1.393 . S
C1863 C1862 1.391 . S
H1864 C1872 0.950 . S
H1865 C1877 0.950 . S
H1866 C1874 0.950 . S
H1867 C1876 0.950 . S
H1868 C1878 0.950 . S
H1869 C1880 0.950 . S
H1870 C1882 0.950 . S
H1871 C1883 0.950 . S
C1872 H1864 0.950 . S
C1872 C1873 1.386 . S
C1872 C1874 1.391 . S
C1873 C1872 1.386 . S
C1873 C1877 1.393 . S
C1874 H1866 0.950 . S
C1874 C1872 1.391 . S
C1874 C1875 1.400 . S
C1875 C1874 1.400 . S
C1875 C1876 1.398 . S
C1875 C1881 1.491 . S
C1876 H1867 0.950 . S
C1876 C1875 1.398 . S
C1876 C1877 1.391 . S
C1877 H1865 0.950 . S
C1877 C1873 1.393 . S
C1877 C1876 1.391 . S
C1878 H1868 0.950 . S
C1878 C1879 1.386 . S
C1878 C1880 1.391 . S
C1879 C1878 1.386 . S
C1879 C1883 1.393 . S
C1880 H1869 0.950 . S
C1880 C1878 1.391 . S
C1880 C1881 1.400 . S
C1881 C1875 1.491 . S
C1881 C1880 1.400 . S
C1881 C1882 1.398 . S
C1882 H1870 0.950 . S
C1882 C1881 1.398 . S
C1882 C1883 1.391 . S
C1883 H1871 0.950 . S
C1883 C1879 1.393 . S
C1883 C1882 1.391 . S
H1884 C1892 0.950 . S
H1885 C1897 0.950 . S
H1886 C1894 0.950 . S
H1887 C1896 0.950 . S
H1888 C1898 0.950 . S
H1889 C1900 0.950 . S
H1890 C1902 0.950 . S
H1891 C1903 0.950 . S
C1892 H1884 0.950 . S
C1892 C1893 1.386 . S
C1892 C1894 1.391 . S
C1893 C1892 1.386 . S
C1893 C1897 1.393 . S
C1894 H1886 0.950 . S
C1894 C1892 1.391 . S
C1894 C1895 1.400 . S
C1895 C1894 1.400 . S
C1895 C1896 1.398 . S
C1895 C1901 1.491 . S
C1896 H1887 0.950 . S
C1896 C1895 1.398 . S
C1896 C1897 1.391 . S
C1897 H1885 0.950 . S
C1897 C1893 1.393 . S
C1897 C1896 1.391 . S
C1898 H1888 0.950 . S
C1898 C1899 1.386 . S
C1898 C1900 1.391 . S
C1899 C1898 1.386 . S
C1899 C1903 1.393 . S
C1900 H1889 0.950 . S
C1900 C1898 1.391 . S
C1900 C1901 1.400 . S
C1901 C1895 1.491 . S
C1901 C1900 1.400 . S
C1901 C1902 1.398 . S
C1902 H1890 0.950 . S
C1902 C1901 1.398 . S
C1902 C1903 1.391 . S
C1903 H1891 0.950 . S
C1903 C1899 1.393 . S
C1903 C1902 1.391 . S
H1904 C1912 0.950 . S
H1905 C1917 0.950 . S
H1906 C1914 0.950 . S
H1907 C1916 0.950 . S
H1908 C1918 0.950 . S
H1909 C1920 0.950 . S
H1910 C1922 0.950 . S
H1911 C1923 0.950 . S
C1912 H1904 0.950 . S
C1912 C1913 1.386 . S
C1912 C1914 1.391 . S
C1913 C1912 1.386 . S
C1913 C1917 1.393 . S
C1914 H1906 0.950 . S
C1914 C1912 1.391 . S
C1914 C1915 1.400 . S
C1915 C1914 1.400 . S
C1915 C1916 1.398 . S
C1915 C1921 1.491 . S
C1916 H1907 0.950 . S
C1916 C1915 1.398 . S
C1916 C1917 1.391 . S
C1917 H1905 0.950 . S
C1917 C1913 1.393 . S
C1917 C1916 1.391 . S
C1918 H1908 0.950 . S
C1918 C1919 1.386 . S
C1918 C1920 1.391 . S
C1919 C1918 1.386 . S
C1919 C1923 1.393 . S
C1920 H1909 0.950 . S
C1920 C1918 1.391 . S
C1920 C1921 1.400 . S
C1921 C1915 1.491 . S
C1921 C1920 1.400 . S
C1921 C1922 1.398 . S
C1922 H1910 0.950 . S
C1922 C1921 1.398 . S
C1922 C1923 1.391 . S
C1923 H1911 0.950 . S
C1923 C1919 1.393 . S
C1923 C1922 1.391 . S
H1924 C1932 0.950 . S
H1925 C1937 0.950 . S
H1926 C1934 0.950 . S
H1927 C1936 0.950 . S
H1928 C1938 0.950 . S
H1929 C1940 0.950 . S
H1930 C1942 0.950 . S
H1931 C1943 0.950 . S
C1932 H1924 0.950 . S
C1932 C1933 1.386 . S
C1932 C1934 1.391 . S
C1933 C1932 1.386 . S
C1933 C1937 1.393 . S
C1934 H1926 0.950 . S
C1934 C1932 1.391 . S
C1934 C1935 1.400 . S
C1935 C1934 1.400 . S
C1935 C1936 1.398 . S
C1935 C1941 1.491 . S
C1936 H1927 0.950 . S
C1936 C1935 1.398 . S
C1936 C1937 1.391 . S
C1937 H1925 0.950 . S
C1937 C1933 1.393 . S
C1937 C1936 1.391 . S
C1938 H1928 0.950 . S
C1938 C1939 1.386 . S
C1938 C1940 1.391 . S
C1939 C1938 1.386 . S
C1939 C1943 1.393 . S
C1940 H1929 0.950 . S
C1940 C1938 1.391 . S
C1940 C1941 1.400 . S
C1941 C1935 1.491 . S
C1941 C1940 1.400 . S
C1941 C1942 1.398 . S
C1942 H1930 0.950 . S
C1942 C1941 1.398 . S
C1942 C1943 1.391 . S
C1943 H1931 0.950 . S
C1943 C1939 1.393 . S
C1943 C1942 1.391 . S
H1944 C1952 0.950 . S
H1945 C1957 0.950 . S
H1946 C1954 0.950 . S
H1947 C1956 0.950 . S
H1948 C1958 0.950 . S
H1949 C1960 0.950 . S
H1950 C1962 0.950 . S
H1951 C1963 0.950 . S
C1952 H1944 0.950 . S
C1952 C1953 1.386 . S
C1952 C1954 1.391 . S
C1953 C1952 1.386 . S
C1953 C1957 1.393 . S
C1954 H1946 0.950 . S
C1954 C1952 1.391 . S
C1954 C1955 1.400 . S
C1955 C1954 1.400 . S
C1955 C1956 1.398 . S
C1955 C1961 1.491 . S
C1956 H1947 0.950 . S
C1956 C1955 1.398 . S
C1956 C1957 1.391 . S
C1957 H1945 0.950 . S
C1957 C1953 1.393 . S
C1957 C1956 1.391 . S
C1958 H1948 0.950 . S
C1958 C1959 1.386 . S
C1958 C1960 1.391 . S
C1959 C1958 1.386 . S
C1959 C1963 1.393 . S
C1960 H1949 0.950 . S
C1960 C1958 1.391 . S
C1960 C1961 1.400 . S
C1961 C1955 1.491 . S
C1961 C1960 1.400 . S
C1961 C1962 1.398 . S
C1962 H1950 0.950 . S
C1962 C1961 1.398 . S
C1962 C1963 1.391 . S
C1963 H1951 0.950 . S
C1963 C1959 1.393 . S
C1963 C1962 1.391 . S
H1964 C1972 0.950 . S
H1965 C1977 0.950 . S
H1966 C1974 0.950 . S
H1967 C1976 0.950 . S
H1968 C1978 0.950 . S
H1969 C1980 0.950 . S
H1970 C1982 0.950 . S
H1971 C1983 0.950 . S
C1972 H1964 0.950 . S
C1972 C1973 1.386 . S
C1972 C1974 1.391 . S
C1973 C1972 1.386 . S
C1973 C1977 1.393 . S
C1974 H1966 0.950 . S
C1974 C1972 1.391 . S
C1974 C1975 1.400 . S
C1975 C1974 1.400 . S
C1975 C1976 1.398 . S
C1975 C1981 1.491 . S
C1976 H1967 0.950 . S
C1976 C1975 1.398 . S
C1976 C1977 1.391 . S
C1977 H1965 0.950 . S
C1977 C1973 1.393 . S
C1977 C1976 1.391 . S
C1978 H1968 0.950 . S
C1978 C1979 1.386 . S
C1978 C1980 1.391 . S
C1979 C1978 1.386 . S
C1979 C1983 1.393 . S
C1980 H1969 0.950 . S
C1980 C1978 1.391 . S
C1980 C1981 1.400 . S
C1981 C1975 1.491 . S
C1981 C1980 1.400 . S
C1981 C1982 1.398 . S
C1982 H1970 0.950 . S
C1982 C1981 1.398 . S
C1982 C1983 1.391 . S
C1983 H1971 0.950 . S
C1983 C1979 1.393 . S
C1983 C1982 1.391 . S
H1984 C1992 0.950 . S
H1985 C1997 0.950 . S
H1986 C1994 0.950 . S
H1987 C1996 0.950 . S
H1988 C1998 0.950 . S
H1989 C2000 0.950 . S
H1990 C2002 0.950 . S
H1991 C2003 0.950 . S
C1992 H1984 0.950 . S
C1992 C1993 1.386 . S
C1992 C1994 1.391 . S
C1993 C1992 1.386 . S
C1993 C1997 1.393 . S
C1994 H1986 0.950 . S
C1994 C1992 1.391 . S
C1994 C1995 1.400 . S
C1995 C1994 1.400 . S
C1995 C1996 1.398 . S
C1995 C2001 1.491 . S
C1996 H1987 0.950 . S
C1996 C1995 1.398 . S
C1996 C1997 1.391 . S
C1997 H1985 0.950 . S
C1997 C1993 1.393 . S
C1997 C1996 1.391 . S
C1998 H1988 0.950 . S
C1998 C1999 1.386 . S
C1998 C2000 1.391 . S
C1999 C1998 1.386 . S
C1999 C2003 1.393 . S
C2000 H1989 0.950 . S
C2000 C1998 1.391 . S
C2000 C2001 1.400 . S
C2001 C1995 1.491 . S
C2001 C2000 1.400 . S
C2001 C2002 1.398 . S
C2002 H1990 0.950 . S
C2002 C2001 1.398 . S
C2002 C2003 1.391 . S
C2003 H1991 0.950 . S
C2003 C1999 1.393 . S
C2003 C2002 1.391 . S
H2004 C2012 0.950 . S
H2005 C2017 0.950 . S
H2006 C2014 0.950 . S
H2007 C2016 0.950 . S
H2008 C2018 0.950 . S
H2009 C2020 0.950 . S
H2010 C2022 0.950 . S
H2011 C2023 0.950 . S
C2012 H2004 0.950 . S
C2012 C2013 1.386 . S
C2012 C2014 1.391 . S
C2013 C2012 1.386 . S
C2013 C2017 1.393 . S
C2014 H2006 0.950 . S
C2014 C2012 1.391 . S
C2014 C2015 1.400 . S
C2015 C2014 1.400 . S
C2015 C2016 1.398 . S
C2015 C2021 1.491 . S
C2016 H2007 0.950 . S
C2016 C2015 1.398 . S
C2016 C2017 1.391 . S
C2017 H2005 0.950 . S
C2017 C2013 1.393 . S
C2017 C2016 1.391 . S
C2018 H2008 0.950 . S
C2018 C2019 1.386 . S
C2018 C2020 1.391 . S
C2019 C2018 1.386 . S
C2019 C2023 1.393 . S
C2020 H2009 0.950 . S
C2020 C2018 1.391 . S
C2020 C2021 1.400 . S
C2021 C2015 1.491 . S
C2021 C2020 1.400 . S
C2021 C2022 1.398 . S
C2022 H2010 0.950 . S
C2022 C2021 1.398 . S
C2022 C2023 1.391 . S
C2023 H2011 0.950 . S
C2023 C2019 1.393 . S
C2023 C2022 1.391 . S
H2024 C2032 0.950 . S
H2025 C2037 0.950 . S
H2026 C2034 0.950 . S
H2027 C2036 0.950 . S
H2028 C2038 0.950 . S
H2029 C2040 0.950 . S
H2030 C2042 0.950 . S
H2031 C2043 0.950 . S
C2032 H2024 0.950 . S
C2032 C2033 1.386 . S
C2032 C2034 1.391 . S
C2033 C2032 1.386 . S
C2033 C2037 1.393 . S
C2034 H2026 0.950 . S
C2034 C2032 1.391 . S
C2034 C2035 1.400 . S
C2035 C2034 1.400 . S
C2035 C2036 1.398 . S
C2035 C2041 1.491 . S
C2036 H2027 0.950 . S
C2036 C2035 1.398 . S
C2036 C2037 1.391 . S
C2037 H2025 0.950 . S
C2037 C2033 1.393 . S
C2037 C2036 1.391 . S
C2038 H2028 0.950 . S
C2038 C2039 1.386 . S
C2038 C2040 1.391 . S
C2039 C2038 1.386 . S
C2039 C2043 1.393 . S
C2040 H2029 0.950 . S
C2040 C2038 1.391 . S
C2040 C2041 1.400 . S
C2041 C2035 1.491 . S
C2041 C2040 1.400 . S
C2041 C2042 1.398 . S
C2042 H2030 0.950 . S
C2042 C2041 1.398 . S
C2042 C2043 1.391 . S
C2043 H2031 0.950 . S
C2043 C2039 1.393 . S
C2043 C2042 1.391 . S
H2044 C2052 0.950 . S
H2045 C2057 0.950 . S
H2046 C2054 0.950 . S
H2047 C2056 0.950 . S
H2048 C2058 0.950 . S
H2049 C2060 0.950 . S
H2050 C2062 0.950 . S
H2051 C2063 0.950 . S
C2052 H2044 0.950 . S
C2052 C2053 1.386 . S
C2052 C2054 1.391 . S
C2053 C2052 1.386 . S
C2053 C2057 1.393 . S
C2054 H2046 0.950 . S
C2054 C2052 1.391 . S
C2054 C2055 1.400 . S
C2055 C2054 1.400 . S
C2055 C2056 1.398 . S
C2055 C2061 1.491 . S
C2056 H2047 0.950 . S
C2056 C2055 1.398 . S
C2056 C2057 1.391 . S
C2057 H2045 0.950 . S
C2057 C2053 1.393 . S
C2057 C2056 1.391 . S
C2058 H2048 0.950 . S
C2058 C2059 1.386 . S
C2058 C2060 1.391 . S
C2059 C2058 1.386 . S
C2059 C2063 1.393 . S
C2060 H2049 0.950 . S
C2060 C2058 1.391 . S
C2060 C2061 1.400 . S
C2061 C2055 1.491 . S
C2061 C2060 1.400 . S
C2061 C2062 1.398 . S
C2062 H2050 0.950 . S
C2062 C2061 1.398 . S
C2062 C2063 1.391 . S
C2063 H2051 0.950 . S
C2063 C2059 1.393 . S
C2063 C2062 1.391 . S
H2064 C2072 0.950 . S
H2065 C2077 0.950 . S
H2066 C2074 0.950 . S
H2067 C2076 0.950 . S
H2068 C2078 0.950 . S
H2069 C2080 0.950 . S
H2070 C2082 0.950 . S
H2071 C2083 0.950 . S
C2072 H2064 0.950 . S
C2072 C2073 1.386 . S
C2072 C2074 1.391 . S
C2073 C2072 1.386 . S
C2073 C2077 1.393 . S
C2074 H2066 0.950 . S
C2074 C2072 1.391 . S
C2074 C2075 1.400 . S
C2075 C2074 1.400 . S
C2075 C2076 1.398 . S
C2075 C2081 1.491 . S
C2076 H2067 0.950 . S
C2076 C2075 1.398 . S
C2076 C2077 1.391 . S
C2077 H2065 0.950 . S
C2077 C2073 1.393 . S
C2077 C2076 1.391 . S
C2078 H2068 0.950 . S
C2078 C2079 1.386 . S
C2078 C2080 1.391 . S
C2079 C2078 1.386 . S
C2079 C2083 1.393 . S
C2080 H2069 0.950 . S
C2080 C2078 1.391 . S
C2080 C2081 1.400 . S
C2081 C2075 1.491 . S
C2081 C2080 1.400 . S
C2081 C2082 1.398 . S
C2082 H2070 0.950 . S
C2082 C2081 1.398 . S
C2082 C2083 1.391 . S
C2083 H2071 0.950 . S
C2083 C2079 1.393 . S
C2083 C2082 1.391 . S
H2084 C2092 0.950 . S
H2085 C2097 0.950 . S
H2086 C2094 0.950 . S
H2087 C2096 0.950 . S
H2088 C2098 0.950 . S
H2089 C2100 0.950 . S
H2090 C2102 0.950 . S
H2091 C2103 0.950 . S
C2092 H2084 0.950 . S
C2092 C2093 1.386 . S
C2092 C2094 1.391 . S
C2093 C2092 1.386 . S
C2093 C2097 1.393 . S
C2094 H2086 0.950 . S
C2094 C2092 1.391 . S
C2094 C2095 1.400 . S
C2095 C2094 1.400 . S
C2095 C2096 1.398 . S
C2095 C2101 1.491 . S
C2096 H2087 0.950 . S
C2096 C2095 1.398 . S
C2096 C2097 1.391 . S
C2097 H2085 0.950 . S
C2097 C2093 1.393 . S
C2097 C2096 1.391 . S
C2098 H2088 0.950 . S
C2098 C2099 1.386 . S
C2098 C2100 1.391 . S
C2099 C2098 1.386 . S
C2099 C2103 1.393 . S
C2100 H2089 0.950 . S
C2100 C2098 1.391 . S
C2100 C2101 1.400 . S
C2101 C2095 1.491 . S
C2101 C2100 1.400 . S
C2101 C2102 1.398 . S
C2102 H2090 0.950 . S
C2102 C2101 1.398 . S
C2102 C2103 1.391 . S
C2103 H2091 0.950 . S
C2103 C2099 1.393 . S
C2103 C2102 1.391 . S
H2104 C2112 0.950 . S
H2105 C2117 0.950 . S
H2106 C2114 0.950 . S
H2107 C2116 0.950 . S
H2108 C2118 0.950 . S
H2109 C2120 0.950 . S
H2110 C2122 0.950 . S
H2111 C2123 0.950 . S
C2112 H2104 0.950 . S
C2112 C2113 1.386 . S
C2112 C2114 1.391 . S
C2113 C2112 1.386 . S
C2113 C2117 1.393 . S
C2114 H2106 0.950 . S
C2114 C2112 1.391 . S
C2114 C2115 1.400 . S
C2115 C2114 1.400 . S
C2115 C2116 1.398 . S
C2115 C2121 1.491 . S
C2116 H2107 0.950 . S
C2116 C2115 1.398 . S
C2116 C2117 1.391 . S
C2117 H2105 0.950 . S
C2117 C2113 1.393 . S
C2117 C2116 1.391 . S
C2118 H2108 0.950 . S
C2118 C2119 1.386 . S
C2118 C2120 1.391 . S
C2119 C2118 1.386 . S
C2119 C2123 1.393 . S
C2120 H2109 0.950 . S
C2120 C2118 1.391 . S
C2120 C2121 1.400 . S
C2121 C2115 1.491 . S
C2121 C2120 1.400 . S
C2121 C2122 1.398 . S
C2122 H2110 0.950 . S
C2122 C2121 1.398 . S
C2122 C2123 1.391 . S
C2123 H2111 0.950 . S
C2123 C2119 1.393 . S
C2123 C2122 1.391 . S
H2124 C2132 0.950 . S
H2125 C2137 0.950 . S
H2126 C2134 0.950 . S
H2127 C2136 0.950 . S
H2128 C2138 0.950 . S
H2129 C2140 0.950 . S
H2130 C2142 0.950 . S
H2131 C2143 0.950 . S
C2132 H2124 0.950 . S
C2132 C2133 1.386 . S
C2132 C2134 1.391 . S
C2133 C2132 1.386 . S
C2133 C2137 1.393 . S
C2134 H2126 0.950 . S
C2134 C2132 1.391 . S
C2134 C2135 1.400 . S
C2135 C2134 1.400 . S
C2135 C2136 1.398 . S
C2135 C2141 1.491 . S
C2136 H2127 0.950 . S
C2136 C2135 1.398 . S
C2136 C2137 1.391 . S
C2137 H2125 0.950 . S
C2137 C2133 1.393 . S
C2137 C2136 1.391 . S
C2138 H2128 0.950 . S
C2138 C2139 1.386 . S
C2138 C2140 1.391 . S
C2139 C2138 1.386 . S
C2139 C2143 1.393 . S
C2140 H2129 0.950 . S
C2140 C2138 1.391 . S
C2140 C2141 1.400 . S
C2141 C2135 1.491 . S
C2141 C2140 1.400 . S
C2141 C2142 1.398 . S
C2142 H2130 0.950 . S
C2142 C2141 1.398 . S
C2142 C2143 1.391 . S
C2143 H2131 0.950 . S
C2143 C2139 1.393 . S
C2143 C2142 1.391 . S
H2144 C2152 0.950 . S
H2145 C2157 0.950 . S
H2146 C2154 0.950 . S
H2147 C2156 0.950 . S
H2148 C2158 0.950 . S
H2149 C2160 0.950 . S
H2150 C2162 0.950 . S
H2151 C2163 0.950 . S
C2152 H2144 0.950 . S
C2152 C2153 1.386 . S
C2152 C2154 1.391 . S
C2153 C2152 1.386 . S
C2153 C2157 1.393 . S
C2154 H2146 0.950 . S
C2154 C2152 1.391 . S
C2154 C2155 1.400 . S
C2155 C2154 1.400 . S
C2155 C2156 1.398 . S
C2155 C2161 1.491 . S
C2156 H2147 0.950 . S
C2156 C2155 1.398 . S
C2156 C2157 1.391 . S
C2157 H2145 0.950 . S
C2157 C2153 1.393 . S
C2157 C2156 1.391 . S
C2158 H2148 0.950 . S
C2158 C2159 1.386 . S
C2158 C2160 1.391 . S
C2159 C2158 1.386 . S
C2159 C2163 1.393 . S
C2160 H2149 0.950 . S
C2160 C2158 1.391 . S
C2160 C2161 1.400 . S
C2161 C2155 1.491 . S
C2161 C2160 1.400 . S
C2161 C2162 1.398 . S
C2162 H2150 0.950 . S
C2162 C2161 1.398 . S
C2162 C2163 1.391 . S
C2163 H2151 0.950 . S
C2163 C2159 1.393 . S
C2163 C2162 1.391 . S
H2164 C2172 0.950 . S
H2165 C2177 0.950 . S
H2166 C2174 0.950 . S
H2167 C2176 0.950 . S
H2168 C2178 0.950 . S
H2169 C2180 0.950 . S
H2170 C2182 0.950 . S
H2171 C2183 0.950 . S
C2172 H2164 0.950 . S
C2172 C2173 1.386 . S
C2172 C2174 1.391 . S
C2173 C2172 1.386 . S
C2173 C2177 1.393 . S
C2174 H2166 0.950 . S
C2174 C2172 1.391 . S
C2174 C2175 1.400 . S
C2175 C2174 1.400 . S
C2175 C2176 1.398 . S
C2175 C2181 1.491 . S
C2176 H2167 0.950 . S
C2176 C2175 1.398 . S
C2176 C2177 1.391 . S
C2177 H2165 0.950 . S
C2177 C2173 1.393 . S
C2177 C2176 1.391 . S
C2178 H2168 0.950 . S
C2178 C2179 1.386 . S
C2178 C2180 1.391 . S
C2179 C2178 1.386 . S
C2179 C2183 1.393 . S
C2180 H2169 0.950 . S
C2180 C2178 1.391 . S
C2180 C2181 1.400 . S
C2181 C2175 1.491 . S
C2181 C2180 1.400 . S
C2181 C2182 1.398 . S
C2182 H2170 0.950 . S
C2182 C2181 1.398 . S
C2182 C2183 1.391 . S
C2183 H2171 0.950 . S
C2183 C2179 1.393 . S
C2183 C2182 1.391 . S
H2184 C2192 0.950 . S
H2185 C2197 0.950 . S
H2186 C2194 0.950 . S
H2187 C2196 0.950 . S
H2188 C2198 0.950 . S
H2189 C2200 0.950 . S
H2190 C2202 0.950 . S
H2191 C2203 0.950 . S
C2192 H2184 0.950 . S
C2192 C2193 1.386 . S
C2192 C2194 1.391 . S
C2193 C2192 1.386 . S
C2193 C2197 1.393 . S
C2194 H2186 0.950 . S
C2194 C2192 1.391 . S
C2194 C2195 1.400 . S
C2195 C2194 1.400 . S
C2195 C2196 1.398 . S
C2195 C2201 1.491 . S
C2196 H2187 0.950 . S
C2196 C2195 1.398 . S
C2196 C2197 1.391 . S
C2197 H2185 0.950 . S
C2197 C2193 1.393 . S
C2197 C2196 1.391 . S
C2198 H2188 0.950 . S
C2198 C2199 1.386 . S
C2198 C2200 1.391 . S
C2199 C2198 1.386 . S
C2199 C2203 1.393 . S
C2200 H2189 0.950 . S
C2200 C2198 1.391 . S
C2200 C2201 1.400 . S
C2201 C2195 1.491 . S
C2201 C2200 1.400 . S
C2201 C2202 1.398 . S
C2202 H2190 0.950 . S
C2202 C2201 1.398 . S
C2202 C2203 1.391 . S
C2203 H2191 0.950 . S
C2203 C2199 1.393 . S
C2203 C2202 1.391 . S
H2204 C2212 0.950 . S
H2205 C2217 0.950 . S
H2206 C2214 0.950 . S
H2207 C2216 0.950 . S
H2208 C2218 0.950 . S
H2209 C2220 0.950 . S
H2210 C2222 0.950 . S
H2211 C2223 0.950 . S
C2212 H2204 0.950 . S
C2212 C2213 1.386 . S
C2212 C2214 1.391 . S
C2213 C2212 1.386 . S
C2213 C2217 1.393 . S
C2214 H2206 0.950 . S
C2214 C2212 1.391 . S
C2214 C2215 1.400 . S
C2215 C2214 1.400 . S
C2215 C2216 1.398 . S
C2215 C2221 1.491 . S
C2216 H2207 0.950 . S
C2216 C2215 1.398 . S
C2216 C2217 1.391 . S
C2217 H2205 0.950 . S
C2217 C2213 1.393 . S
C2217 C2216 1.391 . S
C2218 H2208 0.950 . S
C2218 C2219 1.386 . S
C2218 C2220 1.391 . S
C2219 C2218 1.386 . S
C2219 C2223 1.393 . S
C2220 H2209 0.950 . S
C2220 C2218 1.391 . S
C2220 C2221 1.400 . S
C2221 C2215 1.491 . S
C2221 C2220 1.400 . S
C2221 C2222 1.398 . S
C2222 H2210 0.950 . S
C2222 C2221 1.398 . S
C2222 C2223 1.391 . S
C2223 H2211 0.950 . S
C2223 C2219 1.393 . S
C2223 C2222 1.391 . S
H2224 C2232 0.950 . S
H2225 C2237 0.950 . S
H2226 C2234 0.950 . S
H2227 C2236 0.950 . S
H2228 C2238 0.950 . S
H2229 C2240 0.950 . S
H2230 C2242 0.950 . S
H2231 C2243 0.950 . S
C2232 H2224 0.950 . S
C2232 C2233 1.386 . S
C2232 C2234 1.391 . S
C2233 C2232 1.386 . S
C2233 C2237 1.393 . S
C2234 H2226 0.950 . S
C2234 C2232 1.391 . S
C2234 C2235 1.400 . S
C2235 C2234 1.400 . S
C2235 C2236 1.398 . S
C2235 C2241 1.491 . S
C2236 H2227 0.950 . S
C2236 C2235 1.398 . S
C2236 C2237 1.391 . S
C2237 H2225 0.950 . S
C2237 C2233 1.393 . S
C2237 C2236 1.391 . S
C2238 H2228 0.950 . S
C2238 C2239 1.386 . S
C2238 C2240 1.391 . S
C2239 C2238 1.386 . S
C2239 C2243 1.393 . S
C2240 H2229 0.950 . S
C2240 C2238 1.391 . S
C2240 C2241 1.400 . S
C2241 C2235 1.491 . S
C2241 C2240 1.400 . S
C2241 C2242 1.398 . S
C2242 H2230 0.950 . S
C2242 C2241 1.398 . S
C2242 C2243 1.391 . S
C2243 H2231 0.950 . S
C2243 C2239 1.393 . S
C2243 C2242 1.391 . S
H2244 C2252 0.950 . S
H2245 C2257 0.950 . S
H2246 C2254 0.950 . S
H2247 C2256 0.950 . S
H2248 C2258 0.950 . S
H2249 C2260 0.950 . S
H2250 C2262 0.950 . S
H2251 C2263 0.950 . S
C2252 H2244 0.950 . S
C2252 C2253 1.386 . S
C2252 C2254 1.391 . S
C2253 C2252 1.386 . S
C2253 C2257 1.393 . S
C2254 H2246 0.950 . S
C2254 C2252 1.391 . S
C2254 C2255 1.400 . S
C2255 C2254 1.400 . S
C2255 C2256 1.398 . S
C2255 C2261 1.491 . S
C2256 H2247 0.950 . S
C2256 C2255 1.398 . S
C2256 C2257 1.391 . S
C2257 H2245 0.950 . S
C2257 C2253 1.393 . S
C2257 C2256 1.391 . S
C2258 H2248 0.950 . S
C2258 C2259 1.386 . S
C2258 C2260 1.391 . S
C2259 C2258 1.386 . S
C2259 C2263 1.393 . S
C2260 H2249 0.950 . S
C2260 C2258 1.391 . S
C2260 C2261 1.400 . S
C2261 C2255 1.491 . S
C2261 C2260 1.400 . S
C2261 C2262 1.398 . S
C2262 H2250 0.950 . S
C2262 C2261 1.398 . S
C2262 C2263 1.391 . S
C2263 H2251 0.950 . S
C2263 C2259 1.393 . S
C2263 C2262 1.391 . S
H2264 C2272 0.950 . S
H2265 C2277 0.950 . S
H2266 C2274 0.950 . S
H2267 C2276 0.950 . S
H2268 C2278 0.950 . S
H2269 C2280 0.950 . S
H2270 C2282 0.950 . S
H2271 C2283 0.950 . S
C2272 H2264 0.950 . S
C2272 C2273 1.386 . S
C2272 C2274 1.391 . S
C2273 C2272 1.386 . S
C2273 C2277 1.393 . S
C2274 H2266 0.950 . S
C2274 C2272 1.391 . S
C2274 C2275 1.400 . S
C2275 C2274 1.400 . S
C2275 C2276 1.398 . S
C2275 C2281 1.491 . S
C2276 H2267 0.950 . S
C2276 C2275 1.398 . S
C2276 C2277 1.391 . S
C2277 H2265 0.950 . S
C2277 C2273 1.393 . S
C2277 C2276 1.391 . S
C2278 H2268 0.950 . S
C2278 C2279 1.386 . S
C2278 C2280 1.391 . S
C2279 C2278 1.386 . S
C2279 C2283 1.393 . S
C2280 H2269 0.950 . S
C2280 C2278 1.391 . S
C2280 C2281 1.400 . S
C2281 C2275 1.491 . S
C2281 C2280 1.400 . S
C2281 C2282 1.398 . S
C2282 H2270 0.950 . S
C2282 C2281 1.398 . S
C2282 C2283 1.391 . S
C2283 H2271 0.950 . S
C2283 C2279 1.393 . S
C2283 C2282 1.391 . S
H2284 C2292 0.950 . S
H2285 C2297 0.950 . S
H2286 C2294 0.950 . S
H2287 C2296 0.950 . S
H2288 C2298 0.950 . S
H2289 C2300 0.950 . S
H2290 C2302 0.950 . S
H2291 C2303 0.950 . S
C2292 H2284 0.950 . S
C2292 C2293 1.386 . S
C2292 C2294 1.391 . S
C2293 C2292 1.386 . S
C2293 C2297 1.393 . S
C2294 H2286 0.950 . S
C2294 C2292 1.391 . S
C2294 C2295 1.400 . S
C2295 C2294 1.400 . S
C2295 C2296 1.398 . S
C2295 C2301 1.491 . S
C2296 H2287 0.950 . S
C2296 C2295 1.398 . S
C2296 C2297 1.391 . S
C2297 H2285 0.950 . S
C2297 C2293 1.393 . S
C2297 C2296 1.391 . S
C2298 H2288 0.950 . S
C2298 C2299 1.386 . S
C2298 C2300 1.391 . S
C2299 C2298 1.386 . S
C2299 C2303 1.393 . S
C2300 H2289 0.950 . S
C2300 C2298 1.391 . S
C2300 C2301 1.400 . S
C2301 C2295 1.491 . S
C2301 C2300 1.400 . S
C2301 C2302 1.398 . S
C2302 H2290 0.950 . S
C2302 C2301 1.398 . S
C2302 C2303 1.391 . S
C2303 H2291 0.950 . S
C2303 C2299 1.393 . S
C2303 C2302 1.391 . S
H2304 C2312 0.950 . S
H2305 C2317 0.950 . S
H2306 C2314 0.950 . S
H2307 C2316 0.950 . S
H2308 C2318 0.950 . S
H2309 C2320 0.950 . S
H2310 C2322 0.950 . S
H2311 C2323 0.950 . S
C2312 H2304 0.950 . S
C2312 C2313 1.386 . S
C2312 C2314 1.391 . S
C2313 C2312 1.386 . S
C2313 C2317 1.393 . S
C2314 H2306 0.950 . S
C2314 C2312 1.391 . S
C2314 C2315 1.400 . S
C2315 C2314 1.400 . S
C2315 C2316 1.398 . S
C2315 C2321 1.491 . S
C2316 H2307 0.950 . S
C2316 C2315 1.398 . S
C2316 C2317 1.391 . S
C2317 H2305 0.950 . S
C2317 C2313 1.393 . S
C2317 C2316 1.391 . S
C2318 H2308 0.950 . S
C2318 C2319 1.386 . S
C2318 C2320 1.391 . S
C2319 C2318 1.386 . S
C2319 C2323 1.393 . S
C2320 H2309 0.950 . S
C2320 C2318 1.391 . S
C2320 C2321 1.400 . S
C2321 C2315 1.491 . S
C2321 C2320 1.400 . S
C2321 C2322 1.398 . S
C2322 H2310 0.950 . S
C2322 C2321 1.398 . S
C2322 C2323 1.391 . S
C2323 H2311 0.950 . S
C2323 C2319 1.393 . S
C2323 C2322 1.391 . S
H2324 C2332 0.950 . S
H2325 C2337 0.950 . S
H2326 C2334 0.950 . S
H2327 C2336 0.950 . S
H2328 C2338 0.950 . S
H2329 C2340 0.950 . S
H2330 C2342 0.950 . S
H2331 C2343 0.950 . S
C2332 H2324 0.950 . S
C2332 C2333 1.386 . S
C2332 C2334 1.391 . S
C2333 C2332 1.386 . S
C2333 C2337 1.393 . S
C2334 H2326 0.950 . S
C2334 C2332 1.391 . S
C2334 C2335 1.400 . S
C2335 C2334 1.400 . S
C2335 C2336 1.398 . S
C2335 C2341 1.491 . S
C2336 H2327 0.950 . S
C2336 C2335 1.398 . S
C2336 C2337 1.391 . S
C2337 H2325 0.950 . S
C2337 C2333 1.393 . S
C2337 C2336 1.391 . S
C2338 H2328 0.950 . S
C2338 C2339 1.386 . S
C2338 C2340 1.391 . S
C2339 C2338 1.386 . S
C2339 C2343 1.393 . S
C2340 H2329 0.950 . S
C2340 C2338 1.391 . S
C2340 C2341 1.400 . S
C2341 C2335 1.491 . S
C2341 C2340 1.400 . S
C2341 C2342 1.398 . S
C2342 H2330 0.950 . S
C2342 C2341 1.398 . S
C2342 C2343 1.391 . S
C2343 H2331 0.950 . S
C2343 C2339 1.393 . S
C2343 C2342 1.391 . S
H2344 C2352 0.950 . S
H2345 C2357 0.950 . S
H2346 C2354 0.950 . S
H2347 C2356 0.950 . S
H2348 C2358 0.950 . S
H2349 C2360 0.950 . S
H2350 C2362 0.950 . S
H2351 C2363 0.950 . S
C2352 H2344 0.950 . S
C2352 C2353 1.386 . S
C2352 C2354 1.391 . S
C2353 C2352 1.386 . S
C2353 C2357 1.393 . S
C2354 H2346 0.950 . S
C2354 C2352 1.391 . S
C2354 C2355 1.400 . S
C2355 C2354 1.400 . S
C2355 C2356 1.398 . S
C2355 C2361 1.491 . S
C2356 H2347 0.950 . S
C2356 C2355 1.398 . S
C2356 C2357 1.391 . S
C2357 H2345 0.950 . S
C2357 C2353 1.393 . S
C2357 C2356 1.391 . S
C2358 H2348 0.950 . S
C2358 C2359 1.386 . S
C2358 C2360 1.391 . S
C2359 C2358 1.386 . S
C2359 C2363 1.393 . S
C2360 H2349 0.950 . S
C2360 C2358 1.391 . S
C2360 C2361 1.400 . S
C2361 C2355 1.491 . S
C2361 C2360 1.400 . S
C2361 C2362 1.398 . S
C2362 H2350 0.950 . S
C2362 C2361 1.398 . S
C2362 C2363 1.391 . S
C2363 H2351 0.950 . S
C2363 C2359 1.393 . S
C2363 C2362 1.391 . S
H2364 C2372 0.950 . S
H2365 C2377 0.950 . S
H2366 C2374 0.950 . S
H2367 C2376 0.950 . S
H2368 C2378 0.950 . S
H2369 C2380 0.950 . S
H2370 C2382 0.950 . S
H2371 C2383 0.950 . S
C2372 H2364 0.950 . S
C2372 C2373 1.386 . S
C2372 C2374 1.391 . S
C2373 C2372 1.386 . S
C2373 C2377 1.393 . S
C2374 H2366 0.950 . S
C2374 C2372 1.391 . S
C2374 C2375 1.400 . S
C2375 C2374 1.400 . S
C2375 C2376 1.398 . S
C2375 C2381 1.491 . S
C2376 H2367 0.950 . S
C2376 C2375 1.398 . S
C2376 C2377 1.391 . S
C2377 H2365 0.950 . S
C2377 C2373 1.393 . S
C2377 C2376 1.391 . S
C2378 H2368 0.950 . S
C2378 C2379 1.386 . S
C2378 C2380 1.391 . S
C2379 C2378 1.386 . S
C2379 C2383 1.393 . S
C2380 H2369 0.950 . S
C2380 C2378 1.391 . S
C2380 C2381 1.400 . S
C2381 C2375 1.491 . S
C2381 C2380 1.400 . S
C2381 C2382 1.398 . S
C2382 H2370 0.950 . S
C2382 C2381 1.398 . S
C2382 C2383 1.391 . S
C2383 H2371 0.950 . S
C2383 C2379 1.393 . S
C2383 C2382 1.391 . S
H2384 C2392 0.950 . S
H2385 C2397 0.950 . S
H2386 C2394 0.950 . S
H2387 C2396 0.950 . S
H2388 C2398 0.950 . S
H2389 C2400 0.950 . S
H2390 C2402 0.950 . S
H2391 C2403 0.950 . S
C2392 H2384 0.950 . S
C2392 C2393 1.386 . S
C2392 C2394 1.391 . S
C2393 C2392 1.386 . S
C2393 C2397 1.393 . S
C2394 H2386 0.950 . S
C2394 C2392 1.391 . S
C2394 C2395 1.400 . S
C2395 C2394 1.400 . S
C2395 C2396 1.398 . S
C2395 C2401 1.491 . S
C2396 H2387 0.950 . S
C2396 C2395 1.398 . S
C2396 C2397 1.391 . S
C2397 H2385 0.950 . S
C2397 C2393 1.393 . S
C2397 C2396 1.391 . S
C2398 H2388 0.950 . S
C2398 C2399 1.386 . S
C2398 C2400 1.391 . S
C2399 C2398 1.386 . S
C2399 C2403 1.393 . S
C2400 H2389 0.950 . S
C2400 C2398 1.391 . S
C2400 C2401 1.400 . S
C2401 C2395 1.491 . S
C2401 C2400 1.400 . S
C2401 C2402 1.398 . S
C2402 H2390 0.950 . S
C2402 C2401 1.398 . S
C2402 C2403 1.391 . S
C2403 H2391 0.950 . S
C2403 C2399 1.393 . S
C2403 C2402 1.391 . S
H2404 C2412 0.950 . S
H2405 C2417 0.950 . S
H2406 C2414 0.950 . S
H2407 C2416 0.950 . S
H2408 C2418 0.950 . S
H2409 C2420 0.950 . S
H2410 C2422 0.950 . S
H2411 C2423 0.950 . S
C2412 H2404 0.950 . S
C2412 C2413 1.386 . S
C2412 C2414 1.391 . S
C2413 C2412 1.386 . S
C2413 C2417 1.393 . S
C2414 H2406 0.950 . S
C2414 C2412 1.391 . S
C2414 C2415 1.400 . S
C2415 C2414 1.400 . S
C2415 C2416 1.398 . S
C2415 C2421 1.491 . S
C2416 H2407 0.950 . S
C2416 C2415 1.398 . S
C2416 C2417 1.391 . S
C2417 H2405 0.950 . S
C2417 C2413 1.393 . S
C2417 C2416 1.391 . S
C2418 H2408 0.950 . S
C2418 C2419 1.386 . S
C2418 C2420 1.391 . S
C2419 C2418 1.386 . S
C2419 C2423 1.393 . S
C2420 H2409 0.950 . S
C2420 C2418 1.391 . S
C2420 C2421 1.400 . S
C2421 C2415 1.491 . S
C2421 C2420 1.400 . S
C2421 C2422 1.398 . S
C2422 H2410 0.950 . S
C2422 C2421 1.398 . S
C2422 C2423 1.391 . S
C2423 H2411 0.950 . S
C2423 C2419 1.393 . S
C2423 C2422 1.391 . S
H2424 C2432 0.950 . S
H2425 C2437 0.950 . S
H2426 C2434 0.950 . S
H2427 C2436 0.950 . S
H2428 C2438 0.950 . S
H2429 C2440 0.950 . S
H2430 C2442 0.950 . S
H2431 C2443 0.950 . S
C2432 H2424 0.950 . S
C2432 C2433 1.386 . S
C2432 C2434 1.391 . S
C2433 C2432 1.386 . S
C2433 C2437 1.393 . S
C2434 H2426 0.950 . S
C2434 C2432 1.391 . S
C2434 C2435 1.400 . S
C2435 C2434 1.400 . S
C2435 C2436 1.398 . S
C2435 C2441 1.491 . S
C2436 H2427 0.950 . S
C2436 C2435 1.398 . S
C2436 C2437 1.391 . S
C2437 H2425 0.950 . S
C2437 C2433 1.393 . S
C2437 C2436 1.391 . S
C2438 H2428 0.950 . S
C2438 C2439 1.386 . S
C2438 C2440 1.391 . S
C2439 C2438 1.386 . S
C2439 C2443 1.393 . S
C2440 H2429 0.950 . S
C2440 C2438 1.391 . S
C2440 C2441 1.400 . S
C2441 C2435 1.491 . S
C2441 C2440 1.400 . S
C2441 C2442 1.398 . S
C2442 H2430 0.950 . S
C2442 C2441 1.398 . S
C2442 C2443 1.391 . S
C2443 H2431 0.950 . S
C2443 C2439 1.393 . S
C2443 C2442 1.391 . S
H2444 C2452 0.950 . S
H2445 C2457 0.950 . S
H2446 C2454 0.950 . S
H2447 C2456 0.950 . S
H2448 C2458 0.950 . S
H2449 C2460 0.950 . S
H2450 C2462 0.950 . S
H2451 C2463 0.950 . S
C2452 H2444 0.950 . S
C2452 C2453 1.386 . S
C2452 C2454 1.391 . S
C2453 C2452 1.386 . S
C2453 C2457 1.393 . S
C2454 H2446 0.950 . S
C2454 C2452 1.391 . S
C2454 C2455 1.400 . S
C2455 C2454 1.400 . S
C2455 C2456 1.398 . S
C2455 C2461 1.491 . S
C2456 H2447 0.950 . S
C2456 C2455 1.398 . S
C2456 C2457 1.391 . S
C2457 H2445 0.950 . S
C2457 C2453 1.393 . S
C2457 C2456 1.391 . S
C2458 H2448 0.950 . S
C2458 C2459 1.386 . S
C2458 C2460 1.391 . S
C2459 C2458 1.386 . S
C2459 C2463 1.393 . S
C2460 H2449 0.950 . S
C2460 C2458 1.391 . S
C2460 C2461 1.400 . S
C2461 C2455 1.491 . S
C2461 C2460 1.400 . S
C2461 C2462 1.398 . S
C2462 H2450 0.950 . S
C2462 C2461 1.398 . S
C2462 C2463 1.391 . S
C2463 H2451 0.950 . S
C2463 C2459 1.393 . S
C2463 C2462 1.391 . S
H2464 C2472 0.950 . S
H2465 C2477 0.950 . S
H2466 C2474 0.950 . S
H2467 C2476 0.950 . S
H2468 C2478 0.950 . S
H2469 C2480 0.950 . S
H2470 C2482 0.950 . S
H2471 C2483 0.950 . S
C2472 H2464 0.950 . S
C2472 C2473 1.386 . S
C2472 C2474 1.391 . S
C2473 C2472 1.386 . S
C2473 C2477 1.393 . S
C2474 H2466 0.950 . S
C2474 C2472 1.391 . S
C2474 C2475 1.400 . S
C2475 C2474 1.400 . S
C2475 C2476 1.398 . S
C2475 C2481 1.491 . S
C2476 H2467 0.950 . S
C2476 C2475 1.398 . S
C2476 C2477 1.391 . S
C2477 H2465 0.950 . S
C2477 C2473 1.393 . S
C2477 C2476 1.391 . S
C2478 H2468 0.950 . S
C2478 C2479 1.386 . S
C2478 C2480 1.391 . S
C2479 C2478 1.386 . S
C2479 C2483 1.393 . S
C2480 H2469 0.950 . S
C2480 C2478 1.391 . S
C2480 C2481 1.400 . S
C2481 C2475 1.491 . S
C2481 C2480 1.400 . S
C2481 C2482 1.398 . S
C2482 H2470 0.950 . S
C2482 C2481 1.398 . S
C2482 C2483 1.391 . S
C2483 H2471 0.950 . S
C2483 C2479 1.393 . S
C2483 C2482 1.391 . S
H2484 C2492 0.950 . S
H2485 C2497 0.950 . S
H2486 C2494 0.950 . S
H2487 C2496 0.950 . S
H2488 C2498 0.950 . S
H2489 C2500 0.950 . S
H2490 C2502 0.950 . S
H2491 C2503 0.950 . S
C2492 H2484 0.950 . S
C2492 C2493 1.386 . S
C2492 C2494 1.391 . S
C2493 C2492 1.386 . S
C2493 C2497 1.393 . S
C2494 H2486 0.950 . S
C2494 C2492 1.391 . S
C2494 C2495 1.400 . S
C2495 C2494 1.400 . S
C2495 C2496 1.398 . S
C2495 C2501 1.491 . S
C2496 H2487 0.950 . S
C2496 C2495 1.398 . S
C2496 C2497 1.391 . S
C2497 H2485 0.950 . S
C2497 C2493 1.393 . S
C2497 C2496 1.391 . S
C2498 H2488 0.950 . S
C2498 C2499 1.386 . S
C2498 C2500 1.391 . S
C2499 C2498 1.386 . S
C2499 C2503 1.393 . S
C2500 H2489 0.950 . S
C2500 C2498 1.391 . S
C2500 C2501 1.400 . S
C2501 C2495 1.491 . S
C2501 C2500 1.400 . S
C2501 C2502 1.398 . S
C2502 H2490 0.950 . S
C2502 C2501 1.398 . S
C2502 C2503 1.391 . S
C2503 H2491 0.950 . S
C2503 C2499 1.393 . S
C2503 C2502 1.391 . S
H2504 C2512 0.950 . S
H2505 C2517 0.950 . S
H2506 C2514 0.950 . S
H2507 C2516 0.950 . S
H2508 C2518 0.950 . S
H2509 C2520 0.950 . S
H2510 C2522 0.950 . S
H2511 C2523 0.950 . S
C2512 H2504 0.950 . S
C2512 C2513 1.386 . S
C2512 C2514 1.391 . S
C2513 C2512 1.386 . S
C2513 C2517 1.393 . S
C2514 H2506 0.950 . S
C2514 C2512 1.391 . S
C2514 C2515 1.400 . S
C2515 C2514 1.400 . S
C2515 C2516 1.398 . S
C2515 C2521 1.491 . S
C2516 H2507 0.950 . S
C2516 C2515 1.398 . S
C2516 C2517 1.391 . S
C2517 H2505 0.950 . S
C2517 C2513 1.393 . S
C2517 C2516 1.391 . S
C2518 H2508 0.950 . S
C2518 C2519 1.386 . S
C2518 C2520 1.391 . S
C2519 C2518 1.386 . S
C2519 C2523 1.393 . S
C2520 H2509 0.950 . S
C2520 C2518 1.391 . S
C2520 C2521 1.400 . S
C2521 C2515 1.491 . S
C2521 C2520 1.400 . S
C2521 C2522 1.398 . S
C2522 H2510 0.950 . S
C2522 C2521 1.398 . S
C2522 C2523 1.391 . S
C2523 H2511 0.950 . S
C2523 C2519 1.393 . S
C2523 C2522 1.391 . S
H2524 C2532 0.950 . S
H2525 C2537 0.950 . S
H2526 C2534 0.950 . S
H2527 C2536 0.950 . S
H2528 C2538 0.950 . S
H2529 C2540 0.950 . S
H2530 C2542 0.950 . S
H2531 C2543 0.950 . S
C2532 H2524 0.950 . S
C2532 C2533 1.386 . S
C2532 C2534 1.391 . S
C2533 C2532 1.386 . S
C2533 C2537 1.393 . S
C2534 H2526 0.950 . S
C2534 C2532 1.391 . S
C2534 C2535 1.400 . S
C2535 C2534 1.400 . S
C2535 C2536 1.398 . S
C2535 C2541 1.491 . S
C2536 H2527 0.950 . S
C2536 C2535 1.398 . S
C2536 C2537 1.391 . S
C2537 H2525 0.950 . S
C2537 C2533 1.393 . S
C2537 C2536 1.391 . S
C2538 H2528 0.950 . S
C2538 C2539 1.386 . S
C2538 C2540 1.391 . S
C2539 C2538 1.386 . S
C2539 C2543 1.393 . S
C2540 H2529 0.950 . S
C2540 C2538 1.391 . S
C2540 C2541 1.400 . S
C2541 C2535 1.491 . S
C2541 C2540 1.400 . S
C2541 C2542 1.398 . S
C2542 H2530 0.950 . S
C2542 C2541 1.398 . S
C2542 C2543 1.391 . S
C2543 H2531 0.950 . S
C2543 C2539 1.393 . S
C2543 C2542 1.391 . S
H2544 C2552 0.950 . S
H2545 C2557 0.950 . S
H2546 C2554 0.950 . S
H2547 C2556 0.950 . S
H2548 C2558 0.950 . S
H2549 C2560 0.950 . S
H2550 C2562 0.950 . S
H2551 C2563 0.950 . S
C2552 H2544 0.950 . S
C2552 C2553 1.386 . S
C2552 C2554 1.391 . S
C2553 C2552 1.386 . S
C2553 C2557 1.393 . S
C2554 H2546 0.950 . S
C2554 C2552 1.391 . S
C2554 C2555 1.400 . S
C2555 C2554 1.400 . S
C2555 C2556 1.398 . S
C2555 C2561 1.491 . S
C2556 H2547 0.950 . S
C2556 C2555 1.398 . S
C2556 C2557 1.391 . S
C2557 H2545 0.950 . S
C2557 C2553 1.393 . S
C2557 C2556 1.391 . S
C2558 H2548 0.950 . S
C2558 C2559 1.386 . S
C2558 C2560 1.391 . S
C2559 C2558 1.386 . S
C2559 C2563 1.393 . S
C2560 H2549 0.950 . S
C2560 C2558 1.391 . S
C2560 C2561 1.400 . S
C2561 C2555 1.491 . S
C2561 C2560 1.400 . S
C2561 C2562 1.398 . S
C2562 H2550 0.950 . S
C2562 C2561 1.398 . S
C2562 C2563 1.391 . S
C2563 H2551 0.950 . S
C2563 C2559 1.393 . S
C2563 C2562 1.391 . S
H2564 C2572 0.950 . S
H2565 C2577 0.950 . S
H2566 C2574 0.950 . S
H2567 C2576 0.950 . S
H2568 C2578 0.950 . S
H2569 C2580 0.950 . S
H2570 C2582 0.950 . S
H2571 C2583 0.950 . S
C2572 H2564 0.950 . S
C2572 C2573 1.386 . S
C2572 C2574 1.391 . S
C2573 C2572 1.386 . S
C2573 C2577 1.393 . S
C2574 H2566 0.950 . S
C2574 C2572 1.391 . S
C2574 C2575 1.400 . S
C2575 C2574 1.400 . S
C2575 C2576 1.398 . S
C2575 C2581 1.491 . S
C2576 H2567 0.950 . S
C2576 C2575 1.398 . S
C2576 C2577 1.391 . S
C2577 H2565 0.950 . S
C2577 C2573 1.393 . S
C2577 C2576 1.391 . S
C2578 H2568 0.950 . S
C2578 C2579 1.386 . S
C2578 C2580 1.391 . S
C2579 C2578 1.386 . S
C2579 C2583 1.393 . S
C2580 H2569 0.950 . S
C2580 C2578 1.391 . S
C2580 C2581 1.400 . S
C2581 C2575 1.491 . S
C2581 C2580 1.400 . S
C2581 C2582 1.398 . S
C2582 H2570 0.950 . S
C2582 C2581 1.398 . S
C2582 C2583 1.391 . S
C2583 H2571 0.950 . S
C2583 C2579 1.393 . S
C2583 C2582 1.391 . S
H2584 C2592 0.950 . S
H2585 C2597 0.950 . S
H2586 C2594 0.950 . S
H2587 C2596 0.950 . S
H2588 C2598 0.950 . S
H2589 C2600 0.950 . S
H2590 C2602 0.950 . S
H2591 C2603 0.950 . S
C2592 H2584 0.950 . S
C2592 C2593 1.386 . S
C2592 C2594 1.391 . S
C2593 C2592 1.386 . S
C2593 C2597 1.393 . S
C2594 H2586 0.950 . S
C2594 C2592 1.391 . S
C2594 C2595 1.400 . S
C2595 C2594 1.400 . S
C2595 C2596 1.398 . S
C2595 C2601 1.491 . S
C2596 H2587 0.950 . S
C2596 C2595 1.398 . S
C2596 C2597 1.391 . S
C2597 H2585 0.950 . S
C2597 C2593 1.393 . S
C2597 C2596 1.391 . S
C2598 H2588 0.950 . S
C2598 C2599 1.386 . S
C2598 C2600 1.391 . S
C2599 C2598 1.386 . S
C2599 C2603 1.393 . S
C2600 H2589 0.950 . S
C2600 C2598 1.391 . S
C2600 C2601 1.400 . S
C2601 C2595 1.491 . S
C2601 C2600 1.400 . S
C2601 C2602 1.398 . S
C2602 H2590 0.950 . S
C2602 C2601 1.398 . S
C2602 C2603 1.391 . S
C2603 H2591 0.950 . S
C2603 C2599 1.393 . S
C2603 C2602 1.391 . S
H2604 C2612 0.950 . S
H2605 C2617 0.950 . S
H2606 C2614 0.950 . S
H2607 C2616 0.950 . S
H2608 C2618 0.950 . S
H2609 C2620 0.950 . S
H2610 C2622 0.950 . S
H2611 C2623 0.950 . S
C2612 H2604 0.950 . S
C2612 C2613 1.386 . S
C2612 C2614 1.391 . S
C2613 C2612 1.386 . S
C2613 C2617 1.393 . S
C2614 H2606 0.950 . S
C2614 C2612 1.391 . S
C2614 C2615 1.400 . S
C2615 C2614 1.400 . S
C2615 C2616 1.398 . S
C2615 C2621 1.491 . S
C2616 H2607 0.950 . S
C2616 C2615 1.398 . S
C2616 C2617 1.391 . S
C2617 H2605 0.950 . S
C2617 C2613 1.393 . S
C2617 C2616 1.391 . S
C2618 H2608 0.950 . S
C2618 C2619 1.386 . S
C2618 C2620 1.391 . S
C2619 C2618 1.386 . S
C2619 C2623 1.393 . S
C2620 H2609 0.950 . S
C2620 C2618 1.391 . S
C2620 C2621 1.400 . S
C2621 C2615 1.491 . S
C2621 C2620 1.400 . S
C2621 C2622 1.398 . S
C2622 H2610 0.950 . S
C2622 C2621 1.398 . S
C2622 C2623 1.391 . S
C2623 H2611 0.950 . S
C2623 C2619 1.393 . S
C2623 C2622 1.391 . S
H2624 C2632 0.950 . S
H2625 C2637 0.950 . S
H2626 C2634 0.950 . S
H2627 C2636 0.950 . S
H2628 C2638 0.950 . S
H2629 C2640 0.950 . S
H2630 C2642 0.950 . S
H2631 C2643 0.950 . S
C2632 H2624 0.950 . S
C2632 C2633 1.386 . S
C2632 C2634 1.391 . S
C2633 C2632 1.386 . S
C2633 C2637 1.393 . S
C2634 H2626 0.950 . S
C2634 C2632 1.391 . S
C2634 C2635 1.400 . S
C2635 C2634 1.400 . S
C2635 C2636 1.398 . S
C2635 C2641 1.491 . S
C2636 H2627 0.950 . S
C2636 C2635 1.398 . S
C2636 C2637 1.391 . S
C2637 H2625 0.950 . S
C2637 C2633 1.393 . S
C2637 C2636 1.391 . S
C2638 H2628 0.950 . S
C2638 C2639 1.386 . S
C2638 C2640 1.391 . S
C2639 C2638 1.386 . S
C2639 C2643 1.393 . S
C2640 H2629 0.950 . S
C2640 C2638 1.391 . S
C2640 C2641 1.400 . S
C2641 C2635 1.491 . S
C2641 C2640 1.400 . S
C2641 C2642 1.398 . S
C2642 H2630 0.950 . S
C2642 C2641 1.398 . S
C2642 C2643 1.391 . S
C2643 H2631 0.950 . S
C2643 C2639 1.393 . S
C2643 C2642 1.391 . S
H2644 C2652 0.950 . S
H2645 C2657 0.950 . S
H2646 C2654 0.950 . S
H2647 C2656 0.950 . S
H2648 C2658 0.950 . S
H2649 C2660 0.950 . S
H2650 C2662 0.950 . S
H2651 C2663 0.950 . S
C2652 H2644 0.950 . S
C2652 C2653 1.386 . S
C2652 C2654 1.391 . S
C2653 C2652 1.386 . S
C2653 C2657 1.393 . S
C2654 H2646 0.950 . S
C2654 C2652 1.391 . S
C2654 C2655 1.400 . S
C2655 C2654 1.400 . S
C2655 C2656 1.398 . S
C2655 C2661 1.491 . S
C2656 H2647 0.950 . S
C2656 C2655 1.398 . S
C2656 C2657 1.391 . S
C2657 H2645 0.950 . S
C2657 C2653 1.393 . S
C2657 C2656 1.391 . S
C2658 H2648 0.950 . S
C2658 C2659 1.386 . S
C2658 C2660 1.391 . S
C2659 C2658 1.386 . S
C2659 C2663 1.393 . S
C2660 H2649 0.950 . S
C2660 C2658 1.391 . S
C2660 C2661 1.400 . S
C2661 C2655 1.491 . S
C2661 C2660 1.400 . S
C2661 C2662 1.398 . S
C2662 H2650 0.950 . S
C2662 C2661 1.398 . S
C2662 C2663 1.391 . S
C2663 H2651 0.950 . S
C2663 C2659 1.393 . S
C2663 C2662 1.391 . S
H2664 C2672 0.950 . S
H2665 C2677 0.950 . S
H2666 C2674 0.950 . S
H2667 C2676 0.950 . S
H2668 C2678 0.950 . S
H2669 C2680 0.950 . S
H2670 C2682 0.950 . S
H2671 C2683 0.950 . S
C2672 H2664 0.950 . S
C2672 C2673 1.386 . S
C2672 C2674 1.391 . S
C2673 C2672 1.386 . S
C2673 C2677 1.393 . S
C2674 H2666 0.950 . S
C2674 C2672 1.391 . S
C2674 C2675 1.400 . S
C2675 C2674 1.400 . S
C2675 C2676 1.398 . S
C2675 C2681 1.491 . S
C2676 H2667 0.950 . S
C2676 C2675 1.398 . S
C2676 C2677 1.391 . S
C2677 H2665 0.950 . S
C2677 C2673 1.393 . S
C2677 C2676 1.391 . S
C2678 H2668 0.950 . S
C2678 C2679 1.386 . S
C2678 C2680 1.391 . S
C2679 C2678 1.386 . S
C2679 C2683 1.393 . S
C2680 H2669 0.950 . S
C2680 C2678 1.391 . S
C2680 C2681 1.400 . S
C2681 C2675 1.491 . S
C2681 C2680 1.400 . S
C2681 C2682 1.398 . S
C2682 H2670 0.950 . S
C2682 C2681 1.398 . S
C2682 C2683 1.391 . S
C2683 H2671 0.950 . S
C2683 C2679 1.393 . S
C2683 C2682 1.391 . S
H2684 C2692 0.950 . S
H2685 C2697 0.950 . S
H2686 C2694 0.950 . S
H2687 C2696 0.950 . S
H2688 C2698 0.950 . S
H2689 C2700 0.950 . S
H2690 C2702 0.950 . S
H2691 C2703 0.950 . S
C2692 H2684 0.950 . S
C2692 C2693 1.386 . S
C2692 C2694 1.391 . S
C2693 C2692 1.386 . S
C2693 C2697 1.393 . S
C2694 H2686 0.950 . S
C2694 C2692 1.391 . S
C2694 C2695 1.400 . S
C2695 C2694 1.400 . S
C2695 C2696 1.398 . S
C2695 C2701 1.491 . S
C2696 H2687 0.950 . S
C2696 C2695 1.398 . S
C2696 C2697 1.391 . S
C2697 H2685 0.950 . S
C2697 C2693 1.393 . S
C2697 C2696 1.391 . S
C2698 H2688 0.950 . S
C2698 C2699 1.386 . S
C2698 C2700 1.391 . S
C2699 C2698 1.386 . S
C2699 C2703 1.393 . S
C2700 H2689 0.950 . S
C2700 C2698 1.391 . S
C2700 C2701 1.400 . S
C2701 C2695 1.491 . S
C2701 C2700 1.400 . S
C2701 C2702 1.398 . S
C2702 H2690 0.950 . S
C2702 C2701 1.398 . S
C2702 C2703 1.391 . S
C2703 H2691 0.950 . S
C2703 C2699 1.393 . S
C2703 C2702 1.391 . S
H2704 C2712 0.950 . S
H2705 C2717 0.950 . S
H2706 C2714 0.950 . S
H2707 C2716 0.950 . S
H2708 C2718 0.950 . S
H2709 C2720 0.950 . S
H2710 C2722 0.950 . S
H2711 C2723 0.950 . S
C2712 H2704 0.950 . S
C2712 C2713 1.386 . S
C2712 C2714 1.391 . S
C2713 C2712 1.386 . S
C2713 C2717 1.393 . S
C2714 H2706 0.950 . S
C2714 C2712 1.391 . S
C2714 C2715 1.400 . S
C2715 C2714 1.400 . S
C2715 C2716 1.398 . S
C2715 C2721 1.491 . S
C2716 H2707 0.950 . S
C2716 C2715 1.398 . S
C2716 C2717 1.391 . S
C2717 H2705 0.950 . S
C2717 C2713 1.393 . S
C2717 C2716 1.391 . S
C2718 H2708 0.950 . S
C2718 C2719 1.386 . S
C2718 C2720 1.391 . S
C2719 C2718 1.386 . S
C2719 C2723 1.393 . S
C2720 H2709 0.950 . S
C2720 C2718 1.391 . S
C2720 C2721 1.400 . S
C2721 C2715 1.491 . S
C2721 C2720 1.400 . S
C2721 C2722 1.398 . S
C2722 H2710 0.950 . S
C2722 C2721 1.398 . S
C2722 C2723 1.391 . S
C2723 H2711 0.950 . S
C2723 C2719 1.393 . S
C2723 C2722 1.391 . S
H2724 C2732 0.950 . S
H2725 C2737 0.950 . S
H2726 C2734 0.950 . S
H2727 C2736 0.950 . S
H2728 C2738 0.950 . S
H2729 C2740 0.950 . S
H2730 C2742 0.950 . S
H2731 C2743 0.950 . S
C2732 H2724 0.950 . S
C2732 C2733 1.386 . S
C2732 C2734 1.391 . S
C2733 C2732 1.386 . S
C2733 C2737 1.393 . S
C2734 H2726 0.950 . S
C2734 C2732 1.391 . S
C2734 C2735 1.400 . S
C2735 C2734 1.400 . S
C2735 C2736 1.398 . S
C2735 C2741 1.491 . S
C2736 H2727 0.950 . S
C2736 C2735 1.398 . S
C2736 C2737 1.391 . S
C2737 H2725 0.950 . S
C2737 C2733 1.393 . S
C2737 C2736 1.391 . S
C2738 H2728 0.950 . S
C2738 C2739 1.386 . S
C2738 C2740 1.391 . S
C2739 C2738 1.386 . S
C2739 C2743 1.393 . S
C2740 H2729 0.950 . S
C2740 C2738 1.391 . S
C2740 C2741 1.400 . S
C2741 C2735 1.491 . S
C2741 C2740 1.400 . S
C2741 C2742 1.398 . S
C2742 H2730 0.950 . S
C2742 C2741 1.398 . S
C2742 C2743 1.391 . S
C2743 H2731 0.950 . S
C2743 C2739 1.393 . S
C2743 C2742 1.391 . S
H2744 C2752 0.950 . S
H2745 C2757 0.950 . S
H2746 C2754 0.950 . S
H2747 C2756 0.950 . S
H2748 C2758 0.950 . S
H2749 C2760 0.950 . S
H2750 C2762 0.950 . S
H2751 C2763 0.950 . S
C2752 H2744 0.950 . S
C2752 C2753 1.386 . S
C2752 C2754 1.391 . S
C2753 C2752 1.386 . S
C2753 C2757 1.393 . S
C2754 H2746 0.950 . S
C2754 C2752 1.391 . S
C2754 C2755 1.400 . S
C2755 C2754 1.400 . S
C2755 C2756 1.398 . S
C2755 C2761 1.491 . S
C2756 H2747 0.950 . S
C2756 C2755 1.398 . S
C2756 C2757 1.391 . S
C2757 H2745 0.950 . S
C2757 C2753 1.393 . S
C2757 C2756 1.391 . S
C2758 H2748 0.950 . S
C2758 C2759 1.386 . S
C2758 C2760 1.391 . S
C2759 C2758 1.386 . S
C2759 C2763 1.393 . S
C2760 H2749 0.950 . S
C2760 C2758 1.391 . S
C2760 C2761 1.400 . S
C2761 C2755 1.491 . S
C2761 C2760 1.400 . S
C2761 C2762 1.398 . S
C2762 H2750 0.950 . S
C2762 C2761 1.398 . S
C2762 C2763 1.391 . S
C2763 H2751 0.950 . S
C2763 C2759 1.393 . S
C2763 C2762 1.391 . S
H2764 C2772 0.950 . S
H2765 C2777 0.950 . S
H2766 C2774 0.950 . S
H2767 C2776 0.950 . S
H2768 C2778 0.950 . S
H2769 C2780 0.950 . S
H2770 C2782 0.950 . S
H2771 C2783 0.950 . S
C2772 H2764 0.950 . S
C2772 C2773 1.386 . S
C2772 C2774 1.391 . S
C2773 C2772 1.386 . S
C2773 C2777 1.393 . S
C2774 H2766 0.950 . S
C2774 C2772 1.391 . S
C2774 C2775 1.400 . S
C2775 C2774 1.400 . S
C2775 C2776 1.398 . S
C2775 C2781 1.491 . S
C2776 H2767 0.950 . S
C2776 C2775 1.398 . S
C2776 C2777 1.391 . S
C2777 H2765 0.950 . S
C2777 C2773 1.393 . S
C2777 C2776 1.391 . S
C2778 H2768 0.950 . S
C2778 C2779 1.386 . S
C2778 C2780 1.391 . S
C2779 C2778 1.386 . S
C2779 C2783 1.393 . S
C2780 H2769 0.950 . S
C2780 C2778 1.391 . S
C2780 C2781 1.400 . S
C2781 C2775 1.491 . S
C2781 C2780 1.400 . S
C2781 C2782 1.398 . S
C2782 H2770 0.950 . S
C2782 C2781 1.398 . S
C2782 C2783 1.391 . S
C2783 H2771 0.950 . S
C2783 C2779 1.393 . S
C2783 C2782 1.391 . S
H2784 C2792 0.950 . S
H2785 C2797 0.950 . S
H2786 C2794 0.950 . S
H2787 C2796 0.950 . S
H2788 C2798 0.950 . S
H2789 C2800 0.950 . S
H2790 C2802 0.950 . S
H2791 C2803 0.950 . S
C2792 H2784 0.950 . S
C2792 C2793 1.386 . S
C2792 C2794 1.391 . S
C2793 C2792 1.386 . S
C2793 C2797 1.393 . S
C2794 H2786 0.950 . S
C2794 C2792 1.391 . S
C2794 C2795 1.400 . S
C2795 C2794 1.400 . S
C2795 C2796 1.398 . S
C2795 C2801 1.491 . S
C2796 H2787 0.950 . S
C2796 C2795 1.398 . S
C2796 C2797 1.391 . S
C2797 H2785 0.950 . S
C2797 C2793 1.393 . S
C2797 C2796 1.391 . S
C2798 H2788 0.950 . S
C2798 C2799 1.386 . S
C2798 C2800 1.391 . S
C2799 C2798 1.386 . S
C2799 C2803 1.393 . S
C2800 H2789 0.950 . S
C2800 C2798 1.391 . S
C2800 C2801 1.400 . S
C2801 C2795 1.491 . S
C2801 C2800 1.400 . S
C2801 C2802 1.398 . S
C2802 H2790 0.950 . S
C2802 C2801 1.398 . S
C2802 C2803 1.391 . S
C2803 H2791 0.950 . S
C2803 C2799 1.393 . S
C2803 C2802 1.391 . S
H2804 C2812 0.950 . S
H2805 C2817 0.950 . S
H2806 C2814 0.950 . S
H2807 C2816 0.950 . S
H2808 C2818 0.950 . S
H2809 C2820 0.950 . S
H2810 C2822 0.950 . S
H2811 C2823 0.950 . S
C2812 H2804 0.950 . S
C2812 C2813 1.386 . S
C2812 C2814 1.391 . S
C2813 C2812 1.386 . S
C2813 C2817 1.393 . S
C2814 H2806 0.950 . S
C2814 C2812 1.391 . S
C2814 C2815 1.400 . S
C2815 C2814 1.400 . S
C2815 C2816 1.398 . S
C2815 C2821 1.491 . S
C2816 H2807 0.950 . S
C2816 C2815 1.398 . S
C2816 C2817 1.391 . S
C2817 H2805 0.950 . S
C2817 C2813 1.393 . S
C2817 C2816 1.391 . S
C2818 H2808 0.950 . S
C2818 C2819 1.386 . S
C2818 C2820 1.391 . S
C2819 C2818 1.386 . S
C2819 C2823 1.393 . S
C2820 H2809 0.950 . S
C2820 C2818 1.391 . S
C2820 C2821 1.400 . S
C2821 C2815 1.491 . S
C2821 C2820 1.400 . S
C2821 C2822 1.398 . S
C2822 H2810 0.950 . S
C2822 C2821 1.398 . S
C2822 C2823 1.391 . S
C2823 H2811 0.950 . S
C2823 C2819 1.393 . S
C2823 C2822 1.391 . S
H2824 C2832 0.950 . S
H2825 C2837 0.950 . S
H2826 C2834 0.950 . S
H2827 C2836 0.950 . S
H2828 C2838 0.950 . S
H2829 C2840 0.950 . S
H2830 C2842 0.950 . S
H2831 C2843 0.950 . S
C2832 H2824 0.950 . S
C2832 C2833 1.386 . S
C2832 C2834 1.391 . S
C2833 C2832 1.386 . S
C2833 C2837 1.393 . S
C2834 H2826 0.950 . S
C2834 C2832 1.391 . S
C2834 C2835 1.400 . S
C2835 C2834 1.400 . S
C2835 C2836 1.398 . S
C2835 C2841 1.491 . S
C2836 H2827 0.950 . S
C2836 C2835 1.398 . S
C2836 C2837 1.391 . S
C2837 H2825 0.950 . S
C2837 C2833 1.393 . S
C2837 C2836 1.391 . S
C2838 H2828 0.950 . S
C2838 C2839 1.386 . S
C2838 C2840 1.391 . S
C2839 C2838 1.386 . S
C2839 C2843 1.393 . S
C2840 H2829 0.950 . S
C2840 C2838 1.391 . S
C2840 C2841 1.400 . S
C2841 C2835 1.491 . S
C2841 C2840 1.400 . S
C2841 C2842 1.398 . S
C2842 H2830 0.950 . S
C2842 C2841 1.398 . S
C2842 C2843 1.391 . S
C2843 H2831 0.950 . S
C2843 C2839 1.393 . S
C2843 C2842 1.391 . S
H2844 C2852 0.950 . S
H2845 C2857 0.950 . S
H2846 C2854 0.950 . S
H2847 C2856 0.950 . S
H2848 C2858 0.950 . S
H2849 C2860 0.950 . S
H2850 C2862 0.950 . S
H2851 C2863 0.950 . S
C2852 H2844 0.950 . S
C2852 C2853 1.386 . S
C2852 C2854 1.391 . S
C2853 C2852 1.386 . S
C2853 C2857 1.393 . S
C2854 H2846 0.950 . S
C2854 C2852 1.391 . S
C2854 C2855 1.400 . S
C2855 C2854 1.400 . S
C2855 C2856 1.398 . S
C2855 C2861 1.491 . S
C2856 H2847 0.950 . S
C2856 C2855 1.398 . S
C2856 C2857 1.391 . S
C2857 H2845 0.950 . S
C2857 C2853 1.393 . S
C2857 C2856 1.391 . S
C2858 H2848 0.950 . S
C2858 C2859 1.386 . S
C2858 C2860 1.391 . S
C2859 C2858 1.386 . S
C2859 C2863 1.393 . S
C2860 H2849 0.950 . S
C2860 C2858 1.391 . S
C2860 C2861 1.400 . S
C2861 C2855 1.491 . S
C2861 C2860 1.400 . S
C2861 C2862 1.398 . S
C2862 H2850 0.950 . S
C2862 C2861 1.398 . S
C2862 C2863 1.391 . S
C2863 H2851 0.950 . S
C2863 C2859 1.393 . S
C2863 C2862 1.391 . S
H2864 C2872 0.950 . S
H2865 C2877 0.950 . S
H2866 C2874 0.950 . S
H2867 C2876 0.950 . S
H2868 C2878 0.950 . S
H2869 C2880 0.950 . S
H2870 C2882 0.950 . S
H2871 C2883 0.950 . S
C2872 H2864 0.950 . S
C2872 C2873 1.386 . S
C2872 C2874 1.391 . S
C2873 C2872 1.386 . S
C2873 C2877 1.393 . S
C2874 H2866 0.950 . S
C2874 C2872 1.391 . S
C2874 C2875 1.400 . S
C2875 C2874 1.400 . S
C2875 C2876 1.398 . S
C2875 C2881 1.491 . S
C2876 H2867 0.950 . S
C2876 C2875 1.398 . S
C2876 C2877 1.391 . S
C2877 H2865 0.950 . S
C2877 C2873 1.393 . S
C2877 C2876 1.391 . S
C2878 H2868 0.950 . S
C2878 C2879 1.386 . S
C2878 C2880 1.391 . S
C2879 C2878 1.386 . S
C2879 C2883 1.393 . S
C2880 H2869 0.950 . S
C2880 C2878 1.391 . S
C2880 C2881 1.400 . S
C2881 C2875 1.491 . S
C2881 C2880 1.400 . S
C2881 C2882 1.398 . S
C2882 H2870 0.950 . S
C2882 C2881 1.398 . S
C2882 C2883 1.391 . S
C2883 H2871 0.950 . S
C2883 C2879 1.393 . S
C2883 C2882 1.391 . S
H2884 C2892 0.950 . S
H2885 C2897 0.950 . S
H2886 C2894 0.950 . S
H2887 C2896 0.950 . S
H2888 C2898 0.950 . S
H2889 C2900 0.950 . S
H2890 C2902 0.950 . S
H2891 C2903 0.950 . S
C2892 H2884 0.950 . S
C2892 C2893 1.386 . S
C2892 C2894 1.391 . S
C2893 C2892 1.386 . S
C2893 C2897 1.393 . S
C2894 H2886 0.950 . S
C2894 C2892 1.391 . S
C2894 C2895 1.400 . S
C2895 C2894 1.400 . S
C2895 C2896 1.398 . S
C2895 C2901 1.491 . S
C2896 H2887 0.950 . S
C2896 C2895 1.398 . S
C2896 C2897 1.391 . S
C2897 H2885 0.950 . S
C2897 C2893 1.393 . S
C2897 C2896 1.391 . S
C2898 H2888 0.950 . S
C2898 C2899 1.386 . S
C2898 C2900 1.391 . S
C2899 C2898 1.386 . S
C2899 C2903 1.393 . S
C2900 H2889 0.950 . S
C2900 C2898 1.391 . S
C2900 C2901 1.400 . S
C2901 C2895 1.491 . S
C2901 C2900 1.400 . S
C2901 C2902 1.398 . S
C2902 H2890 0.950 . S
C2902 C2901 1.398 . S
C2902 C2903 1.391 . S
C2903 H2891 0.950 . S
C2903 C2899 1.393 . S
C2903 C2902 1.391 . S
H2904 C2912 0.950 . S
H2905 C2917 0.950 . S
H2906 C2914 0.950 . S
H2907 C2916 0.950 . S
H2908 C2918 0.950 . S
H2909 C2920 0.950 . S
H2910 C2922 0.950 . S
H2911 C2923 0.950 . S
C2912 H2904 0.950 . S
C2912 C2913 1.386 . S
C2912 C2914 1.391 . S
C2913 C2912 1.386 . S
C2913 C2917 1.393 . S
C2914 H2906 0.950 . S
C2914 C2912 1.391 . S
C2914 C2915 1.400 . S
C2915 C2914 1.400 . S
C2915 C2916 1.398 . S
C2915 C2921 1.491 . S
C2916 H2907 0.950 . S
C2916 C2915 1.398 . S
C2916 C2917 1.391 . S
C2917 H2905 0.950 . S
C2917 C2913 1.393 . S
C2917 C2916 1.391 . S
C2918 H2908 0.950 . S
C2918 C2919 1.386 . S
C2918 C2920 1.391 . S
C2919 C2918 1.386 . S
C2919 C2923 1.393 . S
C2920 H2909 0.950 . S
C2920 C2918 1.391 . S
C2920 C2921 1.400 . S
C2921 C2915 1.491 . S
C2921 C2920 1.400 . S
C2921 C2922 1.398 . S
C2922 H2910 0.950 . S
C2922 C2921 1.398 . S
C2922 C2923 1.391 . S
C2923 H2911 0.950 . S
C2923 C2919 1.393 . S
C2923 C2922 1.391 . S
H2924 C2932 0.950 . S
H2925 C2937 0.950 . S
H2926 C2934 0.950 . S
H2927 C2936 0.950 . S
H2928 C2938 0.950 . S
H2929 C2940 0.950 . S
H2930 C2942 0.950 . S
H2931 C2943 0.950 . S
C2932 H2924 0.950 . S
C2932 C2933 1.386 . S
C2932 C2934 1.391 . S
C2933 C2932 1.386 . S
C2933 C2937 1.393 . S
C2934 H2926 0.950 . S
C2934 C2932 1.391 . S
C2934 C2935 1.400 . S
C2935 C2934 1.400 . S
C2935 C2936 1.398 . S
C2935 C2941 1.491 . S
C2936 H2927 0.950 . S
C2936 C2935 1.398 . S
C2936 C2937 1.391 . S
C2937 H2925 0.950 . S
C2937 C2933 1.393 . S
C2937 C2936 1.391 . S
C2938 H2928 0.950 . S
C2938 C2939 1.386 . S
C2938 C2940 1.391 . S
C2939 C2938 1.386 . S
C2939 C2943 1.393 . S
C2940 H2929 0.950 . S
C2940 C2938 1.391 . S
C2940 C2941 1.400 . S
C2941 C2935 1.491 . S
C2941 C2940 1.400 . S
C2941 C2942 1.398 . S
C2942 H2930 0.950 . S
C2942 C2941 1.398 . S
C2942 C2943 1.391 . S
C2943 H2931 0.950 . S
C2943 C2939 1.393 . S
C2943 C2942 1.391 . S
H2944 C2952 0.950 . S
H2945 C2957 0.950 . S
H2946 C2954 0.950 . S
H2947 C2956 0.950 . S
H2948 C2958 0.950 . S
H2949 C2960 0.950 . S
H2950 C2962 0.950 . S
H2951 C2963 0.950 . S
C2952 H2944 0.950 . S
C2952 C2953 1.386 . S
C2952 C2954 1.391 . S
C2953 C2952 1.386 . S
C2953 C2957 1.393 . S
C2954 H2946 0.950 . S
C2954 C2952 1.391 . S
C2954 C2955 1.400 . S
C2955 C2954 1.400 . S
C2955 C2956 1.398 . S
C2955 C2961 1.491 . S
C2956 H2947 0.950 . S
C2956 C2955 1.398 . S
C2956 C2957 1.391 . S
C2957 H2945 0.950 . S
C2957 C2953 1.393 . S
C2957 C2956 1.391 . S
C2958 H2948 0.950 . S
C2958 C2959 1.386 . S
C2958 C2960 1.391 . S
C2959 C2958 1.386 . S
C2959 C2963 1.393 . S
C2960 H2949 0.950 . S
C2960 C2958 1.391 . S
C2960 C2961 1.400 . S
C2961 C2955 1.491 . S
C2961 C2960 1.400 . S
C2961 C2962 1.398 . S
C2962 H2950 0.950 . S
C2962 C2961 1.398 . S
C2962 C2963 1.391 . S
C2963 H2951 0.950 . S
C2963 C2959 1.393 . S
C2963 C2962 1.391 . S
H2964 C2972 0.950 . S
H2965 C2977 0.950 . S
H2966 C2974 0.950 . S
H2967 C2976 0.950 . S
H2968 C2978 0.950 . S
H2969 C2980 0.950 . S
H2970 C2982 0.950 . S
H2971 C2983 0.950 . S
C2972 H2964 0.950 . S
C2972 C2973 1.386 . S
C2972 C2974 1.391 . S
C2973 C2972 1.386 . S
C2973 C2977 1.393 . S
C2974 H2966 0.950 . S
C2974 C2972 1.391 . S
C2974 C2975 1.400 . S
C2975 C2974 1.400 . S
C2975 C2976 1.398 . S
C2975 C2981 1.491 . S
C2976 H2967 0.950 . S
C2976 C2975 1.398 . S
C2976 C2977 1.391 . S
C2977 H2965 0.950 . S
C2977 C2973 1.393 . S
C2977 C2976 1.391 . S
C2978 H2968 0.950 . S
C2978 C2979 1.386 . S
C2978 C2980 1.391 . S
C2979 C2978 1.386 . S
C2979 C2983 1.393 . S
C2980 H2969 0.950 . S
C2980 C2978 1.391 . S
C2980 C2981 1.400 . S
C2981 C2975 1.491 . S
C2981 C2980 1.400 . S
C2981 C2982 1.398 . S
C2982 H2970 0.950 . S
C2982 C2981 1.398 . S
C2982 C2983 1.391 . S
C2983 H2971 0.950 . S
C2983 C2979 1.393 . S
C2983 C2982 1.391 . S
H2984 C2992 0.950 . S
H2985 C2997 0.950 . S
H2986 C2994 0.950 . S
H2987 C2996 0.950 . S
H2988 C2998 0.950 . S
H2989 C3000 0.950 . S
H2990 C3002 0.950 . S
H2991 C3003 0.950 . S
C2992 H2984 0.950 . S
C2992 C2993 1.386 . S
C2992 C2994 1.391 . S
C2993 C2992 1.386 . S
C2993 C2997 1.393 . S
C2994 H2986 0.950 . S
C2994 C2992 1.391 . S
C2994 C2995 1.400 . S
C2995 C2994 1.400 . S
C2995 C2996 1.398 . S
C2995 C3001 1.491 . S
C2996 H2987 0.950 . S
C2996 C2995 1.398 . S
C2996 C2997 1.391 . S
C2997 H2985 0.950 . S
C2997 C2993 1.393 . S
C2997 C2996 1.391 . S
C2998 H2988 0.950 . S
C2998 C2999 1.386 . S
C2998 C3000 1.391 . S
C2999 C2998 1.386 . S
C2999 C3003 1.393 . S
C3000 H2989 0.950 . S
C3000 C2998 1.391 . S
C3000 C3001 1.400 . S
C3001 C2995 1.491 . S
C3001 C3000 1.400 . S
C3001 C3002 1.398 . S
C3002 H2990 0.950 . S
C3002 C3001 1.398 . S
C3002 C3003 1.391 . S
C3003 H2991 0.950 . S
C3003 C2999 1.393 . S
C3003 C3002 1.391 . S
H3004 C3012 0.950 . S
H3005 C3017 0.950 . S
H3006 C3014 0.950 . S
H3007 C3016 0.950 . S
H3008 C3018 0.950 . S
H3009 C3020 0.950 . S
H3010 C3022 0.950 . S
H3011 C3023 0.950 . S
C3012 H3004 0.950 . S
C3012 C3013 1.386 . S
C3012 C3014 1.391 . S
C3013 C3012 1.386 . S
C3013 C3017 1.393 . S
C3014 H3006 0.950 . S
C3014 C3012 1.391 . S
C3014 C3015 1.400 . S
C3015 C3014 1.400 . S
C3015 C3016 1.398 . S
C3015 C3021 1.491 . S
C3016 H3007 0.950 . S
C3016 C3015 1.398 . S
C3016 C3017 1.391 . S
C3017 H3005 0.950 . S
C3017 C3013 1.393 . S
C3017 C3016 1.391 . S
C3018 H3008 0.950 . S
C3018 C3019 1.386 . S
C3018 C3020 1.391 . S
C3019 C3018 1.386 . S
C3019 C3023 1.393 . S
C3020 H3009 0.950 . S
C3020 C3018 1.391 . S
C3020 C3021 1.400 . S
C3021 C3015 1.491 . S
C3021 C3020 1.400 . S
C3021 C3022 1.398 . S
C3022 H3010 0.950 . S
C3022 C3021 1.398 . S
C3022 C3023 1.391 . S
C3023 H3011 0.950 . S
C3023 C3019 1.393 . S
C3023 C3022 1.391 . S
H3024 C3032 0.950 . S
H3025 C3037 0.950 . S
H3026 C3034 0.950 . S
H3027 C3036 0.950 . S
H3028 C3038 0.950 . S
H3029 C3040 0.950 . S
H3030 C3042 0.950 . S
H3031 C3043 0.950 . S
C3032 H3024 0.950 . S
C3032 C3033 1.386 . S
C3032 C3034 1.391 . S
C3033 C3032 1.386 . S
C3033 C3037 1.393 . S
C3034 H3026 0.950 . S
C3034 C3032 1.391 . S
C3034 C3035 1.400 . S
C3035 C3034 1.400 . S
C3035 C3036 1.398 . S
C3035 C3041 1.491 . S
C3036 H3027 0.950 . S
C3036 C3035 1.398 . S
C3036 C3037 1.391 . S
C3037 H3025 0.950 . S
C3037 C3033 1.393 . S
C3037 C3036 1.391 . S
C3038 H3028 0.950 . S
C3038 C3039 1.386 . S
C3038 C3040 1.391 . S
C3039 C3038 1.386 . S
C3039 C3043 1.393 . S
C3040 H3029 0.950 . S
C3040 C3038 1.391 . S
C3040 C3041 1.400 . S
C3041 C3035 1.491 . S
C3041 C3040 1.400 . S
C3041 C3042 1.398 . S
C3042 H3030 0.950 . S
C3042 C3041 1.398 . S
C3042 C3043 1.391 . S
C3043 H3031 0.950 . S
C3043 C3039 1.393 . S
C3043 C3042 1.391 . S
H3044 C3052 0.950 . S
H3045 C3057 0.950 . S
H3046 C3054 0.950 . S
H3047 C3056 0.950 . S
H3048 C3058 0.950 . S
H3049 C3060 0.950 . S
H3050 C3062 0.950 . S
H3051 C3063 0.950 . S
C3052 H3044 0.950 . S
C3052 C3053 1.386 . S
C3052 C3054 1.391 . S
C3053 C3052 1.386 . S
C3053 C3057 1.393 . S
C3054 H3046 0.950 . S
C3054 C3052 1.391 . S
C3054 C3055 1.400 . S
C3055 C3054 1.400 . S
C3055 C3056 1.398 . S
C3055 C3061 1.491 . S
C3056 H3047 0.950 . S
C3056 C3055 1.398 . S
C3056 C3057 1.391 . S
C3057 H3045 0.950 . S
C3057 C3053 1.393 . S
C3057 C3056 1.391 . S
C3058 H3048 0.950 . S
C3058 C3059 1.386 . S
C3058 C3060 1.391 . S
C3059 C3058 1.386 . S
C3059 C3063 1.393 . S
C3060 H3049 0.950 . S
C3060 C3058 1.391 . S
C3060 C3061 1.400 . S
C3061 C3055 1.491 . S
C3061 C3060 1.400 . S
C3061 C3062 1.398 . S
C3062 H3050 0.950 . S
C3062 C3061 1.398 . S
C3062 C3063 1.391 . S
C3063 H3051 0.950 . S
C3063 C3059 1.393 . S
C3063 C3062 1.391 . S
H3064 C3072 0.950 . S
H3065 C3077 0.950 . S
H3066 C3074 0.950 . S
H3067 C3076 0.950 . S
H3068 C3078 0.950 . S
H3069 C3080 0.950 . S
H3070 C3082 0.950 . S
H3071 C3083 0.950 . S
C3072 H3064 0.950 . S
C3072 C3073 1.386 . S
C3072 C3074 1.391 . S
C3073 C3072 1.386 . S
C3073 C3077 1.393 . S
C3074 H3066 0.950 . S
C3074 C3072 1.391 . S
C3074 C3075 1.400 . S
C3075 C3074 1.400 . S
C3075 C3076 1.398 . S
C3075 C3081 1.491 . S
C3076 H3067 0.950 . S
C3076 C3075 1.398 . S
C3076 C3077 1.391 . S
C3077 H3065 0.950 . S
C3077 C3073 1.393 . S
C3077 C3076 1.391 . S
C3078 H3068 0.950 . S
C3078 C3079 1.386 . S
C3078 C3080 1.391 . S
C3079 C3078 1.386 . S
C3079 C3083 1.393 . S
C3080 H3069 0.950 . S
C3080 C3078 1.391 . S
C3080 C3081 1.400 . S
C3081 C3075 1.491 . S
C3081 C3080 1.400 . S
C3081 C3082 1.398 . S
C3082 H3070 0.950 . S
C3082 C3081 1.398 . S
C3082 C3083 1.391 . S
C3083 H3071 0.950 . S
C3083 C3079 1.393 . S
C3083 C3082 1.391 . S
H3084 C3092 0.950 . S
H3085 C3097 0.950 . S
H3086 C3094 0.950 . S
H3087 C3096 0.950 . S
H3088 C3098 0.950 . S
H3089 C3100 0.950 . S
H3090 C3102 0.950 . S
H3091 C3103 0.950 . S
C3092 H3084 0.950 . S
C3092 C3093 1.386 . S
C3092 C3094 1.391 . S
C3093 C3092 1.386 . S
C3093 C3097 1.393 . S
C3094 H3086 0.950 . S
C3094 C3092 1.391 . S
C3094 C3095 1.400 . S
C3095 C3094 1.400 . S
C3095 C3096 1.398 . S
C3095 C3101 1.491 . S
C3096 H3087 0.950 . S
C3096 C3095 1.398 . S
C3096 C3097 1.391 . S
C3097 H3085 0.950 . S
C3097 C3093 1.393 . S
C3097 C3096 1.391 . S
C3098 H3088 0.950 . S
C3098 C3099 1.386 . S
C3098 C3100 1.391 . S
C3099 C3098 1.386 . S
C3099 C3103 1.393 . S
C3100 H3089 0.950 . S
C3100 C3098 1.391 . S
C3100 C3101 1.400 . S
C3101 C3095 1.491 . S
C3101 C3100 1.400 . S
C3101 C3102 1.398 . S
C3102 H3090 0.950 . S
C3102 C3101 1.398 . S
C3102 C3103 1.391 . S
C3103 H3091 0.950 . S
C3103 C3099 1.393 . S
C3103 C3102 1.391 . S
H3104 C3112 0.950 . S
H3105 C3117 0.950 . S
H3106 C3114 0.950 . S
H3107 C3116 0.950 . S
H3108 C3118 0.950 . S
H3109 C3120 0.950 . S
H3110 C3122 0.950 . S
H3111 C3123 0.950 . S
C3112 H3104 0.950 . S
C3112 C3113 1.386 . S
C3112 C3114 1.391 . S
C3113 C3112 1.386 . S
C3113 C3117 1.393 . S
C3114 H3106 0.950 . S
C3114 C3112 1.391 . S
C3114 C3115 1.400 . S
C3115 C3114 1.400 . S
C3115 C3116 1.398 . S
C3115 C3121 1.491 . S
C3116 H3107 0.950 . S
C3116 C3115 1.398 . S
C3116 C3117 1.391 . S
C3117 H3105 0.950 . S
C3117 C3113 1.393 . S
C3117 C3116 1.391 . S
C3118 H3108 0.950 . S
C3118 C3119 1.386 . S
C3118 C3120 1.391 . S
C3119 C3118 1.386 . S
C3119 C3123 1.393 . S
C3120 H3109 0.950 . S
C3120 C3118 1.391 . S
C3120 C3121 1.400 . S
C3121 C3115 1.491 . S
C3121 C3120 1.400 . S
C3121 C3122 1.398 . S
C3122 H3110 0.950 . S
C3122 C3121 1.398 . S
C3122 C3123 1.391 . S
C3123 H3111 0.950 . S
C3123 C3119 1.393 . S
C3123 C3122 1.391 . S
H3124 C3132 0.950 . S
H3125 C3137 0.950 . S
H3126 C3134 0.950 . S
H3127 C3136 0.950 . S
H3128 C3138 0.950 . S
H3129 C3140 0.950 . S
H3130 C3142 0.950 . S
H3131 C3143 0.950 . S
C3132 H3124 0.950 . S
C3132 C3133 1.386 . S
C3132 C3134 1.391 . S
C3133 C3132 1.386 . S
C3133 C3137 1.393 . S
C3134 H3126 0.950 . S
C3134 C3132 1.391 . S
C3134 C3135 1.400 . S
C3135 C3134 1.400 . S
C3135 C3136 1.398 . S
C3135 C3141 1.491 . S
C3136 H3127 0.950 . S
C3136 C3135 1.398 . S
C3136 C3137 1.391 . S
C3137 H3125 0.950 . S
C3137 C3133 1.393 . S
C3137 C3136 1.391 . S
C3138 H3128 0.950 . S
C3138 C3139 1.386 . S
C3138 C3140 1.391 . S
C3139 C3138 1.386 . S
C3139 C3143 1.393 . S
C3140 H3129 0.950 . S
C3140 C3138 1.391 . S
C3140 C3141 1.400 . S
C3141 C3135 1.491 . S
C3141 C3140 1.400 . S
C3141 C3142 1.398 . S
C3142 H3130 0.950 . S
C3142 C3141 1.398 . S
C3142 C3143 1.391 . S
C3143 H3131 0.950 . S
C3143 C3139 1.393 . S
C3143 C3142 1.391 . S
H3144 C3152 0.950 . S
H3145 C3157 0.950 . S
H3146 C3154 0.950 . S
H3147 C3156 0.950 . S
H3148 C3158 0.950 . S
H3149 C3160 0.950 . S
H3150 C3162 0.950 . S
H3151 C3163 0.950 . S
C3152 H3144 0.950 . S
C3152 C3153 1.386 . S
C3152 C3154 1.391 . S
C3153 C3152 1.386 . S
C3153 C3157 1.393 . S
C3154 H3146 0.950 . S
C3154 C3152 1.391 . S
C3154 C3155 1.400 . S
C3155 C3154 1.400 . S
C3155 C3156 1.398 . S
C3155 C3161 1.491 . S
C3156 H3147 0.950 . S
C3156 C3155 1.398 . S
C3156 C3157 1.391 . S
C3157 H3145 0.950 . S
C3157 C3153 1.393 . S
C3157 C3156 1.391 . S
C3158 H3148 0.950 . S
C3158 C3159 1.386 . S
C3158 C3160 1.391 . S
C3159 C3158 1.386 . S
C3159 C3163 1.393 . S
C3160 H3149 0.950 . S
C3160 C3158 1.391 . S
C3160 C3161 1.400 . S
C3161 C3155 1.491 . S
C3161 C3160 1.400 . S
C3161 C3162 1.398 . S
C3162 H3150 0.950 . S
C3162 C3161 1.398 . S
C3162 C3163 1.391 . S
C3163 H3151 0.950 . S
C3163 C3159 1.393 . S
C3163 C3162 1.391 . S
H3164 C3172 0.950 . S
H3165 C3177 0.950 . S
H3166 C3174 0.950 . S
H3167 C3176 0.950 . S
H3168 C3178 0.950 . S
H3169 C3180 0.950 . S
H3170 C3182 0.950 . S
H3171 C3183 0.950 . S
C3172 H3164 0.950 . S
C3172 C3173 1.386 . S
C3172 C3174 1.391 . S
C3173 C3172 1.386 . S
C3173 C3177 1.393 . S
C3174 H3166 0.950 . S
C3174 C3172 1.391 . S
C3174 C3175 1.400 . S
C3175 C3174 1.400 . S
C3175 C3176 1.398 . S
C3175 C3181 1.491 . S
C3176 H3167 0.950 . S
C3176 C3175 1.398 . S
C3176 C3177 1.391 . S
C3177 H3165 0.950 . S
C3177 C3173 1.393 . S
C3177 C3176 1.391 . S
C3178 H3168 0.950 . S
C3178 C3179 1.386 . S
C3178 C3180 1.391 . S
C3179 C3178 1.386 . S
C3179 C3183 1.393 . S
C3180 H3169 0.950 . S
C3180 C3178 1.391 . S
C3180 C3181 1.400 . S
C3181 C3175 1.491 . S
C3181 C3180 1.400 . S
C3181 C3182 1.398 . S
C3182 H3170 0.950 . S
C3182 C3181 1.398 . S
C3182 C3183 1.391 . S
C3183 H3171 0.950 . S
C3183 C3179 1.393 . S
C3183 C3182 1.391 . S
H3184 C3192 0.950 . S
H3185 C3197 0.950 . S
H3186 C3194 0.950 . S
H3187 C3196 0.950 . S
H3188 C3198 0.950 . S
H3189 C3200 0.950 . S
H3190 C3202 0.950 . S
H3191 C3203 0.950 . S
C3192 H3184 0.950 . S
C3192 C3193 1.386 . S
C3192 C3194 1.391 . S
C3193 C3192 1.386 . S
C3193 C3197 1.393 . S
C3194 H3186 0.950 . S
C3194 C3192 1.391 . S
C3194 C3195 1.400 . S
C3195 C3194 1.400 . S
C3195 C3196 1.398 . S
C3195 C3201 1.491 . S
C3196 H3187 0.950 . S
C3196 C3195 1.398 . S
C3196 C3197 1.391 . S
C3197 H3185 0.950 . S
C3197 C3193 1.393 . S
C3197 C3196 1.391 . S
C3198 H3188 0.950 . S
C3198 C3199 1.386 . S
C3198 C3200 1.391 . S
C3199 C3198 1.386 . S
C3199 C3203 1.393 . S
C3200 H3189 0.950 . S
C3200 C3198 1.391 . S
C3200 C3201 1.400 . S
C3201 C3195 1.491 . S
C3201 C3200 1.400 . S
C3201 C3202 1.398 . S
C3202 H3190 0.950 . S
C3202 C3201 1.398 . S
C3202 C3203 1.391 . S
C3203 H3191 0.950 . S
C3203 C3199 1.393 . S
C3203 C3202 1.391 . S
H3204 C3212 0.950 . S
H3205 C3217 0.950 . S
H3206 C3214 0.950 . S
H3207 C3216 0.950 . S
H3208 C3218 0.950 . S
H3209 C3220 0.950 . S
H3210 C3222 0.950 . S
H3211 C3223 0.950 . S
C3212 H3204 0.950 . S
C3212 C3213 1.386 . S
C3212 C3214 1.391 . S
C3213 C3212 1.386 . S
C3213 C3217 1.393 . S
C3214 H3206 0.950 . S
C3214 C3212 1.391 . S
C3214 C3215 1.400 . S
C3215 C3214 1.400 . S
C3215 C3216 1.398 . S
C3215 C3221 1.491 . S
C3216 H3207 0.950 . S
C3216 C3215 1.398 . S
C3216 C3217 1.391 . S
C3217 H3205 0.950 . S
C3217 C3213 1.393 . S
C3217 C3216 1.391 . S
C3218 H3208 0.950 . S
C3218 C3219 1.386 . S
C3218 C3220 1.391 . S
C3219 C3218 1.386 . S
C3219 C3223 1.393 . S
C3220 H3209 0.950 . S
C3220 C3218 1.391 . S
C3220 C3221 1.400 . S
C3221 C3215 1.491 . S
C3221 C3220 1.400 . S
C3221 C3222 1.398 . S
C3222 H3210 0.950 . S
C3222 C3221 1.398 . S
C3222 C3223 1.391 . S
C3223 H3211 0.950 . S
C3223 C3219 1.393 . S
C3223 C3222 1.391 . S
H3224 C3232 0.950 . S
H3225 C3237 0.950 . S
H3226 C3234 0.950 . S
H3227 C3236 0.950 . S
H3228 C3238 0.950 . S
H3229 C3240 0.950 . S
H3230 C3242 0.950 . S
H3231 C3243 0.950 . S
C3232 H3224 0.950 . S
C3232 C3233 1.386 . S
C3232 C3234 1.391 . S
C3233 C3232 1.386 . S
C3233 C3237 1.393 . S
C3234 H3226 0.950 . S
C3234 C3232 1.391 . S
C3234 C3235 1.400 . S
C3235 C3234 1.400 . S
C3235 C3236 1.398 . S
C3235 C3241 1.491 . S
C3236 H3227 0.950 . S
C3236 C3235 1.398 . S
C3236 C3237 1.391 . S
C3237 H3225 0.950 . S
C3237 C3233 1.393 . S
C3237 C3236 1.391 . S
C3238 H3228 0.950 . S
C3238 C3239 1.386 . S
C3238 C3240 1.391 . S
C3239 C3238 1.386 . S
C3239 C3243 1.393 . S
C3240 H3229 0.950 . S
C3240 C3238 1.391 . S
C3240 C3241 1.400 . S
C3241 C3235 1.491 . S
C3241 C3240 1.400 . S
C3241 C3242 1.398 . S
C3242 H3230 0.950 . S
C3242 C3241 1.398 . S
C3242 C3243 1.391 . S
C3243 H3231 0.950 . S
C3243 C3239 1.393 . S
C3243 C3242 1.391 . S
H3244 C3252 0.950 . S
H3245 C3257 0.950 . S
H3246 C3254 0.950 . S
H3247 C3256 0.950 . S
H3248 C3258 0.950 . S
H3249 C3260 0.950 . S
H3250 C3262 0.950 . S
H3251 C3263 0.950 . S
C3252 H3244 0.950 . S
C3252 C3253 1.386 . S
C3252 C3254 1.391 . S
C3253 C3252 1.386 . S
C3253 C3257 1.393 . S
C3254 H3246 0.950 . S
C3254 C3252 1.391 . S
C3254 C3255 1.400 . S
C3255 C3254 1.400 . S
C3255 C3256 1.398 . S
C3255 C3261 1.491 . S
C3256 H3247 0.950 . S
C3256 C3255 1.398 . S
C3256 C3257 1.391 . S
C3257 H3245 0.950 . S
C3257 C3253 1.393 . S
C3257 C3256 1.391 . S
C3258 H3248 0.950 . S
C3258 C3259 1.386 . S
C3258 C3260 1.391 . S
C3259 C3258 1.386 . S
C3259 C3263 1.393 . S
C3260 H3249 0.950 . S
C3260 C3258 1.391 . S
C3260 C3261 1.400 . S
C3261 C3255 1.491 . S
C3261 C3260 1.400 . S
C3261 C3262 1.398 . S
C3262 H3250 0.950 . S
C3262 C3261 1.398 . S
C3262 C3263 1.391 . S
C3263 H3251 0.950 . S
C3263 C3259 1.393 . S
C3263 C3262 1.391 . S
H3264 C3272 0.950 . S
H3265 C3277 0.950 . S
H3266 C3274 0.950 . S
H3267 C3276 0.950 . S
H3268 C3278 0.950 . S
H3269 C3280 0.950 . S
H3270 C3282 0.950 . S
H3271 C3283 0.950 . S
C3272 H3264 0.950 . S
C3272 C3273 1.386 . S
C3272 C3274 1.391 . S
C3273 C3272 1.386 . S
C3273 C3277 1.393 . S
C3274 H3266 0.950 . S
C3274 C3272 1.391 . S
C3274 C3275 1.400 . S
C3275 C3274 1.400 . S
C3275 C3276 1.398 . S
C3275 C3281 1.491 . S
C3276 H3267 0.950 . S
C3276 C3275 1.398 . S
C3276 C3277 1.391 . S
C3277 H3265 0.950 . S
C3277 C3273 1.393 . S
C3277 C3276 1.391 . S
C3278 H3268 0.950 . S
C3278 C3279 1.386 . S
C3278 C3280 1.391 . S
C3279 C3278 1.386 . S
C3279 C3283 1.393 . S
C3280 H3269 0.950 . S
C3280 C3278 1.391 . S
C3280 C3281 1.400 . S
C3281 C3275 1.491 . S
C3281 C3280 1.400 . S
C3281 C3282 1.398 . S
C3282 H3270 0.950 . S
C3282 C3281 1.398 . S
C3282 C3283 1.391 . S
C3283 H3271 0.950 . S
C3283 C3279 1.393 . S
C3283 C3282 1.391 . S
H3284 C3292 0.950 . S
H3285 C3297 0.950 . S
H3286 C3294 0.950 . S
H3287 C3296 0.950 . S
H3288 C3298 0.950 . S
H3289 C3300 0.950 . S
H3290 C3302 0.950 . S
H3291 C3303 0.950 . S
C3292 H3284 0.950 . S
C3292 C3293 1.386 . S
C3292 C3294 1.391 . S
C3293 C3292 1.386 . S
C3293 C3297 1.393 . S
C3294 H3286 0.950 . S
C3294 C3292 1.391 . S
C3294 C3295 1.400 . S
C3295 C3294 1.400 . S
C3295 C3296 1.398 . S
C3295 C3301 1.491 . S
C3296 H3287 0.950 . S
C3296 C3295 1.398 . S
C3296 C3297 1.391 . S
C3297 H3285 0.950 . S
C3297 C3293 1.393 . S
C3297 C3296 1.391 . S
C3298 H3288 0.950 . S
C3298 C3299 1.386 . S
C3298 C3300 1.391 . S
C3299 C3298 1.386 . S
C3299 C3303 1.393 . S
C3300 H3289 0.950 . S
C3300 C3298 1.391 . S
C3300 C3301 1.400 . S
C3301 C3295 1.491 . S
C3301 C3300 1.400 . S
C3301 C3302 1.398 . S
C3302 H3290 0.950 . S
C3302 C3301 1.398 . S
C3302 C3303 1.391 . S
C3303 H3291 0.950 . S
C3303 C3299 1.393 . S
C3303 C3302 1.391 . S
H3304 C3312 0.950 . S
H3305 C3317 0.950 . S
H3306 C3314 0.950 . S
H3307 C3316 0.950 . S
H3308 C3318 0.950 . S
H3309 C3320 0.950 . S
H3310 C3322 0.950 . S
H3311 C3323 0.950 . S
C3312 H3304 0.950 . S
C3312 C3313 1.386 . S
C3312 C3314 1.391 . S
C3313 C3312 1.386 . S
C3313 C3317 1.393 . S
C3314 H3306 0.950 . S
C3314 C3312 1.391 . S
C3314 C3315 1.400 . S
C3315 C3314 1.400 . S
C3315 C3316 1.398 . S
C3315 C3321 1.491 . S
C3316 H3307 0.950 . S
C3316 C3315 1.398 . S
C3316 C3317 1.391 . S
C3317 H3305 0.950 . S
C3317 C3313 1.393 . S
C3317 C3316 1.391 . S
C3318 H3308 0.950 . S
C3318 C3319 1.386 . S
C3318 C3320 1.391 . S
C3319 C3318 1.386 . S
C3319 C3323 1.393 . S
C3320 H3309 0.950 . S
C3320 C3318 1.391 . S
C3320 C3321 1.400 . S
C3321 C3315 1.491 . S
C3321 C3320 1.400 . S
C3321 C3322 1.398 . S
C3322 H3310 0.950 . S
C3322 C3321 1.398 . S
C3322 C3323 1.391 . S
C3323 H3311 0.950 . S
C3323 C3319 1.393 . S
C3323 C3322 1.391 . S
H3324 C3332 0.950 . S
H3325 C3337 0.950 . S
H3326 C3334 0.950 . S
H3327 C3336 0.950 . S
H3328 C3338 0.950 . S
H3329 C3340 0.950 . S
H3330 C3342 0.950 . S
H3331 C3343 0.950 . S
C3332 H3324 0.950 . S
C3332 C3333 1.386 . S
C3332 C3334 1.391 . S
C3333 C3332 1.386 . S
C3333 C3337 1.393 . S
C3334 H3326 0.950 . S
C3334 C3332 1.391 . S
C3334 C3335 1.400 . S
C3335 C3334 1.400 . S
C3335 C3336 1.398 . S
C3335 C3341 1.491 . S
C3336 H3327 0.950 . S
C3336 C3335 1.398 . S
C3336 C3337 1.391 . S
C3337 H3325 0.950 . S
C3337 C3333 1.393 . S
C3337 C3336 1.391 . S
C3338 H3328 0.950 . S
C3338 C3339 1.386 . S
C3338 C3340 1.391 . S
C3339 C3338 1.386 . S
C3339 C3343 1.393 . S
C3340 H3329 0.950 . S
C3340 C3338 1.391 . S
C3340 C3341 1.400 . S
C3341 C3335 1.491 . S
C3341 C3340 1.400 . S
C3341 C3342 1.398 . S
C3342 H3330 0.950 . S
C3342 C3341 1.398 . S
C3342 C3343 1.391 . S
C3343 H3331 0.950 . S
C3343 C3339 1.393 . S
C3343 C3342 1.391 . S
H3344 C3352 0.950 . S
H3345 C3357 0.950 . S
H3346 C3354 0.950 . S
H3347 C3356 0.950 . S
H3348 C3358 0.950 . S
H3349 C3360 0.950 . S
H3350 C3362 0.950 . S
H3351 C3363 0.950 . S
C3352 H3344 0.950 . S
C3352 C3353 1.386 . S
C3352 C3354 1.391 . S
C3353 C3352 1.386 . S
C3353 C3357 1.393 . S
C3354 H3346 0.950 . S
C3354 C3352 1.391 . S
C3354 C3355 1.400 . S
C3355 C3354 1.400 . S
C3355 C3356 1.398 . S
C3355 C3361 1.491 . S
C3356 H3347 0.950 . S
C3356 C3355 1.398 . S
C3356 C3357 1.391 . S
C3357 H3345 0.950 . S
C3357 C3353 1.393 . S
C3357 C3356 1.391 . S
C3358 H3348 0.950 . S
C3358 C3359 1.386 . S
C3358 C3360 1.391 . S
C3359 C3358 1.386 . S
C3359 C3363 1.393 . S
C3360 H3349 0.950 . S
C3360 C3358 1.391 . S
C3360 C3361 1.400 . S
C3361 C3355 1.491 . S
C3361 C3360 1.400 . S
C3361 C3362 1.398 . S
C3362 H3350 0.950 . S
C3362 C3361 1.398 . S
C3362 C3363 1.391 . S
C3363 H3351 0.950 . S
C3363 C3359 1.393 . S
C3363 C3362 1.391 . S
H3364 C3372 0.950 . S
H3365 C3377 0.950 . S
H3366 C3374 0.950 . S
H3367 C3376 0.950 . S
H3368 C3378 0.950 . S
H3369 C3380 0.950 . S
H3370 C3382 0.950 . S
H3371 C3383 0.950 . S
C3372 H3364 0.950 . S
C3372 C3373 1.386 . S
C3372 C3374 1.391 . S
C3373 C3372 1.386 . S
C3373 C3377 1.393 . S
C3374 H3366 0.950 . S
C3374 C3372 1.391 . S
C3374 C3375 1.400 . S
C3375 C3374 1.400 . S
C3375 C3376 1.398 . S
C3375 C3381 1.491 . S
C3376 H3367 0.950 . S
C3376 C3375 1.398 . S
C3376 C3377 1.391 . S
C3377 H3365 0.950 . S
C3377 C3373 1.393 . S
C3377 C3376 1.391 . S
C3378 H3368 0.950 . S
C3378 C3379 1.386 . S
C3378 C3380 1.391 . S
C3379 C3378 1.386 . S
C3379 C3383 1.393 . S
C3380 H3369 0.950 . S
C3380 C3378 1.391 . S
C3380 C3381 1.400 . S
C3381 C3375 1.491 . S
C3381 C3380 1.400 . S
C3381 C3382 1.398 . S
C3382 H3370 0.950 . S
C3382 C3381 1.398 . S
C3382 C3383 1.391 . S
C3383 H3371 0.950 . S
C3383 C3379 1.393 . S
C3383 C3382 1.391 . S
H3384 C3392 0.950 . S
H3385 C3397 0.950 . S
H3386 C3394 0.950 . S
H3387 C3396 0.950 . S
H3388 C3398 0.950 . S
H3389 C3400 0.950 . S
H3390 C3402 0.950 . S
H3391 C3403 0.950 . S
C3392 H3384 0.950 . S
C3392 C3393 1.386 . S
C3392 C3394 1.391 . S
C3393 C3392 1.386 . S
C3393 C3397 1.393 . S
C3394 H3386 0.950 . S
C3394 C3392 1.391 . S
C3394 C3395 1.400 . S
C3395 C3394 1.400 . S
C3395 C3396 1.398 . S
C3395 C3401 1.491 . S
C3396 H3387 0.950 . S
C3396 C3395 1.398 . S
C3396 C3397 1.391 . S
C3397 H3385 0.950 . S
C3397 C3393 1.393 . S
C3397 C3396 1.391 . S
C3398 H3388 0.950 . S
C3398 C3399 1.386 . S
C3398 C3400 1.391 . S
C3399 C3398 1.386 . S
C3399 C3403 1.393 . S
C3400 H3389 0.950 . S
C3400 C3398 1.391 . S
C3400 C3401 1.400 . S
C3401 C3395 1.491 . S
C3401 C3400 1.400 . S
C3401 C3402 1.398 . S
C3402 H3390 0.950 . S
C3402 C3401 1.398 . S
C3402 C3403 1.391 . S
C3403 H3391 0.950 . S
C3403 C3399 1.393 . S
C3403 C3402 1.391 . S
H3404 C3412 0.950 . S
H3405 C3417 0.950 . S
H3406 C3414 0.950 . S
H3407 C3416 0.950 . S
H3408 C3418 0.950 . S
H3409 C3420 0.950 . S
H3410 C3422 0.950 . S
H3411 C3423 0.950 . S
C3412 H3404 0.950 . S
C3412 C3413 1.386 . S
C3412 C3414 1.391 . S
C3413 C3412 1.386 . S
C3413 C3417 1.393 . S
C3414 H3406 0.950 . S
C3414 C3412 1.391 . S
C3414 C3415 1.400 . S
C3415 C3414 1.400 . S
C3415 C3416 1.398 . S
C3415 C3421 1.491 . S
C3416 H3407 0.950 . S
C3416 C3415 1.398 . S
C3416 C3417 1.391 . S
C3417 H3405 0.950 . S
C3417 C3413 1.393 . S
C3417 C3416 1.391 . S
C3418 H3408 0.950 . S
C3418 C3419 1.386 . S
C3418 C3420 1.391 . S
C3419 C3418 1.386 . S
C3419 C3423 1.393 . S
C3420 H3409 0.950 . S
C3420 C3418 1.391 . S
C3420 C3421 1.400 . S
C3421 C3415 1.491 . S
C3421 C3420 1.400 . S
C3421 C3422 1.398 . S
C3422 H3410 0.950 . S
C3422 C3421 1.398 . S
C3422 C3423 1.391 . S
C3423 H3411 0.950 . S
C3423 C3419 1.393 . S
C3423 C3422 1.391 . S
H3424 C3432 0.950 . S
H3425 C3437 0.950 . S
H3426 C3434 0.950 . S
H3427 C3436 0.950 . S
H3428 C3438 0.950 . S
H3429 C3440 0.950 . S
H3430 C3442 0.950 . S
H3431 C3443 0.950 . S
C3432 H3424 0.950 . S
C3432 C3433 1.386 . S
C3432 C3434 1.391 . S
C3433 C3432 1.386 . S
C3433 C3437 1.393 . S
C3434 H3426 0.950 . S
C3434 C3432 1.391 . S
C3434 C3435 1.400 . S
C3435 C3434 1.400 . S
C3435 C3436 1.398 . S
C3435 C3441 1.491 . S
C3436 H3427 0.950 . S
C3436 C3435 1.398 . S
C3436 C3437 1.391 . S
C3437 H3425 0.950 . S
C3437 C3433 1.393 . S
C3437 C3436 1.391 . S
C3438 H3428 0.950 . S
C3438 C3439 1.386 . S
C3438 C3440 1.391 . S
C3439 C3438 1.386 . S
C3439 C3443 1.393 . S
C3440 H3429 0.950 . S
C3440 C3438 1.391 . S
C3440 C3441 1.400 . S
C3441 C3435 1.491 . S
C3441 C3440 1.400 . S
C3441 C3442 1.398 . S
C3442 H3430 0.950 . S
C3442 C3441 1.398 . S
C3442 C3443 1.391 . S
C3443 H3431 0.950 . S
C3443 C3439 1.393 . S
C3443 C3442 1.391 . S
H3444 C3452 0.950 . S
H3445 C3457 0.950 . S
H3446 C3454 0.950 . S
H3447 C3456 0.950 . S
H3448 C3458 0.950 . S
H3449 C3460 0.950 . S
H3450 C3462 0.950 . S
H3451 C3463 0.950 . S
C3452 H3444 0.950 . S
C3452 C3453 1.386 . S
C3452 C3454 1.391 . S
C3453 C3452 1.386 . S
C3453 C3457 1.393 . S
C3454 H3446 0.950 . S
C3454 C3452 1.391 . S
C3454 C3455 1.400 . S
C3455 C3454 1.400 . S
C3455 C3456 1.398 . S
C3455 C3461 1.491 . S
C3456 H3447 0.950 . S
C3456 C3455 1.398 . S
C3456 C3457 1.391 . S
C3457 H3445 0.950 . S
C3457 C3453 1.393 . S
C3457 C3456 1.391 . S
C3458 H3448 0.950 . S
C3458 C3459 1.386 . S
C3458 C3460 1.391 . S
C3459 C3458 1.386 . S
C3459 C3463 1.393 . S
C3460 H3449 0.950 . S
C3460 C3458 1.391 . S
C3460 C3461 1.400 . S
C3461 C3455 1.491 . S
C3461 C3460 1.400 . S
C3461 C3462 1.398 . S
C3462 H3450 0.950 . S
C3462 C3461 1.398 . S
C3462 C3463 1.391 . S
C3463 H3451 0.950 . S
C3463 C3459 1.393 . S
C3463 C3462 1.391 . S
H3464 C3472 0.950 . S
H3465 C3477 0.950 . S
H3466 C3474 0.950 . S
H3467 C3476 0.950 . S
H3468 C3478 0.950 . S
H3469 C3480 0.950 . S
H3470 C3482 0.950 . S
H3471 C3483 0.950 . S
C3472 H3464 0.950 . S
C3472 C3473 1.386 . S
C3472 C3474 1.391 . S
C3473 C3472 1.386 . S
C3473 C3477 1.393 . S
C3474 H3466 0.950 . S
C3474 C3472 1.391 . S
C3474 C3475 1.400 . S
C3475 C3474 1.400 . S
C3475 C3476 1.398 . S
C3475 C3481 1.491 . S
C3476 H3467 0.950 . S
C3476 C3475 1.398 . S
C3476 C3477 1.391 . S
C3477 H3465 0.950 . S
C3477 C3473 1.393 . S
C3477 C3476 1.391 . S
C3478 H3468 0.950 . S
C3478 C3479 1.386 . S
C3478 C3480 1.391 . S
C3479 C3478 1.386 . S
C3479 C3483 1.393 . S
C3480 H3469 0.950 . S
C3480 C3478 1.391 . S
C3480 C3481 1.400 . S
C3481 C3475 1.491 . S
C3481 C3480 1.400 . S
C3481 C3482 1.398 . S
C3482 H3470 0.950 . S
C3482 C3481 1.398 . S
C3482 C3483 1.391 . S
C3483 H3471 0.950 . S
C3483 C3479 1.393 . S
C3483 C3482 1.391 . S
H3484 C3492 0.950 . S
H3485 C3497 0.950 . S
H3486 C3494 0.950 . S
H3487 C3496 0.950 . S
H3488 C3498 0.950 . S
H3489 C3500 0.950 . S
H3490 C3502 0.950 . S
H3491 C3503 0.950 . S
C3492 H3484 0.950 . S
C3492 C3493 1.386 . S
C3492 C3494 1.391 . S
C3493 C3492 1.386 . S
C3493 C3497 1.393 . S
C3494 H3486 0.950 . S
C3494 C3492 1.391 . S
C3494 C3495 1.400 . S
C3495 C3494 1.400 . S
C3495 C3496 1.398 . S
C3495 C3501 1.491 . S
C3496 H3487 0.950 . S
C3496 C3495 1.398 . S
C3496 C3497 1.391 . S
C3497 H3485 0.950 . S
C3497 C3493 1.393 . S
C3497 C3496 1.391 . S
C3498 H3488 0.950 . S
C3498 C3499 1.386 . S
C3498 C3500 1.391 . S
C3499 C3498 1.386 . S
C3499 C3503 1.393 . S
C3500 H3489 0.950 . S
C3500 C3498 1.391 . S
C3500 C3501 1.400 . S
C3501 C3495 1.491 . S
C3501 C3500 1.400 . S
C3501 C3502 1.398 . S
C3502 H3490 0.950 . S
C3502 C3501 1.398 . S
C3502 C3503 1.391 . S
C3503 H3491 0.950 . S
C3503 C3499 1.393 . S
C3503 C3502 1.391 . S
H3504 C3512 0.950 . S
H3505 C3517 0.950 . S
H3506 C3514 0.950 . S
H3507 C3516 0.950 . S
H3508 C3518 0.950 . S
H3509 C3520 0.950 . S
H3510 C3522 0.950 . S
H3511 C3523 0.950 . S
C3512 H3504 0.950 . S
C3512 C3513 1.386 . S
C3512 C3514 1.391 . S
C3513 C3512 1.386 . S
C3513 C3517 1.393 . S
C3514 H3506 0.950 . S
C3514 C3512 1.391 . S
C3514 C3515 1.400 . S
C3515 C3514 1.400 . S
C3515 C3516 1.398 . S
C3515 C3521 1.491 . S
C3516 H3507 0.950 . S
C3516 C3515 1.398 . S
C3516 C3517 1.391 . S
C3517 H3505 0.950 . S
C3517 C3513 1.393 . S
C3517 C3516 1.391 . S
C3518 H3508 0.950 . S
C3518 C3519 1.386 . S
C3518 C3520 1.391 . S
C3519 C3518 1.386 . S
C3519 C3523 1.393 . S
C3520 H3509 0.950 . S
C3520 C3518 1.391 . S
C3520 C3521 1.400 . S
C3521 C3515 1.491 . S
C3521 C3520 1.400 . S
C3521 C3522 1.398 . S
C3522 H3510 0.950 . S
C3522 C3521 1.398 . S
C3522 C3523 1.391 . S
C3523 H3511 0.950 . S
C3523 C3519 1.393 . S
C3523 C3522 1.391 . S
H3524 C3532 0.950 . S
H3525 C3537 0.950 . S
H3526 C3534 0.950 . S
H3527 C3536 0.950 . S
H3528 C3538 0.950 . S
H3529 C3540 0.950 . S
H3530 C3542 0.950 . S
H3531 C3543 0.950 . S
C3532 H3524 0.950 . S
C3532 C3533 1.386 . S
C3532 C3534 1.391 . S
C3533 C3532 1.386 . S
C3533 C3537 1.393 . S
C3534 H3526 0.950 . S
C3534 C3532 1.391 . S
C3534 C3535 1.400 . S
C3535 C3534 1.400 . S
C3535 C3536 1.398 . S
C3535 C3541 1.491 . S
C3536 H3527 0.950 . S
C3536 C3535 1.398 . S
C3536 C3537 1.391 . S
C3537 H3525 0.950 . S
C3537 C3533 1.393 . S
C3537 C3536 1.391 . S
C3538 H3528 0.950 . S
C3538 C3539 1.386 . S
C3538 C3540 1.391 . S
C3539 C3538 1.386 . S
C3539 C3543 1.393 . S
C3540 H3529 0.950 . S
C3540 C3538 1.391 . S
C3540 C3541 1.400 . S
C3541 C3535 1.491 . S
C3541 C3540 1.400 . S
C3541 C3542 1.398 . S
C3542 H3530 0.950 . S
C3542 C3541 1.398 . S
C3542 C3543 1.391 . S
C3543 H3531 0.950 . S
C3543 C3539 1.393 . S
C3543 C3542 1.391 . S
H3544 C3552 0.950 . S
H3545 C3557 0.950 . S
H3546 C3554 0.950 . S
H3547 C3556 0.950 . S
H3548 C3558 0.950 . S
H3549 C3560 0.950 . S
H3550 C3562 0.950 . S
H3551 C3563 0.950 . S
C3552 H3544 0.950 . S
C3552 C3553 1.386 . S
C3552 C3554 1.391 . S
C3553 C3552 1.386 . S
C3553 C3557 1.393 . S
C3554 H3546 0.950 . S
C3554 C3552 1.391 . S
C3554 C3555 1.400 . S
C3555 C3554 1.400 . S
C3555 C3556 1.398 . S
C3555 C3561 1.491 . S
C3556 H3547 0.950 . S
C3556 C3555 1.398 . S
C3556 C3557 1.391 . S
C3557 H3545 0.950 . S
C3557 C3553 1.393 . S
C3557 C3556 1.391 . S
C3558 H3548 0.950 . S
C3558 C3559 1.386 . S
C3558 C3560 1.391 . S
C3559 C3558 1.386 . S
C3559 C3563 1.393 . S
C3560 H3549 0.950 . S
C3560 C3558 1.391 . S
C3560 C3561 1.400 . S
C3561 C3555 1.491 . S
C3561 C3560 1.400 . S
C3561 C3562 1.398 . S
C3562 H3550 0.950 . S
C3562 C3561 1.398 . S
C3562 C3563 1.391 . S
C3563 H3551 0.950 . S
C3563 C3559 1.393 . S
C3563 C3562 1.391 . S
H3564 C3572 0.950 . S
H3565 C3577 0.950 . S
H3566 C3574 0.950 . S
H3567 C3576 0.950 . S
H3568 C3578 0.950 . S
H3569 C3580 0.950 . S
H3570 C3582 0.950 . S
H3571 C3583 0.950 . S
C3572 H3564 0.950 . S
C3572 C3573 1.386 . S
C3572 C3574 1.391 . S
C3573 C3572 1.386 . S
C3573 C3577 1.393 . S
C3574 H3566 0.950 . S
C3574 C3572 1.391 . S
C3574 C3575 1.400 . S
C3575 C3574 1.400 . S
C3575 C3576 1.398 . S
C3575 C3581 1.491 . S
C3576 H3567 0.950 . S
C3576 C3575 1.398 . S
C3576 C3577 1.391 . S
C3577 H3565 0.950 . S
C3577 C3573 1.393 . S
C3577 C3576 1.391 . S
C3578 H3568 0.950 . S
C3578 C3579 1.386 . S
C3578 C3580 1.391 . S
C3579 C3578 1.386 . S
C3579 C3583 1.393 . S
C3580 H3569 0.950 . S
C3580 C3578 1.391 . S
C3580 C3581 1.400 . S
C3581 C3575 1.491 . S
C3581 C3580 1.400 . S
C3581 C3582 1.398 . S
C3582 H3570 0.950 . S
C3582 C3581 1.398 . S
C3582 C3583 1.391 . S
C3583 H3571 0.950 . S
C3583 C3579 1.393 . S
C3583 C3582 1.391 . S
H3584 C3592 0.950 . S
H3585 C3597 0.950 . S
H3586 C3594 0.950 . S
H3587 C3596 0.950 . S
H3588 C3598 0.950 . S
H3589 C3600 0.950 . S
H3590 C3602 0.950 . S
H3591 C3603 0.950 . S
C3592 H3584 0.950 . S
C3592 C3593 1.386 . S
C3592 C3594 1.391 . S
C3593 C3592 1.386 . S
C3593 C3597 1.393 . S
C3594 H3586 0.950 . S
C3594 C3592 1.391 . S
C3594 C3595 1.400 . S
C3595 C3594 1.400 . S
C3595 C3596 1.398 . S
C3595 C3601 1.491 . S
C3596 H3587 0.950 . S
C3596 C3595 1.398 . S
C3596 C3597 1.391 . S
C3597 H3585 0.950 . S
C3597 C3593 1.393 . S
C3597 C3596 1.391 . S
C3598 H3588 0.950 . S
C3598 C3599 1.386 . S
C3598 C3600 1.391 . S
C3599 C3598 1.386 . S
C3599 C3603 1.393 . S
C3600 H3589 0.950 . S
C3600 C3598 1.391 . S
C3600 C3601 1.400 . S
C3601 C3595 1.491 . S
C3601 C3600 1.400 . S
C3601 C3602 1.398 . S
C3602 H3590 0.950 . S
C3602 C3601 1.398 . S
C3602 C3603 1.391 . S
C3603 H3591 0.950 . S
C3603 C3599 1.393 . S
C3603 C3602 1.391 . S
H3604 C3612 0.950 . S
H3605 C3617 0.950 . S
H3606 C3614 0.950 . S
H3607 C3616 0.950 . S
H3608 C3618 0.950 . S
H3609 C3620 0.950 . S
H3610 C3622 0.950 . S
H3611 C3623 0.950 . S
C3612 H3604 0.950 . S
C3612 C3613 1.386 . S
C3612 C3614 1.391 . S
C3613 C3612 1.386 . S
C3613 C3617 1.393 . S
C3614 H3606 0.950 . S
C3614 C3612 1.391 . S
C3614 C3615 1.400 . S
C3615 C3614 1.400 . S
C3615 C3616 1.398 . S
C3615 C3621 1.491 . S
C3616 H3607 0.950 . S
C3616 C3615 1.398 . S
C3616 C3617 1.391 . S
C3617 H3605 0.950 . S
C3617 C3613 1.393 . S
C3617 C3616 1.391 . S
C3618 H3608 0.950 . S
C3618 C3619 1.386 . S
C3618 C3620 1.391 . S
C3619 C3618 1.386 . S
C3619 C3623 1.393 . S
C3620 H3609 0.950 . S
C3620 C3618 1.391 . S
C3620 C3621 1.400 . S
C3621 C3615 1.491 . S
C3621 C3620 1.400 . S
C3621 C3622 1.398 . S
C3622 H3610 0.950 . S
C3622 C3621 1.398 . S
C3622 C3623 1.391 . S
C3623 H3611 0.950 . S
C3623 C3619 1.393 . S
C3623 C3622 1.391 . S
H3624 C3632 0.950 . S
H3625 C3637 0.950 . S
H3626 C3634 0.950 . S
H3627 C3636 0.950 . S
H3628 C3638 0.950 . S
H3629 C3640 0.950 . S
H3630 C3642 0.950 . S
H3631 C3643 0.950 . S
C3632 H3624 0.950 . S
C3632 C3633 1.386 . S
C3632 C3634 1.391 . S
C3633 C3632 1.386 . S
C3633 C3637 1.393 . S
C3634 H3626 0.950 . S
C3634 C3632 1.391 . S
C3634 C3635 1.400 . S
C3635 C3634 1.400 . S
C3635 C3636 1.398 . S
C3635 C3641 1.491 . S
C3636 H3627 0.950 . S
C3636 C3635 1.398 . S
C3636 C3637 1.391 . S
C3637 H3625 0.950 . S
C3637 C3633 1.393 . S
C3637 C3636 1.391 . S
C3638 H3628 0.950 . S
C3638 C3639 1.386 . S
C3638 C3640 1.391 . S
C3639 C3638 1.386 . S
C3639 C3643 1.393 . S
C3640 H3629 0.950 . S
C3640 C3638 1.391 . S
C3640 C3641 1.400 . S
C3641 C3635 1.491 . S
C3641 C3640 1.400 . S
C3641 C3642 1.398 . S
C3642 H3630 0.950 . S
C3642 C3641 1.398 . S
C3642 C3643 1.391 . S
C3643 H3631 0.950 . S
C3643 C3639 1.393 . S
C3643 C3642 1.391 . S
H3644 C3652 0.950 . S
H3645 C3657 0.950 . S
H3646 C3654 0.950 . S
H3647 C3656 0.950 . S
H3648 C3658 0.950 . S
H3649 C3660 0.950 . S
H3650 C3662 0.950 . S
H3651 C3663 0.950 . S
C3652 H3644 0.950 . S
C3652 C3653 1.386 . S
C3652 C3654 1.391 . S
C3653 C3652 1.386 . S
C3653 C3657 1.393 . S
C3654 H3646 0.950 . S
C3654 C3652 1.391 . S
C3654 C3655 1.400 . S
C3655 C3654 1.400 . S
C3655 C3656 1.398 . S
C3655 C3661 1.491 . S
C3656 H3647 0.950 . S
C3656 C3655 1.398 . S
C3656 C3657 1.391 . S
C3657 H3645 0.950 . S
C3657 C3653 1.393 . S
C3657 C3656 1.391 . S
C3658 H3648 0.950 . S
C3658 C3659 1.386 . S
C3658 C3660 1.391 . S
C3659 C3658 1.386 . S
C3659 C3663 1.393 . S
C3660 H3649 0.950 . S
C3660 C3658 1.391 . S
C3660 C3661 1.400 . S
C3661 C3655 1.491 . S
C3661 C3660 1.400 . S
C3661 C3662 1.398 . S
C3662 H3650 0.950 . S
C3662 C3661 1.398 . S
C3662 C3663 1.391 . S
C3663 H3651 0.950 . S
C3663 C3659 1.393 . S
C3663 C3662 1.391 . S
H3664 C3672 0.950 . S
H3665 C3677 0.950 . S
H3666 C3674 0.950 . S
H3667 C3676 0.950 . S
H3668 C3678 0.950 . S
H3669 C3680 0.950 . S
H3670 C3682 0.950 . S
H3671 C3683 0.950 . S
C3672 H3664 0.950 . S
C3672 C3673 1.386 . S
C3672 C3674 1.391 . S
C3673 C3672 1.386 . S
C3673 C3677 1.393 . S
C3674 H3666 0.950 . S
C3674 C3672 1.391 . S
C3674 C3675 1.400 . S
C3675 C3674 1.400 . S
C3675 C3676 1.398 . S
C3675 C3681 1.491 . S
C3676 H3667 0.950 . S
C3676 C3675 1.398 . S
C3676 C3677 1.391 . S
C3677 H3665 0.950 . S
C3677 C3673 1.393 . S
C3677 C3676 1.391 . S
C3678 H3668 0.950 . S
C3678 C3679 1.386 . S
C3678 C3680 1.391 . S
C3679 C3678 1.386 . S
C3679 C3683 1.393 . S
C3680 H3669 0.950 . S
C3680 C3678 1.391 . S
C3680 C3681 1.400 . S
C3681 C3675 1.491 . S
C3681 C3680 1.400 . S
C3681 C3682 1.398 . S
C3682 H3670 0.950 . S
C3682 C3681 1.398 . S
C3682 C3683 1.391 . S
C3683 H3671 0.950 . S
C3683 C3679 1.393 . S
C3683 C3682 1.391 . S
H3684 C3692 0.950 . S
H3685 C3697 0.950 . S
H3686 C3694 0.950 . S
H3687 C3696 0.950 . S
H3688 C3698 0.950 . S
H3689 C3700 0.950 . S
H3690 C3702 0.950 . S
H3691 C3703 0.950 . S
C3692 H3684 0.950 . S
C3692 C3693 1.386 . S
C3692 C3694 1.391 . S
C3693 C3692 1.386 . S
C3693 C3697 1.393 . S
C3694 H3686 0.950 . S
C3694 C3692 1.391 . S
C3694 C3695 1.400 . S
C3695 C3694 1.400 . S
C3695 C3696 1.398 . S
C3695 C3701 1.491 . S
C3696 H3687 0.950 . S
C3696 C3695 1.398 . S
C3696 C3697 1.391 . S
C3697 H3685 0.950 . S
C3697 C3693 1.393 . S
C3697 C3696 1.391 . S
C3698 H3688 0.950 . S
C3698 C3699 1.386 . S
C3698 C3700 1.391 . S
C3699 C3698 1.386 . S
C3699 C3703 1.393 . S
C3700 H3689 0.950 . S
C3700 C3698 1.391 . S
C3700 C3701 1.400 . S
C3701 C3695 1.491 . S
C3701 C3700 1.400 . S
C3701 C3702 1.398 . S
C3702 H3690 0.950 . S
C3702 C3701 1.398 . S
C3702 C3703 1.391 . S
C3703 H3691 0.950 . S
C3703 C3699 1.393 . S
C3703 C3702 1.391 . S
H3704 C3712 0.950 . S
H3705 C3717 0.950 . S
H3706 C3714 0.950 . S
H3707 C3716 0.950 . S
H3708 C3718 0.950 . S
H3709 C3720 0.950 . S
H3710 C3722 0.950 . S
H3711 C3723 0.950 . S
C3712 H3704 0.950 . S
C3712 C3713 1.386 . S
C3712 C3714 1.391 . S
C3713 C3712 1.386 . S
C3713 C3717 1.393 . S
C3714 H3706 0.950 . S
C3714 C3712 1.391 . S
C3714 C3715 1.400 . S
C3715 C3714 1.400 . S
C3715 C3716 1.398 . S
C3715 C3721 1.491 . S
C3716 H3707 0.950 . S
C3716 C3715 1.398 . S
C3716 C3717 1.391 . S
C3717 H3705 0.950 . S
C3717 C3713 1.393 . S
C3717 C3716 1.391 . S
C3718 H3708 0.950 . S
C3718 C3719 1.386 . S
C3718 C3720 1.391 . S
C3719 C3718 1.386 . S
C3719 C3723 1.393 . S
C3720 H3709 0.950 . S
C3720 C3718 1.391 . S
C3720 C3721 1.400 . S
C3721 C3715 1.491 . S
C3721 C3720 1.400 . S
C3721 C3722 1.398 . S
C3722 H3710 0.950 . S
C3722 C3721 1.398 . S
C3722 C3723 1.391 . S
C3723 H3711 0.950 . S
C3723 C3719 1.393 . S
C3723 C3722 1.391 . S
H3724 C3732 0.950 . S
H3725 C3737 0.950 . S
H3726 C3734 0.950 . S
H3727 C3736 0.950 . S
H3728 C3738 0.950 . S
H3729 C3740 0.950 . S
H3730 C3742 0.950 . S
H3731 C3743 0.950 . S
C3732 H3724 0.950 . S
C3732 C3733 1.386 . S
C3732 C3734 1.391 . S
C3733 C3732 1.386 . S
C3733 C3737 1.393 . S
C3734 H3726 0.950 . S
C3734 C3732 1.391 . S
C3734 C3735 1.400 . S
C3735 C3734 1.400 . S
C3735 C3736 1.398 . S
C3735 C3741 1.491 . S
C3736 H3727 0.950 . S
C3736 C3735 1.398 . S
C3736 C3737 1.391 . S
C3737 H3725 0.950 . S
C3737 C3733 1.393 . S
C3737 C3736 1.391 . S
C3738 H3728 0.950 . S
C3738 C3739 1.386 . S
C3738 C3740 1.391 . S
C3739 C3738 1.386 . S
C3739 C3743 1.393 . S
C3740 H3729 0.950 . S
C3740 C3738 1.391 . S
C3740 C3741 1.400 . S
C3741 C3735 1.491 . S
C3741 C3740 1.400 . S
C3741 C3742 1.398 . S
C3742 H3730 0.950 . S
C3742 C3741 1.398 . S
C3742 C3743 1.391 . S
C3743 H3731 0.950 . S
C3743 C3739 1.393 . S
C3743 C3742 1.391 . S
H3744 C3752 0.950 . S
H3745 C3757 0.950 . S
H3746 C3754 0.950 . S
H3747 C3756 0.950 . S
H3748 C3758 0.950 . S
H3749 C3760 0.950 . S
H3750 C3762 0.950 . S
H3751 C3763 0.950 . S
C3752 H3744 0.950 . S
C3752 C3753 1.386 . S
C3752 C3754 1.391 . S
C3753 C3752 1.386 . S
C3753 C3757 1.393 . S
C3754 H3746 0.950 . S
C3754 C3752 1.391 . S
C3754 C3755 1.400 . S
C3755 C3754 1.400 . S
C3755 C3756 1.398 . S
C3755 C3761 1.491 . S
C3756 H3747 0.950 . S
C3756 C3755 1.398 . S
C3756 C3757 1.391 . S
C3757 H3745 0.950 . S
C3757 C3753 1.393 . S
C3757 C3756 1.391 . S
C3758 H3748 0.950 . S
C3758 C3759 1.386 . S
C3758 C3760 1.391 . S
C3759 C3758 1.386 . S
C3759 C3763 1.393 . S
C3760 H3749 0.950 . S
C3760 C3758 1.391 . S
C3760 C3761 1.400 . S
C3761 C3755 1.491 . S
C3761 C3760 1.400 . S
C3761 C3762 1.398 . S
C3762 H3750 0.950 . S
C3762 C3761 1.398 . S
C3762 C3763 1.391 . S
C3763 H3751 0.950 . S
C3763 C3759 1.393 . S
C3763 C3762 1.391 . S
H3764 C3772 0.950 . S
H3765 C3777 0.950 . S
H3766 C3774 0.950 . S
H3767 C3776 0.950 . S
H3768 C3778 0.950 . S
H3769 C3780 0.950 . S
H3770 C3782 0.950 . S
H3771 C3783 0.950 . S
C3772 H3764 0.950 . S
C3772 C3773 1.386 . S
C3772 C3774 1.391 . S
C3773 C3772 1.386 . S
C3773 C3777 1.393 . S
C3774 H3766 0.950 . S
C3774 C3772 1.391 . S
C3774 C3775 1.400 . S
C3775 C3774 1.400 . S
C3775 C3776 1.398 . S
C3775 C3781 1.491 . S
C3776 H3767 0.950 . S
C3776 C3775 1.398 . S
C3776 C3777 1.391 . S
C3777 H3765 0.950 . S
C3777 C3773 1.393 . S
C3777 C3776 1.391 . S
C3778 H3768 0.950 . S
C3778 C3779 1.386 . S
C3778 C3780 1.391 . S
C3779 C3778 1.386 . S
C3779 C3783 1.393 . S
C3780 H3769 0.950 . S
C3780 C3778 1.391 . S
C3780 C3781 1.400 . S
C3781 C3775 1.491 . S
C3781 C3780 1.400 . S
C3781 C3782 1.398 . S
C3782 H3770 0.950 . S
C3782 C3781 1.398 . S
C3782 C3783 1.391 . S
C3783 H3771 0.950 . S
C3783 C3779 1.393 . S
C3783 C3782 1.391 . S
H3784 C3792 0.950 . S
H3785 C3797 0.950 . S
H3786 C3794 0.950 . S
H3787 C3796 0.950 . S
H3788 C3798 0.950 . S
H3789 C3800 0.950 . S
H3790 C3802 0.950 . S
H3791 C3803 0.950 . S
C3792 H3784 0.950 . S
C3792 C3793 1.386 . S
C3792 C3794 1.391 . S
C3793 C3792 1.386 . S
C3793 C3797 1.393 . S
C3794 H3786 0.950 . S
C3794 C3792 1.391 . S
C3794 C3795 1.400 . S
C3795 C3794 1.400 . S
C3795 C3796 1.398 . S
C3795 C3801 1.491 . S
C3796 H3787 0.950 . S
C3796 C3795 1.398 . S
C3796 C3797 1.391 . S
C3797 H3785 0.950 . S
C3797 C3793 1.393 . S
C3797 C3796 1.391 . S
C3798 H3788 0.950 . S
C3798 C3799 1.386 . S
C3798 C3800 1.391 . S
C3799 C3798 1.386 . S
C3799 C3803 1.393 . S
C3800 H3789 0.950 . S
C3800 C3798 1.391 . S
C3800 C3801 1.400 . S
C3801 C3795 1.491 . S
C3801 C3800 1.400 . S
C3801 C3802 1.398 . S
C3802 H3790 0.950 . S
C3802 C3801 1.398 . S
C3802 C3803 1.391 . S
C3803 H3791 0.950 . S
C3803 C3799 1.393 . S
C3803 C3802 1.391 . S
H3804 C3812 0.950 . S
H3805 C3817 0.950 . S
H3806 C3814 0.950 . S
H3807 C3816 0.950 . S
H3808 C3818 0.950 . S
H3809 C3820 0.950 . S
H3810 C3822 0.950 . S
H3811 C3823 0.950 . S
C3812 H3804 0.950 . S
C3812 C3813 1.386 . S
C3812 C3814 1.391 . S
C3813 C3812 1.386 . S
C3813 C3817 1.393 . S
C3814 H3806 0.950 . S
C3814 C3812 1.391 . S
C3814 C3815 1.400 . S
C3815 C3814 1.400 . S
C3815 C3816 1.398 . S
C3815 C3821 1.491 . S
C3816 H3807 0.950 . S
C3816 C3815 1.398 . S
C3816 C3817 1.391 . S
C3817 H3805 0.950 . S
C3817 C3813 1.393 . S
C3817 C3816 1.391 . S
C3818 H3808 0.950 . S
C3818 C3819 1.386 . S
C3818 C3820 1.391 . S
C3819 C3818 1.386 . S
C3819 C3823 1.393 . S
C3820 H3809 0.950 . S
C3820 C3818 1.391 . S
C3820 C3821 1.400 . S
C3821 C3815 1.491 . S
C3821 C3820 1.400 . S
C3821 C3822 1.398 . S
C3822 H3810 0.950 . S
C3822 C3821 1.398 . S
C3822 C3823 1.391 . S
C3823 H3811 0.950 . S
C3823 C3819 1.393 . S
C3823 C3822 1.391 . S
H3824 C3832 0.950 . S
H3825 C3837 0.950 . S
H3826 C3834 0.950 . S
H3827 C3836 0.950 . S
H3828 C3838 0.950 . S
H3829 C3840 0.950 . S
H3830 C3842 0.950 . S
H3831 C3843 0.950 . S
C3832 H3824 0.950 . S
C3832 C3833 1.386 . S
C3832 C3834 1.391 . S
C3833 C3832 1.386 . S
C3833 C3837 1.393 . S
C3834 H3826 0.950 . S
C3834 C3832 1.391 . S
C3834 C3835 1.400 . S
C3835 C3834 1.400 . S
C3835 C3836 1.398 . S
C3835 C3841 1.491 . S
C3836 H3827 0.950 . S
C3836 C3835 1.398 . S
C3836 C3837 1.391 . S
C3837 H3825 0.950 . S
C3837 C3833 1.393 . S
C3837 C3836 1.391 . S
C3838 H3828 0.950 . S
C3838 C3839 1.386 . S
C3838 C3840 1.391 . S
C3839 C3838 1.386 . S
C3839 C3843 1.393 . S
C3840 H3829 0.950 . S
C3840 C3838 1.391 . S
C3840 C3841 1.400 . S
C3841 C3835 1.491 . S
C3841 C3840 1.400 . S
C3841 C3842 1.398 . S
C3842 H3830 0.950 . S
C3842 C3841 1.398 . S
C3842 C3843 1.391 . S
C3843 H3831 0.950 . S
C3843 C3839 1.393 . S
C3843 C3842 1.391 . S
H3844 C3852 0.950 . S
H3845 C3857 0.950 . S
H3846 C3854 0.950 . S
H3847 C3856 0.950 . S
H3848 C3858 0.950 . S
H3849 C3860 0.950 . S
H3850 C3862 0.950 . S
H3851 C3863 0.950 . S
C3852 H3844 0.950 . S
C3852 C3853 1.386 . S
C3852 C3854 1.391 . S
C3853 C3852 1.386 . S
C3853 C3857 1.393 . S
C3854 H3846 0.950 . S
C3854 C3852 1.391 . S
C3854 C3855 1.400 . S
C3855 C3854 1.400 . S
C3855 C3856 1.398 . S
C3855 C3861 1.491 . S
C3856 H3847 0.950 . S
C3856 C3855 1.398 . S
C3856 C3857 1.391 . S
C3857 H3845 0.950 . S
C3857 C3853 1.393 . S
C3857 C3856 1.391 . S
C3858 H3848 0.950 . S
C3858 C3859 1.386 . S
C3858 C3860 1.391 . S
C3859 C3858 1.386 . S
C3859 C3863 1.393 . S
C3860 H3849 0.950 . S
C3860 C3858 1.391 . S
C3860 C3861 1.400 . S
C3861 C3855 1.491 . S
C3861 C3860 1.400 . S
C3861 C3862 1.398 . S
C3862 H3850 0.950 . S
C3862 C3861 1.398 . S
C3862 C3863 1.391 . S
C3863 H3851 0.950 . S
C3863 C3859 1.393 . S
C3863 C3862 1.391 . S
H3864 C3872 0.950 . S
H3865 C3877 0.950 . S
H3866 C3874 0.950 . S
H3867 C3876 0.950 . S
H3868 C3878 0.950 . S
H3869 C3880 0.950 . S
H3870 C3882 0.950 . S
H3871 C3883 0.950 . S
C3872 H3864 0.950 . S
C3872 C3873 1.386 . S
C3872 C3874 1.391 . S
C3873 C3872 1.386 . S
C3873 C3877 1.393 . S
C3874 H3866 0.950 . S
C3874 C3872 1.391 . S
C3874 C3875 1.400 . S
C3875 C3874 1.400 . S
C3875 C3876 1.398 . S
C3875 C3881 1.491 . S
C3876 H3867 0.950 . S
C3876 C3875 1.398 . S
C3876 C3877 1.391 . S
C3877 H3865 0.950 . S
C3877 C3873 1.393 . S
C3877 C3876 1.391 . S
C3878 H3868 0.950 . S
C3878 C3879 1.386 . S
C3878 C3880 1.391 . S
C3879 C3878 1.386 . S
C3879 C3883 1.393 . S
C3880 H3869 0.950 . S
C3880 C3878 1.391 . S
C3880 C3881 1.400 . S
C3881 C3875 1.491 . S
C3881 C3880 1.400 . S
C3881 C3882 1.398 . S
C3882 H3870 0.950 . S
C3882 C3881 1.398 . S
C3882 C3883 1.391 . S
C3883 H3871 0.950 . S
C3883 C3879 1.393 . S
C3883 C3882 1.391 . S
H3884 C3892 0.950 . S
H3885 C3897 0.950 . S
H3886 C3894 0.950 . S
H3887 C3896 0.950 . S
H3888 C3898 0.950 . S
H3889 C3900 0.950 . S
H3890 C3902 0.950 . S
H3891 C3903 0.950 . S
C3892 H3884 0.950 . S
C3892 C3893 1.386 . S
C3892 C3894 1.391 . S
C3893 C3892 1.386 . S
C3893 C3897 1.393 . S
C3894 H3886 0.950 . S
C3894 C3892 1.391 . S
C3894 C3895 1.400 . S
C3895 C3894 1.400 . S
C3895 C3896 1.398 . S
C3895 C3901 1.491 . S
C3896 H3887 0.950 . S
C3896 C3895 1.398 . S
C3896 C3897 1.391 . S
C3897 H3885 0.950 . S
C3897 C3893 1.393 . S
C3897 C3896 1.391 . S
C3898 H3888 0.950 . S
C3898 C3899 1.386 . S
C3898 C3900 1.391 . S
C3899 C3898 1.386 . S
C3899 C3903 1.393 . S
C3900 H3889 0.950 . S
C3900 C3898 1.391 . S
C3900 C3901 1.400 . S
C3901 C3895 1.491 . S
C3901 C3900 1.400 . S
C3901 C3902 1.398 . S
C3902 H3890 0.950 . S
C3902 C3901 1.398 . S
C3902 C3903 1.391 . S
C3903 H3891 0.950 . S
C3903 C3899 1.393 . S
C3903 C3902 1.391 . S
H3904 C3912 0.950 . S
H3905 C3917 0.950 . S
H3906 C3914 0.950 . S
H3907 C3916 0.950 . S
H3908 C3918 0.950 . S
H3909 C3920 0.950 . S
H3910 C3922 0.950 . S
H3911 C3923 0.950 . S
C3912 H3904 0.950 . S
C3912 C3913 1.386 . S
C3912 C3914 1.391 . S
C3913 C3912 1.386 . S
C3913 C3917 1.393 . S
C3914 H3906 0.950 . S
C3914 C3912 1.391 . S
C3914 C3915 1.400 . S
C3915 C3914 1.400 . S
C3915 C3916 1.398 . S
C3915 C3921 1.491 . S
C3916 H3907 0.950 . S
C3916 C3915 1.398 . S
C3916 C3917 1.391 . S
C3917 H3905 0.950 . S
C3917 C3913 1.393 . S
C3917 C3916 1.391 . S
C3918 H3908 0.950 . S
C3918 C3919 1.386 . S
C3918 C3920 1.391 . S
C3919 C3918 1.386 . S
C3919 C3923 1.393 . S
C3920 H3909 0.950 . S
C3920 C3918 1.391 . S
C3920 C3921 1.400 . S
C3921 C3915 1.491 . S
C3921 C3920 1.400 . S
C3921 C3922 1.398 . S
C3922 H3910 0.950 . S
C3922 C3921 1.398 . S
C3922 C3923 1.391 . S
C3923 H3911 0.950 . S
C3923 C3919 1.393 . S
C3923 C3922 1.391 . S
H3924 C3932 0.950 . S
H3925 C3937 0.950 . S
H3926 C3934 0.950 . S
H3927 C3936 0.950 . S
H3928 C3938 0.950 . S
H3929 C3940 0.950 . S
H3930 C3942 0.950 . S
H3931 C3943 0.950 . S
C3932 H3924 0.950 . S
C3932 C3933 1.386 . S
C3932 C3934 1.391 . S
C3933 C3932 1.386 . S
C3933 C3937 1.393 . S
C3934 H3926 0.950 . S
C3934 C3932 1.391 . S
C3934 C3935 1.400 . S
C3935 C3934 1.400 . S
C3935 C3936 1.398 . S
C3935 C3941 1.491 . S
C3936 H3927 0.950 . S
C3936 C3935 1.398 . S
C3936 C3937 1.391 . S
C3937 H3925 0.950 . S
C3937 C3933 1.393 . S
C3937 C3936 1.391 . S
C3938 H3928 0.950 . S
C3938 C3939 1.386 . S
C3938 C3940 1.391 . S
C3939 C3938 1.386 . S
C3939 C3943 1.393 . S
C3940 H3929 0.950 . S
C3940 C3938 1.391 . S
C3940 C3941 1.400 . S
C3941 C3935 1.491 . S
C3941 C3940 1.400 . S
C3941 C3942 1.398 . S
C3942 H3930 0.950 . S
C3942 C3941 1.398 . S
C3942 C3943 1.391 . S
C3943 H3931 0.950 . S
C3943 C3939 1.393 . S
C3943 C3942 1.391 . S
H3944 C3952 0.950 . S
H3945 C3957 0.950 . S
H3946 C3954 0.950 . S
H3947 C3956 0.950 . S
H3948 C3958 0.950 . S
H3949 C3960 0.950 . S
H3950 C3962 0.950 . S
H3951 C3963 0.950 . S
C3952 H3944 0.950 . S
C3952 C3953 1.386 . S
C3952 C3954 1.391 . S
C3953 C3952 1.386 . S
C3953 C3957 1.393 . S
C3954 H3946 0.950 . S
C3954 C3952 1.391 . S
C3954 C3955 1.400 . S
C3955 C3954 1.400 . S
C3955 C3956 1.398 . S
C3955 C3961 1.491 . S
C3956 H3947 0.950 . S
C3956 C3955 1.398 . S
C3956 C3957 1.391 . S
C3957 H3945 0.950 . S
C3957 C3953 1.393 . S
C3957 C3956 1.391 . S
C3958 H3948 0.950 . S
C3958 C3959 1.386 . S
C3958 C3960 1.391 . S
C3959 C3958 1.386 . S
C3959 C3963 1.393 . S
C3960 H3949 0.950 . S
C3960 C3958 1.391 . S
C3960 C3961 1.400 . S
C3961 C3955 1.491 . S
C3961 C3960 1.400 . S
C3961 C3962 1.398 . S
C3962 H3950 0.950 . S
C3962 C3961 1.398 . S
C3962 C3963 1.391 . S
C3963 H3951 0.950 . S
C3963 C3959 1.393 . S
C3963 C3962 1.391 . S
H3964 C3972 0.950 . S
H3965 C3977 0.950 . S
H3966 C3974 0.950 . S
H3967 C3976 0.950 . S
H3968 C3978 0.950 . S
H3969 C3980 0.950 . S
H3970 C3982 0.950 . S
H3971 C3983 0.950 . S
C3972 H3964 0.950 . S
C3972 C3973 1.386 . S
C3972 C3974 1.391 . S
C3973 C3972 1.386 . S
C3973 C3977 1.393 . S
C3974 H3966 0.950 . S
C3974 C3972 1.391 . S
C3974 C3975 1.400 . S
C3975 C3974 1.400 . S
C3975 C3976 1.398 . S
C3975 C3981 1.491 . S
C3976 H3967 0.950 . S
C3976 C3975 1.398 . S
C3976 C3977 1.391 . S
C3977 H3965 0.950 . S
C3977 C3973 1.393 . S
C3977 C3976 1.391 . S
C3978 H3968 0.950 . S
C3978 C3979 1.386 . S
C3978 C3980 1.391 . S
C3979 C3978 1.386 . S
C3979 C3983 1.393 . S
C3980 H3969 0.950 . S
C3980 C3978 1.391 . S
C3980 C3981 1.400 . S
C3981 C3975 1.491 . S
C3981 C3980 1.400 . S
C3981 C3982 1.398 . S
C3982 H3970 0.950 . S
C3982 C3981 1.398 . S
C3982 C3983 1.391 . S
C3983 H3971 0.950 . S
C3983 C3979 1.393 . S
C3983 C3982 1.391 . S
H3984 C3992 0.950 . S
H3985 C3997 0.950 . S
H3986 C3994 0.950 . S
H3987 C3996 0.950 . S
H3988 C3998 0.950 . S
H3989 C4000 0.950 . S
H3990 C4002 0.950 . S
H3991 C4003 0.950 . S
C3992 H3984 0.950 . S
C3992 C3993 1.386 . S
C3992 C3994 1.391 . S
C3993 C3992 1.386 . S
C3993 C3997 1.393 . S
C3994 H3986 0.950 . S
C3994 C3992 1.391 . S
C3994 C3995 1.400 . S
C3995 C3994 1.400 . S
C3995 C3996 1.398 . S
C3995 C4001 1.491 . S
C3996 H3987 0.950 . S
C3996 C3995 1.398 . S
C3996 C3997 1.391 . S
C3997 H3985 0.950 . S
C3997 C3993 1.393 . S
C3997 C3996 1.391 . S
C3998 H3988 0.950 . S
C3998 C3999 1.386 . S
C3998 C4000 1.391 . S
C3999 C3998 1.386 . S
C3999 C4003 1.393 . S
C4000 H3989 0.950 . S
C4000 C3998 1.391 . S
C4000 C4001 1.400 . S
C4001 C3995 1.491 . S
C4001 C4000 1.400 . S
C4001 C4002 1.398 . S
C4002 H3990 0.950 . S
C4002 C4001 1.398 . S
C4002 C4003 1.391 . S
C4003 H3991 0.950 . S
C4003 C3999 1.393 . S
C4003 C4002 1.391 . S
H4004 C4012 0.950 . S
H4005 C4017 0.950 . S
H4006 C4014 0.950 . S
H4007 C4016 0.950 . S
H4008 C4018 0.950 . S
H4009 C4020 0.950 . S
H4010 C4022 0.950 . S
H4011 C4023 0.950 . S
C4012 H4004 0.950 . S
C4012 C4013 1.386 . S
C4012 C4014 1.391 . S
C4013 C4012 1.386 . S
C4013 C4017 1.393 . S
C4014 H4006 0.950 . S
C4014 C4012 1.391 . S
C4014 C4015 1.400 . S
C4015 C4014 1.400 . S
C4015 C4016 1.398 . S
C4015 C4021 1.491 . S
C4016 H4007 0.950 . S
C4016 C4015 1.398 . S
C4016 C4017 1.391 . S
C4017 H4005 0.950 . S
C4017 C4013 1.393 . S
C4017 C4016 1.391 . S
C4018 H4008 0.950 . S
C4018 C4019 1.386 . S
C4018 C4020 1.391 . S
C4019 C4018 1.386 . S
C4019 C4023 1.393 . S
C4020 H4009 0.950 . S
C4020 C4018 1.391 . S
C4020 C4021 1.400 . S
C4021 C4015 1.491 . S
C4021 C4020 1.400 . S
C4021 C4022 1.398 . S
C4022 H4010 0.950 . S
C4022 C4021 1.398 . S
C4022 C4023 1.391 . S
C4023 H4011 0.950 . S
C4023 C4019 1.393 . S
C4023 C4022 1.391 . S
H4024 C4032 0.950 . S
H4025 C4037 0.950 . S
H4026 C4034 0.950 . S
H4027 C4036 0.950 . S
H4028 C4038 0.950 . S
H4029 C4040 0.950 . S
H4030 C4042 0.950 . S
H4031 C4043 0.950 . S
C4032 H4024 0.950 . S
C4032 C4033 1.386 . S
C4032 C4034 1.391 . S
C4033 C4032 1.386 . S
C4033 C4037 1.393 . S
C4034 H4026 0.950 . S
C4034 C4032 1.391 . S
C4034 C4035 1.400 . S
C4035 C4034 1.400 . S
C4035 C4036 1.398 . S
C4035 C4041 1.491 . S
C4036 H4027 0.950 . S
C4036 C4035 1.398 . S
C4036 C4037 1.391 . S
C4037 H4025 0.950 . S
C4037 C4033 1.393 . S
C4037 C4036 1.391 . S
C4038 H4028 0.950 . S
C4038 C4039 1.386 . S
C4038 C4040 1.391 . S
C4039 C4038 1.386 . S
C4039 C4043 1.393 . S
C4040 H4029 0.950 . S
C4040 C4038 1.391 . S
C4040 C4041 1.400 . S
C4041 C4035 1.491 . S
C4041 C4040 1.400 . S
C4041 C4042 1.398 . S
C4042 H4030 0.950 . S
C4042 C4041 1.398 . S
C4042 C4043 1.391 . S
C4043 H4031 0.950 . S
C4043 C4039 1.393 . S
C4043 C4042 1.391 . S
H4044 C4052 0.950 . S
H4045 C4057 0.950 . S
H4046 C4054 0.950 . S
H4047 C4056 0.950 . S
H4048 C4058 0.950 . S
H4049 C4060 0.950 . S
H4050 C4062 0.950 . S
H4051 C4063 0.950 . S
C4052 H4044 0.950 . S
C4052 C4053 1.386 . S
C4052 C4054 1.391 . S
C4053 C4052 1.386 . S
C4053 C4057 1.393 . S
C4054 H4046 0.950 . S
C4054 C4052 1.391 . S
C4054 C4055 1.400 . S
C4055 C4054 1.400 . S
C4055 C4056 1.398 . S
C4055 C4061 1.491 . S
C4056 H4047 0.950 . S
C4056 C4055 1.398 . S
C4056 C4057 1.391 . S
C4057 H4045 0.950 . S
C4057 C4053 1.393 . S
C4057 C4056 1.391 . S
C4058 H4048 0.950 . S
C4058 C4059 1.386 . S
C4058 C4060 1.391 . S
C4059 C4058 1.386 . S
C4059 C4063 1.393 . S
C4060 H4049 0.950 . S
C4060 C4058 1.391 . S
C4060 C4061 1.400 . S
C4061 C4055 1.491 . S
C4061 C4060 1.400 . S
C4061 C4062 1.398 . S
C4062 H4050 0.950 . S
C4062 C4061 1.398 . S
C4062 C4063 1.391 . S
C4063 H4051 0.950 . S
C4063 C4059 1.393 . S
C4063 C4062 1.391 . S
H4064 C4072 0.950 . S
H4065 C4077 0.950 . S
H4066 C4074 0.950 . S
H4067 C4076 0.950 . S
H4068 C4078 0.950 . S
H4069 C4080 0.950 . S
H4070 C4082 0.950 . S
H4071 C4083 0.950 . S
C4072 H4064 0.950 . S
C4072 C4073 1.386 . S
C4072 C4074 1.391 . S
C4073 C4072 1.386 . S
C4073 C4077 1.393 . S
C4074 H4066 0.950 . S
C4074 C4072 1.391 . S
C4074 C4075 1.400 . S
C4075 C4074 1.400 . S
C4075 C4076 1.398 . S
C4075 C4081 1.491 . S
C4076 H4067 0.950 . S
C4076 C4075 1.398 . S
C4076 C4077 1.391 . S
C4077 H4065 0.950 . S
C4077 C4073 1.393 . S
C4077 C4076 1.391 . S
C4078 H4068 0.950 . S
C4078 C4079 1.386 . S
C4078 C4080 1.391 . S
C4079 C4078 1.386 . S
C4079 C4083 1.393 . S
C4080 H4069 0.950 . S
C4080 C4078 1.391 . S
C4080 C4081 1.400 . S
C4081 C4075 1.491 . S
C4081 C4080 1.400 . S
C4081 C4082 1.398 . S
C4082 H4070 0.950 . S
C4082 C4081 1.398 . S
C4082 C4083 1.391 . S
C4083 H4071 0.950 . S
C4083 C4079 1.393 . S
C4083 C4082 1.391 . S
H4084 C4092 0.950 . S
H4085 C4097 0.950 . S
H4086 C4094 0.950 . S
H4087 C4096 0.950 . S
H4088 C4098 0.950 . S
H4089 C4100 0.950 . S
H4090 C4102 0.950 . S
H4091 C4103 0.950 . S
C4092 H4084 0.950 . S
C4092 C4093 1.386 . S
C4092 C4094 1.391 . S
C4093 C4092 1.386 . S
C4093 C4097 1.393 . S
C4094 H4086 0.950 . S
C4094 C4092 1.391 . S
C4094 C4095 1.400 . S
C4095 C4094 1.400 . S
C4095 C4096 1.398 . S
C4095 C4101 1.491 . S
C4096 H4087 0.950 . S
C4096 C4095 1.398 . S
C4096 C4097 1.391 . S
C4097 H4085 0.950 . S
C4097 C4093 1.393 . S
C4097 C4096 1.391 . S
C4098 H4088 0.950 . S
C4098 C4099 1.386 . S
C4098 C4100 1.391 . S
C4099 C4098 1.386 . S
C4099 C4103 1.393 . S
C4100 H4089 0.950 . S
C4100 C4098 1.391 . S
C4100 C4101 1.400 . S
C4101 C4095 1.491 . S
C4101 C4100 1.400 . S
C4101 C4102 1.398 . S
C4102 H4090 0.950 . S
C4102 C4101 1.398 . S
C4102 C4103 1.391 . S
C4103 H4091 0.950 . S
C4103 C4099 1.393 . S
C4103 C4102 1.391 . S
H4104 C4112 0.950 . S
H4105 C4117 0.950 . S
H4106 C4114 0.950 . S
H4107 C4116 0.950 . S
H4108 C4118 0.950 . S
H4109 C4120 0.950 . S
H4110 C4122 0.950 . S
H4111 C4123 0.950 . S
C4112 H4104 0.950 . S
C4112 C4113 1.386 . S
C4112 C4114 1.391 . S
C4113 C4112 1.386 . S
C4113 C4117 1.393 . S
C4114 H4106 0.950 . S
C4114 C4112 1.391 . S
C4114 C4115 1.400 . S
C4115 C4114 1.400 . S
C4115 C4116 1.398 . S
C4115 C4121 1.491 . S
C4116 H4107 0.950 . S
C4116 C4115 1.398 . S
C4116 C4117 1.391 . S
C4117 H4105 0.950 . S
C4117 C4113 1.393 . S
C4117 C4116 1.391 . S
C4118 H4108 0.950 . S
C4118 C4119 1.386 . S
C4118 C4120 1.391 . S
C4119 C4118 1.386 . S
C4119 C4123 1.393 . S
C4120 H4109 0.950 . S
C4120 C4118 1.391 . S
C4120 C4121 1.400 . S
C4121 C4115 1.491 . S
C4121 C4120 1.400 . S
C4121 C4122 1.398 . S
C4122 H4110 0.950 . S
C4122 C4121 1.398 . S
C4122 C4123 1.391 . S
C4123 H4111 0.950 . S
C4123 C4119 1.393 . S
C4123 C4122 1.391 . S
H4124 C4132 0.950 . S
H4125 C4137 0.950 . S
H4126 C4134 0.950 . S
H4127 C4136 0.950 . S
H4128 C4138 0.950 . S
H4129 C4140 0.950 . S
H4130 C4142 0.950 . S
H4131 C4143 0.950 . S
C4132 H4124 0.950 . S
C4132 C4133 1.386 . S
C4132 C4134 1.391 . S
C4133 C4132 1.386 . S
C4133 C4137 1.393 . S
C4134 H4126 0.950 . S
C4134 C4132 1.391 . S
C4134 C4135 1.400 . S
C4135 C4134 1.400 . S
C4135 C4136 1.398 . S
C4135 C4141 1.491 . S
C4136 H4127 0.950 . S
C4136 C4135 1.398 . S
C4136 C4137 1.391 . S
C4137 H4125 0.950 . S
C4137 C4133 1.393 . S
C4137 C4136 1.391 . S
C4138 H4128 0.950 . S
C4138 C4139 1.386 . S
C4138 C4140 1.391 . S
C4139 C4138 1.386 . S
C4139 C4143 1.393 . S
C4140 H4129 0.950 . S
C4140 C4138 1.391 . S
C4140 C4141 1.400 . S
C4141 C4135 1.491 . S
C4141 C4140 1.400 . S
C4141 C4142 1.398 . S
C4142 H4130 0.950 . S
C4142 C4141 1.398 . S
C4142 C4143 1.391 . S
C4143 H4131 0.950 . S
C4143 C4139 1.393 . S
C4143 C4142 1.391 . S
H4144 C4152 0.950 . S
H4145 C4157 0.950 . S
H4146 C4154 0.950 . S
H4147 C4156 0.950 . S
H4148 C4158 0.950 . S
H4149 C4160 0.950 . S
H4150 C4162 0.950 . S
H4151 C4163 0.950 . S
C4152 H4144 0.950 . S
C4152 C4153 1.386 . S
C4152 C4154 1.391 . S
C4153 C4152 1.386 . S
C4153 C4157 1.393 . S
C4154 H4146 0.950 . S
C4154 C4152 1.391 . S
C4154 C4155 1.400 . S
C4155 C4154 1.400 . S
C4155 C4156 1.398 . S
C4155 C4161 1.491 . S
C4156 H4147 0.950 . S
C4156 C4155 1.398 . S
C4156 C4157 1.391 . S
C4157 H4145 0.950 . S
C4157 C4153 1.393 . S
C4157 C4156 1.391 . S
C4158 H4148 0.950 . S
C4158 C4159 1.386 . S
C4158 C4160 1.391 . S
C4159 C4158 1.386 . S
C4159 C4163 1.393 . S
C4160 H4149 0.950 . S
C4160 C4158 1.391 . S
C4160 C4161 1.400 . S
C4161 C4155 1.491 . S
C4161 C4160 1.400 . S
C4161 C4162 1.398 . S
C4162 H4150 0.950 . S
C4162 C4161 1.398 . S
C4162 C4163 1.391 . S
C4163 H4151 0.950 . S
C4163 C4159 1.393 . S
C4163 C4162 1.391 . S
H4164 C4172 0.950 . S
H4165 C4177 0.950 . S
H4166 C4174 0.950 . S
H4167 C4176 0.950 . S
H4168 C4178 0.950 . S
H4169 C4180 0.950 . S
H4170 C4182 0.950 . S
H4171 C4183 0.950 . S
C4172 H4164 0.950 . S
C4172 C4173 1.386 . S
C4172 C4174 1.391 . S
C4173 C4172 1.386 . S
C4173 C4177 1.393 . S
C4174 H4166 0.950 . S
C4174 C4172 1.391 . S
C4174 C4175 1.400 . S
C4175 C4174 1.400 . S
C4175 C4176 1.398 . S
C4175 C4181 1.491 . S
C4176 H4167 0.950 . S
C4176 C4175 1.398 . S
C4176 C4177 1.391 . S
C4177 H4165 0.950 . S
C4177 C4173 1.393 . S
C4177 C4176 1.391 . S
C4178 H4168 0.950 . S
C4178 C4179 1.386 . S
C4178 C4180 1.391 . S
C4179 C4178 1.386 . S
C4179 C4183 1.393 . S
C4180 H4169 0.950 . S
C4180 C4178 1.391 . S
C4180 C4181 1.400 . S
C4181 C4175 1.491 . S
C4181 C4180 1.400 . S
C4181 C4182 1.398 . S
C4182 H4170 0.950 . S
C4182 C4181 1.398 . S
C4182 C4183 1.391 . S
C4183 H4171 0.950 . S
C4183 C4179 1.393 . S
C4183 C4182 1.391 . S
H4184 C4192 0.950 . S
H4185 C4197 0.950 . S
H4186 C4194 0.950 . S
H4187 C4196 0.950 . S
H4188 C4198 0.950 . S
H4189 C4200 0.950 . S
H4190 C4202 0.950 . S
H4191 C4203 0.950 . S
C4192 H4184 0.950 . S
C4192 C4193 1.386 . S
C4192 C4194 1.391 . S
C4193 C4192 1.386 . S
C4193 C4197 1.393 . S
C4194 H4186 0.950 . S
C4194 C4192 1.391 . S
C4194 C4195 1.400 . S
C4195 C4194 1.400 . S
C4195 C4196 1.398 . S
C4195 C4201 1.491 . S
C4196 H4187 0.950 . S
C4196 C4195 1.398 . S
C4196 C4197 1.391 . S
C4197 H4185 0.950 . S
C4197 C4193 1.393 . S
C4197 C4196 1.391 . S
C4198 H4188 0.950 . S
C4198 C4199 1.386 . S
C4198 C4200 1.391 . S
C4199 C4198 1.386 . S
C4199 C4203 1.393 . S
C4200 H4189 0.950 . S
C4200 C4198 1.391 . S
C4200 C4201 1.400 . S
C4201 C4195 1.491 . S
C4201 C4200 1.400 . S
C4201 C4202 1.398 . S
C4202 H4190 0.950 . S
C4202 C4201 1.398 . S
C4202 C4203 1.391 . S
C4203 H4191 0.950 . S
C4203 C4199 1.393 . S
C4203 C4202 1.391 . S
H4204 C4212 0.950 . S
H4205 C4217 0.950 . S
H4206 C4214 0.950 . S
H4207 C4216 0.950 . S
H4208 C4218 0.950 . S
H4209 C4220 0.950 . S
H4210 C4222 0.950 . S
H4211 C4223 0.950 . S
C4212 H4204 0.950 . S
C4212 C4213 1.386 . S
C4212 C4214 1.391 . S
C4213 C4212 1.386 . S
C4213 C4217 1.393 . S
C4214 H4206 0.950 . S
C4214 C4212 1.391 . S
C4214 C4215 1.400 . S
C4215 C4214 1.400 . S
C4215 C4216 1.398 . S
C4215 C4221 1.491 . S
C4216 H4207 0.950 . S
C4216 C4215 1.398 . S
C4216 C4217 1.391 . S
C4217 H4205 0.950 . S
C4217 C4213 1.393 . S
C4217 C4216 1.391 . S
C4218 H4208 0.950 . S
C4218 C4219 1.386 . S
C4218 C4220 1.391 . S
C4219 C4218 1.386 . S
C4219 C4223 1.393 . S
C4220 H4209 0.950 . S
C4220 C4218 1.391 . S
C4220 C4221 1.400 . S
C4221 C4215 1.491 . S
C4221 C4220 1.400 . S
C4221 C4222 1.398 . S
C4222 H4210 0.950 . S
C4222 C4221 1.398 . S
C4222 C4223 1.391 . S
C4223 H4211 0.950 . S
C4223 C4219 1.393 . S
C4223 C4222 1.391 . S
H4224 C4232 0.950 . S
H4225 C4237 0.950 . S
H4226 C4234 0.950 . S
H4227 C4236 0.950 . S
H4228 C4238 0.950 . S
H4229 C4240 0.950 . S
H4230 C4242 0.950 . S
H4231 C4243 0.950 . S
C4232 H4224 0.950 . S
C4232 C4233 1.386 . S
C4232 C4234 1.391 . S
C4233 C4232 1.386 . S
C4233 C4237 1.393 . S
C4234 H4226 0.950 . S
C4234 C4232 1.391 . S
C4234 C4235 1.400 . S
C4235 C4234 1.400 . S
C4235 C4236 1.398 . S
C4235 C4241 1.491 . S
C4236 H4227 0.950 . S
C4236 C4235 1.398 . S
C4236 C4237 1.391 . S
C4237 H4225 0.950 . S
C4237 C4233 1.393 . S
C4237 C4236 1.391 . S
C4238 H4228 0.950 . S
C4238 C4239 1.386 . S
C4238 C4240 1.391 . S
C4239 C4238 1.386 . S
C4239 C4243 1.393 . S
C4240 H4229 0.950 . S
C4240 C4238 1.391 . S
C4240 C4241 1.400 . S
C4241 C4235 1.491 . S
C4241 C4240 1.400 . S
C4241 C4242 1.398 . S
C4242 H4230 0.950 . S
C4242 C4241 1.398 . S
C4242 C4243 1.391 . S
C4243 H4231 0.950 . S
C4243 C4239 1.393 . S
C4243 C4242 1.391 . S
H4244 C4252 0.950 . S
H4245 C4257 0.950 . S
H4246 C4254 0.950 . S
H4247 C4256 0.950 . S
H4248 C4258 0.950 . S
H4249 C4260 0.950 . S
H4250 C4262 0.950 . S
H4251 C4263 0.950 . S
C4252 H4244 0.950 . S
C4252 C4253 1.386 . S
C4252 C4254 1.391 . S
C4253 C4252 1.386 . S
C4253 C4257 1.393 . S
C4254 H4246 0.950 . S
C4254 C4252 1.391 . S
C4254 C4255 1.400 . S
C4255 C4254 1.400 . S
C4255 C4256 1.398 . S
C4255 C4261 1.491 . S
C4256 H4247 0.950 . S
C4256 C4255 1.398 . S
C4256 C4257 1.391 . S
C4257 H4245 0.950 . S
C4257 C4253 1.393 . S
C4257 C4256 1.391 . S
C4258 H4248 0.950 . S
C4258 C4259 1.386 . S
C4258 C4260 1.391 . S
C4259 C4258 1.386 . S
C4259 C4263 1.393 . S
C4260 H4249 0.950 . S
C4260 C4258 1.391 . S
C4260 C4261 1.400 . S
C4261 C4255 1.491 . S
C4261 C4260 1.400 . S
C4261 C4262 1.398 . S
C4262 H4250 0.950 . S
C4262 C4261 1.398 . S
C4262 C4263 1.391 . S
C4263 H4251 0.950 . S
C4263 C4259 1.393 . S
C4263 C4262 1.391 . S
H4264 C4272 0.950 . S
H4265 C4277 0.950 . S
H4266 C4274 0.950 . S
H4267 C4276 0.950 . S
H4268 C4278 0.950 . S
H4269 C4280 0.950 . S
H4270 C4282 0.950 . S
H4271 C4283 0.950 . S
C4272 H4264 0.950 . S
C4272 C4273 1.386 . S
C4272 C4274 1.391 . S
C4273 C4272 1.386 . S
C4273 C4277 1.393 . S
C4274 H4266 0.950 . S
C4274 C4272 1.391 . S
C4274 C4275 1.400 . S
C4275 C4274 1.400 . S
C4275 C4276 1.398 . S
C4275 C4281 1.491 . S
C4276 H4267 0.950 . S
C4276 C4275 1.398 . S
C4276 C4277 1.391 . S
C4277 H4265 0.950 . S
C4277 C4273 1.393 . S
C4277 C4276 1.391 . S
C4278 H4268 0.950 . S
C4278 C4279 1.386 . S
C4278 C4280 1.391 . S
C4279 C4278 1.386 . S
C4279 C4283 1.393 . S
C4280 H4269 0.950 . S
C4280 C4278 1.391 . S
C4280 C4281 1.400 . S
C4281 C4275 1.491 . S
C4281 C4280 1.400 . S
C4281 C4282 1.398 . S
C4282 H4270 0.950 . S
C4282 C4281 1.398 . S
C4282 C4283 1.391 . S
C4283 H4271 0.950 . S
C4283 C4279 1.393 . S
C4283 C4282 1.391 . S
H4284 C4292 0.950 . S
H4285 C4297 0.950 . S
H4286 C4294 0.950 . S
H4287 C4296 0.950 . S
H4288 C4298 0.950 . S
H4289 C4300 0.950 . S
H4290 C4302 0.950 . S
H4291 C4303 0.950 . S
C4292 H4284 0.950 . S
C4292 C4293 1.386 . S
C4292 C4294 1.391 . S
C4293 C4292 1.386 . S
C4293 C4297 1.393 . S
C4294 H4286 0.950 . S
C4294 C4292 1.391 . S
C4294 C4295 1.400 . S
C4295 C4294 1.400 . S
C4295 C4296 1.398 . S
C4295 C4301 1.491 . S
C4296 H4287 0.950 . S
C4296 C4295 1.398 . S
C4296 C4297 1.391 . S
C4297 H4285 0.950 . S
C4297 C4293 1.393 . S
C4297 C4296 1.391 . S
C4298 H4288 0.950 . S
C4298 C4299 1.386 . S
C4298 C4300 1.391 . S
C4299 C4298 1.386 . S
C4299 C4303 1.393 . S
C4300 H4289 0.950 . S
C4300 C4298 1.391 . S
C4300 C4301 1.400 . S
C4301 C4295 1.491 . S
C4301 C4300 1.400 . S
C4301 C4302 1.398 . S
C4302 H4290 0.950 . S
C4302 C4301 1.398 . S
C4302 C4303 1.391 . S
C4303 H4291 0.950 . S
C4303 C4299 1.393 . S
C4303 C4302 1.391 . S
H4304 C4312 0.950 . S
H4305 C4317 0.950 . S
H4306 C4314 0.950 . S
H4307 C4316 0.950 . S
H4308 C4318 0.950 . S
H4309 C4320 0.950 . S
H4310 C4322 0.950 . S
H4311 C4323 0.950 . S
C4312 H4304 0.950 . S
C4312 C4313 1.386 . S
C4312 C4314 1.391 . S
C4313 C4312 1.386 . S
C4313 C4317 1.393 . S
C4314 H4306 0.950 . S
C4314 C4312 1.391 . S
C4314 C4315 1.400 . S
C4315 C4314 1.400 . S
C4315 C4316 1.398 . S
C4315 C4321 1.491 . S
C4316 H4307 0.950 . S
C4316 C4315 1.398 . S
C4316 C4317 1.391 . S
C4317 H4305 0.950 . S
C4317 C4313 1.393 . S
C4317 C4316 1.391 . S
C4318 H4308 0.950 . S
C4318 C4319 1.386 . S
C4318 C4320 1.391 . S
C4319 C4318 1.386 . S
C4319 C4323 1.393 . S
C4320 H4309 0.950 . S
C4320 C4318 1.391 . S
C4320 C4321 1.400 . S
C4321 C4315 1.491 . S
C4321 C4320 1.400 . S
C4321 C4322 1.398 . S
C4322 H4310 0.950 . S
C4322 C4321 1.398 . S
C4322 C4323 1.391 . S
C4323 H4311 0.950 . S
C4323 C4319 1.393 . S
C4323 C4322 1.391 . S
H4324 C4332 0.950 . S
H4325 C4337 0.950 . S
H4326 C4334 0.950 . S
H4327 C4336 0.950 . S
H4328 C4338 0.950 . S
H4329 C4340 0.950 . S
H4330 C4342 0.950 . S
H4331 C4343 0.950 . S
C4332 H4324 0.950 . S
C4332 C4333 1.386 . S
C4332 C4334 1.391 . S
C4333 C4332 1.386 . S
C4333 C4337 1.393 . S
C4334 H4326 0.950 . S
C4334 C4332 1.391 . S
C4334 C4335 1.400 . S
C4335 C4334 1.400 . S
C4335 C4336 1.398 . S
C4335 C4341 1.491 . S
C4336 H4327 0.950 . S
C4336 C4335 1.398 . S
C4336 C4337 1.391 . S
C4337 H4325 0.950 . S
C4337 C4333 1.393 . S
C4337 C4336 1.391 . S
C4338 H4328 0.950 . S
C4338 C4339 1.386 . S
C4338 C4340 1.391 . S
C4339 C4338 1.386 . S
C4339 C4343 1.393 . S
C4340 H4329 0.950 . S
C4340 C4338 1.391 . S
C4340 C4341 1.400 . S
C4341 C4335 1.491 . S
C4341 C4340 1.400 . S
C4341 C4342 1.398 . S
C4342 H4330 0.950 . S
C4342 C4341 1.398 . S
C4342 C4343 1.391 . S
C4343 H4331 0.950 . S
C4343 C4339 1.393 . S
C4343 C4342 1.391 . S
H4344 C4352 0.950 . S
H4345 C4357 0.950 . S
H4346 C4354 0.950 . S
H4347 C4356 0.950 . S
H4348 C4358 0.950 . S
H4349 C4360 0.950 . S
H4350 C4362 0.950 . S
H4351 C4363 0.950 . S
C4352 H4344 0.950 . S
C4352 C4353 1.386 . S
C4352 C4354 1.391 . S
C4353 C4352 1.386 . S
C4353 C4357 1.393 . S
C4354 H4346 0.950 . S
C4354 C4352 1.391 . S
C4354 C4355 1.400 . S
C4355 C4354 1.400 . S
C4355 C4356 1.398 . S
C4355 C4361 1.491 . S
C4356 H4347 0.950 . S
C4356 C4355 1.398 . S
C4356 C4357 1.391 . S
C4357 H4345 0.950 . S
C4357 C4353 1.393 . S
C4357 C4356 1.391 . S
C4358 H4348 0.950 . S
C4358 C4359 1.386 . S
C4358 C4360 1.391 . S
C4359 C4358 1.386 . S
C4359 C4363 1.393 . S
C4360 H4349 0.950 . S
C4360 C4358 1.391 . S
C4360 C4361 1.400 . S
C4361 C4355 1.491 . S
C4361 C4360 1.400 . S
C4361 C4362 1.398 . S
C4362 H4350 0.950 . S
C4362 C4361 1.398 . S
C4362 C4363 1.391 . S
C4363 H4351 0.950 . S
C4363 C4359 1.393 . S
C4363 C4362 1.391 . S
H4364 C4372 0.950 . S
H4365 C4377 0.950 . S
H4366 C4374 0.950 . S
H4367 C4376 0.950 . S
H4368 C4378 0.950 . S
H4369 C4380 0.950 . S
H4370 C4382 0.950 . S
H4371 C4383 0.950 . S
C4372 H4364 0.950 . S
C4372 C4373 1.386 . S
C4372 C4374 1.391 . S
C4373 C4372 1.386 . S
C4373 C4377 1.393 . S
C4374 H4366 0.950 . S
C4374 C4372 1.391 . S
C4374 C4375 1.400 . S
C4375 C4374 1.400 . S
C4375 C4376 1.398 . S
C4375 C4381 1.491 . S
C4376 H4367 0.950 . S
C4376 C4375 1.398 . S
C4376 C4377 1.391 . S
C4377 H4365 0.950 . S
C4377 C4373 1.393 . S
C4377 C4376 1.391 . S
C4378 H4368 0.950 . S
C4378 C4379 1.386 . S
C4378 C4380 1.391 . S
C4379 C4378 1.386 . S
C4379 C4383 1.393 . S
C4380 H4369 0.950 . S
C4380 C4378 1.391 . S
C4380 C4381 1.400 . S
C4381 C4375 1.491 . S
C4381 C4380 1.400 . S
C4381 C4382 1.398 . S
C4382 H4370 0.950 . S
C4382 C4381 1.398 . S
C4382 C4383 1.391 . S
C4383 H4371 0.950 . S
C4383 C4379 1.393 . S
C4383 C4382 1.391 . S
H4384 C4392 0.950 . S
H4385 C4397 0.950 . S
H4386 C4394 0.950 . S
H4387 C4396 0.950 . S
H4388 C4398 0.950 . S
H4389 C4400 0.950 . S
H4390 C4402 0.950 . S
H4391 C4403 0.950 . S
C4392 H4384 0.950 . S
C4392 C4393 1.386 . S
C4392 C4394 1.391 . S
C4393 C4392 1.386 . S
C4393 C4397 1.393 . S
C4394 H4386 0.950 . S
C4394 C4392 1.391 . S
C4394 C4395 1.400 . S
C4395 C4394 1.400 . S
C4395 C4396 1.398 . S
C4395 C4401 1.491 . S
C4396 H4387 0.950 . S
C4396 C4395 1.398 . S
C4396 C4397 1.391 . S
C4397 H4385 0.950 . S
C4397 C4393 1.393 . S
C4397 C4396 1.391 . S
C4398 H4388 0.950 . S
C4398 C4399 1.386 . S
C4398 C4400 1.391 . S
C4399 C4398 1.386 . S
C4399 C4403 1.393 . S
C4400 H4389 0.950 . S
C4400 C4398 1.391 . S
C4400 C4401 1.400 . S
C4401 C4395 1.491 . S
C4401 C4400 1.400 . S
C4401 C4402 1.398 . S
C4402 H4390 0.950 . S
C4402 C4401 1.398 . S
C4402 C4403 1.391 . S
C4403 H4391 0.950 . S
C4403 C4399 1.393 . S
C4403 C4402 1.391 . S
H4404 C4412 0.950 . S
H4405 C4417 0.950 . S
H4406 C4414 0.950 . S
H4407 C4416 0.950 . S
H4408 C4418 0.950 . S
H4409 C4420 0.950 . S
H4410 C4422 0.950 . S
H4411 C4423 0.950 . S
C4412 H4404 0.950 . S
C4412 C4413 1.386 . S
C4412 C4414 1.391 . S
C4413 C4412 1.386 . S
C4413 C4417 1.393 . S
C4414 H4406 0.950 . S
C4414 C4412 1.391 . S
C4414 C4415 1.400 . S
C4415 C4414 1.400 . S
C4415 C4416 1.398 . S
C4415 C4421 1.491 . S
C4416 H4407 0.950 . S
C4416 C4415 1.398 . S
C4416 C4417 1.391 . S
C4417 H4405 0.950 . S
C4417 C4413 1.393 . S
C4417 C4416 1.391 . S
C4418 H4408 0.950 . S
C4418 C4419 1.386 . S
C4418 C4420 1.391 . S
C4419 C4418 1.386 . S
C4419 C4423 1.393 . S
C4420 H4409 0.950 . S
C4420 C4418 1.391 . S
C4420 C4421 1.400 . S
C4421 C4415 1.491 . S
C4421 C4420 1.400 . S
C4421 C4422 1.398 . S
C4422 H4410 0.950 . S
C4422 C4421 1.398 . S
C4422 C4423 1.391 . S
C4423 H4411 0.950 . S
C4423 C4419 1.393 . S
C4423 C4422 1.391 . S
H4424 C4432 0.950 . S
H4425 C4437 0.950 . S
H4426 C4434 0.950 . S
H4427 C4436 0.950 . S
H4428 C4438 0.950 . S
H4429 C4440 0.950 . S
H4430 C4442 0.950 . S
H4431 C4443 0.950 . S
C4432 H4424 0.950 . S
C4432 C4433 1.386 . S
C4432 C4434 1.391 . S
C4433 C4432 1.386 . S
C4433 C4437 1.393 . S
C4434 H4426 0.950 . S
C4434 C4432 1.391 . S
C4434 C4435 1.400 . S
C4435 C4434 1.400 . S
C4435 C4436 1.398 . S
C4435 C4441 1.491 . S
C4436 H4427 0.950 . S
C4436 C4435 1.398 . S
C4436 C4437 1.391 . S
C4437 H4425 0.950 . S
C4437 C4433 1.393 . S
C4437 C4436 1.391 . S
C4438 H4428 0.950 . S
C4438 C4439 1.386 . S
C4438 C4440 1.391 . S
C4439 C4438 1.386 . S
C4439 C4443 1.393 . S
C4440 H4429 0.950 . S
C4440 C4438 1.391 . S
C4440 C4441 1.400 . S
C4441 C4435 1.491 . S
C4441 C4440 1.400 . S
C4441 C4442 1.398 . S
C4442 H4430 0.950 . S
C4442 C4441 1.398 . S
C4442 C4443 1.391 . S
C4443 H4431 0.950 . S
C4443 C4439 1.393 . S
C4443 C4442 1.391 . S
H4444 C4452 0.950 . S
H4445 C4457 0.950 . S
H4446 C4454 0.950 . S
H4447 C4456 0.950 . S
H4448 C4458 0.950 . S
H4449 C4460 0.950 . S
H4450 C4462 0.950 . S
H4451 C4463 0.950 . S
C4452 H4444 0.950 . S
C4452 C4453 1.386 . S
C4452 C4454 1.391 . S
C4453 C4452 1.386 . S
C4453 C4457 1.393 . S
C4454 H4446 0.950 . S
C4454 C4452 1.391 . S
C4454 C4455 1.400 . S
C4455 C4454 1.400 . S
C4455 C4456 1.398 . S
C4455 C4461 1.491 . S
C4456 H4447 0.950 . S
C4456 C4455 1.398 . S
C4456 C4457 1.391 . S
C4457 H4445 0.950 . S
C4457 C4453 1.393 . S
C4457 C4456 1.391 . S
C4458 H4448 0.950 . S
C4458 C4459 1.386 . S
C4458 C4460 1.391 . S
C4459 C4458 1.386 . S
C4459 C4463 1.393 . S
C4460 H4449 0.950 . S
C4460 C4458 1.391 . S
C4460 C4461 1.400 . S
C4461 C4455 1.491 . S
C4461 C4460 1.400 . S
C4461 C4462 1.398 . S
C4462 H4450 0.950 . S
C4462 C4461 1.398 . S
C4462 C4463 1.391 . S
C4463 H4451 0.950 . S
C4463 C4459 1.393 . S
C4463 C4462 1.391 . S
H4464 C4472 0.950 . S
H4465 C4477 0.950 . S
H4466 C4474 0.950 . S
H4467 C4476 0.950 . S
H4468 C4478 0.950 . S
H4469 C4480 0.950 . S
H4470 C4482 0.950 . S
H4471 C4483 0.950 . S
C4472 H4464 0.950 . S
C4472 C4473 1.386 . S
C4472 C4474 1.391 . S
C4473 C4472 1.386 . S
C4473 C4477 1.393 . S
C4474 H4466 0.950 . S
C4474 C4472 1.391 . S
C4474 C4475 1.400 . S
C4475 C4474 1.400 . S
C4475 C4476 1.398 . S
C4475 C4481 1.491 . S
C4476 H4467 0.950 . S
C4476 C4475 1.398 . S
C4476 C4477 1.391 . S
C4477 H4465 0.950 . S
C4477 C4473 1.393 . S
C4477 C4476 1.391 . S
C4478 H4468 0.950 . S
C4478 C4479 1.386 . S
C4478 C4480 1.391 . S
C4479 C4478 1.386 . S
C4479 C4483 1.393 . S
C4480 H4469 0.950 . S
C4480 C4478 1.391 . S
C4480 C4481 1.400 . S
C4481 C4475 1.491 . S
C4481 C4480 1.400 . S
C4481 C4482 1.398 . S
C4482 H4470 0.950 . S
C4482 C4481 1.398 . S
C4482 C4483 1.391 . S
C4483 H4471 0.950 . S
C4483 C4479 1.393 . S
C4483 C4482 1.391 . S
H4484 C4492 0.950 . S
H4485 C4497 0.950 . S
H4486 C4494 0.950 . S
H4487 C4496 0.950 . S
H4488 C4498 0.950 . S
H4489 C4500 0.950 . S
H4490 C4502 0.950 . S
H4491 C4503 0.950 . S
C4492 H4484 0.950 . S
C4492 C4493 1.386 . S
C4492 C4494 1.391 . S
C4493 C4492 1.386 . S
C4493 C4497 1.393 . S
C4494 H4486 0.950 . S
C4494 C4492 1.391 . S
C4494 C4495 1.400 . S
C4495 C4494 1.400 . S
C4495 C4496 1.398 . S
C4495 C4501 1.491 . S
C4496 H4487 0.950 . S
C4496 C4495 1.398 . S
C4496 C4497 1.391 . S
C4497 H4485 0.950 . S
C4497 C4493 1.393 . S
C4497 C4496 1.391 . S
C4498 H4488 0.950 . S
C4498 C4499 1.386 . S
C4498 C4500 1.391 . S
C4499 C4498 1.386 . S
C4499 C4503 1.393 . S
C4500 H4489 0.950 . S
C4500 C4498 1.391 . S
C4500 C4501 1.400 . S
C4501 C4495 1.491 . S
C4501 C4500 1.400 . S
C4501 C4502 1.398 . S
C4502 H4490 0.950 . S
C4502 C4501 1.398 . S
C4502 C4503 1.391 . S
C4503 H4491 0.950 . S
C4503 C4499 1.393 . S
C4503 C4502 1.391 . S
H4504 C4512 0.950 . S
H4505 C4517 0.950 . S
H4506 C4514 0.950 . S
H4507 C4516 0.950 . S
H4508 C4518 0.950 . S
H4509 C4520 0.950 . S
H4510 C4522 0.950 . S
H4511 C4523 0.950 . S
C4512 H4504 0.950 . S
C4512 C4513 1.386 . S
C4512 C4514 1.391 . S
C4513 C4512 1.386 . S
C4513 C4517 1.393 . S
C4514 H4506 0.950 . S
C4514 C4512 1.391 . S
C4514 C4515 1.400 . S
C4515 C4514 1.400 . S
C4515 C4516 1.398 . S
C4515 C4521 1.491 . S
C4516 H4507 0.950 . S
C4516 C4515 1.398 . S
C4516 C4517 1.391 . S
C4517 H4505 0.950 . S
C4517 C4513 1.393 . S
C4517 C4516 1.391 . S
C4518 H4508 0.950 . S
C4518 C4519 1.386 . S
C4518 C4520 1.391 . S
C4519 C4518 1.386 . S
C4519 C4523 1.393 . S
C4520 H4509 0.950 . S
C4520 C4518 1.391 . S
C4520 C4521 1.400 . S
C4521 C4515 1.491 . S
C4521 C4520 1.400 . S
C4521 C4522 1.398 . S
C4522 H4510 0.950 . S
C4522 C4521 1.398 . S
C4522 C4523 1.391 . S
C4523 H4511 0.950 . S
C4523 C4519 1.393 . S
C4523 C4522 1.391 . S
H4524 C4532 0.950 . S
H4525 C4537 0.950 . S
H4526 C4534 0.950 . S
H4527 C4536 0.950 . S
H4528 C4538 0.950 . S
H4529 C4540 0.950 . S
H4530 C4542 0.950 . S
H4531 C4543 0.950 . S
C4532 H4524 0.950 . S
C4532 C4533 1.386 . S
C4532 C4534 1.391 . S
C4533 C4532 1.386 . S
C4533 C4537 1.393 . S
C4534 H4526 0.950 . S
C4534 C4532 1.391 . S
C4534 C4535 1.400 . S
C4535 C4534 1.400 . S
C4535 C4536 1.398 . S
C4535 C4541 1.491 . S
C4536 H4527 0.950 . S
C4536 C4535 1.398 . S
C4536 C4537 1.391 . S
C4537 H4525 0.950 . S
C4537 C4533 1.393 . S
C4537 C4536 1.391 . S
C4538 H4528 0.950 . S
C4538 C4539 1.386 . S
C4538 C4540 1.391 . S
C4539 C4538 1.386 . S
C4539 C4543 1.393 . S
C4540 H4529 0.950 . S
C4540 C4538 1.391 . S
C4540 C4541 1.400 . S
C4541 C4535 1.491 . S
C4541 C4540 1.400 . S
C4541 C4542 1.398 . S
C4542 H4530 0.950 . S
C4542 C4541 1.398 . S
C4542 C4543 1.391 . S
C4543 H4531 0.950 . S
C4543 C4539 1.393 . S
C4543 C4542 1.391 . S
H4544 C4552 0.950 . S
H4545 C4557 0.950 . S
H4546 C4554 0.950 . S
H4547 C4556 0.950 . S
H4548 C4558 0.950 . S
H4549 C4560 0.950 . S
H4550 C4562 0.950 . S
H4551 C4563 0.950 . S
C4552 H4544 0.950 . S
C4552 C4553 1.386 . S
C4552 C4554 1.391 . S
C4553 C4552 1.386 . S
C4553 C4557 1.393 . S
C4554 H4546 0.950 . S
C4554 C4552 1.391 . S
C4554 C4555 1.400 . S
C4555 C4554 1.400 . S
C4555 C4556 1.398 . S
C4555 C4561 1.491 . S
C4556 H4547 0.950 . S
C4556 C4555 1.398 . S
C4556 C4557 1.391 . S
C4557 H4545 0.950 . S
C4557 C4553 1.393 . S
C4557 C4556 1.391 . S
C4558 H4548 0.950 . S
C4558 C4559 1.386 . S
C4558 C4560 1.391 . S
C4559 C4558 1.386 . S
C4559 C4563 1.393 . S
C4560 H4549 0.950 . S
C4560 C4558 1.391 . S
C4560 C4561 1.400 . S
C4561 C4555 1.491 . S
C4561 C4560 1.400 . S
C4561 C4562 1.398 . S
C4562 H4550 0.950 . S
C4562 C4561 1.398 . S
C4562 C4563 1.391 . S
C4563 H4551 0.950 . S
C4563 C4559 1.393 . S
C4563 C4562 1.391 . S
H4564 C4572 0.950 . S
H4565 C4577 0.950 . S
H4566 C4574 0.950 . S
H4567 C4576 0.950 . S
H4568 C4578 0.950 . S
H4569 C4580 0.950 . S
H4570 C4582 0.950 . S
H4571 C4583 0.950 . S
C4572 H4564 0.950 . S
C4572 C4573 1.386 . S
C4572 C4574 1.391 . S
C4573 C4572 1.386 . S
C4573 C4577 1.393 . S
C4574 H4566 0.950 . S
C4574 C4572 1.391 . S
C4574 C4575 1.400 . S
C4575 C4574 1.400 . S
C4575 C4576 1.398 . S
C4575 C4581 1.491 . S
C4576 H4567 0.950 . S
C4576 C4575 1.398 . S
C4576 C4577 1.391 . S
C4577 H4565 0.950 . S
C4577 C4573 1.393 . S
C4577 C4576 1.391 . S
C4578 H4568 0.950 . S
C4578 C4579 1.386 . S
C4578 C4580 1.391 . S
C4579 C4578 1.386 . S
C4579 C4583 1.393 . S
C4580 H4569 0.950 . S
C4580 C4578 1.391 . S
C4580 C4581 1.400 . S
C4581 C4575 1.491 . S
C4581 C4580 1.400 . S
C4581 C4582 1.398 . S
C4582 H4570 0.950 . S
C4582 C4581 1.398 . S
C4582 C4583 1.391 . S
C4583 H4571 0.950 . S
C4583 C4579 1.393 . S
C4583 C4582 1.391 . S
H4584 C4592 0.950 . S
H4585 C4597 0.950 . S
H4586 C4594 0.950 . S
H4587 C4596 0.950 . S
H4588 C4598 0.950 . S
H4589 C4600 0.950 . S
H4590 C4602 0.950 . S
H4591 C4603 0.950 . S
C4592 H4584 0.950 . S
C4592 C4593 1.386 . S
C4592 C4594 1.391 . S
C4593 C4592 1.386 . S
C4593 C4597 1.393 . S
C4594 H4586 0.950 . S
C4594 C4592 1.391 . S
C4594 C4595 1.400 . S
C4595 C4594 1.400 . S
C4595 C4596 1.398 . S
C4595 C4601 1.491 . S
C4596 H4587 0.950 . S
C4596 C4595 1.398 . S
C4596 C4597 1.391 . S
C4597 H4585 0.950 . S
C4597 C4593 1.393 . S
C4597 C4596 1.391 . S
C4598 H4588 0.950 . S
C4598 C4599 1.386 . S
C4598 C4600 1.391 . S
C4599 C4598 1.386 . S
C4599 C4603 1.393 . S
C4600 H4589 0.950 . S
C4600 C4598 1.391 . S
C4600 C4601 1.400 . S
C4601 C4595 1.491 . S
C4601 C4600 1.400 . S
C4601 C4602 1.398 . S
C4602 H4590 0.950 . S
C4602 C4601 1.398 . S
C4602 C4603 1.391 . S
C4603 H4591 0.950 . S
C4603 C4599 1.393 . S
C4603 C4602 1.391 . S
H4604 C4612 0.950 . S
H4605 C4617 0.950 . S
H4606 C4614 0.950 . S
H4607 C4616 0.950 . S
H4608 C4618 0.950 . S
H4609 C4620 0.950 . S
H4610 C4622 0.950 . S
H4611 C4623 0.950 . S
C4612 H4604 0.950 . S
C4612 C4613 1.386 . S
C4612 C4614 1.391 . S
C4613 C4612 1.386 . S
C4613 C4617 1.393 . S
C4614 H4606 0.950 . S
C4614 C4612 1.391 . S
C4614 C4615 1.400 . S
C4615 C4614 1.400 . S
C4615 C4616 1.398 . S
C4615 C4621 1.491 . S
C4616 H4607 0.950 . S
C4616 C4615 1.398 . S
C4616 C4617 1.391 . S
C4617 H4605 0.950 . S
C4617 C4613 1.393 . S
C4617 C4616 1.391 . S
C4618 H4608 0.950 . S
C4618 C4619 1.386 . S
C4618 C4620 1.391 . S
C4619 C4618 1.386 . S
C4619 C4623 1.393 . S
C4620 H4609 0.950 . S
C4620 C4618 1.391 . S
C4620 C4621 1.400 . S
C4621 C4615 1.491 . S
C4621 C4620 1.400 . S
C4621 C4622 1.398 . S
C4622 H4610 0.950 . S
C4622 C4621 1.398 . S
C4622 C4623 1.391 . S
C4623 H4611 0.950 . S
C4623 C4619 1.393 . S
C4623 C4622 1.391 . S
H4624 C4632 0.950 . S
H4625 C4637 0.950 . S
H4626 C4634 0.950 . S
H4627 C4636 0.950 . S
H4628 C4638 0.950 . S
H4629 C4640 0.950 . S
H4630 C4642 0.950 . S
H4631 C4643 0.950 . S
C4632 H4624 0.950 . S
C4632 C4633 1.386 . S
C4632 C4634 1.391 . S
C4633 C4632 1.386 . S
C4633 C4637 1.393 . S
C4634 H4626 0.950 . S
C4634 C4632 1.391 . S
C4634 C4635 1.400 . S
C4635 C4634 1.400 . S
C4635 C4636 1.398 . S
C4635 C4641 1.491 . S
C4636 H4627 0.950 . S
C4636 C4635 1.398 . S
C4636 C4637 1.391 . S
C4637 H4625 0.950 . S
C4637 C4633 1.393 . S
C4637 C4636 1.391 . S
C4638 H4628 0.950 . S
C4638 C4639 1.386 . S
C4638 C4640 1.391 . S
C4639 C4638 1.386 . S
C4639 C4643 1.393 . S
C4640 H4629 0.950 . S
C4640 C4638 1.391 . S
C4640 C4641 1.400 . S
C4641 C4635 1.491 . S
C4641 C4640 1.400 . S
C4641 C4642 1.398 . S
C4642 H4630 0.950 . S
C4642 C4641 1.398 . S
C4642 C4643 1.391 . S
C4643 H4631 0.950 . S
C4643 C4639 1.393 . S
C4643 C4642 1.391 . S
H4644 C4652 0.950 . S
H4645 C4657 0.950 . S
H4646 C4654 0.950 . S
H4647 C4656 0.950 . S
H4648 C4658 0.950 . S
H4649 C4660 0.950 . S
H4650 C4662 0.950 . S
H4651 C4663 0.950 . S
C4652 H4644 0.950 . S
C4652 C4653 1.386 . S
C4652 C4654 1.391 . S
C4653 C4652 1.386 . S
C4653 C4657 1.393 . S
C4654 H4646 0.950 . S
C4654 C4652 1.391 . S
C4654 C4655 1.400 . S
C4655 C4654 1.400 . S
C4655 C4656 1.398 . S
C4655 C4661 1.491 . S
C4656 H4647 0.950 . S
C4656 C4655 1.398 . S
C4656 C4657 1.391 . S
C4657 H4645 0.950 . S
C4657 C4653 1.393 . S
C4657 C4656 1.391 . S
C4658 H4648 0.950 . S
C4658 C4659 1.386 . S
C4658 C4660 1.391 . S
C4659 C4658 1.386 . S
C4659 C4663 1.393 . S
C4660 H4649 0.950 . S
C4660 C4658 1.391 . S
C4660 C4661 1.400 . S
C4661 C4655 1.491 . S
C4661 C4660 1.400 . S
C4661 C4662 1.398 . S
C4662 H4650 0.950 . S
C4662 C4661 1.398 . S
C4662 C4663 1.391 . S
C4663 H4651 0.950 . S
C4663 C4659 1.393 . S
C4663 C4662 1.391 . S
H4664 C4672 0.950 . S
H4665 C4677 0.950 . S
H4666 C4674 0.950 . S
H4667 C4676 0.950 . S
H4668 C4678 0.950 . S
H4669 C4680 0.950 . S
H4670 C4682 0.950 . S
H4671 C4683 0.950 . S
C4672 H4664 0.950 . S
C4672 C4673 1.386 . S
C4672 C4674 1.391 . S
C4673 C4672 1.386 . S
C4673 C4677 1.393 . S
C4674 H4666 0.950 . S
C4674 C4672 1.391 . S
C4674 C4675 1.400 . S
C4675 C4674 1.400 . S
C4675 C4676 1.398 . S
C4675 C4681 1.491 . S
C4676 H4667 0.950 . S
C4676 C4675 1.398 . S
C4676 C4677 1.391 . S
C4677 H4665 0.950 . S
C4677 C4673 1.393 . S
C4677 C4676 1.391 . S
C4678 H4668 0.950 . S
C4678 C4679 1.386 . S
C4678 C4680 1.391 . S
C4679 C4678 1.386 . S
C4679 C4683 1.393 . S
C4680 H4669 0.950 . S
C4680 C4678 1.391 . S
C4680 C4681 1.400 . S
C4681 C4675 1.491 . S
C4681 C4680 1.400 . S
C4681 C4682 1.398 . S
C4682 H4670 0.950 . S
C4682 C4681 1.398 . S
C4682 C4683 1.391 . S
C4683 H4671 0.950 . S
C4683 C4679 1.393 . S
C4683 C4682 1.391 . S
H4684 C4692 0.950 . S
H4685 C4697 0.950 . S
H4686 C4694 0.950 . S
H4687 C4696 0.950 . S
H4688 C4698 0.950 . S
H4689 C4700 0.950 . S
H4690 C4702 0.950 . S
H4691 C4703 0.950 . S
C4692 H4684 0.950 . S
C4692 C4693 1.386 . S
C4692 C4694 1.391 . S
C4693 C4692 1.386 . S
C4693 C4697 1.393 . S
C4694 H4686 0.950 . S
C4694 C4692 1.391 . S
C4694 C4695 1.400 . S
C4695 C4694 1.400 . S
C4695 C4696 1.398 . S
C4695 C4701 1.491 . S
C4696 H4687 0.950 . S
C4696 C4695 1.398 . S
C4696 C4697 1.391 . S
C4697 H4685 0.950 . S
C4697 C4693 1.393 . S
C4697 C4696 1.391 . S
C4698 H4688 0.950 . S
C4698 C4699 1.386 . S
C4698 C4700 1.391 . S
C4699 C4698 1.386 . S
C4699 C4703 1.393 . S
C4700 H4689 0.950 . S
C4700 C4698 1.391 . S
C4700 C4701 1.400 . S
C4701 C4695 1.491 . S
C4701 C4700 1.400 . S
C4701 C4702 1.398 . S
C4702 H4690 0.950 . S
C4702 C4701 1.398 . S
C4702 C4703 1.391 . S
C4703 H4691 0.950 . S
C4703 C4699 1.393 . S
C4703 C4702 1.391 . S
H4704 C4712 0.950 . S
H4705 C4717 0.950 . S
H4706 C4714 0.950 . S
H4707 C4716 0.950 . S
H4708 C4718 0.950 . S
H4709 C4720 0.950 . S
H4710 C4722 0.950 . S
H4711 C4723 0.950 . S
C4712 H4704 0.950 . S
C4712 C4713 1.386 . S
C4712 C4714 1.391 . S
C4713 C4712 1.386 . S
C4713 C4717 1.393 . S
C4714 H4706 0.950 . S
C4714 C4712 1.391 . S
C4714 C4715 1.400 . S
C4715 C4714 1.400 . S
C4715 C4716 1.398 . S
C4715 C4721 1.491 . S
C4716 H4707 0.950 . S
C4716 C4715 1.398 . S
C4716 C4717 1.391 . S
C4717 H4705 0.950 . S
C4717 C4713 1.393 . S
C4717 C4716 1.391 . S
C4718 H4708 0.950 . S
C4718 C4719 1.386 . S
C4718 C4720 1.391 . S
C4719 C4718 1.386 . S
C4719 C4723 1.393 . S
C4720 H4709 0.950 . S
C4720 C4718 1.391 . S
C4720 C4721 1.400 . S
C4721 C4715 1.491 . S
C4721 C4720 1.400 . S
C4721 C4722 1.398 . S
C4722 H4710 0.950 . S
C4722 C4721 1.398 . S
C4722 C4723 1.391 . S
C4723 H4711 0.950 . S
C4723 C4719 1.393 . S
C4723 C4722 1.391 . S
H4724 C4732 0.950 . S
H4725 C4737 0.950 . S
H4726 C4734 0.950 . S
H4727 C4736 0.950 . S
H4728 C4738 0.950 . S
H4729 C4740 0.950 . S
H4730 C4742 0.950 . S
H4731 C4743 0.950 . S
C4732 H4724 0.950 . S
C4732 C4733 1.386 . S
C4732 C4734 1.391 . S
C4733 C4732 1.386 . S
C4733 C4737 1.393 . S
C4734 H4726 0.950 . S
C4734 C4732 1.391 . S
C4734 C4735 1.400 . S
C4735 C4734 1.400 . S
C4735 C4736 1.398 . S
C4735 C4741 1.491 . S
C4736 H4727 0.950 . S
C4736 C4735 1.398 . S
C4736 C4737 1.391 . S
C4737 H4725 0.950 . S
C4737 C4733 1.393 . S
C4737 C4736 1.391 . S
C4738 H4728 0.950 . S
C4738 C4739 1.386 . S
C4738 C4740 1.391 . S
C4739 C4738 1.386 . S
C4739 C4743 1.393 . S
C4740 H4729 0.950 . S
C4740 C4738 1.391 . S
C4740 C4741 1.400 . S
C4741 C4735 1.491 . S
C4741 C4740 1.400 . S
C4741 C4742 1.398 . S
C4742 H4730 0.950 . S
C4742 C4741 1.398 . S
C4742 C4743 1.391 . S
C4743 H4731 0.950 . S
C4743 C4739 1.393 . S
C4743 C4742 1.391 . S
H4744 C4752 0.950 . S
H4745 C4757 0.950 . S
H4746 C4754 0.950 . S
H4747 C4756 0.950 . S
H4748 C4758 0.950 . S
H4749 C4760 0.950 . S
H4750 C4762 0.950 . S
H4751 C4763 0.950 . S
C4752 H4744 0.950 . S
C4752 C4753 1.386 . S
C4752 C4754 1.391 . S
C4753 C4752 1.386 . S
C4753 C4757 1.393 . S
C4754 H4746 0.950 . S
C4754 C4752 1.391 . S
C4754 C4755 1.400 . S
C4755 C4754 1.400 . S
C4755 C4756 1.398 . S
C4755 C4761 1.491 . S
C4756 H4747 0.950 . S
C4756 C4755 1.398 . S
C4756 C4757 1.391 . S
C4757 H4745 0.950 . S
C4757 C4753 1.393 . S
C4757 C4756 1.391 . S
C4758 H4748 0.950 . S
C4758 C4759 1.386 . S
C4758 C4760 1.391 . S
C4759 C4758 1.386 . S
C4759 C4763 1.393 . S
C4760 H4749 0.950 . S
C4760 C4758 1.391 . S
C4760 C4761 1.400 . S
C4761 C4755 1.491 . S
C4761 C4760 1.400 . S
C4761 C4762 1.398 . S
C4762 H4750 0.950 . S
C4762 C4761 1.398 . S
C4762 C4763 1.391 . S
C4763 H4751 0.950 . S
C4763 C4759 1.393 . S
C4763 C4762 1.391 . S
H4764 C4772 0.950 . S
H4765 C4777 0.950 . S
H4766 C4774 0.950 . S
H4767 C4776 0.950 . S
H4768 C4778 0.950 . S
H4769 C4780 0.950 . S
H4770 C4782 0.950 . S
H4771 C4783 0.950 . S
C4772 H4764 0.950 . S
C4772 C4773 1.386 . S
C4772 C4774 1.391 . S
C4773 C4772 1.386 . S
C4773 C4777 1.393 . S
C4774 H4766 0.950 . S
C4774 C4772 1.391 . S
C4774 C4775 1.400 . S
C4775 C4774 1.400 . S
C4775 C4776 1.398 . S
C4775 C4781 1.491 . S
C4776 H4767 0.950 . S
C4776 C4775 1.398 . S
C4776 C4777 1.391 . S
C4777 H4765 0.950 . S
C4777 C4773 1.393 . S
C4777 C4776 1.391 . S
C4778 H4768 0.950 . S
C4778 C4779 1.386 . S
C4778 C4780 1.391 . S
C4779 C4778 1.386 . S
C4779 C4783 1.393 . S
C4780 H4769 0.950 . S
C4780 C4778 1.391 . S
C4780 C4781 1.400 . S
C4781 C4775 1.491 . S
C4781 C4780 1.400 . S
C4781 C4782 1.398 . S
C4782 H4770 0.950 . S
C4782 C4781 1.398 . S
C4782 C4783 1.391 . S
C4783 H4771 0.950 . S
C4783 C4779 1.393 . S
C4783 C4782 1.391 . S
H4784 C4792 0.950 . S
H4785 C4797 0.950 . S
H4786 C4794 0.950 . S
H4787 C4796 0.950 . S
H4788 C4798 0.950 . S
H4789 C4800 0.950 . S
H4790 C4802 0.950 . S
H4791 C4803 0.950 . S
C4792 H4784 0.950 . S
C4792 C4793 1.386 . S
C4792 C4794 1.391 . S
C4793 C4792 1.386 . S
C4793 C4797 1.393 . S
C4794 H4786 0.950 . S
C4794 C4792 1.391 . S
C4794 C4795 1.400 . S
C4795 C4794 1.400 . S
C4795 C4796 1.398 . S
C4795 C4801 1.491 . S
C4796 H4787 0.950 . S
C4796 C4795 1.398 . S
C4796 C4797 1.391 . S
C4797 H4785 0.950 . S
C4797 C4793 1.393 . S
C4797 C4796 1.391 . S
C4798 H4788 0.950 . S
C4798 C4799 1.386 . S
C4798 C4800 1.391 . S
C4799 C4798 1.386 . S
C4799 C4803 1.393 . S
C4800 H4789 0.950 . S
C4800 C4798 1.391 . S
C4800 C4801 1.400 . S
C4801 C4795 1.491 . S
C4801 C4800 1.400 . S
C4801 C4802 1.398 . S
C4802 H4790 0.950 . S
C4802 C4801 1.398 . S
C4802 C4803 1.391 . S
C4803 H4791 0.950 . S
C4803 C4799 1.393 . S
C4803 C4802 1.391 . S
H4804 C4812 0.950 . S
H4805 C4817 0.950 . S
H4806 C4814 0.950 . S
H4807 C4816 0.950 . S
H4808 C4818 0.950 . S
H4809 C4820 0.950 . S
H4810 C4822 0.950 . S
H4811 C4823 0.950 . S
C4812 H4804 0.950 . S
C4812 C4813 1.386 . S
C4812 C4814 1.391 . S
C4813 C4812 1.386 . S
C4813 C4817 1.393 . S
C4814 H4806 0.950 . S
C4814 C4812 1.391 . S
C4814 C4815 1.400 . S
C4815 C4814 1.400 . S
C4815 C4816 1.398 . S
C4815 C4821 1.491 . S
C4816 H4807 0.950 . S
C4816 C4815 1.398 . S
C4816 C4817 1.391 . S
C4817 H4805 0.950 . S
C4817 C4813 1.393 . S
C4817 C4816 1.391 . S
C4818 H4808 0.950 . S
C4818 C4819 1.386 . S
C4818 C4820 1.391 . S
C4819 C4818 1.386 . S
C4819 C4823 1.393 . S
C4820 H4809 0.950 . S
C4820 C4818 1.391 . S
C4820 C4821 1.400 . S
C4821 C4815 1.491 . S
C4821 C4820 1.400 . S
C4821 C4822 1.398 . S
C4822 H4810 0.950 . S
C4822 C4821 1.398 . S
C4822 C4823 1.391 . S
C4823 H4811 0.950 . S
C4823 C4819 1.393 . S
C4823 C4822 1.391 . S
H4824 C4832 0.950 . S
H4825 C4837 0.950 . S
H4826 C4834 0.950 . S
H4827 C4836 0.950 . S
H4828 C4838 0.950 . S
H4829 C4840 0.950 . S
H4830 C4842 0.950 . S
H4831 C4843 0.950 . S
C4832 H4824 0.950 . S
C4832 C4833 1.386 . S
C4832 C4834 1.391 . S
C4833 C4832 1.386 . S
C4833 C4837 1.393 . S
C4834 H4826 0.950 . S
C4834 C4832 1.391 . S
C4834 C4835 1.400 . S
C4835 C4834 1.400 . S
C4835 C4836 1.398 . S
C4835 C4841 1.491 . S
C4836 H4827 0.950 . S
C4836 C4835 1.398 . S
C4836 C4837 1.391 . S
C4837 H4825 0.950 . S
C4837 C4833 1.393 . S
C4837 C4836 1.391 . S
C4838 H4828 0.950 . S
C4838 C4839 1.386 . S
C4838 C4840 1.391 . S
C4839 C4838 1.386 . S
C4839 C4843 1.393 . S
C4840 H4829 0.950 . S
C4840 C4838 1.391 . S
C4840 C4841 1.400 . S
C4841 C4835 1.491 . S
C4841 C4840 1.400 . S
C4841 C4842 1.398 . S
C4842 H4830 0.950 . S
C4842 C4841 1.398 . S
C4842 C4843 1.391 . S
C4843 H4831 0.950 . S
C4843 C4839 1.393 . S
C4843 C4842 1.391 . S
H4844 C4852 0.950 . S
H4845 C4857 0.950 . S
H4846 C4854 0.950 . S
H4847 C4856 0.950 . S
H4848 C4858 0.950 . S
H4849 C4860 0.950 . S
H4850 C4862 0.950 . S
H4851 C4863 0.950 . S
C4852 H4844 0.950 . S
C4852 C4853 1.386 . S
C4852 C4854 1.391 . S
C4853 C4852 1.386 . S
C4853 C4857 1.393 . S
C4854 H4846 0.950 . S
C4854 C4852 1.391 . S
C4854 C4855 1.400 . S
C4855 C4854 1.400 . S
C4855 C4856 1.398 . S
C4855 C4861 1.491 . S
C4856 H4847 0.950 . S
C4856 C4855 1.398 . S
C4856 C4857 1.391 . S
C4857 H4845 0.950 . S
C4857 C4853 1.393 . S
C4857 C4856 1.391 . S
C4858 H4848 0.950 . S
C4858 C4859 1.386 . S
C4858 C4860 1.391 . S
C4859 C4858 1.386 . S
C4859 C4863 1.393 . S
C4860 H4849 0.950 . S
C4860 C4858 1.391 . S
C4860 C4861 1.400 . S
C4861 C4855 1.491 . S
C4861 C4860 1.400 . S
C4861 C4862 1.398 . S
C4862 H4850 0.950 . S
C4862 C4861 1.398 . S
C4862 C4863 1.391 . S
C4863 H4851 0.950 . S
C4863 C4859 1.393 . S
C4863 C4862 1.391 . S
H4864 C4872 0.950 . S
H4865 C4877 0.950 . S
H4866 C4874 0.950 . S
H4867 C4876 0.950 . S
H4868 C4878 0.950 . S
H4869 C4880 0.950 . S
H4870 C4882 0.950 . S
H4871 C4883 0.950 . S
C4872 H4864 0.950 . S
C4872 C4873 1.386 . S
C4872 C4874 1.391 . S
C4873 C4872 1.386 . S
C4873 C4877 1.393 . S
C4874 H4866 0.950 . S
C4874 C4872 1.391 . S
C4874 C4875 1.400 . S
C4875 C4874 1.400 . S
C4875 C4876 1.398 . S
C4875 C4881 1.491 . S
C4876 H4867 0.950 . S
C4876 C4875 1.398 . S
C4876 C4877 1.391 . S
C4877 H4865 0.950 . S
C4877 C4873 1.393 . S
C4877 C4876 1.391 . S
C4878 H4868 0.950 . S
C4878 C4879 1.386 . S
C4878 C4880 1.391 . S
C4879 C4878 1.386 . S
C4879 C4883 1.393 . S
C4880 H4869 0.950 . S
C4880 C4878 1.391 . S
C4880 C4881 1.400 . S
C4881 C4875 1.491 . S
C4881 C4880 1.400 . S
C4881 C4882 1.398 . S
C4882 H4870 0.950 . S
C4882 C4881 1.398 . S
C4882 C4883 1.391 . S
C4883 H4871 0.950 . S
C4883 C4879 1.393 . S
C4883 C4882 1.391 . S
H4884 C4892 0.950 . S
H4885 C4897 0.950 . S
H4886 C4894 0.950 . S
H4887 C4896 0.950 . S
H4888 C4898 0.950 . S
H4889 C4900 0.950 . S
H4890 C4902 0.950 . S
H4891 C4903 0.950 . S
C4892 H4884 0.950 . S
C4892 C4893 1.386 . S
C4892 C4894 1.391 . S
C4893 C4892 1.386 . S
C4893 C4897 1.393 . S
C4894 H4886 0.950 . S
C4894 C4892 1.391 . S
C4894 C4895 1.400 . S
C4895 C4894 1.400 . S
C4895 C4896 1.398 . S
C4895 C4901 1.491 . S
C4896 H4887 0.950 . S
C4896 C4895 1.398 . S
C4896 C4897 1.391 . S
C4897 H4885 0.950 . S
C4897 C4893 1.393 . S
C4897 C4896 1.391 . S
C4898 H4888 0.950 . S
C4898 C4899 1.386 . S
C4898 C4900 1.391 . S
C4899 C4898 1.386 . S
C4899 C4903 1.393 . S
C4900 H4889 0.950 . S
C4900 C4898 1.391 . S
C4900 C4901 1.400 . S
C4901 C4895 1.491 . S
C4901 C4900 1.400 . S
C4901 C4902 1.398 . S
C4902 H4890 0.950 . S
C4902 C4901 1.398 . S
C4902 C4903 1.391 . S
C4903 H4891 0.950 . S
C4903 C4899 1.393 . S
C4903 C4902 1.391 . S
H4904 C4912 0.950 . S
H4905 C4917 0.950 . S
H4906 C4914 0.950 . S
H4907 C4916 0.950 . S
H4908 C4918 0.950 . S
H4909 C4920 0.950 . S
H4910 C4922 0.950 . S
H4911 C4923 0.950 . S
C4912 H4904 0.950 . S
C4912 C4913 1.386 . S
C4912 C4914 1.391 . S
C4913 C4912 1.386 . S
C4913 C4917 1.393 . S
C4914 H4906 0.950 . S
C4914 C4912 1.391 . S
C4914 C4915 1.400 . S
C4915 C4914 1.400 . S
C4915 C4916 1.398 . S
C4915 C4921 1.491 . S
C4916 H4907 0.950 . S
C4916 C4915 1.398 . S
C4916 C4917 1.391 . S
C4917 H4905 0.950 . S
C4917 C4913 1.393 . S
C4917 C4916 1.391 . S
C4918 H4908 0.950 . S
C4918 C4919 1.386 . S
C4918 C4920 1.391 . S
C4919 C4918 1.386 . S
C4919 C4923 1.393 . S
C4920 H4909 0.950 . S
C4920 C4918 1.391 . S
C4920 C4921 1.400 . S
C4921 C4915 1.491 . S
C4921 C4920 1.400 . S
C4921 C4922 1.398 . S
C4922 H4910 0.950 . S
C4922 C4921 1.398 . S
C4922 C4923 1.391 . S
C4923 H4911 0.950 . S
C4923 C4919 1.393 . S
C4923 C4922 1.391 . S
H4924 C4932 0.950 . S
H4925 C4937 0.950 . S
H4926 C4934 0.950 . S
H4927 C4936 0.950 . S
H4928 C4938 0.950 . S
H4929 C4940 0.950 . S
H4930 C4942 0.950 . S
H4931 C4943 0.950 . S
C4932 H4924 0.950 . S
C4932 C4933 1.386 . S
C4932 C4934 1.391 . S
C4933 C4932 1.386 . S
C4933 C4937 1.393 . S
C4934 H4926 0.950 . S
C4934 C4932 1.391 . S
C4934 C4935 1.400 . S
C4935 C4934 1.400 . S
C4935 C4936 1.398 . S
C4935 C4941 1.491 . S
C4936 H4927 0.950 . S
C4936 C4935 1.398 . S
C4936 C4937 1.391 . S
C4937 H4925 0.950 . S
C4937 C4933 1.393 . S
C4937 C4936 1.391 . S
C4938 H4928 0.950 . S
C4938 C4939 1.386 . S
C4938 C4940 1.391 . S
C4939 C4938 1.386 . S
C4939 C4943 1.393 . S
C4940 H4929 0.950 . S
C4940 C4938 1.391 . S
C4940 C4941 1.400 . S
C4941 C4935 1.491 . S
C4941 C4940 1.400 . S
C4941 C4942 1.398 . S
C4942 H4930 0.950 . S
C4942 C4941 1.398 . S
C4942 C4943 1.391 . S
C4943 H4931 0.950 . S
C4943 C4939 1.393 . S
C4943 C4942 1.391 . S
H4944 C4952 0.950 . S
H4945 C4957 0.950 . S
H4946 C4954 0.950 . S
H4947 C4956 0.950 . S
H4948 C4958 0.950 . S
H4949 C4960 0.950 . S
H4950 C4962 0.950 . S
H4951 C4963 0.950 . S
C4952 H4944 0.950 . S
C4952 C4953 1.386 . S
C4952 C4954 1.391 . S
C4953 C4952 1.386 . S
C4953 C4957 1.393 . S
C4954 H4946 0.950 . S
C4954 C4952 1.391 . S
C4954 C4955 1.400 . S
C4955 C4954 1.400 . S
C4955 C4956 1.398 . S
C4955 C4961 1.491 . S
C4956 H4947 0.950 . S
C4956 C4955 1.398 . S
C4956 C4957 1.391 . S
C4957 H4945 0.950 . S
C4957 C4953 1.393 . S
C4957 C4956 1.391 . S
C4958 H4948 0.950 . S
C4958 C4959 1.386 . S
C4958 C4960 1.391 . S
C4959 C4958 1.386 . S
C4959 C4963 1.393 . S
C4960 H4949 0.950 . S
C4960 C4958 1.391 . S
C4960 C4961 1.400 . S
C4961 C4955 1.491 . S
C4961 C4960 1.400 . S
C4961 C4962 1.398 . S
C4962 H4950 0.950 . S
C4962 C4961 1.398 . S
C4962 C4963 1.391 . S
C4963 H4951 0.950 . S
C4963 C4959 1.393 . S
C4963 C4962 1.391 . S
H4964 C4972 0.950 . S
H4965 C4977 0.950 . S
H4966 C4974 0.950 . S
H4967 C4976 0.950 . S
H4968 C4978 0.950 . S
H4969 C4980 0.950 . S
H4970 C4982 0.950 . S
H4971 C4983 0.950 . S
C4972 H4964 0.950 . S
C4972 C4973 1.386 . S
C4972 C4974 1.391 . S
C4973 C4972 1.386 . S
C4973 C4977 1.393 . S
C4974 H4966 0.950 . S
C4974 C4972 1.391 . S
C4974 C4975 1.400 . S
C4975 C4974 1.400 . S
C4975 C4976 1.398 . S
C4975 C4981 1.491 . S
C4976 H4967 0.950 . S
C4976 C4975 1.398 . S
C4976 C4977 1.391 . S
C4977 H4965 0.950 . S
C4977 C4973 1.393 . S
C4977 C4976 1.391 . S
C4978 H4968 0.950 . S
C4978 C4979 1.386 . S
C4978 C4980 1.391 . S
C4979 C4978 1.386 . S
C4979 C4983 1.393 . S
C4980 H4969 0.950 . S
C4980 C4978 1.391 . S
C4980 C4981 1.400 . S
C4981 C4975 1.491 . S
C4981 C4980 1.400 . S
C4981 C4982 1.398 . S
C4982 H4970 0.950 . S
C4982 C4981 1.398 . S
C4982 C4983 1.391 . S
C4983 H4971 0.950 . S
C4983 C4979 1.393 . S
C4983 C4982 1.391 . S
H4984 C4992 0.950 . S
H4985 C4997 0.950 . S
H4986 C4994 0.950 . S
H4987 C4996 0.950 . S
H4988 C4998 0.950 . S
H4989 C5000 0.950 . S
H4990 C5002 0.950 . S
H4991 C5003 0.950 . S
C4992 H4984 0.950 . S
C4992 C4993 1.386 . S
C4992 C4994 1.391 . S
C4993 C4992 1.386 . S
C4993 C4997 1.393 . S
C4994 H4986 0.950 . S
C4994 C4992 1.391 . S
C4994 C4995 1.400 . S
C4995 C4994 1.400 . S
C4995 C4996 1.398 . S
C4995 C5001 1.491 . S
C4996 H4987 0.950 . S
C4996 C4995 1.398 . S
C4996 C4997 1.391 . S
C4997 H4985 0.950 . S
C4997 C4993 1.393 . S
C4997 C4996 1.391 . S
C4998 H4988 0.950 . S
C4998 C4999 1.386 . S
C4998 C5000 1.391 . S
C4999 C4998 1.386 . S
C4999 C5003 1.393 . S
C5000 H4989 0.950 . S
C5000 C4998 1.391 . S
C5000 C5001 1.400 . S
C5001 C4995 1.491 . S
C5001 C5000 1.400 . S
C5001 C5002 1.398 . S
C5002 H4990 0.950 . S
C5002 C5001 1.398 . S
C5002 C5003 1.391 . S
C5003 H4991 0.950 . S
C5003 C4999 1.393 . S
C5003 C5002 1.391 . S
H5004 C5012 0.950 . S
H5005 C5017 0.950 . S
H5006 C5014 0.950 . S
H5007 C5016 0.950 . S
H5008 C5018 0.950 . S
H5009 C5020 0.950 . S
H5010 C5022 0.950 . S
H5011 C5023 0.950 . S
C5012 H5004 0.950 . S
C5012 C5013 1.386 . S
C5012 C5014 1.391 . S
C5013 C5012 1.386 . S
C5013 C5017 1.393 . S
C5014 H5006 0.950 . S
C5014 C5012 1.391 . S
C5014 C5015 1.400 . S
C5015 C5014 1.400 . S
C5015 C5016 1.398 . S
C5015 C5021 1.491 . S
C5016 H5007 0.950 . S
C5016 C5015 1.398 . S
C5016 C5017 1.391 . S
C5017 H5005 0.950 . S
C5017 C5013 1.393 . S
C5017 C5016 1.391 . S
C5018 H5008 0.950 . S
C5018 C5019 1.386 . S
C5018 C5020 1.391 . S
C5019 C5018 1.386 . S
C5019 C5023 1.393 . S
C5020 H5009 0.950 . S
C5020 C5018 1.391 . S
C5020 C5021 1.400 . S
C5021 C5015 1.491 . S
C5021 C5020 1.400 . S
C5021 C5022 1.398 . S
C5022 H5010 0.950 . S
C5022 C5021 1.398 . S
C5022 C5023 1.391 . S
C5023 H5011 0.950 . S
C5023 C5019 1.393 . S
C5023 C5022 1.391 . S
H5024 C5032 0.950 . S
H5025 C5037 0.950 . S
H5026 C5034 0.950 . S
H5027 C5036 0.950 . S
H5028 C5038 0.950 . S
H5029 C5040 0.950 . S
H5030 C5042 0.950 . S
H5031 C5043 0.950 . S
C5032 H5024 0.950 . S
C5032 C5033 1.386 . S
C5032 C5034 1.391 . S
C5033 C5032 1.386 . S
C5033 C5037 1.393 . S
C5034 H5026 0.950 . S
C5034 C5032 1.391 . S
C5034 C5035 1.400 . S
C5035 C5034 1.400 . S
C5035 C5036 1.398 . S
C5035 C5041 1.491 . S
C5036 H5027 0.950 . S
C5036 C5035 1.398 . S
C5036 C5037 1.391 . S
C5037 H5025 0.950 . S
C5037 C5033 1.393 . S
C5037 C5036 1.391 . S
C5038 H5028 0.950 . S
C5038 C5039 1.386 . S
C5038 C5040 1.391 . S
C5039 C5038 1.386 . S
C5039 C5043 1.393 . S
C5040 H5029 0.950 . S
C5040 C5038 1.391 . S
C5040 C5041 1.400 . S
C5041 C5035 1.491 . S
C5041 C5040 1.400 . S
C5041 C5042 1.398 . S
C5042 H5030 0.950 . S
C5042 C5041 1.398 . S
C5042 C5043 1.391 . S
C5043 H5031 0.950 . S
C5043 C5039 1.393 . S
C5043 C5042 1.391 . S
H5044 C5052 0.950 . S
H5045 C5057 0.950 . S
H5046 C5054 0.950 . S
H5047 C5056 0.950 . S
H5048 C5058 0.950 . S
H5049 C5060 0.950 . S
H5050 C5062 0.950 . S
H5051 C5063 0.950 . S
C5052 H5044 0.950 . S
C5052 C5053 1.386 . S
C5052 C5054 1.391 . S
C5053 C5052 1.386 . S
C5053 C5057 1.393 . S
C5054 H5046 0.950 . S
C5054 C5052 1.391 . S
C5054 C5055 1.400 . S
C5055 C5054 1.400 . S
C5055 C5056 1.398 . S
C5055 C5061 1.491 . S
C5056 H5047 0.950 . S
C5056 C5055 1.398 . S
C5056 C5057 1.391 . S
C5057 H5045 0.950 . S
C5057 C5053 1.393 . S
C5057 C5056 1.391 . S
C5058 H5048 0.950 . S
C5058 C5059 1.386 . S
C5058 C5060 1.391 . S
C5059 C5058 1.386 . S
C5059 C5063 1.393 . S
C5060 H5049 0.950 . S
C5060 C5058 1.391 . S
C5060 C5061 1.400 . S
C5061 C5055 1.491 . S
C5061 C5060 1.400 . S
C5061 C5062 1.398 . S
C5062 H5050 0.950 . S
C5062 C5061 1.398 . S
C5062 C5063 1.391 . S
C5063 H5051 0.950 . S
C5063 C5059 1.393 . S
C5063 C5062 1.391 . S
H5064 C5072 0.950 . S
H5065 C5077 0.950 . S
H5066 C5074 0.950 . S
H5067 C5076 0.950 . S
H5068 C5078 0.950 . S
H5069 C5080 0.950 . S
H5070 C5082 0.950 . S
H5071 C5083 0.950 . S
C5072 H5064 0.950 . S
C5072 C5073 1.386 . S
C5072 C5074 1.391 . S
C5073 C5072 1.386 . S
C5073 C5077 1.393 . S
C5074 H5066 0.950 . S
C5074 C5072 1.391 . S
C5074 C5075 1.400 . S
C5075 C5074 1.400 . S
C5075 C5076 1.398 . S
C5075 C5081 1.491 . S
C5076 H5067 0.950 . S
C5076 C5075 1.398 . S
C5076 C5077 1.391 . S
C5077 H5065 0.950 . S
C5077 C5073 1.393 . S
C5077 C5076 1.391 . S
C5078 H5068 0.950 . S
C5078 C5079 1.386 . S
C5078 C5080 1.391 . S
C5079 C5078 1.386 . S
C5079 C5083 1.393 . S
C5080 H5069 0.950 . S
C5080 C5078 1.391 . S
C5080 C5081 1.400 . S
C5081 C5075 1.491 . S
C5081 C5080 1.400 . S
C5081 C5082 1.398 . S
C5082 H5070 0.950 . S
C5082 C5081 1.398 . S
C5082 C5083 1.391 . S
C5083 H5071 0.950 . S
C5083 C5079 1.393 . S
C5083 C5082 1.391 . S
H5084 C5092 0.950 . S
H5085 C5097 0.950 . S
H5086 C5094 0.950 . S
H5087 C5096 0.950 . S
H5088 C5098 0.950 . S
H5089 C5100 0.950 . S
H5090 C5102 0.950 . S
H5091 C5103 0.950 . S
C5092 H5084 0.950 . S
C5092 C5093 1.386 . S
C5092 C5094 1.391 . S
C5093 C5092 1.386 . S
C5093 C5097 1.393 . S
C5094 H5086 0.950 . S
C5094 C5092 1.391 . S
C5094 C5095 1.400 . S
C5095 C5094 1.400 . S
C5095 C5096 1.398 . S
C5095 C5101 1.491 . S
C5096 H5087 0.950 . S
C5096 C5095 1.398 . S
C5096 C5097 1.391 . S
C5097 H5085 0.950 . S
C5097 C5093 1.393 . S
C5097 C5096 1.391 . S
C5098 H5088 0.950 . S
C5098 C5099 1.386 . S
C5098 C5100 1.391 . S
C5099 C5098 1.386 . S
C5099 C5103 1.393 . S
C5100 H5089 0.950 . S
C5100 C5098 1.391 . S
C5100 C5101 1.400 . S
C5101 C5095 1.491 . S
C5101 C5100 1.400 . S
C5101 C5102 1.398 . S
C5102 H5090 0.950 . S
C5102 C5101 1.398 . S
C5102 C5103 1.391 . S
C5103 H5091 0.950 . S
C5103 C5099 1.393 . S
C5103 C5102 1.391 . S
H5104 C5112 0.950 . S
H5105 C5117 0.950 . S
H5106 C5114 0.950 . S
H5107 C5116 0.950 . S
H5108 C5118 0.950 . S
H5109 C5120 0.950 . S
H5110 C5122 0.950 . S
H5111 C5123 0.950 . S
C5112 H5104 0.950 . S
C5112 C5113 1.386 . S
C5112 C5114 1.391 . S
C5113 C5112 1.386 . S
C5113 C5117 1.393 . S
C5114 H5106 0.950 . S
C5114 C5112 1.391 . S
C5114 C5115 1.400 . S
C5115 C5114 1.400 . S
C5115 C5116 1.398 . S
C5115 C5121 1.491 . S
C5116 H5107 0.950 . S
C5116 C5115 1.398 . S
C5116 C5117 1.391 . S
C5117 H5105 0.950 . S
C5117 C5113 1.393 . S
C5117 C5116 1.391 . S
C5118 H5108 0.950 . S
C5118 C5119 1.386 . S
C5118 C5120 1.391 . S
C5119 C5118 1.386 . S
C5119 C5123 1.393 . S
C5120 H5109 0.950 . S
C5120 C5118 1.391 . S
C5120 C5121 1.400 . S
C5121 C5115 1.491 . S
C5121 C5120 1.400 . S
C5121 C5122 1.398 . S
C5122 H5110 0.950 . S
C5122 C5121 1.398 . S
C5122 C5123 1.391 . S
C5123 H5111 0.950 . S
C5123 C5119 1.393 . S
C5123 C5122 1.391 . S
H5124 C5132 0.950 . S
H5125 C5137 0.950 . S
H5126 C5134 0.950 . S
H5127 C5136 0.950 . S
H5128 C5138 0.950 . S
H5129 C5140 0.950 . S
H5130 C5142 0.950 . S
H5131 C5143 0.950 . S
C5132 H5124 0.950 . S
C5132 C5133 1.386 . S
C5132 C5134 1.391 . S
C5133 C5132 1.386 . S
C5133 C5137 1.393 . S
C5134 H5126 0.950 . S
C5134 C5132 1.391 . S
C5134 C5135 1.400 . S
C5135 C5134 1.400 . S
C5135 C5136 1.398 . S
C5135 C5141 1.491 . S
C5136 H5127 0.950 . S
C5136 C5135 1.398 . S
C5136 C5137 1.391 . S
C5137 H5125 0.950 . S
C5137 C5133 1.393 . S
C5137 C5136 1.391 . S
C5138 H5128 0.950 . S
C5138 C5139 1.386 . S
C5138 C5140 1.391 . S
C5139 C5138 1.386 . S
C5139 C5143 1.393 . S
C5140 H5129 0.950 . S
C5140 C5138 1.391 . S
C5140 C5141 1.400 . S
C5141 C5135 1.491 . S
C5141 C5140 1.400 . S
C5141 C5142 1.398 . S
C5142 H5130 0.950 . S
C5142 C5141 1.398 . S
C5142 C5143 1.391 . S
C5143 H5131 0.950 . S
C5143 C5139 1.393 . S
C5143 C5142 1.391 . S
H5144 C5152 0.950 . S
H5145 C5157 0.950 . S
H5146 C5154 0.950 . S
H5147 C5156 0.950 . S
H5148 C5158 0.950 . S
H5149 C5160 0.950 . S
H5150 C5162 0.950 . S
H5151 C5163 0.950 . S
C5152 H5144 0.950 . S
C5152 C5153 1.386 . S
C5152 C5154 1.391 . S
C5153 C5152 1.386 . S
C5153 C5157 1.393 . S
C5154 H5146 0.950 . S
C5154 C5152 1.391 . S
C5154 C5155 1.400 . S
C5155 C5154 1.400 . S
C5155 C5156 1.398 . S
C5155 C5161 1.491 . S
C5156 H5147 0.950 . S
C5156 C5155 1.398 . S
C5156 C5157 1.391 . S
C5157 H5145 0.950 . S
C5157 C5153 1.393 . S
C5157 C5156 1.391 . S
C5158 H5148 0.950 . S
C5158 C5159 1.386 . S
C5158 C5160 1.391 . S
C5159 C5158 1.386 . S
C5159 C5163 1.393 . S
C5160 H5149 0.950 . S
C5160 C5158 1.391 . S
C5160 C5161 1.400 . S
C5161 C5155 1.491 . S
C5161 C5160 1.400 . S
C5161 C5162 1.398 . S
C5162 H5150 0.950 . S
C5162 C5161 1.398 . S
C5162 C5163 1.391 . S
C5163 H5151 0.950 . S
C5163 C5159 1.393 . S
C5163 C5162 1.391 . S
H5164 C5172 0.950 . S
H5165 C5177 0.950 . S
H5166 C5174 0.950 . S
H5167 C5176 0.950 . S
H5168 C5178 0.950 . S
H5169 C5180 0.950 . S
H5170 C5182 0.950 . S
H5171 C5183 0.950 . S
C5172 H5164 0.950 . S
C5172 C5173 1.386 . S
C5172 C5174 1.391 . S
C5173 C5172 1.386 . S
C5173 C5177 1.393 . S
C5174 H5166 0.950 . S
C5174 C5172 1.391 . S
C5174 C5175 1.400 . S
C5175 C5174 1.400 . S
C5175 C5176 1.398 . S
C5175 C5181 1.491 . S
C5176 H5167 0.950 . S
C5176 C5175 1.398 . S
C5176 C5177 1.391 . S
C5177 H5165 0.950 . S
C5177 C5173 1.393 . S
C5177 C5176 1.391 . S
C5178 H5168 0.950 . S
C5178 C5179 1.386 . S
C5178 C5180 1.391 . S
C5179 C5178 1.386 . S
C5179 C5183 1.393 . S
C5180 H5169 0.950 . S
C5180 C5178 1.391 . S
C5180 C5181 1.400 . S
C5181 C5175 1.491 . S
C5181 C5180 1.400 . S
C5181 C5182 1.398 . S
C5182 H5170 0.950 . S
C5182 C5181 1.398 . S
C5182 C5183 1.391 . S
C5183 H5171 0.950 . S
C5183 C5179 1.393 . S
C5183 C5182 1.391 . S
C1353 C1 1.712 . S
C1359 C1051 1.693 . S
C1373 C348 1.707 . S
C1379 C26 1.706 . S
C1393 C1023 1.694 . S
C1399 C41 1.707 . S
C1413 C364 1.703 . S
C1419 C54 1.712 . S
C1433 C69 1.701 . S
C1439 C1079 1.707 . S
C1453 C82 1.712 . S
C1459 C432 1.692 . S
C1473 C1107 1.693 . S
C1479 C97 1.711 . S
C1493 C110 1.712 . S
C1499 C404 1.692 . S
C1513 C125 1.713 . S
C1519 C1261 1.699 . S
C1533 C603 1.694 . S
C1539 C139 1.707 . S
C1553 C153 1.712 . S
C1559 C617 1.702 . S
C1573 C155 1.713 . S
C1579 C575 1.699 . S
C1593 C181 1.701 . S
C1599 C1328 1.702 . S
C1613 C183 1.713 . S
C1619 C1233 1.695 . S
C1633 C197 1.707 . S
C1639 C1342 1.706 . S
C1653 C223 1.701 . S
C1659 C1303 1.705 . S
C1673 C1134 1.702 . S
C1679 C236 1.712 . S
C1693 C250 1.713 . S
C1699 C558 1.692 . S
C1713 C264 1.703 . S
C1719 C1188 1.701 . S
C1733 C530 1.696 . S
C1739 C278 1.706 . S
C1753 C280 1.709 . S
C1759 C532 1.693 . S
C1773 C1162 1.701 . S
C1779 C306 1.713 . S
C1793 C309 1.703 . S
C1799 C1133 1.708 . S
C1813 C1160 1.694 . S
C1819 C334 1.715 . S
C1833 C714 1.708 . S
C1839 C336 1.706 . S
C1853 C13 1.703 . S
C1859 C363 1.711 . S
C1873 C376 1.708 . S
C1879 C686 1.706 . S
C1893 C391 1.712 . S
C1899 C29 1.702 . S
C1913 C392 1.705 . S
C1919 C742 1.696 . S
C1933 C85 1.693 . S
C1939 C419 1.710 . S
C1953 C420 1.711 . S
C1959 C770 1.693 . S
C1973 C447 1.713 . S
C1979 C57 1.701 . S
C1993 C449 1.709 . S
C1999 C936 1.694 . S
C2013 C266 1.708 . S
C2019 C474 1.703 . S
C2033 C477 1.714 . S
C2039 C292 1.695 . S
C2053 C238 1.694 . S
C2059 C502 1.713 . S
C2073 C504 1.711 . S
C2079 C993 1.702 . S
C2093 C518 1.702 . S
C2099 C896 1.699 . S
C2113 C544 1.701 . S
C2119 C1007 1.705 . S
C2133 C966 1.697 . S
C2139 C546 1.714 . S
C2153 C811 1.707 . S
C2159 C573 1.704 . S
C2173 C211 1.705 . S
C2179 C587 1.709 . S
C2193 C852 1.701 . S
C2199 C600 1.702 . S
C2213 C615 1.709 . S
C2219 C195 1.705 . S
C2233 C629 1.708 . S
C2239 C209 1.706 . S
C2253 C643 1.708 . S
C2259 C827 1.694 . S
C2273 C784 1.702 . S
C2279 C645 1.703 . S
C2293 C658 1.706 . S
C2299 C812 1.708 . S
C2313 C379 1.702 . S
C2319 C673 1.712 . S
C2333 C1008 1.700 . S
C2339 C698 1.713 . S
C2353 C713 1.711 . S
C2359 C351 1.703 . S
C2373 C1036 1.698 . S
C2379 C726 1.714 . S
C2393 C741 1.711 . S
C2399 C407 1.693 . S
C2413 C1092 1.695 . S
C2419 C754 1.715 . S
C2433 C769 1.713 . S
C2439 C435 1.700 . S
C2453 C1064 1.706 . S
C2459 C782 1.703 . S
C2473 C588 1.699 . S
C2479 C796 1.714 . S
C2493 C799 1.712 . S
C2499 C1275 1.694 . S
C2513 C1289 1.708 . S
C2519 C824 1.704 . S
C2533 C839 1.711 . S
C2539 C1247 1.693 . S
C2553 C657 1.705 . S
C2559 C840 1.710 . S
C2573 C867 1.710 . S
C2579 C561 1.693 . S
C2593 C670 1.699 . S
C2599 C881 1.702 . S
C2613 C631 1.708 . S
C2619 C883 1.705 . S
C2633 C462 1.707 . S
C2639 C908 1.706 . S
C2653 C1230 1.707 . S
C2659 C922 1.704 . S
C2673 C924 1.715 . S
C2679 C516 1.696 . S
C2693 C950 1.705 . S
C2699 C1202 1.707 . S
C2713 C1205 1.695 . S
C2719 C965 1.707 . S
C2733 C490 1.693 . S
C2739 C978 1.709 . S
C2753 C461 1.693 . S
C2759 C981 1.710 . S
C2773 C489 1.706 . S
C2779 C995 1.708 . S
C2793 C1020 1.706 . S
C2799 C42 1.695 . S
C2813 C1035 1.703 . S
C2819 C685 1.707 . S
C2833 C1048 1.703 . S
C2839 C14 1.708 . S
C2853 C1063 1.714 . S
C2859 C701 1.699 . S
C2873 C70 1.704 . S
C2879 C1076 1.701 . S
C2893 C757 1.692 . S
C2899 C1091 1.711 . S
C2913 C98 1.695 . S
C2919 C1104 1.706 . S
C2933 C729 1.706 . S
C2939 C1119 1.709 . S
C2953 C1121 1.704 . S
C2959 C252 1.700 . S
C2973 C938 1.702 . S
C2979 C1146 1.712 . S
C2993 C1148 1.701 . S
C2999 C953 1.705 . S
C3013 C1174 1.707 . S
C3019 C910 1.707 . S
C3033 C321 1.707 . S
C3039 C1176 1.705 . S
C3053 C224 1.701 . S
C3059 C1190 1.702 . S
C3073 C1217 1.713 . S
C3079 C322 1.693 . S
C3093 C294 1.708 . S
C3099 C1218 1.702 . S
C3113 C1245 1.704 . S
C3119 C127 1.707 . S
C3133 C1259 1.708 . S
C3139 C895 1.694 . S
C3153 C169 1.695 . S
C3159 C1273 1.707 . S
C3173 C1287 1.711 . S
C3179 C855 1.703 . S
C3193 C869 1.703 . S
C3199 C1301 1.712 . S
C3213 C1315 1.709 . S
C3219 C167 1.706 . S
C3233 C1316 1.711 . S
C3239 C113 1.692 . S
C3253 C1330 1.708 . S
C3259 C141 1.693 . S
C3273 C12 1.602 . S
C3279 C614 1.615 . S
C3293 C628 1.615 . S
C3299 C15 1.607 . S
C3313 C586 1.615 . S
C3319 C28 1.602 . S
C3333 C43 1.604 . S
C3339 C1272 1.609 . S
C3353 C56 1.603 . S
C3359 C1314 1.616 . S
C3373 C71 1.605 . S
C3379 C1317 1.617 . S
C3393 C1244 1.615 . S
C3399 C84 1.608 . S
C3413 C1331 1.615 . S
C3419 C99 1.601 . S
C3433 C377 1.610 . S
C3439 C112 1.614 . S
C3453 C126 1.603 . S
C3459 C1062 1.613 . S
C3473 C337 1.614 . S
C3479 C140 1.611 . S
C3493 C1034 1.615 . S
C3499 C166 1.609 . S
C3513 C421 1.616 . S
C3519 C168 1.609 . S
C3533 C194 1.609 . S
C3539 C1118 1.606 . S
C3553 C208 1.614 . S
C3559 C393 1.607 . S
C3573 C210 1.603 . S
C3579 C1090 1.614 . S
C3593 C225 1.602 . S
C3599 C1177 1.612 . S
C3613 C448 1.610 . S
C3619 C239 1.603 . S
C3633 C253 1.602 . S
C3639 C1147 1.617 . S
C3653 C267 1.612 . S
C3659 C476 1.605 . S
C3673 C293 1.609 . S
C3679 C503 1.607 . S
C3693 C295 1.603 . S
C3699 C1216 1.617 . S
C3713 C1219 1.617 . S
C3719 C320 1.603 . S
C3733 C1191 1.610 . S
C3739 C323 1.613 . S
C3753 C279 1.605 . S
C3759 C349 1.612 . S
C3773 C350 1.602 . S
C3779 C281 1.612 . S
C3793 C365 1.611 . S
C3799 C251 1.605 . S
C3813 C378 1.605 . S
C3819 C925 1.616 . S
C3833 C979 1.609 . S
C3839 C405 1.614 . S
C3853 C980 1.607 . S
C3859 C406 1.612 . S
C3873 C433 1.605 . S
C3879 C909 1.616 . S
C3893 C994 1.617 . S
C3899 C434 1.603 . S
C3913 C460 1.606 . S
C3919 C40 1.617 . S
C3933 C727 1.614 . S
C3939 C463 1.602 . S
C3953 C488 1.608 . S
C3959 C0 1.615 . S
C3973 C699 1.605 . S
C3979 C491 1.613 . S
C3993 C517 1.607 . S
C3999 C96 1.609 . S
C4013 C783 1.609 . S
C4019 C531 1.614 . S
C4033 C68 1.617 . S
C4039 C533 1.603 . S
C4053 C755 1.616 . S
C4059 C559 1.602 . S
C4073 C560 1.612 . S
C4079 C841 1.611 . S
C4093 C574 1.601 . S
C4099 C124 1.615 . S
C4113 C798 1.614 . S
C4119 C589 1.611 . S
C4133 C602 1.613 . S
C4139 C152 1.611 . S
C4153 C154 1.617 . S
C4159 C616 1.601 . S
C4173 C880 1.608 . S
C4179 C630 1.613 . S
C4193 C882 1.610 . S
C4199 C656 1.613 . S
C4213 C866 1.608 . S
C4219 C671 1.615 . S
C4233 C684 1.614 . S
C4239 C1286 1.606 . S
C4253 C687 1.613 . S
C4259 C1300 1.606 . S
C4273 C700 1.610 . S
C4279 C1258 1.614 . S
C4293 C601 1.608 . S
C4299 C715 1.608 . S
C4313 C728 1.606 . S
C4319 C642 1.616 . S
C4333 C644 1.613 . S
C4339 C743 1.610 . S
C4353 C572 1.612 . S
C4359 C756 1.612 . S
C4373 C659 1.616 . S
C4379 C771 1.606 . S
C4393 C785 1.613 . S
C4399 C1049 1.608 . S
C4413 C390 1.613 . S
C4419 C810 1.611 . S
C4433 C813 1.605 . S
C4439 C1021 1.610 . S
C4453 C826 1.608 . S
C4459 C362 1.607 . S
C4473 C853 1.613 . S
C4479 C1105 1.608 . S
C4493 C854 1.604 . S
C4499 C446 1.617 . S
C4513 C1077 1.612 . S
C4519 C868 1.604 . S
C4533 C418 1.613 . S
C4539 C894 1.611 . S
C4553 C897 1.604 . S
C4559 C505 1.610 . S
C4573 C911 1.602 . S
C4579 C1120 1.611 . S
C4593 C937 1.612 . S
C4599 C475 1.612 . S
C4613 C1149 1.615 . S
C4619 C939 1.601 . S
C4633 C952 1.615 . S
C4639 C1175 1.609 . S
C4653 C967 1.613 . S
C4659 C545 1.607 . S
C4673 C547 1.615 . S
C4679 C992 1.610 . S
C4693 C1006 1.608 . S
C4699 C519 1.616 . S
C4713 C1009 1.602 . S
C4719 C951 1.616 . S
C4733 C964 1.617 . S
C4739 C1022 1.601 . S
C4753 C923 1.611 . S
C4759 C1037 1.613 . S
C4773 C1050 1.612 . S
C4779 C265 1.605 . S
C4793 C1065 1.604 . S
C4799 C307 1.610 . S
C4813 C1078 1.601 . S
C4819 C308 1.614 . S
C4833 C237 1.610 . S
C4839 C1093 1.605 . S
C4853 C1106 1.607 . S
C4859 C335 1.615 . S
C4873 C1132 1.607 . S
C4879 C712 1.608 . S
C4893 C1135 1.615 . S
C4899 C55 1.607 . S
C4913 C1161 1.605 . S
C4919 C672 1.617 . S
C4933 C1163 1.605 . S
C4939 C27 1.616 . S
C4953 C1189 1.613 . S
C4959 C768 1.612 . S
C4973 C1203 1.611 . S
C4979 C111 1.613 . S
C4993 C1204 1.601 . S
C4999 C740 1.616 . S
C5013 C1231 1.606 . S
C5019 C83 1.616 . S
C5033 C1232 1.601 . S
C5039 C180 1.613 . S
C5053 C1246 1.613 . S
C5059 C797 1.606 . S
C5073 C1260 1.613 . S
C5079 C138 1.607 . S
C5093 C1274 1.606 . S
C5099 C825 1.616 . S
C5113 C1288 1.601 . S
C5119 C838 1.616 . S
C5133 C196 1.607 . S
C5139 C1302 1.611 . S
C5153 C1329 1.614 . S
C5159 C222 1.611 . S
C5173 C1343 1.612 . S
C5179 C182 1.613 . S
