# Generated by pormake.
# Topology fnu, (5)-cn, num edge types: 1
# Building blocks:
#     Node 0, Type 0, BuildingBlock: BEQFEK_clean_sbu_0, # of connection points: 5
#     Node 1, Type 0, BuildingBlock: BEQFEK_clean_sbu_0, # of connection points: 5
#     Node 2, Type 0, BuildingBlock: BEQFEK_clean_sbu_0, # of connection points: 5
#     Node 3, Type 0, BuildingBlock: BEQFEK_clean_sbu_0, # of connection points: 5
#     Node 4, Type 0, BuildingBlock: BEQFEK_clean_sbu_0, # of connection points: 5
#     Node 5, Type 0, BuildingBlock: BEQFEK_clean_sbu_0, # of connection points: 5
#     Edge 6, Type (0, 0), BuildingBlock: EYOCIG_clean_linker_4, # of connection points: 2
#     Edge 7, Type (0, 0), BuildingBlock: EYOCIG_clean_linker_4, # of connection points: 2
#     Edge 8, Type (0, 0), BuildingBlock: EYOCIG_clean_linker_4, # of connection points: 2
#     Edge 9, Type (0, 0), BuildingBlock: EYOCIG_clean_linker_4, # of connection points: 2
#     Edge 10, Type (0, 0), BuildingBlock: EYOCIG_clean_linker_4, # of connection points: 2
#     Edge 11, Type (0, 0), BuildingBlock: EYOCIG_clean_linker_4, # of connection points: 2
#     Edge 12, Type (0, 0), BuildingBlock: EYOCIG_clean_linker_4, # of connection points: 2
#     Edge 13, Type (0, 0), BuildingBlock: EYOCIG_clean_linker_4, # of connection points: 2
#     Edge 14, Type (0, 0), BuildingBlock: EYOCIG_clean_linker_4, # of connection points: 2
#     Edge 15, Type (0, 0), BuildingBlock: EYOCIG_clean_linker_4, # of connection points: 2
#     Edge 16, Type (0, 0), BuildingBlock: EYOCIG_clean_linker_4, # of connection points: 2
#     Edge 17, Type (0, 0), BuildingBlock: EYOCIG_clean_linker_4, # of connection points: 2
#     Edge 18, Type (0, 0), BuildingBlock: EYOCIG_clean_linker_4, # of connection points: 2
#     Edge 19, Type (0, 0), BuildingBlock: EYOCIG_clean_linker_4, # of connection points: 2
#     Edge 20, Type (0, 0), BuildingBlock: EYOCIG_clean_linker_4, # of connection points: 2
# Relax obj value: 0.176
# Max RMSD: 0.167
# Mean RMSD: 0.167
data_MOF--net-fnu--node1-BEQFEK_clean_sbu_0--edge1-EYOCIG_clean_linker_4
_symmetry_space_group_name_H-M    P1
_symmetry_Int_Tables_number       1
_symmetry_cell_setting            triclinic
loop_
_symmetry_equiv_pos_as_xyz
'x, y, z'
_cell_length_a     19.773777
_cell_length_b     23.303888
_cell_length_c     30.564599
_cell_angle_alpha  89.98196
_cell_angle_beta   96.581057
_cell_angle_gamma 126.11427
loop_
_atom_site_label
_atom_site_type_symbol
_atom_site_fract_x
_atom_site_fract_y
_atom_site_fract_z
_atom_type_partial_charge
Co0 Co 1.00031 0.97661 0.17009 0.0
Co1 Co 0.05301 0.03022 0.27103 0.0
C2 C 0.97641 0.87739 0.23721 0.0
O3 O 0.9718 0.8927 0.198 0.0
O4 O 1.00536 0.92378 0.26993 0.0
C5 C 0.90779 0.88034 0.09379 0.0
O6 O 0.85988 0.83338 0.12057 0.0
C7 C 0.03576 0.02896 0.3682 0.0
C8 C 0.13541 0.14114 0.39241 0.0
C9 C 0.07453 0.07564 0.40642 0.0
N10 N 0.07249 0.0652 0.33324 0.0
N11 N 0.13189 0.13238 0.3483 0.0
C12 C 0.96642 0.95082 0.36518 0.0
H13 H 0.9944 0.92126 0.36485 0.0
H14 H 0.92269 0.93482 0.33388 0.0
H15 H 0.93116 0.93648 0.39388 0.0
C16 C 0.91722 0.04484 0.16915 0.0
N17 N 0.95476 0.01937 0.19234 0.0
N18 N 0.97886 0.04666 0.23376 0.0
C19 C 0.95761 0.09202 0.23767 0.0
C20 C 0.91869 0.09262 0.19658 0.0
C21 C 0.89206 0.03149 0.12006 0.0
H22 H 0.94953 0.05572 0.10376 0.0
H23 H 0.85078 0.97326 0.11075 0.0
H24 H 0.85805 0.05422 0.10799 0.0
O25 O 0.12272 0.04593 0.17513 0.0
O26 O 0.16642 0.08591 0.24627 0.0
H27 H 0.05345 0.1812 0.28244 0.0
H28 H 0.95259 0.16743 0.27547 0.0
C29 C 0.98385 0.14041 0.2781 0.0
H30 H 0.9679 0.10934 0.30759 0.0
H31 H 0.17108 0.17232 0.32853 0.0
O32 O 0.9629 0.94524 0.10767 0.0
C33 C 0.18145 0.08562 0.20656 0.0
Co34 Co 0.08223 1.00854 0.85843 0.0
Co35 Co 0.03573 0.01639 0.75722 0.0
C36 C 0.11379 0.94072 0.79009 0.0
O37 O 0.11723 0.95902 0.8295 0.0
O38 O 0.08389 0.95797 0.7577 0.0
C39 C 0.1128 0.9587 0.93544 0.0
O40 O 0.13929 0.93196 0.91056 0.0
C41 C 0.05583 0.03582 0.66035 0.0
C42 C 0.96009 0.05329 0.63694 0.0
C43 C 1.01905 0.04652 0.62252 0.0
N44 N 1.0198 0.03585 0.69549 0.0
N45 N 0.96274 0.04659 0.68089 0.0
C46 C 0.1223 0.02362 0.66277 0.0
H47 H 0.09168 0.96561 0.66321 0.0
H48 H 0.16703 0.05066 0.69384 0.0
H49 H 0.15701 0.04318 0.6338 0.0
C50 C 0.16449 0.16057 0.86301 0.0
N51 N 0.12778 0.09866 0.83865 0.0
N52 N 0.10734 0.10459 0.79711 0.0
C53 C 0.13039 0.17194 0.79433 0.0
C54 C 0.16655 0.20907 0.83621 0.0
C55 C 0.18664 0.16957 0.91223 0.0
H56 H 0.12754 0.13857 0.92741 0.0
H57 H 0.22295 0.14802 0.92188 0.0
H58 H 0.22432 0.22637 0.92508 0.0
O59 O 0.9595 0.95395 0.8497 0.0
O60 O 0.91981 0.95663 0.7791 0.0
H61 H 0.04004 0.1707 0.74816 0.0
H62 H 0.14287 0.25599 0.75738 0.0
C63 C 0.10922 0.19737 0.75383 0.0
H64 H 0.12612 0.18243 0.7247 0.0
H65 H 0.92434 0.04814 0.70086 0.0
O66 O 0.10699 1.00745 0.92214 0.0
C67 C 0.90238 0.93757 0.81799 0.0
Co68 Co 0.66986 0.34188 0.50234 0.0
Co69 Co 0.71088 0.3824 0.6045 0.0
C70 C 0.63881 0.235 0.56572 0.0
O71 O 0.64216 0.25713 0.52797 0.0
O72 O 0.66083 0.27563 0.60062 0.0
C73 C 0.55036 0.24682 0.43303 0.0
O74 O 0.50298 0.21596 0.46433 0.0
C75 C 0.70167 0.3781 0.7026 0.0
C76 C 0.7929 0.49197 0.72581 0.0
C77 C 0.73989 0.42515 0.74059 0.0
N78 N 0.73125 0.41551 0.66695 0.0
N79 N 0.78565 0.48363 0.6814 0.0
C80 C 0.63993 0.29877 0.70039 0.0
H81 H 0.67316 0.27473 0.69502 0.0
H82 H 0.58936 0.27981 0.67192 0.0
H83 H 0.61177 0.28117 0.73147 0.0
C84 C 0.58491 0.40792 0.50334 0.0
N85 N 0.62218 0.38164 0.52569 0.0
N86 N 0.63895 0.40197 0.56817 0.0
C87 C 0.61171 0.44272 0.57385 0.0
C88 C 0.57716 0.44782 0.53268 0.0
C89 C 0.56803 0.40298 0.45389 0.0
H90 H 0.62507 0.41776 0.43978 0.0
H91 H 0.51543 0.34722 0.44162 0.0
H92 H 0.55033 0.43807 0.44207 0.0
O93 O 0.79186 0.41124 0.50812 0.0
O94 O 0.82548 0.43852 0.58112 0.0
H95 H 0.69473 0.52917 0.62292 0.0
H96 H 0.58717 0.50145 0.61548 0.0
C97 C 0.62727 0.48247 0.61658 0.0
H98 H 0.61444 0.4477 0.64404 0.0
H99 H 0.8191 0.52458 0.66096 0.0
O100 O 0.62308 0.30588 0.44138 0.0
C101 C 0.84637 0.44506 0.54221 0.0
Co102 Co 0.72426 0.33696 0.19254 0.0
Co103 Co 0.71331 0.3627 0.09205 0.0
C104 C 0.78666 0.28599 0.13166 0.0
O105 O 0.77503 0.29628 0.1697 0.0
O106 O 0.76553 0.30695 0.09746 0.0
C107 C 0.67571 0.25286 0.25729 0.0
O108 O 0.66013 0.21075 0.22311 0.0
C109 C 0.73868 0.38152 0.99549 0.0
C110 C 0.66931 0.42651 0.97508 0.0
C111 C 0.71261 0.40336 0.95895 0.0
N112 N 0.7117 0.3913 0.03162 0.0
N113 N 0.67034 0.4183 0.01879 0.0
C114 C 0.78457 0.34858 0.99561 0.0
H115 H 0.74101 0.29152 1.00171 0.0
H116 H 0.83817 0.37505 0.02303 0.0
H117 H 0.80826 0.35288 0.96366 0.0
C118 C 0.81372 0.49066 0.20567 0.0
N119 N 0.77748 0.43117 0.17881 0.0
N120 N 0.77401 0.44506 0.13705 0.0
C121 C 0.80906 0.51566 0.13664 0.0
C122 C 0.83441 0.54634 0.18017 0.0
C123 C 0.8224 0.49226 0.25501 0.0
H124 H 0.75873 0.46385 0.26535 0.0
H125 H 0.84934 0.46358 0.26654 0.0
H126 H 0.86312 0.54769 0.27069 0.0
O127 O 0.6048 0.28353 0.17217 0.0
O128 O 0.58841 0.29832 0.10135 0.0
H129 H 0.75221 0.54255 0.08532 0.0
H130 H 0.86335 0.61085 0.10198 0.0
C131 C 0.81409 0.55244 0.09577 0.0
H132 H 0.82812 0.53087 0.06872 0.0
H133 H 0.64037 0.4292 0.0397 0.0
O134 O 0.71895 0.31987 0.25458 0.0
C135 C 0.55769 0.27224 0.13684 0.0
Co136 Co 0.35839 0.64704 0.83514 0.0
Co137 Co 0.37381 0.68749 0.93553 0.0
C138 C 0.29939 0.53612 0.89758 0.0
O139 O 0.30884 0.55638 0.85906 0.0
O140 O 0.32198 0.57954 0.93126 0.0
C141 C 0.40398 0.60975 0.7696 0.0
O142 O 0.42048 0.58336 0.80354 0.0
C143 C 0.34812 0.68261 0.03201 0.0
C144 C 0.42126 0.79742 0.05226 0.0
C145 C 0.37542 0.73103 0.06844 0.0
N146 N 0.37689 0.71903 0.99591 0.0
N147 N 0.42047 0.78767 1.00865 0.0
C148 C 0.29905 0.60347 0.03194 0.0
H149 H 0.34117 0.58794 0.02703 0.0
H150 H 0.24673 0.57755 1.00386 0.0
H151 H 0.27324 0.58464 0.06351 0.0
C152 C 0.27053 0.71261 0.82205 0.0
N153 N 0.30633 0.68903 0.84897 0.0
N154 N 0.31197 0.70819 0.89064 0.0
C155 C 0.27889 0.74532 0.89095 0.0
C156 C 0.25253 0.74977 0.84741 0.0
C157 C 0.26054 0.70435 0.77269 0.0
H158 H 0.32387 0.73869 0.76186 0.0
H159 H 0.23247 0.64831 0.76159 0.0
H160 H 0.22021 0.71947 0.75706 0.0
O161 O 0.47844 0.71326 0.85426 0.0
O162 O 0.49799 0.74738 0.92485 0.0
H163 H 0.3407 0.83083 0.94141 0.0
H164 H 0.23013 0.79129 0.92559 0.0
C165 C 0.27737 0.77981 0.93165 0.0
H166 H 0.26255 0.74482 0.95912 0.0
H167 H 0.4519 0.82829 0.98773 0.0
O168 O 0.36104 0.63363 0.77293 0.0
C169 C 0.527 0.75037 0.88899 0.0
Co170 Co 0.4106 0.71234 0.52486 0.0
Co171 Co 0.37098 0.71249 0.42258 0.0
C172 C 0.44261 0.63699 0.46171 0.0
O173 O 0.43867 0.65546 0.49938 0.0
O174 O 0.42104 0.65581 0.42674 0.0
C175 C 0.52894 0.73584 0.59445 0.0
O176 O 0.57685 0.75317 0.56332 0.0
C177 C 0.38149 0.71754 0.32459 0.0
C178 C 0.29081 0.74053 0.30081 0.0
C179 C 0.34385 0.72649 0.28639 0.0
N180 N 0.35156 0.72551 0.36002 0.0
N181 N 0.2975 0.73945 0.34523 0.0
C182 C 0.44298 0.69967 0.32719 0.0
H183 H 0.40946 0.64239 0.33268 0.0
H184 H 0.49336 0.73128 0.35572 0.0
H185 H 0.47142 0.71002 0.29622 0.0
C186 C 0.49593 0.86341 0.52409 0.0
N187 N 0.45873 0.79995 0.50165 0.0
N188 N 0.44253 0.80381 0.45914 0.0
C189 C 0.47004 0.87189 0.45354 0.0
C190 C 0.50421 0.91131 0.49478 0.0
C191 C 0.5123 0.87504 0.57354 0.0
H192 H 0.455 0.83276 0.58748 0.0
H193 H 0.56466 0.87164 0.58596 0.0
H194 H 0.53009 0.92784 0.58541 0.0
O195 O 0.28859 0.6597 0.51855 0.0
O196 O 0.25591 0.65379 0.44549 0.0
H197 H 0.38771 0.87574 0.4042 0.0
H198 H 0.49534 0.9555 0.41201 0.0
C199 C 0.45513 0.89641 0.41079 0.0
H200 H 0.46825 0.87459 0.38341 0.0
H201 H 0.26385 0.74706 0.36544 0.0
O202 O 0.45639 0.72246 0.58599 0.0
C203 C 0.23449 0.63919 0.48429 0.0
C204 C 0.32963 0.16431 0.17742 0.0
C205 C 0.26598 0.13151 0.1949 0.0
C206 C 0.40192 0.20037 0.15488 0.0
C207 C 0.46874 0.23286 0.14032 0.0
C208 C 0.877 0.17529 0.1637 0.0
C209 C 0.89761 0.14027 0.1817 0.0
C210 C 0.84959 0.21396 0.14213 0.0
C211 C 0.82186 0.24673 0.12973 0.0
C212 C 0.89379 0.67602 0.21379 0.0
C213 C 0.86679 0.61791 0.19675 0.0
C214 C 0.92429 0.7446 0.23261 0.0
C215 C 0.95006 0.80553 0.24206 0.0
C216 C 0.21054 0.33434 0.86916 0.0
C217 C 0.1894 0.27822 0.85167 0.0
C218 C 0.23808 0.40122 0.88952 0.0
C219 C 0.26548 0.46208 0.90071 0.0
C220 C 0.68173 0.83293 0.86918 0.0
C221 C 0.61554 0.79936 0.88439 0.0
C222 C 0.75354 0.86848 0.84625 0.0
C223 C 0.81732 0.89935 0.82885 0.0
C224 C 0.16698 0.86096 0.79422 0.0
C225 C 0.14097 0.89595 0.78473 0.0
C226 C 0.19654 0.82233 0.81329 0.0
C227 C 0.22211 0.7903 0.83058 0.0
C228 C 1.00171 0.52685 0.52208 0.0
C229 C 0.93363 0.49155 0.53514 0.0
C230 C 0.07888 0.56546 0.50401 0.0
C231 C 0.14706 0.59832 0.49106 0.0
C232 C 0.52688 0.52451 0.50053 0.0
C233 C 0.55091 0.49254 0.51954 0.0
C234 C 0.49824 0.56042 0.47635 0.0
C235 C 0.47242 0.59353 0.46162 0.0
C236 C 0.55479 0.03832 0.52704 0.0
C237 C 0.53069 0.98234 0.50799 0.0
C238 C 0.58345 0.10286 0.55123 0.0
C239 C 0.60924 0.1618 0.56593 0.0
C240 C 0.04264 0.05048 0.53755 0.0
C241 C 0.03437 0.04824 0.57664 0.0
C242 C 0.05067 0.05485 0.4913 0.0
C243 C 0.05901 0.06148 0.45223 0.0
C244 C 0.72559 0.40045 0.87296 0.0
C245 C 0.72212 0.40021 0.91253 0.0
C246 C 0.72768 0.40382 0.82625 0.0
C247 C 0.73075 0.41039 0.78681 0.0
C248 C 0.3572 0.71715 0.20091 0.0
C249 C 0.35353 0.72077 0.24027 0.0
C250 C 0.3602 0.71569 0.15429 0.0
C251 C 0.36459 0.71871 0.11479 0.0
C252 C 0.95291 0.86046 0.02301 0.0
C253 C 0.92055 0.85758 0.0545 0.0
C254 C 1.00909 0.88432 0.99198 0.0
C255 C 0.05804 0.91468 0.96604 0.0
C256 C 0.58005 0.20255 0.3198 0.0
C257 C 0.62222 0.22251 0.29047 0.0
C258 C 0.54082 0.19527 0.35662 0.0
C259 C 0.53077 0.2084 0.39202 0.0
C260 C 0.53706 0.69023 0.66988 0.0
C261 C 0.54726 0.71495 0.63494 0.0
C262 C 0.49845 0.65667 0.70657 0.0
C263 C 0.45705 0.63354 0.73617 0.0
loop_
_geom_bond_atom_site_label_1
_geom_bond_atom_site_label_2
_geom_bond_distance
_geom_bond_site_symmetry_2
_ccdc_geom_bond_type
Co0 O3 1.970 1_455 S
Co0 N17 1.989 1_465 S
Co0 O25 1.967 1_565 S
Co0 O32 1.920 1_565 S
Co1 O4 1.966 1_445 S
Co1 N10 2.022 . S
Co1 N18 1.993 1_455 S
Co1 O26 1.941 . S
C2 O3 1.258 . S
C2 O4 1.263 . S
O3 Co0 1.970 1_655 S
O3 C2 1.258 . S
O4 Co1 1.966 1_665 S
O4 C2 1.263 . S
C5 O6 1.235 . S
C5 O32 1.289 1_665 S
O6 C5 1.235 . S
C7 C9 1.400 1_565 S
C7 N10 1.351 1_665 S
C7 C12 1.501 . S
C8 C9 1.387 1_455 S
C8 N11 1.341 . S
C9 C7 1.400 1_545 S
C9 C8 1.387 1_655 S
N10 Co1 2.022 . S
N10 C7 1.351 1_445 S
N10 N11 1.365 . S
N11 C8 1.341 . S
N11 N10 1.365 . S
N11 H31 0.862 . S
C12 C7 1.501 . S
C12 H13 0.961 . S
C12 H14 0.961 . S
C12 H15 0.960 . S
H13 C12 0.961 . S
H14 C12 0.961 . S
H15 C12 0.960 . S
C16 N17 1.342 . S
C16 C20 1.401 . S
C16 C21 1.499 . S
N17 Co0 1.989 1_645 S
N17 C16 1.342 . S
N17 N18 1.388 . S
N18 Co1 1.993 1_655 S
N18 N17 1.388 . S
N18 C19 1.346 . S
C19 N18 1.346 . S
C19 C20 1.396 . S
C19 C29 1.510 . S
C20 C16 1.401 . S
C20 C19 1.396 . S
C21 C16 1.499 . S
C21 H22 0.959 . S
C21 H23 0.960 . S
C21 H24 0.961 . S
H22 C21 0.959 . S
H23 C21 0.960 . S
H24 C21 0.961 . S
O25 Co0 1.967 1_545 S
O25 C33 1.258 . S
O26 Co1 1.941 . S
O26 C33 1.266 . S
H27 C29 0.959 . S
H28 C29 0.961 . S
C29 C19 1.510 . S
C29 H27 0.959 . S
C29 H28 0.961 . S
C29 H30 0.960 . S
H30 C29 0.960 . S
H31 N11 0.862 . S
O32 Co0 1.920 1_545 S
O32 C5 1.289 1_445 S
C33 O25 1.258 . S
C33 O26 1.266 . S
Co34 O37 1.970 1_545 S
Co34 N51 1.989 . S
Co34 O59 1.967 1_445 S
Co34 O66 1.920 . S
Co35 O38 1.966 1_655 S
Co35 N44 2.022 . S
Co35 N52 1.993 1_665 S
Co35 O60 1.941 . S
C36 O37 1.258 . S
C36 O38 1.263 . S
O37 Co34 1.970 1_565 S
O37 C36 1.258 . S
O38 Co35 1.966 1_455 S
O38 C36 1.263 . S
C39 O40 1.235 . S
C39 O66 1.289 . S
O40 C39 1.235 . S
C41 C43 1.400 1_565 S
C41 N44 1.351 1_455 S
C41 C46 1.501 . S
C42 C43 1.387 1_655 S
C42 N45 1.341 . S
C43 C41 1.400 1_545 S
C43 C42 1.387 1_455 S
N44 Co35 2.022 . S
N44 C41 1.351 1_655 S
N44 N45 1.365 1_565 S
N45 C42 1.341 . S
N45 N44 1.365 1_545 S
N45 H65 0.862 . S
C46 C41 1.501 . S
C46 H47 0.961 . S
C46 H48 0.961 1_565 S
C46 H49 0.960 . S
H47 C46 0.961 . S
H48 C46 0.961 1_545 S
H49 C46 0.960 . S
C50 N51 1.342 . S
C50 C54 1.401 . S
C50 C55 1.499 . S
N51 Co34 1.989 . S
N51 C50 1.342 . S
N51 N52 1.388 . S
N52 Co35 1.993 1_445 S
N52 N51 1.388 . S
N52 C53 1.346 . S
C53 N52 1.346 . S
C53 C54 1.396 . S
C53 C63 1.510 . S
C54 C50 1.401 . S
C54 C53 1.396 . S
C55 C50 1.499 . S
C55 H56 0.959 . S
C55 H57 0.960 . S
C55 H58 0.961 . S
H56 C55 0.959 . S
H57 C55 0.960 . S
H58 C55 0.961 . S
O59 Co34 1.967 1_665 S
O59 C67 1.258 . S
O60 Co35 1.941 . S
O60 C67 1.266 . S
H61 C63 0.959 . S
H62 C63 0.961 . S
C63 C53 1.510 . S
C63 H61 0.959 . S
C63 H62 0.961 . S
C63 H64 0.960 . S
H64 C63 0.960 . S
H65 N45 0.862 . S
O66 Co34 1.920 . S
O66 C39 1.289 . S
C67 O59 1.258 . S
C67 O60 1.266 . S
Co68 O71 1.970 . S
Co68 N85 1.989 . S
Co68 O93 1.967 . S
Co68 O100 1.920 . S
Co69 O72 1.966 . S
Co69 N78 2.022 . S
Co69 N86 1.993 . S
Co69 O94 1.941 . S
C70 O71 1.258 . S
C70 O72 1.263 . S
O71 Co68 1.970 . S
O71 C70 1.258 . S
O72 Co69 1.966 . S
O72 C70 1.263 . S
C73 O74 1.235 . S
C73 O100 1.289 . S
O74 C73 1.235 . S
C75 C77 1.400 . S
C75 N78 1.351 . S
C75 C80 1.501 . S
C76 C77 1.387 . S
C76 N79 1.341 . S
C77 C75 1.400 . S
C77 C76 1.387 . S
N78 Co69 2.022 . S
N78 C75 1.351 . S
N78 N79 1.365 . S
N79 C76 1.341 . S
N79 N78 1.365 . S
N79 H99 0.862 . S
C80 C75 1.501 . S
C80 H81 0.961 . S
C80 H82 0.961 . S
C80 H83 0.960 . S
H81 C80 0.961 . S
H82 C80 0.961 . S
H83 C80 0.960 . S
C84 N85 1.342 . S
C84 C88 1.401 . S
C84 C89 1.499 . S
N85 Co68 1.989 . S
N85 C84 1.342 . S
N85 N86 1.388 . S
N86 Co69 1.993 . S
N86 N85 1.388 . S
N86 C87 1.346 . S
C87 N86 1.346 . S
C87 C88 1.396 . S
C87 C97 1.510 . S
C88 C84 1.401 . S
C88 C87 1.396 . S
C89 C84 1.499 . S
C89 H90 0.959 . S
C89 H91 0.960 . S
C89 H92 0.961 . S
H90 C89 0.959 . S
H91 C89 0.960 . S
H92 C89 0.961 . S
O93 Co68 1.967 . S
O93 C101 1.258 . S
O94 Co69 1.941 . S
O94 C101 1.266 . S
H95 C97 0.959 . S
H96 C97 0.961 . S
C97 C87 1.510 . S
C97 H95 0.959 . S
C97 H96 0.961 . S
C97 H98 0.960 . S
H98 C97 0.960 . S
H99 N79 0.862 . S
O100 Co68 1.920 . S
O100 C73 1.289 . S
C101 O93 1.258 . S
C101 O94 1.266 . S
Co102 O105 1.970 . S
Co102 N119 1.989 . S
Co102 O127 1.967 . S
Co102 O134 1.920 . S
Co103 O106 1.966 . S
Co103 N112 2.022 . S
Co103 N120 1.993 . S
Co103 O128 1.941 . S
C104 O105 1.258 . S
C104 O106 1.263 . S
O105 Co102 1.970 . S
O105 C104 1.258 . S
O106 Co103 1.966 . S
O106 C104 1.263 . S
C107 O108 1.235 . S
C107 O134 1.289 . S
O108 C107 1.235 . S
C109 C111 1.400 . S
C109 N112 1.351 1_556 S
C109 C114 1.501 1_556 S
C110 C111 1.387 . S
C110 N113 1.341 . S
C111 C109 1.400 . S
C111 C110 1.387 . S
N112 Co103 2.022 . S
N112 C109 1.351 1_554 S
N112 N113 1.365 1_554 S
N113 C110 1.341 . S
N113 N112 1.365 1_556 S
N113 H133 0.862 . S
C114 C109 1.501 1_554 S
C114 H115 0.961 . S
C114 H116 0.961 . S
C114 H117 0.960 1_554 S
H115 C114 0.961 . S
H116 C114 0.961 . S
H117 C114 0.960 1_556 S
C118 N119 1.342 . S
C118 C122 1.401 . S
C118 C123 1.499 . S
N119 Co102 1.989 . S
N119 C118 1.342 . S
N119 N120 1.388 . S
N120 Co103 1.993 . S
N120 N119 1.388 . S
N120 C121 1.346 . S
C121 N120 1.346 . S
C121 C122 1.396 . S
C121 C131 1.510 . S
C122 C118 1.401 . S
C122 C121 1.396 . S
C123 C118 1.499 . S
C123 H124 0.959 . S
C123 H125 0.960 . S
C123 H126 0.961 . S
H124 C123 0.959 . S
H125 C123 0.960 . S
H126 C123 0.961 . S
O127 Co102 1.967 . S
O127 C135 1.258 . S
O128 Co103 1.941 . S
O128 C135 1.266 . S
H129 C131 0.959 . S
H130 C131 0.961 . S
C131 C121 1.510 . S
C131 H129 0.959 . S
C131 H130 0.961 . S
C131 H132 0.960 . S
H132 C131 0.960 . S
H133 N113 0.862 . S
O134 Co102 1.920 . S
O134 C107 1.289 . S
C135 O127 1.258 . S
C135 O128 1.266 . S
Co136 O139 1.970 . S
Co136 N153 1.989 . S
Co136 O161 1.967 . S
Co136 O168 1.920 . S
Co137 O140 1.966 . S
Co137 N146 2.022 . S
Co137 N154 1.993 . S
Co137 O162 1.941 . S
C138 O139 1.258 . S
C138 O140 1.263 . S
O139 Co136 1.970 . S
O139 C138 1.258 . S
O140 Co137 1.966 . S
O140 C138 1.263 . S
C141 O142 1.235 . S
C141 O168 1.289 . S
O142 C141 1.235 . S
C143 C145 1.400 . S
C143 N146 1.351 1_554 S
C143 C148 1.501 1_554 S
C144 C145 1.387 . S
C144 N147 1.341 . S
C145 C143 1.400 . S
C145 C144 1.387 . S
N146 Co137 2.022 . S
N146 C143 1.351 1_556 S
N146 N147 1.365 1_556 S
N147 C144 1.341 . S
N147 N146 1.365 1_554 S
N147 H167 0.862 . S
C148 C143 1.501 1_556 S
C148 H149 0.961 . S
C148 H150 0.961 . S
C148 H151 0.960 1_556 S
H149 C148 0.961 . S
H150 C148 0.961 . S
H151 C148 0.960 1_554 S
C152 N153 1.342 . S
C152 C156 1.401 . S
C152 C157 1.499 . S
N153 Co136 1.989 . S
N153 C152 1.342 . S
N153 N154 1.388 . S
N154 Co137 1.993 . S
N154 N153 1.388 . S
N154 C155 1.346 . S
C155 N154 1.346 . S
C155 C156 1.396 . S
C155 C165 1.510 . S
C156 C152 1.401 . S
C156 C155 1.396 . S
C157 C152 1.499 . S
C157 H158 0.959 . S
C157 H159 0.960 . S
C157 H160 0.961 . S
H158 C157 0.959 . S
H159 C157 0.960 . S
H160 C157 0.961 . S
O161 Co136 1.967 . S
O161 C169 1.258 . S
O162 Co137 1.941 . S
O162 C169 1.266 . S
H163 C165 0.959 . S
H164 C165 0.961 . S
C165 C155 1.510 . S
C165 H163 0.959 . S
C165 H164 0.961 . S
C165 H166 0.960 . S
H166 C165 0.960 . S
H167 N147 0.862 . S
O168 Co136 1.920 . S
O168 C141 1.289 . S
C169 O161 1.258 . S
C169 O162 1.266 . S
Co170 O173 1.970 . S
Co170 N187 1.989 . S
Co170 O195 1.967 . S
Co170 O202 1.920 . S
Co171 O174 1.966 . S
Co171 N180 2.022 . S
Co171 N188 1.993 . S
Co171 O196 1.941 . S
C172 O173 1.258 . S
C172 O174 1.263 . S
O173 Co170 1.970 . S
O173 C172 1.258 . S
O174 Co171 1.966 . S
O174 C172 1.263 . S
C175 O176 1.235 . S
C175 O202 1.289 . S
O176 C175 1.235 . S
C177 C179 1.400 . S
C177 N180 1.351 . S
C177 C182 1.501 . S
C178 C179 1.387 . S
C178 N181 1.341 . S
C179 C177 1.400 . S
C179 C178 1.387 . S
N180 Co171 2.022 . S
N180 C177 1.351 . S
N180 N181 1.365 . S
N181 C178 1.341 . S
N181 N180 1.365 . S
N181 H201 0.862 . S
C182 C177 1.501 . S
C182 H183 0.961 . S
C182 H184 0.961 . S
C182 H185 0.960 . S
H183 C182 0.961 . S
H184 C182 0.961 . S
H185 C182 0.960 . S
C186 N187 1.342 . S
C186 C190 1.401 . S
C186 C191 1.499 . S
N187 Co170 1.989 . S
N187 C186 1.342 . S
N187 N188 1.388 . S
N188 Co171 1.993 . S
N188 N187 1.388 . S
N188 C189 1.346 . S
C189 N188 1.346 . S
C189 C190 1.396 . S
C189 C199 1.510 . S
C190 C186 1.401 . S
C190 C189 1.396 . S
C191 C186 1.499 . S
C191 H192 0.959 . S
C191 H193 0.960 . S
C191 H194 0.961 . S
H192 C191 0.959 . S
H193 C191 0.960 . S
H194 C191 0.961 . S
O195 Co170 1.967 . S
O195 C203 1.258 . S
O196 Co171 1.941 . S
O196 C203 1.266 . S
H197 C199 0.959 . S
H198 C199 0.961 . S
C199 C189 1.510 . S
C199 H197 0.959 . S
C199 H198 0.961 . S
C199 H200 0.960 . S
H200 C199 0.960 . S
H201 N181 0.862 . S
O202 Co170 1.920 . S
O202 C175 1.289 . S
C203 O195 1.258 . S
C203 O196 1.266 . S
C204 C205 1.170 . S
C204 C206 1.380 . S
C205 C204 1.170 . S
C206 C204 1.380 . S
C206 C207 1.170 . S
C207 C206 1.170 . S
C208 C209 1.170 . S
C208 C210 1.380 . S
C209 C208 1.170 . S
C210 C208 1.380 . S
C210 C211 1.170 . S
C211 C210 1.170 . S
C212 C213 1.170 . S
C212 C214 1.380 . S
C213 C212 1.170 . S
C214 C212 1.380 . S
C214 C215 1.170 . S
C215 C214 1.170 . S
C216 C217 1.170 . S
C216 C218 1.380 . S
C217 C216 1.170 . S
C218 C216 1.380 . S
C218 C219 1.170 . S
C219 C218 1.170 . S
C220 C221 1.170 . S
C220 C222 1.380 . S
C221 C220 1.170 . S
C222 C220 1.380 . S
C222 C223 1.170 . S
C223 C222 1.170 . S
C224 C225 1.170 . S
C224 C226 1.380 . S
C225 C224 1.170 . S
C226 C224 1.380 . S
C226 C227 1.170 . S
C227 C226 1.170 . S
C228 C229 1.170 . S
C228 C230 1.380 1_655 S
C229 C228 1.170 . S
C230 C228 1.380 1_455 S
C230 C231 1.170 . S
C231 C230 1.170 . S
C232 C233 1.170 . S
C232 C234 1.380 . S
C233 C232 1.170 . S
C234 C232 1.380 . S
C234 C235 1.170 . S
C235 C234 1.170 . S
C236 C237 1.170 1_545 S
C236 C238 1.380 . S
C237 C236 1.170 1_565 S
C238 C236 1.380 . S
C238 C239 1.170 . S
C239 C238 1.170 . S
C240 C241 1.170 . S
C240 C242 1.380 . S
C241 C240 1.170 . S
C242 C240 1.380 . S
C242 C243 1.170 1_445 S
C243 C242 1.170 1_665 S
C244 C245 1.170 . S
C244 C246 1.380 . S
C245 C244 1.170 . S
C246 C244 1.380 . S
C246 C247 1.170 . S
C247 C246 1.170 . S
C248 C249 1.170 . S
C248 C250 1.380 . S
C249 C248 1.170 . S
C250 C248 1.380 . S
C250 C251 1.170 . S
C251 C250 1.170 . S
C252 C253 1.169 1_545 S
C252 C254 1.380 1_654 S
C253 C252 1.169 1_565 S
C254 C252 1.380 1_456 S
C254 C255 1.170 . S
C255 C254 1.170 . S
C256 C257 1.170 . S
C256 C258 1.380 . S
C257 C256 1.170 . S
C258 C256 1.380 . S
C258 C259 1.170 . S
C259 C258 1.170 . S
C260 C261 1.170 . S
C260 C262 1.380 . S
C261 C260 1.170 . S
C262 C260 1.380 . S
C262 C263 1.170 . S
C263 C262 1.170 . S
C205 C33 1.374 . S
C207 C135 1.386 . S
C209 C20 1.799 . S
C211 C104 1.771 . S
C213 C122 1.775 . S
C215 C2 1.782 . S
C217 C54 1.792 . S
C219 C138 1.784 . S
C221 C169 1.365 . S
C223 C67 1.398 . S
C225 C36 1.768 . S
C227 C156 1.793 . S
C229 C101 1.392 . S
C231 C203 1.374 . S
C233 C88 1.798 . S
C235 C172 1.774 . S
C237 C190 1.773 . S
C239 C70 1.785 . S
C241 C43 1.822 . S
C243 C9 1.841 1_565 S
C245 C111 1.826 . S
C247 C77 1.837 . S
C249 C179 1.825 . S
C251 C145 1.834 . S
C253 C5 0.765 . S
C255 C39 0.772 . S
C257 C107 0.738 . S
C259 C73 0.814 . S
C261 C175 0.811 . S
C263 C141 0.748 . S
