# Generated by pormake.
# Topology son, (6)-cn, num edge types: 1
# Building blocks:
#     Node 0, Type 0, BuildingBlock: BETFEN_clean_sbu_0, # of connection points: 6
#     Node 1, Type 0, BuildingBlock: BETFEN_clean_sbu_0, # of connection points: 6
#     Node 2, Type 0, BuildingBlock: BETFEN_clean_sbu_0, # of connection points: 6
#     Node 3, Type 0, BuildingBlock: BETFEN_clean_sbu_0, # of connection points: 6
#     Node 4, Type 0, BuildingBlock: BETFEN_clean_sbu_0, # of connection points: 6
#     Node 5, Type 0, BuildingBlock: BETFEN_clean_sbu_0, # of connection points: 6
#     Node 6, Type 0, BuildingBlock: BETFEN_clean_sbu_0, # of connection points: 6
#     Node 7, Type 0, BuildingBlock: BETFEN_clean_sbu_0, # of connection points: 6
#     Node 8, Type 0, BuildingBlock: BETFEN_clean_sbu_0, # of connection points: 6
#     Node 9, Type 0, BuildingBlock: BETFEN_clean_sbu_0, # of connection points: 6
#     Node 10, Type 0, BuildingBlock: BETFEN_clean_sbu_0, # of connection points: 6
#     Node 11, Type 0, BuildingBlock: BETFEN_clean_sbu_0, # of connection points: 6
#     Node 12, Type 0, BuildingBlock: BETFEN_clean_sbu_0, # of connection points: 6
#     Node 13, Type 0, BuildingBlock: BETFEN_clean_sbu_0, # of connection points: 6
#     Node 14, Type 0, BuildingBlock: BETFEN_clean_sbu_0, # of connection points: 6
#     Node 15, Type 0, BuildingBlock: BETFEN_clean_sbu_0, # of connection points: 6
#     Node 16, Type 0, BuildingBlock: BETFEN_clean_sbu_0, # of connection points: 6
#     Node 17, Type 0, BuildingBlock: BETFEN_clean_sbu_0, # of connection points: 6
#     Node 18, Type 0, BuildingBlock: BETFEN_clean_sbu_0, # of connection points: 6
#     Node 19, Type 0, BuildingBlock: BETFEN_clean_sbu_0, # of connection points: 6
#     Node 20, Type 0, BuildingBlock: BETFEN_clean_sbu_0, # of connection points: 6
#     Node 21, Type 0, BuildingBlock: BETFEN_clean_sbu_0, # of connection points: 6
#     Node 22, Type 0, BuildingBlock: BETFEN_clean_sbu_0, # of connection points: 6
#     Node 23, Type 0, BuildingBlock: BETFEN_clean_sbu_0, # of connection points: 6
#     Node 24, Type 0, BuildingBlock: BETFEN_clean_sbu_0, # of connection points: 6
#     Node 25, Type 0, BuildingBlock: BETFEN_clean_sbu_0, # of connection points: 6
#     Node 26, Type 0, BuildingBlock: BETFEN_clean_sbu_0, # of connection points: 6
#     Node 27, Type 0, BuildingBlock: BETFEN_clean_sbu_0, # of connection points: 6
#     Node 28, Type 0, BuildingBlock: BETFEN_clean_sbu_0, # of connection points: 6
#     Node 29, Type 0, BuildingBlock: BETFEN_clean_sbu_0, # of connection points: 6
#     Node 30, Type 0, BuildingBlock: BETFEN_clean_sbu_0, # of connection points: 6
#     Node 31, Type 0, BuildingBlock: BETFEN_clean_sbu_0, # of connection points: 6
#     Edge 32, Type (0, 0), BuildingBlock: KIFKEQ_clean_linker_1, # of connection points: 2
#     Edge 33, Type (0, 0), BuildingBlock: KIFKEQ_clean_linker_1, # of connection points: 2
#     Edge 34, Type (0, 0), BuildingBlock: KIFKEQ_clean_linker_1, # of connection points: 2
#     Edge 35, Type (0, 0), BuildingBlock: KIFKEQ_clean_linker_1, # of connection points: 2
#     Edge 36, Type (0, 0), BuildingBlock: KIFKEQ_clean_linker_1, # of connection points: 2
#     Edge 37, Type (0, 0), BuildingBlock: KIFKEQ_clean_linker_1, # of connection points: 2
#     Edge 38, Type (0, 0), BuildingBlock: KIFKEQ_clean_linker_1, # of connection points: 2
#     Edge 39, Type (0, 0), BuildingBlock: KIFKEQ_clean_linker_1, # of connection points: 2
#     Edge 40, Type (0, 0), BuildingBlock: KIFKEQ_clean_linker_1, # of connection points: 2
#     Edge 41, Type (0, 0), BuildingBlock: KIFKEQ_clean_linker_1, # of connection points: 2
#     Edge 42, Type (0, 0), BuildingBlock: KIFKEQ_clean_linker_1, # of connection points: 2
#     Edge 43, Type (0, 0), BuildingBlock: KIFKEQ_clean_linker_1, # of connection points: 2
#     Edge 44, Type (0, 0), BuildingBlock: KIFKEQ_clean_linker_1, # of connection points: 2
#     Edge 45, Type (0, 0), BuildingBlock: KIFKEQ_clean_linker_1, # of connection points: 2
#     Edge 46, Type (0, 0), BuildingBlock: KIFKEQ_clean_linker_1, # of connection points: 2
#     Edge 47, Type (0, 0), BuildingBlock: KIFKEQ_clean_linker_1, # of connection points: 2
#     Edge 48, Type (0, 0), BuildingBlock: KIFKEQ_clean_linker_1, # of connection points: 2
#     Edge 49, Type (0, 0), BuildingBlock: KIFKEQ_clean_linker_1, # of connection points: 2
#     Edge 50, Type (0, 0), BuildingBlock: KIFKEQ_clean_linker_1, # of connection points: 2
#     Edge 51, Type (0, 0), BuildingBlock: KIFKEQ_clean_linker_1, # of connection points: 2
#     Edge 52, Type (0, 0), BuildingBlock: KIFKEQ_clean_linker_1, # of connection points: 2
#     Edge 53, Type (0, 0), BuildingBlock: KIFKEQ_clean_linker_1, # of connection points: 2
#     Edge 54, Type (0, 0), BuildingBlock: KIFKEQ_clean_linker_1, # of connection points: 2
#     Edge 55, Type (0, 0), BuildingBlock: KIFKEQ_clean_linker_1, # of connection points: 2
#     Edge 56, Type (0, 0), BuildingBlock: KIFKEQ_clean_linker_1, # of connection points: 2
#     Edge 57, Type (0, 0), BuildingBlock: KIFKEQ_clean_linker_1, # of connection points: 2
#     Edge 58, Type (0, 0), BuildingBlock: KIFKEQ_clean_linker_1, # of connection points: 2
#     Edge 59, Type (0, 0), BuildingBlock: KIFKEQ_clean_linker_1, # of connection points: 2
#     Edge 60, Type (0, 0), BuildingBlock: KIFKEQ_clean_linker_1, # of connection points: 2
#     Edge 61, Type (0, 0), BuildingBlock: KIFKEQ_clean_linker_1, # of connection points: 2
#     Edge 62, Type (0, 0), BuildingBlock: KIFKEQ_clean_linker_1, # of connection points: 2
#     Edge 63, Type (0, 0), BuildingBlock: KIFKEQ_clean_linker_1, # of connection points: 2
#     Edge 64, Type (0, 0), BuildingBlock: KIFKEQ_clean_linker_1, # of connection points: 2
#     Edge 65, Type (0, 0), BuildingBlock: KIFKEQ_clean_linker_1, # of connection points: 2
#     Edge 66, Type (0, 0), BuildingBlock: KIFKEQ_clean_linker_1, # of connection points: 2
#     Edge 67, Type (0, 0), BuildingBlock: KIFKEQ_clean_linker_1, # of connection points: 2
#     Edge 68, Type (0, 0), BuildingBlock: KIFKEQ_clean_linker_1, # of connection points: 2
#     Edge 69, Type (0, 0), BuildingBlock: KIFKEQ_clean_linker_1, # of connection points: 2
#     Edge 70, Type (0, 0), BuildingBlock: KIFKEQ_clean_linker_1, # of connection points: 2
#     Edge 71, Type (0, 0), BuildingBlock: KIFKEQ_clean_linker_1, # of connection points: 2
#     Edge 72, Type (0, 0), BuildingBlock: KIFKEQ_clean_linker_1, # of connection points: 2
#     Edge 73, Type (0, 0), BuildingBlock: KIFKEQ_clean_linker_1, # of connection points: 2
#     Edge 74, Type (0, 0), BuildingBlock: KIFKEQ_clean_linker_1, # of connection points: 2
#     Edge 75, Type (0, 0), BuildingBlock: KIFKEQ_clean_linker_1, # of connection points: 2
#     Edge 76, Type (0, 0), BuildingBlock: KIFKEQ_clean_linker_1, # of connection points: 2
#     Edge 77, Type (0, 0), BuildingBlock: KIFKEQ_clean_linker_1, # of connection points: 2
#     Edge 78, Type (0, 0), BuildingBlock: KIFKEQ_clean_linker_1, # of connection points: 2
#     Edge 79, Type (0, 0), BuildingBlock: KIFKEQ_clean_linker_1, # of connection points: 2
#     Edge 80, Type (0, 0), BuildingBlock: KIFKEQ_clean_linker_1, # of connection points: 2
#     Edge 81, Type (0, 0), BuildingBlock: KIFKEQ_clean_linker_1, # of connection points: 2
#     Edge 82, Type (0, 0), BuildingBlock: KIFKEQ_clean_linker_1, # of connection points: 2
#     Edge 83, Type (0, 0), BuildingBlock: KIFKEQ_clean_linker_1, # of connection points: 2
#     Edge 84, Type (0, 0), BuildingBlock: KIFKEQ_clean_linker_1, # of connection points: 2
#     Edge 85, Type (0, 0), BuildingBlock: KIFKEQ_clean_linker_1, # of connection points: 2
#     Edge 86, Type (0, 0), BuildingBlock: KIFKEQ_clean_linker_1, # of connection points: 2
#     Edge 87, Type (0, 0), BuildingBlock: KIFKEQ_clean_linker_1, # of connection points: 2
#     Edge 88, Type (0, 0), BuildingBlock: KIFKEQ_clean_linker_1, # of connection points: 2
#     Edge 89, Type (0, 0), BuildingBlock: KIFKEQ_clean_linker_1, # of connection points: 2
#     Edge 90, Type (0, 0), BuildingBlock: KIFKEQ_clean_linker_1, # of connection points: 2
#     Edge 91, Type (0, 0), BuildingBlock: KIFKEQ_clean_linker_1, # of connection points: 2
#     Edge 92, Type (0, 0), BuildingBlock: KIFKEQ_clean_linker_1, # of connection points: 2
#     Edge 93, Type (0, 0), BuildingBlock: KIFKEQ_clean_linker_1, # of connection points: 2
#     Edge 94, Type (0, 0), BuildingBlock: KIFKEQ_clean_linker_1, # of connection points: 2
#     Edge 95, Type (0, 0), BuildingBlock: KIFKEQ_clean_linker_1, # of connection points: 2
#     Edge 96, Type (0, 0), BuildingBlock: KIFKEQ_clean_linker_1, # of connection points: 2
#     Edge 97, Type (0, 0), BuildingBlock: KIFKEQ_clean_linker_1, # of connection points: 2
#     Edge 98, Type (0, 0), BuildingBlock: KIFKEQ_clean_linker_1, # of connection points: 2
#     Edge 99, Type (0, 0), BuildingBlock: KIFKEQ_clean_linker_1, # of connection points: 2
#     Edge 100, Type (0, 0), BuildingBlock: KIFKEQ_clean_linker_1, # of connection points: 2
#     Edge 101, Type (0, 0), BuildingBlock: KIFKEQ_clean_linker_1, # of connection points: 2
#     Edge 102, Type (0, 0), BuildingBlock: KIFKEQ_clean_linker_1, # of connection points: 2
#     Edge 103, Type (0, 0), BuildingBlock: KIFKEQ_clean_linker_1, # of connection points: 2
#     Edge 104, Type (0, 0), BuildingBlock: KIFKEQ_clean_linker_1, # of connection points: 2
#     Edge 105, Type (0, 0), BuildingBlock: KIFKEQ_clean_linker_1, # of connection points: 2
#     Edge 106, Type (0, 0), BuildingBlock: KIFKEQ_clean_linker_1, # of connection points: 2
#     Edge 107, Type (0, 0), BuildingBlock: KIFKEQ_clean_linker_1, # of connection points: 2
#     Edge 108, Type (0, 0), BuildingBlock: KIFKEQ_clean_linker_1, # of connection points: 2
#     Edge 109, Type (0, 0), BuildingBlock: KIFKEQ_clean_linker_1, # of connection points: 2
#     Edge 110, Type (0, 0), BuildingBlock: KIFKEQ_clean_linker_1, # of connection points: 2
#     Edge 111, Type (0, 0), BuildingBlock: KIFKEQ_clean_linker_1, # of connection points: 2
#     Edge 112, Type (0, 0), BuildingBlock: KIFKEQ_clean_linker_1, # of connection points: 2
#     Edge 113, Type (0, 0), BuildingBlock: KIFKEQ_clean_linker_1, # of connection points: 2
#     Edge 114, Type (0, 0), BuildingBlock: KIFKEQ_clean_linker_1, # of connection points: 2
#     Edge 115, Type (0, 0), BuildingBlock: KIFKEQ_clean_linker_1, # of connection points: 2
#     Edge 116, Type (0, 0), BuildingBlock: KIFKEQ_clean_linker_1, # of connection points: 2
#     Edge 117, Type (0, 0), BuildingBlock: KIFKEQ_clean_linker_1, # of connection points: 2
#     Edge 118, Type (0, 0), BuildingBlock: KIFKEQ_clean_linker_1, # of connection points: 2
#     Edge 119, Type (0, 0), BuildingBlock: KIFKEQ_clean_linker_1, # of connection points: 2
#     Edge 120, Type (0, 0), BuildingBlock: KIFKEQ_clean_linker_1, # of connection points: 2
#     Edge 121, Type (0, 0), BuildingBlock: KIFKEQ_clean_linker_1, # of connection points: 2
#     Edge 122, Type (0, 0), BuildingBlock: KIFKEQ_clean_linker_1, # of connection points: 2
#     Edge 123, Type (0, 0), BuildingBlock: KIFKEQ_clean_linker_1, # of connection points: 2
#     Edge 124, Type (0, 0), BuildingBlock: KIFKEQ_clean_linker_1, # of connection points: 2
#     Edge 125, Type (0, 0), BuildingBlock: KIFKEQ_clean_linker_1, # of connection points: 2
#     Edge 126, Type (0, 0), BuildingBlock: KIFKEQ_clean_linker_1, # of connection points: 2
#     Edge 127, Type (0, 0), BuildingBlock: KIFKEQ_clean_linker_1, # of connection points: 2
# Relax obj value: 0.151
# Max RMSD: 0.178
# Mean RMSD: 0.177
data_MOF--net-son--node1-BETFEN_clean_sbu_0--edge1-KIFKEQ_clean_linker_1
_symmetry_space_group_name_H-M    P1
_symmetry_Int_Tables_number       1
_symmetry_cell_setting            triclinic
loop_
_symmetry_equiv_pos_as_xyz
'x, y, z'
_cell_length_a     97.548111
_cell_length_b     53.261278
_cell_length_c     25.632879
_cell_angle_alpha  90.026645
_cell_angle_beta   89.983479
_cell_angle_gamma 89.980313
loop_
_atom_site_label
_atom_site_type_symbol
_atom_site_fract_x
_atom_site_fract_y
_atom_site_fract_z
_atom_type_partial_charge
Pr0 Pr 0.31215 0.27689 0.184 0.0
Pr1 Pr 0.29203 0.26815 0.28202 0.0
C2 C 0.32366 0.28085 0.0885 0.0
C3 C 0.31961 0.27824 0.03312 0.0
C4 C 0.32705 0.29109 0.99468 0.0
C5 C 0.32318 0.28964 0.94215 0.0
C6 C 0.31176 0.27526 0.92673 0.0
C7 C 0.30435 0.26225 0.96546 0.0
C8 C 0.30821 0.26381 0.01816 0.0
C9 C 0.30999 0.31633 0.25615 0.0
C10 C 0.27809 0.27638 0.16613 0.0
C11 C 0.28027 0.27795 0.37544 0.0
C12 C 0.28257 0.27333 0.43167 0.0
C13 C 0.27233 0.27968 0.46773 0.0
C14 C 0.27483 0.27803 0.52147 0.0
C15 C 0.28766 0.26999 0.54042 0.0
C16 C 0.29778 0.26293 0.50397 0.0
C17 C 0.29527 0.26464 0.45017 0.0
C18 C 0.29721 0.22156 0.2343 0.0
C19 C 0.32609 0.25633 0.28972 0.0
O20 O 0.32421 0.26031 0.11664 0.0
O21 O 0.31842 0.29995 0.1137 0.0
O22 O 0.30009 0.30315 0.23946 0.0
O23 O 0.32143 0.30972 0.23396 0.0
O24 O 0.27542 0.27633 0.21694 0.0
O25 O 0.29061 0.27463 0.14741 0.0
O26 O 0.28912 0.2928 0.35272 0.0
O27 O 0.27663 0.25892 0.34613 0.0
O28 O 0.3019 0.24266 0.22029 0.0
O29 O 0.28954 0.22423 0.27548 0.0
O30 O 0.32735 0.25691 0.2385 0.0
O31 O 0.31454 0.26231 0.31423 0.0
H32 H 0.33585 0.30238 1.00535 0.0
H33 H 0.32923 0.29965 0.91347 0.0
H34 H 0.29542 0.25125 0.95516 0.0
H35 H 0.30223 0.25392 0.04724 0.0
H36 H 0.26248 0.28649 0.45432 0.0
H37 H 0.26672 0.28325 0.54822 0.0
H38 H 0.30781 0.2569 0.51696 0.0
H39 H 0.30336 0.25983 0.42301 0.0
Pr40 Pr 0.93166 0.99034 0.18138 0.0
Pr41 Pr 0.94973 1.00354 0.28131 0.0
C42 C 0.92073 0.98447 0.08542 0.0
C43 C 0.92452 0.98942 0.0307 0.0
C44 C 0.91608 0.9806 0.99049 0.0
C45 C 0.91968 0.98445 0.93826 0.0
C46 C 0.93184 0.99721 0.92508 0.0
C47 C 0.94028 1.00609 0.96572 0.0
C48 C 0.93665 1.00224 0.01804 0.0
C49 C 0.93504 0.95139 0.25404 0.0
C50 C 0.96545 0.99804 0.16815 0.0
C51 C 0.96173 0.99693 0.37529 0.0
C52 C 0.95953 1.0028 0.43093 0.0
C53 C 0.97042 1.00034 0.46619 0.0
C54 C 0.96817 1.00277 0.51992 0.0
C55 C 0.95494 1.00765 0.53953 0.0
C56 C 0.94413 1.01097 0.50374 0.0
C57 C 0.9464 1.00856 0.44999 0.0
C58 C 0.94313 0.04877 0.231 0.0
C59 C 0.91543 1.00969 0.28462 0.0
O60 O 0.9183 1.00407 0.11492 0.0
O61 O 0.92774 0.96694 0.10922 0.0
O62 O 0.94439 0.96647 0.23963 0.0
O63 O 0.9237 0.95577 0.22903 0.0
O64 O 0.96736 0.99938 0.21924 0.0
O65 O 0.95329 0.996 0.14655 0.0
O66 O 0.95302 0.98114 0.35463 0.0
O67 O 0.96503 0.01536 0.34389 0.0
O68 O 0.93952 0.02699 0.21656 0.0
O69 O 0.9501 0.04752 0.27419 0.0
O70 O 0.91472 1.00742 0.23345 0.0
O71 O 0.92696 1.00653 0.31113 0.0
H72 H 0.90673 0.97051 0.9995 0.0
H73 H 0.91304 0.97696 0.90818 0.0
H74 H 0.94965 0.0162 0.95715 0.0
H75 H 0.94331 1.00921 0.04857 0.0
H76 H 0.98062 0.99585 0.45227 0.0
H77 H 0.97678 1.00052 0.54616 0.0
H78 H 0.93379 0.01449 0.51729 0.0
H79 H 0.93782 1.01039 0.42342 0.0
Pr80 Pr 0.31082 0.99625 0.09167 0.0
Pr81 Pr 0.29122 1.00894 0.99483 0.0
C82 C 0.32229 0.98978 0.18669 0.0
C83 C 0.31856 0.99221 0.2424 0.0
C84 C 0.32708 0.98157 0.28044 0.0
C85 C 0.32362 0.983 0.33339 0.0
C86 C 0.31151 0.99514 0.3497 0.0
C87 C 0.30295 1.00575 0.31121 0.0
C88 C 0.30644 1.00431 0.25812 0.0
C89 C 0.30894 0.95877 0.01479 0.0
C90 C 0.27668 0.999 0.10913 0.0
C91 C 0.27841 1.00516 0.90127 0.0
C92 C 0.28202 1.0022 0.84556 0.0
C93 C 0.27161 0.99922 0.80834 0.0
C94 C 0.27478 0.99786 0.75505 0.0
C95 C 0.28846 0.99955 0.73772 0.0
C96 C 0.29889 1.00219 0.77542 0.0
C97 C 0.2957 1.00348 0.82875 0.0
C98 C 0.29601 0.05358 0.05064 0.0
C99 C 0.32536 0.01714 0.98795 0.0
O100 O 0.32349 1.01056 0.15965 0.0
O101 O 0.31624 0.97174 0.16081 0.0
O102 O 0.299 0.97195 0.03132 0.0
O103 O 0.32012 0.96411 0.04008 0.0
O104 O 0.27411 1.0022 0.05871 0.0
O105 O 0.2892 0.99747 0.12787 0.0
O106 O 0.28056 0.98596 0.93196 0.0
O107 O 0.28179 0.02648 0.92286 0.0
O108 O 0.30074 0.03209 0.06179 0.0
O109 O 0.28828 0.05214 1.00951 0.0
O110 O 0.32627 0.01693 0.03925 0.0
O111 O 0.3139 0.01132 0.96286 0.0
H112 H 0.33641 0.97195 0.26913 0.0
H113 H 0.33036 0.97418 0.3615 0.0
H114 H 0.29361 0.01544 0.32208 0.0
H115 H 0.29968 0.0126 0.22936 0.0
H116 H 0.26098 0.99834 0.82045 0.0
H117 H 0.26646 0.99612 0.72734 0.0
H118 H 0.30955 1.0032 0.76374 0.0
H119 H 0.30391 1.00576 0.85682 0.0
Pr120 Pr 0.92825 0.27155 0.09706 0.0
Pr121 Pr 0.94795 0.26327 0.9986 0.0
C122 C 0.91741 0.27719 0.19328 0.0
C123 C 0.92099 0.27214 0.24833 0.0
C124 C 0.91085 0.274 0.28685 0.0
C125 C 0.91422 0.27135 0.33968 0.0
C126 C 0.92785 0.26682 0.35525 0.0
C127 C 0.93795 0.26432 0.31627 0.0
C128 C 0.93456 0.267 0.26337 0.0
C129 C 0.93102 0.31198 0.02719 0.0
C130 C 0.96191 0.26635 0.11389 0.0
C131 C 0.9598 0.27307 0.90549 0.0
C132 C 0.95748 0.2676 0.84971 0.0
C133 C 0.9667 0.27671 0.81229 0.0
C134 C 0.96388 0.27416 0.75894 0.0
C135 C 0.95172 0.26249 0.74181 0.0
C136 C 0.94268 0.25277 0.77969 0.0
C137 C 0.94552 0.25534 0.83306 0.0
C138 C 0.94251 0.21622 0.0444 0.0
C139 C 0.91378 0.25281 0.99124 0.0
O140 O 0.91467 0.25785 0.16335 0.0
O141 O 0.92469 0.29447 0.16981 0.0
O142 O 0.94071 0.29816 0.04334 0.0
O143 O 0.91947 0.30533 0.04828 0.0
O144 O 0.96428 0.27164 0.06417 0.0
O145 O 0.94953 0.26183 0.13184 0.0
O146 O 0.95066 0.28762 0.92742 0.0
O147 O 0.96372 0.25454 0.93564 0.0
O148 O 0.93802 0.23731 0.05925 0.0
O149 O 0.95015 0.2191 1.00321 0.0
O150 O 0.91266 0.25234 0.04256 0.0
O151 O 0.92528 0.25934 0.96709 0.0
H152 H 0.90032 0.27794 0.27612 0.0
H153 H 0.90612 0.27295 0.36838 0.0
H154 H 0.94857 0.26105 0.32665 0.0
H155 H 0.94259 0.2656 0.23434 0.0
H156 H 0.97592 0.28646 0.82435 0.0
H157 H 0.97101 0.28218 0.73118 0.0
H158 H 0.93333 0.24334 0.76815 0.0
H159 H 0.93822 0.24828 0.86135 0.0
Pr160 Pr 0.69723 0.75383 0.75372 0.0
Pr161 Pr 0.67757 0.74389 0.85164 0.0
C162 C 0.70895 0.74541 0.65963 0.0
C163 C 0.70696 0.75141 0.60377 0.0
C164 C 0.71749 0.74635 0.56807 0.0
C165 C 0.71519 0.7485 0.51426 0.0
C166 C 0.70225 0.75569 0.49488 0.0
C167 C 0.69186 0.76166 0.53104 0.0
C168 C 0.69418 0.75951 0.58488 0.0
C169 C 0.6912 0.80029 0.80043 0.0
C170 C 0.66296 0.76325 0.74645 0.0
C171 C 0.66636 0.73868 0.94746 0.0
C172 C 0.67012 0.74265 1.00278 0.0
C173 C 0.66344 0.7287 0.04155 0.0
C174 C 0.66724 0.73108 0.094 0.0
C175 C 0.67785 0.74748 0.10902 0.0
C176 C 0.68444 0.7617 0.06999 0.0
C177 C 0.68063 0.75926 0.01737 0.0
C178 C 0.6809 0.70374 0.78118 0.0
C179 C 0.71136 0.74846 0.86987 0.0
O180 O 0.69958 0.73101 0.68042 0.0
O181 O 0.71308 0.76329 0.69108 0.0
O182 O 0.68691 0.77901 0.81512 0.0
O183 O 0.69881 0.79786 0.75905 0.0
O184 O 0.6618 0.76286 0.79769 0.0
O185 O 0.67455 0.75754 0.72203 0.0
O186 O 0.66454 0.75863 0.91832 0.0
O187 O 0.67284 0.72059 0.92327 0.0
O188 O 0.69038 0.71817 0.79698 0.0
O189 O 0.66934 0.70948 0.80351 0.0
O190 O 0.71398 0.74672 0.8191 0.0
O191 O 0.69883 0.75052 0.88815 0.0
H192 H 0.72741 0.73997 0.58173 0.0
H193 H 0.72352 0.74416 0.4878 0.0
H194 H 0.68173 0.76702 0.51777 0.0
H195 H 0.68585 0.76332 0.61171 0.0
H196 H 0.65532 0.71575 0.03118 0.0
H197 H 0.66178 0.72011 0.12288 0.0
H198 H 0.69275 0.7743 0.07994 0.0
H199 H 0.68602 0.77008 0.98803 0.0
Pr200 Pr 0.04205 0.01908 0.75033 0.0
Pr201 Pr 0.06282 0.03278 0.85377 0.0
C202 C 0.0291 0.02351 0.65777 0.0
C203 C 0.03296 0.02736 0.60263 0.0
C204 C 0.02275 0.03069 0.56474 0.0
C205 C 0.0262 0.03185 0.51168 0.0
C206 C 0.03994 0.02952 0.49543 0.0
C207 C 0.05017 0.02682 0.53381 0.0
C208 C 0.04672 0.0258 0.58684 0.0
C209 C 0.0477 0.97625 0.81031 0.0
C210 C 0.07684 0.0151 0.74295 0.0
C211 C 0.07563 0.03248 0.94696 0.0
C212 C 0.07205 0.0291 1.0025 0.0
C213 C 0.08102 0.03801 0.04094 0.0
C214 C 0.07743 0.03682 0.09376 0.0
C215 C 0.06475 0.02663 0.10947 0.0
C216 C 0.05582 0.01748 0.07059 0.0
C217 C 0.05942 0.01877 0.01762 0.0
C218 C 0.05845 0.07353 0.78406 0.0
C219 C 0.02844 0.03104 0.86765 0.0
O220 O 0.03071 0.04248 0.68987 0.0
O221 O 0.03283 1.00198 0.67793 0.0
O222 O 0.05182 0.99843 0.81905 0.0
O223 O 0.04006 0.97605 0.76863 0.0
O224 O 0.07852 0.01783 0.79391 0.0
O225 O 0.0648 0.01688 0.71869 0.0
O226 O 0.07502 0.01268 0.91652 0.0
O227 O 0.07084 0.05288 0.92507 0.0
O228 O 0.0535 0.05184 0.7838 0.0
O229 O 0.06633 0.07534 0.82484 0.0
O230 O 0.02583 0.02792 0.81698 0.0
O231 O 0.04091 0.03204 0.88754 0.0
H232 H 0.01207 0.03175 0.57608 0.0
H233 H 0.01804 0.03372 0.48329 0.0
H234 H 0.06086 0.02534 0.52283 0.0
H235 H 0.05476 0.02321 0.61546 0.0
H236 H 0.09073 0.04638 0.03003 0.0
H237 H 0.08449 0.04451 0.12217 0.0
H238 H 0.04604 1.00927 0.081 0.0
H239 H 0.05228 0.01199 0.98848 0.0
Pr240 Pr 0.69889 0.01587 0.02562 0.0
Pr241 Pr 0.68049 0.02618 0.92542 0.0
C242 C 0.71072 0.02403 0.11929 0.0
C243 C 0.70892 0.01696 0.17442 0.0
C244 C 0.71811 0.02613 0.21188 0.0
C245 C 0.7155 0.02273 0.26513 0.0
C246 C 0.7036 1.01015 0.28199 0.0
C247 C 0.69468 1.00015 0.24403 0.0
C248 C 0.69731 1.00357 0.19077 0.0
C249 C 0.69244 0.96929 0.98 0.0
C250 C 0.66445 1.00923 0.02947 0.0
C251 C 0.67028 0.03253 0.82858 0.0
C252 C 0.67366 0.02623 0.77401 0.0
C253 C 0.6634 0.02739 0.73591 0.0
C254 C 0.66658 0.02354 0.68327 0.0
C255 C 0.68015 0.01849 0.66757 0.0
C256 C 0.69037 0.01664 0.70621 0.0
C257 C 0.68716 0.0205 0.75892 0.0
C258 C 0.68384 0.0667 0.99504 0.0
C259 C 0.71384 0.01762 0.91197 0.0
O260 O 0.70095 0.03801 0.09993 0.0
O261 O 0.71509 1.0068 0.08673 0.0
O262 O 0.68869 0.99066 0.96394 0.0
O263 O 0.69977 0.97165 0.02208 0.0
O264 O 0.66367 1.00953 0.97811 0.0
O265 O 0.676 0.01376 0.05515 0.0
O266 O 0.66646 0.0141 0.85921 0.0
O267 O 0.67839 0.04873 0.85149 0.0
O268 O 0.69322 0.05171 0.98079 0.0
O269 O 0.67243 0.06137 0.97146 0.0
O270 O 0.71585 0.02311 0.96178 0.0
O271 O 0.70156 0.01383 0.89255 0.0
H272 H 0.72705 0.03676 0.20001 0.0
H273 H 0.72251 0.03097 0.29304 0.0
H274 H 0.68553 0.99004 0.25547 0.0
H275 H 0.69005 0.99647 0.16237 0.0
H276 H 0.65292 0.03175 0.74676 0.0
H277 H 0.6584 0.02466 0.6548 0.0
H278 H 0.70093 0.01299 0.69563 0.0
H279 H 0.69527 0.01957 0.7877 0.0
Pr280 Pr 0.04204 0.76211 0.03683 0.0
Pr281 Pr 0.06037 0.75357 0.93505 0.0
C282 C 0.03026 0.75278 0.13002 0.0
C283 C 0.03147 0.76004 0.18535 0.0
C284 C 0.02073 0.7547 0.21992 0.0
C285 C 0.02238 0.75844 0.27364 0.0
C286 C 0.03486 0.76754 0.29386 0.0
C287 C 0.04542 0.77376 0.25869 0.0
C288 C 0.04375 0.77004 0.20498 0.0
C289 C 0.0483 0.80933 0.9939 0.0
C290 C 0.07653 0.76925 0.03955 0.0
C291 C 0.07018 0.74856 0.83724 0.0
C292 C 0.06632 0.75527 0.78343 0.0
C293 C 0.07543 0.75014 0.74253 0.0
C294 C 0.07155 0.75444 0.69074 0.0
C295 C 0.05845 0.76397 0.67875 0.0
C296 C 0.04943 0.76951 0.72013 0.0
C297 C 0.05333 0.7652 0.77197 0.0
C298 C 0.05711 0.71206 1.00193 0.0
C299 C 0.02704 0.76092 0.9233 0.0
O300 O 0.04056 0.73989 0.11114 0.0
O301 O 0.02536 0.7694 0.09719 0.0
O302 O 0.05203 0.78818 0.97665 0.0
O303 O 0.0409 0.8064 0.03566 0.0
O304 O 0.07721 0.76958 0.98817 0.0
O305 O 0.06506 0.76428 0.06551 0.0
O306 O 0.0739 0.76686 0.86842 0.0
O307 O 0.06238 0.73182 0.85999 0.0
O308 O 0.04773 0.72727 0.98894 0.0
O309 O 0.06851 0.71768 0.97851 0.0
O310 O 0.02524 0.75426 0.97259 0.0
O311 O 0.03918 0.76633 0.90432 0.0
H312 H 0.01119 0.74693 0.20553 0.0
H313 H 0.01395 0.75385 0.2994 0.0
H314 H 0.05521 0.78055 0.27276 0.0
H315 H 0.0522 0.77418 0.17895 0.0
H316 H 0.08545 0.74226 0.75056 0.0
H317 H 0.07869 0.74957 0.66002 0.0
H318 H 0.03932 0.77712 0.7125 0.0
H319 H 0.04613 0.76925 0.80299 0.0
Pr320 Pr 0.31428 0.77668 0.67586 0.0
Pr321 Pr 0.29573 0.76703 0.77609 0.0
C322 C 0.32461 0.78282 0.57904 0.0
C323 C 0.32116 0.77724 0.52424 0.0
C324 C 0.32899 0.78813 0.48444 0.0
C325 C 0.32526 0.78506 0.43215 0.0
C326 C 0.31357 0.77103 0.41848 0.0
C327 C 0.30591 0.75957 0.45855 0.0
C328 C 0.30965 0.76273 0.51103 0.0
C329 C 0.31076 0.81768 0.74388 0.0
C330 C 0.28092 0.76782 0.66195 0.0
C331 C 0.28387 0.77599 0.86946 0.0
C332 C 0.28525 0.76934 0.92511 0.0
C333 C 0.27469 0.77555 0.95991 0.0
C334 C 0.27655 0.77276 1.01377 0.0
C335 C 0.28905 0.76375 0.03398 0.0
C336 C 0.29941 0.75655 0.99868 0.0
C337 C 0.29753 0.75937 0.94477 0.0
C338 C 0.30213 0.72019 0.73187 0.0
C339 C 0.33014 0.75966 0.78032 0.0
O340 O 0.32796 0.76392 0.60924 0.0
O341 O 0.31678 0.79939 0.60218 0.0
O342 O 0.30139 0.80253 0.73019 0.0
O343 O 0.32224 0.81213 0.72101 0.0
O344 O 0.27879 0.77343 0.71168 0.0
O345 O 0.29326 0.76438 0.64281 0.0
O346 O 0.29387 0.78945 0.85009 0.0
O347 O 0.27932 0.75881 0.83714 0.0
O348 O 0.30595 0.74142 0.71522 0.0
O349 O 0.29475 0.72285 0.77379 0.0
O350 O 0.331 0.76014 0.72899 0.0
O351 O 0.31858 0.76429 0.80592 0.0
H352 H 0.33789 0.79944 0.49386 0.0
H353 H 0.33151 0.79381 0.40235 0.0
H354 H 0.29679 0.74883 0.44948 0.0
H355 H 0.3034 0.75432 0.54127 0.0
H356 H 0.26515 0.78335 0.94553 0.0
H357 H 0.26827 0.77809 0.03966 0.0
H358 H 0.3092 0.74978 1.01274 0.0
H359 H 0.30586 0.75462 0.91856 0.0
Pr360 Pr 0.92979 0.49091 0.68066 0.0
Pr361 Pr 0.95036 0.49985 0.77791 0.0
C362 C 0.91814 0.48706 0.58532 0.0
C363 C 0.92215 0.49011 0.52995 0.0
C364 C 0.91356 0.48082 0.4906 0.0
C365 C 0.9173 0.48284 0.43797 0.0
C366 C 0.92977 0.4942 0.42331 0.0
C367 C 0.93839 0.50346 0.46311 0.0
C368 C 0.9346 0.50147 0.51583 0.0
C369 C 0.93199 0.45183 0.75361 0.0
C370 C 0.96392 0.49155 0.6615 0.0
C371 C 0.96232 0.49081 0.87138 0.0
C372 C 0.95951 0.49482 0.92759 0.0
C373 C 0.97008 0.49186 0.96418 0.0
C374 C 0.96736 0.49356 0.01783 0.0
C375 C 0.95398 0.49824 0.0362 0.0
C376 C 0.94347 0.50173 0.99914 0.0
C377 C 0.9462 0.50002 0.9455 0.0
C378 C 0.94509 0.54614 0.72878 0.0
C379 C 0.91643 0.5122 0.7869 0.0
O380 O 0.91748 0.50745 0.6139 0.0
O381 O 0.92357 0.468 0.61004 0.0
O382 O 0.9419 0.46482 0.73629 0.0
O383 O 0.92052 0.45839 0.73154 0.0
O384 O 0.96682 0.49198 0.71213 0.0
O385 O 0.95131 0.49277 0.64349 0.0
O386 O 0.95428 0.47487 0.84749 0.0
O387 O 0.96522 0.51051 0.84289 0.0
O388 O 0.94037 0.5249 0.71601 0.0
O389 O 0.9529 0.54379 0.76966 0.0
O390 O 0.91507 0.51201 0.73568 0.0
O391 O 0.92791 0.50532 0.81077 0.0
H392 H 0.90396 0.4718 0.5006 0.0
H393 H 0.91049 0.47507 0.40879 0.0
H394 H 0.948 0.51252 0.45355 0.0
H395 H 0.94142 0.50876 0.54556 0.0
H396 H 0.98043 0.48781 0.95128 0.0
H397 H 0.97578 0.49116 0.04493 0.0
H398 H 0.93301 0.50508 1.01155 0.0
H399 H 0.93787 0.50226 0.91801 0.0
Pr400 Pr 0.31498 0.49361 0.60519 0.0
Pr401 Pr 0.29495 0.50453 0.50904 0.0
C402 C 0.32608 0.48681 0.7006 0.0
C403 C 0.32222 0.49071 0.75604 0.0
C404 C 0.33202 0.49941 0.79175 0.0
C405 C 0.32876 0.50193 0.8448 0.0
C406 C 0.31559 0.49575 0.8635 0.0
C407 C 0.3057 0.4875 0.82726 0.0
C408 C 0.30898 0.48499 0.77425 0.0
C409 C 0.31156 0.45466 0.53262 0.0
C410 C 0.28126 0.5023 0.62561 0.0
C411 C 0.28285 0.49637 0.41564 0.0
C412 C 0.28654 0.49843 0.35969 0.0
C413 C 0.2765 0.50479 0.32279 0.0
C414 C 0.27971 0.50558 0.26944 0.0
C415 C 0.29303 0.4999 0.25177 0.0
C416 C 0.30312 0.49392 0.28907 0.0
C417 C 0.29993 0.49326 0.34238 0.0
C418 C 0.30142 0.55058 0.55612 0.0
C419 C 0.32924 0.51333 0.49996 0.0
O420 O 0.32849 0.50682 0.67227 0.0
O421 O 0.3194 0.4693 0.67524 0.0
O422 O 0.30204 0.46851 0.55029 0.0
O423 O 0.32324 0.46043 0.55374 0.0
O424 O 0.27822 0.50033 0.57527 0.0
O425 O 0.29397 0.50201 0.64267 0.0
O426 O 0.28916 0.47894 0.44233 0.0
O427 O 0.2813 0.51727 0.44188 0.0
O428 O 0.30571 0.52919 0.5704 0.0
O429 O 0.29351 0.54841 0.51552 0.0
O430 O 0.33063 0.51257 0.55111 0.0
O431 O 0.31751 0.50813 0.47595 0.0
H432 H 0.34228 0.50402 0.7787 0.0
H433 H 0.33659 0.50876 0.87115 0.0
H434 H 0.29551 0.4823 0.83997 0.0
H435 H 0.3012 0.47817 0.74765 0.0
H436 H 0.26611 0.50879 0.33518 0.0
H437 H 0.27164 0.51005 0.24193 0.0
H438 H 0.31353 0.48982 0.27708 0.0
H439 H 0.30791 0.48846 0.37003 0.0
Pr440 Pr 0.93193 0.77114 0.59658 0.0
Pr441 Pr 0.95061 0.75991 0.49737 0.0
C442 C 0.9217 0.77822 0.69336 0.0
C443 C 0.92503 0.77198 0.74801 0.0
C444 C 0.91644 0.78042 0.78817 0.0
C445 C 0.91993 0.77634 0.84047 0.0
C446 C 0.93214 0.76374 0.8538 0.0
C447 C 0.94065 0.75498 0.8132 0.0
C448 C 0.93711 0.75904 0.76084 0.0
C449 C 0.93567 0.81136 0.52697 0.0
C450 C 0.96525 0.75954 0.61159 0.0
C451 C 0.96265 0.76758 0.40373 0.0
C452 C 0.96051 0.76155 0.34806 0.0
C453 C 0.97132 0.76449 0.31252 0.0
C454 C 0.96904 0.76184 0.25881 0.0
C455 C 0.95586 0.75625 0.23948 0.0
C456 C 0.94515 0.75249 0.27556 0.0
C457 C 0.94745 0.75512 0.32925 0.0
C458 C 0.94365 0.71373 0.54342 0.0
C459 C 0.91609 0.7541 0.49204 0.0
O460 O 0.91776 0.7598 0.66286 0.0
O461 O 0.93003 0.794 0.67039 0.0
O462 O 0.94501 0.79623 0.54125 0.0
O463 O 0.9242 0.80626 0.55036 0.0
O464 O 0.96777 0.76451 0.56183 0.0
O465 O 0.95271 0.75801 0.63004 0.0
O466 O 0.95363 0.78276 0.42445 0.0
O467 O 0.96632 0.74937 0.43513 0.0
O468 O 0.93998 0.73526 0.55896 0.0
O469 O 0.95099 0.71572 0.50126 0.0
O470 O 0.91512 0.75484 0.54336 0.0
O471 O 0.92779 0.75797 0.46683 0.0
H472 H 0.90713 0.79063 0.7791 0.0
H473 H 0.91323 0.78369 0.87049 0.0
H474 H 0.95004 0.74497 0.82183 0.0
H475 H 0.94388 0.7524 0.73041 0.0
H476 H 0.98146 0.7695 0.32621 0.0
H477 H 0.97759 0.76444 0.2324 0.0
H478 H 0.93485 0.74845 0.26229 0.0
H479 H 0.93893 0.7529 0.35598 0.0
Pr480 Pr 0.69826 0.2549 0.24896 0.0
Pr481 Pr 0.68007 0.24224 0.34883 0.0
C482 C 0.71033 0.24781 0.15519 0.0
C483 C 0.70838 0.25358 0.09939 0.0
C484 C 0.71916 0.24938 0.06433 0.0
C485 C 0.71701 0.25137 1.01048 0.0
C486 C 0.70398 0.25755 0.99055 0.0
C487 C 0.69332 0.26273 0.02607 0.0
C488 C 0.69549 0.26072 0.07997 0.0
C489 C 0.69134 0.30048 0.29714 0.0
C490 C 0.66389 0.26047 0.24504 0.0
C491 C 0.66896 0.23661 0.44455 0.0
C492 C 0.67283 0.24051 0.4996 0.0
C493 C 0.66584 0.22738 0.53875 0.0
C494 C 0.66961 0.23007 0.59111 0.0
C495 C 0.68048 0.246 0.60549 0.0
C496 C 0.68742 0.25934 0.56605 0.0
C497 C 0.68367 0.25654 0.51354 0.0
C498 C 0.68344 0.20313 0.2763 0.0
C499 C 0.71388 0.24935 0.3628 0.0
O500 O 0.70138 0.23243 0.17558 0.0
O501 O 0.71378 0.26615 0.18662 0.0
O502 O 0.6878 0.27881 0.31252 0.0
O503 O 0.69844 0.29888 0.25432 0.0
O504 O 0.66315 0.25884 0.29629 0.0
O505 O 0.67548 0.25721 0.21884 0.0
O506 O 0.66716 0.25671 0.41587 0.0
O507 O 0.67539 0.21857 0.41998 0.0
O508 O 0.6928 0.2181 0.29112 0.0
O509 O 0.67207 0.20768 0.30101 0.0
O510 O 0.71582 0.2508 0.31169 0.0
O511 O 0.70169 0.24736 0.38421 0.0
H512 H 0.72917 0.24378 0.07853 0.0
H513 H 0.72551 0.24765 0.9844 0.0
H514 H 0.68314 0.26732 1.01221 0.0
H515 H 0.68699 0.26387 0.1064 0.0
H516 H 0.65747 0.21489 0.52877 0.0
H517 H 0.66393 0.21977 0.62043 0.0
H518 H 0.69594 0.27154 0.57567 0.0
H519 H 0.68928 0.2667 0.48382 0.0
Pr520 Pr 0.04134 0.52127 0.24375 0.0
Pr521 Pr 0.05978 0.53221 0.34479 0.0
C522 C 0.02939 0.52941 0.15025 0.0
C523 C 0.0313 0.52316 0.09464 0.0
C524 C 0.02049 0.52685 0.0595 0.0
C525 C 0.02257 0.5239 1.00578 0.0
C526 C 0.03556 0.51725 0.98609 0.0
C527 C 0.04626 0.51271 0.02178 0.0
C528 C 0.04415 0.51565 0.0755 0.0
C529 C 0.04821 0.47514 0.2896 0.0
C530 C 0.07564 0.51432 0.23982 0.0
C531 C 0.0709 0.53611 0.44085 0.0
C532 C 0.0669 0.53134 0.49543 0.0
C533 C 0.0756 0.53894 0.53589 0.0
C534 C 0.0718 0.53537 0.58801 0.0
C535 C 0.05918 0.52411 0.60081 0.0
C536 C 0.05048 0.51643 0.55991 0.0
C537 C 0.05431 0.51999 0.50771 0.0
C538 C 0.05671 0.57216 0.27441 0.0
C539 C 0.02589 0.52567 0.35806 0.0
O540 O 0.03871 0.5441 0.17062 0.0
O541 O 0.02545 0.51146 0.18182 0.0
O542 O 0.05175 0.49667 0.30566 0.0
O543 O 0.04099 0.47714 0.24715 0.0
O544 O 0.07641 0.51547 0.29114 0.0
O545 O 0.06412 0.51836 0.21369 0.0
O546 O 0.07259 0.51643 0.41084 0.0
O547 O 0.06457 0.55463 0.4175 0.0
O548 O 0.04723 0.55723 0.28828 0.0
O549 O 0.06802 0.56719 0.29915 0.0
O550 O 0.02388 0.52501 0.30692 0.0
O551 O 0.03811 0.52704 0.37944 0.0
H552 H 0.0105 0.53267 0.07349 0.0
H553 H 0.01404 0.52712 0.97962 0.0
H554 H 0.05643 0.50782 1.00815 0.0
H555 H 0.05267 0.51282 0.10198 0.0
H556 H 0.08531 0.54789 0.52718 0.0
H557 H 0.07866 0.54192 0.61829 0.0
H558 H 0.04075 0.50749 0.56819 0.0
H559 H 0.04743 0.51399 0.477 0.0
Pr560 Pr 0.69816 0.51456 0.52624 0.0
Pr561 Pr 0.67872 0.52665 0.42972 0.0
C562 C 0.71049 0.52074 0.61995 0.0
C563 C 0.70682 0.51828 0.67576 0.0
C564 C 0.71696 0.5126 0.7127 0.0
C565 C 0.71377 0.51181 0.76604 0.0
C566 C 0.70036 0.51684 0.78358 0.0
C567 C 0.69017 0.52207 0.74623 0.0
C568 C 0.69335 0.52271 0.69294 0.0
C569 C 0.69129 0.46881 0.47838 0.0
C570 C 0.6638 0.50789 0.5345 0.0
C571 C 0.66777 0.53362 0.33417 0.0
C572 C 0.67158 0.52929 0.27885 0.0
C573 C 0.6618 0.51994 0.24375 0.0
C574 C 0.66501 0.51696 0.19078 0.0
C575 C 0.67809 0.52334 0.17156 0.0
C576 C 0.68796 0.53226 0.20718 0.0
C577 C 0.68474 0.53521 0.26011 0.0
C578 C 0.68203 0.56569 0.50251 0.0
C579 C 0.71233 0.51699 0.41016 0.0
O580 O 0.7044 0.53876 0.59439 0.0
O581 O 0.71161 0.50011 0.59259 0.0
O582 O 0.6873 0.49038 0.46402 0.0
O583 O 0.69903 0.47064 0.51947 0.0
O584 O 0.66261 0.50855 0.48328 0.0
O585 O 0.67553 0.51243 0.55892 0.0
O586 O 0.66504 0.51385 0.36281 0.0
O587 O 0.6747 0.55088 0.35925 0.0
O588 O 0.69158 0.55143 0.48616 0.0
O589 O 0.67056 0.56039 0.47931 0.0
O590 O 0.71518 0.51847 0.46074 0.0
O591 O 0.6997 0.51792 0.39251 0.0
H592 H 0.72742 0.5092 0.70036 0.0
H593 H 0.7219 0.50793 0.79364 0.0
H594 H 0.6797 0.52565 0.75818 0.0
H595 H 0.6853 0.52701 0.6652 0.0
H596 H 0.6516 0.51517 0.25723 0.0
H597 H 0.65721 0.50963 0.1649 0.0
H598 H 0.69809 0.53763 0.19402 0.0
H599 H 0.6925 0.54251 0.28622 0.0
Pr600 Pr 0.04303 0.26428 0.52909 0.0
Pr601 Pr 0.06135 0.24816 0.43234 0.0
C602 C 0.03056 0.26443 0.62352 0.0
C603 C 0.03329 0.25637 0.67779 0.0
C604 C 0.02304 0.25911 0.71577 0.0
C605 C 0.02602 0.25543 0.76875 0.0
C606 C 0.03938 0.24906 0.78501 0.0
C607 C 0.0495 0.24537 0.74645 0.0
C608 C 0.04648 0.24899 0.69344 0.0
C609 C 0.04928 0.30806 0.47317 0.0
C610 C 0.07738 0.26674 0.53413 0.0
C611 C 0.07176 0.23705 0.3373 0.0
C612 C 0.06875 0.24022 0.28108 0.0
C613 C 0.07488 0.22394 0.24497 0.0
C614 C 0.07176 0.2256 0.19175 0.0
C615 C 0.06237 0.24361 0.17319 0.0
C616 C 0.05624 0.25999 0.20968 0.0
C617 C 0.05942 0.25833 0.26306 0.0
C618 C 0.05821 0.21127 0.5101 0.0
C619 C 0.02798 0.26167 0.41494 0.0
O620 O 0.02815 0.24723 0.58814 0.0
O621 O 0.03837 0.28253 0.60638 0.0
O622 O 0.05321 0.28612 0.461 0.0
O623 O 0.04164 0.30745 0.51451 0.0
O624 O 0.07812 0.26656 0.48277 0.0
O625 O 0.06581 0.26211 0.55951 0.0
O626 O 0.07539 0.25698 0.36403 0.0
O627 O 0.06355 0.22211 0.36311 0.0
O628 O 0.04879 0.2258 0.49413 0.0
O629 O 0.06935 0.21466 0.48342 0.0
O630 O 0.02547 0.26214 0.46578 0.0
O631 O 0.04034 0.25794 0.39591 0.0
H632 H 0.01283 0.26506 0.70465 0.0
H633 H 0.01799 0.25868 0.79711 0.0
H634 H 0.05983 0.24007 0.75728 0.0
H635 H 0.05458 0.24686 0.66482 0.0
H636 H 0.08201 0.20966 0.25806 0.0
H637 H 0.07652 0.21236 0.16528 0.0
H638 H 0.04907 0.27426 0.19699 0.0
H639 H 0.05456 0.27107 0.29028 0.0
Pr640 Pr 0.81302 0.27854 0.67855 0.0
Pr641 Pr 0.79294 0.26888 0.77676 0.0
C642 C 0.82469 0.28199 0.58316 0.0
C643 C 0.82088 0.27849 0.52781 0.0
C644 C 0.83012 0.28553 0.48861 0.0
C645 C 0.82651 0.28344 0.43589 0.0
C646 C 0.81351 0.27436 0.42106 0.0
C647 C 0.80431 0.26701 0.46068 0.0
C648 C 0.80797 0.26903 0.5135 0.0
C649 C 0.81051 0.31821 0.75028 0.0
C650 C 0.77891 0.27743 0.66102 0.0
C651 C 0.78117 0.27689 0.87094 0.0
C652 C 0.78367 0.27113 0.92655 0.0
C653 C 0.77373 0.27727 0.96397 0.0
C654 C 0.77662 0.27504 0.01737 0.0
C655 C 0.78957 0.26671 0.03453 0.0
C656 C 0.79935 0.25979 0.99666 0.0
C657 C 0.79644 0.26198 0.94328 0.0
C658 C 0.79867 0.22271 0.72785 0.0
C659 C 0.82701 0.25802 0.78462 0.0
O660 O 0.82545 0.26181 0.61225 0.0
O661 O 0.819 0.30102 0.60717 0.0
O662 O 0.80073 0.30436 0.73467 0.0
O663 O 0.82188 0.3123 0.72673 0.0
O664 O 0.77626 0.27708 0.71187 0.0
O665 O 0.79143 0.27608 0.64212 0.0
O666 O 0.79003 0.29206 0.84938 0.0
O667 O 0.77747 0.25849 0.84002 0.0
O668 O 0.80306 0.2441 0.71465 0.0
O669 O 0.79097 0.22482 0.76906 0.0
O670 O 0.82827 0.25855 0.73338 0.0
O671 O 0.81548 0.26419 0.80894 0.0
H672 H 0.84013 0.29282 0.49878 0.0
H673 H 0.83397 0.28885 0.40672 0.0
H674 H 0.79418 0.26018 0.451 0.0
H675 H 0.80068 0.26346 0.54315 0.0
H676 H 0.76386 0.28461 0.95193 0.0
H677 H 0.76887 0.2808 0.04517 0.0
H678 H 0.80935 0.25294 1.00824 0.0
H679 H 0.80428 0.2572 0.91507 0.0
Pr680 Pr 0.4284 0.99465 0.67657 0.0
Pr681 Pr 0.44669 1.0054 0.7767 0.0
C682 C 0.41859 0.98782 0.57918 0.0
C683 C 0.42208 0.99465 0.52502 0.0
C684 C 0.41315 0.98803 0.48449 0.0
C685 C 0.41674 0.99258 0.43247 0.0
C686 C 0.42938 1.00384 0.41985 0.0
C687 C 0.43821 1.01086 0.46085 0.0
C688 C 0.43458 1.00632 0.51292 0.0
C689 C 0.43239 0.95406 0.74524 0.0
C690 C 0.46158 1.00515 0.66305 0.0
C691 C 0.45843 0.99712 0.87044 0.0
C692 C 0.45679 1.00401 0.92586 0.0
C693 C 0.46756 0.99965 0.96089 0.0
C694 C 0.46559 1.00289 0.01461 0.0
C695 C 0.45277 1.01048 0.03444 0.0
C696 C 0.44215 0.01575 0.99884 0.0
C697 C 0.44414 0.01254 0.94511 0.0
C698 C 0.44005 0.05184 0.73158 0.0
C699 C 0.41218 0.01208 0.77987 0.0
O700 O 0.41429 1.00583 0.61001 0.0
O701 O 0.42701 0.97219 0.60212 0.0
O702 O 0.44154 0.96954 0.73127 0.0
O703 O 0.42084 0.95901 0.72227 0.0
O704 O 0.46375 0.99932 0.7126 0.0
O705 O 0.44919 1.0085 0.64429 0.0
O706 O 0.44865 0.9832 0.85087 0.0
O707 O 0.4629 0.01432 0.83803 0.0
O708 O 0.43637 0.03047 0.71509 0.0
O709 O 0.44739 0.04951 0.77363 0.0
O710 O 0.41139 1.01095 0.72859 0.0
O711 O 0.42374 1.00804 0.80593 0.0
H712 H 0.4035 0.97882 0.49301 0.0
H713 H 0.40977 0.98658 0.40207 0.0
H714 H 0.44794 0.01983 0.45273 0.0
H715 H 0.44163 0.01158 0.54363 0.0
H716 H 0.47739 0.993 0.94683 0.0
H717 H 0.47408 0.99908 0.04067 0.0
H718 H 0.4321 0.02138 1.01255 0.0
H719 H 0.43565 0.01589 0.91874 0.0
Pr720 Pr 0.81201 0.99751 0.59363 0.0
Pr721 Pr 0.79368 1.00954 0.49451 0.0
C722 C 0.82223 0.98969 0.69015 0.0
C723 C 0.81907 0.99607 0.74487 0.0
C724 C 0.82757 0.98714 0.78483 0.0
C725 C 0.82423 0.99147 0.8372 0.0
C726 C 0.81226 1.00479 0.85075 0.0
C727 C 0.80386 0.01403 0.81035 0.0
C728 C 0.80726 1.00973 0.75794 0.0
C729 C 0.80838 0.95774 0.52273 0.0
C730 C 0.77877 1.0101 0.60839 0.0
C731 C 0.78178 1.00233 0.40051 0.0
C732 C 0.78404 1.00837 0.34495 0.0
C733 C 0.77325 1.0058 0.30929 0.0
C734 C 0.7756 1.00837 0.25564 0.0
C735 C 0.78885 0.01349 0.23648 0.0
C736 C 0.79957 0.01691 0.27269 0.0
C737 C 0.79718 0.01437 0.32634 0.0
C738 C 0.80068 0.05546 0.54138 0.0
C739 C 0.82816 0.0154 0.49044 0.0
O740 O 0.82642 1.00794 0.65975 0.0
O741 O 0.81361 0.97443 0.66721 0.0
O742 O 0.79902 0.97281 0.53723 0.0
O743 O 0.81981 0.96271 0.54646 0.0
O744 O 0.77632 1.00554 0.5584 0.0
O745 O 0.79128 1.01083 0.62731 0.0
O746 O 0.79066 0.98692 0.4213 0.0
O747 O 0.77817 0.02057 0.43198 0.0
O748 O 0.80427 0.03388 0.55695 0.0
O749 O 0.79346 0.05365 0.49889 0.0
O750 O 0.82895 0.01431 0.54175 0.0
O751 O 0.81656 0.01163 0.46456 0.0
H752 H 0.83668 0.97638 0.77555 0.0
H753 H 0.83084 0.98374 0.86709 0.0
H754 H 0.79467 0.02461 0.81919 0.0
H755 H 0.80057 0.01677 0.72764 0.0
H756 H 0.76304 1.00111 0.32284 0.0
H757 H 0.76706 1.00605 0.22912 0.0
H758 H 0.80992 0.02059 0.25955 0.0
H759 H 0.80569 0.01629 0.35319 0.0
Pr760 Pr 0.42777 0.27785 0.60589 0.0
Pr761 Pr 0.44616 0.26676 0.50501 0.0
C762 C 0.41678 0.28183 0.70217 0.0
C763 C 0.42084 0.27708 0.75665 0.0
C764 C 0.41206 0.28423 0.79725 0.0
C765 C 0.4159 0.28061 0.84929 0.0
C766 C 0.42865 0.26975 0.86188 0.0
C767 C 0.43743 0.26252 0.82085 0.0
C768 C 0.43355 0.26613 0.76872 0.0
C769 C 0.43069 0.31772 0.5353 0.0
C770 C 0.46173 0.27252 0.61852 0.0
C771 C 0.45793 0.27491 0.41119 0.0
C772 C 0.45621 0.26841 0.35564 0.0
C773 C 0.467 0.27271 0.32068 0.0
C774 C 0.46503 0.2697 0.26693 0.0
C775 C 0.45218 0.26241 0.24701 0.0
C776 C 0.44151 0.25723 0.28251 0.0
C777 C 0.44351 0.26022 0.33629 0.0
C778 C 0.44001 0.22072 0.55266 0.0
C779 C 0.41191 0.25884 0.50171 0.0
O780 O 0.41505 0.26213 0.67226 0.0
O781 O 0.42308 0.30032 0.67863 0.0
O782 O 0.4402 0.30284 0.54896 0.0
O783 O 0.41939 0.31269 0.56011 0.0
O784 O 0.46366 0.27171 0.56738 0.0
O785 O 0.44953 0.27343 0.64022 0.0
O786 O 0.44836 0.28919 0.43118 0.0
O787 O 0.46214 0.25731 0.44313 0.0
O788 O 0.43618 0.24219 0.56816 0.0
O789 O 0.4471 0.22273 0.50986 0.0
O790 O 0.4111 0.26069 0.55292 0.0
O791 O 0.42341 0.26273 0.47537 0.0
H792 H 0.40226 0.29287 0.7887 0.0
H793 H 0.40898 0.28681 0.87971 0.0
H794 H 0.44725 0.25388 0.82897 0.0
H795 H 0.44048 0.26045 0.73789 0.0
H796 H 0.47687 0.27908 0.33484 0.0
H797 H 0.47353 0.27344 0.24091 0.0
H798 H 0.43145 0.25183 0.2687 0.0
H799 H 0.43501 0.25693 0.36262 0.0
Pr800 Pr 0.19813 0.75858 0.25222 0.0
Pr801 Pr 0.17929 0.74671 0.34992 0.0
C802 C 0.21004 0.75165 0.15817 0.0
C803 C 0.20702 0.75662 0.10252 0.0
C804 C 0.21761 0.76355 0.06842 0.0
C805 C 0.2151 0.76614 0.01483 0.0
C806 C 0.20194 0.76166 0.99406 0.0
C807 C 0.19128 0.75531 0.02878 0.0
C808 C 0.19378 0.75294 0.08231 0.0
C809 C 0.19102 0.80458 0.29824 0.0
C810 C 0.16367 0.76499 0.24627 0.0
C811 C 0.16901 0.73985 0.44647 0.0
C812 C 0.17319 0.74531 0.50083 0.0
C813 C 0.16336 0.75303 0.53746 0.0
C814 C 0.16705 0.75703 0.58966 0.0
C815 C 0.18064 0.75324 0.60635 0.0
C816 C 0.19053 0.746 0.56926 0.0
C817 C 0.18685 0.74214 0.51708 0.0
C818 C 0.18309 0.70704 0.27899 0.0
C819 C 0.21269 0.75799 0.36719 0.0
O820 O 0.20226 0.73502 0.18112 0.0
O821 O 0.21298 0.77081 0.18819 0.0
O822 O 0.18728 0.78307 0.31386 0.0
O823 O 0.19854 0.80259 0.25658 0.0
O824 O 0.16267 0.76384 0.29748 0.0
O825 O 0.17535 0.76099 0.22097 0.0
O826 O 0.16558 0.759 0.4171 0.0
O827 O 0.17623 0.7229 0.42163 0.0
O828 O 0.19243 0.7219 0.29448 0.0
O829 O 0.17153 0.71217 0.30181 0.0
O830 O 0.21536 0.75491 0.31683 0.0
O831 O 0.20011 0.75786 0.38544 0.0
H832 H 0.22789 0.76653 0.08312 0.0
H833 H 0.22351 0.77152 0.98968 0.0
H834 H 0.18106 0.75135 0.01454 0.0
H835 H 0.18539 0.74761 0.10771 0.0
H836 H 0.15278 0.75558 0.52585 0.0
H837 H 0.15917 0.7624 0.61726 0.0
H838 H 0.20112 0.74329 0.5806 0.0
H839 H 0.19467 0.73636 0.4896 0.0
Pr840 Pr 0.54324 1.01007 0.24907 0.0
Pr841 Pr 0.56308 0.02883 0.35218 0.0
C842 C 0.52985 1.01105 0.15707 0.0
C843 C 0.53308 0.01546 0.10158 0.0
C844 C 0.52304 1.01109 0.06356 0.0
C845 C 0.52626 0.01298 1.01044 0.0
C846 C 0.53961 0.01938 0.99414 0.0
C847 C 0.54958 0.02421 0.0327 0.0
C848 C 0.54637 0.0221 0.08582 0.0
C849 C 0.55144 0.96962 0.31157 0.0
C850 C 0.57804 0.01258 0.242 0.0
C851 C 0.57515 0.03182 0.44641 0.0
C852 C 0.57102 0.02749 0.50123 0.0
C853 C 0.5808 0.02025 0.5384 0.0
C854 C 0.57717 0.01794 0.59113 0.0
C855 C 0.56367 0.02298 0.60775 0.0
C856 C 0.55383 0.02961 0.57007 0.0
C857 C 0.55745 0.0318 0.51743 0.0
C858 C 0.55624 0.06802 0.28152 0.0
C859 C 0.52927 0.01651 0.36709 0.0
O860 O 0.53033 0.03044 0.18868 0.0
O861 O 0.53514 0.99065 0.17722 0.0
O862 O 0.5542 0.99259 0.31819 0.0
O863 O 0.54405 0.96686 0.26967 0.0
O864 O 0.57958 0.01628 0.29283 0.0
O865 O 0.56597 0.01193 0.21768 0.0
O866 O 0.57642 0.01204 0.41616 0.0
O867 O 0.56928 0.05093 0.4232 0.0
O868 O 0.55239 0.04553 0.28211 0.0
O869 O 0.56403 0.0715 0.32209 0.0
O870 O 0.52661 0.01443 0.31622 0.0
O871 O 0.54157 0.02112 0.38619 0.0
H872 H 0.51277 1.00561 0.07492 0.0
H873 H 0.51835 1.00869 0.9822 0.0
H874 H 0.55991 0.02954 0.02194 0.0
H875 H 0.55433 0.02519 0.11452 0.0
H876 H 0.59132 0.01688 0.52682 0.0
H877 H 0.58502 0.01296 0.61912 0.0
H878 H 0.54331 0.03323 0.58132 0.0
H879 H 0.54969 0.03735 0.4895 0.0
Pr880 Pr 0.19712 0.01983 0.52381 0.0
Pr881 Pr 0.17825 0.03049 0.42392 0.0
C882 C 0.20918 0.02858 0.61695 0.0
C883 C 0.20664 0.02369 0.67276 0.0
C884 C 0.21662 0.03014 0.70974 0.0
C885 C 0.21387 0.02788 0.76318 0.0
C886 C 0.20104 0.01919 0.78073 0.0
C887 C 0.19118 0.01213 0.74327 0.0
C888 C 0.19396 0.01438 0.68984 0.0
C889 C 0.19097 0.97363 0.47654 0.0
C890 C 0.16286 0.01192 0.52914 0.0
C891 C 0.16681 0.03474 0.32845 0.0
C892 C 0.17069 0.03089 0.2734 0.0
C893 C 0.16128 0.03662 0.23393 0.0
C894 C 0.16486 0.03371 0.1814 0.0
C895 C 0.17797 0.02499 0.16715 0.0
C896 C 0.1874 0.01922 0.20705 0.0
C897 C 0.18378 0.02211 0.25967 0.0
C898 C 0.18114 0.06983 0.49582 0.0
C899 C 0.21225 0.02594 0.40947 0.0
O900 O 0.20067 0.04418 0.59454 0.0
O901 O 0.21237 1.00938 0.58737 0.0
O902 O 0.18698 0.99504 0.46124 0.0
O903 O 0.19823 0.9758 0.51887 0.0
O904 O 0.16196 0.01282 0.47783 0.0
O905 O 0.17442 0.01643 0.55474 0.0
O906 O 0.16562 0.01459 0.35744 0.0
O907 O 0.17281 0.0534 0.35257 0.0
O908 O 0.1907 0.05559 0.48007 0.0
O909 O 0.16965 0.06436 0.47275 0.0
O910 O 0.21438 0.0247 0.46046 0.0
O911 O 0.19998 0.027 0.38845 0.0
H912 H 0.22644 0.03755 0.69732 0.0
H913 H 0.22165 0.03376 0.79072 0.0
H914 H 0.18127 1.00501 0.75522 0.0
H915 H 0.18611 1.00933 0.66186 0.0
H916 H 0.15116 0.04357 0.24373 0.0
H917 H 0.15741 0.03875 0.1519 0.0
H918 H 0.19753 0.01224 0.19766 0.0
H919 H 0.19121 0.01754 0.28958 0.0
Pr920 Pr 0.54179 0.75473 0.5316 0.0
Pr921 Pr 0.56196 0.74747 0.43146 0.0
C922 C 0.5299 0.7447 0.62455 0.0
C923 C 0.53151 0.75065 0.68057 0.0
C924 C 0.52108 0.74417 0.71573 0.0
C925 C 0.5231 0.74664 0.76964 0.0
C926 C 0.53563 0.75562 0.78959 0.0
C927 C 0.54589 0.76297 0.75398 0.0
C928 C 0.54385 0.76046 0.70005 0.0
C929 C 0.54798 0.80182 0.48793 0.0
C930 C 0.57598 0.76488 0.53991 0.0
C931 C 0.57333 0.74671 0.33543 0.0
C932 C 0.56882 0.74896 0.28051 0.0
C933 C 0.57642 0.73709 0.24116 0.0
C934 C 0.57217 0.7383 0.18903 0.0
C935 C 0.56022 0.75148 0.17497 0.0
C936 C 0.55263 0.76348 0.21459 0.0
C937 C 0.55685 0.76213 0.26688 0.0
C938 C 0.55935 0.70645 0.49934 0.0
C939 C 0.52786 0.74668 0.415 0.0
O940 O 0.5397 0.73114 0.604 0.0
O941 O 0.52548 0.76244 0.59334 0.0
O942 O 0.55204 0.7806 0.47243 0.0
O943 O 0.54035 0.7991 0.52919 0.0
O944 O 0.57721 0.76585 0.48865 0.0
O945 O 0.56444 0.75817 0.56364 0.0
O946 O 0.57273 0.76697 0.36441 0.0
O947 O 0.56947 0.72641 0.36013 0.0
O948 O 0.54964 0.72072 0.48493 0.0
O949 O 0.57076 0.71259 0.47626 0.0
O950 O 0.52523 0.74695 0.46589 0.0
O951 O 0.54031 0.74855 0.39572 0.0
H952 H 0.51149 0.73651 0.70156 0.0
H953 H 0.5149 0.74118 0.79574 0.0
H954 H 0.5557 0.76974 0.76779 0.0
H955 H 0.55209 0.76541 0.67362 0.0
H956 H 0.58565 0.72677 0.25079 0.0
H957 H 0.57836 0.72909 0.15959 0.0
H958 H 0.54329 0.77353 0.2053 0.0
H959 H 0.55073 0.77123 0.29668 0.0
Pr960 Pr 0.81426 0.78002 0.17451 0.0
Pr961 Pr 0.79565 0.768 0.27311 0.0
C962 C 0.82472 0.78778 0.07822 0.0
C963 C 0.82163 0.78159 0.0233 0.0
C964 C 0.82992 0.79129 0.98345 0.0
C965 C 0.8266 0.78711 0.93099 0.0
C966 C 0.81487 0.77319 0.9172 0.0
C967 C 0.80668 0.76319 0.95748 0.0
C968 C 0.81006 0.76733 1.00998 0.0
C969 C 0.81004 0.8199 0.2448 0.0
C970 C 0.78104 0.76742 0.15853 0.0
C971 C 0.78385 0.77545 0.36727 0.0
C972 C 0.78623 0.76947 0.42285 0.0
C973 C 0.77547 0.77174 0.45878 0.0
C974 C 0.77792 0.76923 0.51241 0.0
C975 C 0.79125 0.76451 0.53133 0.0
C976 C 0.80193 0.76142 0.49486 0.0
C977 C 0.79945 0.76387 0.44124 0.0
C978 C 0.80287 0.72207 0.22705 0.0
C979 C 0.83013 0.76187 0.27831 0.0
O980 O 0.82872 0.76939 0.10862 0.0
O981 O 0.81615 0.80319 0.10107 0.0
O982 O 0.80089 0.80455 0.22987 0.0
O983 O 0.82163 0.81514 0.22193 0.0
O984 O 0.77847 0.77177 0.20856 0.0
O985 O 0.79359 0.7668 0.1399 0.0
O986 O 0.79269 0.79082 0.34611 0.0
O987 O 0.78016 0.75719 0.33598 0.0
O988 O 0.80648 0.74362 0.21125 0.0
O989 O 0.79546 0.72396 0.26904 0.0
O990 O 0.83114 0.76348 0.22711 0.0
O991 O 0.81844 0.7655 0.30367 0.0
H992 H 0.83884 0.80252 0.9929 0.0
H993 H 0.83304 0.7954 0.90122 0.0
H994 H 0.79767 0.75214 0.94848 0.0
H995 H 0.80356 0.75967 0.04019 0.0
H996 H 0.7652 0.77611 0.44546 0.0
H997 H 0.76939 0.77129 0.53909 0.0
H998 H 0.81234 0.75805 0.50774 0.0
H999 H 0.80795 0.76219 0.41423 0.0
Pr1000 Pr 0.42923 0.49252 0.18035 0.0
Pr1001 Pr 0.44858 0.50723 0.27784 0.0
C1002 C 0.41778 0.4855 0.08545 0.0
C1003 C 0.42144 0.48819 0.02976 0.0
C1004 C 0.41172 0.48241 0.99131 0.0
C1005 C 0.41514 0.48394 0.93829 0.0
C1006 C 0.4284 0.49114 0.92252 0.0
C1007 C 0.4381 0.49707 0.96135 0.0
C1008 C 0.43463 0.49573 0.01441 0.0
C1009 C 0.43135 0.45615 0.25922 0.0
C1010 C 0.46343 0.49674 0.16425 0.0
C1011 C 0.46144 0.50503 0.37131 0.0
C1012 C 0.45822 0.50168 0.4274 0.0
C1013 C 0.46455 0.51739 0.46412 0.0
C1014 C 0.46149 0.51527 0.5173 0.0
C1015 C 0.45204 0.49726 0.53532 0.0
C1016 C 0.44573 0.48141 0.49829 0.0
C1017 C 0.44876 0.48363 0.44491 0.0
C1018 C 0.44321 0.55062 0.219 0.0
C1019 C 0.41442 0.51415 0.28351 0.0
O1020 O 0.4163 0.50622 0.11249 0.0
O1021 O 0.42416 0.46778 0.11124 0.0
O1022 O 0.44116 0.46963 0.24266 0.0
O1023 O 0.42024 0.46041 0.23262 0.0
O1024 O 0.46583 0.50111 0.2144 0.0
O1025 O 0.451 0.49384 0.1452 0.0
O1026 O 0.46014 0.48566 0.34028 0.0
O1027 O 0.45732 0.52598 0.34998 0.0
O1028 O 0.43893 0.5287 0.20946 0.0
O1029 O 0.45067 0.55057 0.26093 0.0
O1030 O 0.41351 0.51305 0.23223 0.0
O1031 O 0.42589 0.50904 0.30918 0.0
H1032 H 0.4015 0.47647 1.0023 0.0
H1033 H 0.40745 0.47895 0.90964 0.0
H1034 H 0.44836 0.50297 0.95073 0.0
H1035 H 0.44225 0.50048 0.04345 0.0
H1036 H 0.4718 0.53155 0.45155 0.0
H1037 H 0.46638 0.52814 0.54418 0.0
H1038 H 0.43853 0.46713 0.51051 0.0
H1039 H 0.44367 0.47132 0.41741 0.0
Pr1040 Pr 0.81467 0.49701 0.09799 0.0
Pr1041 Pr 0.79526 0.50719 0.99999 0.0
C1042 C 0.82543 0.49148 0.19409 0.0
C1043 C 0.82147 0.4969 0.2487 0.0
C1044 C 0.83137 0.50534 0.28421 0.0
C1045 C 0.82802 0.50892 0.33683 0.0
C1046 C 0.81468 0.50392 0.35532 0.0
C1047 C 0.80467 0.49615 0.31911 0.0
C1048 C 0.80801 0.49278 0.26642 0.0
C1049 C 0.81137 0.45675 0.02798 0.0
C1050 C 0.78108 0.50495 0.11559 0.0
C1051 C 0.78317 0.49981 0.90639 0.0
C1052 C 0.78648 0.5041 0.85078 0.0
C1053 C 0.77601 0.50931 0.81487 0.0
C1054 C 0.77892 0.51117 0.76141 0.0
C1055 C 0.79237 0.50761 0.74287 0.0
C1056 C 0.8029 0.50308 0.7792 0.0
C1057 C 0.8 0.50144 0.83253 0.0
C1058 C 0.80168 0.55361 0.0463 0.0
C1059 C 0.82953 0.51537 0.99262 0.0
O1060 O 0.82836 0.51067 0.16405 0.0
O1061 O 0.81843 0.47392 0.1702 0.0
O1062 O 0.80185 0.4713 0.04321 0.0
O1063 O 0.82288 0.46246 0.05056 0.0
O1064 O 0.77852 0.50106 0.0654 0.0
O1065 O 0.79361 0.50697 0.13401 0.0
O1066 O 0.79066 0.48302 0.9302 0.0
O1067 O 0.78056 0.51944 0.93551 0.0
O1068 O 0.80573 0.53222 0.06113 0.0
O1069 O 0.794 0.55133 1.00516 0.0
O1070 O 0.83058 0.51554 0.04392 0.0
O1071 O 0.81797 0.50949 0.96818 0.0
H1072 H 0.84178 0.50883 0.27137 0.0
H1073 H 0.83594 0.51549 0.36306 0.0
H1074 H 0.79433 0.49188 0.33161 0.0
H1075 H 0.80012 0.48642 0.23978 0.0
H1076 H 0.76551 0.51136 0.82804 0.0
H1077 H 0.77058 0.51455 0.73443 0.0
H1078 H 0.81339 0.50063 0.76633 0.0
H1079 H 0.80829 0.49754 0.85941 0.0
Pr1080 Pr 0.43283 0.77671 0.09384 0.0
Pr1081 Pr 0.45122 0.76512 0.99237 0.0
C1082 C 0.42182 0.78044 0.19009 0.0
C1083 C 0.42595 0.7757 0.24453 0.0
C1084 C 0.41746 0.78374 0.28531 0.0
C1085 C 0.42135 0.78006 0.33728 0.0
C1086 C 0.43386 0.76823 0.34963 0.0
C1087 C 0.44236 0.76017 0.30842 0.0
C1088 C 0.43843 0.76385 0.25636 0.0
C1089 C 0.43552 0.81619 0.02223 0.0
C1090 C 0.46676 0.77106 0.10638 0.0
C1091 C 0.46334 0.77247 0.89884 0.0
C1092 C 0.4615 0.76607 0.84327 0.0
C1093 C 0.47247 0.76909 0.80849 0.0
C1094 C 0.47049 0.76606 0.75473 0.0
C1095 C 0.45746 0.75999 0.73464 0.0
C1096 C 0.4466 0.75611 0.76999 0.0
C1097 C 0.4486 0.75912 0.82374 0.0
C1098 C 0.44443 0.71946 0.04047 0.0
C1099 C 0.41692 0.75865 0.98886 0.0
O1100 O 0.42018 0.76073 0.1601 0.0
O1101 O 0.428 0.79909 0.1666 0.0
O1102 O 0.44512 0.80141 0.03569 0.0
O1103 O 0.42438 0.81144 0.04827 0.0
O1104 O 0.4687 0.76973 0.05525 0.0
O1105 O 0.45459 0.77251 0.12807 0.0
O1106 O 0.4541 0.78749 0.91874 0.0
O1107 O 0.46708 0.75456 0.93082 0.0
O1108 O 0.44098 0.74117 0.05549 0.0
O1109 O 0.45134 0.72088 0.99716 0.0
O1110 O 0.41616 0.75994 0.0402 0.0
O1111 O 0.42844 0.76244 0.96258 0.0
H1112 H 0.40784 0.79309 0.27695 0.0
H1113 H 0.41465 0.78692 0.36781 0.0
H1114 H 0.45199 0.7508 0.31636 0.0
H1115 H 0.44515 0.75751 0.22538 0.0
H1116 H 0.4825 0.77446 0.82278 0.0
H1117 H 0.47914 0.76878 0.72884 0.0
H1118 H 0.4364 0.75168 0.75604 0.0
H1119 H 0.43997 0.75681 0.84992 0.0
Pr1120 Pr 0.19781 0.25775 0.7534 0.0
Pr1121 Pr 0.17876 0.24349 0.85202 0.0
C1122 C 0.21082 0.25263 0.66086 0.0
C1123 C 0.20734 0.25139 0.60475 0.0
C1124 C 0.2163 0.26187 0.56797 0.0
C1125 C 0.21322 0.26102 0.51464 0.0
C1126 C 0.20106 0.2496 0.49677 0.0
C1127 C 0.19207 0.23913 0.53395 0.0
C1128 C 0.19516 0.24007 0.58735 0.0
C1129 C 0.19133 0.30182 0.80826 0.0
C1130 C 0.16359 0.26327 0.74708 0.0
C1131 C 0.16735 0.23692 0.94695 0.0
C1132 C 0.17126 0.23976 1.00237 0.0
C1133 C 0.16108 0.24325 0.04028 0.0
C1134 C 0.16456 0.24521 0.09315 0.0
C1135 C 0.17834 0.24368 0.10932 0.0
C1136 C 0.18855 0.24046 0.071 0.0
C1137 C 0.18505 0.23857 0.0181 0.0
C1138 C 0.18171 0.20665 0.77474 0.0
C1139 C 0.21278 0.25032 0.86784 0.0
O1140 O 0.20713 0.2336 0.68995 0.0
O1141 O 0.2091 0.27429 0.68394 0.0
O1142 O 0.18756 0.2798 0.81971 0.0
O1143 O 0.19858 0.30162 0.76568 0.0
O1144 O 0.16262 0.2621 0.79844 0.0
O1145 O 0.1752 0.2591 0.72157 0.0
O1146 O 0.16587 0.2576 0.91979 0.0
O1147 O 0.17345 0.21892 0.92093 0.0
O1148 O 0.19123 0.22057 0.79196 0.0
O1149 O 0.1703 0.21084 0.79955 0.0
O1150 O 0.21496 0.25421 0.81744 0.0
O1151 O 0.20053 0.24634 0.8878 0.0
H1152 H 0.22572 0.27082 0.58054 0.0
H1153 H 0.22029 0.26965 0.48748 0.0
H1154 H 0.18271 0.22991 0.52181 0.0
H1155 H 0.18804 0.23189 0.61499 0.0
H1156 H 0.15038 0.24418 0.02902 0.0
H1157 H 0.15641 0.2474 0.1215 0.0
H1158 H 0.19927 0.23955 0.08184 0.0
H1159 H 0.1931 0.23601 0.98955 0.0
Pr1160 Pr 0.54352 0.51545 0.75589 0.0
Pr1161 Pr 0.56105 0.52906 0.84855 0.0
C1162 C 0.53205 0.5112 0.66008 0.0
C1163 C 0.53542 0.5141 0.60415 0.0
C1164 C 0.52758 0.50124 0.56691 0.0
C1165 C 0.53054 0.50346 0.51365 0.0
C1166 C 0.54145 0.51863 0.49629 0.0
C1167 C 0.54928 0.5316 0.53389 0.0
C1168 C 0.54631 0.52931 0.58731 0.0
C1169 C 0.54628 0.47547 0.82579 0.0
C1170 C 0.57781 0.51116 0.74816 0.0
C1171 C 0.57233 0.53627 0.94393 0.0
C1172 C 0.56866 0.53419 0.99978 0.0
C1173 C 0.57909 0.5335 0.03735 0.0
C1174 C 0.57591 0.53206 0.09056 0.0
C1175 C 0.56217 0.53127 0.10754 0.0
C1176 C 0.55172 0.53175 0.06954 0.0
C1177 C 0.55493 0.53321 0.01624 0.0
C1178 C 0.55884 0.56755 0.77389 0.0
C1179 C 0.52727 0.52621 0.86417 0.0
O1180 O 0.53141 0.53163 0.68834 0.0
O1181 O 0.53778 0.49243 0.6846 0.0
O1182 O 0.55601 0.49 0.81261 0.0
O1183 O 0.53496 0.48126 0.80203 0.0
O1184 O 0.5786 0.5127 0.79921 0.0
O1185 O 0.56612 0.51451 0.72305 0.0
O1186 O 0.57354 0.51532 0.91771 0.0
O1187 O 0.56629 0.55402 0.91725 0.0
O1188 O 0.54897 0.55401 0.78944 0.0
O1189 O 0.57005 0.56211 0.79875 0.0
O1190 O 0.52551 0.52498 0.81318 0.0
O1191 O 0.53947 0.5255 0.88555 0.0
H1192 H 0.5191 0.48946 0.57904 0.0
H1193 H 0.52415 0.4935 0.48602 0.0
H1194 H 0.55784 0.54323 0.52214 0.0
H1195 H 0.55255 0.53933 0.61543 0.0
H1196 H 0.58975 0.53414 0.02552 0.0
H1197 H 0.58424 0.53129 0.11839 0.0
H1198 H 0.54103 0.53143 0.08098 0.0
H1199 H 0.54669 0.53376 0.98797 0.0
Pr1200 Pr 0.19749 0.51716 0.03283 0.0
Pr1201 Pr 0.17943 0.52846 0.93208 0.0
C1202 C 0.20948 0.52612 0.12588 0.0
C1203 C 0.20817 0.52195 0.18266 0.0
C1204 C 0.20521 0.49832 0.20425 0.0
C1205 C 0.2035 0.49566 0.2584 0.0
C1206 C 0.20469 0.51658 0.29186 0.0
C1207 C 0.20767 0.54013 0.26969 0.0
C1208 C 0.20942 0.54273 0.21591 0.0
C1209 C 0.19058 0.47106 0.9869 0.0
C1210 C 0.16304 0.51125 0.03536 0.0
C1211 C 0.16931 0.5358 0.83542 0.0
C1212 C 0.17272 0.5301 0.78066 0.0
C1213 C 0.16691 0.54478 0.74108 0.0
C1214 C 0.17075 0.54123 0.68906 0.0
C1215 C 0.18049 0.52286 0.67547 0.0
C1216 C 0.18609 0.50774 0.71518 0.0
C1217 C 0.18229 0.51143 0.76745 0.0
C1218 C 0.18316 0.56867 1.00202 0.0
C1219 C 0.21261 0.51689 0.9189 0.0
O1220 O 0.20022 0.54073 0.10501 0.0
O1221 O 0.21313 0.5074 0.0956 0.0
O1222 O 0.18712 0.49259 0.97073 0.0
O1223 O 0.1976 0.47292 0.0299 0.0
O1224 O 0.16239 0.51209 0.984 0.0
O1225 O 0.17453 0.51525 0.06178 0.0
O1226 O 0.1655 0.51707 0.86532 0.0
O1227 O 0.17745 0.55174 0.85887 0.0
O1228 O 0.19239 0.55332 0.9879 0.0
O1229 O 0.1717 0.56373 0.97842 0.0
O1230 O 0.21478 0.52176 0.96896 0.0
O1231 O 0.20024 0.51521 0.89903 0.0
H1232 H 0.20411 0.48201 0.17935 0.0
H1233 H 0.20131 0.47721 0.27404 0.0
H1234 H 0.20836 0.55679 0.29376 0.0
H1235 H 0.21157 0.56119 0.20009 0.0
H1236 H 0.15955 0.55934 0.75053 0.0
H1237 H 0.16612 0.55297 0.65939 0.0
H1238 H 0.19369 0.49358 0.70601 0.0
H1239 H 0.187 0.50007 0.79757 0.0
Pr1240 Pr 0.54282 0.25521 0.02344 0.0
Pr1241 Pr 0.56117 0.24299 0.93209 0.0
C1242 C 0.53101 0.25867 0.11912 0.0
C1243 C 0.53444 0.25588 0.17516 0.0
C1244 C 0.52386 0.25488 0.21222 0.0
C1245 C 0.52685 0.25309 0.26563 0.0
C1246 C 0.54052 0.2523 0.28337 0.0
C1247 C 0.5511 0.2531 0.24587 0.0
C1248 C 0.54809 0.25481 0.19239 0.0
C1249 C 0.546 0.29605 0.95612 0.0
C1250 C 0.57724 0.25925 0.03445 0.0
C1251 C 0.57254 0.23665 0.83643 0.0
C1252 C 0.5688 0.23893 0.78057 0.0
C1253 C 0.57687 0.2269 0.74281 0.0
C1254 C 0.57358 0.22866 0.68971 0.0
C1255 C 0.5621 0.24256 0.67286 0.0
C1256 C 0.55394 0.25444 0.71108 0.0
C1257 C 0.55727 0.25266 0.76432 0.0
C1258 C 0.55803 0.20319 1.00359 0.0
C1259 C 0.52763 0.24488 0.91274 0.0
O1260 O 0.53076 0.23827 0.09078 0.0
O1261 O 0.53646 0.2777 0.09457 0.0
O1262 O 0.55568 0.2815 0.96973 0.0
O1263 O 0.53447 0.28976 0.97794 0.0
O1264 O 0.57835 0.25878 0.98343 0.0
O1265 O 0.56536 0.25535 0.0581 0.0
O1266 O 0.57357 0.25743 0.8634 0.0
O1267 O 0.56671 0.21853 0.86261 0.0
O1268 O 0.54846 0.21726 0.98751 0.0
O1269 O 0.56954 0.20881 0.98095 0.0
O1270 O 0.52537 0.24436 0.96363 0.0
O1271 O 0.53999 0.24797 0.89383 0.0
H1272 H 0.51325 0.25576 0.19987 0.0
H1273 H 0.51842 0.25284 0.2931 0.0
H1274 H 0.56174 0.25219 0.2578 0.0
H1275 H 0.55642 0.25542 0.16451 0.0
H1276 H 0.58575 0.21603 0.75444 0.0
H1277 H 0.57998 0.21881 0.66189 0.0
H1278 H 0.5451 0.26548 0.69987 0.0
H1279 H 0.55085 0.26208 0.79276 0.0
H1280 H 0.21734 0.22083 0.95191 0.0
H1281 H 0.23229 0.28679 0.87288 0.0
H1282 H 0.23212 0.22979 0.02611 0.0
H1283 H 0.24663 0.29674 0.94806 0.0
H1284 H 0.28088 0.2929 0.06729 0.0
H1285 H 0.26581 0.2861 0.99456 0.0
H1286 H 0.23507 0.25598 0.09891 0.0
H1287 H 0.25091 0.2613 0.17254 0.0
C1288 C 0.22401 0.23707 0.95022 0.0
C1289 C 0.22392 0.25285 0.9063 0.0
C1290 C 0.23228 0.24253 0.99323 0.0
C1291 C 0.24049 0.26422 0.99385 0.0
C1292 C 0.24062 0.27966 0.94905 0.0
C1293 C 0.23251 0.27391 0.90558 0.0
C1294 C 0.27086 0.28499 0.07517 0.0
C1295 C 0.26719 0.27728 0.12586 0.0
C1296 C 0.2621 0.28129 0.03309 0.0
C1297 C 0.2492 0.27021 0.04024 0.0
C1298 C 0.24508 0.26401 0.09158 0.0
C1299 C 0.25403 0.26744 0.13405 0.0
H1300 H 0.0026 1.00962 0.86379 0.0
H1301 H 0.02963 0.05271 0.96274 0.0
H1302 H 0.98742 1.0025 0.93855 0.0
H1303 H 0.01539 0.04407 0.03709 0.0
H1304 H 0.98256 0.03795 0.16107 0.0
H1305 H -0.004 0.04967 0.08474 0.0
H1306 H 0.98659 0.97798 1.01359 0.0
H1307 H 0.97245 0.96733 0.08875 0.0
C1308 C 0.00516 0.01795 0.90109 0.0
C1309 C 0.01738 0.03151 0.9073 0.0
C1310 C -0.00336 0.01345 0.94434 0.0
C1311 C 0.00029 0.02217 0.9946 0.0
C1312 C 0.01206 0.03712 0.9995 0.0
C1313 C 0.02035 0.04196 0.9565 0.0
C1314 C 0.9838 0.02445 0.12978 0.0
C1315 C 0.97681 1.00151 0.13123 0.0
C1316 C 0.99138 0.0312 0.08557 0.0
C1317 C 0.99234 0.01492 0.04219 0.0
C1318 C 0.98585 0.99137 0.04524 0.0
C1319 C 0.97804 0.98492 0.08892 0.0
H1320 H 0.21777 0.0571 0.3292 0.0
H1321 H 0.23093 0.9884 0.40229 0.0
H1322 H 0.23244 0.04846 0.25436 0.0
H1323 H 0.24491 0.97854 0.32625 0.0
H1324 H 0.27859 0.97918 0.20572 0.0
H1325 H 0.26404 0.98679 0.27946 0.0
H1326 H 0.23479 0.02434 0.17935 0.0
H1327 H 0.2503 0.01848 0.10498 0.0
C1328 C 0.22411 0.04038 0.32955 0.0
C1329 C 0.2236 0.02377 0.37201 0.0
C1330 C 0.23225 0.03505 0.28607 0.0
C1331 C 0.23981 0.01259 0.28338 0.0
C1332 C 0.23949 0.99626 0.32682 0.0
C1333 C 0.23158 1.00194 0.37085 0.0
C1334 C 0.26901 0.98897 0.19896 0.0
C1335 C 0.26574 0.99862 0.14933 0.0
C1336 C 0.26052 0.99313 0.24167 0.0
C1337 C 0.24821 1.00649 0.23615 0.0
C1338 C 0.24438 0.01459 0.18562 0.0
C1339 C 0.25312 1.01082 0.14261 0.0
H1340 H 0.03179 0.28327 0.32127 0.0
H1341 H 8e-05 0.25126 0.41807 0.0
H1342 H 0.0164 0.28451 0.24795 0.0
H1343 H 0.98403 0.25409 0.34442 0.0
H1344 H 0.96486 0.23171 0.18942 0.0
H1345 H 0.9799 0.23331 0.2649 0.0
H1346 H -0.00223 0.30203 0.20606 0.0
H1347 H 0.983 0.29956 0.12907 0.0
C1348 C 0.02139 0.27678 0.32711 0.0
C1349 C 0.01726 0.26655 0.37526 0.0
C1350 C 0.01245 0.27785 0.2849 0.0
C1351 C -0.00105 0.26914 0.28959 0.0
C1352 C 0.99448 0.2604 0.33889 0.0
C1353 C 0.00357 0.25908 0.38142 0.0
C1354 C 0.97225 0.24685 0.19216 0.0
C1355 C 0.97295 0.26532 0.15308 0.0
C1356 C 0.98069 0.24805 0.23601 0.0
C1357 C 0.98995 0.268 0.24243 0.0
C1358 C 0.99088 0.2862 0.20243 0.0
C1359 C 0.98252 0.28476 0.158 0.0
H1360 H 0.70803 0.73972 0.97311 0.0
H1361 H 0.73929 0.75793 0.85955 0.0
H1362 H 0.72437 0.74455 0.04297 0.0
H1363 H 0.75598 0.76236 0.93106 0.0
H1364 H 0.78332 0.73947 0.07104 0.0
H1365 H 0.76718 0.73535 0.99967 0.0
H1366 H 0.73755 0.77895 0.08616 0.0
H1367 H 0.75407 0.78376 0.15798 0.0
C1368 C 0.71844 0.74481 0.9628 0.0
C1369 C 0.72228 0.74877 0.91032 0.0
C1370 C 0.72779 0.74768 1.00328 0.0
C1371 C 0.74138 0.75426 0.99278 0.0
C1372 C 0.7455 0.75734 0.9403 0.0
C1373 C 0.736 0.75469 0.89934 0.0
C1374 C 0.77341 0.74846 0.07488 0.0
C1375 C 0.77007 0.76238 0.11992 0.0
C1376 C 0.76418 0.74609 0.03373 0.0
C1377 C 0.7512 0.75718 0.03675 0.0
C1378 C 0.74755 0.77025 0.08269 0.0
C1379 C 0.75692 0.77287 0.12396 0.0
H1380 H 0.78073 0.03996 0.69262 0.0
H1381 H 0.75221 0.99152 0.61237 0.0
H1382 H 0.76595 0.04126 0.76774 0.0
H1383 H 0.73652 0.99449 0.68705 0.0
H1384 H 0.71949 0.97875 0.84839 0.0
H1385 H 0.73422 0.97898 0.77167 0.0
H1386 H 0.74659 0.05497 0.80861 0.0
H1387 H 0.73243 0.0538 0.88707 0.0
C1388 C 0.77108 0.02993 0.69067 0.0
C1389 C 0.76779 0.01513 0.64693 0.0
C1390 C 0.76247 0.03095 0.73387 0.0
C1391 C 0.75003 0.01771 0.73437 0.0
C1392 C 0.7462 1.00437 0.68886 0.0
C1393 C 0.75504 1.003 0.64555 0.0
C1394 C 0.72577 0.99514 0.84082 0.0
C1395 C 0.72517 0.016 0.87425 0.0
C1396 C 0.73396 0.99554 0.79613 0.0
C1397 C 0.74153 0.01711 0.78299 0.0
C1398 C 0.74113 0.03782 0.81748 0.0
C1399 C 0.73312 0.03717 0.86285 0.0
H1400 H 0.99097 0.78137 0.61899 0.0
H1401 H 0.96389 0.72839 0.69379 0.0
H1402 H 0.00591 0.78046 0.69607 0.0
H1403 H 0.97784 0.729 0.77126 0.0
H1404 H 0.01036 0.72213 0.89669 0.0
H1405 H -0.00278 0.71865 0.81603 0.0
H1406 H 0.00616 0.79642 0.78091 0.0
H1407 H 0.01991 0.79908 0.86 0.0
C1408 C 0.98835 0.76926 0.65141 0.0
C1409 C 0.97618 0.75527 0.65064 0.0
C1410 C -0.00329 0.76908 0.69612 0.0
C1411 C 0.99295 0.75512 0.74087 0.0
C1412 C 0.98124 0.7399 0.73807 0.0
C1413 C 0.97311 0.73974 0.69348 0.0
C1414 C 0.00908 0.73863 0.87245 0.0
C1415 C 0.01582 0.76102 0.88504 0.0
C1416 C 0.00167 0.73665 0.82578 0.0
C1417 C 0.0007 0.75719 0.79109 0.0
C1418 C 0.00693 0.77997 0.80551 0.0
C1419 C 0.01452 0.78174 0.85156 0.0
H1420 H 0.24074 0.7485 0.36219 0.0
H1421 H 0.20899 0.7772 0.46375 0.0
H1422 H 0.25719 0.75194 0.43445 0.0
H1423 H 0.22479 0.7789 0.53519 0.0
H1424 H 0.25859 0.79841 0.64899 0.0
H1425 H 0.24311 0.79879 0.574 0.0
H1426 H 0.26281 0.732 0.51373 0.0
H1427 H 0.27856 0.73255 0.58721 0.0
C1428 C 0.23728 0.75559 0.39955 0.0
C1429 C 0.2235 0.76216 0.4071 0.0
C1430 C 0.24663 0.75729 0.44125 0.0
C1431 C 0.24232 0.76548 0.49118 0.0
C1432 C 0.22864 0.77284 0.49762 0.0
C1433 C 0.21946 0.77148 0.4563 0.0
C1434 C 0.25934 0.78356 0.62023 0.0
C1435 C 0.26963 0.76532 0.62411 0.0
C1436 C 0.25056 0.78379 0.57694 0.0
C1437 C 0.25175 0.76552 0.53713 0.0
C1438 C 0.26176 0.74675 0.54253 0.0
C1439 C 0.27063 0.74678 0.58523 0.0
H1440 H 0.96134 0.47274 0.56444 0.0
H1441 H 0.99036 0.51057 0.66442 0.0
H1442 H 0.97524 0.48185 0.4893 0.0
H1443 H 0.00515 0.51812 0.58859 0.0
H1444 H 0.02007 0.55526 0.44048 0.0
H1445 H 0.00608 0.54434 0.51582 0.0
H1446 H 0.99419 0.47531 0.43904 0.0
H1447 H 0.0076 0.4873 0.36271 0.0
C1448 C 0.97097 0.48243 0.57061 0.0
C1449 C 0.97464 0.49128 0.62049 0.0
C1450 C 0.97905 0.48753 0.52715 0.0
C1451 C 0.9913 0.50112 0.53216 0.0
C1452 C 0.99558 0.50824 0.58282 0.0
C1453 C 0.98727 0.50348 0.6266 0.0
C1454 C 0.014 0.53824 0.43917 0.0
C1455 C 0.01456 0.52245 0.39533 0.0
C1456 C 0.00626 0.5316 0.4829 0.0
C1457 C -0.00087 0.50866 0.48442 0.0
C1458 C -0.00065 0.49328 0.43948 0.0
C1459 C 0.00691 0.50022 0.39528 0.0
H1460 H 0.28576 0.51553 0.72621 0.0
H1461 H 0.25287 0.49735 0.61956 0.0
H1462 H 0.26988 0.51794 0.79726 0.0
H1463 H 0.23647 0.50141 0.69188 0.0
H1464 H 0.21335 0.48278 0.84144 0.0
H1465 H 0.2294 0.48039 0.7691 0.0
H1466 H 0.25264 0.54155 0.83624 0.0
H1467 H 0.23671 0.54313 0.90995 0.0
C1468 C 0.27506 0.51212 0.71757 0.0
C1469 C 0.27067 0.5057 0.66681 0.0
C1470 C 0.26586 0.51394 0.75876 0.0
C1471 C 0.25184 0.50991 0.75076 0.0
C1472 C 0.24726 0.50424 0.69971 0.0
C1473 C 0.25661 0.50212 0.65808 0.0
C1474 C 0.22207 0.4954 0.84117 0.0
C1475 C 0.2239 0.51299 0.88153 0.0
C1476 C 0.23114 0.4943 0.79919 0.0
C1477 C 0.24224 0.51099 0.7961 0.0
C1478 C 0.24429 0.52818 0.83742 0.0
C1479 C 0.23525 0.52905 0.87994 0.0
H1480 H 0.7812 0.29585 0.56345 0.0
H1481 H 0.75214 0.26001 0.66639 0.0
H1482 H 0.76645 0.28827 0.48997 0.0
H1483 H 0.73654 0.25404 0.59233 0.0
H1484 H 0.7193 0.21933 0.44497 0.0
H1485 H 0.73412 0.22858 0.51893 0.0
H1486 H 0.74724 0.29694 0.44256 0.0
H1487 H 0.73296 0.28658 0.36743 0.0
C1488 C 0.77142 0.28683 0.57065 0.0
C1489 C 0.76796 0.27813 0.62084 0.0
C1490 C 0.76284 0.28267 0.52816 0.0
C1491 C 0.75029 0.27018 0.53447 0.0
C1492 C 0.74631 0.2631 0.5855 0.0
C1493 C 0.7551 0.26693 0.62829 0.0
C1494 C 0.72576 0.23588 0.44347 0.0
C1495 C 0.72529 0.25192 0.40003 0.0
C1496 C 0.73401 0.24154 0.48643 0.0
C1497 C 0.74179 0.26376 0.48764 0.0
C1498 C 0.74159 0.27945 0.44318 0.0
C1499 C 0.73351 0.27347 0.39969 0.0
H1500 H 0.74082 0.5201 0.4178 0.0
H1501 H 0.708 0.50541 0.30856 0.0
H1502 H 0.75739 0.51598 0.34604 0.0
H1503 H 0.72406 0.50299 0.23819 0.0
H1504 H 0.75672 0.47915 0.1231 0.0
H1505 H 0.7409 0.47954 0.19727 0.0
H1506 H 0.76521 0.53745 0.27103 0.0
H1507 H 0.78112 0.53619 0.19829 0.0
C1508 C 0.73713 0.51609 0.37884 0.0
C1509 C 0.72303 0.51352 0.36927 0.0
C1510 C 0.74658 0.51392 0.33751 0.0
C1511 C 0.74209 0.50923 0.28589 0.0
C1512 C 0.72803 0.50618 0.27708 0.0
C1513 C 0.71872 0.50803 0.31793 0.0
C1514 C 0.75848 0.4922 0.15481 0.0
C1515 C 0.77006 0.5077 0.15476 0.0
C1516 C 0.74948 0.49241 0.19759 0.0
C1517 C 0.7518 0.50842 0.24077 0.0
C1518 C 0.76322 0.52442 0.2395 0.0
C1519 C 0.77224 0.52397 0.19728 0.0
H1520 H 0.46311 0.03937 0.58597 0.0
H1521 H 0.48463 0.97612 0.65185 0.0
H1522 H 0.47869 0.03979 0.51201 0.0
H1523 H 0.50011 0.97586 0.57665 0.0
H1524 H 0.53371 1.00035 0.46528 0.0
H1525 H 0.51793 0.99786 0.53695 0.0
H1526 H 0.48459 0.01791 0.43391 0.0
H1527 H 0.50091 0.02192 0.36118 0.0
C1528 C 0.47134 0.0257 0.5848 0.0
C1529 C 0.47279 1.00787 0.6249 0.0
C1530 C 0.48012 0.02567 0.54189 0.0
C1531 C 0.49056 1.00765 0.53765 0.0
C1532 C 0.49226 0.9902 0.57869 0.0
C1533 C 0.4835 0.99041 0.62209 0.0
C1534 C 0.52303 1.00443 0.45746 0.0
C1535 C 0.51864 0.01201 0.40747 0.0
C1536 C 0.51389 1.00257 0.49885 0.0
C1537 C 0.49996 1.00781 0.4917 0.0
C1538 C 0.49534 0.01421 0.44108 0.0
C1539 C 0.50462 0.01627 0.39922 0.0
H1540 H 0.46667 0.30178 0.70224 0.0
H1541 H 0.48141 0.2364 0.62056 0.0
H1542 H 0.48168 0.29235 0.77554 0.0
H1543 H 0.49587 0.2258 0.69495 0.0
H1544 H 0.53012 0.22797 0.81445 0.0
H1545 H 0.51502 0.23534 0.74197 0.0
H1546 H 0.48458 0.26586 0.84729 0.0
H1547 H 0.5005 0.26009 0.92049 0.0
C1548 C 0.4734 0.28564 0.6997 0.0
C1549 C 0.4732 0.27016 0.65534 0.0
C1550 C 0.48176 0.27985 0.74224 0.0
C1551 C 0.4899 0.25805 0.74198 0.0
C1552 C 0.48994 0.24295 0.69664 0.0
C1553 C 0.48176 0.24908 0.6536 0.0
C1554 C 0.52014 0.23605 0.82249 0.0
C1555 C 0.51659 0.24382 0.87324 0.0
C1556 C 0.51137 0.2401 0.7806 0.0
C1557 C 0.49857 0.25154 0.78813 0.0
C1558 C 0.49453 0.25762 0.83966 0.0
C1559 C 0.50351 0.2539 0.88189 0.0
H1560 H 0.48343 0.73093 0.11998 0.0
H1561 H 0.47408 0.80443 0.1804 0.0
H1562 H 0.49642 0.7214 0.19884 0.0
H1563 H 0.48765 0.79575 0.25822 0.0
H1564 H 0.50193 0.7679 0.41428 0.0
H1565 H 0.48731 0.77302 0.337 0.0
H1566 H 0.51593 0.72866 0.24671 0.0
H1567 H 0.52972 0.72237 0.32356 0.0
C1568 C 0.48477 0.74548 0.1491 0.0
C1569 C 0.47815 0.76866 0.14354 0.0
C1570 C 0.49206 0.73998 0.19478 0.0
C1571 C 0.493 0.75768 0.23566 0.0
C1572 C 0.4869 0.78137 0.22851 0.0
C1573 C 0.47944 0.78665 0.18327 0.0
C1574 C 0.50472 0.75852 0.37832 0.0
C1575 C 0.51698 0.74484 0.37496 0.0
C1576 C 0.49654 0.76186 0.33365 0.0
C1577 C 0.50056 0.75172 0.28492 0.0
C1578 C 0.51235 0.73666 0.28308 0.0
C1579 C 0.52033 0.73311 0.32743 0.0
H1580 H 0.50949 0.48764 0.87214 0.0
H1581 H 0.5206 0.55836 0.9417 0.0
H1582 H 0.49582 0.47733 0.94834 0.0
H1583 H 0.50599 0.54938 0.01656 0.0
H1584 H 0.48885 0.51993 0.16723 0.0
H1585 H 0.50412 0.52673 0.09263 0.0
H1586 H 0.47677 0.48294 0.99554 0.0
H1587 H 0.4627 0.47422 0.07003 0.0
C1588 C 0.50838 0.50154 0.90275 0.0
C1589 C 0.51573 0.52406 0.90056 0.0
C1590 C 0.50061 0.49562 0.94692 0.0
C1591 C 0.49975 0.51242 0.98948 0.0
C1592 C 0.50661 0.53561 0.98561 0.0
C1593 C 0.51469 0.54114 0.94205 0.0
C1594 C 0.48646 0.5111 0.13027 0.0
C1595 C 0.47448 0.49683 0.12452 0.0
C1596 C 0.49502 0.51542 0.08704 0.0
C1597 C 0.49161 0.5059 0.03714 0.0
C1598 C 0.47999 0.49049 0.03275 0.0
C1599 C 0.47174 0.48568 0.07583 0.0
H1600 H 0.40954 0.23781 0.40504 0.0
H1601 H 0.38574 0.26785 0.53277 0.0
H1602 H 0.38858 0.23134 0.35511 0.0
H1603 H 0.36493 0.26288 0.48214 0.0
H1604 H 0.32769 0.2419 0.39209 0.0
H1605 H 0.34841 0.23703 0.44441 0.0
H1606 H 0.37305 0.25591 0.30959 0.0
H1607 H 0.35253 0.25932 0.25729 0.0
C1608 C 0.39981 0.24305 0.42234 0.0
C1609 C 0.39925 0.25346 0.47256 0.0
C1610 C 0.3878 0.23947 0.39371 0.0
C1611 C 0.37501 0.2468 0.41427 0.0
C1612 C 0.3745 0.25657 0.46522 0.0
C1613 C 0.38647 0.25964 0.49419 0.0
C1614 C 0.33757 0.24461 0.37366 0.0
C1615 C 0.33848 0.25107 0.32071 0.0
C1616 C 0.34945 0.24198 0.40364 0.0
C1617 C 0.36245 0.24626 0.38144 0.0
C1618 C 0.3633 0.25197 0.32801 0.0
C1619 C 0.35147 0.25413 0.29795 0.0
H1620 H 0.83097 0.03044 0.38897 0.0
H1621 H 0.85426 1.00855 0.52493 0.0
H1622 H 0.85214 0.03364 0.33883 0.0
H1623 H 0.87525 1.01045 0.47458 0.0
H1624 H 0.91275 0.02885 0.38298 0.0
H1625 H 0.89162 0.03501 0.43208 0.0
H1626 H 0.86828 1.00666 0.30116 0.0
H1627 H 0.88929 1.00182 0.25151 0.0
C1628 C 0.84061 0.02633 0.40811 0.0
C1629 C 0.84095 0.01917 0.46078 0.0
C1630 C 0.85274 0.02802 0.37935 0.0
C1631 C 0.86544 0.02213 0.40246 0.0
C1632 C 0.86574 0.01558 0.45558 0.0
C1633 C 0.85366 0.01431 0.48447 0.0
C1634 C 0.90307 0.02419 0.36464 0.0
C1635 C 0.90266 0.01476 0.31354 0.0
C1636 C 0.89095 0.0276 0.39282 0.0
C1637 C 0.8782 0.02117 0.37081 0.0
C1638 C 0.87784 0.01226 0.31918 0.0
C1639 C 0.88992 1.00928 0.29076 0.0
H1640 H 0.40963 0.03184 0.87769 0.0
H1641 H 0.38609 1.00299 0.7482 0.0
H1642 H 0.38855 0.03823 0.92703 0.0
H1643 H 0.36515 1.00787 0.79818 0.0
H1644 H 0.32774 0.03085 0.88548 0.0
H1645 H 0.3488 0.03434 0.83464 0.0
H1646 H 0.37242 0.01454 0.97148 0.0
H1647 H 0.35157 0.01256 0.02237 0.0
C1648 C 0.39994 0.02679 0.85993 0.0
C1649 C 0.39948 0.01686 0.80928 0.0
C1650 C 0.38785 0.03032 0.88821 0.0
C1651 C 0.37509 0.02344 0.86684 0.0
C1652 C 0.3747 0.01389 0.8157 0.0
C1653 C 0.38674 1.01087 0.7871 0.0
C1654 C 0.33748 0.02763 0.90467 0.0
C1655 C 0.33801 0.02139 0.95779 0.0
C1656 C 0.34955 0.02945 0.87553 0.0
C1657 C 0.36237 0.02452 0.89873 0.0
C1658 C 0.36283 0.01895 0.9523 0.0
C1659 C 0.35082 0.01763 0.98154 0.0
H1660 H 0.83074 0.26506 0.88927 0.0
H1661 H 0.85103 0.23734 0.75075 0.0
H1662 H 0.85181 0.25956 0.93862 0.0
H1663 H 0.87201 0.23115 0.80053 0.0
H1664 H 0.91023 0.26111 0.88696 0.0
H1665 H 0.88903 0.25827 0.83763 0.0
H1666 H 0.86807 0.23039 0.97444 0.0
H1667 H 0.88922 0.23392 0.02434 0.0
C1668 C 0.83962 0.25735 0.86957 0.0
C1669 C 0.83926 0.25192 0.81596 0.0
C1670 C 0.8517 0.25405 0.89795 0.0
C1671 C 0.86363 0.24508 0.87341 0.0
C1672 C 0.86307 0.23855 0.82034 0.0
C1673 C 0.85103 0.24201 0.79188 0.0
C1674 C 0.90116 0.25406 0.90641 0.0
C1675 C 0.90138 0.24802 0.95974 0.0
C1676 C 0.889 0.25229 0.87801 0.0
C1677 C 0.87682 0.24427 0.90221 0.0
C1678 C 0.87721 0.23709 0.95492 0.0
C1679 C 0.88935 0.239 0.98343 0.0
H1680 H 0.60028 0.78511 0.50785 0.0
H1681 H 0.57965 0.75542 0.6438 0.0
H1682 H 0.62136 0.78913 0.5579 0.0
H1683 H 0.60083 0.7588 0.69338 0.0
H1684 H 0.63852 0.78198 0.7809 0.0
H1685 H 0.61739 0.78681 0.73144 0.0
H1686 H 0.63807 0.76045 0.59268 0.0
H1687 H 0.65929 0.75626 0.64173 0.0
C1688 C 0.60022 0.77955 0.54848 0.0
C1689 C 0.58832 0.76972 0.57172 0.0
C1690 C 0.61233 0.78175 0.57708 0.0
C1691 C 0.61282 0.77407 0.62945 0.0
C1692 C 0.60077 0.76516 0.65325 0.0
C1693 C 0.58863 0.76309 0.62474 0.0
C1694 C 0.6386 0.77746 0.73969 0.0
C1695 C 0.65056 0.76852 0.71533 0.0
C1696 C 0.62646 0.78013 0.71143 0.0
C1697 C 0.62601 0.77381 0.65826 0.0
C1698 C 0.6381 0.76577 0.63346 0.0
C1699 C 0.65027 0.76324 0.66166 0.0
H1700 H 0.10318 0.02434 0.77156 0.0
H1701 H 0.07872 0.99673 0.6432 0.0
H1702 H 0.1237 0.02003 0.71942 0.0
H1703 H 0.09949 0.9912 0.59133 0.0
H1704 H 0.13661 0.01798 0.4956 0.0
H1705 H 0.11578 0.01558 0.54696 0.0
H1706 H 0.13949 0.99262 0.68135 0.0
H1707 H 0.16047 0.99635 0.63031 0.0
C1708 C 0.10221 0.01689 0.7324 0.0
C1709 C 0.0893 1.01095 0.71145 0.0
C1710 C 0.11404 0.0142 0.70254 0.0
C1711 C 0.11332 1.00514 0.65112 0.0
C1712 C 0.10042 0.99859 0.63052 0.0
C1713 C 0.08851 1.00166 0.66027 0.0
C1714 C 0.13737 0.01215 0.53598 0.0
C1715 C 0.15018 1.00759 0.55911 0.0
C1716 C 0.12538 1.0106 0.56543 0.0
C1717 C 0.12591 1.00408 0.61851 0.0
C1718 C 0.13871 0.99829 0.6409 0.0
C1719 C 0.15074 1.00027 0.61163 0.0
H1720 H 0.63821 0.01423 0.99465 0.0
H1721 H 0.66193 0.99626 0.13206 0.0
H1722 H 0.61729 0.01279 0.04586 0.0
H1723 H 0.6409 0.99364 0.18302 0.0
H1724 H 0.60404 0.02557 0.26929 0.0
H1725 H 0.62471 0.0219 0.21747 0.0
H1726 H 0.60134 0.98814 0.09241 0.0
H1727 H 0.58044 0.99288 0.14375 0.0
C1728 C 0.63893 1.00945 0.03563 0.0
C1729 C 0.65172 1.00558 0.05948 0.0
C1730 C 0.6269 1.00849 0.06499 0.0
C1731 C 0.62739 1.00328 0.11871 0.0
C1732 C 0.64017 0.99827 0.14199 0.0
C1733 C 0.65222 0.99962 0.11276 0.0
C1734 C 0.6033 0.01725 0.23083 0.0
C1735 C 0.5906 1.00955 0.21058 0.0
C1736 C 0.6152 0.01494 0.2012 0.0
C1737 C 0.61474 1.00457 0.15081 0.0
C1738 C 0.60204 0.99652 0.1308 0.0
C1739 C 0.59007 0.99915 0.16026 0.0
H1740 H 0.10251 0.76162 1.00486 0.0
H1741 H 0.07944 0.78478 0.1405 0.0
H1742 H 0.12358 0.76363 0.05476 0.0
H1743 H 0.10068 0.78827 0.19008 0.0
H1744 H 0.13751 0.75753 0.27879 0.0
H1745 H 0.11663 0.76171 0.22855 0.0
H1746 H 0.14021 0.78782 0.09621 0.0
H1747 H 0.16128 0.78217 0.14611 0.0
C1748 C 0.10199 0.76769 0.04516 0.0
C1749 C 0.08934 0.77286 0.06897 0.0
C1750 C 0.11411 0.76903 0.07377 0.0
C1751 C 0.11389 0.77603 0.12665 0.0
C1752 C 0.10123 0.78226 0.14979 0.0
C1753 C 0.08906 0.78041 0.12138 0.0
C1754 C 0.13824 0.76435 0.23908 0.0
C1755 C 0.15102 0.76942 0.21625 0.0
C1756 C 0.12622 0.76696 0.21029 0.0
C1757 C 0.12666 0.77516 0.15819 0.0
C1758 C 0.13947 0.78101 0.1359 0.0
C1759 C 0.15155 0.77792 0.1645 0.0
H1760 H 0.35638 0.76596 0.74717 0.0
H1761 H 0.33244 0.74358 0.88115 0.0
H1762 H 0.37722 0.76235 0.79807 0.0
H1763 H 0.35343 0.73859 0.93173 0.0
H1764 H 0.4142 0.74082 0.88947 0.0
H1765 H 0.3931 0.73638 0.83946 0.0
H1766 H 0.36989 0.76393 0.97154 0.0
H1767 H 0.39084 0.76699 0.02199 0.0
C1768 C 0.35561 0.75975 0.78731 0.0
C1769 C 0.34278 0.75523 0.81033 0.0
C1770 C 0.36759 0.75748 0.81649 0.0
C1771 C 0.36706 0.75021 0.86918 0.0
C1772 C 0.35422 0.74473 0.89158 0.0
C1773 C 0.34219 0.74746 0.86258 0.0
C1774 C 0.40455 0.74563 0.90785 0.0
C1775 C 0.40416 0.75433 0.9595 0.0
C1776 C 0.39245 0.74323 0.87916 0.0
C1777 C 0.37975 0.74998 0.90123 0.0
C1778 C 0.3794 0.75811 0.95341 0.0
C1779 C 0.39145 0.76005 0.98233 0.0
H1780 H 0.8926 0.53406 0.75436 0.0
H1781 H 0.91262 0.50377 0.89102 0.0
H1782 H 0.87157 0.53958 0.80425 0.0
H1783 H 0.89152 0.50873 0.94045 0.0
H1784 H 0.85406 0.53365 0.02706 0.0
H1785 H 0.87527 0.53779 0.97775 0.0
H1786 H 0.85452 0.51141 0.83919 0.0
H1787 H 0.83325 0.50789 0.88807 0.0
C1788 C 0.89255 0.52874 0.79514 0.0
C1789 C 0.90425 0.51828 0.81864 0.0
C1790 C 0.88048 0.53181 0.82363 0.0
C1791 C 0.87983 0.52438 0.87613 0.0
C1792 C 0.89171 0.51493 0.90022 0.0
C1793 C 0.90381 0.51198 0.8718 0.0
C1794 C 0.85399 0.52898 0.98593 0.0
C1795 C 0.842 0.52021 0.96158 0.0
C1796 C 0.86616 0.53127 0.95776 0.0
C1797 C 0.86662 0.52473 0.9047 0.0
C1798 C 0.85449 0.51689 0.87989 0.0
C1799 C 0.8423 0.51473 0.908 0.0
H1800 H 0.35577 0.50846 0.53024 0.0
H1801 H 0.33054 0.52904 0.39848 0.0
H1802 H 0.37613 0.51254 0.47706 0.0
H1803 H 0.35109 0.53462 0.34548 0.0
H1804 H 0.38817 0.50618 0.25236 0.0
H1805 H 0.3675 0.50983 0.30436 0.0
H1806 H 0.39148 0.53831 0.43351 0.0
H1807 H 0.41231 0.53313 0.38204 0.0
C1808 C 0.3546 0.51443 0.49009 0.0
C1809 C 0.34156 0.51829 0.4684 0.0
C1810 C 0.36632 0.51699 0.45957 0.0
C1811 C 0.36532 0.52392 0.4068 0.0
C1812 C 0.35225 0.52878 0.38568 0.0
C1813 C 0.34048 0.52573 0.41606 0.0
C1814 C 0.389 0.51348 0.2917 0.0
C1815 C 0.40184 0.51915 0.31342 0.0
C1816 C 0.37711 0.51576 0.32149 0.0
C1817 C 0.37777 0.52423 0.3734 0.0
C1818 C 0.3906 0.53114 0.39413 0.0
C1819 C 0.40254 0.52833 0.36462 0.0
H1820 H 0.83203 0.74326 0.37728 0.0
H1821 H 0.85653 0.76938 0.24779 0.0
H1822 H 0.85278 0.73685 0.42849 0.0
H1823 H 0.87717 0.76428 0.29954 0.0
H1824 H 0.91369 0.73917 0.39041 0.0
H1825 H 0.8928 0.73682 0.33853 0.0
H1826 H 0.86916 0.76072 0.47251 0.0
H1827 H 0.88988 0.76176 0.52462 0.0
C1828 C 0.84186 0.7477 0.35986 0.0
C1829 C 0.84267 0.75691 0.30866 0.0
C1830 C 0.85376 0.74415 0.38925 0.0
C1831 C 0.86669 0.75018 0.36837 0.0
C1832 C 0.86745 0.75897 0.31671 0.0
C1833 C 0.85559 0.76209 0.28708 0.0
C1834 C 0.90399 0.74361 0.4088 0.0
C1835 C 0.90342 0.75072 0.46149 0.0
C1836 C 0.89201 0.74243 0.37903 0.0
C1837 C 0.87926 0.74878 0.40111 0.0
C1838 C 0.87872 0.75527 0.45426 0.0
C1839 C 0.89064 0.75602 0.48418 0.0
H1840 H 0.661 0.2779 0.14543 0.0
H1841 H 0.63785 0.25178 0.27848 0.0
H1842 H 0.63986 0.28166 0.09547 0.0
H1843 H 0.61686 0.25421 0.22805 0.0
H1844 H 0.5793 0.27457 0.13606 0.0
H1845 H 0.60018 0.27911 0.18756 0.0
H1846 H 0.6242 0.25499 0.05471 0.0
H1847 H 0.60349 0.25172 1.00307 0.0
C1848 C 0.65139 0.27296 0.16395 0.0
C1849 C 0.65108 0.26445 0.21572 0.0
C1850 C 0.63927 0.27496 0.13528 0.0
C1851 C 0.62662 0.268 0.15748 0.0
C1852 C 0.62633 0.26012 0.20981 0.0
C1853 C 0.63841 0.25856 0.2387 0.0
C1854 C 0.58907 0.27042 0.11797 0.0
C1855 C 0.58977 0.26276 0.06566 0.0
C1856 C 0.60105 0.27292 0.14745 0.0
C1857 C 0.61393 0.2674 0.1254 0.0
C1858 C 0.61455 0.25996 0.07282 0.0
C1859 C 0.60263 0.25788 0.04323 0.0
H1860 H 0.07825 0.49702 0.1399 0.0
H1861 H 0.10175 0.52119 0.27366 0.0
H1862 H 0.09941 0.49144 0.09054 0.0
H1863 H 0.12275 0.51696 0.22394 0.0
H1864 H 0.16003 0.49444 0.13538 0.0
H1865 H 0.13876 0.4904 0.1846 0.0
H1866 H 0.11597 0.51654 0.05036 0.0
H1867 H 0.13707 0.51922 1.00079 0.0
C1868 C 0.08794 0.50116 0.15867 0.0
C1869 C 0.08836 0.50961 0.2105 0.0
C1870 C 0.10006 0.49809 0.13038 0.0
C1871 C 0.11282 0.50388 0.15308 0.0
C1872 C 0.11318 0.51184 0.20537 0.0
C1873 C 0.10111 0.51446 0.23385 0.0
C1874 C 0.15043 0.49903 0.11639 0.0
C1875 C 0.1502 0.50724 0.06441 0.0
C1876 C 0.13824 0.49685 0.1446 0.0
C1877 C 0.12561 0.50333 0.12165 0.0
C1878 C 0.12542 0.51094 0.06915 0.0
C1879 C 0.13757 0.51267 0.04075 0.0
H1880 H 0.63745 0.51377 0.50246 0.0
H1881 H 0.66186 0.49369 0.63679 0.0
H1882 H 0.61685 0.51165 0.55484 0.0
H1883 H 0.64105 0.49014 0.68904 0.0
H1884 H 0.60398 0.52035 0.77913 0.0
H1885 H 0.62478 0.51635 0.72776 0.0
H1886 H 0.60105 0.48686 0.59893 0.0
H1887 H 0.58014 0.49232 0.64965 0.0
C1888 C 0.63838 0.50833 0.54302 0.0
C1889 C 0.65128 0.50401 0.56561 0.0
C1890 C 0.62652 0.50694 0.5731 0.0
C1891 C 0.62723 0.50074 0.62633 0.0
C1892 C 0.64013 0.49546 0.64843 0.0
C1893 C 0.65205 0.49731 0.61847 0.0
C1894 C 0.60324 0.51285 0.73993 0.0
C1895 C 0.59046 0.50683 0.71816 0.0
C1896 C 0.61519 0.51035 0.71054 0.0
C1897 C 0.61464 0.50133 0.65901 0.0
C1898 C 0.60185 0.49439 0.63804 0.0
C1899 C 0.58986 0.49738 0.66713 0.0
H1900 H 0.16146 0.28065 0.64721 0.0
H1901 H 0.1373 0.25554 0.77844 0.0
H1902 H 0.14062 0.28563 0.59581 0.0
H1903 H 0.1166 0.25912 0.7266 0.0
H1904 H 0.07979 0.28199 0.63523 0.0
H1905 H 0.1007 0.28536 0.6866 0.0
H1906 H 0.12439 0.26097 0.55309 0.0
H1907 H 0.10359 0.25905 0.50129 0.0
C1908 C 0.15169 0.27618 0.665 0.0
C1909 C 0.15099 0.26771 0.71677 0.0
C1910 C 0.13974 0.27887 0.63548 0.0
C1911 C 0.12688 0.27265 0.65683 0.0
C1912 C 0.12624 0.26458 0.70902 0.0
C1913 C 0.13814 0.26235 0.73876 0.0
C1914 C 0.0895 0.27764 0.61684 0.0
C1915 C 0.09007 0.27021 0.56436 0.0
C1916 C 0.10149 0.2794 0.64633 0.0
C1917 C 0.11428 0.27324 0.62424 0.0
C1918 C 0.11481 0.2663 0.57131 0.0
C1919 C 0.10285 0.26502 0.5416 0.0
H1920 H 0.28015 0.30511 0.61338 0.0
H1921 H 0.30198 0.23496 0.5977 0.0
H1922 H 0.28527 0.3057 0.70642 0.0
H1923 H 0.30743 0.23592 0.69078 0.0
H1924 H 0.30325 0.23418 0.87018 0.0
H1925 H 0.29694 0.23237 0.77788 0.0
H1926 H 0.30491 0.31181 0.76352 0.0
H1927 H 0.31089 0.31371 0.85575 0.0
C1928 C 0.28597 0.28969 0.62977 0.0
C1929 C 0.29062 0.26995 0.59777 0.0
C1930 C 0.28904 0.29019 0.68316 0.0
C1931 C 0.29682 0.27091 0.70629 0.0
C1932 C 0.30133 0.25099 0.67449 0.0
C1933 C 0.29832 0.25056 0.62094 0.0
C1934 C 0.30353 0.2513 0.84743 0.0
C1935 C 0.30762 0.27408 0.87055 0.0
C1936 C 0.30004 0.25022 0.79433 0.0
C1937 C 0.30042 0.27193 0.76304 0.0
C1938 C 0.30437 0.29474 0.78637 0.0
C1939 C 0.30794 0.29578 0.83926 0.0
H1940 H 0.96581 0.97681 0.6145 0.0
H1941 H 0.93798 0.03919 0.59489 0.0
H1942 H 0.96075 0.97598 0.70747 0.0
H1943 H 0.93292 0.03837 0.68811 0.0
H1944 H 0.91507 1.00893 0.8427 0.0
H1945 H 0.9211 0.01249 0.75083 0.0
H1946 H 0.96355 0.99838 0.78873 0.0
H1947 H 0.95742 0.99378 0.88051 0.0
C1948 C 0.95877 0.99063 0.6301 0.0
C1949 C 0.95231 1.00807 0.59697 0.0
C1950 C 0.95586 0.99014 0.68357 0.0
C1951 C 0.9464 1.00707 0.7055 0.0
C1952 C 0.94009 0.02477 0.67253 0.0
C1953 C 0.943 0.02526 0.619 0.0
C1954 C 0.92568 1.00642 0.83149 0.0
C1955 C 0.93572 1.00087 0.86918 0.0
C1956 C 0.92918 1.00879 0.77875 0.0
C1957 C 0.94282 1.0057 0.76214 0.0
C1958 C 0.95291 1.00059 0.79993 0.0
C1959 C 0.94942 0.99824 0.85274 0.0
H1960 H 0.28606 0.99114 0.39578 0.0
H1961 H 0.3288 1.00242 0.43302 0.0
H1962 H 0.28037 0.99296 0.4884 0.0
H1963 H 0.32321 1.00303 0.52546 0.0
H1964 H 0.30738 0.02796 0.68468 0.0
H1965 H 0.31263 0.02758 0.59177 0.0
H1966 H 0.28233 0.96957 0.56797 0.0
H1967 H 0.27702 0.97012 0.66094 0.0
C1968 C 0.29426 0.99408 0.42359 0.0
C1969 C 0.30791 0.99658 0.40652 0.0
C1970 C 0.29101 0.99479 0.47693 0.0
C1971 C 0.30132 0.99806 0.51484 0.0
C1972 C 0.31495 1.00075 0.49768 0.0
C1973 C 0.31819 1.00007 0.44443 0.0
C1974 C 0.30192 0.01494 0.65978 0.0
C1975 C 0.29179 0.99903 0.68064 0.0
C1976 C 0.30493 0.01472 0.60629 0.0
C1977 C 0.29793 0.99852 0.57194 0.0
C1978 C 0.28779 0.98262 0.59282 0.0
C1979 C 0.28475 0.98289 0.64633 0.0
H1980 H 0.94604 0.23488 0.40386 0.0
H1981 H 0.91807 0.29591 0.43527 0.0
H1982 H 0.9518 0.2328 0.4965 0.0
H1983 H 0.92385 0.29393 0.52745 0.0
H1984 H 0.92654 0.26879 0.69583 0.0
H1985 H 0.92088 0.2685 0.60342 0.0
H1986 H 0.9634 0.25502 0.56564 0.0
H1987 H 0.96898 0.25416 0.65839 0.0
C1988 C 0.94118 0.24797 0.4304 0.0
C1989 C 0.9315 0.26545 0.4119 0.0
C1990 C 0.9445 0.2468 0.48362 0.0
C1991 C 0.93825 0.26309 0.51981 0.0
C1992 C 0.92866 0.28069 0.50114 0.0
C1993 C 0.92534 0.28183 0.44806 0.0
C1994 C 0.93467 0.26534 0.66798 0.0
C1995 C 0.94823 0.26147 0.68494 0.0
C1996 C 0.93145 0.26553 0.61474 0.0
C1997 C 0.94168 0.26193 0.57672 0.0
C1998 C 0.95521 0.25768 0.59363 0.0
C1999 C 0.95844 0.25747 0.64696 0.0
H2000 H 0.68469 0.78976 0.16525 0.0
H2001 H 0.68063 0.70936 0.18006 0.0
H2002 H 0.69121 0.79253 0.25722 0.0
H2003 H 0.68672 0.71219 0.27196 0.0
H2004 H 0.71105 0.7218 0.42148 0.0
H2005 H 0.70596 0.72078 0.32854 0.0
H2006 H 0.68143 0.78782 0.3447 0.0
H2007 H 0.68691 0.78935 0.43767 0.0
C2008 C 0.68523 0.77266 0.188 0.0
C2009 C 0.68207 0.74934 0.16506 0.0
C2010 C 0.68883 0.77428 0.24094 0.0
C2011 C 0.68949 0.75259 0.27227 0.0
C2012 C 0.68647 0.72928 0.24911 0.0
C2013 C 0.68281 0.72768 0.19638 0.0
C2014 C 0.70474 0.73658 0.40523 0.0
C2015 C 0.69943 0.75569 0.4374 0.0
C2016 C 0.70167 0.73581 0.35186 0.0
C2017 C 0.6932 0.75413 0.3289 0.0
C2018 C 0.68806 0.77349 0.36082 0.0
C2019 C 0.6911 0.77422 0.41435 0.0
H2020 H 0.03934 0.0345 0.15361 0.0
H2021 H 0.08132 0.01754 0.19414 0.0
H2022 H 0.03321 0.03438 0.24576 0.0
H2023 H 0.07537 0.01887 0.28613 0.0
H2024 H 0.05814 0.99855 0.44551 0.0
H2025 H 0.06375 0.99704 0.35301 0.0
H2026 H 0.03554 0.05803 0.32408 0.0
H2027 H 0.02976 0.05917 0.41667 0.0
C2028 C 0.04728 0.03065 0.18204 0.0
C2029 C 0.06086 0.02605 0.16603 0.0
C2030 C 0.04379 0.03096 0.23513 0.0
C2031 C 0.05378 0.02674 0.27383 0.0
C2032 C 0.06733 0.02193 0.25773 0.0
C2033 C 0.0708 0.02151 0.20472 0.0
C2034 C 0.05321 0.0118 0.4195 0.0
C2035 C 0.04353 0.02905 0.43873 0.0
C2036 C 0.05644 1.01095 0.36628 0.0
C2037 C 0.05015 0.02744 0.33065 0.0
C2038 C 0.04045 0.04473 0.34996 0.0
C2039 C 0.03716 0.04546 0.4032 0.0
H2040 H 0.69801 0.98534 0.6208 0.0
H2041 H 0.67033 0.04641 0.58612 0.0
H2042 H 0.70363 0.98176 0.52819 0.0
H2043 H 0.67594 0.04288 0.494 0.0
H2044 H 0.67835 0.01556 0.3276 0.0
H2045 H 0.67271 0.01582 0.42003 0.0
H2046 H 0.71533 1.00362 0.45802 0.0
H2047 H 0.72091 1.00226 0.36523 0.0
C2048 C 0.69317 0.99809 0.59353 0.0
C2049 C 0.68363 0.01605 0.61105 0.0
C2050 C 0.6964 0.99605 0.54038 0.0
C2051 C 0.69018 0.01192 0.5034 0.0
C2052 C 0.68071 0.02996 0.52106 0.0
C2053 C 0.67749 0.03199 0.57405 0.0
C2054 C 0.68651 0.01245 0.35552 0.0
C2055 C 0.70011 1.00888 0.33871 0.0
C2056 C 0.68329 0.01296 0.4087 0.0
C2057 C 0.69357 1.00997 0.44669 0.0
C2058 C 0.70713 1.00583 0.42995 0.0
C2059 C 0.71035 1.00532 0.37666 0.0
H2060 H 0.04838 0.80431 0.34888 0.0
H2061 H 0.02664 0.73436 0.36933 0.0
H2062 H 0.05327 0.80548 0.44222 0.0
H2063 H 0.03152 0.73553 0.46239 0.0
H2064 H 0.03335 0.75385 0.6349 0.0
H2065 H 0.02673 0.75703 0.54341 0.0
H2066 H 0.06733 0.78354 0.50488 0.0
H2067 H 0.07377 0.78137 0.59654 0.0
C2068 C 0.04465 0.78917 0.37322 0.0
C2069 C 0.03712 0.76922 0.35138 0.0
C2070 C 0.04746 0.78983 0.42679 0.0
C2071 C 0.04283 0.77057 0.45998 0.0
C2072 C 0.03507 0.7509 0.43829 0.0
C2073 C 0.03226 0.75024 0.38477 0.0
C2074 C 0.0408 0.76077 0.6071 0.0
C2075 C 0.05413 0.76723 0.62325 0.0
C2076 C 0.03705 0.76231 0.55445 0.0
C2077 C 0.04651 0.77039 0.51654 0.0
C2078 C 0.05973 0.77744 0.53292 0.0
C2079 C 0.06348 0.77589 0.58551 0.0
H2080 H 0.28158 0.79909 0.1062 0.0
H2081 H 0.30238 0.7278 0.0922 0.0
H2082 H 0.28655 0.7998 0.19925 0.0
H2083 H 0.30772 0.7289 0.18539 0.0
H2084 H 0.3041 0.72958 0.36535 0.0
H2085 H 0.29733 0.72687 0.27351 0.0
H2086 H 0.30673 0.80552 0.25379 0.0
H2087 H 0.31315 0.80835 0.34535 0.0
C2088 C 0.2871 0.78341 0.12301 0.0
C2089 C 0.29156 0.76337 0.0915 0.0
C2090 C 0.29009 0.78397 0.17637 0.0
C2091 C 0.29762 0.7645 0.19987 0.0
C2092 C 0.30183 0.74415 0.16869 0.0
C2093 C 0.29888 0.74363 0.11514 0.0
C2094 C 0.30461 0.74632 0.34145 0.0
C2095 C 0.30924 0.76915 0.36274 0.0
C2096 C 0.30084 0.74472 0.28871 0.0
C2097 C 0.30148 0.76598 0.25617 0.0
C2098 C 0.30597 0.78883 0.27772 0.0
C2099 C 0.30981 0.79038 0.33018 0.0
H2100 H 0.91318 0.50434 0.33922 0.0
H2101 H 0.95534 0.48853 0.37883 0.0
H2102 H 0.91928 0.50566 0.24722 0.0
H2103 H 0.96156 0.49094 0.28675 0.0
H2104 H 0.96458 0.46814 0.11351 0.0
H2105 H 0.95916 0.4682 0.20629 0.0
H2106 H 0.93101 0.52972 0.18235 0.0
H2107 H 0.93641 0.52961 0.08948 0.0
C2108 C 0.92377 0.50116 0.32842 0.0
C2109 C 0.93372 0.49616 0.36685 0.0
C2110 C 0.92731 0.50225 0.27546 0.0
C2111 C 0.94093 0.49841 0.25911 0.0
C2112 C 0.95093 0.4937 0.29757 0.0
C2113 C 0.94738 0.49262 0.35063 0.0
C2114 C 0.95736 0.48191 0.12801 0.0
C2115 C 0.95094 0.49884 0.09359 0.0
C2116 C 0.95424 0.48195 0.18146 0.0
C2117 C 0.9446 0.49893 0.20223 0.0
C2118 C 0.9383 0.51605 0.16789 0.0
C2119 C 0.94141 0.516 0.11443 0.0
H2120 H 0.33221 0.48401 0.94658 0.0
H2121 H 0.29148 0.51068 0.9104 0.0
H2122 H 0.32693 0.48604 0.0392 0.0
H2123 H 0.28596 0.51148 1.00314 0.0
H2124 H 0.28477 0.53336 0.17629 0.0
H2125 H 0.29021 0.53297 0.08335 0.0
H2126 H 0.31402 0.46535 0.10488 0.0
H2127 H 0.30872 0.46598 0.1977 0.0
C2128 C 0.32213 0.49042 0.95826 0.0
C2129 C 0.31231 0.49723 0.92058 0.0
C2130 C 0.31902 0.49123 1.01161 0.0
C2131 C 0.30597 0.4988 0.02909 0.0
C2132 C 0.29616 0.50578 0.99145 0.0
C2133 C 0.29928 0.50502 0.93803 0.0
C2134 C 0.29111 0.51833 0.16113 0.0
C2135 C 0.29634 0.49976 0.19473 0.0
C2136 C 0.29422 0.51807 0.10768 0.0
C2137 C 0.30261 0.49916 0.0862 0.0
C2138 C 0.30776 0.48053 0.11988 0.0
C2139 C 0.30471 0.48086 0.1733 0.0
H2140 H 0.95773 0.76803 0.89787 0.0
H2141 H 0.91554 0.7521 0.93689 0.0
H2142 H 0.96399 0.76427 0.98967 0.0
H2143 H 0.92171 0.74931 0.02879 0.0
H2144 H 0.9391 0.72393 0.18513 0.0
H2145 H 0.93385 0.72413 0.09208 0.0
H2146 H 0.96113 0.78713 0.07046 0.0
H2147 H 0.96635 0.78697 0.16333 0.0
C2148 C 0.94979 0.76355 0.92591 0.0
C2149 C 0.9361 0.76044 0.90976 0.0
C2150 C 0.95336 0.7617 0.97874 0.0
C2151 C 0.94336 0.7566 0.0169 0.0
C2152 C 0.92973 0.75302 1.0006 0.0
C2153 C 0.92615 0.75492 0.94783 0.0
C2154 C 0.94396 0.73788 0.1606 0.0
C2155 C 0.95315 0.75544 0.18203 0.0
C2156 C 0.94094 0.73801 0.10714 0.0
C2157 C 0.94703 0.75569 0.07355 0.0
C2158 C 0.95639 0.77298 0.09484 0.0
C2159 C 0.9594 0.77287 0.14827 0.0
H2160 H 0.68737 0.28875 0.65964 0.0
H2161 H 0.68294 0.20857 0.67797 0.0
H2162 H 0.69371 0.2924 0.75169 0.0
H2163 H 0.68893 0.21228 0.76991 0.0
H2164 H 0.7134 0.22364 0.91867 0.0
H2165 H 0.70851 0.22182 0.82558 0.0
H2166 H 0.68326 0.28811 0.83907 0.0
H2167 H 0.68848 0.29037 0.93225 0.0
C2168 C 0.6878 0.27189 0.68322 0.0
C2169 C 0.6846 0.24837 0.66137 0.0
C2170 C 0.69131 0.27402 0.7361 0.0
C2171 C 0.69183 0.25264 0.7683 0.0
C2172 C 0.68877 0.22912 0.74624 0.0
C2173 C 0.68518 0.22702 0.69357 0.0
C2174 C 0.70697 0.23808 0.90176 0.0
C2175 C 0.70136 0.25719 0.93313 0.0
C2176 C 0.70403 0.23685 0.84839 0.0
C2177 C 0.69542 0.25473 0.82477 0.0
C2178 C 0.69 0.27413 0.85587 0.0
C2179 C 0.69289 0.27529 0.90941 0.0
H2180 H 0.02583 0.54909 0.91066 0.0
H2181 H 0.0512 0.48335 0.93114 0.0
H2182 H 0.0309 0.54896 0.81768 0.0
H2183 H 0.05627 0.48321 0.83791 0.0
H2184 H 0.07536 0.51019 0.68342 0.0
H2185 H 0.0691 0.50741 0.77517 0.0
H2186 H 0.02732 0.52679 0.73656 0.0
H2187 H 0.03371 0.5306 0.64489 0.0
C2188 C 0.03232 0.53434 0.89525 0.0
C2189 C 0.03811 0.51624 0.92863 0.0
C2190 C 0.03523 0.53427 0.84177 0.0
C2191 C 0.04403 0.51611 0.82009 0.0
C2192 C 0.04964 0.49774 0.8533 0.0
C2193 C 0.04672 0.49781 0.90683 0.0
C2194 C 0.06485 0.51402 0.69445 0.0
C2195 C 0.05509 0.52083 0.65659 0.0
C2196 C 0.06121 0.5121 0.74712 0.0
C2197 C 0.0477 0.51691 0.7635 0.0
C2198 C 0.03786 0.52324 0.72553 0.0
C2199 C 0.0415 0.52515 0.67278 0.0
H2200 H 0.70227 0.50866 0.12493 0.0
H2201 H 0.66126 0.53376 0.0884 0.0
H2202 H 0.7077 0.50724 0.03217 0.0
H2203 H 0.66646 0.53106 0.9958 0.0
H2204 H 0.68436 0.55057 0.83662 0.0
H2205 H 0.67912 0.55169 0.92946 0.0
H2206 H 0.70359 0.485 0.95282 0.0
H2207 H 0.709 0.48417 0.85984 0.0
C2208 C 0.69438 0.51383 0.09721 0.0
C2209 C 0.68131 0.52138 0.11454 0.0
C2210 C 0.69746 0.51271 0.0438 0.0
C2211 C 0.68755 0.51906 1.00609 0.0
C2212 C 0.67444 0.52636 0.02346 0.0
C2213 C 0.67139 0.52755 0.0768 0.0
C2214 C 0.68853 0.536 0.86145 0.0
C2215 C 0.69707 0.51723 0.84056 0.0
C2216 C 0.68551 0.53661 0.91486 0.0
C2217 C 0.69087 0.51838 0.94902 0.0
C2218 C 0.69942 0.49959 0.92807 0.0
C2219 C 0.70251 0.49907 0.87462 0.0
H2220 H 0.06259 0.26596 0.83433 0.0
H2221 H 0.024 0.22917 0.86521 0.0
H2222 H 0.06799 0.26511 0.92702 0.0
H2223 H 0.02944 0.22815 0.95812 0.0
H2224 H 0.03732 0.25265 0.12701 0.0
H2225 H 0.03185 0.25415 0.03416 0.0
H2226 H 0.07414 0.23802 0.99704 0.0
H2227 H 0.07971 0.23765 0.08953 0.0
C2228 C 0.05532 0.25734 0.86075 0.0
C2229 C 0.04286 0.24756 0.84191 0.0
C2230 C 0.05842 0.25688 0.91416 0.0
C2231 C 0.04917 0.24656 0.95051 0.0
C2232 C 0.03674 0.23664 0.93164 0.0
C2233 C 0.03362 0.23716 0.87818 0.0
C2234 C 0.0455 0.24975 0.09908 0.0
C2235 C 0.05898 0.245 0.11616 0.0
C2236 C 0.04232 0.25027 0.04565 0.0
C2237 C 0.05252 0.24612 1.00767 0.0
C2238 C 0.06601 0.24157 0.02483 0.0
C2239 C 0.06918 0.24104 0.07815 0.0
H2240 H 0.81378 0.28038 0.08101 0.0
H2241 H 0.77327 0.25277 0.11749 0.0
H2242 H 0.81936 0.28129 0.17354 0.0
H2243 H 0.77872 0.25455 0.21044 0.0
H2244 H 0.7985 0.23772 0.37082 0.0
H2245 H 0.79264 0.23515 0.27834 0.0
H2246 H 0.81375 0.30513 0.2507 0.0
H2247 H 0.81954 0.30779 0.34284 0.0
C2248 C 0.80607 0.27432 0.10868 0.0
C2249 C 0.79306 0.26645 0.09145 0.0
C2250 C 0.80922 0.27517 0.16197 0.0
C2251 C 0.79948 0.26816 0.19976 0.0
C2252 C 0.78653 0.25993 0.18257 0.0
C2253 C 0.78335 0.25915 0.12918 0.0
C2254 C 0.80179 0.2527 0.34515 0.0
C2255 C 0.8096 0.27288 0.36458 0.0
C2256 C 0.79843 0.25121 0.29198 0.0
C2257 C 0.80279 0.26983 0.25672 0.0
C2258 C 0.81045 0.29014 0.27631 0.0
C2259 C 0.81378 0.29166 0.32936 0.0
H2260 H 0.45472 0.9968 0.3754 0.0
H2261 H 0.41327 0.01887 0.33777 0.0
H2262 H 0.46107 1.00061 0.28371 0.0
H2263 H 0.41949 0.02174 0.2459 0.0
H2264 H 0.43771 0.04521 0.08966 0.0
H2265 H 0.43267 0.04552 0.18294 0.0
H2266 H 0.457 0.97844 0.20275 0.0
H2267 H 0.462 0.97808 0.10975 0.0
C2268 C 0.44698 1.00266 0.3477 0.0
C2269 C 0.43345 1.00743 0.36414 0.0
C2270 C 0.45058 1.00456 0.29494 0.0
C2271 C 0.44078 0.01134 0.25718 0.0
C2272 C 0.42735 0.01667 0.27381 0.0
C2273 C 0.42373 0.01473 0.32653 0.0
C2274 C 0.44197 0.0305 0.11387 0.0
C2275 C 0.45027 0.01162 0.09194 0.0
C2276 C 0.43907 0.03067 0.16743 0.0
C2277 C 0.4444 0.01198 0.20054 0.0
C2278 C 0.45289 0.99337 0.17873 0.0
C2279 C 0.45577 0.99318 0.12523 0.0
H2280 H 0.78669 1.00175 0.89521 0.0
H2281 H 0.82913 0.01568 0.9335 0.0
H2282 H 0.78057 1.00582 0.9871 0.0
H2283 H 0.82309 0.01882 0.02554 0.0
H2284 H 0.806 0.04513 0.18214 0.0
H2285 H 0.81125 0.04465 0.08905 0.0
H2286 H 0.78332 0.98261 0.06761 0.0
H2287 H 0.77812 0.983 0.16047 0.0
C2288 C 0.79471 1.00586 0.92311 0.0
C2289 C 0.80842 1.00832 0.90675 0.0
C2290 C 0.79122 1.00791 0.97599 0.0
C2291 C 0.80133 0.01253 1.01397 0.0
C2292 C 0.815 0.01547 0.99746 0.0
C2293 C 0.81849 0.01338 0.94464 0.0
C2294 C 0.80101 0.03132 0.15763 0.0
C2295 C 0.79162 0.01411 0.17909 0.0
C2296 C 0.80402 0.03105 0.10416 0.0
C2297 C 0.79773 0.01357 0.07063 0.0
C2298 C 0.78821 0.99661 0.09197 0.0
C2299 C 0.7852 0.99686 0.14539 0.0
H2300 H 0.45401 0.27715 0.90606 0.0
H2301 H 0.41264 0.25475 0.94415 0.0
H2302 H 0.46044 0.27321 0.99767 0.0
H2303 H 0.41892 0.25181 0.03585 0.0
H2304 H 0.43712 0.22791 0.1914 0.0
H2305 H 0.43211 0.22787 0.09812 0.0
H2306 H 0.45648 0.29494 0.07915 0.0
H2307 H 0.46147 0.29498 0.17217 0.0
C2308 C 0.44629 0.27123 0.93385 0.0
C2309 C 0.43277 0.26639 0.91757 0.0
C2310 C 0.44995 0.26924 0.98655 0.0
C2311 C 0.44019 0.26231 0.02438 0.0
C2312 C 0.42675 0.25697 1.00789 0.0
C2313 C 0.4231 0.25898 0.95526 0.0
C2314 C 0.44139 0.24267 0.16735 0.0
C2315 C 0.4497 0.26145 0.18951 0.0
C2316 C 0.43851 0.24266 0.1138 0.0
C2317 C 0.44385 0.26144 0.08095 0.0
C2318 C 0.45236 0.27995 0.10298 0.0
C2319 C 0.45523 0.27996 0.15647 0.0
H2320 H 0.2192 0.74734 0.91449 0.0
H2321 H 0.17885 0.77804 0.94239 0.0
H2322 H 0.21477 0.74743 0.82121 0.0
H2323 H 0.17407 0.77649 0.8494 0.0
H2324 H 0.17298 0.79039 0.67465 0.0
H2325 H 0.17871 0.79418 0.76698 0.0
H2326 H 0.20219 0.72547 0.7576 0.0
H2327 H 0.19673 0.72216 0.66522 0.0
C2328 C 0.2094 0.75426 0.90089 0.0
C2329 C 0.19939 0.76264 0.93647 0.0
C2330 C 0.20677 0.75392 0.84718 0.0
C2331 C 0.194 0.76175 0.82735 0.0
C2332 C 0.18408 0.77053 0.86285 0.0
C2333 C 0.18675 0.77107 0.91652 0.0
C2334 C 0.17937 0.77611 0.6924 0.0
C2335 C 0.1844 0.75599 0.66248 0.0
C2336 C 0.18263 0.77822 0.74547 0.0
C2337 C 0.19092 0.76012 0.77021 0.0
C2338 C 0.196 0.74007 0.74001 0.0
C2339 C 0.19284 0.7381 0.6869 0.0
H2340 H 0.54802 0.05644 0.66277 0.0
H2341 H 0.57104 0.98777 0.68079 0.0
H2342 H 0.54236 0.05586 0.75528 0.0
H2343 H 0.56514 0.98678 0.77327 0.0
H2344 H 0.56368 1.00503 0.94661 0.0
H2345 H 0.56948 1.00639 0.85442 0.0
H2346 H 0.52915 0.03547 0.81965 0.0
H2347 H 0.52366 0.03562 0.91218 0.0
C2348 C 0.55173 0.04102 0.68639 0.0
C2349 C 0.55998 0.02214 0.66425 0.0
C2350 C 0.54846 0.04064 0.73958 0.0
C2351 C 0.55326 0.02126 0.77218 0.0
C2352 C 0.56144 1.00227 0.74985 0.0
C2353 C 0.5648 1.00277 0.69668 0.0
C2354 C 0.5561 0.01213 0.91952 0.0
C2355 C 0.54319 0.0203 0.93732 0.0
C2356 C 0.55937 0.01252 0.8663 0.0
C2357 C 0.54979 0.02094 0.82912 0.0
C2358 C 0.53688 0.02913 0.84692 0.0
C2359 C 0.53365 0.02889 0.90018 0.0
H2360 H 0.21775 1.005 0.86209 0.0
H2361 H 0.17693 0.03205 0.8288 0.0
H2362 H 0.21249 1.00513 0.95524 0.0
H2363 H 0.17169 0.03216 0.92161 0.0
H2364 H 0.16207 1.00727 0.08697 0.0
H2365 H 0.16778 1.00462 0.99464 0.0
H2366 H 0.20819 0.03381 0.02711 0.0
H2367 H 0.20248 0.03645 0.11964 0.0
C2368 C 0.20767 1.01107 0.87457 0.0
C2369 C 0.19776 0.01844 0.8377 0.0
C2370 C 0.20466 0.01116 0.92807 0.0
C2371 C 0.19165 0.01861 0.94614 0.0
C2372 C 0.18174 0.02586 0.90922 0.0
C2373 C 0.18474 0.02577 0.85582 0.0
C2374 C 0.17216 0.01327 0.07447 0.0
C2375 C 0.18176 0.02226 0.11092 0.0
C2376 C 0.17544 0.01175 0.0214 0.0
C2377 C 0.18842 0.01917 1.00315 0.0
C2378 C 0.19814 0.02766 0.03972 0.0
C2379 C 0.19486 0.02918 0.09288 0.0
H2380 H 0.52844 0.7203 0.86239 0.0
H2381 H 0.5489 0.79181 0.84739 0.0
H2382 H 0.53344 0.71999 0.95554 0.0
H2383 H 0.55422 0.79118 0.9406 0.0
H2384 H 0.55033 0.79199 0.12005 0.0
H2385 H 0.54361 0.79366 0.02812 0.0
H2386 H 0.55352 0.71504 1.0116 0.0
H2387 H 0.55995 0.71326 0.10342 0.0
C2388 C 0.5339 0.73609 0.87898 0.0
C2389 C 0.53825 0.75609 0.84713 0.0
C2390 C 0.53691 0.73577 0.93241 0.0
C2391 C 0.5443 0.75549 0.9557 0.0
C2392 C 0.54842 0.77575 0.92413 0.0
C2393 C 0.54549 0.776 0.87053 0.0
C2394 C 0.55095 0.77501 0.0969 0.0
C2395 C 0.55573 0.75251 0.11922 0.0
C2396 C 0.54722 0.77603 0.04405 0.0
C2397 C 0.54803 0.7545 1.01228 0.0
C2398 C 0.55263 0.73194 0.03487 0.0
C2399 C 0.55646 0.73098 0.08749 0.0
H2400 H 0.80893 0.73364 0.58522 0.0
H2401 H 0.78015 0.79433 0.60794 0.0
H2402 H 0.81428 0.7342 0.67821 0.0
H2403 H 0.78543 0.79475 0.70073 0.0
H2404 H 0.78922 0.77506 0.87304 0.0
H2405 H 0.7831 0.77109 0.78111 0.0
H2406 H 0.82578 0.76054 0.74193 0.0
H2407 H 0.83184 0.76366 0.83397 0.0
C2408 C 0.80376 0.74716 0.60991 0.0
C2409 C 0.79409 0.76394 0.58873 0.0
C2410 C 0.80683 0.74747 0.66335 0.0
C2411 C 0.80031 0.76454 0.69719 0.0
C2412 C 0.79051 0.78106 0.67615 0.0
C2413 C 0.78746 0.78079 0.62274 0.0
C2414 C 0.79729 0.77153 0.84495 0.0
C2415 C 0.81105 0.76975 0.86113 0.0
C2416 C 0.79379 0.76954 0.79206 0.0
C2417 C 0.80394 0.7656 0.75386 0.0
C2418 C 0.81766 0.76335 0.77016 0.0
C2419 C 0.82116 0.76543 0.823 0.0
H2420 H 0.41297 0.50936 0.84139 0.0
H2421 H 0.45212 0.47523 0.87508 0.0
H2422 H 0.41871 0.51042 0.74893 0.0
H2423 H 0.45781 0.47584 0.78244 0.0
H2424 H 0.46937 0.50303 0.61923 0.0
H2425 H 0.46375 0.50219 0.71164 0.0
H2426 H 0.42162 0.48502 0.67381 0.0
H2427 H 0.42709 0.4873 0.58126 0.0
C2428 C 0.42277 0.50186 0.82902 0.0
C2429 C 0.43206 0.49218 0.86587 0.0
C2430 C 0.42606 0.50239 0.7758 0.0
C2431 C 0.43873 0.49312 0.75771 0.0
C2432 C 0.44805 0.48352 0.79468 0.0
C2433 C 0.44478 0.48313 0.84798 0.0
C2434 C 0.45886 0.49934 0.63045 0.0
C2435 C 0.44869 0.49539 0.59231 0.0
C2436 C 0.45566 0.49852 0.68374 0.0
C2437 C 0.4422 0.49357 0.70068 0.0
C2438 C 0.43206 0.48926 0.66255 0.0
C2439 C 0.43525 0.4902 0.60922 0.0
H2440 H 0.7906 0.51955 0.40176 0.0
H2441 H 0.83121 0.49241 0.43866 0.0
H2442 H 0.78497 0.52026 0.49432 0.0
H2443 H 0.82591 0.49478 0.53093 0.0
H2444 H 0.80815 0.47436 0.68843 0.0
H2445 H 0.81324 0.474 0.59556 0.0
H2446 H 0.78873 0.5409 0.57512 0.0
H2447 H 0.78334 0.54074 0.66824 0.0
C2448 C 0.79837 0.51382 0.42947 0.0
C2449 C 0.81138 0.50584 0.41225 0.0
C2450 C 0.79519 0.51457 0.4828 0.0
C2451 C 0.80494 0.50749 0.52052 0.0
C2452 C 0.81802 0.49996 0.50328 0.0
C2453 C 0.82115 0.49901 0.45006 0.0
C2454 C 0.80392 0.4891 0.66416 0.0
C2455 C 0.79541 0.50767 0.68585 0.0
C2456 C 0.80687 0.48896 0.61077 0.0
C2457 C 0.80152 0.50755 0.57747 0.0
C2458 C 0.79292 0.52608 0.5992 0.0
C2459 C 0.78985 0.52606 0.65268 0.0
H2460 H 0.46781 0.79117 0.65918 0.0
H2461 H 0.44148 0.72672 0.67955 0.0
H2462 H 0.4628 0.79127 0.56615 0.0
H2463 H 0.43649 0.72679 0.5863 0.0
H2464 H 0.41762 0.75489 0.43248 0.0
H2465 H 0.42396 0.75165 0.52403 0.0
H2466 H 0.46595 0.76917 0.48468 0.0
H2467 H 0.45948 0.77347 0.39315 0.0
C2468 C 0.46113 0.77674 0.64374 0.0
C2469 C 0.45503 0.75897 0.67711 0.0
C2470 C 0.45825 0.7768 0.59022 0.0
C2471 C 0.44919 0.7591 0.56852 0.0
C2472 C 0.44332 0.74099 0.6017 0.0
C2473 C 0.4462 0.74094 0.65525 0.0
C2474 C 0.4282 0.75821 0.44329 0.0
C2475 C 0.438 0.76466 0.40527 0.0
C2476 C 0.43188 0.75602 0.49585 0.0
C2477 C 0.44548 0.76017 0.51199 0.0
C2478 C 0.45535 0.76614 0.47385 0.0
C2479 C 0.45166 0.76832 0.42119 0.0
H2480 H 0.16759 0.2748 0.18437 0.0
H2481 H 0.19731 0.21562 0.16274 0.0
H2482 H 0.17315 0.2764 0.27701 0.0
H2483 H 0.20279 0.217 0.25547 0.0
H2484 H 0.21873 0.24207 0.41457 0.0
H2485 H 0.21352 0.24161 0.32171 0.0
H2486 H 0.17066 0.25339 0.35639 0.0
H2487 H 0.17597 0.25513 0.44914 0.0
C2488 C 0.17524 0.26198 0.19942 0.0
C2489 C 0.18198 0.24506 0.16592 0.0
C2490 C 0.17843 0.26286 0.2527 0.0
C2491 C 0.18841 0.24677 0.2741 0.0
C2492 C 0.1952 0.22996 0.24046 0.0
C2493 C 0.19205 0.22915 0.18714 0.0
C2494 C 0.20821 0.24487 0.40248 0.0
C2495 C 0.1978 0.24871 0.43971 0.0
C2496 C 0.20519 0.24428 0.34905 0.0
C2497 C 0.19165 0.24744 0.33119 0.0
C2498 C 0.18123 0.2512 0.36843 0.0
C2499 C 0.18426 0.25185 0.42186 0.0
H2500 H 0.54096 0.48146 0.42201 0.0
H2501 H 0.54906 0.56064 0.44092 0.0
H2502 H 0.54567 0.48491 0.32898 0.0
H2503 H 0.55375 0.56412 0.34768 0.0
H2504 H 0.57494 0.55562 0.18866 0.0
H2505 H 0.57009 0.55249 0.28165 0.0
H2506 H 0.53663 0.5018 0.24901 0.0
H2507 H 0.54183 0.50412 0.15607 0.0
C2508 C 0.54363 0.49968 0.40631 0.0
C2509 C 0.54459 0.52078 0.43925 0.0
C2510 C 0.54632 0.50167 0.35277 0.0
C2511 C 0.55006 0.52482 0.33045 0.0
C2512 C 0.55109 0.5459 0.36342 0.0
C2513 C 0.5484 0.54391 0.41704 0.0
C2514 C 0.56662 0.5436 0.20124 0.0
C2515 C 0.55884 0.53001 0.16455 0.0
C2516 C 0.56372 0.54205 0.25471 0.0
C2517 C 0.55297 0.52686 0.27319 0.0
C2518 C 0.5451 0.51345 0.23647 0.0
C2519 C 0.54799 0.51502 0.18295 0.0
H2520 H 0.2186 0.5406 0.37034 0.0
H2521 H 0.1858 0.48755 0.34428 0.0
H2522 H 0.21351 0.54061 0.46334 0.0
H2523 H 0.18094 0.48718 0.43785 0.0
H2524 H 0.18392 0.4796 0.61834 0.0
H2525 H 0.19075 0.47589 0.5265 0.0
H2526 H 0.19397 0.55659 0.51634 0.0
H2527 H 0.18731 0.56025 0.60766 0.0
C2528 C 0.21031 0.5289 0.38434 0.0
C2529 C 0.20249 0.51436 0.34941 0.0
C2530 C 0.20742 0.52887 0.43777 0.0
C2531 C 0.19673 0.5141 0.45795 0.0
C2532 C 0.1893 0.49865 0.42356 0.0
C2533 C 0.19212 0.49884 0.36989 0.0
C2534 C 0.1862 0.4965 0.5965 0.0
C2535 C 0.18501 0.52023 0.62021 0.0
C2536 C 0.19 0.49438 0.54386 0.0
C2537 C 0.19292 0.51594 0.51413 0.0
C2538 C 0.19193 0.53959 0.53821 0.0
C2539 C 0.18798 0.54171 0.59045 0.0
H2540 H 0.52728 0.225 0.3594 0.0
H2541 H 0.56088 0.27666 0.33767 0.0
H2542 H 0.53228 0.2231 0.45249 0.0
H2543 H 0.56583 0.27496 0.43077 0.0
H2544 H 0.57995 0.24692 0.59021 0.0
H2545 H 0.57474 0.24877 0.49755 0.0
H2546 H 0.53145 0.24604 0.53255 0.0
H2547 H 0.5367 0.24295 0.62536 0.0
C2548 C 0.53567 0.23615 0.37447 0.0
C2549 C 0.54367 0.25096 0.34063 0.0
C2550 C 0.53854 0.2351 0.4281 0.0
C2551 C 0.54949 0.24887 0.44968 0.0
C2552 C 0.55747 0.26372 0.41579 0.0
C2553 C 0.55462 0.26471 0.36215 0.0
C2554 C 0.56931 0.24642 0.57831 0.0
C2555 C 0.55878 0.24462 0.61577 0.0
C2556 C 0.5663 0.24784 0.5249 0.0
C2557 C 0.55265 0.24759 0.50702 0.0
C2558 C 0.5421 0.24598 0.54447 0.0
C2559 C 0.54511 0.24453 0.59799 0.0
H2560 H 0.28883 0.42672 0.50376 0.0
H2561 H 0.33128 0.43927 0.46542 0.0
H2562 H 0.28776 0.39301 0.43862 0.0
H2563 H 0.33014 0.40715 0.3986 0.0
H2564 H 0.33063 0.33282 0.31817 0.0
H2565 H 0.33022 0.36529 0.38438 0.0
H2566 H 0.28723 0.37827 0.35315 0.0
H2567 H 0.2876 0.34425 0.28861 0.0
C2568 C 0.29788 0.42249 0.48089 0.0
C2569 C 0.31019 0.43549 0.49032 0.0
C2570 C 0.29729 0.40318 0.44317 0.0
C2571 C 0.30894 0.39662 0.41321 0.0
C2572 C 0.32104 0.41059 0.42162 0.0
C2573 C 0.32169 0.42938 0.45985 0.0
C2574 C 0.32106 0.34255 0.32549 0.0
C2575 C 0.30918 0.33598 0.29772 0.0
C2576 C 0.32083 0.36154 0.36338 0.0
C2577 C 0.30876 0.37523 0.37415 0.0
C2578 C 0.29675 0.36831 0.34675 0.0
C2579 C 0.29695 0.34882 0.30935 0.0
H2580 H 0.95838 0.82702 0.46916 0.0
H2581 H 0.91585 0.84411 0.49825 0.0
H2582 H 0.95909 0.8601 0.40231 0.0
H2583 H 0.9167 0.87772 0.43506 0.0
H2584 H 0.91539 0.9184 0.28372 0.0
H2585 H 0.91658 0.88485 0.34709 0.0
H2586 H 0.95888 0.90348 0.37875 0.0
H2587 H 0.95783 0.93645 0.31182 0.0
C2588 C 0.94919 0.83781 0.4614 0.0
C2589 C 0.93696 0.83238 0.48836 0.0
C2590 C 0.94962 0.85704 0.42338 0.0
C2591 C 0.93786 0.87158 0.41186 0.0
C2592 C 0.92587 0.86662 0.44079 0.0
C2593 C 0.92541 0.84734 0.47783 0.0
C2594 C 0.925 0.91541 0.30398 0.0
C2595 C 0.93643 0.93059 0.29309 0.0
C2596 C 0.92566 0.89616 0.3411 0.0
C2597 C 0.93774 0.89149 0.36971 0.0
C2598 C 0.94936 0.90631 0.35791 0.0
C2599 C 0.94873 0.92549 0.31986 0.0
H2600 H 0.28644 0.94091 0.95945 0.0
H2601 H 0.3298 0.92927 0.98088 0.0
H2602 H 0.28616 0.90827 0.89205 0.0
H2603 H 0.32943 0.89565 0.91745 0.0
H2604 H 0.28815 0.83249 0.80245 0.0
H2605 H 0.2871 0.86592 0.86813 0.0
H2606 H 0.32889 0.8863 0.83129 0.0
H2607 H 0.33014 0.85204 0.76949 0.0
C2608 C 0.29593 0.93151 0.94963 0.0
C2609 C 0.3082 0.93828 0.97482 0.0
C2610 C 0.29575 0.9124 0.91141 0.0
C2611 C 0.30782 0.89919 0.89794 0.0
C2612 C 0.31996 0.90565 0.92468 0.0
C2613 C 0.32016 0.92492 0.9619 0.0
C2614 C 0.29714 0.84395 0.80907 0.0
C2615 C 0.30934 0.83907 0.78148 0.0
C2616 C 0.29652 0.86343 0.84643 0.0
C2617 C 0.308 0.8789 0.85648 0.0
C2618 C 0.31994 0.87451 0.82681 0.0
C2619 C 0.32063 0.85486 0.79054 0.0
H2620 H 0.91163 0.43643 0.81824 0.0
H2621 H 0.95423 0.42297 0.78373 0.0
H2622 H 0.9121 0.40392 0.88436 0.0
H2623 H 0.95462 0.3889 0.84799 0.0
H2624 H 0.95374 0.33932 0.99622 0.0
H2625 H 0.95464 0.37359 0.93246 0.0
H2626 H 0.91161 0.36226 0.89923 0.0
H2627 H 0.91069 0.32956 0.96482 0.0
C2628 C 0.92111 0.42625 0.82447 0.0
C2629 C 0.93285 0.43226 0.79532 0.0
C2630 C 0.92137 0.40724 0.8623 0.0
C2631 C 0.93332 0.39293 0.87161 0.0
C2632 C 0.9452 0.39933 0.84284 0.0
C2633 C 0.94499 0.41885 0.80557 0.0
C2634 C 0.9445 0.34432 0.97524 0.0
C2635 C 0.93211 0.33187 0.98617 0.0
C2636 C 0.945 0.36395 0.93825 0.0
C2637 C 0.93315 0.37142 0.91044 0.0
C2638 C 0.92091 0.35811 0.92054 0.0
C2639 C 0.92038 0.33899 0.95808 0.0
H2640 H 0.70385 0.68789 0.72545 0.0
H2641 H 0.66112 0.67118 0.75019 0.0
H2642 H 0.70486 0.65572 0.65721 0.0
H2643 H 0.66231 0.6378 0.68657 0.0
H2644 H 0.66161 0.59582 0.53704 0.0
H2645 H 0.66219 0.62874 0.60153 0.0
H2646 H 0.70538 0.61493 0.6265 0.0
H2647 H 0.70493 0.58323 0.55713 0.0
C2648 C 0.69466 0.67736 0.71638 0.0
C2649 C 0.68228 0.68281 0.7423 0.0
C2650 C 0.69527 0.65852 0.67756 0.0
C2651 C 0.68359 0.64408 0.66452 0.0
C2652 C 0.67145 0.64887 0.69292 0.0
C2653 C 0.67078 0.668 0.73041 0.0
C2654 C 0.67129 0.59975 0.55605 0.0
C2655 C 0.68314 0.58619 0.54252 0.0
C2656 C 0.67161 0.61863 0.59409 0.0
C2657 C 0.68374 0.62446 0.62147 0.0
C2658 C 0.69576 0.61125 0.60701 0.0
C2659 C 0.69549 0.59263 0.56763 0.0
H2660 H 0.05956 0.12422 0.79666 0.0
H2661 H 0.05427 0.06727 0.67886 0.0
H2662 H 0.05807 0.15693 0.72964 0.0
H2663 H 0.05301 0.09998 0.61146 0.0
H2664 H 0.07189 0.16674 0.51119 0.0
H2665 H 0.07065 0.13296 0.5757 0.0
H2666 H 0.04036 0.1749 0.66198 0.0
H2667 H 0.04135 0.20834 0.59639 0.0
C2668 C 0.05796 0.11871 0.75643 0.0
C2669 C 0.05684 0.09318 0.74315 0.0
C2670 C 0.05705 0.13746 0.71806 0.0
C2671 C 0.05537 0.13113 0.66515 0.0
C2672 C 0.05429 0.10552 0.65183 0.0
C2673 C 0.05487 0.08678 0.69045 0.0
C2674 C 0.06482 0.16865 0.54356 0.0
C2675 C 0.05661 0.19029 0.54832 0.0
C2676 C 0.06408 0.14921 0.58045 0.0
C2677 C 0.05538 0.15114 0.62403 0.0
C2678 C 0.04716 0.17278 0.62888 0.0
C2679 C 0.04765 0.19194 0.59111 0.0
H2680 H 0.66394 0.09914 0.02528 0.0
H2681 H 0.70644 0.0817 0.05368 0.0
H2682 H 0.66477 0.13198 0.09041 0.0
H2683 H 0.70713 0.11379 0.12244 0.0
H2684 H 0.70625 0.1881 0.2187 0.0
H2685 H 0.70714 0.15623 0.14952 0.0
H2686 H 0.66454 0.13869 0.17814 0.0
H2687 H 0.66352 0.17132 0.24366 0.0
C2688 C 0.67348 0.10212 0.04596 0.0
C2689 C 0.68504 0.08731 0.03465 0.0
C2690 C 0.67394 0.12094 0.08414 0.0
C2691 C 0.68592 0.1255 0.11345 0.0
C2692 C 0.69767 0.11108 0.10114 0.0
C2693 C 0.69725 0.0924 0.06197 0.0
C2694 C 0.69705 0.17764 0.20949 0.0
C2695 C 0.68473 0.18282 0.23604 0.0
C2696 C 0.69758 0.15906 0.17011 0.0
C2697 C 0.68584 0.14486 0.15679 0.0
C2698 C 0.67372 0.14956 0.18522 0.0
C2699 C 0.67316 0.16826 0.22363 0.0
H2700 H 0.03456 0.69703 0.06031 0.0
H2701 H 0.07683 0.67866 0.02924 0.0
H2702 H 0.0337 0.66394 0.12685 0.0
H2703 H 0.07582 0.6449 0.09235 0.0
H2704 H 0.07682 0.60401 0.24399 0.0
H2705 H 0.07603 0.63745 0.18024 0.0
H2706 H 0.0334 0.62082 0.1499 0.0
H2707 H 0.03407 0.58804 0.21717 0.0
C2708 C 0.04365 0.68589 0.06752 0.0
C2709 C 0.05586 0.69095 0.04015 0.0
C2710 C 0.04314 0.66666 0.10539 0.0
C2711 C 0.05477 0.65172 0.11629 0.0
C2712 C 0.06675 0.65631 0.08699 0.0
C2713 C 0.06731 0.67565 0.05004 0.0
C2714 C 0.06723 0.60745 0.22394 0.0
C2715 C 0.05558 0.59291 0.23527 0.0
C2716 C 0.06679 0.62661 0.1866 0.0
C2717 C 0.05473 0.63181 0.15833 0.0
C2718 C 0.04292 0.6176 0.17052 0.0
C2719 C 0.04332 0.59853 0.20878 0.0
H2720 H 0.83153 0.42547 0.99487 0.0
H2721 H 0.78841 0.43977 0.97384 0.0
H2722 H 0.83058 0.39218 0.93105 0.0
H2723 H 0.78759 0.40784 0.90521 0.0
H2724 H 0.78787 0.33555 0.80575 0.0
H2725 H 0.78744 0.36747 0.87443 0.0
H2726 H 0.83043 0.38222 0.84668 0.0
H2727 H 0.831 0.34894 0.78273 0.0
C2728 C 0.82183 0.42181 0.97581 0.0
C2729 C 0.81014 0.43593 0.9888 0.0
C2730 C 0.82129 0.40273 0.93817 0.0
C2731 C 0.80909 0.39731 0.91073 0.0
C2732 C 0.79725 0.41111 0.92478 0.0
C2733 C 0.79773 0.42986 0.96376 0.0
C2734 C 0.79727 0.34526 0.81539 0.0
C2735 C 0.80957 0.33896 0.78974 0.0
C2736 C 0.79701 0.364 0.85442 0.0
C2737 C 0.80898 0.37756 0.86793 0.0
C2738 C 0.82107 0.37187 0.83996 0.0
C2739 C 0.82138 0.3528 0.80226 0.0
H2740 H 0.41316 0.92022 0.7752 0.0
H2741 H 0.45541 0.94008 0.80217 0.0
H2742 H 0.41485 0.88693 0.83918 0.0
H2743 H 0.45697 0.90744 0.86951 0.0
H2744 H 0.45774 0.83213 0.96242 0.0
H2745 H 0.45777 0.8644 0.89395 0.0
H2746 H 0.41521 0.88024 0.92739 0.0
H2747 H 0.41504 0.84734 0.99232 0.0
C2748 C 0.42283 0.91764 0.79527 0.0
C2749 C 0.43406 0.93324 0.78397 0.0
C2750 C 0.42378 0.89857 0.83271 0.0
C2751 C 0.43597 0.89453 0.86113 0.0
C2752 C 0.44739 0.90974 0.84879 0.0
C2753 C 0.44647 0.92871 0.81045 0.0
C2754 C 0.44837 0.84231 0.95442 0.0
C2755 C 0.4363 0.83663 0.98219 0.0
C2756 C 0.4484 0.8611 0.91549 0.0
C2757 C 0.43642 0.87493 0.90381 0.0
C2758 C 0.42456 0.86968 0.93331 0.0
C2759 C 0.42449 0.85082 0.97134 0.0
H2760 H 0.78692 0.8346 0.30121 0.0
H2761 H 0.82946 0.85297 0.27616 0.0
H2762 H 0.78558 0.86705 0.36927 0.0
H2763 H 0.82798 0.88603 0.34052 0.0
H2764 H 0.82828 0.92529 0.49325 0.0
H2765 H 0.82761 0.89231 0.42862 0.0
H2766 H 0.78527 0.91007 0.39536 0.0
H2767 H 0.78578 0.94245 0.46375 0.0
C2768 C 0.79597 0.84555 0.3101 0.0
C2769 C 0.8084 0.84062 0.28396 0.0
C2770 C 0.79518 0.86442 0.34884 0.0
C2771 C 0.80675 0.87914 0.36188 0.0
C2772 C 0.81893 0.87475 0.33367 0.0
C2773 C 0.81976 0.85579 0.29594 0.0
C2774 C 0.81876 0.92224 0.47242 0.0
C2775 C 0.80717 0.93705 0.48327 0.0
C2776 C 0.81841 0.90331 0.43452 0.0
C2777 C 0.80649 0.89861 0.40497 0.0
C2778 C 0.79469 0.91296 0.41683 0.0
C2779 C 0.795 0.93181 0.45575 0.0
H2780 H 0.45319 0.33286 0.47669 0.0
H2781 H 0.4109 0.351 0.50795 0.0
H2782 H 0.45396 0.36582 0.41 0.0
H2783 H 0.41185 0.38482 0.44503 0.0
H2784 H 0.41083 0.42596 0.29314 0.0
H2785 H 0.41146 0.39304 0.35804 0.0
H2786 H 0.45437 0.40832 0.38574 0.0
H2787 H 0.45385 0.44027 0.31701 0.0
C2788 C 0.44406 0.34389 0.46942 0.0
C2789 C 0.43188 0.33876 0.49685 0.0
C2790 C 0.44453 0.3631 0.43153 0.0
C2791 C 0.43289 0.37805 0.42075 0.0
C2792 C 0.42094 0.37341 0.45019 0.0
C2793 C 0.42041 0.35403 0.48705 0.0
C2794 C 0.42044 0.42236 0.31294 0.0
C2795 C 0.43223 0.43621 0.30024 0.0
C2796 C 0.42078 0.40349 0.35097 0.0
C2797 C 0.43291 0.39797 0.37868 0.0
C2798 C 0.44481 0.41172 0.36555 0.0
C2799 C 0.44449 0.43043 0.32656 0.0
H2800 H 0.16351 0.60169 0.03149 0.0
H2801 H 0.20596 0.58374 0.05987 0.0
H2802 H 0.16455 0.63489 0.09558 0.0
H2803 H 0.20681 0.61611 0.1281 0.0
H2804 H 0.20612 0.69087 0.22358 0.0
H2805 H 0.20703 0.6585 0.15534 0.0
H2806 H 0.16425 0.642 0.18276 0.0
H2807 H 0.16321 0.67517 0.24686 0.0
C2808 C 0.17309 0.6046 0.05203 0.0
C2809 C 0.18455 0.58949 0.04108 0.0
C2810 C 0.17366 0.62363 0.08967 0.0
C2811 C 0.18566 0.62811 0.11894 0.0
C2812 C 0.19733 0.61344 0.1069 0.0
C2813 C 0.19681 0.59457 0.0681 0.0
C2814 C 0.19689 0.68057 0.21419 0.0
C2815 C 0.1845 0.68626 0.23983 0.0
C2816 C 0.19743 0.66169 0.17539 0.0
C2817 C 0.18563 0.64766 0.16192 0.0
C2818 C 0.17347 0.65276 0.18977 0.0
C2819 C 0.1729 0.67178 0.22743 0.0
H2820 H 0.55349 0.05982 0.17613 0.0
H2821 H 0.55527 0.11878 0.29106 0.0
H2822 H 0.55294 0.09155 0.10617 0.0
H2823 H 0.55423 0.1504 0.22156 0.0
H2824 H 0.53589 0.19194 0.06619 0.0
H2825 H 0.53416 0.15876 0.13254 0.0
H2826 H 0.57444 0.13232 0.09067 0.0
H2827 H 0.57649 0.16619 0.02638 0.0
C2828 C 0.55341 0.07951 0.18643 0.0
C2829 C 0.55429 0.08678 0.23906 0.0
C2830 C 0.55319 0.09766 0.14648 0.0
C2831 C 0.55347 0.12346 0.1585 0.0
C2832 C 0.5539 0.13068 0.21118 0.0
C2833 C 0.5545 0.11258 0.2509 0.0
C2834 C 0.5444 0.17918 0.07132 0.0
C2835 C 0.5564 0.18201 0.04137 0.0
C2836 C 0.54338 0.16009 0.1091 0.0
C2837 C 0.55414 0.14289 0.11657 0.0
C2838 C 0.56595 0.1452 0.08552 0.0
C2839 C 0.56712 0.16467 0.04882 0.0
H2840 H 0.16086 0.08705 0.55853 0.0
H2841 H 0.20395 0.09663 0.52769 0.0
H2842 H 0.1618 0.11939 0.62486 0.0
H2843 H 0.20488 0.13065 0.59209 0.0
H2844 H 0.20422 0.17905 0.74271 0.0
H2845 H 0.2048 0.14571 0.67674 0.0
H2846 H 0.16232 0.16096 0.64 0.0
H2847 H 0.16166 0.19258 0.70796 0.0
C2848 C 0.17056 0.09637 0.56558 0.0
C2849 C 0.1823 0.08933 0.53747 0.0
C2850 C 0.1711 0.11531 0.6035 0.0
C2851 C 0.18336 0.12851 0.61383 0.0
C2852 C 0.19522 0.12109 0.58605 0.0
C2853 C 0.19472 0.1016 0.54874 0.0
C2854 C 0.19505 0.17517 0.7203 0.0
C2855 C 0.18284 0.18822 0.73108 0.0
C2856 C 0.19536 0.15606 0.68212 0.0
C2857 C 0.18352 0.14985 0.65298 0.0
C2858 C 0.17155 0.16406 0.66245 0.0
C2859 C 0.17118 0.18258 0.70126 0.0
H2860 H 0.53735 0.57988 0.70814 0.0
H2861 H 0.5783 0.60227 0.75077 0.0
H2862 H 0.53689 0.6125 0.64073 0.0
H2863 H 0.57765 0.63555 0.68633 0.0
H2864 H 0.58001 0.67688 0.5348 0.0
H2865 H 0.57921 0.64335 0.59859 0.0
H2866 H 0.53568 0.65542 0.61816 0.0
H2867 H 0.53646 0.68819 0.55107 0.0
C2868 C 0.54621 0.59186 0.70337 0.0
C2869 C 0.55792 0.58819 0.73455 0.0
C2870 C 0.54593 0.61079 0.66491 0.0
C2871 C 0.5573 0.62678 0.65702 0.0
C2872 C 0.56881 0.62337 0.68955 0.0
C2873 C 0.56915 0.60431 0.7272 0.0
C2874 C 0.57023 0.67237 0.55249 0.0
C2875 C 0.55835 0.68562 0.53827 0.0
C2876 C 0.56977 0.65318 0.58981 0.0
C2877 C 0.55742 0.64668 0.61501 0.0
C2878 C 0.54542 0.65963 0.59989 0.0
C2879 C 0.54586 0.6787 0.56174 0.0
H2880 H 0.29144 0.17538 0.27314 0.0
H2881 H 0.30823 0.21185 0.13715 0.0
H2882 H 0.29333 0.13472 0.23005 0.0
H2883 H 0.31014 0.17089 0.09359 0.0
H2884 H 0.29108 0.10027 1.01403 0.0
H2885 H 0.29354 0.14034 0.0584 0.0
H2886 H 0.30913 0.10222 0.19466 0.0
H2887 H 0.30667 0.06163 0.14952 0.0
C2888 C 0.29569 0.17467 0.23411 0.0
C2889 C 0.29963 0.1969 0.20848 0.0
C2890 C 0.29687 0.15127 0.20953 0.0
C2891 C 0.30187 0.14939 0.15825 0.0
C2892 C 0.30614 0.17162 0.13298 0.0
C2893 C 0.30511 0.19509 0.15794 0.0
C2894 C 0.29517 0.10036 0.05333 0.0
C2895 C 0.29864 0.0777 0.07829 0.0
C2896 C 0.29668 0.12346 0.07867 0.0
C2897 C 0.30157 0.12468 0.13015 0.0
C2898 C 0.30527 0.102 0.15506 0.0
C2899 C 0.30393 0.07875 0.12923 0.0
H2900 H 0.93081 0.20664 0.14025 0.0
H2901 H 0.94934 0.17001 1.0077 0.0
H2902 H 0.92884 0.16592 0.18444 0.0
H2903 H 0.94748 0.12954 0.05157 0.0
H2904 H 0.93408 0.05644 0.12999 0.0
H2905 H 0.93196 0.09679 0.08409 0.0
H2906 H 0.94452 0.13571 0.22394 0.0
H2907 H 0.94655 0.09577 0.26926 0.0
C2908 C 0.93433 0.18988 0.12037 0.0
C2909 C 0.94026 0.19159 0.07054 0.0
C2910 C 0.93328 0.16653 0.14574 0.0
C2911 C 0.93802 0.14429 0.12169 0.0
C2912 C 0.94356 0.14607 0.07116 0.0
C2913 C 0.94472 0.16937 0.04611 0.0
C2914 C 0.93619 0.07367 0.15095 0.0
C2915 C 0.94049 0.07287 0.20324 0.0
C2916 C 0.93507 0.09681 0.12463 0.0
C2917 C 0.93807 0.11966 0.15022 0.0
C2918 C 0.94195 0.11869 0.20301 0.0
C2919 C 0.9432 0.09568 0.22897 0.0
H2920 H 0.6818 0.96 0.88218 0.0
H2921 H 0.6972 0.92288 0.01976 0.0
H2922 H 0.67928 0.91909 0.83901 0.0
H2923 H 0.69477 0.88226 0.97698 0.0
H2924 H 0.68064 0.80983 0.89853 0.0
H2925 H 0.6788 0.85081 0.94217 0.0
H2926 H 0.69477 0.88705 0.80428 0.0
H2927 H 0.69652 0.84647 0.76116 0.0
C2928 C 0.6845 0.94311 0.90337 0.0
C2929 C 0.68974 0.94471 0.95431 0.0
C2930 C 0.68313 0.91966 0.87861 0.0
C2931 C 0.68684 0.89724 0.90442 0.0
C2932 C 0.69165 0.89895 0.95601 0.0
C2933 C 0.69313 0.92233 0.98045 0.0
C2934 C 0.68357 0.82663 0.87748 0.0
C2935 C 0.68876 0.82488 0.82646 0.0
C2936 C 0.6826 0.85011 0.9025 0.0
C2937 C 0.68664 0.87238 0.87682 0.0
C2938 C 0.69138 0.87051 0.82517 0.0
C2939 C 0.69248 0.84713 0.80052 0.0
H2940 H 0.04605 0.9293 0.77274 0.0
H2941 H 0.05653 0.97001 0.9127 0.0
H2942 H 0.04855 0.88982 0.81847 0.0
H2943 H 0.05923 0.92984 0.95935 0.0
H2944 H 0.04156 0.85531 0.03216 0.0
H2945 H 0.0441 0.89615 0.99033 0.0
H2946 H 0.064 0.86061 0.85905 0.0
H2947 H 0.06121 0.81956 0.90086 0.0
C2948 C 0.04911 0.92979 0.81336 0.0
C2949 C 0.05106 0.95284 0.83911 0.0
C2950 C 0.05066 0.90701 0.83957 0.0
C2951 C 0.05413 0.90644 0.89271 0.0
C2952 C 0.05647 0.92954 0.91845 0.0
C2953 C 0.05504 0.95256 0.89177 0.0
C2954 C 0.0466 0.85623 0.99455 0.0
C2955 C 0.05107 0.83415 0.96958 0.0
C2956 C 0.04817 0.87974 0.97074 0.0
C2957 C 0.05421 0.88183 0.92113 0.0
C2958 C 0.05914 0.85975 0.89699 0.0
C2959 C 0.0576 0.8362 0.92096 0.0
H2960 H 0.31253 0.71021 0.63399 0.0
H2961 H 0.29738 0.67412 0.77318 0.0
H2962 H 0.31472 0.66901 0.59172 0.0
H2963 H 0.29946 0.63324 0.7313 0.0
H2964 H 0.31259 0.56007 0.65329 0.0
H2965 H 0.31506 0.60117 0.69606 0.0
H2966 H 0.29876 0.6374 0.55873 0.0
H2967 H 0.29639 0.59674 0.51651 0.0
C2968 C 0.30983 0.69348 0.65573 0.0
C2969 C 0.30474 0.69544 0.70683 0.0
C2970 C 0.31101 0.66987 0.6315 0.0
C2971 C 0.30725 0.64768 0.65802 0.0
C2972 C 0.30262 0.64975 0.70979 0.0
C2973 C 0.30133 0.67328 0.73372 0.0
C2974 C 0.30972 0.57688 0.63218 0.0
C2975 C 0.30425 0.57513 0.58162 0.0
C2976 C 0.31106 0.60043 0.65669 0.0
C2977 C 0.3071 0.62272 0.63089 0.0
C2978 C 0.30208 0.62082 0.57966 0.0
C2979 C 0.30063 0.5974 0.55555 0.0
H2980 H 0.9474 0.66701 0.50374 0.0
H2981 H 0.93461 0.70527 0.64391 0.0
H2982 H 0.94578 0.62674 0.54838 0.0
H2983 H 0.93292 0.6647 0.68903 0.0
H2984 H 0.95159 0.59259 0.76436 0.0
H2985 H 0.94915 0.63285 0.72035 0.0
H2986 H 0.93048 0.59563 0.58861 0.0
H2987 H 0.93301 0.55503 0.6331 0.0
C2988 C 0.94405 0.66678 0.54404 0.0
C2989 C 0.94115 0.68937 0.57028 0.0
C2990 C 0.94304 0.6436 0.5696 0.0
C2991 C 0.93924 0.64231 0.62244 0.0
C2992 C 0.93599 0.66494 0.64844 0.0
C2993 C 0.93686 0.6882 0.62256 0.0
C2994 C 0.94684 0.59297 0.72617 0.0
C2995 C 0.94253 0.57055 0.70218 0.0
C2996 C 0.94534 0.61616 0.70104 0.0
C2997 C 0.9396 0.61766 0.65083 0.0
C2998 C 0.93505 0.59522 0.62711 0.0
C2999 C 0.93642 0.57195 0.65263 0.0
H3000 H 0.68008 0.45977 0.381 0.0
H3001 H 0.69626 0.42241 0.51699 0.0
H3002 H 0.67761 0.4189 0.33737 0.0
H3003 H 0.69396 0.38199 0.47385 0.0
H3004 H 0.68111 0.30922 0.39614 0.0
H3005 H 0.6786 0.35001 0.43997 0.0
H3006 H 0.69294 0.38744 0.30085 0.0
H3007 H 0.69528 0.34705 0.25747 0.0
C3008 C 0.68295 0.44285 0.40176 0.0
C3009 C 0.68841 0.44437 0.45236 0.0
C3010 C 0.68162 0.41942 0.37675 0.0
C3011 C 0.6856 0.39698 0.40198 0.0
C3012 C 0.6906 0.39865 0.45328 0.0
C3013 C 0.69203 0.42195 0.47794 0.0
C3014 C 0.68352 0.32622 0.37485 0.0
C3015 C 0.68844 0.32486 0.32341 0.0
C3016 C 0.68217 0.34962 0.39998 0.0
C3017 C 0.68559 0.37218 0.37406 0.0
C3018 C 0.69003 0.37067 0.32198 0.0
C3019 C 0.69147 0.34739 0.29717 0.0
H3020 H 0.04603 0.35484 0.51108 0.0
H3021 H 0.0588 0.31538 0.37226 0.0
H3022 H 0.04817 0.39466 0.46612 0.0
H3023 H 0.06114 0.35582 0.32656 0.0
H3024 H 0.04293 0.42873 0.25098 0.0
H3025 H 0.04574 0.38824 0.29359 0.0
H3026 H 0.06334 0.4252 0.4278 0.0
H3027 H 0.06029 0.46602 0.38502 0.0
C3028 C 0.0495 0.35471 0.47092 0.0
C3029 C 0.05219 0.3319 0.44517 0.0
C3030 C 0.05084 0.37768 0.44519 0.0
C3031 C 0.05485 0.37865 0.39261 0.0
C3032 C 0.05793 0.35581 0.367 0.0
C3033 C 0.05669 0.33264 0.39314 0.0
C3034 C 0.04753 0.42824 0.28941 0.0
C3035 C 0.05129 0.45064 0.3148 0.0
C3036 C 0.04926 0.40491 0.3137 0.0
C3037 C 0.05473 0.40328 0.3643 0.0
C3038 C 0.05894 0.4257 0.38904 0.0
C3039 C 0.05726 0.44912 0.36453 0.0
H3040 H 0.80965 0.06377 0.64204 0.0
H3041 H 0.79698 0.10221 0.50203 0.0
H3042 H 0.81128 0.10428 0.68749 0.0
H3043 H 0.7985 0.14239 0.547 0.0
H3044 H 0.81077 0.21411 0.63206 0.0
H3045 H 0.81353 0.17359 0.58741 0.0
H3046 H 0.79513 0.13594 0.71916 0.0
H3047 H 0.7925 0.17612 0.76337 0.0
C3048 C 0.80741 0.08087 0.6208 0.0
C3049 C 0.80317 0.07976 0.56847 0.0
C3050 C 0.80824 0.10409 0.64687 0.0
C3051 C 0.80499 0.12675 0.62102 0.0
C3052 C 0.80125 0.12552 0.56812 0.0
C3053 C 0.80029 0.10239 0.54237 0.0
C3054 C 0.80748 0.19712 0.65156 0.0
C3055 C 0.80138 0.19836 0.70117 0.0
C3056 C 0.80898 0.17388 0.62595 0.0
C3057 C 0.80455 0.15135 0.6496 0.0
C3058 C 0.79884 0.15271 0.69989 0.0
C3059 C 0.79723 0.17585 0.72513 0.0
H3060 H 0.42959 0.21156 0.65108 0.0
H3061 H 0.44478 0.17438 0.5131 0.0
H3062 H 0.42733 0.17065 0.69451 0.0
H3063 H 0.44267 0.13388 0.55608 0.0
H3064 H 0.42945 0.06131 0.63377 0.0
H3065 H 0.42715 0.1023 0.5908 0.0
H3066 H 0.44278 0.13874 0.7291 0.0
H3067 H 0.44491 0.09809 0.77171 0.0
C3068 C 0.4323 0.19467 0.62988 0.0
C3069 C 0.4374 0.19623 0.57873 0.0
C3070 C 0.43108 0.17122 0.65477 0.0
C3071 C 0.43483 0.14882 0.62888 0.0
C3072 C 0.43951 0.15053 0.57714 0.0
C3073 C 0.44081 0.17386 0.55256 0.0
C3074 C 0.4322 0.07814 0.65507 0.0
C3075 C 0.4374 0.07644 0.70605 0.0
C3076 C 0.43097 0.10164 0.63043 0.0
C3077 C 0.4348 0.12396 0.65638 0.0
C3078 C 0.43955 0.12213 0.70801 0.0
C3079 C 0.44087 0.09873 0.73236 0.0
H3080 H 0.19605 0.92738 0.51603 0.0
H3081 H 0.18006 0.96417 0.37903 0.0
H3082 H 0.19379 0.88676 0.47348 0.0
H3083 H 0.17766 0.92316 0.33605 0.0
H3084 H 0.19532 0.85089 0.25789 0.0
H3085 H 0.19312 0.89148 0.30059 0.0
H3086 H 0.1782 0.85484 0.43974 0.0
H3087 H 0.18056 0.81385 0.39658 0.0
C3088 C 0.19188 0.92676 0.47689 0.0
C3089 C 0.18828 0.94906 0.45084 0.0
C3090 C 0.19048 0.90335 0.45258 0.0
C3091 C 0.18554 0.9015 0.40121 0.0
C3092 C 0.18161 0.92383 0.37549 0.0
C3093 C 0.18291 0.94734 0.40012 0.0
C3094 C 0.19141 0.85146 0.29744 0.0
C3095 C 0.18817 0.8291 0.32391 0.0
C3096 C 0.19005 0.87484 0.32185 0.0
C3097 C 0.18549 0.87661 0.37375 0.0
C3098 C 0.18187 0.85423 0.39988 0.0
C3099 C 0.18313 0.83073 0.37514 0.0
H3100 H 0.549 0.84667 0.5376 0.0
H3101 H 0.55447 0.81289 0.38626 0.0
H3102 H 0.55293 0.88805 0.50062 0.0
H3103 H 0.55736 0.85443 0.34772 0.0
H3104 H 0.56757 0.93022 0.28634 0.0
H3105 H 0.56929 0.89018 0.33186 0.0
H3106 H 0.54321 0.91949 0.45434 0.0
H3107 H 0.54255 0.95993 0.41009 0.0
C3108 C 0.55102 0.84819 0.49615 0.0
C3109 C 0.55142 0.82657 0.4648 0.0
C3110 C 0.55314 0.87204 0.47464 0.0
C3111 C 0.55532 0.87513 0.42067 0.0
C3112 C 0.55598 0.85321 0.38951 0.0
C3113 C 0.55423 0.82923 0.41144 0.0
C3114 C 0.56268 0.92824 0.32408 0.0
C3115 C 0.5552 0.94827 0.34536 0.0
C3116 C 0.5634 0.90506 0.34983 0.0
C3117 C 0.55619 0.90097 0.39678 0.0
C3118 C 0.54913 0.9216 0.41893 0.0
C3119 C 0.54874 0.94499 0.39369 0.0
H3120 H 0.79909 0.6756 0.26745 0.0
H3121 H 0.81245 0.71317 0.12732 0.0
H3122 H 0.80094 0.63515 0.22386 0.0
H3123 H 0.81444 0.67235 0.08325 0.0
H3124 H 0.79603 0.59996 1.00831 0.0
H3125 H 0.79857 0.64046 0.05122 0.0
H3126 H 0.8161 0.6037 0.18575 0.0
H3127 H 0.81341 0.56283 0.14244 0.0
C3128 C 0.80262 0.67518 0.22739 0.0
C3129 C 0.80559 0.69764 0.20082 0.0
C3130 C 0.80378 0.65188 0.20244 0.0
C3131 C 0.80782 0.65031 0.1499 0.0
C3132 C 0.81117 0.67281 0.12362 0.0
C3133 C 0.81013 0.69621 0.14888 0.0
C3134 C 0.80056 0.60049 0.04688 0.0
C3135 C 0.80447 0.57813 0.07204 0.0
C3136 C 0.80212 0.62381 0.07138 0.0
C3137 C 0.80754 0.62552 0.12207 0.0
C3138 C 0.81177 0.60314 0.14687 0.0
C3139 C 0.81031 0.57971 0.12203 0.0
H3140 H 0.44688 0.56013 0.11497 0.0
H3141 H 0.43307 0.59381 0.2583 0.0
H3142 H 0.44589 0.60092 0.07202 0.0
H3143 H 0.43075 0.6342 0.21515 0.0
H3144 H 0.44331 0.70945 0.14527 0.0
H3145 H 0.4416 0.66842 0.18672 0.0
H3146 H 0.43581 0.63409 0.03506 0.0
H3147 H 0.43882 0.67488 0.99435 0.0
C3148 C 0.44315 0.5762 0.13669 0.0
C3149 C 0.43999 0.57385 0.18978 0.0
C3150 C 0.44252 0.59979 0.11212 0.0
C3151 C 0.43834 0.62155 0.13974 0.0
C3152 C 0.43445 0.61851 0.19238 0.0
C3153 C 0.43554 0.59516 0.21718 0.0
C3154 C 0.44153 0.69306 0.12113 0.0
C3155 C 0.44123 0.69533 0.06667 0.0
C3156 C 0.44047 0.66933 0.14482 0.0
C3157 C 0.43864 0.64727 0.11471 0.0
C3158 C 0.43764 0.65008 0.06012 0.0
C3159 C 0.43917 0.67364 0.03653 0.0
H3160 H 0.18152 0.34511 0.76786 0.0
H3161 H 0.19441 0.31153 0.91243 0.0
H3162 H 0.17879 0.38545 0.81087 0.0
H3163 H 0.19306 0.35228 0.95533 0.0
H3164 H 0.18539 0.4262 0.03276 0.0
H3165 H 0.18293 0.38533 0.99177 0.0
H3166 H 0.18892 0.41995 0.84051 0.0
H3167 H 0.19 0.46096 0.88216 0.0
C3168 C 0.18372 0.34648 0.80919 0.0
C3169 C 0.18802 0.3252 0.83697 0.0
C3170 C 0.1824 0.36982 0.83397 0.0
C3171 C 0.18591 0.37289 0.88702 0.0
C3172 C 0.18996 0.35116 0.91492 0.0
C3173 C 0.19081 0.32758 0.89036 0.0
C3174 C 0.18589 0.42498 0.9906 0.0
C3175 C 0.1878 0.44676 0.96064 0.0
C3176 C 0.18469 0.40137 0.96683 0.0
C3177 C 0.1859 0.39861 0.91225 0.0
C3178 C 0.18762 0.42076 0.88235 0.0
C3179 C 0.18833 0.44451 0.90619 0.0
H3180 H 0.56899 0.3264 0.95429 0.0
H3181 H 0.52681 0.32284 0.90476 0.0
H3182 H 0.57016 0.37039 0.92596 0.0
H3183 H 0.52804 0.36592 0.87428 0.0
H3184 H 0.52696 0.4491 0.87734 0.0
H3185 H 0.52805 0.40611 0.9085 0.0
H3186 H 0.57027 0.40117 0.85813 0.0
H3187 H 0.56925 0.44509 0.82918 0.0
C3188 C 0.56007 0.33487 0.93632 0.0
C3189 C 0.54777 0.32126 0.93217 0.0
C3190 C 0.56071 0.36012 0.92006 0.0
C3191 C 0.54909 0.37219 0.8988 0.0
C3192 C 0.53708 0.35784 0.89214 0.0
C3193 C 0.53639 0.33292 0.90905 0.0
C3194 C 0.53654 0.43894 0.87357 0.0
C3195 C 0.54798 0.45045 0.85059 0.0
C3196 C 0.53715 0.41408 0.89084 0.0
C3197 C 0.54914 0.39962 0.88467 0.0
C3198 C 0.56084 0.41154 0.86366 0.0
C3199 C 0.56028 0.43675 0.84705 0.0
loop_
_geom_bond_atom_site_label_1
_geom_bond_atom_site_label_2
_geom_bond_distance
_geom_bond_site_symmetry_2
_ccdc_geom_bond_type
Pr0 C2 2.880 . S
Pr0 O20 2.562 . S
Pr0 O21 2.490 . S
Pr0 O22 2.695 . S
Pr0 O23 2.512 . S
Pr0 O25 2.437 . S
Pr0 O28 2.436 . S
Pr0 O30 2.438 . S
Pr1 C11 2.880 . S
Pr1 O22 2.436 . S
Pr1 O24 2.438 . S
Pr1 O26 2.562 . S
Pr1 O27 2.490 . S
Pr1 O28 2.695 . S
Pr1 O29 2.512 . S
Pr1 O31 2.437 . S
C2 Pr0 2.880 . S
C2 C3 1.492 . S
C2 O20 1.254 . S
C2 O21 1.225 . S
C3 C2 1.492 . S
C3 C4 1.392 1_554 S
C3 C8 1.355 1_554 S
C4 C3 1.392 1_556 S
C4 C5 1.368 . S
C4 H32 0.929 . S
C5 C4 1.368 . S
C5 C6 1.386 . S
C5 H33 0.929 . S
C6 C5 1.386 . S
C6 C7 1.373 . S
C7 C6 1.373 . S
C7 C8 1.409 . S
C7 H34 0.931 . S
C8 C3 1.355 1_556 S
C8 C7 1.409 . S
C8 H35 0.930 . S
C9 O22 1.270 . S
C9 O23 1.248 . S
C10 O24 1.267 . S
C10 O25 1.278 . S
C11 Pr1 2.880 . S
C11 C12 1.491 . S
C11 O26 1.254 . S
C11 O27 1.225 . S
C12 C11 1.491 . S
C12 C13 1.392 . S
C12 C17 1.356 . S
C13 C12 1.392 . S
C13 C14 1.368 . S
C13 H36 0.929 . S
C14 C13 1.368 . S
C14 C15 1.386 . S
C14 H37 0.929 . S
C15 C14 1.386 . S
C15 C16 1.373 . S
C16 C15 1.373 . S
C16 C17 1.409 . S
C16 H38 0.931 . S
C17 C12 1.356 . S
C17 C16 1.409 . S
C17 H39 0.930 . S
C18 O28 1.270 . S
C18 O29 1.248 . S
C19 O30 1.267 . S
C19 O31 1.278 . S
O20 Pr0 2.562 . S
O20 C2 1.254 . S
O21 Pr0 2.490 . S
O21 C2 1.225 . S
O22 Pr0 2.695 . S
O22 Pr1 2.436 . S
O22 C9 1.270 . S
O23 Pr0 2.512 . S
O23 C9 1.248 . S
O24 Pr1 2.438 . S
O24 C10 1.267 . S
O25 Pr0 2.437 . S
O25 C10 1.278 . S
O26 Pr1 2.562 . S
O26 C11 1.254 . S
O27 Pr1 2.490 . S
O27 C11 1.225 . S
O28 Pr0 2.436 . S
O28 Pr1 2.695 . S
O28 C18 1.270 . S
O29 Pr1 2.512 . S
O29 C18 1.248 . S
O30 Pr0 2.438 . S
O30 C19 1.267 . S
O31 Pr1 2.437 . S
O31 C19 1.278 . S
H32 C4 0.929 . S
H33 C5 0.929 . S
H34 C7 0.931 . S
H35 C8 0.930 . S
H36 C13 0.929 . S
H37 C14 0.929 . S
H38 C16 0.931 . S
H39 C17 0.930 . S
Pr40 C42 2.880 . S
Pr40 O60 2.562 1_565 S
Pr40 O61 2.490 . S
Pr40 O62 2.695 . S
Pr40 O63 2.512 . S
Pr40 O65 2.437 . S
Pr40 O68 2.436 1_565 S
Pr40 O70 2.438 . S
Pr41 C51 2.880 . S
Pr41 O62 2.436 1_545 S
Pr41 O64 2.438 . S
Pr41 O66 2.562 1_545 S
Pr41 O67 2.490 . S
Pr41 O68 2.695 . S
Pr41 O69 2.512 . S
Pr41 O71 2.437 . S
C42 Pr40 2.880 . S
C42 C43 1.480 1_554 S
C42 O60 1.254 1_565 S
C42 O61 1.225 . S
C43 C42 1.480 1_556 S
C43 C44 1.397 . S
C43 C48 1.384 . S
C44 C43 1.397 . S
C44 C45 1.368 . S
C44 H72 0.929 . S
C45 C44 1.368 . S
C45 C46 1.386 . S
C45 H73 0.929 . S
C46 C45 1.386 . S
C46 C47 1.373 . S
C47 C46 1.373 . S
C47 C48 1.413 . S
C47 H74 0.931 1_565 S
C48 C43 1.384 . S
C48 C47 1.413 . S
C48 H75 0.904 1_565 S
C49 O62 1.270 . S
C49 O63 1.248 . S
C50 O64 1.267 1_565 S
C50 O65 1.278 . S
C51 Pr41 2.880 . S
C51 C52 1.491 . S
C51 O66 1.254 1_545 S
C51 O67 1.225 . S
C52 C51 1.491 . S
C52 C53 1.392 . S
C52 C57 1.369 . S
C53 C52 1.392 . S
C53 C54 1.368 . S
C53 H76 0.929 . S
C54 C53 1.368 . S
C54 C55 1.386 . S
C54 H77 0.929 . S
C55 C54 1.386 . S
C55 C56 1.373 . S
C56 C55 1.373 . S
C56 C57 1.411 . S
C56 H78 0.931 1_545 S
C57 C52 1.369 . S
C57 C56 1.411 . S
C57 H79 0.914 1_545 S
C58 O68 1.270 . S
C58 O69 1.248 . S
C59 O70 1.267 1_545 S
C59 O71 1.278 . S
O60 Pr40 2.562 1_545 S
O60 C42 1.254 1_545 S
O61 Pr40 2.490 . S
O61 C42 1.225 . S
O62 Pr40 2.695 . S
O62 Pr41 2.436 1_565 S
O62 C49 1.270 . S
O63 Pr40 2.512 . S
O63 C49 1.248 . S
O64 Pr41 2.438 . S
O64 C50 1.267 1_545 S
O65 Pr40 2.437 . S
O65 C50 1.278 . S
O66 Pr41 2.562 1_565 S
O66 C51 1.254 1_565 S
O67 Pr41 2.490 . S
O67 C51 1.225 . S
O68 Pr40 2.436 1_545 S
O68 Pr41 2.695 . S
O68 C58 1.270 . S
O69 Pr41 2.512 . S
O69 C58 1.248 . S
O70 Pr40 2.438 . S
O70 C59 1.267 1_565 S
O71 Pr41 2.437 . S
O71 C59 1.278 . S
H72 C44 0.929 . S
H73 C45 0.929 . S
H74 C47 0.931 1_545 S
H75 C48 0.904 1_545 S
H76 C53 0.929 . S
H77 C54 0.929 . S
H78 C56 0.931 1_565 S
H79 C57 0.914 1_565 S
Pr80 C82 2.880 . S
Pr80 O100 2.562 1_565 S
Pr80 O101 2.490 . S
Pr80 O102 2.695 . S
Pr80 O103 2.512 . S
Pr80 O105 2.437 . S
Pr80 O108 2.436 1_565 S
Pr80 O110 2.438 . S
Pr81 C91 2.880 . S
Pr81 O102 2.436 1_546 S
Pr81 O104 2.438 1_556 S
Pr81 O106 2.562 1_545 S
Pr81 O107 2.490 . S
Pr81 O108 2.695 1_556 S
Pr81 O109 2.512 1_556 S
Pr81 O111 2.437 . S
C82 Pr80 2.880 . S
C82 C83 1.491 . S
C82 O100 1.254 1_565 S
C82 O101 1.225 . S
C83 C82 1.491 . S
C83 C84 1.392 . S
C83 C88 1.378 . S
C84 C83 1.392 . S
C84 C85 1.368 . S
C84 H112 0.929 . S
C85 C84 1.368 . S
C85 C86 1.386 . S
C85 H113 0.929 . S
C86 C85 1.386 . S
C86 C87 1.373 . S
C87 C86 1.373 . S
C87 C88 1.413 . S
C87 H114 0.931 1_565 S
C88 C83 1.378 . S
C88 C87 1.413 . S
C88 H115 0.904 1_565 S
C89 O102 1.270 . S
C89 O103 1.248 . S
C90 O104 1.267 1_565 S
C90 O105 1.278 . S
C91 Pr81 2.880 . S
C91 C92 1.491 . S
C91 O106 1.254 1_545 S
C91 O107 1.225 . S
C92 C91 1.491 . S
C92 C93 1.392 . S
C92 C97 1.369 . S
C93 C92 1.392 . S
C93 C94 1.368 . S
C93 H116 0.929 . S
C94 C93 1.368 . S
C94 C95 1.386 . S
C94 H117 0.929 . S
C95 C94 1.386 . S
C95 C96 1.373 . S
C96 C95 1.373 . S
C96 C97 1.411 . S
C96 H118 0.931 1_545 S
C97 C92 1.369 . S
C97 C96 1.411 . S
C97 H119 0.914 1_545 S
C98 O108 1.270 . S
C98 O109 1.248 . S
C99 O110 1.267 1_546 S
C99 O111 1.278 . S
O100 Pr80 2.562 1_545 S
O100 C82 1.254 1_545 S
O101 Pr80 2.490 . S
O101 C82 1.225 . S
O102 Pr80 2.695 . S
O102 Pr81 2.436 1_564 S
O102 C89 1.270 . S
O103 Pr80 2.512 . S
O103 C89 1.248 . S
O104 Pr81 2.438 1_554 S
O104 C90 1.267 1_545 S
O105 Pr80 2.437 . S
O105 C90 1.278 . S
O106 Pr81 2.562 1_565 S
O106 C91 1.254 1_565 S
O107 Pr81 2.490 . S
O107 C91 1.225 . S
O108 Pr80 2.436 1_545 S
O108 Pr81 2.695 1_554 S
O108 C98 1.270 . S
O109 Pr81 2.512 1_554 S
O109 C98 1.248 . S
O110 Pr80 2.438 . S
O110 C99 1.267 1_564 S
O111 Pr81 2.437 . S
O111 C99 1.278 . S
H112 C84 0.929 . S
H113 C85 0.929 . S
H114 C87 0.931 1_545 S
H115 C88 0.904 1_545 S
H116 C93 0.929 . S
H117 C94 0.929 . S
H118 C96 0.931 1_565 S
H119 C97 0.914 1_565 S
Pr120 C122 2.880 . S
Pr120 O140 2.562 . S
Pr120 O141 2.490 . S
Pr120 O142 2.704 . S
Pr120 O143 2.512 . S
Pr120 O145 2.437 . S
Pr120 O148 2.436 . S
Pr120 O150 2.438 . S
Pr121 C131 2.880 . S
Pr121 O142 2.432 1_556 S
Pr121 O144 2.438 1_556 S
Pr121 O146 2.562 . S
Pr121 O147 2.490 . S
Pr121 O148 2.695 1_556 S
Pr121 O149 2.507 1_556 S
Pr121 O151 2.437 . S
C122 Pr120 2.880 . S
C122 C123 1.491 . S
C122 O140 1.254 . S
C122 O141 1.225 . S
C123 C122 1.491 . S
C123 C124 1.392 . S
C123 C128 1.356 . S
C124 C123 1.392 . S
C124 C125 1.368 . S
C124 H152 0.929 . S
C125 C124 1.368 . S
C125 C126 1.386 . S
C125 H153 0.929 . S
C126 C125 1.386 . S
C126 C127 1.373 . S
C127 C126 1.373 . S
C127 C128 1.409 . S
C127 H154 0.931 . S
C128 C123 1.356 . S
C128 C127 1.409 . S
C128 H155 0.930 . S
C129 O142 1.273 . S
C129 O143 1.248 . S
C130 O144 1.267 . S
C130 O145 1.278 . S
C131 Pr121 2.880 . S
C131 C132 1.491 . S
C131 O146 1.254 . S
C131 O147 1.225 . S
C132 C131 1.491 . S
C132 C133 1.392 . S
C132 C137 1.356 . S
C133 C132 1.392 . S
C133 C134 1.368 . S
C133 H156 0.929 . S
C134 C133 1.368 . S
C134 C135 1.386 . S
C134 H157 0.929 . S
C135 C134 1.386 . S
C135 C136 1.373 . S
C136 C135 1.373 . S
C136 C137 1.409 . S
C136 H158 0.931 . S
C137 C132 1.356 . S
C137 C136 1.409 . S
C137 H159 0.930 . S
C138 O148 1.270 . S
C138 O149 1.264 . S
C139 O150 1.267 1_556 S
C139 O151 1.278 . S
O140 Pr120 2.562 . S
O140 C122 1.254 . S
O141 Pr120 2.490 . S
O141 C122 1.225 . S
O142 Pr120 2.704 . S
O142 Pr121 2.432 1_554 S
O142 C129 1.273 . S
O143 Pr120 2.512 . S
O143 C129 1.248 . S
O144 Pr121 2.438 1_554 S
O144 C130 1.267 . S
O145 Pr120 2.437 . S
O145 C130 1.278 . S
O146 Pr121 2.562 . S
O146 C131 1.254 . S
O147 Pr121 2.490 . S
O147 C131 1.225 . S
O148 Pr120 2.436 . S
O148 Pr121 2.695 1_554 S
O148 C138 1.270 . S
O149 Pr121 2.507 1_554 S
O149 C138 1.264 . S
O150 Pr120 2.438 . S
O150 C139 1.267 1_554 S
O151 Pr121 2.437 . S
O151 C139 1.278 . S
H152 C124 0.929 . S
H153 C125 0.929 . S
H154 C127 0.931 . S
H155 C128 0.930 . S
H156 C133 0.929 . S
H157 C134 0.929 . S
H158 C136 0.931 . S
H159 C137 0.930 . S
Pr160 C162 2.880 . S
Pr160 O180 2.562 . S
Pr160 O181 2.490 . S
Pr160 O182 2.695 . S
Pr160 O183 2.512 . S
Pr160 O185 2.437 . S
Pr160 O188 2.436 . S
Pr160 O190 2.438 . S
Pr161 C171 2.880 . S
Pr161 O182 2.436 . S
Pr161 O184 2.438 . S
Pr161 O186 2.562 . S
Pr161 O187 2.490 . S
Pr161 O188 2.695 . S
Pr161 O189 2.512 . S
Pr161 O191 2.437 . S
C162 Pr160 2.880 . S
C162 C163 1.491 . S
C162 O180 1.254 . S
C162 O181 1.225 . S
C163 C162 1.491 . S
C163 C164 1.392 . S
C163 C168 1.356 . S
C164 C163 1.392 . S
C164 C165 1.368 . S
C164 H192 0.929 . S
C165 C164 1.368 . S
C165 C166 1.386 . S
C165 H193 0.929 . S
C166 C165 1.386 . S
C166 C167 1.373 . S
C167 C166 1.373 . S
C167 C168 1.409 . S
C167 H194 0.931 . S
C168 C163 1.356 . S
C168 C167 1.409 . S
C168 H195 0.930 . S
C169 O182 1.270 . S
C169 O183 1.248 . S
C170 O184 1.267 . S
C170 O185 1.278 . S
C171 Pr161 2.880 . S
C171 C172 1.492 . S
C171 O186 1.254 . S
C171 O187 1.225 . S
C172 C171 1.492 . S
C172 C173 1.392 1_556 S
C172 C177 1.355 1_556 S
C173 C172 1.392 1_554 S
C173 C174 1.368 . S
C173 H196 0.929 . S
C174 C173 1.368 . S
C174 C175 1.386 . S
C174 H197 0.929 . S
C175 C174 1.386 . S
C175 C176 1.373 . S
C176 C175 1.373 . S
C176 C177 1.409 . S
C176 H198 0.931 . S
C177 C172 1.355 1_554 S
C177 C176 1.409 . S
C177 H199 0.930 . S
C178 O188 1.270 . S
C178 O189 1.248 . S
C179 O190 1.267 . S
C179 O191 1.278 . S
O180 Pr160 2.562 . S
O180 C162 1.254 . S
O181 Pr160 2.490 . S
O181 C162 1.225 . S
O182 Pr160 2.695 . S
O182 Pr161 2.436 . S
O182 C169 1.270 . S
O183 Pr160 2.512 . S
O183 C169 1.248 . S
O184 Pr161 2.438 . S
O184 C170 1.267 . S
O185 Pr160 2.437 . S
O185 C170 1.278 . S
O186 Pr161 2.562 . S
O186 C171 1.254 . S
O187 Pr161 2.490 . S
O187 C171 1.225 . S
O188 Pr160 2.436 . S
O188 Pr161 2.695 . S
O188 C178 1.270 . S
O189 Pr161 2.512 . S
O189 C178 1.248 . S
O190 Pr160 2.438 . S
O190 C179 1.267 . S
O191 Pr161 2.437 . S
O191 C179 1.278 . S
H192 C164 0.929 . S
H193 C165 0.929 . S
H194 C167 0.931 . S
H195 C168 0.930 . S
H196 C173 0.929 . S
H197 C174 0.929 . S
H198 C176 0.931 . S
H199 C177 0.930 . S
Pr200 C202 2.880 . S
Pr200 O220 2.562 1_565 S
Pr200 O221 2.490 . S
Pr200 O222 2.695 . S
Pr200 O223 2.512 . S
Pr200 O225 2.437 . S
Pr200 O228 2.436 1_565 S
Pr200 O230 2.438 . S
Pr201 C211 2.880 . S
Pr201 O222 2.436 1_545 S
Pr201 O224 2.438 . S
Pr201 O226 2.562 1_545 S
Pr201 O227 2.490 . S
Pr201 O228 2.695 . S
Pr201 O229 2.512 . S
Pr201 O231 2.437 . S
C202 Pr200 2.880 . S
C202 C203 1.491 . S
C202 O220 1.254 1_565 S
C202 O221 1.225 . S
C203 C202 1.491 . S
C203 C204 1.392 . S
C203 C208 1.369 . S
C204 C203 1.392 . S
C204 C205 1.368 . S
C204 H232 0.929 . S
C205 C204 1.368 . S
C205 C206 1.386 . S
C205 H233 0.929 . S
C206 C205 1.386 . S
C206 C207 1.373 . S
C207 C206 1.373 . S
C207 C208 1.411 . S
C207 H234 0.931 1_565 S
C208 C203 1.369 . S
C208 C207 1.411 . S
C208 H235 0.914 1_565 S
C209 O222 1.270 . S
C209 O223 1.248 . S
C210 O224 1.267 1_565 S
C210 O225 1.278 . S
C211 Pr201 2.880 . S
C211 C212 1.480 1_556 S
C211 O226 1.254 1_545 S
C211 O227 1.225 . S
C212 C211 1.480 1_554 S
C212 C213 1.397 . S
C212 C217 1.384 . S
C213 C212 1.397 . S
C213 C214 1.368 . S
C213 H236 0.929 . S
C214 C213 1.368 . S
C214 C215 1.386 . S
C214 H237 0.929 . S
C215 C214 1.386 . S
C215 C216 1.373 . S
C216 C215 1.373 . S
C216 C217 1.413 . S
C216 H238 0.931 1_545 S
C217 C212 1.384 . S
C217 C216 1.413 . S
C217 H239 0.904 1_545 S
C218 O228 1.270 . S
C218 O229 1.248 . S
C219 O230 1.267 1_545 S
C219 O231 1.278 . S
O220 Pr200 2.562 1_545 S
O220 C202 1.254 1_545 S
O221 Pr200 2.490 . S
O221 C202 1.225 . S
O222 Pr200 2.695 . S
O222 Pr201 2.436 1_565 S
O222 C209 1.270 . S
O223 Pr200 2.512 . S
O223 C209 1.248 . S
O224 Pr201 2.438 . S
O224 C210 1.267 1_545 S
O225 Pr200 2.437 . S
O225 C210 1.278 . S
O226 Pr201 2.562 1_565 S
O226 C211 1.254 1_565 S
O227 Pr201 2.490 . S
O227 C211 1.225 . S
O228 Pr200 2.436 1_545 S
O228 Pr201 2.695 . S
O228 C218 1.270 . S
O229 Pr201 2.512 . S
O229 C218 1.248 . S
O230 Pr200 2.438 . S
O230 C219 1.267 1_565 S
O231 Pr201 2.437 . S
O231 C219 1.278 . S
H232 C204 0.929 . S
H233 C205 0.929 . S
H234 C207 0.931 1_545 S
H235 C208 0.914 1_545 S
H236 C213 0.929 . S
H237 C214 0.929 . S
H238 C216 0.931 1_565 S
H239 C217 0.904 1_565 S
Pr240 C242 2.880 . S
Pr240 O260 2.562 1_565 S
Pr240 O261 2.490 . S
Pr240 O262 2.695 1_554 S
Pr240 O263 2.512 1_554 S
Pr240 O265 2.437 . S
Pr240 O268 2.436 1_564 S
Pr240 O270 2.438 1_554 S
Pr241 C251 2.880 . S
Pr241 O262 2.436 1_545 S
Pr241 O264 2.438 . S
Pr241 O266 2.562 1_545 S
Pr241 O267 2.490 . S
Pr241 O268 2.695 . S
Pr241 O269 2.512 . S
Pr241 O271 2.437 . S
C242 Pr240 2.880 . S
C242 C243 1.491 . S
C242 O260 1.254 1_565 S
C242 O261 1.225 . S
C243 C242 1.491 . S
C243 C244 1.392 . S
C243 C248 1.369 . S
C244 C243 1.392 . S
C244 C245 1.368 . S
C244 H272 0.929 . S
C245 C244 1.368 . S
C245 C246 1.386 . S
C245 H273 0.929 . S
C246 C245 1.386 . S
C246 C247 1.373 . S
C247 C246 1.373 . S
C247 C248 1.411 . S
C247 H274 0.931 1_565 S
C248 C243 1.369 . S
C248 C247 1.411 . S
C248 H275 0.914 1_565 S
C249 O262 1.270 . S
C249 O263 1.248 . S
C250 O264 1.267 1_564 S
C250 O265 1.278 . S
C251 Pr241 2.880 . S
C251 C252 1.491 . S
C251 O266 1.254 1_545 S
C251 O267 1.225 . S
C252 C251 1.491 . S
C252 C253 1.392 . S
C252 C257 1.378 . S
C253 C252 1.392 . S
C253 C254 1.368 . S
C253 H276 0.929 . S
C254 C253 1.368 . S
C254 C255 1.386 . S
C254 H277 0.929 . S
C255 C254 1.386 . S
C255 C256 1.373 . S
C256 C255 1.373 . S
C256 C257 1.413 . S
C256 H278 0.931 1_545 S
C257 C252 1.378 . S
C257 C256 1.413 . S
C257 H279 0.904 1_545 S
C258 O268 1.270 . S
C258 O269 1.248 . S
C259 O270 1.267 1_545 S
C259 O271 1.278 . S
O260 Pr240 2.562 1_545 S
O260 C242 1.254 1_545 S
O261 Pr240 2.490 . S
O261 C242 1.225 . S
O262 Pr240 2.695 1_556 S
O262 Pr241 2.436 1_565 S
O262 C249 1.270 . S
O263 Pr240 2.512 1_556 S
O263 C249 1.248 . S
O264 Pr241 2.438 . S
O264 C250 1.267 1_546 S
O265 Pr240 2.437 . S
O265 C250 1.278 . S
O266 Pr241 2.562 1_565 S
O266 C251 1.254 1_565 S
O267 Pr241 2.490 . S
O267 C251 1.225 . S
O268 Pr240 2.436 1_546 S
O268 Pr241 2.695 . S
O268 C258 1.270 . S
O269 Pr241 2.512 . S
O269 C258 1.248 . S
O270 Pr240 2.438 1_556 S
O270 C259 1.267 1_565 S
O271 Pr241 2.437 . S
O271 C259 1.278 . S
H272 C244 0.929 . S
H273 C245 0.929 . S
H274 C247 0.931 1_545 S
H275 C248 0.914 1_545 S
H276 C253 0.929 . S
H277 C254 0.929 . S
H278 C256 0.931 1_565 S
H279 C257 0.904 1_565 S
Pr280 C282 2.880 . S
Pr280 O300 2.562 . S
Pr280 O301 2.490 . S
Pr280 O302 2.695 1_554 S
Pr280 O303 2.507 1_554 S
Pr280 O305 2.437 . S
Pr280 O308 2.432 1_554 S
Pr280 O310 2.438 1_554 S
Pr281 C291 2.880 . S
Pr281 O302 2.436 . S
Pr281 O304 2.438 . S
Pr281 O306 2.562 . S
Pr281 O307 2.490 . S
Pr281 O308 2.704 . S
Pr281 O309 2.512 . S
Pr281 O311 2.437 . S
C282 Pr280 2.880 . S
C282 C283 1.491 . S
C282 O300 1.254 . S
C282 O301 1.225 . S
C283 C282 1.491 . S
C283 C284 1.392 . S
C283 C288 1.356 . S
C284 C283 1.392 . S
C284 C285 1.368 . S
C284 H312 0.929 . S
C285 C284 1.368 . S
C285 C286 1.386 . S
C285 H313 0.929 . S
C286 C285 1.386 . S
C286 C287 1.373 . S
C287 C286 1.373 . S
C287 C288 1.409 . S
C287 H314 0.931 . S
C288 C283 1.356 . S
C288 C287 1.409 . S
C288 H315 0.930 . S
C289 O302 1.270 . S
C289 O303 1.264 . S
C290 O304 1.267 1_554 S
C290 O305 1.278 . S
C291 Pr281 2.880 . S
C291 C292 1.491 . S
C291 O306 1.254 . S
C291 O307 1.225 . S
C292 C291 1.491 . S
C292 C293 1.392 . S
C292 C297 1.356 . S
C293 C292 1.392 . S
C293 C294 1.368 . S
C293 H316 0.929 . S
C294 C293 1.368 . S
C294 C295 1.386 . S
C294 H317 0.929 . S
C295 C294 1.386 . S
C295 C296 1.373 . S
C296 C295 1.373 . S
C296 C297 1.409 . S
C296 H318 0.931 . S
C297 C292 1.356 . S
C297 C296 1.409 . S
C297 H319 0.930 . S
C298 O308 1.273 . S
C298 O309 1.248 . S
C299 O310 1.267 . S
C299 O311 1.278 . S
O300 Pr280 2.562 . S
O300 C282 1.254 . S
O301 Pr280 2.490 . S
O301 C282 1.225 . S
O302 Pr280 2.695 1_556 S
O302 Pr281 2.436 . S
O302 C289 1.270 . S
O303 Pr280 2.507 1_556 S
O303 C289 1.264 . S
O304 Pr281 2.438 . S
O304 C290 1.267 1_556 S
O305 Pr280 2.437 . S
O305 C290 1.278 . S
O306 Pr281 2.562 . S
O306 C291 1.254 . S
O307 Pr281 2.490 . S
O307 C291 1.225 . S
O308 Pr280 2.432 1_556 S
O308 Pr281 2.704 . S
O308 C298 1.273 . S
O309 Pr281 2.512 . S
O309 C298 1.248 . S
O310 Pr280 2.438 1_556 S
O310 C299 1.267 . S
O311 Pr281 2.437 . S
O311 C299 1.278 . S
H312 C284 0.929 . S
H313 C285 0.929 . S
H314 C287 0.931 . S
H315 C288 0.930 . S
H316 C293 0.929 . S
H317 C294 0.929 . S
H318 C296 0.931 . S
H319 C297 0.930 . S
Pr320 C322 2.880 . S
Pr320 O340 2.562 . S
Pr320 O341 2.490 . S
Pr320 O342 2.695 . S
Pr320 O343 2.512 . S
Pr320 O345 2.437 . S
Pr320 O348 2.436 . S
Pr320 O350 2.438 . S
Pr321 C331 2.880 . S
Pr321 O342 2.436 . S
Pr321 O344 2.438 . S
Pr321 O346 2.562 . S
Pr321 O347 2.490 . S
Pr321 O348 2.695 . S
Pr321 O349 2.512 . S
Pr321 O351 2.437 . S
C322 Pr320 2.880 . S
C322 C323 1.491 . S
C322 O340 1.254 . S
C322 O341 1.225 . S
C323 C322 1.491 . S
C323 C324 1.392 . S
C323 C328 1.356 . S
C324 C323 1.392 . S
C324 C325 1.368 . S
C324 H352 0.929 . S
C325 C324 1.368 . S
C325 C326 1.386 . S
C325 H353 0.929 . S
C326 C325 1.386 . S
C326 C327 1.373 . S
C327 C326 1.373 . S
C327 C328 1.409 . S
C327 H354 0.931 . S
C328 C323 1.356 . S
C328 C327 1.409 . S
C328 H355 0.930 . S
C329 O342 1.270 . S
C329 O343 1.248 . S
C330 O344 1.267 . S
C330 O345 1.278 . S
C331 Pr321 2.880 . S
C331 C332 1.491 . S
C331 O346 1.254 . S
C331 O347 1.225 . S
C332 C331 1.491 . S
C332 C333 1.392 . S
C332 C337 1.356 . S
C333 C332 1.392 . S
C333 C334 1.368 1_556 S
C333 H356 0.929 . S
C334 C333 1.368 1_554 S
C334 C335 1.386 . S
C334 H357 0.929 . S
C335 C334 1.386 . S
C335 C336 1.373 . S
C336 C335 1.373 . S
C336 C337 1.409 1_554 S
C336 H358 0.931 . S
C337 C332 1.356 . S
C337 C336 1.409 1_556 S
C337 H359 0.930 . S
C338 O348 1.270 . S
C338 O349 1.248 . S
C339 O350 1.267 . S
C339 O351 1.278 . S
O340 Pr320 2.562 . S
O340 C322 1.254 . S
O341 Pr320 2.490 . S
O341 C322 1.225 . S
O342 Pr320 2.695 . S
O342 Pr321 2.436 . S
O342 C329 1.270 . S
O343 Pr320 2.512 . S
O343 C329 1.248 . S
O344 Pr321 2.438 . S
O344 C330 1.267 . S
O345 Pr320 2.437 . S
O345 C330 1.278 . S
O346 Pr321 2.562 . S
O346 C331 1.254 . S
O347 Pr321 2.490 . S
O347 C331 1.225 . S
O348 Pr320 2.436 . S
O348 Pr321 2.695 . S
O348 C338 1.270 . S
O349 Pr321 2.512 . S
O349 C338 1.248 . S
O350 Pr320 2.438 . S
O350 C339 1.267 . S
O351 Pr321 2.437 . S
O351 C339 1.278 . S
H352 C324 0.929 . S
H353 C325 0.929 . S
H354 C327 0.931 . S
H355 C328 0.930 . S
H356 C333 0.929 . S
H357 C334 0.929 . S
H358 C336 0.931 . S
H359 C337 0.930 . S
Pr360 C362 2.880 . S
Pr360 O380 2.562 . S
Pr360 O381 2.490 . S
Pr360 O382 2.695 . S
Pr360 O383 2.512 . S
Pr360 O385 2.437 . S
Pr360 O388 2.436 . S
Pr360 O390 2.438 . S
Pr361 C371 2.880 . S
Pr361 O382 2.436 . S
Pr361 O384 2.438 . S
Pr361 O386 2.562 . S
Pr361 O387 2.490 . S
Pr361 O388 2.695 . S
Pr361 O389 2.512 . S
Pr361 O391 2.437 . S
C362 Pr360 2.880 . S
C362 C363 1.491 . S
C362 O380 1.254 . S
C362 O381 1.225 . S
C363 C362 1.491 . S
C363 C364 1.392 . S
C363 C368 1.356 . S
C364 C363 1.392 . S
C364 C365 1.368 . S
C364 H392 0.929 . S
C365 C364 1.368 . S
C365 C366 1.386 . S
C365 H393 0.929 . S
C366 C365 1.386 . S
C366 C367 1.373 . S
C367 C366 1.373 . S
C367 C368 1.409 . S
C367 H394 0.931 . S
C368 C363 1.356 . S
C368 C367 1.409 . S
C368 H395 0.930 . S
C369 O382 1.270 . S
C369 O383 1.248 . S
C370 O384 1.267 . S
C370 O385 1.278 . S
C371 Pr361 2.880 . S
C371 C372 1.491 . S
C371 O386 1.254 . S
C371 O387 1.225 . S
C372 C371 1.491 . S
C372 C373 1.392 . S
C372 C377 1.356 . S
C373 C372 1.392 . S
C373 C374 1.368 1_556 S
C373 H396 0.929 . S
C374 C373 1.368 1_554 S
C374 C375 1.386 . S
C374 H397 0.929 . S
C375 C374 1.386 . S
C375 C376 1.373 . S
C376 C375 1.373 . S
C376 C377 1.409 1_554 S
C376 H398 0.931 . S
C377 C372 1.356 . S
C377 C376 1.409 1_556 S
C377 H399 0.930 . S
C378 O388 1.270 . S
C378 O389 1.248 . S
C379 O390 1.267 . S
C379 O391 1.278 . S
O380 Pr360 2.562 . S
O380 C362 1.254 . S
O381 Pr360 2.490 . S
O381 C362 1.225 . S
O382 Pr360 2.695 . S
O382 Pr361 2.436 . S
O382 C369 1.270 . S
O383 Pr360 2.512 . S
O383 C369 1.248 . S
O384 Pr361 2.438 . S
O384 C370 1.267 . S
O385 Pr360 2.437 . S
O385 C370 1.278 . S
O386 Pr361 2.562 . S
O386 C371 1.254 . S
O387 Pr361 2.490 . S
O387 C371 1.225 . S
O388 Pr360 2.436 . S
O388 Pr361 2.695 . S
O388 C378 1.270 . S
O389 Pr361 2.512 . S
O389 C378 1.248 . S
O390 Pr360 2.438 . S
O390 C379 1.267 . S
O391 Pr361 2.437 . S
O391 C379 1.278 . S
H392 C364 0.929 . S
H393 C365 0.929 . S
H394 C367 0.931 . S
H395 C368 0.930 . S
H396 C373 0.929 . S
H397 C374 0.929 . S
H398 C376 0.931 . S
H399 C377 0.930 . S
Pr400 C402 2.880 . S
Pr400 O420 2.562 . S
Pr400 O421 2.490 . S
Pr400 O422 2.695 . S
Pr400 O423 2.512 . S
Pr400 O425 2.437 . S
Pr400 O428 2.436 . S
Pr400 O430 2.438 . S
Pr401 C411 2.880 . S
Pr401 O422 2.436 . S
Pr401 O424 2.438 . S
Pr401 O426 2.562 . S
Pr401 O427 2.490 . S
Pr401 O428 2.695 . S
Pr401 O429 2.512 . S
Pr401 O431 2.437 . S
C402 Pr400 2.880 . S
C402 C403 1.491 . S
C402 O420 1.254 . S
C402 O421 1.225 . S
C403 C402 1.491 . S
C403 C404 1.392 . S
C403 C408 1.356 . S
C404 C403 1.392 . S
C404 C405 1.368 . S
C404 H432 0.929 . S
C405 C404 1.368 . S
C405 C406 1.386 . S
C405 H433 0.929 . S
C406 C405 1.386 . S
C406 C407 1.373 . S
C407 C406 1.373 . S
C407 C408 1.409 . S
C407 H434 0.931 . S
C408 C403 1.356 . S
C408 C407 1.409 . S
C408 H435 0.930 . S
C409 O422 1.270 . S
C409 O423 1.248 . S
C410 O424 1.267 . S
C410 O425 1.278 . S
C411 Pr401 2.880 . S
C411 C412 1.491 . S
C411 O426 1.254 . S
C411 O427 1.225 . S
C412 C411 1.491 . S
C412 C413 1.392 . S
C412 C417 1.356 . S
C413 C412 1.392 . S
C413 C414 1.368 . S
C413 H436 0.929 . S
C414 C413 1.368 . S
C414 C415 1.386 . S
C414 H437 0.929 . S
C415 C414 1.386 . S
C415 C416 1.373 . S
C416 C415 1.373 . S
C416 C417 1.409 . S
C416 H438 0.931 . S
C417 C412 1.356 . S
C417 C416 1.409 . S
C417 H439 0.930 . S
C418 O428 1.270 . S
C418 O429 1.248 . S
C419 O430 1.267 . S
C419 O431 1.278 . S
O420 Pr400 2.562 . S
O420 C402 1.254 . S
O421 Pr400 2.490 . S
O421 C402 1.225 . S
O422 Pr400 2.695 . S
O422 Pr401 2.436 . S
O422 C409 1.270 . S
O423 Pr400 2.512 . S
O423 C409 1.248 . S
O424 Pr401 2.438 . S
O424 C410 1.267 . S
O425 Pr400 2.437 . S
O425 C410 1.278 . S
O426 Pr401 2.562 . S
O426 C411 1.254 . S
O427 Pr401 2.490 . S
O427 C411 1.225 . S
O428 Pr400 2.436 . S
O428 Pr401 2.695 . S
O428 C418 1.270 . S
O429 Pr401 2.512 . S
O429 C418 1.248 . S
O430 Pr400 2.438 . S
O430 C419 1.267 . S
O431 Pr401 2.437 . S
O431 C419 1.278 . S
H432 C404 0.929 . S
H433 C405 0.929 . S
H434 C407 0.931 . S
H435 C408 0.930 . S
H436 C413 0.929 . S
H437 C414 0.929 . S
H438 C416 0.931 . S
H439 C417 0.930 . S
Pr440 C442 2.880 . S
Pr440 O460 2.562 . S
Pr440 O461 2.490 . S
Pr440 O462 2.695 . S
Pr440 O463 2.512 . S
Pr440 O465 2.437 . S
Pr440 O468 2.436 . S
Pr440 O470 2.438 . S
Pr441 C451 2.880 . S
Pr441 O462 2.436 . S
Pr441 O464 2.438 . S
Pr441 O466 2.562 . S
Pr441 O467 2.490 . S
Pr441 O468 2.695 . S
Pr441 O469 2.512 . S
Pr441 O471 2.437 . S
C442 Pr440 2.880 . S
C442 C443 1.491 . S
C442 O460 1.254 . S
C442 O461 1.225 . S
C443 C442 1.491 . S
C443 C444 1.392 . S
C443 C448 1.356 . S
C444 C443 1.392 . S
C444 C445 1.368 . S
C444 H472 0.929 . S
C445 C444 1.368 . S
C445 C446 1.386 . S
C445 H473 0.929 . S
C446 C445 1.386 . S
C446 C447 1.373 . S
C447 C446 1.373 . S
C447 C448 1.409 . S
C447 H474 0.931 . S
C448 C443 1.356 . S
C448 C447 1.409 . S
C448 H475 0.930 . S
C449 O462 1.270 . S
C449 O463 1.248 . S
C450 O464 1.267 . S
C450 O465 1.278 . S
C451 Pr441 2.880 . S
C451 C452 1.491 . S
C451 O466 1.254 . S
C451 O467 1.225 . S
C452 C451 1.491 . S
C452 C453 1.392 . S
C452 C457 1.356 . S
C453 C452 1.392 . S
C453 C454 1.368 . S
C453 H476 0.929 . S
C454 C453 1.368 . S
C454 C455 1.386 . S
C454 H477 0.929 . S
C455 C454 1.386 . S
C455 C456 1.373 . S
C456 C455 1.373 . S
C456 C457 1.409 . S
C456 H478 0.931 . S
C457 C452 1.356 . S
C457 C456 1.409 . S
C457 H479 0.930 . S
C458 O468 1.270 . S
C458 O469 1.248 . S
C459 O470 1.267 . S
C459 O471 1.278 . S
O460 Pr440 2.562 . S
O460 C442 1.254 . S
O461 Pr440 2.490 . S
O461 C442 1.225 . S
O462 Pr440 2.695 . S
O462 Pr441 2.436 . S
O462 C449 1.270 . S
O463 Pr440 2.512 . S
O463 C449 1.248 . S
O464 Pr441 2.438 . S
O464 C450 1.267 . S
O465 Pr440 2.437 . S
O465 C450 1.278 . S
O466 Pr441 2.562 . S
O466 C451 1.254 . S
O467 Pr441 2.490 . S
O467 C451 1.225 . S
O468 Pr440 2.436 . S
O468 Pr441 2.695 . S
O468 C458 1.270 . S
O469 Pr441 2.512 . S
O469 C458 1.248 . S
O470 Pr440 2.438 . S
O470 C459 1.267 . S
O471 Pr441 2.437 . S
O471 C459 1.278 . S
H472 C444 0.929 . S
H473 C445 0.929 . S
H474 C447 0.931 . S
H475 C448 0.930 . S
H476 C453 0.929 . S
H477 C454 0.929 . S
H478 C456 0.931 . S
H479 C457 0.930 . S
Pr480 C482 2.880 . S
Pr480 O500 2.562 . S
Pr480 O501 2.490 . S
Pr480 O502 2.695 . S
Pr480 O503 2.512 . S
Pr480 O505 2.437 . S
Pr480 O508 2.436 . S
Pr480 O510 2.438 . S
Pr481 C491 2.880 . S
Pr481 O502 2.436 . S
Pr481 O504 2.438 . S
Pr481 O506 2.562 . S
Pr481 O507 2.490 . S
Pr481 O508 2.695 . S
Pr481 O509 2.512 . S
Pr481 O511 2.437 . S
C482 Pr480 2.880 . S
C482 C483 1.491 . S
C482 O500 1.254 . S
C482 O501 1.225 . S
C483 C482 1.491 . S
C483 C484 1.392 . S
C483 C488 1.356 . S
C484 C483 1.392 . S
C484 C485 1.368 1_554 S
C484 H512 0.929 . S
C485 C484 1.368 1_556 S
C485 C486 1.386 . S
C485 H513 0.929 . S
C486 C485 1.386 . S
C486 C487 1.373 . S
C487 C486 1.373 . S
C487 C488 1.409 1_556 S
C487 H514 0.931 . S
C488 C483 1.356 . S
C488 C487 1.409 1_554 S
C488 H515 0.930 . S
C489 O502 1.270 . S
C489 O503 1.248 . S
C490 O504 1.267 . S
C490 O505 1.278 . S
C491 Pr481 2.880 . S
C491 C492 1.491 . S
C491 O506 1.254 . S
C491 O507 1.225 . S
C492 C491 1.491 . S
C492 C493 1.392 . S
C492 C497 1.356 . S
C493 C492 1.392 . S
C493 C494 1.368 . S
C493 H516 0.929 . S
C494 C493 1.368 . S
C494 C495 1.386 . S
C494 H517 0.929 . S
C495 C494 1.386 . S
C495 C496 1.373 . S
C496 C495 1.373 . S
C496 C497 1.409 . S
C496 H518 0.931 . S
C497 C492 1.356 . S
C497 C496 1.409 . S
C497 H519 0.930 . S
C498 O508 1.270 . S
C498 O509 1.248 . S
C499 O510 1.267 . S
C499 O511 1.278 . S
O500 Pr480 2.562 . S
O500 C482 1.254 . S
O501 Pr480 2.490 . S
O501 C482 1.225 . S
O502 Pr480 2.695 . S
O502 Pr481 2.436 . S
O502 C489 1.270 . S
O503 Pr480 2.512 . S
O503 C489 1.248 . S
O504 Pr481 2.438 . S
O504 C490 1.267 . S
O505 Pr480 2.437 . S
O505 C490 1.278 . S
O506 Pr481 2.562 . S
O506 C491 1.254 . S
O507 Pr481 2.490 . S
O507 C491 1.225 . S
O508 Pr480 2.436 . S
O508 Pr481 2.695 . S
O508 C498 1.270 . S
O509 Pr481 2.512 . S
O509 C498 1.248 . S
O510 Pr480 2.438 . S
O510 C499 1.267 . S
O511 Pr481 2.437 . S
O511 C499 1.278 . S
H512 C484 0.929 . S
H513 C485 0.929 . S
H514 C487 0.931 . S
H515 C488 0.930 . S
H516 C493 0.929 . S
H517 C494 0.929 . S
H518 C496 0.931 . S
H519 C497 0.930 . S
Pr520 C522 2.880 . S
Pr520 O540 2.562 . S
Pr520 O541 2.490 . S
Pr520 O542 2.695 . S
Pr520 O543 2.512 . S
Pr520 O545 2.437 . S
Pr520 O548 2.436 . S
Pr520 O550 2.438 . S
Pr521 C531 2.880 . S
Pr521 O542 2.436 . S
Pr521 O544 2.438 . S
Pr521 O546 2.562 . S
Pr521 O547 2.490 . S
Pr521 O548 2.695 . S
Pr521 O549 2.512 . S
Pr521 O551 2.437 . S
C522 Pr520 2.880 . S
C522 C523 1.491 . S
C522 O540 1.254 . S
C522 O541 1.225 . S
C523 C522 1.491 . S
C523 C524 1.392 . S
C523 C528 1.356 . S
C524 C523 1.392 . S
C524 C525 1.368 1_554 S
C524 H552 0.929 . S
C525 C524 1.368 1_556 S
C525 C526 1.386 . S
C525 H553 0.929 . S
C526 C525 1.386 . S
C526 C527 1.373 . S
C527 C526 1.373 . S
C527 C528 1.409 1_556 S
C527 H554 0.931 . S
C528 C523 1.356 . S
C528 C527 1.409 1_554 S
C528 H555 0.930 . S
C529 O542 1.270 . S
C529 O543 1.248 . S
C530 O544 1.267 . S
C530 O545 1.278 . S
C531 Pr521 2.880 . S
C531 C532 1.491 . S
C531 O546 1.254 . S
C531 O547 1.225 . S
C532 C531 1.491 . S
C532 C533 1.392 . S
C532 C537 1.356 . S
C533 C532 1.392 . S
C533 C534 1.368 . S
C533 H556 0.929 . S
C534 C533 1.368 . S
C534 C535 1.386 . S
C534 H557 0.929 . S
C535 C534 1.386 . S
C535 C536 1.373 . S
C536 C535 1.373 . S
C536 C537 1.409 . S
C536 H558 0.931 . S
C537 C532 1.356 . S
C537 C536 1.409 . S
C537 H559 0.930 . S
C538 O548 1.270 . S
C538 O549 1.248 . S
C539 O550 1.267 . S
C539 O551 1.278 . S
O540 Pr520 2.562 . S
O540 C522 1.254 . S
O541 Pr520 2.490 . S
O541 C522 1.225 . S
O542 Pr520 2.695 . S
O542 Pr521 2.436 . S
O542 C529 1.270 . S
O543 Pr520 2.512 . S
O543 C529 1.248 . S
O544 Pr521 2.438 . S
O544 C530 1.267 . S
O545 Pr520 2.437 . S
O545 C530 1.278 . S
O546 Pr521 2.562 . S
O546 C531 1.254 . S
O547 Pr521 2.490 . S
O547 C531 1.225 . S
O548 Pr520 2.436 . S
O548 Pr521 2.695 . S
O548 C538 1.270 . S
O549 Pr521 2.512 . S
O549 C538 1.248 . S
O550 Pr520 2.438 . S
O550 C539 1.267 . S
O551 Pr521 2.437 . S
O551 C539 1.278 . S
H552 C524 0.929 . S
H553 C525 0.929 . S
H554 C527 0.931 . S
H555 C528 0.930 . S
H556 C533 0.929 . S
H557 C534 0.929 . S
H558 C536 0.931 . S
H559 C537 0.930 . S
Pr560 C562 2.880 . S
Pr560 O580 2.562 . S
Pr560 O581 2.490 . S
Pr560 O582 2.695 . S
Pr560 O583 2.512 . S
Pr560 O585 2.437 . S
Pr560 O588 2.436 . S
Pr560 O590 2.438 . S
Pr561 C571 2.880 . S
Pr561 O582 2.436 . S
Pr561 O584 2.438 . S
Pr561 O586 2.562 . S
Pr561 O587 2.490 . S
Pr561 O588 2.695 . S
Pr561 O589 2.512 . S
Pr561 O591 2.437 . S
C562 Pr560 2.880 . S
C562 C563 1.491 . S
C562 O580 1.254 . S
C562 O581 1.225 . S
C563 C562 1.491 . S
C563 C564 1.392 . S
C563 C568 1.356 . S
C564 C563 1.392 . S
C564 C565 1.368 . S
C564 H592 0.929 . S
C565 C564 1.368 . S
C565 C566 1.386 . S
C565 H593 0.929 . S
C566 C565 1.386 . S
C566 C567 1.373 . S
C567 C566 1.373 . S
C567 C568 1.409 . S
C567 H594 0.931 . S
C568 C563 1.356 . S
C568 C567 1.409 . S
C568 H595 0.930 . S
C569 O582 1.270 . S
C569 O583 1.248 . S
C570 O584 1.267 . S
C570 O585 1.278 . S
C571 Pr561 2.880 . S
C571 C572 1.491 . S
C571 O586 1.254 . S
C571 O587 1.225 . S
C572 C571 1.491 . S
C572 C573 1.392 . S
C572 C577 1.356 . S
C573 C572 1.392 . S
C573 C574 1.368 . S
C573 H596 0.929 . S
C574 C573 1.368 . S
C574 C575 1.386 . S
C574 H597 0.929 . S
C575 C574 1.386 . S
C575 C576 1.373 . S
C576 C575 1.373 . S
C576 C577 1.409 . S
C576 H598 0.931 . S
C577 C572 1.356 . S
C577 C576 1.409 . S
C577 H599 0.930 . S
C578 O588 1.270 . S
C578 O589 1.248 . S
C579 O590 1.267 . S
C579 O591 1.278 . S
O580 Pr560 2.562 . S
O580 C562 1.254 . S
O581 Pr560 2.490 . S
O581 C562 1.225 . S
O582 Pr560 2.695 . S
O582 Pr561 2.436 . S
O582 C569 1.270 . S
O583 Pr560 2.512 . S
O583 C569 1.248 . S
O584 Pr561 2.438 . S
O584 C570 1.267 . S
O585 Pr560 2.437 . S
O585 C570 1.278 . S
O586 Pr561 2.562 . S
O586 C571 1.254 . S
O587 Pr561 2.490 . S
O587 C571 1.225 . S
O588 Pr560 2.436 . S
O588 Pr561 2.695 . S
O588 C578 1.270 . S
O589 Pr561 2.512 . S
O589 C578 1.248 . S
O590 Pr560 2.438 . S
O590 C579 1.267 . S
O591 Pr561 2.437 . S
O591 C579 1.278 . S
H592 C564 0.929 . S
H593 C565 0.929 . S
H594 C567 0.931 . S
H595 C568 0.930 . S
H596 C573 0.929 . S
H597 C574 0.929 . S
H598 C576 0.931 . S
H599 C577 0.930 . S
Pr600 C602 2.880 . S
Pr600 O620 2.562 . S
Pr600 O621 2.490 . S
Pr600 O622 2.695 . S
Pr600 O623 2.512 . S
Pr600 O625 2.437 . S
Pr600 O628 2.436 . S
Pr600 O630 2.438 . S
Pr601 C611 2.880 . S
Pr601 O622 2.436 . S
Pr601 O624 2.438 . S
Pr601 O626 2.562 . S
Pr601 O627 2.490 . S
Pr601 O628 2.695 . S
Pr601 O629 2.512 . S
Pr601 O631 2.437 . S
C602 Pr600 2.880 . S
C602 C603 1.491 . S
C602 O620 1.254 . S
C602 O621 1.225 . S
C603 C602 1.491 . S
C603 C604 1.392 . S
C603 C608 1.356 . S
C604 C603 1.392 . S
C604 C605 1.368 . S
C604 H632 0.929 . S
C605 C604 1.368 . S
C605 C606 1.386 . S
C605 H633 0.929 . S
C606 C605 1.386 . S
C606 C607 1.373 . S
C607 C606 1.373 . S
C607 C608 1.409 . S
C607 H634 0.931 . S
C608 C603 1.356 . S
C608 C607 1.409 . S
C608 H635 0.930 . S
C609 O622 1.270 . S
C609 O623 1.248 . S
C610 O624 1.267 . S
C610 O625 1.278 . S
C611 Pr601 2.880 . S
C611 C612 1.491 . S
C611 O626 1.254 . S
C611 O627 1.225 . S
C612 C611 1.491 . S
C612 C613 1.392 . S
C612 C617 1.356 . S
C613 C612 1.392 . S
C613 C614 1.368 . S
C613 H636 0.929 . S
C614 C613 1.368 . S
C614 C615 1.386 . S
C614 H637 0.929 . S
C615 C614 1.386 . S
C615 C616 1.373 . S
C616 C615 1.373 . S
C616 C617 1.409 . S
C616 H638 0.931 . S
C617 C612 1.356 . S
C617 C616 1.409 . S
C617 H639 0.930 . S
C618 O628 1.270 . S
C618 O629 1.248 . S
C619 O630 1.267 . S
C619 O631 1.278 . S
O620 Pr600 2.562 . S
O620 C602 1.254 . S
O621 Pr600 2.490 . S
O621 C602 1.225 . S
O622 Pr600 2.695 . S
O622 Pr601 2.436 . S
O622 C609 1.270 . S
O623 Pr600 2.512 . S
O623 C609 1.248 . S
O624 Pr601 2.438 . S
O624 C610 1.267 . S
O625 Pr600 2.437 . S
O625 C610 1.278 . S
O626 Pr601 2.562 . S
O626 C611 1.254 . S
O627 Pr601 2.490 . S
O627 C611 1.225 . S
O628 Pr600 2.436 . S
O628 Pr601 2.695 . S
O628 C618 1.270 . S
O629 Pr601 2.512 . S
O629 C618 1.248 . S
O630 Pr600 2.438 . S
O630 C619 1.267 . S
O631 Pr601 2.437 . S
O631 C619 1.278 . S
H632 C604 0.929 . S
H633 C605 0.929 . S
H634 C607 0.931 . S
H635 C608 0.930 . S
H636 C613 0.929 . S
H637 C614 0.929 . S
H638 C616 0.931 . S
H639 C617 0.930 . S
Pr640 C642 2.880 . S
Pr640 O660 2.562 . S
Pr640 O661 2.490 . S
Pr640 O662 2.695 . S
Pr640 O663 2.512 . S
Pr640 O665 2.437 . S
Pr640 O668 2.436 . S
Pr640 O670 2.438 . S
Pr641 C651 2.880 . S
Pr641 O662 2.436 . S
Pr641 O664 2.438 . S
Pr641 O666 2.562 . S
Pr641 O667 2.490 . S
Pr641 O668 2.695 . S
Pr641 O669 2.512 . S
Pr641 O671 2.437 . S
C642 Pr640 2.880 . S
C642 C643 1.491 . S
C642 O660 1.254 . S
C642 O661 1.225 . S
C643 C642 1.491 . S
C643 C644 1.392 . S
C643 C648 1.356 . S
C644 C643 1.392 . S
C644 C645 1.368 . S
C644 H672 0.929 . S
C645 C644 1.368 . S
C645 C646 1.386 . S
C645 H673 0.929 . S
C646 C645 1.386 . S
C646 C647 1.373 . S
C647 C646 1.373 . S
C647 C648 1.409 . S
C647 H674 0.931 . S
C648 C643 1.356 . S
C648 C647 1.409 . S
C648 H675 0.930 . S
C649 O662 1.270 . S
C649 O663 1.248 . S
C650 O664 1.267 . S
C650 O665 1.278 . S
C651 Pr641 2.880 . S
C651 C652 1.491 . S
C651 O666 1.254 . S
C651 O667 1.225 . S
C652 C651 1.491 . S
C652 C653 1.392 . S
C652 C657 1.356 . S
C653 C652 1.392 . S
C653 C654 1.368 1_556 S
C653 H676 0.929 . S
C654 C653 1.368 1_554 S
C654 C655 1.386 . S
C654 H677 0.929 . S
C655 C654 1.386 . S
C655 C656 1.373 . S
C656 C655 1.373 . S
C656 C657 1.409 1_554 S
C656 H678 0.931 . S
C657 C652 1.356 . S
C657 C656 1.409 1_556 S
C657 H679 0.930 . S
C658 O668 1.270 . S
C658 O669 1.248 . S
C659 O670 1.267 . S
C659 O671 1.278 . S
O660 Pr640 2.562 . S
O660 C642 1.254 . S
O661 Pr640 2.490 . S
O661 C642 1.225 . S
O662 Pr640 2.695 . S
O662 Pr641 2.436 . S
O662 C649 1.270 . S
O663 Pr640 2.512 . S
O663 C649 1.248 . S
O664 Pr641 2.438 . S
O664 C650 1.267 . S
O665 Pr640 2.437 . S
O665 C650 1.278 . S
O666 Pr641 2.562 . S
O666 C651 1.254 . S
O667 Pr641 2.490 . S
O667 C651 1.225 . S
O668 Pr640 2.436 . S
O668 Pr641 2.695 . S
O668 C658 1.270 . S
O669 Pr641 2.512 . S
O669 C658 1.248 . S
O670 Pr640 2.438 . S
O670 C659 1.267 . S
O671 Pr641 2.437 . S
O671 C659 1.278 . S
H672 C644 0.929 . S
H673 C645 0.929 . S
H674 C647 0.931 . S
H675 C648 0.930 . S
H676 C653 0.929 . S
H677 C654 0.929 . S
H678 C656 0.931 . S
H679 C657 0.930 . S
Pr680 C682 2.880 . S
Pr680 O700 2.562 1_565 S
Pr680 O701 2.490 . S
Pr680 O702 2.695 . S
Pr680 O703 2.512 . S
Pr680 O705 2.437 . S
Pr680 O708 2.436 1_565 S
Pr680 O710 2.438 . S
Pr681 C691 2.880 . S
Pr681 O702 2.436 1_545 S
Pr681 O704 2.438 . S
Pr681 O706 2.562 1_545 S
Pr681 O707 2.490 . S
Pr681 O708 2.695 . S
Pr681 O709 2.512 . S
Pr681 O711 2.437 . S
C682 Pr680 2.880 . S
C682 C683 1.491 . S
C682 O700 1.254 1_565 S
C682 O701 1.225 . S
C683 C682 1.491 . S
C683 C684 1.392 . S
C683 C688 1.378 . S
C684 C683 1.392 . S
C684 C685 1.368 . S
C684 H712 0.929 . S
C685 C684 1.368 . S
C685 C686 1.386 . S
C685 H713 0.929 . S
C686 C685 1.386 . S
C686 C687 1.373 . S
C687 C686 1.373 . S
C687 C688 1.413 . S
C687 H714 0.931 1_565 S
C688 C683 1.378 . S
C688 C687 1.413 . S
C688 H715 0.904 1_565 S
C689 O702 1.270 . S
C689 O703 1.248 . S
C690 O704 1.267 1_565 S
C690 O705 1.278 . S
C691 Pr681 2.880 . S
C691 C692 1.491 . S
C691 O706 1.254 1_545 S
C691 O707 1.225 . S
C692 C691 1.491 . S
C692 C693 1.392 . S
C692 C697 1.369 . S
C693 C692 1.392 . S
C693 C694 1.368 1_556 S
C693 H716 0.929 . S
C694 C693 1.368 1_554 S
C694 C695 1.386 . S
C694 H717 0.929 . S
C695 C694 1.386 . S
C695 C696 1.373 . S
C696 C695 1.373 . S
C696 C697 1.411 1_554 S
C696 H718 0.931 1_545 S
C697 C692 1.369 . S
C697 C696 1.411 1_556 S
C697 H719 0.914 1_545 S
C698 O708 1.270 . S
C698 O709 1.248 . S
C699 O710 1.267 1_545 S
C699 O711 1.278 . S
O700 Pr680 2.562 1_545 S
O700 C682 1.254 1_545 S
O701 Pr680 2.490 . S
O701 C682 1.225 . S
O702 Pr680 2.695 . S
O702 Pr681 2.436 1_565 S
O702 C689 1.270 . S
O703 Pr680 2.512 . S
O703 C689 1.248 . S
O704 Pr681 2.438 . S
O704 C690 1.267 1_545 S
O705 Pr680 2.437 . S
O705 C690 1.278 . S
O706 Pr681 2.562 1_565 S
O706 C691 1.254 1_565 S
O707 Pr681 2.490 . S
O707 C691 1.225 . S
O708 Pr680 2.436 1_545 S
O708 Pr681 2.695 . S
O708 C698 1.270 . S
O709 Pr681 2.512 . S
O709 C698 1.248 . S
O710 Pr680 2.438 . S
O710 C699 1.267 1_565 S
O711 Pr681 2.437 . S
O711 C699 1.278 . S
H712 C684 0.929 . S
H713 C685 0.929 . S
H714 C687 0.931 1_545 S
H715 C688 0.904 1_545 S
H716 C693 0.929 . S
H717 C694 0.929 . S
H718 C696 0.931 1_565 S
H719 C697 0.914 1_565 S
Pr720 C722 2.880 . S
Pr720 O740 2.562 1_565 S
Pr720 O741 2.490 . S
Pr720 O742 2.695 . S
Pr720 O743 2.512 . S
Pr720 O745 2.437 . S
Pr720 O748 2.436 1_565 S
Pr720 O750 2.438 . S
Pr721 C731 2.880 . S
Pr721 O742 2.436 1_545 S
Pr721 O744 2.438 . S
Pr721 O746 2.562 1_545 S
Pr721 O747 2.490 . S
Pr721 O748 2.695 . S
Pr721 O749 2.512 . S
Pr721 O751 2.437 . S
C722 Pr720 2.880 . S
C722 C723 1.491 . S
C722 O740 1.254 1_565 S
C722 O741 1.225 . S
C723 C722 1.491 . S
C723 C724 1.392 . S
C723 C728 1.378 . S
C724 C723 1.392 . S
C724 C725 1.368 . S
C724 H752 0.929 . S
C725 C724 1.368 . S
C725 C726 1.386 . S
C725 H753 0.929 . S
C726 C725 1.386 . S
C726 C727 1.373 . S
C727 C726 1.373 . S
C727 C728 1.413 . S
C727 H754 0.931 1_565 S
C728 C723 1.378 . S
C728 C727 1.413 . S
C728 H755 0.904 1_565 S
C729 O742 1.270 . S
C729 O743 1.248 . S
C730 O744 1.267 1_565 S
C730 O745 1.278 . S
C731 Pr721 2.880 . S
C731 C732 1.491 . S
C731 O746 1.254 1_545 S
C731 O747 1.225 . S
C732 C731 1.491 . S
C732 C733 1.392 . S
C732 C737 1.369 . S
C733 C732 1.392 . S
C733 C734 1.368 . S
C733 H756 0.929 . S
C734 C733 1.368 . S
C734 C735 1.386 . S
C734 H757 0.929 . S
C735 C734 1.386 . S
C735 C736 1.373 . S
C736 C735 1.373 . S
C736 C737 1.411 . S
C736 H758 0.931 1_545 S
C737 C732 1.369 . S
C737 C736 1.411 . S
C737 H759 0.914 1_545 S
C738 O748 1.270 . S
C738 O749 1.248 . S
C739 O750 1.267 1_545 S
C739 O751 1.278 . S
O740 Pr720 2.562 1_545 S
O740 C722 1.254 1_545 S
O741 Pr720 2.490 . S
O741 C722 1.225 . S
O742 Pr720 2.695 . S
O742 Pr721 2.436 1_565 S
O742 C729 1.270 . S
O743 Pr720 2.512 . S
O743 C729 1.248 . S
O744 Pr721 2.438 . S
O744 C730 1.267 1_545 S
O745 Pr720 2.437 . S
O745 C730 1.278 . S
O746 Pr721 2.562 1_565 S
O746 C731 1.254 1_565 S
O747 Pr721 2.490 . S
O747 C731 1.225 . S
O748 Pr720 2.436 1_545 S
O748 Pr721 2.695 . S
O748 C738 1.270 . S
O749 Pr721 2.512 . S
O749 C738 1.248 . S
O750 Pr720 2.438 . S
O750 C739 1.267 1_565 S
O751 Pr721 2.437 . S
O751 C739 1.278 . S
H752 C724 0.929 . S
H753 C725 0.929 . S
H754 C727 0.931 1_545 S
H755 C728 0.904 1_545 S
H756 C733 0.929 . S
H757 C734 0.929 . S
H758 C736 0.931 1_565 S
H759 C737 0.914 1_565 S
Pr760 C762 2.880 . S
Pr760 O780 2.562 . S
Pr760 O781 2.490 . S
Pr760 O782 2.695 . S
Pr760 O783 2.512 . S
Pr760 O785 2.437 . S
Pr760 O788 2.436 . S
Pr760 O790 2.438 . S
Pr761 C771 2.880 . S
Pr761 O782 2.436 . S
Pr761 O784 2.438 . S
Pr761 O786 2.562 . S
Pr761 O787 2.490 . S
Pr761 O788 2.695 . S
Pr761 O789 2.512 . S
Pr761 O791 2.437 . S
C762 Pr760 2.880 . S
C762 C763 1.491 . S
C762 O780 1.254 . S
C762 O781 1.225 . S
C763 C762 1.491 . S
C763 C764 1.392 . S
C763 C768 1.356 . S
C764 C763 1.392 . S
C764 C765 1.368 . S
C764 H792 0.929 . S
C765 C764 1.368 . S
C765 C766 1.386 . S
C765 H793 0.929 . S
C766 C765 1.386 . S
C766 C767 1.373 . S
C767 C766 1.373 . S
C767 C768 1.409 . S
C767 H794 0.931 . S
C768 C763 1.356 . S
C768 C767 1.409 . S
C768 H795 0.930 . S
C769 O782 1.270 . S
C769 O783 1.248 . S
C770 O784 1.267 . S
C770 O785 1.278 . S
C771 Pr761 2.880 . S
C771 C772 1.491 . S
C771 O786 1.254 . S
C771 O787 1.225 . S
C772 C771 1.491 . S
C772 C773 1.392 . S
C772 C777 1.356 . S
C773 C772 1.392 . S
C773 C774 1.368 . S
C773 H796 0.929 . S
C774 C773 1.368 . S
C774 C775 1.386 . S
C774 H797 0.929 . S
C775 C774 1.386 . S
C775 C776 1.373 . S
C776 C775 1.373 . S
C776 C777 1.409 . S
C776 H798 0.931 . S
C777 C772 1.356 . S
C777 C776 1.409 . S
C777 H799 0.930 . S
C778 O788 1.270 . S
C778 O789 1.248 . S
C779 O790 1.267 . S
C779 O791 1.278 . S
O780 Pr760 2.562 . S
O780 C762 1.254 . S
O781 Pr760 2.490 . S
O781 C762 1.225 . S
O782 Pr760 2.695 . S
O782 Pr761 2.436 . S
O782 C769 1.270 . S
O783 Pr760 2.512 . S
O783 C769 1.248 . S
O784 Pr761 2.438 . S
O784 C770 1.267 . S
O785 Pr760 2.437 . S
O785 C770 1.278 . S
O786 Pr761 2.562 . S
O786 C771 1.254 . S
O787 Pr761 2.490 . S
O787 C771 1.225 . S
O788 Pr760 2.436 . S
O788 Pr761 2.695 . S
O788 C778 1.270 . S
O789 Pr761 2.512 . S
O789 C778 1.248 . S
O790 Pr760 2.438 . S
O790 C779 1.267 . S
O791 Pr761 2.437 . S
O791 C779 1.278 . S
H792 C764 0.929 . S
H793 C765 0.929 . S
H794 C767 0.931 . S
H795 C768 0.930 . S
H796 C773 0.929 . S
H797 C774 0.929 . S
H798 C776 0.931 . S
H799 C777 0.930 . S
Pr800 C802 2.880 . S
Pr800 O820 2.562 . S
Pr800 O821 2.490 . S
Pr800 O822 2.695 . S
Pr800 O823 2.512 . S
Pr800 O825 2.437 . S
Pr800 O828 2.436 . S
Pr800 O830 2.438 . S
Pr801 C811 2.880 . S
Pr801 O822 2.436 . S
Pr801 O824 2.438 . S
Pr801 O826 2.562 . S
Pr801 O827 2.490 . S
Pr801 O828 2.695 . S
Pr801 O829 2.512 . S
Pr801 O831 2.437 . S
C802 Pr800 2.880 . S
C802 C803 1.491 . S
C802 O820 1.254 . S
C802 O821 1.225 . S
C803 C802 1.491 . S
C803 C804 1.392 . S
C803 C808 1.356 . S
C804 C803 1.392 . S
C804 C805 1.368 1_554 S
C804 H832 0.929 . S
C805 C804 1.368 1_556 S
C805 C806 1.386 . S
C805 H833 0.929 . S
C806 C805 1.386 . S
C806 C807 1.373 . S
C807 C806 1.373 . S
C807 C808 1.409 1_556 S
C807 H834 0.931 . S
C808 C803 1.356 . S
C808 C807 1.409 1_554 S
C808 H835 0.930 . S
C809 O822 1.270 . S
C809 O823 1.248 . S
C810 O824 1.267 . S
C810 O825 1.278 . S
C811 Pr801 2.880 . S
C811 C812 1.491 . S
C811 O826 1.254 . S
C811 O827 1.225 . S
C812 C811 1.491 . S
C812 C813 1.392 . S
C812 C817 1.356 . S
C813 C812 1.392 . S
C813 C814 1.368 . S
C813 H836 0.929 . S
C814 C813 1.368 . S
C814 C815 1.386 . S
C814 H837 0.929 . S
C815 C814 1.386 . S
C815 C816 1.373 . S
C816 C815 1.373 . S
C816 C817 1.409 . S
C816 H838 0.931 . S
C817 C812 1.356 . S
C817 C816 1.409 . S
C817 H839 0.930 . S
C818 O828 1.270 . S
C818 O829 1.248 . S
C819 O830 1.267 . S
C819 O831 1.278 . S
O820 Pr800 2.562 . S
O820 C802 1.254 . S
O821 Pr800 2.490 . S
O821 C802 1.225 . S
O822 Pr800 2.695 . S
O822 Pr801 2.436 . S
O822 C809 1.270 . S
O823 Pr800 2.512 . S
O823 C809 1.248 . S
O824 Pr801 2.438 . S
O824 C810 1.267 . S
O825 Pr800 2.437 . S
O825 C810 1.278 . S
O826 Pr801 2.562 . S
O826 C811 1.254 . S
O827 Pr801 2.490 . S
O827 C811 1.225 . S
O828 Pr800 2.436 . S
O828 Pr801 2.695 . S
O828 C818 1.270 . S
O829 Pr801 2.512 . S
O829 C818 1.248 . S
O830 Pr800 2.438 . S
O830 C819 1.267 . S
O831 Pr801 2.437 . S
O831 C819 1.278 . S
H832 C804 0.929 . S
H833 C805 0.929 . S
H834 C807 0.931 . S
H835 C808 0.930 . S
H836 C813 0.929 . S
H837 C814 0.929 . S
H838 C816 0.931 . S
H839 C817 0.930 . S
Pr840 C842 2.880 . S
Pr840 O860 2.562 1_565 S
Pr840 O861 2.490 . S
Pr840 O862 2.695 . S
Pr840 O863 2.512 . S
Pr840 O865 2.437 . S
Pr840 O868 2.436 1_565 S
Pr840 O870 2.438 . S
Pr841 C851 2.880 . S
Pr841 O862 2.436 1_545 S
Pr841 O864 2.438 . S
Pr841 O866 2.562 1_545 S
Pr841 O867 2.490 . S
Pr841 O868 2.695 . S
Pr841 O869 2.512 . S
Pr841 O871 2.437 . S
C842 Pr840 2.880 . S
C842 C843 1.491 . S
C842 O860 1.254 1_565 S
C842 O861 1.225 . S
C843 C842 1.491 . S
C843 C844 1.392 . S
C843 C848 1.369 . S
C844 C843 1.392 . S
C844 C845 1.368 1_554 S
C844 H872 0.929 . S
C845 C844 1.368 1_556 S
C845 C846 1.386 . S
C845 H873 0.929 . S
C846 C845 1.386 . S
C846 C847 1.373 . S
C847 C846 1.373 . S
C847 C848 1.411 1_556 S
C847 H874 0.931 1_565 S
C848 C843 1.369 . S
C848 C847 1.411 1_554 S
C848 H875 0.914 1_565 S
C849 O862 1.270 . S
C849 O863 1.248 . S
C850 O864 1.267 1_565 S
C850 O865 1.278 . S
C851 Pr841 2.880 . S
C851 C852 1.491 . S
C851 O866 1.254 1_545 S
C851 O867 1.225 . S
C852 C851 1.491 . S
C852 C853 1.392 . S
C852 C857 1.378 . S
C853 C852 1.392 . S
C853 C854 1.368 . S
C853 H876 0.929 . S
C854 C853 1.368 . S
C854 C855 1.386 . S
C854 H877 0.929 . S
C855 C854 1.386 . S
C855 C856 1.373 . S
C856 C855 1.373 . S
C856 C857 1.413 . S
C856 H878 0.931 1_545 S
C857 C852 1.378 . S
C857 C856 1.413 . S
C857 H879 0.904 1_545 S
C858 O868 1.270 . S
C858 O869 1.248 . S
C859 O870 1.267 1_545 S
C859 O871 1.278 . S
O860 Pr840 2.562 1_545 S
O860 C842 1.254 1_545 S
O861 Pr840 2.490 . S
O861 C842 1.225 . S
O862 Pr840 2.695 . S
O862 Pr841 2.436 1_565 S
O862 C849 1.270 . S
O863 Pr840 2.512 . S
O863 C849 1.248 . S
O864 Pr841 2.438 . S
O864 C850 1.267 1_545 S
O865 Pr840 2.437 . S
O865 C850 1.278 . S
O866 Pr841 2.562 1_565 S
O866 C851 1.254 1_565 S
O867 Pr841 2.490 . S
O867 C851 1.225 . S
O868 Pr840 2.436 1_545 S
O868 Pr841 2.695 . S
O868 C858 1.270 . S
O869 Pr841 2.512 . S
O869 C858 1.248 . S
O870 Pr840 2.438 . S
O870 C859 1.267 1_565 S
O871 Pr841 2.437 . S
O871 C859 1.278 . S
H872 C844 0.929 . S
H873 C845 0.929 . S
H874 C847 0.931 1_545 S
H875 C848 0.914 1_545 S
H876 C853 0.929 . S
H877 C854 0.929 . S
H878 C856 0.931 1_565 S
H879 C857 0.904 1_565 S
Pr880 C882 2.880 . S
Pr880 O900 2.562 1_565 S
Pr880 O901 2.490 . S
Pr880 O902 2.695 . S
Pr880 O903 2.512 . S
Pr880 O905 2.437 . S
Pr880 O908 2.436 1_565 S
Pr880 O910 2.438 . S
Pr881 C891 2.880 . S
Pr881 O902 2.436 1_545 S
Pr881 O904 2.438 . S
Pr881 O906 2.562 1_545 S
Pr881 O907 2.490 . S
Pr881 O908 2.695 . S
Pr881 O909 2.512 . S
Pr881 O911 2.437 . S
C882 Pr880 2.880 . S
C882 C883 1.491 . S
C882 O900 1.254 1_565 S
C882 O901 1.225 . S
C883 C882 1.491 . S
C883 C884 1.392 . S
C883 C888 1.369 . S
C884 C883 1.392 . S
C884 C885 1.368 . S
C884 H912 0.929 . S
C885 C884 1.368 . S
C885 C886 1.386 . S
C885 H913 0.929 . S
C886 C885 1.386 . S
C886 C887 1.373 . S
C887 C886 1.373 . S
C887 C888 1.411 . S
C887 H914 0.931 1_565 S
C888 C883 1.369 . S
C888 C887 1.411 . S
C888 H915 0.914 1_565 S
C889 O902 1.270 . S
C889 O903 1.248 . S
C890 O904 1.267 1_565 S
C890 O905 1.278 . S
C891 Pr881 2.880 . S
C891 C892 1.491 . S
C891 O906 1.254 1_545 S
C891 O907 1.225 . S
C892 C891 1.491 . S
C892 C893 1.392 . S
C892 C897 1.378 . S
C893 C892 1.392 . S
C893 C894 1.368 . S
C893 H916 0.929 . S
C894 C893 1.368 . S
C894 C895 1.386 . S
C894 H917 0.929 . S
C895 C894 1.386 . S
C895 C896 1.373 . S
C896 C895 1.373 . S
C896 C897 1.413 . S
C896 H918 0.931 1_545 S
C897 C892 1.378 . S
C897 C896 1.413 . S
C897 H919 0.904 1_545 S
C898 O908 1.270 . S
C898 O909 1.248 . S
C899 O910 1.267 1_545 S
C899 O911 1.278 . S
O900 Pr880 2.562 1_545 S
O900 C882 1.254 1_545 S
O901 Pr880 2.490 . S
O901 C882 1.225 . S
O902 Pr880 2.695 . S
O902 Pr881 2.436 1_565 S
O902 C889 1.270 . S
O903 Pr880 2.512 . S
O903 C889 1.248 . S
O904 Pr881 2.438 . S
O904 C890 1.267 1_545 S
O905 Pr880 2.437 . S
O905 C890 1.278 . S
O906 Pr881 2.562 1_565 S
O906 C891 1.254 1_565 S
O907 Pr881 2.490 . S
O907 C891 1.225 . S
O908 Pr880 2.436 1_545 S
O908 Pr881 2.695 . S
O908 C898 1.270 . S
O909 Pr881 2.512 . S
O909 C898 1.248 . S
O910 Pr880 2.438 . S
O910 C899 1.267 1_565 S
O911 Pr881 2.437 . S
O911 C899 1.278 . S
H912 C884 0.929 . S
H913 C885 0.929 . S
H914 C887 0.931 1_545 S
H915 C888 0.914 1_545 S
H916 C893 0.929 . S
H917 C894 0.929 . S
H918 C896 0.931 1_565 S
H919 C897 0.904 1_565 S
Pr920 C922 2.880 . S
Pr920 O940 2.562 . S
Pr920 O941 2.490 . S
Pr920 O942 2.695 . S
Pr920 O943 2.512 . S
Pr920 O945 2.437 . S
Pr920 O948 2.436 . S
Pr920 O950 2.438 . S
Pr921 C931 2.880 . S
Pr921 O942 2.436 . S
Pr921 O944 2.438 . S
Pr921 O946 2.562 . S
Pr921 O947 2.490 . S
Pr921 O948 2.695 . S
Pr921 O949 2.512 . S
Pr921 O951 2.437 . S
C922 Pr920 2.880 . S
C922 C923 1.491 . S
C922 O940 1.254 . S
C922 O941 1.225 . S
C923 C922 1.491 . S
C923 C924 1.392 . S
C923 C928 1.356 . S
C924 C923 1.392 . S
C924 C925 1.368 . S
C924 H952 0.929 . S
C925 C924 1.368 . S
C925 C926 1.386 . S
C925 H953 0.929 . S
C926 C925 1.386 . S
C926 C927 1.373 . S
C927 C926 1.373 . S
C927 C928 1.409 . S
C927 H954 0.931 . S
C928 C923 1.356 . S
C928 C927 1.409 . S
C928 H955 0.930 . S
C929 O942 1.270 . S
C929 O943 1.248 . S
C930 O944 1.267 . S
C930 O945 1.278 . S
C931 Pr921 2.880 . S
C931 C932 1.491 . S
C931 O946 1.254 . S
C931 O947 1.225 . S
C932 C931 1.491 . S
C932 C933 1.392 . S
C932 C937 1.356 . S
C933 C932 1.392 . S
C933 C934 1.368 . S
C933 H956 0.929 . S
C934 C933 1.368 . S
C934 C935 1.386 . S
C934 H957 0.929 . S
C935 C934 1.386 . S
C935 C936 1.373 . S
C936 C935 1.373 . S
C936 C937 1.409 . S
C936 H958 0.931 . S
C937 C932 1.356 . S
C937 C936 1.409 . S
C937 H959 0.930 . S
C938 O948 1.270 . S
C938 O949 1.248 . S
C939 O950 1.267 . S
C939 O951 1.278 . S
O940 Pr920 2.562 . S
O940 C922 1.254 . S
O941 Pr920 2.490 . S
O941 C922 1.225 . S
O942 Pr920 2.695 . S
O942 Pr921 2.436 . S
O942 C929 1.270 . S
O943 Pr920 2.512 . S
O943 C929 1.248 . S
O944 Pr921 2.438 . S
O944 C930 1.267 . S
O945 Pr920 2.437 . S
O945 C930 1.278 . S
O946 Pr921 2.562 . S
O946 C931 1.254 . S
O947 Pr921 2.490 . S
O947 C931 1.225 . S
O948 Pr920 2.436 . S
O948 Pr921 2.695 . S
O948 C938 1.270 . S
O949 Pr921 2.512 . S
O949 C938 1.248 . S
O950 Pr920 2.438 . S
O950 C939 1.267 . S
O951 Pr921 2.437 . S
O951 C939 1.278 . S
H952 C924 0.929 . S
H953 C925 0.929 . S
H954 C927 0.931 . S
H955 C928 0.930 . S
H956 C933 0.929 . S
H957 C934 0.929 . S
H958 C936 0.931 . S
H959 C937 0.930 . S
Pr960 C962 2.880 . S
Pr960 O980 2.562 . S
Pr960 O981 2.490 . S
Pr960 O982 2.695 . S
Pr960 O983 2.512 . S
Pr960 O985 2.437 . S
Pr960 O988 2.436 . S
Pr960 O990 2.438 . S
Pr961 C971 2.880 . S
Pr961 O982 2.436 . S
Pr961 O984 2.438 . S
Pr961 O986 2.562 . S
Pr961 O987 2.490 . S
Pr961 O988 2.695 . S
Pr961 O989 2.512 . S
Pr961 O991 2.437 . S
C962 Pr960 2.880 . S
C962 C963 1.501 . S
C962 O980 1.254 . S
C962 O981 1.225 . S
C963 C962 1.501 . S
C963 C964 1.388 1_554 S
C963 C968 1.350 1_554 S
C964 C963 1.388 1_556 S
C964 C965 1.368 . S
C964 H992 0.929 . S
C965 C964 1.368 . S
C965 C966 1.386 . S
C965 H993 0.929 . S
C966 C965 1.386 . S
C966 C967 1.373 . S
C967 C966 1.373 . S
C967 C968 1.409 . S
C967 H994 0.931 . S
C968 C963 1.350 1_556 S
C968 C967 1.409 . S
C968 H995 0.930 . S
C969 O982 1.270 . S
C969 O983 1.248 . S
C970 O984 1.267 . S
C970 O985 1.278 . S
C971 Pr961 2.880 . S
C971 C972 1.491 . S
C971 O986 1.254 . S
C971 O987 1.225 . S
C972 C971 1.491 . S
C972 C973 1.392 . S
C972 C977 1.356 . S
C973 C972 1.392 . S
C973 C974 1.368 . S
C973 H996 0.929 . S
C974 C973 1.368 . S
C974 C975 1.386 . S
C974 H997 0.929 . S
C975 C974 1.386 . S
C975 C976 1.373 . S
C976 C975 1.373 . S
C976 C977 1.409 . S
C976 H998 0.931 . S
C977 C972 1.356 . S
C977 C976 1.409 . S
C977 H999 0.930 . S
C978 O988 1.270 . S
C978 O989 1.248 . S
C979 O990 1.267 . S
C979 O991 1.278 . S
O980 Pr960 2.562 . S
O980 C962 1.254 . S
O981 Pr960 2.490 . S
O981 C962 1.225 . S
O982 Pr960 2.695 . S
O982 Pr961 2.436 . S
O982 C969 1.270 . S
O983 Pr960 2.512 . S
O983 C969 1.248 . S
O984 Pr961 2.438 . S
O984 C970 1.267 . S
O985 Pr960 2.437 . S
O985 C970 1.278 . S
O986 Pr961 2.562 . S
O986 C971 1.254 . S
O987 Pr961 2.490 . S
O987 C971 1.225 . S
O988 Pr960 2.436 . S
O988 Pr961 2.695 . S
O988 C978 1.270 . S
O989 Pr961 2.512 . S
O989 C978 1.248 . S
O990 Pr960 2.438 . S
O990 C979 1.267 . S
O991 Pr961 2.437 . S
O991 C979 1.278 . S
H992 C964 0.929 . S
H993 C965 0.929 . S
H994 C967 0.931 . S
H995 C968 0.930 . S
H996 C973 0.929 . S
H997 C974 0.929 . S
H998 C976 0.931 . S
H999 C977 0.930 . S
Pr1000 C1002 2.880 . S
Pr1000 O1020 2.562 . S
Pr1000 O1021 2.490 . S
Pr1000 O1022 2.695 . S
Pr1000 O1023 2.512 . S
Pr1000 O1025 2.437 . S
Pr1000 O1028 2.436 . S
Pr1000 O1030 2.438 . S
Pr1001 C1011 2.880 . S
Pr1001 O1022 2.436 . S
Pr1001 O1024 2.438 . S
Pr1001 O1026 2.562 . S
Pr1001 O1027 2.490 . S
Pr1001 O1028 2.695 . S
Pr1001 O1029 2.512 . S
Pr1001 O1031 2.437 . S
C1002 Pr1000 2.880 . S
C1002 C1003 1.492 . S
C1002 O1020 1.254 . S
C1002 O1021 1.225 . S
C1003 C1002 1.492 . S
C1003 C1004 1.392 1_554 S
C1003 C1008 1.355 1_554 S
C1004 C1003 1.392 1_556 S
C1004 C1005 1.368 . S
C1004 H1032 0.929 . S
C1005 C1004 1.368 . S
C1005 C1006 1.386 . S
C1005 H1033 0.929 . S
C1006 C1005 1.386 . S
C1006 C1007 1.373 . S
C1007 C1006 1.373 . S
C1007 C1008 1.409 . S
C1007 H1034 0.931 . S
C1008 C1003 1.355 1_556 S
C1008 C1007 1.409 . S
C1008 H1035 0.930 . S
C1009 O1022 1.270 . S
C1009 O1023 1.248 . S
C1010 O1024 1.267 . S
C1010 O1025 1.278 . S
C1011 Pr1001 2.880 . S
C1011 C1012 1.491 . S
C1011 O1026 1.254 . S
C1011 O1027 1.225 . S
C1012 C1011 1.491 . S
C1012 C1013 1.392 . S
C1012 C1017 1.356 . S
C1013 C1012 1.392 . S
C1013 C1014 1.368 . S
C1013 H1036 0.929 . S
C1014 C1013 1.368 . S
C1014 C1015 1.386 . S
C1014 H1037 0.929 . S
C1015 C1014 1.386 . S
C1015 C1016 1.373 . S
C1016 C1015 1.373 . S
C1016 C1017 1.409 . S
C1016 H1038 0.931 . S
C1017 C1012 1.356 . S
C1017 C1016 1.409 . S
C1017 H1039 0.930 . S
C1018 O1028 1.270 . S
C1018 O1029 1.248 . S
C1019 O1030 1.267 . S
C1019 O1031 1.278 . S
O1020 Pr1000 2.562 . S
O1020 C1002 1.254 . S
O1021 Pr1000 2.490 . S
O1021 C1002 1.225 . S
O1022 Pr1000 2.695 . S
O1022 Pr1001 2.436 . S
O1022 C1009 1.270 . S
O1023 Pr1000 2.512 . S
O1023 C1009 1.248 . S
O1024 Pr1001 2.438 . S
O1024 C1010 1.267 . S
O1025 Pr1000 2.437 . S
O1025 C1010 1.278 . S
O1026 Pr1001 2.562 . S
O1026 C1011 1.254 . S
O1027 Pr1001 2.490 . S
O1027 C1011 1.225 . S
O1028 Pr1000 2.436 . S
O1028 Pr1001 2.695 . S
O1028 C1018 1.270 . S
O1029 Pr1001 2.512 . S
O1029 C1018 1.248 . S
O1030 Pr1000 2.438 . S
O1030 C1019 1.267 . S
O1031 Pr1001 2.437 . S
O1031 C1019 1.278 . S
H1032 C1004 0.929 . S
H1033 C1005 0.929 . S
H1034 C1007 0.931 . S
H1035 C1008 0.930 . S
H1036 C1013 0.929 . S
H1037 C1014 0.929 . S
H1038 C1016 0.931 . S
H1039 C1017 0.930 . S
Pr1040 C1042 2.880 . S
Pr1040 O1060 2.562 . S
Pr1040 O1061 2.490 . S
Pr1040 O1062 2.704 . S
Pr1040 O1063 2.512 . S
Pr1040 O1065 2.437 . S
Pr1040 O1068 2.436 . S
Pr1040 O1070 2.438 . S
Pr1041 C1051 2.880 . S
Pr1041 O1062 2.432 1_556 S
Pr1041 O1064 2.438 1_556 S
Pr1041 O1066 2.562 . S
Pr1041 O1067 2.490 . S
Pr1041 O1068 2.695 1_556 S
Pr1041 O1069 2.507 1_556 S
Pr1041 O1071 2.437 . S
C1042 Pr1040 2.880 . S
C1042 C1043 1.491 . S
C1042 O1060 1.254 . S
C1042 O1061 1.225 . S
C1043 C1042 1.491 . S
C1043 C1044 1.392 . S
C1043 C1048 1.356 . S
C1044 C1043 1.392 . S
C1044 C1045 1.368 . S
C1044 H1072 0.929 . S
C1045 C1044 1.368 . S
C1045 C1046 1.386 . S
C1045 H1073 0.929 . S
C1046 C1045 1.386 . S
C1046 C1047 1.373 . S
C1047 C1046 1.373 . S
C1047 C1048 1.409 . S
C1047 H1074 0.931 . S
C1048 C1043 1.356 . S
C1048 C1047 1.409 . S
C1048 H1075 0.930 . S
C1049 O1062 1.273 . S
C1049 O1063 1.248 . S
C1050 O1064 1.267 . S
C1050 O1065 1.278 . S
C1051 Pr1041 2.880 . S
C1051 C1052 1.491 . S
C1051 O1066 1.254 . S
C1051 O1067 1.225 . S
C1052 C1051 1.491 . S
C1052 C1053 1.392 . S
C1052 C1057 1.356 . S
C1053 C1052 1.392 . S
C1053 C1054 1.368 . S
C1053 H1076 0.929 . S
C1054 C1053 1.368 . S
C1054 C1055 1.386 . S
C1054 H1077 0.929 . S
C1055 C1054 1.386 . S
C1055 C1056 1.373 . S
C1056 C1055 1.373 . S
C1056 C1057 1.409 . S
C1056 H1078 0.931 . S
C1057 C1052 1.356 . S
C1057 C1056 1.409 . S
C1057 H1079 0.930 . S
C1058 O1068 1.270 . S
C1058 O1069 1.262 . S
C1059 O1070 1.267 1_556 S
C1059 O1071 1.278 . S
O1060 Pr1040 2.562 . S
O1060 C1042 1.254 . S
O1061 Pr1040 2.490 . S
O1061 C1042 1.225 . S
O1062 Pr1040 2.704 . S
O1062 Pr1041 2.432 1_554 S
O1062 C1049 1.273 . S
O1063 Pr1040 2.512 . S
O1063 C1049 1.248 . S
O1064 Pr1041 2.438 1_554 S
O1064 C1050 1.267 . S
O1065 Pr1040 2.437 . S
O1065 C1050 1.278 . S
O1066 Pr1041 2.562 . S
O1066 C1051 1.254 . S
O1067 Pr1041 2.490 . S
O1067 C1051 1.225 . S
O1068 Pr1040 2.436 . S
O1068 Pr1041 2.695 1_554 S
O1068 C1058 1.270 . S
O1069 Pr1041 2.507 1_554 S
O1069 C1058 1.262 . S
O1070 Pr1040 2.438 . S
O1070 C1059 1.267 1_554 S
O1071 Pr1041 2.437 . S
O1071 C1059 1.278 . S
H1072 C1044 0.929 . S
H1073 C1045 0.929 . S
H1074 C1047 0.931 . S
H1075 C1048 0.930 . S
H1076 C1053 0.929 . S
H1077 C1054 0.929 . S
H1078 C1056 0.931 . S
H1079 C1057 0.930 . S
Pr1080 C1082 2.880 . S
Pr1080 O1100 2.562 . S
Pr1080 O1101 2.490 . S
Pr1080 O1102 2.695 . S
Pr1080 O1103 2.512 . S
Pr1080 O1105 2.437 . S
Pr1080 O1108 2.436 . S
Pr1080 O1110 2.438 . S
Pr1081 C1091 2.880 . S
Pr1081 O1102 2.436 1_556 S
Pr1081 O1104 2.438 1_556 S
Pr1081 O1106 2.562 . S
Pr1081 O1107 2.490 . S
Pr1081 O1108 2.695 1_556 S
Pr1081 O1109 2.507 1_556 S
Pr1081 O1111 2.437 . S
C1082 Pr1080 2.880 . S
C1082 C1083 1.491 . S
C1082 O1100 1.254 . S
C1082 O1101 1.225 . S
C1083 C1082 1.491 . S
C1083 C1084 1.392 . S
C1083 C1088 1.356 . S
C1084 C1083 1.392 . S
C1084 C1085 1.368 . S
C1084 H1112 0.929 . S
C1085 C1084 1.368 . S
C1085 C1086 1.386 . S
C1085 H1113 0.929 . S
C1086 C1085 1.386 . S
C1086 C1087 1.373 . S
C1087 C1086 1.373 . S
C1087 C1088 1.409 . S
C1087 H1114 0.931 . S
C1088 C1083 1.356 . S
C1088 C1087 1.409 . S
C1088 H1115 0.930 . S
C1089 O1102 1.270 . S
C1089 O1103 1.248 . S
C1090 O1104 1.267 . S
C1090 O1105 1.278 . S
C1091 Pr1081 2.880 . S
C1091 C1092 1.491 . S
C1091 O1106 1.254 . S
C1091 O1107 1.225 . S
C1092 C1091 1.491 . S
C1092 C1093 1.392 . S
C1092 C1097 1.356 . S
C1093 C1092 1.392 . S
C1093 C1094 1.368 . S
C1093 H1116 0.929 . S
C1094 C1093 1.368 . S
C1094 C1095 1.386 . S
C1094 H1117 0.929 . S
C1095 C1094 1.386 . S
C1095 C1096 1.373 . S
C1096 C1095 1.373 . S
C1096 C1097 1.409 . S
C1096 H1118 0.931 . S
C1097 C1092 1.356 . S
C1097 C1096 1.409 . S
C1097 H1119 0.930 . S
C1098 O1108 1.270 . S
C1098 O1109 1.262 . S
C1099 O1110 1.267 1_556 S
C1099 O1111 1.278 . S
O1100 Pr1080 2.562 . S
O1100 C1082 1.254 . S
O1101 Pr1080 2.490 . S
O1101 C1082 1.225 . S
O1102 Pr1080 2.695 . S
O1102 Pr1081 2.436 1_554 S
O1102 C1089 1.270 . S
O1103 Pr1080 2.512 . S
O1103 C1089 1.248 . S
O1104 Pr1081 2.438 1_554 S
O1104 C1090 1.267 . S
O1105 Pr1080 2.437 . S
O1105 C1090 1.278 . S
O1106 Pr1081 2.562 . S
O1106 C1091 1.254 . S
O1107 Pr1081 2.490 . S
O1107 C1091 1.225 . S
O1108 Pr1080 2.436 . S
O1108 Pr1081 2.695 1_554 S
O1108 C1098 1.270 . S
O1109 Pr1081 2.507 1_554 S
O1109 C1098 1.262 . S
O1110 Pr1080 2.438 . S
O1110 C1099 1.267 1_554 S
O1111 Pr1081 2.437 . S
O1111 C1099 1.278 . S
H1112 C1084 0.929 . S
H1113 C1085 0.929 . S
H1114 C1087 0.931 . S
H1115 C1088 0.930 . S
H1116 C1093 0.929 . S
H1117 C1094 0.929 . S
H1118 C1096 0.931 . S
H1119 C1097 0.930 . S
Pr1120 C1122 2.880 . S
Pr1120 O1140 2.562 . S
Pr1120 O1141 2.490 . S
Pr1120 O1142 2.695 . S
Pr1120 O1143 2.512 . S
Pr1120 O1145 2.437 . S
Pr1120 O1148 2.436 . S
Pr1120 O1150 2.438 . S
Pr1121 C1131 2.880 . S
Pr1121 O1142 2.436 . S
Pr1121 O1144 2.438 . S
Pr1121 O1146 2.562 . S
Pr1121 O1147 2.490 . S
Pr1121 O1148 2.695 . S
Pr1121 O1149 2.512 . S
Pr1121 O1151 2.437 . S
C1122 Pr1120 2.880 . S
C1122 C1123 1.491 . S
C1122 O1140 1.254 . S
C1122 O1141 1.225 . S
C1123 C1122 1.491 . S
C1123 C1124 1.392 . S
C1123 C1128 1.356 . S
C1124 C1123 1.392 . S
C1124 C1125 1.368 . S
C1124 H1152 0.929 . S
C1125 C1124 1.368 . S
C1125 C1126 1.386 . S
C1125 H1153 0.929 . S
C1126 C1125 1.386 . S
C1126 C1127 1.373 . S
C1127 C1126 1.373 . S
C1127 C1128 1.409 . S
C1127 H1154 0.931 . S
C1128 C1123 1.356 . S
C1128 C1127 1.409 . S
C1128 H1155 0.930 . S
C1129 O1142 1.270 . S
C1129 O1143 1.248 . S
C1130 O1144 1.267 . S
C1130 O1145 1.278 . S
C1131 Pr1121 2.880 . S
C1131 C1132 1.501 . S
C1131 O1146 1.254 . S
C1131 O1147 1.225 . S
C1132 C1131 1.501 . S
C1132 C1133 1.388 1_556 S
C1132 C1137 1.350 1_556 S
C1133 C1132 1.388 1_554 S
C1133 C1134 1.368 . S
C1133 H1156 0.929 . S
C1134 C1133 1.368 . S
C1134 C1135 1.386 . S
C1134 H1157 0.929 . S
C1135 C1134 1.386 . S
C1135 C1136 1.373 . S
C1136 C1135 1.373 . S
C1136 C1137 1.409 . S
C1136 H1158 0.931 . S
C1137 C1132 1.350 1_554 S
C1137 C1136 1.409 . S
C1137 H1159 0.930 . S
C1138 O1148 1.270 . S
C1138 O1149 1.248 . S
C1139 O1150 1.267 . S
C1139 O1151 1.278 . S
O1140 Pr1120 2.562 . S
O1140 C1122 1.254 . S
O1141 Pr1120 2.490 . S
O1141 C1122 1.225 . S
O1142 Pr1120 2.695 . S
O1142 Pr1121 2.436 . S
O1142 C1129 1.270 . S
O1143 Pr1120 2.512 . S
O1143 C1129 1.248 . S
O1144 Pr1121 2.438 . S
O1144 C1130 1.267 . S
O1145 Pr1120 2.437 . S
O1145 C1130 1.278 . S
O1146 Pr1121 2.562 . S
O1146 C1131 1.254 . S
O1147 Pr1121 2.490 . S
O1147 C1131 1.225 . S
O1148 Pr1120 2.436 . S
O1148 Pr1121 2.695 . S
O1148 C1138 1.270 . S
O1149 Pr1121 2.512 . S
O1149 C1138 1.248 . S
O1150 Pr1120 2.438 . S
O1150 C1139 1.267 . S
O1151 Pr1121 2.437 . S
O1151 C1139 1.278 . S
H1152 C1124 0.929 . S
H1153 C1125 0.929 . S
H1154 C1127 0.931 . S
H1155 C1128 0.930 . S
H1156 C1133 0.929 . S
H1157 C1134 0.929 . S
H1158 C1136 0.931 . S
H1159 C1137 0.930 . S
Pr1160 C1162 2.880 . S
Pr1160 O1180 2.562 . S
Pr1160 O1181 2.490 . S
Pr1160 O1182 2.695 . S
Pr1160 O1183 2.512 . S
Pr1160 O1185 2.437 . S
Pr1160 O1188 2.436 . S
Pr1160 O1190 2.438 . S
Pr1161 C1171 2.880 . S
Pr1161 O1182 2.436 . S
Pr1161 O1184 2.438 . S
Pr1161 O1186 2.562 . S
Pr1161 O1187 2.490 . S
Pr1161 O1188 2.695 . S
Pr1161 O1189 2.512 . S
Pr1161 O1191 2.437 . S
C1162 Pr1160 2.880 . S
C1162 C1163 1.491 . S
C1162 O1180 1.254 . S
C1162 O1181 1.225 . S
C1163 C1162 1.491 . S
C1163 C1164 1.392 . S
C1163 C1168 1.356 . S
C1164 C1163 1.392 . S
C1164 C1165 1.368 . S
C1164 H1192 0.929 . S
C1165 C1164 1.368 . S
C1165 C1166 1.386 . S
C1165 H1193 0.929 . S
C1166 C1165 1.386 . S
C1166 C1167 1.373 . S
C1167 C1166 1.373 . S
C1167 C1168 1.409 . S
C1167 H1194 0.931 . S
C1168 C1163 1.356 . S
C1168 C1167 1.409 . S
C1168 H1195 0.930 . S
C1169 O1182 1.270 . S
C1169 O1183 1.248 . S
C1170 O1184 1.267 . S
C1170 O1185 1.278 . S
C1171 Pr1161 2.880 . S
C1171 C1172 1.492 . S
C1171 O1186 1.254 . S
C1171 O1187 1.225 . S
C1172 C1171 1.492 . S
C1172 C1173 1.392 1_556 S
C1172 C1177 1.355 1_556 S
C1173 C1172 1.392 1_554 S
C1173 C1174 1.368 . S
C1173 H1196 0.929 . S
C1174 C1173 1.368 . S
C1174 C1175 1.386 . S
C1174 H1197 0.929 . S
C1175 C1174 1.386 . S
C1175 C1176 1.373 . S
C1176 C1175 1.373 . S
C1176 C1177 1.409 . S
C1176 H1198 0.931 . S
C1177 C1172 1.355 1_554 S
C1177 C1176 1.409 . S
C1177 H1199 0.930 . S
C1178 O1188 1.270 . S
C1178 O1189 1.248 . S
C1179 O1190 1.267 . S
C1179 O1191 1.278 . S
O1180 Pr1160 2.562 . S
O1180 C1162 1.254 . S
O1181 Pr1160 2.490 . S
O1181 C1162 1.225 . S
O1182 Pr1160 2.695 . S
O1182 Pr1161 2.436 . S
O1182 C1169 1.270 . S
O1183 Pr1160 2.512 . S
O1183 C1169 1.248 . S
O1184 Pr1161 2.438 . S
O1184 C1170 1.267 . S
O1185 Pr1160 2.437 . S
O1185 C1170 1.278 . S
O1186 Pr1161 2.562 . S
O1186 C1171 1.254 . S
O1187 Pr1161 2.490 . S
O1187 C1171 1.225 . S
O1188 Pr1160 2.436 . S
O1188 Pr1161 2.695 . S
O1188 C1178 1.270 . S
O1189 Pr1161 2.512 . S
O1189 C1178 1.248 . S
O1190 Pr1160 2.438 . S
O1190 C1179 1.267 . S
O1191 Pr1161 2.437 . S
O1191 C1179 1.278 . S
H1192 C1164 0.929 . S
H1193 C1165 0.929 . S
H1194 C1167 0.931 . S
H1195 C1168 0.930 . S
H1196 C1173 0.929 . S
H1197 C1174 0.929 . S
H1198 C1176 0.931 . S
H1199 C1177 0.930 . S
Pr1200 C1202 2.880 . S
Pr1200 O1220 2.562 . S
Pr1200 O1221 2.490 . S
Pr1200 O1222 2.695 1_554 S
Pr1200 O1223 2.507 1_554 S
Pr1200 O1225 2.437 . S
Pr1200 O1228 2.432 1_554 S
Pr1200 O1230 2.438 1_554 S
Pr1201 C1211 2.880 . S
Pr1201 O1222 2.436 . S
Pr1201 O1224 2.438 . S
Pr1201 O1226 2.562 . S
Pr1201 O1227 2.490 . S
Pr1201 O1228 2.704 . S
Pr1201 O1229 2.512 . S
Pr1201 O1231 2.437 . S
C1202 Pr1200 2.880 . S
C1202 C1203 1.491 . S
C1202 O1220 1.254 . S
C1202 O1221 1.225 . S
C1203 C1202 1.491 . S
C1203 C1204 1.392 . S
C1203 C1208 1.356 . S
C1204 C1203 1.392 . S
C1204 C1205 1.368 . S
C1204 H1232 0.929 . S
C1205 C1204 1.368 . S
C1205 C1206 1.386 . S
C1205 H1233 0.929 . S
C1206 C1205 1.386 . S
C1206 C1207 1.373 . S
C1207 C1206 1.373 . S
C1207 C1208 1.409 . S
C1207 H1234 0.931 . S
C1208 C1203 1.356 . S
C1208 C1207 1.409 . S
C1208 H1235 0.930 . S
C1209 O1222 1.270 . S
C1209 O1223 1.262 . S
C1210 O1224 1.267 1_554 S
C1210 O1225 1.278 . S
C1211 Pr1201 2.880 . S
C1211 C1212 1.491 . S
C1211 O1226 1.254 . S
C1211 O1227 1.225 . S
C1212 C1211 1.491 . S
C1212 C1213 1.392 . S
C1212 C1217 1.356 . S
C1213 C1212 1.392 . S
C1213 C1214 1.368 . S
C1213 H1236 0.929 . S
C1214 C1213 1.368 . S
C1214 C1215 1.386 . S
C1214 H1237 0.929 . S
C1215 C1214 1.386 . S
C1215 C1216 1.373 . S
C1216 C1215 1.373 . S
C1216 C1217 1.409 . S
C1216 H1238 0.931 . S
C1217 C1212 1.356 . S
C1217 C1216 1.409 . S
C1217 H1239 0.930 . S
C1218 O1228 1.273 . S
C1218 O1229 1.248 . S
C1219 O1230 1.267 . S
C1219 O1231 1.278 . S
O1220 Pr1200 2.562 . S
O1220 C1202 1.254 . S
O1221 Pr1200 2.490 . S
O1221 C1202 1.225 . S
O1222 Pr1200 2.695 1_556 S
O1222 Pr1201 2.436 . S
O1222 C1209 1.270 . S
O1223 Pr1200 2.507 1_556 S
O1223 C1209 1.262 . S
O1224 Pr1201 2.438 . S
O1224 C1210 1.267 1_556 S
O1225 Pr1200 2.437 . S
O1225 C1210 1.278 . S
O1226 Pr1201 2.562 . S
O1226 C1211 1.254 . S
O1227 Pr1201 2.490 . S
O1227 C1211 1.225 . S
O1228 Pr1200 2.432 1_556 S
O1228 Pr1201 2.704 . S
O1228 C1218 1.273 . S
O1229 Pr1201 2.512 . S
O1229 C1218 1.248 . S
O1230 Pr1200 2.438 1_556 S
O1230 C1219 1.267 . S
O1231 Pr1201 2.437 . S
O1231 C1219 1.278 . S
H1232 C1204 0.929 . S
H1233 C1205 0.929 . S
H1234 C1207 0.931 . S
H1235 C1208 0.930 . S
H1236 C1213 0.929 . S
H1237 C1214 0.929 . S
H1238 C1216 0.931 . S
H1239 C1217 0.930 . S
Pr1240 C1242 2.880 . S
Pr1240 O1260 2.562 . S
Pr1240 O1261 2.490 . S
Pr1240 O1262 2.695 1_554 S
Pr1240 O1263 2.507 1_554 S
Pr1240 O1265 2.437 . S
Pr1240 O1268 2.436 1_554 S
Pr1240 O1270 2.438 1_554 S
Pr1241 C1251 2.880 . S
Pr1241 O1262 2.436 . S
Pr1241 O1264 2.438 . S
Pr1241 O1266 2.562 . S
Pr1241 O1267 2.490 . S
Pr1241 O1268 2.695 . S
Pr1241 O1269 2.512 . S
Pr1241 O1271 2.437 . S
C1242 Pr1240 2.880 . S
C1242 C1243 1.491 . S
C1242 O1260 1.254 . S
C1242 O1261 1.225 . S
C1243 C1242 1.491 . S
C1243 C1244 1.392 . S
C1243 C1248 1.356 . S
C1244 C1243 1.392 . S
C1244 C1245 1.368 . S
C1244 H1272 0.929 . S
C1245 C1244 1.368 . S
C1245 C1246 1.386 . S
C1245 H1273 0.929 . S
C1246 C1245 1.386 . S
C1246 C1247 1.373 . S
C1247 C1246 1.373 . S
C1247 C1248 1.409 . S
C1247 H1274 0.931 . S
C1248 C1243 1.356 . S
C1248 C1247 1.409 . S
C1248 H1275 0.930 . S
C1249 O1262 1.270 . S
C1249 O1263 1.262 . S
C1250 O1264 1.267 1_554 S
C1250 O1265 1.278 . S
C1251 Pr1241 2.880 . S
C1251 C1252 1.491 . S
C1251 O1266 1.254 . S
C1251 O1267 1.225 . S
C1252 C1251 1.491 . S
C1252 C1253 1.392 . S
C1252 C1257 1.356 . S
C1253 C1252 1.392 . S
C1253 C1254 1.368 . S
C1253 H1276 0.929 . S
C1254 C1253 1.368 . S
C1254 C1255 1.386 . S
C1254 H1277 0.929 . S
C1255 C1254 1.386 . S
C1255 C1256 1.373 . S
C1256 C1255 1.373 . S
C1256 C1257 1.409 . S
C1256 H1278 0.931 . S
C1257 C1252 1.356 . S
C1257 C1256 1.409 . S
C1257 H1279 0.930 . S
C1258 O1268 1.270 . S
C1258 O1269 1.248 . S
C1259 O1270 1.267 . S
C1259 O1271 1.278 . S
O1260 Pr1240 2.562 . S
O1260 C1242 1.254 . S
O1261 Pr1240 2.490 . S
O1261 C1242 1.225 . S
O1262 Pr1240 2.695 1_556 S
O1262 Pr1241 2.436 . S
O1262 C1249 1.270 . S
O1263 Pr1240 2.507 1_556 S
O1263 C1249 1.262 . S
O1264 Pr1241 2.438 . S
O1264 C1250 1.267 1_556 S
O1265 Pr1240 2.437 . S
O1265 C1250 1.278 . S
O1266 Pr1241 2.562 . S
O1266 C1251 1.254 . S
O1267 Pr1241 2.490 . S
O1267 C1251 1.225 . S
O1268 Pr1240 2.436 1_556 S
O1268 Pr1241 2.695 . S
O1268 C1258 1.270 . S
O1269 Pr1241 2.512 . S
O1269 C1258 1.248 . S
O1270 Pr1240 2.438 1_556 S
O1270 C1259 1.267 . S
O1271 Pr1241 2.437 . S
O1271 C1259 1.278 . S
H1272 C1244 0.929 . S
H1273 C1245 0.929 . S
H1274 C1247 0.931 . S
H1275 C1248 0.930 . S
H1276 C1253 0.929 . S
H1277 C1254 0.929 . S
H1278 C1256 0.931 . S
H1279 C1257 0.930 . S
H1280 C1288 0.950 . S
H1281 C1293 0.950 . S
H1282 C1290 0.967 . S
H1283 C1292 0.950 . S
H1284 C1294 0.950 . S
H1285 C1296 0.959 . S
H1286 C1298 0.950 . S
H1287 C1299 0.950 . S
C1288 H1280 0.950 . S
C1288 C1289 1.386 . S
C1288 C1290 1.391 . S
C1289 C1288 1.386 . S
C1289 C1293 1.393 . S
C1290 H1282 0.967 . S
C1290 C1288 1.391 . S
C1290 C1291 1.400 . S
C1291 C1290 1.400 . S
C1291 C1292 1.398 . S
C1291 C1297 1.491 1_556 S
C1292 H1283 0.950 . S
C1292 C1291 1.398 . S
C1292 C1293 1.391 . S
C1293 H1281 0.950 . S
C1293 C1289 1.393 . S
C1293 C1292 1.391 . S
C1294 H1284 0.950 . S
C1294 C1295 1.386 . S
C1294 C1296 1.391 . S
C1295 C1294 1.386 . S
C1295 C1299 1.393 . S
C1296 H1285 0.959 . S
C1296 C1294 1.391 . S
C1296 C1297 1.400 . S
C1297 C1291 1.491 1_554 S
C1297 C1296 1.400 . S
C1297 C1298 1.398 . S
C1298 H1286 0.950 . S
C1298 C1297 1.398 . S
C1298 C1299 1.391 . S
C1299 H1287 0.950 . S
C1299 C1295 1.393 . S
C1299 C1298 1.391 . S
H1300 C1308 0.950 . S
H1301 C1313 0.950 . S
H1302 C1310 0.950 . S
H1303 C1312 0.950 1_554 S
H1304 C1314 0.950 . S
H1305 C1316 0.950 . S
H1306 C1318 0.950 1_556 S
H1307 C1319 0.950 . S
C1308 H1300 0.950 . S
C1308 C1309 1.386 1_565 S
C1308 C1310 1.391 1_455 S
C1309 C1308 1.386 1_545 S
C1309 C1313 1.393 . S
C1310 H1302 0.950 . S
C1310 C1308 1.391 1_655 S
C1310 C1311 1.399 1_665 S
C1311 C1310 1.399 1_445 S
C1311 C1312 1.399 . S
C1311 C1317 1.491 1_446 S
C1312 H1303 0.950 1_556 S
C1312 C1311 1.399 . S
C1312 C1313 1.391 . S
C1313 H1301 0.950 . S
C1313 C1309 1.393 . S
C1313 C1312 1.391 . S
C1314 H1304 0.950 . S
C1314 C1315 1.386 1_545 S
C1314 C1316 1.391 1_655 S
C1315 C1314 1.386 1_565 S
C1315 C1319 1.393 . S
C1316 H1305 0.950 . S
C1316 C1314 1.391 1_455 S
C1316 C1317 1.401 1_445 S
C1317 C1311 1.491 1_664 S
C1317 C1316 1.401 1_665 S
C1317 C1318 1.398 . S
C1318 H1306 0.950 1_554 S
C1318 C1317 1.398 . S
C1318 C1319 1.391 . S
C1319 H1307 0.950 . S
C1319 C1315 1.393 . S
C1319 C1318 1.391 . S
H1320 C1328 0.950 . S
H1321 C1333 0.950 . S
H1322 C1330 0.950 . S
H1323 C1332 0.950 . S
H1324 C1334 0.950 . S
H1325 C1336 0.950 . S
H1326 C1338 0.950 . S
H1327 C1339 0.950 . S
C1328 H1320 0.950 . S
C1328 C1329 1.386 . S
C1328 C1330 1.391 . S
C1329 C1328 1.386 . S
C1329 C1333 1.393 1_545 S
C1330 H1322 0.950 . S
C1330 C1328 1.391 . S
C1330 C1331 1.400 . S
C1331 C1330 1.400 . S
C1331 C1332 1.398 1_545 S
C1331 C1337 1.488 1_545 S
C1332 H1323 0.950 . S
C1332 C1331 1.398 1_565 S
C1332 C1333 1.391 . S
C1333 H1321 0.950 . S
C1333 C1329 1.393 1_565 S
C1333 C1332 1.391 . S
C1334 H1324 0.950 . S
C1334 C1335 1.386 . S
C1334 C1336 1.391 . S
C1335 C1334 1.386 . S
C1335 C1339 1.393 1_565 S
C1336 H1325 0.950 . S
C1336 C1334 1.391 . S
C1336 C1337 1.421 . S
C1337 C1331 1.488 1_565 S
C1337 C1336 1.421 . S
C1337 C1338 1.382 1_565 S
C1338 H1326 0.950 . S
C1338 C1337 1.382 1_545 S
C1338 C1339 1.391 . S
C1339 H1327 0.950 . S
C1339 C1335 1.393 1_545 S
C1339 C1338 1.391 . S
H1340 C1348 0.950 . S
H1341 C1353 0.950 . S
H1342 C1350 0.950 . S
H1343 C1352 0.950 . S
H1344 C1354 0.950 . S
H1345 C1356 0.950 . S
H1346 C1358 0.950 . S
H1347 C1359 0.950 . S
C1348 H1340 0.950 . S
C1348 C1349 1.386 . S
C1348 C1350 1.391 . S
C1349 C1348 1.386 . S
C1349 C1353 1.393 . S
C1350 H1342 0.950 . S
C1350 C1348 1.391 . S
C1350 C1351 1.400 . S
C1351 C1350 1.400 . S
C1351 C1352 1.398 1_455 S
C1351 C1357 1.491 1_455 S
C1352 H1343 0.950 . S
C1352 C1351 1.398 1_655 S
C1352 C1353 1.391 1_655 S
C1353 H1341 0.950 . S
C1353 C1349 1.393 . S
C1353 C1352 1.391 1_455 S
C1354 H1344 0.950 . S
C1354 C1355 1.386 . S
C1354 C1356 1.391 . S
C1355 C1354 1.386 . S
C1355 C1359 1.393 . S
C1356 H1345 0.950 . S
C1356 C1354 1.391 . S
C1356 C1357 1.400 . S
C1357 C1351 1.491 1_655 S
C1357 C1356 1.400 . S
C1357 C1358 1.398 1_655 S
C1358 H1346 0.950 . S
C1358 C1357 1.398 1_455 S
C1358 C1359 1.391 1_455 S
C1359 H1347 0.950 . S
C1359 C1355 1.393 . S
C1359 C1358 1.391 1_655 S
H1360 C1368 0.950 . S
H1361 C1373 0.950 . S
H1362 C1370 0.950 1_554 S
H1363 C1372 0.950 . S
H1364 C1374 0.950 . S
H1365 C1376 0.950 1_556 S
H1366 C1378 0.950 . S
H1367 C1379 0.950 . S
C1368 H1360 0.950 . S
C1368 C1369 1.386 . S
C1368 C1370 1.391 . S
C1369 C1368 1.386 . S
C1369 C1373 1.393 . S
C1370 H1362 0.950 1_556 S
C1370 C1368 1.391 . S
C1370 C1371 1.400 . S
C1371 C1370 1.400 . S
C1371 C1372 1.398 . S
C1371 C1377 1.491 1_556 S
C1372 H1363 0.950 . S
C1372 C1371 1.398 . S
C1372 C1373 1.391 . S
C1373 H1361 0.950 . S
C1373 C1369 1.393 . S
C1373 C1372 1.391 . S
C1374 H1364 0.950 . S
C1374 C1375 1.386 . S
C1374 C1376 1.391 . S
C1375 C1374 1.386 . S
C1375 C1379 1.393 . S
C1376 H1365 0.950 1_554 S
C1376 C1374 1.391 . S
C1376 C1377 1.400 . S
C1377 C1371 1.491 1_554 S
C1377 C1376 1.400 . S
C1377 C1378 1.398 . S
C1378 H1366 0.950 . S
C1378 C1377 1.398 . S
C1378 C1379 1.391 . S
C1379 H1367 0.950 . S
C1379 C1375 1.393 . S
C1379 C1378 1.391 . S
H1380 C1388 0.948 . S
H1381 C1393 0.950 . S
H1382 C1390 0.954 . S
H1383 C1392 0.950 . S
H1384 C1394 0.950 . S
H1385 C1396 0.950 . S
H1386 C1398 0.952 . S
H1387 C1399 0.950 . S
C1388 H1380 0.948 . S
C1388 C1389 1.386 1_545 S
C1388 C1390 1.391 . S
C1389 C1388 1.386 1_565 S
C1389 C1393 1.393 . S
C1390 H1382 0.954 . S
C1390 C1388 1.391 . S
C1390 C1391 1.399 1_545 S
C1391 C1390 1.399 1_565 S
C1391 C1392 1.399 . S
C1391 C1397 1.491 1_565 S
C1392 H1383 0.950 . S
C1392 C1391 1.399 . S
C1392 C1393 1.391 . S
C1393 H1381 0.950 . S
C1393 C1389 1.393 . S
C1393 C1392 1.391 . S
C1394 H1384 0.950 . S
C1394 C1395 1.385 1_565 S
C1394 C1396 1.392 . S
C1395 C1394 1.385 1_545 S
C1395 C1399 1.393 . S
C1396 H1385 0.950 . S
C1396 C1394 1.392 . S
C1396 C1397 1.400 1_565 S
C1397 C1391 1.491 1_545 S
C1397 C1396 1.400 1_545 S
C1397 C1398 1.398 . S
C1398 H1386 0.952 . S
C1398 C1397 1.398 . S
C1398 C1399 1.391 . S
C1399 H1387 0.950 . S
C1399 C1395 1.393 . S
C1399 C1398 1.391 . S
H1400 C1408 0.950 . S
H1401 C1413 0.950 . S
H1402 C1410 0.950 1_455 S
H1403 C1412 0.950 . S
H1404 C1414 0.950 . S
H1405 C1416 0.950 1_655 S
H1406 C1418 0.950 . S
H1407 C1419 0.950 . S
C1408 H1400 0.950 . S
C1408 C1409 1.386 . S
C1408 C1410 1.391 . S
C1409 C1408 1.386 . S
C1409 C1413 1.393 . S
C1410 H1402 0.950 1_655 S
C1410 C1408 1.391 . S
C1410 C1411 1.400 . S
C1411 C1410 1.400 . S
C1411 C1412 1.398 . S
C1411 C1417 1.491 1_655 S
C1412 H1403 0.950 . S
C1412 C1411 1.398 . S
C1412 C1413 1.391 . S
C1413 H1401 0.950 . S
C1413 C1409 1.393 . S
C1413 C1412 1.391 . S
C1414 H1404 0.950 . S
C1414 C1415 1.386 . S
C1414 C1416 1.391 . S
C1415 C1414 1.386 . S
C1415 C1419 1.393 . S
C1416 H1405 0.950 1_455 S
C1416 C1414 1.391 . S
C1416 C1417 1.400 . S
C1417 C1411 1.491 1_455 S
C1417 C1416 1.400 . S
C1417 C1418 1.398 . S
C1418 H1406 0.950 . S
C1418 C1417 1.398 . S
C1418 C1419 1.391 . S
C1419 H1407 0.950 . S
C1419 C1415 1.393 . S
C1419 C1418 1.391 . S
H1420 C1428 0.950 . S
H1421 C1433 0.950 . S
H1422 C1430 0.950 . S
H1423 C1432 0.950 . S
H1424 C1434 0.950 . S
H1425 C1436 0.950 . S
H1426 C1438 0.950 . S
H1427 C1439 0.950 . S
C1428 H1420 0.950 . S
C1428 C1429 1.386 . S
C1428 C1430 1.391 . S
C1429 C1428 1.386 . S
C1429 C1433 1.393 . S
C1430 H1422 0.950 . S
C1430 C1428 1.391 . S
C1430 C1431 1.400 . S
C1431 C1430 1.400 . S
C1431 C1432 1.398 . S
C1431 C1437 1.491 . S
C1432 H1423 0.950 . S
C1432 C1431 1.398 . S
C1432 C1433 1.391 . S
C1433 H1421 0.950 . S
C1433 C1429 1.393 . S
C1433 C1432 1.391 . S
C1434 H1424 0.950 . S
C1434 C1435 1.386 . S
C1434 C1436 1.391 . S
C1435 C1434 1.386 . S
C1435 C1439 1.393 . S
C1436 H1425 0.950 . S
C1436 C1434 1.391 . S
C1436 C1437 1.400 . S
C1437 C1431 1.491 . S
C1437 C1436 1.400 . S
C1437 C1438 1.398 . S
C1438 H1426 0.950 . S
C1438 C1437 1.398 . S
C1438 C1439 1.391 . S
C1439 H1427 0.950 . S
C1439 C1435 1.393 . S
C1439 C1438 1.391 . S
H1440 C1448 0.950 . S
H1441 C1453 0.950 . S
H1442 C1450 0.950 . S
H1443 C1452 0.950 . S
H1444 C1454 0.950 . S
H1445 C1456 0.950 . S
H1446 C1458 0.950 . S
H1447 C1459 0.950 . S
C1448 H1440 0.950 . S
C1448 C1449 1.386 . S
C1448 C1450 1.391 . S
C1449 C1448 1.386 . S
C1449 C1453 1.393 . S
C1450 H1442 0.950 . S
C1450 C1448 1.391 . S
C1450 C1451 1.400 . S
C1451 C1450 1.400 . S
C1451 C1452 1.398 . S
C1451 C1457 1.491 1_655 S
C1452 H1443 0.950 . S
C1452 C1451 1.398 . S
C1452 C1453 1.391 . S
C1453 H1441 0.950 . S
C1453 C1449 1.393 . S
C1453 C1452 1.391 . S
C1454 H1444 0.950 . S
C1454 C1455 1.386 . S
C1454 C1456 1.391 . S
C1455 C1454 1.386 . S
C1455 C1459 1.393 . S
C1456 H1445 0.950 . S
C1456 C1454 1.391 . S
C1456 C1457 1.400 . S
C1457 C1451 1.491 1_455 S
C1457 C1456 1.400 . S
C1457 C1458 1.398 . S
C1458 H1446 0.950 . S
C1458 C1457 1.398 . S
C1458 C1459 1.391 . S
C1459 H1447 0.950 . S
C1459 C1455 1.393 . S
C1459 C1458 1.391 . S
H1460 C1468 0.950 . S
H1461 C1473 0.950 . S
H1462 C1470 0.950 . S
H1463 C1472 0.950 . S
H1464 C1474 0.950 . S
H1465 C1476 0.950 . S
H1466 C1478 0.950 . S
H1467 C1479 0.950 . S
C1468 H1460 0.950 . S
C1468 C1469 1.386 . S
C1468 C1470 1.391 . S
C1469 C1468 1.386 . S
C1469 C1473 1.393 . S
C1470 H1462 0.950 . S
C1470 C1468 1.391 . S
C1470 C1471 1.400 . S
C1471 C1470 1.400 . S
C1471 C1472 1.398 . S
C1471 C1477 1.491 . S
C1472 H1463 0.950 . S
C1472 C1471 1.398 . S
C1472 C1473 1.391 . S
C1473 H1461 0.950 . S
C1473 C1469 1.393 . S
C1473 C1472 1.391 . S
C1474 H1464 0.950 . S
C1474 C1475 1.386 . S
C1474 C1476 1.391 . S
C1475 C1474 1.386 . S
C1475 C1479 1.393 . S
C1476 H1465 0.950 . S
C1476 C1474 1.391 . S
C1476 C1477 1.400 . S
C1477 C1471 1.491 . S
C1477 C1476 1.400 . S
C1477 C1478 1.398 . S
C1478 H1466 0.950 . S
C1478 C1477 1.398 . S
C1478 C1479 1.391 . S
C1479 H1467 0.950 . S
C1479 C1475 1.393 . S
C1479 C1478 1.391 . S
H1480 C1488 0.950 . S
H1481 C1493 0.950 . S
H1482 C1490 0.950 . S
H1483 C1492 0.950 . S
H1484 C1494 0.950 . S
H1485 C1496 0.950 . S
H1486 C1498 0.950 . S
H1487 C1499 0.950 . S
C1488 H1480 0.950 . S
C1488 C1489 1.386 . S
C1488 C1490 1.391 . S
C1489 C1488 1.386 . S
C1489 C1493 1.393 . S
C1490 H1482 0.950 . S
C1490 C1488 1.391 . S
C1490 C1491 1.400 . S
C1491 C1490 1.400 . S
C1491 C1492 1.398 . S
C1491 C1497 1.491 . S
C1492 H1483 0.950 . S
C1492 C1491 1.398 . S
C1492 C1493 1.391 . S
C1493 H1481 0.950 . S
C1493 C1489 1.393 . S
C1493 C1492 1.391 . S
C1494 H1484 0.950 . S
C1494 C1495 1.386 . S
C1494 C1496 1.391 . S
C1495 C1494 1.386 . S
C1495 C1499 1.393 . S
C1496 H1485 0.950 . S
C1496 C1494 1.391 . S
C1496 C1497 1.400 . S
C1497 C1491 1.491 . S
C1497 C1496 1.400 . S
C1497 C1498 1.398 . S
C1498 H1486 0.950 . S
C1498 C1497 1.398 . S
C1498 C1499 1.391 . S
C1499 H1487 0.950 . S
C1499 C1495 1.393 . S
C1499 C1498 1.391 . S
H1500 C1508 0.950 . S
H1501 C1513 0.950 . S
H1502 C1510 0.950 . S
H1503 C1512 0.950 . S
H1504 C1514 0.950 . S
H1505 C1516 0.950 . S
H1506 C1518 0.950 . S
H1507 C1519 0.950 . S
C1508 H1500 0.950 . S
C1508 C1509 1.386 . S
C1508 C1510 1.391 . S
C1509 C1508 1.386 . S
C1509 C1513 1.393 . S
C1510 H1502 0.950 . S
C1510 C1508 1.391 . S
C1510 C1511 1.400 . S
C1511 C1510 1.400 . S
C1511 C1512 1.398 . S
C1511 C1517 1.491 . S
C1512 H1503 0.950 . S
C1512 C1511 1.398 . S
C1512 C1513 1.391 . S
C1513 H1501 0.950 . S
C1513 C1509 1.393 . S
C1513 C1512 1.391 . S
C1514 H1504 0.950 . S
C1514 C1515 1.386 . S
C1514 C1516 1.391 . S
C1515 C1514 1.386 . S
C1515 C1519 1.393 . S
C1516 H1505 0.950 . S
C1516 C1514 1.391 . S
C1516 C1517 1.400 . S
C1517 C1511 1.491 . S
C1517 C1516 1.400 . S
C1517 C1518 1.398 . S
C1518 H1506 0.950 . S
C1518 C1517 1.398 . S
C1518 C1519 1.391 . S
C1519 H1507 0.950 . S
C1519 C1515 1.393 . S
C1519 C1518 1.391 . S
H1520 C1528 0.950 . S
H1521 C1533 0.950 . S
H1522 C1530 0.950 . S
H1523 C1532 0.950 . S
H1524 C1534 0.950 . S
H1525 C1536 0.950 . S
H1526 C1538 0.950 . S
H1527 C1539 0.950 . S
C1528 H1520 0.950 . S
C1528 C1529 1.386 1_545 S
C1528 C1530 1.391 . S
C1529 C1528 1.386 1_565 S
C1529 C1533 1.393 . S
C1530 H1522 0.950 . S
C1530 C1528 1.391 . S
C1530 C1531 1.395 1_545 S
C1531 C1530 1.395 1_565 S
C1531 C1532 1.404 . S
C1531 C1537 1.490 1_565 S
C1532 H1523 0.950 . S
C1532 C1531 1.404 . S
C1532 C1533 1.391 . S
C1533 H1521 0.950 . S
C1533 C1529 1.393 . S
C1533 C1532 1.391 . S
C1534 H1524 0.950 . S
C1534 C1535 1.386 1_565 S
C1534 C1536 1.391 . S
C1535 C1534 1.386 1_545 S
C1535 C1539 1.393 . S
C1536 H1525 0.950 . S
C1536 C1534 1.391 . S
C1536 C1537 1.400 1_565 S
C1537 C1531 1.490 1_545 S
C1537 C1536 1.400 1_545 S
C1537 C1538 1.399 . S
C1538 H1526 0.950 . S
C1538 C1537 1.399 . S
C1538 C1539 1.391 . S
C1539 H1527 0.950 . S
C1539 C1535 1.393 . S
C1539 C1538 1.391 . S
H1540 C1548 0.950 . S
H1541 C1553 0.950 . S
H1542 C1550 0.950 . S
H1543 C1552 0.950 . S
H1544 C1554 0.950 . S
H1545 C1556 0.950 . S
H1546 C1558 0.950 . S
H1547 C1559 0.950 . S
C1548 H1540 0.950 . S
C1548 C1549 1.386 . S
C1548 C1550 1.391 . S
C1549 C1548 1.386 . S
C1549 C1553 1.393 . S
C1550 H1542 0.950 . S
C1550 C1548 1.391 . S
C1550 C1551 1.400 . S
C1551 C1550 1.400 . S
C1551 C1552 1.398 . S
C1551 C1557 1.491 . S
C1552 H1543 0.950 . S
C1552 C1551 1.398 . S
C1552 C1553 1.391 . S
C1553 H1541 0.950 . S
C1553 C1549 1.393 . S
C1553 C1552 1.391 . S
C1554 H1544 0.950 . S
C1554 C1555 1.386 . S
C1554 C1556 1.391 . S
C1555 C1554 1.386 . S
C1555 C1559 1.393 . S
C1556 H1545 0.950 . S
C1556 C1554 1.391 . S
C1556 C1557 1.400 . S
C1557 C1551 1.491 . S
C1557 C1556 1.400 . S
C1557 C1558 1.398 . S
C1558 H1546 0.950 . S
C1558 C1557 1.398 . S
C1558 C1559 1.391 . S
C1559 H1547 0.950 . S
C1559 C1555 1.393 . S
C1559 C1558 1.391 . S
H1560 C1568 0.950 . S
H1561 C1573 0.950 . S
H1562 C1570 0.950 . S
H1563 C1572 0.950 . S
H1564 C1574 0.950 . S
H1565 C1576 0.950 . S
H1566 C1578 0.950 . S
H1567 C1579 0.950 . S
C1568 H1560 0.950 . S
C1568 C1569 1.386 . S
C1568 C1570 1.391 . S
C1569 C1568 1.386 . S
C1569 C1573 1.393 . S
C1570 H1562 0.950 . S
C1570 C1568 1.391 . S
C1570 C1571 1.400 . S
C1571 C1570 1.400 . S
C1571 C1572 1.398 . S
C1571 C1577 1.491 . S
C1572 H1563 0.950 . S
C1572 C1571 1.398 . S
C1572 C1573 1.391 . S
C1573 H1561 0.950 . S
C1573 C1569 1.393 . S
C1573 C1572 1.391 . S
C1574 H1564 0.950 . S
C1574 C1575 1.386 . S
C1574 C1576 1.391 . S
C1575 C1574 1.386 . S
C1575 C1579 1.393 . S
C1576 H1565 0.950 . S
C1576 C1574 1.391 . S
C1576 C1577 1.400 . S
C1577 C1571 1.491 . S
C1577 C1576 1.400 . S
C1577 C1578 1.398 . S
C1578 H1566 0.950 . S
C1578 C1577 1.398 . S
C1578 C1579 1.391 . S
C1579 H1567 0.950 . S
C1579 C1575 1.393 . S
C1579 C1578 1.391 . S
H1580 C1588 0.950 . S
H1581 C1593 0.950 . S
H1582 C1590 0.950 . S
H1583 C1592 0.946 1_554 S
H1584 C1594 0.950 . S
H1585 C1596 0.950 . S
H1586 C1598 0.946 1_556 S
H1587 C1599 0.950 . S
C1588 H1580 0.950 . S
C1588 C1589 1.386 . S
C1588 C1590 1.391 . S
C1589 C1588 1.386 . S
C1589 C1593 1.393 . S
C1590 H1582 0.950 . S
C1590 C1588 1.391 . S
C1590 C1591 1.400 . S
C1591 C1590 1.400 . S
C1591 C1592 1.398 . S
C1591 C1597 1.491 1_556 S
C1592 H1583 0.946 1_556 S
C1592 C1591 1.398 . S
C1592 C1593 1.391 . S
C1593 H1581 0.950 . S
C1593 C1589 1.393 . S
C1593 C1592 1.391 . S
C1594 H1584 0.950 . S
C1594 C1595 1.386 . S
C1594 C1596 1.391 . S
C1595 C1594 1.386 . S
C1595 C1599 1.393 . S
C1596 H1585 0.950 . S
C1596 C1594 1.391 . S
C1596 C1597 1.400 . S
C1597 C1591 1.491 1_554 S
C1597 C1596 1.400 . S
C1597 C1598 1.398 . S
C1598 H1586 0.946 1_554 S
C1598 C1597 1.398 . S
C1598 C1599 1.391 . S
C1599 H1587 0.950 . S
C1599 C1595 1.393 . S
C1599 C1598 1.391 . S
H1600 C1608 0.950 . S
H1601 C1613 0.950 . S
H1602 C1610 0.950 . S
H1603 C1612 0.950 . S
H1604 C1614 0.950 . S
H1605 C1616 0.950 . S
H1606 C1618 0.950 . S
H1607 C1619 0.950 . S
C1608 H1600 0.950 . S
C1608 C1609 1.386 . S
C1608 C1610 1.391 . S
C1609 C1608 1.386 . S
C1609 C1613 1.393 . S
C1610 H1602 0.950 . S
C1610 C1608 1.391 . S
C1610 C1611 1.400 . S
C1611 C1610 1.400 . S
C1611 C1612 1.398 . S
C1611 C1617 1.491 . S
C1612 H1603 0.950 . S
C1612 C1611 1.398 . S
C1612 C1613 1.391 . S
C1613 H1601 0.950 . S
C1613 C1609 1.393 . S
C1613 C1612 1.391 . S
C1614 H1604 0.950 . S
C1614 C1615 1.386 . S
C1614 C1616 1.391 . S
C1615 C1614 1.386 . S
C1615 C1619 1.393 . S
C1616 H1605 0.950 . S
C1616 C1614 1.391 . S
C1616 C1617 1.400 . S
C1617 C1611 1.491 . S
C1617 C1616 1.400 . S
C1617 C1618 1.398 . S
C1618 H1606 0.950 . S
C1618 C1617 1.398 . S
C1618 C1619 1.391 . S
C1619 H1607 0.950 . S
C1619 C1615 1.393 . S
C1619 C1618 1.391 . S
H1620 C1628 0.950 . S
H1621 C1633 0.950 . S
H1622 C1630 0.950 . S
H1623 C1632 0.950 . S
H1624 C1634 0.950 . S
H1625 C1636 0.950 . S
H1626 C1638 0.950 . S
H1627 C1639 0.950 . S
C1628 H1620 0.950 . S
C1628 C1629 1.386 1_565 S
C1628 C1630 1.391 . S
C1629 C1628 1.386 1_545 S
C1629 C1633 1.393 . S
C1630 H1622 0.950 . S
C1630 C1628 1.391 . S
C1630 C1631 1.400 1_565 S
C1631 C1630 1.400 1_545 S
C1631 C1632 1.398 . S
C1631 C1637 1.491 . S
C1632 H1623 0.950 . S
C1632 C1631 1.398 . S
C1632 C1633 1.391 . S
C1633 H1621 0.950 . S
C1633 C1629 1.393 . S
C1633 C1632 1.391 . S
C1634 H1624 0.950 . S
C1634 C1635 1.386 . S
C1634 C1636 1.391 . S
C1635 C1634 1.386 . S
C1635 C1639 1.393 1_545 S
C1636 H1625 0.950 . S
C1636 C1634 1.391 . S
C1636 C1637 1.400 . S
C1637 C1631 1.491 . S
C1637 C1636 1.400 . S
C1637 C1638 1.398 1_545 S
C1638 H1626 0.950 . S
C1638 C1637 1.398 1_565 S
C1638 C1639 1.391 . S
C1639 H1627 0.950 . S
C1639 C1635 1.393 1_565 S
C1639 C1638 1.391 . S
H1640 C1648 0.954 . S
H1641 C1653 0.950 . S
H1642 C1650 0.951 . S
H1643 C1652 0.950 . S
H1644 C1654 0.950 . S
H1645 C1656 0.950 . S
H1646 C1658 0.950 . S
H1647 C1659 0.971 1_565 S
C1648 H1640 0.954 . S
C1648 C1649 1.386 . S
C1648 C1650 1.391 . S
C1649 C1648 1.386 . S
C1649 C1653 1.393 . S
C1650 H1642 0.951 . S
C1650 C1648 1.391 . S
C1650 C1651 1.400 . S
C1651 C1650 1.400 . S
C1651 C1652 1.398 . S
C1651 C1657 1.491 . S
C1652 H1643 0.950 . S
C1652 C1651 1.398 . S
C1652 C1653 1.391 . S
C1653 H1641 0.950 . S
C1653 C1649 1.393 . S
C1653 C1652 1.391 . S
C1654 H1644 0.950 . S
C1654 C1655 1.386 . S
C1654 C1656 1.391 . S
C1655 C1654 1.386 . S
C1655 C1659 1.392 . S
C1656 H1645 0.950 . S
C1656 C1654 1.391 . S
C1656 C1657 1.400 . S
C1657 C1651 1.491 . S
C1657 C1656 1.400 . S
C1657 C1658 1.398 1_545 S
C1658 H1646 0.950 . S
C1658 C1657 1.398 1_565 S
C1658 C1659 1.391 1_565 S
C1659 H1647 0.971 1_545 S
C1659 C1655 1.392 . S
C1659 C1658 1.391 1_545 S
H1660 C1668 0.950 . S
H1661 C1673 0.950 . S
H1662 C1670 0.950 . S
H1663 C1672 0.950 . S
H1664 C1674 0.950 . S
H1665 C1676 0.950 . S
H1666 C1678 0.950 . S
H1667 C1679 0.950 . S
C1668 H1660 0.950 . S
C1668 C1669 1.386 . S
C1668 C1670 1.391 . S
C1669 C1668 1.386 . S
C1669 C1673 1.393 . S
C1670 H1662 0.950 . S
C1670 C1668 1.391 . S
C1670 C1671 1.400 . S
C1671 C1670 1.400 . S
C1671 C1672 1.398 . S
C1671 C1677 1.491 . S
C1672 H1663 0.950 . S
C1672 C1671 1.398 . S
C1672 C1673 1.391 . S
C1673 H1661 0.950 . S
C1673 C1669 1.393 . S
C1673 C1672 1.391 . S
C1674 H1664 0.950 . S
C1674 C1675 1.386 . S
C1674 C1676 1.391 . S
C1675 C1674 1.386 . S
C1675 C1679 1.393 . S
C1676 H1665 0.950 . S
C1676 C1674 1.391 . S
C1676 C1677 1.400 . S
C1677 C1671 1.491 . S
C1677 C1676 1.400 . S
C1677 C1678 1.398 . S
C1678 H1666 0.950 . S
C1678 C1677 1.398 . S
C1678 C1679 1.391 . S
C1679 H1667 0.950 . S
C1679 C1675 1.393 . S
C1679 C1678 1.391 . S
H1680 C1688 0.950 . S
H1681 C1693 0.950 . S
H1682 C1690 0.950 . S
H1683 C1692 0.950 . S
H1684 C1694 0.950 . S
H1685 C1696 0.950 . S
H1686 C1698 0.950 . S
H1687 C1699 0.950 . S
C1688 H1680 0.950 . S
C1688 C1689 1.386 . S
C1688 C1690 1.391 . S
C1689 C1688 1.386 . S
C1689 C1693 1.393 . S
C1690 H1682 0.950 . S
C1690 C1688 1.391 . S
C1690 C1691 1.400 . S
C1691 C1690 1.400 . S
C1691 C1692 1.398 . S
C1691 C1697 1.491 . S
C1692 H1683 0.950 . S
C1692 C1691 1.398 . S
C1692 C1693 1.391 . S
C1693 H1681 0.950 . S
C1693 C1689 1.393 . S
C1693 C1692 1.391 . S
C1694 H1684 0.950 . S
C1694 C1695 1.386 . S
C1694 C1696 1.391 . S
C1695 C1694 1.386 . S
C1695 C1699 1.393 . S
C1696 H1685 0.950 . S
C1696 C1694 1.391 . S
C1696 C1697 1.400 . S
C1697 C1691 1.491 . S
C1697 C1696 1.400 . S
C1697 C1698 1.398 . S
C1698 H1686 0.950 . S
C1698 C1697 1.398 . S
C1698 C1699 1.391 . S
C1699 H1687 0.950 . S
C1699 C1695 1.393 . S
C1699 C1698 1.391 . S
H1700 C1708 0.950 . S
H1701 C1713 0.950 . S
H1702 C1710 0.950 . S
H1703 C1712 0.950 . S
H1704 C1714 0.950 . S
H1705 C1716 0.950 . S
H1706 C1718 0.950 . S
H1707 C1719 0.950 . S
C1708 H1700 0.950 . S
C1708 C1709 1.386 1_545 S
C1708 C1710 1.391 . S
C1709 C1708 1.386 1_565 S
C1709 C1713 1.393 . S
C1710 H1702 0.950 . S
C1710 C1708 1.391 . S
C1710 C1711 1.400 1_545 S
C1711 C1710 1.400 1_565 S
C1711 C1712 1.398 . S
C1711 C1717 1.491 . S
C1712 H1703 0.950 . S
C1712 C1711 1.398 . S
C1712 C1713 1.391 . S
C1713 H1701 0.950 . S
C1713 C1709 1.393 . S
C1713 C1712 1.391 . S
C1714 H1704 0.950 . S
C1714 C1715 1.386 . S
C1714 C1716 1.391 . S
C1715 C1714 1.386 . S
C1715 C1719 1.393 1_565 S
C1716 H1705 0.950 . S
C1716 C1714 1.391 . S
C1716 C1717 1.400 . S
C1717 C1711 1.491 . S
C1717 C1716 1.400 . S
C1717 C1718 1.398 1_565 S
C1718 H1706 0.950 . S
C1718 C1717 1.398 1_545 S
C1718 C1719 1.391 . S
C1719 H1707 0.950 . S
C1719 C1715 1.393 1_545 S
C1719 C1718 1.391 . S
H1720 C1728 0.975 . S
H1721 C1733 0.950 . S
H1722 C1730 0.950 . S
H1723 C1732 0.950 . S
H1724 C1734 0.950 . S
H1725 C1736 0.950 . S
H1726 C1738 0.951 . S
H1727 C1739 0.949 . S
C1728 H1720 0.975 . S
C1728 C1729 1.386 . S
C1728 C1730 1.391 . S
C1729 C1728 1.386 . S
C1729 C1733 1.393 . S
C1730 H1722 0.950 . S
C1730 C1728 1.391 . S
C1730 C1731 1.400 . S
C1731 C1730 1.400 . S
C1731 C1732 1.398 . S
C1731 C1737 1.491 . S
C1732 H1723 0.950 . S
C1732 C1731 1.398 . S
C1732 C1733 1.391 . S
C1733 H1721 0.950 . S
C1733 C1729 1.393 . S
C1733 C1732 1.391 . S
C1734 H1724 0.950 . S
C1734 C1735 1.386 . S
C1734 C1736 1.391 . S
C1735 C1734 1.386 . S
C1735 C1739 1.393 1_565 S
C1736 H1725 0.950 . S
C1736 C1734 1.391 . S
C1736 C1737 1.400 . S
C1737 C1731 1.491 . S
C1737 C1736 1.400 . S
C1737 C1738 1.398 1_565 S
C1738 H1726 0.951 . S
C1738 C1737 1.398 1_545 S
C1738 C1739 1.391 . S
C1739 H1727 0.949 . S
C1739 C1735 1.393 1_545 S
C1739 C1738 1.391 . S
H1740 C1748 0.950 . S
H1741 C1753 0.950 . S
H1742 C1750 0.950 . S
H1743 C1752 0.950 . S
H1744 C1754 0.950 . S
H1745 C1756 0.950 . S
H1746 C1758 0.950 . S
H1747 C1759 0.950 . S
C1748 H1740 0.950 . S
C1748 C1749 1.386 . S
C1748 C1750 1.391 . S
C1749 C1748 1.386 . S
C1749 C1753 1.393 . S
C1750 H1742 0.950 . S
C1750 C1748 1.391 . S
C1750 C1751 1.400 . S
C1751 C1750 1.400 . S
C1751 C1752 1.398 . S
C1751 C1757 1.491 . S
C1752 H1743 0.950 . S
C1752 C1751 1.398 . S
C1752 C1753 1.391 . S
C1753 H1741 0.950 . S
C1753 C1749 1.393 . S
C1753 C1752 1.391 . S
C1754 H1744 0.950 . S
C1754 C1755 1.386 . S
C1754 C1756 1.391 . S
C1755 C1754 1.386 . S
C1755 C1759 1.393 . S
C1756 H1745 0.950 . S
C1756 C1754 1.391 . S
C1756 C1757 1.400 . S
C1757 C1751 1.491 . S
C1757 C1756 1.400 . S
C1757 C1758 1.398 . S
C1758 H1746 0.950 . S
C1758 C1757 1.398 . S
C1758 C1759 1.391 . S
C1759 H1747 0.950 . S
C1759 C1755 1.393 . S
C1759 C1758 1.391 . S
H1760 C1768 0.950 . S
H1761 C1773 0.950 . S
H1762 C1770 0.950 . S
H1763 C1772 0.950 . S
H1764 C1774 0.950 . S
H1765 C1776 0.950 . S
H1766 C1778 0.950 . S
H1767 C1779 0.950 . S
C1768 H1760 0.950 . S
C1768 C1769 1.386 . S
C1768 C1770 1.391 . S
C1769 C1768 1.386 . S
C1769 C1773 1.393 . S
C1770 H1762 0.950 . S
C1770 C1768 1.391 . S
C1770 C1771 1.400 . S
C1771 C1770 1.400 . S
C1771 C1772 1.398 . S
C1771 C1777 1.491 . S
C1772 H1763 0.950 . S
C1772 C1771 1.398 . S
C1772 C1773 1.391 . S
C1773 H1761 0.950 . S
C1773 C1769 1.393 . S
C1773 C1772 1.391 . S
C1774 H1764 0.950 . S
C1774 C1775 1.386 . S
C1774 C1776 1.391 . S
C1775 C1774 1.386 . S
C1775 C1779 1.393 . S
C1776 H1765 0.950 . S
C1776 C1774 1.391 . S
C1776 C1777 1.400 . S
C1777 C1771 1.491 . S
C1777 C1776 1.400 . S
C1777 C1778 1.398 . S
C1778 H1766 0.950 . S
C1778 C1777 1.398 . S
C1778 C1779 1.391 . S
C1779 H1767 0.950 . S
C1779 C1775 1.393 . S
C1779 C1778 1.391 . S
H1780 C1788 0.950 . S
H1781 C1793 0.950 . S
H1782 C1790 0.950 . S
H1783 C1792 0.950 . S
H1784 C1794 0.950 . S
H1785 C1796 0.950 . S
H1786 C1798 0.950 . S
H1787 C1799 0.950 . S
C1788 H1780 0.950 . S
C1788 C1789 1.386 . S
C1788 C1790 1.391 . S
C1789 C1788 1.386 . S
C1789 C1793 1.393 . S
C1790 H1782 0.950 . S
C1790 C1788 1.391 . S
C1790 C1791 1.400 . S
C1791 C1790 1.400 . S
C1791 C1792 1.398 . S
C1791 C1797 1.491 . S
C1792 H1783 0.950 . S
C1792 C1791 1.398 . S
C1792 C1793 1.391 . S
C1793 H1781 0.950 . S
C1793 C1789 1.393 . S
C1793 C1792 1.391 . S
C1794 H1784 0.950 . S
C1794 C1795 1.386 . S
C1794 C1796 1.391 . S
C1795 C1794 1.386 . S
C1795 C1799 1.393 . S
C1796 H1785 0.950 . S
C1796 C1794 1.391 . S
C1796 C1797 1.400 . S
C1797 C1791 1.491 . S
C1797 C1796 1.400 . S
C1797 C1798 1.398 . S
C1798 H1786 0.950 . S
C1798 C1797 1.398 . S
C1798 C1799 1.391 . S
C1799 H1787 0.950 . S
C1799 C1795 1.393 . S
C1799 C1798 1.391 . S
H1800 C1808 0.950 . S
H1801 C1813 0.950 . S
H1802 C1810 0.950 . S
H1803 C1812 0.950 . S
H1804 C1814 0.950 . S
H1805 C1816 0.950 . S
H1806 C1818 0.950 . S
H1807 C1819 0.950 . S
C1808 H1800 0.950 . S
C1808 C1809 1.386 . S
C1808 C1810 1.391 . S
C1809 C1808 1.386 . S
C1809 C1813 1.393 . S
C1810 H1802 0.950 . S
C1810 C1808 1.391 . S
C1810 C1811 1.400 . S
C1811 C1810 1.400 . S
C1811 C1812 1.398 . S
C1811 C1817 1.491 . S
C1812 H1803 0.950 . S
C1812 C1811 1.398 . S
C1812 C1813 1.391 . S
C1813 H1801 0.950 . S
C1813 C1809 1.393 . S
C1813 C1812 1.391 . S
C1814 H1804 0.950 . S
C1814 C1815 1.386 . S
C1814 C1816 1.391 . S
C1815 C1814 1.386 . S
C1815 C1819 1.393 . S
C1816 H1805 0.950 . S
C1816 C1814 1.391 . S
C1816 C1817 1.400 . S
C1817 C1811 1.491 . S
C1817 C1816 1.400 . S
C1817 C1818 1.398 . S
C1818 H1806 0.950 . S
C1818 C1817 1.398 . S
C1818 C1819 1.391 . S
C1819 H1807 0.950 . S
C1819 C1815 1.393 . S
C1819 C1818 1.391 . S
H1820 C1828 0.950 . S
H1821 C1833 0.950 . S
H1822 C1830 0.950 . S
H1823 C1832 0.950 . S
H1824 C1834 0.950 . S
H1825 C1836 0.950 . S
H1826 C1838 0.950 . S
H1827 C1839 0.950 . S
C1828 H1820 0.950 . S
C1828 C1829 1.386 . S
C1828 C1830 1.391 . S
C1829 C1828 1.386 . S
C1829 C1833 1.393 . S
C1830 H1822 0.950 . S
C1830 C1828 1.391 . S
C1830 C1831 1.400 . S
C1831 C1830 1.400 . S
C1831 C1832 1.398 . S
C1831 C1837 1.491 . S
C1832 H1823 0.950 . S
C1832 C1831 1.398 . S
C1832 C1833 1.391 . S
C1833 H1821 0.950 . S
C1833 C1829 1.393 . S
C1833 C1832 1.391 . S
C1834 H1824 0.950 . S
C1834 C1835 1.386 . S
C1834 C1836 1.391 . S
C1835 C1834 1.386 . S
C1835 C1839 1.393 . S
C1836 H1825 0.950 . S
C1836 C1834 1.391 . S
C1836 C1837 1.400 . S
C1837 C1831 1.491 . S
C1837 C1836 1.400 . S
C1837 C1838 1.398 . S
C1838 H1826 0.950 . S
C1838 C1837 1.398 . S
C1838 C1839 1.391 . S
C1839 H1827 0.950 . S
C1839 C1835 1.393 . S
C1839 C1838 1.391 . S
H1840 C1848 0.950 . S
H1841 C1853 0.950 . S
H1842 C1850 0.950 . S
H1843 C1852 0.950 . S
H1844 C1854 0.950 . S
H1845 C1856 0.950 . S
H1846 C1858 0.950 . S
H1847 C1859 0.950 . S
C1848 H1840 0.950 . S
C1848 C1849 1.386 . S
C1848 C1850 1.391 . S
C1849 C1848 1.386 . S
C1849 C1853 1.393 . S
C1850 H1842 0.950 . S
C1850 C1848 1.391 . S
C1850 C1851 1.400 . S
C1851 C1850 1.400 . S
C1851 C1852 1.398 . S
C1851 C1857 1.491 . S
C1852 H1843 0.950 . S
C1852 C1851 1.398 . S
C1852 C1853 1.391 . S
C1853 H1841 0.950 . S
C1853 C1849 1.393 . S
C1853 C1852 1.391 . S
C1854 H1844 0.950 . S
C1854 C1855 1.386 . S
C1854 C1856 1.391 . S
C1855 C1854 1.386 . S
C1855 C1859 1.393 . S
C1856 H1845 0.950 . S
C1856 C1854 1.391 . S
C1856 C1857 1.400 . S
C1857 C1851 1.491 . S
C1857 C1856 1.400 . S
C1857 C1858 1.398 . S
C1858 H1846 0.950 . S
C1858 C1857 1.398 . S
C1858 C1859 1.391 . S
C1859 H1847 0.950 . S
C1859 C1855 1.393 . S
C1859 C1858 1.391 . S
H1860 C1868 0.950 . S
H1861 C1873 0.950 . S
H1862 C1870 0.950 . S
H1863 C1872 0.950 . S
H1864 C1874 0.950 . S
H1865 C1876 0.950 . S
H1866 C1878 0.950 . S
H1867 C1879 0.950 . S
C1868 H1860 0.950 . S
C1868 C1869 1.386 . S
C1868 C1870 1.391 . S
C1869 C1868 1.386 . S
C1869 C1873 1.393 . S
C1870 H1862 0.950 . S
C1870 C1868 1.391 . S
C1870 C1871 1.400 . S
C1871 C1870 1.400 . S
C1871 C1872 1.398 . S
C1871 C1877 1.491 . S
C1872 H1863 0.950 . S
C1872 C1871 1.398 . S
C1872 C1873 1.391 . S
C1873 H1861 0.950 . S
C1873 C1869 1.393 . S
C1873 C1872 1.391 . S
C1874 H1864 0.950 . S
C1874 C1875 1.386 . S
C1874 C1876 1.391 . S
C1875 C1874 1.386 . S
C1875 C1879 1.393 . S
C1876 H1865 0.950 . S
C1876 C1874 1.391 . S
C1876 C1877 1.400 . S
C1877 C1871 1.491 . S
C1877 C1876 1.400 . S
C1877 C1878 1.398 . S
C1878 H1866 0.950 . S
C1878 C1877 1.398 . S
C1878 C1879 1.391 . S
C1879 H1867 0.950 . S
C1879 C1875 1.393 . S
C1879 C1878 1.391 . S
H1880 C1888 0.950 . S
H1881 C1893 0.950 . S
H1882 C1890 0.950 . S
H1883 C1892 0.950 . S
H1884 C1894 0.950 . S
H1885 C1896 0.950 . S
H1886 C1898 0.950 . S
H1887 C1899 0.950 . S
C1888 H1880 0.950 . S
C1888 C1889 1.386 . S
C1888 C1890 1.391 . S
C1889 C1888 1.386 . S
C1889 C1893 1.393 . S
C1890 H1882 0.950 . S
C1890 C1888 1.391 . S
C1890 C1891 1.400 . S
C1891 C1890 1.400 . S
C1891 C1892 1.398 . S
C1891 C1897 1.491 . S
C1892 H1883 0.950 . S
C1892 C1891 1.398 . S
C1892 C1893 1.391 . S
C1893 H1881 0.950 . S
C1893 C1889 1.393 . S
C1893 C1892 1.391 . S
C1894 H1884 0.950 . S
C1894 C1895 1.386 . S
C1894 C1896 1.391 . S
C1895 C1894 1.386 . S
C1895 C1899 1.393 . S
C1896 H1885 0.950 . S
C1896 C1894 1.391 . S
C1896 C1897 1.400 . S
C1897 C1891 1.491 . S
C1897 C1896 1.400 . S
C1897 C1898 1.398 . S
C1898 H1886 0.950 . S
C1898 C1897 1.398 . S
C1898 C1899 1.391 . S
C1899 H1887 0.950 . S
C1899 C1895 1.393 . S
C1899 C1898 1.391 . S
H1900 C1908 0.950 . S
H1901 C1913 0.950 . S
H1902 C1910 0.950 . S
H1903 C1912 0.950 . S
H1904 C1914 0.950 . S
H1905 C1916 0.950 . S
H1906 C1918 0.950 . S
H1907 C1919 0.950 . S
C1908 H1900 0.950 . S
C1908 C1909 1.386 . S
C1908 C1910 1.391 . S
C1909 C1908 1.386 . S
C1909 C1913 1.393 . S
C1910 H1902 0.950 . S
C1910 C1908 1.391 . S
C1910 C1911 1.400 . S
C1911 C1910 1.400 . S
C1911 C1912 1.398 . S
C1911 C1917 1.491 . S
C1912 H1903 0.950 . S
C1912 C1911 1.398 . S
C1912 C1913 1.391 . S
C1913 H1901 0.950 . S
C1913 C1909 1.393 . S
C1913 C1912 1.391 . S
C1914 H1904 0.950 . S
C1914 C1915 1.386 . S
C1914 C1916 1.391 . S
C1915 C1914 1.386 . S
C1915 C1919 1.393 . S
C1916 H1905 0.950 . S
C1916 C1914 1.391 . S
C1916 C1917 1.400 . S
C1917 C1911 1.491 . S
C1917 C1916 1.400 . S
C1917 C1918 1.398 . S
C1918 H1906 0.950 . S
C1918 C1917 1.398 . S
C1918 C1919 1.391 . S
C1919 H1907 0.950 . S
C1919 C1915 1.393 . S
C1919 C1918 1.391 . S
H1920 C1928 0.950 . S
H1921 C1933 0.950 . S
H1922 C1930 0.950 . S
H1923 C1932 0.950 . S
H1924 C1934 0.950 . S
H1925 C1936 0.950 . S
H1926 C1938 0.950 . S
H1927 C1939 0.950 . S
C1928 H1920 0.950 . S
C1928 C1929 1.386 . S
C1928 C1930 1.391 . S
C1929 C1928 1.386 . S
C1929 C1933 1.393 . S
C1930 H1922 0.950 . S
C1930 C1928 1.391 . S
C1930 C1931 1.400 . S
C1931 C1930 1.400 . S
C1931 C1932 1.398 . S
C1931 C1937 1.491 . S
C1932 H1923 0.950 . S
C1932 C1931 1.398 . S
C1932 C1933 1.391 . S
C1933 H1921 0.950 . S
C1933 C1929 1.393 . S
C1933 C1932 1.391 . S
C1934 H1924 0.950 . S
C1934 C1935 1.386 . S
C1934 C1936 1.391 . S
C1935 C1934 1.386 . S
C1935 C1939 1.393 . S
C1936 H1925 0.950 . S
C1936 C1934 1.391 . S
C1936 C1937 1.400 . S
C1937 C1931 1.491 . S
C1937 C1936 1.400 . S
C1937 C1938 1.398 . S
C1938 H1926 0.950 . S
C1938 C1937 1.398 . S
C1938 C1939 1.391 . S
C1939 H1927 0.950 . S
C1939 C1935 1.393 . S
C1939 C1938 1.391 . S
H1940 C1948 0.950 . S
H1941 C1953 0.950 1_565 S
H1942 C1950 0.950 . S
H1943 C1952 0.950 . S
H1944 C1954 0.950 . S
H1945 C1956 0.950 . S
H1946 C1958 0.950 . S
H1947 C1959 0.950 1_545 S
C1948 H1940 0.950 . S
C1948 C1949 1.386 . S
C1948 C1950 1.391 . S
C1949 C1948 1.386 . S
C1949 C1953 1.393 . S
C1950 H1942 0.950 . S
C1950 C1948 1.391 . S
C1950 C1951 1.400 . S
C1951 C1950 1.400 . S
C1951 C1952 1.398 1_545 S
C1951 C1957 1.491 1_545 S
C1952 H1943 0.950 . S
C1952 C1951 1.398 1_565 S
C1952 C1953 1.391 1_565 S
C1953 H1941 0.950 1_545 S
C1953 C1949 1.393 . S
C1953 C1952 1.391 1_545 S
C1954 H1944 0.950 . S
C1954 C1955 1.386 . S
C1954 C1956 1.391 . S
C1955 C1954 1.386 . S
C1955 C1959 1.393 . S
C1956 H1945 0.950 . S
C1956 C1954 1.391 . S
C1956 C1957 1.400 . S
C1957 C1951 1.491 1_565 S
C1957 C1956 1.400 . S
C1957 C1958 1.398 1_565 S
C1958 H1946 0.950 . S
C1958 C1957 1.398 1_545 S
C1958 C1959 1.391 1_545 S
C1959 H1947 0.950 1_565 S
C1959 C1955 1.393 . S
C1959 C1958 1.391 1_565 S
H1960 C1968 0.950 1_545 S
H1961 C1973 0.950 . S
H1962 C1970 0.950 . S
H1963 C1972 0.950 . S
H1964 C1974 0.950 1_565 S
H1965 C1976 0.950 . S
H1966 C1978 0.950 . S
H1967 C1979 0.950 . S
C1968 H1960 0.950 1_565 S
C1968 C1969 1.386 . S
C1968 C1970 1.391 1_565 S
C1969 C1968 1.386 . S
C1969 C1973 1.393 . S
C1970 H1962 0.950 . S
C1970 C1968 1.391 1_545 S
C1970 C1971 1.400 1_545 S
C1971 C1970 1.400 1_565 S
C1971 C1972 1.398 . S
C1971 C1977 1.491 1_565 S
C1972 H1963 0.950 . S
C1972 C1971 1.398 . S
C1972 C1973 1.391 . S
C1973 H1961 0.950 . S
C1973 C1969 1.393 . S
C1973 C1972 1.391 . S
C1974 H1964 0.950 1_545 S
C1974 C1975 1.386 . S
C1974 C1976 1.391 1_545 S
C1975 C1974 1.386 . S
C1975 C1979 1.393 . S
C1976 H1965 0.950 . S
C1976 C1974 1.391 1_565 S
C1976 C1977 1.400 1_565 S
C1977 C1971 1.491 1_545 S
C1977 C1976 1.400 1_545 S
C1977 C1978 1.398 . S
C1978 H1966 0.950 . S
C1978 C1977 1.398 . S
C1978 C1979 1.391 . S
C1979 H1967 0.950 . S
C1979 C1975 1.393 . S
C1979 C1978 1.391 . S
H1980 C1988 0.950 . S
H1981 C1993 0.950 . S
H1982 C1990 0.950 . S
H1983 C1992 0.950 . S
H1984 C1994 0.950 . S
H1985 C1996 0.950 . S
H1986 C1998 0.950 . S
H1987 C1999 0.950 . S
C1988 H1980 0.950 . S
C1988 C1989 1.386 . S
C1988 C1990 1.391 . S
C1989 C1988 1.386 . S
C1989 C1993 1.393 . S
C1990 H1982 0.950 . S
C1990 C1988 1.391 . S
C1990 C1991 1.400 . S
C1991 C1990 1.400 . S
C1991 C1992 1.398 . S
C1991 C1997 1.491 . S
C1992 H1983 0.950 . S
C1992 C1991 1.398 . S
C1992 C1993 1.391 . S
C1993 H1981 0.950 . S
C1993 C1989 1.393 . S
C1993 C1992 1.391 . S
C1994 H1984 0.950 . S
C1994 C1995 1.386 . S
C1994 C1996 1.391 . S
C1995 C1994 1.386 . S
C1995 C1999 1.393 . S
C1996 H1985 0.950 . S
C1996 C1994 1.391 . S
C1996 C1997 1.400 . S
C1997 C1991 1.491 . S
C1997 C1996 1.400 . S
C1997 C1998 1.398 . S
C1998 H1986 0.950 . S
C1998 C1997 1.398 . S
C1998 C1999 1.391 . S
C1999 H1987 0.950 . S
C1999 C1995 1.393 . S
C1999 C1998 1.391 . S
H2000 C2008 0.950 . S
H2001 C2013 0.950 . S
H2002 C2010 0.950 . S
H2003 C2012 0.950 . S
H2004 C2014 0.950 . S
H2005 C2016 0.950 . S
H2006 C2018 0.950 . S
H2007 C2019 0.950 . S
C2008 H2000 0.950 . S
C2008 C2009 1.386 . S
C2008 C2010 1.391 . S
C2009 C2008 1.386 . S
C2009 C2013 1.393 . S
C2010 H2002 0.950 . S
C2010 C2008 1.391 . S
C2010 C2011 1.400 . S
C2011 C2010 1.400 . S
C2011 C2012 1.398 . S
C2011 C2017 1.491 . S
C2012 H2003 0.950 . S
C2012 C2011 1.398 . S
C2012 C2013 1.391 . S
C2013 H2001 0.950 . S
C2013 C2009 1.393 . S
C2013 C2012 1.391 . S
C2014 H2004 0.950 . S
C2014 C2015 1.386 . S
C2014 C2016 1.391 . S
C2015 C2014 1.386 . S
C2015 C2019 1.393 . S
C2016 H2005 0.950 . S
C2016 C2014 1.391 . S
C2016 C2017 1.400 . S
C2017 C2011 1.491 . S
C2017 C2016 1.400 . S
C2017 C2018 1.398 . S
C2018 H2006 0.950 . S
C2018 C2017 1.398 . S
C2018 C2019 1.391 . S
C2019 H2007 0.950 . S
C2019 C2015 1.393 . S
C2019 C2018 1.391 . S
H2020 C2028 0.934 1_565 S
H2021 C2033 0.950 . S
H2022 C2030 0.950 . S
H2023 C2032 0.950 . S
H2024 C2034 0.939 1_545 S
H2025 C2036 0.950 . S
H2026 C2038 0.950 . S
H2027 C2039 0.950 . S
C2028 H2020 0.934 1_545 S
C2028 C2029 1.412 . S
C2028 C2030 1.381 1_545 S
C2029 C2028 1.412 . S
C2029 C2033 1.393 . S
C2030 H2022 0.950 . S
C2030 C2028 1.381 1_565 S
C2030 C2031 1.400 1_565 S
C2031 C2030 1.400 1_545 S
C2031 C2032 1.398 . S
C2031 C2037 1.491 1_545 S
C2032 H2023 0.950 . S
C2032 C2031 1.398 . S
C2032 C2033 1.391 . S
C2033 H2021 0.950 . S
C2033 C2029 1.393 . S
C2033 C2032 1.391 . S
C2034 H2024 0.939 1_565 S
C2034 C2035 1.403 . S
C2034 C2036 1.385 1_565 S
C2035 C2034 1.403 . S
C2035 C2039 1.393 . S
C2036 H2025 0.950 . S
C2036 C2034 1.385 1_545 S
C2036 C2037 1.400 1_545 S
C2037 C2031 1.491 1_565 S
C2037 C2036 1.400 1_565 S
C2037 C2038 1.398 . S
C2038 H2026 0.950 . S
C2038 C2037 1.398 . S
C2038 C2039 1.391 . S
C2039 H2027 0.950 . S
C2039 C2035 1.393 . S
C2039 C2038 1.391 . S
H2040 C2048 0.950 . S
H2041 C2053 0.950 . S
H2042 C2050 0.950 . S
H2043 C2052 0.950 . S
H2044 C2054 0.950 . S
H2045 C2056 0.950 . S
H2046 C2058 0.950 . S
H2047 C2059 0.950 . S
C2048 H2040 0.950 . S
C2048 C2049 1.386 1_565 S
C2048 C2050 1.391 . S
C2049 C2048 1.386 1_545 S
C2049 C2053 1.393 . S
C2050 H2042 0.950 . S
C2050 C2048 1.391 . S
C2050 C2051 1.400 1_565 S
C2051 C2050 1.400 1_545 S
C2051 C2052 1.398 . S
C2051 C2057 1.491 1_545 S
C2052 H2043 0.950 . S
C2052 C2051 1.398 . S
C2052 C2053 1.391 . S
C2053 H2041 0.950 . S
C2053 C2049 1.393 . S
C2053 C2052 1.391 . S
C2054 H2044 0.950 . S
C2054 C2055 1.386 1_545 S
C2054 C2056 1.391 . S
C2055 C2054 1.386 1_565 S
C2055 C2059 1.393 . S
C2056 H2045 0.950 . S
C2056 C2054 1.391 . S
C2056 C2057 1.400 1_545 S
C2057 C2051 1.491 1_565 S
C2057 C2056 1.400 1_565 S
C2057 C2058 1.398 . S
C2058 H2046 0.950 . S
C2058 C2057 1.398 . S
C2058 C2059 1.391 . S
C2059 H2047 0.950 . S
C2059 C2055 1.393 . S
C2059 C2058 1.391 . S
H2060 C2068 0.950 . S
H2061 C2073 0.950 . S
H2062 C2070 0.950 . S
H2063 C2072 0.950 . S
H2064 C2074 0.950 . S
H2065 C2076 0.950 . S
H2066 C2078 0.950 . S
H2067 C2079 0.950 . S
C2068 H2060 0.950 . S
C2068 C2069 1.386 . S
C2068 C2070 1.391 . S
C2069 C2068 1.386 . S
C2069 C2073 1.393 . S
C2070 H2062 0.950 . S
C2070 C2068 1.391 . S
C2070 C2071 1.400 . S
C2071 C2070 1.400 . S
C2071 C2072 1.398 . S
C2071 C2077 1.491 . S
C2072 H2063 0.950 . S
C2072 C2071 1.398 . S
C2072 C2073 1.391 . S
C2073 H2061 0.950 . S
C2073 C2069 1.393 . S
C2073 C2072 1.391 . S
C2074 H2064 0.950 . S
C2074 C2075 1.386 . S
C2074 C2076 1.391 . S
C2075 C2074 1.386 . S
C2075 C2079 1.393 . S
C2076 H2065 0.950 . S
C2076 C2074 1.391 . S
C2076 C2077 1.400 . S
C2077 C2071 1.491 . S
C2077 C2076 1.400 . S
C2077 C2078 1.398 . S
C2078 H2066 0.950 . S
C2078 C2077 1.398 . S
C2078 C2079 1.391 . S
C2079 H2067 0.950 . S
C2079 C2075 1.393 . S
C2079 C2078 1.391 . S
H2080 C2088 0.950 . S
H2081 C2093 0.950 . S
H2082 C2090 0.950 . S
H2083 C2092 0.950 . S
H2084 C2094 0.950 . S
H2085 C2096 0.950 . S
H2086 C2098 0.950 . S
H2087 C2099 0.950 . S
C2088 H2080 0.950 . S
C2088 C2089 1.386 . S
C2088 C2090 1.391 . S
C2089 C2088 1.386 . S
C2089 C2093 1.393 . S
C2090 H2082 0.950 . S
C2090 C2088 1.391 . S
C2090 C2091 1.400 . S
C2091 C2090 1.400 . S
C2091 C2092 1.398 . S
C2091 C2097 1.491 . S
C2092 H2083 0.950 . S
C2092 C2091 1.398 . S
C2092 C2093 1.391 . S
C2093 H2081 0.950 . S
C2093 C2089 1.393 . S
C2093 C2092 1.391 . S
C2094 H2084 0.950 . S
C2094 C2095 1.386 . S
C2094 C2096 1.391 . S
C2095 C2094 1.386 . S
C2095 C2099 1.393 . S
C2096 H2085 0.950 . S
C2096 C2094 1.391 . S
C2096 C2097 1.400 . S
C2097 C2091 1.491 . S
C2097 C2096 1.400 . S
C2097 C2098 1.398 . S
C2098 H2086 0.950 . S
C2098 C2097 1.398 . S
C2098 C2099 1.391 . S
C2099 H2087 0.950 . S
C2099 C2095 1.393 . S
C2099 C2098 1.391 . S
H2100 C2108 0.950 . S
H2101 C2113 0.950 . S
H2102 C2110 0.950 . S
H2103 C2112 0.950 . S
H2104 C2114 0.950 . S
H2105 C2116 0.950 . S
H2106 C2118 0.950 . S
H2107 C2119 0.950 . S
C2108 H2100 0.950 . S
C2108 C2109 1.386 . S
C2108 C2110 1.391 . S
C2109 C2108 1.386 . S
C2109 C2113 1.393 . S
C2110 H2102 0.950 . S
C2110 C2108 1.391 . S
C2110 C2111 1.400 . S
C2111 C2110 1.400 . S
C2111 C2112 1.398 . S
C2111 C2117 1.491 . S
C2112 H2103 0.950 . S
C2112 C2111 1.398 . S
C2112 C2113 1.391 . S
C2113 H2101 0.950 . S
C2113 C2109 1.393 . S
C2113 C2112 1.391 . S
C2114 H2104 0.950 . S
C2114 C2115 1.386 . S
C2114 C2116 1.391 . S
C2115 C2114 1.386 . S
C2115 C2119 1.393 . S
C2116 H2105 0.950 . S
C2116 C2114 1.391 . S
C2116 C2117 1.400 . S
C2117 C2111 1.491 . S
C2117 C2116 1.400 . S
C2117 C2118 1.398 . S
C2118 H2106 0.950 . S
C2118 C2117 1.398 . S
C2118 C2119 1.391 . S
C2119 H2107 0.950 . S
C2119 C2115 1.393 . S
C2119 C2118 1.391 . S
H2120 C2128 0.950 . S
H2121 C2133 0.950 . S
H2122 C2130 0.950 1_554 S
H2123 C2132 0.950 . S
H2124 C2134 0.950 . S
H2125 C2136 0.950 . S
H2126 C2138 0.950 . S
H2127 C2139 0.950 . S
C2128 H2120 0.950 . S
C2128 C2129 1.386 . S
C2128 C2130 1.391 . S
C2129 C2128 1.386 . S
C2129 C2133 1.393 . S
C2130 H2122 0.950 1_556 S
C2130 C2128 1.391 . S
C2130 C2131 1.400 1_556 S
C2131 C2130 1.400 1_554 S
C2131 C2132 1.398 1_554 S
C2131 C2137 1.491 . S
C2132 H2123 0.950 . S
C2132 C2131 1.398 1_556 S
C2132 C2133 1.391 . S
C2133 H2121 0.950 . S
C2133 C2129 1.393 . S
C2133 C2132 1.391 . S
C2134 H2124 0.950 . S
C2134 C2135 1.386 . S
C2134 C2136 1.391 . S
C2135 C2134 1.386 . S
C2135 C2139 1.393 . S
C2136 H2125 0.950 . S
C2136 C2134 1.391 . S
C2136 C2137 1.400 . S
C2137 C2131 1.491 . S
C2137 C2136 1.400 . S
C2137 C2138 1.398 . S
C2138 H2126 0.950 . S
C2138 C2137 1.398 . S
C2138 C2139 1.391 . S
C2139 H2127 0.950 . S
C2139 C2135 1.393 . S
C2139 C2138 1.391 . S
H2140 C2148 0.950 . S
H2141 C2153 0.950 . S
H2142 C2150 0.950 . S
H2143 C2152 0.950 1_554 S
H2144 C2154 0.950 . S
H2145 C2156 0.950 . S
H2146 C2158 0.950 . S
H2147 C2159 0.950 . S
C2148 H2140 0.950 . S
C2148 C2149 1.386 . S
C2148 C2150 1.391 . S
C2149 C2148 1.386 . S
C2149 C2153 1.393 . S
C2150 H2142 0.950 . S
C2150 C2148 1.391 . S
C2150 C2151 1.400 1_556 S
C2151 C2150 1.400 1_554 S
C2151 C2152 1.398 1_554 S
C2151 C2157 1.491 . S
C2152 H2143 0.950 1_556 S
C2152 C2151 1.398 1_556 S
C2152 C2153 1.391 . S
C2153 H2141 0.950 . S
C2153 C2149 1.393 . S
C2153 C2152 1.391 . S
C2154 H2144 0.950 . S
C2154 C2155 1.386 . S
C2154 C2156 1.391 . S
C2155 C2154 1.386 . S
C2155 C2159 1.393 . S
C2156 H2145 0.950 . S
C2156 C2154 1.391 . S
C2156 C2157 1.400 . S
C2157 C2151 1.491 . S
C2157 C2156 1.400 . S
C2157 C2158 1.398 . S
C2158 H2146 0.950 . S
C2158 C2157 1.398 . S
C2158 C2159 1.391 . S
C2159 H2147 0.950 . S
C2159 C2155 1.393 . S
C2159 C2158 1.391 . S
H2160 C2168 0.950 . S
H2161 C2173 0.950 . S
H2162 C2170 0.950 . S
H2163 C2172 0.950 . S
H2164 C2174 0.950 . S
H2165 C2176 0.950 . S
H2166 C2178 0.950 . S
H2167 C2179 0.950 . S
C2168 H2160 0.950 . S
C2168 C2169 1.386 . S
C2168 C2170 1.391 . S
C2169 C2168 1.386 . S
C2169 C2173 1.393 . S
C2170 H2162 0.950 . S
C2170 C2168 1.391 . S
C2170 C2171 1.400 . S
C2171 C2170 1.400 . S
C2171 C2172 1.398 . S
C2171 C2177 1.491 . S
C2172 H2163 0.950 . S
C2172 C2171 1.398 . S
C2172 C2173 1.391 . S
C2173 H2161 0.950 . S
C2173 C2169 1.393 . S
C2173 C2172 1.391 . S
C2174 H2164 0.950 . S
C2174 C2175 1.386 . S
C2174 C2176 1.391 . S
C2175 C2174 1.386 . S
C2175 C2179 1.393 . S
C2176 H2165 0.950 . S
C2176 C2174 1.391 . S
C2176 C2177 1.400 . S
C2177 C2171 1.491 . S
C2177 C2176 1.400 . S
C2177 C2178 1.398 . S
C2178 H2166 0.950 . S
C2178 C2177 1.398 . S
C2178 C2179 1.391 . S
C2179 H2167 0.950 . S
C2179 C2175 1.393 . S
C2179 C2178 1.391 . S
H2180 C2188 0.950 . S
H2181 C2193 0.950 . S
H2182 C2190 0.950 . S
H2183 C2192 0.950 . S
H2184 C2194 0.950 . S
H2185 C2196 0.950 . S
H2186 C2198 0.950 . S
H2187 C2199 0.950 . S
C2188 H2180 0.950 . S
C2188 C2189 1.386 . S
C2188 C2190 1.391 . S
C2189 C2188 1.386 . S
C2189 C2193 1.393 . S
C2190 H2182 0.950 . S
C2190 C2188 1.391 . S
C2190 C2191 1.400 . S
C2191 C2190 1.400 . S
C2191 C2192 1.398 . S
C2191 C2197 1.491 . S
C2192 H2183 0.950 . S
C2192 C2191 1.398 . S
C2192 C2193 1.391 . S
C2193 H2181 0.950 . S
C2193 C2189 1.393 . S
C2193 C2192 1.391 . S
C2194 H2184 0.950 . S
C2194 C2195 1.386 . S
C2194 C2196 1.391 . S
C2195 C2194 1.386 . S
C2195 C2199 1.393 . S
C2196 H2185 0.950 . S
C2196 C2194 1.391 . S
C2196 C2197 1.400 . S
C2197 C2191 1.491 . S
C2197 C2196 1.400 . S
C2197 C2198 1.398 . S
C2198 H2186 0.950 . S
C2198 C2197 1.398 . S
C2198 C2199 1.391 . S
C2199 H2187 0.950 . S
C2199 C2195 1.393 . S
C2199 C2198 1.391 . S
H2200 C2208 0.950 . S
H2201 C2213 0.950 . S
H2202 C2210 0.950 . S
H2203 C2212 0.950 1_556 S
H2204 C2214 0.950 . S
H2205 C2216 0.950 . S
H2206 C2218 0.950 . S
H2207 C2219 0.950 . S
C2208 H2200 0.950 . S
C2208 C2209 1.386 . S
C2208 C2210 1.391 . S
C2209 C2208 1.386 . S
C2209 C2213 1.393 . S
C2210 H2202 0.950 . S
C2210 C2208 1.391 . S
C2210 C2211 1.400 1_554 S
C2211 C2210 1.400 1_556 S
C2211 C2212 1.398 1_556 S
C2211 C2217 1.491 . S
C2212 H2203 0.950 1_554 S
C2212 C2211 1.398 1_554 S
C2212 C2213 1.391 . S
C2213 H2201 0.950 . S
C2213 C2209 1.393 . S
C2213 C2212 1.391 . S
C2214 H2204 0.950 . S
C2214 C2215 1.386 . S
C2214 C2216 1.391 . S
C2215 C2214 1.386 . S
C2215 C2219 1.393 . S
C2216 H2205 0.950 . S
C2216 C2214 1.391 . S
C2216 C2217 1.400 . S
C2217 C2211 1.491 . S
C2217 C2216 1.400 . S
C2217 C2218 1.398 . S
C2218 H2206 0.950 . S
C2218 C2217 1.398 . S
C2218 C2219 1.391 . S
C2219 H2207 0.950 . S
C2219 C2215 1.393 . S
C2219 C2218 1.391 . S
H2220 C2228 0.950 . S
H2221 C2233 0.950 . S
H2222 C2230 0.950 . S
H2223 C2232 0.950 . S
H2224 C2234 0.950 . S
H2225 C2236 0.950 . S
H2226 C2238 0.950 1_556 S
H2227 C2239 0.950 . S
C2228 H2220 0.950 . S
C2228 C2229 1.386 . S
C2228 C2230 1.391 . S
C2229 C2228 1.386 . S
C2229 C2233 1.393 . S
C2230 H2222 0.950 . S
C2230 C2228 1.391 . S
C2230 C2231 1.400 . S
C2231 C2230 1.400 . S
C2231 C2232 1.398 . S
C2231 C2237 1.491 . S
C2232 H2223 0.950 . S
C2232 C2231 1.398 . S
C2232 C2233 1.391 . S
C2233 H2221 0.950 . S
C2233 C2229 1.393 . S
C2233 C2232 1.391 . S
C2234 H2224 0.950 . S
C2234 C2235 1.386 . S
C2234 C2236 1.391 . S
C2235 C2234 1.386 . S
C2235 C2239 1.393 . S
C2236 H2225 0.950 . S
C2236 C2234 1.391 . S
C2236 C2237 1.400 1_554 S
C2237 C2231 1.491 . S
C2237 C2236 1.400 1_556 S
C2237 C2238 1.398 1_556 S
C2238 H2226 0.950 1_554 S
C2238 C2237 1.398 1_554 S
C2238 C2239 1.391 . S
C2239 H2227 0.950 . S
C2239 C2235 1.393 . S
C2239 C2238 1.391 . S
H2240 C2248 0.950 . S
H2241 C2253 0.950 . S
H2242 C2250 0.950 . S
H2243 C2252 0.950 . S
H2244 C2254 0.950 . S
H2245 C2256 0.950 . S
H2246 C2258 0.950 . S
H2247 C2259 0.950 . S
C2248 H2240 0.950 . S
C2248 C2249 1.386 . S
C2248 C2250 1.391 . S
C2249 C2248 1.386 . S
C2249 C2253 1.393 . S
C2250 H2242 0.950 . S
C2250 C2248 1.391 . S
C2250 C2251 1.400 . S
C2251 C2250 1.400 . S
C2251 C2252 1.398 . S
C2251 C2257 1.491 . S
C2252 H2243 0.950 . S
C2252 C2251 1.398 . S
C2252 C2253 1.391 . S
C2253 H2241 0.950 . S
C2253 C2249 1.393 . S
C2253 C2252 1.391 . S
C2254 H2244 0.950 . S
C2254 C2255 1.386 . S
C2254 C2256 1.391 . S
C2255 C2254 1.386 . S
C2255 C2259 1.393 . S
C2256 H2245 0.950 . S
C2256 C2254 1.391 . S
C2256 C2257 1.400 . S
C2257 C2251 1.491 . S
C2257 C2256 1.400 . S
C2257 C2258 1.398 . S
C2258 H2246 0.950 . S
C2258 C2257 1.398 . S
C2258 C2259 1.391 . S
C2259 H2247 0.950 . S
C2259 C2255 1.393 . S
C2259 C2258 1.391 . S
H2260 C2268 0.950 . S
H2261 C2273 0.950 . S
H2262 C2270 0.950 1_545 S
H2263 C2272 0.950 . S
H2264 C2274 0.950 . S
H2265 C2276 0.950 1_565 S
H2266 C2278 0.950 . S
H2267 C2279 0.950 . S
C2268 H2260 0.950 . S
C2268 C2269 1.386 . S
C2268 C2270 1.391 . S
C2269 C2268 1.386 . S
C2269 C2273 1.393 . S
C2270 H2262 0.950 1_565 S
C2270 C2268 1.391 . S
C2270 C2271 1.400 . S
C2271 C2270 1.400 . S
C2271 C2272 1.398 . S
C2271 C2277 1.491 1_565 S
C2272 H2263 0.950 . S
C2272 C2271 1.398 . S
C2272 C2273 1.391 . S
C2273 H2261 0.950 . S
C2273 C2269 1.393 . S
C2273 C2272 1.391 . S
C2274 H2264 0.950 . S
C2274 C2275 1.386 . S
C2274 C2276 1.391 . S
C2275 C2274 1.386 . S
C2275 C2279 1.393 . S
C2276 H2265 0.950 1_545 S
C2276 C2274 1.391 . S
C2276 C2277 1.400 . S
C2277 C2271 1.491 1_545 S
C2277 C2276 1.400 . S
C2277 C2278 1.398 . S
C2278 H2266 0.950 . S
C2278 C2277 1.398 . S
C2278 C2279 1.391 . S
C2279 H2267 0.950 . S
C2279 C2275 1.393 . S
C2279 C2278 1.391 . S
H2280 C2288 0.950 1_545 S
H2281 C2293 0.950 . S
H2282 C2290 0.950 . S
H2283 C2292 0.950 1_554 S
H2284 C2294 0.925 1_565 S
H2285 C2296 0.950 . S
H2286 C2298 0.950 . S
H2287 C2299 0.950 . S
C2288 H2280 0.950 1_565 S
C2288 C2289 1.386 . S
C2288 C2290 1.391 1_565 S
C2289 C2288 1.386 . S
C2289 C2293 1.393 . S
C2290 H2282 0.950 . S
C2290 C2288 1.391 1_545 S
C2290 C2291 1.400 1_546 S
C2291 C2290 1.400 1_564 S
C2291 C2292 1.398 1_554 S
C2291 C2297 1.491 1_565 S
C2292 H2283 0.950 1_556 S
C2292 C2291 1.398 1_556 S
C2292 C2293 1.391 . S
C2293 H2281 0.950 . S
C2293 C2289 1.393 . S
C2293 C2292 1.391 . S
C2294 H2284 0.925 1_545 S
C2294 C2295 1.427 . S
C2294 C2296 1.375 1_545 S
C2295 C2294 1.427 . S
C2295 C2299 1.393 . S
C2296 H2285 0.950 . S
C2296 C2294 1.375 1_565 S
C2296 C2297 1.400 1_565 S
C2297 C2291 1.491 1_545 S
C2297 C2296 1.400 1_545 S
C2297 C2298 1.398 . S
C2298 H2286 0.950 . S
C2298 C2297 1.398 . S
C2298 C2299 1.391 . S
C2299 H2287 0.950 . S
C2299 C2295 1.393 . S
C2299 C2298 1.391 . S
H2300 C2308 0.950 . S
H2301 C2313 0.950 . S
H2302 C2310 0.950 . S
H2303 C2312 0.950 1_554 S
H2304 C2314 0.950 . S
H2305 C2316 0.950 . S
H2306 C2318 0.950 . S
H2307 C2319 0.950 . S
C2308 H2300 0.950 . S
C2308 C2309 1.386 . S
C2308 C2310 1.391 . S
C2309 C2308 1.386 . S
C2309 C2313 1.393 . S
C2310 H2302 0.950 . S
C2310 C2308 1.391 . S
C2310 C2311 1.400 1_556 S
C2311 C2310 1.400 1_554 S
C2311 C2312 1.398 1_554 S
C2311 C2317 1.491 . S
C2312 H2303 0.950 1_556 S
C2312 C2311 1.398 1_556 S
C2312 C2313 1.391 . S
C2313 H2301 0.950 . S
C2313 C2309 1.393 . S
C2313 C2312 1.391 . S
C2314 H2304 0.950 . S
C2314 C2315 1.386 . S
C2314 C2316 1.391 . S
C2315 C2314 1.386 . S
C2315 C2319 1.393 . S
C2316 H2305 0.950 . S
C2316 C2314 1.391 . S
C2316 C2317 1.400 . S
C2317 C2311 1.491 . S
C2317 C2316 1.400 . S
C2317 C2318 1.398 . S
C2318 H2306 0.950 . S
C2318 C2317 1.398 . S
C2318 C2319 1.391 . S
C2319 H2307 0.950 . S
C2319 C2315 1.393 . S
C2319 C2318 1.391 . S
H2320 C2328 0.950 . S
H2321 C2333 0.950 . S
H2322 C2330 0.950 . S
H2323 C2332 0.950 . S
H2324 C2334 0.950 . S
H2325 C2336 0.950 . S
H2326 C2338 0.950 . S
H2327 C2339 0.950 . S
C2328 H2320 0.950 . S
C2328 C2329 1.386 . S
C2328 C2330 1.391 . S
C2329 C2328 1.386 . S
C2329 C2333 1.393 . S
C2330 H2322 0.950 . S
C2330 C2328 1.391 . S
C2330 C2331 1.400 . S
C2331 C2330 1.400 . S
C2331 C2332 1.398 . S
C2331 C2337 1.491 . S
C2332 H2323 0.950 . S
C2332 C2331 1.398 . S
C2332 C2333 1.391 . S
C2333 H2321 0.950 . S
C2333 C2329 1.393 . S
C2333 C2332 1.391 . S
C2334 H2324 0.950 . S
C2334 C2335 1.386 . S
C2334 C2336 1.391 . S
C2335 C2334 1.386 . S
C2335 C2339 1.393 . S
C2336 H2325 0.950 . S
C2336 C2334 1.391 . S
C2336 C2337 1.400 . S
C2337 C2331 1.491 . S
C2337 C2336 1.400 . S
C2337 C2338 1.398 . S
C2338 H2326 0.950 . S
C2338 C2337 1.398 . S
C2338 C2339 1.391 . S
C2339 H2327 0.950 . S
C2339 C2335 1.393 . S
C2339 C2338 1.391 . S
H2340 C2348 0.950 . S
H2341 C2353 0.950 . S
H2342 C2350 0.950 . S
H2343 C2352 0.950 1_565 S
H2344 C2354 0.950 . S
H2345 C2356 0.950 . S
H2346 C2358 0.950 1_545 S
H2347 C2359 0.950 . S
C2348 H2340 0.950 . S
C2348 C2349 1.386 . S
C2348 C2350 1.391 . S
C2349 C2348 1.386 . S
C2349 C2353 1.393 . S
C2350 H2342 0.950 . S
C2350 C2348 1.391 . S
C2350 C2351 1.400 . S
C2351 C2350 1.400 . S
C2351 C2352 1.398 . S
C2351 C2357 1.491 1_545 S
C2352 H2343 0.950 1_545 S
C2352 C2351 1.398 . S
C2352 C2353 1.391 . S
C2353 H2341 0.950 . S
C2353 C2349 1.393 . S
C2353 C2352 1.391 . S
C2354 H2344 0.950 . S
C2354 C2355 1.386 . S
C2354 C2356 1.391 . S
C2355 C2354 1.386 . S
C2355 C2359 1.393 . S
C2356 H2345 0.950 . S
C2356 C2354 1.391 . S
C2356 C2357 1.400 . S
C2357 C2351 1.491 1_565 S
C2357 C2356 1.400 . S
C2357 C2358 1.398 . S
C2358 H2346 0.950 1_565 S
C2358 C2357 1.398 . S
C2358 C2359 1.391 . S
C2359 H2347 0.950 . S
C2359 C2355 1.393 . S
C2359 C2358 1.391 . S
H2360 C2368 0.950 . S
H2361 C2373 0.968 . S
H2362 C2370 0.950 . S
H2363 C2372 0.950 . S
H2364 C2374 0.950 . S
H2365 C2376 0.950 1_556 S
H2366 C2378 0.950 . S
H2367 C2379 0.962 . S
C2368 H2360 0.950 . S
C2368 C2369 1.386 . S
C2368 C2370 1.391 . S
C2369 C2368 1.386 . S
C2369 C2373 1.363 1_565 S
C2370 H2362 0.950 . S
C2370 C2368 1.391 . S
C2370 C2371 1.400 . S
C2371 C2370 1.400 . S
C2371 C2372 1.398 1_565 S
C2371 C2377 1.491 1_565 S
C2372 H2363 0.950 . S
C2372 C2371 1.398 1_545 S
C2372 C2373 1.402 . S
C2373 H2361 0.968 . S
C2373 C2369 1.363 1_545 S
C2373 C2372 1.402 . S
C2374 H2364 0.950 . S
C2374 C2375 1.386 . S
C2374 C2376 1.391 . S
C2375 C2374 1.386 . S
C2375 C2379 1.374 1_545 S
C2376 H2365 0.950 1_554 S
C2376 C2374 1.391 . S
C2376 C2377 1.400 1_554 S
C2377 C2371 1.491 1_545 S
C2377 C2376 1.400 1_556 S
C2377 C2378 1.398 1_546 S
C2378 H2366 0.950 . S
C2378 C2377 1.398 1_564 S
C2378 C2379 1.398 . S
C2379 H2367 0.962 . S
C2379 C2375 1.374 1_565 S
C2379 C2378 1.398 . S
H2380 C2388 0.950 . S
H2381 C2393 0.950 . S
H2382 C2390 0.950 . S
H2383 C2392 0.950 . S
H2384 C2394 0.950 . S
H2385 C2396 0.950 . S
H2386 C2398 0.950 . S
H2387 C2399 0.950 . S
C2388 H2380 0.950 . S
C2388 C2389 1.386 . S
C2388 C2390 1.391 . S
C2389 C2388 1.386 . S
C2389 C2393 1.393 . S
C2390 H2382 0.950 . S
C2390 C2388 1.391 . S
C2390 C2391 1.400 . S
C2391 C2390 1.400 . S
C2391 C2392 1.398 . S
C2391 C2397 1.491 . S
C2392 H2383 0.950 . S
C2392 C2391 1.398 . S
C2392 C2393 1.391 . S
C2393 H2381 0.950 . S
C2393 C2389 1.393 . S
C2393 C2392 1.391 . S
C2394 H2384 0.950 . S
C2394 C2395 1.386 . S
C2394 C2396 1.391 . S
C2395 C2394 1.386 . S
C2395 C2399 1.393 . S
C2396 H2385 0.950 . S
C2396 C2394 1.391 . S
C2396 C2397 1.400 1_554 S
C2397 C2391 1.491 . S
C2397 C2396 1.400 1_556 S
C2397 C2398 1.398 1_556 S
C2398 H2386 0.950 . S
C2398 C2397 1.398 1_554 S
C2398 C2399 1.391 . S
C2399 H2387 0.950 . S
C2399 C2395 1.393 . S
C2399 C2398 1.391 . S
H2400 C2408 0.950 . S
H2401 C2413 0.950 . S
H2402 C2410 0.950 . S
H2403 C2412 0.950 . S
H2404 C2414 0.950 . S
H2405 C2416 0.950 . S
H2406 C2418 0.950 . S
H2407 C2419 0.950 . S
C2408 H2400 0.950 . S
C2408 C2409 1.386 . S
C2408 C2410 1.391 . S
C2409 C2408 1.386 . S
C2409 C2413 1.393 . S
C2410 H2402 0.950 . S
C2410 C2408 1.391 . S
C2410 C2411 1.400 . S
C2411 C2410 1.400 . S
C2411 C2412 1.398 . S
C2411 C2417 1.491 . S
C2412 H2403 0.950 . S
C2412 C2411 1.398 . S
C2412 C2413 1.391 . S
C2413 H2401 0.950 . S
C2413 C2409 1.393 . S
C2413 C2412 1.391 . S
C2414 H2404 0.950 . S
C2414 C2415 1.386 . S
C2414 C2416 1.391 . S
C2415 C2414 1.386 . S
C2415 C2419 1.393 . S
C2416 H2405 0.950 . S
C2416 C2414 1.391 . S
C2416 C2417 1.400 . S
C2417 C2411 1.491 . S
C2417 C2416 1.400 . S
C2417 C2418 1.398 . S
C2418 H2406 0.950 . S
C2418 C2417 1.398 . S
C2418 C2419 1.391 . S
C2419 H2407 0.950 . S
C2419 C2415 1.393 . S
C2419 C2418 1.391 . S
H2420 C2428 0.950 . S
H2421 C2433 0.950 . S
H2422 C2430 0.950 . S
H2423 C2432 0.950 . S
H2424 C2434 0.950 . S
H2425 C2436 0.950 . S
H2426 C2438 0.950 . S
H2427 C2439 0.950 . S
C2428 H2420 0.950 . S
C2428 C2429 1.386 . S
C2428 C2430 1.391 . S
C2429 C2428 1.386 . S
C2429 C2433 1.393 . S
C2430 H2422 0.950 . S
C2430 C2428 1.391 . S
C2430 C2431 1.400 . S
C2431 C2430 1.400 . S
C2431 C2432 1.398 . S
C2431 C2437 1.491 . S
C2432 H2423 0.950 . S
C2432 C2431 1.398 . S
C2432 C2433 1.391 . S
C2433 H2421 0.950 . S
C2433 C2429 1.393 . S
C2433 C2432 1.391 . S
C2434 H2424 0.950 . S
C2434 C2435 1.386 . S
C2434 C2436 1.391 . S
C2435 C2434 1.386 . S
C2435 C2439 1.393 . S
C2436 H2425 0.950 . S
C2436 C2434 1.391 . S
C2436 C2437 1.400 . S
C2437 C2431 1.491 . S
C2437 C2436 1.400 . S
C2437 C2438 1.398 . S
C2438 H2426 0.950 . S
C2438 C2437 1.398 . S
C2438 C2439 1.391 . S
C2439 H2427 0.950 . S
C2439 C2435 1.393 . S
C2439 C2438 1.391 . S
H2440 C2448 0.950 . S
H2441 C2453 0.950 . S
H2442 C2450 0.950 . S
H2443 C2452 0.950 . S
H2444 C2454 0.950 . S
H2445 C2456 0.950 . S
H2446 C2458 0.950 . S
H2447 C2459 0.950 . S
C2448 H2440 0.950 . S
C2448 C2449 1.386 . S
C2448 C2450 1.391 . S
C2449 C2448 1.386 . S
C2449 C2453 1.393 . S
C2450 H2442 0.950 . S
C2450 C2448 1.391 . S
C2450 C2451 1.400 . S
C2451 C2450 1.400 . S
C2451 C2452 1.398 . S
C2451 C2457 1.491 . S
C2452 H2443 0.950 . S
C2452 C2451 1.398 . S
C2452 C2453 1.391 . S
C2453 H2441 0.950 . S
C2453 C2449 1.393 . S
C2453 C2452 1.391 . S
C2454 H2444 0.950 . S
C2454 C2455 1.386 . S
C2454 C2456 1.391 . S
C2455 C2454 1.386 . S
C2455 C2459 1.393 . S
C2456 H2445 0.950 . S
C2456 C2454 1.391 . S
C2456 C2457 1.400 . S
C2457 C2451 1.491 . S
C2457 C2456 1.400 . S
C2457 C2458 1.398 . S
C2458 H2446 0.950 . S
C2458 C2457 1.398 . S
C2458 C2459 1.391 . S
C2459 H2447 0.950 . S
C2459 C2455 1.393 . S
C2459 C2458 1.391 . S
H2460 C2468 0.950 . S
H2461 C2473 0.950 . S
H2462 C2470 0.950 . S
H2463 C2472 0.950 . S
H2464 C2474 0.950 . S
H2465 C2476 0.950 . S
H2466 C2478 0.950 . S
H2467 C2479 0.950 . S
C2468 H2460 0.950 . S
C2468 C2469 1.386 . S
C2468 C2470 1.391 . S
C2469 C2468 1.386 . S
C2469 C2473 1.393 . S
C2470 H2462 0.950 . S
C2470 C2468 1.391 . S
C2470 C2471 1.400 . S
C2471 C2470 1.400 . S
C2471 C2472 1.398 . S
C2471 C2477 1.491 . S
C2472 H2463 0.950 . S
C2472 C2471 1.398 . S
C2472 C2473 1.391 . S
C2473 H2461 0.950 . S
C2473 C2469 1.393 . S
C2473 C2472 1.391 . S
C2474 H2464 0.950 . S
C2474 C2475 1.386 . S
C2474 C2476 1.391 . S
C2475 C2474 1.386 . S
C2475 C2479 1.393 . S
C2476 H2465 0.950 . S
C2476 C2474 1.391 . S
C2476 C2477 1.400 . S
C2477 C2471 1.491 . S
C2477 C2476 1.400 . S
C2477 C2478 1.398 . S
C2478 H2466 0.950 . S
C2478 C2477 1.398 . S
C2478 C2479 1.391 . S
C2479 H2467 0.950 . S
C2479 C2475 1.393 . S
C2479 C2478 1.391 . S
H2480 C2488 0.950 . S
H2481 C2493 0.950 . S
H2482 C2490 0.950 . S
H2483 C2492 0.950 . S
H2484 C2494 0.950 . S
H2485 C2496 0.950 . S
H2486 C2498 0.950 . S
H2487 C2499 0.950 . S
C2488 H2480 0.950 . S
C2488 C2489 1.386 . S
C2488 C2490 1.391 . S
C2489 C2488 1.386 . S
C2489 C2493 1.393 . S
C2490 H2482 0.950 . S
C2490 C2488 1.391 . S
C2490 C2491 1.400 . S
C2491 C2490 1.400 . S
C2491 C2492 1.398 . S
C2491 C2497 1.491 . S
C2492 H2483 0.950 . S
C2492 C2491 1.398 . S
C2492 C2493 1.391 . S
C2493 H2481 0.950 . S
C2493 C2489 1.393 . S
C2493 C2492 1.391 . S
C2494 H2484 0.950 . S
C2494 C2495 1.386 . S
C2494 C2496 1.391 . S
C2495 C2494 1.386 . S
C2495 C2499 1.393 . S
C2496 H2485 0.950 . S
C2496 C2494 1.391 . S
C2496 C2497 1.400 . S
C2497 C2491 1.491 . S
C2497 C2496 1.400 . S
C2497 C2498 1.398 . S
C2498 H2486 0.950 . S
C2498 C2497 1.398 . S
C2498 C2499 1.391 . S
C2499 H2487 0.950 . S
C2499 C2495 1.393 . S
C2499 C2498 1.391 . S
H2500 C2508 0.950 . S
H2501 C2513 0.950 . S
H2502 C2510 0.950 . S
H2503 C2512 0.950 . S
H2504 C2514 0.950 . S
H2505 C2516 0.950 . S
H2506 C2518 0.950 . S
H2507 C2519 0.950 . S
C2508 H2500 0.950 . S
C2508 C2509 1.386 . S
C2508 C2510 1.391 . S
C2509 C2508 1.386 . S
C2509 C2513 1.393 . S
C2510 H2502 0.950 . S
C2510 C2508 1.391 . S
C2510 C2511 1.400 . S
C2511 C2510 1.400 . S
C2511 C2512 1.398 . S
C2511 C2517 1.491 . S
C2512 H2503 0.950 . S
C2512 C2511 1.398 . S
C2512 C2513 1.391 . S
C2513 H2501 0.950 . S
C2513 C2509 1.393 . S
C2513 C2512 1.391 . S
C2514 H2504 0.950 . S
C2514 C2515 1.386 . S
C2514 C2516 1.391 . S
C2515 C2514 1.386 . S
C2515 C2519 1.393 . S
C2516 H2505 0.950 . S
C2516 C2514 1.391 . S
C2516 C2517 1.400 . S
C2517 C2511 1.491 . S
C2517 C2516 1.400 . S
C2517 C2518 1.398 . S
C2518 H2506 0.950 . S
C2518 C2517 1.398 . S
C2518 C2519 1.391 . S
C2519 H2507 0.950 . S
C2519 C2515 1.393 . S
C2519 C2518 1.391 . S
H2520 C2528 0.950 . S
H2521 C2533 0.950 . S
H2522 C2530 0.950 . S
H2523 C2532 0.950 . S
H2524 C2534 0.950 . S
H2525 C2536 0.950 . S
H2526 C2538 0.950 . S
H2527 C2539 0.950 . S
C2528 H2520 0.950 . S
C2528 C2529 1.386 . S
C2528 C2530 1.391 . S
C2529 C2528 1.386 . S
C2529 C2533 1.393 . S
C2530 H2522 0.950 . S
C2530 C2528 1.391 . S
C2530 C2531 1.400 . S
C2531 C2530 1.400 . S
C2531 C2532 1.398 . S
C2531 C2537 1.491 . S
C2532 H2523 0.950 . S
C2532 C2531 1.398 . S
C2532 C2533 1.391 . S
C2533 H2521 0.950 . S
C2533 C2529 1.393 . S
C2533 C2532 1.391 . S
C2534 H2524 0.950 . S
C2534 C2535 1.386 . S
C2534 C2536 1.391 . S
C2535 C2534 1.386 . S
C2535 C2539 1.393 . S
C2536 H2525 0.950 . S
C2536 C2534 1.391 . S
C2536 C2537 1.400 . S
C2537 C2531 1.491 . S
C2537 C2536 1.400 . S
C2537 C2538 1.398 . S
C2538 H2526 0.950 . S
C2538 C2537 1.398 . S
C2538 C2539 1.391 . S
C2539 H2527 0.950 . S
C2539 C2535 1.393 . S
C2539 C2538 1.391 . S
H2540 C2548 0.950 . S
H2541 C2553 0.950 . S
H2542 C2550 0.950 . S
H2543 C2552 0.950 . S
H2544 C2554 0.950 . S
H2545 C2556 0.950 . S
H2546 C2558 0.950 . S
H2547 C2559 0.950 . S
C2548 H2540 0.950 . S
C2548 C2549 1.386 . S
C2548 C2550 1.391 . S
C2549 C2548 1.386 . S
C2549 C2553 1.393 . S
C2550 H2542 0.950 . S
C2550 C2548 1.391 . S
C2550 C2551 1.400 . S
C2551 C2550 1.400 . S
C2551 C2552 1.398 . S
C2551 C2557 1.491 . S
C2552 H2543 0.950 . S
C2552 C2551 1.398 . S
C2552 C2553 1.391 . S
C2553 H2541 0.950 . S
C2553 C2549 1.393 . S
C2553 C2552 1.391 . S
C2554 H2544 0.950 . S
C2554 C2555 1.386 . S
C2554 C2556 1.391 . S
C2555 C2554 1.386 . S
C2555 C2559 1.393 . S
C2556 H2545 0.950 . S
C2556 C2554 1.391 . S
C2556 C2557 1.400 . S
C2557 C2551 1.491 . S
C2557 C2556 1.400 . S
C2557 C2558 1.398 . S
C2558 H2546 0.950 . S
C2558 C2557 1.398 . S
C2558 C2559 1.391 . S
C2559 H2547 0.950 . S
C2559 C2555 1.393 . S
C2559 C2558 1.391 . S
H2560 C2568 0.950 . S
H2561 C2573 0.950 . S
H2562 C2570 0.950 . S
H2563 C2572 0.950 . S
H2564 C2574 0.950 . S
H2565 C2576 0.950 . S
H2566 C2578 0.950 . S
H2567 C2579 0.950 . S
C2568 H2560 0.950 . S
C2568 C2569 1.386 . S
C2568 C2570 1.391 . S
C2569 C2568 1.386 . S
C2569 C2573 1.393 . S
C2570 H2562 0.950 . S
C2570 C2568 1.391 . S
C2570 C2571 1.400 . S
C2571 C2570 1.400 . S
C2571 C2572 1.398 . S
C2571 C2577 1.491 . S
C2572 H2563 0.950 . S
C2572 C2571 1.398 . S
C2572 C2573 1.391 . S
C2573 H2561 0.950 . S
C2573 C2569 1.393 . S
C2573 C2572 1.391 . S
C2574 H2564 0.950 . S
C2574 C2575 1.386 . S
C2574 C2576 1.391 . S
C2575 C2574 1.386 . S
C2575 C2579 1.393 . S
C2576 H2565 0.950 . S
C2576 C2574 1.391 . S
C2576 C2577 1.400 . S
C2577 C2571 1.491 . S
C2577 C2576 1.400 . S
C2577 C2578 1.398 . S
C2578 H2566 0.950 . S
C2578 C2577 1.398 . S
C2578 C2579 1.391 . S
C2579 H2567 0.950 . S
C2579 C2575 1.393 . S
C2579 C2578 1.391 . S
H2580 C2588 0.950 . S
H2581 C2593 0.950 . S
H2582 C2590 0.950 . S
H2583 C2592 0.950 . S
H2584 C2594 0.950 . S
H2585 C2596 0.950 . S
H2586 C2598 0.950 . S
H2587 C2599 0.950 . S
C2588 H2580 0.950 . S
C2588 C2589 1.386 . S
C2588 C2590 1.391 . S
C2589 C2588 1.386 . S
C2589 C2593 1.393 . S
C2590 H2582 0.950 . S
C2590 C2588 1.391 . S
C2590 C2591 1.400 . S
C2591 C2590 1.400 . S
C2591 C2592 1.398 . S
C2591 C2597 1.491 . S
C2592 H2583 0.950 . S
C2592 C2591 1.398 . S
C2592 C2593 1.391 . S
C2593 H2581 0.950 . S
C2593 C2589 1.393 . S
C2593 C2592 1.391 . S
C2594 H2584 0.950 . S
C2594 C2595 1.386 . S
C2594 C2596 1.391 . S
C2595 C2594 1.386 . S
C2595 C2599 1.393 . S
C2596 H2585 0.950 . S
C2596 C2594 1.391 . S
C2596 C2597 1.400 . S
C2597 C2591 1.491 . S
C2597 C2596 1.400 . S
C2597 C2598 1.398 . S
C2598 H2586 0.950 . S
C2598 C2597 1.398 . S
C2598 C2599 1.391 . S
C2599 H2587 0.950 . S
C2599 C2595 1.393 . S
C2599 C2598 1.391 . S
H2600 C2608 0.950 . S
H2601 C2613 0.950 1_554 S
H2602 C2610 0.950 . S
H2603 C2612 0.950 . S
H2604 C2614 0.950 . S
H2605 C2616 0.950 . S
H2606 C2618 0.950 . S
H2607 C2619 0.950 . S
C2608 H2600 0.950 . S
C2608 C2609 1.386 . S
C2608 C2610 1.391 . S
C2609 C2608 1.386 . S
C2609 C2613 1.393 . S
C2610 H2602 0.950 . S
C2610 C2608 1.391 . S
C2610 C2611 1.400 . S
C2611 C2610 1.400 . S
C2611 C2612 1.398 . S
C2611 C2617 1.491 . S
C2612 H2603 0.950 . S
C2612 C2611 1.398 . S
C2612 C2613 1.391 . S
C2613 H2601 0.950 1_556 S
C2613 C2609 1.393 . S
C2613 C2612 1.391 . S
C2614 H2604 0.950 . S
C2614 C2615 1.386 . S
C2614 C2616 1.391 . S
C2615 C2614 1.386 . S
C2615 C2619 1.393 . S
C2616 H2605 0.950 . S
C2616 C2614 1.391 . S
C2616 C2617 1.400 . S
C2617 C2611 1.491 . S
C2617 C2616 1.400 . S
C2617 C2618 1.398 . S
C2618 H2606 0.950 . S
C2618 C2617 1.398 . S
C2618 C2619 1.391 . S
C2619 H2607 0.950 . S
C2619 C2615 1.393 . S
C2619 C2618 1.391 . S
H2620 C2628 0.950 . S
H2621 C2633 0.950 . S
H2622 C2630 0.950 . S
H2623 C2632 0.950 . S
H2624 C2634 0.950 . S
H2625 C2636 0.950 . S
H2626 C2638 0.950 . S
H2627 C2639 0.950 1_554 S
C2628 H2620 0.950 . S
C2628 C2629 1.386 . S
C2628 C2630 1.391 . S
C2629 C2628 1.386 . S
C2629 C2633 1.393 . S
C2630 H2622 0.950 . S
C2630 C2628 1.391 . S
C2630 C2631 1.400 . S
C2631 C2630 1.400 . S
C2631 C2632 1.398 . S
C2631 C2637 1.491 . S
C2632 H2623 0.950 . S
C2632 C2631 1.398 . S
C2632 C2633 1.391 . S
C2633 H2621 0.950 . S
C2633 C2629 1.393 . S
C2633 C2632 1.391 . S
C2634 H2624 0.950 . S
C2634 C2635 1.386 . S
C2634 C2636 1.391 . S
C2635 C2634 1.386 . S
C2635 C2639 1.393 . S
C2636 H2625 0.950 . S
C2636 C2634 1.391 . S
C2636 C2637 1.400 . S
C2637 C2631 1.491 . S
C2637 C2636 1.400 . S
C2637 C2638 1.398 . S
C2638 H2626 0.950 . S
C2638 C2637 1.398 . S
C2638 C2639 1.391 . S
C2639 H2627 0.950 1_556 S
C2639 C2635 1.393 . S
C2639 C2638 1.391 . S
H2640 C2648 0.950 . S
H2641 C2653 0.950 . S
H2642 C2650 0.950 . S
H2643 C2652 0.950 . S
H2644 C2654 0.950 . S
H2645 C2656 0.950 . S
H2646 C2658 0.950 . S
H2647 C2659 0.950 . S
C2648 H2640 0.950 . S
C2648 C2649 1.386 . S
C2648 C2650 1.391 . S
C2649 C2648 1.386 . S
C2649 C2653 1.393 . S
C2650 H2642 0.950 . S
C2650 C2648 1.391 . S
C2650 C2651 1.400 . S
C2651 C2650 1.400 . S
C2651 C2652 1.398 . S
C2651 C2657 1.491 . S
C2652 H2643 0.950 . S
C2652 C2651 1.398 . S
C2652 C2653 1.391 . S
C2653 H2641 0.950 . S
C2653 C2649 1.393 . S
C2653 C2652 1.391 . S
C2654 H2644 0.950 . S
C2654 C2655 1.386 . S
C2654 C2656 1.391 . S
C2655 C2654 1.386 . S
C2655 C2659 1.393 . S
C2656 H2645 0.950 . S
C2656 C2654 1.391 . S
C2656 C2657 1.400 . S
C2657 C2651 1.491 . S
C2657 C2656 1.400 . S
C2657 C2658 1.398 . S
C2658 H2646 0.950 . S
C2658 C2657 1.398 . S
C2658 C2659 1.391 . S
C2659 H2647 0.950 . S
C2659 C2655 1.393 . S
C2659 C2658 1.391 . S
H2660 C2668 0.950 . S
H2661 C2673 0.950 . S
H2662 C2670 0.950 . S
H2663 C2672 0.950 . S
H2664 C2674 0.950 . S
H2665 C2676 0.950 . S
H2666 C2678 0.950 . S
H2667 C2679 0.950 . S
C2668 H2660 0.950 . S
C2668 C2669 1.386 . S
C2668 C2670 1.391 . S
C2669 C2668 1.386 . S
C2669 C2673 1.393 . S
C2670 H2662 0.950 . S
C2670 C2668 1.391 . S
C2670 C2671 1.400 . S
C2671 C2670 1.400 . S
C2671 C2672 1.398 . S
C2671 C2677 1.491 . S
C2672 H2663 0.950 . S
C2672 C2671 1.398 . S
C2672 C2673 1.391 . S
C2673 H2661 0.950 . S
C2673 C2669 1.393 . S
C2673 C2672 1.391 . S
C2674 H2664 0.950 . S
C2674 C2675 1.386 . S
C2674 C2676 1.391 . S
C2675 C2674 1.386 . S
C2675 C2679 1.393 . S
C2676 H2665 0.950 . S
C2676 C2674 1.391 . S
C2676 C2677 1.400 . S
C2677 C2671 1.491 . S
C2677 C2676 1.400 . S
C2677 C2678 1.398 . S
C2678 H2666 0.950 . S
C2678 C2677 1.398 . S
C2678 C2679 1.391 . S
C2679 H2667 0.950 . S
C2679 C2675 1.393 . S
C2679 C2678 1.391 . S
H2680 C2688 0.950 . S
H2681 C2693 0.950 . S
H2682 C2690 0.950 . S
H2683 C2692 0.950 . S
H2684 C2694 0.950 . S
H2685 C2696 0.950 . S
H2686 C2698 0.950 . S
H2687 C2699 0.950 . S
C2688 H2680 0.950 . S
C2688 C2689 1.386 . S
C2688 C2690 1.391 . S
C2689 C2688 1.386 . S
C2689 C2693 1.393 . S
C2690 H2682 0.950 . S
C2690 C2688 1.391 . S
C2690 C2691 1.400 . S
C2691 C2690 1.400 . S
C2691 C2692 1.398 . S
C2691 C2697 1.491 . S
C2692 H2683 0.950 . S
C2692 C2691 1.398 . S
C2692 C2693 1.391 . S
C2693 H2681 0.950 . S
C2693 C2689 1.393 . S
C2693 C2692 1.391 . S
C2694 H2684 0.950 . S
C2694 C2695 1.386 . S
C2694 C2696 1.391 . S
C2695 C2694 1.386 . S
C2695 C2699 1.393 . S
C2696 H2685 0.950 . S
C2696 C2694 1.391 . S
C2696 C2697 1.400 . S
C2697 C2691 1.491 . S
C2697 C2696 1.400 . S
C2697 C2698 1.398 . S
C2698 H2686 0.950 . S
C2698 C2697 1.398 . S
C2698 C2699 1.391 . S
C2699 H2687 0.950 . S
C2699 C2695 1.393 . S
C2699 C2698 1.391 . S
H2700 C2708 0.950 . S
H2701 C2713 0.950 . S
H2702 C2710 0.950 . S
H2703 C2712 0.950 . S
H2704 C2714 0.950 . S
H2705 C2716 0.950 . S
H2706 C2718 0.950 . S
H2707 C2719 0.950 . S
C2708 H2700 0.950 . S
C2708 C2709 1.386 . S
C2708 C2710 1.391 . S
C2709 C2708 1.386 . S
C2709 C2713 1.393 . S
C2710 H2702 0.950 . S
C2710 C2708 1.391 . S
C2710 C2711 1.400 . S
C2711 C2710 1.400 . S
C2711 C2712 1.398 . S
C2711 C2717 1.491 . S
C2712 H2703 0.950 . S
C2712 C2711 1.398 . S
C2712 C2713 1.391 . S
C2713 H2701 0.950 . S
C2713 C2709 1.393 . S
C2713 C2712 1.391 . S
C2714 H2704 0.950 . S
C2714 C2715 1.386 . S
C2714 C2716 1.391 . S
C2715 C2714 1.386 . S
C2715 C2719 1.393 . S
C2716 H2705 0.950 . S
C2716 C2714 1.391 . S
C2716 C2717 1.400 . S
C2717 C2711 1.491 . S
C2717 C2716 1.400 . S
C2717 C2718 1.398 . S
C2718 H2706 0.950 . S
C2718 C2717 1.398 . S
C2718 C2719 1.391 . S
C2719 H2707 0.950 . S
C2719 C2715 1.393 . S
C2719 C2718 1.391 . S
H2720 C2728 0.950 . S
H2721 C2733 0.950 . S
H2722 C2730 0.950 . S
H2723 C2732 0.950 . S
H2724 C2734 0.950 . S
H2725 C2736 0.950 . S
H2726 C2738 0.950 . S
H2727 C2739 0.950 . S
C2728 H2720 0.950 . S
C2728 C2729 1.386 . S
C2728 C2730 1.391 . S
C2729 C2728 1.386 . S
C2729 C2733 1.393 . S
C2730 H2722 0.950 . S
C2730 C2728 1.391 . S
C2730 C2731 1.400 . S
C2731 C2730 1.400 . S
C2731 C2732 1.398 . S
C2731 C2737 1.491 . S
C2732 H2723 0.950 . S
C2732 C2731 1.398 . S
C2732 C2733 1.391 . S
C2733 H2721 0.950 . S
C2733 C2729 1.393 . S
C2733 C2732 1.391 . S
C2734 H2724 0.950 . S
C2734 C2735 1.386 . S
C2734 C2736 1.391 . S
C2735 C2734 1.386 . S
C2735 C2739 1.393 . S
C2736 H2725 0.950 . S
C2736 C2734 1.391 . S
C2736 C2737 1.400 . S
C2737 C2731 1.491 . S
C2737 C2736 1.400 . S
C2737 C2738 1.398 . S
C2738 H2726 0.950 . S
C2738 C2737 1.398 . S
C2738 C2739 1.391 . S
C2739 H2727 0.950 . S
C2739 C2735 1.393 . S
C2739 C2738 1.391 . S
H2740 C2748 0.950 . S
H2741 C2753 0.950 . S
H2742 C2750 0.950 . S
H2743 C2752 0.950 . S
H2744 C2754 0.950 . S
H2745 C2756 0.950 . S
H2746 C2758 0.950 . S
H2747 C2759 0.950 . S
C2748 H2740 0.950 . S
C2748 C2749 1.386 . S
C2748 C2750 1.391 . S
C2749 C2748 1.386 . S
C2749 C2753 1.393 . S
C2750 H2742 0.950 . S
C2750 C2748 1.391 . S
C2750 C2751 1.400 . S
C2751 C2750 1.400 . S
C2751 C2752 1.398 . S
C2751 C2757 1.491 . S
C2752 H2743 0.950 . S
C2752 C2751 1.398 . S
C2752 C2753 1.391 . S
C2753 H2741 0.950 . S
C2753 C2749 1.393 . S
C2753 C2752 1.391 . S
C2754 H2744 0.950 . S
C2754 C2755 1.386 . S
C2754 C2756 1.391 . S
C2755 C2754 1.386 . S
C2755 C2759 1.393 . S
C2756 H2745 0.950 . S
C2756 C2754 1.391 . S
C2756 C2757 1.400 . S
C2757 C2751 1.491 . S
C2757 C2756 1.400 . S
C2757 C2758 1.398 . S
C2758 H2746 0.950 . S
C2758 C2757 1.398 . S
C2758 C2759 1.391 . S
C2759 H2747 0.950 . S
C2759 C2755 1.393 . S
C2759 C2758 1.391 . S
H2760 C2768 0.950 . S
H2761 C2773 0.950 . S
H2762 C2770 0.950 . S
H2763 C2772 0.950 . S
H2764 C2774 0.950 . S
H2765 C2776 0.950 . S
H2766 C2778 0.950 . S
H2767 C2779 0.950 . S
C2768 H2760 0.950 . S
C2768 C2769 1.386 . S
C2768 C2770 1.391 . S
C2769 C2768 1.386 . S
C2769 C2773 1.393 . S
C2770 H2762 0.950 . S
C2770 C2768 1.391 . S
C2770 C2771 1.400 . S
C2771 C2770 1.400 . S
C2771 C2772 1.398 . S
C2771 C2777 1.491 . S
C2772 H2763 0.950 . S
C2772 C2771 1.398 . S
C2772 C2773 1.391 . S
C2773 H2761 0.950 . S
C2773 C2769 1.393 . S
C2773 C2772 1.391 . S
C2774 H2764 0.950 . S
C2774 C2775 1.386 . S
C2774 C2776 1.391 . S
C2775 C2774 1.386 . S
C2775 C2779 1.393 . S
C2776 H2765 0.950 . S
C2776 C2774 1.391 . S
C2776 C2777 1.400 . S
C2777 C2771 1.491 . S
C2777 C2776 1.400 . S
C2777 C2778 1.398 . S
C2778 H2766 0.950 . S
C2778 C2777 1.398 . S
C2778 C2779 1.391 . S
C2779 H2767 0.950 . S
C2779 C2775 1.393 . S
C2779 C2778 1.391 . S
H2780 C2788 0.950 . S
H2781 C2793 0.950 . S
H2782 C2790 0.950 . S
H2783 C2792 0.950 . S
H2784 C2794 0.950 . S
H2785 C2796 0.950 . S
H2786 C2798 0.950 . S
H2787 C2799 0.950 . S
C2788 H2780 0.950 . S
C2788 C2789 1.386 . S
C2788 C2790 1.391 . S
C2789 C2788 1.386 . S
C2789 C2793 1.393 . S
C2790 H2782 0.950 . S
C2790 C2788 1.391 . S
C2790 C2791 1.400 . S
C2791 C2790 1.400 . S
C2791 C2792 1.398 . S
C2791 C2797 1.491 . S
C2792 H2783 0.950 . S
C2792 C2791 1.398 . S
C2792 C2793 1.391 . S
C2793 H2781 0.950 . S
C2793 C2789 1.393 . S
C2793 C2792 1.391 . S
C2794 H2784 0.950 . S
C2794 C2795 1.386 . S
C2794 C2796 1.391 . S
C2795 C2794 1.386 . S
C2795 C2799 1.393 . S
C2796 H2785 0.950 . S
C2796 C2794 1.391 . S
C2796 C2797 1.400 . S
C2797 C2791 1.491 . S
C2797 C2796 1.400 . S
C2797 C2798 1.398 . S
C2798 H2786 0.950 . S
C2798 C2797 1.398 . S
C2798 C2799 1.391 . S
C2799 H2787 0.950 . S
C2799 C2795 1.393 . S
C2799 C2798 1.391 . S
H2800 C2808 0.950 . S
H2801 C2813 0.950 . S
H2802 C2810 0.950 . S
H2803 C2812 0.950 . S
H2804 C2814 0.950 . S
H2805 C2816 0.950 . S
H2806 C2818 0.950 . S
H2807 C2819 0.950 . S
C2808 H2800 0.950 . S
C2808 C2809 1.386 . S
C2808 C2810 1.391 . S
C2809 C2808 1.386 . S
C2809 C2813 1.393 . S
C2810 H2802 0.950 . S
C2810 C2808 1.391 . S
C2810 C2811 1.400 . S
C2811 C2810 1.400 . S
C2811 C2812 1.398 . S
C2811 C2817 1.491 . S
C2812 H2803 0.950 . S
C2812 C2811 1.398 . S
C2812 C2813 1.391 . S
C2813 H2801 0.950 . S
C2813 C2809 1.393 . S
C2813 C2812 1.391 . S
C2814 H2804 0.950 . S
C2814 C2815 1.386 . S
C2814 C2816 1.391 . S
C2815 C2814 1.386 . S
C2815 C2819 1.393 . S
C2816 H2805 0.950 . S
C2816 C2814 1.391 . S
C2816 C2817 1.400 . S
C2817 C2811 1.491 . S
C2817 C2816 1.400 . S
C2817 C2818 1.398 . S
C2818 H2806 0.950 . S
C2818 C2817 1.398 . S
C2818 C2819 1.391 . S
C2819 H2807 0.950 . S
C2819 C2815 1.393 . S
C2819 C2818 1.391 . S
H2820 C2828 0.950 . S
H2821 C2833 0.950 . S
H2822 C2830 0.950 . S
H2823 C2832 0.950 . S
H2824 C2834 0.950 . S
H2825 C2836 0.950 . S
H2826 C2838 0.950 . S
H2827 C2839 0.950 1_556 S
C2828 H2820 0.950 . S
C2828 C2829 1.386 . S
C2828 C2830 1.391 . S
C2829 C2828 1.386 . S
C2829 C2833 1.393 . S
C2830 H2822 0.950 . S
C2830 C2828 1.391 . S
C2830 C2831 1.400 . S
C2831 C2830 1.400 . S
C2831 C2832 1.398 . S
C2831 C2837 1.491 . S
C2832 H2823 0.950 . S
C2832 C2831 1.398 . S
C2832 C2833 1.391 . S
C2833 H2821 0.950 . S
C2833 C2829 1.393 . S
C2833 C2832 1.391 . S
C2834 H2824 0.950 . S
C2834 C2835 1.386 . S
C2834 C2836 1.391 . S
C2835 C2834 1.386 . S
C2835 C2839 1.393 . S
C2836 H2825 0.950 . S
C2836 C2834 1.391 . S
C2836 C2837 1.400 . S
C2837 C2831 1.491 . S
C2837 C2836 1.400 . S
C2837 C2838 1.398 . S
C2838 H2826 0.950 . S
C2838 C2837 1.398 . S
C2838 C2839 1.391 . S
C2839 H2827 0.950 1_554 S
C2839 C2835 1.393 . S
C2839 C2838 1.391 . S
H2840 C2848 0.950 . S
H2841 C2853 0.950 . S
H2842 C2850 0.950 . S
H2843 C2852 0.950 . S
H2844 C2854 0.950 . S
H2845 C2856 0.950 . S
H2846 C2858 0.950 . S
H2847 C2859 0.950 . S
C2848 H2840 0.950 . S
C2848 C2849 1.386 . S
C2848 C2850 1.391 . S
C2849 C2848 1.386 . S
C2849 C2853 1.393 . S
C2850 H2842 0.950 . S
C2850 C2848 1.391 . S
C2850 C2851 1.400 . S
C2851 C2850 1.400 . S
C2851 C2852 1.398 . S
C2851 C2857 1.491 . S
C2852 H2843 0.950 . S
C2852 C2851 1.398 . S
C2852 C2853 1.391 . S
C2853 H2841 0.950 . S
C2853 C2849 1.393 . S
C2853 C2852 1.391 . S
C2854 H2844 0.950 . S
C2854 C2855 1.386 . S
C2854 C2856 1.391 . S
C2855 C2854 1.386 . S
C2855 C2859 1.393 . S
C2856 H2845 0.950 . S
C2856 C2854 1.391 . S
C2856 C2857 1.400 . S
C2857 C2851 1.491 . S
C2857 C2856 1.400 . S
C2857 C2858 1.398 . S
C2858 H2846 0.950 . S
C2858 C2857 1.398 . S
C2858 C2859 1.391 . S
C2859 H2847 0.950 . S
C2859 C2855 1.393 . S
C2859 C2858 1.391 . S
H2860 C2868 0.950 . S
H2861 C2873 0.950 . S
H2862 C2870 0.950 . S
H2863 C2872 0.950 . S
H2864 C2874 0.950 . S
H2865 C2876 0.950 . S
H2866 C2878 0.950 . S
H2867 C2879 0.950 . S
C2868 H2860 0.950 . S
C2868 C2869 1.386 . S
C2868 C2870 1.391 . S
C2869 C2868 1.386 . S
C2869 C2873 1.393 . S
C2870 H2862 0.950 . S
C2870 C2868 1.391 . S
C2870 C2871 1.400 . S
C2871 C2870 1.400 . S
C2871 C2872 1.398 . S
C2871 C2877 1.491 . S
C2872 H2863 0.950 . S
C2872 C2871 1.398 . S
C2872 C2873 1.391 . S
C2873 H2861 0.950 . S
C2873 C2869 1.393 . S
C2873 C2872 1.391 . S
C2874 H2864 0.950 . S
C2874 C2875 1.386 . S
C2874 C2876 1.391 . S
C2875 C2874 1.386 . S
C2875 C2879 1.393 . S
C2876 H2865 0.950 . S
C2876 C2874 1.391 . S
C2876 C2877 1.400 . S
C2877 C2871 1.491 . S
C2877 C2876 1.400 . S
C2877 C2878 1.398 . S
C2878 H2866 0.950 . S
C2878 C2877 1.398 . S
C2878 C2879 1.391 . S
C2879 H2867 0.950 . S
C2879 C2875 1.393 . S
C2879 C2878 1.391 . S
H2880 C2888 0.950 . S
H2881 C2893 0.950 . S
H2882 C2890 0.950 . S
H2883 C2892 0.950 . S
H2884 C2894 0.950 . S
H2885 C2896 0.950 . S
H2886 C2898 0.950 . S
H2887 C2899 0.950 . S
C2888 H2880 0.950 . S
C2888 C2889 1.386 . S
C2888 C2890 1.391 . S
C2889 C2888 1.386 . S
C2889 C2893 1.393 . S
C2890 H2882 0.950 . S
C2890 C2888 1.391 . S
C2890 C2891 1.400 . S
C2891 C2890 1.400 . S
C2891 C2892 1.398 . S
C2891 C2897 1.491 . S
C2892 H2883 0.950 . S
C2892 C2891 1.398 . S
C2892 C2893 1.391 . S
C2893 H2881 0.950 . S
C2893 C2889 1.393 . S
C2893 C2892 1.391 . S
C2894 H2884 0.950 . S
C2894 C2895 1.386 . S
C2894 C2896 1.391 . S
C2895 C2894 1.386 . S
C2895 C2899 1.393 . S
C2896 H2885 0.950 . S
C2896 C2894 1.391 . S
C2896 C2897 1.400 . S
C2897 C2891 1.491 . S
C2897 C2896 1.400 . S
C2897 C2898 1.398 . S
C2898 H2886 0.950 . S
C2898 C2897 1.398 . S
C2898 C2899 1.391 . S
C2899 H2887 0.950 . S
C2899 C2895 1.393 . S
C2899 C2898 1.391 . S
H2900 C2908 0.950 . S
H2901 C2913 0.950 . S
H2902 C2910 0.950 . S
H2903 C2912 0.950 . S
H2904 C2914 0.950 . S
H2905 C2916 0.950 . S
H2906 C2918 0.950 . S
H2907 C2919 0.950 . S
C2908 H2900 0.950 . S
C2908 C2909 1.386 . S
C2908 C2910 1.391 . S
C2909 C2908 1.386 . S
C2909 C2913 1.393 . S
C2910 H2902 0.950 . S
C2910 C2908 1.391 . S
C2910 C2911 1.400 . S
C2911 C2910 1.400 . S
C2911 C2912 1.398 . S
C2911 C2917 1.491 . S
C2912 H2903 0.950 . S
C2912 C2911 1.398 . S
C2912 C2913 1.391 . S
C2913 H2901 0.950 . S
C2913 C2909 1.393 . S
C2913 C2912 1.391 . S
C2914 H2904 0.950 . S
C2914 C2915 1.386 . S
C2914 C2916 1.391 . S
C2915 C2914 1.386 . S
C2915 C2919 1.393 . S
C2916 H2905 0.950 . S
C2916 C2914 1.391 . S
C2916 C2917 1.400 . S
C2917 C2911 1.491 . S
C2917 C2916 1.400 . S
C2917 C2918 1.398 . S
C2918 H2906 0.950 . S
C2918 C2917 1.398 . S
C2918 C2919 1.391 . S
C2919 H2907 0.950 . S
C2919 C2915 1.393 . S
C2919 C2918 1.391 . S
H2920 C2928 0.950 . S
H2921 C2933 0.950 . S
H2922 C2930 0.950 . S
H2923 C2932 0.950 . S
H2924 C2934 0.950 . S
H2925 C2936 0.950 . S
H2926 C2938 0.950 . S
H2927 C2939 0.950 . S
C2928 H2920 0.950 . S
C2928 C2929 1.386 . S
C2928 C2930 1.391 . S
C2929 C2928 1.386 . S
C2929 C2933 1.393 . S
C2930 H2922 0.950 . S
C2930 C2928 1.391 . S
C2930 C2931 1.400 . S
C2931 C2930 1.400 . S
C2931 C2932 1.398 . S
C2931 C2937 1.491 . S
C2932 H2923 0.950 . S
C2932 C2931 1.398 . S
C2932 C2933 1.391 . S
C2933 H2921 0.950 . S
C2933 C2929 1.393 . S
C2933 C2932 1.391 . S
C2934 H2924 0.950 . S
C2934 C2935 1.386 . S
C2934 C2936 1.391 . S
C2935 C2934 1.386 . S
C2935 C2939 1.393 . S
C2936 H2925 0.950 . S
C2936 C2934 1.391 . S
C2936 C2937 1.400 . S
C2937 C2931 1.491 . S
C2937 C2936 1.400 . S
C2937 C2938 1.398 . S
C2938 H2926 0.950 . S
C2938 C2937 1.398 . S
C2938 C2939 1.391 . S
C2939 H2927 0.950 . S
C2939 C2935 1.393 . S
C2939 C2938 1.391 . S
H2940 C2948 0.950 . S
H2941 C2953 0.950 . S
H2942 C2950 0.950 . S
H2943 C2952 0.950 . S
H2944 C2954 0.950 . S
H2945 C2956 0.950 . S
H2946 C2958 0.950 . S
H2947 C2959 0.950 . S
C2948 H2940 0.950 . S
C2948 C2949 1.386 . S
C2948 C2950 1.391 . S
C2949 C2948 1.386 . S
C2949 C2953 1.393 . S
C2950 H2942 0.950 . S
C2950 C2948 1.391 . S
C2950 C2951 1.400 . S
C2951 C2950 1.400 . S
C2951 C2952 1.398 . S
C2951 C2957 1.491 . S
C2952 H2943 0.950 . S
C2952 C2951 1.398 . S
C2952 C2953 1.391 . S
C2953 H2941 0.950 . S
C2953 C2949 1.393 . S
C2953 C2952 1.391 . S
C2954 H2944 0.950 . S
C2954 C2955 1.386 . S
C2954 C2956 1.391 . S
C2955 C2954 1.386 . S
C2955 C2959 1.393 . S
C2956 H2945 0.950 . S
C2956 C2954 1.391 . S
C2956 C2957 1.400 . S
C2957 C2951 1.491 . S
C2957 C2956 1.400 . S
C2957 C2958 1.398 . S
C2958 H2946 0.950 . S
C2958 C2957 1.398 . S
C2958 C2959 1.391 . S
C2959 H2947 0.950 . S
C2959 C2955 1.393 . S
C2959 C2958 1.391 . S
H2960 C2968 0.950 . S
H2961 C2973 0.950 . S
H2962 C2970 0.950 . S
H2963 C2972 0.950 . S
H2964 C2974 0.950 . S
H2965 C2976 0.950 . S
H2966 C2978 0.950 . S
H2967 C2979 0.950 . S
C2968 H2960 0.950 . S
C2968 C2969 1.386 . S
C2968 C2970 1.391 . S
C2969 C2968 1.386 . S
C2969 C2973 1.393 . S
C2970 H2962 0.950 . S
C2970 C2968 1.391 . S
C2970 C2971 1.400 . S
C2971 C2970 1.400 . S
C2971 C2972 1.398 . S
C2971 C2977 1.491 . S
C2972 H2963 0.950 . S
C2972 C2971 1.398 . S
C2972 C2973 1.391 . S
C2973 H2961 0.950 . S
C2973 C2969 1.393 . S
C2973 C2972 1.391 . S
C2974 H2964 0.950 . S
C2974 C2975 1.386 . S
C2974 C2976 1.391 . S
C2975 C2974 1.386 . S
C2975 C2979 1.393 . S
C2976 H2965 0.950 . S
C2976 C2974 1.391 . S
C2976 C2977 1.400 . S
C2977 C2971 1.491 . S
C2977 C2976 1.400 . S
C2977 C2978 1.398 . S
C2978 H2966 0.950 . S
C2978 C2977 1.398 . S
C2978 C2979 1.391 . S
C2979 H2967 0.950 . S
C2979 C2975 1.393 . S
C2979 C2978 1.391 . S
H2980 C2988 0.950 . S
H2981 C2993 0.950 . S
H2982 C2990 0.950 . S
H2983 C2992 0.950 . S
H2984 C2994 0.950 . S
H2985 C2996 0.950 . S
H2986 C2998 0.950 . S
H2987 C2999 0.950 . S
C2988 H2980 0.950 . S
C2988 C2989 1.386 . S
C2988 C2990 1.391 . S
C2989 C2988 1.386 . S
C2989 C2993 1.393 . S
C2990 H2982 0.950 . S
C2990 C2988 1.391 . S
C2990 C2991 1.400 . S
C2991 C2990 1.400 . S
C2991 C2992 1.398 . S
C2991 C2997 1.491 . S
C2992 H2983 0.950 . S
C2992 C2991 1.398 . S
C2992 C2993 1.391 . S
C2993 H2981 0.950 . S
C2993 C2989 1.393 . S
C2993 C2992 1.391 . S
C2994 H2984 0.950 . S
C2994 C2995 1.386 . S
C2994 C2996 1.391 . S
C2995 C2994 1.386 . S
C2995 C2999 1.393 . S
C2996 H2985 0.950 . S
C2996 C2994 1.391 . S
C2996 C2997 1.400 . S
C2997 C2991 1.491 . S
C2997 C2996 1.400 . S
C2997 C2998 1.398 . S
C2998 H2986 0.950 . S
C2998 C2997 1.398 . S
C2998 C2999 1.391 . S
C2999 H2987 0.950 . S
C2999 C2995 1.393 . S
C2999 C2998 1.391 . S
H3000 C3008 0.950 . S
H3001 C3013 0.950 . S
H3002 C3010 0.950 . S
H3003 C3012 0.950 . S
H3004 C3014 0.950 . S
H3005 C3016 0.950 . S
H3006 C3018 0.950 . S
H3007 C3019 0.950 . S
C3008 H3000 0.950 . S
C3008 C3009 1.386 . S
C3008 C3010 1.391 . S
C3009 C3008 1.386 . S
C3009 C3013 1.393 . S
C3010 H3002 0.950 . S
C3010 C3008 1.391 . S
C3010 C3011 1.400 . S
C3011 C3010 1.400 . S
C3011 C3012 1.398 . S
C3011 C3017 1.491 . S
C3012 H3003 0.950 . S
C3012 C3011 1.398 . S
C3012 C3013 1.391 . S
C3013 H3001 0.950 . S
C3013 C3009 1.393 . S
C3013 C3012 1.391 . S
C3014 H3004 0.950 . S
C3014 C3015 1.386 . S
C3014 C3016 1.391 . S
C3015 C3014 1.386 . S
C3015 C3019 1.393 . S
C3016 H3005 0.950 . S
C3016 C3014 1.391 . S
C3016 C3017 1.400 . S
C3017 C3011 1.491 . S
C3017 C3016 1.400 . S
C3017 C3018 1.398 . S
C3018 H3006 0.950 . S
C3018 C3017 1.398 . S
C3018 C3019 1.391 . S
C3019 H3007 0.950 . S
C3019 C3015 1.393 . S
C3019 C3018 1.391 . S
H3020 C3028 0.950 . S
H3021 C3033 0.950 . S
H3022 C3030 0.950 . S
H3023 C3032 0.950 . S
H3024 C3034 0.950 . S
H3025 C3036 0.950 . S
H3026 C3038 0.950 . S
H3027 C3039 0.950 . S
C3028 H3020 0.950 . S
C3028 C3029 1.386 . S
C3028 C3030 1.391 . S
C3029 C3028 1.386 . S
C3029 C3033 1.393 . S
C3030 H3022 0.950 . S
C3030 C3028 1.391 . S
C3030 C3031 1.400 . S
C3031 C3030 1.400 . S
C3031 C3032 1.398 . S
C3031 C3037 1.491 . S
C3032 H3023 0.950 . S
C3032 C3031 1.398 . S
C3032 C3033 1.391 . S
C3033 H3021 0.950 . S
C3033 C3029 1.393 . S
C3033 C3032 1.391 . S
C3034 H3024 0.950 . S
C3034 C3035 1.386 . S
C3034 C3036 1.391 . S
C3035 C3034 1.386 . S
C3035 C3039 1.393 . S
C3036 H3025 0.950 . S
C3036 C3034 1.391 . S
C3036 C3037 1.400 . S
C3037 C3031 1.491 . S
C3037 C3036 1.400 . S
C3037 C3038 1.398 . S
C3038 H3026 0.950 . S
C3038 C3037 1.398 . S
C3038 C3039 1.391 . S
C3039 H3027 0.950 . S
C3039 C3035 1.393 . S
C3039 C3038 1.391 . S
H3040 C3048 0.950 . S
H3041 C3053 0.950 . S
H3042 C3050 0.950 . S
H3043 C3052 0.950 . S
H3044 C3054 0.950 . S
H3045 C3056 0.950 . S
H3046 C3058 0.950 . S
H3047 C3059 0.950 . S
C3048 H3040 0.950 . S
C3048 C3049 1.386 . S
C3048 C3050 1.391 . S
C3049 C3048 1.386 . S
C3049 C3053 1.393 . S
C3050 H3042 0.950 . S
C3050 C3048 1.391 . S
C3050 C3051 1.400 . S
C3051 C3050 1.400 . S
C3051 C3052 1.398 . S
C3051 C3057 1.491 . S
C3052 H3043 0.950 . S
C3052 C3051 1.398 . S
C3052 C3053 1.391 . S
C3053 H3041 0.950 . S
C3053 C3049 1.393 . S
C3053 C3052 1.391 . S
C3054 H3044 0.950 . S
C3054 C3055 1.386 . S
C3054 C3056 1.391 . S
C3055 C3054 1.386 . S
C3055 C3059 1.393 . S
C3056 H3045 0.950 . S
C3056 C3054 1.391 . S
C3056 C3057 1.400 . S
C3057 C3051 1.491 . S
C3057 C3056 1.400 . S
C3057 C3058 1.398 . S
C3058 H3046 0.950 . S
C3058 C3057 1.398 . S
C3058 C3059 1.391 . S
C3059 H3047 0.950 . S
C3059 C3055 1.393 . S
C3059 C3058 1.391 . S
H3060 C3068 0.950 . S
H3061 C3073 0.950 . S
H3062 C3070 0.950 . S
H3063 C3072 0.950 . S
H3064 C3074 0.950 . S
H3065 C3076 0.950 . S
H3066 C3078 0.950 . S
H3067 C3079 0.950 . S
C3068 H3060 0.950 . S
C3068 C3069 1.386 . S
C3068 C3070 1.391 . S
C3069 C3068 1.386 . S
C3069 C3073 1.393 . S
C3070 H3062 0.950 . S
C3070 C3068 1.391 . S
C3070 C3071 1.400 . S
C3071 C3070 1.400 . S
C3071 C3072 1.398 . S
C3071 C3077 1.491 . S
C3072 H3063 0.950 . S
C3072 C3071 1.398 . S
C3072 C3073 1.391 . S
C3073 H3061 0.950 . S
C3073 C3069 1.393 . S
C3073 C3072 1.391 . S
C3074 H3064 0.950 . S
C3074 C3075 1.386 . S
C3074 C3076 1.391 . S
C3075 C3074 1.386 . S
C3075 C3079 1.393 . S
C3076 H3065 0.950 . S
C3076 C3074 1.391 . S
C3076 C3077 1.400 . S
C3077 C3071 1.491 . S
C3077 C3076 1.400 . S
C3077 C3078 1.398 . S
C3078 H3066 0.950 . S
C3078 C3077 1.398 . S
C3078 C3079 1.391 . S
C3079 H3067 0.950 . S
C3079 C3075 1.393 . S
C3079 C3078 1.391 . S
H3080 C3088 0.950 . S
H3081 C3093 0.950 . S
H3082 C3090 0.950 . S
H3083 C3092 0.950 . S
H3084 C3094 0.950 . S
H3085 C3096 0.950 . S
H3086 C3098 0.950 . S
H3087 C3099 0.950 . S
C3088 H3080 0.950 . S
C3088 C3089 1.386 . S
C3088 C3090 1.391 . S
C3089 C3088 1.386 . S
C3089 C3093 1.393 . S
C3090 H3082 0.950 . S
C3090 C3088 1.391 . S
C3090 C3091 1.400 . S
C3091 C3090 1.400 . S
C3091 C3092 1.398 . S
C3091 C3097 1.491 . S
C3092 H3083 0.950 . S
C3092 C3091 1.398 . S
C3092 C3093 1.391 . S
C3093 H3081 0.950 . S
C3093 C3089 1.393 . S
C3093 C3092 1.391 . S
C3094 H3084 0.950 . S
C3094 C3095 1.386 . S
C3094 C3096 1.391 . S
C3095 C3094 1.386 . S
C3095 C3099 1.393 . S
C3096 H3085 0.950 . S
C3096 C3094 1.391 . S
C3096 C3097 1.400 . S
C3097 C3091 1.491 . S
C3097 C3096 1.400 . S
C3097 C3098 1.398 . S
C3098 H3086 0.950 . S
C3098 C3097 1.398 . S
C3098 C3099 1.391 . S
C3099 H3087 0.950 . S
C3099 C3095 1.393 . S
C3099 C3098 1.391 . S
H3100 C3108 0.950 . S
H3101 C3113 0.950 . S
H3102 C3110 0.950 . S
H3103 C3112 0.950 . S
H3104 C3114 0.950 . S
H3105 C3116 0.950 . S
H3106 C3118 0.950 . S
H3107 C3119 0.950 . S
C3108 H3100 0.950 . S
C3108 C3109 1.386 . S
C3108 C3110 1.391 . S
C3109 C3108 1.386 . S
C3109 C3113 1.393 . S
C3110 H3102 0.950 . S
C3110 C3108 1.391 . S
C3110 C3111 1.400 . S
C3111 C3110 1.400 . S
C3111 C3112 1.398 . S
C3111 C3117 1.491 . S
C3112 H3103 0.950 . S
C3112 C3111 1.398 . S
C3112 C3113 1.391 . S
C3113 H3101 0.950 . S
C3113 C3109 1.393 . S
C3113 C3112 1.391 . S
C3114 H3104 0.950 . S
C3114 C3115 1.386 . S
C3114 C3116 1.391 . S
C3115 C3114 1.386 . S
C3115 C3119 1.393 . S
C3116 H3105 0.950 . S
C3116 C3114 1.391 . S
C3116 C3117 1.400 . S
C3117 C3111 1.491 . S
C3117 C3116 1.400 . S
C3117 C3118 1.398 . S
C3118 H3106 0.950 . S
C3118 C3117 1.398 . S
C3118 C3119 1.391 . S
C3119 H3107 0.950 . S
C3119 C3115 1.393 . S
C3119 C3118 1.391 . S
H3120 C3128 0.950 . S
H3121 C3133 0.950 . S
H3122 C3130 0.950 . S
H3123 C3132 0.950 . S
H3124 C3134 0.950 . S
H3125 C3136 0.950 . S
H3126 C3138 0.950 . S
H3127 C3139 0.950 . S
C3128 H3120 0.950 . S
C3128 C3129 1.386 . S
C3128 C3130 1.391 . S
C3129 C3128 1.386 . S
C3129 C3133 1.393 . S
C3130 H3122 0.950 . S
C3130 C3128 1.391 . S
C3130 C3131 1.400 . S
C3131 C3130 1.400 . S
C3131 C3132 1.398 . S
C3131 C3137 1.491 . S
C3132 H3123 0.950 . S
C3132 C3131 1.398 . S
C3132 C3133 1.391 . S
C3133 H3121 0.950 . S
C3133 C3129 1.393 . S
C3133 C3132 1.391 . S
C3134 H3124 0.950 . S
C3134 C3135 1.386 . S
C3134 C3136 1.391 . S
C3135 C3134 1.386 . S
C3135 C3139 1.393 . S
C3136 H3125 0.950 . S
C3136 C3134 1.391 . S
C3136 C3137 1.400 . S
C3137 C3131 1.491 . S
C3137 C3136 1.400 . S
C3137 C3138 1.398 . S
C3138 H3126 0.950 . S
C3138 C3137 1.398 . S
C3138 C3139 1.391 . S
C3139 H3127 0.950 . S
C3139 C3135 1.393 . S
C3139 C3138 1.391 . S
H3140 C3148 0.950 . S
H3141 C3153 0.950 . S
H3142 C3150 0.950 . S
H3143 C3152 0.950 . S
H3144 C3154 0.950 . S
H3145 C3156 0.950 . S
H3146 C3158 0.950 . S
H3147 C3159 0.938 1_556 S
C3148 H3140 0.950 . S
C3148 C3149 1.386 . S
C3148 C3150 1.391 . S
C3149 C3148 1.386 . S
C3149 C3153 1.393 . S
C3150 H3142 0.950 . S
C3150 C3148 1.391 . S
C3150 C3151 1.400 . S
C3151 C3150 1.400 . S
C3151 C3152 1.398 . S
C3151 C3157 1.491 . S
C3152 H3143 0.950 . S
C3152 C3151 1.398 . S
C3152 C3153 1.391 . S
C3153 H3141 0.950 . S
C3153 C3149 1.393 . S
C3153 C3152 1.391 . S
C3154 H3144 0.950 . S
C3154 C3155 1.386 . S
C3154 C3156 1.391 . S
C3155 C3154 1.386 . S
C3155 C3159 1.393 . S
C3156 H3145 0.950 . S
C3156 C3154 1.391 . S
C3156 C3157 1.400 . S
C3157 C3151 1.491 . S
C3157 C3156 1.400 . S
C3157 C3158 1.398 . S
C3158 H3146 0.950 . S
C3158 C3157 1.398 . S
C3158 C3159 1.391 . S
C3159 H3147 0.938 1_554 S
C3159 C3155 1.393 . S
C3159 C3158 1.391 . S
H3160 C3168 0.950 . S
H3161 C3173 0.950 . S
H3162 C3170 0.950 . S
H3163 C3172 0.950 . S
H3164 C3174 0.950 . S
H3165 C3176 0.950 . S
H3166 C3178 0.950 . S
H3167 C3179 0.950 . S
C3168 H3160 0.950 . S
C3168 C3169 1.386 . S
C3168 C3170 1.391 . S
C3169 C3168 1.386 . S
C3169 C3173 1.393 . S
C3170 H3162 0.950 . S
C3170 C3168 1.391 . S
C3170 C3171 1.400 . S
C3171 C3170 1.400 . S
C3171 C3172 1.398 . S
C3171 C3177 1.491 . S
C3172 H3163 0.950 . S
C3172 C3171 1.398 . S
C3172 C3173 1.391 . S
C3173 H3161 0.950 . S
C3173 C3169 1.393 . S
C3173 C3172 1.391 . S
C3174 H3164 0.950 . S
C3174 C3175 1.386 . S
C3174 C3176 1.391 . S
C3175 C3174 1.386 . S
C3175 C3179 1.393 . S
C3176 H3165 0.950 . S
C3176 C3174 1.391 . S
C3176 C3177 1.400 . S
C3177 C3171 1.491 . S
C3177 C3176 1.400 . S
C3177 C3178 1.398 . S
C3178 H3166 0.950 . S
C3178 C3177 1.398 . S
C3178 C3179 1.391 . S
C3179 H3167 0.950 . S
C3179 C3175 1.393 . S
C3179 C3178 1.391 . S
H3180 C3188 0.950 . S
H3181 C3193 0.950 . S
H3182 C3190 0.950 . S
H3183 C3192 0.950 . S
H3184 C3194 0.950 . S
H3185 C3196 0.950 . S
H3186 C3198 0.950 . S
H3187 C3199 0.950 . S
C3188 H3180 0.950 . S
C3188 C3189 1.386 . S
C3188 C3190 1.391 . S
C3189 C3188 1.386 . S
C3189 C3193 1.393 . S
C3190 H3182 0.950 . S
C3190 C3188 1.391 . S
C3190 C3191 1.400 . S
C3191 C3190 1.400 . S
C3191 C3192 1.398 . S
C3191 C3197 1.491 . S
C3192 H3183 0.950 . S
C3192 C3191 1.398 . S
C3192 C3193 1.391 . S
C3193 H3181 0.950 . S
C3193 C3189 1.393 . S
C3193 C3192 1.391 . S
C3194 H3184 0.950 . S
C3194 C3195 1.386 . S
C3194 C3196 1.391 . S
C3195 C3194 1.386 . S
C3195 C3199 1.393 . S
C3196 H3185 0.950 . S
C3196 C3194 1.391 . S
C3196 C3197 1.400 . S
C3197 C3191 1.491 . S
C3197 C3196 1.400 . S
C3197 C3198 1.398 . S
C3198 H3186 0.950 . S
C3198 C3197 1.398 . S
C3198 C3199 1.391 . S
C3199 H3187 0.950 . S
C3199 C3195 1.393 . S
C3199 C3198 1.391 . S
C1289 C1139 1.684 . S
C1295 C10 1.684 . S
C1309 C219 1.675 . S
C1315 C50 1.676 . S
C1329 C899 1.676 . S
C1335 C90 1.676 . S
C1349 C619 1.681 . S
C1355 C130 1.680 . S
C1369 C179 1.682 . S
C1375 C970 1.682 . S
C1389 C730 1.677 . S
C1395 C259 1.678 . S
C1409 C450 1.678 . S
C1415 C299 1.678 . S
C1429 C819 1.686 . S
C1435 C330 1.686 . S
C1449 C370 1.674 . S
C1455 C539 1.674 . S
C1469 C410 1.682 . S
C1475 C1219 1.682 . S
C1489 C650 1.679 . S
C1495 C499 1.679 . S
C1509 C579 1.683 . S
C1515 C1050 1.683 . S
C1529 C690 1.678 . S
C1535 C859 1.680 . S
C1549 C770 1.678 . S
C1555 C1259 1.678 . S
C1569 C1090 1.688 . S
C1575 C939 1.687 . S
C1589 C1179 1.676 . S
C1595 C1010 1.676 . S
C1609 C779 1.559 . S
C1615 C19 1.565 . S
C1629 C739 1.560 . S
C1635 C59 1.565 . S
C1649 C699 1.555 . S
C1655 C99 1.561 . S
C1669 C659 1.553 . S
C1675 C139 1.553 . S
C1689 C930 1.553 . S
C1695 C170 1.556 . S
C1709 C210 1.553 . S
C1715 C890 1.558 . S
C1729 C250 1.555 . S
C1735 C850 1.561 . S
C1749 C290 1.563 . S
C1755 C810 1.567 . S
C1769 C339 1.581 . S
C1775 C1099 1.582 . S
C1789 C379 1.554 . S
C1795 C1059 1.552 . S
C1809 C419 1.567 . S
C1815 C1019 1.562 . S
C1829 C979 1.566 . S
C1835 C459 1.569 . S
C1849 C490 1.568 . S
C1855 C1250 1.565 . S
C1869 C530 1.558 . S
C1875 C1210 1.554 . S
C1889 C570 1.567 . S
C1895 C1170 1.569 . S
C1909 C1130 1.575 . S
C1915 C610 1.570 . S
C1929 C15 1.298 . S
C1935 C6 1.298 . S
C1949 C55 1.284 . S
C1955 C46 1.284 . S
C1969 C86 1.283 . S
C1975 C95 1.283 . S
C1989 C126 1.289 . S
C1995 C135 1.289 . S
C2009 C175 1.297 . S
C2015 C166 1.297 . S
C2029 C215 1.272 . S
C2035 C206 1.272 . S
C2049 C255 1.277 . S
C2055 C246 1.277 . S
C2069 C286 1.298 . S
C2075 C295 1.298 . S
C2089 C335 1.306 . S
C2095 C326 1.306 . S
C2109 C366 1.268 . S
C2115 C375 1.268 . S
C2129 C406 1.285 . S
C2135 C415 1.285 . S
C2149 C446 1.303 . S
C2155 C455 1.303 . S
C2169 C495 1.304 . S
C2175 C486 1.304 . S
C2189 C526 1.269 . S
C2195 C535 1.269 . S
C2209 C575 1.286 . S
C2215 C566 1.286 . S
C2229 C606 1.305 . S
C2235 C615 1.305 . S
C2249 C655 1.285 . S
C2255 C646 1.285 . S
C2269 C686 1.289 . S
C2275 C695 1.289 . S
C2289 C726 1.283 . S
C2295 C735 1.283 . S
C2309 C766 1.298 . S
C2315 C775 1.298 . S
C2329 C806 1.271 . S
C2335 C815 1.271 . S
C2349 C855 1.262 . S
C2355 C846 1.262 . S
C2369 C886 1.270 . S
C2375 C895 1.270 . S
C2389 C926 1.272 . S
C2395 C935 1.272 . S
C2409 C975 1.284 . S
C2415 C966 1.284 . S
C2429 C1006 1.268 . S
C2435 C1015 1.268 . S
C2449 C1046 1.279 . S
C2455 C1055 1.279 . S
C2469 C1095 1.306 . S
C2475 C1086 1.306 . S
C2489 C1135 1.306 . S
C2495 C1126 1.306 . S
C2509 C1166 1.286 . S
C2515 C1175 1.286 . S
C2529 C1206 1.274 . S
C2535 C1215 1.274 . S
C2549 C1246 1.278 . S
C2555 C1255 1.278 . S
C2569 C409 2.165 . S
C2575 C9 2.175 . S
C2589 C449 2.125 . S
C2595 C49 2.125 . S
C2609 C89 2.123 1_556 S
C2615 C329 2.128 . S
C2629 C369 2.166 . S
C2635 C129 2.175 1_556 S
C2649 C178 2.173 . S
C2655 C578 2.169 . S
C2669 C218 2.121 . S
C2675 C618 2.129 . S
C2689 C258 2.124 1_554 S
C2695 C498 2.126 . S
C2709 C298 2.173 1_554 S
C2715 C538 2.169 . S
C2729 C1049 2.171 1_556 S
C2735 C649 2.171 . S
C2749 C689 2.127 . S
C2755 C1089 2.125 1_556 S
C2769 C969 2.128 . S
C2775 C729 2.122 . S
C2789 C769 2.169 . S
C2795 C1009 2.172 . S
C2809 C1218 2.173 1_554 S
C2815 C818 2.168 . S
C2829 C858 2.132 . S
C2835 C1258 2.118 1_554 S
C2849 C898 2.131 . S
C2855 C1138 2.119 . S
C2869 C1178 2.168 . S
C2875 C938 2.173 . S
C2889 C18 1.096 . S
C2895 C98 1.111 . S
C2909 C138 1.091 . S
C2915 C58 1.091 . S
C2929 C249 1.089 . S
C2935 C169 1.092 . S
C2949 C209 1.108 . S
C2955 C289 1.096 . S
C2969 C338 1.043 . S
C2975 C418 1.031 . S
C2989 C458 1.031 . S
C2995 C378 1.044 . S
C3009 C569 1.031 . S
C3015 C489 1.045 . S
C3029 C609 1.054 . S
C3035 C529 1.046 . S
C3049 C738 1.108 . S
C3055 C658 1.093 . S
C3069 C778 1.088 . S
C3075 C698 1.094 . S
C3089 C889 1.105 . S
C3095 C809 1.103 . S
C3109 C929 1.107 . S
C3115 C849 1.088 . S
C3129 C978 1.033 . S
C3135 C1058 1.040 . S
C3149 C1018 1.054 . S
C3155 C1098 1.032 . S
C3169 C1129 1.051 . S
C3175 C1209 1.030 . S
C3189 C1249 1.050 . S
C3195 C1169 1.051 . S
