# Generated by pormake.
# Topology ukg, (4)-cn, num edge types: 1
# Building blocks:
#     Node 0, Type 0, BuildingBlock: CEKHIL_clean_sbu_0, # of connection points: 4
#     Node 1, Type 0, BuildingBlock: CEKHIL_clean_sbu_0, # of connection points: 4
#     Node 2, Type 0, BuildingBlock: CEKHIL_clean_sbu_0, # of connection points: 4
#     Node 3, Type 0, BuildingBlock: CEKHIL_clean_sbu_0, # of connection points: 4
#     Node 4, Type 0, BuildingBlock: CEKHIL_clean_sbu_0, # of connection points: 4
#     Node 5, Type 0, BuildingBlock: CEKHIL_clean_sbu_0, # of connection points: 4
#     Node 6, Type 0, BuildingBlock: CEKHIL_clean_sbu_0, # of connection points: 4
#     Node 7, Type 0, BuildingBlock: CEKHIL_clean_sbu_0, # of connection points: 4
#     Edge 8, Type (0, 0), BuildingBlock: XUDNAN_clean_linker_2, # of connection points: 2
#     Edge 9, Type (0, 0), BuildingBlock: XUDNAN_clean_linker_2, # of connection points: 2
#     Edge 10, Type (0, 0), BuildingBlock: XUDNAN_clean_linker_2, # of connection points: 2
#     Edge 11, Type (0, 0), BuildingBlock: XUDNAN_clean_linker_2, # of connection points: 2
#     Edge 12, Type (0, 0), BuildingBlock: XUDNAN_clean_linker_2, # of connection points: 2
#     Edge 13, Type (0, 0), BuildingBlock: XUDNAN_clean_linker_2, # of connection points: 2
#     Edge 14, Type (0, 0), BuildingBlock: XUDNAN_clean_linker_2, # of connection points: 2
#     Edge 15, Type (0, 0), BuildingBlock: XUDNAN_clean_linker_2, # of connection points: 2
#     Edge 16, Type (0, 0), BuildingBlock: XUDNAN_clean_linker_2, # of connection points: 2
#     Edge 17, Type (0, 0), BuildingBlock: XUDNAN_clean_linker_2, # of connection points: 2
#     Edge 18, Type (0, 0), BuildingBlock: XUDNAN_clean_linker_2, # of connection points: 2
#     Edge 19, Type (0, 0), BuildingBlock: XUDNAN_clean_linker_2, # of connection points: 2
#     Edge 20, Type (0, 0), BuildingBlock: XUDNAN_clean_linker_2, # of connection points: 2
#     Edge 21, Type (0, 0), BuildingBlock: XUDNAN_clean_linker_2, # of connection points: 2
#     Edge 22, Type (0, 0), BuildingBlock: XUDNAN_clean_linker_2, # of connection points: 2
#     Edge 23, Type (0, 0), BuildingBlock: XUDNAN_clean_linker_2, # of connection points: 2
# Relax obj value: 0.122
# Max RMSD: 0.207
# Mean RMSD: 0.202
data_MOF--net-ukg--node1-CEKHIL_clean_sbu_0--edge1-XUDNAN_clean_linker_2
_symmetry_space_group_name_H-M    P1
_symmetry_Int_Tables_number       1
_symmetry_cell_setting            triclinic
loop_
_symmetry_equiv_pos_as_xyz
'x, y, z'
_cell_length_a     30.266178
_cell_length_b     29.708593
_cell_length_c     37.553825
_cell_angle_alpha  90.012923
_cell_angle_beta   90.001216
_cell_angle_gamma 89.442036
loop_
_atom_site_label
_atom_site_type_symbol
_atom_site_fract_x
_atom_site_fract_y
_atom_site_fract_z
_atom_type_partial_charge
Co0 Co 0.03933 0.6278 0.15026 0.0
O1 O 0.05657 0.57688 0.12206 0.0
O2 O 0.03722 0.64341 0.10014 0.0
C3 C 0.99088 0.59115 0.1852 0.0
O4 O 0.01786 0.68695 0.17173 0.0
Co5 Co 0.06104 0.62678 0.23128 0.0
O6 O 0.01894 0.67839 0.2313 0.0
C7 C 0.13126 0.64671 0.17952 0.0
C8 C 0.04843 0.60161 0.09435 0.0
C9 C 0.00833 0.70052 0.20341 0.0
O10 O 0.10266 0.64791 0.15421 0.0
O11 O 0.12216 0.63485 0.21145 0.0
O12 O 0.97977 0.60491 0.15366 0.0
O13 O 0.03232 0.5951 0.19297 0.0
Co14 Co 0.35447 0.52328 0.64425 0.0
O15 O 0.40906 0.55072 0.63091 0.0
O16 O 0.36167 0.52142 0.5928 0.0
C17 C 0.38358 0.47918 0.68705 0.0
O18 O 0.29535 0.49065 0.64991 0.0
Co19 Co 0.31985 0.53863 0.7218 0.0
O20 O 0.28178 0.48737 0.709 0.0
C21 C 0.29864 0.60478 0.66501 0.0
C22 C 0.4001 0.53959 0.59841 0.0
C23 C 0.2733 0.47624 0.67697 0.0
O24 O 0.32175 0.58277 0.64198 0.0
O25 O 0.29499 0.59345 0.69775 0.0
O26 O 0.38531 0.46708 0.65397 0.0
O27 O 0.36907 0.51954 0.69293 0.0
Co28 Co 0.4786 0.87514 0.15884 0.0
O29 O 0.45717 0.92583 0.13196 0.0
O30 O 0.48695 0.8641 0.10863 0.0
C31 C 0.51938 0.91278 0.19905 0.0
O32 O 0.50634 0.81765 0.17769 0.0
Co33 Co 0.45178 0.86455 0.2388 0.0
O34 O 0.49536 0.81434 0.23709 0.0
C35 C 0.39218 0.83157 0.18238 0.0
C36 C 0.47132 0.90458 0.10389 0.0
C37 C 0.51198 0.79919 0.20825 0.0
O38 O 0.41901 0.84463 0.15793 0.0
O39 O 0.39817 0.83858 0.21563 0.0
O40 O 0.53412 0.90532 0.16718 0.0
O41 O 0.47808 0.90376 0.20394 0.0
Co42 Co 0.14152 0.98438 0.63624 0.0
O43 O 0.08766 0.98062 0.60947 0.0
O44 O 0.15289 0.99647 0.58629 0.0
C45 C 0.11435 0.02811 0.68 0.0
O46 O 0.2033 0.9931 0.657 0.0
Co47 Co 0.14231 0.94286 0.71276 0.0
O48 O 0.20034 0.97305 0.71489 0.0
C49 C 0.14608 0.88384 0.65015 0.0
C50 C 0.11044 0.99208 0.58179 0.0
C51 C 0.22078 0.9895 0.68824 0.0
O52 O 0.15317 0.91779 0.62974 0.0
O53 O 0.13585 0.88732 0.68309 0.0
O54 O 0.12669 0.04578 0.65008 0.0
O55 O 0.11388 0.9847 0.68081 0.0
Co56 Co 0.96631 0.32429 0.84797 0.0
O57 O 0.91471 0.30745 0.87448 0.0
O58 O 0.91505 0.35609 0.82982 0.0
C59 C 0.99072 0.25396 0.83767 0.0
O60 O 0.01276 0.34745 0.81303 0.0
Co61 Co 0.06009 0.3003 0.87628 0.0
O62 O 0.07684 0.31229 0.82617 0.0
C63 C 0.01144 0.37842 0.90633 0.0
C64 C 0.89241 0.33239 0.85244 0.0
C65 C 0.0529 0.33609 0.80536 0.0
O66 O 0.98032 0.37365 0.88323 0.0
O67 O 0.04399 0.3508 0.90938 0.0
O68 O 0.95991 0.2717 0.81812 0.0
O69 O 0.0024 0.27708 0.86521 0.0
Co70 Co 0.64297 0.47849 0.35322 0.0
O71 O 0.58977 0.47304 0.3802 0.0
O72 O 0.6562 0.48016 0.40398 0.0
C73 C 0.6179 0.53197 0.31623 0.0
O74 O 0.70437 0.48675 0.33153 0.0
Co75 Co 0.63608 0.45209 0.27277 0.0
O76 O 0.69409 0.48245 0.2721 0.0
C77 C 0.64203 0.38141 0.32727 0.0
C78 C 0.61356 0.47742 0.40854 0.0
C79 C 0.71814 0.49105 0.29915 0.0
O80 O 0.65037 0.41089 0.3514 0.0
O81 O 0.63066 0.39147 0.2954 0.0
O82 O 0.63282 0.54282 0.34736 0.0
O83 O 0.61333 0.48952 0.31037 0.0
Co84 Co 0.52938 0.18312 0.85109 0.0
O85 O 0.57709 0.21239 0.87567 0.0
O86 O 0.58536 0.16107 0.83332 0.0
C87 C 0.49121 0.24656 0.83882 0.0
O88 O 0.48862 0.14758 0.8183 0.0
Co89 Co 0.43297 0.18928 0.88064 0.0
O90 O 0.41831 0.15354 0.83787 0.0
C91 C 0.49815 0.12833 0.91445 0.0
C92 C 0.60332 0.19047 0.85438 0.0
C93 C 0.44708 0.13925 0.81574 0.0
O94 O 0.52601 0.13464 0.88897 0.0
O95 O 0.46204 0.15078 0.91762 0.0
O96 O 0.52435 0.23443 0.81911 0.0
O97 O 0.48459 0.22261 0.86694 0.0
Co98 Co 0.86728 0.03464 0.33883 0.0
O99 O 0.92028 0.06416 0.35349 0.0
O100 O 0.86779 0.04198 0.39028 0.0
C101 C 0.90142 0.98319 0.304 0.0
O102 O 0.80855 0.0021 0.33225 0.0
Co103 Co 0.84237 0.03358 0.25804 0.0
O104 O 0.8042 0.98379 0.27418 0.0
C105 C 0.81272 0.109 0.30495 0.0
C106 C 0.90709 0.05872 0.38597 0.0
C107 C 0.79017 0.98124 0.30612 0.0
O108 O 0.83499 0.09367 0.3316 0.0
O109 O 0.81277 0.09078 0.27401 0.0
O110 O 0.89858 0.97738 0.33808 0.0
O111 O 0.88792 0.0219 0.29243 0.0
H112 H 0.05807 0.38981 0.96779 0.0
H113 H 0.96522 0.45816 0.8977 0.0
H114 H 0.97023 0.52664 0.93513 0.0
H115 H 0.01589 0.43548 0.04854 0.0
H116 H 0.06953 0.43884 0.06917 0.0
H117 H 0.05932 0.39675 0.03581 0.0
H118 H 0.12593 0.42604 0.99935 0.0
H119 H 0.13582 0.46878 0.03236 0.0
H120 H 0.12747 0.48446 0.98646 0.0
H121 H 0.98591 0.58792 0.98133 0.0
H122 H 0.00335 0.63216 0.03545 0.0
H123 H 0.08496 0.52184 0.07417 0.0
C124 C 0.03881 0.41915 0.96012 0.0
C125 C 0.01143 0.41866 0.92967 0.0
C126 C 0.98634 0.45768 0.92098 0.0
C127 C 0.98928 0.49684 0.9419 0.0
C128 C 0.01729 0.4963 0.97143 0.0
C129 C 0.04113 0.45816 0.98069 0.0
C130 C 0.06706 0.46501 0.0146 0.0
C131 C 0.05203 0.43209 0.04374 0.0
C132 C 0.11703 0.46083 0.00776 0.0
C133 C 0.05388 0.51292 0.02331 0.0
C134 C 0.02565 0.5308 0.99794 0.0
C135 C 0.00815 0.57426 0.00123 0.0
C136 C 0.01851 0.59929 0.03188 0.0
C137 C 0.04563 0.58045 0.05886 0.0
C138 C 0.06437 0.53725 0.05387 0.0
H139 H 0.40119 0.4994 0.53227 0.0
H140 H 0.48017 0.58007 0.60409 0.0
H141 H 0.54491 0.56955 0.56509 0.0
H142 H 0.48352 0.41916 0.51156 0.0
H143 H 0.46883 0.41359 0.46527 0.0
H144 H 0.42744 0.42968 0.49741 0.0
H145 H 0.40906 0.50191 0.4614 0.0
H146 H 0.44955 0.48541 0.42864 0.0
H147 H 0.45291 0.5398 0.4497 0.0
H148 H 0.60296 0.54553 0.5203 0.0
H149 H 0.64637 0.51936 0.46811 0.0
H150 H 0.52939 0.4552 0.42583 0.0
C151 C 0.43177 0.51578 0.53932 0.0
C152 C 0.43552 0.54058 0.57123 0.0
C153 C 0.4764 0.56094 0.57974 0.0
C154 C 0.51353 0.55494 0.55788 0.0
C155 C 0.50929 0.52868 0.52742 0.0
C156 C 0.46924 0.5102 0.51773 0.0
C157 C 0.47363 0.48333 0.48365 0.0
C158 C 0.46271 0.43349 0.48987 0.0
C159 C 0.44458 0.50385 0.4541 0.0
C160 C 0.52233 0.4894 0.47588 0.0
C161 C 0.54251 0.51531 0.50156 0.0
C162 C 0.58747 0.52535 0.49991 0.0
C163 C 0.61201 0.50996 0.47043 0.0
C164 C 0.59131 0.48519 0.44304 0.0
C165 C 0.54619 0.47398 0.44642 0.0
H166 H 0.4378 0.98708 0.08638 0.0
H167 H 0.51728 0.87681 0.04464 0.0
H168 H 0.53572 0.92288 0.99185 0.0
H169 H 0.39495 0.02628 0.0008 0.0
H170 H 0.39662 0.08447 0.0143 0.0
H171 H 0.38801 0.04115 0.04703 0.0
H172 H 0.45512 0.07065 0.08276 0.0
H173 H 0.46461 0.11334 0.0497 0.0
H174 H 0.50826 0.07433 0.0613 0.0
H175 H 0.5494 0.9843 0.94531 0.0
H176 H 0.54908 0.0515 0.90609 0.0
H177 H 0.46095 0.11989 0.97998 0.0
C178 C 0.4584 0.97222 0.06585 0.0
C179 C 0.47602 0.92836 0.06956 0.0
C180 C 0.50309 0.91027 0.04218 0.0
C181 C 0.51404 0.9363 0.01225 0.0
C182 C 0.4974 0.98016 0.0101 0.0
C183 C 0.46952 0.99759 0.03594 0.0
C184 C 0.45621 0.0456 0.02782 0.0
C185 C 0.40597 0.04959 0.02214 0.0
C186 C 0.47201 0.07786 0.05714 0.0
C187 C 0.4812 0.05276 0.99352 0.0
C188 C 0.50502 0.01488 0.98365 0.0
C189 C 0.53066 0.01407 0.95274 0.0
C190 C 0.53067 0.0525 0.93081 0.0
C191 C 0.50497 0.09091 0.93993 0.0
C192 C 0.48085 0.09106 0.97213 0.0
H193 H 0.90202 0.02321 0.45356 0.0
H194 H 0.98641 0.10095 0.38384 0.0
H195 H 0.04791 0.09235 0.42635 0.0
H196 H 0.94974 0.06579 0.53888 0.0
H197 H 0.94435 0.01171 0.5601 0.0
H198 H 0.90569 0.02873 0.52607 0.0
H199 H 0.9241 0.95579 0.49103 0.0
H200 H 0.96365 0.93912 0.52442 0.0
H201 H 0.98056 0.94393 0.47856 0.0
H202 H 0.10294 0.06749 0.47271 0.0
H203 H 0.14442 0.03745 0.52447 0.0
H204 H 0.02422 0.9769 0.56431 0.0
C205 C 0.93293 0.03979 0.44786 0.0
C206 C 0.9393 0.06292 0.41543 0.0
C207 C 0.98066 0.08323 0.40859 0.0
C208 C 0.01593 0.07834 0.43249 0.0
C209 C 0.00931 0.05337 0.46333 0.0
C210 C 0.96859 0.03529 0.47153 0.0
C211 C 0.97081 0.00857 0.50586 0.0
C212 C 0.94088 0.02999 0.53442 0.0
C213 C 0.95909 0.95892 0.49956 0.0
C214 C 0.01925 0.01365 0.51516 0.0
C215 C 0.04094 0.0395 0.49026 0.0
C216 C 0.08619 0.04766 0.49266 0.0
C217 C 0.10959 0.03011 0.52192 0.0
C218 C 0.08762 0.00488 0.5484 0.0
C219 C 0.04199 0.99613 0.54454 0.0
H220 H 0.15363 0.72797 0.15171 0.0
H221 H 0.20893 0.60424 0.19437 0.0
H222 H 0.28397 0.63609 0.1902 0.0
H223 H 0.2491 0.75961 0.09275 0.0
H224 H 0.24356 0.81842 0.10388 0.0
H225 H 0.19546 0.78307 0.10308 0.0
H226 H 0.17729 0.80627 0.16796 0.0
H227 H 0.22528 0.84145 0.16904 0.0
H228 H 0.21842 0.79816 0.20216 0.0
H229 H 0.35068 0.68293 0.1879 0.0
H230 H 0.40516 0.74382 0.19227 0.0
H231 H 0.30733 0.84029 0.15504 0.0
C232 C 0.18186 0.70719 0.15887 0.0
C233 C 0.17603 0.66331 0.17248 0.0
C234 C 0.21314 0.6376 0.18329 0.0
C235 C 0.25575 0.65538 0.18089 0.0
C236 C 0.26047 0.69915 0.16809 0.0
C237 C 0.22458 0.72493 0.15745 0.0
C238 C 0.23815 0.77302 0.14951 0.0
C239 C 0.23115 0.78418 0.10995 0.0
C240 C 0.21332 0.80669 0.17362 0.0
C241 C 0.28696 0.77065 0.15862 0.0
C242 C 0.29917 0.72731 0.16833 0.0
C243 C 0.34171 0.71677 0.17984 0.0
C244 C 0.37236 0.7515 0.18225 0.0
C245 C 0.36035 0.79627 0.17355 0.0
C246 C 0.31736 0.80604 0.16106 0.0
H247 H 0.31763 0.68725 0.63525 0.0
H248 H 0.21059 0.60091 0.66812 0.0
H249 H 0.15653 0.6608 0.65395 0.0
H250 H 0.27803 0.78196 0.67556 0.0
H251 H 0.29478 0.82171 0.64202 0.0
H252 H 0.32408 0.7692 0.64667 0.0
H253 H 0.30936 0.75136 0.58017 0.0
H254 H 0.27958 0.80392 0.57545 0.0
H255 H 0.25345 0.75175 0.56362 0.0
H256 H 0.11629 0.73188 0.64819 0.0
H257 H 0.09271 0.81138 0.65325 0.0
H258 H 0.22368 0.85394 0.6226 0.0
C259 C 0.28267 0.6808 0.63818 0.0
C260 C 0.26788 0.63969 0.65233 0.0
C261 C 0.22219 0.63237 0.65708 0.0
C262 C 0.1913 0.66598 0.64883 0.0
C263 C 0.20665 0.70678 0.63578 0.0
C264 C 0.25122 0.71447 0.63037 0.0
C265 C 0.25914 0.76341 0.62109 0.0
C266 C 0.29085 0.78534 0.64795 0.0
C267 C 0.27641 0.76786 0.5828 0.0
C268 C 0.21256 0.78236 0.62436 0.0
C269 C 0.18267 0.74878 0.63196 0.0
C270 C 0.13892 0.75838 0.64106 0.0
C271 C 0.12573 0.80352 0.64382 0.0
C272 C 0.15608 0.83831 0.63721 0.0
C273 C 0.1995 0.82767 0.62614 0.0
H274 H 0.66336 0.21977 0.90398 0.0
H275 H 0.64369 0.20034 0.79066 0.0
H276 H 0.71167 0.24289 0.77821 0.0
H277 H 0.70794 0.32958 0.90159 0.0
H278 H 0.7495 0.31972 0.93515 0.0
H279 H 0.69903 0.28805 0.93579 0.0
H280 H 0.74339 0.21299 0.93409 0.0
H281 H 0.79394 0.24444 0.93462 0.0
H282 H 0.78409 0.20416 0.89968 0.0
H283 H 0.77736 0.29378 0.77794 0.0
H284 H 0.84852 0.33092 0.78952 0.0
H285 H 0.83097 0.30995 0.90291 0.0
C286 C 0.674 0.22375 0.87663 0.0
C287 C 0.64851 0.20676 0.84824 0.0
C288 C 0.66317 0.2126 0.81277 0.0
C289 C 0.70134 0.23729 0.80543 0.0
C290 C 0.72497 0.25498 0.83392 0.0
C291 C 0.71291 0.24705 0.86885 0.0
C292 C 0.74607 0.26706 0.8945 0.0
C293 C 0.72431 0.30325 0.91815 0.0
C294 C 0.76819 0.22995 0.91704 0.0
C295 C 0.77837 0.2878 0.86851 0.0
C296 C 0.7648 0.28157 0.83374 0.0
C297 C 0.78861 0.29848 0.80503 0.0
C298 C 0.82868 0.32012 0.8119 0.0
C299 C 0.84503 0.32351 0.8471 0.0
C300 C 0.81894 0.30819 0.87578 0.0
H301 H 0.71377 0.34739 0.36226 0.0
H302 H 0.59614 0.30908 0.30432 0.0
H303 H 0.62443 0.23124 0.29994 0.0
H304 H 0.78572 0.29253 0.31037 0.0
H305 H 0.82397 0.27334 0.34402 0.0
H306 H 0.79066 0.32279 0.35179 0.0
H307 H 0.75908 0.28803 0.40948 0.0
H308 H 0.79326 0.23875 0.40253 0.0
H309 H 0.73441 0.23308 0.40803 0.0
H310 H 0.67073 0.16503 0.28957 0.0
H311 H 0.72973 0.10907 0.27967 0.0
H312 H 0.81918 0.18735 0.34478 0.0
C313 C 0.69301 0.32191 0.35047 0.0
C314 C 0.65245 0.33377 0.33415 0.0
C315 C 0.62696 0.30029 0.31738 0.0
C316 C 0.64282 0.25608 0.31474 0.0
C317 C 0.68418 0.24597 0.32909 0.0
C318 C 0.70872 0.27755 0.34729 0.0
C319 C 0.75455 0.25927 0.35597 0.0
C320 C 0.79083 0.28874 0.33954 0.0
C321 C 0.76067 0.25449 0.39641 0.0
C322 C 0.75268 0.21359 0.33804 0.0
C323 C 0.71152 0.20667 0.32309 0.0
C324 C 0.70271 0.16946 0.30191 0.0
C325 C 0.73665 0.13821 0.29604 0.0
C326 C 0.77895 0.14411 0.31136 0.0
C327 C 0.78695 0.18196 0.33309 0.0
H328 H 0.74877 0.52072 0.23575 0.0
H329 H 0.79004 0.49811 0.34503 0.0
H330 H 0.86608 0.52195 0.32889 0.0
H331 H 0.84489 0.47802 0.19449 0.0
H332 H 0.84321 0.51876 0.15895 0.0
H333 H 0.79278 0.50168 0.18014 0.0
H334 H 0.77393 0.58501 0.19501 0.0
H335 H 0.82417 0.6024 0.17364 0.0
H336 H 0.81336 0.61834 0.21916 0.0
H337 H 0.93956 0.54663 0.29794 0.0
H338 H 0.9994 0.57123 0.25706 0.0
H339 H 0.90535 0.57543 0.16999 0.0
C340 C 0.77353 0.52061 0.25657 0.0
C341 C 0.76343 0.50713 0.29165 0.0
C342 C 0.79702 0.50826 0.31793 0.0
C343 C 0.84026 0.52164 0.30896 0.0
C344 C 0.84904 0.53393 0.27372 0.0
C345 C 0.81621 0.53365 0.24816 0.0
C346 C 0.83301 0.54757 0.2121 0.0
C347 C 0.82819 0.50922 0.18483 0.0
C348 C 0.80974 0.59091 0.19924 0.0
C349 C 0.88075 0.55575 0.22098 0.0
C350 C 0.88987 0.54782 0.25652 0.0
C351 C 0.93253 0.55299 0.27013 0.0
C352 C 0.96631 0.5668 0.24677 0.0
C353 C 0.95697 0.57524 0.2104 0.0
C354 C 0.91365 0.56943 0.19766 0.0
H355 H 0.43767 0.4771 0.7453 0.0
H356 H 0.33771 0.40263 0.68876 0.0
H357 H 0.34277 0.3414 0.7329 0.0
H358 H 0.5054 0.38523 0.75399 0.0
H359 H 0.52826 0.39951 0.79681 0.0
H360 H 0.50767 0.4432 0.76806 0.0
H361 H 0.45523 0.47107 0.81821 0.0
H362 H 0.47566 0.4271 0.84714 0.0
H363 H 0.41727 0.43228 0.83842 0.0
H364 H 0.36454 0.28504 0.77718 0.0
H365 H 0.40995 0.23146 0.81164 0.0
H366 H 0.50388 0.33649 0.83454 0.0
C367 C 0.41583 0.44855 0.74332 0.0
C368 C 0.38562 0.44505 0.71501 0.0
C369 C 0.35936 0.40634 0.71146 0.0
C370 C 0.36209 0.37156 0.73636 0.0
C371 C 0.39252 0.37543 0.76394 0.0
C372 C 0.41972 0.41246 0.76715 0.0
C373 C 0.45591 0.4039 0.79425 0.0
C374 C 0.50201 0.40819 0.77725 0.0
C375 C 0.45069 0.43547 0.82642 0.0
C376 C 0.446 0.35569 0.80437 0.0
C377 C 0.40811 0.34074 0.78777 0.0
C378 C 0.39377 0.29651 0.79092 0.0
C379 C 0.41964 0.2663 0.81063 0.0
C380 C 0.45966 0.28035 0.82612 0.0
C381 C 0.47265 0.32561 0.82356 0.0
H382 H 0.59948 0.87354 0.20428 0.0
H383 H 0.51048 0.96435 0.25974 0.0
H384 H 0.56909 0.97928 0.30455 0.0
H385 H 0.65909 0.83039 0.28667 0.0
H386 H 0.71086 0.82739 0.26302 0.0
H387 H 0.65985 0.81696 0.23989 0.0
H388 H 0.67759 0.87884 0.19374 0.0
H389 H 0.72907 0.88872 0.21578 0.0
H390 H 0.69064 0.9347 0.20905 0.0
H391 H 0.64232 0.99518 0.33521 0.0
H392 H 0.72095 0.01225 0.34642 0.0
H393 H 0.75995 0.90754 0.27242 0.0
C394 C 0.59199 0.8957 0.22642 0.0
C395 C 0.55087 0.91814 0.22863 0.0
C396 C 0.54193 0.94683 0.25781 0.0
C397 C 0.57493 0.95521 0.28339 0.0
C398 C 0.61589 0.93339 0.27985 0.0
C399 C 0.62403 0.90353 0.25229 0.0
C400 C 0.6717 0.88799 0.25165 0.0
C401 C 0.67556 0.8377 0.26087 0.0
C402 C 0.69349 0.89824 0.21544 0.0
C403 C 0.69027 0.91662 0.2812 0.0
C404 C 0.65754 0.94164 0.29802 0.0
C405 C 0.66795 0.97474 0.32301 0.0
C406 C 0.71276 0.984 0.3295 0.0
C407 C 0.74635 0.96069 0.31058 0.0
C408 C 0.73481 0.92507 0.28775 0.0
H409 H 0.02294 0.24862 0.77133 0.0
H410 H 0.01829 0.17695 0.87164 0.0
H411 H 0.056 0.11127 0.84334 0.0
H412 H 0.99949 0.16128 0.71577 0.0
H413 H 0.0369 0.17718 0.68071 0.0
H414 H 0.01451 0.21942 0.71002 0.0
H415 H 0.09343 0.24476 0.72663 0.0
H416 H 0.1165 0.20275 0.69725 0.0
H417 H 0.13279 0.2041 0.7434 0.0
H418 H 0.08356 0.05027 0.8008 0.0
H419 H 0.10562 0.00202 0.74983 0.0
H420 H 0.09625 0.11747 0.67948 0.0
C421 C 0.03069 0.21936 0.78747 0.0
C422 C 0.01778 0.21717 0.82339 0.0
C423 C 0.02831 0.17881 0.844 0.0
C424 C 0.04959 0.14159 0.82815 0.0
C425 C 0.06095 0.14435 0.79216 0.0
C426 C 0.05272 0.18279 0.77239 0.0
C427 C 0.06647 0.17723 0.73403 0.0
C428 C 0.02698 0.18416 0.70867 0.0
C429 C 0.10457 0.20908 0.7248 0.0
C430 C 0.08176 0.12878 0.73468 0.0
C431 C 0.07857 0.11025 0.76837 0.0
C432 C 0.08716 0.06469 0.77451 0.0
C433 C 0.09935 0.03752 0.74544 0.0
C434 C 0.1029 0.05624 0.71091 0.0
C435 C 0.09448 0.10245 0.70572 0.0
H436 H 0.13155 0.30894 0.777 0.0
H437 H 0.02229 0.40177 0.75924 0.0
H438 H 0.0635 0.43625 0.7095 0.0
H439 H 0.21168 0.38433 0.77083 0.0
H440 H 0.25178 0.34816 0.74938 0.0
H441 H 0.20921 0.32408 0.77619 0.0
H442 H 0.18554 0.27485 0.72271 0.0
H443 H 0.22754 0.29981 0.69521 0.0
H444 H 0.17059 0.3011 0.6811 0.0
H445 H 0.12235 0.47065 0.6712 0.0
H446 H 0.19324 0.50433 0.65296 0.0
H447 H 0.26355 0.38961 0.69634 0.0
C448 C 0.11564 0.33574 0.76208 0.0
C449 C 0.07372 0.35276 0.77216 0.0
C450 C 0.05427 0.38797 0.75195 0.0
C451 C 0.07739 0.40759 0.72348 0.0
C452 C 0.11956 0.39111 0.71519 0.0
C453 C 0.13827 0.35564 0.73388 0.0
C454 C 0.18628 0.34849 0.72401 0.0
C455 C 0.21646 0.35152 0.75704 0.0
C456 C 0.19285 0.30339 0.70459 0.0
C457 C 0.19281 0.3877 0.69893 0.0
C458 C 0.15363 0.41096 0.69299 0.0
C459 C 0.15288 0.45189 0.67466 0.0
C460 C 0.19326 0.47065 0.66404 0.0
C461 C 0.23364 0.44878 0.67229 0.0
C462 C 0.2331 0.40596 0.68834 0.0
H463 H 0.54203 0.55596 0.28323 0.0
H464 H 0.68146 0.58564 0.28957 0.0
H465 H 0.67065 0.65089 0.24955 0.0
H466 H 0.52046 0.60207 0.1898 0.0
H467 H 0.46812 0.6256 0.20371 0.0
H468 H 0.48851 0.57421 0.22363 0.0
H469 H 0.48107 0.61026 0.28626 0.0
H470 H 0.46088 0.66149 0.26659 0.0
H471 H 0.50856 0.66261 0.29534 0.0
H472 H 0.64332 0.71895 0.21779 0.0
H473 H 0.60068 0.78773 0.20176 0.0
H474 H 0.47858 0.71742 0.22128 0.0
C475 C 0.57035 0.57522 0.27474 0.0
C476 C 0.61261 0.56571 0.28835 0.0
C477 C 0.64898 0.59239 0.27855 0.0
C478 C 0.64316 0.62922 0.25574 0.0
C479 C 0.60065 0.63898 0.24351 0.0
C480 C 0.56476 0.61282 0.25281 0.0
C481 C 0.52167 0.63507 0.24205 0.0
C482 C 0.49832 0.6076 0.21306 0.0
C483 C 0.49132 0.64283 0.27449 0.0
C484 C 0.53874 0.67888 0.22726 0.0
C485 C 0.58442 0.67982 0.22699 0.0
C486 C 0.60759 0.71829 0.21716 0.0
C487 C 0.58333 0.75712 0.20826 0.0
C488 C 0.53683 0.75708 0.21031 0.0
C489 C 0.51427 0.71748 0.21907 0.0
H490 H 0.40652 0.05953 0.82105 0.0
H491 H 0.4472 0.16014 0.74495 0.0
H492 H 0.40172 0.12354 0.69837 0.0
H493 H 0.39643 0.96231 0.7544 0.0
H494 H 0.34918 0.94124 0.77812 0.0
H495 H 0.39287 0.96891 0.80203 0.0
H496 H 0.33549 0.02462 0.82891 0.0
H497 H 0.29191 0.99775 0.80485 0.0
H498 H 0.30068 0.05729 0.79948 0.0
H499 H 0.33937 0.08534 0.66474 0.0
H500 H 0.26979 0.04802 0.64717 0.0
H501 H 0.27296 0.9713 0.74542 0.0
C502 C 0.40739 0.07241 0.79407 0.0
C503 C 0.4307 0.11186 0.78611 0.0
C504 C 0.43026 0.12912 0.75106 0.0
C505 C 0.40443 0.10862 0.72457 0.0
C506 C 0.38013 0.07054 0.73363 0.0
C507 C 0.38233 0.05204 0.76745 0.0
C508 C 0.34951 0.0145 0.77203 0.0
C509 C 0.37344 0.96904 0.77692 0.0
C510 C 0.31753 0.02417 0.80312 0.0
C511 C 0.32625 0.01676 0.73649 0.0
C512 C 0.34473 0.04853 0.71427 0.0
C513 C 0.32541 0.05956 0.68157 0.0
C514 C 0.28584 0.03824 0.67179 0.0
C515 C 0.26585 0.00675 0.6949 0.0
C516 C 0.28736 0.99508 0.72702 0.0
H517 H 0.96884 0.7312 0.26382 0.0
H518 H 0.99849 0.76982 0.15502 0.0
H519 H 0.96872 0.84632 0.16714 0.0
H520 H 0.86701 0.79914 0.27355 0.0
H521 H 0.87942 0.81191 0.31937 0.0
H522 H 0.89773 0.7593 0.30027 0.0
H523 H 0.97829 0.77727 0.31864 0.0
H524 H 0.96037 0.83001 0.33743 0.0
H525 H 0.0029 0.82903 0.30382 0.0
H526 H 0.94158 0.92112 0.19382 0.0
H527 H 0.91928 0.98565 0.2321 0.0
H528 H 0.91021 0.89558 0.32263 0.0
C529 C 0.96855 0.75541 0.24226 0.0
C530 C 0.98613 0.74459 0.20851 0.0
C531 C 0.98497 0.77733 0.18107 0.0
C532 C 0.96817 0.82084 0.18772 0.0
C533 C 0.9523 0.83069 0.22177 0.0
C534 C 0.95203 0.79859 0.24841 0.0
C535 C 0.93596 0.81776 0.28333 0.0
C536 C 0.89244 0.79572 0.29479 0.0
C537 C 0.97151 0.81326 0.3125 0.0
C538 C 0.9287 0.86617 0.27266 0.0
C539 C 0.93754 0.87314 0.23699 0.0
C540 C 0.93423 0.91588 0.22171 0.0
C541 C 0.92171 0.95229 0.24359 0.0
C542 C 0.91337 0.94552 0.28028 0.0
C543 C 0.91661 0.90186 0.2947 0.0
loop_
_geom_bond_atom_site_label_1
_geom_bond_atom_site_label_2
_geom_bond_distance
_geom_bond_site_symmetry_2
_ccdc_geom_bond_type
Co0 O1 2.216 . S
Co0 O2 2.091 . S
Co0 O4 2.004 1_455 S
Co0 O10 2.021 . S
Co0 O12 2.137 1_455 S
Co0 O13 2.244 . S
O1 Co0 2.216 . S
O1 C8 1.247 . S
O2 Co0 2.091 . S
O2 C8 1.261 . S
C3 O12 1.247 . S
C3 O13 1.272 1_655 S
O4 Co0 2.004 1_655 S
O4 C9 1.259 . S
Co5 O6 2.061 . S
Co5 O11 2.052 . S
Co5 O13 2.135 . S
O6 Co5 2.061 . S
O6 C9 1.235 1_455 S
C7 O10 1.238 . S
C7 O11 1.241 . S
C8 O1 1.247 . S
C8 O2 1.261 . S
C9 O4 1.259 . S
C9 O6 1.235 1_655 S
O10 Co0 2.021 . S
O10 C7 1.238 . S
O11 Co5 2.052 . S
O11 C7 1.241 . S
O12 Co0 2.137 1_655 S
O12 C3 1.247 . S
O13 Co0 2.244 . S
O13 C3 1.272 1_455 S
O13 Co5 2.135 . S
Co14 O15 2.216 . S
Co14 O16 2.091 . S
Co14 O18 2.004 . S
Co14 O24 2.021 . S
Co14 O26 2.137 . S
Co14 O27 2.244 . S
O15 Co14 2.216 . S
O15 C22 1.247 . S
O16 Co14 2.091 . S
O16 C22 1.261 . S
C17 O26 1.247 . S
C17 O27 1.272 . S
O18 Co14 2.004 . S
O18 C23 1.259 . S
Co19 O20 2.061 . S
Co19 O25 2.052 . S
Co19 O27 2.135 . S
O20 Co19 2.061 . S
O20 C23 1.235 . S
C21 O24 1.238 . S
C21 O25 1.241 . S
C22 O15 1.247 . S
C22 O16 1.261 . S
C23 O18 1.259 . S
C23 O20 1.235 . S
O24 Co14 2.021 . S
O24 C21 1.238 . S
O25 Co19 2.052 . S
O25 C21 1.241 . S
O26 Co14 2.137 . S
O26 C17 1.247 . S
O27 Co14 2.244 . S
O27 C17 1.272 . S
O27 Co19 2.135 . S
Co28 O29 2.216 . S
Co28 O30 2.091 . S
Co28 O32 2.004 . S
Co28 O38 2.021 . S
Co28 O40 2.137 . S
Co28 O41 2.244 . S
O29 Co28 2.216 . S
O29 C36 1.247 . S
O30 Co28 2.091 . S
O30 C36 1.261 . S
C31 O40 1.247 . S
C31 O41 1.272 . S
O32 Co28 2.004 . S
O32 C37 1.259 . S
Co33 O34 2.061 . S
Co33 O39 2.052 . S
Co33 O41 2.135 . S
O34 Co33 2.061 . S
O34 C37 1.235 . S
C35 O38 1.238 . S
C35 O39 1.241 . S
C36 O29 1.247 . S
C36 O30 1.261 . S
C37 O32 1.259 . S
C37 O34 1.235 . S
O38 Co28 2.021 . S
O38 C35 1.238 . S
O39 Co33 2.052 . S
O39 C35 1.241 . S
O40 Co28 2.137 . S
O40 C31 1.247 . S
O41 Co28 2.244 . S
O41 C31 1.272 . S
O41 Co33 2.135 . S
Co42 O43 2.216 . S
Co42 O44 2.091 . S
Co42 O46 2.004 1_565 S
Co42 O52 2.021 . S
Co42 O54 2.137 1_565 S
Co42 O55 2.244 . S
O43 Co42 2.216 . S
O43 C50 1.247 . S
O44 Co42 2.091 . S
O44 C50 1.263 . S
C45 O54 1.247 . S
C45 O55 1.272 1_545 S
O46 Co42 2.004 1_545 S
O46 C51 1.259 . S
Co47 O48 2.061 . S
Co47 O53 2.052 . S
Co47 O55 2.135 . S
O48 Co47 2.061 . S
O48 C51 1.235 1_565 S
C49 O52 1.238 . S
C49 O53 1.241 . S
C50 O43 1.247 . S
C50 O44 1.263 . S
C51 O46 1.259 . S
C51 O48 1.235 1_545 S
O52 Co42 2.021 . S
O52 C49 1.238 . S
O53 Co47 2.052 . S
O53 C49 1.241 . S
O54 Co42 2.137 1_545 S
O54 C45 1.247 . S
O55 Co42 2.244 . S
O55 C45 1.272 1_565 S
O55 Co47 2.135 . S
Co56 O57 2.216 . S
Co56 O58 2.091 . S
Co56 O60 2.004 1_655 S
Co56 O66 2.021 . S
Co56 O68 2.137 . S
Co56 O69 2.244 1_655 S
O57 Co56 2.216 . S
O57 C64 1.247 . S
O58 Co56 2.091 . S
O58 C64 1.261 . S
C59 O68 1.247 1_455 S
C59 O69 1.272 . S
O60 Co56 2.004 1_455 S
O60 C65 1.259 . S
Co61 O62 2.061 . S
Co61 O67 2.052 . S
Co61 O69 2.135 . S
O62 Co61 2.061 . S
O62 C65 1.235 . S
C63 O66 1.238 . S
C63 O67 1.241 1_655 S
C64 O57 1.247 . S
C64 O58 1.261 . S
C65 O60 1.259 . S
C65 O62 1.235 . S
O66 Co56 2.021 . S
O66 C63 1.238 . S
O67 Co61 2.052 . S
O67 C63 1.241 1_455 S
O68 Co56 2.137 . S
O68 C59 1.247 1_655 S
O69 Co56 2.244 1_455 S
O69 C59 1.272 . S
O69 Co61 2.135 . S
Co70 O71 2.216 . S
Co70 O72 2.091 . S
Co70 O74 2.004 . S
Co70 O80 2.021 . S
Co70 O82 2.137 . S
Co70 O83 2.244 . S
O71 Co70 2.216 . S
O71 C78 1.247 . S
O72 Co70 2.091 . S
O72 C78 1.261 . S
C73 O82 1.247 . S
C73 O83 1.272 . S
O74 Co70 2.004 . S
O74 C79 1.259 . S
Co75 O76 2.061 . S
Co75 O81 2.052 . S
Co75 O83 2.135 . S
O76 Co75 2.061 . S
O76 C79 1.235 . S
C77 O80 1.238 . S
C77 O81 1.241 . S
C78 O71 1.247 . S
C78 O72 1.261 . S
C79 O74 1.259 . S
C79 O76 1.235 . S
O80 Co70 2.021 . S
O80 C77 1.238 . S
O81 Co75 2.052 . S
O81 C77 1.241 . S
O82 Co70 2.137 . S
O82 C73 1.247 . S
O83 Co70 2.244 . S
O83 C73 1.272 . S
O83 Co75 2.135 . S
Co84 O85 2.216 . S
Co84 O86 2.091 . S
Co84 O88 2.004 . S
Co84 O94 2.021 . S
Co84 O96 2.137 . S
Co84 O97 2.244 . S
O85 Co84 2.216 . S
O85 C92 1.247 . S
O86 Co84 2.091 . S
O86 C92 1.261 . S
C87 O96 1.247 . S
C87 O97 1.272 . S
O88 Co84 2.004 . S
O88 C93 1.259 . S
Co89 O90 2.061 . S
Co89 O95 2.052 . S
Co89 O97 2.135 . S
O90 Co89 2.061 . S
O90 C93 1.235 . S
C91 O94 1.238 . S
C91 O95 1.241 . S
C92 O85 1.247 . S
C92 O86 1.261 . S
C93 O88 1.259 . S
C93 O90 1.235 . S
O94 Co84 2.021 . S
O94 C91 1.238 . S
O95 Co89 2.052 . S
O95 C91 1.241 . S
O96 Co84 2.137 . S
O96 C87 1.247 . S
O97 Co84 2.244 . S
O97 C87 1.272 . S
O97 Co89 2.135 . S
Co98 O99 2.216 . S
Co98 O100 2.091 1_545 S
Co98 O102 2.004 1_545 S
Co98 O108 2.021 . S
Co98 O110 2.137 1_545 S
Co98 O111 2.244 . S
O99 Co98 2.216 . S
O99 C106 1.247 . S
O100 Co98 2.091 1_565 S
O100 C106 1.261 1_565 S
C101 O110 1.247 . S
C101 O111 1.272 1_565 S
O102 Co98 2.004 1_565 S
O102 C107 1.259 . S
Co103 O104 2.061 . S
Co103 O109 2.052 . S
Co103 O111 2.135 . S
O104 Co103 2.061 . S
O104 C107 1.235 1_545 S
C105 O108 1.238 . S
C105 O109 1.241 . S
C106 O99 1.247 . S
C106 O100 1.261 1_545 S
C107 O102 1.259 . S
C107 O104 1.235 1_565 S
O108 Co98 2.021 . S
O108 C105 1.238 . S
O109 Co103 2.052 . S
O109 C105 1.241 . S
O110 Co98 2.137 1_565 S
O110 C101 1.247 . S
O111 Co98 2.244 . S
O111 C101 1.272 1_545 S
O111 Co103 2.135 . S
H112 C124 0.930 . S
H113 C126 0.930 . S
H114 C127 0.930 . S
H115 C131 0.959 1_655 S
H116 C131 0.959 . S
H117 C131 0.961 . S
H118 C132 0.960 . S
H119 C132 0.961 . S
H120 C132 0.968 . S
H121 C135 0.929 . S
H122 C136 0.931 . S
H123 C138 0.930 . S
C124 H112 0.930 . S
C124 C125 1.399 1_455 S
C124 C129 1.399 . S
C125 C124 1.399 1_655 S
C125 C126 1.376 . S
C126 H113 0.930 . S
C126 C125 1.376 . S
C126 C127 1.388 . S
C127 H114 0.930 . S
C127 C126 1.388 . S
C127 C128 1.390 . S
C128 C127 1.390 . S
C128 C129 1.394 1_655 S
C128 C134 1.465 1_655 S
C129 C124 1.399 . S
C129 C128 1.394 1_455 S
C129 C130 1.516 1_556 S
C130 C129 1.516 1_554 S
C130 C131 1.502 . S
C130 C132 1.561 . S
C130 C133 1.526 . S
C131 H115 0.959 1_455 S
C131 H116 0.959 . S
C131 H117 0.961 . S
C131 C130 1.502 . S
C132 H118 0.960 . S
C132 H119 0.961 . S
C132 H120 0.968 . S
C132 C130 1.561 . S
C133 C130 1.526 . S
C133 C134 1.396 1_554 S
C133 C138 1.390 . S
C134 C128 1.465 1_455 S
C134 C133 1.396 1_556 S
C134 C135 1.399 1_455 S
C135 H121 0.929 . S
C135 C134 1.399 1_655 S
C135 C136 1.385 1_556 S
C136 H122 0.931 . S
C136 C135 1.385 1_554 S
C136 C137 1.389 1_655 S
C137 C136 1.389 1_455 S
C137 C138 1.387 . S
C138 H123 0.930 . S
C138 C133 1.390 . S
C138 C137 1.387 . S
H139 C151 0.930 . S
H140 C153 0.930 . S
H141 C154 0.930 . S
H142 C158 0.959 . S
H143 C158 0.959 . S
H144 C158 0.961 . S
H145 C159 0.960 . S
H146 C159 0.961 . S
H147 C159 0.959 . S
H148 C162 0.929 . S
H149 C163 0.931 . S
H150 C165 0.930 . S
C151 H139 0.930 . S
C151 C152 1.399 . S
C151 C156 1.399 . S
C152 C151 1.399 . S
C152 C153 1.376 . S
C153 H140 0.930 . S
C153 C152 1.376 . S
C153 C154 1.388 . S
C154 H141 0.930 . S
C154 C153 1.388 . S
C154 C155 1.390 . S
C155 C154 1.390 . S
C155 C156 1.394 . S
C155 C161 1.465 . S
C156 C151 1.399 . S
C156 C155 1.394 . S
C156 C157 1.516 . S
C157 C156 1.516 . S
C157 C158 1.502 . S
C157 C159 1.561 . S
C157 C160 1.526 . S
C158 H142 0.959 . S
C158 H143 0.959 . S
C158 H144 0.961 . S
C158 C157 1.502 . S
C159 H145 0.960 . S
C159 H146 0.961 . S
C159 H147 0.959 . S
C159 C157 1.561 . S
C160 C157 1.526 . S
C160 C161 1.396 . S
C160 C165 1.390 . S
C161 C155 1.465 . S
C161 C160 1.396 . S
C161 C162 1.399 . S
C162 H148 0.929 . S
C162 C161 1.399 . S
C162 C163 1.385 . S
C163 H149 0.931 . S
C163 C162 1.385 . S
C163 C164 1.389 . S
C164 C163 1.389 . S
C164 C165 1.387 . S
C165 H150 0.930 . S
C165 C160 1.390 . S
C165 C164 1.387 . S
H166 C178 0.930 . S
H167 C180 0.930 . S
H168 C181 0.930 . S
H169 C185 0.959 . S
H170 C185 0.959 . S
H171 C185 0.961 . S
H172 C186 0.960 . S
H173 C186 0.961 . S
H174 C186 0.959 . S
H175 C189 0.929 1_565 S
H176 C190 0.931 . S
H177 C192 0.930 . S
C178 H166 0.930 . S
C178 C179 1.399 . S
C178 C183 1.399 . S
C179 C178 1.399 . S
C179 C180 1.376 . S
C180 H167 0.930 . S
C180 C179 1.376 . S
C180 C181 1.388 1_554 S
C181 H168 0.930 . S
C181 C180 1.388 1_556 S
C181 C182 1.390 . S
C182 C181 1.390 . S
C182 C183 1.394 1_556 S
C182 C188 1.465 1_565 S
C183 C178 1.399 . S
C183 C182 1.394 1_554 S
C183 C184 1.516 1_565 S
C184 C183 1.516 1_545 S
C184 C185 1.502 . S
C184 C186 1.561 . S
C184 C187 1.526 1_554 S
C185 H169 0.959 . S
C185 H170 0.959 . S
C185 H171 0.961 . S
C185 C184 1.502 . S
C186 H172 0.960 . S
C186 H173 0.961 . S
C186 H174 0.959 . S
C186 C184 1.561 . S
C187 C184 1.526 1_556 S
C187 C188 1.396 . S
C187 C192 1.390 . S
C188 C182 1.465 1_545 S
C188 C187 1.396 . S
C188 C189 1.399 . S
C189 H175 0.929 1_545 S
C189 C188 1.399 . S
C189 C190 1.385 . S
C190 H176 0.931 . S
C190 C189 1.385 . S
C190 C191 1.389 . S
C191 C190 1.389 . S
C191 C192 1.387 . S
C192 H177 0.930 . S
C192 C187 1.390 . S
C192 C191 1.387 . S
H193 C205 0.930 . S
H194 C207 0.930 . S
H195 C208 0.932 . S
H196 C212 0.959 . S
H197 C212 0.959 . S
H198 C212 0.961 . S
H199 C213 0.960 . S
H200 C213 0.961 . S
H201 C213 0.959 1_565 S
H202 C216 0.929 . S
H203 C217 0.931 . S
H204 C219 0.930 . S
C205 H193 0.930 . S
C205 C206 1.399 . S
C205 C210 1.399 . S
C206 C205 1.399 . S
C206 C207 1.376 1_545 S
C207 H194 0.930 . S
C207 C206 1.376 1_565 S
C207 C208 1.388 . S
C208 H195 0.932 . S
C208 C207 1.388 . S
C208 C209 1.390 . S
C209 C208 1.390 . S
C209 C210 1.394 1_565 S
C209 C215 1.465 1_655 S
C210 C205 1.399 . S
C210 C209 1.394 1_545 S
C210 C211 1.516 . S
C211 C210 1.516 . S
C211 C212 1.502 . S
C211 C213 1.561 . S
C211 C214 1.526 1_655 S
C212 H196 0.959 . S
C212 H197 0.959 . S
C212 H198 0.961 . S
C212 C211 1.502 . S
C213 H199 0.960 . S
C213 H200 0.961 . S
C213 H201 0.959 1_545 S
C213 C211 1.561 . S
C214 C211 1.526 1_455 S
C214 C215 1.396 1_545 S
C214 C219 1.390 . S
C215 C209 1.465 1_455 S
C215 C214 1.396 1_565 S
C215 C216 1.399 . S
C216 H202 0.929 . S
C216 C215 1.399 . S
C216 C217 1.385 . S
C217 H203 0.931 . S
C217 C216 1.385 . S
C217 C218 1.389 . S
C218 C217 1.389 . S
C218 C219 1.387 1_565 S
C219 H204 0.930 . S
C219 C214 1.390 . S
C219 C218 1.387 1_545 S
H220 C232 0.930 . S
H221 C234 0.930 . S
H222 C235 0.930 . S
H223 C239 0.959 . S
H224 C239 0.959 . S
H225 C239 0.961 . S
H226 C240 0.960 . S
H227 C240 0.961 . S
H228 C240 0.959 . S
H229 C243 0.929 . S
H230 C244 0.931 . S
H231 C246 0.930 . S
C232 H220 0.930 . S
C232 C233 1.399 . S
C232 C237 1.399 . S
C233 C232 1.399 . S
C233 C234 1.376 . S
C234 H221 0.930 . S
C234 C233 1.376 . S
C234 C235 1.388 . S
C235 H222 0.930 . S
C235 C234 1.388 . S
C235 C236 1.390 . S
C236 C235 1.390 . S
C236 C237 1.394 . S
C236 C242 1.465 . S
C237 C232 1.399 . S
C237 C236 1.394 . S
C237 C238 1.516 . S
C238 C237 1.516 . S
C238 C239 1.502 . S
C238 C240 1.561 . S
C238 C241 1.526 . S
C239 H223 0.959 . S
C239 H224 0.959 . S
C239 H225 0.961 . S
C239 C238 1.502 . S
C240 H226 0.960 . S
C240 H227 0.961 . S
C240 H228 0.959 . S
C240 C238 1.561 . S
C241 C238 1.526 . S
C241 C242 1.396 . S
C241 C246 1.390 . S
C242 C236 1.465 . S
C242 C241 1.396 . S
C242 C243 1.399 . S
C243 H229 0.929 . S
C243 C242 1.399 . S
C243 C244 1.385 . S
C244 H230 0.931 . S
C244 C243 1.385 . S
C244 C245 1.389 . S
C245 C244 1.389 . S
C245 C246 1.387 . S
C246 H231 0.930 . S
C246 C241 1.390 . S
C246 C245 1.387 . S
H247 C259 0.930 . S
H248 C261 0.930 . S
H249 C262 0.930 . S
H250 C266 0.959 . S
H251 C266 0.959 . S
H252 C266 0.961 . S
H253 C267 0.960 . S
H254 C267 0.961 . S
H255 C267 0.959 . S
H256 C270 0.929 . S
H257 C271 0.931 . S
H258 C273 0.930 . S
C259 H247 0.930 . S
C259 C260 1.399 . S
C259 C264 1.399 . S
C260 C259 1.399 . S
C260 C261 1.376 . S
C261 H248 0.930 . S
C261 C260 1.376 . S
C261 C262 1.388 . S
C262 H249 0.930 . S
C262 C261 1.388 . S
C262 C263 1.390 . S
C263 C262 1.390 . S
C263 C264 1.394 . S
C263 C269 1.465 . S
C264 C259 1.399 . S
C264 C263 1.394 . S
C264 C265 1.516 . S
C265 C264 1.516 . S
C265 C266 1.502 . S
C265 C267 1.561 . S
C265 C268 1.526 . S
C266 H250 0.959 . S
C266 H251 0.959 . S
C266 H252 0.961 . S
C266 C265 1.502 . S
C267 H253 0.960 . S
C267 H254 0.961 . S
C267 H255 0.959 . S
C267 C265 1.561 . S
C268 C265 1.526 . S
C268 C269 1.396 . S
C268 C273 1.390 . S
C269 C263 1.465 . S
C269 C268 1.396 . S
C269 C270 1.399 . S
C270 H256 0.929 . S
C270 C269 1.399 . S
C270 C271 1.385 . S
C271 H257 0.931 . S
C271 C270 1.385 . S
C271 C272 1.389 . S
C272 C271 1.389 . S
C272 C273 1.387 . S
C273 H258 0.930 . S
C273 C268 1.390 . S
C273 C272 1.387 . S
H274 C286 0.930 . S
H275 C288 0.930 . S
H276 C289 0.930 . S
H277 C293 0.959 . S
H278 C293 0.959 . S
H279 C293 0.961 . S
H280 C294 0.960 . S
H281 C294 0.961 . S
H282 C294 0.959 . S
H283 C297 0.929 . S
H284 C298 0.931 . S
H285 C300 0.930 . S
C286 H274 0.930 . S
C286 C287 1.399 . S
C286 C291 1.399 . S
C287 C286 1.399 . S
C287 C288 1.376 . S
C288 H275 0.930 . S
C288 C287 1.376 . S
C288 C289 1.388 . S
C289 H276 0.930 . S
C289 C288 1.388 . S
C289 C290 1.390 . S
C290 C289 1.390 . S
C290 C291 1.394 . S
C290 C296 1.465 . S
C291 C286 1.399 . S
C291 C290 1.394 . S
C291 C292 1.516 . S
C292 C291 1.516 . S
C292 C293 1.502 . S
C292 C294 1.561 . S
C292 C295 1.526 . S
C293 H277 0.959 . S
C293 H278 0.959 . S
C293 H279 0.961 . S
C293 C292 1.502 . S
C294 H280 0.960 . S
C294 H281 0.961 . S
C294 H282 0.959 . S
C294 C292 1.561 . S
C295 C292 1.526 . S
C295 C296 1.396 . S
C295 C300 1.390 . S
C296 C290 1.465 . S
C296 C295 1.396 . S
C296 C297 1.399 . S
C297 H283 0.929 . S
C297 C296 1.399 . S
C297 C298 1.385 . S
C298 H284 0.931 . S
C298 C297 1.385 . S
C298 C299 1.389 . S
C299 C298 1.389 . S
C299 C300 1.387 . S
C300 H285 0.930 . S
C300 C295 1.390 . S
C300 C299 1.387 . S
H301 C313 0.930 . S
H302 C315 0.930 . S
H303 C316 0.930 . S
H304 C320 0.959 . S
H305 C320 0.959 . S
H306 C320 0.961 . S
H307 C321 0.960 . S
H308 C321 0.961 . S
H309 C321 0.959 . S
H310 C324 0.929 . S
H311 C325 0.931 . S
H312 C327 0.930 . S
C313 H301 0.930 . S
C313 C314 1.399 . S
C313 C318 1.399 . S
C314 C313 1.399 . S
C314 C315 1.376 . S
C315 H302 0.930 . S
C315 C314 1.376 . S
C315 C316 1.388 . S
C316 H303 0.930 . S
C316 C315 1.388 . S
C316 C317 1.390 . S
C317 C316 1.390 . S
C317 C318 1.394 . S
C317 C323 1.465 . S
C318 C313 1.399 . S
C318 C317 1.394 . S
C318 C319 1.516 . S
C319 C318 1.516 . S
C319 C320 1.502 . S
C319 C321 1.561 . S
C319 C322 1.526 . S
C320 H304 0.959 . S
C320 H305 0.959 . S
C320 H306 0.961 . S
C320 C319 1.502 . S
C321 H307 0.960 . S
C321 H308 0.961 . S
C321 H309 0.959 . S
C321 C319 1.561 . S
C322 C319 1.526 . S
C322 C323 1.396 . S
C322 C327 1.390 . S
C323 C317 1.465 . S
C323 C322 1.396 . S
C323 C324 1.399 . S
C324 H310 0.929 . S
C324 C323 1.399 . S
C324 C325 1.385 . S
C325 H311 0.931 . S
C325 C324 1.385 . S
C325 C326 1.389 . S
C326 C325 1.389 . S
C326 C327 1.387 . S
C327 H312 0.930 . S
C327 C322 1.390 . S
C327 C326 1.387 . S
H328 C340 0.930 . S
H329 C342 0.930 . S
H330 C343 0.930 . S
H331 C347 0.959 . S
H332 C347 0.959 . S
H333 C347 0.961 . S
H334 C348 0.960 . S
H335 C348 0.961 . S
H336 C348 0.959 . S
H337 C351 0.929 . S
H338 C352 0.931 . S
H339 C354 0.930 . S
C340 H328 0.930 . S
C340 C341 1.399 . S
C340 C345 1.399 . S
C341 C340 1.399 . S
C341 C342 1.376 . S
C342 H329 0.930 . S
C342 C341 1.376 . S
C342 C343 1.388 . S
C343 H330 0.930 . S
C343 C342 1.388 . S
C343 C344 1.390 . S
C344 C343 1.390 . S
C344 C345 1.394 . S
C344 C350 1.465 . S
C345 C340 1.399 . S
C345 C344 1.394 . S
C345 C346 1.516 . S
C346 C345 1.516 . S
C346 C347 1.502 . S
C346 C348 1.561 . S
C346 C349 1.526 . S
C347 H331 0.959 . S
C347 H332 0.959 . S
C347 H333 0.961 . S
C347 C346 1.502 . S
C348 H334 0.960 . S
C348 H335 0.961 . S
C348 H336 0.959 . S
C348 C346 1.561 . S
C349 C346 1.526 . S
C349 C350 1.396 . S
C349 C354 1.390 . S
C350 C344 1.465 . S
C350 C349 1.396 . S
C350 C351 1.399 . S
C351 H337 0.929 . S
C351 C350 1.399 . S
C351 C352 1.385 . S
C352 H338 0.931 . S
C352 C351 1.385 . S
C352 C353 1.389 . S
C353 C352 1.389 . S
C353 C354 1.387 . S
C354 H339 0.930 . S
C354 C349 1.390 . S
C354 C353 1.387 . S
H355 C367 0.930 . S
H356 C369 0.930 . S
H357 C370 0.930 . S
H358 C374 0.959 . S
H359 C374 0.959 . S
H360 C374 0.961 . S
H361 C375 0.960 . S
H362 C375 0.961 . S
H363 C375 0.959 . S
H364 C378 0.929 . S
H365 C379 0.931 . S
H366 C381 0.930 . S
C367 H355 0.930 . S
C367 C368 1.399 . S
C367 C372 1.399 . S
C368 C367 1.399 . S
C368 C369 1.376 . S
C369 H356 0.930 . S
C369 C368 1.376 . S
C369 C370 1.388 . S
C370 H357 0.930 . S
C370 C369 1.388 . S
C370 C371 1.390 . S
C371 C370 1.390 . S
C371 C372 1.394 . S
C371 C377 1.465 . S
C372 C367 1.399 . S
C372 C371 1.394 . S
C372 C373 1.516 . S
C373 C372 1.516 . S
C373 C374 1.502 . S
C373 C375 1.561 . S
C373 C376 1.526 . S
C374 H358 0.959 . S
C374 H359 0.959 . S
C374 H360 0.961 . S
C374 C373 1.502 . S
C375 H361 0.960 . S
C375 H362 0.961 . S
C375 H363 0.959 . S
C375 C373 1.561 . S
C376 C373 1.526 . S
C376 C377 1.396 . S
C376 C381 1.390 . S
C377 C371 1.465 . S
C377 C376 1.396 . S
C377 C378 1.399 . S
C378 H364 0.929 . S
C378 C377 1.399 . S
C378 C379 1.385 . S
C379 H365 0.931 . S
C379 C378 1.385 . S
C379 C380 1.389 . S
C380 C379 1.389 . S
C380 C381 1.387 . S
C381 H366 0.930 . S
C381 C376 1.390 . S
C381 C380 1.387 . S
H382 C394 0.930 . S
H383 C396 0.930 . S
H384 C397 0.930 . S
H385 C401 0.959 . S
H386 C401 0.959 . S
H387 C401 0.961 . S
H388 C402 0.960 . S
H389 C402 0.961 . S
H390 C402 0.959 . S
H391 C405 0.929 1_545 S
H392 C406 0.931 1_545 S
H393 C408 0.930 . S
C394 H382 0.930 . S
C394 C395 1.399 . S
C394 C399 1.399 . S
C395 C394 1.399 . S
C395 C396 1.376 . S
C396 H383 0.930 . S
C396 C395 1.376 . S
C396 C397 1.388 . S
C397 H384 0.930 . S
C397 C396 1.388 . S
C397 C398 1.390 . S
C398 C397 1.390 . S
C398 C399 1.394 . S
C398 C404 1.465 . S
C399 C394 1.399 . S
C399 C398 1.394 . S
C399 C400 1.516 . S
C400 C399 1.516 . S
C400 C401 1.502 . S
C400 C402 1.561 . S
C400 C403 1.526 . S
C401 H385 0.959 . S
C401 H386 0.959 . S
C401 H387 0.961 . S
C401 C400 1.502 . S
C402 H388 0.960 . S
C402 H389 0.961 . S
C402 H390 0.959 . S
C402 C400 1.561 . S
C403 C400 1.526 . S
C403 C404 1.396 . S
C403 C408 1.390 . S
C404 C398 1.465 . S
C404 C403 1.396 . S
C404 C405 1.399 . S
C405 H391 0.929 1_565 S
C405 C404 1.399 . S
C405 C406 1.385 . S
C406 H392 0.931 1_565 S
C406 C405 1.385 . S
C406 C407 1.389 . S
C407 C406 1.389 . S
C407 C408 1.387 . S
C408 H393 0.930 . S
C408 C403 1.390 . S
C408 C407 1.387 . S
H409 C421 0.930 1_655 S
H410 C423 0.930 . S
H411 C424 0.930 . S
H412 C428 0.959 . S
H413 C428 0.959 . S
H414 C428 0.961 . S
H415 C429 0.960 . S
H416 C429 0.961 . S
H417 C429 0.959 . S
H418 C432 0.929 . S
H419 C433 0.931 . S
H420 C435 0.930 . S
C421 H409 0.930 1_455 S
C421 C422 1.399 . S
C421 C426 1.399 . S
C422 C421 1.399 . S
C422 C423 1.376 . S
C423 H410 0.930 . S
C423 C422 1.376 . S
C423 C424 1.388 . S
C424 H411 0.930 . S
C424 C423 1.388 . S
C424 C425 1.390 . S
C425 C424 1.390 . S
C425 C426 1.394 . S
C425 C431 1.465 . S
C426 C421 1.399 . S
C426 C425 1.394 . S
C426 C427 1.516 . S
C427 C426 1.516 . S
C427 C428 1.502 1_455 S
C427 C429 1.561 . S
C427 C430 1.526 . S
C428 H412 0.959 . S
C428 H413 0.959 . S
C428 H414 0.961 . S
C428 C427 1.502 1_655 S
C429 H415 0.960 . S
C429 H416 0.961 . S
C429 H417 0.959 . S
C429 C427 1.561 . S
C430 C427 1.526 . S
C430 C431 1.396 . S
C430 C435 1.390 . S
C431 C425 1.465 . S
C431 C430 1.396 . S
C431 C432 1.399 . S
C432 H418 0.929 . S
C432 C431 1.399 . S
C432 C433 1.385 . S
C433 H419 0.931 . S
C433 C432 1.385 . S
C433 C434 1.389 . S
C434 C433 1.389 . S
C434 C435 1.387 . S
C435 H420 0.930 . S
C435 C430 1.390 . S
C435 C434 1.387 . S
H436 C448 0.930 . S
H437 C450 0.930 . S
H438 C451 0.930 . S
H439 C455 0.959 . S
H440 C455 0.959 . S
H441 C455 0.961 . S
H442 C456 0.960 . S
H443 C456 0.961 . S
H444 C456 0.959 . S
H445 C459 0.929 . S
H446 C460 0.931 . S
H447 C462 0.930 . S
C448 H436 0.930 . S
C448 C449 1.399 . S
C448 C453 1.399 . S
C449 C448 1.399 . S
C449 C450 1.376 . S
C450 H437 0.930 . S
C450 C449 1.376 . S
C450 C451 1.388 . S
C451 H438 0.930 . S
C451 C450 1.388 . S
C451 C452 1.390 . S
C452 C451 1.390 . S
C452 C453 1.394 . S
C452 C458 1.465 . S
C453 C448 1.399 . S
C453 C452 1.394 . S
C453 C454 1.516 . S
C454 C453 1.516 . S
C454 C455 1.502 . S
C454 C456 1.561 . S
C454 C457 1.526 . S
C455 H439 0.959 . S
C455 H440 0.959 . S
C455 H441 0.961 . S
C455 C454 1.502 . S
C456 H442 0.960 . S
C456 H443 0.961 . S
C456 H444 0.959 . S
C456 C454 1.561 . S
C457 C454 1.526 . S
C457 C458 1.396 . S
C457 C462 1.390 . S
C458 C452 1.465 . S
C458 C457 1.396 . S
C458 C459 1.399 . S
C459 H445 0.929 . S
C459 C458 1.399 . S
C459 C460 1.385 . S
C460 H446 0.931 . S
C460 C459 1.385 . S
C460 C461 1.389 . S
C461 C460 1.389 . S
C461 C462 1.387 . S
C462 H447 0.930 . S
C462 C457 1.390 . S
C462 C461 1.387 . S
H463 C475 0.930 . S
H464 C477 0.930 . S
H465 C478 0.930 . S
H466 C482 0.959 . S
H467 C482 0.959 . S
H468 C482 0.961 . S
H469 C483 0.960 . S
H470 C483 0.961 . S
H471 C483 0.959 . S
H472 C486 0.929 . S
H473 C487 0.931 . S
H474 C489 0.930 . S
C475 H463 0.930 . S
C475 C476 1.399 . S
C475 C480 1.399 . S
C476 C475 1.399 . S
C476 C477 1.376 . S
C477 H464 0.930 . S
C477 C476 1.376 . S
C477 C478 1.388 . S
C478 H465 0.930 . S
C478 C477 1.388 . S
C478 C479 1.390 . S
C479 C478 1.390 . S
C479 C480 1.394 . S
C479 C485 1.465 . S
C480 C475 1.399 . S
C480 C479 1.394 . S
C480 C481 1.516 . S
C481 C480 1.516 . S
C481 C482 1.502 . S
C481 C483 1.561 . S
C481 C484 1.526 . S
C482 H466 0.959 . S
C482 H467 0.959 . S
C482 H468 0.961 . S
C482 C481 1.502 . S
C483 H469 0.960 . S
C483 H470 0.961 . S
C483 H471 0.959 . S
C483 C481 1.561 . S
C484 C481 1.526 . S
C484 C485 1.396 . S
C484 C489 1.390 . S
C485 C479 1.465 . S
C485 C484 1.396 . S
C485 C486 1.399 . S
C486 H472 0.929 . S
C486 C485 1.399 . S
C486 C487 1.385 . S
C487 H473 0.931 . S
C487 C486 1.385 . S
C487 C488 1.389 . S
C488 C487 1.389 . S
C488 C489 1.387 . S
C489 H474 0.930 . S
C489 C484 1.390 . S
C489 C488 1.387 . S
H490 C502 0.930 . S
H491 C504 0.930 . S
H492 C505 0.930 . S
H493 C509 0.959 . S
H494 C509 0.959 . S
H495 C509 0.961 . S
H496 C510 0.960 . S
H497 C510 0.961 . S
H498 C510 0.960 . S
H499 C513 0.929 . S
H500 C514 0.931 . S
H501 C516 0.930 1_565 S
C502 H490 0.930 . S
C502 C503 1.399 . S
C502 C507 1.399 . S
C503 C502 1.399 . S
C503 C504 1.376 . S
C504 H491 0.930 . S
C504 C503 1.376 . S
C504 C505 1.388 . S
C505 H492 0.930 . S
C505 C504 1.388 . S
C505 C506 1.390 . S
C506 C505 1.390 . S
C506 C507 1.394 . S
C506 C512 1.465 . S
C507 C502 1.399 . S
C507 C506 1.394 . S
C507 C508 1.516 . S
C508 C507 1.516 . S
C508 C509 1.502 1_545 S
C508 C510 1.561 1_545 S
C508 C511 1.526 . S
C509 H493 0.959 . S
C509 H494 0.959 . S
C509 H495 0.961 . S
C509 C508 1.502 1_565 S
C510 H496 0.960 . S
C510 H497 0.961 . S
C510 H498 0.960 . S
C510 C508 1.561 1_565 S
C511 C508 1.526 . S
C511 C512 1.396 . S
C511 C516 1.390 . S
C512 C506 1.465 . S
C512 C511 1.396 . S
C512 C513 1.399 . S
C513 H499 0.929 . S
C513 C512 1.399 . S
C513 C514 1.385 . S
C514 H500 0.931 . S
C514 C513 1.385 . S
C514 C515 1.389 . S
C515 C514 1.389 . S
C515 C516 1.387 . S
C516 H501 0.930 1_545 S
C516 C511 1.390 . S
C516 C515 1.387 . S
H517 C529 0.930 . S
H518 C531 0.930 1_455 S
H519 C532 0.930 . S
H520 C536 0.959 . S
H521 C536 0.959 . S
H522 C536 0.961 . S
H523 C537 0.960 . S
H524 C537 0.961 . S
H525 C537 0.959 . S
H526 C540 0.929 . S
H527 C541 0.931 . S
H528 C543 0.930 . S
C529 H517 0.930 . S
C529 C530 1.399 . S
C529 C534 1.399 . S
C530 C529 1.399 . S
C530 C531 1.376 . S
C531 H518 0.930 1_655 S
C531 C530 1.376 . S
C531 C532 1.388 . S
C532 H519 0.930 . S
C532 C531 1.388 . S
C532 C533 1.390 . S
C533 C532 1.390 . S
C533 C534 1.394 . S
C533 C539 1.465 . S
C534 C529 1.399 . S
C534 C533 1.394 . S
C534 C535 1.516 . S
C535 C534 1.516 . S
C535 C536 1.502 . S
C535 C537 1.561 . S
C535 C538 1.526 . S
C536 H520 0.959 . S
C536 H521 0.959 . S
C536 H522 0.961 . S
C536 C535 1.502 . S
C537 H523 0.960 . S
C537 H524 0.961 . S
C537 H525 0.959 . S
C537 C535 1.561 . S
C538 C535 1.526 . S
C538 C539 1.396 . S
C538 C543 1.390 . S
C539 C533 1.465 . S
C539 C538 1.396 . S
C539 C540 1.399 . S
C540 H526 0.929 . S
C540 C539 1.399 . S
C540 C541 1.385 . S
C541 H527 0.931 . S
C541 C540 1.385 . S
C541 C542 1.389 . S
C542 C541 1.389 . S
C542 C543 1.387 . S
C543 H528 0.930 . S
C543 C538 1.390 . S
C543 C542 1.387 . S
C125 C63 1.554 . S
C137 C8 1.616 . S
C152 C22 1.629 . S
C164 C78 1.587 . S
C179 C36 1.609 . S
C191 C91 1.566 . S
C206 C106 1.588 . S
C218 C50 1.628 . S
C233 C7 1.460 . S
C245 C35 1.474 . S
C260 C21 1.379 . S
C272 C49 1.423 . S
C287 C92 1.393 . S
C299 C64 1.365 . S
C314 C77 1.373 . S
C326 C105 1.349 . S
C341 C79 1.088 . S
C353 C3 1.060 . S
C368 C17 0.928 . S
C380 C87 0.961 . S
C395 C31 1.039 . S
C407 C107 1.001 . S
C422 C59 1.015 . S
C434 C45 0.970 . S
C449 C65 1.021 . S
C461 C23 0.957 . S
C476 C73 1.013 . S
C488 C37 0.944 . S
C503 C93 0.902 . S
C515 C51 0.968 . S
C530 C9 1.037 . S
C542 C101 1.053 . S
