# Generated by pormake.
# Topology afw, (4)-cn, num edge types: 1
# Building blocks:
#     Node 0, Type 0, BuildingBlock: UXUYUI_clean_sbu_0, # of connection points: 4
#     Node 1, Type 0, BuildingBlock: UXUYUI_clean_sbu_0, # of connection points: 4
#     Node 2, Type 0, BuildingBlock: UXUYUI_clean_sbu_0, # of connection points: 4
#     Node 3, Type 0, BuildingBlock: UXUYUI_clean_sbu_0, # of connection points: 4
#     Node 4, Type 0, BuildingBlock: UXUYUI_clean_sbu_0, # of connection points: 4
#     Node 5, Type 0, BuildingBlock: UXUYUI_clean_sbu_0, # of connection points: 4
#     Node 6, Type 0, BuildingBlock: UXUYUI_clean_sbu_0, # of connection points: 4
#     Node 7, Type 0, BuildingBlock: UXUYUI_clean_sbu_0, # of connection points: 4
#     Node 8, Type 0, BuildingBlock: UXUYUI_clean_sbu_0, # of connection points: 4
#     Edge 9, Type (0, 0), BuildingBlock: KIFKEQ_clean_linker_1, # of connection points: 2
#     Edge 10, Type (0, 0), BuildingBlock: KIFKEQ_clean_linker_1, # of connection points: 2
#     Edge 11, Type (0, 0), BuildingBlock: KIFKEQ_clean_linker_1, # of connection points: 2
#     Edge 12, Type (0, 0), BuildingBlock: KIFKEQ_clean_linker_1, # of connection points: 2
#     Edge 13, Type (0, 0), BuildingBlock: KIFKEQ_clean_linker_1, # of connection points: 2
#     Edge 14, Type (0, 0), BuildingBlock: KIFKEQ_clean_linker_1, # of connection points: 2
#     Edge 15, Type (0, 0), BuildingBlock: KIFKEQ_clean_linker_1, # of connection points: 2
#     Edge 16, Type (0, 0), BuildingBlock: KIFKEQ_clean_linker_1, # of connection points: 2
#     Edge 17, Type (0, 0), BuildingBlock: KIFKEQ_clean_linker_1, # of connection points: 2
#     Edge 18, Type (0, 0), BuildingBlock: KIFKEQ_clean_linker_1, # of connection points: 2
#     Edge 19, Type (0, 0), BuildingBlock: KIFKEQ_clean_linker_1, # of connection points: 2
#     Edge 20, Type (0, 0), BuildingBlock: KIFKEQ_clean_linker_1, # of connection points: 2
#     Edge 21, Type (0, 0), BuildingBlock: KIFKEQ_clean_linker_1, # of connection points: 2
#     Edge 22, Type (0, 0), BuildingBlock: KIFKEQ_clean_linker_1, # of connection points: 2
#     Edge 23, Type (0, 0), BuildingBlock: KIFKEQ_clean_linker_1, # of connection points: 2
#     Edge 24, Type (0, 0), BuildingBlock: KIFKEQ_clean_linker_1, # of connection points: 2
#     Edge 25, Type (0, 0), BuildingBlock: KIFKEQ_clean_linker_1, # of connection points: 2
#     Edge 26, Type (0, 0), BuildingBlock: KIFKEQ_clean_linker_1, # of connection points: 2
# Relax obj value: 0.350
# Max RMSD: 0.270
# Mean RMSD: 0.270
data_MOF--net-afw--node1-UXUYUI_clean_sbu_0--edge1-KIFKEQ_clean_linker_1
_symmetry_space_group_name_H-M    P1
_symmetry_Int_Tables_number       1
_symmetry_cell_setting            triclinic
loop_
_symmetry_equiv_pos_as_xyz
'x, y, z'
_cell_length_a     58.218783
_cell_length_b     58.179409
_cell_length_c     54.662758
_cell_angle_alpha  90.005693
_cell_angle_beta   89.953564
_cell_angle_gamma 120.00145
loop_
_atom_site_label
_atom_site_type_symbol
_atom_site_fract_x
_atom_site_fract_y
_atom_site_fract_z
_atom_type_partial_charge
Li0 Li 0.00692 0.23525 0.02348 0.0
Li1 Li 0.9845 0.19855 0.99437 0.0
Li2 Li 0.03401 0.22109 0.00012 0.0
Li3 Li 0.01287 0.24215 0.97867 0.0
C4 C 0.00678 0.18837 0.04464 0.0
N5 N 0.01016 0.16352 0.08648 0.0
C6 C 0.98405 0.16676 0.05445 0.0
C7 C 0.0313 0.19705 0.05594 0.0
C8 C 0.98614 0.15456 0.07567 0.0
C9 C 0.03259 0.1843 0.07711 0.0
C10 C 0.9534 0.2198 -0.00253 0.0
C11 C 0.91206 0.19868 0.9753 0.0
N12 N 0.89896 0.19782 -0.00381 0.0
C13 C 0.93955 0.21888 0.01869 0.0
C14 C 0.9396 0.2098 0.97554 0.0
C15 C 0.91202 0.20764 0.01768 0.0
C16 C 0.01192 0.27558 0.05501 0.0
N17 N 0.00279 0.2491 0.05334 0.0
C18 C 0.98508 0.24209 0.09374 0.0
C19 C 0.98963 0.23234 0.07212 0.0
C20 C 0.99384 0.2693 0.09593 0.0
C21 C 0.0077 0.28621 0.07631 0.0
H22 H 0.02203 0.28835 0.03959 0.0
H23 H 0.98207 0.21133 0.07013 0.0
C24 C 0.95454 0.14981 0.97057 0.0
N25 N 0.954 0.16477 0.98939 0.0
C26 C 0.93404 0.12369 0.96766 0.0
C27 C 0.91236 0.12917 0.0031 0.0
C28 C 0.93336 0.15514 0.00538 0.0
C29 C 0.91282 0.11286 0.98435 0.0
H30 H 0.97141 0.15781 0.95836 0.0
H31 H 0.93362 0.16732 0.02043 0.0
C32 C 0.06335 0.27455 0.01674 0.0
N33 N 0.10981 0.3086 0.04097 0.0
C34 C 0.08358 0.29653 0.00462 0.0
C35 C 0.06663 0.27011 0.04128 0.0
C36 C 0.10695 0.31345 0.01715 0.0
C37 C 0.09029 0.28748 0.05319 0.0
C38 C 0.01879 0.21256 0.94533 0.0
C39 C 0.04462 0.22086 0.93747 0.0
C40 C -0.00075 0.2083 0.92819 0.0
C41 C 0.05058 0.22514 0.91254 0.0
C42 C 0.00601 0.21286 0.90343 0.0
N43 N 0.03132 0.22113 0.89619 0.0
C44 C 0.05439 0.18771 -0.00062 0.0
C45 C 0.08854 0.23276 0.00128 0.0
C46 C 0.07301 0.17937 -0.0014 0.0
N47 N 0.06239 0.21396 0.00064 0.0
C48 C 0.10792 0.22527 0.00069 0.0
C49 C 0.10017 0.19826 -0.00092 0.0
H50 H 0.03344 0.17326 -0.00119 0.0
H51 H 0.09446 0.25353 0.00186 0.0
C52 C -0.00126 0.26971 0.94423 0.0
N53 N 0.01843 0.26576 0.95273 0.0
C54 C 0.00333 0.28638 0.9242 0.0
C55 C 0.04838 0.29467 0.92244 0.0
C56 C 0.04295 0.27804 0.94251 0.0
C57 C 0.02842 0.29901 0.91297 0.0
H58 H 0.97947 0.25981 0.95289 0.0
H59 H 0.05815 0.27438 0.94965 0.0
O60 O 0.00505 0.20038 0.02371 0.0
O61 O 0.98034 0.23061 -0.00187 0.0
O62 O 0.04036 0.25783 0.00465 0.0
O63 O 0.01269 0.20875 0.9697 0.0
H64 H 0.96494 0.15959 0.0459 0.0
H65 H 0.04925 0.21324 0.04837 0.0
H66 H 0.96867 0.13793 0.08353 0.0
H67 H 0.05144 0.19087 0.08604 0.0
H68 H 0.90111 0.1907 0.9585 0.0
H69 H 0.94992 0.22668 0.03577 0.0
H70 H 0.95001 0.21039 0.95896 0.0
H71 H 0.90103 0.20669 0.03398 0.0
H72 H 0.97458 0.22838 0.1085 0.0
H73 H 0.01449 0.30725 0.0771 0.0
H74 H 0.93554 0.11176 0.95322 0.0
H75 H 0.8963 0.12172 0.01625 0.0
H76 H 0.0813 0.30047 0.98571 0.0
H77 H 0.05103 0.25361 0.05114 0.0
H78 H 0.12281 0.33046 0.00795 0.0
H79 H 0.09308 0.28423 0.07217 0.0
H80 H 0.05998 0.22423 0.95049 0.0
H81 H 0.97913 0.20175 0.93397 0.0
H82 H 0.07053 0.23173 0.9062 0.0
H83 H 0.99114 0.20984 0.88998 0.0
H84 H 0.06621 0.15833 -0.00231 0.0
H85 H 0.12869 0.24043 0.00087 0.0
H86 H 0.98749 0.28939 0.91763 0.0
H87 H 0.06784 0.30353 0.9141 0.0
Li88 Li 0.82019 0.80032 0.00039 0.0
Li89 Li 0.77951 0.78536 0.02228 0.0
Li90 Li 0.78059 0.78446 0.97705 0.0
Li91 Li 0.79871 0.82737 -0.002 0.0
C92 C 0.79684 0.74589 0.00328 0.0
N93 N 0.81294 0.70882 0.00838 0.0
C94 C 0.79472 0.73383 0.02594 0.0
C95 C 0.80677 0.73881 0.98314 0.0
C96 C 0.80305 0.71519 0.02816 0.0
C97 C 0.81493 0.72012 0.98612 0.0
C98 C 0.8344 0.82514 0.04237 0.0
C99 C 0.8785 0.85628 0.05644 0.0
N100 N 0.87835 0.83695 0.07054 0.0
C101 C 0.83464 0.80561 0.05707 0.0
C102 C 0.85645 0.85073 0.04211 0.0
C103 C 0.85704 0.81196 0.07118 0.0
C104 C 0.87338 0.82645 0.98818 0.0
N105 N 0.85505 0.80473 0.00058 0.0
C106 C 0.88844 0.79483 0.01341 0.0
C107 C 0.86206 0.78897 0.01315 0.0
C108 C 0.90773 0.81714 0.00068 0.0
C109 C 0.89987 0.83297 0.98787 0.0
H110 H 0.86754 0.83917 0.979 0.0
H111 H 0.84747 0.77235 0.0236 0.0
C112 C 0.73748 0.74334 0.04704 0.0
N113 N 0.75925 0.76767 0.05007 0.0
C114 C 0.72296 0.72879 0.06735 0.0
C115 C 0.75321 0.76503 0.09333 0.0
C116 C 0.76693 0.77896 0.07251 0.0
C117 C 0.73114 0.73937 0.09096 0.0
H118 H 0.73176 0.73507 0.02886 0.0
H119 H 0.78413 0.79853 0.07428 0.0
C120 C 0.82162 0.82047 0.94787 0.0
N121 N 0.83537 0.82695 0.89895 0.0
C122 C 0.8199 0.83974 0.93401 0.0
C123 C 0.83063 0.80472 0.93695 0.0
C124 C 0.82686 0.84264 0.90927 0.0
C125 C 0.8374 0.80823 0.91217 0.0
C126 C 0.74416 0.80288 0.01032 0.0
C127 C 0.71863 0.79397 0.00129 0.0
C128 C 0.75206 0.81727 0.03218 0.0
C129 C 0.70143 0.79976 0.01423 0.0
C130 C 0.73427 0.82263 0.04458 0.0
N131 N 0.70954 0.81384 0.03542 0.0
C132 C 0.75354 0.73983 0.94596 0.0
C133 C 0.75941 0.7806 0.93066 0.0
C134 C 0.74115 0.7269 0.92427 0.0
N135 N 0.76259 0.76625 0.94854 0.0
C136 C 0.74774 0.76867 0.90854 0.0
C137 C 0.73859 0.74156 0.90519 0.0
H138 H 0.75599 0.72886 0.96071 0.0
H139 H 0.76607 0.80137 0.93356 0.0
C140 C 0.83149 0.88099 0.99114 0.0
N141 N 0.80549 0.86268 0.99436 0.0
C142 C 0.83929 0.90762 0.98762 0.0
C143 C 0.79331 0.89612 0.99035 0.0
C144 C 0.78636 0.8696 0.99362 0.0
C145 C 0.82009 0.91548 0.9873 0.0
H146 H 0.84616 0.87477 0.99105 0.0
H147 H 0.76572 0.85466 -0.00477 0.0
O148 O 0.78848 0.76392 0.00069 0.0
O149 O 0.81289 0.81907 0.02796 0.0
O150 O 0.81488 0.81737 0.97211 0.0
O151 O 0.761 0.7969 -0.00194 0.0
H152 H 0.78683 0.73888 0.04166 0.0
H153 H 0.80809 0.74758 0.96539 0.0
H154 H 0.80166 0.70581 0.0456 0.0
H155 H 0.82278 0.71455 0.97072 0.0
H156 H 0.89575 0.87597 0.05634 0.0
H157 H 0.8179 0.78562 0.05727 0.0
H158 H 0.8566 0.86612 0.03095 0.0
H159 H 0.85756 0.79698 0.08249 0.0
H160 H 0.89371 0.7822 0.02364 0.0
H161 H 0.9142 0.85076 0.97836 0.0
H162 H 0.70581 0.70932 0.06459 0.0
H163 H 0.76049 0.77391 0.1111 0.0
H164 H 0.81304 0.85217 0.94223 0.0
H165 H 0.83247 0.79003 0.94753 0.0
H166 H 0.82548 0.85737 0.89828 0.0
H167 H 0.84434 0.79612 0.90345 0.0
H168 H 0.71218 0.78267 0.98447 0.0
H169 H 0.77174 0.82435 0.03945 0.0
H170 H 0.68162 0.79301 0.00744 0.0
H171 H 0.74013 0.83378 0.06148 0.0
H172 H 0.73401 0.70587 0.92226 0.0
H173 H 0.74552 0.78038 0.89432 0.0
H174 H 0.86017 0.92195 0.98545 0.0
H175 H 0.7779 0.90137 0.98982 0.0
Li176 Li 0.22047 0.03408 0.0047 0.0
Li177 Li 0.23528 0.00938 0.029 0.0
Li178 Li 0.23447 0.00738 0.98446 0.0
Li179 Li 0.19304 0.98528 0.0065 0.0
C180 C 0.27317 0.06505 0.00571 0.0
N181 N 0.30668 0.11942 0.0062 0.0
C182 C 0.28965 0.07731 0.02582 0.0
C183 C 0.27398 0.08044 0.98573 0.0
C184 C 0.30638 0.10482 0.02576 0.0
C185 C 0.29098 0.1079 0.98636 0.0
C186 C 0.2017 0.02653 0.05247 0.0
C187 C 0.17685 0.03838 0.07997 0.0
N188 N 0.19994 0.05761 0.08988 0.0
C189 C 0.22515 0.04635 0.063 0.0
C190 C 0.17732 0.02244 0.06108 0.0
C191 C 0.22387 0.06187 0.08186 0.0
C192 C 0.19811 0.06282 0.98642 0.0
N193 N 0.21657 0.06481 0.00277 0.0
C194 C 0.22407 0.10724 0.01599 0.0
C195 C 0.22972 0.08658 0.01734 0.0
C196 C 0.20488 0.1055 -0.00063 0.0
C197 C 0.19205 0.08304 0.9843 0.0
H198 H 0.18754 0.04516 0.97538 0.0
H199 H 0.24437 0.08786 0.0302 0.0
C200 C 0.27826 0.01158 0.05309 0.0
N201 N 0.25353 0.00771 0.05683 0.0
C202 C 0.29322 0.01113 0.07278 0.0
C203 C 0.25658 0.00195 0.09967 0.0
C204 C 0.24224 0.0023 0.0794 0.0
C205 C 0.2826 0.00677 0.09654 0.0
H206 H 0.28643 0.01529 0.03479 0.0
H207 H 0.22225 -0.00136 0.08174 0.0
C208 C 0.19988 0.00434 0.95335 0.0
N209 N 0.19796 0.9952 0.90361 0.0
C210 C 0.18647 0.97839 0.94435 0.0
C211 C 0.21212 0.02566 0.93707 0.0
C212 C 0.18577 0.97418 0.91913 0.0
C213 C 0.21097 0.02062 0.91198 0.0
C214 C 0.21559 0.95554 0.02219 0.0
C215 C 0.22491 0.93822 0.01653 0.0
C216 C 0.19969 0.95081 0.04288 0.0
C217 C 0.21809 0.91636 0.03164 0.0
C218 C 0.19332 0.92874 0.05753 0.0
N219 N 0.20257 0.91212 0.05166 0.0
C220 C 0.27003 0.0251 0.94411 0.0
C221 C 0.24467 0.97848 0.94971 0.0
C222 C 0.28162 0.02182 0.92304 0.0
N223 N 0.25176 0.00355 0.95676 0.0
C224 C 0.25588 0.97427 0.92887 0.0
C225 C 0.27448 0.99613 0.91517 0.0
H226 H 0.27536 0.04479 0.95016 0.0
H227 H 0.22991 0.96174 0.96007 0.0
C228 C 0.13912 0.96356 0.01264 0.0
N229 N 0.15766 0.95679 0.00698 0.0
C230 C 0.11241 0.94422 0.01377 0.0
C231 C 0.12422 0.91126 0.00241 0.0
C232 C 0.15082 0.93131 0.00164 0.0
C233 C 0.10468 0.91765 0.00872 0.0
H234 H 0.14514 0.98411 0.01601 0.0
H235 H 0.16597 0.92657 -0.00329 0.0
O236 O 0.25678 0.0381 0.00543 0.0
O237 O 0.20253 0.01114 0.0339 0.0
O238 O 0.20154 0.00882 0.97802 0.0
O239 O 0.22235 0.97713 0.00761 0.0
H240 H 0.28955 0.06571 0.04133 0.0
H241 H 0.26122 0.07137 0.97011 0.0
H242 H 0.31915 0.11456 0.04124 0.0
H243 H 0.2916 0.12006 0.97112 0.0
H244 H 0.15811 0.03544 0.08677 0.0
H245 H 0.24417 0.04984 0.05658 0.0
H246 H 0.15892 0.00708 0.05335 0.0
H247 H 0.24191 0.07733 0.09008 0.0
H248 H 0.23444 0.12429 0.0279 0.0
H249 H 0.17672 0.08063 0.9716 0.0
H250 H 0.31297 0.0144 0.06943 0.0
H251 H 0.24764 -0.00125 0.11763 0.0
H252 H 0.17705 0.96168 0.95672 0.0
H253 H 0.22258 0.04586 0.94374 0.0
H254 H 0.17564 0.9542 0.91191 0.0
H255 H 0.2205 0.03691 0.89917 0.0
H256 H 0.23733 0.94167 0.00063 0.0
H257 H 0.19229 0.96396 0.04762 0.0
H258 H 0.22516 0.90279 0.02746 0.0
H259 H 0.18103 0.92484 0.07359 0.0
H260 H 0.29605 0.03916 0.91306 0.0
H261 H 0.24958 0.95414 0.9232 0.0
H262 H 0.09791 0.95009 0.01807 0.0
H263 H 0.11902 0.89102 -0.0017 0.0
Li264 Li 0.65054 0.53125 0.32289 0.0
Li265 Li 0.67114 0.5676 0.35237 0.0
Li266 Li 0.67645 0.57539 0.30753 0.0
Li267 Li 0.70004 0.55636 0.32838 0.0
C268 C 0.61663 0.54852 0.32664 0.0
N269 N 0.56184 0.52182 0.32524 0.0
C270 C 0.60211 0.54603 0.34783 0.0
C271 C 0.60327 0.53769 0.30467 0.0
C272 C 0.57443 0.53241 0.34676 0.0
C273 C 0.57557 0.52418 0.30436 0.0
C274 C 0.67448 0.52463 0.37446 0.0
C275 C 0.70172 0.52578 0.40826 0.0
N276 N 0.68003 0.50543 0.41906 0.0
C277 C 0.65256 0.50342 0.38575 0.0
C278 C 0.69934 0.53564 0.38569 0.0
C279 C 0.65572 0.49414 0.40835 0.0
C280 C 0.6206 0.48386 0.29648 0.0
N281 N 0.62106 0.49679 0.31732 0.0
C282 C 0.5808 0.45928 0.33112 0.0
C283 C 0.60153 0.48524 0.33438 0.0
C284 C 0.58014 0.44509 0.31006 0.0
C285 C 0.60015 0.45794 0.29238 0.0
H286 H 0.6364 0.49348 0.28324 0.0
H287 H 0.60231 0.49603 0.35074 0.0
C288 C 0.67801 0.6075 0.38535 0.0
N289 N 0.66648 0.58079 0.3825 0.0
C290 C 0.67443 0.61807 0.40696 0.0
C291 C 0.64658 0.57339 0.42202 0.0
C292 C 0.6509 0.56372 0.40021 0.0
C293 C 0.6584 0.60092 0.42562 0.0
H294 H 0.68987 0.62061 0.37074 0.0
H295 H 0.64114 0.54259 0.39712 0.0
C296 C 0.68552 0.54899 0.27364 0.0
N297 N 0.69923 0.56114 0.22502 0.0
C298 C 0.71187 0.55937 0.26623 0.0
C299 C 0.6661 0.54452 0.25628 0.0
C300 C 0.7184 0.56542 0.24157 0.0
C301 C 0.67345 0.5509 0.2318 0.0
C302 C 0.72754 0.60977 0.34416 0.0
C303 C 0.74665 0.6314 0.33077 0.0
C304 C 0.73256 0.60676 0.36861 0.0
C305 C 0.77067 0.64926 0.34188 0.0
C306 C 0.75679 0.62504 0.37908 0.0
N307 N 0.77522 0.64571 0.3656 0.0
C308 C 0.65765 0.60009 0.27499 0.0
C309 C 0.70325 0.61361 0.27102 0.0
C310 C 0.65937 0.61638 0.25551 0.0
N311 N 0.67936 0.59883 0.28212 0.0
C312 C 0.70596 0.6304 0.2517 0.0
C313 C 0.68378 0.63174 0.24365 0.0
H314 H 0.63896 0.58833 0.28429 0.0
H315 H 0.72006 0.61191 0.27686 0.0
C316 C 0.72439 0.52649 0.33333 0.0
N317 N 0.73016 0.55185 0.32928 0.0
C318 C 0.74464 0.52044 0.33503 0.0
C319 C 0.77654 0.56662 0.3275 0.0
C320 C 0.75558 0.57182 0.32607 0.0
C321 C 0.77115 0.54066 0.33227 0.0
H322 H 0.70395 0.51096 0.3354 0.0
H323 H 0.75965 0.59171 0.3223 0.0
O324 O 0.64376 0.56153 0.32739 0.0
O325 O 0.67171 0.53378 0.35216 0.0
O326 O 0.67884 0.54345 0.29779 0.0
O327 O 0.70392 0.59206 0.33346 0.0
H328 H 0.61208 0.55449 0.36492 0.0
H329 H 0.61416 0.53938 0.2881 0.0
H330 H 0.56295 0.53024 0.36305 0.0
H331 H 0.56499 0.51552 0.28753 0.0
H332 H 0.72085 0.53421 0.41713 0.0
H333 H 0.63325 0.4943 0.37727 0.0
H334 H 0.71677 0.55137 0.37697 0.0
H335 H 0.63885 0.4779 0.41734 0.0
H336 H 0.56603 0.45014 0.34539 0.0
H337 H 0.60026 0.44796 0.2757 0.0
H338 H 0.68408 0.63941 0.40898 0.0
H339 H 0.63348 0.55941 0.4356 0.0
H340 H 0.72715 0.56295 0.27941 0.0
H341 H 0.64563 0.53648 0.26168 0.0
H342 H 0.73874 0.57361 0.2356 0.0
H343 H 0.65866 0.54775 0.21821 0.0
H344 H 0.74307 0.63438 0.31197 0.0
H345 H 0.71775 0.59077 0.37954 0.0
H346 H 0.78568 0.66596 0.33166 0.0
H347 H 0.76089 0.62287 0.39798 0.0
H348 H 0.64189 0.61705 0.24984 0.0
H349 H 0.72502 0.64168 0.24272 0.0
H350 H 0.73955 0.50005 0.33816 0.0
H351 H 0.79671 0.58274 0.32517 0.0
Li352 Li 0.487 0.14522 0.32728 0.0
Li353 Li 0.4479 0.12683 0.35348 0.0
Li354 Li 0.44367 0.12163 0.30944 0.0
Li355 Li 0.45803 0.1644 0.3287 0.0
C356 C 0.4502 0.08242 0.32429 0.0
N357 N 0.42786 0.03099 0.30714 0.0
C358 C 0.42849 0.06182 0.33638 0.0
C359 C 0.46063 0.07684 0.30356 0.0
C360 C 0.41748 0.03595 0.32741 0.0
C361 C 0.44902 0.05072 0.29514 0.0
C362 C 0.48555 0.16466 0.37941 0.0
C363 C 0.47527 0.17004 0.42103 0.0
N364 N 0.49547 0.16659 0.429 0.0
C365 C 0.50627 0.16126 0.388 0.0
C366 C 0.46998 0.16921 0.39602 0.0
C367 C 0.51095 0.16229 0.41315 0.0
C368 C 0.54168 0.17959 0.3252 0.0
N369 N 0.52278 0.1535 0.32521 0.0
C370 C 0.5558 0.14065 0.32296 0.0
C371 C 0.52923 0.13405 0.32433 0.0
C372 C 0.57566 0.16747 0.3223 0.0
C373 C 0.56838 0.18707 0.32343 0.0
H374 H 0.53594 0.19458 0.32661 0.0
H375 H 0.51378 0.11346 0.32486 0.0
C376 C 0.41079 0.10385 0.39274 0.0
N377 N 0.4345 0.10892 0.38338 0.0
C378 C 0.40097 0.08868 0.41402 0.0
C379 C 0.44046 0.08484 0.4156 0.0
C380 C 0.44938 0.09989 0.39434 0.0
C381 C 0.41574 0.07865 0.42549 0.0
H382 H 0.39925 0.11102 0.38337 0.0
H383 H 0.46802 0.10403 0.38623 0.0
C384 C 0.4949 0.16999 0.28514 0.0
N385 N 0.54067 0.19754 0.25771 0.0
C386 C 0.50832 0.19772 0.2845 0.0
C387 C 0.50472 0.15628 0.27174 0.0
C388 C 0.53142 0.21128 0.27052 0.0
C389 C 0.52791 0.17056 0.25803 0.0
C390 C 0.4067 0.14116 0.32899 0.0
C391 C 0.39496 0.13915 0.30621 0.0
C392 C 0.40221 0.15433 0.34816 0.0
C393 C 0.37899 0.15054 0.30294 0.0
C394 C 0.38615 0.16549 0.34414 0.0
N395 N 0.37498 0.16339 0.32181 0.0
C396 C 0.39939 0.07685 0.28942 0.0
C397 C 0.43225 0.1043 0.26066 0.0
C398 C 0.38372 0.05975 0.27085 0.0
N399 N 0.42315 0.09854 0.28399 0.0
C400 C 0.41723 0.08783 0.24154 0.0
C401 C 0.39255 0.06527 0.24649 0.0
H402 H 0.39255 0.07301 0.30817 0.0
H403 H 0.45092 0.12197 0.25683 0.0
C404 C 0.46953 0.21498 0.3445 0.0
N405 N 0.45844 0.19711 0.32606 0.0
C406 C 0.47443 0.24085 0.34154 0.0
C407 C 0.45545 0.22914 0.301 0.0
C408 C 0.45084 0.20343 0.30478 0.0
C409 C 0.46809 0.24843 0.31928 0.0
H410 H 0.47588 0.20959 0.361 0.0
H411 H 0.44251 0.1889 0.29026 0.0
O412 O 0.46098 0.10796 0.33251 0.0
O413 O 0.48034 0.16325 0.35488 0.0
O414 O 0.47244 0.15633 0.29901 0.0
O415 O 0.42277 0.13056 0.33244 0.0
H416 H 0.42001 0.06576 0.35233 0.0
H417 H 0.47733 0.09256 0.29391 0.0
H418 H 0.4006 0.01983 0.33651 0.0
H419 H 0.45678 0.04615 0.27903 0.0
H420 H 0.46326 0.17335 0.4341 0.0
H421 H 0.51846 0.15762 0.37544 0.0
H422 H 0.45374 0.17167 0.38969 0.0
H423 H 0.52684 0.15957 0.42007 0.0
H424 H 0.56077 0.12503 0.32226 0.0
H425 H 0.58321 0.20797 0.32346 0.0
H426 H 0.38172 0.08415 0.42095 0.0
H427 H 0.4527 0.07791 0.42408 0.0
H428 H 0.50123 0.20873 0.29491 0.0
H429 H 0.49478 0.13484 0.27221 0.0
H430 H 0.54206 0.23274 0.26995 0.0
H431 H 0.53582 0.1602 0.24772 0.0
H432 H 0.39833 0.12914 0.29114 0.0
H433 H 0.41127 0.15616 0.36586 0.0
H434 H 0.36986 0.14925 0.28538 0.0
H435 H 0.38263 0.17588 0.35876 0.0
H436 H 0.36485 0.04254 0.27548 0.0
H437 H 0.42451 0.09324 0.22299 0.0
H438 H 0.48466 0.25516 0.35595 0.0
H439 H 0.45014 0.23413 0.28362 0.0
Li440 Li 0.90222 0.35117 0.35816 0.0
Li441 Li 0.88974 0.37788 0.33258 0.0
Li442 Li 0.86028 0.32799 0.33509 0.0
Li443 Li 0.90199 0.3487 0.31291 0.0
C444 C 0.86099 0.3557 0.38392 0.0
N445 N 0.84186 0.35685 0.42996 0.0
C446 C 0.86687 0.37989 0.39457 0.0
C447 C 0.84502 0.33206 0.3966 0.0
C448 C 0.85713 0.38007 0.41789 0.0
C449 C 0.83564 0.33306 0.41987 0.0
C450 C 0.94305 0.40567 0.33611 0.0
C451 C 0.96852 0.44914 0.31805 0.0
N452 N 0.97992 0.45905 0.34014 0.0
C453 C 0.95515 0.41625 0.3586 0.0
C454 C 0.94992 0.42218 0.31561 0.0
C455 C 0.97371 0.4433 0.36027 0.0
C456 C 0.93573 0.33896 0.38479 0.0
N457 N 0.92016 0.35017 0.38674 0.0
C458 C 0.93142 0.35995 0.42887 0.0
C459 C 0.91791 0.36071 0.40817 0.0
C460 C 0.94769 0.34857 0.42742 0.0
C461 C 0.94984 0.338 0.40503 0.0
H462 H 0.93729 0.33092 0.36742 0.0
H463 H 0.90617 0.37025 0.40916 0.0
C464 C 0.87031 0.40927 0.31396 0.0
N465 N 0.88823 0.40978 0.33017 0.0
C466 C 0.86544 0.43037 0.31268 0.0
C467 C 0.89808 0.45263 0.3444 0.0
C468 C 0.90231 0.43102 0.34508 0.0
C469 C 0.87905 0.45225 0.32834 0.0
H470 H 0.85897 0.39195 0.30266 0.0
H471 H 0.91601 0.43078 0.35821 0.0
C472 C 0.88019 0.29443 0.34649 0.0
N473 N 0.86233 0.24441 0.36587 0.0
C474 C 0.87922 0.2742 0.33193 0.0
C475 C 0.87241 0.28927 0.37098 0.0
C476 C 0.87002 0.24903 0.34203 0.0
C477 C 0.86337 0.26386 0.38043 0.0
C478 C 0.86878 0.35076 0.28137 0.0
C479 C 0.85032 0.32744 0.26961 0.0
C480 C 0.88604 0.37294 0.26749 0.0
C481 C 0.84975 0.32655 0.24406 0.0
C482 C 0.88487 0.37125 0.24199 0.0
N483 N 0.86692 0.34828 0.2309 0.0
C484 C 0.80622 0.30411 0.34591 0.0
C485 C 0.81794 0.27679 0.32314 0.0
C486 C 0.77957 0.28447 0.34551 0.0
N487 N 0.82474 0.29987 0.33502 0.0
C488 C 0.7914 0.25671 0.32195 0.0
C489 C 0.7719 0.2605 0.33326 0.0
H490 H 0.81209 0.32298 0.35452 0.0
H491 H 0.83301 0.27426 0.31404 0.0
C492 C 0.94297 0.36107 0.27781 0.0
N493 N 0.91817 0.34302 0.28552 0.0
C494 C 0.95417 0.35531 0.25777 0.0
C495 C 0.91398 0.31272 0.25418 0.0
C496 C 0.90364 0.31928 0.27417 0.0
C497 C 0.93967 0.33071 0.24588 0.0
H498 H 0.95412 0.37972 0.28736 0.0
H499 H 0.88393 0.30543 0.28073 0.0
O500 O 0.87036 0.35522 0.36103 0.0
O501 O 0.92489 0.37923 0.33411 0.0
O502 O 0.889 0.31916 0.33679 0.0
O503 O 0.86998 0.35188 0.30636 0.0
H504 H 0.87904 0.39836 0.38507 0.0
H505 H 0.83959 0.31308 0.38849 0.0
H506 H 0.86171 0.39867 0.42639 0.0
H507 H 0.8233 0.31491 0.42987 0.0
H508 H 0.97391 0.46217 0.30236 0.0
H509 H 0.95022 0.40376 0.37462 0.0
H510 H 0.94093 0.4143 0.29804 0.0
H511 H 0.98314 0.45177 0.37759 0.0
H512 H 0.92978 0.36893 0.44566 0.0
H513 H 0.96229 0.32914 0.40322 0.0
H514 H 0.85016 0.42887 0.3004 0.0
H515 H 0.90908 0.46912 0.35676 0.0
H516 H 0.88543 0.27784 0.313 0.0
H517 H 0.87358 0.30476 0.38267 0.0
H518 H 0.86904 0.23317 0.33092 0.0
H519 H 0.85725 0.25963 0.39936 0.0
H520 H 0.83673 0.31015 0.28007 0.0
H521 H 0.90025 0.3912 0.27633 0.0
H522 H 0.83569 0.30858 0.2347 0.0
H523 H 0.89823 0.38821 0.23101 0.0
H524 H 0.76501 0.28835 0.35395 0.0
H525 H 0.78615 0.23854 0.31218 0.0
H526 H 0.9741 0.36963 0.252 0.0
H527 H 0.90192 0.29377 0.24524 0.0
Li528 Li 0.34283 0.90893 0.68915 0.0
Li529 Li 0.32132 0.86793 0.66644 0.0
Li530 Li 0.37108 0.89485 0.67081 0.0
Li531 Li 0.3474 0.91034 0.64434 0.0
C532 C 0.33865 0.87321 0.72053 0.0
N533 N 0.32817 0.86931 0.77011 0.0
C534 C 0.31265 0.85777 0.72903 0.0
C535 C 0.35936 0.88644 0.73723 0.0
C536 C 0.30775 0.85609 0.75417 0.0
C537 C 0.35364 0.88429 0.76223 0.0
C538 C 0.2917 0.89134 0.65095 0.0
C539 C 0.26684 0.87699 0.61332 0.0
N540 N 0.24634 0.87787 0.62432 0.0
C541 C 0.27046 0.89232 0.66183 0.0
C542 C 0.28994 0.8838 0.62645 0.0
C543 C 0.24767 0.88535 0.64809 0.0
C544 C 0.35874 0.9464 0.72801 0.0
N545 N 0.33793 0.92564 0.7167 0.0
C546 C 0.30762 0.92589 0.74593 0.0
C547 C 0.31273 0.91537 0.72511 0.0
C548 C 0.32873 0.94713 0.75821 0.0
C549 C 0.35457 0.95746 0.74903 0.0
H550 H 0.37855 0.95423 0.72086 0.0
H551 H 0.29667 0.8986 0.7159 0.0
C552 C 0.30184 0.81445 0.66401 0.0
N553 N 0.29335 0.83229 0.66559 0.0
C554 C 0.28374 0.78737 0.66481 0.0
C555 C 0.24826 0.79737 0.66874 0.0
C556 C 0.26717 0.82441 0.66786 0.0
C557 C 0.25658 0.7785 0.66755 0.0
H558 H 0.32283 0.82139 0.66243 0.0
H559 H 0.26097 0.839 0.66959 0.0
C560 C 0.40167 0.94777 0.66958 0.0
N561 N 0.45594 0.98159 0.66975 0.0
C562 C 0.41437 0.96315 0.64896 0.0
C563 C 0.41655 0.94977 0.69035 0.0
C564 C 0.44183 0.98009 0.6494 0.0
C565 C 0.44397 0.96692 0.69005 0.0
C566 C 0.34859 0.8645 0.62042 0.0
C567 C 0.37208 0.86803 0.61001 0.0
C568 C 0.32431 0.84695 0.60946 0.0
C569 C 0.37095 0.85434 0.58864 0.0
C570 C 0.32399 0.83359 0.58812 0.0
N571 N 0.34713 0.83755 0.57821 0.0
C572 C 0.40055 0.87289 0.68939 0.0
C573 C 0.42283 0.90468 0.65816 0.0
C574 C 0.42087 0.8668 0.69012 0.0
N575 N 0.4017 0.89125 0.67334 0.0
C576 C 0.44368 0.89934 0.65836 0.0
C577 C 0.44259 0.87973 0.67411 0.0
H578 H 0.38331 0.86218 0.70096 0.0
H579 H 0.42305 0.91881 0.64521 0.0
C580 C 0.34211 0.94741 0.61514 0.0
N581 N 0.35115 0.92992 0.61556 0.0
C582 C 0.34684 0.96368 0.59476 0.0
C583 C 0.36957 0.94315 0.57563 0.0
C584 C 0.36452 0.92744 0.59635 0.0
C585 C 0.36111 0.96191 0.57481 0.0
H586 H 0.33181 0.94914 0.63089 0.0
H587 H 0.37198 0.91384 0.59735 0.0
O588 O 0.34374 0.87568 0.69597 0.0
O589 O 0.31409 0.89802 0.66427 0.0
O590 O 0.37481 0.93105 0.66946 0.0
O591 O 0.34938 0.87755 0.64158 0.0
H592 H 0.2964 0.84747 0.71632 0.0
H593 H 0.37959 0.8984 0.73094 0.0
H594 H 0.28771 0.84436 0.76101 0.0
H595 H 0.36944 0.89457 0.77537 0.0
H596 H 0.26525 0.8711 0.59434 0.0
H597 H 0.27151 0.89833 0.68071 0.0
H598 H 0.30631 0.88345 0.61758 0.0
H599 H 0.23105 0.8859 0.65632 0.0
H600 H 0.28747 0.91709 0.75266 0.0
H601 H 0.37132 0.97395 0.75794 0.0
H602 H 0.29097 0.7735 0.66345 0.0
H603 H 0.22753 0.79132 0.6711 0.0
H604 H 0.40318 0.96204 0.6328 0.0
H605 H 0.40709 0.93791 0.70641 0.0
H606 H 0.45193 0.99205 0.63355 0.0
H607 H 0.45575 0.9685 0.70594 0.0
H608 H 0.39104 0.88142 0.61816 0.0
H609 H 0.30581 0.84339 0.61739 0.0
H610 H 0.38902 0.85706 0.58034 0.0
H611 H 0.30534 0.82 0.57947 0.0
H612 H 0.41888 0.85119 0.70224 0.0
H613 H 0.46011 0.90995 0.64585 0.0
H614 H 0.34019 0.97805 0.59497 0.0
H615 H 0.38032 0.94085 0.56054 0.0
Li616 Li 0.12095 0.45094 0.68489 0.0
Li617 Li 0.16098 0.46708 0.65985 0.0
Li618 Li 0.13736 0.49322 0.66237 0.0
Li619 Li 0.11981 0.45234 0.63917 0.0
C620 C 0.16177 0.49585 0.71117 0.0
N621 N 0.17529 0.51963 0.75673 0.0
C622 C 0.1836 0.49783 0.72375 0.0
C623 C 0.14715 0.50643 0.72163 0.0
C624 C 0.19002 0.50977 0.7468 0.0
C625 C 0.15421 0.51827 0.7447 0.0
C626 C 0.14025 0.41478 0.66036 0.0
C627 C 0.16398 0.39637 0.63962 0.0
N628 N 0.16319 0.38312 0.66039 0.0
C629 C 0.13943 0.40077 0.68142 0.0
C630 C 0.15239 0.41237 0.63921 0.0
C631 C 0.15123 0.38494 0.6811 0.0
C632 C 0.07815 0.41569 0.71563 0.0
N633 N 0.10486 0.43176 0.71378 0.0
C634 C 0.11123 0.41958 0.75375 0.0
C635 C 0.12138 0.43374 0.73219 0.0
C636 C 0.08375 0.4026 0.75626 0.0
C637 C 0.06706 0.40087 0.73691 0.0
H638 H 0.06553 0.41415 0.70046 0.0
H639 H 0.14256 0.44583 0.72991 0.0
C640 C 0.21284 0.48488 0.64236 0.0
N641 N 0.19494 0.47026 0.65993 0.0
C642 C 0.23903 0.49038 0.64416 0.0
C643 C 0.22747 0.46477 0.68157 0.0
C644 C 0.20157 0.45984 0.67907 0.0
C645 C 0.24676 0.48082 0.66433 0.0
H646 H 0.20709 0.49325 0.62755 0.0
H647 H 0.18699 0.44864 0.69297 0.0
C648 C 0.08189 0.46867 0.67042 0.0
N649 N 0.0437 0.48111 0.68436 0.0
C650 C 0.06565 0.4709 0.65287 0.0
C651 C 0.07824 0.47218 0.69513 0.0
C652 C 0.0466 0.47737 0.66025 0.0
C653 C 0.05896 0.47861 0.7018 0.0
C654 C 0.15398 0.48999 0.60896 0.0
C655 C 0.14764 0.50851 0.59968 0.0
C656 C 0.16052 0.47546 0.59287 0.0
C657 C 0.14746 0.51184 0.57438 0.0
C658 C 0.16008 0.47933 0.56769 0.0
N659 N 0.15359 0.49727 0.55904 0.0
C660 C 0.16682 0.54648 0.67415 0.0
C661 C 0.12599 0.53577 0.65534 0.0
C662 C 0.17336 0.57286 0.67668 0.0
N663 N 0.14328 0.52845 0.66408 0.0
C664 C 0.13198 0.56219 0.65707 0.0
C665 C 0.15582 0.58096 0.66813 0.0
H666 H 0.18063 0.54036 0.68016 0.0
H667 H 0.10781 0.52129 0.64666 0.0
C668 C 0.09349 0.40936 0.60612 0.0
N669 N 0.09935 0.43458 0.61135 0.0
C670 C 0.07698 0.39581 0.5864 0.0
C671 C 0.0732 0.43458 0.57782 0.0
C672 C 0.08979 0.44735 0.59758 0.0
C673 C 0.06631 0.40835 0.57225 0.0
H674 H 0.10113 0.39958 0.61757 0.0
H675 H 0.09479 0.46737 0.60216 0.0
O676 O 0.15524 0.48418 0.68853 0.0
O677 O 0.12909 0.43064 0.66041 0.0
O678 O 0.10051 0.4621 0.66347 0.0
O679 O 0.15401 0.48629 0.63367 0.0
H680 H 0.19542 0.49014 0.71586 0.0
H681 H 0.13088 0.50606 0.71186 0.0
H682 H 0.20674 0.51124 0.75679 0.0
H683 H 0.14304 0.52652 0.75296 0.0
H684 H 0.1736 0.39447 0.62343 0.0
H685 H 0.12989 0.40215 0.69787 0.0
H686 H 0.15296 0.42284 0.6227 0.0
H687 H 0.15087 0.37411 0.69732 0.0
H688 H 0.12486 0.42184 0.76825 0.0
H689 H 0.04581 0.38776 0.73794 0.0
H690 H 0.25333 0.50318 0.63066 0.0
H691 H 0.23253 0.45685 0.69728 0.0
H692 H 0.06779 0.46784 0.63372 0.0
H693 H 0.0899 0.46968 0.7091 0.0
H694 H 0.03409 0.47938 0.64681 0.0
H695 H 0.05605 0.48149 0.72086 0.0
H696 H 0.1427 0.52004 0.61185 0.0
H697 H 0.1658 0.46131 0.59974 0.0
H698 H 0.14241 0.52597 0.56694 0.0
H699 H 0.16493 0.4681 0.55503 0.0
H700 H 0.19223 0.58693 0.68476 0.0
H701 H 0.11817 0.56788 0.64998 0.0
H702 H 0.07195 0.37552 0.58274 0.0
H703 H 0.06569 0.44506 0.56711 0.0
Li704 Li 0.55372 0.70539 0.66776 0.0
Li705 Li 0.57317 0.68308 0.69035 0.0
Li706 Li 0.56678 0.67719 0.64497 0.0
Li707 Li 0.5299 0.65637 0.67339 0.0
C708 C 0.60934 0.73479 0.65686 0.0
N709 N 0.64923 0.78456 0.64266 0.0
C710 C 0.62664 0.75271 0.67425 0.0
C711 C 0.61273 0.74207 0.63217 0.0
C712 C 0.64657 0.7778 0.66673 0.0
C713 C 0.63289 0.76734 0.62538 0.0
C714 C 0.54299 0.69112 0.72259 0.0
C715 C 0.54279 0.67995 0.76512 0.0
N716 N 0.54875 0.70492 0.77151 0.0
C717 C 0.5489 0.71662 0.7296 0.0
C718 C 0.53969 0.67256 0.7405 0.0
C719 C 0.5518 0.72323 0.75442 0.0
C720 C 0.5225 0.72802 0.66171 0.0
N721 N 0.54807 0.73484 0.66618 0.0
C722 C 0.5607 0.78068 0.66897 0.0
C723 C 0.56714 0.76055 0.66989 0.0
C724 C 0.53442 0.77418 0.66417 0.0
C725 C 0.51522 0.74743 0.66053 0.0
H726 H 0.50769 0.70736 0.65924 0.0
H727 H 0.58721 0.76547 0.6739 0.0
C728 C 0.60335 0.668 0.71967 0.0
N729 N 0.59628 0.68679 0.7163 0.0
C730 C 0.62064 0.67065 0.73856 0.0
C731 C 0.62303 0.71195 0.74998 0.0
C732 C 0.6058 0.70852 0.7309 0.0
C733 C 0.6308 0.69295 0.75391 0.0
H734 H 0.59576 0.65109 0.70755 0.0
H735 H 0.59999 0.72323 0.72777 0.0
C736 C 0.52712 0.68299 0.62084 0.0
N737 N 0.51574 0.69541 0.57527 0.0
C738 C 0.50551 0.66394 0.60743 0.0
C739 C 0.54264 0.70847 0.6112 0.0
C740 C 0.50017 0.67055 0.58438 0.0
C741 C 0.53665 0.71435 0.58811 0.0
C742 C 0.54769 0.62336 0.67303 0.0
C743 C 0.54216 0.60725 0.6524 0.0
C744 C 0.5396 0.61171 0.69611 0.0
C745 C 0.52826 0.57968 0.65518 0.0
C746 C 0.52573 0.58407 0.69813 0.0
N747 N 0.52036 0.56876 0.67779 0.0
C748 C 0.60732 0.68307 0.613 0.0
C749 C 0.5635 0.65542 0.59847 0.0
C750 C 0.61778 0.67767 0.59224 0.0
N751 N 0.58064 0.67198 0.61564 0.0
C752 C 0.57305 0.64925 0.57759 0.0
C753 C 0.60049 0.66026 0.57442 0.0
H754 H 0.62044 0.69564 0.62728 0.0
H755 H 0.54237 0.64626 0.6014 0.0
C756 C 0.48256 0.62243 0.69891 0.0
N757 N 0.49584 0.62621 0.67751 0.0
C758 C 0.45643 0.60176 0.70117 0.0
C759 C 0.45842 0.58894 0.65948 0.0
C760 C 0.48458 0.60971 0.65813 0.0
C761 C 0.44376 0.5851 0.68105 0.0
H762 H 0.49197 0.63591 0.71399 0.0
H763 H 0.49571 0.6132 0.64137 0.0
O764 O 0.58987 0.71 0.66393 0.0
O765 O 0.54024 0.68435 0.69835 0.0
O766 O 0.53257 0.67678 0.64348 0.0
O767 O 0.56075 0.6504 0.67063 0.0
H768 H 0.62466 0.74742 0.69336 0.0
H769 H 0.60017 0.7283 0.6183 0.0
H770 H 0.65994 0.7919 0.68004 0.0
H771 H 0.63563 0.77322 0.60635 0.0
H772 H 0.54048 0.66583 0.77915 0.0
H773 H 0.5514 0.73122 0.71605 0.0
H774 H 0.53502 0.65273 0.73546 0.0
H775 H 0.55652 0.74293 0.76008 0.0
H776 H 0.57608 0.80107 0.67189 0.0
H777 H 0.49462 0.74146 0.65731 0.0
H778 H 0.62635 0.65569 0.74084 0.0
H779 H 0.63004 0.72923 0.76163 0.0
H780 H 0.493 0.64422 0.61467 0.0
H781 H 0.55888 0.7237 0.62154 0.0
H782 H 0.48361 0.65594 0.57377 0.0
H783 H 0.54855 0.734 0.58046 0.0
H784 H 0.54837 0.61589 0.63442 0.0
H785 H 0.54386 0.62388 0.71227 0.0
H786 H 0.52371 0.56697 0.63935 0.0
H787 H 0.5192 0.5748 0.71587 0.0
H788 H 0.63905 0.68624 0.59055 0.0
H789 H 0.55913 0.63576 0.56419 0.0
H790 H 0.44607 0.59928 0.71829 0.0
H791 H 0.44946 0.57686 0.6434 0.0
H792 H 0.19629 0.12791 0.95913 0.0
H793 H 0.19452 0.12861 0.03809 0.0
H794 H 0.17552 0.15538 0.95786 0.0
H795 H 0.17354 0.1559 0.03687 0.0
H796 H 0.14525 0.21527 0.02646 0.0
H797 H 0.17618 0.19828 0.02549 0.0
H798 H 0.13025 0.14422 0.96755 0.0
H799 H 0.09997 0.16158 0.96813 0.0
C800 C 0.19174 0.13422 0.97621 0.0
C801 C 0.19668 0.12584 -0.0013 0.0
C802 C 0.17983 0.1499 0.97549 0.0
C803 C 0.17253 0.15746 -0.00274 0.0
C804 C 0.17909 0.15056 0.01978 0.0
C805 C 0.19109 0.13491 0.02049 0.0
C806 C 0.1421 0.20007 0.01327 0.0
C807 C 0.1201 0.18956 -0.00248 0.0
C808 C 0.15967 0.19023 0.01283 0.0
C809 C 0.15567 0.16992 -0.00355 0.0
C810 C 0.13413 0.16011 0.98017 0.0
C811 C 0.11656 0.1698 0.98071 0.0
H812 H 0.85552 0.9505 0.9544 0.0
H813 H 0.80311 0.94442 0.01315 0.0
H814 H 0.87282 -0.0018 0.95227 0.0
H815 H 0.82006 0.99223 0.01067 0.0
H816 H 0.89128 0.07877 0.02293 0.0
H817 H 0.86369 0.03076 0.02162 0.0
H818 H 0.86212 0.03343 0.94272 0.0
H819 H 0.88955 0.08174 0.94398 0.0
C820 C 0.8475 0.95936 0.96667 0.0
C821 C 0.82822 0.94383 0.98414 0.0
C822 C 0.85717 0.98662 0.96525 0.0
C823 C 0.84784 -0.00104 0.98136 0.0
C824 C 0.82775 0.98326 -0.00184 0.0
C825 C 0.81794 0.95591 -0.00053 0.0
C826 C 0.88445 0.06927 0.00531 0.0
C827 C 0.89283 0.08412 0.98354 0.0
C828 C 0.86862 0.04169 0.00457 0.0
C829 C 0.86092 0.02832 0.98206 0.0
C830 C 0.86811 0.04321 0.96032 0.0
C831 C 0.88385 0.07084 0.96105 0.0
H832 H 0.936 0.81728 0.04066 0.0
H833 H 0.9438 0.83523 0.96339 0.0
H834 H 0.98389 0.83584 0.0436 0.0
H835 H 0.99168 0.85465 0.96649 0.0
H836 H 0.07697 0.87807 0.97552 0.0
H837 H 0.02906 0.84769 0.9743 0.0
H838 H 0.02036 0.88143 0.0417 0.0
H839 H 0.06813 0.91107 0.04328 0.0
C840 C 0.94787 0.82473 0.02422 0.0
C841 C 0.93618 0.82505 0.00184 0.0
C842 C 0.97532 0.83559 0.02595 0.0
C843 C 0.9916 0.84695 0.00534 0.0
C844 C 0.97971 0.84589 0.98268 0.0
C845 C 0.9523 0.83505 0.98096 0.0
C846 C 0.06484 0.87852 0.99034 0.0
C847 C 0.07621 0.89711 0.00936 0.0
C848 C 0.03741 0.8613 0.98954 0.0
C849 C 0.0209 0.86228 0.00781 0.0
C850 C 0.03251 0.87997 0.02746 0.0
C851 C 0.05985 0.89719 0.02822 0.0
H852 H 0.86669 0.47479 0.29029 0.0
H853 H 0.87333 0.47627 0.36908 0.0
H854 H 0.84549 0.5017 0.29285 0.0
H855 H 0.85337 0.5043 0.37154 0.0
H856 H 0.77629 0.50886 0.36574 0.0
H857 H 0.80815 0.49349 0.3656 0.0
H858 H 0.84741 0.54319 0.30297 0.0
H859 H 0.8147 0.55786 0.3026 0.0
C860 C 0.86412 0.48132 0.30812 0.0
C861 C 0.87128 0.47297 0.32949 0.0
C862 C 0.85226 0.49703 0.30958 0.0
C863 C 0.8474 0.50485 0.33244 0.0
C864 C 0.85641 0.4982 0.35368 0.0
C865 C 0.86816 0.48238 0.35223 0.0
C866 C 0.7918 0.51661 0.35201 0.0
C867 C 0.79275 0.53425 0.33396 0.0
C868 C 0.81032 0.50809 0.35212 0.0
C869 C 0.83032 0.51705 0.33422 0.0
C870 C 0.83207 0.53571 0.31685 0.0
C871 C 0.81349 0.54428 0.31676 0.0
H872 H 0.49126 0.27602 0.27749 0.0
H873 H 0.46741 0.28537 0.34998 0.0
H874 H 0.51418 0.32393 0.27174 0.0
H875 H 0.49117 0.33344 0.34451 0.0
H876 H 0.52731 0.42005 0.32266 0.0
H877 H 0.49549 0.37242 0.32181 0.0
H878 H 0.55546 0.35816 0.29071 0.0
H879 H 0.5872 0.40533 0.29191 0.0
C880 C 0.49034 0.28823 0.29198 0.0
C881 C 0.4777 0.2769 0.31429 0.0
C882 C 0.50374 0.31571 0.28878 0.0
C883 C 0.50481 0.33246 0.3078 0.0
C884 C 0.49064 0.32106 0.32947 0.0
C885 C 0.47724 0.29355 0.3327 0.0
C886 C 0.53365 0.40673 0.31558 0.0
C887 C 0.55986 0.41656 0.3074 0.0
C888 C 0.5154 0.37949 0.31503 0.0
C889 C 0.52294 0.36156 0.30612 0.0
C890 C 0.54885 0.37148 0.29723 0.0
C891 C 0.56709 0.39861 0.29791 0.0
H892 H 0.60189 0.14985 0.35115 0.0
H893 H 0.6132 0.20299 0.29136 0.0
H894 H 0.64983 0.16706 0.35269 0.0
H895 H 0.66098 0.22017 0.29288 0.0
H896 H 0.7447 0.2356 0.29191 0.0
H897 H 0.69662 0.20753 0.28745 0.0
H898 H 0.68703 0.21288 0.36523 0.0
H899 H 0.73502 0.24082 0.36967 0.0
C900 C 0.6146 0.16481 0.33805 0.0
C901 C 0.604 0.17529 0.32125 0.0
C902 C 0.64196 0.17472 0.33901 0.0
C903 C 0.65905 0.19495 0.32294 0.0
C904 C 0.64824 0.2044 0.30532 0.0
C905 C 0.62098 0.19476 0.30458 0.0
C906 C 0.73232 0.23023 0.30809 0.0
C907 C 0.74346 0.24047 0.33111 0.0
C908 C 0.70487 0.21434 0.30552 0.0
C909 C 0.68816 0.20817 0.32598 0.0
C910 C 0.69946 0.21715 0.34919 0.0
C911 C 0.72686 0.23329 0.35171 0.0
H912 H 0.46566 0.87389 0.63274 0.0
H913 H 0.4643 0.86518 0.71135 0.0
H914 H 0.49353 0.85391 0.62917 0.0
H915 H 0.49103 0.84386 0.70763 0.0
H916 H 0.54966 0.81614 0.69547 0.0
H917 H 0.53304 0.84727 0.69689 0.0
H918 H 0.48398 0.80896 0.63376 0.0
H919 H 0.50134 0.77874 0.6318 0.0
C920 C 0.47168 0.86818 0.64933 0.0
C921 C 0.4625 0.87092 0.67234 0.0
C922 C 0.48741 0.85639 0.64723 0.0
C923 C 0.49418 0.84692 0.66807 0.0
C924 C 0.48629 0.85104 0.6912 0.0
C925 C 0.47066 0.86296 0.69331 0.0
C926 C 0.53578 0.81481 0.68159 0.0
C927 C 0.5266 0.79484 0.66366 0.0
C928 C 0.52607 0.83246 0.68254 0.0
C929 C 0.50707 0.83052 0.66554 0.0
C930 C 0.49881 0.81125 0.647 0.0
C931 C 0.50849 0.79367 0.64605 0.0
H932 H 0.20758 0.74955 0.64609 0.0
H933 H 0.2623 0.74242 0.6945 0.0
H934 H 0.17763 0.70147 0.64835 0.0
H935 H 0.23322 0.69474 0.69599 0.0
H936 H 0.1721 0.61195 0.70872 0.0
H937 H 0.19163 0.66002 0.71072 0.0
H938 H 0.17724 0.66181 0.63335 0.0
H939 H 0.1569 0.61352 0.63168 0.0
C940 C 0.21308 0.73775 0.65736 0.0
C941 C 0.23741 0.7497 0.66991 0.0
C942 C 0.19606 0.71024 0.6585 0.0
C943 C 0.203 0.69424 0.67235 0.0
C944 C 0.22699 0.70642 0.68543 0.0
C945 C 0.24391 0.73377 0.68429 0.0
C946 C 0.1727 0.62265 0.69228 0.0
C947 C 0.16334 0.6092 0.67 0.0
C948 C 0.18397 0.65015 0.69337 0.0
C949 C 0.18648 0.66483 0.6721 0.0
C950 C 0.1755 0.65112 0.65011 0.0
C951 C 0.16391 0.62349 0.6491 0.0
H952 H 0.27358 0.49658 0.70756 0.0
H953 H 0.28438 0.48637 0.63089 0.0
H954 H 0.32117 0.51722 0.71401 0.0
H955 H 0.33226 0.50789 0.63727 0.0
H956 H 0.41733 0.53524 0.66056 0.0
H957 H 0.36934 0.50551 0.65817 0.0
H958 H 0.35716 0.56109 0.70068 0.0
H959 H 0.40468 0.59089 0.70266 0.0
C960 C 0.28603 0.49821 0.69216 0.0
C961 C 0.27521 0.48997 0.66866 0.0
C962 C 0.31334 0.5103 0.69584 0.0
C963 C 0.33044 0.51442 0.67611 0.0
C964 C 0.31955 0.50486 0.65286 0.0
C965 C 0.29218 0.49279 0.64915 0.0
C966 C 0.40439 0.54105 0.66945 0.0
C967 C 0.41491 0.5655 0.68178 0.0
C968 C 0.37695 0.524 0.66812 0.0
C969 C 0.35953 0.53096 0.67928 0.0
C970 C 0.37008 0.55494 0.69227 0.0
C971 C 0.3974 0.57202 0.69345 0.0
H972 H -0.00437 0.29096 0.87391 0.0
H973 H 0.07351 0.3456 0.9025 0.0
H974 H 0.00686 0.31661 0.8359 0.0
H975 H 0.0848 0.37049 0.86432 0.0
H976 H 0.105 0.3777 0.78219 0.0
H977 H 0.0897 0.35422 0.82084 0.0
H978 H 0.02215 0.36594 0.8197 0.0
H979 H 0.03798 0.39058 0.78117 0.0
C980 C 0.01493 0.30864 0.87228 0.0
C981 C 0.03384 0.31603 0.89108 0.0
C982 C 0.02132 0.32322 0.85053 0.0
C983 C 0.04676 0.34521 0.8472 0.0
C984 C 0.06519 0.35331 0.86637 0.0
C985 C 0.05874 0.33898 0.88814 0.0
C986 C 0.08706 0.37565 0.79024 0.0
C987 C 0.07299 0.38648 0.7788 0.0
C988 C 0.07828 0.36209 0.81231 0.0
C989 C 0.055 0.35867 0.82329 0.0
C990 C 0.0402 0.36843 0.81151 0.0
C991 C 0.04922 0.38239 0.78947 0.0
H992 H 0.68891 0.69961 0.89874 0.0
H993 H 0.75935 0.75539 0.85961 0.0
H994 H 0.66488 0.68429 0.86012 0.0
H995 H 0.7359 0.73939 0.82084 0.0
H996 H 0.67516 0.73872 0.76703 0.0
H997 H 0.70315 0.7464 0.80239 0.0
H998 H 0.65773 0.66306 0.82091 0.0
H999 H 0.62868 0.65566 0.78595 0.0
C1000 C 0.69939 0.70795 0.88175 0.0
C1001 C 0.72574 0.72884 0.88197 0.0
C1002 C 0.68573 0.69915 0.85962 0.0
C1003 C 0.69836 0.71093 0.83739 0.0
C1004 C 0.7254 0.73038 0.83767 0.0
C1005 C 0.73888 0.73945 0.85978 0.0
C1006 C 0.67111 0.72202 0.77864 0.0
C1007 C 0.64947 0.69669 0.77393 0.0
C1008 C 0.68744 0.72632 0.79873 0.0
C1009 C 0.68272 0.70533 0.81453 0.0
C1010 C 0.66173 0.6797 0.80924 0.0
C1011 C 0.64525 0.67541 0.78911 0.0
H1012 H 0.35621 0.95911 0.80117 0.0
H1013 H 0.28975 0.9592 0.7662 0.0
H1014 H 0.34599 0.97411 0.83932 0.0
H1015 H 0.27922 0.97365 0.80439 0.0
H1016 H 0.29341 0.9622 0.90789 0.0
H1017 H 0.30905 0.95317 0.86961 0.0
H1018 H 0.29691 0.01203 0.83296 0.0
H1019 H 0.28073 0.02066 0.87115 0.0
C1020 C 0.33962 0.96264 0.80159 0.0
C1021 C 0.32369 0.95791 0.7808 0.0
C1022 C 0.33365 0.97099 0.82343 0.0
C1023 C 0.31178 0.97495 0.82481 0.0
C1024 C 0.29634 0.97098 0.8038 0.0
C1025 C 0.3022 0.96246 0.78203 0.0
C1026 C 0.29414 0.97322 0.89165 0.0
C1027 C 0.28574 0.99202 0.89243 0.0
C1028 C 0.30335 0.96826 0.86982 0.0
C1029 C 0.30415 0.98188 0.84833 0.0
C1030 C 0.2963 0.0011 0.84923 0.0
C1031 C 0.28726 0.00619 0.8711 0.0
H1032 H 0.40738 0.04969 0.20499 0.0
H1033 H 0.33903 0.04426 0.24167 0.0
H1034 H 0.38053 0.02952 0.16854 0.0
H1035 H 0.31223 0.02377 0.20544 0.0
H1036 H 0.26731 0.97724 0.13885 0.0
H1037 H 0.2935 0.98522 0.17606 0.0
H1038 H 0.36138 0.04923 0.13998 0.0
H1039 H 0.33531 0.04188 0.10322 0.0
C1040 C 0.38657 0.04387 0.20539 0.0
C1041 C 0.37543 0.04894 0.22607 0.0
C1042 C 0.37122 0.03225 0.18458 0.0
C1043 C 0.3444 0.02532 0.18413 0.0
C1044 C 0.3328 0.02867 0.20537 0.0
C1045 C 0.34818 0.04043 0.22613 0.0
C1046 C 0.28786 0.99295 0.13884 0.0
C1047 C 0.29913 0.00906 0.11809 0.0
C1048 C 0.30284 -0.00262 0.16009 0.0
C1049 C 0.32943 0.01782 0.16087 0.0
C1050 C 0.34105 0.03304 0.13978 0.0
C1051 C 0.32605 0.02879 0.11867 0.0
H1052 H 0.02568 0.31585 0.12041 0.0
H1053 H 0.94746 0.2463 0.12152 0.0
H1054 H 0.01482 0.33222 0.1574 0.0
H1055 H 0.93691 0.26241 0.15844 0.0
H1056 H 0.93693 0.28326 0.23775 0.0
H1057 H 0.95183 0.26963 0.20183 0.0
H1058 H 0.98335 0.34807 0.17103 0.0
H1059 H 0.96818 0.36177 0.20706 0.0
C1060 C 0.00618 0.30414 0.12846 0.0
C1061 C 0.98753 0.27964 0.11819 0.0
C1062 C 1e-05 0.31349 0.14961 0.0
C1063 C 0.97515 0.29842 0.16089 0.0
C1064 C 0.95644 0.27416 0.15042 0.0
C1065 C 0.96252 0.26491 0.1293 0.0
C1066 C 0.94699 0.29761 0.22331 0.0
C1067 C 0.95103 0.32346 0.22503 0.0
C1068 C 0.95555 0.28981 0.20278 0.0
C1069 C 0.96842 0.3077 0.18354 0.0
C1070 C 0.97356 0.33392 0.18567 0.0
C1071 C 0.9649 0.34175 0.20626 0.0
H1072 H 0.65177 0.61751 0.20357 0.0
H1073 H 0.72114 0.6834 0.23585 0.0
H1074 H 0.65829 0.6438 0.16654 0.0
H1075 H 0.72768 0.70963 0.1989 0.0
H1076 H 0.72146 0.75578 0.13498 0.0
H1077 H 0.70594 0.73012 0.17278 0.0
H1078 H 0.69537 0.66052 0.13465 0.0
H1079 H 0.71169 0.68613 0.09716 0.0
C1080 C 0.66811 0.63776 0.20287 0.0
C1081 C 0.68607 0.64845 0.22241 0.0
C1082 C 0.67189 0.65271 0.18171 0.0
C1083 C 0.69348 0.67868 0.17992 0.0
C1084 C 0.71073 0.68974 0.19992 0.0
C1085 C 0.70715 0.67469 0.22092 0.0
C1086 C 0.71578 0.73499 0.13462 0.0
C1087 C 0.71811 0.72312 0.11304 0.0
C1088 C 0.70677 0.72032 0.15623 0.0
C1089 C 0.69956 0.69341 0.15658 0.0
C1090 C 0.7005 0.68117 0.13479 0.0
C1091 C 0.7098 0.69588 0.11327 0.0
H1092 H 0.06989 0.37737 0.53637 0.0
H1093 H 0.01985 0.40705 0.56327 0.0
H1094 H 0.03943 0.35621 0.50201 0.0
H1095 H 0.99 0.38669 0.52891 0.0
H1096 H 0.93078 0.33562 0.47451 0.0
H1097 H 0.95821 0.34427 0.51087 0.0
H1098 H 0.02778 0.37281 0.46512 0.0
H1099 H 0.00024 0.3638 0.42878 0.0
C1100 C 0.05226 0.37912 0.53504 0.0
C1101 C 0.04733 0.39406 0.55228 0.0
C1102 C 0.03495 0.36717 0.51536 0.0
C1103 C 0.01232 0.36976 0.51279 0.0
C1104 C 0.00705 0.38399 0.53053 0.0
C1105 C 0.02434 0.39598 0.55004 0.0
C1106 C 0.95188 0.34335 0.47227 0.0
C1107 C 0.96348 0.34942 0.44892 0.0
C1108 C 0.96757 0.34832 0.49303 0.0
C1109 C 0.99519 0.35962 0.49084 0.0
C1110 C 0.00654 0.36394 0.46739 0.0
C1111 C 0.99079 0.35883 0.44658 0.0
H1112 H 0.6542 0.58256 0.47248 0.0
H1113 H 0.65036 0.64328 0.43004 0.0
H1114 H 0.64198 0.59792 0.50913 0.0
H1115 H 0.63886 0.65897 0.46686 0.0
H1116 H 0.64107 0.69275 0.54389 0.0
H1117 H 0.65776 0.67969 0.50847 0.0
H1118 H 0.59992 0.59745 0.52194 0.0
H1119 H 0.58343 0.61045 0.55731 0.0
C1120 C 0.6508 0.59919 0.47095 0.0
C1121 C 0.65307 0.61156 0.44827 0.0
C1122 C 0.64392 0.60801 0.49195 0.0
C1123 C 0.63941 0.62954 0.49074 0.0
C1124 C 0.64252 0.6425 0.4683 0.0
C1125 C 0.64917 0.63353 0.44725 0.0
C1126 C 0.63209 0.6719 0.5393 0.0
C1127 C 0.61089 0.6526 0.55318 0.0
C1128 C 0.64152 0.66446 0.51903 0.0
C1129 C 0.63014 0.63758 0.51257 0.0
C1130 C 0.60921 0.61829 0.52668 0.0
C1131 C 0.5996 0.62574 0.54673 0.0
H1132 H 0.33024 0.97857 0.5514 0.0
H1133 H 0.40829 0.98686 0.55061 0.0
H1134 H 0.342 0.00725 0.51528 0.0
H1135 H 0.41969 0.0149 0.51454 0.0
H1136 H 0.41801 0.03382 0.43443 0.0
H1137 H 0.40376 0.00628 0.47095 0.0
H1138 H 0.37477 0.05528 0.50189 0.0
H1139 H 0.3895 0.08337 0.46527 0.0
C1140 C 0.34992 0.98664 0.54365 0.0
C1141 C 0.3682 0.98011 0.55362 0.0
C1142 C 0.3566 0.00301 0.52302 0.0
C1143 C 0.3816 0.01295 0.512 0.0
C1144 C 0.40007 0.00702 0.52238 0.0
C1145 C 0.39349 0.99088 0.54298 0.0
C1146 C 0.4088 0.03891 0.44907 0.0
C1147 C 0.4053 0.06105 0.44715 0.0
C1148 C 0.40057 0.02308 0.46993 0.0
C1149 C 0.38849 0.02889 0.48932 0.0
C1150 C 0.38399 0.05038 0.48712 0.0
C1151 C 0.39239 0.06639 0.4662 0.0
loop_
_geom_bond_atom_site_label_1
_geom_bond_atom_site_label_2
_geom_bond_distance
_geom_bond_site_symmetry_2
_ccdc_geom_bond_type
Li0 N17 1.990 . S
Li0 O60 1.956 . S
Li0 O61 1.971 1_455 S
Li0 O62 1.961 . S
Li1 N25 1.994 . S
Li1 O60 1.956 1_656 S
Li1 O61 1.956 1_556 S
Li1 O63 1.970 1_655 S
Li2 N47 1.990 . S
Li2 O60 1.961 . S
Li2 O62 1.956 . S
Li2 O63 1.970 1_554 S
Li3 N53 1.990 . S
Li3 O61 1.960 1_456 S
Li3 O62 1.970 1_556 S
Li3 O63 1.956 . S
C4 C6 1.348 1_455 S
C4 C7 1.356 . S
C4 O60 1.325 . S
N5 C8 1.314 . S
N5 C9 1.279 1_655 S
C6 C4 1.348 1_655 S
C6 C8 1.353 . S
C6 H64 0.929 . S
C7 C4 1.356 . S
C7 C9 1.358 . S
C7 H65 0.930 . S
C8 N5 1.314 . S
C8 C6 1.353 . S
C8 H66 0.930 . S
C9 N5 1.279 1_455 S
C9 C7 1.358 . S
C9 H67 0.930 . S
C10 C13 1.348 1_556 S
C10 C14 1.356 . S
C10 O61 1.325 1_556 S
C11 N12 1.279 . S
C11 C14 1.358 . S
C11 H68 0.930 . S
N12 C11 1.279 . S
N12 C15 1.314 1_556 S
C13 C10 1.348 1_554 S
C13 C15 1.353 . S
C13 H69 0.929 . S
C14 C10 1.356 . S
C14 C11 1.358 . S
C14 H70 0.930 . S
C15 N12 1.314 1_554 S
C15 C13 1.353 . S
C15 H71 0.930 . S
C16 N17 1.314 . S
C16 C21 1.353 . S
C16 H22 0.930 . S
N17 Li0 1.990 . S
N17 C16 1.314 . S
N17 C19 1.279 1_455 S
C18 C19 1.358 . S
C18 C20 1.356 . S
C18 H72 0.930 . S
C19 N17 1.279 1_655 S
C19 C18 1.358 . S
C19 H23 0.930 . S
C20 C18 1.356 . S
C20 C21 1.348 1_655 S
C21 C16 1.353 . S
C21 C20 1.348 1_455 S
C21 H73 0.929 . S
H22 C16 0.930 . S
H23 C19 0.930 . S
C24 N25 1.314 . S
C24 C26 1.353 . S
C24 H30 0.930 . S
N25 Li1 1.994 . S
N25 C24 1.314 . S
N25 C28 1.279 . S
C26 C24 1.353 . S
C26 C29 1.348 . S
C26 H74 0.929 . S
C27 C28 1.358 . S
C27 C29 1.356 . S
C27 H75 0.930 . S
C28 N25 1.279 . S
C28 C27 1.358 . S
C28 H31 0.930 . S
C29 C26 1.348 . S
C29 C27 1.356 . S
H30 C24 0.930 . S
H31 C28 0.930 . S
C32 C34 1.348 1_554 S
C32 C35 1.356 . S
C32 O62 1.325 . S
N33 C36 1.314 . S
N33 C37 1.279 . S
C34 C32 1.348 1_556 S
C34 C36 1.353 1_556 S
C34 H76 0.929 . S
C35 C32 1.356 . S
C35 C37 1.358 . S
C35 H77 0.930 . S
C36 N33 1.314 . S
C36 C34 1.353 1_554 S
C36 H78 0.930 1_554 S
C37 N33 1.279 . S
C37 C35 1.358 . S
C37 H79 0.930 . S
C38 C39 1.348 . S
C38 C40 1.356 . S
C38 O63 1.325 . S
C39 C38 1.348 . S
C39 C41 1.353 . S
C39 H80 0.929 . S
C40 C38 1.356 . S
C40 C42 1.358 . S
C40 H81 0.930 1_455 S
C41 C39 1.353 . S
C41 N43 1.314 . S
C41 H82 0.930 . S
C42 C40 1.358 . S
C42 N43 1.279 . S
C42 H83 0.930 1_455 S
N43 C41 1.314 . S
N43 C42 1.279 . S
C44 C46 1.353 . S
C44 N47 1.314 . S
C44 H50 0.930 . S
C45 N47 1.279 . S
C45 C48 1.358 . S
C45 H51 0.930 . S
C46 C44 1.353 . S
C46 C49 1.348 . S
C46 H84 0.929 . S
N47 Li2 1.990 . S
N47 C44 1.314 . S
N47 C45 1.279 . S
C48 C45 1.358 . S
C48 C49 1.356 . S
C48 H85 0.930 . S
C49 C46 1.348 . S
C49 C48 1.356 . S
H50 C44 0.930 . S
H51 C45 0.930 . S
C52 N53 1.314 . S
C52 C54 1.353 . S
C52 H58 0.930 . S
N53 Li3 1.990 . S
N53 C52 1.314 . S
N53 C56 1.279 . S
C54 C52 1.353 . S
C54 C57 1.348 . S
C54 H86 0.929 . S
C55 C56 1.358 . S
C55 C57 1.356 . S
C55 H87 0.930 . S
C56 N53 1.279 . S
C56 C55 1.358 . S
C56 H59 0.930 . S
C57 C54 1.348 . S
C57 C55 1.356 . S
H58 C52 0.930 . S
H59 C56 0.930 . S
O60 Li0 1.956 . S
O60 Li1 1.956 1_454 S
O60 Li2 1.961 . S
O60 C4 1.325 . S
O61 Li0 1.971 1_655 S
O61 Li1 1.956 1_554 S
O61 Li3 1.960 1_654 S
O61 C10 1.325 1_554 S
O62 Li0 1.961 . S
O62 Li2 1.956 . S
O62 Li3 1.970 1_554 S
O62 C32 1.325 . S
O63 Li1 1.970 1_455 S
O63 Li2 1.970 1_556 S
O63 Li3 1.956 . S
O63 C38 1.325 . S
H64 C6 0.929 . S
H65 C7 0.930 . S
H66 C8 0.930 . S
H67 C9 0.930 . S
H68 C11 0.930 . S
H69 C13 0.929 . S
H70 C14 0.930 . S
H71 C15 0.930 . S
H72 C18 0.930 . S
H73 C21 0.929 . S
H74 C26 0.929 . S
H75 C27 0.930 . S
H76 C34 0.929 . S
H77 C35 0.930 . S
H78 C36 0.930 1_556 S
H79 C37 0.930 . S
H80 C39 0.929 . S
H81 C40 0.930 1_655 S
H82 C41 0.930 . S
H83 C42 0.930 1_655 S
H84 C46 0.929 . S
H85 C48 0.930 . S
H86 C54 0.929 . S
H87 C55 0.930 . S
Li88 N105 1.994 . S
Li88 O148 1.956 1_556 S
Li88 O149 1.957 1_556 S
Li88 O150 1.970 . S
Li89 N113 1.990 . S
Li89 O148 1.972 . S
Li89 O149 1.956 . S
Li89 O151 1.961 . S
Li90 N135 1.990 . S
Li90 O148 1.960 1_556 S
Li90 O150 1.956 . S
Li90 O151 1.970 1_556 S
Li91 N141 1.990 . S
Li91 O149 1.961 . S
Li91 O150 1.970 1_554 S
Li91 O151 1.956 . S
C92 C94 1.348 1_556 S
C92 C95 1.356 . S
C92 O148 1.325 1_556 S
N93 C96 1.314 1_556 S
N93 C97 1.279 . S
C94 C92 1.348 1_554 S
C94 C96 1.353 . S
C94 H152 0.929 . S
C95 C92 1.356 . S
C95 C97 1.358 . S
C95 H153 0.930 . S
C96 N93 1.314 1_554 S
C96 C94 1.353 . S
C96 H154 0.930 . S
C97 N93 1.279 . S
C97 C95 1.358 . S
C97 H155 0.930 . S
C98 C101 1.348 . S
C98 C102 1.356 . S
C98 O149 1.325 . S
C99 N100 1.279 . S
C99 C102 1.358 . S
C99 H156 0.930 . S
N100 C99 1.279 . S
N100 C103 1.314 . S
C101 C98 1.348 . S
C101 C103 1.353 . S
C101 H157 0.929 . S
C102 C98 1.356 . S
C102 C99 1.358 . S
C102 H158 0.930 . S
C103 N100 1.314 . S
C103 C101 1.353 . S
C103 H159 0.930 . S
C104 N105 1.314 . S
C104 C109 1.353 . S
C104 H110 0.930 . S
N105 Li88 1.994 . S
N105 C104 1.314 . S
N105 C107 1.279 . S
C106 C107 1.358 . S
C106 C108 1.356 . S
C106 H160 0.930 . S
C107 N105 1.279 . S
C107 C106 1.358 . S
C107 H111 0.930 . S
C108 C106 1.356 . S
C108 C109 1.348 . S
C109 C104 1.353 . S
C109 C108 1.348 . S
C109 H161 0.929 . S
H110 C104 0.930 . S
H111 C107 0.930 . S
C112 N113 1.314 . S
C112 C114 1.353 . S
C112 H118 0.930 . S
N113 Li89 1.990 . S
N113 C112 1.314 . S
N113 C116 1.279 . S
C114 C112 1.353 . S
C114 C117 1.348 . S
C114 H162 0.929 . S
C115 C116 1.358 . S
C115 C117 1.356 . S
C115 H163 0.930 . S
C116 N113 1.279 . S
C116 C115 1.358 . S
C116 H119 0.930 . S
C117 C114 1.348 . S
C117 C115 1.356 . S
H118 C112 0.930 . S
H119 C116 0.930 . S
C120 C122 1.348 . S
C120 C123 1.356 . S
C120 O150 1.325 . S
N121 C124 1.314 . S
N121 C125 1.279 . S
C122 C120 1.348 . S
C122 C124 1.353 . S
C122 H164 0.929 . S
C123 C120 1.356 . S
C123 C125 1.358 . S
C123 H165 0.930 . S
C124 N121 1.314 . S
C124 C122 1.353 . S
C124 H166 0.930 . S
C125 N121 1.279 . S
C125 C123 1.358 . S
C125 H167 0.930 . S
C126 C127 1.348 1_554 S
C126 C128 1.356 . S
C126 O151 1.325 . S
C127 C126 1.348 1_556 S
C127 C129 1.353 1_556 S
C127 H168 0.929 . S
C128 C126 1.356 . S
C128 C130 1.358 . S
C128 H169 0.930 . S
C129 C127 1.353 1_554 S
C129 N131 1.314 . S
C129 H170 0.930 1_554 S
C130 C128 1.358 . S
C130 N131 1.279 . S
C130 H171 0.930 . S
N131 C129 1.314 . S
N131 C130 1.279 . S
C132 C134 1.353 . S
C132 N135 1.314 . S
C132 H138 0.930 . S
C133 N135 1.279 . S
C133 C136 1.358 . S
C133 H139 0.930 . S
C134 C132 1.353 . S
C134 C137 1.348 . S
C134 H172 0.929 . S
N135 Li90 1.990 . S
N135 C132 1.314 . S
N135 C133 1.279 . S
C136 C133 1.358 . S
C136 C137 1.356 . S
C136 H173 0.930 . S
C137 C134 1.348 . S
C137 C136 1.356 . S
H138 C132 0.930 . S
H139 C133 0.930 . S
C140 N141 1.314 . S
C140 C142 1.353 . S
C140 H146 0.930 . S
N141 Li91 1.990 . S
N141 C140 1.314 . S
N141 C144 1.279 . S
C142 C140 1.353 . S
C142 C145 1.348 . S
C142 H174 0.929 . S
C143 C144 1.358 . S
C143 C145 1.356 . S
C143 H175 0.930 . S
C144 N141 1.279 . S
C144 C143 1.358 . S
C144 H147 0.930 . S
C145 C142 1.348 . S
C145 C143 1.356 . S
H146 C140 0.930 . S
H147 C144 0.930 . S
O148 Li88 1.956 1_554 S
O148 Li89 1.972 . S
O148 Li90 1.960 1_554 S
O148 C92 1.325 1_554 S
O149 Li88 1.957 1_554 S
O149 Li89 1.956 . S
O149 Li91 1.961 . S
O149 C98 1.325 . S
O150 Li88 1.970 . S
O150 Li90 1.956 . S
O150 Li91 1.970 1_556 S
O150 C120 1.325 . S
O151 Li89 1.961 . S
O151 Li90 1.970 1_554 S
O151 Li91 1.956 . S
O151 C126 1.325 . S
H152 C94 0.929 . S
H153 C95 0.930 . S
H154 C96 0.930 . S
H155 C97 0.930 . S
H156 C99 0.930 . S
H157 C101 0.929 . S
H158 C102 0.930 . S
H159 C103 0.930 . S
H160 C106 0.930 . S
H161 C109 0.929 . S
H162 C114 0.929 . S
H163 C115 0.930 . S
H164 C122 0.929 . S
H165 C123 0.930 . S
H166 C124 0.930 . S
H167 C125 0.930 . S
H168 C127 0.929 . S
H169 C128 0.930 . S
H170 C129 0.930 1_556 S
H171 C130 0.930 . S
H172 C134 0.929 . S
H173 C136 0.930 . S
H174 C142 0.929 . S
H175 C143 0.930 . S
Li176 N193 1.994 . S
Li176 O236 1.956 1_556 S
Li176 O237 1.957 1_556 S
Li176 O238 1.970 . S
Li177 N201 1.990 . S
Li177 O236 1.971 . S
Li177 O237 1.956 . S
Li177 O239 1.961 1_545 S
Li178 N223 1.990 . S
Li178 O236 1.960 1_556 S
Li178 O238 1.956 . S
Li178 O239 1.970 1_546 S
Li179 N229 1.990 . S
Li179 O237 1.961 1_565 S
Li179 O238 1.970 1_564 S
Li179 O239 1.956 . S
C180 C182 1.348 1_556 S
C180 C183 1.356 . S
C180 O236 1.325 1_556 S
N181 C184 1.314 1_556 S
N181 C185 1.279 . S
C182 C180 1.348 1_554 S
C182 C184 1.353 . S
C182 H240 0.929 . S
C183 C180 1.356 . S
C183 C185 1.358 . S
C183 H241 0.930 . S
C184 N181 1.314 1_554 S
C184 C182 1.353 . S
C184 H242 0.930 . S
C185 N181 1.279 . S
C185 C183 1.358 . S
C185 H243 0.930 . S
C186 C189 1.348 . S
C186 C190 1.356 . S
C186 O237 1.325 . S
C187 N188 1.279 . S
C187 C190 1.358 . S
C187 H244 0.930 1_545 S
N188 C187 1.279 . S
N188 C191 1.314 . S
C189 C186 1.348 . S
C189 C191 1.353 . S
C189 H245 0.929 . S
C190 C186 1.356 . S
C190 C187 1.358 . S
C190 H246 0.930 1_545 S
C191 N188 1.314 . S
C191 C189 1.353 . S
C191 H247 0.930 . S
C192 N193 1.314 . S
C192 C197 1.353 . S
C192 H198 0.930 . S
N193 Li176 1.994 . S
N193 C192 1.314 . S
N193 C195 1.279 . S
C194 C195 1.358 . S
C194 C196 1.356 . S
C194 H248 0.930 . S
C195 N193 1.279 . S
C195 C194 1.358 . S
C195 H199 0.930 . S
C196 C194 1.356 . S
C196 C197 1.348 . S
C197 C192 1.353 . S
C197 C196 1.348 . S
C197 H249 0.929 . S
H198 C192 0.930 . S
H199 C195 0.930 . S
C200 N201 1.314 . S
C200 C202 1.353 . S
C200 H206 0.930 . S
N201 Li177 1.990 . S
N201 C200 1.314 . S
N201 C204 1.279 . S
C202 C200 1.353 . S
C202 C205 1.348 . S
C202 H250 0.929 . S
C203 C204 1.358 . S
C203 C205 1.356 . S
C203 H251 0.930 . S
C204 N201 1.279 . S
C204 C203 1.358 . S
C204 H207 0.930 . S
C205 C202 1.348 . S
C205 C203 1.356 . S
H206 C200 0.930 . S
H207 C204 0.930 . S
C208 C210 1.348 1_545 S
C208 C211 1.356 . S
C208 O238 1.325 . S
N209 C212 1.314 . S
N209 C213 1.279 1_565 S
C210 C208 1.348 1_565 S
C210 C212 1.353 . S
C210 H252 0.929 . S
C211 C208 1.356 . S
C211 C213 1.358 . S
C211 H253 0.930 . S
C212 N209 1.314 . S
C212 C210 1.353 . S
C212 H254 0.930 . S
C213 N209 1.279 1_545 S
C213 C211 1.358 . S
C213 H255 0.930 . S
C214 C215 1.348 1_554 S
C214 C216 1.356 . S
C214 O239 1.325 . S
C215 C214 1.348 1_556 S
C215 C217 1.353 1_556 S
C215 H256 0.929 . S
C216 C214 1.356 . S
C216 C218 1.358 . S
C216 H257 0.930 . S
C217 C215 1.353 1_554 S
C217 N219 1.314 . S
C217 H258 0.930 1_554 S
C218 C216 1.358 . S
C218 N219 1.279 . S
C218 H259 0.930 . S
N219 C217 1.314 . S
N219 C218 1.279 . S
C220 C222 1.353 . S
C220 N223 1.314 . S
C220 H226 0.930 . S
C221 N223 1.279 1_565 S
C221 C224 1.358 . S
C221 H227 0.930 . S
C222 C220 1.353 . S
C222 C225 1.348 1_545 S
C222 H260 0.929 . S
N223 Li178 1.990 . S
N223 C220 1.314 . S
N223 C221 1.279 1_545 S
C224 C221 1.358 . S
C224 C225 1.356 . S
C224 H261 0.930 . S
C225 C222 1.348 1_565 S
C225 C224 1.356 . S
H226 C220 0.930 . S
H227 C221 0.930 . S
C228 N229 1.314 . S
C228 C230 1.353 . S
C228 H234 0.930 . S
N229 Li179 1.990 . S
N229 C228 1.314 . S
N229 C232 1.279 . S
C230 C228 1.353 . S
C230 C233 1.348 . S
C230 H262 0.929 . S
C231 C232 1.358 . S
C231 C233 1.356 . S
C231 H263 0.930 . S
C232 N229 1.279 . S
C232 C231 1.358 . S
C232 H235 0.930 . S
C233 C230 1.348 . S
C233 C231 1.356 . S
H234 C228 0.930 . S
H235 C232 0.930 . S
O236 Li176 1.956 1_554 S
O236 Li177 1.971 . S
O236 Li178 1.960 1_554 S
O236 C180 1.325 1_554 S
O237 Li176 1.957 1_554 S
O237 Li177 1.956 . S
O237 Li179 1.961 1_545 S
O237 C186 1.325 . S
O238 Li176 1.970 . S
O238 Li178 1.956 . S
O238 Li179 1.970 1_546 S
O238 C208 1.325 . S
O239 Li177 1.961 1_565 S
O239 Li178 1.970 1_564 S
O239 Li179 1.956 . S
O239 C214 1.325 . S
H240 C182 0.929 . S
H241 C183 0.930 . S
H242 C184 0.930 . S
H243 C185 0.930 . S
H244 C187 0.930 1_565 S
H245 C189 0.929 . S
H246 C190 0.930 1_565 S
H247 C191 0.930 . S
H248 C194 0.930 . S
H249 C197 0.929 . S
H250 C202 0.929 . S
H251 C203 0.930 . S
H252 C210 0.929 . S
H253 C211 0.930 . S
H254 C212 0.930 . S
H255 C213 0.930 . S
H256 C215 0.929 . S
H257 C216 0.930 . S
H258 C217 0.930 1_556 S
H259 C218 0.930 . S
H260 C222 0.929 . S
H261 C224 0.930 . S
H262 C230 0.929 . S
H263 C231 0.930 . S
Li264 N281 1.990 . S
Li264 O324 1.956 . S
Li264 O325 1.970 . S
Li264 O326 1.961 . S
Li265 N289 1.990 . S
Li265 O324 1.970 . S
Li265 O325 1.956 . S
Li265 O327 1.961 . S
Li266 N311 1.990 . S
Li266 O324 1.961 . S
Li266 O326 1.956 . S
Li266 O327 1.970 . S
Li267 N317 1.990 . S
Li267 O325 1.961 . S
Li267 O326 1.970 . S
Li267 O327 1.956 . S
C268 C270 1.348 . S
C268 C271 1.356 . S
C268 O324 1.325 . S
N269 C272 1.314 . S
N269 C273 1.279 . S
C270 C268 1.348 . S
C270 C272 1.353 . S
C270 H328 0.929 . S
C271 C268 1.356 . S
C271 C273 1.358 . S
C271 H329 0.930 . S
C272 N269 1.314 . S
C272 C270 1.353 . S
C272 H330 0.930 . S
C273 N269 1.279 . S
C273 C271 1.358 . S
C273 H331 0.930 . S
C274 C277 1.348 . S
C274 C278 1.356 . S
C274 O325 1.325 . S
C275 N276 1.279 . S
C275 C278 1.358 . S
C275 H332 0.930 . S
N276 C275 1.279 . S
N276 C279 1.314 . S
C277 C274 1.348 . S
C277 C279 1.353 . S
C277 H333 0.929 . S
C278 C274 1.356 . S
C278 C275 1.358 . S
C278 H334 0.930 . S
C279 N276 1.314 . S
C279 C277 1.353 . S
C279 H335 0.930 . S
C280 N281 1.314 . S
C280 C285 1.353 . S
C280 H286 0.930 . S
N281 Li264 1.990 . S
N281 C280 1.314 . S
N281 C283 1.279 . S
C282 C283 1.358 . S
C282 C284 1.356 . S
C282 H336 0.930 . S
C283 N281 1.279 . S
C283 C282 1.358 . S
C283 H287 0.930 . S
C284 C282 1.356 . S
C284 C285 1.348 . S
C285 C280 1.353 . S
C285 C284 1.348 . S
C285 H337 0.929 . S
H286 C280 0.930 . S
H287 C283 0.930 . S
C288 N289 1.314 . S
C288 C290 1.353 . S
C288 H294 0.930 . S
N289 Li265 1.990 . S
N289 C288 1.314 . S
N289 C292 1.279 . S
C290 C288 1.353 . S
C290 C293 1.348 . S
C290 H338 0.929 . S
C291 C292 1.358 . S
C291 C293 1.356 . S
C291 H339 0.930 . S
C292 N289 1.279 . S
C292 C291 1.358 . S
C292 H295 0.930 . S
C293 C290 1.348 . S
C293 C291 1.356 . S
H294 C288 0.930 . S
H295 C292 0.930 . S
C296 C298 1.348 . S
C296 C299 1.356 . S
C296 O326 1.325 . S
N297 C300 1.314 . S
N297 C301 1.279 . S
C298 C296 1.348 . S
C298 C300 1.353 . S
C298 H340 0.929 . S
C299 C296 1.356 . S
C299 C301 1.358 . S
C299 H341 0.930 . S
C300 N297 1.314 . S
C300 C298 1.353 . S
C300 H342 0.930 . S
C301 N297 1.279 . S
C301 C299 1.358 . S
C301 H343 0.930 . S
C302 C303 1.348 . S
C302 C304 1.356 . S
C302 O327 1.325 . S
C303 C302 1.348 . S
C303 C305 1.353 . S
C303 H344 0.929 . S
C304 C302 1.356 . S
C304 C306 1.358 . S
C304 H345 0.930 . S
C305 C303 1.353 . S
C305 N307 1.314 . S
C305 H346 0.930 . S
C306 C304 1.358 . S
C306 N307 1.279 . S
C306 H347 0.930 . S
N307 C305 1.314 . S
N307 C306 1.279 . S
C308 C310 1.353 . S
C308 N311 1.314 . S
C308 H314 0.930 . S
C309 N311 1.279 . S
C309 C312 1.358 . S
C309 H315 0.930 . S
C310 C308 1.353 . S
C310 C313 1.348 . S
C310 H348 0.929 . S
N311 Li266 1.990 . S
N311 C308 1.314 . S
N311 C309 1.279 . S
C312 C309 1.358 . S
C312 C313 1.356 . S
C312 H349 0.930 . S
C313 C310 1.348 . S
C313 C312 1.356 . S
H314 C308 0.930 . S
H315 C309 0.930 . S
C316 N317 1.314 . S
C316 C318 1.353 . S
C316 H322 0.930 . S
N317 Li267 1.990 . S
N317 C316 1.314 . S
N317 C320 1.279 . S
C318 C316 1.353 . S
C318 C321 1.348 . S
C318 H350 0.929 . S
C319 C320 1.358 . S
C319 C321 1.356 . S
C319 H351 0.930 . S
C320 N317 1.279 . S
C320 C319 1.358 . S
C320 H323 0.930 . S
C321 C318 1.348 . S
C321 C319 1.356 . S
H322 C316 0.930 . S
H323 C320 0.930 . S
O324 Li264 1.956 . S
O324 Li265 1.970 . S
O324 Li266 1.961 . S
O324 C268 1.325 . S
O325 Li264 1.970 . S
O325 Li265 1.956 . S
O325 Li267 1.961 . S
O325 C274 1.325 . S
O326 Li264 1.961 . S
O326 Li266 1.956 . S
O326 Li267 1.970 . S
O326 C296 1.325 . S
O327 Li265 1.961 . S
O327 Li266 1.970 . S
O327 Li267 1.956 . S
O327 C302 1.325 . S
H328 C270 0.929 . S
H329 C271 0.930 . S
H330 C272 0.930 . S
H331 C273 0.930 . S
H332 C275 0.930 . S
H333 C277 0.929 . S
H334 C278 0.930 . S
H335 C279 0.930 . S
H336 C282 0.930 . S
H337 C285 0.929 . S
H338 C290 0.929 . S
H339 C291 0.930 . S
H340 C298 0.929 . S
H341 C299 0.930 . S
H342 C300 0.930 . S
H343 C301 0.930 . S
H344 C303 0.929 . S
H345 C304 0.930 . S
H346 C305 0.930 . S
H347 C306 0.930 . S
H348 C310 0.929 . S
H349 C312 0.930 . S
H350 C318 0.929 . S
H351 C319 0.930 . S
Li352 N369 1.990 . S
Li352 O412 1.956 . S
Li352 O413 1.970 . S
Li352 O414 1.961 . S
Li353 N377 1.990 . S
Li353 O412 1.970 . S
Li353 O413 1.956 . S
Li353 O415 1.961 . S
Li354 N399 1.990 . S
Li354 O412 1.961 . S
Li354 O414 1.956 . S
Li354 O415 1.970 . S
Li355 N405 1.990 . S
Li355 O413 1.961 . S
Li355 O414 1.970 . S
Li355 O415 1.956 . S
C356 C358 1.348 . S
C356 C359 1.356 . S
C356 O412 1.325 . S
N357 C360 1.314 . S
N357 C361 1.279 . S
C358 C356 1.348 . S
C358 C360 1.353 . S
C358 H416 0.929 . S
C359 C356 1.356 . S
C359 C361 1.358 . S
C359 H417 0.930 . S
C360 N357 1.314 . S
C360 C358 1.353 . S
C360 H418 0.930 . S
C361 N357 1.279 . S
C361 C359 1.358 . S
C361 H419 0.930 . S
C362 C365 1.348 . S
C362 C366 1.356 . S
C362 O413 1.325 . S
C363 N364 1.279 . S
C363 C366 1.358 . S
C363 H420 0.930 . S
N364 C363 1.279 . S
N364 C367 1.314 . S
C365 C362 1.348 . S
C365 C367 1.353 . S
C365 H421 0.929 . S
C366 C362 1.356 . S
C366 C363 1.358 . S
C366 H422 0.930 . S
C367 N364 1.314 . S
C367 C365 1.353 . S
C367 H423 0.930 . S
C368 N369 1.314 . S
C368 C373 1.353 . S
C368 H374 0.930 . S
N369 Li352 1.990 . S
N369 C368 1.314 . S
N369 C371 1.279 . S
C370 C371 1.358 . S
C370 C372 1.356 . S
C370 H424 0.930 . S
C371 N369 1.279 . S
C371 C370 1.358 . S
C371 H375 0.930 . S
C372 C370 1.356 . S
C372 C373 1.348 . S
C373 C368 1.353 . S
C373 C372 1.348 . S
C373 H425 0.929 . S
H374 C368 0.930 . S
H375 C371 0.930 . S
C376 N377 1.314 . S
C376 C378 1.353 . S
C376 H382 0.930 . S
N377 Li353 1.990 . S
N377 C376 1.314 . S
N377 C380 1.279 . S
C378 C376 1.353 . S
C378 C381 1.348 . S
C378 H426 0.929 . S
C379 C380 1.358 . S
C379 C381 1.356 . S
C379 H427 0.930 . S
C380 N377 1.279 . S
C380 C379 1.358 . S
C380 H383 0.930 . S
C381 C378 1.348 . S
C381 C379 1.356 . S
H382 C376 0.930 . S
H383 C380 0.930 . S
C384 C386 1.348 . S
C384 C387 1.356 . S
C384 O414 1.325 . S
N385 C388 1.314 . S
N385 C389 1.279 . S
C386 C384 1.348 . S
C386 C388 1.353 . S
C386 H428 0.929 . S
C387 C384 1.356 . S
C387 C389 1.358 . S
C387 H429 0.930 . S
C388 N385 1.314 . S
C388 C386 1.353 . S
C388 H430 0.930 . S
C389 N385 1.279 . S
C389 C387 1.358 . S
C389 H431 0.930 . S
C390 C391 1.348 . S
C390 C392 1.356 . S
C390 O415 1.325 . S
C391 C390 1.348 . S
C391 C393 1.353 . S
C391 H432 0.929 . S
C392 C390 1.356 . S
C392 C394 1.358 . S
C392 H433 0.930 . S
C393 C391 1.353 . S
C393 N395 1.314 . S
C393 H434 0.930 . S
C394 C392 1.358 . S
C394 N395 1.279 . S
C394 H435 0.930 . S
N395 C393 1.314 . S
N395 C394 1.279 . S
C396 C398 1.353 . S
C396 N399 1.314 . S
C396 H402 0.930 . S
C397 N399 1.279 . S
C397 C400 1.358 . S
C397 H403 0.930 . S
C398 C396 1.353 . S
C398 C401 1.348 . S
C398 H436 0.929 . S
N399 Li354 1.990 . S
N399 C396 1.314 . S
N399 C397 1.279 . S
C400 C397 1.358 . S
C400 C401 1.356 . S
C400 H437 0.930 . S
C401 C398 1.348 . S
C401 C400 1.356 . S
H402 C396 0.930 . S
H403 C397 0.930 . S
C404 N405 1.314 . S
C404 C406 1.353 . S
C404 H410 0.930 . S
N405 Li355 1.990 . S
N405 C404 1.314 . S
N405 C408 1.279 . S
C406 C404 1.353 . S
C406 C409 1.348 . S
C406 H438 0.929 . S
C407 C408 1.358 . S
C407 C409 1.356 . S
C407 H439 0.930 . S
C408 N405 1.279 . S
C408 C407 1.358 . S
C408 H411 0.930 . S
C409 C406 1.348 . S
C409 C407 1.356 . S
H410 C404 0.930 . S
H411 C408 0.930 . S
O412 Li352 1.956 . S
O412 Li353 1.970 . S
O412 Li354 1.961 . S
O412 C356 1.325 . S
O413 Li352 1.970 . S
O413 Li353 1.956 . S
O413 Li355 1.961 . S
O413 C362 1.325 . S
O414 Li352 1.961 . S
O414 Li354 1.956 . S
O414 Li355 1.970 . S
O414 C384 1.325 . S
O415 Li353 1.961 . S
O415 Li354 1.970 . S
O415 Li355 1.956 . S
O415 C390 1.325 . S
H416 C358 0.929 . S
H417 C359 0.930 . S
H418 C360 0.930 . S
H419 C361 0.930 . S
H420 C363 0.930 . S
H421 C365 0.929 . S
H422 C366 0.930 . S
H423 C367 0.930 . S
H424 C370 0.930 . S
H425 C373 0.929 . S
H426 C378 0.929 . S
H427 C379 0.930 . S
H428 C386 0.929 . S
H429 C387 0.930 . S
H430 C388 0.930 . S
H431 C389 0.930 . S
H432 C391 0.929 . S
H433 C392 0.930 . S
H434 C393 0.930 . S
H435 C394 0.930 . S
H436 C398 0.929 . S
H437 C400 0.930 . S
H438 C406 0.929 . S
H439 C407 0.930 . S
Li440 N457 1.990 . S
Li440 O500 1.956 . S
Li440 O501 1.970 . S
Li440 O502 1.961 . S
Li441 N465 1.990 . S
Li441 O500 1.970 . S
Li441 O501 1.956 . S
Li441 O503 1.961 . S
Li442 N487 1.990 . S
Li442 O500 1.961 . S
Li442 O502 1.956 . S
Li442 O503 1.970 . S
Li443 N493 1.990 . S
Li443 O501 1.961 . S
Li443 O502 1.970 . S
Li443 O503 1.956 . S
C444 C446 1.348 . S
C444 C447 1.356 . S
C444 O500 1.325 . S
N445 C448 1.314 . S
N445 C449 1.279 . S
C446 C444 1.348 . S
C446 C448 1.353 . S
C446 H504 0.929 . S
C447 C444 1.356 . S
C447 C449 1.358 . S
C447 H505 0.930 . S
C448 N445 1.314 . S
C448 C446 1.353 . S
C448 H506 0.930 . S
C449 N445 1.279 . S
C449 C447 1.358 . S
C449 H507 0.930 . S
C450 C453 1.348 . S
C450 C454 1.356 . S
C450 O501 1.325 . S
C451 N452 1.279 . S
C451 C454 1.358 . S
C451 H508 0.930 . S
N452 C451 1.279 . S
N452 C455 1.314 . S
C453 C450 1.348 . S
C453 C455 1.353 . S
C453 H509 0.929 . S
C454 C450 1.356 . S
C454 C451 1.358 . S
C454 H510 0.930 . S
C455 N452 1.314 . S
C455 C453 1.353 . S
C455 H511 0.930 . S
C456 N457 1.314 . S
C456 C461 1.353 . S
C456 H462 0.930 . S
N457 Li440 1.990 . S
N457 C456 1.314 . S
N457 C459 1.279 . S
C458 C459 1.358 . S
C458 C460 1.356 . S
C458 H512 0.930 . S
C459 N457 1.279 . S
C459 C458 1.358 . S
C459 H463 0.930 . S
C460 C458 1.356 . S
C460 C461 1.348 . S
C461 C456 1.353 . S
C461 C460 1.348 . S
C461 H513 0.929 . S
H462 C456 0.930 . S
H463 C459 0.930 . S
C464 N465 1.314 . S
C464 C466 1.353 . S
C464 H470 0.930 . S
N465 Li441 1.990 . S
N465 C464 1.314 . S
N465 C468 1.279 . S
C466 C464 1.353 . S
C466 C469 1.348 . S
C466 H514 0.929 . S
C467 C468 1.358 . S
C467 C469 1.356 . S
C467 H515 0.930 . S
C468 N465 1.279 . S
C468 C467 1.358 . S
C468 H471 0.930 . S
C469 C466 1.348 . S
C469 C467 1.356 . S
H470 C464 0.930 . S
H471 C468 0.930 . S
C472 C474 1.348 . S
C472 C475 1.356 . S
C472 O502 1.325 . S
N473 C476 1.314 . S
N473 C477 1.279 . S
C474 C472 1.348 . S
C474 C476 1.353 . S
C474 H516 0.929 . S
C475 C472 1.356 . S
C475 C477 1.358 . S
C475 H517 0.930 . S
C476 N473 1.314 . S
C476 C474 1.353 . S
C476 H518 0.930 . S
C477 N473 1.279 . S
C477 C475 1.358 . S
C477 H519 0.930 . S
C478 C479 1.348 . S
C478 C480 1.356 . S
C478 O503 1.325 . S
C479 C478 1.348 . S
C479 C481 1.353 . S
C479 H520 0.929 . S
C480 C478 1.356 . S
C480 C482 1.358 . S
C480 H521 0.930 . S
C481 C479 1.353 . S
C481 N483 1.314 . S
C481 H522 0.930 . S
C482 C480 1.358 . S
C482 N483 1.279 . S
C482 H523 0.930 . S
N483 C481 1.314 . S
N483 C482 1.279 . S
C484 C486 1.353 . S
C484 N487 1.314 . S
C484 H490 0.930 . S
C485 N487 1.279 . S
C485 C488 1.358 . S
C485 H491 0.930 . S
C486 C484 1.353 . S
C486 C489 1.348 . S
C486 H524 0.929 . S
N487 Li442 1.990 . S
N487 C484 1.314 . S
N487 C485 1.279 . S
C488 C485 1.358 . S
C488 C489 1.356 . S
C488 H525 0.930 . S
C489 C486 1.348 . S
C489 C488 1.356 . S
H490 C484 0.930 . S
H491 C485 0.930 . S
C492 N493 1.314 . S
C492 C494 1.353 . S
C492 H498 0.930 . S
N493 Li443 1.990 . S
N493 C492 1.314 . S
N493 C496 1.279 . S
C494 C492 1.353 . S
C494 C497 1.348 . S
C494 H526 0.929 . S
C495 C496 1.358 . S
C495 C497 1.356 . S
C495 H527 0.930 . S
C496 N493 1.279 . S
C496 C495 1.358 . S
C496 H499 0.930 . S
C497 C494 1.348 . S
C497 C495 1.356 . S
H498 C492 0.930 . S
H499 C496 0.930 . S
O500 Li440 1.956 . S
O500 Li441 1.970 . S
O500 Li442 1.961 . S
O500 C444 1.325 . S
O501 Li440 1.970 . S
O501 Li441 1.956 . S
O501 Li443 1.961 . S
O501 C450 1.325 . S
O502 Li440 1.961 . S
O502 Li442 1.956 . S
O502 Li443 1.970 . S
O502 C472 1.325 . S
O503 Li441 1.961 . S
O503 Li442 1.970 . S
O503 Li443 1.956 . S
O503 C478 1.325 . S
H504 C446 0.929 . S
H505 C447 0.930 . S
H506 C448 0.930 . S
H507 C449 0.930 . S
H508 C451 0.930 . S
H509 C453 0.929 . S
H510 C454 0.930 . S
H511 C455 0.930 . S
H512 C458 0.930 . S
H513 C461 0.929 . S
H514 C466 0.929 . S
H515 C467 0.930 . S
H516 C474 0.929 . S
H517 C475 0.930 . S
H518 C476 0.930 . S
H519 C477 0.930 . S
H520 C479 0.929 . S
H521 C480 0.930 . S
H522 C481 0.930 . S
H523 C482 0.930 . S
H524 C486 0.929 . S
H525 C488 0.930 . S
H526 C494 0.929 . S
H527 C495 0.930 . S
Li528 N545 1.990 . S
Li528 O588 1.956 . S
Li528 O589 1.970 . S
Li528 O590 1.961 . S
Li529 N553 1.990 . S
Li529 O588 1.970 . S
Li529 O589 1.956 . S
Li529 O591 1.961 . S
Li530 N575 1.990 . S
Li530 O588 1.961 . S
Li530 O590 1.956 . S
Li530 O591 1.970 . S
Li531 N581 1.990 . S
Li531 O589 1.961 . S
Li531 O590 1.970 . S
Li531 O591 1.956 . S
C532 C534 1.348 . S
C532 C535 1.356 . S
C532 O588 1.325 . S
N533 C536 1.314 . S
N533 C537 1.279 . S
C534 C532 1.348 . S
C534 C536 1.353 . S
C534 H592 0.929 . S
C535 C532 1.356 . S
C535 C537 1.358 . S
C535 H593 0.930 . S
C536 N533 1.314 . S
C536 C534 1.353 . S
C536 H594 0.930 . S
C537 N533 1.279 . S
C537 C535 1.358 . S
C537 H595 0.930 . S
C538 C541 1.348 . S
C538 C542 1.356 . S
C538 O589 1.325 . S
C539 N540 1.279 . S
C539 C542 1.358 . S
C539 H596 0.930 . S
N540 C539 1.279 . S
N540 C543 1.314 . S
C541 C538 1.348 . S
C541 C543 1.353 . S
C541 H597 0.929 . S
C542 C538 1.356 . S
C542 C539 1.358 . S
C542 H598 0.930 . S
C543 N540 1.314 . S
C543 C541 1.353 . S
C543 H599 0.930 . S
C544 N545 1.314 . S
C544 C549 1.353 . S
C544 H550 0.930 . S
N545 Li528 1.990 . S
N545 C544 1.314 . S
N545 C547 1.279 . S
C546 C547 1.358 . S
C546 C548 1.356 . S
C546 H600 0.930 . S
C547 N545 1.279 . S
C547 C546 1.358 . S
C547 H551 0.930 . S
C548 C546 1.356 . S
C548 C549 1.348 . S
C549 C544 1.353 . S
C549 C548 1.348 . S
C549 H601 0.929 . S
H550 C544 0.930 . S
H551 C547 0.930 . S
C552 N553 1.314 . S
C552 C554 1.353 . S
C552 H558 0.930 . S
N553 Li529 1.990 . S
N553 C552 1.314 . S
N553 C556 1.279 . S
C554 C552 1.353 . S
C554 C557 1.348 . S
C554 H602 0.929 . S
C555 C556 1.358 . S
C555 C557 1.356 . S
C555 H603 0.930 . S
C556 N553 1.279 . S
C556 C555 1.358 . S
C556 H559 0.930 . S
C557 C554 1.348 . S
C557 C555 1.356 . S
H558 C552 0.930 . S
H559 C556 0.930 . S
C560 C562 1.348 . S
C560 C563 1.356 . S
C560 O590 1.325 . S
N561 C564 1.314 . S
N561 C565 1.279 . S
C562 C560 1.348 . S
C562 C564 1.353 . S
C562 H604 0.929 . S
C563 C560 1.356 . S
C563 C565 1.358 . S
C563 H605 0.930 . S
C564 N561 1.314 . S
C564 C562 1.353 . S
C564 H606 0.930 . S
C565 N561 1.279 . S
C565 C563 1.358 . S
C565 H607 0.930 . S
C566 C567 1.348 . S
C566 C568 1.356 . S
C566 O591 1.325 . S
C567 C566 1.348 . S
C567 C569 1.353 . S
C567 H608 0.929 . S
C568 C566 1.356 . S
C568 C570 1.358 . S
C568 H609 0.930 . S
C569 C567 1.353 . S
C569 N571 1.314 . S
C569 H610 0.930 . S
C570 C568 1.358 . S
C570 N571 1.279 . S
C570 H611 0.930 . S
N571 C569 1.314 . S
N571 C570 1.279 . S
C572 C574 1.353 . S
C572 N575 1.314 . S
C572 H578 0.930 . S
C573 N575 1.279 . S
C573 C576 1.358 . S
C573 H579 0.930 . S
C574 C572 1.353 . S
C574 C577 1.348 . S
C574 H612 0.929 . S
N575 Li530 1.990 . S
N575 C572 1.314 . S
N575 C573 1.279 . S
C576 C573 1.358 . S
C576 C577 1.356 . S
C576 H613 0.930 . S
C577 C574 1.348 . S
C577 C576 1.356 . S
H578 C572 0.930 . S
H579 C573 0.930 . S
C580 N581 1.314 . S
C580 C582 1.353 . S
C580 H586 0.930 . S
N581 Li531 1.990 . S
N581 C580 1.314 . S
N581 C584 1.279 . S
C582 C580 1.353 . S
C582 C585 1.348 . S
C582 H614 0.929 . S
C583 C584 1.358 . S
C583 C585 1.356 . S
C583 H615 0.930 . S
C584 N581 1.279 . S
C584 C583 1.358 . S
C584 H587 0.930 . S
C585 C582 1.348 . S
C585 C583 1.356 . S
H586 C580 0.930 . S
H587 C584 0.930 . S
O588 Li528 1.956 . S
O588 Li529 1.970 . S
O588 Li530 1.961 . S
O588 C532 1.325 . S
O589 Li528 1.970 . S
O589 Li529 1.956 . S
O589 Li531 1.961 . S
O589 C538 1.325 . S
O590 Li528 1.961 . S
O590 Li530 1.956 . S
O590 Li531 1.970 . S
O590 C560 1.325 . S
O591 Li529 1.961 . S
O591 Li530 1.970 . S
O591 Li531 1.956 . S
O591 C566 1.325 . S
H592 C534 0.929 . S
H593 C535 0.930 . S
H594 C536 0.930 . S
H595 C537 0.930 . S
H596 C539 0.930 . S
H597 C541 0.929 . S
H598 C542 0.930 . S
H599 C543 0.930 . S
H600 C546 0.930 . S
H601 C549 0.929 . S
H602 C554 0.929 . S
H603 C555 0.930 . S
H604 C562 0.929 . S
H605 C563 0.930 . S
H606 C564 0.930 . S
H607 C565 0.930 . S
H608 C567 0.929 . S
H609 C568 0.930 . S
H610 C569 0.930 . S
H611 C570 0.930 . S
H612 C574 0.929 . S
H613 C576 0.930 . S
H614 C582 0.929 . S
H615 C583 0.930 . S
Li616 N633 1.990 . S
Li616 O676 1.956 . S
Li616 O677 1.970 . S
Li616 O678 1.961 . S
Li617 N641 1.990 . S
Li617 O676 1.970 . S
Li617 O677 1.956 . S
Li617 O679 1.961 . S
Li618 N663 1.990 . S
Li618 O676 1.961 . S
Li618 O678 1.956 . S
Li618 O679 1.970 . S
Li619 N669 1.990 . S
Li619 O677 1.961 . S
Li619 O678 1.970 . S
Li619 O679 1.956 . S
C620 C622 1.348 . S
C620 C623 1.356 . S
C620 O676 1.325 . S
N621 C624 1.314 . S
N621 C625 1.279 . S
C622 C620 1.348 . S
C622 C624 1.353 . S
C622 H680 0.929 . S
C623 C620 1.356 . S
C623 C625 1.358 . S
C623 H681 0.930 . S
C624 N621 1.314 . S
C624 C622 1.353 . S
C624 H682 0.930 . S
C625 N621 1.279 . S
C625 C623 1.358 . S
C625 H683 0.930 . S
C626 C629 1.348 . S
C626 C630 1.356 . S
C626 O677 1.325 . S
C627 N628 1.279 . S
C627 C630 1.358 . S
C627 H684 0.930 . S
N628 C627 1.279 . S
N628 C631 1.314 . S
C629 C626 1.348 . S
C629 C631 1.353 . S
C629 H685 0.929 . S
C630 C626 1.356 . S
C630 C627 1.358 . S
C630 H686 0.930 . S
C631 N628 1.314 . S
C631 C629 1.353 . S
C631 H687 0.930 . S
C632 N633 1.314 . S
C632 C637 1.353 . S
C632 H638 0.930 . S
N633 Li616 1.990 . S
N633 C632 1.314 . S
N633 C635 1.279 . S
C634 C635 1.358 . S
C634 C636 1.356 . S
C634 H688 0.930 . S
C635 N633 1.279 . S
C635 C634 1.358 . S
C635 H639 0.930 . S
C636 C634 1.356 . S
C636 C637 1.348 . S
C637 C632 1.353 . S
C637 C636 1.348 . S
C637 H689 0.929 . S
H638 C632 0.930 . S
H639 C635 0.930 . S
C640 N641 1.314 . S
C640 C642 1.353 . S
C640 H646 0.930 . S
N641 Li617 1.990 . S
N641 C640 1.314 . S
N641 C644 1.279 . S
C642 C640 1.353 . S
C642 C645 1.348 . S
C642 H690 0.929 . S
C643 C644 1.358 . S
C643 C645 1.356 . S
C643 H691 0.930 . S
C644 N641 1.279 . S
C644 C643 1.358 . S
C644 H647 0.930 . S
C645 C642 1.348 . S
C645 C643 1.356 . S
H646 C640 0.930 . S
H647 C644 0.930 . S
C648 C650 1.348 . S
C648 C651 1.356 . S
C648 O678 1.325 . S
N649 C652 1.314 . S
N649 C653 1.279 . S
C650 C648 1.348 . S
C650 C652 1.353 . S
C650 H692 0.929 . S
C651 C648 1.356 . S
C651 C653 1.358 . S
C651 H693 0.930 . S
C652 N649 1.314 . S
C652 C650 1.353 . S
C652 H694 0.930 . S
C653 N649 1.279 . S
C653 C651 1.358 . S
C653 H695 0.930 . S
C654 C655 1.348 . S
C654 C656 1.356 . S
C654 O679 1.325 . S
C655 C654 1.348 . S
C655 C657 1.353 . S
C655 H696 0.929 . S
C656 C654 1.356 . S
C656 C658 1.358 . S
C656 H697 0.930 . S
C657 C655 1.353 . S
C657 N659 1.314 . S
C657 H698 0.930 . S
C658 C656 1.358 . S
C658 N659 1.279 . S
C658 H699 0.930 . S
N659 C657 1.314 . S
N659 C658 1.279 . S
C660 C662 1.353 . S
C660 N663 1.314 . S
C660 H666 0.930 . S
C661 N663 1.279 . S
C661 C664 1.358 . S
C661 H667 0.930 . S
C662 C660 1.353 . S
C662 C665 1.348 . S
C662 H700 0.929 . S
N663 Li618 1.990 . S
N663 C660 1.314 . S
N663 C661 1.279 . S
C664 C661 1.358 . S
C664 C665 1.356 . S
C664 H701 0.930 . S
C665 C662 1.348 . S
C665 C664 1.356 . S
H666 C660 0.930 . S
H667 C661 0.930 . S
C668 N669 1.314 . S
C668 C670 1.353 . S
C668 H674 0.930 . S
N669 Li619 1.990 . S
N669 C668 1.314 . S
N669 C672 1.279 . S
C670 C668 1.353 . S
C670 C673 1.348 . S
C670 H702 0.929 . S
C671 C672 1.358 . S
C671 C673 1.356 . S
C671 H703 0.930 . S
C672 N669 1.279 . S
C672 C671 1.358 . S
C672 H675 0.930 . S
C673 C670 1.348 . S
C673 C671 1.356 . S
H674 C668 0.930 . S
H675 C672 0.930 . S
O676 Li616 1.956 . S
O676 Li617 1.970 . S
O676 Li618 1.961 . S
O676 C620 1.325 . S
O677 Li616 1.970 . S
O677 Li617 1.956 . S
O677 Li619 1.961 . S
O677 C626 1.325 . S
O678 Li616 1.961 . S
O678 Li618 1.956 . S
O678 Li619 1.970 . S
O678 C648 1.325 . S
O679 Li617 1.961 . S
O679 Li618 1.970 . S
O679 Li619 1.956 . S
O679 C654 1.325 . S
H680 C622 0.929 . S
H681 C623 0.930 . S
H682 C624 0.930 . S
H683 C625 0.930 . S
H684 C627 0.930 . S
H685 C629 0.929 . S
H686 C630 0.930 . S
H687 C631 0.930 . S
H688 C634 0.930 . S
H689 C637 0.929 . S
H690 C642 0.929 . S
H691 C643 0.930 . S
H692 C650 0.929 . S
H693 C651 0.930 . S
H694 C652 0.930 . S
H695 C653 0.930 . S
H696 C655 0.929 . S
H697 C656 0.930 . S
H698 C657 0.930 . S
H699 C658 0.930 . S
H700 C662 0.929 . S
H701 C664 0.930 . S
H702 C670 0.929 . S
H703 C671 0.930 . S
Li704 N721 1.990 . S
Li704 O764 1.956 . S
Li704 O765 1.970 . S
Li704 O766 1.961 . S
Li705 N729 1.990 . S
Li705 O764 1.970 . S
Li705 O765 1.956 . S
Li705 O767 1.961 . S
Li706 N751 1.990 . S
Li706 O764 1.961 . S
Li706 O766 1.956 . S
Li706 O767 1.970 . S
Li707 N757 1.990 . S
Li707 O765 1.961 . S
Li707 O766 1.970 . S
Li707 O767 1.956 . S
C708 C710 1.348 . S
C708 C711 1.356 . S
C708 O764 1.325 . S
N709 C712 1.314 . S
N709 C713 1.279 . S
C710 C708 1.348 . S
C710 C712 1.353 . S
C710 H768 0.929 . S
C711 C708 1.356 . S
C711 C713 1.358 . S
C711 H769 0.930 . S
C712 N709 1.314 . S
C712 C710 1.353 . S
C712 H770 0.930 . S
C713 N709 1.279 . S
C713 C711 1.358 . S
C713 H771 0.930 . S
C714 C717 1.348 . S
C714 C718 1.356 . S
C714 O765 1.325 . S
C715 N716 1.279 . S
C715 C718 1.358 . S
C715 H772 0.930 . S
N716 C715 1.279 . S
N716 C719 1.314 . S
C717 C714 1.348 . S
C717 C719 1.353 . S
C717 H773 0.929 . S
C718 C714 1.356 . S
C718 C715 1.358 . S
C718 H774 0.930 . S
C719 N716 1.314 . S
C719 C717 1.353 . S
C719 H775 0.930 . S
C720 N721 1.314 . S
C720 C725 1.353 . S
C720 H726 0.930 . S
N721 Li704 1.990 . S
N721 C720 1.314 . S
N721 C723 1.279 . S
C722 C723 1.358 . S
C722 C724 1.356 . S
C722 H776 0.930 . S
C723 N721 1.279 . S
C723 C722 1.358 . S
C723 H727 0.930 . S
C724 C722 1.356 . S
C724 C725 1.348 . S
C725 C720 1.353 . S
C725 C724 1.348 . S
C725 H777 0.929 . S
H726 C720 0.930 . S
H727 C723 0.930 . S
C728 N729 1.314 . S
C728 C730 1.353 . S
C728 H734 0.930 . S
N729 Li705 1.990 . S
N729 C728 1.314 . S
N729 C732 1.279 . S
C730 C728 1.353 . S
C730 C733 1.348 . S
C730 H778 0.929 . S
C731 C732 1.358 . S
C731 C733 1.356 . S
C731 H779 0.930 . S
C732 N729 1.279 . S
C732 C731 1.358 . S
C732 H735 0.930 . S
C733 C730 1.348 . S
C733 C731 1.356 . S
H734 C728 0.930 . S
H735 C732 0.930 . S
C736 C738 1.348 . S
C736 C739 1.356 . S
C736 O766 1.325 . S
N737 C740 1.314 . S
N737 C741 1.279 . S
C738 C736 1.348 . S
C738 C740 1.353 . S
C738 H780 0.929 . S
C739 C736 1.356 . S
C739 C741 1.358 . S
C739 H781 0.930 . S
C740 N737 1.314 . S
C740 C738 1.353 . S
C740 H782 0.930 . S
C741 N737 1.279 . S
C741 C739 1.358 . S
C741 H783 0.930 . S
C742 C743 1.348 . S
C742 C744 1.356 . S
C742 O767 1.325 . S
C743 C742 1.348 . S
C743 C745 1.353 . S
C743 H784 0.929 . S
C744 C742 1.356 . S
C744 C746 1.358 . S
C744 H785 0.930 . S
C745 C743 1.353 . S
C745 N747 1.314 . S
C745 H786 0.930 . S
C746 C744 1.358 . S
C746 N747 1.279 . S
C746 H787 0.930 . S
N747 C745 1.314 . S
N747 C746 1.279 . S
C748 C750 1.353 . S
C748 N751 1.314 . S
C748 H754 0.930 . S
C749 N751 1.279 . S
C749 C752 1.358 . S
C749 H755 0.930 . S
C750 C748 1.353 . S
C750 C753 1.348 . S
C750 H788 0.929 . S
N751 Li706 1.990 . S
N751 C748 1.314 . S
N751 C749 1.279 . S
C752 C749 1.358 . S
C752 C753 1.356 . S
C752 H789 0.930 . S
C753 C750 1.348 . S
C753 C752 1.356 . S
H754 C748 0.930 . S
H755 C749 0.930 . S
C756 N757 1.314 . S
C756 C758 1.353 . S
C756 H762 0.930 . S
N757 Li707 1.990 . S
N757 C756 1.314 . S
N757 C760 1.279 . S
C758 C756 1.353 . S
C758 C761 1.348 . S
C758 H790 0.929 . S
C759 C760 1.358 . S
C759 C761 1.356 . S
C759 H791 0.930 . S
C760 N757 1.279 . S
C760 C759 1.358 . S
C760 H763 0.930 . S
C761 C758 1.348 . S
C761 C759 1.356 . S
H762 C756 0.930 . S
H763 C760 0.930 . S
O764 Li704 1.956 . S
O764 Li705 1.970 . S
O764 Li706 1.961 . S
O764 C708 1.325 . S
O765 Li704 1.970 . S
O765 Li705 1.956 . S
O765 Li707 1.961 . S
O765 C714 1.325 . S
O766 Li704 1.961 . S
O766 Li706 1.956 . S
O766 Li707 1.970 . S
O766 C736 1.325 . S
O767 Li705 1.961 . S
O767 Li706 1.970 . S
O767 Li707 1.956 . S
O767 C742 1.325 . S
H768 C710 0.929 . S
H769 C711 0.930 . S
H770 C712 0.930 . S
H771 C713 0.930 . S
H772 C715 0.930 . S
H773 C717 0.929 . S
H774 C718 0.930 . S
H775 C719 0.930 . S
H776 C722 0.930 . S
H777 C725 0.929 . S
H778 C730 0.929 . S
H779 C731 0.930 . S
H780 C738 0.929 . S
H781 C739 0.930 . S
H782 C740 0.930 . S
H783 C741 0.930 . S
H784 C743 0.929 . S
H785 C744 0.930 . S
H786 C745 0.930 . S
H787 C746 0.930 . S
H788 C750 0.929 . S
H789 C752 0.930 . S
H790 C758 0.929 . S
H791 C759 0.930 . S
H792 C800 0.950 . S
H793 C805 0.954 . S
H794 C802 0.950 . S
H795 C804 0.950 . S
H796 C806 0.950 . S
H797 C808 0.950 . S
H798 C810 0.950 1_556 S
H799 C811 0.950 . S
C800 H792 0.950 . S
C800 C801 1.386 . S
C800 C802 1.391 . S
C801 C800 1.386 . S
C801 C805 1.393 . S
C802 H794 0.950 . S
C802 C800 1.391 . S
C802 C803 1.400 1_556 S
C803 C802 1.400 1_554 S
C803 C804 1.398 . S
C803 C809 1.491 . S
C804 H795 0.950 . S
C804 C803 1.398 . S
C804 C805 1.391 1_554 S
C805 H793 0.954 . S
C805 C801 1.393 . S
C805 C804 1.391 1_556 S
C806 H796 0.950 . S
C806 C807 1.386 . S
C806 C808 1.391 . S
C807 C806 1.386 . S
C807 C811 1.393 . S
C808 H797 0.950 . S
C808 C806 1.391 . S
C808 C809 1.400 . S
C809 C803 1.491 . S
C809 C808 1.400 . S
C809 C810 1.398 . S
C810 H798 0.950 1_554 S
C810 C809 1.398 . S
C810 C811 1.391 . S
C811 H799 0.950 . S
C811 C807 1.393 . S
C811 C810 1.391 . S
H812 C820 0.950 . S
H813 C825 0.950 . S
H814 C822 0.950 1_556 S
H815 C824 0.950 1_545 S
H816 C826 0.958 . S
H817 C828 0.950 . S
H818 C830 0.950 . S
H819 C831 0.950 . S
C820 H812 0.950 . S
C820 C821 1.386 . S
C820 C822 1.391 . S
C821 C820 1.386 . S
C821 C825 1.393 . S
C822 H814 0.950 1_554 S
C822 C820 1.391 . S
C822 C823 1.400 1_565 S
C823 C822 1.400 1_545 S
C823 C824 1.398 1_545 S
C823 C829 1.491 . S
C824 H815 0.950 1_565 S
C824 C823 1.398 1_565 S
C824 C825 1.391 . S
C825 H813 0.950 . S
C825 C821 1.393 . S
C825 C824 1.391 . S
C826 H816 0.958 . S
C826 C827 1.370 1_554 S
C826 C828 1.400 . S
C827 C826 1.370 1_556 S
C827 C831 1.393 . S
C828 H817 0.950 . S
C828 C826 1.400 . S
C828 C829 1.400 . S
C829 C823 1.491 . S
C829 C828 1.400 . S
C829 C830 1.398 1_554 S
C830 H818 0.950 . S
C830 C829 1.398 1_556 S
C830 C831 1.391 . S
C831 H819 0.950 . S
C831 C827 1.393 . S
C831 C830 1.391 . S
H832 C840 0.950 . S
H833 C845 0.950 . S
H834 C842 0.950 . S
H835 C844 0.950 1_455 S
H836 C846 0.950 1_556 S
H837 C848 0.950 . S
H838 C850 0.950 . S
H839 C851 0.950 . S
C840 H832 0.950 . S
C840 C841 1.386 1_554 S
C840 C842 1.391 . S
C841 C840 1.386 1_556 S
C841 C845 1.393 . S
C842 H834 0.950 . S
C842 C840 1.391 . S
C842 C843 1.411 1_655 S
C843 C842 1.411 1_455 S
C843 C844 1.364 1_454 S
C843 C849 1.515 . S
C844 H835 0.950 1_655 S
C844 C843 1.364 1_656 S
C844 C845 1.391 . S
C845 H833 0.950 . S
C845 C841 1.393 . S
C845 C844 1.391 . S
C846 H836 0.950 1_554 S
C846 C847 1.386 . S
C846 C848 1.391 1_554 S
C847 C846 1.386 . S
C847 C851 1.393 . S
C848 H837 0.950 . S
C848 C846 1.391 1_556 S
C848 C849 1.400 1_556 S
C849 C843 1.515 . S
C849 C848 1.400 1_554 S
C849 C850 1.398 . S
C850 H838 0.950 . S
C850 C849 1.398 . S
C850 C851 1.391 . S
C851 H839 0.950 . S
C851 C847 1.393 . S
C851 C850 1.391 . S
H852 C860 0.950 . S
H853 C865 0.950 . S
H854 C862 0.950 . S
H855 C864 0.950 . S
H856 C866 0.950 . S
H857 C868 0.950 . S
H858 C870 0.950 . S
H859 C871 0.950 . S
C860 H852 0.950 . S
C860 C861 1.386 . S
C860 C862 1.391 . S
C861 C860 1.386 . S
C861 C865 1.393 . S
C862 H854 0.950 . S
C862 C860 1.391 . S
C862 C863 1.400 . S
C863 C862 1.400 . S
C863 C864 1.398 . S
C863 C869 1.491 . S
C864 H855 0.950 . S
C864 C863 1.398 . S
C864 C865 1.391 . S
C865 H853 0.950 . S
C865 C861 1.393 . S
C865 C864 1.391 . S
C866 H856 0.950 . S
C866 C867 1.386 . S
C866 C868 1.391 . S
C867 C866 1.386 . S
C867 C871 1.393 . S
C868 H857 0.950 . S
C868 C866 1.391 . S
C868 C869 1.400 . S
C869 C863 1.491 . S
C869 C868 1.400 . S
C869 C870 1.398 . S
C870 H858 0.950 . S
C870 C869 1.398 . S
C870 C871 1.391 . S
C871 H859 0.950 . S
C871 C867 1.393 . S
C871 C870 1.391 . S
H872 C880 0.950 . S
H873 C885 0.950 . S
H874 C882 0.950 . S
H875 C884 0.950 . S
H876 C886 0.950 . S
H877 C888 0.950 . S
H878 C890 0.950 . S
H879 C891 0.950 . S
C880 H872 0.950 . S
C880 C881 1.386 . S
C880 C882 1.391 . S
C881 C880 1.386 . S
C881 C885 1.393 . S
C882 H874 0.950 . S
C882 C880 1.391 . S
C882 C883 1.400 . S
C883 C882 1.400 . S
C883 C884 1.398 . S
C883 C889 1.491 . S
C884 H875 0.950 . S
C884 C883 1.398 . S
C884 C885 1.391 . S
C885 H873 0.950 . S
C885 C881 1.393 . S
C885 C884 1.391 . S
C886 H876 0.950 . S
C886 C887 1.386 . S
C886 C888 1.391 . S
C887 C886 1.386 . S
C887 C891 1.393 . S
C888 H877 0.950 . S
C888 C886 1.391 . S
C888 C889 1.400 . S
C889 C883 1.491 . S
C889 C888 1.400 . S
C889 C890 1.398 . S
C890 H878 0.950 . S
C890 C889 1.398 . S
C890 C891 1.391 . S
C891 H879 0.950 . S
C891 C887 1.393 . S
C891 C890 1.391 . S
H892 C900 0.950 . S
H893 C905 0.950 . S
H894 C902 0.950 . S
H895 C904 0.950 . S
H896 C906 0.950 . S
H897 C908 0.950 . S
H898 C910 0.950 . S
H899 C911 0.950 . S
C900 H892 0.950 . S
C900 C901 1.386 . S
C900 C902 1.391 . S
C901 C900 1.386 . S
C901 C905 1.393 . S
C902 H894 0.950 . S
C902 C900 1.391 . S
C902 C903 1.400 . S
C903 C902 1.400 . S
C903 C904 1.398 . S
C903 C909 1.491 . S
C904 H895 0.950 . S
C904 C903 1.398 . S
C904 C905 1.391 . S
C905 H893 0.950 . S
C905 C901 1.393 . S
C905 C904 1.391 . S
C906 H896 0.950 . S
C906 C907 1.386 . S
C906 C908 1.391 . S
C907 C906 1.386 . S
C907 C911 1.393 . S
C908 H897 0.950 . S
C908 C906 1.391 . S
C908 C909 1.400 . S
C909 C903 1.491 . S
C909 C908 1.400 . S
C909 C910 1.398 . S
C910 H898 0.950 . S
C910 C909 1.398 . S
C910 C911 1.391 . S
C911 H899 0.950 . S
C911 C907 1.393 . S
C911 C910 1.391 . S
H912 C920 0.950 . S
H913 C925 0.950 . S
H914 C922 0.950 . S
H915 C924 0.950 . S
H916 C926 0.950 . S
H917 C928 0.950 . S
H918 C930 0.950 . S
H919 C931 0.950 . S
C920 H912 0.950 . S
C920 C921 1.386 . S
C920 C922 1.391 . S
C921 C920 1.386 . S
C921 C925 1.393 . S
C922 H914 0.950 . S
C922 C920 1.391 . S
C922 C923 1.400 . S
C923 C922 1.400 . S
C923 C924 1.398 . S
C923 C929 1.491 . S
C924 H915 0.950 . S
C924 C923 1.398 . S
C924 C925 1.391 . S
C925 H913 0.950 . S
C925 C921 1.393 . S
C925 C924 1.391 . S
C926 H916 0.950 . S
C926 C927 1.386 . S
C926 C928 1.391 . S
C927 C926 1.386 . S
C927 C931 1.393 . S
C928 H917 0.950 . S
C928 C926 1.391 . S
C928 C929 1.400 . S
C929 C923 1.491 . S
C929 C928 1.400 . S
C929 C930 1.398 . S
C930 H918 0.950 . S
C930 C929 1.398 . S
C930 C931 1.391 . S
C931 H919 0.950 . S
C931 C927 1.393 . S
C931 C930 1.391 . S
H932 C940 0.950 . S
H933 C945 0.950 . S
H934 C942 0.950 . S
H935 C944 0.950 . S
H936 C946 0.950 . S
H937 C948 0.950 . S
H938 C950 0.950 . S
H939 C951 0.950 . S
C940 H932 0.950 . S
C940 C941 1.386 . S
C940 C942 1.391 . S
C941 C940 1.386 . S
C941 C945 1.393 . S
C942 H934 0.950 . S
C942 C940 1.391 . S
C942 C943 1.400 . S
C943 C942 1.400 . S
C943 C944 1.398 . S
C943 C949 1.491 . S
C944 H935 0.950 . S
C944 C943 1.398 . S
C944 C945 1.391 . S
C945 H933 0.950 . S
C945 C941 1.393 . S
C945 C944 1.391 . S
C946 H936 0.950 . S
C946 C947 1.386 . S
C946 C948 1.391 . S
C947 C946 1.386 . S
C947 C951 1.393 . S
C948 H937 0.950 . S
C948 C946 1.391 . S
C948 C949 1.400 . S
C949 C943 1.491 . S
C949 C948 1.400 . S
C949 C950 1.398 . S
C950 H938 0.950 . S
C950 C949 1.398 . S
C950 C951 1.391 . S
C951 H939 0.950 . S
C951 C947 1.393 . S
C951 C950 1.391 . S
H952 C960 0.950 . S
H953 C965 0.950 . S
H954 C962 0.950 . S
H955 C964 0.950 . S
H956 C966 0.950 . S
H957 C968 0.950 . S
H958 C970 0.950 . S
H959 C971 0.950 . S
C960 H952 0.950 . S
C960 C961 1.386 . S
C960 C962 1.391 . S
C961 C960 1.386 . S
C961 C965 1.393 . S
C962 H954 0.950 . S
C962 C960 1.391 . S
C962 C963 1.400 . S
C963 C962 1.400 . S
C963 C964 1.398 . S
C963 C969 1.491 . S
C964 H955 0.950 . S
C964 C963 1.398 . S
C964 C965 1.391 . S
C965 H953 0.950 . S
C965 C961 1.393 . S
C965 C964 1.391 . S
C966 H956 0.950 . S
C966 C967 1.386 . S
C966 C968 1.391 . S
C967 C966 1.386 . S
C967 C971 1.393 . S
C968 H957 0.950 . S
C968 C966 1.391 . S
C968 C969 1.400 . S
C969 C963 1.491 . S
C969 C968 1.400 . S
C969 C970 1.398 . S
C970 H958 0.950 . S
C970 C969 1.398 . S
C970 C971 1.391 . S
C971 H959 0.950 . S
C971 C967 1.393 . S
C971 C970 1.391 . S
H972 C980 0.950 . S
H973 C985 0.950 . S
H974 C982 0.950 . S
H975 C984 0.950 . S
H976 C986 0.950 . S
H977 C988 0.950 . S
H978 C990 0.950 . S
H979 C991 0.950 . S
C980 H972 0.950 . S
C980 C981 1.386 . S
C980 C982 1.391 . S
C981 C980 1.386 . S
C981 C985 1.393 . S
C982 H974 0.950 . S
C982 C980 1.391 . S
C982 C983 1.400 . S
C983 C982 1.400 . S
C983 C984 1.398 . S
C983 C989 1.491 . S
C984 H975 0.950 . S
C984 C983 1.398 . S
C984 C985 1.391 . S
C985 H973 0.950 . S
C985 C981 1.393 . S
C985 C984 1.391 . S
C986 H976 0.950 . S
C986 C987 1.386 . S
C986 C988 1.391 . S
C987 C986 1.386 . S
C987 C991 1.393 . S
C988 H977 0.950 . S
C988 C986 1.391 . S
C988 C989 1.400 . S
C989 C983 1.491 . S
C989 C988 1.400 . S
C989 C990 1.398 . S
C990 H978 0.950 . S
C990 C989 1.398 . S
C990 C991 1.391 . S
C991 H979 0.950 . S
C991 C987 1.393 . S
C991 C990 1.391 . S
H992 C1000 0.950 . S
H993 C1005 0.950 . S
H994 C1002 0.950 . S
H995 C1004 0.950 . S
H996 C1006 0.950 . S
H997 C1008 0.950 . S
H998 C1010 0.950 . S
H999 C1011 0.950 . S
C1000 H992 0.950 . S
C1000 C1001 1.386 . S
C1000 C1002 1.391 . S
C1001 C1000 1.386 . S
C1001 C1005 1.393 . S
C1002 H994 0.950 . S
C1002 C1000 1.391 . S
C1002 C1003 1.400 . S
C1003 C1002 1.400 . S
C1003 C1004 1.398 . S
C1003 C1009 1.491 . S
C1004 H995 0.950 . S
C1004 C1003 1.398 . S
C1004 C1005 1.391 . S
C1005 H993 0.950 . S
C1005 C1001 1.393 . S
C1005 C1004 1.391 . S
C1006 H996 0.950 . S
C1006 C1007 1.386 . S
C1006 C1008 1.391 . S
C1007 C1006 1.386 . S
C1007 C1011 1.393 . S
C1008 H997 0.950 . S
C1008 C1006 1.391 . S
C1008 C1009 1.400 . S
C1009 C1003 1.491 . S
C1009 C1008 1.400 . S
C1009 C1010 1.398 . S
C1010 H998 0.950 . S
C1010 C1009 1.398 . S
C1010 C1011 1.391 . S
C1011 H999 0.950 . S
C1011 C1007 1.393 . S
C1011 C1010 1.391 . S
H1012 C1020 0.950 . S
H1013 C1025 0.950 . S
H1014 C1022 0.950 . S
H1015 C1024 0.950 . S
H1016 C1026 0.950 . S
H1017 C1028 0.950 . S
H1018 C1030 0.950 1_545 S
H1019 C1031 0.950 . S
C1020 H1012 0.950 . S
C1020 C1021 1.386 . S
C1020 C1022 1.391 . S
C1021 C1020 1.386 . S
C1021 C1025 1.393 . S
C1022 H1014 0.950 . S
C1022 C1020 1.391 . S
C1022 C1023 1.400 . S
C1023 C1022 1.400 . S
C1023 C1024 1.398 . S
C1023 C1029 1.491 . S
C1024 H1015 0.950 . S
C1024 C1023 1.398 . S
C1024 C1025 1.391 . S
C1025 H1013 0.950 . S
C1025 C1021 1.393 . S
C1025 C1024 1.391 . S
C1026 H1016 0.950 . S
C1026 C1027 1.386 . S
C1026 C1028 1.391 . S
C1027 C1026 1.386 . S
C1027 C1031 1.393 1_565 S
C1028 H1017 0.950 . S
C1028 C1026 1.391 . S
C1028 C1029 1.400 . S
C1029 C1023 1.491 . S
C1029 C1028 1.400 . S
C1029 C1030 1.398 . S
C1030 H1018 0.950 1_565 S
C1030 C1029 1.398 . S
C1030 C1031 1.391 1_565 S
C1031 H1019 0.950 . S
C1031 C1027 1.393 1_545 S
C1031 C1030 1.391 1_545 S
H1032 C1040 0.950 . S
H1033 C1045 0.950 . S
H1034 C1042 0.950 . S
H1035 C1044 0.950 . S
H1036 C1046 0.950 . S
H1037 C1048 0.950 . S
H1038 C1050 0.950 . S
H1039 C1051 0.950 . S
C1040 H1032 0.950 . S
C1040 C1041 1.386 . S
C1040 C1042 1.391 . S
C1041 C1040 1.386 . S
C1041 C1045 1.393 . S
C1042 H1034 0.950 . S
C1042 C1040 1.391 . S
C1042 C1043 1.400 . S
C1043 C1042 1.400 . S
C1043 C1044 1.398 . S
C1043 C1049 1.491 . S
C1044 H1035 0.950 . S
C1044 C1043 1.398 . S
C1044 C1045 1.391 . S
C1045 H1033 0.950 . S
C1045 C1041 1.393 . S
C1045 C1044 1.391 . S
C1046 H1036 0.950 . S
C1046 C1047 1.386 . S
C1046 C1048 1.391 . S
C1047 C1046 1.386 . S
C1047 C1051 1.393 . S
C1048 H1037 0.950 . S
C1048 C1046 1.391 . S
C1048 C1049 1.400 . S
C1049 C1043 1.491 . S
C1049 C1048 1.400 . S
C1049 C1050 1.398 . S
C1050 H1038 0.950 . S
C1050 C1049 1.398 . S
C1050 C1051 1.391 . S
C1051 H1039 0.950 . S
C1051 C1047 1.393 . S
C1051 C1050 1.391 . S
H1052 C1060 0.950 . S
H1053 C1065 0.950 . S
H1054 C1062 0.950 1_455 S
H1055 C1064 0.950 . S
H1056 C1066 0.950 . S
H1057 C1068 0.950 . S
H1058 C1070 0.951 1_455 S
H1059 C1071 0.950 . S
C1060 H1052 0.950 . S
C1060 C1061 1.386 1_455 S
C1060 C1062 1.391 1_455 S
C1061 C1060 1.386 1_655 S
C1061 C1065 1.393 . S
C1062 H1054 0.950 1_655 S
C1062 C1060 1.391 1_655 S
C1062 C1063 1.400 . S
C1063 C1062 1.400 . S
C1063 C1064 1.398 . S
C1063 C1069 1.491 . S
C1064 H1055 0.950 . S
C1064 C1063 1.398 . S
C1064 C1065 1.391 . S
C1065 H1053 0.950 . S
C1065 C1061 1.393 . S
C1065 C1064 1.391 . S
C1066 H1056 0.950 . S
C1066 C1067 1.386 . S
C1066 C1068 1.391 . S
C1067 C1066 1.386 . S
C1067 C1071 1.393 . S
C1068 H1057 0.950 . S
C1068 C1066 1.391 . S
C1068 C1069 1.400 . S
C1069 C1063 1.491 . S
C1069 C1068 1.400 . S
C1069 C1070 1.398 . S
C1070 H1058 0.951 1_655 S
C1070 C1069 1.398 . S
C1070 C1071 1.391 . S
C1071 H1059 0.950 . S
C1071 C1067 1.393 . S
C1071 C1070 1.391 . S
H1072 C1080 0.950 . S
H1073 C1085 0.950 . S
H1074 C1082 0.950 . S
H1075 C1084 0.950 . S
H1076 C1086 0.950 . S
H1077 C1088 0.950 . S
H1078 C1090 0.950 . S
H1079 C1091 0.950 . S
C1080 H1072 0.950 . S
C1080 C1081 1.386 . S
C1080 C1082 1.391 . S
C1081 C1080 1.386 . S
C1081 C1085 1.393 . S
C1082 H1074 0.950 . S
C1082 C1080 1.391 . S
C1082 C1083 1.400 . S
C1083 C1082 1.400 . S
C1083 C1084 1.398 . S
C1083 C1089 1.491 . S
C1084 H1075 0.950 . S
C1084 C1083 1.398 . S
C1084 C1085 1.391 . S
C1085 H1073 0.950 . S
C1085 C1081 1.393 . S
C1085 C1084 1.391 . S
C1086 H1076 0.950 . S
C1086 C1087 1.386 . S
C1086 C1088 1.391 . S
C1087 C1086 1.386 . S
C1087 C1091 1.393 . S
C1088 H1077 0.950 . S
C1088 C1086 1.391 . S
C1088 C1089 1.400 . S
C1089 C1083 1.491 . S
C1089 C1088 1.400 . S
C1089 C1090 1.398 . S
C1090 H1078 0.950 . S
C1090 C1089 1.398 . S
C1090 C1091 1.391 . S
C1091 H1079 0.950 . S
C1091 C1087 1.393 . S
C1091 C1090 1.391 . S
H1092 C1100 0.950 . S
H1093 C1105 0.950 . S
H1094 C1102 0.950 . S
H1095 C1104 0.950 1_655 S
H1096 C1106 0.950 . S
H1097 C1108 0.950 . S
H1098 C1110 0.950 . S
H1099 C1111 0.950 . S
C1100 H1092 0.950 . S
C1100 C1101 1.386 . S
C1100 C1102 1.391 . S
C1101 C1100 1.386 . S
C1101 C1105 1.393 . S
C1102 H1094 0.950 . S
C1102 C1100 1.391 . S
C1102 C1103 1.400 . S
C1103 C1102 1.400 . S
C1103 C1104 1.398 . S
C1103 C1109 1.491 . S
C1104 H1095 0.950 1_455 S
C1104 C1103 1.398 . S
C1104 C1105 1.391 . S
C1105 H1093 0.950 . S
C1105 C1101 1.393 . S
C1105 C1104 1.391 . S
C1106 H1096 0.950 . S
C1106 C1107 1.386 . S
C1106 C1108 1.391 . S
C1107 C1106 1.386 . S
C1107 C1111 1.393 1_655 S
C1108 H1097 0.950 . S
C1108 C1106 1.391 . S
C1108 C1109 1.400 1_655 S
C1109 C1103 1.491 . S
C1109 C1108 1.400 1_455 S
C1109 C1110 1.398 . S
C1110 H1098 0.950 . S
C1110 C1109 1.398 . S
C1110 C1111 1.391 . S
C1111 H1099 0.950 . S
C1111 C1107 1.393 1_455 S
C1111 C1110 1.391 . S
H1112 C1120 0.950 . S
H1113 C1125 0.950 . S
H1114 C1122 0.950 . S
H1115 C1124 0.950 . S
H1116 C1126 0.950 . S
H1117 C1128 0.950 . S
H1118 C1130 0.950 . S
H1119 C1131 0.950 . S
C1120 H1112 0.950 . S
C1120 C1121 1.386 . S
C1120 C1122 1.391 . S
C1121 C1120 1.386 . S
C1121 C1125 1.393 . S
C1122 H1114 0.950 . S
C1122 C1120 1.391 . S
C1122 C1123 1.400 . S
C1123 C1122 1.400 . S
C1123 C1124 1.398 . S
C1123 C1129 1.491 . S
C1124 H1115 0.950 . S
C1124 C1123 1.398 . S
C1124 C1125 1.391 . S
C1125 H1113 0.950 . S
C1125 C1121 1.393 . S
C1125 C1124 1.391 . S
C1126 H1116 0.950 . S
C1126 C1127 1.386 . S
C1126 C1128 1.391 . S
C1127 C1126 1.386 . S
C1127 C1131 1.393 . S
C1128 H1117 0.950 . S
C1128 C1126 1.391 . S
C1128 C1129 1.400 . S
C1129 C1123 1.491 . S
C1129 C1128 1.400 . S
C1129 C1130 1.398 . S
C1130 H1118 0.950 . S
C1130 C1129 1.398 . S
C1130 C1131 1.391 . S
C1131 H1119 0.950 . S
C1131 C1127 1.393 . S
C1131 C1130 1.391 . S
H1132 C1140 0.950 . S
H1133 C1145 0.950 . S
H1134 C1142 0.950 . S
H1135 C1144 0.950 . S
H1136 C1146 0.950 . S
H1137 C1148 0.950 . S
H1138 C1150 0.950 . S
H1139 C1151 0.950 . S
C1140 H1132 0.950 . S
C1140 C1141 1.386 . S
C1140 C1142 1.391 . S
C1141 C1140 1.386 . S
C1141 C1145 1.393 . S
C1142 H1134 0.950 . S
C1142 C1140 1.391 . S
C1142 C1143 1.400 1_565 S
C1143 C1142 1.400 1_545 S
C1143 C1144 1.398 . S
C1143 C1149 1.491 . S
C1144 H1135 0.950 . S
C1144 C1143 1.398 . S
C1144 C1145 1.391 1_545 S
C1145 H1133 0.950 . S
C1145 C1141 1.393 . S
C1145 C1144 1.391 1_565 S
C1146 H1136 0.950 . S
C1146 C1147 1.386 . S
C1146 C1148 1.391 . S
C1147 C1146 1.386 . S
C1147 C1151 1.393 . S
C1148 H1137 0.950 . S
C1148 C1146 1.391 . S
C1148 C1149 1.400 . S
C1149 C1143 1.491 . S
C1149 C1148 1.400 . S
C1149 C1150 1.398 . S
C1150 H1138 0.950 . S
C1150 C1149 1.398 . S
C1150 C1151 1.391 . S
C1151 H1139 0.950 . S
C1151 C1147 1.393 . S
C1151 C1150 1.391 . S
C801 C196 0.996 . S
C807 C49 1.001 . S
C821 C145 1.010 . S
C827 C29 0.993 . S
C841 C108 1.032 . S
C847 C233 1.011 . S
C861 C469 1.002 . S
C867 C321 1.029 . S
C881 C409 1.002 . S
C887 C284 0.995 . S
C901 C372 1.024 . S
C907 C489 0.997 . S
C921 C577 1.027 . S
C927 C724 0.999 . S
C941 C557 1.008 . S
C947 C665 1.032 . S
C961 C645 1.003 . S
C967 C761 0.995 . S
C981 C57 1.206 . S
C987 C636 1.211 . S
C1001 C137 1.204 . S
C1007 C733 1.212 . S
C1021 C548 1.209 . S
C1027 C225 1.208 . S
C1041 C401 1.212 . S
C1047 C205 1.204 . S
C1061 C20 1.210 . S
C1067 C497 1.207 . S
C1081 C313 1.212 . S
C1087 C117 1.204 . S
C1101 C673 1.212 . S
C1107 C460 1.203 . S
C1121 C293 1.211 . S
C1127 C753 1.202 . S
C1141 C585 1.210 . S
C1147 C381 1.207 . S
