# Generated by pormake.
# Topology cab, (5)-cn, num edge types: 1
# Building blocks:
#     Node 0, Type 0, BuildingBlock: XOMCOT_clean_sbu_1, # of connection points: 5
#     Node 1, Type 0, BuildingBlock: XOMCOT_clean_sbu_1, # of connection points: 5
#     Node 2, Type 0, BuildingBlock: XOMCOT_clean_sbu_1, # of connection points: 5
#     Node 3, Type 0, BuildingBlock: XOMCOT_clean_sbu_1, # of connection points: 5
#     Node 4, Type 0, BuildingBlock: XOMCOT_clean_sbu_1, # of connection points: 5
#     Node 5, Type 0, BuildingBlock: XOMCOT_clean_sbu_1, # of connection points: 5
#     Edge 6, Type (0, 0), BuildingBlock: UVAHIK_clean_linker_0, # of connection points: 2
#     Edge 7, Type (0, 0), BuildingBlock: UVAHIK_clean_linker_0, # of connection points: 2
#     Edge 8, Type (0, 0), BuildingBlock: UVAHIK_clean_linker_0, # of connection points: 2
#     Edge 9, Type (0, 0), BuildingBlock: UVAHIK_clean_linker_0, # of connection points: 2
#     Edge 10, Type (0, 0), BuildingBlock: UVAHIK_clean_linker_0, # of connection points: 2
#     Edge 11, Type (0, 0), BuildingBlock: UVAHIK_clean_linker_0, # of connection points: 2
#     Edge 12, Type (0, 0), BuildingBlock: UVAHIK_clean_linker_0, # of connection points: 2
#     Edge 13, Type (0, 0), BuildingBlock: UVAHIK_clean_linker_0, # of connection points: 2
#     Edge 14, Type (0, 0), BuildingBlock: UVAHIK_clean_linker_0, # of connection points: 2
#     Edge 15, Type (0, 0), BuildingBlock: UVAHIK_clean_linker_0, # of connection points: 2
#     Edge 16, Type (0, 0), BuildingBlock: UVAHIK_clean_linker_0, # of connection points: 2
#     Edge 17, Type (0, 0), BuildingBlock: UVAHIK_clean_linker_0, # of connection points: 2
#     Edge 18, Type (0, 0), BuildingBlock: UVAHIK_clean_linker_0, # of connection points: 2
#     Edge 19, Type (0, 0), BuildingBlock: UVAHIK_clean_linker_0, # of connection points: 2
#     Edge 20, Type (0, 0), BuildingBlock: UVAHIK_clean_linker_0, # of connection points: 2
# Relax obj value: 0.855
# Max RMSD: 0.205
# Mean RMSD: 0.203
data_MOF--net-cab--node1-XOMCOT_clean_sbu_1--edge1-UVAHIK_clean_linker_0
_symmetry_space_group_name_H-M    P1
_symmetry_Int_Tables_number       1
_symmetry_cell_setting            triclinic
loop_
_symmetry_equiv_pos_as_xyz
'x, y, z'
_cell_length_a     45.054692
_cell_length_b     44.994062
_cell_length_c     44.926842
_cell_angle_alpha  80.155887
_cell_angle_beta   69.566718
_cell_angle_gamma 80.217472
loop_
_atom_site_label
_atom_site_type_symbol
_atom_site_fract_x
_atom_site_fract_y
_atom_site_fract_z
_atom_type_partial_charge
C0 C 0.96653 0.98844 0.46092 0.0
C1 C 0.97306 0.95729 0.4647 0.0
N2 N -0.0027 0.94887 0.43868 0.0
N3 N 0.98672 -0.00034 0.4328 0.0
C4 C 0.005 0.97513 0.41974 0.0
H5 H 0.94819 0.00209 0.47753 0.0
Co6 Co 0.98777 0.04014 0.41564 0.0
C7 C 0.06031 0.04016 0.39492 0.0
O8 O 0.06123 0.05755 0.41517 0.0
N9 N 0.98864 0.08121 0.39772 0.0
C10 C -0.00129 0.12932 0.38409 0.0
C11 C 0.00405 0.10248 0.40221 0.0
C12 C 0.97409 0.09587 0.37666 0.0
N13 N 0.97995 0.12509 0.36792 0.0
O14 O 0.98511 0.0305 0.37735 0.0
H15 H 0.01787 0.09911 0.41811 0.0
H16 H 0.95927 0.08543 0.36797 0.0
O17 O 0.03375 0.03327 0.39555 0.0
C18 C 0.96167 0.02055 0.37447 0.0
O19 O 0.93739 0.01389 0.40011 0.0
N20 N 0.98943 0.04981 0.45383 0.0
C21 C -0.00626 0.07305 0.50512 0.0
C22 C 0.01394 0.04715 0.49374 0.0
C23 C 0.01113 0.03559 0.46808 0.0
C24 C 0.96665 0.07203 0.46773 0.0
C25 C 0.96892 0.08468 0.49293 0.0
H26 H 0.02753 0.01636 0.45846 0.0
H27 H 0.94809 0.08159 0.45756 0.0
H28 H 0.02289 0.97662 0.39623 0.0
H29 H 0.96069 0.94216 0.48503 0.0
H30 H 0.00842 0.15018 0.38247 0.0
H31 H 0.03307 0.03727 0.50306 0.0
H32 H 0.95242 0.10421 0.50179 0.0
C33 C 0.13037 0.04132 0.782 0.0
C34 C 0.09873 0.03845 0.79906 0.0
N35 N 0.08888 0.05712 0.82198 0.0
N36 N 0.14023 0.06163 0.79424 0.0
C37 C 0.11453 0.07055 0.81884 0.0
H38 H 0.1452 0.02963 0.76175 0.0
Co39 Co 0.18101 0.07346 0.77959 0.0
C40 C 0.16549 0.1367 0.79648 0.0
O41 O 0.18067 0.1474 0.76685 0.0
N42 N 0.22294 0.08356 0.76531 0.0
C43 C 0.26844 0.09945 0.7612 0.0
C44 C 0.23591 0.10387 0.77447 0.0
C45 C 0.24843 0.06623 0.74758 0.0
N46 N 0.27646 0.07559 0.74433 0.0
O47 O 0.18891 0.04875 0.81553 0.0
H48 H 0.22343 0.11901 0.79224 0.0
H49 H 0.24639 0.04601 0.73877 0.0
O50 O 0.16519 0.10804 0.80446 0.0
C51 C 0.19768 0.02075 0.81225 0.0
O52 O 0.20339 0.01196 0.78414 0.0
N53 N 0.17237 0.09674 0.74346 0.0
C54 C 0.15541 0.12493 0.69016 0.0
C55 C 0.13483 0.12859 0.72128 0.0
C56 C 0.14364 0.11431 0.7474 0.0
C57 C 0.19277 0.09293 0.71333 0.0
C58 C 0.18508 0.10733 0.6864 0.0
H59 H 0.12673 0.1169 0.77096 0.0
H60 H 0.21457 0.07774 0.70975 0.0
H61 H 0.11442 0.08668 0.83419 0.0
H62 H 0.08394 0.02436 0.7945 0.0
H63 H 0.28494 0.11085 0.76658 0.0
H64 H 0.11121 0.14098 0.72575 0.0
H65 H 0.20179 0.10368 0.66288 0.0
C66 C 0.37007 0.0747 0.07447 0.0
C67 C 0.34972 0.07368 0.1055 0.0
N68 N 0.32697 0.05609 0.109 0.0
N69 N 0.36032 0.0579 0.05838 0.0
C70 C 0.33387 0.04703 0.07989 0.0
H71 H 0.39083 0.0868 0.06419 0.0
Co72 Co 0.38193 0.05301 0.01581 0.0
C73 C 0.3619 0.9958 0.00908 0.0
O74 O 0.39183 0.986 0.99412 0.0
N75 N 0.40437 0.05014 0.97201 0.0
C76 C 0.44025 0.05725 0.92327 0.0
C77 C 0.43147 0.06249 0.95463 0.0
C78 C 0.39596 0.03966 0.94997 0.0
N79 N 0.41792 0.04259 0.92044 0.0
O80 O 0.35221 0.08389 0.00425 0.0
H81 H 0.44343 0.07594 0.9636 0.0
H82 H 0.37378 0.03059 0.95524 0.0
O83 O 0.35475 0.02241 0.01795 0.0
C84 C 0.35806 0.11123 0.00014 0.0
O85 O 0.3855 0.11648 0.00112 0.0
N86 N 0.41134 0.02291 0.02888 0.0
C87 C 0.45463 0.98197 0.05198 0.0
C88 C 0.42257 0.97723 0.06178 0.0
C89 C 0.40121 0.9984 0.05077 0.0
C90 C 0.44218 0.02849 0.02025 0.0
C91 C 0.46431 0.00812 0.03101 0.0
H92 H 0.37629 0.99524 0.06065 0.0
H93 H 0.44952 0.0496 0.0066 0.0
H94 H 0.32043 0.03216 0.0745 0.0
H95 H 0.35151 0.08528 0.12389 0.0
H96 H 0.46075 0.0648 0.90387 0.0
H97 H 0.41375 0.95788 0.07866 0.0
H98 H 0.48837 0.01384 0.02438 0.0
C99 C 0.06647 0.39119 0.07958 0.0
C100 C 0.09519 0.37393 0.07804 0.0
N101 N 0.09721 0.34907 0.06407 0.0
N102 N 0.05064 0.37738 0.06644 0.0
C103 C 0.06978 0.35165 0.05753 0.0
H104 H 0.05791 0.41275 0.08904 0.0
Co105 Co 0.01188 0.39284 0.06067 0.0
C106 C 0.01544 0.36738 0.0024 0.0
O107 O 0.00557 0.3938 0.98928 0.0
N108 N 0.97165 0.40866 0.0555 0.0
C109 C 0.93231 0.43238 0.03736 0.0
C110 C 0.96384 0.43158 0.03461 0.0
C111 C 0.94393 0.39664 0.07113 0.0
N112 N 0.91994 0.41055 0.06063 0.0
O113 O 0.99276 0.36212 0.09314 0.0
H114 H 0.98026 0.44567 0.01673 0.0
H115 H 0.94137 0.37667 0.08857 0.0
O116 O 0.01908 0.36506 0.02964 0.0
C117 C 0.98539 0.36547 0.12248 0.0
O118 O 0.98952 0.39111 0.12994 0.0
N119 N 0.03268 0.42296 0.02983 0.0
C120 C 0.07288 0.46692 0.99672 0.0
C121 C 0.07947 0.43779 0.98735 0.0
C122 C 0.05907 0.41603 0.00428 0.0
C123 C 0.02575 0.45142 0.03891 0.0
C124 C 0.04516 0.47403 0.02216 0.0
H125 H 0.06628 0.39298 0.9986 0.0
H126 H 0.00599 0.4561 0.06033 0.0
H127 H 0.06426 0.33558 0.04546 0.0
H128 H 0.11318 0.37935 0.08643 0.0
H129 H 0.91983 0.4469 0.02257 0.0
H130 H 0.10129 0.43136 0.96848 0.0
H131 H 0.04001 0.49608 0.03067 0.0
C132 C 0.71712 0.133 0.16155 0.0
C133 C 0.71214 0.1642 0.15883 0.0
N134 N 0.73721 0.175 0.13513 0.0
N135 N 0.74517 0.12422 0.13962 0.0
C136 C 0.7568 0.15027 0.12378 0.0
H137 H 0.70194 0.11764 0.17924 0.0
Co138 Co 0.76481 0.08465 0.13685 0.0
C139 C 0.78379 0.09078 0.06266 0.0
O140 O 0.76153 0.07817 0.05851 0.0
N141 N 0.7848 0.04486 0.13399 0.0
C142 C 0.79997 0.99807 0.12046 0.0
C143 C 0.78359 0.02572 0.11444 0.0
C144 C 0.8023 0.02841 0.15151 0.0
N145 N 0.81172 -0.00018 0.14374 0.0
O146 O 0.80238 0.09609 0.13932 0.0
H147 H 0.77081 0.03115 0.0975 0.0
H148 H 0.80741 0.03695 0.17009 0.0
O149 O 0.78345 0.09274 0.09078 0.0
C150 C 0.80244 0.1045 0.16486 0.0
O151 O 0.77534 0.10863 0.1883 0.0
N152 N 0.72747 0.07242 0.13672 0.0
C153 C 0.67637 0.04407 0.13977 0.0
C154 C 0.68525 0.06949 0.11712 0.0
C155 C 0.7106 0.08395 0.11655 0.0
C156 C 0.71661 0.05029 0.16121 0.0
C157 C 0.69143 0.0354 0.16288 0.0
H158 H 0.71717 0.10383 0.09958 0.0
H159 H 0.72879 0.04301 0.17861 0.0
H160 H 0.7802 0.15102 0.10582 0.0
H161 H 0.69221 0.17785 0.17389 0.0
H162 H 0.80313 0.9782 0.10856 0.0
H163 H 0.67313 0.07769 0.09976 0.0
H164 H 0.68503 0.01626 0.1811 0.0
C165 C 0.1026 0.73516 0.09261 0.0
C166 C 0.10698 0.75377 0.06402 0.0
N167 N 0.11525 0.78021 0.06715 0.0
N168 N 0.10851 0.74971 0.11342 0.0
C169 C 0.11569 0.7772 0.09737 0.0
H170 H 0.09638 0.71222 0.09763 0.0
Co171 Co 0.10921 0.7342 0.15431 0.0
C172 C 0.16068 0.76261 0.1612 0.0
O173 O 0.1719 0.73712 0.17486 0.0
N174 N 0.10933 0.71905 0.19634 0.0
C175 C 0.11447 0.69329 0.24183 0.0
C176 C 0.12058 0.69214 0.20969 0.0
C177 C 0.09685 0.73599 0.22093 0.0
N178 N 0.0992 0.72088 0.2487 0.0
O179 O 0.07364 0.76305 0.17078 0.0
H180 H 0.1329 0.67279 0.19729 0.0
H181 H 0.08689 0.75953 0.21854 0.0
O182 O 0.13676 0.7634 0.15209 0.0
C183 C 0.04557 0.75634 0.17758 0.0
O184 O 0.04175 0.72881 0.17463 0.0
N185 N 0.14329 0.70553 0.13596 0.0
C186 C 0.17948 0.66514 0.09254 0.0
C187 C 0.18951 0.69332 0.091 0.0
C188 C 0.17097 0.71334 0.11291 0.0
C189 C 0.13408 0.67764 0.13856 0.0
C190 C 0.15223 0.65679 0.11761 0.0
H191 H 0.17706 0.7362 0.10866 0.0
H192 H 0.11098 0.67259 0.15515 0.0
H193 H 0.12229 0.79438 0.10723 0.0
H194 H 0.10456 0.74815 0.04256 0.0
H195 H 0.12047 0.67524 0.2588 0.0
H196 H 0.20993 0.70082 0.07141 0.0
H197 H 0.14307 0.63566 0.11894 0.0
C198 C 0.96822 0.34324 0.17999 0.0
C199 C 0.97483 0.33997 0.14769 0.0
C200 C 0.96107 0.31847 0.2036 0.0
C201 C 0.9754 0.23522 0.21382 0.0
H202 H 0.91747 0.24441 0.29977 0.0
C203 C 0.96706 0.13797 0.31766 0.0
C204 C 0.97005 0.14702 0.34483 0.0
C205 C 0.96088 0.15974 0.2936 0.0
C206 C 0.93368 0.24147 0.27585 0.0
H207 H 0.9778 0.30839 0.11498 0.0
H208 H 0.9651 0.26515 0.15631 0.0
H209 H 0.91884 0.2863 0.25708 0.0
H210 H 0.96702 0.18568 0.36902 0.0
H211 H 0.95646 0.22358 0.32719 0.0
H212 H 0.99093 0.19073 0.23282 0.0
C213 C 0.96586 0.28681 0.1633 0.0
C214 C 0.93452 0.26547 0.25142 0.0
C215 C 0.97299 0.31163 0.13965 0.0
C216 C 0.96524 0.17809 0.34817 0.0
C217 C 0.95882 0.19977 0.32435 0.0
C218 C 0.9745 0.21118 0.23825 0.0
C219 C 0.96033 0.28983 0.19549 0.0
C220 C 0.95605 0.26295 0.22032 0.0
C221 C 0.9572 0.19092 0.29649 0.0
C222 C 0.95431 0.21438 0.26973 0.0
H223 H 0.96942 0.36475 0.18702 0.0
H224 H 0.95737 0.32154 0.22809 0.0
H225 H 0.99249 0.23259 0.19022 0.0
H226 H 0.9708 0.11416 0.31439 0.0
H227 H 0.95955 0.15223 0.27249 0.0
C228 C 0.85938 0.08305 0.155 0.0
C229 C 0.83272 0.1024 0.17114 0.0
C230 C 0.88527 0.07506 0.16621 0.0
C231 C 0.9125 0.04164 0.21785 0.0
H232 H 0.94555 0.09427 0.2556 0.0
C233 C 0.93379 0.01151 0.33809 0.0
C234 C 0.95933 0.02232 0.34225 0.0
C235 C 0.92856 0.018 0.30868 0.0
C236 C 0.93716 0.07922 0.24465 0.0
H237 H 0.81353 0.13098 0.20936 0.0
H238 H 0.85897 0.11754 0.22855 0.0
H239 H 0.9187 0.11636 0.2168 0.0
H240 H 0.00083 0.04653 0.31822 0.0
H241 H 0.99123 0.05824 0.26714 0.0
H242 H 0.92905 0.00469 0.24733 0.0
C243 C 0.85981 0.10833 0.20747 0.0
C244 C 0.92168 0.0919 0.22261 0.0
C245 C 0.83371 0.1159 0.19663 0.0
C246 C 0.98079 0.03797 0.31586 0.0
C247 C 0.97533 0.04477 0.2866 0.0
C248 C 0.92768 0.02899 0.24015 0.0
C249 C 0.88513 0.0868 0.19327 0.0
C250 C 0.90817 0.07332 0.20996 0.0
C251 C 0.94863 0.03564 0.28306 0.0
C252 C 0.93907 0.04779 0.25461 0.0
H253 H 0.85924 0.07226 0.13526 0.0
H254 H 0.90459 0.0585 0.15482 0.0
H255 H 0.90205 0.02681 0.20866 0.0
H256 H 0.91698 0.99927 0.35792 0.0
H257 H 0.90761 0.0109 0.30665 0.0
C258 C 0.03971 0.91315 0.40661 0.0
C259 C 0.01053 0.91836 0.43129 0.0
C260 C 0.05077 0.88426 0.39695 0.0
C261 C 0.01871 0.81481 0.39593 0.0
H262 H 0.10791 0.78961 0.35174 0.0
C263 C 0.05914 0.75288 0.28638 0.0
C264 C 0.08737 0.73272 0.27899 0.0
C265 C 0.0493 0.76762 0.31364 0.0
C266 C 0.08293 0.79579 0.3646 0.0
H267 H 0.97137 0.89628 0.46664 0.0
H268 H 0.99123 0.84589 0.45054 0.0
H269 H 0.09344 0.83048 0.38528 0.0
H270 H 0.12664 0.7108 0.2951 0.0
H271 H 0.10936 0.73677 0.34329 0.0
H272 H 0.00819 0.7804 0.37496 0.0
C273 C 0.00509 0.86441 0.43801 0.0
C274 C 0.07459 0.81956 0.38347 0.0
C275 C -0.00618 0.8934 0.44746 0.0
C276 C 0.10476 0.72627 0.30036 0.0
C277 C 0.09499 0.74125 0.32773 0.0
C278 C 0.02705 0.7909 0.37736 0.0
C279 C 0.0332 0.85965 0.41198 0.0
C280 C 0.04234 0.83033 0.3981 0.0
C281 C 0.06746 0.76258 0.33427 0.0
C282 C 0.05916 0.78215 0.36019 0.0
H283 H 0.05377 0.93148 0.39407 0.0
H284 H 0.07237 0.88167 0.37663 0.0
H285 H 0.99362 0.82239 0.40672 0.0
H286 H 0.04509 0.7579 0.2705 0.0
H287 H 0.02825 0.78417 0.31758 0.0
C288 C 0.30279 0.05125 0.16802 0.0
C289 C 0.30121 0.04833 0.13794 0.0
C290 C 0.27756 0.04473 0.196 0.0
C291 C 0.19114 0.03882 0.22457 0.0
H292 H 0.20633 0.00529 0.30418 0.0
C293 C 0.08754 0.01951 0.3424 0.0
C294 C 0.0895 0.03237 0.368 0.0
C295 C 0.11414 0.016 0.31496 0.0
C296 C 0.20175 0.01467 0.28211 0.0
H297 H 0.27168 0.03553 0.1141 0.0
H298 H 0.22811 0.02333 0.16296 0.0
H299 H 0.25133 0.00908 0.25442 0.0
H300 H 0.12142 0.0499 0.38557 0.0
H301 H 0.16787 0.04358 0.33771 0.0
H302 H 0.14159 0.04459 0.25236 0.0
C303 C 0.24873 0.03125 0.16479 0.0
C304 C 0.22751 0.01696 0.25361 0.0
C305 C 0.27393 0.03797 0.13672 0.0
C306 C 0.11907 0.04005 0.36625 0.0
C307 C 0.14574 0.03629 0.33888 0.0
C308 C 0.1654 0.03629 0.25301 0.0
C309 C 0.2501 0.03484 0.19477 0.0
C310 C 0.22258 0.02963 0.22457 0.0
C311 C 0.14332 0.02496 0.31264 0.0
C312 C 0.17047 0.02469 0.28216 0.0
H313 H 0.32351 0.05862 0.17013 0.0
H314 H 0.27935 0.04816 0.21856 0.0
H315 H 0.18642 0.04909 0.2028 0.0
H316 H 0.06517 0.0132 0.34299 0.0
H317 H 0.1117 0.00684 0.29525 0.0
C318 C 0.13876 0.80093 0.01046 0.0
C319 C 0.12446 0.80549 0.04283 0.0
C320 C 0.14924 0.82521 0.98712 0.0
C321 C 0.13739 0.90843 0.97058 0.0
H322 H 0.21931 0.89704 0.9038 0.0
C323 C 0.18376 0.00583 0.87159 0.0
C324 C 0.19633 0.99771 0.84034 0.0
C325 C 0.17839 0.98339 0.89803 0.0
C326 C 0.19629 0.90056 0.92216 0.0
H327 H 0.10926 0.8393 0.07592 0.0
H328 H 0.12759 0.88168 0.03515 0.0
H329 H 0.20203 0.85568 0.94626 0.0
H330 H 0.21466 0.95974 0.81238 0.0
H331 H 0.20497 0.92085 0.85816 0.0
H332 H 0.13118 0.95296 0.9461 0.0
C333 C 0.13072 0.8593 0.02787 0.0
C334 C 0.1864 0.87685 0.94647 0.0
C335 C 0.12044 0.83498 0.05124 0.0
C336 C 0.20487 0.96681 0.83612 0.0
C337 C 0.19949 0.94444 0.86246 0.0
C338 C 0.1472 0.9321 0.94617 0.0
C339 C 0.14545 0.85464 0.99558 0.0
C340 C 0.15665 0.88037 0.9707 0.0
C341 C 0.18552 0.95239 0.89374 0.0
C342 C 0.17659 0.92832 0.92139 0.0
H343 H 0.14251 0.77847 0.00323 0.0
H344 H 0.16016 0.82096 0.96237 0.0
H345 H 0.11423 0.91175 0.98878 0.0
H346 H 0.177 0.02945 0.87566 0.0
H347 H 0.16809 0.99031 0.92181 0.0
C348 C 0.4455 0.02677 0.86624 0.0
C349 C 0.41722 0.03245 0.89195 0.0
C350 C 0.44458 0.01707 0.83858 0.0
C351 C 0.42776 0.02283 0.77687 0.0
H352 H 0.35745 0.97906 0.78648 0.0
C353 C 0.3347 0.0744 0.72724 0.0
C354 C 0.30797 0.05916 0.73397 0.0
C355 C 0.36335 0.05839 0.72934 0.0
C356 C 0.37793 0.99065 0.78238 0.0
H357 H 0.36584 0.03245 0.90839 0.0
H358 H 0.36421 0.01577 0.86085 0.0
H359 H 0.37919 0.97318 0.82926 0.0
H360 H 0.29252 0.01464 0.74057 0.0
H361 H 0.34302 0.98658 0.74224 0.0
H362 H 0.42622 0.04075 0.73015 0.0
C363 C 0.38728 0.01797 0.86217 0.0
C364 C 0.39016 0.98747 0.80742 0.0
C365 C 0.38818 0.02777 0.88954 0.0
C366 C 0.31229 0.02726 0.73638 0.0
C367 C 0.34132 0.01112 0.73771 0.0
C368 C 0.41603 0.02545 0.75139 0.0
C369 C 0.41539 0.01261 0.83629 0.0
C370 C 0.41286 0.00591 0.80611 0.0
C371 C 0.36596 0.02663 0.7378 0.0
C372 C 0.38854 0.01212 0.75533 0.0
H373 H 0.46836 0.02971 0.86747 0.0
H374 H 0.46659 0.01326 0.81898 0.0
H375 H 0.446 0.0367 0.77475 0.0
H376 H 0.33249 0.09899 0.72376 0.0
H377 H 0.38172 0.0716 0.72823 0.0
C378 C 0.14181 0.18894 0.80987 0.0
C379 C 0.14803 0.15796 0.82018 0.0
C380 C 0.12445 0.20913 0.8319 0.0
C381 C 0.10429 0.22226 0.91427 0.0
H382 H 0.03495 0.27873 0.89772 0.0
C383 C 0.03322 0.31191 0.99882 0.0
C384 C 0.02598 0.34106 0.98404 0.0
C385 C 0.04495 0.28735 0.98098 0.0
C386 C 0.05442 0.26333 0.90256 0.0
H387 H 0.14123 0.12384 0.86167 0.0
H388 H 0.11133 0.15954 0.9004 0.0
H389 H 0.0622 0.23995 0.8623 0.0
H390 H 0.02498 0.36725 0.93907 0.0
H391 H 0.04618 0.32476 0.90784 0.0
H392 H 0.09759 0.24634 0.95367 0.0
C393 C 0.11979 0.16797 0.87518 0.0
C394 C 0.06988 0.24106 0.88236 0.0
C395 C 0.1368 0.14761 0.85305 0.0
C396 C 0.03015 0.34505 0.95121 0.0
C397 C 0.04214 0.32059 0.93333 0.0
C398 C 0.08908 0.2448 0.93429 0.0
C399 C 0.11329 0.19885 0.86472 0.0
C400 C 0.09524 0.22063 0.88776 0.0
C401 C 0.04991 0.29147 0.94793 0.0
C402 C 0.06428 0.26592 0.92837 0.0
H403 H 0.15001 0.1976 0.7847 0.0
H404 H 0.12003 0.23291 0.82329 0.0
H405 H 0.12396 0.20688 0.91875 0.0
H406 H 0.02999 0.30806 0.02417 0.0
H407 H 0.05019 0.26516 0.9931 0.0
C408 C 0.84135 0.09903 0.04135 0.0
C409 C 0.81341 0.09581 0.03549 0.0
C410 C 0.87064 0.09838 0.01671 0.0
C411 C 0.91109 0.10774 0.93057 0.0
H412 H 0.97445 0.04411 0.94885 0.0
C413 C 0.04503 0.09227 0.85257 0.0
C414 C 0.05727 0.06282 0.8443 0.0
C415 C 0.01444 0.09786 0.87449 0.0
C416 C 0.95696 0.06191 0.94344 0.0
H417 H 0.79404 0.09173 0.99863 0.0
H418 H 0.84542 0.09135 0.95528 0.0
H419 H 0.9224 0.05335 0.98986 0.0
H420 H 0.04734 0.01618 0.85233 0.0
H421 H -0.00605 0.02579 0.89146 0.0
H422 H 0.94604 0.11655 0.88422 0.0
C423 C 0.84447 0.09394 0.97915 0.0
C424 C 0.92734 0.06734 0.96691 0.0
C425 C 0.81513 0.09409 0.00395 0.0
C426 C 0.03834 0.03907 0.85825 0.0
C427 C 0.00797 0.04454 0.88065 0.0
C428 C 0.94103 0.10269 0.90724 0.0
C429 C 0.87257 0.09506 0.98558 0.0
C430 C 0.90412 0.09022 0.96067 0.0
C431 C -0.00421 0.07399 0.88896 0.0
C432 C 0.96411 0.07958 0.91346 0.0
H433 H 0.84096 0.10051 0.06531 0.0
H434 H 0.89198 0.09961 0.02215 0.0
H435 H 0.89352 0.1255 0.92526 0.0
H436 H 0.05907 0.11101 0.84187 0.0
H437 H 0.00561 0.12072 0.88065 0.0
C438 C 0.33856 0.16675 0.99764 0.0
C439 C 0.33267 0.13671 -0.00055 0.0
C440 C 0.31372 0.19054 0.00126 0.0
C441 C 0.23082 0.21238 0.00102 0.0
H442 H 0.22768 0.26822 0.05924 0.0
C443 C 0.11902 0.29631 0.05298 0.0
C444 C 0.12379 0.3256 0.05593 0.0
C445 C 0.14485 0.27374 0.0444 0.0
C446 C 0.22839 0.25313 0.04258 0.0
H447 H 0.2963 0.10826 0.0049 0.0
H448 H 0.25289 0.14984 0.0113 0.0
H449 H 0.2724 0.2285 0.04562 0.0
H450 H 0.15959 0.35423 0.0516 0.0
H451 H 0.20462 0.31496 0.03659 0.0
H452 H 0.18666 0.23701 0.99811 0.0
C453 C 0.27678 0.155 0.00697 0.0
C454 C 0.25406 0.23034 0.03475 0.0
C455 C 0.30165 0.13116 0.00339 0.0
C456 C 0.155 0.33179 0.05011 0.0
C457 C 0.18084 0.30925 0.04145 0.0
C458 C 0.20514 0.23527 0.00879 0.0
C459 C 0.28242 0.18485 0.00672 0.0
C460 C 0.25555 0.20966 0.01395 0.0
C461 C 0.17609 0.27994 0.03852 0.0
C462 C 0.20358 0.25586 0.02975 0.0
H463 H 0.36222 0.17186 0.99441 0.0
H464 H 0.31894 0.21338 0.00036 0.0
H465 H 0.23145 0.19697 0.98468 0.0
H466 H 0.09526 0.29066 0.0577 0.0
H467 H 0.14027 0.25127 0.04289 0.0
C468 C 0.30561 0.98385 0.03623 0.0
C469 C 0.3379 0.97419 0.02064 0.0
C470 C 0.28381 0.96261 0.0504 0.0
C471 C 0.27496 0.88076 0.05465 0.0
H472 H 0.21213 0.89383 0.13755 0.0
C473 C 0.21215 0.78467 0.14346 0.0
C474 C 0.17893 0.78888 0.15056 0.0
C475 C 0.22998 0.80885 0.12851 0.0
C476 C 0.22954 0.89006 0.11436 0.0
H477 H 0.3725 0.93483 0.00694 0.0
H478 H 0.33509 0.89804 0.0323 0.0
H479 H 0.24574 0.93353 0.10736 0.0
H480 H 0.13801 0.82179 0.14943 0.0
H481 H 0.16928 0.86435 0.12418 0.0
H482 H 0.25959 0.83671 0.06255 0.0
C483 C 0.32615 0.92191 0.03304 0.0
C484 C 0.24858 0.91283 0.09689 0.0
C485 C 0.34775 0.94308 0.01859 0.0
C486 C 0.16364 0.81799 0.14414 0.0
C487 C 0.18142 0.84229 0.12979 0.0
C488 C 0.2564 0.85786 0.07239 0.0
C489 C 0.29398 0.93132 0.04952 0.0
C490 C 0.2718 0.90831 0.06694 0.0
C491 C 0.21475 0.83765 0.12111 0.0
C492 C 0.23382 0.86225 0.10246 0.0
H493 H 0.29728 0.00772 0.03806 0.0
H494 H 0.25911 0.97073 0.06237 0.0
H495 H 0.29196 0.87673 0.03136 0.0
H496 H 0.22453 0.76243 0.14795 0.0
H497 H 0.25572 0.80493 0.12207 0.0
C498 C 0.76318 0.21645 0.09632 0.0
C499 C 0.74444 0.2059 0.12739 0.0
C500 C 0.77326 0.2453 0.08972 0.0
C501 C 0.79617 0.29607 0.12916 0.0
H502 H 0.79919 0.35407 0.05395 0.0
C503 C 0.87106 0.39357 0.10053 0.0
C504 C 0.88991 0.39934 0.06844 0.0
C505 C 0.84528 0.3769 0.10891 0.0
C506 C 0.79872 0.33804 0.07499 0.0
H507 H 0.72061 0.21768 0.17562 0.0
H508 H 0.73854 0.26789 0.16414 0.0
H509 H 0.76897 0.31073 0.06564 0.0
H510 H 0.89631 0.39368 0.01974 0.0
H511 H 0.85233 0.36322 0.03413 0.0
H512 H 0.82752 0.32149 0.13763 0.0
C513 C 0.74521 0.25391 0.1449 0.0
C514 C 0.78127 0.31336 0.08171 0.0
C515 C 0.73482 0.22526 0.1514 0.0
C516 C 0.88167 0.38972 0.04461 0.0
C517 C 0.85639 0.37234 0.05298 0.0
C518 C 0.81402 0.32032 0.1222 0.0
C519 C 0.76508 0.26392 0.11419 0.0
C520 C 0.78026 0.29195 0.10862 0.0
C521 C 0.83857 0.36474 0.08538 0.0
C522 C 0.81603 0.34141 0.09472 0.0
H523 H 0.77066 0.20207 0.07736 0.0
H524 H 0.78878 0.25241 0.06589 0.0
H525 H 0.79619 0.27962 0.14981 0.0
H526 H 0.87716 0.40095 0.11915 0.0
H527 H 0.83156 0.37239 0.134 0.0
C528 C 0.02249 0.81023 0.18571 0.0
C529 C 0.01805 0.78024 0.18479 0.0
C530 C -0.00273 0.83359 0.1883 0.0
C531 C 0.92499 0.85231 0.16671 0.0
H532 H 0.9075 0.92051 0.21518 0.0
C533 C 0.82398 0.94572 0.16086 0.0
C534 C 0.8305 0.97579 0.15699 0.0
C535 C 0.84421 0.92178 0.17005 0.0
C536 C 0.91226 0.9017 0.20136 0.0
H537 H 0.9832 0.75093 0.18799 0.0
H538 H 0.93923 0.79168 0.19259 0.0
H539 H 0.94786 0.87822 0.22143 0.0
H540 H 0.8623 0.00473 0.1611 0.0
H541 H 0.89851 0.96266 0.1764 0.0
H542 H 0.89053 0.87581 0.14575 0.0
C543 C 0.96233 0.79717 0.19083 0.0
C544 C 0.93528 0.8775 0.20501 0.0
C545 C 0.98749 0.77382 0.18833 0.0
C546 C 0.85681 0.98167 0.16402 0.0
C547 C 0.87743 0.95759 0.17284 0.0
C548 C 0.90226 0.87645 0.16293 0.0
C549 C 0.96718 0.8274 0.18993 0.0
C550 C 0.94182 0.85255 0.1877 0.0
C551 C 0.87179 0.92731 0.17508 0.0
C552 C 0.89553 0.90145 0.1802 0.0
H553 H 0.04574 0.81589 0.18321 0.0
H554 H 0.00176 0.85668 0.18739 0.0
H555 H 0.93006 0.83379 0.15243 0.0
H556 H 0.80344 0.94073 0.15622 0.0
H557 H 0.83862 0.89883 0.17247 0.0
C558 C 0.12122 0.16184 0.66329 0.0
C559 C 0.14373 0.13582 0.66258 0.0
C560 C 0.10384 0.16739 0.64216 0.0
C561 C 0.05474 0.14345 0.62111 0.0
H562 H 0.08513 0.13934 0.52965 0.0
C563 C 0.00692 0.07553 0.55416 0.0
C564 C 0.00146 0.09017 0.52606 0.0
C565 C 0.01923 0.09074 0.571 0.0
C566 C 0.07619 0.14111 0.5551 0.0
H567 H 0.16803 0.09731 0.63646 0.0
H568 H 0.13887 0.10802 0.59884 0.0
H569 H 0.12105 0.15111 0.55517 0.0
H570 H 0.00359 0.13214 0.49384 0.0
H571 H 0.02611 0.15843 0.52291 0.0
H572 H 0.01089 0.1306 0.6215 0.0
C573 C 0.13434 0.12371 0.61618 0.0
C574 C 0.09667 0.1478 0.56959 0.0
C575 C 0.15116 0.11767 0.63777 0.0
C576 C 0.00726 0.12057 0.51573 0.0
C577 C 0.02021 0.13554 0.53217 0.0
C578 C 0.03451 0.13609 0.60673 0.0
C579 C 0.10949 0.14765 0.61931 0.0
C580 C 0.08634 0.14816 0.60281 0.0
C581 C 0.02686 0.12051 0.55953 0.0
C582 C 0.04544 0.13403 0.57379 0.0
H583 H 0.1156 0.17689 0.68142 0.0
H584 H 0.08485 0.18612 0.64476 0.0
H585 H 0.04648 0.14318 0.64688 0.0
H586 H 0.00272 0.05206 0.5624 0.0
H587 H 0.02456 0.07866 0.59191 0.0
C588 C 0.6557 0.01683 0.10863 0.0
C589 C 0.65334 0.02514 0.13815 0.0
C590 C 0.63579 0.99697 0.10716 0.0
C591 C 0.55719 0.97442 0.14858 0.0
H592 H 0.58497 0.91865 0.08448 0.0
C593 C 0.46669 0.95301 0.10006 0.0
C594 C 0.47694 0.96259 0.06696 0.0
C595 C 0.48895 0.94267 0.11579 0.0
C596 C 0.57683 0.93378 0.10282 0.0
H597 H 0.62835 0.01929 0.18931 0.0
H598 H 0.59327 0.98466 0.18667 0.0
H599 H 0.62454 0.93823 0.09934 0.0
H600 H 0.51808 0.9639 0.02373 0.0
H601 H 0.55682 0.94767 0.05114 0.0
H602 H 0.50987 0.97232 0.15035 0.0
C603 C 0.61069 0.99339 0.16474 0.0
C604 C 0.59946 0.94503 0.11124 0.0
C605 C 0.63068 0.01321 0.16622 0.0
C606 C 0.50955 0.95768 0.04941 0.0
C607 C 0.53179 0.94781 0.06518 0.0
C608 C 0.53463 0.96336 0.14006 0.0
C609 C 0.61307 0.98507 0.13518 0.0
C610 C 0.58982 0.96683 0.1328 0.0
C611 C 0.52173 0.94239 0.0988 0.0
C612 C 0.54429 0.94445 0.11558 0.0
H613 H 0.67331 0.02528 0.08669 0.0
H614 H 0.63769 0.99152 0.08394 0.0
H615 H 0.54903 0.99117 0.16529 0.0
H616 H 0.44172 0.95616 0.11438 0.0
H617 H 0.48045 0.93779 0.14163 0.0
C618 C 0.19161 0.66215 0.03468 0.0
C619 C 0.1922 0.64762 0.0648 0.0
C620 C 0.19294 0.64507 0.01096 0.0
C621 C 0.15535 0.60412 0.99418 0.0
H622 H 0.20325 0.52691 0.97021 0.0
C623 C 0.12598 0.47931 0.99177 0.0
C624 C 0.09756 0.48776 0.98471 0.0
C625 C 0.14671 0.50071 0.98706 0.0
C626 C 0.18945 0.54835 0.97681 0.0
H627 H 0.1985 0.60414 0.09251 0.0
H628 H 0.20144 0.57421 0.05079 0.0
H629 H 0.22651 0.56151 0.98982 0.0
H630 H 0.06958 0.52408 0.96457 0.0
H631 H 0.10686 0.56125 0.95406 0.0
H632 H 0.11691 0.59024 0.98512 0.0
C633 C 0.19983 0.59873 0.04554 0.0
C634 C 0.20304 0.56828 0.98763 0.0
C635 C 0.198 0.6158 0.06947 0.0
C636 C 0.09138 0.51724 0.97033 0.0
C637 C 0.11263 0.53852 0.9647 0.0
C638 C 0.14143 0.58396 0.98427 0.0
C639 C 0.19534 0.61326 0.01688 0.0
C640 C 0.18557 0.59581 0.99754 0.0
C641 C 0.13976 0.53101 0.97458 0.0
C642 C 0.15767 0.55514 0.97686 0.0
H643 H 0.18683 0.68666 0.03055 0.0
H644 H 0.18939 0.65674 0.98905 0.0
H645 H 0.14118 0.6251 0.00204 0.0
H646 H 0.13099 0.45668 0.00319 0.0
H647 H 0.16686 0.4938 0.99553 0.0
loop_
_geom_bond_atom_site_label_1
_geom_bond_atom_site_label_2
_geom_bond_distance
_geom_bond_site_symmetry_2
_ccdc_geom_bond_type
C0 C1 1.351 . S
C0 N3 1.368 1_655 S
C0 H5 0.931 . S
C1 C0 1.351 . S
C1 N2 1.373 1_655 S
C1 H29 0.930 . S
N2 C1 1.373 1_455 S
N2 C4 1.340 . S
N3 C0 1.368 1_455 S
N3 C4 1.321 . S
N3 Co6 2.135 1_565 S
C4 N2 1.340 . S
C4 N3 1.321 . S
C4 H28 0.930 . S
H5 C0 0.931 . S
Co6 N3 2.135 1_545 S
Co6 N9 2.121 . S
Co6 O14 2.055 1_455 S
Co6 O17 2.039 . S
Co6 N20 2.140 . S
C7 O8 1.227 . S
C7 O17 1.265 . S
O8 C7 1.227 . S
N9 Co6 2.121 . S
N9 C11 1.375 . S
N9 C12 1.313 1_455 S
C10 C11 1.338 . S
C10 N13 1.396 . S
C10 H30 0.930 . S
C11 N9 1.375 . S
C11 C10 1.338 . S
C11 H15 0.931 . S
C12 N9 1.313 1_655 S
C12 N13 1.335 1_655 S
C12 H16 0.930 . S
N13 C10 1.396 . S
N13 C12 1.335 1_455 S
O14 Co6 2.055 1_655 S
O14 C18 1.253 . S
H15 C11 0.931 . S
H16 C12 0.930 . S
O17 Co6 2.039 . S
O17 C7 1.265 . S
C18 O14 1.253 . S
C18 O19 1.227 . S
O19 C18 1.227 . S
N20 Co6 2.140 . S
N20 C23 1.346 . S
N20 C24 1.345 1_455 S
C21 C22 1.387 . S
C21 C25 1.391 1_455 S
C22 C21 1.387 . S
C22 C23 1.369 . S
C22 H31 0.929 1_545 S
C23 N20 1.346 . S
C23 C22 1.369 . S
C23 H26 0.928 1_545 S
C24 N20 1.345 1_655 S
C24 C25 1.371 . S
C24 H27 0.931 . S
C25 C21 1.391 1_655 S
C25 C24 1.371 . S
C25 H32 0.930 . S
H26 C23 0.928 1_565 S
H27 C24 0.931 . S
H28 C4 0.930 . S
H29 C1 0.930 . S
H30 C10 0.930 . S
H31 C22 0.929 1_565 S
H32 C25 0.930 . S
C33 C34 1.351 . S
C33 N36 1.368 . S
C33 H38 0.931 . S
C34 C33 1.351 . S
C34 N35 1.373 . S
C34 H62 0.930 . S
N35 C34 1.373 . S
N35 C37 1.340 . S
N36 C33 1.368 . S
N36 C37 1.321 . S
N36 Co39 2.135 . S
C37 N35 1.340 . S
C37 N36 1.321 . S
C37 H61 0.930 . S
H38 C33 0.931 . S
Co39 N36 2.135 . S
Co39 N42 2.121 . S
Co39 O47 2.055 . S
Co39 O50 2.039 . S
Co39 N53 2.140 . S
C40 O41 1.227 . S
C40 O50 1.265 . S
O41 C40 1.227 . S
N42 Co39 2.121 . S
N42 C44 1.375 . S
N42 C45 1.313 . S
C43 C44 1.338 . S
C43 N46 1.377 . S
C43 H63 0.930 . S
C44 N42 1.375 . S
C44 C43 1.338 . S
C44 H48 0.931 . S
C45 N42 1.313 . S
C45 N46 1.344 . S
C45 H49 0.930 . S
N46 C43 1.377 . S
N46 C45 1.344 . S
O47 Co39 2.055 . S
O47 C51 1.253 . S
H48 C44 0.931 . S
H49 C45 0.930 . S
O50 Co39 2.039 . S
O50 C40 1.265 . S
C51 O47 1.253 . S
C51 O52 1.227 . S
O52 C51 1.227 . S
N53 Co39 2.140 . S
N53 C56 1.346 . S
N53 C57 1.345 . S
C54 C55 1.387 . S
C54 C58 1.391 . S
C55 C54 1.387 . S
C55 C56 1.369 . S
C55 H64 0.929 . S
C56 N53 1.346 . S
C56 C55 1.369 . S
C56 H59 0.928 . S
C57 N53 1.345 . S
C57 C58 1.371 . S
C57 H60 0.931 . S
C58 C54 1.391 . S
C58 C57 1.371 . S
C58 H65 0.930 . S
H59 C56 0.928 . S
H60 C57 0.931 . S
H61 C37 0.930 . S
H62 C34 0.930 . S
H63 C43 0.930 . S
H64 C55 0.929 . S
H65 C58 0.930 . S
C66 C67 1.351 . S
C66 N69 1.368 . S
C66 H71 0.931 . S
C67 C66 1.351 . S
C67 N68 1.373 . S
C67 H95 0.930 . S
N68 C67 1.373 . S
N68 C70 1.340 . S
N69 C66 1.368 . S
N69 C70 1.321 . S
N69 Co72 2.135 . S
C70 N68 1.340 . S
C70 N69 1.321 . S
C70 H94 0.904 1_545 S
H71 C66 0.931 . S
Co72 N69 2.135 . S
Co72 N75 2.121 1_554 S
Co72 O80 2.055 . S
Co72 O83 2.039 1_545 S
Co72 N86 2.140 . S
C73 O74 1.227 . S
C73 O83 1.265 . S
O74 C73 1.227 . S
N75 Co72 2.121 1_556 S
N75 C77 1.375 . S
N75 C78 1.313 . S
C76 C77 1.338 . S
C76 N79 1.377 . S
C76 H96 0.930 1_545 S
C77 N75 1.375 . S
C77 C76 1.338 . S
C77 H81 0.931 1_545 S
C78 N75 1.313 . S
C78 N79 1.344 . S
C78 H82 0.930 . S
N79 C76 1.377 . S
N79 C78 1.344 . S
O80 Co72 2.055 . S
O80 C84 1.253 1_554 S
H81 C77 0.931 1_565 S
H82 C78 0.930 . S
O83 Co72 2.039 1_565 S
O83 C73 1.265 . S
C84 O80 1.253 1_556 S
C84 O85 1.227 . S
O85 C84 1.227 . S
N86 Co72 2.140 . S
N86 C89 1.346 . S
N86 C90 1.345 1_554 S
C87 C88 1.387 . S
C87 C91 1.391 1_554 S
C88 C87 1.387 . S
C88 C89 1.369 . S
C88 H97 0.929 . S
C89 N86 1.346 . S
C89 C88 1.369 . S
C89 H92 0.928 . S
C90 N86 1.345 1_556 S
C90 C91 1.371 . S
C90 H93 0.931 . S
C91 C87 1.391 1_556 S
C91 C90 1.371 . S
C91 H98 0.930 . S
H92 C89 0.928 . S
H93 C90 0.931 . S
H94 C70 0.904 1_565 S
H95 C67 0.930 . S
H96 C76 0.930 1_565 S
H97 C88 0.929 . S
H98 C91 0.930 . S
C99 C100 1.351 . S
C99 N102 1.368 . S
C99 H104 0.931 . S
C100 C99 1.351 . S
C100 N101 1.373 . S
C100 H128 0.930 . S
N101 C100 1.373 . S
N101 C103 1.340 . S
N102 C99 1.368 . S
N102 C103 1.321 . S
N102 Co105 2.135 . S
C103 N101 1.340 . S
C103 N102 1.321 . S
C103 H127 0.930 1_554 S
H104 C99 0.931 . S
Co105 N102 2.135 . S
Co105 N108 2.121 1_455 S
Co105 O113 2.055 . S
Co105 O116 2.039 . S
Co105 N119 2.140 . S
C106 O107 1.227 . S
C106 O116 1.265 1_556 S
O107 C106 1.227 . S
N108 Co105 2.121 1_655 S
N108 C110 1.375 . S
N108 C111 1.313 . S
C109 C110 1.338 . S
C109 N112 1.377 . S
C109 H129 0.930 . S
C110 N108 1.375 . S
C110 C109 1.338 . S
C110 H114 0.904 1_554 S
C111 N108 1.313 . S
C111 N112 1.344 . S
C111 H115 0.930 . S
N112 C109 1.377 . S
N112 C111 1.344 . S
O113 Co105 2.055 . S
O113 C117 1.253 . S
H114 C110 0.904 1_556 S
H115 C111 0.930 . S
O116 Co105 2.039 . S
O116 C106 1.265 1_554 S
C117 O113 1.253 . S
C117 O118 1.227 . S
O118 C117 1.227 . S
N119 Co105 2.140 . S
N119 C122 1.346 . S
N119 C123 1.345 . S
C120 C121 1.387 . S
C120 C124 1.391 . S
C121 C120 1.387 . S
C121 C122 1.369 . S
C121 H130 0.929 . S
C122 N119 1.346 . S
C122 C121 1.369 . S
C122 H125 0.928 . S
C123 N119 1.345 . S
C123 C124 1.371 . S
C123 H126 0.931 1_455 S
C124 C120 1.391 . S
C124 C123 1.371 . S
C124 H131 0.930 1_455 S
H125 C122 0.928 . S
H126 C123 0.931 1_655 S
H127 C103 0.930 1_556 S
H128 C100 0.930 . S
H129 C109 0.930 . S
H130 C121 0.929 . S
H131 C124 0.930 1_655 S
C132 C133 1.351 . S
C132 N135 1.368 . S
C132 H137 0.931 . S
C133 C132 1.351 . S
C133 N134 1.373 . S
C133 H161 0.930 . S
N134 C133 1.373 . S
N134 C136 1.340 . S
N135 C132 1.368 . S
N135 C136 1.321 . S
N135 Co138 2.135 . S
C136 N134 1.340 . S
C136 N135 1.321 . S
C136 H160 0.930 . S
H137 C132 0.931 . S
Co138 N135 2.135 . S
Co138 N141 2.121 . S
Co138 O146 2.055 . S
Co138 O149 2.039 . S
Co138 N152 2.140 . S
C139 O140 1.227 . S
C139 O149 1.265 . S
O140 C139 1.227 . S
N141 Co138 2.121 . S
N141 C143 1.375 . S
N141 C144 1.313 . S
C142 C143 1.338 . S
C142 N145 1.377 1_545 S
C142 H162 0.930 1_545 S
C143 N141 1.375 . S
C143 C142 1.338 . S
C143 H147 0.931 . S
C144 N141 1.313 . S
C144 N145 1.313 1_545 S
C144 H148 0.930 . S
N145 C142 1.377 1_565 S
N145 C144 1.313 1_565 S
O146 Co138 2.055 . S
O146 C150 1.253 . S
H147 C143 0.931 . S
H148 C144 0.930 . S
O149 Co138 2.039 . S
O149 C139 1.265 . S
C150 O146 1.253 . S
C150 O151 1.227 . S
O151 C150 1.227 . S
N152 Co138 2.140 . S
N152 C155 1.346 . S
N152 C156 1.345 . S
C153 C154 1.387 . S
C153 C157 1.391 . S
C154 C153 1.387 . S
C154 C155 1.369 . S
C154 H163 0.929 . S
C155 N152 1.346 . S
C155 C154 1.369 . S
C155 H158 0.928 . S
C156 N152 1.345 . S
C156 C157 1.371 . S
C156 H159 0.931 . S
C157 C153 1.391 . S
C157 C156 1.371 . S
C157 H164 0.930 . S
H158 C155 0.928 . S
H159 C156 0.931 . S
H160 C136 0.930 . S
H161 C133 0.930 . S
H162 C142 0.930 1_565 S
H163 C154 0.929 . S
H164 C157 0.930 . S
C165 C166 1.351 . S
C165 N168 1.368 . S
C165 H170 0.931 . S
C166 C165 1.351 . S
C166 N167 1.373 . S
C166 H194 0.930 . S
N167 C166 1.373 . S
N167 C169 1.340 . S
N168 C165 1.368 . S
N168 C169 1.321 . S
N168 Co171 2.135 . S
C169 N167 1.340 . S
C169 N168 1.321 . S
C169 H193 0.930 . S
H170 C165 0.931 . S
Co171 N168 2.135 . S
Co171 N174 2.121 . S
Co171 O179 2.055 . S
Co171 O182 2.039 . S
Co171 N185 2.140 . S
C172 O173 1.227 . S
C172 O182 1.265 . S
O173 C172 1.227 . S
N174 Co171 2.121 . S
N174 C176 1.375 . S
N174 C177 1.313 . S
C175 C176 1.338 . S
C175 N178 1.377 . S
C175 H195 0.930 . S
C176 N174 1.375 . S
C176 C175 1.338 . S
C176 H180 0.931 . S
C177 N174 1.313 . S
C177 N178 1.344 . S
C177 H181 0.930 . S
N178 C175 1.377 . S
N178 C177 1.344 . S
O179 Co171 2.055 . S
O179 C183 1.253 . S
H180 C176 0.931 . S
H181 C177 0.930 . S
O182 Co171 2.039 . S
O182 C172 1.265 . S
C183 O179 1.253 . S
C183 O184 1.227 . S
O184 C183 1.227 . S
N185 Co171 2.140 . S
N185 C188 1.346 . S
N185 C189 1.345 . S
C186 C187 1.387 . S
C186 C190 1.391 . S
C187 C186 1.387 . S
C187 C188 1.369 . S
C187 H196 0.929 . S
C188 N185 1.346 . S
C188 C187 1.369 . S
C188 H191 0.928 . S
C189 N185 1.345 . S
C189 C190 1.371 . S
C189 H192 0.931 . S
C190 C186 1.391 . S
C190 C189 1.371 . S
C190 H197 0.930 . S
H191 C188 0.928 . S
H192 C189 0.931 . S
H193 C169 0.930 . S
H194 C166 0.930 . S
H195 C175 0.930 . S
H196 C187 0.929 . S
H197 C190 0.930 . S
C198 C199 1.349 1_655 S
C198 C200 1.327 . S
C198 H223 0.950 . S
C199 C198 1.349 1_455 S
C199 C215 1.349 . S
C200 C198 1.327 . S
C200 C219 1.429 1_655 S
C200 H224 0.950 . S
C201 C218 1.574 . S
C201 C220 1.368 . S
C201 H225 0.949 . S
H202 C206 0.949 . S
C203 C204 1.349 1_455 S
C203 C205 1.327 . S
C203 H226 0.950 . S
C204 C203 1.349 1_655 S
C204 C216 1.349 . S
C205 C203 1.327 . S
C205 C221 1.429 1_455 S
C205 H227 0.950 . S
C206 H202 0.949 . S
C206 C214 1.574 . S
C206 C222 1.384 . S
H207 C215 0.950 . S
H208 C213 0.950 . S
H209 C214 0.949 . S
H210 C216 0.950 . S
H211 C217 0.950 . S
H212 C218 0.949 . S
C213 H208 0.950 . S
C213 C215 1.327 . S
C213 C219 1.429 . S
C214 C206 1.574 . S
C214 H209 0.949 . S
C214 C220 1.368 1_655 S
C215 C199 1.349 . S
C215 H207 0.950 . S
C215 C213 1.327 . S
C216 C204 1.349 . S
C216 H210 0.950 . S
C216 C217 1.327 . S
C217 H211 0.950 . S
C217 C216 1.327 . S
C217 C221 1.429 . S
C218 C201 1.574 . S
C218 H212 0.949 . S
C218 C222 1.357 1_455 S
C219 C200 1.429 1_455 S
C219 C213 1.429 . S
C219 C220 1.523 . S
C220 C201 1.368 . S
C220 C214 1.368 1_455 S
C220 C219 1.523 . S
C221 C205 1.429 1_655 S
C221 C217 1.429 . S
C221 C222 1.519 . S
C222 C206 1.384 . S
C222 C218 1.357 1_655 S
C222 C221 1.519 . S
H223 C198 0.950 . S
H224 C200 0.950 . S
H225 C201 0.949 . S
H226 C203 0.950 . S
H227 C205 0.950 . S
C228 C229 1.349 . S
C228 C230 1.327 . S
C228 H253 0.950 . S
C229 C228 1.349 . S
C229 C245 1.349 . S
C230 C228 1.327 . S
C230 C249 1.429 . S
C230 H254 0.950 . S
C231 C248 1.574 . S
C231 C250 1.368 . S
C231 H255 0.949 . S
H232 C236 0.949 . S
C233 C234 1.349 . S
C233 C235 1.327 . S
C233 H256 0.950 . S
C234 C233 1.349 . S
C234 C246 1.349 . S
C235 C233 1.327 . S
C235 C251 1.429 . S
C235 H257 0.950 . S
C236 H232 0.949 . S
C236 C244 1.574 . S
C236 C252 1.368 . S
H237 C245 0.950 . S
H238 C243 0.950 . S
H239 C244 0.949 . S
H240 C246 0.950 . S
H241 C247 0.950 . S
H242 C248 0.949 . S
C243 H238 0.950 . S
C243 C245 1.327 . S
C243 C249 1.429 . S
C244 C236 1.574 . S
C244 H239 0.949 . S
C244 C250 1.368 . S
C245 C229 1.349 . S
C245 H237 0.950 . S
C245 C243 1.327 . S
C246 C234 1.349 . S
C246 H240 0.950 . S
C246 C247 1.327 . S
C247 H241 0.950 . S
C247 C246 1.327 . S
C247 C251 1.429 . S
C248 C231 1.574 . S
C248 H242 0.949 . S
C248 C252 1.368 . S
C249 C230 1.429 . S
C249 C243 1.429 . S
C249 C250 1.523 . S
C250 C231 1.368 . S
C250 C244 1.368 . S
C250 C249 1.523 . S
C251 C235 1.429 . S
C251 C247 1.429 . S
C251 C252 1.523 . S
C252 C236 1.368 . S
C252 C248 1.368 . S
C252 C251 1.523 . S
H253 C228 0.950 . S
H254 C230 0.950 . S
H255 C231 0.949 . S
H256 C233 0.950 . S
H257 C235 0.950 . S
C258 C259 1.349 . S
C258 C260 1.327 . S
C258 H283 0.950 . S
C259 C258 1.349 . S
C259 C275 1.349 . S
C260 C258 1.327 . S
C260 C279 1.429 . S
C260 H284 0.950 . S
C261 C278 1.574 . S
C261 C280 1.368 . S
C261 H285 0.949 . S
H262 C266 0.949 . S
C263 C264 1.349 . S
C263 C265 1.327 . S
C263 H286 0.950 . S
C264 C263 1.349 . S
C264 C276 1.349 . S
C265 C263 1.327 . S
C265 C281 1.429 . S
C265 H287 0.950 . S
C266 H262 0.949 . S
C266 C274 1.574 . S
C266 C282 1.368 . S
H267 C275 0.950 1_655 S
H268 C273 0.950 1_655 S
H269 C274 0.949 . S
H270 C276 0.950 . S
H271 C277 0.950 . S
H272 C278 0.949 . S
C273 H268 0.950 1_455 S
C273 C275 1.327 . S
C273 C279 1.429 . S
C274 C266 1.574 . S
C274 H269 0.949 . S
C274 C280 1.368 . S
C275 C259 1.349 . S
C275 H267 0.950 1_455 S
C275 C273 1.327 . S
C276 C264 1.349 . S
C276 H270 0.950 . S
C276 C277 1.327 . S
C277 H271 0.950 . S
C277 C276 1.327 . S
C277 C281 1.429 . S
C278 C261 1.574 . S
C278 H272 0.949 . S
C278 C282 1.368 . S
C279 C260 1.429 . S
C279 C273 1.429 . S
C279 C280 1.523 . S
C280 C261 1.368 . S
C280 C274 1.368 . S
C280 C279 1.523 . S
C281 C265 1.429 . S
C281 C277 1.429 . S
C281 C282 1.523 . S
C282 C266 1.368 . S
C282 C278 1.368 . S
C282 C281 1.523 . S
H283 C258 0.950 . S
H284 C260 0.950 . S
H285 C261 0.949 . S
H286 C263 0.950 . S
H287 C265 0.950 . S
C288 C289 1.349 1_565 S
C288 C290 1.327 . S
C288 H313 0.950 . S
C289 C288 1.349 1_545 S
C289 C305 1.349 . S
C290 C288 1.327 . S
C290 C309 1.429 1_565 S
C290 H314 0.950 . S
C291 C308 1.574 . S
C291 C310 1.368 . S
C291 H315 0.949 . S
H292 C296 0.949 . S
C293 C294 1.349 . S
C293 C295 1.327 . S
C293 H316 0.950 . S
C294 C293 1.349 . S
C294 C306 1.349 1_545 S
C295 C293 1.327 . S
C295 C311 1.429 . S
C295 H317 0.950 . S
C296 H292 0.949 . S
C296 C304 1.574 . S
C296 C312 1.368 1_565 S
H297 C305 0.950 . S
H298 C303 0.950 . S
H299 C304 0.949 . S
H300 C306 0.950 . S
H301 C307 0.950 . S
H302 C308 0.949 . S
C303 H298 0.950 . S
C303 C305 1.327 . S
C303 C309 1.429 . S
C304 C296 1.574 . S
C304 H299 0.949 . S
C304 C310 1.368 1_565 S
C305 C289 1.349 . S
C305 H297 0.950 . S
C305 C303 1.327 . S
C306 C294 1.349 1_565 S
C306 H300 0.950 . S
C306 C307 1.327 . S
C307 H301 0.950 . S
C307 C306 1.327 . S
C307 C311 1.429 1_565 S
C308 C291 1.574 . S
C308 H302 0.949 . S
C308 C312 1.368 . S
C309 C290 1.429 1_545 S
C309 C303 1.429 . S
C309 C310 1.523 . S
C310 C291 1.368 . S
C310 C304 1.368 1_545 S
C310 C309 1.523 . S
C311 C295 1.429 . S
C311 C307 1.429 1_545 S
C311 C312 1.523 . S
C312 C296 1.368 1_545 S
C312 C308 1.368 . S
C312 C311 1.523 . S
H313 C288 0.950 . S
H314 C290 0.950 . S
H315 C291 0.949 . S
H316 C293 0.950 . S
H317 C295 0.950 . S
C318 C319 1.349 1_556 S
C318 C320 1.327 . S
C318 H343 0.950 . S
C319 C318 1.349 1_554 S
C319 C335 1.349 . S
C320 C318 1.327 . S
C320 C339 1.429 . S
C320 H344 0.950 . S
C321 C338 1.574 . S
C321 C340 1.368 . S
C321 H345 0.949 . S
H322 C326 0.949 . S
C323 C324 1.349 . S
C323 C325 1.327 1_545 S
C323 H346 0.950 . S
C324 C323 1.349 . S
C324 C336 1.349 1_545 S
C325 C323 1.327 1_565 S
C325 C341 1.429 . S
C325 H347 0.950 . S
C326 H322 0.949 . S
C326 C334 1.574 . S
C326 C342 1.368 . S
H327 C335 0.950 . S
H328 C333 0.951 1_554 S
H329 C334 0.949 . S
H330 C336 0.950 . S
H331 C337 0.950 . S
H332 C338 0.949 . S
C333 H328 0.951 1_556 S
C333 C335 1.329 1_556 S
C333 C339 1.425 . S
C334 C326 1.574 . S
C334 H329 0.949 . S
C334 C340 1.368 . S
C335 C319 1.349 . S
C335 H327 0.950 . S
C335 C333 1.329 1_554 S
C336 C324 1.349 1_565 S
C336 H330 0.950 . S
C336 C337 1.327 . S
C337 H331 0.950 . S
C337 C336 1.327 . S
C337 C341 1.429 . S
C338 C321 1.574 . S
C338 H332 0.949 . S
C338 C342 1.368 . S
C339 C320 1.429 . S
C339 C333 1.425 . S
C339 C340 1.523 . S
C340 C321 1.368 . S
C340 C334 1.368 . S
C340 C339 1.523 . S
C341 C325 1.429 . S
C341 C337 1.429 . S
C341 C342 1.523 . S
C342 C326 1.368 . S
C342 C338 1.368 . S
C342 C341 1.523 . S
H343 C318 0.950 . S
H344 C320 0.950 . S
H345 C321 0.949 . S
H346 C323 0.950 . S
H347 C325 0.950 . S
C348 C349 1.349 . S
C348 C350 1.327 . S
C348 H373 0.950 . S
C349 C348 1.349 . S
C349 C365 1.349 . S
C350 C348 1.327 . S
C350 C369 1.429 . S
C350 H374 0.950 . S
C351 C368 1.574 . S
C351 C370 1.368 . S
C351 H375 0.949 . S
H352 C356 0.949 . S
C353 C354 1.349 . S
C353 C355 1.327 . S
C353 H376 0.950 . S
C354 C353 1.349 . S
C354 C366 1.349 . S
C355 C353 1.327 . S
C355 C371 1.429 . S
C355 H377 0.950 . S
C356 H352 0.949 . S
C356 C364 1.574 . S
C356 C372 1.368 . S
H357 C365 0.950 . S
H358 C363 0.950 . S
H359 C364 0.949 . S
H360 C366 0.950 . S
H361 C367 0.950 . S
H362 C368 0.949 . S
C363 H358 0.950 . S
C363 C365 1.327 . S
C363 C369 1.429 . S
C364 C356 1.574 . S
C364 H359 0.949 . S
C364 C370 1.368 . S
C365 C349 1.349 . S
C365 H357 0.950 . S
C365 C363 1.327 . S
C366 C354 1.349 . S
C366 H360 0.950 . S
C366 C367 1.327 . S
C367 H361 0.950 . S
C367 C366 1.327 . S
C367 C371 1.429 . S
C368 C351 1.574 . S
C368 H362 0.949 . S
C368 C372 1.368 . S
C369 C350 1.429 . S
C369 C363 1.429 . S
C369 C370 1.523 . S
C370 C351 1.368 . S
C370 C364 1.368 . S
C370 C369 1.523 . S
C371 C355 1.429 . S
C371 C367 1.429 . S
C371 C372 1.523 . S
C372 C356 1.368 . S
C372 C368 1.368 . S
C372 C371 1.523 . S
H373 C348 0.950 . S
H374 C350 0.950 . S
H375 C351 0.949 . S
H376 C353 0.950 . S
H377 C355 0.950 . S
C378 C379 1.349 . S
C378 C380 1.327 . S
C378 H403 0.950 . S
C379 C378 1.349 . S
C379 C395 1.349 . S
C380 C378 1.327 . S
C380 C399 1.429 . S
C380 H404 0.950 . S
C381 C398 1.574 . S
C381 C400 1.368 . S
C381 H405 0.949 . S
H382 C386 0.949 . S
C383 C384 1.349 . S
C383 C385 1.327 . S
C383 H406 0.950 . S
C384 C383 1.349 . S
C384 C396 1.349 . S
C385 C383 1.327 . S
C385 C401 1.429 . S
C385 H407 0.950 . S
C386 H382 0.949 . S
C386 C394 1.574 . S
C386 C402 1.368 . S
H387 C395 0.950 . S
H388 C393 0.950 . S
H389 C394 0.949 . S
H390 C396 0.950 . S
H391 C397 0.950 . S
H392 C398 0.949 . S
C393 H388 0.950 . S
C393 C395 1.327 . S
C393 C399 1.429 . S
C394 C386 1.574 . S
C394 H389 0.949 . S
C394 C400 1.368 . S
C395 C379 1.349 . S
C395 H387 0.950 . S
C395 C393 1.327 . S
C396 C384 1.349 . S
C396 H390 0.950 . S
C396 C397 1.327 . S
C397 H391 0.950 . S
C397 C396 1.327 . S
C397 C401 1.429 . S
C398 C381 1.574 . S
C398 H392 0.949 . S
C398 C402 1.368 . S
C399 C380 1.429 . S
C399 C393 1.429 . S
C399 C400 1.523 . S
C400 C381 1.368 . S
C400 C394 1.368 . S
C400 C399 1.523 . S
C401 C385 1.429 . S
C401 C397 1.429 . S
C401 C402 1.523 . S
C402 C386 1.368 . S
C402 C398 1.368 . S
C402 C401 1.523 . S
H403 C378 0.950 . S
H404 C380 0.950 . S
H405 C381 0.949 . S
H406 C383 0.950 . S
H407 C385 0.950 . S
C408 C409 1.349 . S
C408 C410 1.327 . S
C408 H433 0.950 . S
C409 C408 1.349 . S
C409 C425 1.349 . S
C410 C408 1.327 . S
C410 C429 1.429 . S
C410 H434 0.950 . S
C411 C428 1.574 . S
C411 C430 1.368 . S
C411 H435 0.949 . S
H412 C416 0.949 . S
C413 C414 1.349 . S
C413 C415 1.327 1_455 S
C413 H436 0.950 . S
C414 C413 1.349 . S
C414 C426 1.349 . S
C415 C413 1.327 1_655 S
C415 C431 1.429 . S
C415 H437 0.950 . S
C416 H412 0.949 . S
C416 C424 1.574 . S
C416 C432 1.368 . S
H417 C425 0.950 . S
H418 C423 0.950 . S
H419 C424 0.949 . S
H420 C426 0.950 . S
H421 C427 0.950 . S
H422 C428 0.949 . S
C423 H418 0.950 . S
C423 C425 1.327 . S
C423 C429 1.429 . S
C424 C416 1.574 . S
C424 H419 0.949 . S
C424 C430 1.368 . S
C425 C409 1.349 . S
C425 H417 0.950 . S
C425 C423 1.327 . S
C426 C414 1.349 . S
C426 H420 0.950 . S
C426 C427 1.327 . S
C427 H421 0.950 . S
C427 C426 1.327 . S
C427 C431 1.429 1_455 S
C428 C411 1.574 . S
C428 H422 0.949 . S
C428 C432 1.368 . S
C429 C410 1.429 . S
C429 C423 1.429 . S
C429 C430 1.523 1_554 S
C430 C411 1.368 . S
C430 C424 1.368 . S
C430 C429 1.523 1_556 S
C431 C415 1.429 . S
C431 C427 1.429 1_655 S
C431 C432 1.523 . S
C432 C416 1.368 . S
C432 C428 1.368 . S
C432 C431 1.523 . S
H433 C408 0.950 . S
H434 C410 0.950 . S
H435 C411 0.949 . S
H436 C413 0.950 . S
H437 C415 0.950 . S
C438 C439 1.349 1_554 S
C438 C440 1.327 . S
C438 H463 0.950 . S
C439 C438 1.349 1_556 S
C439 C455 1.349 . S
C440 C438 1.327 . S
C440 C459 1.431 . S
C440 H464 0.950 . S
C441 C458 1.574 . S
C441 C460 1.368 1_556 S
C441 H465 0.949 . S
H442 C446 0.949 . S
C443 C444 1.349 1_556 S
C443 C445 1.327 . S
C443 H466 0.950 . S
C444 C443 1.349 1_554 S
C444 C456 1.349 . S
C445 C443 1.327 . S
C445 C461 1.429 1_556 S
C445 H467 0.950 . S
C446 H442 0.949 . S
C446 C454 1.574 . S
C446 C462 1.368 . S
H447 C455 0.950 . S
H448 C453 0.950 . S
H449 C454 0.949 . S
H450 C456 0.950 . S
H451 C457 0.950 . S
H452 C458 0.949 . S
C453 H448 0.950 . S
C453 C455 1.327 . S
C453 C459 1.426 1_556 S
C454 C446 1.574 . S
C454 H449 0.949 . S
C454 C460 1.368 . S
C455 C439 1.349 . S
C455 H447 0.950 . S
C455 C453 1.327 . S
C456 C444 1.349 . S
C456 H450 0.950 . S
C456 C457 1.327 . S
C457 H451 0.950 . S
C457 C456 1.327 . S
C457 C461 1.429 . S
C458 C441 1.574 . S
C458 H452 0.949 . S
C458 C462 1.368 1_556 S
C459 C440 1.431 . S
C459 C453 1.426 1_554 S
C459 C460 1.523 . S
C460 C441 1.368 1_554 S
C460 C454 1.368 . S
C460 C459 1.523 . S
C461 C445 1.429 1_554 S
C461 C457 1.429 . S
C461 C462 1.523 . S
C462 C446 1.368 . S
C462 C458 1.368 1_554 S
C462 C461 1.523 . S
H463 C438 0.950 . S
H464 C440 0.950 . S
H465 C441 0.949 . S
H466 C443 0.950 . S
H467 C445 0.950 . S
C468 C469 1.349 . S
C468 C470 1.327 . S
C468 H493 0.950 . S
C469 C468 1.349 . S
C469 C485 1.349 . S
C470 C468 1.327 . S
C470 C489 1.429 . S
C470 H494 0.950 . S
C471 C488 1.574 . S
C471 C490 1.368 . S
C471 H495 0.949 . S
H472 C476 0.949 . S
C473 C474 1.349 . S
C473 C475 1.327 . S
C473 H496 0.950 . S
C474 C473 1.349 . S
C474 C486 1.349 . S
C475 C473 1.327 . S
C475 C491 1.429 . S
C475 H497 0.950 . S
C476 H472 0.949 . S
C476 C484 1.574 . S
C476 C492 1.368 . S
H477 C485 0.950 1_556 S
H478 C483 0.950 . S
H479 C484 0.949 . S
H480 C486 0.950 . S
H481 C487 0.950 . S
H482 C488 0.949 . S
C483 H478 0.950 . S
C483 C485 1.327 . S
C483 C489 1.429 . S
C484 C476 1.574 . S
C484 H479 0.949 . S
C484 C490 1.368 . S
C485 C469 1.349 . S
C485 H477 0.950 1_554 S
C485 C483 1.327 . S
C486 C474 1.349 . S
C486 H480 0.950 . S
C486 C487 1.327 . S
C487 H481 0.950 . S
C487 C486 1.327 . S
C487 C491 1.429 . S
C488 C471 1.574 . S
C488 H482 0.949 . S
C488 C492 1.368 . S
C489 C470 1.429 . S
C489 C483 1.429 . S
C489 C490 1.523 . S
C490 C471 1.368 . S
C490 C484 1.368 . S
C490 C489 1.523 . S
C491 C475 1.429 . S
C491 C487 1.429 . S
C491 C492 1.523 . S
C492 C476 1.368 . S
C492 C488 1.368 . S
C492 C491 1.523 . S
H493 C468 0.950 . S
H494 C470 0.950 . S
H495 C471 0.949 . S
H496 C473 0.950 . S
H497 C475 0.950 . S
C498 C499 1.349 . S
C498 C500 1.327 . S
C498 H523 0.950 . S
C499 C498 1.349 . S
C499 C515 1.349 . S
C500 C498 1.327 . S
C500 C519 1.429 . S
C500 H524 0.950 . S
C501 C518 1.574 . S
C501 C520 1.368 . S
C501 H525 0.949 . S
H502 C506 0.949 . S
C503 C504 1.349 . S
C503 C505 1.327 . S
C503 H526 0.950 . S
C504 C503 1.349 . S
C504 C516 1.349 . S
C505 C503 1.327 . S
C505 C521 1.429 . S
C505 H527 0.950 . S
C506 H502 0.949 . S
C506 C514 1.574 . S
C506 C522 1.368 . S
H507 C515 0.950 . S
H508 C513 0.950 . S
H509 C514 0.949 . S
H510 C516 0.950 . S
H511 C517 0.950 . S
H512 C518 0.949 . S
C513 H508 0.950 . S
C513 C515 1.327 . S
C513 C519 1.429 . S
C514 C506 1.574 . S
C514 H509 0.949 . S
C514 C520 1.368 . S
C515 C499 1.349 . S
C515 H507 0.950 . S
C515 C513 1.327 . S
C516 C504 1.349 . S
C516 H510 0.950 . S
C516 C517 1.327 . S
C517 H511 0.950 . S
C517 C516 1.327 . S
C517 C521 1.429 . S
C518 C501 1.574 . S
C518 H512 0.949 . S
C518 C522 1.368 . S
C519 C500 1.429 . S
C519 C513 1.429 . S
C519 C520 1.523 . S
C520 C501 1.368 . S
C520 C514 1.368 . S
C520 C519 1.523 . S
C521 C505 1.429 . S
C521 C517 1.429 . S
C521 C522 1.523 . S
C522 C506 1.368 . S
C522 C518 1.368 . S
C522 C521 1.523 . S
H523 C498 0.950 . S
H524 C500 0.950 . S
H525 C501 0.949 . S
H526 C503 0.950 . S
H527 C505 0.950 . S
C528 C529 1.349 . S
C528 C530 1.327 . S
C528 H553 0.950 . S
C529 C528 1.349 . S
C529 C545 1.349 . S
C530 C528 1.327 . S
C530 C549 1.429 1_455 S
C530 H554 0.950 . S
C531 C548 1.574 . S
C531 C550 1.368 . S
C531 H555 0.949 . S
H532 C536 0.949 . S
C533 C534 1.349 . S
C533 C535 1.327 . S
C533 H556 0.950 . S
C534 C533 1.349 . S
C534 C546 1.349 . S
C535 C533 1.327 . S
C535 C551 1.429 . S
C535 H557 0.950 . S
C536 H532 0.949 . S
C536 C544 1.574 . S
C536 C552 1.368 . S
H537 C545 0.950 . S
H538 C543 0.950 . S
H539 C544 0.949 . S
H540 C546 0.950 . S
H541 C547 0.950 . S
H542 C548 0.949 . S
C543 H538 0.950 . S
C543 C545 1.327 1_655 S
C543 C549 1.429 . S
C544 C536 1.574 . S
C544 H539 0.949 . S
C544 C550 1.368 . S
C545 C529 1.349 . S
C545 H537 0.950 . S
C545 C543 1.327 1_455 S
C546 C534 1.349 . S
C546 H540 0.950 . S
C546 C547 1.327 . S
C547 H541 0.950 . S
C547 C546 1.327 . S
C547 C551 1.429 . S
C548 C531 1.574 . S
C548 H542 0.949 . S
C548 C552 1.368 . S
C549 C530 1.429 1_655 S
C549 C543 1.429 . S
C549 C550 1.523 . S
C550 C531 1.368 . S
C550 C544 1.368 . S
C550 C549 1.523 . S
C551 C535 1.429 . S
C551 C547 1.429 . S
C551 C552 1.523 . S
C552 C536 1.368 . S
C552 C548 1.368 . S
C552 C551 1.523 . S
H553 C528 0.950 . S
H554 C530 0.950 . S
H555 C531 0.949 . S
H556 C533 0.950 . S
H557 C535 0.950 . S
C558 C559 1.349 . S
C558 C560 1.327 . S
C558 H583 0.950 . S
C559 C558 1.349 . S
C559 C575 1.349 . S
C560 C558 1.327 . S
C560 C579 1.429 . S
C560 H584 0.950 . S
C561 C578 1.574 . S
C561 C580 1.368 . S
C561 H585 0.949 . S
H562 C566 0.949 . S
C563 C564 1.349 . S
C563 C565 1.327 . S
C563 H586 0.950 1_545 S
C564 C563 1.349 . S
C564 C576 1.349 . S
C565 C563 1.327 . S
C565 C581 1.429 . S
C565 H587 0.950 . S
C566 H562 0.949 . S
C566 C574 1.574 . S
C566 C582 1.368 . S
H567 C575 0.950 . S
H568 C573 0.950 . S
H569 C574 0.949 . S
H570 C576 0.950 . S
H571 C577 0.950 . S
H572 C578 0.949 . S
C573 H568 0.950 . S
C573 C575 1.327 . S
C573 C579 1.429 . S
C574 C566 1.574 . S
C574 H569 0.949 . S
C574 C580 1.368 . S
C575 C559 1.349 . S
C575 H567 0.950 . S
C575 C573 1.327 . S
C576 C564 1.349 . S
C576 H570 0.950 . S
C576 C577 1.327 . S
C577 H571 0.950 . S
C577 C576 1.327 . S
C577 C581 1.429 . S
C578 C561 1.574 . S
C578 H572 0.949 . S
C578 C582 1.368 . S
C579 C560 1.429 . S
C579 C573 1.429 . S
C579 C580 1.523 . S
C580 C561 1.368 . S
C580 C574 1.368 . S
C580 C579 1.523 . S
C581 C565 1.429 . S
C581 C577 1.429 . S
C581 C582 1.523 . S
C582 C566 1.368 . S
C582 C578 1.368 . S
C582 C581 1.523 . S
H583 C558 0.950 . S
H584 C560 0.950 . S
H585 C561 0.949 . S
H586 C563 0.950 1_565 S
H587 C565 0.950 . S
C588 C589 1.349 . S
C588 C590 1.327 . S
C588 H613 0.950 . S
C589 C588 1.349 . S
C589 C605 1.349 . S
C590 C588 1.327 . S
C590 C609 1.429 . S
C590 H614 0.950 . S
C591 C608 1.574 . S
C591 C610 1.368 . S
C591 H615 0.949 . S
H592 C596 0.949 . S
C593 C594 1.349 . S
C593 C595 1.327 . S
C593 H616 0.950 . S
C594 C593 1.349 . S
C594 C606 1.349 . S
C595 C593 1.327 . S
C595 C611 1.429 . S
C595 H617 0.950 . S
C596 H592 0.949 . S
C596 C604 1.574 . S
C596 C612 1.368 . S
H597 C605 0.950 . S
H598 C603 0.950 . S
H599 C604 0.949 . S
H600 C606 0.950 1_556 S
H601 C607 0.950 . S
H602 C608 0.949 . S
C603 H598 0.950 . S
C603 C605 1.327 . S
C603 C609 1.429 . S
C604 C596 1.574 . S
C604 H599 0.949 . S
C604 C610 1.368 . S
C605 C589 1.349 . S
C605 H597 0.950 . S
C605 C603 1.327 . S
C606 C594 1.349 . S
C606 H600 0.950 1_554 S
C606 C607 1.327 . S
C607 H601 0.950 . S
C607 C606 1.327 . S
C607 C611 1.429 . S
C608 C591 1.574 . S
C608 H602 0.949 . S
C608 C612 1.368 . S
C609 C590 1.429 . S
C609 C603 1.429 . S
C609 C610 1.523 . S
C610 C591 1.368 . S
C610 C604 1.368 . S
C610 C609 1.523 . S
C611 C595 1.429 . S
C611 C607 1.429 . S
C611 C612 1.523 . S
C612 C596 1.368 . S
C612 C608 1.368 . S
C612 C611 1.523 . S
H613 C588 0.950 . S
H614 C590 0.950 . S
H615 C591 0.949 . S
H616 C593 0.950 . S
H617 C595 0.950 . S
C618 C619 1.349 . S
C618 C620 1.327 . S
C618 H643 0.950 . S
C619 C618 1.349 . S
C619 C635 1.349 . S
C620 C618 1.327 . S
C620 C639 1.429 . S
C620 H644 0.950 . S
C621 C638 1.574 . S
C621 C640 1.368 . S
C621 H645 0.949 . S
H622 C626 0.949 . S
C623 C624 1.349 . S
C623 C625 1.327 . S
C623 H646 0.950 . S
C624 C623 1.349 . S
C624 C636 1.349 . S
C625 C623 1.327 . S
C625 C641 1.429 . S
C625 H647 0.950 . S
C626 H622 0.949 . S
C626 C634 1.574 . S
C626 C642 1.368 . S
H627 C635 0.950 . S
H628 C633 0.950 . S
H629 C634 0.949 . S
H630 C636 0.950 . S
H631 C637 0.950 . S
H632 C638 0.949 . S
C633 H628 0.950 . S
C633 C635 1.327 . S
C633 C639 1.429 . S
C634 C626 1.574 . S
C634 H629 0.949 . S
C634 C640 1.368 . S
C635 C619 1.349 . S
C635 H627 0.950 . S
C635 C633 1.327 . S
C636 C624 1.349 . S
C636 H630 0.950 . S
C636 C637 1.327 . S
C637 H631 0.950 . S
C637 C636 1.327 . S
C637 C641 1.429 . S
C638 C621 1.574 . S
C638 H632 0.949 . S
C638 C642 1.368 . S
C639 C620 1.429 . S
C639 C633 1.429 . S
C639 C640 1.523 . S
C640 C621 1.368 . S
C640 C634 1.368 . S
C640 C639 1.523 . S
C641 C625 1.429 . S
C641 C637 1.429 . S
C641 C642 1.523 . S
C642 C626 1.368 . S
C642 C638 1.368 . S
C642 C641 1.523 . S
H643 C618 0.950 . S
H644 C620 0.950 . S
H645 C621 0.949 . S
H646 C623 0.950 . S
H647 C625 0.950 . S
C199 C117 1.374 . S
C204 N13 1.213 1_655 S
C229 C150 0.422 . S
C234 C18 0.422 . S
C259 N2 0.615 . S
C264 N178 0.582 . S
C289 N68 1.090 . S
C294 C7 1.222 . S
C319 N167 1.090 . S
C324 C51 1.237 . S
C349 N79 0.621 . S
C354 N46 0.621 . S
C379 C40 0.618 . S
C384 C106 0.624 . S
C409 C139 1.222 . S
C414 N35 1.091 . S
C439 C84 1.237 . S
C444 N101 1.090 . S
C469 C73 0.618 . S
C474 C172 0.624 . S
C499 N134 0.615 . S
C504 N112 0.582 . S
C529 C183 1.374 . S
C534 N145 1.244 . S
C559 C54 0.818 . S
C564 C21 0.819 . S
C589 C153 0.816 . S
C594 C87 0.816 . S
C619 C186 0.781 . S
C624 C120 0.781 . S
