# Generated by pormake.
# Topology wje, (4)-cn, num edge types: 1
# Building blocks:
#     Node 0, Type 0, BuildingBlock: QUQFOY_clean_sbu_1, # of connection points: 4
#     Node 1, Type 0, BuildingBlock: QUQFOY_clean_sbu_1, # of connection points: 4
#     Node 2, Type 0, BuildingBlock: QUQFOY_clean_sbu_1, # of connection points: 4
#     Node 3, Type 0, BuildingBlock: QUQFOY_clean_sbu_1, # of connection points: 4
#     Node 4, Type 0, BuildingBlock: QUQFOY_clean_sbu_1, # of connection points: 4
#     Node 5, Type 0, BuildingBlock: QUQFOY_clean_sbu_1, # of connection points: 4
#     Node 6, Type 0, BuildingBlock: QUQFOY_clean_sbu_1, # of connection points: 4
#     Node 7, Type 0, BuildingBlock: QUQFOY_clean_sbu_1, # of connection points: 4
#     Node 8, Type 0, BuildingBlock: QUQFOY_clean_sbu_1, # of connection points: 4
#     Node 9, Type 0, BuildingBlock: QUQFOY_clean_sbu_1, # of connection points: 4
#     Node 10, Type 0, BuildingBlock: QUQFOY_clean_sbu_1, # of connection points: 4
#     Node 11, Type 0, BuildingBlock: QUQFOY_clean_sbu_1, # of connection points: 4
#     Edge 12, Type (0, 0), BuildingBlock: UVAHIK_clean_linker_0, # of connection points: 2
#     Edge 13, Type (0, 0), BuildingBlock: UVAHIK_clean_linker_0, # of connection points: 2
#     Edge 14, Type (0, 0), BuildingBlock: UVAHIK_clean_linker_0, # of connection points: 2
#     Edge 15, Type (0, 0), BuildingBlock: UVAHIK_clean_linker_0, # of connection points: 2
#     Edge 16, Type (0, 0), BuildingBlock: UVAHIK_clean_linker_0, # of connection points: 2
#     Edge 17, Type (0, 0), BuildingBlock: UVAHIK_clean_linker_0, # of connection points: 2
#     Edge 18, Type (0, 0), BuildingBlock: UVAHIK_clean_linker_0, # of connection points: 2
#     Edge 19, Type (0, 0), BuildingBlock: UVAHIK_clean_linker_0, # of connection points: 2
#     Edge 20, Type (0, 0), BuildingBlock: UVAHIK_clean_linker_0, # of connection points: 2
#     Edge 21, Type (0, 0), BuildingBlock: UVAHIK_clean_linker_0, # of connection points: 2
#     Edge 22, Type (0, 0), BuildingBlock: UVAHIK_clean_linker_0, # of connection points: 2
#     Edge 23, Type (0, 0), BuildingBlock: UVAHIK_clean_linker_0, # of connection points: 2
#     Edge 24, Type (0, 0), BuildingBlock: UVAHIK_clean_linker_0, # of connection points: 2
#     Edge 25, Type (0, 0), BuildingBlock: UVAHIK_clean_linker_0, # of connection points: 2
#     Edge 26, Type (0, 0), BuildingBlock: UVAHIK_clean_linker_0, # of connection points: 2
#     Edge 27, Type (0, 0), BuildingBlock: UVAHIK_clean_linker_0, # of connection points: 2
#     Edge 28, Type (0, 0), BuildingBlock: UVAHIK_clean_linker_0, # of connection points: 2
#     Edge 29, Type (0, 0), BuildingBlock: UVAHIK_clean_linker_0, # of connection points: 2
#     Edge 30, Type (0, 0), BuildingBlock: UVAHIK_clean_linker_0, # of connection points: 2
#     Edge 31, Type (0, 0), BuildingBlock: UVAHIK_clean_linker_0, # of connection points: 2
#     Edge 32, Type (0, 0), BuildingBlock: UVAHIK_clean_linker_0, # of connection points: 2
#     Edge 33, Type (0, 0), BuildingBlock: UVAHIK_clean_linker_0, # of connection points: 2
#     Edge 34, Type (0, 0), BuildingBlock: UVAHIK_clean_linker_0, # of connection points: 2
#     Edge 35, Type (0, 0), BuildingBlock: UVAHIK_clean_linker_0, # of connection points: 2
# Relax obj value: 0.108
# Max RMSD: 0.087
# Mean RMSD: 0.087
data_MOF--net-wje--node1-QUQFOY_clean_sbu_1--edge1-UVAHIK_clean_linker_0
_symmetry_space_group_name_H-M    P1
_symmetry_Int_Tables_number       1
_symmetry_cell_setting            triclinic
loop_
_symmetry_equiv_pos_as_xyz
'x, y, z'
_cell_length_a     53.850566
_cell_length_b     53.890615
_cell_length_c     50.044867
_cell_angle_alpha  90.037788
_cell_angle_beta   90.02543
_cell_angle_gamma 120.0434
loop_
_atom_site_label
_atom_site_type_symbol
_atom_site_fract_x
_atom_site_fract_y
_atom_site_fract_z
_atom_type_partial_charge
O0 O 0.2766 0.00552 0.31591 0.0
Cd1 Cd 0.31406 0.04335 0.32286 0.0
Cd2 Cd 0.33842 0.01046 0.32116 0.0
O3 O 0.29719 0.97925 0.31129 0.0
O4 O 0.3088 0.07526 0.30927 0.0
O5 O 0.34007 0.06443 0.29202 0.0
C6 C 0.32788 0.0799 0.29131 0.0
C7 C 0.37695 0.00966 0.30011 0.0
C8 C 0.27471 0.98137 0.31179 0.0
C9 C 0.33731 0.0364 0.37448 0.0
O10 O 0.34425 0.02066 0.36123 0.0
O11 O 0.32601 0.04931 0.36279 0.0
O12 O 0.36008 0.98971 0.31621 0.0
O13 O 0.37169 0.03013 0.29534 0.0
O14 O 0.26981 0.27635 0.64609 0.0
Cd15 Cd 0.26846 0.31312 0.65384 0.0
Cd16 Cd 0.32656 0.33851 0.65387 0.0
O17 O 0.31694 0.29752 0.64374 0.0
O18 O 0.23142 0.30756 0.63945 0.0
O19 O 0.27383 0.34014 0.62375 0.0
C20 C 0.24615 0.32748 0.62228 0.0
C21 C 0.36902 0.37638 0.6359 0.0
C22 C 0.29245 0.27492 0.64284 0.0
C23 C 0.29679 0.33575 0.70628 0.0
O24 O 0.31999 0.3438 0.69354 0.0
O25 O 0.27282 0.32367 0.69408 0.0
O26 O 0.36926 0.35884 0.65312 0.0
O27 O 0.34436 0.37227 0.62822 0.0
O28 O 0.99253 0.27048 0.98285 0.0
Cd29 Cd 0.95771 0.27614 0.98858 0.0
Cd30 Cd 0.99637 0.33023 0.9794 0.0
O31 O 0.02072 0.31323 0.9658 0.0
O32 O 0.92283 0.23935 0.9785 0.0
O33 O 0.93765 0.27986 0.95622 0.0
C34 C 0.9199 0.25263 0.95833 0.0
C35 C 0.99868 0.36968 0.95739 0.0
C36 C 0.01618 0.28848 0.97215 0.0
C37 C 0.97488 0.31306 0.03609 0.0
O38 O 0.99378 0.33127 0.02042 0.0
O39 O 0.95492 0.28935 0.02693 0.0
O40 O 0.02042 0.37153 0.96991 0.0
O41 O 0.9755 0.345 0.95661 0.0
O42 O 0.72682 0.99511 0.31844 0.0
Cd43 Cd 0.68654 0.96008 0.32384 0.0
Cd44 Cd 0.66982 0.99856 0.3167 0.0
O45 O 0.71205 0.02475 0.30584 0.0
O46 O 0.68876 0.92563 0.31287 0.0
O47 O 0.66253 0.94039 0.29142 0.0
C48 C 0.67225 0.92281 0.29297 0.0
C49 C 0.63339 0.00193 0.29429 0.0
C50 C 0.73234 0.01973 0.31044 0.0
C51 C 0.66458 0.97404 0.3723 0.0
O52 O 0.66352 0.99249 0.35728 0.0
O53 O 0.67111 0.95621 0.36255 0.0
O54 O 0.65247 0.0228 0.30831 0.0
O55 O 0.63542 0.97915 0.29208 0.0
O56 O 0.73748 0.72773 0.65084 0.0
Cd57 Cd 0.73783 0.69026 0.65751 0.0
Cd58 Cd 0.67995 0.66578 0.65704 0.0
O59 O 0.6904 0.70732 0.64837 0.0
O60 O 0.77455 0.69512 0.64305 0.0
O61 O 0.7319 0.66377 0.62675 0.0
C62 C 0.75954 0.67576 0.62547 0.0
C63 C 0.63745 0.62891 0.63801 0.0
C64 C 0.71509 0.7297 0.64798 0.0
C65 C 0.70878 0.66646 0.7094 0.0
O66 O 0.68578 0.65903 0.6965 0.0
O67 O 0.73287 0.6786 0.69746 0.0
O68 O 0.63728 0.64606 0.65575 0.0
O69 O 0.66207 0.63289 0.63038 0.0
O70 O 0.00572 0.72955 0.98459 0.0
Cd71 Cd 0.04223 0.72697 0.99043 0.0
Cd72 Cd 0.00638 0.67109 0.98317 0.0
O73 O 0.97822 0.6846 0.97216 0.0
O74 O 0.07556 0.76445 0.9793 0.0
O75 O 0.06281 0.7236 0.95832 0.0
C76 C 0.07935 0.75111 0.95968 0.0
C77 C 0.00554 0.63272 0.96029 0.0
C78 C 0.98165 0.70938 0.97648 0.0
C79 C 0.03042 0.69144 0.03885 0.0
O80 O 0.01288 0.67127 0.02375 0.0
O81 O 0.04693 0.71624 0.02918 0.0
O82 O 0.98439 0.62932 0.97487 0.0
O83 O 0.02717 0.65834 0.95791 0.0
O84 O 0.99458 0.72147 0.37497 0.0
Cd85 Cd 0.95785 0.68249 0.3692 0.0
Cd86 Cd 0.99345 0.66191 0.37519 0.0
O87 O 0.02205 0.70357 0.38607 0.0
O88 O 0.92451 0.68598 0.38171 0.0
O89 O 0.93828 0.65798 0.40125 0.0
C90 C 0.92138 0.66856 0.40085 0.0
C91 C 0.99467 0.6242 0.39732 0.0
C92 C 0.01875 0.72509 0.38237 0.0
C93 C 0.96851 0.65877 0.32006 0.0
O94 O 0.98607 0.65571 0.3347 0.0
O95 O 0.95248 0.6674 0.33024 0.0
O96 O 0.01553 0.642 0.38251 0.0
O97 O 0.97315 0.62822 0.40039 0.0
O98 O 0.26943 0.99364 0.70832 0.0
Cd99 Cd 0.26708 0.95476 0.70234 0.0
Cd100 Cd 0.32526 0.98655 0.70176 0.0
O101 O 0.31665 0.01908 0.70962 0.0
O102 O 0.2293 0.92479 0.71677 0.0
O103 O 0.27089 0.93318 0.73347 0.0
C104 C 0.24316 0.91921 0.7346 0.0
C105 C 0.36731 0.99124 0.72086 0.0
C106 C 0.29238 0.01768 0.7104 0.0
C107 C 0.29481 0.95732 0.65024 0.0
O108 O 0.31825 0.97255 0.66267 0.0
O109 O 0.27097 0.94667 0.66254 0.0
O110 O 0.36796 0.00812 0.70241 0.0
O111 O 0.34246 0.97152 0.72907 0.0
O112 O 0.27335 0.26528 0.0399 0.0
Cd113 Cd 0.31094 0.26496 0.03376 0.0
Cd114 Cd 0.33529 0.32285 0.03339 0.0
O115 O 0.29355 0.31236 0.04135 0.0
O116 O 0.30577 0.22823 0.04845 0.0
O117 O 0.33703 0.2708 0.06489 0.0
C118 C 0.32493 0.24317 0.0662 0.0
C119 C 0.37199 0.36547 0.0524 0.0
C120 C 0.27123 0.28764 0.04203 0.0
C121 C 0.33517 0.29341 0.98166 0.0
O122 O 0.34251 0.31659 0.9942 0.0
O123 O 0.3229 0.26951 0.99389 0.0
O124 O 0.35502 0.36551 0.03437 0.0
O125 O 0.36789 0.34092 0.06034 0.0
O126 O 0.01218 0.2769 0.37193 0.0
Cd127 Cd 0.04631 0.3179 0.3667 0.0
Cd128 Cd 0.00678 0.33198 0.37615 0.0
O129 O 0.98334 0.29041 0.38948 0.0
O130 O 0.08206 0.31813 0.37786 0.0
O131 O 0.06437 0.34173 0.39948 0.0
C132 C 0.08337 0.33379 0.39798 0.0
C133 C 0.00373 0.36868 0.39831 0.0
C134 C 0.98839 0.27061 0.38275 0.0
C135 C 0.02855 0.33735 0.31947 0.0
O136 O 0.0093 0.33584 0.33518 0.0
O137 O 0.04895 0.33428 0.32853 0.0
O138 O 0.9821 0.34849 0.3859 0.0
O139 O 0.02716 0.36766 0.399 0.0
O140 O 0.73438 0.01011 0.70854 0.0
Cd141 Cd 0.73214 0.04679 0.70269 0.0
Cd142 Cd 0.67522 0.01051 0.70809 0.0
O143 O 0.68867 0.98209 0.71829 0.0
O144 O 0.76928 0.07971 0.71513 0.0
O145 O 0.72766 0.06705 0.73455 0.0
C146 C 0.75525 0.08343 0.73414 0.0
C147 C 0.6336 0.00506 0.72875 0.0
C148 C 0.71371 0.98573 0.71526 0.0
C149 C 0.69824 0.03696 0.65338 0.0
O150 O 0.67738 0.01957 0.66789 0.0
O151 O 0.72299 0.0524 0.66362 0.0
O152 O 0.63292 0.98626 0.71249 0.0
O153 O 0.65833 0.02698 0.73415 0.0
O154 O 0.72426 0.73316 0.04269 0.0
Cd155 Cd 0.68762 0.73505 0.03574 0.0
Cd156 Cd 0.6617 0.67677 0.03535 0.0
O157 O 0.70289 0.68601 0.04423 0.0
O158 O 0.69503 0.77285 0.04972 0.0
O159 O 0.66167 0.73137 0.06636 0.0
C160 C 0.67537 0.75908 0.06739 0.0
C161 C 0.62408 0.63422 0.0535 0.0
C162 C 0.7256 0.7104 0.04514 0.0
C163 C 0.66393 0.70694 0.98337 0.0
O164 O 0.65568 0.68364 0.99597 0.0
O165 O 0.67653 0.73084 0.99565 0.0
O166 O 0.64124 0.63408 0.03575 0.0
O167 O 0.62844 0.65882 0.0616 0.0
C168 C 0.31982 0.11688 0.26885 0.0
C169 C 0.33411 0.10105 0.26964 0.0
C170 C 0.32351 0.13487 0.24725 0.0
C171 C 0.3438 0.1811 0.20462 0.0
H172 H 0.34359 0.15173 0.13383 0.0
C173 C 0.35034 0.24479 0.10898 0.0
C174 C 0.33148 0.22882 0.08819 0.0
C175 C 0.35455 0.23095 0.13077 0.0
C176 C 0.34361 0.16025 0.15344 0.0
H177 H 0.36426 0.09252 0.24862 0.0
H178 H 0.37096 0.1242 0.21103 0.0
H179 H 0.34362 0.12495 0.17302 0.0
H180 H 0.30282 0.18573 0.07374 0.0
H181 H 0.30993 0.16173 0.11163 0.0
H182 H 0.34265 0.21582 0.18503 0.0
C183 C 0.35655 0.12236 0.22698 0.0
C184 C 0.34399 0.14504 0.17597 0.0
C185 C 0.35287 0.10434 0.24864 0.0
C186 C 0.31755 0.19873 0.08935 0.0
C187 C 0.32178 0.18493 0.11107 0.0
C188 C 0.34343 0.19631 0.18209 0.0
C189 C 0.34159 0.13755 0.22582 0.0
C190 C 0.34364 0.15502 0.20187 0.0
C191 C 0.34005 0.20082 0.13225 0.0
C192 C 0.34288 0.18587 0.15619 0.0
H193 H 0.30515 0.11484 0.28463 0.0
H194 H 0.31135 0.1459 0.24694 0.0
H195 H 0.3439 0.18965 0.22423 0.0
H196 H 0.36145 0.268 0.10871 0.0
H197 H 0.36907 0.24389 0.14654 0.0
C198 C 0.24736 0.3549 0.58108 0.0
C199 C 0.23154 0.33428 0.60069 0.0
C200 C 0.23342 0.3595 0.55959 0.0
C201 C 0.16153 0.34517 0.53618 0.0
H202 H 0.19485 0.35417 0.46572 0.0
C203 C 0.12302 0.32898 0.4191 0.0
C204 C 0.10461 0.34042 0.41973 0.0
C205 C 0.14081 0.3324 0.44086 0.0
C206 C 0.18517 0.35158 0.48523 0.0
H207 H 0.18856 0.30275 0.61329 0.0
H208 H 0.16443 0.31044 0.57587 0.0
H209 H 0.22069 0.35181 0.50472 0.0
H210 H 0.09136 0.36549 0.4434 0.0
H211 H 0.12278 0.37195 0.48116 0.0
H212 H 0.12546 0.34364 0.51663 0.0
C213 C 0.18756 0.32343 0.57718 0.0
C214 C 0.20019 0.3506 0.50769 0.0
C215 C 0.20146 0.31889 0.59863 0.0
C216 C 0.1052 0.3563 0.44227 0.0
C217 C 0.12307 0.3598 0.46403 0.0
C218 C 0.14649 0.34607 0.51373 0.0
C219 C 0.20333 0.34357 0.55717 0.0
C220 C 0.18839 0.34695 0.53346 0.0
C221 C 0.14075 0.34745 0.46383 0.0
C222 C 0.1579 0.34888 0.48789 0.0
H223 H 0.27055 0.36718 0.58206 0.0
H224 H 0.24627 0.37547 0.54479 0.0
H225 H 0.15192 0.34277 0.5557 0.0
H226 H 0.12307 0.31653 0.40212 0.0
H227 H 0.15379 0.32226 0.44002 0.0
C228 C 0.75574 0.10974 0.77599 0.0
C229 C 0.77072 0.10446 0.75582 0.0
C230 C 0.77049 0.1276 0.7977 0.0
C231 C 0.836 0.15138 0.83673 0.0
H232 H 0.82236 0.21068 0.86465 0.0
C233 C 0.88321 0.20637 0.93741 0.0
C234 C 0.89843 0.23652 0.93714 0.0
C235 C 0.86567 0.19087 0.91592 0.0
C236 C 0.82637 0.19419 0.85703 0.0
H237 H 0.81305 0.11454 0.74234 0.0
H238 H 0.83856 0.14526 0.78021 0.0
H239 H 0.79599 0.18317 0.82501 0.0
H240 H 0.90601 0.27399 0.91452 0.0
H241 H 0.87491 0.24678 0.87706 0.0
H242 H 0.86618 0.16213 0.86864 0.0
C243 C 0.81544 0.13557 0.77928 0.0
C244 C 0.81119 0.17836 0.83448 0.0
C245 C 0.80079 0.11806 0.75749 0.0
C246 C 0.89461 0.25079 0.91537 0.0
C247 C 0.87675 0.23522 0.89394 0.0
C248 C 0.8508 0.16685 0.85942 0.0
C249 C 0.80045 0.1402 0.79984 0.0
C250 C 0.81602 0.15693 0.82398 0.0
C251 C 0.86265 0.20509 0.89371 0.0
C252 C 0.84625 0.18849 0.86982 0.0
H253 H 0.73258 0.09961 0.77531 0.0
H254 H 0.75835 0.13069 0.81329 0.0
H255 H 0.84001 0.13483 0.82929 0.0
H256 H 0.88558 0.19464 0.95384 0.0
H257 H 0.8548 0.16767 0.91647 0.0
C258 C 0.64861 0.76017 0.10829 0.0
C259 C 0.67027 0.77477 0.08915 0.0
C260 C 0.64573 0.77493 0.13009 0.0
C261 C 0.68896 0.8386 0.1713 0.0
H262 H 0.61638 0.82815 0.19697 0.0
C263 C 0.68089 0.88563 0.27186 0.0
C264 C 0.66673 0.90159 0.2715 0.0
C265 C 0.67871 0.86824 0.25021 0.0
C266 C 0.63679 0.83128 0.18999 0.0
H267 H 0.70527 0.81652 0.07754 0.0
H268 H 0.70035 0.84204 0.11549 0.0
H269 H 0.61745 0.80209 0.15712 0.0
H270 H 0.63806 0.91067 0.24851 0.0
H271 H 0.63402 0.87995 0.21073 0.0
H272 H 0.70839 0.86768 0.20397 0.0
C273 C 0.68571 0.81918 0.11376 0.0
C274 C 0.63738 0.81625 0.1673 0.0
C275 C 0.6884 0.80454 0.0919 0.0
C276 C 0.64925 0.89869 0.24944 0.0
C277 C 0.64687 0.88103 0.22782 0.0
C278 C 0.68833 0.85328 0.19408 0.0
C279 C 0.66466 0.80451 0.13334 0.0
C280 C 0.66353 0.81993 0.15761 0.0
C281 C 0.66214 0.86615 0.22771 0.0
C282 C 0.66228 0.84989 0.20368 0.0
H283 H 0.63428 0.73724 0.10677 0.0
H284 H 0.62937 0.76301 0.14491 0.0
H285 H 0.70942 0.84169 0.16452 0.0
H286 H 0.69447 0.88725 0.28852 0.0
H287 H 0.6904 0.85673 0.2509 0.0
C288 C 0.89815 0.6451 0.44439 0.0
C289 C 0.90035 0.66256 0.42261 0.0
C290 C 0.8803 0.64179 0.4661 0.0
C291 C 0.82048 0.65336 0.48777 0.0
H292 H 0.85153 0.65724 0.55854 0.0
C293 C 0.80395 0.68313 0.60218 0.0
C294 C 0.77385 0.66885 0.60369 0.0
C295 C 0.81767 0.67852 0.58061 0.0
C296 C 0.84254 0.65621 0.53893 0.0
H297 H 0.88481 0.68956 0.40629 0.0
H298 H 0.85409 0.6841 0.44408 0.0
H299 H 0.87802 0.65643 0.51944 0.0
H300 H 0.73456 0.63783 0.58395 0.0
H301 H 0.75851 0.62948 0.54644 0.0
H302 H 0.7856 0.65436 0.50724 0.0
C303 C 0.86581 0.67261 0.44435 0.0
C304 C 0.85759 0.65537 0.51646 0.0
C305 C 0.8836 0.67589 0.42268 0.0
C306 C 0.75778 0.64924 0.5834 0.0
C307 C 0.77153 0.64461 0.56178 0.0
C308 C 0.80545 0.65424 0.51024 0.0
C309 C 0.86422 0.65587 0.46656 0.0
C310 C 0.84698 0.65436 0.49054 0.0
C311 C 0.80167 0.65945 0.55994 0.0
C312 C 0.81649 0.65612 0.53613 0.0
H313 H 0.91068 0.63446 0.44497 0.0
H314 H 0.8793 0.62838 0.48264 0.0
H315 H 0.81143 0.65219 0.46817 0.0
H316 H 0.81704 0.69845 0.61738 0.0
H317 H 0.84087 0.69066 0.57976 0.0
C318 C 0.24227 0.89202 0.77591 0.0
C319 C 0.22756 0.8987 0.75656 0.0
C320 C 0.22756 0.87449 0.79777 0.0
C321 C 0.16327 0.85314 0.83844 0.0
H322 H 0.17508 0.79214 0.86477 0.0
C323 C 0.11558 0.79744 0.93861 0.0
C324 C 0.10052 0.7673 0.93834 0.0
C325 C 0.13302 0.81297 0.91711 0.0
C326 C 0.17155 0.80909 0.8576 0.0
H327 H 0.18567 0.89144 0.74467 0.0
H328 H 0.16023 0.86115 0.78269 0.0
H329 H 0.20118 0.81947 0.82508 0.0
H330 H 0.09305 0.72987 0.91566 0.0
H331 H 0.12378 0.75709 0.87813 0.0
H332 H 0.13369 0.8429 0.87073 0.0
C333 C 0.18314 0.86959 0.7811 0.0
C334 C 0.18662 0.82484 0.83501 0.0
C335 C 0.19774 0.88684 0.75921 0.0
C336 C 0.10434 0.75306 0.91652 0.0
C337 C 0.12201 0.76865 0.89504 0.0
C338 C 0.14852 0.83767 0.86111 0.0
C339 C 0.1979 0.86354 0.80085 0.0
C340 C 0.18247 0.84691 0.82507 0.0
C341 C 0.13602 0.79878 0.89484 0.0
C342 C 0.15239 0.81541 0.87095 0.0
H343 H 0.26524 0.90079 0.77448 0.0
H344 H 0.23956 0.87031 0.81271 0.0
H345 H 0.1598 0.8702 0.83148 0.0
H346 H 0.11326 0.80915 0.9551 0.0
H347 H 0.14387 0.83616 0.91775 0.0
C348 C 0.40405 0.9844 0.28996 0.0
C349 C 0.40235 0.00957 0.28899 0.0
C350 C 0.42925 0.98477 0.28264 0.0
C351 C 0.50605 0.03291 0.28338 0.0
H352 H 0.50901 0.97198 0.24485 0.0
C353 C 0.61099 0.03039 0.27933 0.0
C354 C 0.60877 0.00356 0.28331 0.0
C355 C 0.58673 0.03235 0.2732 0.0
C356 C 0.50856 0.98908 0.25581 0.0
H357 H 0.42532 0.05464 0.27853 0.0
H358 H 0.46972 0.0554 0.26611 0.0
H359 H 0.46421 0.97308 0.24642 0.0
H360 H 0.57972 0.95769 0.28276 0.0
H361 H 0.5371 0.961 0.2731 0.0
H362 H 0.54962 0.04812 0.29419 0.0
C363 C 0.45142 0.03537 0.27249 0.0
C364 C 0.48293 0.98977 0.25656 0.0
C365 C 0.426 0.03491 0.27947 0.0
C366 C 0.58207 0.97865 0.27966 0.0
C367 C 0.55763 0.98061 0.27402 0.0
C368 C 0.53153 0.03204 0.28293 0.0
C369 C 0.45345 0.01041 0.2745 0.0
C370 C 0.48131 0.01146 0.27071 0.0
C371 C 0.55951 0.00755 0.27149 0.0
C372 C 0.53307 0.00987 0.26949 0.0
H373 H 0.38613 0.9645 0.29712 0.0
H374 H 0.43023 0.96526 0.28464 0.0
H375 H 0.50535 0.04962 0.29482 0.0
H376 H 0.6314 0.04996 0.28171 0.0
H377 H 0.58924 0.05343 0.27061 0.0
C378 C 0.60946 0.5849 0.60949 0.0
C379 C 0.61005 0.60476 0.62806 0.0
C380 C 0.58332 0.56088 0.60213 0.0
C381 C 0.50363 0.52933 0.60729 0.0
H382 H 0.50288 0.45709 0.60635 0.0
C383 C 0.42245 0.40504 0.63674 0.0
C384 C 0.39637 0.40097 0.6265 0.0
C385 C 0.44837 0.42925 0.62996 0.0
C386 C 0.50267 0.47707 0.60657 0.0
H387 H 0.58362 0.61546 0.65278 0.0
H388 H 0.53862 0.57366 0.64063 0.0
H389 H 0.54845 0.50174 0.6076 0.0
H390 H 0.37716 0.41864 0.60018 0.0
H391 H 0.42271 0.46093 0.58788 0.0
H392 H 0.45784 0.50462 0.60828 0.0
C393 C 0.55802 0.57667 0.63119 0.0
C394 C 0.52889 0.50277 0.60689 0.0
C395 C 0.58399 0.60062 0.6384 0.0
C396 C 0.3969 0.42124 0.6085 0.0
C397 C 0.42299 0.44553 0.60157 0.0
C398 C 0.4774 0.50363 0.60727 0.0
C399 C 0.5573 0.55623 0.61326 0.0
C400 C 0.52971 0.52924 0.60817 0.0
C401 C 0.44903 0.45004 0.61256 0.0
C402 C 0.47659 0.47715 0.60783 0.0
H403 H 0.62918 0.58758 0.60108 0.0
H404 H 0.58356 0.54577 0.58801 0.0
H405 H 0.50342 0.54932 0.60762 0.0
H406 H 0.42288 0.3899 0.65069 0.0
H407 H 0.46779 0.43214 0.63929 0.0
C408 C 0.0312 0.60923 0.93999 0.0
C409 C 0.00556 0.60752 0.94861 0.0
C410 C 0.03174 0.58435 0.93297 0.0
C411 C 0.98611 0.50698 0.91682 0.0
H412 H 0.04418 0.49933 0.95566 0.0
C413 C 0.97504 0.39738 0.94285 0.0
C414 C 1.00005 0.39573 0.94626 0.0
C415 C 0.97688 0.42359 0.93665 0.0
C416 C 0.02817 0.50115 0.9441 0.0
H417 H 0.96004 0.57872 0.95484 0.0
H418 H 0.96098 0.53551 0.9425 0.0
H419 H 0.04564 0.54504 0.95542 0.0
H420 H 0.04646 0.41953 0.94372 0.0
H421 H 0.04968 0.46484 0.93189 0.0
H422 H 0.96833 0.46285 0.90587 0.0
C423 C 0.98067 0.55596 0.94117 0.0
C424 C 0.02903 0.52747 0.94401 0.0
C425 C 0.98018 0.58073 0.94843 0.0
C426 C 0.02681 0.42025 0.94157 0.0
C427 C 0.02865 0.44629 0.93498 0.0
C428 C 0.98538 0.48064 0.91669 0.0
C429 C 0.00659 0.55737 0.93414 0.0
C430 C 0.00769 0.53054 0.93086 0.0
C431 C 0.00379 0.44858 0.9334 0.0
C432 C 0.00608 0.47722 0.93081 0.0
H433 H 0.0511 0.62957 0.93989 0.0
H434 H 0.05199 0.5861 0.92738 0.0
H435 H 0.9695 0.50879 0.9063 0.0
H436 H 0.95413 0.37882 0.94645 0.0
H437 H 0.95726 0.42449 0.93583 0.0
C438 C 0.02028 0.59762 0.40832 0.0
C439 C 0.99483 0.59888 0.40852 0.0
C440 C 0.01998 0.57236 0.41519 0.0
C441 C 0.97208 0.49545 0.41185 0.0
H442 H 0.03284 0.49175 0.45001 0.0
C443 C 0.9751 0.39076 0.41378 0.0
C444 C 0.00199 0.39321 0.40936 0.0
C445 C 0.97301 0.41484 0.42034 0.0
C446 C 0.01578 0.49242 0.43917 0.0
H447 H 0.94935 0.57509 0.41739 0.0
H448 H 0.94876 0.5307 0.42917 0.0
H449 H 0.03137 0.53635 0.44985 0.0
H450 H 0.04787 0.42253 0.40956 0.0
H451 H 0.04429 0.46481 0.42012 0.0
H452 H 0.95723 0.45227 0.3999 0.0
C453 C 0.96893 0.54933 0.42363 0.0
C454 C 0.01488 0.51794 0.4392 0.0
C455 C 0.96929 0.57476 0.41703 0.0
C456 C 0.02685 0.41998 0.41296 0.0
C457 C 0.02475 0.44421 0.41913 0.0
C458 C 0.97312 0.47008 0.41159 0.0
C459 C 0.99416 0.5477 0.42217 0.0
C460 C 0.99326 0.51984 0.42518 0.0
C461 C 0.99774 0.44208 0.42216 0.0
C462 C 0.99524 0.46832 0.42488 0.0
H463 H 0.04034 0.61589 0.40196 0.0
H464 H 0.03972 0.57174 0.41364 0.0
H465 H 0.95544 0.49636 0.40047 0.0
H466 H 0.95556 0.37032 0.41146 0.0
H467 H 0.95188 0.41217 0.42325 0.0
C468 C 0.60642 0.0233 0.75548 0.0
C469 C 0.60652 0.00217 0.7391 0.0
C470 C 0.58047 0.02178 0.76243 0.0
C471 C 0.5005 0.97347 0.75938 0.0
H472 H 0.50067 0.04508 0.75171 0.0
C473 C 0.42063 0.0147 0.71998 0.0
C474 C 0.3944 0.99412 0.7312 0.0
C475 C 0.44631 0.01661 0.72802 0.0
C476 C 0.50019 0.02485 0.75388 0.0
H477 H 0.57941 0.96219 0.71822 0.0
H478 H 0.53472 0.95996 0.72955 0.0
H479 H 0.54591 0.04544 0.75298 0.0
H480 H 0.37467 0.96 0.76043 0.0
H481 H 0.41982 0.96365 0.77493 0.0
H482 H 0.45472 0.9527 0.75815 0.0
C483 C 0.55438 0.97746 0.73761 0.0
C484 C 0.52624 0.0251 0.75504 0.0
C485 C 0.58017 0.97889 0.73085 0.0
C486 C 0.39453 0.976 0.75132 0.0
C487 C 0.4204 0.97803 0.75952 0.0
C488 C 0.47443 0.97319 0.75787 0.0
C489 C 0.55413 0.99916 0.75303 0.0
C490 C 0.52674 0.99932 0.75686 0.0
C491 C 0.44659 0.99815 0.7477 0.0
C492 C 0.47395 0.9988 0.75413 0.0
H493 H 0.62637 0.04143 0.76228 0.0
H494 H 0.58111 0.03865 0.77469 0.0
H495 H 0.50002 0.95324 0.76146 0.0
H496 H 0.42136 0.02897 0.70438 0.0
H497 H 0.46584 0.03195 0.71798 0.0
C498 C 0.41606 0.39363 0.08082 0.0
C499 C 0.39609 0.39291 0.06231 0.0
C500 C 0.4401 0.4198 0.08808 0.0
C501 C 0.47147 0.49938 0.08284 0.0
H502 H 0.5439 0.50037 0.08315 0.0
C503 C 0.59552 0.58081 0.05261 0.0
C504 C 0.59963 0.60683 0.06301 0.0
C505 C 0.57141 0.55487 0.05949 0.0
C506 C 0.52386 0.50051 0.08312 0.0
H507 H 0.38517 0.41919 0.03762 0.0
H508 H 0.42698 0.46426 0.04961 0.0
H509 H 0.49926 0.45475 0.08213 0.0
H510 H 0.58214 0.62589 0.08973 0.0
H511 H 0.53999 0.58029 0.10218 0.0
H512 H 0.4961 0.54515 0.08184 0.0
C513 C 0.42406 0.44491 0.05906 0.0
C514 C 0.49818 0.47427 0.08292 0.0
C515 C 0.40011 0.4189 0.05195 0.0
C516 C 0.57951 0.6062 0.08128 0.0
C517 C 0.5553 0.58009 0.0883 0.0
C518 C 0.49716 0.52563 0.08275 0.0
C519 C 0.44464 0.44574 0.0769 0.0
C520 C 0.47165 0.47336 0.08186 0.0
C521 C 0.55074 0.55411 0.07714 0.0
C522 C 0.52369 0.52653 0.08197 0.0
H523 H 0.41349 0.37397 0.08925 0.0
H524 H 0.45532 0.41965 0.10212 0.0
H525 H 0.45144 0.49953 0.08266 0.0
H526 H 0.61056 0.58046 0.03846 0.0
H527 H 0.56847 0.53549 0.05005 0.0
C528 C 0.0415 0.77824 0.37612 0.0
C529 C 0.04423 0.75425 0.38222 0.0
C530 C 0.06575 0.80468 0.37037 0.0
C531 C 0.14583 0.84416 0.37209 0.0
H532 H 0.1383 0.88344 0.31035 0.0
C533 C 0.24432 0.92812 0.31542 0.0
C534 C 0.24621 0.95499 0.31266 0.0
C535 C 0.21847 0.90407 0.32275 0.0
C536 C 0.14063 0.87275 0.32769 0.0
H537 H 0.0748 0.73979 0.38886 0.0
H538 H 0.11677 0.78543 0.37842 0.0
H539 H 0.09582 0.84194 0.32876 0.0
H540 H 0.22175 0.97703 0.31308 0.0
H541 H 0.17639 0.93469 0.32536 0.0
H542 H 0.1908 0.87447 0.3704 0.0
C543 C 0.09603 0.78411 0.37831 0.0
C544 C 0.1163 0.84914 0.33842 0.0
C545 C 0.07186 0.75779 0.38424 0.0
C546 C 0.22107 0.95669 0.31515 0.0
C547 C 0.1951 0.93249 0.32221 0.0
C548 C 0.17013 0.8675 0.36116 0.0
C549 C 0.09324 0.80766 0.37047 0.0
C550 C 0.11865 0.83434 0.3606 0.0
C551 C 0.19389 0.90626 0.32712 0.0
C552 C 0.16782 0.8818 0.33869 0.0
H553 H 0.02054 0.77632 0.37458 0.0
H554 H 0.06286 0.82255 0.36506 0.0
H555 H 0.14841 0.83371 0.38948 0.0
H556 H 0.26318 0.92595 0.31355 0.0
H557 H 0.21793 0.88392 0.32593 0.0
C558 C 0.26404 0.22129 0.64552 0.0
C559 C 0.29065 0.24658 0.64255 0.0
C560 C 0.2628 0.19526 0.65102 0.0
C561 C 0.30633 0.15921 0.65303 0.0
H562 H 0.2544 0.11528 0.71041 0.0
C563 C 0.31653 0.07108 0.70698 0.0
C564 C 0.2911 0.04448 0.70917 0.0
C565 C 0.31556 0.09566 0.7 0.0
C566 C 0.26885 0.12722 0.69425 0.0
H567 H 0.33672 0.26388 0.64108 0.0
H568 H 0.33456 0.21875 0.65087 0.0
H569 H 0.25371 0.15707 0.69258 0.0
H570 H 0.24462 0.02333 0.7078 0.0
H571 H 0.243 0.06636 0.69583 0.0
H572 H 0.32178 0.12961 0.65504 0.0
C573 C 0.3146 0.21889 0.64886 0.0
C574 C 0.26835 0.15104 0.68389 0.0
C575 C 0.31585 0.24486 0.64329 0.0
C576 C 0.26462 0.04345 0.70621 0.0
C577 C 0.26367 0.06811 0.69934 0.0
C578 C 0.30693 0.13551 0.66349 0.0
C579 C 0.28813 0.19398 0.65367 0.0
C580 C 0.28722 0.16744 0.66326 0.0
C581 C 0.28917 0.09422 0.69523 0.0
C582 C 0.28837 0.11941 0.68435 0.0
H583 H 0.24419 0.22179 0.6449 0.0
H584 H 0.24203 0.17632 0.65401 0.0
H585 H 0.32084 0.17108 0.63689 0.0
H586 H 0.33731 0.07273 0.70929 0.0
H587 H 0.33554 0.11566 0.69754 0.0
C588 C 0.24047 0.30963 0.03508 0.0
C589 C 0.24261 0.28514 0.0404 0.0
C590 C 0.21435 0.30694 0.02734 0.0
C591 C 0.13674 0.26122 0.02651 0.0
H592 H 0.1416 0.2997 0.95957 0.0
C593 C 0.03643 0.25622 0.98059 0.0
C594 C 0.04028 0.28264 0.97162 0.0
C595 C 0.06014 0.25293 0.98582 0.0
C596 C 0.13984 0.28901 0.97837 0.0
H597 H 0.21839 0.23878 0.04397 0.0
H598 H 0.17246 0.23427 0.03107 0.0
H599 H 0.18453 0.30224 0.97843 0.0
H600 H 0.07201 0.32562 0.95919 0.0
H601 H 0.11306 0.32015 0.96877 0.0
H602 H 0.09237 0.24899 0.02719 0.0
C603 C 0.19123 0.25543 0.0325 0.0
C604 C 0.16444 0.29046 0.98913 0.0
C605 C 0.21751 0.25807 0.03992 0.0
C606 C 0.06821 0.30496 0.9661 0.0
C607 C 0.09186 0.30176 0.97154 0.0
C608 C 0.11215 0.26011 0.01595 0.0
C609 C 0.18973 0.27978 0.02515 0.0
C610 C 0.1632 0.27696 0.01348 0.0
C611 C 0.08818 0.27603 0.98233 0.0
C612 C 0.11349 0.27438 0.99194 0.0
H613 H 0.25929 0.33083 0.03532 0.0
H614 H 0.21357 0.32607 0.0222 0.0
H615 H 0.13529 0.25063 0.04532 0.0
H616 H 0.01518 0.2385 0.98484 0.0
H617 H 0.05648 0.23257 0.99346 0.0
C618 C 0.96904 0.21829 0.37367 0.0
C619 C 0.96468 0.24046 0.38295 0.0
C620 C 0.94564 0.19113 0.36817 0.0
C621 C 0.86577 0.14666 0.37491 0.0
H622 H 0.87129 0.11362 0.30778 0.0
C623 C 0.76746 0.07218 0.31264 0.0
C624 C 0.76224 0.04389 0.31156 0.0
C625 C 0.79426 0.09455 0.32046 0.0
C626 C 0.86963 0.12257 0.32664 0.0
H627 H 0.93237 0.25081 0.39558 0.0
H628 H 0.89191 0.20414 0.38543 0.0
H629 H 0.91407 0.15462 0.32672 0.0
H630 H 0.78186 0.01734 0.3154 0.0
H631 H 0.82918 0.05694 0.32825 0.0
H632 H 0.82094 0.11555 0.37383 0.0
C633 C 0.91324 0.20731 0.38269 0.0
C634 C 0.8941 0.14586 0.33768 0.0
C635 C 0.93657 0.23428 0.38845 0.0
C636 C 0.78518 0.03888 0.31613 0.0
C637 C 0.8122 0.06144 0.32351 0.0
C638 C 0.84131 0.12381 0.36362 0.0
C639 C 0.9174 0.18564 0.37164 0.0
C640 C 0.89236 0.15857 0.36173 0.0
C641 C 0.8165 0.08916 0.32677 0.0
C642 C 0.84298 0.11195 0.3392 0.0
H643 H 0.99045 0.22227 0.36942 0.0
H644 H 0.9497 0.17477 0.36032 0.0
H645 H 0.86367 0.15534 0.39374 0.0
H646 H 0.75035 0.07685 0.30928 0.0
H647 H 0.79731 0.1159 0.32265 0.0
C648 C 0.69244 0.7602 0.6521 0.0
C649 C 0.71735 0.75823 0.64905 0.0
C650 C 0.6944 0.78613 0.65932 0.0
C651 C 0.74098 0.86391 0.66313 0.0
H652 H 0.69456 0.85716 0.72497 0.0
C653 C 0.74464 0.96348 0.70952 0.0
C654 C 0.71773 0.96048 0.71538 0.0
C655 C 0.74719 0.93935 0.7043 0.0
C656 C 0.70749 0.85944 0.70757 0.0
H657 H 0.76391 0.78258 0.64898 0.0
H658 H 0.76723 0.82809 0.66111 0.0
H659 H 0.69315 0.81456 0.70673 0.0
H660 H 0.67277 0.92963 0.72213 0.0
H661 H 0.67708 0.88787 0.71265 0.0
H662 H 0.75462 0.90862 0.66334 0.0
C663 C 0.74623 0.80939 0.65823 0.0
C664 C 0.70666 0.83503 0.69713 0.0
C665 C 0.7443 0.78333 0.65125 0.0
C666 C 0.69384 0.93278 0.71767 0.0
C667 C 0.69635 0.90872 0.7123 0.0
C668 C 0.74157 0.88835 0.67338 0.0
C669 C 0.72129 0.81071 0.66334 0.0
C670 C 0.72308 0.83696 0.67461 0.0
C671 C 0.72288 0.91174 0.70476 0.0
C672 C 0.72452 0.88634 0.69553 0.0
H673 H 0.67133 0.74139 0.65043 0.0
H674 H 0.67484 0.78675 0.66264 0.0
H675 H 0.75384 0.86593 0.64574 0.0
H676 H 0.76354 0.98451 0.70777 0.0
H677 H 0.76807 0.94241 0.69916 0.0
C678 C 0.77934 0.73879 0.04297 0.0
C679 C 0.75388 0.71206 0.04416 0.0
C680 C 0.8053 0.74048 0.03601 0.0
C681 C 0.83059 0.70156 0.99556 0.0
H682 H 0.90402 0.74809 0.03037 0.0
C683 C 0.9287 0.68955 0.9734 0.0
C684 C 0.95637 0.71336 0.97642 0.0
C685 C 0.90452 0.69179 0.97908 0.0
C686 C 0.8838 0.73544 0.02006 0.0
H687 H 0.73624 0.66604 0.04101 0.0
H688 H 0.78146 0.66911 0.02885 0.0
H689 H 0.86128 0.7469 0.04834 0.0
H690 H 0.98024 0.75882 0.98555 0.0
H691 H 0.93797 0.76293 0.99466 0.0
H692 H 0.85287 0.69032 0.96709 0.0
C693 C 0.7812 0.68872 0.03294 0.0
C694 C 0.85932 0.73461 0.03052 0.0
C695 C 0.75536 0.687 0.04014 0.0
C696 C 0.95924 0.73999 0.98325 0.0
C697 C 0.935 0.74228 0.98875 0.0
C698 C 0.85506 0.70264 0.98493 0.0
C699 C 0.80618 0.71549 0.02992 0.0
C700 C 0.83242 0.71726 0.01863 0.0
C701 C 0.90741 0.71797 0.98765 0.0
C702 C 0.88191 0.7192 0.99728 0.0
H703 H 0.77898 0.75852 0.04603 0.0
H704 H 0.8243 0.76138 0.03391 0.0
H705 H 0.81018 0.6885 0.98565 0.0
H706 H 0.92565 0.66868 0.9682 0.0
H707 H 0.88368 0.67254 0.97818 0.0
C708 C 0.31661 0.03669 0.41914 0.0
C709 C 0.33775 0.03511 0.40402 0.0
C710 C 0.31235 0.02841 0.44603 0.0
C711 C 0.32689 0.98361 0.49325 0.0
H712 H 0.29612 0.014 0.54564 0.0
C713 C 0.32092 0.96244 0.60746 0.0
C714 C 0.29564 0.95698 0.62067 0.0
C715 C 0.32455 0.96911 0.58023 0.0
C716 C 0.30442 0.00511 0.5311 0.0
H717 H 0.37256 0.02595 0.40575 0.0
H718 H 0.36634 0.01318 0.45291 0.0
H719 H 0.30831 0.03512 0.50113 0.0
H720 H 0.25375 0.95282 0.61535 0.0
H721 H 0.26031 0.96487 0.56777 0.0
H722 H 0.32391 0.95431 0.5238 0.0
C723 C 0.35208 0.01947 0.44384 0.0
C724 C 0.31143 0.0172 0.50553 0.0
C725 C 0.35597 0.02723 0.41686 0.0
C726 C 0.27337 0.95665 0.60571 0.0
C727 C 0.27723 0.96388 0.57856 0.0
C728 C 0.32033 0.97187 0.51895 0.0
C729 C 0.32946 0.01881 0.45855 0.0
C730 C 0.32276 0.00662 0.48619 0.0
C731 C 0.30319 0.97097 0.56576 0.0
C732 C 0.30895 0.98244 0.5381 0.0
H733 H 0.30199 0.04233 0.40974 0.0
H734 H 0.29458 0.02806 0.45647 0.0
H735 H 0.33485 0.97428 0.47884 0.0
H736 H 0.3385 0.96295 0.61848 0.0
H737 H 0.34478 0.9745 0.57087 0.0
C738 C 0.35524 0.32008 0.93897 0.0
C739 C 0.3362 0.29441 0.95209 0.0
C740 C 0.35186 0.32363 0.91179 0.0
C741 C 0.29522 0.30122 0.8625 0.0
H742 H 0.35685 0.33537 0.81075 0.0
C743 C 0.27564 0.31366 0.75051 0.0
C744 C 0.29791 0.33588 0.73585 0.0
C745 C 0.27968 0.30933 0.77739 0.0
C746 C 0.33942 0.32634 0.82503 0.0
H747 H 0.29954 0.25182 0.94664 0.0
H748 H 0.29346 0.25819 0.89913 0.0
H749 H 0.36652 0.32465 0.85555 0.0
H750 H 0.34091 0.37243 0.73841 0.0
H751 H 0.34739 0.366 0.78554 0.0
H752 H 0.26825 0.30374 0.83251 0.0
C753 C 0.31102 0.2755 0.90996 0.0
C754 C 0.34498 0.31992 0.85064 0.0
C755 C 0.31473 0.27174 0.93707 0.0
C756 C 0.32341 0.35502 0.74916 0.0
C757 C 0.32726 0.35102 0.77612 0.0
C758 C 0.28972 0.30804 0.83701 0.0
C759 C 0.32906 0.30177 0.89726 0.0
C760 C 0.32294 0.30726 0.86963 0.0
C761 C 0.30593 0.3274 0.79034 0.0
C762 C 0.31175 0.32074 0.81787 0.0
H763 H 0.37191 0.33796 0.95003 0.0
H764 H 0.36606 0.34411 0.90253 0.0
H765 H 0.2779 0.29189 0.87691 0.0
H766 H 0.25587 0.29833 0.74074 0.0
H767 H 0.26276 0.29081 0.78748 0.0
C768 C 0.99748 0.33194 0.28033 0.0
C769 C 0.02475 0.33918 0.2903 0.0
C770 C 0.99241 0.33059 0.25289 0.0
C771 C 0.02226 0.35817 0.18888 0.0
H772 H 0.96632 0.28413 0.15994 0.0
C773 C 0.00546 0.33934 0.07532 0.0
C774 C 0.9786 0.31847 0.0653 0.0
C775 C 0.01062 0.34285 0.10277 0.0
C776 C 0.98156 0.30513 0.16762 0.0
H777 H 0.06834 0.3516 0.27911 0.0
H778 H 0.05959 0.35032 0.23071 0.0
H779 H 0.9771 0.28909 0.20761 0.0
H780 H 0.9357 0.28562 0.07643 0.0
H781 H 0.94412 0.29274 0.12452 0.0
H782 H 0.02593 0.37478 0.14947 0.0
C783 C 0.04217 0.34528 0.24446 0.0
C784 C 0.98795 0.30783 0.19493 0.0
C785 C 0.04714 0.34601 0.27207 0.0
C786 C 0.95665 0.30182 0.0835 0.0
C787 C 0.96165 0.30575 0.11111 0.0
C788 C 0.01543 0.35567 0.16166 0.0
C789 C 0.0146 0.33704 0.23473 0.0
C790 C 0.00848 0.3343 0.20572 0.0
C791 C 0.9889 0.32601 0.12116 0.0
C792 C 0.99513 0.32904 0.15052 0.0
H793 H 0.97965 0.32635 0.29373 0.0
H794 H 0.97104 0.32433 0.24581 0.0
H795 H 0.03789 0.37889 0.1969 0.0
H796 H 0.02303 0.35236 0.06192 0.0
H797 H 0.03205 0.35823 0.10941 0.0
C798 C 0.65431 0.99595 0.41179 0.0
C799 C 0.6619 0.97629 0.40162 0.0
C800 C 0.65639 0.00209 0.43907 0.0
C801 C 0.69474 1.00029 0.49961 0.0
H802 H 0.64192 0.01841 0.53536 0.0
C803 C 0.66611 0.01946 0.61337 0.0
C804 C 0.69391 0.03592 0.624 0.0
C805 C 0.66191 0.01387 0.586 0.0
C806 C 0.65683 0.0133 0.52577 0.0
H807 H 0.67622 0.94655 0.41256 0.0
H808 H 0.67921 0.95679 0.46043 0.0
H809 H 0.6329 0.00174 0.48929 0.0
H810 H 0.73904 0.0607 0.61382 0.0
H811 H 0.73165 0.05145 0.5658 0.0
H812 H 0.71821 0.01106 0.53638 0.0
C813 C 0.67225 0.96794 0.44709 0.0
C814 C 0.65177 0.00395 0.49921 0.0
C815 C 0.6702 0.96179 0.41968 0.0
C816 C 0.71734 0.04797 0.60633 0.0
C817 C 0.71312 0.04236 0.57884 0.0
C818 C 0.69974 0.00954 0.52623 0.0
C819 C 0.666 0.98867 0.45704 0.0
C820 C 0.67067 0.99735 0.48574 0.0
C821 C 0.68538 0.02465 0.56842 0.0
C822 C 0.68083 0.01616 0.53967 0.0
H823 H 0.64782 0.00755 0.39852 0.0
H824 H 0.65163 0.01833 0.44587 0.0
H825 H 0.71001 0.99583 0.4898 0.0
H826 H 0.64752 0.00982 0.62634 0.0
H827 H 0.64027 0.99996 0.57885 0.0
C828 C 0.68621 0.72797 0.9392 0.0
C829 C 0.66371 0.70592 0.9538 0.0
C830 C 0.69063 0.72378 0.91239 0.0
C831 C 0.67343 0.66367 0.8653 0.0
H832 H 0.7093 0.72476 0.81319 0.0
C833 C 0.68144 0.64684 0.75186 0.0
C834 C 0.70735 0.66567 0.73896 0.0
C835 C 0.6775 0.65048 0.77889 0.0
C836 C 0.69957 0.70756 0.82767 0.0
H837 H 0.6267 0.66323 0.95115 0.0
H838 H 0.63332 0.65651 0.90412 0.0
H839 H 0.69695 0.7349 0.85718 0.0
H840 H 0.74998 0.70221 0.74469 0.0
H841 H 0.74293 0.70872 0.79194 0.0
H842 H 0.67528 0.63622 0.83528 0.0
C843 C 0.64844 0.67657 0.91356 0.0
C844 C 0.69245 0.71334 0.85292 0.0
C845 C 0.64433 0.68057 0.94045 0.0
C846 C 0.72986 0.68717 0.75409 0.0
C847 C 0.72573 0.69114 0.78104 0.0
C848 C 0.68016 0.65784 0.83993 0.0
C849 C 0.67237 0.69759 0.89946 0.0
C850 C 0.67924 0.69147 0.87213 0.0
C851 C 0.69921 0.67332 0.79348 0.0
C852 C 0.69335 0.67972 0.82087 0.0
H853 H 0.70172 0.74763 0.94901 0.0
H854 H 0.70938 0.74048 0.90239 0.0
H855 H 0.66401 0.64636 0.87966 0.0
H856 H 0.66366 0.63014 0.7407 0.0
H857 H 0.65683 0.63644 0.78794 0.0
C858 C 0.95676 0.66616 0.27305 0.0
C859 C 0.9699 0.65588 0.29066 0.0
C860 C 0.96238 0.6679 0.24556 0.0
C861 C 0.99473 0.68879 0.19293 0.0
H862 H 0.00627 0.63222 0.15575 0.0
C863 C 0.04211 0.70947 0.08624 0.0
C864 C 0.02851 0.6865 0.06816 0.0
C865 C 0.0362 0.7051 0.11366 0.0
C866 C 0.00299 0.64819 0.16574 0.0
H867 H 0.99804 0.63793 0.29289 0.0
H868 H 0.00795 0.64118 0.24539 0.0
H869 H 0.98986 0.62378 0.20189 0.0
H870 H 0.99916 0.64065 0.06502 0.0
H871 H 0.98878 0.6332 0.1124 0.0
H872 H 0.0071 0.71282 0.15652 0.0
C873 C 0.99316 0.64775 0.2526 0.0
C874 C 0.9938 0.64345 0.19233 0.0
C875 C 0.98754 0.64599 0.27997 0.0
C876 C 0.01005 0.65889 0.0783 0.0
C877 C 0.00414 0.65456 0.10561 0.0
C878 C 0.00382 0.69348 0.16628 0.0
C879 C 0.98122 0.65934 0.23508 0.0
C880 C 0.9896 0.66371 0.20632 0.0
C881 C 0.01662 0.67768 0.1236 0.0
C882 C 0.0081 0.67325 0.15233 0.0
H883 H 0.94306 0.67397 0.28058 0.0
H884 H 0.95238 0.67644 0.23257 0.0
H885 H 0.99215 0.70507 0.20315 0.0
H886 H 0.05643 0.731 0.07914 0.0
H887 H 0.04662 0.72332 0.12702 0.0
loop_
_geom_bond_atom_site_label_1
_geom_bond_atom_site_label_2
_geom_bond_distance
_geom_bond_site_symmetry_2
_ccdc_geom_bond_type
O0 Cd1 2.223 . S
O0 C8 1.315 1_545 S
Cd1 O0 2.223 . S
Cd1 O4 2.297 . S
Cd1 O5 2.439 . S
Cd1 O11 2.240 . S
Cd2 O3 2.240 . S
Cd2 O10 2.223 . S
Cd2 O12 2.294 . S
Cd2 O13 2.439 1_565 S
O3 Cd2 2.240 . S
O3 C8 1.279 . S
O4 Cd1 2.297 . S
O4 C6 1.247 . S
O5 Cd1 2.439 . S
O5 C6 1.208 . S
C6 O4 1.247 . S
C6 O5 1.208 . S
C7 O12 1.240 1_545 S
C7 O13 1.208 . S
C8 O0 1.315 1_565 S
C8 O3 1.279 . S
C9 O10 1.315 1_545 S
C9 O11 1.279 . S
O10 Cd2 2.223 . S
O10 C9 1.315 1_565 S
O11 Cd1 2.240 . S
O11 C9 1.279 . S
O12 Cd2 2.294 . S
O12 C7 1.240 1_565 S
O13 Cd2 2.439 1_545 S
O13 C7 1.208 . S
O14 Cd15 2.223 . S
O14 C22 1.315 . S
Cd15 O14 2.223 . S
Cd15 O18 2.297 . S
Cd15 O19 2.439 . S
Cd15 O25 2.240 . S
Cd16 O17 2.240 . S
Cd16 O24 2.223 . S
Cd16 O26 2.297 . S
Cd16 O27 2.439 . S
O17 Cd16 2.240 . S
O17 C22 1.279 . S
O18 Cd15 2.297 . S
O18 C20 1.247 . S
O19 Cd15 2.439 . S
O19 C20 1.208 . S
C20 O18 1.247 . S
C20 O19 1.208 . S
C21 O26 1.247 . S
C21 O27 1.208 . S
C22 O14 1.315 . S
C22 O17 1.279 . S
C23 O24 1.315 . S
C23 O25 1.279 . S
O24 Cd16 2.223 . S
O24 C23 1.315 . S
O25 Cd15 2.240 . S
O25 C23 1.279 . S
O26 Cd16 2.297 . S
O26 C21 1.247 . S
O27 Cd16 2.439 . S
O27 C21 1.208 . S
O28 Cd29 2.223 1_554 S
O28 C36 1.315 1_654 S
Cd29 O28 2.223 1_556 S
Cd29 O32 2.297 . S
Cd29 O33 2.439 . S
Cd29 O39 2.240 1_556 S
Cd30 O31 2.240 . S
Cd30 O38 2.223 1_556 S
Cd30 O40 2.305 1_556 S
Cd30 O41 2.439 1_455 S
O31 Cd30 2.240 . S
O31 C36 1.279 . S
O32 Cd29 2.297 . S
O32 C34 1.247 . S
O33 Cd29 2.439 . S
O33 C34 1.208 . S
C34 O32 1.247 . S
C34 O33 1.208 . S
C35 O40 1.239 1_656 S
C35 O41 1.208 . S
C36 O28 1.315 1_456 S
C36 O31 1.279 . S
C37 O38 1.315 1_655 S
C37 O39 1.279 . S
O38 Cd30 2.223 1_554 S
O38 C37 1.315 1_455 S
O39 Cd29 2.240 1_554 S
O39 C37 1.279 . S
O40 Cd30 2.305 1_554 S
O40 C35 1.239 1_454 S
O41 Cd30 2.439 1_655 S
O41 C35 1.208 . S
O42 Cd43 2.223 . S
O42 C50 1.315 1_565 S
Cd43 O42 2.223 . S
Cd43 O46 2.297 . S
Cd43 O47 2.439 . S
Cd43 O53 2.240 . S
Cd44 O45 2.240 . S
Cd44 O52 2.223 . S
Cd44 O54 2.294 . S
Cd44 O55 2.439 1_545 S
O45 Cd44 2.240 . S
O45 C50 1.279 . S
O46 Cd43 2.297 . S
O46 C48 1.247 . S
O47 Cd43 2.439 . S
O47 C48 1.208 . S
C48 O46 1.247 . S
C48 O47 1.208 . S
C49 O54 1.240 1_565 S
C49 O55 1.208 . S
C50 O42 1.315 1_545 S
C50 O45 1.279 . S
C51 O52 1.315 1_565 S
C51 O53 1.279 . S
O52 Cd44 2.223 . S
O52 C51 1.315 1_545 S
O53 Cd43 2.240 . S
O53 C51 1.279 . S
O54 Cd44 2.294 . S
O54 C49 1.240 1_545 S
O55 Cd44 2.439 1_565 S
O55 C49 1.208 . S
O56 Cd57 2.223 . S
O56 C64 1.315 . S
Cd57 O56 2.223 . S
Cd57 O60 2.297 . S
Cd57 O61 2.439 . S
Cd57 O67 2.240 . S
Cd58 O59 2.240 . S
Cd58 O66 2.223 . S
Cd58 O68 2.297 . S
Cd58 O69 2.439 . S
O59 Cd58 2.240 . S
O59 C64 1.279 . S
O60 Cd57 2.297 . S
O60 C62 1.247 . S
O61 Cd57 2.439 . S
O61 C62 1.208 . S
C62 O60 1.247 . S
C62 O61 1.208 . S
C63 O68 1.247 . S
C63 O69 1.208 . S
C64 O56 1.315 . S
C64 O59 1.279 . S
C65 O66 1.315 . S
C65 O67 1.279 . S
O66 Cd58 2.223 . S
O66 C65 1.315 . S
O67 Cd57 2.240 . S
O67 C65 1.279 . S
O68 Cd58 2.297 . S
O68 C63 1.247 . S
O69 Cd58 2.439 . S
O69 C63 1.208 . S
O70 Cd71 2.223 1_554 S
O70 C78 1.315 1_454 S
Cd71 O70 2.223 1_556 S
Cd71 O74 2.297 . S
Cd71 O75 2.439 . S
Cd71 O81 2.240 1_556 S
Cd72 O73 2.240 . S
Cd72 O80 2.223 1_556 S
Cd72 O82 2.305 1_556 S
Cd72 O83 2.439 1_655 S
O73 Cd72 2.240 . S
O73 C78 1.279 . S
O74 Cd71 2.297 . S
O74 C76 1.247 . S
O75 Cd71 2.439 . S
O75 C76 1.208 . S
C76 O74 1.247 . S
C76 O75 1.208 . S
C77 O82 1.239 1_456 S
C77 O83 1.208 . S
C78 O70 1.315 1_656 S
C78 O73 1.279 . S
C79 O80 1.315 1_455 S
C79 O81 1.279 . S
O80 Cd72 2.223 1_554 S
O80 C79 1.315 1_655 S
O81 Cd71 2.240 1_554 S
O81 C79 1.279 . S
O82 Cd72 2.305 1_554 S
O82 C77 1.239 1_654 S
O83 Cd72 2.439 1_455 S
O83 C77 1.208 . S
O84 Cd85 2.223 . S
O84 C92 1.315 1_655 S
Cd85 O84 2.223 . S
Cd85 O88 2.297 . S
Cd85 O89 2.439 . S
Cd85 O95 2.240 . S
Cd86 O87 2.240 . S
Cd86 O94 2.223 . S
Cd86 O96 2.294 . S
Cd86 O97 2.439 1_455 S
O87 Cd86 2.240 . S
O87 C92 1.279 . S
O88 Cd85 2.297 . S
O88 C90 1.247 . S
O89 Cd85 2.439 . S
O89 C90 1.208 . S
C90 O88 1.247 . S
C90 O89 1.208 . S
C91 O96 1.240 1_655 S
C91 O97 1.208 . S
C92 O84 1.315 1_455 S
C92 O87 1.279 . S
C93 O94 1.315 1_655 S
C93 O95 1.279 . S
O94 Cd86 2.223 . S
O94 C93 1.315 1_455 S
O95 Cd85 2.240 . S
O95 C93 1.279 . S
O96 Cd86 2.294 . S
O96 C91 1.240 1_455 S
O97 Cd86 2.439 1_655 S
O97 C91 1.208 . S
O98 Cd99 2.223 . S
O98 C106 1.315 1_565 S
Cd99 O98 2.223 . S
Cd99 O102 2.297 . S
Cd99 O103 2.439 . S
Cd99 O109 2.240 . S
Cd100 O101 2.240 . S
Cd100 O108 2.223 . S
Cd100 O110 2.305 . S
Cd100 O111 2.439 1_545 S
O101 Cd100 2.240 . S
O101 C106 1.279 . S
O102 Cd99 2.297 . S
O102 C104 1.247 . S
O103 Cd99 2.439 . S
O103 C104 1.208 . S
C104 O102 1.247 . S
C104 O103 1.208 . S
C105 O110 1.239 1_565 S
C105 O111 1.208 . S
C106 O98 1.315 1_545 S
C106 O101 1.279 . S
C107 O108 1.315 1_565 S
C107 O109 1.279 . S
O108 Cd100 2.223 . S
O108 C107 1.315 1_545 S
O109 Cd99 2.240 . S
O109 C107 1.279 . S
O110 Cd100 2.305 . S
O110 C105 1.239 1_545 S
O111 Cd100 2.439 1_565 S
O111 C105 1.208 . S
O112 Cd113 2.223 . S
O112 C120 1.315 . S
Cd113 O112 2.223 . S
Cd113 O116 2.297 . S
Cd113 O117 2.439 . S
Cd113 O123 2.240 1_554 S
Cd114 O115 2.240 . S
Cd114 O122 2.223 1_554 S
Cd114 O124 2.297 1_554 S
Cd114 O125 2.439 . S
O115 Cd114 2.240 . S
O115 C120 1.279 . S
O116 Cd113 2.297 . S
O116 C118 1.247 . S
O117 Cd113 2.439 . S
O117 C118 1.208 . S
C118 O116 1.247 . S
C118 O117 1.208 . S
C119 O124 1.247 1_554 S
C119 O125 1.208 . S
C120 O112 1.315 . S
C120 O115 1.279 . S
C121 O122 1.315 . S
C121 O123 1.279 . S
O122 Cd114 2.223 1_556 S
O122 C121 1.315 . S
O123 Cd113 2.240 1_556 S
O123 C121 1.279 . S
O124 Cd114 2.297 1_556 S
O124 C119 1.247 1_556 S
O125 Cd114 2.439 . S
O125 C119 1.208 . S
O126 Cd127 2.223 . S
O126 C134 1.315 1_455 S
Cd127 O126 2.223 . S
Cd127 O130 2.297 . S
Cd127 O131 2.439 . S
Cd127 O137 2.240 . S
Cd128 O129 2.240 . S
Cd128 O136 2.223 . S
Cd128 O138 2.294 . S
Cd128 O139 2.439 1_655 S
O129 Cd128 2.240 . S
O129 C134 1.279 . S
O130 Cd127 2.297 . S
O130 C132 1.247 . S
O131 Cd127 2.439 . S
O131 C132 1.208 . S
C132 O130 1.247 . S
C132 O131 1.208 . S
C133 O138 1.240 1_455 S
C133 O139 1.208 . S
C134 O126 1.315 1_655 S
C134 O129 1.279 . S
C135 O136 1.315 1_455 S
C135 O137 1.279 . S
O136 Cd128 2.223 . S
O136 C135 1.315 1_655 S
O137 Cd127 2.240 . S
O137 C135 1.279 . S
O138 Cd128 2.294 . S
O138 C133 1.240 1_655 S
O139 Cd128 2.439 1_455 S
O139 C133 1.208 . S
O140 Cd141 2.223 . S
O140 C148 1.315 1_545 S
Cd141 O140 2.223 . S
Cd141 O144 2.297 . S
Cd141 O145 2.439 . S
Cd141 O151 2.240 . S
Cd142 O143 2.240 . S
Cd142 O150 2.223 . S
Cd142 O152 2.305 . S
Cd142 O153 2.439 1_565 S
O143 Cd142 2.240 . S
O143 C148 1.279 . S
O144 Cd141 2.297 . S
O144 C146 1.247 . S
O145 Cd141 2.439 . S
O145 C146 1.208 . S
C146 O144 1.247 . S
C146 O145 1.208 . S
C147 O152 1.239 1_545 S
C147 O153 1.208 . S
C148 O140 1.315 1_565 S
C148 O143 1.279 . S
C149 O150 1.315 1_545 S
C149 O151 1.279 . S
O150 Cd142 2.223 . S
O150 C149 1.315 1_565 S
O151 Cd141 2.240 . S
O151 C149 1.279 . S
O152 Cd142 2.305 . S
O152 C147 1.239 1_565 S
O153 Cd142 2.439 1_545 S
O153 C147 1.208 . S
O154 Cd155 2.223 . S
O154 C162 1.315 . S
Cd155 O154 2.223 . S
Cd155 O158 2.297 . S
Cd155 O159 2.439 . S
Cd155 O165 2.240 1_554 S
Cd156 O157 2.240 . S
Cd156 O164 2.223 1_554 S
Cd156 O166 2.297 1_554 S
Cd156 O167 2.439 . S
O157 Cd156 2.240 . S
O157 C162 1.279 . S
O158 Cd155 2.297 . S
O158 C160 1.247 . S
O159 Cd155 2.439 . S
O159 C160 1.208 . S
C160 O158 1.247 . S
C160 O159 1.208 . S
C161 O166 1.247 1_554 S
C161 O167 1.208 . S
C162 O154 1.315 . S
C162 O157 1.279 . S
C163 O164 1.315 . S
C163 O165 1.279 . S
O164 Cd156 2.223 1_556 S
O164 C163 1.315 . S
O165 Cd155 2.240 1_556 S
O165 C163 1.279 . S
O166 Cd156 2.297 1_556 S
O166 C161 1.247 1_556 S
O167 Cd156 2.439 . S
O167 C161 1.208 . S
C168 C169 1.349 . S
C168 C170 1.327 . S
C168 H193 0.950 . S
C169 C168 1.349 . S
C169 C185 1.349 . S
C170 C168 1.327 . S
C170 C189 1.429 . S
C170 H194 0.950 . S
C171 C188 1.574 . S
C171 C190 1.368 . S
C171 H195 0.949 . S
H172 C176 0.949 . S
C173 C174 1.349 . S
C173 C175 1.327 . S
C173 H196 0.950 . S
C174 C173 1.349 . S
C174 C186 1.349 . S
C175 C173 1.327 . S
C175 C191 1.429 . S
C175 H197 0.950 . S
C176 H172 0.949 . S
C176 C184 1.574 . S
C176 C192 1.368 . S
H177 C185 0.950 . S
H178 C183 0.950 . S
H179 C184 0.949 . S
H180 C186 0.950 . S
H181 C187 0.950 . S
H182 C188 0.949 . S
C183 H178 0.950 . S
C183 C185 1.327 . S
C183 C189 1.429 . S
C184 C176 1.574 . S
C184 H179 0.949 . S
C184 C190 1.368 . S
C185 C169 1.349 . S
C185 H177 0.950 . S
C185 C183 1.327 . S
C186 C174 1.349 . S
C186 H180 0.950 . S
C186 C187 1.327 . S
C187 H181 0.950 . S
C187 C186 1.327 . S
C187 C191 1.429 . S
C188 C171 1.574 . S
C188 H182 0.949 . S
C188 C192 1.368 . S
C189 C170 1.429 . S
C189 C183 1.429 . S
C189 C190 1.523 . S
C190 C171 1.368 . S
C190 C184 1.368 . S
C190 C189 1.523 . S
C191 C175 1.429 . S
C191 C187 1.429 . S
C191 C192 1.523 . S
C192 C176 1.368 . S
C192 C188 1.368 . S
C192 C191 1.523 . S
H193 C168 0.950 . S
H194 C170 0.950 . S
H195 C171 0.949 . S
H196 C173 0.950 . S
H197 C175 0.950 . S
C198 C199 1.349 . S
C198 C200 1.327 . S
C198 H223 0.950 . S
C199 C198 1.349 . S
C199 C215 1.349 . S
C200 C198 1.327 . S
C200 C219 1.429 . S
C200 H224 0.950 . S
C201 C218 1.574 . S
C201 C220 1.368 . S
C201 H225 0.949 . S
H202 C206 0.949 . S
C203 C204 1.349 . S
C203 C205 1.327 . S
C203 H226 0.950 . S
C204 C203 1.349 . S
C204 C216 1.349 . S
C205 C203 1.327 . S
C205 C221 1.429 . S
C205 H227 0.950 . S
C206 H202 0.949 . S
C206 C214 1.574 . S
C206 C222 1.368 . S
H207 C215 0.950 . S
H208 C213 0.950 . S
H209 C214 0.949 . S
H210 C216 0.950 . S
H211 C217 0.950 . S
H212 C218 0.949 . S
C213 H208 0.950 . S
C213 C215 1.327 . S
C213 C219 1.429 . S
C214 C206 1.574 . S
C214 H209 0.949 . S
C214 C220 1.368 . S
C215 C199 1.349 . S
C215 H207 0.950 . S
C215 C213 1.327 . S
C216 C204 1.349 . S
C216 H210 0.950 . S
C216 C217 1.327 . S
C217 H211 0.950 . S
C217 C216 1.327 . S
C217 C221 1.429 . S
C218 C201 1.574 . S
C218 H212 0.949 . S
C218 C222 1.368 . S
C219 C200 1.429 . S
C219 C213 1.429 . S
C219 C220 1.523 . S
C220 C201 1.368 . S
C220 C214 1.368 . S
C220 C219 1.523 . S
C221 C205 1.429 . S
C221 C217 1.429 . S
C221 C222 1.523 . S
C222 C206 1.368 . S
C222 C218 1.368 . S
C222 C221 1.523 . S
H223 C198 0.950 . S
H224 C200 0.950 . S
H225 C201 0.949 . S
H226 C203 0.950 . S
H227 C205 0.950 . S
C228 C229 1.349 . S
C228 C230 1.327 . S
C228 H253 0.950 . S
C229 C228 1.349 . S
C229 C245 1.349 . S
C230 C228 1.327 . S
C230 C249 1.429 . S
C230 H254 0.950 . S
C231 C248 1.574 . S
C231 C250 1.368 . S
C231 H255 0.949 . S
H232 C236 0.949 . S
C233 C234 1.349 . S
C233 C235 1.327 . S
C233 H256 0.950 . S
C234 C233 1.349 . S
C234 C246 1.349 . S
C235 C233 1.327 . S
C235 C251 1.429 . S
C235 H257 0.950 . S
C236 H232 0.949 . S
C236 C244 1.574 . S
C236 C252 1.368 . S
H237 C245 0.950 . S
H238 C243 0.950 . S
H239 C244 0.949 . S
H240 C246 0.950 . S
H241 C247 0.950 . S
H242 C248 0.949 . S
C243 H238 0.950 . S
C243 C245 1.327 . S
C243 C249 1.429 . S
C244 C236 1.574 . S
C244 H239 0.949 . S
C244 C250 1.368 . S
C245 C229 1.349 . S
C245 H237 0.950 . S
C245 C243 1.327 . S
C246 C234 1.349 . S
C246 H240 0.950 . S
C246 C247 1.327 . S
C247 H241 0.950 . S
C247 C246 1.327 . S
C247 C251 1.429 . S
C248 C231 1.574 . S
C248 H242 0.949 . S
C248 C252 1.368 . S
C249 C230 1.429 . S
C249 C243 1.429 . S
C249 C250 1.523 . S
C250 C231 1.368 . S
C250 C244 1.368 . S
C250 C249 1.523 . S
C251 C235 1.429 . S
C251 C247 1.429 . S
C251 C252 1.523 . S
C252 C236 1.368 . S
C252 C248 1.368 . S
C252 C251 1.523 . S
H253 C228 0.950 . S
H254 C230 0.950 . S
H255 C231 0.949 . S
H256 C233 0.950 . S
H257 C235 0.950 . S
C258 C259 1.349 . S
C258 C260 1.327 . S
C258 H283 0.950 . S
C259 C258 1.349 . S
C259 C275 1.349 . S
C260 C258 1.327 . S
C260 C279 1.429 . S
C260 H284 0.950 . S
C261 C278 1.574 . S
C261 C280 1.368 . S
C261 H285 0.949 . S
H262 C266 0.949 . S
C263 C264 1.349 . S
C263 C265 1.327 . S
C263 H286 0.950 . S
C264 C263 1.349 . S
C264 C276 1.349 . S
C265 C263 1.327 . S
C265 C281 1.429 . S
C265 H287 0.950 . S
C266 H262 0.949 . S
C266 C274 1.574 . S
C266 C282 1.368 . S
H267 C275 0.950 . S
H268 C273 0.950 . S
H269 C274 0.949 . S
H270 C276 0.950 . S
H271 C277 0.950 . S
H272 C278 0.949 . S
C273 H268 0.950 . S
C273 C275 1.327 . S
C273 C279 1.429 . S
C274 C266 1.574 . S
C274 H269 0.949 . S
C274 C280 1.368 . S
C275 C259 1.349 . S
C275 H267 0.950 . S
C275 C273 1.327 . S
C276 C264 1.349 . S
C276 H270 0.950 . S
C276 C277 1.327 . S
C277 H271 0.950 . S
C277 C276 1.327 . S
C277 C281 1.429 . S
C278 C261 1.574 . S
C278 H272 0.949 . S
C278 C282 1.368 . S
C279 C260 1.429 . S
C279 C273 1.429 . S
C279 C280 1.523 . S
C280 C261 1.368 . S
C280 C274 1.368 . S
C280 C279 1.523 . S
C281 C265 1.429 . S
C281 C277 1.429 . S
C281 C282 1.523 . S
C282 C266 1.368 . S
C282 C278 1.368 . S
C282 C281 1.523 . S
H283 C258 0.950 . S
H284 C260 0.950 . S
H285 C261 0.949 . S
H286 C263 0.950 . S
H287 C265 0.950 . S
C288 C289 1.349 . S
C288 C290 1.327 . S
C288 H313 0.950 . S
C289 C288 1.349 . S
C289 C305 1.349 . S
C290 C288 1.327 . S
C290 C309 1.429 . S
C290 H314 0.950 . S
C291 C308 1.574 . S
C291 C310 1.368 . S
C291 H315 0.949 . S
H292 C296 0.949 . S
C293 C294 1.349 . S
C293 C295 1.327 . S
C293 H316 0.950 . S
C294 C293 1.349 . S
C294 C306 1.349 . S
C295 C293 1.327 . S
C295 C311 1.429 . S
C295 H317 0.950 . S
C296 H292 0.949 . S
C296 C304 1.574 . S
C296 C312 1.368 . S
H297 C305 0.950 . S
H298 C303 0.950 . S
H299 C304 0.949 . S
H300 C306 0.950 . S
H301 C307 0.950 . S
H302 C308 0.949 . S
C303 H298 0.950 . S
C303 C305 1.327 . S
C303 C309 1.429 . S
C304 C296 1.574 . S
C304 H299 0.949 . S
C304 C310 1.368 . S
C305 C289 1.349 . S
C305 H297 0.950 . S
C305 C303 1.327 . S
C306 C294 1.349 . S
C306 H300 0.950 . S
C306 C307 1.327 . S
C307 H301 0.950 . S
C307 C306 1.327 . S
C307 C311 1.429 . S
C308 C291 1.574 . S
C308 H302 0.949 . S
C308 C312 1.368 . S
C309 C290 1.429 . S
C309 C303 1.429 . S
C309 C310 1.523 . S
C310 C291 1.368 . S
C310 C304 1.368 . S
C310 C309 1.523 . S
C311 C295 1.429 . S
C311 C307 1.429 . S
C311 C312 1.523 . S
C312 C296 1.368 . S
C312 C308 1.368 . S
C312 C311 1.523 . S
H313 C288 0.950 . S
H314 C290 0.950 . S
H315 C291 0.949 . S
H316 C293 0.950 . S
H317 C295 0.950 . S
C318 C319 1.349 . S
C318 C320 1.327 . S
C318 H343 0.950 . S
C319 C318 1.349 . S
C319 C335 1.349 . S
C320 C318 1.327 . S
C320 C339 1.429 . S
C320 H344 0.950 . S
C321 C338 1.574 . S
C321 C340 1.368 . S
C321 H345 0.949 . S
H322 C326 0.949 . S
C323 C324 1.349 . S
C323 C325 1.327 . S
C323 H346 0.950 . S
C324 C323 1.349 . S
C324 C336 1.349 . S
C325 C323 1.327 . S
C325 C341 1.429 . S
C325 H347 0.950 . S
C326 H322 0.949 . S
C326 C334 1.574 . S
C326 C342 1.368 . S
H327 C335 0.950 . S
H328 C333 0.950 . S
H329 C334 0.949 . S
H330 C336 0.950 . S
H331 C337 0.950 . S
H332 C338 0.949 . S
C333 H328 0.950 . S
C333 C335 1.327 . S
C333 C339 1.429 . S
C334 C326 1.574 . S
C334 H329 0.949 . S
C334 C340 1.368 . S
C335 C319 1.349 . S
C335 H327 0.950 . S
C335 C333 1.327 . S
C336 C324 1.349 . S
C336 H330 0.950 . S
C336 C337 1.327 . S
C337 H331 0.950 . S
C337 C336 1.327 . S
C337 C341 1.429 . S
C338 C321 1.574 . S
C338 H332 0.949 . S
C338 C342 1.368 . S
C339 C320 1.429 . S
C339 C333 1.429 . S
C339 C340 1.523 . S
C340 C321 1.368 . S
C340 C334 1.368 . S
C340 C339 1.523 . S
C341 C325 1.429 . S
C341 C337 1.429 . S
C341 C342 1.523 . S
C342 C326 1.368 . S
C342 C338 1.368 . S
C342 C341 1.523 . S
H343 C318 0.950 . S
H344 C320 0.950 . S
H345 C321 0.949 . S
H346 C323 0.950 . S
H347 C325 0.950 . S
C348 C349 1.349 . S
C348 C350 1.337 . S
C348 H373 0.950 1_545 S
C349 C348 1.349 . S
C349 C365 1.349 . S
C350 C348 1.337 . S
C350 C369 1.429 . S
C350 H374 0.940 1_545 S
C351 C368 1.574 . S
C351 C370 1.368 . S
C351 H375 0.949 . S
H352 C356 0.949 . S
C353 C354 1.349 . S
C353 C355 1.337 . S
C353 H376 0.950 1_565 S
C354 C353 1.349 . S
C354 C366 1.349 . S
C355 C353 1.337 . S
C355 C371 1.429 . S
C355 H377 0.940 1_565 S
C356 H352 0.949 . S
C356 C364 1.574 . S
C356 C372 1.368 . S
H357 C365 0.950 . S
H358 C363 0.950 . S
H359 C364 0.949 . S
H360 C366 0.950 . S
H361 C367 0.950 . S
H362 C368 0.949 . S
C363 H358 0.950 . S
C363 C365 1.327 . S
C363 C369 1.429 . S
C364 C356 1.574 . S
C364 H359 0.949 . S
C364 C370 1.368 1_565 S
C365 C349 1.349 . S
C365 H357 0.950 . S
C365 C363 1.327 . S
C366 C354 1.349 . S
C366 H360 0.950 . S
C366 C367 1.327 . S
C367 H361 0.950 . S
C367 C366 1.327 . S
C367 C371 1.429 . S
C368 C351 1.574 . S
C368 H362 0.949 . S
C368 C372 1.368 1_545 S
C369 C350 1.429 . S
C369 C363 1.429 . S
C369 C370 1.523 . S
C370 C351 1.368 . S
C370 C364 1.368 1_545 S
C370 C369 1.523 . S
C371 C355 1.429 . S
C371 C367 1.429 . S
C371 C372 1.523 . S
C372 C356 1.368 . S
C372 C368 1.368 1_565 S
C372 C371 1.523 . S
H373 C348 0.950 1_565 S
H374 C350 0.940 1_565 S
H375 C351 0.949 . S
H376 C353 0.950 1_545 S
H377 C355 0.940 1_545 S
C378 C379 1.349 . S
C378 C380 1.327 . S
C378 H403 0.950 . S
C379 C378 1.349 . S
C379 C395 1.349 . S
C380 C378 1.327 . S
C380 C399 1.429 . S
C380 H404 0.950 . S
C381 C398 1.574 . S
C381 C400 1.368 . S
C381 H405 0.949 . S
H382 C386 0.949 . S
C383 C384 1.349 . S
C383 C385 1.327 . S
C383 H406 0.950 . S
C384 C383 1.349 . S
C384 C396 1.349 . S
C385 C383 1.327 . S
C385 C401 1.429 . S
C385 H407 0.950 . S
C386 H382 0.949 . S
C386 C394 1.574 . S
C386 C402 1.368 . S
H387 C395 0.950 . S
H388 C393 0.950 . S
H389 C394 0.949 . S
H390 C396 0.950 . S
H391 C397 0.950 . S
H392 C398 0.949 . S
C393 H388 0.950 . S
C393 C395 1.327 . S
C393 C399 1.429 . S
C394 C386 1.574 . S
C394 H389 0.949 . S
C394 C400 1.368 . S
C395 C379 1.349 . S
C395 H387 0.950 . S
C395 C393 1.327 . S
C396 C384 1.349 . S
C396 H390 0.950 . S
C396 C397 1.327 . S
C397 H391 0.950 . S
C397 C396 1.327 . S
C397 C401 1.429 . S
C398 C381 1.574 . S
C398 H392 0.949 . S
C398 C402 1.368 . S
C399 C380 1.429 . S
C399 C393 1.429 . S
C399 C400 1.523 . S
C400 C381 1.368 . S
C400 C394 1.368 . S
C400 C399 1.523 . S
C401 C385 1.429 . S
C401 C397 1.429 . S
C401 C402 1.523 . S
C402 C386 1.368 . S
C402 C398 1.368 . S
C402 C401 1.523 . S
H403 C378 0.950 . S
H404 C380 0.950 . S
H405 C381 0.949 . S
H406 C383 0.950 . S
H407 C385 0.950 . S
C408 C409 1.349 . S
C408 C410 1.327 . S
C408 H433 0.950 . S
C409 C408 1.349 . S
C409 C425 1.349 1_556 S
C410 C408 1.327 . S
C410 C429 1.429 . S
C410 H434 0.950 . S
C411 C428 1.574 . S
C411 C430 1.368 1_654 S
C411 H435 0.949 . S
H412 C416 0.949 . S
C413 C414 1.349 1_554 S
C413 C415 1.327 . S
C413 H436 0.950 . S
C414 C413 1.349 1_556 S
C414 C426 1.349 . S
C415 C413 1.327 . S
C415 C431 1.429 1_554 S
C415 H437 0.950 . S
C416 H412 0.949 . S
C416 C424 1.574 . S
C416 C432 1.368 1_455 S
H417 C425 0.950 1_655 S
H418 C423 0.945 1_655 S
H419 C424 0.949 . S
H420 C426 0.950 1_455 S
H421 C427 0.945 1_455 S
H422 C428 0.949 . S
C423 H418 0.945 1_455 S
C423 C425 1.323 . S
C423 C429 1.438 1_554 S
C424 C416 1.574 . S
C424 H419 0.949 . S
C424 C430 1.368 . S
C425 C409 1.349 1_554 S
C425 H417 0.950 1_455 S
C425 C423 1.323 . S
C426 C414 1.349 . S
C426 H420 0.950 1_655 S
C426 C427 1.323 . S
C427 H421 0.945 1_655 S
C427 C426 1.323 . S
C427 C431 1.438 . S
C428 C411 1.574 . S
C428 H422 0.949 . S
C428 C432 1.368 1_554 S
C429 C410 1.429 . S
C429 C423 1.438 1_556 S
C429 C430 1.523 . S
C430 C411 1.368 1_456 S
C430 C424 1.368 . S
C430 C429 1.523 . S
C431 C415 1.429 1_556 S
C431 C427 1.438 . S
C431 C432 1.523 . S
C432 C416 1.368 1_655 S
C432 C428 1.368 1_556 S
C432 C431 1.523 . S
H433 C408 0.950 . S
H434 C410 0.950 . S
H435 C411 0.949 . S
H436 C413 0.950 . S
H437 C415 0.950 . S
C438 C439 1.349 . S
C438 C440 1.337 . S
C438 H463 0.950 1_655 S
C439 C438 1.349 . S
C439 C455 1.349 . S
C440 C438 1.337 . S
C440 C459 1.429 . S
C440 H464 0.940 1_655 S
C441 C458 1.574 . S
C441 C460 1.368 . S
C441 H465 0.949 . S
H442 C446 0.949 . S
C443 C444 1.349 . S
C443 C445 1.337 . S
C443 H466 0.950 1_455 S
C444 C443 1.349 . S
C444 C456 1.349 . S
C445 C443 1.337 . S
C445 C461 1.429 . S
C445 H467 0.940 1_455 S
C446 H442 0.949 . S
C446 C454 1.574 . S
C446 C462 1.368 . S
H447 C455 0.950 . S
H448 C453 0.950 . S
H449 C454 0.949 . S
H450 C456 0.950 . S
H451 C457 0.950 . S
H452 C458 0.949 . S
C453 H448 0.950 . S
C453 C455 1.327 . S
C453 C459 1.429 . S
C454 C446 1.574 . S
C454 H449 0.949 . S
C454 C460 1.368 1_455 S
C455 C439 1.349 . S
C455 H447 0.950 . S
C455 C453 1.327 . S
C456 C444 1.349 . S
C456 H450 0.950 . S
C456 C457 1.327 . S
C457 H451 0.950 . S
C457 C456 1.327 . S
C457 C461 1.429 . S
C458 C441 1.574 . S
C458 H452 0.949 . S
C458 C462 1.368 1_655 S
C459 C440 1.429 . S
C459 C453 1.429 . S
C459 C460 1.523 . S
C460 C441 1.368 . S
C460 C454 1.368 1_655 S
C460 C459 1.523 . S
C461 C445 1.429 . S
C461 C457 1.429 . S
C461 C462 1.523 . S
C462 C446 1.368 . S
C462 C458 1.368 1_455 S
C462 C461 1.523 . S
H463 C438 0.950 1_455 S
H464 C440 0.940 1_455 S
H465 C441 0.949 . S
H466 C443 0.950 1_655 S
H467 C445 0.940 1_655 S
C468 C469 1.349 . S
C468 C470 1.327 . S
C468 H493 0.950 . S
C469 C468 1.349 . S
C469 C485 1.349 . S
C470 C468 1.327 . S
C470 C489 1.429 . S
C470 H494 0.950 . S
C471 C488 1.574 . S
C471 C490 1.368 1_565 S
C471 H495 0.949 . S
H472 C476 0.949 . S
C473 C474 1.349 . S
C473 C475 1.327 . S
C473 H496 0.950 . S
C474 C473 1.349 . S
C474 C486 1.349 . S
C475 C473 1.327 . S
C475 C491 1.429 . S
C475 H497 0.950 . S
C476 H472 0.949 . S
C476 C484 1.574 . S
C476 C492 1.368 1_545 S
H477 C485 0.950 1_565 S
H478 C483 0.945 1_565 S
H479 C484 0.949 . S
H480 C486 0.950 1_545 S
H481 C487 0.945 1_545 S
H482 C488 0.949 . S
C483 H478 0.945 1_545 S
C483 C485 1.323 . S
C483 C489 1.438 . S
C484 C476 1.574 . S
C484 H479 0.949 . S
C484 C490 1.368 . S
C485 C469 1.349 . S
C485 H477 0.950 1_545 S
C485 C483 1.323 . S
C486 C474 1.349 . S
C486 H480 0.950 1_565 S
C486 C487 1.323 . S
C487 H481 0.945 1_565 S
C487 C486 1.323 . S
C487 C491 1.438 . S
C488 C471 1.574 . S
C488 H482 0.949 . S
C488 C492 1.368 . S
C489 C470 1.429 . S
C489 C483 1.438 . S
C489 C490 1.523 . S
C490 C471 1.368 1_545 S
C490 C484 1.368 . S
C490 C489 1.523 . S
C491 C475 1.429 . S
C491 C487 1.438 . S
C491 C492 1.523 . S
C492 C476 1.368 1_565 S
C492 C488 1.368 . S
C492 C491 1.523 . S
H493 C468 0.950 . S
H494 C470 0.950 . S
H495 C471 0.949 . S
H496 C473 0.950 . S
H497 C475 0.950 . S
C498 C499 1.349 . S
C498 C500 1.327 . S
C498 H523 0.950 . S
C499 C498 1.349 . S
C499 C515 1.349 1_554 S
C500 C498 1.327 . S
C500 C519 1.429 . S
C500 H524 0.950 . S
C501 C518 1.574 . S
C501 C520 1.368 1_556 S
C501 H525 0.949 . S
H502 C506 0.949 . S
C503 C504 1.349 1_556 S
C503 C505 1.327 . S
C503 H526 0.950 . S
C504 C503 1.349 1_554 S
C504 C516 1.349 . S
C505 C503 1.327 . S
C505 C521 1.429 1_556 S
C505 H527 0.950 . S
C506 H502 0.949 . S
C506 C514 1.574 . S
C506 C522 1.368 . S
H507 C515 0.950 . S
H508 C513 0.950 . S
H509 C514 0.949 . S
H510 C516 0.950 . S
H511 C517 0.950 . S
H512 C518 0.949 . S
C513 H508 0.950 . S
C513 C515 1.327 . S
C513 C519 1.429 1_556 S
C514 C506 1.574 . S
C514 H509 0.949 . S
C514 C520 1.368 . S
C515 C499 1.349 1_556 S
C515 H507 0.950 . S
C515 C513 1.327 . S
C516 C504 1.349 . S
C516 H510 0.950 . S
C516 C517 1.327 . S
C517 H511 0.950 . S
C517 C516 1.327 . S
C517 C521 1.429 . S
C518 C501 1.574 . S
C518 H512 0.949 . S
C518 C522 1.368 1_556 S
C519 C500 1.429 . S
C519 C513 1.429 1_554 S
C519 C520 1.523 . S
C520 C501 1.368 1_554 S
C520 C514 1.368 . S
C520 C519 1.523 . S
C521 C505 1.429 1_554 S
C521 C517 1.429 . S
C521 C522 1.523 . S
C522 C506 1.368 . S
C522 C518 1.368 1_554 S
C522 C521 1.523 . S
H523 C498 0.950 . S
H524 C500 0.950 . S
H525 C501 0.949 . S
H526 C503 0.950 . S
H527 C505 0.950 . S
C528 C529 1.349 . S
C528 C530 1.327 . S
C528 H553 0.950 . S
C529 C528 1.349 . S
C529 C545 1.349 . S
C530 C528 1.327 . S
C530 C549 1.429 . S
C530 H554 0.950 . S
C531 C548 1.574 . S
C531 C550 1.368 . S
C531 H555 0.949 . S
H532 C536 0.949 . S
C533 C534 1.349 . S
C533 C535 1.327 . S
C533 H556 0.950 . S
C534 C533 1.349 . S
C534 C546 1.349 . S
C535 C533 1.327 . S
C535 C551 1.429 . S
C535 H557 0.950 . S
C536 H532 0.949 . S
C536 C544 1.574 . S
C536 C552 1.368 . S
H537 C545 0.950 . S
H538 C543 0.950 . S
H539 C544 0.949 . S
H540 C546 0.950 . S
H541 C547 0.950 . S
H542 C548 0.949 . S
C543 H538 0.950 . S
C543 C545 1.327 . S
C543 C549 1.429 . S
C544 C536 1.574 . S
C544 H539 0.949 . S
C544 C550 1.368 . S
C545 C529 1.349 . S
C545 H537 0.950 . S
C545 C543 1.327 . S
C546 C534 1.349 . S
C546 H540 0.950 . S
C546 C547 1.327 . S
C547 H541 0.950 . S
C547 C546 1.327 . S
C547 C551 1.429 . S
C548 C531 1.574 . S
C548 H542 0.949 . S
C548 C552 1.368 . S
C549 C530 1.429 . S
C549 C543 1.429 . S
C549 C550 1.523 . S
C550 C531 1.368 . S
C550 C544 1.368 . S
C550 C549 1.523 . S
C551 C535 1.429 . S
C551 C547 1.429 . S
C551 C552 1.523 . S
C552 C536 1.368 . S
C552 C548 1.368 . S
C552 C551 1.523 . S
H553 C528 0.950 . S
H554 C530 0.950 . S
H555 C531 0.949 . S
H556 C533 0.950 . S
H557 C535 0.950 . S
C558 C559 1.349 . S
C558 C560 1.327 . S
C558 H583 0.950 . S
C559 C558 1.349 . S
C559 C575 1.349 . S
C560 C558 1.327 . S
C560 C579 1.429 . S
C560 H584 0.950 . S
C561 C578 1.574 . S
C561 C580 1.368 . S
C561 H585 0.949 . S
H562 C566 0.949 . S
C563 C564 1.349 . S
C563 C565 1.327 . S
C563 H586 0.950 . S
C564 C563 1.349 . S
C564 C576 1.349 . S
C565 C563 1.327 . S
C565 C581 1.429 . S
C565 H587 0.950 . S
C566 H562 0.949 . S
C566 C574 1.574 . S
C566 C582 1.368 . S
H567 C575 0.950 . S
H568 C573 0.950 . S
H569 C574 0.949 . S
H570 C576 0.950 . S
H571 C577 0.950 . S
H572 C578 0.949 . S
C573 H568 0.950 . S
C573 C575 1.327 . S
C573 C579 1.429 . S
C574 C566 1.574 . S
C574 H569 0.949 . S
C574 C580 1.368 . S
C575 C559 1.349 . S
C575 H567 0.950 . S
C575 C573 1.327 . S
C576 C564 1.349 . S
C576 H570 0.950 . S
C576 C577 1.327 . S
C577 H571 0.950 . S
C577 C576 1.327 . S
C577 C581 1.429 . S
C578 C561 1.574 . S
C578 H572 0.949 . S
C578 C582 1.368 . S
C579 C560 1.429 . S
C579 C573 1.429 . S
C579 C580 1.523 . S
C580 C561 1.368 . S
C580 C574 1.368 . S
C580 C579 1.523 . S
C581 C565 1.429 . S
C581 C577 1.429 . S
C581 C582 1.523 . S
C582 C566 1.368 . S
C582 C578 1.368 . S
C582 C581 1.523 . S
H583 C558 0.950 . S
H584 C560 0.950 . S
H585 C561 0.949 . S
H586 C563 0.950 . S
H587 C565 0.950 . S
C588 C589 1.349 1_556 S
C588 C590 1.327 . S
C588 H613 0.950 . S
C589 C588 1.349 1_554 S
C589 C605 1.349 . S
C590 C588 1.327 . S
C590 C609 1.429 1_556 S
C590 H614 0.950 . S
C591 C608 1.574 . S
C591 C610 1.368 . S
C591 H615 0.949 . S
H592 C596 0.949 . S
C593 C594 1.349 1_554 S
C593 C595 1.327 . S
C593 H616 0.950 . S
C594 C593 1.349 1_556 S
C594 C606 1.349 . S
C595 C593 1.327 . S
C595 C611 1.429 1_554 S
C595 H617 0.950 . S
C596 H592 0.949 . S
C596 C604 1.574 . S
C596 C612 1.375 . S
H597 C605 0.950 . S
H598 C603 0.950 . S
H599 C604 0.949 . S
H600 C606 0.950 . S
H601 C607 0.950 . S
H602 C608 0.949 . S
C603 H598 0.950 . S
C603 C605 1.327 . S
C603 C609 1.429 . S
C604 C596 1.574 . S
C604 H599 0.949 . S
C604 C610 1.368 1_556 S
C605 C589 1.349 . S
C605 H597 0.950 . S
C605 C603 1.327 . S
C606 C594 1.349 . S
C606 H600 0.950 . S
C606 C607 1.327 . S
C607 H601 0.950 . S
C607 C606 1.327 . S
C607 C611 1.429 . S
C608 C591 1.574 . S
C608 H602 0.949 . S
C608 C612 1.361 1_554 S
C609 C590 1.429 1_554 S
C609 C603 1.429 . S
C609 C610 1.523 . S
C610 C591 1.368 . S
C610 C604 1.368 1_554 S
C610 C609 1.523 . S
C611 C595 1.429 1_556 S
C611 C607 1.429 . S
C611 C612 1.524 . S
C612 C596 1.375 . S
C612 C608 1.361 1_556 S
C612 C611 1.524 . S
H613 C588 0.950 . S
H614 C590 0.950 . S
H615 C591 0.949 . S
H616 C593 0.950 . S
H617 C595 0.950 . S
C618 C619 1.349 . S
C618 C620 1.327 . S
C618 H643 0.950 . S
C619 C618 1.349 . S
C619 C635 1.349 . S
C620 C618 1.327 . S
C620 C639 1.429 . S
C620 H644 0.950 . S
C621 C638 1.574 . S
C621 C640 1.368 . S
C621 H645 0.949 . S
H622 C626 0.949 . S
C623 C624 1.349 . S
C623 C625 1.327 . S
C623 H646 0.950 . S
C624 C623 1.349 . S
C624 C636 1.349 . S
C625 C623 1.327 . S
C625 C641 1.429 . S
C625 H647 0.950 . S
C626 H622 0.949 . S
C626 C634 1.574 . S
C626 C642 1.368 . S
H627 C635 0.950 . S
H628 C633 0.950 . S
H629 C634 0.949 . S
H630 C636 0.950 . S
H631 C637 0.950 . S
H632 C638 0.949 . S
C633 H628 0.950 . S
C633 C635 1.327 . S
C633 C639 1.429 . S
C634 C626 1.574 . S
C634 H629 0.949 . S
C634 C640 1.368 . S
C635 C619 1.349 . S
C635 H627 0.950 . S
C635 C633 1.327 . S
C636 C624 1.349 . S
C636 H630 0.950 . S
C636 C637 1.327 . S
C637 H631 0.950 . S
C637 C636 1.327 . S
C637 C641 1.429 . S
C638 C621 1.574 . S
C638 H632 0.949 . S
C638 C642 1.368 . S
C639 C620 1.429 . S
C639 C633 1.429 . S
C639 C640 1.523 . S
C640 C621 1.368 . S
C640 C634 1.368 . S
C640 C639 1.523 . S
C641 C625 1.429 . S
C641 C637 1.429 . S
C641 C642 1.523 . S
C642 C626 1.368 . S
C642 C638 1.368 . S
C642 C641 1.523 . S
H643 C618 0.950 . S
H644 C620 0.950 . S
H645 C621 0.949 . S
H646 C623 0.950 . S
H647 C625 0.950 . S
C648 C649 1.349 . S
C648 C650 1.327 . S
C648 H673 0.950 . S
C649 C648 1.349 . S
C649 C665 1.349 . S
C650 C648 1.327 . S
C650 C669 1.429 . S
C650 H674 0.950 . S
C651 C668 1.574 . S
C651 C670 1.368 . S
C651 H675 0.949 . S
H652 C656 0.949 . S
C653 C654 1.349 . S
C653 C655 1.327 . S
C653 H676 0.950 . S
C654 C653 1.349 . S
C654 C666 1.349 . S
C655 C653 1.327 . S
C655 C671 1.429 . S
C655 H677 0.950 . S
C656 H652 0.949 . S
C656 C664 1.574 . S
C656 C672 1.368 . S
H657 C665 0.950 . S
H658 C663 0.950 . S
H659 C664 0.949 . S
H660 C666 0.950 . S
H661 C667 0.950 . S
H662 C668 0.949 . S
C663 H658 0.950 . S
C663 C665 1.327 . S
C663 C669 1.429 . S
C664 C656 1.574 . S
C664 H659 0.949 . S
C664 C670 1.368 . S
C665 C649 1.349 . S
C665 H657 0.950 . S
C665 C663 1.327 . S
C666 C654 1.349 . S
C666 H660 0.950 . S
C666 C667 1.327 . S
C667 H661 0.950 . S
C667 C666 1.327 . S
C667 C671 1.429 . S
C668 C651 1.574 . S
C668 H662 0.949 . S
C668 C672 1.368 . S
C669 C650 1.429 . S
C669 C663 1.429 . S
C669 C670 1.523 . S
C670 C651 1.368 . S
C670 C664 1.368 . S
C670 C669 1.523 . S
C671 C655 1.429 . S
C671 C667 1.429 . S
C671 C672 1.523 . S
C672 C656 1.368 . S
C672 C668 1.368 . S
C672 C671 1.523 . S
H673 C648 0.950 . S
H674 C650 0.950 . S
H675 C651 0.949 . S
H676 C653 0.950 . S
H677 C655 0.950 . S
C678 C679 1.349 . S
C678 C680 1.327 . S
C678 H703 0.950 . S
C679 C678 1.349 . S
C679 C695 1.349 1_554 S
C680 C678 1.327 . S
C680 C699 1.429 . S
C680 H704 0.950 . S
C681 C698 1.574 . S
C681 C700 1.368 1_556 S
C681 H705 0.949 . S
H682 C686 0.949 . S
C683 C684 1.349 . S
C683 C685 1.327 . S
C683 H706 0.950 . S
C684 C683 1.349 . S
C684 C696 1.349 1_556 S
C685 C683 1.327 . S
C685 C701 1.429 . S
C685 H707 0.950 . S
C686 H682 0.949 . S
C686 C694 1.574 . S
C686 C702 1.361 1_554 S
H687 C695 0.950 . S
H688 C693 0.950 . S
H689 C694 0.949 . S
H690 C696 0.950 . S
H691 C697 0.950 . S
H692 C698 0.949 . S
C693 H688 0.950 . S
C693 C695 1.327 . S
C693 C699 1.429 1_556 S
C694 C686 1.574 . S
C694 H689 0.949 . S
C694 C700 1.368 . S
C695 C679 1.349 1_556 S
C695 H687 0.950 . S
C695 C693 1.327 . S
C696 C684 1.349 1_554 S
C696 H690 0.950 . S
C696 C697 1.327 . S
C697 H691 0.950 . S
C697 C696 1.327 . S
C697 C701 1.429 1_554 S
C698 C681 1.574 . S
C698 H692 0.949 . S
C698 C702 1.375 . S
C699 C680 1.429 . S
C699 C693 1.429 1_554 S
C699 C700 1.523 . S
C700 C681 1.368 1_554 S
C700 C694 1.368 . S
C700 C699 1.523 . S
C701 C685 1.429 . S
C701 C697 1.429 1_556 S
C701 C702 1.524 . S
C702 C686 1.361 1_556 S
C702 C698 1.375 . S
C702 C701 1.524 . S
H703 C678 0.950 . S
H704 C680 0.950 . S
H705 C681 0.949 . S
H706 C683 0.950 . S
H707 C685 0.950 . S
C708 C709 1.349 . S
C708 C710 1.327 . S
C708 H733 0.950 . S
C709 C708 1.349 . S
C709 C725 1.349 1_545 S
C710 C708 1.327 . S
C710 C729 1.429 . S
C710 H734 0.950 . S
C711 C728 1.574 . S
C711 C730 1.368 1_565 S
C711 H735 0.949 . S
H712 C716 0.949 . S
C713 C714 1.349 . S
C713 C715 1.327 . S
C713 H736 0.950 . S
C714 C713 1.349 . S
C714 C726 1.349 1_565 S
C715 C713 1.327 . S
C715 C731 1.429 . S
C715 H737 0.950 . S
C716 H712 0.949 . S
C716 C724 1.574 . S
C716 C732 1.368 1_545 S
H717 C725 0.950 . S
H718 C723 0.950 . S
H719 C724 0.949 . S
H720 C726 0.950 . S
H721 C727 0.950 . S
H722 C728 0.949 . S
C723 H718 0.950 . S
C723 C725 1.327 . S
C723 C729 1.429 1_565 S
C724 C716 1.574 . S
C724 H719 0.949 . S
C724 C730 1.368 . S
C725 C709 1.349 1_565 S
C725 H717 0.950 . S
C725 C723 1.327 . S
C726 C714 1.349 1_545 S
C726 H720 0.950 . S
C726 C727 1.327 . S
C727 H721 0.950 . S
C727 C726 1.327 . S
C727 C731 1.429 1_545 S
C728 C711 1.574 . S
C728 H722 0.949 . S
C728 C732 1.368 . S
C729 C710 1.429 . S
C729 C723 1.429 1_545 S
C729 C730 1.523 . S
C730 C711 1.368 1_545 S
C730 C724 1.368 . S
C730 C729 1.523 . S
C731 C715 1.429 . S
C731 C727 1.429 1_565 S
C731 C732 1.523 . S
C732 C716 1.368 1_565 S
C732 C728 1.368 . S
C732 C731 1.523 . S
H733 C708 0.950 . S
H734 C710 0.950 . S
H735 C711 0.949 . S
H736 C713 0.950 . S
H737 C715 0.950 . S
C738 C739 1.349 . S
C738 C740 1.327 . S
C738 H763 0.950 . S
C739 C738 1.349 . S
C739 C755 1.349 . S
C740 C738 1.327 . S
C740 C759 1.429 . S
C740 H764 0.950 . S
C741 C758 1.574 . S
C741 C760 1.368 . S
C741 H765 0.949 . S
H742 C746 0.949 . S
C743 C744 1.349 . S
C743 C745 1.327 . S
C743 H766 0.950 . S
C744 C743 1.349 . S
C744 C756 1.349 . S
C745 C743 1.327 . S
C745 C761 1.429 . S
C745 H767 0.950 . S
C746 H742 0.949 . S
C746 C754 1.574 . S
C746 C762 1.368 . S
H747 C755 0.950 . S
H748 C753 0.950 . S
H749 C754 0.949 . S
H750 C756 0.950 . S
H751 C757 0.950 . S
H752 C758 0.949 . S
C753 H748 0.950 . S
C753 C755 1.327 . S
C753 C759 1.429 . S
C754 C746 1.574 . S
C754 H749 0.949 . S
C754 C760 1.368 . S
C755 C739 1.349 . S
C755 H747 0.950 . S
C755 C753 1.327 . S
C756 C744 1.349 . S
C756 H750 0.950 . S
C756 C757 1.327 . S
C757 H751 0.950 . S
C757 C756 1.327 . S
C757 C761 1.429 . S
C758 C741 1.574 . S
C758 H752 0.949 . S
C758 C762 1.368 . S
C759 C740 1.429 . S
C759 C753 1.429 . S
C759 C760 1.523 . S
C760 C741 1.368 . S
C760 C754 1.368 . S
C760 C759 1.523 . S
C761 C745 1.429 . S
C761 C757 1.429 . S
C761 C762 1.523 . S
C762 C746 1.368 . S
C762 C758 1.368 . S
C762 C761 1.523 . S
H763 C738 0.950 . S
H764 C740 0.950 . S
H765 C741 0.949 . S
H766 C743 0.950 . S
H767 C745 0.950 . S
C768 C769 1.349 1_655 S
C768 C770 1.327 . S
C768 H793 0.950 . S
C769 C768 1.349 1_455 S
C769 C785 1.349 . S
C770 C768 1.327 . S
C770 C789 1.429 1_655 S
C770 H794 0.950 . S
C771 C788 1.574 . S
C771 C790 1.368 . S
C771 H795 0.949 . S
H772 C776 0.949 . S
C773 C774 1.349 1_455 S
C773 C775 1.327 . S
C773 H796 0.950 . S
C774 C773 1.349 1_655 S
C774 C786 1.349 . S
C775 C773 1.327 . S
C775 C791 1.429 1_455 S
C775 H797 0.950 . S
C776 H772 0.949 . S
C776 C784 1.574 . S
C776 C792 1.368 . S
H777 C785 0.950 . S
H778 C783 0.950 . S
H779 C784 0.949 . S
H780 C786 0.950 . S
H781 C787 0.950 . S
H782 C788 0.949 . S
C783 H778 0.950 . S
C783 C785 1.327 . S
C783 C789 1.429 . S
C784 C776 1.574 . S
C784 H779 0.949 . S
C784 C790 1.368 1_655 S
C785 C769 1.349 . S
C785 H777 0.950 . S
C785 C783 1.327 . S
C786 C774 1.349 . S
C786 H780 0.950 . S
C786 C787 1.327 . S
C787 H781 0.950 . S
C787 C786 1.327 . S
C787 C791 1.429 . S
C788 C771 1.574 . S
C788 H782 0.949 . S
C788 C792 1.368 1_455 S
C789 C770 1.429 1_455 S
C789 C783 1.429 . S
C789 C790 1.523 . S
C790 C771 1.368 . S
C790 C784 1.368 1_455 S
C790 C789 1.523 . S
C791 C775 1.429 1_655 S
C791 C787 1.429 . S
C791 C792 1.523 . S
C792 C776 1.368 . S
C792 C788 1.368 1_655 S
C792 C791 1.523 . S
H793 C768 0.950 . S
H794 C770 0.950 . S
H795 C771 0.949 . S
H796 C773 0.950 . S
H797 C775 0.950 . S
C798 C799 1.349 1_545 S
C798 C800 1.327 . S
C798 H823 0.950 . S
C799 C798 1.349 1_565 S
C799 C815 1.349 . S
C800 C798 1.327 . S
C800 C819 1.429 1_545 S
C800 H824 0.950 . S
C801 C818 1.574 . S
C801 C820 1.368 . S
C801 H825 0.949 . S
H802 C806 0.949 . S
C803 C804 1.349 1_565 S
C803 C805 1.327 . S
C803 H826 0.950 . S
C804 C803 1.349 1_545 S
C804 C816 1.349 . S
C805 C803 1.327 . S
C805 C821 1.429 1_565 S
C805 H827 0.950 . S
C806 H802 0.949 . S
C806 C814 1.574 . S
C806 C822 1.368 . S
H807 C815 0.950 . S
H808 C813 0.950 . S
H809 C814 0.949 . S
H810 C816 0.950 . S
H811 C817 0.950 . S
H812 C818 0.949 . S
C813 H808 0.950 . S
C813 C815 1.327 . S
C813 C819 1.429 . S
C814 C806 1.574 . S
C814 H809 0.949 . S
C814 C820 1.368 1_545 S
C815 C799 1.349 . S
C815 H807 0.950 . S
C815 C813 1.327 . S
C816 C804 1.349 . S
C816 H810 0.950 . S
C816 C817 1.327 . S
C817 H811 0.950 . S
C817 C816 1.327 . S
C817 C821 1.429 . S
C818 C801 1.574 . S
C818 H812 0.949 . S
C818 C822 1.368 1_565 S
C819 C800 1.429 1_565 S
C819 C813 1.429 . S
C819 C820 1.523 . S
C820 C801 1.368 . S
C820 C814 1.368 1_565 S
C820 C819 1.523 . S
C821 C805 1.429 1_545 S
C821 C817 1.429 . S
C821 C822 1.523 . S
C822 C806 1.368 . S
C822 C818 1.368 1_545 S
C822 C821 1.523 . S
H823 C798 0.950 . S
H824 C800 0.950 . S
H825 C801 0.949 . S
H826 C803 0.950 . S
H827 C805 0.950 . S
C828 C829 1.349 . S
C828 C830 1.327 . S
C828 H853 0.950 . S
C829 C828 1.349 . S
C829 C845 1.349 . S
C830 C828 1.327 . S
C830 C849 1.429 . S
C830 H854 0.950 . S
C831 C848 1.574 . S
C831 C850 1.368 . S
C831 H855 0.949 . S
H832 C836 0.949 . S
C833 C834 1.349 . S
C833 C835 1.327 . S
C833 H856 0.950 . S
C834 C833 1.349 . S
C834 C846 1.349 . S
C835 C833 1.327 . S
C835 C851 1.429 . S
C835 H857 0.950 . S
C836 H832 0.949 . S
C836 C844 1.574 . S
C836 C852 1.368 . S
H837 C845 0.950 . S
H838 C843 0.950 . S
H839 C844 0.949 . S
H840 C846 0.950 . S
H841 C847 0.950 . S
H842 C848 0.949 . S
C843 H838 0.950 . S
C843 C845 1.327 . S
C843 C849 1.429 . S
C844 C836 1.574 . S
C844 H839 0.949 . S
C844 C850 1.368 . S
C845 C829 1.349 . S
C845 H837 0.950 . S
C845 C843 1.327 . S
C846 C834 1.349 . S
C846 H840 0.950 . S
C846 C847 1.327 . S
C847 H841 0.950 . S
C847 C846 1.327 . S
C847 C851 1.429 . S
C848 C831 1.574 . S
C848 H842 0.949 . S
C848 C852 1.368 . S
C849 C830 1.429 . S
C849 C843 1.429 . S
C849 C850 1.523 . S
C850 C831 1.368 . S
C850 C844 1.368 . S
C850 C849 1.523 . S
C851 C835 1.429 . S
C851 C847 1.429 . S
C851 C852 1.523 . S
C852 C836 1.368 . S
C852 C848 1.368 . S
C852 C851 1.523 . S
H853 C828 0.950 . S
H854 C830 0.950 . S
H855 C831 0.949 . S
H856 C833 0.950 . S
H857 C835 0.950 . S
C858 C859 1.349 . S
C858 C860 1.327 . S
C858 H883 0.950 . S
C859 C858 1.349 . S
C859 C875 1.349 1_655 S
C860 C858 1.327 . S
C860 C879 1.429 . S
C860 H884 0.950 . S
C861 C878 1.574 . S
C861 C880 1.368 1_455 S
C861 H885 0.949 . S
H862 C866 0.949 . S
C863 C864 1.349 . S
C863 C865 1.327 . S
C863 H886 0.950 . S
C864 C863 1.349 . S
C864 C876 1.349 1_455 S
C865 C863 1.327 . S
C865 C881 1.429 . S
C865 H887 0.950 . S
C866 H862 0.949 . S
C866 C874 1.574 . S
C866 C882 1.368 1_655 S
H867 C875 0.950 . S
H868 C873 0.950 . S
H869 C874 0.949 . S
H870 C876 0.950 . S
H871 C877 0.950 . S
H872 C878 0.949 . S
C873 H868 0.950 . S
C873 C875 1.327 . S
C873 C879 1.429 1_455 S
C874 C866 1.574 . S
C874 H869 0.949 . S
C874 C880 1.368 . S
C875 C859 1.349 1_455 S
C875 H867 0.950 . S
C875 C873 1.327 . S
C876 C864 1.349 1_655 S
C876 H870 0.950 . S
C876 C877 1.327 . S
C877 H871 0.950 . S
C877 C876 1.327 . S
C877 C881 1.429 1_655 S
C878 C861 1.574 . S
C878 H872 0.949 . S
C878 C882 1.368 . S
C879 C860 1.429 . S
C879 C873 1.429 1_655 S
C879 C880 1.523 . S
C880 C861 1.368 1_655 S
C880 C874 1.368 . S
C880 C879 1.523 . S
C881 C865 1.429 . S
C881 C877 1.429 1_455 S
C881 C882 1.523 . S
C882 C866 1.368 1_455 S
C882 C878 1.368 . S
C882 C881 1.523 . S
H883 C858 0.950 . S
H884 C860 0.950 . S
H885 C861 0.949 . S
H886 C863 0.950 . S
H887 C865 0.950 . S
C169 C6 1.727 . S
C174 C118 1.727 . S
C199 C20 1.727 . S
C204 C132 1.727 . S
C229 C146 1.727 . S
C234 C34 1.727 . S
C259 C160 1.727 . S
C264 C48 1.727 . S
C289 C90 1.727 . S
C294 C62 1.727 . S
C319 C104 1.727 . S
C324 C76 1.727 . S
C349 C7 1.795 . S
C354 C49 1.795 . S
C379 C63 1.796 . S
C384 C21 1.796 . S
C409 C77 1.795 . S
C414 C35 1.795 . S
C439 C91 1.795 . S
C444 C133 1.795 . S
C469 C147 1.795 . S
C474 C105 1.795 . S
C499 C119 1.796 . S
C504 C161 1.796 . S
C529 C92 1.089 . S
C534 C8 1.089 . S
C559 C22 1.089 . S
C564 C106 1.089 . S
C589 C120 1.089 . S
C594 C36 1.089 . S
C619 C134 1.089 . S
C624 C50 1.089 . S
C649 C64 1.089 . S
C654 C148 1.089 . S
C679 C162 1.089 . S
C684 C78 1.089 . S
C709 C9 0.945 . S
C714 C107 0.945 . S
C739 C121 0.945 . S
C744 C23 0.945 . S
C769 C135 0.945 . S
C774 C37 0.945 . S
C799 C51 0.945 . S
C804 C149 0.945 . S
C829 C163 0.945 . S
C834 C65 0.945 . S
C859 C93 0.945 . S
C864 C79 0.945 . S
