# Generated by pormake.
# Topology wkj, (6)-cn, num edge types: 1
# Building blocks:
#     Node 0, Type 0, BuildingBlock: BETFAJ_clean_sbu_0, # of connection points: 6
#     Node 1, Type 0, BuildingBlock: BETFAJ_clean_sbu_0, # of connection points: 6
#     Node 2, Type 0, BuildingBlock: BETFAJ_clean_sbu_0, # of connection points: 6
#     Node 3, Type 0, BuildingBlock: BETFAJ_clean_sbu_0, # of connection points: 6
#     Node 4, Type 0, BuildingBlock: BETFAJ_clean_sbu_0, # of connection points: 6
#     Node 5, Type 0, BuildingBlock: BETFAJ_clean_sbu_0, # of connection points: 6
#     Node 6, Type 0, BuildingBlock: BETFAJ_clean_sbu_0, # of connection points: 6
#     Node 7, Type 0, BuildingBlock: BETFAJ_clean_sbu_0, # of connection points: 6
#     Node 8, Type 0, BuildingBlock: BETFAJ_clean_sbu_0, # of connection points: 6
#     Node 9, Type 0, BuildingBlock: BETFAJ_clean_sbu_0, # of connection points: 6
#     Node 10, Type 0, BuildingBlock: BETFAJ_clean_sbu_0, # of connection points: 6
#     Node 11, Type 0, BuildingBlock: BETFAJ_clean_sbu_0, # of connection points: 6
#     Edge 12, Type (0, 0), BuildingBlock: UVAHIK_clean_linker_0, # of connection points: 2
#     Edge 13, Type (0, 0), BuildingBlock: UVAHIK_clean_linker_0, # of connection points: 2
#     Edge 14, Type (0, 0), BuildingBlock: UVAHIK_clean_linker_0, # of connection points: 2
#     Edge 15, Type (0, 0), BuildingBlock: UVAHIK_clean_linker_0, # of connection points: 2
#     Edge 16, Type (0, 0), BuildingBlock: UVAHIK_clean_linker_0, # of connection points: 2
#     Edge 17, Type (0, 0), BuildingBlock: UVAHIK_clean_linker_0, # of connection points: 2
#     Edge 18, Type (0, 0), BuildingBlock: UVAHIK_clean_linker_0, # of connection points: 2
#     Edge 19, Type (0, 0), BuildingBlock: UVAHIK_clean_linker_0, # of connection points: 2
#     Edge 20, Type (0, 0), BuildingBlock: UVAHIK_clean_linker_0, # of connection points: 2
#     Edge 21, Type (0, 0), BuildingBlock: UVAHIK_clean_linker_0, # of connection points: 2
#     Edge 22, Type (0, 0), BuildingBlock: UVAHIK_clean_linker_0, # of connection points: 2
#     Edge 23, Type (0, 0), BuildingBlock: UVAHIK_clean_linker_0, # of connection points: 2
#     Edge 24, Type (0, 0), BuildingBlock: UVAHIK_clean_linker_0, # of connection points: 2
#     Edge 25, Type (0, 0), BuildingBlock: UVAHIK_clean_linker_0, # of connection points: 2
#     Edge 26, Type (0, 0), BuildingBlock: UVAHIK_clean_linker_0, # of connection points: 2
#     Edge 27, Type (0, 0), BuildingBlock: UVAHIK_clean_linker_0, # of connection points: 2
#     Edge 28, Type (0, 0), BuildingBlock: UVAHIK_clean_linker_0, # of connection points: 2
#     Edge 29, Type (0, 0), BuildingBlock: UVAHIK_clean_linker_0, # of connection points: 2
#     Edge 30, Type (0, 0), BuildingBlock: UVAHIK_clean_linker_0, # of connection points: 2
#     Edge 31, Type (0, 0), BuildingBlock: UVAHIK_clean_linker_0, # of connection points: 2
#     Edge 32, Type (0, 0), BuildingBlock: UVAHIK_clean_linker_0, # of connection points: 2
#     Edge 33, Type (0, 0), BuildingBlock: UVAHIK_clean_linker_0, # of connection points: 2
#     Edge 34, Type (0, 0), BuildingBlock: UVAHIK_clean_linker_0, # of connection points: 2
#     Edge 35, Type (0, 0), BuildingBlock: UVAHIK_clean_linker_0, # of connection points: 2
#     Edge 36, Type (0, 0), BuildingBlock: UVAHIK_clean_linker_0, # of connection points: 2
#     Edge 37, Type (0, 0), BuildingBlock: UVAHIK_clean_linker_0, # of connection points: 2
#     Edge 38, Type (0, 0), BuildingBlock: UVAHIK_clean_linker_0, # of connection points: 2
#     Edge 39, Type (0, 0), BuildingBlock: UVAHIK_clean_linker_0, # of connection points: 2
#     Edge 40, Type (0, 0), BuildingBlock: UVAHIK_clean_linker_0, # of connection points: 2
#     Edge 41, Type (0, 0), BuildingBlock: UVAHIK_clean_linker_0, # of connection points: 2
#     Edge 42, Type (0, 0), BuildingBlock: UVAHIK_clean_linker_0, # of connection points: 2
#     Edge 43, Type (0, 0), BuildingBlock: UVAHIK_clean_linker_0, # of connection points: 2
#     Edge 44, Type (0, 0), BuildingBlock: UVAHIK_clean_linker_0, # of connection points: 2
#     Edge 45, Type (0, 0), BuildingBlock: UVAHIK_clean_linker_0, # of connection points: 2
#     Edge 46, Type (0, 0), BuildingBlock: UVAHIK_clean_linker_0, # of connection points: 2
#     Edge 47, Type (0, 0), BuildingBlock: UVAHIK_clean_linker_0, # of connection points: 2
# Relax obj value: 0.578
# Max RMSD: 0.174
# Mean RMSD: 0.174
data_MOF--net-wkj--node1-BETFAJ_clean_sbu_0--edge1-UVAHIK_clean_linker_0
_symmetry_space_group_name_H-M    P1
_symmetry_Int_Tables_number       1
_symmetry_cell_setting            triclinic
loop_
_symmetry_equiv_pos_as_xyz
'x, y, z'
_cell_length_a     61.455605
_cell_length_b     61.351433
_cell_length_c     39.558272
_cell_angle_alpha  90.197231
_cell_angle_beta   90.247165
_cell_angle_gamma 119.94702
loop_
_atom_site_label
_atom_site_type_symbol
_atom_site_fract_x
_atom_site_fract_y
_atom_site_fract_z
_atom_type_partial_charge
Sm0 Sm 0.47186 0.09207 0.32705 0.0
Sm1 Sm 0.51826 0.09755 0.31183 0.0
C2 C 0.4241 0.0786 0.33746 0.0
C3 C 0.40758 0.07113 0.36685 0.0
C4 C 0.41609 0.06759 0.39811 0.0
C5 C 0.40068 0.06113 0.42638 0.0
C6 C 0.37655 0.05832 0.42397 0.0
C7 C 0.36807 0.06182 0.39246 0.0
C8 C 0.38354 0.06822 0.36408 0.0
C9 C 0.50396 0.14165 0.30843 0.0
C10 C 0.50976 0.10124 0.39563 0.0
C11 C 0.56739 0.12194 0.30274 0.0
C12 C 0.58338 0.14496 0.2834 0.0
C13 C 0.57929 0.16554 0.28533 0.0
C14 C 0.59254 0.18637 0.26468 0.0
C15 C 0.60991 0.18699 0.24124 0.0
C16 C 0.61484 0.1669 0.24034 0.0
C17 C 0.60165 0.14603 0.26129 0.0
C18 C 0.48471 0.04982 0.33635 0.0
C19 C 0.47979 0.07091 0.24875 0.0
O20 O 0.43142 0.0629 0.3279 0.0
O21 O 0.44234 0.10188 0.33767 0.0
O22 O 0.50174 0.12231 0.2929 0.0
O23 O 0.49114 0.1347 0.33607 0.0
O24 O 0.48625 0.09426 0.38533 0.0
O25 O 0.52619 0.10531 0.37121 0.0
O26 O 0.55658 0.12515 0.32911 0.0
O27 O 0.5522 0.10183 0.28522 0.0
O28 O 0.4884 0.07056 0.34654 0.0
O29 O 0.50161 0.05359 0.31377 0.0
O30 O 0.50371 0.08183 0.25761 0.0
O31 O 0.46388 0.0717 0.27137 0.0
H32 H 0.43467 0.0699 0.40068 0.0
H33 H 0.40762 0.05805 0.45006 0.0
H34 H 0.34966 0.05994 0.38985 0.0
H35 H 0.37681 0.07107 0.34006 0.0
H36 H 0.56526 0.16529 0.30206 0.0
H37 H 0.5885 0.20164 0.26622 0.0
H38 H 0.62789 0.16669 0.22221 0.0
H39 H 0.60503 0.13035 0.25935 0.0
Sm40 Sm 0.38164 0.47076 0.66006 0.0
Sm41 Sm 0.42071 0.51792 0.64468 0.0
C42 C 0.35035 0.42189 0.66806 0.0
C43 C 0.35054 0.401 0.68589 0.0
C44 C 0.37109 0.397 0.68353 0.0
C45 C 0.37163 0.37811 0.70241 0.0
C46 C 0.35183 0.36309 0.72436 0.0
C47 C 0.33095 0.36668 0.7258 0.0
C48 C 0.33031 0.38541 0.70664 0.0
C49 C 0.36073 0.50055 0.64326 0.0
C50 C 0.4111 0.50847 0.72836 0.0
C51 C 0.44359 0.56697 0.63496 0.0
C52 C 0.43461 0.58133 0.61529 0.0
C53 C 0.4094 0.5754 0.61786 0.0
C54 C 0.39947 0.58569 0.5955 0.0
C55 C 0.41442 0.60194 0.56986 0.0
C56 C 0.44004 0.60915 0.5686 0.0
C57 C 0.45005 0.59886 0.59116 0.0
C58 C 0.43695 0.48502 0.66592 0.0
C59 C 0.41056 0.47977 0.58217 0.0
O60 O 0.36548 0.43133 0.64244 0.0
O61 O 0.34991 0.43911 0.68698 0.0
O62 O 0.37881 0.50049 0.62739 0.0
O63 O 0.3552 0.48619 0.66928 0.0
O64 O 0.39592 0.48464 0.71791 0.0
O65 O 0.42169 0.52547 0.70409 0.0
O66 O 0.43064 0.55613 0.662 0.0
O67 O 0.44912 0.55222 0.61757 0.0
O68 O 0.42005 0.4881 0.67778 0.0
O69 O 0.4493 0.50262 0.64388 0.0
O70 O 0.42142 0.50389 0.59006 0.0
O71 O 0.39558 0.46342 0.60559 0.0
H72 H 0.38699 0.40878 0.66768 0.0
H73 H 0.38785 0.37565 0.70036 0.0
H74 H 0.31556 0.35579 0.74283 0.0
H75 H 0.31431 0.38823 0.70879 0.0
H76 H 0.39691 0.56183 0.63609 0.0
H77 H 0.37973 0.57995 0.59721 0.0
H78 H 0.45193 0.62144 0.54882 0.0
H79 H 0.46947 0.60358 0.58863 0.0
Sm80 Sm 0.91585 0.38721 0.99314 0.0
Sm81 Sm 0.91071 0.42838 0.97826 0.0
C82 C 0.92993 0.35317 1.00237 0.0
C83 C 0.93929 0.34454 1.03038 0.0
C84 C 0.93718 0.35088 1.06378 0.0
C85 C 0.94632 0.34278 0.09035 0.0
C86 C 0.95786 0.32835 0.0839 0.0
C87 C 0.96001 0.32211 1.05033 0.0
C88 C 0.95069 0.33011 1.02374 0.0
C89 C 0.8664 0.37002 0.97384 0.0
C90 C 0.90679 0.41572 1.06194 0.0
C91 C 0.88752 0.45447 0.96928 0.0
C92 C 0.86653 0.44982 0.94688 0.0
C93 C 0.85101 0.42551 0.93392 0.0
C94 C 0.83069 0.42043 0.91312 0.0
C95 C 0.8256 0.43964 0.90448 0.0
C96 C 0.84114 0.46404 0.91753 0.0
C97 C 0.86144 0.46906 0.9388 0.0
C98 C 0.95825 0.44184 1.00372 0.0
C99 C 0.93638 0.41608 0.9149 0.0
O100 O 0.94506 0.37593 0.99173 0.0
O101 O 0.90675 0.34825 1.00481 0.0
O102 O 0.88567 0.38718 0.95862 0.0
O103 O 0.87338 0.36379 1.00129 0.0
O104 O 0.91374 0.39916 1.05158 0.0
O105 O 0.90288 0.42831 1.03755 0.0
O106 O 0.8816 0.43762 0.99285 0.0
O107 O 0.90882 0.46039 0.95464 0.0
O108 O 0.93745 0.42504 1.01355 0.0
O109 O 0.95471 0.455 0.98083 0.0
O110 O 0.9254 0.42904 0.92372 0.0
O111 O 0.93589 0.39955 0.9376 0.0
H112 H 0.92862 0.36223 1.06927 0.0
H113 H 0.94486 0.34829 0.11591 0.0
H114 H 0.96879 0.311 1.04469 0.0
H115 H 0.95248 0.32513 0.998 0.0
H116 H 0.85472 0.41041 0.93974 0.0
H117 H 0.81952 0.40162 0.90279 0.0
H118 H 0.83771 0.4792 0.91104 0.0
H119 H 0.87321 0.48791 0.94871 0.0
Sm120 Sm 0.53215 0.91675 0.32276 0.0
Sm121 Sm 0.48316 0.90587 0.30819 0.0
C122 C 0.57802 0.92897 0.34388 0.0
C123 C 0.5926 0.93352 0.3753 0.0
C124 C 0.59295 0.94989 0.40041 0.0
C125 C 0.60591 0.95296 0.43063 0.0
C126 C 0.61905 0.94001 0.4361 0.0
C127 C 0.61943 0.92426 0.41061 0.0
C128 C 0.60614 0.92093 0.38046 0.0
C129 C 0.50662 0.87093 0.28854 0.0
C130 C 0.49168 0.90558 0.39006 0.0
C131 C 0.43645 0.88243 0.28475 0.0
C132 C 0.42405 0.86106 0.26136 0.0
C133 C 0.43829 0.85171 0.24609 0.0
C134 C 0.42669 0.83028 0.22573 0.0
C135 C 0.40057 0.8177 0.22024 0.0
C136 C 0.38631 0.8271 0.23575 0.0
C137 C 0.398 0.84861 0.25634 0.0
C138 C 0.512 0.95407 0.33443 0.0
C139 C 0.52421 0.93548 0.24591 0.0
O140 O 0.57157 0.94551 0.33523 0.0
O141 O 0.56017 0.90589 0.33851 0.0
O142 O 0.49763 0.87757 0.31302 0.0
O143 O 0.52807 0.8897 0.27994 0.0
O144 O 0.51455 0.91071 0.37973 0.0
O145 O 0.47492 0.90169 0.36629 0.0
O146 O 0.4431 0.87692 0.31337 0.0
O147 O 0.45415 0.90346 0.27199 0.0
O148 O 0.519 0.94364 0.31334 0.0
O149 O 0.48825 0.93973 0.34057 0.0
O150 O 0.50007 0.92138 0.25382 0.0
O151 O 0.5411 0.93822 0.2695 0.0
H152 H 0.58324 0.96031 0.3969 0.0
H153 H 0.60576 0.96559 0.44973 0.0
H154 H 0.6295 0.91414 0.41432 0.0
H155 H 0.60624 0.90834 0.36126 0.0
H156 H 0.45842 0.86097 0.25007 0.0
H157 H 0.43835 0.82395 0.21359 0.0
H158 H 0.36616 0.81781 0.23202 0.0
H159 H 0.38673 0.85541 0.26846 0.0
Sm160 Sm 0.61755 0.53253 0.65962 0.0
Sm161 Sm 0.5799 0.48399 0.64539 0.0
C162 C 0.65102 0.57817 0.68193 0.0
C163 C 0.66045 0.59174 0.71425 0.0
C164 C 0.64413 0.59288 0.738 0.0
C165 C 0.65327 0.60445 0.76929 0.0
C166 C 0.67892 0.61541 0.77727 0.0
C167 C 0.69542 0.61512 0.75309 0.0
C168 C 0.6862 0.60326 0.72185 0.0
C169 C 0.63795 0.50719 0.62542 0.0
C170 C 0.5893 0.49207 0.72716 0.0
C171 C 0.55638 0.43724 0.62153 0.0
C172 C 0.56691 0.42215 0.60823 0.0
C173 C 0.59245 0.43031 0.6135 0.0
C174 C 0.60362 0.41814 0.59745 0.0
C175 C 0.58941 0.39762 0.57575 0.0
C176 C 0.56346 0.38854 0.57218 0.0
C177 C 0.55229 0.40081 0.58826 0.0
C178 C 0.56019 0.51268 0.67099 0.0
C179 C 0.59042 0.52503 0.58287 0.0
O180 O 0.6282 0.57191 0.67265 0.0
O181 O 0.65635 0.56046 0.67588 0.0
O182 O 0.62255 0.49805 0.65005 0.0
O183 O 0.64027 0.52855 0.61681 0.0
O184 O 0.60607 0.51528 0.71674 0.0
O185 O 0.57735 0.47501 0.70332 0.0
O186 O 0.56044 0.44273 0.65359 0.0
O187 O 0.5606 0.45665 0.60336 0.0
O188 O 0.57762 0.5198 0.65012 0.0
O189 O 0.55082 0.48889 0.67684 0.0
O190 O 0.57927 0.5009 0.59156 0.0
O191 O 0.60562 0.5419 0.60588 0.0
H192 H 0.62432 0.58474 0.73263 0.0
H193 H 0.64025 0.60488 0.7873 0.0
H194 H 0.71527 0.62346 0.75869 0.0
H195 H 0.69914 0.60275 0.70378 0.0
H196 H 0.60399 0.44676 0.62896 0.0
H197 H 0.62361 0.42551 0.60071 0.0
H198 H 0.55212 0.37302 0.55519 0.0
H199 H 0.53257 0.39432 0.58392 0.0
Sm200 Sm 0.09069 0.62257 0.99033 0.0
Sm201 Sm 0.10247 0.58505 0.97551 0.0
C202 C 0.07731 0.65568 1.00972 0.0
C203 C 0.07198 0.66594 1.03992 0.0
C204 C 0.08203 0.66525 1.07151 0.0
C205 C 0.07717 0.67576 0.0998 0.0
C206 C 0.06202 0.68688 0.09687 0.0
C207 C 0.05197 0.68745 1.06516 0.0
C208 C 0.057 0.67711 1.03685 0.0
C209 C 0.13673 0.64388 0.9572 0.0
C210 C 0.10215 0.59335 1.05761 0.0
C211 C 0.12649 0.56262 0.95183 0.0
C212 C 0.14558 0.57039 0.92506 0.0
C213 C 0.17085 0.57934 0.934 0.0
C214 C 0.18994 0.59209 0.91044 0.0
C215 C 0.18403 0.59594 0.8775 0.0
C216 C 0.15863 0.58521 0.86792 0.0
C217 C 0.13961 0.57268 0.89146 0.0
C218 C 0.05432 0.56535 1.00107 0.0
C219 C 0.07276 0.59635 0.91305 0.0
O220 O 0.06116 0.63244 1.00167 0.0
O221 O 0.10054 0.66116 1.00572 0.0
O222 O 0.13012 0.62787 0.98115 0.0
O223 O 0.11779 0.64638 0.94856 0.0
O224 O 0.09643 0.61077 1.04738 0.0
O225 O 0.10673 0.58102 1.03378 0.0
O226 O 0.13387 0.57722 0.97851 0.0
O227 O 0.1035 0.55605 0.94259 0.0
O228 O 0.0645 0.58261 0.9799 0.0
O229 O 0.06897 0.5563 1.0078 0.0
O230 O 0.08831 0.58781 0.92043 0.0
O231 O 0.06856 0.60895 0.93739 0.0
H232 H 0.09354 0.65655 1.07428 0.0
H233 H 0.08475 0.67467 0.1241 0.0
H234 H 0.04026 0.69591 1.06228 0.0
H235 H 0.04919 0.67783 1.01254 0.0
H236 H 0.17594 0.57777 0.95977 0.0
H237 H 0.20931 0.60001 0.9185 0.0
H238 H 0.15345 0.58719 0.84238 0.0
H239 H 0.12036 0.56589 0.88362 0.0
Sm240 Sm 0.91545 0.53443 0.49942 0.0
Sm241 Sm 0.90522 0.48582 0.51303 0.0
C242 C 0.92727 0.58061 0.48096 0.0
C243 C 0.93763 0.59847 0.45315 0.0
C244 C 0.93683 0.59032 0.4198 0.0
C245 C 0.94718 0.6079 0.39386 0.0
C246 C 0.95857 0.63382 0.40103 0.0
C247 C 0.95927 0.64181 0.4345 0.0
C248 C 0.94881 0.62423 0.46036 0.0
C249 C 0.87005 0.50898 0.53399 0.0
C250 C 0.90537 0.49456 0.43112 0.0
C251 C 0.88297 0.43914 0.53585 0.0
C252 C 0.86196 0.42692 0.55939 0.0
C253 C 0.85038 0.44029 0.57072 0.0
C254 C 0.82986 0.42903 0.59222 0.0
C255 C 0.82054 0.40414 0.60301 0.0
C256 C 0.83208 0.39066 0.59137 0.0
C257 C 0.85264 0.40198 0.56951 0.0
C258 C 0.95351 0.51573 0.48803 0.0
C259 C 0.93437 0.52666 0.57609 0.0
O260 O 0.94279 0.57537 0.49659 0.0
O261 O 0.90509 0.56093 0.47631 0.0
O262 O 0.87638 0.49975 0.5094 0.0
O263 O 0.88878 0.53069 0.54208 0.0
O264 O 0.91157 0.51775 0.44189 0.0
O265 O 0.9003 0.47745 0.45467 0.0
O266 O 0.87704 0.44544 0.50726 0.0
O267 O 0.90401 0.45713 0.54857 0.0
O268 O 0.94268 0.52202 0.50921 0.0
O269 O 0.93951 0.49202 0.4808 0.0
O270 O 0.91934 0.50252 0.56833 0.0
O271 O 0.938 0.54341 0.55208 0.0
H272 H 0.92841 0.57047 0.4139 0.0
H273 H 0.94678 0.60127 0.36833 0.0
H274 H 0.96785 0.66164 0.44065 0.0
H275 H 0.94955 0.63074 0.48607 0.0
H276 H 0.85735 0.45957 0.56303 0.0
H277 H 0.82185 0.44017 0.60129 0.0
H278 H 0.82531 0.37147 0.59934 0.0
H279 H 0.86126 0.39135 0.56066 0.0
Sm280 Sm 0.38432 0.9167 0.82549 0.0
Sm281 Sm 0.42513 0.91108 0.84119 0.0
C282 C 0.3504 0.93071 0.81447 0.0
C283 C 0.34185 0.93889 0.78509 0.0
C284 C 0.35431 0.943 0.75421 0.0
C285 C 0.34578 0.95007 0.72591 0.0
C286 C 0.32448 0.95295 0.72792 0.0
C287 C 0.31212 0.94893 0.75907 0.0
C288 C 0.32076 0.9419 0.78747 0.0
C289 C 0.36673 0.86753 0.84622 0.0
C290 C 0.41224 0.90621 0.7574 0.0
C291 C 0.44997 0.88698 0.85227 0.0
C292 C 0.44646 0.86887 0.87883 0.0
C293 C 0.44682 0.84678 0.87058 0.0
C294 C 0.43738 0.82665 0.89325 0.0
C295 C 0.42723 0.82838 0.92423 0.0
C296 C 0.42835 0.85112 0.93314 0.0
C297 C 0.43775 0.87111 0.91063 0.0
C298 C 0.43936 0.95841 0.81464 0.0
C299 C 0.41334 0.93783 0.9039 0.0
O300 O 0.37326 0.94611 0.82495 0.0
O301 O 0.34527 0.90738 0.81356 0.0
O302 O 0.38416 0.88713 0.861 0.0
O303 O 0.36051 0.87395 0.81828 0.0
O304 O 0.39584 0.91341 0.76741 0.0
O305 O 0.42486 0.9025 0.78202 0.0
O306 O 0.43088 0.87881 0.83144 0.0
O307 O 0.45856 0.9104 0.86173 0.0
O308 O 0.42205 0.93755 0.80515 0.0
O309 O 0.45221 0.95492 0.83815 0.0
O310 O 0.42586 0.92632 0.89555 0.0
O311 O 0.39709 0.93759 0.88079 0.0
H312 H 0.37058 0.94066 0.75198 0.0
H313 H 0.35605 0.95352 0.70251 0.0
H314 H 0.29561 0.95086 0.76135 0.0
H315 H 0.31088 0.93862 0.81119 0.0
H316 H 0.45307 0.84456 0.84589 0.0
H317 H 0.43679 0.80935 0.88585 0.0
H318 H 0.42118 0.85317 0.9572 0.0
H319 H 0.43691 0.8878 0.91742 0.0
Sm320 Sm 0.46984 0.38639 0.1633 0.0
Sm321 Sm 0.51874 0.4241 0.17811 0.0
C322 C 0.42444 0.35351 0.13972 0.0
C323 C 0.41275 0.34361 0.10639 0.0
C324 C 0.41283 0.35963 0.08106 0.0
C325 C 0.40447 0.35042 1.0485 0.0
C326 C 0.39544 0.32496 1.04081 0.0
C327 C 0.39395 0.30859 1.06652 0.0
C328 C 0.40267 0.3179 0.09907 0.0
C329 C 0.49472 0.36559 0.19756 0.0
C330 C 0.5108 0.41493 0.09613 0.0
C331 C 0.56518 0.44739 0.20229 0.0
C332 C 0.57748 0.44079 0.22936 0.0
C333 C 0.59375 0.43175 0.22075 0.0
C334 C 0.60159 0.42068 0.24516 0.0
C335 C 0.59345 0.41866 0.27869 0.0
C336 C 0.57879 0.4295 0.28774 0.0
C337 C 0.57077 0.44034 0.26333 0.0
C338 C 0.49044 0.44363 0.15098 0.0
C339 C 0.47762 0.41263 0.24059 0.0
O340 O 0.43139 0.3769 0.14689 0.0
O341 O 0.44093 0.34735 0.14944 0.0
O342 O 0.50401 0.38123 0.17318 0.0
O343 O 0.47328 0.36311 0.20593 0.0
O344 O 0.48793 0.39722 0.10647 0.0
O345 O 0.52743 0.42801 0.12001 0.0
O346 O 0.5581 0.43238 0.17604 0.0
O347 O 0.54838 0.45346 0.2112 0.0
O348 O 0.48315 0.42653 0.17256 0.0
O349 O 0.51405 0.45238 0.14459 0.0
O350 O 0.50175 0.42236 0.2327 0.0
O351 O 0.46071 0.39885 0.21674 0.0
H352 H 0.41977 0.37934 0.08606 0.0
H353 H 0.40532 0.36329 1.02916 0.0
H354 H 0.38698 0.28887 1.06113 0.0
H355 H 0.40221 0.30515 0.11831 0.0
H356 H 0.59933 0.43202 0.19474 0.0
H357 H 0.61294 0.4126 0.2374 0.0
H358 H 0.57284 0.42894 0.31362 0.0
H359 H 0.55846 0.44734 0.27092 0.0
Sm360 Sm 0.08685 0.47147 0.49221 0.0
Sm361 Sm 0.09456 0.51891 0.50777 0.0
C362 C 0.07114 0.42305 0.48179 0.0
C363 C 0.06637 0.40641 0.45268 0.0
C364 C 0.07795 0.41624 0.4216 0.0
C365 C 0.07281 0.40034 0.39377 0.0
C366 C 0.05583 0.37439 0.39652 0.0
C367 C 0.04447 0.3646 0.42783 0.0
C368 C 0.04978 0.38053 0.45575 0.0
C369 C 0.13687 0.50185 0.50991 0.0
C370 C 0.09849 0.50992 0.42402 0.0
C371 C 0.11958 0.56814 0.51743 0.0
C372 C 0.1387 0.58385 0.54264 0.0
C373 C 0.16102 0.60504 0.53212 0.0
C374 C 0.18168 0.6168 0.5541 0.0
C375 C 0.18025 0.60737 0.58682 0.0
C376 C 0.15733 0.58711 0.59784 0.0
C377 C 0.13683 0.57535 0.57592 0.0
C378 C 0.04671 0.48675 0.48122 0.0
C379 C 0.06758 0.48097 0.5707 0.0
O380 O 0.05591 0.43195 0.48533 0.0
O381 O 0.09454 0.43996 0.48736 0.0
O382 O 0.11842 0.50114 0.526 0.0
O383 O 0.12872 0.48865 0.48239 0.0
O384 O 0.09091 0.48622 0.43399 0.0
O385 O 0.10253 0.52645 0.44859 0.0
O386 O 0.12691 0.55645 0.49678 0.0
O387 O 0.09658 0.55375 0.52815 0.0
O388 O 0.06726 0.48973 0.47187 0.0
O389 O 0.05083 0.50331 0.50475 0.0
O390 O 0.07997 0.50502 0.56245 0.0
O391 O 0.06669 0.46451 0.54743 0.0
H392 H 0.09068 0.43625 0.41875 0.0
H393 H 0.08146 0.40847 0.3698 0.0
H394 H 0.03134 0.34469 0.43061 0.0
H395 H 0.0407 0.3727 0.47963 0.0
H396 H 0.16291 0.61163 0.50634 0.0
H397 H 0.19906 0.6324 0.54497 0.0
H398 H 0.15544 0.57983 0.62322 0.0
H399 H 0.11995 0.55886 0.58456 0.0
Sm400 Sm 0.62042 0.0913 0.83226 0.0
Sm401 Sm 0.5823 0.10213 0.84569 0.0
C402 C 0.65446 0.079 0.81394 0.0
C403 C 0.66277 0.06941 0.78595 0.0
C404 C 0.65333 0.06758 0.75316 0.0
C405 C 0.6611 0.05765 0.72713 0.0
C406 C 0.67844 0.04947 0.73358 0.0
C407 C 0.68804 0.05169 0.76648 0.0
C408 C 0.68024 0.06159 0.79246 0.0
C409 C 0.64067 0.13726 0.86631 0.0
C410 C 0.59053 0.10133 0.76396 0.0
C411 C 0.55963 0.12603 0.86907 0.0
C412 C 0.56966 0.14692 0.89335 0.0
C413 C 0.59234 0.15355 0.90994 0.0
C414 C 0.60378 0.17479 0.93061 0.0
C415 C 0.5928 0.18994 0.93511 0.0
C416 C 0.56996 0.18321 0.9185 0.0
C417 C 0.55853 0.16187 0.89753 0.0
C418 C 0.56339 0.05378 0.82013 0.0
C419 C 0.59357 0.07283 0.90887 0.0
O420 O 0.63304 0.06322 0.82761 0.0
O421 O 0.6576 0.10154 0.81073 0.0
O422 O 0.62505 0.13054 0.84167 0.0
O423 O 0.64352 0.11857 0.87493 0.0
O424 O 0.60769 0.09537 0.77473 0.0
O425 O 0.57835 0.10628 0.78746 0.0
O426 O 0.57181 0.13166 0.8406 0.0
O427 O 0.55527 0.10433 0.8809 0.0
O428 O 0.58065 0.06444 0.84144 0.0
O429 O 0.55379 0.06793 0.81328 0.0
O430 O 0.58347 0.08684 0.90043 0.0
O431 O 0.60784 0.07009 0.88569 0.0
H432 H 0.63981 0.07356 0.74778 0.0
H433 H 0.65304 0.0558 0.70215 0.0
H434 H 0.70154 0.04574 0.77214 0.0
H435 H 0.68772 0.06299 0.81773 0.0
H436 H 0.60137 0.14238 0.90662 0.0
H437 H 0.62101 0.17903 0.94362 0.0
H438 H 0.56107 0.19452 0.92153 0.0
H439 H 0.54124 0.15723 0.88435 0.0
Sm440 Sm 0.53125 0.62036 0.16324 0.0
Sm441 Sm 0.48468 0.57926 0.17832 0.0
C442 C 0.57941 0.65425 0.15527 0.0
C443 C 0.5986 0.66184 0.12917 0.0
C444 C 0.59174 0.65425 0.09553 0.0
C445 C 0.61019 0.66123 1.07092 0.0
C446 C 0.63578 0.67579 0.07963 0.0
C447 C 0.64255 0.68331 0.11343 0.0
C448 C 0.62404 0.67642 0.13804 0.0
C449 C 0.4992 0.63778 0.18249 0.0
C450 C 0.49363 0.59116 0.09464 0.0
C451 C 0.43572 0.55446 0.18843 0.0
C452 C 0.4216 0.56038 0.21294 0.0
C453 C 0.43469 0.5823 0.23252 0.0
C454 C 0.42182 0.58997 0.2538 0.0
C455 C 0.39554 0.57578 0.25618 0.0
C456 C 0.38239 0.55348 0.23704 0.0
C457 C 0.39538 0.54593 0.21522 0.0
C458 C 0.51876 0.56552 0.15434 0.0
C459 C 0.52285 0.59146 0.24134 0.0
O460 O 0.57167 0.63214 0.1685 0.0
O461 O 0.5611 0.65864 0.14894 0.0
O462 O 0.50138 0.62058 0.19768 0.0
O463 O 0.51236 0.64406 0.15517 0.0
O464 O 0.51717 0.60763 0.10499 0.0
O465 O 0.47708 0.5789 0.11894 0.0
O466 O 0.4465 0.57164 0.16522 0.0
O467 O 0.45075 0.54714 0.20108 0.0
O468 O 0.51479 0.58228 0.14386 0.0
O469 O 0.50179 0.5523 0.17675 0.0
O470 O 0.49887 0.57895 0.2328 0.0
O471 O 0.5389 0.60767 0.21856 0.0
H472 H 0.57215 0.64275 0.08837 0.0
H473 H 0.60443 0.65471 1.04519 0.0
H474 H 0.66212 0.69452 0.12079 0.0
H475 H 0.62956 0.68234 0.16401 0.0
H476 H 0.45495 0.59372 0.23098 0.0
H477 H 0.43255 0.60686 0.26887 0.0
H478 H 0.36215 0.54212 0.23868 0.0
H479 H 0.38502 0.52907 0.19999 0.0
C480 C 0.51707 0.18753 0.31454 0.0
C481 C 0.51018 0.16671 0.29302 0.0
C482 C 0.51882 0.21002 0.30276 0.0
C483 C 0.51734 0.24529 0.22384 0.0
H484 H 0.50183 0.28196 0.29016 0.0
C485 C 0.51854 0.34081 0.19112 0.0
C486 C 0.50109 0.34556 0.20797 0.0
C487 C 0.52173 0.32012 0.20033 0.0
C488 C 0.50597 0.27206 0.27086 0.0
H489 H 0.50018 0.154 0.24126 0.0
H490 H 0.50269 0.19296 0.22061 0.0
H491 H 0.50252 0.24452 0.30668 0.0
H492 H 0.47367 0.33179 0.24819 0.0
H493 H 0.47875 0.29651 0.26346 0.0
H494 H 0.51968 0.27264 0.1877 0.0
C495 C 0.50729 0.19216 0.24684 0.0
C496 C 0.50686 0.25041 0.28066 0.0
C497 C 0.50589 0.16961 0.25867 0.0
C498 C 0.48742 0.32915 0.23451 0.0
C499 C 0.49053 0.30869 0.24358 0.0
C500 C 0.51629 0.26701 0.21392 0.0
C501 C 0.51319 0.21274 0.26887 0.0
C502 C 0.51257 0.23638 0.25753 0.0
C503 C 0.50768 0.30349 0.2268 0.0
C504 C 0.51034 0.28082 0.23719 0.0
H505 H 0.52059 0.18622 0.34112 0.0
H506 H 0.52434 0.22522 0.32076 0.0
H507 H 0.52206 0.23558 0.20492 0.0
H508 H 0.52938 0.35276 0.17043 0.0
H509 H 0.53534 0.31726 0.18669 0.0
C510 C 0.31855 0.49803 0.64706 0.0
C511 C 0.341 0.50609 0.62888 0.0
C512 C 0.29864 0.50082 0.63444 0.0
C513 C 0.27356 0.51561 0.55465 0.0
H514 H 0.22421 0.51318 0.61746 0.0
C515 C 0.17713 0.50045 0.50533 0.0
C516 C 0.16203 0.5072 0.52451 0.0
C517 C 0.1997 0.50297 0.51807 0.0
C518 C 0.23773 0.5142 0.59921 0.0
H519 H 0.35978 0.52441 0.58264 0.0
H520 H 0.3255 0.53035 0.56096 0.0
H521 H 0.26169 0.51422 0.63863 0.0
H522 H 0.16013 0.52285 0.57274 0.0
H523 H 0.20007 0.52833 0.59473 0.0
H524 H 0.25032 0.5171 0.51531 0.0
C525 C 0.32292 0.52099 0.58495 0.0
C526 C 0.25945 0.5143 0.61152 0.0
C527 C 0.34292 0.51781 0.59754 0.0
C528 C 0.17097 0.51732 0.55703 0.0
C529 C 0.194 0.52022 0.56977 0.0
C530 C 0.25203 0.51592 0.54235 0.0
C531 C 0.30012 0.51233 0.60306 0.0
C532 C 0.27771 0.51442 0.58958 0.0
C533 C 0.20887 0.51287 0.55063 0.0
C534 C 0.2332 0.51465 0.56425 0.0
H535 H 0.31592 0.48883 0.67123 0.0
H536 H 0.28174 0.49314 0.64936 0.0
H537 H 0.28666 0.51574 0.53637 0.0
H538 H 0.17121 0.49247 0.48024 0.0
H539 H 0.20953 0.49635 0.50225 0.0
C540 C 0.83806 0.34345 0.92432 0.0
C541 C 0.84116 0.35157 0.95832 0.0
C542 C 0.81525 0.32237 0.91277 0.0
C543 C 0.75635 0.26561 0.94762 0.0
H544 H 0.73422 0.25397 0.85419 0.0
C545 C 0.67668 0.16695 0.90387 0.0
C546 C 0.66054 0.16381 0.87651 0.0
C547 C 0.69724 0.19057 0.91259 0.0
C548 C 0.73982 0.25686 0.88054 0.0
H549 H 0.82182 0.34423 1.00604 0.0
H550 H 0.78238 0.30921 0.98606 0.0
H551 H 0.77174 0.2934 0.8706 0.0
H552 H 0.65382 0.18423 0.83722 0.0
H553 H 0.6895 0.22583 0.85286 0.0
H554 H 0.72432 0.22972 0.958 0.0
C555 C 0.79759 0.31806 0.96818 0.0
C556 C 0.76181 0.27961 0.89001 0.0
C557 C 0.82033 0.33869 0.97971 0.0
C558 C 0.66557 0.18567 0.85856 0.0
C559 C 0.68637 0.20962 0.86741 0.0
C560 C 0.73445 0.24311 0.93826 0.0
C561 C 0.79463 0.30874 0.93473 0.0
C562 C 0.77069 0.28452 0.92386 0.0
C563 C 0.70281 0.21258 0.89461 0.0
C564 C 0.72572 0.23792 0.90445 0.0
H565 H 0.85369 0.3525 0.90707 0.0
H566 H 0.81428 0.31619 0.88688 0.0
H567 H 0.7622 0.26776 0.97383 0.0
H568 H 0.67378 0.15079 0.91842 0.0
H569 H 0.70925 0.19127 0.93315 0.0
C570 C 0.49728 0.66416 0.23199 0.0
C571 C 0.49236 0.65618 0.19792 0.0
C572 C 0.49558 0.68527 0.24346 0.0
C573 C 0.49411 0.74244 0.20829 0.0
H574 H 0.48293 0.75389 0.3013 0.0
C575 C 0.5134 0.84123 0.25177 0.0
C576 C 0.5001 0.84439 0.27852 0.0
C577 C 0.51033 0.81756 0.24325 0.0
C578 C 0.48584 0.75105 0.27506 0.0
H579 H 0.4805 0.66372 0.15 0.0
H580 H 0.47615 0.69882 0.16983 0.0
H581 H 0.48084 0.7143 0.28512 0.0
H582 H 0.47244 0.82398 0.31697 0.0
H583 H 0.46652 0.78231 0.30168 0.0
H584 H 0.49838 0.77854 0.19776 0.0
C585 C 0.48242 0.68985 0.18782 0.0
C586 C 0.48496 0.72821 0.26574 0.0
C587 C 0.48448 0.66918 0.17638 0.0
C588 C 0.48299 0.82252 0.2961 0.0
C589 C 0.47983 0.79853 0.28746 0.0
C590 C 0.49483 0.76502 0.21749 0.0
C591 C 0.48874 0.69907 0.22133 0.0
C592 C 0.48916 0.72336 0.23206 0.0
C593 C 0.49357 0.79554 0.26084 0.0
C594 C 0.49104 0.77013 0.25115 0.0
H595 H 0.50378 0.65499 0.24936 0.0
H596 H 0.50072 0.69138 0.26941 0.0
H597 H 0.49799 0.74032 0.18222 0.0
H598 H 0.52687 0.85739 0.23753 0.0
H599 H 0.52184 0.81683 0.22316 0.0
C600 C 0.67452 0.51502 0.58863 0.0
C601 C 0.65795 0.50087 0.6148 0.0
C602 C 0.69532 0.51245 0.57995 0.0
C603 C 0.7253 0.47222 0.58493 0.0
H604 H 0.78648 0.53566 0.57088 0.0
C605 C 0.82134 0.48347 0.52945 0.0
C606 C 0.84372 0.50242 0.54467 0.0
C607 C 0.7975 0.48032 0.5385 0.0
C608 C 0.7697 0.51765 0.57471 0.0
H609 H 0.6504 0.47177 0.65133 0.0
H610 H 0.68664 0.46682 0.6356 0.0
H611 H 0.74798 0.53535 0.5858 0.0
H612 H 0.85764 0.53197 0.58273 0.0
H613 H 0.81712 0.52676 0.59775 0.0
H614 H 0.74744 0.45464 0.57344 0.0
C615 C 0.68342 0.48023 0.62196 0.0
C616 C 0.74733 0.51746 0.58313 0.0
C617 C 0.66252 0.48304 0.63103 0.0
C618 C 0.84117 0.51733 0.5699 0.0
C619 C 0.81768 0.51442 0.57855 0.0
C620 C 0.74778 0.47239 0.57589 0.0
C621 C 0.70062 0.4954 0.59673 0.0
C622 C 0.7246 0.49482 0.5885 0.0
C623 C 0.79532 0.49624 0.5627 0.0
C624 C 0.77053 0.49519 0.57084 0.0
H625 H 0.67181 0.52879 0.57507 0.0
H626 H 0.7075 0.52417 0.55998 0.0
H627 H 0.70834 0.45432 0.58857 0.0
H628 H 0.82228 0.47151 0.51 0.0
H629 H 0.78086 0.46601 0.52563 0.0
C630 C 0.33285 0.82185 0.8417 0.0
C631 C 0.34822 0.84278 0.86252 0.0
C632 C 0.31271 0.79957 0.85487 0.0
C633 C 0.26762 0.77569 0.92712 0.0
H634 H 0.24837 0.70987 0.88993 0.0
C635 C 0.1668 0.68962 0.94436 0.0
C636 C 0.16315 0.66535 0.95053 0.0
C637 C 0.19056 0.71015 0.93657 0.0
C638 C 0.25344 0.728 0.9009 0.0
H639 H 0.35401 0.85593 0.91436 0.0
H640 H 0.31873 0.81717 0.93747 0.0
H641 H 0.28734 0.7469 0.87163 0.0
H642 H 0.18261 0.64415 0.95256 0.0
H643 H 0.22427 0.68002 0.93803 0.0
H644 H 0.23349 0.75695 0.9558 0.0
C645 C 0.3224 0.81801 0.91063 0.0
C646 C 0.27587 0.74947 0.89012 0.0
C647 C 0.34295 0.84029 0.89743 0.0
C648 C 0.1845 0.66246 0.94838 0.0
C649 C 0.20844 0.6831 0.93978 0.0
C650 C 0.24504 0.75433 0.93747 0.0
C651 C 0.30663 0.79726 0.88951 0.0
C652 C 0.28338 0.77386 0.90279 0.0
C653 C 0.21195 0.70746 0.93386 0.0
C654 C 0.23729 0.73002 0.92439 0.0
H655 H 0.336 0.82295 0.81468 0.0
H656 H 0.3012 0.78446 0.83744 0.0
H657 H 0.2723 0.79388 0.93751 0.0
H658 H 0.15106 0.69291 0.94559 0.0
H659 H 0.192 0.7282 0.93186 0.0
C660 C 0.58938 0.21419 0.98371 0.0
C661 C 0.60434 0.21124 0.95948 0.0
C662 C 0.60045 0.22941 1.0121 0.0
C663 C 0.62802 0.26133 1.07319 0.0
H664 H 0.66295 0.22847 0.10921 0.0
C665 C 0.64512 0.21716 0.20386 0.0
C666 C 0.62024 0.20678 0.215 0.0
C667 C 0.6532 0.23255 0.17528 0.0
C668 C 0.65406 0.2387 0.09985 0.0
H669 H 0.64265 0.22478 0.94326 0.0
H670 H 0.66195 0.25095 0.99331 0.0
H671 H 0.65893 0.23071 1.0489 0.0
H672 H 0.58481 0.20565 0.20618 0.0
H673 H 0.59844 0.23156 0.15649 0.0
H674 H 0.62192 0.26799 0.12446 0.0
C675 C 0.6417 0.24129 0.99056 0.0
C676 C 0.65172 0.23997 1.06496 0.0
C677 C 0.63063 0.22617 0.96208 0.0
C678 C 0.60419 0.21353 0.19853 0.0
C679 C 0.61215 0.22865 0.16994 0.0
C680 C 0.63068 0.2604 0.10819 0.0
C681 C 0.62665 0.24183 1.01679 0.0
C682 C 0.63709 0.2496 1.0514 0.0
C683 C 0.63642 0.23751 0.15706 0.0
C684 C 0.64199 0.24726 0.12189 0.0
H685 H 0.5691 0.20298 0.98245 0.0
H686 H 0.5883 0.22928 1.03195 0.0
H687 H 0.61707 0.26932 1.06334 0.0
H688 H 0.65803 0.21263 0.21646 0.0
H689 H 0.67217 0.23944 0.16647 0.0
C690 C 0.39 0.60932 0.28393 0.0
C691 C 0.38271 0.58373 0.28074 0.0
C692 C 0.38387 0.61814 0.31284 0.0
C693 C 0.35108 0.59947 0.39561 0.0
H694 H 0.41779 0.64437 0.43112 0.0
C695 C 0.38068 0.58878 0.52641 0.0
C696 C 0.40252 0.60811 0.54169 0.0
C697 C 0.37177 0.5929 0.49608 0.0
C698 C 0.3988 0.63256 0.42188 0.0
H699 H 0.36067 0.54688 0.30302 0.0
H700 H 0.35001 0.56223 0.35359 0.0
H701 H 0.41153 0.63809 0.37096 0.0
H702 H 0.43072 0.64755 0.53911 0.0
H703 H 0.41471 0.6551 0.48638 0.0
H704 H 0.33858 0.59317 0.44687 0.0
C705 C 0.36038 0.57552 0.33381 0.0
C706 C 0.39521 0.6289 0.38708 0.0
C707 C 0.36655 0.56669 0.30486 0.0
C708 C 0.41407 0.63223 0.52751 0.0
C709 C 0.40489 0.63649 0.4973 0.0
C710 C 0.35458 0.60348 0.43052 0.0
C711 C 0.37034 0.6015 0.33899 0.0
C712 C 0.37167 0.61116 0.37375 0.0
C713 C 0.38435 0.61654 0.48033 0.0
C714 C 0.37883 0.61874 0.44418 0.0
H715 H 0.40206 0.62277 0.26526 0.0
H716 H 0.39146 0.63821 0.31599 0.0
H717 H 0.33265 0.58598 0.38591 0.0
H718 H 0.37148 0.56989 0.53653 0.0
H719 H 0.35618 0.57688 0.48381 0.0
C720 C 0.78296 0.41163 0.87931 0.0
C721 C 0.80594 0.4344 0.87882 0.0
C722 C 0.76754 0.40336 0.8506 0.0
C723 C 0.75947 0.38138 0.7805 0.0
H724 H 0.76571 0.42578 0.70722 0.0
C725 C 0.80399 0.38221 0.65783 0.0
C726 C 0.80078 0.39374 0.62919 0.0
C727 C 0.78947 0.37849 0.68652 0.0
C728 C 0.76296 0.41267 0.72723 0.0
H729 H 0.8294 0.46768 0.84943 0.0
H730 H 0.803 0.45331 0.79944 0.0
H731 H 0.76646 0.43917 0.76516 0.0
H732 H 0.77758 0.40722 0.60634 0.0
H733 H 0.75212 0.40068 0.65659 0.0
H734 H 0.75709 0.35534 0.74257 0.0
C735 C 0.79648 0.44177 0.82185 0.0
C736 C 0.7637 0.42053 0.76058 0.0
C737 C 0.81179 0.45007 0.85059 0.0
C738 C 0.78085 0.39882 0.62843 0.0
C739 C 0.76625 0.39505 0.65716 0.0
C740 C 0.75842 0.37339 0.74715 0.0
C741 C 0.77496 0.41765 0.82083 0.0
C742 C 0.76407 0.40585 0.78751 0.0
C743 C 0.77138 0.38619 0.68715 0.0
C744 C 0.76226 0.38981 0.72027 0.0
H745 H 0.77776 0.39942 0.9011 0.0
H746 H 0.7508 0.38497 0.85092 0.0
H747 H 0.75943 0.36936 0.8005 0.0
H748 H 0.81923 0.37817 0.65928 0.0
H749 H 0.7942 0.37182 0.70915 0.0
C750 C 0.3917 0.80108 0.962 0.0
C751 C 0.41451 0.80651 0.94703 0.0
C752 C 0.38178 0.78384 0.98822 0.0
C753 C 0.4079 0.76513 1.05701 0.0
H754 H 0.34065 0.74148 0.09063 0.0
C755 C 0.39762 0.77903 0.19391 0.0
C756 C 0.38904 0.7964 0.19585 0.0
C757 C 0.39209 0.76345 0.16557 0.0
C758 C 0.3594 0.74744 0.08158 0.0
H759 H 0.44322 0.79592 0.94469 0.0
H760 H 0.42563 0.76526 0.99041 0.0
H761 H 0.34784 0.74369 1.02979 0.0
H762 H 0.3653 0.80871 0.17175 0.0
H763 H 0.35572 0.78173 0.12253 0.0
H764 H 0.41979 0.77044 0.10849 0.0
C765 C 0.41574 0.77487 0.98247 0.0
C766 C 0.36359 0.74886 1.04673 0.0
C767 C 0.42579 0.79234 0.95621 0.0
C768 C 0.37225 0.7956 0.17104 0.0
C769 C 0.36665 0.77997 0.14279 0.0
C770 C 0.40366 0.76337 0.09172 0.0
C771 C 0.39436 0.77145 1.00003 0.0
C772 C 0.38823 0.75983 1.03418 0.0
C773 C 0.37783 0.76494 0.13877 0.0
C774 C 0.37974 0.75648 0.10431 0.0
H775 H 0.38222 0.81124 0.95468 0.0
H776 H 0.36539 0.78198 1.00096 0.0
H777 H 0.42714 0.77352 1.04855 0.0
H778 H 0.41004 0.77873 0.21317 0.0
H779 H 0.40063 0.75176 0.16338 0.0
C780 C 0.62249 0.40584 0.3061 0.0
C781 C 0.59882 0.40409 0.30391 0.0
C782 C 0.62767 0.39348 0.33193 0.0
C783 C 0.63896 0.38626 0.40429 0.0
H784 H 0.58264 0.33548 0.4545 0.0
C785 C 0.62271 0.40653 0.53375 0.0
C786 C 0.60214 0.38876 0.55234 0.0
C787 C 0.63067 0.39923 0.50518 0.0
C788 C 0.59909 0.34924 0.44116 0.0
H789 H 0.56136 0.38609 0.325 0.0
H790 H 0.57054 0.36607 0.37062 0.0
H791 H 0.57942 0.33724 0.3941 0.0
H792 H 0.57623 0.34899 0.55886 0.0
H793 H 0.59092 0.33588 0.50983 0.0
H794 H 0.65898 0.39771 0.45114 0.0
C795 C 0.58522 0.37641 0.35243 0.0
C796 C 0.59699 0.35052 0.40619 0.0
C797 C 0.58003 0.38848 0.3266 0.0
C798 C 0.59177 0.36314 0.54439 0.0
C799 C 0.60013 0.3557 0.5161 0.0
C800 C 0.64147 0.38428 0.4391 0.0
C801 C 0.60931 0.37925 0.35615 0.0
C802 C 0.61578 0.37084 0.38808 0.0
C803 C 0.6184 0.37385 0.49458 0.0
C804 C 0.6205 0.36775 0.45848 0.0
H805 H 0.63731 0.41755 0.28873 0.0
H806 H 0.64631 0.39583 0.33359 0.0
H807 H 0.65432 0.40168 0.39118 0.0
H808 H 0.63113 0.42645 0.53921 0.0
H809 H 0.64472 0.41408 0.48982 0.0
C810 C 0.20066 0.62878 0.83291 0.0
C811 C 0.20398 0.61204 0.85336 0.0
C812 C 0.21715 0.64134 0.80669 0.0
C813 C 0.25696 0.62929 0.7497 0.0
H814 H 0.24587 0.67714 0.70007 0.0
C815 C 0.20695 0.60115 0.62877 0.0
C816 C 0.20255 0.61768 0.60942 0.0
C817 C 0.22467 0.61021 0.65473 0.0
C818 C 0.25004 0.66419 0.71312 0.0
H819 H 0.22897 0.59768 0.8651 0.0
H820 H 0.25847 0.62034 0.81977 0.0
H821 H 0.24724 0.6788 0.76089 0.0
H822 H 0.21577 0.65693 0.59877 0.0
H823 H 0.24761 0.67304 0.64345 0.0
H824 H 0.26085 0.61537 0.70197 0.0
C825 C 0.2425 0.62305 0.82313 0.0
C826 C 0.25033 0.66485 0.74839 0.0
C827 C 0.22568 0.61015 0.84929 0.0
C828 C 0.2184 0.64371 0.61382 0.0
C829 C 0.23654 0.65289 0.63967 0.0
C830 C 0.25792 0.62942 0.71444 0.0
C831 C 0.23775 0.63784 0.80035 0.0
C832 C 0.25049 0.64537 0.76687 0.0
C833 C 0.23883 0.63619 0.66188 0.0
C834 C 0.25115 0.64468 0.6958 0.0
H835 H 0.18458 0.63134 0.83619 0.0
H836 H 0.21236 0.65226 0.78997 0.0
H837 H 0.25831 0.61455 0.76276 0.0
H838 H 0.19564 0.58098 0.62509 0.0
H839 H 0.22547 0.5964 0.6708 0.0
C840 C 0.43629 0.95125 0.96252 0.0
C841 C 0.41857 0.9514 0.93937 0.0
C842 C 0.44203 0.96374 0.99479 0.0
C843 C 0.42138 0.99851 1.05968 0.0
H844 H 0.48353 0.01392 0.10445 0.0
C845 C 0.4463 0.04446 0.20086 0.0
C846 C 0.47144 0.05734 0.21326 0.0
C847 C 0.43951 0.03192 0.16835 0.0
C848 C 0.46603 0.01021 0.09288 0.0
H849 H 0.39318 0.9661 0.93498 0.0
H850 H 0.40296 0.9876 0.99022 0.0
H851 H 0.47335 0.99349 1.0495 0.0
H852 H 0.50879 0.06616 0.19816 0.0
H853 H 0.49748 0.04529 0.14328 0.0
H854 H 0.41437 0.0157 0.10307 0.0
C855 C 0.41258 0.9775 0.9836 0.0
C856 C 0.45983 0.99778 1.06049 0.0
C857 C 0.40686 0.96497 0.95109 0.0
C858 C 0.48918 0.05677 0.19079 0.0
C859 C 0.48245 0.04428 0.15852 0.0
C860 C 0.42757 0.01091 0.09222 0.0
C861 C 0.43052 0.97748 1.00676 0.0
C862 C 0.43724 0.99136 1.04246 0.0
C863 C 0.45734 0.03124 0.14587 0.0
C864 C 0.4502 0.01735 0.11017 0.0
H865 H 0.44605 0.9413 0.95569 0.0
H866 H 0.45558 0.96217 1.01058 0.0
H867 H 0.40369 0.99429 1.04824 0.0
H868 H 0.43159 0.04389 0.21643 0.0
H869 H 0.41988 0.02237 0.16118 0.0
C870 C 0.44468 0.40833 0.28653 0.0
C871 C 0.46998 0.41842 0.27595 0.0
C872 C 0.43808 0.41424 0.31882 0.0
C873 C 0.46547 0.4601 0.39646 0.0
H874 H 0.40157 0.41504 0.43762 0.0
C875 C 0.43394 0.48966 0.52435 0.0
C876 C 0.41635 0.47164 0.54713 0.0
C877 C 0.44006 0.48299 0.49243 0.0
C878 C 0.41969 0.4281 0.42712 0.0
H879 H 0.50789 0.44332 0.29387 0.0
H880 H 0.49677 0.45338 0.34868 0.0
H881 H 0.41247 0.40431 0.38312 0.0
H882 H 0.39165 0.43145 0.5514 0.0
H883 H 0.40197 0.41989 0.49661 0.0
H884 H 0.47286 0.48378 0.44047 0.0
C885 C 0.48159 0.44086 0.33204 0.0
C886 C 0.426 0.42191 0.39484 0.0
C887 C 0.48816 0.43483 0.29994 0.0
C888 C 0.40519 0.44634 0.5355 0.0
C889 C 0.4112 0.43963 0.50331 0.0
C890 C 0.4591 0.46637 0.42856 0.0
C891 C 0.45629 0.43084 0.34283 0.0
C892 C 0.44918 0.43764 0.37823 0.0
C893 C 0.42898 0.45772 0.48054 0.0
C894 C 0.43595 0.45063 0.44524 0.0
H895 H 0.42968 0.39574 0.26966 0.0
H896 H 0.41833 0.40589 0.32458 0.0
H897 H 0.48343 0.47342 0.38578 0.0
H898 H 0.44331 0.5094 0.53123 0.0
H899 H 0.4535 0.49812 0.47679 0.0
C900 C 0.04025 0.4477 0.61763 0.0
C901 C 0.05422 0.47297 0.60614 0.0
C902 C 0.02794 0.44109 0.65006 0.0
C903 C 0.00885 0.46867 0.7272 0.0
H904 H 0.99024 0.40496 0.76923 0.0
C905 C 0.95035 0.43957 0.85701 0.0
C906 C 0.94973 0.42118 0.87945 0.0
C907 C 0.96268 0.4452 0.82483 0.0
C908 C 0.99522 0.42304 0.75853 0.0
H909 H 0.06519 0.51076 0.62284 0.0
H910 H 0.0446 0.49972 0.67763 0.0
H911 H 0.01133 0.41543 0.71455 0.0
H912 H 0.96291 0.39447 0.8826 0.0
H913 H 0.98407 0.40402 0.82752 0.0
H914 H 0.99315 0.47653 0.77115 0.0
C915 C 0.04262 0.48448 0.66169 0.0
C916 C 0.00745 0.42912 0.72608 0.0
C917 C 0.05493 0.49104 0.62948 0.0
C918 C 0.96238 0.4087 0.86708 0.0
C919 C 0.97472 0.41429 0.83465 0.0
C920 C 0.99656 0.46256 0.75948 0.0
C921 C 0.02853 0.45923 0.67342 0.0
C922 C 0.01484 0.45224 0.70905 0.0
C923 C 0.97547 0.43289 0.8122 0.0
C924 C 0.98918 0.43949 0.77659 0.0
H925 H 0.03867 0.43273 0.60139 0.0
H926 H 0.01754 0.42136 0.65646 0.0
H927 H 0.01337 0.48659 0.71637 0.0
H928 H 0.94116 0.44999 0.86435 0.0
H929 H 0.96175 0.45932 0.80963 0.0
C930 C 0.51391 0.94812 0.18744 0.0
C931 C 0.53197 0.94926 0.21102 0.0
C932 C 0.52064 0.96116 0.1558 0.0
C933 C 0.57628 0.99765 0.09353 0.0
H934 H 0.53059 0.01506 1.04997 0.0
C935 C 0.59768 0.04399 0.95462 0.0
C936 C 0.58742 0.05907 0.94379 0.0
C937 C 0.59137 0.03104 0.98643 0.0
C938 C 0.544 0.01072 1.06135 0.0
H939 H 0.57221 0.96621 0.21728 0.0
H940 H 0.58385 0.98847 0.16312 0.0
H941 H 0.51963 0.99336 0.104 0.0
H942 H 0.56175 0.07135 0.96056 0.0
H943 H 0.55101 0.04941 1.01467 0.0
H944 H 0.60077 0.01528 1.05098 0.0
C945 C 0.56408 0.97723 0.16882 0.0
C946 C 0.5374 0.99765 0.093 0.0
C947 C 0.55731 0.96428 0.20063 0.0
C948 C 0.57041 0.06025 0.96694 0.0
C949 C 0.56397 0.0472 0.99858 0.0
C950 C 0.58281 0.01058 1.06174 0.0
C951 C 0.54599 0.97625 0.14521 0.0
C952 C 0.55329 0.99062 0.11039 0.0
C953 C 0.57417 0.03206 1.0096 0.0
C954 C 0.56696 0.01768 1.04442 0.0
H955 H 0.49416 0.93707 0.19348 0.0
H956 H 0.50557 0.95899 0.13938 0.0
H957 H 0.58947 0.99289 0.10466 0.0
H958 H 0.61071 0.04203 0.9383 0.0
H959 H 0.59986 0.01975 0.99246 0.0
C960 C 0.56747 0.51463 0.52419 0.0
C961 C 0.58459 0.53276 0.54764 0.0
C962 C 0.5615 0.52124 0.49209 0.0
C963 C 0.58121 0.5768 0.42866 0.0
H964 H 0.51921 0.52996 0.38347 0.0
C965 C 0.55639 0.59786 0.28838 0.0
C966 C 0.53115 0.58612 0.27651 0.0
C967 C 0.56319 0.59195 0.32059 0.0
C968 C 0.53665 0.54375 0.39524 0.0
H969 H 0.60862 0.57304 0.55304 0.0
H970 H 0.59845 0.58449 0.4982 0.0
H971 H 0.52953 0.51951 0.43813 0.0
H972 H 0.49362 0.55835 0.29202 0.0
H973 H 0.505 0.54849 0.34651 0.0
H974 H 0.58807 0.60121 0.38583 0.0
C975 C 0.58952 0.56472 0.50433 0.0
C976 C 0.54291 0.53742 0.42736 0.0
C977 C 0.59544 0.55807 0.53658 0.0
C978 C 0.5133 0.56816 0.29908 0.0
C979 C 0.52005 0.56221 0.33105 0.0
C980 C 0.57498 0.58312 0.39642 0.0
C981 C 0.57223 0.54655 0.48082 0.0
C982 C 0.56544 0.55367 0.44544 0.0
C983 C 0.54525 0.57378 0.34315 0.0
C984 C 0.5524 0.56687 0.37843 0.0
H985 H 0.5584 0.49489 0.53065 0.0
H986 H 0.54846 0.50604 0.47588 0.0
H987 H 0.59887 0.59031 0.44023 0.0
H988 H 0.57114 0.61169 0.27261 0.0
H989 H 0.58288 0.60158 0.32744 0.0
C990 C 0.06747 0.58278 0.84938 0.0
C991 C 0.05891 0.59028 0.87808 0.0
C992 C 0.05453 0.57663 0.81744 0.0
C993 C 0.99063 0.55615 0.77503 0.0
H994 H 0.02757 0.57518 0.69107 0.0
C995 C 0.94006 0.51838 0.63947 0.0
C996 C 0.94827 0.53458 0.61103 0.0
C997 C 0.95303 0.52527 0.67139 0.0
C998 C 0.01662 0.56958 0.71402 0.0
H999 H 0.02855 0.59628 0.89355 0.0
H1000 H 0.00589 0.58493 0.83913 0.0
H1001 H 0.05014 0.58628 0.74543 0.0
H1002 H 0.97803 0.57132 0.59598 0.0
H1003 H 1.00077 0.58283 0.65036 0.0
H1004 H 0.95713 0.53888 0.74362 0.0
C1005 C 0.02304 0.58412 0.84108 0.0
C1006 C 0.02982 0.57592 0.7458 0.0
C1007 C 0.03634 0.5909 0.87279 0.0
C1008 C 0.97052 0.55803 0.61655 0.0
C1009 C 0.98386 0.56467 0.64823 0.0
C1010 C 0.97745 0.54923 0.74325 0.0
C1011 C 0.03173 0.57686 0.81222 0.0
C1012 C 0.01729 0.56961 0.77744 0.0
C1013 C 0.97552 0.54857 0.67684 0.0
C1014 C 0.98997 0.55586 0.71161 0.0
H1015 H 0.0845 0.58173 0.85148 0.0
H1016 H 0.0623 0.57112 0.7968 0.0
H1017 H 0.97969 0.55048 0.79798 0.0
H1018 H 0.92328 0.50011 0.63719 0.0
H1019 H 0.94553 0.51187 0.69183 0.0
C1020 C 0.47564 0.00729 0.35663 0.0
C1021 C 0.47209 0.02801 0.35921 0.0
C1022 C 0.47239 0.99262 0.38528 0.0
C1023 C 0.50149 0.01977 0.45772 0.0
H1024 H 0.50281 0.95783 0.45312 0.0
C1025 C 0.54122 0.96866 0.38372 0.0
C1026 C 0.52903 0.97414 0.35789 0.0
C1027 C 0.5457 0.98081 0.41507 0.0
C1028 C 0.50286 0.97537 0.45618 0.0
H1029 H 0.45606 0.04557 0.39054 0.0
H1030 H 0.45351 0.02219 0.44108 0.0
H1031 H 0.46331 0.95684 0.44632 0.0
H1032 H 0.5199 1.00168 0.33984 0.0
H1033 H 0.52931 0.02436 0.39318 0.0
H1034 H 0.54156 0.03846 0.4595 0.0
C1035 C 0.45838 0.01683 0.41739 0.0
C1036 C 0.47989 0.97466 0.4523 0.0
C1037 C 0.46047 0.03062 0.38844 0.0
C1038 C 0.52786 0.99621 0.3603 0.0
C1039 C 0.53366 0.00934 0.39097 0.0
C1040 C 0.5245 0.02033 0.46002 0.0
C1041 C 0.46692 0.99956 0.41689 0.0
C1042 C 0.47999 0.99732 0.44711 0.0
C1043 C 0.53871 0.99914 0.41997 0.0
C1044 C 0.52519 0.99846 0.45138 0.0
H1045 H 0.48324 0.00403 0.33379 0.0
H1046 H 0.47805 0.97853 0.38379 0.0
H1047 H 0.50194 0.03763 0.45621 0.0
H1048 H 0.54446 0.95312 0.38125 0.0
H1049 H 0.55065 0.97314 0.43647 0.0
C1050 C 0.43112 0.45641 0.71328 0.0
C1051 C 0.44608 0.4709 0.68605 0.0
C1052 C 0.44224 0.45259 0.74172 0.0
C1053 C 0.50496 0.47419 0.78001 0.0
H1054 H 0.49989 0.53385 0.79444 0.0
C1055 C 0.53353 0.52827 0.6956 0.0
C1056 C 0.5568 0.52952 0.69432 0.0
C1057 C 0.52494 0.53232 0.72631 0.0
C1058 C 0.50167 0.51717 0.79297 0.0
H1059 H 0.48221 0.48555 0.66241 0.0
H1060 H 0.50154 0.47726 0.71128 0.0
H1061 H 0.46225 0.49387 0.78521 0.0
H1062 H 0.59241 0.54424 0.72017 0.0
H1063 H 0.57631 0.54724 0.77507 0.0
H1064 H 0.54437 0.49804 0.78491 0.0
C1065 C 0.48161 0.47069 0.71189 0.0
C1066 C 0.4799 0.49398 0.78724 0.0
C1067 C 0.47073 0.47567 0.68391 0.0
C1068 C 0.57348 0.54064 0.7216 0.0
C1069 C 0.56453 0.54337 0.75286 0.0
C1070 C 0.52646 0.4972 0.78737 0.0
C1071 C 0.46822 0.46232 0.7425 0.0
C1072 C 0.4822 0.47376 0.7743 0.0
C1073 C 0.53897 0.53562 0.75624 0.0
C1074 C 0.52497 0.51937 0.78527 0.0
H1075 H 0.41148 0.45105 0.71471 0.0
H1076 H 0.43128 0.44545 0.76455 0.0
H1077 H 0.50717 0.45848 0.77213 0.0
H1078 H 0.5209 0.52124 0.67411 0.0
H1079 H 0.50548 0.52766 0.72738 0.0
C1080 C 1.00082 0.47499 1.02455 0.0
C1081 C 0.97998 0.45088 1.02702 0.0
C1082 C 0.01542 0.48655 1.05343 0.0
C1083 C 0.98792 0.48943 0.12444 0.0
H1084 H 0.04979 0.55248 0.11985 0.0
C1085 C 0.03895 0.58004 1.04954 0.0
C1086 C 0.03409 0.56219 1.02397 0.0
C1087 C 0.02675 0.57231 0.08062 0.0
C1088 C 0.03228 0.53509 0.12296 0.0
H1089 H 0.96216 0.4175 1.05852 0.0
H1090 H 0.98541 0.43867 0.10941 0.0
H1091 H 0.05078 0.51379 0.11511 0.0
H1092 H 0.00735 0.52517 1.00577 0.0
H1093 H 0.98432 0.51197 1.05839 0.0
H1094 H 0.96927 0.51094 0.12421 0.0
C1095 C 0.9909 0.44868 0.08565 0.0
C1096 C 0.03297 0.51271 0.12026 0.0
C1097 C 0.97718 0.43681 1.05649 0.0
C1098 C 0.01239 0.53873 1.02608 0.0
C1099 C 0.99906 0.53142 1.05632 0.0
C1100 C 0.98737 0.51195 0.12562 0.0
C1101 C 0.00827 0.47445 0.08511 0.0
C1102 C 0.01037 0.49012 0.11492 0.0
C1103 C 0.00877 0.54691 0.08535 0.0
C1104 C 0.00926 0.53435 0.11716 0.0
H1105 H 0.00423 0.4857 1.00157 0.0
H1106 H 0.02959 0.50624 1.05192 0.0
H1107 H 0.97009 0.47203 0.12282 0.0
H1108 H 0.05397 0.59914 1.04725 0.0
H1109 H 0.03399 0.58508 0.10204 0.0
C1110 C 0.00508 0.47987 0.45995 0.0
C1111 C 0.02554 0.47604 0.45677 0.0
C1112 C 0.99121 0.47869 0.43109 0.0
C1113 C 0.01997 0.51182 0.36211 0.0
H1114 H 0.95856 0.51382 0.3675 0.0
C1115 C 0.96854 0.54776 0.44213 0.0
C1116 C 0.97351 0.53366 0.46565 0.0
C1117 C 0.98105 0.55407 0.41113 0.0
C1118 C 0.97596 0.51375 0.36423 0.0
H1119 H 0.04319 0.46128 0.42324 0.0
H1120 H 0.02145 0.46265 0.37271 0.0
H1121 H 0.9569 0.47372 0.36973 0.0
H1122 H 1.00084 0.5236 0.48158 0.0
H1123 H 0.02421 0.53633 0.42922 0.0
H1124 H 0.03902 0.55197 0.36457 0.0
C1125 C 0.01569 0.46618 0.39701 0.0
C1126 C 0.97488 0.49045 0.36549 0.0
C1127 C 0.02858 0.46608 0.42604 0.0
C1128 C 0.99558 0.53268 0.46245 0.0
C1129 C 0.00915 0.54047 0.43244 0.0
C1130 C 0.02083 0.53507 0.36235 0.0
C1131 C 0.99874 0.47506 0.39882 0.0
C1132 C 0.99725 0.48996 0.37041 0.0
C1133 C 0.99935 0.54729 0.40461 0.0
C1134 C 0.99904 0.53563 0.37143 0.0
H1135 H 1.00138 0.48605 0.48379 0.0
H1136 H 0.97728 0.48447 0.43347 0.0
H1137 H 0.03765 0.51195 0.36349 0.0
H1138 H 0.95328 0.55138 0.44583 0.0
H1139 H 0.9738 0.5605 0.39083 0.0
C1140 C 0.43622 0.97605 0.75961 0.0
C1141 C 0.4494 0.97945 0.7903 0.0
C1142 C 0.44886 0.98908 0.73072 0.0
C1143 C 0.51341 0.03117 0.69931 0.0
H1144 H 0.51211 0.96758 0.69567 0.0
C1145 C 0.53732 0.01161 0.79443 0.0
C1146 C 0.56064 0.03341 0.79755 0.0
C1147 C 0.53087 0.99787 0.76427 0.0
C1148 C 0.513 0.98563 0.69417 0.0
H1149 H 0.48365 0.00405 0.81734 0.0
H1150 H 0.50549 0.02836 0.76732 0.0
H1151 H 0.47309 0.96809 0.69576 0.0
H1152 H 0.59816 0.0531 0.77698 0.0
H1153 H 0.58554 0.03254 0.72167 0.0
H1154 H 0.55312 0.04821 0.70088 0.0
C1155 C 0.48587 0.01417 0.76488 0.0
C1156 C 0.4904 0.986 0.69463 0.0
C1157 C 0.47355 1.00019 0.79359 0.0
C1158 C 0.57917 0.03801 0.77348 0.0
C1159 C 0.57225 0.02548 0.74228 0.0
C1160 C 0.53584 0.0306 0.69731 0.0
C1161 C 0.47455 0.00648 0.73259 0.0
C1162 C 0.49087 0.00847 0.70388 0.0
C1163 C 0.54703 0.00736 0.73616 0.0
C1164 C 0.53519 0.00766 0.70345 0.0
H1165 H 0.41697 0.96111 0.7567 0.0
H1166 H 0.43945 0.98315 0.7064 0.0
H1167 H 0.51432 0.04898 0.70432 0.0
H1168 H 0.52327 0.00675 0.81377 0.0
H1169 H 0.51155 0.98299 0.76125 0.0
C1170 C 0.52829 0.53243 0.13366 0.0
C1171 C 0.53234 0.55692 0.13222 0.0
C1172 C 0.53224 0.52168 0.1047 0.0
C1173 C 0.50586 0.52267 1.03135 0.0
H1174 H 0.50273 0.45849 1.03321 0.0
C1175 C 0.46249 0.43 0.10036 0.0
C1176 C 0.47368 0.44693 0.12738 0.0
C1177 C 0.45908 0.4385 1.06914 0.0
C1178 C 0.50323 0.4763 1.03094 0.0
H1179 H 0.55005 0.59151 0.10315 0.0
H1180 H 0.55402 0.57194 1.05191 0.0
H1181 H 0.5425 0.49624 1.04283 0.0
H1182 H 0.48214 0.48311 0.14699 0.0
H1183 H 0.47488 0.49789 0.09365 0.0
H1184 H 0.46583 0.50218 1.02742 0.0
C1185 C 0.54813 0.561 1.07492 0.0
C1186 C 0.52636 0.49812 1.03641 0.0
C1187 C 0.54526 0.57198 0.10421 0.0
C1188 C 0.4749 0.47022 0.12576 0.0
C1189 C 0.47035 0.47844 0.09504 0.0
C1190 C 0.48264 0.50063 1.02741 0.0
C1191 C 0.53904 0.53507 1.07392 0.0
C1192 C 0.52672 0.52083 1.04258 0.0
C1193 C 0.46635 0.46396 1.06535 0.0
C1194 C 0.48109 0.47756 1.03507 0.0
H1195 H 0.51966 0.5209 0.15562 0.0
H1196 H 0.52606 0.50178 0.10509 0.0
H1197 H 0.50584 0.54028 1.03359 0.0
H1198 H 0.45927 0.41119 0.1019 0.0
H1199 H 0.45488 0.42645 1.04713 0.0
C1200 C 0.31629 0.95069 0.66571 0.0
C1201 C 0.31571 0.96054 0.69755 0.0
C1202 C 0.31154 0.96023 0.63646 0.0
C1203 C 0.31775 0.01942 0.60658 0.0
H1204 H 0.29967 0.98197 0.52224 0.0
C1205 C 0.3709 0.06131 0.48604 0.0
C1206 C 0.36033 0.0512 0.45428 0.0
C1207 C 0.3568 0.052 0.51533 0.0
C1208 C 0.3042 0.99283 0.54543 0.0
H1209 H 0.30772 0.9868 0.72389 0.0
H1210 H 0.29867 1.00303 0.6727 0.0
H1211 H 0.28772 0.95951 0.57533 0.0
H1212 H 0.32599 0.02481 0.42811 0.0
H1213 H 0.30103 0.00904 0.47933 0.0
H1214 H 0.33426 0.05275 0.57668 0.0
C1215 C 0.30343 0.98832 0.67032 0.0
C1216 C 0.29766 0.97987 0.576 0.0
C1217 C 0.3084 0.97886 0.69969 0.0
C1218 C 0.33472 0.03294 0.45223 0.0
C1219 C 0.32048 0.02374 0.48163 0.0
C1220 C 0.32387 0.03238 0.576 0.0
C1221 C 0.30579 0.97971 0.63828 0.0
C1222 C 0.30581 0.993 0.60688 0.0
C1223 C 0.33162 0.0325 0.51364 0.0
C1224 C 0.31864 0.01925 0.5451 0.0
H1225 H 0.32132 0.93616 0.66327 0.0
H1226 H 0.31388 0.95325 0.61237 0.0
H1227 H 0.32424 0.03027 0.62978 0.0
H1228 H 0.39043 0.07582 0.4884 0.0
H1229 H 0.36624 0.05912 0.53938 0.0
C1230 C 0.3653 0.29511 0.99745 0.0
C1231 C 0.38875 0.316 1.0056 0.0
C1232 C 0.35843 0.28837 0.9636 0.0
C1233 C 0.38359 0.29984 0.87627 0.0
H1234 H 0.32356 0.30243 0.8532 0.0
C1235 C 0.37711 0.35291 0.76427 0.0
C1236 C 0.35402 0.34562 0.7482 0.0
C1237 C 0.37862 0.33866 0.79054 0.0
C1238 C 0.33997 0.30086 0.85898 0.0
H1239 H 0.42402 0.34518 0.98542 0.0
H1240 H 0.41215 0.33355 0.92657 0.0
H1241 H 0.33133 0.29611 0.91167 0.0
H1242 H 0.31481 0.31648 0.74534 0.0
H1243 H 0.3174 0.29183 0.79203 0.0
H1244 H 0.39306 0.30636 0.82386 0.0
C1245 C 0.39903 0.32227 0.94603 0.0
C1246 C 0.34443 0.29725 0.89256 0.0
C1247 C 0.40572 0.32917 0.97967 0.0
C1248 C 0.33278 0.32287 0.75766 0.0
C1249 C 0.33427 0.30867 0.78422 0.0
C1250 C 0.37911 0.3034 0.84269 0.0
C1251 C 0.37513 0.30217 0.93758 0.0
C1252 C 0.36697 0.29817 0.90174 0.0
C1253 C 0.35707 0.31686 0.80157 0.0
C1254 C 0.35798 0.30541 0.83407 0.0
H1255 H 0.35195 0.28469 1.01714 0.0
H1256 H 0.33989 0.27283 0.95772 0.0
H1257 H 0.40091 0.30016 0.88264 0.0
H1258 H 0.39378 0.37049 0.75812 0.0
H1259 H 0.39639 0.34579 0.80376 0.0
C1260 C 0.99306 0.32476 0.11027 0.0
C1261 C 0.96858 0.32094 0.11221 0.0
C1262 C 0.00454 0.32141 0.13879 0.0
C1263 C 0.02856 0.33723 0.20816 0.0
H1264 H 0.99378 0.2894 0.27969 0.0
C1265 C 0.06677 0.36057 0.34266 0.0
C1266 C 0.04857 0.35816 0.36603 0.0
C1267 C 0.05955 0.34832 0.31136 0.0
C1268 C 1.00382 0.30283 0.25991 0.0
H1269 H 0.93614 0.30857 0.14445 0.0
H1270 H 0.95623 0.30311 0.19433 0.0
H1271 H 0.97559 0.28114 0.22283 0.0
H1272 H 0.00864 0.33989 0.3759 0.0
H1273 H 0.99599 0.31901 0.32124 0.0
H1274 H 0.05586 0.3598 0.24533 0.0
C1275 C 0.96658 0.30855 0.17086 0.0
C1276 C 0.99343 0.29806 0.22737 0.0
C1277 C 0.95517 0.312 0.14244 0.0
C1278 C 0.02309 0.34195 0.35847 0.0
C1279 C 0.01586 0.32987 0.32712 0.0
C1280 C 0.03886 0.34205 0.24064 0.0
C1281 C 0.99168 0.31406 0.16967 0.0
C1282 C 0.0052 0.31575 0.20155 0.0
C1283 C 0.03398 0.33364 0.30272 0.0
C1284 C 0.02607 0.32544 0.26723 0.0
H1285 H 1.00384 0.33169 0.08728 0.0
H1286 H 0.02384 0.32561 0.13709 0.0
H1287 H 0.03797 0.35138 0.18894 0.0
H1288 H 0.08658 0.37264 0.34813 0.0
H1289 H 0.07398 0.35123 0.29337 0.0
C1290 C 0.68957 0.04717 0.67344 0.0
C1291 C 0.68542 0.03752 0.70635 0.0
C1292 C 0.69249 0.03395 0.6468 0.0
C1293 C 0.66934 0.96882 0.62387 0.0
H1294 H 0.70132 0.99986 0.53938 0.0
C1295 C 0.61914 0.94038 0.49886 0.0
C1296 C 0.63204 0.943 0.46866 0.0
C1297 C 0.63187 0.94633 0.52967 0.0
C1298 C 0.69274 0.99062 0.56288 0.0
H1299 H 0.68295 0.0074 0.73766 0.0
H1300 H 0.68841 0.98444 0.69109 0.0
H1301 H 0.71618 0.02381 0.5919 0.0
H1302 H 0.66792 0.95244 0.44678 0.0
H1303 H 0.6905 0.9633 0.50112 0.0
H1304 H 0.64512 0.93608 0.59464 0.0
C1305 C 0.68909 1.00209 0.68584 0.0
C1306 C 0.70107 0.00446 0.59293 0.0
C1307 C 0.68611 0.01532 0.71253 0.0
C1308 C 0.65763 0.9503 0.46986 0.0
C1309 C 0.67051 0.95655 0.50082 0.0
C1310 C 0.66112 0.95497 0.59389 0.0
C1311 C 0.69138 0.01079 0.65251 0.0
C1312 C 0.68838 0.99422 0.62336 0.0
C1313 C 0.65783 0.95519 0.53093 0.0
C1314 C 0.67167 0.9663 0.56287 0.0
H1315 H 0.6896 0.06449 0.66804 0.0
H1316 H 0.69394 0.04112 0.62143 0.0
H1317 H 0.65913 0.96028 0.64683 0.0
H1318 H 0.59934 0.93456 0.49851 0.0
H1319 H 0.6216 0.94547 0.55229 0.0
C1320 C 0.67543 0.6779 1.05966 0.0
C1321 C 0.65513 0.68187 1.05353 0.0
C1322 C 0.69107 0.67931 1.03318 0.0
C1323 C 0.7 0.65783 0.96935 0.0
H1324 H 0.70932 0.69634 0.88781 0.0
C1325 C 0.67518 0.61331 0.8399 0.0
C1326 C 0.6881 0.62664 0.81108 0.0
C1327 C 0.68207 0.62449 0.87174 0.0
C1328 C 0.70755 0.68575 0.9105 0.0
H1329 H 0.6368 0.69292 1.01597 0.0
H1330 H 0.66349 0.69476 0.96973 0.0
H1331 H 0.70337 0.712 0.94165 0.0
H1332 H 0.71907 0.66162 0.79284 0.0
H1333 H 0.73108 0.68148 0.84895 0.0
H1334 H 0.70303 0.63103 0.93796 0.0
C1335 C 0.66763 0.69075 0.99483 0.0
C1336 C 0.70388 0.69461 0.9413 0.0
C1337 C 0.65205 0.68933 1.02122 0.0
C1338 C 0.70883 0.65099 0.81478 0.0
C1339 C 0.71564 0.66234 0.84677 0.0
C1340 C 0.70379 0.64906 0.93862 0.0
C1341 C 0.68667 0.68474 1.00018 0.0
C1342 C 0.69851 0.67995 0.97063 0.0
C1343 C 0.702 0.64932 0.87548 0.0
C1344 C 0.70602 0.66215 0.90861 0.0
H1345 H 0.67827 0.67216 0.08438 0.0
H1346 H 0.70576 0.67487 1.03817 0.0
H1347 H 0.69595 0.64602 0.99138 0.0
H1348 H 0.65931 0.59439 0.83772 0.0
H1349 H 0.67089 0.61408 0.89323 0.0
C1350 C 0.07381 0.71105 0.15137 0.0
C1351 C 0.0554 0.69628 0.12729 0.0
C1352 C 0.06693 0.71693 0.1822 0.0
C1353 C 0.0117 0.71017 0.2309 0.0
H1354 H 0.0423 0.69207 0.30327 0.0
C1355 C 0.99501 0.67293 0.37823 0.0
C1356 C 0.97063 0.6524 0.37377 0.0
C1357 C 0.00765 0.68862 0.35112 0.0
C1358 C 0.03392 0.69785 0.28366 0.0
H1359 H 0.01562 0.67724 0.11555 0.0
H1360 H 1.00347 0.6867 0.16947 0.0
H1361 H 0.0616 0.70193 0.24813 0.0
H1362 H 0.93958 0.63332 0.3385 0.0
H1363 H 0.96173 0.66049 0.291 0.0
H1364 H 0.98282 0.70391 0.26622 0.0
C1365 C 0.02328 0.69441 0.16453 0.0
C1366 C 0.04505 0.70359 0.25191 0.0
C1367 C 0.0302 0.6888 0.13363 0.0
C1368 C 0.9585 0.64882 0.34242 0.0
C1369 C 0.97107 0.6646 0.3154 0.0
C1370 C 1.00043 0.70418 0.26267 0.0
C1371 C 0.04147 0.70781 0.18965 0.0
C1372 C 0.0334 0.70859 0.22472 0.0
C1373 C 0.99604 0.68413 0.3192 0.0
C1374 C 0.01085 0.69684 0.28885 0.0
H1375 H 0.09345 0.71741 0.14676 0.0
H1376 H 0.08144 0.72768 0.20075 0.0
H1377 H 1.0026 0.71455 0.21068 0.0
H1378 H 0.0048 0.67606 0.40216 0.0
H1379 H 0.02687 0.70359 0.3547 0.0
C1380 C 0.50045 0.09356 0.4613 0.0
C1381 C 0.51751 0.10145 0.43379 0.0
C1382 C 0.50804 0.09316 0.49581 0.0
C1383 C 0.5653 0.10207 0.55241 0.0
H1384 H 0.52206 0.09652 0.62636 0.0
C1385 C 0.59518 0.09692 0.69776 0.0
C1386 C 0.58331 0.1014 0.72561 0.0
C1387 C 0.58745 0.09658 0.66308 0.0
C1388 C 0.53495 0.09833 0.60663 0.0
H1389 H 0.55682 0.11494 0.42402 0.0
H1390 H 0.5698 0.1147 0.48221 0.0
H1391 H 0.50901 0.09705 0.56853 0.0
H1392 H 0.55312 0.109 0.7357 0.0
H1393 H 0.54029 0.10878 0.67747 0.0
H1394 H 0.59142 0.10376 0.5906 0.0
C1395 C 0.55019 0.10842 0.47775 0.0
C1396 C 0.52705 0.09835 0.57227 0.0
C1397 C 0.5426 0.10877 0.44339 0.0
C1398 C 0.56327 0.1055 0.71613 0.0
C1399 C 0.55557 0.10515 0.6817 0.0
C1400 C 0.57321 0.10207 0.58679 0.0
C1401 C 0.53328 0.10059 0.50556 0.0
C1402 C 0.54189 0.1003 0.54358 0.0
C1403 C 0.56723 0.10063 0.65356 0.0
C1404 C 0.55843 0.10029 0.61548 0.0
H1405 H 0.48088 0.08735 0.4562 0.0
H1406 H 0.49361 0.08657 0.51486 0.0
H1407 H 0.57792 0.1033 0.53263 0.0
H1408 H 0.61048 0.09338 0.70269 0.0
H1409 H 0.59741 0.0927 0.64368 0.0
C1410 C 0.41085 0.49897 0.79367 0.0
C1411 C 0.41902 0.51622 0.76635 0.0
C1412 C 0.41895 0.50665 0.82812 0.0
C1413 C 0.46695 0.56399 0.8842 0.0
H1414 H 0.42844 0.52196 0.95857 0.0
C1415 C 0.50284 0.59335 1.02899 0.0
C1416 C 0.48596 0.58347 1.05659 0.0
C1417 C 0.49527 0.58531 0.9945 0.0
C1418 C 0.43972 0.53445 0.93864 0.0
H1419 H 0.44315 0.55594 0.75668 0.0
H1420 H 0.45667 0.56905 0.81488 0.0
H1421 H 0.41464 0.50857 0.90063 0.0
H1422 H 0.44705 0.55631 1.06669 0.0
H1423 H 0.43411 0.54286 1.00845 0.0
H1424 H 0.49184 0.59004 0.92223 0.0
C1425 C 0.44404 0.54924 0.81023 0.0
C1426 C 0.43171 0.52637 0.90436 0.0
C1427 C 0.43594 0.54158 0.77596 0.0
C1428 C 0.4611 0.5649 1.0472 0.0
C1429 C 0.45355 0.55684 1.0129 0.0
C1430 C 0.475 0.57204 0.91848 0.0
C1431 C 0.43591 0.53215 0.83783 0.0
C1432 C 0.44492 0.54084 0.87565 0.0
C1433 C 0.47027 0.56667 0.98503 0.0
C1434 C 0.46167 0.55767 0.94718 0.0
H1435 H 0.39815 0.47923 0.78848 0.0
H1436 H 0.41195 0.49216 0.84716 0.0
H1437 H 0.47853 0.57622 0.86425 0.0
H1438 H 0.52223 0.60737 1.034 0.0
H1439 H 0.50947 0.59369 0.97521 0.0
C1440 C 0.89918 0.44087 0.1098 0.0
C1441 C 0.90641 0.42302 0.10019 0.0
C1442 C 0.89933 0.44856 0.14424 0.0
C1443 C 0.90881 0.43472 0.23896 0.0
H1444 H 0.9031 0.49356 0.25766 0.0
C1445 C 0.90146 0.46323 0.38309 0.0
C1446 C 0.90524 0.48726 0.39274 0.0
C1447 C 0.90186 0.45599 0.34859 0.0
C1448 C 0.90487 0.47706 0.25377 0.0
H1449 H 0.92011 0.40005 0.12276 0.0
H1450 H 0.92056 0.41314 0.18158 0.0
H1451 H 0.90385 0.48089 0.19962 0.0
H1452 H 0.91258 0.52231 0.37006 0.0
H1453 H 0.91337 0.51014 0.31103 0.0
H1454 H 0.91041 0.43122 0.29307 0.0
C1455 C 0.9142 0.42124 0.16244 0.0
C1456 C 0.90505 0.46937 0.21932 0.0
C1457 C 0.914 0.41351 0.12783 0.0
C1458 C 0.90934 0.50356 0.36501 0.0
C1459 C 0.90975 0.4963 0.33029 0.0
C1460 C 0.90865 0.44243 0.2734 0.0
C1461 C 0.90685 0.43914 0.17219 0.0
C1462 C 0.90694 0.44779 0.21032 0.0
C1463 C 0.90609 0.47217 0.32057 0.0
C1464 C 0.90658 0.4639 0.28241 0.0
H1465 H 0.89323 0.44919 0.09035 0.0
H1466 H 0.89314 0.462 0.14865 0.0
H1467 H 0.91019 0.41801 0.23511 0.0
H1468 H 0.89824 0.44961 0.40256 0.0
H1469 H 0.89853 0.43718 0.34422 0.0
C1470 C 0.46022 0.90109 0.43758 0.0
C1471 C 0.48437 0.90531 0.4283 0.0
C1472 C 0.45296 0.90146 0.47194 0.0
C1473 C 0.47408 0.90486 0.56689 0.0
H1474 H 0.41488 0.90981 0.58469 0.0
C1475 C 0.43727 0.89835 0.70996 0.0
C1476 C 0.41957 0.90578 0.71935 0.0
C1477 C 0.44506 0.89861 0.67567 0.0
C1478 C 0.43164 0.90854 0.58107 0.0
H1479 H 0.5197 0.91368 0.45141 0.0
H1480 H 0.50747 0.9144 0.51029 0.0
H1481 H 0.42826 0.91025 0.52695 0.0
H1482 H 0.39706 0.92 0.69671 0.0
H1483 H 0.41033 0.92063 0.63815 0.0
H1484 H 0.47779 0.90377 0.62108 0.0
C1485 C 0.49355 0.91036 0.49082 0.0
C1486 C 0.43943 0.9085 0.54678 0.0
C1487 C 0.50084 0.90999 0.45622 0.0
C1488 C 0.41034 0.91369 0.69174 0.0
C1489 C 0.41819 0.914 0.6573 0.0
C1490 C 0.4663 0.90493 0.60121 0.0
C1491 C 0.46926 0.90616 0.50015 0.0
C1492 C 0.46094 0.90655 0.53813 0.0
C1493 C 0.43592 0.90646 0.64776 0.0
C1494 C 0.44467 0.90668 0.60984 0.0
H1495 H 0.4465 0.89748 0.41791 0.0
H1496 H 0.43404 0.89772 0.47606 0.0
H1497 H 0.4906 0.90318 0.56321 0.0
H1498 H 0.44536 0.89218 0.72945 0.0
H1499 H 0.45835 0.89225 0.67134 0.0
C1500 C 0.56359 0.4601 0.77506 0.0
C1501 C 0.58234 0.48477 0.76548 0.0
C1502 C 0.55597 0.45292 0.80947 0.0
C1503 C 0.57144 0.47622 0.90435 0.0
H1504 H 0.51078 0.41349 0.92257 0.0
C1505 C 0.54244 0.44135 1.04837 0.0
C1506 C 0.51816 0.42175 1.05779 0.0
C1507 C 0.5497 0.44878 1.01393 0.0
C1508 C 0.52781 0.43125 0.91883 0.0
H1509 H 0.60711 0.5211 0.7882 0.0
H1510 H 0.59423 0.50905 0.84701 0.0
H1511 H 0.52349 0.42642 0.86466 0.0
H1512 H 0.48257 0.39523 1.03474 0.0
H1513 H 0.49478 0.4078 0.97585 0.0
H1514 H 0.57545 0.48133 0.9585 0.0
C1515 C 0.58528 0.49463 0.82782 0.0
C1516 C 0.53552 0.43883 0.88443 0.0
C1517 C 0.59293 0.50182 0.7932 0.0
C1518 C 0.50156 0.41013 1.02988 0.0
C1519 C 0.50884 0.41758 0.99523 0.0
C1520 C 0.56371 0.46865 0.93874 0.0
C1521 C 0.5664 0.46982 0.83748 0.0
C1522 C 0.55775 0.46162 0.87558 0.0
C1523 C 0.53327 0.4373 0.98572 0.0
C1524 C 0.54159 0.44577 0.9476 0.0
H1525 H 0.55439 0.44591 0.75558 0.0
H1526 H 0.54173 0.43361 0.81378 0.0
H1527 H 0.58865 0.4938 0.90063 0.0
H1528 H 0.55628 0.45136 1.06798 0.0
H1529 H 0.56872 0.46372 1.00977 0.0
C1530 C 0.10698 0.54314 0.37695 0.0
C1531 C 0.09921 0.51787 0.38598 0.0
C1532 C 0.10701 0.55096 0.34273 0.0
C1533 C 0.09751 0.52834 0.24772 0.0
H1534 H 0.10334 0.59306 0.23075 0.0
C1535 C 0.10634 0.5659 0.10489 0.0
C1536 C 0.10216 0.58594 0.09575 0.0
C1537 C 0.10568 0.55792 0.13914 0.0
C1538 C 0.10154 0.57477 0.23417 0.0
H1539 H 0.08476 0.4812 0.36274 0.0
H1540 H 0.08463 0.49435 0.30424 0.0
H1541 H 0.10224 0.57908 0.28843 0.0
H1542 H 0.0936 0.61274 0.11896 0.0
H1543 H 0.09241 0.5992 0.17765 0.0
H1544 H 0.0962 0.52375 0.19349 0.0
C1545 C 0.09128 0.50872 0.32367 0.0
C1546 C 0.10117 0.56657 0.26838 0.0
C1547 C 0.0913 0.50089 0.35807 0.0
C1548 C 0.09726 0.59749 0.12369 0.0
C1549 C 0.09662 0.58949 0.15817 0.0
C1550 C 0.09786 0.53652 0.21352 0.0
C1551 C 0.09914 0.53414 0.31452 0.0
C1552 C 0.09924 0.54302 0.2767 0.0
C1553 C 0.10074 0.56927 0.16736 0.0
C1554 C 0.1 0.56015 0.2052 0.0
H1555 H 0.11319 0.55731 0.39667 0.0
H1556 H 0.11361 0.57069 0.33871 0.0
H1557 H 0.09612 0.51021 0.25111 0.0
H1558 H 0.11011 0.55596 0.0852 0.0
H1559 H 0.10939 0.54266 0.14319 0.0
loop_
_geom_bond_atom_site_label_1
_geom_bond_atom_site_label_2
_geom_bond_distance
_geom_bond_site_symmetry_2
_ccdc_geom_bond_type
Sm0 C2 2.846 . S
Sm0 O20 2.543 . S
Sm0 O21 2.450 . S
Sm0 O22 2.681 . S
Sm0 O23 2.464 . S
Sm0 O24 2.396 . S
Sm0 O28 2.386 . S
Sm0 O31 2.408 . S
Sm1 C11 2.846 . S
Sm1 O22 2.386 . S
Sm1 O25 2.408 . S
Sm1 O26 2.543 . S
Sm1 O27 2.450 . S
Sm1 O28 2.681 . S
Sm1 O29 2.464 . S
Sm1 O30 2.396 . S
C2 Sm0 2.846 . S
C2 C3 1.506 . S
C2 O20 1.261 . S
C2 O21 1.242 . S
C3 C2 1.506 . S
C3 C4 1.358 . S
C3 C8 1.382 . S
C4 C3 1.358 . S
C4 C5 1.385 . S
C4 H32 0.930 . S
C5 C4 1.385 . S
C5 C6 1.395 . S
C5 H33 0.929 . S
C6 C5 1.395 . S
C6 C7 1.335 . S
C7 C6 1.335 . S
C7 C8 1.398 . S
C7 H34 0.930 . S
C8 C3 1.382 . S
C8 C7 1.398 . S
C8 H35 0.929 . S
C9 O22 1.271 . S
C9 O23 1.251 . S
C10 O24 1.252 . S
C10 O25 1.272 . S
C11 Sm1 2.846 . S
C11 C12 1.506 . S
C11 O26 1.261 . S
C11 O27 1.242 . S
C12 C11 1.506 . S
C12 C13 1.358 . S
C12 C17 1.382 . S
C13 C12 1.358 . S
C13 C14 1.385 . S
C13 H36 0.930 . S
C14 C13 1.385 . S
C14 C15 1.395 . S
C14 H37 0.929 . S
C15 C14 1.395 . S
C15 C16 1.335 . S
C16 C15 1.335 . S
C16 C17 1.398 . S
C16 H38 0.930 . S
C17 C12 1.382 . S
C17 C16 1.398 . S
C17 H39 0.929 . S
C18 O28 1.271 . S
C18 O29 1.251 . S
C19 O30 1.252 . S
C19 O31 1.272 . S
O20 Sm0 2.543 . S
O20 C2 1.261 . S
O21 Sm0 2.450 . S
O21 C2 1.242 . S
O22 Sm0 2.681 . S
O22 Sm1 2.386 . S
O22 C9 1.271 . S
O23 Sm0 2.464 . S
O23 C9 1.251 . S
O24 Sm0 2.396 . S
O24 C10 1.252 . S
O25 Sm1 2.408 . S
O25 C10 1.272 . S
O26 Sm1 2.543 . S
O26 C11 1.261 . S
O27 Sm1 2.450 . S
O27 C11 1.242 . S
O28 Sm0 2.386 . S
O28 Sm1 2.681 . S
O28 C18 1.271 . S
O29 Sm1 2.464 . S
O29 C18 1.251 . S
O30 Sm1 2.396 . S
O30 C19 1.252 . S
O31 Sm0 2.408 . S
O31 C19 1.272 . S
H32 C4 0.930 . S
H33 C5 0.929 . S
H34 C7 0.930 . S
H35 C8 0.929 . S
H36 C13 0.930 . S
H37 C14 0.929 . S
H38 C16 0.930 . S
H39 C17 0.929 . S
Sm40 C42 2.846 . S
Sm40 O60 2.543 . S
Sm40 O61 2.450 . S
Sm40 O62 2.681 . S
Sm40 O63 2.464 . S
Sm40 O64 2.396 . S
Sm40 O68 2.386 . S
Sm40 O71 2.408 . S
Sm41 C51 2.846 . S
Sm41 O62 2.386 . S
Sm41 O65 2.408 . S
Sm41 O66 2.543 . S
Sm41 O67 2.450 . S
Sm41 O68 2.681 . S
Sm41 O69 2.464 . S
Sm41 O70 2.396 . S
C42 Sm40 2.846 . S
C42 C43 1.506 . S
C42 O60 1.261 . S
C42 O61 1.242 . S
C43 C42 1.506 . S
C43 C44 1.358 . S
C43 C48 1.382 . S
C44 C43 1.358 . S
C44 C45 1.385 . S
C44 H72 0.930 . S
C45 C44 1.385 . S
C45 C46 1.395 . S
C45 H73 0.929 . S
C46 C45 1.395 . S
C46 C47 1.335 . S
C47 C46 1.335 . S
C47 C48 1.398 . S
C47 H74 0.930 . S
C48 C43 1.382 . S
C48 C47 1.398 . S
C48 H75 0.929 . S
C49 O62 1.271 . S
C49 O63 1.251 . S
C50 O64 1.252 . S
C50 O65 1.272 . S
C51 Sm41 2.846 . S
C51 C52 1.506 . S
C51 O66 1.261 . S
C51 O67 1.242 . S
C52 C51 1.506 . S
C52 C53 1.358 . S
C52 C57 1.382 . S
C53 C52 1.358 . S
C53 C54 1.385 . S
C53 H76 0.930 . S
C54 C53 1.385 . S
C54 C55 1.395 . S
C54 H77 0.929 . S
C55 C54 1.395 . S
C55 C56 1.335 . S
C56 C55 1.335 . S
C56 C57 1.398 . S
C56 H78 0.930 . S
C57 C52 1.382 . S
C57 C56 1.398 . S
C57 H79 0.929 . S
C58 O68 1.271 . S
C58 O69 1.251 . S
C59 O70 1.252 . S
C59 O71 1.272 . S
O60 Sm40 2.543 . S
O60 C42 1.261 . S
O61 Sm40 2.450 . S
O61 C42 1.242 . S
O62 Sm40 2.681 . S
O62 Sm41 2.386 . S
O62 C49 1.271 . S
O63 Sm40 2.464 . S
O63 C49 1.251 . S
O64 Sm40 2.396 . S
O64 C50 1.252 . S
O65 Sm41 2.408 . S
O65 C50 1.272 . S
O66 Sm41 2.543 . S
O66 C51 1.261 . S
O67 Sm41 2.450 . S
O67 C51 1.242 . S
O68 Sm40 2.386 . S
O68 Sm41 2.681 . S
O68 C58 1.271 . S
O69 Sm41 2.464 . S
O69 C58 1.251 . S
O70 Sm41 2.396 . S
O70 C59 1.252 . S
O71 Sm40 2.408 . S
O71 C59 1.272 . S
H72 C44 0.930 . S
H73 C45 0.929 . S
H74 C47 0.930 . S
H75 C48 0.929 . S
H76 C53 0.930 . S
H77 C54 0.929 . S
H78 C56 0.930 . S
H79 C57 0.929 . S
Sm80 C82 2.846 . S
Sm80 O100 2.543 . S
Sm80 O101 2.450 . S
Sm80 O102 2.681 . S
Sm80 O103 2.464 . S
Sm80 O104 2.396 . S
Sm80 O108 2.386 . S
Sm80 O111 2.408 . S
Sm81 C91 2.846 . S
Sm81 O102 2.386 . S
Sm81 O105 2.408 . S
Sm81 O106 2.543 . S
Sm81 O107 2.450 . S
Sm81 O108 2.681 . S
Sm81 O109 2.464 . S
Sm81 O110 2.396 . S
C82 Sm80 2.846 . S
C82 C83 1.506 1_556 S
C82 O100 1.261 . S
C82 O101 1.242 . S
C83 C82 1.506 1_554 S
C83 C84 1.358 . S
C83 C88 1.382 . S
C84 C83 1.358 . S
C84 C85 1.385 . S
C84 H112 0.930 . S
C85 C84 1.385 . S
C85 C86 1.395 . S
C85 H113 0.929 . S
C86 C85 1.395 . S
C86 C87 1.335 . S
C87 C86 1.335 . S
C87 C88 1.398 . S
C87 H114 0.930 . S
C88 C83 1.382 . S
C88 C87 1.398 . S
C88 H115 0.929 . S
C89 O102 1.271 . S
C89 O103 1.251 . S
C90 O104 1.252 . S
C90 O105 1.272 . S
C91 Sm81 2.846 . S
C91 C92 1.506 . S
C91 O106 1.261 . S
C91 O107 1.242 . S
C92 C91 1.506 . S
C92 C93 1.358 . S
C92 C97 1.382 . S
C93 C92 1.358 . S
C93 C94 1.385 . S
C93 H116 0.930 . S
C94 C93 1.385 . S
C94 C95 1.395 . S
C94 H117 0.929 . S
C95 C94 1.395 . S
C95 C96 1.335 . S
C96 C95 1.335 . S
C96 C97 1.398 . S
C96 H118 0.930 . S
C97 C92 1.382 . S
C97 C96 1.398 . S
C97 H119 0.929 . S
C98 O108 1.271 . S
C98 O109 1.251 . S
C99 O110 1.252 . S
C99 O111 1.272 . S
O100 Sm80 2.543 . S
O100 C82 1.261 . S
O101 Sm80 2.450 . S
O101 C82 1.242 . S
O102 Sm80 2.681 . S
O102 Sm81 2.386 . S
O102 C89 1.271 . S
O103 Sm80 2.464 . S
O103 C89 1.251 . S
O104 Sm80 2.396 . S
O104 C90 1.252 . S
O105 Sm81 2.408 . S
O105 C90 1.272 . S
O106 Sm81 2.543 . S
O106 C91 1.261 . S
O107 Sm81 2.450 . S
O107 C91 1.242 . S
O108 Sm80 2.386 . S
O108 Sm81 2.681 . S
O108 C98 1.271 . S
O109 Sm81 2.464 . S
O109 C98 1.251 . S
O110 Sm81 2.396 . S
O110 C99 1.252 . S
O111 Sm80 2.408 . S
O111 C99 1.272 . S
H112 C84 0.930 . S
H113 C85 0.929 . S
H114 C87 0.930 . S
H115 C88 0.929 . S
H116 C93 0.930 . S
H117 C94 0.929 . S
H118 C96 0.930 . S
H119 C97 0.929 . S
Sm120 C122 2.846 . S
Sm120 O140 2.543 . S
Sm120 O141 2.450 . S
Sm120 O142 2.681 . S
Sm120 O143 2.464 . S
Sm120 O144 2.396 . S
Sm120 O148 2.386 . S
Sm120 O151 2.408 . S
Sm121 C131 2.846 . S
Sm121 O142 2.386 . S
Sm121 O145 2.408 . S
Sm121 O146 2.543 . S
Sm121 O147 2.450 . S
Sm121 O148 2.681 . S
Sm121 O149 2.464 . S
Sm121 O150 2.396 . S
C122 Sm120 2.846 . S
C122 C123 1.506 . S
C122 O140 1.261 . S
C122 O141 1.242 . S
C123 C122 1.506 . S
C123 C124 1.358 . S
C123 C128 1.382 . S
C124 C123 1.358 . S
C124 C125 1.385 . S
C124 H152 0.930 . S
C125 C124 1.385 . S
C125 C126 1.395 . S
C125 H153 0.929 . S
C126 C125 1.395 . S
C126 C127 1.335 . S
C127 C126 1.335 . S
C127 C128 1.398 . S
C127 H154 0.930 . S
C128 C123 1.382 . S
C128 C127 1.398 . S
C128 H155 0.929 . S
C129 O142 1.271 . S
C129 O143 1.251 . S
C130 O144 1.252 . S
C130 O145 1.272 . S
C131 Sm121 2.846 . S
C131 C132 1.506 . S
C131 O146 1.261 . S
C131 O147 1.242 . S
C132 C131 1.506 . S
C132 C133 1.358 . S
C132 C137 1.382 . S
C133 C132 1.358 . S
C133 C134 1.385 . S
C133 H156 0.930 . S
C134 C133 1.385 . S
C134 C135 1.395 . S
C134 H157 0.929 . S
C135 C134 1.395 . S
C135 C136 1.335 . S
C136 C135 1.335 . S
C136 C137 1.398 . S
C136 H158 0.930 . S
C137 C132 1.382 . S
C137 C136 1.398 . S
C137 H159 0.929 . S
C138 O148 1.271 . S
C138 O149 1.251 . S
C139 O150 1.252 . S
C139 O151 1.272 . S
O140 Sm120 2.543 . S
O140 C122 1.261 . S
O141 Sm120 2.450 . S
O141 C122 1.242 . S
O142 Sm120 2.681 . S
O142 Sm121 2.386 . S
O142 C129 1.271 . S
O143 Sm120 2.464 . S
O143 C129 1.251 . S
O144 Sm120 2.396 . S
O144 C130 1.252 . S
O145 Sm121 2.408 . S
O145 C130 1.272 . S
O146 Sm121 2.543 . S
O146 C131 1.261 . S
O147 Sm121 2.450 . S
O147 C131 1.242 . S
O148 Sm120 2.386 . S
O148 Sm121 2.681 . S
O148 C138 1.271 . S
O149 Sm121 2.464 . S
O149 C138 1.251 . S
O150 Sm121 2.396 . S
O150 C139 1.252 . S
O151 Sm120 2.408 . S
O151 C139 1.272 . S
H152 C124 0.930 . S
H153 C125 0.929 . S
H154 C127 0.930 . S
H155 C128 0.929 . S
H156 C133 0.930 . S
H157 C134 0.929 . S
H158 C136 0.930 . S
H159 C137 0.929 . S
Sm160 C162 2.846 . S
Sm160 O180 2.543 . S
Sm160 O181 2.450 . S
Sm160 O182 2.681 . S
Sm160 O183 2.464 . S
Sm160 O184 2.396 . S
Sm160 O188 2.386 . S
Sm160 O191 2.408 . S
Sm161 C171 2.846 . S
Sm161 O182 2.386 . S
Sm161 O185 2.408 . S
Sm161 O186 2.543 . S
Sm161 O187 2.450 . S
Sm161 O188 2.681 . S
Sm161 O189 2.464 . S
Sm161 O190 2.396 . S
C162 Sm160 2.846 . S
C162 C163 1.506 . S
C162 O180 1.261 . S
C162 O181 1.242 . S
C163 C162 1.506 . S
C163 C164 1.358 . S
C163 C168 1.382 . S
C164 C163 1.358 . S
C164 C165 1.385 . S
C164 H192 0.930 . S
C165 C164 1.385 . S
C165 C166 1.395 . S
C165 H193 0.929 . S
C166 C165 1.395 . S
C166 C167 1.335 . S
C167 C166 1.335 . S
C167 C168 1.398 . S
C167 H194 0.930 . S
C168 C163 1.382 . S
C168 C167 1.398 . S
C168 H195 0.929 . S
C169 O182 1.271 . S
C169 O183 1.251 . S
C170 O184 1.252 . S
C170 O185 1.272 . S
C171 Sm161 2.846 . S
C171 C172 1.506 . S
C171 O186 1.261 . S
C171 O187 1.242 . S
C172 C171 1.506 . S
C172 C173 1.358 . S
C172 C177 1.382 . S
C173 C172 1.358 . S
C173 C174 1.385 . S
C173 H196 0.930 . S
C174 C173 1.385 . S
C174 C175 1.395 . S
C174 H197 0.929 . S
C175 C174 1.395 . S
C175 C176 1.335 . S
C176 C175 1.335 . S
C176 C177 1.398 . S
C176 H198 0.930 . S
C177 C172 1.382 . S
C177 C176 1.398 . S
C177 H199 0.929 . S
C178 O188 1.271 . S
C178 O189 1.251 . S
C179 O190 1.252 . S
C179 O191 1.272 . S
O180 Sm160 2.543 . S
O180 C162 1.261 . S
O181 Sm160 2.450 . S
O181 C162 1.242 . S
O182 Sm160 2.681 . S
O182 Sm161 2.386 . S
O182 C169 1.271 . S
O183 Sm160 2.464 . S
O183 C169 1.251 . S
O184 Sm160 2.396 . S
O184 C170 1.252 . S
O185 Sm161 2.408 . S
O185 C170 1.272 . S
O186 Sm161 2.543 . S
O186 C171 1.261 . S
O187 Sm161 2.450 . S
O187 C171 1.242 . S
O188 Sm160 2.386 . S
O188 Sm161 2.681 . S
O188 C178 1.271 . S
O189 Sm161 2.464 . S
O189 C178 1.251 . S
O190 Sm161 2.396 . S
O190 C179 1.252 . S
O191 Sm160 2.408 . S
O191 C179 1.272 . S
H192 C164 0.930 . S
H193 C165 0.929 . S
H194 C167 0.930 . S
H195 C168 0.929 . S
H196 C173 0.930 . S
H197 C174 0.929 . S
H198 C176 0.930 . S
H199 C177 0.929 . S
Sm200 C202 2.846 . S
Sm200 O220 2.543 . S
Sm200 O221 2.450 . S
Sm200 O222 2.681 . S
Sm200 O223 2.464 . S
Sm200 O224 2.396 . S
Sm200 O228 2.386 . S
Sm200 O231 2.408 . S
Sm201 C211 2.846 . S
Sm201 O222 2.386 . S
Sm201 O225 2.408 . S
Sm201 O226 2.543 . S
Sm201 O227 2.450 . S
Sm201 O228 2.681 . S
Sm201 O229 2.464 . S
Sm201 O230 2.396 . S
C202 Sm200 2.846 . S
C202 C203 1.506 1_556 S
C202 O220 1.261 . S
C202 O221 1.242 . S
C203 C202 1.506 1_554 S
C203 C204 1.358 . S
C203 C208 1.382 . S
C204 C203 1.358 . S
C204 C205 1.385 . S
C204 H232 0.930 . S
C205 C204 1.385 . S
C205 C206 1.395 . S
C205 H233 0.929 . S
C206 C205 1.395 . S
C206 C207 1.335 . S
C207 C206 1.335 . S
C207 C208 1.398 . S
C207 H234 0.930 . S
C208 C203 1.382 . S
C208 C207 1.398 . S
C208 H235 0.929 . S
C209 O222 1.271 . S
C209 O223 1.251 . S
C210 O224 1.252 . S
C210 O225 1.272 . S
C211 Sm201 2.846 . S
C211 C212 1.506 . S
C211 O226 1.261 . S
C211 O227 1.242 . S
C212 C211 1.506 . S
C212 C213 1.358 . S
C212 C217 1.382 . S
C213 C212 1.358 . S
C213 C214 1.385 . S
C213 H236 0.930 . S
C214 C213 1.385 . S
C214 C215 1.395 . S
C214 H237 0.929 . S
C215 C214 1.395 . S
C215 C216 1.335 . S
C216 C215 1.335 . S
C216 C217 1.398 . S
C216 H238 0.930 . S
C217 C212 1.382 . S
C217 C216 1.398 . S
C217 H239 0.929 . S
C218 O228 1.271 . S
C218 O229 1.251 . S
C219 O230 1.252 . S
C219 O231 1.272 . S
O220 Sm200 2.543 . S
O220 C202 1.261 . S
O221 Sm200 2.450 . S
O221 C202 1.242 . S
O222 Sm200 2.681 . S
O222 Sm201 2.386 . S
O222 C209 1.271 . S
O223 Sm200 2.464 . S
O223 C209 1.251 . S
O224 Sm200 2.396 . S
O224 C210 1.252 . S
O225 Sm201 2.408 . S
O225 C210 1.272 . S
O226 Sm201 2.543 . S
O226 C211 1.261 . S
O227 Sm201 2.450 . S
O227 C211 1.242 . S
O228 Sm200 2.386 . S
O228 Sm201 2.681 . S
O228 C218 1.271 . S
O229 Sm201 2.464 . S
O229 C218 1.251 . S
O230 Sm201 2.396 . S
O230 C219 1.252 . S
O231 Sm200 2.408 . S
O231 C219 1.272 . S
H232 C204 0.930 . S
H233 C205 0.929 . S
H234 C207 0.930 . S
H235 C208 0.929 . S
H236 C213 0.930 . S
H237 C214 0.929 . S
H238 C216 0.930 . S
H239 C217 0.929 . S
Sm240 C242 2.846 . S
Sm240 O260 2.543 . S
Sm240 O261 2.450 . S
Sm240 O262 2.681 . S
Sm240 O263 2.464 . S
Sm240 O264 2.396 . S
Sm240 O268 2.386 . S
Sm240 O271 2.408 . S
Sm241 C251 2.846 . S
Sm241 O262 2.386 . S
Sm241 O265 2.408 . S
Sm241 O266 2.543 . S
Sm241 O267 2.450 . S
Sm241 O268 2.681 . S
Sm241 O269 2.464 . S
Sm241 O270 2.396 . S
C242 Sm240 2.846 . S
C242 C243 1.506 . S
C242 O260 1.261 . S
C242 O261 1.242 . S
C243 C242 1.506 . S
C243 C244 1.358 . S
C243 C248 1.382 . S
C244 C243 1.358 . S
C244 C245 1.385 . S
C244 H272 0.930 . S
C245 C244 1.385 . S
C245 C246 1.395 . S
C245 H273 0.929 . S
C246 C245 1.395 . S
C246 C247 1.335 . S
C247 C246 1.335 . S
C247 C248 1.398 . S
C247 H274 0.930 . S
C248 C243 1.382 . S
C248 C247 1.398 . S
C248 H275 0.929 . S
C249 O262 1.271 . S
C249 O263 1.251 . S
C250 O264 1.252 . S
C250 O265 1.272 . S
C251 Sm241 2.846 . S
C251 C252 1.506 . S
C251 O266 1.261 . S
C251 O267 1.242 . S
C252 C251 1.506 . S
C252 C253 1.358 . S
C252 C257 1.382 . S
C253 C252 1.358 . S
C253 C254 1.385 . S
C253 H276 0.930 . S
C254 C253 1.385 . S
C254 C255 1.395 . S
C254 H277 0.929 . S
C255 C254 1.395 . S
C255 C256 1.335 . S
C256 C255 1.335 . S
C256 C257 1.398 . S
C256 H278 0.930 . S
C257 C252 1.382 . S
C257 C256 1.398 . S
C257 H279 0.929 . S
C258 O268 1.271 . S
C258 O269 1.251 . S
C259 O270 1.252 . S
C259 O271 1.272 . S
O260 Sm240 2.543 . S
O260 C242 1.261 . S
O261 Sm240 2.450 . S
O261 C242 1.242 . S
O262 Sm240 2.681 . S
O262 Sm241 2.386 . S
O262 C249 1.271 . S
O263 Sm240 2.464 . S
O263 C249 1.251 . S
O264 Sm240 2.396 . S
O264 C250 1.252 . S
O265 Sm241 2.408 . S
O265 C250 1.272 . S
O266 Sm241 2.543 . S
O266 C251 1.261 . S
O267 Sm241 2.450 . S
O267 C251 1.242 . S
O268 Sm240 2.386 . S
O268 Sm241 2.681 . S
O268 C258 1.271 . S
O269 Sm241 2.464 . S
O269 C258 1.251 . S
O270 Sm241 2.396 . S
O270 C259 1.252 . S
O271 Sm240 2.408 . S
O271 C259 1.272 . S
H272 C244 0.930 . S
H273 C245 0.929 . S
H274 C247 0.930 . S
H275 C248 0.929 . S
H276 C253 0.930 . S
H277 C254 0.929 . S
H278 C256 0.930 . S
H279 C257 0.929 . S
Sm280 C282 2.846 . S
Sm280 O300 2.543 . S
Sm280 O301 2.450 . S
Sm280 O302 2.681 . S
Sm280 O303 2.464 . S
Sm280 O304 2.396 . S
Sm280 O308 2.386 . S
Sm280 O311 2.408 . S
Sm281 C291 2.846 . S
Sm281 O302 2.386 . S
Sm281 O305 2.408 . S
Sm281 O306 2.543 . S
Sm281 O307 2.450 . S
Sm281 O308 2.681 . S
Sm281 O309 2.464 . S
Sm281 O310 2.396 . S
C282 Sm280 2.846 . S
C282 C283 1.506 . S
C282 O300 1.261 . S
C282 O301 1.242 . S
C283 C282 1.506 . S
C283 C284 1.358 . S
C283 C288 1.382 . S
C284 C283 1.358 . S
C284 C285 1.385 . S
C284 H312 0.930 . S
C285 C284 1.385 . S
C285 C286 1.395 . S
C285 H313 0.929 . S
C286 C285 1.395 . S
C286 C287 1.335 . S
C287 C286 1.335 . S
C287 C288 1.398 . S
C287 H314 0.930 . S
C288 C283 1.382 . S
C288 C287 1.398 . S
C288 H315 0.929 . S
C289 O302 1.271 . S
C289 O303 1.251 . S
C290 O304 1.252 . S
C290 O305 1.272 . S
C291 Sm281 2.846 . S
C291 C292 1.506 . S
C291 O306 1.261 . S
C291 O307 1.242 . S
C292 C291 1.506 . S
C292 C293 1.358 . S
C292 C297 1.382 . S
C293 C292 1.358 . S
C293 C294 1.385 . S
C293 H316 0.930 . S
C294 C293 1.385 . S
C294 C295 1.395 . S
C294 H317 0.929 . S
C295 C294 1.395 . S
C295 C296 1.335 . S
C296 C295 1.335 . S
C296 C297 1.398 . S
C296 H318 0.930 . S
C297 C292 1.382 . S
C297 C296 1.398 . S
C297 H319 0.929 . S
C298 O308 1.271 . S
C298 O309 1.251 . S
C299 O310 1.252 . S
C299 O311 1.272 . S
O300 Sm280 2.543 . S
O300 C282 1.261 . S
O301 Sm280 2.450 . S
O301 C282 1.242 . S
O302 Sm280 2.681 . S
O302 Sm281 2.386 . S
O302 C289 1.271 . S
O303 Sm280 2.464 . S
O303 C289 1.251 . S
O304 Sm280 2.396 . S
O304 C290 1.252 . S
O305 Sm281 2.408 . S
O305 C290 1.272 . S
O306 Sm281 2.543 . S
O306 C291 1.261 . S
O307 Sm281 2.450 . S
O307 C291 1.242 . S
O308 Sm280 2.386 . S
O308 Sm281 2.681 . S
O308 C298 1.271 . S
O309 Sm281 2.464 . S
O309 C298 1.251 . S
O310 Sm281 2.396 . S
O310 C299 1.252 . S
O311 Sm280 2.408 . S
O311 C299 1.272 . S
H312 C284 0.930 . S
H313 C285 0.929 . S
H314 C287 0.930 . S
H315 C288 0.929 . S
H316 C293 0.930 . S
H317 C294 0.929 . S
H318 C296 0.930 . S
H319 C297 0.929 . S
Sm320 C322 2.846 . S
Sm320 O340 2.543 . S
Sm320 O341 2.450 . S
Sm320 O342 2.681 . S
Sm320 O343 2.464 . S
Sm320 O344 2.396 . S
Sm320 O348 2.386 . S
Sm320 O351 2.408 . S
Sm321 C331 2.846 . S
Sm321 O342 2.386 . S
Sm321 O345 2.408 . S
Sm321 O346 2.543 . S
Sm321 O347 2.450 . S
Sm321 O348 2.681 . S
Sm321 O349 2.464 . S
Sm321 O350 2.396 . S
C322 Sm320 2.846 . S
C322 C323 1.506 1_554 S
C322 O340 1.261 . S
C322 O341 1.242 . S
C323 C322 1.506 1_556 S
C323 C324 1.358 . S
C323 C328 1.382 . S
C324 C323 1.358 . S
C324 C325 1.385 . S
C324 H352 0.930 . S
C325 C324 1.385 . S
C325 C326 1.395 . S
C325 H353 0.929 . S
C326 C325 1.395 . S
C326 C327 1.335 . S
C327 C326 1.335 . S
C327 C328 1.398 . S
C327 H354 0.930 . S
C328 C323 1.382 . S
C328 C327 1.398 . S
C328 H355 0.929 . S
C329 O342 1.271 . S
C329 O343 1.251 . S
C330 O344 1.252 . S
C330 O345 1.272 . S
C331 Sm321 2.846 . S
C331 C332 1.506 . S
C331 O346 1.261 . S
C331 O347 1.242 . S
C332 C331 1.506 . S
C332 C333 1.358 . S
C332 C337 1.382 . S
C333 C332 1.358 . S
C333 C334 1.385 . S
C333 H356 0.930 . S
C334 C333 1.385 . S
C334 C335 1.395 . S
C334 H357 0.929 . S
C335 C334 1.395 . S
C335 C336 1.335 . S
C336 C335 1.335 . S
C336 C337 1.398 . S
C336 H358 0.930 . S
C337 C332 1.382 . S
C337 C336 1.398 . S
C337 H359 0.929 . S
C338 O348 1.271 . S
C338 O349 1.251 . S
C339 O350 1.252 . S
C339 O351 1.272 . S
O340 Sm320 2.543 . S
O340 C322 1.261 . S
O341 Sm320 2.450 . S
O341 C322 1.242 . S
O342 Sm320 2.681 . S
O342 Sm321 2.386 . S
O342 C329 1.271 . S
O343 Sm320 2.464 . S
O343 C329 1.251 . S
O344 Sm320 2.396 . S
O344 C330 1.252 . S
O345 Sm321 2.408 . S
O345 C330 1.272 . S
O346 Sm321 2.543 . S
O346 C331 1.261 . S
O347 Sm321 2.450 . S
O347 C331 1.242 . S
O348 Sm320 2.386 . S
O348 Sm321 2.681 . S
O348 C338 1.271 . S
O349 Sm321 2.464 . S
O349 C338 1.251 . S
O350 Sm321 2.396 . S
O350 C339 1.252 . S
O351 Sm320 2.408 . S
O351 C339 1.272 . S
H352 C324 0.930 . S
H353 C325 0.929 . S
H354 C327 0.930 . S
H355 C328 0.929 . S
H356 C333 0.930 . S
H357 C334 0.929 . S
H358 C336 0.930 . S
H359 C337 0.929 . S
Sm360 C362 2.846 . S
Sm360 O380 2.543 . S
Sm360 O381 2.450 . S
Sm360 O382 2.681 . S
Sm360 O383 2.464 . S
Sm360 O384 2.396 . S
Sm360 O388 2.386 . S
Sm360 O391 2.408 . S
Sm361 C371 2.846 . S
Sm361 O382 2.386 . S
Sm361 O385 2.408 . S
Sm361 O386 2.543 . S
Sm361 O387 2.450 . S
Sm361 O388 2.681 . S
Sm361 O389 2.464 . S
Sm361 O390 2.396 . S
C362 Sm360 2.846 . S
C362 C363 1.506 . S
C362 O380 1.261 . S
C362 O381 1.242 . S
C363 C362 1.506 . S
C363 C364 1.358 . S
C363 C368 1.382 . S
C364 C363 1.358 . S
C364 C365 1.385 . S
C364 H392 0.930 . S
C365 C364 1.385 . S
C365 C366 1.395 . S
C365 H393 0.929 . S
C366 C365 1.395 . S
C366 C367 1.335 . S
C367 C366 1.335 . S
C367 C368 1.398 . S
C367 H394 0.930 . S
C368 C363 1.382 . S
C368 C367 1.398 . S
C368 H395 0.929 . S
C369 O382 1.271 . S
C369 O383 1.251 . S
C370 O384 1.252 . S
C370 O385 1.272 . S
C371 Sm361 2.846 . S
C371 C372 1.506 . S
C371 O386 1.261 . S
C371 O387 1.242 . S
C372 C371 1.506 . S
C372 C373 1.358 . S
C372 C377 1.382 . S
C373 C372 1.358 . S
C373 C374 1.385 . S
C373 H396 0.930 . S
C374 C373 1.385 . S
C374 C375 1.395 . S
C374 H397 0.929 . S
C375 C374 1.395 . S
C375 C376 1.335 . S
C376 C375 1.335 . S
C376 C377 1.398 . S
C376 H398 0.930 . S
C377 C372 1.382 . S
C377 C376 1.398 . S
C377 H399 0.929 . S
C378 O388 1.271 . S
C378 O389 1.251 . S
C379 O390 1.252 . S
C379 O391 1.272 . S
O380 Sm360 2.543 . S
O380 C362 1.261 . S
O381 Sm360 2.450 . S
O381 C362 1.242 . S
O382 Sm360 2.681 . S
O382 Sm361 2.386 . S
O382 C369 1.271 . S
O383 Sm360 2.464 . S
O383 C369 1.251 . S
O384 Sm360 2.396 . S
O384 C370 1.252 . S
O385 Sm361 2.408 . S
O385 C370 1.272 . S
O386 Sm361 2.543 . S
O386 C371 1.261 . S
O387 Sm361 2.450 . S
O387 C371 1.242 . S
O388 Sm360 2.386 . S
O388 Sm361 2.681 . S
O388 C378 1.271 . S
O389 Sm361 2.464 . S
O389 C378 1.251 . S
O390 Sm361 2.396 . S
O390 C379 1.252 . S
O391 Sm360 2.408 . S
O391 C379 1.272 . S
H392 C364 0.930 . S
H393 C365 0.929 . S
H394 C367 0.930 . S
H395 C368 0.929 . S
H396 C373 0.930 . S
H397 C374 0.929 . S
H398 C376 0.930 . S
H399 C377 0.929 . S
Sm400 C402 2.846 . S
Sm400 O420 2.543 . S
Sm400 O421 2.450 . S
Sm400 O422 2.681 . S
Sm400 O423 2.464 . S
Sm400 O424 2.396 . S
Sm400 O428 2.386 . S
Sm400 O431 2.408 . S
Sm401 C411 2.846 . S
Sm401 O422 2.386 . S
Sm401 O425 2.408 . S
Sm401 O426 2.543 . S
Sm401 O427 2.450 . S
Sm401 O428 2.681 . S
Sm401 O429 2.464 . S
Sm401 O430 2.396 . S
C402 Sm400 2.846 . S
C402 C403 1.506 . S
C402 O420 1.261 . S
C402 O421 1.242 . S
C403 C402 1.506 . S
C403 C404 1.358 . S
C403 C408 1.382 . S
C404 C403 1.358 . S
C404 C405 1.385 . S
C404 H432 0.930 . S
C405 C404 1.385 . S
C405 C406 1.395 . S
C405 H433 0.929 . S
C406 C405 1.395 . S
C406 C407 1.335 . S
C407 C406 1.335 . S
C407 C408 1.398 . S
C407 H434 0.930 . S
C408 C403 1.382 . S
C408 C407 1.398 . S
C408 H435 0.929 . S
C409 O422 1.271 . S
C409 O423 1.251 . S
C410 O424 1.252 . S
C410 O425 1.272 . S
C411 Sm401 2.846 . S
C411 C412 1.506 . S
C411 O426 1.261 . S
C411 O427 1.242 . S
C412 C411 1.506 . S
C412 C413 1.358 . S
C412 C417 1.382 . S
C413 C412 1.358 . S
C413 C414 1.385 . S
C413 H436 0.930 . S
C414 C413 1.385 . S
C414 C415 1.395 . S
C414 H437 0.929 . S
C415 C414 1.395 . S
C415 C416 1.335 . S
C416 C415 1.335 . S
C416 C417 1.398 . S
C416 H438 0.930 . S
C417 C412 1.382 . S
C417 C416 1.398 . S
C417 H439 0.929 . S
C418 O428 1.271 . S
C418 O429 1.251 . S
C419 O430 1.252 . S
C419 O431 1.272 . S
O420 Sm400 2.543 . S
O420 C402 1.261 . S
O421 Sm400 2.450 . S
O421 C402 1.242 . S
O422 Sm400 2.681 . S
O422 Sm401 2.386 . S
O422 C409 1.271 . S
O423 Sm400 2.464 . S
O423 C409 1.251 . S
O424 Sm400 2.396 . S
O424 C410 1.252 . S
O425 Sm401 2.408 . S
O425 C410 1.272 . S
O426 Sm401 2.543 . S
O426 C411 1.261 . S
O427 Sm401 2.450 . S
O427 C411 1.242 . S
O428 Sm400 2.386 . S
O428 Sm401 2.681 . S
O428 C418 1.271 . S
O429 Sm401 2.464 . S
O429 C418 1.251 . S
O430 Sm401 2.396 . S
O430 C419 1.252 . S
O431 Sm400 2.408 . S
O431 C419 1.272 . S
H432 C404 0.930 . S
H433 C405 0.929 . S
H434 C407 0.930 . S
H435 C408 0.929 . S
H436 C413 0.930 . S
H437 C414 0.929 . S
H438 C416 0.930 . S
H439 C417 0.929 . S
Sm440 C442 2.846 . S
Sm440 O460 2.543 . S
Sm440 O461 2.450 . S
Sm440 O462 2.681 . S
Sm440 O463 2.464 . S
Sm440 O464 2.396 . S
Sm440 O468 2.386 . S
Sm440 O471 2.408 . S
Sm441 C451 2.846 . S
Sm441 O462 2.386 . S
Sm441 O465 2.408 . S
Sm441 O466 2.543 . S
Sm441 O467 2.450 . S
Sm441 O468 2.681 . S
Sm441 O469 2.464 . S
Sm441 O470 2.396 . S
C442 Sm440 2.846 . S
C442 C443 1.506 1_554 S
C442 O460 1.261 . S
C442 O461 1.242 . S
C443 C442 1.506 1_556 S
C443 C444 1.358 . S
C443 C448 1.382 . S
C444 C443 1.358 . S
C444 C445 1.385 . S
C444 H472 0.930 . S
C445 C444 1.385 . S
C445 C446 1.395 . S
C445 H473 0.929 . S
C446 C445 1.395 . S
C446 C447 1.335 . S
C447 C446 1.335 . S
C447 C448 1.398 . S
C447 H474 0.930 . S
C448 C443 1.382 . S
C448 C447 1.398 . S
C448 H475 0.929 . S
C449 O462 1.271 . S
C449 O463 1.251 . S
C450 O464 1.252 . S
C450 O465 1.272 . S
C451 Sm441 2.846 . S
C451 C452 1.506 . S
C451 O466 1.261 . S
C451 O467 1.242 . S
C452 C451 1.506 . S
C452 C453 1.358 . S
C452 C457 1.382 . S
C453 C452 1.358 . S
C453 C454 1.385 . S
C453 H476 0.930 . S
C454 C453 1.385 . S
C454 C455 1.395 . S
C454 H477 0.929 . S
C455 C454 1.395 . S
C455 C456 1.335 . S
C456 C455 1.335 . S
C456 C457 1.398 . S
C456 H478 0.930 . S
C457 C452 1.382 . S
C457 C456 1.398 . S
C457 H479 0.929 . S
C458 O468 1.271 . S
C458 O469 1.251 . S
C459 O470 1.252 . S
C459 O471 1.272 . S
O460 Sm440 2.543 . S
O460 C442 1.261 . S
O461 Sm440 2.450 . S
O461 C442 1.242 . S
O462 Sm440 2.681 . S
O462 Sm441 2.386 . S
O462 C449 1.271 . S
O463 Sm440 2.464 . S
O463 C449 1.251 . S
O464 Sm440 2.396 . S
O464 C450 1.252 . S
O465 Sm441 2.408 . S
O465 C450 1.272 . S
O466 Sm441 2.543 . S
O466 C451 1.261 . S
O467 Sm441 2.450 . S
O467 C451 1.242 . S
O468 Sm440 2.386 . S
O468 Sm441 2.681 . S
O468 C458 1.271 . S
O469 Sm441 2.464 . S
O469 C458 1.251 . S
O470 Sm441 2.396 . S
O470 C459 1.252 . S
O471 Sm440 2.408 . S
O471 C459 1.272 . S
H472 C444 0.930 . S
H473 C445 0.929 . S
H474 C447 0.930 . S
H475 C448 0.929 . S
H476 C453 0.930 . S
H477 C454 0.929 . S
H478 C456 0.930 . S
H479 C457 0.929 . S
C480 C481 1.349 . S
C480 C482 1.327 . S
C480 H505 0.950 . S
C481 C480 1.349 . S
C481 C497 1.349 . S
C482 C480 1.327 . S
C482 C501 1.429 . S
C482 H506 0.950 . S
C483 C500 1.574 . S
C483 C502 1.368 . S
C483 H507 0.949 . S
H484 C488 0.949 . S
C485 C486 1.349 . S
C485 C487 1.327 . S
C485 H508 0.950 . S
C486 C485 1.349 . S
C486 C498 1.349 . S
C487 C485 1.327 . S
C487 C503 1.429 . S
C487 H509 0.950 . S
C488 H484 0.949 . S
C488 C496 1.574 . S
C488 C504 1.368 . S
H489 C497 0.950 . S
H490 C495 0.950 . S
H491 C496 0.949 . S
H492 C498 0.950 . S
H493 C499 0.950 . S
H494 C500 0.949 . S
C495 H490 0.950 . S
C495 C497 1.327 . S
C495 C501 1.429 . S
C496 C488 1.574 . S
C496 H491 0.949 . S
C496 C502 1.368 . S
C497 C481 1.349 . S
C497 H489 0.950 . S
C497 C495 1.327 . S
C498 C486 1.349 . S
C498 H492 0.950 . S
C498 C499 1.327 . S
C499 H493 0.950 . S
C499 C498 1.327 . S
C499 C503 1.429 . S
C500 C483 1.574 . S
C500 H494 0.949 . S
C500 C504 1.368 . S
C501 C482 1.429 . S
C501 C495 1.429 . S
C501 C502 1.523 . S
C502 C483 1.368 . S
C502 C496 1.368 . S
C502 C501 1.523 . S
C503 C487 1.429 . S
C503 C499 1.429 . S
C503 C504 1.523 . S
C504 C488 1.368 . S
C504 C500 1.368 . S
C504 C503 1.523 . S
H505 C480 0.950 . S
H506 C482 0.950 . S
H507 C483 0.949 . S
H508 C485 0.950 . S
H509 C487 0.950 . S
C510 C511 1.349 . S
C510 C512 1.327 . S
C510 H535 0.950 . S
C511 C510 1.349 . S
C511 C527 1.349 . S
C512 C510 1.327 . S
C512 C531 1.429 . S
C512 H536 0.950 . S
C513 C530 1.574 . S
C513 C532 1.368 . S
C513 H537 0.949 . S
H514 C518 0.949 . S
C515 C516 1.349 . S
C515 C517 1.327 . S
C515 H538 0.950 . S
C516 C515 1.349 . S
C516 C528 1.349 . S
C517 C515 1.327 . S
C517 C533 1.429 . S
C517 H539 0.950 . S
C518 H514 0.949 . S
C518 C526 1.574 . S
C518 C534 1.368 . S
H519 C527 0.950 . S
H520 C525 0.950 . S
H521 C526 0.949 . S
H522 C528 0.950 . S
H523 C529 0.950 . S
H524 C530 0.949 . S
C525 H520 0.950 . S
C525 C527 1.327 . S
C525 C531 1.429 . S
C526 C518 1.574 . S
C526 H521 0.949 . S
C526 C532 1.368 . S
C527 C511 1.349 . S
C527 H519 0.950 . S
C527 C525 1.327 . S
C528 C516 1.349 . S
C528 H522 0.950 . S
C528 C529 1.327 . S
C529 H523 0.950 . S
C529 C528 1.327 . S
C529 C533 1.429 . S
C530 C513 1.574 . S
C530 H524 0.949 . S
C530 C534 1.368 . S
C531 C512 1.429 . S
C531 C525 1.429 . S
C531 C532 1.523 . S
C532 C513 1.368 . S
C532 C526 1.368 . S
C532 C531 1.523 . S
C533 C517 1.429 . S
C533 C529 1.429 . S
C533 C534 1.523 . S
C534 C518 1.368 . S
C534 C530 1.368 . S
C534 C533 1.523 . S
H535 C510 0.950 . S
H536 C512 0.950 . S
H537 C513 0.949 . S
H538 C515 0.950 . S
H539 C517 0.950 . S
C540 C541 1.349 . S
C540 C542 1.327 . S
C540 H565 0.950 . S
C541 C540 1.349 . S
C541 C557 1.349 . S
C542 C540 1.327 . S
C542 C561 1.429 . S
C542 H566 0.950 . S
C543 C560 1.574 . S
C543 C562 1.368 . S
C543 H567 0.949 . S
H544 C548 0.949 . S
C545 C546 1.349 . S
C545 C547 1.327 . S
C545 H568 0.950 . S
C546 C545 1.349 . S
C546 C558 1.349 . S
C547 C545 1.327 . S
C547 C563 1.429 . S
C547 H569 0.950 . S
C548 H544 0.949 . S
C548 C556 1.574 . S
C548 C564 1.368 . S
H549 C557 0.950 . S
H550 C555 0.950 . S
H551 C556 0.949 . S
H552 C558 0.950 . S
H553 C559 0.950 . S
H554 C560 0.949 . S
C555 H550 0.950 . S
C555 C557 1.327 . S
C555 C561 1.429 . S
C556 C548 1.574 . S
C556 H551 0.949 . S
C556 C562 1.368 . S
C557 C541 1.349 . S
C557 H549 0.950 . S
C557 C555 1.327 . S
C558 C546 1.349 . S
C558 H552 0.950 . S
C558 C559 1.327 . S
C559 H553 0.950 . S
C559 C558 1.327 . S
C559 C563 1.429 . S
C560 C543 1.574 . S
C560 H554 0.949 . S
C560 C564 1.368 . S
C561 C542 1.429 . S
C561 C555 1.429 . S
C561 C562 1.523 . S
C562 C543 1.368 . S
C562 C556 1.368 . S
C562 C561 1.523 . S
C563 C547 1.429 . S
C563 C559 1.429 . S
C563 C564 1.523 . S
C564 C548 1.368 . S
C564 C560 1.368 . S
C564 C563 1.523 . S
H565 C540 0.950 . S
H566 C542 0.950 . S
H567 C543 0.949 . S
H568 C545 0.950 . S
H569 C547 0.950 . S
C570 C571 1.349 . S
C570 C572 1.327 . S
C570 H595 0.950 . S
C571 C570 1.349 . S
C571 C587 1.349 . S
C572 C570 1.327 . S
C572 C591 1.429 . S
C572 H596 0.950 . S
C573 C590 1.574 . S
C573 C592 1.368 . S
C573 H597 0.949 . S
H574 C578 0.949 . S
C575 C576 1.349 . S
C575 C577 1.327 . S
C575 H598 0.950 . S
C576 C575 1.349 . S
C576 C588 1.349 . S
C577 C575 1.327 . S
C577 C593 1.429 . S
C577 H599 0.950 . S
C578 H574 0.949 . S
C578 C586 1.574 . S
C578 C594 1.368 . S
H579 C587 0.950 . S
H580 C585 0.950 . S
H581 C586 0.949 . S
H582 C588 0.950 . S
H583 C589 0.950 . S
H584 C590 0.949 . S
C585 H580 0.950 . S
C585 C587 1.327 . S
C585 C591 1.429 . S
C586 C578 1.574 . S
C586 H581 0.949 . S
C586 C592 1.368 . S
C587 C571 1.349 . S
C587 H579 0.950 . S
C587 C585 1.327 . S
C588 C576 1.349 . S
C588 H582 0.950 . S
C588 C589 1.327 . S
C589 H583 0.950 . S
C589 C588 1.327 . S
C589 C593 1.429 . S
C590 C573 1.574 . S
C590 H584 0.949 . S
C590 C594 1.368 . S
C591 C572 1.429 . S
C591 C585 1.429 . S
C591 C592 1.523 . S
C592 C573 1.368 . S
C592 C586 1.368 . S
C592 C591 1.523 . S
C593 C577 1.429 . S
C593 C589 1.429 . S
C593 C594 1.523 . S
C594 C578 1.368 . S
C594 C590 1.368 . S
C594 C593 1.523 . S
H595 C570 0.950 . S
H596 C572 0.950 . S
H597 C573 0.949 . S
H598 C575 0.950 . S
H599 C577 0.950 . S
C600 C601 1.349 . S
C600 C602 1.327 . S
C600 H625 0.950 . S
C601 C600 1.349 . S
C601 C617 1.349 . S
C602 C600 1.327 . S
C602 C621 1.429 . S
C602 H626 0.950 . S
C603 C620 1.574 . S
C603 C622 1.368 . S
C603 H627 0.949 . S
H604 C608 0.949 . S
C605 C606 1.349 . S
C605 C607 1.327 . S
C605 H628 0.950 . S
C606 C605 1.349 . S
C606 C618 1.349 . S
C607 C605 1.327 . S
C607 C623 1.429 . S
C607 H629 0.950 . S
C608 H604 0.949 . S
C608 C616 1.574 . S
C608 C624 1.368 . S
H609 C617 0.950 . S
H610 C615 0.950 . S
H611 C616 0.949 . S
H612 C618 0.950 . S
H613 C619 0.950 . S
H614 C620 0.949 . S
C615 H610 0.950 . S
C615 C617 1.327 . S
C615 C621 1.429 . S
C616 C608 1.574 . S
C616 H611 0.949 . S
C616 C622 1.368 . S
C617 C601 1.349 . S
C617 H609 0.950 . S
C617 C615 1.327 . S
C618 C606 1.349 . S
C618 H612 0.950 . S
C618 C619 1.327 . S
C619 H613 0.950 . S
C619 C618 1.327 . S
C619 C623 1.429 . S
C620 C603 1.574 . S
C620 H614 0.949 . S
C620 C624 1.368 . S
C621 C602 1.429 . S
C621 C615 1.429 . S
C621 C622 1.523 . S
C622 C603 1.368 . S
C622 C616 1.368 . S
C622 C621 1.523 . S
C623 C607 1.429 . S
C623 C619 1.429 . S
C623 C624 1.523 . S
C624 C608 1.368 . S
C624 C620 1.368 . S
C624 C623 1.523 . S
H625 C600 0.950 . S
H626 C602 0.950 . S
H627 C603 0.949 . S
H628 C605 0.950 . S
H629 C607 0.950 . S
C630 C631 1.349 . S
C630 C632 1.327 . S
C630 H655 0.950 . S
C631 C630 1.349 . S
C631 C647 1.349 . S
C632 C630 1.327 . S
C632 C651 1.429 . S
C632 H656 0.950 . S
C633 C650 1.574 . S
C633 C652 1.368 . S
C633 H657 0.949 . S
H634 C638 0.949 . S
C635 C636 1.349 . S
C635 C637 1.327 . S
C635 H658 0.950 . S
C636 C635 1.349 . S
C636 C648 1.349 . S
C637 C635 1.327 . S
C637 C653 1.429 . S
C637 H659 0.950 . S
C638 H634 0.949 . S
C638 C646 1.574 . S
C638 C654 1.368 . S
H639 C647 0.950 . S
H640 C645 0.950 . S
H641 C646 0.949 . S
H642 C648 0.950 . S
H643 C649 0.950 . S
H644 C650 0.949 . S
C645 H640 0.950 . S
C645 C647 1.327 . S
C645 C651 1.429 . S
C646 C638 1.574 . S
C646 H641 0.949 . S
C646 C652 1.368 . S
C647 C631 1.349 . S
C647 H639 0.950 . S
C647 C645 1.327 . S
C648 C636 1.349 . S
C648 H642 0.950 . S
C648 C649 1.327 . S
C649 H643 0.950 . S
C649 C648 1.327 . S
C649 C653 1.429 . S
C650 C633 1.574 . S
C650 H644 0.949 . S
C650 C654 1.368 . S
C651 C632 1.429 . S
C651 C645 1.429 . S
C651 C652 1.523 . S
C652 C633 1.368 . S
C652 C646 1.368 . S
C652 C651 1.523 . S
C653 C637 1.429 . S
C653 C649 1.429 . S
C653 C654 1.523 . S
C654 C638 1.368 . S
C654 C650 1.368 . S
C654 C653 1.523 . S
H655 C630 0.950 . S
H656 C632 0.950 . S
H657 C633 0.949 . S
H658 C635 0.950 . S
H659 C637 0.950 . S
C660 C661 1.349 . S
C660 C662 1.327 . S
C660 H685 0.950 . S
C661 C660 1.349 . S
C661 C677 1.349 . S
C662 C660 1.327 . S
C662 C681 1.429 . S
C662 H686 0.950 . S
C663 C680 1.574 1_556 S
C663 C682 1.368 . S
C663 H687 0.949 . S
H664 C668 0.949 . S
C665 C666 1.349 . S
C665 C667 1.327 . S
C665 H688 0.950 . S
C666 C665 1.349 . S
C666 C678 1.349 . S
C667 C665 1.327 . S
C667 C683 1.429 . S
C667 H689 0.950 . S
C668 H664 0.949 . S
C668 C676 1.574 1_554 S
C668 C684 1.368 . S
H669 C677 0.950 . S
H670 C675 0.950 . S
H671 C676 0.949 . S
H672 C678 0.950 . S
H673 C679 0.950 . S
H674 C680 0.949 . S
C675 H670 0.950 . S
C675 C677 1.327 . S
C675 C681 1.429 . S
C676 C668 1.574 1_556 S
C676 H671 0.949 . S
C676 C682 1.368 . S
C677 C661 1.349 . S
C677 H669 0.950 . S
C677 C675 1.327 . S
C678 C666 1.349 . S
C678 H672 0.950 . S
C678 C679 1.327 . S
C679 H673 0.950 . S
C679 C678 1.327 . S
C679 C683 1.429 . S
C680 C663 1.574 1_554 S
C680 H674 0.949 . S
C680 C684 1.368 . S
C681 C662 1.429 . S
C681 C675 1.429 . S
C681 C682 1.523 . S
C682 C663 1.368 . S
C682 C676 1.368 . S
C682 C681 1.523 . S
C683 C667 1.429 . S
C683 C679 1.429 . S
C683 C684 1.523 . S
C684 C668 1.368 . S
C684 C680 1.368 . S
C684 C683 1.523 . S
H685 C660 0.950 . S
H686 C662 0.950 . S
H687 C663 0.949 . S
H688 C665 0.950 . S
H689 C667 0.950 . S
C690 C691 1.349 . S
C690 C692 1.327 . S
C690 H715 0.950 . S
C691 C690 1.349 . S
C691 C707 1.349 . S
C692 C690 1.327 . S
C692 C711 1.429 . S
C692 H716 0.950 . S
C693 C710 1.574 . S
C693 C712 1.368 . S
C693 H717 0.949 . S
H694 C698 0.949 . S
C695 C696 1.349 . S
C695 C697 1.327 . S
C695 H718 0.950 . S
C696 C695 1.349 . S
C696 C708 1.349 . S
C697 C695 1.327 . S
C697 C713 1.429 . S
C697 H719 0.950 . S
C698 H694 0.949 . S
C698 C706 1.574 . S
C698 C714 1.368 . S
H699 C707 0.950 . S
H700 C705 0.950 . S
H701 C706 0.949 . S
H702 C708 0.950 . S
H703 C709 0.950 . S
H704 C710 0.949 . S
C705 H700 0.950 . S
C705 C707 1.327 . S
C705 C711 1.429 . S
C706 C698 1.574 . S
C706 H701 0.949 . S
C706 C712 1.368 . S
C707 C691 1.349 . S
C707 H699 0.950 . S
C707 C705 1.327 . S
C708 C696 1.349 . S
C708 H702 0.950 . S
C708 C709 1.327 . S
C709 H703 0.950 . S
C709 C708 1.327 . S
C709 C713 1.429 . S
C710 C693 1.574 . S
C710 H704 0.949 . S
C710 C714 1.368 . S
C711 C692 1.429 . S
C711 C705 1.429 . S
C711 C712 1.523 . S
C712 C693 1.368 . S
C712 C706 1.368 . S
C712 C711 1.523 . S
C713 C697 1.429 . S
C713 C709 1.429 . S
C713 C714 1.523 . S
C714 C698 1.368 . S
C714 C710 1.368 . S
C714 C713 1.523 . S
H715 C690 0.950 . S
H716 C692 0.950 . S
H717 C693 0.949 . S
H718 C695 0.950 . S
H719 C697 0.950 . S
C720 C721 1.349 . S
C720 C722 1.327 . S
C720 H745 0.950 . S
C721 C720 1.349 . S
C721 C737 1.349 . S
C722 C720 1.327 . S
C722 C741 1.429 . S
C722 H746 0.950 . S
C723 C740 1.574 . S
C723 C742 1.368 . S
C723 H747 0.949 . S
H724 C728 0.949 . S
C725 C726 1.349 . S
C725 C727 1.327 . S
C725 H748 0.950 . S
C726 C725 1.349 . S
C726 C738 1.349 . S
C727 C725 1.327 . S
C727 C743 1.429 . S
C727 H749 0.950 . S
C728 H724 0.949 . S
C728 C736 1.574 . S
C728 C744 1.368 . S
H729 C737 0.950 . S
H730 C735 0.950 . S
H731 C736 0.949 . S
H732 C738 0.950 . S
H733 C739 0.950 . S
H734 C740 0.949 . S
C735 H730 0.950 . S
C735 C737 1.327 . S
C735 C741 1.429 . S
C736 C728 1.574 . S
C736 H731 0.949 . S
C736 C742 1.368 . S
C737 C721 1.349 . S
C737 H729 0.950 . S
C737 C735 1.327 . S
C738 C726 1.349 . S
C738 H732 0.950 . S
C738 C739 1.327 . S
C739 H733 0.950 . S
C739 C738 1.327 . S
C739 C743 1.429 . S
C740 C723 1.574 . S
C740 H734 0.949 . S
C740 C744 1.368 . S
C741 C722 1.429 . S
C741 C735 1.429 . S
C741 C742 1.523 . S
C742 C723 1.368 . S
C742 C736 1.368 . S
C742 C741 1.523 . S
C743 C727 1.429 . S
C743 C739 1.429 . S
C743 C744 1.523 . S
C744 C728 1.368 . S
C744 C740 1.368 . S
C744 C743 1.523 . S
H745 C720 0.950 . S
H746 C722 0.950 . S
H747 C723 0.949 . S
H748 C725 0.950 . S
H749 C727 0.950 . S
C750 C751 1.349 . S
C750 C752 1.327 . S
C750 H775 0.950 . S
C751 C750 1.349 . S
C751 C767 1.349 . S
C752 C750 1.327 . S
C752 C771 1.429 . S
C752 H776 0.950 . S
C753 C770 1.574 1_556 S
C753 C772 1.368 . S
C753 H777 0.949 . S
H754 C758 0.949 . S
C755 C756 1.349 . S
C755 C757 1.327 . S
C755 H778 0.950 . S
C756 C755 1.349 . S
C756 C768 1.349 . S
C757 C755 1.327 . S
C757 C773 1.429 . S
C757 H779 0.950 . S
C758 H754 0.949 . S
C758 C766 1.574 1_554 S
C758 C774 1.368 . S
H759 C767 0.950 . S
H760 C765 0.950 . S
H761 C766 0.949 . S
H762 C768 0.950 . S
H763 C769 0.950 . S
H764 C770 0.949 . S
C765 H760 0.950 . S
C765 C767 1.327 . S
C765 C771 1.429 . S
C766 C758 1.574 1_556 S
C766 H761 0.949 . S
C766 C772 1.368 . S
C767 C751 1.349 . S
C767 H759 0.950 . S
C767 C765 1.327 . S
C768 C756 1.349 . S
C768 H762 0.950 . S
C768 C769 1.327 . S
C769 H763 0.950 . S
C769 C768 1.327 . S
C769 C773 1.429 . S
C770 C753 1.574 1_554 S
C770 H764 0.949 . S
C770 C774 1.368 . S
C771 C752 1.429 . S
C771 C765 1.429 . S
C771 C772 1.523 . S
C772 C753 1.368 . S
C772 C766 1.368 . S
C772 C771 1.523 . S
C773 C757 1.429 . S
C773 C769 1.429 . S
C773 C774 1.523 . S
C774 C758 1.368 . S
C774 C770 1.368 . S
C774 C773 1.523 . S
H775 C750 0.950 . S
H776 C752 0.950 . S
H777 C753 0.949 . S
H778 C755 0.950 . S
H779 C757 0.950 . S
C780 C781 1.349 . S
C780 C782 1.327 . S
C780 H805 0.950 . S
C781 C780 1.349 . S
C781 C797 1.349 . S
C782 C780 1.327 . S
C782 C801 1.429 . S
C782 H806 0.950 . S
C783 C800 1.574 . S
C783 C802 1.368 . S
C783 H807 0.949 . S
H784 C788 0.949 . S
C785 C786 1.349 . S
C785 C787 1.327 . S
C785 H808 0.950 . S
C786 C785 1.349 . S
C786 C798 1.349 . S
C787 C785 1.327 . S
C787 C803 1.429 . S
C787 H809 0.950 . S
C788 H784 0.949 . S
C788 C796 1.574 . S
C788 C804 1.368 . S
H789 C797 0.950 . S
H790 C795 0.950 . S
H791 C796 0.949 . S
H792 C798 0.950 . S
H793 C799 0.950 . S
H794 C800 0.949 . S
C795 H790 0.950 . S
C795 C797 1.327 . S
C795 C801 1.429 . S
C796 C788 1.574 . S
C796 H791 0.949 . S
C796 C802 1.368 . S
C797 C781 1.349 . S
C797 H789 0.950 . S
C797 C795 1.327 . S
C798 C786 1.349 . S
C798 H792 0.950 . S
C798 C799 1.327 . S
C799 H793 0.950 . S
C799 C798 1.327 . S
C799 C803 1.429 . S
C800 C783 1.574 . S
C800 H794 0.949 . S
C800 C804 1.368 . S
C801 C782 1.429 . S
C801 C795 1.429 . S
C801 C802 1.523 . S
C802 C783 1.368 . S
C802 C796 1.368 . S
C802 C801 1.523 . S
C803 C787 1.429 . S
C803 C799 1.429 . S
C803 C804 1.523 . S
C804 C788 1.368 . S
C804 C800 1.368 . S
C804 C803 1.523 . S
H805 C780 0.950 . S
H806 C782 0.950 . S
H807 C783 0.949 . S
H808 C785 0.950 . S
H809 C787 0.950 . S
C810 C811 1.349 . S
C810 C812 1.327 . S
C810 H835 0.950 . S
C811 C810 1.349 . S
C811 C827 1.349 . S
C812 C810 1.327 . S
C812 C831 1.429 . S
C812 H836 0.950 . S
C813 C830 1.574 . S
C813 C832 1.368 . S
C813 H837 0.949 . S
H814 C818 0.949 . S
C815 C816 1.349 . S
C815 C817 1.327 . S
C815 H838 0.950 . S
C816 C815 1.349 . S
C816 C828 1.349 . S
C817 C815 1.327 . S
C817 C833 1.429 . S
C817 H839 0.950 . S
C818 H814 0.949 . S
C818 C826 1.574 . S
C818 C834 1.368 . S
H819 C827 0.950 . S
H820 C825 0.950 . S
H821 C826 0.949 . S
H822 C828 0.950 . S
H823 C829 0.950 . S
H824 C830 0.949 . S
C825 H820 0.950 . S
C825 C827 1.327 . S
C825 C831 1.429 . S
C826 C818 1.574 . S
C826 H821 0.949 . S
C826 C832 1.368 . S
C827 C811 1.349 . S
C827 H819 0.950 . S
C827 C825 1.327 . S
C828 C816 1.349 . S
C828 H822 0.950 . S
C828 C829 1.327 . S
C829 H823 0.950 . S
C829 C828 1.327 . S
C829 C833 1.429 . S
C830 C813 1.574 . S
C830 H824 0.949 . S
C830 C834 1.368 . S
C831 C812 1.429 . S
C831 C825 1.429 . S
C831 C832 1.523 . S
C832 C813 1.368 . S
C832 C826 1.368 . S
C832 C831 1.523 . S
C833 C817 1.429 . S
C833 C829 1.429 . S
C833 C834 1.523 . S
C834 C818 1.368 . S
C834 C830 1.368 . S
C834 C833 1.523 . S
H835 C810 0.950 . S
H836 C812 0.950 . S
H837 C813 0.949 . S
H838 C815 0.950 . S
H839 C817 0.950 . S
C840 C841 1.349 . S
C840 C842 1.327 . S
C840 H865 0.950 . S
C841 C840 1.349 . S
C841 C857 1.349 . S
C842 C840 1.327 . S
C842 C861 1.429 . S
C842 H866 0.950 . S
C843 C860 1.574 1_556 S
C843 C862 1.368 1_545 S
C843 H867 0.949 . S
H844 C848 0.949 . S
C845 C846 1.349 . S
C845 C847 1.327 . S
C845 H868 0.950 . S
C846 C845 1.349 . S
C846 C858 1.349 . S
C847 C845 1.327 . S
C847 C863 1.429 . S
C847 H869 0.950 . S
C848 H844 0.949 . S
C848 C856 1.574 1_554 S
C848 C864 1.368 1_565 S
H849 C857 0.950 . S
H850 C855 0.908 1_545 S
H851 C856 0.949 . S
H852 C858 0.950 . S
H853 C859 0.908 1_565 S
H854 C860 0.949 . S
C855 H850 0.908 1_565 S
C855 C857 1.327 . S
C855 C861 1.429 . S
C856 C848 1.574 1_556 S
C856 H851 0.949 . S
C856 C862 1.368 . S
C857 C841 1.349 . S
C857 H849 0.950 . S
C857 C855 1.327 . S
C858 C846 1.349 . S
C858 H852 0.950 . S
C858 C859 1.327 . S
C859 H853 0.908 1_545 S
C859 C858 1.327 . S
C859 C863 1.429 . S
C860 C843 1.574 1_554 S
C860 H854 0.949 . S
C860 C864 1.368 . S
C861 C842 1.429 . S
C861 C855 1.429 . S
C861 C862 1.523 . S
C862 C843 1.368 1_565 S
C862 C856 1.368 . S
C862 C861 1.523 . S
C863 C847 1.429 . S
C863 C859 1.429 . S
C863 C864 1.523 . S
C864 C848 1.368 1_545 S
C864 C860 1.368 . S
C864 C863 1.523 . S
H865 C840 0.950 . S
H866 C842 0.950 . S
H867 C843 0.949 . S
H868 C845 0.950 . S
H869 C847 0.950 . S
C870 C871 1.349 . S
C870 C872 1.327 . S
C870 H895 0.950 . S
C871 C870 1.349 . S
C871 C887 1.349 . S
C872 C870 1.327 . S
C872 C891 1.429 . S
C872 H896 0.950 . S
C873 C890 1.574 . S
C873 C892 1.368 . S
C873 H897 0.949 . S
H874 C878 0.949 . S
C875 C876 1.349 . S
C875 C877 1.327 . S
C875 H898 0.950 . S
C876 C875 1.349 . S
C876 C888 1.349 . S
C877 C875 1.327 . S
C877 C893 1.429 . S
C877 H899 0.950 . S
C878 H874 0.949 . S
C878 C886 1.574 . S
C878 C894 1.368 . S
H879 C887 0.950 . S
H880 C885 0.950 . S
H881 C886 0.949 . S
H882 C888 0.950 . S
H883 C889 0.950 . S
H884 C890 0.949 . S
C885 H880 0.950 . S
C885 C887 1.327 . S
C885 C891 1.429 . S
C886 C878 1.574 . S
C886 H881 0.949 . S
C886 C892 1.368 . S
C887 C871 1.349 . S
C887 H879 0.950 . S
C887 C885 1.327 . S
C888 C876 1.349 . S
C888 H882 0.950 . S
C888 C889 1.327 . S
C889 H883 0.950 . S
C889 C888 1.327 . S
C889 C893 1.429 . S
C890 C873 1.574 . S
C890 H884 0.949 . S
C890 C894 1.368 . S
C891 C872 1.429 . S
C891 C885 1.429 . S
C891 C892 1.523 . S
C892 C873 1.368 . S
C892 C886 1.368 . S
C892 C891 1.523 . S
C893 C877 1.429 . S
C893 C889 1.429 . S
C893 C894 1.523 . S
C894 C878 1.368 . S
C894 C890 1.368 . S
C894 C893 1.523 . S
H895 C870 0.950 . S
H896 C872 0.950 . S
H897 C873 0.949 . S
H898 C875 0.950 . S
H899 C877 0.950 . S
C900 C901 1.349 . S
C900 C902 1.327 . S
C900 H925 0.950 . S
C901 C900 1.349 . S
C901 C917 1.349 . S
C902 C900 1.327 . S
C902 C921 1.429 . S
C902 H926 0.950 . S
C903 C920 1.574 1_455 S
C903 C922 1.368 . S
C903 H927 0.949 . S
H904 C908 0.949 . S
C905 C906 1.349 . S
C905 C907 1.327 . S
C905 H928 0.950 . S
C906 C905 1.349 . S
C906 C918 1.349 . S
C907 C905 1.327 . S
C907 C923 1.429 . S
C907 H929 0.950 . S
C908 H904 0.949 . S
C908 C916 1.574 1_655 S
C908 C924 1.368 . S
H909 C917 0.950 . S
H910 C915 0.950 . S
H911 C916 0.949 . S
H912 C918 0.950 . S
H913 C919 0.950 . S
H914 C920 0.949 . S
C915 H910 0.950 . S
C915 C917 1.327 . S
C915 C921 1.429 . S
C916 C908 1.574 1_455 S
C916 H911 0.949 . S
C916 C922 1.368 . S
C917 C901 1.349 . S
C917 H909 0.950 . S
C917 C915 1.327 . S
C918 C906 1.349 . S
C918 H912 0.950 . S
C918 C919 1.327 . S
C919 H913 0.950 . S
C919 C918 1.327 . S
C919 C923 1.429 . S
C920 C903 1.574 1_655 S
C920 H914 0.949 . S
C920 C924 1.368 . S
C921 C902 1.429 . S
C921 C915 1.429 . S
C921 C922 1.523 . S
C922 C903 1.368 . S
C922 C916 1.368 . S
C922 C921 1.523 . S
C923 C907 1.429 . S
C923 C919 1.429 . S
C923 C924 1.523 . S
C924 C908 1.368 . S
C924 C920 1.368 . S
C924 C923 1.523 . S
H925 C900 0.950 . S
H926 C902 0.950 . S
H927 C903 0.949 . S
H928 C905 0.950 . S
H929 C907 0.950 . S
C930 C931 1.349 . S
C930 C932 1.327 . S
C930 H955 0.950 . S
C931 C930 1.349 . S
C931 C947 1.349 . S
C932 C930 1.327 . S
C932 C951 1.429 . S
C932 H956 0.950 . S
C933 C950 1.574 1_554 S
C933 C952 1.368 1_545 S
C933 H957 0.949 . S
H934 C938 0.949 . S
C935 C936 1.349 . S
C935 C937 1.327 . S
C935 H958 0.950 . S
C936 C935 1.349 . S
C936 C948 1.349 . S
C937 C935 1.327 . S
C937 C953 1.429 . S
C937 H959 0.950 . S
C938 H934 0.949 . S
C938 C946 1.574 1_556 S
C938 C954 1.368 1_565 S
H939 C947 0.950 . S
H940 C945 0.950 . S
H941 C946 0.949 . S
H942 C948 0.950 . S
H943 C949 0.950 . S
H944 C950 0.949 . S
C945 H940 0.950 . S
C945 C947 1.327 . S
C945 C951 1.429 . S
C946 C938 1.574 1_554 S
C946 H941 0.949 . S
C946 C952 1.368 . S
C947 C931 1.349 . S
C947 H939 0.950 . S
C947 C945 1.327 . S
C948 C936 1.349 . S
C948 H942 0.950 . S
C948 C949 1.327 . S
C949 H943 0.950 . S
C949 C948 1.327 . S
C949 C953 1.429 . S
C950 C933 1.574 1_556 S
C950 H944 0.949 . S
C950 C954 1.368 . S
C951 C932 1.429 . S
C951 C945 1.429 . S
C951 C952 1.523 . S
C952 C933 1.368 1_565 S
C952 C946 1.368 . S
C952 C951 1.523 . S
C953 C937 1.429 . S
C953 C949 1.429 . S
C953 C954 1.523 . S
C954 C938 1.368 1_545 S
C954 C950 1.368 . S
C954 C953 1.523 . S
H955 C930 0.950 . S
H956 C932 0.950 . S
H957 C933 0.949 . S
H958 C935 0.950 . S
H959 C937 0.950 . S
C960 C961 1.349 . S
C960 C962 1.327 . S
C960 H985 0.950 . S
C961 C960 1.349 . S
C961 C977 1.349 . S
C962 C960 1.327 . S
C962 C981 1.429 . S
C962 H986 0.950 . S
C963 C980 1.574 . S
C963 C982 1.368 . S
C963 H987 0.949 . S
H964 C968 0.949 . S
C965 C966 1.349 . S
C965 C967 1.327 . S
C965 H988 0.950 . S
C966 C965 1.349 . S
C966 C978 1.349 . S
C967 C965 1.327 . S
C967 C983 1.429 . S
C967 H989 0.950 . S
C968 H964 0.949 . S
C968 C976 1.574 . S
C968 C984 1.368 . S
H969 C977 0.950 . S
H970 C975 0.950 . S
H971 C976 0.949 . S
H972 C978 0.950 . S
H973 C979 0.950 . S
H974 C980 0.949 . S
C975 H970 0.950 . S
C975 C977 1.327 . S
C975 C981 1.429 . S
C976 C968 1.574 . S
C976 H971 0.949 . S
C976 C982 1.368 . S
C977 C961 1.349 . S
C977 H969 0.950 . S
C977 C975 1.327 . S
C978 C966 1.349 . S
C978 H972 0.950 . S
C978 C979 1.327 . S
C979 H973 0.950 . S
C979 C978 1.327 . S
C979 C983 1.429 . S
C980 C963 1.574 . S
C980 H974 0.949 . S
C980 C984 1.368 . S
C981 C962 1.429 . S
C981 C975 1.429 . S
C981 C982 1.523 . S
C982 C963 1.368 . S
C982 C976 1.368 . S
C982 C981 1.523 . S
C983 C967 1.429 . S
C983 C979 1.429 . S
C983 C984 1.523 . S
C984 C968 1.368 . S
C984 C980 1.368 . S
C984 C983 1.523 . S
H985 C960 0.950 . S
H986 C962 0.950 . S
H987 C963 0.949 . S
H988 C965 0.950 . S
H989 C967 0.950 . S
C990 C991 1.349 . S
C990 C992 1.327 . S
C990 H1015 0.950 . S
C991 C990 1.349 . S
C991 C1007 1.349 . S
C992 C990 1.327 . S
C992 C1011 1.429 . S
C992 H1016 0.950 . S
C993 C1010 1.574 . S
C993 C1012 1.368 1_655 S
C993 H1017 0.949 . S
H994 C998 0.949 . S
C995 C996 1.349 . S
C995 C997 1.327 . S
C995 H1018 0.950 . S
C996 C995 1.349 . S
C996 C1008 1.349 . S
C997 C995 1.327 . S
C997 C1013 1.429 . S
C997 H1019 0.950 . S
C998 H994 0.949 . S
C998 C1006 1.574 . S
C998 C1014 1.368 1_455 S
H999 C1007 0.950 . S
H1000 C1005 0.950 1_655 S
H1001 C1006 0.949 . S
H1002 C1008 0.950 . S
H1003 C1009 0.950 1_455 S
H1004 C1010 0.949 . S
C1005 H1000 0.950 1_455 S
C1005 C1007 1.327 . S
C1005 C1011 1.429 . S
C1006 C998 1.574 . S
C1006 H1001 0.949 . S
C1006 C1012 1.368 . S
C1007 C991 1.349 . S
C1007 H999 0.950 . S
C1007 C1005 1.327 . S
C1008 C996 1.349 . S
C1008 H1002 0.950 . S
C1008 C1009 1.327 . S
C1009 H1003 0.950 1_655 S
C1009 C1008 1.327 . S
C1009 C1013 1.429 . S
C1010 C993 1.574 . S
C1010 H1004 0.949 . S
C1010 C1014 1.368 . S
C1011 C992 1.429 . S
C1011 C1005 1.429 . S
C1011 C1012 1.523 . S
C1012 C993 1.368 1_455 S
C1012 C1006 1.368 . S
C1012 C1011 1.523 . S
C1013 C997 1.429 . S
C1013 C1009 1.429 . S
C1013 C1014 1.523 . S
C1014 C998 1.368 1_655 S
C1014 C1010 1.368 . S
C1014 C1013 1.523 . S
H1015 C990 0.950 . S
H1016 C992 0.950 . S
H1017 C993 0.949 . S
H1018 C995 0.950 . S
H1019 C997 0.950 . S
C1020 C1021 1.349 . S
C1020 C1022 1.327 . S
C1020 H1045 0.950 . S
C1021 C1020 1.349 . S
C1021 C1037 1.349 . S
C1022 C1020 1.327 . S
C1022 C1041 1.429 . S
C1022 H1046 0.950 . S
C1023 C1040 1.607 . S
C1023 C1042 1.350 1_565 S
C1023 H1047 0.950 . S
H1024 C1028 0.950 . S
C1025 C1026 1.349 . S
C1025 C1027 1.327 . S
C1025 H1048 0.950 . S
C1026 C1025 1.349 . S
C1026 C1038 1.349 . S
C1027 C1025 1.327 . S
C1027 C1043 1.429 . S
C1027 H1049 0.950 . S
C1028 H1024 0.950 . S
C1028 C1036 1.607 . S
C1028 C1044 1.350 1_545 S
H1029 C1037 0.950 . S
H1030 C1035 0.950 . S
H1031 C1036 0.949 . S
H1032 C1038 0.950 . S
H1033 C1039 0.950 . S
H1034 C1040 0.949 . S
C1035 H1030 0.950 . S
C1035 C1037 1.327 . S
C1035 C1041 1.429 . S
C1036 C1028 1.607 . S
C1036 H1031 0.949 . S
C1036 C1042 1.368 . S
C1037 C1021 1.349 . S
C1037 H1029 0.950 . S
C1037 C1035 1.327 . S
C1038 C1026 1.349 . S
C1038 H1032 0.950 . S
C1038 C1039 1.327 . S
C1039 H1033 0.950 . S
C1039 C1038 1.327 . S
C1039 C1043 1.429 . S
C1040 C1023 1.607 . S
C1040 H1034 0.949 . S
C1040 C1044 1.368 . S
C1041 C1022 1.429 . S
C1041 C1035 1.429 . S
C1041 C1042 1.523 . S
C1042 C1023 1.350 1_545 S
C1042 C1036 1.368 . S
C1042 C1041 1.523 . S
C1043 C1027 1.429 . S
C1043 C1039 1.429 . S
C1043 C1044 1.523 . S
C1044 C1028 1.350 1_565 S
C1044 C1040 1.368 . S
C1044 C1043 1.523 . S
H1045 C1020 0.950 . S
H1046 C1022 0.950 . S
H1047 C1023 0.950 . S
H1048 C1025 0.950 . S
H1049 C1027 0.950 . S
C1050 C1051 1.349 . S
C1050 C1052 1.327 . S
C1050 H1075 0.950 . S
C1051 C1050 1.349 . S
C1051 C1067 1.349 . S
C1052 C1050 1.327 . S
C1052 C1071 1.429 . S
C1052 H1076 0.950 . S
C1053 C1070 1.574 . S
C1053 C1072 1.368 . S
C1053 H1077 0.949 . S
H1054 C1058 0.949 . S
C1055 C1056 1.349 . S
C1055 C1057 1.327 . S
C1055 H1078 0.950 . S
C1056 C1055 1.349 . S
C1056 C1068 1.349 . S
C1057 C1055 1.327 . S
C1057 C1073 1.429 . S
C1057 H1079 0.950 . S
C1058 H1054 0.949 . S
C1058 C1066 1.574 . S
C1058 C1074 1.368 . S
H1059 C1067 0.950 . S
H1060 C1065 0.950 . S
H1061 C1066 0.949 . S
H1062 C1068 0.950 . S
H1063 C1069 0.950 . S
H1064 C1070 0.949 . S
C1065 H1060 0.950 . S
C1065 C1067 1.327 . S
C1065 C1071 1.429 . S
C1066 C1058 1.574 . S
C1066 H1061 0.949 . S
C1066 C1072 1.368 . S
C1067 C1051 1.349 . S
C1067 H1059 0.950 . S
C1067 C1065 1.327 . S
C1068 C1056 1.349 . S
C1068 H1062 0.950 . S
C1068 C1069 1.327 . S
C1069 H1063 0.950 . S
C1069 C1068 1.327 . S
C1069 C1073 1.429 . S
C1070 C1053 1.574 . S
C1070 H1064 0.949 . S
C1070 C1074 1.368 . S
C1071 C1052 1.429 . S
C1071 C1065 1.429 . S
C1071 C1072 1.523 . S
C1072 C1053 1.368 . S
C1072 C1066 1.368 . S
C1072 C1071 1.523 . S
C1073 C1057 1.429 . S
C1073 C1069 1.429 . S
C1073 C1074 1.523 . S
C1074 C1058 1.368 . S
C1074 C1070 1.368 . S
C1074 C1073 1.523 . S
H1075 C1050 0.950 . S
H1076 C1052 0.950 . S
H1077 C1053 0.949 . S
H1078 C1055 0.950 . S
H1079 C1057 0.950 . S
C1080 C1081 1.349 . S
C1080 C1082 1.327 . S
C1080 H1105 0.950 . S
C1081 C1080 1.349 . S
C1081 C1097 1.349 . S
C1082 C1080 1.327 . S
C1082 C1101 1.429 . S
C1082 H1106 0.950 . S
C1083 C1100 1.581 . S
C1083 C1102 1.347 1_455 S
C1083 H1107 0.948 . S
H1084 C1088 0.948 . S
C1085 C1086 1.349 . S
C1085 C1087 1.327 . S
C1085 H1108 0.950 . S
C1086 C1085 1.349 . S
C1086 C1098 1.349 . S
C1087 C1085 1.327 . S
C1087 C1103 1.429 . S
C1087 H1109 0.950 . S
C1088 H1084 0.948 . S
C1088 C1096 1.581 . S
C1088 C1104 1.347 1_655 S
H1089 C1097 0.950 . S
H1090 C1095 0.950 . S
H1091 C1096 0.949 . S
H1092 C1098 0.950 . S
H1093 C1099 0.950 . S
H1094 C1100 0.949 . S
C1095 H1090 0.950 . S
C1095 C1097 1.327 . S
C1095 C1101 1.429 . S
C1096 C1088 1.581 . S
C1096 H1091 0.949 . S
C1096 C1102 1.368 . S
C1097 C1081 1.349 . S
C1097 H1089 0.950 . S
C1097 C1095 1.327 . S
C1098 C1086 1.349 . S
C1098 H1092 0.950 . S
C1098 C1099 1.327 . S
C1099 H1093 0.950 . S
C1099 C1098 1.327 . S
C1099 C1103 1.429 . S
C1100 C1083 1.581 . S
C1100 H1094 0.949 . S
C1100 C1104 1.368 . S
C1101 C1082 1.429 . S
C1101 C1095 1.429 . S
C1101 C1102 1.523 . S
C1102 C1083 1.347 1_655 S
C1102 C1096 1.368 . S
C1102 C1101 1.523 . S
C1103 C1087 1.429 . S
C1103 C1099 1.429 . S
C1103 C1104 1.523 . S
C1104 C1088 1.347 1_455 S
C1104 C1100 1.368 . S
C1104 C1103 1.523 . S
H1105 C1080 0.950 . S
H1106 C1082 0.950 . S
H1107 C1083 0.948 . S
H1108 C1085 0.950 . S
H1109 C1087 0.950 . S
C1110 C1111 1.349 . S
C1110 C1112 1.327 . S
C1110 H1135 0.950 . S
C1111 C1110 1.349 . S
C1111 C1127 1.349 . S
C1112 C1110 1.327 . S
C1112 C1131 1.429 . S
C1112 H1136 0.950 . S
C1113 C1130 1.607 . S
C1113 C1132 1.350 1_655 S
C1113 H1137 0.950 . S
H1114 C1118 0.950 . S
C1115 C1116 1.349 . S
C1115 C1117 1.327 . S
C1115 H1138 0.950 . S
C1116 C1115 1.349 . S
C1116 C1128 1.349 . S
C1117 C1115 1.327 . S
C1117 C1133 1.429 . S
C1117 H1139 0.950 . S
C1118 H1114 0.950 . S
C1118 C1126 1.607 . S
C1118 C1134 1.350 1_455 S
H1119 C1127 0.950 . S
H1120 C1125 0.950 . S
H1121 C1126 0.949 . S
H1122 C1128 0.950 . S
H1123 C1129 0.950 . S
H1124 C1130 0.949 . S
C1125 H1120 0.950 . S
C1125 C1127 1.327 . S
C1125 C1131 1.429 . S
C1126 C1118 1.607 . S
C1126 H1121 0.949 . S
C1126 C1132 1.368 . S
C1127 C1111 1.349 . S
C1127 H1119 0.950 . S
C1127 C1125 1.327 . S
C1128 C1116 1.349 . S
C1128 H1122 0.950 . S
C1128 C1129 1.327 . S
C1129 H1123 0.950 . S
C1129 C1128 1.327 . S
C1129 C1133 1.429 . S
C1130 C1113 1.607 . S
C1130 H1124 0.949 . S
C1130 C1134 1.368 . S
C1131 C1112 1.429 . S
C1131 C1125 1.429 . S
C1131 C1132 1.523 . S
C1132 C1113 1.350 1_455 S
C1132 C1126 1.368 . S
C1132 C1131 1.523 . S
C1133 C1117 1.429 . S
C1133 C1129 1.429 . S
C1133 C1134 1.523 . S
C1134 C1118 1.350 1_655 S
C1134 C1130 1.368 . S
C1134 C1133 1.523 . S
H1135 C1110 0.950 . S
H1136 C1112 0.950 . S
H1137 C1113 0.950 . S
H1138 C1115 0.950 . S
H1139 C1117 0.950 . S
C1140 C1141 1.349 . S
C1140 C1142 1.327 . S
C1140 H1165 0.950 . S
C1141 C1140 1.349 . S
C1141 C1157 1.349 . S
C1142 C1140 1.327 . S
C1142 C1161 1.429 . S
C1142 H1166 0.950 . S
C1143 C1160 1.581 . S
C1143 C1162 1.368 . S
C1143 H1167 0.949 . S
H1144 C1148 0.949 . S
C1145 C1146 1.349 . S
C1145 C1147 1.327 . S
C1145 H1168 0.950 . S
C1146 C1145 1.349 . S
C1146 C1158 1.349 . S
C1147 C1145 1.327 . S
C1147 C1163 1.429 . S
C1147 H1169 0.950 . S
C1148 H1144 0.949 . S
C1148 C1156 1.581 . S
C1148 C1164 1.368 . S
H1149 C1157 0.950 . S
H1150 C1155 0.950 . S
H1151 C1156 0.948 . S
H1152 C1158 0.950 . S
H1153 C1159 0.950 . S
H1154 C1160 0.948 . S
C1155 H1150 0.950 . S
C1155 C1157 1.327 . S
C1155 C1161 1.429 . S
C1156 C1148 1.581 . S
C1156 H1151 0.948 . S
C1156 C1162 1.347 1_545 S
C1157 C1141 1.349 . S
C1157 H1149 0.950 . S
C1157 C1155 1.327 . S
C1158 C1146 1.349 . S
C1158 H1152 0.950 . S
C1158 C1159 1.327 . S
C1159 H1153 0.950 . S
C1159 C1158 1.327 . S
C1159 C1163 1.429 . S
C1160 C1143 1.581 . S
C1160 H1154 0.948 . S
C1160 C1164 1.347 1_565 S
C1161 C1142 1.429 . S
C1161 C1155 1.429 . S
C1161 C1162 1.523 . S
C1162 C1143 1.368 . S
C1162 C1156 1.347 1_565 S
C1162 C1161 1.523 . S
C1163 C1147 1.429 . S
C1163 C1159 1.429 . S
C1163 C1164 1.523 . S
C1164 C1148 1.368 . S
C1164 C1160 1.347 1_545 S
C1164 C1163 1.523 . S
H1165 C1140 0.950 . S
H1166 C1142 0.950 . S
H1167 C1143 0.949 . S
H1168 C1145 0.950 . S
H1169 C1147 0.950 . S
C1170 C1171 1.349 . S
C1170 C1172 1.327 . S
C1170 H1195 0.950 . S
C1171 C1170 1.349 . S
C1171 C1187 1.349 . S
C1172 C1170 1.327 . S
C1172 C1191 1.429 . S
C1172 H1196 0.950 . S
C1173 C1190 1.574 . S
C1173 C1192 1.368 . S
C1173 H1197 0.949 . S
H1174 C1178 0.949 . S
C1175 C1176 1.349 . S
C1175 C1177 1.327 . S
C1175 H1198 0.950 . S
C1176 C1175 1.349 . S
C1176 C1188 1.349 . S
C1177 C1175 1.327 . S
C1177 C1193 1.429 . S
C1177 H1199 0.950 . S
C1178 H1174 0.949 . S
C1178 C1186 1.574 . S
C1178 C1194 1.368 . S
H1179 C1187 0.950 . S
H1180 C1185 0.950 . S
H1181 C1186 0.949 . S
H1182 C1188 0.950 . S
H1183 C1189 0.950 . S
H1184 C1190 0.949 . S
C1185 H1180 0.950 . S
C1185 C1187 1.327 . S
C1185 C1191 1.429 . S
C1186 C1178 1.574 . S
C1186 H1181 0.949 . S
C1186 C1192 1.368 . S
C1187 C1171 1.349 . S
C1187 H1179 0.950 . S
C1187 C1185 1.327 . S
C1188 C1176 1.349 . S
C1188 H1182 0.950 . S
C1188 C1189 1.327 . S
C1189 H1183 0.950 . S
C1189 C1188 1.327 . S
C1189 C1193 1.429 . S
C1190 C1173 1.574 . S
C1190 H1184 0.949 . S
C1190 C1194 1.368 . S
C1191 C1172 1.429 . S
C1191 C1185 1.429 . S
C1191 C1192 1.523 . S
C1192 C1173 1.368 . S
C1192 C1186 1.368 . S
C1192 C1191 1.523 . S
C1193 C1177 1.429 . S
C1193 C1189 1.429 . S
C1193 C1194 1.523 . S
C1194 C1178 1.368 . S
C1194 C1190 1.368 . S
C1194 C1193 1.523 . S
H1195 C1170 0.950 . S
H1196 C1172 0.950 . S
H1197 C1173 0.949 . S
H1198 C1175 0.950 . S
H1199 C1177 0.950 . S
C1200 C1201 1.349 . S
C1200 C1202 1.327 . S
C1200 H1225 0.950 . S
C1201 C1200 1.349 . S
C1201 C1217 1.349 . S
C1202 C1200 1.327 . S
C1202 C1221 1.429 . S
C1202 H1226 0.950 . S
C1203 C1220 1.574 . S
C1203 C1222 1.368 1_545 S
C1203 H1227 0.949 . S
H1204 C1208 0.949 . S
C1205 C1206 1.349 . S
C1205 C1207 1.327 . S
C1205 H1228 0.950 . S
C1206 C1205 1.349 . S
C1206 C1218 1.349 . S
C1207 C1205 1.327 . S
C1207 C1223 1.429 . S
C1207 H1229 0.950 . S
C1208 H1204 0.949 . S
C1208 C1216 1.574 . S
C1208 C1224 1.368 1_565 S
H1209 C1217 0.950 . S
H1210 C1215 0.950 . S
H1211 C1216 0.949 . S
H1212 C1218 0.950 . S
H1213 C1219 0.950 . S
H1214 C1220 0.949 . S
C1215 H1210 0.950 . S
C1215 C1217 1.327 . S
C1215 C1221 1.429 . S
C1216 C1208 1.574 . S
C1216 H1211 0.949 . S
C1216 C1222 1.368 . S
C1217 C1201 1.349 . S
C1217 H1209 0.950 . S
C1217 C1215 1.327 . S
C1218 C1206 1.349 . S
C1218 H1212 0.950 . S
C1218 C1219 1.327 . S
C1219 H1213 0.950 . S
C1219 C1218 1.327 . S
C1219 C1223 1.429 . S
C1220 C1203 1.574 . S
C1220 H1214 0.949 . S
C1220 C1224 1.368 . S
C1221 C1202 1.429 . S
C1221 C1215 1.429 . S
C1221 C1222 1.523 . S
C1222 C1203 1.368 1_565 S
C1222 C1216 1.368 . S
C1222 C1221 1.523 . S
C1223 C1207 1.429 . S
C1223 C1219 1.429 . S
C1223 C1224 1.523 . S
C1224 C1208 1.368 1_545 S
C1224 C1220 1.368 . S
C1224 C1223 1.523 . S
H1225 C1200 0.950 . S
H1226 C1202 0.950 . S
H1227 C1203 0.949 . S
H1228 C1205 0.950 . S
H1229 C1207 0.950 . S
C1230 C1231 1.349 . S
C1230 C1232 1.327 . S
C1230 H1255 0.950 . S
C1231 C1230 1.349 . S
C1231 C1247 1.349 . S
C1232 C1230 1.327 . S
C1232 C1251 1.429 . S
C1232 H1256 0.950 . S
C1233 C1250 1.574 . S
C1233 C1252 1.368 . S
C1233 H1257 0.949 . S
H1234 C1238 0.949 . S
C1235 C1236 1.349 . S
C1235 C1237 1.327 . S
C1235 H1258 0.950 . S
C1236 C1235 1.349 . S
C1236 C1248 1.349 . S
C1237 C1235 1.327 . S
C1237 C1253 1.429 . S
C1237 H1259 0.950 . S
C1238 H1234 0.949 . S
C1238 C1246 1.574 . S
C1238 C1254 1.368 . S
H1239 C1247 0.950 . S
H1240 C1245 0.950 . S
H1241 C1246 0.949 . S
H1242 C1248 0.950 . S
H1243 C1249 0.950 . S
H1244 C1250 0.949 . S
C1245 H1240 0.950 . S
C1245 C1247 1.327 . S
C1245 C1251 1.429 . S
C1246 C1238 1.574 . S
C1246 H1241 0.949 . S
C1246 C1252 1.368 . S
C1247 C1231 1.349 . S
C1247 H1239 0.950 . S
C1247 C1245 1.327 . S
C1248 C1236 1.349 . S
C1248 H1242 0.950 . S
C1248 C1249 1.327 . S
C1249 H1243 0.950 . S
C1249 C1248 1.327 . S
C1249 C1253 1.429 . S
C1250 C1233 1.574 . S
C1250 H1244 0.949 . S
C1250 C1254 1.368 . S
C1251 C1232 1.429 . S
C1251 C1245 1.429 . S
C1251 C1252 1.523 . S
C1252 C1233 1.368 . S
C1252 C1246 1.368 . S
C1252 C1251 1.523 . S
C1253 C1237 1.429 . S
C1253 C1249 1.429 . S
C1253 C1254 1.523 . S
C1254 C1238 1.368 . S
C1254 C1250 1.368 . S
C1254 C1253 1.523 . S
H1255 C1230 0.950 . S
H1256 C1232 0.950 . S
H1257 C1233 0.949 . S
H1258 C1235 0.950 . S
H1259 C1237 0.950 . S
C1260 C1261 1.349 . S
C1260 C1262 1.327 . S
C1260 H1285 0.950 . S
C1261 C1260 1.349 . S
C1261 C1277 1.349 . S
C1262 C1260 1.327 . S
C1262 C1281 1.429 . S
C1262 H1286 0.950 . S
C1263 C1280 1.574 1_655 S
C1263 C1282 1.368 . S
C1263 H1287 0.949 . S
H1264 C1268 0.949 . S
C1265 C1266 1.349 . S
C1265 C1267 1.327 . S
C1265 H1288 0.950 . S
C1266 C1265 1.349 . S
C1266 C1278 1.349 . S
C1267 C1265 1.327 . S
C1267 C1283 1.429 . S
C1267 H1289 0.950 . S
C1268 H1264 0.949 . S
C1268 C1276 1.574 1_455 S
C1268 C1284 1.368 . S
H1269 C1277 0.950 . S
H1270 C1275 0.950 . S
H1271 C1276 0.949 . S
H1272 C1278 0.950 . S
H1273 C1279 0.950 . S
H1274 C1280 0.949 . S
C1275 H1270 0.950 . S
C1275 C1277 1.327 . S
C1275 C1281 1.429 . S
C1276 C1268 1.574 1_655 S
C1276 H1271 0.949 . S
C1276 C1282 1.368 . S
C1277 C1261 1.349 . S
C1277 H1269 0.950 . S
C1277 C1275 1.327 . S
C1278 C1266 1.349 . S
C1278 H1272 0.950 . S
C1278 C1279 1.327 . S
C1279 H1273 0.950 . S
C1279 C1278 1.327 . S
C1279 C1283 1.429 . S
C1280 C1263 1.574 1_455 S
C1280 H1274 0.949 . S
C1280 C1284 1.368 . S
C1281 C1262 1.429 . S
C1281 C1275 1.429 . S
C1281 C1282 1.523 . S
C1282 C1263 1.368 . S
C1282 C1276 1.368 . S
C1282 C1281 1.523 . S
C1283 C1267 1.429 . S
C1283 C1279 1.429 . S
C1283 C1284 1.523 . S
C1284 C1268 1.368 . S
C1284 C1280 1.368 . S
C1284 C1283 1.523 . S
H1285 C1260 0.950 . S
H1286 C1262 0.950 . S
H1287 C1263 0.949 . S
H1288 C1265 0.950 . S
H1289 C1267 0.950 . S
C1290 C1291 1.349 . S
C1290 C1292 1.327 . S
C1290 H1315 0.950 . S
C1291 C1290 1.349 . S
C1291 C1307 1.349 . S
C1292 C1290 1.327 . S
C1292 C1311 1.429 . S
C1292 H1316 0.950 . S
C1293 C1310 1.574 . S
C1293 C1312 1.368 1_565 S
C1293 H1317 0.949 . S
H1294 C1298 0.949 . S
C1295 C1296 1.349 . S
C1295 C1297 1.327 . S
C1295 H1318 0.950 . S
C1296 C1295 1.349 . S
C1296 C1308 1.349 . S
C1297 C1295 1.327 . S
C1297 C1313 1.429 . S
C1297 H1319 0.950 . S
C1298 H1294 0.949 . S
C1298 C1306 1.574 . S
C1298 C1314 1.368 1_545 S
H1299 C1307 0.950 . S
H1300 C1305 0.950 . S
H1301 C1306 0.949 . S
H1302 C1308 0.950 . S
H1303 C1309 0.950 . S
H1304 C1310 0.949 . S
C1305 H1300 0.950 . S
C1305 C1307 1.327 . S
C1305 C1311 1.429 . S
C1306 C1298 1.574 . S
C1306 H1301 0.949 . S
C1306 C1312 1.368 . S
C1307 C1291 1.349 . S
C1307 H1299 0.950 . S
C1307 C1305 1.327 . S
C1308 C1296 1.349 . S
C1308 H1302 0.950 . S
C1308 C1309 1.327 . S
C1309 H1303 0.950 . S
C1309 C1308 1.327 . S
C1309 C1313 1.429 . S
C1310 C1293 1.574 . S
C1310 H1304 0.949 . S
C1310 C1314 1.368 . S
C1311 C1292 1.429 . S
C1311 C1305 1.429 . S
C1311 C1312 1.523 . S
C1312 C1293 1.368 1_545 S
C1312 C1306 1.368 . S
C1312 C1311 1.523 . S
C1313 C1297 1.429 . S
C1313 C1309 1.429 . S
C1313 C1314 1.523 . S
C1314 C1298 1.368 1_565 S
C1314 C1310 1.368 . S
C1314 C1313 1.523 . S
H1315 C1290 0.950 . S
H1316 C1292 0.950 . S
H1317 C1293 0.949 . S
H1318 C1295 0.950 . S
H1319 C1297 0.950 . S
C1320 C1321 1.349 . S
C1320 C1322 1.327 . S
C1320 H1345 0.950 . S
C1321 C1320 1.349 . S
C1321 C1337 1.349 . S
C1322 C1320 1.327 . S
C1322 C1341 1.429 . S
C1322 H1346 0.950 . S
C1323 C1340 1.574 . S
C1323 C1342 1.368 . S
C1323 H1347 0.949 . S
H1324 C1328 0.949 . S
C1325 C1326 1.349 . S
C1325 C1327 1.327 . S
C1325 H1348 0.950 . S
C1326 C1325 1.349 . S
C1326 C1338 1.349 . S
C1327 C1325 1.327 . S
C1327 C1343 1.429 . S
C1327 H1349 0.950 . S
C1328 H1324 0.949 . S
C1328 C1336 1.574 . S
C1328 C1344 1.368 . S
H1329 C1337 0.950 . S
H1330 C1335 0.950 . S
H1331 C1336 0.949 . S
H1332 C1338 0.950 . S
H1333 C1339 0.950 . S
H1334 C1340 0.949 . S
C1335 H1330 0.950 . S
C1335 C1337 1.327 . S
C1335 C1341 1.429 . S
C1336 C1328 1.574 . S
C1336 H1331 0.949 . S
C1336 C1342 1.368 . S
C1337 C1321 1.349 . S
C1337 H1329 0.950 . S
C1337 C1335 1.327 . S
C1338 C1326 1.349 . S
C1338 H1332 0.950 . S
C1338 C1339 1.327 . S
C1339 H1333 0.950 . S
C1339 C1338 1.327 . S
C1339 C1343 1.429 . S
C1340 C1323 1.574 . S
C1340 H1334 0.949 . S
C1340 C1344 1.368 . S
C1341 C1322 1.429 . S
C1341 C1335 1.429 . S
C1341 C1342 1.523 . S
C1342 C1323 1.368 . S
C1342 C1336 1.368 . S
C1342 C1341 1.523 . S
C1343 C1327 1.429 . S
C1343 C1339 1.429 . S
C1343 C1344 1.523 . S
C1344 C1328 1.368 . S
C1344 C1340 1.368 . S
C1344 C1343 1.523 . S
H1345 C1320 0.950 . S
H1346 C1322 0.950 . S
H1347 C1323 0.949 . S
H1348 C1325 0.950 . S
H1349 C1327 0.950 . S
C1350 C1351 1.349 . S
C1350 C1352 1.327 . S
C1350 H1375 0.950 . S
C1351 C1350 1.349 . S
C1351 C1367 1.349 . S
C1352 C1350 1.327 . S
C1352 C1371 1.429 . S
C1352 H1376 0.950 . S
C1353 C1370 1.574 1_455 S
C1353 C1372 1.368 . S
C1353 H1377 0.949 . S
H1354 C1358 0.949 . S
C1355 C1356 1.349 . S
C1355 C1357 1.327 . S
C1355 H1378 0.950 . S
C1356 C1355 1.349 . S
C1356 C1368 1.349 . S
C1357 C1355 1.327 . S
C1357 C1373 1.429 . S
C1357 H1379 0.950 . S
C1358 H1354 0.949 . S
C1358 C1366 1.574 1_655 S
C1358 C1374 1.368 . S
H1359 C1367 0.950 . S
H1360 C1365 0.950 . S
H1361 C1366 0.949 . S
H1362 C1368 0.950 . S
H1363 C1369 0.950 . S
H1364 C1370 0.949 . S
C1365 H1360 0.950 . S
C1365 C1367 1.327 . S
C1365 C1371 1.429 . S
C1366 C1358 1.574 1_455 S
C1366 H1361 0.949 . S
C1366 C1372 1.368 . S
C1367 C1351 1.349 . S
C1367 H1359 0.950 . S
C1367 C1365 1.327 . S
C1368 C1356 1.349 . S
C1368 H1362 0.950 . S
C1368 C1369 1.327 . S
C1369 H1363 0.950 . S
C1369 C1368 1.327 . S
C1369 C1373 1.429 . S
C1370 C1353 1.574 1_655 S
C1370 H1364 0.949 . S
C1370 C1374 1.368 . S
C1371 C1352 1.429 . S
C1371 C1365 1.429 . S
C1371 C1372 1.523 . S
C1372 C1353 1.368 . S
C1372 C1366 1.368 . S
C1372 C1371 1.523 . S
C1373 C1357 1.429 . S
C1373 C1369 1.429 . S
C1373 C1374 1.523 . S
C1374 C1358 1.368 . S
C1374 C1370 1.368 . S
C1374 C1373 1.523 . S
H1375 C1350 0.950 . S
H1376 C1352 0.950 . S
H1377 C1353 0.949 . S
H1378 C1355 0.950 . S
H1379 C1357 0.950 . S
C1380 C1381 1.349 . S
C1380 C1382 1.327 . S
C1380 H1405 0.950 . S
C1381 C1380 1.349 . S
C1381 C1397 1.349 . S
C1382 C1380 1.327 . S
C1382 C1401 1.429 . S
C1382 H1406 0.950 . S
C1383 C1400 1.574 . S
C1383 C1402 1.368 . S
C1383 H1407 0.949 . S
H1384 C1388 0.949 . S
C1385 C1386 1.349 . S
C1385 C1387 1.327 . S
C1385 H1408 0.950 . S
C1386 C1385 1.349 . S
C1386 C1398 1.349 . S
C1387 C1385 1.327 . S
C1387 C1403 1.429 . S
C1387 H1409 0.950 . S
C1388 H1384 0.949 . S
C1388 C1396 1.574 . S
C1388 C1404 1.368 . S
H1389 C1397 0.950 . S
H1390 C1395 0.950 . S
H1391 C1396 0.949 . S
H1392 C1398 0.950 . S
H1393 C1399 0.950 . S
H1394 C1400 0.949 . S
C1395 H1390 0.950 . S
C1395 C1397 1.327 . S
C1395 C1401 1.429 . S
C1396 C1388 1.574 . S
C1396 H1391 0.949 . S
C1396 C1402 1.368 . S
C1397 C1381 1.349 . S
C1397 H1389 0.950 . S
C1397 C1395 1.327 . S
C1398 C1386 1.349 . S
C1398 H1392 0.950 . S
C1398 C1399 1.327 . S
C1399 H1393 0.950 . S
C1399 C1398 1.327 . S
C1399 C1403 1.429 . S
C1400 C1383 1.574 . S
C1400 H1394 0.949 . S
C1400 C1404 1.368 . S
C1401 C1382 1.429 . S
C1401 C1395 1.429 . S
C1401 C1402 1.523 . S
C1402 C1383 1.368 . S
C1402 C1396 1.368 . S
C1402 C1401 1.523 . S
C1403 C1387 1.429 . S
C1403 C1399 1.429 . S
C1403 C1404 1.523 . S
C1404 C1388 1.368 . S
C1404 C1400 1.368 . S
C1404 C1403 1.523 . S
H1405 C1380 0.950 . S
H1406 C1382 0.950 . S
H1407 C1383 0.949 . S
H1408 C1385 0.950 . S
H1409 C1387 0.950 . S
C1410 C1411 1.349 . S
C1410 C1412 1.327 . S
C1410 H1435 0.950 . S
C1411 C1410 1.349 . S
C1411 C1427 1.349 . S
C1412 C1410 1.327 . S
C1412 C1431 1.429 . S
C1412 H1436 0.950 . S
C1413 C1430 1.574 . S
C1413 C1432 1.368 . S
C1413 H1437 0.949 . S
H1414 C1418 0.949 . S
C1415 C1416 1.349 . S
C1415 C1417 1.327 . S
C1415 H1438 0.950 . S
C1416 C1415 1.349 . S
C1416 C1428 1.349 . S
C1417 C1415 1.327 . S
C1417 C1433 1.429 . S
C1417 H1439 0.950 . S
C1418 H1414 0.949 . S
C1418 C1426 1.574 . S
C1418 C1434 1.368 . S
H1419 C1427 0.950 . S
H1420 C1425 0.950 . S
H1421 C1426 0.949 . S
H1422 C1428 0.950 . S
H1423 C1429 0.950 . S
H1424 C1430 0.949 . S
C1425 H1420 0.950 . S
C1425 C1427 1.327 . S
C1425 C1431 1.429 . S
C1426 C1418 1.574 . S
C1426 H1421 0.949 . S
C1426 C1432 1.368 . S
C1427 C1411 1.349 . S
C1427 H1419 0.950 . S
C1427 C1425 1.327 . S
C1428 C1416 1.349 . S
C1428 H1422 0.950 . S
C1428 C1429 1.327 . S
C1429 H1423 0.950 . S
C1429 C1428 1.327 . S
C1429 C1433 1.429 . S
C1430 C1413 1.574 . S
C1430 H1424 0.949 . S
C1430 C1434 1.368 . S
C1431 C1412 1.429 . S
C1431 C1425 1.429 . S
C1431 C1432 1.523 . S
C1432 C1413 1.368 . S
C1432 C1426 1.368 . S
C1432 C1431 1.523 . S
C1433 C1417 1.429 . S
C1433 C1429 1.429 . S
C1433 C1434 1.523 . S
C1434 C1418 1.368 . S
C1434 C1430 1.368 . S
C1434 C1433 1.523 . S
H1435 C1410 0.950 . S
H1436 C1412 0.950 . S
H1437 C1413 0.949 . S
H1438 C1415 0.950 . S
H1439 C1417 0.950 . S
C1440 C1441 1.349 . S
C1440 C1442 1.327 . S
C1440 H1465 0.950 . S
C1441 C1440 1.349 . S
C1441 C1457 1.349 . S
C1442 C1440 1.327 . S
C1442 C1461 1.429 . S
C1442 H1466 0.950 . S
C1443 C1460 1.574 . S
C1443 C1462 1.368 . S
C1443 H1467 0.949 . S
H1444 C1448 0.949 . S
C1445 C1446 1.349 . S
C1445 C1447 1.327 . S
C1445 H1468 0.950 . S
C1446 C1445 1.349 . S
C1446 C1458 1.349 . S
C1447 C1445 1.327 . S
C1447 C1463 1.429 . S
C1447 H1469 0.950 . S
C1448 H1444 0.949 . S
C1448 C1456 1.574 . S
C1448 C1464 1.368 . S
H1449 C1457 0.950 . S
H1450 C1455 0.950 . S
H1451 C1456 0.949 . S
H1452 C1458 0.950 . S
H1453 C1459 0.950 . S
H1454 C1460 0.949 . S
C1455 H1450 0.950 . S
C1455 C1457 1.327 . S
C1455 C1461 1.429 . S
C1456 C1448 1.574 . S
C1456 H1451 0.949 . S
C1456 C1462 1.368 . S
C1457 C1441 1.349 . S
C1457 H1449 0.950 . S
C1457 C1455 1.327 . S
C1458 C1446 1.349 . S
C1458 H1452 0.950 . S
C1458 C1459 1.327 . S
C1459 H1453 0.950 . S
C1459 C1458 1.327 . S
C1459 C1463 1.429 . S
C1460 C1443 1.574 . S
C1460 H1454 0.949 . S
C1460 C1464 1.368 . S
C1461 C1442 1.429 . S
C1461 C1455 1.429 . S
C1461 C1462 1.523 . S
C1462 C1443 1.368 . S
C1462 C1456 1.368 . S
C1462 C1461 1.523 . S
C1463 C1447 1.429 . S
C1463 C1459 1.429 . S
C1463 C1464 1.523 . S
C1464 C1448 1.368 . S
C1464 C1460 1.368 . S
C1464 C1463 1.523 . S
H1465 C1440 0.950 . S
H1466 C1442 0.950 . S
H1467 C1443 0.949 . S
H1468 C1445 0.950 . S
H1469 C1447 0.950 . S
C1470 C1471 1.349 . S
C1470 C1472 1.327 . S
C1470 H1495 0.950 . S
C1471 C1470 1.349 . S
C1471 C1487 1.349 . S
C1472 C1470 1.327 . S
C1472 C1491 1.429 . S
C1472 H1496 0.950 . S
C1473 C1490 1.574 . S
C1473 C1492 1.368 . S
C1473 H1497 0.949 . S
H1474 C1478 0.949 . S
C1475 C1476 1.349 . S
C1475 C1477 1.327 . S
C1475 H1498 0.950 . S
C1476 C1475 1.349 . S
C1476 C1488 1.349 . S
C1477 C1475 1.327 . S
C1477 C1493 1.429 . S
C1477 H1499 0.950 . S
C1478 H1474 0.949 . S
C1478 C1486 1.574 . S
C1478 C1494 1.368 . S
H1479 C1487 0.950 . S
H1480 C1485 0.950 . S
H1481 C1486 0.949 . S
H1482 C1488 0.950 . S
H1483 C1489 0.950 . S
H1484 C1490 0.949 . S
C1485 H1480 0.950 . S
C1485 C1487 1.327 . S
C1485 C1491 1.429 . S
C1486 C1478 1.574 . S
C1486 H1481 0.949 . S
C1486 C1492 1.368 . S
C1487 C1471 1.349 . S
C1487 H1479 0.950 . S
C1487 C1485 1.327 . S
C1488 C1476 1.349 . S
C1488 H1482 0.950 . S
C1488 C1489 1.327 . S
C1489 H1483 0.950 . S
C1489 C1488 1.327 . S
C1489 C1493 1.429 . S
C1490 C1473 1.574 . S
C1490 H1484 0.949 . S
C1490 C1494 1.368 . S
C1491 C1472 1.429 . S
C1491 C1485 1.429 . S
C1491 C1492 1.523 . S
C1492 C1473 1.368 . S
C1492 C1486 1.368 . S
C1492 C1491 1.523 . S
C1493 C1477 1.429 . S
C1493 C1489 1.429 . S
C1493 C1494 1.523 . S
C1494 C1478 1.368 . S
C1494 C1490 1.368 . S
C1494 C1493 1.523 . S
H1495 C1470 0.950 . S
H1496 C1472 0.950 . S
H1497 C1473 0.949 . S
H1498 C1475 0.950 . S
H1499 C1477 0.950 . S
C1500 C1501 1.349 . S
C1500 C1502 1.327 . S
C1500 H1525 0.950 . S
C1501 C1500 1.349 . S
C1501 C1517 1.349 . S
C1502 C1500 1.327 . S
C1502 C1521 1.429 . S
C1502 H1526 0.950 . S
C1503 C1520 1.574 . S
C1503 C1522 1.368 . S
C1503 H1527 0.949 . S
H1504 C1508 0.949 . S
C1505 C1506 1.349 . S
C1505 C1507 1.327 . S
C1505 H1528 0.950 . S
C1506 C1505 1.349 . S
C1506 C1518 1.349 . S
C1507 C1505 1.327 . S
C1507 C1523 1.429 . S
C1507 H1529 0.950 . S
C1508 H1504 0.949 . S
C1508 C1516 1.574 . S
C1508 C1524 1.368 . S
H1509 C1517 0.950 . S
H1510 C1515 0.950 . S
H1511 C1516 0.949 . S
H1512 C1518 0.950 . S
H1513 C1519 0.950 . S
H1514 C1520 0.949 . S
C1515 H1510 0.950 . S
C1515 C1517 1.327 . S
C1515 C1521 1.429 . S
C1516 C1508 1.574 . S
C1516 H1511 0.949 . S
C1516 C1522 1.368 . S
C1517 C1501 1.349 . S
C1517 H1509 0.950 . S
C1517 C1515 1.327 . S
C1518 C1506 1.349 . S
C1518 H1512 0.950 . S
C1518 C1519 1.327 . S
C1519 H1513 0.950 . S
C1519 C1518 1.327 . S
C1519 C1523 1.429 . S
C1520 C1503 1.574 . S
C1520 H1514 0.949 . S
C1520 C1524 1.368 . S
C1521 C1502 1.429 . S
C1521 C1515 1.429 . S
C1521 C1522 1.523 . S
C1522 C1503 1.368 . S
C1522 C1516 1.368 . S
C1522 C1521 1.523 . S
C1523 C1507 1.429 . S
C1523 C1519 1.429 . S
C1523 C1524 1.523 . S
C1524 C1508 1.368 . S
C1524 C1520 1.368 . S
C1524 C1523 1.523 . S
H1525 C1500 0.950 . S
H1526 C1502 0.950 . S
H1527 C1503 0.949 . S
H1528 C1505 0.950 . S
H1529 C1507 0.950 . S
C1530 C1531 1.349 . S
C1530 C1532 1.327 . S
C1530 H1555 0.950 . S
C1531 C1530 1.349 . S
C1531 C1547 1.349 . S
C1532 C1530 1.327 . S
C1532 C1551 1.429 . S
C1532 H1556 0.950 . S
C1533 C1550 1.574 . S
C1533 C1552 1.368 . S
C1533 H1557 0.949 . S
H1534 C1538 0.949 . S
C1535 C1536 1.349 . S
C1535 C1537 1.327 . S
C1535 H1558 0.950 . S
C1536 C1535 1.349 . S
C1536 C1548 1.349 . S
C1537 C1535 1.327 . S
C1537 C1553 1.429 . S
C1537 H1559 0.950 . S
C1538 H1534 0.949 . S
C1538 C1546 1.574 . S
C1538 C1554 1.368 . S
H1539 C1547 0.950 . S
H1540 C1545 0.950 . S
H1541 C1546 0.949 . S
H1542 C1548 0.950 . S
H1543 C1549 0.950 . S
H1544 C1550 0.949 . S
C1545 H1540 0.950 . S
C1545 C1547 1.327 . S
C1545 C1551 1.429 . S
C1546 C1538 1.574 . S
C1546 H1541 0.949 . S
C1546 C1552 1.368 . S
C1547 C1531 1.349 . S
C1547 H1539 0.950 . S
C1547 C1545 1.327 . S
C1548 C1536 1.349 . S
C1548 H1542 0.950 . S
C1548 C1549 1.327 . S
C1549 H1543 0.950 . S
C1549 C1548 1.327 . S
C1549 C1553 1.429 . S
C1550 C1533 1.574 . S
C1550 H1544 0.949 . S
C1550 C1554 1.368 . S
C1551 C1532 1.429 . S
C1551 C1545 1.429 . S
C1551 C1552 1.523 . S
C1552 C1533 1.368 . S
C1552 C1546 1.368 . S
C1552 C1551 1.523 . S
C1553 C1537 1.429 . S
C1553 C1549 1.429 . S
C1553 C1554 1.523 . S
C1554 C1538 1.368 . S
C1554 C1550 1.368 . S
C1554 C1553 1.523 . S
H1555 C1530 0.950 . S
H1556 C1532 0.950 . S
H1557 C1533 0.949 . S
H1558 C1535 0.950 . S
H1559 C1537 0.950 . S
C481 C9 0.986 . S
C486 C329 0.986 . S
C511 C49 0.986 . S
C516 C369 0.986 . S
C541 C89 0.986 . S
C546 C409 0.986 . S
C571 C449 0.986 . S
C576 C129 0.986 . S
C601 C169 0.986 . S
C606 C249 0.986 . S
C631 C289 0.986 . S
C636 C209 0.986 . S
C661 C415 1.570 . S
C666 C15 1.570 . S
C691 C455 1.570 . S
C696 C55 1.570 . S
C721 C95 1.570 . S
C726 C255 1.570 . S
C751 C295 1.570 . S
C756 C135 1.570 . S
C781 C335 1.570 . S
C786 C175 1.570 . S
C811 C215 1.570 . S
C816 C375 1.570 . S
C841 C299 4.147 . S
C846 C19 4.147 . S
C871 C339 4.147 . S
C876 C59 4.147 . S
C901 C379 4.147 . S
C906 C99 4.147 . S
C931 C139 4.147 . S
C936 C419 4.147 . S
C961 C179 4.147 . S
C966 C459 4.147 . S
C991 C219 4.147 . S
C996 C259 4.147 . S
C1021 C18 0.840 . S
C1026 C138 0.840 . S
C1051 C58 0.840 . S
C1056 C178 0.840 . S
C1081 C98 0.840 . S
C1086 C218 0.840 . S
C1111 C378 0.840 . S
C1116 C258 0.840 . S
C1141 C298 0.840 . S
C1146 C418 0.840 . S
C1171 C458 0.840 . S
C1176 C338 0.840 . S
C1201 C286 0.725 . S
C1206 C6 0.725 . S
C1231 C326 0.725 . S
C1236 C46 0.725 . S
C1261 C86 0.725 . S
C1266 C366 0.725 . S
C1291 C406 0.725 . S
C1296 C126 0.725 . S
C1321 C446 0.725 . S
C1326 C166 0.725 . S
C1351 C206 0.725 . S
C1356 C246 0.725 . S
C1381 C10 4.718 . S
C1386 C410 4.718 . S
C1411 C50 4.718 . S
C1416 C450 4.718 1_556 S
C1441 C90 4.718 1_554 S
C1446 C250 4.718 . S
C1471 C130 4.718 . S
C1476 C290 4.718 . S
C1501 C170 4.718 . S
C1506 C330 4.718 1_556 S
C1531 C370 4.718 . S
C1536 C210 4.718 1_554 S
