# Generated by pormake.
# Topology sxb, (6)-cn, num edge types: 1
# Building blocks:
#     Node 0, Type 0, BuildingBlock: FUNLAD_clean_sbu_0, # of connection points: 6
#     Node 1, Type 0, BuildingBlock: FUNLAD_clean_sbu_0, # of connection points: 6
#     Node 2, Type 0, BuildingBlock: FUNLAD_clean_sbu_0, # of connection points: 6
#     Node 3, Type 0, BuildingBlock: FUNLAD_clean_sbu_0, # of connection points: 6
#     Edge 4, Type (0, 0), BuildingBlock: TEMPAE_clean_linker_10, # of connection points: 2
#     Edge 5, Type (0, 0), BuildingBlock: TEMPAE_clean_linker_10, # of connection points: 2
#     Edge 6, Type (0, 0), BuildingBlock: TEMPAE_clean_linker_10, # of connection points: 2
#     Edge 7, Type (0, 0), BuildingBlock: TEMPAE_clean_linker_10, # of connection points: 2
#     Edge 8, Type (0, 0), BuildingBlock: TEMPAE_clean_linker_10, # of connection points: 2
#     Edge 9, Type (0, 0), BuildingBlock: TEMPAE_clean_linker_10, # of connection points: 2
#     Edge 10, Type (0, 0), BuildingBlock: TEMPAE_clean_linker_10, # of connection points: 2
#     Edge 11, Type (0, 0), BuildingBlock: TEMPAE_clean_linker_10, # of connection points: 2
#     Edge 12, Type (0, 0), BuildingBlock: TEMPAE_clean_linker_10, # of connection points: 2
#     Edge 13, Type (0, 0), BuildingBlock: TEMPAE_clean_linker_10, # of connection points: 2
#     Edge 14, Type (0, 0), BuildingBlock: TEMPAE_clean_linker_10, # of connection points: 2
#     Edge 15, Type (0, 0), BuildingBlock: TEMPAE_clean_linker_10, # of connection points: 2
# Relax obj value: 0.109
# Max RMSD: 0.152
# Mean RMSD: 0.152
data_MOF--net-sxb--node1-FUNLAD_clean_sbu_0--edge1-TEMPAE_clean_linker_10
_symmetry_space_group_name_H-M    P1
_symmetry_Int_Tables_number       1
_symmetry_cell_setting            triclinic
loop_
_symmetry_equiv_pos_as_xyz
'x, y, z'
_cell_length_a     15.035528
_cell_length_b     27.207452
_cell_length_c     43.895945
_cell_angle_alpha  89.991423
_cell_angle_beta   92.391053
_cell_angle_gamma 90.000536
loop_
_atom_site_label
_atom_site_type_symbol
_atom_site_fract_x
_atom_site_fract_y
_atom_site_fract_z
_atom_type_partial_charge
C0 C 0.1297 0.02739 0.02045 0.0
N1 N 0.95021 0.99194 0.94779 0.0
C2 C 0.02546 0.979 0.9336 0.0
C3 C 0.02701 0.97882 0.90185 0.0
C4 C 0.94966 0.99079 0.88426 0.0
C5 C 0.87244 0.00315 0.89962 0.0
C6 C 0.87452 0.00409 0.93145 0.0
Zn7 Zn -0.04773 0.99395 0.99447 0.0
C8 C 0.02287 0.90199 0.02232 0.0
N9 N -0.03717 0.00161 0.09183 0.0
C10 C 0.03709 0.98694 0.1082 0.0
C11 C 0.88867 0.01673 0.10596 0.0
C12 C 0.88665 0.01644 0.13771 0.0
C13 C -0.03771 0.00156 0.155 0.0
C14 C 0.03857 0.98716 0.14003 0.0
Zn15 Zn -0.03906 -0.00038 0.04517 0.0
O16 O 0.08579 0.01977 0.99553 0.0
C17 C 0.88944 0.09141 0.01739 0.0
O18 O 0.09127 0.02363 0.04548 0.0
H19 H 0.83062 0.02874 0.09261 0.0
H20 H 0.08492 0.96916 0.94691 0.0
H21 H 0.09508 0.97465 0.09659 0.0
O22 O 0.90062 0.0669 0.99316 0.0
O23 O 0.91335 0.07305 0.04308 0.0
H24 H 0.81542 0.01456 0.94307 0.0
O25 O 0.82848 0.976 0.04418 0.0
O26 O 0.82052 0.96873 0.99436 0.0
O27 O 0.01027 0.92623 0.04654 0.0
O28 O 0.00153 0.92083 0.99654 0.0
C29 C 0.78327 0.96744 0.01972 0.0
H30 H 0.08885 0.97001 0.89133 0.0
H31 H 0.81054 0.01173 0.88729 0.0
H32 H 0.82693 0.02805 0.14868 0.0
H33 H 0.09788 0.97527 0.15283 0.0
C34 C 0.78344 0.02816 0.51911 0.0
N35 N -0.03787 0.99696 0.59128 0.0
C36 C 0.93623 0.03777 0.60653 0.0
C37 C 0.93626 0.03788 0.63833 0.0
C38 C -0.0388 0.99527 0.65442 0.0
C39 C -0.0129 0.9536 0.63828 0.0
C40 C -0.01195 0.95542 0.6065 0.0
Zn41 Zn -0.04061 -0.00222 0.54465 0.0
C42 C 0.89007 0.90336 0.5181 0.0
N43 N 0.95103 -0.0007 0.44733 0.0
C44 C 0.87512 0.98703 0.43109 0.0
C45 C 0.02649 0.01185 0.43308 0.0
C46 C 0.02804 0.01144 0.40133 0.0
C47 C 0.95069 -0.0009 0.38413 0.0
C48 C 0.87324 0.98721 0.39924 0.0
Zn49 Zn -0.04642 -0.00156 0.494 0.0
O50 O 0.82701 0.01899 0.54382 0.0
C51 C 0.02248 0.09293 0.51994 0.0
O52 O 0.82228 0.02603 0.49398 0.0
H53 H 0.08584 0.02211 0.44631 0.0
H54 H 0.91484 0.07021 0.59403 0.0
H55 H 0.816 0.97687 0.44281 0.0
O56 O 0.00299 0.07262 0.54488 0.0
O57 O 0.00787 0.07013 0.49499 0.0
H58 H 0.00909 0.92351 0.59401 0.0
O59 O 0.08511 0.97103 0.49513 0.0
O60 O 0.09231 0.97733 0.54503 0.0
O61 O 0.89923 0.92691 0.49344 0.0
O62 O 0.91542 0.92282 0.54333 0.0
C63 C 0.13004 0.96929 0.52022 0.0
H64 H 0.91543 0.07054 0.65021 0.0
H65 H 0.00711 0.92021 0.65015 0.0
H66 H 0.08869 0.02119 0.39028 0.0
H67 H 0.81252 0.97735 0.38654 0.0
C68 C 0.62158 0.52258 0.02086 0.0
N69 N 0.44282 0.49941 0.94731 0.0
C70 C 0.46531 0.54167 0.93289 0.0
C71 C 0.46468 0.54367 0.90108 0.0
C72 C 0.44268 0.50148 0.88408 0.0
C73 C 0.42002 0.45836 0.8994 0.0
C74 C 0.41953 0.45827 0.93121 0.0
Zn75 Zn 0.44663 0.49704 0.99401 0.0
C76 C 0.5143 0.39912 0.01732 0.0
N77 N 0.45329 0.48884 0.09143 0.0
C78 C 0.47791 0.53 0.10728 0.0
C79 C 0.42909 0.44711 0.10609 0.0
C80 C 0.42899 0.44578 0.13791 0.0
C81 C 0.45209 0.4881 0.15465 0.0
C82 C 0.47679 0.53058 0.13906 0.0
Zn83 Zn 0.44945 0.49098 0.04472 0.0
O84 O 0.57861 0.52147 0.99538 0.0
C85 C 0.38257 0.58908 0.02156 0.0
O86 O 0.58207 0.51378 0.04527 0.0
H87 H 0.40895 0.41493 0.0931 0.0
H88 H 0.48453 0.57382 0.94606 0.0
H89 H 0.49778 0.56263 0.09528 0.0
O90 O 0.39788 0.5703 0.99581 0.0
O91 O 0.40052 0.56457 0.04569 0.0
H92 H 0.40108 0.42519 0.94304 0.0
O93 O 0.31898 0.46764 0.04349 0.0
O94 O 0.31295 0.47208 0.99347 0.0
O95 O 0.49641 0.41745 0.04297 0.0
O96 O 0.49795 0.42384 0.99315 0.0
C97 C 0.27479 0.4642 0.01834 0.0
H98 H 0.48299 0.57746 0.88989 0.0
H99 H 0.40222 0.42524 0.88687 0.0
H100 H 0.40917 0.41245 0.14931 0.0
H101 H 0.49559 0.56376 0.15137 0.0
C102 C 0.27634 0.53043 0.51783 0.0
N103 N 0.45532 0.50276 0.5915 0.0
C104 C 0.43053 0.54438 0.60614 0.0
C105 C 0.43095 0.54584 0.63796 0.0
C106 C 0.45511 0.50372 0.65473 0.0
C107 C 0.48005 0.46125 0.63917 0.0
C108 C 0.48067 0.46173 0.60737 0.0
Zn109 Zn 0.45202 0.50133 0.54479 0.0
C110 C 0.38156 0.40607 0.52014 0.0
N111 N 0.44302 0.49806 0.44725 0.0
C112 C 0.4227 0.53959 0.43109 0.0
C113 C 0.46236 0.45525 0.43288 0.0
C114 C 0.461 0.45298 0.40109 0.0
C115 C 0.4416 0.49543 0.384 0.0
C116 C 0.4226 0.5392 0.39926 0.0
Zn117 Zn 0.44631 0.49988 0.49397 0.0
O118 O 0.31788 0.5241 0.54333 0.0
C119 C 0.51721 0.59505 0.51835 0.0
O120 O 0.31696 0.52607 0.49321 0.0
H121 H 0.47941 0.42278 0.44607 0.0
H122 H 0.40972 0.57644 0.59315 0.0
H123 H 0.40681 0.57315 0.44287 0.0
O124 O 0.49822 0.57563 0.54362 0.0
O125 O 0.50081 0.57162 0.49372 0.0
H126 H 0.50094 0.42917 0.59536 0.0
O127 O 0.57572 0.47377 0.49514 0.0
O128 O 0.58608 0.47871 0.54518 0.0
O129 O 0.39195 0.42824 0.49509 0.0
O130 O 0.40594 0.42686 0.54504 0.0
C131 C 0.62203 0.47116 0.51992 0.0
H132 H 0.41087 0.57912 0.64934 0.0
H133 H 0.49954 0.42823 0.65152 0.0
H134 H 0.47659 0.41868 0.38996 0.0
H135 H 0.40693 0.57256 0.38667 0.0
C136 C 0.27116 0.64312 0.0453 0.0
C137 C 0.335 0.63647 0.02328 0.0
C138 C 0.21866 0.68579 0.04563 0.0
C139 C 0.23245 0.72348 0.02408 0.0
C140 C 0.29885 0.71755 1.00236 0.0
C141 C 0.34817 0.67364 1.00184 0.0
C142 C 0.14679 0.68992 0.06852 0.0
C143 C 0.31758 0.7575 0.97963 0.0
C144 C 0.04813 0.81584 1.00476 0.0
C145 C 0.07233 0.85516 0.02393 0.0
C146 C 0.09843 0.77224 1.00512 0.0
C147 C 0.17684 0.76889 0.02412 0.0
C148 C 0.20205 0.80896 0.04319 0.0
C149 C 0.14851 0.85125 0.04328 0.0
C150 C 0.06771 0.72978 0.98518 0.0
C151 C 0.28668 0.80767 0.06294 0.0
H152 H 0.25978 0.61402 0.06156 0.0
H153 H 0.39746 0.66845 0.98479 0.0
H154 H 0.15847 0.72277 0.0831 0.0
H155 H 0.08106 0.69475 0.05643 0.0
H156 H 0.14372 0.65701 0.08343 0.0
H157 H 0.37441 0.7482 0.96531 0.0
H158 H 0.25786 0.76386 0.96446 0.0
H159 H 0.3326 0.79254 0.99173 0.0
H160 H -0.01064 0.81907 0.98972 0.0
H161 H 0.16818 0.88215 0.05765 0.0
H162 H 0.06021 0.69627 0.99926 0.0
H163 H 0.11832 0.72158 0.96823 0.0
H164 H 0.00326 0.73747 0.9728 0.0
H165 H 0.29809 0.84246 0.07578 0.0
H166 H 0.34452 0.80104 0.04859 0.0
H167 H 0.28422 0.77691 0.07947 0.0
C168 C 0.5503 0.31471 0.03689 0.0
C169 C 0.56452 0.35253 0.016 0.0
C170 C 0.60244 0.27177 0.03704 0.0
C171 C 0.67229 0.26735 0.01647 0.0
C172 C 0.68762 0.30593 0.99567 0.0
C173 C 0.63255 0.34764 0.99533 0.0
C174 C 0.58231 0.23105 0.05906 0.0
C175 C 0.76346 0.30368 0.97423 0.0
C176 C 0.85838 0.17615 0.03636 0.0
C177 C 0.83799 0.13766 0.01609 0.0
C178 C 0.80569 0.21885 0.03653 0.0
C179 C 0.72923 0.22238 0.01659 0.0
C180 C 0.70758 0.18302 0.9965 0.0
C181 C 0.76311 0.14153 0.99612 0.0
C182 C 0.83297 0.26042 0.05768 0.0
C183 C 0.62487 0.18429 0.97579 0.0
H184 H 0.49795 0.31861 0.05297 0.0
H185 H 0.64504 0.37742 0.97964 0.0
H186 H 0.55705 0.19863 0.04607 0.0
H187 H 0.64364 0.21956 0.07208 0.0
H188 H 0.53153 0.24202 0.07543 0.0
H189 H 0.76898 0.33775 0.96048 0.0
H190 H 0.82724 0.2979 0.98739 0.0
H191 H 0.75414 0.27202 0.9585 0.0
H192 H 0.91609 0.173 0.05189 0.0
H193 H 0.74601 0.11118 0.98096 0.0
H194 H 0.77501 0.275 0.06963 0.0
H195 H 0.86017 0.29083 0.04406 0.0
H196 H 0.88492 0.24897 0.07498 0.0
H197 H 0.56544 0.1908 0.98941 0.0
H198 H 0.61492 0.14955 0.96278 0.0
H199 H 0.62912 0.21513 0.95939 0.0
C200 C 0.05441 0.1771 0.54081 0.0
C201 C 0.07251 0.1396 0.52012 0.0
C202 C 0.10436 0.22085 0.54142 0.0
C203 C 0.17632 0.22612 0.52178 0.0
C204 C 0.1961 0.18762 0.50145 0.0
C205 C 0.14283 0.14529 0.50044 0.0
C206 C 0.07968 0.2616 0.56282 0.0
C207 C 0.27392 0.19095 0.48087 0.0
C208 C 0.25875 0.35273 0.49986 0.0
C209 C 0.33181 0.3593 0.52033 0.0
C210 C 0.20643 0.3101 0.50061 0.0
C211 C 0.2294 0.27239 0.52174 0.0
C212 C 0.30404 0.27857 0.54222 0.0
C213 C 0.35347 0.32245 0.54165 0.0
C214 C 0.12564 0.30582 0.47915 0.0
C215 C 0.33274 0.23847 0.56427 0.0
H216 H 0.00026 0.17251 0.55612 0.0
H217 H 0.15807 0.11579 0.48488 0.0
H218 H 0.13662 0.26998 0.57885 0.0
H219 H 0.06443 0.29562 0.54965 0.0
H220 H 0.02109 0.25204 0.57625 0.0
H221 H 0.28449 0.15624 0.46819 0.0
H222 H 0.26263 0.22112 0.46416 0.0
H223 H 0.33574 0.19972 0.49448 0.0
H224 H 0.24087 0.38168 0.48376 0.0
H225 H 0.40997 0.32764 0.55749 0.0
H226 H 0.06482 0.30272 0.49251 0.0
H227 H 0.12984 0.27208 0.46512 0.0
H228 H 0.11814 0.33794 0.46364 0.0
H229 H 0.27637 0.22709 0.57817 0.0
H230 H 0.38903 0.25007 0.57983 0.0
H231 H 0.35365 0.2057 0.55134 0.0
C232 C 0.86286 0.81787 0.53684 0.0
C233 C 0.83863 0.85717 0.51765 0.0
C234 C 0.81127 0.7747 0.537 0.0
C235 C 0.73175 0.77188 0.51852 0.0
C236 C 0.7063 0.81208 0.49961 0.0
C237 C 0.76094 0.85382 0.49898 0.0
C238 C 0.84208 0.73204 0.55674 0.0
C239 C 0.62075 0.8113 0.4803 0.0
C240 C 0.63289 0.64787 0.49604 0.0
C241 C 0.5681 0.64149 0.51778 0.0
C242 C 0.68762 0.68965 0.4964 0.0
C243 C 0.67562 0.7267 0.5185 0.0
C244 C 0.60897 0.7209 0.54015 0.0
C245 C 0.55703 0.67787 0.53987 0.0
C246 C 0.75966 0.69356 0.47355 0.0
C247 C 0.59222 0.76027 0.56345 0.0
H248 H 0.92278 0.82066 0.55136 0.0
H249 H 0.74129 0.88469 0.48458 0.0
H250 H 0.79157 0.72359 0.57368 0.0
H251 H 0.84945 0.6987 0.54249 0.0
H252 H 0.90663 0.73957 0.5691 0.0
H253 H 0.60877 0.8464 0.46786 0.0
H254 H 0.62255 0.78099 0.46344 0.0
H255 H 0.56356 0.80425 0.49489 0.0
H256 H 0.64286 0.61929 0.47931 0.0
H257 H 0.50716 0.67287 0.55674 0.0
H258 H 0.82585 0.69344 0.48572 0.0
H259 H 0.75362 0.7287 0.46082 0.0
H260 H 0.75727 0.66282 0.45689 0.0
H261 H 0.65295 0.76616 0.57821 0.0
H262 H 0.53631 0.75075 0.57813 0.0
H263 H 0.57673 0.79563 0.55178 0.0
C264 C 0.27585 0.01313 0.04685 0.0
C265 C 0.22741 0.02934 0.02076 0.0
C266 C 0.36698 0.00372 0.04602 0.0
C267 C 0.41109 0.01223 0.01872 0.0
C268 C 0.36391 0.03165 0.99286 0.0
C269 C 0.2719 0.03932 0.99404 0.0
C270 C 0.41512 0.98252 0.07395 0.0
C271 C 0.41003 0.04279 0.96375 0.0
C272 C 0.65995 0.02267 0.02932 0.0
C273 C 0.68774 0.97621 0.01989 0.0
C274 C 0.57022 0.03562 0.02776 0.0
C275 C 0.50673 0.00049 0.01749 0.0
C276 C 0.53445 0.95326 1.00793 0.0
C277 C 0.62566 0.94194 1.00864 0.0
C278 C 0.54364 0.08681 0.03717 0.0
C279 C 0.4678 0.91461 0.99754 0.0
H280 H 0.24166 0.0048 0.06749 0.0
H281 H 0.23442 0.05177 0.97386 0.0
H282 H 0.44282 0.94592 0.06845 0.0
H283 H 0.47185 0.00644 0.0812 0.0
H284 H 0.37086 0.97832 0.09343 0.0
H285 H 0.36528 0.06155 0.94665 0.0
H286 H 0.46913 0.06641 0.9686 0.0
H287 H 0.43407 0.00814 0.95364 0.0
H288 H 0.7091 0.04944 0.03729 0.0
H289 H 0.64827 0.90638 1.00095 0.0
H290 H 0.5008 0.08494 0.05711 0.0
H291 H 0.50429 0.10482 0.01837 0.0
H292 H 0.60227 0.11022 0.04326 0.0
H293 H 0.50038 0.88 0.99053 0.0
H294 H 0.42577 0.92861 0.97807 0.0
H295 H 0.42279 0.90616 0.01626 0.0
C296 C 0.28478 0.94358 0.50908 0.0
C297 C 0.22539 0.9784 0.51967 0.0
C298 C 0.37565 0.95502 0.50787 0.0
C299 C 0.40544 0.00283 0.51631 0.0
C300 C 0.34435 0.03848 0.52586 0.0
C301 C 0.25517 0.02547 0.5279 0.0
C302 C 0.43996 0.91586 0.49829 0.0
C303 C 0.37306 0.09022 0.53409 0.0
C304 C 0.64306 0.01646 0.54574 0.0
C305 C 0.68574 0.03084 0.51936 0.0
C306 C 0.55161 0.00751 0.545 0.0
C307 C 0.50132 0.01458 0.51744 0.0
C308 C 0.54264 0.03245 0.49127 0.0
C309 C 0.635 0.03986 0.49243 0.0
C310 C 0.50962 0.98829 0.57335 0.0
C311 C 0.48991 0.04202 0.46185 0.0
H312 H 0.2605 0.9075 0.50234 0.0
H313 H 0.20792 0.05254 0.53545 0.0
H314 H 0.47733 0.92882 0.47857 0.0
H315 H 0.48946 0.9084 0.5172 0.0
H316 H 0.40582 0.88089 0.49196 0.0
H317 H 0.31612 0.1138 0.54015 0.0
H318 H 0.42201 0.08957 0.55369 0.0
H319 H 0.40639 0.10735 0.51466 0.0
H320 H 0.6818 0.00931 0.56665 0.0
H321 H 0.66776 0.05106 0.47201 0.0
H322 H 0.47994 0.95157 0.56867 0.0
H323 H 0.45504 0.01299 0.57998 0.0
H324 H 0.55836 0.98499 0.59297 0.0
H325 H 0.46439 0.00678 0.45227 0.0
H326 H 0.53059 0.06021 0.44455 0.0
H327 H 0.43138 0.06552 0.4661 0.0
C328 C 0.77653 0.54929 1.01113 0.0
C329 C 0.71705 0.51389 0.02095 0.0
C330 C 0.86738 0.53798 1.00977 0.0
C331 C 0.89705 0.48973 0.01717 0.0
C332 C 0.83591 0.45361 0.02606 0.0
C333 C 0.74674 0.46647 0.02834 0.0
C334 C 0.93171 0.57764 1.00096 0.0
C335 C 0.86439 0.40144 0.03313 0.0
C336 C 0.12583 0.45439 0.99169 0.0
C337 C 0.17717 0.46168 0.01868 0.0
C338 C 0.03344 0.46166 0.99103 0.0
C339 C -0.00717 0.47784 0.01775 0.0
C340 C 0.04385 0.48332 0.0453 0.0
C341 C 0.13524 0.47439 0.04553 0.0
C342 C -0.02012 0.45369 0.96159 0.0
C343 C 0.00273 0.50092 0.07419 0.0
H344 H 0.75225 0.58563 1.00497 0.0
H345 H 0.69934 0.43895 0.03519 0.0
H346 H -0.01807 0.58371 0.01984 0.0
H347 H -0.03182 0.56594 0.98074 0.0
H348 H 0.89772 0.61307 0.99567 0.0
H349 H 0.80721 0.37758 0.03856 0.0
H350 H 0.89789 0.38545 0.01338 0.0
H351 H 0.91309 0.40094 0.05281 0.0
H352 H 0.15814 0.44446 0.97094 0.0
H353 H 0.17457 0.4804 0.06646 0.0
H354 H -0.04622 0.4894 0.95292 0.0
H355 H 0.9217 0.42976 0.96552 0.0
H356 H 0.02012 0.43669 0.94373 0.0
H357 H -0.02663 0.53797 0.07043 0.0
H358 H 0.05194 0.50296 0.09375 0.0
H359 H 0.94804 0.47598 0.08041 0.0
C360 C 0.12816 0.55248 0.53734 0.0
C361 C 0.17926 0.52751 0.51643 0.0
C362 C 0.03635 0.54367 0.53823 0.0
C363 C -0.00297 0.50736 0.51883 0.0
C364 C 0.04897 0.48189 0.49789 0.0
C365 C 0.13923 0.49302 0.49656 0.0
C366 C -0.01837 0.57289 0.5599 0.0
C367 C 0.00993 0.4419 0.4775 0.0
C368 C 0.77625 0.45207 0.53963 0.0
C369 C 0.71859 0.4754 0.51844 0.0
C370 C 0.86801 0.46161 0.53984 0.0
C371 C 0.90082 0.49696 0.5194 0.0
C372 C 0.84217 0.5211 0.49836 0.0
C373 C 0.75193 0.50928 0.49777 0.0
C374 C 0.92973 0.43397 0.56177 0.0
C375 C 0.87428 0.56014 0.47691 0.0
H376 H 0.16002 0.57862 0.55292 0.0
H377 H 0.17968 0.4727 0.48099 0.0
H378 H 0.92606 0.59157 0.5471 0.0
H379 H -0.04838 0.54792 0.57659 0.0
H380 H 0.02188 0.60105 0.57256 0.0
H381 H -0.01568 0.4117 0.4917 0.0
H382 H -0.04708 0.45635 0.46336 0.0
H383 H 0.05951 0.4264 0.46208 0.0
H384 H 0.7496 0.42648 0.55585 0.0
H385 H 0.70653 0.52844 0.48201 0.0
H386 H -0.03485 0.46011 0.57741 0.0
H387 H -0.01899 0.41428 0.549 0.0
H388 H 0.8937 0.40685 0.57561 0.0
H389 H 0.90486 0.59089 0.49025 0.0
H390 H 0.81958 0.57509 0.46185 0.0
H391 H 0.92626 0.54494 0.46239 0.0
C392 C 0.89289 0.02876 0.33334 0.0
C393 C 0.95121 -0.00145 0.35052 0.0
C394 C 0.89477 0.02974 0.30141 0.0
C395 C -0.04517 -0.00124 0.28644 0.0
C396 C 0.01273 0.96749 0.30378 0.0
C397 C 0.01102 0.96826 0.33571 0.0
C398 C 0.83346 0.06436 0.28373 0.0
C399 C 0.07609 0.93307 0.28862 0.0
C400 C 0.90079 0.97016 0.20306 0.0
C401 C -0.0389 0.00055 0.18857 0.0
C402 C 0.89898 0.9686 0.23497 0.0
C403 C -0.0427 -0.0008 0.25262 0.0
C404 C 0.0178 0.03034 0.23797 0.0
C405 C 0.01978 0.03013 0.20603 0.0
C406 C 0.8352 0.93401 0.24978 0.0
C407 C 0.07958 0.06427 0.25599 0.0
H408 H 0.84717 0.05239 0.34497 0.0
H409 H 0.05565 0.94472 0.34916 0.0
H410 H 0.87306 0.08949 0.2697 0.0
H411 H 0.78859 0.04329 0.26786 0.0
H412 H 0.79214 0.08678 0.29887 0.0
H413 H 0.11449 0.90994 0.30537 0.0
H414 H 0.03858 0.90863 0.27244 0.0
H415 H 0.12368 0.95443 0.27523 0.0
H416 H 0.85593 0.94711 0.18936 0.0
H417 H 0.06598 0.05376 0.19462 0.0
H418 H 0.78797 0.95516 0.26343 0.0
H419 H 0.87244 0.90898 0.26568 0.0
H420 H 0.79645 0.9115 0.2328 0.0
H421 H 0.04035 0.08911 0.27032 0.0
H422 H 0.12107 0.08699 0.24107 0.0
H423 H 0.1243 0.0426 0.27159 0.0
C424 C 0.00347 0.95748 0.83474 0.0
C425 C 0.9499 0.99075 0.85023 0.0
C426 C 0.00658 0.95811 0.80284 0.0
C427 C -0.04746 0.99165 0.78582 0.0
C428 C 0.89678 0.02455 0.8011 0.0
C429 C 0.89722 0.02427 0.83308 0.0
C430 C 0.06828 0.9231 0.78737 0.0
C431 C 0.83672 0.06015 0.78367 0.0
C432 C 0.01375 0.02597 0.7055 0.0
C433 C -0.04065 0.99417 0.68797 0.0
C434 C 0.01312 0.02508 0.73745 0.0
C435 C -0.04519 0.99253 0.752 0.0
C436 C 0.89882 0.96081 0.73425 0.0
C437 C 0.90269 0.96155 0.70237 0.0
C438 C 0.07538 0.05856 0.75561 0.0
C439 C 0.83416 0.92654 0.7489 0.0
H440 H 0.04298 0.9306 0.84748 0.0
H441 H 0.85686 0.05088 0.84457 0.0
H442 H 0.02929 0.89804 0.77202 0.0
H443 H 0.11426 0.94398 0.77306 0.0
H444 H 0.10844 0.90056 0.80396 0.0
H445 H 0.79379 0.08145 0.79888 0.0
H446 H 0.8773 0.08634 0.77076 0.0
H447 H 0.79345 0.03999 0.76681 0.0
H448 H 0.05777 0.05098 0.69416 0.0
H449 H 0.86027 0.93728 0.68861 0.0
H450 H 0.11863 0.03651 0.77151 0.0
H451 H 0.03663 0.08405 0.76965 0.0
H452 H 0.11831 0.08063 0.74081 0.0
H453 H 0.87073 0.90039 0.76422 0.0
H454 H 0.79364 0.90519 0.7318 0.0
H455 H 0.78864 0.94788 0.76313 0.0
C456 C 0.49894 0.5252 0.33481 0.0
C457 C 0.44215 0.49411 0.35037 0.0
C458 C 0.50166 0.52363 0.30291 0.0
C459 C 0.44444 0.49109 0.28623 0.0
C460 C 0.38604 0.46008 0.30191 0.0
C461 C 0.38648 0.46151 0.33389 0.0
C462 C 0.56628 0.55643 0.28707 0.0
C463 C 0.32255 0.42578 0.28491 0.0
C464 C 0.3953 0.52208 0.20285 0.0
C465 C 0.44931 0.48827 0.18824 0.0
C466 C 0.39179 0.52278 0.23474 0.0
C467 C 0.44544 0.48972 0.25237 0.0
C468 C 0.50065 0.45572 0.23764 0.0
C469 C 0.50101 0.45498 0.20566 0.0
C470 C 0.33047 0.55874 0.24955 0.0
C471 C 0.56029 0.42067 0.25566 0.0
H472 H 0.54242 0.55009 0.34771 0.0
H473 H 0.34227 0.43771 0.34606 0.0
H474 H 0.61056 0.53387 0.27308 0.0
H475 H 0.52949 0.5819 0.27135 0.0
H476 H 0.60811 0.5785 0.30343 0.0
H477 H 0.27999 0.40495 0.30049 0.0
H478 H 0.27894 0.44703 0.26869 0.0
H479 H 0.36027 0.39919 0.27132 0.0
H480 H 0.35489 0.54753 0.18923 0.0
H481 H 0.5431 0.42907 0.19423 0.0
H482 H 0.36976 0.58436 0.26444 0.0
H483 H 0.28427 0.53874 0.26424 0.0
H484 H 0.29061 0.58062 0.23253 0.0
H485 H 0.60639 0.44166 0.27119 0.0
H486 H 0.60024 0.39709 0.24074 0.0
H487 H 0.51981 0.39666 0.27008 0.0
C488 C 0.50615 0.53698 0.70546 0.0
C489 C 0.45324 0.50387 0.68833 0.0
C490 C 0.50595 0.53693 0.73744 0.0
C491 C 0.44961 0.50388 0.75247 0.0
C492 C 0.39497 0.47091 0.73513 0.0
C493 C 0.39838 0.47086 0.70323 0.0
C494 C 0.56674 0.57179 0.75514 0.0
C495 C 0.33248 0.43596 0.75026 0.0
C496 C 0.50058 0.47018 0.83536 0.0
C497 C 0.44449 0.50225 0.85047 0.0
C498 C 0.50402 0.47089 0.80346 0.0
C499 C 0.44818 0.50355 0.78634 0.0
C500 C 0.39061 0.53564 0.80158 0.0
C501 C 0.39037 0.53506 0.83356 0.0
C502 C 0.56783 0.43697 0.78811 0.0
C503 C 0.32857 0.57014 0.7841 0.0
H504 H 0.54887 0.56227 0.69378 0.0
H505 H 0.35708 0.44555 0.68982 0.0
H506 H 0.52699 0.59678 0.76918 0.0
H507 H 0.61176 0.55075 0.77101 0.0
H508 H 0.60785 0.59437 0.74002 0.0
H509 H 0.29223 0.4139 0.73344 0.0
H510 H 0.37086 0.41046 0.76551 0.0
H511 H 0.28664 0.45683 0.76463 0.0
H512 H 0.54284 0.4451 0.8486 0.0
H513 H 0.34671 0.55963 0.84539 0.0
H514 H 0.61288 0.45865 0.77389 0.0
H515 H 0.53042 0.41133 0.77268 0.0
H516 H 0.60888 0.41506 0.80479 0.0
H517 H 0.36741 0.59585 0.77024 0.0
H518 H 0.28662 0.59194 0.79936 0.0
H519 H 0.28435 0.54889 0.76808 0.0
loop_
_geom_bond_atom_site_label_1
_geom_bond_atom_site_label_2
_geom_bond_distance
_geom_bond_site_symmetry_2
_ccdc_geom_bond_type
C0 O16 1.251 1_554 S
C0 O18 1.254 . S
N1 C2 1.335 1_655 S
N1 C6 1.304 1_545 S
N1 Zn7 2.020 1_545 S
C2 N1 1.335 1_455 S
C2 C3 1.379 . S
C2 H20 0.952 . S
C3 C2 1.379 . S
C3 C4 1.390 1_455 S
C3 H30 0.949 . S
C4 C3 1.390 1_655 S
C4 C5 1.357 1_545 S
C5 C4 1.357 1_565 S
C5 C6 1.370 . S
C5 H31 0.950 . S
C6 N1 1.304 1_565 S
C6 C5 1.370 . S
C6 H24 0.948 . S
Zn7 N1 2.020 1_565 S
Zn7 O16 2.039 1_665 S
Zn7 O22 2.034 1_565 S
Zn7 O26 2.025 . S
Zn7 O28 2.024 1_655 S
C8 O27 1.246 . S
C8 O28 1.249 1_554 S
N9 C10 1.307 1_565 S
N9 C11 1.333 1_455 S
N9 Zn15 2.020 1_565 S
C10 N9 1.307 1_545 S
C10 C14 1.370 . S
C10 H21 0.948 . S
C11 N9 1.333 1_655 S
C11 C12 1.379 . S
C11 H19 0.952 . S
C12 C11 1.379 . S
C12 C13 1.390 1_655 S
C12 H32 0.949 . S
C13 C12 1.390 1_455 S
C13 C14 1.357 1_565 S
C14 C10 1.370 . S
C14 C13 1.357 1_545 S
C14 H33 0.950 . S
Zn15 N9 2.020 1_545 S
Zn15 O18 2.025 . S
Zn15 O23 2.024 1_455 S
Zn15 O25 2.039 1_445 S
Zn15 O27 2.034 1_545 S
O16 C0 1.251 1_556 S
O16 Zn7 2.039 1_445 S
C17 O22 1.246 1_554 S
C17 O23 1.249 . S
O18 C0 1.254 . S
O18 Zn15 2.025 . S
H19 C11 0.952 . S
H20 C2 0.952 . S
H21 C10 0.948 . S
O22 Zn7 2.034 1_545 S
O22 C17 1.246 1_556 S
O23 Zn15 2.024 1_655 S
O23 C17 1.249 . S
H24 C6 0.948 . S
O25 Zn15 2.039 1_665 S
O25 C29 1.251 . S
O26 Zn7 2.025 . S
O26 C29 1.254 1_556 S
O27 C8 1.246 . S
O27 Zn15 2.034 1_565 S
O28 Zn7 2.024 1_455 S
O28 C8 1.249 1_556 S
C29 O25 1.251 . S
C29 O26 1.254 1_554 S
H30 C3 0.949 . S
H31 C5 0.950 . S
H32 C12 0.949 . S
H33 C14 0.950 . S
C34 O50 1.251 . S
C34 O52 1.254 . S
N35 C36 1.335 1_455 S
N35 C40 1.304 1_545 S
N35 Zn41 2.020 1_545 S
C36 N35 1.335 1_655 S
C36 C37 1.379 . S
C36 H54 0.952 . S
C37 C36 1.379 . S
C37 C38 1.390 1_655 S
C37 H64 0.949 . S
C38 C37 1.390 1_455 S
C38 C39 1.357 1_545 S
C39 C38 1.357 1_565 S
C39 C40 1.370 . S
C39 H65 0.950 . S
C40 N35 1.304 1_565 S
C40 C39 1.370 . S
C40 H58 0.948 . S
Zn41 N35 2.020 1_565 S
Zn41 O50 2.039 1_465 S
Zn41 O56 2.034 1_565 S
Zn41 O60 2.025 . S
Zn41 O62 2.024 1_455 S
C42 O61 1.246 . S
C42 O62 1.249 . S
N43 C44 1.307 1_565 S
N43 C45 1.333 1_655 S
N43 Zn49 2.020 1_565 S
C44 N43 1.307 1_545 S
C44 C48 1.370 . S
C44 H55 0.948 . S
C45 N43 1.333 1_455 S
C45 C46 1.379 . S
C45 H53 0.952 . S
C46 C45 1.379 . S
C46 C47 1.390 1_455 S
C46 H66 0.949 . S
C47 C46 1.390 1_655 S
C47 C48 1.357 1_565 S
C48 C44 1.370 . S
C48 C47 1.357 1_545 S
C48 H67 0.950 . S
Zn49 N43 2.020 1_545 S
Zn49 O52 2.025 . S
Zn49 O57 2.024 1_655 S
Zn49 O59 2.039 1_645 S
Zn49 O61 2.034 1_545 S
O50 C34 1.251 . S
O50 Zn41 2.039 1_645 S
C51 O56 1.246 . S
C51 O57 1.249 . S
O52 C34 1.254 . S
O52 Zn49 2.025 . S
H53 C45 0.952 . S
H54 C36 0.952 . S
H55 C44 0.948 . S
O56 Zn41 2.034 1_545 S
O56 C51 1.246 . S
O57 Zn49 2.024 1_455 S
O57 C51 1.249 . S
H58 C40 0.948 . S
O59 Zn49 2.039 1_465 S
O59 C63 1.251 . S
O60 Zn41 2.025 . S
O60 C63 1.254 . S
O61 C42 1.246 . S
O61 Zn49 2.034 1_565 S
O62 Zn41 2.024 1_655 S
O62 C42 1.249 . S
C63 O59 1.251 . S
C63 O60 1.254 . S
H64 C37 0.949 . S
H65 C39 0.950 . S
H66 C46 0.949 . S
H67 C48 0.950 . S
C68 O84 1.251 1_554 S
C68 O86 1.254 . S
N69 C70 1.333 . S
N69 C74 1.307 . S
N69 Zn75 2.020 . S
C70 N69 1.333 . S
C70 C71 1.379 . S
C70 H88 0.952 . S
C71 C70 1.379 . S
C71 C72 1.390 . S
C71 H98 0.949 . S
C72 C71 1.390 . S
C72 C73 1.357 . S
C73 C72 1.357 . S
C73 C74 1.370 . S
C73 H99 0.950 . S
C74 N69 1.307 . S
C74 C73 1.370 . S
C74 H92 0.948 . S
Zn75 N69 2.020 . S
Zn75 O84 2.039 . S
Zn75 O90 2.034 . S
Zn75 O94 2.025 . S
Zn75 O96 2.024 . S
C76 O95 1.246 . S
C76 O96 1.249 1_554 S
N77 C78 1.307 . S
N77 C79 1.333 . S
N77 Zn83 2.020 . S
C78 N77 1.307 . S
C78 C82 1.370 . S
C78 H89 0.948 . S
C79 N77 1.333 . S
C79 C80 1.379 . S
C79 H87 0.952 . S
C80 C79 1.379 . S
C80 C81 1.390 . S
C80 H100 0.949 . S
C81 C80 1.390 . S
C81 C82 1.357 . S
C82 C78 1.370 . S
C82 C81 1.357 . S
C82 H101 0.950 . S
Zn83 N77 2.020 . S
Zn83 O86 2.025 . S
Zn83 O91 2.024 . S
Zn83 O93 2.039 . S
Zn83 O95 2.034 . S
O84 C68 1.251 1_556 S
O84 Zn75 2.039 . S
C85 O90 1.246 1_554 S
C85 O91 1.249 . S
O86 C68 1.254 . S
O86 Zn83 2.025 . S
H87 C79 0.952 . S
H88 C70 0.952 . S
H89 C78 0.948 . S
O90 Zn75 2.034 . S
O90 C85 1.246 1_556 S
O91 Zn83 2.024 . S
O91 C85 1.249 . S
H92 C74 0.948 . S
O93 Zn83 2.039 . S
O93 C97 1.251 . S
O94 Zn75 2.025 . S
O94 C97 1.254 1_556 S
O95 C76 1.246 . S
O95 Zn83 2.034 . S
O96 Zn75 2.024 . S
O96 C76 1.249 1_556 S
C97 O93 1.251 . S
C97 O94 1.254 1_554 S
H98 C71 0.949 . S
H99 C73 0.950 . S
H100 C80 0.949 . S
H101 C82 0.950 . S
C102 O118 1.251 . S
C102 O120 1.254 . S
N103 C104 1.333 . S
N103 C108 1.307 . S
N103 Zn109 2.020 . S
C104 N103 1.333 . S
C104 C105 1.379 . S
C104 H122 0.952 . S
C105 C104 1.379 . S
C105 C106 1.390 . S
C105 H132 0.949 . S
C106 C105 1.390 . S
C106 C107 1.357 . S
C107 C106 1.357 . S
C107 C108 1.370 . S
C107 H133 0.950 . S
C108 N103 1.307 . S
C108 C107 1.370 . S
C108 H126 0.948 . S
Zn109 N103 2.020 . S
Zn109 O118 2.039 . S
Zn109 O124 2.034 . S
Zn109 O128 2.025 . S
Zn109 O130 2.024 . S
C110 O129 1.246 . S
C110 O130 1.249 . S
N111 C112 1.307 . S
N111 C113 1.333 . S
N111 Zn117 2.020 . S
C112 N111 1.307 . S
C112 C116 1.370 . S
C112 H123 0.948 . S
C113 N111 1.333 . S
C113 C114 1.379 . S
C113 H121 0.952 . S
C114 C113 1.379 . S
C114 C115 1.390 . S
C114 H134 0.949 . S
C115 C114 1.390 . S
C115 C116 1.357 . S
C116 C112 1.370 . S
C116 C115 1.357 . S
C116 H135 0.950 . S
Zn117 N111 2.020 . S
Zn117 O120 2.025 . S
Zn117 O125 2.024 . S
Zn117 O127 2.039 . S
Zn117 O129 2.034 . S
O118 C102 1.251 . S
O118 Zn109 2.039 . S
C119 O124 1.246 . S
C119 O125 1.249 . S
O120 C102 1.254 . S
O120 Zn117 2.025 . S
H121 C113 0.952 . S
H122 C104 0.952 . S
H123 C112 0.948 . S
O124 Zn109 2.034 . S
O124 C119 1.246 . S
O125 Zn117 2.024 . S
O125 C119 1.249 . S
H126 C108 0.948 . S
O127 Zn117 2.039 . S
O127 C131 1.251 . S
O128 Zn109 2.025 . S
O128 C131 1.254 . S
O129 C110 1.246 . S
O129 Zn117 2.034 . S
O130 Zn109 2.024 . S
O130 C110 1.249 . S
C131 O127 1.251 . S
C131 O128 1.254 . S
H132 C105 0.949 . S
H133 C107 0.950 . S
H134 C114 0.949 . S
H135 C116 0.950 . S
C136 C137 1.391 . S
C136 C138 1.394 . S
C136 H152 0.931 . S
C137 C136 1.391 . S
C137 C141 1.376 1_554 S
C138 C136 1.394 . S
C138 C139 1.369 . S
C138 C142 1.531 . S
C139 C138 1.369 . S
C139 C140 1.410 1_554 S
C139 C147 1.503 . S
C140 C139 1.410 1_556 S
C140 C141 1.392 . S
C140 C143 1.511 . S
C141 C137 1.376 1_556 S
C141 C140 1.392 . S
C141 H153 0.929 . S
C142 C138 1.531 . S
C142 H154 0.960 . S
C142 H155 0.962 . S
C142 H156 0.960 . S
C143 C140 1.511 . S
C143 H157 0.961 . S
C143 H158 0.961 . S
C143 H159 0.961 . S
C144 C145 1.370 . S
C144 C146 1.363 . S
C144 H160 0.931 1_554 S
C145 C144 1.370 . S
C145 C149 1.408 . S
C146 C144 1.363 . S
C146 C147 1.370 . S
C146 C150 1.524 1_554 S
C147 C139 1.503 . S
C147 C146 1.370 . S
C147 C148 1.403 . S
C148 C147 1.403 . S
C148 C149 1.404 . S
C148 C151 1.539 . S
C149 C145 1.408 . S
C149 C148 1.404 . S
C149 H161 0.930 . S
C150 C146 1.524 1_556 S
C150 H162 0.956 1_556 S
C150 H163 0.961 . S
C150 H164 0.961 . S
C151 C148 1.539 . S
C151 H165 0.958 . S
C151 H166 0.961 . S
C151 H167 0.960 . S
H152 C136 0.931 . S
H153 C141 0.929 . S
H154 C142 0.960 . S
H155 C142 0.962 . S
H156 C142 0.960 . S
H157 C143 0.961 . S
H158 C143 0.961 . S
H159 C143 0.961 . S
H160 C144 0.931 1_556 S
H161 C149 0.930 . S
H162 C150 0.956 1_554 S
H163 C150 0.961 . S
H164 C150 0.961 . S
H165 C151 0.958 . S
H166 C151 0.961 . S
H167 C151 0.960 . S
C168 C169 1.391 . S
C168 C170 1.394 . S
C168 H184 0.931 . S
C169 C168 1.391 . S
C169 C173 1.376 1_554 S
C170 C168 1.394 . S
C170 C171 1.369 . S
C170 C174 1.531 . S
C171 C170 1.369 . S
C171 C172 1.410 1_554 S
C171 C179 1.503 . S
C172 C171 1.410 1_556 S
C172 C173 1.392 . S
C172 C175 1.511 . S
C173 C169 1.376 1_556 S
C173 C172 1.392 . S
C173 H185 0.929 . S
C174 C170 1.531 . S
C174 H186 0.960 . S
C174 H187 0.962 . S
C174 H188 0.960 . S
C175 C172 1.511 . S
C175 H189 0.961 . S
C175 H190 0.961 . S
C175 H191 0.961 . S
C176 C177 1.370 . S
C176 C178 1.363 . S
C176 H192 0.931 . S
C177 C176 1.370 . S
C177 C181 1.408 1_554 S
C178 C176 1.363 . S
C178 C179 1.370 . S
C178 C182 1.524 . S
C179 C171 1.503 . S
C179 C178 1.370 . S
C179 C180 1.403 1_554 S
C180 C179 1.403 1_556 S
C180 C181 1.404 . S
C180 C183 1.539 . S
C181 C177 1.408 1_556 S
C181 C180 1.404 . S
C181 H193 0.930 . S
C182 C178 1.524 . S
C182 H194 0.956 . S
C182 H195 0.961 . S
C182 H196 0.961 . S
C183 C180 1.539 . S
C183 H197 0.958 . S
C183 H198 0.961 . S
C183 H199 0.960 . S
H184 C168 0.931 . S
H185 C173 0.929 . S
H186 C174 0.960 . S
H187 C174 0.962 . S
H188 C174 0.960 . S
H189 C175 0.961 . S
H190 C175 0.961 . S
H191 C175 0.961 . S
H192 C176 0.931 . S
H193 C181 0.930 . S
H194 C182 0.956 . S
H195 C182 0.961 . S
H196 C182 0.961 . S
H197 C183 0.958 . S
H198 C183 0.961 . S
H199 C183 0.960 . S
C200 C201 1.391 . S
C200 C202 1.394 . S
C200 H216 0.931 . S
C201 C200 1.391 . S
C201 C205 1.376 . S
C202 C200 1.394 . S
C202 C203 1.369 . S
C202 C206 1.531 . S
C203 C202 1.369 . S
C203 C204 1.410 . S
C203 C211 1.503 . S
C204 C203 1.410 . S
C204 C205 1.392 . S
C204 C207 1.511 . S
C205 C201 1.376 . S
C205 C204 1.392 . S
C205 H217 0.929 . S
C206 C202 1.531 . S
C206 H218 0.960 . S
C206 H219 0.962 . S
C206 H220 0.960 . S
C207 C204 1.511 . S
C207 H221 0.961 . S
C207 H222 0.961 . S
C207 H223 0.961 . S
C208 C209 1.370 . S
C208 C210 1.363 . S
C208 H224 0.931 . S
C209 C208 1.370 . S
C209 C213 1.408 . S
C210 C208 1.363 . S
C210 C211 1.370 . S
C210 C214 1.524 . S
C211 C203 1.503 . S
C211 C210 1.370 . S
C211 C212 1.403 . S
C212 C211 1.403 . S
C212 C213 1.404 . S
C212 C215 1.539 . S
C213 C209 1.408 . S
C213 C212 1.404 . S
C213 H225 0.930 . S
C214 C210 1.524 . S
C214 H226 0.956 . S
C214 H227 0.961 . S
C214 H228 0.961 . S
C215 C212 1.539 . S
C215 H229 0.958 . S
C215 H230 0.961 . S
C215 H231 0.960 . S
H216 C200 0.931 . S
H217 C205 0.929 . S
H218 C206 0.960 . S
H219 C206 0.962 . S
H220 C206 0.960 . S
H221 C207 0.961 . S
H222 C207 0.961 . S
H223 C207 0.961 . S
H224 C208 0.931 . S
H225 C213 0.930 . S
H226 C214 0.956 . S
H227 C214 0.961 . S
H228 C214 0.961 . S
H229 C215 0.958 . S
H230 C215 0.961 . S
H231 C215 0.960 . S
C232 C233 1.391 . S
C232 C234 1.394 . S
C232 H248 0.931 . S
C233 C232 1.391 . S
C233 C237 1.376 . S
C234 C232 1.394 . S
C234 C235 1.369 . S
C234 C238 1.531 . S
C235 C234 1.369 . S
C235 C236 1.410 . S
C235 C243 1.503 . S
C236 C235 1.410 . S
C236 C237 1.392 . S
C236 C239 1.511 . S
C237 C233 1.376 . S
C237 C236 1.392 . S
C237 H249 0.929 . S
C238 C234 1.531 . S
C238 H250 0.960 . S
C238 H251 0.962 . S
C238 H252 0.960 . S
C239 C236 1.511 . S
C239 H253 0.961 . S
C239 H254 0.961 . S
C239 H255 0.961 . S
C240 C241 1.370 . S
C240 C242 1.363 . S
C240 H256 0.931 . S
C241 C240 1.370 . S
C241 C245 1.408 . S
C242 C240 1.363 . S
C242 C243 1.370 . S
C242 C246 1.524 . S
C243 C235 1.503 . S
C243 C242 1.370 . S
C243 C244 1.403 . S
C244 C243 1.403 . S
C244 C245 1.404 . S
C244 C247 1.539 . S
C245 C241 1.408 . S
C245 C244 1.404 . S
C245 H257 0.930 . S
C246 C242 1.524 . S
C246 H258 0.956 . S
C246 H259 0.961 . S
C246 H260 0.961 . S
C247 C244 1.539 . S
C247 H261 0.958 . S
C247 H262 0.961 . S
C247 H263 0.960 . S
H248 C232 0.931 . S
H249 C237 0.929 . S
H250 C238 0.960 . S
H251 C238 0.962 . S
H252 C238 0.960 . S
H253 C239 0.961 . S
H254 C239 0.961 . S
H255 C239 0.961 . S
H256 C240 0.931 . S
H257 C245 0.930 . S
H258 C246 0.956 . S
H259 C246 0.961 . S
H260 C246 0.961 . S
H261 C247 0.958 . S
H262 C247 0.961 . S
H263 C247 0.960 . S
C264 C265 1.391 1_565 S
C264 C266 1.394 . S
C264 H280 0.931 . S
C265 C264 1.391 1_545 S
C265 C269 1.376 1_554 S
C266 C264 1.394 . S
C266 C267 1.397 . S
C266 C270 1.531 . S
C267 C266 1.397 . S
C267 C268 1.379 1_564 S
C267 C275 1.507 . S
C268 C267 1.379 1_546 S
C268 C269 1.392 . S
C268 C271 1.511 . S
C269 C265 1.376 1_556 S
C269 C268 1.392 . S
C269 H281 0.929 . S
C270 C266 1.531 . S
C270 H282 0.960 . S
C270 H283 0.962 . S
C270 H284 0.960 . S
C271 C268 1.511 . S
C271 H285 0.961 . S
C271 H286 0.961 . S
C271 H287 0.961 . S
C272 C273 1.376 . S
C272 C274 1.361 1_565 S
C272 H288 0.927 1_565 S
C273 C272 1.376 . S
C273 C277 1.408 1_554 S
C274 C272 1.361 1_545 S
C274 C275 1.370 1_545 S
C274 C278 1.524 . S
C275 C267 1.507 . S
C275 C274 1.370 1_565 S
C275 C276 1.403 1_554 S
C276 C275 1.403 1_556 S
C276 C277 1.404 . S
C276 C279 1.539 . S
C277 C273 1.408 1_556 S
C277 C276 1.404 . S
C277 H289 0.930 . S
C278 C274 1.524 . S
C278 H290 0.956 . S
C278 H291 0.961 . S
C278 H292 0.961 . S
C279 C276 1.539 . S
C279 H293 0.958 . S
C279 H294 0.961 . S
C279 H295 0.960 . S
H280 C264 0.931 . S
H281 C269 0.929 . S
H282 C270 0.960 . S
H283 C270 0.962 . S
H284 C270 0.960 . S
H285 C271 0.961 . S
H286 C271 0.961 . S
H287 C271 0.961 . S
H288 C272 0.927 1_545 S
H289 C277 0.930 . S
H290 C278 0.956 . S
H291 C278 0.961 . S
H292 C278 0.961 . S
H293 C279 0.958 . S
H294 C279 0.961 . S
H295 C279 0.960 . S
C296 C297 1.391 . S
C296 C298 1.394 . S
C296 H312 0.931 . S
C297 C296 1.391 . S
C297 C301 1.376 1_565 S
C298 C296 1.394 . S
C298 C299 1.369 . S
C298 C302 1.531 . S
C299 C298 1.369 . S
C299 C300 1.410 1_565 S
C299 C307 1.503 1_565 S
C300 C299 1.410 1_545 S
C300 C301 1.392 . S
C300 C303 1.511 . S
C301 C297 1.376 1_545 S
C301 C300 1.392 . S
C301 H313 0.929 . S
C302 C298 1.531 . S
C302 H314 0.960 . S
C302 H315 0.962 . S
C302 H316 0.960 . S
C303 C300 1.511 . S
C303 H317 0.961 . S
C303 H318 0.961 . S
C303 H319 0.961 . S
C304 C305 1.370 . S
C304 C306 1.363 . S
C304 H320 0.931 . S
C305 C304 1.370 . S
C305 C309 1.408 . S
C306 C304 1.363 . S
C306 C307 1.370 . S
C306 C310 1.524 . S
C307 C299 1.503 1_545 S
C307 C306 1.370 . S
C307 C308 1.403 . S
C308 C307 1.403 . S
C308 C309 1.404 . S
C308 C311 1.539 . S
C309 C305 1.408 . S
C309 C308 1.404 . S
C309 H321 0.930 . S
C310 C306 1.524 . S
C310 H322 0.956 1_545 S
C310 H323 0.961 . S
C310 H324 0.961 . S
C311 C308 1.539 . S
C311 H325 0.958 1_545 S
C311 H326 0.961 . S
C311 H327 0.960 . S
H312 C296 0.931 . S
H313 C301 0.929 . S
H314 C302 0.960 . S
H315 C302 0.962 . S
H316 C302 0.960 . S
H317 C303 0.961 . S
H318 C303 0.961 . S
H319 C303 0.961 . S
H320 C304 0.931 . S
H321 C309 0.930 . S
H322 C310 0.956 1_565 S
H323 C310 0.961 . S
H324 C310 0.961 . S
H325 C311 0.958 1_565 S
H326 C311 0.961 . S
H327 C311 0.960 . S
C328 C329 1.391 . S
C328 C330 1.394 . S
C328 H344 0.931 1_554 S
C329 C328 1.391 . S
C329 C333 1.376 . S
C330 C328 1.394 . S
C330 C331 1.369 . S
C330 C334 1.531 1_554 S
C331 C330 1.369 . S
C331 C332 1.410 . S
C331 C339 1.503 1_655 S
C332 C331 1.410 . S
C332 C333 1.392 . S
C332 C335 1.511 . S
C333 C329 1.376 . S
C333 C332 1.392 . S
C333 H345 0.929 . S
C334 C330 1.531 1_556 S
C334 H346 0.960 1_656 S
C334 H347 0.962 . S
C334 H348 0.958 1_556 S
C335 C332 1.511 . S
C335 H349 0.961 . S
C335 H350 0.961 . S
C335 H351 0.961 . S
C336 C337 1.370 1_556 S
C336 C338 1.363 . S
C336 H352 0.931 . S
C337 C336 1.370 1_554 S
C337 C341 1.408 . S
C338 C336 1.363 . S
C338 C339 1.370 1_556 S
C338 C342 1.524 . S
C339 C331 1.503 1_455 S
C339 C338 1.370 1_554 S
C339 C340 1.403 . S
C340 C339 1.403 . S
C340 C341 1.404 . S
C340 C343 1.539 . S
C341 C337 1.408 . S
C341 C340 1.404 . S
C341 H353 0.930 . S
C342 C338 1.524 . S
C342 H354 0.956 1_455 S
C342 H355 0.961 1_455 S
C342 H356 0.961 . S
C343 C340 1.539 . S
C343 H357 0.958 . S
C343 H358 0.961 . S
C343 H359 0.960 . S
H344 C328 0.931 1_556 S
H345 C333 0.929 . S
H346 C334 0.960 1_454 S
H347 C334 0.962 . S
H348 C334 0.958 1_554 S
H349 C335 0.961 . S
H350 C335 0.961 . S
H351 C335 0.961 . S
H352 C336 0.931 . S
H353 C341 0.930 . S
H354 C342 0.956 1_655 S
H355 C342 0.961 1_655 S
H356 C342 0.961 . S
H357 C343 0.958 . S
H358 C343 0.961 . S
H359 C343 0.960 . S
C360 C361 1.391 . S
C360 C362 1.394 . S
C360 H376 0.931 . S
C361 C360 1.391 . S
C361 C365 1.376 . S
C362 C360 1.394 . S
C362 C363 1.369 . S
C362 C366 1.531 . S
C363 C362 1.369 . S
C363 C364 1.410 . S
C363 C371 1.503 1_455 S
C364 C363 1.410 . S
C364 C365 1.392 . S
C364 C367 1.511 . S
C365 C361 1.376 . S
C365 C364 1.392 . S
C365 H377 0.929 . S
C366 C362 1.531 . S
C366 H378 0.960 1_455 S
C366 H379 0.962 . S
C366 H380 0.960 . S
C367 C364 1.511 . S
C367 H381 0.961 . S
C367 H382 0.961 . S
C367 H383 0.961 . S
C368 C369 1.370 . S
C368 C370 1.363 . S
C368 H384 0.931 . S
C369 C368 1.370 . S
C369 C373 1.408 . S
C370 C368 1.363 . S
C370 C371 1.370 . S
C370 C374 1.524 . S
C371 C363 1.503 1_655 S
C371 C370 1.370 . S
C371 C372 1.403 . S
C372 C371 1.403 . S
C372 C373 1.404 . S
C372 C375 1.539 . S
C373 C369 1.408 . S
C373 C372 1.404 . S
C373 H385 0.930 . S
C374 C370 1.524 . S
C374 H386 0.956 1_655 S
C374 H387 0.961 1_655 S
C374 H388 0.961 . S
C375 C372 1.539 . S
C375 H389 0.958 . S
C375 H390 0.961 . S
C375 H391 0.960 . S
H376 C360 0.931 . S
H377 C365 0.929 . S
H378 C366 0.960 1_655 S
H379 C366 0.962 . S
H380 C366 0.960 . S
H381 C367 0.961 . S
H382 C367 0.961 . S
H383 C367 0.961 . S
H384 C368 0.931 . S
H385 C373 0.930 . S
H386 C374 0.956 1_455 S
H387 C374 0.961 1_455 S
H388 C374 0.961 . S
H389 C375 0.958 . S
H390 C375 0.961 . S
H391 C375 0.960 . S
C392 C393 1.391 1_645 S
C392 C394 1.394 . S
C392 H408 0.931 . S
C393 C392 1.391 1_465 S
C393 C397 1.376 . S
C394 C392 1.394 . S
C394 C395 1.369 1_655 S
C394 C398 1.531 . S
C395 C394 1.369 1_455 S
C395 C396 1.410 1_545 S
C395 C403 1.503 . S
C396 C395 1.410 1_565 S
C396 C397 1.392 . S
C396 C399 1.511 . S
C397 C393 1.376 . S
C397 C396 1.392 . S
C397 H409 0.929 . S
C398 C394 1.531 . S
C398 H410 0.960 . S
C398 H411 0.962 . S
C398 H412 0.960 . S
C399 C396 1.511 . S
C399 H413 0.961 . S
C399 H414 0.961 . S
C399 H415 0.961 . S
C400 C401 1.370 1_655 S
C400 C402 1.363 . S
C400 H416 0.931 . S
C401 C400 1.370 1_455 S
C401 C405 1.408 1_565 S
C402 C400 1.363 . S
C402 C403 1.370 1_665 S
C402 C406 1.524 . S
C403 C395 1.503 . S
C403 C402 1.370 1_445 S
C403 C404 1.403 . S
C404 C403 1.403 . S
C404 C405 1.404 . S
C404 C407 1.539 . S
C405 C401 1.408 1_545 S
C405 C404 1.404 . S
C405 H417 0.930 . S
C406 C402 1.524 . S
C406 H418 0.956 . S
C406 H419 0.961 . S
C406 H420 0.961 . S
C407 C404 1.539 . S
C407 H421 0.958 . S
C407 H422 0.961 . S
C407 H423 0.960 . S
H408 C392 0.931 . S
H409 C397 0.929 . S
H410 C398 0.960 . S
H411 C398 0.962 . S
H412 C398 0.960 . S
H413 C399 0.961 . S
H414 C399 0.961 . S
H415 C399 0.961 . S
H416 C400 0.931 . S
H417 C405 0.930 . S
H418 C406 0.956 . S
H419 C406 0.961 . S
H420 C406 0.961 . S
H421 C407 0.958 . S
H422 C407 0.961 . S
H423 C407 0.960 . S
C424 C425 1.385 1_465 S
C424 C426 1.394 . S
C424 H440 0.931 . S
C425 C424 1.385 1_645 S
C425 C429 1.380 . S
C426 C424 1.394 . S
C426 C427 1.369 1_455 S
C426 C430 1.531 . S
C427 C426 1.369 1_655 S
C427 C428 1.410 1_565 S
C427 C435 1.503 . S
C428 C427 1.410 1_545 S
C428 C429 1.392 . S
C428 C431 1.511 . S
C429 C425 1.380 . S
C429 C428 1.392 . S
C429 H441 0.929 . S
C430 C426 1.531 . S
C430 H442 0.960 . S
C430 H443 0.962 . S
C430 H444 0.960 . S
C431 C428 1.511 . S
C431 H445 0.961 . S
C431 H446 0.961 . S
C431 H447 0.961 . S
C432 C433 1.370 1_455 S
C432 C434 1.363 . S
C432 H448 0.931 . S
C433 C432 1.370 1_655 S
C433 C437 1.408 1_545 S
C434 C432 1.363 . S
C434 C435 1.370 1_445 S
C434 C438 1.524 . S
C435 C427 1.503 . S
C435 C434 1.370 1_665 S
C435 C436 1.403 . S
C436 C435 1.403 . S
C436 C437 1.404 . S
C436 C439 1.539 . S
C437 C433 1.408 1_565 S
C437 C436 1.404 . S
C437 H449 0.930 . S
C438 C434 1.524 . S
C438 H450 0.956 . S
C438 H451 0.961 . S
C438 H452 0.961 . S
C439 C436 1.539 . S
C439 H453 0.958 . S
C439 H454 0.961 . S
C439 H455 0.960 . S
H440 C424 0.931 . S
H441 C429 0.929 . S
H442 C430 0.960 . S
H443 C430 0.962 . S
H444 C430 0.960 . S
H445 C431 0.961 . S
H446 C431 0.961 . S
H447 C431 0.961 . S
H448 C432 0.931 . S
H449 C437 0.930 . S
H450 C438 0.956 . S
H451 C438 0.961 . S
H452 C438 0.961 . S
H453 C439 0.958 . S
H454 C439 0.961 . S
H455 C439 0.960 . S
C456 C457 1.391 . S
C456 C458 1.394 . S
C456 H472 0.931 . S
C457 C456 1.391 . S
C457 C461 1.376 . S
C458 C456 1.394 . S
C458 C459 1.369 . S
C458 C462 1.531 . S
C459 C458 1.369 . S
C459 C460 1.410 . S
C459 C467 1.503 . S
C460 C459 1.410 . S
C460 C461 1.392 . S
C460 C463 1.511 . S
C461 C457 1.376 . S
C461 C460 1.392 . S
C461 H473 0.929 . S
C462 C458 1.531 . S
C462 H474 0.960 . S
C462 H475 0.962 . S
C462 H476 0.960 . S
C463 C460 1.511 . S
C463 H477 0.961 . S
C463 H478 0.961 . S
C463 H479 0.961 . S
C464 C465 1.370 . S
C464 C466 1.363 . S
C464 H480 0.931 . S
C465 C464 1.370 . S
C465 C469 1.408 . S
C466 C464 1.363 . S
C466 C467 1.370 . S
C466 C470 1.524 . S
C467 C459 1.503 . S
C467 C466 1.370 . S
C467 C468 1.403 . S
C468 C467 1.403 . S
C468 C469 1.404 . S
C468 C471 1.539 . S
C469 C465 1.408 . S
C469 C468 1.404 . S
C469 H481 0.930 . S
C470 C466 1.524 . S
C470 H482 0.956 . S
C470 H483 0.961 . S
C470 H484 0.961 . S
C471 C468 1.539 . S
C471 H485 0.958 . S
C471 H486 0.961 . S
C471 H487 0.960 . S
H472 C456 0.931 . S
H473 C461 0.929 . S
H474 C462 0.960 . S
H475 C462 0.962 . S
H476 C462 0.960 . S
H477 C463 0.961 . S
H478 C463 0.961 . S
H479 C463 0.961 . S
H480 C464 0.931 . S
H481 C469 0.930 . S
H482 C470 0.956 . S
H483 C470 0.961 . S
H484 C470 0.961 . S
H485 C471 0.958 . S
H486 C471 0.961 . S
H487 C471 0.960 . S
C488 C489 1.391 . S
C488 C490 1.394 . S
C488 H504 0.931 . S
C489 C488 1.391 . S
C489 C493 1.376 . S
C490 C488 1.394 . S
C490 C491 1.369 . S
C490 C494 1.531 . S
C491 C490 1.369 . S
C491 C492 1.410 . S
C491 C499 1.503 . S
C492 C491 1.410 . S
C492 C493 1.392 . S
C492 C495 1.511 . S
C493 C489 1.376 . S
C493 C492 1.392 . S
C493 H505 0.929 . S
C494 C490 1.531 . S
C494 H506 0.960 . S
C494 H507 0.962 . S
C494 H508 0.960 . S
C495 C492 1.511 . S
C495 H509 0.961 . S
C495 H510 0.961 . S
C495 H511 0.961 . S
C496 C497 1.370 . S
C496 C498 1.363 . S
C496 H512 0.931 . S
C497 C496 1.370 . S
C497 C501 1.408 . S
C498 C496 1.363 . S
C498 C499 1.370 . S
C498 C502 1.524 . S
C499 C491 1.503 . S
C499 C498 1.370 . S
C499 C500 1.403 . S
C500 C499 1.403 . S
C500 C501 1.404 . S
C500 C503 1.539 . S
C501 C497 1.408 . S
C501 C500 1.404 . S
C501 H513 0.930 . S
C502 C498 1.524 . S
C502 H514 0.956 . S
C502 H515 0.961 . S
C502 H516 0.961 . S
C503 C500 1.539 . S
C503 H517 0.958 . S
C503 H518 0.961 . S
C503 H519 0.960 . S
H504 C488 0.931 . S
H505 C493 0.929 . S
H506 C494 0.960 . S
H507 C494 0.962 . S
H508 C494 0.960 . S
H509 C495 0.961 . S
H510 C495 0.961 . S
H511 C495 0.961 . S
H512 C496 0.931 . S
H513 C501 0.930 . S
H514 C502 0.956 . S
H515 C502 0.961 . S
H516 C502 0.961 . S
H517 C503 0.958 . S
H518 C503 0.961 . S
H519 C503 0.960 . S
C137 C85 1.596 . S
C145 C8 1.587 . S
C169 C76 1.592 . S
C177 C17 1.586 . S
C201 C51 1.579 . S
C209 C110 1.591 . S
C233 C42 1.573 . S
C241 C119 1.597 . S
C265 C0 0.778 . S
C273 C29 0.794 . S
C297 C63 0.797 . S
C305 C34 0.791 . S
C329 C68 0.799 . S
C337 C97 0.790 . S
C361 C102 0.803 . S
C369 C131 0.788 . S
C393 C47 1.498 1_455 S
C401 C13 1.495 . S
C425 C4 1.490 . S
C433 C38 1.499 1_655 S
C457 C115 1.500 . S
C465 C81 1.495 . S
C489 C106 1.500 . S
C497 C72 1.496 . S
