# Generated by pormake.
# Topology umh, (4)-cn, num edge types: 1
# Building blocks:
#     Node 0, Type 0, BuildingBlock: GALJAG_clean_sbu_0, # of connection points: 4
#     Node 1, Type 0, BuildingBlock: GALJAG_clean_sbu_0, # of connection points: 4
#     Node 2, Type 0, BuildingBlock: GALJAG_clean_sbu_0, # of connection points: 4
#     Node 3, Type 0, BuildingBlock: GALJAG_clean_sbu_0, # of connection points: 4
#     Node 4, Type 0, BuildingBlock: GALJAG_clean_sbu_0, # of connection points: 4
#     Node 5, Type 0, BuildingBlock: GALJAG_clean_sbu_0, # of connection points: 4
#     Node 6, Type 0, BuildingBlock: GALJAG_clean_sbu_0, # of connection points: 4
#     Node 7, Type 0, BuildingBlock: GALJAG_clean_sbu_0, # of connection points: 4
#     Node 8, Type 0, BuildingBlock: GALJAG_clean_sbu_0, # of connection points: 4
#     Node 9, Type 0, BuildingBlock: GALJAG_clean_sbu_0, # of connection points: 4
#     Node 10, Type 0, BuildingBlock: GALJAG_clean_sbu_0, # of connection points: 4
#     Node 11, Type 0, BuildingBlock: GALJAG_clean_sbu_0, # of connection points: 4
#     Node 12, Type 0, BuildingBlock: GALJAG_clean_sbu_0, # of connection points: 4
#     Node 13, Type 0, BuildingBlock: GALJAG_clean_sbu_0, # of connection points: 4
#     Node 14, Type 0, BuildingBlock: GALJAG_clean_sbu_0, # of connection points: 4
#     Node 15, Type 0, BuildingBlock: GALJAG_clean_sbu_0, # of connection points: 4
#     Edge 16, Type (0, 0), BuildingBlock: UVAHIK_clean_linker_0, # of connection points: 2
#     Edge 17, Type (0, 0), BuildingBlock: UVAHIK_clean_linker_0, # of connection points: 2
#     Edge 18, Type (0, 0), BuildingBlock: UVAHIK_clean_linker_0, # of connection points: 2
#     Edge 19, Type (0, 0), BuildingBlock: UVAHIK_clean_linker_0, # of connection points: 2
#     Edge 20, Type (0, 0), BuildingBlock: UVAHIK_clean_linker_0, # of connection points: 2
#     Edge 21, Type (0, 0), BuildingBlock: UVAHIK_clean_linker_0, # of connection points: 2
#     Edge 22, Type (0, 0), BuildingBlock: UVAHIK_clean_linker_0, # of connection points: 2
#     Edge 23, Type (0, 0), BuildingBlock: UVAHIK_clean_linker_0, # of connection points: 2
#     Edge 24, Type (0, 0), BuildingBlock: UVAHIK_clean_linker_0, # of connection points: 2
#     Edge 25, Type (0, 0), BuildingBlock: UVAHIK_clean_linker_0, # of connection points: 2
#     Edge 26, Type (0, 0), BuildingBlock: UVAHIK_clean_linker_0, # of connection points: 2
#     Edge 27, Type (0, 0), BuildingBlock: UVAHIK_clean_linker_0, # of connection points: 2
#     Edge 28, Type (0, 0), BuildingBlock: UVAHIK_clean_linker_0, # of connection points: 2
#     Edge 29, Type (0, 0), BuildingBlock: UVAHIK_clean_linker_0, # of connection points: 2
#     Edge 30, Type (0, 0), BuildingBlock: UVAHIK_clean_linker_0, # of connection points: 2
#     Edge 31, Type (0, 0), BuildingBlock: UVAHIK_clean_linker_0, # of connection points: 2
#     Edge 32, Type (0, 0), BuildingBlock: UVAHIK_clean_linker_0, # of connection points: 2
#     Edge 33, Type (0, 0), BuildingBlock: UVAHIK_clean_linker_0, # of connection points: 2
#     Edge 34, Type (0, 0), BuildingBlock: UVAHIK_clean_linker_0, # of connection points: 2
#     Edge 35, Type (0, 0), BuildingBlock: UVAHIK_clean_linker_0, # of connection points: 2
#     Edge 36, Type (0, 0), BuildingBlock: UVAHIK_clean_linker_0, # of connection points: 2
#     Edge 37, Type (0, 0), BuildingBlock: UVAHIK_clean_linker_0, # of connection points: 2
#     Edge 38, Type (0, 0), BuildingBlock: UVAHIK_clean_linker_0, # of connection points: 2
#     Edge 39, Type (0, 0), BuildingBlock: UVAHIK_clean_linker_0, # of connection points: 2
#     Edge 40, Type (0, 0), BuildingBlock: UVAHIK_clean_linker_0, # of connection points: 2
#     Edge 41, Type (0, 0), BuildingBlock: UVAHIK_clean_linker_0, # of connection points: 2
#     Edge 42, Type (0, 0), BuildingBlock: UVAHIK_clean_linker_0, # of connection points: 2
#     Edge 43, Type (0, 0), BuildingBlock: UVAHIK_clean_linker_0, # of connection points: 2
#     Edge 44, Type (0, 0), BuildingBlock: UVAHIK_clean_linker_0, # of connection points: 2
#     Edge 45, Type (0, 0), BuildingBlock: UVAHIK_clean_linker_0, # of connection points: 2
#     Edge 46, Type (0, 0), BuildingBlock: UVAHIK_clean_linker_0, # of connection points: 2
#     Edge 47, Type (0, 0), BuildingBlock: UVAHIK_clean_linker_0, # of connection points: 2
# Relax obj value: 0.114
# Max RMSD: 0.280
# Mean RMSD: 0.280
data_MOF--net-umh--node1-GALJAG_clean_sbu_0--edge1-UVAHIK_clean_linker_0
_symmetry_space_group_name_H-M    P1
_symmetry_Int_Tables_number       1
_symmetry_cell_setting            triclinic
loop_
_symmetry_equiv_pos_as_xyz
'x, y, z'
_cell_length_a     52.179569
_cell_length_b     52.143474
_cell_length_c     67.877534
_cell_angle_alpha  89.991116
_cell_angle_beta   90.139004
_cell_angle_gamma 90.178592
loop_
_atom_site_label
_atom_site_type_symbol
_atom_site_fract_x
_atom_site_fract_y
_atom_site_fract_z
_atom_type_partial_charge
In0 In 0.35858 0.10324 0.16097 0.0
O1 O 0.34898 0.08372 0.1314 0.0
O2 O 0.3765 0.11412 0.13207 0.0
C3 C 0.33455 0.0831 0.19223 0.0
C4 C 0.40468 0.08667 0.17185 0.0
C5 C 0.33049 0.14595 0.16146 0.0
O6 O 0.33046 0.07454 0.17496 0.0
O7 O 0.35058 0.10127 0.19334 0.0
O8 O 0.3538 0.14618 0.16684 0.0
O9 O 0.32211 0.12456 0.15553 0.0
C10 C 0.36438 0.0979 0.12183 0.0
O11 O 0.40027 0.11045 0.16995 0.0
O12 O 0.38615 0.0718 0.168 0.0
In13 In 0.39443 0.3444 0.65745 0.0
O14 O 0.38912 0.38514 0.66918 0.0
O15 O 0.42678 0.37243 0.66138 0.0
C16 C 0.35174 0.31635 0.66178 0.0
C17 C 0.39129 0.35429 0.61858 0.0
C18 C 0.42134 0.31643 0.68346 0.0
O19 O 0.35435 0.33782 0.67035 0.0
O20 O 0.37024 0.30981 0.65096 0.0
O21 O 0.42441 0.31359 0.66502 0.0
O22 O 0.40529 0.33334 0.68833 0.0
C23 C 0.41285 0.39029 0.66793 0.0
O24 O 0.40817 0.33922 0.62548 0.0
O25 O 0.37659 0.36404 0.63128 0.0
In26 In 0.12915 0.39972 0.15588 0.0
O27 O 0.09129 0.41876 0.14964 0.0
O28 O 0.09142 0.3883 0.17068 0.0
C29 C 0.1587 0.35939 0.16501 0.0
C30 C 0.12936 0.39721 0.11613 0.0
C31 C 0.14916 0.43383 0.18171 0.0
O32 O 0.16763 0.38092 0.16006 0.0
O33 O 0.13449 0.35803 0.16549 0.0
O34 O 0.15783 0.43153 0.1644 0.0
O35 O 0.12986 0.42007 0.18537 0.0
C36 C 0.07858 0.40494 0.16138 0.0
O37 O 0.12545 0.37813 0.12715 0.0
O38 O 0.13386 0.41802 0.12517 0.0
In39 In 0.0923 0.13462 0.65774 0.0
O40 O 0.08166 0.15053 0.62693 0.0
O41 O 0.09283 0.11164 0.62936 0.0
C42 C 0.06794 0.1732 0.67673 0.0
C43 C 0.07434 0.08996 0.67187 0.0
C44 C 0.14152 0.14464 0.66768 0.0
O45 O 0.08529 0.17725 0.66416 0.0
O46 O 0.0616 0.14998 0.67846 0.0
O47 O 0.12416 0.14177 0.68036 0.0
O48 O 0.13435 0.14101 0.65017 0.0
C49 C 0.08607 0.12962 0.61817 0.0
O50 O 0.09811 0.09453 0.67073 0.0
O51 O 0.05998 0.1079 0.66606 0.0
In52 In 0.33088 0.40017 0.3731 0.0
O53 O 0.37119 0.39449 0.36075 0.0
O54 O 0.35936 0.43207 0.36957 0.0
C55 C 0.30313 0.35743 0.36791 0.0
C56 C 0.34067 0.39736 0.41202 0.0
C57 C 0.30321 0.42771 0.34722 0.0
O58 O 0.32496 0.36011 0.36 0.0
O59 O 0.29607 0.37586 0.37862 0.0
O60 O 0.29998 0.4302 0.36566 0.0
O61 O 0.32029 0.41189 0.3423 0.0
C62 C 0.37674 0.4181 0.36237 0.0
O63 O 0.32591 0.41437 0.40496 0.0
O64 O 0.35008 0.38222 0.39948 0.0
In65 In 0.10585 0.36293 0.86732 0.0
O66 O 0.09504 0.34671 0.89794 0.0
O67 O 0.10137 0.38661 0.89528 0.0
C68 C 0.08197 0.32311 0.84938 0.0
C69 C 0.091 0.40648 0.84932 0.0
C70 C 0.15547 0.35358 0.85887 0.0
O71 O 0.10436 0.3217 0.85633 0.0
O72 O 0.07072 0.34401 0.85292 0.0
O73 O 0.13909 0.35857 0.84575 0.0
O74 O 0.1471 0.35464 0.87625 0.0
C75 C 0.09637 0.36813 0.90653 0.0
O76 O 0.11179 0.40511 0.85881 0.0
O77 O 0.07816 0.38599 0.84875 0.0
In78 In 0.12641 0.09619 0.37016 0.0
O79 O 0.1407 0.08795 0.40176 0.0
O80 O 0.10185 0.09849 0.39774 0.0
C81 C 0.16681 0.0712 0.35428 0.0
C82 C 0.08369 0.07563 0.35464 0.0
C83 C 0.13611 0.14487 0.35853 0.0
O84 O 0.16949 0.08792 0.3676 0.0
O85 O 0.14385 0.06597 0.35011 0.0
O86 O 0.13596 0.12626 0.34674 0.0
O87 O 0.13007 0.13916 0.37593 0.0
C88 C 0.1194 0.09281 0.40971 0.0
O89 O 0.08755 0.09958 0.35467 0.0
O90 O 0.10112 0.06241 0.36259 0.0
In91 In 0.39065 0.13699 0.87281 0.0
O92 O 0.37797 0.09874 0.85937 0.0
O93 O 0.41321 0.1006 0.87555 0.0
C94 C 0.35227 0.17017 0.8667 0.0
C95 C 0.38773 0.13122 0.91213 0.0
C96 C 0.42369 0.15801 0.84679 0.0
O97 O 0.35169 0.14781 0.85942 0.0
O98 O 0.37168 0.17516 0.87712 0.0
O99 O 0.42364 0.16462 0.86474 0.0
O100 O 0.40809 0.1404 0.84249 0.0
C101 C 0.39748 0.08702 0.8659 0.0
O102 O 0.40746 0.14068 0.90395 0.0
O103 O 0.36975 0.12525 0.90047 0.0
In104 In 0.62149 0.8976 0.85633 0.0
O105 O 0.58064 0.88761 0.84688 0.0
O106 O 0.59125 0.92711 0.85041 0.0
C107 C 0.65184 0.85647 0.85708 0.0
C108 C 0.61586 0.90294 0.89552 0.0
C109 C 0.64449 0.91776 0.82458 0.0
O110 O 0.62837 0.85461 0.85231 0.0
O111 O 0.65939 0.87875 0.86155 0.0
O112 O 0.64863 0.92672 0.84172 0.0
O113 O 0.6287 0.89935 0.8238 0.0
C114 C 0.574 0.91098 0.846 0.0
O115 O 0.62955 0.91851 0.88567 0.0
O116 O 0.60528 0.88546 0.8855 0.0
In117 In 0.60512 0.63127 0.36393 0.0
O118 O 0.59352 0.64842 0.39378 0.0
O119 O 0.61129 0.61163 0.39328 0.0
C120 C 0.58553 0.66225 0.33585 0.0
C121 C 0.57806 0.58876 0.35633 0.0
C122 C 0.65481 0.64336 0.35927 0.0
O123 O 0.5836 0.66773 0.35397 0.0
O124 O 0.597 0.64155 0.33227 0.0
O125 O 0.64481 0.62473 0.35013 0.0
O126 O 0.63999 0.65511 0.37072 0.0
C127 C 0.60193 0.62947 0.40354 0.0
O128 O 0.60233 0.58877 0.35612 0.0
O129 O 0.56782 0.60998 0.3606 0.0
In130 In 0.86031 0.60633 0.86609 0.0
O131 O 0.8551 0.58684 0.89634 0.0
O132 O 0.87841 0.62045 0.8941 0.0
C133 C 0.83478 0.5855 0.83567 0.0
C134 C 0.90599 0.59105 0.85333 0.0
C135 C 0.83033 0.64765 0.86641 0.0
O136 O 0.83224 0.57668 0.85305 0.0
O137 O 0.85004 0.60426 0.83407 0.0
O138 O 0.85343 0.64893 0.86064 0.0
O139 O 0.82298 0.62582 0.87223 0.0
C140 C 0.86906 0.60331 0.9051 0.0
O141 O 0.90062 0.61471 0.8545 0.0
O142 O 0.88871 0.57567 0.85892 0.0
In143 In 0.90161 0.83784 0.36339 0.0
O144 O 0.91528 0.82738 0.39476 0.0
O145 O 0.88517 0.85447 0.39128 0.0
C146 C 0.93392 0.80352 0.34671 0.0
C147 C 0.9132 0.8863 0.35314 0.0
C148 C 0.85574 0.81887 0.35195 0.0
O149 O 0.91678 0.79712 0.35884 0.0
O150 O 0.9362 0.82738 0.34431 0.0
O151 O 0.87267 0.8252 0.33962 0.0
O152 O 0.86149 0.8236 0.36958 0.0
C153 C 0.89936 0.84221 0.403 0.0
O154 O 0.89519 0.87414 0.34483 0.0
O155 O 0.92534 0.87386 0.36604 0.0
In156 In 0.63674 0.60612 0.65324 0.0
O157 O 0.65182 0.59887 0.62187 0.0
O158 O 0.61789 0.62096 0.62542 0.0
C159 C 0.67401 0.57734 0.6701 0.0
C160 C 0.59067 0.58457 0.65995 0.0
C161 C 0.64794 0.65184 0.67007 0.0
O162 O 0.67886 0.59463 0.65761 0.0
O163 O 0.65046 0.57326 0.67272 0.0
O164 O 0.64224 0.63226 0.68001 0.0
O165 O 0.64634 0.6488 0.6517 0.0
C166 C 0.63381 0.61117 0.61368 0.0
O167 O 0.59734 0.60533 0.66816 0.0
O168 O 0.60726 0.57483 0.64875 0.0
In169 In 0.90051 0.62996 0.15496 0.0
O170 O 0.91623 0.59086 0.14766 0.0
O171 O 0.89094 0.59323 0.17217 0.0
C172 C 0.85799 0.65491 0.16632 0.0
C173 C 0.90016 0.63311 0.11509 0.0
C174 C 0.93589 0.65312 0.17822 0.0
O175 O 0.87981 0.66523 0.16562 0.0
O176 O 0.85737 0.63152 0.16143 0.0
O177 O 0.92844 0.66274 0.16212 0.0
O178 O 0.92686 0.63117 0.18182 0.0
C179 C 0.90473 0.57922 0.16133 0.0
O180 O 0.88013 0.63291 0.12541 0.0
O181 O 0.9208 0.63273 0.12489 0.0
In182 In 0.85173 0.87903 0.65093 0.0
O183 O 0.84185 0.88856 0.61879 0.0
O184 O 0.86822 0.85832 0.62448 0.0
C185 C 0.81466 0.91028 0.66496 0.0
C186 C 0.89885 0.89755 0.65893 0.0
C187 C 0.83558 0.83547 0.66865 0.0
O188 O 0.81035 0.89387 0.65166 0.0
O189 O 0.83787 0.91221 0.66989 0.0
O190 O 0.84222 0.8551 0.67821 0.0
O191 O 0.83854 0.83728 0.6503 0.0
C192 C 0.85651 0.87156 0.61177 0.0
O193 O 0.89026 0.87769 0.66731 0.0
O194 O 0.88371 0.90786 0.64682 0.0
In195 In 0.60822 0.8576 0.14448 0.0
O196 O 0.58909 0.85271 0.11408 0.0
O197 O 0.62195 0.8769 0.11668 0.0
C198 C 0.5849 0.82882 0.172 0.0
C199 C 0.59172 0.90264 0.15788 0.0
C200 C 0.65153 0.83044 0.14691 0.0
O201 O 0.58 0.82581 0.1538 0.0
O202 O 0.6009 0.84631 0.17591 0.0
O203 O 0.6499 0.85275 0.15419 0.0
O204 O 0.63179 0.82269 0.1379 0.0
C205 C 0.60492 0.8675 0.10557 0.0
O206 O 0.61546 0.89816 0.15618 0.0
O207 O 0.57683 0.88481 0.15251 0.0
C208 C 0.40516 0.13449 0.94662 0.0
C209 C 0.38574 0.12657 0.9336 0.0
C210 C 0.40308 0.12956 0.96686 0.0
C211 C 0.35529 0.11288 1.00547 0.0
H212 H 0.41563 0.09481 0.0358 0.0
C213 C 0.34991 0.08419 0.08799 0.0
C214 C 0.3677 0.0968 0.1002 0.0
C215 C 0.35233 0.08544 0.06743 0.0
C216 C 0.39861 0.0999 0.02753 0.0
H217 H 0.34904 0.10708 0.93154 0.0
H218 H 0.34566 0.09811 0.96657 0.0
H219 H 0.41944 0.10243 1.00047 0.0
H220 H 0.40242 0.1198 0.10049 0.0
H221 H 0.4067 0.12177 0.06487 0.0
H222 H 0.33451 0.11032 0.0326 0.0
C223 C 0.36226 0.10857 0.96134 0.0
C224 C 0.40081 0.10442 1.00729 0.0
C225 C 0.36427 0.11361 0.9412 0.0
C226 C 0.38835 0.10991 0.09149 0.0
C227 C 0.39091 0.11092 0.07105 0.0
C228 C 0.35308 0.10821 0.02569 0.0
C229 C 0.38159 0.1165 0.97448 0.0
C230 C 0.37922 0.1112 0.996 0.0
C231 C 0.37277 0.09902 0.05875 0.0
C232 C 0.37476 0.10192 0.037 0.0
H233 H 0.42191 0.14455 0.9412 0.0
H234 H 0.41818 0.13628 0.97655 0.0
H235 H 0.3383 0.11842 0.99736 0.0
H236 H 0.33379 0.07398 0.0943 0.0
H237 H 0.33815 0.07591 0.05831 0.0
C238 C 0.36463 0.37648 0.43956 0.0
C239 C 0.34668 0.39483 0.4333 0.0
C240 C 0.37028 0.37337 0.45953 0.0
C241 C 0.34381 0.38418 0.50905 0.0
H242 H 0.41379 0.3724 0.52615 0.0
C243 C 0.37029 0.3786 0.59133 0.0
C244 C 0.38812 0.35999 0.59732 0.0
C245 C 0.3661 0.38362 0.57138 0.0
C246 C 0.39411 0.37536 0.52161 0.0
H247 H 0.3207 0.42448 0.44313 0.0
H248 H 0.33058 0.41906 0.47821 0.0
H249 H 0.40477 0.3804 0.4914 0.0
H250 H 0.41585 0.33228 0.58701 0.0
H251 H 0.4083 0.34077 0.55197 0.0
H252 H 0.33304 0.37884 0.53915 0.0
C253 C 0.34016 0.40695 0.46758 0.0
C254 C 0.38893 0.38002 0.50168 0.0
C255 C 0.33458 0.41016 0.4475 0.0
C256 C 0.40202 0.34676 0.58285 0.0
C257 C 0.39775 0.35173 0.56279 0.0
C258 C 0.34896 0.37944 0.52895 0.0
C259 C 0.35807 0.38847 0.47383 0.0
C260 C 0.36371 0.38444 0.49514 0.0
C261 C 0.37954 0.37009 0.5568 0.0
C262 C 0.37418 0.37497 0.53552 0.0
H263 H 0.37429 0.36431 0.429 0.0
H264 H 0.38388 0.35872 0.46381 0.0
H265 H 0.32412 0.38706 0.50449 0.0
H266 H 0.35938 0.38931 0.60209 0.0
H267 H 0.35234 0.39825 0.56739 0.0
C268 C 0.09484 0.35001 0.94082 0.0
C269 C 0.09513 0.37134 0.92818 0.0
C270 C 0.09699 0.35331 0.96125 0.0
C271 C 0.12172 0.39984 0.99782 0.0
H272 H 0.08446 0.35795 0.03528 0.0
C273 C 0.12676 0.41701 0.08236 0.0
C274 C 0.12711 0.39513 0.09443 0.0
C275 C 0.12255 0.41468 0.06202 0.0
C276 C 0.09524 0.36964 0.02502 0.0
H277 H 0.0967 0.41289 0.92709 0.0
H278 H 0.10002 0.41864 0.9626 0.0
H279 H 0.0765 0.3526 1.00011 0.0
H280 H 0.12412 0.35363 0.09458 0.0
H281 H 0.11733 0.34954 0.05928 0.0
H282 H 0.14062 0.41672 0.0227 0.0
C283 C 0.09869 0.39933 0.95679 0.0
C284 C 0.09063 0.36657 1.00484 0.0
C285 C 0.09656 0.39604 0.93642 0.0
C286 C 0.1238 0.3709 0.08571 0.0
C287 C 0.11969 0.36856 0.06546 0.0
C288 C 0.12635 0.40288 0.018 0.0
C289 C 0.09948 0.37802 0.96944 0.0
C290 C 0.10386 0.38158 0.99098 0.0
C291 C 0.11865 0.39041 0.05336 0.0
C292 C 0.11328 0.38772 0.03187 0.0
H293 H 0.09388 0.33074 0.9349 0.0
H294 H 0.09769 0.33645 0.97056 0.0
H295 H 0.13257 0.41144 0.98755 0.0
H296 H 0.12913 0.43595 0.08868 0.0
H297 H 0.1217 0.43193 0.05317 0.0
C298 C 0.08655 0.14765 0.5838 0.0
C299 C 0.08544 0.12641 0.59651 0.0
C300 C 0.08894 0.14408 0.56341 0.0
C301 C 0.07923 0.09669 0.52364 0.0
H302 H 0.13221 0.13479 0.49622 0.0
C303 C 0.09046 0.09588 0.43887 0.0
C304 C 0.11542 0.09385 0.43128 0.0
C305 C 0.08644 0.09914 0.45906 0.0
C306 C 0.11744 0.12392 0.50371 0.0
H307 H 0.08503 0.08486 0.59783 0.0
H308 H 0.0887 0.07868 0.56237 0.0
H309 H 0.12454 0.14291 0.53122 0.0
H310 H 0.15574 0.09328 0.43895 0.0
H311 H 0.14871 0.09916 0.47436 0.0
H312 H 0.07216 0.07764 0.49619 0.0
C313 C 0.08785 0.09806 0.56808 0.0
C314 C 0.11284 0.12879 0.52368 0.0
C315 C 0.08582 0.10161 0.5884 0.0
C316 C 0.13629 0.09468 0.44438 0.0
C317 C 0.13227 0.09827 0.46461 0.0
C318 C 0.08362 0.09203 0.50364 0.0
C319 C 0.08986 0.11921 0.55536 0.0
C320 C 0.09378 0.11511 0.53389 0.0
C321 C 0.10729 0.10073 0.47214 0.0
C322 C 0.10287 0.10549 0.49347 0.0
H323 H 0.08642 0.16697 0.58966 0.0
H324 H 0.09023 0.16075 0.55394 0.0
H325 H 0.06434 0.08592 0.53109 0.0
H326 H 0.07398 0.09536 0.42914 0.0
H327 H 0.06699 0.10115 0.46436 0.0
C328 C 0.6217 0.89127 0.07636 0.0
C329 C 0.60421 0.87346 0.08422 0.0
C330 C 0.62189 0.89674 0.05622 0.0
C331 C 0.58297 0.89172 0.01059 0.0
H332 H 0.64887 0.89895 0.9848 0.0
C333 C 0.59478 0.88771 0.92629 0.0
C334 C 0.61285 0.90387 0.91721 0.0
C335 C 0.59276 0.88665 0.94677 0.0
C336 C 0.6303 0.89741 0.99181 0.0
H337 H 0.57299 0.84758 0.0771 0.0
H338 H 0.57351 0.85684 0.04173 0.0
H339 H 0.64714 0.89112 0.02016 0.0
H340 H 0.64261 0.93209 0.92251 0.0
H341 H 0.63911 0.93028 0.95854 0.0
H342 H 0.56618 0.89759 0.98212 0.0
C343 C 0.58689 0.86685 0.05124 0.0
C344 C 0.62928 0.89286 0.01211 0.0
C345 C 0.58666 0.86142 0.07148 0.0
C346 C 0.6285 0.91947 0.92909 0.0
C347 C 0.6266 0.91829 0.9497 0.0
C348 C 0.58399 0.89622 0.99028 0.0
C349 C 0.60466 0.88447 0.04334 0.0
C350 C 0.60561 0.88979 0.02176 0.0
C351 C 0.60884 0.90166 0.95877 0.0
C352 C 0.60768 0.8989 0.9806 0.0
H353 H 0.63537 0.90104 0.08578 0.0
H354 H 0.63551 0.91073 0.05076 0.0
H355 H 0.5644 0.88992 0.01756 0.0
H356 H 0.58239 0.87543 0.91757 0.0
H357 H 0.57912 0.8734 0.9532 0.0
C358 C 0.6513 0.6089 0.57921 0.0
C359 C 0.63077 0.6135 0.59207 0.0
C360 C 0.64798 0.61143 0.55878 0.0
C361 C 0.59975 0.60672 0.52018 0.0
H362 H 0.64424 0.65025 0.48885 0.0
C363 C 0.60429 0.60469 0.43493 0.0
C364 C 0.60233 0.62847 0.42531 0.0
C365 C 0.60668 0.60346 0.45542 0.0
C366 C 0.63164 0.63811 0.49746 0.0
H367 H 0.59064 0.62405 0.59367 0.0
H368 H 0.58474 0.62769 0.55809 0.0
H369 H 0.65158 0.64633 0.52448 0.0
H370 H 0.60127 0.66963 0.42955 0.0
H371 H 0.60617 0.66749 0.46553 0.0
H372 H 0.58018 0.59802 0.49316 0.0
C373 C 0.60342 0.62244 0.56378 0.0
C374 C 0.63596 0.63571 0.51776 0.0
C375 C 0.60686 0.62044 0.58414 0.0
C376 C 0.60256 0.65105 0.43661 0.0
C377 C 0.60555 0.64984 0.45712 0.0
C378 C 0.59577 0.6087 0.49986 0.0
C379 C 0.62393 0.61803 0.5509 0.0
C380 C 0.61997 0.62008 0.52931 0.0
C381 C 0.60773 0.62601 0.46669 0.0
C382 C 0.6116 0.6245 0.48832 0.0
H383 H 0.66994 0.60358 0.58493 0.0
H384 H 0.66407 0.60782 0.54912 0.0
H385 H 0.5872 0.59449 0.52876 0.0
H386 H 0.60419 0.58698 0.42658 0.0
H387 H 0.60843 0.58488 0.46242 0.0
C388 C 0.88818 0.62376 0.93493 0.0
C389 C 0.87382 0.60358 0.92665 0.0
C390 C 0.89229 0.62514 0.95521 0.0
C391 C 0.86642 0.60234 1.00281 0.0
H392 H 0.93 0.63106 0.02282 0.0
C393 C 0.87574 0.63538 0.08345 0.0
C394 C 0.89907 0.63133 0.09334 0.0
C395 C 0.87371 0.6312 0.06317 0.0
C396 C 0.91223 0.62273 0.01758 0.0
H397 H 0.85281 0.56875 0.93324 0.0
H398 H 0.8604 0.57086 0.96887 0.0
H399 H 0.92516 0.62316 0.98771 0.0
H400 H 0.93868 0.62004 0.08967 0.0
H401 H 0.93508 0.61222 0.05428 0.0
H402 H 0.85374 0.60125 0.03274 0.0
C403 C 0.86815 0.58588 0.9596 0.0
C404 C 0.9093 0.61848 0.99734 0.0
C405 C 0.86391 0.58456 0.93918 0.0
C406 C 0.92051 0.62355 0.08242 0.0
C407 C 0.91841 0.61909 0.06211 0.0
C408 C 0.86942 0.6064 0.02308 0.0
C409 C 0.88234 0.60629 0.96788 0.0
C410 C 0.8862 0.60864 0.98963 0.0
C411 C 0.89487 0.62254 0.05225 0.0
C412 C 0.89221 0.61704 0.03072 0.0
H413 H 0.89599 0.63884 0.92574 0.0
H414 H 0.90282 0.64144 0.96097 0.0
H415 H 0.8483 0.5949 0.99747 0.0
H416 H 0.8589 0.6415 0.09145 0.0
H417 H 0.85544 0.63473 0.05608 0.0
C418 C 0.87922 0.8629 0.4322 0.0
C419 C 0.89659 0.84489 0.42462 0.0
C420 C 0.87539 0.86516 0.45245 0.0
C421 C 0.90412 0.85048 0.50097 0.0
H422 H 0.83461 0.86099 0.51938 0.0
C423 C 0.87772 0.84902 0.58369 0.0
C424 C 0.86044 0.86772 0.59036 0.0
C425 C 0.88219 0.8457 0.56356 0.0
C426 C 0.85416 0.85834 0.51448 0.0
H427 H 0.92389 0.81535 0.4324 0.0
H428 H 0.91704 0.81913 0.46801 0.0
H429 H 0.84268 0.85581 0.48428 0.0
H430 H 0.83419 0.89753 0.58114 0.0
H431 H 0.84204 0.89182 0.54591 0.0
H432 H 0.91555 0.85299 0.53124 0.0
C433 C 0.90653 0.83167 0.4582 0.0
C434 C 0.85882 0.85536 0.49434 0.0
C435 C 0.91041 0.82942 0.43782 0.0
C436 C 0.84755 0.88291 0.57645 0.0
C437 C 0.85198 0.87954 0.55627 0.0
C438 C 0.89945 0.85342 0.52115 0.0
C439 C 0.88876 0.84942 0.46573 0.0
C440 C 0.88387 0.85158 0.4873 0.0
C441 C 0.86945 0.86096 0.54958 0.0
C442 C 0.87442 0.85753 0.52814 0.0
H443 H 0.86838 0.87526 0.42245 0.0
H444 H 0.86198 0.8794 0.45771 0.0
H445 H 0.92368 0.84792 0.49605 0.0
H446 H 0.88794 0.83695 0.59404 0.0
H447 H 0.89548 0.83098 0.55893 0.0
C448 C 0.16572 0.31221 0.16861 0.0
C449 C 0.17556 0.33729 0.16862 0.0
C450 C 0.18232 0.29128 0.16978 0.0
C451 C 0.24763 0.2715 0.18344 0.0
H452 H 0.23824 0.22029 0.14263 0.0
C453 C 0.32302 0.19284 0.16752 0.0
C454 C 0.31349 0.16839 0.16281 0.0
C455 C 0.30631 0.2137 0.16902 0.0
C456 C 0.24096 0.23418 0.15431 0.0
H457 H 0.21016 0.36029 0.1709 0.0
H458 H 0.23905 0.32374 0.17313 0.0
H459 H 0.20792 0.25543 0.14538 0.0
H460 H 0.27907 0.14645 0.15634 0.0
H461 H 0.25009 0.1824 0.15944 0.0
H462 H 0.28057 0.25012 0.19251 0.0
C463 C 0.21861 0.32024 0.17216 0.0
C464 C 0.22356 0.2543 0.15587 0.0
C465 C 0.20208 0.34112 0.17077 0.0
C466 C 0.28705 0.16513 0.15977 0.0
C467 C 0.27041 0.18581 0.16145 0.0
C468 C 0.26495 0.25119 0.18201 0.0
C469 C 0.20894 0.29513 0.17123 0.0
C470 C 0.22674 0.27316 0.17041 0.0
C471 C 0.2798 0.21038 0.16598 0.0
C472 C 0.2618 0.2323 0.16742 0.0
H473 H 0.14535 0.30875 0.16698 0.0
H474 H 0.17439 0.27206 0.16921 0.0
H475 H 0.25044 0.2858 0.19482 0.0
H476 H 0.34333 0.19585 0.16994 0.0
H477 H 0.3142 0.23246 0.17233 0.0
C478 C 0.32646 0.27784 0.65229 0.0
C479 C 0.32969 0.29903 0.66481 0.0
C480 C 0.30727 0.25983 0.65584 0.0
C481 C 0.24633 0.24933 0.68205 0.0
H482 H 0.26178 0.17809 0.67069 0.0
C483 C 0.1704 0.16952 0.69002 0.0
C484 C 0.16678 0.1558 0.6724 0.0
C485 C 0.19226 0.18472 0.69267 0.0
C486 C 0.25725 0.19788 0.67401 0.0
H487 H 0.31507 0.31832 0.69069 0.0
H488 H 0.28145 0.28648 0.69713 0.0
H489 H 0.29558 0.21033 0.66841 0.0
H490 H 0.18386 0.14568 0.64441 0.0
H491 H 0.22228 0.17172 0.64922 0.0
H492 H 0.20786 0.23673 0.68746 0.0
C493 C 0.29369 0.28398 0.68442 0.0
C494 C 0.27652 0.2164 0.67258 0.0
C495 C 0.31289 0.30221 0.68075 0.0
C496 C 0.1862 0.15605 0.65813 0.0
C497 C 0.2082 0.17092 0.66091 0.0
C498 C 0.22709 0.23072 0.68366 0.0
C499 C 0.29094 0.26237 0.67214 0.0
C500 C 0.27112 0.24245 0.676 0.0
C501 C 0.21103 0.18607 0.6779 0.0
C502 C 0.23223 0.20494 0.67915 0.0
H503 H 0.33899 0.27499 0.63977 0.0
H504 H 0.30526 0.24387 0.64573 0.0
H505 H 0.24145 0.2692 0.68467 0.0
H506 H 0.15566 0.16976 0.70123 0.0
H507 H 0.19411 0.19607 0.70596 0.0
C508 C 0.29074 0.31822 0.34863 0.0
C509 C 0.28604 0.33541 0.36412 0.0
C510 C 0.27298 0.29886 0.34419 0.0
C511 C 0.20473 0.28129 0.35243 0.0
H512 H 0.22739 0.21223 0.34082 0.0
C513 C 0.14509 0.19061 0.3667 0.0
C514 C 0.1468 0.17016 0.35333 0.0
C515 C 0.15948 0.21289 0.36378 0.0
C516 C 0.22076 0.23154 0.34366 0.0
H517 H 0.25965 0.34535 0.38753 0.0
H518 H 0.22926 0.31134 0.38023 0.0
H519 H 0.25899 0.24648 0.34443 0.0
H520 H 0.16362 0.15747 0.32583 0.0
H521 H 0.18903 0.19642 0.32086 0.0
H522 H 0.16658 0.266 0.35259 0.0
C523 C 0.24613 0.31315 0.37107 0.0
C524 C 0.23886 0.25116 0.34574 0.0
C525 C 0.26371 0.3325 0.3754 0.0
C526 C 0.1619 0.17299 0.33635 0.0
C527 C 0.17657 0.19515 0.33357 0.0
C528 C 0.18668 0.26164 0.35051 0.0
C529 C 0.25031 0.29634 0.35524 0.0
C530 C 0.23108 0.27612 0.35067 0.0
C531 C 0.17605 0.21497 0.34756 0.0
C532 C 0.19457 0.23648 0.34656 0.0
H533 H 0.30776 0.32015 0.33963 0.0
H534 H 0.27673 0.28625 0.33186 0.0
H535 H 0.19805 0.30046 0.35572 0.0
H536 H 0.1336 0.18892 0.37991 0.0
H537 H 0.15883 0.2278 0.37487 0.0
C538 C 0.31565 0.18777 0.8469 0.0
C539 C 0.33258 0.18978 0.86293 0.0
C540 C 0.29854 0.2077 0.8427 0.0
C541 C 0.28699 0.27674 0.85424 0.0
H542 H 0.21731 0.26122 0.83824 0.0
C543 C 0.1993 0.34024 0.86915 0.0
C544 C 0.18066 0.34244 0.85431 0.0
C545 C 0.22082 0.32487 0.86627 0.0
C546 C 0.23685 0.26586 0.84235 0.0
H547 H 0.3444 0.21361 0.88751 0.0
H548 H 0.31406 0.24763 0.8808 0.0
H549 H 0.24833 0.22657 0.84123 0.0
H550 H 0.17052 0.3316 0.82444 0.0
H551 H 0.20799 0.30424 0.81958 0.0
H552 H 0.27488 0.31588 0.8565 0.0
C553 C 0.31448 0.23131 0.87094 0.0
C554 C 0.25465 0.24603 0.84406 0.0
C555 C 0.3317 0.21164 0.87495 0.0
C556 C 0.18468 0.33033 0.83609 0.0
C557 C 0.20598 0.31456 0.83334 0.0
C558 C 0.26908 0.29649 0.85282 0.0
C559 C 0.29792 0.22983 0.85461 0.0
C560 C 0.27978 0.25114 0.85051 0.0
C561 C 0.22381 0.31113 0.84863 0.0
C562 C 0.24374 0.29114 0.84725 0.0
H563 H 0.31611 0.17117 0.83732 0.0
H564 H 0.28617 0.20597 0.82994 0.0
H565 H 0.30636 0.2815 0.85872 0.0
H566 H 0.19661 0.34935 0.88333 0.0
H567 H 0.23423 0.3224 0.87832 0.0
C568 C 0.6607 0.80922 0.85694 0.0
C569 C 0.66964 0.83461 0.85733 0.0
C570 C 0.67803 0.78882 0.85785 0.0
C571 C 0.7454 0.77431 0.87192 0.0
H572 H 0.73347 0.71209 0.84198 0.0
C573 C 0.82139 0.69451 0.86196 0.0
C574 C 0.81255 0.66952 0.86567 0.0
C575 C 0.80406 0.7149 0.86097 0.0
C576 C 0.73695 0.72935 0.85047 0.0
H577 H 0.70361 0.85868 0.85835 0.0
H578 H 0.7337 0.82336 0.85925 0.0
H579 H 0.70261 0.74707 0.84 0.0
H580 H 0.7788 0.64618 0.87121 0.0
H581 H 0.74868 0.68167 0.86923 0.0
H582 H 0.78005 0.75665 0.88202 0.0
C583 C 0.7134 0.81899 0.85891 0.0
C584 C 0.71923 0.74932 0.84944 0.0
C585 C 0.69613 0.83927 0.85825 0.0
C586 C 0.78618 0.66526 0.86836 0.0
C587 C 0.76891 0.68551 0.86711 0.0
C588 C 0.76326 0.75447 0.87274 0.0
C589 C 0.70461 0.7935 0.85894 0.0
C590 C 0.72322 0.77205 0.86017 0.0
C591 C 0.77766 0.71049 0.86338 0.0
C592 C 0.75914 0.7318 0.86207 0.0
H593 H 0.64034 0.80514 0.85629 0.0
H594 H 0.67057 0.76942 0.85806 0.0
H595 H 0.74887 0.79131 0.8807 0.0
H596 H 0.84161 0.69829 0.85983 0.0
H597 H 0.81123 0.73403 0.858 0.0
C598 C 0.69335 0.6665 0.37091 0.0
C599 C 0.68104 0.65268 0.35591 0.0
C600 C 0.71602 0.67967 0.36712 0.0
C601 C 0.74715 0.71413 0.32776 0.0
H602 H 0.80003 0.72245 0.3675 0.0
C603 C 0.83208 0.78956 0.32891 0.0
C604 C 0.83347 0.80263 0.34701 0.0
C605 C 0.81456 0.76938 0.32637 0.0
C606 C 0.78549 0.72019 0.3562 0.0
H607 H 0.6831 0.64072 0.3254 0.0
H608 H 0.72299 0.66433 0.31858 0.0
H609 H 0.77002 0.68666 0.3699 0.0
H610 H 0.81625 0.80652 0.37591 0.0
H611 H 0.78588 0.77151 0.37143 0.0
H612 H 0.76236 0.74838 0.3145 0.0
C613 C 0.71506 0.66475 0.3333 0.0
C614 C 0.7684 0.69972 0.35754 0.0
C615 C 0.69244 0.65112 0.33723 0.0
C616 C 0.81577 0.79665 0.36186 0.0
C617 C 0.79851 0.77652 0.35937 0.0
C618 C 0.76447 0.73462 0.32634 0.0
C619 C 0.72672 0.67958 0.34814 0.0
C620 C 0.74836 0.69713 0.34384 0.0
C621 C 0.79848 0.76207 0.34195 0.0
C622 C 0.78303 0.73835 0.34106 0.0
H623 H 0.68488 0.66799 0.38543 0.0
H624 H 0.72432 0.69118 0.3788 0.0
H625 H 0.73179 0.71266 0.31705 0.0
H626 H 0.84558 0.79375 0.31724 0.0
H627 H 0.81469 0.75854 0.31275 0.0
C628 C 0.81787 0.79106 0.66735 0.0
C629 C 0.82093 0.81426 0.67757 0.0
C630 C 0.79976 0.77305 0.67357 0.0
C631 C 0.73692 0.77217 0.6938 0.0
H632 H 0.74559 0.69838 0.69568 0.0
C633 C 0.67414 0.67196 0.69667 0.0
C634 C 0.6608 0.67438 0.67875 0.0
C635 C 0.69183 0.69071 0.70244 0.0
C636 C 0.7429 0.71897 0.69556 0.0
H637 H 0.80848 0.83635 0.70285 0.0
H638 H 0.77623 0.80505 0.71339 0.0
H639 H 0.78337 0.72633 0.69516 0.0
H640 H 0.65366 0.6992 0.65375 0.0
H641 H 0.68395 0.73238 0.66418 0.0
H642 H 0.69647 0.76473 0.69271 0.0
C643 C 0.78811 0.80073 0.70076 0.0
C644 C 0.76448 0.73489 0.69517 0.0
C645 C 0.80664 0.81851 0.69478 0.0
C646 C 0.66368 0.69691 0.66764 0.0
C647 C 0.68096 0.71588 0.67362 0.0
C648 C 0.71534 0.75623 0.6938 0.0
C649 C 0.78407 0.77819 0.68988 0.0
C650 C 0.76166 0.76158 0.69383 0.0
C651 C 0.69598 0.71241 0.69061 0.0
C652 C 0.71818 0.72948 0.69423 0.0
H653 H 0.8286 0.78738 0.654 0.0
H654 H 0.79685 0.75587 0.66486 0.0
H655 H 0.73428 0.79271 0.69255 0.0
H656 H 0.6724 0.6547 0.70546 0.0
H657 H 0.70316 0.68768 0.71563 0.0
C658 C 0.81093 0.66263 0.16319 0.0
C659 C 0.83497 0.67015 0.1705 0.0
C660 C 0.79021 0.67955 0.164 0.0
C661 C 0.77876 0.74912 0.1658 0.0
H662 H 0.70756 0.72863 0.17036 0.0
C663 C 0.69447 0.82113 0.16188 0.0
C664 C 0.67366 0.81342 0.15013 0.0
C665 C 0.71415 0.80386 0.16625 0.0
C666 C 0.72739 0.73459 0.16899 0.0
H667 H 0.85583 0.7001 0.18587 0.0
H668 H 0.81955 0.72921 0.18792 0.0
H669 H 0.74127 0.69714 0.1762 0.0
H670 H 0.65735 0.78188 0.13335 0.0
H671 H 0.69168 0.75197 0.14082 0.0
H672 H 0.76485 0.78649 0.15842 0.0
C673 C 0.8168 0.71072 0.18094 0.0
C674 C 0.74667 0.71656 0.17232 0.0
C675 C 0.83753 0.69399 0.1799 0.0
C676 C 0.67313 0.78838 0.14249 0.0
C677 C 0.69266 0.77115 0.14692 0.0
C678 C 0.75949 0.76715 0.16259 0.0
C679 C 0.79318 0.70412 0.17233 0.0
C680 C 0.77258 0.72355 0.17051 0.0
C681 C 0.71321 0.7786 0.15902 0.0
C682 C 0.73363 0.75997 0.16385 0.0
H683 H 0.80852 0.64437 0.1558 0.0
H684 H 0.77232 0.67389 0.15712 0.0
H685 H 0.79849 0.75508 0.16389 0.0
H686 H 0.69528 0.84028 0.16804 0.0
H687 H 0.72977 0.81007 0.17566 0.0
C688 C 0.21319 0.0718 0.34488 0.0
C689 C 0.18827 0.06239 0.3418 0.0
C690 C 0.23212 0.06827 0.33057 0.0
C691 C 0.24732 0.03521 0.28302 0.0
H692 H 0.28398 0.09852 0.27263 0.0
C693 C 0.29827 0.05955 0.2088 0.0
C694 C 0.32106 0.07388 0.21003 0.0
C695 C 0.28421 0.05394 0.22588 0.0
C696 C 0.27426 0.08051 0.27546 0.0
H697 H 0.16419 0.04013 0.32207 0.0
H698 H 0.19694 0.03436 0.29704 0.0
H699 H 0.25663 0.09546 0.30132 0.0
H700 H 0.34793 0.09199 0.23016 0.0
H701 H 0.32383 0.08191 0.25973 0.0
H702 H 0.26459 0.02068 0.2566 0.0
C703 C 0.20207 0.04428 0.31051 0.0
C704 C 0.25859 0.07871 0.29202 0.0
C705 C 0.18321 0.04767 0.32486 0.0
C706 C 0.33023 0.08123 0.22868 0.0
C707 C 0.31635 0.07555 0.24565 0.0
C708 C 0.26302 0.03705 0.26634 0.0
C709 C 0.22646 0.05542 0.31282 0.0
C710 C 0.24479 0.05611 0.29601 0.0
C711 C 0.2928 0.06253 0.24445 0.0
C712 C 0.27661 0.05979 0.26235 0.0
H713 H 0.21773 0.08309 0.35783 0.0
H714 H 0.25089 0.07657 0.33306 0.0
H715 H 0.23709 0.01745 0.2857 0.0
H716 H 0.29077 0.05364 0.1946 0.0
H717 H 0.26609 0.04394 0.22445 0.0
C718 C 0.43444 0.30871 0.71823 0.0
C719 C 0.4338 0.30026 0.69857 0.0
C720 C 0.4424 0.29235 0.73331 0.0
C721 C 0.44155 0.22461 0.7453 0.0
H722 H 0.47843 0.2463 0.79213 0.0
C723 C 0.44243 0.1598 0.81314 0.0
C724 C 0.43753 0.17203 0.83116 0.0
C725 C 0.44989 0.17399 0.79665 0.0
C726 C 0.468 0.23994 0.77921 0.0
H727 H 0.44217 0.26845 0.67914 0.0
H728 H 0.45586 0.23952 0.70568 0.0
H729 H 0.47729 0.2742 0.76321 0.0
H730 H 0.43805 0.20844 0.84644 0.0
H731 H 0.45025 0.23348 0.81755 0.0
H732 H 0.4309 0.19115 0.7614 0.0
C733 C 0.45021 0.25891 0.70935 0.0
C734 C 0.46747 0.25589 0.7626 0.0
C735 C 0.44253 0.27547 0.69416 0.0
C736 C 0.44193 0.19851 0.83276 0.0
C737 C 0.44895 0.21284 0.81614 0.0
C738 C 0.44187 0.20879 0.76192 0.0
C739 C 0.44965 0.26702 0.72914 0.0
C740 C 0.45377 0.24863 0.7456 0.0
C741 C 0.45205 0.20087 0.79766 0.0
C742 C 0.45465 0.21643 0.77927 0.0
H743 H 0.42789 0.32776 0.72207 0.0
H744 H 0.44148 0.29914 0.74837 0.0
H745 H 0.43046 0.21862 0.73259 0.0
H746 H 0.43936 0.13934 0.81155 0.0
H747 H 0.45286 0.16395 0.78289 0.0
C748 C 0.18945 0.45126 0.19672 0.0
C749 C 0.16283 0.44754 0.19766 0.0
C750 C 0.20329 0.45816 0.21363 0.0
C751 C 0.19731 0.45137 0.26763 0.0
H752 H 0.26333 0.4856 0.2677 0.0
C753 C 0.2626 0.44945 0.33631 0.0
C754 C 0.28738 0.4406 0.33209 0.0
C755 C 0.24642 0.45767 0.32103 0.0
C756 C 0.24485 0.4761 0.26794 0.0
H757 H 0.12948 0.45049 0.21645 0.0
H758 H 0.15334 0.46361 0.24567 0.0
H759 H 0.23625 0.48747 0.23832 0.0
H760 H 0.31526 0.43503 0.30886 0.0
H761 H 0.28733 0.44948 0.28242 0.0
H762 H 0.20617 0.43944 0.29701 0.0
C763 C 0.16378 0.46027 0.23215 0.0
C764 C 0.22936 0.47707 0.25107 0.0
C765 C 0.15004 0.45302 0.21534 0.0
C766 C 0.29621 0.44164 0.31256 0.0
C767 C 0.28024 0.45012 0.2974 0.0
C768 C 0.21268 0.45057 0.2845 0.0
C769 C 0.19071 0.46177 0.23178 0.0
C770 C 0.20566 0.46413 0.2505 0.0
C771 C 0.25491 0.45752 0.30134 0.0
C772 C 0.23694 0.4623 0.28468 0.0
H773 H 0.19984 0.44698 0.18332 0.0
H774 H 0.22398 0.45894 0.21272 0.0
H775 H 0.17945 0.44075 0.26774 0.0
H776 H 0.25529 0.44879 0.35123 0.0
H777 H 0.22704 0.46344 0.32454 0.0
C778 C 0.04275 0.18619 0.70639 0.0
C779 C 0.05993 0.19276 0.69126 0.0
C780 C 0.03995 0.20206 0.72286 0.0
C781 C 0.0334 0.24322 0.75494 0.0
H782 H 0.09994 0.26402 0.77497 0.0
C783 C 0.05093 0.30999 0.82292 0.0
C784 C 0.07234 0.3043 0.83477 0.0
C785 C 0.04564 0.29542 0.80603 0.0
C786 C 0.08121 0.25821 0.76967 0.0
H787 H 0.08592 0.22219 0.68071 0.0
H788 H 0.08085 0.25001 0.70934 0.0
H789 H 0.09687 0.24319 0.74304 0.0
H790 H 0.10358 0.27758 0.83917 0.0
H791 H 0.09416 0.25207 0.80996 0.0
H792 H 0.0179 0.25813 0.7819 0.0
C793 C 0.06987 0.23236 0.70864 0.0
C794 C 0.0794 0.24662 0.75119 0.0
C795 C 0.07261 0.21654 0.69215 0.0
C796 C 0.08705 0.28257 0.83029 0.0
C797 C 0.08179 0.26808 0.81345 0.0
C798 C 0.0352 0.25509 0.77345 0.0
C799 C 0.05435 0.22478 0.72455 0.0
C800 C 0.05552 0.23885 0.74362 0.0
C801 C 0.06169 0.27497 0.80069 0.0
C802 C 0.0592 0.26242 0.7811 0.0
H803 H 0.03268 0.16799 0.70612 0.0
H804 H 0.02787 0.19564 0.73485 0.0
H805 H 0.01472 0.23747 0.74948 0.0
H806 H 0.03927 0.32667 0.82596 0.0
H807 H 0.02999 0.30119 0.79651 0.0
C808 C 0.68188 0.9391 0.80781 0.0
C809 C 0.65815 0.92637 0.80668 0.0
C810 C 0.69638 0.94331 0.79071 0.0
C811 C 0.70434 0.91481 0.74142 0.0
H812 H 0.74849 0.97328 0.73144 0.0
C813 C 0.76822 0.91569 0.67318 0.0
C814 C 0.79397 0.92203 0.67679 0.0
C815 C 0.74932 0.92162 0.68703 0.0
C816 C 0.73628 0.9568 0.73404 0.0
H817 H 0.63009 0.9099 0.78673 0.0
H818 H 0.65487 0.91777 0.75706 0.0
H819 H 0.71994 0.97353 0.76003 0.0
H820 H 0.81979 0.94143 0.697 0.0
H821 H 0.78702 0.95147 0.72121 0.0
H822 H 0.72098 0.89766 0.71597 0.0
C823 C 0.66277 0.92383 0.77109 0.0
C824 C 0.71997 0.95694 0.75044 0.0
C825 C 0.64848 0.91945 0.7881 0.0
C826 C 0.80012 0.93625 0.69378 0.0
C827 C 0.78125 0.94208 0.70767 0.0
C828 C 0.72058 0.91466 0.72513 0.0
C829 C 0.68728 0.93499 0.77221 0.0
C830 C 0.70389 0.93585 0.75438 0.0
C831 C 0.7558 0.9339 0.70485 0.0
C832 C 0.73691 0.93554 0.72126 0.0
H833 H 0.68982 0.94458 0.82196 0.0
H834 H 0.71522 0.95188 0.79212 0.0
H835 H 0.69271 0.89796 0.74421 0.0
H836 H 0.76284 0.90484 0.66018 0.0
H837 H 0.7298 0.91558 0.68416 0.0
C838 C 0.57209 0.66812 0.30096 0.0
C839 C 0.57634 0.67884 0.31967 0.0
C840 C 0.56645 0.68371 0.28482 0.0
C841 C 0.54929 0.7505 0.26981 0.0
H842 H 0.58426 0.73099 0.22175 0.0
C843 C 0.57573 0.82077 0.20743 0.0
C844 C 0.57461 0.81225 0.1878 0.0
C845 C 0.56994 0.80418 0.22294 0.0
C846 C 0.57394 0.73649 0.23491 0.0
H847 H 0.57709 0.71418 0.33637 0.0
H848 H 0.5681 0.74173 0.30799 0.0
H849 H 0.58595 0.70288 0.25021 0.0
H850 H 0.5654 0.78003 0.16893 0.0
H851 H 0.55551 0.7507 0.19619 0.0
H852 H 0.53842 0.78483 0.25453 0.0
C853 C 0.56855 0.72117 0.30582 0.0
C854 C 0.57487 0.72034 0.25131 0.0
C855 C 0.5738 0.70543 0.32211 0.0
C856 C 0.56634 0.7871 0.18392 0.0
C857 C 0.56086 0.77032 0.19951 0.0
C858 C 0.54857 0.76681 0.25341 0.0
C859 C 0.56541 0.71052 0.28686 0.0
C860 C 0.5628 0.7272 0.26908 0.0
C861 C 0.56318 0.77855 0.2192 0.0
C862 C 0.56116 0.7601 0.23585 0.0
H863 H 0.5736 0.64762 0.2987 0.0
H864 H 0.56343 0.67469 0.27064 0.0
H865 H 0.53942 0.75628 0.28309 0.0
H866 H 0.58197 0.8401 0.21086 0.0
H867 H 0.57213 0.81107 0.2379 0.0
C868 C 0.82722 0.58468 0.79944 0.0
C869 C 0.8206 0.5757 0.81829 0.0
C870 C 0.81297 0.57756 0.78291 0.0
C871 C 0.74834 0.55694 0.76866 0.0
H872 H 0.77991 0.54909 0.71733 0.0
C873 C 0.68644 0.5498 0.69872 0.0
C874 C 0.69368 0.56676 0.6836 0.0
C875 C 0.70328 0.54431 0.71421 0.0
C876 C 0.77079 0.55124 0.73154 0.0
H877 H 0.79425 0.55148 0.83449 0.0
H878 H 0.76912 0.5389 0.8054 0.0
H879 H 0.80677 0.5512 0.74678 0.0
H880 H 0.72491 0.58981 0.67215 0.0
H881 H 0.75429 0.58026 0.69914 0.0
H882 H 0.71243 0.55776 0.75341 0.0
C883 C 0.78535 0.55165 0.80352 0.0
C884 C 0.78617 0.55246 0.74844 0.0
C885 C 0.79979 0.55873 0.82015 0.0
C886 C 0.71878 0.57659 0.68354 0.0
C887 C 0.73564 0.57109 0.69904 0.0
C888 C 0.73295 0.55566 0.75177 0.0
C889 C 0.79162 0.56126 0.78471 0.0
C890 C 0.77518 0.55602 0.76716 0.0
C891 C 0.72777 0.55562 0.71493 0.0
C892 C 0.74401 0.55343 0.73295 0.0
H893 H 0.84318 0.59775 0.79746 0.0
H894 H 0.81817 0.58569 0.76878 0.0
H895 H 0.73921 0.55999 0.78277 0.0
H896 H 0.66726 0.54183 0.69917 0.0
H897 H 0.69677 0.53193 0.72602 0.0
C898 C 0.93516 0.76039 0.33084 0.0
C899 C 0.94602 0.78485 0.33321 0.0
C900 C 0.94231 0.74478 0.31506 0.0
C901 C 0.97081 0.75056 0.265 0.0
H902 H 0.95887 0.67724 0.26536 0.0
C903 C 0.94606 0.69498 0.19425 0.0
C904 C 0.94915 0.66827 0.19361 0.0
C905 C 0.95292 0.70881 0.21113 0.0
C906 C 0.96292 0.6976 0.26487 0.0
H907 H 0.97446 0.8113 0.32187 0.0
H908 H 0.9881 0.78352 0.29497 0.0
H909 H 0.95921 0.70057 0.2961 0.0
H910 H 0.96394 0.63537 0.20933 0.0
H911 H 0.97761 0.65959 0.23823 0.0
H912 H 0.97551 0.74742 0.23384 0.0
C913 C 0.97321 0.77672 0.30476 0.0
C914 C 0.96259 0.71116 0.28264 0.0
C915 C 0.96566 0.79257 0.32037 0.0
C916 C 0.96121 0.65595 0.20949 0.0
C917 C 0.96869 0.66987 0.22619 0.0
C918 C 0.97172 0.7369 0.24726 0.0
C919 C 0.96092 0.753 0.3014 0.0
C920 C 0.96558 0.73799 0.28293 0.0
C921 C 0.96359 0.69634 0.22765 0.0
C922 C 0.96687 0.71032 0.24681 0.0
H923 H 0.91978 0.75397 0.34037 0.0
H924 H 0.93203 0.72693 0.313 0.0
H925 H 0.97308 0.77118 0.26441 0.0
H926 H 0.93652 0.70496 0.18231 0.0
H927 H 0.94828 0.729 0.21156 0.0
C928 C 0.45218 0.08323 0.16835 0.0
C929 C 0.42947 0.07623 0.17801 0.0
C930 C 0.47441 0.0686 0.17103 0.0
C931 C 0.48834 0.00169 0.18206 0.0
H932 H 0.55991 0.02177 0.18011 0.0
C933 C 0.56307 0.92428 0.18127 0.0
C934 C 0.58143 0.92627 0.16635 0.0
C935 C 0.54906 0.94568 0.18695 0.0
C936 C 0.53998 0.01596 0.18065 0.0
H937 H 0.41246 0.05071 0.19946 0.0
H938 H 0.45137 0.02604 0.20491 0.0
H939 H 0.52658 0.05482 0.18276 0.0
H940 H 0.60099 0.95205 0.14641 0.0
H941 H 0.57549 0.98967 0.15573 0.0
H942 H 0.50112 0.96321 0.17928 0.0
C943 C 0.452 0.04203 0.19473 0.0
C944 C 0.52096 0.03483 0.18218 0.0
C945 C 0.42978 0.05619 0.19172 0.0
C946 C 0.5869 0.95028 0.15804 0.0
C947 C 0.57239 0.97174 0.16343 0.0
C948 C 0.50715 0.98304 0.18054 0.0
C949 C 0.47411 0.0471 0.18358 0.0
C950 C 0.49492 0.0278 0.18297 0.0
C951 C 0.55255 0.96932 0.17734 0.0
C952 C 0.53319 0.98984 0.17989 0.0
H953 H 0.45219 0.09862 0.15763 0.0
H954 H 0.49114 0.07296 0.16222 0.0
H955 H 0.46848 -0.00441 0.18192 0.0
H956 H 0.5588 0.90589 0.18796 0.0
H957 H 0.53442 0.94335 0.1981 0.0
C958 C 0.55632 0.55459 0.64916 0.0
C959 C 0.56558 0.57222 0.6631 0.0
C960 C 0.53347 0.54138 0.65243 0.0
C961 C 0.47867 0.52377 0.65969 0.0
H962 H 0.48048 0.48191 0.70689 0.0
C963 C 0.40975 0.43808 0.67119 0.0
C964 C 0.42393 0.41538 0.67318 0.0
C965 C 0.42174 0.46195 0.67372 0.0
C966 C 0.47943 0.49383 0.69384 0.0
H967 H 0.55802 0.5904 0.69118 0.0
H968 H 0.51816 0.56642 0.69727 0.0
H969 H 0.51125 0.51703 0.70299 0.0
H970 H 0.46109 0.39956 0.68053 0.0
H971 H 0.48178 0.441 0.6854 0.0
H972 H 0.44779 0.49966 0.65005 0.0
C973 C 0.52852 0.56323 0.68369 0.0
C974 C 0.49692 0.51397 0.69165 0.0
C975 C 0.55123 0.57691 0.6802 0.0
C976 C 0.44977 0.41681 0.67883 0.0
C977 C 0.46155 0.44052 0.68178 0.0
C978 C 0.46096 0.50385 0.66199 0.0
C979 C 0.51959 0.5452 0.66987 0.0
C980 C 0.4974 0.52838 0.67418 0.0
C981 C 0.44786 0.46332 0.67877 0.0
C982 C 0.46193 0.48801 0.67871 0.0
H983 H 0.56695 0.55072 0.6358 0.0
H984 H 0.52723 0.52734 0.64167 0.0
H985 H 0.47861 0.53472 0.64612 0.0
H986 H 0.3898 0.43741 0.66676 0.0
H987 H 0.41083 0.47931 0.67126 0.0
C988 C 0.03642 0.41992 0.1492 0.0
C989 C 0.05101 0.40913 0.16444 0.0
C990 C 0.01125 0.42747 0.15255 0.0
C991 C 0.97506 0.45638 0.19083 0.0
H992 H 0.92254 0.45627 0.15032 0.0
C993 C 0.90587 0.5408 0.18356 0.0
C994 C 0.90861 0.55162 0.16472 0.0
C995 C 0.91385 0.51557 0.18709 0.0
C996 C 0.93676 0.45622 0.16197 0.0
H997 H 0.05058 0.39652 0.19484 0.0
H998 H 0.00642 0.41074 0.20098 0.0
H999 H 0.95575 0.42338 0.15004 0.0
H1000 H 0.91968 0.54417 0.13453 0.0
H1001 H 0.93333 0.50047 0.14055 0.0
H1002 H 0.95756 0.49056 0.2017 0.0
C1003 C 0.01444 0.41289 0.18637 0.0
C1004 C 0.95571 0.43738 0.16183 0.0
C1005 C 0.0396 0.40477 0.18286 0.0
C1006 C 0.91755 0.53633 0.14922 0.0
C1007 C 0.9251 0.51115 0.15266 0.0
C1008 C 0.95615 0.47531 0.19093 0.0
C1009 C 0.00026 0.42483 0.17132 0.0
C1010 C 0.97593 0.4383 0.17551 0.0
C1011 C 0.92419 0.50074 0.17175 0.0
C1012 C 0.93785 0.47636 0.17572 0.0
H1013 H 0.04479 0.42335 0.13484 0.0
H1014 H 0.00098 0.43698 0.14075 0.0
H1015 H 0.99045 0.45759 0.20153 0.0
H1016 H 0.899 0.55227 0.19574 0.0
H1017 H 0.91291 0.50802 0.20194 0.0
C1018 C 0.93673 0.9041 0.6812 0.0
C1019 C 0.92426 0.90867 0.66318 0.0
C1020 C 0.95945 0.91719 0.68584 0.0
C1021 C 0.99105 0.96589 0.69514 0.0
H1022 H 0.0435 0.97977 0.65612 0.0
C1023 C 0.03798 0.06331 0.68377 0.0
C1024 C 0.06375 0.06501 0.67805 0.0
C1025 C 0.02657 0.03947 0.68697 0.0
C1026 C 0.02942 0.97571 0.66741 0.0
H1027 H 0.92632 0.92917 0.63545 0.0
H1028 H 0.96601 0.95157 0.64335 0.0
H1029 H 0.01342 0.94443 0.65097 0.0
H1030 H 0.09824 0.04333 0.67213 0.0
H1031 H 0.07799 0.00132 0.67726 0.0
H1032 H 0.00598 -0.00173 0.71092 0.0
C1033 C 0.95834 0.93804 0.65394 0.0
C1034 C 0.01211 0.95561 0.66439 0.0
C1035 C 0.93549 0.9254 0.64948 0.0
C1036 C 0.07832 0.0425 0.67656 0.0
C1037 C 0.06676 0.01852 0.67943 0.0
C1038 C 0.00822 0.98616 0.69807 0.0
C1039 C 0.97025 0.93453 0.67232 0.0
C1040 C 0.99212 0.95121 0.67782 0.0
C1041 C 0.04061 0.01681 0.68424 0.0
C1042 C 0.02688 0.99191 0.68382 0.0
H1043 H 0.92839 0.89129 0.692 0.0
H1044 H 0.96827 0.91422 0.70011 0.0
H1045 H 0.97576 0.96299 0.70568 0.0
H1046 H 0.02635 0.0804 0.68511 0.0
H1047 H 0.00632 0.03877 0.6904 0.0
C1048 C 0.57311 0.5412 0.35167 0.0
C1049 C 0.56245 0.56593 0.35171 0.0
C1050 C 0.55758 0.51973 0.34802 0.0
C1051 C 0.49515 0.50098 0.32664 0.0
H1052 H 0.49219 0.44941 0.36776 0.0
C1053 C 0.4027 0.45545 0.35182 0.0
C1054 C 0.40137 0.42915 0.35602 0.0
C1055 C 0.42589 0.46677 0.34664 0.0
C1056 C 0.49322 0.46322 0.35586 0.0
H1057 H 0.52754 0.58772 0.34746 0.0
H1058 H 0.50069 0.55055 0.34097 0.0
H1059 H 0.52789 0.47998 0.36706 0.0
H1060 H 0.42307 0.39387 0.35791 0.0
H1061 H 0.46431 0.4141 0.34937 0.0
H1062 H 0.45966 0.4854 0.31622 0.0
C1063 C 0.52094 0.54762 0.34367 0.0
C1064 C 0.51361 0.48071 0.35546 0.0
C1065 C 0.53628 0.5689 0.34758 0.0
C1066 C 0.42366 0.41421 0.35467 0.0
C1067 C 0.44715 0.42572 0.34983 0.0
C1068 C 0.47483 0.48359 0.32705 0.0
C1069 C 0.53134 0.52281 0.34398 0.0
C1070 C 0.51401 0.50053 0.34143 0.0
C1071 C 0.44839 0.45214 0.34581 0.0
C1072 C 0.47303 0.46539 0.34223 0.0
H1073 H 0.59327 0.53843 0.35484 0.0
H1074 H 0.56601 0.50078 0.34841 0.0
H1075 H 0.49528 0.51581 0.31545 0.0
H1076 H 0.38579 0.46741 0.35266 0.0
H1077 H 0.42636 0.48725 0.34394 0.0
C1078 C 0.06236 0.42987 0.82633 0.0
C1079 C 0.08062 0.43063 0.84149 0.0
C1080 C 0.04831 0.45171 0.82159 0.0
C1081 C 0.03923 0.52141 0.8324 0.0
H1082 H 0.96766 0.50152 0.82997 0.0
C1083 C 0.95352 0.58622 0.85437 0.0
C1084 C 0.92998 0.58134 0.8451 0.0
C1085 C 0.97519 0.57194 0.84918 0.0
C1086 C 0.98753 0.5076 0.83014 0.0
H1087 H 0.10008 0.45505 0.86259 0.0
H1088 H 0.07473 0.49312 0.85491 0.0
H1089 H 0.00022 0.46893 0.82896 0.0
H1090 H 0.91067 0.55993 0.82216 0.0
H1091 H 0.94858 0.53598 0.81236 0.0
H1092 H 0.02597 0.56029 0.83444 0.0
C1093 C 0.0716 0.47587 0.84634 0.0
C1094 C 0.00632 0.48879 0.82954 0.0
C1095 C 0.08607 0.45405 0.85081 0.0
C1096 C 0.92872 0.56379 0.82953 0.0
C1097 C 0.95036 0.55 0.82406 0.0
C1098 C 0.02025 0.54039 0.83301 0.0
C1099 C 0.05176 0.47457 0.83229 0.0
C1100 C 0.0324 0.49535 0.83084 0.0
C1101 C 0.97349 0.55287 0.83452 0.0
C1102 C 0.99416 0.53361 0.83205 0.0
H1103 H 0.05809 0.41207 0.81875 0.0
H1104 H 0.03369 0.45027 0.81028 0.0
H1105 H 0.05917 0.52709 0.83337 0.0
H1106 H 0.95471 0.5996 0.86655 0.0
H1107 H 0.99268 0.57455 0.85758 0.0
C1108 C 0.91605 0.92329 0.32958 0.0
C1109 C 0.91994 0.91303 0.34848 0.0
C1110 C 0.9256 0.9477 0.32491 0.0
C1111 C 0.97061 0.9854 0.31865 0.0
H1112 H 0.97206 0.04092 0.35667 0.0
C1113 C 0.06084 0.03751 0.34141 0.0
C1114 C 0.06047 0.06362 0.34635 0.0
C1115 C 0.03851 0.02512 0.33534 0.0
C1116 C 0.97144 0.02602 0.34556 0.0
H1117 H 0.93504 0.92063 0.37767 0.0
H1118 H 0.9512 0.96312 0.36972 0.0
H1119 H 0.9387 0.00815 0.35875 0.0
H1120 H 0.03681 0.09762 0.34807 0.0
H1121 H -0.00279 0.07557 0.33799 0.0
H1122 H 0.00456 0.00216 0.30643 0.0
C1123 C 0.94097 0.9525 0.35844 0.0
C1124 C 0.95243 0.00719 0.34683 0.0
C1125 C 0.93198 0.92805 0.36294 0.0
C1126 C 0.03754 0.07744 0.34434 0.0
C1127 C 0.01496 0.06487 0.33858 0.0
C1128 C 0.98973 0.00413 0.31747 0.0
C1129 C 0.93851 0.96232 0.33927 0.0
C1130 C 0.95273 0.98597 0.33407 0.0
C1131 C 0.0152 0.03848 0.33434 0.0
C1132 C 0.99113 0.02379 0.3316 0.0
H1133 H 0.90679 0.91199 0.3182 0.0
H1134 H 0.9236 0.95483 0.31 0.0
H1135 H 0.97133 0.96923 0.30865 0.0
H1136 H 0.07832 0.02646 0.3427 0.0
H1137 H 0.03924 0.00469 0.33249 0.0
C1138 C 0.52651 0.90355 0.84458 0.0
C1139 C 0.54786 0.91932 0.84096 0.0
C1140 C 0.50166 0.91334 0.8425 0.0
C1141 C 0.46475 0.96902 0.82327 0.0
H1142 H 0.42976 0.96658 0.87354 0.0
C1143 C 0.41873 0.04625 0.87494 0.0
C1144 C 0.4026 0.05973 0.86207 0.0
C1145 C 0.42701 0.02166 0.87023 0.0
C1146 C 0.43894 0.96708 0.85925 0.0
H1147 H 0.56019 0.95681 0.83094 0.0
H1148 H 0.51718 0.97373 0.82709 0.0
H1149 H 0.46384 0.936 0.86664 0.0
H1150 H 0.38121 0.0577 0.83473 0.0
H1151 H 0.39641 0.01457 0.82611 0.0
H1152 H 0.44144 0.00155 0.81658 0.0
C1153 C 0.51936 0.95391 0.83155 0.0
C1154 C 0.45834 0.94944 0.85523 0.0
C1155 C 0.54404 0.94432 0.83395 0.0
C1156 C 0.39366 0.04763 0.84488 0.0
C1157 C 0.40236 0.02304 0.83996 0.0
C1158 C 0.4453 0.98661 0.82726 0.0
C1159 C 0.49791 0.93883 0.83636 0.0
C1160 C 0.47248 0.9513 0.83769 0.0
C1161 C 0.41964 0.0101 0.85239 0.0
C1162 C 0.43334 0.98678 0.84578 0.0
H1163 H 0.52902 0.88419 0.85002 0.0
H1164 H 0.48544 0.90134 0.84633 0.0
H1165 H 0.47513 0.97063 0.80951 0.0
H1166 H 0.42575 0.05511 0.88835 0.0
H1167 H 0.4406 0.01242 0.88 0.0
loop_
_geom_bond_atom_site_label_1
_geom_bond_atom_site_label_2
_geom_bond_distance
_geom_bond_site_symmetry_2
_ccdc_geom_bond_type
In0 O1 2.294 . S
In0 O2 2.326 . S
In0 O6 2.266 . S
In0 O7 2.326 . S
In0 O8 2.266 . S
In0 O9 2.326 . S
In0 O11 2.294 . S
In0 O12 2.326 . S
O1 In0 2.294 . S
O1 C10 1.240 . S
O2 In0 2.326 . S
O2 C10 1.252 . S
C3 O6 1.252 . S
C3 O7 1.260 . S
C4 O11 1.240 . S
C4 O12 1.252 . S
C5 O8 1.252 . S
C5 O9 1.260 . S
O6 In0 2.266 . S
O6 C3 1.252 . S
O7 In0 2.326 . S
O7 C3 1.260 . S
O8 In0 2.266 . S
O8 C5 1.252 . S
O9 In0 2.326 . S
O9 C5 1.260 . S
C10 O1 1.240 . S
C10 O2 1.252 . S
O11 In0 2.294 . S
O11 C4 1.240 . S
O12 In0 2.326 . S
O12 C4 1.252 . S
In13 O14 2.294 . S
In13 O15 2.326 . S
In13 O19 2.266 . S
In13 O20 2.326 . S
In13 O21 2.266 . S
In13 O22 2.326 . S
In13 O24 2.294 . S
In13 O25 2.326 . S
O14 In13 2.294 . S
O14 C23 1.240 . S
O15 In13 2.326 . S
O15 C23 1.252 . S
C16 O19 1.252 . S
C16 O20 1.260 . S
C17 O24 1.240 . S
C17 O25 1.252 . S
C18 O21 1.252 . S
C18 O22 1.260 . S
O19 In13 2.266 . S
O19 C16 1.252 . S
O20 In13 2.326 . S
O20 C16 1.260 . S
O21 In13 2.266 . S
O21 C18 1.252 . S
O22 In13 2.326 . S
O22 C18 1.260 . S
C23 O14 1.240 . S
C23 O15 1.252 . S
O24 In13 2.294 . S
O24 C17 1.240 . S
O25 In13 2.326 . S
O25 C17 1.252 . S
In26 O27 2.294 . S
In26 O28 2.326 . S
In26 O32 2.266 . S
In26 O33 2.326 . S
In26 O34 2.266 . S
In26 O35 2.326 . S
In26 O37 2.294 . S
In26 O38 2.326 . S
O27 In26 2.294 . S
O27 C36 1.240 . S
O28 In26 2.326 . S
O28 C36 1.252 . S
C29 O32 1.252 . S
C29 O33 1.260 . S
C30 O37 1.240 . S
C30 O38 1.252 . S
C31 O34 1.252 . S
C31 O35 1.260 . S
O32 In26 2.266 . S
O32 C29 1.252 . S
O33 In26 2.326 . S
O33 C29 1.260 . S
O34 In26 2.266 . S
O34 C31 1.252 . S
O35 In26 2.326 . S
O35 C31 1.260 . S
C36 O27 1.240 . S
C36 O28 1.252 . S
O37 In26 2.294 . S
O37 C30 1.240 . S
O38 In26 2.326 . S
O38 C30 1.252 . S
In39 O40 2.294 . S
In39 O41 2.326 . S
In39 O45 2.266 . S
In39 O46 2.326 . S
In39 O47 2.266 . S
In39 O48 2.326 . S
In39 O50 2.294 . S
In39 O51 2.326 . S
O40 In39 2.294 . S
O40 C49 1.240 . S
O41 In39 2.326 . S
O41 C49 1.252 . S
C42 O45 1.252 . S
C42 O46 1.260 . S
C43 O50 1.240 . S
C43 O51 1.252 . S
C44 O47 1.252 . S
C44 O48 1.260 . S
O45 In39 2.266 . S
O45 C42 1.252 . S
O46 In39 2.326 . S
O46 C42 1.260 . S
O47 In39 2.266 . S
O47 C44 1.252 . S
O48 In39 2.326 . S
O48 C44 1.260 . S
C49 O40 1.240 . S
C49 O41 1.252 . S
O50 In39 2.294 . S
O50 C43 1.240 . S
O51 In39 2.326 . S
O51 C43 1.252 . S
In52 O53 2.294 . S
In52 O54 2.326 . S
In52 O58 2.266 . S
In52 O59 2.326 . S
In52 O60 2.266 . S
In52 O61 2.326 . S
In52 O63 2.294 . S
In52 O64 2.326 . S
O53 In52 2.294 . S
O53 C62 1.240 . S
O54 In52 2.326 . S
O54 C62 1.252 . S
C55 O58 1.252 . S
C55 O59 1.260 . S
C56 O63 1.240 . S
C56 O64 1.252 . S
C57 O60 1.252 . S
C57 O61 1.260 . S
O58 In52 2.266 . S
O58 C55 1.252 . S
O59 In52 2.326 . S
O59 C55 1.260 . S
O60 In52 2.266 . S
O60 C57 1.252 . S
O61 In52 2.326 . S
O61 C57 1.260 . S
C62 O53 1.240 . S
C62 O54 1.252 . S
O63 In52 2.294 . S
O63 C56 1.240 . S
O64 In52 2.326 . S
O64 C56 1.252 . S
In65 O66 2.294 . S
In65 O67 2.326 . S
In65 O71 2.266 . S
In65 O72 2.326 . S
In65 O73 2.266 . S
In65 O74 2.326 . S
In65 O76 2.294 . S
In65 O77 2.326 . S
O66 In65 2.294 . S
O66 C75 1.240 . S
O67 In65 2.326 . S
O67 C75 1.252 . S
C68 O71 1.252 . S
C68 O72 1.260 . S
C69 O76 1.240 . S
C69 O77 1.252 . S
C70 O73 1.252 . S
C70 O74 1.260 . S
O71 In65 2.266 . S
O71 C68 1.252 . S
O72 In65 2.326 . S
O72 C68 1.260 . S
O73 In65 2.266 . S
O73 C70 1.252 . S
O74 In65 2.326 . S
O74 C70 1.260 . S
C75 O66 1.240 . S
C75 O67 1.252 . S
O76 In65 2.294 . S
O76 C69 1.240 . S
O77 In65 2.326 . S
O77 C69 1.252 . S
In78 O79 2.294 . S
In78 O80 2.326 . S
In78 O84 2.266 . S
In78 O85 2.326 . S
In78 O86 2.266 . S
In78 O87 2.326 . S
In78 O89 2.294 . S
In78 O90 2.326 . S
O79 In78 2.294 . S
O79 C88 1.240 . S
O80 In78 2.326 . S
O80 C88 1.252 . S
C81 O84 1.252 . S
C81 O85 1.260 . S
C82 O89 1.240 . S
C82 O90 1.252 . S
C83 O86 1.252 . S
C83 O87 1.260 . S
O84 In78 2.266 . S
O84 C81 1.252 . S
O85 In78 2.326 . S
O85 C81 1.260 . S
O86 In78 2.266 . S
O86 C83 1.252 . S
O87 In78 2.326 . S
O87 C83 1.260 . S
C88 O79 1.240 . S
C88 O80 1.252 . S
O89 In78 2.294 . S
O89 C82 1.240 . S
O90 In78 2.326 . S
O90 C82 1.252 . S
In91 O92 2.294 . S
In91 O93 2.326 . S
In91 O97 2.266 . S
In91 O98 2.326 . S
In91 O99 2.266 . S
In91 O100 2.326 . S
In91 O102 2.294 . S
In91 O103 2.326 . S
O92 In91 2.294 . S
O92 C101 1.240 . S
O93 In91 2.326 . S
O93 C101 1.252 . S
C94 O97 1.252 . S
C94 O98 1.260 . S
C95 O102 1.240 . S
C95 O103 1.252 . S
C96 O99 1.252 . S
C96 O100 1.260 . S
O97 In91 2.266 . S
O97 C94 1.252 . S
O98 In91 2.326 . S
O98 C94 1.260 . S
O99 In91 2.266 . S
O99 C96 1.252 . S
O100 In91 2.326 . S
O100 C96 1.260 . S
C101 O92 1.240 . S
C101 O93 1.252 . S
O102 In91 2.294 . S
O102 C95 1.240 . S
O103 In91 2.326 . S
O103 C95 1.252 . S
In104 O105 2.294 . S
In104 O106 2.326 . S
In104 O110 2.266 . S
In104 O111 2.326 . S
In104 O112 2.266 . S
In104 O113 2.326 . S
In104 O115 2.294 . S
In104 O116 2.326 . S
O105 In104 2.294 . S
O105 C114 1.240 . S
O106 In104 2.326 . S
O106 C114 1.252 . S
C107 O110 1.252 . S
C107 O111 1.260 . S
C108 O115 1.240 . S
C108 O116 1.252 . S
C109 O112 1.252 . S
C109 O113 1.260 . S
O110 In104 2.266 . S
O110 C107 1.252 . S
O111 In104 2.326 . S
O111 C107 1.260 . S
O112 In104 2.266 . S
O112 C109 1.252 . S
O113 In104 2.326 . S
O113 C109 1.260 . S
C114 O105 1.240 . S
C114 O106 1.252 . S
O115 In104 2.294 . S
O115 C108 1.240 . S
O116 In104 2.326 . S
O116 C108 1.252 . S
In117 O118 2.294 . S
In117 O119 2.326 . S
In117 O123 2.266 . S
In117 O124 2.326 . S
In117 O125 2.266 . S
In117 O126 2.326 . S
In117 O128 2.294 . S
In117 O129 2.326 . S
O118 In117 2.294 . S
O118 C127 1.240 . S
O119 In117 2.326 . S
O119 C127 1.252 . S
C120 O123 1.252 . S
C120 O124 1.260 . S
C121 O128 1.240 . S
C121 O129 1.252 . S
C122 O125 1.252 . S
C122 O126 1.260 . S
O123 In117 2.266 . S
O123 C120 1.252 . S
O124 In117 2.326 . S
O124 C120 1.260 . S
O125 In117 2.266 . S
O125 C122 1.252 . S
O126 In117 2.326 . S
O126 C122 1.260 . S
C127 O118 1.240 . S
C127 O119 1.252 . S
O128 In117 2.294 . S
O128 C121 1.240 . S
O129 In117 2.326 . S
O129 C121 1.252 . S
In130 O131 2.294 . S
In130 O132 2.326 . S
In130 O136 2.266 . S
In130 O137 2.326 . S
In130 O138 2.266 . S
In130 O139 2.326 . S
In130 O141 2.294 . S
In130 O142 2.326 . S
O131 In130 2.294 . S
O131 C140 1.240 . S
O132 In130 2.326 . S
O132 C140 1.252 . S
C133 O136 1.252 . S
C133 O137 1.260 . S
C134 O141 1.240 . S
C134 O142 1.252 . S
C135 O138 1.252 . S
C135 O139 1.260 . S
O136 In130 2.266 . S
O136 C133 1.252 . S
O137 In130 2.326 . S
O137 C133 1.260 . S
O138 In130 2.266 . S
O138 C135 1.252 . S
O139 In130 2.326 . S
O139 C135 1.260 . S
C140 O131 1.240 . S
C140 O132 1.252 . S
O141 In130 2.294 . S
O141 C134 1.240 . S
O142 In130 2.326 . S
O142 C134 1.252 . S
In143 O144 2.294 . S
In143 O145 2.326 . S
In143 O149 2.266 . S
In143 O150 2.326 . S
In143 O151 2.266 . S
In143 O152 2.326 . S
In143 O154 2.294 . S
In143 O155 2.326 . S
O144 In143 2.294 . S
O144 C153 1.240 . S
O145 In143 2.326 . S
O145 C153 1.252 . S
C146 O149 1.252 . S
C146 O150 1.260 . S
C147 O154 1.240 . S
C147 O155 1.252 . S
C148 O151 1.252 . S
C148 O152 1.260 . S
O149 In143 2.266 . S
O149 C146 1.252 . S
O150 In143 2.326 . S
O150 C146 1.260 . S
O151 In143 2.266 . S
O151 C148 1.252 . S
O152 In143 2.326 . S
O152 C148 1.260 . S
C153 O144 1.240 . S
C153 O145 1.252 . S
O154 In143 2.294 . S
O154 C147 1.240 . S
O155 In143 2.326 . S
O155 C147 1.252 . S
In156 O157 2.294 . S
In156 O158 2.326 . S
In156 O162 2.266 . S
In156 O163 2.326 . S
In156 O164 2.266 . S
In156 O165 2.326 . S
In156 O167 2.294 . S
In156 O168 2.326 . S
O157 In156 2.294 . S
O157 C166 1.240 . S
O158 In156 2.326 . S
O158 C166 1.252 . S
C159 O162 1.252 . S
C159 O163 1.260 . S
C160 O167 1.240 . S
C160 O168 1.252 . S
C161 O164 1.252 . S
C161 O165 1.260 . S
O162 In156 2.266 . S
O162 C159 1.252 . S
O163 In156 2.326 . S
O163 C159 1.260 . S
O164 In156 2.266 . S
O164 C161 1.252 . S
O165 In156 2.326 . S
O165 C161 1.260 . S
C166 O157 1.240 . S
C166 O158 1.252 . S
O167 In156 2.294 . S
O167 C160 1.240 . S
O168 In156 2.326 . S
O168 C160 1.252 . S
In169 O170 2.294 . S
In169 O171 2.326 . S
In169 O175 2.266 . S
In169 O176 2.326 . S
In169 O177 2.266 . S
In169 O178 2.326 . S
In169 O180 2.294 . S
In169 O181 2.326 . S
O170 In169 2.294 . S
O170 C179 1.240 . S
O171 In169 2.326 . S
O171 C179 1.252 . S
C172 O175 1.252 . S
C172 O176 1.260 . S
C173 O180 1.240 . S
C173 O181 1.252 . S
C174 O177 1.252 . S
C174 O178 1.260 . S
O175 In169 2.266 . S
O175 C172 1.252 . S
O176 In169 2.326 . S
O176 C172 1.260 . S
O177 In169 2.266 . S
O177 C174 1.252 . S
O178 In169 2.326 . S
O178 C174 1.260 . S
C179 O170 1.240 . S
C179 O171 1.252 . S
O180 In169 2.294 . S
O180 C173 1.240 . S
O181 In169 2.326 . S
O181 C173 1.252 . S
In182 O183 2.294 . S
In182 O184 2.326 . S
In182 O188 2.266 . S
In182 O189 2.326 . S
In182 O190 2.266 . S
In182 O191 2.326 . S
In182 O193 2.294 . S
In182 O194 2.326 . S
O183 In182 2.294 . S
O183 C192 1.240 . S
O184 In182 2.326 . S
O184 C192 1.252 . S
C185 O188 1.252 . S
C185 O189 1.260 . S
C186 O193 1.240 . S
C186 O194 1.252 . S
C187 O190 1.252 . S
C187 O191 1.260 . S
O188 In182 2.266 . S
O188 C185 1.252 . S
O189 In182 2.326 . S
O189 C185 1.260 . S
O190 In182 2.266 . S
O190 C187 1.252 . S
O191 In182 2.326 . S
O191 C187 1.260 . S
C192 O183 1.240 . S
C192 O184 1.252 . S
O193 In182 2.294 . S
O193 C186 1.240 . S
O194 In182 2.326 . S
O194 C186 1.252 . S
In195 O196 2.294 . S
In195 O197 2.326 . S
In195 O201 2.266 . S
In195 O202 2.326 . S
In195 O203 2.266 . S
In195 O204 2.326 . S
In195 O206 2.294 . S
In195 O207 2.326 . S
O196 In195 2.294 . S
O196 C205 1.240 . S
O197 In195 2.326 . S
O197 C205 1.252 . S
C198 O201 1.252 . S
C198 O202 1.260 . S
C199 O206 1.240 . S
C199 O207 1.252 . S
C200 O203 1.252 . S
C200 O204 1.260 . S
O201 In195 2.266 . S
O201 C198 1.252 . S
O202 In195 2.326 . S
O202 C198 1.260 . S
O203 In195 2.266 . S
O203 C200 1.252 . S
O204 In195 2.326 . S
O204 C200 1.260 . S
C205 O196 1.240 . S
C205 O197 1.252 . S
O206 In195 2.294 . S
O206 C199 1.240 . S
O207 In195 2.326 . S
O207 C199 1.252 . S
C208 C209 1.349 . S
C208 C210 1.327 . S
C208 H233 0.950 . S
C209 C208 1.349 . S
C209 C225 1.349 . S
C210 C208 1.327 . S
C210 C229 1.429 . S
C210 H234 0.950 . S
C211 C228 1.574 1_556 S
C211 C230 1.368 . S
C211 H235 0.949 . S
H212 C216 0.949 . S
C213 C214 1.349 . S
C213 C215 1.327 . S
C213 H236 0.950 . S
C214 C213 1.349 . S
C214 C226 1.349 . S
C215 C213 1.327 . S
C215 C231 1.429 . S
C215 H237 0.950 . S
C216 H212 0.949 . S
C216 C224 1.574 1_554 S
C216 C232 1.368 . S
H217 C225 0.950 . S
H218 C223 0.950 . S
H219 C224 0.949 . S
H220 C226 0.950 . S
H221 C227 0.950 . S
H222 C228 0.949 . S
C223 H218 0.950 . S
C223 C225 1.327 . S
C223 C229 1.429 . S
C224 C216 1.574 1_556 S
C224 H219 0.949 . S
C224 C230 1.368 . S
C225 C209 1.349 . S
C225 H217 0.950 . S
C225 C223 1.327 . S
C226 C214 1.349 . S
C226 H220 0.950 . S
C226 C227 1.327 . S
C227 H221 0.950 . S
C227 C226 1.327 . S
C227 C231 1.429 . S
C228 C211 1.574 1_554 S
C228 H222 0.949 . S
C228 C232 1.368 . S
C229 C210 1.429 . S
C229 C223 1.429 . S
C229 C230 1.523 . S
C230 C211 1.368 . S
C230 C224 1.368 . S
C230 C229 1.523 . S
C231 C215 1.429 . S
C231 C227 1.429 . S
C231 C232 1.523 . S
C232 C216 1.368 . S
C232 C228 1.368 . S
C232 C231 1.523 . S
H233 C208 0.950 . S
H234 C210 0.950 . S
H235 C211 0.949 . S
H236 C213 0.950 . S
H237 C215 0.950 . S
C238 C239 1.349 . S
C238 C240 1.327 . S
C238 H263 0.950 . S
C239 C238 1.349 . S
C239 C255 1.349 . S
C240 C238 1.327 . S
C240 C259 1.429 . S
C240 H264 0.950 . S
C241 C258 1.574 . S
C241 C260 1.368 . S
C241 H265 0.949 . S
H242 C246 0.949 . S
C243 C244 1.349 . S
C243 C245 1.327 . S
C243 H266 0.950 . S
C244 C243 1.349 . S
C244 C256 1.349 . S
C245 C243 1.327 . S
C245 C261 1.429 . S
C245 H267 0.950 . S
C246 H242 0.949 . S
C246 C254 1.574 . S
C246 C262 1.368 . S
H247 C255 0.950 . S
H248 C253 0.950 . S
H249 C254 0.949 . S
H250 C256 0.950 . S
H251 C257 0.950 . S
H252 C258 0.949 . S
C253 H248 0.950 . S
C253 C255 1.327 . S
C253 C259 1.429 . S
C254 C246 1.574 . S
C254 H249 0.949 . S
C254 C260 1.368 . S
C255 C239 1.349 . S
C255 H247 0.950 . S
C255 C253 1.327 . S
C256 C244 1.349 . S
C256 H250 0.950 . S
C256 C257 1.327 . S
C257 H251 0.950 . S
C257 C256 1.327 . S
C257 C261 1.429 . S
C258 C241 1.574 . S
C258 H252 0.949 . S
C258 C262 1.368 . S
C259 C240 1.429 . S
C259 C253 1.429 . S
C259 C260 1.523 . S
C260 C241 1.368 . S
C260 C254 1.368 . S
C260 C259 1.523 . S
C261 C245 1.429 . S
C261 C257 1.429 . S
C261 C262 1.523 . S
C262 C246 1.368 . S
C262 C258 1.368 . S
C262 C261 1.523 . S
H263 C238 0.950 . S
H264 C240 0.950 . S
H265 C241 0.949 . S
H266 C243 0.950 . S
H267 C245 0.950 . S
C268 C269 1.349 . S
C268 C270 1.327 . S
C268 H293 0.950 . S
C269 C268 1.349 . S
C269 C285 1.349 . S
C270 C268 1.327 . S
C270 C289 1.429 . S
C270 H294 0.950 . S
C271 C288 1.574 1_556 S
C271 C290 1.368 . S
C271 H295 0.949 . S
H272 C276 0.949 . S
C273 C274 1.349 . S
C273 C275 1.327 . S
C273 H296 0.950 . S
C274 C273 1.349 . S
C274 C286 1.349 . S
C275 C273 1.327 . S
C275 C291 1.429 . S
C275 H297 0.950 . S
C276 H272 0.949 . S
C276 C284 1.574 1_554 S
C276 C292 1.368 . S
H277 C285 0.950 . S
H278 C283 0.950 . S
H279 C284 0.949 . S
H280 C286 0.950 . S
H281 C287 0.950 . S
H282 C288 0.949 . S
C283 H278 0.950 . S
C283 C285 1.327 . S
C283 C289 1.429 . S
C284 C276 1.574 1_556 S
C284 H279 0.949 . S
C284 C290 1.368 . S
C285 C269 1.349 . S
C285 H277 0.950 . S
C285 C283 1.327 . S
C286 C274 1.349 . S
C286 H280 0.950 . S
C286 C287 1.327 . S
C287 H281 0.950 . S
C287 C286 1.327 . S
C287 C291 1.429 . S
C288 C271 1.574 1_554 S
C288 H282 0.949 . S
C288 C292 1.368 . S
C289 C270 1.429 . S
C289 C283 1.429 . S
C289 C290 1.523 . S
C290 C271 1.368 . S
C290 C284 1.368 . S
C290 C289 1.523 . S
C291 C275 1.429 . S
C291 C287 1.429 . S
C291 C292 1.523 . S
C292 C276 1.368 . S
C292 C288 1.368 . S
C292 C291 1.523 . S
H293 C268 0.950 . S
H294 C270 0.950 . S
H295 C271 0.949 . S
H296 C273 0.950 . S
H297 C275 0.950 . S
C298 C299 1.349 . S
C298 C300 1.327 . S
C298 H323 0.950 . S
C299 C298 1.349 . S
C299 C315 1.349 . S
C300 C298 1.327 . S
C300 C319 1.429 . S
C300 H324 0.950 . S
C301 C318 1.574 . S
C301 C320 1.368 . S
C301 H325 0.949 . S
H302 C306 0.949 . S
C303 C304 1.349 . S
C303 C305 1.327 . S
C303 H326 0.950 . S
C304 C303 1.349 . S
C304 C316 1.349 . S
C305 C303 1.327 . S
C305 C321 1.429 . S
C305 H327 0.950 . S
C306 H302 0.949 . S
C306 C314 1.574 . S
C306 C322 1.368 . S
H307 C315 0.950 . S
H308 C313 0.950 . S
H309 C314 0.949 . S
H310 C316 0.950 . S
H311 C317 0.950 . S
H312 C318 0.949 . S
C313 H308 0.950 . S
C313 C315 1.327 . S
C313 C319 1.429 . S
C314 C306 1.574 . S
C314 H309 0.949 . S
C314 C320 1.368 . S
C315 C299 1.349 . S
C315 H307 0.950 . S
C315 C313 1.327 . S
C316 C304 1.349 . S
C316 H310 0.950 . S
C316 C317 1.327 . S
C317 H311 0.950 . S
C317 C316 1.327 . S
C317 C321 1.429 . S
C318 C301 1.574 . S
C318 H312 0.949 . S
C318 C322 1.368 . S
C319 C300 1.429 . S
C319 C313 1.429 . S
C319 C320 1.523 . S
C320 C301 1.368 . S
C320 C314 1.368 . S
C320 C319 1.523 . S
C321 C305 1.429 . S
C321 C317 1.429 . S
C321 C322 1.523 . S
C322 C306 1.368 . S
C322 C318 1.368 . S
C322 C321 1.523 . S
H323 C298 0.950 . S
H324 C300 0.950 . S
H325 C301 0.949 . S
H326 C303 0.950 . S
H327 C305 0.950 . S
C328 C329 1.349 . S
C328 C330 1.327 . S
C328 H353 0.950 . S
C329 C328 1.349 . S
C329 C345 1.349 . S
C330 C328 1.327 . S
C330 C349 1.429 . S
C330 H354 0.950 . S
C331 C348 1.574 1_554 S
C331 C350 1.368 . S
C331 H355 0.949 . S
H332 C336 0.949 . S
C333 C334 1.349 . S
C333 C335 1.327 . S
C333 H356 0.950 . S
C334 C333 1.349 . S
C334 C346 1.349 . S
C335 C333 1.327 . S
C335 C351 1.429 . S
C335 H357 0.950 . S
C336 H332 0.949 . S
C336 C344 1.574 1_556 S
C336 C352 1.368 . S
H337 C345 0.950 . S
H338 C343 0.950 . S
H339 C344 0.949 . S
H340 C346 0.950 . S
H341 C347 0.950 . S
H342 C348 0.949 . S
C343 H338 0.950 . S
C343 C345 1.327 . S
C343 C349 1.429 . S
C344 C336 1.574 1_554 S
C344 H339 0.949 . S
C344 C350 1.368 . S
C345 C329 1.349 . S
C345 H337 0.950 . S
C345 C343 1.327 . S
C346 C334 1.349 . S
C346 H340 0.950 . S
C346 C347 1.327 . S
C347 H341 0.950 . S
C347 C346 1.327 . S
C347 C351 1.429 . S
C348 C331 1.574 1_556 S
C348 H342 0.949 . S
C348 C352 1.368 . S
C349 C330 1.429 . S
C349 C343 1.429 . S
C349 C350 1.523 . S
C350 C331 1.368 . S
C350 C344 1.368 . S
C350 C349 1.523 . S
C351 C335 1.429 . S
C351 C347 1.429 . S
C351 C352 1.523 . S
C352 C336 1.368 . S
C352 C348 1.368 . S
C352 C351 1.523 . S
H353 C328 0.950 . S
H354 C330 0.950 . S
H355 C331 0.949 . S
H356 C333 0.950 . S
H357 C335 0.950 . S
C358 C359 1.349 . S
C358 C360 1.327 . S
C358 H383 0.950 . S
C359 C358 1.349 . S
C359 C375 1.349 . S
C360 C358 1.327 . S
C360 C379 1.429 . S
C360 H384 0.950 . S
C361 C378 1.574 . S
C361 C380 1.368 . S
C361 H385 0.949 . S
H362 C366 0.949 . S
C363 C364 1.349 . S
C363 C365 1.327 . S
C363 H386 0.950 . S
C364 C363 1.349 . S
C364 C376 1.349 . S
C365 C363 1.327 . S
C365 C381 1.429 . S
C365 H387 0.950 . S
C366 H362 0.949 . S
C366 C374 1.574 . S
C366 C382 1.368 . S
H367 C375 0.950 . S
H368 C373 0.950 . S
H369 C374 0.949 . S
H370 C376 0.950 . S
H371 C377 0.950 . S
H372 C378 0.949 . S
C373 H368 0.950 . S
C373 C375 1.327 . S
C373 C379 1.429 . S
C374 C366 1.574 . S
C374 H369 0.949 . S
C374 C380 1.368 . S
C375 C359 1.349 . S
C375 H367 0.950 . S
C375 C373 1.327 . S
C376 C364 1.349 . S
C376 H370 0.950 . S
C376 C377 1.327 . S
C377 H371 0.950 . S
C377 C376 1.327 . S
C377 C381 1.429 . S
C378 C361 1.574 . S
C378 H372 0.949 . S
C378 C382 1.368 . S
C379 C360 1.429 . S
C379 C373 1.429 . S
C379 C380 1.523 . S
C380 C361 1.368 . S
C380 C374 1.368 . S
C380 C379 1.523 . S
C381 C365 1.429 . S
C381 C377 1.429 . S
C381 C382 1.523 . S
C382 C366 1.368 . S
C382 C378 1.368 . S
C382 C381 1.523 . S
H383 C358 0.950 . S
H384 C360 0.950 . S
H385 C361 0.949 . S
H386 C363 0.950 . S
H387 C365 0.950 . S
C388 C389 1.349 . S
C388 C390 1.327 . S
C388 H413 0.950 . S
C389 C388 1.349 . S
C389 C405 1.349 . S
C390 C388 1.327 . S
C390 C409 1.429 . S
C390 H414 0.950 . S
C391 C408 1.574 1_556 S
C391 C410 1.368 . S
C391 H415 0.949 . S
H392 C396 0.949 . S
C393 C394 1.349 . S
C393 C395 1.327 . S
C393 H416 0.950 . S
C394 C393 1.349 . S
C394 C406 1.349 . S
C395 C393 1.327 . S
C395 C411 1.429 . S
C395 H417 0.950 . S
C396 H392 0.949 . S
C396 C404 1.574 1_554 S
C396 C412 1.368 . S
H397 C405 0.950 . S
H398 C403 0.950 . S
H399 C404 0.949 . S
H400 C406 0.950 . S
H401 C407 0.950 . S
H402 C408 0.949 . S
C403 H398 0.950 . S
C403 C405 1.327 . S
C403 C409 1.429 . S
C404 C396 1.574 1_556 S
C404 H399 0.949 . S
C404 C410 1.368 . S
C405 C389 1.349 . S
C405 H397 0.950 . S
C405 C403 1.327 . S
C406 C394 1.349 . S
C406 H400 0.950 . S
C406 C407 1.327 . S
C407 H401 0.950 . S
C407 C406 1.327 . S
C407 C411 1.429 . S
C408 C391 1.574 1_554 S
C408 H402 0.949 . S
C408 C412 1.368 . S
C409 C390 1.429 . S
C409 C403 1.429 . S
C409 C410 1.523 . S
C410 C391 1.368 . S
C410 C404 1.368 . S
C410 C409 1.523 . S
C411 C395 1.429 . S
C411 C407 1.429 . S
C411 C412 1.523 . S
C412 C396 1.368 . S
C412 C408 1.368 . S
C412 C411 1.523 . S
H413 C388 0.950 . S
H414 C390 0.950 . S
H415 C391 0.949 . S
H416 C393 0.950 . S
H417 C395 0.950 . S
C418 C419 1.349 . S
C418 C420 1.327 . S
C418 H443 0.950 . S
C419 C418 1.349 . S
C419 C435 1.349 . S
C420 C418 1.327 . S
C420 C439 1.429 . S
C420 H444 0.950 . S
C421 C438 1.574 . S
C421 C440 1.368 . S
C421 H445 0.949 . S
H422 C426 0.949 . S
C423 C424 1.349 . S
C423 C425 1.327 . S
C423 H446 0.950 . S
C424 C423 1.349 . S
C424 C436 1.349 . S
C425 C423 1.327 . S
C425 C441 1.429 . S
C425 H447 0.950 . S
C426 H422 0.949 . S
C426 C434 1.574 . S
C426 C442 1.368 . S
H427 C435 0.950 . S
H428 C433 0.950 . S
H429 C434 0.949 . S
H430 C436 0.950 . S
H431 C437 0.950 . S
H432 C438 0.949 . S
C433 H428 0.950 . S
C433 C435 1.327 . S
C433 C439 1.429 . S
C434 C426 1.574 . S
C434 H429 0.949 . S
C434 C440 1.368 . S
C435 C419 1.349 . S
C435 H427 0.950 . S
C435 C433 1.327 . S
C436 C424 1.349 . S
C436 H430 0.950 . S
C436 C437 1.327 . S
C437 H431 0.950 . S
C437 C436 1.327 . S
C437 C441 1.429 . S
C438 C421 1.574 . S
C438 H432 0.949 . S
C438 C442 1.368 . S
C439 C420 1.429 . S
C439 C433 1.429 . S
C439 C440 1.523 . S
C440 C421 1.368 . S
C440 C434 1.368 . S
C440 C439 1.523 . S
C441 C425 1.429 . S
C441 C437 1.429 . S
C441 C442 1.523 . S
C442 C426 1.368 . S
C442 C438 1.368 . S
C442 C441 1.523 . S
H443 C418 0.950 . S
H444 C420 0.950 . S
H445 C421 0.949 . S
H446 C423 0.950 . S
H447 C425 0.950 . S
C448 C449 1.349 . S
C448 C450 1.327 . S
C448 H473 0.950 . S
C449 C448 1.349 . S
C449 C465 1.349 . S
C450 C448 1.327 . S
C450 C469 1.429 . S
C450 H474 0.950 . S
C451 C468 1.574 . S
C451 C470 1.368 . S
C451 H475 0.949 . S
H452 C456 0.949 . S
C453 C454 1.349 . S
C453 C455 1.327 . S
C453 H476 0.950 . S
C454 C453 1.349 . S
C454 C466 1.349 . S
C455 C453 1.327 . S
C455 C471 1.429 . S
C455 H477 0.950 . S
C456 H452 0.949 . S
C456 C464 1.574 . S
C456 C472 1.368 . S
H457 C465 0.950 . S
H458 C463 0.950 . S
H459 C464 0.949 . S
H460 C466 0.950 . S
H461 C467 0.950 . S
H462 C468 0.949 . S
C463 H458 0.950 . S
C463 C465 1.327 . S
C463 C469 1.429 . S
C464 C456 1.574 . S
C464 H459 0.949 . S
C464 C470 1.368 . S
C465 C449 1.349 . S
C465 H457 0.950 . S
C465 C463 1.327 . S
C466 C454 1.349 . S
C466 H460 0.950 . S
C466 C467 1.327 . S
C467 H461 0.950 . S
C467 C466 1.327 . S
C467 C471 1.429 . S
C468 C451 1.574 . S
C468 H462 0.949 . S
C468 C472 1.368 . S
C469 C450 1.429 . S
C469 C463 1.429 . S
C469 C470 1.523 . S
C470 C451 1.368 . S
C470 C464 1.368 . S
C470 C469 1.523 . S
C471 C455 1.429 . S
C471 C467 1.429 . S
C471 C472 1.523 . S
C472 C456 1.368 . S
C472 C468 1.368 . S
C472 C471 1.523 . S
H473 C448 0.950 . S
H474 C450 0.950 . S
H475 C451 0.949 . S
H476 C453 0.950 . S
H477 C455 0.950 . S
C478 C479 1.349 . S
C478 C480 1.327 . S
C478 H503 0.950 . S
C479 C478 1.349 . S
C479 C495 1.349 . S
C480 C478 1.327 . S
C480 C499 1.429 . S
C480 H504 0.950 . S
C481 C498 1.574 . S
C481 C500 1.368 . S
C481 H505 0.949 . S
H482 C486 0.949 . S
C483 C484 1.349 . S
C483 C485 1.327 . S
C483 H506 0.950 . S
C484 C483 1.349 . S
C484 C496 1.349 . S
C485 C483 1.327 . S
C485 C501 1.429 . S
C485 H507 0.950 . S
C486 H482 0.949 . S
C486 C494 1.574 . S
C486 C502 1.368 . S
H487 C495 0.950 . S
H488 C493 0.950 . S
H489 C494 0.949 . S
H490 C496 0.950 . S
H491 C497 0.950 . S
H492 C498 0.949 . S
C493 H488 0.950 . S
C493 C495 1.327 . S
C493 C499 1.429 . S
C494 C486 1.574 . S
C494 H489 0.949 . S
C494 C500 1.368 . S
C495 C479 1.349 . S
C495 H487 0.950 . S
C495 C493 1.327 . S
C496 C484 1.349 . S
C496 H490 0.950 . S
C496 C497 1.327 . S
C497 H491 0.950 . S
C497 C496 1.327 . S
C497 C501 1.429 . S
C498 C481 1.574 . S
C498 H492 0.949 . S
C498 C502 1.368 . S
C499 C480 1.429 . S
C499 C493 1.429 . S
C499 C500 1.523 . S
C500 C481 1.368 . S
C500 C494 1.368 . S
C500 C499 1.523 . S
C501 C485 1.429 . S
C501 C497 1.429 . S
C501 C502 1.523 . S
C502 C486 1.368 . S
C502 C498 1.368 . S
C502 C501 1.523 . S
H503 C478 0.950 . S
H504 C480 0.950 . S
H505 C481 0.949 . S
H506 C483 0.950 . S
H507 C485 0.950 . S
C508 C509 1.349 . S
C508 C510 1.327 . S
C508 H533 0.950 . S
C509 C508 1.349 . S
C509 C525 1.349 . S
C510 C508 1.327 . S
C510 C529 1.429 . S
C510 H534 0.950 . S
C511 C528 1.574 . S
C511 C530 1.368 . S
C511 H535 0.949 . S
H512 C516 0.949 . S
C513 C514 1.349 . S
C513 C515 1.327 . S
C513 H536 0.950 . S
C514 C513 1.349 . S
C514 C526 1.349 . S
C515 C513 1.327 . S
C515 C531 1.429 . S
C515 H537 0.950 . S
C516 H512 0.949 . S
C516 C524 1.574 . S
C516 C532 1.368 . S
H517 C525 0.950 . S
H518 C523 0.950 . S
H519 C524 0.949 . S
H520 C526 0.950 . S
H521 C527 0.950 . S
H522 C528 0.949 . S
C523 H518 0.950 . S
C523 C525 1.327 . S
C523 C529 1.429 . S
C524 C516 1.574 . S
C524 H519 0.949 . S
C524 C530 1.368 . S
C525 C509 1.349 . S
C525 H517 0.950 . S
C525 C523 1.327 . S
C526 C514 1.349 . S
C526 H520 0.950 . S
C526 C527 1.327 . S
C527 H521 0.950 . S
C527 C526 1.327 . S
C527 C531 1.429 . S
C528 C511 1.574 . S
C528 H522 0.949 . S
C528 C532 1.368 . S
C529 C510 1.429 . S
C529 C523 1.429 . S
C529 C530 1.523 . S
C530 C511 1.368 . S
C530 C524 1.368 . S
C530 C529 1.523 . S
C531 C515 1.429 . S
C531 C527 1.429 . S
C531 C532 1.523 . S
C532 C516 1.368 . S
C532 C528 1.368 . S
C532 C531 1.523 . S
H533 C508 0.950 . S
H534 C510 0.950 . S
H535 C511 0.949 . S
H536 C513 0.950 . S
H537 C515 0.950 . S
C538 C539 1.349 . S
C538 C540 1.327 . S
C538 H563 0.950 . S
C539 C538 1.349 . S
C539 C555 1.349 . S
C540 C538 1.327 . S
C540 C559 1.429 . S
C540 H564 0.950 . S
C541 C558 1.574 . S
C541 C560 1.368 . S
C541 H565 0.949 . S
H542 C546 0.949 . S
C543 C544 1.349 . S
C543 C545 1.327 . S
C543 H566 0.950 . S
C544 C543 1.349 . S
C544 C556 1.349 . S
C545 C543 1.327 . S
C545 C561 1.429 . S
C545 H567 0.950 . S
C546 H542 0.949 . S
C546 C554 1.574 . S
C546 C562 1.368 . S
H547 C555 0.950 . S
H548 C553 0.950 . S
H549 C554 0.949 . S
H550 C556 0.950 . S
H551 C557 0.950 . S
H552 C558 0.949 . S
C553 H548 0.950 . S
C553 C555 1.327 . S
C553 C559 1.429 . S
C554 C546 1.574 . S
C554 H549 0.949 . S
C554 C560 1.368 . S
C555 C539 1.349 . S
C555 H547 0.950 . S
C555 C553 1.327 . S
C556 C544 1.349 . S
C556 H550 0.950 . S
C556 C557 1.327 . S
C557 H551 0.950 . S
C557 C556 1.327 . S
C557 C561 1.429 . S
C558 C541 1.574 . S
C558 H552 0.949 . S
C558 C562 1.368 . S
C559 C540 1.429 . S
C559 C553 1.429 . S
C559 C560 1.523 . S
C560 C541 1.368 . S
C560 C554 1.368 . S
C560 C559 1.523 . S
C561 C545 1.429 . S
C561 C557 1.429 . S
C561 C562 1.523 . S
C562 C546 1.368 . S
C562 C558 1.368 . S
C562 C561 1.523 . S
H563 C538 0.950 . S
H564 C540 0.950 . S
H565 C541 0.949 . S
H566 C543 0.950 . S
H567 C545 0.950 . S
C568 C569 1.349 . S
C568 C570 1.327 . S
C568 H593 0.950 . S
C569 C568 1.349 . S
C569 C585 1.349 . S
C570 C568 1.327 . S
C570 C589 1.429 . S
C570 H594 0.950 . S
C571 C588 1.574 . S
C571 C590 1.368 . S
C571 H595 0.949 . S
H572 C576 0.949 . S
C573 C574 1.349 . S
C573 C575 1.327 . S
C573 H596 0.950 . S
C574 C573 1.349 . S
C574 C586 1.349 . S
C575 C573 1.327 . S
C575 C591 1.429 . S
C575 H597 0.950 . S
C576 H572 0.949 . S
C576 C584 1.574 . S
C576 C592 1.368 . S
H577 C585 0.950 . S
H578 C583 0.950 . S
H579 C584 0.949 . S
H580 C586 0.950 . S
H581 C587 0.950 . S
H582 C588 0.949 . S
C583 H578 0.950 . S
C583 C585 1.327 . S
C583 C589 1.429 . S
C584 C576 1.574 . S
C584 H579 0.949 . S
C584 C590 1.368 . S
C585 C569 1.349 . S
C585 H577 0.950 . S
C585 C583 1.327 . S
C586 C574 1.349 . S
C586 H580 0.950 . S
C586 C587 1.327 . S
C587 H581 0.950 . S
C587 C586 1.327 . S
C587 C591 1.429 . S
C588 C571 1.574 . S
C588 H582 0.949 . S
C588 C592 1.368 . S
C589 C570 1.429 . S
C589 C583 1.429 . S
C589 C590 1.523 . S
C590 C571 1.368 . S
C590 C584 1.368 . S
C590 C589 1.523 . S
C591 C575 1.429 . S
C591 C587 1.429 . S
C591 C592 1.523 . S
C592 C576 1.368 . S
C592 C588 1.368 . S
C592 C591 1.523 . S
H593 C568 0.950 . S
H594 C570 0.950 . S
H595 C571 0.949 . S
H596 C573 0.950 . S
H597 C575 0.950 . S
C598 C599 1.349 . S
C598 C600 1.327 . S
C598 H623 0.950 . S
C599 C598 1.349 . S
C599 C615 1.349 . S
C600 C598 1.327 . S
C600 C619 1.429 . S
C600 H624 0.950 . S
C601 C618 1.574 . S
C601 C620 1.368 . S
C601 H625 0.949 . S
H602 C606 0.949 . S
C603 C604 1.349 . S
C603 C605 1.327 . S
C603 H626 0.950 . S
C604 C603 1.349 . S
C604 C616 1.349 . S
C605 C603 1.327 . S
C605 C621 1.429 . S
C605 H627 0.950 . S
C606 H602 0.949 . S
C606 C614 1.574 . S
C606 C622 1.368 . S
H607 C615 0.950 . S
H608 C613 0.950 . S
H609 C614 0.949 . S
H610 C616 0.950 . S
H611 C617 0.950 . S
H612 C618 0.949 . S
C613 H608 0.950 . S
C613 C615 1.327 . S
C613 C619 1.429 . S
C614 C606 1.574 . S
C614 H609 0.949 . S
C614 C620 1.368 . S
C615 C599 1.349 . S
C615 H607 0.950 . S
C615 C613 1.327 . S
C616 C604 1.349 . S
C616 H610 0.950 . S
C616 C617 1.327 . S
C617 H611 0.950 . S
C617 C616 1.327 . S
C617 C621 1.429 . S
C618 C601 1.574 . S
C618 H612 0.949 . S
C618 C622 1.368 . S
C619 C600 1.429 . S
C619 C613 1.429 . S
C619 C620 1.523 . S
C620 C601 1.368 . S
C620 C614 1.368 . S
C620 C619 1.523 . S
C621 C605 1.429 . S
C621 C617 1.429 . S
C621 C622 1.523 . S
C622 C606 1.368 . S
C622 C618 1.368 . S
C622 C621 1.523 . S
H623 C598 0.950 . S
H624 C600 0.950 . S
H625 C601 0.949 . S
H626 C603 0.950 . S
H627 C605 0.950 . S
C628 C629 1.349 . S
C628 C630 1.327 . S
C628 H653 0.950 . S
C629 C628 1.349 . S
C629 C645 1.349 . S
C630 C628 1.327 . S
C630 C649 1.429 . S
C630 H654 0.950 . S
C631 C648 1.574 . S
C631 C650 1.368 . S
C631 H655 0.949 . S
H632 C636 0.949 . S
C633 C634 1.349 . S
C633 C635 1.327 . S
C633 H656 0.950 . S
C634 C633 1.349 . S
C634 C646 1.349 . S
C635 C633 1.327 . S
C635 C651 1.429 . S
C635 H657 0.950 . S
C636 H632 0.949 . S
C636 C644 1.574 . S
C636 C652 1.368 . S
H637 C645 0.950 . S
H638 C643 0.950 . S
H639 C644 0.949 . S
H640 C646 0.950 . S
H641 C647 0.950 . S
H642 C648 0.949 . S
C643 H638 0.950 . S
C643 C645 1.327 . S
C643 C649 1.429 . S
C644 C636 1.574 . S
C644 H639 0.949 . S
C644 C650 1.368 . S
C645 C629 1.349 . S
C645 H637 0.950 . S
C645 C643 1.327 . S
C646 C634 1.349 . S
C646 H640 0.950 . S
C646 C647 1.327 . S
C647 H641 0.950 . S
C647 C646 1.327 . S
C647 C651 1.429 . S
C648 C631 1.574 . S
C648 H642 0.949 . S
C648 C652 1.368 . S
C649 C630 1.429 . S
C649 C643 1.429 . S
C649 C650 1.523 . S
C650 C631 1.368 . S
C650 C644 1.368 . S
C650 C649 1.523 . S
C651 C635 1.429 . S
C651 C647 1.429 . S
C651 C652 1.523 . S
C652 C636 1.368 . S
C652 C648 1.368 . S
C652 C651 1.523 . S
H653 C628 0.950 . S
H654 C630 0.950 . S
H655 C631 0.949 . S
H656 C633 0.950 . S
H657 C635 0.950 . S
C658 C659 1.349 . S
C658 C660 1.327 . S
C658 H683 0.950 . S
C659 C658 1.349 . S
C659 C675 1.349 . S
C660 C658 1.327 . S
C660 C679 1.429 . S
C660 H684 0.950 . S
C661 C678 1.574 . S
C661 C680 1.368 . S
C661 H685 0.949 . S
H662 C666 0.949 . S
C663 C664 1.349 . S
C663 C665 1.327 . S
C663 H686 0.950 . S
C664 C663 1.349 . S
C664 C676 1.349 . S
C665 C663 1.327 . S
C665 C681 1.429 . S
C665 H687 0.950 . S
C666 H662 0.949 . S
C666 C674 1.574 . S
C666 C682 1.368 . S
H667 C675 0.950 . S
H668 C673 0.950 . S
H669 C674 0.949 . S
H670 C676 0.950 . S
H671 C677 0.950 . S
H672 C678 0.949 . S
C673 H668 0.950 . S
C673 C675 1.327 . S
C673 C679 1.429 . S
C674 C666 1.574 . S
C674 H669 0.949 . S
C674 C680 1.368 . S
C675 C659 1.349 . S
C675 H667 0.950 . S
C675 C673 1.327 . S
C676 C664 1.349 . S
C676 H670 0.950 . S
C676 C677 1.327 . S
C677 H671 0.950 . S
C677 C676 1.327 . S
C677 C681 1.429 . S
C678 C661 1.574 . S
C678 H672 0.949 . S
C678 C682 1.368 . S
C679 C660 1.429 . S
C679 C673 1.429 . S
C679 C680 1.523 . S
C680 C661 1.368 . S
C680 C674 1.368 . S
C680 C679 1.523 . S
C681 C665 1.429 . S
C681 C677 1.429 . S
C681 C682 1.523 . S
C682 C666 1.368 . S
C682 C678 1.368 . S
C682 C681 1.523 . S
H683 C658 0.950 . S
H684 C660 0.950 . S
H685 C661 0.949 . S
H686 C663 0.950 . S
H687 C665 0.950 . S
C688 C689 1.349 . S
C688 C690 1.327 . S
C688 H713 0.950 . S
C689 C688 1.349 . S
C689 C705 1.349 . S
C690 C688 1.327 . S
C690 C709 1.429 . S
C690 H714 0.950 . S
C691 C708 1.574 . S
C691 C710 1.368 . S
C691 H715 0.949 . S
H692 C696 0.949 . S
C693 C694 1.349 . S
C693 C695 1.327 . S
C693 H716 0.950 . S
C694 C693 1.349 . S
C694 C706 1.349 . S
C695 C693 1.327 . S
C695 C711 1.429 . S
C695 H717 0.950 . S
C696 H692 0.949 . S
C696 C704 1.574 . S
C696 C712 1.368 . S
H697 C705 0.950 . S
H698 C703 0.950 . S
H699 C704 0.949 . S
H700 C706 0.950 . S
H701 C707 0.950 . S
H702 C708 0.949 . S
C703 H698 0.950 . S
C703 C705 1.327 . S
C703 C709 1.429 . S
C704 C696 1.574 . S
C704 H699 0.949 . S
C704 C710 1.368 . S
C705 C689 1.349 . S
C705 H697 0.950 . S
C705 C703 1.327 . S
C706 C694 1.349 . S
C706 H700 0.950 . S
C706 C707 1.327 . S
C707 H701 0.950 . S
C707 C706 1.327 . S
C707 C711 1.429 . S
C708 C691 1.574 . S
C708 H702 0.949 . S
C708 C712 1.368 . S
C709 C690 1.429 . S
C709 C703 1.429 . S
C709 C710 1.523 . S
C710 C691 1.368 . S
C710 C704 1.368 . S
C710 C709 1.523 . S
C711 C695 1.429 . S
C711 C707 1.429 . S
C711 C712 1.523 . S
C712 C696 1.368 . S
C712 C708 1.368 . S
C712 C711 1.523 . S
H713 C688 0.950 . S
H714 C690 0.950 . S
H715 C691 0.949 . S
H716 C693 0.950 . S
H717 C695 0.950 . S
C718 C719 1.349 . S
C718 C720 1.327 . S
C718 H743 0.950 . S
C719 C718 1.349 . S
C719 C735 1.349 . S
C720 C718 1.327 . S
C720 C739 1.429 . S
C720 H744 0.950 . S
C721 C738 1.574 . S
C721 C740 1.368 . S
C721 H745 0.949 . S
H722 C726 0.949 . S
C723 C724 1.349 . S
C723 C725 1.327 . S
C723 H746 0.950 . S
C724 C723 1.349 . S
C724 C736 1.349 . S
C725 C723 1.327 . S
C725 C741 1.429 . S
C725 H747 0.950 . S
C726 H722 0.949 . S
C726 C734 1.574 . S
C726 C742 1.368 . S
H727 C735 0.950 . S
H728 C733 0.950 . S
H729 C734 0.949 . S
H730 C736 0.950 . S
H731 C737 0.950 . S
H732 C738 0.949 . S
C733 H728 0.950 . S
C733 C735 1.327 . S
C733 C739 1.429 . S
C734 C726 1.574 . S
C734 H729 0.949 . S
C734 C740 1.368 . S
C735 C719 1.349 . S
C735 H727 0.950 . S
C735 C733 1.327 . S
C736 C724 1.349 . S
C736 H730 0.950 . S
C736 C737 1.327 . S
C737 H731 0.950 . S
C737 C736 1.327 . S
C737 C741 1.429 . S
C738 C721 1.574 . S
C738 H732 0.949 . S
C738 C742 1.368 . S
C739 C720 1.429 . S
C739 C733 1.429 . S
C739 C740 1.523 . S
C740 C721 1.368 . S
C740 C734 1.368 . S
C740 C739 1.523 . S
C741 C725 1.429 . S
C741 C737 1.429 . S
C741 C742 1.523 . S
C742 C726 1.368 . S
C742 C738 1.368 . S
C742 C741 1.523 . S
H743 C718 0.950 . S
H744 C720 0.950 . S
H745 C721 0.949 . S
H746 C723 0.950 . S
H747 C725 0.950 . S
C748 C749 1.349 . S
C748 C750 1.327 . S
C748 H773 0.950 . S
C749 C748 1.349 . S
C749 C765 1.349 . S
C750 C748 1.327 . S
C750 C769 1.429 . S
C750 H774 0.950 . S
C751 C768 1.574 . S
C751 C770 1.368 . S
C751 H775 0.949 . S
H752 C756 0.949 . S
C753 C754 1.349 . S
C753 C755 1.327 . S
C753 H776 0.950 . S
C754 C753 1.349 . S
C754 C766 1.349 . S
C755 C753 1.327 . S
C755 C771 1.429 . S
C755 H777 0.950 . S
C756 H752 0.949 . S
C756 C764 1.574 . S
C756 C772 1.368 . S
H757 C765 0.950 . S
H758 C763 0.950 . S
H759 C764 0.949 . S
H760 C766 0.950 . S
H761 C767 0.950 . S
H762 C768 0.949 . S
C763 H758 0.950 . S
C763 C765 1.327 . S
C763 C769 1.429 . S
C764 C756 1.574 . S
C764 H759 0.949 . S
C764 C770 1.368 . S
C765 C749 1.349 . S
C765 H757 0.950 . S
C765 C763 1.327 . S
C766 C754 1.349 . S
C766 H760 0.950 . S
C766 C767 1.327 . S
C767 H761 0.950 . S
C767 C766 1.327 . S
C767 C771 1.429 . S
C768 C751 1.574 . S
C768 H762 0.949 . S
C768 C772 1.368 . S
C769 C750 1.429 . S
C769 C763 1.429 . S
C769 C770 1.523 . S
C770 C751 1.368 . S
C770 C764 1.368 . S
C770 C769 1.523 . S
C771 C755 1.429 . S
C771 C767 1.429 . S
C771 C772 1.523 . S
C772 C756 1.368 . S
C772 C768 1.368 . S
C772 C771 1.523 . S
H773 C748 0.950 . S
H774 C750 0.950 . S
H775 C751 0.949 . S
H776 C753 0.950 . S
H777 C755 0.950 . S
C778 C779 1.349 . S
C778 C780 1.327 . S
C778 H803 0.950 . S
C779 C778 1.349 . S
C779 C795 1.349 . S
C780 C778 1.327 . S
C780 C799 1.429 . S
C780 H804 0.950 . S
C781 C798 1.574 . S
C781 C800 1.368 . S
C781 H805 0.949 . S
H782 C786 0.949 . S
C783 C784 1.349 . S
C783 C785 1.327 . S
C783 H806 0.950 . S
C784 C783 1.349 . S
C784 C796 1.349 . S
C785 C783 1.327 . S
C785 C801 1.429 . S
C785 H807 0.950 . S
C786 H782 0.949 . S
C786 C794 1.574 . S
C786 C802 1.368 . S
H787 C795 0.950 . S
H788 C793 0.950 . S
H789 C794 0.949 . S
H790 C796 0.950 . S
H791 C797 0.950 . S
H792 C798 0.949 . S
C793 H788 0.950 . S
C793 C795 1.327 . S
C793 C799 1.429 . S
C794 C786 1.574 . S
C794 H789 0.949 . S
C794 C800 1.368 . S
C795 C779 1.349 . S
C795 H787 0.950 . S
C795 C793 1.327 . S
C796 C784 1.349 . S
C796 H790 0.950 . S
C796 C797 1.327 . S
C797 H791 0.950 . S
C797 C796 1.327 . S
C797 C801 1.429 . S
C798 C781 1.574 . S
C798 H792 0.949 . S
C798 C802 1.368 . S
C799 C780 1.429 . S
C799 C793 1.429 . S
C799 C800 1.523 . S
C800 C781 1.368 . S
C800 C794 1.368 . S
C800 C799 1.523 . S
C801 C785 1.429 . S
C801 C797 1.429 . S
C801 C802 1.523 . S
C802 C786 1.368 . S
C802 C798 1.368 . S
C802 C801 1.523 . S
H803 C778 0.950 . S
H804 C780 0.950 . S
H805 C781 0.949 . S
H806 C783 0.950 . S
H807 C785 0.950 . S
C808 C809 1.349 . S
C808 C810 1.327 . S
C808 H833 0.950 . S
C809 C808 1.349 . S
C809 C825 1.349 . S
C810 C808 1.327 . S
C810 C829 1.429 . S
C810 H834 0.950 . S
C811 C828 1.574 . S
C811 C830 1.368 . S
C811 H835 0.949 . S
H812 C816 0.949 . S
C813 C814 1.349 . S
C813 C815 1.327 . S
C813 H836 0.950 . S
C814 C813 1.349 . S
C814 C826 1.349 . S
C815 C813 1.327 . S
C815 C831 1.429 . S
C815 H837 0.950 . S
C816 H812 0.949 . S
C816 C824 1.574 . S
C816 C832 1.368 . S
H817 C825 0.950 . S
H818 C823 0.950 . S
H819 C824 0.949 . S
H820 C826 0.950 . S
H821 C827 0.950 . S
H822 C828 0.949 . S
C823 H818 0.950 . S
C823 C825 1.327 . S
C823 C829 1.429 . S
C824 C816 1.574 . S
C824 H819 0.949 . S
C824 C830 1.368 . S
C825 C809 1.349 . S
C825 H817 0.950 . S
C825 C823 1.327 . S
C826 C814 1.349 . S
C826 H820 0.950 . S
C826 C827 1.327 . S
C827 H821 0.950 . S
C827 C826 1.327 . S
C827 C831 1.429 . S
C828 C811 1.574 . S
C828 H822 0.949 . S
C828 C832 1.368 . S
C829 C810 1.429 . S
C829 C823 1.429 . S
C829 C830 1.523 . S
C830 C811 1.368 . S
C830 C824 1.368 . S
C830 C829 1.523 . S
C831 C815 1.429 . S
C831 C827 1.429 . S
C831 C832 1.523 . S
C832 C816 1.368 . S
C832 C828 1.368 . S
C832 C831 1.523 . S
H833 C808 0.950 . S
H834 C810 0.950 . S
H835 C811 0.949 . S
H836 C813 0.950 . S
H837 C815 0.950 . S
C838 C839 1.349 . S
C838 C840 1.327 . S
C838 H863 0.950 . S
C839 C838 1.349 . S
C839 C855 1.349 . S
C840 C838 1.327 . S
C840 C859 1.429 . S
C840 H864 0.950 . S
C841 C858 1.574 . S
C841 C860 1.368 . S
C841 H865 0.949 . S
H842 C846 0.949 . S
C843 C844 1.349 . S
C843 C845 1.327 . S
C843 H866 0.950 . S
C844 C843 1.349 . S
C844 C856 1.349 . S
C845 C843 1.327 . S
C845 C861 1.429 . S
C845 H867 0.950 . S
C846 H842 0.949 . S
C846 C854 1.574 . S
C846 C862 1.368 . S
H847 C855 0.950 . S
H848 C853 0.950 . S
H849 C854 0.949 . S
H850 C856 0.950 . S
H851 C857 0.950 . S
H852 C858 0.949 . S
C853 H848 0.950 . S
C853 C855 1.327 . S
C853 C859 1.429 . S
C854 C846 1.574 . S
C854 H849 0.949 . S
C854 C860 1.368 . S
C855 C839 1.349 . S
C855 H847 0.950 . S
C855 C853 1.327 . S
C856 C844 1.349 . S
C856 H850 0.950 . S
C856 C857 1.327 . S
C857 H851 0.950 . S
C857 C856 1.327 . S
C857 C861 1.429 . S
C858 C841 1.574 . S
C858 H852 0.949 . S
C858 C862 1.368 . S
C859 C840 1.429 . S
C859 C853 1.429 . S
C859 C860 1.523 . S
C860 C841 1.368 . S
C860 C854 1.368 . S
C860 C859 1.523 . S
C861 C845 1.429 . S
C861 C857 1.429 . S
C861 C862 1.523 . S
C862 C846 1.368 . S
C862 C858 1.368 . S
C862 C861 1.523 . S
H863 C838 0.950 . S
H864 C840 0.950 . S
H865 C841 0.949 . S
H866 C843 0.950 . S
H867 C845 0.950 . S
C868 C869 1.349 . S
C868 C870 1.327 . S
C868 H893 0.950 . S
C869 C868 1.349 . S
C869 C885 1.349 . S
C870 C868 1.327 . S
C870 C889 1.429 . S
C870 H894 0.950 . S
C871 C888 1.574 . S
C871 C890 1.368 . S
C871 H895 0.949 . S
H872 C876 0.949 . S
C873 C874 1.349 . S
C873 C875 1.327 . S
C873 H896 0.950 . S
C874 C873 1.349 . S
C874 C886 1.349 . S
C875 C873 1.327 . S
C875 C891 1.429 . S
C875 H897 0.950 . S
C876 H872 0.949 . S
C876 C884 1.574 . S
C876 C892 1.368 . S
H877 C885 0.950 . S
H878 C883 0.950 . S
H879 C884 0.949 . S
H880 C886 0.950 . S
H881 C887 0.950 . S
H882 C888 0.949 . S
C883 H878 0.950 . S
C883 C885 1.327 . S
C883 C889 1.429 . S
C884 C876 1.574 . S
C884 H879 0.949 . S
C884 C890 1.368 . S
C885 C869 1.349 . S
C885 H877 0.950 . S
C885 C883 1.327 . S
C886 C874 1.349 . S
C886 H880 0.950 . S
C886 C887 1.327 . S
C887 H881 0.950 . S
C887 C886 1.327 . S
C887 C891 1.429 . S
C888 C871 1.574 . S
C888 H882 0.949 . S
C888 C892 1.368 . S
C889 C870 1.429 . S
C889 C883 1.429 . S
C889 C890 1.523 . S
C890 C871 1.368 . S
C890 C884 1.368 . S
C890 C889 1.523 . S
C891 C875 1.429 . S
C891 C887 1.429 . S
C891 C892 1.523 . S
C892 C876 1.368 . S
C892 C888 1.368 . S
C892 C891 1.523 . S
H893 C868 0.950 . S
H894 C870 0.950 . S
H895 C871 0.949 . S
H896 C873 0.950 . S
H897 C875 0.950 . S
C898 C899 1.349 . S
C898 C900 1.327 . S
C898 H923 0.950 . S
C899 C898 1.349 . S
C899 C915 1.349 . S
C900 C898 1.327 . S
C900 C919 1.429 . S
C900 H924 0.950 . S
C901 C918 1.574 . S
C901 C920 1.368 . S
C901 H925 0.949 . S
H902 C906 0.949 . S
C903 C904 1.349 . S
C903 C905 1.327 . S
C903 H926 0.950 . S
C904 C903 1.349 . S
C904 C916 1.349 . S
C905 C903 1.327 . S
C905 C921 1.429 . S
C905 H927 0.950 . S
C906 H902 0.949 . S
C906 C914 1.574 . S
C906 C922 1.368 . S
H907 C915 0.950 . S
H908 C913 0.950 . S
H909 C914 0.949 . S
H910 C916 0.950 . S
H911 C917 0.950 . S
H912 C918 0.949 . S
C913 H908 0.950 . S
C913 C915 1.327 . S
C913 C919 1.429 . S
C914 C906 1.574 . S
C914 H909 0.949 . S
C914 C920 1.368 . S
C915 C899 1.349 . S
C915 H907 0.950 . S
C915 C913 1.327 . S
C916 C904 1.349 . S
C916 H910 0.950 . S
C916 C917 1.327 . S
C917 H911 0.950 . S
C917 C916 1.327 . S
C917 C921 1.429 . S
C918 C901 1.574 . S
C918 H912 0.949 . S
C918 C922 1.368 . S
C919 C900 1.429 . S
C919 C913 1.429 . S
C919 C920 1.523 . S
C920 C901 1.368 . S
C920 C914 1.368 . S
C920 C919 1.523 . S
C921 C905 1.429 . S
C921 C917 1.429 . S
C921 C922 1.523 . S
C922 C906 1.368 . S
C922 C918 1.368 . S
C922 C921 1.523 . S
H923 C898 0.950 . S
H924 C900 0.950 . S
H925 C901 0.949 . S
H926 C903 0.950 . S
H927 C905 0.950 . S
C928 C929 1.349 . S
C928 C930 1.327 . S
C928 H953 0.950 . S
C929 C928 1.349 . S
C929 C945 1.349 . S
C930 C928 1.327 . S
C930 C949 1.429 . S
C930 H954 0.950 . S
C931 C948 1.574 . S
C931 C950 1.346 1_565 S
C931 H955 0.949 . S
H932 C936 0.949 . S
C933 C934 1.349 . S
C933 C935 1.327 . S
C933 H956 0.950 . S
C934 C933 1.349 . S
C934 C946 1.349 . S
C935 C933 1.327 . S
C935 C951 1.429 . S
C935 H957 0.950 . S
C936 H932 0.949 . S
C936 C944 1.574 1_565 S
C936 C952 1.368 . S
H937 C945 0.950 . S
H938 C943 0.950 . S
H939 C944 0.949 . S
H940 C946 0.950 . S
H941 C947 0.950 . S
H942 C948 0.949 . S
C943 H938 0.950 . S
C943 C945 1.327 . S
C943 C949 1.429 . S
C944 C936 1.574 1_545 S
C944 H939 0.949 . S
C944 C950 1.372 . S
C945 C929 1.349 . S
C945 H937 0.950 . S
C945 C943 1.327 . S
C946 C934 1.349 . S
C946 H940 0.950 . S
C946 C947 1.327 . S
C947 H941 0.950 . S
C947 C946 1.327 . S
C947 C951 1.429 . S
C948 C931 1.574 . S
C948 H942 0.949 . S
C948 C952 1.368 . S
C949 C930 1.429 . S
C949 C943 1.429 . S
C949 C950 1.548 . S
C950 C931 1.346 1_545 S
C950 C944 1.372 . S
C950 C949 1.548 . S
C951 C935 1.429 . S
C951 C947 1.429 . S
C951 C952 1.523 . S
C952 C936 1.368 . S
C952 C948 1.368 . S
C952 C951 1.523 . S
H953 C928 0.950 . S
H954 C930 0.950 . S
H955 C931 0.949 . S
H956 C933 0.950 . S
H957 C935 0.950 . S
C958 C959 1.349 . S
C958 C960 1.327 . S
C958 H983 0.950 . S
C959 C958 1.349 . S
C959 C975 1.349 . S
C960 C958 1.327 . S
C960 C979 1.429 . S
C960 H984 0.950 . S
C961 C978 1.574 . S
C961 C980 1.368 . S
C961 H985 0.949 . S
H962 C966 0.949 . S
C963 C964 1.349 . S
C963 C965 1.327 . S
C963 H986 0.950 . S
C964 C963 1.349 . S
C964 C976 1.349 . S
C965 C963 1.327 . S
C965 C981 1.429 . S
C965 H987 0.950 . S
C966 H962 0.949 . S
C966 C974 1.574 . S
C966 C982 1.368 . S
H967 C975 0.950 . S
H968 C973 0.950 . S
H969 C974 0.949 . S
H970 C976 0.950 . S
H971 C977 0.950 . S
H972 C978 0.949 . S
C973 H968 0.950 . S
C973 C975 1.327 . S
C973 C979 1.429 . S
C974 C966 1.574 . S
C974 H969 0.949 . S
C974 C980 1.368 . S
C975 C959 1.349 . S
C975 H967 0.950 . S
C975 C973 1.327 . S
C976 C964 1.349 . S
C976 H970 0.950 . S
C976 C977 1.327 . S
C977 H971 0.950 . S
C977 C976 1.327 . S
C977 C981 1.429 . S
C978 C961 1.574 . S
C978 H972 0.949 . S
C978 C982 1.368 . S
C979 C960 1.429 . S
C979 C973 1.429 . S
C979 C980 1.523 . S
C980 C961 1.368 . S
C980 C974 1.368 . S
C980 C979 1.523 . S
C981 C965 1.429 . S
C981 C977 1.429 . S
C981 C982 1.523 . S
C982 C966 1.368 . S
C982 C978 1.368 . S
C982 C981 1.523 . S
H983 C958 0.950 . S
H984 C960 0.950 . S
H985 C961 0.949 . S
H986 C963 0.950 . S
H987 C965 0.950 . S
C988 C989 1.349 . S
C988 C990 1.327 . S
C988 H1013 0.950 . S
C989 C988 1.349 . S
C989 C1005 1.349 . S
C990 C988 1.327 . S
C990 C1009 1.429 . S
C990 H1014 0.950 . S
C991 C1008 1.574 . S
C991 C1010 1.368 . S
C991 H1015 0.949 . S
H992 C996 0.949 . S
C993 C994 1.349 . S
C993 C995 1.327 . S
C993 H1016 0.950 . S
C994 C993 1.349 . S
C994 C1006 1.349 . S
C995 C993 1.327 . S
C995 C1011 1.429 . S
C995 H1017 0.950 . S
C996 H992 0.949 . S
C996 C1004 1.574 1_655 S
C996 C1012 1.372 . S
H997 C1005 0.950 . S
H998 C1003 0.950 . S
H999 C1004 0.949 . S
H1000 C1006 0.950 . S
H1001 C1007 0.950 . S
H1002 C1008 0.949 . S
C1003 H998 0.950 . S
C1003 C1005 1.327 . S
C1003 C1009 1.429 . S
C1004 C996 1.574 1_455 S
C1004 H999 0.949 . S
C1004 C1010 1.368 . S
C1005 C989 1.349 . S
C1005 H997 0.950 . S
C1005 C1003 1.327 . S
C1006 C994 1.349 . S
C1006 H1000 0.950 . S
C1006 C1007 1.327 . S
C1007 H1001 0.950 . S
C1007 C1006 1.327 . S
C1007 C1011 1.429 . S
C1008 C991 1.574 . S
C1008 H1002 0.949 . S
C1008 C1012 1.346 1_455 S
C1009 C990 1.429 . S
C1009 C1003 1.429 . S
C1009 C1010 1.523 . S
C1010 C991 1.368 . S
C1010 C1004 1.368 . S
C1010 C1009 1.523 . S
C1011 C995 1.429 . S
C1011 C1007 1.429 . S
C1011 C1012 1.548 . S
C1012 C996 1.372 . S
C1012 C1008 1.346 1_655 S
C1012 C1011 1.548 . S
H1013 C988 0.950 . S
H1014 C990 0.950 . S
H1015 C991 0.949 . S
H1016 C993 0.950 . S
H1017 C995 0.950 . S
C1018 C1019 1.349 . S
C1018 C1020 1.327 . S
C1018 H1043 0.950 . S
C1019 C1018 1.349 . S
C1019 C1035 1.349 . S
C1020 C1018 1.327 . S
C1020 C1039 1.429 . S
C1020 H1044 0.950 . S
C1021 C1038 1.574 . S
C1021 C1040 1.346 1_545 S
C1021 H1045 0.949 . S
H1022 C1026 0.949 . S
C1023 C1024 1.349 . S
C1023 C1025 1.327 . S
C1023 H1046 0.950 . S
C1024 C1023 1.349 . S
C1024 C1036 1.349 . S
C1025 C1023 1.327 . S
C1025 C1041 1.429 . S
C1025 H1047 0.950 . S
C1026 H1022 0.949 . S
C1026 C1034 1.574 1_445 S
C1026 C1042 1.372 . S
H1027 C1035 0.950 . S
H1028 C1033 0.950 . S
H1029 C1034 0.949 . S
H1030 C1036 0.950 . S
H1031 C1037 0.950 . S
H1032 C1038 0.949 . S
C1033 H1028 0.950 . S
C1033 C1035 1.327 . S
C1033 C1039 1.429 . S
C1034 C1026 1.574 1_665 S
C1034 H1029 0.949 . S
C1034 C1040 1.372 . S
C1035 C1019 1.349 . S
C1035 H1027 0.950 . S
C1035 C1033 1.327 . S
C1036 C1024 1.349 . S
C1036 H1030 0.950 . S
C1036 C1037 1.327 . S
C1037 H1031 0.950 . S
C1037 C1036 1.327 . S
C1037 C1041 1.429 . S
C1038 C1021 1.574 . S
C1038 H1032 0.949 . S
C1038 C1042 1.346 1_655 S
C1039 C1020 1.429 . S
C1039 C1033 1.429 . S
C1039 C1040 1.548 . S
C1040 C1021 1.346 1_565 S
C1040 C1034 1.372 . S
C1040 C1039 1.548 . S
C1041 C1025 1.429 . S
C1041 C1037 1.429 . S
C1041 C1042 1.548 . S
C1042 C1026 1.372 . S
C1042 C1038 1.346 1_455 S
C1042 C1041 1.548 . S
H1043 C1018 0.950 . S
H1044 C1020 0.950 . S
H1045 C1021 0.949 . S
H1046 C1023 0.950 . S
H1047 C1025 0.950 . S
C1048 C1049 1.349 . S
C1048 C1050 1.327 . S
C1048 H1073 0.950 . S
C1049 C1048 1.349 . S
C1049 C1065 1.349 . S
C1050 C1048 1.327 . S
C1050 C1069 1.429 . S
C1050 H1074 0.950 . S
C1051 C1068 1.574 . S
C1051 C1070 1.368 . S
C1051 H1075 0.949 . S
H1052 C1056 0.949 . S
C1053 C1054 1.349 . S
C1053 C1055 1.327 . S
C1053 H1076 0.950 . S
C1054 C1053 1.349 . S
C1054 C1066 1.349 . S
C1055 C1053 1.327 . S
C1055 C1071 1.429 . S
C1055 H1077 0.950 . S
C1056 H1052 0.949 . S
C1056 C1064 1.574 . S
C1056 C1072 1.368 . S
H1057 C1065 0.950 . S
H1058 C1063 0.950 . S
H1059 C1064 0.949 . S
H1060 C1066 0.950 . S
H1061 C1067 0.950 . S
H1062 C1068 0.949 . S
C1063 H1058 0.950 . S
C1063 C1065 1.327 . S
C1063 C1069 1.429 . S
C1064 C1056 1.574 . S
C1064 H1059 0.949 . S
C1064 C1070 1.368 . S
C1065 C1049 1.349 . S
C1065 H1057 0.950 . S
C1065 C1063 1.327 . S
C1066 C1054 1.349 . S
C1066 H1060 0.950 . S
C1066 C1067 1.327 . S
C1067 H1061 0.950 . S
C1067 C1066 1.327 . S
C1067 C1071 1.429 . S
C1068 C1051 1.574 . S
C1068 H1062 0.949 . S
C1068 C1072 1.368 . S
C1069 C1050 1.429 . S
C1069 C1063 1.429 . S
C1069 C1070 1.523 . S
C1070 C1051 1.368 . S
C1070 C1064 1.368 . S
C1070 C1069 1.523 . S
C1071 C1055 1.429 . S
C1071 C1067 1.429 . S
C1071 C1072 1.523 . S
C1072 C1056 1.368 . S
C1072 C1068 1.368 . S
C1072 C1071 1.523 . S
H1073 C1048 0.950 . S
H1074 C1050 0.950 . S
H1075 C1051 0.949 . S
H1076 C1053 0.950 . S
H1077 C1055 0.950 . S
C1078 C1079 1.349 . S
C1078 C1080 1.327 . S
C1078 H1103 0.950 . S
C1079 C1078 1.349 . S
C1079 C1095 1.349 . S
C1080 C1078 1.327 . S
C1080 C1099 1.429 . S
C1080 H1104 0.950 . S
C1081 C1098 1.574 1_455 S
C1081 C1100 1.372 . S
C1081 H1105 0.949 . S
H1082 C1086 0.949 . S
C1083 C1084 1.349 . S
C1083 C1085 1.327 . S
C1083 H1106 0.950 . S
C1084 C1083 1.349 . S
C1084 C1096 1.349 . S
C1085 C1083 1.327 . S
C1085 C1101 1.429 . S
C1085 H1107 0.950 . S
C1086 H1082 0.949 . S
C1086 C1094 1.574 . S
C1086 C1102 1.368 . S
H1087 C1095 0.950 . S
H1088 C1093 0.950 . S
H1089 C1094 0.949 . S
H1090 C1096 0.950 . S
H1091 C1097 0.950 . S
H1092 C1098 0.949 . S
C1093 H1088 0.950 . S
C1093 C1095 1.327 . S
C1093 C1099 1.429 . S
C1094 C1086 1.574 . S
C1094 H1089 0.949 . S
C1094 C1100 1.346 1_655 S
C1095 C1079 1.349 . S
C1095 H1087 0.950 . S
C1095 C1093 1.327 . S
C1096 C1084 1.349 . S
C1096 H1090 0.950 . S
C1096 C1097 1.327 . S
C1097 H1091 0.950 . S
C1097 C1096 1.327 . S
C1097 C1101 1.429 . S
C1098 C1081 1.574 1_655 S
C1098 H1092 0.949 . S
C1098 C1102 1.368 . S
C1099 C1080 1.429 . S
C1099 C1093 1.429 . S
C1099 C1100 1.548 . S
C1100 C1081 1.372 . S
C1100 C1094 1.346 1_455 S
C1100 C1099 1.548 . S
C1101 C1085 1.429 . S
C1101 C1097 1.429 . S
C1101 C1102 1.523 . S
C1102 C1086 1.368 . S
C1102 C1098 1.368 . S
C1102 C1101 1.523 . S
H1103 C1078 0.950 . S
H1104 C1080 0.950 . S
H1105 C1081 0.949 . S
H1106 C1083 0.950 . S
H1107 C1085 0.950 . S
C1108 C1109 1.349 . S
C1108 C1110 1.327 . S
C1108 H1133 0.950 . S
C1109 C1108 1.349 . S
C1109 C1125 1.349 . S
C1110 C1108 1.327 . S
C1110 C1129 1.429 . S
C1110 H1134 0.950 . S
C1111 C1128 1.574 . S
C1111 C1130 1.346 1_455 S
C1111 H1135 0.949 . S
H1112 C1116 0.949 . S
C1113 C1114 1.349 . S
C1113 C1115 1.327 . S
C1113 H1136 0.950 . S
C1114 C1113 1.349 . S
C1114 C1126 1.349 . S
C1115 C1113 1.327 . S
C1115 C1131 1.429 . S
C1115 H1137 0.950 . S
C1116 H1112 0.949 . S
C1116 C1124 1.574 1_445 S
C1116 C1132 1.372 . S
H1117 C1125 0.950 . S
H1118 C1123 0.950 . S
H1119 C1124 0.949 . S
H1120 C1126 0.950 . S
H1121 C1127 0.950 . S
H1122 C1128 0.949 . S
C1123 H1118 0.950 . S
C1123 C1125 1.327 . S
C1123 C1129 1.429 . S
C1124 C1116 1.574 1_665 S
C1124 H1119 0.949 . S
C1124 C1130 1.372 . S
C1125 C1109 1.349 . S
C1125 H1117 0.950 . S
C1125 C1123 1.327 . S
C1126 C1114 1.349 . S
C1126 H1120 0.950 . S
C1126 C1127 1.327 . S
C1127 H1121 0.950 . S
C1127 C1126 1.327 . S
C1127 C1131 1.429 . S
C1128 C1111 1.574 . S
C1128 H1122 0.949 . S
C1128 C1132 1.346 1_565 S
C1129 C1110 1.429 . S
C1129 C1123 1.429 . S
C1129 C1130 1.548 . S
C1130 C1111 1.346 1_655 S
C1130 C1124 1.372 . S
C1130 C1129 1.548 . S
C1131 C1115 1.429 . S
C1131 C1127 1.429 . S
C1131 C1132 1.548 . S
C1132 C1116 1.372 . S
C1132 C1128 1.346 1_545 S
C1132 C1131 1.548 . S
H1133 C1108 0.950 . S
H1134 C1110 0.950 . S
H1135 C1111 0.949 . S
H1136 C1113 0.950 . S
H1137 C1115 0.950 . S
C1138 C1139 1.349 . S
C1138 C1140 1.327 . S
C1138 H1163 0.950 . S
C1139 C1138 1.349 . S
C1139 C1155 1.349 . S
C1140 C1138 1.327 . S
C1140 C1159 1.429 . S
C1140 H1164 0.950 . S
C1141 C1158 1.574 . S
C1141 C1160 1.346 1_545 S
C1141 H1165 0.949 . S
H1142 C1146 0.949 . S
C1143 C1144 1.349 . S
C1143 C1145 1.327 . S
C1143 H1166 0.950 . S
C1144 C1143 1.349 . S
C1144 C1156 1.349 . S
C1145 C1143 1.327 . S
C1145 C1161 1.429 . S
C1145 H1167 0.950 . S
C1146 H1142 0.949 . S
C1146 C1154 1.574 1_545 S
C1146 C1162 1.368 . S
H1147 C1155 0.950 . S
H1148 C1153 0.950 . S
H1149 C1154 0.949 . S
H1150 C1156 0.950 . S
H1151 C1157 0.950 . S
H1152 C1158 0.949 . S
C1153 H1148 0.950 . S
C1153 C1155 1.327 . S
C1153 C1159 1.429 . S
C1154 C1146 1.574 1_565 S
C1154 H1149 0.949 . S
C1154 C1160 1.372 . S
C1155 C1139 1.349 . S
C1155 H1147 0.950 . S
C1155 C1153 1.327 . S
C1156 C1144 1.349 . S
C1156 H1150 0.950 . S
C1156 C1157 1.327 . S
C1157 H1151 0.950 . S
C1157 C1156 1.327 . S
C1157 C1161 1.429 . S
C1158 C1141 1.574 . S
C1158 H1152 0.949 . S
C1158 C1162 1.368 . S
C1159 C1140 1.429 . S
C1159 C1153 1.429 . S
C1159 C1160 1.548 . S
C1160 C1141 1.346 1_565 S
C1160 C1154 1.372 . S
C1160 C1159 1.548 . S
C1161 C1145 1.429 . S
C1161 C1157 1.429 . S
C1161 C1162 1.523 . S
C1162 C1146 1.368 . S
C1162 C1158 1.368 . S
C1162 C1161 1.523 . S
H1163 C1138 0.950 . S
H1164 C1140 0.950 . S
H1165 C1141 0.949 . S
H1166 C1143 0.950 . S
H1167 C1145 0.950 . S
C209 C95 1.427 . S
C214 C10 1.427 . S
C239 C56 1.427 . S
C244 C17 1.427 . S
C269 C75 1.427 . S
C274 C30 1.427 . S
C299 C49 1.427 . S
C304 C88 1.427 . S
C329 C205 1.427 . S
C334 C108 1.427 . S
C359 C166 1.427 . S
C364 C127 1.427 . S
C389 C140 1.427 . S
C394 C173 1.427 . S
C419 C153 1.427 . S
C424 C192 1.427 . S
C449 C29 1.014 . S
C454 C5 1.014 . S
C479 C16 1.014 . S
C484 C44 1.014 . S
C509 C55 1.014 . S
C514 C83 1.014 . S
C539 C94 1.014 . S
C544 C70 1.014 . S
C569 C107 1.014 . S
C574 C135 1.014 . S
C599 C122 1.014 . S
C604 C148 1.014 . S
C629 C187 1.014 . S
C634 C161 1.014 . S
C659 C172 1.014 . S
C664 C200 1.014 . S
C689 C81 1.266 . S
C694 C3 1.266 . S
C719 C18 1.266 . S
C724 C96 1.266 . S
C749 C31 1.266 . S
C754 C57 1.266 . S
C779 C42 1.266 . S
C784 C68 1.266 . S
C809 C109 1.266 . S
C814 C185 1.266 . S
C839 C120 1.266 . S
C844 C198 1.266 . S
C869 C133 1.266 . S
C874 C159 1.266 . S
C899 C146 1.266 . S
C904 C174 1.266 . S
C929 C4 1.217 . S
C934 C199 1.217 . S
C959 C160 1.217 . S
C964 C23 1.217 . S
C989 C36 1.217 . S
C994 C179 1.217 . S
C1019 C186 1.217 . S
C1024 C43 1.217 . S
C1049 C121 1.217 . S
C1054 C62 1.217 . S
C1079 C69 1.217 . S
C1084 C134 1.217 . S
C1109 C147 1.217 . S
C1114 C82 1.217 . S
C1139 C114 1.217 . S
C1144 C101 1.217 . S
