# Generated by pormake.
# Topology wne, (6)-cn, num edge types: 1
# Building blocks:
#     Node 0, Type 0, BuildingBlock: CIFDUS_clean_sbu_1, # of connection points: 6
#     Node 1, Type 0, BuildingBlock: CIFDUS_clean_sbu_1, # of connection points: 6
#     Node 2, Type 0, BuildingBlock: CIFDUS_clean_sbu_1, # of connection points: 6
#     Node 3, Type 0, BuildingBlock: CIFDUS_clean_sbu_1, # of connection points: 6
#     Node 4, Type 0, BuildingBlock: CIFDUS_clean_sbu_1, # of connection points: 6
#     Node 5, Type 0, BuildingBlock: CIFDUS_clean_sbu_1, # of connection points: 6
#     Node 6, Type 0, BuildingBlock: CIFDUS_clean_sbu_1, # of connection points: 6
#     Node 7, Type 0, BuildingBlock: CIFDUS_clean_sbu_1, # of connection points: 6
#     Node 8, Type 0, BuildingBlock: CIFDUS_clean_sbu_1, # of connection points: 6
#     Node 9, Type 0, BuildingBlock: CIFDUS_clean_sbu_1, # of connection points: 6
#     Node 10, Type 0, BuildingBlock: CIFDUS_clean_sbu_1, # of connection points: 6
#     Node 11, Type 0, BuildingBlock: CIFDUS_clean_sbu_1, # of connection points: 6
#     Node 12, Type 0, BuildingBlock: CIFDUS_clean_sbu_1, # of connection points: 6
#     Node 13, Type 0, BuildingBlock: CIFDUS_clean_sbu_1, # of connection points: 6
#     Node 14, Type 0, BuildingBlock: CIFDUS_clean_sbu_1, # of connection points: 6
#     Node 15, Type 0, BuildingBlock: CIFDUS_clean_sbu_1, # of connection points: 6
#     Node 16, Type 0, BuildingBlock: CIFDUS_clean_sbu_1, # of connection points: 6
#     Node 17, Type 0, BuildingBlock: CIFDUS_clean_sbu_1, # of connection points: 6
#     Node 18, Type 0, BuildingBlock: CIFDUS_clean_sbu_1, # of connection points: 6
#     Node 19, Type 0, BuildingBlock: CIFDUS_clean_sbu_1, # of connection points: 6
#     Node 20, Type 0, BuildingBlock: CIFDUS_clean_sbu_1, # of connection points: 6
#     Node 21, Type 0, BuildingBlock: CIFDUS_clean_sbu_1, # of connection points: 6
#     Node 22, Type 0, BuildingBlock: CIFDUS_clean_sbu_1, # of connection points: 6
#     Node 23, Type 0, BuildingBlock: CIFDUS_clean_sbu_1, # of connection points: 6
#     Node 24, Type 0, BuildingBlock: CIFDUS_clean_sbu_1, # of connection points: 6
#     Node 25, Type 0, BuildingBlock: CIFDUS_clean_sbu_1, # of connection points: 6
#     Node 26, Type 0, BuildingBlock: CIFDUS_clean_sbu_1, # of connection points: 6
#     Node 27, Type 0, BuildingBlock: CIFDUS_clean_sbu_1, # of connection points: 6
#     Node 28, Type 0, BuildingBlock: CIFDUS_clean_sbu_1, # of connection points: 6
#     Node 29, Type 0, BuildingBlock: CIFDUS_clean_sbu_1, # of connection points: 6
#     Node 30, Type 0, BuildingBlock: CIFDUS_clean_sbu_1, # of connection points: 6
#     Node 31, Type 0, BuildingBlock: CIFDUS_clean_sbu_1, # of connection points: 6
#     Node 32, Type 0, BuildingBlock: CIFDUS_clean_sbu_1, # of connection points: 6
#     Node 33, Type 0, BuildingBlock: CIFDUS_clean_sbu_1, # of connection points: 6
#     Node 34, Type 0, BuildingBlock: CIFDUS_clean_sbu_1, # of connection points: 6
#     Node 35, Type 0, BuildingBlock: CIFDUS_clean_sbu_1, # of connection points: 6
#     Edge 36, Type (0, 0), None
#     Edge 37, Type (0, 0), None
#     Edge 38, Type (0, 0), None
#     Edge 39, Type (0, 0), None
#     Edge 40, Type (0, 0), None
#     Edge 41, Type (0, 0), None
#     Edge 42, Type (0, 0), None
#     Edge 43, Type (0, 0), None
#     Edge 44, Type (0, 0), None
#     Edge 45, Type (0, 0), None
#     Edge 46, Type (0, 0), None
#     Edge 47, Type (0, 0), None
#     Edge 48, Type (0, 0), None
#     Edge 49, Type (0, 0), None
#     Edge 50, Type (0, 0), None
#     Edge 51, Type (0, 0), None
#     Edge 52, Type (0, 0), None
#     Edge 53, Type (0, 0), None
#     Edge 54, Type (0, 0), None
#     Edge 55, Type (0, 0), None
#     Edge 56, Type (0, 0), None
#     Edge 57, Type (0, 0), None
#     Edge 58, Type (0, 0), None
#     Edge 59, Type (0, 0), None
#     Edge 60, Type (0, 0), None
#     Edge 61, Type (0, 0), None
#     Edge 62, Type (0, 0), None
#     Edge 63, Type (0, 0), None
#     Edge 64, Type (0, 0), None
#     Edge 65, Type (0, 0), None
#     Edge 66, Type (0, 0), None
#     Edge 67, Type (0, 0), None
#     Edge 68, Type (0, 0), None
#     Edge 69, Type (0, 0), None
#     Edge 70, Type (0, 0), None
#     Edge 71, Type (0, 0), None
#     Edge 72, Type (0, 0), None
#     Edge 73, Type (0, 0), None
#     Edge 74, Type (0, 0), None
#     Edge 75, Type (0, 0), None
#     Edge 76, Type (0, 0), None
#     Edge 77, Type (0, 0), None
#     Edge 78, Type (0, 0), None
#     Edge 79, Type (0, 0), None
#     Edge 80, Type (0, 0), None
#     Edge 81, Type (0, 0), None
#     Edge 82, Type (0, 0), None
#     Edge 83, Type (0, 0), None
#     Edge 84, Type (0, 0), None
#     Edge 85, Type (0, 0), None
#     Edge 86, Type (0, 0), None
#     Edge 87, Type (0, 0), None
#     Edge 88, Type (0, 0), None
#     Edge 89, Type (0, 0), None
#     Edge 90, Type (0, 0), None
#     Edge 91, Type (0, 0), None
#     Edge 92, Type (0, 0), None
#     Edge 93, Type (0, 0), None
#     Edge 94, Type (0, 0), None
#     Edge 95, Type (0, 0), None
#     Edge 96, Type (0, 0), None
#     Edge 97, Type (0, 0), None
#     Edge 98, Type (0, 0), None
#     Edge 99, Type (0, 0), None
#     Edge 100, Type (0, 0), None
#     Edge 101, Type (0, 0), None
#     Edge 102, Type (0, 0), None
#     Edge 103, Type (0, 0), None
#     Edge 104, Type (0, 0), None
#     Edge 105, Type (0, 0), None
#     Edge 106, Type (0, 0), None
#     Edge 107, Type (0, 0), None
#     Edge 108, Type (0, 0), None
#     Edge 109, Type (0, 0), None
#     Edge 110, Type (0, 0), None
#     Edge 111, Type (0, 0), None
#     Edge 112, Type (0, 0), None
#     Edge 113, Type (0, 0), None
#     Edge 114, Type (0, 0), None
#     Edge 115, Type (0, 0), None
#     Edge 116, Type (0, 0), None
#     Edge 117, Type (0, 0), None
#     Edge 118, Type (0, 0), None
#     Edge 119, Type (0, 0), None
#     Edge 120, Type (0, 0), None
#     Edge 121, Type (0, 0), None
#     Edge 122, Type (0, 0), None
#     Edge 123, Type (0, 0), None
#     Edge 124, Type (0, 0), None
#     Edge 125, Type (0, 0), None
#     Edge 126, Type (0, 0), None
#     Edge 127, Type (0, 0), None
#     Edge 128, Type (0, 0), None
#     Edge 129, Type (0, 0), None
#     Edge 130, Type (0, 0), None
#     Edge 131, Type (0, 0), None
#     Edge 132, Type (0, 0), None
#     Edge 133, Type (0, 0), None
#     Edge 134, Type (0, 0), None
#     Edge 135, Type (0, 0), None
#     Edge 136, Type (0, 0), None
#     Edge 137, Type (0, 0), None
#     Edge 138, Type (0, 0), None
#     Edge 139, Type (0, 0), None
#     Edge 140, Type (0, 0), None
#     Edge 141, Type (0, 0), None
#     Edge 142, Type (0, 0), None
#     Edge 143, Type (0, 0), None
# Relax obj value: 0.150
# Max RMSD: 0.128
# Mean RMSD: 0.128
data_MOF--net-wne--node1-CIFDUS_clean_sbu_1--edge1-none
_symmetry_space_group_name_H-M    P1
_symmetry_Int_Tables_number       1
_symmetry_cell_setting            triclinic
loop_
_symmetry_equiv_pos_as_xyz
'x, y, z'
_cell_length_a     30.087171
_cell_length_b     30.087093
_cell_length_c     18.36987
_cell_angle_alpha  90.000234
_cell_angle_beta   89.99957
_cell_angle_gamma 119.99966
loop_
_atom_site_label
_atom_site_type_symbol
_atom_site_fract_x
_atom_site_fract_y
_atom_site_fract_z
_atom_type_partial_charge
O0 O 0.22654 0.20169 0.16312 0.0
Mn1 Mn 0.2723 0.20616 0.074 0.0
O2 O 0.28184 0.23469 0.2584 0.0
Mn3 Mn 0.3425 0.26585 0.20803 0.0
O4 O 0.32462 0.21276 0.9984 0.0
O5 O 0.21798 0.19551 0.99748 0.0
Mn6 Mn 0.22621 0.16034 0.9249 0.0
O7 O 0.24088 0.12581 0.07751 0.0
O8 O 0.29174 0.19982 0.88707 0.0
O9 O 0.30413 0.28705 0.062 0.0
O10 O 0.36065 0.32544 0.15328 0.0
O11 O 0.17391 0.17144 0.89604 0.0
O12 O 0.21285 0.09723 0.96334 0.0
C13 C 0.35641 0.20568 0.17834 0.0
C14 C 0.2366 0.20898 0.23248 0.0
C15 C 0.32968 0.21513 0.92999 0.0
C16 C 0.18105 0.19404 0.95837 0.0
C17 C 0.22126 0.08965 0.02908 0.0
C18 C 0.33967 0.3277 0.09369 0.0
O19 O 0.32674 0.21763 0.14476 0.0
O20 O 0.3838 0.23774 0.22862 0.0
O21 O 0.8367 0.03254 0.16311 0.0
Mn22 Mn 0.83222 0.07381 0.074 0.0
O23 O 0.8037 0.05483 0.25839 0.0
Mn24 Mn 0.77253 0.08433 0.20803 0.0
O25 O 0.82562 0.11954 0.99839 0.0
O26 O 0.84287 0.03015 0.99747 0.0
Mn27 Mn 0.87805 0.07355 0.9249 0.0
O28 O 0.91258 0.12276 0.0775 0.0
O29 O 0.83857 0.0996 0.88706 0.0
O30 O 0.75134 0.02477 0.062 0.0
O31 O 0.71295 0.0429 0.15327 0.0
O32 O 0.86695 1.01015 0.89604 0.0
O33 O 0.94116 0.1233 0.96333 0.0
C34 C 0.83271 0.15841 0.17834 0.0
C35 C 0.82941 0.03531 0.23248 0.0
C36 C 0.82326 0.12223 0.92999 0.0
C37 C 0.84434 0.99469 0.95837 0.0
C38 C 0.94874 0.13929 0.02908 0.0
C39 C 0.71069 0.01966 0.09369 0.0
O40 O 0.82076 0.11679 0.14475 0.0
O41 O 0.80064 0.15374 0.22861 0.0
O42 O 1.00585 0.81185 0.16312 0.0
Mn43 Mn 0.96457 0.7661 0.074 0.0
O44 O 0.98356 0.75656 0.2584 0.0
Mn45 Mn 0.95406 0.69589 0.20803 0.0
O46 O 0.91885 0.71377 0.9984 0.0
O47 O 1.00824 0.82041 0.99748 0.0
Mn48 Mn 0.96484 0.81218 0.9249 0.0
O49 O 0.91563 0.79751 0.07751 0.0
O50 O 0.93879 0.74665 0.88707 0.0
O51 O 1.01362 0.73426 0.062 0.0
O52 O 0.99549 0.67774 0.15328 0.0
O53 O 0.02824 0.86449 0.89605 0.0
O54 O 0.91508 0.82554 0.96333 0.0
C55 C 0.87998 0.68198 0.17835 0.0
C56 C 1.00308 0.80179 0.23249 0.0
C57 C 0.91616 0.70871 0.92999 0.0
C58 C 0.0437 0.85734 0.95838 0.0
C59 C 0.89909 0.81713 0.02908 0.0
C60 C 1.01873 0.69872 0.09369 0.0
O61 O 0.9216 0.71165 0.14476 0.0
O62 O 0.88465 0.65459 0.22862 0.0
O63 O 0.20478 0.20852 0.34853 0.0
Mn64 Mn 0.20826 0.25981 0.43035 0.0
O65 O 0.19858 0.25103 0.2557 0.0
Mn66 Mn 0.2542 0.31515 0.27935 0.0
O67 O 0.21627 0.31617 0.50126 0.0
O68 O 0.19926 0.20948 0.5116 0.0
Mn69 Mn 0.16567 0.21991 0.58331 0.0
O70 O 0.12837 0.22801 0.42888 0.0
O71 O 0.20744 0.28636 0.61429 0.0
O72 O 0.28785 0.29358 0.43599 0.0
O73 O 0.31786 0.33144 0.32662 0.0
O74 O 0.17725 0.16878 0.61592 0.0
O75 O 0.10238 0.20584 0.5456 0.0
C76 C 0.20955 0.34426 0.32582 0.0
C77 C 0.2005 0.21303 0.27911 0.0
C78 C 0.22232 0.32316 0.5694 0.0
C79 C 0.19894 0.17432 0.55318 0.0
C80 C 0.09354 0.21091 0.47904 0.0
C81 C 0.32514 0.32188 0.39285 0.0
O82 O 0.21918 0.31186 0.35522 0.0
O83 O 0.23525 0.3649 0.26712 0.0
O84 O 0.82987 1.00394 0.34852 0.0
Mn85 Mn 0.77858 0.95613 0.43035 0.0
O86 O 0.78736 0.95523 0.25569 0.0
Mn87 Mn 0.72323 0.94673 0.27935 0.0
O88 O 0.72222 0.90779 0.50126 0.0
O89 O 0.82891 0.99747 0.51159 0.0
Mn90 Mn 0.81848 0.95344 0.5833 0.0
O91 O 0.81038 0.90805 0.42888 0.0
O92 O 0.75203 0.92876 0.61429 0.0
O93 O 0.74481 1.00195 0.43599 0.0
O94 O 0.70694 0.9941 0.32661 0.0
O95 O 0.86961 0.01615 0.61591 0.0
O96 O 0.83255 0.90423 0.5456 0.0
C97 C 0.69412 0.87296 0.32582 0.0
C98 C 0.82535 0.99515 0.2791 0.0
C99 C 0.71523 0.90685 0.5694 0.0
C100 C 0.86408 0.03231 0.55317 0.0
C101 C 0.82748 0.89032 0.47903 0.0
C102 C 0.71651 1.01095 0.39285 0.0
O103 O 0.72653 0.91501 0.35522 0.0
O104 O 0.67348 0.87803 0.26712 0.0
O105 O 0.03445 0.83361 0.34853 0.0
Mn106 Mn 0.08226 0.83013 0.43035 0.0
O107 O 0.08316 0.83981 0.2557 0.0
Mn108 Mn 0.09166 0.78419 0.27936 0.0
O109 O 0.1306 0.82212 0.50127 0.0
O110 O 0.04092 0.83912 0.5116 0.0
Mn111 Mn 0.08495 0.87272 0.58331 0.0
O112 O 0.13034 0.91002 0.42889 0.0
O113 O 0.10963 0.83095 0.61429 0.0
O114 O 0.03644 0.75054 0.43599 0.0
O115 O 0.04429 0.72053 0.32662 0.0
O116 O 1.02223 0.86114 0.61592 0.0
O117 O 0.13416 0.93601 0.5456 0.0
C118 C 0.16542 0.82884 0.32582 0.0
C119 C 0.04324 0.83789 0.27911 0.0
C120 C 0.13154 0.81607 0.5694 0.0
C121 C 1.00608 0.83945 0.55318 0.0
C122 C 0.14807 0.94485 0.47904 0.0
C123 C 0.02744 0.71324 0.39285 0.0
O124 O 0.12338 0.81921 0.35523 0.0
O125 O 0.16036 0.80314 0.26712 0.0
O126 O 0.81953 0.82903 0.84767 0.0
Mn127 Mn 0.77377 0.82455 0.93679 0.0
O128 O 0.76423 0.79603 0.75239 0.0
Mn129 Mn 0.70356 0.76486 0.80276 0.0
O130 O 0.72145 0.81795 0.01239 0.0
O131 O 0.82809 0.83521 0.01331 0.0
Mn132 Mn 0.81985 0.87038 0.08588 0.0
O133 O 0.80518 0.90491 0.93328 0.0
O134 O 0.75432 0.83089 0.12372 0.0
O135 O 0.74194 0.74367 0.94878 0.0
O136 O 0.68543 0.70527 0.85751 0.0
O137 O 0.87216 0.85929 0.11475 0.0
O138 O 0.8332 0.93349 0.04745 0.0
C139 C 0.68965 0.82502 0.83245 0.0
C140 C 0.80946 0.82174 0.7783 0.0
C141 C 0.71638 0.81558 0.0808 0.0
C142 C 0.86502 0.83669 0.05242 0.0
C143 C 0.82478 0.94106 0.98171 0.0
C144 C 0.70641 0.70302 0.9171 0.0
O145 O 0.71933 0.81308 0.86603 0.0
O146 O 0.66226 0.79296 0.78217 0.0
O147 O 0.20936 0.99818 0.84768 0.0
Mn148 Mn 0.21384 0.95691 0.93679 0.0
O149 O 0.24236 0.97589 0.75239 0.0
Mn150 Mn 0.27353 0.94639 0.80276 0.0
O151 O 0.22044 0.91119 0.01239 0.0
O152 O 0.20318 1.00056 0.01331 0.0
Mn153 Mn 0.16801 0.95716 0.08589 0.0
O154 O 0.13348 0.90795 0.93329 0.0
O155 O 0.2075 0.93112 0.12373 0.0
O156 O 0.29472 1.00596 0.94879 0.0
O157 O 0.33311 0.98783 0.85751 0.0
O158 O 0.1791 0.02056 0.11475 0.0
O159 O 0.1049 0.9074 0.04746 0.0
C160 C 0.21337 0.87231 0.83245 0.0
C161 C 0.21665 0.99541 0.77831 0.0
C162 C 0.22281 0.90849 0.0808 0.0
C163 C 0.2017 0.03602 0.05242 0.0
C164 C 0.09733 0.89141 0.98172 0.0
C165 C 0.33537 1.01107 0.9171 0.0
O166 O 0.22531 0.91393 0.86603 0.0
O167 O 0.24543 0.87698 0.78218 0.0
O168 O 0.04021 0.21886 0.84767 0.0
Mn169 Mn 0.08148 0.26461 0.93678 0.0
O170 O 0.0625 0.27415 0.75238 0.0
Mn171 Mn 0.092 0.33482 0.80275 0.0
O172 O 0.1272 0.31694 0.01239 0.0
O173 O 0.03783 0.2103 0.0133 0.0
Mn174 Mn 0.08123 0.21853 0.08588 0.0
O175 O 0.13043 0.23321 0.93328 0.0
O176 O 0.10727 0.28406 0.12372 0.0
O177 O 0.03243 0.29645 0.94878 0.0
O178 O 0.05055 0.35296 0.8575 0.0
O179 O 1.01783 0.16623 0.11475 0.0
O180 O 0.13098 0.20518 0.04745 0.0
C181 C 0.16608 0.34874 0.83244 0.0
C182 C 0.04298 0.22892 0.7783 0.0
C183 C 0.1299 0.322 0.08079 0.0
C184 C 1.00237 0.17337 0.05241 0.0
C185 C 0.14698 0.21361 0.98171 0.0
C186 C 0.02731 0.33198 0.91709 0.0
O187 O 0.12445 0.31906 0.86603 0.0
O188 O 0.16141 0.37613 0.78217 0.0
O189 O 0.84129 0.8222 0.66226 0.0
Mn190 Mn 0.8378 0.7709 0.58044 0.0
O191 O 0.84749 0.77969 0.75509 0.0
Mn192 Mn 0.79185 0.71556 0.73143 0.0
O193 O 0.82978 0.71455 0.50952 0.0
O194 O 0.8468 0.82124 0.49919 0.0
Mn195 Mn 0.8804 0.8108 0.42748 0.0
O196 O 0.91769 0.8027 0.5819 0.0
O197 O 0.83862 0.74435 0.3965 0.0
O198 O 0.75821 0.73714 0.5748 0.0
O199 O 0.7282 0.69927 0.68417 0.0
O200 O 0.86882 0.86194 0.39487 0.0
O201 O 0.94368 0.82487 0.46518 0.0
C202 C 0.83651 0.68645 0.68496 0.0
C203 C 0.84557 0.81768 0.73168 0.0
C204 C 0.82373 0.70756 0.44139 0.0
C205 C 0.84714 0.85641 0.45761 0.0
C206 C 0.95252 0.81979 0.53175 0.0
C207 C 0.72092 0.70884 0.61794 0.0
O208 O 0.82688 0.71886 0.65556 0.0
O209 O 0.81081 0.66581 0.74367 0.0
O210 O 0.21619 0.02678 0.66226 0.0
Mn211 Mn 0.26749 0.07459 0.58044 0.0
O212 O 0.2587 0.07548 0.7551 0.0
Mn213 Mn 0.32283 0.08398 0.73144 0.0
O214 O 0.32384 0.12292 0.50953 0.0
O215 O 0.21715 0.03325 0.49919 0.0
Mn216 Mn 0.22758 0.07728 0.42749 0.0
O217 O 0.23569 0.12267 0.58191 0.0
O218 O 0.29403 0.10195 0.3965 0.0
O219 O 0.30124 0.02876 0.5748 0.0
O220 O 0.33911 0.03661 0.68417 0.0
O221 O 0.17645 1.01457 0.39487 0.0
O222 O 0.21352 0.1265 0.46519 0.0
C223 C 0.35194 0.15775 0.68496 0.0
C224 C 0.22071 0.03557 0.73169 0.0
C225 C 0.33083 0.12385 0.44139 0.0
C226 C 0.18197 0.99841 0.45762 0.0
C227 C 0.2186 0.14042 0.53175 0.0
C228 C 0.32955 0.01976 0.61794 0.0
O229 O 0.31953 0.1157 0.65556 0.0
O230 O 0.37258 0.15268 0.74367 0.0
O231 O 1.01161 0.1971 0.66226 0.0
Mn232 Mn 0.9638 0.20058 0.58043 0.0
O233 O 0.9629 0.1909 0.75509 0.0
Mn234 Mn 0.95441 0.24653 0.73143 0.0
O235 O 0.91547 0.2086 0.50952 0.0
O236 O 1.00514 0.19158 0.49919 0.0
Mn237 Mn 0.96111 0.15799 0.42748 0.0
O238 O 0.91572 0.1207 0.5819 0.0
O239 O 0.93644 0.19977 0.3965 0.0
O240 O 1.00963 0.28017 0.5748 0.0
O241 O 1.00178 0.31019 0.68417 0.0
O242 O 0.02382 0.16957 0.39487 0.0
O243 O 0.91189 0.09471 0.46518 0.0
C244 C 0.88064 0.20188 0.68496 0.0
C245 C 1.00282 0.19282 0.73168 0.0
C246 C 0.91453 0.21466 0.44139 0.0
C247 C 0.03998 0.19125 0.45761 0.0
C248 C 0.89797 0.08587 0.53174 0.0
C249 C 1.01863 0.31747 0.61794 0.0
O250 O 0.92268 0.21151 0.65556 0.0
O251 O 0.88571 0.22758 0.74366 0.0
O252 O 0.89321 0.53502 0.49645 0.0
Mn253 Mn 0.93896 0.53949 0.40733 0.0
O254 O 0.94849 0.56801 0.59174 0.0
Mn255 Mn 1.00916 0.59918 0.54137 0.0
O256 O 0.99128 0.54609 0.33173 0.0
O257 O 0.88465 0.52885 0.33081 0.0
Mn258 Mn 0.89288 0.49367 0.25823 0.0
O259 O 0.90755 0.45914 0.41084 0.0
O260 O 0.95841 0.53315 0.2204 0.0
O261 O 0.9708 0.62038 0.39534 0.0
O262 O 0.02731 0.65876 0.48663 0.0
O263 O 0.84057 0.50477 0.22937 0.0
O264 O 0.87952 0.43056 0.29667 0.0
C265 C 0.02308 0.53901 0.51168 0.0
C266 C 0.90326 0.5423 0.56582 0.0
C267 C 0.99635 0.54846 0.26333 0.0
C268 C 0.84772 0.52738 0.2917 0.0
C269 C 0.88793 0.42298 0.36241 0.0
C270 C 1.00633 0.66103 0.42704 0.0
O271 O 0.9934 0.55096 0.47809 0.0
O272 O 0.05047 0.57107 0.56195 0.0
O273 O 0.50337 0.36587 0.49644 0.0
Mn274 Mn 0.49889 0.40715 0.40733 0.0
O275 O 0.47038 0.38817 0.59174 0.0
Mn276 Mn 0.43921 0.41767 0.54137 0.0
O277 O 0.4923 0.45287 0.33173 0.0
O278 O 0.50954 0.36349 0.33081 0.0
Mn279 Mn 0.54472 0.40689 0.25823 0.0
O280 O 0.57925 0.45609 0.41084 0.0
O281 O 0.50524 0.43294 0.2204 0.0
O282 O 0.41801 0.3581 0.39534 0.0
O283 O 0.37963 0.37623 0.48663 0.0
O284 O 0.53362 0.34349 0.22937 0.0
O285 O 0.60783 0.45664 0.29666 0.0
C286 C 0.49938 0.49175 0.51168 0.0
C287 C 0.49609 0.36864 0.56582 0.0
C288 C 0.48993 0.45557 0.26333 0.0
C289 C 0.51101 0.32802 0.2917 0.0
C290 C 0.61541 0.47263 0.36241 0.0
C291 C 0.37736 0.35299 0.42704 0.0
O292 O 0.48743 0.45012 0.47809 0.0
O293 O 0.46732 0.48708 0.56196 0.0
O294 O 0.67252 0.14518 0.49644 0.0
Mn295 Mn 0.63124 0.09943 0.40733 0.0
O296 O 0.65022 0.0899 0.59174 0.0
Mn297 Mn 0.62072 0.02923 0.54137 0.0
O298 O 0.58552 0.04711 0.33173 0.0
O299 O 0.6749 0.15374 0.33081 0.0
Mn300 Mn 0.6315 0.14551 0.25823 0.0
O301 O 0.5823 0.13084 0.41084 0.0
O302 O 0.60545 0.07998 0.2204 0.0
O303 O 0.68028 0.06759 0.39533 0.0
O304 O 0.66216 1.01108 0.48663 0.0
O305 O 0.6949 0.19782 0.22937 0.0
O306 O 0.58175 0.15887 0.29667 0.0
C307 C 0.54664 1.01531 0.51168 0.0
C308 C 0.66974 0.13513 0.56582 0.0
C309 C 0.58282 0.04204 0.26332 0.0
C310 C 0.71036 0.19067 0.2917 0.0
C311 C 0.56576 0.15046 0.36241 0.0
C312 C 0.6854 0.03206 0.42704 0.0
O313 O 0.58827 0.04499 0.47809 0.0
O314 O 0.55131 0.98792 0.56195 0.0
O315 O 0.87144 0.54186 0.68186 0.0
Mn316 Mn 0.87492 0.59315 0.76368 0.0
O317 O 0.86525 0.58437 0.58902 0.0
Mn318 Mn 0.92087 0.6485 0.61269 0.0
O319 O 0.88294 0.6495 0.83459 0.0
O320 O 0.86593 0.54282 0.84493 0.0
Mn321 Mn 0.83233 0.55325 0.91664 0.0
O322 O 0.79504 0.56135 0.76222 0.0
O323 O 0.8741 0.6197 0.94762 0.0
O324 O 0.95451 0.62692 0.76932 0.0
O325 O 0.98453 0.66479 0.65995 0.0
O326 O 0.84392 0.50211 0.94925 0.0
O327 O 0.76905 0.53917 0.87893 0.0
C328 C 0.87619 0.67759 0.65913 0.0
C329 C 0.86717 0.54637 0.61244 0.0
C330 C 0.88899 0.65649 0.90273 0.0
C331 C 0.86561 0.50765 0.88651 0.0
C332 C 0.7602 0.54424 0.81237 0.0
C333 C 0.99181 0.65522 0.72618 0.0
O334 O 0.88584 0.64519 0.68855 0.0
O335 O 0.90191 0.69824 0.60044 0.0
O336 O 0.49653 0.33726 0.68186 0.0
Mn337 Mn 0.44524 0.28945 0.76368 0.0
O338 O 0.45402 0.28857 0.58901 0.0
Mn339 Mn 0.38989 0.28006 0.61269 0.0
O340 O 0.38889 0.24112 0.83459 0.0
O341 O 0.49557 0.3308 0.84493 0.0
Mn342 Mn 0.48514 0.28677 0.91663 0.0
O343 O 0.47705 0.24138 0.76221 0.0
O344 O 0.41869 0.26209 0.94762 0.0
O345 O 0.41147 0.33528 0.76932 0.0
O346 O 0.3736 0.32743 0.65995 0.0
O347 O 0.53628 0.34949 0.94924 0.0
O348 O 0.49922 0.23756 0.87893 0.0
C349 C 0.36081 0.20629 0.65913 0.0
C350 C 0.49202 0.32848 0.61243 0.0
C351 C 0.3819 0.24018 0.90273 0.0
C352 C 0.53074 0.36564 0.8865 0.0
C353 C 0.49415 0.22365 0.81237 0.0
C354 C 0.38317 0.34427 0.72618 0.0
O355 O 0.3932 0.24833 0.68855 0.0
O356 O 0.34015 0.21135 0.60044 0.0
O357 O 0.70112 0.16695 0.68186 0.0
Mn358 Mn 0.74893 0.16347 0.76368 0.0
O359 O 0.74982 0.17314 0.58901 0.0
Mn360 Mn 0.75833 0.11752 0.61268 0.0
O361 O 0.79727 0.15545 0.83459 0.0
O362 O 0.70759 0.17246 0.84493 0.0
Mn363 Mn 0.75162 0.20606 0.91663 0.0
O364 O 0.79701 0.24335 0.76221 0.0
O365 O 0.7763 0.16429 0.94761 0.0
O366 O 0.70311 0.08388 0.76932 0.0
O367 O 0.71096 0.05386 0.65994 0.0
O368 O 0.6889 0.19447 0.94924 0.0
O369 O 0.80083 0.26934 0.87893 0.0
C370 C 0.8321 0.1622 0.65913 0.0
C371 C 0.70991 0.17123 0.61243 0.0
C372 C 0.79821 0.1494 0.90272 0.0
C373 C 0.67275 0.17278 0.8865 0.0
C374 C 0.81474 0.27819 0.81237 0.0
C375 C 0.69412 0.04658 0.72618 0.0
O376 O 0.79006 0.15255 0.68855 0.0
O377 O 0.82704 0.13648 0.60044 0.0
O378 O 0.48619 0.16237 0.181 0.0
Mn379 Mn 0.44044 0.15788 0.27012 0.0
O380 O 0.4309 0.12935 0.08572 0.0
Mn381 Mn 0.37023 0.09819 0.13609 0.0
O382 O 0.38811 0.15128 0.34572 0.0
O383 O 0.49475 0.16854 0.34664 0.0
Mn384 Mn 0.48651 0.20371 0.41922 0.0
O385 O 0.47184 0.23824 0.26661 0.0
O386 O 0.42099 0.16422 0.45705 0.0
O387 O 0.4086 0.077 0.28211 0.0
O388 O 0.35208 0.03861 0.19085 0.0
O389 O 0.53882 0.19262 0.44808 0.0
O390 O 0.49987 0.26682 0.38079 0.0
C391 C 0.35633 0.15837 0.16575 0.0
C392 C 0.47613 0.15507 0.11164 0.0
C393 C 0.38305 0.14891 0.41413 0.0
C394 C 0.53168 0.17002 0.38575 0.0
C395 C 0.49144 0.27439 0.31504 0.0
C396 C 0.37306 0.03635 0.25043 0.0
O397 O 0.38599 0.14642 0.19936 0.0
O398 O 0.32893 0.1263 0.11549 0.0
O399 O 0.87602 0.33151 0.181 0.0
Mn400 Mn 0.8805 0.29023 0.27011 0.0
O401 O 0.90903 0.30923 0.08572 0.0
Mn402 Mn 0.9402 0.27972 0.13609 0.0
O403 O 0.88711 0.24451 0.34572 0.0
O404 O 0.86985 0.33389 0.34664 0.0
Mn405 Mn 0.83468 0.29049 0.41922 0.0
O406 O 0.80015 0.24129 0.26661 0.0
O407 O 0.87416 0.26445 0.45705 0.0
O408 O 0.96139 0.33929 0.28211 0.0
O409 O 0.99978 0.32115 0.19084 0.0
O410 O 0.84577 0.35389 0.44808 0.0
O411 O 0.77157 0.24073 0.38079 0.0
C412 C 0.88001 0.20564 0.16575 0.0
C413 C 0.88332 0.32874 0.11163 0.0
C414 C 0.88947 0.24181 0.41412 0.0
C415 C 0.86837 0.36935 0.38575 0.0
C416 C 0.76399 0.22474 0.31504 0.0
C417 C 1.00204 0.3444 0.25043 0.0
O418 O 0.89197 0.24726 0.19935 0.0
O419 O 0.91208 0.21031 0.11549 0.0
O420 O 0.70688 0.55219 0.181 0.0
Mn421 Mn 0.74815 0.59795 0.27011 0.0
O422 O 0.72916 0.60749 0.08572 0.0
Mn423 Mn 0.75867 0.66816 0.13609 0.0
O424 O 0.79387 0.65028 0.34572 0.0
O425 O 0.70449 0.54364 0.34664 0.0
Mn426 Mn 0.7479 0.55187 0.41922 0.0
O427 O 0.7971 0.56654 0.26661 0.0
O428 O 0.77394 0.6174 0.45705 0.0
O429 O 0.6991 0.62978 0.28211 0.0
O430 O 0.71723 0.68631 0.19084 0.0
O431 O 0.6845 0.49956 0.44808 0.0
O432 O 0.79765 0.53852 0.38079 0.0
C433 C 0.83274 0.68205 0.16575 0.0
C434 C 0.70965 0.56226 0.11163 0.0
C435 C 0.79657 0.65534 0.41412 0.0
C436 C 0.66904 0.5067 0.38575 0.0
C437 C 0.81365 0.54694 0.31504 0.0
C438 C 0.69399 0.66532 0.25043 0.0
O439 O 0.79113 0.65239 0.19935 0.0
O440 O 0.82808 0.70946 0.11549 0.0
O441 O 0.50796 0.15553 0.99559 0.0
Mn442 Mn 0.50447 0.10424 0.91377 0.0
O443 O 0.51416 0.11302 0.08842 0.0
Mn444 Mn 0.45852 0.0489 0.06477 0.0
O445 O 0.49645 0.04788 0.84286 0.0
O446 O 0.51347 0.15457 0.83252 0.0
Mn447 Mn 0.54706 0.14413 0.76081 0.0
O448 O 0.58435 0.13603 0.91523 0.0
O449 O 0.50529 0.07769 0.72983 0.0
O450 O 0.42488 0.07048 0.90813 0.0
O451 O 0.39487 0.03261 0.01751 0.0
O452 O 0.53549 0.19527 0.7282 0.0
O453 O 0.61035 0.1582 0.79852 0.0
C454 C 0.50318 0.01978 0.0183 0.0
C455 C 0.51224 0.15102 0.06501 0.0
C456 C 0.4904 0.04089 0.77472 0.0
C457 C 0.51381 0.18974 0.79094 0.0
C458 C 0.61919 0.15312 0.86508 0.0
C459 C 0.38759 0.0422 0.95129 0.0
O460 O 0.49354 0.05219 0.9889 0.0
O461 O 0.47748 0.99914 0.077 0.0
O462 O 0.88286 0.36011 0.99559 0.0
Mn463 Mn 0.93415 0.40792 0.91377 0.0
O464 O 0.92537 0.40882 0.08842 0.0
Mn465 Mn 0.98949 0.41731 0.06477 0.0
O466 O 0.99051 0.45625 0.84285 0.0
O467 O 0.88382 0.36659 0.83252 0.0
Mn468 Mn 0.89425 0.41061 0.76081 0.0
O469 O 0.90236 0.45601 0.91523 0.0
O470 O 0.9607 0.43529 0.72983 0.0
O471 O 0.96791 0.36209 0.90813 0.0
O472 O 1.00578 0.36994 0.01751 0.0
O473 O 0.84311 0.3479 0.7282 0.0
O474 O 0.88019 0.45983 0.79852 0.0
C475 C 1.01861 0.49108 0.01829 0.0
C476 C 0.88737 0.3689 0.06501 0.0
C477 C 0.9975 0.45719 0.77472 0.0
C478 C 0.84864 0.33175 0.79094 0.0
C479 C 0.88527 0.47375 0.86508 0.0
C480 C 0.99619 0.35307 0.95128 0.0
O481 O 0.9862 0.44904 0.98889 0.0
O482 O 0.03925 0.48602 0.077 0.0
O483 O 0.67828 0.53043 0.99559 0.0
Mn484 Mn 0.63047 0.53391 0.91377 0.0
O485 O 0.62957 0.52423 0.08842 0.0
Mn486 Mn 0.62108 0.57986 0.06477 0.0
O487 O 0.58214 0.54194 0.84286 0.0
O488 O 0.6718 0.52492 0.83252 0.0
Mn489 Mn 0.62778 0.49132 0.76081 0.0
O490 O 0.58238 0.45403 0.91523 0.0
O491 O 0.6031 0.5331 0.72983 0.0
O492 O 0.6763 0.6135 0.90813 0.0
O493 O 0.66845 0.64352 0.01751 0.0
O494 O 0.69049 0.5029 0.7282 0.0
O495 O 0.57856 0.42804 0.79851 0.0
C496 C 0.54731 0.53521 0.0183 0.0
C497 C 0.66949 0.52615 0.06501 0.0
C498 C 0.5812 0.54799 0.77472 0.0
C499 C 0.70664 0.52458 0.79094 0.0
C500 C 0.56464 0.4192 0.86507 0.0
C501 C 0.68531 0.6508 0.95129 0.0
O502 O 0.58935 0.54485 0.9889 0.0
O503 O 0.55237 0.56091 0.077 0.0
O504 O 0.55987 0.86835 0.82978 0.0
Mn505 Mn 0.60563 0.87283 0.74067 0.0
O506 O 0.61516 0.90135 0.92507 0.0
Mn507 Mn 0.67583 0.93251 0.8747 0.0
O508 O 0.65795 0.87943 0.66507 0.0
O509 O 0.55132 0.86218 0.66415 0.0
Mn510 Mn 0.55955 0.82701 0.59157 0.0
O511 O 0.57421 0.79247 0.74417 0.0
O512 O 0.62508 0.86649 0.55374 0.0
O513 O 0.63747 0.95371 0.72867 0.0
O514 O 0.69399 0.9921 0.81995 0.0
O515 O 0.50724 0.8381 0.56271 0.0
O516 O 0.54619 0.76389 0.63 0.0
C517 C 0.68973 0.87233 0.84504 0.0
C518 C 0.56993 0.87564 0.89915 0.0
C519 C 0.66302 0.88179 0.59666 0.0
C520 C 0.51439 0.86071 0.62504 0.0
C521 C 0.5546 0.75631 0.69575 0.0
C522 C 0.67301 0.99436 0.76037 0.0
O523 O 0.66007 0.88429 0.81143 0.0
O524 O 0.71713 0.9044 0.8953 0.0
O525 O 0.17004 0.69921 0.82978 0.0
Mn526 Mn 0.16556 0.74049 0.74067 0.0
O527 O 0.13704 0.7215 0.92507 0.0
Mn528 Mn 0.10588 0.75101 0.87471 0.0
O529 O 0.15896 0.78621 0.66507 0.0
O530 O 0.17621 0.69682 0.66415 0.0
Mn531 Mn 0.21138 0.74023 0.59157 0.0
O532 O 0.24592 0.78943 0.74418 0.0
O533 O 0.1719 0.76627 0.55374 0.0
O534 O 0.08468 0.69144 0.72868 0.0
O535 O 0.04629 0.70957 0.81996 0.0
O536 O 0.20029 0.67682 0.56271 0.0
O537 O 0.2745 0.78998 0.63 0.0
C538 C 0.16606 0.82508 0.84504 0.0
C539 C 0.16275 0.70198 0.89915 0.0
C540 C 0.1566 0.78891 0.59667 0.0
C541 C 0.17768 0.66136 0.62504 0.0
C542 C 0.28207 0.80596 0.69575 0.0
C543 C 0.04403 0.68633 0.76037 0.0
O544 O 0.1541 0.78346 0.81144 0.0
O545 O 0.13399 0.82041 0.89531 0.0
O546 O 0.33918 0.47852 0.82978 0.0
Mn547 Mn 0.2979 0.43276 0.74067 0.0
O548 O 0.31689 0.42323 0.92507 0.0
Mn549 Mn 0.28738 0.36256 0.87471 0.0
O550 O 0.25218 0.38044 0.66507 0.0
O551 O 0.34156 0.48707 0.66415 0.0
Mn552 Mn 0.29816 0.47884 0.59157 0.0
O553 O 0.24896 0.46418 0.74418 0.0
O554 O 0.27212 0.41331 0.55374 0.0
O555 O 0.34695 0.40092 0.72867 0.0
O556 O 0.32882 0.34441 0.81996 0.0
O557 O 0.36157 0.53115 0.56271 0.0
O558 O 0.24841 0.49221 0.63 0.0
C559 C 0.21331 0.34866 0.84504 0.0
C560 C 0.33641 0.46846 0.89915 0.0
C561 C 0.24948 0.37537 0.59666 0.0
C562 C 0.37703 0.524 0.62504 0.0
C563 C 0.23242 0.48379 0.69575 0.0
C564 C 0.35206 0.36539 0.76037 0.0
O565 O 0.25493 0.37832 0.81144 0.0
O566 O 0.21798 0.32126 0.8953 0.0
O567 O 0.53811 0.87519 0.01519 0.0
Mn568 Mn 0.54159 0.92648 0.09701 0.0
O569 O 0.53191 0.9177 0.92235 0.0
Mn570 Mn 0.58753 0.98183 0.94602 0.0
O571 O 0.5496 0.98284 0.16792 0.0
O572 O 0.5326 0.87615 0.17826 0.0
Mn573 Mn 0.499 0.88658 0.24997 0.0
O574 O 0.4617 0.89468 0.09555 0.0
O575 O 0.54077 0.95303 0.28095 0.0
O576 O 0.62118 0.96025 0.10265 0.0
O577 O 0.6512 0.99812 0.99327 0.0
O578 O 0.51058 0.83545 0.28258 0.0
O579 O 0.43571 0.8725 0.21227 0.0
C580 C 0.54286 1.01092 0.99246 0.0
C581 C 0.53383 0.8797 0.94577 0.0
C582 C 0.55565 0.98983 0.23606 0.0
C583 C 0.53227 0.84099 0.21984 0.0
C584 C 0.42687 0.87757 0.14571 0.0
C585 C 0.65847 0.98854 0.0595 0.0
O586 O 0.55251 0.97853 0.02188 0.0
O587 O 0.56857 0.03157 0.93377 0.0
O588 O 0.1632 0.6706 0.01519 0.0
Mn589 Mn 0.11191 0.62279 0.09701 0.0
O590 O 0.12069 0.6219 0.92235 0.0
Mn591 Mn 0.05656 0.61339 0.94602 0.0
O592 O 0.05555 0.57445 0.16793 0.0
O593 O 0.16224 0.66413 0.17826 0.0
Mn594 Mn 0.15181 0.6201 0.24997 0.0
O595 O 0.14371 0.57471 0.09555 0.0
O596 O 0.08536 0.59542 0.28095 0.0
O597 O 0.07814 0.66861 0.10265 0.0
O598 O 0.04027 0.66076 0.99328 0.0
O599 O 0.20294 0.68282 0.28258 0.0
O600 O 0.16588 0.57089 0.21227 0.0
C601 C 0.02747 0.53963 0.99247 0.0
C602 C 0.15868 0.66181 0.94577 0.0
C603 C 0.04856 0.57351 0.23606 0.0
C604 C 0.1974 0.69897 0.21984 0.0
C605 C 0.16082 0.55698 0.1457 0.0
C606 C 0.04985 0.67762 0.0595 0.0
O607 O 0.05986 0.58167 0.02189 0.0
O608 O 1.00682 0.54469 0.93378 0.0
O609 O 0.36779 0.50028 0.01519 0.0
Mn610 Mn 0.4156 0.4968 0.09701 0.0
O611 O 0.41649 0.50648 0.92235 0.0
Mn612 Mn 0.425 0.45085 0.94602 0.0
O613 O 0.46394 0.48878 0.16793 0.0
O614 O 0.37426 0.50579 0.17826 0.0
Mn615 Mn 0.41828 0.53939 0.24997 0.0
O616 O 0.46368 0.57669 0.09555 0.0
O617 O 0.44297 0.49762 0.28095 0.0
O618 O 0.36977 0.41721 0.10265 0.0
O619 O 0.37763 0.38719 0.99328 0.0
O620 O 0.35557 0.52781 0.28258 0.0
O621 O 0.4675 0.60268 0.21227 0.0
C622 C 0.49876 0.49553 0.99246 0.0
C623 C 0.37658 0.50456 0.94577 0.0
C624 C 0.46488 0.48274 0.23606 0.0
C625 C 0.33942 0.50611 0.21984 0.0
C626 C 0.48141 0.61152 0.14571 0.0
C627 C 0.36077 0.37991 0.0595 0.0
O628 O 0.45672 0.48588 0.02188 0.0
O629 O 0.4937 0.46982 0.93377 0.0
O630 O 0.15286 0.4957 0.51434 0.0
Mn631 Mn 0.1071 0.49122 0.60345 0.0
O632 O 0.09757 0.4627 0.41905 0.0
Mn633 Mn 0.0369 0.43153 0.46941 0.0
O634 O 0.05478 0.48462 0.67905 0.0
O635 O 0.16142 0.50188 0.67997 0.0
Mn636 Mn 0.15318 0.53705 0.75255 0.0
O637 O 0.13851 0.57158 0.59994 0.0
O638 O 0.08765 0.49756 0.79038 0.0
O639 O 0.07527 0.41034 0.61545 0.0
O640 O 1.01876 0.37195 0.52416 0.0
O641 O 0.20549 0.52595 0.78142 0.0
O642 O 0.16654 0.60016 0.71412 0.0
C643 C 1.023 0.49171 0.49908 0.0
C644 C 0.1428 0.48841 0.44497 0.0
C645 C 0.04971 0.48225 0.74746 0.0
C646 C 0.19835 0.50335 0.71908 0.0
C647 C 0.15811 0.60773 0.64838 0.0
C648 C 0.03974 0.36969 0.58375 0.0
O649 O 0.05266 0.47975 0.53269 0.0
O650 O 0.9956 0.45964 0.44882 0.0
O651 O 0.54269 0.66484 0.51434 0.0
Mn652 Mn 0.54717 0.62357 0.60345 0.0
O653 O 0.57568 0.64255 0.41905 0.0
Mn654 Mn 0.60686 0.61305 0.46941 0.0
O655 O 0.55377 0.57785 0.67905 0.0
O656 O 0.53651 0.66722 0.67997 0.0
Mn657 Mn 0.50134 0.62382 0.75255 0.0
O658 O 0.46681 0.57462 0.59995 0.0
O659 O 0.54083 0.59778 0.79038 0.0
O660 O 0.62805 0.67262 0.61545 0.0
O661 O 0.66644 0.65449 0.52416 0.0
O662 O 0.51244 0.68722 0.78142 0.0
O663 O 0.43823 0.57407 0.71412 0.0
C664 C 0.54668 0.53898 0.49908 0.0
C665 C 0.54997 0.66207 0.44497 0.0
C666 C 0.55614 0.57515 0.74746 0.0
C667 C 0.53504 0.70268 0.71908 0.0
C668 C 0.43066 0.55807 0.64838 0.0
C669 C 0.6687 0.67773 0.58375 0.0
O670 O 0.55864 0.5806 0.53269 0.0
O671 O 0.57875 0.54364 0.44882 0.0
O672 O 0.37354 0.88552 0.51434 0.0
Mn673 Mn 0.41482 0.93128 0.60345 0.0
O674 O 0.39584 0.94082 0.41905 0.0
Mn675 Mn 0.42534 1.00149 0.46941 0.0
O676 O 0.46054 0.98361 0.67905 0.0
O677 O 0.37116 0.87697 0.67997 0.0
Mn678 Mn 0.41457 0.88521 0.75255 0.0
O679 O 0.46377 0.89988 0.59995 0.0
O680 O 0.44061 0.95073 0.79038 0.0
O681 O 0.36577 0.96312 0.61545 0.0
O682 O 0.3839 0.01963 0.52416 0.0
O683 O 0.35117 0.8329 0.78142 0.0
O684 O 0.46432 0.87185 0.71412 0.0
C685 C 0.49941 0.01539 0.49908 0.0
C686 C 0.37632 0.89558 0.44497 0.0
C687 C 0.46324 0.98867 0.74746 0.0
C688 C 0.33571 0.84004 0.71908 0.0
C689 C 0.48032 0.88027 0.64838 0.0
C690 C 0.36065 0.99865 0.58375 0.0
O691 O 0.45779 0.98572 0.53269 0.0
O692 O 0.49474 0.04279 0.44882 0.0
O693 O 0.17463 0.48886 0.32893 0.0
Mn694 Mn 0.17114 0.43756 0.2471 0.0
O695 O 0.18082 0.44635 0.42177 0.0
Mn696 Mn 0.12519 0.38222 0.3981 0.0
O697 O 0.16312 0.38121 0.17619 0.0
O698 O 0.18014 0.4879 0.16586 0.0
Mn699 Mn 0.21373 0.47746 0.09415 0.0
O700 O 0.25102 0.46936 0.24857 0.0
O701 O 0.17195 0.41102 0.06317 0.0
O702 O 0.09155 0.40381 0.24147 0.0
O703 O 0.06153 0.36593 0.35084 0.0
O704 O 0.20216 0.5286 0.06153 0.0
O705 O 0.27702 0.49153 0.13185 0.0
C706 C 0.16986 0.35313 0.35165 0.0
C707 C 0.1789 0.48435 0.39835 0.0
C708 C 0.15707 0.37422 0.10806 0.0
C709 C 0.18047 0.52307 0.12428 0.0
C710 C 0.28585 0.48645 0.19841 0.0
C711 C 0.05425 0.37552 0.28462 0.0
O712 O 0.16021 0.38552 0.32223 0.0
O713 O 0.14415 0.33247 0.41034 0.0
O714 O 0.54953 0.69345 0.32893 0.0
Mn715 Mn 0.60082 0.74126 0.24711 0.0
O716 O 0.59204 0.74215 0.42177 0.0
Mn717 Mn 0.65616 0.75065 0.3981 0.0
O718 O 0.65718 0.78959 0.17619 0.0
O719 O 0.55049 0.69992 0.16586 0.0
Mn720 Mn 0.56092 0.74395 0.09415 0.0
O721 O 0.56903 0.78934 0.24857 0.0
O722 O 0.62737 0.76862 0.06317 0.0
O723 O 0.63458 0.69542 0.24147 0.0
O724 O 0.67245 0.70328 0.35084 0.0
O725 O 0.50978 0.68124 0.06154 0.0
O726 O 0.54685 0.79317 0.13185 0.0
C727 C 0.68526 0.82442 0.35165 0.0
C728 C 0.55404 0.70224 0.39835 0.0
C729 C 0.66417 0.79053 0.10806 0.0
C730 C 0.51531 0.66508 0.12428 0.0
C731 C 0.55194 0.80709 0.19841 0.0
C732 C 0.66287 0.68642 0.28462 0.0
O733 O 0.65287 0.78238 0.32223 0.0
O734 O 0.70591 0.81936 0.41034 0.0
O735 O 0.34494 0.86376 0.32893 0.0
Mn736 Mn 0.29713 0.86725 0.24711 0.0
O737 O 0.29624 0.85757 0.42177 0.0
Mn738 Mn 0.28774 0.9132 0.39811 0.0
O739 O 0.2488 0.87527 0.1762 0.0
O740 O 0.33847 0.85825 0.16586 0.0
Mn741 Mn 0.29444 0.82466 0.09415 0.0
O742 O 0.24904 0.78736 0.24857 0.0
O743 O 0.26977 0.86643 0.06317 0.0
O744 O 0.34296 0.94684 0.24147 0.0
O745 O 0.33511 0.97686 0.35085 0.0
O746 O 0.35715 0.83623 0.06154 0.0
O747 O 0.24522 0.76137 0.13185 0.0
C748 C 0.21397 0.86852 0.35165 0.0
C749 C 0.33615 0.85948 0.39835 0.0
C750 C 0.24786 0.88132 0.10806 0.0
C751 C 0.37331 0.85792 0.12428 0.0
C752 C 0.2313 0.75253 0.19841 0.0
C753 C 0.35197 0.98413 0.28462 0.0
O754 O 0.25601 0.87817 0.32224 0.0
O755 O 0.21903 0.89424 0.41035 0.0
loop_
_geom_bond_atom_site_label_1
_geom_bond_atom_site_label_2
_geom_bond_distance
_geom_bond_site_symmetry_2
_ccdc_geom_bond_type
O0 Mn1 2.163 . S
O0 C14 1.244 . S
Mn1 O0 2.163 . S
Mn1 O4 2.160 1_554 S
Mn1 O5 2.221 1_554 S
Mn1 O7 2.163 . S
Mn1 O9 2.160 . S
Mn1 O19 2.221 . S
O2 Mn3 2.087 . S
O2 C14 1.256 . S
Mn3 O2 2.087 . S
Mn3 O10 2.089 . S
Mn3 O19 2.290 . S
Mn3 O20 2.251 . S
O4 Mn1 2.160 1_556 S
O4 C15 1.239 . S
O5 Mn1 2.221 1_556 S
O5 Mn6 2.290 . S
O5 C16 1.278 . S
Mn6 O5 2.290 . S
Mn6 O8 2.089 . S
Mn6 O11 2.251 . S
Mn6 O12 2.087 . S
O7 Mn1 2.163 . S
O7 C17 1.244 . S
O8 Mn6 2.089 . S
O8 C15 1.256 . S
O9 Mn1 2.160 . S
O9 C18 1.239 . S
O10 Mn3 2.089 . S
O10 C18 1.256 . S
O11 Mn6 2.251 . S
O11 C16 1.241 . S
O12 Mn6 2.087 . S
O12 C17 1.256 1_556 S
C13 O19 1.278 . S
C13 O20 1.241 . S
C14 O0 1.244 . S
C14 O2 1.256 . S
C15 O4 1.239 . S
C15 O8 1.256 . S
C16 O5 1.278 . S
C16 O11 1.241 . S
C17 O7 1.244 . S
C17 O12 1.256 1_554 S
C18 O9 1.239 . S
C18 O10 1.256 . S
O19 Mn1 2.221 . S
O19 Mn3 2.290 . S
O19 C13 1.278 . S
O20 Mn3 2.251 . S
O20 C13 1.241 . S
O21 Mn22 2.163 . S
O21 C35 1.244 . S
Mn22 O21 2.163 . S
Mn22 O25 2.160 1_554 S
Mn22 O26 2.221 1_544 S
Mn22 O28 2.163 . S
Mn22 O30 2.160 . S
Mn22 O40 2.221 . S
O23 Mn24 2.087 . S
O23 C35 1.256 . S
Mn24 O23 2.087 . S
Mn24 O31 2.089 . S
Mn24 O40 2.290 . S
Mn24 O41 2.251 . S
O25 Mn22 2.160 1_556 S
O25 C36 1.239 . S
O26 Mn22 2.221 1_566 S
O26 Mn27 2.290 1_565 S
O26 C37 1.278 . S
Mn27 O26 2.290 1_545 S
Mn27 O29 2.089 . S
Mn27 O32 2.251 1_545 S
Mn27 O33 2.087 . S
O28 Mn22 2.163 . S
O28 C38 1.244 . S
O29 Mn27 2.089 . S
O29 C36 1.256 . S
O30 Mn22 2.160 . S
O30 C39 1.239 1_545 S
O31 Mn24 2.089 . S
O31 C39 1.256 1_545 S
O32 Mn27 2.251 1_565 S
O32 C37 1.241 . S
O33 Mn27 2.087 . S
O33 C38 1.256 1_556 S
C34 O40 1.278 . S
C34 O41 1.241 . S
C35 O21 1.244 . S
C35 O23 1.256 . S
C36 O25 1.239 . S
C36 O29 1.256 . S
C37 O26 1.278 . S
C37 O32 1.241 . S
C38 O28 1.244 . S
C38 O33 1.256 1_554 S
C39 O30 1.239 1_565 S
C39 O31 1.256 1_565 S
O40 Mn22 2.221 . S
O40 Mn24 2.290 . S
O40 C34 1.278 . S
O41 Mn24 2.251 . S
O41 C34 1.241 . S
O42 Mn43 2.163 . S
O42 C56 1.244 . S
Mn43 O42 2.163 . S
Mn43 O46 2.160 1_554 S
Mn43 O47 2.221 1_654 S
Mn43 O49 2.163 . S
Mn43 O51 2.160 . S
Mn43 O61 2.221 . S
O44 Mn45 2.087 . S
O44 C56 1.256 . S
Mn45 O44 2.087 . S
Mn45 O52 2.089 . S
Mn45 O61 2.290 . S
Mn45 O62 2.251 . S
O46 Mn43 2.160 1_556 S
O46 C57 1.239 . S
O47 Mn43 2.221 1_456 S
O47 Mn48 2.290 1_455 S
O47 C58 1.278 . S
Mn48 O47 2.290 1_655 S
Mn48 O50 2.089 . S
Mn48 O53 2.251 1_655 S
Mn48 O54 2.087 . S
O49 Mn43 2.163 . S
O49 C59 1.244 . S
O50 Mn48 2.089 . S
O50 C57 1.256 . S
O51 Mn43 2.160 . S
O51 C60 1.239 1_655 S
O52 Mn45 2.089 . S
O52 C60 1.256 1_655 S
O53 Mn48 2.251 1_455 S
O53 C58 1.241 . S
O54 Mn48 2.087 . S
O54 C59 1.256 1_556 S
C55 O61 1.278 . S
C55 O62 1.241 . S
C56 O42 1.244 . S
C56 O44 1.256 . S
C57 O46 1.239 . S
C57 O50 1.256 . S
C58 O47 1.278 . S
C58 O53 1.241 . S
C59 O49 1.244 . S
C59 O54 1.256 1_554 S
C60 O51 1.239 1_455 S
C60 O52 1.256 1_455 S
O61 Mn43 2.221 . S
O61 Mn45 2.290 . S
O61 C55 1.278 . S
O62 Mn45 2.251 . S
O62 C55 1.241 . S
O63 Mn64 2.163 . S
O63 C77 1.244 . S
Mn64 O63 2.163 . S
Mn64 O67 2.160 . S
Mn64 O68 2.221 . S
Mn64 O70 2.163 . S
Mn64 O72 2.160 . S
Mn64 O82 2.221 . S
O65 Mn66 2.087 . S
O65 C77 1.256 . S
Mn66 O65 2.087 . S
Mn66 O73 2.089 . S
Mn66 O82 2.290 . S
Mn66 O83 2.251 . S
O67 Mn64 2.160 . S
O67 C78 1.239 . S
O68 Mn64 2.221 . S
O68 Mn69 2.290 . S
O68 C79 1.278 . S
Mn69 O68 2.290 . S
Mn69 O71 2.089 . S
Mn69 O74 2.251 . S
Mn69 O75 2.087 . S
O70 Mn64 2.163 . S
O70 C80 1.244 . S
O71 Mn69 2.089 . S
O71 C78 1.256 . S
O72 Mn64 2.160 . S
O72 C81 1.239 . S
O73 Mn66 2.089 . S
O73 C81 1.256 . S
O74 Mn69 2.251 . S
O74 C79 1.241 . S
O75 Mn69 2.087 . S
O75 C80 1.256 . S
C76 O82 1.278 . S
C76 O83 1.241 . S
C77 O63 1.244 . S
C77 O65 1.256 . S
C78 O67 1.239 . S
C78 O71 1.256 . S
C79 O68 1.278 . S
C79 O74 1.241 . S
C80 O70 1.244 . S
C80 O75 1.256 . S
C81 O72 1.239 . S
C81 O73 1.256 . S
O82 Mn64 2.221 . S
O82 Mn66 2.290 . S
O82 C76 1.278 . S
O83 Mn66 2.251 . S
O83 C76 1.241 . S
O84 Mn85 2.163 . S
O84 C98 1.244 . S
Mn85 O84 2.163 . S
Mn85 O88 2.160 . S
Mn85 O89 2.221 1_565 S
Mn85 O91 2.163 . S
Mn85 O93 2.160 . S
Mn85 O103 2.221 . S
O86 Mn87 2.087 . S
O86 C98 1.256 . S
Mn87 O86 2.087 . S
Mn87 O94 2.089 . S
Mn87 O103 2.290 . S
Mn87 O104 2.251 . S
O88 Mn85 2.160 . S
O88 C99 1.239 . S
O89 Mn85 2.221 1_545 S
O89 Mn90 2.290 1_545 S
O89 C100 1.278 . S
Mn90 O89 2.290 1_565 S
Mn90 O92 2.089 . S
Mn90 O95 2.251 1_565 S
Mn90 O96 2.087 . S
O91 Mn85 2.163 . S
O91 C101 1.244 . S
O92 Mn90 2.089 . S
O92 C99 1.256 . S
O93 Mn85 2.160 . S
O93 C102 1.239 1_565 S
O94 Mn87 2.089 . S
O94 C102 1.256 1_565 S
O95 Mn90 2.251 1_545 S
O95 C100 1.241 . S
O96 Mn90 2.087 . S
O96 C101 1.256 . S
C97 O103 1.278 . S
C97 O104 1.241 . S
C98 O84 1.244 . S
C98 O86 1.256 . S
C99 O88 1.239 . S
C99 O92 1.256 . S
C100 O89 1.278 . S
C100 O95 1.241 . S
C101 O91 1.244 . S
C101 O96 1.256 . S
C102 O93 1.239 1_545 S
C102 O94 1.256 1_545 S
O103 Mn85 2.221 . S
O103 Mn87 2.290 . S
O103 C97 1.278 . S
O104 Mn87 2.251 . S
O104 C97 1.241 . S
O105 Mn106 2.163 . S
O105 C119 1.244 . S
Mn106 O105 2.163 . S
Mn106 O109 2.160 . S
Mn106 O110 2.221 1_455 S
Mn106 O112 2.163 . S
Mn106 O114 2.160 . S
Mn106 O124 2.221 . S
O107 Mn108 2.087 . S
O107 C119 1.256 . S
Mn108 O107 2.087 . S
Mn108 O115 2.089 . S
Mn108 O124 2.290 . S
Mn108 O125 2.251 . S
O109 Mn106 2.160 . S
O109 C120 1.239 . S
O110 Mn106 2.221 1_655 S
O110 Mn111 2.290 1_655 S
O110 C121 1.278 . S
Mn111 O110 2.290 1_455 S
Mn111 O113 2.089 . S
Mn111 O116 2.251 1_455 S
Mn111 O117 2.087 . S
O112 Mn106 2.163 . S
O112 C122 1.244 . S
O113 Mn111 2.089 . S
O113 C120 1.256 . S
O114 Mn106 2.160 . S
O114 C123 1.239 1_455 S
O115 Mn108 2.089 . S
O115 C123 1.256 1_455 S
O116 Mn111 2.251 1_655 S
O116 C121 1.241 . S
O117 Mn111 2.087 . S
O117 C122 1.256 . S
C118 O124 1.278 . S
C118 O125 1.241 . S
C119 O105 1.244 . S
C119 O107 1.256 . S
C120 O109 1.239 . S
C120 O113 1.256 . S
C121 O110 1.278 . S
C121 O116 1.241 . S
C122 O112 1.244 . S
C122 O117 1.256 . S
C123 O114 1.239 1_655 S
C123 O115 1.256 1_655 S
O124 Mn106 2.221 . S
O124 Mn108 2.290 . S
O124 C118 1.278 . S
O125 Mn108 2.251 . S
O125 C118 1.241 . S
O126 Mn127 2.163 . S
O126 C140 1.244 . S
Mn127 O126 2.163 . S
Mn127 O130 2.160 1_556 S
Mn127 O131 2.221 1_556 S
Mn127 O133 2.163 . S
Mn127 O135 2.160 . S
Mn127 O145 2.221 . S
O128 Mn129 2.087 . S
O128 C140 1.256 . S
Mn129 O128 2.087 . S
Mn129 O136 2.089 . S
Mn129 O145 2.290 . S
Mn129 O146 2.251 . S
O130 Mn127 2.160 1_554 S
O130 C141 1.239 . S
O131 Mn127 2.221 1_554 S
O131 Mn132 2.290 . S
O131 C142 1.278 . S
Mn132 O131 2.290 . S
Mn132 O134 2.089 . S
Mn132 O137 2.251 . S
Mn132 O138 2.087 . S
O133 Mn127 2.163 . S
O133 C143 1.244 . S
O134 Mn132 2.089 . S
O134 C141 1.256 . S
O135 Mn127 2.160 . S
O135 C144 1.239 . S
O136 Mn129 2.089 . S
O136 C144 1.256 . S
O137 Mn132 2.251 . S
O137 C142 1.241 . S
O138 Mn132 2.087 . S
O138 C143 1.256 1_554 S
C139 O145 1.278 . S
C139 O146 1.241 . S
C140 O126 1.244 . S
C140 O128 1.256 . S
C141 O130 1.239 . S
C141 O134 1.256 . S
C142 O131 1.278 . S
C142 O137 1.241 . S
C143 O133 1.244 . S
C143 O138 1.256 1_556 S
C144 O135 1.239 . S
C144 O136 1.256 . S
O145 Mn127 2.221 . S
O145 Mn129 2.290 . S
O145 C139 1.278 . S
O146 Mn129 2.251 . S
O146 C139 1.241 . S
O147 Mn148 2.163 . S
O147 C161 1.244 . S
Mn148 O147 2.163 . S
Mn148 O151 2.160 1_556 S
Mn148 O152 2.221 1_566 S
Mn148 O154 2.163 . S
Mn148 O156 2.160 . S
Mn148 O166 2.221 . S
O149 Mn150 2.087 . S
O149 C161 1.256 . S
Mn150 O149 2.087 . S
Mn150 O157 2.089 . S
Mn150 O166 2.290 . S
Mn150 O167 2.251 . S
O151 Mn148 2.160 1_554 S
O151 C162 1.239 . S
O152 Mn148 2.221 1_544 S
O152 Mn153 2.290 1_545 S
O152 C163 1.278 . S
Mn153 O152 2.290 1_565 S
Mn153 O155 2.089 . S
Mn153 O158 2.251 1_565 S
Mn153 O159 2.087 . S
O154 Mn148 2.163 . S
O154 C164 1.244 . S
O155 Mn153 2.089 . S
O155 C162 1.256 . S
O156 Mn148 2.160 . S
O156 C165 1.239 1_565 S
O157 Mn150 2.089 . S
O157 C165 1.256 1_565 S
O158 Mn153 2.251 1_545 S
O158 C163 1.241 . S
O159 Mn153 2.087 . S
O159 C164 1.256 1_554 S
C160 O166 1.278 . S
C160 O167 1.241 . S
C161 O147 1.244 . S
C161 O149 1.256 . S
C162 O151 1.239 . S
C162 O155 1.256 . S
C163 O152 1.278 . S
C163 O158 1.241 . S
C164 O154 1.244 . S
C164 O159 1.256 1_556 S
C165 O156 1.239 1_545 S
C165 O157 1.256 1_545 S
O166 Mn148 2.221 . S
O166 Mn150 2.290 . S
O166 C160 1.278 . S
O167 Mn150 2.251 . S
O167 C160 1.241 . S
O168 Mn169 2.163 . S
O168 C182 1.244 . S
Mn169 O168 2.163 . S
Mn169 O172 2.160 1_556 S
Mn169 O173 2.221 1_456 S
Mn169 O175 2.163 . S
Mn169 O177 2.160 . S
Mn169 O187 2.221 . S
O170 Mn171 2.087 . S
O170 C182 1.256 . S
Mn171 O170 2.087 . S
Mn171 O178 2.089 . S
Mn171 O187 2.290 . S
Mn171 O188 2.251 . S
O172 Mn169 2.160 1_554 S
O172 C183 1.239 . S
O173 Mn169 2.221 1_654 S
O173 Mn174 2.290 1_655 S
O173 C184 1.278 . S
Mn174 O173 2.290 1_455 S
Mn174 O176 2.089 . S
Mn174 O179 2.251 1_455 S
Mn174 O180 2.087 . S
O175 Mn169 2.163 . S
O175 C185 1.244 . S
O176 Mn174 2.089 . S
O176 C183 1.256 . S
O177 Mn169 2.160 . S
O177 C186 1.239 1_455 S
O178 Mn171 2.089 . S
O178 C186 1.256 1_455 S
O179 Mn174 2.251 1_655 S
O179 C184 1.241 . S
O180 Mn174 2.087 . S
O180 C185 1.256 1_554 S
C181 O187 1.278 . S
C181 O188 1.241 . S
C182 O168 1.244 . S
C182 O170 1.256 . S
C183 O172 1.239 . S
C183 O176 1.256 . S
C184 O173 1.278 . S
C184 O179 1.241 . S
C185 O175 1.244 . S
C185 O180 1.256 1_556 S
C186 O177 1.239 1_655 S
C186 O178 1.256 1_655 S
O187 Mn169 2.221 . S
O187 Mn171 2.290 . S
O187 C181 1.278 . S
O188 Mn171 2.251 . S
O188 C181 1.241 . S
O189 Mn190 2.163 . S
O189 C203 1.244 . S
Mn190 O189 2.163 . S
Mn190 O193 2.160 . S
Mn190 O194 2.221 . S
Mn190 O196 2.163 . S
Mn190 O198 2.160 . S
Mn190 O208 2.221 . S
O191 Mn192 2.087 . S
O191 C203 1.256 . S
Mn192 O191 2.087 . S
Mn192 O199 2.089 . S
Mn192 O208 2.290 . S
Mn192 O209 2.251 . S
O193 Mn190 2.160 . S
O193 C204 1.239 . S
O194 Mn190 2.221 . S
O194 Mn195 2.290 . S
O194 C205 1.278 . S
Mn195 O194 2.290 . S
Mn195 O197 2.089 . S
Mn195 O200 2.251 . S
Mn195 O201 2.087 . S
O196 Mn190 2.163 . S
O196 C206 1.244 . S
O197 Mn195 2.089 . S
O197 C204 1.256 . S
O198 Mn190 2.160 . S
O198 C207 1.239 . S
O199 Mn192 2.089 . S
O199 C207 1.256 . S
O200 Mn195 2.251 . S
O200 C205 1.241 . S
O201 Mn195 2.087 . S
O201 C206 1.256 . S
C202 O208 1.278 . S
C202 O209 1.241 . S
C203 O189 1.244 . S
C203 O191 1.256 . S
C204 O193 1.239 . S
C204 O197 1.256 . S
C205 O194 1.278 . S
C205 O200 1.241 . S
C206 O196 1.244 . S
C206 O201 1.256 . S
C207 O198 1.239 . S
C207 O199 1.256 . S
O208 Mn190 2.221 . S
O208 Mn192 2.290 . S
O208 C202 1.278 . S
O209 Mn192 2.251 . S
O209 C202 1.241 . S
O210 Mn211 2.163 . S
O210 C224 1.244 . S
Mn211 O210 2.163 . S
Mn211 O214 2.160 . S
Mn211 O215 2.221 1_545 S
Mn211 O217 2.163 . S
Mn211 O219 2.160 . S
Mn211 O229 2.221 . S
O212 Mn213 2.087 . S
O212 C224 1.256 . S
Mn213 O212 2.087 . S
Mn213 O220 2.089 . S
Mn213 O229 2.290 . S
Mn213 O230 2.251 . S
O214 Mn211 2.160 . S
O214 C225 1.239 . S
O215 Mn211 2.221 1_565 S
O215 Mn216 2.290 1_565 S
O215 C226 1.278 . S
Mn216 O215 2.290 1_545 S
Mn216 O218 2.089 . S
Mn216 O221 2.251 1_545 S
Mn216 O222 2.087 . S
O217 Mn211 2.163 . S
O217 C227 1.244 . S
O218 Mn216 2.089 . S
O218 C225 1.256 . S
O219 Mn211 2.160 . S
O219 C228 1.239 1_545 S
O220 Mn213 2.089 . S
O220 C228 1.256 1_545 S
O221 Mn216 2.251 1_565 S
O221 C226 1.241 . S
O222 Mn216 2.087 . S
O222 C227 1.256 . S
C223 O229 1.278 . S
C223 O230 1.241 . S
C224 O210 1.244 . S
C224 O212 1.256 . S
C225 O214 1.239 . S
C225 O218 1.256 . S
C226 O215 1.278 . S
C226 O221 1.241 . S
C227 O217 1.244 . S
C227 O222 1.256 . S
C228 O219 1.239 1_565 S
C228 O220 1.256 1_565 S
O229 Mn211 2.221 . S
O229 Mn213 2.290 . S
O229 C223 1.278 . S
O230 Mn213 2.251 . S
O230 C223 1.241 . S
O231 Mn232 2.163 . S
O231 C245 1.244 . S
Mn232 O231 2.163 . S
Mn232 O235 2.160 . S
Mn232 O236 2.221 1_655 S
Mn232 O238 2.163 . S
Mn232 O240 2.160 . S
Mn232 O250 2.221 . S
O233 Mn234 2.087 . S
O233 C245 1.256 . S
Mn234 O233 2.087 . S
Mn234 O241 2.089 . S
Mn234 O250 2.290 . S
Mn234 O251 2.251 . S
O235 Mn232 2.160 . S
O235 C246 1.239 . S
O236 Mn232 2.221 1_455 S
O236 Mn237 2.290 1_455 S
O236 C247 1.278 . S
Mn237 O236 2.290 1_655 S
Mn237 O239 2.089 . S
Mn237 O242 2.251 1_655 S
Mn237 O243 2.087 . S
O238 Mn232 2.163 . S
O238 C248 1.244 . S
O239 Mn237 2.089 . S
O239 C246 1.256 . S
O240 Mn232 2.160 . S
O240 C249 1.239 1_655 S
O241 Mn234 2.089 . S
O241 C249 1.256 1_655 S
O242 Mn237 2.251 1_455 S
O242 C247 1.241 . S
O243 Mn237 2.087 . S
O243 C248 1.256 . S
C244 O250 1.278 . S
C244 O251 1.241 . S
C245 O231 1.244 . S
C245 O233 1.256 . S
C246 O235 1.239 . S
C246 O239 1.256 . S
C247 O236 1.278 . S
C247 O242 1.241 . S
C248 O238 1.244 . S
C248 O243 1.256 . S
C249 O240 1.239 1_455 S
C249 O241 1.256 1_455 S
O250 Mn232 2.221 . S
O250 Mn234 2.290 . S
O250 C244 1.278 . S
O251 Mn234 2.251 . S
O251 C244 1.241 . S
O252 Mn253 2.163 . S
O252 C266 1.244 . S
Mn253 O252 2.163 . S
Mn253 O256 2.160 . S
Mn253 O257 2.221 . S
Mn253 O259 2.163 . S
Mn253 O261 2.160 . S
Mn253 O271 2.221 . S
O254 Mn255 2.087 . S
O254 C266 1.256 . S
Mn255 O254 2.087 . S
Mn255 O262 2.089 . S
Mn255 O271 2.290 . S
Mn255 O272 2.251 . S
O256 Mn253 2.160 . S
O256 C267 1.239 . S
O257 Mn253 2.221 . S
O257 Mn258 2.290 . S
O257 C268 1.278 . S
Mn258 O257 2.290 . S
Mn258 O260 2.089 . S
Mn258 O263 2.251 . S
Mn258 O264 2.087 . S
O259 Mn253 2.163 . S
O259 C269 1.244 . S
O260 Mn258 2.089 . S
O260 C267 1.256 . S
O261 Mn253 2.160 . S
O261 C270 1.239 . S
O262 Mn255 2.089 . S
O262 C270 1.256 . S
O263 Mn258 2.251 . S
O263 C268 1.241 . S
O264 Mn258 2.087 . S
O264 C269 1.256 . S
C265 O271 1.278 . S
C265 O272 1.241 . S
C266 O252 1.244 . S
C266 O254 1.256 . S
C267 O256 1.239 . S
C267 O260 1.256 . S
C268 O257 1.278 . S
C268 O263 1.241 . S
C269 O259 1.244 . S
C269 O264 1.256 . S
C270 O261 1.239 . S
C270 O262 1.256 . S
O271 Mn253 2.221 . S
O271 Mn255 2.290 . S
O271 C265 1.278 . S
O272 Mn255 2.251 . S
O272 C265 1.241 . S
O273 Mn274 2.163 . S
O273 C287 1.244 . S
Mn274 O273 2.163 . S
Mn274 O277 2.160 . S
Mn274 O278 2.221 . S
Mn274 O280 2.163 . S
Mn274 O282 2.160 . S
Mn274 O292 2.221 . S
O275 Mn276 2.087 . S
O275 C287 1.256 . S
Mn276 O275 2.087 . S
Mn276 O283 2.089 . S
Mn276 O292 2.290 . S
Mn276 O293 2.251 . S
O277 Mn274 2.160 . S
O277 C288 1.239 . S
O278 Mn274 2.221 . S
O278 Mn279 2.290 . S
O278 C289 1.278 . S
Mn279 O278 2.290 . S
Mn279 O281 2.089 . S
Mn279 O284 2.251 . S
Mn279 O285 2.087 . S
O280 Mn274 2.163 . S
O280 C290 1.244 . S
O281 Mn279 2.089 . S
O281 C288 1.256 . S
O282 Mn274 2.160 . S
O282 C291 1.239 . S
O283 Mn276 2.089 . S
O283 C291 1.256 . S
O284 Mn279 2.251 . S
O284 C289 1.241 . S
O285 Mn279 2.087 . S
O285 C290 1.256 . S
C286 O292 1.278 . S
C286 O293 1.241 . S
C287 O273 1.244 . S
C287 O275 1.256 . S
C288 O277 1.239 . S
C288 O281 1.256 . S
C289 O278 1.278 . S
C289 O284 1.241 . S
C290 O280 1.244 . S
C290 O285 1.256 . S
C291 O282 1.239 . S
C291 O283 1.256 . S
O292 Mn274 2.221 . S
O292 Mn276 2.290 . S
O292 C286 1.278 . S
O293 Mn276 2.251 . S
O293 C286 1.241 . S
O294 Mn295 2.163 . S
O294 C308 1.244 . S
Mn295 O294 2.163 . S
Mn295 O298 2.160 . S
Mn295 O299 2.221 . S
Mn295 O301 2.163 . S
Mn295 O303 2.160 . S
Mn295 O313 2.221 . S
O296 Mn297 2.087 . S
O296 C308 1.256 . S
Mn297 O296 2.087 . S
Mn297 O304 2.089 . S
Mn297 O313 2.290 . S
Mn297 O314 2.251 . S
O298 Mn295 2.160 . S
O298 C309 1.239 . S
O299 Mn295 2.221 . S
O299 Mn300 2.290 . S
O299 C310 1.278 . S
Mn300 O299 2.290 . S
Mn300 O302 2.089 . S
Mn300 O305 2.251 . S
Mn300 O306 2.087 . S
O301 Mn295 2.163 . S
O301 C311 1.244 . S
O302 Mn300 2.089 . S
O302 C309 1.256 . S
O303 Mn295 2.160 . S
O303 C312 1.239 . S
O304 Mn297 2.089 . S
O304 C312 1.256 . S
O305 Mn300 2.251 . S
O305 C310 1.241 . S
O306 Mn300 2.087 . S
O306 C311 1.256 . S
C307 O313 1.278 . S
C307 O314 1.241 . S
C308 O294 1.244 . S
C308 O296 1.256 . S
C309 O298 1.239 . S
C309 O302 1.256 . S
C310 O299 1.278 . S
C310 O305 1.241 . S
C311 O301 1.244 . S
C311 O306 1.256 . S
C312 O303 1.239 . S
C312 O304 1.256 . S
O313 Mn295 2.221 . S
O313 Mn297 2.290 . S
O313 C307 1.278 . S
O314 Mn297 2.251 . S
O314 C307 1.241 . S
O315 Mn316 2.163 . S
O315 C329 1.244 . S
Mn316 O315 2.163 . S
Mn316 O319 2.160 . S
Mn316 O320 2.221 . S
Mn316 O322 2.163 . S
Mn316 O324 2.160 . S
Mn316 O334 2.221 . S
O317 Mn318 2.087 . S
O317 C329 1.256 . S
Mn318 O317 2.087 . S
Mn318 O325 2.089 . S
Mn318 O334 2.290 . S
Mn318 O335 2.251 . S
O319 Mn316 2.160 . S
O319 C330 1.239 . S
O320 Mn316 2.221 . S
O320 Mn321 2.290 . S
O320 C331 1.278 . S
Mn321 O320 2.290 . S
Mn321 O323 2.089 . S
Mn321 O326 2.251 . S
Mn321 O327 2.087 . S
O322 Mn316 2.163 . S
O322 C332 1.244 . S
O323 Mn321 2.089 . S
O323 C330 1.256 . S
O324 Mn316 2.160 . S
O324 C333 1.239 . S
O325 Mn318 2.089 . S
O325 C333 1.256 . S
O326 Mn321 2.251 . S
O326 C331 1.241 . S
O327 Mn321 2.087 . S
O327 C332 1.256 . S
C328 O334 1.278 . S
C328 O335 1.241 . S
C329 O315 1.244 . S
C329 O317 1.256 . S
C330 O319 1.239 . S
C330 O323 1.256 . S
C331 O320 1.278 . S
C331 O326 1.241 . S
C332 O322 1.244 . S
C332 O327 1.256 . S
C333 O324 1.239 . S
C333 O325 1.256 . S
O334 Mn316 2.221 . S
O334 Mn318 2.290 . S
O334 C328 1.278 . S
O335 Mn318 2.251 . S
O335 C328 1.241 . S
O336 Mn337 2.163 . S
O336 C350 1.244 . S
Mn337 O336 2.163 . S
Mn337 O340 2.160 . S
Mn337 O341 2.221 . S
Mn337 O343 2.163 . S
Mn337 O345 2.160 . S
Mn337 O355 2.221 . S
O338 Mn339 2.087 . S
O338 C350 1.256 . S
Mn339 O338 2.087 . S
Mn339 O346 2.089 . S
Mn339 O355 2.290 . S
Mn339 O356 2.251 . S
O340 Mn337 2.160 . S
O340 C351 1.239 . S
O341 Mn337 2.221 . S
O341 Mn342 2.290 . S
O341 C352 1.278 . S
Mn342 O341 2.290 . S
Mn342 O344 2.089 . S
Mn342 O347 2.251 . S
Mn342 O348 2.087 . S
O343 Mn337 2.163 . S
O343 C353 1.244 . S
O344 Mn342 2.089 . S
O344 C351 1.256 . S
O345 Mn337 2.160 . S
O345 C354 1.239 . S
O346 Mn339 2.089 . S
O346 C354 1.256 . S
O347 Mn342 2.251 . S
O347 C352 1.241 . S
O348 Mn342 2.087 . S
O348 C353 1.256 . S
C349 O355 1.278 . S
C349 O356 1.241 . S
C350 O336 1.244 . S
C350 O338 1.256 . S
C351 O340 1.239 . S
C351 O344 1.256 . S
C352 O341 1.278 . S
C352 O347 1.241 . S
C353 O343 1.244 . S
C353 O348 1.256 . S
C354 O345 1.239 . S
C354 O346 1.256 . S
O355 Mn337 2.221 . S
O355 Mn339 2.290 . S
O355 C349 1.278 . S
O356 Mn339 2.251 . S
O356 C349 1.241 . S
O357 Mn358 2.163 . S
O357 C371 1.244 . S
Mn358 O357 2.163 . S
Mn358 O361 2.160 . S
Mn358 O362 2.221 . S
Mn358 O364 2.163 . S
Mn358 O366 2.160 . S
Mn358 O376 2.221 . S
O359 Mn360 2.087 . S
O359 C371 1.256 . S
Mn360 O359 2.087 . S
Mn360 O367 2.089 . S
Mn360 O376 2.290 . S
Mn360 O377 2.251 . S
O361 Mn358 2.160 . S
O361 C372 1.239 . S
O362 Mn358 2.221 . S
O362 Mn363 2.290 . S
O362 C373 1.278 . S
Mn363 O362 2.290 . S
Mn363 O365 2.089 . S
Mn363 O368 2.251 . S
Mn363 O369 2.087 . S
O364 Mn358 2.163 . S
O364 C374 1.244 . S
O365 Mn363 2.089 . S
O365 C372 1.256 . S
O366 Mn358 2.160 . S
O366 C375 1.239 . S
O367 Mn360 2.089 . S
O367 C375 1.256 . S
O368 Mn363 2.251 . S
O368 C373 1.241 . S
O369 Mn363 2.087 . S
O369 C374 1.256 . S
C370 O376 1.278 . S
C370 O377 1.241 . S
C371 O357 1.244 . S
C371 O359 1.256 . S
C372 O361 1.239 . S
C372 O365 1.256 . S
C373 O362 1.278 . S
C373 O368 1.241 . S
C374 O364 1.244 . S
C374 O369 1.256 . S
C375 O366 1.239 . S
C375 O367 1.256 . S
O376 Mn358 2.221 . S
O376 Mn360 2.290 . S
O376 C370 1.278 . S
O377 Mn360 2.251 . S
O377 C370 1.241 . S
O378 Mn379 2.163 . S
O378 C392 1.244 . S
Mn379 O378 2.163 . S
Mn379 O382 2.160 . S
Mn379 O383 2.221 . S
Mn379 O385 2.163 . S
Mn379 O387 2.160 . S
Mn379 O397 2.221 . S
O380 Mn381 2.087 . S
O380 C392 1.256 . S
Mn381 O380 2.087 . S
Mn381 O388 2.089 . S
Mn381 O397 2.290 . S
Mn381 O398 2.251 . S
O382 Mn379 2.160 . S
O382 C393 1.239 . S
O383 Mn379 2.221 . S
O383 Mn384 2.290 . S
O383 C394 1.278 . S
Mn384 O383 2.290 . S
Mn384 O386 2.089 . S
Mn384 O389 2.251 . S
Mn384 O390 2.087 . S
O385 Mn379 2.163 . S
O385 C395 1.244 . S
O386 Mn384 2.089 . S
O386 C393 1.256 . S
O387 Mn379 2.160 . S
O387 C396 1.239 . S
O388 Mn381 2.089 . S
O388 C396 1.256 . S
O389 Mn384 2.251 . S
O389 C394 1.241 . S
O390 Mn384 2.087 . S
O390 C395 1.256 . S
C391 O397 1.278 . S
C391 O398 1.241 . S
C392 O378 1.244 . S
C392 O380 1.256 . S
C393 O382 1.239 . S
C393 O386 1.256 . S
C394 O383 1.278 . S
C394 O389 1.241 . S
C395 O385 1.244 . S
C395 O390 1.256 . S
C396 O387 1.239 . S
C396 O388 1.256 . S
O397 Mn379 2.221 . S
O397 Mn381 2.290 . S
O397 C391 1.278 . S
O398 Mn381 2.251 . S
O398 C391 1.241 . S
O399 Mn400 2.163 . S
O399 C413 1.244 . S
Mn400 O399 2.163 . S
Mn400 O403 2.160 . S
Mn400 O404 2.221 . S
Mn400 O406 2.163 . S
Mn400 O408 2.160 . S
Mn400 O418 2.221 . S
O401 Mn402 2.087 . S
O401 C413 1.256 . S
Mn402 O401 2.087 . S
Mn402 O409 2.089 . S
Mn402 O418 2.290 . S
Mn402 O419 2.251 . S
O403 Mn400 2.160 . S
O403 C414 1.239 . S
O404 Mn400 2.221 . S
O404 Mn405 2.290 . S
O404 C415 1.278 . S
Mn405 O404 2.290 . S
Mn405 O407 2.089 . S
Mn405 O410 2.251 . S
Mn405 O411 2.087 . S
O406 Mn400 2.163 . S
O406 C416 1.244 . S
O407 Mn405 2.089 . S
O407 C414 1.256 . S
O408 Mn400 2.160 . S
O408 C417 1.239 . S
O409 Mn402 2.089 . S
O409 C417 1.256 . S
O410 Mn405 2.251 . S
O410 C415 1.241 . S
O411 Mn405 2.087 . S
O411 C416 1.256 . S
C412 O418 1.278 . S
C412 O419 1.241 . S
C413 O399 1.244 . S
C413 O401 1.256 . S
C414 O403 1.239 . S
C414 O407 1.256 . S
C415 O404 1.278 . S
C415 O410 1.241 . S
C416 O406 1.244 . S
C416 O411 1.256 . S
C417 O408 1.239 . S
C417 O409 1.256 . S
O418 Mn400 2.221 . S
O418 Mn402 2.290 . S
O418 C412 1.278 . S
O419 Mn402 2.251 . S
O419 C412 1.241 . S
O420 Mn421 2.163 . S
O420 C434 1.244 . S
Mn421 O420 2.163 . S
Mn421 O424 2.160 . S
Mn421 O425 2.221 . S
Mn421 O427 2.163 . S
Mn421 O429 2.160 . S
Mn421 O439 2.221 . S
O422 Mn423 2.087 . S
O422 C434 1.256 . S
Mn423 O422 2.087 . S
Mn423 O430 2.089 . S
Mn423 O439 2.290 . S
Mn423 O440 2.251 . S
O424 Mn421 2.160 . S
O424 C435 1.239 . S
O425 Mn421 2.221 . S
O425 Mn426 2.290 . S
O425 C436 1.278 . S
Mn426 O425 2.290 . S
Mn426 O428 2.089 . S
Mn426 O431 2.251 . S
Mn426 O432 2.087 . S
O427 Mn421 2.163 . S
O427 C437 1.244 . S
O428 Mn426 2.089 . S
O428 C435 1.256 . S
O429 Mn421 2.160 . S
O429 C438 1.239 . S
O430 Mn423 2.089 . S
O430 C438 1.256 . S
O431 Mn426 2.251 . S
O431 C436 1.241 . S
O432 Mn426 2.087 . S
O432 C437 1.256 . S
C433 O439 1.278 . S
C433 O440 1.241 . S
C434 O420 1.244 . S
C434 O422 1.256 . S
C435 O424 1.239 . S
C435 O428 1.256 . S
C436 O425 1.278 . S
C436 O431 1.241 . S
C437 O427 1.244 . S
C437 O432 1.256 . S
C438 O429 1.239 . S
C438 O430 1.256 . S
O439 Mn421 2.221 . S
O439 Mn423 2.290 . S
O439 C433 1.278 . S
O440 Mn423 2.251 . S
O440 C433 1.241 . S
O441 Mn442 2.163 . S
O441 C455 1.244 1_556 S
Mn442 O441 2.163 . S
Mn442 O445 2.160 . S
Mn442 O446 2.221 . S
Mn442 O448 2.163 . S
Mn442 O450 2.160 . S
Mn442 O460 2.221 . S
O443 Mn444 2.087 . S
O443 C455 1.256 . S
Mn444 O443 2.087 . S
Mn444 O451 2.089 . S
Mn444 O460 2.290 1_554 S
Mn444 O461 2.251 . S
O445 Mn442 2.160 . S
O445 C456 1.239 . S
O446 Mn442 2.221 . S
O446 Mn447 2.290 . S
O446 C457 1.278 . S
Mn447 O446 2.290 . S
Mn447 O449 2.089 . S
Mn447 O452 2.251 . S
Mn447 O453 2.087 . S
O448 Mn442 2.163 . S
O448 C458 1.244 . S
O449 Mn447 2.089 . S
O449 C456 1.256 . S
O450 Mn442 2.160 . S
O450 C459 1.239 . S
O451 Mn444 2.089 . S
O451 C459 1.256 1_554 S
O452 Mn447 2.251 . S
O452 C457 1.241 . S
O453 Mn447 2.087 . S
O453 C458 1.256 . S
C454 O460 1.278 1_554 S
C454 O461 1.241 . S
C455 O441 1.244 1_554 S
C455 O443 1.256 . S
C456 O445 1.239 . S
C456 O449 1.256 . S
C457 O446 1.278 . S
C457 O452 1.241 . S
C458 O448 1.244 . S
C458 O453 1.256 . S
C459 O450 1.239 . S
C459 O451 1.256 1_556 S
O460 Mn442 2.221 . S
O460 Mn444 2.290 1_556 S
O460 C454 1.278 1_556 S
O461 Mn444 2.251 . S
O461 C454 1.241 . S
O462 Mn463 2.163 . S
O462 C476 1.244 1_556 S
Mn463 O462 2.163 . S
Mn463 O466 2.160 . S
Mn463 O467 2.221 . S
Mn463 O469 2.163 . S
Mn463 O471 2.160 . S
Mn463 O481 2.221 . S
O464 Mn465 2.087 . S
O464 C476 1.256 . S
Mn465 O464 2.087 . S
Mn465 O472 2.089 . S
Mn465 O481 2.290 1_554 S
Mn465 O482 2.251 . S
O466 Mn463 2.160 . S
O466 C477 1.239 . S
O467 Mn463 2.221 . S
O467 Mn468 2.290 . S
O467 C478 1.278 . S
Mn468 O467 2.290 . S
Mn468 O470 2.089 . S
Mn468 O473 2.251 . S
Mn468 O474 2.087 . S
O469 Mn463 2.163 . S
O469 C479 1.244 . S
O470 Mn468 2.089 . S
O470 C477 1.256 . S
O471 Mn463 2.160 . S
O471 C480 1.239 . S
O472 Mn465 2.089 . S
O472 C480 1.256 1_554 S
O473 Mn468 2.251 . S
O473 C478 1.241 . S
O474 Mn468 2.087 . S
O474 C479 1.256 . S
C475 O481 1.278 1_554 S
C475 O482 1.241 . S
C476 O462 1.244 1_554 S
C476 O464 1.256 . S
C477 O466 1.239 . S
C477 O470 1.256 . S
C478 O467 1.278 . S
C478 O473 1.241 . S
C479 O469 1.244 . S
C479 O474 1.256 . S
C480 O471 1.239 . S
C480 O472 1.256 1_556 S
O481 Mn463 2.221 . S
O481 Mn465 2.290 1_556 S
O481 C475 1.278 1_556 S
O482 Mn465 2.251 . S
O482 C475 1.241 . S
O483 Mn484 2.163 . S
O483 C497 1.244 1_556 S
Mn484 O483 2.163 . S
Mn484 O487 2.160 . S
Mn484 O488 2.221 . S
Mn484 O490 2.163 . S
Mn484 O492 2.160 . S
Mn484 O502 2.221 . S
O485 Mn486 2.087 . S
O485 C497 1.256 . S
Mn486 O485 2.087 . S
Mn486 O493 2.089 . S
Mn486 O502 2.290 1_554 S
Mn486 O503 2.251 . S
O487 Mn484 2.160 . S
O487 C498 1.239 . S
O488 Mn484 2.221 . S
O488 Mn489 2.290 . S
O488 C499 1.278 . S
Mn489 O488 2.290 . S
Mn489 O491 2.089 . S
Mn489 O494 2.251 . S
Mn489 O495 2.087 . S
O490 Mn484 2.163 . S
O490 C500 1.244 . S
O491 Mn489 2.089 . S
O491 C498 1.256 . S
O492 Mn484 2.160 . S
O492 C501 1.239 . S
O493 Mn486 2.089 . S
O493 C501 1.256 1_554 S
O494 Mn489 2.251 . S
O494 C499 1.241 . S
O495 Mn489 2.087 . S
O495 C500 1.256 . S
C496 O502 1.278 1_554 S
C496 O503 1.241 . S
C497 O483 1.244 1_554 S
C497 O485 1.256 . S
C498 O487 1.239 . S
C498 O491 1.256 . S
C499 O488 1.278 . S
C499 O494 1.241 . S
C500 O490 1.244 . S
C500 O495 1.256 . S
C501 O492 1.239 . S
C501 O493 1.256 1_556 S
O502 Mn484 2.221 . S
O502 Mn486 2.290 1_556 S
O502 C496 1.278 1_556 S
O503 Mn486 2.251 . S
O503 C496 1.241 . S
O504 Mn505 2.163 . S
O504 C518 1.244 . S
Mn505 O504 2.163 . S
Mn505 O508 2.160 . S
Mn505 O509 2.221 . S
Mn505 O511 2.163 . S
Mn505 O513 2.160 . S
Mn505 O523 2.221 . S
O506 Mn507 2.087 . S
O506 C518 1.256 . S
Mn507 O506 2.087 . S
Mn507 O514 2.089 . S
Mn507 O523 2.290 . S
Mn507 O524 2.251 . S
O508 Mn505 2.160 . S
O508 C519 1.239 . S
O509 Mn505 2.221 . S
O509 Mn510 2.290 . S
O509 C520 1.278 . S
Mn510 O509 2.290 . S
Mn510 O512 2.089 . S
Mn510 O515 2.251 . S
Mn510 O516 2.087 . S
O511 Mn505 2.163 . S
O511 C521 1.244 . S
O512 Mn510 2.089 . S
O512 C519 1.256 . S
O513 Mn505 2.160 . S
O513 C522 1.239 . S
O514 Mn507 2.089 . S
O514 C522 1.256 . S
O515 Mn510 2.251 . S
O515 C520 1.241 . S
O516 Mn510 2.087 . S
O516 C521 1.256 . S
C517 O523 1.278 . S
C517 O524 1.241 . S
C518 O504 1.244 . S
C518 O506 1.256 . S
C519 O508 1.239 . S
C519 O512 1.256 . S
C520 O509 1.278 . S
C520 O515 1.241 . S
C521 O511 1.244 . S
C521 O516 1.256 . S
C522 O513 1.239 . S
C522 O514 1.256 . S
O523 Mn505 2.221 . S
O523 Mn507 2.290 . S
O523 C517 1.278 . S
O524 Mn507 2.251 . S
O524 C517 1.241 . S
O525 Mn526 2.163 . S
O525 C539 1.244 . S
Mn526 O525 2.163 . S
Mn526 O529 2.160 . S
Mn526 O530 2.221 . S
Mn526 O532 2.163 . S
Mn526 O534 2.160 . S
Mn526 O544 2.221 . S
O527 Mn528 2.087 . S
O527 C539 1.256 . S
Mn528 O527 2.087 . S
Mn528 O535 2.089 . S
Mn528 O544 2.290 . S
Mn528 O545 2.251 . S
O529 Mn526 2.160 . S
O529 C540 1.239 . S
O530 Mn526 2.221 . S
O530 Mn531 2.290 . S
O530 C541 1.278 . S
Mn531 O530 2.290 . S
Mn531 O533 2.089 . S
Mn531 O536 2.251 . S
Mn531 O537 2.087 . S
O532 Mn526 2.163 . S
O532 C542 1.244 . S
O533 Mn531 2.089 . S
O533 C540 1.256 . S
O534 Mn526 2.160 . S
O534 C543 1.239 . S
O535 Mn528 2.089 . S
O535 C543 1.256 . S
O536 Mn531 2.251 . S
O536 C541 1.241 . S
O537 Mn531 2.087 . S
O537 C542 1.256 . S
C538 O544 1.278 . S
C538 O545 1.241 . S
C539 O525 1.244 . S
C539 O527 1.256 . S
C540 O529 1.239 . S
C540 O533 1.256 . S
C541 O530 1.278 . S
C541 O536 1.241 . S
C542 O532 1.244 . S
C542 O537 1.256 . S
C543 O534 1.239 . S
C543 O535 1.256 . S
O544 Mn526 2.221 . S
O544 Mn528 2.290 . S
O544 C538 1.278 . S
O545 Mn528 2.251 . S
O545 C538 1.241 . S
O546 Mn547 2.163 . S
O546 C560 1.244 . S
Mn547 O546 2.163 . S
Mn547 O550 2.160 . S
Mn547 O551 2.221 . S
Mn547 O553 2.163 . S
Mn547 O555 2.160 . S
Mn547 O565 2.221 . S
O548 Mn549 2.087 . S
O548 C560 1.256 . S
Mn549 O548 2.087 . S
Mn549 O556 2.089 . S
Mn549 O565 2.290 . S
Mn549 O566 2.251 . S
O550 Mn547 2.160 . S
O550 C561 1.239 . S
O551 Mn547 2.221 . S
O551 Mn552 2.290 . S
O551 C562 1.278 . S
Mn552 O551 2.290 . S
Mn552 O554 2.089 . S
Mn552 O557 2.251 . S
Mn552 O558 2.087 . S
O553 Mn547 2.163 . S
O553 C563 1.244 . S
O554 Mn552 2.089 . S
O554 C561 1.256 . S
O555 Mn547 2.160 . S
O555 C564 1.239 . S
O556 Mn549 2.089 . S
O556 C564 1.256 . S
O557 Mn552 2.251 . S
O557 C562 1.241 . S
O558 Mn552 2.087 . S
O558 C563 1.256 . S
C559 O565 1.278 . S
C559 O566 1.241 . S
C560 O546 1.244 . S
C560 O548 1.256 . S
C561 O550 1.239 . S
C561 O554 1.256 . S
C562 O551 1.278 . S
C562 O557 1.241 . S
C563 O553 1.244 . S
C563 O558 1.256 . S
C564 O555 1.239 . S
C564 O556 1.256 . S
O565 Mn547 2.221 . S
O565 Mn549 2.290 . S
O565 C559 1.278 . S
O566 Mn549 2.251 . S
O566 C559 1.241 . S
O567 Mn568 2.163 . S
O567 C581 1.244 1_554 S
Mn568 O567 2.163 . S
Mn568 O571 2.160 . S
Mn568 O572 2.221 . S
Mn568 O574 2.163 . S
Mn568 O576 2.160 . S
Mn568 O586 2.221 . S
O569 Mn570 2.087 . S
O569 C581 1.256 . S
Mn570 O569 2.087 . S
Mn570 O577 2.089 . S
Mn570 O586 2.290 1_556 S
Mn570 O587 2.251 . S
O571 Mn568 2.160 . S
O571 C582 1.239 . S
O572 Mn568 2.221 . S
O572 Mn573 2.290 . S
O572 C583 1.278 . S
Mn573 O572 2.290 . S
Mn573 O575 2.089 . S
Mn573 O578 2.251 . S
Mn573 O579 2.087 . S
O574 Mn568 2.163 . S
O574 C584 1.244 . S
O575 Mn573 2.089 . S
O575 C582 1.256 . S
O576 Mn568 2.160 . S
O576 C585 1.239 . S
O577 Mn570 2.089 . S
O577 C585 1.256 1_556 S
O578 Mn573 2.251 . S
O578 C583 1.241 . S
O579 Mn573 2.087 . S
O579 C584 1.256 . S
C580 O586 1.278 1_556 S
C580 O587 1.241 . S
C581 O567 1.244 1_556 S
C581 O569 1.256 . S
C582 O571 1.239 . S
C582 O575 1.256 . S
C583 O572 1.278 . S
C583 O578 1.241 . S
C584 O574 1.244 . S
C584 O579 1.256 . S
C585 O576 1.239 . S
C585 O577 1.256 1_554 S
O586 Mn568 2.221 . S
O586 Mn570 2.290 1_554 S
O586 C580 1.278 1_554 S
O587 Mn570 2.251 . S
O587 C580 1.241 . S
O588 Mn589 2.163 . S
O588 C602 1.244 1_554 S
Mn589 O588 2.163 . S
Mn589 O592 2.160 . S
Mn589 O593 2.221 . S
Mn589 O595 2.163 . S
Mn589 O597 2.160 . S
Mn589 O607 2.221 . S
O590 Mn591 2.087 . S
O590 C602 1.256 . S
Mn591 O590 2.087 . S
Mn591 O598 2.089 . S
Mn591 O607 2.290 1_556 S
Mn591 O608 2.251 . S
O592 Mn589 2.160 . S
O592 C603 1.239 . S
O593 Mn589 2.221 . S
O593 Mn594 2.290 . S
O593 C604 1.278 . S
Mn594 O593 2.290 . S
Mn594 O596 2.089 . S
Mn594 O599 2.251 . S
Mn594 O600 2.087 . S
O595 Mn589 2.163 . S
O595 C605 1.244 . S
O596 Mn594 2.089 . S
O596 C603 1.256 . S
O597 Mn589 2.160 . S
O597 C606 1.239 . S
O598 Mn591 2.089 . S
O598 C606 1.256 1_556 S
O599 Mn594 2.251 . S
O599 C604 1.241 . S
O600 Mn594 2.087 . S
O600 C605 1.256 . S
C601 O607 1.278 1_556 S
C601 O608 1.241 . S
C602 O588 1.244 1_556 S
C602 O590 1.256 . S
C603 O592 1.239 . S
C603 O596 1.256 . S
C604 O593 1.278 . S
C604 O599 1.241 . S
C605 O595 1.244 . S
C605 O600 1.256 . S
C606 O597 1.239 . S
C606 O598 1.256 1_554 S
O607 Mn589 2.221 . S
O607 Mn591 2.290 1_554 S
O607 C601 1.278 1_554 S
O608 Mn591 2.251 . S
O608 C601 1.241 . S
O609 Mn610 2.163 . S
O609 C623 1.244 1_554 S
Mn610 O609 2.163 . S
Mn610 O613 2.160 . S
Mn610 O614 2.221 . S
Mn610 O616 2.163 . S
Mn610 O618 2.160 . S
Mn610 O628 2.221 . S
O611 Mn612 2.087 . S
O611 C623 1.256 . S
Mn612 O611 2.087 . S
Mn612 O619 2.089 . S
Mn612 O628 2.290 1_556 S
Mn612 O629 2.251 . S
O613 Mn610 2.160 . S
O613 C624 1.239 . S
O614 Mn610 2.221 . S
O614 Mn615 2.290 . S
O614 C625 1.278 . S
Mn615 O614 2.290 . S
Mn615 O617 2.089 . S
Mn615 O620 2.251 . S
Mn615 O621 2.087 . S
O616 Mn610 2.163 . S
O616 C626 1.244 . S
O617 Mn615 2.089 . S
O617 C624 1.256 . S
O618 Mn610 2.160 . S
O618 C627 1.239 . S
O619 Mn612 2.089 . S
O619 C627 1.256 1_556 S
O620 Mn615 2.251 . S
O620 C625 1.241 . S
O621 Mn615 2.087 . S
O621 C626 1.256 . S
C622 O628 1.278 1_556 S
C622 O629 1.241 . S
C623 O609 1.244 1_556 S
C623 O611 1.256 . S
C624 O613 1.239 . S
C624 O617 1.256 . S
C625 O614 1.278 . S
C625 O620 1.241 . S
C626 O616 1.244 . S
C626 O621 1.256 . S
C627 O618 1.239 . S
C627 O619 1.256 1_554 S
O628 Mn610 2.221 . S
O628 Mn612 2.290 1_554 S
O628 C622 1.278 1_554 S
O629 Mn612 2.251 . S
O629 C622 1.241 . S
O630 Mn631 2.163 . S
O630 C644 1.244 . S
Mn631 O630 2.163 . S
Mn631 O634 2.160 . S
Mn631 O635 2.221 . S
Mn631 O637 2.163 . S
Mn631 O639 2.160 . S
Mn631 O649 2.221 . S
O632 Mn633 2.087 . S
O632 C644 1.256 . S
Mn633 O632 2.087 . S
Mn633 O640 2.089 . S
Mn633 O649 2.290 . S
Mn633 O650 2.251 . S
O634 Mn631 2.160 . S
O634 C645 1.239 . S
O635 Mn631 2.221 . S
O635 Mn636 2.290 . S
O635 C646 1.278 . S
Mn636 O635 2.290 . S
Mn636 O638 2.089 . S
Mn636 O641 2.251 . S
Mn636 O642 2.087 . S
O637 Mn631 2.163 . S
O637 C647 1.244 . S
O638 Mn636 2.089 . S
O638 C645 1.256 . S
O639 Mn631 2.160 . S
O639 C648 1.239 . S
O640 Mn633 2.089 . S
O640 C648 1.256 . S
O641 Mn636 2.251 . S
O641 C646 1.241 . S
O642 Mn636 2.087 . S
O642 C647 1.256 . S
C643 O649 1.278 . S
C643 O650 1.241 . S
C644 O630 1.244 . S
C644 O632 1.256 . S
C645 O634 1.239 . S
C645 O638 1.256 . S
C646 O635 1.278 . S
C646 O641 1.241 . S
C647 O637 1.244 . S
C647 O642 1.256 . S
C648 O639 1.239 . S
C648 O640 1.256 . S
O649 Mn631 2.221 . S
O649 Mn633 2.290 . S
O649 C643 1.278 . S
O650 Mn633 2.251 . S
O650 C643 1.241 . S
O651 Mn652 2.163 . S
O651 C665 1.244 . S
Mn652 O651 2.163 . S
Mn652 O655 2.160 . S
Mn652 O656 2.221 . S
Mn652 O658 2.163 . S
Mn652 O660 2.160 . S
Mn652 O670 2.221 . S
O653 Mn654 2.087 . S
O653 C665 1.256 . S
Mn654 O653 2.087 . S
Mn654 O661 2.089 . S
Mn654 O670 2.290 . S
Mn654 O671 2.251 . S
O655 Mn652 2.160 . S
O655 C666 1.239 . S
O656 Mn652 2.221 . S
O656 Mn657 2.290 . S
O656 C667 1.278 . S
Mn657 O656 2.290 . S
Mn657 O659 2.089 . S
Mn657 O662 2.251 . S
Mn657 O663 2.087 . S
O658 Mn652 2.163 . S
O658 C668 1.244 . S
O659 Mn657 2.089 . S
O659 C666 1.256 . S
O660 Mn652 2.160 . S
O660 C669 1.239 . S
O661 Mn654 2.089 . S
O661 C669 1.256 . S
O662 Mn657 2.251 . S
O662 C667 1.241 . S
O663 Mn657 2.087 . S
O663 C668 1.256 . S
C664 O670 1.278 . S
C664 O671 1.241 . S
C665 O651 1.244 . S
C665 O653 1.256 . S
C666 O655 1.239 . S
C666 O659 1.256 . S
C667 O656 1.278 . S
C667 O662 1.241 . S
C668 O658 1.244 . S
C668 O663 1.256 . S
C669 O660 1.239 . S
C669 O661 1.256 . S
O670 Mn652 2.221 . S
O670 Mn654 2.290 . S
O670 C664 1.278 . S
O671 Mn654 2.251 . S
O671 C664 1.241 . S
O672 Mn673 2.163 . S
O672 C686 1.244 . S
Mn673 O672 2.163 . S
Mn673 O676 2.160 . S
Mn673 O677 2.221 . S
Mn673 O679 2.163 . S
Mn673 O681 2.160 . S
Mn673 O691 2.221 . S
O674 Mn675 2.087 . S
O674 C686 1.256 . S
Mn675 O674 2.087 . S
Mn675 O682 2.089 . S
Mn675 O691 2.290 . S
Mn675 O692 2.251 . S
O676 Mn673 2.160 . S
O676 C687 1.239 . S
O677 Mn673 2.221 . S
O677 Mn678 2.290 . S
O677 C688 1.278 . S
Mn678 O677 2.290 . S
Mn678 O680 2.089 . S
Mn678 O683 2.251 . S
Mn678 O684 2.087 . S
O679 Mn673 2.163 . S
O679 C689 1.244 . S
O680 Mn678 2.089 . S
O680 C687 1.256 . S
O681 Mn673 2.160 . S
O681 C690 1.239 . S
O682 Mn675 2.089 . S
O682 C690 1.256 . S
O683 Mn678 2.251 . S
O683 C688 1.241 . S
O684 Mn678 2.087 . S
O684 C689 1.256 . S
C685 O691 1.278 . S
C685 O692 1.241 . S
C686 O672 1.244 . S
C686 O674 1.256 . S
C687 O676 1.239 . S
C687 O680 1.256 . S
C688 O677 1.278 . S
C688 O683 1.241 . S
C689 O679 1.244 . S
C689 O684 1.256 . S
C690 O681 1.239 . S
C690 O682 1.256 . S
O691 Mn673 2.221 . S
O691 Mn675 2.290 . S
O691 C685 1.278 . S
O692 Mn675 2.251 . S
O692 C685 1.241 . S
O693 Mn694 2.163 . S
O693 C707 1.244 . S
Mn694 O693 2.163 . S
Mn694 O697 2.160 . S
Mn694 O698 2.221 . S
Mn694 O700 2.163 . S
Mn694 O702 2.160 . S
Mn694 O712 2.221 . S
O695 Mn696 2.087 . S
O695 C707 1.256 . S
Mn696 O695 2.087 . S
Mn696 O703 2.089 . S
Mn696 O712 2.290 . S
Mn696 O713 2.251 . S
O697 Mn694 2.160 . S
O697 C708 1.239 . S
O698 Mn694 2.221 . S
O698 Mn699 2.290 . S
O698 C709 1.278 . S
Mn699 O698 2.290 . S
Mn699 O701 2.089 . S
Mn699 O704 2.251 . S
Mn699 O705 2.087 . S
O700 Mn694 2.163 . S
O700 C710 1.244 . S
O701 Mn699 2.089 . S
O701 C708 1.256 . S
O702 Mn694 2.160 . S
O702 C711 1.239 . S
O703 Mn696 2.089 . S
O703 C711 1.256 . S
O704 Mn699 2.251 . S
O704 C709 1.241 . S
O705 Mn699 2.087 . S
O705 C710 1.256 . S
C706 O712 1.278 . S
C706 O713 1.241 . S
C707 O693 1.244 . S
C707 O695 1.256 . S
C708 O697 1.239 . S
C708 O701 1.256 . S
C709 O698 1.278 . S
C709 O704 1.241 . S
C710 O700 1.244 . S
C710 O705 1.256 . S
C711 O702 1.239 . S
C711 O703 1.256 . S
O712 Mn694 2.221 . S
O712 Mn696 2.290 . S
O712 C706 1.278 . S
O713 Mn696 2.251 . S
O713 C706 1.241 . S
O714 Mn715 2.163 . S
O714 C728 1.244 . S
Mn715 O714 2.163 . S
Mn715 O718 2.160 . S
Mn715 O719 2.221 . S
Mn715 O721 2.163 . S
Mn715 O723 2.160 . S
Mn715 O733 2.221 . S
O716 Mn717 2.087 . S
O716 C728 1.256 . S
Mn717 O716 2.087 . S
Mn717 O724 2.089 . S
Mn717 O733 2.290 . S
Mn717 O734 2.251 . S
O718 Mn715 2.160 . S
O718 C729 1.239 . S
O719 Mn715 2.221 . S
O719 Mn720 2.290 . S
O719 C730 1.278 . S
Mn720 O719 2.290 . S
Mn720 O722 2.089 . S
Mn720 O725 2.251 . S
Mn720 O726 2.087 . S
O721 Mn715 2.163 . S
O721 C731 1.244 . S
O722 Mn720 2.089 . S
O722 C729 1.256 . S
O723 Mn715 2.160 . S
O723 C732 1.239 . S
O724 Mn717 2.089 . S
O724 C732 1.256 . S
O725 Mn720 2.251 . S
O725 C730 1.241 . S
O726 Mn720 2.087 . S
O726 C731 1.256 . S
C727 O733 1.278 . S
C727 O734 1.241 . S
C728 O714 1.244 . S
C728 O716 1.256 . S
C729 O718 1.239 . S
C729 O722 1.256 . S
C730 O719 1.278 . S
C730 O725 1.241 . S
C731 O721 1.244 . S
C731 O726 1.256 . S
C732 O723 1.239 . S
C732 O724 1.256 . S
O733 Mn715 2.221 . S
O733 Mn717 2.290 . S
O733 C727 1.278 . S
O734 Mn717 2.251 . S
O734 C727 1.241 . S
O735 Mn736 2.163 . S
O735 C749 1.244 . S
Mn736 O735 2.163 . S
Mn736 O739 2.160 . S
Mn736 O740 2.221 . S
Mn736 O742 2.163 . S
Mn736 O744 2.160 . S
Mn736 O754 2.221 . S
O737 Mn738 2.087 . S
O737 C749 1.256 . S
Mn738 O737 2.087 . S
Mn738 O745 2.089 . S
Mn738 O754 2.290 . S
Mn738 O755 2.251 . S
O739 Mn736 2.160 . S
O739 C750 1.239 . S
O740 Mn736 2.221 . S
O740 Mn741 2.290 . S
O740 C751 1.278 . S
Mn741 O740 2.290 . S
Mn741 O743 2.089 . S
Mn741 O746 2.251 . S
Mn741 O747 2.087 . S
O742 Mn736 2.163 . S
O742 C752 1.244 . S
O743 Mn741 2.089 . S
O743 C750 1.256 . S
O744 Mn736 2.160 . S
O744 C753 1.239 . S
O745 Mn738 2.089 . S
O745 C753 1.256 . S
O746 Mn741 2.251 . S
O746 C751 1.241 . S
O747 Mn741 2.087 . S
O747 C752 1.256 . S
C748 O754 1.278 . S
C748 O755 1.241 . S
C749 O735 1.244 . S
C749 O737 1.256 . S
C750 O739 1.239 . S
C750 O743 1.256 . S
C751 O740 1.278 . S
C751 O746 1.241 . S
C752 O742 1.244 . S
C752 O747 1.256 . S
C753 O744 1.239 . S
C753 O745 1.256 . S
O754 Mn736 2.221 . S
O754 Mn738 2.290 . S
O754 C748 1.278 . S
O755 Mn738 2.251 . S
O755 C748 1.241 . S
C17 C163 1.273 . S
C184 C38 1.273 . S
C142 C59 1.273 . S
C247 C80 1.273 . S
C101 C205 1.273 . S
C122 C226 1.273 . S
C37 C143 1.273 . S
C164 C58 1.273 . S
C16 C185 1.273 . S
C121 C206 1.273 . S
C227 C79 1.273 . S
C248 C100 1.273 . S
C269 C415 1.273 . S
C436 C290 1.273 . S
C394 C311 1.273 . S
C332 C499 1.273 . S
C457 C353 1.273 . S
C374 C478 1.273 . S
C395 C289 1.273 . S
C310 C416 1.273 . S
C437 C268 1.273 . S
C373 C458 1.273 . S
C331 C479 1.273 . S
C500 C352 1.273 . S
C521 C667 1.273 . S
C542 C688 1.273 . S
C646 C563 1.273 . S
C751 C584 1.273 . S
C605 C709 1.273 . S
C730 C626 1.273 . S
C541 C647 1.273 . S
C668 C562 1.273 . S
C520 C689 1.273 . S
C710 C625 1.273 . S
C731 C583 1.273 . S
C752 C604 1.273 . S
C13 C391 0.985 . S
C34 C412 0.986 . S
C433 C55 0.986 . S
C706 C76 0.985 . S
C727 C97 0.986 . S
C748 C118 0.986 . S
C139 C517 0.985 . S
C538 C160 0.986 . S
C181 C559 0.986 . S
C202 C328 0.985 . S
C223 C349 0.986 . S
C244 C370 0.986 . S
C265 C643 0.986 1_655 S
C664 C286 0.986 . S
C307 C685 0.986 1_545 S
C580 C454 0.986 1_566 S
C475 C601 0.986 1_654 S
C622 C496 0.986 1_556 S
C15 C351 2.188 . S
C36 C372 2.188 . S
C330 C57 2.188 . S
C78 C561 2.188 . S
C519 C99 2.188 . S
C120 C540 2.188 . S
C729 C141 2.188 . S
C162 C750 2.188 . S
C708 C183 2.188 . S
C204 C435 2.188 . S
C225 C393 2.188 . S
C246 C414 2.188 . S
C603 C267 2.188 1_455 S
C288 C624 2.188 . S
C309 C582 2.188 1_545 S
C687 C456 2.188 1_565 S
C645 C477 2.188 1_455 S
C666 C498 2.188 . S
C77 C14 1.333 . S
C35 C98 1.333 1_545 S
C56 C119 1.333 1_655 S
C203 C140 1.333 . S
C161 C224 1.333 1_565 S
C245 C182 1.333 1_655 S
C329 C266 1.333 . S
C287 C350 1.333 . S
C308 C371 1.333 . S
C392 C455 1.333 . S
C413 C476 1.333 . S
C434 C497 1.333 . S
C518 C581 1.333 . S
C602 C539 1.333 . S
C623 C560 1.333 . S
C644 C707 1.333 . S
C728 C665 1.333 . S
C686 C749 1.333 . S
C18 C627 2.114 . S
C585 C39 2.114 . S
C60 C606 2.114 . S
C291 C81 2.114 . S
C102 C312 2.114 . S
C123 C270 2.114 . S
C501 C144 2.114 . S
C165 C459 2.114 . S
C480 C186 2.114 . S
C207 C669 2.114 . S
C690 C228 2.114 . S
C648 C249 2.114 . S
C333 C543 2.114 1_655 S
C354 C564 2.114 . S
C375 C522 2.114 1_545 S
C396 C753 2.114 1_545 S
C417 C711 2.114 1_655 S
C732 C438 2.114 . S
