# Generated by pormake.
# Topology rob, (6)-cn, num edge types: 1
# Building blocks:
#     Node 0, Type 0, BuildingBlock: KUMBUR_clean_sbu_0, # of connection points: 6
#     Node 1, Type 0, BuildingBlock: KUMBUR_clean_sbu_0, # of connection points: 6
#     Node 2, Type 0, BuildingBlock: KUMBUR_clean_sbu_0, # of connection points: 6
#     Node 3, Type 0, BuildingBlock: KUMBUR_clean_sbu_0, # of connection points: 6
#     Edge 4, Type (0, 0), BuildingBlock: CIFDUS_clean_linker_0, # of connection points: 2
#     Edge 5, Type (0, 0), BuildingBlock: CIFDUS_clean_linker_0, # of connection points: 2
#     Edge 6, Type (0, 0), BuildingBlock: CIFDUS_clean_linker_0, # of connection points: 2
#     Edge 7, Type (0, 0), BuildingBlock: CIFDUS_clean_linker_0, # of connection points: 2
#     Edge 8, Type (0, 0), BuildingBlock: CIFDUS_clean_linker_0, # of connection points: 2
#     Edge 9, Type (0, 0), BuildingBlock: CIFDUS_clean_linker_0, # of connection points: 2
#     Edge 10, Type (0, 0), BuildingBlock: CIFDUS_clean_linker_0, # of connection points: 2
#     Edge 11, Type (0, 0), BuildingBlock: CIFDUS_clean_linker_0, # of connection points: 2
#     Edge 12, Type (0, 0), BuildingBlock: CIFDUS_clean_linker_0, # of connection points: 2
#     Edge 13, Type (0, 0), BuildingBlock: CIFDUS_clean_linker_0, # of connection points: 2
#     Edge 14, Type (0, 0), BuildingBlock: CIFDUS_clean_linker_0, # of connection points: 2
#     Edge 15, Type (0, 0), BuildingBlock: CIFDUS_clean_linker_0, # of connection points: 2
# Relax obj value: 0.037
# Max RMSD: 0.166
# Mean RMSD: 0.166
data_MOF--net-rob--node1-KUMBUR_clean_sbu_0--edge1-CIFDUS_clean_linker_0
_symmetry_space_group_name_H-M    P1
_symmetry_Int_Tables_number       1
_symmetry_cell_setting            triclinic
loop_
_symmetry_equiv_pos_as_xyz
'x, y, z'
_cell_length_a     14.694478
_cell_length_b     22.099193
_cell_length_c     30.375411
_cell_angle_alpha  117.91179
_cell_angle_beta   90.544333
_cell_angle_gamma 89.879497
loop_
_atom_site_label
_atom_site_type_symbol
_atom_site_fract_x
_atom_site_fract_y
_atom_site_fract_z
_atom_type_partial_charge
Tb0 Tb 0.19032 0.32511 0.07643 0.0
C1 C 0.41358 0.06326 0.95602 0.0
C2 C 0.55481 0.08175 1.00226 0.0
C3 C 0.50045 0.96594 0.94946 0.0
C4 C 0.47705 0.10754 0.9892 0.0
C5 C 0.42501 0.99188 0.93529 0.0
C6 C 0.56587 1.0107 0.98247 0.0
C7 C 0.28956 0.97713 0.8857 0.0
N8 N 0.34174 0.09033 0.94299 0.0
C9 C 0.28146 0.04834 0.90695 0.0
C10 C 0.36117 0.94872 0.90028 0.0
Tb11 Tb 0.33616 0.20745 0.97954 0.0
N12 N 0.46463 0.1758 1.00685 0.0
C13 C 0.53049 0.22099 0.03573 0.0
C14 C 0.61972 0.12806 0.03419 0.0
C15 C 0.60787 0.198 0.0506 0.0
H16 H 0.22607 0.06926 0.8949 0.0
H17 H 0.65864 0.23425 0.07442 0.0
H18 H 0.62416 0.98999 0.99296 0.0
H19 H 0.24076 0.94422 0.85791 0.0
H20 H 0.52346 0.27513 0.04805 0.0
H21 H 0.86919 0.27965 0.97725 0.0
H22 H 0.67997 0.11028 0.04548 0.0
H23 H 0.29418 0.4696 0.15625 0.0
H24 H 0.0088 0.24688 1.00578 0.0
H25 H 0.27199 0.59366 0.18831 0.0
H26 H 0.50818 0.91133 0.93525 0.0
H27 H 0.83728 0.40169 1.00358 0.0
H28 H 0.88389 0.52497 0.05384 0.0
H29 H 0.36767 0.89353 0.88355 0.0
H30 H 0.99724 0.60919 0.10763 0.0
N31 N 0.0593 0.3491 0.0461 0.0
C32 C 0.99708 0.30032 1.01714 0.0
C33 C 0.89916 0.38755 1.01606 0.0
C34 C 0.9608 0.43745 0.0476 0.0
C35 C 0.91714 0.31868 1.00103 0.0
C36 C 0.04146 0.41628 0.0619 0.0
H37 H 0.13974 0.63612 0.15993 0.0
N38 N 0.17744 0.44146 0.1084 0.0
C39 C 0.22409 0.55775 0.16163 0.0
C40 C 0.10283 0.4641 0.09399 0.0
C41 C 0.23649 0.48727 0.14324 0.0
C42 C 0.14937 0.58153 0.14553 0.0
C43 C 0.08671 0.53457 0.11204 0.0
O44 O 0.19986 0.34524 0.15111 0.0
O45 O 0.30239 0.25531 0.05711 0.0
O46 O 0.26104 0.14565 1.00498 0.0
O47 O 0.13727 0.21775 0.04203 0.0
O48 O 0.31601 0.34566 0.12006 0.0
O49 O 0.0739 0.31001 0.11086 0.0
O50 O 0.32607 0.19389 0.90678 0.0
O51 O 0.22586 0.27872 0.99942 0.0
O52 O 0.27216 0.38616 0.05156 0.0
O53 O 0.3951 0.3123 1.01583 0.0
O54 O 0.2093 0.19094 0.93653 0.0
O55 O 0.45503 0.21933 0.9455 0.0
C56 C 0.35466 0.28747 0.0939 0.0
C57 C 0.06725 0.37714 0.19927 0.0
C58 C 0.98874 0.39706 0.27574 0.0
C59 C 0.02508 0.35165 0.22883 0.0
C60 C -0.00184 0.46791 0.29295 0.0
C61 C 0.07094 0.44807 0.21647 0.0
C62 C 0.03751 0.49311 0.26324 0.0
C63 C 0.17796 0.1568 0.0235 0.0
C64 C 0.11544 0.32993 0.1535 0.0
C65 C 0.00826 0.5558 0.09648 0.0
C66 C 0.9445 0.50757 0.0651 0.0
C67 C 0.17376 0.25049 0.96206 0.0
C68 C 0.45378 0.16016 0.8567 0.0
C69 C 0.46726 0.18598 0.82314 0.0
C70 C 0.4915 0.14252 0.77356 0.0
C71 C 0.50423 0.07235 0.7584 0.0
C72 C 0.46761 0.09042 0.84138 0.0
C73 C 0.49295 0.04678 0.79234 0.0
C74 C 0.35697 0.37401 0.03464 0.0
C75 C 0.41164 0.20562 0.90427 0.0
H76 H 0.02123 0.29684 0.21545 0.0
H77 H 0.97624 0.50387 0.32992 0.0
H78 H 0.1021 0.46892 0.19459 0.0
H79 H 0.04365 0.54779 0.27689 0.0
H80 H 0.45703 0.2402 0.83574 0.0
H81 H 0.52142 0.03716 0.72026 0.0
H82 H 0.45662 0.06945 0.86666 0.0
H83 H 0.50176 0.99276 0.78041 0.0
Tb84 Tb 0.70005 0.80448 0.06548 0.0
C85 C 0.95157 0.56173 0.95796 0.0
C86 C 0.08887 0.59083 1.00819 0.0
C87 C 0.04153 0.47205 0.96143 0.0
C88 C 0.01004 0.61055 0.99138 0.0
C89 C 0.96658 0.4918 0.94232 0.0
C90 C 0.10424 0.52114 0.99308 0.0
C91 C 0.83639 0.46619 0.8873 0.0
N92 N 0.88021 0.583 0.9403 0.0
C93 C 0.82513 0.53629 0.90349 0.0
C94 C 0.90607 0.444 0.9078 0.0
Tb95 Tb 0.86088 0.69876 0.9736 0.0
N96 N 0.99174 0.67722 1.00554 0.0
C97 C 0.0529 0.72686 0.03446 0.0
C98 C 0.1497 0.64165 0.03951 0.0
C99 C 0.13221 0.70991 0.05213 0.0
H100 H 0.7699 0.55317 0.88824 0.0
H101 H 0.17952 0.74963 0.07571 0.0
H102 H 0.16306 0.50481 1.00647 0.0
H103 H 0.79066 0.42945 0.85958 0.0
H104 H 0.04078 0.77991 0.04473 0.0
H105 H 0.38927 0.7651 0.95799 0.0
H106 H 0.21071 0.62868 0.05354 0.0
H107 H 0.78551 0.94534 0.16033 0.0
H108 H 0.52653 0.72972 0.98619 0.0
H109 H 0.75823 0.06923 0.20022 0.0
H110 H 0.05082 0.41914 0.95249 0.0
H111 H 0.35179 0.88801 0.99239 0.0
H112 H 0.39277 1.01062 0.05074 0.0
H113 H 0.91333 0.39001 0.89626 0.0
H114 H 0.50025 0.09309 0.11232 0.0
N115 N 0.57067 0.83166 0.03533 0.0
C116 C 0.51266 0.78366 1.00149 0.0
C117 C 0.41281 0.87275 1.00491 0.0
C118 C 0.47047 0.92155 0.04075 0.0
C119 C 0.43388 0.80344 0.98537 0.0
C120 C 0.54948 0.89899 0.05541 0.0
H121 H 0.63174 0.11576 0.17092 0.0
N122 N 0.67699 0.92059 0.10735 0.0
C123 C 0.71492 0.03494 0.1697 0.0
C124 C 0.60536 0.9452 0.09235 0.0
C125 C 0.73006 0.96426 0.1468 0.0
C126 C 0.64368 0.06102 0.15303 0.0
C127 C 0.58695 0.01586 0.11446 0.0
O128 O 0.69794 0.81739 0.13852 0.0
O129 O 0.81797 0.7399 0.04916 0.0
O130 O 0.78322 0.63325 0.99664 0.0
O131 O 0.65172 0.69814 0.02106 0.0
O132 O 0.82166 0.82745 0.11301 0.0
O133 O 0.58885 0.76485 0.0869 0.0
O134 O 0.8729 0.6646 0.89633 0.0
O135 O 0.74535 0.76471 0.98997 0.0
O136 O 0.77677 0.87499 0.04877 0.0
O137 O 0.90576 0.80802 1.013 0.0
O138 O 0.74234 0.67896 0.92411 0.0
O139 O 0.96645 0.73891 0.94919 0.0
C140 C 0.86566 0.77156 0.08803 0.0
C141 C 0.558 0.8118 0.17256 0.0
C142 C 0.49032 0.80351 0.24219 0.0
C143 C 0.54573 0.77618 0.2001 0.0
C144 C 0.44552 0.86615 0.25565 0.0
C145 C 0.51327 0.87405 0.18627 0.0
C146 C 0.45677 0.90095 0.22773 0.0
C147 C 0.6957 0.64001 1.00832 0.0
C148 C 0.62177 0.7843 0.13141 0.0
C149 C 0.51187 0.039 0.09788 0.0
C150 C 0.45188 0.99197 0.06226 0.0
C151 C 0.69986 0.7353 0.95013 0.0
C152 C 0.02043 0.67095 0.8677 0.0
C153 C 0.02554 0.68034 0.82511 0.0
C154 C 0.10284 0.65912 0.79428 0.0
C155 C 0.1739 0.62665 0.80679 0.0
C156 C 0.09092 0.63714 0.87856 0.0
C157 C 0.16708 0.6149 0.84803 0.0
C158 C 0.86197 0.86788 0.03319 0.0
C159 C 0.94469 0.70224 0.9023 0.0
H160 H 0.58145 0.72845 0.18972 0.0
H161 H 0.40154 0.8881 0.28779 0.0
H162 H 0.52277 0.9019 0.1653 0.0
H163 H 0.42227 0.94914 0.23853 0.0
H164 H 0.96932 0.7051 0.81666 0.0
H165 H 0.23581 0.61113 0.78535 0.0
H166 H 0.0881 0.62941 0.91115 0.0
H167 H 0.22206 0.5897 0.85697 0.0
Tb168 Tb 0.13462 0.71584 0.48516 0.0
C169 C 0.41863 0.95347 0.57482 0.0
C170 C 0.55368 0.9127 0.52474 0.0
C171 C 0.51656 0.0338 0.56401 0.0
C172 C 0.47395 0.90019 0.54475 0.0
C173 C 0.44022 0.02127 0.58599 0.0
C174 C 0.57389 0.97972 0.53387 0.0
C175 C 0.31221 0.059 0.64162 0.0
N176 N 0.34392 0.93875 0.59373 0.0
C177 C 0.29293 0.99066 0.62871 0.0
C178 C 0.38476 0.07423 0.6191 0.0
Tb179 Tb 0.3123 0.82519 0.56717 0.0
N180 N 0.44877 0.83586 0.53456 0.0
C181 C 0.50508 0.7819 0.50729 0.0
C182 C 0.60991 0.85742 0.49577 0.0
C183 C 0.58598 0.79187 0.48753 0.0
H184 H 0.23516 0.97948 0.64537 0.0
H185 H 0.62932 0.74872 0.46543 0.0
H186 H 0.63351 0.99024 0.51788 0.0
H187 H 0.2701 0.09972 0.66819 0.0
H188 H 0.48811 0.73048 0.49946 0.0
H189 H 0.83903 0.79863 0.60386 0.0
H190 H 0.67186 0.86481 0.47979 0.0
H191 H 0.20434 0.56108 0.40319 0.0
H192 H 0.97822 0.81438 0.56666 0.0
H193 H 0.16102 0.44124 0.37618 0.0
H194 H 0.53197 0.08507 0.57026 0.0
H195 H 0.78396 0.68202 0.58144 0.0
H196 H 0.80253 0.55524 0.52928 0.0
H197 H 0.39824 0.12691 0.62813 0.0
H198 H 0.89225 0.4582 0.46984 0.0
N199 N 0.00791 0.70756 0.5258 0.0
C200 C 0.95747 0.76298 0.55725 0.0
C201 C 0.84664 0.68863 0.56565 0.0
C202 C 0.8959 0.63213 0.53166 0.0
C203 C 0.8775 0.75442 0.57835 0.0
C204 C 0.97755 0.64347 0.51258 0.0
H205 H 0.02961 0.41519 0.41462 0.0
N206 N 0.10042 0.60282 0.45791 0.0
C207 C 0.12229 0.48243 0.40468 0.0
C208 C 0.02587 0.58912 0.47756 0.0
C209 C 0.1467 0.55061 0.42028 0.0
C210 C 0.0475 0.46782 0.42602 0.0
C211 C 0.99606 0.52143 0.46145 0.0
O212 O 0.11867 0.684 0.40831 0.0
O213 O 0.25817 0.77243 0.49209 0.0
O214 O 0.23555 0.88589 0.53906 0.0
O215 O 0.09878 0.82539 0.51915 0.0
O216 O 0.24288 0.67961 0.43031 0.0
O217 O 0.0217 0.7515 0.46099 0.0
O218 O 0.3288 0.8672 0.64525 0.0
O219 O 0.19104 0.76679 0.55909 0.0
O220 O 0.2162 0.65181 0.50836 0.0
O221 O 0.35084 0.71606 0.53126 0.0
O222 O 0.19884 0.85888 0.61978 0.0
O223 O 0.40734 0.78041 0.59464 0.0
C224 C 0.29571 0.73181 0.4515 0.0
C225 C 0.96939 0.68161 0.37841 0.0
C226 C 0.89269 0.65346 0.29864 0.0
C227 C 0.95914 0.69057 0.33569 0.0
C228 C 0.83662 0.60757 0.30661 0.0
C229 C 0.90992 0.63819 0.38602 0.0
C230 C 0.84356 0.60178 0.35038 0.0
C231 C 0.14719 0.88058 0.52803 0.0
C232 C 0.04332 0.71775 0.41417 0.0
C233 C 0.91564 0.50965 0.48085 0.0
C234 C 0.86505 0.56494 0.51533 0.0
C235 C 0.15097 0.80385 0.59922 0.0
C236 C 0.46965 0.84612 0.67456 0.0
C237 C 0.47728 0.82581 0.71182 0.0
C238 C 0.55658 0.84003 0.74143 0.0
C239 C 0.62746 0.87672 0.73361 0.0
C240 C 0.54062 0.88269 0.6674 0.0
C241 C 0.61905 0.89819 0.69709 0.0
C242 C 0.30461 0.6589 0.51987 0.0
C243 C 0.39049 0.82247 0.64099 0.0
H244 H 0.0032 0.72723 0.33232 0.0
H245 H 0.78726 0.57506 0.27926 0.0
H246 H 0.9155 0.63164 0.41903 0.0
H247 H 0.79849 0.56754 0.35615 0.0
H248 H 0.42152 0.79787 0.7171 0.0
H249 H 0.69026 0.88769 0.75491 0.0
H250 H 0.53593 0.89821 0.63852 0.0
H251 H 0.67414 0.92606 0.69131 0.0
Tb252 Tb 0.64634 0.2198 0.47842 0.0
C253 C 0.90394 0.46679 0.59248 0.0
C254 C 0.03818 0.44513 0.54173 0.0
C255 C 0.99655 0.56187 0.59981 0.0
C256 C 0.96016 0.42129 0.55566 0.0
C257 C 0.9222 0.5376 0.61554 0.0
C258 C 0.05576 0.51579 0.56381 0.0
C259 C 0.79728 0.55455 0.67109 0.0
N260 N 0.83363 0.44119 0.60729 0.0
C261 C 0.78265 0.48374 0.64759 0.0
C262 C 0.86665 0.58175 0.65457 0.0
Tb263 Tb 0.81746 0.32439 0.56693 0.0
N264 N 0.94158 0.35342 0.53581 0.0
C265 C 0.00161 0.30641 0.50389 0.0
C266 C 0.09677 0.3972 0.50668 0.0
C267 C 0.07884 0.32747 0.48804 0.0
H268 H 0.72909 0.46361 0.66104 0.0
H269 H 0.12499 0.28985 0.4619 0.0
H270 H 0.11422 0.53536 0.55296 0.0
H271 H 0.75531 0.58805 0.70209 0.0
H272 H 0.99032 0.25236 0.4905 0.0
H273 H 0.36041 0.32326 0.60541 0.0
H274 H 0.15692 0.41344 0.49466 0.0
H275 H 0.68968 0.06566 0.39186 0.0
H276 H 0.50179 0.32995 0.56743 0.0
H277 H 0.60205 0.95863 0.34625 0.0
H278 H 0.00823 0.61618 0.6152 0.0
H279 H 0.28771 0.21137 0.58127 0.0
H280 H 0.28377 0.0858 0.52356 0.0
H281 H 0.87846 0.63656 0.6731 0.0
H282 H 0.34438 0.98737 0.4497 0.0
N283 N 0.51647 0.2213 0.52191 0.0
C284 C 0.4734 0.27986 0.55559 0.0
C285 C 0.35172 0.2136 0.56465 0.0
C286 C 0.39193 0.15447 0.52796 0.0
C287 C 0.39208 0.27672 0.57798 0.0
C288 C 0.47598 0.15992 0.50781 0.0
H289 H 0.45089 0.94787 0.37867 0.0
N290 N 0.593 0.11129 0.44992 0.0
C291 C 0.57788 0.99816 0.38162 0.0
C292 C 0.51381 0.10341 0.46913 0.0
C293 C 0.6273 0.05879 0.40758 0.0
C294 C 0.49466 0.99085 0.40039 0.0
C295 C 0.46443 0.04173 0.44596 0.0
O296 O 0.63502 0.18363 0.40078 0.0
O297 O 0.76736 0.28124 0.49078 0.0
O298 O 0.73584 0.39641 0.55207 0.0
O299 O 0.60936 0.32803 0.51275 0.0
O300 O 0.76068 0.18961 0.42721 0.0
O301 O 0.54438 0.26097 0.45176 0.0
O302 O 0.94202 0.30118 0.59127 0.0
O303 O 0.70267 0.25835 0.55126 0.0
O304 O 0.73035 0.14872 0.49301 0.0
O305 O 0.86213 0.21596 0.52469 0.0
O306 O 0.70466 0.34169 0.61848 0.0
O307 O 0.82504 0.33279 0.63855 0.0
C308 C 0.80933 0.24389 0.45087 0.0
C309 C 0.48632 0.18603 0.37179 0.0
C310 C 0.40924 0.15623 0.29257 0.0
C311 C 0.48688 0.17959 0.32371 0.0
C312 C 0.33336 0.13427 0.30953 0.0
C313 C 0.41001 0.16422 0.38796 0.0
C314 C 0.33461 0.13731 0.35652 0.0
C315 C 0.65078 0.38812 0.53514 0.0
C316 C 0.56344 0.22058 0.40529 0.0
C317 C 0.38242 0.03498 0.46656 0.0
C318 C 0.34756 0.091 0.50842 0.0
C319 C 0.66111 0.2857 0.59183 0.0
C320 C 0.96535 0.35409 0.67928 0.0
C321 C 0.98155 0.32655 0.71195 0.0
C322 C 0.0221 0.36636 0.75909 0.0
C323 C 0.04725 0.43439 0.77242 0.0
C324 C 0.99234 0.42132 0.69293 0.0
C325 C 0.03328 0.46113 0.7393 0.0
C326 C 0.81813 0.1561 0.50622 0.0
C327 C 0.90956 0.31442 0.63459 0.0
H328 H 0.54742 0.19513 0.31153 0.0
H329 H 0.27136 0.11726 0.28762 0.0
H330 H 0.40762 0.16949 0.42511 0.0
H331 H 0.27549 0.12115 0.36934 0.0
H332 H 0.961 0.27422 0.70066 0.0
H333 H 0.07613 0.4676 0.80878 0.0
H334 H 0.9798 0.44355 0.66845 0.0
H335 H 0.05235 0.51342 0.75002 0.0
H336 H 0.51745 0.63725 0.03152 0.0
H337 H 0.76005 0.51304 0.98899 0.0
H338 H 0.67691 0.42005 0.99307 0.0
H339 H 0.53599 0.37454 1.01011 0.0
H340 H 0.29582 0.50148 0.05526 0.0
H341 H 0.37845 0.59317 0.04998 0.0
C342 C 0.55271 0.59002 0.02316 0.0
C343 C 0.64512 0.58231 1.00941 0.0
C344 C 0.50518 0.53733 0.02674 0.0
C345 C 0.68889 0.52041 0.99893 0.0
C346 C 0.64154 0.46728 1.00167 0.0
C347 C 0.50162 0.42229 0.01895 0.0
C348 C 0.40947 0.43078 0.03332 0.0
C349 C 0.54971 0.47523 1.01573 0.0
C350 C 0.36657 0.49327 0.04456 0.0
C351 C 0.41375 0.54584 0.04128 0.0
H352 H 0.48088 0.65972 0.54982 0.0
H353 H 0.24434 0.52869 0.49395 0.0
H354 H 0.33055 0.4345 0.49453 0.0
H355 H 0.47269 0.38916 0.5094 0.0
H356 H 0.70546 0.522 0.57171 0.0
H357 H 0.61985 0.61667 0.57083 0.0
C358 C 0.44743 0.61083 0.53784 0.0
C359 C 0.35598 0.60141 0.52095 0.0
C360 C 0.49676 0.55736 0.53951 0.0
C361 C 0.31464 0.53744 0.50621 0.0
C362 C 0.36388 0.48356 0.50682 0.0
C363 C 0.5054 0.43865 0.5228 0.0
C364 C 0.59718 0.4477 0.53909 0.0
C365 C 0.45506 0.49289 0.52308 0.0
C366 C 0.63638 0.51299 0.55755 0.0
C367 C 0.58711 0.56717 0.55728 0.0
H368 H -0.00018 0.14771 0.04653 0.0
H369 H 0.25089 0.03327 1.00385 0.0
H370 H 0.17654 0.93536 1.00375 0.0
H371 H 0.04026 0.8805 1.01459 0.0
H372 H 0.78844 0.99369 0.05776 0.0
H373 H 0.86313 0.09307 0.05931 0.0
C374 C 0.03824 0.10139 0.03724 0.0
C375 C 0.13066 0.09802 0.02449 0.0
C376 C 0.99501 0.04465 0.03752 0.0
C377 C 0.17934 0.03745 1.01292 0.0
C378 C 0.13698 0.98117 1.0131 0.0
C379 C 0.00159 0.92688 0.02449 0.0
C380 C 0.90885 0.92926 0.03617 0.0
C381 C 0.04478 0.98397 0.02508 0.0
C382 C 0.86015 0.99018 0.04898 0.0
C383 C 0.90272 0.04719 0.04967 0.0
H384 H 0.99588 0.15114 0.53124 0.0
H385 H 0.75371 0.02635 0.47744 0.0
H386 H 0.83327 0.93113 0.4804 0.0
H387 H 0.97059 0.88413 0.49987 0.0
H388 H 0.2144 1.00735 0.54984 0.0
H389 H 0.13323 0.10333 0.54868 0.0
C390 C 0.9603 0.10307 0.51981 0.0
C391 C 0.86852 0.09631 0.50416 0.0
C392 C 0.00646 0.0484 0.52158 0.0
C393 C 0.82417 0.03332 0.48959 0.0
C394 C 0.86965 0.97875 0.49139 0.0
C395 C 0.00673 0.93166 0.51024 0.0
C396 C 0.09874 0.93851 0.52584 0.0
C397 C 0.96073 0.98585 0.50759 0.0
C398 C 0.14359 1.00073 0.53871 0.0
C399 C 0.09758 0.0554 0.53739 0.0
H400 H 0.49588 0.24856 0.27076 0.0
H401 H 0.31056 0.07609 0.20667 0.0
H402 H 0.28399 0.09733 0.13584 0.0
H403 H 0.30506 0.17018 0.09569 0.0
H404 H 0.49534 0.3383 0.15822 0.0
H405 H 0.53461 0.30912 0.22439 0.0
C406 C 0.45214 0.21352 0.24082 0.0
C407 C 0.40414 0.16141 0.24523 0.0
C408 C 0.43937 0.22443 0.19935 0.0
C409 C 0.34615 0.11828 0.20574 0.0
C410 C 0.33127 0.13 0.16486 0.0
C411 C 0.3572 0.19901 0.12273 0.0
C412 C 0.39796 0.25598 0.12197 0.0
C413 C 0.37618 0.18384 0.16183 0.0
C414 C 0.46421 0.29367 0.15791 0.0
C415 C 0.48552 0.27764 0.19606 0.0
H416 H 0.52616 0.85628 0.33935 0.0
H417 H 0.43847 0.67013 0.21426 0.0
H418 H 0.38965 0.62543 0.27094 0.0
H419 H 0.34731 0.6493 0.35662 0.0
H420 H 0.35805 0.85853 0.47158 0.0
H421 H 0.4616 0.88695 0.42242 0.0
C422 C 0.4917 0.80785 0.32501 0.0
C423 C 0.47999 0.76901 0.27355 0.0
C424 C 0.45133 0.78743 0.35733 0.0
C425 C 0.44638 0.70182 0.25412 0.0
C426 C 0.41739 0.67681 0.28651 0.0
C427 C 0.3727 0.70121 0.37089 0.0
C428 C 0.35461 0.75041 0.42054 0.0
C429 C 0.41533 0.7207 0.33823 0.0
C430 C 0.38145 0.81817 0.43668 0.0
C431 C 0.43687 0.83505 0.4072 0.0
H432 H 0.58656 0.68322 0.87043 0.0
H433 H 0.73526 0.86636 0.96691 0.0
H434 H 0.70612 0.91357 0.91051 0.0
H435 H 0.63964 0.90321 0.83305 0.0
H436 H 0.49671 0.7177 0.73373 0.0
H437 H 0.51694 0.67359 0.79315 0.0
C438 C 0.6098 0.73446 0.87985 0.0
C439 C 0.66205 0.77136 0.92341 0.0
C440 C 0.59242 0.76166 0.84695 0.0
C441 C 0.69361 0.837 0.93452 0.0
C442 C 0.67783 0.8639 0.90173 0.0
C443 C 0.61356 0.85283 0.82403 0.0
C444 C 0.56668 0.81416 0.77871 0.0
C445 C 0.62762 0.82664 0.85774 0.0
C446 C 0.53169 0.74953 0.76855 0.0
C447 C 0.54385 0.72381 0.8024 0.0
H448 H 0.5218 0.3142 0.65651 0.0
H449 H 0.74188 0.1731 0.58826 0.0
H450 H 0.70745 0.11488 0.63666 0.0
H451 H 0.61915 0.10706 0.70142 0.0
H452 H 0.39106 0.24258 0.76643 0.0
H453 H 0.42253 0.29869 0.71559 0.0
C454 C 0.55948 0.26892 0.65078 0.0
C455 C 0.63083 0.24553 0.61648 0.0
C456 C 0.53846 0.23508 0.67869 0.0
C457 C 0.68316 0.1896 0.61186 0.0
C458 C 0.66467 0.15707 0.64049 0.0
C459 C 0.57512 0.14796 0.7039 0.0
C460 C 0.50402 0.17123 0.73846 0.0
C461 C 0.59246 0.17935 0.67403 0.0
C462 C 0.44811 0.22478 0.74122 0.0
C463 C 0.46564 0.25677 0.71196 0.0
H464 H 0.77335 0.68211 0.10737 0.0
H465 H 0.02376 0.79649 0.14128 0.0
H466 H 0.05895 0.76422 0.20653 0.0
H467 H 0.01323 0.70931 0.25665 0.0
H468 H 0.74238 0.62135 0.2349 0.0
H469 H 0.72256 0.6354 0.1616 0.0
C470 C 0.83698 0.69814 0.12801 0.0
C471 C 0.89833 0.73855 0.1177 0.0
C472 C 0.85243 0.68483 0.16838 0.0
C473 C 0.97795 0.76229 0.14669 0.0
C474 C 0.99687 0.7452 0.18482 0.0
C475 C 0.94856 0.6943 0.23727 0.0
C476 C 0.88053 0.6631 0.25273 0.0
C477 C 0.93347 0.70767 0.19675 0.0
C478 C 0.79881 0.64293 0.22444 0.0
C479 C 0.78611 0.65196 0.18229 0.0
H480 H 0.76599 0.35108 0.43498 0.0
H481 H 0.95761 0.18644 0.39466 0.0
H482 H 0.02892 0.21642 0.33479 0.0
H483 H 0.03646 0.2904 0.29399 0.0
H484 H 0.83442 0.44801 0.32945 0.0
H485 H 0.76616 0.41889 0.38982 0.0
C486 C 0.82454 0.32282 0.41374 0.0
C487 C 0.85975 0.26897 0.42086 0.0
C488 C 0.86167 0.33791 0.37744 0.0
C489 C 0.93209 0.23001 0.39112 0.0
C490 C 0.97192 0.2465 0.35643 0.0
C491 C 0.97666 0.31761 0.31432 0.0
C492 C 0.94194 0.37238 0.30779 0.0
C493 C 0.93695 0.30019 0.34899 0.0
C494 C 0.86427 0.40699 0.33465 0.0
C495 C 0.82472 0.39012 0.36906 0.0
H496 H 0.16215 0.3928 0.82525 0.0
H497 H 0.91432 0.27457 0.77305 0.0
H498 H 0.93791 0.22907 0.83155 0.0
H499 H 0.02799 0.22476 0.89966 0.0
H500 H 0.27025 0.34832 0.95283 0.0
H501 H 0.24839 0.39093 0.89334 0.0
C502 C 0.11226 0.3579 0.82693 0.0
C503 C 0.03646 0.33767 0.79453 0.0
C504 C 0.12463 0.33333 0.86161 0.0
C505 C 0.97437 0.29054 0.7967 0.0
C506 C 0.98727 0.26479 0.83058 0.0
C507 C 0.07414 0.26261 0.8991 0.0
C508 C 0.14811 0.28593 0.93272 0.0
C509 C 0.0615 0.28662 0.86383 0.0
C510 C 0.2099 0.33249 0.92987 0.0
C511 C 0.19879 0.35559 0.89466 0.0
H512 H 0.19872 0.68632 0.60156 0.0
H513 H 0.03096 0.86573 0.67428 0.0
H514 H -0.00126 0.83632 0.74102 0.0
H515 H 0.03086 0.76579 0.78211 0.0
H516 H 0.19308 0.58258 0.70617 0.0
H517 H 0.21913 0.60982 0.63856 0.0
C518 C 0.15305 0.71796 0.63108 0.0
C519 C 0.11552 0.77734 0.63232 0.0
C520 C 0.13761 0.70198 0.67005 0.0
C521 C 0.05898 0.819 0.67205 0.0
C522 C 0.04155 0.80261 0.71045 0.0
C523 C 0.06995 0.73046 0.75039 0.0
C524 C 0.1111 0.6726 0.75041 0.0
C525 C 0.08202 0.74489 0.71033 0.0
C526 C 0.163 0.62884 0.70874 0.0
C527 C 0.1774 0.64397 0.66955 0.0
loop_
_geom_bond_atom_site_label_1
_geom_bond_atom_site_label_2
_geom_bond_distance
_geom_bond_site_symmetry_2
_ccdc_geom_bond_type
Tb0 N31 2.671 . S
Tb0 N38 2.600 . S
Tb0 O44 2.546 . S
Tb0 O45 2.610 . S
Tb0 O47 2.320 . S
Tb0 O48 2.552 . S
Tb0 O49 2.413 . S
Tb0 O51 2.362 1_554 S
Tb0 O52 2.421 . S
Tb0 C64 2.833 . S
C1 C4 1.432 . S
C1 C5 1.414 . S
C1 N8 1.359 . S
C2 C4 1.417 1_554 S
C2 C6 1.432 . S
C2 C14 1.410 . S
C3 C5 1.444 . S
C3 C6 1.317 1_556 S
C3 H26 0.929 1_545 S
C4 C1 1.432 . S
C4 C2 1.417 1_556 S
C4 N12 1.353 . S
C5 C1 1.414 . S
C5 C3 1.444 . S
C5 C10 1.385 1_545 S
C6 C2 1.432 . S
C6 C3 1.317 1_554 S
C6 H18 0.930 . S
C7 C9 1.392 1_565 S
C7 C10 1.370 . S
C7 H19 0.931 . S
N8 C1 1.359 . S
N8 C9 1.327 . S
N8 Tb11 2.600 . S
C9 C7 1.392 1_545 S
C9 N8 1.327 . S
C9 H16 0.930 . S
C10 C5 1.385 1_565 S
C10 C7 1.370 . S
C10 H29 0.930 . S
Tb11 N8 2.600 . S
Tb11 N12 2.669 . S
Tb11 O45 2.362 1_556 S
Tb11 O46 2.421 . S
Tb11 O50 2.546 . S
Tb11 O51 2.610 . S
Tb11 O53 2.320 . S
Tb11 O54 2.552 . S
Tb11 O55 2.413 . S
Tb11 C75 2.833 . S
N12 C4 1.353 . S
N12 Tb11 2.669 . S
N12 C13 1.301 1_556 S
C13 N12 1.301 1_554 S
C13 C15 1.407 . S
C13 H20 0.930 . S
C14 C2 1.410 . S
C14 C15 1.345 . S
C14 H22 0.930 . S
C15 C13 1.407 . S
C15 C14 1.345 . S
C15 H17 0.930 . S
H16 C9 0.930 . S
H17 C15 0.930 . S
H18 C6 0.930 . S
H19 C7 0.931 . S
H20 C13 0.930 . S
H21 C35 0.930 . S
H22 C14 0.930 . S
H23 C41 0.930 . S
H24 C32 0.930 . S
H25 C39 0.931 . S
H26 C3 0.929 1_565 S
H27 C33 0.930 . S
H28 C66 0.930 1_556 S
H29 C10 0.930 . S
H30 C65 0.929 . S
N31 Tb0 2.671 . S
N31 C32 1.299 1_454 S
N31 C36 1.354 1_455 S
C32 H24 0.930 . S
C32 N31 1.299 1_656 S
C32 C35 1.407 . S
C33 H27 0.930 . S
C33 C34 1.410 . S
C33 C35 1.345 . S
C34 C33 1.410 . S
C34 C36 1.417 1_556 S
C34 C66 1.432 1_556 S
C35 H21 0.930 . S
C35 C32 1.407 . S
C35 C33 1.345 . S
C36 N31 1.354 1_655 S
C36 C34 1.417 1_554 S
C36 C40 1.432 . S
H37 C42 0.930 . S
N38 Tb0 2.600 . S
N38 C40 1.359 1_455 S
N38 C41 1.327 . S
C39 H25 0.931 . S
C39 C41 1.392 . S
C39 C42 1.370 1_455 S
C40 C36 1.432 . S
C40 N38 1.359 1_655 S
C40 C43 1.414 . S
C41 H23 0.930 . S
C41 N38 1.327 . S
C41 C39 1.392 . S
C42 H37 0.930 . S
C42 C39 1.370 1_655 S
C42 C43 1.385 . S
C43 C40 1.414 . S
C43 C42 1.385 . S
C43 C65 1.444 . S
O44 Tb0 2.546 . S
O44 C64 1.251 . S
O45 Tb0 2.610 . S
O45 Tb11 2.362 1_554 S
O45 C56 1.283 . S
O46 Tb11 2.421 . S
O46 C63 1.262 . S
O47 Tb0 2.320 . S
O47 C63 1.260 1_554 S
O48 Tb0 2.552 . S
O48 C56 1.243 . S
O49 Tb0 2.413 . S
O49 C64 1.256 . S
O50 Tb11 2.546 . S
O50 C75 1.251 . S
O51 Tb0 2.362 1_556 S
O51 Tb11 2.610 . S
O51 C67 1.283 . S
O52 Tb0 2.421 . S
O52 C74 1.262 . S
O53 Tb11 2.320 . S
O53 C74 1.260 1_556 S
O54 Tb11 2.552 . S
O54 C67 1.243 . S
O55 Tb11 2.413 . S
O55 C75 1.256 . S
C56 O45 1.283 . S
C56 O48 1.243 . S
C57 C59 1.382 . S
C57 C61 1.393 . S
C57 C64 1.500 . S
C58 C59 1.400 1_655 S
C58 C60 1.384 . S
C59 C57 1.382 . S
C59 C58 1.400 1_455 S
C59 H76 0.930 . S
C60 C58 1.384 . S
C60 C62 1.392 . S
C60 H77 0.931 . S
C61 C57 1.393 . S
C61 C62 1.401 1_455 S
C61 H78 0.930 . S
C62 C60 1.392 . S
C62 C61 1.401 1_655 S
C62 H79 0.930 . S
C63 O46 1.262 . S
C63 O47 1.260 1_556 S
C64 Tb0 2.833 . S
C64 O44 1.251 . S
C64 O49 1.256 . S
C64 C57 1.500 . S
C65 H30 0.929 . S
C65 C43 1.444 . S
C65 C66 1.317 . S
C66 H28 0.930 1_554 S
C66 C34 1.432 1_554 S
C66 C65 1.317 . S
C67 O51 1.283 . S
C67 O54 1.243 . S
C68 C69 1.382 . S
C68 C72 1.393 . S
C68 C75 1.500 . S
C69 C68 1.382 . S
C69 C70 1.400 . S
C69 H80 0.930 . S
C70 C69 1.400 . S
C70 C71 1.384 . S
C71 C70 1.384 . S
C71 C73 1.392 . S
C71 H81 0.931 . S
C72 C68 1.393 . S
C72 C73 1.401 . S
C72 H82 0.930 . S
C73 C71 1.392 . S
C73 C72 1.401 . S
C73 H83 0.930 1_545 S
C74 O52 1.262 . S
C74 O53 1.260 1_554 S
C75 Tb11 2.833 . S
C75 O50 1.251 . S
C75 O55 1.256 . S
C75 C68 1.500 . S
H76 C59 0.930 . S
H77 C60 0.931 . S
H78 C61 0.930 . S
H79 C62 0.930 . S
H80 C69 0.930 . S
H81 C71 0.931 . S
H82 C72 0.930 . S
H83 C73 0.930 1_565 S
Tb84 N115 2.660 . S
Tb84 N122 2.600 . S
Tb84 O128 2.546 . S
Tb84 O129 2.610 . S
Tb84 O131 2.320 . S
Tb84 O132 2.552 . S
Tb84 O133 2.413 . S
Tb84 O135 2.362 1_554 S
Tb84 O136 2.421 . S
Tb84 C148 2.833 . S
C85 C88 1.432 . S
C85 C89 1.414 . S
C85 N92 1.359 1_455 S
C86 C88 1.417 1_554 S
C86 C90 1.432 . S
C86 C98 1.410 . S
C87 C89 1.444 . S
C87 C90 1.317 1_556 S
C87 H110 0.929 . S
C88 C85 1.432 . S
C88 C86 1.417 1_556 S
C88 N96 1.347 1_455 S
C89 C85 1.414 . S
C89 C87 1.444 . S
C89 C94 1.385 . S
C90 C86 1.432 . S
C90 C87 1.317 1_554 S
C90 H102 0.930 . S
C91 C93 1.392 . S
C91 C94 1.370 1_655 S
C91 H103 0.931 . S
N92 C85 1.359 1_655 S
N92 C93 1.327 . S
N92 Tb95 2.600 . S
C93 C91 1.392 . S
C93 N92 1.327 . S
C93 H100 0.930 . S
C94 C89 1.385 . S
C94 C91 1.370 1_455 S
C94 H113 0.930 . S
Tb95 N92 2.600 . S
Tb95 N96 2.681 . S
Tb95 O129 2.362 1_556 S
Tb95 O130 2.421 . S
Tb95 O134 2.546 . S
Tb95 O135 2.610 . S
Tb95 O137 2.320 . S
Tb95 O138 2.552 . S
Tb95 O139 2.413 . S
Tb95 C159 2.833 . S
N96 C88 1.347 1_655 S
N96 Tb95 2.681 . S
N96 C97 1.296 1_656 S
C97 N96 1.296 1_454 S
C97 C99 1.407 . S
C97 H104 0.930 . S
C98 C86 1.410 . S
C98 C99 1.345 . S
C98 H106 0.930 . S
C99 C97 1.407 . S
C99 C98 1.345 . S
C99 H101 0.930 . S
H100 C93 0.930 . S
H101 C99 0.930 . S
H102 C90 0.930 . S
H103 C91 0.931 . S
H104 C97 0.930 . S
H105 C119 0.930 . S
H106 C98 0.930 . S
H107 C125 0.930 . S
H108 C116 0.930 . S
H109 C123 0.931 . S
H110 C87 0.929 . S
H111 C117 0.930 . S
H112 C150 0.930 1_556 S
H113 C94 0.930 . S
H114 C149 0.929 1_545 S
N115 Tb84 2.660 . S
N115 C116 1.305 1_554 S
N115 C120 1.360 . S
C116 H108 0.930 . S
C116 N115 1.305 1_556 S
C116 C119 1.407 . S
C117 H111 0.930 . S
C117 C118 1.410 . S
C117 C119 1.345 . S
C118 C117 1.410 . S
C118 C120 1.417 1_556 S
C118 C150 1.432 1_556 S
C119 H105 0.930 . S
C119 C116 1.407 . S
C119 C117 1.345 . S
C120 N115 1.360 . S
C120 C118 1.417 1_554 S
C120 C124 1.432 . S
H121 C126 0.930 . S
N122 Tb84 2.600 . S
N122 C124 1.359 . S
N122 C125 1.327 . S
C123 H109 0.931 . S
C123 C125 1.392 1_545 S
C123 C126 1.370 . S
C124 C120 1.432 . S
C124 N122 1.359 . S
C124 C127 1.414 . S
C125 H107 0.930 . S
C125 N122 1.327 . S
C125 C123 1.392 1_565 S
C126 H121 0.930 . S
C126 C123 1.370 . S
C126 C127 1.385 1_545 S
C127 C124 1.414 . S
C127 C126 1.385 1_565 S
C127 C149 1.444 . S
O128 Tb84 2.546 . S
O128 C148 1.251 . S
O129 Tb84 2.610 . S
O129 Tb95 2.362 1_554 S
O129 C140 1.283 . S
O130 Tb95 2.421 . S
O130 C147 1.262 . S
O131 Tb84 2.320 . S
O131 C147 1.260 1_554 S
O132 Tb84 2.552 . S
O132 C140 1.243 . S
O133 Tb84 2.413 . S
O133 C148 1.256 . S
O134 Tb95 2.546 . S
O134 C159 1.251 . S
O135 Tb84 2.362 1_556 S
O135 Tb95 2.610 . S
O135 C151 1.283 . S
O136 Tb84 2.421 . S
O136 C158 1.262 . S
O137 Tb95 2.320 . S
O137 C158 1.260 1_556 S
O138 Tb95 2.552 . S
O138 C151 1.243 . S
O139 Tb95 2.413 . S
O139 C159 1.256 . S
C140 O129 1.283 . S
C140 O132 1.243 . S
C141 C143 1.382 . S
C141 C145 1.393 . S
C141 C148 1.500 . S
C142 C143 1.400 . S
C142 C144 1.384 . S
C143 C141 1.382 . S
C143 C142 1.400 . S
C143 H160 0.930 . S
C144 C142 1.384 . S
C144 C146 1.392 . S
C144 H161 0.931 . S
C145 C141 1.393 . S
C145 C146 1.401 . S
C145 H162 0.930 . S
C146 C144 1.392 . S
C146 C145 1.401 . S
C146 H163 0.930 1_565 S
C147 O130 1.262 . S
C147 O131 1.260 1_556 S
C148 Tb84 2.833 . S
C148 O128 1.251 . S
C148 O133 1.256 . S
C148 C141 1.500 . S
C149 H114 0.929 1_565 S
C149 C127 1.444 . S
C149 C150 1.317 . S
C150 H112 0.930 1_554 S
C150 C118 1.432 1_554 S
C150 C149 1.317 . S
C151 O135 1.283 . S
C151 O138 1.243 . S
C152 C153 1.382 . S
C152 C156 1.393 . S
C152 C159 1.500 . S
C153 C152 1.382 . S
C153 C154 1.400 1_655 S
C153 H164 0.930 . S
C154 C153 1.400 1_455 S
C154 C155 1.384 . S
C155 C154 1.384 . S
C155 C157 1.392 . S
C155 H165 0.931 . S
C156 C152 1.393 . S
C156 C157 1.401 1_655 S
C156 H166 0.930 . S
C157 C155 1.392 . S
C157 C156 1.401 1_455 S
C157 H167 0.930 . S
C158 O136 1.262 . S
C158 O137 1.260 1_554 S
C159 Tb95 2.833 . S
C159 O134 1.251 . S
C159 O139 1.256 . S
C159 C152 1.500 . S
H160 C143 0.930 . S
H161 C144 0.931 . S
H162 C145 0.930 . S
H163 C146 0.930 1_545 S
H164 C153 0.930 . S
H165 C155 0.931 . S
H166 C156 0.930 . S
H167 C157 0.930 . S
Tb168 N199 2.671 . S
Tb168 N206 2.600 . S
Tb168 O212 2.546 . S
Tb168 O213 2.610 . S
Tb168 O215 2.320 . S
Tb168 O216 2.552 . S
Tb168 O217 2.413 . S
Tb168 O219 2.362 . S
Tb168 O220 2.421 . S
Tb168 C232 2.833 . S
C169 C172 1.432 . S
C169 C173 1.414 . S
C169 N176 1.359 . S
C170 C172 1.417 . S
C170 C174 1.432 . S
C170 C182 1.410 . S
C171 C173 1.444 . S
C171 C174 1.317 . S
C171 H194 0.929 1_565 S
C172 C169 1.432 . S
C172 C170 1.417 . S
C172 N180 1.360 . S
C173 C169 1.414 . S
C173 C171 1.444 . S
C173 C178 1.385 1_565 S
C174 C170 1.432 . S
C174 C171 1.317 . S
C174 H186 0.930 . S
C175 C177 1.392 1_545 S
C175 C178 1.370 . S
C175 H187 0.931 . S
N176 C169 1.359 . S
N176 C177 1.327 . S
N176 Tb179 2.600 . S
C177 C175 1.392 1_565 S
C177 N176 1.327 . S
C177 H184 0.930 . S
C178 C173 1.385 1_545 S
C178 C175 1.370 . S
C178 H197 0.930 . S
Tb179 N176 2.600 . S
Tb179 N180 2.660 . S
Tb179 O213 2.362 . S
Tb179 O214 2.421 . S
Tb179 O218 2.546 . S
Tb179 O219 2.610 . S
Tb179 O221 2.320 . S
Tb179 O222 2.552 . S
Tb179 O223 2.413 . S
Tb179 C243 2.833 . S
N180 C172 1.360 . S
N180 Tb179 2.660 . S
N180 C181 1.305 . S
C181 N180 1.305 . S
C181 C183 1.407 . S
C181 H188 0.930 . S
C182 C170 1.410 . S
C182 C183 1.345 . S
C182 H190 0.930 . S
C183 C181 1.407 . S
C183 C182 1.345 . S
C183 H185 0.930 . S
H184 C177 0.930 . S
H185 C183 0.930 . S
H186 C174 0.930 . S
H187 C175 0.931 . S
H188 C181 0.930 . S
H189 C203 0.930 . S
H190 C182 0.930 . S
H191 C209 0.930 . S
H192 C200 0.930 . S
H193 C207 0.931 . S
H194 C171 0.929 1_545 S
H195 C201 0.930 . S
H196 C234 0.930 . S
H197 C178 0.930 . S
H198 C233 0.929 . S
N199 Tb168 2.671 . S
N199 C200 1.299 1_455 S
N199 C204 1.354 1_455 S
C200 H192 0.930 . S
C200 N199 1.299 1_655 S
C200 C203 1.407 . S
C201 H195 0.930 . S
C201 C202 1.410 . S
C201 C203 1.345 . S
C202 C201 1.410 . S
C202 C204 1.417 . S
C202 C234 1.432 . S
C203 H189 0.930 . S
C203 C200 1.407 . S
C203 C201 1.345 . S
C204 N199 1.354 1_655 S
C204 C202 1.417 . S
C204 C208 1.432 . S
H205 C210 0.930 . S
N206 Tb168 2.600 . S
N206 C208 1.359 1_455 S
N206 C209 1.327 . S
C207 H193 0.931 . S
C207 C209 1.392 . S
C207 C210 1.370 1_455 S
C208 C204 1.432 . S
C208 N206 1.359 1_655 S
C208 C211 1.414 . S
C209 H191 0.930 . S
C209 N206 1.327 . S
C209 C207 1.392 . S
C210 H205 0.930 . S
C210 C207 1.370 1_655 S
C210 C211 1.385 . S
C211 C208 1.414 . S
C211 C210 1.385 . S
C211 C233 1.444 . S
O212 Tb168 2.546 . S
O212 C232 1.251 . S
O213 Tb168 2.610 . S
O213 Tb179 2.362 . S
O213 C224 1.283 . S
O214 Tb179 2.421 . S
O214 C231 1.262 . S
O215 Tb168 2.320 . S
O215 C231 1.260 . S
O216 Tb168 2.552 . S
O216 C224 1.243 . S
O217 Tb168 2.413 . S
O217 C232 1.256 . S
O218 Tb179 2.546 . S
O218 C243 1.251 . S
O219 Tb168 2.362 . S
O219 Tb179 2.610 . S
O219 C235 1.283 . S
O220 Tb168 2.421 . S
O220 C242 1.262 . S
O221 Tb179 2.320 . S
O221 C242 1.260 . S
O222 Tb179 2.552 . S
O222 C235 1.243 . S
O223 Tb179 2.413 . S
O223 C243 1.256 . S
C224 O213 1.283 . S
C224 O216 1.243 . S
C225 C227 1.382 . S
C225 C229 1.393 . S
C225 C232 1.500 . S
C226 C227 1.400 1_655 S
C226 C228 1.384 . S
C227 C225 1.382 . S
C227 C226 1.400 1_455 S
C227 H244 0.930 . S
C228 C226 1.384 . S
C228 C230 1.392 . S
C228 H245 0.931 . S
C229 C225 1.393 . S
C229 C230 1.401 1_455 S
C229 H246 0.930 . S
C230 C228 1.392 . S
C230 C229 1.401 1_655 S
C230 H247 0.930 . S
C231 O214 1.262 . S
C231 O215 1.260 . S
C232 Tb168 2.833 . S
C232 O212 1.251 . S
C232 O217 1.256 . S
C232 C225 1.500 . S
C233 H198 0.929 . S
C233 C211 1.444 . S
C233 C234 1.317 . S
C234 H196 0.930 . S
C234 C202 1.432 . S
C234 C233 1.317 . S
C235 O219 1.283 . S
C235 O222 1.243 . S
C236 C237 1.382 . S
C236 C240 1.393 . S
C236 C243 1.500 . S
C237 C236 1.382 . S
C237 C238 1.400 . S
C237 H248 0.930 . S
C238 C237 1.400 . S
C238 C239 1.384 . S
C239 C238 1.384 . S
C239 C241 1.392 . S
C239 H249 0.931 . S
C240 C236 1.393 . S
C240 C241 1.401 . S
C240 H250 0.930 . S
C241 C239 1.392 . S
C241 C240 1.401 . S
C241 H251 0.930 1_565 S
C242 O220 1.262 . S
C242 O221 1.260 . S
C243 Tb179 2.833 . S
C243 O218 1.251 . S
C243 O223 1.256 . S
C243 C236 1.500 . S
H244 C227 0.930 . S
H245 C228 0.931 . S
H246 C229 0.930 . S
H247 C230 0.930 . S
H248 C237 0.930 . S
H249 C239 0.931 . S
H250 C240 0.930 . S
H251 C241 0.930 1_545 S
Tb252 N283 2.660 . S
Tb252 N290 2.600 . S
Tb252 O296 2.546 . S
Tb252 O297 2.610 . S
Tb252 O299 2.320 . S
Tb252 O300 2.552 . S
Tb252 O301 2.413 . S
Tb252 O303 2.362 . S
Tb252 O304 2.421 . S
Tb252 C316 2.833 . S
C253 C256 1.432 . S
C253 C257 1.414 . S
C253 N260 1.359 1_455 S
C254 C256 1.417 . S
C254 C258 1.432 . S
C254 C266 1.410 . S
C255 C257 1.444 . S
C255 C258 1.317 . S
C255 H278 0.929 . S
C256 C253 1.432 . S
C256 C254 1.417 . S
C256 N264 1.354 1_455 S
C257 C253 1.414 . S
C257 C255 1.444 . S
C257 C262 1.385 . S
C258 C254 1.432 . S
C258 C255 1.317 . S
C258 H270 0.930 . S
C259 C261 1.392 . S
C259 C262 1.370 1_655 S
C259 H271 0.931 . S
N260 C253 1.359 1_655 S
N260 C261 1.327 . S
N260 Tb263 2.600 . S
C261 C259 1.392 . S
C261 N260 1.327 . S
C261 H268 0.930 . S
C262 C257 1.385 . S
C262 C259 1.370 1_455 S
C262 H281 0.930 . S
Tb263 N260 2.600 . S
Tb263 N264 2.671 . S
Tb263 O297 2.362 . S
Tb263 O298 2.421 . S
Tb263 O302 2.546 . S
Tb263 O303 2.610 . S
Tb263 O305 2.320 . S
Tb263 O306 2.552 . S
Tb263 O307 2.413 . S
Tb263 C327 2.833 . S
N264 C256 1.354 1_655 S
N264 Tb263 2.671 . S
N264 C265 1.299 1_655 S
C265 N264 1.299 1_455 S
C265 C267 1.407 . S
C265 H272 0.930 . S
C266 C254 1.410 . S
C266 C267 1.345 . S
C266 H274 0.930 . S
C267 C265 1.407 . S
C267 C266 1.345 . S
C267 H269 0.930 . S
H268 C261 0.930 . S
H269 C267 0.930 . S
H270 C258 0.930 . S
H271 C259 0.931 . S
H272 C265 0.930 . S
H273 C287 0.930 . S
H274 C266 0.930 . S
H275 C293 0.930 . S
H276 C284 0.930 . S
H277 C291 0.931 . S
H278 C255 0.929 . S
H279 C285 0.930 . S
H280 C318 0.930 . S
H281 C262 0.930 . S
H282 C317 0.929 1_565 S
N283 Tb252 2.660 . S
N283 C284 1.305 . S
N283 C288 1.360 . S
C284 H276 0.930 . S
C284 N283 1.305 . S
C284 C287 1.407 . S
C285 H279 0.930 . S
C285 C286 1.410 . S
C285 C287 1.345 . S
C286 C285 1.410 . S
C286 C288 1.417 . S
C286 C318 1.432 . S
C287 H273 0.930 . S
C287 C284 1.407 . S
C287 C285 1.345 . S
C288 N283 1.360 . S
C288 C286 1.417 . S
C288 C292 1.432 . S
H289 C294 0.930 . S
N290 Tb252 2.600 . S
N290 C292 1.359 . S
N290 C293 1.327 . S
C291 H277 0.931 . S
C291 C293 1.392 1_565 S
C291 C294 1.370 . S
C292 C288 1.432 . S
C292 N290 1.359 . S
C292 C295 1.414 . S
C293 H275 0.930 . S
C293 N290 1.327 . S
C293 C291 1.392 1_545 S
C294 H289 0.930 . S
C294 C291 1.370 . S
C294 C295 1.385 1_565 S
C295 C292 1.414 . S
C295 C294 1.385 1_545 S
C295 C317 1.444 . S
O296 Tb252 2.546 . S
O296 C316 1.251 . S
O297 Tb252 2.610 . S
O297 Tb263 2.362 . S
O297 C308 1.283 . S
O298 Tb263 2.421 . S
O298 C315 1.262 . S
O299 Tb252 2.320 . S
O299 C315 1.260 . S
O300 Tb252 2.552 . S
O300 C308 1.243 . S
O301 Tb252 2.413 . S
O301 C316 1.256 . S
O302 Tb263 2.546 . S
O302 C327 1.251 . S
O303 Tb252 2.362 . S
O303 Tb263 2.610 . S
O303 C319 1.283 . S
O304 Tb252 2.421 . S
O304 C326 1.262 . S
O305 Tb263 2.320 . S
O305 C326 1.260 . S
O306 Tb263 2.552 . S
O306 C319 1.243 . S
O307 Tb263 2.413 . S
O307 C327 1.256 . S
C308 O297 1.283 . S
C308 O300 1.243 . S
C309 C311 1.382 . S
C309 C313 1.393 . S
C309 C316 1.500 . S
C310 C311 1.400 . S
C310 C312 1.384 . S
C311 C309 1.382 . S
C311 C310 1.400 . S
C311 H328 0.930 . S
C312 C310 1.384 . S
C312 C314 1.392 . S
C312 H329 0.931 . S
C313 C309 1.393 . S
C313 C314 1.401 . S
C313 H330 0.930 . S
C314 C312 1.392 . S
C314 C313 1.401 . S
C314 H331 0.930 1_545 S
C315 O298 1.262 . S
C315 O299 1.260 . S
C316 Tb252 2.833 . S
C316 O296 1.251 . S
C316 O301 1.256 . S
C316 C309 1.500 . S
C317 H282 0.929 1_545 S
C317 C295 1.444 . S
C317 C318 1.317 . S
C318 H280 0.930 . S
C318 C286 1.432 . S
C318 C317 1.317 . S
C319 O303 1.283 . S
C319 O306 1.243 . S
C320 C321 1.382 . S
C320 C324 1.393 . S
C320 C327 1.500 . S
C321 C320 1.382 . S
C321 C322 1.400 1_655 S
C321 H332 0.930 . S
C322 C321 1.400 1_455 S
C322 C323 1.384 . S
C323 C322 1.384 . S
C323 C325 1.392 . S
C323 H333 0.931 . S
C324 C320 1.393 . S
C324 C325 1.401 1_655 S
C324 H334 0.930 . S
C325 C323 1.392 . S
C325 C324 1.401 1_455 S
C325 H335 0.930 . S
C326 O304 1.262 . S
C326 O305 1.260 . S
C327 Tb263 2.833 . S
C327 O302 1.251 . S
C327 O307 1.256 . S
C327 C320 1.500 . S
H328 C311 0.930 . S
H329 C312 0.931 . S
H330 C313 0.930 . S
H331 C314 0.930 1_565 S
H332 C321 0.930 . S
H333 C323 0.931 . S
H334 C324 0.930 . S
H335 C325 0.930 . S
H336 C342 0.930 . S
H337 C345 0.930 . S
H338 C346 0.930 . S
H339 C347 0.930 . S
H340 C350 0.930 . S
H341 C351 0.930 . S
C342 H336 0.930 . S
C342 C343 1.372 . S
C342 C344 1.415 . S
C343 C342 1.372 . S
C343 C345 1.408 1_554 S
C344 C342 1.415 . S
C344 C349 1.425 1_554 S
C344 C351 1.409 . S
C345 H337 0.930 . S
C345 C343 1.408 1_556 S
C345 C346 1.362 . S
C346 H338 0.930 . S
C346 C345 1.362 . S
C346 C349 1.409 . S
C347 H339 0.930 . S
C347 C348 1.355 1_556 S
C347 C349 1.415 . S
C348 C347 1.355 1_554 S
C348 C350 1.419 . S
C349 C344 1.425 1_556 S
C349 C346 1.409 . S
C349 C347 1.415 . S
C350 H340 0.930 . S
C350 C348 1.419 . S
C350 C351 1.362 . S
C351 H341 0.930 . S
C351 C344 1.409 . S
C351 C350 1.362 . S
H352 C358 0.930 . S
H353 C361 0.930 . S
H354 C362 0.930 . S
H355 C363 0.930 . S
H356 C366 0.930 . S
H357 C367 0.930 . S
C358 H352 0.930 . S
C358 C359 1.355 . S
C358 C360 1.415 . S
C359 C358 1.355 . S
C359 C361 1.419 . S
C360 C358 1.415 . S
C360 C365 1.425 . S
C360 C367 1.409 . S
C361 H353 0.930 . S
C361 C359 1.419 . S
C361 C362 1.362 . S
C362 H354 0.930 . S
C362 C361 1.362 . S
C362 C365 1.409 . S
C363 H355 0.930 . S
C363 C364 1.355 . S
C363 C365 1.415 . S
C364 C363 1.355 . S
C364 C366 1.419 . S
C365 C360 1.425 . S
C365 C362 1.409 . S
C365 C363 1.415 . S
C366 H356 0.930 . S
C366 C364 1.419 . S
C366 C367 1.362 . S
C367 H357 0.930 . S
C367 C360 1.409 . S
C367 C366 1.362 . S
H368 C374 0.930 . S
H369 C377 0.930 . S
H370 C378 0.930 . S
H371 C379 0.930 . S
H372 C382 0.930 . S
H373 C383 0.930 . S
C374 H368 0.930 . S
C374 C375 1.355 1_556 S
C374 C376 1.415 1_545 S
C375 C374 1.355 1_554 S
C375 C377 1.419 . S
C376 C374 1.415 1_565 S
C376 C381 1.425 1_466 S
C376 C383 1.409 1_455 S
C377 H369 0.930 . S
C377 C375 1.419 . S
C377 C378 1.362 . S
C378 H370 0.930 . S
C378 C377 1.362 . S
C378 C381 1.409 1_455 S
C379 H371 0.930 . S
C379 C380 1.355 . S
C379 C381 1.415 1_565 S
C380 C379 1.355 . S
C380 C382 1.419 1_554 S
C381 C376 1.425 1_644 S
C381 C378 1.409 1_655 S
C381 C379 1.415 1_545 S
C382 H372 0.930 . S
C382 C380 1.419 1_556 S
C382 C383 1.362 . S
C383 H373 0.930 . S
C383 C376 1.409 1_655 S
C383 C382 1.362 . S
H384 C390 0.930 . S
H385 C393 0.930 . S
H386 C394 0.930 . S
H387 C395 0.930 . S
H388 C398 0.930 . S
H389 C399 0.930 . S
C390 H384 0.930 . S
C390 C391 1.355 . S
C390 C392 1.415 1_655 S
C391 C390 1.355 . S
C391 C393 1.419 . S
C392 C390 1.415 1_455 S
C392 C397 1.425 1_445 S
C392 C399 1.409 . S
C393 H385 0.930 . S
C393 C391 1.419 . S
C393 C394 1.362 1_545 S
C394 H386 0.930 . S
C394 C393 1.362 1_565 S
C394 C397 1.409 . S
C395 H387 0.930 . S
C395 C396 1.355 . S
C395 C397 1.415 1_455 S
C396 C395 1.355 . S
C396 C398 1.419 . S
C397 C392 1.425 1_665 S
C397 C394 1.409 . S
C397 C395 1.415 1_655 S
C398 H388 0.930 . S
C398 C396 1.419 . S
C398 C399 1.362 1_565 S
C399 H389 0.930 . S
C399 C392 1.409 . S
C399 C398 1.362 1_545 S
H400 C406 0.930 . S
H401 C409 0.930 . S
H402 C410 0.930 . S
H403 C411 0.930 . S
H404 C414 0.930 . S
H405 C415 0.930 . S
C406 H400 0.930 . S
C406 C407 1.355 . S
C406 C408 1.415 . S
C407 C406 1.355 . S
C407 C409 1.419 . S
C408 C406 1.415 . S
C408 C413 1.425 . S
C408 C415 1.409 . S
C409 H401 0.930 . S
C409 C407 1.419 . S
C409 C410 1.362 . S
C410 H402 0.930 . S
C410 C409 1.362 . S
C410 C413 1.409 . S
C411 H403 0.930 . S
C411 C412 1.355 . S
C411 C413 1.415 . S
C412 C411 1.355 . S
C412 C414 1.419 . S
C413 C408 1.425 . S
C413 C410 1.409 . S
C413 C411 1.415 . S
C414 H404 0.930 . S
C414 C412 1.419 . S
C414 C415 1.362 . S
C415 H405 0.930 . S
C415 C408 1.409 . S
C415 C414 1.362 . S
H416 C422 0.930 . S
H417 C425 0.930 . S
H418 C426 0.930 . S
H419 C427 0.930 . S
H420 C430 0.930 . S
H421 C431 0.930 . S
C422 H416 0.930 . S
C422 C423 1.355 . S
C422 C424 1.415 . S
C423 C422 1.355 . S
C423 C425 1.419 . S
C424 C422 1.415 . S
C424 C429 1.425 . S
C424 C431 1.409 . S
C425 H417 0.930 . S
C425 C423 1.419 . S
C425 C426 1.362 . S
C426 H418 0.930 . S
C426 C425 1.362 . S
C426 C429 1.409 . S
C427 H419 0.930 . S
C427 C428 1.355 . S
C427 C429 1.415 . S
C428 C427 1.355 . S
C428 C430 1.419 . S
C429 C424 1.425 . S
C429 C426 1.409 . S
C429 C427 1.415 . S
C430 H420 0.930 . S
C430 C428 1.419 . S
C430 C431 1.362 . S
C431 H421 0.930 . S
C431 C424 1.409 . S
C431 C430 1.362 . S
H432 C438 0.930 . S
H433 C441 0.930 . S
H434 C442 0.930 . S
H435 C443 0.930 . S
H436 C446 0.930 . S
H437 C447 0.930 . S
C438 H432 0.930 . S
C438 C439 1.355 . S
C438 C440 1.415 . S
C439 C438 1.355 . S
C439 C441 1.419 . S
C440 C438 1.415 . S
C440 C445 1.425 . S
C440 C447 1.409 . S
C441 H433 0.930 . S
C441 C439 1.419 . S
C441 C442 1.362 . S
C442 H434 0.930 . S
C442 C441 1.362 . S
C442 C445 1.409 . S
C443 H435 0.930 . S
C443 C444 1.355 . S
C443 C445 1.415 . S
C444 C443 1.355 . S
C444 C446 1.419 . S
C445 C440 1.425 . S
C445 C442 1.409 . S
C445 C443 1.415 . S
C446 H436 0.930 . S
C446 C444 1.419 . S
C446 C447 1.362 . S
C447 H437 0.930 . S
C447 C440 1.409 . S
C447 C446 1.362 . S
H448 C454 0.930 . S
H449 C457 0.930 . S
H450 C458 0.930 . S
H451 C459 0.930 . S
H452 C462 0.930 . S
H453 C463 0.930 . S
C454 H448 0.930 . S
C454 C455 1.355 . S
C454 C456 1.415 . S
C455 C454 1.355 . S
C455 C457 1.419 . S
C456 C454 1.415 . S
C456 C461 1.425 . S
C456 C463 1.409 . S
C457 H449 0.930 . S
C457 C455 1.419 . S
C457 C458 1.362 . S
C458 H450 0.930 . S
C458 C457 1.362 . S
C458 C461 1.409 . S
C459 H451 0.930 . S
C459 C460 1.355 . S
C459 C461 1.415 . S
C460 C459 1.355 . S
C460 C462 1.419 . S
C461 C456 1.425 . S
C461 C458 1.409 . S
C461 C459 1.415 . S
C462 H452 0.930 . S
C462 C460 1.419 . S
C462 C463 1.362 . S
C463 H453 0.930 . S
C463 C456 1.409 . S
C463 C462 1.362 . S
H464 C470 0.930 . S
H465 C473 0.930 . S
H466 C474 0.930 1_455 S
H467 C475 0.930 1_455 S
H468 C478 0.930 . S
H469 C479 0.930 . S
C470 H464 0.930 . S
C470 C471 1.355 . S
C470 C472 1.415 . S
C471 C470 1.355 . S
C471 C473 1.419 . S
C472 C470 1.415 . S
C472 C477 1.425 . S
C472 C479 1.409 . S
C473 H465 0.930 . S
C473 C471 1.419 . S
C473 C474 1.362 . S
C474 H466 0.930 1_655 S
C474 C473 1.362 . S
C474 C477 1.409 . S
C475 H467 0.930 1_655 S
C475 C476 1.355 . S
C475 C477 1.415 . S
C476 C475 1.355 . S
C476 C478 1.419 . S
C477 C472 1.425 . S
C477 C474 1.409 . S
C477 C475 1.415 . S
C478 H468 0.930 . S
C478 C476 1.419 . S
C478 C479 1.362 . S
C479 H469 0.930 . S
C479 C472 1.409 . S
C479 C478 1.362 . S
H480 C486 0.930 . S
H481 C489 0.927 1_455 S
H482 C490 0.930 . S
H483 C491 0.930 1_455 S
H484 C494 0.930 . S
H485 C495 0.930 . S
C486 H480 0.930 . S
C486 C487 1.355 . S
C486 C488 1.415 . S
C487 C486 1.355 . S
C487 C489 1.419 . S
C488 C486 1.415 . S
C488 C493 1.425 . S
C488 C495 1.409 . S
C489 H481 0.927 1_655 S
C489 C487 1.419 . S
C489 C490 1.362 1_655 S
C490 H482 0.930 . S
C490 C489 1.362 1_455 S
C490 C493 1.409 1_455 S
C491 H483 0.930 1_655 S
C491 C492 1.355 . S
C491 C493 1.415 . S
C492 C491 1.355 . S
C492 C494 1.419 . S
C493 C488 1.425 . S
C493 C490 1.409 1_655 S
C493 C491 1.415 . S
C494 H484 0.930 . S
C494 C492 1.419 . S
C494 C495 1.362 . S
C495 H485 0.930 . S
C495 C488 1.409 . S
C495 C494 1.362 . S
H496 C502 0.930 . S
H497 C505 0.930 . S
H498 C506 0.930 . S
H499 C507 0.930 . S
H500 C510 0.930 . S
H501 C511 0.930 . S
C502 H496 0.930 . S
C502 C503 1.355 . S
C502 C504 1.415 . S
C503 C502 1.355 . S
C503 C505 1.419 1_455 S
C504 C502 1.415 . S
C504 C509 1.425 . S
C504 C511 1.409 . S
C505 H497 0.930 . S
C505 C503 1.419 1_655 S
C505 C506 1.362 . S
C506 H498 0.930 . S
C506 C505 1.362 . S
C506 C509 1.409 1_655 S
C507 H499 0.930 . S
C507 C508 1.355 . S
C507 C509 1.415 . S
C508 C507 1.355 . S
C508 C510 1.419 . S
C509 C504 1.425 . S
C509 C506 1.409 1_455 S
C509 C507 1.415 . S
C510 H500 0.930 . S
C510 C508 1.419 . S
C510 C511 1.362 . S
C511 H501 0.930 . S
C511 C504 1.409 . S
C511 C510 1.362 . S
H512 C518 0.930 . S
H513 C521 0.930 . S
H514 C522 0.930 . S
H515 C523 0.930 . S
H516 C526 0.930 1_655 S
H517 C527 0.930 . S
C518 H512 0.930 . S
C518 C519 1.355 . S
C518 C520 1.415 . S
C519 C518 1.355 . S
C519 C521 1.419 . S
C520 C518 1.415 . S
C520 C525 1.425 . S
C520 C527 1.409 . S
C521 H513 0.930 . S
C521 C519 1.419 . S
C521 C522 1.362 . S
C522 H514 0.930 . S
C522 C521 1.362 . S
C522 C525 1.409 . S
C523 H515 0.930 . S
C523 C524 1.355 . S
C523 C525 1.415 . S
C524 C523 1.355 . S
C524 C526 1.419 . S
C525 C520 1.425 . S
C525 C522 1.409 . S
C525 C523 1.415 . S
C526 H516 0.930 1_455 S
C526 C524 1.419 . S
C526 C527 1.362 . S
C527 H517 0.930 . S
C527 C520 1.409 . S
C527 C526 1.362 . S
C343 C147 1.461 1_554 S
C348 C74 1.471 . S
C359 C242 1.477 . S
C364 C315 1.477 . S
C375 C63 1.511 1_554 S
C380 C158 1.511 . S
C391 C326 1.514 . S
C396 C231 1.514 . S
C407 C310 1.238 . S
C412 C56 1.245 . S
C423 C142 1.324 . S
C428 C224 1.298 . S
C439 C151 1.281 . S
C444 C238 1.325 . S
C455 C319 1.204 . S
C460 C70 1.242 . S
C471 C140 1.300 . S
C476 C226 1.282 . S
C487 C308 1.281 . S
C492 C58 1.260 . S
C503 C322 1.320 . S
C508 C67 1.263 . S
C519 C235 1.214 . S
C524 C154 1.235 . S
