# Generated by pormake.
# Topology mok, (4)-cn, num edge types: 1
# Building blocks:
#     Node 0, Type 0, BuildingBlock: KUFVIS_clean_sbu_0, # of connection points: 4
#     Node 1, Type 0, BuildingBlock: KUFVIS_clean_sbu_0, # of connection points: 4
#     Node 2, Type 0, BuildingBlock: KUFVIS_clean_sbu_0, # of connection points: 4
#     Node 3, Type 0, BuildingBlock: KUFVIS_clean_sbu_0, # of connection points: 4
#     Node 4, Type 0, BuildingBlock: KUFVIS_clean_sbu_0, # of connection points: 4
#     Node 5, Type 0, BuildingBlock: KUFVIS_clean_sbu_0, # of connection points: 4
#     Node 6, Type 0, BuildingBlock: KUFVIS_clean_sbu_0, # of connection points: 4
#     Node 7, Type 0, BuildingBlock: KUFVIS_clean_sbu_0, # of connection points: 4
#     Edge 8, Type (0, 0), BuildingBlock: EYOCIG_clean_linker_4, # of connection points: 2
#     Edge 9, Type (0, 0), BuildingBlock: EYOCIG_clean_linker_4, # of connection points: 2
#     Edge 10, Type (0, 0), BuildingBlock: EYOCIG_clean_linker_4, # of connection points: 2
#     Edge 11, Type (0, 0), BuildingBlock: EYOCIG_clean_linker_4, # of connection points: 2
#     Edge 12, Type (0, 0), BuildingBlock: EYOCIG_clean_linker_4, # of connection points: 2
#     Edge 13, Type (0, 0), BuildingBlock: EYOCIG_clean_linker_4, # of connection points: 2
#     Edge 14, Type (0, 0), BuildingBlock: EYOCIG_clean_linker_4, # of connection points: 2
#     Edge 15, Type (0, 0), BuildingBlock: EYOCIG_clean_linker_4, # of connection points: 2
#     Edge 16, Type (0, 0), BuildingBlock: EYOCIG_clean_linker_4, # of connection points: 2
#     Edge 17, Type (0, 0), BuildingBlock: EYOCIG_clean_linker_4, # of connection points: 2
#     Edge 18, Type (0, 0), BuildingBlock: EYOCIG_clean_linker_4, # of connection points: 2
#     Edge 19, Type (0, 0), BuildingBlock: EYOCIG_clean_linker_4, # of connection points: 2
#     Edge 20, Type (0, 0), BuildingBlock: EYOCIG_clean_linker_4, # of connection points: 2
#     Edge 21, Type (0, 0), BuildingBlock: EYOCIG_clean_linker_4, # of connection points: 2
#     Edge 22, Type (0, 0), BuildingBlock: EYOCIG_clean_linker_4, # of connection points: 2
#     Edge 23, Type (0, 0), BuildingBlock: EYOCIG_clean_linker_4, # of connection points: 2
# Relax obj value: 0.031
# Max RMSD: 0.053
# Mean RMSD: 0.053
data_MOF--net-mok--node1-KUFVIS_clean_sbu_0--edge1-EYOCIG_clean_linker_4
_symmetry_space_group_name_H-M    P1
_symmetry_Int_Tables_number       1
_symmetry_cell_setting            triclinic
loop_
_symmetry_equiv_pos_as_xyz
'x, y, z'
_cell_length_a     44.471136
_cell_length_b     12.199549
_cell_length_c     21.20597
_cell_angle_alpha  89.991342
_cell_angle_beta   90.020477
_cell_angle_gamma 89.444999
loop_
_atom_site_label
_atom_site_type_symbol
_atom_site_fract_x
_atom_site_fract_y
_atom_site_fract_z
_atom_type_partial_charge
Mn0 Mn 0.60324 0.35487 0.00865 0.0
Mn1 Mn 0.54158 0.51325 0.01277 0.0
C2 C 0.58809 0.43976 0.91362 0.0
C3 C 0.65586 0.3366 0.01691 0.0
C4 C 0.53739 0.25997 0.01436 0.0
O5 O 0.60036 0.40013 0.10264 0.0
O6 O 0.55767 0.50006 0.10105 0.0
C7 C 0.56566 0.7257 0.05893 0.0
N8 N 0.55256 0.66515 0.01245 0.0
C9 C 0.54985 0.82264 0.94448 0.0
C10 C 0.56328 0.88628 0.99145 0.0
C11 C 0.57105 0.83761 0.04914 0.0
C12 C 0.5438 0.71241 0.95806 0.0
H13 H 0.57189 0.68988 0.10349 0.0
C14 C 0.5814 0.46486 0.12913 0.0
O15 O 0.63837 0.25348 0.02604 0.0
O16 O 0.64302 0.42947 0.00449 0.0
N17 N 0.52624 0.53886 0.93085 0.0
C18 C 0.51974 0.46117 0.88715 0.0
C19 C 0.51897 0.49081 0.82375 0.0
C20 C 0.5224 0.60115 0.80689 0.0
C21 C 0.52734 0.68066 0.85236 0.0
C22 C 0.53072 0.64493 0.91425 0.0
H23 H 0.51826 0.37574 0.89985 0.0
O24 O 0.60334 0.34873 0.91369 0.0
O25 O 0.58033 0.47479 0.97036 0.0
O26 O 0.56616 0.24535 0.01389 0.0
O27 O 0.52597 0.35714 0.01378 0.0
C28 C 0.53288 0.79107 0.83713 0.0
C29 C 0.5434 0.86303 0.88382 0.0
H30 H 0.56812 0.97202 0.98339 0.0
H31 H 0.58146 0.88596 0.08579 0.0
H32 H 0.51705 0.42816 0.78837 0.0
H33 H 0.52458 0.62396 0.75904 0.0
H34 H 0.5301 0.82036 0.78921 0.0
H35 H 0.54797 0.94751 0.87169 0.0
Mn36 Mn 0.37072 0.72441 0.00847 0.0
Mn37 Mn 0.43243 0.56628 0.01276 0.0
C38 C 0.38593 0.63959 0.91349 0.0
C39 C 0.31809 0.74233 0.01663 0.0
C40 C 0.43655 0.81958 0.01427 0.0
O41 O 0.3736 0.67922 0.10247 0.0
O42 O 0.41634 0.57953 0.101 0.0
C43 C 0.40839 0.35382 0.059 0.0
N44 N 0.42149 0.41436 0.0125 0.0
C45 C 0.42423 0.25678 0.94464 0.0
C46 C 0.41082 0.19316 0.99162 0.0
C47 C 0.40303 0.24188 0.04927 0.0
C48 C 0.43026 0.36705 0.95816 0.0
H49 H 0.40215 0.38968 0.10354 0.0
C50 C 0.39259 0.61464 0.12902 0.0
O51 O 0.33553 0.82558 0.02577 0.0
O52 O 0.33097 0.64956 0.00425 0.0
N53 N 0.44778 0.5406 0.93088 0.0
C54 C 0.4543 0.61824 0.88716 0.0
C55 C 0.45511 0.5885 0.82378 0.0
C56 C 0.4517 0.47812 0.80698 0.0
C57 C 0.44674 0.39869 0.85248 0.0
C58 C 0.44332 0.43451 0.91434 0.0
H59 H 0.45577 0.70369 0.8998 0.0
O60 O 0.37064 0.73053 0.91351 0.0
O61 O 0.39368 0.6046 0.97026 0.0
O62 O 0.40778 0.83408 0.01376 0.0
O63 O 0.448 0.72245 0.01371 0.0
C64 C 0.44123 0.28823 0.83731 0.0
C65 C 0.43072 0.21632 0.88402 0.0
H66 H 0.40599 0.1074 0.98361 0.0
H67 H 0.39263 0.19355 0.08593 0.0
H68 H 0.45707 0.65109 0.78837 0.0
H69 H 0.4496 0.45521 0.75912 0.0
H70 H 0.44404 0.25886 0.78943 0.0
H71 H 0.42617 0.1318 0.87195 0.0
Mn72 Mn 0.6172 0.80932 0.53765 0.0
Mn73 Mn 0.55921 0.65061 0.51746 0.0
C74 C 0.59857 0.7136 0.62858 0.0
C75 C 0.66874 0.82572 0.53176 0.0
C76 C 0.55255 0.89722 0.52687 0.0
O77 O 0.61648 0.78592 0.43893 0.0
O78 O 0.57853 0.67038 0.4362 0.0
C79 C 0.59453 0.45677 0.48071 0.0
N80 N 0.57103 0.50311 0.5123 0.0
C81 C 0.54035 0.34754 0.49744 0.0
C82 C 0.56422 0.29508 0.46557 0.0
C83 C 0.59171 0.34941 0.45808 0.0
C84 C 0.54527 0.45139 0.52153 0.0
H85 H 0.61446 0.50371 0.47053 0.0
C86 C 0.59949 0.71963 0.40901 0.0
O87 O 0.65149 0.91194 0.52779 0.0
O88 O 0.65629 0.73158 0.53974 0.0
N89 N 0.53493 0.61552 0.5876 0.0
C90 C 0.52196 0.69249 0.64105 0.0
C91 C 0.48811 0.68058 0.67802 0.0
C92 C 0.46474 0.57433 0.66084 0.0
C93 C 0.49145 0.45223 0.57155 0.0
C94 C 0.5243 0.50902 0.55511 0.0
H95 H 0.53421 0.76649 0.6514 0.0
O96 O 0.61497 0.80025 0.63367 0.0
O97 O 0.59392 0.68487 0.56986 0.0
O98 O 0.58027 0.9195 0.53635 0.0
O99 O 0.54402 0.80042 0.5172 0.0
C100 C 0.48992 0.34381 0.54467 0.0
C101 C 0.51255 0.29816 0.50627 0.0
H102 H 0.56168 0.21315 0.4467 0.0
H103 H 0.61005 0.31056 0.43276 0.0
H104 H 0.48108 0.74364 0.71075 0.0
H105 H 0.44263 0.57071 0.68293 0.0
H106 H 0.47511 0.28284 0.56102 0.0
H107 H 0.50917 0.2179 0.48644 0.0
Mn108 Mn 0.35694 0.26995 0.53752 0.0
Mn109 Mn 0.41484 0.42909 0.51747 0.0
C110 C 0.37549 0.36575 0.6285 0.0
C111 C 0.30542 0.25325 0.53132 0.0
C112 C 0.4216 0.18243 0.52681 0.0
O113 O 0.3577 0.2933 0.4388 0.0
O114 O 0.39551 0.40952 0.43619 0.0
C115 C 0.37945 0.62294 0.48093 0.0
N116 N 0.40298 0.57657 0.51245 0.0
C117 C 0.43363 0.73225 0.49769 0.0
C118 C 0.40973 0.78477 0.46592 0.0
C119 C 0.38224 0.7304 0.45841 0.0
C120 C 0.42874 0.62831 0.5217 0.0
H121 H 0.35952 0.57598 0.47072 0.0
C122 C 0.37461 0.35995 0.40895 0.0
O123 O 0.32271 0.16713 0.52749 0.0
O124 O 0.31782 0.34747 0.53941 0.0
N125 N 0.43913 0.46405 0.58766 0.0
C126 C 0.45214 0.38698 0.64105 0.0
C127 C 0.48602 0.39883 0.67796 0.0
C128 C 0.50938 0.50511 0.66078 0.0
C129 C 0.4826 0.62738 0.5716 0.0
C130 C 0.44974 0.57062 0.5552 0.0
H131 H 0.4399 0.31296 0.65138 0.0
O132 O 0.35912 0.27906 0.63356 0.0
O133 O 0.38015 0.39449 0.56979 0.0
O134 O 0.3939 0.16 0.53638 0.0
O135 O 0.43008 0.27928 0.51706 0.0
C136 C 0.48412 0.73584 0.54474 0.0
C137 C 0.46143 0.78162 0.50647 0.0
H138 H 0.41224 0.86677 0.44712 0.0
H139 H 0.36387 0.7693 0.43316 0.0
H140 H 0.49308 0.3357 0.71065 0.0
H141 H 0.53151 0.50866 0.68282 0.0
H142 H 0.49897 0.79674 0.561 0.0
H143 H 0.46479 0.86192 0.48668 0.0
Mn144 Mn 0.11441 0.78087 -0.00238 0.0
Mn145 Mn 0.05758 0.95156 0.02044 0.0
C146 C 0.09619 0.87392 0.90509 0.0
C147 C 0.16686 0.75665 0.00318 0.0
C148 C 0.04996 0.70309 0.02801 0.0
O149 O 0.11413 0.81437 0.09413 0.0
O150 O 0.08167 0.95592 0.09706 0.0
C151 C 0.08508 0.17062 0.03548 0.0
N152 N 0.06791 0.09908 0.00205 0.0
C153 C 0.05755 0.23389 0.92301 0.0
C154 C 0.07497 0.30975 0.95618 0.0
C155 C 0.08879 0.27789 0.01291 0.0
C156 C 0.05406 0.12934 0.94865 0.0
H157 H 0.09577 0.14641 0.07911 0.0
C158 C 0.10171 0.89598 0.12224 0.0
O159 O 0.14882 0.67436 0.01006 0.0
O160 O 0.15468 0.85124 -0.00783 0.0
N161 N 0.03414 0.9532 0.94844 0.0
C162 C 0.02121 0.86507 0.92073 0.0
C163 C 0.01178 0.87281 0.8596 0.0
C164 C 0.01309 0.9737 0.83006 0.0
C165 C 0.02561 0.06708 0.85981 0.0
C166 C 0.03708 0.05043 0.91923 0.0
H167 H 0.01864 0.78792 0.94357 0.0
O168 O 0.11169 0.78363 0.9016 0.0
O169 O 0.09135 0.90462 0.96429 0.0
O170 O 0.076 0.6796 0.00485 0.0
O171 O 0.04287 0.80153 0.04258 0.0
C172 C 0.02775 0.1743 0.83408 0.0
C173 C 0.04351 0.25733 0.86552 0.0
H174 H 0.07801 0.39218 0.93841 0.0
H175 H 0.10229 0.33562 0.039 0.0
H176 H 0.00232 0.80233 0.83603 0.0
H177 H 0.00197 0.97458 0.78575 0.0
H178 H 0.01665 0.19696 0.79125 0.0
H179 H 0.04493 0.33819 0.84466 0.0
Mn180 Mn 0.85951 0.29698 -0.0018 0.0
Mn181 Mn 0.91635 0.12653 0.02159 0.0
C182 C 0.87785 0.20407 0.90577 0.0
C183 C 0.80707 0.32114 0.00358 0.0
C184 C 0.92386 0.37508 0.02888 0.0
O185 O 0.85973 0.26363 0.09476 0.0
O186 O 0.89211 0.12186 0.09792 0.0
C187 C 0.88903 0.9071 0.03636 0.0
N188 N 0.90613 0.97898 0.00303 0.0
C189 C 0.91618 0.8452 0.9233 0.0
C190 C 0.89884 0.76898 0.95636 0.0
C191 C 0.88522 0.80014 0.0134 0.0
C192 C 0.91983 0.94932 0.94938 0.0
H193 H 0.87846 0.93083 0.08018 0.0
C194 C 0.87206 0.18189 0.12296 0.0
O195 O 0.8251 0.40346 0.01048 0.0
O196 O 0.81925 0.22654 -0.00734 0.0
N197 N 0.93994 0.12514 0.94987 0.0
C198 C 0.95295 0.21346 0.92257 0.0
C199 C 0.96186 0.2071 0.8611 0.0
C200 C 0.96025 0.10693 0.8309 0.0
C201 C 0.94793 1.01287 0.86037 0.0
C202 C 0.93678 1.0285 0.92014 0.0
H203 H 0.95601 0.28972 0.94606 0.0
O204 O 0.86228 0.29421 0.90222 0.0
O205 O 0.88265 0.17333 0.96502 0.0
O206 O 0.89788 0.39833 0.00542 0.0
O207 O 0.93092 0.27677 0.04392 0.0
C208 C 0.94563 0.90602 0.83415 0.0
C209 C 0.92998 0.82257 0.86548 0.0
H210 H 0.8957 0.68684 0.93825 0.0
H211 H 0.87177 0.74213 0.0394 0.0
H212 H 0.97128 0.27795 0.83783 0.0
H213 H 0.97124 0.10728 0.78652 0.0
H214 H 0.95657 0.88361 0.79113 0.0
H215 H 0.92846 0.74202 0.84427 0.0
Mn216 Mn 0.10494 0.24172 0.52277 0.0
Mn217 Mn 0.04703 0.07953 0.49535 0.0
C218 C 0.08811 0.14492 0.61281 0.0
C219 C 0.15639 0.26327 0.52011 0.0
C220 C 0.04107 0.33189 0.49719 0.0
O221 O 0.10558 0.21442 0.42631 0.0
O222 O 0.07082 0.08384 0.41772 0.0
C223 C 0.07315 0.85976 0.4668 0.0
N224 N 0.05711 0.92801 0.50536 0.0
C225 C 0.05557 0.79246 0.58674 0.0
C226 C 0.07173 0.71965 0.54812 0.0
C227 C 0.08016 0.75301 0.4873 0.0
C228 C 0.04681 0.89371 0.56127 0.0
H229 H 0.08077 0.88662 0.42105 0.0
C230 C 0.09241 0.13881 0.39553 0.0
O231 O 0.13856 0.3475 0.51376 0.0
O232 O 0.14454 0.16804 0.52794 0.0
N233 N 0.02401 0.06662 0.56781 0.0
C234 C 0.01279 0.15366 0.6002 0.0
C235 C 0.01396 0.15113 0.6648 0.0
C236 C 0.02399 0.05504 0.69351 0.0
C237 C 0.02895 0.95804 0.66024 0.0
C238 C 0.03078 0.96968 0.59574 0.0
H239 H 0.0061 0.22883 0.57756 0.0
O240 O 0.10223 0.23683 0.61718 0.0
O241 O 0.08224 0.11545 0.55328 0.0
O242 O 0.06772 0.34834 0.51763 0.0
O243 O 0.0324 0.23558 0.48198 0.0
C244 C 0.03816 0.85812 0.68841 0.0
C245 C 0.05003 0.77295 0.65092 0.0
H246 H 0.07857 0.63956 0.5653 0.0
H247 H 0.09291 0.69804 0.45722 0.0
H248 H 0.00978 0.22559 0.69101 0.0
H249 H 0.03411 0.0621 0.73783 0.0
H250 H 0.03749 0.84692 0.7388 0.0
H251 H 0.05721 0.69691 0.67289 0.0
Mn252 Mn 0.86927 0.83659 0.52359 0.0
Mn253 Mn 0.92712 0.99868 0.49528 0.0
C254 C 0.88637 0.93368 0.61334 0.0
C255 C 0.81781 0.81505 0.5215 0.0
C256 C 0.93311 0.74634 0.49756 0.0
O257 O 0.86832 0.86356 0.4271 0.0
O258 O 0.90317 0.99364 0.41786 0.0
C259 C 0.90083 0.21803 0.46625 0.0
N260 N 0.91699 0.15023 0.50489 0.0
C261 C 0.91867 0.28654 0.5858 0.0
C262 C 0.90238 0.35891 0.54709 0.0
C263 C 0.89382 0.32494 0.48646 0.0
C264 C 0.92742 0.18512 0.56058 0.0
H265 H 0.89312 0.19072 0.42065 0.0
C266 C 0.88147 0.9388 0.39601 0.0
O267 O 0.83562 0.73079 0.51509 0.0
O268 O 0.82968 0.91028 0.52913 0.0
N269 N 0.9503 1.01237 0.56747 0.0
C270 C 0.96166 0.92571 0.60002 0.0
C271 C 0.96071 0.92896 0.66463 0.0
C272 C 0.95069 1.02524 0.69308 0.0
C273 C 0.94557 0.12185 0.65956 0.0
C274 C 0.94357 0.10957 0.59513 0.0
H275 H 0.96827 0.85029 0.57758 0.0
O276 O 0.87228 0.84174 0.61794 0.0
O277 O 0.89206 0.96303 0.5537 0.0
O278 O 0.90648 0.72993 0.51813 0.0
O279 O 0.94176 0.8426 0.48226 0.0
C280 C 0.93635 0.22193 0.68751 0.0
C281 C 0.92434 0.30667 0.64986 0.0
H282 H 0.89555 0.43911 0.56407 0.0
H283 H 0.88098 0.37956 0.45632 0.0
H284 H 0.96504 0.85486 0.69112 0.0
H285 H 0.9405 1.01827 0.73727 0.0
H286 H 0.93716 0.23366 0.73786 0.0
H287 H 0.91717 0.38286 0.67165 0.0
C288 C 0.74754 0.33186 0.01342 0.0
C289 C 0.77475 0.33183 0.00943 0.0
C290 C 0.71559 0.32804 0.0169 0.0
C291 C 0.68832 0.32713 0.01754 0.0
C292 C 0.22639 0.74617 0.0131 0.0
C293 C 0.19918 0.746 0.00908 0.0
C294 C 0.25834 0.75034 0.0166 0.0
C295 C 0.28561 0.75153 0.01725 0.0
C296 C 0.75892 0.8114 0.52057 0.0
C297 C 0.78588 0.80561 0.52038 0.0
C298 C 0.72754 0.82464 0.52299 0.0
C299 C 0.70065 0.83181 0.52654 0.0
C300 C 0.21527 0.2671 0.51919 0.0
C301 C 0.18831 0.27281 0.51898 0.0
C302 C 0.24664 0.25401 0.52187 0.0
C303 C 0.27353 0.247 0.52573 0.0
C304 C 0.59502 0.56987 0.23762 0.0
C305 C 0.58981 0.51972 0.18855 0.0
C306 C 0.60108 0.63584 0.29312 0.0
C307 C 0.6041 0.68516 0.34329 0.0
C308 C 0.37902 0.50964 0.23753 0.0
C309 C 0.3842 0.55978 0.18845 0.0
C310 C 0.37299 0.44365 0.29303 0.0
C311 C 0.37 0.39432 0.3432 0.0
C312 C 0.38513 0.52909 0.80124 0.0
C313 C 0.38651 0.57322 0.85404 0.0
C314 C 0.38377 0.47894 0.73811 0.0
C315 C 0.3813 0.43422 0.68572 0.0
C316 C 0.58895 0.55024 0.80134 0.0
C317 C 0.58754 0.50612 0.85415 0.0
C318 C 0.59031 0.60039 0.7382 0.0
C319 C 0.59277 0.64511 0.6858 0.0
C320 C 0.11219 0.98145 0.23354 0.0
C321 C 0.11065 0.93009 0.18466 0.0
C322 C 0.10951 0.04978 0.2878 0.0
C323 C 0.10431 0.10005 0.33603 0.0
C324 C 0.86417 1.02778 0.28838 0.0
C325 C 0.86943 0.97747 0.33658 0.0
C326 C 0.86147 0.09627 0.23416 0.0
C327 C 0.86304 0.14777 0.18532 0.0
C328 C 0.88361 0.04866 0.72596 0.0
C329 C 0.8859 1.00513 0.67219 0.0
C330 C 0.88307 0.09541 0.79138 0.0
C331 C 0.88204 0.13687 0.84576 0.0
C332 C 0.09126 0.98316 0.79085 0.0
C333 C 0.09215 0.94146 0.84517 0.0
C334 C 0.09089 1.0301 0.72549 0.0
C335 C 0.08861 0.07371 0.67174 0.0
C336 C 0.47593 0.99422 0.01465 0.0
C337 C 0.45758 0.91677 0.01448 0.0
C338 C 0.49799 0.08541 0.01467 0.0
C339 C 0.51634 0.16283 0.01453 0.0
C340 C 0.5026 1.02023 0.5322 0.0
C341 C 0.52792 0.97847 0.53114 0.0
C342 C 0.47158 0.05954 0.53219 0.0
C343 C 0.44627 0.10129 0.53112 0.0
C344 C 0.00131 0.5684 0.03132 0.0
C345 C 0.0248 0.6225 0.02836 0.0
C346 C 0.97254 0.50977 0.03154 0.0
C347 C 0.94906 0.4556 0.02886 0.0
C348 C -0.0011 0.49661 0.4944 0.0
C349 C 0.01849 0.42351 0.49613 0.0
C350 C 0.97525 0.58156 0.49449 0.0
C351 C 0.95567 0.65466 0.49636 0.0
loop_
_geom_bond_atom_site_label_1
_geom_bond_atom_site_label_2
_geom_bond_distance
_geom_bond_site_symmetry_2
_ccdc_geom_bond_type
Mn0 O5 2.095 . S
Mn0 O15 2.162 . S
Mn0 O16 2.297 . S
Mn0 O24 2.385 1_554 S
Mn0 O25 2.209 1_554 S
Mn0 O26 2.094 . S
Mn1 O6 2.121 . S
Mn1 N8 2.257 1_554 S
Mn1 N17 2.282 1_554 S
Mn1 O25 2.215 1_554 S
Mn1 O27 2.117 . S
C2 O24 1.234 . S
C2 O25 1.283 . S
C3 O15 1.281 . S
C3 O16 1.236 . S
C4 O26 1.240 . S
C4 O27 1.264 . S
O5 Mn0 2.095 . S
O5 C14 1.250 . S
O6 Mn1 2.121 . S
O6 C14 1.258 . S
C7 N8 1.326 1_554 S
C7 C11 1.460 1_554 S
C7 H13 0.929 . S
N8 Mn1 2.257 1_556 S
N8 C7 1.326 1_556 S
N8 C12 1.362 . S
C9 C10 1.258 . S
C9 C12 1.431 . S
C9 C29 1.449 . S
C10 C9 1.258 . S
C10 C11 1.477 . S
C10 H30 0.931 . S
C11 C7 1.460 1_556 S
C11 C10 1.477 . S
C11 H31 0.930 1_556 S
C12 N8 1.362 . S
C12 C9 1.431 . S
C12 C22 1.476 . S
H13 C7 0.929 . S
C14 O5 1.250 . S
C14 O6 1.258 . S
O15 Mn0 2.162 . S
O15 C3 1.281 . S
O16 Mn0 2.297 . S
O16 C3 1.236 . S
N17 Mn1 2.282 1_556 S
N17 C18 1.328 . S
N17 C22 1.318 . S
C18 N17 1.328 . S
C18 C19 1.457 . S
C18 H23 0.929 . S
C19 C18 1.457 . S
C19 C20 1.291 . S
C19 H32 0.931 . S
C20 C19 1.291 . S
C20 C21 1.373 . S
C20 H33 0.929 . S
C21 C20 1.373 . S
C21 C22 1.396 . S
C21 C28 1.403 . S
C22 C12 1.476 . S
C22 N17 1.318 . S
C22 C21 1.396 . S
H23 C18 0.929 . S
O24 Mn0 2.385 1_556 S
O24 C2 1.234 . S
O25 Mn0 2.209 1_556 S
O25 Mn1 2.215 1_556 S
O25 C2 1.283 . S
O26 Mn0 2.094 . S
O26 C4 1.240 . S
O27 Mn1 2.117 . S
O27 C4 1.264 . S
C28 C21 1.403 . S
C28 C29 1.399 . S
C28 H34 0.929 . S
C29 C9 1.449 . S
C29 C28 1.399 . S
C29 H35 0.930 . S
H30 C10 0.931 . S
H31 C11 0.930 1_554 S
H32 C19 0.931 . S
H33 C20 0.929 . S
H34 C28 0.929 . S
H35 C29 0.930 . S
Mn36 O41 2.095 . S
Mn36 O51 2.162 . S
Mn36 O52 2.297 . S
Mn36 O60 2.385 1_554 S
Mn36 O61 2.209 1_554 S
Mn36 O62 2.094 . S
Mn37 O42 2.121 . S
Mn37 N44 2.257 1_554 S
Mn37 N53 2.282 1_554 S
Mn37 O61 2.215 1_554 S
Mn37 O63 2.117 . S
C38 O60 1.234 . S
C38 O61 1.283 . S
C39 O51 1.281 . S
C39 O52 1.236 . S
C40 O62 1.240 . S
C40 O63 1.264 . S
O41 Mn36 2.095 . S
O41 C50 1.250 . S
O42 Mn37 2.121 . S
O42 C50 1.258 . S
C43 N44 1.326 1_554 S
C43 C47 1.460 1_554 S
C43 H49 0.929 . S
N44 Mn37 2.257 1_556 S
N44 C43 1.326 1_556 S
N44 C48 1.362 . S
C45 C46 1.258 . S
C45 C48 1.431 . S
C45 C65 1.449 . S
C46 C45 1.258 . S
C46 C47 1.477 . S
C46 H66 0.931 . S
C47 C43 1.460 1_556 S
C47 C46 1.477 . S
C47 H67 0.930 1_556 S
C48 N44 1.362 . S
C48 C45 1.431 . S
C48 C58 1.476 . S
H49 C43 0.929 . S
C50 O41 1.250 . S
C50 O42 1.258 . S
O51 Mn36 2.162 . S
O51 C39 1.281 . S
O52 Mn36 2.297 . S
O52 C39 1.236 . S
N53 Mn37 2.282 1_556 S
N53 C54 1.328 . S
N53 C58 1.318 . S
C54 N53 1.328 . S
C54 C55 1.457 . S
C54 H59 0.929 . S
C55 C54 1.457 . S
C55 C56 1.291 . S
C55 H68 0.931 . S
C56 C55 1.291 . S
C56 C57 1.373 . S
C56 H69 0.929 . S
C57 C56 1.373 . S
C57 C58 1.396 . S
C57 C64 1.403 . S
C58 C48 1.476 . S
C58 N53 1.318 . S
C58 C57 1.396 . S
H59 C54 0.929 . S
O60 Mn36 2.385 1_556 S
O60 C38 1.234 . S
O61 Mn36 2.209 1_556 S
O61 Mn37 2.215 1_556 S
O61 C38 1.283 . S
O62 Mn36 2.094 . S
O62 C40 1.240 . S
O63 Mn37 2.117 . S
O63 C40 1.264 . S
C64 C57 1.403 . S
C64 C65 1.399 . S
C64 H70 0.929 . S
C65 C45 1.449 . S
C65 C64 1.399 . S
C65 H71 0.930 . S
H66 C46 0.931 . S
H67 C47 0.930 1_554 S
H68 C55 0.931 . S
H69 C56 0.929 . S
H70 C64 0.929 . S
H71 C65 0.930 . S
Mn72 O77 2.095 . S
Mn72 O87 2.162 . S
Mn72 O88 2.297 . S
Mn72 O96 2.385 . S
Mn72 O97 2.209 . S
Mn72 O98 2.094 . S
Mn73 O78 2.121 . S
Mn73 N80 2.257 . S
Mn73 N89 2.282 . S
Mn73 O97 2.215 . S
Mn73 O99 2.117 . S
C74 O96 1.234 . S
C74 O97 1.283 . S
C75 O87 1.281 . S
C75 O88 1.236 . S
C76 O98 1.240 . S
C76 O99 1.264 . S
O77 Mn72 2.095 . S
O77 C86 1.250 . S
O78 Mn73 2.121 . S
O78 C86 1.258 . S
C79 N80 1.326 . S
C79 C83 1.460 . S
C79 H85 0.929 . S
N80 Mn73 2.257 . S
N80 C79 1.326 . S
N80 C84 1.362 . S
C81 C82 1.258 . S
C81 C84 1.431 . S
C81 C101 1.449 . S
C82 C81 1.258 . S
C82 C83 1.477 . S
C82 H102 0.931 . S
C83 C79 1.460 . S
C83 C82 1.477 . S
C83 H103 0.930 . S
C84 N80 1.362 . S
C84 C81 1.431 . S
C84 C94 1.476 . S
H85 C79 0.929 . S
C86 O77 1.250 . S
C86 O78 1.258 . S
O87 Mn72 2.162 . S
O87 C75 1.281 . S
O88 Mn72 2.297 . S
O88 C75 1.236 . S
N89 Mn73 2.282 . S
N89 C90 1.328 . S
N89 C94 1.318 . S
C90 N89 1.328 . S
C90 C91 1.457 . S
C90 H95 0.929 . S
C91 C90 1.457 . S
C91 C92 1.291 . S
C91 H104 0.931 . S
C92 C91 1.291 . S
C92 C93 1.373 . S
C92 H105 0.929 . S
C93 C92 1.373 . S
C93 C94 1.396 . S
C93 C100 1.403 . S
C94 C84 1.476 . S
C94 N89 1.318 . S
C94 C93 1.396 . S
H95 C90 0.929 . S
O96 Mn72 2.385 . S
O96 C74 1.234 . S
O97 Mn72 2.209 . S
O97 Mn73 2.215 . S
O97 C74 1.283 . S
O98 Mn72 2.094 . S
O98 C76 1.240 . S
O99 Mn73 2.117 . S
O99 C76 1.264 . S
C100 C93 1.403 . S
C100 C101 1.399 . S
C100 H106 0.929 . S
C101 C81 1.449 . S
C101 C100 1.399 . S
C101 H107 0.930 . S
H102 C82 0.931 . S
H103 C83 0.930 . S
H104 C91 0.931 . S
H105 C92 0.929 . S
H106 C100 0.929 . S
H107 C101 0.930 . S
Mn108 O113 2.095 . S
Mn108 O123 2.162 . S
Mn108 O124 2.297 . S
Mn108 O132 2.385 . S
Mn108 O133 2.209 . S
Mn108 O134 2.094 . S
Mn109 O114 2.121 . S
Mn109 N116 2.257 . S
Mn109 N125 2.282 . S
Mn109 O133 2.215 . S
Mn109 O135 2.117 . S
C110 O132 1.234 . S
C110 O133 1.283 . S
C111 O123 1.281 . S
C111 O124 1.236 . S
C112 O134 1.240 . S
C112 O135 1.264 . S
O113 Mn108 2.095 . S
O113 C122 1.250 . S
O114 Mn109 2.121 . S
O114 C122 1.258 . S
C115 N116 1.326 . S
C115 C119 1.460 . S
C115 H121 0.929 . S
N116 Mn109 2.257 . S
N116 C115 1.326 . S
N116 C120 1.362 . S
C117 C118 1.258 . S
C117 C120 1.431 . S
C117 C137 1.449 . S
C118 C117 1.258 . S
C118 C119 1.477 . S
C118 H138 0.931 . S
C119 C115 1.460 . S
C119 C118 1.477 . S
C119 H139 0.930 . S
C120 N116 1.362 . S
C120 C117 1.431 . S
C120 C130 1.476 . S
H121 C115 0.929 . S
C122 O113 1.250 . S
C122 O114 1.258 . S
O123 Mn108 2.162 . S
O123 C111 1.281 . S
O124 Mn108 2.297 . S
O124 C111 1.236 . S
N125 Mn109 2.282 . S
N125 C126 1.328 . S
N125 C130 1.318 . S
C126 N125 1.328 . S
C126 C127 1.457 . S
C126 H131 0.929 . S
C127 C126 1.457 . S
C127 C128 1.291 . S
C127 H140 0.931 . S
C128 C127 1.291 . S
C128 C129 1.373 . S
C128 H141 0.929 . S
C129 C128 1.373 . S
C129 C130 1.396 . S
C129 C136 1.403 . S
C130 C120 1.476 . S
C130 N125 1.318 . S
C130 C129 1.396 . S
H131 C126 0.929 . S
O132 Mn108 2.385 . S
O132 C110 1.234 . S
O133 Mn108 2.209 . S
O133 Mn109 2.215 . S
O133 C110 1.283 . S
O134 Mn108 2.094 . S
O134 C112 1.240 . S
O135 Mn109 2.117 . S
O135 C112 1.264 . S
C136 C129 1.403 . S
C136 C137 1.399 . S
C136 H142 0.929 . S
C137 C117 1.449 . S
C137 C136 1.399 . S
C137 H143 0.930 . S
H138 C118 0.931 . S
H139 C119 0.930 . S
H140 C127 0.931 . S
H141 C128 0.929 . S
H142 C136 0.929 . S
H143 C137 0.930 . S
Mn144 O149 2.095 . S
Mn144 O159 2.162 . S
Mn144 O160 2.297 . S
Mn144 O168 2.385 1_554 S
Mn144 O169 2.209 1_554 S
Mn144 O170 2.094 . S
Mn145 O150 2.121 . S
Mn145 N152 2.257 1_564 S
Mn145 N161 2.282 1_554 S
Mn145 O169 2.215 1_554 S
Mn145 O171 2.117 . S
C146 O168 1.234 . S
C146 O169 1.283 . S
C147 O159 1.281 . S
C147 O160 1.236 . S
C148 O170 1.240 . S
C148 O171 1.264 . S
O149 Mn144 2.095 . S
O149 C158 1.250 . S
O150 Mn145 2.121 . S
O150 C158 1.258 . S
C151 N152 1.326 1_554 S
C151 C155 1.460 1_554 S
C151 H157 0.929 . S
N152 Mn145 2.257 1_546 S
N152 C151 1.326 1_556 S
N152 C156 1.362 . S
C153 C154 1.258 . S
C153 C156 1.431 . S
C153 C173 1.449 . S
C154 C153 1.258 . S
C154 C155 1.477 . S
C154 H174 0.931 . S
C155 C151 1.460 1_556 S
C155 C154 1.477 . S
C155 H175 0.930 1_556 S
C156 N152 1.362 . S
C156 C153 1.431 . S
C156 C166 1.476 . S
H157 C151 0.929 . S
C158 O149 1.250 . S
C158 O150 1.258 . S
O159 Mn144 2.162 . S
O159 C147 1.281 . S
O160 Mn144 2.297 . S
O160 C147 1.236 . S
N161 Mn145 2.282 1_556 S
N161 C162 1.328 . S
N161 C166 1.318 1_565 S
C162 N161 1.328 . S
C162 C163 1.457 . S
C162 H167 0.929 . S
C163 C162 1.457 . S
C163 C164 1.292 1_455 S
C163 H176 0.931 . S
C164 C163 1.292 1_655 S
C164 C165 1.373 1_665 S
C164 H177 0.929 . S
C165 C164 1.373 1_445 S
C165 C166 1.396 . S
C165 C172 1.398 1_455 S
C166 C156 1.476 . S
C166 N161 1.318 1_545 S
C166 C165 1.396 . S
H167 C162 0.929 . S
O168 Mn144 2.385 1_556 S
O168 C146 1.234 . S
O169 Mn144 2.209 1_556 S
O169 Mn145 2.215 1_556 S
O169 C146 1.283 . S
O170 Mn144 2.094 . S
O170 C148 1.240 . S
O171 Mn145 2.117 . S
O171 C148 1.264 . S
C172 C165 1.398 1_655 S
C172 C173 1.395 1_655 S
C172 H178 0.939 . S
C173 C153 1.449 . S
C173 C172 1.395 1_455 S
C173 H179 0.938 . S
H174 C154 0.931 . S
H175 C155 0.930 1_554 S
H176 C163 0.931 . S
H177 C164 0.929 . S
H178 C172 0.939 . S
H179 C173 0.938 . S
Mn180 O185 2.095 . S
Mn180 O195 2.162 . S
Mn180 O196 2.297 . S
Mn180 O204 2.385 1_554 S
Mn180 O205 2.209 1_554 S
Mn180 O206 2.094 . S
Mn181 O186 2.121 . S
Mn181 N188 2.257 1_544 S
Mn181 N197 2.282 1_554 S
Mn181 O205 2.215 1_554 S
Mn181 O207 2.117 . S
C182 O204 1.234 . S
C182 O205 1.283 . S
C183 O195 1.281 . S
C183 O196 1.236 . S
C184 O206 1.240 . S
C184 O207 1.264 . S
O185 Mn180 2.095 . S
O185 C194 1.250 . S
O186 Mn181 2.121 . S
O186 C194 1.258 . S
C187 N188 1.326 1_554 S
C187 C191 1.460 1_554 S
C187 H193 0.929 . S
N188 Mn181 2.257 1_566 S
N188 C187 1.326 1_556 S
N188 C192 1.362 . S
C189 C190 1.258 . S
C189 C192 1.431 . S
C189 C209 1.449 . S
C190 C189 1.258 . S
C190 C191 1.477 . S
C190 H210 0.931 . S
C191 C187 1.460 1_556 S
C191 C190 1.477 . S
C191 H211 0.930 1_556 S
C192 N188 1.362 . S
C192 C189 1.431 . S
C192 C202 1.476 . S
H193 C187 0.929 . S
C194 O185 1.250 . S
C194 O186 1.258 . S
O195 Mn180 2.162 . S
O195 C183 1.281 . S
O196 Mn180 2.297 . S
O196 C183 1.236 . S
N197 Mn181 2.282 1_556 S
N197 C198 1.328 . S
N197 C202 1.318 1_545 S
C198 N197 1.328 . S
C198 C199 1.457 . S
C198 H203 0.929 . S
C199 C198 1.457 . S
C199 C200 1.292 1_655 S
C199 H212 0.931 . S
C200 C199 1.292 1_455 S
C200 C201 1.373 1_445 S
C200 H213 0.929 . S
C201 C200 1.373 1_665 S
C201 C202 1.396 . S
C201 C208 1.398 1_655 S
C202 C192 1.476 . S
C202 N197 1.318 1_565 S
C202 C201 1.396 . S
H203 C198 0.929 . S
O204 Mn180 2.385 1_556 S
O204 C182 1.234 . S
O205 Mn180 2.209 1_556 S
O205 Mn181 2.215 1_556 S
O205 C182 1.283 . S
O206 Mn180 2.094 . S
O206 C184 1.240 . S
O207 Mn181 2.117 . S
O207 C184 1.264 . S
C208 C201 1.398 1_455 S
C208 C209 1.395 1_455 S
C208 H214 0.939 . S
C209 C189 1.449 . S
C209 C208 1.395 1_655 S
C209 H215 0.938 . S
H210 C190 0.931 . S
H211 C191 0.930 1_554 S
H212 C199 0.931 . S
H213 C200 0.929 . S
H214 C208 0.939 . S
H215 C209 0.938 . S
Mn216 O221 2.095 . S
Mn216 O231 2.162 . S
Mn216 O232 2.297 . S
Mn216 O240 2.385 . S
Mn216 O241 2.209 . S
Mn216 O242 2.094 . S
Mn217 O222 2.121 . S
Mn217 N224 2.257 1_545 S
Mn217 N233 2.282 . S
Mn217 O241 2.215 . S
Mn217 O243 2.117 . S
C218 O240 1.234 . S
C218 O241 1.283 . S
C219 O231 1.281 . S
C219 O232 1.236 . S
C220 O242 1.240 . S
C220 O243 1.264 . S
O221 Mn216 2.095 . S
O221 C230 1.250 . S
O222 Mn217 2.121 . S
O222 C230 1.258 . S
C223 N224 1.326 . S
C223 C227 1.460 . S
C223 H229 0.929 . S
N224 Mn217 2.257 1_565 S
N224 C223 1.326 . S
N224 C228 1.362 . S
C225 C226 1.258 . S
C225 C228 1.431 . S
C225 C245 1.449 . S
C226 C225 1.258 . S
C226 C227 1.477 . S
C226 H246 0.931 . S
C227 C223 1.460 . S
C227 C226 1.477 . S
C227 H247 0.930 . S
C228 N224 1.362 . S
C228 C225 1.431 . S
C228 C238 1.476 . S
H229 C223 0.929 . S
C230 O221 1.250 . S
C230 O222 1.258 . S
O231 Mn216 2.162 . S
O231 C219 1.281 . S
O232 Mn216 2.297 . S
O232 C219 1.236 . S
N233 Mn217 2.282 . S
N233 C234 1.328 . S
N233 C238 1.318 1_545 S
C234 N233 1.328 . S
C234 C235 1.457 . S
C234 H239 0.929 . S
C235 C234 1.457 . S
C235 C236 1.292 1_455 S
C235 H248 0.931 . S
C236 C235 1.292 1_655 S
C236 C237 1.373 1_645 S
C236 H249 0.929 . S
C237 C236 1.373 1_465 S
C237 C238 1.396 . S
C237 C244 1.398 1_455 S
C238 C228 1.476 . S
C238 N233 1.318 1_565 S
C238 C237 1.396 . S
H239 C234 0.929 . S
O240 Mn216 2.385 . S
O240 C218 1.234 . S
O241 Mn216 2.209 . S
O241 Mn217 2.215 . S
O241 C218 1.283 . S
O242 Mn216 2.094 . S
O242 C220 1.240 . S
O243 Mn217 2.117 . S
O243 C220 1.264 . S
C244 C237 1.398 1_655 S
C244 C245 1.395 1_655 S
C244 H250 0.939 . S
C245 C225 1.449 . S
C245 C244 1.395 1_455 S
C245 H251 0.938 . S
H246 C226 0.931 . S
H247 C227 0.930 . S
H248 C235 0.931 . S
H249 C236 0.929 . S
H250 C244 0.939 . S
H251 C245 0.938 . S
Mn252 O257 2.095 . S
Mn252 O267 2.162 . S
Mn252 O268 2.297 . S
Mn252 O276 2.385 . S
Mn252 O277 2.209 . S
Mn252 O278 2.094 . S
Mn253 O258 2.121 . S
Mn253 N260 2.257 1_565 S
Mn253 N269 2.282 . S
Mn253 O277 2.215 . S
Mn253 O279 2.117 . S
C254 O276 1.234 . S
C254 O277 1.283 . S
C255 O267 1.281 . S
C255 O268 1.236 . S
C256 O278 1.240 . S
C256 O279 1.264 . S
O257 Mn252 2.095 . S
O257 C266 1.250 . S
O258 Mn253 2.121 . S
O258 C266 1.258 . S
C259 N260 1.326 . S
C259 C263 1.460 . S
C259 H265 0.929 . S
N260 Mn253 2.257 1_545 S
N260 C259 1.326 . S
N260 C264 1.362 . S
C261 C262 1.258 . S
C261 C264 1.431 . S
C261 C281 1.449 . S
C262 C261 1.258 . S
C262 C263 1.477 . S
C262 H282 0.931 . S
C263 C259 1.460 . S
C263 C262 1.477 . S
C263 H283 0.930 . S
C264 N260 1.362 . S
C264 C261 1.431 . S
C264 C274 1.476 . S
H265 C259 0.929 . S
C266 O257 1.250 . S
C266 O258 1.258 . S
O267 Mn252 2.162 . S
O267 C255 1.281 . S
O268 Mn252 2.297 . S
O268 C255 1.236 . S
N269 Mn253 2.282 . S
N269 C270 1.328 . S
N269 C274 1.318 1_565 S
C270 N269 1.328 . S
C270 C271 1.457 . S
C270 H275 0.929 . S
C271 C270 1.457 . S
C271 C272 1.292 1_655 S
C271 H284 0.931 . S
C272 C271 1.292 1_455 S
C272 C273 1.373 1_465 S
C272 H285 0.929 . S
C273 C272 1.373 1_645 S
C273 C274 1.396 . S
C273 C280 1.398 1_655 S
C274 C264 1.476 . S
C274 N269 1.318 1_545 S
C274 C273 1.396 . S
H275 C270 0.929 . S
O276 Mn252 2.385 . S
O276 C254 1.234 . S
O277 Mn252 2.209 . S
O277 Mn253 2.215 . S
O277 C254 1.283 . S
O278 Mn252 2.094 . S
O278 C256 1.240 . S
O279 Mn253 2.117 . S
O279 C256 1.264 . S
C280 C273 1.398 1_455 S
C280 C281 1.395 1_455 S
C280 H286 0.939 . S
C281 C261 1.449 . S
C281 C280 1.395 1_655 S
C281 H287 0.938 . S
H282 C262 0.931 . S
H283 C263 0.930 . S
H284 C271 0.931 . S
H285 C272 0.929 . S
H286 C280 0.939 . S
H287 C281 0.938 . S
C288 C289 1.170 . S
C288 C290 1.380 . S
C289 C288 1.170 . S
C290 C288 1.380 . S
C290 C291 1.170 . S
C291 C290 1.170 . S
C292 C293 1.170 . S
C292 C294 1.380 . S
C293 C292 1.170 . S
C294 C292 1.380 . S
C294 C295 1.170 . S
C295 C294 1.170 . S
C296 C297 1.170 . S
C296 C298 1.380 . S
C297 C296 1.170 . S
C298 C296 1.380 . S
C298 C299 1.170 . S
C299 C298 1.170 . S
C300 C301 1.170 . S
C300 C302 1.380 . S
C301 C300 1.170 . S
C302 C300 1.380 . S
C302 C303 1.170 . S
C303 C302 1.170 . S
C304 C305 1.170 . S
C304 C306 1.380 . S
C305 C304 1.170 . S
C306 C304 1.380 . S
C306 C307 1.170 . S
C307 C306 1.170 . S
C308 C309 1.170 . S
C308 C310 1.380 . S
C309 C308 1.170 . S
C310 C308 1.380 . S
C310 C311 1.170 . S
C311 C310 1.170 . S
C312 C313 1.170 . S
C312 C314 1.380 . S
C313 C312 1.170 . S
C314 C312 1.380 . S
C314 C315 1.170 . S
C315 C314 1.170 . S
C316 C317 1.170 . S
C316 C318 1.380 . S
C317 C316 1.170 . S
C318 C316 1.380 . S
C318 C319 1.170 . S
C319 C318 1.170 . S
C320 C321 1.170 . S
C320 C322 1.380 1_565 S
C321 C320 1.170 . S
C322 C320 1.380 1_545 S
C322 C323 1.170 . S
C323 C322 1.170 . S
C324 C325 1.170 . S
C324 C326 1.380 1_565 S
C325 C324 1.170 . S
C326 C324 1.380 1_545 S
C326 C327 1.170 . S
C327 C326 1.170 . S
C328 C329 1.170 . S
C328 C330 1.380 1_565 S
C329 C328 1.170 . S
C330 C328 1.380 1_545 S
C330 C331 1.170 . S
C331 C330 1.170 . S
C332 C333 1.170 . S
C332 C334 1.380 1_565 S
C333 C332 1.170 . S
C334 C332 1.380 1_545 S
C334 C335 1.170 . S
C335 C334 1.170 . S
C336 C337 1.170 . S
C336 C338 1.380 1_565 S
C337 C336 1.170 . S
C338 C336 1.380 1_545 S
C338 C339 1.170 . S
C339 C338 1.170 . S
C340 C341 1.170 . S
C340 C342 1.380 1_565 S
C341 C340 1.170 . S
C342 C340 1.380 1_545 S
C342 C343 1.170 . S
C343 C342 1.170 . S
C344 C345 1.170 . S
C344 C346 1.380 1_455 S
C345 C344 1.170 . S
C346 C344 1.380 1_655 S
C346 C347 1.170 . S
C347 C346 1.170 . S
C348 C349 1.170 . S
C348 C350 1.380 1_455 S
C349 C348 1.170 . S
C350 C348 1.380 1_655 S
C350 C351 1.170 . S
C351 C350 1.170 . S
C289 C183 1.509 . S
C291 C3 1.503 . S
C293 C147 1.505 . S
C295 C39 1.509 . S
C297 C255 1.509 . S
C299 C75 1.504 . S
C301 C219 1.509 . S
C303 C111 1.504 . S
C305 C14 1.403 . S
C307 C86 1.411 . S
C309 C50 1.419 . S
C311 C122 1.419 . S
C313 C38 1.390 . S
C315 C110 1.392 . S
C317 C2 1.390 . S
C319 C74 1.369 . S
C321 C158 1.413 . S
C323 C230 1.406 . S
C325 C266 1.415 . S
C327 C194 1.408 . S
C329 C254 1.367 . S
C331 C182 1.384 . S
C333 C146 1.395 . S
C335 C218 1.384 . S
C337 C40 1.507 . S
C339 C4 1.500 . S
C341 C76 1.501 . S
C343 C112 1.503 . S
C345 C148 1.504 . S
C347 C184 1.501 . S
C349 C220 1.503 . S
C351 C256 1.501 . S
