# Generated by pormake.
# Topology umq, (4)-cn, num edge types: 1
# Building blocks:
#     Node 0, Type 0, BuildingBlock: QUQFOY_clean_sbu_1, # of connection points: 4
#     Node 1, Type 0, BuildingBlock: QUQFOY_clean_sbu_1, # of connection points: 4
#     Node 2, Type 0, BuildingBlock: QUQFOY_clean_sbu_1, # of connection points: 4
#     Node 3, Type 0, BuildingBlock: QUQFOY_clean_sbu_1, # of connection points: 4
#     Node 4, Type 0, BuildingBlock: QUQFOY_clean_sbu_1, # of connection points: 4
#     Node 5, Type 0, BuildingBlock: QUQFOY_clean_sbu_1, # of connection points: 4
#     Node 6, Type 0, BuildingBlock: QUQFOY_clean_sbu_1, # of connection points: 4
#     Node 7, Type 0, BuildingBlock: QUQFOY_clean_sbu_1, # of connection points: 4
#     Node 8, Type 0, BuildingBlock: QUQFOY_clean_sbu_1, # of connection points: 4
#     Node 9, Type 0, BuildingBlock: QUQFOY_clean_sbu_1, # of connection points: 4
#     Node 10, Type 0, BuildingBlock: QUQFOY_clean_sbu_1, # of connection points: 4
#     Node 11, Type 0, BuildingBlock: QUQFOY_clean_sbu_1, # of connection points: 4
#     Node 12, Type 0, BuildingBlock: QUQFOY_clean_sbu_1, # of connection points: 4
#     Node 13, Type 0, BuildingBlock: QUQFOY_clean_sbu_1, # of connection points: 4
#     Node 14, Type 0, BuildingBlock: QUQFOY_clean_sbu_1, # of connection points: 4
#     Node 15, Type 0, BuildingBlock: QUQFOY_clean_sbu_1, # of connection points: 4
#     Node 16, Type 0, BuildingBlock: QUQFOY_clean_sbu_1, # of connection points: 4
#     Node 17, Type 0, BuildingBlock: QUQFOY_clean_sbu_1, # of connection points: 4
#     Node 18, Type 0, BuildingBlock: QUQFOY_clean_sbu_1, # of connection points: 4
#     Node 19, Type 0, BuildingBlock: QUQFOY_clean_sbu_1, # of connection points: 4
#     Node 20, Type 0, BuildingBlock: QUQFOY_clean_sbu_1, # of connection points: 4
#     Node 21, Type 0, BuildingBlock: QUQFOY_clean_sbu_1, # of connection points: 4
#     Node 22, Type 0, BuildingBlock: QUQFOY_clean_sbu_1, # of connection points: 4
#     Node 23, Type 0, BuildingBlock: QUQFOY_clean_sbu_1, # of connection points: 4
#     Node 24, Type 0, BuildingBlock: QUQFOY_clean_sbu_1, # of connection points: 4
#     Node 25, Type 0, BuildingBlock: QUQFOY_clean_sbu_1, # of connection points: 4
#     Node 26, Type 0, BuildingBlock: QUQFOY_clean_sbu_1, # of connection points: 4
#     Node 27, Type 0, BuildingBlock: QUQFOY_clean_sbu_1, # of connection points: 4
#     Node 28, Type 0, BuildingBlock: QUQFOY_clean_sbu_1, # of connection points: 4
#     Node 29, Type 0, BuildingBlock: QUQFOY_clean_sbu_1, # of connection points: 4
#     Node 30, Type 0, BuildingBlock: QUQFOY_clean_sbu_1, # of connection points: 4
#     Node 31, Type 0, BuildingBlock: QUQFOY_clean_sbu_1, # of connection points: 4
#     Edge 32, Type (0, 0), BuildingBlock: CIFDUS_clean_linker_0, # of connection points: 2
#     Edge 33, Type (0, 0), BuildingBlock: CIFDUS_clean_linker_0, # of connection points: 2
#     Edge 34, Type (0, 0), BuildingBlock: CIFDUS_clean_linker_0, # of connection points: 2
#     Edge 35, Type (0, 0), BuildingBlock: CIFDUS_clean_linker_0, # of connection points: 2
#     Edge 36, Type (0, 0), BuildingBlock: CIFDUS_clean_linker_0, # of connection points: 2
#     Edge 37, Type (0, 0), BuildingBlock: CIFDUS_clean_linker_0, # of connection points: 2
#     Edge 38, Type (0, 0), BuildingBlock: CIFDUS_clean_linker_0, # of connection points: 2
#     Edge 39, Type (0, 0), BuildingBlock: CIFDUS_clean_linker_0, # of connection points: 2
#     Edge 40, Type (0, 0), BuildingBlock: CIFDUS_clean_linker_0, # of connection points: 2
#     Edge 41, Type (0, 0), BuildingBlock: CIFDUS_clean_linker_0, # of connection points: 2
#     Edge 42, Type (0, 0), BuildingBlock: CIFDUS_clean_linker_0, # of connection points: 2
#     Edge 43, Type (0, 0), BuildingBlock: CIFDUS_clean_linker_0, # of connection points: 2
#     Edge 44, Type (0, 0), BuildingBlock: CIFDUS_clean_linker_0, # of connection points: 2
#     Edge 45, Type (0, 0), BuildingBlock: CIFDUS_clean_linker_0, # of connection points: 2
#     Edge 46, Type (0, 0), BuildingBlock: CIFDUS_clean_linker_0, # of connection points: 2
#     Edge 47, Type (0, 0), BuildingBlock: CIFDUS_clean_linker_0, # of connection points: 2
#     Edge 48, Type (0, 0), BuildingBlock: CIFDUS_clean_linker_0, # of connection points: 2
#     Edge 49, Type (0, 0), BuildingBlock: CIFDUS_clean_linker_0, # of connection points: 2
#     Edge 50, Type (0, 0), BuildingBlock: CIFDUS_clean_linker_0, # of connection points: 2
#     Edge 51, Type (0, 0), BuildingBlock: CIFDUS_clean_linker_0, # of connection points: 2
#     Edge 52, Type (0, 0), BuildingBlock: CIFDUS_clean_linker_0, # of connection points: 2
#     Edge 53, Type (0, 0), BuildingBlock: CIFDUS_clean_linker_0, # of connection points: 2
#     Edge 54, Type (0, 0), BuildingBlock: CIFDUS_clean_linker_0, # of connection points: 2
#     Edge 55, Type (0, 0), BuildingBlock: CIFDUS_clean_linker_0, # of connection points: 2
#     Edge 56, Type (0, 0), BuildingBlock: CIFDUS_clean_linker_0, # of connection points: 2
#     Edge 57, Type (0, 0), BuildingBlock: CIFDUS_clean_linker_0, # of connection points: 2
#     Edge 58, Type (0, 0), BuildingBlock: CIFDUS_clean_linker_0, # of connection points: 2
#     Edge 59, Type (0, 0), BuildingBlock: CIFDUS_clean_linker_0, # of connection points: 2
#     Edge 60, Type (0, 0), BuildingBlock: CIFDUS_clean_linker_0, # of connection points: 2
#     Edge 61, Type (0, 0), BuildingBlock: CIFDUS_clean_linker_0, # of connection points: 2
#     Edge 62, Type (0, 0), BuildingBlock: CIFDUS_clean_linker_0, # of connection points: 2
#     Edge 63, Type (0, 0), BuildingBlock: CIFDUS_clean_linker_0, # of connection points: 2
#     Edge 64, Type (0, 0), BuildingBlock: CIFDUS_clean_linker_0, # of connection points: 2
#     Edge 65, Type (0, 0), BuildingBlock: CIFDUS_clean_linker_0, # of connection points: 2
#     Edge 66, Type (0, 0), BuildingBlock: CIFDUS_clean_linker_0, # of connection points: 2
#     Edge 67, Type (0, 0), BuildingBlock: CIFDUS_clean_linker_0, # of connection points: 2
#     Edge 68, Type (0, 0), BuildingBlock: CIFDUS_clean_linker_0, # of connection points: 2
#     Edge 69, Type (0, 0), BuildingBlock: CIFDUS_clean_linker_0, # of connection points: 2
#     Edge 70, Type (0, 0), BuildingBlock: CIFDUS_clean_linker_0, # of connection points: 2
#     Edge 71, Type (0, 0), BuildingBlock: CIFDUS_clean_linker_0, # of connection points: 2
#     Edge 72, Type (0, 0), BuildingBlock: CIFDUS_clean_linker_0, # of connection points: 2
#     Edge 73, Type (0, 0), BuildingBlock: CIFDUS_clean_linker_0, # of connection points: 2
#     Edge 74, Type (0, 0), BuildingBlock: CIFDUS_clean_linker_0, # of connection points: 2
#     Edge 75, Type (0, 0), BuildingBlock: CIFDUS_clean_linker_0, # of connection points: 2
#     Edge 76, Type (0, 0), BuildingBlock: CIFDUS_clean_linker_0, # of connection points: 2
#     Edge 77, Type (0, 0), BuildingBlock: CIFDUS_clean_linker_0, # of connection points: 2
#     Edge 78, Type (0, 0), BuildingBlock: CIFDUS_clean_linker_0, # of connection points: 2
#     Edge 79, Type (0, 0), BuildingBlock: CIFDUS_clean_linker_0, # of connection points: 2
#     Edge 80, Type (0, 0), BuildingBlock: CIFDUS_clean_linker_0, # of connection points: 2
#     Edge 81, Type (0, 0), BuildingBlock: CIFDUS_clean_linker_0, # of connection points: 2
#     Edge 82, Type (0, 0), BuildingBlock: CIFDUS_clean_linker_0, # of connection points: 2
#     Edge 83, Type (0, 0), BuildingBlock: CIFDUS_clean_linker_0, # of connection points: 2
#     Edge 84, Type (0, 0), BuildingBlock: CIFDUS_clean_linker_0, # of connection points: 2
#     Edge 85, Type (0, 0), BuildingBlock: CIFDUS_clean_linker_0, # of connection points: 2
#     Edge 86, Type (0, 0), BuildingBlock: CIFDUS_clean_linker_0, # of connection points: 2
#     Edge 87, Type (0, 0), BuildingBlock: CIFDUS_clean_linker_0, # of connection points: 2
#     Edge 88, Type (0, 0), BuildingBlock: CIFDUS_clean_linker_0, # of connection points: 2
#     Edge 89, Type (0, 0), BuildingBlock: CIFDUS_clean_linker_0, # of connection points: 2
#     Edge 90, Type (0, 0), BuildingBlock: CIFDUS_clean_linker_0, # of connection points: 2
#     Edge 91, Type (0, 0), BuildingBlock: CIFDUS_clean_linker_0, # of connection points: 2
#     Edge 92, Type (0, 0), BuildingBlock: CIFDUS_clean_linker_0, # of connection points: 2
#     Edge 93, Type (0, 0), BuildingBlock: CIFDUS_clean_linker_0, # of connection points: 2
#     Edge 94, Type (0, 0), BuildingBlock: CIFDUS_clean_linker_0, # of connection points: 2
#     Edge 95, Type (0, 0), BuildingBlock: CIFDUS_clean_linker_0, # of connection points: 2
# Relax obj value: 0.033
# Max RMSD: 0.088
# Mean RMSD: 0.088
data_MOF--net-umq--node1-QUQFOY_clean_sbu_1--edge1-CIFDUS_clean_linker_0
_symmetry_space_group_name_H-M    P1
_symmetry_Int_Tables_number       1
_symmetry_cell_setting            triclinic
loop_
_symmetry_equiv_pos_as_xyz
'x, y, z'
_cell_length_a     58.389707
_cell_length_b     58.359285
_cell_length_c     44.898304
_cell_angle_alpha  90.076061
_cell_angle_beta   90.040038
_cell_angle_gamma 89.967347
loop_
_atom_site_label
_atom_site_type_symbol
_atom_site_fract_x
_atom_site_fract_y
_atom_site_fract_z
_atom_type_partial_charge
O0 O 0.2178 0.11031 0.22344 0.0
Cd1 Cd 0.24613 0.09507 0.20509 0.0
Cd2 Cd 0.22636 0.11716 0.15383 0.0
O3 O 0.20058 0.12481 0.18398 0.0
O4 O 0.25762 0.07829 0.24057 0.0
O5 O 0.24617 0.0608 0.19954 0.0
C6 C 0.25356 0.05947 0.2266 0.0
C7 C 0.21659 0.10719 0.10478 0.0
C8 C 0.20109 0.12098 0.21185 0.0
C9 C 0.27402 0.13127 0.17447 0.0
O10 O 0.25689 0.13489 0.15759 0.0
O11 O 0.27349 0.11545 0.19386 0.0
O12 O 0.21391 0.1277 0.11482 0.0
O13 O 0.22424 0.09186 0.12299 0.0
O14 O 0.88847 0.22003 0.21853 0.0
Cd15 Cd 0.90305 0.24827 0.199 0.0
Cd16 Cd 0.87962 0.22879 0.14932 0.0
O17 O 0.8727 0.20293 0.17975 0.0
O18 O 0.92288 0.25928 0.23209 0.0
O19 O 0.93662 0.24819 0.18854 0.0
C20 C 0.94032 0.25542 0.21532 0.0
C21 C 0.88823 0.2199 0.09948 0.0
C22 C 0.87727 0.20344 0.20747 0.0
C23 C 0.86571 0.27624 0.17131 0.0
O24 O 0.86189 0.25922 0.15431 0.0
O25 O 0.88207 0.27573 0.18997 0.0
O26 O 0.86804 0.21697 0.11036 0.0
O27 O 0.90406 0.22703 0.11734 0.0
O28 O 0.7841 0.88495 0.215 0.0
Cd29 Cd 0.75505 0.90115 0.20009 0.0
Cd30 Cd 0.77561 0.88429 0.14268 0.0
O31 O 0.80112 0.87562 0.17275 0.0
O32 O 0.74405 0.91601 0.23745 0.0
O33 O 0.75394 0.93559 0.19737 0.0
C34 C 0.74708 0.93552 0.22472 0.0
C35 C 0.7872 0.88873 0.09265 0.0
C36 C 0.8009 0.87623 0.20107 0.0
C37 C 0.72791 0.86782 0.16352 0.0
O38 O 0.74473 0.86715 0.14555 0.0
O39 O 0.72827 0.88086 0.1862 0.0
O40 O 0.78823 0.8694 0.10621 0.0
O41 O 0.78012 0.90619 0.10771 0.0
O42 O 0.11213 0.78426 0.21546 0.0
Cd43 Cd 0.09602 0.75578 0.19855 0.0
Cd44 Cd 0.11091 0.77668 0.14488 0.0
O45 O 0.11928 0.80294 0.17384 0.0
O46 O 0.07992 0.74381 0.23433 0.0
O47 O 0.06175 0.75585 0.19405 0.0
C48 C 0.06087 0.74802 0.22094 0.0
C49 C 0.09915 0.78617 0.09642 0.0
C50 C 0.11966 0.80186 0.20211 0.0
C51 C 0.1304 0.73012 0.16249 0.0
O52 O 0.13121 0.7477 0.14584 0.0
O53 O 0.11636 0.72919 0.18406 0.0
O54 O 0.11961 0.79007 0.10577 0.0
O55 O 0.08473 0.77753 0.11507 0.0
O56 O 0.21203 0.88147 0.30107 0.0
Cd57 Cd 0.24183 0.89737 0.31382 0.0
Cd58 Cd 0.22662 0.87618 0.37122 0.0
O59 O 0.19943 0.86763 0.34379 0.0
O60 O 0.25023 0.91299 0.27601 0.0
O61 O 0.24305 0.93171 0.31778 0.0
C62 C 0.24823 0.9322 0.28983 0.0
C63 C 0.21803 0.87968 0.42226 0.0
C64 C 0.19702 0.87071 0.31594 0.0
C65 C 0.2731 0.86338 0.3437 0.0
O66 O 0.25791 0.86065 0.36367 0.0
O67 O 0.27011 0.87755 0.32261 0.0
O68 O 0.21717 0.86037 0.4085 0.0
O69 O 0.22342 0.89755 0.40691 0.0
O70 O 0.10991 0.21995 0.29597 0.0
Cd71 Cd 0.09513 0.24613 0.31966 0.0
Cd72 Cd 0.11434 0.22027 0.36746 0.0
O73 O 0.12021 0.19734 0.33297 0.0
O74 O 0.07517 0.26051 0.28907 0.0
O75 O 0.06173 0.24447 0.33014 0.0
C76 C 0.05785 0.2544 0.30492 0.0
C77 C 0.10844 0.20578 0.41574 0.0
C78 C 0.11843 0.20126 0.30519 0.0
C79 C 0.13195 0.26873 0.35462 0.0
O80 O 0.13386 0.24977 0.36829 0.0
O81 O 0.11649 0.27154 0.33504 0.0
O82 O 0.12763 0.20349 0.40202 0.0
O83 O 0.09187 0.21553 0.40154 0.0
O84 O 0.77806 0.11295 0.29225 0.0
Cd85 Cd 0.75129 0.0972 0.31357 0.0
Cd86 Cd 0.7767 0.11736 0.36386 0.0
O87 O 0.79985 0.12402 0.32982 0.0
O88 O 0.73708 0.08079 0.27931 0.0
O89 O 0.75185 0.0628 0.31807 0.0
C90 C 0.74247 0.0618 0.29204 0.0
C91 C 0.79076 0.11181 0.41257 0.0
C92 C 0.79636 0.12202 0.30195 0.0
C93 C 0.72757 0.13309 0.34983 0.0
O94 O 0.74631 0.13555 0.36393 0.0
O95 O 0.7255 0.11778 0.32986 0.0
O96 O 0.79243 0.13115 0.39906 0.0
O97 O 0.7819 0.09493 0.39796 0.0
O98 O 0.88217 0.78352 0.29787 0.0
Cd99 Cd 0.89868 0.75381 0.30973 0.0
Cd100 Cd 0.87666 0.7679 0.36792 0.0
O101 O 0.86766 0.79515 0.34075 0.0
O102 O 0.91457 0.74638 0.27169 0.0
O103 O 0.9331 0.75325 0.31365 0.0
C104 C 0.93374 0.74861 0.28553 0.0
C105 C 0.87878 0.77612 0.41932 0.0
C106 C 0.87089 0.79803 0.313 0.0
C107 C 0.86522 0.72143 0.33865 0.0
O108 O 0.86232 0.73617 0.35921 0.0
O109 O 0.8792 0.72509 0.31752 0.0
O110 O 0.85976 0.77636 0.40491 0.0
O111 O 0.89714 0.77155 0.40447 0.0
O112 O 0.78531 0.88455 0.7962 0.0
Cd113 Cd 0.75614 0.90107 0.81027 0.0
Cd114 Cd 0.77529 0.88613 0.86696 0.0
O115 O 0.80198 0.87667 0.83914 0.0
O116 O 0.74582 0.91625 0.77285 0.0
O117 O 0.75584 0.93553 0.81319 0.0
C118 C 0.7493 0.93568 0.7857 0.0
C119 C 0.78402 0.89653 0.91638 0.0
C120 C 0.80208 0.87643 0.81081 0.0
C121 C 0.72863 0.86784 0.84609 0.0
O122 O 0.74535 0.86741 0.86425 0.0
O123 O 0.72897 0.881 0.82356 0.0
O124 O 0.787 0.87604 0.90658 0.0
O125 O 0.77681 0.91173 0.89773 0.0
O126 O 0.1136 0.78747 0.79983 0.0
Cd127 Cd 0.09768 0.75938 0.81797 0.0
Cd128 Cd 0.11378 0.77985 0.87181 0.0
O129 O 0.12207 0.80535 0.84172 0.0
O130 O 0.07703 0.74833 0.78579 0.0
O131 O 0.06451 0.76114 0.8293 0.0
C132 C 0.06005 0.75332 0.80297 0.0
C133 C 0.1073 0.79184 0.92116 0.0
C134 C 0.12182 0.80469 0.81342 0.0
C135 C 0.13164 0.73252 0.85276 0.0
O136 O 0.13231 0.74969 0.8702 0.0
O137 O 0.11811 0.73231 0.83058 0.0
O138 O 0.12696 0.79364 0.90857 0.0
O139 O 0.09067 0.78367 0.90548 0.0
O140 O 0.20866 0.11334 0.8067 0.0
Cd141 Cd 0.23774 0.09802 0.82318 0.0
Cd142 Cd 0.21657 0.11741 0.87835 0.0
O143 O 0.19085 0.12417 0.84779 0.0
O144 O 0.24955 0.08264 0.78661 0.0
O145 O 0.23899 0.06358 0.82676 0.0
C146 C 0.24634 0.06328 0.79963 0.0
C147 C 0.20603 0.11332 0.92874 0.0
C148 C 0.19149 0.1223 0.81957 0.0
C149 C 0.26407 0.13358 0.85733 0.0
O150 O 0.2468 0.13543 0.87439 0.0
O151 O 0.26433 0.1189 0.8364 0.0
O152 O 0.20375 0.13235 0.91468 0.0
O153 O 0.21351 0.09591 0.91388 0.0
O154 O 0.88555 0.21043 0.8006 0.0
Cd155 Cd 0.90221 0.23974 0.81383 0.0
Cd156 Cd 0.87863 0.22412 0.87103 0.0
O157 O 0.87037 0.19742 0.84239 0.0
O158 O 0.91733 0.2481 0.77556 0.0
O159 O 0.93677 0.24007 0.8164 0.0
C160 C 0.93679 0.24537 0.78848 0.0
C161 C 0.88043 0.21533 0.92232 0.0
C162 C 0.87407 0.19543 0.81458 0.0
C163 C 0.86816 0.27141 0.84354 0.0
O164 O 0.86436 0.25597 0.8629 0.0
O165 O 0.88295 0.26841 0.82315 0.0
O166 O 0.86154 0.2149 0.90762 0.0
O167 O 0.89884 0.22026 0.90779 0.0
O168 O 0.78954 0.11183 0.70884 0.0
Cd169 Cd 0.7608 0.09591 0.69232 0.0
Cd170 Cd 0.78184 0.11311 0.63809 0.0
O171 O 0.80796 0.12109 0.66764 0.0
O172 O 0.74894 0.08089 0.72907 0.0
O173 O 0.7598 0.0614 0.68932 0.0
C174 C 0.75235 0.06139 0.7164 0.0
C175 C 0.79059 0.10268 0.58872 0.0
C176 C 0.80691 0.12034 0.69593 0.0
C177 C 0.73496 0.13121 0.65748 0.0
O178 O 0.75242 0.13265 0.64069 0.0
O179 O 0.73426 0.11661 0.67844 0.0
O180 O 0.79446 0.12296 0.59881 0.0
O181 O 0.78267 0.08768 0.60715 0.0
O182 O 0.88611 0.78431 0.71615 0.0
Cd183 Cd 0.90237 0.75495 0.70215 0.0
Cd184 Cd 0.88165 0.7683 0.64726 0.0
O185 O 0.8723 0.79622 0.6731 0.0
O186 O 0.92321 0.74785 0.73596 0.0
O187 O 0.93563 0.75558 0.69054 0.0
C188 C 0.94015 0.75074 0.71801 0.0
C189 C 0.88908 0.77464 0.5964 0.0
C190 C 0.87508 0.79899 0.70098 0.0
C191 C 0.86802 0.72278 0.67595 0.0
O192 O 0.86529 0.73754 0.65544 0.0
O193 O 0.8826 0.72607 0.69653 0.0
O194 O 0.86887 0.77657 0.6075 0.0
O195 O 0.90559 0.76967 0.61443 0.0
O196 O 0.21507 0.88568 0.71862 0.0
Cd197 Cd 0.24495 0.90206 0.70709 0.0
Cd198 Cd 0.23018 0.88343 0.64921 0.0
O199 O 0.20245 0.87376 0.67489 0.0
O200 O 0.25275 0.91759 0.74533 0.0
O201 O 0.24549 0.93653 0.70382 0.0
C202 C 0.25028 0.93691 0.73191 0.0
C203 C 0.22296 0.8912 0.59867 0.0
C204 C 0.20001 0.87563 0.70292 0.0
C205 C 0.27598 0.86834 0.67638 0.0
O206 O 0.26082 0.86656 0.65616 0.0
O207 O 0.27329 0.88214 0.69803 0.0
O208 O 0.22116 0.87094 0.6096 0.0
O209 O 0.22844 0.90758 0.61665 0.0
O210 O 0.11275 0.2082 0.71077 0.0
Cd211 Cd 0.09679 0.23692 0.69426 0.0
Cd212 Cd 0.11398 0.21626 0.64033 0.0
O213 O 0.12239 0.19009 0.66945 0.0
O214 O 0.08165 0.24871 0.73095 0.0
O215 O 0.06234 0.23742 0.69123 0.0
C216 C 0.06222 0.24493 0.71831 0.0
C217 C 0.10228 0.20735 0.59161 0.0
C218 C 0.12141 0.19094 0.69773 0.0
C219 C 0.13158 0.26331 0.65921 0.0
O220 O 0.13331 0.24584 0.64242 0.0
O221 O 0.11706 0.26374 0.68028 0.0
O222 O 0.12284 0.20355 0.60073 0.0
O223 O 0.08778 0.21541 0.61063 0.0
O224 O 0.712 0.61142 0.71638 0.0
Cd225 Cd 0.74099 0.59584 0.70003 0.0
Cd226 Cd 0.72186 0.61113 0.64554 0.0
O227 O 0.69532 0.62021 0.67379 0.0
O228 O 0.75166 0.57632 0.73362 0.0
O229 O 0.74094 0.56233 0.68991 0.0
C230 C 0.74807 0.55878 0.71678 0.0
C231 C 0.71271 0.60028 0.59646 0.0
C232 C 0.69521 0.61986 0.70212 0.0
C233 C 0.76819 0.63006 0.66598 0.0
O234 O 0.75153 0.63033 0.64772 0.0
O235 O 0.76793 0.61674 0.68834 0.0
O236 O 0.70955 0.6208 0.60609 0.0
O237 O 0.72041 0.58532 0.6151 0.0
O238 O 0.38461 0.71067 0.71081 0.0
Cd239 Cd 0.4006 0.73856 0.69226 0.0
Cd240 Cd 0.38256 0.71919 0.64022 0.0
O241 O 0.37368 0.69328 0.66955 0.0
O242 O 0.42128 0.74922 0.72464 0.0
O243 O 0.43385 0.73674 0.68103 0.0
C244 C 0.43827 0.7443 0.70749 0.0
C245 C 0.39373 0.70933 0.5916 0.0
C246 C 0.37513 0.69382 0.69782 0.0
C247 C 0.36584 0.76638 0.65988 0.0
O248 O 0.36399 0.74934 0.64236 0.0
O249 O 0.38034 0.7661 0.68099 0.0
O250 O 0.3731 0.7064 0.60089 0.0
O251 O 0.40855 0.71724 0.61032 0.0
O252 O 0.27423 0.38787 0.72119 0.0
Cd253 Cd 0.24745 0.40384 0.7001 0.0
Cd254 Cd 0.26714 0.38079 0.65162 0.0
O255 O 0.29254 0.37348 0.68252 0.0
O256 O 0.23702 0.42535 0.73164 0.0
O257 O 0.25052 0.43694 0.68819 0.0
C258 C 0.24296 0.44195 0.71444 0.0
C259 C 0.27697 0.38913 0.60209 0.0
C260 C 0.29118 0.37705 0.71043 0.0
C261 C 0.21907 0.36752 0.67169 0.0
O262 O 0.23654 0.36325 0.6557 0.0
O263 O 0.21927 0.38412 0.69002 0.0
O264 O 0.27951 0.36895 0.61317 0.0
O265 O 0.26962 0.40511 0.61959 0.0
O266 O 0.61142 0.2785 0.71819 0.0
Cd267 Cd 0.59662 0.25063 0.69801 0.0
Cd268 Cd 0.6202 0.26967 0.64928 0.0
O269 O 0.62735 0.29558 0.67964 0.0
O270 O 0.57576 0.24003 0.7301 0.0
O271 O 0.56338 0.25175 0.68613 0.0
C272 C 0.55885 0.24452 0.71266 0.0
C273 C 0.61078 0.27839 0.59972 0.0
C274 C 0.62273 0.29506 0.70732 0.0
C275 C 0.63359 0.22207 0.67081 0.0
O276 O 0.63776 0.23911 0.65405 0.0
O277 O 0.61711 0.22275 0.68925 0.0
O278 O 0.63115 0.28135 0.61006 0.0
O279 O 0.59524 0.27131 0.61799 0.0
O280 O 0.72025 0.38676 0.79428 0.0
Cd281 Cd 0.74595 0.4023 0.81806 0.0
Cd282 Cd 0.72105 0.38158 0.8656 0.0
O283 O 0.6982 0.37508 0.83113 0.0
O284 O 0.75919 0.4234 0.78789 0.0
O285 O 0.7428 0.43551 0.82945 0.0
C286 C 0.75234 0.44022 0.80423 0.0
C287 C 0.7067 0.38689 0.91414 0.0
C288 C 0.70196 0.37736 0.80337 0.0
C289 C 0.77016 0.36595 0.85201 0.0
O290 O 0.75135 0.36326 0.86582 0.0
O291 O 0.7723 0.38167 0.83265 0.0
O292 O 0.70503 0.36764 0.90036 0.0
O293 O 0.71571 0.40383 0.89988 0.0
O294 O 0.61169 0.7125 0.79637 0.0
Cd295 Cd 0.5954 0.74197 0.80992 0.0
Cd296 Cd 0.6159 0.72905 0.86508 0.0
O297 O 0.62572 0.70113 0.83954 0.0
O298 O 0.57478 0.74891 0.77579 0.0
O299 O 0.56205 0.74145 0.82114 0.0
C300 C 0.55772 0.74615 0.79359 0.0
C301 C 0.60792 0.72253 0.91572 0.0
C302 C 0.62288 0.69806 0.81173 0.0
C303 C 0.6294 0.77453 0.83628 0.0
O304 O 0.63204 0.75997 0.85706 0.0
O305 O 0.61508 0.77092 0.81548 0.0
O306 O 0.62829 0.72086 0.90506 0.0
O307 O 0.59159 0.72744 0.8974 0.0
O308 O 0.28608 0.61377 0.80224 0.0
Cd309 Cd 0.2568 0.59834 0.81771 0.0
Cd310 Cd 0.27194 0.6219 0.87208 0.0
O311 O 0.29865 0.63001 0.84359 0.0
O312 O 0.24823 0.57824 0.78364 0.0
O313 O 0.25644 0.56486 0.82843 0.0
C314 C 0.25075 0.56093 0.80109 0.0
C315 C 0.28103 0.61921 0.92314 0.0
C316 C 0.3009 0.6257 0.81596 0.0
C317 C 0.22532 0.63355 0.84425 0.0
O318 O 0.24041 0.63696 0.86421 0.0
O319 O 0.22842 0.61862 0.82404 0.0
O320 O 0.28164 0.63833 0.90898 0.0
O321 O 0.27564 0.60109 0.90819 0.0
O322 O 0.38597 0.27926 0.79147 0.0
Cd323 Cd 0.40157 0.25227 0.81252 0.0
Cd324 Cd 0.37737 0.27235 0.86215 0.0
O325 O 0.37001 0.29669 0.82986 0.0
O326 O 0.42243 0.24113 0.78067 0.0
O327 O 0.43484 0.25413 0.82405 0.0
C328 C 0.43936 0.24621 0.79782 0.0
C329 C 0.38102 0.28496 0.91181 0.0
C330 C 0.37433 0.29571 0.80211 0.0
C331 C 0.36568 0.22359 0.84177 0.0
O332 O 0.36151 0.24076 0.85839 0.0
O333 O 0.38165 0.22435 0.82261 0.0
O334 O 0.36178 0.28543 0.89787 0.0
O335 O 0.39873 0.27783 0.89732 0.0
O336 O 0.28788 0.38447 0.3048 0.0
Cd337 Cd 0.25926 0.40036 0.32158 0.0
Cd338 Cd 0.27523 0.37594 0.37469 0.0
O339 O 0.30157 0.36808 0.3454 0.0
O340 O 0.25008 0.41983 0.28729 0.0
O341 O 0.25952 0.43406 0.33126 0.0
C342 C 0.25321 0.43746 0.30404 0.0
C343 C 0.28442 0.37905 0.42564 0.0
C344 C 0.30307 0.37249 0.31772 0.0
C345 C 0.22793 0.3653 0.34859 0.0
O346 O 0.24361 0.36095 0.36743 0.0
O347 O 0.23064 0.3808 0.32909 0.0
O348 O 0.28535 0.35986 0.4116 0.0
O349 O 0.27884 0.39703 0.41056 0.0
O350 O 0.61017 0.28662 0.30067 0.0
Cd351 Cd 0.59352 0.25731 0.31386 0.0
Cd352 Cd 0.61715 0.2732 0.3712 0.0
O353 O 0.6252 0.29981 0.34253 0.0
O354 O 0.57858 0.24877 0.27545 0.0
O355 O 0.55892 0.25684 0.31606 0.0
C356 C 0.55904 0.25145 0.28816 0.0
C357 C 0.61596 0.28223 0.42248 0.0
C358 C 0.62158 0.3017 0.31469 0.0
C359 C 0.62785 0.22595 0.34363 0.0
O360 O 0.63159 0.24145 0.36297 0.0
O361 O 0.61296 0.22877 0.3233 0.0
O362 O 0.63466 0.28262 0.40742 0.0
O363 O 0.59739 0.27717 0.40834 0.0
O364 O 0.71035 0.61144 0.29826 0.0
Cd365 Cd 0.73909 0.59474 0.31329 0.0
Cd366 Cd 0.71885 0.61188 0.37038 0.0
O367 O 0.69328 0.6207 0.3405 0.0
O368 O 0.7499 0.57965 0.276 0.0
O369 O 0.73924 0.56025 0.31587 0.0
C370 C 0.74619 0.56019 0.28856 0.0
C371 C 0.70744 0.6073 0.42041 0.0
C372 C 0.69356 0.62019 0.31218 0.0
C373 C 0.76668 0.62783 0.34962 0.0
O374 O 0.74979 0.62888 0.36743 0.0
O375 O 0.76626 0.61456 0.32716 0.0
O376 O 0.70637 0.62668 0.40696 0.0
O377 O 0.71445 0.58987 0.40522 0.0
O378 O 0.3872 0.71441 0.29638 0.0
Cd379 Cd 0.40269 0.73993 0.32051 0.0
Cd380 Cd 0.38169 0.71523 0.36726 0.0
O381 O 0.37542 0.69218 0.33297 0.0
O382 O 0.42348 0.75345 0.29029 0.0
O383 O 0.43594 0.73689 0.33155 0.0
C384 C 0.44042 0.74663 0.30638 0.0
C385 C 0.38754 0.70168 0.41595 0.0
C386 C 0.3778 0.69606 0.30526 0.0
C387 C 0.3661 0.76416 0.35383 0.0
O388 O 0.36301 0.74528 0.3673 0.0
O389 O 0.38219 0.76633 0.33503 0.0
O390 O 0.36828 0.69932 0.40239 0.0
O391 O 0.40423 0.71076 0.40129 0.0
O392 O 0.27818 0.60733 0.21844 0.0
Cd393 Cd 0.25074 0.59209 0.19792 0.0
Cd394 Cd 0.26962 0.61673 0.14984 0.0
O395 O 0.29558 0.62339 0.18023 0.0
O396 O 0.24042 0.57146 0.23035 0.0
O397 O 0.25271 0.55868 0.18684 0.0
C398 C 0.24558 0.55439 0.21348 0.0
C399 C 0.27828 0.6087 0.09989 0.0
C400 C 0.29484 0.61864 0.20786 0.0
C401 C 0.2218 0.62904 0.17158 0.0
O402 O 0.23896 0.63395 0.15537 0.0
O403 O 0.2225 0.61203 0.18918 0.0
O404 O 0.28111 0.62882 0.11114 0.0
O405 O 0.27138 0.5926 0.11746 0.0
O406 O 0.38346 0.288 0.20839 0.0
Cd407 Cd 0.39946 0.25926 0.19199 0.0
Cd408 Cd 0.38115 0.28001 0.13798 0.0
O409 O 0.37344 0.30632 0.1674 0.0
O410 O 0.41446 0.2477 0.22894 0.0
O411 O 0.43397 0.25862 0.18934 0.0
C412 C 0.43396 0.25134 0.21649 0.0
C413 C 0.39076 0.28825 0.08826 0.0
C414 C 0.37467 0.30532 0.19566 0.0
C415 C 0.36397 0.23298 0.15798 0.0
O416 O 0.36196 0.25046 0.14132 0.0
O417 O 0.37898 0.23243 0.17848 0.0
O418 O 0.3706 0.29208 0.09872 0.0
O419 O 0.40613 0.28078 0.10654 0.0
O420 O 0.70758 0.38418 0.21004 0.0
Cd421 Cd 0.73637 0.40019 0.19389 0.0
Cd422 Cd 0.71573 0.38317 0.13943 0.0
O423 O 0.68947 0.37497 0.16854 0.0
O424 O 0.74802 0.41517 0.23083 0.0
O425 O 0.7372 0.43469 0.19112 0.0
C426 C 0.74454 0.43467 0.21827 0.0
C427 C 0.70706 0.39418 0.09031 0.0
C428 C 0.69031 0.37568 0.19685 0.0
C429 C 0.7626 0.36521 0.15886 0.0
O430 O 0.74522 0.36371 0.1419 0.0
O431 O 0.76307 0.3797 0.18001 0.0
O432 O 0.70324 0.37376 0.09987 0.0
O433 O 0.71495 0.40896 0.10912 0.0
O434 O 0.61169 0.71194 0.21398 0.0
Cd435 Cd 0.59563 0.74135 0.20003 0.0
Cd436 Cd 0.61829 0.72741 0.14417 0.0
O437 O 0.62695 0.70022 0.17162 0.0
O438 O 0.57585 0.74884 0.23476 0.0
O439 O 0.56206 0.74135 0.18991 0.0
C440 C 0.55839 0.74634 0.21755 0.0
C441 C 0.61641 0.71915 0.0928 0.0
C442 C 0.62331 0.69741 0.1993 0.0
C443 C 0.6297 0.77377 0.17337 0.0
O444 O 0.63282 0.75905 0.15285 0.0
O445 O 0.61534 0.77014 0.19406 0.0
O446 O 0.63534 0.71872 0.10741 0.0
O447 O 0.598 0.7239 0.10744 0.0
H448 H 0.36065 0.19435 0.19187 0.0
H449 H 0.33014 0.22856 0.11635 0.0
H450 H 0.30056 0.19924 0.11361 0.0
H451 H 0.28172 0.16554 0.13472 0.0
H452 H 0.31179 0.13146 0.21061 0.0
H453 H 0.34322 0.15899 0.21087 0.0
C454 C 0.34768 0.19529 0.17462 0.0
C455 C 0.34755 0.2138 0.15457 0.0
C456 C 0.33053 0.17846 0.17328 0.0
C457 C 0.33063 0.21463 0.13226 0.0
C458 C 0.31364 0.19787 0.13066 0.0
C459 C 0.29523 0.16398 0.1512 0.0
C460 C 0.29422 0.14657 0.17278 0.0
C461 C 0.31317 0.17997 0.15141 0.0
C462 C 0.31202 0.14475 0.19379 0.0
C463 C 0.33001 0.16052 0.19402 0.0
H464 H 0.83064 0.28387 0.13273 0.0
H465 H 0.86551 0.31356 0.20834 0.0
H466 H 0.83749 0.3446 0.20996 0.0
H467 H 0.80163 0.36182 0.19206 0.0
H468 H 0.76672 0.33167 0.11675 0.0
H469 H 0.79634 0.30243 0.11286 0.0
C470 C 0.83226 0.29721 0.14946 0.0
C471 C 0.85006 0.29623 0.17054 0.0
C472 C 0.816 0.3149 0.15043 0.0
C473 C 0.85194 0.3138 0.19188 0.0
C474 C 0.83588 0.33155 0.19289 0.0
C475 C 0.80058 0.34899 0.17462 0.0
C476 C 0.78181 0.34888 0.15493 0.0
C477 C 0.81761 0.33205 0.1726 0.0
C478 C 0.78086 0.33215 0.13236 0.0
C479 C 0.79779 0.31536 0.13011 0.0
H480 H 0.65996 0.78796 0.13138 0.0
H481 H 0.6319 0.80656 0.21704 0.0
H482 H 0.65861 0.83865 0.22042 0.0
H483 H 0.69203 0.85942 0.20092 0.0
H484 H 0.72031 0.84002 0.11564 0.0
H485 H 0.69127 0.8104 0.11026 0.0
C486 C 0.65952 0.79912 0.15071 0.0
C487 C 0.6441 0.79466 0.17405 0.0
C488 C 0.67505 0.81737 0.15268 0.0
C489 C 0.64365 0.80949 0.19878 0.0
C490 C 0.65897 0.82783 0.20078 0.0
C491 C 0.69168 0.84892 0.18099 0.0
C492 C 0.70853 0.85183 0.1589 0.0
C493 C 0.67506 0.83164 0.17814 0.0
C494 C 0.70772 0.83807 0.13316 0.0
C495 C 0.69111 0.82107 0.13004 0.0
H496 H 0.21326 0.66457 0.13411 0.0
H497 H 0.18446 0.62751 0.20836 0.0
H498 H 0.15272 0.65468 0.21081 0.0
H499 H 0.13466 0.69049 0.19419 0.0
H500 H 0.16385 0.72756 0.12016 0.0
H501 H 0.19379 0.69873 0.11528 0.0
C502 C 0.19997 0.6623 0.15072 0.0
C503 C 0.2014 0.64414 0.1712 0.0
C504 C 0.18185 0.67806 0.15216 0.0
C505 C 0.18387 0.64137 0.19236 0.0
C506 C 0.16572 0.65695 0.19385 0.0
C507 C 0.14743 0.69217 0.1768 0.0
C508 C 0.14708 0.71132 0.15779 0.0
C509 C 0.16477 0.67559 0.17421 0.0
C510 C 0.16373 0.7131 0.13526 0.0
C511 C 0.18092 0.69663 0.13245 0.0
H512 H 0.28363 0.82969 0.38311 0.0
H513 H 0.30932 0.86425 0.30497 0.0
H514 H 0.34164 0.83776 0.30283 0.0
H515 H 0.36086 0.80293 0.32074 0.0
H516 H 0.33418 0.76778 0.39786 0.0
H517 H 0.30413 0.79652 0.40286 0.0
C518 C 0.29639 0.83161 0.36574 0.0
C519 C 0.29388 0.84882 0.34408 0.0
C520 C 0.31474 0.81614 0.36435 0.0
C521 C 0.3107 0.85107 0.32185 0.0
C522 C 0.3292 0.83591 0.32056 0.0
C523 C 0.34867 0.80172 0.33888 0.0
C524 C 0.34968 0.78311 0.35872 0.0
C525 C 0.33113 0.8181 0.34135 0.0
C526 C 0.3337 0.78181 0.38209 0.0
C527 C 0.31648 0.79823 0.38498 0.0
H528 H 0.21671 0.33064 0.38623 0.0
H529 H 0.19159 0.36833 0.3102 0.0
H530 H 0.15853 0.3429 0.30693 0.0
H531 H 0.13835 0.30819 0.32325 0.0
H532 H 0.16422 0.2701 0.39854 0.0
H533 H 0.19523 0.29762 0.40457 0.0
C534 C 0.20393 0.33345 0.36907 0.0
C535 C 0.2068 0.35125 0.34832 0.0
C536 C 0.1851 0.31863 0.36708 0.0
C537 C 0.18994 0.35469 0.32638 0.0
C538 C 0.17101 0.34013 0.32445 0.0
C539 C 0.1506 0.30605 0.34121 0.0
C540 C 0.14904 0.28697 0.36022 0.0
C541 C 0.16865 0.32177 0.34433 0.0
C542 C 0.16507 0.28451 0.3834 0.0
C543 C 0.18286 0.30023 0.38688 0.0
H544 H 0.68813 0.13843 0.31789 0.0
H545 H 0.72451 0.16475 0.39442 0.0
H546 H 0.69574 0.1946 0.40066 0.0
H547 H 0.66216 0.21514 0.38212 0.0
H548 H 0.62621 0.18973 0.30475 0.0
H549 H 0.65279 0.15753 0.30139 0.0
C550 C 0.68963 0.1505 0.33616 0.0
C551 C 0.70861 0.14943 0.35546 0.0
C552 C 0.67317 0.16792 0.33941 0.0
C553 C 0.71022 0.16525 0.37905 0.0
C554 C 0.69377 0.18237 0.38265 0.0
C555 C 0.65994 0.20246 0.36466 0.0
C556 C 0.64231 0.20504 0.34355 0.0
C557 C 0.67547 0.18417 0.36258 0.0
C558 C 0.63969 0.1883 0.32122 0.0
C559 C 0.65492 0.16988 0.31923 0.0
H560 H 0.8026 0.63581 0.31209 0.0
H561 H 0.7746 0.65569 0.39734 0.0
H562 H 0.80384 0.68515 0.40246 0.0
H563 H 0.83516 0.70741 0.38103 0.0
H564 H 0.86288 0.68836 0.29535 0.0
H565 H 0.83609 0.65633 0.29236 0.0
C566 C 0.80306 0.64637 0.33197 0.0
C567 C 0.78623 0.64366 0.35412 0.0
C568 C 0.81978 0.66357 0.33465 0.0
C569 C 0.78717 0.6575 0.37978 0.0
C570 C 0.80389 0.6744 0.38275 0.0
C571 C 0.83553 0.69615 0.36179 0.0
C572 C 0.85086 0.70049 0.33831 0.0
C573 C 0.81993 0.67794 0.36002 0.0
C574 C 0.8512 0.68554 0.31371 0.0
C575 C 0.83583 0.66723 0.31192 0.0
H576 H 0.69264 0.85954 0.80867 0.0
H577 H 0.72138 0.83953 0.89343 0.0
H578 H 0.69221 0.81003 0.89872 0.0
H579 H 0.66041 0.78808 0.87784 0.0
H580 H 0.63183 0.80732 0.79274 0.0
H581 H 0.65894 0.83905 0.78926 0.0
C582 C 0.69238 0.84891 0.82846 0.0
C583 C 0.70936 0.85166 0.85046 0.0
C584 C 0.67566 0.83172 0.83127 0.0
C585 C 0.70868 0.83773 0.87599 0.0
C586 C 0.692 0.8208 0.87906 0.0
C587 C 0.65994 0.79929 0.8586 0.0
C588 C 0.64422 0.79513 0.83547 0.0
C589 C 0.67571 0.81735 0.85658 0.0
C590 C 0.6438 0.81002 0.81085 0.0
C591 C 0.65934 0.82816 0.80879 0.0
H592 H 0.13935 0.69556 0.81671 0.0
H593 H 0.16083 0.72658 0.89956 0.0
H594 H 0.19058 0.69769 0.90519 0.0
H595 H 0.21237 0.6655 0.88496 0.0
H596 H 0.19161 0.63462 0.80177 0.0
H597 H 0.15963 0.66144 0.79816 0.0
C598 C 0.15036 0.69586 0.83617 0.0
C599 C 0.14795 0.7134 0.85749 0.0
C600 C 0.16769 0.67929 0.83918 0.0
C601 C 0.16236 0.71343 0.88263 0.0
C602 C 0.17944 0.69691 0.8859 0.0
C603 C 0.20077 0.66447 0.86613 0.0
C604 C 0.20458 0.64819 0.84354 0.0
C605 C 0.18256 0.68007 0.86402 0.0
C606 C 0.1892 0.64703 0.81945 0.0
C607 C 0.17091 0.66241 0.81731 0.0
H608 H 0.33194 0.21517 0.88191 0.0
H609 H 0.36555 0.1861 0.80499 0.0
H610 H 0.33801 0.15465 0.80431 0.0
H611 H 0.30258 0.13711 0.82314 0.0
H612 H 0.26893 0.16676 0.89973 0.0
H613 H 0.2984 0.19613 0.90294 0.0
C614 C 0.33341 0.20187 0.86512 0.0
C615 C 0.35066 0.20318 0.84336 0.0
C616 C 0.31741 0.18396 0.86466 0.0
C617 C 0.35239 0.18562 0.82197 0.0
C618 C 0.33659 0.16764 0.82149 0.0
C619 C 0.3018 0.14984 0.84072 0.0
C620 C 0.28338 0.14981 0.86093 0.0
C621 C 0.31874 0.16689 0.84235 0.0
C622 C 0.28277 0.16641 0.88369 0.0
C623 C 0.29963 0.18328 0.88556 0.0
H624 H 0.83469 0.283 0.88284 0.0
H625 H 0.86966 0.30732 0.80428 0.0
H626 H 0.84362 0.34 0.80152 0.0
H627 H 0.80894 0.35987 0.81897 0.0
H628 H 0.77355 0.33459 0.89671 0.0
H629 H 0.80188 0.30425 0.90226 0.0
C630 C 0.83681 0.29553 0.86524 0.0
C631 C 0.854 0.29252 0.84365 0.0
C632 C 0.82161 0.3141 0.86352 0.0
C633 C 0.85651 0.30908 0.82114 0.0
C634 C 0.84159 0.32779 0.81949 0.0
C635 C 0.80759 0.34792 0.83737 0.0
C636 C 0.789 0.34942 0.85721 0.0
C637 C 0.82377 0.33021 0.8402 0.0
C638 C 0.78755 0.33375 0.88092 0.0
C639 C 0.80374 0.31635 0.88413 0.0
H640 H 0.66833 0.21378 0.63202 0.0
H641 H 0.63329 0.1848 0.70779 0.0
H642 H 0.66069 0.1532 0.70911 0.0
H643 H 0.69612 0.13527 0.69089 0.0
H644 H 0.73118 0.16471 0.61538 0.0
H645 H 0.70212 0.19452 0.6118 0.0
C646 C 0.66655 0.20048 0.64872 0.0
C647 C 0.64889 0.20182 0.66994 0.0
C648 C 0.68244 0.18246 0.64951 0.0
C649 C 0.64677 0.18429 0.69123 0.0
C650 C 0.66247 0.16622 0.69206 0.0
C651 C 0.69731 0.14806 0.67347 0.0
C652 C 0.71597 0.14781 0.65364 0.0
C653 C 0.68061 0.16535 0.67163 0.0
C654 C 0.71712 0.16451 0.6311 0.0
C655 C 0.70051 0.18163 0.62903 0.0
H656 H 0.80441 0.63795 0.70315 0.0
H657 H 0.77492 0.65915 0.61931 0.0
H658 H 0.80415 0.68859 0.61417 0.0
H659 H 0.83638 0.71 0.63483 0.0
H660 H 0.86576 0.68958 0.719 0.0
H661 H 0.8384 0.65805 0.72241 0.0
C662 C 0.8045 0.64885 0.68361 0.0
C663 C 0.78732 0.64642 0.66181 0.0
C664 C 0.82128 0.66598 0.68086 0.0
C665 C 0.78779 0.66069 0.63659 0.0
C666 C 0.80451 0.67758 0.63359 0.0
C667 C 0.83696 0.69858 0.65385 0.0
C668 C 0.853 0.70233 0.67673 0.0
C669 C 0.82107 0.68065 0.65584 0.0
C670 C 0.85356 0.68719 0.70108 0.0
C671 C 0.83787 0.66916 0.7031 0.0
H672 H 0.28651 0.8367 0.6341 0.0
H673 H 0.31091 0.86525 0.71704 0.0
H674 H 0.34199 0.83724 0.71809 0.0
H675 H 0.36048 0.80285 0.69737 0.0
H676 H 0.33518 0.77396 0.61506 0.0
H677 H 0.30632 0.80401 0.61189 0.0
C678 C 0.29871 0.83698 0.65232 0.0
C679 C 0.2962 0.85297 0.67558 0.0
C680 C 0.31635 0.82066 0.65301 0.0
C681 C 0.31232 0.85309 0.69888 0.0
C682 C 0.3301 0.83703 0.69955 0.0
C683 C 0.34882 0.80326 0.67856 0.0
C684 C 0.34992 0.78601 0.65664 0.0
C685 C 0.33201 0.82046 0.67702 0.0
C686 C 0.33466 0.78687 0.6324 0.0
C687 C 0.31811 0.80406 0.63055 0.0
H688 H 0.13385 0.30299 0.69136 0.0
H689 H 0.16559 0.26726 0.61784 0.0
H690 H 0.19438 0.29727 0.61388 0.0
H691 H 0.21221 0.33208 0.63343 0.0
H692 H 0.18098 0.36778 0.70728 0.0
H693 H 0.15023 0.33947 0.70866 0.0
C694 C 0.14693 0.30185 0.67429 0.0
C695 C 0.14764 0.28273 0.65516 0.0
C696 C 0.16361 0.31912 0.67222 0.0
C697 C 0.16467 0.28166 0.63304 0.0
C698 C 0.1812 0.29882 0.63074 0.0
C699 C 0.19859 0.33382 0.64969 0.0
C700 C 0.19907 0.35193 0.6704 0.0
C701 C 0.18109 0.31738 0.65057 0.0
C702 C 0.18112 0.35398 0.69112 0.0
C703 C 0.16355 0.33775 0.692 0.0
H704 H 0.19408 0.13374 0.06508 0.0
H705 H 0.23014 0.0695 0.0726 0.0
H706 H 0.22797 0.0643 0.0185 0.0
H707 H 0.2193 0.08022 0.96854 0.0
H708 H 0.18384 0.14498 0.96224 0.0
H709 H 0.18213 0.1476 0.01627 0.0
C710 C 0.20125 0.11845 0.05497 0.0
C711 C 0.21249 0.10218 0.07283 0.0
C712 C 0.20016 0.11572 0.02395 0.0
C713 C 0.22144 0.08233 0.05936 0.0
C714 C 0.22029 0.0794 0.02839 0.0
C715 C 0.21083 0.09467 0.97902 0.0
C716 C 0.20194 0.11249 0.96131 0.0
C717 C 0.2102 0.09629 0.01036 0.0
C718 C 0.19104 0.13112 0.97527 0.0
C719 C 0.19007 0.13268 1.00622 0.0
H720 H 0.91462 0.22407 0.96286 0.0
H721 H 0.84567 0.19797 0.95533 0.0
H722 H 0.84289 0.19526 0.00925 0.0
H723 H 0.85856 0.2031 0.05855 0.0
H724 H 0.92697 0.23012 0.06739 0.0
H725 H 0.93151 0.22939 0.01315 0.0
C726 C 0.89913 0.2175 0.97304 0.0
C727 C 0.88032 0.21142 0.95499 0.0
C728 C 0.89746 0.21626 1.00436 0.0
C729 C 0.86035 0.20297 0.96859 0.0
C730 C 0.85871 0.2014 0.9995 0.0
C731 C 0.87459 0.20862 0.04871 0.0
C732 C 0.89232 0.21682 0.06707 0.0
C733 C 0.87694 0.20846 0.0176 0.0
C734 C 0.91301 0.22375 0.05382 0.0
C735 C 0.91558 0.22342 0.02277 0.0
H736 H 0.80523 0.86995 0.95712 0.0
H737 H 0.76925 0.93411 0.948 0.0
H738 H 0.76912 0.93881 1.00228 0.0
H739 H 0.77559 0.92232 0.05259 0.0
H740 H 0.81071 0.85746 0.06022 0.0
H741 H 0.81494 0.85554 1.0064 0.0
C742 C 0.79759 0.88514 0.96693 0.0
C743 C 0.78704 0.90152 0.94855 0.0
C744 C 0.79728 0.88752 0.99801 0.0
C745 C 0.77747 0.92121 0.96165 0.0
C746 C 0.77728 0.92384 0.99271 0.0
C747 C 0.78452 0.90801 0.04246 0.0
C748 C 0.79259 0.88994 0.06043 0.0
C749 C 0.78659 0.90677 0.01118 0.0
C750 C 0.80411 0.87148 0.04695 0.0
C751 C 0.80654 0.87034 0.01612 0.0
H752 H 0.07442 0.77724 0.96034 0.0
H753 H 0.13528 0.81891 0.95388 0.0
H754 H 0.13624 0.8232 0.00776 0.0
H755 H 0.1229 0.81128 0.05669 0.0
H756 H 0.06299 0.76856 0.06459 0.0
H757 H 0.0583 0.76885 0.01032 0.0
C758 C 0.08757 0.78764 0.97074 0.0
C759 C 0.10491 0.7975 0.95314 0.0
C760 C 0.08834 0.78968 1.00202 0.0
C761 C 0.12188 0.81091 0.96692 0.0
C762 C 0.12249 0.81337 0.99777 0.0
C763 C 0.10859 0.8023 0.04661 0.0
C764 C 0.09351 0.78967 0.06459 0.0
C765 C 0.10629 0.80219 0.01555 0.0
C766 C 0.07489 0.77838 0.05122 0.0
C767 C 0.07229 0.77842 0.02016 0.0
H768 H 0.22784 0.9146 0.46131 0.0
H769 H 0.19936 0.84641 0.45647 0.0
H770 H 0.19664 0.84495 0.51044 0.0
H771 H 0.20521 0.86137 0.55898 0.0
H772 H 0.23438 0.92907 0.56541 0.0
H773 H 0.23369 0.93251 0.51097 0.0
C774 C 0.22075 0.89958 0.4721 0.0
C775 C 0.21403 0.88056 0.45482 0.0
C776 C 0.21948 0.89868 0.50344 0.0
C777 C 0.20488 0.86121 0.46916 0.0
C778 C 0.20331 0.86033 0.50008 0.0
C779 C 0.21125 0.877 0.54855 0.0
C780 C 0.22006 0.89483 0.56622 0.0
C781 C 0.21104 0.87871 0.51743 0.0
C782 C 0.22755 0.91505 0.55231 0.0
C783 C 0.22725 0.91698 0.52117 0.0
H784 H 0.12649 0.18393 0.55028 0.0
H785 H 0.06543 0.2247 0.56104 0.0
H786 H 0.06015 0.22554 0.50691 0.0
H787 H 0.07582 0.21868 0.45634 0.0
H788 H 0.13757 0.17862 0.44682 0.0
H789 H 0.13946 0.17333 0.5005 0.0
C790 C 0.11181 0.19273 0.54085 0.0
C791 C 0.09655 0.20448 0.55965 0.0
C792 C 0.10911 0.19342 0.50981 0.0
C793 C 0.07747 0.21555 0.54706 0.0
C794 C 0.07452 0.21615 0.51608 0.0
C795 C 0.08939 0.2084 0.466 0.0
C796 C 0.10669 0.19931 0.44757 0.0
C797 C 0.09064 0.20573 0.49717 0.0
C798 C 0.12417 0.18603 0.46046 0.0
C799 C 0.12531 0.18302 0.49121 0.0
H800 H 0.81221 0.12883 0.54775 0.0
H801 H 0.77436 0.06581 0.55702 0.0
H802 H 0.7732 0.06152 0.50274 0.0
H803 H 0.77917 0.07822 0.45255 0.0
H804 H 0.81625 0.1419 0.44455 0.0
H805 H 0.82163 0.14322 0.49827 0.0
C806 C 0.80397 0.11396 0.53797 0.0
C807 C 0.79317 0.09781 0.55644 0.0
C808 C 0.80308 0.11181 0.50685 0.0
C809 C 0.78279 0.07853 0.54333 0.0
C810 C 0.78201 0.07614 0.51226 0.0
C811 C 0.7888 0.09213 0.46254 0.0
C812 C 0.79707 0.11006 0.44451 0.0
C813 C 0.79154 0.09303 0.49375 0.0
C814 C 0.80949 0.12799 0.45785 0.0
C815 C 0.81257 0.1288 0.48864 0.0
H816 H 0.85817 0.78906 0.55574 0.0
H817 H 0.92772 0.76486 0.5637 0.0
H818 H 0.93146 0.76468 0.5093 0.0
H819 H 0.91372 0.76873 0.45925 0.0
H820 H 0.84375 0.79226 0.45288 0.0
H821 H 0.84154 0.79543 0.50677 0.0
C822 C 0.87426 0.7839 0.54567 0.0
C823 C 0.89257 0.7768 0.5638 0.0
C824 C 0.87617 0.7836 0.51454 0.0
C825 C 0.91332 0.77038 0.55027 0.0
C826 C 0.91544 0.77019 0.51915 0.0
C827 C 0.89811 0.7748 0.46968 0.0
C828 C 0.87888 0.78006 0.45197 0.0
C829 C 0.89681 0.77637 0.501 0.0
C830 C 0.85877 0.7879 0.46588 0.0
C831 C 0.85745 0.78973 0.49677 0.0
H832 H 0.69037 0.62617 0.55602 0.0
H833 H 0.72777 0.5628 0.56487 0.0
H834 H 0.72728 0.55782 0.51064 0.0
H835 H 0.71995 0.57399 0.46037 0.0
H836 H 0.68349 0.63813 0.45297 0.0
H837 H 0.67975 0.64014 0.50686 0.0
C838 C 0.69818 0.61109 0.54617 0.0
C839 C 0.70933 0.59503 0.56444 0.0
C840 C 0.69815 0.60856 0.51512 0.0
C841 C 0.71911 0.57546 0.5513 0.0
C842 C 0.71894 0.57267 0.52026 0.0
C843 C 0.71081 0.58815 0.47057 0.0
C844 C 0.70224 0.60601 0.45265 0.0
C845 C 0.70906 0.58946 0.50187 0.0
C846 C 0.69048 0.62428 0.46622 0.0
C847 C 0.68834 0.62548 0.49708 0.0
H848 H 0.42034 0.71548 0.45582 0.0
H849 H 0.35808 0.67598 0.44851 0.0
H850 H 0.35605 0.67275 0.50247 0.0
H851 H 0.36909 0.68502 0.5516 0.0
H852 H 0.43073 0.72517 0.56008 0.0
H853 H 0.43605 0.72398 0.50596 0.0
C854 C 0.40663 0.70575 0.46604 0.0
C855 C 0.38925 0.69622 0.44812 0.0
C856 C 0.40529 0.70428 0.49734 0.0
C857 C 0.37157 0.68369 0.46174 0.0
C858 C 0.37034 0.68186 0.49265 0.0
C859 C 0.38389 0.69326 0.54168 0.0
C860 C 0.39932 0.70543 0.5598 0.0
C861 C 0.38665 0.69274 0.51065 0.0
C862 C 0.41856 0.71573 0.54662 0.0
C863 C 0.42153 0.71516 0.51564 0.0
H864 H 0.27429 0.41365 0.46499 0.0
H865 H 0.30305 0.34558 0.45979 0.0
H866 H 0.30521 0.34371 0.51383 0.0
H867 H 0.29584 0.35969 0.5625 0.0
H868 H 0.26619 0.42722 0.56898 0.0
H869 H 0.26776 0.43112 0.51468 0.0
C870 C 0.28135 0.39857 0.47571 0.0
C871 C 0.28829 0.3797 0.45829 0.0
C872 C 0.28225 0.39742 0.50707 0.0
C873 C 0.29737 0.36028 0.47257 0.0
C874 C 0.29861 0.35916 0.50354 0.0
C875 C 0.28994 0.3754 0.55213 0.0
C876 C 0.28071 0.39304 0.5698 0.0
C877 C 0.29059 0.37737 0.521 0.0
C878 C 0.27334 0.41334 0.55592 0.0
C879 C 0.27414 0.41553 0.52484 0.0
H880 H 0.63967 0.29535 0.55809 0.0
H881 H 0.57163 0.26776 0.5686 0.0
H882 H 0.56628 0.26824 0.51447 0.0
H883 H 0.58241 0.27345 0.46379 0.0
H884 H 0.651 0.30012 0.4546 0.0
H885 H 0.65453 0.30314 0.50843 0.0
C886 C 0.62354 0.28966 0.54864 0.0
C887 C 0.60616 0.28136 0.56742 0.0
C888 C 0.62073 0.28967 0.5176 0.0
C889 C 0.58533 0.27421 0.55469 0.0
C890 C 0.5823 0.27439 0.5237 0.0
C891 C 0.59798 0.28021 0.4736 0.0
C892 C 0.61648 0.28636 0.4551 0.0
C893 C 0.60008 0.28163 0.50486 0.0
C894 C 0.63656 0.29506 0.46821 0.0
C895 C 0.63863 0.2968 0.49906 0.0
H896 H 0.71847 0.42003 0.95475 0.0
H897 H 0.68082 0.35678 0.94539 0.0
H898 H 0.67543 0.35496 0.99907 0.0
H899 H 0.68509 0.36871 0.04884 0.0
H900 H 0.72351 0.43128 0.05945 0.0
H901 H 0.72459 0.43617 1.00527 0.0
C902 C 0.7087 0.40612 0.96444 0.0
C903 C 0.70028 0.38844 0.94604 0.0
C904 C 0.70597 0.40492 0.99562 0.0
C905 C 0.68769 0.3705 0.95899 0.0
C906 C 0.68461 0.3694 0.98974 0.0
C907 C 0.69343 0.38361 0.03937 0.0
C908 C 0.70443 0.39945 0.05817 0.0
C909 C 0.69428 0.38611 0.00831 0.0
C910 C 0.71494 0.41879 0.0455 0.0
C911 C 0.71567 0.42153 0.01448 0.0
H912 H 0.58194 0.72735 0.05248 0.0
H913 H 0.65142 0.70253 0.05962 0.0
H914 H 0.65412 0.69984 1.00572 0.0
H915 H 0.63813 0.70711 0.9566 0.0
H916 H 0.56908 0.73254 0.94789 0.0
H917 H 0.56476 0.73216 1.00222 0.0
C918 C 0.59753 0.72109 0.0422 0.0
C919 C 0.61651 0.71535 0.06014 0.0
C920 C 0.59913 0.71981 0.01089 0.0
C921 C 0.63661 0.70727 0.04644 0.0
C922 C 0.63821 0.70571 0.01556 0.0
C923 C 0.62203 0.71242 0.9665 0.0
C924 C 0.60404 0.72004 0.9482 0.0
C925 C 0.61978 0.71237 0.99758 0.0
C926 C 0.58324 0.72663 0.96146 0.0
C927 C 0.58079 0.72649 0.99254 0.0
H928 H 0.29508 0.63878 0.05966 0.0
H929 H 0.26755 0.57044 0.06695 0.0
H930 H 0.26768 0.56673 0.01258 0.0
H931 H 0.2725 0.58443 0.96274 0.0
H932 H 0.29913 0.65329 0.95682 0.0
H933 H 0.30254 0.65516 0.01075 0.0
C934 C 0.28933 0.62294 0.04945 0.0
C935 C 0.28114 0.605 0.06739 0.0
C936 C 0.28913 0.62108 0.01829 0.0
C937 C 0.27391 0.58456 0.05368 0.0
C938 C 0.27389 0.58246 0.02257 0.0
C939 C 0.27933 0.5997 0.97327 0.0
C940 C 0.28534 0.61876 0.9557 0.0
C941 C 0.28099 0.60083 1.00459 0.0
C942 C 0.29416 0.63843 0.96973 0.0
C943 C 0.29613 0.63955 1.00063 0.0
H944 H 0.41531 0.27623 0.95211 0.0
H945 H 0.34853 0.30738 0.94366 0.0
H946 H 0.34691 0.31334 0.99725 0.0
H947 H 0.36248 0.30643 0.04679 0.0
H948 H 0.42858 0.27427 0.05664 0.0
H949 H 0.43259 0.27235 1.00237 0.0
C950 C 0.40059 0.28465 0.96198 0.0
C951 C 0.38197 0.29113 0.94386 0.0
C952 C 0.39956 0.28773 0.99313 0.0
C953 C 0.36301 0.302 0.95704 0.0
C954 C 0.36204 0.30543 0.98775 0.0
C955 C 0.37794 0.29926 0.03714 0.0
C956 C 0.3951 0.29031 0.0558 0.0
C957 C 0.37992 0.29784 1.00605 0.0
C958 C 0.41507 0.28125 0.04283 0.0
C959 C 0.41732 0.28004 0.01176 0.0
H960 H 0.25141 0.01665 0.20258 0.0
H961 H 0.26023 0.05262 0.28588 0.0
H962 H 0.25988 0.01643 0.31285 0.0
H963 H 0.25501 0.97465 0.31316 0.0
H964 H 0.24743 0.9385 0.22984 0.0
H965 H 0.24942 0.97459 0.2026 0.0
C966 C 0.25345 0.01653 0.2266 0.0
C967 C 0.25568 0.03729 0.24217 0.0
C968 C 0.25332 0.99563 0.24204 0.0
C969 C 0.25848 0.03687 0.27329 0.0
C970 C 0.25819 0.01618 0.2888 0.0
C971 C 0.25389 0.97469 0.28905 0.0
C972 C 0.25089 0.954 0.27358 0.0
C973 C 0.25528 0.99548 0.27346 0.0
C974 C 0.24973 0.95425 0.24229 0.0
C975 C 0.25082 0.97487 0.22667 0.0
H976 H 0.95278 0.25677 0.2733 0.0
H977 H 0.98038 0.25916 0.18422 0.0
H978 H 0.01926 0.26104 0.2045 0.0
H979 H 0.04531 0.25989 0.2474 0.0
H980 H 0.01775 0.25437 0.33625 0.0
H981 H 0.97879 0.25598 0.31619 0.0
C982 C 0.96729 0.25795 0.25831 0.0
C983 C 0.96375 0.25791 0.2273 0.0
C984 C 0.98953 0.25839 0.2701 0.0
C985 C 0.9827 0.25914 0.20816 0.0
C986 C 0.0049 0.26021 0.21974 0.0
C987 C 0.03077 0.25933 0.26241 0.0
C988 C 0.03436 0.25713 0.29328 0.0
C989 C 0.00851 0.25956 0.25066 0.0
C990 C 0.01539 0.25607 0.31242 0.0
C991 C 0.99315 0.25696 0.30096 0.0
H992 H 0.74446 0.01852 0.31474 0.0
H993 H 0.73477 0.0559 0.23281 0.0
H994 H 0.73472 0.02016 0.20468 0.0
H995 H 0.73981 0.97836 0.20287 0.0
H996 H 0.74767 0.94074 0.28488 0.0
H997 H 0.74595 0.97637 0.31335 0.0
C998 C 0.74211 0.0188 0.29077 0.0
C999 C 0.73981 0.03984 0.27591 0.0
C1000 C 0.74191 0.99812 0.27466 0.0
C1001 C 0.73657 0.03993 0.24486 0.0
C1002 C 0.73664 0.0195 0.22868 0.0
C1003 C 0.74099 0.97799 0.22698 0.0
C1004 C 0.74408 0.95701 0.24171 0.0
C1005 C 0.73969 -0.00148 0.24327 0.0
C1006 C 0.7453 0.95671 0.27299 0.0
C1007 C 0.74438 0.97708 0.28931 0.0
H1008 H 0.01786 0.7492 0.19755 0.0
H1009 H 0.05461 0.74107 0.28031 0.0
H1010 H 0.01857 0.74004 0.30768 0.0
H1011 H 0.97659 0.74329 0.30846 0.0
H1012 H 0.93982 0.75014 0.22553 0.0
H1013 H 0.9758 0.74975 0.19799 0.0
C1014 C 0.01796 0.74704 0.22154 0.0
C1015 C 0.03888 0.74536 0.23684 0.0
C1016 C 0.99715 0.74633 0.23719 0.0
C1017 C 0.03873 0.74239 0.26794 0.0
C1018 C 0.01813 0.74188 0.28366 0.0
C1019 C 0.97648 0.7446 0.28436 0.0
C1020 C 0.9556 0.74691 0.26912 0.0
C1021 C 0.99724 0.74414 0.26858 0.0
C1022 C 0.95568 0.74834 0.23784 0.0
C1023 C 0.97625 0.74817 0.22204 0.0
H1024 H 0.74714 0.97926 0.80734 0.0
H1025 H 0.74715 0.94043 0.72548 0.0
H1026 H 0.74735 0.97581 0.69664 0.0
H1027 H 0.74964 0.01787 0.69458 0.0
H1028 H 0.74814 0.05671 0.77641 0.0
H1029 H 0.74627 0.02136 0.80519 0.0
C1030 C 0.74702 0.97857 0.7832 0.0
C1031 C 0.74731 0.95725 0.76862 0.0
C1032 C 0.74695 -0.00099 0.76667 0.0
C1033 C 0.74692 0.95662 0.7373 0.0
C1034 C 0.74712 0.97685 0.72074 0.0
C1035 C 0.74874 0.01858 0.71869 0.0
C1036 C 0.74921 0.03988 0.73329 0.0
C1037 C 0.74747 0.99815 0.73518 0.0
C1038 C 0.74781 0.04053 0.76457 0.0
C1039 C 0.74681 0.02031 0.7811 0.0
H1040 H 0.95418 0.75079 0.77553 0.0
H1041 H 0.97957 0.74792 0.68534 0.0
H1042 H 0.01895 0.74709 0.70394 0.0
H1043 H 0.04607 0.74861 0.74571 0.0
H1044 H 0.02065 0.75367 0.83573 0.0
H1045 H 0.98126 0.7521 0.81727 0.0
C1046 C 0.96832 0.74982 0.75992 0.0
C1047 C 0.96396 0.74937 0.72909 0.0
C1048 C 0.99086 0.74979 0.77075 0.0
C1049 C 0.98247 0.74833 0.70917 0.0
C1050 C 0.00497 0.74784 0.71979 0.0
C1051 C 0.03191 0.74917 0.76133 0.0
C1052 C 0.03626 0.75118 0.79206 0.0
C1053 C 0.00936 0.74876 0.75052 0.0
C1054 C 0.01774 0.75214 0.81197 0.0
C1055 C 0.99524 0.75126 0.80143 0.0
H1056 H 0.25346 0.98029 0.70993 0.0
H1057 H 0.24997 0.94221 0.79213 0.0
H1058 H 0.24921 0.97784 0.82053 0.0
H1059 H 0.24765 0.01992 0.822 0.0
H1060 H 0.25236 0.05801 0.73991 0.0
H1061 H 0.25468 0.02238 0.71165 0.0
C1062 C 0.25268 0.97981 0.73405 0.0
C1063 C 0.25162 0.95863 0.74883 0.0
C1064 C 0.25241 0.00039 0.75034 0.0
C1065 C 0.25081 0.95828 0.78015 0.0
C1066 C 0.25031 0.97866 0.79645 0.0
C1067 C 0.24934 0.02041 0.79796 0.0
C1068 C 0.24967 0.04158 0.78312 0.0
C1069 C 0.25081 -0.00017 0.78178 0.0
C1070 C 0.25207 0.04194 0.75194 0.0
C1071 C 0.25332 0.02156 0.7357 0.0
H1072 H 0.98033 0.24944 0.80969 0.0
H1073 H 0.94131 0.24519 0.72821 0.0
H1074 H 0.97654 0.24547 0.69911 0.0
H1075 H 0.01859 0.24511 0.6968 0.0
H1076 H 0.0576 0.25073 0.77816 0.0
H1077 H 0.02233 0.2519 0.80715 0.0
C1078 C 0.97956 0.2487 0.78557 0.0
C1079 C 0.95825 0.24714 0.77119 0.0
C1080 C -9e-05 0.24908 0.76888 0.0
C1081 C 0.9575 0.24641 0.73988 0.0
C1082 C 0.97765 0.2465 0.72318 0.0
C1083 C 0.01935 0.24676 0.72084 0.0
C1084 C 0.04069 0.24768 0.73526 0.0
C1085 C -0.00103 0.24757 0.73744 0.0
C1086 C 0.0414 0.25 0.76645 0.0
C1087 C 0.02122 0.25058 0.78311 0.0
H1088 H 0.74949 0.5458 0.77469 0.0
H1089 H 0.75325 0.51915 0.68513 0.0
H1090 H 0.75677 0.48019 0.70465 0.0
H1091 H 0.75698 0.45369 0.74698 0.0
H1092 H 0.75024 0.47999 0.8364 0.0
H1093 H 0.74985 0.51923 0.81714 0.0
C1094 C 0.75128 0.53148 0.75945 0.0
C1095 C 0.75118 0.53533 0.72851 0.0
C1096 C 0.75272 0.50913 0.77082 0.0
C1097 C 0.75323 0.5166 0.70903 0.0
C1098 C 0.75526 0.49435 0.72018 0.0
C1099 C 0.7557 0.46802 0.7623 0.0
C1100 C 0.75378 0.46399 0.79309 0.0
C1101 C 0.7548 0.49041 0.751 0.0
C1102 C 0.75176 0.48269 0.81261 0.0
C1103 C 0.75151 0.50509 0.8016 0.0
H1104 H 0.54403 0.74607 0.73591 0.0
H1105 H 0.51813 0.74914 0.82585 0.0
H1106 H 0.47887 0.75016 0.80686 0.0
H1107 H 0.452 0.74883 0.76485 0.0
H1108 H 0.47787 0.74364 0.67507 0.0
H1109 H 0.51717 0.74491 0.6939 0.0
C1110 C 0.52981 0.74713 0.75138 0.0
C1111 C 0.53398 0.74758 0.78226 0.0
C1112 C 0.50732 0.74728 0.74033 0.0
C1113 C 0.51537 0.74873 0.80199 0.0
C1114 C 0.49293 0.74932 0.79115 0.0
C1115 C 0.46623 0.74817 0.74936 0.0
C1116 C 0.46204 0.74622 0.71858 0.0
C1117 C 0.48872 0.74843 0.76038 0.0
C1118 C 0.48065 0.74513 0.69885 0.0
C1119 C 0.50311 0.74585 0.7096 0.0
H1120 H 0.24024 0.45579 0.77182 0.0
H1121 H 0.24546 0.48153 0.68202 0.0
H1122 H 0.24729 0.5208 0.70108 0.0
H1123 H 0.24888 0.54754 0.74331 0.0
H1124 H 0.24599 0.52147 0.83316 0.0
H1125 H 0.24178 0.48246 0.81397 0.0
C1126 C 0.24154 0.47 0.75637 0.0
C1127 C 0.24259 0.46579 0.72553 0.0
C1128 C 0.24315 0.4924 0.76751 0.0
C1129 C 0.24459 0.48435 0.70584 0.0
C1130 C 0.24567 0.50678 0.71674 0.0
C1131 C 0.24719 0.53334 0.75872 0.0
C1132 C 0.2477 0.53738 0.78963 0.0
C1133 C 0.2452 0.51097 0.74753 0.0
C1134 C 0.2457 0.5188 0.80928 0.0
C1135 C 0.24327 0.49651 0.79833 0.0
H1136 H 0.45312 0.24261 0.7405 0.0
H1137 H 0.47881 0.24542 0.83059 0.0
H1138 H 0.51814 0.2436 0.81196 0.0
H1139 H 0.54507 0.24282 0.77008 0.0
H1140 H 0.51941 0.2427 0.67991 0.0
H1141 H 0.48006 0.24176 0.69861 0.0
C1142 C 0.46732 0.24262 0.75609 0.0
C1143 C 0.4631 0.24405 0.78689 0.0
C1144 C 0.48982 0.24212 0.7452 0.0
C1145 C 0.48165 0.24435 0.80679 0.0
C1146 C 0.50411 0.2433 0.79615 0.0
C1147 C 0.53087 0.24236 0.7545 0.0
C1148 C 0.5351 0.24272 0.72365 0.0
C1149 C 0.50837 0.2424 0.7654 0.0
C1150 C 0.51655 0.24244 0.70375 0.0
C1151 C 0.49409 0.24191 0.71443 0.0
H1152 H 0.24371 0.54197 0.27136 0.0
H1153 H 0.24661 0.51405 0.18238 0.0
H1154 H 0.24812 0.4752 0.20281 0.0
H1155 H 0.25022 0.44948 0.24594 0.0
H1156 H 0.2497 0.4777 0.33486 0.0
H1157 H 0.24567 0.51631 0.31439 0.0
C1158 C 0.24443 0.52738 0.25639 0.0
C1159 C 0.24493 0.53084 0.22539 0.0
C1160 C 0.24588 0.50524 0.26829 0.0
C1161 C 0.24618 0.5118 0.20632 0.0
C1162 C 0.24708 0.48962 0.21799 0.0
C1163 C 0.24907 0.46406 0.26086 0.0
C1164 C 0.25021 0.46076 0.29188 0.0
C1165 C 0.24719 0.48618 0.24894 0.0
C1166 C 0.24893 0.47982 0.31091 0.0
C1167 C 0.24659 0.50187 0.29923 0.0
H1168 H 0.51535 0.24749 0.30889 0.0
H1169 H 0.55485 0.25124 0.22784 0.0
H1170 H 0.51979 0.25075 0.19833 0.0
H1171 H 0.47774 0.25105 0.19551 0.0
H1172 H 0.43825 0.24593 0.27644 0.0
H1173 H 0.47336 0.24498 0.30585 0.0
C1174 C 0.51626 0.24807 0.28478 0.0
C1175 C 0.53766 0.24956 0.27064 0.0
C1176 C 0.496 0.24757 0.26785 0.0
C1177 C 0.53858 0.25009 0.23933 0.0
C1178 C 0.51853 0.24987 0.22239 0.0
C1179 C 0.47684 0.24956 0.21955 0.0
C1180 C 0.45541 0.24871 0.23372 0.0
C1181 C 0.49713 0.24887 0.2364 0.0
C1182 C 0.45453 0.2466 0.26491 0.0
C1183 C 0.4746 0.24614 0.28182 0.0
H1184 H 0.74852 0.51658 0.30989 0.0
H1185 H 0.74873 0.55563 0.22835 0.0
H1186 H 0.749 0.52032 0.19922 0.0
H1187 H 0.74707 0.47825 0.19681 0.0
H1188 H 0.7484 0.43922 0.27836 0.0
H1189 H 0.74979 0.4745 0.30743 0.0
C1190 C 0.74879 0.51734 0.28576 0.0
C1191 C 0.74843 0.53868 0.27135 0.0
C1192 C 0.74915 0.49695 0.26908 0.0
C1193 C 0.74901 0.53941 0.24004 0.0
C1194 C 0.74908 0.51922 0.22332 0.0
C1195 C 0.74783 0.47749 0.22093 0.0
C1196 C 0.74745 0.45616 0.23536 0.0
C1197 C 0.74883 0.49788 0.23758 0.0
C1198 C 0.74867 0.45543 0.26664 0.0
C1199 C 0.74939 0.47561 0.28334 0.0
H1200 H 0.45346 0.75292 0.24924 0.0
H1201 H 0.48038 0.7437 0.33796 0.0
H1202 H 0.51945 0.74405 0.31822 0.0
H1203 H 0.5457 0.74527 0.27554 0.0
H1204 H 0.51851 0.75188 0.18655 0.0
H1205 H 0.47965 0.75425 0.20665 0.0
C1206 C 0.46789 0.75125 0.26432 0.0
C1207 C 0.46408 0.74842 0.29504 0.0
C1208 C 0.49018 0.75083 0.25274 0.0
C1209 C 0.4829 0.74592 0.31424 0.0
C1210 C 0.50521 0.74609 0.30296 0.0
C1211 C 0.53128 0.7474 0.26055 0.0
C1212 C 0.53495 0.74845 0.2296 0.0
C1213 C 0.50901 0.74827 0.27221 0.0
C1214 C 0.5161 0.75096 0.21044 0.0
C1215 C 0.49391 0.75235 0.22192 0.0
H1216 H 0.16783 0.15217 0.19822 0.0
H1217 H 0.19439 0.11131 0.27056 0.0
H1218 H 0.16913 0.13086 0.30544 0.0
H1219 H 0.14274 0.16235 0.31641 0.0
H1220 H 0.11691 0.20406 0.24445 0.0
H1221 H 0.13837 0.1812 0.20858 0.0
C1222 C 0.16783 0.14728 0.22152 0.0
C1223 C 0.18324 0.13052 0.23175 0.0
C1224 C 0.1535 0.15888 0.24168 0.0
C1225 C 0.18292 0.12435 0.26205 0.0
C1226 C 0.16848 0.13554 0.28209 0.0
C1227 C 0.14149 0.16624 0.29285 0.0
C1228 C 0.12846 0.18511 0.28328 0.0
C1229 C 0.1542 0.15328 0.27231 0.0
C1230 C 0.12698 0.18978 0.25257 0.0
C1231 C 0.1393 0.17674 0.23197 0.0
H1232 H 0.84656 0.16957 0.1945 0.0
H1233 H 0.88622 0.19817 0.26674 0.0
H1234 H 0.86624 0.17376 0.30217 0.0
H1235 H 0.83467 0.1474 0.31344 0.0
H1236 H 0.79451 0.11938 0.24128 0.0
H1237 H 0.81764 0.14021 0.20527 0.0
C1238 C 0.85111 0.17021 0.21791 0.0
C1239 C 0.86766 0.18594 0.22789 0.0
C1240 C 0.83929 0.15635 0.23836 0.0
C1241 C 0.87337 0.18642 0.25837 0.0
C1242 C 0.86192 0.17248 0.27874 0.0
C1243 C 0.83118 0.14557 0.28983 0.0
C1244 C 0.81264 0.13207 0.28022 0.0
C1245 C 0.84438 0.15787 0.26912 0.0
C1246 C 0.8085 0.12983 0.24945 0.0
C1247 C 0.82171 0.14178 0.22875 0.0
H1248 H 0.8747 0.80948 0.25448 0.0
H1249 H 0.84146 0.82997 0.33621 0.0
H1250 H 0.81863 0.858 0.30891 0.0
H1251 H 0.80519 0.87357 0.26134 0.0
H1252 H 0.83757 0.85214 0.17942 0.0
H1253 H 0.86385 0.82782 0.20748 0.0
C1254 C 0.86267 0.82026 0.26645 0.0
C1255 C 0.8596 0.81734 0.29733 0.0
C1256 C 0.84933 0.83609 0.25056 0.0
C1257 C 0.8441 0.83168 0.31244 0.0
C1258 C 0.83097 0.84769 0.29682 0.0
C1259 C 0.81818 0.86384 0.24957 0.0
C1260 C 0.81915 0.86447 0.21823 0.0
C1261 C 0.83298 0.84956 0.26578 0.0
C1262 C 0.83629 0.85189 0.20349 0.0
C1263 C 0.85129 0.83789 0.21951 0.0
H1264 H 0.18579 0.87529 0.25744 0.0
H1265 H 0.16486 0.8413 0.33836 0.0
H1266 H 0.13698 0.81877 0.31038 0.0
H1267 H 0.12184 0.80566 0.2624 0.0
H1268 H 0.14357 0.83888 0.18129 0.0
H1269 H 0.16763 0.86498 0.21006 0.0
C1270 C 0.17495 0.86317 0.26907 0.0
C1271 C 0.17771 0.85976 0.29992 0.0
C1272 C 0.15919 0.85001 0.2528 0.0
C1273 C 0.16326 0.84418 0.31463 0.0
C1274 C 0.14735 0.83121 0.29862 0.0
C1275 C 0.13159 0.8188 0.25098 0.0
C1276 C 0.13115 0.82005 0.21966 0.0
C1277 C 0.14568 0.8335 0.26759 0.0
C1278 C 0.14368 0.83739 0.20534 0.0
C1279 C 0.15753 0.85228 0.22177 0.0
H1280 H 0.87705 0.8096 0.76003 0.0
H1281 H 0.8467 0.83147 0.67702 0.0
H1282 H 0.82315 0.85925 0.70371 0.0
H1283 H 0.80824 0.87428 0.75083 0.0
H1284 H 0.83776 0.85166 0.83399 0.0
H1285 H 0.86476 0.82744 0.80687 0.0
C1286 C 0.86552 0.82063 0.74767 0.0
C1287 C 0.86346 0.81818 0.71656 0.0
C1288 C 0.85174 0.83634 0.76319 0.0
C1289 C 0.84856 0.83282 0.70096 0.0
C1290 C 0.835 0.84869 0.71623 0.0
C1291 C 0.82075 0.86429 0.76309 0.0
C1292 C 0.82071 0.86458 0.79446 0.0
C1293 C 0.83599 0.85012 0.7474 0.0
C1294 C 0.83726 0.8517 0.80987 0.0
C1295 C 0.85267 0.83775 0.79438 0.0
H1296 H 0.18745 0.87965 0.76093 0.0
H1297 H 0.1691 0.84549 0.67896 0.0
H1298 H 0.14123 0.82209 0.70569 0.0
H1299 H 0.12538 0.80841 0.75309 0.0
H1300 H 0.14453 0.84213 0.83511 0.0
H1301 H 0.16858 0.86876 0.80746 0.0
C1302 C 0.17717 0.86729 0.74879 0.0
C1303 C 0.18064 0.86411 0.71804 0.0
C1304 C 0.16142 0.85367 0.76434 0.0
C1305 C 0.16691 0.84823 0.70265 0.0
C1306 C 0.15102 0.83475 0.71795 0.0
C1307 C 0.13455 0.82177 0.76492 0.0
C1308 C 0.13338 0.823 0.79622 0.0
C1309 C 0.14864 0.83687 0.74893 0.0
C1310 C 0.14522 0.84061 0.81108 0.0
C1311 C 0.15906 0.85584 0.79529 0.0
H1312 H 0.11829 0.18521 0.75764 0.0
H1313 H 0.14938 0.15609 0.67897 0.0
H1314 H 0.17211 0.13032 0.71002 0.0
H1315 H 0.18623 0.11927 0.75944 0.0
H1316 H 0.1557 0.1491 0.83806 0.0
H1317 H 0.12948 0.17119 0.80696 0.0
C1318 C 0.12983 0.17304 0.7472 0.0
C1319 C 0.13236 0.17285 0.71601 0.0
C1320 C 0.14307 0.15851 0.76518 0.0
C1321 C 0.14715 0.15672 0.70291 0.0
C1322 C 0.16025 0.14204 0.72067 0.0
C1323 C 0.17365 0.13037 0.76985 0.0
C1324 C 0.17321 0.13275 0.80109 0.0
C1325 C 0.15883 0.14328 0.75183 0.0
C1326 C 0.15657 0.14701 0.81412 0.0
C1327 C 0.14161 0.15973 0.79633 0.0
H1328 H 0.87914 0.18579 0.7556 0.0
H1329 H 0.84423 0.16277 0.83489 0.0
H1330 H 0.82216 0.1355 0.80523 0.0
H1331 H 0.80992 0.12128 0.75639 0.0
H1332 H 0.84393 0.14521 0.67691 0.0
H1333 H 0.86943 0.16882 0.70722 0.0
C1334 C 0.86691 0.17463 0.76653 0.0
C1335 C 0.86316 0.1766 0.79744 0.0
C1336 C 0.85401 0.15924 0.74929 0.0
C1337 C 0.8474 0.16178 0.81115 0.0
C1338 C 0.8347 0.14621 0.79418 0.0
C1339 C 0.82309 0.13141 0.74564 0.0
C1340 C 0.82475 0.13167 0.71432 0.0
C1341 C 0.83742 0.14527 0.76315 0.0
C1342 C 0.84213 0.14475 0.70091 0.0
C1343 C 0.85667 0.15835 0.71824 0.0
H1344 H 0.69004 0.62286 0.76227 0.0
H1345 H 0.65868 0.64353 0.67939 0.0
H1346 H 0.63179 0.66779 0.70655 0.0
H1347 H 0.62007 0.68632 0.75314 0.0
H1348 H 0.65217 0.66647 0.83589 0.0
H1349 H 0.67568 0.63853 0.80939 0.0
C1350 C 0.67714 0.63241 0.75011 0.0
C1351 C 0.67664 0.63158 0.71875 0.0
C1352 C 0.66196 0.64664 0.76582 0.0
C1353 C 0.65961 0.64393 0.70347 0.0
C1354 C 0.64426 0.6579 0.71899 0.0
C1355 C 0.63199 0.6757 0.7655 0.0
C1356 C 0.63455 0.67877 0.79645 0.0
C1357 C 0.64572 0.65989 0.75008 0.0
C1358 C 0.64993 0.66463 0.81205 0.0
C1359 C 0.66346 0.64868 0.7969 0.0
H1360 H 0.30991 0.6212 0.75675 0.0
H1361 H 0.33401 0.65497 0.83649 0.0
H1362 H 0.36101 0.67731 0.80697 0.0
H1363 H 0.3747 0.69019 0.75822 0.0
H1364 H 0.34969 0.65734 0.67832 0.0
H1365 H 0.32633 0.63153 0.70836 0.0
C1366 C 0.32126 0.63321 0.76779 0.0
C1367 C 0.31966 0.63659 0.7988 0.0
C1368 C 0.33649 0.64631 0.75064 0.0
C1369 C 0.3347 0.6521 0.81267 0.0
C1370 C 0.35013 0.66496 0.79578 0.0
C1371 C 0.36438 0.67721 0.74732 0.0
C1372 C 0.36374 0.67596 0.71599 0.0
C1373 C 0.35068 0.66267 0.76468 0.0
C1374 C 0.35042 0.65883 0.70235 0.0
C1375 C 0.33698 0.64409 0.71952 0.0
H1376 H 0.34565 0.33115 0.81558 0.0
H1377 H 0.37953 0.29798 0.7417 0.0
H1378 H 0.35834 0.32181 0.70673 0.0
H1379 H 0.32736 0.34925 0.69686 0.0
H1380 H 0.29313 0.38196 0.77083 0.0
H1381 H 0.31742 0.36132 0.80577 0.0
C1382 C 0.34866 0.32934 0.79186 0.0
C1383 C 0.36396 0.31255 0.78138 0.0
C1384 C 0.3362 0.34291 0.77174 0.0
C1385 C 0.36772 0.3106 0.7505 0.0
C1386 C 0.35556 0.3242 0.73039 0.0
C1387 C 0.32542 0.35212 0.7206 0.0
C1388 C 0.3082 0.36692 0.73111 0.0
C1389 C 0.3393 0.33998 0.74073 0.0
C1390 C 0.30607 0.37051 0.76201 0.0
C1391 C 0.31994 0.35867 0.7821 0.0
H1392 H 0.65364 0.32886 0.6949 0.0
H1393 H 0.61316 0.3005 0.76636 0.0
H1394 H 0.63252 0.32521 0.80209 0.0
H1395 H 0.66366 0.35187 0.81393 0.0
H1396 H 0.70475 0.37969 0.7427 0.0
H1397 H 0.68228 0.35845 0.70622 0.0
C1398 C 0.64879 0.32833 0.7182 0.0
C1399 C 0.63217 0.31259 0.72789 0.0
C1400 C 0.66025 0.34239 0.73884 0.0
C1401 C 0.62607 0.31225 0.75823 0.0
C1402 C 0.63716 0.32637 0.77877 0.0
C1403 C 0.66751 0.35357 0.79041 0.0
C1404 C 0.68609 0.36714 0.78122 0.0
C1405 C 0.65472 0.34104 0.76946 0.0
C1406 C 0.6907 0.36921 0.75055 0.0
C1407 C 0.67787 0.35702 0.72959 0.0
H1408 H 0.37595 0.30897 0.25598 0.0
H1409 H 0.34849 0.34177 0.17752 0.0
H1410 H 0.32566 0.36729 0.20886 0.0
H1411 H 0.31038 0.37725 0.25812 0.0
H1412 H 0.33695 0.34338 0.33637 0.0
H1413 H 0.36341 0.32146 0.3054 0.0
C1414 C 0.3652 0.32188 0.24565 0.0
C1415 C 0.36372 0.3232 0.21437 0.0
C1416 C 0.35181 0.33618 0.26376 0.0
C1417 C 0.34989 0.34025 0.20149 0.0
C1418 C 0.33674 0.35479 0.21941 0.0
C1419 C 0.32215 0.3653 0.26852 0.0
C1420 C 0.32141 0.36177 0.29956 0.0
C1421 C 0.33707 0.35244 0.25053 0.0
C1422 C 0.33698 0.34635 0.31256 0.0
C1423 C 0.35209 0.33374 0.29484 0.0
H1424 H 0.61725 0.31079 0.25548 0.0
H1425 H 0.65102 0.33464 0.33534 0.0
H1426 H 0.67352 0.36159 0.30591 0.0
H1427 H 0.6865 0.37528 0.25721 0.0
H1428 H 0.65363 0.35055 0.17718 0.0
H1429 H 0.62768 0.32726 0.20714 0.0
C1430 C 0.62931 0.32207 0.26657 0.0
C1431 C 0.63263 0.32041 0.2976 0.0
C1432 C 0.64248 0.33727 0.24947 0.0
C1433 C 0.64819 0.33538 0.31152 0.0
C1434 C 0.66113 0.35077 0.29468 0.0
C1435 C 0.67348 0.36503 0.24625 0.0
C1436 C 0.67227 0.36446 0.21491 0.0
C1437 C 0.65888 0.35138 0.26357 0.0
C1438 C 0.65509 0.35125 0.20122 0.0
C1439 C 0.64028 0.33784 0.21834 0.0
H1440 H 0.68887 0.62219 0.25194 0.0
H1441 H 0.65734 0.64501 0.33378 0.0
H1442 H 0.63102 0.66916 0.30552 0.0
H1443 H 0.61989 0.68689 0.2582 0.0
H1444 H 0.6523 0.66493 0.17655 0.0
H1445 H 0.67516 0.63716 0.20422 0.0
C1446 C 0.67606 0.6322 0.26365 0.0
C1447 C 0.67534 0.63199 0.29501 0.0
C1448 C 0.66124 0.64635 0.24732 0.0
C1449 C 0.65843 0.64492 0.3097 0.0
C1450 C 0.6434 0.65882 0.29355 0.0
C1451 C 0.63173 0.67585 0.24634 0.0
C1452 C 0.63456 0.67827 0.21534 0.0
C1453 C 0.64511 0.66016 0.26243 0.0
C1454 C 0.64985 0.6636 0.20039 0.0
C1455 C 0.663 0.64775 0.21622 0.0
H1456 H 0.32925 0.649 0.19599 0.0
H1457 H 0.29959 0.60888 0.26692 0.0
H1458 H 0.32445 0.62762 0.30301 0.0
H1459 H 0.35164 0.65816 0.31532 0.0
H1460 H 0.38078 0.69891 0.24465 0.0
H1461 H 0.35936 0.67697 0.20779 0.0
C1462 C 0.32846 0.6441 0.21926 0.0
C1463 C 0.31232 0.62778 0.22869 0.0
C1464 C 0.34262 0.65518 0.24012 0.0
C1465 C 0.31165 0.62158 0.25898 0.0
C1466 C 0.32586 0.6323 0.27973 0.0
C1467 C 0.3536 0.66203 0.29184 0.0
C1468 C 0.36758 0.68038 0.2829 0.0
C1469 C 0.34095 0.64957 0.27068 0.0
C1470 C 0.36997 0.68503 0.25229 0.0
C1471 C 0.35768 0.67252 0.23112 0.0
loop_
_geom_bond_atom_site_label_1
_geom_bond_atom_site_label_2
_geom_bond_distance
_geom_bond_site_symmetry_2
_ccdc_geom_bond_type
O0 Cd1 2.223 . S
O0 C8 1.315 . S
Cd1 O0 2.223 . S
Cd1 O4 2.297 . S
Cd1 O5 2.439 . S
Cd1 O11 2.240 . S
Cd2 O3 2.240 . S
Cd2 O10 2.223 . S
Cd2 O12 2.297 . S
Cd2 O13 2.439 . S
O3 Cd2 2.240 . S
O3 C8 1.279 . S
O4 Cd1 2.297 . S
O4 C6 1.247 . S
O5 Cd1 2.439 . S
O5 C6 1.208 . S
C6 O4 1.247 . S
C6 O5 1.208 . S
C7 O12 1.247 . S
C7 O13 1.208 . S
C8 O0 1.315 . S
C8 O3 1.279 . S
C9 O10 1.315 . S
C9 O11 1.279 . S
O10 Cd2 2.223 . S
O10 C9 1.315 . S
O11 Cd1 2.240 . S
O11 C9 1.279 . S
O12 Cd2 2.297 . S
O12 C7 1.247 . S
O13 Cd2 2.439 . S
O13 C7 1.208 . S
O14 Cd15 2.223 . S
O14 C22 1.315 . S
Cd15 O14 2.223 . S
Cd15 O18 2.297 . S
Cd15 O19 2.439 . S
Cd15 O25 2.240 . S
Cd16 O17 2.240 . S
Cd16 O24 2.223 . S
Cd16 O26 2.297 . S
Cd16 O27 2.439 . S
O17 Cd16 2.240 . S
O17 C22 1.279 . S
O18 Cd15 2.297 . S
O18 C20 1.247 . S
O19 Cd15 2.439 . S
O19 C20 1.208 . S
C20 O18 1.247 . S
C20 O19 1.208 . S
C21 O26 1.247 . S
C21 O27 1.208 . S
C22 O14 1.315 . S
C22 O17 1.279 . S
C23 O24 1.315 . S
C23 O25 1.279 . S
O24 Cd16 2.223 . S
O24 C23 1.315 . S
O25 Cd15 2.240 . S
O25 C23 1.279 . S
O26 Cd16 2.297 . S
O26 C21 1.247 . S
O27 Cd16 2.439 . S
O27 C21 1.208 . S
O28 Cd29 2.223 . S
O28 C36 1.315 . S
Cd29 O28 2.223 . S
Cd29 O32 2.297 . S
Cd29 O33 2.439 . S
Cd29 O39 2.240 . S
Cd30 O31 2.240 . S
Cd30 O38 2.223 . S
Cd30 O40 2.297 . S
Cd30 O41 2.439 . S
O31 Cd30 2.240 . S
O31 C36 1.279 . S
O32 Cd29 2.297 . S
O32 C34 1.247 . S
O33 Cd29 2.439 . S
O33 C34 1.208 . S
C34 O32 1.247 . S
C34 O33 1.208 . S
C35 O40 1.247 . S
C35 O41 1.208 . S
C36 O28 1.315 . S
C36 O31 1.279 . S
C37 O38 1.315 . S
C37 O39 1.279 . S
O38 Cd30 2.223 . S
O38 C37 1.315 . S
O39 Cd29 2.240 . S
O39 C37 1.279 . S
O40 Cd30 2.297 . S
O40 C35 1.247 . S
O41 Cd30 2.439 . S
O41 C35 1.208 . S
O42 Cd43 2.223 . S
O42 C50 1.315 . S
Cd43 O42 2.223 . S
Cd43 O46 2.297 . S
Cd43 O47 2.439 . S
Cd43 O53 2.240 . S
Cd44 O45 2.240 . S
Cd44 O52 2.223 . S
Cd44 O54 2.297 . S
Cd44 O55 2.439 . S
O45 Cd44 2.240 . S
O45 C50 1.279 . S
O46 Cd43 2.297 . S
O46 C48 1.247 . S
O47 Cd43 2.439 . S
O47 C48 1.208 . S
C48 O46 1.247 . S
C48 O47 1.208 . S
C49 O54 1.247 . S
C49 O55 1.208 . S
C50 O42 1.315 . S
C50 O45 1.279 . S
C51 O52 1.315 . S
C51 O53 1.279 . S
O52 Cd44 2.223 . S
O52 C51 1.315 . S
O53 Cd43 2.240 . S
O53 C51 1.279 . S
O54 Cd44 2.297 . S
O54 C49 1.247 . S
O55 Cd44 2.439 . S
O55 C49 1.208 . S
O56 Cd57 2.223 . S
O56 C64 1.315 . S
Cd57 O56 2.223 . S
Cd57 O60 2.297 . S
Cd57 O61 2.439 . S
Cd57 O67 2.240 . S
Cd58 O59 2.240 . S
Cd58 O66 2.223 . S
Cd58 O68 2.297 . S
Cd58 O69 2.439 . S
O59 Cd58 2.240 . S
O59 C64 1.279 . S
O60 Cd57 2.297 . S
O60 C62 1.247 . S
O61 Cd57 2.439 . S
O61 C62 1.208 . S
C62 O60 1.247 . S
C62 O61 1.208 . S
C63 O68 1.247 . S
C63 O69 1.208 . S
C64 O56 1.315 . S
C64 O59 1.279 . S
C65 O66 1.315 . S
C65 O67 1.279 . S
O66 Cd58 2.223 . S
O66 C65 1.315 . S
O67 Cd57 2.240 . S
O67 C65 1.279 . S
O68 Cd58 2.297 . S
O68 C63 1.247 . S
O69 Cd58 2.439 . S
O69 C63 1.208 . S
O70 Cd71 2.223 . S
O70 C78 1.315 . S
Cd71 O70 2.223 . S
Cd71 O74 2.297 . S
Cd71 O75 2.439 . S
Cd71 O81 2.240 . S
Cd72 O73 2.240 . S
Cd72 O80 2.223 . S
Cd72 O82 2.297 . S
Cd72 O83 2.439 . S
O73 Cd72 2.240 . S
O73 C78 1.279 . S
O74 Cd71 2.297 . S
O74 C76 1.247 . S
O75 Cd71 2.439 . S
O75 C76 1.208 . S
C76 O74 1.247 . S
C76 O75 1.208 . S
C77 O82 1.247 . S
C77 O83 1.208 . S
C78 O70 1.315 . S
C78 O73 1.279 . S
C79 O80 1.315 . S
C79 O81 1.279 . S
O80 Cd72 2.223 . S
O80 C79 1.315 . S
O81 Cd71 2.240 . S
O81 C79 1.279 . S
O82 Cd72 2.297 . S
O82 C77 1.247 . S
O83 Cd72 2.439 . S
O83 C77 1.208 . S
O84 Cd85 2.223 . S
O84 C92 1.315 . S
Cd85 O84 2.223 . S
Cd85 O88 2.297 . S
Cd85 O89 2.439 . S
Cd85 O95 2.240 . S
Cd86 O87 2.240 . S
Cd86 O94 2.223 . S
Cd86 O96 2.297 . S
Cd86 O97 2.439 . S
O87 Cd86 2.240 . S
O87 C92 1.279 . S
O88 Cd85 2.297 . S
O88 C90 1.247 . S
O89 Cd85 2.439 . S
O89 C90 1.208 . S
C90 O88 1.247 . S
C90 O89 1.208 . S
C91 O96 1.247 . S
C91 O97 1.208 . S
C92 O84 1.315 . S
C92 O87 1.279 . S
C93 O94 1.315 . S
C93 O95 1.279 . S
O94 Cd86 2.223 . S
O94 C93 1.315 . S
O95 Cd85 2.240 . S
O95 C93 1.279 . S
O96 Cd86 2.297 . S
O96 C91 1.247 . S
O97 Cd86 2.439 . S
O97 C91 1.208 . S
O98 Cd99 2.223 . S
O98 C106 1.315 . S
Cd99 O98 2.223 . S
Cd99 O102 2.297 . S
Cd99 O103 2.439 . S
Cd99 O109 2.240 . S
Cd100 O101 2.240 . S
Cd100 O108 2.223 . S
Cd100 O110 2.297 . S
Cd100 O111 2.439 . S
O101 Cd100 2.240 . S
O101 C106 1.279 . S
O102 Cd99 2.297 . S
O102 C104 1.247 . S
O103 Cd99 2.439 . S
O103 C104 1.208 . S
C104 O102 1.247 . S
C104 O103 1.208 . S
C105 O110 1.247 . S
C105 O111 1.208 . S
C106 O98 1.315 . S
C106 O101 1.279 . S
C107 O108 1.315 . S
C107 O109 1.279 . S
O108 Cd100 2.223 . S
O108 C107 1.315 . S
O109 Cd99 2.240 . S
O109 C107 1.279 . S
O110 Cd100 2.297 . S
O110 C105 1.247 . S
O111 Cd100 2.439 . S
O111 C105 1.208 . S
O112 Cd113 2.223 . S
O112 C120 1.315 . S
Cd113 O112 2.223 . S
Cd113 O116 2.297 . S
Cd113 O117 2.439 . S
Cd113 O123 2.240 . S
Cd114 O115 2.240 . S
Cd114 O122 2.223 . S
Cd114 O124 2.297 . S
Cd114 O125 2.439 . S
O115 Cd114 2.240 . S
O115 C120 1.279 . S
O116 Cd113 2.297 . S
O116 C118 1.247 . S
O117 Cd113 2.439 . S
O117 C118 1.208 . S
C118 O116 1.247 . S
C118 O117 1.208 . S
C119 O124 1.247 . S
C119 O125 1.208 . S
C120 O112 1.315 . S
C120 O115 1.279 . S
C121 O122 1.315 . S
C121 O123 1.279 . S
O122 Cd114 2.223 . S
O122 C121 1.315 . S
O123 Cd113 2.240 . S
O123 C121 1.279 . S
O124 Cd114 2.297 . S
O124 C119 1.247 . S
O125 Cd114 2.439 . S
O125 C119 1.208 . S
O126 Cd127 2.223 . S
O126 C134 1.315 . S
Cd127 O126 2.223 . S
Cd127 O130 2.297 . S
Cd127 O131 2.439 . S
Cd127 O137 2.240 . S
Cd128 O129 2.240 . S
Cd128 O136 2.223 . S
Cd128 O138 2.297 . S
Cd128 O139 2.439 . S
O129 Cd128 2.240 . S
O129 C134 1.279 . S
O130 Cd127 2.297 . S
O130 C132 1.247 . S
O131 Cd127 2.439 . S
O131 C132 1.208 . S
C132 O130 1.247 . S
C132 O131 1.208 . S
C133 O138 1.247 . S
C133 O139 1.208 . S
C134 O126 1.315 . S
C134 O129 1.279 . S
C135 O136 1.315 . S
C135 O137 1.279 . S
O136 Cd128 2.223 . S
O136 C135 1.315 . S
O137 Cd127 2.240 . S
O137 C135 1.279 . S
O138 Cd128 2.297 . S
O138 C133 1.247 . S
O139 Cd128 2.439 . S
O139 C133 1.208 . S
O140 Cd141 2.223 . S
O140 C148 1.315 . S
Cd141 O140 2.223 . S
Cd141 O144 2.297 . S
Cd141 O145 2.439 . S
Cd141 O151 2.240 . S
Cd142 O143 2.240 . S
Cd142 O150 2.223 . S
Cd142 O152 2.297 . S
Cd142 O153 2.439 . S
O143 Cd142 2.240 . S
O143 C148 1.279 . S
O144 Cd141 2.297 . S
O144 C146 1.247 . S
O145 Cd141 2.439 . S
O145 C146 1.208 . S
C146 O144 1.247 . S
C146 O145 1.208 . S
C147 O152 1.247 . S
C147 O153 1.208 . S
C148 O140 1.315 . S
C148 O143 1.279 . S
C149 O150 1.315 . S
C149 O151 1.279 . S
O150 Cd142 2.223 . S
O150 C149 1.315 . S
O151 Cd141 2.240 . S
O151 C149 1.279 . S
O152 Cd142 2.297 . S
O152 C147 1.247 . S
O153 Cd142 2.439 . S
O153 C147 1.208 . S
O154 Cd155 2.223 . S
O154 C162 1.315 . S
Cd155 O154 2.223 . S
Cd155 O158 2.297 . S
Cd155 O159 2.439 . S
Cd155 O165 2.240 . S
Cd156 O157 2.240 . S
Cd156 O164 2.223 . S
Cd156 O166 2.297 . S
Cd156 O167 2.439 . S
O157 Cd156 2.240 . S
O157 C162 1.279 . S
O158 Cd155 2.297 . S
O158 C160 1.247 . S
O159 Cd155 2.439 . S
O159 C160 1.208 . S
C160 O158 1.247 . S
C160 O159 1.208 . S
C161 O166 1.247 . S
C161 O167 1.208 . S
C162 O154 1.315 . S
C162 O157 1.279 . S
C163 O164 1.315 . S
C163 O165 1.279 . S
O164 Cd156 2.223 . S
O164 C163 1.315 . S
O165 Cd155 2.240 . S
O165 C163 1.279 . S
O166 Cd156 2.297 . S
O166 C161 1.247 . S
O167 Cd156 2.439 . S
O167 C161 1.208 . S
O168 Cd169 2.223 . S
O168 C176 1.315 . S
Cd169 O168 2.223 . S
Cd169 O172 2.297 . S
Cd169 O173 2.439 . S
Cd169 O179 2.240 . S
Cd170 O171 2.240 . S
Cd170 O178 2.223 . S
Cd170 O180 2.297 . S
Cd170 O181 2.439 . S
O171 Cd170 2.240 . S
O171 C176 1.279 . S
O172 Cd169 2.297 . S
O172 C174 1.247 . S
O173 Cd169 2.439 . S
O173 C174 1.208 . S
C174 O172 1.247 . S
C174 O173 1.208 . S
C175 O180 1.247 . S
C175 O181 1.208 . S
C176 O168 1.315 . S
C176 O171 1.279 . S
C177 O178 1.315 . S
C177 O179 1.279 . S
O178 Cd170 2.223 . S
O178 C177 1.315 . S
O179 Cd169 2.240 . S
O179 C177 1.279 . S
O180 Cd170 2.297 . S
O180 C175 1.247 . S
O181 Cd170 2.439 . S
O181 C175 1.208 . S
O182 Cd183 2.223 . S
O182 C190 1.315 . S
Cd183 O182 2.223 . S
Cd183 O186 2.297 . S
Cd183 O187 2.439 . S
Cd183 O193 2.240 . S
Cd184 O185 2.240 . S
Cd184 O192 2.223 . S
Cd184 O194 2.297 . S
Cd184 O195 2.439 . S
O185 Cd184 2.240 . S
O185 C190 1.279 . S
O186 Cd183 2.297 . S
O186 C188 1.247 . S
O187 Cd183 2.439 . S
O187 C188 1.208 . S
C188 O186 1.247 . S
C188 O187 1.208 . S
C189 O194 1.247 . S
C189 O195 1.208 . S
C190 O182 1.315 . S
C190 O185 1.279 . S
C191 O192 1.315 . S
C191 O193 1.279 . S
O192 Cd184 2.223 . S
O192 C191 1.315 . S
O193 Cd183 2.240 . S
O193 C191 1.279 . S
O194 Cd184 2.297 . S
O194 C189 1.247 . S
O195 Cd184 2.439 . S
O195 C189 1.208 . S
O196 Cd197 2.223 . S
O196 C204 1.315 . S
Cd197 O196 2.223 . S
Cd197 O200 2.297 . S
Cd197 O201 2.439 . S
Cd197 O207 2.240 . S
Cd198 O199 2.240 . S
Cd198 O206 2.223 . S
Cd198 O208 2.297 . S
Cd198 O209 2.439 . S
O199 Cd198 2.240 . S
O199 C204 1.279 . S
O200 Cd197 2.297 . S
O200 C202 1.247 . S
O201 Cd197 2.439 . S
O201 C202 1.208 . S
C202 O200 1.247 . S
C202 O201 1.208 . S
C203 O208 1.247 . S
C203 O209 1.208 . S
C204 O196 1.315 . S
C204 O199 1.279 . S
C205 O206 1.315 . S
C205 O207 1.279 . S
O206 Cd198 2.223 . S
O206 C205 1.315 . S
O207 Cd197 2.240 . S
O207 C205 1.279 . S
O208 Cd198 2.297 . S
O208 C203 1.247 . S
O209 Cd198 2.439 . S
O209 C203 1.208 . S
O210 Cd211 2.223 . S
O210 C218 1.315 . S
Cd211 O210 2.223 . S
Cd211 O214 2.297 . S
Cd211 O215 2.439 . S
Cd211 O221 2.240 . S
Cd212 O213 2.240 . S
Cd212 O220 2.223 . S
Cd212 O222 2.297 . S
Cd212 O223 2.439 . S
O213 Cd212 2.240 . S
O213 C218 1.279 . S
O214 Cd211 2.297 . S
O214 C216 1.247 . S
O215 Cd211 2.439 . S
O215 C216 1.208 . S
C216 O214 1.247 . S
C216 O215 1.208 . S
C217 O222 1.247 . S
C217 O223 1.208 . S
C218 O210 1.315 . S
C218 O213 1.279 . S
C219 O220 1.315 . S
C219 O221 1.279 . S
O220 Cd212 2.223 . S
O220 C219 1.315 . S
O221 Cd211 2.240 . S
O221 C219 1.279 . S
O222 Cd212 2.297 . S
O222 C217 1.247 . S
O223 Cd212 2.439 . S
O223 C217 1.208 . S
O224 Cd225 2.223 . S
O224 C232 1.315 . S
Cd225 O224 2.223 . S
Cd225 O228 2.297 . S
Cd225 O229 2.439 . S
Cd225 O235 2.240 . S
Cd226 O227 2.240 . S
Cd226 O234 2.223 . S
Cd226 O236 2.297 . S
Cd226 O237 2.439 . S
O227 Cd226 2.240 . S
O227 C232 1.279 . S
O228 Cd225 2.297 . S
O228 C230 1.247 . S
O229 Cd225 2.439 . S
O229 C230 1.208 . S
C230 O228 1.247 . S
C230 O229 1.208 . S
C231 O236 1.247 . S
C231 O237 1.208 . S
C232 O224 1.315 . S
C232 O227 1.279 . S
C233 O234 1.315 . S
C233 O235 1.279 . S
O234 Cd226 2.223 . S
O234 C233 1.315 . S
O235 Cd225 2.240 . S
O235 C233 1.279 . S
O236 Cd226 2.297 . S
O236 C231 1.247 . S
O237 Cd226 2.439 . S
O237 C231 1.208 . S
O238 Cd239 2.223 . S
O238 C246 1.315 . S
Cd239 O238 2.223 . S
Cd239 O242 2.297 . S
Cd239 O243 2.439 . S
Cd239 O249 2.240 . S
Cd240 O241 2.240 . S
Cd240 O248 2.223 . S
Cd240 O250 2.297 . S
Cd240 O251 2.439 . S
O241 Cd240 2.240 . S
O241 C246 1.279 . S
O242 Cd239 2.297 . S
O242 C244 1.247 . S
O243 Cd239 2.439 . S
O243 C244 1.208 . S
C244 O242 1.247 . S
C244 O243 1.208 . S
C245 O250 1.247 . S
C245 O251 1.208 . S
C246 O238 1.315 . S
C246 O241 1.279 . S
C247 O248 1.315 . S
C247 O249 1.279 . S
O248 Cd240 2.223 . S
O248 C247 1.315 . S
O249 Cd239 2.240 . S
O249 C247 1.279 . S
O250 Cd240 2.297 . S
O250 C245 1.247 . S
O251 Cd240 2.439 . S
O251 C245 1.208 . S
O252 Cd253 2.223 . S
O252 C260 1.315 . S
Cd253 O252 2.223 . S
Cd253 O256 2.297 . S
Cd253 O257 2.439 . S
Cd253 O263 2.240 . S
Cd254 O255 2.240 . S
Cd254 O262 2.223 . S
Cd254 O264 2.297 . S
Cd254 O265 2.439 . S
O255 Cd254 2.240 . S
O255 C260 1.279 . S
O256 Cd253 2.297 . S
O256 C258 1.247 . S
O257 Cd253 2.439 . S
O257 C258 1.208 . S
C258 O256 1.247 . S
C258 O257 1.208 . S
C259 O264 1.247 . S
C259 O265 1.208 . S
C260 O252 1.315 . S
C260 O255 1.279 . S
C261 O262 1.315 . S
C261 O263 1.279 . S
O262 Cd254 2.223 . S
O262 C261 1.315 . S
O263 Cd253 2.240 . S
O263 C261 1.279 . S
O264 Cd254 2.297 . S
O264 C259 1.247 . S
O265 Cd254 2.439 . S
O265 C259 1.208 . S
O266 Cd267 2.223 . S
O266 C274 1.315 . S
Cd267 O266 2.223 . S
Cd267 O270 2.297 . S
Cd267 O271 2.439 . S
Cd267 O277 2.240 . S
Cd268 O269 2.240 . S
Cd268 O276 2.223 . S
Cd268 O278 2.297 . S
Cd268 O279 2.439 . S
O269 Cd268 2.240 . S
O269 C274 1.279 . S
O270 Cd267 2.297 . S
O270 C272 1.247 . S
O271 Cd267 2.439 . S
O271 C272 1.208 . S
C272 O270 1.247 . S
C272 O271 1.208 . S
C273 O278 1.247 . S
C273 O279 1.208 . S
C274 O266 1.315 . S
C274 O269 1.279 . S
C275 O276 1.315 . S
C275 O277 1.279 . S
O276 Cd268 2.223 . S
O276 C275 1.315 . S
O277 Cd267 2.240 . S
O277 C275 1.279 . S
O278 Cd268 2.297 . S
O278 C273 1.247 . S
O279 Cd268 2.439 . S
O279 C273 1.208 . S
O280 Cd281 2.223 . S
O280 C288 1.315 . S
Cd281 O280 2.223 . S
Cd281 O284 2.297 . S
Cd281 O285 2.439 . S
Cd281 O291 2.240 . S
Cd282 O283 2.240 . S
Cd282 O290 2.223 . S
Cd282 O292 2.297 . S
Cd282 O293 2.439 . S
O283 Cd282 2.240 . S
O283 C288 1.279 . S
O284 Cd281 2.297 . S
O284 C286 1.247 . S
O285 Cd281 2.439 . S
O285 C286 1.208 . S
C286 O284 1.247 . S
C286 O285 1.208 . S
C287 O292 1.247 . S
C287 O293 1.208 . S
C288 O280 1.315 . S
C288 O283 1.279 . S
C289 O290 1.315 . S
C289 O291 1.279 . S
O290 Cd282 2.223 . S
O290 C289 1.315 . S
O291 Cd281 2.240 . S
O291 C289 1.279 . S
O292 Cd282 2.297 . S
O292 C287 1.247 . S
O293 Cd282 2.439 . S
O293 C287 1.208 . S
O294 Cd295 2.223 . S
O294 C302 1.315 . S
Cd295 O294 2.223 . S
Cd295 O298 2.297 . S
Cd295 O299 2.439 . S
Cd295 O305 2.240 . S
Cd296 O297 2.240 . S
Cd296 O304 2.223 . S
Cd296 O306 2.297 . S
Cd296 O307 2.439 . S
O297 Cd296 2.240 . S
O297 C302 1.279 . S
O298 Cd295 2.297 . S
O298 C300 1.247 . S
O299 Cd295 2.439 . S
O299 C300 1.208 . S
C300 O298 1.247 . S
C300 O299 1.208 . S
C301 O306 1.247 . S
C301 O307 1.208 . S
C302 O294 1.315 . S
C302 O297 1.279 . S
C303 O304 1.315 . S
C303 O305 1.279 . S
O304 Cd296 2.223 . S
O304 C303 1.315 . S
O305 Cd295 2.240 . S
O305 C303 1.279 . S
O306 Cd296 2.297 . S
O306 C301 1.247 . S
O307 Cd296 2.439 . S
O307 C301 1.208 . S
O308 Cd309 2.223 . S
O308 C316 1.315 . S
Cd309 O308 2.223 . S
Cd309 O312 2.297 . S
Cd309 O313 2.439 . S
Cd309 O319 2.240 . S
Cd310 O311 2.240 . S
Cd310 O318 2.223 . S
Cd310 O320 2.297 . S
Cd310 O321 2.439 . S
O311 Cd310 2.240 . S
O311 C316 1.279 . S
O312 Cd309 2.297 . S
O312 C314 1.247 . S
O313 Cd309 2.439 . S
O313 C314 1.208 . S
C314 O312 1.247 . S
C314 O313 1.208 . S
C315 O320 1.247 . S
C315 O321 1.208 . S
C316 O308 1.315 . S
C316 O311 1.279 . S
C317 O318 1.315 . S
C317 O319 1.279 . S
O318 Cd310 2.223 . S
O318 C317 1.315 . S
O319 Cd309 2.240 . S
O319 C317 1.279 . S
O320 Cd310 2.297 . S
O320 C315 1.247 . S
O321 Cd310 2.439 . S
O321 C315 1.208 . S
O322 Cd323 2.223 . S
O322 C330 1.315 . S
Cd323 O322 2.223 . S
Cd323 O326 2.297 . S
Cd323 O327 2.439 . S
Cd323 O333 2.240 . S
Cd324 O325 2.240 . S
Cd324 O332 2.223 . S
Cd324 O334 2.297 . S
Cd324 O335 2.439 . S
O325 Cd324 2.240 . S
O325 C330 1.279 . S
O326 Cd323 2.297 . S
O326 C328 1.247 . S
O327 Cd323 2.439 . S
O327 C328 1.208 . S
C328 O326 1.247 . S
C328 O327 1.208 . S
C329 O334 1.247 . S
C329 O335 1.208 . S
C330 O322 1.315 . S
C330 O325 1.279 . S
C331 O332 1.315 . S
C331 O333 1.279 . S
O332 Cd324 2.223 . S
O332 C331 1.315 . S
O333 Cd323 2.240 . S
O333 C331 1.279 . S
O334 Cd324 2.297 . S
O334 C329 1.247 . S
O335 Cd324 2.439 . S
O335 C329 1.208 . S
O336 Cd337 2.223 . S
O336 C344 1.315 . S
Cd337 O336 2.223 . S
Cd337 O340 2.297 . S
Cd337 O341 2.439 . S
Cd337 O347 2.240 . S
Cd338 O339 2.240 . S
Cd338 O346 2.223 . S
Cd338 O348 2.297 . S
Cd338 O349 2.439 . S
O339 Cd338 2.240 . S
O339 C344 1.279 . S
O340 Cd337 2.297 . S
O340 C342 1.247 . S
O341 Cd337 2.439 . S
O341 C342 1.208 . S
C342 O340 1.247 . S
C342 O341 1.208 . S
C343 O348 1.247 . S
C343 O349 1.208 . S
C344 O336 1.315 . S
C344 O339 1.279 . S
C345 O346 1.315 . S
C345 O347 1.279 . S
O346 Cd338 2.223 . S
O346 C345 1.315 . S
O347 Cd337 2.240 . S
O347 C345 1.279 . S
O348 Cd338 2.297 . S
O348 C343 1.247 . S
O349 Cd338 2.439 . S
O349 C343 1.208 . S
O350 Cd351 2.223 . S
O350 C358 1.315 . S
Cd351 O350 2.223 . S
Cd351 O354 2.297 . S
Cd351 O355 2.439 . S
Cd351 O361 2.240 . S
Cd352 O353 2.240 . S
Cd352 O360 2.223 . S
Cd352 O362 2.297 . S
Cd352 O363 2.439 . S
O353 Cd352 2.240 . S
O353 C358 1.279 . S
O354 Cd351 2.297 . S
O354 C356 1.247 . S
O355 Cd351 2.439 . S
O355 C356 1.208 . S
C356 O354 1.247 . S
C356 O355 1.208 . S
C357 O362 1.247 . S
C357 O363 1.208 . S
C358 O350 1.315 . S
C358 O353 1.279 . S
C359 O360 1.315 . S
C359 O361 1.279 . S
O360 Cd352 2.223 . S
O360 C359 1.315 . S
O361 Cd351 2.240 . S
O361 C359 1.279 . S
O362 Cd352 2.297 . S
O362 C357 1.247 . S
O363 Cd352 2.439 . S
O363 C357 1.208 . S
O364 Cd365 2.223 . S
O364 C372 1.315 . S
Cd365 O364 2.223 . S
Cd365 O368 2.297 . S
Cd365 O369 2.439 . S
Cd365 O375 2.240 . S
Cd366 O367 2.240 . S
Cd366 O374 2.223 . S
Cd366 O376 2.297 . S
Cd366 O377 2.439 . S
O367 Cd366 2.240 . S
O367 C372 1.279 . S
O368 Cd365 2.297 . S
O368 C370 1.247 . S
O369 Cd365 2.439 . S
O369 C370 1.208 . S
C370 O368 1.247 . S
C370 O369 1.208 . S
C371 O376 1.247 . S
C371 O377 1.208 . S
C372 O364 1.315 . S
C372 O367 1.279 . S
C373 O374 1.315 . S
C373 O375 1.279 . S
O374 Cd366 2.223 . S
O374 C373 1.315 . S
O375 Cd365 2.240 . S
O375 C373 1.279 . S
O376 Cd366 2.297 . S
O376 C371 1.247 . S
O377 Cd366 2.439 . S
O377 C371 1.208 . S
O378 Cd379 2.223 . S
O378 C386 1.315 . S
Cd379 O378 2.223 . S
Cd379 O382 2.297 . S
Cd379 O383 2.439 . S
Cd379 O389 2.240 . S
Cd380 O381 2.240 . S
Cd380 O388 2.223 . S
Cd380 O390 2.297 . S
Cd380 O391 2.439 . S
O381 Cd380 2.240 . S
O381 C386 1.279 . S
O382 Cd379 2.297 . S
O382 C384 1.247 . S
O383 Cd379 2.439 . S
O383 C384 1.208 . S
C384 O382 1.247 . S
C384 O383 1.208 . S
C385 O390 1.247 . S
C385 O391 1.208 . S
C386 O378 1.315 . S
C386 O381 1.279 . S
C387 O388 1.315 . S
C387 O389 1.279 . S
O388 Cd380 2.223 . S
O388 C387 1.315 . S
O389 Cd379 2.240 . S
O389 C387 1.279 . S
O390 Cd380 2.297 . S
O390 C385 1.247 . S
O391 Cd380 2.439 . S
O391 C385 1.208 . S
O392 Cd393 2.223 . S
O392 C400 1.315 . S
Cd393 O392 2.223 . S
Cd393 O396 2.297 . S
Cd393 O397 2.439 . S
Cd393 O403 2.240 . S
Cd394 O395 2.240 . S
Cd394 O402 2.223 . S
Cd394 O404 2.297 . S
Cd394 O405 2.439 . S
O395 Cd394 2.240 . S
O395 C400 1.279 . S
O396 Cd393 2.297 . S
O396 C398 1.247 . S
O397 Cd393 2.439 . S
O397 C398 1.208 . S
C398 O396 1.247 . S
C398 O397 1.208 . S
C399 O404 1.247 . S
C399 O405 1.208 . S
C400 O392 1.315 . S
C400 O395 1.279 . S
C401 O402 1.315 . S
C401 O403 1.279 . S
O402 Cd394 2.223 . S
O402 C401 1.315 . S
O403 Cd393 2.240 . S
O403 C401 1.279 . S
O404 Cd394 2.297 . S
O404 C399 1.247 . S
O405 Cd394 2.439 . S
O405 C399 1.208 . S
O406 Cd407 2.223 . S
O406 C414 1.315 . S
Cd407 O406 2.223 . S
Cd407 O410 2.297 . S
Cd407 O411 2.439 . S
Cd407 O417 2.240 . S
Cd408 O409 2.240 . S
Cd408 O416 2.223 . S
Cd408 O418 2.297 . S
Cd408 O419 2.439 . S
O409 Cd408 2.240 . S
O409 C414 1.279 . S
O410 Cd407 2.297 . S
O410 C412 1.247 . S
O411 Cd407 2.439 . S
O411 C412 1.208 . S
C412 O410 1.247 . S
C412 O411 1.208 . S
C413 O418 1.247 . S
C413 O419 1.208 . S
C414 O406 1.315 . S
C414 O409 1.279 . S
C415 O416 1.315 . S
C415 O417 1.279 . S
O416 Cd408 2.223 . S
O416 C415 1.315 . S
O417 Cd407 2.240 . S
O417 C415 1.279 . S
O418 Cd408 2.297 . S
O418 C413 1.247 . S
O419 Cd408 2.439 . S
O419 C413 1.208 . S
O420 Cd421 2.223 . S
O420 C428 1.315 . S
Cd421 O420 2.223 . S
Cd421 O424 2.297 . S
Cd421 O425 2.439 . S
Cd421 O431 2.240 . S
Cd422 O423 2.240 . S
Cd422 O430 2.223 . S
Cd422 O432 2.297 . S
Cd422 O433 2.439 . S
O423 Cd422 2.240 . S
O423 C428 1.279 . S
O424 Cd421 2.297 . S
O424 C426 1.247 . S
O425 Cd421 2.439 . S
O425 C426 1.208 . S
C426 O424 1.247 . S
C426 O425 1.208 . S
C427 O432 1.247 . S
C427 O433 1.208 . S
C428 O420 1.315 . S
C428 O423 1.279 . S
C429 O430 1.315 . S
C429 O431 1.279 . S
O430 Cd422 2.223 . S
O430 C429 1.315 . S
O431 Cd421 2.240 . S
O431 C429 1.279 . S
O432 Cd422 2.297 . S
O432 C427 1.247 . S
O433 Cd422 2.439 . S
O433 C427 1.208 . S
O434 Cd435 2.223 . S
O434 C442 1.315 . S
Cd435 O434 2.223 . S
Cd435 O438 2.297 . S
Cd435 O439 2.439 . S
Cd435 O445 2.240 . S
Cd436 O437 2.240 . S
Cd436 O444 2.223 . S
Cd436 O446 2.297 . S
Cd436 O447 2.439 . S
O437 Cd436 2.240 . S
O437 C442 1.279 . S
O438 Cd435 2.297 . S
O438 C440 1.247 . S
O439 Cd435 2.439 . S
O439 C440 1.208 . S
C440 O438 1.247 . S
C440 O439 1.208 . S
C441 O446 1.247 . S
C441 O447 1.208 . S
C442 O434 1.315 . S
C442 O437 1.279 . S
C443 O444 1.315 . S
C443 O445 1.279 . S
O444 Cd436 2.223 . S
O444 C443 1.315 . S
O445 Cd435 2.240 . S
O445 C443 1.279 . S
O446 Cd436 2.297 . S
O446 C441 1.247 . S
O447 Cd436 2.439 . S
O447 C441 1.208 . S
H448 C454 0.930 . S
H449 C457 0.930 . S
H450 C458 0.930 . S
H451 C459 0.930 . S
H452 C462 0.930 . S
H453 C463 0.930 . S
C454 H448 0.930 . S
C454 C455 1.355 . S
C454 C456 1.415 . S
C455 C454 1.355 . S
C455 C457 1.419 . S
C456 C454 1.415 . S
C456 C461 1.425 . S
C456 C463 1.409 . S
C457 H449 0.930 . S
C457 C455 1.419 . S
C457 C458 1.362 . S
C458 H450 0.930 . S
C458 C457 1.362 . S
C458 C461 1.409 . S
C459 H451 0.930 . S
C459 C460 1.355 . S
C459 C461 1.415 . S
C460 C459 1.355 . S
C460 C462 1.419 . S
C461 C456 1.425 . S
C461 C458 1.409 . S
C461 C459 1.415 . S
C462 H452 0.930 . S
C462 C460 1.419 . S
C462 C463 1.362 . S
C463 H453 0.930 . S
C463 C456 1.409 . S
C463 C462 1.362 . S
H464 C470 0.930 . S
H465 C473 0.930 . S
H466 C474 0.930 . S
H467 C475 0.930 . S
H468 C478 0.930 . S
H469 C479 0.930 . S
C470 H464 0.930 . S
C470 C471 1.355 . S
C470 C472 1.415 . S
C471 C470 1.355 . S
C471 C473 1.419 . S
C472 C470 1.415 . S
C472 C477 1.425 . S
C472 C479 1.409 . S
C473 H465 0.930 . S
C473 C471 1.419 . S
C473 C474 1.362 . S
C474 H466 0.930 . S
C474 C473 1.362 . S
C474 C477 1.409 . S
C475 H467 0.930 . S
C475 C476 1.355 . S
C475 C477 1.415 . S
C476 C475 1.355 . S
C476 C478 1.419 . S
C477 C472 1.425 . S
C477 C474 1.409 . S
C477 C475 1.415 . S
C478 H468 0.930 . S
C478 C476 1.419 . S
C478 C479 1.362 . S
C479 H469 0.930 . S
C479 C472 1.409 . S
C479 C478 1.362 . S
H480 C486 0.930 . S
H481 C489 0.930 . S
H482 C490 0.930 . S
H483 C491 0.930 . S
H484 C494 0.930 . S
H485 C495 0.930 . S
C486 H480 0.930 . S
C486 C487 1.355 . S
C486 C488 1.415 . S
C487 C486 1.355 . S
C487 C489 1.419 . S
C488 C486 1.415 . S
C488 C493 1.425 . S
C488 C495 1.409 . S
C489 H481 0.930 . S
C489 C487 1.419 . S
C489 C490 1.362 . S
C490 H482 0.930 . S
C490 C489 1.362 . S
C490 C493 1.409 . S
C491 H483 0.930 . S
C491 C492 1.355 . S
C491 C493 1.415 . S
C492 C491 1.355 . S
C492 C494 1.419 . S
C493 C488 1.425 . S
C493 C490 1.409 . S
C493 C491 1.415 . S
C494 H484 0.930 . S
C494 C492 1.419 . S
C494 C495 1.362 . S
C495 H485 0.930 . S
C495 C488 1.409 . S
C495 C494 1.362 . S
H496 C502 0.930 . S
H497 C505 0.930 . S
H498 C506 0.930 . S
H499 C507 0.930 . S
H500 C510 0.930 . S
H501 C511 0.930 . S
C502 H496 0.930 . S
C502 C503 1.355 . S
C502 C504 1.415 . S
C503 C502 1.355 . S
C503 C505 1.419 . S
C504 C502 1.415 . S
C504 C509 1.425 . S
C504 C511 1.409 . S
C505 H497 0.930 . S
C505 C503 1.419 . S
C505 C506 1.362 . S
C506 H498 0.930 . S
C506 C505 1.362 . S
C506 C509 1.409 . S
C507 H499 0.930 . S
C507 C508 1.355 . S
C507 C509 1.415 . S
C508 C507 1.355 . S
C508 C510 1.419 . S
C509 C504 1.425 . S
C509 C506 1.409 . S
C509 C507 1.415 . S
C510 H500 0.930 . S
C510 C508 1.419 . S
C510 C511 1.362 . S
C511 H501 0.930 . S
C511 C504 1.409 . S
C511 C510 1.362 . S
H512 C518 0.930 . S
H513 C521 0.930 . S
H514 C522 0.930 . S
H515 C523 0.930 . S
H516 C526 0.930 . S
H517 C527 0.930 . S
C518 H512 0.930 . S
C518 C519 1.355 . S
C518 C520 1.415 . S
C519 C518 1.355 . S
C519 C521 1.419 . S
C520 C518 1.415 . S
C520 C525 1.425 . S
C520 C527 1.409 . S
C521 H513 0.930 . S
C521 C519 1.419 . S
C521 C522 1.362 . S
C522 H514 0.930 . S
C522 C521 1.362 . S
C522 C525 1.409 . S
C523 H515 0.930 . S
C523 C524 1.355 . S
C523 C525 1.415 . S
C524 C523 1.355 . S
C524 C526 1.419 . S
C525 C520 1.425 . S
C525 C522 1.409 . S
C525 C523 1.415 . S
C526 H516 0.930 . S
C526 C524 1.419 . S
C526 C527 1.362 . S
C527 H517 0.930 . S
C527 C520 1.409 . S
C527 C526 1.362 . S
H528 C534 0.930 . S
H529 C537 0.930 . S
H530 C538 0.930 . S
H531 C539 0.930 . S
H532 C542 0.930 . S
H533 C543 0.930 . S
C534 H528 0.930 . S
C534 C535 1.355 . S
C534 C536 1.415 . S
C535 C534 1.355 . S
C535 C537 1.419 . S
C536 C534 1.415 . S
C536 C541 1.425 . S
C536 C543 1.409 . S
C537 H529 0.930 . S
C537 C535 1.419 . S
C537 C538 1.362 . S
C538 H530 0.930 . S
C538 C537 1.362 . S
C538 C541 1.409 . S
C539 H531 0.930 . S
C539 C540 1.355 . S
C539 C541 1.415 . S
C540 C539 1.355 . S
C540 C542 1.419 . S
C541 C536 1.425 . S
C541 C538 1.409 . S
C541 C539 1.415 . S
C542 H532 0.930 . S
C542 C540 1.419 . S
C542 C543 1.362 . S
C543 H533 0.930 . S
C543 C536 1.409 . S
C543 C542 1.362 . S
H544 C550 0.930 . S
H545 C553 0.930 . S
H546 C554 0.930 . S
H547 C555 0.930 . S
H548 C558 0.930 . S
H549 C559 0.930 . S
C550 H544 0.930 . S
C550 C551 1.355 . S
C550 C552 1.415 . S
C551 C550 1.355 . S
C551 C553 1.419 . S
C552 C550 1.415 . S
C552 C557 1.425 . S
C552 C559 1.409 . S
C553 H545 0.930 . S
C553 C551 1.419 . S
C553 C554 1.362 . S
C554 H546 0.930 . S
C554 C553 1.362 . S
C554 C557 1.409 . S
C555 H547 0.930 . S
C555 C556 1.355 . S
C555 C557 1.415 . S
C556 C555 1.355 . S
C556 C558 1.419 . S
C557 C552 1.425 . S
C557 C554 1.409 . S
C557 C555 1.415 . S
C558 H548 0.930 . S
C558 C556 1.419 . S
C558 C559 1.362 . S
C559 H549 0.930 . S
C559 C552 1.409 . S
C559 C558 1.362 . S
H560 C566 0.930 . S
H561 C569 0.930 . S
H562 C570 0.930 . S
H563 C571 0.930 . S
H564 C574 0.930 . S
H565 C575 0.930 . S
C566 H560 0.930 . S
C566 C567 1.355 . S
C566 C568 1.415 . S
C567 C566 1.355 . S
C567 C569 1.419 . S
C568 C566 1.415 . S
C568 C573 1.425 . S
C568 C575 1.409 . S
C569 H561 0.930 . S
C569 C567 1.419 . S
C569 C570 1.362 . S
C570 H562 0.930 . S
C570 C569 1.362 . S
C570 C573 1.409 . S
C571 H563 0.930 . S
C571 C572 1.355 . S
C571 C573 1.415 . S
C572 C571 1.355 . S
C572 C574 1.419 . S
C573 C568 1.425 . S
C573 C570 1.409 . S
C573 C571 1.415 . S
C574 H564 0.930 . S
C574 C572 1.419 . S
C574 C575 1.362 . S
C575 H565 0.930 . S
C575 C568 1.409 . S
C575 C574 1.362 . S
H576 C582 0.930 . S
H577 C585 0.930 . S
H578 C586 0.930 . S
H579 C587 0.930 . S
H580 C590 0.930 . S
H581 C591 0.930 . S
C582 H576 0.930 . S
C582 C583 1.355 . S
C582 C584 1.415 . S
C583 C582 1.355 . S
C583 C585 1.419 . S
C584 C582 1.415 . S
C584 C589 1.425 . S
C584 C591 1.409 . S
C585 H577 0.930 . S
C585 C583 1.419 . S
C585 C586 1.362 . S
C586 H578 0.930 . S
C586 C585 1.362 . S
C586 C589 1.409 . S
C587 H579 0.930 . S
C587 C588 1.355 . S
C587 C589 1.415 . S
C588 C587 1.355 . S
C588 C590 1.419 . S
C589 C584 1.425 . S
C589 C586 1.409 . S
C589 C587 1.415 . S
C590 H580 0.930 . S
C590 C588 1.419 . S
C590 C591 1.362 . S
C591 H581 0.930 . S
C591 C584 1.409 . S
C591 C590 1.362 . S
H592 C598 0.930 . S
H593 C601 0.930 . S
H594 C602 0.930 . S
H595 C603 0.930 . S
H596 C606 0.930 . S
H597 C607 0.930 . S
C598 H592 0.930 . S
C598 C599 1.355 . S
C598 C600 1.415 . S
C599 C598 1.355 . S
C599 C601 1.419 . S
C600 C598 1.415 . S
C600 C605 1.425 . S
C600 C607 1.409 . S
C601 H593 0.930 . S
C601 C599 1.419 . S
C601 C602 1.362 . S
C602 H594 0.930 . S
C602 C601 1.362 . S
C602 C605 1.409 . S
C603 H595 0.930 . S
C603 C604 1.355 . S
C603 C605 1.415 . S
C604 C603 1.355 . S
C604 C606 1.419 . S
C605 C600 1.425 . S
C605 C602 1.409 . S
C605 C603 1.415 . S
C606 H596 0.930 . S
C606 C604 1.419 . S
C606 C607 1.362 . S
C607 H597 0.930 . S
C607 C600 1.409 . S
C607 C606 1.362 . S
H608 C614 0.930 . S
H609 C617 0.930 . S
H610 C618 0.930 . S
H611 C619 0.930 . S
H612 C622 0.930 . S
H613 C623 0.930 . S
C614 H608 0.930 . S
C614 C615 1.355 . S
C614 C616 1.415 . S
C615 C614 1.355 . S
C615 C617 1.419 . S
C616 C614 1.415 . S
C616 C621 1.425 . S
C616 C623 1.409 . S
C617 H609 0.930 . S
C617 C615 1.419 . S
C617 C618 1.362 . S
C618 H610 0.930 . S
C618 C617 1.362 . S
C618 C621 1.409 . S
C619 H611 0.930 . S
C619 C620 1.355 . S
C619 C621 1.415 . S
C620 C619 1.355 . S
C620 C622 1.419 . S
C621 C616 1.425 . S
C621 C618 1.409 . S
C621 C619 1.415 . S
C622 H612 0.930 . S
C622 C620 1.419 . S
C622 C623 1.362 . S
C623 H613 0.930 . S
C623 C616 1.409 . S
C623 C622 1.362 . S
H624 C630 0.930 . S
H625 C633 0.930 . S
H626 C634 0.930 . S
H627 C635 0.930 . S
H628 C638 0.930 . S
H629 C639 0.930 . S
C630 H624 0.930 . S
C630 C631 1.355 . S
C630 C632 1.415 . S
C631 C630 1.355 . S
C631 C633 1.419 . S
C632 C630 1.415 . S
C632 C637 1.425 . S
C632 C639 1.409 . S
C633 H625 0.930 . S
C633 C631 1.419 . S
C633 C634 1.362 . S
C634 H626 0.930 . S
C634 C633 1.362 . S
C634 C637 1.409 . S
C635 H627 0.930 . S
C635 C636 1.355 . S
C635 C637 1.415 . S
C636 C635 1.355 . S
C636 C638 1.419 . S
C637 C632 1.425 . S
C637 C634 1.409 . S
C637 C635 1.415 . S
C638 H628 0.930 . S
C638 C636 1.419 . S
C638 C639 1.362 . S
C639 H629 0.930 . S
C639 C632 1.409 . S
C639 C638 1.362 . S
H640 C646 0.930 . S
H641 C649 0.930 . S
H642 C650 0.930 . S
H643 C651 0.930 . S
H644 C654 0.930 . S
H645 C655 0.930 . S
C646 H640 0.930 . S
C646 C647 1.355 . S
C646 C648 1.415 . S
C647 C646 1.355 . S
C647 C649 1.419 . S
C648 C646 1.415 . S
C648 C653 1.425 . S
C648 C655 1.409 . S
C649 H641 0.930 . S
C649 C647 1.419 . S
C649 C650 1.362 . S
C650 H642 0.930 . S
C650 C649 1.362 . S
C650 C653 1.409 . S
C651 H643 0.930 . S
C651 C652 1.355 . S
C651 C653 1.415 . S
C652 C651 1.355 . S
C652 C654 1.419 . S
C653 C648 1.425 . S
C653 C650 1.409 . S
C653 C651 1.415 . S
C654 H644 0.930 . S
C654 C652 1.419 . S
C654 C655 1.362 . S
C655 H645 0.930 . S
C655 C648 1.409 . S
C655 C654 1.362 . S
H656 C662 0.930 . S
H657 C665 0.930 . S
H658 C666 0.930 . S
H659 C667 0.930 . S
H660 C670 0.930 . S
H661 C671 0.930 . S
C662 H656 0.930 . S
C662 C663 1.355 . S
C662 C664 1.415 . S
C663 C662 1.355 . S
C663 C665 1.419 . S
C664 C662 1.415 . S
C664 C669 1.425 . S
C664 C671 1.409 . S
C665 H657 0.930 . S
C665 C663 1.419 . S
C665 C666 1.362 . S
C666 H658 0.930 . S
C666 C665 1.362 . S
C666 C669 1.409 . S
C667 H659 0.930 . S
C667 C668 1.355 . S
C667 C669 1.415 . S
C668 C667 1.355 . S
C668 C670 1.419 . S
C669 C664 1.425 . S
C669 C666 1.409 . S
C669 C667 1.415 . S
C670 H660 0.930 . S
C670 C668 1.419 . S
C670 C671 1.362 . S
C671 H661 0.930 . S
C671 C664 1.409 . S
C671 C670 1.362 . S
H672 C678 0.930 . S
H673 C681 0.930 . S
H674 C682 0.930 . S
H675 C683 0.930 . S
H676 C686 0.930 . S
H677 C687 0.930 . S
C678 H672 0.930 . S
C678 C679 1.355 . S
C678 C680 1.415 . S
C679 C678 1.355 . S
C679 C681 1.419 . S
C680 C678 1.415 . S
C680 C685 1.425 . S
C680 C687 1.409 . S
C681 H673 0.930 . S
C681 C679 1.419 . S
C681 C682 1.362 . S
C682 H674 0.930 . S
C682 C681 1.362 . S
C682 C685 1.409 . S
C683 H675 0.930 . S
C683 C684 1.355 . S
C683 C685 1.415 . S
C684 C683 1.355 . S
C684 C686 1.419 . S
C685 C680 1.425 . S
C685 C682 1.409 . S
C685 C683 1.415 . S
C686 H676 0.930 . S
C686 C684 1.419 . S
C686 C687 1.362 . S
C687 H677 0.930 . S
C687 C680 1.409 . S
C687 C686 1.362 . S
H688 C694 0.930 . S
H689 C697 0.930 . S
H690 C698 0.930 . S
H691 C699 0.930 . S
H692 C702 0.930 . S
H693 C703 0.930 . S
C694 H688 0.930 . S
C694 C695 1.355 . S
C694 C696 1.415 . S
C695 C694 1.355 . S
C695 C697 1.419 . S
C696 C694 1.415 . S
C696 C701 1.425 . S
C696 C703 1.409 . S
C697 H689 0.930 . S
C697 C695 1.419 . S
C697 C698 1.362 . S
C698 H690 0.930 . S
C698 C697 1.362 . S
C698 C701 1.409 . S
C699 H691 0.930 . S
C699 C700 1.355 . S
C699 C701 1.415 . S
C700 C699 1.355 . S
C700 C702 1.419 . S
C701 C696 1.425 . S
C701 C698 1.409 . S
C701 C699 1.415 . S
C702 H692 0.930 . S
C702 C700 1.419 . S
C702 C703 1.362 . S
C703 H693 0.930 . S
C703 C696 1.409 . S
C703 C702 1.362 . S
H704 C710 0.930 . S
H705 C713 0.930 . S
H706 C714 0.930 . S
H707 C715 0.930 . S
H708 C718 0.930 . S
H709 C719 0.930 . S
C710 H704 0.930 . S
C710 C711 1.355 . S
C710 C712 1.415 . S
C711 C710 1.355 . S
C711 C713 1.419 . S
C712 C710 1.415 . S
C712 C717 1.425 1_554 S
C712 C719 1.409 1_554 S
C713 H705 0.930 . S
C713 C711 1.419 . S
C713 C714 1.362 . S
C714 H706 0.930 . S
C714 C713 1.362 . S
C714 C717 1.409 1_554 S
C715 H707 0.930 . S
C715 C716 1.355 . S
C715 C717 1.415 . S
C716 C715 1.355 . S
C716 C718 1.419 . S
C717 C712 1.425 1_556 S
C717 C714 1.409 1_556 S
C717 C715 1.415 . S
C718 H708 0.930 . S
C718 C716 1.419 . S
C718 C719 1.362 . S
C719 H709 0.930 . S
C719 C712 1.409 1_556 S
C719 C718 1.362 . S
H720 C726 0.930 . S
H721 C729 0.930 . S
H722 C730 0.930 . S
H723 C731 0.930 . S
H724 C734 0.930 . S
H725 C735 0.930 . S
C726 H720 0.930 . S
C726 C727 1.355 . S
C726 C728 1.415 . S
C727 C726 1.355 . S
C727 C729 1.419 . S
C728 C726 1.415 . S
C728 C733 1.425 1_556 S
C728 C735 1.409 1_556 S
C729 H721 0.930 . S
C729 C727 1.419 . S
C729 C730 1.362 . S
C730 H722 0.930 . S
C730 C729 1.362 . S
C730 C733 1.409 1_556 S
C731 H723 0.930 . S
C731 C732 1.355 . S
C731 C733 1.415 . S
C732 C731 1.355 . S
C732 C734 1.419 . S
C733 C728 1.425 1_554 S
C733 C730 1.409 1_554 S
C733 C731 1.415 . S
C734 H724 0.930 . S
C734 C732 1.419 . S
C734 C735 1.362 . S
C735 H725 0.930 . S
C735 C728 1.409 1_554 S
C735 C734 1.362 . S
H736 C742 0.930 . S
H737 C745 0.930 . S
H738 C746 0.930 . S
H739 C747 0.930 . S
H740 C750 0.930 . S
H741 C751 0.930 . S
C742 H736 0.930 . S
C742 C743 1.355 . S
C742 C744 1.415 . S
C743 C742 1.355 . S
C743 C745 1.419 . S
C744 C742 1.415 . S
C744 C749 1.425 1_556 S
C744 C751 1.409 1_556 S
C745 H737 0.930 . S
C745 C743 1.419 . S
C745 C746 1.362 . S
C746 H738 0.930 . S
C746 C745 1.362 . S
C746 C749 1.409 1_556 S
C747 H739 0.930 . S
C747 C748 1.355 . S
C747 C749 1.415 . S
C748 C747 1.355 . S
C748 C750 1.419 . S
C749 C744 1.425 1_554 S
C749 C746 1.409 1_554 S
C749 C747 1.415 . S
C750 H740 0.930 . S
C750 C748 1.419 . S
C750 C751 1.362 . S
C751 H741 0.930 . S
C751 C744 1.409 1_554 S
C751 C750 1.362 . S
H752 C758 0.930 . S
H753 C761 0.930 . S
H754 C762 0.930 . S
H755 C763 0.930 . S
H756 C766 0.930 . S
H757 C767 0.930 . S
C758 H752 0.930 . S
C758 C759 1.355 . S
C758 C760 1.415 . S
C759 C758 1.355 . S
C759 C761 1.419 . S
C760 C758 1.415 . S
C760 C765 1.425 1_556 S
C760 C767 1.409 1_556 S
C761 H753 0.930 . S
C761 C759 1.419 . S
C761 C762 1.362 . S
C762 H754 0.930 . S
C762 C761 1.362 . S
C762 C765 1.409 1_556 S
C763 H755 0.930 . S
C763 C764 1.355 . S
C763 C765 1.415 . S
C764 C763 1.355 . S
C764 C766 1.419 . S
C765 C760 1.425 1_554 S
C765 C762 1.409 1_554 S
C765 C763 1.415 . S
C766 H756 0.930 . S
C766 C764 1.419 . S
C766 C767 1.362 . S
C767 H757 0.930 . S
C767 C760 1.409 1_554 S
C767 C766 1.362 . S
H768 C774 0.930 . S
H769 C777 0.930 . S
H770 C778 0.930 . S
H771 C779 0.930 . S
H772 C782 0.930 . S
H773 C783 0.930 . S
C774 H768 0.930 . S
C774 C775 1.355 . S
C774 C776 1.415 . S
C775 C774 1.355 . S
C775 C777 1.419 . S
C776 C774 1.415 . S
C776 C781 1.425 . S
C776 C783 1.409 . S
C777 H769 0.930 . S
C777 C775 1.419 . S
C777 C778 1.362 . S
C778 H770 0.930 . S
C778 C777 1.362 . S
C778 C781 1.409 . S
C779 H771 0.930 . S
C779 C780 1.355 . S
C779 C781 1.415 . S
C780 C779 1.355 . S
C780 C782 1.419 . S
C781 C776 1.425 . S
C781 C778 1.409 . S
C781 C779 1.415 . S
C782 H772 0.930 . S
C782 C780 1.419 . S
C782 C783 1.362 . S
C783 H773 0.930 . S
C783 C776 1.409 . S
C783 C782 1.362 . S
H784 C790 0.930 . S
H785 C793 0.930 . S
H786 C794 0.930 . S
H787 C795 0.930 . S
H788 C798 0.930 . S
H789 C799 0.930 . S
C790 H784 0.930 . S
C790 C791 1.355 . S
C790 C792 1.415 . S
C791 C790 1.355 . S
C791 C793 1.419 . S
C792 C790 1.415 . S
C792 C797 1.425 . S
C792 C799 1.409 . S
C793 H785 0.930 . S
C793 C791 1.419 . S
C793 C794 1.362 . S
C794 H786 0.930 . S
C794 C793 1.362 . S
C794 C797 1.409 . S
C795 H787 0.930 . S
C795 C796 1.355 . S
C795 C797 1.415 . S
C796 C795 1.355 . S
C796 C798 1.419 . S
C797 C792 1.425 . S
C797 C794 1.409 . S
C797 C795 1.415 . S
C798 H788 0.930 . S
C798 C796 1.419 . S
C798 C799 1.362 . S
C799 H789 0.930 . S
C799 C792 1.409 . S
C799 C798 1.362 . S
H800 C806 0.930 . S
H801 C809 0.930 . S
H802 C810 0.930 . S
H803 C811 0.930 . S
H804 C814 0.930 . S
H805 C815 0.930 . S
C806 H800 0.930 . S
C806 C807 1.355 . S
C806 C808 1.415 . S
C807 C806 1.355 . S
C807 C809 1.419 . S
C808 C806 1.415 . S
C808 C813 1.425 . S
C808 C815 1.409 . S
C809 H801 0.930 . S
C809 C807 1.419 . S
C809 C810 1.362 . S
C810 H802 0.930 . S
C810 C809 1.362 . S
C810 C813 1.409 . S
C811 H803 0.930 . S
C811 C812 1.355 . S
C811 C813 1.415 . S
C812 C811 1.355 . S
C812 C814 1.419 . S
C813 C808 1.425 . S
C813 C810 1.409 . S
C813 C811 1.415 . S
C814 H804 0.930 . S
C814 C812 1.419 . S
C814 C815 1.362 . S
C815 H805 0.930 . S
C815 C808 1.409 . S
C815 C814 1.362 . S
H816 C822 0.930 . S
H817 C825 0.930 . S
H818 C826 0.930 . S
H819 C827 0.930 . S
H820 C830 0.930 . S
H821 C831 0.930 . S
C822 H816 0.930 . S
C822 C823 1.355 . S
C822 C824 1.415 . S
C823 C822 1.355 . S
C823 C825 1.419 . S
C824 C822 1.415 . S
C824 C829 1.425 . S
C824 C831 1.409 . S
C825 H817 0.930 . S
C825 C823 1.419 . S
C825 C826 1.362 . S
C826 H818 0.930 . S
C826 C825 1.362 . S
C826 C829 1.409 . S
C827 H819 0.930 . S
C827 C828 1.355 . S
C827 C829 1.415 . S
C828 C827 1.355 . S
C828 C830 1.419 . S
C829 C824 1.425 . S
C829 C826 1.409 . S
C829 C827 1.415 . S
C830 H820 0.930 . S
C830 C828 1.419 . S
C830 C831 1.362 . S
C831 H821 0.930 . S
C831 C824 1.409 . S
C831 C830 1.362 . S
H832 C838 0.930 . S
H833 C841 0.930 . S
H834 C842 0.930 . S
H835 C843 0.930 . S
H836 C846 0.930 . S
H837 C847 0.930 . S
C838 H832 0.930 . S
C838 C839 1.355 . S
C838 C840 1.415 . S
C839 C838 1.355 . S
C839 C841 1.419 . S
C840 C838 1.415 . S
C840 C845 1.425 . S
C840 C847 1.409 . S
C841 H833 0.930 . S
C841 C839 1.419 . S
C841 C842 1.362 . S
C842 H834 0.930 . S
C842 C841 1.362 . S
C842 C845 1.409 . S
C843 H835 0.930 . S
C843 C844 1.355 . S
C843 C845 1.415 . S
C844 C843 1.355 . S
C844 C846 1.419 . S
C845 C840 1.425 . S
C845 C842 1.409 . S
C845 C843 1.415 . S
C846 H836 0.930 . S
C846 C844 1.419 . S
C846 C847 1.362 . S
C847 H837 0.930 . S
C847 C840 1.409 . S
C847 C846 1.362 . S
H848 C854 0.930 . S
H849 C857 0.930 . S
H850 C858 0.930 . S
H851 C859 0.930 . S
H852 C862 0.930 . S
H853 C863 0.930 . S
C854 H848 0.930 . S
C854 C855 1.355 . S
C854 C856 1.415 . S
C855 C854 1.355 . S
C855 C857 1.419 . S
C856 C854 1.415 . S
C856 C861 1.425 . S
C856 C863 1.409 . S
C857 H849 0.930 . S
C857 C855 1.419 . S
C857 C858 1.362 . S
C858 H850 0.930 . S
C858 C857 1.362 . S
C858 C861 1.409 . S
C859 H851 0.930 . S
C859 C860 1.355 . S
C859 C861 1.415 . S
C860 C859 1.355 . S
C860 C862 1.419 . S
C861 C856 1.425 . S
C861 C858 1.409 . S
C861 C859 1.415 . S
C862 H852 0.930 . S
C862 C860 1.419 . S
C862 C863 1.362 . S
C863 H853 0.930 . S
C863 C856 1.409 . S
C863 C862 1.362 . S
H864 C870 0.930 . S
H865 C873 0.930 . S
H866 C874 0.930 . S
H867 C875 0.930 . S
H868 C878 0.930 . S
H869 C879 0.930 . S
C870 H864 0.930 . S
C870 C871 1.355 . S
C870 C872 1.415 . S
C871 C870 1.355 . S
C871 C873 1.419 . S
C872 C870 1.415 . S
C872 C877 1.425 . S
C872 C879 1.409 . S
C873 H865 0.930 . S
C873 C871 1.419 . S
C873 C874 1.362 . S
C874 H866 0.930 . S
C874 C873 1.362 . S
C874 C877 1.409 . S
C875 H867 0.930 . S
C875 C876 1.355 . S
C875 C877 1.415 . S
C876 C875 1.355 . S
C876 C878 1.419 . S
C877 C872 1.425 . S
C877 C874 1.409 . S
C877 C875 1.415 . S
C878 H868 0.930 . S
C878 C876 1.419 . S
C878 C879 1.362 . S
C879 H869 0.930 . S
C879 C872 1.409 . S
C879 C878 1.362 . S
H880 C886 0.930 . S
H881 C889 0.930 . S
H882 C890 0.930 . S
H883 C891 0.930 . S
H884 C894 0.930 . S
H885 C895 0.930 . S
C886 H880 0.930 . S
C886 C887 1.355 . S
C886 C888 1.415 . S
C887 C886 1.355 . S
C887 C889 1.419 . S
C888 C886 1.415 . S
C888 C893 1.425 . S
C888 C895 1.409 . S
C889 H881 0.930 . S
C889 C887 1.419 . S
C889 C890 1.362 . S
C890 H882 0.930 . S
C890 C889 1.362 . S
C890 C893 1.409 . S
C891 H883 0.930 . S
C891 C892 1.355 . S
C891 C893 1.415 . S
C892 C891 1.355 . S
C892 C894 1.419 . S
C893 C888 1.425 . S
C893 C890 1.409 . S
C893 C891 1.415 . S
C894 H884 0.930 . S
C894 C892 1.419 . S
C894 C895 1.362 . S
C895 H885 0.930 . S
C895 C888 1.409 . S
C895 C894 1.362 . S
H896 C902 0.930 . S
H897 C905 0.930 . S
H898 C906 0.930 . S
H899 C907 0.930 . S
H900 C910 0.930 . S
H901 C911 0.930 . S
C902 H896 0.930 . S
C902 C903 1.355 . S
C902 C904 1.415 . S
C903 C902 1.355 . S
C903 C905 1.419 . S
C904 C902 1.415 . S
C904 C909 1.425 1_556 S
C904 C911 1.409 1_556 S
C905 H897 0.930 . S
C905 C903 1.419 . S
C905 C906 1.362 . S
C906 H898 0.930 . S
C906 C905 1.362 . S
C906 C909 1.409 1_556 S
C907 H899 0.930 . S
C907 C908 1.355 . S
C907 C909 1.415 . S
C908 C907 1.355 . S
C908 C910 1.419 . S
C909 C904 1.425 1_554 S
C909 C906 1.409 1_554 S
C909 C907 1.415 . S
C910 H900 0.930 . S
C910 C908 1.419 . S
C910 C911 1.362 . S
C911 H901 0.930 . S
C911 C904 1.409 1_554 S
C911 C910 1.362 . S
H912 C918 0.930 . S
H913 C921 0.930 . S
H914 C922 0.930 . S
H915 C923 0.930 . S
H916 C926 0.930 . S
H917 C927 0.930 . S
C918 H912 0.930 . S
C918 C919 1.355 . S
C918 C920 1.415 . S
C919 C918 1.355 . S
C919 C921 1.419 . S
C920 C918 1.415 . S
C920 C925 1.425 1_554 S
C920 C927 1.409 1_554 S
C921 H913 0.930 . S
C921 C919 1.419 . S
C921 C922 1.362 . S
C922 H914 0.930 . S
C922 C921 1.362 . S
C922 C925 1.409 1_554 S
C923 H915 0.930 . S
C923 C924 1.355 . S
C923 C925 1.415 . S
C924 C923 1.355 . S
C924 C926 1.419 . S
C925 C920 1.425 1_556 S
C925 C922 1.409 1_556 S
C925 C923 1.415 . S
C926 H916 0.930 . S
C926 C924 1.419 . S
C926 C927 1.362 . S
C927 H917 0.930 . S
C927 C920 1.409 1_556 S
C927 C926 1.362 . S
H928 C934 0.930 . S
H929 C937 0.930 . S
H930 C938 0.930 . S
H931 C939 0.930 . S
H932 C942 0.930 . S
H933 C943 0.930 . S
C934 H928 0.930 . S
C934 C935 1.355 . S
C934 C936 1.415 . S
C935 C934 1.355 . S
C935 C937 1.419 . S
C936 C934 1.415 . S
C936 C941 1.425 1_554 S
C936 C943 1.409 1_554 S
C937 H929 0.930 . S
C937 C935 1.419 . S
C937 C938 1.362 . S
C938 H930 0.930 . S
C938 C937 1.362 . S
C938 C941 1.409 1_554 S
C939 H931 0.930 . S
C939 C940 1.355 . S
C939 C941 1.415 . S
C940 C939 1.355 . S
C940 C942 1.419 . S
C941 C936 1.425 1_556 S
C941 C938 1.409 1_556 S
C941 C939 1.415 . S
C942 H932 0.930 . S
C942 C940 1.419 . S
C942 C943 1.362 . S
C943 H933 0.930 . S
C943 C936 1.409 1_556 S
C943 C942 1.362 . S
H944 C950 0.930 . S
H945 C953 0.930 . S
H946 C954 0.930 . S
H947 C955 0.930 . S
H948 C958 0.930 . S
H949 C959 0.930 . S
C950 H944 0.930 . S
C950 C951 1.355 . S
C950 C952 1.415 . S
C951 C950 1.355 . S
C951 C953 1.419 . S
C952 C950 1.415 . S
C952 C957 1.425 1_556 S
C952 C959 1.409 1_556 S
C953 H945 0.930 . S
C953 C951 1.419 . S
C953 C954 1.362 . S
C954 H946 0.930 . S
C954 C953 1.362 . S
C954 C957 1.409 1_556 S
C955 H947 0.930 . S
C955 C956 1.355 . S
C955 C957 1.415 . S
C956 C955 1.355 . S
C956 C958 1.419 . S
C957 C952 1.425 1_554 S
C957 C954 1.409 1_554 S
C957 C955 1.415 . S
C958 H948 0.930 . S
C958 C956 1.419 . S
C958 C959 1.362 . S
C959 H949 0.930 . S
C959 C952 1.409 1_554 S
C959 C958 1.362 . S
H960 C966 0.930 . S
H961 C969 0.930 . S
H962 C970 0.930 . S
H963 C971 0.930 . S
H964 C974 0.930 . S
H965 C975 0.930 . S
C966 H960 0.930 . S
C966 C967 1.355 . S
C966 C968 1.415 1_545 S
C967 C966 1.355 . S
C967 C969 1.419 . S
C968 C966 1.415 1_565 S
C968 C973 1.425 1_565 S
C968 C975 1.409 . S
C969 H961 0.930 . S
C969 C967 1.419 . S
C969 C970 1.362 . S
C970 H962 0.930 . S
C970 C969 1.362 . S
C970 C973 1.409 . S
C971 H963 0.930 . S
C971 C972 1.355 . S
C971 C973 1.415 1_565 S
C972 C971 1.355 . S
C972 C974 1.419 . S
C973 C968 1.425 1_545 S
C973 C970 1.409 . S
C973 C971 1.415 1_545 S
C974 H964 0.930 . S
C974 C972 1.419 . S
C974 C975 1.362 . S
C975 H965 0.930 . S
C975 C968 1.409 . S
C975 C974 1.362 . S
H976 C982 0.930 . S
H977 C985 0.930 . S
H978 C986 0.930 . S
H979 C987 0.930 . S
H980 C990 0.930 . S
H981 C991 0.930 . S
C982 H976 0.930 . S
C982 C983 1.355 . S
C982 C984 1.415 . S
C983 C982 1.355 . S
C983 C985 1.419 . S
C984 C982 1.415 . S
C984 C989 1.425 1_655 S
C984 C991 1.409 . S
C985 H977 0.930 . S
C985 C983 1.419 . S
C985 C986 1.362 1_655 S
C986 H978 0.930 . S
C986 C985 1.362 1_455 S
C986 C989 1.409 . S
C987 H979 0.930 . S
C987 C988 1.355 . S
C987 C989 1.415 . S
C988 C987 1.355 . S
C988 C990 1.419 . S
C989 C984 1.425 1_455 S
C989 C986 1.409 . S
C989 C987 1.415 . S
C990 H980 0.930 . S
C990 C988 1.419 . S
C990 C991 1.362 1_455 S
C991 H981 0.930 . S
C991 C984 1.409 . S
C991 C990 1.362 1_655 S
H992 C998 0.930 . S
H993 C1001 0.930 . S
H994 C1002 0.930 . S
H995 C1003 0.930 . S
H996 C1006 0.930 . S
H997 C1007 0.930 . S
C998 H992 0.930 . S
C998 C999 1.355 . S
C998 C1000 1.415 1_545 S
C999 C998 1.355 . S
C999 C1001 1.419 . S
C1000 C998 1.415 1_565 S
C1000 C1005 1.425 1_565 S
C1000 C1007 1.409 . S
C1001 H993 0.930 . S
C1001 C999 1.419 . S
C1001 C1002 1.362 . S
C1002 H994 0.930 . S
C1002 C1001 1.362 . S
C1002 C1005 1.409 . S
C1003 H995 0.930 . S
C1003 C1004 1.355 . S
C1003 C1005 1.415 1_565 S
C1004 C1003 1.355 . S
C1004 C1006 1.419 . S
C1005 C1000 1.425 1_545 S
C1005 C1002 1.409 . S
C1005 C1003 1.415 1_545 S
C1006 H996 0.930 . S
C1006 C1004 1.419 . S
C1006 C1007 1.362 . S
C1007 H997 0.930 . S
C1007 C1000 1.409 . S
C1007 C1006 1.362 . S
H1008 C1014 0.930 . S
H1009 C1017 0.930 . S
H1010 C1018 0.930 . S
H1011 C1019 0.930 . S
H1012 C1022 0.930 . S
H1013 C1023 0.930 . S
C1014 H1008 0.930 . S
C1014 C1015 1.355 . S
C1014 C1016 1.415 1_455 S
C1015 C1014 1.355 . S
C1015 C1017 1.419 . S
C1016 C1014 1.415 1_655 S
C1016 C1021 1.425 1_655 S
C1016 C1023 1.409 . S
C1017 H1009 0.930 . S
C1017 C1015 1.419 . S
C1017 C1018 1.362 . S
C1018 H1010 0.930 . S
C1018 C1017 1.362 . S
C1018 C1021 1.409 . S
C1019 H1011 0.930 . S
C1019 C1020 1.355 . S
C1019 C1021 1.415 1_655 S
C1020 C1019 1.355 . S
C1020 C1022 1.419 . S
C1021 C1016 1.425 1_455 S
C1021 C1018 1.409 . S
C1021 C1019 1.415 1_455 S
C1022 H1012 0.930 . S
C1022 C1020 1.419 . S
C1022 C1023 1.362 . S
C1023 H1013 0.930 . S
C1023 C1016 1.409 . S
C1023 C1022 1.362 . S
H1024 C1030 0.930 . S
H1025 C1033 0.930 . S
H1026 C1034 0.930 . S
H1027 C1035 0.930 . S
H1028 C1038 0.930 . S
H1029 C1039 0.930 . S
C1030 H1024 0.930 . S
C1030 C1031 1.355 . S
C1030 C1032 1.415 1_565 S
C1031 C1030 1.355 . S
C1031 C1033 1.419 . S
C1032 C1030 1.415 1_545 S
C1032 C1037 1.425 1_545 S
C1032 C1039 1.409 . S
C1033 H1025 0.930 . S
C1033 C1031 1.419 . S
C1033 C1034 1.362 . S
C1034 H1026 0.930 . S
C1034 C1033 1.362 . S
C1034 C1037 1.409 . S
C1035 H1027 0.930 . S
C1035 C1036 1.355 . S
C1035 C1037 1.415 1_545 S
C1036 C1035 1.355 . S
C1036 C1038 1.419 . S
C1037 C1032 1.425 1_565 S
C1037 C1034 1.409 . S
C1037 C1035 1.415 1_565 S
C1038 H1028 0.930 . S
C1038 C1036 1.419 . S
C1038 C1039 1.362 . S
C1039 H1029 0.930 . S
C1039 C1032 1.409 . S
C1039 C1038 1.362 . S
H1040 C1046 0.930 . S
H1041 C1049 0.930 . S
H1042 C1050 0.930 . S
H1043 C1051 0.930 . S
H1044 C1054 0.930 . S
H1045 C1055 0.930 . S
C1046 H1040 0.930 . S
C1046 C1047 1.355 . S
C1046 C1048 1.415 . S
C1047 C1046 1.355 . S
C1047 C1049 1.419 . S
C1048 C1046 1.415 . S
C1048 C1053 1.425 1_655 S
C1048 C1055 1.409 . S
C1049 H1041 0.930 . S
C1049 C1047 1.419 . S
C1049 C1050 1.362 1_655 S
C1050 H1042 0.930 . S
C1050 C1049 1.362 1_455 S
C1050 C1053 1.409 . S
C1051 H1043 0.930 . S
C1051 C1052 1.355 . S
C1051 C1053 1.415 . S
C1052 C1051 1.355 . S
C1052 C1054 1.419 . S
C1053 C1048 1.425 1_455 S
C1053 C1050 1.409 . S
C1053 C1051 1.415 . S
C1054 H1044 0.930 . S
C1054 C1052 1.419 . S
C1054 C1055 1.362 1_455 S
C1055 H1045 0.930 . S
C1055 C1048 1.409 . S
C1055 C1054 1.362 1_655 S
H1056 C1062 0.930 . S
H1057 C1065 0.930 . S
H1058 C1066 0.930 . S
H1059 C1067 0.930 . S
H1060 C1070 0.930 . S
H1061 C1071 0.930 . S
C1062 H1056 0.930 . S
C1062 C1063 1.355 . S
C1062 C1064 1.415 1_565 S
C1063 C1062 1.355 . S
C1063 C1065 1.419 . S
C1064 C1062 1.415 1_545 S
C1064 C1069 1.425 1_545 S
C1064 C1071 1.409 . S
C1065 H1057 0.930 . S
C1065 C1063 1.419 . S
C1065 C1066 1.362 . S
C1066 H1058 0.930 . S
C1066 C1065 1.362 . S
C1066 C1069 1.409 . S
C1067 H1059 0.930 . S
C1067 C1068 1.355 . S
C1067 C1069 1.415 1_545 S
C1068 C1067 1.355 . S
C1068 C1070 1.419 . S
C1069 C1064 1.425 1_565 S
C1069 C1066 1.409 . S
C1069 C1067 1.415 1_565 S
C1070 H1060 0.930 . S
C1070 C1068 1.419 . S
C1070 C1071 1.362 . S
C1071 H1061 0.930 . S
C1071 C1064 1.409 . S
C1071 C1070 1.362 . S
H1072 C1078 0.930 . S
H1073 C1081 0.930 . S
H1074 C1082 0.930 . S
H1075 C1083 0.930 . S
H1076 C1086 0.930 . S
H1077 C1087 0.930 . S
C1078 H1072 0.930 . S
C1078 C1079 1.355 . S
C1078 C1080 1.415 1_655 S
C1079 C1078 1.355 . S
C1079 C1081 1.419 . S
C1080 C1078 1.415 1_455 S
C1080 C1085 1.425 1_455 S
C1080 C1087 1.409 . S
C1081 H1073 0.930 . S
C1081 C1079 1.419 . S
C1081 C1082 1.362 . S
C1082 H1074 0.930 . S
C1082 C1081 1.362 . S
C1082 C1085 1.409 . S
C1083 H1075 0.930 . S
C1083 C1084 1.355 . S
C1083 C1085 1.415 1_455 S
C1084 C1083 1.355 . S
C1084 C1086 1.419 . S
C1085 C1080 1.425 1_655 S
C1085 C1082 1.409 . S
C1085 C1083 1.415 1_655 S
C1086 H1076 0.930 . S
C1086 C1084 1.419 . S
C1086 C1087 1.362 . S
C1087 H1077 0.930 . S
C1087 C1080 1.409 . S
C1087 C1086 1.362 . S
H1088 C1094 0.930 . S
H1089 C1097 0.930 . S
H1090 C1098 0.930 . S
H1091 C1099 0.930 . S
H1092 C1102 0.930 . S
H1093 C1103 0.930 . S
C1094 H1088 0.930 . S
C1094 C1095 1.355 . S
C1094 C1096 1.415 . S
C1095 C1094 1.355 . S
C1095 C1097 1.419 . S
C1096 C1094 1.415 . S
C1096 C1101 1.425 . S
C1096 C1103 1.409 . S
C1097 H1089 0.930 . S
C1097 C1095 1.419 . S
C1097 C1098 1.362 . S
C1098 H1090 0.930 . S
C1098 C1097 1.362 . S
C1098 C1101 1.409 . S
C1099 H1091 0.930 . S
C1099 C1100 1.355 . S
C1099 C1101 1.415 . S
C1100 C1099 1.355 . S
C1100 C1102 1.419 . S
C1101 C1096 1.425 . S
C1101 C1098 1.409 . S
C1101 C1099 1.415 . S
C1102 H1092 0.930 . S
C1102 C1100 1.419 . S
C1102 C1103 1.362 . S
C1103 H1093 0.930 . S
C1103 C1096 1.409 . S
C1103 C1102 1.362 . S
H1104 C1110 0.930 . S
H1105 C1113 0.930 . S
H1106 C1114 0.930 . S
H1107 C1115 0.930 . S
H1108 C1118 0.930 . S
H1109 C1119 0.930 . S
C1110 H1104 0.930 . S
C1110 C1111 1.355 . S
C1110 C1112 1.415 . S
C1111 C1110 1.355 . S
C1111 C1113 1.419 . S
C1112 C1110 1.415 . S
C1112 C1117 1.425 . S
C1112 C1119 1.409 . S
C1113 H1105 0.930 . S
C1113 C1111 1.419 . S
C1113 C1114 1.362 . S
C1114 H1106 0.930 . S
C1114 C1113 1.362 . S
C1114 C1117 1.409 . S
C1115 H1107 0.930 . S
C1115 C1116 1.355 . S
C1115 C1117 1.415 . S
C1116 C1115 1.355 . S
C1116 C1118 1.419 . S
C1117 C1112 1.425 . S
C1117 C1114 1.409 . S
C1117 C1115 1.415 . S
C1118 H1108 0.930 . S
C1118 C1116 1.419 . S
C1118 C1119 1.362 . S
C1119 H1109 0.930 . S
C1119 C1112 1.409 . S
C1119 C1118 1.362 . S
H1120 C1126 0.930 . S
H1121 C1129 0.930 . S
H1122 C1130 0.930 . S
H1123 C1131 0.930 . S
H1124 C1134 0.930 . S
H1125 C1135 0.930 . S
C1126 H1120 0.930 . S
C1126 C1127 1.355 . S
C1126 C1128 1.415 . S
C1127 C1126 1.355 . S
C1127 C1129 1.419 . S
C1128 C1126 1.415 . S
C1128 C1133 1.425 . S
C1128 C1135 1.409 . S
C1129 H1121 0.930 . S
C1129 C1127 1.419 . S
C1129 C1130 1.362 . S
C1130 H1122 0.930 . S
C1130 C1129 1.362 . S
C1130 C1133 1.409 . S
C1131 H1123 0.930 . S
C1131 C1132 1.355 . S
C1131 C1133 1.415 . S
C1132 C1131 1.355 . S
C1132 C1134 1.419 . S
C1133 C1128 1.425 . S
C1133 C1130 1.409 . S
C1133 C1131 1.415 . S
C1134 H1124 0.930 . S
C1134 C1132 1.419 . S
C1134 C1135 1.362 . S
C1135 H1125 0.930 . S
C1135 C1128 1.409 . S
C1135 C1134 1.362 . S
H1136 C1142 0.930 . S
H1137 C1145 0.930 . S
H1138 C1146 0.930 . S
H1139 C1147 0.930 . S
H1140 C1150 0.930 . S
H1141 C1151 0.930 . S
C1142 H1136 0.930 . S
C1142 C1143 1.355 . S
C1142 C1144 1.415 . S
C1143 C1142 1.355 . S
C1143 C1145 1.419 . S
C1144 C1142 1.415 . S
C1144 C1149 1.425 . S
C1144 C1151 1.409 . S
C1145 H1137 0.930 . S
C1145 C1143 1.419 . S
C1145 C1146 1.362 . S
C1146 H1138 0.930 . S
C1146 C1145 1.362 . S
C1146 C1149 1.409 . S
C1147 H1139 0.930 . S
C1147 C1148 1.355 . S
C1147 C1149 1.415 . S
C1148 C1147 1.355 . S
C1148 C1150 1.419 . S
C1149 C1144 1.425 . S
C1149 C1146 1.409 . S
C1149 C1147 1.415 . S
C1150 H1140 0.930 . S
C1150 C1148 1.419 . S
C1150 C1151 1.362 . S
C1151 H1141 0.930 . S
C1151 C1144 1.409 . S
C1151 C1150 1.362 . S
H1152 C1158 0.930 . S
H1153 C1161 0.930 . S
H1154 C1162 0.930 . S
H1155 C1163 0.930 . S
H1156 C1166 0.930 . S
H1157 C1167 0.930 . S
C1158 H1152 0.930 . S
C1158 C1159 1.355 . S
C1158 C1160 1.415 . S
C1159 C1158 1.355 . S
C1159 C1161 1.419 . S
C1160 C1158 1.415 . S
C1160 C1165 1.425 . S
C1160 C1167 1.409 . S
C1161 H1153 0.930 . S
C1161 C1159 1.419 . S
C1161 C1162 1.362 . S
C1162 H1154 0.930 . S
C1162 C1161 1.362 . S
C1162 C1165 1.409 . S
C1163 H1155 0.930 . S
C1163 C1164 1.355 . S
C1163 C1165 1.415 . S
C1164 C1163 1.355 . S
C1164 C1166 1.419 . S
C1165 C1160 1.425 . S
C1165 C1162 1.409 . S
C1165 C1163 1.415 . S
C1166 H1156 0.930 . S
C1166 C1164 1.419 . S
C1166 C1167 1.362 . S
C1167 H1157 0.930 . S
C1167 C1160 1.409 . S
C1167 C1166 1.362 . S
H1168 C1174 0.930 . S
H1169 C1177 0.930 . S
H1170 C1178 0.930 . S
H1171 C1179 0.930 . S
H1172 C1182 0.930 . S
H1173 C1183 0.930 . S
C1174 H1168 0.930 . S
C1174 C1175 1.355 . S
C1174 C1176 1.415 . S
C1175 C1174 1.355 . S
C1175 C1177 1.419 . S
C1176 C1174 1.415 . S
C1176 C1181 1.425 . S
C1176 C1183 1.409 . S
C1177 H1169 0.930 . S
C1177 C1175 1.419 . S
C1177 C1178 1.362 . S
C1178 H1170 0.930 . S
C1178 C1177 1.362 . S
C1178 C1181 1.409 . S
C1179 H1171 0.930 . S
C1179 C1180 1.355 . S
C1179 C1181 1.415 . S
C1180 C1179 1.355 . S
C1180 C1182 1.419 . S
C1181 C1176 1.425 . S
C1181 C1178 1.409 . S
C1181 C1179 1.415 . S
C1182 H1172 0.930 . S
C1182 C1180 1.419 . S
C1182 C1183 1.362 . S
C1183 H1173 0.930 . S
C1183 C1176 1.409 . S
C1183 C1182 1.362 . S
H1184 C1190 0.930 . S
H1185 C1193 0.930 . S
H1186 C1194 0.930 . S
H1187 C1195 0.930 . S
H1188 C1198 0.930 . S
H1189 C1199 0.930 . S
C1190 H1184 0.930 . S
C1190 C1191 1.355 . S
C1190 C1192 1.415 . S
C1191 C1190 1.355 . S
C1191 C1193 1.419 . S
C1192 C1190 1.415 . S
C1192 C1197 1.425 . S
C1192 C1199 1.409 . S
C1193 H1185 0.930 . S
C1193 C1191 1.419 . S
C1193 C1194 1.362 . S
C1194 H1186 0.930 . S
C1194 C1193 1.362 . S
C1194 C1197 1.409 . S
C1195 H1187 0.930 . S
C1195 C1196 1.355 . S
C1195 C1197 1.415 . S
C1196 C1195 1.355 . S
C1196 C1198 1.419 . S
C1197 C1192 1.425 . S
C1197 C1194 1.409 . S
C1197 C1195 1.415 . S
C1198 H1188 0.930 . S
C1198 C1196 1.419 . S
C1198 C1199 1.362 . S
C1199 H1189 0.930 . S
C1199 C1192 1.409 . S
C1199 C1198 1.362 . S
H1200 C1206 0.930 . S
H1201 C1209 0.930 . S
H1202 C1210 0.930 . S
H1203 C1211 0.930 . S
H1204 C1214 0.930 . S
H1205 C1215 0.930 . S
C1206 H1200 0.930 . S
C1206 C1207 1.355 . S
C1206 C1208 1.415 . S
C1207 C1206 1.355 . S
C1207 C1209 1.419 . S
C1208 C1206 1.415 . S
C1208 C1213 1.425 . S
C1208 C1215 1.409 . S
C1209 H1201 0.930 . S
C1209 C1207 1.419 . S
C1209 C1210 1.362 . S
C1210 H1202 0.930 . S
C1210 C1209 1.362 . S
C1210 C1213 1.409 . S
C1211 H1203 0.930 . S
C1211 C1212 1.355 . S
C1211 C1213 1.415 . S
C1212 C1211 1.355 . S
C1212 C1214 1.419 . S
C1213 C1208 1.425 . S
C1213 C1210 1.409 . S
C1213 C1211 1.415 . S
C1214 H1204 0.930 . S
C1214 C1212 1.419 . S
C1214 C1215 1.362 . S
C1215 H1205 0.930 . S
C1215 C1208 1.409 . S
C1215 C1214 1.362 . S
H1216 C1222 0.930 . S
H1217 C1225 0.930 . S
H1218 C1226 0.930 . S
H1219 C1227 0.930 . S
H1220 C1230 0.930 . S
H1221 C1231 0.930 . S
C1222 H1216 0.930 . S
C1222 C1223 1.355 . S
C1222 C1224 1.415 . S
C1223 C1222 1.355 . S
C1223 C1225 1.419 . S
C1224 C1222 1.415 . S
C1224 C1229 1.425 . S
C1224 C1231 1.409 . S
C1225 H1217 0.930 . S
C1225 C1223 1.419 . S
C1225 C1226 1.362 . S
C1226 H1218 0.930 . S
C1226 C1225 1.362 . S
C1226 C1229 1.409 . S
C1227 H1219 0.930 . S
C1227 C1228 1.355 . S
C1227 C1229 1.415 . S
C1228 C1227 1.355 . S
C1228 C1230 1.419 . S
C1229 C1224 1.425 . S
C1229 C1226 1.409 . S
C1229 C1227 1.415 . S
C1230 H1220 0.930 . S
C1230 C1228 1.419 . S
C1230 C1231 1.362 . S
C1231 H1221 0.930 . S
C1231 C1224 1.409 . S
C1231 C1230 1.362 . S
H1232 C1238 0.930 . S
H1233 C1241 0.930 . S
H1234 C1242 0.930 . S
H1235 C1243 0.930 . S
H1236 C1246 0.930 . S
H1237 C1247 0.930 . S
C1238 H1232 0.930 . S
C1238 C1239 1.355 . S
C1238 C1240 1.415 . S
C1239 C1238 1.355 . S
C1239 C1241 1.419 . S
C1240 C1238 1.415 . S
C1240 C1245 1.425 . S
C1240 C1247 1.409 . S
C1241 H1233 0.930 . S
C1241 C1239 1.419 . S
C1241 C1242 1.362 . S
C1242 H1234 0.930 . S
C1242 C1241 1.362 . S
C1242 C1245 1.409 . S
C1243 H1235 0.930 . S
C1243 C1244 1.355 . S
C1243 C1245 1.415 . S
C1244 C1243 1.355 . S
C1244 C1246 1.419 . S
C1245 C1240 1.425 . S
C1245 C1242 1.409 . S
C1245 C1243 1.415 . S
C1246 H1236 0.930 . S
C1246 C1244 1.419 . S
C1246 C1247 1.362 . S
C1247 H1237 0.930 . S
C1247 C1240 1.409 . S
C1247 C1246 1.362 . S
H1248 C1254 0.930 . S
H1249 C1257 0.930 . S
H1250 C1258 0.930 . S
H1251 C1259 0.930 . S
H1252 C1262 0.930 . S
H1253 C1263 0.930 . S
C1254 H1248 0.930 . S
C1254 C1255 1.355 . S
C1254 C1256 1.415 . S
C1255 C1254 1.355 . S
C1255 C1257 1.419 . S
C1256 C1254 1.415 . S
C1256 C1261 1.425 . S
C1256 C1263 1.409 . S
C1257 H1249 0.930 . S
C1257 C1255 1.419 . S
C1257 C1258 1.362 . S
C1258 H1250 0.930 . S
C1258 C1257 1.362 . S
C1258 C1261 1.409 . S
C1259 H1251 0.930 . S
C1259 C1260 1.355 . S
C1259 C1261 1.415 . S
C1260 C1259 1.355 . S
C1260 C1262 1.419 . S
C1261 C1256 1.425 . S
C1261 C1258 1.409 . S
C1261 C1259 1.415 . S
C1262 H1252 0.930 . S
C1262 C1260 1.419 . S
C1262 C1263 1.362 . S
C1263 H1253 0.930 . S
C1263 C1256 1.409 . S
C1263 C1262 1.362 . S
H1264 C1270 0.930 . S
H1265 C1273 0.930 . S
H1266 C1274 0.930 . S
H1267 C1275 0.930 . S
H1268 C1278 0.930 . S
H1269 C1279 0.930 . S
C1270 H1264 0.930 . S
C1270 C1271 1.355 . S
C1270 C1272 1.415 . S
C1271 C1270 1.355 . S
C1271 C1273 1.419 . S
C1272 C1270 1.415 . S
C1272 C1277 1.425 . S
C1272 C1279 1.409 . S
C1273 H1265 0.930 . S
C1273 C1271 1.419 . S
C1273 C1274 1.362 . S
C1274 H1266 0.930 . S
C1274 C1273 1.362 . S
C1274 C1277 1.409 . S
C1275 H1267 0.930 . S
C1275 C1276 1.355 . S
C1275 C1277 1.415 . S
C1276 C1275 1.355 . S
C1276 C1278 1.419 . S
C1277 C1272 1.425 . S
C1277 C1274 1.409 . S
C1277 C1275 1.415 . S
C1278 H1268 0.930 . S
C1278 C1276 1.419 . S
C1278 C1279 1.362 . S
C1279 H1269 0.930 . S
C1279 C1272 1.409 . S
C1279 C1278 1.362 . S
H1280 C1286 0.930 . S
H1281 C1289 0.930 . S
H1282 C1290 0.930 . S
H1283 C1291 0.930 . S
H1284 C1294 0.930 . S
H1285 C1295 0.930 . S
C1286 H1280 0.930 . S
C1286 C1287 1.355 . S
C1286 C1288 1.415 . S
C1287 C1286 1.355 . S
C1287 C1289 1.419 . S
C1288 C1286 1.415 . S
C1288 C1293 1.425 . S
C1288 C1295 1.409 . S
C1289 H1281 0.930 . S
C1289 C1287 1.419 . S
C1289 C1290 1.362 . S
C1290 H1282 0.930 . S
C1290 C1289 1.362 . S
C1290 C1293 1.409 . S
C1291 H1283 0.930 . S
C1291 C1292 1.355 . S
C1291 C1293 1.415 . S
C1292 C1291 1.355 . S
C1292 C1294 1.419 . S
C1293 C1288 1.425 . S
C1293 C1290 1.409 . S
C1293 C1291 1.415 . S
C1294 H1284 0.930 . S
C1294 C1292 1.419 . S
C1294 C1295 1.362 . S
C1295 H1285 0.930 . S
C1295 C1288 1.409 . S
C1295 C1294 1.362 . S
H1296 C1302 0.930 . S
H1297 C1305 0.930 . S
H1298 C1306 0.930 . S
H1299 C1307 0.930 . S
H1300 C1310 0.930 . S
H1301 C1311 0.930 . S
C1302 H1296 0.930 . S
C1302 C1303 1.355 . S
C1302 C1304 1.415 . S
C1303 C1302 1.355 . S
C1303 C1305 1.419 . S
C1304 C1302 1.415 . S
C1304 C1309 1.425 . S
C1304 C1311 1.409 . S
C1305 H1297 0.930 . S
C1305 C1303 1.419 . S
C1305 C1306 1.362 . S
C1306 H1298 0.930 . S
C1306 C1305 1.362 . S
C1306 C1309 1.409 . S
C1307 H1299 0.930 . S
C1307 C1308 1.355 . S
C1307 C1309 1.415 . S
C1308 C1307 1.355 . S
C1308 C1310 1.419 . S
C1309 C1304 1.425 . S
C1309 C1306 1.409 . S
C1309 C1307 1.415 . S
C1310 H1300 0.930 . S
C1310 C1308 1.419 . S
C1310 C1311 1.362 . S
C1311 H1301 0.930 . S
C1311 C1304 1.409 . S
C1311 C1310 1.362 . S
H1312 C1318 0.930 . S
H1313 C1321 0.930 . S
H1314 C1322 0.930 . S
H1315 C1323 0.930 . S
H1316 C1326 0.930 . S
H1317 C1327 0.930 . S
C1318 H1312 0.930 . S
C1318 C1319 1.355 . S
C1318 C1320 1.415 . S
C1319 C1318 1.355 . S
C1319 C1321 1.419 . S
C1320 C1318 1.415 . S
C1320 C1325 1.425 . S
C1320 C1327 1.409 . S
C1321 H1313 0.930 . S
C1321 C1319 1.419 . S
C1321 C1322 1.362 . S
C1322 H1314 0.930 . S
C1322 C1321 1.362 . S
C1322 C1325 1.409 . S
C1323 H1315 0.930 . S
C1323 C1324 1.355 . S
C1323 C1325 1.415 . S
C1324 C1323 1.355 . S
C1324 C1326 1.419 . S
C1325 C1320 1.425 . S
C1325 C1322 1.409 . S
C1325 C1323 1.415 . S
C1326 H1316 0.930 . S
C1326 C1324 1.419 . S
C1326 C1327 1.362 . S
C1327 H1317 0.930 . S
C1327 C1320 1.409 . S
C1327 C1326 1.362 . S
H1328 C1334 0.930 . S
H1329 C1337 0.930 . S
H1330 C1338 0.930 . S
H1331 C1339 0.930 . S
H1332 C1342 0.930 . S
H1333 C1343 0.930 . S
C1334 H1328 0.930 . S
C1334 C1335 1.355 . S
C1334 C1336 1.415 . S
C1335 C1334 1.355 . S
C1335 C1337 1.419 . S
C1336 C1334 1.415 . S
C1336 C1341 1.425 . S
C1336 C1343 1.409 . S
C1337 H1329 0.930 . S
C1337 C1335 1.419 . S
C1337 C1338 1.362 . S
C1338 H1330 0.930 . S
C1338 C1337 1.362 . S
C1338 C1341 1.409 . S
C1339 H1331 0.930 . S
C1339 C1340 1.355 . S
C1339 C1341 1.415 . S
C1340 C1339 1.355 . S
C1340 C1342 1.419 . S
C1341 C1336 1.425 . S
C1341 C1338 1.409 . S
C1341 C1339 1.415 . S
C1342 H1332 0.930 . S
C1342 C1340 1.419 . S
C1342 C1343 1.362 . S
C1343 H1333 0.930 . S
C1343 C1336 1.409 . S
C1343 C1342 1.362 . S
H1344 C1350 0.930 . S
H1345 C1353 0.930 . S
H1346 C1354 0.930 . S
H1347 C1355 0.930 . S
H1348 C1358 0.930 . S
H1349 C1359 0.930 . S
C1350 H1344 0.930 . S
C1350 C1351 1.355 . S
C1350 C1352 1.415 . S
C1351 C1350 1.355 . S
C1351 C1353 1.419 . S
C1352 C1350 1.415 . S
C1352 C1357 1.425 . S
C1352 C1359 1.409 . S
C1353 H1345 0.930 . S
C1353 C1351 1.419 . S
C1353 C1354 1.362 . S
C1354 H1346 0.930 . S
C1354 C1353 1.362 . S
C1354 C1357 1.409 . S
C1355 H1347 0.930 . S
C1355 C1356 1.355 . S
C1355 C1357 1.415 . S
C1356 C1355 1.355 . S
C1356 C1358 1.419 . S
C1357 C1352 1.425 . S
C1357 C1354 1.409 . S
C1357 C1355 1.415 . S
C1358 H1348 0.930 . S
C1358 C1356 1.419 . S
C1358 C1359 1.362 . S
C1359 H1349 0.930 . S
C1359 C1352 1.409 . S
C1359 C1358 1.362 . S
H1360 C1366 0.930 . S
H1361 C1369 0.930 . S
H1362 C1370 0.930 . S
H1363 C1371 0.930 . S
H1364 C1374 0.930 . S
H1365 C1375 0.930 . S
C1366 H1360 0.930 . S
C1366 C1367 1.355 . S
C1366 C1368 1.415 . S
C1367 C1366 1.355 . S
C1367 C1369 1.419 . S
C1368 C1366 1.415 . S
C1368 C1373 1.425 . S
C1368 C1375 1.409 . S
C1369 H1361 0.930 . S
C1369 C1367 1.419 . S
C1369 C1370 1.362 . S
C1370 H1362 0.930 . S
C1370 C1369 1.362 . S
C1370 C1373 1.409 . S
C1371 H1363 0.930 . S
C1371 C1372 1.355 . S
C1371 C1373 1.415 . S
C1372 C1371 1.355 . S
C1372 C1374 1.419 . S
C1373 C1368 1.425 . S
C1373 C1370 1.409 . S
C1373 C1371 1.415 . S
C1374 H1364 0.930 . S
C1374 C1372 1.419 . S
C1374 C1375 1.362 . S
C1375 H1365 0.930 . S
C1375 C1368 1.409 . S
C1375 C1374 1.362 . S
H1376 C1382 0.930 . S
H1377 C1385 0.930 . S
H1378 C1386 0.930 . S
H1379 C1387 0.930 . S
H1380 C1390 0.930 . S
H1381 C1391 0.930 . S
C1382 H1376 0.930 . S
C1382 C1383 1.355 . S
C1382 C1384 1.415 . S
C1383 C1382 1.355 . S
C1383 C1385 1.419 . S
C1384 C1382 1.415 . S
C1384 C1389 1.425 . S
C1384 C1391 1.409 . S
C1385 H1377 0.930 . S
C1385 C1383 1.419 . S
C1385 C1386 1.362 . S
C1386 H1378 0.930 . S
C1386 C1385 1.362 . S
C1386 C1389 1.409 . S
C1387 H1379 0.930 . S
C1387 C1388 1.355 . S
C1387 C1389 1.415 . S
C1388 C1387 1.355 . S
C1388 C1390 1.419 . S
C1389 C1384 1.425 . S
C1389 C1386 1.409 . S
C1389 C1387 1.415 . S
C1390 H1380 0.930 . S
C1390 C1388 1.419 . S
C1390 C1391 1.362 . S
C1391 H1381 0.930 . S
C1391 C1384 1.409 . S
C1391 C1390 1.362 . S
H1392 C1398 0.930 . S
H1393 C1401 0.930 . S
H1394 C1402 0.930 . S
H1395 C1403 0.930 . S
H1396 C1406 0.930 . S
H1397 C1407 0.930 . S
C1398 H1392 0.930 . S
C1398 C1399 1.355 . S
C1398 C1400 1.415 . S
C1399 C1398 1.355 . S
C1399 C1401 1.419 . S
C1400 C1398 1.415 . S
C1400 C1405 1.425 . S
C1400 C1407 1.409 . S
C1401 H1393 0.930 . S
C1401 C1399 1.419 . S
C1401 C1402 1.362 . S
C1402 H1394 0.930 . S
C1402 C1401 1.362 . S
C1402 C1405 1.409 . S
C1403 H1395 0.930 . S
C1403 C1404 1.355 . S
C1403 C1405 1.415 . S
C1404 C1403 1.355 . S
C1404 C1406 1.419 . S
C1405 C1400 1.425 . S
C1405 C1402 1.409 . S
C1405 C1403 1.415 . S
C1406 H1396 0.930 . S
C1406 C1404 1.419 . S
C1406 C1407 1.362 . S
C1407 H1397 0.930 . S
C1407 C1400 1.409 . S
C1407 C1406 1.362 . S
H1408 C1414 0.930 . S
H1409 C1417 0.930 . S
H1410 C1418 0.930 . S
H1411 C1419 0.930 . S
H1412 C1422 0.930 . S
H1413 C1423 0.930 . S
C1414 H1408 0.930 . S
C1414 C1415 1.355 . S
C1414 C1416 1.415 . S
C1415 C1414 1.355 . S
C1415 C1417 1.419 . S
C1416 C1414 1.415 . S
C1416 C1421 1.425 . S
C1416 C1423 1.409 . S
C1417 H1409 0.930 . S
C1417 C1415 1.419 . S
C1417 C1418 1.362 . S
C1418 H1410 0.930 . S
C1418 C1417 1.362 . S
C1418 C1421 1.409 . S
C1419 H1411 0.930 . S
C1419 C1420 1.355 . S
C1419 C1421 1.415 . S
C1420 C1419 1.355 . S
C1420 C1422 1.419 . S
C1421 C1416 1.425 . S
C1421 C1418 1.409 . S
C1421 C1419 1.415 . S
C1422 H1412 0.930 . S
C1422 C1420 1.419 . S
C1422 C1423 1.362 . S
C1423 H1413 0.930 . S
C1423 C1416 1.409 . S
C1423 C1422 1.362 . S
H1424 C1430 0.930 . S
H1425 C1433 0.930 . S
H1426 C1434 0.930 . S
H1427 C1435 0.930 . S
H1428 C1438 0.930 . S
H1429 C1439 0.930 . S
C1430 H1424 0.930 . S
C1430 C1431 1.355 . S
C1430 C1432 1.415 . S
C1431 C1430 1.355 . S
C1431 C1433 1.419 . S
C1432 C1430 1.415 . S
C1432 C1437 1.425 . S
C1432 C1439 1.409 . S
C1433 H1425 0.930 . S
C1433 C1431 1.419 . S
C1433 C1434 1.362 . S
C1434 H1426 0.930 . S
C1434 C1433 1.362 . S
C1434 C1437 1.409 . S
C1435 H1427 0.930 . S
C1435 C1436 1.355 . S
C1435 C1437 1.415 . S
C1436 C1435 1.355 . S
C1436 C1438 1.419 . S
C1437 C1432 1.425 . S
C1437 C1434 1.409 . S
C1437 C1435 1.415 . S
C1438 H1428 0.930 . S
C1438 C1436 1.419 . S
C1438 C1439 1.362 . S
C1439 H1429 0.930 . S
C1439 C1432 1.409 . S
C1439 C1438 1.362 . S
H1440 C1446 0.930 . S
H1441 C1449 0.930 . S
H1442 C1450 0.930 . S
H1443 C1451 0.930 . S
H1444 C1454 0.930 . S
H1445 C1455 0.930 . S
C1446 H1440 0.930 . S
C1446 C1447 1.355 . S
C1446 C1448 1.415 . S
C1447 C1446 1.355 . S
C1447 C1449 1.419 . S
C1448 C1446 1.415 . S
C1448 C1453 1.425 . S
C1448 C1455 1.409 . S
C1449 H1441 0.930 . S
C1449 C1447 1.419 . S
C1449 C1450 1.362 . S
C1450 H1442 0.930 . S
C1450 C1449 1.362 . S
C1450 C1453 1.409 . S
C1451 H1443 0.930 . S
C1451 C1452 1.355 . S
C1451 C1453 1.415 . S
C1452 C1451 1.355 . S
C1452 C1454 1.419 . S
C1453 C1448 1.425 . S
C1453 C1450 1.409 . S
C1453 C1451 1.415 . S
C1454 H1444 0.930 . S
C1454 C1452 1.419 . S
C1454 C1455 1.362 . S
C1455 H1445 0.930 . S
C1455 C1448 1.409 . S
C1455 C1454 1.362 . S
H1456 C1462 0.930 . S
H1457 C1465 0.930 . S
H1458 C1466 0.930 . S
H1459 C1467 0.930 . S
H1460 C1470 0.930 . S
H1461 C1471 0.930 . S
C1462 H1456 0.930 . S
C1462 C1463 1.355 . S
C1462 C1464 1.415 . S
C1463 C1462 1.355 . S
C1463 C1465 1.419 . S
C1464 C1462 1.415 . S
C1464 C1469 1.425 . S
C1464 C1471 1.409 . S
C1465 H1457 0.930 . S
C1465 C1463 1.419 . S
C1465 C1466 1.362 . S
C1466 H1458 0.930 . S
C1466 C1465 1.362 . S
C1466 C1469 1.409 . S
C1467 H1459 0.930 . S
C1467 C1468 1.355 . S
C1467 C1469 1.415 . S
C1468 C1467 1.355 . S
C1468 C1470 1.419 . S
C1469 C1464 1.425 . S
C1469 C1466 1.409 . S
C1469 C1467 1.415 . S
C1470 H1460 0.930 . S
C1470 C1468 1.419 . S
C1470 C1471 1.362 . S
C1471 H1461 0.930 . S
C1471 C1464 1.409 . S
C1471 C1470 1.362 . S
C455 C415 1.621 . S
C460 C9 1.631 . S
C471 C23 1.624 . S
C476 C429 1.628 . S
C487 C443 1.645 . S
C492 C37 1.606 . S
C503 C401 1.643 . S
C508 C51 1.608 . S
C519 C65 1.644 . S
C524 C387 1.607 . S
C535 C345 1.636 . S
C540 C79 1.615 . S
C551 C93 1.628 . S
C556 C359 1.623 . S
C567 C373 1.607 . S
C572 C107 1.644 . S
C583 C121 1.618 . S
C588 C303 1.634 . S
C599 C135 1.607 . S
C604 C317 1.645 . S
C615 C331 1.640 . S
C620 C149 1.611 . S
C631 C163 1.636 . S
C636 C289 1.616 . S
C647 C275 1.636 . S
C652 C177 1.615 . S
C663 C233 1.611 . S
C668 C191 1.640 . S
C679 C205 1.644 . S
C684 C247 1.607 . S
C695 C219 1.608 . S
C700 C261 1.644 . S
C711 C7 1.444 . S
C716 C147 1.407 . S
C727 C161 1.417 . S
C732 C21 1.434 . S
C743 C119 1.452 . S
C748 C35 1.399 . S
C759 C133 1.393 . S
C764 C49 1.457 . S
C775 C63 1.393 . S
C780 C203 1.457 . S
C791 C217 1.457 . S
C796 C77 1.393 . S
C807 C175 1.431 . S
C812 C91 1.421 . S
C823 C189 1.458 . S
C828 C105 1.392 . S
C839 C231 1.457 . S
C844 C371 1.393 . S
C855 C385 1.416 . S
C860 C245 1.435 . S
C871 C343 1.422 . S
C876 C259 1.430 . S
C887 C273 1.446 . S
C892 C357 1.405 . S
C903 C287 1.404 . S
C908 C427 1.447 . S
C919 C441 1.395 . S
C924 C301 1.456 . S
C935 C399 1.458 . S
C940 C315 1.393 . S
C951 C329 1.393 . S
C956 C413 1.458 . S
C967 C6 1.547 . S
C972 C62 1.519 . S
C983 C20 1.580 . S
C988 C76 1.579 . S
C999 C90 1.552 . S
C1004 C34 1.519 . S
C1015 C48 1.521 . S
C1020 C104 1.534 . S
C1031 C118 1.522 . S
C1036 C174 1.532 . S
C1047 C188 1.587 . S
C1052 C132 1.556 . S
C1063 C202 1.521 . S
C1068 C146 1.534 . S
C1079 C160 1.519 . S
C1084 C216 1.539 . S
C1095 C230 1.566 . S
C1100 C286 1.586 . S
C1111 C300 1.579 . S
C1116 C244 1.580 . S
C1127 C258 1.586 . S
C1132 C314 1.570 . S
C1143 C328 1.579 . S
C1148 C272 1.580 . S
C1159 C398 1.583 . S
C1164 C342 1.575 . S
C1175 C356 1.522 . S
C1180 C412 1.560 . S
C1191 C370 1.540 . S
C1196 C426 1.519 . S
C1207 C384 1.556 . S
C1212 C440 1.587 . S
C1223 C8 1.391 . S
C1228 C78 1.390 . S
C1239 C22 1.390 . S
C1244 C92 1.389 . S
C1255 C106 1.421 . S
C1260 C36 1.421 . S
C1271 C64 1.419 . S
C1276 C50 1.418 . S
C1287 C190 1.422 . S
C1292 C120 1.422 . S
C1303 C204 1.399 . S
C1308 C134 1.400 . S
C1319 C218 1.404 . S
C1324 C148 1.406 . S
C1335 C162 1.406 . S
C1340 C176 1.408 . S
C1351 C232 1.420 . S
C1356 C302 1.421 . S
C1367 C316 1.419 . S
C1372 C246 1.420 . S
C1383 C330 1.389 . S
C1388 C260 1.389 . S
C1399 C274 1.389 . S
C1404 C288 1.389 . S
C1415 C414 1.411 . S
C1420 C344 1.413 . S
C1431 C358 1.398 . S
C1436 C428 1.400 . S
C1447 C372 1.422 . S
C1452 C442 1.422 . S
C1463 C400 1.389 . S
C1468 C386 1.389 . S
