# Generated by pormake.
# Topology unw, (4)-cn, num edge types: 1
# Building blocks:
#     Node 0, Type 0, BuildingBlock: ICAMEG_clean_sbu_1, # of connection points: 4
#     Node 1, Type 0, BuildingBlock: ICAMEG_clean_sbu_1, # of connection points: 4
#     Node 2, Type 0, BuildingBlock: ICAMEG_clean_sbu_1, # of connection points: 4
#     Node 3, Type 0, BuildingBlock: ICAMEG_clean_sbu_1, # of connection points: 4
#     Node 4, Type 0, BuildingBlock: ICAMEG_clean_sbu_1, # of connection points: 4
#     Node 5, Type 0, BuildingBlock: ICAMEG_clean_sbu_1, # of connection points: 4
#     Node 6, Type 0, BuildingBlock: ICAMEG_clean_sbu_1, # of connection points: 4
#     Node 7, Type 0, BuildingBlock: ICAMEG_clean_sbu_1, # of connection points: 4
#     Node 8, Type 0, BuildingBlock: ICAMEG_clean_sbu_1, # of connection points: 4
#     Node 9, Type 0, BuildingBlock: ICAMEG_clean_sbu_1, # of connection points: 4
#     Node 10, Type 0, BuildingBlock: ICAMEG_clean_sbu_1, # of connection points: 4
#     Node 11, Type 0, BuildingBlock: ICAMEG_clean_sbu_1, # of connection points: 4
#     Node 12, Type 0, BuildingBlock: ICAMEG_clean_sbu_1, # of connection points: 4
#     Node 13, Type 0, BuildingBlock: ICAMEG_clean_sbu_1, # of connection points: 4
#     Node 14, Type 0, BuildingBlock: ICAMEG_clean_sbu_1, # of connection points: 4
#     Node 15, Type 0, BuildingBlock: ICAMEG_clean_sbu_1, # of connection points: 4
#     Node 16, Type 0, BuildingBlock: ICAMEG_clean_sbu_1, # of connection points: 4
#     Node 17, Type 0, BuildingBlock: ICAMEG_clean_sbu_1, # of connection points: 4
#     Node 18, Type 0, BuildingBlock: ICAMEG_clean_sbu_1, # of connection points: 4
#     Node 19, Type 0, BuildingBlock: ICAMEG_clean_sbu_1, # of connection points: 4
#     Node 20, Type 0, BuildingBlock: ICAMEG_clean_sbu_1, # of connection points: 4
#     Node 21, Type 0, BuildingBlock: ICAMEG_clean_sbu_1, # of connection points: 4
#     Node 22, Type 0, BuildingBlock: ICAMEG_clean_sbu_1, # of connection points: 4
#     Node 23, Type 0, BuildingBlock: ICAMEG_clean_sbu_1, # of connection points: 4
#     Edge 24, Type (0, 0), BuildingBlock: ZUJKAS_clean_linker_0, # of connection points: 2
#     Edge 25, Type (0, 0), BuildingBlock: ZUJKAS_clean_linker_0, # of connection points: 2
#     Edge 26, Type (0, 0), BuildingBlock: ZUJKAS_clean_linker_0, # of connection points: 2
#     Edge 27, Type (0, 0), BuildingBlock: ZUJKAS_clean_linker_0, # of connection points: 2
#     Edge 28, Type (0, 0), BuildingBlock: ZUJKAS_clean_linker_0, # of connection points: 2
#     Edge 29, Type (0, 0), BuildingBlock: ZUJKAS_clean_linker_0, # of connection points: 2
#     Edge 30, Type (0, 0), BuildingBlock: ZUJKAS_clean_linker_0, # of connection points: 2
#     Edge 31, Type (0, 0), BuildingBlock: ZUJKAS_clean_linker_0, # of connection points: 2
#     Edge 32, Type (0, 0), BuildingBlock: ZUJKAS_clean_linker_0, # of connection points: 2
#     Edge 33, Type (0, 0), BuildingBlock: ZUJKAS_clean_linker_0, # of connection points: 2
#     Edge 34, Type (0, 0), BuildingBlock: ZUJKAS_clean_linker_0, # of connection points: 2
#     Edge 35, Type (0, 0), BuildingBlock: ZUJKAS_clean_linker_0, # of connection points: 2
#     Edge 36, Type (0, 0), BuildingBlock: ZUJKAS_clean_linker_0, # of connection points: 2
#     Edge 37, Type (0, 0), BuildingBlock: ZUJKAS_clean_linker_0, # of connection points: 2
#     Edge 38, Type (0, 0), BuildingBlock: ZUJKAS_clean_linker_0, # of connection points: 2
#     Edge 39, Type (0, 0), BuildingBlock: ZUJKAS_clean_linker_0, # of connection points: 2
#     Edge 40, Type (0, 0), BuildingBlock: ZUJKAS_clean_linker_0, # of connection points: 2
#     Edge 41, Type (0, 0), BuildingBlock: ZUJKAS_clean_linker_0, # of connection points: 2
#     Edge 42, Type (0, 0), BuildingBlock: ZUJKAS_clean_linker_0, # of connection points: 2
#     Edge 43, Type (0, 0), BuildingBlock: ZUJKAS_clean_linker_0, # of connection points: 2
#     Edge 44, Type (0, 0), BuildingBlock: ZUJKAS_clean_linker_0, # of connection points: 2
#     Edge 45, Type (0, 0), BuildingBlock: ZUJKAS_clean_linker_0, # of connection points: 2
#     Edge 46, Type (0, 0), BuildingBlock: ZUJKAS_clean_linker_0, # of connection points: 2
#     Edge 47, Type (0, 0), BuildingBlock: ZUJKAS_clean_linker_0, # of connection points: 2
#     Edge 48, Type (0, 0), BuildingBlock: ZUJKAS_clean_linker_0, # of connection points: 2
#     Edge 49, Type (0, 0), BuildingBlock: ZUJKAS_clean_linker_0, # of connection points: 2
#     Edge 50, Type (0, 0), BuildingBlock: ZUJKAS_clean_linker_0, # of connection points: 2
#     Edge 51, Type (0, 0), BuildingBlock: ZUJKAS_clean_linker_0, # of connection points: 2
#     Edge 52, Type (0, 0), BuildingBlock: ZUJKAS_clean_linker_0, # of connection points: 2
#     Edge 53, Type (0, 0), BuildingBlock: ZUJKAS_clean_linker_0, # of connection points: 2
#     Edge 54, Type (0, 0), BuildingBlock: ZUJKAS_clean_linker_0, # of connection points: 2
#     Edge 55, Type (0, 0), BuildingBlock: ZUJKAS_clean_linker_0, # of connection points: 2
#     Edge 56, Type (0, 0), BuildingBlock: ZUJKAS_clean_linker_0, # of connection points: 2
#     Edge 57, Type (0, 0), BuildingBlock: ZUJKAS_clean_linker_0, # of connection points: 2
#     Edge 58, Type (0, 0), BuildingBlock: ZUJKAS_clean_linker_0, # of connection points: 2
#     Edge 59, Type (0, 0), BuildingBlock: ZUJKAS_clean_linker_0, # of connection points: 2
#     Edge 60, Type (0, 0), BuildingBlock: ZUJKAS_clean_linker_0, # of connection points: 2
#     Edge 61, Type (0, 0), BuildingBlock: ZUJKAS_clean_linker_0, # of connection points: 2
#     Edge 62, Type (0, 0), BuildingBlock: ZUJKAS_clean_linker_0, # of connection points: 2
#     Edge 63, Type (0, 0), BuildingBlock: ZUJKAS_clean_linker_0, # of connection points: 2
#     Edge 64, Type (0, 0), BuildingBlock: ZUJKAS_clean_linker_0, # of connection points: 2
#     Edge 65, Type (0, 0), BuildingBlock: ZUJKAS_clean_linker_0, # of connection points: 2
#     Edge 66, Type (0, 0), BuildingBlock: ZUJKAS_clean_linker_0, # of connection points: 2
#     Edge 67, Type (0, 0), BuildingBlock: ZUJKAS_clean_linker_0, # of connection points: 2
#     Edge 68, Type (0, 0), BuildingBlock: ZUJKAS_clean_linker_0, # of connection points: 2
#     Edge 69, Type (0, 0), BuildingBlock: ZUJKAS_clean_linker_0, # of connection points: 2
#     Edge 70, Type (0, 0), BuildingBlock: ZUJKAS_clean_linker_0, # of connection points: 2
#     Edge 71, Type (0, 0), BuildingBlock: ZUJKAS_clean_linker_0, # of connection points: 2
# Relax obj value: 0.244
# Max RMSD: 0.172
# Mean RMSD: 0.172
data_MOF--net-unw--node1-ICAMEG_clean_sbu_1--edge1-ZUJKAS_clean_linker_0
_symmetry_space_group_name_H-M    P1
_symmetry_Int_Tables_number       1
_symmetry_cell_setting            triclinic
loop_
_symmetry_equiv_pos_as_xyz
'x, y, z'
_cell_length_a     66.147177
_cell_length_b     66.164092
_cell_length_c     66.168009
_cell_angle_alpha  89.990577
_cell_angle_beta   90.010384
_cell_angle_gamma 90.018481
loop_
_atom_site_label
_atom_site_type_symbol
_atom_site_fract_x
_atom_site_fract_y
_atom_site_fract_z
_atom_type_partial_charge
Co0 Co 0.14602 0.38343 0.26228 0.0
Co1 Co 0.11549 0.34991 0.23626 0.0
O2 O 0.1207 0.37583 0.24921 0.0
C3 C 0.1405 0.41204 0.22913 0.0
O4 O 0.13481 0.39632 0.21849 0.0
C5 C 0.08571 0.35307 0.26875 0.0
O6 O 0.10053 0.36022 0.27981 0.0
O7 O 0.12768 0.33506 0.25924 0.0
O8 O 0.14751 0.35677 0.2765 0.0
H9 H 0.13277 0.27983 0.21266 0.0
H10 H 0.11075 0.41096 0.26494 0.0
O11 O 0.14528 0.40993 0.24768 0.0
H12 H 0.12714 0.39283 0.33535 0.0
H13 H 0.19285 0.43218 0.29717 0.0
H14 H 0.18512 0.36305 0.27044 0.0
H15 H 0.14754 0.37953 0.30712 0.0
H16 H 0.16089 0.42148 0.28116 0.0
O17 O 0.08875 0.3485 0.25029 0.0
H18 H 0.13954 0.31288 0.22855 0.0
H19 H 0.07918 0.33145 0.21705 0.0
H20 H 0.21728 0.37303 0.28646 0.0
H21 H 0.09005 0.42475 0.29272 0.0
H22 H 0.22129 0.40784 0.29997 0.0
H23 H 0.09818 0.41563 0.32822 0.0
O24 O 0.16221 0.37206 0.23982 0.0
H25 H 0.07021 0.40187 0.20439 0.0
H26 H 0.12027 0.34818 0.19149 0.0
H27 H 0.10582 0.36709 0.16278 0.0
H28 H 0.0806 0.39415 0.16916 0.0
H29 H 0.08517 0.38269 0.23266 0.0
H30 H 0.07169 0.29855 0.20117 0.0
H31 H 0.09863 0.2725 0.19883 0.0
O32 O 0.14239 0.3506 0.22245 0.0
C33 C 0.1398 0.33932 0.27359 0.0
C34 C 0.12093 0.29109 0.21351 0.0
C35 C 0.08664 0.30158 0.20708 0.0
N36 N 0.10983 0.32414 0.22352 0.0
C37 C 0.1247 0.30985 0.22242 0.0
C38 C 0.09096 0.32017 0.21611 0.0
C39 C 0.10177 0.28698 0.20577 0.0
C40 C 0.11449 0.4071 0.28036 0.0
N41 N 0.13038 0.39455 0.28442 0.0
C42 C 0.10267 0.41487 0.29602 0.0
C43 C 0.10722 0.40973 0.31594 0.0
C44 C 0.12346 0.39692 0.31995 0.0
C45 C 0.13493 0.38941 0.3039 0.0
C46 C 0.19126 0.41695 0.29142 0.0
C47 C 0.18668 0.37814 0.27648 0.0
C48 C 0.17321 0.41081 0.28234 0.0
N49 N 0.17106 0.39157 0.27516 0.0
C50 C 0.20496 0.38374 0.28545 0.0
C51 C 0.20721 0.40328 0.29299 0.0
C52 C 0.15925 0.35947 0.22556 0.0
C53 C 0.08115 0.39008 0.20142 0.0
C54 C 0.10931 0.35995 0.19438 0.0
C55 C 0.10116 0.37058 0.17806 0.0
C56 C 0.087 0.38576 0.18165 0.0
N57 N 0.10348 0.36428 0.21371 0.0
C58 C 0.08959 0.37911 0.21736 0.0
Co59 Co 0.61442 0.14589 0.25549 0.0
Co60 Co 0.6469 0.11341 0.23059 0.0
O61 O 0.62096 0.1201 0.24291 0.0
C62 C 0.58608 0.14158 0.22185 0.0
O63 O 0.60151 0.13464 0.21153 0.0
C64 C 0.64171 0.08512 0.26413 0.0
O65 O 0.63487 0.10067 0.27431 0.0
O66 O 0.66207 0.12594 0.25317 0.0
O67 O 0.64075 0.14606 0.27034 0.0
H68 H 0.71811 0.12661 0.20763 0.0
H69 H 0.58504 0.11215 0.25805 0.0
O70 O 0.58822 0.1464 0.24039 0.0
H71 H 0.60237 0.12874 0.32862 0.0
H72 H 0.56772 0.19601 0.28853 0.0
H73 H 0.63705 0.18362 0.2641 0.0
H74 H 0.61734 0.14798 0.3004 0.0
H75 H 0.5768 0.16331 0.27306 0.0
O76 O 0.64701 0.08719 0.24572 0.0
H77 H 0.6852 0.13541 0.22279 0.0
H78 H 0.66389 0.0757 0.21289 0.0
H79 H 0.62868 0.21647 0.27961 0.0
H80 H 0.56957 0.09262 0.28582 0.0
H81 H 0.59379 0.22283 0.29195 0.0
H82 H 0.57829 0.10085 0.32139 0.0
O83 O 0.62699 0.16106 0.2329 0.0
H84 H 0.59352 0.069 0.19978 0.0
H85 H 0.64927 0.11648 0.18573 0.0
H86 H 0.63013 0.10172 0.15733 0.0
H87 H 0.60205 0.07778 0.16428 0.0
H88 H 0.61295 0.08427 0.22772 0.0
H89 H 0.69663 0.06616 0.19778 0.0
H90 H 0.72398 0.09175 0.195 0.0
O91 O 0.6475 0.13981 0.21588 0.0
C92 C 0.65813 0.13818 0.2675 0.0
C93 C 0.70627 0.11536 0.20865 0.0
C94 C 0.69423 0.08142 0.20315 0.0
N95 N 0.67256 0.10618 0.21843 0.0
C96 C 0.68758 0.12029 0.21712 0.0
C97 C 0.67573 0.0869 0.21172 0.0
C98 C 0.70957 0.09579 0.20159 0.0
C99 C 0.58874 0.11594 0.27351 0.0
N100 N 0.60199 0.13124 0.27761 0.0
C101 C 0.58001 0.10478 0.28916 0.0
C102 C 0.58492 0.10938 0.30912 0.0
C103 C 0.59844 0.12503 0.31318 0.0
C104 C 0.60689 0.13584 0.29714 0.0
C105 C 0.58299 0.1934 0.28326 0.0
C106 C 0.62188 0.18623 0.26957 0.0
C107 C 0.58821 0.17494 0.27446 0.0
N108 N 0.60748 0.17151 0.26787 0.0
C109 C 0.61721 0.20488 0.27828 0.0
C110 C 0.59763 0.20844 0.28518 0.0
C111 C 0.63933 0.15707 0.21866 0.0
C112 C 0.60577 0.07937 0.19655 0.0
C113 C 0.63705 0.1061 0.18886 0.0
C114 C 0.62629 0.09776 0.17273 0.0
C115 C 0.61054 0.08432 0.17664 0.0
N116 N 0.63229 0.10115 0.20834 0.0
C117 C 0.61687 0.08799 0.21231 0.0
Co118 Co 0.87578 0.64558 0.23553 0.0
Co119 Co 0.8464 0.6115 0.26211 0.0
O120 O 0.87136 0.61963 0.24868 0.0
C121 C 0.90578 0.64362 0.26789 0.0
O122 O 0.89126 0.63596 0.279 0.0
C123 C 0.852 0.58286 0.22901 0.0
O124 O 0.85643 0.59871 0.21796 0.0
O125 O 0.82957 0.62239 0.23979 0.0
O126 O 0.84885 0.64397 0.22196 0.0
H127 H 0.7753 0.62023 0.28741 0.0
H128 H 0.90694 0.6136 0.23202 0.0
O129 O 0.90255 0.64791 0.24938 0.0
H130 H 0.88556 0.6282 0.16212 0.0
H131 H 0.91783 0.69792 0.19976 0.0
H132 H 0.85057 0.68178 0.22757 0.0
H133 H 0.87069 0.64685 0.19078 0.0
H134 H 0.91143 0.66495 0.21598 0.0
O135 O 0.8478 0.58494 0.2477 0.0
H136 H 0.80695 0.63096 0.27086 0.0
H137 H 0.83275 0.57313 0.28126 0.0
H138 H 0.85626 0.71486 0.21133 0.0
H139 H 0.92234 0.5947 0.2038 0.0
H140 H 0.8901 0.72311 0.19729 0.0
H141 H 0.9116 0.60193 0.16856 0.0
O142 O 0.86336 0.66028 0.25847 0.0
H143 H 0.90383 0.57186 0.29213 0.0
H144 H 0.84533 0.61561 0.30694 0.0
H145 H 0.86641 0.60303 0.33501 0.0
H146 H 0.89589 0.58097 0.32767 0.0
H147 H 0.88245 0.58493 0.26452 0.0
H148 H 0.80132 0.56169 0.29779 0.0
H149 H 0.77235 0.58535 0.30102 0.0
O150 O 0.84439 0.63817 0.2762 0.0
C151 C 0.83216 0.63489 0.22535 0.0
C152 C 0.78786 0.60981 0.2862 0.0
C153 C 0.80245 0.57695 0.29199 0.0
N154 N 0.82176 0.60278 0.27536 0.0
C155 C 0.80584 0.61584 0.27693 0.0
C156 C 0.82019 0.5835 0.28261 0.0
C157 C 0.7862 0.59023 0.2938 0.0
C158 C 0.90234 0.61695 0.21671 0.0
N159 N 0.88803 0.63137 0.21303 0.0
C160 C 0.91105 0.60615 0.2008 0.0
C161 C 0.90499 0.6102 0.18103 0.0
C162 C 0.89038 0.62493 0.17741 0.0
C163 C 0.88199 0.63541 0.19369 0.0
C164 C 0.90301 0.69449 0.20577 0.0
C165 C 0.86529 0.6852 0.22136 0.0
C166 C 0.89931 0.67586 0.215 0.0
N167 N 0.8806 0.67139 0.22253 0.0
C168 C 0.86844 0.70398 0.21224 0.0
C169 C 0.88744 0.70861 0.20439 0.0
C170 C 0.85157 0.65579 0.27302 0.0
C171 C 0.89099 0.58141 0.29552 0.0
C172 C 0.85815 0.60605 0.30363 0.0
C173 C 0.87002 0.59894 0.31959 0.0
C174 C 0.88655 0.58656 0.31546 0.0
N175 N 0.8626 0.60092 0.28413 0.0
C176 C 0.87878 0.58878 0.27996 0.0
Co177 Co 0.34853 0.8764 0.23918 0.0
Co178 Co 0.3832 0.84616 0.26399 0.0
O179 O 0.37486 0.87149 0.25142 0.0
C180 C 0.35204 0.90561 0.27215 0.0
O181 O 0.35979 0.89074 0.28271 0.0
C182 C 0.41087 0.85262 0.23017 0.0
O183 O 0.39487 0.85843 0.22001 0.0
O184 O 0.37142 0.83005 0.24167 0.0
O185 O 0.34947 0.84979 0.22485 0.0
H186 H 0.37434 0.77462 0.28792 0.0
H187 H 0.38061 0.90746 0.23539 0.0
O188 O 0.34695 0.90282 0.25377 0.0
H189 H 0.36368 0.88783 0.16551 0.0
H190 H 0.29548 0.91976 0.20615 0.0
H191 H 0.31185 0.85169 0.23174 0.0
H192 H 0.34581 0.87242 0.19438 0.0
H193 H 0.32887 0.91269 0.2212 0.0
O194 O 0.40923 0.84743 0.24865 0.0
H195 H 0.36347 0.80681 0.27256 0.0
H196 H 0.42203 0.83157 0.28146 0.0
H197 H 0.27834 0.85805 0.21664 0.0
H198 H 0.39875 0.92339 0.20696 0.0
H199 H 0.26998 0.8923 0.20372 0.0
H200 H 0.39035 0.91353 0.17173 0.0
O201 O 0.33445 0.86353 0.2623 0.0
H202 H 0.42455 0.90247 0.2938 0.0
H203 H 0.38071 0.84409 0.30891 0.0
H204 H 0.39453 0.86442 0.33696 0.0
H205 H 0.41664 0.89383 0.32946 0.0
H206 H 0.41026 0.88183 0.26622 0.0
H207 H 0.43361 0.7996 0.29677 0.0
H208 H 0.40965 0.77087 0.30015 0.0
O209 O 0.35702 0.84418 0.27898 0.0
C210 C 0.35862 0.83302 0.2276 0.0
C211 C 0.38489 0.78706 0.28663 0.0
C212 C 0.41816 0.80107 0.29157 0.0
N213 N 0.39202 0.82112 0.27637 0.0
C214 C 0.37879 0.80535 0.27803 0.0
C215 C 0.41153 0.81913 0.28288 0.0
C216 C 0.40471 0.78496 0.29346 0.0
C217 C 0.37674 0.90325 0.22009 0.0
N218 N 0.36211 0.88911 0.21654 0.0
C219 C 0.38712 0.91225 0.20406 0.0
C220 C 0.38242 0.90669 0.18429 0.0
C221 C 0.36746 0.89227 0.1808 0.0
C222 C 0.35742 0.88356 0.1972 0.0
C223 C 0.29896 0.90477 0.21168 0.0
C224 C 0.30837 0.86659 0.226 0.0
C225 C 0.31783 0.90068 0.22024 0.0
N226 N 0.32235 0.88175 0.22715 0.0
C227 C 0.28935 0.87012 0.21754 0.0
C228 C 0.28466 0.88935 0.21031 0.0
C229 C 0.33935 0.8515 0.27651 0.0
C230 C 0.41499 0.88965 0.29726 0.0
C231 C 0.39029 0.85689 0.30554 0.0
C232 C 0.3981 0.86832 0.32148 0.0
C233 C 0.41052 0.88481 0.31726 0.0
N234 N 0.39477 0.86172 0.28596 0.0
C235 C 0.40693 0.87786 0.28171 0.0
Co236 Co 0.11599 0.64559 0.75889 0.0
Co237 Co 0.14655 0.61195 0.73311 0.0
O238 O 0.12112 0.6197 0.74584 0.0
C239 C 0.08691 0.64279 0.72577 0.0
O240 O 0.10197 0.63571 0.71501 0.0
C241 C 0.1402 0.58299 0.76585 0.0
O242 O 0.13415 0.59854 0.77654 0.0
O243 O 0.16242 0.62288 0.756 0.0
O244 O 0.14259 0.64441 0.77326 0.0
H245 H 0.21836 0.6218 0.71038 0.0
H246 H 0.08517 0.61315 0.7616 0.0
O247 O 0.08957 0.64738 0.7443 0.0
H248 H 0.10449 0.62806 0.83202 0.0
H249 H 0.07208 0.69724 0.79336 0.0
H250 H 0.14035 0.68224 0.76746 0.0
H251 H 0.11985 0.64693 0.80376 0.0
H252 H 0.0795 0.66436 0.77741 0.0
O253 O 0.1453 0.58534 0.74741 0.0
H254 H 0.18601 0.63198 0.72588 0.0
H255 H 0.16131 0.57394 0.71409 0.0
H256 H 0.13366 0.71525 0.78344 0.0
H257 H 0.06929 0.59405 0.78941 0.0
H258 H 0.09931 0.72292 0.79652 0.0
H259 H 0.079 0.60142 0.82492 0.0
O260 O 0.12882 0.66051 0.7363 0.0
H261 H 0.09059 0.57162 0.70132 0.0
H262 H 0.14889 0.61624 0.68834 0.0
H263 H 0.12878 0.60348 0.65963 0.0
H264 H 0.0994 0.58099 0.66605 0.0
H265 H 0.11101 0.58487 0.72958 0.0
H266 H 0.19344 0.56304 0.6986 0.0
H267 H 0.22222 0.58709 0.69661 0.0
O268 O 0.14861 0.6387 0.71917 0.0
C269 C 0.15935 0.63527 0.7704 0.0
C270 C 0.2059 0.61122 0.71105 0.0
C271 C 0.19192 0.57823 0.70447 0.0
N272 N 0.17172 0.60367 0.7206 0.0
C273 C 0.18752 0.61694 0.71972 0.0
C274 C 0.17377 0.58448 0.71326 0.0
C275 C 0.20806 0.59173 0.70336 0.0
C276 C 0.08931 0.61658 0.77702 0.0
N277 N 0.10333 0.6312 0.78106 0.0
C278 C 0.08034 0.60566 0.7927 0.0
C279 C 0.08582 0.60978 0.81262 0.0
C280 C 0.10013 0.62472 0.81662 0.0
C281 C 0.1088 0.63532 0.80055 0.0
C282 C 0.08713 0.69406 0.78778 0.0
C283 C 0.12541 0.68541 0.77327 0.0
C284 C 0.0914 0.67548 0.77871 0.0
N285 N 0.11039 0.67133 0.77172 0.0
C286 C 0.12169 0.70415 0.78223 0.0
C287 C 0.10241 0.70846 0.78955 0.0
C288 C 0.14111 0.65623 0.72213 0.0
C289 C 0.10339 0.58136 0.69833 0.0
C290 C 0.13611 0.60648 0.69124 0.0
C291 C 0.1248 0.59928 0.67493 0.0
C292 C 0.10833 0.58665 0.67854 0.0
N293 N 0.13117 0.60121 0.71059 0.0
C294 C 0.11506 0.58883 0.71426 0.0
Co295 Co 0.37714 0.14771 0.73504 0.0
Co296 Co 0.34526 0.1128 0.75738 0.0
O297 O 0.37112 0.12092 0.74576 0.0
C298 C 0.40619 0.14149 0.76776 0.0
O299 O 0.39098 0.13396 0.77802 0.0
C300 C 0.35156 0.08599 0.72287 0.0
O301 O 0.35756 0.10221 0.71319 0.0
O302 O 0.33014 0.12538 0.73481 0.0
O303 O 0.35047 0.14882 0.72077 0.0
H304 H 0.27329 0.12262 0.77959 0.0
H305 H 0.4068 0.11464 0.7293 0.0
O306 O 0.40364 0.14733 0.74958 0.0
H307 H 0.38769 0.13626 0.66058 0.0
H308 H 0.42274 0.20057 0.7048 0.0
H309 H 0.35421 0.18592 0.73025 0.0
H310 H 0.37316 0.15313 0.69048 0.0
H311 H 0.41417 0.16669 0.71784 0.0
O312 O 0.34645 0.08714 0.74142 0.0
H313 H 0.3061 0.13313 0.76531 0.0
H314 H 0.32933 0.07386 0.77339 0.0
H315 H 0.36205 0.21996 0.71718 0.0
H316 H 0.42184 0.09747 0.69982 0.0
H317 H 0.39654 0.22746 0.70434 0.0
H318 H 0.41223 0.10822 0.66516 0.0
O319 O 0.36493 0.1609 0.75895 0.0
H320 H 0.39967 0.06942 0.78779 0.0
H321 H 0.3419 0.11423 0.80229 0.0
H322 H 0.36105 0.09923 0.83056 0.0
H323 H 0.39015 0.07663 0.82337 0.0
H324 H 0.38022 0.0849 0.75998 0.0
H325 H 0.29671 0.06263 0.7876 0.0
H326 H 0.26844 0.08713 0.79085 0.0
O327 O 0.34335 0.13862 0.77306 0.0
C328 C 0.33373 0.13931 0.72204 0.0
C329 C 0.28552 0.11183 0.77834 0.0
C330 C 0.29866 0.07815 0.78281 0.0
N331 N 0.31967 0.10419 0.76877 0.0
C332 C 0.30416 0.11772 0.77035 0.0
C333 C 0.31708 0.08459 0.77474 0.0
C334 C 0.28281 0.0919 0.78463 0.0
C335 C 0.40271 0.11954 0.71426 0.0
N336 N 0.3892 0.13492 0.7116 0.0
C337 C 0.41121 0.1097 0.69763 0.0
C338 C 0.40578 0.11572 0.67819 0.0
C339 C 0.392 0.13145 0.6756 0.0
C340 C 0.3838 0.14091 0.69259 0.0
C341 C 0.40764 0.19747 0.71029 0.0
C342 C 0.36919 0.18902 0.7245 0.0
C343 C 0.40271 0.17833 0.7177 0.0
N344 N 0.38364 0.17428 0.72454 0.0
C345 C 0.37357 0.20835 0.71721 0.0
C346 C 0.39293 0.21255 0.71003 0.0
C347 C 0.35189 0.1559 0.77218 0.0
C348 C 0.38699 0.0792 0.79111 0.0
C349 C 0.35458 0.10445 0.79905 0.0
C350 C 0.36533 0.09596 0.81512 0.0
C351 C 0.38166 0.08328 0.81107 0.0
N352 N 0.3599 0.10036 0.77952 0.0
C353 C 0.37587 0.08793 0.77543 0.0
Co354 Co 0.8485 0.37913 0.73436 0.0
Co355 Co 0.88115 0.34784 0.76051 0.0
O356 O 0.8741 0.37341 0.74772 0.0
C357 C 0.85141 0.40852 0.76719 0.0
O358 O 0.85703 0.39333 0.77862 0.0
C359 C 0.91047 0.35359 0.72805 0.0
O360 O 0.89505 0.35973 0.71723 0.0
O361 O 0.87007 0.33214 0.73756 0.0
O362 O 0.84889 0.35236 0.72034 0.0
H363 H 0.86941 0.27635 0.78336 0.0
H364 H 0.88193 0.40888 0.73147 0.0
O365 O 0.84757 0.40577 0.74852 0.0
H366 H 0.86692 0.38903 0.66122 0.0
H367 H 0.79856 0.42418 0.69884 0.0
H368 H 0.81114 0.35584 0.72582 0.0
H369 H 0.84734 0.37472 0.68954 0.0
H370 H 0.83104 0.41595 0.71524 0.0
O371 O 0.90794 0.34849 0.74646 0.0
H372 H 0.86013 0.30887 0.76765 0.0
H373 H 0.91865 0.33223 0.7799 0.0
H374 H 0.77851 0.36336 0.70939 0.0
H375 H 0.90176 0.42371 0.70359 0.0
H376 H 0.77206 0.39775 0.69577 0.0
H377 H 0.89434 0.41373 0.66817 0.0
O378 O 0.83304 0.36698 0.75703 0.0
H379 H 0.92249 0.40284 0.79267 0.0
H380 H 0.87637 0.34562 0.80523 0.0
H381 H 0.8894 0.36537 0.83406 0.0
H382 H 0.91266 0.39419 0.82785 0.0
H383 H 0.90896 0.38279 0.76428 0.0
H384 H 0.92865 0.29991 0.7956 0.0
H385 H 0.9039 0.27172 0.79748 0.0
O386 O 0.85421 0.34645 0.77415 0.0
C387 C 0.85765 0.33542 0.72322 0.0
C388 C 0.88029 0.28856 0.78275 0.0
C389 C 0.91355 0.30177 0.78959 0.0
N390 N 0.88873 0.32251 0.77315 0.0
C391 C 0.87509 0.30703 0.77396 0.0
C392 C 0.90781 0.32003 0.78068 0.0
C393 C 0.89966 0.28596 0.79064 0.0
C394 C 0.87848 0.40463 0.71608 0.0
N395 N 0.86344 0.39103 0.71213 0.0
C396 C 0.88981 0.41301 0.70037 0.0
C397 C 0.88566 0.40738 0.6805 0.0
C398 C 0.87028 0.39351 0.67659 0.0
C399 C 0.85928 0.38543 0.69268 0.0
C400 C 0.80121 0.40913 0.70467 0.0
C401 C 0.80849 0.37079 0.71978 0.0
C402 C 0.81956 0.40439 0.71399 0.0
N403 N 0.82304 0.38538 0.72127 0.0
C404 C 0.78997 0.37498 0.71056 0.0
C405 C 0.78635 0.39429 0.70294 0.0
C406 C 0.83691 0.35447 0.77118 0.0
C407 C 0.91241 0.39028 0.79557 0.0
C408 C 0.88645 0.35817 0.80242 0.0
C409 C 0.89381 0.36927 0.8188 0.0
C410 C 0.90687 0.38543 0.81531 0.0
N411 N 0.892 0.36299 0.78312 0.0
C412 C 0.90477 0.37883 0.77957 0.0
Co413 Co 0.64623 0.87438 0.76016 0.0
Co414 Co 0.61444 0.84425 0.73183 0.0
O415 O 0.62158 0.86981 0.74467 0.0
C416 C 0.64925 0.9012 0.72513 0.0
O417 O 0.64173 0.88621 0.71459 0.0
C418 C 0.58347 0.85134 0.76265 0.0
O419 O 0.59815 0.85848 0.77387 0.0
O420 O 0.62419 0.82836 0.75541 0.0
O421 O 0.64168 0.84907 0.77588 0.0
H422 H 0.6263 0.77275 0.70917 0.0
H423 H 0.61583 0.90716 0.75707 0.0
O424 O 0.65147 0.89956 0.74419 0.0
H425 H 0.62151 0.89216 0.82987 0.0
H426 H 0.69654 0.91752 0.79753 0.0
H427 H 0.67994 0.84857 0.77461 0.0
H428 H 0.64231 0.8737 0.80503 0.0
H429 H 0.66527 0.91095 0.77828 0.0
O430 O 0.58706 0.84538 0.74468 0.0
H431 H 0.63538 0.80516 0.7252 0.0
H432 H 0.57741 0.82898 0.71125 0.0
H433 H 0.71128 0.85443 0.79395 0.0
H434 H 0.59487 0.92612 0.7814 0.0
H435 H 0.71975 0.88912 0.80555 0.0
H436 H 0.5976 0.91859 0.81808 0.0
O437 O 0.6628 0.85902 0.74034 0.0
H438 H 0.57563 0.89986 0.69767 0.0
H439 H 0.62092 0.84158 0.68734 0.0
H440 H 0.60946 0.86136 0.65788 0.0
H441 H 0.58662 0.89071 0.66296 0.0
H442 H 0.5876 0.87975 0.72672 0.0
H443 H 0.56763 0.79676 0.69521 0.0
H444 H 0.5922 0.76839 0.69404 0.0
O445 O 0.64182 0.84246 0.71935 0.0
C446 C 0.63389 0.83194 0.77168 0.0
C447 C 0.61549 0.78502 0.70952 0.0
C448 C 0.58255 0.79849 0.70171 0.0
N449 N 0.607 0.81899 0.71898 0.0
C450 C 0.62057 0.80343 0.71851 0.0
C451 C 0.58816 0.81668 0.71084 0.0
C452 C 0.59635 0.78258 0.70105 0.0
C453 C 0.61724 0.90395 0.77303 0.0
N454 N 0.63034 0.88943 0.77964 0.0
C455 C 0.60527 0.91467 0.78672 0.0
C456 C 0.60679 0.91042 0.8073 0.0
C457 C 0.6202 0.89558 0.81392 0.0
C458 C 0.63191 0.88516 0.79979 0.0
C459 C 0.69299 0.90233 0.79261 0.0
C460 C 0.68345 0.86368 0.77974 0.0
C461 C 0.67532 0.89853 0.78168 0.0
N462 N 0.6707 0.87936 0.77551 0.0
C463 C 0.70125 0.86692 0.79062 0.0
C464 C 0.706 0.88639 0.79711 0.0
C465 C 0.65947 0.84792 0.72495 0.0
C466 C 0.58553 0.88706 0.69526 0.0
C467 C 0.61101 0.85436 0.68967 0.0
C468 C 0.60455 0.86548 0.67293 0.0
C469 C 0.59173 0.88194 0.67579 0.0
N470 N 0.60483 0.85945 0.7087 0.0
C471 C 0.59229 0.87558 0.71164 0.0
Co472 Co 0.25842 0.14595 0.37689 0.0
Co473 Co 0.23286 0.11308 0.34529 0.0
O474 O 0.24526 0.12026 0.37104 0.0
C475 C 0.22492 0.14265 0.40546 0.0
O476 O 0.21432 0.13604 0.39007 0.0
C477 C 0.26513 0.08368 0.35189 0.0
O478 O 0.27597 0.0991 0.35802 0.0
O479 O 0.25614 0.12403 0.33001 0.0
O480 O 0.27311 0.14527 0.35042 0.0
H481 H 0.21126 0.12449 0.27338 0.0
H482 H 0.26058 0.11281 0.40699 0.0
O483 O 0.2435 0.14722 0.40317 0.0
H484 H 0.33133 0.12768 0.38876 0.0
H485 H 0.29274 0.1964 0.4223 0.0
H486 H 0.26752 0.18305 0.35344 0.0
H487 H 0.30335 0.14711 0.37357 0.0
H488 H 0.27662 0.1638 0.41399 0.0
O489 O 0.24684 0.08628 0.3464 0.0
H490 H 0.22636 0.13393 0.30614 0.0
H491 H 0.21376 0.0755 0.32951 0.0
H492 H 0.28369 0.21579 0.36104 0.0
H493 H 0.2881 0.09313 0.42267 0.0
H494 H 0.29643 0.22263 0.39569 0.0
H495 H 0.32377 0.10048 0.41351 0.0
O496 O 0.23605 0.16126 0.36415 0.0
H497 H 0.19965 0.07226 0.40005 0.0
H498 H 0.18817 0.11787 0.34222 0.0
H499 H 0.15898 0.10514 0.36163 0.0
H500 H 0.16464 0.08216 0.39077 0.0
H501 H 0.22841 0.08548 0.38033 0.0
H502 H 0.19866 0.06535 0.29695 0.0
H503 H 0.19727 0.08996 0.26863 0.0
O504 O 0.21923 0.14001 0.34348 0.0
C505 C 0.27052 0.13636 0.33349 0.0
C506 C 0.21168 0.11366 0.28563 0.0
C507 C 0.20463 0.08046 0.29885 0.0
N508 N 0.22068 0.10537 0.31978 0.0
C509 C 0.22012 0.11896 0.30424 0.0
C510 C 0.21321 0.08628 0.31724 0.0
C511 C 0.20386 0.09428 0.28297 0.0
C512 C 0.27608 0.11623 0.4031 0.0
N513 N 0.28037 0.13115 0.38947 0.0
C514 C 0.29159 0.10498 0.41195 0.0
C515 C 0.3116 0.1091 0.40678 0.0
C516 C 0.31585 0.12435 0.39288 0.0
C517 C 0.29995 0.13527 0.38431 0.0
C518 C 0.28731 0.19358 0.40714 0.0
C519 C 0.27318 0.18587 0.36851 0.0
C520 C 0.27814 0.17517 0.40235 0.0
N521 N 0.27134 0.17147 0.3832 0.0
C522 C 0.28225 0.20445 0.37274 0.0
C523 C 0.28937 0.20829 0.39219 0.0
C524 C 0.22209 0.15732 0.35149 0.0
C525 C 0.19699 0.08222 0.38735 0.0
C526 C 0.19074 0.10789 0.3549 0.0
C527 C 0.17416 0.10071 0.36581 0.0
C528 C 0.17735 0.0878 0.38215 0.0
N529 N 0.20996 0.10233 0.36008 0.0
C530 C 0.2132 0.08967 0.37607 0.0
Co531 Co 0.87643 0.23555 0.3473 0.0
Co532 Co 0.84648 0.26211 0.38088 0.0
O533 O 0.87141 0.2483 0.37336 0.0
C534 C 0.90671 0.26752 0.35106 0.0
O535 O 0.89203 0.2786 0.35845 0.0
C536 C 0.84983 0.22814 0.40885 0.0
O537 O 0.8556 0.21757 0.39311 0.0
O538 O 0.82969 0.24042 0.36886 0.0
O539 O 0.84929 0.22218 0.34793 0.0
H540 H 0.77609 0.28863 0.37023 0.0
H541 H 0.90667 0.23119 0.38008 0.0
O542 O 0.90341 0.24921 0.34603 0.0
H543 H 0.88511 0.16176 0.36361 0.0
H544 H 0.91969 0.20037 0.29559 0.0
H545 H 0.8522 0.22842 0.31026 0.0
H546 H 0.87095 0.19089 0.34513 0.0
H547 H 0.91246 0.21606 0.32864 0.0
O548 O 0.8463 0.247 0.40709 0.0
H549 H 0.8078 0.27171 0.36031 0.0
H550 H 0.8319 0.28095 0.41905 0.0
H551 H 0.85872 0.21273 0.27707 0.0
H552 H 0.92136 0.20248 0.39882 0.0
H553 H 0.89268 0.19857 0.26957 0.0
H554 H 0.91053 0.16747 0.39064 0.0
O555 O 0.86462 0.25884 0.33259 0.0
H556 H 0.90295 0.28977 0.42349 0.0
H557 H 0.84664 0.30705 0.37779 0.0
H558 H 0.8679 0.33428 0.39184 0.0
H559 H 0.89628 0.32569 0.41488 0.0
H560 H 0.88141 0.263 0.40895 0.0
H561 H 0.80039 0.29782 0.4297 0.0
H562 H 0.77224 0.30183 0.40516 0.0
O563 O 0.84576 0.27687 0.35449 0.0
C564 C 0.83238 0.22593 0.35647 0.0
C565 C 0.7883 0.28711 0.38102 0.0
C566 C 0.80192 0.29224 0.4144 0.0
N567 N 0.8218 0.27569 0.38897 0.0
C568 C 0.80632 0.27765 0.37544 0.0
C569 C 0.81972 0.28268 0.40829 0.0
C570 C 0.78614 0.29448 0.40063 0.0
C571 C 0.90204 0.21598 0.37632 0.0
N572 N 0.88807 0.2127 0.36147 0.0
C573 C 0.91034 0.19979 0.38703 0.0
C574 C 0.90423 0.18016 0.38246 0.0
C575 C 0.88996 0.17694 0.3673 0.0
C576 C 0.88197 0.19349 0.35691 0.0
C577 C 0.90482 0.20644 0.2987 0.0
C578 C 0.86697 0.22215 0.30715 0.0
C579 C 0.90065 0.21536 0.31737 0.0
N580 N 0.88187 0.22295 0.32142 0.0
C581 C 0.87059 0.21334 0.28831 0.0
C582 C 0.88965 0.20543 0.28411 0.0
C583 C 0.85315 0.27366 0.33696 0.0
C584 C 0.89059 0.2937 0.41351 0.0
C585 C 0.85898 0.3032 0.38778 0.0
C586 C 0.87095 0.31868 0.39571 0.0
C587 C 0.88686 0.31385 0.40865 0.0
N588 N 0.86274 0.28348 0.39263 0.0
C589 C 0.8783 0.27862 0.40531 0.0
Co590 Co 0.73491 0.84908 0.37928 0.0
Co591 Co 0.75897 0.88139 0.34597 0.0
O592 O 0.74754 0.87477 0.37232 0.0
C593 C 0.76944 0.85311 0.40654 0.0
O594 O 0.77938 0.85965 0.39068 0.0
C595 C 0.72655 0.91065 0.35261 0.0
O596 O 0.71607 0.89538 0.35967 0.0
O597 O 0.73533 0.86977 0.33178 0.0
O598 O 0.71933 0.84888 0.35333 0.0
H599 H 0.77819 0.86832 0.27368 0.0
H600 H 0.73344 0.88289 0.40863 0.0
O601 O 0.75076 0.84857 0.40504 0.0
H602 H 0.66227 0.86691 0.3932 0.0
H603 H 0.70267 0.7995 0.42712 0.0
H604 H 0.72567 0.81119 0.35719 0.0
H605 H 0.68991 0.84741 0.37752 0.0
H606 H 0.71808 0.83205 0.4174 0.0
O607 O 0.74472 0.90804 0.34676 0.0
H608 H 0.76428 0.85961 0.30716 0.0
H609 H 0.77717 0.91872 0.32857 0.0
H610 H 0.71019 0.77847 0.36619 0.0
H611 H 0.70627 0.90266 0.42479 0.0
H612 H 0.69857 0.77247 0.40138 0.0
H613 H 0.67039 0.89475 0.41703 0.0
O614 O 0.75699 0.83368 0.36615 0.0
H615 H 0.79349 0.92421 0.39835 0.0
H616 H 0.8036 0.87701 0.34157 0.0
H617 H 0.83327 0.89068 0.35958 0.0
H618 H 0.82829 0.91448 0.38818 0.0
H619 H 0.76425 0.91003 0.38003 0.0
H620 H 0.79108 0.92814 0.29528 0.0
H621 H 0.79172 0.90281 0.26758 0.0
O622 O 0.77287 0.85459 0.34442 0.0
C623 C 0.72125 0.85735 0.33609 0.0
C624 C 0.7781 0.87945 0.28566 0.0
C625 C 0.78531 0.91304 0.29777 0.0
N626 N 0.7702 0.88854 0.31987 0.0
C627 C 0.77033 0.87457 0.30467 0.0
C628 C 0.77741 0.90762 0.31658 0.0
C629 C 0.78567 0.89882 0.28224 0.0
C630 C 0.71786 0.87923 0.40535 0.0
N631 N 0.71326 0.86396 0.39224 0.0
C632 C 0.70254 0.89053 0.41447 0.0
C633 C 0.68241 0.8861 0.41009 0.0
C634 C 0.67785 0.87049 0.39671 0.0
C635 C 0.69356 0.85953 0.38785 0.0
C636 C 0.70761 0.80196 0.41172 0.0
C637 C 0.72048 0.80874 0.37249 0.0
C638 C 0.71636 0.82034 0.40614 0.0
N639 N 0.72253 0.82358 0.38669 0.0
C640 C 0.7118 0.79016 0.37751 0.0
C641 C 0.70531 0.7868 0.39727 0.0
C642 C 0.77047 0.83744 0.35293 0.0
C643 C 0.79585 0.9139 0.38587 0.0
C644 C 0.80132 0.88733 0.35402 0.0
C645 C 0.81817 0.89505 0.36414 0.0
C646 C 0.81537 0.90841 0.38018 0.0
N647 N 0.78223 0.8928 0.35969 0.0
C648 C 0.77936 0.9059 0.37539 0.0
Co649 Co 0.11356 0.76383 0.34732 0.0
Co650 Co 0.14422 0.73568 0.37895 0.0
O651 O 0.11932 0.75019 0.3728 0.0
C652 C 0.08272 0.73251 0.3515 0.0
O653 O 0.09745 0.72095 0.35801 0.0
C654 C 0.14163 0.76838 0.40851 0.0
O655 O 0.13579 0.77968 0.39331 0.0
O656 O 0.16096 0.7577 0.36739 0.0
O657 O 0.14104 0.77646 0.34708 0.0
H658 H 0.21319 0.70749 0.36424 0.0
H659 H 0.08482 0.76796 0.38145 0.0
O660 O 0.08621 0.75087 0.34681 0.0
H661 H 0.10783 0.83725 0.36638 0.0
H662 H 0.06907 0.80185 0.29873 0.0
H663 H 0.13607 0.77093 0.30922 0.0
H664 H 0.12017 0.80838 0.34627 0.0
H665 H 0.07738 0.78507 0.33099 0.0
O666 O 0.14545 0.74969 0.40576 0.0
H667 H 0.18153 0.72552 0.35627 0.0
H668 H 0.1601 0.71552 0.41594 0.0
H669 H 0.12848 0.78769 0.27678 0.0
H670 H 0.07195 0.79641 0.40184 0.0
H671 H 0.09476 0.80331 0.27139 0.0
H672 H 0.08353 0.83134 0.39439 0.0
O673 O 0.12419 0.74078 0.33151 0.0
H674 H 0.08874 0.70713 0.42226 0.0
H675 H 0.14335 0.69088 0.3742 0.0
H676 H 0.12218 0.66341 0.3879 0.0
H677 H 0.09465 0.67147 0.41212 0.0
H678 H 0.11016 0.73415 0.40803 0.0
H679 H 0.19161 0.69753 0.42462 0.0
H680 H 0.21838 0.69335 0.39863 0.0
O681 O 0.14363 0.72189 0.35202 0.0
C682 C 0.15801 0.77242 0.35532 0.0
C683 C 0.20161 0.70914 0.37567 0.0
C684 C 0.1895 0.70358 0.40957 0.0
N685 N 0.16892 0.72137 0.38556 0.0
C686 C 0.18362 0.71927 0.37122 0.0
C687 C 0.17172 0.7138 0.40458 0.0
C688 C 0.20451 0.70123 0.39497 0.0
C689 C 0.08975 0.78315 0.37799 0.0
N690 N 0.10313 0.78653 0.36263 0.0
C691 C 0.08249 0.79918 0.38964 0.0
C692 C 0.08902 0.81877 0.38547 0.0
C693 C 0.10266 0.8221 0.36976 0.0
C694 C 0.10962 0.8057 0.35845 0.0
C695 C 0.08384 0.79518 0.30093 0.0
C696 C 0.12145 0.77788 0.30705 0.0
C697 C 0.08863 0.78566 0.31915 0.0
N698 N 0.1073 0.7773 0.32207 0.0
C699 C 0.1172 0.78727 0.28862 0.0
C700 C 0.09827 0.79599 0.2856 0.0
C701 C 0.13558 0.72563 0.33487 0.0
C702 C 0.10072 0.70342 0.41176 0.0
C703 C 0.13138 0.6945 0.38471 0.0
C704 C 0.11946 0.67888 0.39244 0.0
C705 C 0.10403 0.68342 0.40604 0.0
N706 N 0.12804 0.71408 0.39039 0.0
C707 C 0.11295 0.71864 0.40373 0.0
Co708 Co 0.23424 0.88175 0.64662 0.0
Co709 Co 0.25971 0.84822 0.61566 0.0
O710 O 0.2466 0.87403 0.62101 0.0
C711 C 0.26672 0.91081 0.63949 0.0
O712 O 0.27742 0.89515 0.63377 0.0
C713 C 0.22622 0.85082 0.58697 0.0
O714 O 0.21558 0.8577 0.60221 0.0
O715 O 0.23728 0.83321 0.62866 0.0
O716 O 0.22048 0.85489 0.6489 0.0
H717 H 0.28479 0.77863 0.63282 0.0
H718 H 0.22997 0.90873 0.61108 0.0
O719 O 0.2484 0.90847 0.64503 0.0
H720 H 0.16042 0.8897 0.63003 0.0
H721 H 0.20017 0.93052 0.69398 0.0
H722 H 0.22756 0.86166 0.68615 0.0
H723 H 0.18953 0.87719 0.6497 0.0
H724 H 0.21534 0.9197 0.66167 0.0
O725 O 0.24484 0.84647 0.58937 0.0
H726 H 0.26864 0.81151 0.63978 0.0
H727 H 0.27798 0.82969 0.57894 0.0
H728 H 0.21239 0.87176 0.71867 0.0
H729 H 0.20129 0.92173 0.59109 0.0
H730 H 0.19856 0.90642 0.72273 0.0
H731 H 0.16622 0.91215 0.6005 0.0
O732 O 0.25741 0.87093 0.66217 0.0
H733 H 0.28955 0.9002 0.56902 0.0
H734 H 0.30463 0.84709 0.61911 0.0
H735 H 0.33266 0.86625 0.60368 0.0
H736 H 0.32519 0.89302 0.57844 0.0
H737 H 0.26198 0.88078 0.58496 0.0
H738 H 0.29409 0.79694 0.57126 0.0
H739 H 0.29765 0.77119 0.59835 0.0
O740 O 0.27433 0.84933 0.64214 0.0
C741 C 0.22332 0.83741 0.64123 0.0
C742 C 0.2834 0.78976 0.62092 0.0
C743 C 0.2886 0.80003 0.58636 0.0
N744 N 0.27258 0.82257 0.60984 0.0
C745 C 0.27434 0.80843 0.62479 0.0
C746 C 0.27944 0.81853 0.59078 0.0
C747 C 0.29059 0.78559 0.60156 0.0
C748 C 0.21474 0.90468 0.61539 0.0
N749 N 0.21141 0.89232 0.63159 0.0
C750 C 0.19856 0.91201 0.60396 0.0
C751 C 0.17889 0.9066 0.60923 0.0
C752 C 0.17563 0.894 0.62579 0.0
C753 C 0.19217 0.88693 0.63685 0.0
C754 C 0.20608 0.91535 0.69237 0.0
C755 C 0.22139 0.87669 0.68774 0.0
C756 C 0.21469 0.90915 0.67412 0.0
N757 N 0.22206 0.88998 0.67196 0.0
C758 C 0.21291 0.88236 0.70622 0.0
C759 C 0.20518 0.90182 0.7085 0.0
C760 C 0.2717 0.85844 0.65894 0.0
C761 C 0.293 0.88853 0.57996 0.0
C762 C 0.30126 0.85873 0.60815 0.0
C763 C 0.3172 0.86951 0.59944 0.0
C764 C 0.31299 0.88452 0.58527 0.0
N765 N 0.2817 0.86276 0.60285 0.0
C766 C 0.27746 0.87743 0.58895 0.0
Co767 Co 0.14429 0.2556 0.6137 0.0
Co768 Co 0.11135 0.2305 0.64559 0.0
O769 O 0.11831 0.24319 0.61989 0.0
C770 C 0.13949 0.22282 0.5844 0.0
O771 O 0.13248 0.21205 0.5995 0.0
C772 C 0.08339 0.26434 0.64086 0.0
O773 O 0.09907 0.2745 0.63424 0.0
O774 O 0.12393 0.25277 0.6612 0.0
O775 O 0.14461 0.26983 0.64034 0.0
H776 H 0.12389 0.20643 0.71653 0.0
H777 H 0.11061 0.25932 0.58437 0.0
O778 O 0.14462 0.24118 0.58715 0.0
H779 H 0.12818 0.32923 0.60335 0.0
H780 H 0.19493 0.28911 0.56787 0.0
H781 H 0.18211 0.26315 0.63655 0.0
H782 H 0.147 0.30041 0.61767 0.0
H783 H 0.162 0.27387 0.57655 0.0
O784 O 0.08525 0.2458 0.6458 0.0
H785 H 0.13303 0.22204 0.68392 0.0
H786 H 0.07342 0.21271 0.66203 0.0
H787 H 0.21519 0.27843 0.62859 0.0
H788 H 0.0915 0.28771 0.56954 0.0
H789 H 0.22177 0.29153 0.59403 0.0
H790 H 0.10021 0.32296 0.57909 0.0
O791 O 0.15912 0.2325 0.62575 0.0
H792 H 0.06706 0.20087 0.59147 0.0
H793 H 0.11409 0.18558 0.64725 0.0
H794 H 0.09924 0.1576 0.62757 0.0
H795 H 0.07553 0.16518 0.59946 0.0
H796 H 0.0824 0.22839 0.61143 0.0
H797 H 0.06355 0.19716 0.69446 0.0
H798 H 0.08892 0.19386 0.72195 0.0
O799 O 0.13764 0.21559 0.64611 0.0
C800 C 0.13646 0.26694 0.65758 0.0
C801 C 0.11274 0.20766 0.70462 0.0
C802 C 0.07886 0.20249 0.69225 0.0
N803 N 0.10386 0.21798 0.671 0.0
C804 C 0.11786 0.21639 0.6861 0.0
C805 C 0.08453 0.21131 0.67393 0.0
C806 C 0.0931 0.20064 0.70767 0.0
C807 C 0.11461 0.27463 0.58843 0.0
N808 N 0.12995 0.27822 0.60178 0.0
C809 C 0.10369 0.29064 0.58005 0.0
C810 C 0.10857 0.31041 0.58544 0.0
C811 C 0.12425 0.31394 0.59906 0.0
C812 C 0.13483 0.29756 0.60715 0.0
C813 C 0.19223 0.2835 0.583 0.0
C814 C 0.18482 0.26896 0.62153 0.0
C815 C 0.17364 0.27483 0.58798 0.0
N816 N 0.1701 0.26781 0.60709 0.0
C817 C 0.2036 0.27753 0.61709 0.0
C818 C 0.20728 0.28486 0.59768 0.0
C819 C 0.15493 0.21819 0.63794 0.0
C820 C 0.07733 0.19737 0.60372 0.0
C821 C 0.10381 0.18899 0.63502 0.0
C822 C 0.09543 0.17309 0.62395 0.0
C823 C 0.08211 0.17735 0.60819 0.0
N824 N 0.09903 0.20858 0.63055 0.0
C825 C 0.08599 0.21289 0.61512 0.0
Co826 Co 0.76291 0.11342 0.64745 0.0
Co827 Co 0.73244 0.14329 0.61739 0.0
O828 O 0.74817 0.11896 0.6226 0.0
C829 C 0.73238 0.08167 0.64433 0.0
O830 O 0.71985 0.09612 0.63915 0.0
C831 C 0.76498 0.14348 0.58759 0.0
O832 O 0.77675 0.13813 0.6026 0.0
O833 O 0.7536 0.16087 0.62947 0.0
O834 O 0.77473 0.14117 0.64737 0.0
H835 H 0.70092 0.21025 0.63445 0.0
H836 H 0.76656 0.08525 0.61278 0.0
O837 O 0.75085 0.08569 0.64805 0.0
H838 H 0.83576 0.10974 0.62583 0.0
H839 H 0.80379 0.06966 0.69435 0.0
H840 H 0.7714 0.13615 0.68516 0.0
H841 H 0.80729 0.12116 0.64703 0.0
H842 H 0.78545 0.07763 0.66287 0.0
O843 O 0.74609 0.14596 0.59049 0.0
H844 H 0.72058 0.17933 0.64131 0.0
H845 H 0.71115 0.15923 0.58109 0.0
H846 H 0.78971 0.12889 0.71681 0.0
H847 H 0.79461 0.07329 0.59132 0.0
H848 H 0.80607 0.09542 0.72156 0.0
H849 H 0.82949 0.08561 0.59776 0.0
O850 O 0.74013 0.12335 0.66434 0.0
H851 H 0.70622 0.08781 0.57263 0.0
H852 H 0.68782 0.14001 0.62254 0.0
H853 H 0.66125 0.11799 0.60837 0.0
H854 H 0.6704 0.09169 0.5832 0.0
H855 H 0.73232 0.11005 0.58732 0.0
H856 H 0.69152 0.19002 0.57351 0.0
H857 H 0.68624 0.21575 0.60033 0.0
O858 O 0.71913 0.14118 0.6444 0.0
C859 C 0.76919 0.15833 0.64051 0.0
C860 C 0.70305 0.19911 0.62266 0.0
C861 C 0.69779 0.18777 0.58845 0.0
N862 N 0.71682 0.16741 0.61168 0.0
C863 C 0.7141 0.18154 0.62648 0.0
C864 C 0.70895 0.17039 0.59281 0.0
C865 C 0.69483 0.2022 0.60351 0.0
C866 C 0.78173 0.09051 0.61579 0.0
N867 N 0.78531 0.10379 0.6312 0.0
C868 C 0.79754 0.08376 0.60354 0.0
C869 C 0.8171 0.0907 0.60715 0.0
C870 C 0.82063 0.10425 0.62289 0.0
C871 C 0.80445 0.11068 0.63482 0.0
C872 C 0.79677 0.08431 0.69244 0.0
C873 C 0.77861 0.12162 0.68706 0.0
C874 C 0.78634 0.08889 0.67467 0.0
N875 N 0.77754 0.1074 0.67212 0.0
C876 C 0.7889 0.11756 0.70504 0.0
C877 C 0.79805 0.09878 0.7077 0.0
C878 C 0.72412 0.1337 0.66148 0.0
C879 C 0.70204 0.09926 0.58354 0.0
C880 C 0.69191 0.12857 0.61163 0.0
C881 C 0.6768 0.11617 0.60363 0.0
C882 C 0.68195 0.10142 0.5895 0.0
N883 N 0.71157 0.12637 0.60567 0.0
C884 C 0.71674 0.11194 0.59184 0.0
Co885 Co 0.84935 0.73167 0.60924 0.0
Co886 Co 0.87946 0.75901 0.64198 0.0
O887 O 0.87454 0.74508 0.61652 0.0
C888 C 0.85492 0.76424 0.57991 0.0
O889 O 0.86094 0.77511 0.59534 0.0
C890 C 0.90856 0.7258 0.64041 0.0
O891 O 0.89364 0.71485 0.6333 0.0
O892 O 0.86625 0.7371 0.65762 0.0
O893 O 0.84823 0.71788 0.63612 0.0
H894 H 0.86131 0.78615 0.71055 0.0
H895 H 0.88458 0.72887 0.58167 0.0
O896 O 0.84981 0.74583 0.58246 0.0
H897 H 0.86878 0.65861 0.60093 0.0
H898 H 0.80238 0.6957 0.5614 0.0
H899 H 0.8107 0.72296 0.63027 0.0
H900 H 0.84818 0.68689 0.61382 0.0
H901 H 0.83424 0.71228 0.57153 0.0
O902 O 0.90581 0.7444 0.64458 0.0
H903 H 0.85483 0.76893 0.67813 0.0
H904 H 0.91584 0.77815 0.66036 0.0
H905 H 0.77866 0.70637 0.62085 0.0
H906 H 0.90549 0.70104 0.5683 0.0
H907 H 0.77435 0.6926 0.58619 0.0
H908 H 0.89766 0.66562 0.57799 0.0
O909 O 0.83296 0.75419 0.62031 0.0
H910 H 0.92661 0.78744 0.58966 0.0
H911 H 0.87577 0.8039 0.64162 0.0
H912 H 0.89132 0.83139 0.62178 0.0
H913 H 0.91694 0.82322 0.59559 0.0
H914 H 0.91057 0.76041 0.60974 0.0
H915 H 0.92303 0.79532 0.69267 0.0
H916 H 0.89563 0.79949 0.71799 0.0
O917 O 0.85294 0.77333 0.64006 0.0
C918 C 0.85479 0.72208 0.65378 0.0
C919 C 0.87336 0.78451 0.6996 0.0
C920 C 0.90801 0.78963 0.68958 0.0
N921 N 0.88488 0.77276 0.66728 0.0
C922 C 0.86976 0.77484 0.68119 0.0
C923 C 0.90385 0.77988 0.67133 0.0
C924 C 0.89262 0.79197 0.70378 0.0
C925 C 0.88097 0.71348 0.58578 0.0
N926 N 0.86512 0.70949 0.5984 0.0
C927 C 0.89291 0.69779 0.57824 0.0
C928 C 0.88852 0.67792 0.5837 0.0
C929 C 0.87233 0.67398 0.59658 0.0
C930 C 0.86073 0.69005 0.60385 0.0
C931 C 0.8041 0.70159 0.57657 0.0
C932 C 0.80899 0.71687 0.61521 0.0
C933 C 0.82208 0.71101 0.58237 0.0
N934 N 0.82438 0.71838 0.60153 0.0
C935 C 0.79079 0.70755 0.60994 0.0
C936 C 0.78838 0.69985 0.59049 0.0
C937 C 0.83596 0.76936 0.63179 0.0
C938 C 0.91551 0.79119 0.60107 0.0
C939 C 0.8869 0.80023 0.63024 0.0
C940 C 0.89567 0.81586 0.61907 0.0
C941 C 0.91005 0.81126 0.60439 0.0
N942 N 0.89235 0.78059 0.62691 0.0
C943 C 0.90645 0.77596 0.61255 0.0
Co944 Co 0.34781 0.23283 0.11592 0.0
Co945 Co 0.37974 0.26086 0.14622 0.0
O946 O 0.37274 0.24773 0.12081 0.0
C947 C 0.34685 0.26712 0.08803 0.0
O948 O 0.35374 0.27793 0.10313 0.0
C949 C 0.40994 0.2292 0.13995 0.0
O950 O 0.39485 0.21812 0.13346 0.0
O951 O 0.36921 0.23781 0.16234 0.0
O952 O 0.35098 0.21775 0.14186 0.0
H953 H 0.3674 0.28506 0.21714 0.0
H954 H 0.37939 0.23397 0.08414 0.0
O955 O 0.34399 0.24817 0.09012 0.0
H956 H 0.37095 0.16189 0.10116 0.0
H957 H 0.29781 0.19575 0.0722 0.0
H958 H 0.31281 0.22024 0.14099 0.0
H959 H 0.35026 0.1879 0.11806 0.0
H960 H 0.32944 0.21421 0.07929 0.0
O961 O 0.40687 0.24738 0.14557 0.0
H962 H 0.35841 0.26866 0.18489 0.0
H963 H 0.41702 0.28083 0.16167 0.0
H964 H 0.28108 0.2017 0.13462 0.0
H965 H 0.40028 0.20845 0.06674 0.0
H966 H 0.27341 0.18932 0.10001 0.0
H967 H 0.39617 0.17212 0.07529 0.0
O968 O 0.33145 0.25358 0.13019 0.0
H969 H 0.42002 0.29332 0.09062 0.0
H970 H 0.37414 0.30549 0.14808 0.0
H971 H 0.38646 0.3344 0.12799 0.0
H972 H 0.4096 0.32839 0.09905 0.0
H973 H 0.40719 0.26485 0.11101 0.0
H974 H 0.42672 0.29722 0.19374 0.0
H975 H 0.40178 0.29947 0.22171 0.0
O976 O 0.35255 0.27393 0.14745 0.0
C977 C 0.35874 0.22198 0.15901 0.0
C978 C 0.37838 0.28424 0.20503 0.0
C979 C 0.41168 0.29103 0.19191 0.0
N980 N 0.38712 0.27396 0.17137 0.0
C981 C 0.37335 0.27503 0.18672 0.0
C982 C 0.40612 0.28171 0.17381 0.0
C983 C 0.39768 0.2923 0.2076 0.0
C984 C 0.37738 0.21817 0.08777 0.0
N985 N 0.36356 0.21242 0.102 0.0
C986 C 0.38931 0.2038 0.07795 0.0
C987 C 0.38701 0.18342 0.08277 0.0
C988 C 0.37287 0.17767 0.09729 0.0
C989 C 0.36122 0.19246 0.10683 0.0
C990 C 0.301 0.20102 0.08736 0.0
C991 C 0.30964 0.21476 0.12592 0.0
C992 C 0.31887 0.2115 0.09145 0.0
N993 N 0.32304 0.21811 0.11057 0.0
C994 C 0.29162 0.20434 0.12239 0.0
C995 C 0.28732 0.19741 0.10297 0.0
C996 C 0.33491 0.26886 0.14143 0.0
C997 C 0.40999 0.29614 0.10323 0.0
C998 C 0.38417 0.30277 0.13548 0.0
C999 C 0.39113 0.31919 0.12419 0.0
C1000 C 0.40412 0.31581 0.10795 0.0
N1001 N 0.39004 0.28353 0.13078 0.0
C1002 C 0.40275 0.28009 0.11488 0.0
Co1003 Co 0.37922 0.73088 0.84709 0.0
Co1004 Co 0.3485 0.75914 0.87839 0.0
O1005 O 0.37368 0.74513 0.87227 0.0
C1006 C 0.40821 0.76422 0.84892 0.0
O1007 O 0.39321 0.77497 0.85612 0.0
C1008 C 0.35182 0.7265 0.90811 0.0
O1009 O 0.35868 0.7154 0.89322 0.0
O1010 O 0.33209 0.73697 0.8665 0.0
O1011 O 0.35272 0.71654 0.84884 0.0
H1012 H 0.27919 0.78632 0.86335 0.0
H1013 H 0.40967 0.73015 0.87998 0.0
O1014 O 0.4056 0.74559 0.84471 0.0
H1015 H 0.39096 0.65889 0.86865 0.0
H1016 H 0.42387 0.69399 0.79781 0.0
H1017 H 0.35521 0.71996 0.81081 0.0
H1018 H 0.37566 0.686 0.84812 0.0
H1019 H 0.41604 0.71173 0.82966 0.0
O1020 O 0.34728 0.74499 0.90512 0.0
H1021 H 0.3112 0.76891 0.85548 0.0
H1022 H 0.33205 0.77881 0.91538 0.0
H1023 H 0.36233 0.70216 0.77884 0.0
H1024 H 0.42548 0.70351 0.90074 0.0
H1025 H 0.39688 0.68905 0.77217 0.0
H1026 H 0.41609 0.66759 0.89517 0.0
O1027 O 0.36631 0.75249 0.83071 0.0
H1028 H 0.4034 0.78825 0.92207 0.0
H1029 H 0.34865 0.80397 0.87398 0.0
H1030 H 0.36932 0.83168 0.88795 0.0
H1031 H 0.39692 0.82389 0.91219 0.0
H1032 H 0.38246 0.76099 0.90759 0.0
H1033 H 0.30019 0.79618 0.92396 0.0
H1034 H 0.27352 0.80009 0.89781 0.0
O1035 O 0.34907 0.773 0.8516 0.0
C1036 C 0.33539 0.7212 0.85592 0.0
C1037 C 0.29072 0.78478 0.87485 0.0
C1038 C 0.3025 0.79029 0.90888 0.0
N1039 N 0.32354 0.77303 0.8849 0.0
C1040 C 0.30891 0.775 0.87047 0.0
C1041 C 0.32049 0.78041 0.90395 0.0
C1042 C 0.28754 0.79248 0.8942 0.0
C1043 C 0.40567 0.71453 0.87734 0.0
N1044 N 0.39186 0.70961 0.86279 0.0
C1045 C 0.4146 0.69952 0.8892 0.0
C1046 C 0.4093 0.67937 0.88608 0.0
C1047 C 0.3952 0.67448 0.87121 0.0
C1048 C 0.38656 0.68989 0.85966 0.0
C1049 C 0.40875 0.69959 0.80056 0.0
C1050 C 0.37024 0.71415 0.80808 0.0
C1051 C 0.40423 0.70968 0.81854 0.0
N1052 N 0.38515 0.7167 0.82215 0.0
C1053 C 0.3742 0.70416 0.78992 0.0
C1054 C 0.39359 0.69682 0.78618 0.0
C1055 C 0.35558 0.76813 0.8341 0.0
C1056 C 0.39138 0.79184 0.91157 0.0
C1057 C 0.36064 0.80046 0.8845 0.0
C1058 C 0.37228 0.81622 0.89239 0.0
C1059 C 0.38775 0.81183 0.906 0.0
N1060 N 0.36429 0.7809 0.89006 0.0
C1061 C 0.37942 0.77648 0.90339 0.0
Co1062 Co 0.23345 0.34651 0.87632 0.0
Co1063 Co 0.26093 0.37875 0.84574 0.0
O1064 O 0.24719 0.37196 0.87089 0.0
C1065 C 0.26545 0.34934 0.9066 0.0
O1066 O 0.27722 0.35505 0.89171 0.0
C1067 C 0.2282 0.40796 0.85014 0.0
O1068 O 0.21728 0.3925 0.85597 0.0
O1069 O 0.23863 0.36745 0.82928 0.0
O1070 O 0.22023 0.3469 0.84911 0.0
H1071 H 0.28667 0.3662 0.7754 0.0
H1072 H 0.22997 0.38007 0.90581 0.0
O1073 O 0.24683 0.34554 0.9034 0.0
H1074 H 0.16018 0.3656 0.88391 0.0
H1075 H 0.19618 0.29703 0.92047 0.0
H1076 H 0.22526 0.30915 0.85292 0.0
H1077 H 0.18875 0.34569 0.87058 0.0
H1078 H 0.2131 0.32934 0.91262 0.0
O1079 O 0.24677 0.40551 0.84556 0.0
H1080 H 0.26974 0.35725 0.80739 0.0
H1081 H 0.28073 0.41615 0.8304 0.0
H1082 H 0.20833 0.2767 0.86006 0.0
H1083 H 0.20183 0.40023 0.91967 0.0
H1084 H 0.19365 0.27048 0.89405 0.0
H1085 H 0.16665 0.39309 0.90864 0.0
O1086 O 0.25635 0.33085 0.86495 0.0
H1087 H 0.29091 0.42079 0.90143 0.0
H1088 H 0.30572 0.37407 0.84528 0.0
H1089 H 0.33377 0.38741 0.86594 0.0
H1090 H 0.32643 0.41097 0.89423 0.0
H1091 H 0.26332 0.40696 0.88048 0.0
H1092 H 0.29764 0.42581 0.79858 0.0
H1093 H 0.30076 0.40071 0.77085 0.0
O1094 O 0.27467 0.35181 0.84524 0.0
C1095 C 0.22396 0.35533 0.83216 0.0
C1096 C 0.28551 0.37723 0.78741 0.0
C1097 C 0.29163 0.4107 0.80042 0.0
N1098 N 0.27452 0.38607 0.82083 0.0
C1099 C 0.27603 0.37222 0.8056 0.0
C1100 C 0.28204 0.40515 0.81838 0.0
C1101 C 0.29338 0.39661 0.78486 0.0
C1102 C 0.21467 0.37673 0.90112 0.0
N1103 N 0.21099 0.36167 0.88749 0.0
C1104 C 0.19882 0.38826 0.90894 0.0
C1105 C 0.17908 0.38426 0.90273 0.0
C1106 C 0.17544 0.36885 0.88884 0.0
C1107 C 0.19168 0.35765 0.88132 0.0
C1108 C 0.20247 0.29958 0.90559 0.0
C1109 C 0.21877 0.30661 0.8677 0.0
C1110 C 0.21209 0.31783 0.90107 0.0
N1111 N 0.21996 0.32119 0.88227 0.0
C1112 C 0.20926 0.28818 0.87168 0.0
C1113 C 0.20105 0.28469 0.89076 0.0
C1114 C 0.27114 0.33456 0.85317 0.0
C1115 C 0.2943 0.41058 0.88911 0.0
C1116 C 0.30242 0.38429 0.85759 0.0
C1117 C 0.31836 0.39182 0.86922 0.0
C1118 C 0.31423 0.40505 0.88508 0.0
N1119 N 0.28293 0.38983 0.86162 0.0
C1120 C 0.27875 0.40277 0.87715 0.0
Co1121 Co 0.61299 0.25985 0.84339 0.0
Co1122 Co 0.6442 0.23604 0.87788 0.0
O1123 O 0.61897 0.24915 0.87019 0.0
C1124 C 0.58297 0.22822 0.8506 0.0
O1125 O 0.59796 0.21773 0.85823 0.0
C1126 C 0.6412 0.27159 0.90397 0.0
O1127 O 0.63543 0.2814 0.88774 0.0
O1128 O 0.6604 0.25729 0.86423 0.0
O1129 O 0.64009 0.27318 0.84195 0.0
H1130 H 0.71418 0.20877 0.86657 0.0
H1131 H 0.58394 0.26671 0.8768 0.0
O1132 O 0.58602 0.24613 0.84415 0.0
H1133 H 0.60485 0.33467 0.8544 0.0
H1134 H 0.56776 0.29115 0.79084 0.0
H1135 H 0.63561 0.26367 0.80488 0.0
H1136 H 0.61832 0.30421 0.83765 0.0
H1137 H 0.57631 0.27812 0.82473 0.0
O1138 O 0.6448 0.25267 0.90313 0.0
H1139 H 0.68207 0.2249 0.85661 0.0
H1140 H 0.66028 0.22012 0.91679 0.0
H1141 H 0.62779 0.27668 0.77083 0.0
H1142 H 0.56995 0.29677 0.89388 0.0
H1143 H 0.59364 0.29055 0.76364 0.0
H1144 H 0.58046 0.33105 0.88271 0.0
O1145 O 0.62436 0.23559 0.8301 0.0
H1146 H 0.58923 0.21038 0.92355 0.0
H1147 H 0.64464 0.19098 0.87764 0.0
H1148 H 0.62416 0.16442 0.89395 0.0
H1149 H 0.59623 0.17407 0.9171 0.0
H1150 H 0.60997 0.23645 0.90679 0.0
H1151 H 0.69223 0.2041 0.92746 0.0
H1152 H 0.71942 0.19825 0.90223 0.0
O1153 O 0.64431 0.21959 0.85248 0.0
C1154 C 0.6571 0.27056 0.85067 0.0
C1155 C 0.70242 0.21115 0.87769 0.0
C1156 C 0.69011 0.20855 0.91187 0.0
N1157 N 0.66925 0.22321 0.88605 0.0
C1158 C 0.68418 0.22021 0.87212 0.0
C1159 C 0.67207 0.21765 0.90575 0.0
C1160 C 0.70535 0.20528 0.8977 0.0
C1161 C 0.58842 0.28159 0.87175 0.0
N1162 N 0.60182 0.28372 0.85619 0.0
C1163 C 0.58052 0.29855 0.88152 0.0
C1164 C 0.58645 0.31777 0.87527 0.0
C1165 C 0.60014 0.31982 0.85939 0.0
C1166 C 0.60774 0.30252 0.84999 0.0
C1167 C 0.58272 0.28522 0.79381 0.0
C1168 C 0.6208 0.26987 0.80192 0.0
C1169 C 0.58764 0.27781 0.81295 0.0
N1170 N 0.60653 0.2704 0.81683 0.0
C1171 C 0.61642 0.27713 0.78258 0.0
C1172 C 0.59725 0.28488 0.77855 0.0
C1173 C 0.63624 0.22127 0.83503 0.0
C1174 C 0.60139 0.20598 0.91354 0.0
C1175 C 0.63249 0.19529 0.88767 0.0
C1176 C 0.62097 0.18019 0.89689 0.0
C1177 C 0.60531 0.18561 0.90989 0.0
N1178 N 0.62855 0.21524 0.89134 0.0
C1179 C 0.61324 0.22068 0.90407 0.0
Co1180 Co 0.75878 0.64788 0.87683 0.0
Co1181 Co 0.72981 0.61526 0.84813 0.0
O1182 O 0.74617 0.62175 0.87177 0.0
C1183 C 0.72994 0.64169 0.90975 0.0
O1184 O 0.71802 0.63388 0.89598 0.0
C1185 C 0.76502 0.58866 0.84625 0.0
O1186 O 0.77557 0.60457 0.85153 0.0
O1187 O 0.7489 0.62941 0.82979 0.0
O1188 O 0.76957 0.64874 0.84862 0.0
H1189 H 0.69411 0.62964 0.78265 0.0
H1190 H 0.76654 0.61389 0.90496 0.0
O1191 O 0.74761 0.64772 0.90497 0.0
H1192 H 0.83337 0.63296 0.87798 0.0
H1193 H 0.79671 0.69855 0.91901 0.0
H1194 H 0.76285 0.68612 0.85378 0.0
H1195 H 0.80271 0.6514 0.86747 0.0
H1196 H 0.78116 0.66544 0.91172 0.0
O1197 O 0.74585 0.58985 0.84448 0.0
H1198 H 0.71433 0.63814 0.81281 0.0
H1199 H 0.71127 0.57722 0.8328 0.0
H1200 H 0.77832 0.7194 0.86037 0.0
H1201 H 0.79683 0.59515 0.91603 0.0
H1202 H 0.79541 0.72578 0.89319 0.0
H1203 H 0.83054 0.60463 0.90246 0.0
O1204 O 0.73422 0.66251 0.86786 0.0
H1205 H 0.71067 0.5676 0.90409 0.0
H1206 H 0.6851 0.61604 0.85353 0.0
H1207 H 0.6611 0.59916 0.87656 0.0
H1208 H 0.67387 0.57473 0.90205 0.0
H1209 H 0.73415 0.58495 0.88088 0.0
H1210 H 0.69114 0.56801 0.80277 0.0
H1211 H 0.68237 0.59435 0.77749 0.0
O1212 O 0.714 0.64085 0.85116 0.0
C1213 C 0.76373 0.64158 0.83167 0.0
C1214 C 0.69774 0.61805 0.79361 0.0
C1215 C 0.6961 0.58346 0.80489 0.0
N1216 N 0.71373 0.60825 0.82467 0.0
C1217 C 0.70911 0.62279 0.81076 0.0
C1218 C 0.70751 0.58875 0.82185 0.0
C1219 C 0.69119 0.59824 0.79071 0.0
C1220 C 0.78119 0.61822 0.89915 0.0
N1221 N 0.78289 0.63378 0.88569 0.0
C1222 C 0.79827 0.6075 0.9054 0.0
C1223 C 0.81717 0.61282 0.89776 0.0
C1224 C 0.81878 0.62871 0.88402 0.0
C1225 C 0.80136 0.63906 0.8781 0.0
C1226 C 0.78937 0.69594 0.90463 0.0
C1227 C 0.7704 0.68873 0.86803 0.0
C1228 C 0.78052 0.67723 0.90043 0.0
N1229 N 0.7713 0.6738 0.88227 0.0
C1230 C 0.77907 0.70763 0.87171 0.0
C1231 C 0.78863 0.71121 0.89014 0.0
C1232 C 0.7179 0.65825 0.85855 0.0
C1233 C 0.70492 0.57817 0.89301 0.0
C1234 C 0.69076 0.60545 0.86461 0.0
C1235 C 0.6771 0.59592 0.87758 0.0
C1236 C 0.68428 0.5822 0.89187 0.0
N1237 N 0.71099 0.6014 0.86581 0.0
C1238 C 0.71814 0.58797 0.87977 0.0
Co1239 Co 0.64626 0.76189 0.11545 0.0
Co1240 Co 0.6133 0.73474 0.1455 0.0
O1241 O 0.62051 0.74848 0.12044 0.0
C1242 C 0.6439 0.72907 0.08592 0.0
O1243 O 0.63606 0.71825 0.10055 0.0
C1244 C 0.58482 0.76829 0.1412 0.0
O1245 O 0.60032 0.77883 0.13478 0.0
O1246 O 0.62535 0.75657 0.16217 0.0
O1247 O 0.64484 0.77592 0.14215 0.0
H1248 H 0.6255 0.70752 0.21535 0.0
H1249 H 0.61386 0.7644 0.08461 0.0
O1250 O 0.64844 0.74756 0.08891 0.0
H1251 H 0.62768 0.83486 0.10464 0.0
H1252 H 0.69754 0.79757 0.07204 0.0
H1253 H 0.68282 0.77056 0.13994 0.0
H1254 H 0.64697 0.80673 0.11972 0.0
H1255 H 0.66483 0.78114 0.07924 0.0
O1256 O 0.587 0.74972 0.14592 0.0
H1257 H 0.63482 0.72452 0.18349 0.0
H1258 H 0.57528 0.71621 0.16093 0.0
H1259 H 0.71566 0.78702 0.13346 0.0
H1260 H 0.59431 0.79208 0.06902 0.0
H1261 H 0.72319 0.80066 0.0993 0.0
H1262 H 0.60114 0.8276 0.07909 0.0
O1263 O 0.66147 0.73942 0.12816 0.0
H1264 H 0.5701 0.70669 0.08968 0.0
H1265 H 0.61644 0.68981 0.14558 0.0
H1266 H 0.6021 0.66242 0.12472 0.0
H1267 H 0.57873 0.67081 0.09655 0.0
H1268 H 0.58493 0.73361 0.11082 0.0
H1269 H 0.56526 0.69927 0.19261 0.0
H1270 H 0.59049 0.69476 0.22005 0.0
O1271 O 0.63974 0.72006 0.14574 0.0
C1272 C 0.63688 0.77172 0.15921 0.0
C1273 C 0.61439 0.70931 0.20347 0.0
C1274 C 0.58057 0.7047 0.19072 0.0
N1275 N 0.60567 0.72114 0.1703 0.0
C1276 C 0.6196 0.71886 0.18537 0.0
C1277 C 0.58632 0.71433 0.17283 0.0
C1278 C 0.59474 0.70218 0.20611 0.0
C1279 C 0.61705 0.77984 0.0889 0.0
N1280 N 0.6316 0.78397 0.10296 0.0
C1281 C 0.60588 0.79544 0.08009 0.0
C1282 C 0.6097 0.81536 0.08577 0.0
C1283 C 0.62458 0.81945 0.10012 0.0
C1284 C 0.63543 0.80346 0.10862 0.0
C1285 C 0.69441 0.79175 0.08701 0.0
C1286 C 0.68593 0.77662 0.12509 0.0
C1287 C 0.67593 0.78242 0.09116 0.0
N1288 N 0.67185 0.77512 0.11005 0.0
C1289 C 0.70457 0.78585 0.12149 0.0
C1290 C 0.7088 0.79348 0.10231 0.0
C1291 C 0.6574 0.72406 0.13905 0.0
C1292 C 0.58022 0.70284 0.10195 0.0
C1293 C 0.60631 0.69357 0.13333 0.0
C1294 C 0.59821 0.678 0.12159 0.0
C1295 C 0.58509 0.68271 0.10579 0.0
N1296 N 0.60143 0.71327 0.12947 0.0
C1297 C 0.58859 0.71801 0.11401 0.0
Co1298 Co 0.25906 0.61561 0.1457 0.0
Co1299 Co 0.23181 0.64786 0.11504 0.0
O1300 O 0.24528 0.62226 0.12054 0.0
C1301 C 0.22541 0.58708 0.14223 0.0
O1302 O 0.21488 0.60245 0.13549 0.0
C1303 C 0.26492 0.6449 0.08587 0.0
O1304 O 0.27564 0.63761 0.10085 0.0
O1305 O 0.25401 0.6635 0.12788 0.0
O1306 O 0.27378 0.64197 0.14522 0.0
H1307 H 0.20542 0.71704 0.13194 0.0
H1308 H 0.25996 0.58646 0.11168 0.0
O1309 O 0.244 0.58935 0.14683 0.0
H1310 H 0.33127 0.6038 0.12487 0.0
H1311 H 0.29459 0.56868 0.19388 0.0
H1312 H 0.26966 0.63808 0.18304 0.0
H1313 H 0.30401 0.61859 0.14557 0.0
H1314 H 0.27747 0.57793 0.16205 0.0
O1315 O 0.24645 0.64969 0.0886 0.0
H1316 H 0.22219 0.68451 0.13903 0.0
H1317 H 0.2131 0.66588 0.07828 0.0
H1318 H 0.28684 0.62955 0.215 0.0
H1319 H 0.28675 0.57117 0.09071 0.0
H1320 H 0.29944 0.59462 0.22058 0.0
H1321 H 0.32269 0.57989 0.09722 0.0
O1322 O 0.23734 0.6282 0.16215 0.0
H1323 H 0.20249 0.59502 0.06905 0.0
H1324 H 0.18692 0.64833 0.11874 0.0
H1325 H 0.15908 0.62865 0.10361 0.0
H1326 H 0.1668 0.60178 0.07856 0.0
H1327 H 0.22987 0.61495 0.08468 0.0
H1328 H 0.19637 0.69829 0.07047 0.0
H1329 H 0.19238 0.7241 0.09744 0.0
O1330 O 0.21752 0.64664 0.14159 0.0
C1331 C 0.26949 0.65961 0.13868 0.0
C1332 C 0.207 0.70588 0.12008 0.0
C1333 C 0.20195 0.69537 0.08557 0.0
N1334 N 0.21844 0.67325 0.10913 0.0
C1335 C 0.21642 0.68741 0.12402 0.0
C1336 C 0.21146 0.67707 0.09007 0.0
C1337 C 0.19971 0.70984 0.10071 0.0
C1338 C 0.27559 0.59015 0.11473 0.0
N1339 N 0.28044 0.60329 0.12989 0.0
C1340 C 0.29068 0.58152 0.10275 0.0
C1341 C 0.31084 0.58644 0.1064 0.0
C1342 C 0.31567 0.59986 0.1219 0.0
C1343 C 0.30017 0.60821 0.13355 0.0
C1344 C 0.28921 0.58396 0.1916 0.0
C1345 C 0.27524 0.62289 0.18529 0.0
C1346 C 0.27948 0.58927 0.17364 0.0
N1347 N 0.27275 0.60857 0.17064 0.0
C1348 C 0.28489 0.61813 0.20345 0.0
C1349 C 0.29193 0.59853 0.20658 0.0
C1350 C 0.22197 0.63937 0.15891 0.0
C1351 C 0.19893 0.60672 0.0799 0.0
C1352 C 0.19039 0.63665 0.10786 0.0
C1353 C 0.17457 0.62557 0.09933 0.0
C1354 C 0.17891 0.61051 0.08526 0.0
N1355 N 0.20998 0.63286 0.1025 0.0
C1356 C 0.21436 0.61811 0.08873 0.0
Co1357 Co 0.73455 0.37998 0.14497 0.0
Co1358 Co 0.75698 0.34619 0.11209 0.0
O1359 O 0.74647 0.37278 0.11904 0.0
C1360 C 0.7694 0.40667 0.14068 0.0
O1361 O 0.77915 0.39058 0.13445 0.0
C1362 C 0.72492 0.35395 0.08273 0.0
O1363 O 0.71394 0.35971 0.0982 0.0
O1364 O 0.73266 0.33273 0.12323 0.0
O1365 O 0.71883 0.35411 0.14586 0.0
H1366 H 0.77343 0.27303 0.1241 0.0
H1367 H 0.73244 0.40911 0.111 0.0
O1368 O 0.75061 0.40559 0.14487 0.0
H1369 H 0.66158 0.39431 0.12885 0.0
H1370 H 0.70385 0.42852 0.1948 0.0
H1371 H 0.72641 0.35842 0.18343 0.0
H1372 H 0.6896 0.37851 0.14773 0.0
H1373 H 0.71831 0.41835 0.16196 0.0
O1374 O 0.74313 0.34823 0.08531 0.0
H1375 H 0.76078 0.30687 0.1333 0.0
H1376 H 0.77468 0.32873 0.07458 0.0
H1377 H 0.71188 0.36787 0.21644 0.0
H1378 H 0.7049 0.42539 0.09183 0.0
H1379 H 0.70049 0.40316 0.22228 0.0
H1380 H 0.66917 0.41796 0.10069 0.0
O1381 O 0.75688 0.36675 0.15987 0.0
H1382 H 0.79404 0.39786 0.07055 0.0
H1383 H 0.80135 0.33989 0.11683 0.0
H1384 H 0.83186 0.35687 0.10372 0.0
H1385 H 0.8283 0.38605 0.08038 0.0
H1386 H 0.76394 0.38057 0.08418 0.0
H1387 H 0.78736 0.29509 0.06468 0.0
H1388 H 0.78684 0.26697 0.08956 0.0
O1389 O 0.77059 0.34357 0.13902 0.0
C1390 C 0.71954 0.33721 0.13659 0.0
C1391 C 0.77383 0.28518 0.11315 0.0
C1392 C 0.78162 0.29755 0.07979 0.0
N1393 N 0.76724 0.3198 0.10457 0.0
C1394 C 0.76677 0.30439 0.1183 0.0
C1395 C 0.77441 0.31656 0.08547 0.0
C1396 C 0.78133 0.28179 0.09376 0.0
C1397 C 0.71693 0.40596 0.11505 0.0
N1398 N 0.71262 0.39296 0.13051 0.0
C1399 C 0.7014 0.41515 0.1041 0.0
C1400 C 0.68136 0.41096 0.10906 0.0
C1401 C 0.67709 0.39768 0.12485 0.0
C1402 C 0.69301 0.38874 0.13546 0.0
C1403 C 0.70868 0.41308 0.19241 0.0
C1404 C 0.72127 0.37373 0.1858 0.0
C1405 C 0.71688 0.40723 0.17386 0.0
N1406 N 0.7229 0.38773 0.1707 0.0
C1407 C 0.71316 0.37903 0.20455 0.0
C1408 C 0.70679 0.39884 0.20782 0.0
C1409 C 0.76932 0.35259 0.15602 0.0
C1410 C 0.79578 0.38513 0.08067 0.0
C1411 C 0.79968 0.35262 0.10673 0.0
C1412 C 0.81701 0.36214 0.09932 0.0
C1413 C 0.815 0.37851 0.08621 0.0
N1414 N 0.78089 0.35919 0.1012 0.0
C1415 C 0.7788 0.37523 0.08836 0.0
H1416 H 0.24103 0.5534 0.16032 0.0
H1417 H 0.22254 0.52317 0.17074 0.0
H1418 H 0.16801 0.54702 0.1441 0.0
H1419 H 0.18629 0.57737 0.13373 0.0
H1420 H 0.16377 0.53535 0.1844 0.0
H1421 H 0.19982 0.47504 0.13878 0.0
H1422 H 0.21768 0.49077 0.15184 0.0
H1423 H 0.20193 0.50152 0.13247 0.0
C1424 C 0.2252 0.55206 0.15636 0.0
C1425 C 0.21508 0.5678 0.14633 0.0
C1426 C 0.21469 0.53475 0.16224 0.0
C1427 C 0.19399 0.53287 0.15802 0.0
C1428 C 0.18401 0.54823 0.14741 0.0
H1429 H 0.13141 0.42154 0.19009 0.0
H1430 H 0.14093 0.45215 0.17179 0.0
C1431 C 0.19449 0.56554 0.14153 0.0
C1432 C 0.18244 0.51573 0.16629 0.0
H1433 H 0.18095 0.4643 0.16779 0.0
C1434 C 0.16729 0.5198 0.18057 0.0
C1435 C 0.18694 0.49554 0.16106 0.0
C1436 C 0.20235 0.49041 0.14505 0.0
C1437 C 0.15714 0.5041 0.1905 0.0
C1438 C 0.16253 0.48392 0.18615 0.0
C1439 C 0.17699 0.47985 0.17118 0.0
C1440 C 0.15434 0.46677 0.19777 0.0
C1441 C 0.14095 0.50922 0.20571 0.0
C1442 C 0.15847 0.4651 0.2185 0.0
C1443 C 0.15309 0.44765 0.22902 0.0
C1444 C 0.14365 0.43155 0.21888 0.0
C1445 C 0.13878 0.43364 0.1983 0.0
C1446 C 0.14417 0.4511 0.18781 0.0
H1447 H 0.13455 0.5245 0.20296 0.0
H1448 H 0.12849 0.49797 0.20532 0.0
H1449 H 0.14763 0.50912 0.2211 0.0
H1450 H 0.16665 0.47692 0.22634 0.0
H1451 H 0.15708 0.44645 0.24485 0.0
H1452 H 0.55167 0.15782 0.23785 0.0
H1453 H 0.52173 0.16906 0.21943 0.0
H1454 H 0.54742 0.14709 0.16371 0.0
H1455 H 0.57752 0.13585 0.18194 0.0
H1456 H 0.5347 0.18791 0.16273 0.0
H1457 H 0.47516 0.13714 0.19287 0.0
H1458 H 0.49028 0.14889 0.21212 0.0
H1459 H 0.50179 0.13141 0.1948 0.0
C1460 C 0.55082 0.15506 0.22174 0.0
C1461 C 0.56699 0.14605 0.21132 0.0
C1462 C 0.53368 0.16141 0.21127 0.0
C1463 C 0.53239 0.15873 0.19028 0.0
C1464 C 0.54819 0.14918 0.17993 0.0
H1465 H 0.42168 0.19176 0.12761 0.0
H1466 H 0.45294 0.17419 0.1363 0.0
C1467 C 0.56533 0.14277 0.19039 0.0
C1468 C 0.51529 0.16744 0.17902 0.0
H1469 H 0.4639 0.16722 0.17622 0.0
C1470 C 0.51922 0.18323 0.16542 0.0
C1471 C 0.49521 0.1611 0.18247 0.0
C1472 C 0.49031 0.14357 0.19621 0.0
C1473 C 0.5034 0.19352 0.15581 0.0
C1474 C 0.48327 0.18793 0.16016 0.0
C1475 C 0.4794 0.17153 0.17305 0.0
C1476 C 0.46587 0.1995 0.15245 0.0
C1477 C 0.50834 0.21039 0.14129 0.0
C1478 C 0.46306 0.21965 0.15839 0.0
C1479 C 0.44521 0.22976 0.15348 0.0
C1480 C 0.42988 0.21974 0.14273 0.0
C1481 C 0.43316 0.19984 0.13604 0.0
C1482 C 0.451 0.18977 0.14095 0.0
H1483 H 0.52394 0.20895 0.13523 0.0
H1484 H 0.49753 0.21067 0.12845 0.0
H1485 H 0.50728 0.22507 0.14934 0.0
H1486 H 0.47425 0.22727 0.1676 0.0
H1487 H 0.44309 0.24508 0.15886 0.0
H1488 H 0.80999 0.40988 0.14655 0.0
H1489 H 0.82817 0.43862 0.16084 0.0
H1490 H 0.77311 0.47358 0.16075 0.0
H1491 H 0.75459 0.44457 0.14723 0.0
H1492 H 0.83556 0.47672 0.15025 0.0
H1493 H 0.78862 0.47543 0.21945 0.0
H1494 H 0.78749 0.45571 0.20069 0.0
H1495 H 0.77355 0.47884 0.19719 0.0
C1496 C 0.80179 0.42377 0.14934 0.0
C1497 C 0.78082 0.42494 0.14608 0.0
C1498 C 0.81221 0.44016 0.15753 0.0
C1499 C 0.80185 0.45799 0.16238 0.0
C1500 C 0.78121 0.45969 0.15772 0.0
H1501 H 0.84693 0.57545 0.18897 0.0
H1502 H 0.8381 0.54344 0.17322 0.0
C1503 C 0.7707 0.4432 0.14986 0.0
C1504 C 0.81243 0.47448 0.17307 0.0
H1505 H 0.80923 0.50465 0.21462 0.0
C1506 C 0.82995 0.48274 0.16442 0.0
C1507 C 0.80546 0.48182 0.19189 0.0
C1508 C 0.78789 0.47233 0.20296 0.0
C1509 C 0.84019 0.49881 0.17369 0.0
C1510 C 0.83226 0.5072 0.19169 0.0
C1511 C 0.81523 0.49835 0.20072 0.0
C1512 C 0.84037 0.52593 0.2008 0.0
C1513 C 0.85943 0.5065 0.16413 0.0
C1514 C 0.84436 0.52685 0.22164 0.0
C1515 C 0.84883 0.5453 0.23082 0.0
C1516 C 0.84961 0.56306 0.21923 0.0
C1517 C 0.84659 0.56196 0.19826 0.0
C1518 C 0.84173 0.54361 0.18917 0.0
H1519 H 0.86733 0.49424 0.1558 0.0
H1520 H 0.85566 0.5185 0.15304 0.0
H1521 H 0.86993 0.51285 0.17558 0.0
H1522 H 0.84332 0.51339 0.23091 0.0
H1523 H 0.8512 0.54575 0.24702 0.0
H1524 H 0.57457 0.80683 0.13086 0.0
H1525 H 0.54447 0.82548 0.1414 0.0
H1526 H 0.52169 0.77214 0.17118 0.0
H1527 H 0.55159 0.75325 0.16054 0.0
H1528 H 0.49214 0.79468 0.14958 0.0
H1529 H 0.5385 0.84228 0.20128 0.0
H1530 H 0.54598 0.8421 0.17517 0.0
H1531 H 0.54809 0.81943 0.18993 0.0
C1532 C 0.56304 0.79899 0.13946 0.0
C1533 C 0.56554 0.77866 0.14514 0.0
C1534 C 0.54592 0.80969 0.14549 0.0
C1535 C 0.53116 0.80024 0.15736 0.0
C1536 C 0.53305 0.77967 0.16208 0.0
H1537 H 0.44533 0.83511 0.24458 0.0
H1538 H 0.47517 0.82559 0.22506 0.0
C1539 C 0.55012 0.76892 0.15601 0.0
C1540 C 0.5143 0.81194 0.16596 0.0
H1541 H 0.50339 0.84776 0.20138 0.0
C1542 C 0.49452 0.80647 0.16071 0.0
C1543 C 0.51765 0.82714 0.1806 0.0
C1544 C 0.53867 0.83306 0.18726 0.0
C1545 C 0.47787 0.81545 0.17019 0.0
C1546 C 0.48122 0.83048 0.18502 0.0
C1547 C 0.50099 0.83635 0.18985 0.0
C1548 C 0.46445 0.83873 0.19709 0.0
C1549 C 0.45689 0.80811 0.16498 0.0
C1550 C 0.449 0.84993 0.18792 0.0
C1551 C 0.43189 0.85532 0.19899 0.0
C1552 C 0.4301 0.84965 0.2194 0.0
C1553 C 0.44623 0.83958 0.22885 0.0
C1554 C 0.46328 0.83415 0.21775 0.0
H1555 H 0.45721 0.79395 0.15596 0.0
H1556 H 0.44794 0.80538 0.17891 0.0
H1557 H 0.44899 0.81984 0.15598 0.0
H1558 H 0.44988 0.8539 0.17206 0.0
H1559 H 0.41981 0.86332 0.19136 0.0
H1560 H 0.19031 0.41901 0.86181 0.0
H1561 H 0.1719 0.44941 0.8518 0.0
H1562 H 0.22472 0.47123 0.8204 0.0
H1563 H 0.24339 0.44097 0.83052 0.0
H1564 H 0.20294 0.50129 0.84246 0.0
H1565 H 0.15372 0.45504 0.79221 0.0
H1566 H 0.15448 0.44756 0.81831 0.0
H1567 H 0.17682 0.44537 0.80304 0.0
C1568 C 0.1981 0.43039 0.85297 0.0
C1569 C 0.21819 0.4275 0.84665 0.0
C1570 C 0.18754 0.44769 0.84726 0.0
C1571 C 0.19687 0.46224 0.83505 0.0
C1572 C 0.21728 0.46002 0.82975 0.0
H1573 H 0.15773 0.54919 0.74996 0.0
H1574 H 0.16876 0.5192 0.76845 0.0
C1575 C 0.22791 0.44276 0.83553 0.0
C1576 C 0.18511 0.47916 0.82666 0.0
H1577 H 0.14788 0.49012 0.79269 0.0
C1578 C 0.19075 0.49892 0.83174 0.0
C1579 C 0.16939 0.47583 0.81254 0.0
C1580 C 0.16328 0.45483 0.80602 0.0
C1581 C 0.18131 0.51558 0.82273 0.0
C1582 C 0.16567 0.51225 0.80853 0.0
C1583 C 0.15976 0.4925 0.80375 0.0
C1584 C 0.1566 0.52908 0.79716 0.0
C1585 C 0.1887 0.53657 0.82781 0.0
C1586 C 0.14546 0.54407 0.80711 0.0
C1587 C 0.13917 0.56123 0.79662 0.0
C1588 C 0.14392 0.56357 0.77603 0.0
C1589 C 0.15395 0.54788 0.76584 0.0
C1590 C 0.16025 0.53075 0.77636 0.0
H1591 H 0.20325 0.53629 0.8362 0.0
H1592 H 0.19073 0.54567 0.81385 0.0
H1593 H 0.1773 0.54428 0.83739 0.0
H1594 H 0.14221 0.54279 0.82311 0.0
H1595 H 0.13124 0.57297 0.80483 0.0
H1596 H 0.57138 0.19063 0.86297 0.0
H1597 H 0.54062 0.17249 0.85341 0.0
H1598 H 0.5196 0.22497 0.82096 0.0
H1599 H 0.55019 0.24334 0.83055 0.0
H1600 H 0.48928 0.20413 0.84411 0.0
H1601 H 0.53398 0.1534 0.79397 0.0
H1602 H 0.54183 0.15467 0.81996 0.0
H1603 H 0.54415 0.17658 0.80413 0.0
C1604 C 0.5601 0.19841 0.854 0.0
C1605 C 0.56331 0.21831 0.84725 0.0
C1606 C 0.5426 0.188 0.84854 0.0
C1607 C 0.52813 0.19733 0.83622 0.0
C1608 C 0.53072 0.21754 0.83042 0.0
H1609 H 0.43986 0.15944 0.75206 0.0
H1610 H 0.46989 0.1704 0.77051 0.0
C1611 C 0.5482 0.22799 0.83589 0.0
C1612 C 0.51087 0.18574 0.82822 0.0
H1613 H 0.49876 0.14861 0.79456 0.0
C1614 C 0.49128 0.19183 0.83346 0.0
C1615 C 0.51371 0.16987 0.81419 0.0
C1616 C 0.53452 0.16326 0.80755 0.0
C1617 C 0.47431 0.18269 0.82466 0.0
C1618 C 0.47716 0.16695 0.81049 0.0
C1619 C 0.49675 0.16057 0.80559 0.0
C1620 C 0.46003 0.15826 0.79923 0.0
C1621 C 0.45353 0.19052 0.8299 0.0
C1622 C 0.44496 0.14724 0.80922 0.0
C1623 C 0.42776 0.14096 0.79874 0.0
C1624 C 0.42546 0.14561 0.77812 0.0
C1625 C 0.44114 0.15572 0.76795 0.0
C1626 C 0.4583 0.16198 0.77844 0.0
H1627 H 0.45419 0.20498 0.83841 0.0
H1628 H 0.44442 0.19287 0.816 0.0
H1629 H 0.44558 0.17921 0.83941 0.0
H1630 H 0.44626 0.14398 0.82521 0.0
H1631 H 0.41602 0.13304 0.80696 0.0
H1632 H 0.80518 0.58422 0.83877 0.0
H1633 H 0.82242 0.55417 0.82625 0.0
H1634 H 0.7665 0.52068 0.8293 0.0
H1635 H 0.7489 0.55099 0.84108 0.0
H1636 H 0.82868 0.51726 0.84082 0.0
H1637 H 0.78231 0.51265 0.77121 0.0
H1638 H 0.78137 0.53409 0.78799 0.0
H1639 H 0.76727 0.51152 0.79373 0.0
C1640 C 0.79654 0.57044 0.83686 0.0
C1641 C 0.77563 0.56998 0.84062 0.0
C1642 C 0.80643 0.55329 0.82973 0.0
C1643 C 0.79563 0.53537 0.82642 0.0
C1644 C 0.77496 0.53456 0.83119 0.0
H1645 H 0.84399 0.41646 0.80679 0.0
H1646 H 0.8328 0.4484 0.82132 0.0
C1647 C 0.76497 0.55182 0.83803 0.0
C1648 C 0.80594 0.51773 0.81748 0.0
H1649 H 0.80353 0.48452 0.77826 0.0
C1650 C 0.82329 0.51015 0.82706 0.0
C1651 C 0.79916 0.50885 0.79927 0.0
C1652 C 0.78164 0.51733 0.78733 0.0
C1653 C 0.83378 0.49353 0.81916 0.0
C1654 C 0.82628 0.48393 0.80159 0.0
C1655 C 0.80919 0.49182 0.7918 0.0
C1656 C 0.83533 0.46526 0.79336 0.0
C1657 C 0.8529 0.48669 0.82955 0.0
C1658 C 0.84026 0.46406 0.77276 0.0
C1659 C 0.84614 0.44568 0.7643 0.0
C1660 C 0.8474 0.4283 0.77639 0.0
C1661 C 0.84333 0.4297 0.79717 0.0
C1662 C 0.83708 0.44799 0.80554 0.0
H1663 H 0.86021 0.49935 0.83782 0.0
H1664 H 0.84912 0.47481 0.84078 0.0
H1665 H 0.86393 0.48037 0.8186 0.0
H1666 H 0.83897 0.47722 0.7631 0.0
H1667 H 0.84929 0.44499 0.74825 0.0
H1668 H 0.55073 0.83284 0.74552 0.0
H1669 H 0.51985 0.82211 0.76271 0.0
H1670 H 0.54043 0.85033 0.81775 0.0
H1671 H 0.5714 0.86108 0.80079 0.0
H1672 H 0.53047 0.80895 0.82136 0.0
H1673 H 0.46961 0.85275 0.78369 0.0
H1674 H 0.48675 0.84046 0.76659 0.0
H1675 H 0.49587 0.86023 0.78283 0.0
C1676 C 0.54851 0.83714 0.76116 0.0
C1677 C 0.56356 0.84764 0.77186 0.0
C1678 C 0.53083 0.83107 0.77092 0.0
C1679 C 0.52792 0.83555 0.79143 0.0
C1680 C 0.54247 0.84681 0.80189 0.0
H1681 H 0.41837 0.80342 0.85626 0.0
H1682 H 0.44846 0.8213 0.84459 0.0
C1683 C 0.56013 0.85292 0.79216 0.0
C1684 C 0.51074 0.82666 0.80242 0.0
H1685 H 0.45932 0.82418 0.80323 0.0
C1686 C 0.51489 0.81243 0.81759 0.0
C1687 C 0.49053 0.83139 0.7975 0.0
C1688 C 0.48535 0.84718 0.78189 0.0
C1689 C 0.49925 0.80223 0.82755 0.0
C1690 C 0.47906 0.8063 0.82198 0.0
C1691 C 0.47489 0.82104 0.80731 0.0
C1692 C 0.462 0.795 0.8307 0.0
C1693 C 0.50442 0.78714 0.84385 0.0
C1694 C 0.45989 0.77425 0.82691 0.0
C1695 C 0.44271 0.76395 0.83353 0.0
C1696 C 0.42737 0.77434 0.8439 0.0
C1697 C 0.42988 0.795 0.84822 0.0
C1698 C 0.44703 0.80526 0.84158 0.0
H1699 H 0.51993 0.78953 0.84984 0.0
H1700 H 0.4935 0.78807 0.85656 0.0
H1701 H 0.50365 0.77165 0.83746 0.0
H1702 H 0.4712 0.76619 0.81826 0.0
H1703 H 0.44117 0.74805 0.82993 0.0
H1704 H 0.13093 0.18393 0.57352 0.0
H1705 H 0.14148 0.16661 0.54261 0.0
H1706 H 0.16805 0.2219 0.52054 0.0
H1707 H 0.15741 0.23944 0.55119 0.0
H1708 H 0.14629 0.19947 0.49109 0.0
H1709 H 0.20183 0.15271 0.53371 0.0
H1710 H 0.17605 0.1515 0.54224 0.0
H1711 H 0.1899 0.17473 0.54451 0.0
C1712 C 0.13882 0.19247 0.56198 0.0
C1713 C 0.14358 0.21298 0.56487 0.0
C1714 C 0.14488 0.18252 0.54441 0.0
C1715 C 0.15582 0.19294 0.52957 0.0
C1716 C 0.15968 0.21363 0.53194 0.0
H1717 H 0.24044 0.16141 0.43878 0.0
H1718 H 0.22216 0.17115 0.46936 0.0
C1719 C 0.15361 0.2236 0.54946 0.0
C1720 C 0.16425 0.1822 0.512 0.0
H1721 H 0.20053 0.14816 0.49847 0.0
C1722 C 0.15799 0.18808 0.49264 0.0
C1723 C 0.17965 0.16756 0.51424 0.0
C1724 C 0.18743 0.16129 0.53476 0.0
C1725 C 0.16707 0.17998 0.47533 0.0
C1726 C 0.18256 0.16542 0.47757 0.0
C1727 C 0.18852 0.15922 0.49692 0.0
C1728 C 0.19384 0.1577 0.46001 0.0
C1729 C 0.16065 0.18769 0.45483 0.0
C1730 C 0.18404 0.1464 0.44502 0.0
C1731 C 0.19439 0.14089 0.42752 0.0
C1732 C 0.21473 0.14651 0.42485 0.0
C1733 C 0.22477 0.15694 0.44038 0.0
C1734 C 0.21437 0.1625 0.45784 0.0
H1735 H 0.15139 0.20166 0.45596 0.0
H1736 H 0.17404 0.19089 0.44523 0.0
H1737 H 0.15144 0.17596 0.44714 0.0
H1738 H 0.16828 0.14226 0.44667 0.0
H1739 H 0.18632 0.13263 0.41591 0.0
H1740 H 0.74591 0.14714 0.55112 0.0
H1741 H 0.76113 0.15739 0.51896 0.0
H1742 H 0.81935 0.16224 0.54807 0.0
H1743 H 0.80452 0.15113 0.57981 0.0
H1744 H 0.77759 0.19186 0.51044 0.0
H1745 H 0.83552 0.13311 0.49826 0.0
H1746 H 0.81593 0.1305 0.51705 0.0
H1747 H 0.83866 0.1445 0.52261 0.0
C1748 C 0.76202 0.15006 0.55051 0.0
C1749 C 0.77406 0.14829 0.56789 0.0
C1750 C 0.77069 0.15589 0.53217 0.0
C1751 C 0.79145 0.16023 0.53103 0.0
C1752 C 0.80345 0.15832 0.54839 0.0
H1753 H 0.84383 0.24453 0.44625 0.0
H1754 H 0.8306 0.2273 0.47618 0.0
C1755 C 0.7949 0.15214 0.56659 0.0
C1756 C 0.80027 0.16854 0.51226 0.0
H1757 H 0.84069 0.1646 0.48053 0.0
C1758 C 0.79124 0.18572 0.50373 0.0
C1759 C 0.81791 0.16037 0.50335 0.0
C1760 C 0.8274 0.14097 0.51069 0.0
C1761 C 0.79967 0.19533 0.48688 0.0
C1762 C 0.81811 0.18802 0.47888 0.0
C1763 C 0.82681 0.17046 0.48699 0.0
C1764 C 0.82824 0.19803 0.46168 0.0
C1765 C 0.78852 0.21299 0.47768 0.0
C1766 C 0.83255 0.18699 0.44413 0.0
C1767 C 0.84062 0.19666 0.42725 0.0
C1768 C 0.84428 0.21758 0.4276 0.0
C1769 C 0.84089 0.22844 0.44551 0.0
C1770 C 0.83317 0.21866 0.46253 0.0
H1771 H 0.77215 0.21257 0.48145 0.0
H1772 H 0.79478 0.22729 0.48381 0.0
H1773 H 0.79012 0.2132 0.46098 0.0
H1774 H 0.82902 0.17103 0.44323 0.0
H1775 H 0.84309 0.18789 0.41365 0.0
H1776 H 0.75447 0.83696 0.44145 0.0
H1777 H 0.77378 0.82591 0.4709 0.0
H1778 H 0.82868 0.84808 0.44357 0.0
H1779 H 0.80955 0.8591 0.41396 0.0
H1780 H 0.8305 0.80759 0.45623 0.0
H1781 H 0.80133 0.85756 0.5168 0.0
H1782 H 0.78171 0.84565 0.50231 0.0
H1783 H 0.79846 0.86335 0.49027 0.0
C1784 C 0.77059 0.83981 0.44184 0.0
C1785 C 0.78051 0.8488 0.42536 0.0
C1786 C 0.78158 0.83358 0.45871 0.0
C1787 C 0.80258 0.83635 0.4594 0.0
C1788 C 0.81244 0.8459 0.44328 0.0
H1789 H 0.86675 0.80213 0.56904 0.0
H1790 H 0.85779 0.82031 0.5382 0.0
C1791 C 0.80148 0.85218 0.42641 0.0
C1792 C 0.81438 0.82768 0.47617 0.0
H1793 H 0.81815 0.82731 0.52749 0.0
C1794 C 0.82807 0.81208 0.47181 0.0
C1795 C 0.81131 0.83377 0.49638 0.0
C1796 C 0.79755 0.85114 0.50175 0.0
C1797 C 0.83808 0.80169 0.48731 0.0
C1798 C 0.83402 0.80696 0.50759 0.0
C1799 C 0.82109 0.82322 0.51188 0.0
C1800 C 0.84195 0.79509 0.5247 0.0
C1801 C 0.85267 0.78504 0.48188 0.0
C1802 C 0.8363 0.77479 0.52706 0.0
C1803 C 0.84139 0.76433 0.54465 0.0
C1804 C 0.85201 0.77414 0.5602 0.0
C1805 C 0.85841 0.79421 0.55738 0.0
C1806 C 0.85335 0.80462 0.53978 0.0
H1807 H 0.85866 0.78697 0.46631 0.0
H1808 H 0.86556 0.78453 0.49263 0.0
H1809 H 0.84469 0.7703 0.48254 0.0
H1810 H 0.82715 0.76731 0.51572 0.0
H1811 H 0.83621 0.74889 0.54642 0.0
H1812 H 0.1588 0.7511 0.44188 0.0
H1813 H 0.16904 0.76818 0.47297 0.0
H1814 H 0.14394 0.82411 0.45077 0.0
H1815 H 0.1338 0.80726 0.41954 0.0
H1816 H 0.18382 0.82729 0.46323 0.0
H1817 H 0.13697 0.78943 0.52149 0.0
H1818 H 0.15019 0.77206 0.50537 0.0
H1819 H 0.13109 0.78829 0.49485 0.0
C1820 C 0.15514 0.76695 0.44375 0.0
C1821 C 0.14562 0.77787 0.42823 0.0
C1822 C 0.1609 0.77665 0.46156 0.0
C1823 C 0.15706 0.79734 0.46417 0.0
C1824 C 0.14695 0.80811 0.449 0.0
H1825 H 0.1869 0.85822 0.57707 0.0
H1826 H 0.16923 0.84788 0.54634 0.0
C1827 C 0.1412 0.79845 0.43119 0.0
C1828 C 0.16526 0.80807 0.48188 0.0
H1829 H 0.16582 0.80786 0.53336 0.0
C1830 C 0.17971 0.82325 0.47858 0.0
C1831 C 0.15967 0.80288 0.50181 0.0
C1832 C 0.14348 0.78741 0.50614 0.0
C1833 C 0.18936 0.83285 0.49478 0.0
C1834 C 0.18459 0.82684 0.51469 0.0
C1835 C 0.16954 0.81227 0.51802 0.0
C1836 C 0.19568 0.83477 0.53231 0.0
C1837 C 0.20468 0.84919 0.49046 0.0
C1838 C 0.21642 0.83092 0.53442 0.0
C1839 C 0.22658 0.83679 0.55193 0.0
C1840 C 0.21608 0.84644 0.56765 0.0
C1841 C 0.1954 0.85075 0.56524 0.0
C1842 C 0.18527 0.84487 0.54772 0.0
H1843 H 0.20238 0.85593 0.47525 0.0
H1844 H 0.2039 0.8614 0.50195 0.0
H1845 H 0.22008 0.84257 0.4909 0.0
H1846 H 0.22461 0.82281 0.52279 0.0
H1847 H 0.2425 0.8332 0.55337 0.0
H1848 H 0.65915 0.9041 0.68538 0.0
H1849 H 0.6751 0.93262 0.66829 0.0
H1850 H 0.67246 0.96727 0.7235 0.0
H1851 H 0.65734 0.93839 0.74097 0.0
H1852 H 0.66343 0.96936 0.66044 0.0
H1853 H 0.73087 0.97315 0.7096 0.0
H1854 H 0.7132 0.95242 0.7107 0.0
H1855 H 0.70814 0.97559 0.72411 0.0
C1856 C 0.66193 0.91782 0.69388 0.0
C1857 C 0.65718 0.91904 0.71454 0.0
C1858 C 0.67107 0.93407 0.68409 0.0
C1859 C 0.67542 0.95186 0.69475 0.0
C1860 C 0.66987 0.95342 0.71518 0.0
H1861 H 0.69324 0.07062 0.64973 0.0
H1862 H 0.68049 0.03744 0.65911 0.0
C1863 C 0.66106 0.93702 0.72509 0.0
C1864 C 0.68551 0.96889 0.68441 0.0
H1865 H 0.72434 0.00238 0.6891 0.0
C1866 C 0.67691 0.97644 0.66655 0.0
C1867 C 0.70343 0.97771 0.69205 0.0
C1868 C 0.71457 0.96913 0.71003 0.0
C1869 C 0.6852 0.9932 0.65665 0.0
C1870 C 0.70208 0.00309 0.66529 0.0
C1871 C 0.71123 0.99495 0.68261 0.0
C1872 C 0.70967 0.02264 0.65758 0.0
C1873 C 0.67579 6e-05 0.63703 0.0
C1874 C 0.7304 0.02549 0.65401 0.0
C1875 C 0.73783 0.04463 0.64918 0.0
C1876 C 0.72458 0.06114 0.64768 0.0
C1877 C 0.70378 0.05812 0.65059 0.0
C1878 C 0.69643 0.0391 0.65577 0.0
H1879 H 0.66889 0.98713 0.62881 0.0
H1880 H 0.66353 0.01103 0.64032 0.0
H1881 H 0.68705 0.00741 0.62699 0.0
H1882 H 0.74089 0.01299 0.65544 0.0
H1883 H 0.75394 0.04657 0.64695 0.0
H1884 H 0.91978 0.68699 0.63221 0.0
H1885 H 0.9505 0.66978 0.64341 0.0
H1886 H 0.97165 0.72501 0.67084 0.0
H1887 H 0.94111 0.74246 0.65957 0.0
H1888 H 0.0016 0.70287 0.64913 0.0
H1889 H 0.95865 0.65545 0.70381 0.0
H1890 H 0.95024 0.65444 0.67799 0.0
H1891 H 0.94791 0.67757 0.692 0.0
C1892 C 0.93104 0.69553 0.64049 0.0
C1893 C 0.92794 0.71601 0.64525 0.0
C1894 C 0.94852 0.68565 0.6469 0.0
C1895 C 0.96305 0.69609 0.65822 0.0
C1896 C 0.96047 0.71674 0.66218 0.0
H1897 H 0.05412 0.66185 0.74199 0.0
H1898 H 0.02358 0.67262 0.72422 0.0
C1899 C 0.94303 0.72666 0.65575 0.0
C1900 C 0.98058 0.68538 0.66675 0.0
H1901 H 0.99388 0.65046 0.70226 0.0
C1902 C -2e-05 0.69128 0.66061 0.0
C1903 C 0.97824 0.67045 0.68186 0.0
C1904 C 0.95767 0.66415 0.68948 0.0
C1905 C 0.01724 0.68282 0.66947 0.0
C1906 C 0.0149 0.66791 0.68461 0.0
C1907 C 0.9955 0.66179 0.69051 0.0
C1908 C 0.03242 0.65964 0.69553 0.0
C1909 C 0.0378 0.69044 0.66315 0.0
C1910 C 0.04709 0.64827 0.68535 0.0
C1911 C 0.06456 0.64215 0.69541 0.0
C1912 C 0.06752 0.64725 0.71584 0.0
C1913 C 0.0523 0.65778 0.72624 0.0
C1914 C 0.03486 0.66392 0.71613 0.0
H1915 H 0.0368 0.70464 0.65424 0.0
H1916 H 0.0475 0.6932 0.67657 0.0
H1917 H 0.04531 0.67885 0.65364 0.0
H1918 H 0.04521 0.64454 0.66952 0.0
H1919 H 0.07593 0.63386 0.68706 0.0
H1920 H 0.3369 0.05021 0.73731 0.0
H1921 H 0.32745 0.02049 0.71762 0.0
H1922 H 0.34921 0.04923 0.6633 0.0
H1923 H 0.35862 0.07915 0.68282 0.0
H1924 H 0.30956 0.03516 0.66055 0.0
H1925 H 0.36059 0.97586 0.69028 0.0
H1926 H 0.348 0.98967 0.70994 0.0
H1927 H 0.36552 0.00252 0.69358 0.0
C1928 C 0.34003 0.05009 0.72124 0.0
C1929 C 0.34839 0.06706 0.7116 0.0
C1930 C 0.33472 0.03305 0.71004 0.0
C1931 C 0.33782 0.03266 0.68907 0.0
C1932 C 0.34681 0.04927 0.6795 0.0
H1933 H 0.30463 0.92115 0.62714 0.0
H1934 H 0.32291 0.95227 0.63489 0.0
C1935 C 0.35216 0.06632 0.69069 0.0
C1936 C 0.32984 0.0157 0.67704 0.0
H1937 H 0.33028 0.96435 0.6738 0.0
C1938 C 0.31431 0.01969 0.66314 0.0
C1939 C 0.33629 0.99563 0.68028 0.0
C1940 C 0.35366 0.99065 0.69418 0.0
C1941 C 0.30422 0.00392 0.65324 0.0
C1942 C 0.30968 0.98376 0.65763 0.0
C1943 C 0.32601 0.97986 0.67061 0.0
C1944 C 0.29777 0.96642 0.65026 0.0
C1945 C 0.28757 0.00897 0.6385 0.0
C1946 C 0.27748 0.96429 0.65605 0.0
C1947 C 0.26696 0.94655 0.65166 0.0
C1948 C 0.2767 0.93059 0.6416 0.0
C1949 C 0.29676 0.93313 0.63504 0.0
C1950 C 0.30723 0.95089 0.63941 0.0
H1951 H 0.28958 0.02433 0.63203 0.0
H1952 H 0.28696 -0.00216 0.62595 0.0
H1953 H 0.27284 0.00867 0.64652 0.0
H1954 H 0.27005 0.97595 0.66481 0.0
H1955 H 0.25154 0.94501 0.65695 0.0
H1956 H 0.07417 0.30334 0.63121 0.0
H1957 H 0.04457 0.32258 0.64211 0.0
H1958 H 0.02033 0.26931 0.67082 0.0
H1959 H 0.04973 0.24984 0.65987 0.0
H1960 H 0.99149 0.29316 0.64929 0.0
H1961 H 0.03868 0.33821 0.70251 0.0
H1962 H 0.0465 0.33826 0.67649 0.0
H1963 H 0.04766 0.31526 0.69083 0.0
C1964 C 0.06242 0.29564 0.63965 0.0
C1965 C 0.06438 0.27515 0.64495 0.0
C1966 C 0.0456 0.30668 0.64589 0.0
C1967 C 0.03058 0.2974 0.65756 0.0
C1968 C 0.0319 0.2767 0.6619 0.0
H1969 H 0.94364 0.33449 0.74352 0.0
H1970 H 0.97371 0.32382 0.72492 0.0
C1971 C 0.04869 0.26562 0.65564 0.0
C1972 C 0.01398 0.30937 0.66628 0.0
H1973 H 0.00376 0.34498 0.70214 0.0
C1974 C 0.99411 0.30466 0.66068 0.0
C1975 C 0.01762 0.32418 0.68127 0.0
C1976 C 0.03874 0.32925 0.68831 0.0
C1977 C 0.97763 0.3141 0.67002 0.0
C1978 C 0.98127 0.3288 0.68511 0.0
C1979 C 0.00115 0.33382 0.69041 0.0
C1980 C 0.96456 0.33774 0.69677 0.0
C1981 C 0.95649 0.30764 0.66432 0.0
C1982 C 0.94998 0.34975 0.68722 0.0
C1983 C 0.93277 0.35581 0.69776 0.0
C1984 C 0.93 0.34999 0.71802 0.0
C1985 C 0.94532 0.33911 0.7279 0.0
C1986 C 0.96248 0.33301 0.71732 0.0
H1987 H 0.95644 0.29354 0.6552 0.0
H1988 H 0.94714 0.30519 0.67804 0.0
H1989 H 0.94926 0.31974 0.65523 0.0
H1990 H 0.95159 0.35383 0.67145 0.0
H1991 H 0.92134 0.36443 0.68982 0.0
H1992 H 0.68803 0.92122 0.36297 0.0
H1993 H 0.66969 0.95153 0.35246 0.0
H1994 H 0.72343 0.97407 0.32322 0.0
H1995 H 0.74199 0.94397 0.33378 0.0
H1996 H 0.70057 0.00373 0.34487 0.0
H1997 H 0.65392 0.95763 0.29205 0.0
H1998 H 0.65381 0.94998 0.31813 0.0
H1999 H 0.67668 0.94804 0.30365 0.0
C2000 C 0.69603 0.93275 0.35454 0.0
C2001 C 0.71637 0.9301 0.34892 0.0
C2002 C 0.68551 0.94999 0.34852 0.0
C2003 C 0.69516 0.96474 0.33678 0.0
C2004 C 0.71575 0.96272 0.33221 0.0
H2005 H 0.66082 0.05153 0.24964 0.0
H2006 H 0.67101 0.02173 0.26893 0.0
C2007 C 0.7263 0.94552 0.33823 0.0
C2008 C 0.68364 0.98165 0.32805 0.0
H2009 H 0.64853 0.99274 0.29193 0.0
C2010 C 0.689 0.0014 0.33348 0.0
C2011 C 0.66875 0.97838 0.31305 0.0
C2012 C 0.66298 0.95739 0.3062 0.0
C2013 C 0.68018 0.0181 0.32392 0.0
C2014 C 0.66545 0.01482 0.30877 0.0
C2015 C 0.65973 0.99508 0.30369 0.0
C2016 C 0.65717 0.03168 0.29684 0.0
C2017 C 0.68732 0.03906 0.32944 0.0
C2018 C 0.64545 0.04669 0.30606 0.0
C2019 C 0.63965 0.06375 0.29512 0.0
C2020 C 0.64546 0.06595 0.27479 0.0
C2021 C 0.65621 0.0503 0.2653 0.0
C2022 C 0.66203 0.03328 0.27627 0.0
H2023 H 0.70131 0.03874 0.33872 0.0
H2024 H 0.69026 0.04813 0.31562 0.0
H2025 H 0.67537 0.04683 0.33827 0.0
H2026 H 0.64129 0.04547 0.32185 0.0
H2027 H 0.63115 0.07546 0.30279 0.0
H2028 H 0.91715 0.6375 0.30704 0.0
H2029 H 0.94718 0.65085 0.32393 0.0
H2030 H 0.96753 0.67673 0.26767 0.0
H2031 H 0.93764 0.66335 0.25055 0.0
H2032 H -0.00192 0.65685 0.29087 0.0
H2033 H 0.95338 0.71222 0.33569 0.0
H2034 H 0.94547 0.68629 0.33765 0.0
H2035 H 0.94318 0.69928 0.31393 0.0
C2036 C 0.9281 0.64587 0.2982 0.0
C2037 C 0.92495 0.64957 0.27751 0.0
C2038 C 0.94516 0.65354 0.3079 0.0
C2039 C 0.95926 0.66505 0.29707 0.0
C2040 C 0.95667 0.66797 0.27625 0.0
H2041 H 0.05072 0.74972 0.33183 0.0
H2042 H 0.01988 0.73272 0.32054 0.0
C2043 C 0.93962 0.66031 0.26652 0.0
C2044 C 0.97647 0.67457 0.30749 0.0
H2045 H 0.98856 0.71113 0.34179 0.0
C2046 C 0.99606 0.66863 0.30209 0.0
C2047 C 0.97361 0.69009 0.3219 0.0
C2048 C 0.9528 0.69753 0.32758 0.0
C2049 C 0.01301 0.6779 0.31073 0.0
C2050 C 0.01016 0.69326 0.32531 0.0
C2051 C 0.99057 0.69918 0.33074 0.0
C2052 C 0.02746 0.70402 0.33427 0.0
C2053 C 0.03381 0.67161 0.30377 0.0
C2054 C 0.04141 0.69364 0.34633 0.0
C2055 C 0.05903 0.70325 0.35275 0.0
C2056 C 0.06286 0.72342 0.34726 0.0
C2057 C 0.04822 0.73415 0.33621 0.0
C2058 C 0.03062 0.72448 0.32976 0.0
H2059 H 0.03325 0.66267 0.28957 0.0
H2060 H 0.04358 0.68504 0.30129 0.0
H2061 H 0.04097 0.66213 0.31561 0.0
H2062 H 0.03897 0.67792 0.35024 0.0
H2063 H 0.06991 0.69466 0.36147 0.0
H2064 H 0.36035 0.91631 0.31111 0.0
H2065 H 0.34898 0.94668 0.32882 0.0
H2066 H 0.32131 0.96848 0.27397 0.0
H2067 H 0.33272 0.93831 0.25604 0.0
H2068 H 0.34316 -0.00187 0.29652 0.0
H2069 H 0.28843 0.95451 0.34332 0.0
H2070 H 0.3143 0.9462 0.34405 0.0
H2071 H 0.30015 0.9441 0.321 0.0
C2072 C 0.352 0.92765 0.30275 0.0
C2073 C 0.34721 0.92484 0.28223 0.0
C2074 C 0.34548 0.94492 0.31293 0.0
C2075 C 0.33405 0.95953 0.30274 0.0
C2076 C 0.33005 0.95724 0.28206 0.0
H2077 H 0.24937 0.05004 0.3339 0.0
H2078 H 0.2675 0.01915 0.32495 0.0
C2079 C 0.33657 0.94 0.27186 0.0
C2080 C 0.32548 0.9769 0.31367 0.0
H2081 H 0.28933 0.98976 0.34811 0.0
C2082 C 0.33156 0.99637 0.30797 0.0
C2083 C 0.31022 0.97437 0.32842 0.0
C2084 C 0.30271 0.9537 0.33453 0.0
C2085 C 0.32242 0.01351 0.31635 0.0
C2086 C 0.30705 0.01098 0.33099 0.0
C2087 C 0.30126 0.99152 0.33701 0.0
C2088 C 0.29564 0.02839 0.33884 0.0
C2089 C 0.32865 0.03414 0.30883 0.0
C2090 C 0.30534 0.04336 0.35024 0.0
C2091 C 0.29507 0.06104 0.35531 0.0
C2092 C 0.27494 0.06392 0.34911 0.0
C2093 C 0.2649 0.04831 0.33879 0.0
C2094 C 0.27521 0.03066 0.33368 0.0
H2095 H 0.33797 0.03325 0.29489 0.0
H2096 H 0.31515 0.04361 0.30566 0.0
H2097 H 0.33771 0.04184 0.32066 0.0
H2098 H 0.32102 0.04164 0.35464 0.0
H2099 H 0.30313 0.07271 0.36352 0.0
H2100 H 0.07442 0.36027 0.30776 0.0
H2101 H 0.0437 0.34856 0.32464 0.0
H2102 H 0.02247 0.32291 0.2686 0.0
H2103 H 0.05302 0.33468 0.25149 0.0
H2104 H 0.99254 0.34399 0.29159 0.0
H2105 H 0.03549 0.28756 0.33687 0.0
H2106 H 0.04406 0.31329 0.33867 0.0
H2107 H 0.04615 0.30005 0.31508 0.0
C2108 C 0.06313 0.35231 0.29897 0.0
C2109 C 0.06623 0.34817 0.27835 0.0
C2110 C 0.04566 0.34559 0.30866 0.0
C2111 C 0.03111 0.3346 0.2979 0.0
C2112 C 0.03366 0.3313 0.27713 0.0
H2113 H 0.9388 0.25092 0.33107 0.0
H2114 H 0.96958 0.26823 0.32014 0.0
C2115 C 0.05111 0.33802 0.26741 0.0
C2116 C 0.01358 0.32572 0.30835 0.0
H2117 H 0.0003 0.28922 0.34227 0.0
C2118 C 0.99418 0.33213 0.30279 0.0
C2119 C 0.01593 0.3101 0.32275 0.0
C2120 C 0.0365 0.30217 0.32865 0.0
C2121 C 0.97692 0.32315 0.31114 0.0
C2122 C 0.97927 0.30757 0.32559 0.0
C2123 C -0.00133 0.3013 0.33131 0.0
C2124 C 0.96169 0.29679 0.33398 0.0
C2125 C 0.95634 0.32988 0.30394 0.0
C2126 C 0.94751 0.30702 0.3459 0.0
C2127 C 0.92992 0.29722 0.35213 0.0
C2128 C 0.92634 0.27702 0.34658 0.0
C2129 C 0.9411 0.26651 0.33551 0.0
C2130 C 0.95867 0.27636 0.32926 0.0
H2131 H 0.95727 0.33908 0.28992 0.0
H2132 H 0.94643 0.31665 0.30103 0.0
H2133 H 0.94911 0.33924 0.31583 0.0
H2134 H 0.94983 0.32271 0.34997 0.0
H2135 H 0.91892 0.30565 0.36085 0.0
H2136 H 0.69336 0.63024 0.92482 0.0
H2137 H 0.67742 0.64214 0.9559 0.0
H2138 H 0.73152 0.67514 0.97124 0.0
H2139 H 0.74772 0.66328 0.94019 0.0
H2140 H 0.71119 0.6538 0.00453 0.0
H2141 H 0.6608 0.70329 0.95874 0.0
H2142 H 0.66115 0.67696 0.95197 0.0
H2143 H 0.68348 0.69201 0.94858 0.0
C2144 C 0.702 0.63979 0.93493 0.0
C2145 C 0.72169 0.6461 0.92993 0.0
C2146 C 0.69285 0.64658 0.95263 0.0
C2147 C 0.70323 0.65976 0.96553 0.0
C2148 C 0.72331 0.66504 0.9613 0.0
H2149 H 0.66355 0.74576 0.05365 0.0
H2150 H 0.6767 0.72801 0.02402 0.0
C2151 C 0.73251 0.65825 0.94359 0.0
C2152 C 0.6927 0.66921 0.98267 0.0
H2153 H 0.656 0.70357 0.99406 0.0
C2154 C 0.69905 0.6646 0.00233 0.0
C2155 C 0.67707 0.68344 0.97953 0.0
C2156 C 0.67025 0.68941 0.95858 0.0
C2157 C 0.69008 0.67392 0.01909 0.0
C2158 C 0.67433 0.68801 0.01595 0.0
C2159 C 0.66798 0.69261 0.99629 0.0
C2160 C 0.6649 0.69883 0.03292 0.0
C2161 C 0.69785 0.66905 0.03998 0.0
C2162 C 0.6534 0.68832 0.04725 0.0
C2163 C 0.64584 0.69838 0.06413 0.0
C2164 C 0.64968 0.71911 0.06689 0.0
C2165 C 0.66041 0.72977 0.05198 0.0
C2166 C 0.66794 0.71968 0.03509 0.0
H2167 H 0.71253 0.6609 0.0395 0.0
H2168 H 0.69976 0.68307 0.049 0.0
H2169 H 0.68671 0.65931 0.04788 0.0
H2170 H 0.65064 0.67227 0.04556 0.0
H2171 H 0.63747 0.68978 0.07527 0.0
H2172 H 0.24884 0.66368 0.05277 0.0
H2173 H 0.26672 0.6738 0.02206 0.0
H2174 H 0.3213 0.64598 0.04438 0.0
H2175 H 0.30366 0.63591 0.07519 0.0
H2176 H 0.32596 0.68633 0.03233 0.0
H2177 H 0.2873 0.64067 0.97357 0.0
H2178 H 0.27031 0.6543 0.98977 0.0
H2179 H 0.28594 0.63464 0.00016 0.0
C2180 C 0.26456 0.65943 0.05101 0.0
C2181 C 0.27488 0.64911 0.06643 0.0
C2182 C 0.27471 0.66514 0.03343 0.0
C2183 C 0.29524 0.66046 0.03097 0.0
C2184 C 0.30542 0.64965 0.04605 0.0
H2185 H 0.35882 0.68739 0.91902 0.0
H2186 H 0.34787 0.67052 0.94997 0.0
C2187 C 0.29531 0.64393 0.06362 0.0
C2188 C 0.30647 0.66832 0.01343 0.0
H2189 H 0.30716 0.66856 0.96196 0.0
C2190 C 0.32205 0.68228 0.01693 0.0
C2191 C 0.30142 0.66279 0.99345 0.0
C2192 C 0.28546 0.64713 0.98896 0.0
C2193 C 0.33223 0.69152 0.00084 0.0
C2194 C 0.32644 0.68679 0.98086 0.0
C2195 C 0.31142 0.67223 0.97736 0.0
C2196 C 0.33504 0.69745 0.96332 0.0
C2197 C 0.34896 0.70636 0.00533 0.0
C2198 C 0.33162 0.71821 0.9608 0.0
C2199 C 0.33782 0.72792 0.94315 0.0
C2200 C 0.3474 0.71693 0.92771 0.0
C2201 C 0.35141 0.69626 0.93061 0.0
C2202 C 0.34518 0.68658 0.94825 0.0
H2203 H 0.35523 0.70413 0.02075 0.0
H2204 H 0.36142 0.70497 0.99417 0.0
H2205 H 0.34287 0.72196 0.00444 0.0
H2206 H 0.3235 0.72675 0.97216 0.0
H2207 H 0.33448 0.74385 0.94133 0.0
H2208 H 0.24582 0.34706 0.94275 0.0
H2209 H 0.2603 0.33738 0.97539 0.0
H2210 H 0.31904 0.33145 0.94756 0.0
H2211 H 0.30489 0.34203 0.91527 0.0
H2212 H 0.27592 0.30272 0.98437 0.0
H2213 H 0.33459 0.36061 -0.0024 0.0
H2214 H 0.31554 0.3634 0.97828 0.0
H2215 H 0.33807 0.34885 0.97347 0.0
C2216 C 0.2619 0.34407 0.94375 0.0
C2217 C 0.27427 0.34532 0.92657 0.0
C2218 C 0.27014 0.33856 0.96236 0.0
C2219 C 0.29081 0.33398 0.96398 0.0
C2220 C 0.3032 0.33552 0.94685 0.0
H2221 H 0.34012 0.25013 0.05105 0.0
H2222 H 0.32714 0.26701 0.02081 0.0
C2223 C 0.29505 0.34142 0.92835 0.0
C2224 C 0.29902 0.32568 0.98302 0.0
H2225 H 0.33842 0.3294 0.01605 0.0
C2226 C 0.28943 0.30874 0.99146 0.0
C2227 C 0.31651 0.33367 0.99239 0.0
C2228 C 0.32661 0.35277 0.98506 0.0
C2229 C 0.29711 0.29925 0.00872 0.0
C2230 C 0.31535 0.30641 0.01727 0.0
C2231 C 0.32465 0.32369 0.0092 0.0
C2232 C 0.32475 0.29647 0.03491 0.0
C2233 C 0.28538 0.28187 0.01774 0.0
C2234 C 0.32878 0.30768 0.05243 0.0
C2235 C 0.33667 0.2982 0.06949 0.0
C2236 C 0.34046 0.27731 0.06936 0.0
C2237 C 0.33707 0.26621 0.0516 0.0
C2238 C 0.32952 0.27579 0.03441 0.0
H2239 H 0.26915 0.2825 0.01344 0.0
H2240 H 0.2916 0.26741 0.01197 0.0
H2241 H 0.28644 0.28182 0.03449 0.0
H2242 H 0.32533 0.32368 0.05307 0.0
H2243 H 0.33914 0.30714 0.08299 0.0
H2244 H 0.74362 0.35249 0.04608 0.0
H2245 H 0.72809 0.34446 0.0135 0.0
H2246 H 0.66963 0.34075 0.04228 0.0
H2247 H 0.68488 0.34978 0.07455 0.0
H2248 H 0.71151 0.31042 0.00518 0.0
H2249 H 0.65388 0.36925 0.992 0.0
H2250 H 0.6732 0.37188 0.01108 0.0
H2251 H 0.65038 0.35792 0.01633 0.0
C2252 C 0.72738 0.35044 0.0453 0.0
C2253 C 0.71543 0.35169 0.06277 0.0
C2254 C 0.71853 0.34588 0.02672 0.0
C2255 C 0.69765 0.34221 0.02538 0.0
C2256 C 0.68564 0.3441 0.04276 0.0
H2257 H 0.64586 0.25675 0.94213 0.0
H2258 H 0.65833 0.27506 0.97173 0.0
C2259 C 0.69442 0.34909 0.06126 0.0
C2260 C 0.68891 0.33387 0.00657 0.0
H2261 H 0.64883 0.33761 0.97431 0.0
C2262 C 0.69797 0.31659 -0.00173 0.0
C2263 C 0.67137 0.342 -0.00259 0.0
C2264 C 0.6618 0.36142 0.00457 0.0
C2265 C 0.6897 0.30686 0.98144 0.0
C2266 C 0.67136 0.31412 0.97319 0.0
C2267 C 0.66264 0.3318 0.981 0.0
C2268 C 0.66133 0.30371 0.95618 0.0
C2269 C 0.70087 0.28903 0.97257 0.0
C2270 C 0.65765 0.31409 0.93808 0.0
C2271 C 0.65008 0.3038 0.92132 0.0
C2272 C 0.64627 0.28292 0.92239 0.0
C2273 C 0.64895 0.27279 0.94084 0.0
C2274 C 0.65618 0.28318 0.95768 0.0
H2275 H 0.7172 0.28942 0.9765 0.0
H2276 H 0.69447 0.27484 0.97881 0.0
H2277 H 0.69943 0.28863 0.95586 0.0
H2278 H 0.66137 0.32998 0.93668 0.0
H2279 H 0.64814 0.312 0.90729 0.0
H2280 H 0.17785 0.32942 0.28512 0.0
H2281 H 0.1885 0.29806 0.30149 0.0
H2282 H 0.12599 0.2807 0.30893 0.0
H2283 H 0.11543 0.31142 0.29117 0.0
H2284 H 0.1846 0.28062 0.33562 0.0
H2285 H 0.14533 0.23292 0.27907 0.0
H2286 H 0.14698 0.25996 0.2766 0.0
H2287 H 0.12815 0.24872 0.29278 0.0
C2288 C 0.16643 0.319 0.29051 0.0
C2289 C 0.14589 0.32261 0.2868 0.0
C2290 C 0.17249 0.30106 0.29981 0.0
C2291 C 0.15807 0.28668 0.30589 0.0
C2292 C 0.13743 0.29114 0.30364 0.0
H2293 H 0.20271 0.18353 0.37624 0.0
H2294 H 0.18433 0.21411 0.36636 0.0
C2295 C 0.13139 0.30877 0.29376 0.0
C2296 C 0.1648 0.26679 0.3138 0.0
H2297 H 0.16037 0.21588 0.30663 0.0
C2298 C 0.17932 0.26646 0.32926 0.0
C2299 C 0.15816 0.2483 0.30525 0.0
C2300 C 0.14398 0.24745 0.28737 0.0
C2301 C 0.1877 0.24825 0.33614 0.0
C2302 C 0.18051 0.22972 0.32813 0.0
C2303 C 0.1657 0.23005 0.31295 0.0
C2304 C 0.18913 0.20993 0.33423 0.0
C2305 C 0.20488 0.24926 0.35116 0.0
C2306 C 0.19651 0.19658 0.31943 0.0
C2307 C 0.20618 0.17869 0.32505 0.0
C2308 C 0.20897 0.17412 0.34554 0.0
C2309 C 0.20085 0.18695 0.36033 0.0
C2310 C 0.1906 0.20451 0.3547 0.0
H2311 H 0.21247 0.26424 0.3509 0.0
H2312 H 0.19884 0.24693 0.36663 0.0
H2313 H 0.21641 0.23748 0.34807 0.0
H2314 H 0.19545 0.20033 0.30353 0.0
H2315 H 0.21246 0.16902 0.31343 0.0
H2316 H 0.79451 0.22822 0.37273 0.0
H2317 H 0.76439 0.20984 0.36225 0.0
H2318 H 0.7995 0.1767 0.3185 0.0
H2319 H 0.82995 0.19499 0.32889 0.0
H2320 H 0.75024 0.21177 0.32159 0.0
H2321 H 0.76413 0.13287 0.34682 0.0
H2322 H 0.77726 0.15431 0.35754 0.0
H2323 H 0.78454 0.14465 0.33325 0.0
C2324 C 0.79599 0.21684 0.36106 0.0
C2325 C 0.81467 0.2132 0.35153 0.0
C2326 C 0.77873 0.20632 0.35515 0.0
C2327 C 0.7798 0.19185 0.33976 0.0
C2328 C 0.79848 0.18761 0.33067 0.0
H2329 H 0.69781 0.12723 0.26437 0.0
H2330 H 0.72617 0.13964 0.28423 0.0
C2331 C 0.81583 0.19816 0.33654 0.0
C2332 C 0.76102 0.18283 0.3318 0.0
H2333 H 0.73632 0.13816 0.32463 0.0
C2334 C 0.74704 0.19571 0.32243 0.0
C2335 C 0.75707 0.16189 0.33289 0.0
C2336 C 0.77143 0.14758 0.3433 0.0
C2337 C 0.72943 0.18812 0.31346 0.0
C2338 C 0.72549 0.16712 0.31439 0.0
C2339 C 0.73934 0.15426 0.32409 0.0
C2340 C 0.70787 0.15811 0.30403 0.0
C2341 C 0.71569 0.20254 0.30232 0.0
C2342 C 0.68808 0.16395 0.30898 0.0
C2343 C 0.67174 0.15706 0.2975 0.0
C2344 C 0.67496 0.14401 0.28103 0.0
C2345 C 0.69474 0.13736 0.27686 0.0
C2346 C 0.71101 0.14438 0.28823 0.0
H2347 H 0.72327 0.21717 0.29904 0.0
H2348 H 0.71047 0.19588 0.28782 0.0
H2349 H 0.7022 0.20573 0.31175 0.0
H2350 H 0.68533 0.17423 0.32142 0.0
H2351 H 0.6567 0.16231 0.30126 0.0
H2352 H 0.81345 0.66603 0.28388 0.0
H2353 H 0.8029 0.69726 0.30061 0.0
H2354 H 0.86549 0.71359 0.30958 0.0
H2355 H 0.87596 0.68304 0.29147 0.0
H2356 H 0.80644 0.71398 0.33519 0.0
H2357 H 0.84736 0.76219 0.28026 0.0
H2358 H 0.84537 0.73523 0.27724 0.0
H2359 H 0.86408 0.74588 0.29395 0.0
C2360 C 0.82489 0.67621 0.28968 0.0
C2361 C 0.84544 0.67238 0.28633 0.0
C2362 C 0.8189 0.69406 0.29918 0.0
C2363 C 0.8334 0.70812 0.30581 0.0
C2364 C 0.85402 0.70341 0.30388 0.0
H2365 H 0.78929 0.81055 0.37745 0.0
H2366 H 0.80738 0.77991 0.36725 0.0
C2367 C 0.85999 0.68588 0.29379 0.0
C2368 C 0.82681 0.72794 0.31398 0.0
H2369 H 0.83213 0.77891 0.30791 0.0
C2370 C 0.81204 0.72819 0.3292 0.0
C2371 C 0.83387 0.7465 0.30592 0.0
C2372 C 0.84837 0.74748 0.2883 0.0
C2373 C 0.80384 0.74638 0.33632 0.0
C2374 C 0.81144 0.76494 0.3288 0.0
C2375 C 0.82649 0.7647 0.31385 0.0
C2376 C 0.80302 0.78473 0.33515 0.0
C2377 C 0.78643 0.74534 0.35106 0.0
C2378 C 0.79601 0.79845 0.3205 0.0
C2379 C 0.78648 0.81635 0.32631 0.0
C2380 C 0.78348 0.82058 0.34684 0.0
C2381 C 0.79128 0.80739 0.3615 0.0
C2382 C 0.80137 0.7898 0.35569 0.0
H2383 H 0.77864 0.73048 0.35042 0.0
H2384 H 0.79226 0.74732 0.36666 0.0
H2385 H 0.77511 0.75735 0.348 0.0
H2386 H 0.79722 0.79496 0.30455 0.0
H2387 H 0.78047 0.82628 0.31477 0.0
H2388 H 0.31425 0.87634 0.2971 0.0
H2389 H 0.28471 0.8666 0.31718 0.0
H2390 H 0.29764 0.80371 0.30522 0.0
H2391 H 0.32797 0.8135 0.28655 0.0
H2392 H 0.25288 0.85066 0.30509 0.0
H2393 H 0.28292 0.7982 0.36216 0.0
H2394 H 0.29936 0.81366 0.34689 0.0
H2395 H 0.29043 0.78956 0.33767 0.0
C2396 C 0.31101 0.86044 0.29937 0.0
C2397 C 0.32333 0.8456 0.29059 0.0
C2398 C 0.29414 0.85487 0.31073 0.0
C2399 C 0.28901 0.83438 0.31303 0.0
C2400 C 0.30159 0.81957 0.3044 0.0
H2401 H 0.16897 0.78709 0.31859 0.0
H2402 H 0.2004 0.80445 0.31007 0.0
C2403 C 0.31884 0.82514 0.29358 0.0
C2404 C 0.26948 0.8286 0.32249 0.0
H2405 H 0.24759 0.79346 0.35315 0.0
C2406 C 0.2518 0.83842 0.31594 0.0
C2407 C 0.26792 0.81295 0.337 0.0
C2408 C 0.28624 0.8032 0.34648 0.0
C2409 C 0.23265 0.83243 0.32274 0.0
C2410 C 0.23101 0.81543 0.33562 0.0
C2411 C 0.24872 0.80625 0.34295 0.0
C2412 C 0.21121 0.80629 0.34097 0.0
C2413 C 0.2145 0.84453 0.31608 0.0
C2414 C 0.20696 0.80096 0.36109 0.0
C2415 C 0.18936 0.79034 0.36582 0.0
C2416 C 0.17548 0.78526 0.35059 0.0
C2417 C 0.1793 0.79117 0.33061 0.0
C2418 C 0.19721 0.80125 0.32578 0.0
H2419 H 0.2186 0.86063 0.31361 0.0
H2420 H 0.20889 0.83851 0.30147 0.0
H2421 H 0.20209 0.84387 0.32735 0.0
H2422 H 0.21749 0.80462 0.37308 0.0
H2423 H 0.18666 0.7859 0.38136 0.0
H2424 H 0.17944 0.66638 0.71181 0.0
H2425 H 0.19039 0.69759 0.6953 0.0
H2426 H 0.12801 0.71435 0.68572 0.0
H2427 H 0.11713 0.68381 0.70363 0.0
H2428 H 0.18739 0.71421 0.66073 0.0
H2429 H 0.14619 0.76299 0.71486 0.0
H2430 H 0.14792 0.73603 0.71806 0.0
H2431 H 0.12946 0.74675 0.70111 0.0
C2432 C 0.16813 0.67665 0.70595 0.0
C2433 C 0.14751 0.67293 0.70906 0.0
C2434 C 0.17435 0.6945 0.69657 0.0
C2435 C 0.16002 0.70867 0.6898 0.0
C2436 C 0.13935 0.70409 0.69154 0.0
H2437 H 0.20472 0.81003 0.61713 0.0
H2438 H 0.18666 0.77952 0.6278 0.0
C2439 C 0.13314 0.68657 0.7015 0.0
C2440 C 0.16684 0.72841 0.6816 0.0
H2441 H 0.16156 0.77945 0.68706 0.0
C2442 C 0.18176 0.72848 0.66652 0.0
C2443 C 0.15977 0.74706 0.68941 0.0
C2444 C 0.14513 0.74824 0.70689 0.0
C2445 C 0.19006 0.74659 0.65928 0.0
C2446 C 0.18239 0.76525 0.66649 0.0
C2447 C 0.16724 0.76518 0.68134 0.0
C2448 C 0.19077 0.78497 0.65983 0.0
C2449 C 0.20761 0.74538 0.64472 0.0
C2450 C 0.19761 0.79901 0.67426 0.0
C2451 C 0.20711 0.81684 0.66816 0.0
C2452 C 0.21023 0.82069 0.64757 0.0
C2453 C 0.2026 0.80718 0.63312 0.0
C2454 C 0.19254 0.78966 0.63921 0.0
H2455 H 0.21546 0.73056 0.64572 0.0
H2456 H 0.20192 0.74702 0.62903 0.0
H2457 H 0.21885 0.75749 0.64765 0.0
H2458 H 0.19631 0.79582 0.69027 0.0
H2459 H 0.21301 0.82703 0.67953 0.0
H2460 H 0.30833 0.11377 0.70252 0.0
H2461 H 0.27885 0.12274 0.68205 0.0
H2462 H 0.29158 0.18603 0.69186 0.0
H2463 H 0.32182 0.17702 0.71104 0.0
H2464 H 0.24667 0.1393 0.69292 0.0
H2465 H 0.27836 0.18897 0.63423 0.0
H2466 H 0.29433 0.17406 0.65052 0.0
H2467 H 0.2854 0.19859 0.6585 0.0
C2468 C 0.30502 0.12959 0.69983 0.0
C2469 C 0.3173 0.14475 0.70816 0.0
C2470 C 0.28818 0.13471 0.6882 0.0
C2471 C 0.28308 0.15509 0.68509 0.0
C2472 C 0.29553 0.17023 0.69334 0.0
H2473 H 0.16434 0.20379 0.67518 0.0
H2474 H 0.1949 0.18556 0.68481 0.0
C2475 C 0.31272 0.1651 0.70446 0.0
C2476 C 0.26379 0.16048 0.67494 0.0
H2477 H 0.24288 0.1942 0.64212 0.0
C2478 C 0.24592 0.15103 0.68149 0.0
C2479 C 0.26269 0.1754 0.65966 0.0
C2480 C 0.28129 0.18461 0.65018 0.0
C2481 C 0.22697 0.15679 0.67396 0.0
C2482 C 0.22574 0.17317 0.66025 0.0
C2483 C 0.24368 0.18189 0.65291 0.0
C2484 C 0.20616 0.18233 0.65419 0.0
C2485 C 0.20858 0.14514 0.68078 0.0
C2486 C 0.20239 0.18704 0.63382 0.0
C2487 C 0.18529 0.19815 0.62843 0.0
C2488 C 0.17143 0.20434 0.64325 0.0
C2489 C 0.17465 0.19887 0.66346 0.0
C2490 C 0.19206 0.18829 0.66894 0.0
H2491 H 0.21247 0.12911 0.68395 0.0
H2492 H 0.2028 0.15178 0.69505 0.0
H2493 H 0.19636 0.14547 0.66928 0.0
H2494 H 0.213 0.18265 0.62215 0.0
H2495 H 0.18306 0.20224 0.61273 0.0
H2496 H 0.80511 0.15972 0.66115 0.0
H2497 H 0.82385 0.18982 0.67153 0.0
H2498 H 0.77953 0.22771 0.64239 0.0
H2499 H 0.76088 0.19781 0.63157 0.0
H2500 H 0.81946 0.24065 0.63623 0.0
H2501 H 0.80313 0.22585 0.71731 0.0
H2502 H 0.81556 0.20547 0.70441 0.0
H2503 H 0.79037 0.21264 0.69716 0.0
C2504 C 0.7994 0.17443 0.65681 0.0
C2505 C 0.78137 0.17634 0.64571 0.0
C2506 C 0.81011 0.1916 0.66281 0.0
C2507 C 0.80285 0.21093 0.658 0.0
C2508 C 0.78531 0.21289 0.64629 0.0
H2509 H 0.8282 0.33353 0.69405 0.0
H2510 H 0.81684 0.30343 0.67584 0.0
C2511 C 0.77466 0.19576 0.64019 0.0
C2512 C 0.81292 0.22918 0.66599 0.0
H2513 H 0.82429 0.25357 0.70992 0.0
C2514 C 0.82059 0.2435 0.65233 0.0
C2515 C 0.81416 0.23285 0.687 0.0
C2516 C 0.80522 0.21851 0.70235 0.0
C2517 C 0.82972 0.26138 0.6592 0.0
C2518 C 0.83097 0.26499 0.68019 0.0
C2519 C 0.8234 0.25062 0.69382 0.0
C2520 C 0.83962 0.28374 0.68862 0.0
C2521 C 0.83811 0.27618 0.64402 0.0
C2522 C 0.85628 0.28261 0.70164 0.0
C2523 C 0.86272 0.29967 0.71215 0.0
C2524 C 0.85251 0.31821 0.70993 0.0
C2525 C 0.83639 0.31951 0.69611 0.0
C2526 C 0.82995 0.30236 0.6856 0.0
H2527 H 0.84022 0.26912 0.62894 0.0
H2528 H 0.82741 0.28899 0.64233 0.0
H2529 H 0.85282 0.28238 0.64924 0.0
H2530 H 0.86387 0.26832 0.70418 0.0
H2531 H 0.87527 0.29812 0.72255 0.0
H2532 H 0.79852 0.76828 0.61441 0.0
H2533 H 0.76806 0.78547 0.62593 0.0
H2534 H 0.80256 0.81617 0.67194 0.0
H2535 H 0.83328 0.79925 0.6604 0.0
H2536 H 0.75376 0.77945 0.6648 0.0
H2537 H 0.76593 0.86108 0.64988 0.0
H2538 H 0.78038 0.84153 0.63745 0.0
H2539 H 0.78647 0.84897 0.66286 0.0
C2540 C 0.79978 0.779 0.62673 0.0
C2541 C 0.81834 0.78222 0.63664 0.0
C2542 C 0.78233 0.78883 0.63325 0.0
C2543 C 0.7831 0.80213 0.64969 0.0
C2544 C 0.80173 0.80621 0.65898 0.0
H2545 H 0.69942 0.85515 0.73262 0.0
H2546 H 0.72849 0.84441 0.71273 0.0
C2547 C 0.81926 0.79642 0.65243 0.0
C2548 C 0.76411 0.8097 0.65867 0.0
H2549 H 0.73893 0.85255 0.67232 0.0
C2550 C 0.75036 0.79543 0.66623 0.0
C2551 C 0.75988 0.83053 0.66058 0.0
C2552 C 0.77385 0.84644 0.65211 0.0
C2553 C 0.73272 0.80143 0.67626 0.0
C2554 C 0.72858 0.82227 0.67841 0.0
C2555 C 0.74217 0.83657 0.67057 0.0
C2556 C 0.71073 0.82948 0.6897 0.0
C2557 C 0.71909 0.78542 0.68515 0.0
C2558 C 0.69111 0.82481 0.68316 0.0
C2559 C 0.67438 0.83079 0.69457 0.0
C2560 C 0.67704 0.8417 0.71263 0.0
C2561 C 0.69677 0.84671 0.71884 0.0
C2562 C 0.71344 0.84066 0.70747 0.0
H2563 H 0.72673 0.77051 0.68615 0.0
H2564 H 0.71391 0.78982 0.70049 0.0
H2565 H 0.70555 0.78365 0.6754 0.0
H2566 H 0.68874 0.81645 0.66929 0.0
H2567 H 0.65941 0.82681 0.68925 0.0
H2568 H 0.29944 0.16611 0.33137 0.0
H2569 H 0.31878 0.17624 0.30144 0.0
H2570 H 0.29227 0.12733 0.26753 0.0
H2571 H 0.27286 0.1171 0.2971 0.0
H2572 H 0.34607 0.15264 0.27296 0.0
H2573 H 0.27466 0.18169 0.23916 0.0
H2574 H 0.27724 0.17667 0.26585 0.0
H2575 H 0.27406 0.15614 0.24841 0.0
C2576 C 0.29796 0.15731 0.31764 0.0
C2577 C 0.28434 0.141 0.31655 0.0
C2578 C 0.30905 0.1631 0.3006 0.0
C2579 C 0.30669 0.15264 0.28232 0.0
C2580 C 0.29408 0.13567 0.28151 0.0
H2581 H 0.33644 0.18701 0.15926 0.0
H2582 H 0.32623 0.16728 0.18878 0.0
C2583 C 0.28298 0.1299 0.29844 0.0
C2584 C 0.31591 0.16048 0.2636 0.0
H2585 H 0.30393 0.18351 0.21912 0.0
C2586 C 0.33693 0.15937 0.26113 0.0
C2587 C 0.30384 0.16914 0.24826 0.0
C2588 C 0.28121 0.17117 0.2505 0.0
C2589 C 0.34624 0.16668 0.2435 0.0
C2590 C 0.33417 0.17563 0.22828 0.0
C2591 C 0.31312 0.17649 0.23074 0.0
C2592 C 0.34294 0.18547 0.21023 0.0
C2593 C 0.36883 0.1646 0.24127 0.0
C2594 C 0.35595 0.20204 0.2125 0.0
C2595 C 0.36185 0.21332 0.1957 0.0
C2596 C 0.35465 0.20838 0.17629 0.0
C2597 C 0.34224 0.19127 0.17397 0.0
C2598 C 0.3364 0.17996 0.19081 0.0
H2599 H 0.3748 0.15205 0.2507 0.0
H2600 H 0.37315 0.16188 0.22528 0.0
H2601 H 0.3762 0.17878 0.24637 0.0
H2602 H 0.36079 0.20686 0.22737 0.0
H2603 H 0.37141 0.2264 0.1981 0.0
H2604 H 0.81564 0.28782 0.32834 0.0
H2605 H 0.80485 0.30414 0.29703 0.0
H2606 H 0.86693 0.30675 0.277 0.0
H2607 H 0.87752 0.28903 0.30774 0.0
H2608 H 0.81034 0.33742 0.27837 0.0
H2609 H 0.84357 0.27689 0.23099 0.0
H2610 H 0.84287 0.27532 0.25814 0.0
H2611 H 0.86229 0.28982 0.24568 0.0
C2612 C 0.82697 0.29214 0.31736 0.0
C2613 C 0.84733 0.28704 0.32025 0.0
C2614 C 0.82082 0.30142 0.29944 0.0
C2615 C 0.83501 0.3061 0.28433 0.0
C2616 C 0.85561 0.30254 0.28803 0.0
H2617 H 0.79146 0.37651 0.1808 0.0
H2618 H 0.81016 0.36613 0.21102 0.0
C2619 C 0.86168 0.29268 0.30568 0.0
C2620 C 0.828 0.31388 0.26449 0.0
H2621 H 0.82973 0.30491 0.2137 0.0
C2622 C 0.81457 0.33029 0.26423 0.0
C2623 C 0.83322 0.30434 0.24603 0.0
C2624 C 0.84609 0.2855 0.2452 0.0
C2625 C 0.80592 0.33721 0.24615 0.0
C2626 C 0.81175 0.32817 0.22763 0.0
C2627 C 0.82546 0.31199 0.22785 0.0
C2628 C 0.80281 0.33434 0.208 0.0
C2629 C 0.7899 0.35343 0.24735 0.0
C2630 C 0.79383 0.31978 0.19537 0.0
C2631 C 0.78393 0.32561 0.17767 0.0
C2632 C 0.78253 0.34612 0.17258 0.0
C2633 C 0.79222 0.36061 0.18465 0.0
C2634 C 0.80267 0.35471 0.20201 0.0
H2635 H 0.78292 0.35412 0.26261 0.0
H2636 H 0.79691 0.36837 0.24433 0.0
H2637 H 0.77771 0.35085 0.23611 0.0
H2638 H 0.79384 0.30395 0.19958 0.0
H2639 H 0.77644 0.31423 0.16858 0.0
H2640 H 0.6185 0.77171 0.19619 0.0
H2641 H 0.6289 0.79009 0.22641 0.0
H2642 H 0.67655 0.81907 0.19269 0.0
H2643 H 0.66628 0.80077 0.16223 0.0
H2644 H 0.68839 0.79719 0.22895 0.0
H2645 H 0.62546 0.85126 0.24248 0.0
H2646 H 0.61823 0.82562 0.237 0.0
H2647 H 0.63057 0.84044 0.21792 0.0
C2648 C 0.63101 0.78221 0.19506 0.0
C2649 C 0.64167 0.78465 0.1768 0.0
C2650 C 0.63682 0.7928 0.21234 0.0
C2651 C 0.65336 0.806 0.21168 0.0
C2652 C 0.66364 0.809 0.19338 0.0
H2653 H 0.71513 0.87735 0.30056 0.0
H2654 H 0.69615 0.86549 0.27123 0.0
C2655 C 0.65775 0.79853 0.17602 0.0
C2656 C 0.66119 0.81497 0.23052 0.0
H2657 H 0.64983 0.84781 0.26868 0.0
C2658 C 0.68002 0.8083 0.23761 0.0
C2659 C 0.65011 0.82939 0.24173 0.0
C2660 C 0.63002 0.83727 0.2344 0.0
C2661 C 0.68802 0.81557 0.25579 0.0
C2662 C 0.67688 0.82982 0.2671 0.0
C2663 C 0.65814 0.83668 0.25998 0.0
C2664 C 0.68526 0.83839 0.28585 0.0
C2665 C 0.70842 0.80813 0.26282 0.0
C2666 C 0.68482 0.82727 0.30387 0.0
C2667 C 0.69561 0.834 0.32075 0.0
C2668 C 0.70715 0.85182 0.31966 0.0
C2669 C 0.70657 0.86345 0.30185 0.0
C2670 C 0.69566 0.85678 0.28509 0.0
H2671 H 0.71576 0.79809 0.25155 0.0
H2672 H 0.71856 0.82116 0.26587 0.0
H2673 H 0.70663 0.79964 0.27718 0.0
H2674 H 0.67685 0.81298 0.30459 0.0
H2675 H 0.69572 0.82473 0.33424 0.0
H2676 H 0.18673 0.66128 0.15906 0.0
H2677 H 0.16739 0.67228 0.18858 0.0
H2678 H 0.20883 0.6407 0.22776 0.0
H2679 H 0.22798 0.62924 0.1985 0.0
H2680 H 0.16868 0.63687 0.23985 0.0
H2681 H 0.18946 0.71695 0.22496 0.0
H2682 H 0.1766 0.70459 0.20452 0.0
H2683 H 0.20132 0.69612 0.21199 0.0
C2684 C 0.19162 0.65649 0.17394 0.0
C2685 C 0.20906 0.64458 0.1764 0.0
C2686 C 0.18059 0.66285 0.19078 0.0
C2687 C 0.18693 0.65759 0.21032 0.0
C2688 C 0.20374 0.64496 0.21278 0.0
H2689 H 0.16354 0.695 0.33281 0.0
H2690 H 0.17381 0.67626 0.3026 0.0
C2691 C 0.2147 0.63849 0.196 0.0
C2692 C 0.17692 0.6662 0.22833 0.0
H2693 H 0.1681 0.71073 0.25271 0.0
C2694 C 0.16844 0.65302 0.24266 0.0
C2695 C 0.17685 0.68726 0.23199 0.0
C2696 C 0.18669 0.70208 0.21767 0.0
C2697 C 0.15976 0.66041 0.26056 0.0
C2698 C 0.15978 0.68144 0.26418 0.0
C2699 C 0.16805 0.6946 0.24977 0.0
C2700 C 0.15174 0.69035 0.28299 0.0
C2701 C 0.15055 0.64574 0.27538 0.0
C2702 C 0.13586 0.7043 0.28193 0.0
C2703 C 0.13007 0.7151 0.29903 0.0
C2704 C 0.14015 0.71224 0.31756 0.0
C2705 C 0.15547 0.69756 0.3188 0.0
C2706 C 0.16128 0.68675 0.30159 0.0
H2707 H 0.14751 0.63081 0.26832 0.0
H2708 H 0.16118 0.64341 0.28814 0.0
H2709 H 0.1362 0.65181 0.28163 0.0
H2710 H 0.12838 0.70731 0.26767 0.0
H2711 H 0.11809 0.72616 0.29753 0.0
H2712 H 0.33528 0.80431 0.83434 0.0
H2713 H 0.32472 0.82426 0.80505 0.0
H2714 H 0.35293 0.78106 0.76523 0.0
H2715 H 0.36395 0.76129 0.79425 0.0
H2716 H 0.35936 0.82088 0.75336 0.0
H2717 H 0.27817 0.80573 0.76911 0.0
H2718 H 0.29168 0.81758 0.78944 0.0
H2719 H 0.29826 0.79236 0.78179 0.0
C2720 C 0.33938 0.79912 0.81937 0.0
C2721 C 0.35028 0.78107 0.81666 0.0
C2722 C 0.33328 0.81051 0.80266 0.0
C2723 C 0.33777 0.80392 0.78301 0.0
C2724 C 0.34928 0.78636 0.78029 0.0
H2725 H 0.30093 0.82905 0.66109 0.0
H2726 H 0.31933 0.81817 0.69126 0.0
C2727 C 0.3555 0.77504 0.79694 0.0
C2728 C 0.32965 0.81463 0.76516 0.0
H2729 H 0.28557 0.82661 0.74128 0.0
C2730 C 0.34323 0.82224 0.75073 0.0
C2731 C 0.3086 0.81621 0.76176 0.0
C2732 C 0.29329 0.8074 0.77622 0.0
C2733 C 0.33627 0.83146 0.73293 0.0
C2734 C 0.31525 0.83289 0.72951 0.0
C2735 C 0.3017 0.82555 0.74407 0.0
C2736 C 0.30674 0.84129 0.71067 0.0
C2737 C 0.35139 0.83965 0.71796 0.0
C2738 C 0.29375 0.85797 0.7116 0.0
C2739 C 0.28314 0.86414 0.69449 0.0
C2740 C 0.2852 0.85363 0.67611 0.0
C2741 C 0.29899 0.83748 0.67498 0.0
C2742 C 0.30961 0.83131 0.69218 0.0
H2743 H 0.36651 0.84186 0.72495 0.0
H2744 H 0.35304 0.82878 0.7053 0.0
H2745 H 0.34617 0.85428 0.71159 0.0
H2746 H 0.2913 0.8658 0.72578 0.0
H2747 H 0.27276 0.87673 0.69592 0.0
H2748 H 0.19361 0.32708 0.82967 0.0
H2749 H 0.17558 0.31636 0.79915 0.0
H2750 H 0.20725 0.36145 0.76437 0.0
H2751 H 0.22537 0.37227 0.79455 0.0
H2752 H 0.15163 0.34037 0.76816 0.0
H2753 H 0.22226 0.30454 0.73963 0.0
H2754 H 0.21873 0.31102 0.7659 0.0
H2755 H 0.2242 0.33041 0.74773 0.0
C2756 C 0.19655 0.33491 0.8156 0.0
C2757 C 0.21115 0.35034 0.81452 0.0
C2758 C 0.18621 0.32879 0.79822 0.0
C2759 C 0.19034 0.338 0.77958 0.0
C2760 C 0.20406 0.35407 0.77864 0.0
H2761 H 0.16265 0.29912 0.6571 0.0
H2762 H 0.174 0.31916 0.68601 0.0
C2763 C 0.2144 0.36019 0.79593 0.0
C2764 C 0.18152 0.32983 0.76082 0.0
H2765 H 0.19381 0.30338 0.71837 0.0
C2766 C 0.16079 0.33231 0.75721 0.0
C2767 C 0.19363 0.31946 0.74662 0.0
C2768 C 0.21592 0.31602 0.75012 0.0
C2769 C 0.15179 0.32465 0.73959 0.0
C2770 C 0.16385 0.31391 0.72556 0.0
C2771 C 0.18464 0.31173 0.7291 0.0
C2772 C 0.15514 0.3036 0.70775 0.0
C2773 C 0.12955 0.32825 0.73609 0.0
C2774 C 0.14071 0.28832 0.71041 0.0
C2775 C 0.13417 0.27689 0.69397 0.0
C2776 C 0.14211 0.28036 0.67454 0.0
C2777 C 0.15623 0.29603 0.67183 0.0
C2778 C 0.16272 0.30752 0.68832 0.0
H2779 H 0.12415 0.34179 0.74442 0.0
H2780 H 0.12619 0.33026 0.71977 0.0
H2781 H 0.12088 0.31501 0.74166 0.0
H2782 H 0.13506 0.2847 0.72534 0.0
H2783 H 0.12332 0.26492 0.69668 0.0
H2784 H 0.72788 0.11842 0.69973 0.0
H2785 H 0.70912 0.12848 0.7298 0.0
H2786 H 0.67227 0.16835 0.69374 0.0
H2787 H 0.69102 0.15853 0.66348 0.0
H2788 H 0.69216 0.1868 0.72668 0.0
H2789 H 0.65118 0.11745 0.75053 0.0
H2790 H 0.67758 0.11399 0.7451 0.0
H2791 H 0.66058 0.12104 0.72514 0.0
C2792 C 0.71556 0.12908 0.69807 0.0
C2793 C 0.71107 0.1378 0.67918 0.0
C2794 C 0.70476 0.13467 0.71529 0.0
C2795 C 0.68922 0.14899 0.71393 0.0
C2796 C 0.68416 0.15716 0.69502 0.0
H2797 H 0.61783 0.21614 0.79851 0.0
H2798 H 0.62982 0.19602 0.77008 0.0
C2799 C 0.69491 0.15153 0.67776 0.0
C2800 C 0.67992 0.1572 0.73248 0.0
H2801 H 0.65192 0.14475 0.77405 0.0
C2802 C 0.68326 0.17764 0.73696 0.0
C2803 C 0.66849 0.14511 0.7459 0.0
C2804 C 0.66406 0.12321 0.74142 0.0
C2805 C 0.67559 0.18632 0.75464 0.0
C2806 C 0.66418 0.17427 0.76806 0.0
C2807 C 0.6608 0.15382 0.76368 0.0
C2808 C 0.65513 0.18324 0.78629 0.0
C2809 C 0.67973 0.20833 0.75899 0.0
C2810 C 0.66514 0.18212 0.80492 0.0
C2811 C 0.65837 0.19365 0.8213 0.0
C2812 C 0.64159 0.20654 0.8191 0.0
C2813 C 0.63094 0.20657 0.80068 0.0
C2814 C 0.63767 0.19502 0.78443 0.0
H2815 H 0.69066 0.21502 0.74814 0.0
H2816 H 0.66538 0.21699 0.75811 0.0
H2817 H 0.68579 0.21012 0.77455 0.0
H2818 H 0.67872 0.17311 0.8065 0.0
H2819 H 0.66687 0.19323 0.83528 0.0
H2820 H 0.86734 0.72473 0.69302 0.0
H2821 H 0.85376 0.7069 0.72216 0.0
H2822 H 0.81383 0.67309 0.68327 0.0
H2823 H 0.82714 0.69111 0.65382 0.0
H2824 H 0.79435 0.69225 0.71496 0.0
H2825 H 0.86057 0.64953 0.74334 0.0
H2826 H 0.86581 0.67582 0.73922 0.0
H2827 H 0.85949 0.6599 0.71811 0.0
C2828 C 0.85589 0.71328 0.69052 0.0
C2829 C 0.84826 0.70944 0.67104 0.0
C2830 C 0.84827 0.70298 0.70724 0.0
C2831 C 0.833 0.6885 0.70483 0.0
C2832 C 0.82574 0.68414 0.68538 0.0
H2833 H 0.75702 0.62809 0.79322 0.0
H2834 H 0.77428 0.63841 0.76237 0.0
C2835 C 0.83337 0.69444 0.66859 0.0
C2836 C 0.82327 0.67955 0.72284 0.0
H2837 H 0.83292 0.65362 0.7664 0.0
C2838 C 0.8027 0.68356 0.72608 0.0
C2839 C 0.83429 0.6684 0.73737 0.0
C2840 C 0.85622 0.66298 0.73428 0.0
C2841 C 0.79296 0.67722 0.74377 0.0
C2842 C 0.80404 0.66632 0.75844 0.0
C2843 C 0.82454 0.66206 0.75511 0.0
C2844 C 0.7945 0.65928 0.77733 0.0
C2845 C 0.77104 0.68275 0.74694 0.0
C2846 C 0.80059 0.66724 0.79601 0.0
C2847 C 0.79079 0.66135 0.81379 0.0
C2848 C 0.7748 0.64734 0.81311 0.0
C2849 C 0.76915 0.63904 0.79434 0.0
C2850 C 0.77895 0.64493 0.77665 0.0
H2851 H 0.76607 0.69493 0.7365 0.0
H2852 H 0.76147 0.66927 0.74412 0.0
H2853 H 0.76839 0.68778 0.76273 0.0
H2854 H 0.81264 0.67831 0.79678 0.0
H2855 H 0.79557 0.66799 0.82797 0.0
H2856 H 0.19679 0.37669 0.22594 0.0
H2857 H 0.22685 0.3653 0.20802 0.0
H2858 H 0.19191 0.31891 0.17843 0.0
H2859 H 0.16154 0.33026 0.19618 0.0
H2860 H 0.2417 0.32584 0.21311 0.0
H2861 H 0.2266 0.34291 0.13233 0.0
H2862 H 0.21308 0.35504 0.15272 0.0
H2863 H 0.2066 0.32977 0.14519 0.0
C2864 C 0.19533 0.36427 0.21537 0.0
C2865 C 0.17674 0.35427 0.21263 0.0
C2866 C 0.21256 0.35783 0.20512 0.0
C2867 C 0.21154 0.34138 0.19184 0.0
C2868 C 0.1929 0.33187 0.18838 0.0
H2869 H 0.29498 0.26183 0.13357 0.0
H2870 H 0.26596 0.28119 0.14529 0.0
C2871 C 0.17559 0.33831 0.19863 0.0
C2872 C 0.23036 0.33283 0.18342 0.0
H2873 H 0.25456 0.32133 0.1394 0.0
C2874 C 0.24466 0.32504 0.19701 0.0
C2875 C 0.23401 0.33175 0.16243 0.0
C2876 C 0.21936 0.34046 0.14728 0.0
C2877 C 0.26231 0.31561 0.19013 0.0
C2878 C 0.26593 0.31436 0.16911 0.0
C2879 C 0.25175 0.32242 0.15551 0.0
C2880 C 0.28377 0.30368 0.16098 0.0
C2881 C 0.27652 0.30636 0.20542 0.0
C2882 C 0.30343 0.31016 0.16563 0.0
C2883 C 0.32014 0.29902 0.15909 0.0
C2884 C 0.31743 0.28133 0.14762 0.0
C2885 C 0.29767 0.27532 0.14244 0.0
C2886 C 0.28103 0.2864 0.14906 0.0
H2887 H 0.26924 0.30452 0.22044 0.0
H2888 H 0.28195 0.29135 0.20024 0.0
H2889 H 0.28986 0.31635 0.20733 0.0
H2890 H 0.30583 0.32369 0.17452 0.0
H2891 H 0.33513 0.30418 0.16321 0.0
H2892 H 0.29609 0.72638 0.86755 0.0
H2893 H 0.2668 0.70679 0.85704 0.0
H2894 H 0.30548 0.6665 0.82344 0.0
H2895 H 0.33503 0.68628 0.83355 0.0
H2896 H 0.27477 0.68187 0.80088 0.0
H2897 H 0.24412 0.65218 0.87288 0.0
H2898 H 0.24831 0.67896 0.87355 0.0
H2899 H 0.26947 0.6621 0.8707 0.0
C2900 C 0.2985 0.71317 0.85818 0.0
C2901 C 0.31795 0.70798 0.85131 0.0
C2902 C 0.2817 0.70187 0.85235 0.0
C2903 C 0.284 0.68501 0.83974 0.0
C2904 C 0.30343 0.67938 0.83334 0.0
H2905 H 0.19558 0.61561 0.77219 0.0
H2906 H 0.22568 0.62576 0.79084 0.0
C2907 C 0.32029 0.69072 0.83911 0.0
C2908 C 0.26596 0.6748 0.83141 0.0
H2909 H 0.22144 0.65211 0.84446 0.0
C2910 C 0.26326 0.67508 0.81038 0.0
C2911 C 0.2509 0.66612 0.84389 0.0
C2912 C 0.25341 0.66463 0.8665 0.0
C2913 C 0.24562 0.66748 0.80151 0.0
C2914 C 0.23041 0.65917 0.814 0.0
C2915 C 0.23317 0.65857 0.835 0.0
C2916 C 0.21145 0.65136 0.80529 0.0
C2917 C 0.24308 0.66896 0.77888 0.0
C2918 C 0.1933 0.66198 0.80796 0.0
C2919 C 0.17596 0.65624 0.79733 0.0
C2920 C 0.17661 0.6398 0.78386 0.0
C2921 C 0.19458 0.62851 0.78222 0.0
C2922 C 0.21182 0.63424 0.79287 0.0
H2923 H 0.25438 0.67927 0.77192 0.0
H2924 H 0.24502 0.65375 0.77208 0.0
H2925 H 0.22769 0.67442 0.77498 0.0
H2926 H 0.1928 0.67523 0.81757 0.0
H2927 H 0.16235 0.66518 0.79903 0.0
H2928 H 0.28595 0.30666 0.87924 0.0
H2929 H 0.30548 0.27637 0.87091 0.0
H2930 H 0.3043 0.29324 0.80784 0.0
H2931 H 0.28609 0.32416 0.81642 0.0
H2932 H 0.2945 0.24606 0.85115 0.0
H2933 H 0.36082 0.27591 0.81083 0.0
H2934 H 0.34399 0.29221 0.82473 0.0
H2935 H 0.33845 0.28531 0.7989 0.0
C2936 C 0.29037 0.30406 0.86368 0.0
C2937 C 0.28471 0.31768 0.84844 0.0
C2938 C 0.30146 0.28677 0.85892 0.0
C2939 C 0.30668 0.28258 0.83877 0.0
C2940 C 0.30116 0.29641 0.82358 0.0
H2941 H 0.31394 0.16675 0.78322 0.0
H2942 H 0.30432 0.19661 0.80267 0.0
C2943 C 0.29061 0.31401 0.82844 0.0
C2944 C 0.31605 0.26292 0.83337 0.0
H2945 H 0.35106 0.24152 0.80228 0.0
C2946 C 0.30716 0.2451 0.84079 0.0
C2947 C 0.33289 0.26149 0.82026 0.0
C2948 C 0.34469 0.2798 0.81346 0.0
C2949 C 0.31395 0.22599 0.83465 0.0
C2950 C 0.32937 0.22465 0.8199 0.0
C2951 C 0.33897 0.24243 0.81332 0.0
C2952 C 0.33508 0.20524 0.81017 0.0
C2953 C 0.30448 0.20754 0.84415 0.0
C2954 C 0.35555 0.20024 0.80753 0.0
C2955 C 0.36102 0.18362 0.79576 0.0
C2956 C 0.3461 0.17145 0.78686 0.0
C2957 C 0.32566 0.17576 0.79029 0.0
C2958 C 0.32018 0.19275 0.80154 0.0
H2959 H 0.29971 0.21071 0.85993 0.0
H2960 H 0.29072 0.20331 0.83553 0.0
H2961 H 0.31503 0.19449 0.84429 0.0
H2962 H 0.36733 0.2096 0.81399 0.0
H2963 H 0.37691 0.18052 0.79323 0.0
H2964 H 0.68389 0.2887 0.87579 0.0
H2965 H 0.71373 0.30846 0.86635 0.0
H2966 H 0.69932 0.29965 0.80328 0.0
H2967 H 0.66875 0.28124 0.8128 0.0
H2968 H 0.74537 0.2975 0.8489 0.0
H2969 H 0.71311 0.35714 0.80071 0.0
H2970 H 0.69735 0.34082 0.81579 0.0
H2971 H 0.70566 0.33303 0.79099 0.0
C2972 C 0.68696 0.29142 0.85993 0.0
C2973 C 0.67408 0.28366 0.84498 0.0
C2974 C 0.70399 0.30264 0.85454 0.0
C2975 C 0.70868 0.30589 0.83408 0.0
C2976 C 0.69571 0.29808 0.81915 0.0
H2977 H 0.82732 0.3168 0.78422 0.0
H2978 H 0.7967 0.30657 0.80204 0.0
C2979 C 0.67833 0.28739 0.82457 0.0
C2980 C 0.72795 0.31591 0.82835 0.0
H2981 H 0.74842 0.34922 0.79481 0.0
C2982 C 0.74596 0.30911 0.83734 0.0
C2983 C 0.72887 0.33142 0.81365 0.0
C2984 C 0.71015 0.34116 0.80495 0.0
C2985 C 0.76484 0.31669 0.83139 0.0
C2986 C 0.76585 0.3307 0.81525 0.0
C2987 C 0.74779 0.33821 0.80694 0.0
C2988 C 0.78531 0.33706 0.80602 0.0
C2989 C 0.78339 0.30965 0.84265 0.0
C2990 C 0.78899 0.35755 0.80178 0.0
C2991 C 0.80612 0.3633 0.79088 0.0
C2992 C 0.8201 0.3487 0.78447 0.0
C2993 C 0.81691 0.32834 0.78935 0.0
C2994 C 0.79946 0.32252 0.79969 0.0
H2995 H 0.77972 0.3061 0.85865 0.0
H2996 H 0.78912 0.29555 0.8356 0.0
H2997 H 0.79558 0.32119 0.84243 0.0
H2998 H 0.77833 0.36907 0.80644 0.0
H2999 H 0.80833 0.37912 0.78724 0.0
H3000 H 0.68696 0.66035 0.831 0.0
H3001 H 0.66742 0.69049 0.822 0.0
H3002 H 0.69621 0.72371 0.87011 0.0
H3003 H 0.71598 0.69391 0.87905 0.0
H3004 H 0.64149 0.71954 0.84434 0.0
H3005 H 0.71416 0.75161 0.81651 0.0
H3006 H 0.71109 0.72513 0.82223 0.0
H3007 H 0.71418 0.74313 0.84231 0.0
C3008 C 0.68884 0.67394 0.83992 0.0
C3009 C 0.70334 0.67489 0.85543 0.0
C3010 C 0.67763 0.69111 0.83479 0.0
C3011 C 0.6807 0.70933 0.84519 0.0
C3012 C 0.6939 0.70982 0.86174 0.0
H3013 H 0.65437 0.83234 0.80772 0.0
H3014 H 0.66294 0.80327 0.82883 0.0
C3015 C 0.7052 0.69278 0.86677 0.0
C3016 C 0.67204 0.72831 0.83733 0.0
H3017 H 0.68543 0.77227 0.81404 0.0
C3018 C 0.65104 0.73116 0.83779 0.0
C3019 C 0.68462 0.74334 0.82881 0.0
C3020 C 0.70725 0.74068 0.82723 0.0
C3021 C 0.64225 0.74881 0.82991 0.0
C3022 C 0.65484 0.76369 0.82111 0.0
C3023 C 0.67585 0.76091 0.82097 0.0
C3024 C 0.6467 0.78159 0.81048 0.0
C3025 C 0.61963 0.7514 0.83115 0.0
C3026 C 0.63448 0.77905 0.79336 0.0
C3027 C 0.62954 0.79559 0.78127 0.0
C3028 C 0.63694 0.81499 0.78595 0.0
C3029 C 0.64847 0.81762 0.80362 0.0
C3030 C 0.65335 0.80104 0.81574 0.0
H3031 H 0.61309 0.74229 0.84365 0.0
H3032 H 0.61547 0.7675 0.83341 0.0
H3033 H 0.6127 0.74614 0.81681 0.0
H3034 H 0.62959 0.76412 0.78876 0.0
H3035 H 0.62062 0.79298 0.76779 0.0
H3036 H 0.65791 0.69337 0.16705 0.0
H3037 H 0.68749 0.67418 0.17851 0.0
H3038 H 0.72464 0.70498 0.13472 0.0
H3039 H 0.69545 0.72423 0.12322 0.0
H3040 H 0.71874 0.64944 0.15528 0.0
H3041 H 0.74775 0.719 0.19264 0.0
H3042 H 0.72162 0.71608 0.18529 0.0
H3043 H 0.74048 0.72166 0.16659 0.0
C3044 C 0.67231 0.69586 0.15966 0.0
C3045 C 0.67438 0.71058 0.14445 0.0
C3046 C 0.68914 0.68486 0.16619 0.0
C3047 C 0.70818 0.68843 0.15758 0.0
C3048 C 0.71006 0.70223 0.14166 0.0
H3049 H 0.83077 0.66038 0.19272 0.0
H3050 H 0.80078 0.67117 0.17408 0.0
C3051 C 0.69334 0.71323 0.13516 0.0
C3052 C 0.72646 0.67908 0.16622 0.0
H3053 H 0.7692 0.69058 0.19259 0.0
C3054 C 0.7298 0.65834 0.16349 0.0
C3055 C 0.74076 0.69085 0.17685 0.0
C3056 C 0.7375 0.71311 0.18071 0.0
C3057 C 0.74741 0.64907 0.17089 0.0
C3058 C 0.76173 0.66088 0.18153 0.0
C3059 C 0.75828 0.68161 0.18426 0.0
C3060 C 0.78008 0.6521 0.19076 0.0
C3061 C 0.75072 0.62686 0.16698 0.0
C3062 C 0.77837 0.63761 0.2061 0.0
C3063 C 0.79546 0.63136 0.21677 0.0
C3064 C 0.81457 0.63968 0.21241 0.0
C3065 C 0.81631 0.65368 0.19652 0.0
C3066 C 0.7992 0.65987 0.18582 0.0
H3067 H 0.7416 0.62146 0.15395 0.0
H3068 H 0.76691 0.62359 0.16398 0.0
H3069 H 0.74603 0.61813 0.18051 0.0
H3070 H 0.76371 0.63176 0.21045 0.0
H3071 H 0.79352 0.62057 0.22893 0.0
H3072 H 0.37625 0.79569 0.22744 0.0
H3073 H 0.36574 0.76599 0.20841 0.0
H3074 H 0.31932 0.80096 0.17892 0.0
H3075 H 0.32976 0.83097 0.19782 0.0
H3076 H 0.32631 0.75032 0.21209 0.0
H3077 H 0.34522 0.76818 0.13228 0.0
H3078 H 0.35669 0.78116 0.15341 0.0
H3079 H 0.33153 0.78759 0.14548 0.0
C3080 C 0.36399 0.79724 0.21669 0.0
C3081 C 0.35373 0.81573 0.21429 0.0
C3082 C 0.35806 0.78022 0.2058 0.0
C3083 C 0.34189 0.78135 0.19219 0.0
C3084 C 0.33208 0.7999 0.18912 0.0
H3085 H 0.2639 0.69964 0.13021 0.0
H3086 H 0.28375 0.72815 0.14233 0.0
C3087 C 0.33799 0.817 0.20004 0.0
C3088 C 0.3339 0.76267 0.18296 0.0
H3089 H 0.32385 0.73972 0.13791 0.0
C3090 C 0.32597 0.74785 0.19588 0.0
C3091 C 0.33344 0.75965 0.16184 0.0
C3092 C 0.34232 0.77489 0.1474 0.0
C3093 C 0.31692 0.73032 0.18822 0.0
C3094 C 0.31625 0.72734 0.16706 0.0
C3095 C 0.32452 0.74201 0.15413 0.0
C3096 C 0.30572 0.70978 0.15812 0.0
C3097 C 0.30738 0.71559 0.20282 0.0
C3098 C 0.31185 0.68996 0.16253 0.0
C3099 C 0.3004 0.67353 0.15578 0.0
C3100 C 0.28277 0.6767 0.14432 0.0
C3101 C 0.27732 0.69659 0.1391 0.0
C3102 C 0.28868 0.71295 0.14595 0.0
H3103 H 0.30514 0.72238 0.21802 0.0
H3104 H 0.29252 0.71025 0.19712 0.0
H3105 H 0.3174 0.70226 0.20457 0.0
H3106 H 0.32521 0.68722 0.17157 0.0
H3107 H 0.30515 0.65842 0.15991 0.0
H3108 H 0.7085 0.32661 0.17458 0.0
H3109 H 0.69069 0.29588 0.18464 0.0
H3110 H 0.68012 0.28141 0.12188 0.0
H3111 H 0.69927 0.31148 0.11181 0.0
H3112 H 0.65553 0.28021 0.1813 0.0
H3113 H 0.70858 0.23164 0.13828 0.0
H3114 H 0.71233 0.25846 0.14087 0.0
H3115 H 0.69485 0.24872 0.12237 0.0
C3116 C 0.7021 0.31701 0.16298 0.0
C3117 C 0.70537 0.32119 0.14247 0.0
C3118 C 0.69197 0.29942 0.1687 0.0
C3119 C 0.6846 0.28596 0.154 0.0
C3120 C 0.68636 0.29111 0.13348 0.0
H3121 H 0.61387 0.18355 0.20052 0.0
H3122 H 0.62313 0.21403 0.18163 0.0
C3123 C 0.69706 0.30838 0.12774 0.0
C3124 C 0.67606 0.2662 0.16031 0.0
H3125 H 0.68146 0.21521 0.15451 0.0
C3126 C 0.66119 0.26598 0.17543 0.0
C3127 C 0.68368 0.24761 0.15286 0.0
C3128 C 0.70088 0.24656 0.13787 0.0
C3129 C 0.65414 0.2478 0.18375 0.0
C3130 C 0.66135 0.22921 0.1759 0.0
C3131 C 0.67579 0.22943 0.16037 0.0
C3132 C 0.65542 0.20944 0.1847 0.0
C3133 C 0.63992 0.24887 0.20158 0.0
C3134 C 0.67043 0.19589 0.19126 0.0
C3135 C 0.66512 0.17807 0.20124 0.0
C3136 C 0.64476 0.17377 0.20515 0.0
C3137 C 0.6297 0.18677 0.1978 0.0
C3138 C 0.63499 0.20427 0.18725 0.0
H3139 H 0.6407 0.26378 0.20926 0.0
H3140 H 0.62416 0.24675 0.19624 0.0
H3141 H 0.64339 0.23695 0.21287 0.0
H3142 H 0.6863 0.19946 0.18937 0.0
H3143 H 0.67696 0.16829 0.20689 0.0
loop_
_geom_bond_atom_site_label_1
_geom_bond_atom_site_label_2
_geom_bond_distance
_geom_bond_site_symmetry_2
_ccdc_geom_bond_type
Co0 O2 2.143 . S
Co0 O8 2.074 . S
Co0 O11 2.093 . S
Co0 O24 2.097 . S
Co0 N41 2.151 . S
Co0 N49 2.214 . S
Co1 O2 2.160 . S
Co1 O7 2.058 . S
Co1 O17 2.057 . S
Co1 O32 2.037 . S
Co1 N36 2.145 . S
Co1 N57 2.257 . S
O2 Co0 2.143 . S
O2 Co1 2.160 . S
C3 O4 1.278 . S
C3 O11 1.224 . S
O4 C3 1.278 . S
C5 O6 1.245 . S
C5 O17 1.232 . S
O6 C5 1.245 . S
O7 Co1 2.058 . S
O7 C33 1.269 . S
O8 Co0 2.074 . S
O8 C33 1.257 . S
H9 C34 0.930 . S
H10 C40 0.930 . S
O11 Co0 2.093 . S
O11 C3 1.224 . S
H12 C44 0.929 . S
H13 C46 0.930 . S
H14 C47 0.930 . S
H15 C45 0.929 . S
H16 C48 0.928 . S
O17 Co1 2.057 . S
O17 C5 1.232 . S
H18 C37 0.929 . S
H19 C38 0.929 . S
H20 C50 0.931 . S
H21 C42 0.929 . S
H22 C51 0.930 . S
H23 C43 0.931 . S
O24 Co0 2.097 . S
O24 C52 1.214 . S
H25 C53 0.929 . S
H26 C54 0.929 . S
H27 C55 0.930 . S
H28 C56 0.929 . S
H29 C58 0.930 . S
H30 C35 0.930 . S
H31 C39 0.930 . S
O32 Co1 2.037 . S
O32 C52 1.234 . S
C33 O7 1.269 . S
C33 O8 1.257 . S
C34 H9 0.930 . S
C34 C37 1.388 . S
C34 C39 1.418 . S
C35 H30 0.930 . S
C35 C38 1.404 . S
C35 C39 1.353 . S
N36 Co1 2.145 . S
N36 C37 1.397 . S
N36 C38 1.334 . S
C37 H18 0.929 . S
C37 C34 1.388 . S
C37 N36 1.397 . S
C38 H19 0.929 . S
C38 C35 1.404 . S
C38 N36 1.334 . S
C39 H31 0.930 . S
C39 C34 1.418 . S
C39 C35 1.353 . S
C40 H10 0.930 . S
C40 N41 1.330 . S
C40 C42 1.446 . S
N41 Co0 2.151 . S
N41 C40 1.330 . S
N41 C45 1.418 . S
C42 H21 0.929 . S
C42 C40 1.446 . S
C42 C43 1.332 . S
C43 H23 0.931 . S
C43 C42 1.332 . S
C43 C44 1.267 . S
C44 H12 0.929 . S
C44 C43 1.267 . S
C44 C45 1.251 . S
C45 H15 0.929 . S
C45 N41 1.418 . S
C45 C44 1.251 . S
C46 H13 0.930 . S
C46 C48 1.406 . S
C46 C51 1.261 . S
C47 H14 0.930 . S
C47 N49 1.325 . S
C47 C50 1.357 . S
C48 H16 0.928 . S
C48 C46 1.406 . S
C48 N49 1.261 . S
N49 Co0 2.214 . S
N49 C47 1.325 . S
N49 C48 1.261 . S
C50 H20 0.931 . S
C50 C47 1.357 . S
C50 C51 1.312 . S
C51 H22 0.930 . S
C51 C46 1.261 . S
C51 C50 1.312 . S
C52 O24 1.214 . S
C52 O32 1.234 . S
C53 H25 0.929 . S
C53 C56 1.391 . S
C53 C58 1.391 . S
C54 H26 0.929 . S
C54 C55 1.390 . S
C54 N57 1.391 . S
C55 H27 0.930 . S
C55 C54 1.390 . S
C55 C56 1.392 . S
C56 H28 0.929 . S
C56 C53 1.391 . S
C56 C55 1.392 . S
N57 Co1 2.257 . S
N57 C54 1.391 . S
N57 C58 1.388 . S
C58 H29 0.930 . S
C58 C53 1.391 . S
C58 N57 1.388 . S
Co59 O61 2.143 . S
Co59 O67 2.074 . S
Co59 O70 2.093 . S
Co59 O83 2.097 . S
Co59 N100 2.151 . S
Co59 N108 2.214 . S
Co60 O61 2.160 . S
Co60 O66 2.058 . S
Co60 O76 2.057 . S
Co60 O91 2.037 . S
Co60 N95 2.145 . S
Co60 N116 2.257 . S
O61 Co59 2.143 . S
O61 Co60 2.160 . S
C62 O63 1.278 . S
C62 O70 1.224 . S
O63 C62 1.278 . S
C64 O65 1.245 . S
C64 O76 1.232 . S
O65 C64 1.245 . S
O66 Co60 2.058 . S
O66 C92 1.269 . S
O67 Co59 2.074 . S
O67 C92 1.257 . S
H68 C93 0.930 . S
H69 C99 0.930 . S
O70 Co59 2.093 . S
O70 C62 1.224 . S
H71 C103 0.929 . S
H72 C105 0.930 . S
H73 C106 0.930 . S
H74 C104 0.929 . S
H75 C107 0.928 . S
O76 Co60 2.057 . S
O76 C64 1.232 . S
H77 C96 0.929 . S
H78 C97 0.929 . S
H79 C109 0.931 . S
H80 C101 0.929 . S
H81 C110 0.930 . S
H82 C102 0.931 . S
O83 Co59 2.097 . S
O83 C111 1.214 . S
H84 C112 0.929 . S
H85 C113 0.929 . S
H86 C114 0.930 . S
H87 C115 0.929 . S
H88 C117 0.930 . S
H89 C94 0.930 . S
H90 C98 0.930 . S
O91 Co60 2.037 . S
O91 C111 1.234 . S
C92 O66 1.269 . S
C92 O67 1.257 . S
C93 H68 0.930 . S
C93 C96 1.388 . S
C93 C98 1.418 . S
C94 H89 0.930 . S
C94 C97 1.404 . S
C94 C98 1.353 . S
N95 Co60 2.145 . S
N95 C96 1.397 . S
N95 C97 1.334 . S
C96 H77 0.929 . S
C96 C93 1.388 . S
C96 N95 1.397 . S
C97 H78 0.929 . S
C97 C94 1.404 . S
C97 N95 1.334 . S
C98 H90 0.930 . S
C98 C93 1.418 . S
C98 C94 1.353 . S
C99 H69 0.930 . S
C99 N100 1.330 . S
C99 C101 1.446 . S
N100 Co59 2.151 . S
N100 C99 1.330 . S
N100 C104 1.418 . S
C101 H80 0.929 . S
C101 C99 1.446 . S
C101 C102 1.332 . S
C102 H82 0.931 . S
C102 C101 1.332 . S
C102 C103 1.267 . S
C103 H71 0.929 . S
C103 C102 1.267 . S
C103 C104 1.251 . S
C104 H74 0.929 . S
C104 N100 1.418 . S
C104 C103 1.251 . S
C105 H72 0.930 . S
C105 C107 1.406 . S
C105 C110 1.261 . S
C106 H73 0.930 . S
C106 N108 1.325 . S
C106 C109 1.357 . S
C107 H75 0.928 . S
C107 C105 1.406 . S
C107 N108 1.261 . S
N108 Co59 2.214 . S
N108 C106 1.325 . S
N108 C107 1.261 . S
C109 H79 0.931 . S
C109 C106 1.357 . S
C109 C110 1.312 . S
C110 H81 0.930 . S
C110 C105 1.261 . S
C110 C109 1.312 . S
C111 O83 1.214 . S
C111 O91 1.234 . S
C112 H84 0.929 . S
C112 C115 1.391 . S
C112 C117 1.391 . S
C113 H85 0.929 . S
C113 C114 1.390 . S
C113 N116 1.391 . S
C114 H86 0.930 . S
C114 C113 1.390 . S
C114 C115 1.392 . S
C115 H87 0.929 . S
C115 C112 1.391 . S
C115 C114 1.392 . S
N116 Co60 2.257 . S
N116 C113 1.391 . S
N116 C117 1.388 . S
C117 H88 0.930 . S
C117 C112 1.391 . S
C117 N116 1.388 . S
Co118 O120 2.143 . S
Co118 O126 2.074 . S
Co118 O129 2.093 . S
Co118 O142 2.097 . S
Co118 N159 2.151 . S
Co118 N167 2.214 . S
Co119 O120 2.160 . S
Co119 O125 2.058 . S
Co119 O135 2.057 . S
Co119 O150 2.037 . S
Co119 N154 2.145 . S
Co119 N175 2.257 . S
O120 Co118 2.143 . S
O120 Co119 2.160 . S
C121 O122 1.278 . S
C121 O129 1.224 . S
O122 C121 1.278 . S
C123 O124 1.245 . S
C123 O135 1.232 . S
O124 C123 1.245 . S
O125 Co119 2.058 . S
O125 C151 1.269 . S
O126 Co118 2.074 . S
O126 C151 1.257 . S
H127 C152 0.930 . S
H128 C158 0.930 . S
O129 Co118 2.093 . S
O129 C121 1.224 . S
H130 C162 0.929 . S
H131 C164 0.930 . S
H132 C165 0.930 . S
H133 C163 0.929 . S
H134 C166 0.928 . S
O135 Co119 2.057 . S
O135 C123 1.232 . S
H136 C155 0.929 . S
H137 C156 0.929 . S
H138 C168 0.931 . S
H139 C160 0.929 . S
H140 C169 0.930 . S
H141 C161 0.931 . S
O142 Co118 2.097 . S
O142 C170 1.214 . S
H143 C171 0.929 . S
H144 C172 0.929 . S
H145 C173 0.930 . S
H146 C174 0.929 . S
H147 C176 0.930 . S
H148 C153 0.930 . S
H149 C157 0.930 . S
O150 Co119 2.037 . S
O150 C170 1.234 . S
C151 O125 1.269 . S
C151 O126 1.257 . S
C152 H127 0.930 . S
C152 C155 1.388 . S
C152 C157 1.418 . S
C153 H148 0.930 . S
C153 C156 1.404 . S
C153 C157 1.353 . S
N154 Co119 2.145 . S
N154 C155 1.397 . S
N154 C156 1.334 . S
C155 H136 0.929 . S
C155 C152 1.388 . S
C155 N154 1.397 . S
C156 H137 0.929 . S
C156 C153 1.404 . S
C156 N154 1.334 . S
C157 H149 0.930 . S
C157 C152 1.418 . S
C157 C153 1.353 . S
C158 H128 0.930 . S
C158 N159 1.330 . S
C158 C160 1.446 . S
N159 Co118 2.151 . S
N159 C158 1.330 . S
N159 C163 1.418 . S
C160 H139 0.929 . S
C160 C158 1.446 . S
C160 C161 1.332 . S
C161 H141 0.931 . S
C161 C160 1.332 . S
C161 C162 1.267 . S
C162 H130 0.929 . S
C162 C161 1.267 . S
C162 C163 1.251 . S
C163 H133 0.929 . S
C163 N159 1.418 . S
C163 C162 1.251 . S
C164 H131 0.930 . S
C164 C166 1.406 . S
C164 C169 1.261 . S
C165 H132 0.930 . S
C165 N167 1.325 . S
C165 C168 1.357 . S
C166 H134 0.928 . S
C166 C164 1.406 . S
C166 N167 1.261 . S
N167 Co118 2.214 . S
N167 C165 1.325 . S
N167 C166 1.261 . S
C168 H138 0.931 . S
C168 C165 1.357 . S
C168 C169 1.312 . S
C169 H140 0.930 . S
C169 C164 1.261 . S
C169 C168 1.312 . S
C170 O142 1.214 . S
C170 O150 1.234 . S
C171 H143 0.929 . S
C171 C174 1.391 . S
C171 C176 1.391 . S
C172 H144 0.929 . S
C172 C173 1.390 . S
C172 N175 1.391 . S
C173 H145 0.930 . S
C173 C172 1.390 . S
C173 C174 1.392 . S
C174 H146 0.929 . S
C174 C171 1.391 . S
C174 C173 1.392 . S
N175 Co119 2.257 . S
N175 C172 1.391 . S
N175 C176 1.388 . S
C176 H147 0.930 . S
C176 C171 1.391 . S
C176 N175 1.388 . S
Co177 O179 2.143 . S
Co177 O185 2.074 . S
Co177 O188 2.093 . S
Co177 O201 2.097 . S
Co177 N218 2.151 . S
Co177 N226 2.214 . S
Co178 O179 2.160 . S
Co178 O184 2.058 . S
Co178 O194 2.057 . S
Co178 O209 2.037 . S
Co178 N213 2.145 . S
Co178 N234 2.257 . S
O179 Co177 2.143 . S
O179 Co178 2.160 . S
C180 O181 1.278 . S
C180 O188 1.224 . S
O181 C180 1.278 . S
C182 O183 1.245 . S
C182 O194 1.232 . S
O183 C182 1.245 . S
O184 Co178 2.058 . S
O184 C210 1.269 . S
O185 Co177 2.074 . S
O185 C210 1.257 . S
H186 C211 0.930 . S
H187 C217 0.930 . S
O188 Co177 2.093 . S
O188 C180 1.224 . S
H189 C221 0.929 . S
H190 C223 0.930 . S
H191 C224 0.930 . S
H192 C222 0.929 . S
H193 C225 0.928 . S
O194 Co178 2.057 . S
O194 C182 1.232 . S
H195 C214 0.929 . S
H196 C215 0.929 . S
H197 C227 0.931 . S
H198 C219 0.929 . S
H199 C228 0.930 . S
H200 C220 0.931 . S
O201 Co177 2.097 . S
O201 C229 1.214 . S
H202 C230 0.929 . S
H203 C231 0.929 . S
H204 C232 0.930 . S
H205 C233 0.929 . S
H206 C235 0.930 . S
H207 C212 0.930 . S
H208 C216 0.930 . S
O209 Co178 2.037 . S
O209 C229 1.234 . S
C210 O184 1.269 . S
C210 O185 1.257 . S
C211 H186 0.930 . S
C211 C214 1.388 . S
C211 C216 1.418 . S
C212 H207 0.930 . S
C212 C215 1.404 . S
C212 C216 1.353 . S
N213 Co178 2.145 . S
N213 C214 1.397 . S
N213 C215 1.334 . S
C214 H195 0.929 . S
C214 C211 1.388 . S
C214 N213 1.397 . S
C215 H196 0.929 . S
C215 C212 1.404 . S
C215 N213 1.334 . S
C216 H208 0.930 . S
C216 C211 1.418 . S
C216 C212 1.353 . S
C217 H187 0.930 . S
C217 N218 1.330 . S
C217 C219 1.446 . S
N218 Co177 2.151 . S
N218 C217 1.330 . S
N218 C222 1.418 . S
C219 H198 0.929 . S
C219 C217 1.446 . S
C219 C220 1.332 . S
C220 H200 0.931 . S
C220 C219 1.332 . S
C220 C221 1.267 . S
C221 H189 0.929 . S
C221 C220 1.267 . S
C221 C222 1.251 . S
C222 H192 0.929 . S
C222 N218 1.418 . S
C222 C221 1.251 . S
C223 H190 0.930 . S
C223 C225 1.406 . S
C223 C228 1.261 . S
C224 H191 0.930 . S
C224 N226 1.325 . S
C224 C227 1.357 . S
C225 H193 0.928 . S
C225 C223 1.406 . S
C225 N226 1.261 . S
N226 Co177 2.214 . S
N226 C224 1.325 . S
N226 C225 1.261 . S
C227 H197 0.931 . S
C227 C224 1.357 . S
C227 C228 1.312 . S
C228 H199 0.930 . S
C228 C223 1.261 . S
C228 C227 1.312 . S
C229 O201 1.214 . S
C229 O209 1.234 . S
C230 H202 0.929 . S
C230 C233 1.391 . S
C230 C235 1.391 . S
C231 H203 0.929 . S
C231 C232 1.390 . S
C231 N234 1.391 . S
C232 H204 0.930 . S
C232 C231 1.390 . S
C232 C233 1.392 . S
C233 H205 0.929 . S
C233 C230 1.391 . S
C233 C232 1.392 . S
N234 Co178 2.257 . S
N234 C231 1.391 . S
N234 C235 1.388 . S
C235 H206 0.930 . S
C235 C230 1.391 . S
C235 N234 1.388 . S
Co236 O238 2.143 . S
Co236 O244 2.074 . S
Co236 O247 2.093 . S
Co236 O260 2.097 . S
Co236 N277 2.151 . S
Co236 N285 2.214 . S
Co237 O238 2.160 . S
Co237 O243 2.058 . S
Co237 O253 2.057 . S
Co237 O268 2.037 . S
Co237 N272 2.145 . S
Co237 N293 2.257 . S
O238 Co236 2.143 . S
O238 Co237 2.160 . S
C239 O240 1.278 . S
C239 O247 1.224 . S
O240 C239 1.278 . S
C241 O242 1.245 . S
C241 O253 1.232 . S
O242 C241 1.245 . S
O243 Co237 2.058 . S
O243 C269 1.269 . S
O244 Co236 2.074 . S
O244 C269 1.257 . S
H245 C270 0.930 . S
H246 C276 0.930 . S
O247 Co236 2.093 . S
O247 C239 1.224 . S
H248 C280 0.929 . S
H249 C282 0.930 . S
H250 C283 0.930 . S
H251 C281 0.929 . S
H252 C284 0.928 . S
O253 Co237 2.057 . S
O253 C241 1.232 . S
H254 C273 0.929 . S
H255 C274 0.929 . S
H256 C286 0.931 . S
H257 C278 0.929 . S
H258 C287 0.930 . S
H259 C279 0.931 . S
O260 Co236 2.097 . S
O260 C288 1.214 . S
H261 C289 0.929 . S
H262 C290 0.929 . S
H263 C291 0.930 . S
H264 C292 0.929 . S
H265 C294 0.930 . S
H266 C271 0.930 . S
H267 C275 0.930 . S
O268 Co237 2.037 . S
O268 C288 1.234 . S
C269 O243 1.269 . S
C269 O244 1.257 . S
C270 H245 0.930 . S
C270 C273 1.388 . S
C270 C275 1.418 . S
C271 H266 0.930 . S
C271 C274 1.404 . S
C271 C275 1.353 . S
N272 Co237 2.145 . S
N272 C273 1.397 . S
N272 C274 1.334 . S
C273 H254 0.929 . S
C273 C270 1.388 . S
C273 N272 1.397 . S
C274 H255 0.929 . S
C274 C271 1.404 . S
C274 N272 1.334 . S
C275 H267 0.930 . S
C275 C270 1.418 . S
C275 C271 1.353 . S
C276 H246 0.930 . S
C276 N277 1.330 . S
C276 C278 1.446 . S
N277 Co236 2.151 . S
N277 C276 1.330 . S
N277 C281 1.418 . S
C278 H257 0.929 . S
C278 C276 1.446 . S
C278 C279 1.332 . S
C279 H259 0.931 . S
C279 C278 1.332 . S
C279 C280 1.267 . S
C280 H248 0.929 . S
C280 C279 1.267 . S
C280 C281 1.251 . S
C281 H251 0.929 . S
C281 N277 1.418 . S
C281 C280 1.251 . S
C282 H249 0.930 . S
C282 C284 1.406 . S
C282 C287 1.261 . S
C283 H250 0.930 . S
C283 N285 1.325 . S
C283 C286 1.357 . S
C284 H252 0.928 . S
C284 C282 1.406 . S
C284 N285 1.261 . S
N285 Co236 2.214 . S
N285 C283 1.325 . S
N285 C284 1.261 . S
C286 H256 0.931 . S
C286 C283 1.357 . S
C286 C287 1.312 . S
C287 H258 0.930 . S
C287 C282 1.261 . S
C287 C286 1.312 . S
C288 O260 1.214 . S
C288 O268 1.234 . S
C289 H261 0.929 . S
C289 C292 1.391 . S
C289 C294 1.391 . S
C290 H262 0.929 . S
C290 C291 1.390 . S
C290 N293 1.391 . S
C291 H263 0.930 . S
C291 C290 1.390 . S
C291 C292 1.392 . S
C292 H264 0.929 . S
C292 C289 1.391 . S
C292 C291 1.392 . S
N293 Co237 2.257 . S
N293 C290 1.391 . S
N293 C294 1.388 . S
C294 H265 0.930 . S
C294 C289 1.391 . S
C294 N293 1.388 . S
Co295 O297 2.143 . S
Co295 O303 2.074 . S
Co295 O306 2.093 . S
Co295 O319 2.097 . S
Co295 N336 2.151 . S
Co295 N344 2.214 . S
Co296 O297 2.160 . S
Co296 O302 2.058 . S
Co296 O312 2.057 . S
Co296 O327 2.037 . S
Co296 N331 2.145 . S
Co296 N352 2.257 . S
O297 Co295 2.143 . S
O297 Co296 2.160 . S
C298 O299 1.278 . S
C298 O306 1.224 . S
O299 C298 1.278 . S
C300 O301 1.245 . S
C300 O312 1.232 . S
O301 C300 1.245 . S
O302 Co296 2.058 . S
O302 C328 1.269 . S
O303 Co295 2.074 . S
O303 C328 1.257 . S
H304 C329 0.930 . S
H305 C335 0.930 . S
O306 Co295 2.093 . S
O306 C298 1.224 . S
H307 C339 0.929 . S
H308 C341 0.930 . S
H309 C342 0.930 . S
H310 C340 0.929 . S
H311 C343 0.928 . S
O312 Co296 2.057 . S
O312 C300 1.232 . S
H313 C332 0.929 . S
H314 C333 0.929 . S
H315 C345 0.931 . S
H316 C337 0.929 . S
H317 C346 0.930 . S
H318 C338 0.931 . S
O319 Co295 2.097 . S
O319 C347 1.214 . S
H320 C348 0.929 . S
H321 C349 0.929 . S
H322 C350 0.930 . S
H323 C351 0.929 . S
H324 C353 0.930 . S
H325 C330 0.930 . S
H326 C334 0.930 . S
O327 Co296 2.037 . S
O327 C347 1.234 . S
C328 O302 1.269 . S
C328 O303 1.257 . S
C329 H304 0.930 . S
C329 C332 1.388 . S
C329 C334 1.418 . S
C330 H325 0.930 . S
C330 C333 1.404 . S
C330 C334 1.353 . S
N331 Co296 2.145 . S
N331 C332 1.397 . S
N331 C333 1.334 . S
C332 H313 0.929 . S
C332 C329 1.388 . S
C332 N331 1.397 . S
C333 H314 0.929 . S
C333 C330 1.404 . S
C333 N331 1.334 . S
C334 H326 0.930 . S
C334 C329 1.418 . S
C334 C330 1.353 . S
C335 H305 0.930 . S
C335 N336 1.330 . S
C335 C337 1.446 . S
N336 Co295 2.151 . S
N336 C335 1.330 . S
N336 C340 1.418 . S
C337 H316 0.929 . S
C337 C335 1.446 . S
C337 C338 1.332 . S
C338 H318 0.931 . S
C338 C337 1.332 . S
C338 C339 1.267 . S
C339 H307 0.929 . S
C339 C338 1.267 . S
C339 C340 1.251 . S
C340 H310 0.929 . S
C340 N336 1.418 . S
C340 C339 1.251 . S
C341 H308 0.930 . S
C341 C343 1.406 . S
C341 C346 1.261 . S
C342 H309 0.930 . S
C342 N344 1.325 . S
C342 C345 1.357 . S
C343 H311 0.928 . S
C343 C341 1.406 . S
C343 N344 1.261 . S
N344 Co295 2.214 . S
N344 C342 1.325 . S
N344 C343 1.261 . S
C345 H315 0.931 . S
C345 C342 1.357 . S
C345 C346 1.312 . S
C346 H317 0.930 . S
C346 C341 1.261 . S
C346 C345 1.312 . S
C347 O319 1.214 . S
C347 O327 1.234 . S
C348 H320 0.929 . S
C348 C351 1.391 . S
C348 C353 1.391 . S
C349 H321 0.929 . S
C349 C350 1.390 . S
C349 N352 1.391 . S
C350 H322 0.930 . S
C350 C349 1.390 . S
C350 C351 1.392 . S
C351 H323 0.929 . S
C351 C348 1.391 . S
C351 C350 1.392 . S
N352 Co296 2.257 . S
N352 C349 1.391 . S
N352 C353 1.388 . S
C353 H324 0.930 . S
C353 C348 1.391 . S
C353 N352 1.388 . S
Co354 O356 2.143 . S
Co354 O362 2.074 . S
Co354 O365 2.093 . S
Co354 O378 2.097 . S
Co354 N395 2.151 . S
Co354 N403 2.214 . S
Co355 O356 2.160 . S
Co355 O361 2.058 . S
Co355 O371 2.057 . S
Co355 O386 2.037 . S
Co355 N390 2.145 . S
Co355 N411 2.257 . S
O356 Co354 2.143 . S
O356 Co355 2.160 . S
C357 O358 1.278 . S
C357 O365 1.224 . S
O358 C357 1.278 . S
C359 O360 1.245 . S
C359 O371 1.232 . S
O360 C359 1.245 . S
O361 Co355 2.058 . S
O361 C387 1.269 . S
O362 Co354 2.074 . S
O362 C387 1.257 . S
H363 C388 0.930 . S
H364 C394 0.930 . S
O365 Co354 2.093 . S
O365 C357 1.224 . S
H366 C398 0.929 . S
H367 C400 0.930 . S
H368 C401 0.930 . S
H369 C399 0.929 . S
H370 C402 0.928 . S
O371 Co355 2.057 . S
O371 C359 1.232 . S
H372 C391 0.929 . S
H373 C392 0.929 . S
H374 C404 0.931 . S
H375 C396 0.929 . S
H376 C405 0.930 . S
H377 C397 0.931 . S
O378 Co354 2.097 . S
O378 C406 1.214 . S
H379 C407 0.929 . S
H380 C408 0.929 . S
H381 C409 0.930 . S
H382 C410 0.929 . S
H383 C412 0.930 . S
H384 C389 0.930 . S
H385 C393 0.930 . S
O386 Co355 2.037 . S
O386 C406 1.234 . S
C387 O361 1.269 . S
C387 O362 1.257 . S
C388 H363 0.930 . S
C388 C391 1.388 . S
C388 C393 1.418 . S
C389 H384 0.930 . S
C389 C392 1.404 . S
C389 C393 1.353 . S
N390 Co355 2.145 . S
N390 C391 1.397 . S
N390 C392 1.334 . S
C391 H372 0.929 . S
C391 C388 1.388 . S
C391 N390 1.397 . S
C392 H373 0.929 . S
C392 C389 1.404 . S
C392 N390 1.334 . S
C393 H385 0.930 . S
C393 C388 1.418 . S
C393 C389 1.353 . S
C394 H364 0.930 . S
C394 N395 1.330 . S
C394 C396 1.446 . S
N395 Co354 2.151 . S
N395 C394 1.330 . S
N395 C399 1.418 . S
C396 H375 0.929 . S
C396 C394 1.446 . S
C396 C397 1.332 . S
C397 H377 0.931 . S
C397 C396 1.332 . S
C397 C398 1.267 . S
C398 H366 0.929 . S
C398 C397 1.267 . S
C398 C399 1.251 . S
C399 H369 0.929 . S
C399 N395 1.418 . S
C399 C398 1.251 . S
C400 H367 0.930 . S
C400 C402 1.406 . S
C400 C405 1.261 . S
C401 H368 0.930 . S
C401 N403 1.325 . S
C401 C404 1.357 . S
C402 H370 0.928 . S
C402 C400 1.406 . S
C402 N403 1.261 . S
N403 Co354 2.214 . S
N403 C401 1.325 . S
N403 C402 1.261 . S
C404 H374 0.931 . S
C404 C401 1.357 . S
C404 C405 1.312 . S
C405 H376 0.930 . S
C405 C400 1.261 . S
C405 C404 1.312 . S
C406 O378 1.214 . S
C406 O386 1.234 . S
C407 H379 0.929 . S
C407 C410 1.391 . S
C407 C412 1.391 . S
C408 H380 0.929 . S
C408 C409 1.390 . S
C408 N411 1.391 . S
C409 H381 0.930 . S
C409 C408 1.390 . S
C409 C410 1.392 . S
C410 H382 0.929 . S
C410 C407 1.391 . S
C410 C409 1.392 . S
N411 Co355 2.257 . S
N411 C408 1.391 . S
N411 C412 1.388 . S
C412 H383 0.930 . S
C412 C407 1.391 . S
C412 N411 1.388 . S
Co413 O415 2.143 . S
Co413 O421 2.074 . S
Co413 O424 2.093 . S
Co413 O437 2.097 . S
Co413 N454 2.151 . S
Co413 N462 2.214 . S
Co414 O415 2.160 . S
Co414 O420 2.058 . S
Co414 O430 2.057 . S
Co414 O445 2.037 . S
Co414 N449 2.145 . S
Co414 N470 2.257 . S
O415 Co413 2.143 . S
O415 Co414 2.160 . S
C416 O417 1.278 . S
C416 O424 1.224 . S
O417 C416 1.278 . S
C418 O419 1.245 . S
C418 O430 1.232 . S
O419 C418 1.245 . S
O420 Co414 2.058 . S
O420 C446 1.269 . S
O421 Co413 2.074 . S
O421 C446 1.257 . S
H422 C447 0.930 . S
H423 C453 0.930 . S
O424 Co413 2.093 . S
O424 C416 1.224 . S
H425 C457 0.929 . S
H426 C459 0.930 . S
H427 C460 0.930 . S
H428 C458 0.929 . S
H429 C461 0.928 . S
O430 Co414 2.057 . S
O430 C418 1.232 . S
H431 C450 0.929 . S
H432 C451 0.929 . S
H433 C463 0.931 . S
H434 C455 0.929 . S
H435 C464 0.930 . S
H436 C456 0.931 . S
O437 Co413 2.097 . S
O437 C465 1.214 . S
H438 C466 0.929 . S
H439 C467 0.929 . S
H440 C468 0.930 . S
H441 C469 0.929 . S
H442 C471 0.930 . S
H443 C448 0.930 . S
H444 C452 0.930 . S
O445 Co414 2.037 . S
O445 C465 1.234 . S
C446 O420 1.269 . S
C446 O421 1.257 . S
C447 H422 0.930 . S
C447 C450 1.388 . S
C447 C452 1.418 . S
C448 H443 0.930 . S
C448 C451 1.404 . S
C448 C452 1.353 . S
N449 Co414 2.145 . S
N449 C450 1.397 . S
N449 C451 1.334 . S
C450 H431 0.929 . S
C450 C447 1.388 . S
C450 N449 1.397 . S
C451 H432 0.929 . S
C451 C448 1.404 . S
C451 N449 1.334 . S
C452 H444 0.930 . S
C452 C447 1.418 . S
C452 C448 1.353 . S
C453 H423 0.930 . S
C453 N454 1.330 . S
C453 C455 1.446 . S
N454 Co413 2.151 . S
N454 C453 1.330 . S
N454 C458 1.418 . S
C455 H434 0.929 . S
C455 C453 1.446 . S
C455 C456 1.332 . S
C456 H436 0.931 . S
C456 C455 1.332 . S
C456 C457 1.267 . S
C457 H425 0.929 . S
C457 C456 1.267 . S
C457 C458 1.251 . S
C458 H428 0.929 . S
C458 N454 1.418 . S
C458 C457 1.251 . S
C459 H426 0.930 . S
C459 C461 1.406 . S
C459 C464 1.261 . S
C460 H427 0.930 . S
C460 N462 1.325 . S
C460 C463 1.357 . S
C461 H429 0.928 . S
C461 C459 1.406 . S
C461 N462 1.261 . S
N462 Co413 2.214 . S
N462 C460 1.325 . S
N462 C461 1.261 . S
C463 H433 0.931 . S
C463 C460 1.357 . S
C463 C464 1.312 . S
C464 H435 0.930 . S
C464 C459 1.261 . S
C464 C463 1.312 . S
C465 O437 1.214 . S
C465 O445 1.234 . S
C466 H438 0.929 . S
C466 C469 1.391 . S
C466 C471 1.391 . S
C467 H439 0.929 . S
C467 C468 1.390 . S
C467 N470 1.391 . S
C468 H440 0.930 . S
C468 C467 1.390 . S
C468 C469 1.392 . S
C469 H441 0.929 . S
C469 C466 1.391 . S
C469 C468 1.392 . S
N470 Co414 2.257 . S
N470 C467 1.391 . S
N470 C471 1.388 . S
C471 H442 0.930 . S
C471 C466 1.391 . S
C471 N470 1.388 . S
Co472 O474 2.143 . S
Co472 O480 2.074 . S
Co472 O483 2.093 . S
Co472 O496 2.097 . S
Co472 N513 2.151 . S
Co472 N521 2.214 . S
Co473 O474 2.160 . S
Co473 O479 2.058 . S
Co473 O489 2.057 . S
Co473 O504 2.037 . S
Co473 N508 2.145 . S
Co473 N529 2.257 . S
O474 Co472 2.143 . S
O474 Co473 2.160 . S
C475 O476 1.278 . S
C475 O483 1.224 . S
O476 C475 1.278 . S
C477 O478 1.245 . S
C477 O489 1.232 . S
O478 C477 1.245 . S
O479 Co473 2.058 . S
O479 C505 1.269 . S
O480 Co472 2.074 . S
O480 C505 1.257 . S
H481 C506 0.930 . S
H482 C512 0.930 . S
O483 Co472 2.093 . S
O483 C475 1.224 . S
H484 C516 0.929 . S
H485 C518 0.930 . S
H486 C519 0.930 . S
H487 C517 0.929 . S
H488 C520 0.928 . S
O489 Co473 2.057 . S
O489 C477 1.232 . S
H490 C509 0.929 . S
H491 C510 0.929 . S
H492 C522 0.931 . S
H493 C514 0.929 . S
H494 C523 0.930 . S
H495 C515 0.931 . S
O496 Co472 2.097 . S
O496 C524 1.214 . S
H497 C525 0.929 . S
H498 C526 0.929 . S
H499 C527 0.930 . S
H500 C528 0.929 . S
H501 C530 0.930 . S
H502 C507 0.930 . S
H503 C511 0.930 . S
O504 Co473 2.037 . S
O504 C524 1.234 . S
C505 O479 1.269 . S
C505 O480 1.257 . S
C506 H481 0.930 . S
C506 C509 1.388 . S
C506 C511 1.418 . S
C507 H502 0.930 . S
C507 C510 1.404 . S
C507 C511 1.353 . S
N508 Co473 2.145 . S
N508 C509 1.397 . S
N508 C510 1.334 . S
C509 H490 0.929 . S
C509 C506 1.388 . S
C509 N508 1.397 . S
C510 H491 0.929 . S
C510 C507 1.404 . S
C510 N508 1.334 . S
C511 H503 0.930 . S
C511 C506 1.418 . S
C511 C507 1.353 . S
C512 H482 0.930 . S
C512 N513 1.330 . S
C512 C514 1.446 . S
N513 Co472 2.151 . S
N513 C512 1.330 . S
N513 C517 1.418 . S
C514 H493 0.929 . S
C514 C512 1.446 . S
C514 C515 1.332 . S
C515 H495 0.931 . S
C515 C514 1.332 . S
C515 C516 1.267 . S
C516 H484 0.929 . S
C516 C515 1.267 . S
C516 C517 1.251 . S
C517 H487 0.929 . S
C517 N513 1.418 . S
C517 C516 1.251 . S
C518 H485 0.930 . S
C518 C520 1.406 . S
C518 C523 1.261 . S
C519 H486 0.930 . S
C519 N521 1.325 . S
C519 C522 1.357 . S
C520 H488 0.928 . S
C520 C518 1.406 . S
C520 N521 1.261 . S
N521 Co472 2.214 . S
N521 C519 1.325 . S
N521 C520 1.261 . S
C522 H492 0.931 . S
C522 C519 1.357 . S
C522 C523 1.312 . S
C523 H494 0.930 . S
C523 C518 1.261 . S
C523 C522 1.312 . S
C524 O496 1.214 . S
C524 O504 1.234 . S
C525 H497 0.929 . S
C525 C528 1.391 . S
C525 C530 1.391 . S
C526 H498 0.929 . S
C526 C527 1.390 . S
C526 N529 1.391 . S
C527 H499 0.930 . S
C527 C526 1.390 . S
C527 C528 1.392 . S
C528 H500 0.929 . S
C528 C525 1.391 . S
C528 C527 1.392 . S
N529 Co473 2.257 . S
N529 C526 1.391 . S
N529 C530 1.388 . S
C530 H501 0.930 . S
C530 C525 1.391 . S
C530 N529 1.388 . S
Co531 O533 2.143 . S
Co531 O539 2.074 . S
Co531 O542 2.093 . S
Co531 O555 2.097 . S
Co531 N572 2.151 . S
Co531 N580 2.214 . S
Co532 O533 2.160 . S
Co532 O538 2.058 . S
Co532 O548 2.057 . S
Co532 O563 2.037 . S
Co532 N567 2.145 . S
Co532 N588 2.257 . S
O533 Co531 2.143 . S
O533 Co532 2.160 . S
C534 O535 1.278 . S
C534 O542 1.224 . S
O535 C534 1.278 . S
C536 O537 1.245 . S
C536 O548 1.232 . S
O537 C536 1.245 . S
O538 Co532 2.058 . S
O538 C564 1.269 . S
O539 Co531 2.074 . S
O539 C564 1.257 . S
H540 C565 0.930 . S
H541 C571 0.930 . S
O542 Co531 2.093 . S
O542 C534 1.224 . S
H543 C575 0.929 . S
H544 C577 0.930 . S
H545 C578 0.930 . S
H546 C576 0.929 . S
H547 C579 0.928 . S
O548 Co532 2.057 . S
O548 C536 1.232 . S
H549 C568 0.929 . S
H550 C569 0.929 . S
H551 C581 0.931 . S
H552 C573 0.929 . S
H553 C582 0.930 . S
H554 C574 0.931 . S
O555 Co531 2.097 . S
O555 C583 1.214 . S
H556 C584 0.929 . S
H557 C585 0.929 . S
H558 C586 0.930 . S
H559 C587 0.929 . S
H560 C589 0.930 . S
H561 C566 0.930 . S
H562 C570 0.930 . S
O563 Co532 2.037 . S
O563 C583 1.234 . S
C564 O538 1.269 . S
C564 O539 1.257 . S
C565 H540 0.930 . S
C565 C568 1.388 . S
C565 C570 1.418 . S
C566 H561 0.930 . S
C566 C569 1.404 . S
C566 C570 1.353 . S
N567 Co532 2.145 . S
N567 C568 1.397 . S
N567 C569 1.334 . S
C568 H549 0.929 . S
C568 C565 1.388 . S
C568 N567 1.397 . S
C569 H550 0.929 . S
C569 C566 1.404 . S
C569 N567 1.334 . S
C570 H562 0.930 . S
C570 C565 1.418 . S
C570 C566 1.353 . S
C571 H541 0.930 . S
C571 N572 1.330 . S
C571 C573 1.446 . S
N572 Co531 2.151 . S
N572 C571 1.330 . S
N572 C576 1.418 . S
C573 H552 0.929 . S
C573 C571 1.446 . S
C573 C574 1.332 . S
C574 H554 0.931 . S
C574 C573 1.332 . S
C574 C575 1.267 . S
C575 H543 0.929 . S
C575 C574 1.267 . S
C575 C576 1.251 . S
C576 H546 0.929 . S
C576 N572 1.418 . S
C576 C575 1.251 . S
C577 H544 0.930 . S
C577 C579 1.406 . S
C577 C582 1.261 . S
C578 H545 0.930 . S
C578 N580 1.325 . S
C578 C581 1.357 . S
C579 H547 0.928 . S
C579 C577 1.406 . S
C579 N580 1.261 . S
N580 Co531 2.214 . S
N580 C578 1.325 . S
N580 C579 1.261 . S
C581 H551 0.931 . S
C581 C578 1.357 . S
C581 C582 1.312 . S
C582 H553 0.930 . S
C582 C577 1.261 . S
C582 C581 1.312 . S
C583 O555 1.214 . S
C583 O563 1.234 . S
C584 H556 0.929 . S
C584 C587 1.391 . S
C584 C589 1.391 . S
C585 H557 0.929 . S
C585 C586 1.390 . S
C585 N588 1.391 . S
C586 H558 0.930 . S
C586 C585 1.390 . S
C586 C587 1.392 . S
C587 H559 0.929 . S
C587 C584 1.391 . S
C587 C586 1.392 . S
N588 Co532 2.257 . S
N588 C585 1.391 . S
N588 C589 1.388 . S
C589 H560 0.930 . S
C589 C584 1.391 . S
C589 N588 1.388 . S
Co590 O592 2.143 . S
Co590 O598 2.074 . S
Co590 O601 2.093 . S
Co590 O614 2.097 . S
Co590 N631 2.151 . S
Co590 N639 2.214 . S
Co591 O592 2.160 . S
Co591 O597 2.058 . S
Co591 O607 2.057 . S
Co591 O622 2.037 . S
Co591 N626 2.145 . S
Co591 N647 2.257 . S
O592 Co590 2.143 . S
O592 Co591 2.160 . S
C593 O594 1.278 . S
C593 O601 1.224 . S
O594 C593 1.278 . S
C595 O596 1.245 . S
C595 O607 1.232 . S
O596 C595 1.245 . S
O597 Co591 2.058 . S
O597 C623 1.269 . S
O598 Co590 2.074 . S
O598 C623 1.257 . S
H599 C624 0.930 . S
H600 C630 0.930 . S
O601 Co590 2.093 . S
O601 C593 1.224 . S
H602 C634 0.929 . S
H603 C636 0.930 . S
H604 C637 0.930 . S
H605 C635 0.929 . S
H606 C638 0.928 . S
O607 Co591 2.057 . S
O607 C595 1.232 . S
H608 C627 0.929 . S
H609 C628 0.929 . S
H610 C640 0.931 . S
H611 C632 0.929 . S
H612 C641 0.930 . S
H613 C633 0.931 . S
O614 Co590 2.097 . S
O614 C642 1.214 . S
H615 C643 0.929 . S
H616 C644 0.929 . S
H617 C645 0.930 . S
H618 C646 0.929 . S
H619 C648 0.930 . S
H620 C625 0.930 . S
H621 C629 0.930 . S
O622 Co591 2.037 . S
O622 C642 1.234 . S
C623 O597 1.269 . S
C623 O598 1.257 . S
C624 H599 0.930 . S
C624 C627 1.388 . S
C624 C629 1.418 . S
C625 H620 0.930 . S
C625 C628 1.404 . S
C625 C629 1.353 . S
N626 Co591 2.145 . S
N626 C627 1.397 . S
N626 C628 1.334 . S
C627 H608 0.929 . S
C627 C624 1.388 . S
C627 N626 1.397 . S
C628 H609 0.929 . S
C628 C625 1.404 . S
C628 N626 1.334 . S
C629 H621 0.930 . S
C629 C624 1.418 . S
C629 C625 1.353 . S
C630 H600 0.930 . S
C630 N631 1.330 . S
C630 C632 1.446 . S
N631 Co590 2.151 . S
N631 C630 1.330 . S
N631 C635 1.418 . S
C632 H611 0.929 . S
C632 C630 1.446 . S
C632 C633 1.332 . S
C633 H613 0.931 . S
C633 C632 1.332 . S
C633 C634 1.267 . S
C634 H602 0.929 . S
C634 C633 1.267 . S
C634 C635 1.251 . S
C635 H605 0.929 . S
C635 N631 1.418 . S
C635 C634 1.251 . S
C636 H603 0.930 . S
C636 C638 1.406 . S
C636 C641 1.261 . S
C637 H604 0.930 . S
C637 N639 1.325 . S
C637 C640 1.357 . S
C638 H606 0.928 . S
C638 C636 1.406 . S
C638 N639 1.261 . S
N639 Co590 2.214 . S
N639 C637 1.325 . S
N639 C638 1.261 . S
C640 H610 0.931 . S
C640 C637 1.357 . S
C640 C641 1.312 . S
C641 H612 0.930 . S
C641 C636 1.261 . S
C641 C640 1.312 . S
C642 O614 1.214 . S
C642 O622 1.234 . S
C643 H615 0.929 . S
C643 C646 1.391 . S
C643 C648 1.391 . S
C644 H616 0.929 . S
C644 C645 1.390 . S
C644 N647 1.391 . S
C645 H617 0.930 . S
C645 C644 1.390 . S
C645 C646 1.392 . S
C646 H618 0.929 . S
C646 C643 1.391 . S
C646 C645 1.392 . S
N647 Co591 2.257 . S
N647 C644 1.391 . S
N647 C648 1.388 . S
C648 H619 0.930 . S
C648 C643 1.391 . S
C648 N647 1.388 . S
Co649 O651 2.143 . S
Co649 O657 2.074 . S
Co649 O660 2.093 . S
Co649 O673 2.097 . S
Co649 N690 2.151 . S
Co649 N698 2.214 . S
Co650 O651 2.160 . S
Co650 O656 2.058 . S
Co650 O666 2.057 . S
Co650 O681 2.037 . S
Co650 N685 2.145 . S
Co650 N706 2.257 . S
O651 Co649 2.143 . S
O651 Co650 2.160 . S
C652 O653 1.278 . S
C652 O660 1.224 . S
O653 C652 1.278 . S
C654 O655 1.245 . S
C654 O666 1.232 . S
O655 C654 1.245 . S
O656 Co650 2.058 . S
O656 C682 1.269 . S
O657 Co649 2.074 . S
O657 C682 1.257 . S
H658 C683 0.930 . S
H659 C689 0.930 . S
O660 Co649 2.093 . S
O660 C652 1.224 . S
H661 C693 0.929 . S
H662 C695 0.930 . S
H663 C696 0.930 . S
H664 C694 0.929 . S
H665 C697 0.928 . S
O666 Co650 2.057 . S
O666 C654 1.232 . S
H667 C686 0.929 . S
H668 C687 0.929 . S
H669 C699 0.931 . S
H670 C691 0.929 . S
H671 C700 0.930 . S
H672 C692 0.931 . S
O673 Co649 2.097 . S
O673 C701 1.214 . S
H674 C702 0.929 . S
H675 C703 0.929 . S
H676 C704 0.930 . S
H677 C705 0.929 . S
H678 C707 0.930 . S
H679 C684 0.930 . S
H680 C688 0.930 . S
O681 Co650 2.037 . S
O681 C701 1.234 . S
C682 O656 1.269 . S
C682 O657 1.257 . S
C683 H658 0.930 . S
C683 C686 1.388 . S
C683 C688 1.418 . S
C684 H679 0.930 . S
C684 C687 1.404 . S
C684 C688 1.353 . S
N685 Co650 2.145 . S
N685 C686 1.397 . S
N685 C687 1.334 . S
C686 H667 0.929 . S
C686 C683 1.388 . S
C686 N685 1.397 . S
C687 H668 0.929 . S
C687 C684 1.404 . S
C687 N685 1.334 . S
C688 H680 0.930 . S
C688 C683 1.418 . S
C688 C684 1.353 . S
C689 H659 0.930 . S
C689 N690 1.330 . S
C689 C691 1.446 . S
N690 Co649 2.151 . S
N690 C689 1.330 . S
N690 C694 1.418 . S
C691 H670 0.929 . S
C691 C689 1.446 . S
C691 C692 1.332 . S
C692 H672 0.931 . S
C692 C691 1.332 . S
C692 C693 1.267 . S
C693 H661 0.929 . S
C693 C692 1.267 . S
C693 C694 1.251 . S
C694 H664 0.929 . S
C694 N690 1.418 . S
C694 C693 1.251 . S
C695 H662 0.930 . S
C695 C697 1.406 . S
C695 C700 1.261 . S
C696 H663 0.930 . S
C696 N698 1.325 . S
C696 C699 1.357 . S
C697 H665 0.928 . S
C697 C695 1.406 . S
C697 N698 1.261 . S
N698 Co649 2.214 . S
N698 C696 1.325 . S
N698 C697 1.261 . S
C699 H669 0.931 . S
C699 C696 1.357 . S
C699 C700 1.312 . S
C700 H671 0.930 . S
C700 C695 1.261 . S
C700 C699 1.312 . S
C701 O673 1.214 . S
C701 O681 1.234 . S
C702 H674 0.929 . S
C702 C705 1.391 . S
C702 C707 1.391 . S
C703 H675 0.929 . S
C703 C704 1.390 . S
C703 N706 1.391 . S
C704 H676 0.930 . S
C704 C703 1.390 . S
C704 C705 1.392 . S
C705 H677 0.929 . S
C705 C702 1.391 . S
C705 C704 1.392 . S
N706 Co650 2.257 . S
N706 C703 1.391 . S
N706 C707 1.388 . S
C707 H678 0.930 . S
C707 C702 1.391 . S
C707 N706 1.388 . S
Co708 O710 2.143 . S
Co708 O716 2.074 . S
Co708 O719 2.093 . S
Co708 O732 2.097 . S
Co708 N749 2.151 . S
Co708 N757 2.214 . S
Co709 O710 2.160 . S
Co709 O715 2.058 . S
Co709 O725 2.057 . S
Co709 O740 2.037 . S
Co709 N744 2.145 . S
Co709 N765 2.257 . S
O710 Co708 2.143 . S
O710 Co709 2.160 . S
C711 O712 1.278 . S
C711 O719 1.224 . S
O712 C711 1.278 . S
C713 O714 1.245 . S
C713 O725 1.232 . S
O714 C713 1.245 . S
O715 Co709 2.058 . S
O715 C741 1.269 . S
O716 Co708 2.074 . S
O716 C741 1.257 . S
H717 C742 0.930 . S
H718 C748 0.930 . S
O719 Co708 2.093 . S
O719 C711 1.224 . S
H720 C752 0.929 . S
H721 C754 0.930 . S
H722 C755 0.930 . S
H723 C753 0.929 . S
H724 C756 0.928 . S
O725 Co709 2.057 . S
O725 C713 1.232 . S
H726 C745 0.929 . S
H727 C746 0.929 . S
H728 C758 0.931 . S
H729 C750 0.929 . S
H730 C759 0.930 . S
H731 C751 0.931 . S
O732 Co708 2.097 . S
O732 C760 1.214 . S
H733 C761 0.929 . S
H734 C762 0.929 . S
H735 C763 0.930 . S
H736 C764 0.929 . S
H737 C766 0.930 . S
H738 C743 0.930 . S
H739 C747 0.930 . S
O740 Co709 2.037 . S
O740 C760 1.234 . S
C741 O715 1.269 . S
C741 O716 1.257 . S
C742 H717 0.930 . S
C742 C745 1.388 . S
C742 C747 1.418 . S
C743 H738 0.930 . S
C743 C746 1.404 . S
C743 C747 1.353 . S
N744 Co709 2.145 . S
N744 C745 1.397 . S
N744 C746 1.334 . S
C745 H726 0.929 . S
C745 C742 1.388 . S
C745 N744 1.397 . S
C746 H727 0.929 . S
C746 C743 1.404 . S
C746 N744 1.334 . S
C747 H739 0.930 . S
C747 C742 1.418 . S
C747 C743 1.353 . S
C748 H718 0.930 . S
C748 N749 1.330 . S
C748 C750 1.446 . S
N749 Co708 2.151 . S
N749 C748 1.330 . S
N749 C753 1.418 . S
C750 H729 0.929 . S
C750 C748 1.446 . S
C750 C751 1.332 . S
C751 H731 0.931 . S
C751 C750 1.332 . S
C751 C752 1.267 . S
C752 H720 0.929 . S
C752 C751 1.267 . S
C752 C753 1.251 . S
C753 H723 0.929 . S
C753 N749 1.418 . S
C753 C752 1.251 . S
C754 H721 0.930 . S
C754 C756 1.406 . S
C754 C759 1.261 . S
C755 H722 0.930 . S
C755 N757 1.325 . S
C755 C758 1.357 . S
C756 H724 0.928 . S
C756 C754 1.406 . S
C756 N757 1.261 . S
N757 Co708 2.214 . S
N757 C755 1.325 . S
N757 C756 1.261 . S
C758 H728 0.931 . S
C758 C755 1.357 . S
C758 C759 1.312 . S
C759 H730 0.930 . S
C759 C754 1.261 . S
C759 C758 1.312 . S
C760 O732 1.214 . S
C760 O740 1.234 . S
C761 H733 0.929 . S
C761 C764 1.391 . S
C761 C766 1.391 . S
C762 H734 0.929 . S
C762 C763 1.390 . S
C762 N765 1.391 . S
C763 H735 0.930 . S
C763 C762 1.390 . S
C763 C764 1.392 . S
C764 H736 0.929 . S
C764 C761 1.391 . S
C764 C763 1.392 . S
N765 Co709 2.257 . S
N765 C762 1.391 . S
N765 C766 1.388 . S
C766 H737 0.930 . S
C766 C761 1.391 . S
C766 N765 1.388 . S
Co767 O769 2.143 . S
Co767 O775 2.074 . S
Co767 O778 2.093 . S
Co767 O791 2.097 . S
Co767 N808 2.151 . S
Co767 N816 2.214 . S
Co768 O769 2.160 . S
Co768 O774 2.058 . S
Co768 O784 2.057 . S
Co768 O799 2.037 . S
Co768 N803 2.145 . S
Co768 N824 2.257 . S
O769 Co767 2.143 . S
O769 Co768 2.160 . S
C770 O771 1.278 . S
C770 O778 1.224 . S
O771 C770 1.278 . S
C772 O773 1.245 . S
C772 O784 1.232 . S
O773 C772 1.245 . S
O774 Co768 2.058 . S
O774 C800 1.269 . S
O775 Co767 2.074 . S
O775 C800 1.257 . S
H776 C801 0.930 . S
H777 C807 0.930 . S
O778 Co767 2.093 . S
O778 C770 1.224 . S
H779 C811 0.929 . S
H780 C813 0.930 . S
H781 C814 0.930 . S
H782 C812 0.929 . S
H783 C815 0.928 . S
O784 Co768 2.057 . S
O784 C772 1.232 . S
H785 C804 0.929 . S
H786 C805 0.929 . S
H787 C817 0.931 . S
H788 C809 0.929 . S
H789 C818 0.930 . S
H790 C810 0.931 . S
O791 Co767 2.097 . S
O791 C819 1.214 . S
H792 C820 0.929 . S
H793 C821 0.929 . S
H794 C822 0.930 . S
H795 C823 0.929 . S
H796 C825 0.930 . S
H797 C802 0.930 . S
H798 C806 0.930 . S
O799 Co768 2.037 . S
O799 C819 1.234 . S
C800 O774 1.269 . S
C800 O775 1.257 . S
C801 H776 0.930 . S
C801 C804 1.388 . S
C801 C806 1.418 . S
C802 H797 0.930 . S
C802 C805 1.404 . S
C802 C806 1.353 . S
N803 Co768 2.145 . S
N803 C804 1.397 . S
N803 C805 1.334 . S
C804 H785 0.929 . S
C804 C801 1.388 . S
C804 N803 1.397 . S
C805 H786 0.929 . S
C805 C802 1.404 . S
C805 N803 1.334 . S
C806 H798 0.930 . S
C806 C801 1.418 . S
C806 C802 1.353 . S
C807 H777 0.930 . S
C807 N808 1.330 . S
C807 C809 1.446 . S
N808 Co767 2.151 . S
N808 C807 1.330 . S
N808 C812 1.418 . S
C809 H788 0.929 . S
C809 C807 1.446 . S
C809 C810 1.332 . S
C810 H790 0.931 . S
C810 C809 1.332 . S
C810 C811 1.267 . S
C811 H779 0.929 . S
C811 C810 1.267 . S
C811 C812 1.251 . S
C812 H782 0.929 . S
C812 N808 1.418 . S
C812 C811 1.251 . S
C813 H780 0.930 . S
C813 C815 1.406 . S
C813 C818 1.261 . S
C814 H781 0.930 . S
C814 N816 1.325 . S
C814 C817 1.357 . S
C815 H783 0.928 . S
C815 C813 1.406 . S
C815 N816 1.261 . S
N816 Co767 2.214 . S
N816 C814 1.325 . S
N816 C815 1.261 . S
C817 H787 0.931 . S
C817 C814 1.357 . S
C817 C818 1.312 . S
C818 H789 0.930 . S
C818 C813 1.261 . S
C818 C817 1.312 . S
C819 O791 1.214 . S
C819 O799 1.234 . S
C820 H792 0.929 . S
C820 C823 1.391 . S
C820 C825 1.391 . S
C821 H793 0.929 . S
C821 C822 1.390 . S
C821 N824 1.391 . S
C822 H794 0.930 . S
C822 C821 1.390 . S
C822 C823 1.392 . S
C823 H795 0.929 . S
C823 C820 1.391 . S
C823 C822 1.392 . S
N824 Co768 2.257 . S
N824 C821 1.391 . S
N824 C825 1.388 . S
C825 H796 0.930 . S
C825 C820 1.391 . S
C825 N824 1.388 . S
Co826 O828 2.143 . S
Co826 O834 2.074 . S
Co826 O837 2.093 . S
Co826 O850 2.097 . S
Co826 N867 2.151 . S
Co826 N875 2.214 . S
Co827 O828 2.160 . S
Co827 O833 2.058 . S
Co827 O843 2.057 . S
Co827 O858 2.037 . S
Co827 N862 2.145 . S
Co827 N883 2.257 . S
O828 Co826 2.143 . S
O828 Co827 2.160 . S
C829 O830 1.278 . S
C829 O837 1.224 . S
O830 C829 1.278 . S
C831 O832 1.245 . S
C831 O843 1.232 . S
O832 C831 1.245 . S
O833 Co827 2.058 . S
O833 C859 1.269 . S
O834 Co826 2.074 . S
O834 C859 1.257 . S
H835 C860 0.930 . S
H836 C866 0.930 . S
O837 Co826 2.093 . S
O837 C829 1.224 . S
H838 C870 0.929 . S
H839 C872 0.930 . S
H840 C873 0.930 . S
H841 C871 0.929 . S
H842 C874 0.928 . S
O843 Co827 2.057 . S
O843 C831 1.232 . S
H844 C863 0.929 . S
H845 C864 0.929 . S
H846 C876 0.931 . S
H847 C868 0.929 . S
H848 C877 0.930 . S
H849 C869 0.931 . S
O850 Co826 2.097 . S
O850 C878 1.214 . S
H851 C879 0.929 . S
H852 C880 0.929 . S
H853 C881 0.930 . S
H854 C882 0.929 . S
H855 C884 0.930 . S
H856 C861 0.930 . S
H857 C865 0.930 . S
O858 Co827 2.037 . S
O858 C878 1.234 . S
C859 O833 1.269 . S
C859 O834 1.257 . S
C860 H835 0.930 . S
C860 C863 1.388 . S
C860 C865 1.418 . S
C861 H856 0.930 . S
C861 C864 1.404 . S
C861 C865 1.353 . S
N862 Co827 2.145 . S
N862 C863 1.397 . S
N862 C864 1.334 . S
C863 H844 0.929 . S
C863 C860 1.388 . S
C863 N862 1.397 . S
C864 H845 0.929 . S
C864 C861 1.404 . S
C864 N862 1.334 . S
C865 H857 0.930 . S
C865 C860 1.418 . S
C865 C861 1.353 . S
C866 H836 0.930 . S
C866 N867 1.330 . S
C866 C868 1.446 . S
N867 Co826 2.151 . S
N867 C866 1.330 . S
N867 C871 1.418 . S
C868 H847 0.929 . S
C868 C866 1.446 . S
C868 C869 1.332 . S
C869 H849 0.931 . S
C869 C868 1.332 . S
C869 C870 1.267 . S
C870 H838 0.929 . S
C870 C869 1.267 . S
C870 C871 1.251 . S
C871 H841 0.929 . S
C871 N867 1.418 . S
C871 C870 1.251 . S
C872 H839 0.930 . S
C872 C874 1.406 . S
C872 C877 1.261 . S
C873 H840 0.930 . S
C873 N875 1.325 . S
C873 C876 1.357 . S
C874 H842 0.928 . S
C874 C872 1.406 . S
C874 N875 1.261 . S
N875 Co826 2.214 . S
N875 C873 1.325 . S
N875 C874 1.261 . S
C876 H846 0.931 . S
C876 C873 1.357 . S
C876 C877 1.312 . S
C877 H848 0.930 . S
C877 C872 1.261 . S
C877 C876 1.312 . S
C878 O850 1.214 . S
C878 O858 1.234 . S
C879 H851 0.929 . S
C879 C882 1.391 . S
C879 C884 1.391 . S
C880 H852 0.929 . S
C880 C881 1.390 . S
C880 N883 1.391 . S
C881 H853 0.930 . S
C881 C880 1.390 . S
C881 C882 1.392 . S
C882 H854 0.929 . S
C882 C879 1.391 . S
C882 C881 1.392 . S
N883 Co827 2.257 . S
N883 C880 1.391 . S
N883 C884 1.388 . S
C884 H855 0.930 . S
C884 C879 1.391 . S
C884 N883 1.388 . S
Co885 O887 2.143 . S
Co885 O893 2.074 . S
Co885 O896 2.093 . S
Co885 O909 2.097 . S
Co885 N926 2.151 . S
Co885 N934 2.214 . S
Co886 O887 2.160 . S
Co886 O892 2.058 . S
Co886 O902 2.057 . S
Co886 O917 2.037 . S
Co886 N921 2.145 . S
Co886 N942 2.257 . S
O887 Co885 2.143 . S
O887 Co886 2.160 . S
C888 O889 1.278 . S
C888 O896 1.224 . S
O889 C888 1.278 . S
C890 O891 1.245 . S
C890 O902 1.232 . S
O891 C890 1.245 . S
O892 Co886 2.058 . S
O892 C918 1.269 . S
O893 Co885 2.074 . S
O893 C918 1.257 . S
H894 C919 0.930 . S
H895 C925 0.930 . S
O896 Co885 2.093 . S
O896 C888 1.224 . S
H897 C929 0.929 . S
H898 C931 0.930 . S
H899 C932 0.930 . S
H900 C930 0.929 . S
H901 C933 0.928 . S
O902 Co886 2.057 . S
O902 C890 1.232 . S
H903 C922 0.929 . S
H904 C923 0.929 . S
H905 C935 0.931 . S
H906 C927 0.929 . S
H907 C936 0.930 . S
H908 C928 0.931 . S
O909 Co885 2.097 . S
O909 C937 1.214 . S
H910 C938 0.929 . S
H911 C939 0.929 . S
H912 C940 0.930 . S
H913 C941 0.929 . S
H914 C943 0.930 . S
H915 C920 0.930 . S
H916 C924 0.930 . S
O917 Co886 2.037 . S
O917 C937 1.234 . S
C918 O892 1.269 . S
C918 O893 1.257 . S
C919 H894 0.930 . S
C919 C922 1.388 . S
C919 C924 1.418 . S
C920 H915 0.930 . S
C920 C923 1.404 . S
C920 C924 1.353 . S
N921 Co886 2.145 . S
N921 C922 1.397 . S
N921 C923 1.334 . S
C922 H903 0.929 . S
C922 C919 1.388 . S
C922 N921 1.397 . S
C923 H904 0.929 . S
C923 C920 1.404 . S
C923 N921 1.334 . S
C924 H916 0.930 . S
C924 C919 1.418 . S
C924 C920 1.353 . S
C925 H895 0.930 . S
C925 N926 1.330 . S
C925 C927 1.446 . S
N926 Co885 2.151 . S
N926 C925 1.330 . S
N926 C930 1.418 . S
C927 H906 0.929 . S
C927 C925 1.446 . S
C927 C928 1.332 . S
C928 H908 0.931 . S
C928 C927 1.332 . S
C928 C929 1.267 . S
C929 H897 0.929 . S
C929 C928 1.267 . S
C929 C930 1.251 . S
C930 H900 0.929 . S
C930 N926 1.418 . S
C930 C929 1.251 . S
C931 H898 0.930 . S
C931 C933 1.406 . S
C931 C936 1.261 . S
C932 H899 0.930 . S
C932 N934 1.325 . S
C932 C935 1.357 . S
C933 H901 0.928 . S
C933 C931 1.406 . S
C933 N934 1.261 . S
N934 Co885 2.214 . S
N934 C932 1.325 . S
N934 C933 1.261 . S
C935 H905 0.931 . S
C935 C932 1.357 . S
C935 C936 1.312 . S
C936 H907 0.930 . S
C936 C931 1.261 . S
C936 C935 1.312 . S
C937 O909 1.214 . S
C937 O917 1.234 . S
C938 H910 0.929 . S
C938 C941 1.391 . S
C938 C943 1.391 . S
C939 H911 0.929 . S
C939 C940 1.390 . S
C939 N942 1.391 . S
C940 H912 0.930 . S
C940 C939 1.390 . S
C940 C941 1.392 . S
C941 H913 0.929 . S
C941 C938 1.391 . S
C941 C940 1.392 . S
N942 Co886 2.257 . S
N942 C939 1.391 . S
N942 C943 1.388 . S
C943 H914 0.930 . S
C943 C938 1.391 . S
C943 N942 1.388 . S
Co944 O946 2.143 . S
Co944 O952 2.074 . S
Co944 O955 2.093 . S
Co944 O968 2.097 . S
Co944 N985 2.151 . S
Co944 N993 2.214 . S
Co945 O946 2.160 . S
Co945 O951 2.058 . S
Co945 O961 2.057 . S
Co945 O976 2.037 . S
Co945 N980 2.145 . S
Co945 N1001 2.257 . S
O946 Co944 2.143 . S
O946 Co945 2.160 . S
C947 O948 1.278 . S
C947 O955 1.224 . S
O948 C947 1.278 . S
C949 O950 1.245 . S
C949 O961 1.232 . S
O950 C949 1.245 . S
O951 Co945 2.058 . S
O951 C977 1.269 . S
O952 Co944 2.074 . S
O952 C977 1.257 . S
H953 C978 0.930 . S
H954 C984 0.930 . S
O955 Co944 2.093 . S
O955 C947 1.224 . S
H956 C988 0.929 . S
H957 C990 0.930 . S
H958 C991 0.930 . S
H959 C989 0.929 . S
H960 C992 0.928 . S
O961 Co945 2.057 . S
O961 C949 1.232 . S
H962 C981 0.929 . S
H963 C982 0.929 . S
H964 C994 0.931 . S
H965 C986 0.929 . S
H966 C995 0.930 . S
H967 C987 0.931 . S
O968 Co944 2.097 . S
O968 C996 1.214 . S
H969 C997 0.929 . S
H970 C998 0.929 . S
H971 C999 0.930 . S
H972 C1000 0.929 . S
H973 C1002 0.930 . S
H974 C979 0.930 . S
H975 C983 0.930 . S
O976 Co945 2.037 . S
O976 C996 1.234 . S
C977 O951 1.269 . S
C977 O952 1.257 . S
C978 H953 0.930 . S
C978 C981 1.388 . S
C978 C983 1.418 . S
C979 H974 0.930 . S
C979 C982 1.404 . S
C979 C983 1.353 . S
N980 Co945 2.145 . S
N980 C981 1.397 . S
N980 C982 1.334 . S
C981 H962 0.929 . S
C981 C978 1.388 . S
C981 N980 1.397 . S
C982 H963 0.929 . S
C982 C979 1.404 . S
C982 N980 1.334 . S
C983 H975 0.930 . S
C983 C978 1.418 . S
C983 C979 1.353 . S
C984 H954 0.930 . S
C984 N985 1.330 . S
C984 C986 1.446 . S
N985 Co944 2.151 . S
N985 C984 1.330 . S
N985 C989 1.418 . S
C986 H965 0.929 . S
C986 C984 1.446 . S
C986 C987 1.332 . S
C987 H967 0.931 . S
C987 C986 1.332 . S
C987 C988 1.267 . S
C988 H956 0.929 . S
C988 C987 1.267 . S
C988 C989 1.251 . S
C989 H959 0.929 . S
C989 N985 1.418 . S
C989 C988 1.251 . S
C990 H957 0.930 . S
C990 C992 1.406 . S
C990 C995 1.261 . S
C991 H958 0.930 . S
C991 N993 1.325 . S
C991 C994 1.357 . S
C992 H960 0.928 . S
C992 C990 1.406 . S
C992 N993 1.261 . S
N993 Co944 2.214 . S
N993 C991 1.325 . S
N993 C992 1.261 . S
C994 H964 0.931 . S
C994 C991 1.357 . S
C994 C995 1.312 . S
C995 H966 0.930 . S
C995 C990 1.261 . S
C995 C994 1.312 . S
C996 O968 1.214 . S
C996 O976 1.234 . S
C997 H969 0.929 . S
C997 C1000 1.391 . S
C997 C1002 1.391 . S
C998 H970 0.929 . S
C998 C999 1.390 . S
C998 N1001 1.391 . S
C999 H971 0.930 . S
C999 C998 1.390 . S
C999 C1000 1.392 . S
C1000 H972 0.929 . S
C1000 C997 1.391 . S
C1000 C999 1.392 . S
N1001 Co945 2.257 . S
N1001 C998 1.391 . S
N1001 C1002 1.388 . S
C1002 H973 0.930 . S
C1002 C997 1.391 . S
C1002 N1001 1.388 . S
Co1003 O1005 2.143 . S
Co1003 O1011 2.074 . S
Co1003 O1014 2.093 . S
Co1003 O1027 2.097 . S
Co1003 N1044 2.151 . S
Co1003 N1052 2.214 . S
Co1004 O1005 2.160 . S
Co1004 O1010 2.058 . S
Co1004 O1020 2.057 . S
Co1004 O1035 2.037 . S
Co1004 N1039 2.145 . S
Co1004 N1060 2.257 . S
O1005 Co1003 2.143 . S
O1005 Co1004 2.160 . S
C1006 O1007 1.278 . S
C1006 O1014 1.224 . S
O1007 C1006 1.278 . S
C1008 O1009 1.245 . S
C1008 O1020 1.232 . S
O1009 C1008 1.245 . S
O1010 Co1004 2.058 . S
O1010 C1036 1.269 . S
O1011 Co1003 2.074 . S
O1011 C1036 1.257 . S
H1012 C1037 0.930 . S
H1013 C1043 0.930 . S
O1014 Co1003 2.093 . S
O1014 C1006 1.224 . S
H1015 C1047 0.929 . S
H1016 C1049 0.930 . S
H1017 C1050 0.930 . S
H1018 C1048 0.929 . S
H1019 C1051 0.928 . S
O1020 Co1004 2.057 . S
O1020 C1008 1.232 . S
H1021 C1040 0.929 . S
H1022 C1041 0.929 . S
H1023 C1053 0.931 . S
H1024 C1045 0.929 . S
H1025 C1054 0.930 . S
H1026 C1046 0.931 . S
O1027 Co1003 2.097 . S
O1027 C1055 1.214 . S
H1028 C1056 0.929 . S
H1029 C1057 0.929 . S
H1030 C1058 0.930 . S
H1031 C1059 0.929 . S
H1032 C1061 0.930 . S
H1033 C1038 0.930 . S
H1034 C1042 0.930 . S
O1035 Co1004 2.037 . S
O1035 C1055 1.234 . S
C1036 O1010 1.269 . S
C1036 O1011 1.257 . S
C1037 H1012 0.930 . S
C1037 C1040 1.388 . S
C1037 C1042 1.418 . S
C1038 H1033 0.930 . S
C1038 C1041 1.404 . S
C1038 C1042 1.353 . S
N1039 Co1004 2.145 . S
N1039 C1040 1.397 . S
N1039 C1041 1.334 . S
C1040 H1021 0.929 . S
C1040 C1037 1.388 . S
C1040 N1039 1.397 . S
C1041 H1022 0.929 . S
C1041 C1038 1.404 . S
C1041 N1039 1.334 . S
C1042 H1034 0.930 . S
C1042 C1037 1.418 . S
C1042 C1038 1.353 . S
C1043 H1013 0.930 . S
C1043 N1044 1.330 . S
C1043 C1045 1.446 . S
N1044 Co1003 2.151 . S
N1044 C1043 1.330 . S
N1044 C1048 1.418 . S
C1045 H1024 0.929 . S
C1045 C1043 1.446 . S
C1045 C1046 1.332 . S
C1046 H1026 0.931 . S
C1046 C1045 1.332 . S
C1046 C1047 1.267 . S
C1047 H1015 0.929 . S
C1047 C1046 1.267 . S
C1047 C1048 1.251 . S
C1048 H1018 0.929 . S
C1048 N1044 1.418 . S
C1048 C1047 1.251 . S
C1049 H1016 0.930 . S
C1049 C1051 1.406 . S
C1049 C1054 1.261 . S
C1050 H1017 0.930 . S
C1050 N1052 1.325 . S
C1050 C1053 1.357 . S
C1051 H1019 0.928 . S
C1051 C1049 1.406 . S
C1051 N1052 1.261 . S
N1052 Co1003 2.214 . S
N1052 C1050 1.325 . S
N1052 C1051 1.261 . S
C1053 H1023 0.931 . S
C1053 C1050 1.357 . S
C1053 C1054 1.312 . S
C1054 H1025 0.930 . S
C1054 C1049 1.261 . S
C1054 C1053 1.312 . S
C1055 O1027 1.214 . S
C1055 O1035 1.234 . S
C1056 H1028 0.929 . S
C1056 C1059 1.391 . S
C1056 C1061 1.391 . S
C1057 H1029 0.929 . S
C1057 C1058 1.390 . S
C1057 N1060 1.391 . S
C1058 H1030 0.930 . S
C1058 C1057 1.390 . S
C1058 C1059 1.392 . S
C1059 H1031 0.929 . S
C1059 C1056 1.391 . S
C1059 C1058 1.392 . S
N1060 Co1004 2.257 . S
N1060 C1057 1.391 . S
N1060 C1061 1.388 . S
C1061 H1032 0.930 . S
C1061 C1056 1.391 . S
C1061 N1060 1.388 . S
Co1062 O1064 2.143 . S
Co1062 O1070 2.074 . S
Co1062 O1073 2.093 . S
Co1062 O1086 2.097 . S
Co1062 N1103 2.151 . S
Co1062 N1111 2.214 . S
Co1063 O1064 2.160 . S
Co1063 O1069 2.058 . S
Co1063 O1079 2.057 . S
Co1063 O1094 2.037 . S
Co1063 N1098 2.145 . S
Co1063 N1119 2.257 . S
O1064 Co1062 2.143 . S
O1064 Co1063 2.160 . S
C1065 O1066 1.278 . S
C1065 O1073 1.224 . S
O1066 C1065 1.278 . S
C1067 O1068 1.245 . S
C1067 O1079 1.232 . S
O1068 C1067 1.245 . S
O1069 Co1063 2.058 . S
O1069 C1095 1.269 . S
O1070 Co1062 2.074 . S
O1070 C1095 1.257 . S
H1071 C1096 0.930 . S
H1072 C1102 0.930 . S
O1073 Co1062 2.093 . S
O1073 C1065 1.224 . S
H1074 C1106 0.929 . S
H1075 C1108 0.930 . S
H1076 C1109 0.930 . S
H1077 C1107 0.929 . S
H1078 C1110 0.928 . S
O1079 Co1063 2.057 . S
O1079 C1067 1.232 . S
H1080 C1099 0.929 . S
H1081 C1100 0.929 . S
H1082 C1112 0.931 . S
H1083 C1104 0.929 . S
H1084 C1113 0.930 . S
H1085 C1105 0.931 . S
O1086 Co1062 2.097 . S
O1086 C1114 1.214 . S
H1087 C1115 0.929 . S
H1088 C1116 0.929 . S
H1089 C1117 0.930 . S
H1090 C1118 0.929 . S
H1091 C1120 0.930 . S
H1092 C1097 0.930 . S
H1093 C1101 0.930 . S
O1094 Co1063 2.037 . S
O1094 C1114 1.234 . S
C1095 O1069 1.269 . S
C1095 O1070 1.257 . S
C1096 H1071 0.930 . S
C1096 C1099 1.388 . S
C1096 C1101 1.418 . S
C1097 H1092 0.930 . S
C1097 C1100 1.404 . S
C1097 C1101 1.353 . S
N1098 Co1063 2.145 . S
N1098 C1099 1.397 . S
N1098 C1100 1.334 . S
C1099 H1080 0.929 . S
C1099 C1096 1.388 . S
C1099 N1098 1.397 . S
C1100 H1081 0.929 . S
C1100 C1097 1.404 . S
C1100 N1098 1.334 . S
C1101 H1093 0.930 . S
C1101 C1096 1.418 . S
C1101 C1097 1.353 . S
C1102 H1072 0.930 . S
C1102 N1103 1.330 . S
C1102 C1104 1.446 . S
N1103 Co1062 2.151 . S
N1103 C1102 1.330 . S
N1103 C1107 1.418 . S
C1104 H1083 0.929 . S
C1104 C1102 1.446 . S
C1104 C1105 1.332 . S
C1105 H1085 0.931 . S
C1105 C1104 1.332 . S
C1105 C1106 1.267 . S
C1106 H1074 0.929 . S
C1106 C1105 1.267 . S
C1106 C1107 1.251 . S
C1107 H1077 0.929 . S
C1107 N1103 1.418 . S
C1107 C1106 1.251 . S
C1108 H1075 0.930 . S
C1108 C1110 1.406 . S
C1108 C1113 1.261 . S
C1109 H1076 0.930 . S
C1109 N1111 1.325 . S
C1109 C1112 1.357 . S
C1110 H1078 0.928 . S
C1110 C1108 1.406 . S
C1110 N1111 1.261 . S
N1111 Co1062 2.214 . S
N1111 C1109 1.325 . S
N1111 C1110 1.261 . S
C1112 H1082 0.931 . S
C1112 C1109 1.357 . S
C1112 C1113 1.312 . S
C1113 H1084 0.930 . S
C1113 C1108 1.261 . S
C1113 C1112 1.312 . S
C1114 O1086 1.214 . S
C1114 O1094 1.234 . S
C1115 H1087 0.929 . S
C1115 C1118 1.391 . S
C1115 C1120 1.391 . S
C1116 H1088 0.929 . S
C1116 C1117 1.390 . S
C1116 N1119 1.391 . S
C1117 H1089 0.930 . S
C1117 C1116 1.390 . S
C1117 C1118 1.392 . S
C1118 H1090 0.929 . S
C1118 C1115 1.391 . S
C1118 C1117 1.392 . S
N1119 Co1063 2.257 . S
N1119 C1116 1.391 . S
N1119 C1120 1.388 . S
C1120 H1091 0.930 . S
C1120 C1115 1.391 . S
C1120 N1119 1.388 . S
Co1121 O1123 2.143 . S
Co1121 O1129 2.074 . S
Co1121 O1132 2.093 . S
Co1121 O1145 2.097 . S
Co1121 N1162 2.151 . S
Co1121 N1170 2.214 . S
Co1122 O1123 2.160 . S
Co1122 O1128 2.058 . S
Co1122 O1138 2.057 . S
Co1122 O1153 2.037 . S
Co1122 N1157 2.145 . S
Co1122 N1178 2.257 . S
O1123 Co1121 2.143 . S
O1123 Co1122 2.160 . S
C1124 O1125 1.278 . S
C1124 O1132 1.224 . S
O1125 C1124 1.278 . S
C1126 O1127 1.245 . S
C1126 O1138 1.232 . S
O1127 C1126 1.245 . S
O1128 Co1122 2.058 . S
O1128 C1154 1.269 . S
O1129 Co1121 2.074 . S
O1129 C1154 1.257 . S
H1130 C1155 0.930 . S
H1131 C1161 0.930 . S
O1132 Co1121 2.093 . S
O1132 C1124 1.224 . S
H1133 C1165 0.929 . S
H1134 C1167 0.930 . S
H1135 C1168 0.930 . S
H1136 C1166 0.929 . S
H1137 C1169 0.928 . S
O1138 Co1122 2.057 . S
O1138 C1126 1.232 . S
H1139 C1158 0.929 . S
H1140 C1159 0.929 . S
H1141 C1171 0.931 . S
H1142 C1163 0.929 . S
H1143 C1172 0.930 . S
H1144 C1164 0.931 . S
O1145 Co1121 2.097 . S
O1145 C1173 1.214 . S
H1146 C1174 0.929 . S
H1147 C1175 0.929 . S
H1148 C1176 0.930 . S
H1149 C1177 0.929 . S
H1150 C1179 0.930 . S
H1151 C1156 0.930 . S
H1152 C1160 0.930 . S
O1153 Co1122 2.037 . S
O1153 C1173 1.234 . S
C1154 O1128 1.269 . S
C1154 O1129 1.257 . S
C1155 H1130 0.930 . S
C1155 C1158 1.388 . S
C1155 C1160 1.418 . S
C1156 H1151 0.930 . S
C1156 C1159 1.404 . S
C1156 C1160 1.353 . S
N1157 Co1122 2.145 . S
N1157 C1158 1.397 . S
N1157 C1159 1.334 . S
C1158 H1139 0.929 . S
C1158 C1155 1.388 . S
C1158 N1157 1.397 . S
C1159 H1140 0.929 . S
C1159 C1156 1.404 . S
C1159 N1157 1.334 . S
C1160 H1152 0.930 . S
C1160 C1155 1.418 . S
C1160 C1156 1.353 . S
C1161 H1131 0.930 . S
C1161 N1162 1.330 . S
C1161 C1163 1.446 . S
N1162 Co1121 2.151 . S
N1162 C1161 1.330 . S
N1162 C1166 1.418 . S
C1163 H1142 0.929 . S
C1163 C1161 1.446 . S
C1163 C1164 1.332 . S
C1164 H1144 0.931 . S
C1164 C1163 1.332 . S
C1164 C1165 1.267 . S
C1165 H1133 0.929 . S
C1165 C1164 1.267 . S
C1165 C1166 1.251 . S
C1166 H1136 0.929 . S
C1166 N1162 1.418 . S
C1166 C1165 1.251 . S
C1167 H1134 0.930 . S
C1167 C1169 1.406 . S
C1167 C1172 1.261 . S
C1168 H1135 0.930 . S
C1168 N1170 1.325 . S
C1168 C1171 1.357 . S
C1169 H1137 0.928 . S
C1169 C1167 1.406 . S
C1169 N1170 1.261 . S
N1170 Co1121 2.214 . S
N1170 C1168 1.325 . S
N1170 C1169 1.261 . S
C1171 H1141 0.931 . S
C1171 C1168 1.357 . S
C1171 C1172 1.312 . S
C1172 H1143 0.930 . S
C1172 C1167 1.261 . S
C1172 C1171 1.312 . S
C1173 O1145 1.214 . S
C1173 O1153 1.234 . S
C1174 H1146 0.929 . S
C1174 C1177 1.391 . S
C1174 C1179 1.391 . S
C1175 H1147 0.929 . S
C1175 C1176 1.390 . S
C1175 N1178 1.391 . S
C1176 H1148 0.930 . S
C1176 C1175 1.390 . S
C1176 C1177 1.392 . S
C1177 H1149 0.929 . S
C1177 C1174 1.391 . S
C1177 C1176 1.392 . S
N1178 Co1122 2.257 . S
N1178 C1175 1.391 . S
N1178 C1179 1.388 . S
C1179 H1150 0.930 . S
C1179 C1174 1.391 . S
C1179 N1178 1.388 . S
Co1180 O1182 2.143 . S
Co1180 O1188 2.074 . S
Co1180 O1191 2.093 . S
Co1180 O1204 2.097 . S
Co1180 N1221 2.151 . S
Co1180 N1229 2.214 . S
Co1181 O1182 2.160 . S
Co1181 O1187 2.058 . S
Co1181 O1197 2.057 . S
Co1181 O1212 2.037 . S
Co1181 N1216 2.145 . S
Co1181 N1237 2.257 . S
O1182 Co1180 2.143 . S
O1182 Co1181 2.160 . S
C1183 O1184 1.278 . S
C1183 O1191 1.224 . S
O1184 C1183 1.278 . S
C1185 O1186 1.245 . S
C1185 O1197 1.232 . S
O1186 C1185 1.245 . S
O1187 Co1181 2.058 . S
O1187 C1213 1.269 . S
O1188 Co1180 2.074 . S
O1188 C1213 1.257 . S
H1189 C1214 0.930 . S
H1190 C1220 0.930 . S
O1191 Co1180 2.093 . S
O1191 C1183 1.224 . S
H1192 C1224 0.929 . S
H1193 C1226 0.930 . S
H1194 C1227 0.930 . S
H1195 C1225 0.929 . S
H1196 C1228 0.928 . S
O1197 Co1181 2.057 . S
O1197 C1185 1.232 . S
H1198 C1217 0.929 . S
H1199 C1218 0.929 . S
H1200 C1230 0.931 . S
H1201 C1222 0.929 . S
H1202 C1231 0.930 . S
H1203 C1223 0.931 . S
O1204 Co1180 2.097 . S
O1204 C1232 1.214 . S
H1205 C1233 0.929 . S
H1206 C1234 0.929 . S
H1207 C1235 0.930 . S
H1208 C1236 0.929 . S
H1209 C1238 0.930 . S
H1210 C1215 0.930 . S
H1211 C1219 0.930 . S
O1212 Co1181 2.037 . S
O1212 C1232 1.234 . S
C1213 O1187 1.269 . S
C1213 O1188 1.257 . S
C1214 H1189 0.930 . S
C1214 C1217 1.388 . S
C1214 C1219 1.418 . S
C1215 H1210 0.930 . S
C1215 C1218 1.404 . S
C1215 C1219 1.353 . S
N1216 Co1181 2.145 . S
N1216 C1217 1.397 . S
N1216 C1218 1.334 . S
C1217 H1198 0.929 . S
C1217 C1214 1.388 . S
C1217 N1216 1.397 . S
C1218 H1199 0.929 . S
C1218 C1215 1.404 . S
C1218 N1216 1.334 . S
C1219 H1211 0.930 . S
C1219 C1214 1.418 . S
C1219 C1215 1.353 . S
C1220 H1190 0.930 . S
C1220 N1221 1.330 . S
C1220 C1222 1.446 . S
N1221 Co1180 2.151 . S
N1221 C1220 1.330 . S
N1221 C1225 1.418 . S
C1222 H1201 0.929 . S
C1222 C1220 1.446 . S
C1222 C1223 1.332 . S
C1223 H1203 0.931 . S
C1223 C1222 1.332 . S
C1223 C1224 1.267 . S
C1224 H1192 0.929 . S
C1224 C1223 1.267 . S
C1224 C1225 1.251 . S
C1225 H1195 0.929 . S
C1225 N1221 1.418 . S
C1225 C1224 1.251 . S
C1226 H1193 0.930 . S
C1226 C1228 1.406 . S
C1226 C1231 1.261 . S
C1227 H1194 0.930 . S
C1227 N1229 1.325 . S
C1227 C1230 1.357 . S
C1228 H1196 0.928 . S
C1228 C1226 1.406 . S
C1228 N1229 1.261 . S
N1229 Co1180 2.214 . S
N1229 C1227 1.325 . S
N1229 C1228 1.261 . S
C1230 H1200 0.931 . S
C1230 C1227 1.357 . S
C1230 C1231 1.312 . S
C1231 H1202 0.930 . S
C1231 C1226 1.261 . S
C1231 C1230 1.312 . S
C1232 O1204 1.214 . S
C1232 O1212 1.234 . S
C1233 H1205 0.929 . S
C1233 C1236 1.391 . S
C1233 C1238 1.391 . S
C1234 H1206 0.929 . S
C1234 C1235 1.390 . S
C1234 N1237 1.391 . S
C1235 H1207 0.930 . S
C1235 C1234 1.390 . S
C1235 C1236 1.392 . S
C1236 H1208 0.929 . S
C1236 C1233 1.391 . S
C1236 C1235 1.392 . S
N1237 Co1181 2.257 . S
N1237 C1234 1.391 . S
N1237 C1238 1.388 . S
C1238 H1209 0.930 . S
C1238 C1233 1.391 . S
C1238 N1237 1.388 . S
Co1239 O1241 2.143 . S
Co1239 O1247 2.074 . S
Co1239 O1250 2.093 . S
Co1239 O1263 2.097 . S
Co1239 N1280 2.151 . S
Co1239 N1288 2.214 . S
Co1240 O1241 2.160 . S
Co1240 O1246 2.058 . S
Co1240 O1256 2.057 . S
Co1240 O1271 2.037 . S
Co1240 N1275 2.145 . S
Co1240 N1296 2.257 . S
O1241 Co1239 2.143 . S
O1241 Co1240 2.160 . S
C1242 O1243 1.278 . S
C1242 O1250 1.224 . S
O1243 C1242 1.278 . S
C1244 O1245 1.245 . S
C1244 O1256 1.232 . S
O1245 C1244 1.245 . S
O1246 Co1240 2.058 . S
O1246 C1272 1.269 . S
O1247 Co1239 2.074 . S
O1247 C1272 1.257 . S
H1248 C1273 0.930 . S
H1249 C1279 0.930 . S
O1250 Co1239 2.093 . S
O1250 C1242 1.224 . S
H1251 C1283 0.929 . S
H1252 C1285 0.930 . S
H1253 C1286 0.930 . S
H1254 C1284 0.929 . S
H1255 C1287 0.928 . S
O1256 Co1240 2.057 . S
O1256 C1244 1.232 . S
H1257 C1276 0.929 . S
H1258 C1277 0.929 . S
H1259 C1289 0.931 . S
H1260 C1281 0.929 . S
H1261 C1290 0.930 . S
H1262 C1282 0.931 . S
O1263 Co1239 2.097 . S
O1263 C1291 1.214 . S
H1264 C1292 0.929 . S
H1265 C1293 0.929 . S
H1266 C1294 0.930 . S
H1267 C1295 0.929 . S
H1268 C1297 0.930 . S
H1269 C1274 0.930 . S
H1270 C1278 0.930 . S
O1271 Co1240 2.037 . S
O1271 C1291 1.234 . S
C1272 O1246 1.269 . S
C1272 O1247 1.257 . S
C1273 H1248 0.930 . S
C1273 C1276 1.388 . S
C1273 C1278 1.418 . S
C1274 H1269 0.930 . S
C1274 C1277 1.404 . S
C1274 C1278 1.353 . S
N1275 Co1240 2.145 . S
N1275 C1276 1.397 . S
N1275 C1277 1.334 . S
C1276 H1257 0.929 . S
C1276 C1273 1.388 . S
C1276 N1275 1.397 . S
C1277 H1258 0.929 . S
C1277 C1274 1.404 . S
C1277 N1275 1.334 . S
C1278 H1270 0.930 . S
C1278 C1273 1.418 . S
C1278 C1274 1.353 . S
C1279 H1249 0.930 . S
C1279 N1280 1.330 . S
C1279 C1281 1.446 . S
N1280 Co1239 2.151 . S
N1280 C1279 1.330 . S
N1280 C1284 1.418 . S
C1281 H1260 0.929 . S
C1281 C1279 1.446 . S
C1281 C1282 1.332 . S
C1282 H1262 0.931 . S
C1282 C1281 1.332 . S
C1282 C1283 1.267 . S
C1283 H1251 0.929 . S
C1283 C1282 1.267 . S
C1283 C1284 1.251 . S
C1284 H1254 0.929 . S
C1284 N1280 1.418 . S
C1284 C1283 1.251 . S
C1285 H1252 0.930 . S
C1285 C1287 1.406 . S
C1285 C1290 1.261 . S
C1286 H1253 0.930 . S
C1286 N1288 1.325 . S
C1286 C1289 1.357 . S
C1287 H1255 0.928 . S
C1287 C1285 1.406 . S
C1287 N1288 1.261 . S
N1288 Co1239 2.214 . S
N1288 C1286 1.325 . S
N1288 C1287 1.261 . S
C1289 H1259 0.931 . S
C1289 C1286 1.357 . S
C1289 C1290 1.312 . S
C1290 H1261 0.930 . S
C1290 C1285 1.261 . S
C1290 C1289 1.312 . S
C1291 O1263 1.214 . S
C1291 O1271 1.234 . S
C1292 H1264 0.929 . S
C1292 C1295 1.391 . S
C1292 C1297 1.391 . S
C1293 H1265 0.929 . S
C1293 C1294 1.390 . S
C1293 N1296 1.391 . S
C1294 H1266 0.930 . S
C1294 C1293 1.390 . S
C1294 C1295 1.392 . S
C1295 H1267 0.929 . S
C1295 C1292 1.391 . S
C1295 C1294 1.392 . S
N1296 Co1240 2.257 . S
N1296 C1293 1.391 . S
N1296 C1297 1.388 . S
C1297 H1268 0.930 . S
C1297 C1292 1.391 . S
C1297 N1296 1.388 . S
Co1298 O1300 2.143 . S
Co1298 O1306 2.074 . S
Co1298 O1309 2.093 . S
Co1298 O1322 2.097 . S
Co1298 N1339 2.151 . S
Co1298 N1347 2.214 . S
Co1299 O1300 2.160 . S
Co1299 O1305 2.058 . S
Co1299 O1315 2.057 . S
Co1299 O1330 2.037 . S
Co1299 N1334 2.145 . S
Co1299 N1355 2.257 . S
O1300 Co1298 2.143 . S
O1300 Co1299 2.160 . S
C1301 O1302 1.278 . S
C1301 O1309 1.224 . S
O1302 C1301 1.278 . S
C1303 O1304 1.245 . S
C1303 O1315 1.232 . S
O1304 C1303 1.245 . S
O1305 Co1299 2.058 . S
O1305 C1331 1.269 . S
O1306 Co1298 2.074 . S
O1306 C1331 1.257 . S
H1307 C1332 0.930 . S
H1308 C1338 0.930 . S
O1309 Co1298 2.093 . S
O1309 C1301 1.224 . S
H1310 C1342 0.929 . S
H1311 C1344 0.930 . S
H1312 C1345 0.930 . S
H1313 C1343 0.929 . S
H1314 C1346 0.928 . S
O1315 Co1299 2.057 . S
O1315 C1303 1.232 . S
H1316 C1335 0.929 . S
H1317 C1336 0.929 . S
H1318 C1348 0.931 . S
H1319 C1340 0.929 . S
H1320 C1349 0.930 . S
H1321 C1341 0.931 . S
O1322 Co1298 2.097 . S
O1322 C1350 1.214 . S
H1323 C1351 0.929 . S
H1324 C1352 0.929 . S
H1325 C1353 0.930 . S
H1326 C1354 0.929 . S
H1327 C1356 0.930 . S
H1328 C1333 0.930 . S
H1329 C1337 0.930 . S
O1330 Co1299 2.037 . S
O1330 C1350 1.234 . S
C1331 O1305 1.269 . S
C1331 O1306 1.257 . S
C1332 H1307 0.930 . S
C1332 C1335 1.388 . S
C1332 C1337 1.418 . S
C1333 H1328 0.930 . S
C1333 C1336 1.404 . S
C1333 C1337 1.353 . S
N1334 Co1299 2.145 . S
N1334 C1335 1.397 . S
N1334 C1336 1.334 . S
C1335 H1316 0.929 . S
C1335 C1332 1.388 . S
C1335 N1334 1.397 . S
C1336 H1317 0.929 . S
C1336 C1333 1.404 . S
C1336 N1334 1.334 . S
C1337 H1329 0.930 . S
C1337 C1332 1.418 . S
C1337 C1333 1.353 . S
C1338 H1308 0.930 . S
C1338 N1339 1.330 . S
C1338 C1340 1.446 . S
N1339 Co1298 2.151 . S
N1339 C1338 1.330 . S
N1339 C1343 1.418 . S
C1340 H1319 0.929 . S
C1340 C1338 1.446 . S
C1340 C1341 1.332 . S
C1341 H1321 0.931 . S
C1341 C1340 1.332 . S
C1341 C1342 1.267 . S
C1342 H1310 0.929 . S
C1342 C1341 1.267 . S
C1342 C1343 1.251 . S
C1343 H1313 0.929 . S
C1343 N1339 1.418 . S
C1343 C1342 1.251 . S
C1344 H1311 0.930 . S
C1344 C1346 1.406 . S
C1344 C1349 1.261 . S
C1345 H1312 0.930 . S
C1345 N1347 1.325 . S
C1345 C1348 1.357 . S
C1346 H1314 0.928 . S
C1346 C1344 1.406 . S
C1346 N1347 1.261 . S
N1347 Co1298 2.214 . S
N1347 C1345 1.325 . S
N1347 C1346 1.261 . S
C1348 H1318 0.931 . S
C1348 C1345 1.357 . S
C1348 C1349 1.312 . S
C1349 H1320 0.930 . S
C1349 C1344 1.261 . S
C1349 C1348 1.312 . S
C1350 O1322 1.214 . S
C1350 O1330 1.234 . S
C1351 H1323 0.929 . S
C1351 C1354 1.391 . S
C1351 C1356 1.391 . S
C1352 H1324 0.929 . S
C1352 C1353 1.390 . S
C1352 N1355 1.391 . S
C1353 H1325 0.930 . S
C1353 C1352 1.390 . S
C1353 C1354 1.392 . S
C1354 H1326 0.929 . S
C1354 C1351 1.391 . S
C1354 C1353 1.392 . S
N1355 Co1299 2.257 . S
N1355 C1352 1.391 . S
N1355 C1356 1.388 . S
C1356 H1327 0.930 . S
C1356 C1351 1.391 . S
C1356 N1355 1.388 . S
Co1357 O1359 2.143 . S
Co1357 O1365 2.074 . S
Co1357 O1368 2.093 . S
Co1357 O1381 2.097 . S
Co1357 N1398 2.151 . S
Co1357 N1406 2.214 . S
Co1358 O1359 2.160 . S
Co1358 O1364 2.058 . S
Co1358 O1374 2.057 . S
Co1358 O1389 2.037 . S
Co1358 N1393 2.145 . S
Co1358 N1414 2.257 . S
O1359 Co1357 2.143 . S
O1359 Co1358 2.160 . S
C1360 O1361 1.278 . S
C1360 O1368 1.224 . S
O1361 C1360 1.278 . S
C1362 O1363 1.245 . S
C1362 O1374 1.232 . S
O1363 C1362 1.245 . S
O1364 Co1358 2.058 . S
O1364 C1390 1.269 . S
O1365 Co1357 2.074 . S
O1365 C1390 1.257 . S
H1366 C1391 0.930 . S
H1367 C1397 0.930 . S
O1368 Co1357 2.093 . S
O1368 C1360 1.224 . S
H1369 C1401 0.929 . S
H1370 C1403 0.930 . S
H1371 C1404 0.930 . S
H1372 C1402 0.929 . S
H1373 C1405 0.928 . S
O1374 Co1358 2.057 . S
O1374 C1362 1.232 . S
H1375 C1394 0.929 . S
H1376 C1395 0.929 . S
H1377 C1407 0.931 . S
H1378 C1399 0.929 . S
H1379 C1408 0.930 . S
H1380 C1400 0.931 . S
O1381 Co1357 2.097 . S
O1381 C1409 1.214 . S
H1382 C1410 0.929 . S
H1383 C1411 0.929 . S
H1384 C1412 0.930 . S
H1385 C1413 0.929 . S
H1386 C1415 0.930 . S
H1387 C1392 0.930 . S
H1388 C1396 0.930 . S
O1389 Co1358 2.037 . S
O1389 C1409 1.234 . S
C1390 O1364 1.269 . S
C1390 O1365 1.257 . S
C1391 H1366 0.930 . S
C1391 C1394 1.388 . S
C1391 C1396 1.418 . S
C1392 H1387 0.930 . S
C1392 C1395 1.404 . S
C1392 C1396 1.353 . S
N1393 Co1358 2.145 . S
N1393 C1394 1.397 . S
N1393 C1395 1.334 . S
C1394 H1375 0.929 . S
C1394 C1391 1.388 . S
C1394 N1393 1.397 . S
C1395 H1376 0.929 . S
C1395 C1392 1.404 . S
C1395 N1393 1.334 . S
C1396 H1388 0.930 . S
C1396 C1391 1.418 . S
C1396 C1392 1.353 . S
C1397 H1367 0.930 . S
C1397 N1398 1.330 . S
C1397 C1399 1.446 . S
N1398 Co1357 2.151 . S
N1398 C1397 1.330 . S
N1398 C1402 1.418 . S
C1399 H1378 0.929 . S
C1399 C1397 1.446 . S
C1399 C1400 1.332 . S
C1400 H1380 0.931 . S
C1400 C1399 1.332 . S
C1400 C1401 1.267 . S
C1401 H1369 0.929 . S
C1401 C1400 1.267 . S
C1401 C1402 1.251 . S
C1402 H1372 0.929 . S
C1402 N1398 1.418 . S
C1402 C1401 1.251 . S
C1403 H1370 0.930 . S
C1403 C1405 1.406 . S
C1403 C1408 1.261 . S
C1404 H1371 0.930 . S
C1404 N1406 1.325 . S
C1404 C1407 1.357 . S
C1405 H1373 0.928 . S
C1405 C1403 1.406 . S
C1405 N1406 1.261 . S
N1406 Co1357 2.214 . S
N1406 C1404 1.325 . S
N1406 C1405 1.261 . S
C1407 H1377 0.931 . S
C1407 C1404 1.357 . S
C1407 C1408 1.312 . S
C1408 H1379 0.930 . S
C1408 C1403 1.261 . S
C1408 C1407 1.312 . S
C1409 O1381 1.214 . S
C1409 O1389 1.234 . S
C1410 H1382 0.929 . S
C1410 C1413 1.391 . S
C1410 C1415 1.391 . S
C1411 H1383 0.929 . S
C1411 C1412 1.390 . S
C1411 N1414 1.391 . S
C1412 H1384 0.930 . S
C1412 C1411 1.390 . S
C1412 C1413 1.392 . S
C1413 H1385 0.929 . S
C1413 C1410 1.391 . S
C1413 C1412 1.392 . S
N1414 Co1358 2.257 . S
N1414 C1411 1.391 . S
N1414 C1415 1.388 . S
C1415 H1386 0.930 . S
C1415 C1410 1.391 . S
C1415 N1414 1.388 . S
H1416 C1424 0.929 . S
H1417 C1426 0.930 . S
H1418 C1428 0.930 . S
H1419 C1431 0.929 . S
H1420 C1434 0.930 . S
H1421 C1436 0.960 . S
H1422 C1436 0.960 . S
H1423 C1436 0.960 . S
C1424 H1416 0.929 . S
C1424 C1425 1.377 . S
C1424 C1426 1.384 . S
C1425 C1424 1.377 . S
C1425 C1431 1.390 . S
C1426 H1417 0.930 . S
C1426 C1424 1.384 . S
C1426 C1427 1.372 . S
C1427 C1426 1.372 . S
C1427 C1428 1.400 . S
C1427 C1432 1.490 . S
C1428 H1418 0.930 . S
C1428 C1427 1.400 . S
C1428 C1431 1.386 . S
H1429 C1445 0.930 . S
H1430 C1446 0.931 . S
C1431 H1419 0.929 . S
C1431 C1425 1.390 . S
C1431 C1428 1.386 . S
C1432 C1427 1.490 . S
C1432 C1434 1.395 . S
C1432 C1435 1.403 . S
H1433 C1439 0.930 . S
C1434 H1420 0.930 . S
C1434 C1432 1.395 . S
C1434 C1437 1.403 . S
C1435 C1432 1.403 . S
C1435 C1436 1.524 . S
C1435 C1439 1.400 . S
C1436 H1421 0.960 . S
C1436 H1422 0.960 . S
C1436 H1423 0.960 . S
C1436 C1435 1.524 . S
C1437 C1434 1.403 . S
C1437 C1438 1.392 . S
C1437 C1441 1.495 . S
C1438 C1437 1.392 . S
C1438 C1439 1.385 . S
C1438 C1440 1.478 . S
C1439 H1433 0.930 . S
C1439 C1435 1.400 . S
C1439 C1438 1.385 . S
C1440 C1438 1.478 . S
C1440 C1442 1.381 . S
C1440 C1446 1.383 . S
C1441 C1437 1.495 . S
C1441 H1447 0.959 . S
C1441 H1448 0.961 . S
C1441 H1449 0.960 . S
C1442 C1440 1.381 . S
C1442 C1443 1.394 . S
C1442 H1450 0.930 . S
C1443 C1442 1.394 . S
C1443 C1444 1.383 . S
C1443 H1451 0.929 . S
C1444 C1443 1.383 . S
C1444 C1445 1.377 . S
C1445 H1429 0.930 . S
C1445 C1444 1.377 . S
C1445 C1446 1.379 . S
C1446 H1430 0.931 . S
C1446 C1440 1.383 . S
C1446 C1445 1.379 . S
H1447 C1441 0.959 . S
H1448 C1441 0.961 . S
H1449 C1441 0.960 . S
H1450 C1442 0.930 . S
H1451 C1443 0.929 . S
H1452 C1460 0.929 . S
H1453 C1462 0.930 . S
H1454 C1464 0.930 . S
H1455 C1467 0.929 . S
H1456 C1470 0.930 . S
H1457 C1472 0.960 . S
H1458 C1472 0.960 . S
H1459 C1472 0.960 . S
C1460 H1452 0.929 . S
C1460 C1461 1.377 . S
C1460 C1462 1.384 . S
C1461 C1460 1.377 . S
C1461 C1467 1.390 . S
C1462 H1453 0.930 . S
C1462 C1460 1.384 . S
C1462 C1463 1.372 . S
C1463 C1462 1.372 . S
C1463 C1464 1.400 . S
C1463 C1468 1.490 . S
C1464 H1454 0.930 . S
C1464 C1463 1.400 . S
C1464 C1467 1.386 . S
H1465 C1481 0.930 . S
H1466 C1482 0.931 . S
C1467 H1455 0.929 . S
C1467 C1461 1.390 . S
C1467 C1464 1.386 . S
C1468 C1463 1.490 . S
C1468 C1470 1.395 . S
C1468 C1471 1.403 . S
H1469 C1475 0.930 . S
C1470 H1456 0.930 . S
C1470 C1468 1.395 . S
C1470 C1473 1.403 . S
C1471 C1468 1.403 . S
C1471 C1472 1.524 . S
C1471 C1475 1.400 . S
C1472 H1457 0.960 . S
C1472 H1458 0.960 . S
C1472 H1459 0.960 . S
C1472 C1471 1.524 . S
C1473 C1470 1.403 . S
C1473 C1474 1.392 . S
C1473 C1477 1.495 . S
C1474 C1473 1.392 . S
C1474 C1475 1.385 . S
C1474 C1476 1.478 . S
C1475 H1469 0.930 . S
C1475 C1471 1.400 . S
C1475 C1474 1.385 . S
C1476 C1474 1.478 . S
C1476 C1478 1.381 . S
C1476 C1482 1.383 . S
C1477 C1473 1.495 . S
C1477 H1483 0.959 . S
C1477 H1484 0.961 . S
C1477 H1485 0.960 . S
C1478 C1476 1.381 . S
C1478 C1479 1.394 . S
C1478 H1486 0.930 . S
C1479 C1478 1.394 . S
C1479 C1480 1.383 . S
C1479 H1487 0.929 . S
C1480 C1479 1.383 . S
C1480 C1481 1.377 . S
C1481 H1465 0.930 . S
C1481 C1480 1.377 . S
C1481 C1482 1.379 . S
C1482 H1466 0.931 . S
C1482 C1476 1.383 . S
C1482 C1481 1.379 . S
H1483 C1477 0.959 . S
H1484 C1477 0.961 . S
H1485 C1477 0.960 . S
H1486 C1478 0.930 . S
H1487 C1479 0.929 . S
H1488 C1496 0.929 . S
H1489 C1498 0.930 . S
H1490 C1500 0.930 . S
H1491 C1503 0.929 . S
H1492 C1506 0.930 . S
H1493 C1508 0.960 . S
H1494 C1508 0.960 . S
H1495 C1508 0.960 . S
C1496 H1488 0.929 . S
C1496 C1497 1.377 . S
C1496 C1498 1.384 . S
C1497 C1496 1.377 . S
C1497 C1503 1.390 . S
C1498 H1489 0.930 . S
C1498 C1496 1.384 . S
C1498 C1499 1.372 . S
C1499 C1498 1.372 . S
C1499 C1500 1.400 . S
C1499 C1504 1.490 . S
C1500 H1490 0.930 . S
C1500 C1499 1.400 . S
C1500 C1503 1.386 . S
H1501 C1517 0.930 . S
H1502 C1518 0.931 . S
C1503 H1491 0.929 . S
C1503 C1497 1.390 . S
C1503 C1500 1.386 . S
C1504 C1499 1.490 . S
C1504 C1506 1.395 . S
C1504 C1507 1.403 . S
H1505 C1511 0.930 . S
C1506 H1492 0.930 . S
C1506 C1504 1.395 . S
C1506 C1509 1.403 . S
C1507 C1504 1.403 . S
C1507 C1508 1.524 . S
C1507 C1511 1.400 . S
C1508 H1493 0.960 . S
C1508 H1494 0.960 . S
C1508 H1495 0.960 . S
C1508 C1507 1.524 . S
C1509 C1506 1.403 . S
C1509 C1510 1.392 . S
C1509 C1513 1.495 . S
C1510 C1509 1.392 . S
C1510 C1511 1.385 . S
C1510 C1512 1.478 . S
C1511 H1505 0.930 . S
C1511 C1507 1.400 . S
C1511 C1510 1.385 . S
C1512 C1510 1.478 . S
C1512 C1514 1.381 . S
C1512 C1518 1.383 . S
C1513 C1509 1.495 . S
C1513 H1519 0.959 . S
C1513 H1520 0.961 . S
C1513 H1521 0.960 . S
C1514 C1512 1.381 . S
C1514 C1515 1.394 . S
C1514 H1522 0.930 . S
C1515 C1514 1.394 . S
C1515 C1516 1.383 . S
C1515 H1523 0.929 . S
C1516 C1515 1.383 . S
C1516 C1517 1.377 . S
C1517 H1501 0.930 . S
C1517 C1516 1.377 . S
C1517 C1518 1.379 . S
C1518 H1502 0.931 . S
C1518 C1512 1.383 . S
C1518 C1517 1.379 . S
H1519 C1513 0.959 . S
H1520 C1513 0.961 . S
H1521 C1513 0.960 . S
H1522 C1514 0.930 . S
H1523 C1515 0.929 . S
H1524 C1532 0.929 . S
H1525 C1534 0.930 . S
H1526 C1536 0.930 . S
H1527 C1539 0.929 . S
H1528 C1542 0.930 . S
H1529 C1544 0.960 . S
H1530 C1544 0.960 . S
H1531 C1544 0.960 . S
C1532 H1524 0.929 . S
C1532 C1533 1.377 . S
C1532 C1534 1.384 . S
C1533 C1532 1.377 . S
C1533 C1539 1.390 . S
C1534 H1525 0.930 . S
C1534 C1532 1.384 . S
C1534 C1535 1.372 . S
C1535 C1534 1.372 . S
C1535 C1536 1.400 . S
C1535 C1540 1.490 . S
C1536 H1526 0.930 . S
C1536 C1535 1.400 . S
C1536 C1539 1.386 . S
H1537 C1553 0.930 . S
H1538 C1554 0.931 . S
C1539 H1527 0.929 . S
C1539 C1533 1.390 . S
C1539 C1536 1.386 . S
C1540 C1535 1.490 . S
C1540 C1542 1.395 . S
C1540 C1543 1.403 . S
H1541 C1547 0.930 . S
C1542 H1528 0.930 . S
C1542 C1540 1.395 . S
C1542 C1545 1.403 . S
C1543 C1540 1.403 . S
C1543 C1544 1.524 . S
C1543 C1547 1.400 . S
C1544 H1529 0.960 . S
C1544 H1530 0.960 . S
C1544 H1531 0.960 . S
C1544 C1543 1.524 . S
C1545 C1542 1.403 . S
C1545 C1546 1.392 . S
C1545 C1549 1.495 . S
C1546 C1545 1.392 . S
C1546 C1547 1.385 . S
C1546 C1548 1.478 . S
C1547 H1541 0.930 . S
C1547 C1543 1.400 . S
C1547 C1546 1.385 . S
C1548 C1546 1.478 . S
C1548 C1550 1.381 . S
C1548 C1554 1.383 . S
C1549 C1545 1.495 . S
C1549 H1555 0.959 . S
C1549 H1556 0.961 . S
C1549 H1557 0.960 . S
C1550 C1548 1.381 . S
C1550 C1551 1.394 . S
C1550 H1558 0.930 . S
C1551 C1550 1.394 . S
C1551 C1552 1.383 . S
C1551 H1559 0.929 . S
C1552 C1551 1.383 . S
C1552 C1553 1.377 . S
C1553 H1537 0.930 . S
C1553 C1552 1.377 . S
C1553 C1554 1.379 . S
C1554 H1538 0.931 . S
C1554 C1548 1.383 . S
C1554 C1553 1.379 . S
H1555 C1549 0.959 . S
H1556 C1549 0.961 . S
H1557 C1549 0.960 . S
H1558 C1550 0.930 . S
H1559 C1551 0.929 . S
H1560 C1568 0.929 . S
H1561 C1570 0.930 . S
H1562 C1572 0.930 . S
H1563 C1575 0.929 . S
H1564 C1578 0.930 . S
H1565 C1580 0.960 . S
H1566 C1580 0.960 . S
H1567 C1580 0.960 . S
C1568 H1560 0.929 . S
C1568 C1569 1.377 . S
C1568 C1570 1.384 . S
C1569 C1568 1.377 . S
C1569 C1575 1.390 . S
C1570 H1561 0.930 . S
C1570 C1568 1.384 . S
C1570 C1571 1.372 . S
C1571 C1570 1.372 . S
C1571 C1572 1.400 . S
C1571 C1576 1.490 . S
C1572 H1562 0.930 . S
C1572 C1571 1.400 . S
C1572 C1575 1.386 . S
H1573 C1589 0.930 . S
H1574 C1590 0.931 . S
C1575 H1563 0.929 . S
C1575 C1569 1.390 . S
C1575 C1572 1.386 . S
C1576 C1571 1.490 . S
C1576 C1578 1.395 . S
C1576 C1579 1.403 . S
H1577 C1583 0.930 . S
C1578 H1564 0.930 . S
C1578 C1576 1.395 . S
C1578 C1581 1.403 . S
C1579 C1576 1.403 . S
C1579 C1580 1.524 . S
C1579 C1583 1.400 . S
C1580 H1565 0.960 . S
C1580 H1566 0.960 . S
C1580 H1567 0.960 . S
C1580 C1579 1.524 . S
C1581 C1578 1.403 . S
C1581 C1582 1.392 . S
C1581 C1585 1.495 . S
C1582 C1581 1.392 . S
C1582 C1583 1.385 . S
C1582 C1584 1.478 . S
C1583 H1577 0.930 . S
C1583 C1579 1.400 . S
C1583 C1582 1.385 . S
C1584 C1582 1.478 . S
C1584 C1586 1.381 . S
C1584 C1590 1.383 . S
C1585 C1581 1.495 . S
C1585 H1591 0.959 . S
C1585 H1592 0.961 . S
C1585 H1593 0.960 . S
C1586 C1584 1.381 . S
C1586 C1587 1.394 . S
C1586 H1594 0.930 . S
C1587 C1586 1.394 . S
C1587 C1588 1.383 . S
C1587 H1595 0.929 . S
C1588 C1587 1.383 . S
C1588 C1589 1.377 . S
C1589 H1573 0.930 . S
C1589 C1588 1.377 . S
C1589 C1590 1.379 . S
C1590 H1574 0.931 . S
C1590 C1584 1.383 . S
C1590 C1589 1.379 . S
H1591 C1585 0.959 . S
H1592 C1585 0.961 . S
H1593 C1585 0.960 . S
H1594 C1586 0.930 . S
H1595 C1587 0.929 . S
H1596 C1604 0.929 . S
H1597 C1606 0.930 . S
H1598 C1608 0.930 . S
H1599 C1611 0.929 . S
H1600 C1614 0.930 . S
H1601 C1616 0.960 . S
H1602 C1616 0.960 . S
H1603 C1616 0.960 . S
C1604 H1596 0.929 . S
C1604 C1605 1.377 . S
C1604 C1606 1.384 . S
C1605 C1604 1.377 . S
C1605 C1611 1.390 . S
C1606 H1597 0.930 . S
C1606 C1604 1.384 . S
C1606 C1607 1.372 . S
C1607 C1606 1.372 . S
C1607 C1608 1.400 . S
C1607 C1612 1.490 . S
C1608 H1598 0.930 . S
C1608 C1607 1.400 . S
C1608 C1611 1.386 . S
H1609 C1625 0.930 . S
H1610 C1626 0.931 . S
C1611 H1599 0.929 . S
C1611 C1605 1.390 . S
C1611 C1608 1.386 . S
C1612 C1607 1.490 . S
C1612 C1614 1.395 . S
C1612 C1615 1.403 . S
H1613 C1619 0.930 . S
C1614 H1600 0.930 . S
C1614 C1612 1.395 . S
C1614 C1617 1.403 . S
C1615 C1612 1.403 . S
C1615 C1616 1.524 . S
C1615 C1619 1.400 . S
C1616 H1601 0.960 . S
C1616 H1602 0.960 . S
C1616 H1603 0.960 . S
C1616 C1615 1.524 . S
C1617 C1614 1.403 . S
C1617 C1618 1.392 . S
C1617 C1621 1.495 . S
C1618 C1617 1.392 . S
C1618 C1619 1.385 . S
C1618 C1620 1.478 . S
C1619 H1613 0.930 . S
C1619 C1615 1.400 . S
C1619 C1618 1.385 . S
C1620 C1618 1.478 . S
C1620 C1622 1.381 . S
C1620 C1626 1.383 . S
C1621 C1617 1.495 . S
C1621 H1627 0.959 . S
C1621 H1628 0.961 . S
C1621 H1629 0.960 . S
C1622 C1620 1.381 . S
C1622 C1623 1.394 . S
C1622 H1630 0.930 . S
C1623 C1622 1.394 . S
C1623 C1624 1.383 . S
C1623 H1631 0.929 . S
C1624 C1623 1.383 . S
C1624 C1625 1.377 . S
C1625 H1609 0.930 . S
C1625 C1624 1.377 . S
C1625 C1626 1.379 . S
C1626 H1610 0.931 . S
C1626 C1620 1.383 . S
C1626 C1625 1.379 . S
H1627 C1621 0.959 . S
H1628 C1621 0.961 . S
H1629 C1621 0.960 . S
H1630 C1622 0.930 . S
H1631 C1623 0.929 . S
H1632 C1640 0.929 . S
H1633 C1642 0.930 . S
H1634 C1644 0.930 . S
H1635 C1647 0.929 . S
H1636 C1650 0.930 . S
H1637 C1652 0.960 . S
H1638 C1652 0.960 . S
H1639 C1652 0.960 . S
C1640 H1632 0.929 . S
C1640 C1641 1.377 . S
C1640 C1642 1.384 . S
C1641 C1640 1.377 . S
C1641 C1647 1.390 . S
C1642 H1633 0.930 . S
C1642 C1640 1.384 . S
C1642 C1643 1.372 . S
C1643 C1642 1.372 . S
C1643 C1644 1.400 . S
C1643 C1648 1.490 . S
C1644 H1634 0.930 . S
C1644 C1643 1.400 . S
C1644 C1647 1.386 . S
H1645 C1661 0.930 . S
H1646 C1662 0.931 . S
C1647 H1635 0.929 . S
C1647 C1641 1.390 . S
C1647 C1644 1.386 . S
C1648 C1643 1.490 . S
C1648 C1650 1.395 . S
C1648 C1651 1.403 . S
H1649 C1655 0.930 . S
C1650 H1636 0.930 . S
C1650 C1648 1.395 . S
C1650 C1653 1.403 . S
C1651 C1648 1.403 . S
C1651 C1652 1.524 . S
C1651 C1655 1.400 . S
C1652 H1637 0.960 . S
C1652 H1638 0.960 . S
C1652 H1639 0.960 . S
C1652 C1651 1.524 . S
C1653 C1650 1.403 . S
C1653 C1654 1.392 . S
C1653 C1657 1.495 . S
C1654 C1653 1.392 . S
C1654 C1655 1.385 . S
C1654 C1656 1.478 . S
C1655 H1649 0.930 . S
C1655 C1651 1.400 . S
C1655 C1654 1.385 . S
C1656 C1654 1.478 . S
C1656 C1658 1.381 . S
C1656 C1662 1.383 . S
C1657 C1653 1.495 . S
C1657 H1663 0.959 . S
C1657 H1664 0.961 . S
C1657 H1665 0.960 . S
C1658 C1656 1.381 . S
C1658 C1659 1.394 . S
C1658 H1666 0.930 . S
C1659 C1658 1.394 . S
C1659 C1660 1.383 . S
C1659 H1667 0.929 . S
C1660 C1659 1.383 . S
C1660 C1661 1.377 . S
C1661 H1645 0.930 . S
C1661 C1660 1.377 . S
C1661 C1662 1.379 . S
C1662 H1646 0.931 . S
C1662 C1656 1.383 . S
C1662 C1661 1.379 . S
H1663 C1657 0.959 . S
H1664 C1657 0.961 . S
H1665 C1657 0.960 . S
H1666 C1658 0.930 . S
H1667 C1659 0.929 . S
H1668 C1676 0.929 . S
H1669 C1678 0.930 . S
H1670 C1680 0.930 . S
H1671 C1683 0.929 . S
H1672 C1686 0.930 . S
H1673 C1688 0.960 . S
H1674 C1688 0.960 . S
H1675 C1688 0.960 . S
C1676 H1668 0.929 . S
C1676 C1677 1.377 . S
C1676 C1678 1.384 . S
C1677 C1676 1.377 . S
C1677 C1683 1.390 . S
C1678 H1669 0.930 . S
C1678 C1676 1.384 . S
C1678 C1679 1.372 . S
C1679 C1678 1.372 . S
C1679 C1680 1.400 . S
C1679 C1684 1.490 . S
C1680 H1670 0.930 . S
C1680 C1679 1.400 . S
C1680 C1683 1.386 . S
H1681 C1697 0.930 . S
H1682 C1698 0.931 . S
C1683 H1671 0.929 . S
C1683 C1677 1.390 . S
C1683 C1680 1.386 . S
C1684 C1679 1.490 . S
C1684 C1686 1.395 . S
C1684 C1687 1.403 . S
H1685 C1691 0.930 . S
C1686 H1672 0.930 . S
C1686 C1684 1.395 . S
C1686 C1689 1.403 . S
C1687 C1684 1.403 . S
C1687 C1688 1.524 . S
C1687 C1691 1.400 . S
C1688 H1673 0.960 . S
C1688 H1674 0.960 . S
C1688 H1675 0.960 . S
C1688 C1687 1.524 . S
C1689 C1686 1.403 . S
C1689 C1690 1.392 . S
C1689 C1693 1.495 . S
C1690 C1689 1.392 . S
C1690 C1691 1.385 . S
C1690 C1692 1.478 . S
C1691 H1685 0.930 . S
C1691 C1687 1.400 . S
C1691 C1690 1.385 . S
C1692 C1690 1.478 . S
C1692 C1694 1.381 . S
C1692 C1698 1.383 . S
C1693 C1689 1.495 . S
C1693 H1699 0.959 . S
C1693 H1700 0.961 . S
C1693 H1701 0.960 . S
C1694 C1692 1.381 . S
C1694 C1695 1.394 . S
C1694 H1702 0.930 . S
C1695 C1694 1.394 . S
C1695 C1696 1.383 . S
C1695 H1703 0.929 . S
C1696 C1695 1.383 . S
C1696 C1697 1.377 . S
C1697 H1681 0.930 . S
C1697 C1696 1.377 . S
C1697 C1698 1.379 . S
C1698 H1682 0.931 . S
C1698 C1692 1.383 . S
C1698 C1697 1.379 . S
H1699 C1693 0.959 . S
H1700 C1693 0.961 . S
H1701 C1693 0.960 . S
H1702 C1694 0.930 . S
H1703 C1695 0.929 . S
H1704 C1712 0.929 . S
H1705 C1714 0.930 . S
H1706 C1716 0.930 . S
H1707 C1719 0.929 . S
H1708 C1722 0.930 . S
H1709 C1724 0.960 . S
H1710 C1724 0.960 . S
H1711 C1724 0.960 . S
C1712 H1704 0.929 . S
C1712 C1713 1.377 . S
C1712 C1714 1.384 . S
C1713 C1712 1.377 . S
C1713 C1719 1.390 . S
C1714 H1705 0.930 . S
C1714 C1712 1.384 . S
C1714 C1715 1.372 . S
C1715 C1714 1.372 . S
C1715 C1716 1.400 . S
C1715 C1720 1.490 . S
C1716 H1706 0.930 . S
C1716 C1715 1.400 . S
C1716 C1719 1.386 . S
H1717 C1733 0.930 . S
H1718 C1734 0.931 . S
C1719 H1707 0.929 . S
C1719 C1713 1.390 . S
C1719 C1716 1.386 . S
C1720 C1715 1.490 . S
C1720 C1722 1.395 . S
C1720 C1723 1.403 . S
H1721 C1727 0.930 . S
C1722 H1708 0.930 . S
C1722 C1720 1.395 . S
C1722 C1725 1.403 . S
C1723 C1720 1.403 . S
C1723 C1724 1.524 . S
C1723 C1727 1.400 . S
C1724 H1709 0.960 . S
C1724 H1710 0.960 . S
C1724 H1711 0.960 . S
C1724 C1723 1.524 . S
C1725 C1722 1.403 . S
C1725 C1726 1.392 . S
C1725 C1729 1.495 . S
C1726 C1725 1.392 . S
C1726 C1727 1.385 . S
C1726 C1728 1.478 . S
C1727 H1721 0.930 . S
C1727 C1723 1.400 . S
C1727 C1726 1.385 . S
C1728 C1726 1.478 . S
C1728 C1730 1.381 . S
C1728 C1734 1.383 . S
C1729 C1725 1.495 . S
C1729 H1735 0.959 . S
C1729 H1736 0.961 . S
C1729 H1737 0.960 . S
C1730 C1728 1.381 . S
C1730 C1731 1.394 . S
C1730 H1738 0.930 . S
C1731 C1730 1.394 . S
C1731 C1732 1.383 . S
C1731 H1739 0.929 . S
C1732 C1731 1.383 . S
C1732 C1733 1.377 . S
C1733 H1717 0.930 . S
C1733 C1732 1.377 . S
C1733 C1734 1.379 . S
C1734 H1718 0.931 . S
C1734 C1728 1.383 . S
C1734 C1733 1.379 . S
H1735 C1729 0.959 . S
H1736 C1729 0.961 . S
H1737 C1729 0.960 . S
H1738 C1730 0.930 . S
H1739 C1731 0.929 . S
H1740 C1748 0.929 . S
H1741 C1750 0.930 . S
H1742 C1752 0.930 . S
H1743 C1755 0.929 . S
H1744 C1758 0.930 . S
H1745 C1760 0.960 . S
H1746 C1760 0.960 . S
H1747 C1760 0.960 . S
C1748 H1740 0.929 . S
C1748 C1749 1.377 . S
C1748 C1750 1.384 . S
C1749 C1748 1.377 . S
C1749 C1755 1.390 . S
C1750 H1741 0.930 . S
C1750 C1748 1.384 . S
C1750 C1751 1.372 . S
C1751 C1750 1.372 . S
C1751 C1752 1.400 . S
C1751 C1756 1.490 . S
C1752 H1742 0.930 . S
C1752 C1751 1.400 . S
C1752 C1755 1.386 . S
H1753 C1769 0.930 . S
H1754 C1770 0.931 . S
C1755 H1743 0.929 . S
C1755 C1749 1.390 . S
C1755 C1752 1.386 . S
C1756 C1751 1.490 . S
C1756 C1758 1.395 . S
C1756 C1759 1.403 . S
H1757 C1763 0.930 . S
C1758 H1744 0.930 . S
C1758 C1756 1.395 . S
C1758 C1761 1.403 . S
C1759 C1756 1.403 . S
C1759 C1760 1.524 . S
C1759 C1763 1.400 . S
C1760 H1745 0.960 . S
C1760 H1746 0.960 . S
C1760 H1747 0.960 . S
C1760 C1759 1.524 . S
C1761 C1758 1.403 . S
C1761 C1762 1.392 . S
C1761 C1765 1.495 . S
C1762 C1761 1.392 . S
C1762 C1763 1.385 . S
C1762 C1764 1.478 . S
C1763 H1757 0.930 . S
C1763 C1759 1.400 . S
C1763 C1762 1.385 . S
C1764 C1762 1.478 . S
C1764 C1766 1.381 . S
C1764 C1770 1.383 . S
C1765 C1761 1.495 . S
C1765 H1771 0.959 . S
C1765 H1772 0.961 . S
C1765 H1773 0.960 . S
C1766 C1764 1.381 . S
C1766 C1767 1.394 . S
C1766 H1774 0.930 . S
C1767 C1766 1.394 . S
C1767 C1768 1.383 . S
C1767 H1775 0.929 . S
C1768 C1767 1.383 . S
C1768 C1769 1.377 . S
C1769 H1753 0.930 . S
C1769 C1768 1.377 . S
C1769 C1770 1.379 . S
C1770 H1754 0.931 . S
C1770 C1764 1.383 . S
C1770 C1769 1.379 . S
H1771 C1765 0.959 . S
H1772 C1765 0.961 . S
H1773 C1765 0.960 . S
H1774 C1766 0.930 . S
H1775 C1767 0.929 . S
H1776 C1784 0.929 . S
H1777 C1786 0.930 . S
H1778 C1788 0.930 . S
H1779 C1791 0.929 . S
H1780 C1794 0.930 . S
H1781 C1796 0.960 . S
H1782 C1796 0.960 . S
H1783 C1796 0.960 . S
C1784 H1776 0.929 . S
C1784 C1785 1.377 . S
C1784 C1786 1.384 . S
C1785 C1784 1.377 . S
C1785 C1791 1.390 . S
C1786 H1777 0.930 . S
C1786 C1784 1.384 . S
C1786 C1787 1.372 . S
C1787 C1786 1.372 . S
C1787 C1788 1.400 . S
C1787 C1792 1.490 . S
C1788 H1778 0.930 . S
C1788 C1787 1.400 . S
C1788 C1791 1.386 . S
H1789 C1805 0.930 . S
H1790 C1806 0.931 . S
C1791 H1779 0.929 . S
C1791 C1785 1.390 . S
C1791 C1788 1.386 . S
C1792 C1787 1.490 . S
C1792 C1794 1.395 . S
C1792 C1795 1.403 . S
H1793 C1799 0.930 . S
C1794 H1780 0.930 . S
C1794 C1792 1.395 . S
C1794 C1797 1.403 . S
C1795 C1792 1.403 . S
C1795 C1796 1.524 . S
C1795 C1799 1.400 . S
C1796 H1781 0.960 . S
C1796 H1782 0.960 . S
C1796 H1783 0.960 . S
C1796 C1795 1.524 . S
C1797 C1794 1.403 . S
C1797 C1798 1.392 . S
C1797 C1801 1.495 . S
C1798 C1797 1.392 . S
C1798 C1799 1.385 . S
C1798 C1800 1.478 . S
C1799 H1793 0.930 . S
C1799 C1795 1.400 . S
C1799 C1798 1.385 . S
C1800 C1798 1.478 . S
C1800 C1802 1.381 . S
C1800 C1806 1.383 . S
C1801 C1797 1.495 . S
C1801 H1807 0.959 . S
C1801 H1808 0.961 . S
C1801 H1809 0.960 . S
C1802 C1800 1.381 . S
C1802 C1803 1.394 . S
C1802 H1810 0.930 . S
C1803 C1802 1.394 . S
C1803 C1804 1.383 . S
C1803 H1811 0.929 . S
C1804 C1803 1.383 . S
C1804 C1805 1.377 . S
C1805 H1789 0.930 . S
C1805 C1804 1.377 . S
C1805 C1806 1.379 . S
C1806 H1790 0.931 . S
C1806 C1800 1.383 . S
C1806 C1805 1.379 . S
H1807 C1801 0.959 . S
H1808 C1801 0.961 . S
H1809 C1801 0.960 . S
H1810 C1802 0.930 . S
H1811 C1803 0.929 . S
H1812 C1820 0.929 . S
H1813 C1822 0.930 . S
H1814 C1824 0.930 . S
H1815 C1827 0.929 . S
H1816 C1830 0.930 . S
H1817 C1832 0.960 . S
H1818 C1832 0.960 . S
H1819 C1832 0.960 . S
C1820 H1812 0.929 . S
C1820 C1821 1.377 . S
C1820 C1822 1.384 . S
C1821 C1820 1.377 . S
C1821 C1827 1.390 . S
C1822 H1813 0.930 . S
C1822 C1820 1.384 . S
C1822 C1823 1.372 . S
C1823 C1822 1.372 . S
C1823 C1824 1.400 . S
C1823 C1828 1.490 . S
C1824 H1814 0.930 . S
C1824 C1823 1.400 . S
C1824 C1827 1.386 . S
H1825 C1841 0.930 . S
H1826 C1842 0.931 . S
C1827 H1815 0.929 . S
C1827 C1821 1.390 . S
C1827 C1824 1.386 . S
C1828 C1823 1.490 . S
C1828 C1830 1.395 . S
C1828 C1831 1.403 . S
H1829 C1835 0.930 . S
C1830 H1816 0.930 . S
C1830 C1828 1.395 . S
C1830 C1833 1.403 . S
C1831 C1828 1.403 . S
C1831 C1832 1.524 . S
C1831 C1835 1.400 . S
C1832 H1817 0.960 . S
C1832 H1818 0.960 . S
C1832 H1819 0.960 . S
C1832 C1831 1.524 . S
C1833 C1830 1.403 . S
C1833 C1834 1.392 . S
C1833 C1837 1.495 . S
C1834 C1833 1.392 . S
C1834 C1835 1.385 . S
C1834 C1836 1.478 . S
C1835 H1829 0.930 . S
C1835 C1831 1.400 . S
C1835 C1834 1.385 . S
C1836 C1834 1.478 . S
C1836 C1838 1.381 . S
C1836 C1842 1.383 . S
C1837 C1833 1.495 . S
C1837 H1843 0.959 . S
C1837 H1844 0.961 . S
C1837 H1845 0.960 . S
C1838 C1836 1.381 . S
C1838 C1839 1.394 . S
C1838 H1846 0.930 . S
C1839 C1838 1.394 . S
C1839 C1840 1.383 . S
C1839 H1847 0.929 . S
C1840 C1839 1.383 . S
C1840 C1841 1.377 . S
C1841 H1825 0.930 . S
C1841 C1840 1.377 . S
C1841 C1842 1.379 . S
C1842 H1826 0.931 . S
C1842 C1836 1.383 . S
C1842 C1841 1.379 . S
H1843 C1837 0.959 . S
H1844 C1837 0.961 . S
H1845 C1837 0.960 . S
H1846 C1838 0.930 . S
H1847 C1839 0.929 . S
H1848 C1856 0.929 . S
H1849 C1858 0.930 . S
H1850 C1860 0.930 . S
H1851 C1863 0.929 . S
H1852 C1866 0.930 . S
H1853 C1868 1.001 . S
H1854 C1868 0.925 1_565 S
H1855 C1868 0.959 1_565 S
C1856 H1848 0.929 . S
C1856 C1857 1.377 . S
C1856 C1858 1.384 . S
C1857 C1856 1.377 . S
C1857 C1863 1.390 . S
C1858 H1849 0.930 . S
C1858 C1856 1.384 . S
C1858 C1859 1.372 . S
C1859 C1858 1.372 . S
C1859 C1860 1.400 . S
C1859 C1864 1.490 . S
C1860 H1850 0.930 . S
C1860 C1859 1.400 . S
C1860 C1863 1.386 . S
H1861 C1877 0.930 . S
H1862 C1878 0.931 . S
C1863 H1851 0.929 . S
C1863 C1857 1.390 . S
C1863 C1860 1.386 . S
C1864 C1859 1.490 . S
C1864 C1866 1.395 . S
C1864 C1867 1.428 . S
H1865 C1871 0.930 . S
C1866 H1852 0.930 . S
C1866 C1864 1.395 . S
C1866 C1869 1.403 . S
C1867 C1864 1.428 . S
C1867 C1868 1.521 1_565 S
C1867 C1871 1.376 1_565 S
C1868 H1853 1.001 . S
C1868 H1854 0.925 1_545 S
C1868 H1855 0.959 1_545 S
C1868 C1867 1.521 1_545 S
C1869 C1866 1.403 . S
C1869 C1870 1.392 1_565 S
C1869 C1873 1.495 . S
C1870 C1869 1.392 1_545 S
C1870 C1871 1.385 . S
C1870 C1872 1.478 . S
C1871 H1865 0.930 . S
C1871 C1867 1.376 1_545 S
C1871 C1870 1.385 . S
C1872 C1870 1.478 . S
C1872 C1874 1.381 . S
C1872 C1878 1.383 . S
C1873 C1869 1.495 . S
C1873 H1879 0.959 . S
C1873 H1880 0.961 1_565 S
C1873 H1881 0.960 . S
C1874 C1872 1.381 . S
C1874 C1875 1.394 . S
C1874 H1882 0.930 . S
C1875 C1874 1.394 . S
C1875 C1876 1.383 . S
C1875 H1883 0.929 . S
C1876 C1875 1.383 . S
C1876 C1877 1.377 . S
C1877 H1861 0.930 . S
C1877 C1876 1.377 . S
C1877 C1878 1.379 . S
C1878 H1862 0.931 . S
C1878 C1872 1.383 . S
C1878 C1877 1.379 . S
H1879 C1873 0.959 . S
H1880 C1873 0.961 1_545 S
H1881 C1873 0.960 . S
H1882 C1874 0.930 . S
H1883 C1875 0.929 . S
H1884 C1892 0.929 . S
H1885 C1894 0.930 . S
H1886 C1896 0.930 . S
H1887 C1899 0.929 . S
H1888 C1902 0.932 . S
H1889 C1904 0.960 . S
H1890 C1904 0.960 . S
H1891 C1904 0.960 . S
C1892 H1884 0.929 . S
C1892 C1893 1.377 . S
C1892 C1894 1.384 . S
C1893 C1892 1.377 . S
C1893 C1899 1.390 . S
C1894 H1885 0.930 . S
C1894 C1892 1.384 . S
C1894 C1895 1.372 . S
C1895 C1894 1.372 . S
C1895 C1896 1.400 . S
C1895 C1900 1.490 . S
C1896 H1886 0.930 . S
C1896 C1895 1.400 . S
C1896 C1899 1.386 . S
H1897 C1913 0.930 . S
H1898 C1914 0.931 . S
C1899 H1887 0.929 . S
C1899 C1893 1.390 . S
C1899 C1896 1.386 . S
C1900 C1895 1.490 . S
C1900 C1902 1.395 1_655 S
C1900 C1903 1.403 . S
H1901 C1907 0.930 . S
C1902 H1888 0.932 . S
C1902 C1900 1.395 1_455 S
C1902 C1905 1.403 . S
C1903 C1900 1.403 . S
C1903 C1904 1.524 . S
C1903 C1907 1.400 1_655 S
C1904 H1889 0.960 . S
C1904 H1890 0.960 . S
C1904 H1891 0.960 . S
C1904 C1903 1.524 . S
C1905 C1902 1.403 . S
C1905 C1906 1.392 . S
C1905 C1909 1.495 . S
C1906 C1905 1.392 . S
C1906 C1907 1.385 . S
C1906 C1908 1.478 . S
C1907 H1901 0.930 . S
C1907 C1903 1.400 1_455 S
C1907 C1906 1.385 . S
C1908 C1906 1.478 . S
C1908 C1910 1.381 . S
C1908 C1914 1.383 . S
C1909 C1905 1.495 . S
C1909 H1915 0.959 . S
C1909 H1916 0.961 . S
C1909 H1917 0.960 . S
C1910 C1908 1.381 . S
C1910 C1911 1.394 . S
C1910 H1918 0.930 . S
C1911 C1910 1.394 . S
C1911 C1912 1.383 . S
C1911 H1919 0.929 . S
C1912 C1911 1.383 . S
C1912 C1913 1.377 . S
C1913 H1897 0.930 . S
C1913 C1912 1.377 . S
C1913 C1914 1.379 . S
C1914 H1898 0.931 . S
C1914 C1908 1.383 . S
C1914 C1913 1.379 . S
H1915 C1909 0.959 . S
H1916 C1909 0.961 . S
H1917 C1909 0.960 . S
H1918 C1910 0.930 . S
H1919 C1911 0.929 . S
H1920 C1928 0.929 . S
H1921 C1930 0.930 . S
H1922 C1932 0.930 . S
H1923 C1935 0.929 . S
H1924 C1938 0.930 . S
H1925 C1940 0.960 . S
H1926 C1940 0.960 . S
H1927 C1940 0.960 1_545 S
C1928 H1920 0.929 . S
C1928 C1929 1.377 . S
C1928 C1930 1.384 . S
C1929 C1928 1.377 . S
C1929 C1935 1.390 . S
C1930 H1921 0.930 . S
C1930 C1928 1.384 . S
C1930 C1931 1.372 . S
C1931 C1930 1.372 . S
C1931 C1932 1.400 . S
C1931 C1936 1.490 . S
C1932 H1922 0.930 . S
C1932 C1931 1.400 . S
C1932 C1935 1.386 . S
H1933 C1949 0.930 . S
H1934 C1950 0.931 . S
C1935 H1923 0.929 . S
C1935 C1929 1.390 . S
C1935 C1932 1.386 . S
C1936 C1931 1.490 . S
C1936 C1938 1.395 . S
C1936 C1939 1.373 1_545 S
H1937 C1943 0.930 . S
C1938 H1924 0.930 . S
C1938 C1936 1.395 . S
C1938 C1941 1.445 . S
C1939 C1936 1.373 1_565 S
C1939 C1940 1.528 . S
C1939 C1943 1.428 . S
C1940 H1925 0.960 . S
C1940 H1926 0.960 . S
C1940 H1927 0.960 1_565 S
C1940 C1939 1.528 . S
C1941 C1938 1.445 . S
C1941 C1942 1.349 1_545 S
C1941 C1945 1.500 . S
C1942 C1941 1.349 1_565 S
C1942 C1943 1.385 . S
C1942 C1944 1.478 . S
C1943 H1937 0.930 . S
C1943 C1939 1.428 . S
C1943 C1942 1.385 . S
C1944 C1942 1.478 . S
C1944 C1946 1.381 . S
C1944 C1950 1.383 . S
C1945 C1941 1.500 . S
C1945 H1951 0.959 . S
C1945 H1952 0.961 . S
C1945 H1953 0.960 1_545 S
C1946 C1944 1.381 . S
C1946 C1947 1.394 . S
C1946 H1954 0.930 . S
C1947 C1946 1.394 . S
C1947 C1948 1.383 . S
C1947 H1955 0.929 . S
C1948 C1947 1.383 . S
C1948 C1949 1.377 . S
C1949 H1933 0.930 . S
C1949 C1948 1.377 . S
C1949 C1950 1.379 . S
C1950 H1934 0.931 . S
C1950 C1944 1.383 . S
C1950 C1949 1.379 . S
H1951 C1945 0.959 . S
H1952 C1945 0.961 . S
H1953 C1945 0.960 1_565 S
H1954 C1946 0.930 . S
H1955 C1947 0.929 . S
H1956 C1964 0.929 . S
H1957 C1966 0.930 . S
H1958 C1968 0.930 . S
H1959 C1971 0.929 . S
H1960 C1974 0.930 . S
H1961 C1976 0.960 . S
H1962 C1976 0.960 . S
H1963 C1976 0.960 . S
C1964 H1956 0.929 . S
C1964 C1965 1.377 . S
C1964 C1966 1.384 . S
C1965 C1964 1.377 . S
C1965 C1971 1.390 . S
C1966 H1957 0.930 . S
C1966 C1964 1.384 . S
C1966 C1967 1.372 . S
C1967 C1966 1.372 . S
C1967 C1968 1.400 . S
C1967 C1972 1.490 . S
C1968 H1958 0.930 . S
C1968 C1967 1.400 . S
C1968 C1971 1.386 . S
H1969 C1985 0.930 . S
H1970 C1986 0.931 . S
C1971 H1959 0.929 . S
C1971 C1965 1.390 . S
C1971 C1968 1.386 . S
C1972 C1967 1.490 . S
C1972 C1974 1.395 1_455 S
C1972 C1975 1.403 . S
H1973 C1979 0.930 1_455 S
C1974 H1960 0.930 . S
C1974 C1972 1.395 1_655 S
C1974 C1977 1.403 . S
C1975 C1972 1.403 . S
C1975 C1976 1.524 . S
C1975 C1979 1.401 1_455 S
C1976 H1961 0.960 . S
C1976 H1962 0.960 . S
C1976 H1963 0.960 . S
C1976 C1975 1.524 . S
C1977 C1974 1.403 . S
C1977 C1978 1.392 . S
C1977 C1981 1.495 . S
C1978 C1977 1.392 . S
C1978 C1979 1.384 . S
C1978 C1980 1.478 . S
C1979 H1973 0.930 1_655 S
C1979 C1975 1.401 1_655 S
C1979 C1978 1.384 . S
C1980 C1978 1.478 . S
C1980 C1982 1.381 . S
C1980 C1986 1.383 . S
C1981 C1977 1.495 . S
C1981 H1987 0.959 . S
C1981 H1988 0.961 . S
C1981 H1989 0.960 . S
C1982 C1980 1.381 . S
C1982 C1983 1.394 . S
C1982 H1990 0.930 . S
C1983 C1982 1.394 . S
C1983 C1984 1.383 . S
C1983 H1991 0.929 . S
C1984 C1983 1.383 . S
C1984 C1985 1.377 . S
C1985 H1969 0.930 . S
C1985 C1984 1.377 . S
C1985 C1986 1.379 . S
C1986 H1970 0.931 . S
C1986 C1980 1.383 . S
C1986 C1985 1.379 . S
H1987 C1981 0.959 . S
H1988 C1981 0.961 . S
H1989 C1981 0.960 . S
H1990 C1982 0.930 . S
H1991 C1983 0.929 . S
H1992 C2000 0.929 . S
H1993 C2002 0.930 . S
H1994 C2004 0.930 . S
H1995 C2007 0.929 . S
H1996 C2010 0.930 . S
H1997 C2012 0.960 . S
H1998 C2012 0.960 . S
H1999 C2012 0.960 . S
C2000 H1992 0.929 . S
C2000 C2001 1.377 . S
C2000 C2002 1.384 . S
C2001 C2000 1.377 . S
C2001 C2007 1.390 . S
C2002 H1993 0.930 . S
C2002 C2000 1.384 . S
C2002 C2003 1.372 . S
C2003 C2002 1.372 . S
C2003 C2004 1.400 . S
C2003 C2008 1.490 . S
C2004 H1994 0.930 . S
C2004 C2003 1.400 . S
C2004 C2007 1.386 . S
H2005 C2021 0.930 . S
H2006 C2022 0.931 . S
C2007 H1995 0.929 . S
C2007 C2001 1.390 . S
C2007 C2004 1.386 . S
C2008 C2003 1.490 . S
C2008 C2010 1.395 1_565 S
C2008 C2011 1.403 . S
H2009 C2015 0.930 . S
C2010 H1996 0.930 . S
C2010 C2008 1.395 1_545 S
C2010 C2013 1.403 . S
C2011 C2008 1.403 . S
C2011 C2012 1.524 . S
C2011 C2015 1.400 1_565 S
C2012 H1997 0.960 . S
C2012 H1998 0.960 . S
C2012 H1999 0.960 . S
C2012 C2011 1.524 . S
C2013 C2010 1.403 . S
C2013 C2014 1.392 . S
C2013 C2017 1.495 . S
C2014 C2013 1.392 . S
C2014 C2015 1.385 . S
C2014 C2016 1.478 . S
C2015 H2009 0.930 . S
C2015 C2011 1.400 1_545 S
C2015 C2014 1.385 . S
C2016 C2014 1.478 . S
C2016 C2018 1.381 . S
C2016 C2022 1.383 . S
C2017 C2013 1.495 . S
C2017 H2023 0.959 . S
C2017 H2024 0.961 . S
C2017 H2025 0.960 . S
C2018 C2016 1.381 . S
C2018 C2019 1.394 . S
C2018 H2026 0.930 . S
C2019 C2018 1.394 . S
C2019 C2020 1.383 . S
C2019 H2027 0.929 . S
C2020 C2019 1.383 . S
C2020 C2021 1.377 . S
C2021 H2005 0.930 . S
C2021 C2020 1.377 . S
C2021 C2022 1.379 . S
C2022 H2006 0.931 . S
C2022 C2016 1.383 . S
C2022 C2021 1.379 . S
H2023 C2017 0.959 . S
H2024 C2017 0.961 . S
H2025 C2017 0.960 . S
H2026 C2018 0.930 . S
H2027 C2019 0.929 . S
H2028 C2036 0.929 . S
H2029 C2038 0.930 . S
H2030 C2040 0.930 . S
H2031 C2043 0.929 . S
H2032 C2046 0.930 . S
H2033 C2048 0.960 . S
H2034 C2048 0.960 . S
H2035 C2048 0.960 . S
C2036 H2028 0.929 . S
C2036 C2037 1.377 . S
C2036 C2038 1.384 . S
C2037 C2036 1.377 . S
C2037 C2043 1.390 . S
C2038 H2029 0.930 . S
C2038 C2036 1.384 . S
C2038 C2039 1.372 . S
C2039 C2038 1.372 . S
C2039 C2040 1.400 . S
C2039 C2044 1.490 . S
C2040 H2030 0.930 . S
C2040 C2039 1.400 . S
C2040 C2043 1.386 . S
H2041 C2057 0.930 . S
H2042 C2058 0.931 . S
C2043 H2031 0.929 . S
C2043 C2037 1.390 . S
C2043 C2040 1.386 . S
C2044 C2039 1.490 . S
C2044 C2046 1.395 . S
C2044 C2047 1.403 . S
H2045 C2051 0.930 . S
C2046 H2032 0.930 . S
C2046 C2044 1.395 . S
C2046 C2049 1.403 1_655 S
C2047 C2044 1.403 . S
C2047 C2048 1.524 . S
C2047 C2051 1.400 1_655 S
C2048 H2033 0.960 . S
C2048 H2034 0.960 . S
C2048 H2035 0.960 . S
C2048 C2047 1.524 . S
C2049 C2046 1.403 1_455 S
C2049 C2050 1.392 . S
C2049 C2053 1.495 . S
C2050 C2049 1.392 . S
C2050 C2051 1.385 . S
C2050 C2052 1.478 . S
C2051 H2045 0.930 . S
C2051 C2047 1.400 1_455 S
C2051 C2050 1.385 . S
C2052 C2050 1.478 . S
C2052 C2054 1.381 . S
C2052 C2058 1.383 . S
C2053 C2049 1.495 . S
C2053 H2059 0.959 . S
C2053 H2060 0.961 . S
C2053 H2061 0.960 . S
C2054 C2052 1.381 . S
C2054 C2055 1.394 . S
C2054 H2062 0.930 . S
C2055 C2054 1.394 . S
C2055 C2056 1.383 . S
C2055 H2063 0.929 . S
C2056 C2055 1.383 . S
C2056 C2057 1.377 . S
C2057 H2041 0.930 . S
C2057 C2056 1.377 . S
C2057 C2058 1.379 . S
C2058 H2042 0.931 . S
C2058 C2052 1.383 . S
C2058 C2057 1.379 . S
H2059 C2053 0.959 . S
H2060 C2053 0.961 . S
H2061 C2053 0.960 . S
H2062 C2054 0.930 . S
H2063 C2055 0.929 . S
H2064 C2072 0.929 . S
H2065 C2074 0.930 . S
H2066 C2076 0.930 . S
H2067 C2079 0.929 . S
H2068 C2082 0.929 1_565 S
H2069 C2084 0.960 . S
H2070 C2084 0.960 . S
H2071 C2084 0.960 . S
C2072 H2064 0.929 . S
C2072 C2073 1.377 . S
C2072 C2074 1.384 . S
C2073 C2072 1.377 . S
C2073 C2079 1.390 . S
C2074 H2065 0.930 . S
C2074 C2072 1.384 . S
C2074 C2075 1.372 . S
C2075 C2074 1.372 . S
C2075 C2076 1.400 . S
C2075 C2080 1.490 . S
C2076 H2066 0.930 . S
C2076 C2075 1.400 . S
C2076 C2079 1.386 . S
H2077 C2093 0.930 . S
H2078 C2094 0.931 . S
C2079 H2067 0.929 . S
C2079 C2073 1.390 . S
C2079 C2076 1.386 . S
C2080 C2075 1.490 . S
C2080 C2082 1.396 1_565 S
C2080 C2083 1.403 . S
H2081 C2087 0.930 . S
C2082 H2068 0.929 1_545 S
C2082 C2080 1.396 1_545 S
C2082 C2085 1.402 . S
C2083 C2080 1.403 . S
C2083 C2084 1.524 . S
C2083 C2087 1.400 1_565 S
C2084 H2069 0.960 . S
C2084 H2070 0.960 . S
C2084 H2071 0.960 . S
C2084 C2083 1.524 . S
C2085 C2082 1.402 . S
C2085 C2086 1.392 . S
C2085 C2089 1.495 . S
C2086 C2085 1.392 . S
C2086 C2087 1.385 . S
C2086 C2088 1.478 . S
C2087 H2081 0.930 . S
C2087 C2083 1.400 1_545 S
C2087 C2086 1.385 . S
C2088 C2086 1.478 . S
C2088 C2090 1.381 . S
C2088 C2094 1.383 . S
C2089 C2085 1.495 . S
C2089 H2095 0.959 . S
C2089 H2096 0.961 . S
C2089 H2097 0.960 . S
C2090 C2088 1.381 . S
C2090 C2091 1.394 . S
C2090 H2098 0.930 . S
C2091 C2090 1.394 . S
C2091 C2092 1.383 . S
C2091 H2099 0.929 . S
C2092 C2091 1.383 . S
C2092 C2093 1.377 . S
C2093 H2077 0.930 . S
C2093 C2092 1.377 . S
C2093 C2094 1.379 . S
C2094 H2078 0.931 . S
C2094 C2088 1.383 . S
C2094 C2093 1.379 . S
H2095 C2089 0.959 . S
H2096 C2089 0.961 . S
H2097 C2089 0.960 . S
H2098 C2090 0.930 . S
H2099 C2091 0.929 . S
H2100 C2108 0.929 . S
H2101 C2110 0.930 . S
H2102 C2112 0.930 . S
H2103 C2115 0.929 . S
H2104 C2118 0.930 . S
H2105 C2120 0.960 . S
H2106 C2120 0.960 . S
H2107 C2120 0.960 . S
C2108 H2100 0.929 . S
C2108 C2109 1.377 . S
C2108 C2110 1.384 . S
C2109 C2108 1.377 . S
C2109 C2115 1.390 . S
C2110 H2101 0.930 . S
C2110 C2108 1.384 . S
C2110 C2111 1.372 . S
C2111 C2110 1.372 . S
C2111 C2112 1.400 . S
C2111 C2116 1.490 . S
C2112 H2102 0.930 . S
C2112 C2111 1.400 . S
C2112 C2115 1.386 . S
H2113 C2129 0.930 . S
H2114 C2130 0.931 . S
C2115 H2103 0.929 . S
C2115 C2109 1.390 . S
C2115 C2112 1.386 . S
C2116 C2111 1.490 . S
C2116 C2118 1.395 1_455 S
C2116 C2119 1.403 . S
H2117 C2123 0.931 . S
C2118 H2104 0.930 . S
C2118 C2116 1.395 1_655 S
C2118 C2121 1.403 . S
C2119 C2116 1.403 . S
C2119 C2120 1.524 . S
C2119 C2123 1.400 1_455 S
C2120 H2105 0.960 . S
C2120 H2106 0.960 . S
C2120 H2107 0.960 . S
C2120 C2119 1.524 . S
C2121 C2118 1.403 . S
C2121 C2122 1.392 . S
C2121 C2125 1.495 . S
C2122 C2121 1.392 . S
C2122 C2123 1.385 . S
C2122 C2124 1.478 . S
C2123 H2117 0.931 . S
C2123 C2119 1.400 1_655 S
C2123 C2122 1.385 . S
C2124 C2122 1.478 . S
C2124 C2126 1.381 . S
C2124 C2130 1.383 . S
C2125 C2121 1.495 . S
C2125 H2131 0.959 . S
C2125 H2132 0.961 . S
C2125 H2133 0.960 . S
C2126 C2124 1.381 . S
C2126 C2127 1.394 . S
C2126 H2134 0.930 . S
C2127 C2126 1.394 . S
C2127 C2128 1.383 . S
C2127 H2135 0.929 . S
C2128 C2127 1.383 . S
C2128 C2129 1.377 . S
C2129 H2113 0.930 . S
C2129 C2128 1.377 . S
C2129 C2130 1.379 . S
C2130 H2114 0.931 . S
C2130 C2124 1.383 . S
C2130 C2129 1.379 . S
H2131 C2125 0.959 . S
H2132 C2125 0.961 . S
H2133 C2125 0.960 . S
H2134 C2126 0.930 . S
H2135 C2127 0.929 . S
H2136 C2144 0.929 . S
H2137 C2146 0.930 . S
H2138 C2148 0.930 . S
H2139 C2151 0.929 . S
H2140 C2154 0.930 . S
H2141 C2156 0.960 . S
H2142 C2156 0.960 . S
H2143 C2156 0.960 . S
C2144 H2136 0.929 . S
C2144 C2145 1.377 . S
C2144 C2146 1.384 . S
C2145 C2144 1.377 . S
C2145 C2151 1.390 . S
C2146 H2137 0.930 . S
C2146 C2144 1.384 . S
C2146 C2147 1.372 . S
C2147 C2146 1.372 . S
C2147 C2148 1.400 . S
C2147 C2152 1.490 . S
C2148 H2138 0.930 . S
C2148 C2147 1.400 . S
C2148 C2151 1.386 . S
H2149 C2165 0.930 . S
H2150 C2166 0.931 . S
C2151 H2139 0.929 . S
C2151 C2145 1.390 . S
C2151 C2148 1.386 . S
C2152 C2147 1.490 . S
C2152 C2154 1.395 . S
C2152 C2155 1.403 . S
H2153 C2159 0.930 . S
C2154 H2140 0.930 . S
C2154 C2152 1.395 . S
C2154 C2157 1.403 1_556 S
C2155 C2152 1.403 . S
C2155 C2156 1.524 . S
C2155 C2159 1.400 1_556 S
C2156 H2141 0.960 . S
C2156 H2142 0.960 . S
C2156 H2143 0.960 . S
C2156 C2155 1.524 . S
C2157 C2154 1.403 1_554 S
C2157 C2158 1.392 . S
C2157 C2161 1.495 . S
C2158 C2157 1.392 . S
C2158 C2159 1.385 . S
C2158 C2160 1.478 . S
C2159 H2153 0.930 . S
C2159 C2155 1.400 1_554 S
C2159 C2158 1.385 . S
C2160 C2158 1.478 . S
C2160 C2162 1.381 . S
C2160 C2166 1.383 . S
C2161 C2157 1.495 . S
C2161 H2167 0.959 . S
C2161 H2168 0.961 . S
C2161 H2169 0.960 . S
C2162 C2160 1.381 . S
C2162 C2163 1.394 . S
C2162 H2170 0.930 . S
C2163 C2162 1.394 . S
C2163 C2164 1.383 . S
C2163 H2171 0.929 . S
C2164 C2163 1.383 . S
C2164 C2165 1.377 . S
C2165 H2149 0.930 . S
C2165 C2164 1.377 . S
C2165 C2166 1.379 . S
C2166 H2150 0.931 . S
C2166 C2160 1.383 . S
C2166 C2165 1.379 . S
H2167 C2161 0.959 . S
H2168 C2161 0.961 . S
H2169 C2161 0.960 . S
H2170 C2162 0.930 . S
H2171 C2163 0.929 . S
H2172 C2180 0.929 . S
H2173 C2182 0.930 . S
H2174 C2184 0.930 . S
H2175 C2187 0.929 . S
H2176 C2190 0.930 . S
H2177 C2192 0.960 . S
H2178 C2192 0.960 1_554 S
H2179 C2192 0.960 . S
C2180 H2172 0.929 . S
C2180 C2181 1.377 . S
C2180 C2182 1.384 . S
C2181 C2180 1.377 . S
C2181 C2187 1.390 . S
C2182 H2173 0.930 . S
C2182 C2180 1.384 . S
C2182 C2183 1.372 . S
C2183 C2182 1.372 . S
C2183 C2184 1.400 . S
C2183 C2188 1.490 . S
C2184 H2174 0.930 . S
C2184 C2183 1.400 . S
C2184 C2187 1.386 . S
H2185 C2201 0.930 . S
H2186 C2202 0.931 . S
C2187 H2175 0.929 . S
C2187 C2181 1.390 . S
C2187 C2184 1.386 . S
C2188 C2183 1.490 . S
C2188 C2190 1.395 . S
C2188 C2191 1.403 1_554 S
H2189 C2195 0.930 . S
C2190 H2176 0.930 . S
C2190 C2188 1.395 . S
C2190 C2193 1.403 . S
C2191 C2188 1.403 1_556 S
C2191 C2192 1.524 . S
C2191 C2195 1.400 . S
C2192 H2177 0.960 . S
C2192 H2178 0.960 1_556 S
C2192 H2179 0.960 . S
C2192 C2191 1.524 . S
C2193 C2190 1.403 . S
C2193 C2194 1.392 1_554 S
C2193 C2197 1.495 . S
C2194 C2193 1.392 1_556 S
C2194 C2195 1.385 . S
C2194 C2196 1.478 . S
C2195 H2189 0.930 . S
C2195 C2191 1.400 . S
C2195 C2194 1.385 . S
C2196 C2194 1.478 . S
C2196 C2198 1.381 . S
C2196 C2202 1.383 . S
C2197 C2193 1.495 . S
C2197 H2203 0.959 . S
C2197 H2204 0.961 1_554 S
C2197 H2205 0.960 . S
C2198 C2196 1.381 . S
C2198 C2199 1.394 . S
C2198 H2206 0.930 . S
C2199 C2198 1.394 . S
C2199 C2200 1.383 . S
C2199 H2207 0.929 . S
C2200 C2199 1.383 . S
C2200 C2201 1.377 . S
C2201 H2185 0.930 . S
C2201 C2200 1.377 . S
C2201 C2202 1.379 . S
C2202 H2186 0.931 . S
C2202 C2196 1.383 . S
C2202 C2201 1.379 . S
H2203 C2197 0.959 . S
H2204 C2197 0.961 1_556 S
H2205 C2197 0.960 . S
H2206 C2198 0.930 . S
H2207 C2199 0.929 . S
H2208 C2216 0.929 . S
H2209 C2218 0.930 . S
H2210 C2220 0.930 . S
H2211 C2223 0.929 . S
H2212 C2226 0.930 . S
H2213 C2228 0.960 . S
H2214 C2228 0.960 . S
H2215 C2228 0.960 . S
C2216 H2208 0.929 . S
C2216 C2217 1.377 . S
C2216 C2218 1.384 . S
C2217 C2216 1.377 . S
C2217 C2223 1.390 . S
C2218 H2209 0.930 . S
C2218 C2216 1.384 . S
C2218 C2219 1.372 . S
C2219 C2218 1.372 . S
C2219 C2220 1.400 . S
C2219 C2224 1.490 . S
C2220 H2210 0.930 . S
C2220 C2219 1.400 . S
C2220 C2223 1.386 . S
H2221 C2237 0.930 . S
H2222 C2238 0.931 . S
C2223 H2211 0.929 . S
C2223 C2217 1.390 . S
C2223 C2220 1.386 . S
C2224 C2219 1.490 . S
C2224 C2226 1.395 . S
C2224 C2227 1.403 . S
H2225 C2231 0.930 . S
C2226 H2212 0.930 . S
C2226 C2224 1.395 . S
C2226 C2229 1.403 1_556 S
C2227 C2224 1.403 . S
C2227 C2228 1.524 . S
C2227 C2231 1.400 1_556 S
C2228 H2213 0.960 . S
C2228 H2214 0.960 . S
C2228 H2215 0.960 . S
C2228 C2227 1.524 . S
C2229 C2226 1.403 1_554 S
C2229 C2230 1.392 . S
C2229 C2233 1.495 . S
C2230 C2229 1.392 . S
C2230 C2231 1.385 . S
C2230 C2232 1.478 . S
C2231 H2225 0.930 . S
C2231 C2227 1.400 1_554 S
C2231 C2230 1.385 . S
C2232 C2230 1.478 . S
C2232 C2234 1.381 . S
C2232 C2238 1.383 . S
C2233 C2229 1.495 . S
C2233 H2239 0.959 . S
C2233 H2240 0.961 . S
C2233 H2241 0.960 . S
C2234 C2232 1.381 . S
C2234 C2235 1.394 . S
C2234 H2242 0.930 . S
C2235 C2234 1.394 . S
C2235 C2236 1.383 . S
C2235 H2243 0.929 . S
C2236 C2235 1.383 . S
C2236 C2237 1.377 . S
C2237 H2221 0.930 . S
C2237 C2236 1.377 . S
C2237 C2238 1.379 . S
C2238 H2222 0.931 . S
C2238 C2232 1.383 . S
C2238 C2237 1.379 . S
H2239 C2233 0.959 . S
H2240 C2233 0.961 . S
H2241 C2233 0.960 . S
H2242 C2234 0.930 . S
H2243 C2235 0.929 . S
H2244 C2252 0.929 . S
H2245 C2254 0.930 . S
H2246 C2256 0.930 . S
H2247 C2259 0.929 . S
H2248 C2262 0.930 . S
H2249 C2264 0.960 . S
H2250 C2264 0.960 . S
H2251 C2264 0.960 . S
C2252 H2244 0.929 . S
C2252 C2253 1.377 . S
C2252 C2254 1.384 . S
C2253 C2252 1.377 . S
C2253 C2259 1.390 . S
C2254 H2245 0.930 . S
C2254 C2252 1.384 . S
C2254 C2255 1.372 . S
C2255 C2254 1.372 . S
C2255 C2256 1.400 . S
C2255 C2260 1.490 . S
C2256 H2246 0.930 . S
C2256 C2255 1.400 . S
C2256 C2259 1.386 . S
H2257 C2273 0.930 . S
H2258 C2274 0.931 . S
C2259 H2247 0.929 . S
C2259 C2253 1.390 . S
C2259 C2256 1.386 . S
C2260 C2255 1.490 . S
C2260 C2262 1.395 . S
C2260 C2263 1.403 . S
H2261 C2267 0.930 . S
C2262 H2248 0.930 . S
C2262 C2260 1.395 . S
C2262 C2265 1.403 1_554 S
C2263 C2260 1.403 . S
C2263 C2264 1.524 . S
C2263 C2267 1.400 1_554 S
C2264 H2249 0.960 . S
C2264 H2250 0.960 . S
C2264 H2251 0.960 . S
C2264 C2263 1.524 . S
C2265 C2262 1.403 1_556 S
C2265 C2266 1.392 . S
C2265 C2269 1.495 . S
C2266 C2265 1.392 . S
C2266 C2267 1.385 . S
C2266 C2268 1.478 . S
C2267 H2261 0.930 . S
C2267 C2263 1.400 1_556 S
C2267 C2266 1.385 . S
C2268 C2266 1.478 . S
C2268 C2270 1.381 . S
C2268 C2274 1.383 . S
C2269 C2265 1.495 . S
C2269 H2275 0.959 . S
C2269 H2276 0.961 . S
C2269 H2277 0.960 . S
C2270 C2268 1.381 . S
C2270 C2271 1.394 . S
C2270 H2278 0.930 . S
C2271 C2270 1.394 . S
C2271 C2272 1.383 . S
C2271 H2279 0.929 . S
C2272 C2271 1.383 . S
C2272 C2273 1.377 . S
C2273 H2257 0.930 . S
C2273 C2272 1.377 . S
C2273 C2274 1.379 . S
C2274 H2258 0.931 . S
C2274 C2268 1.383 . S
C2274 C2273 1.379 . S
H2275 C2269 0.959 . S
H2276 C2269 0.961 . S
H2277 C2269 0.960 . S
H2278 C2270 0.930 . S
H2279 C2271 0.929 . S
H2280 C2288 0.929 . S
H2281 C2290 0.930 . S
H2282 C2292 0.930 . S
H2283 C2295 0.929 . S
H2284 C2298 0.930 . S
H2285 C2300 0.960 . S
H2286 C2300 0.960 . S
H2287 C2300 0.960 . S
C2288 H2280 0.929 . S
C2288 C2289 1.377 . S
C2288 C2290 1.384 . S
C2289 C2288 1.377 . S
C2289 C2295 1.390 . S
C2290 H2281 0.930 . S
C2290 C2288 1.384 . S
C2290 C2291 1.372 . S
C2291 C2290 1.372 . S
C2291 C2292 1.400 . S
C2291 C2296 1.490 . S
C2292 H2282 0.930 . S
C2292 C2291 1.400 . S
C2292 C2295 1.386 . S
H2293 C2309 0.930 . S
H2294 C2310 0.931 . S
C2295 H2283 0.929 . S
C2295 C2289 1.390 . S
C2295 C2292 1.386 . S
C2296 C2291 1.490 . S
C2296 C2298 1.395 . S
C2296 C2299 1.403 . S
H2297 C2303 0.930 . S
C2298 H2284 0.930 . S
C2298 C2296 1.395 . S
C2298 C2301 1.403 . S
C2299 C2296 1.403 . S
C2299 C2300 1.524 . S
C2299 C2303 1.400 . S
C2300 H2285 0.960 . S
C2300 H2286 0.960 . S
C2300 H2287 0.960 . S
C2300 C2299 1.524 . S
C2301 C2298 1.403 . S
C2301 C2302 1.392 . S
C2301 C2305 1.495 . S
C2302 C2301 1.392 . S
C2302 C2303 1.385 . S
C2302 C2304 1.478 . S
C2303 H2297 0.930 . S
C2303 C2299 1.400 . S
C2303 C2302 1.385 . S
C2304 C2302 1.478 . S
C2304 C2306 1.381 . S
C2304 C2310 1.383 . S
C2305 C2301 1.495 . S
C2305 H2311 0.959 . S
C2305 H2312 0.961 . S
C2305 H2313 0.960 . S
C2306 C2304 1.381 . S
C2306 C2307 1.394 . S
C2306 H2314 0.930 . S
C2307 C2306 1.394 . S
C2307 C2308 1.383 . S
C2307 H2315 0.929 . S
C2308 C2307 1.383 . S
C2308 C2309 1.377 . S
C2309 H2293 0.930 . S
C2309 C2308 1.377 . S
C2309 C2310 1.379 . S
C2310 H2294 0.931 . S
C2310 C2304 1.383 . S
C2310 C2309 1.379 . S
H2311 C2305 0.959 . S
H2312 C2305 0.961 . S
H2313 C2305 0.960 . S
H2314 C2306 0.930 . S
H2315 C2307 0.929 . S
H2316 C2324 0.929 . S
H2317 C2326 0.930 . S
H2318 C2328 0.930 . S
H2319 C2331 0.929 . S
H2320 C2334 0.930 . S
H2321 C2336 0.960 . S
H2322 C2336 0.960 . S
H2323 C2336 0.960 . S
C2324 H2316 0.929 . S
C2324 C2325 1.377 . S
C2324 C2326 1.384 . S
C2325 C2324 1.377 . S
C2325 C2331 1.390 . S
C2326 H2317 0.930 . S
C2326 C2324 1.384 . S
C2326 C2327 1.372 . S
C2327 C2326 1.372 . S
C2327 C2328 1.400 . S
C2327 C2332 1.490 . S
C2328 H2318 0.930 . S
C2328 C2327 1.400 . S
C2328 C2331 1.386 . S
H2329 C2345 0.930 . S
H2330 C2346 0.931 . S
C2331 H2319 0.929 . S
C2331 C2325 1.390 . S
C2331 C2328 1.386 . S
C2332 C2327 1.490 . S
C2332 C2334 1.395 . S
C2332 C2335 1.403 . S
H2333 C2339 0.930 . S
C2334 H2320 0.930 . S
C2334 C2332 1.395 . S
C2334 C2337 1.403 . S
C2335 C2332 1.403 . S
C2335 C2336 1.524 . S
C2335 C2339 1.400 . S
C2336 H2321 0.960 . S
C2336 H2322 0.960 . S
C2336 H2323 0.960 . S
C2336 C2335 1.524 . S
C2337 C2334 1.403 . S
C2337 C2338 1.392 . S
C2337 C2341 1.495 . S
C2338 C2337 1.392 . S
C2338 C2339 1.385 . S
C2338 C2340 1.478 . S
C2339 H2333 0.930 . S
C2339 C2335 1.400 . S
C2339 C2338 1.385 . S
C2340 C2338 1.478 . S
C2340 C2342 1.381 . S
C2340 C2346 1.383 . S
C2341 C2337 1.495 . S
C2341 H2347 0.959 . S
C2341 H2348 0.961 . S
C2341 H2349 0.960 . S
C2342 C2340 1.381 . S
C2342 C2343 1.394 . S
C2342 H2350 0.930 . S
C2343 C2342 1.394 . S
C2343 C2344 1.383 . S
C2343 H2351 0.929 . S
C2344 C2343 1.383 . S
C2344 C2345 1.377 . S
C2345 H2329 0.930 . S
C2345 C2344 1.377 . S
C2345 C2346 1.379 . S
C2346 H2330 0.931 . S
C2346 C2340 1.383 . S
C2346 C2345 1.379 . S
H2347 C2341 0.959 . S
H2348 C2341 0.961 . S
H2349 C2341 0.960 . S
H2350 C2342 0.930 . S
H2351 C2343 0.929 . S
H2352 C2360 0.929 . S
H2353 C2362 0.930 . S
H2354 C2364 0.930 . S
H2355 C2367 0.929 . S
H2356 C2370 0.930 . S
H2357 C2372 0.960 . S
H2358 C2372 0.960 . S
H2359 C2372 0.960 . S
C2360 H2352 0.929 . S
C2360 C2361 1.377 . S
C2360 C2362 1.384 . S
C2361 C2360 1.377 . S
C2361 C2367 1.390 . S
C2362 H2353 0.930 . S
C2362 C2360 1.384 . S
C2362 C2363 1.372 . S
C2363 C2362 1.372 . S
C2363 C2364 1.400 . S
C2363 C2368 1.490 . S
C2364 H2354 0.930 . S
C2364 C2363 1.400 . S
C2364 C2367 1.386 . S
H2365 C2381 0.930 . S
H2366 C2382 0.931 . S
C2367 H2355 0.929 . S
C2367 C2361 1.390 . S
C2367 C2364 1.386 . S
C2368 C2363 1.490 . S
C2368 C2370 1.395 . S
C2368 C2371 1.403 . S
H2369 C2375 0.930 . S
C2370 H2356 0.930 . S
C2370 C2368 1.395 . S
C2370 C2373 1.403 . S
C2371 C2368 1.403 . S
C2371 C2372 1.524 . S
C2371 C2375 1.400 . S
C2372 H2357 0.960 . S
C2372 H2358 0.960 . S
C2372 H2359 0.960 . S
C2372 C2371 1.524 . S
C2373 C2370 1.403 . S
C2373 C2374 1.392 . S
C2373 C2377 1.495 . S
C2374 C2373 1.392 . S
C2374 C2375 1.385 . S
C2374 C2376 1.478 . S
C2375 H2369 0.930 . S
C2375 C2371 1.400 . S
C2375 C2374 1.385 . S
C2376 C2374 1.478 . S
C2376 C2378 1.381 . S
C2376 C2382 1.383 . S
C2377 C2373 1.495 . S
C2377 H2383 0.959 . S
C2377 H2384 0.961 . S
C2377 H2385 0.960 . S
C2378 C2376 1.381 . S
C2378 C2379 1.394 . S
C2378 H2386 0.930 . S
C2379 C2378 1.394 . S
C2379 C2380 1.383 . S
C2379 H2387 0.929 . S
C2380 C2379 1.383 . S
C2380 C2381 1.377 . S
C2381 H2365 0.930 . S
C2381 C2380 1.377 . S
C2381 C2382 1.379 . S
C2382 H2366 0.931 . S
C2382 C2376 1.383 . S
C2382 C2381 1.379 . S
H2383 C2377 0.959 . S
H2384 C2377 0.961 . S
H2385 C2377 0.960 . S
H2386 C2378 0.930 . S
H2387 C2379 0.929 . S
H2388 C2396 0.929 . S
H2389 C2398 0.930 . S
H2390 C2400 0.930 . S
H2391 C2403 0.929 . S
H2392 C2406 0.930 . S
H2393 C2408 0.960 . S
H2394 C2408 0.960 . S
H2395 C2408 0.960 . S
C2396 H2388 0.929 . S
C2396 C2397 1.377 . S
C2396 C2398 1.384 . S
C2397 C2396 1.377 . S
C2397 C2403 1.390 . S
C2398 H2389 0.930 . S
C2398 C2396 1.384 . S
C2398 C2399 1.372 . S
C2399 C2398 1.372 . S
C2399 C2400 1.400 . S
C2399 C2404 1.490 . S
C2400 H2390 0.930 . S
C2400 C2399 1.400 . S
C2400 C2403 1.386 . S
H2401 C2417 0.930 . S
H2402 C2418 0.931 . S
C2403 H2391 0.929 . S
C2403 C2397 1.390 . S
C2403 C2400 1.386 . S
C2404 C2399 1.490 . S
C2404 C2406 1.395 . S
C2404 C2407 1.403 . S
H2405 C2411 0.930 . S
C2406 H2392 0.930 . S
C2406 C2404 1.395 . S
C2406 C2409 1.403 . S
C2407 C2404 1.403 . S
C2407 C2408 1.524 . S
C2407 C2411 1.400 . S
C2408 H2393 0.960 . S
C2408 H2394 0.960 . S
C2408 H2395 0.960 . S
C2408 C2407 1.524 . S
C2409 C2406 1.403 . S
C2409 C2410 1.392 . S
C2409 C2413 1.495 . S
C2410 C2409 1.392 . S
C2410 C2411 1.385 . S
C2410 C2412 1.478 . S
C2411 H2405 0.930 . S
C2411 C2407 1.400 . S
C2411 C2410 1.385 . S
C2412 C2410 1.478 . S
C2412 C2414 1.381 . S
C2412 C2418 1.383 . S
C2413 C2409 1.495 . S
C2413 H2419 0.959 . S
C2413 H2420 0.961 . S
C2413 H2421 0.960 . S
C2414 C2412 1.381 . S
C2414 C2415 1.394 . S
C2414 H2422 0.930 . S
C2415 C2414 1.394 . S
C2415 C2416 1.383 . S
C2415 H2423 0.929 . S
C2416 C2415 1.383 . S
C2416 C2417 1.377 . S
C2417 H2401 0.930 . S
C2417 C2416 1.377 . S
C2417 C2418 1.379 . S
C2418 H2402 0.931 . S
C2418 C2412 1.383 . S
C2418 C2417 1.379 . S
H2419 C2413 0.959 . S
H2420 C2413 0.961 . S
H2421 C2413 0.960 . S
H2422 C2414 0.930 . S
H2423 C2415 0.929 . S
H2424 C2432 0.929 . S
H2425 C2434 0.930 . S
H2426 C2436 0.930 . S
H2427 C2439 0.929 . S
H2428 C2442 0.930 . S
H2429 C2444 0.960 . S
H2430 C2444 0.960 . S
H2431 C2444 0.960 . S
C2432 H2424 0.929 . S
C2432 C2433 1.377 . S
C2432 C2434 1.384 . S
C2433 C2432 1.377 . S
C2433 C2439 1.390 . S
C2434 H2425 0.930 . S
C2434 C2432 1.384 . S
C2434 C2435 1.372 . S
C2435 C2434 1.372 . S
C2435 C2436 1.400 . S
C2435 C2440 1.490 . S
C2436 H2426 0.930 . S
C2436 C2435 1.400 . S
C2436 C2439 1.386 . S
H2437 C2453 0.930 . S
H2438 C2454 0.931 . S
C2439 H2427 0.929 . S
C2439 C2433 1.390 . S
C2439 C2436 1.386 . S
C2440 C2435 1.490 . S
C2440 C2442 1.395 . S
C2440 C2443 1.403 . S
H2441 C2447 0.930 . S
C2442 H2428 0.930 . S
C2442 C2440 1.395 . S
C2442 C2445 1.403 . S
C2443 C2440 1.403 . S
C2443 C2444 1.524 . S
C2443 C2447 1.400 . S
C2444 H2429 0.960 . S
C2444 H2430 0.960 . S
C2444 H2431 0.960 . S
C2444 C2443 1.524 . S
C2445 C2442 1.403 . S
C2445 C2446 1.392 . S
C2445 C2449 1.495 . S
C2446 C2445 1.392 . S
C2446 C2447 1.385 . S
C2446 C2448 1.478 . S
C2447 H2441 0.930 . S
C2447 C2443 1.400 . S
C2447 C2446 1.385 . S
C2448 C2446 1.478 . S
C2448 C2450 1.381 . S
C2448 C2454 1.383 . S
C2449 C2445 1.495 . S
C2449 H2455 0.959 . S
C2449 H2456 0.961 . S
C2449 H2457 0.960 . S
C2450 C2448 1.381 . S
C2450 C2451 1.394 . S
C2450 H2458 0.930 . S
C2451 C2450 1.394 . S
C2451 C2452 1.383 . S
C2451 H2459 0.929 . S
C2452 C2451 1.383 . S
C2452 C2453 1.377 . S
C2453 H2437 0.930 . S
C2453 C2452 1.377 . S
C2453 C2454 1.379 . S
C2454 H2438 0.931 . S
C2454 C2448 1.383 . S
C2454 C2453 1.379 . S
H2455 C2449 0.959 . S
H2456 C2449 0.961 . S
H2457 C2449 0.960 . S
H2458 C2450 0.930 . S
H2459 C2451 0.929 . S
H2460 C2468 0.929 . S
H2461 C2470 0.930 . S
H2462 C2472 0.930 . S
H2463 C2475 0.929 . S
H2464 C2478 0.930 . S
H2465 C2480 0.960 . S
H2466 C2480 0.960 . S
H2467 C2480 0.960 . S
C2468 H2460 0.929 . S
C2468 C2469 1.377 . S
C2468 C2470 1.384 . S
C2469 C2468 1.377 . S
C2469 C2475 1.390 . S
C2470 H2461 0.930 . S
C2470 C2468 1.384 . S
C2470 C2471 1.372 . S
C2471 C2470 1.372 . S
C2471 C2472 1.400 . S
C2471 C2476 1.490 . S
C2472 H2462 0.930 . S
C2472 C2471 1.400 . S
C2472 C2475 1.386 . S
H2473 C2489 0.930 . S
H2474 C2490 0.931 . S
C2475 H2463 0.929 . S
C2475 C2469 1.390 . S
C2475 C2472 1.386 . S
C2476 C2471 1.490 . S
C2476 C2478 1.395 . S
C2476 C2479 1.403 . S
H2477 C2483 0.930 . S
C2478 H2464 0.930 . S
C2478 C2476 1.395 . S
C2478 C2481 1.403 . S
C2479 C2476 1.403 . S
C2479 C2480 1.524 . S
C2479 C2483 1.400 . S
C2480 H2465 0.960 . S
C2480 H2466 0.960 . S
C2480 H2467 0.960 . S
C2480 C2479 1.524 . S
C2481 C2478 1.403 . S
C2481 C2482 1.392 . S
C2481 C2485 1.495 . S
C2482 C2481 1.392 . S
C2482 C2483 1.385 . S
C2482 C2484 1.478 . S
C2483 H2477 0.930 . S
C2483 C2479 1.400 . S
C2483 C2482 1.385 . S
C2484 C2482 1.478 . S
C2484 C2486 1.381 . S
C2484 C2490 1.383 . S
C2485 C2481 1.495 . S
C2485 H2491 0.959 . S
C2485 H2492 0.961 . S
C2485 H2493 0.960 . S
C2486 C2484 1.381 . S
C2486 C2487 1.394 . S
C2486 H2494 0.930 . S
C2487 C2486 1.394 . S
C2487 C2488 1.383 . S
C2487 H2495 0.929 . S
C2488 C2487 1.383 . S
C2488 C2489 1.377 . S
C2489 H2473 0.930 . S
C2489 C2488 1.377 . S
C2489 C2490 1.379 . S
C2490 H2474 0.931 . S
C2490 C2484 1.383 . S
C2490 C2489 1.379 . S
H2491 C2485 0.959 . S
H2492 C2485 0.961 . S
H2493 C2485 0.960 . S
H2494 C2486 0.930 . S
H2495 C2487 0.929 . S
H2496 C2504 0.929 . S
H2497 C2506 0.930 . S
H2498 C2508 0.930 . S
H2499 C2511 0.929 . S
H2500 C2514 0.930 . S
H2501 C2516 0.960 . S
H2502 C2516 0.960 . S
H2503 C2516 0.960 . S
C2504 H2496 0.929 . S
C2504 C2505 1.377 . S
C2504 C2506 1.384 . S
C2505 C2504 1.377 . S
C2505 C2511 1.390 . S
C2506 H2497 0.930 . S
C2506 C2504 1.384 . S
C2506 C2507 1.372 . S
C2507 C2506 1.372 . S
C2507 C2508 1.400 . S
C2507 C2512 1.490 . S
C2508 H2498 0.930 . S
C2508 C2507 1.400 . S
C2508 C2511 1.386 . S
H2509 C2525 0.930 . S
H2510 C2526 0.931 . S
C2511 H2499 0.929 . S
C2511 C2505 1.390 . S
C2511 C2508 1.386 . S
C2512 C2507 1.490 . S
C2512 C2514 1.395 . S
C2512 C2515 1.403 . S
H2513 C2519 0.930 . S
C2514 H2500 0.930 . S
C2514 C2512 1.395 . S
C2514 C2517 1.403 . S
C2515 C2512 1.403 . S
C2515 C2516 1.524 . S
C2515 C2519 1.400 . S
C2516 H2501 0.960 . S
C2516 H2502 0.960 . S
C2516 H2503 0.960 . S
C2516 C2515 1.524 . S
C2517 C2514 1.403 . S
C2517 C2518 1.392 . S
C2517 C2521 1.495 . S
C2518 C2517 1.392 . S
C2518 C2519 1.385 . S
C2518 C2520 1.478 . S
C2519 H2513 0.930 . S
C2519 C2515 1.400 . S
C2519 C2518 1.385 . S
C2520 C2518 1.478 . S
C2520 C2522 1.381 . S
C2520 C2526 1.383 . S
C2521 C2517 1.495 . S
C2521 H2527 0.959 . S
C2521 H2528 0.961 . S
C2521 H2529 0.960 . S
C2522 C2520 1.381 . S
C2522 C2523 1.394 . S
C2522 H2530 0.930 . S
C2523 C2522 1.394 . S
C2523 C2524 1.383 . S
C2523 H2531 0.929 . S
C2524 C2523 1.383 . S
C2524 C2525 1.377 . S
C2525 H2509 0.930 . S
C2525 C2524 1.377 . S
C2525 C2526 1.379 . S
C2526 H2510 0.931 . S
C2526 C2520 1.383 . S
C2526 C2525 1.379 . S
H2527 C2521 0.959 . S
H2528 C2521 0.961 . S
H2529 C2521 0.960 . S
H2530 C2522 0.930 . S
H2531 C2523 0.929 . S
H2532 C2540 0.929 . S
H2533 C2542 0.930 . S
H2534 C2544 0.930 . S
H2535 C2547 0.929 . S
H2536 C2550 0.930 . S
H2537 C2552 0.960 . S
H2538 C2552 0.960 . S
H2539 C2552 0.960 . S
C2540 H2532 0.929 . S
C2540 C2541 1.377 . S
C2540 C2542 1.384 . S
C2541 C2540 1.377 . S
C2541 C2547 1.390 . S
C2542 H2533 0.930 . S
C2542 C2540 1.384 . S
C2542 C2543 1.372 . S
C2543 C2542 1.372 . S
C2543 C2544 1.400 . S
C2543 C2548 1.490 . S
C2544 H2534 0.930 . S
C2544 C2543 1.400 . S
C2544 C2547 1.386 . S
H2545 C2561 0.930 . S
H2546 C2562 0.931 . S
C2547 H2535 0.929 . S
C2547 C2541 1.390 . S
C2547 C2544 1.386 . S
C2548 C2543 1.490 . S
C2548 C2550 1.395 . S
C2548 C2551 1.403 . S
H2549 C2555 0.930 . S
C2550 H2536 0.930 . S
C2550 C2548 1.395 . S
C2550 C2553 1.403 . S
C2551 C2548 1.403 . S
C2551 C2552 1.524 . S
C2551 C2555 1.400 . S
C2552 H2537 0.960 . S
C2552 H2538 0.960 . S
C2552 H2539 0.960 . S
C2552 C2551 1.524 . S
C2553 C2550 1.403 . S
C2553 C2554 1.392 . S
C2553 C2557 1.495 . S
C2554 C2553 1.392 . S
C2554 C2555 1.385 . S
C2554 C2556 1.478 . S
C2555 H2549 0.930 . S
C2555 C2551 1.400 . S
C2555 C2554 1.385 . S
C2556 C2554 1.478 . S
C2556 C2558 1.381 . S
C2556 C2562 1.383 . S
C2557 C2553 1.495 . S
C2557 H2563 0.959 . S
C2557 H2564 0.961 . S
C2557 H2565 0.960 . S
C2558 C2556 1.381 . S
C2558 C2559 1.394 . S
C2558 H2566 0.930 . S
C2559 C2558 1.394 . S
C2559 C2560 1.383 . S
C2559 H2567 0.929 . S
C2560 C2559 1.383 . S
C2560 C2561 1.377 . S
C2561 H2545 0.930 . S
C2561 C2560 1.377 . S
C2561 C2562 1.379 . S
C2562 H2546 0.931 . S
C2562 C2556 1.383 . S
C2562 C2561 1.379 . S
H2563 C2557 0.959 . S
H2564 C2557 0.961 . S
H2565 C2557 0.960 . S
H2566 C2558 0.930 . S
H2567 C2559 0.929 . S
H2568 C2576 0.929 . S
H2569 C2578 0.930 . S
H2570 C2580 0.930 . S
H2571 C2583 0.929 . S
H2572 C2586 0.930 . S
H2573 C2588 0.960 . S
H2574 C2588 0.960 . S
H2575 C2588 0.960 . S
C2576 H2568 0.929 . S
C2576 C2577 1.377 . S
C2576 C2578 1.384 . S
C2577 C2576 1.377 . S
C2577 C2583 1.390 . S
C2578 H2569 0.930 . S
C2578 C2576 1.384 . S
C2578 C2579 1.372 . S
C2579 C2578 1.372 . S
C2579 C2580 1.400 . S
C2579 C2584 1.490 . S
C2580 H2570 0.930 . S
C2580 C2579 1.400 . S
C2580 C2583 1.386 . S
H2581 C2597 0.930 . S
H2582 C2598 0.931 . S
C2583 H2571 0.929 . S
C2583 C2577 1.390 . S
C2583 C2580 1.386 . S
C2584 C2579 1.490 . S
C2584 C2586 1.395 . S
C2584 C2587 1.403 . S
H2585 C2591 0.930 . S
C2586 H2572 0.930 . S
C2586 C2584 1.395 . S
C2586 C2589 1.403 . S
C2587 C2584 1.403 . S
C2587 C2588 1.524 . S
C2587 C2591 1.400 . S
C2588 H2573 0.960 . S
C2588 H2574 0.960 . S
C2588 H2575 0.960 . S
C2588 C2587 1.524 . S
C2589 C2586 1.403 . S
C2589 C2590 1.392 . S
C2589 C2593 1.495 . S
C2590 C2589 1.392 . S
C2590 C2591 1.385 . S
C2590 C2592 1.478 . S
C2591 H2585 0.930 . S
C2591 C2587 1.400 . S
C2591 C2590 1.385 . S
C2592 C2590 1.478 . S
C2592 C2594 1.381 . S
C2592 C2598 1.383 . S
C2593 C2589 1.495 . S
C2593 H2599 0.959 . S
C2593 H2600 0.961 . S
C2593 H2601 0.960 . S
C2594 C2592 1.381 . S
C2594 C2595 1.394 . S
C2594 H2602 0.930 . S
C2595 C2594 1.394 . S
C2595 C2596 1.383 . S
C2595 H2603 0.929 . S
C2596 C2595 1.383 . S
C2596 C2597 1.377 . S
C2597 H2581 0.930 . S
C2597 C2596 1.377 . S
C2597 C2598 1.379 . S
C2598 H2582 0.931 . S
C2598 C2592 1.383 . S
C2598 C2597 1.379 . S
H2599 C2593 0.959 . S
H2600 C2593 0.961 . S
H2601 C2593 0.960 . S
H2602 C2594 0.930 . S
H2603 C2595 0.929 . S
H2604 C2612 0.929 . S
H2605 C2614 0.930 . S
H2606 C2616 0.930 . S
H2607 C2619 0.929 . S
H2608 C2622 0.930 . S
H2609 C2624 0.960 . S
H2610 C2624 0.960 . S
H2611 C2624 0.960 . S
C2612 H2604 0.929 . S
C2612 C2613 1.377 . S
C2612 C2614 1.384 . S
C2613 C2612 1.377 . S
C2613 C2619 1.390 . S
C2614 H2605 0.930 . S
C2614 C2612 1.384 . S
C2614 C2615 1.372 . S
C2615 C2614 1.372 . S
C2615 C2616 1.400 . S
C2615 C2620 1.490 . S
C2616 H2606 0.930 . S
C2616 C2615 1.400 . S
C2616 C2619 1.386 . S
H2617 C2633 0.930 . S
H2618 C2634 0.931 . S
C2619 H2607 0.929 . S
C2619 C2613 1.390 . S
C2619 C2616 1.386 . S
C2620 C2615 1.490 . S
C2620 C2622 1.395 . S
C2620 C2623 1.403 . S
H2621 C2627 0.930 . S
C2622 H2608 0.930 . S
C2622 C2620 1.395 . S
C2622 C2625 1.403 . S
C2623 C2620 1.403 . S
C2623 C2624 1.524 . S
C2623 C2627 1.400 . S
C2624 H2609 0.960 . S
C2624 H2610 0.960 . S
C2624 H2611 0.960 . S
C2624 C2623 1.524 . S
C2625 C2622 1.403 . S
C2625 C2626 1.392 . S
C2625 C2629 1.495 . S
C2626 C2625 1.392 . S
C2626 C2627 1.385 . S
C2626 C2628 1.478 . S
C2627 H2621 0.930 . S
C2627 C2623 1.400 . S
C2627 C2626 1.385 . S
C2628 C2626 1.478 . S
C2628 C2630 1.381 . S
C2628 C2634 1.383 . S
C2629 C2625 1.495 . S
C2629 H2635 0.959 . S
C2629 H2636 0.961 . S
C2629 H2637 0.960 . S
C2630 C2628 1.381 . S
C2630 C2631 1.394 . S
C2630 H2638 0.930 . S
C2631 C2630 1.394 . S
C2631 C2632 1.383 . S
C2631 H2639 0.929 . S
C2632 C2631 1.383 . S
C2632 C2633 1.377 . S
C2633 H2617 0.930 . S
C2633 C2632 1.377 . S
C2633 C2634 1.379 . S
C2634 H2618 0.931 . S
C2634 C2628 1.383 . S
C2634 C2633 1.379 . S
H2635 C2629 0.959 . S
H2636 C2629 0.961 . S
H2637 C2629 0.960 . S
H2638 C2630 0.930 . S
H2639 C2631 0.929 . S
H2640 C2648 0.929 . S
H2641 C2650 0.930 . S
H2642 C2652 0.930 . S
H2643 C2655 0.929 . S
H2644 C2658 0.930 . S
H2645 C2660 0.960 . S
H2646 C2660 0.960 . S
H2647 C2660 0.960 . S
C2648 H2640 0.929 . S
C2648 C2649 1.377 . S
C2648 C2650 1.384 . S
C2649 C2648 1.377 . S
C2649 C2655 1.390 . S
C2650 H2641 0.930 . S
C2650 C2648 1.384 . S
C2650 C2651 1.372 . S
C2651 C2650 1.372 . S
C2651 C2652 1.400 . S
C2651 C2656 1.490 . S
C2652 H2642 0.930 . S
C2652 C2651 1.400 . S
C2652 C2655 1.386 . S
H2653 C2669 0.930 . S
H2654 C2670 0.931 . S
C2655 H2643 0.929 . S
C2655 C2649 1.390 . S
C2655 C2652 1.386 . S
C2656 C2651 1.490 . S
C2656 C2658 1.395 . S
C2656 C2659 1.403 . S
H2657 C2663 0.930 . S
C2658 H2644 0.930 . S
C2658 C2656 1.395 . S
C2658 C2661 1.403 . S
C2659 C2656 1.403 . S
C2659 C2660 1.524 . S
C2659 C2663 1.400 . S
C2660 H2645 0.960 . S
C2660 H2646 0.960 . S
C2660 H2647 0.960 . S
C2660 C2659 1.524 . S
C2661 C2658 1.403 . S
C2661 C2662 1.392 . S
C2661 C2665 1.495 . S
C2662 C2661 1.392 . S
C2662 C2663 1.385 . S
C2662 C2664 1.478 . S
C2663 H2657 0.930 . S
C2663 C2659 1.400 . S
C2663 C2662 1.385 . S
C2664 C2662 1.478 . S
C2664 C2666 1.381 . S
C2664 C2670 1.383 . S
C2665 C2661 1.495 . S
C2665 H2671 0.959 . S
C2665 H2672 0.961 . S
C2665 H2673 0.960 . S
C2666 C2664 1.381 . S
C2666 C2667 1.394 . S
C2666 H2674 0.930 . S
C2667 C2666 1.394 . S
C2667 C2668 1.383 . S
C2667 H2675 0.929 . S
C2668 C2667 1.383 . S
C2668 C2669 1.377 . S
C2669 H2653 0.930 . S
C2669 C2668 1.377 . S
C2669 C2670 1.379 . S
C2670 H2654 0.931 . S
C2670 C2664 1.383 . S
C2670 C2669 1.379 . S
H2671 C2665 0.959 . S
H2672 C2665 0.961 . S
H2673 C2665 0.960 . S
H2674 C2666 0.930 . S
H2675 C2667 0.929 . S
H2676 C2684 0.929 . S
H2677 C2686 0.930 . S
H2678 C2688 0.930 . S
H2679 C2691 0.929 . S
H2680 C2694 0.930 . S
H2681 C2696 0.960 . S
H2682 C2696 0.960 . S
H2683 C2696 0.960 . S
C2684 H2676 0.929 . S
C2684 C2685 1.377 . S
C2684 C2686 1.384 . S
C2685 C2684 1.377 . S
C2685 C2691 1.390 . S
C2686 H2677 0.930 . S
C2686 C2684 1.384 . S
C2686 C2687 1.372 . S
C2687 C2686 1.372 . S
C2687 C2688 1.400 . S
C2687 C2692 1.490 . S
C2688 H2678 0.930 . S
C2688 C2687 1.400 . S
C2688 C2691 1.386 . S
H2689 C2705 0.930 . S
H2690 C2706 0.931 . S
C2691 H2679 0.929 . S
C2691 C2685 1.390 . S
C2691 C2688 1.386 . S
C2692 C2687 1.490 . S
C2692 C2694 1.395 . S
C2692 C2695 1.403 . S
H2693 C2699 0.930 . S
C2694 H2680 0.930 . S
C2694 C2692 1.395 . S
C2694 C2697 1.403 . S
C2695 C2692 1.403 . S
C2695 C2696 1.524 . S
C2695 C2699 1.400 . S
C2696 H2681 0.960 . S
C2696 H2682 0.960 . S
C2696 H2683 0.960 . S
C2696 C2695 1.524 . S
C2697 C2694 1.403 . S
C2697 C2698 1.392 . S
C2697 C2701 1.495 . S
C2698 C2697 1.392 . S
C2698 C2699 1.385 . S
C2698 C2700 1.478 . S
C2699 H2693 0.930 . S
C2699 C2695 1.400 . S
C2699 C2698 1.385 . S
C2700 C2698 1.478 . S
C2700 C2702 1.381 . S
C2700 C2706 1.383 . S
C2701 C2697 1.495 . S
C2701 H2707 0.959 . S
C2701 H2708 0.961 . S
C2701 H2709 0.960 . S
C2702 C2700 1.381 . S
C2702 C2703 1.394 . S
C2702 H2710 0.930 . S
C2703 C2702 1.394 . S
C2703 C2704 1.383 . S
C2703 H2711 0.929 . S
C2704 C2703 1.383 . S
C2704 C2705 1.377 . S
C2705 H2689 0.930 . S
C2705 C2704 1.377 . S
C2705 C2706 1.379 . S
C2706 H2690 0.931 . S
C2706 C2700 1.383 . S
C2706 C2705 1.379 . S
H2707 C2701 0.959 . S
H2708 C2701 0.961 . S
H2709 C2701 0.960 . S
H2710 C2702 0.930 . S
H2711 C2703 0.929 . S
H2712 C2720 0.929 . S
H2713 C2722 0.930 . S
H2714 C2724 0.930 . S
H2715 C2727 0.929 . S
H2716 C2730 0.930 . S
H2717 C2732 0.960 . S
H2718 C2732 0.960 . S
H2719 C2732 0.960 . S
C2720 H2712 0.929 . S
C2720 C2721 1.377 . S
C2720 C2722 1.384 . S
C2721 C2720 1.377 . S
C2721 C2727 1.390 . S
C2722 H2713 0.930 . S
C2722 C2720 1.384 . S
C2722 C2723 1.372 . S
C2723 C2722 1.372 . S
C2723 C2724 1.400 . S
C2723 C2728 1.490 . S
C2724 H2714 0.930 . S
C2724 C2723 1.400 . S
C2724 C2727 1.386 . S
H2725 C2741 0.930 . S
H2726 C2742 0.931 . S
C2727 H2715 0.929 . S
C2727 C2721 1.390 . S
C2727 C2724 1.386 . S
C2728 C2723 1.490 . S
C2728 C2730 1.395 . S
C2728 C2731 1.403 . S
H2729 C2735 0.930 . S
C2730 H2716 0.930 . S
C2730 C2728 1.395 . S
C2730 C2733 1.403 . S
C2731 C2728 1.403 . S
C2731 C2732 1.524 . S
C2731 C2735 1.400 . S
C2732 H2717 0.960 . S
C2732 H2718 0.960 . S
C2732 H2719 0.960 . S
C2732 C2731 1.524 . S
C2733 C2730 1.403 . S
C2733 C2734 1.392 . S
C2733 C2737 1.495 . S
C2734 C2733 1.392 . S
C2734 C2735 1.385 . S
C2734 C2736 1.478 . S
C2735 H2729 0.930 . S
C2735 C2731 1.400 . S
C2735 C2734 1.385 . S
C2736 C2734 1.478 . S
C2736 C2738 1.381 . S
C2736 C2742 1.383 . S
C2737 C2733 1.495 . S
C2737 H2743 0.959 . S
C2737 H2744 0.961 . S
C2737 H2745 0.960 . S
C2738 C2736 1.381 . S
C2738 C2739 1.394 . S
C2738 H2746 0.930 . S
C2739 C2738 1.394 . S
C2739 C2740 1.383 . S
C2739 H2747 0.929 . S
C2740 C2739 1.383 . S
C2740 C2741 1.377 . S
C2741 H2725 0.930 . S
C2741 C2740 1.377 . S
C2741 C2742 1.379 . S
C2742 H2726 0.931 . S
C2742 C2736 1.383 . S
C2742 C2741 1.379 . S
H2743 C2737 0.959 . S
H2744 C2737 0.961 . S
H2745 C2737 0.960 . S
H2746 C2738 0.930 . S
H2747 C2739 0.929 . S
H2748 C2756 0.929 . S
H2749 C2758 0.930 . S
H2750 C2760 0.930 . S
H2751 C2763 0.929 . S
H2752 C2766 0.930 . S
H2753 C2768 0.960 . S
H2754 C2768 0.960 . S
H2755 C2768 0.960 . S
C2756 H2748 0.929 . S
C2756 C2757 1.377 . S
C2756 C2758 1.384 . S
C2757 C2756 1.377 . S
C2757 C2763 1.390 . S
C2758 H2749 0.930 . S
C2758 C2756 1.384 . S
C2758 C2759 1.372 . S
C2759 C2758 1.372 . S
C2759 C2760 1.400 . S
C2759 C2764 1.490 . S
C2760 H2750 0.930 . S
C2760 C2759 1.400 . S
C2760 C2763 1.386 . S
H2761 C2777 0.930 . S
H2762 C2778 0.931 . S
C2763 H2751 0.929 . S
C2763 C2757 1.390 . S
C2763 C2760 1.386 . S
C2764 C2759 1.490 . S
C2764 C2766 1.395 . S
C2764 C2767 1.403 . S
H2765 C2771 0.930 . S
C2766 H2752 0.930 . S
C2766 C2764 1.395 . S
C2766 C2769 1.403 . S
C2767 C2764 1.403 . S
C2767 C2768 1.524 . S
C2767 C2771 1.400 . S
C2768 H2753 0.960 . S
C2768 H2754 0.960 . S
C2768 H2755 0.960 . S
C2768 C2767 1.524 . S
C2769 C2766 1.403 . S
C2769 C2770 1.392 . S
C2769 C2773 1.495 . S
C2770 C2769 1.392 . S
C2770 C2771 1.385 . S
C2770 C2772 1.478 . S
C2771 H2765 0.930 . S
C2771 C2767 1.400 . S
C2771 C2770 1.385 . S
C2772 C2770 1.478 . S
C2772 C2774 1.381 . S
C2772 C2778 1.383 . S
C2773 C2769 1.495 . S
C2773 H2779 0.959 . S
C2773 H2780 0.961 . S
C2773 H2781 0.960 . S
C2774 C2772 1.381 . S
C2774 C2775 1.394 . S
C2774 H2782 0.930 . S
C2775 C2774 1.394 . S
C2775 C2776 1.383 . S
C2775 H2783 0.929 . S
C2776 C2775 1.383 . S
C2776 C2777 1.377 . S
C2777 H2761 0.930 . S
C2777 C2776 1.377 . S
C2777 C2778 1.379 . S
C2778 H2762 0.931 . S
C2778 C2772 1.383 . S
C2778 C2777 1.379 . S
H2779 C2773 0.959 . S
H2780 C2773 0.961 . S
H2781 C2773 0.960 . S
H2782 C2774 0.930 . S
H2783 C2775 0.929 . S
H2784 C2792 0.929 . S
H2785 C2794 0.930 . S
H2786 C2796 0.930 . S
H2787 C2799 0.929 . S
H2788 C2802 0.930 . S
H2789 C2804 0.960 . S
H2790 C2804 0.960 . S
H2791 C2804 0.960 . S
C2792 H2784 0.929 . S
C2792 C2793 1.377 . S
C2792 C2794 1.384 . S
C2793 C2792 1.377 . S
C2793 C2799 1.390 . S
C2794 H2785 0.930 . S
C2794 C2792 1.384 . S
C2794 C2795 1.372 . S
C2795 C2794 1.372 . S
C2795 C2796 1.400 . S
C2795 C2800 1.490 . S
C2796 H2786 0.930 . S
C2796 C2795 1.400 . S
C2796 C2799 1.386 . S
H2797 C2813 0.930 . S
H2798 C2814 0.931 . S
C2799 H2787 0.929 . S
C2799 C2793 1.390 . S
C2799 C2796 1.386 . S
C2800 C2795 1.490 . S
C2800 C2802 1.395 . S
C2800 C2803 1.403 . S
H2801 C2807 0.930 . S
C2802 H2788 0.930 . S
C2802 C2800 1.395 . S
C2802 C2805 1.403 . S
C2803 C2800 1.403 . S
C2803 C2804 1.524 . S
C2803 C2807 1.400 . S
C2804 H2789 0.960 . S
C2804 H2790 0.960 . S
C2804 H2791 0.960 . S
C2804 C2803 1.524 . S
C2805 C2802 1.403 . S
C2805 C2806 1.392 . S
C2805 C2809 1.495 . S
C2806 C2805 1.392 . S
C2806 C2807 1.385 . S
C2806 C2808 1.478 . S
C2807 H2801 0.930 . S
C2807 C2803 1.400 . S
C2807 C2806 1.385 . S
C2808 C2806 1.478 . S
C2808 C2810 1.381 . S
C2808 C2814 1.383 . S
C2809 C2805 1.495 . S
C2809 H2815 0.959 . S
C2809 H2816 0.961 . S
C2809 H2817 0.960 . S
C2810 C2808 1.381 . S
C2810 C2811 1.394 . S
C2810 H2818 0.930 . S
C2811 C2810 1.394 . S
C2811 C2812 1.383 . S
C2811 H2819 0.929 . S
C2812 C2811 1.383 . S
C2812 C2813 1.377 . S
C2813 H2797 0.930 . S
C2813 C2812 1.377 . S
C2813 C2814 1.379 . S
C2814 H2798 0.931 . S
C2814 C2808 1.383 . S
C2814 C2813 1.379 . S
H2815 C2809 0.959 . S
H2816 C2809 0.961 . S
H2817 C2809 0.960 . S
H2818 C2810 0.930 . S
H2819 C2811 0.929 . S
H2820 C2828 0.929 . S
H2821 C2830 0.930 . S
H2822 C2832 0.930 . S
H2823 C2835 0.929 . S
H2824 C2838 0.930 . S
H2825 C2840 0.960 . S
H2826 C2840 0.960 . S
H2827 C2840 0.960 . S
C2828 H2820 0.929 . S
C2828 C2829 1.377 . S
C2828 C2830 1.384 . S
C2829 C2828 1.377 . S
C2829 C2835 1.390 . S
C2830 H2821 0.930 . S
C2830 C2828 1.384 . S
C2830 C2831 1.372 . S
C2831 C2830 1.372 . S
C2831 C2832 1.400 . S
C2831 C2836 1.490 . S
C2832 H2822 0.930 . S
C2832 C2831 1.400 . S
C2832 C2835 1.386 . S
H2833 C2849 0.930 . S
H2834 C2850 0.931 . S
C2835 H2823 0.929 . S
C2835 C2829 1.390 . S
C2835 C2832 1.386 . S
C2836 C2831 1.490 . S
C2836 C2838 1.395 . S
C2836 C2839 1.403 . S
H2837 C2843 0.930 . S
C2838 H2824 0.930 . S
C2838 C2836 1.395 . S
C2838 C2841 1.403 . S
C2839 C2836 1.403 . S
C2839 C2840 1.524 . S
C2839 C2843 1.400 . S
C2840 H2825 0.960 . S
C2840 H2826 0.960 . S
C2840 H2827 0.960 . S
C2840 C2839 1.524 . S
C2841 C2838 1.403 . S
C2841 C2842 1.392 . S
C2841 C2845 1.495 . S
C2842 C2841 1.392 . S
C2842 C2843 1.385 . S
C2842 C2844 1.478 . S
C2843 H2837 0.930 . S
C2843 C2839 1.400 . S
C2843 C2842 1.385 . S
C2844 C2842 1.478 . S
C2844 C2846 1.381 . S
C2844 C2850 1.383 . S
C2845 C2841 1.495 . S
C2845 H2851 0.959 . S
C2845 H2852 0.961 . S
C2845 H2853 0.960 . S
C2846 C2844 1.381 . S
C2846 C2847 1.394 . S
C2846 H2854 0.930 . S
C2847 C2846 1.394 . S
C2847 C2848 1.383 . S
C2847 H2855 0.929 . S
C2848 C2847 1.383 . S
C2848 C2849 1.377 . S
C2849 H2833 0.930 . S
C2849 C2848 1.377 . S
C2849 C2850 1.379 . S
C2850 H2834 0.931 . S
C2850 C2844 1.383 . S
C2850 C2849 1.379 . S
H2851 C2845 0.959 . S
H2852 C2845 0.961 . S
H2853 C2845 0.960 . S
H2854 C2846 0.930 . S
H2855 C2847 0.929 . S
H2856 C2864 0.929 . S
H2857 C2866 0.930 . S
H2858 C2868 0.930 . S
H2859 C2871 0.929 . S
H2860 C2874 0.930 . S
H2861 C2876 0.960 . S
H2862 C2876 0.960 . S
H2863 C2876 0.960 . S
C2864 H2856 0.929 . S
C2864 C2865 1.377 . S
C2864 C2866 1.384 . S
C2865 C2864 1.377 . S
C2865 C2871 1.390 . S
C2866 H2857 0.930 . S
C2866 C2864 1.384 . S
C2866 C2867 1.372 . S
C2867 C2866 1.372 . S
C2867 C2868 1.400 . S
C2867 C2872 1.490 . S
C2868 H2858 0.930 . S
C2868 C2867 1.400 . S
C2868 C2871 1.386 . S
H2869 C2885 0.930 . S
H2870 C2886 0.931 . S
C2871 H2859 0.929 . S
C2871 C2865 1.390 . S
C2871 C2868 1.386 . S
C2872 C2867 1.490 . S
C2872 C2874 1.395 . S
C2872 C2875 1.403 . S
H2873 C2879 0.930 . S
C2874 H2860 0.930 . S
C2874 C2872 1.395 . S
C2874 C2877 1.403 . S
C2875 C2872 1.403 . S
C2875 C2876 1.524 . S
C2875 C2879 1.400 . S
C2876 H2861 0.960 . S
C2876 H2862 0.960 . S
C2876 H2863 0.960 . S
C2876 C2875 1.524 . S
C2877 C2874 1.403 . S
C2877 C2878 1.392 . S
C2877 C2881 1.495 . S
C2878 C2877 1.392 . S
C2878 C2879 1.385 . S
C2878 C2880 1.478 . S
C2879 H2873 0.930 . S
C2879 C2875 1.400 . S
C2879 C2878 1.385 . S
C2880 C2878 1.478 . S
C2880 C2882 1.381 . S
C2880 C2886 1.383 . S
C2881 C2877 1.495 . S
C2881 H2887 0.959 . S
C2881 H2888 0.961 . S
C2881 H2889 0.960 . S
C2882 C2880 1.381 . S
C2882 C2883 1.394 . S
C2882 H2890 0.930 . S
C2883 C2882 1.394 . S
C2883 C2884 1.383 . S
C2883 H2891 0.929 . S
C2884 C2883 1.383 . S
C2884 C2885 1.377 . S
C2885 H2869 0.930 . S
C2885 C2884 1.377 . S
C2885 C2886 1.379 . S
C2886 H2870 0.931 . S
C2886 C2880 1.383 . S
C2886 C2885 1.379 . S
H2887 C2881 0.959 . S
H2888 C2881 0.961 . S
H2889 C2881 0.960 . S
H2890 C2882 0.930 . S
H2891 C2883 0.929 . S
H2892 C2900 0.929 . S
H2893 C2902 0.930 . S
H2894 C2904 0.930 . S
H2895 C2907 0.929 . S
H2896 C2910 0.930 . S
H2897 C2912 0.960 . S
H2898 C2912 0.960 . S
H2899 C2912 0.960 . S
C2900 H2892 0.929 . S
C2900 C2901 1.377 . S
C2900 C2902 1.384 . S
C2901 C2900 1.377 . S
C2901 C2907 1.390 . S
C2902 H2893 0.930 . S
C2902 C2900 1.384 . S
C2902 C2903 1.372 . S
C2903 C2902 1.372 . S
C2903 C2904 1.400 . S
C2903 C2908 1.490 . S
C2904 H2894 0.930 . S
C2904 C2903 1.400 . S
C2904 C2907 1.386 . S
H2905 C2921 0.930 . S
H2906 C2922 0.931 . S
C2907 H2895 0.929 . S
C2907 C2901 1.390 . S
C2907 C2904 1.386 . S
C2908 C2903 1.490 . S
C2908 C2910 1.395 . S
C2908 C2911 1.403 . S
H2909 C2915 0.930 . S
C2910 H2896 0.930 . S
C2910 C2908 1.395 . S
C2910 C2913 1.403 . S
C2911 C2908 1.403 . S
C2911 C2912 1.524 . S
C2911 C2915 1.400 . S
C2912 H2897 0.960 . S
C2912 H2898 0.960 . S
C2912 H2899 0.960 . S
C2912 C2911 1.524 . S
C2913 C2910 1.403 . S
C2913 C2914 1.392 . S
C2913 C2917 1.495 . S
C2914 C2913 1.392 . S
C2914 C2915 1.385 . S
C2914 C2916 1.478 . S
C2915 H2909 0.930 . S
C2915 C2911 1.400 . S
C2915 C2914 1.385 . S
C2916 C2914 1.478 . S
C2916 C2918 1.381 . S
C2916 C2922 1.383 . S
C2917 C2913 1.495 . S
C2917 H2923 0.959 . S
C2917 H2924 0.961 . S
C2917 H2925 0.960 . S
C2918 C2916 1.381 . S
C2918 C2919 1.394 . S
C2918 H2926 0.930 . S
C2919 C2918 1.394 . S
C2919 C2920 1.383 . S
C2919 H2927 0.929 . S
C2920 C2919 1.383 . S
C2920 C2921 1.377 . S
C2921 H2905 0.930 . S
C2921 C2920 1.377 . S
C2921 C2922 1.379 . S
C2922 H2906 0.931 . S
C2922 C2916 1.383 . S
C2922 C2921 1.379 . S
H2923 C2917 0.959 . S
H2924 C2917 0.961 . S
H2925 C2917 0.960 . S
H2926 C2918 0.930 . S
H2927 C2919 0.929 . S
H2928 C2936 0.929 . S
H2929 C2938 0.930 . S
H2930 C2940 0.930 . S
H2931 C2943 0.929 . S
H2932 C2946 0.930 . S
H2933 C2948 0.960 . S
H2934 C2948 0.960 . S
H2935 C2948 0.960 . S
C2936 H2928 0.929 . S
C2936 C2937 1.377 . S
C2936 C2938 1.384 . S
C2937 C2936 1.377 . S
C2937 C2943 1.390 . S
C2938 H2929 0.930 . S
C2938 C2936 1.384 . S
C2938 C2939 1.372 . S
C2939 C2938 1.372 . S
C2939 C2940 1.400 . S
C2939 C2944 1.490 . S
C2940 H2930 0.930 . S
C2940 C2939 1.400 . S
C2940 C2943 1.386 . S
H2941 C2957 0.930 . S
H2942 C2958 0.931 . S
C2943 H2931 0.929 . S
C2943 C2937 1.390 . S
C2943 C2940 1.386 . S
C2944 C2939 1.490 . S
C2944 C2946 1.395 . S
C2944 C2947 1.403 . S
H2945 C2951 0.930 . S
C2946 H2932 0.930 . S
C2946 C2944 1.395 . S
C2946 C2949 1.403 . S
C2947 C2944 1.403 . S
C2947 C2948 1.524 . S
C2947 C2951 1.400 . S
C2948 H2933 0.960 . S
C2948 H2934 0.960 . S
C2948 H2935 0.960 . S
C2948 C2947 1.524 . S
C2949 C2946 1.403 . S
C2949 C2950 1.392 . S
C2949 C2953 1.495 . S
C2950 C2949 1.392 . S
C2950 C2951 1.385 . S
C2950 C2952 1.478 . S
C2951 H2945 0.930 . S
C2951 C2947 1.400 . S
C2951 C2950 1.385 . S
C2952 C2950 1.478 . S
C2952 C2954 1.381 . S
C2952 C2958 1.383 . S
C2953 C2949 1.495 . S
C2953 H2959 0.959 . S
C2953 H2960 0.961 . S
C2953 H2961 0.960 . S
C2954 C2952 1.381 . S
C2954 C2955 1.394 . S
C2954 H2962 0.930 . S
C2955 C2954 1.394 . S
C2955 C2956 1.383 . S
C2955 H2963 0.929 . S
C2956 C2955 1.383 . S
C2956 C2957 1.377 . S
C2957 H2941 0.930 . S
C2957 C2956 1.377 . S
C2957 C2958 1.379 . S
C2958 H2942 0.931 . S
C2958 C2952 1.383 . S
C2958 C2957 1.379 . S
H2959 C2953 0.959 . S
H2960 C2953 0.961 . S
H2961 C2953 0.960 . S
H2962 C2954 0.930 . S
H2963 C2955 0.929 . S
H2964 C2972 0.929 . S
H2965 C2974 0.930 . S
H2966 C2976 0.930 . S
H2967 C2979 0.929 . S
H2968 C2982 0.930 . S
H2969 C2984 0.960 . S
H2970 C2984 0.960 . S
H2971 C2984 0.960 . S
C2972 H2964 0.929 . S
C2972 C2973 1.377 . S
C2972 C2974 1.384 . S
C2973 C2972 1.377 . S
C2973 C2979 1.390 . S
C2974 H2965 0.930 . S
C2974 C2972 1.384 . S
C2974 C2975 1.372 . S
C2975 C2974 1.372 . S
C2975 C2976 1.400 . S
C2975 C2980 1.490 . S
C2976 H2966 0.930 . S
C2976 C2975 1.400 . S
C2976 C2979 1.386 . S
H2977 C2993 0.930 . S
H2978 C2994 0.931 . S
C2979 H2967 0.929 . S
C2979 C2973 1.390 . S
C2979 C2976 1.386 . S
C2980 C2975 1.490 . S
C2980 C2982 1.395 . S
C2980 C2983 1.403 . S
H2981 C2987 0.930 . S
C2982 H2968 0.930 . S
C2982 C2980 1.395 . S
C2982 C2985 1.403 . S
C2983 C2980 1.403 . S
C2983 C2984 1.524 . S
C2983 C2987 1.400 . S
C2984 H2969 0.960 . S
C2984 H2970 0.960 . S
C2984 H2971 0.960 . S
C2984 C2983 1.524 . S
C2985 C2982 1.403 . S
C2985 C2986 1.392 . S
C2985 C2989 1.495 . S
C2986 C2985 1.392 . S
C2986 C2987 1.385 . S
C2986 C2988 1.478 . S
C2987 H2981 0.930 . S
C2987 C2983 1.400 . S
C2987 C2986 1.385 . S
C2988 C2986 1.478 . S
C2988 C2990 1.381 . S
C2988 C2994 1.383 . S
C2989 C2985 1.495 . S
C2989 H2995 0.959 . S
C2989 H2996 0.961 . S
C2989 H2997 0.960 . S
C2990 C2988 1.381 . S
C2990 C2991 1.394 . S
C2990 H2998 0.930 . S
C2991 C2990 1.394 . S
C2991 C2992 1.383 . S
C2991 H2999 0.929 . S
C2992 C2991 1.383 . S
C2992 C2993 1.377 . S
C2993 H2977 0.930 . S
C2993 C2992 1.377 . S
C2993 C2994 1.379 . S
C2994 H2978 0.931 . S
C2994 C2988 1.383 . S
C2994 C2993 1.379 . S
H2995 C2989 0.959 . S
H2996 C2989 0.961 . S
H2997 C2989 0.960 . S
H2998 C2990 0.930 . S
H2999 C2991 0.929 . S
H3000 C3008 0.929 . S
H3001 C3010 0.930 . S
H3002 C3012 0.930 . S
H3003 C3015 0.929 . S
H3004 C3018 0.930 . S
H3005 C3020 0.960 . S
H3006 C3020 0.960 . S
H3007 C3020 0.960 . S
C3008 H3000 0.929 . S
C3008 C3009 1.377 . S
C3008 C3010 1.384 . S
C3009 C3008 1.377 . S
C3009 C3015 1.390 . S
C3010 H3001 0.930 . S
C3010 C3008 1.384 . S
C3010 C3011 1.372 . S
C3011 C3010 1.372 . S
C3011 C3012 1.400 . S
C3011 C3016 1.490 . S
C3012 H3002 0.930 . S
C3012 C3011 1.400 . S
C3012 C3015 1.386 . S
H3013 C3029 0.930 . S
H3014 C3030 0.931 . S
C3015 H3003 0.929 . S
C3015 C3009 1.390 . S
C3015 C3012 1.386 . S
C3016 C3011 1.490 . S
C3016 C3018 1.395 . S
C3016 C3019 1.403 . S
H3017 C3023 0.930 . S
C3018 H3004 0.930 . S
C3018 C3016 1.395 . S
C3018 C3021 1.403 . S
C3019 C3016 1.403 . S
C3019 C3020 1.524 . S
C3019 C3023 1.400 . S
C3020 H3005 0.960 . S
C3020 H3006 0.960 . S
C3020 H3007 0.960 . S
C3020 C3019 1.524 . S
C3021 C3018 1.403 . S
C3021 C3022 1.392 . S
C3021 C3025 1.495 . S
C3022 C3021 1.392 . S
C3022 C3023 1.385 . S
C3022 C3024 1.478 . S
C3023 H3017 0.930 . S
C3023 C3019 1.400 . S
C3023 C3022 1.385 . S
C3024 C3022 1.478 . S
C3024 C3026 1.381 . S
C3024 C3030 1.383 . S
C3025 C3021 1.495 . S
C3025 H3031 0.959 . S
C3025 H3032 0.961 . S
C3025 H3033 0.960 . S
C3026 C3024 1.381 . S
C3026 C3027 1.394 . S
C3026 H3034 0.930 . S
C3027 C3026 1.394 . S
C3027 C3028 1.383 . S
C3027 H3035 0.929 . S
C3028 C3027 1.383 . S
C3028 C3029 1.377 . S
C3029 H3013 0.930 . S
C3029 C3028 1.377 . S
C3029 C3030 1.379 . S
C3030 H3014 0.931 . S
C3030 C3024 1.383 . S
C3030 C3029 1.379 . S
H3031 C3025 0.959 . S
H3032 C3025 0.961 . S
H3033 C3025 0.960 . S
H3034 C3026 0.930 . S
H3035 C3027 0.929 . S
H3036 C3044 0.929 . S
H3037 C3046 0.930 . S
H3038 C3048 0.930 . S
H3039 C3051 0.929 . S
H3040 C3054 0.930 . S
H3041 C3056 0.960 . S
H3042 C3056 0.960 . S
H3043 C3056 0.960 . S
C3044 H3036 0.929 . S
C3044 C3045 1.377 . S
C3044 C3046 1.384 . S
C3045 C3044 1.377 . S
C3045 C3051 1.390 . S
C3046 H3037 0.930 . S
C3046 C3044 1.384 . S
C3046 C3047 1.372 . S
C3047 C3046 1.372 . S
C3047 C3048 1.400 . S
C3047 C3052 1.490 . S
C3048 H3038 0.930 . S
C3048 C3047 1.400 . S
C3048 C3051 1.386 . S
H3049 C3065 0.930 . S
H3050 C3066 0.931 . S
C3051 H3039 0.929 . S
C3051 C3045 1.390 . S
C3051 C3048 1.386 . S
C3052 C3047 1.490 . S
C3052 C3054 1.395 . S
C3052 C3055 1.403 . S
H3053 C3059 0.930 . S
C3054 H3040 0.930 . S
C3054 C3052 1.395 . S
C3054 C3057 1.403 . S
C3055 C3052 1.403 . S
C3055 C3056 1.524 . S
C3055 C3059 1.400 . S
C3056 H3041 0.960 . S
C3056 H3042 0.960 . S
C3056 H3043 0.960 . S
C3056 C3055 1.524 . S
C3057 C3054 1.403 . S
C3057 C3058 1.392 . S
C3057 C3061 1.495 . S
C3058 C3057 1.392 . S
C3058 C3059 1.385 . S
C3058 C3060 1.478 . S
C3059 H3053 0.930 . S
C3059 C3055 1.400 . S
C3059 C3058 1.385 . S
C3060 C3058 1.478 . S
C3060 C3062 1.381 . S
C3060 C3066 1.383 . S
C3061 C3057 1.495 . S
C3061 H3067 0.959 . S
C3061 H3068 0.961 . S
C3061 H3069 0.960 . S
C3062 C3060 1.381 . S
C3062 C3063 1.394 . S
C3062 H3070 0.930 . S
C3063 C3062 1.394 . S
C3063 C3064 1.383 . S
C3063 H3071 0.929 . S
C3064 C3063 1.383 . S
C3064 C3065 1.377 . S
C3065 H3049 0.930 . S
C3065 C3064 1.377 . S
C3065 C3066 1.379 . S
C3066 H3050 0.931 . S
C3066 C3060 1.383 . S
C3066 C3065 1.379 . S
H3067 C3061 0.959 . S
H3068 C3061 0.961 . S
H3069 C3061 0.960 . S
H3070 C3062 0.930 . S
H3071 C3063 0.929 . S
H3072 C3080 0.929 . S
H3073 C3082 0.930 . S
H3074 C3084 0.930 . S
H3075 C3087 0.929 . S
H3076 C3090 0.930 . S
H3077 C3092 0.960 . S
H3078 C3092 0.960 . S
H3079 C3092 0.960 . S
C3080 H3072 0.929 . S
C3080 C3081 1.377 . S
C3080 C3082 1.384 . S
C3081 C3080 1.377 . S
C3081 C3087 1.390 . S
C3082 H3073 0.930 . S
C3082 C3080 1.384 . S
C3082 C3083 1.372 . S
C3083 C3082 1.372 . S
C3083 C3084 1.400 . S
C3083 C3088 1.490 . S
C3084 H3074 0.930 . S
C3084 C3083 1.400 . S
C3084 C3087 1.386 . S
H3085 C3101 0.930 . S
H3086 C3102 0.931 . S
C3087 H3075 0.929 . S
C3087 C3081 1.390 . S
C3087 C3084 1.386 . S
C3088 C3083 1.490 . S
C3088 C3090 1.395 . S
C3088 C3091 1.403 . S
H3089 C3095 0.930 . S
C3090 H3076 0.930 . S
C3090 C3088 1.395 . S
C3090 C3093 1.403 . S
C3091 C3088 1.403 . S
C3091 C3092 1.524 . S
C3091 C3095 1.400 . S
C3092 H3077 0.960 . S
C3092 H3078 0.960 . S
C3092 H3079 0.960 . S
C3092 C3091 1.524 . S
C3093 C3090 1.403 . S
C3093 C3094 1.392 . S
C3093 C3097 1.495 . S
C3094 C3093 1.392 . S
C3094 C3095 1.385 . S
C3094 C3096 1.478 . S
C3095 H3089 0.930 . S
C3095 C3091 1.400 . S
C3095 C3094 1.385 . S
C3096 C3094 1.478 . S
C3096 C3098 1.381 . S
C3096 C3102 1.383 . S
C3097 C3093 1.495 . S
C3097 H3103 0.959 . S
C3097 H3104 0.961 . S
C3097 H3105 0.960 . S
C3098 C3096 1.381 . S
C3098 C3099 1.394 . S
C3098 H3106 0.930 . S
C3099 C3098 1.394 . S
C3099 C3100 1.383 . S
C3099 H3107 0.929 . S
C3100 C3099 1.383 . S
C3100 C3101 1.377 . S
C3101 H3085 0.930 . S
C3101 C3100 1.377 . S
C3101 C3102 1.379 . S
C3102 H3086 0.931 . S
C3102 C3096 1.383 . S
C3102 C3101 1.379 . S
H3103 C3097 0.959 . S
H3104 C3097 0.961 . S
H3105 C3097 0.960 . S
H3106 C3098 0.930 . S
H3107 C3099 0.929 . S
H3108 C3116 0.929 . S
H3109 C3118 0.930 . S
H3110 C3120 0.930 . S
H3111 C3123 0.929 . S
H3112 C3126 0.930 . S
H3113 C3128 0.960 . S
H3114 C3128 0.960 . S
H3115 C3128 0.960 . S
C3116 H3108 0.929 . S
C3116 C3117 1.377 . S
C3116 C3118 1.384 . S
C3117 C3116 1.377 . S
C3117 C3123 1.390 . S
C3118 H3109 0.930 . S
C3118 C3116 1.384 . S
C3118 C3119 1.372 . S
C3119 C3118 1.372 . S
C3119 C3120 1.400 . S
C3119 C3124 1.490 . S
C3120 H3110 0.930 . S
C3120 C3119 1.400 . S
C3120 C3123 1.386 . S
H3121 C3137 0.930 . S
H3122 C3138 0.931 . S
C3123 H3111 0.929 . S
C3123 C3117 1.390 . S
C3123 C3120 1.386 . S
C3124 C3119 1.490 . S
C3124 C3126 1.395 . S
C3124 C3127 1.403 . S
H3125 C3131 0.930 . S
C3126 H3112 0.930 . S
C3126 C3124 1.395 . S
C3126 C3129 1.403 . S
C3127 C3124 1.403 . S
C3127 C3128 1.524 . S
C3127 C3131 1.400 . S
C3128 H3113 0.960 . S
C3128 H3114 0.960 . S
C3128 H3115 0.960 . S
C3128 C3127 1.524 . S
C3129 C3126 1.403 . S
C3129 C3130 1.392 . S
C3129 C3133 1.495 . S
C3130 C3129 1.392 . S
C3130 C3131 1.385 . S
C3130 C3132 1.478 . S
C3131 H3125 0.930 . S
C3131 C3127 1.400 . S
C3131 C3130 1.385 . S
C3132 C3130 1.478 . S
C3132 C3134 1.381 . S
C3132 C3138 1.383 . S
C3133 C3129 1.495 . S
C3133 H3139 0.959 . S
C3133 H3140 0.961 . S
C3133 H3141 0.960 . S
C3134 C3132 1.381 . S
C3134 C3135 1.394 . S
C3134 H3142 0.930 . S
C3135 C3134 1.394 . S
C3135 C3136 1.383 . S
C3135 H3143 0.929 . S
C3136 C3135 1.383 . S
C3136 C3137 1.377 . S
C3137 H3121 0.930 . S
C3137 C3136 1.377 . S
C3137 C3138 1.379 . S
C3138 H3122 0.931 . S
C3138 C3132 1.383 . S
C3138 C3137 1.379 . S
H3139 C3133 0.959 . S
H3140 C3133 0.961 . S
H3141 C3133 0.960 . S
H3142 C3134 0.930 . S
H3143 C3135 0.929 . S
C1425 C1301 1.657 . S
C1444 C3 1.680 . S
C1461 C62 1.660 . S
C1480 C949 1.706 . S
C1497 C1360 1.646 . S
C1516 C123 1.702 . S
C1533 C1244 1.694 . S
C1552 C182 1.668 . S
C1569 C1067 1.693 . S
C1588 C241 1.667 . S
C1605 C1124 1.648 . S
C1624 C298 1.620 . S
C1641 C1185 1.694 . S
C1660 C357 1.674 . S
C1677 C418 1.697 . S
C1696 C1006 1.649 . S
C1713 C770 1.654 . S
C1732 C475 1.632 . S
C1749 C831 1.693 . S
C1768 C536 1.674 . S
C1785 C593 1.662 . S
C1804 C888 1.671 . S
C1821 C654 1.691 . S
C1840 C713 1.707 . S
C1857 C416 1.651 . S
C1876 C829 1.673 . S
C1893 C890 1.690 . S
C1912 C239 1.628 . S
C1929 C300 1.695 . S
C1948 C711 1.665 . S
C1965 C772 1.694 . S
C1984 C359 1.668 . S
C2001 C595 1.694 . S
C2020 C64 1.668 . S
C2037 C121 1.646 . S
C2056 C652 1.633 . S
C2073 C180 1.652 . S
C2092 C477 1.675 . S
C2109 C5 1.693 . S
C2128 C534 1.620 . S
C2145 C1183 1.653 . S
C2164 C1242 1.640 . S
C2181 C1303 1.689 . S
C2200 C1008 1.707 . S
C2217 C1065 1.663 . S
C2236 C947 1.650 . S
C2253 C1362 1.693 . S
C2272 C1126 1.679 . S
C2289 C33 0.476 . S
C2308 C524 0.440 . S
C2325 C564 0.490 . S
C2344 C92 0.525 . S
C2361 C170 0.460 . S
C2380 C642 0.425 . S
C2397 C229 0.478 . S
C2416 C682 0.545 . S
C2433 C288 0.456 . S
C2452 C741 0.433 . S
C2469 C328 0.496 . S
C2488 C819 0.519 . S
C2505 C859 0.494 . S
C2524 C387 0.544 . S
C2541 C937 0.475 . S
C2560 C465 0.485 . S
C2577 C505 0.488 . S
C2596 C977 0.520 . S
C2613 C583 0.459 . S
C2632 C1409 0.438 . S
C2649 C1272 0.481 . S
C2668 C623 0.450 . S
C2685 C1350 0.474 . S
C2704 C701 0.506 . S
C2721 C1055 0.474 . S
C2740 C760 0.506 . S
C2757 C1095 0.483 . S
C2776 C800 0.500 . S
C2793 C878 0.463 . S
C2812 C1173 0.452 . S
C2829 C918 0.479 . S
C2848 C1213 0.442 . S
C2865 C52 0.474 . S
C2884 C996 0.478 . S
C2901 C1036 0.467 . S
C2920 C269 0.420 . S
C2937 C1114 0.480 . S
C2956 C347 0.520 . S
C2973 C1154 0.495 . S
C2992 C406 0.516 . S
C3009 C1232 0.473 . S
C3028 C446 0.506 . S
C3045 C1291 0.467 . S
C3064 C151 0.487 . S
C3081 C210 0.488 . S
C3100 C1331 0.497 . S
C3117 C1390 0.472 . S
C3136 C111 0.445 . S
