# Generated by pormake.
# Topology sxc, (6)-cn, num edge types: 1
# Building blocks:
#     Node 0, Type 0, BuildingBlock: JUFBIX_clean_sbu_0, # of connection points: 6
#     Node 1, Type 0, BuildingBlock: JUFBIX_clean_sbu_0, # of connection points: 6
#     Node 2, Type 0, BuildingBlock: JUFBIX_clean_sbu_0, # of connection points: 6
#     Edge 3, Type (0, 0), BuildingBlock: UVAHIK_clean_linker_0, # of connection points: 2
#     Edge 4, Type (0, 0), BuildingBlock: UVAHIK_clean_linker_0, # of connection points: 2
#     Edge 5, Type (0, 0), BuildingBlock: UVAHIK_clean_linker_0, # of connection points: 2
#     Edge 6, Type (0, 0), BuildingBlock: UVAHIK_clean_linker_0, # of connection points: 2
#     Edge 7, Type (0, 0), BuildingBlock: UVAHIK_clean_linker_0, # of connection points: 2
#     Edge 8, Type (0, 0), BuildingBlock: UVAHIK_clean_linker_0, # of connection points: 2
#     Edge 9, Type (0, 0), BuildingBlock: UVAHIK_clean_linker_0, # of connection points: 2
#     Edge 10, Type (0, 0), BuildingBlock: UVAHIK_clean_linker_0, # of connection points: 2
#     Edge 11, Type (0, 0), BuildingBlock: UVAHIK_clean_linker_0, # of connection points: 2
# Relax obj value: 0.366
# Max RMSD: 0.153
# Mean RMSD: 0.152
data_MOF--net-sxc--node1-JUFBIX_clean_sbu_0--edge1-UVAHIK_clean_linker_0
_symmetry_space_group_name_H-M    P1
_symmetry_Int_Tables_number       1
_symmetry_cell_setting            triclinic
loop_
_symmetry_equiv_pos_as_xyz
'x, y, z'
_cell_length_a     20.229052
_cell_length_b     20.205091
_cell_length_c     58.482096
_cell_angle_alpha  92.933053
_cell_angle_beta   89.666328
_cell_angle_gamma 120.17503
loop_
_atom_site_label
_atom_site_type_symbol
_atom_site_fract_x
_atom_site_fract_y
_atom_site_fract_z
_atom_type_partial_charge
Co0 Co 0.0685 0.97203 0.99286 0.0
C1 C 1.02812 0.99999 0.95052 0.0
Co2 Co 1.0029 0.03119 0.99525 0.0
C3 C 0.1364 0.88606 0.00673 0.0
C4 C 0.18256 0.9397 0.97539 0.0
N5 N 0.12754 0.92647 0.99068 0.0
N6 N 0.19567 0.87497 0.00243 0.0
C7 C 0.22425 0.90737 0.9825 0.0
H8 H 0.10088 0.86633 0.0216 0.0
H9 H 0.19419 0.97402 0.96069 0.0
C10 C 0.04303 1.00391 0.03768 0.0
N11 N 0.94564 0.07911 -0.00164 0.0
C12 C 0.97199 0.15422 0.99631 0.0
C13 C 0.88051 0.05415 0.01016 0.0
N14 N 0.92905 0.17847 0.00754 0.0
C15 C 0.87042 0.11529 0.01594 0.0
C16 C 0.9078 0.86762 0.99359 0.0
O17 O 0.07694 0.97689 0.02551 0.0
O18 O 1.00582 0.02975 0.02777 0.0
O19 O 0.90828 0.93108 0.99389 0.0
O20 O 0.97273 0.87089 0.99338 0.0
O21 O 0.99968 0.03313 0.9627 0.0
H22 H 0.84775 0.99763 0.01668 0.0
H23 H 1.02732 0.19276 0.98948 0.0
O24 O 0.05967 0.96795 0.96037 0.0
O25 O 0.16338 0.07146 0.99236 0.0
O26 O 0.10016 0.13184 0.9966 0.0
C27 C 0.16458 0.13506 0.99457 0.0
H28 H 0.2731 0.90963 0.97409 0.0
H29 H 0.82829 0.11475 0.02755 0.0
Co30 Co 0.15645 0.08515 0.32779 0.0
C31 C 0.08337 0.03875 0.28488 0.0
Co32 Co 1.03245 1.01719 0.32927 0.0
C33 C 0.31677 0.15871 0.33854 0.0
C34 C 0.29123 0.21439 0.3128 0.0
N35 N 0.25895 0.15308 0.32586 0.0
N36 N 0.3842 0.22109 0.33393 0.0
C37 C 0.36833 0.25613 0.31765 0.0
H38 H 0.30975 0.1161 0.35031 0.0
H39 H 0.26055 0.22794 0.30054 0.0
C40 C 0.1051 0.06386 0.3722 0.0
N41 N 0.92994 0.94955 0.33128 0.0
C42 C 0.87152 0.94891 0.32037 0.0
C43 C 0.89741 0.88688 0.34379 0.0
N44 N 0.80346 0.88873 0.3257 0.0
C45 C 0.81954 0.84955 0.34048 0.0
C46 C 0.11043 0.92864 0.32825 0.0
O47 O 0.16526 0.09512 0.36047 0.0
O48 O 1.04071 1.02643 0.3618 0.0
O49 O 0.04718 0.92806 0.32882 0.0
O50 O 0.17139 0.99438 0.32772 0.0
O51 O 1.02334 1.00815 0.29668 0.0
H52 H 0.92827 0.8704 0.35505 0.0
H53 H 0.87861 0.9944 0.30979 0.0
O54 O 0.14807 0.07506 0.29517 0.0
O55 O 0.14177 0.17424 0.32796 0.0
O56 O 1.01772 0.10817 0.32964 0.0
C57 C 0.07863 0.1738 0.32882 0.0
H58 H 0.40976 0.30677 0.30931 0.0
H59 H 0.77784 0.79992 0.34916 0.0
Co60 Co 0.04829 0.9909 0.65868 0.0
C61 C 0.08692 0.06938 0.61838 0.0
Co62 Co 0.10324 0.11485 0.66426 0.0
C63 C 0.96522 0.82989 0.66574 0.0
C64 C 1.04028 0.85715 0.63748 0.0
N65 N 1.01256 0.88815 0.65306 0.0
N66 N 0.96254 0.7638 0.65885 0.0
C67 C 1.00898 0.78045 0.64086 0.0
H68 H 0.93259 0.83575 0.67963 0.0
H69 H 0.08235 0.88879 0.62488 0.0
C70 C 0.06491 0.03661 0.70458 0.0
N71 N 0.14041 0.21741 0.66999 0.0
C72 C 0.20256 0.27574 0.66129 0.0
C73 C 0.11216 0.25054 0.68459 0.0
N74 N 0.21531 0.3442 0.6701 0.0
C75 C 0.15884 0.3288 0.6849 0.0
C76 C 0.93802 0.03854 0.66024 0.0
O77 O 1.04079 0.9779 0.69091 0.0
O78 O 0.09451 0.10217 0.69637 0.0
O79 O 1.00066 0.10205 0.66295 0.0
O80 O 0.9429 0.97762 0.65778 0.0
O81 O 0.11219 0.1284 0.63201 0.0
H82 H 0.06271 0.21963 0.69507 0.0
H83 H 0.241 0.2679 0.64999 0.0
O84 O 0.056 1.0038 0.62664 0.0
O85 O 0.15096 1.0038 0.65966 0.0
O86 O 0.20854 0.12772 0.66552 0.0
C87 C 0.21353 0.06703 0.66273 0.0
H88 H 1.01907 0.74002 0.6308 0.0
H89 H 0.15442 0.37074 0.69607 0.0
C90 C 0.95344 0.27265 0.03963 0.0
C91 C 0.95938 0.25622 0.01626 0.0
C92 C 0.99984 0.34667 0.04942 0.0
C93 C 0.18331 0.51851 0.04094 0.0
H94 H 0.09081 0.63674 0.06265 0.0
C95 C 0.24517 0.7869 0.0053 0.0
C96 C 0.21937 0.83308 0.01598 0.0
C97 C 0.24749 0.73036 0.01732 0.0
C98 C 0.11896 0.60491 0.05758 0.0
H99 H 1.01335 0.30485 0.98456 0.0
H100 H 0.09422 0.43406 0.00159 0.0
H101 H 1.01478 0.49802 0.06004 0.0
H102 H 0.19 0.86698 0.04849 0.0
H103 H 0.19338 0.76749 0.06954 0.0
H104 H 0.28575 0.62538 0.0367 0.0
C105 C 0.05525 0.38933 0.01241 0.0
C106 C 0.07485 0.52517 0.05596 0.0
C107 C 1.00836 0.31602 0.00261 0.0
C108 C 0.2071 0.82972 0.03968 0.0
C109 C 0.2098 0.7734 0.05177 0.0
C110 C 0.22771 0.59822 0.04278 0.0
C111 C 0.05317 0.40452 0.036 0.0
C112 C 0.10515 0.48223 0.04585 0.0
C113 C 0.22399 0.71931 0.04022 0.0
C114 C 0.19369 0.64214 0.04904 0.0
H115 H 0.91683 0.22752 0.05065 0.0
H116 H 0.99647 0.35794 0.06757 0.0
H117 H 0.20802 0.48576 0.03357 0.0
H118 H 0.25586 0.78901 0.98712 0.0
H119 H 0.25886 0.68991 0.00778 0.0
C120 C 0.51427 0.25468 0.32341 0.0
C121 C 0.4577 0.23224 0.34004 0.0
C122 C 0.56758 0.23061 0.32434 0.0
C123 C 0.62322 0.10886 0.3542 0.0
H124 H 0.55568 0.98627 0.29669 0.0
C125 C 0.68268 0.86955 0.34104 0.0
C126 C 0.73163 0.88498 0.32244 0.0
C127 C 0.63401 0.8995 0.34218 0.0
C128 C 0.57478 1.01999 0.31279 0.0
H129 H 0.42473 0.18638 0.37353 0.0
H130 H 0.5164 0.14234 0.37489 0.0
H131 H 0.53254 0.09267 0.30341 0.0
H132 H 0.75594 0.927 0.28836 0.0
H133 H 0.67212 0.98059 0.29041 0.0
H134 H 0.66587 0.03634 0.36353 0.0
C135 C 0.51888 0.17662 0.3609 0.0
C136 C 0.56291 0.08166 0.31651 0.0
C137 C 0.46592 0.20118 0.36003 0.0
C138 C 0.72023 0.91678 0.30315 0.0
C139 C 0.67196 0.94713 0.30432 0.0
C140 C 0.63553 0.04735 0.35043 0.0
C141 C 0.56411 0.18416 0.34186 0.0
C142 C 0.58733 0.12677 0.33719 0.0
C143 C 0.63416 0.94471 0.32474 0.0
C144 C 0.61132 1.00239 0.32969 0.0
H145 H 0.51081 0.28063 0.30807 0.0
H146 H 0.604 0.23901 0.30981 0.0
H147 H 0.64153 0.14229 0.37036 0.0
H148 H 0.68915 0.84374 0.35599 0.0
H149 H 0.60311 0.8948 0.35778 0.0
C150 C 0.87786 0.68228 0.68808 0.0
C151 C 0.90761 0.68944 0.66601 0.0
C152 C 0.80341 0.62454 0.69189 0.0
C153 C 0.65186 0.57781 0.65533 0.0
H154 H 0.51629 0.46234 0.7033 0.0
C155 C 0.32817 0.42911 0.64908 0.0
C156 C 0.28754 0.4131 0.66945 0.0
C157 C 0.40747 0.47259 0.64983 0.0
C158 C 0.5541 0.49606 0.69005 0.0
H159 H 0.892 0.63178 0.63249 0.0
H160 H 0.76216 0.53102 0.63919 0.0
H161 H 0.64854 0.48914 0.70379 0.0
H162 H 0.29527 0.44034 0.706 0.0
H163 H 0.43435 0.51895 0.70729 0.0
H164 H 0.5596 0.58795 0.64201 0.0
C165 C 0.7952 0.57081 0.65333 0.0
C166 C 0.62886 0.50966 0.69011 0.0
C167 C 0.86954 0.62872 0.64949 0.0
C168 C 0.32573 0.45159 0.69008 0.0
C169 C 0.40524 0.49543 0.69087 0.0
C170 C 0.57788 0.56531 0.65545 0.0
C171 C 0.75931 0.57425 0.67359 0.0
C172 C 0.67775 0.54969 0.67255 0.0
C173 C 0.44667 0.50109 0.67101 0.0
C174 C 0.52803 0.52375 0.67267 0.0
H175 H 0.90793 0.72704 0.70137 0.0
H176 H 0.77713 0.62716 0.70785 0.0
H177 H 0.68972 0.61167 0.64209 0.0
H178 H 0.29916 0.40044 0.633 0.0
H179 H 0.43773 0.47643 0.63417 0.0
C180 C 0.86177 0.10841 0.66326 0.0
C181 C 0.86206 0.03856 0.66027 0.0
C182 C 0.79311 0.11117 0.66357 0.0
C183 C 0.57856 0.9934 0.64914 0.0
H184 H 0.57324 0.1585 0.68421 0.0
C185 C 0.2898 0.9972 0.65967 0.0
C186 C 0.28947 0.067 0.66276 0.0
C187 C 0.35846 0.99445 0.6594 0.0
C188 C 0.57302 0.11221 0.67399 0.0
H189 H 0.7861 0.91605 0.65528 0.0
H190 H 0.66685 0.92037 0.65598 0.0
H191 H 0.68961 0.15089 0.68393 0.0
H192 H 0.36536 0.18945 0.66801 0.0
H193 H 0.48463 0.18517 0.66737 0.0
H194 H 0.46201 0.95474 0.63919 0.0
C195 C 0.72047 0.974 0.65785 0.0
C196 C 0.64098 0.1077 0.67381 0.0
C197 C 0.78961 0.97125 0.65756 0.0
C198 C 0.36189 0.13428 0.66564 0.0
C199 C 0.43104 0.13155 0.66538 0.0
C200 C 0.51061 0.99792 0.64932 0.0
C201 C 0.7203 0.04418 0.66094 0.0
C202 C 0.64586 0.04821 0.66136 0.0
C203 C 0.43126 0.06141 0.66218 0.0
C204 C 0.50571 0.0574 0.66177 0.0
H205 H 0.91537 0.16209 0.66535 0.0
H206 H 0.79778 0.1669 0.66557 0.0
H207 H 0.57836 0.94711 0.63893 0.0
H208 H 0.23621 0.94355 0.65746 0.0
H209 H 0.35379 0.93873 0.65734 0.0
C210 C 0.82839 0.71993 0.99279 0.0
C211 C 0.83207 0.79173 0.99368 0.0
C212 C 0.75737 0.65 0.99292 0.0
C213 C 0.5455 0.56805 0.00581 0.0
H214 H 0.52175 0.38558 0.97319 0.0
C215 C 0.2439 0.28279 0.9965 0.0
C216 C 0.24025 0.211 0.99466 0.0
C217 C 0.31484 0.35283 0.99643 0.0
C218 C 0.52673 0.43521 0.98275 0.0
H219 H 0.7607 0.84353 0.99541 0.0
H220 H 0.63881 0.72365 0.99547 0.0
H221 H 0.64406 0.50464 0.97319 0.0
H222 H 0.31149 0.1593 0.99148 0.0
H223 H 0.43321 0.27921 0.99172 0.0
H224 H 0.4283 0.49865 0.01545 0.0
C225 C 0.69069 0.72059 0.99496 0.0
C226 C 0.59804 0.5046 0.98273 0.0
C227 C 0.7615 0.79028 0.99475 0.0
C228 C 0.31071 0.21256 0.99283 0.0
C229 C 0.38144 0.28236 0.99279 0.0
C230 C 0.47422 0.49859 0.00588 0.0
C231 C 0.68656 0.64848 0.99405 0.0
C232 C 0.60941 0.57298 0.99424 0.0
C233 C 0.38563 0.35453 0.99452 0.0
C234 C 0.46279 0.43016 0.99436 0.0
H235 H 0.88067 0.71757 0.99202 0.0
H236 H 0.75839 0.59691 0.99248 0.0
H237 H 0.55058 0.61784 0.0153 0.0
H238 H 0.19166 0.28506 0.99789 0.0
H239 H 0.31366 0.40585 0.99752 0.0
C240 C 1.01201 0.2553 0.3297 0.0
C241 C 0.07907 0.25 0.32883 0.0
C242 C 1.01508 0.3274 0.32967 0.0
C243 C 0.15416 0.5448 0.33798 0.0
H244 H 0.98799 0.55992 0.31136 0.0
C245 C 0.17716 0.84723 0.32757 0.0
C246 C 0.11005 0.85246 0.32829 0.0
C247 C 0.17411 0.77514 0.32762 0.0
C248 C 1.03506 0.55768 0.31922 0.0
H249 H 0.20244 0.32 0.32709 0.0
H250 H 0.20768 0.44275 0.32679 0.0
H251 H 0.98002 0.43568 0.31183 0.0
H252 H 0.98664 0.78236 0.32981 0.0
H253 H 0.98145 0.65968 0.33019 0.0
H254 H 0.20919 0.66679 0.34538 0.0
C255 C 0.15211 0.3918 0.32791 0.0
C256 C 1.03033 0.48508 0.31948 0.0
C257 C 0.14901 0.32014 0.3279 0.0
C258 C 1.04011 0.78228 0.32911 0.0
C259 C 1.03704 0.71065 0.32914 0.0
C260 C 0.15887 0.61739 0.33772 0.0
C261 C 0.0854 0.3978 0.32884 0.0
C262 C 0.08978 0.47646 0.32884 0.0
C263 C 0.10379 0.70469 0.32834 0.0
C264 C 0.09943 0.62603 0.32836 0.0
H265 H 0.95679 0.20358 0.33046 0.0
H266 H 0.9618 0.32767 0.33066 0.0
H267 H 0.20123 0.54254 0.34582 0.0
H268 H 0.23239 0.89897 0.3269 0.0
H269 H 0.22744 0.77494 0.32674 0.0
C270 C 1.01018 1.01477 0.24797 0.0
C271 C 0.07832 0.03263 0.25952 0.0
C272 C 1.00619 1.01081 0.224 0.0
C273 C 0.13064 0.06624 0.17258 0.0
H274 H 0.93938 0.92566 0.14057 0.0
C275 C 0.10316 0.99704 0.07425 0.0
C276 C 0.04665 1.00531 0.06302 0.0
C277 C 0.1072 0.99976 0.0982 0.0
C278 C 0.99307 0.96536 0.14932 0.0
H279 H 0.19517 0.05851 0.25502 0.0
H280 H 0.18743 0.0481 0.21339 0.0
H281 H 0.94614 0.9298 0.18227 0.0
H282 H 0.94928 1.0215 0.0681 0.0
H283 H 0.95526 1.02411 0.10993 0.0
H284 H 0.17774 0.0995 0.13936 0.0
C285 C 0.13763 0.0399 0.22266 0.0
C286 C 0.997 0.96825 0.17327 0.0
C287 C 0.14201 0.0453 0.24661 0.0
C288 C 0.99364 1.0152 0.07624 0.0
C289 C 0.99678 1.01635 0.10016 0.0
C290 C 0.12698 0.0622 0.14863 0.0
C291 C 0.06984 1.02317 0.21095 0.0
C292 C 0.06577 1.01909 0.18531 0.0
C293 C 0.05388 1.00916 0.11138 0.0
C294 C 0.05808 1.01208 0.13677 0.0
H295 H 0.96027 1.00529 0.25745 0.0
H296 H 0.95338 0.99929 0.21578 0.0
H297 H 0.18426 0.10738 0.18107 0.0
H298 H 0.14484 0.98938 0.06454 0.0
H299 H 0.15154 0.99366 0.10644 0.0
C300 C 0.17922 0.09956 0.40954 0.0
C301 C 0.10925 0.07143 0.39758 0.0
C302 C 0.18229 0.10567 0.43354 0.0
C303 C 0.07945 0.12124 0.48386 0.0
H304 H 0.18394 0.03665 0.51647 0.0
C305 C 0.11453 0.14521 0.58319 0.0
C306 C 0.09457 0.076 0.59324 0.0
C307 C 0.12107 0.15025 0.55938 0.0
C308 C 0.1547 0.06068 0.50759 0.0
H309 H 0.98786 1.0287 0.40147 0.0
H310 H 0.99353 0.04027 0.44322 0.0
H311 H 0.18651 0.03567 0.47463 0.0
H312 H 0.06698 0.95823 0.58617 0.0
H313 H 0.07933 0.96749 0.54483 0.0
H314 H 0.04696 0.14549 0.51683 0.0
C315 C 0.04595 0.05755 0.43406 0.0
C316 C 0.15665 0.06063 0.48366 0.0
C317 C 1.04269 0.05045 0.41013 0.0
C318 C 0.0822 1.01237 0.579 0.0
C319 C 0.08979 1.01775 0.55531 0.0
C320 C 0.07836 0.12223 0.50781 0.0
C321 C 0.11567 0.0849 0.44605 0.0
C322 C 0.11809 0.08987 0.47152 0.0
C323 C 0.10905 0.08659 0.54521 0.0
C324 C 0.115 0.09089 0.51991 0.0
H325 H 0.23152 0.11619 0.40038 0.0
H326 H 0.23689 0.12728 0.44232 0.0
H327 H 0.04972 0.14474 0.47497 0.0
H328 H 0.12448 0.19525 0.59369 0.0
H329 H 0.13631 0.20416 0.55206 0.0
C330 C 0.0641 0.09026 0.74406 0.0
C331 C 0.05776 1.02928 0.72968 0.0
C332 C 0.05687 0.08374 0.76775 0.0
C333 C 0.08275 0.98774 0.81488 0.0
H334 H 0.94624 0.03942 0.84771 0.0
C335 C 1.0376 0.94662 0.91184 0.0
C336 C 1.02602 0.99957 0.92519 0.0
C337 C 1.03772 0.94717 0.88793 0.0
C338 C 0.98562 1.0259 0.83894 0.0
H339 H 1.03927 0.91377 0.72891 0.0
H340 H 1.02868 0.90326 0.7705 0.0
H341 H 0.95477 0.04715 0.80622 0.0
H342 H 1.00583 0.09496 0.92393 0.0
H343 H 1.00916 0.09824 0.88234 0.0
H344 H 0.11631 0.96944 0.84744 0.0
C345 C 1.03861 0.95577 0.76331 0.0
C346 C 0.99003 0.02989 0.81512 0.0
C347 C 0.04441 0.96172 0.73953 0.0
C348 C 1.01431 0.053 0.9141 0.0
C349 C 1.01577 0.05447 0.89018 0.0
C350 C 0.0794 0.98501 0.83874 0.0
C351 C 0.04447 1.01664 0.77763 0.0
C352 C 1.03859 1.0108 0.80285 0.0
C353 C 1.02768 1.00165 0.87671 0.0
C354 C 1.03071 1.00398 0.85117 0.0
H355 H 0.07407 0.14297 0.73699 0.0
H356 H 0.06217 0.13172 0.7784 0.0
H357 H 0.12137 0.97361 0.80587 0.0
H358 H 0.04614 0.90425 0.91986 0.0
H359 H 0.04527 0.90436 0.87829 0.0
loop_
_geom_bond_atom_site_label_1
_geom_bond_atom_site_label_2
_geom_bond_distance
_geom_bond_site_symmetry_2
_ccdc_geom_bond_type
Co0 N5 2.057 1_554 S
Co0 O17 2.021 . S
Co0 O20 2.062 1_455 S
Co0 O24 2.117 1_554 S
Co0 O25 2.020 1_565 S
C1 O21 1.259 1_455 S
C1 O24 1.258 1_545 S
Co2 N11 2.052 1_556 S
Co2 O18 2.092 1_656 S
Co2 O19 2.017 1_546 S
Co2 O21 2.046 . S
Co2 O26 2.061 1_655 S
C3 N5 1.316 1_554 S
C3 N6 1.347 1_554 S
C3 H8 0.931 . S
C4 N5 1.375 . S
C4 C7 1.350 . S
C4 H9 0.930 . S
N5 Co0 2.057 1_556 S
N5 C3 1.316 1_556 S
N5 C4 1.375 . S
N6 C3 1.347 1_556 S
N6 C7 1.373 . S
C7 C4 1.350 . S
C7 N6 1.373 . S
C7 H28 0.931 . S
H8 C3 0.931 . S
H9 C4 0.930 . S
C10 O17 1.259 1_545 S
C10 O18 1.258 . S
N11 Co2 2.052 1_554 S
N11 C12 1.316 1_554 S
N11 C13 1.375 . S
C12 N11 1.316 1_556 S
C12 N14 1.347 1_556 S
C12 H23 0.931 . S
C13 N11 1.375 . S
C13 C15 1.350 . S
C13 H22 0.930 . S
N14 C12 1.347 1_554 S
N14 C15 1.373 . S
C15 C13 1.350 . S
C15 N14 1.373 . S
C15 H29 0.931 . S
C16 O19 1.257 . S
C16 O20 1.255 . S
O17 Co0 2.021 . S
O17 C10 1.259 1_565 S
O18 Co2 2.092 1_454 S
O18 C10 1.258 . S
O19 Co2 2.017 1_564 S
O19 C16 1.257 . S
O20 Co0 2.062 1_655 S
O20 C16 1.255 . S
O21 C1 1.259 1_655 S
O21 Co2 2.046 . S
H22 C13 0.930 . S
H23 C12 0.931 . S
O24 Co0 2.117 1_556 S
O24 C1 1.258 1_565 S
O25 Co0 2.020 1_545 S
O25 C27 1.261 . S
O26 Co2 2.061 1_455 S
O26 C27 1.250 1_556 S
C27 O25 1.261 . S
C27 O26 1.250 1_554 S
H28 C7 0.931 . S
H29 C15 0.931 . S
Co30 N35 2.057 . S
Co30 O47 2.021 . S
Co30 O50 2.062 1_545 S
Co30 O54 2.117 . S
Co30 O55 2.020 . S
C31 O51 1.259 1_445 S
C31 O54 1.258 . S
Co32 N41 2.057 . S
Co32 O48 2.117 1_665 S
Co32 O49 2.020 . S
Co32 O51 2.021 . S
Co32 O56 2.062 1_665 S
C33 N35 1.316 . S
C33 N36 1.347 . S
C33 H38 0.931 . S
C34 N35 1.375 . S
C34 C37 1.350 . S
C34 H39 0.930 . S
N35 Co30 2.057 . S
N35 C33 1.316 . S
N35 C34 1.375 . S
N36 C33 1.347 . S
N36 C37 1.373 . S
C37 C34 1.350 . S
C37 N36 1.373 . S
C37 H58 0.931 . S
H38 C33 0.931 . S
H39 C34 0.930 . S
C40 O47 1.259 . S
C40 O48 1.258 . S
N41 Co32 2.057 . S
N41 C42 1.316 . S
N41 C43 1.375 . S
C42 N41 1.316 . S
C42 N44 1.347 . S
C42 H53 0.931 . S
C43 N41 1.375 . S
C43 C45 1.350 . S
C43 H52 0.930 . S
N44 C42 1.347 . S
N44 C45 1.373 . S
C45 C43 1.350 . S
C45 N44 1.373 . S
C45 H59 0.931 . S
C46 O49 1.256 1_455 S
C46 O50 1.255 . S
O47 Co30 2.021 . S
O47 C40 1.259 . S
O48 Co32 2.117 1_445 S
O48 C40 1.258 . S
O49 Co32 2.020 . S
O49 C46 1.256 1_655 S
O50 Co30 2.062 1_565 S
O50 C46 1.255 . S
O51 C31 1.259 1_665 S
O51 Co32 2.021 . S
H52 C43 0.930 . S
H53 C42 0.931 . S
O54 Co30 2.117 . S
O54 C31 1.258 . S
O55 Co30 2.020 . S
O55 C57 1.256 . S
O56 Co32 2.062 1_445 S
O56 C57 1.255 . S
C57 O55 1.256 . S
C57 O56 1.255 . S
H58 C37 0.931 . S
H59 C45 0.931 . S
Co60 N65 2.057 . S
Co60 O77 2.021 . S
Co60 O80 2.062 . S
Co60 O84 2.117 1_655 S
Co60 O85 2.020 1_655 S
C61 O81 1.259 . S
C61 O84 1.258 1_545 S
Co62 N71 2.057 . S
Co62 O78 2.117 . S
Co62 O79 2.036 . S
Co62 O81 2.021 . S
Co62 O86 2.062 . S
C63 N65 1.316 . S
C63 N66 1.347 . S
C63 H68 0.931 . S
C64 N65 1.375 . S
C64 C67 1.350 . S
C64 H69 0.930 . S
N65 Co60 2.057 . S
N65 C63 1.316 . S
N65 C64 1.375 . S
N66 C63 1.347 . S
N66 C67 1.373 . S
C67 C64 1.350 . S
C67 N66 1.373 . S
C67 H88 0.931 . S
H68 C63 0.931 . S
H69 C64 0.930 . S
C70 O77 1.259 1_445 S
C70 O78 1.258 . S
N71 Co62 2.057 . S
N71 C72 1.316 . S
N71 C73 1.375 . S
C72 N71 1.316 . S
C72 N74 1.347 . S
C72 H83 0.931 . S
C73 N71 1.375 . S
C73 C75 1.350 . S
C73 H82 0.930 . S
N74 C72 1.347 . S
N74 C75 1.373 . S
C75 C73 1.350 . S
C75 N74 1.373 . S
C75 H89 0.931 . S
C76 O79 1.246 1_655 S
C76 O80 1.255 1_545 S
O77 Co60 2.021 . S
O77 C70 1.259 1_665 S
O78 Co62 2.117 . S
O78 C70 1.258 . S
O79 Co62 2.036 . S
O79 C76 1.246 1_455 S
O80 Co60 2.062 . S
O80 C76 1.255 1_565 S
O81 C61 1.259 . S
O81 Co62 2.021 . S
H82 C73 0.930 . S
H83 C72 0.931 . S
O84 Co60 2.117 1_455 S
O84 C61 1.258 1_565 S
O85 Co60 2.020 1_455 S
O85 C87 1.256 . S
O86 Co62 2.062 . S
O86 C87 1.255 1_545 S
C87 O85 1.256 . S
C87 O86 1.255 1_565 S
H88 C67 0.931 . S
H89 C75 0.931 . S
C90 C91 1.349 . S
C90 C92 1.327 1_655 S
C90 H115 0.950 1_655 S
C91 C90 1.349 . S
C91 C107 1.349 1_554 S
C92 C90 1.327 1_455 S
C92 C111 1.429 1_455 S
C92 H116 0.950 . S
C93 C110 1.574 . S
C93 C112 1.368 1_556 S
C93 H117 0.949 . S
H94 C98 0.949 . S
C95 C96 1.349 1_556 S
C95 C97 1.327 . S
C95 H118 0.950 . S
C96 C95 1.349 1_554 S
C96 C108 1.349 . S
C97 C95 1.327 . S
C97 C113 1.429 1_556 S
C97 H119 0.950 1_455 S
C98 H94 0.949 . S
C98 C106 1.574 . S
C98 C114 1.368 . S
H99 C107 0.950 . S
H100 C105 0.950 . S
H101 C106 0.949 . S
H102 C108 0.950 . S
H103 C109 0.950 . S
H104 C110 0.949 . S
C105 H100 0.950 . S
C105 C107 1.327 . S
C105 C111 1.429 1_556 S
C106 C98 1.574 . S
C106 H101 0.949 . S
C106 C112 1.368 1_455 S
C107 C91 1.349 1_556 S
C107 H99 0.950 . S
C107 C105 1.327 . S
C108 C96 1.349 . S
C108 H102 0.950 . S
C108 C109 1.327 . S
C109 H103 0.950 . S
C109 C108 1.327 . S
C109 C113 1.429 . S
C110 C93 1.574 . S
C110 H104 0.949 . S
C110 C114 1.368 1_656 S
C111 C92 1.429 1_655 S
C111 C105 1.429 1_554 S
C111 C112 1.523 . S
C112 C93 1.368 1_554 S
C112 C106 1.368 1_655 S
C112 C111 1.523 . S
C113 C97 1.429 1_554 S
C113 C109 1.429 . S
C113 C114 1.523 . S
C114 C98 1.368 . S
C114 C110 1.368 1_454 S
C114 C113 1.523 . S
H115 C90 0.950 1_455 S
H116 C92 0.950 . S
H117 C93 0.949 . S
H118 C95 0.950 . S
H119 C97 0.950 1_655 S
C120 C121 1.349 . S
C120 C122 1.327 . S
C120 H145 0.950 . S
C121 C120 1.349 . S
C121 C137 1.349 . S
C122 C120 1.327 . S
C122 C141 1.429 . S
C122 H146 0.950 . S
C123 C140 1.574 . S
C123 C142 1.368 1_565 S
C123 H147 0.949 . S
H124 C128 0.949 . S
C125 C126 1.349 . S
C125 C127 1.327 . S
C125 H148 0.950 . S
C126 C125 1.349 . S
C126 C138 1.349 . S
C127 C125 1.327 . S
C127 C143 1.429 . S
C127 H149 0.950 . S
C128 H124 0.949 . S
C128 C136 1.574 . S
C128 C144 1.368 1_545 S
H129 C137 0.950 . S
H130 C135 0.950 1_565 S
H131 C136 0.949 . S
H132 C138 0.950 . S
H133 C139 0.957 . S
H134 C140 0.949 . S
C135 H130 0.950 1_545 S
C135 C137 1.327 . S
C135 C141 1.429 . S
C136 C128 1.574 . S
C136 H131 0.949 . S
C136 C142 1.368 . S
C137 C121 1.349 . S
C137 H129 0.950 . S
C137 C135 1.327 . S
C138 C126 1.349 . S
C138 H132 0.950 . S
C138 C139 1.320 1_565 S
C139 H133 0.957 . S
C139 C138 1.320 1_545 S
C139 C143 1.429 1_545 S
C140 C123 1.574 . S
C140 H134 0.949 . S
C140 C144 1.368 . S
C141 C122 1.429 . S
C141 C135 1.429 . S
C141 C142 1.523 . S
C142 C123 1.368 1_545 S
C142 C136 1.368 . S
C142 C141 1.523 . S
C143 C127 1.429 . S
C143 C139 1.429 1_565 S
C143 C144 1.523 . S
C144 C128 1.368 1_565 S
C144 C140 1.368 . S
C144 C143 1.523 . S
H145 C120 0.950 . S
H146 C122 0.950 . S
H147 C123 0.949 . S
H148 C125 0.950 . S
H149 C127 0.950 . S
C150 C151 1.349 . S
C150 C152 1.327 . S
C150 H175 0.950 . S
C151 C150 1.349 . S
C151 C167 1.349 . S
C152 C150 1.327 . S
C152 C171 1.429 . S
C152 H176 0.950 . S
C153 C170 1.574 . S
C153 C172 1.368 . S
C153 H177 0.949 . S
H154 C158 0.949 . S
C155 C156 1.349 . S
C155 C157 1.327 . S
C155 H178 0.950 . S
C156 C155 1.349 . S
C156 C168 1.349 . S
C157 C155 1.327 . S
C157 C173 1.429 . S
C157 H179 0.950 . S
C158 H154 0.949 . S
C158 C166 1.574 . S
C158 C174 1.368 . S
H159 C167 0.950 . S
H160 C165 0.950 . S
H161 C166 0.949 . S
H162 C168 0.950 . S
H163 C169 0.950 . S
H164 C170 0.949 . S
C165 H160 0.950 . S
C165 C167 1.327 . S
C165 C171 1.429 . S
C166 C158 1.574 . S
C166 H161 0.949 . S
C166 C172 1.368 . S
C167 C151 1.349 . S
C167 H159 0.950 . S
C167 C165 1.327 . S
C168 C156 1.349 . S
C168 H162 0.950 . S
C168 C169 1.327 . S
C169 H163 0.950 . S
C169 C168 1.327 . S
C169 C173 1.429 . S
C170 C153 1.574 . S
C170 H164 0.949 . S
C170 C174 1.368 . S
C171 C152 1.429 . S
C171 C165 1.429 . S
C171 C172 1.523 . S
C172 C153 1.368 . S
C172 C166 1.368 . S
C172 C171 1.523 . S
C173 C157 1.429 . S
C173 C169 1.429 . S
C173 C174 1.523 . S
C174 C158 1.368 . S
C174 C170 1.368 . S
C174 C173 1.523 . S
H175 C150 0.950 . S
H176 C152 0.950 . S
H177 C153 0.949 . S
H178 C155 0.950 . S
H179 C157 0.950 . S
C180 C181 1.349 . S
C180 C182 1.327 . S
C180 H205 0.950 . S
C181 C180 1.349 . S
C181 C197 1.349 . S
C182 C180 1.327 . S
C182 C201 1.429 . S
C182 H206 0.950 . S
C183 C200 1.574 . S
C183 C202 1.368 1_565 S
C183 H207 0.949 . S
H184 C188 0.949 . S
C185 C186 1.349 . S
C185 C187 1.327 . S
C185 H208 0.950 . S
C186 C185 1.349 . S
C186 C198 1.349 1_565 S
C187 C185 1.327 . S
C187 C203 1.429 . S
C187 H209 0.950 . S
C188 H184 0.949 . S
C188 C196 1.574 . S
C188 C204 1.368 . S
H189 C197 0.950 1_565 S
H190 C195 0.950 . S
H191 C196 0.949 . S
H192 C198 0.950 . S
H193 C199 0.950 . S
H194 C200 0.949 . S
C195 H190 0.950 . S
C195 C197 1.327 1_565 S
C195 C201 1.429 1_565 S
C196 C188 1.574 . S
C196 H191 0.949 . S
C196 C202 1.368 . S
C197 C181 1.349 . S
C197 H189 0.950 1_545 S
C197 C195 1.327 1_545 S
C198 C186 1.349 1_545 S
C198 H192 0.950 . S
C198 C199 1.327 . S
C199 H193 0.950 . S
C199 C198 1.327 . S
C199 C203 1.429 1_545 S
C200 C183 1.574 . S
C200 H194 0.949 . S
C200 C204 1.368 1_565 S
C201 C182 1.429 . S
C201 C195 1.429 1_545 S
C201 C202 1.523 . S
C202 C183 1.368 1_545 S
C202 C196 1.368 . S
C202 C201 1.523 . S
C203 C187 1.429 . S
C203 C199 1.429 1_565 S
C203 C204 1.523 1_565 S
C204 C188 1.368 . S
C204 C200 1.368 1_545 S
C204 C203 1.523 1_545 S
H205 C180 0.950 . S
H206 C182 0.950 . S
H207 C183 0.949 . S
H208 C185 0.950 . S
H209 C187 0.950 . S
C210 C211 1.349 1_556 S
C210 C212 1.327 . S
C210 H235 0.950 . S
C211 C210 1.349 1_554 S
C211 C227 1.349 . S
C212 C210 1.327 . S
C212 C231 1.429 1_556 S
C212 H236 0.950 . S
C213 C230 1.574 . S
C213 C232 1.368 . S
C213 H237 0.949 . S
H214 C218 0.949 . S
C215 C216 1.349 . S
C215 C217 1.327 . S
C215 H238 0.950 . S
C216 C215 1.349 . S
C216 C228 1.349 1_554 S
C217 C215 1.327 . S
C217 C233 1.429 . S
C217 H239 0.950 . S
C218 H214 0.949 . S
C218 C226 1.574 . S
C218 C234 1.368 1_556 S
H219 C227 0.950 . S
H220 C225 0.950 . S
H221 C226 0.949 . S
H222 C228 0.950 . S
H223 C229 0.950 . S
H224 C230 0.949 . S
C225 H220 0.950 . S
C225 C227 1.327 . S
C225 C231 1.429 . S
C226 C218 1.574 . S
C226 H221 0.949 . S
C226 C232 1.368 1_556 S
C227 C211 1.349 . S
C227 H219 0.950 . S
C227 C225 1.327 . S
C228 C216 1.349 1_556 S
C228 H222 0.950 . S
C228 C229 1.327 . S
C229 H223 0.950 . S
C229 C228 1.327 . S
C229 C233 1.429 1_556 S
C230 C213 1.574 . S
C230 H224 0.949 . S
C230 C234 1.368 . S
C231 C212 1.429 1_554 S
C231 C225 1.429 . S
C231 C232 1.523 . S
C232 C213 1.368 . S
C232 C226 1.368 1_554 S
C232 C231 1.523 . S
C233 C217 1.429 . S
C233 C229 1.429 1_554 S
C233 C234 1.523 . S
C234 C218 1.368 1_554 S
C234 C230 1.368 . S
C234 C233 1.523 . S
H235 C210 0.950 . S
H236 C212 0.950 . S
H237 C213 0.949 . S
H238 C215 0.950 . S
H239 C217 0.950 . S
C240 C241 1.349 . S
C240 C242 1.327 . S
C240 H265 0.950 . S
C241 C240 1.349 . S
C241 C257 1.349 . S
C242 C240 1.327 . S
C242 C261 1.429 . S
C242 H266 0.950 1_455 S
C243 C260 1.574 . S
C243 C262 1.368 . S
C243 H267 0.949 . S
H244 C248 0.949 1_655 S
C245 C246 1.349 . S
C245 C247 1.327 . S
C245 H268 0.950 . S
C246 C245 1.349 . S
C246 C258 1.349 1_455 S
C247 C245 1.327 . S
C247 C263 1.429 . S
C247 H269 0.950 . S
C248 H244 0.949 1_455 S
C248 C256 1.574 . S
C248 C264 1.368 . S
H249 C257 0.950 . S
H250 C255 0.950 . S
H251 C256 0.949 1_655 S
H252 C258 0.950 . S
H253 C259 0.950 . S
H254 C260 0.949 . S
C255 H250 0.950 . S
C255 C257 1.327 . S
C255 C261 1.429 . S
C256 C248 1.574 . S
C256 H251 0.949 1_455 S
C256 C262 1.368 . S
C257 C241 1.349 . S
C257 H249 0.950 . S
C257 C255 1.327 . S
C258 C246 1.349 1_655 S
C258 H252 0.950 . S
C258 C259 1.327 . S
C259 H253 0.950 . S
C259 C258 1.327 . S
C259 C263 1.429 1_655 S
C260 C243 1.574 . S
C260 H254 0.949 . S
C260 C264 1.368 . S
C261 C242 1.429 . S
C261 C255 1.429 . S
C261 C262 1.523 . S
C262 C243 1.368 . S
C262 C256 1.368 . S
C262 C261 1.523 . S
C263 C247 1.429 . S
C263 C259 1.429 1_455 S
C263 C264 1.523 . S
C264 C248 1.368 . S
C264 C260 1.368 . S
C264 C263 1.523 . S
H265 C240 0.950 . S
H266 C242 0.950 1_655 S
H267 C243 0.949 . S
H268 C245 0.950 . S
H269 C247 0.950 . S
C270 C271 1.349 1_665 S
C270 C272 1.327 . S
C270 H295 0.950 . S
C271 C270 1.349 1_445 S
C271 C287 1.349 . S
C272 C270 1.327 . S
C272 C291 1.429 1_665 S
C272 H296 0.950 . S
C273 C290 1.574 . S
C273 C292 1.368 . S
C273 H297 0.949 . S
H274 C278 0.949 . S
C275 C276 1.349 . S
C275 C277 1.327 . S
C275 H298 0.950 . S
C276 C275 1.349 . S
C276 C288 1.349 1_445 S
C277 C275 1.327 . S
C277 C293 1.429 . S
C277 H299 0.950 . S
C278 H274 0.949 . S
C278 C286 1.574 . S
C278 C294 1.368 1_665 S
H279 C287 0.950 . S
H280 C285 0.950 . S
H281 C286 0.949 . S
H282 C288 0.950 . S
H283 C289 0.950 . S
H284 C290 0.949 . S
C285 H280 0.950 . S
C285 C287 1.327 . S
C285 C291 1.429 . S
C286 C278 1.574 . S
C286 H281 0.949 . S
C286 C292 1.368 1_665 S
C287 C271 1.349 . S
C287 H279 0.950 . S
C287 C285 1.327 . S
C288 C276 1.349 1_665 S
C288 H282 0.950 . S
C288 C289 1.327 . S
C289 H283 0.950 . S
C289 C288 1.327 . S
C289 C293 1.429 1_665 S
C290 C273 1.574 . S
C290 H284 0.949 . S
C290 C294 1.368 . S
C291 C272 1.429 1_445 S
C291 C285 1.429 . S
C291 C292 1.523 . S
C292 C273 1.368 . S
C292 C286 1.368 1_445 S
C292 C291 1.523 . S
C293 C277 1.429 . S
C293 C289 1.429 1_445 S
C293 C294 1.523 . S
C294 C278 1.368 1_445 S
C294 C290 1.368 . S
C294 C293 1.523 . S
H295 C270 0.950 . S
H296 C272 0.950 . S
H297 C273 0.949 . S
H298 C275 0.950 . S
H299 C277 0.950 . S
C300 C301 1.349 1_565 S
C300 C302 1.327 . S
C300 H325 0.950 . S
C301 C300 1.349 1_545 S
C301 C317 1.349 . S
C302 C300 1.327 . S
C302 C321 1.429 1_565 S
C302 H326 0.950 . S
C303 C320 1.574 . S
C303 C322 1.368 . S
C303 H327 0.949 . S
H304 C308 0.949 . S
C305 C306 1.349 . S
C305 C307 1.327 . S
C305 H328 0.950 . S
C306 C305 1.349 . S
C306 C318 1.349 1_545 S
C307 C305 1.327 . S
C307 C323 1.429 . S
C307 H329 0.950 . S
C308 H304 0.949 . S
C308 C316 1.574 . S
C308 C324 1.368 1_565 S
H309 C317 0.950 . S
H310 C315 0.950 . S
H311 C316 0.949 . S
H312 C318 0.950 . S
H313 C319 0.950 . S
H314 C320 0.949 . S
C315 H310 0.950 . S
C315 C317 1.327 . S
C315 C321 1.429 . S
C316 C308 1.574 . S
C316 H311 0.949 . S
C316 C322 1.368 1_565 S
C317 C301 1.349 . S
C317 H309 0.950 . S
C317 C315 1.327 . S
C318 C306 1.349 1_565 S
C318 H312 0.950 . S
C318 C319 1.327 . S
C319 H313 0.950 . S
C319 C318 1.327 . S
C319 C323 1.429 1_565 S
C320 C303 1.574 . S
C320 H314 0.949 . S
C320 C324 1.368 . S
C321 C302 1.429 1_545 S
C321 C315 1.429 . S
C321 C322 1.523 . S
C322 C303 1.368 . S
C322 C316 1.368 1_545 S
C322 C321 1.523 . S
C323 C307 1.429 . S
C323 C319 1.429 1_545 S
C323 C324 1.523 . S
C324 C308 1.368 1_545 S
C324 C320 1.368 . S
C324 C323 1.523 . S
H325 C300 0.950 . S
H326 C302 0.950 . S
H327 C303 0.949 . S
H328 C305 0.950 . S
H329 C307 0.950 . S
C330 C331 1.349 . S
C330 C332 1.327 . S
C330 H355 0.950 . S
C331 C330 1.349 . S
C331 C347 1.349 1_545 S
C332 C330 1.327 . S
C332 C351 1.429 . S
C332 H356 0.950 . S
C333 C350 1.574 . S
C333 C352 1.368 1_565 S
C333 H357 0.949 . S
H334 C338 0.949 . S
C335 C336 1.349 1_565 S
C335 C337 1.327 . S
C335 H358 0.950 . S
C336 C335 1.349 1_545 S
C336 C348 1.349 . S
C337 C335 1.327 . S
C337 C353 1.429 1_565 S
C337 H359 0.950 . S
C338 H334 0.949 . S
C338 C346 1.574 . S
C338 C354 1.368 . S
H339 C347 0.950 . S
H340 C345 0.950 . S
H341 C346 0.949 . S
H342 C348 0.950 . S
H343 C349 0.950 . S
H344 C350 0.949 . S
C345 H340 0.950 . S
C345 C347 1.327 . S
C345 C351 1.429 1_565 S
C346 C338 1.574 . S
C346 H341 0.949 . S
C346 C352 1.368 . S
C347 C331 1.349 1_565 S
C347 H339 0.950 . S
C347 C345 1.327 . S
C348 C336 1.349 . S
C348 H342 0.950 . S
C348 C349 1.327 . S
C349 H343 0.950 . S
C349 C348 1.327 . S
C349 C353 1.429 . S
C350 C333 1.574 . S
C350 H344 0.949 . S
C350 C354 1.368 1_565 S
C351 C332 1.429 . S
C351 C345 1.429 1_545 S
C351 C352 1.523 . S
C352 C333 1.368 1_545 S
C352 C346 1.368 . S
C352 C351 1.523 . S
C353 C337 1.429 1_545 S
C353 C349 1.429 . S
C353 C354 1.523 . S
C354 C338 1.368 . S
C354 C350 1.368 1_545 S
C354 C353 1.523 . S
H355 C330 0.950 . S
H356 C332 0.950 . S
H357 C333 0.949 . S
H358 C335 0.950 . S
H359 C337 0.950 . S
C91 N14 0.405 . S
C96 N6 0.405 1_554 S
C121 N36 0.429 . S
C126 N44 0.429 . S
C151 N66 0.395 . S
C156 N74 0.395 . S
C181 C76 2.552 . S
C186 C87 2.552 . S
C211 C16 2.551 . S
C216 C27 2.550 . S
C241 C57 2.551 . S
C246 C46 2.551 . S
C271 C31 1.499 . S
C276 C10 1.497 . S
C301 C40 1.501 . S
C306 C61 1.497 . S
C331 C70 1.498 . S
C336 C1 1.501 . S
