# Generated by pormake.
# Topology tfs, (6)-cn, num edge types: 1
# Building blocks:
#     Node 0, Type 0, BuildingBlock: CIFDUS_clean_sbu_1, # of connection points: 6
#     Node 1, Type 0, BuildingBlock: CIFDUS_clean_sbu_1, # of connection points: 6
#     Node 2, Type 0, BuildingBlock: CIFDUS_clean_sbu_1, # of connection points: 6
#     Node 3, Type 0, BuildingBlock: CIFDUS_clean_sbu_1, # of connection points: 6
#     Node 4, Type 0, BuildingBlock: CIFDUS_clean_sbu_1, # of connection points: 6
#     Node 5, Type 0, BuildingBlock: CIFDUS_clean_sbu_1, # of connection points: 6
#     Edge 6, Type (0, 0), BuildingBlock: XUDNAN_clean_linker_2, # of connection points: 2
#     Edge 7, Type (0, 0), BuildingBlock: XUDNAN_clean_linker_2, # of connection points: 2
#     Edge 8, Type (0, 0), BuildingBlock: XUDNAN_clean_linker_2, # of connection points: 2
#     Edge 9, Type (0, 0), BuildingBlock: XUDNAN_clean_linker_2, # of connection points: 2
#     Edge 10, Type (0, 0), BuildingBlock: XUDNAN_clean_linker_2, # of connection points: 2
#     Edge 11, Type (0, 0), BuildingBlock: XUDNAN_clean_linker_2, # of connection points: 2
#     Edge 12, Type (0, 0), BuildingBlock: XUDNAN_clean_linker_2, # of connection points: 2
#     Edge 13, Type (0, 0), BuildingBlock: XUDNAN_clean_linker_2, # of connection points: 2
#     Edge 14, Type (0, 0), BuildingBlock: XUDNAN_clean_linker_2, # of connection points: 2
#     Edge 15, Type (0, 0), BuildingBlock: XUDNAN_clean_linker_2, # of connection points: 2
#     Edge 16, Type (0, 0), BuildingBlock: XUDNAN_clean_linker_2, # of connection points: 2
#     Edge 17, Type (0, 0), BuildingBlock: XUDNAN_clean_linker_2, # of connection points: 2
#     Edge 18, Type (0, 0), BuildingBlock: XUDNAN_clean_linker_2, # of connection points: 2
#     Edge 19, Type (0, 0), BuildingBlock: XUDNAN_clean_linker_2, # of connection points: 2
#     Edge 20, Type (0, 0), BuildingBlock: XUDNAN_clean_linker_2, # of connection points: 2
#     Edge 21, Type (0, 0), BuildingBlock: XUDNAN_clean_linker_2, # of connection points: 2
#     Edge 22, Type (0, 0), BuildingBlock: XUDNAN_clean_linker_2, # of connection points: 2
#     Edge 23, Type (0, 0), BuildingBlock: XUDNAN_clean_linker_2, # of connection points: 2
# Relax obj value: 0.214
# Max RMSD: 0.172
# Mean RMSD: 0.172
data_MOF--net-tfs--node1-CIFDUS_clean_sbu_1--edge1-XUDNAN_clean_linker_2
_symmetry_space_group_name_H-M    P1
_symmetry_Int_Tables_number       1
_symmetry_cell_setting            triclinic
loop_
_symmetry_equiv_pos_as_xyz
'x, y, z'
_cell_length_a     42.04104
_cell_length_b     42.237256
_cell_length_c     15.814468
_cell_angle_alpha  89.992081
_cell_angle_beta   90.074537
_cell_angle_gamma 119.95588
loop_
_atom_site_label
_atom_site_type_symbol
_atom_site_fract_x
_atom_site_fract_y
_atom_site_fract_z
_atom_type_partial_charge
O0 O 0.20949 0.41825 0.8448 0.0
Mn1 Mn 0.20799 0.42093 0.97978 0.0
O2 O 0.18225 0.44849 0.79923 0.0
Mn3 Mn 0.15558 0.437 0.8957 0.0
O4 O 0.20528 0.4212 0.11295 0.0
O5 O 0.23136 0.3868 0.98266 0.0
Mn6 Mn 0.26875 0.41591 0.0515 0.0
O7 O 0.25806 0.47143 0.97889 0.0
O8 O 0.25267 0.41604 0.15904 0.0
O9 O 0.15567 0.37229 0.97874 0.0
O10 O 0.12029 0.38913 0.90801 0.0
O11 O 0.27908 0.38111 0.03094 0.0
O12 O 0.30278 0.46062 0.01139 0.0
C13 C 0.17181 0.47722 0.98333 0.0
C14 C 0.1996 0.43194 0.78434 0.0
C15 C 0.22444 0.41864 0.1733 0.0
C16 C 0.2487 0.36784 0.98837 0.0
C17 C 0.2922 0.48259 0.99023 0.0
C18 C 0.12483 0.36506 0.94463 0.0
O19 O 0.1859 0.45543 0.98208 0.0
O20 O 0.14482 0.47006 0.93218 0.0
O21 O 0.79115 0.21255 0.87685 0.0
Mn22 Mn 0.78231 0.20634 0.00866 0.0
O23 O 0.73687 0.17097 0.81854 0.0
Mn24 Mn 0.71074 0.1515 0.91681 0.0
O25 O 0.76745 0.19781 0.13959 0.0
O26 O 0.84047 0.22744 0.02173 0.0
Mn27 Mn 0.83455 0.24321 0.1234 0.0
O28 O 0.78752 0.25829 0.01282 0.0
O29 O 0.81719 0.20685 0.20156 0.0
O30 O 0.77514 0.15222 1.00214 0.0
O31 O 0.71622 0.11522 0.96466 0.0
O32 O 0.88202 0.26576 0.11975 0.0
O33 O 0.81825 0.27665 0.13229 0.0
C34 C 0.69661 0.18535 0.9875 0.0
C35 C 0.77019 0.19644 0.81261 0.0
C36 C 0.78328 0.19381 0.20464 0.0
C37 C 0.87486 0.24677 0.05079 0.0
C38 C 0.79982 0.28074 0.07457 0.0
C39 C 0.74729 0.12001 0.98741 0.0
O40 O 0.72848 0.18768 0.98915 0.0
O41 O 0.67229 0.15871 0.9421 0.0
O42 O 0.5849 0.78041 0.87142 0.0
Mn43 Mn 0.58273 0.78013 0.00613 0.0
O44 O 0.58316 0.72688 0.84535 0.0
Mn45 Mn 0.57499 0.70732 0.95305 0.0
O46 O 0.5814 0.77603 0.14028 0.0
O47 O 0.61526 0.83803 0.00956 0.0
Mn48 Mn 0.58578 0.84308 0.08518 0.0
O49 O 0.53127 0.77829 1.0008 0.0
O50 O 0.58808 0.82782 0.19225 0.0
O51 O 0.63335 0.77891 0.00733 0.0
O52 O 0.61572 0.71971 0.01692 0.0
O53 O 0.61811 0.88896 0.06603 0.0
O54 O 0.53969 0.83083 0.05064 0.0
C55 C 0.5237 0.69113 0.00793 0.0
C56 C 0.58609 0.757 0.82011 0.0
C57 C 0.58457 0.79666 0.20344 0.0
C58 C 0.63218 0.87421 0.01813 0.0
C59 C 0.51896 0.79974 0.01951 0.0
C60 C 0.64076 0.75287 0.01816 0.0
O61 O 0.55028 0.72485 1.00358 0.0
O62 O 0.53135 0.66701 0.9791 0.0
O63 O 0.79579 0.5755 0.86799 0.0
Mn64 Mn 0.80088 0.57524 1.00055 0.0
O65 O 0.83437 0.55854 0.81276 0.0
Mn66 Mn 0.85783 0.56097 0.91301 0.0
O67 O 0.80747 0.57644 0.13355 0.0
O68 O 0.77617 0.60841 0.00673 0.0
Mn69 Mn 0.74096 0.57911 0.07957 0.0
O70 O 0.75171 0.52399 1.00528 0.0
O71 O 0.76066 0.58177 0.18404 0.0
O72 O 0.85302 0.6245 0.99332 0.0
O73 O 0.89246 0.60686 0.94667 0.0
O74 O 0.72822 0.61229 0.06081 0.0
O75 O 0.70689 0.53341 0.04499 0.0
C76 C 0.83096 0.51609 0.99547 0.0
C77 C 0.8097 0.56737 0.80476 0.0
C78 C 0.78961 0.58017 0.19516 0.0
C79 C 0.75776 0.6263 0.01523 0.0
C80 C 0.71777 0.51201 0.0213 0.0
C81 C 0.88573 0.63138 0.97279 0.0
O82 O 0.82388 0.54278 0.99146 0.0
O83 O 0.85825 0.52029 0.94936 0.0
O84 O 0.22058 0.80043 0.88446 0.0
Mn85 Mn 0.22162 0.79891 0.0189 0.0
O86 O 0.27355 0.85312 0.85889 0.0
Mn87 Mn 0.29439 0.86331 0.96603 0.0
O88 O 0.22668 0.80218 0.15289 0.0
O89 O 0.16404 0.77637 0.02466 0.0
Mn90 Mn 0.15677 0.74117 0.0992 0.0
O91 O 0.22078 0.74799 0.01512 0.0
O92 O 0.17449 0.75764 0.20583 0.0
O93 O 0.22411 0.85068 0.01983 0.0
O94 O 0.28328 0.89151 0.0342 0.0
O95 O 0.11143 0.73134 0.08271 0.0
O96 O 0.16549 0.70613 0.05827 0.0
C97 C 0.31098 0.82739 0.01353 0.0
C98 C 0.24352 0.82559 0.83346 0.0
C99 C 0.20621 0.7848 0.21638 0.0
C100 C 0.12779 0.75957 0.03357 0.0
C101 C 0.19658 0.71448 0.02931 0.0
C102 C 0.25004 0.88346 0.03582 0.0
O103 O 0.27708 0.82033 0.0132 0.0
O104 O 0.33499 0.85948 0.98638 0.0
O105 O 0.43007 0.22092 0.87138 0.0
Mn106 Mn 0.42775 0.22262 1.00487 0.0
O107 O 0.44 0.27512 0.82179 0.0
Mn108 Mn 0.43934 0.29515 0.92614 0.0
O109 O 0.42549 0.22325 0.13906 0.0
O110 O 0.39526 0.16447 1.00606 0.0
Mn111 Mn 0.43453 0.16432 0.05133 0.0
O112 O 0.48084 0.22957 0.01503 0.0
O113 O 0.44258 0.18174 0.16129 0.0
O114 O 0.37705 0.22302 0.99525 0.0
O115 O 0.39355 0.28168 0.96631 0.0
O116 O 0.40372 0.11735 0.04617 0.0
O117 O 0.47501 0.17724 0.98521 0.0
C118 C 0.48551 0.30998 0.00671 0.0
C119 C 0.43488 0.24302 0.80975 0.0
C120 C 0.43388 0.20456 0.1898 0.0
C121 C 0.38268 0.12886 0.01575 0.0
C122 C 0.49548 0.21097 0.99211 0.0
C123 C 0.36932 0.24885 0.98302 0.0
O124 O 0.4575 0.27744 0.99985 0.0
O125 O 0.48183 0.3346 0.96628 0.0
H126 H 0.34332 0.26901 0.85298 0.0
H127 H 0.31214 0.21812 0.09904 0.0
H128 H 0.25906 0.22872 0.09996 0.0
H129 H 0.33711 0.34072 0.9065 0.0
H130 H 0.32214 0.34831 0.80544 0.0
H131 H 0.3475 0.32472 0.81045 0.0
H132 H 0.29498 0.26979 0.7307 0.0
H133 H 0.26916 0.29337 0.72632 0.0
H134 H 0.24887 0.24829 0.77177 0.0
H135 H 0.21888 0.25769 0.08782 0.0
H136 H 0.20469 0.30753 0.07841 0.0
H137 H 0.26665 0.34488 0.84683 0.0
C138 C 0.32402 0.25822 0.90498 0.0
C139 C 0.33119 0.24185 0.97496 0.0
C140 C 0.30643 0.22951 0.04358 0.0
C141 C 0.27634 0.23572 0.04453 0.0
C142 C 0.27156 0.25435 0.97652 0.0
C143 C 0.29499 0.26538 0.90787 0.0
C144 C 0.29005 0.29183 0.85205 0.0
C145 C 0.32631 0.32853 0.84327 0.0
C146 C 0.27485 0.27479 0.76504 0.0
C147 C 0.26168 0.29596 0.90223 0.0
C148 C 0.25006 0.27289 0.97176 0.0
C149 C 0.22718 0.27508 0.03252 0.0
C150 C 0.21852 0.30318 0.02572 0.0
C151 C 0.23396 0.32974 0.96081 0.0
C152 C 0.25325 0.32415 0.895 0.0
H153 H 0.0847 0.32552 0.08096 0.0
H154 H 0.08819 0.32631 0.80782 0.0
H155 H 0.02141 0.28408 0.80224 0.0
H156 H 0.00337 0.22514 0.10062 0.0
H157 H 0.98606 0.23827 0.19017 0.0
H158 H 0.03486 0.25991 0.17233 0.0
H159 H 0.03897 0.32316 0.17527 0.0
H160 H 0.9904 0.30194 0.19127 0.0
H161 H 0.01131 0.33221 0.10273 0.0
H162 H 0.95277 0.25707 0.82654 0.0
H163 H 0.89124 0.24208 0.88125 0.0
H164 H 0.93269 0.25311 0.13703 0.0
C165 C 0.07179 0.31449 0.02048 0.0
C166 C 0.09176 0.32837 0.94502 0.0
C167 C 0.07352 0.31507 0.86648 0.0
C168 C 0.03542 0.29134 0.86263 0.0
C169 C 0.01585 0.28018 0.93805 0.0
C170 C 0.03367 0.29026 0.01571 0.0
C171 C 0.00616 0.27814 0.08715 0.0
C172 C 0.00771 0.2486 0.14074 0.0
C173 C 0.01207 0.3108 0.1422 0.0
C174 C 0.97057 0.26229 0.03758 0.0
C175 C 0.97631 0.26324 0.95162 0.0
C176 C 0.94772 0.25491 0.89395 0.0
C177 C 0.91276 0.24627 0.92524 0.0
C178 C 0.90702 0.24626 0.01325 0.0
C179 C 0.93602 0.25269 0.06919 0.0
H180 H 0.7165 0.06717 0.87061 0.0
H181 H 0.78169 0.0953 0.09942 0.0
H182 H 0.77144 0.03192 0.10529 0.0
H183 H 0.64823 0.98768 0.94057 0.0
H184 H 0.63775 0.9641 0.84049 0.0
H185 H 0.65911 0.01288 0.84272 0.0
H186 H 0.7122 0.01766 0.74994 0.0
H187 H 0.691 0.96853 0.74873 0.0
H188 H 0.73773 0.99615 0.7845 0.0
H189 H 0.74368 0.96232 0.09937 0.0
H190 H 0.69688 0.89691 0.09663 0.0
H191 H 0.64711 0.91468 0.87643 0.0
C192 C 0.72979 0.06044 0.92056 0.0
C193 C 0.7502 0.0863 0.98429 0.0
C194 C 0.76663 0.07625 0.04906 0.0
C195 C 0.76079 0.04022 0.0527 0.0
C196 C 0.73884 0.01484 0.99061 0.0
C197 C 0.72374 0.02485 0.92556 0.0
C198 C 0.69627 0.99205 0.87471 0.0
C199 C 0.65812 0.989 0.87478 0.0
C200 C 0.71014 0.99371 0.78408 0.0
C201 C 0.69629 0.96133 0.92398 0.0
C202 C 0.72205 0.97497 0.98859 0.0
C203 C 0.72418 0.95158 0.04776 0.0
C204 C 0.69782 0.91408 0.04464 0.0
C205 C 0.6688 0.90036 0.98483 0.0
C206 C 0.66983 0.92396 0.92034 0.0
H207 H 0.7343 0.64715 0.87836 0.0
H208 H 0.80271 0.68786 0.10056 0.0
H209 H 0.78949 0.7384 0.11032 0.0
H210 H 0.75284 0.74324 0.79746 0.0
H211 H 0.70594 0.72218 0.76142 0.0
H212 H 0.73044 0.69729 0.75632 0.0
H213 H 0.67853 0.64483 0.84221 0.0
H214 H 0.65433 0.66958 0.84932 0.0
H215 H 0.66648 0.65458 0.94451 0.0
H216 H 0.75148 0.76975 0.1244 0.0
H217 H 0.70055 0.78357 0.12662 0.0
H218 H 0.66165 0.72783 0.8874 0.0
C219 C 0.74914 0.66863 0.92425 0.0
C220 C 0.77046 0.66407 0.98705 0.0
C221 C 0.78753 0.69151 0.04968 0.0
C222 C 0.77951 0.72005 0.05666 0.0
C223 C 0.75542 0.72175 0.99843 0.0
C224 C 0.7417 0.69756 0.93106 0.0
C225 C 0.71274 0.70191 0.88351 0.0
C226 C 0.7263 0.71707 0.79438 0.0
C227 C 0.67589 0.6656 0.87983 0.0
C228 C 0.71008 0.72997 0.93842 0.0
C229 C 0.7351 0.74154 1.00414 0.0
C230 C 0.73303 0.76233 0.07093 0.0
C231 C 0.7042 0.77045 0.07162 0.0
C232 C 0.67805 0.75808 1.00558 0.0
C233 C 0.68231 0.73908 0.93675 0.0
H234 H 0.09187 0.73995 0.88436 0.0
H235 H 0.10454 0.80031 0.1139 0.0
H236 H 0.03927 0.78284 0.10851 0.0
H237 H 0.01241 0.7541 0.78859 0.0
H238 H 0.99172 0.70871 0.74462 0.0
H239 H 0.04103 0.73662 0.75028 0.0
H240 H 0.0435 0.68475 0.83163 0.0
H241 H 0.99455 0.65717 0.82877 0.0
H242 H 0.01817 0.66809 0.929 0.0
H243 H 0.96997 0.74074 0.10608 0.0
H244 H 0.90709 0.68704 0.09199 0.0
H245 H 0.93948 0.65852 0.85727 0.0
C246 C 0.08167 0.75229 0.92876 0.0
C247 C 0.10354 0.77211 0.99844 0.0
C248 C 0.08868 0.78611 0.05836 0.0
C249 C 0.05123 0.77565 0.05666 0.0
C250 C 0.02923 0.75249 0.99221 0.0
C251 C 0.04436 0.74239 0.92691 0.0
C252 C 0.01452 0.71356 0.8715 0.0
C253 C 0.01495 0.72919 0.78352 0.0
C254 C 0.01791 0.67889 0.86503 0.0
C255 C 0.98059 0.70645 0.92036 0.0
C256 C 0.98923 0.72945 0.98913 0.0
C257 C 0.96268 0.72363 0.05037 0.0
C258 C 0.9269 0.69314 0.04198 0.0
C259 C 0.91825 0.66885 0.97314 0.0
C260 C 0.94512 0.67693 0.91009 0.0
H261 H 0.26255 0.9343 0.15559 0.0
H262 H 0.23153 0.90629 0.8941 0.0
H263 H 0.25013 0.97059 0.86313 0.0
H264 H 0.2384 0.01262 0.16556 0.0
H265 H 0.27695 0.03816 0.23508 0.0
H266 H 0.25142 0.98893 0.24047 0.0
H267 H 0.31163 0.98731 0.21816 0.0
H268 H 0.33714 0.03612 0.21213 0.0
H269 H 0.33942 0.00922 0.12635 0.0
H270 H 0.29034 0.03942 0.85316 0.0
H271 H 0.34166 0.10304 0.86983 0.0
H272 H 0.33997 0.08694 0.13981 0.0
C273 C 0.25715 0.94134 0.09344 0.0
C274 C 0.24439 0.91515 0.02802 0.0
C275 C 0.23974 0.92561 0.94592 0.0
C276 C 0.25069 0.96228 0.92759 0.0
C277 C 0.26527 0.98806 0.99263 0.0
C278 C 0.26722 0.9777 0.07479 0.0
C279 C 0.28798 0.0108 0.13126 0.0
C280 C 0.26214 0.01274 0.19699 0.0
C281 C 0.32098 0.01085 0.17433 0.0
C282 C 0.30019 0.04135 0.06701 0.0
C283 C 0.28651 0.02795 0.98734 0.0
C284 C 0.29978 0.05048 0.91581 0.0
C285 C 0.32869 0.08685 0.92565 0.0
C286 C 0.34373 0.10033 0.00646 0.0
C287 C 0.32768 0.07779 0.07789 0.0
H288 H 0.14608 0.64287 0.0226 0.0
H289 H 0.26373 0.71603 0.02264 0.0
H290 H 0.27311 0.66231 0.02834 0.0
H291 H 0.14489 0.58221 0.17614 0.0
H292 H 0.10757 0.54258 0.12665 0.0
H293 H 0.11128 0.58666 0.11422 0.0
H294 H 0.11142 0.58102 0.95064 0.0
H295 H 0.10625 0.53638 0.96264 0.0
H296 H 0.14383 0.57068 0.90154 0.0
H297 H 0.2665 0.5961 0.02552 0.0
H298 H 0.24492 0.5297 0.01076 0.0
H299 H 0.13299 0.50555 0.04561 0.0
C300 C 0.17403 0.648 0.02327 0.0
C301 C 0.20427 0.68387 0.02069 0.0
C302 C 0.24019 0.68885 0.02182 0.0
C303 C 0.24565 0.65843 0.02658 0.0
C304 C 0.21483 0.62338 0.03221 0.0
C305 C 0.1798 0.6185 0.03088 0.0
C306 C 0.1507 0.57898 0.03906 0.0
C307 C 0.12725 0.57225 0.11879 0.0
C308 C 0.12666 0.566 0.95874 0.0
C309 C 0.1745 0.56181 0.04657 0.0
C310 C 0.21147 0.5873 0.04038 0.0
C311 C 0.23768 0.57618 0.03273 0.0
C312 C 0.22535 0.53835 0.02601 0.0
C313 C 0.18734 0.51245 0.02869 0.0
C314 C 0.16231 0.52461 0.04559 0.0
H315 H 0.55422 0.23566 0.88536 0.0
H316 H 0.52219 0.21324 0.14793 0.0
H317 H 0.58345 0.22276 0.18501 0.0
H318 H 0.59729 0.18906 0.8682 0.0
H319 H 0.63482 0.22042 0.80209 0.0
H320 H 0.5927 0.22129 0.8018 0.0
H321 H 0.62856 0.29008 0.8404 0.0
H322 H 0.67105 0.28925 0.84295 0.0
H323 H 0.65686 0.30491 0.93381 0.0
H324 H 0.63978 0.21777 0.18645 0.0
H325 H 0.68416 0.19772 0.15011 0.0
H326 H 0.68402 0.2292 0.89044 0.0
C327 C 0.56094 0.2344 0.95094 0.0
C328 C 0.53406 0.22419 0.01404 0.0
C329 C 0.54292 0.22165 0.09912 0.0
C330 C 0.57768 0.22718 0.12076 0.0
C331 C 0.60357 0.23614 0.05678 0.0
C332 C 0.59584 0.24048 0.97371 0.0
C333 C 0.62651 0.24554 0.9154 0.0
C334 C 0.61195 0.21738 0.84276 0.0
C335 C 0.64698 0.28479 0.88109 0.0
C336 C 0.65047 0.23906 0.97672 0.0
C337 C 0.63757 0.23502 0.05873 0.0
C338 C 0.65119 0.22241 0.12337 0.0
C339 C 0.67676 0.21142 0.10264 0.0
C340 C 0.68814 0.21306 0.01814 0.0
C341 C 0.67679 0.22934 0.95612 0.0
H342 H 0.48487 0.6416 0.12486 0.0
H343 H 0.4764 0.7075 0.92786 0.0
H344 H 0.40934 0.66498 0.91886 0.0
H345 H 0.43756 0.56523 0.02448 0.0
H346 H 0.4151 0.53568 0.11328 0.0
H347 H 0.45784 0.57708 0.12848 0.0
H348 H 0.42904 0.59935 0.24167 0.0
H349 H 0.3862 0.55715 0.2296 0.0
H350 H 0.38756 0.60027 0.21773 0.0
H351 H 0.34628 0.60586 0.90635 0.0
H352 H 0.29647 0.54076 0.89769 0.0
H353 H 0.35017 0.51349 0.09522 0.0
C354 C 0.46831 0.64848 0.08466 0.0
C355 C 0.48531 0.67876 0.03019 0.0
C356 C 0.46342 0.68572 0.97373 0.0
C357 C 0.42535 0.66114 0.96717 0.0
C358 C 0.40978 0.62967 0.01736 0.0
C359 C 0.43078 0.62376 0.07616 0.0
C360 C 0.41053 0.58531 0.11067 0.0
C361 C 0.4315 0.56466 0.09308 0.0
C362 C 0.40285 0.58554 0.20556 0.0
C363 C 0.37562 0.56976 0.05951 0.0
C364 C 0.37486 0.59561 0.00727 0.0
C365 C 0.34635 0.58577 0.9487 0.0
C366 C 0.31829 0.54876 0.94363 0.0
C367 C 0.31963 0.52209 0.99532 0.0
C368 C 0.3484 0.53318 0.05449 0.0
H369 H 0.7952 0.45465 0.90578 0.0
H370 H 0.81808 0.49567 0.16212 0.0
H371 H 0.80165 0.43389 0.21343 0.0
H372 H 0.72089 0.35587 0.95672 0.0
H373 H 0.73826 0.33872 0.87516 0.0
H374 H 0.74057 0.38226 0.86213 0.0
H375 H 0.81056 0.4128 0.83699 0.0
H376 H 0.8089 0.36985 0.85153 0.0
H377 H 0.83909 0.40851 0.91617 0.0
H378 H 0.79772 0.37314 0.23129 0.0
H379 H 0.80212 0.31743 0.21771 0.0
H380 H 0.78346 0.31561 0.94745 0.0
C381 C 0.7943 0.4499 0.97331 0.0
C382 C 0.80667 0.47948 0.03055 0.0
C383 C 0.80729 0.47305 0.11791 0.0
C384 C 0.79841 0.43809 0.1472 0.0
C385 C 0.78889 0.41004 0.08815 0.0
C386 C 0.78605 0.41542 1.00295 0.0
C387 C 0.78087 0.3829 0.95091 0.0
C388 C 0.74287 0.36379 0.9087 0.0
C389 C 0.81169 0.39422 0.8851 0.0
C390 C 0.78333 0.35915 0.01939 0.0
C391 C 0.78729 0.37503 0.09821 0.0
C392 C 0.79374 0.36012 0.17022 0.0
C393 C 0.7965 0.32855 0.1616 0.0
C394 C 0.79309 0.31203 0.08142 0.0
C395 C 0.78559 0.3272 0.00969 0.0
H396 H 0.35445 0.82839 0.13858 0.0
H397 H 0.30063 0.7724 0.90812 0.0
H398 H 0.34411 0.74924 0.89451 0.0
H399 H 0.43843 0.86313 0.06751 0.0
H400 H 0.4603 0.86 0.16273 0.0
H401 H 0.41896 0.86234 0.16957 0.0
H402 H 0.38693 0.8018 0.25428 0.0
H403 H 0.42868 0.79966 0.25006 0.0
H404 H 0.38618 0.7617 0.21265 0.0
H405 H 0.40282 0.74494 0.88913 0.0
H406 H 0.46717 0.75747 0.89786 0.0
H407 H 0.48176 0.81689 0.13124 0.0
C408 C 0.35022 0.809 0.08891 0.0
C409 C 0.32316 0.80066 0.02675 0.0
C410 C 0.32007 0.77757 0.95863 0.0
C411 C 0.34501 0.7647 0.94993 0.0
C412 C 0.37296 0.77531 0.00985 0.0
C413 C 0.37512 0.7964 0.07914 0.0
C414 C 0.41047 0.80902 0.12762 0.0
C415 C 0.43335 0.85108 0.132 0.0
C416 C 0.40259 0.79202 0.21642 0.0
C417 C 0.42878 0.79349 0.07269 0.0
C418 C 0.40673 0.77352 1.00577 0.0
C419 C 0.41983 0.75966 0.94272 0.0
C420 C 0.45635 0.76672 0.94815 0.0
C421 C 0.47928 0.78776 0.01561 0.0
C422 C 0.46482 0.80053 0.07903 0.0
H423 H 0.66105 0.47903 0.12905 0.0
H424 H 0.71355 0.45566 0.92203 0.0
H425 H 0.66254 0.39103 0.92169 0.0
H426 H 0.61983 0.38602 0.23324 0.0
H427 H 0.57966 0.38835 0.26288 0.0
H428 H 0.62382 0.42953 0.25787 0.0
H429 H 0.5975 0.45826 0.1537 0.0
H430 H 0.55351 0.41768 0.1599 0.0
H431 H 0.57503 0.43388 0.05833 0.0
H432 H 0.59925 0.33315 0.9265 0.0
H433 H 0.53196 0.29251 0.92789 0.0
H434 H 0.52295 0.35376 0.13574 0.0
C435 C 0.66225 0.46018 0.08448 0.0
C436 C 0.69085 0.47236 0.0246 0.0
C437 C 0.69174 0.44683 0.96818 0.0
C438 C 0.66298 0.41009 0.96807 0.0
C439 C 0.63433 0.39931 0.02648 0.0
C440 C 0.63429 0.42378 0.08441 0.0
C441 C 0.599 0.40744 0.13444 0.0
C442 C 0.60601 0.40255 0.22764 0.0
C443 C 0.58017 0.43066 0.12593 0.0
C444 C 0.57751 0.37086 0.09094 0.0
C445 C 0.59864 0.36591 0.03084 0.0
C446 C 0.58295 0.33626 0.97522 0.0
C447 C 0.54465 0.31279 0.97739 0.0
C448 C 0.52254 0.31923 0.03439 0.0
C449 C 0.53952 0.3473 0.09461 0.0
H450 H 0.25292 0.43278 0.67617 0.0
H451 H 0.1383 0.40343 0.69256 0.0
H452 H 0.13183 0.39539 0.53913 0.0
H453 H 0.27548 0.4827 0.49236 0.0
H454 H 0.3026 0.46533 0.44441 0.0
H455 H 0.29828 0.46502 0.55763 0.0
H456 H 0.27377 0.39527 0.56094 0.0
H457 H 0.27862 0.39544 0.44763 0.0
H458 H 0.23494 0.36537 0.49612 0.0
H459 H 0.13928 0.40011 0.3847 0.0
H460 H 0.15813 0.40623 0.23488 0.0
H461 H 0.26613 0.42771 0.31433 0.0
C462 C 0.22631 0.42351 0.64742 0.0
C463 C 0.19633 0.41936 0.69601 0.0
C464 C 0.16185 0.40736 0.65621 0.0
C465 C 0.15776 0.40264 0.56902 0.0
C466 C 0.18809 0.40888 0.52197 0.0
C467 C 0.22139 0.4178 0.55936 0.0
C468 C 0.24932 0.42294 0.49227 0.0
C469 C 0.28342 0.46129 0.49699 0.0
C470 C 0.25979 0.39298 0.49968 0.0
C471 C 0.22711 0.41805 0.41244 0.0
C472 C 0.19179 0.40969 0.43125 0.0
C473 C 0.16666 0.40583 0.36863 0.0
C474 C 0.17767 0.4097 0.28381 0.0
C475 C 0.21343 0.41722 0.26268 0.0
C476 C 0.23842 0.4216 0.32823 0.0
H477 H 0.7892 0.1621 0.69549 0.0
H478 H 0.77253 0.25424 0.73367 0.0
H479 H 0.76756 0.25947 0.5788 0.0
H480 H 0.84384 0.19694 0.49644 0.0
H481 H 0.82371 0.15146 0.4532 0.0
H482 H 0.82952 0.15828 0.56579 0.0
H483 H 0.76004 0.11233 0.58457 0.0
H484 H 0.75369 0.10676 0.4718 0.0
H485 H 0.72693 0.12106 0.53295 0.0
H486 H 0.75591 0.24883 0.42113 0.0
H487 H 0.75571 0.23451 0.26936 0.0
H488 H 0.78331 0.15144 0.33394 0.0
C489 C 0.78651 0.18457 0.67072 0.0
C490 C 0.78247 0.20858 0.72585 0.0
C491 C 0.77709 0.23654 0.69194 0.0
C492 C 0.77347 0.23919 0.60428 0.0
C493 C 0.77558 0.21377 0.55173 0.0
C494 C 0.78334 0.18786 0.58342 0.0
C495 C 0.78423 0.16377 0.51358 0.0
C496 C 0.82261 0.16788 0.50682 0.0
C497 C 0.75445 0.12361 0.52658 0.0
C498 C 0.77553 0.17999 0.43767 0.0
C499 C 0.76975 0.20823 0.46118 0.0
C500 C 0.76066 0.22693 0.40199 0.0
C501 C 0.75981 0.2181 0.31604 0.0
C502 C 0.76866 0.1913 0.29033 0.0
C503 C 0.77547 0.17132 0.35221 0.0
H504 H 0.57465 0.80407 0.71255 0.0
H505 H 0.60982 0.72309 0.71372 0.0
H506 H 0.61134 0.72355 0.55989 0.0
H507 H 0.51752 0.77136 0.52922 0.0
H508 H 0.53109 0.81569 0.4852 0.0
H509 H 0.5331 0.81046 0.59782 0.0
H510 H 0.60195 0.86005 0.59864 0.0
H511 H 0.60001 0.8657 0.48612 0.0
H512 H 0.63331 0.85516 0.52954 0.0
H513 H 0.60486 0.72786 0.40593 0.0
H514 H 0.59891 0.74338 0.25822 0.0
H515 H 0.57224 0.82432 0.34969 0.0
C516 C 0.58318 0.78691 0.68042 0.0
C517 C 0.59136 0.76304 0.72661 0.0
C518 C 0.60254 0.74114 0.68113 0.0
C519 C 0.60363 0.74112 0.59301 0.0
C520 C 0.59421 0.7637 0.54944 0.0
C521 C 0.58499 0.78686 0.59097 0.0
C522 C 0.57699 0.80885 0.52682 0.0
C523 C 0.53732 0.80112 0.5353 0.0
C524 C 0.60472 0.84988 0.53582 0.0
C525 C 0.58251 0.79373 0.44399 0.0
C526 C 0.59216 0.76749 0.45889 0.0
C527 C 0.59771 0.74871 0.39309 0.0
C528 C 0.59404 0.7575 0.30934 0.0
C529 C 0.58531 0.78512 0.29199 0.0
C530 C 0.57923 0.80321 0.36065 0.0
H531 H 0.79712 0.52251 0.66983 0.0
H532 H 0.80615 0.62563 0.74291 0.0
H533 H 0.80827 0.64209 0.5919 0.0
H534 H 0.85614 0.55309 0.49514 0.0
H535 H 0.82884 0.51401 0.42874 0.0
H536 H 0.82625 0.50911 0.54209 0.0
H537 H 0.75581 0.48277 0.53782 0.0
H538 H 0.75803 0.48641 0.42425 0.0
H539 H 0.73753 0.5079 0.48418 0.0
H540 H 0.81543 0.64961 0.43531 0.0
H541 H 0.81197 0.6423 0.28032 0.0
H542 H 0.79439 0.53258 0.3068 0.0
C543 C 0.79851 0.5481 0.65372 0.0
C544 C 0.80119 0.57278 0.71752 0.0
C545 C 0.80337 0.60616 0.69474 0.0
C546 C 0.80517 0.61591 0.60931 0.0
C547 C 0.80409 0.59163 0.54796 0.0
C548 C 0.79952 0.55788 0.56886 0.0
C549 C 0.79768 0.5363 0.49045 0.0
C550 C 0.82911 0.52763 0.48909 0.0
C551 C 0.76002 0.50128 0.48376 0.0
C552 C 0.80263 0.56349 0.42198 0.0
C553 C 0.80693 0.59545 0.45699 0.0
C554 C 0.81193 0.6247 0.40722 0.0
C555 C 0.81046 0.62049 0.31937 0.0
C556 C 0.80377 0.58724 0.28208 0.0
C557 C 0.80073 0.55866 0.33383 0.0
H558 H 0.18207 0.74374 0.36172 0.0
H559 H 0.25635 0.85358 0.27164 0.0
H560 H 0.27044 0.87513 0.41973 0.0
H561 H 0.14612 0.76776 0.53991 0.0
H562 H 0.1447 0.73311 0.6089 0.0
H563 H 0.1403 0.72576 0.49622 0.0
H564 H 0.19518 0.71408 0.49644 0.0
H565 H 0.19946 0.72088 0.60927 0.0
H566 H 0.23834 0.74776 0.54183 0.0
H567 H 0.27311 0.8855 0.5746 0.0
H568 H 0.27306 0.88396 0.72889 0.0
H569 H 0.20015 0.76622 0.72476 0.0
C570 C 0.20155 0.77231 0.37315 0.0
C571 C 0.21811 0.79709 0.3048 0.0
C572 C 0.24357 0.83412 0.32259 0.0
C573 C 0.25146 0.84661 0.40655 0.0
C574 C 0.23406 0.82164 0.47211 0.0
C575 C 0.21021 0.78513 0.45668 0.0
C576 C 0.19624 0.76393 0.53921 0.0
C577 C 0.15435 0.74661 0.54645 0.0
C578 C 0.20801 0.73495 0.54715 0.0
C579 C 0.21586 0.79435 0.60378 0.0
C580 C 0.23702 0.82737 0.56286 0.0
C581 C 0.25713 0.85975 0.6072 0.0
C582 C 0.25682 0.85842 0.69544 0.0
C583 C 0.23707 0.82483 0.74013 0.0
C584 C 0.21553 0.79232 0.69319 0.0
H585 H 0.44171 0.28164 0.66278 0.0
H586 H 0.42474 0.17706 0.75251 0.0
H587 H 0.42109 0.15678 0.60467 0.0
H588 H 0.37987 0.24625 0.48381 0.0
H589 H 0.40834 0.28406 0.41536 0.0
H590 H 0.40969 0.29084 0.52812 0.0
H591 H 0.47998 0.31666 0.52806 0.0
H592 H 0.47891 0.31009 0.4153 0.0
H593 H 0.49825 0.28979 0.48336 0.0
H594 H 0.41913 0.14753 0.44987 0.0
H595 H 0.42079 0.14934 0.29566 0.0
H596 H 0.43931 0.26022 0.29926 0.0
C597 C 0.4373 0.25445 0.65163 0.0
C598 C 0.43357 0.23096 0.7202 0.0
C599 C 0.42774 0.19563 0.70191 0.0
C600 C 0.42555 0.18384 0.61791 0.0
C601 C 0.42916 0.20759 0.55239 0.0
C602 C 0.43499 0.24218 0.56794 0.0
C603 C 0.43813 0.26221 0.48525 0.0
C604 C 0.40716 0.27139 0.47771 0.0
C605 C 0.47608 0.29673 0.47756 0.0
C606 C 0.43342 0.23348 0.42055 0.0
C607 C 0.42815 0.20225 0.46155 0.0
C608 C 0.42337 0.17186 0.41723 0.0
C609 C 0.42453 0.17337 0.32899 0.0
C610 C 0.43059 0.20512 0.2841 0.0
C611 C 0.43455 0.23553 0.33101 0.0
loop_
_geom_bond_atom_site_label_1
_geom_bond_atom_site_label_2
_geom_bond_distance
_geom_bond_site_symmetry_2
_ccdc_geom_bond_type
O0 Mn1 2.163 1_556 S
O0 C14 1.244 . S
Mn1 O0 2.163 1_554 S
Mn1 O4 2.160 . S
Mn1 O5 2.221 . S
Mn1 O7 2.163 . S
Mn1 O9 2.160 . S
Mn1 O19 2.221 1_554 S
O2 Mn3 2.087 . S
O2 C14 1.256 . S
Mn3 O2 2.087 . S
Mn3 O10 2.089 . S
Mn3 O19 2.290 . S
Mn3 O20 2.251 . S
O4 Mn1 2.160 . S
O4 C15 1.239 . S
O5 Mn1 2.221 . S
O5 Mn6 2.290 . S
O5 C16 1.278 1_554 S
Mn6 O5 2.290 . S
Mn6 O8 2.089 . S
Mn6 O11 2.251 . S
Mn6 O12 2.087 . S
O7 Mn1 2.163 . S
O7 C17 1.244 . S
O8 Mn6 2.089 . S
O8 C15 1.256 . S
O9 Mn1 2.160 . S
O9 C18 1.239 1_554 S
O10 Mn3 2.089 . S
O10 C18 1.256 . S
O11 Mn6 2.251 . S
O11 C16 1.241 1_554 S
O12 Mn6 2.087 . S
O12 C17 1.256 . S
C13 O19 1.278 . S
C13 O20 1.241 . S
C14 O0 1.244 . S
C14 O2 1.256 . S
C15 O4 1.239 . S
C15 O8 1.256 . S
C16 O5 1.278 1_556 S
C16 O11 1.241 1_556 S
C17 O7 1.244 . S
C17 O12 1.256 . S
C18 O9 1.239 1_556 S
C18 O10 1.256 . S
O19 Mn1 2.221 1_556 S
O19 Mn3 2.290 . S
O19 C13 1.278 . S
O20 Mn3 2.251 . S
O20 C13 1.241 . S
O21 Mn22 2.163 1_556 S
O21 C35 1.244 . S
Mn22 O21 2.163 1_554 S
Mn22 O25 2.160 . S
Mn22 O26 2.221 . S
Mn22 O28 2.163 . S
Mn22 O30 2.160 . S
Mn22 O40 2.221 1_554 S
O23 Mn24 2.087 . S
O23 C35 1.256 . S
Mn24 O23 2.087 . S
Mn24 O31 2.089 . S
Mn24 O40 2.290 . S
Mn24 O41 2.251 . S
O25 Mn22 2.160 . S
O25 C36 1.239 . S
O26 Mn22 2.221 . S
O26 Mn27 2.290 . S
O26 C37 1.278 1_554 S
Mn27 O26 2.290 . S
Mn27 O29 2.089 . S
Mn27 O32 2.251 . S
Mn27 O33 2.087 . S
O28 Mn22 2.163 . S
O28 C38 1.244 . S
O29 Mn27 2.089 . S
O29 C36 1.256 . S
O30 Mn22 2.160 . S
O30 C39 1.239 1_554 S
O31 Mn24 2.089 . S
O31 C39 1.256 . S
O32 Mn27 2.251 . S
O32 C37 1.241 1_554 S
O33 Mn27 2.087 . S
O33 C38 1.256 . S
C34 O40 1.278 . S
C34 O41 1.241 . S
C35 O21 1.244 . S
C35 O23 1.256 . S
C36 O25 1.239 . S
C36 O29 1.256 . S
C37 O26 1.278 1_556 S
C37 O32 1.241 1_556 S
C38 O28 1.244 . S
C38 O33 1.256 . S
C39 O30 1.239 1_556 S
C39 O31 1.256 . S
O40 Mn22 2.221 1_556 S
O40 Mn24 2.290 . S
O40 C34 1.278 . S
O41 Mn24 2.251 . S
O41 C34 1.241 . S
O42 Mn43 2.163 1_556 S
O42 C56 1.244 . S
Mn43 O42 2.163 1_554 S
Mn43 O46 2.160 . S
Mn43 O47 2.221 . S
Mn43 O49 2.163 . S
Mn43 O51 2.160 . S
Mn43 O61 2.221 1_554 S
O44 Mn45 2.087 . S
O44 C56 1.256 . S
Mn45 O44 2.087 . S
Mn45 O52 2.089 . S
Mn45 O61 2.290 . S
Mn45 O62 2.251 . S
O46 Mn43 2.160 . S
O46 C57 1.239 . S
O47 Mn43 2.221 . S
O47 Mn48 2.290 . S
O47 C58 1.278 1_554 S
Mn48 O47 2.290 . S
Mn48 O50 2.089 . S
Mn48 O53 2.251 . S
Mn48 O54 2.087 . S
O49 Mn43 2.163 . S
O49 C59 1.244 . S
O50 Mn48 2.089 . S
O50 C57 1.256 . S
O51 Mn43 2.160 . S
O51 C60 1.239 1_554 S
O52 Mn45 2.089 . S
O52 C60 1.256 . S
O53 Mn48 2.251 . S
O53 C58 1.241 1_554 S
O54 Mn48 2.087 . S
O54 C59 1.256 . S
C55 O61 1.278 . S
C55 O62 1.241 . S
C56 O42 1.244 . S
C56 O44 1.256 . S
C57 O46 1.239 . S
C57 O50 1.256 . S
C58 O47 1.278 1_556 S
C58 O53 1.241 1_556 S
C59 O49 1.244 . S
C59 O54 1.256 . S
C60 O51 1.239 1_556 S
C60 O52 1.256 . S
O61 Mn43 2.221 1_556 S
O61 Mn45 2.290 . S
O61 C55 1.278 . S
O62 Mn45 2.251 . S
O62 C55 1.241 . S
O63 Mn64 2.163 1_556 S
O63 C77 1.244 . S
Mn64 O63 2.163 1_554 S
Mn64 O67 2.160 . S
Mn64 O68 2.221 . S
Mn64 O70 2.163 . S
Mn64 O72 2.160 . S
Mn64 O82 2.221 1_554 S
O65 Mn66 2.087 . S
O65 C77 1.256 . S
Mn66 O65 2.087 . S
Mn66 O73 2.089 . S
Mn66 O82 2.290 . S
Mn66 O83 2.251 . S
O67 Mn64 2.160 . S
O67 C78 1.239 . S
O68 Mn64 2.221 . S
O68 Mn69 2.290 . S
O68 C79 1.278 1_554 S
Mn69 O68 2.290 . S
Mn69 O71 2.089 . S
Mn69 O74 2.251 . S
Mn69 O75 2.087 . S
O70 Mn64 2.163 . S
O70 C80 1.244 . S
O71 Mn69 2.089 . S
O71 C78 1.256 . S
O72 Mn64 2.160 . S
O72 C81 1.239 1_554 S
O73 Mn66 2.089 . S
O73 C81 1.256 . S
O74 Mn69 2.251 . S
O74 C79 1.241 1_554 S
O75 Mn69 2.087 . S
O75 C80 1.256 . S
C76 O82 1.278 . S
C76 O83 1.241 . S
C77 O63 1.244 . S
C77 O65 1.256 . S
C78 O67 1.239 . S
C78 O71 1.256 . S
C79 O68 1.278 1_556 S
C79 O74 1.241 1_556 S
C80 O70 1.244 . S
C80 O75 1.256 . S
C81 O72 1.239 1_556 S
C81 O73 1.256 . S
O82 Mn64 2.221 1_556 S
O82 Mn66 2.290 . S
O82 C76 1.278 . S
O83 Mn66 2.251 . S
O83 C76 1.241 . S
O84 Mn85 2.163 1_556 S
O84 C98 1.244 . S
Mn85 O84 2.163 1_554 S
Mn85 O88 2.160 . S
Mn85 O89 2.221 . S
Mn85 O91 2.163 . S
Mn85 O93 2.160 . S
Mn85 O103 2.221 1_554 S
O86 Mn87 2.087 . S
O86 C98 1.256 . S
Mn87 O86 2.087 . S
Mn87 O94 2.089 . S
Mn87 O103 2.290 . S
Mn87 O104 2.251 . S
O88 Mn85 2.160 . S
O88 C99 1.239 . S
O89 Mn85 2.221 . S
O89 Mn90 2.290 . S
O89 C100 1.278 1_554 S
Mn90 O89 2.290 . S
Mn90 O92 2.089 . S
Mn90 O95 2.251 . S
Mn90 O96 2.087 . S
O91 Mn85 2.163 . S
O91 C101 1.244 . S
O92 Mn90 2.089 . S
O92 C99 1.256 . S
O93 Mn85 2.160 . S
O93 C102 1.239 1_554 S
O94 Mn87 2.089 . S
O94 C102 1.256 . S
O95 Mn90 2.251 . S
O95 C100 1.241 1_554 S
O96 Mn90 2.087 . S
O96 C101 1.256 . S
C97 O103 1.278 . S
C97 O104 1.241 . S
C98 O84 1.244 . S
C98 O86 1.256 . S
C99 O88 1.239 . S
C99 O92 1.256 . S
C100 O89 1.278 1_556 S
C100 O95 1.241 1_556 S
C101 O91 1.244 . S
C101 O96 1.256 . S
C102 O93 1.239 1_556 S
C102 O94 1.256 . S
O103 Mn85 2.221 1_556 S
O103 Mn87 2.290 . S
O103 C97 1.278 . S
O104 Mn87 2.251 . S
O104 C97 1.241 . S
O105 Mn106 2.163 1_556 S
O105 C119 1.244 . S
Mn106 O105 2.163 1_554 S
Mn106 O109 2.160 . S
Mn106 O110 2.221 . S
Mn106 O112 2.163 . S
Mn106 O114 2.160 . S
Mn106 O124 2.221 1_554 S
O107 Mn108 2.087 . S
O107 C119 1.256 . S
Mn108 O107 2.087 . S
Mn108 O115 2.089 . S
Mn108 O124 2.290 . S
Mn108 O125 2.251 . S
O109 Mn106 2.160 . S
O109 C120 1.239 . S
O110 Mn106 2.221 . S
O110 Mn111 2.290 . S
O110 C121 1.278 1_554 S
Mn111 O110 2.290 . S
Mn111 O113 2.089 . S
Mn111 O116 2.251 . S
Mn111 O117 2.087 . S
O112 Mn106 2.163 . S
O112 C122 1.244 . S
O113 Mn111 2.089 . S
O113 C120 1.256 . S
O114 Mn106 2.160 . S
O114 C123 1.239 1_554 S
O115 Mn108 2.089 . S
O115 C123 1.256 . S
O116 Mn111 2.251 . S
O116 C121 1.241 1_554 S
O117 Mn111 2.087 . S
O117 C122 1.256 . S
C118 O124 1.278 . S
C118 O125 1.241 . S
C119 O105 1.244 . S
C119 O107 1.256 . S
C120 O109 1.239 . S
C120 O113 1.256 . S
C121 O110 1.278 1_556 S
C121 O116 1.241 1_556 S
C122 O112 1.244 . S
C122 O117 1.256 . S
C123 O114 1.239 1_556 S
C123 O115 1.256 . S
O124 Mn106 2.221 1_556 S
O124 Mn108 2.290 . S
O124 C118 1.278 . S
O125 Mn108 2.251 . S
O125 C118 1.241 . S
H126 C138 0.930 . S
H127 C140 0.930 . S
H128 C141 0.930 . S
H129 C145 0.959 . S
H130 C145 0.959 . S
H131 C145 0.961 . S
H132 C146 0.960 . S
H133 C146 0.961 . S
H134 C146 0.959 . S
H135 C149 0.929 . S
H136 C150 0.931 . S
H137 C152 0.930 . S
C138 H126 0.930 . S
C138 C139 1.399 . S
C138 C143 1.399 . S
C139 C138 1.399 . S
C139 C140 1.376 1_556 S
C140 H127 0.930 . S
C140 C139 1.376 1_554 S
C140 C141 1.388 . S
C141 H128 0.930 . S
C141 C140 1.388 . S
C141 C142 1.390 . S
C142 C141 1.390 . S
C142 C143 1.394 1_554 S
C142 C148 1.465 . S
C143 C138 1.399 . S
C143 C142 1.394 1_556 S
C143 C144 1.516 . S
C144 C143 1.516 . S
C144 C145 1.502 . S
C144 C146 1.561 . S
C144 C147 1.526 . S
C145 H129 0.959 . S
C145 H130 0.959 . S
C145 H131 0.961 . S
C145 C144 1.502 . S
C146 H132 0.960 . S
C146 H133 0.961 . S
C146 H134 0.959 . S
C146 C144 1.561 . S
C147 C144 1.526 . S
C147 C148 1.396 1_556 S
C147 C152 1.390 . S
C148 C142 1.465 . S
C148 C147 1.396 1_554 S
C148 C149 1.399 . S
C149 H135 0.929 . S
C149 C148 1.399 . S
C149 C150 1.385 . S
C150 H136 0.931 . S
C150 C149 1.385 . S
C150 C151 1.389 1_554 S
C151 C150 1.389 1_556 S
C151 C152 1.387 . S
C152 H137 0.930 . S
C152 C147 1.390 . S
C152 C151 1.387 . S
H153 C165 0.930 . S
H154 C167 0.930 . S
H155 C168 0.930 . S
H156 C172 0.959 . S
H157 C172 0.959 . S
H158 C172 0.961 1_455 S
H159 C173 0.960 1_455 S
H160 C173 0.961 . S
H161 C173 0.959 . S
H162 C176 0.929 . S
H163 C177 0.931 . S
H164 C179 0.930 . S
C165 H153 0.930 . S
C165 C166 1.399 1_554 S
C165 C170 1.399 . S
C166 C165 1.399 1_556 S
C166 C167 1.376 . S
C167 H154 0.930 . S
C167 C166 1.376 . S
C167 C168 1.388 . S
C168 H155 0.930 . S
C168 C167 1.388 . S
C168 C169 1.390 . S
C169 C168 1.390 . S
C169 C170 1.394 1_556 S
C169 C175 1.465 1_455 S
C170 C165 1.399 . S
C170 C169 1.394 1_554 S
C170 C171 1.516 1_455 S
C171 C170 1.516 1_655 S
C171 C172 1.502 . S
C171 C173 1.561 . S
C171 C174 1.526 . S
C172 H156 0.959 . S
C172 H157 0.959 . S
C172 H158 0.961 1_655 S
C172 C171 1.502 . S
C173 H159 0.960 1_655 S
C173 H160 0.961 . S
C173 H161 0.959 . S
C173 C171 1.561 . S
C174 C171 1.526 . S
C174 C175 1.396 1_554 S
C174 C179 1.390 . S
C175 C169 1.465 1_655 S
C175 C174 1.396 1_556 S
C175 C176 1.399 . S
C176 H162 0.929 . S
C176 C175 1.399 . S
C176 C177 1.385 . S
C177 H163 0.931 . S
C177 C176 1.385 . S
C177 C178 1.389 . S
C178 C177 1.389 . S
C178 C179 1.387 1_556 S
C179 H164 0.930 . S
C179 C174 1.390 . S
C179 C178 1.387 1_554 S
H180 C192 0.930 . S
H181 C194 0.930 . S
H182 C195 0.930 . S
H183 C199 0.959 . S
H184 C199 0.959 . S
H185 C199 0.961 1_545 S
H186 C200 0.960 1_545 S
H187 C200 0.961 . S
H188 C200 0.959 . S
H189 C203 0.929 . S
H190 C204 0.931 . S
H191 C206 0.930 . S
C192 H180 0.930 . S
C192 C193 1.399 . S
C192 C197 1.399 . S
C193 C192 1.399 . S
C193 C194 1.376 1_556 S
C194 H181 0.930 . S
C194 C193 1.376 1_554 S
C194 C195 1.388 . S
C195 H182 0.930 . S
C195 C194 1.388 . S
C195 C196 1.390 . S
C196 C195 1.390 . S
C196 C197 1.394 1_554 S
C196 C202 1.465 1_545 S
C197 C192 1.399 . S
C197 C196 1.394 1_556 S
C197 C198 1.516 1_545 S
C198 C197 1.516 1_565 S
C198 C199 1.502 . S
C198 C200 1.561 . S
C198 C201 1.526 . S
C199 H183 0.959 . S
C199 H184 0.959 . S
C199 H185 0.961 1_565 S
C199 C198 1.502 . S
C200 H186 0.960 1_565 S
C200 H187 0.961 . S
C200 H188 0.959 . S
C200 C198 1.561 . S
C201 C198 1.526 . S
C201 C202 1.396 1_556 S
C201 C206 1.390 . S
C202 C196 1.465 1_565 S
C202 C201 1.396 1_554 S
C202 C203 1.399 . S
C203 H189 0.929 . S
C203 C202 1.399 . S
C203 C204 1.385 . S
C204 H190 0.931 . S
C204 C203 1.385 . S
C204 C205 1.389 1_554 S
C205 C204 1.389 1_556 S
C205 C206 1.387 . S
C206 H191 0.930 . S
C206 C201 1.390 . S
C206 C205 1.387 . S
H207 C219 0.930 . S
H208 C221 0.930 . S
H209 C222 0.930 . S
H210 C226 0.959 . S
H211 C226 0.959 . S
H212 C226 0.961 . S
H213 C227 0.960 . S
H214 C227 0.961 . S
H215 C227 0.959 . S
H216 C230 0.929 . S
H217 C231 0.931 . S
H218 C233 0.930 . S
C219 H207 0.930 . S
C219 C220 1.399 . S
C219 C224 1.399 . S
C220 C219 1.399 . S
C220 C221 1.376 1_556 S
C221 H208 0.930 . S
C221 C220 1.376 1_554 S
C221 C222 1.388 . S
C222 H209 0.930 . S
C222 C221 1.388 . S
C222 C223 1.390 . S
C223 C222 1.390 . S
C223 C224 1.394 1_554 S
C223 C229 1.465 . S
C224 C219 1.399 . S
C224 C223 1.394 1_556 S
C224 C225 1.516 . S
C225 C224 1.516 . S
C225 C226 1.502 . S
C225 C227 1.561 . S
C225 C228 1.526 . S
C226 H210 0.959 . S
C226 H211 0.959 . S
C226 H212 0.961 . S
C226 C225 1.502 . S
C227 H213 0.960 . S
C227 H214 0.961 . S
C227 H215 0.959 . S
C227 C225 1.561 . S
C228 C225 1.526 . S
C228 C229 1.396 1_556 S
C228 C233 1.390 . S
C229 C223 1.465 . S
C229 C228 1.396 1_554 S
C229 C230 1.399 . S
C230 H216 0.929 . S
C230 C229 1.399 . S
C230 C231 1.385 . S
C231 H217 0.931 . S
C231 C230 1.385 . S
C231 C232 1.389 1_554 S
C232 C231 1.389 1_556 S
C232 C233 1.387 . S
C233 H218 0.930 . S
C233 C228 1.390 . S
C233 C232 1.387 . S
H234 C246 0.930 . S
H235 C248 0.930 . S
H236 C249 0.930 . S
H237 C253 0.959 . S
H238 C253 0.959 1_655 S
H239 C253 0.961 . S
H240 C254 0.960 . S
H241 C254 0.961 1_655 S
H242 C254 0.959 . S
H243 C257 0.929 . S
H244 C258 0.931 . S
H245 C260 0.930 . S
C246 H234 0.930 . S
C246 C247 1.399 . S
C246 C251 1.399 . S
C247 C246 1.399 . S
C247 C248 1.376 1_556 S
C248 H235 0.930 . S
C248 C247 1.376 1_554 S
C248 C249 1.388 . S
C249 H236 0.930 . S
C249 C248 1.388 . S
C249 C250 1.390 . S
C250 C249 1.390 . S
C250 C251 1.394 1_554 S
C250 C256 1.465 1_455 S
C251 C246 1.399 . S
C251 C250 1.394 1_556 S
C251 C252 1.516 . S
C252 C251 1.516 . S
C252 C253 1.502 . S
C252 C254 1.561 . S
C252 C255 1.526 1_455 S
C253 H237 0.959 . S
C253 H238 0.959 1_455 S
C253 H239 0.961 . S
C253 C252 1.502 . S
C254 H240 0.960 . S
C254 H241 0.961 1_455 S
C254 H242 0.959 . S
C254 C252 1.561 . S
C255 C252 1.526 1_655 S
C255 C256 1.396 1_556 S
C255 C260 1.390 . S
C256 C250 1.465 1_655 S
C256 C255 1.396 1_554 S
C256 C257 1.399 . S
C257 H243 0.929 . S
C257 C256 1.399 . S
C257 C258 1.385 . S
C258 H244 0.931 . S
C258 C257 1.385 . S
C258 C259 1.389 1_554 S
C259 C258 1.389 1_556 S
C259 C260 1.387 . S
C260 H245 0.930 . S
C260 C255 1.390 . S
C260 C259 1.387 . S
H261 C273 0.930 . S
H262 C275 0.930 . S
H263 C276 0.930 . S
H264 C280 0.959 . S
H265 C280 0.959 . S
H266 C280 0.961 1_565 S
H267 C281 0.960 1_565 S
H268 C281 0.961 . S
H269 C281 0.959 . S
H270 C284 0.929 . S
H271 C285 0.931 . S
H272 C287 0.930 . S
C273 H261 0.930 . S
C273 C274 1.399 1_554 S
C273 C278 1.399 . S
C274 C273 1.399 1_556 S
C274 C275 1.376 . S
C275 H262 0.930 . S
C275 C274 1.376 . S
C275 C276 1.388 . S
C276 H263 0.930 . S
C276 C275 1.388 . S
C276 C277 1.390 . S
C277 C276 1.390 . S
C277 C278 1.394 1_556 S
C277 C283 1.465 1_565 S
C278 C273 1.399 . S
C278 C277 1.394 1_554 S
C278 C279 1.516 1_565 S
C279 C278 1.516 1_545 S
C279 C280 1.502 . S
C279 C281 1.561 . S
C279 C282 1.526 . S
C280 H264 0.959 . S
C280 H265 0.959 . S
C280 H266 0.961 1_545 S
C280 C279 1.502 . S
C281 H267 0.960 1_545 S
C281 H268 0.961 . S
C281 H269 0.959 . S
C281 C279 1.561 . S
C282 C279 1.526 . S
C282 C283 1.396 1_554 S
C282 C287 1.390 . S
C283 C277 1.465 1_545 S
C283 C282 1.396 1_556 S
C283 C284 1.399 . S
C284 H270 0.929 . S
C284 C283 1.399 . S
C284 C285 1.385 . S
C285 H271 0.931 . S
C285 C284 1.385 . S
C285 C286 1.389 . S
C286 C285 1.389 . S
C286 C287 1.387 1_556 S
C287 H272 0.930 . S
C287 C282 1.390 . S
C287 C286 1.387 1_554 S
H288 C300 0.930 . S
H289 C302 0.930 . S
H290 C303 0.930 . S
H291 C307 0.959 1_554 S
H292 C307 0.959 . S
H293 C307 0.961 . S
H294 C308 0.960 . S
H295 C308 0.961 . S
H296 C308 0.959 . S
H297 C311 0.929 . S
H298 C312 0.931 . S
H299 C314 0.930 . S
C300 H288 0.930 . S
C300 C301 1.399 1_556 S
C300 C305 1.399 . S
C301 C300 1.399 1_554 S
C301 C302 1.376 . S
C302 H289 0.930 . S
C302 C301 1.376 . S
C302 C303 1.388 . S
C303 H290 0.930 . S
C303 C302 1.388 . S
C303 C304 1.390 . S
C304 C303 1.390 . S
C304 C305 1.394 1_554 S
C304 C310 1.465 . S
C305 C300 1.399 . S
C305 C304 1.394 1_556 S
C305 C306 1.516 . S
C306 C305 1.516 . S
C306 C307 1.502 . S
C306 C308 1.561 . S
C306 C309 1.526 . S
C307 H291 0.959 1_556 S
C307 H292 0.959 . S
C307 H293 0.961 . S
C307 C306 1.502 . S
C308 H294 0.960 . S
C308 H295 0.961 . S
C308 H296 0.959 . S
C308 C306 1.561 . S
C309 C306 1.526 . S
C309 C310 1.396 1_556 S
C309 C314 1.390 . S
C310 C304 1.465 . S
C310 C309 1.396 1_554 S
C310 C311 1.399 . S
C311 H297 0.929 . S
C311 C310 1.399 . S
C311 C312 1.385 . S
C312 H298 0.931 . S
C312 C311 1.385 . S
C312 C313 1.389 . S
C313 C312 1.389 . S
C313 C314 1.387 1_554 S
C314 H299 0.930 . S
C314 C309 1.390 . S
C314 C313 1.387 1_556 S
H315 C327 0.935 . S
H316 C329 0.930 . S
H317 C330 0.930 . S
H318 C334 0.959 . S
H319 C334 0.959 . S
H320 C334 0.961 . S
H321 C335 0.960 . S
H322 C335 0.961 . S
H323 C335 0.959 . S
H324 C338 0.929 . S
H325 C339 0.931 . S
H326 C341 0.930 . S
C327 H315 0.935 . S
C327 C328 1.395 1_556 S
C327 C332 1.398 1_556 S
C328 C327 1.395 1_554 S
C328 C329 1.376 . S
C329 H316 0.930 . S
C329 C328 1.376 . S
C329 C330 1.388 . S
C330 H317 0.930 . S
C330 C329 1.388 . S
C330 C331 1.390 . S
C331 C330 1.390 . S
C331 C332 1.394 . S
C331 C337 1.465 . S
C332 C327 1.398 1_554 S
C332 C331 1.394 . S
C332 C333 1.516 1_554 S
C333 C332 1.516 1_556 S
C333 C334 1.502 . S
C333 C335 1.561 1_556 S
C333 C336 1.526 . S
C334 H318 0.959 . S
C334 H319 0.959 . S
C334 H320 0.961 . S
C334 C333 1.502 . S
C335 H321 0.960 . S
C335 H322 0.961 . S
C335 H323 0.959 . S
C335 C333 1.561 1_554 S
C336 C333 1.526 . S
C336 C337 1.395 1_556 S
C336 C341 1.390 . S
C337 C331 1.465 . S
C337 C336 1.395 1_554 S
C337 C338 1.399 . S
C338 H324 0.929 . S
C338 C337 1.399 . S
C338 C339 1.385 . S
C339 H325 0.931 . S
C339 C338 1.385 . S
C339 C340 1.389 . S
C340 C339 1.389 . S
C340 C341 1.387 1_554 S
C341 H326 0.930 . S
C341 C336 1.390 . S
C341 C340 1.387 1_556 S
H342 C354 0.930 . S
H343 C356 0.930 . S
H344 C357 0.930 . S
H345 C361 0.959 . S
H346 C361 0.959 . S
H347 C361 0.961 . S
H348 C362 0.960 . S
H349 C362 0.961 . S
H350 C362 0.959 . S
H351 C365 0.929 . S
H352 C366 0.931 . S
H353 C368 0.930 . S
C354 H342 0.930 . S
C354 C355 1.399 . S
C354 C359 1.399 . S
C355 C354 1.399 . S
C355 C356 1.376 1_554 S
C356 H343 0.930 . S
C356 C355 1.376 1_556 S
C356 C357 1.388 . S
C357 H344 0.930 . S
C357 C356 1.388 . S
C357 C358 1.390 . S
C358 C357 1.390 . S
C358 C359 1.394 1_556 S
C358 C364 1.465 . S
C359 C354 1.399 . S
C359 C358 1.394 1_554 S
C359 C360 1.516 . S
C360 C359 1.516 . S
C360 C361 1.502 . S
C360 C362 1.561 . S
C360 C363 1.526 . S
C361 H345 0.959 . S
C361 H346 0.959 . S
C361 H347 0.961 . S
C361 C360 1.502 . S
C362 H348 0.960 . S
C362 H349 0.961 . S
C362 H350 0.959 . S
C362 C360 1.561 . S
C363 C360 1.526 . S
C363 C364 1.396 1_554 S
C363 C368 1.390 . S
C364 C358 1.465 . S
C364 C363 1.396 1_556 S
C364 C365 1.399 . S
C365 H351 0.929 . S
C365 C364 1.399 . S
C365 C366 1.385 . S
C366 H352 0.931 . S
C366 C365 1.385 . S
C366 C367 1.389 1_556 S
C367 C366 1.389 1_554 S
C367 C368 1.387 . S
C368 H353 0.930 . S
C368 C363 1.390 . S
C368 C367 1.387 . S
H369 C381 0.930 . S
H370 C383 0.930 . S
H371 C384 0.930 . S
H372 C388 0.959 . S
H373 C388 0.959 . S
H374 C388 0.961 . S
H375 C389 0.960 . S
H376 C389 0.961 . S
H377 C389 0.959 . S
H378 C392 0.929 . S
H379 C393 0.931 . S
H380 C395 0.930 . S
C381 H369 0.930 . S
C381 C382 1.399 1_556 S
C381 C386 1.399 . S
C382 C381 1.399 1_554 S
C382 C383 1.376 . S
C383 H370 0.930 . S
C383 C382 1.376 . S
C383 C384 1.388 . S
C384 H371 0.930 . S
C384 C383 1.388 . S
C384 C385 1.390 . S
C385 C384 1.390 . S
C385 C386 1.394 1_554 S
C385 C391 1.465 . S
C386 C381 1.399 . S
C386 C385 1.394 1_556 S
C386 C387 1.516 . S
C387 C386 1.516 . S
C387 C388 1.502 . S
C387 C389 1.561 . S
C387 C390 1.526 . S
C388 H372 0.959 . S
C388 H373 0.959 . S
C388 H374 0.961 . S
C388 C387 1.502 . S
C389 H375 0.960 . S
C389 H376 0.961 . S
C389 H377 0.959 . S
C389 C387 1.561 . S
C390 C387 1.526 . S
C390 C391 1.396 1_556 S
C390 C395 1.390 . S
C391 C385 1.465 . S
C391 C390 1.396 1_554 S
C391 C392 1.399 . S
C392 H378 0.929 . S
C392 C391 1.399 . S
C392 C393 1.385 . S
C393 H379 0.931 . S
C393 C392 1.385 . S
C393 C394 1.389 . S
C394 C393 1.389 . S
C394 C395 1.387 1_554 S
C395 H380 0.930 . S
C395 C390 1.390 . S
C395 C394 1.387 1_556 S
H396 C408 0.930 . S
H397 C410 0.930 . S
H398 C411 0.930 . S
H399 C415 0.959 . S
H400 C415 0.959 . S
H401 C415 0.961 . S
H402 C416 0.960 . S
H403 C416 0.961 . S
H404 C416 0.959 . S
H405 C419 0.929 . S
H406 C420 0.931 . S
H407 C422 0.930 . S
C408 H396 0.930 . S
C408 C409 1.399 1_554 S
C408 C413 1.399 . S
C409 C408 1.399 1_556 S
C409 C410 1.376 . S
C410 H397 0.930 . S
C410 C409 1.376 . S
C410 C411 1.388 . S
C411 H398 0.930 . S
C411 C410 1.388 . S
C411 C412 1.390 . S
C412 C411 1.390 . S
C412 C413 1.394 1_556 S
C412 C418 1.465 . S
C413 C408 1.399 . S
C413 C412 1.394 1_554 S
C413 C414 1.516 . S
C414 C413 1.516 . S
C414 C415 1.502 . S
C414 C416 1.561 . S
C414 C417 1.526 . S
C415 H399 0.959 . S
C415 H400 0.959 . S
C415 H401 0.961 . S
C415 C414 1.502 . S
C416 H402 0.960 . S
C416 H403 0.961 . S
C416 H404 0.959 . S
C416 C414 1.561 . S
C417 C414 1.526 . S
C417 C418 1.396 1_554 S
C417 C422 1.390 . S
C418 C412 1.465 . S
C418 C417 1.396 1_556 S
C418 C419 1.399 . S
C419 H405 0.929 . S
C419 C418 1.399 . S
C419 C420 1.385 . S
C420 H406 0.931 . S
C420 C419 1.385 . S
C420 C421 1.389 1_556 S
C421 C420 1.389 1_554 S
C421 C422 1.387 . S
C422 H407 0.930 . S
C422 C417 1.390 . S
C422 C421 1.387 . S
H423 C435 0.930 . S
H424 C437 0.930 . S
H425 C438 0.930 . S
H426 C442 0.959 . S
H427 C442 0.959 . S
H428 C442 0.961 . S
H429 C443 0.960 . S
H430 C443 0.961 . S
H431 C443 0.959 . S
H432 C446 0.929 . S
H433 C447 0.931 . S
H434 C449 0.930 . S
C435 H423 0.930 . S
C435 C436 1.399 . S
C435 C440 1.399 . S
C436 C435 1.399 . S
C436 C437 1.376 1_554 S
C437 H424 0.930 . S
C437 C436 1.376 1_556 S
C437 C438 1.388 . S
C438 H425 0.930 . S
C438 C437 1.388 . S
C438 C439 1.390 . S
C439 C438 1.390 . S
C439 C440 1.394 1_556 S
C439 C445 1.465 . S
C440 C435 1.399 . S
C440 C439 1.394 1_554 S
C440 C441 1.516 . S
C441 C440 1.516 . S
C441 C442 1.502 . S
C441 C443 1.561 . S
C441 C444 1.526 . S
C442 H426 0.959 . S
C442 H427 0.959 . S
C442 H428 0.961 . S
C442 C441 1.502 . S
C443 H429 0.960 . S
C443 H430 0.961 . S
C443 H431 0.959 . S
C443 C441 1.561 . S
C444 C441 1.526 . S
C444 C445 1.396 1_554 S
C444 C449 1.390 . S
C445 C439 1.465 . S
C445 C444 1.396 1_556 S
C445 C446 1.399 . S
C446 H432 0.929 . S
C446 C445 1.399 . S
C446 C447 1.385 . S
C447 H433 0.931 . S
C447 C446 1.385 . S
C447 C448 1.389 . S
C448 C447 1.389 . S
C448 C449 1.387 1_556 S
C449 H434 0.930 . S
C449 C444 1.390 . S
C449 C448 1.387 1_554 S
H450 C462 0.930 . S
H451 C464 0.930 . S
H452 C465 0.930 . S
H453 C469 0.959 . S
H454 C469 0.959 . S
H455 C469 0.961 . S
H456 C470 0.960 . S
H457 C470 0.961 . S
H458 C470 0.959 . S
H459 C473 0.929 . S
H460 C474 0.931 . S
H461 C476 0.930 . S
C462 H450 0.930 . S
C462 C463 1.399 . S
C462 C467 1.399 . S
C463 C462 1.399 . S
C463 C464 1.376 . S
C464 H451 0.930 . S
C464 C463 1.376 . S
C464 C465 1.388 . S
C465 H452 0.930 . S
C465 C464 1.388 . S
C465 C466 1.390 . S
C466 C465 1.390 . S
C466 C467 1.394 . S
C466 C472 1.465 . S
C467 C462 1.399 . S
C467 C466 1.394 . S
C467 C468 1.516 . S
C468 C467 1.516 . S
C468 C469 1.502 . S
C468 C470 1.561 . S
C468 C471 1.526 . S
C469 H453 0.959 . S
C469 H454 0.959 . S
C469 H455 0.961 . S
C469 C468 1.502 . S
C470 H456 0.960 . S
C470 H457 0.961 . S
C470 H458 0.959 . S
C470 C468 1.561 . S
C471 C468 1.526 . S
C471 C472 1.396 . S
C471 C476 1.390 . S
C472 C466 1.465 . S
C472 C471 1.396 . S
C472 C473 1.399 . S
C473 H459 0.929 . S
C473 C472 1.399 . S
C473 C474 1.385 . S
C474 H460 0.931 . S
C474 C473 1.385 . S
C474 C475 1.389 . S
C475 C474 1.389 . S
C475 C476 1.387 . S
C476 H461 0.930 . S
C476 C471 1.390 . S
C476 C475 1.387 . S
H477 C489 0.930 . S
H478 C491 0.930 . S
H479 C492 0.930 . S
H480 C496 0.959 . S
H481 C496 0.959 . S
H482 C496 0.961 . S
H483 C497 0.960 . S
H484 C497 0.961 . S
H485 C497 0.959 . S
H486 C500 0.929 . S
H487 C501 0.931 . S
H488 C503 0.930 . S
C489 H477 0.930 . S
C489 C490 1.399 . S
C489 C494 1.399 . S
C490 C489 1.399 . S
C490 C491 1.376 . S
C491 H478 0.930 . S
C491 C490 1.376 . S
C491 C492 1.388 . S
C492 H479 0.930 . S
C492 C491 1.388 . S
C492 C493 1.390 . S
C493 C492 1.390 . S
C493 C494 1.394 . S
C493 C499 1.465 . S
C494 C489 1.399 . S
C494 C493 1.394 . S
C494 C495 1.516 . S
C495 C494 1.516 . S
C495 C496 1.502 . S
C495 C497 1.561 . S
C495 C498 1.526 . S
C496 H480 0.959 . S
C496 H481 0.959 . S
C496 H482 0.961 . S
C496 C495 1.502 . S
C497 H483 0.960 . S
C497 H484 0.961 . S
C497 H485 0.959 . S
C497 C495 1.561 . S
C498 C495 1.526 . S
C498 C499 1.396 . S
C498 C503 1.390 . S
C499 C493 1.465 . S
C499 C498 1.396 . S
C499 C500 1.399 . S
C500 H486 0.929 . S
C500 C499 1.399 . S
C500 C501 1.385 . S
C501 H487 0.931 . S
C501 C500 1.385 . S
C501 C502 1.389 . S
C502 C501 1.389 . S
C502 C503 1.387 . S
C503 H488 0.930 . S
C503 C498 1.390 . S
C503 C502 1.387 . S
H504 C516 0.930 . S
H505 C518 0.930 . S
H506 C519 0.930 . S
H507 C523 0.959 . S
H508 C523 0.959 . S
H509 C523 0.961 . S
H510 C524 0.960 . S
H511 C524 0.961 . S
H512 C524 0.959 . S
H513 C527 0.929 . S
H514 C528 0.931 . S
H515 C530 0.930 . S
C516 H504 0.930 . S
C516 C517 1.399 . S
C516 C521 1.399 . S
C517 C516 1.399 . S
C517 C518 1.376 . S
C518 H505 0.930 . S
C518 C517 1.376 . S
C518 C519 1.388 . S
C519 H506 0.930 . S
C519 C518 1.388 . S
C519 C520 1.390 . S
C520 C519 1.390 . S
C520 C521 1.394 . S
C520 C526 1.465 . S
C521 C516 1.399 . S
C521 C520 1.394 . S
C521 C522 1.516 . S
C522 C521 1.516 . S
C522 C523 1.502 . S
C522 C524 1.561 . S
C522 C525 1.526 . S
C523 H507 0.959 . S
C523 H508 0.959 . S
C523 H509 0.961 . S
C523 C522 1.502 . S
C524 H510 0.960 . S
C524 H511 0.961 . S
C524 H512 0.959 . S
C524 C522 1.561 . S
C525 C522 1.526 . S
C525 C526 1.396 . S
C525 C530 1.390 . S
C526 C520 1.465 . S
C526 C525 1.396 . S
C526 C527 1.399 . S
C527 H513 0.929 . S
C527 C526 1.399 . S
C527 C528 1.385 . S
C528 H514 0.931 . S
C528 C527 1.385 . S
C528 C529 1.389 . S
C529 C528 1.389 . S
C529 C530 1.387 . S
C530 H515 0.930 . S
C530 C525 1.390 . S
C530 C529 1.387 . S
H531 C543 0.930 . S
H532 C545 0.930 . S
H533 C546 0.930 . S
H534 C550 0.959 . S
H535 C550 0.959 . S
H536 C550 0.961 . S
H537 C551 0.960 . S
H538 C551 0.961 . S
H539 C551 0.959 . S
H540 C554 0.929 . S
H541 C555 0.931 . S
H542 C557 0.930 . S
C543 H531 0.930 . S
C543 C544 1.399 . S
C543 C548 1.399 . S
C544 C543 1.399 . S
C544 C545 1.376 . S
C545 H532 0.930 . S
C545 C544 1.376 . S
C545 C546 1.388 . S
C546 H533 0.930 . S
C546 C545 1.388 . S
C546 C547 1.390 . S
C547 C546 1.390 . S
C547 C548 1.394 . S
C547 C553 1.465 . S
C548 C543 1.399 . S
C548 C547 1.394 . S
C548 C549 1.516 . S
C549 C548 1.516 . S
C549 C550 1.502 . S
C549 C551 1.561 . S
C549 C552 1.526 . S
C550 H534 0.959 . S
C550 H535 0.959 . S
C550 H536 0.961 . S
C550 C549 1.502 . S
C551 H537 0.960 . S
C551 H538 0.961 . S
C551 H539 0.959 . S
C551 C549 1.561 . S
C552 C549 1.526 . S
C552 C553 1.396 . S
C552 C557 1.390 . S
C553 C547 1.465 . S
C553 C552 1.396 . S
C553 C554 1.399 . S
C554 H540 0.929 . S
C554 C553 1.399 . S
C554 C555 1.385 . S
C555 H541 0.931 . S
C555 C554 1.385 . S
C555 C556 1.389 . S
C556 C555 1.389 . S
C556 C557 1.387 . S
C557 H542 0.930 . S
C557 C552 1.390 . S
C557 C556 1.387 . S
H558 C570 0.930 . S
H559 C572 0.930 . S
H560 C573 0.930 . S
H561 C577 0.959 . S
H562 C577 0.959 . S
H563 C577 0.961 . S
H564 C578 0.960 . S
H565 C578 0.961 . S
H566 C578 0.959 . S
H567 C581 0.929 . S
H568 C582 0.931 . S
H569 C584 0.930 . S
C570 H558 0.930 . S
C570 C571 1.399 . S
C570 C575 1.399 . S
C571 C570 1.399 . S
C571 C572 1.376 . S
C572 H559 0.930 . S
C572 C571 1.376 . S
C572 C573 1.388 . S
C573 H560 0.930 . S
C573 C572 1.388 . S
C573 C574 1.390 . S
C574 C573 1.390 . S
C574 C575 1.394 . S
C574 C580 1.465 . S
C575 C570 1.399 . S
C575 C574 1.394 . S
C575 C576 1.516 . S
C576 C575 1.516 . S
C576 C577 1.502 . S
C576 C578 1.561 . S
C576 C579 1.526 . S
C577 H561 0.959 . S
C577 H562 0.959 . S
C577 H563 0.961 . S
C577 C576 1.502 . S
C578 H564 0.960 . S
C578 H565 0.961 . S
C578 H566 0.959 . S
C578 C576 1.561 . S
C579 C576 1.526 . S
C579 C580 1.396 . S
C579 C584 1.390 . S
C580 C574 1.465 . S
C580 C579 1.396 . S
C580 C581 1.399 . S
C581 H567 0.929 . S
C581 C580 1.399 . S
C581 C582 1.385 . S
C582 H568 0.931 . S
C582 C581 1.385 . S
C582 C583 1.389 . S
C583 C582 1.389 . S
C583 C584 1.387 . S
C584 H569 0.930 . S
C584 C579 1.390 . S
C584 C583 1.387 . S
H585 C597 0.930 . S
H586 C599 0.930 . S
H587 C600 0.930 . S
H588 C604 0.959 . S
H589 C604 0.959 . S
H590 C604 0.961 . S
H591 C605 0.960 . S
H592 C605 0.961 . S
H593 C605 0.959 . S
H594 C608 0.929 . S
H595 C609 0.931 . S
H596 C611 0.930 . S
C597 H585 0.930 . S
C597 C598 1.399 . S
C597 C602 1.399 . S
C598 C597 1.399 . S
C598 C599 1.376 . S
C599 H586 0.930 . S
C599 C598 1.376 . S
C599 C600 1.388 . S
C600 H587 0.930 . S
C600 C599 1.388 . S
C600 C601 1.390 . S
C601 C600 1.390 . S
C601 C602 1.394 . S
C601 C607 1.465 . S
C602 C597 1.399 . S
C602 C601 1.394 . S
C602 C603 1.516 . S
C603 C602 1.516 . S
C603 C604 1.502 . S
C603 C605 1.561 . S
C603 C606 1.526 . S
C604 H588 0.959 . S
C604 H589 0.959 . S
C604 H590 0.961 . S
C604 C603 1.502 . S
C605 H591 0.960 . S
C605 H592 0.961 . S
C605 H593 0.959 . S
C605 C603 1.561 . S
C606 C603 1.526 . S
C606 C607 1.396 . S
C606 C611 1.390 . S
C607 C601 1.465 . S
C607 C606 1.396 . S
C607 C608 1.399 . S
C608 H594 0.929 . S
C608 C607 1.399 . S
C608 C609 1.385 . S
C609 H595 0.931 . S
C609 C608 1.385 . S
C609 C610 1.389 . S
C610 C609 1.389 . S
C610 C611 1.387 . S
C611 H596 0.930 . S
C611 C606 1.390 . S
C611 C610 1.387 . S
C139 C123 1.355 . S
C151 C16 1.093 . S
C166 C18 1.243 . S
C178 C37 1.118 . S
C193 C39 1.354 . S
C205 C58 1.091 . S
C220 C79 1.005 . S
C232 C60 1.296 . S
C247 C100 1.005 . S
C259 C81 1.293 . S
C274 C102 1.255 . S
C286 C121 1.151 . S
C301 C101 1.556 . S
C313 C13 1.451 1_554 S
C328 C122 1.521 . S
C340 C34 1.390 1_554 S
C355 C55 1.423 1_554 S
C367 C17 1.553 . S
C382 C76 1.407 1_554 S
C394 C38 1.527 . S
C409 C97 1.381 . S
C421 C59 1.541 . S
C436 C80 1.519 . S
C448 C118 1.335 . S
C463 C14 1.433 . S
C475 C15 1.520 . S
C490 C35 1.441 . S
C502 C36 1.481 . S
C517 C56 1.446 . S
C529 C57 1.516 . S
C544 C77 1.510 . S
C556 C78 1.447 . S
C571 C99 1.521 . S
C583 C98 1.433 . S
C598 C119 1.482 . S
C610 C120 1.450 . S
