# Generated by pormake.
# Topology uot, (4)-cn, num edge types: 1
# Building blocks:
#     Node 0, Type 0, BuildingBlock: UXUYUI_clean_sbu_0, # of connection points: 4
#     Node 1, Type 0, BuildingBlock: UXUYUI_clean_sbu_0, # of connection points: 4
#     Node 2, Type 0, BuildingBlock: UXUYUI_clean_sbu_0, # of connection points: 4
#     Node 3, Type 0, BuildingBlock: UXUYUI_clean_sbu_0, # of connection points: 4
#     Node 4, Type 0, BuildingBlock: UXUYUI_clean_sbu_0, # of connection points: 4
#     Node 5, Type 0, BuildingBlock: UXUYUI_clean_sbu_0, # of connection points: 4
#     Node 6, Type 0, BuildingBlock: UXUYUI_clean_sbu_0, # of connection points: 4
#     Node 7, Type 0, BuildingBlock: UXUYUI_clean_sbu_0, # of connection points: 4
#     Node 8, Type 0, BuildingBlock: UXUYUI_clean_sbu_0, # of connection points: 4
#     Node 9, Type 0, BuildingBlock: UXUYUI_clean_sbu_0, # of connection points: 4
#     Node 10, Type 0, BuildingBlock: UXUYUI_clean_sbu_0, # of connection points: 4
#     Node 11, Type 0, BuildingBlock: UXUYUI_clean_sbu_0, # of connection points: 4
#     Node 12, Type 0, BuildingBlock: UXUYUI_clean_sbu_0, # of connection points: 4
#     Node 13, Type 0, BuildingBlock: UXUYUI_clean_sbu_0, # of connection points: 4
#     Node 14, Type 0, BuildingBlock: UXUYUI_clean_sbu_0, # of connection points: 4
#     Node 15, Type 0, BuildingBlock: UXUYUI_clean_sbu_0, # of connection points: 4
#     Edge 16, Type (0, 0), BuildingBlock: XIVTED_clean_linker_0, # of connection points: 2
#     Edge 17, Type (0, 0), BuildingBlock: XIVTED_clean_linker_0, # of connection points: 2
#     Edge 18, Type (0, 0), BuildingBlock: XIVTED_clean_linker_0, # of connection points: 2
#     Edge 19, Type (0, 0), BuildingBlock: XIVTED_clean_linker_0, # of connection points: 2
#     Edge 20, Type (0, 0), BuildingBlock: XIVTED_clean_linker_0, # of connection points: 2
#     Edge 21, Type (0, 0), BuildingBlock: XIVTED_clean_linker_0, # of connection points: 2
#     Edge 22, Type (0, 0), BuildingBlock: XIVTED_clean_linker_0, # of connection points: 2
#     Edge 23, Type (0, 0), BuildingBlock: XIVTED_clean_linker_0, # of connection points: 2
#     Edge 24, Type (0, 0), BuildingBlock: XIVTED_clean_linker_0, # of connection points: 2
#     Edge 25, Type (0, 0), BuildingBlock: XIVTED_clean_linker_0, # of connection points: 2
#     Edge 26, Type (0, 0), BuildingBlock: XIVTED_clean_linker_0, # of connection points: 2
#     Edge 27, Type (0, 0), BuildingBlock: XIVTED_clean_linker_0, # of connection points: 2
#     Edge 28, Type (0, 0), BuildingBlock: XIVTED_clean_linker_0, # of connection points: 2
#     Edge 29, Type (0, 0), BuildingBlock: XIVTED_clean_linker_0, # of connection points: 2
#     Edge 30, Type (0, 0), BuildingBlock: XIVTED_clean_linker_0, # of connection points: 2
#     Edge 31, Type (0, 0), BuildingBlock: XIVTED_clean_linker_0, # of connection points: 2
#     Edge 32, Type (0, 0), BuildingBlock: XIVTED_clean_linker_0, # of connection points: 2
#     Edge 33, Type (0, 0), BuildingBlock: XIVTED_clean_linker_0, # of connection points: 2
#     Edge 34, Type (0, 0), BuildingBlock: XIVTED_clean_linker_0, # of connection points: 2
#     Edge 35, Type (0, 0), BuildingBlock: XIVTED_clean_linker_0, # of connection points: 2
#     Edge 36, Type (0, 0), BuildingBlock: XIVTED_clean_linker_0, # of connection points: 2
#     Edge 37, Type (0, 0), BuildingBlock: XIVTED_clean_linker_0, # of connection points: 2
#     Edge 38, Type (0, 0), BuildingBlock: XIVTED_clean_linker_0, # of connection points: 2
#     Edge 39, Type (0, 0), BuildingBlock: XIVTED_clean_linker_0, # of connection points: 2
#     Edge 40, Type (0, 0), BuildingBlock: XIVTED_clean_linker_0, # of connection points: 2
#     Edge 41, Type (0, 0), BuildingBlock: XIVTED_clean_linker_0, # of connection points: 2
#     Edge 42, Type (0, 0), BuildingBlock: XIVTED_clean_linker_0, # of connection points: 2
#     Edge 43, Type (0, 0), BuildingBlock: XIVTED_clean_linker_0, # of connection points: 2
#     Edge 44, Type (0, 0), BuildingBlock: XIVTED_clean_linker_0, # of connection points: 2
#     Edge 45, Type (0, 0), BuildingBlock: XIVTED_clean_linker_0, # of connection points: 2
#     Edge 46, Type (0, 0), BuildingBlock: XIVTED_clean_linker_0, # of connection points: 2
#     Edge 47, Type (0, 0), BuildingBlock: XIVTED_clean_linker_0, # of connection points: 2
# Relax obj value: 0.272
# Max RMSD: 0.247
# Mean RMSD: 0.247
data_MOF--net-uot--node1-UXUYUI_clean_sbu_0--edge1-XIVTED_clean_linker_0
_symmetry_space_group_name_H-M    P1
_symmetry_Int_Tables_number       1
_symmetry_cell_setting            triclinic
loop_
_symmetry_equiv_pos_as_xyz
'x, y, z'
_cell_length_a     63.538405
_cell_length_b     63.335671
_cell_length_c     59.194578
_cell_angle_alpha  90.01044
_cell_angle_beta   90.00971
_cell_angle_gamma 90.016323
loop_
_atom_site_label
_atom_site_type_symbol
_atom_site_fract_x
_atom_site_fract_y
_atom_site_fract_z
_atom_type_partial_charge
Li0 Li 0.21703 0.48071 0.3042 0.0
Li1 Li 0.22295 0.46549 0.34193 0.0
Li2 Li 0.24388 0.45296 0.30815 0.0
Li3 Li 0.20702 0.44298 0.31304 0.0
C4 C 0.25467 0.49942 0.32034 0.0
N5 N 0.27779 0.53612 0.31564 0.0
C6 C 0.25496 0.51438 0.3377 0.0
C7 C 0.26642 0.50297 0.30075 0.0
C8 C 0.26666 0.53288 0.33496 0.0
C9 C 0.27793 0.52166 0.29865 0.0
C10 C 0.18088 0.47693 0.34057 0.0
C11 C 0.15659 0.47104 0.37126 0.0
N12 N 0.15107 0.49178 0.37065 0.0
C13 C 0.17476 0.49813 0.34007 0.0
C14 C 0.17154 0.46322 0.35612 0.0
C15 C 0.15974 0.50535 0.35547 0.0
C16 C 0.19697 0.50313 0.26931 0.0
N17 N 0.20828 0.50549 0.28865 0.0
C18 C 0.203 0.54282 0.28788 0.0
C19 C 0.21156 0.52485 0.29791 0.0
C20 C 0.19072 0.54085 0.26825 0.0
C21 C 0.18809 0.5207 0.25871 0.0
H22 H 0.19423 0.4875 0.26256 0.0
H23 H 0.21998 0.5263 0.31365 0.0
C24 C 0.2335 0.45836 0.38774 0.0
N25 N 0.22399 0.47204 0.3733 0.0
C26 C 0.23418 0.4627 0.41087 0.0
C27 C 0.21552 0.49527 0.40378 0.0
C28 C 0.21542 0.4904 0.3808 0.0
C29 C 0.22495 0.48132 0.41924 0.0
H30 H 0.24065 0.4441 0.38128 0.0
H31 H 0.20854 0.50134 0.36893 0.0
C32 C 0.22815 0.45254 0.26412 0.0
N33 N 0.24319 0.448 0.22059 0.0
C34 C 0.22519 0.43357 0.25247 0.0
C35 C 0.23841 0.46932 0.25348 0.0
C36 C 0.23302 0.43154 0.23052 0.0
C37 C 0.24599 0.46669 0.23151 0.0
C38 C 0.22758 0.41648 0.34155 0.0
C39 C 0.23884 0.39922 0.33316 0.0
C40 C 0.21268 0.41337 0.35858 0.0
C41 C 0.23463 0.37905 0.34159 0.0
C42 C 0.20892 0.39297 0.36659 0.0
N43 N 0.21986 0.37636 0.35797 0.0
C44 C 0.28861 0.45153 0.30509 0.0
C45 C 0.27022 0.42458 0.28556 0.0
C46 C 0.30791 0.44237 0.29939 0.0
N47 N 0.2703 0.44247 0.2982 0.0
C48 C 0.28908 0.41488 0.27954 0.0
C49 C 0.3083 0.42359 0.28671 0.0
H50 H 0.28824 0.46549 0.31558 0.0
H51 H 0.25545 0.41729 0.281 0.0
C52 C 0.16632 0.42518 0.30967 0.0
N53 N 0.18719 0.4212 0.30706 0.0
C54 C 0.15147 0.40967 0.30451 0.0
C55 C 0.17986 0.38624 0.29406 0.0
C56 C 0.19415 0.40224 0.29932 0.0
C57 C 0.15815 0.38988 0.29648 0.0
H58 H 0.16117 0.44056 0.31529 0.0
H59 H 0.2108 0.39965 0.2969 0.0
O60 O 0.24329 0.48122 0.32278 0.0
O61 O 0.19566 0.46962 0.32568 0.0
O62 O 0.2206 0.45477 0.28564 0.0
O63 O 0.2313 0.43633 0.33331 0.0
H64 H 0.24614 0.5118 0.35308 0.0
H65 H 0.26686 0.49132 0.28742 0.0
H66 H 0.26691 0.54466 0.34819 0.0
H67 H 0.28705 0.52462 0.28355 0.0
H68 H 0.14931 0.46061 0.38344 0.0
H69 H 0.18162 0.50893 0.32803 0.0
H70 H 0.17567 0.44669 0.35641 0.0
H71 H 0.15499 0.52175 0.35537 0.0
H72 H 0.20556 0.55805 0.29574 0.0
H73 H 0.17847 0.51839 0.24381 0.0
H74 H 0.24208 0.45169 0.42198 0.0
H75 H 0.20803 0.50971 0.40934 0.0
H76 H 0.21706 0.4205 0.26035 0.0
H77 H 0.2403 0.48429 0.26198 0.0
H78 H 0.23099 0.41689 0.22138 0.0
H79 H 0.25402 0.47954 0.2231 0.0
H80 H 0.25061 0.40133 0.32019 0.0
H81 H 0.2042 0.42658 0.36565 0.0
H82 H 0.24312 0.36554 0.33512 0.0
H83 H 0.19735 0.39034 0.3797 0.0
H84 H 0.32232 0.44969 0.30523 0.0
H85 H 0.28851 0.40014 0.27029 0.0
H86 H 0.13491 0.41339 0.30617 0.0
H87 H 0.18577 0.37122 0.28806 0.0
Li88 Li 0.44491 0.79381 0.68727 0.0
Li89 Li 0.48005 0.78151 0.69802 0.0
Li90 Li 0.46678 0.77765 0.65921 0.0
Li91 Li 0.45267 0.75587 0.68977 0.0
C92 C 0.48374 0.81474 0.66042 0.0
N93 N 0.50714 0.83437 0.62714 0.0
C94 C 0.50568 0.81549 0.66203 0.0
C95 C 0.47371 0.82405 0.64191 0.0
C96 C 0.51723 0.82549 0.64503 0.0
C97 C 0.48582 0.83386 0.62524 0.0
C98 C 0.45697 0.77941 0.73656 0.0
C99 C 0.47066 0.76616 0.7718 0.0
N100 N 0.46607 0.78493 0.78182 0.0
C101 C 0.45222 0.79851 0.74723 0.0
C102 C 0.46611 0.76304 0.74896 0.0
C103 C 0.45701 0.80102 0.77011 0.0
C104 C 0.40861 0.81052 0.7083 0.0
N105 N 0.42431 0.81483 0.69342 0.0
C106 C 0.41121 0.84976 0.68782 0.0
C107 C 0.42584 0.83394 0.68316 0.0
C108 C 0.39504 0.84603 0.70355 0.0
C109 C 0.39377 0.82599 0.71371 0.0
H110 H 0.40786 0.79517 0.71627 0.0
H111 H 0.4385 0.83696 0.67146 0.0
C112 C 0.52249 0.77772 0.71264 0.0
N113 N 0.50416 0.78848 0.71551 0.0
C114 C 0.54099 0.78493 0.72286 0.0
C115 C 0.52118 0.81359 0.73946 0.0
C116 C 0.50321 0.80611 0.72857 0.0
C117 C 0.54045 0.80321 0.73626 0.0
H118 H 0.52297 0.76416 0.70157 0.0
H119 H 0.48871 0.81493 0.72967 0.0
C120 C 0.41626 0.7756 0.66301 0.0
N121 N 0.37412 0.78594 0.65945 0.0
C122 C 0.40111 0.76385 0.67463 0.0
C123 C 0.40995 0.79258 0.64952 0.0
C124 C 0.37989 0.76931 0.6726 0.0
C125 C 0.38859 0.79758 0.64797 0.0
C126 C 0.4892 0.7366 0.67841 0.0
C127 C 0.4904 0.72496 0.65839 0.0
C128 C 0.49509 0.72725 0.69883 0.0
C129 C 0.49722 0.704 0.6592 0.0
C130 C 0.50182 0.70626 0.69893 0.0
N131 N 0.50272 0.69516 0.67928 0.0
C132 C 0.49521 0.77328 0.62285 0.0
C133 C 0.45988 0.77979 0.61211 0.0
C134 C 0.50138 0.77224 0.60023 0.0
N135 N 0.47476 0.77693 0.62829 0.0
C136 C 0.46537 0.77917 0.58932 0.0
C137 C 0.48635 0.77516 0.58305 0.0
H138 H 0.50668 0.77096 0.63613 0.0
H139 H 0.44374 0.78257 0.6169 0.0
C140 C 0.43147 0.72435 0.71576 0.0
N141 N 0.44101 0.72887 0.69579 0.0
C142 C 0.42008 0.70558 0.71825 0.0
C143 C 0.42951 0.69619 0.67999 0.0
C144 C 0.4403 0.71524 0.67811 0.0
C145 C 0.41859 0.6914 0.7 0.0
H146 H 0.43178 0.73577 0.72933 0.0
H147 H 0.44739 0.71957 0.66219 0.0
O148 O 0.47218 0.80454 0.67661 0.0
O149 O 0.45246 0.77668 0.71416 0.0
O150 O 0.43717 0.77081 0.66521 0.0
O151 O 0.48241 0.75709 0.67798 0.0
H152 H 0.51376 0.80831 0.67613 0.0
H153 H 0.45679 0.82329 0.64013 0.0
H154 H 0.53421 0.82613 0.64604 0.0
H155 H 0.47827 0.84096 0.61073 0.0
H156 H 0.4778 0.75364 0.78159 0.0
H157 H 0.44517 0.81137 0.73788 0.0
H158 H 0.46959 0.74806 0.74105 0.0
H159 H 0.45356 0.81577 0.77855 0.0
H160 H 0.41266 0.86477 0.67922 0.0
H161 H 0.38182 0.82242 0.72617 0.0
H162 H 0.55564 0.77664 0.71986 0.0
H163 H 0.52027 0.82803 0.74922 0.0
H164 H 0.40564 0.75073 0.68524 0.0
H165 H 0.42145 0.80213 0.64075 0.0
H166 H 0.36802 0.76038 0.68156 0.0
H167 H 0.38352 0.81079 0.63775 0.0
H168 H 0.48587 0.73194 0.64244 0.0
H169 H 0.4945 0.73613 0.71441 0.0
H170 H 0.49809 0.69476 0.64386 0.0
H171 H 0.50636 0.6988 0.71463 0.0
H172 H 0.51766 0.7688 0.59631 0.0
H173 H 0.45328 0.78193 0.57679 0.0
H174 H 0.41167 0.70281 0.73387 0.0
H175 H 0.42918 0.68567 0.66558 0.0
Li176 Li 0.75421 0.5446 0.3066 0.0
Li177 Li 0.79075 0.55641 0.30987 0.0
Li178 Li 0.78195 0.51989 0.30015 0.0
Li179 Li 0.77605 0.53343 0.33841 0.0
C180 C 0.78155 0.54024 0.26156 0.0
N181 N 0.79442 0.52705 0.21927 0.0
C182 C 0.80071 0.54725 0.25269 0.0
C183 C 0.76888 0.52663 0.24888 0.0
C184 C 0.80694 0.54039 0.23128 0.0
C185 C 0.7757 0.52009 0.22756 0.0
C186 C 0.76938 0.58314 0.33478 0.0
C187 C 0.78718 0.61179 0.35364 0.0
N188 N 0.77548 0.62585 0.34165 0.0
C189 C 0.75747 0.59787 0.3227 0.0
C190 C 0.78429 0.59013 0.35045 0.0
C191 C 0.7608 0.61939 0.32641 0.0
C192 C 0.71373 0.5595 0.31589 0.0
N193 N 0.72679 0.55391 0.29874 0.0
C194 C 0.70207 0.56621 0.27136 0.0
C195 C 0.72128 0.55676 0.27678 0.0
C196 C 0.68855 0.57289 0.28874 0.0
C197 C 0.6944 0.56897 0.31126 0.0
H198 H 0.71875 0.5574 0.3332 0.0
H199 H 0.7321 0.55241 0.2635 0.0
C200 C 0.82993 0.57767 0.3111 0.0
N201 N 0.80969 0.57899 0.30386 0.0
C202 C 0.84435 0.59349 0.30565 0.0
C203 C 0.81677 0.61186 0.28555 0.0
C204 C 0.80291 0.59562 0.2913 0.0
C205 C 0.83789 0.61083 0.29254 0.0
H206 H 0.83504 0.56405 0.32061 0.0
H207 H 0.7868 0.59606 0.28542 0.0
C208 C 0.73654 0.51018 0.3212 0.0
N209 N 0.69418 0.50077 0.32413 0.0
C210 C 0.72614 0.51164 0.34194 0.0
C211 C 0.72546 0.50381 0.30198 0.0
C212 C 0.70471 0.50683 0.34307 0.0
C213 C 0.70403 0.49917 0.3038 0.0
C214 C 0.81642 0.52189 0.33756 0.0
C215 C 0.82208 0.5006 0.33623 0.0
C216 C 0.82396 0.53426 0.35537 0.0
C217 C 0.8351 0.492 0.35288 0.0
C218 C 0.8369 0.52506 0.37171 0.0
N219 N 0.84215 0.50429 0.37014 0.0
C220 C 0.81087 0.4973 0.27403 0.0
C221 C 0.77958 0.47831 0.28205 0.0
C222 C 0.81918 0.48004 0.26248 0.0
N223 N 0.79143 0.49613 0.28349 0.0
C224 C 0.78737 0.46056 0.27079 0.0
C225 C 0.80748 0.46128 0.26093 0.0
H226 H 0.82009 0.51155 0.27588 0.0
H227 H 0.76427 0.47776 0.28997 0.0
C228 C 0.76921 0.54112 0.38484 0.0
N229 N 0.7758 0.52645 0.36965 0.0
C230 C 0.7687 0.53631 0.40785 0.0
C231 C 0.78186 0.50142 0.39913 0.0
C232 C 0.78165 0.50674 0.37626 0.0
C233 C 0.77529 0.51631 0.41517 0.0
H234 H 0.76423 0.55652 0.37907 0.0
H235 H 0.78615 0.49516 0.36375 0.0
O236 O 0.77534 0.54648 0.28265 0.0
O237 O 0.76663 0.562 0.33112 0.0
O238 O 0.75741 0.51526 0.31965 0.0
O239 O 0.80352 0.53056 0.32155 0.0
H240 H 0.81076 0.5577 0.2623 0.0
H241 H 0.75409 0.52093 0.25556 0.0
H242 H 0.82176 0.5456 0.22424 0.0
H243 H 0.76613 0.50944 0.21762 0.0
H244 H 0.79875 0.61742 0.36562 0.0
H245 H 0.74597 0.59276 0.31039 0.0
H246 H 0.79364 0.57894 0.35992 0.0
H247 H 0.75178 0.63097 0.3171 0.0
H248 H 0.69812 0.56879 0.25378 0.0
H249 H 0.6847 0.57421 0.32521 0.0
H250 H 0.86055 0.59176 0.31102 0.0
H251 H 0.81102 0.62498 0.27558 0.0
H252 H 0.73447 0.5166 0.35697 0.0
H253 H 0.73326 0.5027 0.28578 0.0
H254 H 0.69642 0.50798 0.35898 0.0
H255 H 0.69521 0.49435 0.28904 0.0
H256 H 0.81633 0.49075 0.32264 0.0
H257 H 0.81967 0.55073 0.35671 0.0
H258 H 0.83953 0.47552 0.35212 0.0
H259 H 0.84273 0.53441 0.38566 0.0
H260 H 0.8349 0.48114 0.25549 0.0
H261 H 0.77784 0.4464 0.26992 0.0
H262 H 0.76347 0.54813 0.41982 0.0
H263 H 0.78675 0.48574 0.40421 0.0
Li264 Li 0.55298 0.20563 0.68607 0.0
Li265 Li 0.51824 0.22006 0.69566 0.0
Li266 Li 0.53147 0.22335 0.6575 0.0
Li267 Li 0.54655 0.24314 0.68925 0.0
C268 C 0.51844 0.17789 0.68222 0.0
N269 N 0.50489 0.13974 0.69965 0.0
C270 C 0.5216 0.17314 0.70506 0.0
C271 C 0.50837 0.16321 0.66829 0.0
C272 C 0.51463 0.15378 0.71354 0.0
C273 C 0.50166 0.14401 0.67741 0.0
C274 C 0.55195 0.23241 0.73173 0.0
C275 C 0.54886 0.26107 0.75839 0.0
N276 N 0.56752 0.25533 0.76781 0.0
C277 C 0.57094 0.22661 0.7419 0.0
C278 C 0.54068 0.2496 0.74024 0.0
C279 C 0.5786 0.23846 0.76005 0.0
C280 C 0.59316 0.19125 0.6975 0.0
N281 N 0.57407 0.18439 0.6902 0.0
C282 C 0.58624 0.14868 0.68991 0.0
C283 C 0.5706 0.16362 0.68567 0.0
C284 C 0.60581 0.15518 0.69853 0.0
C285 C 0.60929 0.17686 0.70193 0.0
H286 H 0.5958 0.20795 0.70001 0.0
H287 H 0.55571 0.15849 0.67888 0.0
C288 C 0.47643 0.20681 0.70061 0.0
N289 N 0.49334 0.21403 0.71235 0.0
C290 C 0.45868 0.19942 0.71199 0.0
C291 C 0.476 0.20717 0.7474 0.0
C292 C 0.49339 0.21454 0.73531 0.0
C293 C 0.45848 0.19917 0.73571 0.0
H294 H 0.47709 0.20593 0.68238 0.0
H295 H 0.50722 0.21984 0.74426 0.0
C296 C 0.57419 0.21946 0.64838 0.0
N297 N 0.59946 0.20234 0.61512 0.0
C298 C 0.59252 0.22989 0.64166 0.0
C299 C 0.56871 0.20029 0.63823 0.0
C300 C 0.60509 0.22098 0.6248 0.0
C301 C 0.58169 0.1919 0.62143 0.0
C302 C 0.49748 0.25178 0.6776 0.0
C303 C 0.48317 0.24584 0.66083 0.0
C304 C 0.49052 0.26377 0.69597 0.0
C305 C 0.46205 0.25167 0.66292 0.0
C306 C 0.46928 0.26927 0.69746 0.0
N307 N 0.4556 0.26314 0.68106 0.0
C308 C 0.51135 0.20973 0.61749 0.0
C309 C 0.53456 0.23874 0.61302 0.0
C310 C 0.50656 0.21 0.59448 0.0
N311 N 0.52509 0.224 0.62622 0.0
C312 C 0.5303 0.23953 0.5899 0.0
C313 C 0.51609 0.22505 0.58032 0.0
H314 H 0.50392 0.19833 0.62847 0.0
H315 H 0.5455 0.24983 0.62048 0.0
C316 C 0.58114 0.26754 0.70146 0.0
N317 N 0.56023 0.26872 0.69691 0.0
C318 C 0.59253 0.28577 0.70639 0.0
C319 C 0.56061 0.30615 0.70187 0.0
C320 C 0.5498 0.28745 0.6971 0.0
C321 C 0.58231 0.30545 0.70645 0.0
H322 H 0.589 0.25239 0.70095 0.0
H323 H 0.53317 0.28789 0.69326 0.0
O324 O 0.52465 0.19697 0.67358 0.0
O325 O 0.54436 0.22125 0.71365 0.0
O326 O 0.56183 0.228 0.66495 0.0
O327 O 0.51818 0.24593 0.67601 0.0
H328 H 0.52935 0.18421 0.71618 0.0
H329 H 0.50576 0.16658 0.6506 0.0
H330 H 0.51696 0.14993 0.73116 0.0
H331 H 0.49385 0.13252 0.6668 0.0
H332 H 0.54038 0.27454 0.76496 0.0
H333 H 0.57963 0.21305 0.736 0.0
H334 H 0.52587 0.25415 0.73277 0.0
H335 H 0.59334 0.2342 0.76799 0.0
H336 H 0.58281 0.13216 0.687 0.0
H337 H 0.6243 0.18266 0.70799 0.0
H338 H 0.44571 0.193 0.7023 0.0
H339 H 0.47645 0.20728 0.76569 0.0
H340 H 0.59698 0.24472 0.64941 0.0
H341 H 0.55463 0.19193 0.64325 0.0
H342 H 0.61932 0.22889 0.61941 0.0
H343 H 0.57765 0.17709 0.61343 0.0
H344 H 0.48822 0.23664 0.64647 0.0
H345 H 0.50136 0.26879 0.70896 0.0
H346 H 0.45079 0.24703 0.65013 0.0
H347 H 0.46367 0.27844 0.71166 0.0
H348 H 0.49526 0.19875 0.58794 0.0
H349 H 0.53824 0.25121 0.57961 0.0
H350 H 0.60929 0.28452 0.70941 0.0
H351 H 0.55212 0.32097 0.70186 0.0
Li352 Li 0.20618 0.55484 0.69108 0.0
Li353 Li 0.24344 0.54626 0.69471 0.0
Li354 Li 0.22155 0.53263 0.66225 0.0
Li355 Li 0.21728 0.51791 0.70043 0.0
C356 C 0.22499 0.58251 0.6643 0.0
N357 N 0.21551 0.62391 0.65369 0.0
C358 C 0.23637 0.59901 0.67413 0.0
C359 C 0.20898 0.58704 0.64885 0.0
C360 C 0.2313 0.61984 0.6686 0.0
C361 C 0.20437 0.60808 0.64378 0.0
C362 C 0.22875 0.54431 0.73992 0.0
C363 C 0.24731 0.52709 0.77031 0.0
N364 N 0.24373 0.54413 0.78375 0.0
C365 C 0.22504 0.56155 0.75411 0.0
C366 C 0.23979 0.52685 0.74813 0.0
C367 C 0.23283 0.56121 0.77618 0.0
C368 C 0.16553 0.57318 0.69173 0.0
N369 N 0.18604 0.57624 0.69733 0.0
C370 C 0.17807 0.61004 0.7131 0.0
C371 C 0.19251 0.59417 0.70787 0.0
C372 C 0.15669 0.6073 0.7077 0.0
C373 C 0.15052 0.58857 0.69677 0.0
H374 H 0.16075 0.55863 0.6837 0.0
H375 H 0.2089 0.59608 0.71233 0.0
C376 C 0.28656 0.55227 0.68838 0.0
N377 N 0.27025 0.55747 0.70213 0.0
C378 C 0.30584 0.56265 0.69043 0.0
C379 C 0.29139 0.58306 0.72125 0.0
C380 C 0.27238 0.57227 0.71861 0.0
C381 C 0.30824 0.57871 0.70661 0.0
H382 H 0.2843 0.54072 0.67515 0.0
H383 H 0.25898 0.57665 0.72879 0.0
C384 C 0.18157 0.51839 0.66436 0.0
N385 N 0.15492 0.49919 0.63371 0.0
C386 C 0.17702 0.49686 0.66626 0.0
C387 C 0.17237 0.53019 0.64703 0.0
C388 C 0.16355 0.48744 0.65056 0.0
C389 C 0.15901 0.52018 0.63165 0.0
C390 C 0.25674 0.50139 0.68286 0.0
C391 C 0.25727 0.48546 0.66652 0.0
C392 C 0.27097 0.50084 0.70086 0.0
C393 C 0.27175 0.46899 0.66873 0.0
C394 C 0.28522 0.48411 0.70246 0.0
N395 N 0.28529 0.46865 0.68652 0.0
C396 C 0.22919 0.5406 0.61614 0.0
C397 C 0.21589 0.5064 0.62375 0.0
C398 C 0.22989 0.53623 0.59304 0.0
N399 N 0.22212 0.5258 0.63092 0.0
C400 C 0.21606 0.50143 0.60078 0.0
C401 C 0.22315 0.51644 0.58501 0.0
H402 H 0.23446 0.55577 0.62232 0.0
H403 H 0.21076 0.49474 0.63587 0.0
C404 C 0.19416 0.49613 0.73284 0.0
N405 N 0.20936 0.4934 0.71696 0.0
C406 C 0.18543 0.47872 0.74385 0.0
C407 C 0.20866 0.45604 0.72249 0.0
C408 C 0.21686 0.47389 0.71182 0.0
C409 C 0.1924 0.45827 0.73841 0.0
H410 H 0.18829 0.51183 0.73633 0.0
H411 H 0.22865 0.472 0.6989 0.0
O412 O 0.2295 0.56202 0.66977 0.0
O413 O 0.22116 0.54442 0.71829 0.0
O414 O 0.19483 0.52786 0.6795 0.0
O415 O 0.24273 0.51768 0.68084 0.0
H416 H 0.24887 0.5958 0.68602 0.0
H417 H 0.20018 0.57446 0.64093 0.0
H418 H 0.23988 0.63278 0.67619 0.0
H419 H 0.19193 0.61182 0.63196 0.0
H420 H 0.25592 0.51369 0.77686 0.0
H421 H 0.21634 0.57511 0.7481 0.0
H422 H 0.24236 0.51316 0.73761 0.0
H423 H 0.2302 0.5745 0.7873 0.0
H424 H 0.18362 0.62427 0.72131 0.0
H425 H 0.13419 0.58555 0.69269 0.0
H426 H 0.31848 0.55869 0.6789 0.0
H427 H 0.29241 0.59559 0.73365 0.0
H428 H 0.1839 0.48748 0.67961 0.0
H429 H 0.17559 0.54687 0.6454 0.0
H430 H 0.15997 0.47078 0.65176 0.0
H431 H 0.15188 0.5291 0.61807 0.0
H432 H 0.24653 0.48573 0.65236 0.0
H433 H 0.27121 0.51329 0.71333 0.0
H434 H 0.27222 0.45649 0.65628 0.0
H435 H 0.29628 0.48347 0.71634 0.0
H436 H 0.23594 0.54816 0.58166 0.0
H437 H 0.21048 0.48606 0.59549 0.0
H438 H 0.17272 0.48122 0.75574 0.0
H439 H 0.21468 0.44063 0.71794 0.0
Li440 Li 0.5391 0.76978 0.34133 0.0
Li441 Li 0.55131 0.75046 0.30749 0.0
Li442 Li 0.56057 0.78704 0.31142 0.0
Li443 Li 0.52421 0.7758 0.30383 0.0
C444 C 0.5828 0.76946 0.34822 0.0
N445 N 0.6106 0.78066 0.38207 0.0
C446 C 0.6015 0.75818 0.35115 0.0
C447 C 0.5782 0.78638 0.36257 0.0
C448 C 0.61539 0.76413 0.36832 0.0
C449 C 0.59245 0.79179 0.37959 0.0
C450 C 0.50268 0.74426 0.31918 0.0
C451 C 0.47458 0.7309 0.2958 0.0
N452 N 0.46054 0.73555 0.31241 0.0
C453 C 0.488 0.74876 0.33608 0.0
C454 C 0.49596 0.73512 0.29893 0.0
C455 C 0.46676 0.74429 0.33232 0.0
C456 C 0.51758 0.78245 0.38023 0.0
N457 N 0.53259 0.76897 0.37256 0.0
C458 C 0.5382 0.75549 0.40975 0.0
C459 C 0.54281 0.75551 0.38668 0.0
C460 C 0.52267 0.76917 0.41813 0.0
C461 C 0.51222 0.78271 0.40307 0.0
H462 H 0.50974 0.79296 0.36854 0.0
H463 H 0.55464 0.74492 0.38004 0.0
C464 C 0.58426 0.72469 0.29472 0.0
N465 N 0.56311 0.72443 0.29799 0.0
C466 C 0.59483 0.70635 0.28849 0.0
C467 C 0.56172 0.68753 0.28959 0.0
C468 C 0.55169 0.70641 0.29555 0.0
C469 C 0.58358 0.68742 0.28601 0.0
H470 H 0.59296 0.73918 0.29726 0.0
H471 H 0.53493 0.7066 0.29859 0.0
C472 C 0.53255 0.81821 0.32405 0.0
N473 N 0.52965 0.86152 0.31946 0.0
C474 C 0.5283 0.82714 0.30295 0.0
C475 C 0.53524 0.83129 0.34284 0.0
C476 C 0.52692 0.84907 0.30097 0.0
C477 C 0.53373 0.85316 0.34017 0.0
C478 C 0.55787 0.76294 0.26623 0.0
C479 C 0.57903 0.76635 0.26087 0.0
C480 C 0.54602 0.74873 0.25339 0.0
C481 C 0.58802 0.75536 0.24283 0.0
C482 C 0.5556 0.73801 0.23551 0.0
N483 N 0.57622 0.74152 0.23064 0.0
C484 C 0.5979 0.81351 0.3166 0.0
C485 C 0.57683 0.81889 0.28412 0.0
C486 C 0.61166 0.82949 0.30981 0.0
N487 N 0.58071 0.80865 0.30389 0.0
C488 C 0.59027 0.83483 0.27659 0.0
C489 C 0.60792 0.84036 0.28956 0.0
H490 H 0.60128 0.80501 0.33187 0.0
H491 H 0.56331 0.81454 0.27406 0.0
C492 C 0.48482 0.79447 0.30449 0.0
N493 N 0.49861 0.78484 0.2903 0.0
C494 C 0.46688 0.80427 0.29597 0.0
C495 C 0.4771 0.79324 0.25842 0.0
C496 C 0.49502 0.78378 0.26768 0.0
C497 C 0.46308 0.80411 0.27261 0.0
H498 H 0.48821 0.79521 0.32238 0.0
H499 H 0.50644 0.77633 0.25676 0.0
O500 O 0.56878 0.76334 0.33194 0.0
O501 O 0.52348 0.74901 0.32233 0.0
O502 O 0.53407 0.79677 0.32638 0.0
O503 O 0.54888 0.77326 0.2841 0.0
H504 H 0.60521 0.74492 0.34032 0.0
H505 H 0.5639 0.79538 0.36047 0.0
H506 H 0.62993 0.75556 0.37077 0.0
H507 H 0.5891 0.80488 0.39077 0.0
H508 H 0.46914 0.72398 0.28014 0.0
H509 H 0.49292 0.75576 0.35187 0.0
H510 H 0.50711 0.73152 0.28569 0.0
H511 H 0.45521 0.7478 0.3452 0.0
H512 H 0.54647 0.74474 0.42087 0.0
H513 H 0.50026 0.79358 0.40897 0.0
H514 H 0.61176 0.70685 0.28637 0.0
H515 H 0.55254 0.67321 0.28792 0.0
H516 H 0.52629 0.81728 0.28819 0.0
H517 H 0.53842 0.82465 0.35933 0.0
H518 H 0.52372 0.85619 0.28472 0.0
H519 H 0.5358 0.86348 0.35456 0.0
H520 H 0.58853 0.77709 0.27075 0.0
H521 H 0.52967 0.74582 0.25732 0.0
H522 H 0.60441 0.75775 0.23859 0.0
H523 H 0.54664 0.72688 0.22552 0.0
H524 H 0.6253 0.83304 0.32011 0.0
H525 H 0.58675 0.8429 0.26091 0.0
H526 H 0.45634 0.81236 0.30746 0.0
H527 H 0.47478 0.79297 0.2403 0.0
Li528 Li 0.78207 0.47349 0.69431 0.0
Li529 Li 0.77618 0.46036 0.65583 0.0
Li530 Li 0.75409 0.44914 0.68742 0.0
Li531 Li 0.79046 0.43693 0.68426 0.0
C532 C 0.73683 0.4838 0.67325 0.0
N533 N 0.69453 0.4935 0.67055 0.0
C534 C 0.72628 0.48226 0.6526 0.0
C535 C 0.72593 0.4904 0.6925 0.0
C536 C 0.70488 0.48722 0.65159 0.0
C537 C 0.70453 0.49519 0.69079 0.0
C538 C 0.81686 0.47127 0.65721 0.0
C539 C 0.8379 0.46793 0.62349 0.0
N540 N 0.84343 0.48861 0.62526 0.0
C541 C 0.82283 0.49247 0.65876 0.0
C542 C 0.82454 0.45886 0.63951 0.0
C543 C 0.83626 0.50095 0.64242 0.0
C544 C 0.81104 0.49549 0.7211 0.0
N545 N 0.7919 0.49708 0.711 0.0
C546 C 0.78907 0.53327 0.72195 0.0
C547 C 0.78078 0.51541 0.71132 0.0
C548 C 0.80892 0.53213 0.73236 0.0
C549 C 0.81981 0.51285 0.73212 0.0
H550 H 0.81975 0.48086 0.72004 0.0
H551 H 0.76574 0.51629 0.70285 0.0
C552 C 0.76928 0.45336 0.60928 0.0
N553 N 0.77621 0.46768 0.62469 0.0
C554 C 0.769 0.45844 0.58632 0.0
C555 C 0.7831 0.49285 0.59555 0.0
C556 C 0.78263 0.48729 0.61835 0.0
C557 C 0.77619 0.47832 0.57929 0.0
H558 H 0.76382 0.43805 0.61483 0.0
H559 H 0.78739 0.49861 0.63102 0.0
C560 C 0.78119 0.45271 0.73273 0.0
N561 N 0.79384 0.46508 0.77538 0.0
C562 C 0.8 0.44505 0.74182 0.0
C563 C 0.76874 0.46654 0.74538 0.0
C564 C 0.80613 0.45151 0.76342 0.0
C565 C 0.77544 0.47265 0.76688 0.0
C566 C 0.76892 0.41079 0.65845 0.0
C567 C 0.75672 0.39588 0.66992 0.0
C568 C 0.78383 0.40407 0.64265 0.0
C569 C 0.75976 0.37443 0.66548 0.0
C570 C 0.78642 0.38248 0.63872 0.0
N571 N 0.77443 0.36823 0.65013 0.0
C572 C 0.71381 0.43402 0.6777 0.0
C573 C 0.72093 0.43691 0.7169 0.0
C574 C 0.69468 0.42405 0.68211 0.0
N575 N 0.72661 0.43985 0.695 0.0
C576 C 0.70189 0.42701 0.7221 0.0
C577 C 0.68873 0.41993 0.70455 0.0
H578 H 0.71897 0.4362 0.66045 0.0
H579 H 0.73155 0.44145 0.7303 0.0
C580 C 0.82959 0.41571 0.68396 0.0
N581 N 0.80908 0.41411 0.69015 0.0
C582 C 0.84381 0.39975 0.68951 0.0
C583 C 0.81544 0.38064 0.70746 0.0
C584 C 0.80182 0.39708 0.70173 0.0
C585 C 0.83685 0.38195 0.7016 0.0
H586 H 0.83506 0.42966 0.67526 0.0
H587 H 0.78551 0.39645 0.70689 0.0
O588 O 0.75765 0.47856 0.67469 0.0
O589 O 0.80356 0.46272 0.67292 0.0
O590 O 0.77506 0.44682 0.71149 0.0
O591 O 0.76642 0.43185 0.66279 0.0
H592 H 0.73447 0.47711 0.63755 0.0
H593 H 0.73386 0.4916 0.70862 0.0
H594 H 0.69647 0.48601 0.63575 0.0
H595 H 0.69585 0.50019 0.70558 0.0
H596 H 0.84385 0.45854 0.60962 0.0
H597 H 0.817 0.50235 0.67229 0.0
H598 H 0.82007 0.44244 0.63805 0.0
H599 H 0.84092 0.51735 0.64335 0.0
H600 H 0.78019 0.54786 0.72182 0.0
H601 H 0.83531 0.51142 0.73957 0.0
H602 H 0.76349 0.44689 0.57418 0.0
H603 H 0.78845 0.50844 0.59069 0.0
H604 H 0.80986 0.43439 0.73226 0.0
H605 H 0.7542 0.47271 0.73853 0.0
H606 H 0.82069 0.44578 0.77063 0.0
H607 H 0.76604 0.48346 0.7768 0.0
H608 H 0.74523 0.40077 0.68233 0.0
H609 H 0.79338 0.4154 0.63362 0.0
H610 H 0.75051 0.36271 0.67432 0.0
H611 H 0.79797 0.37705 0.62662 0.0
H612 H 0.68529 0.41856 0.66802 0.0
H613 H 0.69784 0.42433 0.73963 0.0
H614 H 0.86022 0.40174 0.68506 0.0
H615 H 0.80929 0.36719 0.71661 0.0
Li616 Li 0.44887 0.25046 0.3067 0.0
Li617 Li 0.46038 0.22928 0.33831 0.0
Li618 Li 0.47651 0.22308 0.30099 0.0
Li619 Li 0.44071 0.21255 0.30917 0.0
C620 C 0.48559 0.26437 0.33386 0.0
N621 N 0.50174 0.29454 0.36282 0.0
C622 C 0.47225 0.27913 0.34398 0.0
C623 C 0.50716 0.26499 0.33842 0.0
C624 C 0.4807 0.29425 0.35859 0.0
C625 C 0.51502 0.28035 0.35312 0.0
C626 C 0.42048 0.24039 0.34837 0.0
C627 C 0.40654 0.23013 0.38466 0.0
N628 N 0.39941 0.25016 0.38786 0.0
C629 C 0.41295 0.26085 0.352 0.0
C630 C 0.41719 0.22487 0.36479 0.0
C631 C 0.40236 0.26548 0.37208 0.0
C632 C 0.4172 0.27614 0.29082 0.0
N633 N 0.4379 0.27658 0.29648 0.0
C634 C 0.43949 0.31375 0.28974 0.0
C635 C 0.44932 0.29472 0.29543 0.0
C636 C 0.4179 0.31386 0.28462 0.0
C637 C 0.40684 0.29466 0.28475 0.0
H638 H 0.40862 0.2614 0.29169 0.0
H639 H 0.46591 0.29453 0.2995 0.0
C640 C 0.47969 0.21347 0.37741 0.0
N641 N 0.46727 0.22947 0.36989 0.0
C642 C 0.48562 0.21245 0.4001 0.0
C643 C 0.46613 0.24456 0.40691 0.0
C644 C 0.46062 0.24498 0.3841 0.0
C645 C 0.47878 0.22811 0.41522 0.0
H646 H 0.48511 0.20153 0.36574 0.0
H647 H 0.45092 0.25767 0.37786 0.0
C648 C 0.45615 0.23835 0.26251 0.0
N649 N 0.46624 0.25862 0.22262 0.0
C650 C 0.44479 0.23406 0.24282 0.0
C651 C 0.47259 0.25302 0.26194 0.0
C652 C 0.45015 0.24445 0.22281 0.0
C653 C 0.47746 0.26308 0.2416 0.0
C654 C 0.46291 0.18116 0.3232 0.0
C655 C 0.46783 0.16921 0.30407 0.0
C656 C 0.45317 0.1715 0.34167 0.0
C657 C 0.4627 0.14776 0.30365 0.0
C658 C 0.44831 0.15001 0.34059 0.0
N659 N 0.45311 0.13869 0.32176 0.0
C660 C 0.51919 0.21334 0.29928 0.0
C661 C 0.50156 0.20748 0.26455 0.0
C662 C 0.53766 0.20459 0.29064 0.0
N663 N 0.50163 0.2145 0.28626 0.0
C664 C 0.51971 0.19864 0.25519 0.0
C665 C 0.53797 0.19675 0.26844 0.0
H666 H 0.51858 0.21845 0.31669 0.0
H667 H 0.4872 0.20788 0.25478 0.0
C668 C 0.40615 0.18453 0.31698 0.0
N669 N 0.42031 0.19166 0.30154 0.0
C670 C 0.3918 0.16873 0.31116 0.0
C671 C 0.40659 0.16823 0.27354 0.0
C672 C 0.42076 0.1839 0.28015 0.0
C673 C 0.39192 0.16039 0.28918 0.0
H674 H 0.40609 0.19094 0.33385 0.0
H675 H 0.43234 0.18971 0.26829 0.0
O676 O 0.4776 0.2494 0.31955 0.0
O677 O 0.43078 0.23557 0.32874 0.0
O678 O 0.45089 0.2284 0.28224 0.0
O679 O 0.46715 0.20231 0.32361 0.0
H680 H 0.4555 0.27878 0.34081 0.0
H681 H 0.51775 0.25378 0.33064 0.0
H682 H 0.47052 0.3057 0.36661 0.0
H683 H 0.53168 0.281 0.35679 0.0
H684 H 0.40405 0.21832 0.39759 0.0
H685 H 0.41531 0.27307 0.33949 0.0
H686 H 0.42322 0.20907 0.36249 0.0
H687 H 0.39651 0.28126 0.37513 0.0
H688 H 0.44857 0.32822 0.28961 0.0
H689 H 0.39014 0.2941 0.28116 0.0
H690 H 0.4957 0.19967 0.40565 0.0
H691 H 0.46028 0.25685 0.41796 0.0
H692 H 0.43193 0.22285 0.243 0.0
H693 H 0.48155 0.25662 0.27697 0.0
H694 H 0.4415 0.24127 0.20744 0.0
H695 H 0.49016 0.27444 0.24091 0.0
H696 H 0.47524 0.17648 0.28958 0.0
H697 H 0.44923 0.18055 0.35659 0.0
H698 H 0.46627 0.13834 0.28889 0.0
H699 H 0.44065 0.14235 0.3547 0.0
H700 H 0.5514 0.20353 0.30141 0.0
H701 H 0.51913 0.19242 0.23816 0.0
H702 H 0.38064 0.16321 0.32366 0.0
H703 H 0.40741 0.16201 0.25652 0.0
Li704 Li 0.72164 0.97974 0.79559 0.0
Li705 Li 0.72569 0.96831 0.83546 0.0
Li706 Li 0.74751 0.95491 0.80553 0.0
Li707 Li 0.71019 0.94397 0.80626 0.0
C708 C 0.76654 0.98885 0.81798 0.0
N709 N 0.80943 0.99561 0.82078 0.0
C710 C 0.7772 0.98505 0.83822 0.0
C711 C 0.77765 0.99631 0.79923 0.0
C712 C 0.7989 0.98851 0.83928 0.0
C713 C 0.79933 -0.00044 0.80096 0.0
C714 C 0.68207 0.98238 0.82264 0.0
C715 C 0.6455 0.98409 0.83339 0.0
N716 N 0.64648 0.00554 0.83292 0.0
C717 C 0.68272 0.00444 0.82229 0.0
C718 C 0.66332 0.97211 0.82824 0.0
C719 C 0.66456 0.01586 0.82753 0.0
C720 C 0.69422 0.00037 0.766 0.0
N721 N 0.71267 0.00274 0.77735 0.0
C722 C 0.71525 0.03871 0.76553 0.0
C723 C 0.72336 0.02133 0.77719 0.0
C724 C 0.696 0.03684 0.75399 0.0
C725 C 0.68563 0.01725 0.75405 0.0
H726 H 0.68587 0.98551 0.76685 0.0
H727 H 0.73782 0.02284 0.78667 0.0
C728 C 0.73607 0.9651 0.8818 0.0
N729 N 0.72457 0.97635 0.86661 0.0
C730 C 0.7358 0.97048 0.90467 0.0
C731 C 0.71209 0.99915 0.89589 0.0
C732 C 0.71287 0.99323 0.87319 0.0
C733 C 0.72364 0.98769 0.91199 0.0
H734 H 0.74561 0.952 0.87614 0.0
H735 H 0.70433 0.0023 0.86084 0.0
C736 C 0.72482 0.95776 0.75781 0.0
N737 N 0.71836 0.96932 0.71331 0.0
C738 C 0.70843 0.94871 0.74538 0.0
C739 C 0.73815 0.97242 0.74745 0.0
C740 C 0.70537 0.95482 0.72294 0.0
C741 C 0.73456 0.97815 0.72499 0.0
C742 C 0.72467 0.92529 0.84585 0.0
C743 C 0.73637 0.9081 0.85367 0.0
C744 C 0.70475 0.92927 0.85493 0.0
C745 C 0.7279 0.89511 0.87044 0.0
C746 C 0.69684 0.91591 0.87168 0.0
N747 N 0.70848 0.89925 0.87902 0.0
C748 C 0.78528 0.93555 0.81784 0.0
C749 C 0.78299 0.94326 0.77874 0.0
C750 C 0.80445 0.92527 0.81466 0.0
N751 N 0.77487 0.94401 0.79996 0.0
C752 C 0.80214 0.9331 0.77476 0.0
C753 C 0.81293 0.92355 0.7928 0.0
H754 H 0.77832 0.93625 0.83451 0.0
H755 H 0.77432 0.94997 0.7648 0.0
C756 C 0.67206 0.92927 0.78913 0.0
N757 N 0.68963 0.92286 0.80028 0.0
C758 C 0.65665 0.91467 0.78301 0.0
C759 C 0.67728 0.88719 0.80074 0.0
C760 C 0.69256 0.90228 0.80607 0.0
C761 C 0.65922 0.89336 0.78882 0.0
H762 H 0.67026 0.94572 0.7846 0.0
H763 H 0.70684 0.89748 0.81455 0.0
O764 O 0.74539 0.98501 0.81646 0.0
O765 O 0.69955 0.97084 0.81711 0.0
O766 O 0.72787 0.9522 0.77993 0.0
O767 O 0.73284 0.9381 0.82943 0.0
H768 H 0.76888 0.97925 0.85288 0.0
H769 H 0.76966 -0.00053 0.78347 0.0
H770 H 0.80737 0.98549 0.8548 0.0
H771 H 0.80815 0.00522 0.78655 0.0
H772 H 0.63088 0.97633 0.83776 0.0
H773 H 0.69716 0.01269 0.81832 0.0
H774 H 0.66252 0.95505 0.82865 0.0
H775 H 0.66486 0.03294 0.82736 0.0
H776 H 0.72378 0.05351 0.76583 0.0
H777 H 0.67057 0.01522 0.74575 0.0
H778 H 0.74486 0.96114 0.9165 0.0
H779 H 0.70283 0.01277 0.90072 0.0
H780 H 0.69823 0.93704 0.75291 0.0
H781 H 0.75092 0.97956 0.75677 0.0
H782 H 0.69268 0.948 0.71317 0.0
H783 H 0.74462 0.98964 0.71687 0.0
H784 H 0.75182 0.90482 0.84682 0.0
H785 H 0.6955 0.94252 0.84919 0.0
H786 H 0.73677 0.88174 0.87664 0.0
H787 H 0.68145 0.91881 0.87885 0.0
H788 H 0.81202 0.91787 0.82902 0.0
H789 H 0.80819 0.93231 0.75768 0.0
H790 H 0.64285 0.91995 0.77386 0.0
H791 H 0.6798 0.87082 0.80529 0.0
Li792 Li 0.94707 0.29138 0.18981 0.0
Li793 Li 0.98197 0.27703 0.19879 0.0
Li794 Li 0.96826 0.27382 0.16093 0.0
Li795 Li 0.95352 0.25385 0.19276 0.0
C796 C 0.98117 0.31931 0.18568 0.0
N797 N 0.99414 0.35765 0.20319 0.0
C798 C 0.97818 0.32388 0.20859 0.0
C799 C 0.99077 0.33428 0.17171 0.0
C800 C 0.98486 0.34333 0.2171 0.0
C801 C 0.99719 0.35357 0.18088 0.0
C802 C 0.9492 0.2646 0.23563 0.0
C803 C 0.95296 0.23569 0.26186 0.0
N804 N 0.93501 0.24188 0.27249 0.0
C805 C 0.93096 0.27084 0.247 0.0
C806 C 0.96044 0.24704 0.2433 0.0
C807 C 0.92399 0.2591 0.26553 0.0
C808 C 0.90736 0.30609 0.20292 0.0
N809 N 0.92608 0.31261 0.19427 0.0
C810 C 0.91385 0.34826 0.19277 0.0
C811 C 0.9293 0.33314 0.18851 0.0
C812 C 0.89469 0.34217 0.20268 0.0
C813 C 0.89141 0.32067 0.20741 0.0
H814 H 0.90486 0.28952 0.2064 0.0
H815 H 0.94385 0.33793 0.18067 0.0
C816 C 0.02322 0.2916 0.2025 0.0
N817 N 0.00728 0.28309 0.21479 0.0
C818 C 0.04125 0.29915 0.21319 0.0
C819 C 0.02638 0.28866 0.24906 0.0
C820 C 0.00858 0.28129 0.23763 0.0
C821 C 0.04288 0.29807 0.23683 0.0
H822 H 0.02153 0.29335 0.18442 0.0
H823 H 0.99552 0.27487 0.24706 0.0
C824 C 0.92537 0.27759 0.15237 0.0
N825 N 0.89953 0.29462 0.11957 0.0
C826 C 0.90688 0.26718 0.1461 0.0
C827 C 0.93071 0.29669 0.142 0.0
C828 C 0.89403 0.27604 0.12946 0.0
C829 C 0.91744 0.30503 0.12545 0.0
C830 C 0.00241 0.24525 0.18057 0.0
C831 C 0.0169 0.25224 0.16446 0.0
C832 C 0.00918 0.23217 0.19815 0.0
C833 C 0.03801 0.24634 0.16643 0.0
C834 C 0.03042 0.22663 0.19955 0.0
N835 N 0.04428 0.23379 0.18381 0.0
C836 C 0.98787 0.28792 0.12103 0.0
C837 C 0.96513 0.25857 0.1163 0.0
C838 C 0.99247 0.28807 0.09798 0.0
N839 N 0.97442 0.27334 0.12964 0.0
C840 C 0.96924 0.25816 0.09313 0.0
C841 C 0.98306 0.27307 0.08368 0.0
H842 H 0.99517 0.29932 0.13212 0.0
H843 H 0.95442 0.24722 0.12368 0.0
C844 C 0.91927 0.2297 0.20657 0.0
N845 N 0.93977 0.22827 0.20027 0.0
C846 C 0.90762 0.21149 0.21085 0.0
C847 C 0.93842 0.19062 0.20208 0.0
C848 C 0.94955 0.2093 0.19811 0.0
C849 C 0.9171 0.19159 0.20834 0.0
H850 H 0.91186 0.24504 0.20779 0.0
H851 H 0.96582 0.20866 0.19283 0.0
O852 O 0.97514 0.30021 0.17694 0.0
O853 O 0.9561 0.27568 0.2172 0.0
O854 O 0.93801 0.26909 0.16872 0.0
O855 O 0.98174 0.25118 0.17912 0.0
H856 H 0.97082 0.3126 0.21974 0.0
H857 H 0.99321 0.33109 0.15396 0.0
H858 H 0.98266 0.34704 0.23479 0.0
H859 H 0.00463 0.36529 0.17024 0.0
H860 H 0.96141 0.22195 0.26782 0.0
H861 H 0.92233 0.28467 0.24172 0.0
H862 H 0.97468 0.24214 0.23486 0.0
H863 H 0.90984 0.26371 0.27441 0.0
H864 H 0.91714 0.36463 0.18884 0.0
H865 H 0.8767 0.31516 0.2145 0.0
H866 H 0.05331 0.30668 0.20309 0.0
H867 H 0.02702 0.28739 0.26729 0.0
H868 H 0.90253 0.2524 0.15403 0.0
H869 H 0.94491 0.30502 0.14668 0.0
H870 H 0.87967 0.26815 0.12443 0.0
H871 H 0.92137 0.31979 0.11728 0.0
H872 H 0.012 0.26233 0.15073 0.0
H873 H 0.99818 0.22631 0.21057 0.0
H874 H 0.04941 0.25179 0.15418 0.0
H875 H 0.03588 0.2166 0.21314 0.0
H876 H 0.00348 0.29963 0.09151 0.0
H877 H 0.96143 0.24648 0.0827 0.0
H878 H 0.89113 0.21298 0.21523 0.0
H879 H 0.94633 0.17559 0.20003 0.0
Li880 Li 0.25574 0.04906 0.81035 0.0
Li881 Li 0.29296 0.05764 0.81461 0.0
Li882 Li 0.28065 0.02107 0.80399 0.0
Li883 Li 0.27629 0.03396 0.84284 0.0
C884 C 0.26902 0.05618 0.76812 0.0
N885 N 0.24978 0.0733 0.73049 0.0
C886 C 0.27437 0.07647 0.76083 0.0
C887 C 0.25412 0.04448 0.75608 0.0
C888 C 0.2644 0.08488 0.74182 0.0
C889 C 0.24449 0.05345 0.73716 0.0
C890 C 0.27317 0.08081 0.8499 0.0
C891 C 0.29059 0.09627 0.88214 0.0
N892 N 0.2801 0.11466 0.87847 0.0
C893 C 0.26234 0.09978 0.84666 0.0
C894 C 0.28723 0.07897 0.86795 0.0
C895 C 0.26615 0.11674 0.86119 0.0
C896 C 0.21124 0.05094 0.80335 0.0
N897 N 0.22981 0.06151 0.8017 0.0
C898 C 0.2122 0.09261 0.78906 0.0
C899 C 0.23059 0.08191 0.7947 0.0
C900 C 0.19271 0.08231 0.79092 0.0
C901 C 0.19234 0.06115 0.79808 0.0
H902 H 0.21108 0.03476 0.80917 0.0
H903 H 0.24554 0.09002 0.79393 0.0
C904 C 0.33361 0.07187 0.8039 0.0
N905 N 0.31391 0.07849 0.80933 0.0
C906 C 0.34937 0.08652 0.79904 0.0
C907 C 0.32414 0.11457 0.80482 0.0
C908 C 0.3089 0.09936 0.80975 0.0
C909 C 0.34469 0.10819 0.79937 0.0
H910 H 0.33701 0.05517 0.80303 0.0
H911 H 0.29297 0.1042 0.81338 0.0
C912 C 0.24746 -2e-05 0.82074 0.0
N913 N 0.2331 0.9591 0.81549 0.0
C914 C 0.25044 0.98518 0.83795 0.0
C915 C 0.23693 0.99409 0.80099 0.0
C916 C 0.24312 0.96456 0.83494 0.0
C917 C 0.22987 0.97332 0.79862 0.0
C918 C 0.32097 0.02537 0.83721 0.0
C919 C 0.32995 0.00526 0.83595 0.0
C920 C 0.33089 0.04106 0.84997 0.0
C921 C 0.34847 0.00106 0.84785 0.0
C922 C 0.34941 0.03625 0.86161 0.0
N923 N 0.35773 0.0165 0.86035 0.0
C924 C 0.29289 -0.00041 0.76444 0.0
C925 C 0.29084 0.97801 0.79707 0.0
C926 C 0.30123 0.98288 0.75192 0.0
N927 N 0.28818 0.99695 0.78665 0.0
C928 C 0.29899 0.96084 0.78518 0.0
C929 C 0.30475 0.96331 0.76243 0.0
H930 H 0.29094 0.01489 0.75665 0.0
H931 H 0.28761 0.97649 0.81491 0.0
C932 C 0.26066 0.03521 0.88731 0.0
N933 N 0.27555 0.02622 0.87391 0.0
C934 C 0.25994 0.03053 0.91037 0.0
C935 C 0.28975 0.00728 0.9053 0.0
C936 C 0.2897 0.01218 0.88234 0.0
C937 C 0.27481 0.01661 0.91962 0.0
H938 H 0.2495 0.0462 0.8801 0.0
H939 H 0.30091 0.00469 0.87129 0.0
O940 O 0.27839 0.0478 0.78688 0.0
O941 O 0.26954 0.06403 0.83584 0.0
O942 O 0.25461 0.0202 0.82334 0.0
O943 O 0.3028 0.02971 0.82566 0.0
H944 H 0.28597 0.08569 0.76986 0.0
H945 H 0.24999 0.02867 0.76135 0.0
H946 H 0.26828 0.10062 0.73608 0.0
H947 H 0.23283 0.04462 0.72777 0.0
H948 H 0.30147 0.09504 0.89613 0.0
H949 H 0.25117 0.10146 0.83301 0.0
H950 H 0.29528 0.06428 0.8712 0.0
H951 H 0.25798 0.13155 0.85875 0.0
H952 H 0.21319 0.10903 0.78408 0.0
H953 H 0.17762 0.05266 0.79972 0.0
H954 H 0.36488 0.0809 0.79442 0.0
H955 H 0.31988 0.13112 0.80521 0.0
H956 H 0.25844 0.9895 0.8534 0.0
H957 H 0.23427 0.00542 0.78764 0.0
H958 H 0.24542 0.9529 0.84806 0.0
H959 H 0.2218 0.9685 0.78337 0.0
H960 H 0.32266 0.99297 0.82601 0.0
H961 H 0.32461 0.05688 0.85061 0.0
H962 H 0.3555 0.98552 0.84713 0.0
H963 H 0.35722 0.04825 0.87155 0.0
H964 H 0.30538 0.98539 0.73438 0.0
H965 H 0.30182 0.94615 0.79403 0.0
H966 H 0.24821 0.03804 0.92092 0.0
H967 H 0.30121 0.99616 0.91177 0.0
Li968 Li 0.01715 0.72228 0.19691 0.0
Li969 Li 0.05164 0.7103 0.18919 0.0
Li970 Li 0.04465 0.74825 0.19196 0.0
Li971 Li 0.03068 0.72595 0.15901 0.0
C972 C 0.04013 0.73027 0.2381 0.0
N973 N 0.03546 0.73757 0.28387 0.0
C974 C 0.04365 0.714 0.25361 0.0
C975 C 0.03458 0.75034 0.24591 0.0
C976 C 0.0411 0.71798 0.27666 0.0
C977 C 0.03221 0.75369 0.2691 0.0
C978 C 0.0211 0.67961 0.18276 0.0
C979 C 0.01127 0.64354 0.1751 0.0
N980 N 0.01251 0.63915 0.19756 0.0
C981 C 0.02227 0.67476 0.20574 0.0
C982 C 0.01554 0.6639 0.16728 0.0
C983 C 0.01787 0.65422 0.2129 0.0
C984 C 0.97747 0.70395 0.19901 0.0
N985 N 0.99117 0.71525 0.21187 0.0
C986 C 0.96805 0.71278 0.24366 0.0
C987 C 0.98661 0.72013 0.23371 0.0
C988 C 0.95401 0.70039 0.23098 0.0
C989 C 0.9588 0.69629 0.20824 0.0
H990 H 0.98128 0.7005 0.1816 0.0
H991 H 0.99736 0.72947 0.24359 0.0
C992 C 0.0856 0.69433 0.21366 0.0
N993 N 0.07253 0.68984 0.19615 0.0
C994 C 0.10053 0.67961 0.2207 0.0
C995 C 0.08866 0.65609 0.19113 0.0
C996 C 0.07399 0.67135 0.1846 0.0
C997 C 0.10196 0.66001 0.20966 0.0
H998 H 0.08423 0.70931 0.22231 0.0
H999 H 0.06355 0.66829 0.17055 0.0
C1000 C 0.99604 0.7544 0.1814 0.0
N1001 N 0.9549 0.76576 0.19034 0.0
C1002 C 0.97979 0.74735 0.16739 0.0
C1003 C 0.99142 0.76744 0.19978 0.0
C1004 C 0.95908 0.75321 0.17223 0.0
C1005 C 0.97051 0.77295 0.20407 0.0
C1006 C 0.07883 0.72447 0.16019 0.0
C1007 C 0.09775 0.73045 0.1704 0.0
C1008 C 0.07892 0.70924 0.14311 0.0
C1009 C 0.1165 0.72098 0.16337 0.0
C1010 C 0.098 0.70016 0.13655 0.0
N1011 N 0.11624 0.70616 0.14675 0.0
C1012 C 0.07498 0.77385 0.21199 0.0
C1013 C 0.04857 0.79292 0.1924 0.0
C1014 C 0.08598 0.79242 0.21649 0.0
N1015 N 0.05688 0.77442 0.19981 0.0
C1016 C 0.05899 0.81195 0.19665 0.0
C1017 C 0.07821 0.81182 0.20848 0.0
H1018 H 0.08115 0.75883 0.21764 0.0
H1019 H 0.03411 0.79283 0.18275 0.0
C1020 C 0.00816 0.71361 0.12043 0.0
N1021 N 0.02439 0.72572 0.12785 0.0
C1022 C 0.00299 0.71322 0.09752 0.0
C1023 C 0.03158 0.73752 0.09034 0.0
C1024 C 0.0361 0.73755 0.11342 0.0
C1025 C 0.01476 0.72529 0.08209 0.0
H1026 H 0.99913 0.70439 0.13239 0.0
H1027 H 0.049 0.74694 0.11987 0.0
O1028 O 0.04293 0.72671 0.2155 0.0
O1029 O 0.02542 0.69959 0.17528 0.0
O1030 O 0.01633 0.74832 0.17731 0.0
O1031 O 0.06023 0.73302 0.16731 0.0
H1032 H 0.04842 0.69848 0.24795 0.0
H1033 H 0.03201 0.76318 0.23425 0.0
H1034 H 0.04369 0.70551 0.28884 0.0
H1035 H 0.0278 0.76912 0.27536 0.0
H1036 H 0.00697 0.63121 0.16332 0.0
H1037 H 0.02644 0.68674 0.2179 0.0
H1038 H 0.0146 0.66742 0.14942 0.0
H1039 H 0.01871 0.65026 0.23065 0.0
H1040 H 0.96482 0.71664 0.26114 0.0
H1041 H 0.9486 0.68664 0.19783 0.0
H1042 H 0.11073 0.68349 0.23475 0.0
H1043 H 0.08909 0.64117 0.18222 0.0
H1044 H 0.9831 0.73726 0.15309 0.0
H1045 H 0.00381 0.77318 0.21067 0.0
H1046 H 0.94632 0.74773 0.16164 0.0
H1047 H 0.96668 0.78293 0.21832 0.0
H1048 H 0.09793 0.74213 0.18372 0.0
H1049 H 0.06437 0.70426 0.13523 0.0
H1050 H 0.13126 0.72539 0.17118 0.0
H1051 H 0.0983 0.68827 0.12344 0.0
H1052 H 0.10086 0.79142 0.22535 0.0
H1053 H 0.05225 0.82652 0.19042 0.0
H1054 H 0.98971 0.7038 0.09205 0.0
H1055 H 0.04131 0.7468 0.07907 0.0
Li1056 Li 0.70556 0.05646 0.18697 0.0
Li1057 Li 0.74354 0.04711 0.18657 0.0
Li1058 Li 0.72177 0.0351 0.15557 0.0
Li1059 Li 0.71816 0.02137 0.19424 0.0
C1060 C 0.71996 0.07843 0.14866 0.0
N1061 N 0.70419 0.10591 0.11662 0.0
C1062 C 0.73229 0.09517 0.14084 0.0
C1063 C 0.69962 0.07561 0.14014 0.0
C1064 C 0.72402 0.1089 0.12465 0.0
C1065 C 0.69193 0.08969 0.12396 0.0
C1066 C 0.72131 0.04112 0.23416 0.0
C1067 C 0.73236 0.02032 0.2662 0.0
N1068 N 0.71593 0.02806 0.27837 0.0
C1069 C 0.70475 0.04912 0.24713 0.0
C1070 C 0.73542 0.02685 0.2439 0.0
C1071 C 0.70222 0.04224 0.26939 0.0
C1072 C 0.66737 0.06917 0.2053 0.0
N1073 N 0.68482 0.07678 0.19485 0.0
C1074 C 0.67227 0.1122 0.19864 0.0
C1075 C 0.68757 0.09784 0.19141 0.0
C1076 C 0.65424 0.10476 0.20984 0.0
C1077 C 0.65183 0.08292 0.21298 0.0
H1078 H 0.66591 0.05243 0.20839 0.0
H1079 H 0.70179 0.10353 0.18345 0.0
C1080 C 0.78129 0.06671 0.17474 0.0
N1081 N 0.77065 0.05839 0.19254 0.0
C1082 C 0.80044 0.07701 0.17813 0.0
C1083 C 0.7975 0.06968 0.21809 0.0
C1084 C 0.77841 0.05945 0.21391 0.0
C1085 C 0.8086 0.07893 0.2001 0.0
H1086 H 0.77459 0.0658 0.15797 0.0
H1087 H 0.76952 0.05289 0.22778 0.0
C1088 C 0.68261 0.01287 0.17105 0.0
N1089 N 0.65754 0.97724 0.16884 0.0
C1090 C 0.69117 0.99352 0.16431 0.0
C1091 C 0.6612 0.01413 0.17634 0.0
C1092 C 0.67827 0.97568 0.16341 0.0
C1093 C 0.64881 0.99593 0.17518 0.0
C1094 C 0.76322 0.01337 0.17322 0.0
C1095 C 0.77539 0.01753 0.15407 0.0
C1096 C 0.77276 0.00464 0.19234 0.0
C1097 C 0.79698 0.01338 0.15454 0.0
C1098 C 0.79439 0.00071 0.19217 0.0
N1099 N 0.80597 0.00516 0.17344 0.0
C1100 C 0.7364 0.03959 0.111 0.0
C1101 C 0.7052 0.01932 0.11388 0.0
C1102 C 0.73701 0.03646 0.08766 0.0
N1103 N 0.72093 0.03064 0.12366 0.0
C1104 C 0.70515 0.01581 0.0906 0.0
C1105 C 0.72136 0.02421 0.0772 0.0
H1106 H 0.74831 0.04919 0.11907 0.0
H1107 H 0.69264 0.01296 0.12404 0.0
C1108 C 0.69256 0.99871 0.22416 0.0
N1109 N 0.71018 0.99703 0.21126 0.0
C1110 C 0.68427 0.98101 0.23492 0.0
C1111 C 0.71235 0.96006 0.21888 0.0
C1112 C 0.72025 0.97826 0.20859 0.0
C1113 C 0.69399 0.9613 0.23205 0.0
H1114 H 0.68447 0.01368 0.22535 0.0
H1115 H 0.73388 0.97725 0.19772 0.0
O1116 O 0.72797 0.06476 0.16434 0.0
O1117 O 0.72388 0.04753 0.21222 0.0
O1118 O 0.69519 0.03038 0.1727 0.0
O1119 O 0.74211 0.0178 0.17325 0.0
H1120 H 0.74809 0.09751 0.14722 0.0
H1121 H 0.68985 0.06272 0.14591 0.0
H1122 H 0.73338 0.12194 0.11845 0.0
H1123 H 0.67622 0.08771 0.11724 0.0
H1124 H 0.74305 0.00911 0.27383 0.0
H1125 H 0.69399 0.06059 0.24017 0.0
H1126 H 0.7485 0.02076 0.23432 0.0
H1127 H 0.68938 0.04821 0.27954 0.0
H1128 H 0.67482 0.12895 0.19614 0.0
H1129 H 0.63812 0.07653 0.22144 0.0
H1130 H 0.80826 0.08419 0.16381 0.0
H1131 H 0.8033 0.07067 0.23526 0.0
H1132 H 0.70769 0.99227 0.16006 0.0
H1133 H 0.65416 0.02898 0.18115 0.0
H1134 H 0.68476 0.96059 0.15845 0.0
H1135 H 0.63224 0.99668 0.17929 0.0
H1136 H 0.76831 0.02403 0.13904 0.0
H1137 H 0.76359 0.00085 0.20713 0.0
H1138 H 0.80659 0.01671 0.13988 0.0
H1139 H 0.80197 0.99408 0.20691 0.0
H1140 H 0.74952 0.04365 0.07791 0.0
H1141 H 0.69277 0.00626 0.08326 0.0
H1142 H 0.66985 0.98257 0.24453 0.0
H1143 H 0.72027 0.94512 0.21624 0.0
Li1144 Li 0.0292 0.27219 0.83996 0.0
Li1145 Li 0.04363 0.25206 0.80808 0.0
Li1146 Li 0.04994 0.28968 0.81072 0.0
Li1147 Li 0.01501 0.27514 0.80239 0.0
C1148 C 0.07219 0.2762 0.8479 0.0
N1149 N 0.09838 0.29355 0.88021 0.0
C1150 C 0.09084 0.26596 0.8539 0.0
C1151 C 0.06686 0.29529 0.85829 0.0
C1152 C 0.10387 0.27498 0.87029 0.0
C1153 C 0.08031 0.30379 0.8746 0.0
C1154 C 0.99487 0.24355 0.82097 0.0
C1155 C 0.96662 0.22468 0.80267 0.0
N1156 N 0.95287 0.23244 0.81819 0.0
C1157 C 0.98048 0.25118 0.83686 0.0
C1158 C 0.98792 0.23004 0.80384 0.0
C1159 C 0.95931 0.24543 0.83513 0.0
C1160 C 0.01024 0.28655 0.88013 0.0
N1161 N 0.0234 0.2718 0.87133 0.0
C1162 C 0.02865 0.25642 0.90773 0.0
C1163 C 0.0326 0.25688 0.88452 0.0
C1164 C 0.01508 0.27147 0.91736 0.0
C1165 C 0.00581 0.28667 0.90321 0.0
H1166 H 0.00301 0.29808 0.86914 0.0
H1167 H 0.04309 0.2454 0.877 0.0
C1168 C 0.07777 0.22829 0.79352 0.0
N1169 N 0.05744 0.22658 0.80034 0.0
C1170 C 0.08945 0.21026 0.78857 0.0
C1171 C 0.05902 0.18897 0.79775 0.0
C1172 C 0.04786 0.20749 0.80243 0.0
C1173 C 0.08016 0.19024 0.79087 0.0
H1174 H 0.08499 0.24373 0.7923 0.0
H1175 H 0.03171 0.20663 0.80809 0.0
C1176 C 0.01607 0.3176 0.8151 0.0
N1177 N 0.00337 0.35594 0.79741 0.0
C1178 C 0.0188 0.32192 0.7921 0.0
C1179 C 0.00688 0.33282 0.82906 0.0
C1180 C 0.01227 0.34138 0.78349 0.0
C1181 C 0.00058 0.3521 0.81981 0.0
C1182 C 0.04705 0.26284 0.76487 0.0
C1183 C 0.06434 0.26986 0.75236 0.0
C1184 C 0.03628 0.24471 0.75798 0.0
C1185 C 0.07087 0.25833 0.7335 0.0
C1186 C 0.0433 0.23358 0.73906 0.0
N1187 N 0.06033 0.24055 0.72732 0.0
C1188 C 0.08893 0.30454 0.79571 0.0
C1189 C 0.06794 0.33138 0.81209 0.0
C1190 C 0.10466 0.31916 0.79053 0.0
N1191 N 0.07075 0.31095 0.80566 0.0
C1192 C 0.08325 0.34652 0.80728 0.0
C1193 C 0.10177 0.34055 0.79599 0.0
H1194 H 0.09115 0.28804 0.79169 0.0
H1195 H 0.05381 0.33604 0.82087 0.0
C1196 C 0.97383 0.29007 0.79877 0.0
N1197 N 0.98942 0.28073 0.78666 0.0
C1198 C 0.95549 0.29685 0.78813 0.0
C1199 C 0.96926 0.28376 0.75274 0.0
C1200 C 0.98743 0.2773 0.7641 0.0
C1201 C 0.95311 0.29401 0.76472 0.0
H1202 H 0.97599 0.29294 0.81664 0.0
H1203 H 0.00016 0.27013 0.75478 0.0
O1204 O 0.05937 0.26754 0.8318 0.0
O1205 O 0.01559 0.24936 0.82214 0.0
O1206 O 0.02205 0.29854 0.82398 0.0
O1207 O 0.0406 0.27375 0.78361 0.0
H1208 H 0.0952 0.25119 0.84595 0.0
H1209 H 0.05253 0.30349 0.85383 0.0
H1210 H 0.11836 0.26722 0.87512 0.0
H1211 H 0.07638 0.31855 0.88278 0.0
H1212 H 0.96103 0.21433 0.78943 0.0
H1213 H 0.98552 0.26165 0.85021 0.0
H1214 H 0.99882 0.22374 0.79157 0.0
H1215 H 0.94799 0.25137 0.84721 0.0
H1216 H 0.03636 0.2446 0.91803 0.0
H1217 H 0.995 0.29834 0.90982 0.0
H1218 H 0.1058 0.21198 0.78374 0.0
H1219 H 0.05125 0.17385 0.79965 0.0
H1220 H 0.02585 0.31045 0.78093 0.0
H1221 H 0.00466 0.32982 0.84688 0.0
H1222 H 0.01427 0.3449 0.76574 0.0
H1223 H 0.99346 0.36401 0.83044 0.0
H1224 H 0.07254 0.28417 0.757 0.0
H1225 H 0.02278 0.23916 0.76733 0.0
H1226 H 0.08429 0.26356 0.72373 0.0
H1227 H 0.03522 0.2194 0.73371 0.0
H1228 H 0.11891 0.31376 0.78234 0.0
H1229 H 0.08035 0.36282 0.81183 0.0
H1230 H 0.94372 0.30504 0.79803 0.0
H1231 H 0.96804 0.28108 0.73472 0.0
Li1232 Li 0.27791 0.96282 0.16107 0.0
Li1233 Li 0.28271 0.97668 0.19943 0.0
Li1234 Li 0.29383 0.94084 0.18973 0.0
Li1235 Li 0.25653 0.95032 0.19247 0.0
C1236 C 0.31694 0.97726 0.16202 0.0
N1237 N 0.34071 0.99709 0.12919 0.0
C1238 C 0.32025 0.99907 0.16298 0.0
C1239 C 0.32584 0.96552 0.14446 0.0
C1240 C 0.3323 0.00879 0.14621 0.0
C1241 C 0.33775 0.97584 0.12799 0.0
C1242 C 0.23711 0.98394 0.17808 0.0
C1243 C 0.20424 0.99406 0.19529 0.0
N1244 N 0.19433 0.99116 0.17515 0.0
C1245 C 0.22665 0.98115 0.15753 0.0
C1246 C 0.22588 0.99054 0.1971 0.0
C1247 C 0.205 0.98486 0.1564 0.0
C1248 C 0.27321 0.9546 0.11443 0.0
N1249 N 0.27732 0.96991 0.1299 0.0
C1250 C 0.2799 0.99594 0.10084 0.0
C1251 C 0.2803 0.99034 0.12363 0.0
C1252 C 0.27582 0.98044 0.08447 0.0
C1253 C 0.2723 0.95956 0.09148 0.0
H1254 H 0.27046 0.93857 0.11993 0.0
H1255 H 0.28293 0.00229 0.13637 0.0
C1256 C 0.31056 -0.0001 0.22587 0.0
N1257 N 0.29125 0.00082 0.21607 0.0
C1258 C 0.3188 0.01749 0.23691 0.0
C1259 C 0.28721 0.03682 0.22733 0.0
C1260 C 0.27945 0.01871 0.21668 0.0
C1261 C 0.3072 0.03635 0.23749 0.0
H1262 H 0.31982 0.98563 0.22455 0.0
H1263 H 0.26429 0.01908 0.20839 0.0
C1264 C 0.27453 0.91272 0.16466 0.0
N1265 N 0.28338 0.87047 0.15799 0.0
C1266 C 0.26308 0.89726 0.17621 0.0
C1267 C 0.29041 0.90669 0.14966 0.0
C1268 C 0.2678 0.87598 0.17259 0.0
C1269 C 0.29468 0.88525 0.14655 0.0
C1270 C 0.28268 0.95614 0.23807 0.0
C1271 C 0.30173 0.9498 0.24774 0.0
C1272 C 0.2691 0.96928 0.2502 0.0
C1273 C 0.30697 0.95691 0.26937 0.0
C1274 C 0.27493 0.97608 0.27176 0.0
N1275 N 0.29359 0.96981 0.28082 0.0
C1276 C 0.33493 0.92461 0.19063 0.0
C1277 C 0.30948 0.90205 0.20721 0.0
C1278 C 0.35108 0.91086 0.19679 0.0
N1279 N 0.31465 0.92007 0.19602 0.0
C1280 C 0.32513 0.8877 0.21349 0.0
C1281 C 0.34627 0.89225 0.2086 0.0
H1282 H 0.33868 0.93923 0.18215 0.0
H1283 H 0.29329 0.89914 0.21187 0.0
C1284 C 0.21789 0.9327 0.18145 0.0
N1285 N 0.22933 0.9397 0.19932 0.0
C1286 C 0.19844 0.92307 0.18486 0.0
C1287 C 0.20262 0.92846 0.22505 0.0
C1288 C 0.22209 0.93798 0.22084 0.0
C1289 C 0.19064 0.92056 0.20692 0.0
H1290 H 0.22422 0.93406 0.16455 0.0
H1291 H 0.2316 0.94355 0.23475 0.0
O1292 O 0.30494 0.96747 0.1781 0.0
O1293 O 0.25819 0.97988 0.17966 0.0
O1294 O 0.27035 0.93364 0.16818 0.0
O1295 O 0.27742 0.94963 0.21678 0.0
H1296 H 0.31342 0.00843 0.17638 0.0
H1297 H 0.3234 0.94865 0.14344 0.0
H1298 H 0.33491 0.02567 0.14668 0.0
H1299 H 0.34462 0.96697 0.11422 0.0
H1300 H 0.19531 0.99904 0.20991 0.0
H1301 H 0.23509 0.97596 0.14266 0.0
H1302 H 0.23374 0.99271 0.21314 0.0
H1303 H 0.19666 0.98266 0.14064 0.0
H1304 H 0.28238 0.01227 0.09608 0.0
H1305 H 0.26913 0.94718 0.07932 0.0
H1306 H 0.33444 0.01658 0.24411 0.0
H1307 H 0.2778 0.05108 0.22743 0.0
H1308 H 0.25087 0.90162 0.18804 0.0
H1309 H 0.29946 0.91845 0.14065 0.0
H1310 H 0.25913 0.86385 0.18148 0.0
H1311 H 0.307 0.88036 0.13507 0.0
H1312 H 0.31246 0.93967 0.23858 0.0
H1313 H 0.25436 0.97442 0.24291 0.0
H1314 H 0.32171 0.95222 0.27702 0.0
H1315 H 0.26465 0.98638 0.28128 0.0
H1316 H 0.36719 0.91489 0.19268 0.0
H1317 H 0.32084 0.87368 0.22289 0.0
H1318 H 0.19005 0.91687 0.17038 0.0
H1319 H 0.19716 0.92703 0.24231 0.0
Li1320 Li 0.95026 0.74401 0.80802 0.0
Li1321 Li 0.9626 0.72234 0.83949 0.0
Li1322 Li 0.97821 0.7193 0.802 0.0
Li1323 Li 0.94264 0.70633 0.80945 0.0
C1324 C 0.99874 0.75002 0.82128 0.0
N1325 N 0.04098 0.7599 0.81802 0.0
C1326 C 0.01268 0.74386 0.83831 0.0
C1327 C 0.00625 0.76132 0.80267 0.0
C1328 C 0.03399 0.74899 0.83634 0.0
C1329 C 0.02767 0.76612 0.80131 0.0
C1330 C 0.92417 0.73332 0.85066 0.0
C1331 C 0.91188 0.72303 0.88762 0.0
N1332 N 0.90775 0.7436 0.89247 0.0
C1333 C 0.91979 0.75436 0.85601 0.0
C1334 C 0.92015 0.7175 0.86656 0.0
C1335 C 0.91148 0.75923 0.87723 0.0
C1336 C 0.91737 0.77033 0.79525 0.0
N1337 N 0.93823 0.77045 0.80021 0.0
C1338 C 0.93961 0.80796 0.79611 0.0
C1339 C 0.9495 0.7887 0.80067 0.0
C1340 C 0.91801 0.80829 0.79096 0.0
C1341 C 0.90693 0.78911 0.79038 0.0
H1342 H 0.90874 0.75561 0.79555 0.0
H1343 H 0.96602 0.78834 0.80498 0.0
C1344 C 0.97509 0.70413 0.88107 0.0
N1345 N 0.96882 0.72229 0.87091 0.0
C1346 C 0.97991 0.70395 0.90408 0.0
C1347 C 0.97192 0.74124 0.90564 0.0
C1348 C 0.96741 0.74071 0.88258 0.0
C1349 C 0.97829 0.72268 0.91673 0.0
H1350 H 0.97659 0.68982 0.87127 0.0
H1351 H 0.96272 0.755 0.87393 0.0
C1352 C 0.94432 0.73365 0.76569 0.0
N1353 N 0.92605 0.75677 0.73131 0.0
C1354 C 0.92368 0.72937 0.75891 0.0
C1355 C 0.9557 0.74963 0.7549 0.0
C1356 C 0.91472 0.74124 0.7415 0.0
C1357 C 0.94617 0.76117 0.73759 0.0
C1358 C 0.96696 0.67525 0.82051 0.0
C1359 C 0.97518 0.66496 0.80158 0.0
C1360 C 0.95515 0.66385 0.83627 0.0
C1361 C 0.97142 0.64339 0.79872 0.0
C1362 C 0.95171 0.64231 0.83277 0.0
N1363 N 0.95985 0.63261 0.81423 0.0
C1364 C 0.01891 0.70346 0.80002 0.0
C1365 C 0.00635 0.71515 0.76444 0.0
C1366 C 0.03742 0.69606 0.7902 0.0
N1367 N 0.00381 0.71264 0.78708 0.0
C1368 C 0.02467 0.70796 0.75388 0.0
C1369 C 0.04039 0.69798 0.76676 0.0
H1370 H 0.01622 0.70127 0.81791 0.0
H1371 H 0.99394 0.72218 0.7545 0.0
C1372 C 0.9069 0.67962 0.81554 0.0
N1373 N 0.92291 0.685 0.80144 0.0
C1374 C 0.89287 0.66359 0.8095 0.0
C1375 C 0.91182 0.65935 0.77437 0.0
C1376 C 0.92561 0.67526 0.78119 0.0
C1377 C 0.89523 0.65331 0.78864 0.0
H1378 H 0.90504 0.68771 0.83146 0.0
H1379 H 0.93854 0.67986 0.77037 0.0
O1380 O 0.97791 0.74474 0.82264 0.0
O1381 O 0.93258 0.72824 0.83008 0.0
O1382 O 0.95324 0.72248 0.78299 0.0
O1383 O 0.9699 0.69649 0.82326 0.0
H1384 H 0.00718 0.73502 0.85278 0.0
H1385 H 0.99568 0.76615 0.78931 0.0
H1386 H 0.04498 0.74423 0.84933 0.0
H1387 H 0.03372 0.77474 0.78693 0.0
H1388 H 0.90886 0.71097 0.90014 0.0
H1389 H 0.92294 0.76684 0.84403 0.0
H1390 H 0.92377 0.70118 0.86288 0.0
H1391 H 0.90808 0.77546 0.88162 0.0
H1392 H 0.94868 0.82243 0.79675 0.0
H1393 H 0.89019 0.78868 0.78698 0.0
H1394 H 0.9852 0.68937 0.91175 0.0
H1395 H 0.97024 0.756 0.91469 0.0
H1396 H 0.91455 0.71722 0.76721 0.0
H1397 H 0.97162 0.75328 0.76005 0.0
H1398 H 0.89873 0.73817 0.73617 0.0
H1399 H 0.95474 0.77367 0.72921 0.0
H1400 H 0.98411 0.67356 0.78905 0.0
H1401 H 0.9484 0.67161 0.85084 0.0
H1402 H 0.97762 0.63524 0.78409 0.0
H1403 H 0.94248 0.63332 0.84474 0.0
H1404 H 0.04885 0.68811 0.80076 0.0
H1405 H 0.02636 0.70988 0.73579 0.0
H1406 H 0.88016 0.65949 0.82088 0.0
H1407 H 0.9143 0.65163 0.75826 0.0
H1408 H 0.32032 0.40165 0.24878 0.0
H1409 H 0.42038 0.35022 0.30935 0.0
H1410 H 0.34187 0.41886 0.31549 0.0
H1411 H 0.38892 0.32285 0.25178 0.0
H1412 H 0.39712 0.38093 0.30675 0.0
H1413 H 0.3506 0.37813 0.24498 0.0
C1414 C 0.3315 0.40065 0.26255 0.0
C1415 C 0.3283 0.41201 0.28264 0.0
C1416 C 0.39552 0.36834 0.29449 0.0
C1417 C 0.36311 0.38528 0.27827 0.0
C1418 C 0.40888 0.35089 0.29586 0.0
C1419 C 0.40639 0.33389 0.2809 0.0
C1420 C 0.37965 0.3688 0.27798 0.0
C1421 C 0.39112 0.33549 0.26386 0.0
C1422 C 0.34882 0.38728 0.26032 0.0
C1423 C 0.34364 0.41048 0.29966 0.0
N1424 N 0.3782 0.35255 0.26298 0.0
N1425 N 0.36025 0.39717 0.29719 0.0
H1426 H 0.39437 0.67504 0.66594 0.0
H1427 H 0.3304 0.59465 0.74283 0.0
H1428 H 0.40962 0.66541 0.73634 0.0
H1429 H 0.32878 0.59465 0.66993 0.0
H1430 H 0.35916 0.62052 0.74158 0.0
H1431 H 0.37012 0.64558 0.66771 0.0
C1432 C 0.39295 0.66655 0.68174 0.0
C1433 C 0.40433 0.67274 0.70098 0.0
C1434 C 0.35265 0.61462 0.72589 0.0
C1435 C 0.37579 0.63909 0.70326 0.0
C1436 C 0.33621 0.59994 0.72659 0.0
C1437 C 0.32716 0.59247 0.70646 0.0
C1438 C 0.35985 0.62206 0.70491 0.0
C1439 C 0.3354 0.59972 0.68588 0.0
C1440 C 0.37889 0.64974 0.68276 0.0
C1441 C 0.40108 0.6614 0.72112 0.0
N1442 N 0.35111 0.61422 0.68566 0.0
N1443 N 0.38701 0.64519 0.72177 0.0
H1444 H 0.61439 0.68089 0.25457 0.0
H1445 H 0.64965 0.57142 0.30911 0.0
H1446 H 0.57922 0.64899 0.30671 0.0
H1447 H 0.68443 0.60421 0.25721 0.0
H1448 H 0.62084 0.59666 0.30445 0.0
H1449 H 0.63711 0.64998 0.25107 0.0
C1450 C 0.61132 0.66725 0.26511 0.0
C1451 C 0.5951 0.66759 0.28117 0.0
C1452 C 0.63465 0.59814 0.29385 0.0
C1453 C 0.62112 0.63218 0.27741 0.0
C1454 C 0.65114 0.58378 0.29656 0.0
C1455 C 0.66961 0.58583 0.28372 0.0
C1456 C 0.6367 0.61475 0.27828 0.0
C1457 C 0.67049 0.60191 0.26742 0.0
C1458 C 0.62427 0.64958 0.26309 0.0
C1459 C 0.59157 0.64937 0.29412 0.0
N1460 N 0.65441 0.61588 0.26538 0.0
N1461 N 0.60469 0.6325 0.2922 0.0
H1462 H 0.57889 0.34306 0.68378 0.0
H1463 H 0.68501 0.3888 0.73643 0.0
H1464 H 0.6139 0.3126 0.73709 0.0
H1465 H 0.65018 0.41984 0.68333 0.0
H1466 H 0.65639 0.36353 0.7406 0.0
H1467 H 0.602 0.37375 0.68696 0.0
C1468 C 0.59121 0.34295 0.69642 0.0
C1469 C 0.59461 0.32511 0.71002 0.0
C1470 C 0.65487 0.376 0.72821 0.0
C1471 C 0.62134 0.36009 0.7135 0.0
C1472 C 0.67116 0.3906 0.72593 0.0
C1473 C 0.67012 0.40642 0.70935 0.0
C1474 C 0.63741 0.37709 0.7137 0.0
C1475 C 0.65186 0.40767 0.69603 0.0
C1476 C 0.6045 0.36045 0.69813 0.0
C1477 C 0.61098 0.32582 0.72594 0.0
N1478 N 0.63633 0.39307 0.69834 0.0
N1479 N 0.62383 0.34292 0.7271 0.0
H1480 H 0.81986 0.89597 0.75797 0.0
H1481 H 0.92136 0.84477 0.81561 0.0
H1482 H 0.84887 0.92045 0.81851 0.0
H1483 H 0.88843 0.81759 0.75887 0.0
H1484 H 0.89887 0.87602 0.81297 0.0
H1485 H 0.8487 0.87088 0.75412 0.0
C1486 C 0.83249 0.89637 0.77024 0.0
C1487 C 0.83181 0.91024 0.78873 0.0
C1488 C 0.89673 0.86333 0.80093 0.0
C1489 C 0.86474 0.88117 0.78465 0.0
C1490 C 0.90966 0.84555 0.80233 0.0
C1491 C 0.90658 0.82846 0.7876 0.0
C1492 C 0.88064 0.86402 0.78466 0.0
C1493 C 0.89106 0.83025 0.77084 0.0
C1494 C 0.8489 0.88188 0.76813 0.0
C1495 C 0.84854 0.90977 0.80424 0.0
N1496 N 0.87856 0.84761 0.76995 0.0
N1497 N 0.86422 0.89533 0.80197 0.0
H1498 H 0.84502 0.08077 0.17517 0.0
H1499 H 0.88755 0.18249 0.24063 0.0
H1500 H 0.81537 0.10715 0.23438 0.0
H1501 H 0.91727 0.1565 0.18128 0.0
H1502 H 0.86353 0.15237 0.24135 0.0
H1503 H 0.87409 0.1057 0.17979 0.0
C1504 C 0.8447 0.0917 0.18924 0.0
C1505 C 0.82762 0.09199 0.20428 0.0
C1506 C 0.87544 0.15312 0.2283 0.0
C1507 C 0.86085 0.12057 0.2097 0.0
C1508 C 0.88912 0.17035 0.22784 0.0
C1509 C 0.90429 0.17213 0.21073 0.0
C1510 C 0.87683 0.13759 0.21141 0.0
C1511 C 0.90587 0.15574 0.19483 0.0
C1512 C 0.86134 0.10588 0.19192 0.0
C1513 C 0.82824 0.10625 0.22245 0.0
N1514 N 0.89214 0.13929 0.19541 0.0
N1515 N 0.84445 0.1201 0.2245 0.0
H1516 H 0.08063 0.15415 0.81647 0.0
H1517 H 0.18404 0.10984 0.75652 0.0
H1518 H 0.10912 0.18239 0.75758 0.0
H1519 H 0.15662 0.0822 0.81628 0.0
H1520 H 0.15369 0.1333 0.75336 0.0
H1521 H 0.10503 0.1245 0.81327 0.0
C1522 C 0.09177 0.15395 0.80262 0.0
C1523 C 0.093 0.17092 0.78743 0.0
C1524 C 0.15416 0.12195 0.76703 0.0
C1525 C 0.12121 0.13716 0.78388 0.0
C1526 C 0.17152 0.10859 0.76886 0.0
C1527 C 0.17299 0.09425 0.78686 0.0
C1528 C 0.1382 0.1211 0.78341 0.0
C1529 C 0.15612 0.093 0.80212 0.0
C1530 C 0.1058 0.13706 0.80089 0.0
C1531 C 0.1079 0.16986 0.76995 0.0
N1532 N 0.13955 0.10646 0.80022 0.0
N1533 N 0.12154 0.15339 0.76879 0.0
H1534 H 0.1822 0.8923 0.24092 0.0
H1535 H 0.08313 0.84413 0.178 0.0
H1536 H 0.15428 0.92065 0.18173 0.0
H1537 H 0.10271 0.82418 0.24453 0.0
H1538 H 0.10735 0.87384 0.18046 0.0
H1539 H 0.15179 0.869 0.24413 0.0
C1540 C 0.16952 0.89394 0.22883 0.0
C1541 C 0.17098 0.90834 0.21085 0.0
C1542 C 0.10618 0.86311 0.19464 0.0
C1543 C 0.13626 0.88128 0.21416 0.0
C1544 C 0.0922 0.84617 0.19333 0.0
C1545 C 0.09097 0.83141 0.21099 0.0
C1546 C 0.11923 0.86526 0.21365 0.0
C1547 C 0.10346 0.83482 0.23026 0.0
C1548 C 0.15219 0.8805 0.2306 0.0
C1549 C 0.1541 0.90947 0.19555 0.0
N1550 N 0.11724 0.85123 0.23095 0.0
N1551 N 0.13759 0.89594 0.1974 0.0
H1552 H 0.18463 0.55152 0.22363 0.0
H1553 H 0.111 0.65012 0.25359 0.0
H1554 H 0.17073 0.57231 0.29146 0.0
H1555 H 0.1259 0.63188 0.18515 0.0
H1556 H 0.13402 0.62232 0.26747 0.0
H1557 H 0.16412 0.58123 0.2089 0.0
C1558 C 0.17732 0.56234 0.23542 0.0
C1559 C 0.17945 0.55941 0.25883 0.0
C1560 C 0.13236 0.62442 0.2494 0.0
C1561 C 0.15603 0.59345 0.2421 0.0
C1562 C 0.1193 0.64043 0.24144 0.0
C1563 C 0.11652 0.64344 0.21813 0.0
C1564 C 0.14273 0.61115 0.234 0.0
C1565 C 0.12737 0.63 0.20325 0.0
C1566 C 0.16569 0.57934 0.227 0.0
C1567 C 0.16982 0.57408 0.2733 0.0
N1568 N 0.13997 0.61441 0.21144 0.0
N1569 N 0.15849 0.59036 0.26471 0.0
H1570 H 0.57625 0.81191 0.71277 0.0
H1571 H 0.63762 0.86558 0.81552 0.0
H1572 H 0.5489 0.81682 0.77924 0.0
H1573 H 0.64488 0.88557 0.74635 0.0
H1574 H 0.60997 0.84076 0.80346 0.0
H1575 H 0.60694 0.83179 0.7261 0.0
C1576 C 0.57692 0.81684 0.73029 0.0
C1577 C 0.56008 0.81279 0.74496 0.0
C1578 C 0.61774 0.85052 0.79097 0.0
C1579 C 0.59496 0.83548 0.76022 0.0
C1580 C 0.63348 0.86456 0.7978 0.0
C1581 C 0.64332 0.87763 0.78187 0.0
C1582 C 0.61223 0.84931 0.76803 0.0
C1583 C 0.63747 0.87585 0.75912 0.0
C1584 C 0.59431 0.8283 0.7378 0.0
C1585 C 0.56156 0.81975 0.76741 0.0
N1586 N 0.62234 0.86189 0.75285 0.0
N1587 N 0.57873 0.83079 0.7744 0.0
H1588 H 0.8832 0.3777 0.17899 0.0
H1589 H 0.80664 0.42047 0.27612 0.0
H1590 H 0.86964 0.34352 0.24041 0.0
H1591 H 0.82975 0.459 0.22137 0.0
H1592 H 0.82499 0.39006 0.25999 0.0
H1593 H 0.85933 0.40565 0.19129 0.0
C1594 C 0.87519 0.37602 0.19504 0.0
C1595 C 0.87866 0.35829 0.20879 0.0
C1596 C 0.82591 0.40513 0.25141 0.0
C1597 C 0.85109 0.39017 0.22283 0.0
C1598 C 0.81532 0.42246 0.26052 0.0
C1599 C 0.8168 0.44233 0.25015 0.0
C1600 C 0.83801 0.40767 0.23174 0.0
C1601 C 0.82846 0.44404 0.23009 0.0
C1602 C 0.86148 0.39196 0.20199 0.0
C1603 C 0.86739 0.35679 0.22916 0.0
N1604 N 0.8387 0.42696 0.2216 0.0
N1605 N 0.85424 0.37258 0.23562 0.0
H1606 H 0.41613 0.20253 0.72736 0.0
H1607 H 0.3861 0.10917 0.81218 0.0
H1608 H 0.46075 0.17219 0.77171 0.0
H1609 H 0.34042 0.14286 0.77205 0.0
H1610 H 0.41332 0.13357 0.79919 0.0
H1611 H 0.38778 0.18242 0.74519 0.0
C1612 C 0.41993 0.19175 0.74096 0.0
C1613 C 0.44085 0.18896 0.74798 0.0
C1614 C 0.39731 0.13575 0.79336 0.0
C1615 C 0.40851 0.16585 0.76843 0.0
C1616 C 0.3818 0.12176 0.80068 0.0
C1617 C 0.36099 0.1239 0.79306 0.0
C1618 C 0.39206 0.15192 0.77813 0.0
C1619 C 0.35623 0.1407 0.77846 0.0
C1620 C 0.40374 0.18032 0.75119 0.0
C1621 C 0.44484 0.17498 0.76588 0.0
N1622 N 0.37168 0.15395 0.77131 0.0
N1623 N 0.42886 0.16381 0.77533 0.0
H1624 H 0.18248 0.42125 0.71696 0.0
H1625 H 0.11582 0.37485 0.82016 0.0
H1626 H 0.17757 0.45234 0.78167 0.0
H1627 H 0.12348 0.3431 0.75616 0.0
H1628 H 0.13987 0.4025 0.80727 0.0
H1629 H 0.1628 0.39144 0.73205 0.0
C1630 C 0.17755 0.42171 0.73446 0.0
C1631 C 0.18171 0.43941 0.74804 0.0
C1632 C 0.1364 0.3894 0.79611 0.0
C1633 C 0.15867 0.40536 0.76534 0.0
C1634 C 0.12259 0.37366 0.80342 0.0
C1635 C 0.11753 0.35667 0.78918 0.0
C1636 C 0.14514 0.38821 0.77436 0.0
C1637 C 0.12705 0.35579 0.7678 0.0
C1638 C 0.16614 0.4047 0.74303 0.0
C1639 C 0.17448 0.43919 0.77047 0.0
N1640 N 0.14027 0.37139 0.761 0.0
N1641 N 0.16322 0.4225 0.77838 0.0
H1642 H 0.34924 0.84901 0.2065 0.0
H1643 H 0.45262 0.84463 0.28281 0.0
H1644 H 0.38202 0.90431 0.23044 0.0
H1645 H 0.43392 0.79233 0.24064 0.0
H1646 H 0.42408 0.86568 0.26694 0.0
H1647 H 0.37765 0.82686 0.2218 0.0
C1648 C 0.36242 0.85645 0.21496 0.0
C1649 C 0.36338 0.8785 0.21713 0.0
C1650 C 0.42618 0.8496 0.26113 0.0
C1651 C 0.39564 0.85341 0.23474 0.0
C1652 C 0.44236 0.83753 0.27031 0.0
C1653 C 0.44553 0.81668 0.2631 0.0
C1654 C 0.41288 0.84074 0.24474 0.0
C1655 C 0.43201 0.80838 0.24657 0.0
C1656 C 0.37862 0.84385 0.22356 0.0
C1657 C 0.3808 0.8874 0.22815 0.0
N1658 N 0.41615 0.82042 0.238 0.0
N1659 N 0.39616 0.87482 0.23665 0.0
H1660 H 0.81085 0.57174 0.71417 0.0
H1661 H 0.88118 0.61992 0.81386 0.0
H1662 H 0.83003 0.5358 0.77256 0.0
H1663 H 0.87593 0.64809 0.74775 0.0
H1664 H 0.85798 0.59124 0.80149 0.0
H1665 H 0.82998 0.60227 0.72896 0.0
C1666 C 0.81885 0.57038 0.73026 0.0
C1667 C 0.81892 0.5512 0.74213 0.0
C1668 C 0.86186 0.60374 0.78974 0.0
C1669 C 0.84099 0.58599 0.75903 0.0
C1670 C 0.87499 0.62015 0.79681 0.0
C1671 C 0.88055 0.63631 0.78175 0.0
C1672 C 0.85407 0.60365 0.76753 0.0
C1673 C 0.87224 0.63578 0.75979 0.0
C1674 C 0.8299 0.58774 0.7386 0.0
C1675 C 0.82978 0.55023 0.76276 0.0
N1676 N 0.85941 0.61971 0.75334 0.0
N1677 N 0.84041 0.56738 0.77056 0.0
H1678 H 0.6356 0.10379 0.25132 0.0
H1679 H 0.55591 0.19858 0.22617 0.0
H1680 H 0.63679 0.13948 0.18926 0.0
H1681 H 0.56221 0.16805 0.291 0.0
H1682 H 0.5853 0.17731 0.21197 0.0
H1683 H 0.60845 0.12735 0.26584 0.0
C1684 C 0.63007 0.11659 0.24072 0.0
C1685 C 0.63832 0.11958 0.21898 0.0
C1686 C 0.58034 0.17542 0.22935 0.0
C1687 C 0.60726 0.14676 0.23555 0.0
C1688 C 0.56352 0.18747 0.23743 0.0
C1689 C 0.5566 0.18512 0.25982 0.0
C1690 C 0.59016 0.16076 0.24371 0.0
C1691 C 0.56716 0.17063 0.27373 0.0
C1692 C 0.61466 0.13012 0.24907 0.0
C1693 C 0.63088 0.13666 0.20614 0.0
N1694 N 0.58329 0.15894 0.26541 0.0
N1695 N 0.61564 0.14954 0.21456 0.0
H1696 H 0.6754 0.03885 0.7133 0.0
H1697 H 0.63214 0.15549 0.73523 0.0
H1698 H 0.69343 0.07718 0.77041 0.0
H1699 H 0.61654 0.11866 0.67617 0.0
H1700 H 0.65687 0.1281 0.74676 0.0
H1701 H 0.65578 0.0688 0.69798 0.0
C1702 C 0.67533 0.05362 0.72255 0.0
C1703 C 0.68596 0.05547 0.74324 0.0
C1704 C 0.64816 0.12606 0.73119 0.0
C1705 C 0.66353 0.08983 0.72581 0.0
C1706 C 0.63411 0.14179 0.7245 0.0
C1707 C 0.6221 0.13936 0.70475 0.0
C1708 C 0.6502 0.10767 0.71811 0.0
C1709 C 0.62514 0.12105 0.69175 0.0
C1710 C 0.66418 0.07073 0.71376 0.0
C1711 C 0.6856 0.07507 0.75432 0.0
N1712 N 0.63878 0.10587 0.69873 0.0
N1713 N 0.67441 0.09141 0.74557 0.0
H1714 H 0.15992 0.3628 0.26031 0.0
H1715 H 0.04237 0.32129 0.27597 0.0
H1716 H 0.12064 0.3798 0.31699 0.0
H1717 H 0.0845 0.29839 0.22427 0.0
H1718 H 0.07143 0.3411 0.29263 0.0
H1719 H 0.13319 0.33766 0.24812 0.0
C1720 C 0.14581 0.36107 0.2704 0.0
C1721 C 0.14253 0.37357 0.28969 0.0
C1722 C 0.07437 0.33158 0.27776 0.0
C1723 C 0.11159 0.34498 0.27551 0.0
C1724 C 0.0578 0.32011 0.26832 0.0
C1725 C 0.06092 0.30823 0.24857 0.0
C1726 C 0.09422 0.3313 0.26733 0.0
C1727 C 0.08125 0.30763 0.23925 0.0
C1728 C 0.13047 0.34677 0.26333 0.0
C1729 C 0.12371 0.37082 0.30179 0.0
N1730 N 0.09706 0.31914 0.24859 0.0
N1731 N 0.10891 0.35693 0.29442 0.0
H1732 H 0.33966 0.96695 0.73586 0.0
H1733 H 0.35287 0.84304 0.71426 0.0
H1734 H 0.2962 0.92076 0.76223 0.0
H1735 H 0.40334 0.88839 0.70776 0.0
H1736 H 0.3295 0.87155 0.7265 0.0
H1737 H 0.36039 0.9385 0.7192 0.0
C1738 C 0.33429 0.95083 0.73784 0.0
C1739 C 0.31619 0.94621 0.75048 0.0
C1740 C 0.34568 0.87519 0.72227 0.0
C1741 C 0.34003 0.91352 0.73171 0.0
C1742 C 0.35909 0.85893 0.7154 0.0
C1743 C 0.38021 0.86322 0.70998 0.0
C1744 C 0.35336 0.89593 0.72354 0.0
C1745 C 0.38716 0.88425 0.71135 0.0
C1746 C 0.34624 0.93458 0.72851 0.0
C1747 C 0.31017 0.92498 0.7528 0.0
N1748 N 0.37379 0.89977 0.71799 0.0
N1749 N 0.3221 0.90939 0.74354 0.0
H1750 H 0.87075 0.62779 0.31677 0.0
H1751 H 0.91459 0.69542 0.21267 0.0
H1752 H 0.84054 0.63082 0.2515 0.0
H1753 H 0.95028 0.68318 0.27334 0.0
H1754 H 0.88495 0.67606 0.22881 0.0
H1755 H 0.89772 0.65219 0.30317 0.0
C1756 C 0.86974 0.6336 0.2996 0.0
C1757 C 0.85339 0.62706 0.28523 0.0
C1758 C 0.89922 0.67774 0.23866 0.0
C1759 C 0.88412 0.65522 0.26963 0.0
C1760 C 0.91619 0.68873 0.22942 0.0
C1761 C 0.93508 0.69076 0.24155 0.0
C1762 C 0.90109 0.6687 0.26022 0.0
C1763 C 0.93602 0.68216 0.2634 0.0
C1764 C 0.8851 0.64761 0.29189 0.0
C1765 C 0.85268 0.63552 0.26329 0.0
N1766 N 0.91933 0.67138 0.27196 0.0
N1767 N 0.86788 0.64904 0.25615 0.0
H1768 H 0.68762 0.92341 0.21099 0.0
H1769 H 0.62501 0.87225 0.31483 0.0
H1770 H 0.67741 0.95556 0.27432 0.0
H1771 H 0.62364 0.84706 0.24711 0.0
H1772 H 0.64813 0.90064 0.30176 0.0
H1773 H 0.66836 0.89289 0.22562 0.0
C1774 C 0.68159 0.92391 0.2281 0.0
C1775 C 0.68407 0.94204 0.24146 0.0
C1776 C 0.64281 0.88887 0.28978 0.0
C1777 C 0.66182 0.90731 0.25819 0.0
C1778 C 0.62971 0.87262 0.29724 0.0
C1779 C 0.62233 0.85735 0.282 0.0
C1780 C 0.64872 0.88976 0.26694 0.0
C1781 C 0.62875 0.85869 0.25936 0.0
C1782 C 0.67045 0.90657 0.23636 0.0
C1783 C 0.67566 0.94196 0.26339 0.0
N1784 N 0.64158 0.87461 0.25251 0.0
N1785 N 0.66487 0.92488 0.27106 0.0
H1786 H 0.83732 0.36022 0.74174 0.0
H1787 H 0.95198 0.31347 0.72328 0.0
H1788 H 0.87135 0.36641 0.67892 0.0
H1789 H 0.912 0.29565 0.77911 0.0
H1790 H 0.92227 0.33173 0.70601 0.0
H1791 H 0.86394 0.33553 0.75508 0.0
C1792 C 0.85019 0.35617 0.73056 0.0
C1793 C 0.85209 0.36557 0.70916 0.0
C1794 C 0.91993 0.32363 0.72193 0.0
C1795 C 0.88299 0.33757 0.72465 0.0
C1796 C 0.93688 0.31305 0.73176 0.0
C1797 C 0.93459 0.30311 0.75283 0.0
C1798 C 0.90057 0.32447 0.73331 0.0
C1799 C 0.91466 0.30346 0.76311 0.0
C1800 C 0.86549 0.34213 0.73828 0.0
C1801 C 0.86941 0.35992 0.6957 0.0
N1802 N 0.8985 0.31415 0.75337 0.0
N1803 N 0.88428 0.34645 0.70374 0.0
H1804 H 0.36896 0.15686 0.2502 0.0
H1805 H 0.32872 0.04023 0.27736 0.0
H1806 H 0.3813 0.12505 0.31327 0.0
H1807 H 0.3076 0.07627 0.21983 0.0
H1808 H 0.34748 0.07136 0.29125 0.0
H1809 H 0.34602 0.12768 0.23898 0.0
C1810 C 0.36681 0.14373 0.26169 0.0
C1811 C 0.37712 0.14332 0.28265 0.0
C1812 C 0.33858 0.07253 0.2757 0.0
C1813 C 0.35087 0.10989 0.26996 0.0
C1814 C 0.32793 0.05476 0.26774 0.0
C1815 C 0.31668 0.05565 0.24736 0.0
C1816 C 0.33819 0.0913 0.26306 0.0
C1817 C 0.31596 0.07493 0.2357 0.0
C1818 C 0.35362 0.12714 0.25535 0.0
C1819 C 0.37354 0.12607 0.29703 0.0
N1820 N 0.32676 0.09193 0.24359 0.0
N1821 N 0.36085 0.10996 0.29034 0.0
H1822 H 0.12172 0.62023 0.68405 0.0
H1823 H 0.08118 0.69717 0.78211 0.0
H1824 H 0.15527 0.63112 0.74643 0.0
H1825 H 0.04224 0.67633 0.72663 0.0
H1826 H 0.11065 0.6774 0.76618 0.0
H1827 H 0.09451 0.64487 0.69656 0.0
C1828 C 0.1234 0.62779 0.70036 0.0
C1829 C 0.14079 0.62341 0.71427 0.0
C1830 C 0.0957 0.67729 0.75741 0.0
C1831 C 0.1098 0.65189 0.72853 0.0
C1832 C 0.07883 0.68853 0.76652 0.0
C1833 C 0.05909 0.68825 0.75585 0.0
C1834 C 0.09286 0.66568 0.73743 0.0
C1835 C 0.05716 0.67714 0.7354 0.0
C1836 C 0.10791 0.64195 0.70743 0.0
C1837 C 0.14231 0.6341 0.73501 0.0
N1838 N 0.07378 0.66617 0.72696 0.0
N1839 N 0.12698 0.64774 0.74154 0.0
H1840 H 0.21528 0.54306 0.54925 0.0
H1841 H 0.22145 0.4537 0.45495 0.0
H1842 H 0.23193 0.47845 0.56442 0.0
H1843 H 0.2288 0.52006 0.43994 0.0
H1844 H 0.22154 0.46213 0.49519 0.0
H1845 H 0.21635 0.53459 0.50905 0.0
C1846 C 0.21932 0.52713 0.54421 0.0
C1847 C 0.22357 0.51148 0.56041 0.0
C1848 C 0.22318 0.47481 0.48304 0.0
C1849 C 0.22432 0.50161 0.51429 0.0
C1850 C 0.22326 0.47002 0.46003 0.0
C1851 C 0.22513 0.48617 0.44387 0.0
C1852 C 0.22473 0.49592 0.49002 0.0
C1853 C 0.22693 0.50708 0.45164 0.0
C1854 C 0.2198 0.52231 0.52122 0.0
C1855 C 0.22819 0.49099 0.55269 0.0
N1856 N 0.22659 0.51134 0.47413 0.0
N1857 N 0.22836 0.48665 0.53021 0.0
H1858 H 0.48363 0.76755 0.43724 0.0
H1859 H 0.52329 0.78794 0.56283 0.0
H1860 H 0.54955 0.77135 0.45416 0.0
H1861 H 0.46321 0.75924 0.54768 0.0
H1862 H 0.53256 0.78564 0.52284 0.0
H1863 H 0.47498 0.76857 0.47754 0.0
C1864 C 0.49626 0.76864 0.44948 0.0
C1865 C 0.51731 0.76937 0.44245 0.0
C1866 C 0.51738 0.77982 0.52836 0.0
C1867 C 0.50758 0.77065 0.48844 0.0
C1868 C 0.51208 0.78102 0.55121 0.0
C1869 C 0.49237 0.77383 0.55878 0.0
C1870 C 0.50278 0.77163 0.51287 0.0
C1871 C 0.47839 0.76541 0.5427 0.0
C1872 C 0.49134 0.76911 0.47243 0.0
C1873 C 0.53312 0.7706 0.45896 0.0
N1874 N 0.48382 0.76466 0.52053 0.0
N1875 N 0.52793 0.77136 0.48122 0.0
H1876 H 0.74244 0.51902 0.44468 0.0
H1877 H 0.80933 0.49252 0.55431 0.0
H1878 H 0.80787 0.50145 0.44057 0.0
H1879 H 0.74341 0.47698 0.54956 0.0
H1880 H 0.80925 0.50185 0.51402 0.0
H1881 H 0.74254 0.50962 0.48495 0.0
C1882 C 0.75682 0.51326 0.45234 0.0
C1883 C 0.77517 0.51093 0.43944 0.0
C1884 C 0.79484 0.49636 0.52183 0.0
C1885 C 0.77547 0.50048 0.48522 0.0
C1886 C 0.79485 0.49115 0.54474 0.0
C1887 C 0.77636 0.48396 0.55509 0.0
C1888 C 0.77608 0.4948 0.50942 0.0
C1889 C 0.758 0.48235 0.54206 0.0
C1890 C 0.75684 0.50782 0.47519 0.0
C1891 C 0.7934 0.50332 0.45001 0.0
N1892 N 0.75826 0.48791 0.51988 0.0
N1893 N 0.79316 0.49851 0.47239 0.0
H1894 H 0.48153 0.19335 0.44279 0.0
H1895 H 0.51075 0.25992 0.55337 0.0
H1896 H 0.48965 0.26104 0.44307 0.0
H1897 H 0.50994 0.19177 0.55128 0.0
H1898 H 0.50233 0.26067 0.51315 0.0
H1899 H 0.4912 0.19247 0.4827 0.0
C1900 C 0.48549 0.20803 0.45118 0.0
C1901 C 0.48476 0.22731 0.43949 0.0
C1902 C 0.50403 0.24555 0.52148 0.0
C1903 C 0.49558 0.22643 0.48535 0.0
C1904 C 0.50896 0.2451 0.54444 0.0
C1905 C 0.51108 0.22574 0.55579 0.0
C1906 C 0.50112 0.22652 0.50971 0.0
C1907 C 0.50818 0.20707 0.54336 0.0
C1908 C 0.4909 0.20751 0.47402 0.0
C1909 C 0.48969 0.24584 0.45142 0.0
N1910 N 0.50333 0.20792 0.52102 0.0
N1911 N 0.49487 0.24494 0.47367 0.0
H1912 H 0.75582 0.01483 0.05124 0.0
H1913 H 0.68962 0.00028 0.93711 0.0
H1914 H 0.68857 0.02366 0.04698 0.0
H1915 H 0.75645 0.98896 0.94209 0.0
H1916 H 0.68912 0.01017 0.977 0.0
H1917 H 0.75657 0.00673 0.01091 0.0
C1918 C 0.74123 0.01524 0.04179 0.0
C1919 C 0.72209 0.01991 0.05254 0.0
C1920 C 0.7039 0.00553 0.96937 0.0
C1921 C 0.72281 0.0104 0.00636 0.0
C1922 C 0.70422 -1e-05 0.94656 0.0
C1923 C 0.72311 0.99375 0.93622 0.0
C1924 C 0.72262 0.00491 0.98199 0.0
C1925 C 0.74148 0.99339 0.94941 0.0
C1926 C 0.74165 0.01047 0.01878 0.0
C1927 C 0.70364 0.01988 0.03948 0.0
N1928 N 0.74077 0.99889 0.97158 0.0
N1929 N 0.70446 0.01519 0.01709 0.0
H1930 H 0.00863 0.23725 0.94498 0.0
H1931 H 0.98745 0.30709 0.05542 0.0
H1932 H 0.0112 0.30536 0.94591 0.0
H1933 H 0.98918 0.23895 0.0558 0.0
H1934 H 0.99554 0.30671 0.01513 0.0
H1935 H 0.001 0.23748 0.98543 0.0
C1936 C 0.00773 0.25226 0.9537 0.0
C1937 C 0.01056 0.27132 0.94199 0.0
C1938 C 0.99416 0.29183 0.02401 0.0
C1939 C 0.00157 0.2717 0.98829 0.0
C1940 C 0.98964 0.29204 0.04707 0.0
C1941 C 0.98768 0.27302 0.05907 0.0
C1942 C 0.99672 0.27247 0.01279 0.0
C1943 C 0.9903 0.25399 0.04721 0.0
C1944 C 0.00325 0.25237 0.97678 0.0
C1945 C 0.00885 0.29029 0.95414 0.0
N1946 N 0.99471 0.2542 0.02474 0.0
N1947 N 0.00447 0.28999 0.9766 0.0
H1948 H 0.30842 0.01701 0.9483 0.0
H1949 H 0.2458 0.96985 0.05337 0.0
H1950 H 0.24154 0.00545 0.94645 0.0
H1951 H 0.30435 0.00368 0.06054 0.0
H1952 H 0.24521 0.97911 0.01315 0.0
H1953 H 0.30854 0.00854 0.98867 0.0
C1954 C 0.29377 0.01263 0.95643 0.0
C1955 C 0.27494 0.01188 0.9441 0.0
C1956 C 0.25814 0.98455 0.02356 0.0
C1957 C 0.27497 0.00212 0.99011 0.0
C1958 C 0.25855 0.97918 0.04642 0.0
C1959 C 0.27515 0.98603 0.06021 0.0
C1960 C 0.27463 0.99656 0.01439 0.0
C1961 C 0.29119 0.99823 0.05048 0.0
C1962 C 0.29383 0.00793 0.97944 0.0
C1963 C 0.25636 0.00633 0.95543 0.0
N1964 N 0.29062 0.00299 0.02811 0.0
N1965 N 0.25685 0.00149 0.9778 0.0
H1966 H 0.96999 0.6921 0.94844 0.0
H1967 H 0.01606 0.75841 0.05212 0.0
H1968 H 0.99834 0.7537 0.94107 0.0
H1969 H 0.00134 0.69193 0.05608 0.0
H1970 H 0.00738 0.75781 0.01197 0.0
H1971 H 0.97903 0.69259 0.98851 0.0
C1972 C 0.97822 0.70569 0.95517 0.0
C1973 C 0.98343 0.72287 0.94125 0.0
C1974 C 0.00608 0.74335 0.02163 0.0
C1975 C 0.99353 0.72365 0.9873 0.0
C1976 C 0.01115 0.74364 0.04456 0.0
C1977 C 0.00949 0.72518 0.0576 0.0
C1978 C 0.99914 0.7245 0.0116 0.0
C1979 C 0.00258 0.70663 0.04686 0.0
C1980 C 0.98328 0.70599 0.97811 0.0
C1981 C 0.99371 0.74022 0.95114 0.0
N1982 N 0.99764 0.70678 0.02452 0.0
N1983 N 0.9984 0.74017 0.97354 0.0
loop_
_geom_bond_atom_site_label_1
_geom_bond_atom_site_label_2
_geom_bond_distance
_geom_bond_site_symmetry_2
_ccdc_geom_bond_type
Li0 N17 1.990 . S
Li0 O60 1.956 . S
Li0 O61 1.970 . S
Li0 O62 1.961 . S
Li1 N25 1.990 . S
Li1 O60 1.970 . S
Li1 O61 1.956 . S
Li1 O63 1.961 . S
Li2 N47 1.990 . S
Li2 O60 1.961 . S
Li2 O62 1.956 . S
Li2 O63 1.970 . S
Li3 N53 1.990 . S
Li3 O61 1.961 . S
Li3 O62 1.970 . S
Li3 O63 1.956 . S
C4 C6 1.348 . S
C4 C7 1.356 . S
C4 O60 1.325 . S
N5 C8 1.314 . S
N5 C9 1.279 . S
C6 C4 1.348 . S
C6 C8 1.353 . S
C6 H64 0.929 . S
C7 C4 1.356 . S
C7 C9 1.358 . S
C7 H65 0.930 . S
C8 N5 1.314 . S
C8 C6 1.353 . S
C8 H66 0.930 . S
C9 N5 1.279 . S
C9 C7 1.358 . S
C9 H67 0.930 . S
C10 C13 1.348 . S
C10 C14 1.356 . S
C10 O61 1.325 . S
C11 N12 1.279 . S
C11 C14 1.358 . S
C11 H68 0.930 . S
N12 C11 1.279 . S
N12 C15 1.314 . S
C13 C10 1.348 . S
C13 C15 1.353 . S
C13 H69 0.929 . S
C14 C10 1.356 . S
C14 C11 1.358 . S
C14 H70 0.930 . S
C15 N12 1.314 . S
C15 C13 1.353 . S
C15 H71 0.930 . S
C16 N17 1.314 . S
C16 C21 1.353 . S
C16 H22 0.930 . S
N17 Li0 1.990 . S
N17 C16 1.314 . S
N17 C19 1.279 . S
C18 C19 1.358 . S
C18 C20 1.356 . S
C18 H72 0.930 . S
C19 N17 1.279 . S
C19 C18 1.358 . S
C19 H23 0.930 . S
C20 C18 1.356 . S
C20 C21 1.348 . S
C21 C16 1.353 . S
C21 C20 1.348 . S
C21 H73 0.929 . S
H22 C16 0.930 . S
H23 C19 0.930 . S
C24 N25 1.314 . S
C24 C26 1.353 . S
C24 H30 0.930 . S
N25 Li1 1.990 . S
N25 C24 1.314 . S
N25 C28 1.279 . S
C26 C24 1.353 . S
C26 C29 1.348 . S
C26 H74 0.929 . S
C27 C28 1.358 . S
C27 C29 1.356 . S
C27 H75 0.930 . S
C28 N25 1.279 . S
C28 C27 1.358 . S
C28 H31 0.930 . S
C29 C26 1.348 . S
C29 C27 1.356 . S
H30 C24 0.930 . S
H31 C28 0.930 . S
C32 C34 1.348 . S
C32 C35 1.356 . S
C32 O62 1.325 . S
N33 C36 1.314 . S
N33 C37 1.279 . S
C34 C32 1.348 . S
C34 C36 1.353 . S
C34 H76 0.929 . S
C35 C32 1.356 . S
C35 C37 1.358 . S
C35 H77 0.930 . S
C36 N33 1.314 . S
C36 C34 1.353 . S
C36 H78 0.930 . S
C37 N33 1.279 . S
C37 C35 1.358 . S
C37 H79 0.930 . S
C38 C39 1.348 . S
C38 C40 1.356 . S
C38 O63 1.325 . S
C39 C38 1.348 . S
C39 C41 1.353 . S
C39 H80 0.929 . S
C40 C38 1.356 . S
C40 C42 1.358 . S
C40 H81 0.930 . S
C41 C39 1.353 . S
C41 N43 1.314 . S
C41 H82 0.930 . S
C42 C40 1.358 . S
C42 N43 1.279 . S
C42 H83 0.930 . S
N43 C41 1.314 . S
N43 C42 1.279 . S
C44 C46 1.353 . S
C44 N47 1.314 . S
C44 H50 0.930 . S
C45 N47 1.279 . S
C45 C48 1.358 . S
C45 H51 0.930 . S
C46 C44 1.353 . S
C46 C49 1.348 . S
C46 H84 0.929 . S
N47 Li2 1.990 . S
N47 C44 1.314 . S
N47 C45 1.279 . S
C48 C45 1.358 . S
C48 C49 1.356 . S
C48 H85 0.930 . S
C49 C46 1.348 . S
C49 C48 1.356 . S
H50 C44 0.930 . S
H51 C45 0.930 . S
C52 N53 1.314 . S
C52 C54 1.353 . S
C52 H58 0.930 . S
N53 Li3 1.990 . S
N53 C52 1.314 . S
N53 C56 1.279 . S
C54 C52 1.353 . S
C54 C57 1.348 . S
C54 H86 0.929 . S
C55 C56 1.358 . S
C55 C57 1.356 . S
C55 H87 0.930 . S
C56 N53 1.279 . S
C56 C55 1.358 . S
C56 H59 0.930 . S
C57 C54 1.348 . S
C57 C55 1.356 . S
H58 C52 0.930 . S
H59 C56 0.930 . S
O60 Li0 1.956 . S
O60 Li1 1.970 . S
O60 Li2 1.961 . S
O60 C4 1.325 . S
O61 Li0 1.970 . S
O61 Li1 1.956 . S
O61 Li3 1.961 . S
O61 C10 1.325 . S
O62 Li0 1.961 . S
O62 Li2 1.956 . S
O62 Li3 1.970 . S
O62 C32 1.325 . S
O63 Li1 1.961 . S
O63 Li2 1.970 . S
O63 Li3 1.956 . S
O63 C38 1.325 . S
H64 C6 0.929 . S
H65 C7 0.930 . S
H66 C8 0.930 . S
H67 C9 0.930 . S
H68 C11 0.930 . S
H69 C13 0.929 . S
H70 C14 0.930 . S
H71 C15 0.930 . S
H72 C18 0.930 . S
H73 C21 0.929 . S
H74 C26 0.929 . S
H75 C27 0.930 . S
H76 C34 0.929 . S
H77 C35 0.930 . S
H78 C36 0.930 . S
H79 C37 0.930 . S
H80 C39 0.929 . S
H81 C40 0.930 . S
H82 C41 0.930 . S
H83 C42 0.930 . S
H84 C46 0.929 . S
H85 C48 0.930 . S
H86 C54 0.929 . S
H87 C55 0.930 . S
Li88 N105 1.990 . S
Li88 O148 1.956 . S
Li88 O149 1.970 . S
Li88 O150 1.961 . S
Li89 N113 1.990 . S
Li89 O148 1.970 . S
Li89 O149 1.956 . S
Li89 O151 1.961 . S
Li90 N135 1.990 . S
Li90 O148 1.961 . S
Li90 O150 1.956 . S
Li90 O151 1.970 . S
Li91 N141 1.990 . S
Li91 O149 1.961 . S
Li91 O150 1.970 . S
Li91 O151 1.956 . S
C92 C94 1.348 . S
C92 C95 1.356 . S
C92 O148 1.325 . S
N93 C96 1.314 . S
N93 C97 1.279 . S
C94 C92 1.348 . S
C94 C96 1.353 . S
C94 H152 0.929 . S
C95 C92 1.356 . S
C95 C97 1.358 . S
C95 H153 0.930 . S
C96 N93 1.314 . S
C96 C94 1.353 . S
C96 H154 0.930 . S
C97 N93 1.279 . S
C97 C95 1.358 . S
C97 H155 0.930 . S
C98 C101 1.348 . S
C98 C102 1.356 . S
C98 O149 1.325 . S
C99 N100 1.279 . S
C99 C102 1.358 . S
C99 H156 0.930 . S
N100 C99 1.279 . S
N100 C103 1.314 . S
C101 C98 1.348 . S
C101 C103 1.353 . S
C101 H157 0.929 . S
C102 C98 1.356 . S
C102 C99 1.358 . S
C102 H158 0.930 . S
C103 N100 1.314 . S
C103 C101 1.353 . S
C103 H159 0.930 . S
C104 N105 1.314 . S
C104 C109 1.353 . S
C104 H110 0.930 . S
N105 Li88 1.990 . S
N105 C104 1.314 . S
N105 C107 1.279 . S
C106 C107 1.358 . S
C106 C108 1.356 . S
C106 H160 0.930 . S
C107 N105 1.279 . S
C107 C106 1.358 . S
C107 H111 0.930 . S
C108 C106 1.356 . S
C108 C109 1.348 . S
C109 C104 1.353 . S
C109 C108 1.348 . S
C109 H161 0.929 . S
H110 C104 0.930 . S
H111 C107 0.930 . S
C112 N113 1.314 . S
C112 C114 1.353 . S
C112 H118 0.930 . S
N113 Li89 1.990 . S
N113 C112 1.314 . S
N113 C116 1.279 . S
C114 C112 1.353 . S
C114 C117 1.348 . S
C114 H162 0.929 . S
C115 C116 1.358 . S
C115 C117 1.356 . S
C115 H163 0.930 . S
C116 N113 1.279 . S
C116 C115 1.358 . S
C116 H119 0.930 . S
C117 C114 1.348 . S
C117 C115 1.356 . S
H118 C112 0.930 . S
H119 C116 0.930 . S
C120 C122 1.348 . S
C120 C123 1.356 . S
C120 O150 1.325 . S
N121 C124 1.314 . S
N121 C125 1.279 . S
C122 C120 1.348 . S
C122 C124 1.353 . S
C122 H164 0.929 . S
C123 C120 1.356 . S
C123 C125 1.358 . S
C123 H165 0.930 . S
C124 N121 1.314 . S
C124 C122 1.353 . S
C124 H166 0.930 . S
C125 N121 1.279 . S
C125 C123 1.358 . S
C125 H167 0.930 . S
C126 C127 1.348 . S
C126 C128 1.356 . S
C126 O151 1.325 . S
C127 C126 1.348 . S
C127 C129 1.353 . S
C127 H168 0.929 . S
C128 C126 1.356 . S
C128 C130 1.358 . S
C128 H169 0.930 . S
C129 C127 1.353 . S
C129 N131 1.314 . S
C129 H170 0.930 . S
C130 C128 1.358 . S
C130 N131 1.279 . S
C130 H171 0.930 . S
N131 C129 1.314 . S
N131 C130 1.279 . S
C132 C134 1.353 . S
C132 N135 1.314 . S
C132 H138 0.930 . S
C133 N135 1.279 . S
C133 C136 1.358 . S
C133 H139 0.930 . S
C134 C132 1.353 . S
C134 C137 1.348 . S
C134 H172 0.929 . S
N135 Li90 1.990 . S
N135 C132 1.314 . S
N135 C133 1.279 . S
C136 C133 1.358 . S
C136 C137 1.356 . S
C136 H173 0.930 . S
C137 C134 1.348 . S
C137 C136 1.356 . S
H138 C132 0.930 . S
H139 C133 0.930 . S
C140 N141 1.314 . S
C140 C142 1.353 . S
C140 H146 0.930 . S
N141 Li91 1.990 . S
N141 C140 1.314 . S
N141 C144 1.279 . S
C142 C140 1.353 . S
C142 C145 1.348 . S
C142 H174 0.929 . S
C143 C144 1.358 . S
C143 C145 1.356 . S
C143 H175 0.930 . S
C144 N141 1.279 . S
C144 C143 1.358 . S
C144 H147 0.930 . S
C145 C142 1.348 . S
C145 C143 1.356 . S
H146 C140 0.930 . S
H147 C144 0.930 . S
O148 Li88 1.956 . S
O148 Li89 1.970 . S
O148 Li90 1.961 . S
O148 C92 1.325 . S
O149 Li88 1.970 . S
O149 Li89 1.956 . S
O149 Li91 1.961 . S
O149 C98 1.325 . S
O150 Li88 1.961 . S
O150 Li90 1.956 . S
O150 Li91 1.970 . S
O150 C120 1.325 . S
O151 Li89 1.961 . S
O151 Li90 1.970 . S
O151 Li91 1.956 . S
O151 C126 1.325 . S
H152 C94 0.929 . S
H153 C95 0.930 . S
H154 C96 0.930 . S
H155 C97 0.930 . S
H156 C99 0.930 . S
H157 C101 0.929 . S
H158 C102 0.930 . S
H159 C103 0.930 . S
H160 C106 0.930 . S
H161 C109 0.929 . S
H162 C114 0.929 . S
H163 C115 0.930 . S
H164 C122 0.929 . S
H165 C123 0.930 . S
H166 C124 0.930 . S
H167 C125 0.930 . S
H168 C127 0.929 . S
H169 C128 0.930 . S
H170 C129 0.930 . S
H171 C130 0.930 . S
H172 C134 0.929 . S
H173 C136 0.930 . S
H174 C142 0.929 . S
H175 C143 0.930 . S
Li176 N193 1.990 . S
Li176 O236 1.956 . S
Li176 O237 1.970 . S
Li176 O238 1.961 . S
Li177 N201 1.990 . S
Li177 O236 1.970 . S
Li177 O237 1.956 . S
Li177 O239 1.961 . S
Li178 N223 1.990 . S
Li178 O236 1.961 . S
Li178 O238 1.956 . S
Li178 O239 1.970 . S
Li179 N229 1.990 . S
Li179 O237 1.961 . S
Li179 O238 1.970 . S
Li179 O239 1.956 . S
C180 C182 1.348 . S
C180 C183 1.356 . S
C180 O236 1.325 . S
N181 C184 1.314 . S
N181 C185 1.279 . S
C182 C180 1.348 . S
C182 C184 1.353 . S
C182 H240 0.929 . S
C183 C180 1.356 . S
C183 C185 1.358 . S
C183 H241 0.930 . S
C184 N181 1.314 . S
C184 C182 1.353 . S
C184 H242 0.930 . S
C185 N181 1.279 . S
C185 C183 1.358 . S
C185 H243 0.930 . S
C186 C189 1.348 . S
C186 C190 1.356 . S
C186 O237 1.325 . S
C187 N188 1.279 . S
C187 C190 1.358 . S
C187 H244 0.930 . S
N188 C187 1.279 . S
N188 C191 1.314 . S
C189 C186 1.348 . S
C189 C191 1.353 . S
C189 H245 0.929 . S
C190 C186 1.356 . S
C190 C187 1.358 . S
C190 H246 0.930 . S
C191 N188 1.314 . S
C191 C189 1.353 . S
C191 H247 0.930 . S
C192 N193 1.314 . S
C192 C197 1.353 . S
C192 H198 0.930 . S
N193 Li176 1.990 . S
N193 C192 1.314 . S
N193 C195 1.279 . S
C194 C195 1.358 . S
C194 C196 1.356 . S
C194 H248 0.930 . S
C195 N193 1.279 . S
C195 C194 1.358 . S
C195 H199 0.930 . S
C196 C194 1.356 . S
C196 C197 1.348 . S
C197 C192 1.353 . S
C197 C196 1.348 . S
C197 H249 0.929 . S
H198 C192 0.930 . S
H199 C195 0.930 . S
C200 N201 1.314 . S
C200 C202 1.353 . S
C200 H206 0.930 . S
N201 Li177 1.990 . S
N201 C200 1.314 . S
N201 C204 1.279 . S
C202 C200 1.353 . S
C202 C205 1.348 . S
C202 H250 0.929 . S
C203 C204 1.358 . S
C203 C205 1.356 . S
C203 H251 0.930 . S
C204 N201 1.279 . S
C204 C203 1.358 . S
C204 H207 0.930 . S
C205 C202 1.348 . S
C205 C203 1.356 . S
H206 C200 0.930 . S
H207 C204 0.930 . S
C208 C210 1.348 . S
C208 C211 1.356 . S
C208 O238 1.325 . S
N209 C212 1.314 . S
N209 C213 1.279 . S
C210 C208 1.348 . S
C210 C212 1.353 . S
C210 H252 0.929 . S
C211 C208 1.356 . S
C211 C213 1.358 . S
C211 H253 0.930 . S
C212 N209 1.314 . S
C212 C210 1.353 . S
C212 H254 0.930 . S
C213 N209 1.279 . S
C213 C211 1.358 . S
C213 H255 0.930 . S
C214 C215 1.348 . S
C214 C216 1.356 . S
C214 O239 1.325 . S
C215 C214 1.348 . S
C215 C217 1.353 . S
C215 H256 0.929 . S
C216 C214 1.356 . S
C216 C218 1.358 . S
C216 H257 0.930 . S
C217 C215 1.353 . S
C217 N219 1.314 . S
C217 H258 0.930 . S
C218 C216 1.358 . S
C218 N219 1.279 . S
C218 H259 0.930 . S
N219 C217 1.314 . S
N219 C218 1.279 . S
C220 C222 1.353 . S
C220 N223 1.314 . S
C220 H226 0.930 . S
C221 N223 1.279 . S
C221 C224 1.358 . S
C221 H227 0.930 . S
C222 C220 1.353 . S
C222 C225 1.348 . S
C222 H260 0.929 . S
N223 Li178 1.990 . S
N223 C220 1.314 . S
N223 C221 1.279 . S
C224 C221 1.358 . S
C224 C225 1.356 . S
C224 H261 0.930 . S
C225 C222 1.348 . S
C225 C224 1.356 . S
H226 C220 0.930 . S
H227 C221 0.930 . S
C228 N229 1.314 . S
C228 C230 1.353 . S
C228 H234 0.930 . S
N229 Li179 1.990 . S
N229 C228 1.314 . S
N229 C232 1.279 . S
C230 C228 1.353 . S
C230 C233 1.348 . S
C230 H262 0.929 . S
C231 C232 1.358 . S
C231 C233 1.356 . S
C231 H263 0.930 . S
C232 N229 1.279 . S
C232 C231 1.358 . S
C232 H235 0.930 . S
C233 C230 1.348 . S
C233 C231 1.356 . S
H234 C228 0.930 . S
H235 C232 0.930 . S
O236 Li176 1.956 . S
O236 Li177 1.970 . S
O236 Li178 1.961 . S
O236 C180 1.325 . S
O237 Li176 1.970 . S
O237 Li177 1.956 . S
O237 Li179 1.961 . S
O237 C186 1.325 . S
O238 Li176 1.961 . S
O238 Li178 1.956 . S
O238 Li179 1.970 . S
O238 C208 1.325 . S
O239 Li177 1.961 . S
O239 Li178 1.970 . S
O239 Li179 1.956 . S
O239 C214 1.325 . S
H240 C182 0.929 . S
H241 C183 0.930 . S
H242 C184 0.930 . S
H243 C185 0.930 . S
H244 C187 0.930 . S
H245 C189 0.929 . S
H246 C190 0.930 . S
H247 C191 0.930 . S
H248 C194 0.930 . S
H249 C197 0.929 . S
H250 C202 0.929 . S
H251 C203 0.930 . S
H252 C210 0.929 . S
H253 C211 0.930 . S
H254 C212 0.930 . S
H255 C213 0.930 . S
H256 C215 0.929 . S
H257 C216 0.930 . S
H258 C217 0.930 . S
H259 C218 0.930 . S
H260 C222 0.929 . S
H261 C224 0.930 . S
H262 C230 0.929 . S
H263 C231 0.930 . S
Li264 N281 1.990 . S
Li264 O324 1.956 . S
Li264 O325 1.970 . S
Li264 O326 1.961 . S
Li265 N289 1.990 . S
Li265 O324 1.970 . S
Li265 O325 1.956 . S
Li265 O327 1.961 . S
Li266 N311 1.990 . S
Li266 O324 1.961 . S
Li266 O326 1.956 . S
Li266 O327 1.970 . S
Li267 N317 1.990 . S
Li267 O325 1.961 . S
Li267 O326 1.970 . S
Li267 O327 1.956 . S
C268 C270 1.348 . S
C268 C271 1.356 . S
C268 O324 1.325 . S
N269 C272 1.314 . S
N269 C273 1.279 . S
C270 C268 1.348 . S
C270 C272 1.353 . S
C270 H328 0.929 . S
C271 C268 1.356 . S
C271 C273 1.358 . S
C271 H329 0.930 . S
C272 N269 1.314 . S
C272 C270 1.353 . S
C272 H330 0.930 . S
C273 N269 1.279 . S
C273 C271 1.358 . S
C273 H331 0.930 . S
C274 C277 1.348 . S
C274 C278 1.356 . S
C274 O325 1.325 . S
C275 N276 1.279 . S
C275 C278 1.358 . S
C275 H332 0.930 . S
N276 C275 1.279 . S
N276 C279 1.314 . S
C277 C274 1.348 . S
C277 C279 1.353 . S
C277 H333 0.929 . S
C278 C274 1.356 . S
C278 C275 1.358 . S
C278 H334 0.930 . S
C279 N276 1.314 . S
C279 C277 1.353 . S
C279 H335 0.930 . S
C280 N281 1.314 . S
C280 C285 1.353 . S
C280 H286 0.930 . S
N281 Li264 1.990 . S
N281 C280 1.314 . S
N281 C283 1.279 . S
C282 C283 1.358 . S
C282 C284 1.356 . S
C282 H336 0.930 . S
C283 N281 1.279 . S
C283 C282 1.358 . S
C283 H287 0.930 . S
C284 C282 1.356 . S
C284 C285 1.348 . S
C285 C280 1.353 . S
C285 C284 1.348 . S
C285 H337 0.929 . S
H286 C280 0.930 . S
H287 C283 0.930 . S
C288 N289 1.314 . S
C288 C290 1.353 . S
C288 H294 0.930 . S
N289 Li265 1.990 . S
N289 C288 1.314 . S
N289 C292 1.279 . S
C290 C288 1.353 . S
C290 C293 1.348 . S
C290 H338 0.929 . S
C291 C292 1.358 . S
C291 C293 1.356 . S
C291 H339 0.930 . S
C292 N289 1.279 . S
C292 C291 1.358 . S
C292 H295 0.930 . S
C293 C290 1.348 . S
C293 C291 1.356 . S
H294 C288 0.930 . S
H295 C292 0.930 . S
C296 C298 1.348 . S
C296 C299 1.356 . S
C296 O326 1.325 . S
N297 C300 1.314 . S
N297 C301 1.279 . S
C298 C296 1.348 . S
C298 C300 1.353 . S
C298 H340 0.929 . S
C299 C296 1.356 . S
C299 C301 1.358 . S
C299 H341 0.930 . S
C300 N297 1.314 . S
C300 C298 1.353 . S
C300 H342 0.930 . S
C301 N297 1.279 . S
C301 C299 1.358 . S
C301 H343 0.930 . S
C302 C303 1.348 . S
C302 C304 1.356 . S
C302 O327 1.325 . S
C303 C302 1.348 . S
C303 C305 1.353 . S
C303 H344 0.929 . S
C304 C302 1.356 . S
C304 C306 1.358 . S
C304 H345 0.930 . S
C305 C303 1.353 . S
C305 N307 1.314 . S
C305 H346 0.930 . S
C306 C304 1.358 . S
C306 N307 1.279 . S
C306 H347 0.930 . S
N307 C305 1.314 . S
N307 C306 1.279 . S
C308 C310 1.353 . S
C308 N311 1.314 . S
C308 H314 0.930 . S
C309 N311 1.279 . S
C309 C312 1.358 . S
C309 H315 0.930 . S
C310 C308 1.353 . S
C310 C313 1.348 . S
C310 H348 0.929 . S
N311 Li266 1.990 . S
N311 C308 1.314 . S
N311 C309 1.279 . S
C312 C309 1.358 . S
C312 C313 1.356 . S
C312 H349 0.930 . S
C313 C310 1.348 . S
C313 C312 1.356 . S
H314 C308 0.930 . S
H315 C309 0.930 . S
C316 N317 1.314 . S
C316 C318 1.353 . S
C316 H322 0.930 . S
N317 Li267 1.990 . S
N317 C316 1.314 . S
N317 C320 1.279 . S
C318 C316 1.353 . S
C318 C321 1.348 . S
C318 H350 0.929 . S
C319 C320 1.358 . S
C319 C321 1.356 . S
C319 H351 0.930 . S
C320 N317 1.279 . S
C320 C319 1.358 . S
C320 H323 0.930 . S
C321 C318 1.348 . S
C321 C319 1.356 . S
H322 C316 0.930 . S
H323 C320 0.930 . S
O324 Li264 1.956 . S
O324 Li265 1.970 . S
O324 Li266 1.961 . S
O324 C268 1.325 . S
O325 Li264 1.970 . S
O325 Li265 1.956 . S
O325 Li267 1.961 . S
O325 C274 1.325 . S
O326 Li264 1.961 . S
O326 Li266 1.956 . S
O326 Li267 1.970 . S
O326 C296 1.325 . S
O327 Li265 1.961 . S
O327 Li266 1.970 . S
O327 Li267 1.956 . S
O327 C302 1.325 . S
H328 C270 0.929 . S
H329 C271 0.930 . S
H330 C272 0.930 . S
H331 C273 0.930 . S
H332 C275 0.930 . S
H333 C277 0.929 . S
H334 C278 0.930 . S
H335 C279 0.930 . S
H336 C282 0.930 . S
H337 C285 0.929 . S
H338 C290 0.929 . S
H339 C291 0.930 . S
H340 C298 0.929 . S
H341 C299 0.930 . S
H342 C300 0.930 . S
H343 C301 0.930 . S
H344 C303 0.929 . S
H345 C304 0.930 . S
H346 C305 0.930 . S
H347 C306 0.930 . S
H348 C310 0.929 . S
H349 C312 0.930 . S
H350 C318 0.929 . S
H351 C319 0.930 . S
Li352 N369 1.990 . S
Li352 O412 1.956 . S
Li352 O413 1.970 . S
Li352 O414 1.961 . S
Li353 N377 1.990 . S
Li353 O412 1.970 . S
Li353 O413 1.956 . S
Li353 O415 1.961 . S
Li354 N399 1.990 . S
Li354 O412 1.961 . S
Li354 O414 1.956 . S
Li354 O415 1.970 . S
Li355 N405 1.990 . S
Li355 O413 1.961 . S
Li355 O414 1.970 . S
Li355 O415 1.956 . S
C356 C358 1.348 . S
C356 C359 1.356 . S
C356 O412 1.325 . S
N357 C360 1.314 . S
N357 C361 1.279 . S
C358 C356 1.348 . S
C358 C360 1.353 . S
C358 H416 0.929 . S
C359 C356 1.356 . S
C359 C361 1.358 . S
C359 H417 0.930 . S
C360 N357 1.314 . S
C360 C358 1.353 . S
C360 H418 0.930 . S
C361 N357 1.279 . S
C361 C359 1.358 . S
C361 H419 0.930 . S
C362 C365 1.348 . S
C362 C366 1.356 . S
C362 O413 1.325 . S
C363 N364 1.279 . S
C363 C366 1.358 . S
C363 H420 0.930 . S
N364 C363 1.279 . S
N364 C367 1.314 . S
C365 C362 1.348 . S
C365 C367 1.353 . S
C365 H421 0.929 . S
C366 C362 1.356 . S
C366 C363 1.358 . S
C366 H422 0.930 . S
C367 N364 1.314 . S
C367 C365 1.353 . S
C367 H423 0.930 . S
C368 N369 1.314 . S
C368 C373 1.353 . S
C368 H374 0.930 . S
N369 Li352 1.990 . S
N369 C368 1.314 . S
N369 C371 1.279 . S
C370 C371 1.358 . S
C370 C372 1.356 . S
C370 H424 0.930 . S
C371 N369 1.279 . S
C371 C370 1.358 . S
C371 H375 0.930 . S
C372 C370 1.356 . S
C372 C373 1.348 . S
C373 C368 1.353 . S
C373 C372 1.348 . S
C373 H425 0.929 . S
H374 C368 0.930 . S
H375 C371 0.930 . S
C376 N377 1.314 . S
C376 C378 1.353 . S
C376 H382 0.930 . S
N377 Li353 1.990 . S
N377 C376 1.314 . S
N377 C380 1.279 . S
C378 C376 1.353 . S
C378 C381 1.348 . S
C378 H426 0.929 . S
C379 C380 1.358 . S
C379 C381 1.356 . S
C379 H427 0.930 . S
C380 N377 1.279 . S
C380 C379 1.358 . S
C380 H383 0.930 . S
C381 C378 1.348 . S
C381 C379 1.356 . S
H382 C376 0.930 . S
H383 C380 0.930 . S
C384 C386 1.348 . S
C384 C387 1.356 . S
C384 O414 1.325 . S
N385 C388 1.314 . S
N385 C389 1.279 . S
C386 C384 1.348 . S
C386 C388 1.353 . S
C386 H428 0.929 . S
C387 C384 1.356 . S
C387 C389 1.358 . S
C387 H429 0.930 . S
C388 N385 1.314 . S
C388 C386 1.353 . S
C388 H430 0.930 . S
C389 N385 1.279 . S
C389 C387 1.358 . S
C389 H431 0.930 . S
C390 C391 1.348 . S
C390 C392 1.356 . S
C390 O415 1.325 . S
C391 C390 1.348 . S
C391 C393 1.353 . S
C391 H432 0.929 . S
C392 C390 1.356 . S
C392 C394 1.358 . S
C392 H433 0.930 . S
C393 C391 1.353 . S
C393 N395 1.314 . S
C393 H434 0.930 . S
C394 C392 1.358 . S
C394 N395 1.279 . S
C394 H435 0.930 . S
N395 C393 1.314 . S
N395 C394 1.279 . S
C396 C398 1.353 . S
C396 N399 1.314 . S
C396 H402 0.930 . S
C397 N399 1.279 . S
C397 C400 1.358 . S
C397 H403 0.930 . S
C398 C396 1.353 . S
C398 C401 1.348 . S
C398 H436 0.929 . S
N399 Li354 1.990 . S
N399 C396 1.314 . S
N399 C397 1.279 . S
C400 C397 1.358 . S
C400 C401 1.356 . S
C400 H437 0.930 . S
C401 C398 1.348 . S
C401 C400 1.356 . S
H402 C396 0.930 . S
H403 C397 0.930 . S
C404 N405 1.314 . S
C404 C406 1.353 . S
C404 H410 0.930 . S
N405 Li355 1.990 . S
N405 C404 1.314 . S
N405 C408 1.279 . S
C406 C404 1.353 . S
C406 C409 1.348 . S
C406 H438 0.929 . S
C407 C408 1.358 . S
C407 C409 1.356 . S
C407 H439 0.930 . S
C408 N405 1.279 . S
C408 C407 1.358 . S
C408 H411 0.930 . S
C409 C406 1.348 . S
C409 C407 1.356 . S
H410 C404 0.930 . S
H411 C408 0.930 . S
O412 Li352 1.956 . S
O412 Li353 1.970 . S
O412 Li354 1.961 . S
O412 C356 1.325 . S
O413 Li352 1.970 . S
O413 Li353 1.956 . S
O413 Li355 1.961 . S
O413 C362 1.325 . S
O414 Li352 1.961 . S
O414 Li354 1.956 . S
O414 Li355 1.970 . S
O414 C384 1.325 . S
O415 Li353 1.961 . S
O415 Li354 1.970 . S
O415 Li355 1.956 . S
O415 C390 1.325 . S
H416 C358 0.929 . S
H417 C359 0.930 . S
H418 C360 0.930 . S
H419 C361 0.930 . S
H420 C363 0.930 . S
H421 C365 0.929 . S
H422 C366 0.930 . S
H423 C367 0.930 . S
H424 C370 0.930 . S
H425 C373 0.929 . S
H426 C378 0.929 . S
H427 C379 0.930 . S
H428 C386 0.929 . S
H429 C387 0.930 . S
H430 C388 0.930 . S
H431 C389 0.930 . S
H432 C391 0.929 . S
H433 C392 0.930 . S
H434 C393 0.930 . S
H435 C394 0.930 . S
H436 C398 0.929 . S
H437 C400 0.930 . S
H438 C406 0.929 . S
H439 C407 0.930 . S
Li440 N457 1.990 . S
Li440 O500 1.956 . S
Li440 O501 1.970 . S
Li440 O502 1.961 . S
Li441 N465 1.990 . S
Li441 O500 1.970 . S
Li441 O501 1.956 . S
Li441 O503 1.961 . S
Li442 N487 1.990 . S
Li442 O500 1.961 . S
Li442 O502 1.956 . S
Li442 O503 1.970 . S
Li443 N493 1.990 . S
Li443 O501 1.961 . S
Li443 O502 1.970 . S
Li443 O503 1.956 . S
C444 C446 1.348 . S
C444 C447 1.356 . S
C444 O500 1.325 . S
N445 C448 1.314 . S
N445 C449 1.279 . S
C446 C444 1.348 . S
C446 C448 1.353 . S
C446 H504 0.929 . S
C447 C444 1.356 . S
C447 C449 1.358 . S
C447 H505 0.930 . S
C448 N445 1.314 . S
C448 C446 1.353 . S
C448 H506 0.930 . S
C449 N445 1.279 . S
C449 C447 1.358 . S
C449 H507 0.930 . S
C450 C453 1.348 . S
C450 C454 1.356 . S
C450 O501 1.325 . S
C451 N452 1.279 . S
C451 C454 1.358 . S
C451 H508 0.930 . S
N452 C451 1.279 . S
N452 C455 1.314 . S
C453 C450 1.348 . S
C453 C455 1.353 . S
C453 H509 0.929 . S
C454 C450 1.356 . S
C454 C451 1.358 . S
C454 H510 0.930 . S
C455 N452 1.314 . S
C455 C453 1.353 . S
C455 H511 0.930 . S
C456 N457 1.314 . S
C456 C461 1.353 . S
C456 H462 0.930 . S
N457 Li440 1.990 . S
N457 C456 1.314 . S
N457 C459 1.279 . S
C458 C459 1.358 . S
C458 C460 1.356 . S
C458 H512 0.930 . S
C459 N457 1.279 . S
C459 C458 1.358 . S
C459 H463 0.930 . S
C460 C458 1.356 . S
C460 C461 1.348 . S
C461 C456 1.353 . S
C461 C460 1.348 . S
C461 H513 0.929 . S
H462 C456 0.930 . S
H463 C459 0.930 . S
C464 N465 1.314 . S
C464 C466 1.353 . S
C464 H470 0.930 . S
N465 Li441 1.990 . S
N465 C464 1.314 . S
N465 C468 1.279 . S
C466 C464 1.353 . S
C466 C469 1.348 . S
C466 H514 0.929 . S
C467 C468 1.358 . S
C467 C469 1.356 . S
C467 H515 0.930 . S
C468 N465 1.279 . S
C468 C467 1.358 . S
C468 H471 0.930 . S
C469 C466 1.348 . S
C469 C467 1.356 . S
H470 C464 0.930 . S
H471 C468 0.930 . S
C472 C474 1.348 . S
C472 C475 1.356 . S
C472 O502 1.325 . S
N473 C476 1.314 . S
N473 C477 1.279 . S
C474 C472 1.348 . S
C474 C476 1.353 . S
C474 H516 0.929 . S
C475 C472 1.356 . S
C475 C477 1.358 . S
C475 H517 0.930 . S
C476 N473 1.314 . S
C476 C474 1.353 . S
C476 H518 0.930 . S
C477 N473 1.279 . S
C477 C475 1.358 . S
C477 H519 0.930 . S
C478 C479 1.348 . S
C478 C480 1.356 . S
C478 O503 1.325 . S
C479 C478 1.348 . S
C479 C481 1.353 . S
C479 H520 0.929 . S
C480 C478 1.356 . S
C480 C482 1.358 . S
C480 H521 0.930 . S
C481 C479 1.353 . S
C481 N483 1.314 . S
C481 H522 0.930 . S
C482 C480 1.358 . S
C482 N483 1.279 . S
C482 H523 0.930 . S
N483 C481 1.314 . S
N483 C482 1.279 . S
C484 C486 1.353 . S
C484 N487 1.314 . S
C484 H490 0.930 . S
C485 N487 1.279 . S
C485 C488 1.358 . S
C485 H491 0.930 . S
C486 C484 1.353 . S
C486 C489 1.348 . S
C486 H524 0.929 . S
N487 Li442 1.990 . S
N487 C484 1.314 . S
N487 C485 1.279 . S
C488 C485 1.358 . S
C488 C489 1.356 . S
C488 H525 0.930 . S
C489 C486 1.348 . S
C489 C488 1.356 . S
H490 C484 0.930 . S
H491 C485 0.930 . S
C492 N493 1.314 . S
C492 C494 1.353 . S
C492 H498 0.930 . S
N493 Li443 1.990 . S
N493 C492 1.314 . S
N493 C496 1.279 . S
C494 C492 1.353 . S
C494 C497 1.348 . S
C494 H526 0.929 . S
C495 C496 1.358 . S
C495 C497 1.356 . S
C495 H527 0.930 . S
C496 N493 1.279 . S
C496 C495 1.358 . S
C496 H499 0.930 . S
C497 C494 1.348 . S
C497 C495 1.356 . S
H498 C492 0.930 . S
H499 C496 0.930 . S
O500 Li440 1.956 . S
O500 Li441 1.970 . S
O500 Li442 1.961 . S
O500 C444 1.325 . S
O501 Li440 1.970 . S
O501 Li441 1.956 . S
O501 Li443 1.961 . S
O501 C450 1.325 . S
O502 Li440 1.961 . S
O502 Li442 1.956 . S
O502 Li443 1.970 . S
O502 C472 1.325 . S
O503 Li441 1.961 . S
O503 Li442 1.970 . S
O503 Li443 1.956 . S
O503 C478 1.325 . S
H504 C446 0.929 . S
H505 C447 0.930 . S
H506 C448 0.930 . S
H507 C449 0.930 . S
H508 C451 0.930 . S
H509 C453 0.929 . S
H510 C454 0.930 . S
H511 C455 0.930 . S
H512 C458 0.930 . S
H513 C461 0.929 . S
H514 C466 0.929 . S
H515 C467 0.930 . S
H516 C474 0.929 . S
H517 C475 0.930 . S
H518 C476 0.930 . S
H519 C477 0.930 . S
H520 C479 0.929 . S
H521 C480 0.930 . S
H522 C481 0.930 . S
H523 C482 0.930 . S
H524 C486 0.929 . S
H525 C488 0.930 . S
H526 C494 0.929 . S
H527 C495 0.930 . S
Li528 N545 1.990 . S
Li528 O588 1.956 . S
Li528 O589 1.970 . S
Li528 O590 1.961 . S
Li529 N553 1.990 . S
Li529 O588 1.970 . S
Li529 O589 1.956 . S
Li529 O591 1.961 . S
Li530 N575 1.990 . S
Li530 O588 1.961 . S
Li530 O590 1.956 . S
Li530 O591 1.970 . S
Li531 N581 1.990 . S
Li531 O589 1.961 . S
Li531 O590 1.970 . S
Li531 O591 1.956 . S
C532 C534 1.348 . S
C532 C535 1.356 . S
C532 O588 1.325 . S
N533 C536 1.314 . S
N533 C537 1.279 . S
C534 C532 1.348 . S
C534 C536 1.353 . S
C534 H592 0.929 . S
C535 C532 1.356 . S
C535 C537 1.358 . S
C535 H593 0.930 . S
C536 N533 1.314 . S
C536 C534 1.353 . S
C536 H594 0.930 . S
C537 N533 1.279 . S
C537 C535 1.358 . S
C537 H595 0.930 . S
C538 C541 1.348 . S
C538 C542 1.356 . S
C538 O589 1.325 . S
C539 N540 1.279 . S
C539 C542 1.358 . S
C539 H596 0.930 . S
N540 C539 1.279 . S
N540 C543 1.314 . S
C541 C538 1.348 . S
C541 C543 1.353 . S
C541 H597 0.929 . S
C542 C538 1.356 . S
C542 C539 1.358 . S
C542 H598 0.930 . S
C543 N540 1.314 . S
C543 C541 1.353 . S
C543 H599 0.930 . S
C544 N545 1.314 . S
C544 C549 1.353 . S
C544 H550 0.930 . S
N545 Li528 1.990 . S
N545 C544 1.314 . S
N545 C547 1.279 . S
C546 C547 1.358 . S
C546 C548 1.356 . S
C546 H600 0.930 . S
C547 N545 1.279 . S
C547 C546 1.358 . S
C547 H551 0.930 . S
C548 C546 1.356 . S
C548 C549 1.348 . S
C549 C544 1.353 . S
C549 C548 1.348 . S
C549 H601 0.929 . S
H550 C544 0.930 . S
H551 C547 0.930 . S
C552 N553 1.314 . S
C552 C554 1.353 . S
C552 H558 0.930 . S
N553 Li529 1.990 . S
N553 C552 1.314 . S
N553 C556 1.279 . S
C554 C552 1.353 . S
C554 C557 1.348 . S
C554 H602 0.929 . S
C555 C556 1.358 . S
C555 C557 1.356 . S
C555 H603 0.930 . S
C556 N553 1.279 . S
C556 C555 1.358 . S
C556 H559 0.930 . S
C557 C554 1.348 . S
C557 C555 1.356 . S
H558 C552 0.930 . S
H559 C556 0.930 . S
C560 C562 1.348 . S
C560 C563 1.356 . S
C560 O590 1.325 . S
N561 C564 1.314 . S
N561 C565 1.279 . S
C562 C560 1.348 . S
C562 C564 1.353 . S
C562 H604 0.929 . S
C563 C560 1.356 . S
C563 C565 1.358 . S
C563 H605 0.930 . S
C564 N561 1.314 . S
C564 C562 1.353 . S
C564 H606 0.930 . S
C565 N561 1.279 . S
C565 C563 1.358 . S
C565 H607 0.930 . S
C566 C567 1.348 . S
C566 C568 1.356 . S
C566 O591 1.325 . S
C567 C566 1.348 . S
C567 C569 1.353 . S
C567 H608 0.929 . S
C568 C566 1.356 . S
C568 C570 1.358 . S
C568 H609 0.930 . S
C569 C567 1.353 . S
C569 N571 1.314 . S
C569 H610 0.930 . S
C570 C568 1.358 . S
C570 N571 1.279 . S
C570 H611 0.930 . S
N571 C569 1.314 . S
N571 C570 1.279 . S
C572 C574 1.353 . S
C572 N575 1.314 . S
C572 H578 0.930 . S
C573 N575 1.279 . S
C573 C576 1.358 . S
C573 H579 0.930 . S
C574 C572 1.353 . S
C574 C577 1.348 . S
C574 H612 0.929 . S
N575 Li530 1.990 . S
N575 C572 1.314 . S
N575 C573 1.279 . S
C576 C573 1.358 . S
C576 C577 1.356 . S
C576 H613 0.930 . S
C577 C574 1.348 . S
C577 C576 1.356 . S
H578 C572 0.930 . S
H579 C573 0.930 . S
C580 N581 1.314 . S
C580 C582 1.353 . S
C580 H586 0.930 . S
N581 Li531 1.990 . S
N581 C580 1.314 . S
N581 C584 1.279 . S
C582 C580 1.353 . S
C582 C585 1.348 . S
C582 H614 0.929 . S
C583 C584 1.358 . S
C583 C585 1.356 . S
C583 H615 0.930 . S
C584 N581 1.279 . S
C584 C583 1.358 . S
C584 H587 0.930 . S
C585 C582 1.348 . S
C585 C583 1.356 . S
H586 C580 0.930 . S
H587 C584 0.930 . S
O588 Li528 1.956 . S
O588 Li529 1.970 . S
O588 Li530 1.961 . S
O588 C532 1.325 . S
O589 Li528 1.970 . S
O589 Li529 1.956 . S
O589 Li531 1.961 . S
O589 C538 1.325 . S
O590 Li528 1.961 . S
O590 Li530 1.956 . S
O590 Li531 1.970 . S
O590 C560 1.325 . S
O591 Li529 1.961 . S
O591 Li530 1.970 . S
O591 Li531 1.956 . S
O591 C566 1.325 . S
H592 C534 0.929 . S
H593 C535 0.930 . S
H594 C536 0.930 . S
H595 C537 0.930 . S
H596 C539 0.930 . S
H597 C541 0.929 . S
H598 C542 0.930 . S
H599 C543 0.930 . S
H600 C546 0.930 . S
H601 C549 0.929 . S
H602 C554 0.929 . S
H603 C555 0.930 . S
H604 C562 0.929 . S
H605 C563 0.930 . S
H606 C564 0.930 . S
H607 C565 0.930 . S
H608 C567 0.929 . S
H609 C568 0.930 . S
H610 C569 0.930 . S
H611 C570 0.930 . S
H612 C574 0.929 . S
H613 C576 0.930 . S
H614 C582 0.929 . S
H615 C583 0.930 . S
Li616 N633 1.990 . S
Li616 O676 1.956 . S
Li616 O677 1.970 . S
Li616 O678 1.961 . S
Li617 N641 1.990 . S
Li617 O676 1.970 . S
Li617 O677 1.956 . S
Li617 O679 1.961 . S
Li618 N663 1.990 . S
Li618 O676 1.961 . S
Li618 O678 1.956 . S
Li618 O679 1.970 . S
Li619 N669 1.990 . S
Li619 O677 1.961 . S
Li619 O678 1.970 . S
Li619 O679 1.956 . S
C620 C622 1.348 . S
C620 C623 1.356 . S
C620 O676 1.325 . S
N621 C624 1.314 . S
N621 C625 1.279 . S
C622 C620 1.348 . S
C622 C624 1.353 . S
C622 H680 0.929 . S
C623 C620 1.356 . S
C623 C625 1.358 . S
C623 H681 0.930 . S
C624 N621 1.314 . S
C624 C622 1.353 . S
C624 H682 0.930 . S
C625 N621 1.279 . S
C625 C623 1.358 . S
C625 H683 0.930 . S
C626 C629 1.348 . S
C626 C630 1.356 . S
C626 O677 1.325 . S
C627 N628 1.279 . S
C627 C630 1.358 . S
C627 H684 0.930 . S
N628 C627 1.279 . S
N628 C631 1.314 . S
C629 C626 1.348 . S
C629 C631 1.353 . S
C629 H685 0.929 . S
C630 C626 1.356 . S
C630 C627 1.358 . S
C630 H686 0.930 . S
C631 N628 1.314 . S
C631 C629 1.353 . S
C631 H687 0.930 . S
C632 N633 1.314 . S
C632 C637 1.353 . S
C632 H638 0.930 . S
N633 Li616 1.990 . S
N633 C632 1.314 . S
N633 C635 1.279 . S
C634 C635 1.358 . S
C634 C636 1.356 . S
C634 H688 0.930 . S
C635 N633 1.279 . S
C635 C634 1.358 . S
C635 H639 0.930 . S
C636 C634 1.356 . S
C636 C637 1.348 . S
C637 C632 1.353 . S
C637 C636 1.348 . S
C637 H689 0.929 . S
H638 C632 0.930 . S
H639 C635 0.930 . S
C640 N641 1.314 . S
C640 C642 1.353 . S
C640 H646 0.930 . S
N641 Li617 1.990 . S
N641 C640 1.314 . S
N641 C644 1.279 . S
C642 C640 1.353 . S
C642 C645 1.348 . S
C642 H690 0.929 . S
C643 C644 1.358 . S
C643 C645 1.356 . S
C643 H691 0.930 . S
C644 N641 1.279 . S
C644 C643 1.358 . S
C644 H647 0.930 . S
C645 C642 1.348 . S
C645 C643 1.356 . S
H646 C640 0.930 . S
H647 C644 0.930 . S
C648 C650 1.348 . S
C648 C651 1.356 . S
C648 O678 1.325 . S
N649 C652 1.314 . S
N649 C653 1.279 . S
C650 C648 1.348 . S
C650 C652 1.353 . S
C650 H692 0.929 . S
C651 C648 1.356 . S
C651 C653 1.358 . S
C651 H693 0.930 . S
C652 N649 1.314 . S
C652 C650 1.353 . S
C652 H694 0.930 . S
C653 N649 1.279 . S
C653 C651 1.358 . S
C653 H695 0.930 . S
C654 C655 1.348 . S
C654 C656 1.356 . S
C654 O679 1.325 . S
C655 C654 1.348 . S
C655 C657 1.353 . S
C655 H696 0.929 . S
C656 C654 1.356 . S
C656 C658 1.358 . S
C656 H697 0.930 . S
C657 C655 1.353 . S
C657 N659 1.314 . S
C657 H698 0.930 . S
C658 C656 1.358 . S
C658 N659 1.279 . S
C658 H699 0.930 . S
N659 C657 1.314 . S
N659 C658 1.279 . S
C660 C662 1.353 . S
C660 N663 1.314 . S
C660 H666 0.930 . S
C661 N663 1.279 . S
C661 C664 1.358 . S
C661 H667 0.930 . S
C662 C660 1.353 . S
C662 C665 1.348 . S
C662 H700 0.929 . S
N663 Li618 1.990 . S
N663 C660 1.314 . S
N663 C661 1.279 . S
C664 C661 1.358 . S
C664 C665 1.356 . S
C664 H701 0.930 . S
C665 C662 1.348 . S
C665 C664 1.356 . S
H666 C660 0.930 . S
H667 C661 0.930 . S
C668 N669 1.314 . S
C668 C670 1.353 . S
C668 H674 0.930 . S
N669 Li619 1.990 . S
N669 C668 1.314 . S
N669 C672 1.279 . S
C670 C668 1.353 . S
C670 C673 1.348 . S
C670 H702 0.929 . S
C671 C672 1.358 . S
C671 C673 1.356 . S
C671 H703 0.930 . S
C672 N669 1.279 . S
C672 C671 1.358 . S
C672 H675 0.930 . S
C673 C670 1.348 . S
C673 C671 1.356 . S
H674 C668 0.930 . S
H675 C672 0.930 . S
O676 Li616 1.956 . S
O676 Li617 1.970 . S
O676 Li618 1.961 . S
O676 C620 1.325 . S
O677 Li616 1.970 . S
O677 Li617 1.956 . S
O677 Li619 1.961 . S
O677 C626 1.325 . S
O678 Li616 1.961 . S
O678 Li618 1.956 . S
O678 Li619 1.970 . S
O678 C648 1.325 . S
O679 Li617 1.961 . S
O679 Li618 1.970 . S
O679 Li619 1.956 . S
O679 C654 1.325 . S
H680 C622 0.929 . S
H681 C623 0.930 . S
H682 C624 0.930 . S
H683 C625 0.930 . S
H684 C627 0.930 . S
H685 C629 0.929 . S
H686 C630 0.930 . S
H687 C631 0.930 . S
H688 C634 0.930 . S
H689 C637 0.929 . S
H690 C642 0.929 . S
H691 C643 0.930 . S
H692 C650 0.929 . S
H693 C651 0.930 . S
H694 C652 0.930 . S
H695 C653 0.930 . S
H696 C655 0.929 . S
H697 C656 0.930 . S
H698 C657 0.930 . S
H699 C658 0.930 . S
H700 C662 0.929 . S
H701 C664 0.930 . S
H702 C670 0.929 . S
H703 C671 0.930 . S
Li704 N721 1.990 . S
Li704 O764 1.956 . S
Li704 O765 1.970 . S
Li704 O766 1.961 . S
Li705 N729 1.990 . S
Li705 O764 1.970 . S
Li705 O765 1.956 . S
Li705 O767 1.961 . S
Li706 N751 1.990 . S
Li706 O764 1.961 . S
Li706 O766 1.956 . S
Li706 O767 1.970 . S
Li707 N757 1.990 . S
Li707 O765 1.961 . S
Li707 O766 1.970 . S
Li707 O767 1.956 . S
C708 C710 1.348 . S
C708 C711 1.356 . S
C708 O764 1.325 . S
N709 C712 1.314 1_545 S
N709 C713 1.279 1_545 S
C710 C708 1.348 . S
C710 C712 1.353 . S
C710 H768 0.929 . S
C711 C708 1.356 . S
C711 C713 1.358 . S
C711 H769 0.930 . S
C712 N709 1.314 1_565 S
C712 C710 1.353 . S
C712 H770 0.930 1_565 S
C713 N709 1.279 1_565 S
C713 C711 1.358 . S
C713 H771 0.930 . S
C714 C717 1.348 . S
C714 C718 1.356 . S
C714 O765 1.325 . S
C715 N716 1.279 . S
C715 C718 1.358 . S
C715 H772 0.930 . S
N716 C715 1.279 . S
N716 C719 1.314 . S
C717 C714 1.348 . S
C717 C719 1.353 . S
C717 H773 0.929 . S
C718 C714 1.356 . S
C718 C715 1.358 . S
C718 H774 0.930 . S
C719 N716 1.314 . S
C719 C717 1.353 . S
C719 H775 0.930 1_565 S
C720 N721 1.314 . S
C720 C725 1.353 1_565 S
C720 H726 0.930 . S
N721 Li704 1.990 . S
N721 C720 1.314 . S
N721 C723 1.279 1_565 S
C722 C723 1.358 . S
C722 C724 1.356 . S
C722 H776 0.930 . S
C723 N721 1.279 1_545 S
C723 C722 1.358 . S
C723 H727 0.930 . S
C724 C722 1.356 . S
C724 C725 1.348 . S
C725 C720 1.353 1_545 S
C725 C724 1.348 . S
C725 H777 0.929 . S
H726 C720 0.930 . S
H727 C723 0.930 . S
C728 N729 1.314 . S
C728 C730 1.353 . S
C728 H734 0.930 . S
N729 Li705 1.990 . S
N729 C728 1.314 . S
N729 C732 1.279 . S
C730 C728 1.353 . S
C730 C733 1.348 . S
C730 H778 0.929 . S
C731 C732 1.358 . S
C731 C733 1.356 . S
C731 H779 0.930 . S
C732 N729 1.279 . S
C732 C731 1.358 . S
C732 H735 0.930 . S
C733 C730 1.348 . S
C733 C731 1.356 . S
H734 C728 0.930 . S
H735 C732 0.930 . S
C736 C738 1.348 . S
C736 C739 1.356 . S
C736 O766 1.325 . S
N737 C740 1.314 . S
N737 C741 1.279 . S
C738 C736 1.348 . S
C738 C740 1.353 . S
C738 H780 0.929 . S
C739 C736 1.356 . S
C739 C741 1.358 . S
C739 H781 0.930 . S
C740 N737 1.314 . S
C740 C738 1.353 . S
C740 H782 0.930 . S
C741 N737 1.279 . S
C741 C739 1.358 . S
C741 H783 0.930 . S
C742 C743 1.348 . S
C742 C744 1.356 . S
C742 O767 1.325 . S
C743 C742 1.348 . S
C743 C745 1.353 . S
C743 H784 0.929 . S
C744 C742 1.356 . S
C744 C746 1.358 . S
C744 H785 0.930 . S
C745 C743 1.353 . S
C745 N747 1.314 . S
C745 H786 0.930 . S
C746 C744 1.358 . S
C746 N747 1.279 . S
C746 H787 0.930 . S
N747 C745 1.314 . S
N747 C746 1.279 . S
C748 C750 1.353 . S
C748 N751 1.314 . S
C748 H754 0.930 . S
C749 N751 1.279 . S
C749 C752 1.358 . S
C749 H755 0.930 . S
C750 C748 1.353 . S
C750 C753 1.348 . S
C750 H788 0.929 . S
N751 Li706 1.990 . S
N751 C748 1.314 . S
N751 C749 1.279 . S
C752 C749 1.358 . S
C752 C753 1.356 . S
C752 H789 0.930 . S
C753 C750 1.348 . S
C753 C752 1.356 . S
H754 C748 0.930 . S
H755 C749 0.930 . S
C756 N757 1.314 . S
C756 C758 1.353 . S
C756 H762 0.930 . S
N757 Li707 1.990 . S
N757 C756 1.314 . S
N757 C760 1.279 . S
C758 C756 1.353 . S
C758 C761 1.348 . S
C758 H790 0.929 . S
C759 C760 1.358 . S
C759 C761 1.356 . S
C759 H791 0.930 . S
C760 N757 1.279 . S
C760 C759 1.358 . S
C760 H763 0.930 . S
C761 C758 1.348 . S
C761 C759 1.356 . S
H762 C756 0.930 . S
H763 C760 0.930 . S
O764 Li704 1.956 . S
O764 Li705 1.970 . S
O764 Li706 1.961 . S
O764 C708 1.325 . S
O765 Li704 1.970 . S
O765 Li705 1.956 . S
O765 Li707 1.961 . S
O765 C714 1.325 . S
O766 Li704 1.961 . S
O766 Li706 1.956 . S
O766 Li707 1.970 . S
O766 C736 1.325 . S
O767 Li705 1.961 . S
O767 Li706 1.970 . S
O767 Li707 1.956 . S
O767 C742 1.325 . S
H768 C710 0.929 . S
H769 C711 0.930 . S
H770 C712 0.930 1_545 S
H771 C713 0.930 . S
H772 C715 0.930 . S
H773 C717 0.929 . S
H774 C718 0.930 . S
H775 C719 0.930 1_545 S
H776 C722 0.930 . S
H777 C725 0.929 . S
H778 C730 0.929 . S
H779 C731 0.930 . S
H780 C738 0.929 . S
H781 C739 0.930 . S
H782 C740 0.930 . S
H783 C741 0.930 . S
H784 C743 0.929 . S
H785 C744 0.930 . S
H786 C745 0.930 . S
H787 C746 0.930 . S
H788 C750 0.929 . S
H789 C752 0.930 . S
H790 C758 0.929 . S
H791 C759 0.930 . S
Li792 N809 1.990 . S
Li792 O852 1.956 . S
Li792 O853 1.970 . S
Li792 O854 1.961 . S
Li793 N817 1.990 . S
Li793 O852 1.970 . S
Li793 O853 1.956 . S
Li793 O855 1.961 . S
Li794 N839 1.990 . S
Li794 O852 1.961 . S
Li794 O854 1.956 . S
Li794 O855 1.970 . S
Li795 N845 1.990 . S
Li795 O853 1.961 . S
Li795 O854 1.970 . S
Li795 O855 1.956 . S
C796 C798 1.348 . S
C796 C799 1.356 . S
C796 O852 1.325 . S
N797 C800 1.314 . S
N797 C801 1.279 . S
C798 C796 1.348 . S
C798 C800 1.353 . S
C798 H856 0.929 . S
C799 C796 1.356 . S
C799 C801 1.358 . S
C799 H857 0.930 . S
C800 N797 1.314 . S
C800 C798 1.353 . S
C800 H858 0.930 1_655 S
C801 N797 1.279 . S
C801 C799 1.358 . S
C801 H859 0.930 . S
C802 C805 1.348 . S
C802 C806 1.356 . S
C802 O853 1.325 . S
C803 N804 1.279 . S
C803 C806 1.358 . S
C803 H860 0.930 . S
N804 C803 1.279 . S
N804 C807 1.314 . S
C805 C802 1.348 . S
C805 C807 1.353 . S
C805 H861 0.929 . S
C806 C802 1.356 . S
C806 C803 1.358 . S
C806 H862 0.930 . S
C807 N804 1.314 . S
C807 C805 1.353 . S
C807 H863 0.930 . S
C808 N809 1.314 . S
C808 C813 1.353 . S
C808 H814 0.930 . S
N809 Li792 1.990 . S
N809 C808 1.314 . S
N809 C811 1.279 . S
C810 C811 1.358 . S
C810 C812 1.356 . S
C810 H864 0.930 . S
C811 N809 1.279 . S
C811 C810 1.358 . S
C811 H815 0.930 . S
C812 C810 1.356 . S
C812 C813 1.348 . S
C813 C808 1.353 . S
C813 C812 1.348 . S
C813 H865 0.929 . S
H814 C808 0.930 . S
H815 C811 0.930 . S
C816 N817 1.314 1_455 S
C816 C818 1.353 . S
C816 H822 0.930 . S
N817 Li793 1.990 . S
N817 C816 1.314 1_655 S
N817 C820 1.279 . S
C818 C816 1.353 . S
C818 C821 1.348 . S
C818 H866 0.929 . S
C819 C820 1.358 1_455 S
C819 C821 1.356 . S
C819 H867 0.930 . S
C820 N817 1.279 . S
C820 C819 1.358 1_655 S
C820 H823 0.930 . S
C821 C818 1.348 . S
C821 C819 1.356 . S
H822 C816 0.930 . S
H823 C820 0.930 . S
C824 C826 1.348 . S
C824 C827 1.356 . S
C824 O854 1.325 . S
N825 C828 1.314 . S
N825 C829 1.279 . S
C826 C824 1.348 . S
C826 C828 1.353 . S
C826 H868 0.929 . S
C827 C824 1.356 . S
C827 C829 1.358 . S
C827 H869 0.930 . S
C828 N825 1.314 . S
C828 C826 1.353 . S
C828 H870 0.930 . S
C829 N825 1.279 . S
C829 C827 1.358 . S
C829 H871 0.930 . S
C830 C831 1.348 . S
C830 C832 1.356 . S
C830 O855 1.325 . S
C831 C830 1.348 . S
C831 C833 1.353 . S
C831 H872 0.929 . S
C832 C830 1.356 . S
C832 C834 1.358 . S
C832 H873 0.930 . S
C833 C831 1.353 . S
C833 N835 1.314 . S
C833 H874 0.930 . S
C834 C832 1.358 . S
C834 N835 1.279 . S
C834 H875 0.930 1_655 S
N835 C833 1.314 . S
N835 C834 1.279 . S
C836 C838 1.353 . S
C836 N839 1.314 . S
C836 H842 0.930 . S
C837 N839 1.279 . S
C837 C840 1.358 . S
C837 H843 0.930 . S
C838 C836 1.353 . S
C838 C841 1.348 . S
C838 H876 0.929 . S
N839 Li794 1.990 . S
N839 C836 1.314 . S
N839 C837 1.279 . S
C840 C837 1.358 . S
C840 C841 1.356 . S
C840 H877 0.930 . S
C841 C838 1.348 . S
C841 C840 1.356 . S
H842 C836 0.930 . S
H843 C837 0.930 . S
C844 N845 1.314 . S
C844 C846 1.353 . S
C844 H850 0.930 . S
N845 Li795 1.990 . S
N845 C844 1.314 . S
N845 C848 1.279 . S
C846 C844 1.353 . S
C846 C849 1.348 . S
C846 H878 0.929 . S
C847 C848 1.358 . S
C847 C849 1.356 . S
C847 H879 0.930 . S
C848 N845 1.279 . S
C848 C847 1.358 . S
C848 H851 0.930 . S
C849 C846 1.348 . S
C849 C847 1.356 . S
H850 C844 0.930 . S
H851 C848 0.930 . S
O852 Li792 1.956 . S
O852 Li793 1.970 . S
O852 Li794 1.961 . S
O852 C796 1.325 . S
O853 Li792 1.970 . S
O853 Li793 1.956 . S
O853 Li795 1.961 . S
O853 C802 1.325 . S
O854 Li792 1.961 . S
O854 Li794 1.956 . S
O854 Li795 1.970 . S
O854 C824 1.325 . S
O855 Li793 1.961 . S
O855 Li794 1.970 . S
O855 Li795 1.956 . S
O855 C830 1.325 . S
H856 C798 0.929 . S
H857 C799 0.930 . S
H858 C800 0.930 1_455 S
H859 C801 0.930 . S
H860 C803 0.930 . S
H861 C805 0.929 . S
H862 C806 0.930 . S
H863 C807 0.930 . S
H864 C810 0.930 . S
H865 C813 0.929 . S
H866 C818 0.929 . S
H867 C819 0.930 . S
H868 C826 0.929 . S
H869 C827 0.930 . S
H870 C828 0.930 . S
H871 C829 0.930 . S
H872 C831 0.929 . S
H873 C832 0.930 . S
H874 C833 0.930 . S
H875 C834 0.930 1_455 S
H876 C838 0.929 . S
H877 C840 0.930 . S
H878 C846 0.929 . S
H879 C847 0.930 . S
Li880 N897 1.990 . S
Li880 O940 1.956 . S
Li880 O941 1.970 . S
Li880 O942 1.961 . S
Li881 N905 1.990 . S
Li881 O940 1.970 . S
Li881 O941 1.956 . S
Li881 O943 1.961 . S
Li882 N927 1.990 . S
Li882 O940 1.961 . S
Li882 O942 1.956 . S
Li882 O943 1.970 . S
Li883 N933 1.990 . S
Li883 O941 1.961 . S
Li883 O942 1.970 . S
Li883 O943 1.956 . S
C884 C886 1.348 . S
C884 C887 1.356 . S
C884 O940 1.325 . S
N885 C888 1.314 . S
N885 C889 1.279 . S
C886 C884 1.348 . S
C886 C888 1.353 . S
C886 H944 0.929 . S
C887 C884 1.356 . S
C887 C889 1.358 . S
C887 H945 0.930 . S
C888 N885 1.314 . S
C888 C886 1.353 . S
C888 H946 0.930 . S
C889 N885 1.279 . S
C889 C887 1.358 . S
C889 H947 0.930 . S
C890 C893 1.348 . S
C890 C894 1.356 . S
C890 O941 1.325 . S
C891 N892 1.279 . S
C891 C894 1.358 . S
C891 H948 0.930 . S
N892 C891 1.279 . S
N892 C895 1.314 . S
C893 C890 1.348 . S
C893 C895 1.353 . S
C893 H949 0.929 . S
C894 C890 1.356 . S
C894 C891 1.358 . S
C894 H950 0.930 . S
C895 N892 1.314 . S
C895 C893 1.353 . S
C895 H951 0.930 . S
C896 N897 1.314 . S
C896 C901 1.353 . S
C896 H902 0.930 . S
N897 Li880 1.990 . S
N897 C896 1.314 . S
N897 C899 1.279 . S
C898 C899 1.358 . S
C898 C900 1.356 . S
C898 H952 0.930 . S
C899 N897 1.279 . S
C899 C898 1.358 . S
C899 H903 0.930 . S
C900 C898 1.356 . S
C900 C901 1.348 . S
C901 C896 1.353 . S
C901 C900 1.348 . S
C901 H953 0.929 . S
H902 C896 0.930 . S
H903 C899 0.930 . S
C904 N905 1.314 . S
C904 C906 1.353 . S
C904 H910 0.930 . S
N905 Li881 1.990 . S
N905 C904 1.314 . S
N905 C908 1.279 . S
C906 C904 1.353 . S
C906 C909 1.348 . S
C906 H954 0.929 . S
C907 C908 1.358 . S
C907 C909 1.356 . S
C907 H955 0.930 . S
C908 N905 1.279 . S
C908 C907 1.358 . S
C908 H911 0.930 . S
C909 C906 1.348 . S
C909 C907 1.356 . S
H910 C904 0.930 . S
H911 C908 0.930 . S
C912 C914 1.348 . S
C912 C915 1.356 . S
C912 O942 1.325 . S
N913 C916 1.314 1_565 S
N913 C917 1.279 1_565 S
C914 C912 1.348 . S
C914 C916 1.353 . S
C914 H956 0.929 . S
C915 C912 1.356 . S
C915 C917 1.358 . S
C915 H957 0.930 . S
C916 N913 1.314 1_545 S
C916 C914 1.353 . S
C916 H958 0.930 1_545 S
C917 N913 1.279 1_545 S
C917 C915 1.358 . S
C917 H959 0.930 . S
C918 C919 1.348 . S
C918 C920 1.356 . S
C918 O943 1.325 . S
C919 C918 1.348 . S
C919 C921 1.353 . S
C919 H960 0.929 . S
C920 C918 1.356 . S
C920 C922 1.358 . S
C920 H961 0.930 . S
C921 C919 1.353 . S
C921 N923 1.314 . S
C921 H962 0.930 1_545 S
C922 C920 1.358 . S
C922 N923 1.279 . S
C922 H963 0.930 . S
N923 C921 1.314 . S
N923 C922 1.279 . S
C924 C926 1.353 1_545 S
C924 N927 1.314 . S
C924 H930 0.930 . S
C925 N927 1.279 1_565 S
C925 C928 1.358 . S
C925 H931 0.930 . S
C926 C924 1.353 1_565 S
C926 C929 1.348 . S
C926 H964 0.929 . S
N927 Li882 1.990 . S
N927 C924 1.314 . S
N927 C925 1.279 1_545 S
C928 C925 1.358 . S
C928 C929 1.356 . S
C928 H965 0.930 . S
C929 C926 1.348 . S
C929 C928 1.356 . S
H930 C924 0.930 . S
H931 C925 0.930 . S
C932 N933 1.314 . S
C932 C934 1.353 . S
C932 H938 0.930 . S
N933 Li883 1.990 . S
N933 C932 1.314 . S
N933 C936 1.279 . S
C934 C932 1.353 . S
C934 C937 1.348 . S
C934 H966 0.929 . S
C935 C936 1.358 . S
C935 C937 1.356 . S
C935 H967 0.930 . S
C936 N933 1.279 . S
C936 C935 1.358 . S
C936 H939 0.930 . S
C937 C934 1.348 . S
C937 C935 1.356 . S
H938 C932 0.930 . S
H939 C936 0.930 . S
O940 Li880 1.956 . S
O940 Li881 1.970 . S
O940 Li882 1.961 . S
O940 C884 1.325 . S
O941 Li880 1.970 . S
O941 Li881 1.956 . S
O941 Li883 1.961 . S
O941 C890 1.325 . S
O942 Li880 1.961 . S
O942 Li882 1.956 . S
O942 Li883 1.970 . S
O942 C912 1.325 . S
O943 Li881 1.961 . S
O943 Li882 1.970 . S
O943 Li883 1.956 . S
O943 C918 1.325 . S
H944 C886 0.929 . S
H945 C887 0.930 . S
H946 C888 0.930 . S
H947 C889 0.930 . S
H948 C891 0.930 . S
H949 C893 0.929 . S
H950 C894 0.930 . S
H951 C895 0.930 . S
H952 C898 0.930 . S
H953 C901 0.929 . S
H954 C906 0.929 . S
H955 C907 0.930 . S
H956 C914 0.929 . S
H957 C915 0.930 . S
H958 C916 0.930 1_565 S
H959 C917 0.930 . S
H960 C919 0.929 . S
H961 C920 0.930 . S
H962 C921 0.930 1_565 S
H963 C922 0.930 . S
H964 C926 0.929 . S
H965 C928 0.930 . S
H966 C934 0.929 . S
H967 C935 0.930 . S
Li968 N985 1.990 . S
Li968 O1028 1.956 . S
Li968 O1029 1.970 . S
Li968 O1030 1.961 . S
Li969 N993 1.990 . S
Li969 O1028 1.970 . S
Li969 O1029 1.956 . S
Li969 O1031 1.961 . S
Li970 N1015 1.990 . S
Li970 O1028 1.961 . S
Li970 O1030 1.956 . S
Li970 O1031 1.970 . S
Li971 N1021 1.990 . S
Li971 O1029 1.961 . S
Li971 O1030 1.970 . S
Li971 O1031 1.956 . S
C972 C974 1.348 . S
C972 C975 1.356 . S
C972 O1028 1.325 . S
N973 C976 1.314 . S
N973 C977 1.279 . S
C974 C972 1.348 . S
C974 C976 1.353 . S
C974 H1032 0.929 . S
C975 C972 1.356 . S
C975 C977 1.358 . S
C975 H1033 0.930 . S
C976 N973 1.314 . S
C976 C974 1.353 . S
C976 H1034 0.930 . S
C977 N973 1.279 . S
C977 C975 1.358 . S
C977 H1035 0.930 . S
C978 C981 1.348 . S
C978 C982 1.356 . S
C978 O1029 1.325 . S
C979 N980 1.279 . S
C979 C982 1.358 . S
C979 H1036 0.930 . S
N980 C979 1.279 . S
N980 C983 1.314 . S
C981 C978 1.348 . S
C981 C983 1.353 . S
C981 H1037 0.929 . S
C982 C978 1.356 . S
C982 C979 1.358 . S
C982 H1038 0.930 . S
C983 N980 1.314 . S
C983 C981 1.353 . S
C983 H1039 0.930 1_455 S
C984 N985 1.314 1_655 S
C984 C989 1.353 . S
C984 H990 0.930 . S
N985 Li968 1.990 . S
N985 C984 1.314 1_455 S
N985 C987 1.279 . S
C986 C987 1.358 1_655 S
C986 C988 1.356 . S
C986 H1040 0.930 . S
C987 N985 1.279 . S
C987 C986 1.358 1_455 S
C987 H991 0.930 . S
C988 C986 1.356 . S
C988 C989 1.348 . S
C989 C984 1.353 . S
C989 C988 1.348 . S
C989 H1041 0.929 . S
H990 C984 0.930 . S
H991 C987 0.930 . S
C992 N993 1.314 . S
C992 C994 1.353 . S
C992 H998 0.930 . S
N993 Li969 1.990 . S
N993 C992 1.314 . S
N993 C996 1.279 . S
C994 C992 1.353 . S
C994 C997 1.348 . S
C994 H1042 0.929 . S
C995 C996 1.358 . S
C995 C997 1.356 . S
C995 H1043 0.930 . S
C996 N993 1.279 . S
C996 C995 1.358 . S
C996 H999 0.930 . S
C997 C994 1.348 . S
C997 C995 1.356 . S
H998 C992 0.930 . S
H999 C996 0.930 . S
C1000 C1002 1.348 . S
C1000 C1003 1.356 . S
C1000 O1030 1.325 . S
N1001 C1004 1.314 . S
N1001 C1005 1.279 . S
C1002 C1000 1.348 . S
C1002 C1004 1.353 . S
C1002 H1044 0.929 . S
C1003 C1000 1.356 . S
C1003 C1005 1.358 . S
C1003 H1045 0.930 . S
C1004 N1001 1.314 . S
C1004 C1002 1.353 . S
C1004 H1046 0.930 . S
C1005 N1001 1.279 . S
C1005 C1003 1.358 . S
C1005 H1047 0.930 1_455 S
C1006 C1007 1.348 . S
C1006 C1008 1.356 . S
C1006 O1031 1.325 . S
C1007 C1006 1.348 . S
C1007 C1009 1.353 . S
C1007 H1048 0.929 . S
C1008 C1006 1.356 . S
C1008 C1010 1.358 . S
C1008 H1049 0.930 . S
C1009 C1007 1.353 . S
C1009 N1011 1.314 . S
C1009 H1050 0.930 . S
C1010 C1008 1.358 . S
C1010 N1011 1.279 . S
C1010 H1051 0.930 . S
N1011 C1009 1.314 . S
N1011 C1010 1.279 . S
C1012 C1014 1.353 . S
C1012 N1015 1.314 . S
C1012 H1018 0.930 . S
C1013 N1015 1.279 . S
C1013 C1016 1.358 . S
C1013 H1019 0.930 . S
C1014 C1012 1.353 . S
C1014 C1017 1.348 . S
C1014 H1052 0.929 . S
N1015 Li970 1.990 . S
N1015 C1012 1.314 . S
N1015 C1013 1.279 . S
C1016 C1013 1.358 . S
C1016 C1017 1.356 . S
C1016 H1053 0.930 . S
C1017 C1014 1.348 . S
C1017 C1016 1.356 . S
H1018 C1012 0.930 . S
H1019 C1013 0.930 . S
C1020 N1021 1.314 . S
C1020 C1022 1.353 . S
C1020 H1026 0.930 . S
N1021 Li971 1.990 . S
N1021 C1020 1.314 . S
N1021 C1024 1.279 . S
C1022 C1020 1.353 . S
C1022 C1025 1.348 . S
C1022 H1054 0.929 . S
C1023 C1024 1.358 . S
C1023 C1025 1.356 . S
C1023 H1055 0.930 . S
C1024 N1021 1.279 . S
C1024 C1023 1.358 . S
C1024 H1027 0.930 . S
C1025 C1022 1.348 . S
C1025 C1023 1.356 . S
H1026 C1020 0.930 . S
H1027 C1024 0.930 . S
O1028 Li968 1.956 . S
O1028 Li969 1.970 . S
O1028 Li970 1.961 . S
O1028 C972 1.325 . S
O1029 Li968 1.970 . S
O1029 Li969 1.956 . S
O1029 Li971 1.961 . S
O1029 C978 1.325 . S
O1030 Li968 1.961 . S
O1030 Li970 1.956 . S
O1030 Li971 1.970 . S
O1030 C1000 1.325 . S
O1031 Li969 1.961 . S
O1031 Li970 1.970 . S
O1031 Li971 1.956 . S
O1031 C1006 1.325 . S
H1032 C974 0.929 . S
H1033 C975 0.930 . S
H1034 C976 0.930 . S
H1035 C977 0.930 . S
H1036 C979 0.930 . S
H1037 C981 0.929 . S
H1038 C982 0.930 . S
H1039 C983 0.930 1_655 S
H1040 C986 0.930 . S
H1041 C989 0.929 . S
H1042 C994 0.929 . S
H1043 C995 0.930 . S
H1044 C1002 0.929 . S
H1045 C1003 0.930 . S
H1046 C1004 0.930 . S
H1047 C1005 0.930 1_655 S
H1048 C1007 0.929 . S
H1049 C1008 0.930 . S
H1050 C1009 0.930 . S
H1051 C1010 0.930 . S
H1052 C1014 0.929 . S
H1053 C1016 0.930 . S
H1054 C1022 0.929 . S
H1055 C1023 0.930 . S
Li1056 N1073 1.990 . S
Li1056 O1116 1.956 . S
Li1056 O1117 1.970 . S
Li1056 O1118 1.961 . S
Li1057 N1081 1.990 . S
Li1057 O1116 1.970 . S
Li1057 O1117 1.956 . S
Li1057 O1119 1.961 . S
Li1058 N1103 1.990 . S
Li1058 O1116 1.961 . S
Li1058 O1118 1.956 . S
Li1058 O1119 1.970 . S
Li1059 N1109 1.990 . S
Li1059 O1117 1.961 . S
Li1059 O1118 1.970 . S
Li1059 O1119 1.956 . S
C1060 C1062 1.348 . S
C1060 C1063 1.356 . S
C1060 O1116 1.325 . S
N1061 C1064 1.314 . S
N1061 C1065 1.279 . S
C1062 C1060 1.348 . S
C1062 C1064 1.353 . S
C1062 H1120 0.929 . S
C1063 C1060 1.356 . S
C1063 C1065 1.358 . S
C1063 H1121 0.930 . S
C1064 N1061 1.314 . S
C1064 C1062 1.353 . S
C1064 H1122 0.930 . S
C1065 N1061 1.279 . S
C1065 C1063 1.358 . S
C1065 H1123 0.930 . S
C1066 C1069 1.348 . S
C1066 C1070 1.356 . S
C1066 O1117 1.325 . S
C1067 N1068 1.279 . S
C1067 C1070 1.358 . S
C1067 H1124 0.930 . S
N1068 C1067 1.279 . S
N1068 C1071 1.314 . S
C1069 C1066 1.348 . S
C1069 C1071 1.353 . S
C1069 H1125 0.929 . S
C1070 C1066 1.356 . S
C1070 C1067 1.358 . S
C1070 H1126 0.930 . S
C1071 N1068 1.314 . S
C1071 C1069 1.353 . S
C1071 H1127 0.930 . S
C1072 N1073 1.314 . S
C1072 C1077 1.353 . S
C1072 H1078 0.930 . S
N1073 Li1056 1.990 . S
N1073 C1072 1.314 . S
N1073 C1075 1.279 . S
C1074 C1075 1.358 . S
C1074 C1076 1.356 . S
C1074 H1128 0.930 . S
C1075 N1073 1.279 . S
C1075 C1074 1.358 . S
C1075 H1079 0.930 . S
C1076 C1074 1.356 . S
C1076 C1077 1.348 . S
C1077 C1072 1.353 . S
C1077 C1076 1.348 . S
C1077 H1129 0.929 . S
H1078 C1072 0.930 . S
H1079 C1075 0.930 . S
C1080 N1081 1.314 . S
C1080 C1082 1.353 . S
C1080 H1086 0.930 . S
N1081 Li1057 1.990 . S
N1081 C1080 1.314 . S
N1081 C1084 1.279 . S
C1082 C1080 1.353 . S
C1082 C1085 1.348 . S
C1082 H1130 0.929 . S
C1083 C1084 1.358 . S
C1083 C1085 1.356 . S
C1083 H1131 0.930 . S
C1084 N1081 1.279 . S
C1084 C1083 1.358 . S
C1084 H1087 0.930 . S
C1085 C1082 1.348 . S
C1085 C1083 1.356 . S
H1086 C1080 0.930 . S
H1087 C1084 0.930 . S
C1088 C1090 1.348 . S
C1088 C1091 1.356 . S
C1088 O1118 1.325 . S
N1089 C1092 1.314 . S
N1089 C1093 1.279 . S
C1090 C1088 1.348 . S
C1090 C1092 1.353 . S
C1090 H1132 0.929 . S
C1091 C1088 1.356 . S
C1091 C1093 1.358 . S
C1091 H1133 0.930 . S
C1092 N1089 1.314 . S
C1092 C1090 1.353 . S
C1092 H1134 0.930 1_545 S
C1093 N1089 1.279 . S
C1093 C1091 1.358 . S
C1093 H1135 0.930 . S
C1094 C1095 1.348 . S
C1094 C1096 1.356 . S
C1094 O1119 1.325 . S
C1095 C1094 1.348 . S
C1095 C1097 1.353 . S
C1095 H1136 0.929 . S
C1096 C1094 1.356 . S
C1096 C1098 1.358 . S
C1096 H1137 0.930 . S
C1097 C1095 1.353 . S
C1097 N1099 1.314 1_545 S
C1097 H1138 0.930 1_545 S
C1098 C1096 1.358 . S
C1098 N1099 1.279 1_545 S
C1098 H1139 0.930 . S
N1099 C1097 1.314 1_565 S
N1099 C1098 1.279 1_565 S
C1100 C1102 1.353 . S
C1100 N1103 1.314 . S
C1100 H1106 0.930 . S
C1101 N1103 1.279 . S
C1101 C1104 1.358 . S
C1101 H1107 0.930 . S
C1102 C1100 1.353 . S
C1102 C1105 1.348 . S
C1102 H1140 0.929 . S
N1103 Li1058 1.990 . S
N1103 C1100 1.314 . S
N1103 C1101 1.279 . S
C1104 C1101 1.358 . S
C1104 C1105 1.356 . S
C1104 H1141 0.930 . S
C1105 C1102 1.348 . S
C1105 C1104 1.356 . S
H1106 C1100 0.930 . S
H1107 C1101 0.930 . S
C1108 N1109 1.314 . S
C1108 C1110 1.353 1_545 S
C1108 H1114 0.930 . S
N1109 Li1059 1.990 . S
N1109 C1108 1.314 . S
N1109 C1112 1.279 1_545 S
C1110 C1108 1.353 1_565 S
C1110 C1113 1.348 . S
C1110 H1142 0.929 . S
C1111 C1112 1.358 . S
C1111 C1113 1.356 . S
C1111 H1143 0.930 . S
C1112 N1109 1.279 1_565 S
C1112 C1111 1.358 . S
C1112 H1115 0.930 . S
C1113 C1110 1.348 . S
C1113 C1111 1.356 . S
H1114 C1108 0.930 . S
H1115 C1112 0.930 . S
O1116 Li1056 1.956 . S
O1116 Li1057 1.970 . S
O1116 Li1058 1.961 . S
O1116 C1060 1.325 . S
O1117 Li1056 1.970 . S
O1117 Li1057 1.956 . S
O1117 Li1059 1.961 . S
O1117 C1066 1.325 . S
O1118 Li1056 1.961 . S
O1118 Li1058 1.956 . S
O1118 Li1059 1.970 . S
O1118 C1088 1.325 . S
O1119 Li1057 1.961 . S
O1119 Li1058 1.970 . S
O1119 Li1059 1.956 . S
O1119 C1094 1.325 . S
H1120 C1062 0.929 . S
H1121 C1063 0.930 . S
H1122 C1064 0.930 . S
H1123 C1065 0.930 . S
H1124 C1067 0.930 . S
H1125 C1069 0.929 . S
H1126 C1070 0.930 . S
H1127 C1071 0.930 . S
H1128 C1074 0.930 . S
H1129 C1077 0.929 . S
H1130 C1082 0.929 . S
H1131 C1083 0.930 . S
H1132 C1090 0.929 . S
H1133 C1091 0.930 . S
H1134 C1092 0.930 1_565 S
H1135 C1093 0.930 . S
H1136 C1095 0.929 . S
H1137 C1096 0.930 . S
H1138 C1097 0.930 1_565 S
H1139 C1098 0.930 . S
H1140 C1102 0.929 . S
H1141 C1104 0.930 . S
H1142 C1110 0.929 . S
H1143 C1111 0.930 . S
Li1144 N1161 1.990 . S
Li1144 O1204 1.956 . S
Li1144 O1205 1.970 . S
Li1144 O1206 1.961 . S
Li1145 N1169 1.990 . S
Li1145 O1204 1.970 . S
Li1145 O1205 1.956 . S
Li1145 O1207 1.961 . S
Li1146 N1191 1.990 . S
Li1146 O1204 1.961 . S
Li1146 O1206 1.956 . S
Li1146 O1207 1.970 . S
Li1147 N1197 1.990 . S
Li1147 O1205 1.961 . S
Li1147 O1206 1.970 . S
Li1147 O1207 1.956 . S
C1148 C1150 1.348 . S
C1148 C1151 1.356 . S
C1148 O1204 1.325 . S
N1149 C1152 1.314 . S
N1149 C1153 1.279 . S
C1150 C1148 1.348 . S
C1150 C1152 1.353 . S
C1150 H1208 0.929 . S
C1151 C1148 1.356 . S
C1151 C1153 1.358 . S
C1151 H1209 0.930 . S
C1152 N1149 1.314 . S
C1152 C1150 1.353 . S
C1152 H1210 0.930 . S
C1153 N1149 1.279 . S
C1153 C1151 1.358 . S
C1153 H1211 0.930 . S
C1154 C1157 1.348 . S
C1154 C1158 1.356 . S
C1154 O1205 1.325 . S
C1155 N1156 1.279 . S
C1155 C1158 1.358 . S
C1155 H1212 0.930 1_455 S
N1156 C1155 1.279 . S
N1156 C1159 1.314 . S
C1157 C1154 1.348 . S
C1157 C1159 1.353 . S
C1157 H1213 0.929 . S
C1158 C1154 1.356 . S
C1158 C1155 1.358 . S
C1158 H1214 0.930 . S
C1159 N1156 1.314 . S
C1159 C1157 1.353 . S
C1159 H1215 0.930 . S
C1160 N1161 1.314 . S
C1160 C1165 1.353 . S
C1160 H1166 0.930 . S
N1161 Li1144 1.990 . S
N1161 C1160 1.314 . S
N1161 C1163 1.279 . S
C1162 C1163 1.358 . S
C1162 C1164 1.356 . S
C1162 H1216 0.930 . S
C1163 N1161 1.279 . S
C1163 C1162 1.358 . S
C1163 H1167 0.930 . S
C1164 C1162 1.356 . S
C1164 C1165 1.348 . S
C1165 C1160 1.353 . S
C1165 C1164 1.348 . S
C1165 H1217 0.929 . S
H1166 C1160 0.930 . S
H1167 C1163 0.930 . S
C1168 N1169 1.314 . S
C1168 C1170 1.353 . S
C1168 H1174 0.930 . S
N1169 Li1145 1.990 . S
N1169 C1168 1.314 . S
N1169 C1172 1.279 . S
C1170 C1168 1.353 . S
C1170 C1173 1.348 . S
C1170 H1218 0.929 . S
C1171 C1172 1.358 . S
C1171 C1173 1.356 . S
C1171 H1219 0.930 . S
C1172 N1169 1.279 . S
C1172 C1171 1.358 . S
C1172 H1175 0.930 . S
C1173 C1170 1.348 . S
C1173 C1171 1.356 . S
H1174 C1168 0.930 . S
H1175 C1172 0.930 . S
C1176 C1178 1.348 . S
C1176 C1179 1.356 . S
C1176 O1206 1.325 . S
N1177 C1180 1.314 . S
N1177 C1181 1.279 . S
C1178 C1176 1.348 . S
C1178 C1180 1.353 . S
C1178 H1220 0.929 . S
C1179 C1176 1.356 . S
C1179 C1181 1.358 . S
C1179 H1221 0.930 . S
C1180 N1177 1.314 . S
C1180 C1178 1.353 . S
C1180 H1222 0.930 1_455 S
C1181 N1177 1.279 . S
C1181 C1179 1.358 . S
C1181 H1223 0.930 . S
C1182 C1183 1.348 . S
C1182 C1184 1.356 . S
C1182 O1207 1.325 . S
C1183 C1182 1.348 . S
C1183 C1185 1.353 . S
C1183 H1224 0.929 . S
C1184 C1182 1.356 . S
C1184 C1186 1.358 . S
C1184 H1225 0.930 . S
C1185 C1183 1.353 . S
C1185 N1187 1.314 . S
C1185 H1226 0.930 . S
C1186 C1184 1.358 . S
C1186 N1187 1.279 . S
C1186 H1227 0.930 . S
N1187 C1185 1.314 . S
N1187 C1186 1.279 . S
C1188 C1190 1.353 . S
C1188 N1191 1.314 . S
C1188 H1194 0.930 . S
C1189 N1191 1.279 . S
C1189 C1192 1.358 . S
C1189 H1195 0.930 . S
C1190 C1188 1.353 . S
C1190 C1193 1.348 . S
C1190 H1228 0.929 . S
N1191 Li1146 1.990 . S
N1191 C1188 1.314 . S
N1191 C1189 1.279 . S
C1192 C1189 1.358 . S
C1192 C1193 1.356 . S
C1192 H1229 0.930 . S
C1193 C1190 1.348 . S
C1193 C1192 1.356 . S
H1194 C1188 0.930 . S
H1195 C1189 0.930 . S
C1196 N1197 1.314 1_655 S
C1196 C1198 1.353 . S
C1196 H1202 0.930 . S
N1197 Li1147 1.990 . S
N1197 C1196 1.314 1_455 S
N1197 C1200 1.279 . S
C1198 C1196 1.353 . S
C1198 C1201 1.348 . S
C1198 H1230 0.929 . S
C1199 C1200 1.358 1_655 S
C1199 C1201 1.356 . S
C1199 H1231 0.930 . S
C1200 N1197 1.279 . S
C1200 C1199 1.358 1_455 S
C1200 H1203 0.930 . S
C1201 C1198 1.348 . S
C1201 C1199 1.356 . S
H1202 C1196 0.930 . S
H1203 C1200 0.930 . S
O1204 Li1144 1.956 . S
O1204 Li1145 1.970 . S
O1204 Li1146 1.961 . S
O1204 C1148 1.325 . S
O1205 Li1144 1.970 . S
O1205 Li1145 1.956 . S
O1205 Li1147 1.961 . S
O1205 C1154 1.325 . S
O1206 Li1144 1.961 . S
O1206 Li1146 1.956 . S
O1206 Li1147 1.970 . S
O1206 C1176 1.325 . S
O1207 Li1145 1.961 . S
O1207 Li1146 1.970 . S
O1207 Li1147 1.956 . S
O1207 C1182 1.325 . S
H1208 C1150 0.929 . S
H1209 C1151 0.930 . S
H1210 C1152 0.930 . S
H1211 C1153 0.930 . S
H1212 C1155 0.930 1_655 S
H1213 C1157 0.929 . S
H1214 C1158 0.930 . S
H1215 C1159 0.930 . S
H1216 C1162 0.930 . S
H1217 C1165 0.929 . S
H1218 C1170 0.929 . S
H1219 C1171 0.930 . S
H1220 C1178 0.929 . S
H1221 C1179 0.930 . S
H1222 C1180 0.930 1_655 S
H1223 C1181 0.930 . S
H1224 C1183 0.929 . S
H1225 C1184 0.930 . S
H1226 C1185 0.930 . S
H1227 C1186 0.930 . S
H1228 C1190 0.929 . S
H1229 C1192 0.930 . S
H1230 C1198 0.929 . S
H1231 C1199 0.930 . S
Li1232 N1249 1.990 . S
Li1232 O1292 1.956 . S
Li1232 O1293 1.970 . S
Li1232 O1294 1.961 . S
Li1233 N1257 1.990 . S
Li1233 O1292 1.970 . S
Li1233 O1293 1.956 . S
Li1233 O1295 1.961 . S
Li1234 N1279 1.990 . S
Li1234 O1292 1.961 . S
Li1234 O1294 1.956 . S
Li1234 O1295 1.970 . S
Li1235 N1285 1.990 . S
Li1235 O1293 1.961 . S
Li1235 O1294 1.970 . S
Li1235 O1295 1.956 . S
C1236 C1238 1.348 . S
C1236 C1239 1.356 . S
C1236 O1292 1.325 . S
N1237 C1240 1.314 . S
N1237 C1241 1.279 . S
C1238 C1236 1.348 . S
C1238 C1240 1.353 . S
C1238 H1296 0.929 . S
C1239 C1236 1.356 . S
C1239 C1241 1.358 . S
C1239 H1297 0.930 . S
C1240 N1237 1.314 . S
C1240 C1238 1.353 . S
C1240 H1298 0.930 1_565 S
C1241 N1237 1.279 . S
C1241 C1239 1.358 . S
C1241 H1299 0.930 . S
C1242 C1245 1.348 . S
C1242 C1246 1.356 . S
C1242 O1293 1.325 . S
C1243 N1244 1.279 1_565 S
C1243 C1246 1.358 . S
C1243 H1300 0.930 . S
N1244 C1243 1.279 1_545 S
N1244 C1247 1.314 1_545 S
C1245 C1242 1.348 . S
C1245 C1247 1.353 . S
C1245 H1301 0.929 . S
C1246 C1242 1.356 . S
C1246 C1243 1.358 . S
C1246 H1302 0.930 . S
C1247 N1244 1.314 1_565 S
C1247 C1245 1.353 . S
C1247 H1303 0.930 1_565 S
C1248 N1249 1.314 . S
C1248 C1253 1.353 . S
C1248 H1254 0.930 . S
N1249 Li1232 1.990 . S
N1249 C1248 1.314 . S
N1249 C1251 1.279 . S
C1250 C1251 1.358 . S
C1250 C1252 1.356 . S
C1250 H1304 0.930 . S
C1251 N1249 1.279 . S
C1251 C1250 1.358 . S
C1251 H1255 0.930 . S
C1252 C1250 1.356 . S
C1252 C1253 1.348 . S
C1253 C1248 1.353 . S
C1253 C1252 1.348 . S
C1253 H1305 0.929 . S
H1254 C1248 0.930 . S
H1255 C1251 0.930 . S
C1256 N1257 1.314 . S
C1256 C1258 1.353 1_565 S
C1256 H1262 0.930 . S
N1257 Li1233 1.990 . S
N1257 C1256 1.314 . S
N1257 C1260 1.279 1_565 S
C1258 C1256 1.353 1_545 S
C1258 C1261 1.348 . S
C1258 H1306 0.929 . S
C1259 C1260 1.358 . S
C1259 C1261 1.356 . S
C1259 H1307 0.930 . S
C1260 N1257 1.279 1_545 S
C1260 C1259 1.358 . S
C1260 H1263 0.930 . S
C1261 C1258 1.348 . S
C1261 C1259 1.356 . S
H1262 C1256 0.930 . S
H1263 C1260 0.930 . S
C1264 C1266 1.348 . S
C1264 C1267 1.356 . S
C1264 O1294 1.325 . S
N1265 C1268 1.314 . S
N1265 C1269 1.279 . S
C1266 C1264 1.348 . S
C1266 C1268 1.353 . S
C1266 H1308 0.929 . S
C1267 C1264 1.356 . S
C1267 C1269 1.358 . S
C1267 H1309 0.930 . S
C1268 N1265 1.314 . S
C1268 C1266 1.353 . S
C1268 H1310 0.930 . S
C1269 N1265 1.279 . S
C1269 C1267 1.358 . S
C1269 H1311 0.930 . S
C1270 C1271 1.348 . S
C1270 C1272 1.356 . S
C1270 O1295 1.325 . S
C1271 C1270 1.348 . S
C1271 C1273 1.353 . S
C1271 H1312 0.929 . S
C1272 C1270 1.356 . S
C1272 C1274 1.358 . S
C1272 H1313 0.930 . S
C1273 C1271 1.353 . S
C1273 N1275 1.314 . S
C1273 H1314 0.930 . S
C1274 C1272 1.358 . S
C1274 N1275 1.279 . S
C1274 H1315 0.930 . S
N1275 C1273 1.314 . S
N1275 C1274 1.279 . S
C1276 C1278 1.353 . S
C1276 N1279 1.314 . S
C1276 H1282 0.930 . S
C1277 N1279 1.279 . S
C1277 C1280 1.358 . S
C1277 H1283 0.930 . S
C1278 C1276 1.353 . S
C1278 C1281 1.348 . S
C1278 H1316 0.929 . S
N1279 Li1234 1.990 . S
N1279 C1276 1.314 . S
N1279 C1277 1.279 . S
C1280 C1277 1.358 . S
C1280 C1281 1.356 . S
C1280 H1317 0.930 . S
C1281 C1278 1.348 . S
C1281 C1280 1.356 . S
H1282 C1276 0.930 . S
H1283 C1277 0.930 . S
C1284 N1285 1.314 . S
C1284 C1286 1.353 . S
C1284 H1290 0.930 . S
N1285 Li1235 1.990 . S
N1285 C1284 1.314 . S
N1285 C1288 1.279 . S
C1286 C1284 1.353 . S
C1286 C1289 1.348 . S
C1286 H1318 0.929 . S
C1287 C1288 1.358 . S
C1287 C1289 1.356 . S
C1287 H1319 0.930 . S
C1288 N1285 1.279 . S
C1288 C1287 1.358 . S
C1288 H1291 0.930 . S
C1289 C1286 1.348 . S
C1289 C1287 1.356 . S
H1290 C1284 0.930 . S
H1291 C1288 0.930 . S
O1292 Li1232 1.956 . S
O1292 Li1233 1.970 . S
O1292 Li1234 1.961 . S
O1292 C1236 1.325 . S
O1293 Li1232 1.970 . S
O1293 Li1233 1.956 . S
O1293 Li1235 1.961 . S
O1293 C1242 1.325 . S
O1294 Li1232 1.961 . S
O1294 Li1234 1.956 . S
O1294 Li1235 1.970 . S
O1294 C1264 1.325 . S
O1295 Li1233 1.961 . S
O1295 Li1234 1.970 . S
O1295 Li1235 1.956 . S
O1295 C1270 1.325 . S
H1296 C1238 0.929 . S
H1297 C1239 0.930 . S
H1298 C1240 0.930 1_545 S
H1299 C1241 0.930 . S
H1300 C1243 0.930 . S
H1301 C1245 0.929 . S
H1302 C1246 0.930 . S
H1303 C1247 0.930 1_545 S
H1304 C1250 0.930 . S
H1305 C1253 0.929 . S
H1306 C1258 0.929 . S
H1307 C1259 0.930 . S
H1308 C1266 0.929 . S
H1309 C1267 0.930 . S
H1310 C1268 0.930 . S
H1311 C1269 0.930 . S
H1312 C1271 0.929 . S
H1313 C1272 0.930 . S
H1314 C1273 0.930 . S
H1315 C1274 0.930 . S
H1316 C1278 0.929 . S
H1317 C1280 0.930 . S
H1318 C1286 0.929 . S
H1319 C1287 0.930 . S
Li1320 N1337 1.990 . S
Li1320 O1380 1.956 . S
Li1320 O1381 1.970 . S
Li1320 O1382 1.961 . S
Li1321 N1345 1.990 . S
Li1321 O1380 1.970 . S
Li1321 O1381 1.956 . S
Li1321 O1383 1.961 . S
Li1322 N1367 1.990 . S
Li1322 O1380 1.961 . S
Li1322 O1382 1.956 . S
Li1322 O1383 1.970 . S
Li1323 N1373 1.990 . S
Li1323 O1381 1.961 . S
Li1323 O1382 1.970 . S
Li1323 O1383 1.956 . S
C1324 C1326 1.348 . S
C1324 C1327 1.356 . S
C1324 O1380 1.325 . S
N1325 C1328 1.314 . S
N1325 C1329 1.279 . S
C1326 C1324 1.348 . S
C1326 C1328 1.353 . S
C1326 H1384 0.929 . S
C1327 C1324 1.356 . S
C1327 C1329 1.358 . S
C1327 H1385 0.930 . S
C1328 N1325 1.314 . S
C1328 C1326 1.353 . S
C1328 H1386 0.930 . S
C1329 N1325 1.279 . S
C1329 C1327 1.358 . S
C1329 H1387 0.930 1_655 S
C1330 C1333 1.348 . S
C1330 C1334 1.356 . S
C1330 O1381 1.325 . S
C1331 N1332 1.279 . S
C1331 C1334 1.358 . S
C1331 H1388 0.930 . S
N1332 C1331 1.279 . S
N1332 C1335 1.314 . S
C1333 C1330 1.348 . S
C1333 C1335 1.353 . S
C1333 H1389 0.929 . S
C1334 C1330 1.356 . S
C1334 C1331 1.358 . S
C1334 H1390 0.930 . S
C1335 N1332 1.314 . S
C1335 C1333 1.353 . S
C1335 H1391 0.930 . S
C1336 N1337 1.314 . S
C1336 C1341 1.353 . S
C1336 H1342 0.930 . S
N1337 Li1320 1.990 . S
N1337 C1336 1.314 . S
N1337 C1339 1.279 . S
C1338 C1339 1.358 . S
C1338 C1340 1.356 . S
C1338 H1392 0.930 . S
C1339 N1337 1.279 . S
C1339 C1338 1.358 . S
C1339 H1343 0.930 . S
C1340 C1338 1.356 . S
C1340 C1341 1.348 . S
C1341 C1336 1.353 . S
C1341 C1340 1.348 . S
C1341 H1393 0.929 . S
H1342 C1336 0.930 . S
H1343 C1339 0.930 . S
C1344 N1345 1.314 . S
C1344 C1346 1.353 . S
C1344 H1350 0.930 . S
N1345 Li1321 1.990 . S
N1345 C1344 1.314 . S
N1345 C1348 1.279 . S
C1346 C1344 1.353 . S
C1346 C1349 1.348 . S
C1346 H1394 0.929 . S
C1347 C1348 1.358 . S
C1347 C1349 1.356 . S
C1347 H1395 0.930 . S
C1348 N1345 1.279 . S
C1348 C1347 1.358 . S
C1348 H1351 0.930 . S
C1349 C1346 1.348 . S
C1349 C1347 1.356 . S
H1350 C1344 0.930 . S
H1351 C1348 0.930 . S
C1352 C1354 1.348 . S
C1352 C1355 1.356 . S
C1352 O1382 1.325 . S
N1353 C1356 1.314 . S
N1353 C1357 1.279 . S
C1354 C1352 1.348 . S
C1354 C1356 1.353 . S
C1354 H1396 0.929 . S
C1355 C1352 1.356 . S
C1355 C1357 1.358 . S
C1355 H1397 0.930 . S
C1356 N1353 1.314 . S
C1356 C1354 1.353 . S
C1356 H1398 0.930 . S
C1357 N1353 1.279 . S
C1357 C1355 1.358 . S
C1357 H1399 0.930 . S
C1358 C1359 1.348 . S
C1358 C1360 1.356 . S
C1358 O1383 1.325 . S
C1359 C1358 1.348 . S
C1359 C1361 1.353 . S
C1359 H1400 0.929 . S
C1360 C1358 1.356 . S
C1360 C1362 1.358 . S
C1360 H1401 0.930 . S
C1361 C1359 1.353 . S
C1361 N1363 1.314 . S
C1361 H1402 0.930 1_655 S
C1362 C1360 1.358 . S
C1362 N1363 1.279 . S
C1362 H1403 0.930 . S
N1363 C1361 1.314 . S
N1363 C1362 1.279 . S
C1364 C1366 1.353 . S
C1364 N1367 1.314 1_455 S
C1364 H1370 0.930 . S
C1365 N1367 1.279 . S
C1365 C1368 1.358 1_655 S
C1365 H1371 0.930 . S
C1366 C1364 1.353 . S
C1366 C1369 1.348 . S
C1366 H1404 0.929 . S
N1367 Li1322 1.990 . S
N1367 C1364 1.314 1_655 S
N1367 C1365 1.279 . S
C1368 C1365 1.358 1_455 S
C1368 C1369 1.356 . S
C1368 H1405 0.930 . S
C1369 C1366 1.348 . S
C1369 C1368 1.356 . S
H1370 C1364 0.930 . S
H1371 C1365 0.930 . S
C1372 N1373 1.314 . S
C1372 C1374 1.353 . S
C1372 H1378 0.930 . S
N1373 Li1323 1.990 . S
N1373 C1372 1.314 . S
N1373 C1376 1.279 . S
C1374 C1372 1.353 . S
C1374 C1377 1.348 . S
C1374 H1406 0.929 . S
C1375 C1376 1.358 . S
C1375 C1377 1.356 . S
C1375 H1407 0.930 . S
C1376 N1373 1.279 . S
C1376 C1375 1.358 . S
C1376 H1379 0.930 . S
C1377 C1374 1.348 . S
C1377 C1375 1.356 . S
H1378 C1372 0.930 . S
H1379 C1376 0.930 . S
O1380 Li1320 1.956 . S
O1380 Li1321 1.970 . S
O1380 Li1322 1.961 . S
O1380 C1324 1.325 . S
O1381 Li1320 1.970 . S
O1381 Li1321 1.956 . S
O1381 Li1323 1.961 . S
O1381 C1330 1.325 . S
O1382 Li1320 1.961 . S
O1382 Li1322 1.956 . S
O1382 Li1323 1.970 . S
O1382 C1352 1.325 . S
O1383 Li1321 1.961 . S
O1383 Li1322 1.970 . S
O1383 Li1323 1.956 . S
O1383 C1358 1.325 . S
H1384 C1326 0.929 . S
H1385 C1327 0.930 . S
H1386 C1328 0.930 . S
H1387 C1329 0.930 1_455 S
H1388 C1331 0.930 . S
H1389 C1333 0.929 . S
H1390 C1334 0.930 . S
H1391 C1335 0.930 . S
H1392 C1338 0.930 . S
H1393 C1341 0.929 . S
H1394 C1346 0.929 . S
H1395 C1347 0.930 . S
H1396 C1354 0.929 . S
H1397 C1355 0.930 . S
H1398 C1356 0.930 . S
H1399 C1357 0.930 . S
H1400 C1359 0.929 . S
H1401 C1360 0.930 . S
H1402 C1361 0.930 1_455 S
H1403 C1362 0.930 . S
H1404 C1366 0.929 . S
H1405 C1368 0.930 . S
H1406 C1374 0.929 . S
H1407 C1375 0.930 . S
H1408 C1414 0.930 . S
H1409 C1418 0.930 . S
H1410 C1423 0.929 . S
H1411 C1421 0.929 . S
H1412 C1416 0.929 . S
H1413 C1422 0.929 . S
C1414 H1408 0.930 . S
C1414 C1415 1.367 . S
C1414 C1422 1.378 . S
C1415 C1414 1.367 . S
C1415 C1423 1.433 . S
C1416 H1412 0.929 . S
C1416 C1418 1.378 . S
C1416 C1420 1.350 . S
C1417 C1420 1.463 . S
C1417 C1422 1.350 . S
C1417 N1425 1.427 . S
C1418 H1409 0.930 . S
C1418 C1416 1.378 . S
C1418 C1419 1.367 . S
C1419 C1418 1.367 . S
C1419 C1421 1.433 . S
C1420 C1416 1.350 . S
C1420 C1417 1.463 . S
C1420 N1424 1.427 . S
C1421 H1411 0.929 . S
C1421 C1419 1.433 . S
C1421 N1424 1.384 . S
C1422 H1413 0.929 . S
C1422 C1414 1.378 . S
C1422 C1417 1.350 . S
C1423 H1410 0.929 . S
C1423 C1415 1.433 . S
C1423 N1425 1.384 . S
N1424 C1420 1.427 . S
N1424 C1421 1.384 . S
N1425 C1417 1.427 . S
N1425 C1423 1.384 . S
H1426 C1432 0.930 . S
H1427 C1436 0.930 . S
H1428 C1441 0.929 . S
H1429 C1439 0.929 . S
H1430 C1434 0.929 . S
H1431 C1440 0.929 . S
C1432 H1426 0.930 . S
C1432 C1433 1.367 . S
C1432 C1440 1.378 . S
C1433 C1432 1.367 . S
C1433 C1441 1.433 . S
C1434 H1430 0.929 . S
C1434 C1436 1.378 . S
C1434 C1438 1.350 . S
C1435 C1438 1.463 . S
C1435 C1440 1.350 . S
C1435 N1443 1.427 . S
C1436 H1427 0.930 . S
C1436 C1434 1.378 . S
C1436 C1437 1.367 . S
C1437 C1436 1.367 . S
C1437 C1439 1.433 . S
C1438 C1434 1.350 . S
C1438 C1435 1.463 . S
C1438 N1442 1.427 . S
C1439 H1429 0.929 . S
C1439 C1437 1.433 . S
C1439 N1442 1.384 . S
C1440 H1431 0.929 . S
C1440 C1432 1.378 . S
C1440 C1435 1.350 . S
C1441 H1428 0.929 . S
C1441 C1433 1.433 . S
C1441 N1443 1.384 . S
N1442 C1438 1.427 . S
N1442 C1439 1.384 . S
N1443 C1435 1.427 . S
N1443 C1441 1.384 . S
H1444 C1450 0.930 . S
H1445 C1454 0.930 . S
H1446 C1459 0.929 . S
H1447 C1457 0.929 . S
H1448 C1452 0.929 . S
H1449 C1458 0.929 . S
C1450 H1444 0.930 . S
C1450 C1451 1.367 . S
C1450 C1458 1.378 . S
C1451 C1450 1.367 . S
C1451 C1459 1.433 . S
C1452 H1448 0.929 . S
C1452 C1454 1.378 . S
C1452 C1456 1.350 . S
C1453 C1456 1.463 . S
C1453 C1458 1.350 . S
C1453 N1461 1.427 . S
C1454 H1445 0.930 . S
C1454 C1452 1.378 . S
C1454 C1455 1.367 . S
C1455 C1454 1.367 . S
C1455 C1457 1.433 . S
C1456 C1452 1.350 . S
C1456 C1453 1.463 . S
C1456 N1460 1.427 . S
C1457 H1447 0.929 . S
C1457 C1455 1.433 . S
C1457 N1460 1.384 . S
C1458 H1449 0.929 . S
C1458 C1450 1.378 . S
C1458 C1453 1.350 . S
C1459 H1446 0.929 . S
C1459 C1451 1.433 . S
C1459 N1461 1.384 . S
N1460 C1456 1.427 . S
N1460 C1457 1.384 . S
N1461 C1453 1.427 . S
N1461 C1459 1.384 . S
H1462 C1468 0.930 . S
H1463 C1472 0.930 . S
H1464 C1477 0.929 . S
H1465 C1475 0.929 . S
H1466 C1470 0.929 . S
H1467 C1476 0.929 . S
C1468 H1462 0.930 . S
C1468 C1469 1.367 . S
C1468 C1476 1.378 . S
C1469 C1468 1.367 . S
C1469 C1477 1.433 . S
C1470 H1466 0.929 . S
C1470 C1472 1.378 . S
C1470 C1474 1.350 . S
C1471 C1474 1.463 . S
C1471 C1476 1.350 . S
C1471 N1479 1.427 . S
C1472 H1463 0.930 . S
C1472 C1470 1.378 . S
C1472 C1473 1.367 . S
C1473 C1472 1.367 . S
C1473 C1475 1.433 . S
C1474 C1470 1.350 . S
C1474 C1471 1.463 . S
C1474 N1478 1.427 . S
C1475 H1465 0.929 . S
C1475 C1473 1.433 . S
C1475 N1478 1.384 . S
C1476 H1467 0.929 . S
C1476 C1468 1.378 . S
C1476 C1471 1.350 . S
C1477 H1464 0.929 . S
C1477 C1469 1.433 . S
C1477 N1479 1.384 . S
N1478 C1474 1.427 . S
N1478 C1475 1.384 . S
N1479 C1471 1.427 . S
N1479 C1477 1.384 . S
H1480 C1486 0.930 . S
H1481 C1490 0.930 . S
H1482 C1495 0.929 . S
H1483 C1493 0.929 . S
H1484 C1488 0.929 . S
H1485 C1494 0.929 . S
C1486 H1480 0.930 . S
C1486 C1487 1.367 . S
C1486 C1494 1.378 . S
C1487 C1486 1.367 . S
C1487 C1495 1.433 . S
C1488 H1484 0.929 . S
C1488 C1490 1.378 . S
C1488 C1492 1.350 . S
C1489 C1492 1.463 . S
C1489 C1494 1.350 . S
C1489 N1497 1.427 . S
C1490 H1481 0.930 . S
C1490 C1488 1.378 . S
C1490 C1491 1.367 . S
C1491 C1490 1.367 . S
C1491 C1493 1.433 . S
C1492 C1488 1.350 . S
C1492 C1489 1.463 . S
C1492 N1496 1.427 . S
C1493 H1483 0.929 . S
C1493 C1491 1.433 . S
C1493 N1496 1.384 . S
C1494 H1485 0.929 . S
C1494 C1486 1.378 . S
C1494 C1489 1.350 . S
C1495 H1482 0.929 . S
C1495 C1487 1.433 . S
C1495 N1497 1.384 . S
N1496 C1492 1.427 . S
N1496 C1493 1.384 . S
N1497 C1489 1.427 . S
N1497 C1495 1.384 . S
H1498 C1504 0.930 . S
H1499 C1508 0.930 . S
H1500 C1513 0.929 . S
H1501 C1511 0.929 . S
H1502 C1506 0.929 . S
H1503 C1512 0.929 . S
C1504 H1498 0.930 . S
C1504 C1505 1.367 . S
C1504 C1512 1.378 . S
C1505 C1504 1.367 . S
C1505 C1513 1.433 . S
C1506 H1502 0.929 . S
C1506 C1508 1.378 . S
C1506 C1510 1.350 . S
C1507 C1510 1.463 . S
C1507 C1512 1.350 . S
C1507 N1515 1.427 . S
C1508 H1499 0.930 . S
C1508 C1506 1.378 . S
C1508 C1509 1.367 . S
C1509 C1508 1.367 . S
C1509 C1511 1.433 . S
C1510 C1506 1.350 . S
C1510 C1507 1.463 . S
C1510 N1514 1.427 . S
C1511 H1501 0.929 . S
C1511 C1509 1.433 . S
C1511 N1514 1.384 . S
C1512 H1503 0.929 . S
C1512 C1504 1.378 . S
C1512 C1507 1.350 . S
C1513 H1500 0.929 . S
C1513 C1505 1.433 . S
C1513 N1515 1.384 . S
N1514 C1510 1.427 . S
N1514 C1511 1.384 . S
N1515 C1507 1.427 . S
N1515 C1513 1.384 . S
H1516 C1522 0.930 . S
H1517 C1526 0.930 . S
H1518 C1531 0.929 . S
H1519 C1529 0.929 . S
H1520 C1524 0.929 . S
H1521 C1530 0.929 . S
C1522 H1516 0.930 . S
C1522 C1523 1.367 . S
C1522 C1530 1.378 . S
C1523 C1522 1.367 . S
C1523 C1531 1.433 . S
C1524 H1520 0.929 . S
C1524 C1526 1.378 . S
C1524 C1528 1.350 . S
C1525 C1528 1.463 . S
C1525 C1530 1.350 . S
C1525 N1533 1.427 . S
C1526 H1517 0.930 . S
C1526 C1524 1.378 . S
C1526 C1527 1.367 . S
C1527 C1526 1.367 . S
C1527 C1529 1.433 . S
C1528 C1524 1.350 . S
C1528 C1525 1.463 . S
C1528 N1532 1.427 . S
C1529 H1519 0.929 . S
C1529 C1527 1.433 . S
C1529 N1532 1.384 . S
C1530 H1521 0.929 . S
C1530 C1522 1.378 . S
C1530 C1525 1.350 . S
C1531 H1518 0.929 . S
C1531 C1523 1.433 . S
C1531 N1533 1.384 . S
N1532 C1528 1.427 . S
N1532 C1529 1.384 . S
N1533 C1525 1.427 . S
N1533 C1531 1.384 . S
H1534 C1540 0.930 . S
H1535 C1544 0.930 . S
H1536 C1549 0.929 . S
H1537 C1547 0.929 . S
H1538 C1542 0.929 . S
H1539 C1548 0.929 . S
C1540 H1534 0.930 . S
C1540 C1541 1.367 . S
C1540 C1548 1.378 . S
C1541 C1540 1.367 . S
C1541 C1549 1.433 . S
C1542 H1538 0.929 . S
C1542 C1544 1.378 . S
C1542 C1546 1.350 . S
C1543 C1546 1.463 . S
C1543 C1548 1.350 . S
C1543 N1551 1.427 . S
C1544 H1535 0.930 . S
C1544 C1542 1.378 . S
C1544 C1545 1.367 . S
C1545 C1544 1.367 . S
C1545 C1547 1.433 . S
C1546 C1542 1.350 . S
C1546 C1543 1.463 . S
C1546 N1550 1.427 . S
C1547 H1537 0.929 . S
C1547 C1545 1.433 . S
C1547 N1550 1.384 . S
C1548 H1539 0.929 . S
C1548 C1540 1.378 . S
C1548 C1543 1.350 . S
C1549 H1536 0.929 . S
C1549 C1541 1.433 . S
C1549 N1551 1.384 . S
N1550 C1546 1.427 . S
N1550 C1547 1.384 . S
N1551 C1543 1.427 . S
N1551 C1549 1.384 . S
H1552 C1558 0.930 . S
H1553 C1562 0.930 . S
H1554 C1567 0.929 . S
H1555 C1565 0.929 . S
H1556 C1560 0.929 . S
H1557 C1566 0.929 . S
C1558 H1552 0.930 . S
C1558 C1559 1.367 . S
C1558 C1566 1.378 . S
C1559 C1558 1.367 . S
C1559 C1567 1.433 . S
C1560 H1556 0.929 . S
C1560 C1562 1.378 . S
C1560 C1564 1.350 . S
C1561 C1564 1.463 . S
C1561 C1566 1.350 . S
C1561 N1569 1.427 . S
C1562 H1553 0.930 . S
C1562 C1560 1.378 . S
C1562 C1563 1.367 . S
C1563 C1562 1.367 . S
C1563 C1565 1.433 . S
C1564 C1560 1.350 . S
C1564 C1561 1.463 . S
C1564 N1568 1.427 . S
C1565 H1555 0.929 . S
C1565 C1563 1.433 . S
C1565 N1568 1.384 . S
C1566 H1557 0.929 . S
C1566 C1558 1.378 . S
C1566 C1561 1.350 . S
C1567 H1554 0.929 . S
C1567 C1559 1.433 . S
C1567 N1569 1.384 . S
N1568 C1564 1.427 . S
N1568 C1565 1.384 . S
N1569 C1561 1.427 . S
N1569 C1567 1.384 . S
H1570 C1576 0.930 . S
H1571 C1580 0.930 . S
H1572 C1585 0.929 . S
H1573 C1583 0.929 . S
H1574 C1578 0.929 . S
H1575 C1584 0.929 . S
C1576 H1570 0.930 . S
C1576 C1577 1.367 . S
C1576 C1584 1.378 . S
C1577 C1576 1.367 . S
C1577 C1585 1.433 . S
C1578 H1574 0.929 . S
C1578 C1580 1.378 . S
C1578 C1582 1.350 . S
C1579 C1582 1.463 . S
C1579 C1584 1.350 . S
C1579 N1587 1.427 . S
C1580 H1571 0.930 . S
C1580 C1578 1.378 . S
C1580 C1581 1.367 . S
C1581 C1580 1.367 . S
C1581 C1583 1.433 . S
C1582 C1578 1.350 . S
C1582 C1579 1.463 . S
C1582 N1586 1.427 . S
C1583 H1573 0.929 . S
C1583 C1581 1.433 . S
C1583 N1586 1.384 . S
C1584 H1575 0.929 . S
C1584 C1576 1.378 . S
C1584 C1579 1.350 . S
C1585 H1572 0.929 . S
C1585 C1577 1.433 . S
C1585 N1587 1.384 . S
N1586 C1582 1.427 . S
N1586 C1583 1.384 . S
N1587 C1579 1.427 . S
N1587 C1585 1.384 . S
H1588 C1594 0.930 . S
H1589 C1598 0.930 . S
H1590 C1603 0.929 . S
H1591 C1601 0.929 . S
H1592 C1596 0.929 . S
H1593 C1602 0.929 . S
C1594 H1588 0.930 . S
C1594 C1595 1.367 . S
C1594 C1602 1.378 . S
C1595 C1594 1.367 . S
C1595 C1603 1.433 . S
C1596 H1592 0.929 . S
C1596 C1598 1.378 . S
C1596 C1600 1.350 . S
C1597 C1600 1.463 . S
C1597 C1602 1.350 . S
C1597 N1605 1.427 . S
C1598 H1589 0.930 . S
C1598 C1596 1.378 . S
C1598 C1599 1.367 . S
C1599 C1598 1.367 . S
C1599 C1601 1.433 . S
C1600 C1596 1.350 . S
C1600 C1597 1.463 . S
C1600 N1604 1.427 . S
C1601 H1591 0.929 . S
C1601 C1599 1.433 . S
C1601 N1604 1.384 . S
C1602 H1593 0.929 . S
C1602 C1594 1.378 . S
C1602 C1597 1.350 . S
C1603 H1590 0.929 . S
C1603 C1595 1.433 . S
C1603 N1605 1.384 . S
N1604 C1600 1.427 . S
N1604 C1601 1.384 . S
N1605 C1597 1.427 . S
N1605 C1603 1.384 . S
H1606 C1612 0.930 . S
H1607 C1616 0.930 . S
H1608 C1621 0.929 . S
H1609 C1619 0.929 . S
H1610 C1614 0.929 . S
H1611 C1620 0.929 . S
C1612 H1606 0.930 . S
C1612 C1613 1.367 . S
C1612 C1620 1.378 . S
C1613 C1612 1.367 . S
C1613 C1621 1.433 . S
C1614 H1610 0.929 . S
C1614 C1616 1.378 . S
C1614 C1618 1.350 . S
C1615 C1618 1.463 . S
C1615 C1620 1.350 . S
C1615 N1623 1.427 . S
C1616 H1607 0.930 . S
C1616 C1614 1.378 . S
C1616 C1617 1.367 . S
C1617 C1616 1.367 . S
C1617 C1619 1.433 . S
C1618 C1614 1.350 . S
C1618 C1615 1.463 . S
C1618 N1622 1.427 . S
C1619 H1609 0.929 . S
C1619 C1617 1.433 . S
C1619 N1622 1.384 . S
C1620 H1611 0.929 . S
C1620 C1612 1.378 . S
C1620 C1615 1.350 . S
C1621 H1608 0.929 . S
C1621 C1613 1.433 . S
C1621 N1623 1.384 . S
N1622 C1618 1.427 . S
N1622 C1619 1.384 . S
N1623 C1615 1.427 . S
N1623 C1621 1.384 . S
H1624 C1630 0.930 . S
H1625 C1634 0.930 . S
H1626 C1639 0.929 . S
H1627 C1637 0.929 . S
H1628 C1632 0.929 . S
H1629 C1638 0.929 . S
C1630 H1624 0.930 . S
C1630 C1631 1.367 . S
C1630 C1638 1.378 . S
C1631 C1630 1.367 . S
C1631 C1639 1.433 . S
C1632 H1628 0.929 . S
C1632 C1634 1.378 . S
C1632 C1636 1.350 . S
C1633 C1636 1.463 . S
C1633 C1638 1.350 . S
C1633 N1641 1.427 . S
C1634 H1625 0.930 . S
C1634 C1632 1.378 . S
C1634 C1635 1.367 . S
C1635 C1634 1.367 . S
C1635 C1637 1.433 . S
C1636 C1632 1.350 . S
C1636 C1633 1.463 . S
C1636 N1640 1.427 . S
C1637 H1627 0.929 . S
C1637 C1635 1.433 . S
C1637 N1640 1.384 . S
C1638 H1629 0.929 . S
C1638 C1630 1.378 . S
C1638 C1633 1.350 . S
C1639 H1626 0.929 . S
C1639 C1631 1.433 . S
C1639 N1641 1.384 . S
N1640 C1636 1.427 . S
N1640 C1637 1.384 . S
N1641 C1633 1.427 . S
N1641 C1639 1.384 . S
H1642 C1648 0.930 . S
H1643 C1652 0.930 . S
H1644 C1657 0.929 . S
H1645 C1655 0.929 . S
H1646 C1650 0.929 . S
H1647 C1656 0.929 . S
C1648 H1642 0.930 . S
C1648 C1649 1.367 . S
C1648 C1656 1.378 . S
C1649 C1648 1.367 . S
C1649 C1657 1.433 . S
C1650 H1646 0.929 . S
C1650 C1652 1.378 . S
C1650 C1654 1.350 . S
C1651 C1654 1.463 . S
C1651 C1656 1.350 . S
C1651 N1659 1.427 . S
C1652 H1643 0.930 . S
C1652 C1650 1.378 . S
C1652 C1653 1.367 . S
C1653 C1652 1.367 . S
C1653 C1655 1.433 . S
C1654 C1650 1.350 . S
C1654 C1651 1.463 . S
C1654 N1658 1.427 . S
C1655 H1645 0.929 . S
C1655 C1653 1.433 . S
C1655 N1658 1.384 . S
C1656 H1647 0.929 . S
C1656 C1648 1.378 . S
C1656 C1651 1.350 . S
C1657 H1644 0.929 . S
C1657 C1649 1.433 . S
C1657 N1659 1.384 . S
N1658 C1654 1.427 . S
N1658 C1655 1.384 . S
N1659 C1651 1.427 . S
N1659 C1657 1.384 . S
H1660 C1666 0.930 . S
H1661 C1670 0.930 . S
H1662 C1675 0.929 . S
H1663 C1673 0.929 . S
H1664 C1668 0.929 . S
H1665 C1674 0.929 . S
C1666 H1660 0.930 . S
C1666 C1667 1.367 . S
C1666 C1674 1.378 . S
C1667 C1666 1.367 . S
C1667 C1675 1.433 . S
C1668 H1664 0.929 . S
C1668 C1670 1.378 . S
C1668 C1672 1.350 . S
C1669 C1672 1.463 . S
C1669 C1674 1.350 . S
C1669 N1677 1.427 . S
C1670 H1661 0.930 . S
C1670 C1668 1.378 . S
C1670 C1671 1.367 . S
C1671 C1670 1.367 . S
C1671 C1673 1.433 . S
C1672 C1668 1.350 . S
C1672 C1669 1.463 . S
C1672 N1676 1.427 . S
C1673 H1663 0.929 . S
C1673 C1671 1.433 . S
C1673 N1676 1.384 . S
C1674 H1665 0.929 . S
C1674 C1666 1.378 . S
C1674 C1669 1.350 . S
C1675 H1662 0.929 . S
C1675 C1667 1.433 . S
C1675 N1677 1.384 . S
N1676 C1672 1.427 . S
N1676 C1673 1.384 . S
N1677 C1669 1.427 . S
N1677 C1675 1.384 . S
H1678 C1684 0.930 . S
H1679 C1688 0.930 . S
H1680 C1693 0.929 . S
H1681 C1691 0.929 . S
H1682 C1686 0.929 . S
H1683 C1692 0.929 . S
C1684 H1678 0.930 . S
C1684 C1685 1.367 . S
C1684 C1692 1.378 . S
C1685 C1684 1.367 . S
C1685 C1693 1.433 . S
C1686 H1682 0.929 . S
C1686 C1688 1.378 . S
C1686 C1690 1.350 . S
C1687 C1690 1.463 . S
C1687 C1692 1.350 . S
C1687 N1695 1.427 . S
C1688 H1679 0.930 . S
C1688 C1686 1.378 . S
C1688 C1689 1.367 . S
C1689 C1688 1.367 . S
C1689 C1691 1.433 . S
C1690 C1686 1.350 . S
C1690 C1687 1.463 . S
C1690 N1694 1.427 . S
C1691 H1681 0.929 . S
C1691 C1689 1.433 . S
C1691 N1694 1.384 . S
C1692 H1683 0.929 . S
C1692 C1684 1.378 . S
C1692 C1687 1.350 . S
C1693 H1680 0.929 . S
C1693 C1685 1.433 . S
C1693 N1695 1.384 . S
N1694 C1690 1.427 . S
N1694 C1691 1.384 . S
N1695 C1687 1.427 . S
N1695 C1693 1.384 . S
H1696 C1702 0.930 . S
H1697 C1706 0.930 . S
H1698 C1711 0.929 . S
H1699 C1709 0.929 . S
H1700 C1704 0.929 . S
H1701 C1710 0.929 . S
C1702 H1696 0.930 . S
C1702 C1703 1.367 . S
C1702 C1710 1.378 . S
C1703 C1702 1.367 . S
C1703 C1711 1.433 . S
C1704 H1700 0.929 . S
C1704 C1706 1.378 . S
C1704 C1708 1.350 . S
C1705 C1708 1.463 . S
C1705 C1710 1.350 . S
C1705 N1713 1.427 . S
C1706 H1697 0.930 . S
C1706 C1704 1.378 . S
C1706 C1707 1.367 . S
C1707 C1706 1.367 . S
C1707 C1709 1.433 . S
C1708 C1704 1.350 . S
C1708 C1705 1.463 . S
C1708 N1712 1.427 . S
C1709 H1699 0.929 . S
C1709 C1707 1.433 . S
C1709 N1712 1.384 . S
C1710 H1701 0.929 . S
C1710 C1702 1.378 . S
C1710 C1705 1.350 . S
C1711 H1698 0.929 . S
C1711 C1703 1.433 . S
C1711 N1713 1.384 . S
N1712 C1708 1.427 . S
N1712 C1709 1.384 . S
N1713 C1705 1.427 . S
N1713 C1711 1.384 . S
H1714 C1720 0.930 . S
H1715 C1724 0.930 . S
H1716 C1729 0.929 . S
H1717 C1727 0.929 . S
H1718 C1722 0.929 . S
H1719 C1728 0.929 . S
C1720 H1714 0.930 . S
C1720 C1721 1.367 . S
C1720 C1728 1.378 . S
C1721 C1720 1.367 . S
C1721 C1729 1.433 . S
C1722 H1718 0.929 . S
C1722 C1724 1.378 . S
C1722 C1726 1.350 . S
C1723 C1726 1.463 . S
C1723 C1728 1.350 . S
C1723 N1731 1.427 . S
C1724 H1715 0.930 . S
C1724 C1722 1.378 . S
C1724 C1725 1.367 . S
C1725 C1724 1.367 . S
C1725 C1727 1.433 . S
C1726 C1722 1.350 . S
C1726 C1723 1.463 . S
C1726 N1730 1.427 . S
C1727 H1717 0.929 . S
C1727 C1725 1.433 . S
C1727 N1730 1.384 . S
C1728 H1719 0.929 . S
C1728 C1720 1.378 . S
C1728 C1723 1.350 . S
C1729 H1716 0.929 . S
C1729 C1721 1.433 . S
C1729 N1731 1.384 . S
N1730 C1726 1.427 . S
N1730 C1727 1.384 . S
N1731 C1723 1.427 . S
N1731 C1729 1.384 . S
H1732 C1738 0.930 . S
H1733 C1742 0.930 . S
H1734 C1747 0.929 . S
H1735 C1745 0.929 . S
H1736 C1740 0.929 . S
H1737 C1746 0.929 . S
C1738 H1732 0.930 . S
C1738 C1739 1.367 . S
C1738 C1746 1.378 . S
C1739 C1738 1.367 . S
C1739 C1747 1.433 . S
C1740 H1736 0.929 . S
C1740 C1742 1.378 . S
C1740 C1744 1.350 . S
C1741 C1744 1.463 . S
C1741 C1746 1.350 . S
C1741 N1749 1.427 . S
C1742 H1733 0.930 . S
C1742 C1740 1.378 . S
C1742 C1743 1.367 . S
C1743 C1742 1.367 . S
C1743 C1745 1.433 . S
C1744 C1740 1.350 . S
C1744 C1741 1.463 . S
C1744 N1748 1.427 . S
C1745 H1735 0.929 . S
C1745 C1743 1.433 . S
C1745 N1748 1.384 . S
C1746 H1737 0.929 . S
C1746 C1738 1.378 . S
C1746 C1741 1.350 . S
C1747 H1734 0.929 . S
C1747 C1739 1.433 . S
C1747 N1749 1.384 . S
N1748 C1744 1.427 . S
N1748 C1745 1.384 . S
N1749 C1741 1.427 . S
N1749 C1747 1.384 . S
H1750 C1756 0.930 . S
H1751 C1760 0.930 . S
H1752 C1765 0.929 . S
H1753 C1763 0.929 . S
H1754 C1758 0.929 . S
H1755 C1764 0.929 . S
C1756 H1750 0.930 . S
C1756 C1757 1.367 . S
C1756 C1764 1.378 . S
C1757 C1756 1.367 . S
C1757 C1765 1.433 . S
C1758 H1754 0.929 . S
C1758 C1760 1.378 . S
C1758 C1762 1.350 . S
C1759 C1762 1.463 . S
C1759 C1764 1.350 . S
C1759 N1767 1.427 . S
C1760 H1751 0.930 . S
C1760 C1758 1.378 . S
C1760 C1761 1.367 . S
C1761 C1760 1.367 . S
C1761 C1763 1.433 . S
C1762 C1758 1.350 . S
C1762 C1759 1.463 . S
C1762 N1766 1.427 . S
C1763 H1753 0.929 . S
C1763 C1761 1.433 . S
C1763 N1766 1.384 . S
C1764 H1755 0.929 . S
C1764 C1756 1.378 . S
C1764 C1759 1.350 . S
C1765 H1752 0.929 . S
C1765 C1757 1.433 . S
C1765 N1767 1.384 . S
N1766 C1762 1.427 . S
N1766 C1763 1.384 . S
N1767 C1759 1.427 . S
N1767 C1765 1.384 . S
H1768 C1774 0.930 . S
H1769 C1778 0.930 . S
H1770 C1783 0.929 . S
H1771 C1781 0.929 . S
H1772 C1776 0.929 . S
H1773 C1782 0.929 . S
C1774 H1768 0.930 . S
C1774 C1775 1.367 . S
C1774 C1782 1.378 . S
C1775 C1774 1.367 . S
C1775 C1783 1.433 . S
C1776 H1772 0.929 . S
C1776 C1778 1.378 . S
C1776 C1780 1.350 . S
C1777 C1780 1.463 . S
C1777 C1782 1.350 . S
C1777 N1785 1.427 . S
C1778 H1769 0.930 . S
C1778 C1776 1.378 . S
C1778 C1779 1.367 . S
C1779 C1778 1.367 . S
C1779 C1781 1.433 . S
C1780 C1776 1.350 . S
C1780 C1777 1.463 . S
C1780 N1784 1.427 . S
C1781 H1771 0.929 . S
C1781 C1779 1.433 . S
C1781 N1784 1.384 . S
C1782 H1773 0.929 . S
C1782 C1774 1.378 . S
C1782 C1777 1.350 . S
C1783 H1770 0.929 . S
C1783 C1775 1.433 . S
C1783 N1785 1.384 . S
N1784 C1780 1.427 . S
N1784 C1781 1.384 . S
N1785 C1777 1.427 . S
N1785 C1783 1.384 . S
H1786 C1792 0.930 . S
H1787 C1796 0.930 . S
H1788 C1801 0.929 . S
H1789 C1799 0.929 . S
H1790 C1794 0.929 . S
H1791 C1800 0.929 . S
C1792 H1786 0.930 . S
C1792 C1793 1.367 . S
C1792 C1800 1.378 . S
C1793 C1792 1.367 . S
C1793 C1801 1.433 . S
C1794 H1790 0.929 . S
C1794 C1796 1.378 . S
C1794 C1798 1.350 . S
C1795 C1798 1.463 . S
C1795 C1800 1.350 . S
C1795 N1803 1.427 . S
C1796 H1787 0.930 . S
C1796 C1794 1.378 . S
C1796 C1797 1.367 . S
C1797 C1796 1.367 . S
C1797 C1799 1.433 . S
C1798 C1794 1.350 . S
C1798 C1795 1.463 . S
C1798 N1802 1.427 . S
C1799 H1789 0.929 . S
C1799 C1797 1.433 . S
C1799 N1802 1.384 . S
C1800 H1791 0.929 . S
C1800 C1792 1.378 . S
C1800 C1795 1.350 . S
C1801 H1788 0.929 . S
C1801 C1793 1.433 . S
C1801 N1803 1.384 . S
N1802 C1798 1.427 . S
N1802 C1799 1.384 . S
N1803 C1795 1.427 . S
N1803 C1801 1.384 . S
H1804 C1810 0.930 . S
H1805 C1814 0.930 . S
H1806 C1819 0.929 . S
H1807 C1817 0.929 . S
H1808 C1812 0.929 . S
H1809 C1818 0.929 . S
C1810 H1804 0.930 . S
C1810 C1811 1.367 . S
C1810 C1818 1.378 . S
C1811 C1810 1.367 . S
C1811 C1819 1.433 . S
C1812 H1808 0.929 . S
C1812 C1814 1.378 . S
C1812 C1816 1.350 . S
C1813 C1816 1.463 . S
C1813 C1818 1.350 . S
C1813 N1821 1.427 . S
C1814 H1805 0.930 . S
C1814 C1812 1.378 . S
C1814 C1815 1.367 . S
C1815 C1814 1.367 . S
C1815 C1817 1.433 . S
C1816 C1812 1.350 . S
C1816 C1813 1.463 . S
C1816 N1820 1.427 . S
C1817 H1807 0.929 . S
C1817 C1815 1.433 . S
C1817 N1820 1.384 . S
C1818 H1809 0.929 . S
C1818 C1810 1.378 . S
C1818 C1813 1.350 . S
C1819 H1806 0.929 . S
C1819 C1811 1.433 . S
C1819 N1821 1.384 . S
N1820 C1816 1.427 . S
N1820 C1817 1.384 . S
N1821 C1813 1.427 . S
N1821 C1819 1.384 . S
H1822 C1828 0.930 . S
H1823 C1832 0.930 . S
H1824 C1837 0.929 . S
H1825 C1835 0.929 . S
H1826 C1830 0.929 . S
H1827 C1836 0.929 . S
C1828 H1822 0.930 . S
C1828 C1829 1.367 . S
C1828 C1836 1.378 . S
C1829 C1828 1.367 . S
C1829 C1837 1.433 . S
C1830 H1826 0.929 . S
C1830 C1832 1.378 . S
C1830 C1834 1.350 . S
C1831 C1834 1.463 . S
C1831 C1836 1.350 . S
C1831 N1839 1.427 . S
C1832 H1823 0.930 . S
C1832 C1830 1.378 . S
C1832 C1833 1.367 . S
C1833 C1832 1.367 . S
C1833 C1835 1.433 . S
C1834 C1830 1.350 . S
C1834 C1831 1.463 . S
C1834 N1838 1.427 . S
C1835 H1825 0.929 . S
C1835 C1833 1.433 . S
C1835 N1838 1.384 . S
C1836 H1827 0.929 . S
C1836 C1828 1.378 . S
C1836 C1831 1.350 . S
C1837 H1824 0.929 . S
C1837 C1829 1.433 . S
C1837 N1839 1.384 . S
N1838 C1834 1.427 . S
N1838 C1835 1.384 . S
N1839 C1831 1.427 . S
N1839 C1837 1.384 . S
H1840 C1846 0.930 . S
H1841 C1850 0.930 . S
H1842 C1855 0.929 . S
H1843 C1853 0.929 . S
H1844 C1848 0.929 . S
H1845 C1854 0.929 . S
C1846 H1840 0.930 . S
C1846 C1847 1.367 . S
C1846 C1854 1.378 . S
C1847 C1846 1.367 . S
C1847 C1855 1.433 . S
C1848 H1844 0.929 . S
C1848 C1850 1.378 . S
C1848 C1852 1.350 . S
C1849 C1852 1.463 . S
C1849 C1854 1.350 . S
C1849 N1857 1.427 . S
C1850 H1841 0.930 . S
C1850 C1848 1.378 . S
C1850 C1851 1.367 . S
C1851 C1850 1.367 . S
C1851 C1853 1.433 . S
C1852 C1848 1.350 . S
C1852 C1849 1.463 . S
C1852 N1856 1.427 . S
C1853 H1843 0.929 . S
C1853 C1851 1.433 . S
C1853 N1856 1.384 . S
C1854 H1845 0.929 . S
C1854 C1846 1.378 . S
C1854 C1849 1.350 . S
C1855 H1842 0.929 . S
C1855 C1847 1.433 . S
C1855 N1857 1.384 . S
N1856 C1852 1.427 . S
N1856 C1853 1.384 . S
N1857 C1849 1.427 . S
N1857 C1855 1.384 . S
H1858 C1864 0.930 . S
H1859 C1868 0.930 . S
H1860 C1873 0.929 . S
H1861 C1871 0.929 . S
H1862 C1866 0.929 . S
H1863 C1872 0.929 . S
C1864 H1858 0.930 . S
C1864 C1865 1.367 . S
C1864 C1872 1.378 . S
C1865 C1864 1.367 . S
C1865 C1873 1.433 . S
C1866 H1862 0.929 . S
C1866 C1868 1.378 . S
C1866 C1870 1.350 . S
C1867 C1870 1.463 . S
C1867 C1872 1.350 . S
C1867 N1875 1.427 . S
C1868 H1859 0.930 . S
C1868 C1866 1.378 . S
C1868 C1869 1.367 . S
C1869 C1868 1.367 . S
C1869 C1871 1.433 . S
C1870 C1866 1.350 . S
C1870 C1867 1.463 . S
C1870 N1874 1.427 . S
C1871 H1861 0.929 . S
C1871 C1869 1.433 . S
C1871 N1874 1.384 . S
C1872 H1863 0.929 . S
C1872 C1864 1.378 . S
C1872 C1867 1.350 . S
C1873 H1860 0.929 . S
C1873 C1865 1.433 . S
C1873 N1875 1.384 . S
N1874 C1870 1.427 . S
N1874 C1871 1.384 . S
N1875 C1867 1.427 . S
N1875 C1873 1.384 . S
H1876 C1882 0.930 . S
H1877 C1886 0.930 . S
H1878 C1891 0.929 . S
H1879 C1889 0.929 . S
H1880 C1884 0.929 . S
H1881 C1890 0.929 . S
C1882 H1876 0.930 . S
C1882 C1883 1.367 . S
C1882 C1890 1.378 . S
C1883 C1882 1.367 . S
C1883 C1891 1.433 . S
C1884 H1880 0.929 . S
C1884 C1886 1.378 . S
C1884 C1888 1.350 . S
C1885 C1888 1.463 . S
C1885 C1890 1.350 . S
C1885 N1893 1.427 . S
C1886 H1877 0.930 . S
C1886 C1884 1.378 . S
C1886 C1887 1.367 . S
C1887 C1886 1.367 . S
C1887 C1889 1.433 . S
C1888 C1884 1.350 . S
C1888 C1885 1.463 . S
C1888 N1892 1.427 . S
C1889 H1879 0.929 . S
C1889 C1887 1.433 . S
C1889 N1892 1.384 . S
C1890 H1881 0.929 . S
C1890 C1882 1.378 . S
C1890 C1885 1.350 . S
C1891 H1878 0.929 . S
C1891 C1883 1.433 . S
C1891 N1893 1.384 . S
N1892 C1888 1.427 . S
N1892 C1889 1.384 . S
N1893 C1885 1.427 . S
N1893 C1891 1.384 . S
H1894 C1900 0.930 . S
H1895 C1904 0.930 . S
H1896 C1909 0.929 . S
H1897 C1907 0.929 . S
H1898 C1902 0.929 . S
H1899 C1908 0.929 . S
C1900 H1894 0.930 . S
C1900 C1901 1.367 . S
C1900 C1908 1.378 . S
C1901 C1900 1.367 . S
C1901 C1909 1.433 . S
C1902 H1898 0.929 . S
C1902 C1904 1.378 . S
C1902 C1906 1.350 . S
C1903 C1906 1.463 . S
C1903 C1908 1.350 . S
C1903 N1911 1.427 . S
C1904 H1895 0.930 . S
C1904 C1902 1.378 . S
C1904 C1905 1.367 . S
C1905 C1904 1.367 . S
C1905 C1907 1.433 . S
C1906 C1902 1.350 . S
C1906 C1903 1.463 . S
C1906 N1910 1.427 . S
C1907 H1897 0.929 . S
C1907 C1905 1.433 . S
C1907 N1910 1.384 . S
C1908 H1899 0.929 . S
C1908 C1900 1.378 . S
C1908 C1903 1.350 . S
C1909 H1896 0.929 . S
C1909 C1901 1.433 . S
C1909 N1911 1.384 . S
N1910 C1906 1.427 . S
N1910 C1907 1.384 . S
N1911 C1903 1.427 . S
N1911 C1909 1.384 . S
H1912 C1918 0.930 . S
H1913 C1922 0.930 . S
H1914 C1927 0.929 . S
H1915 C1925 0.929 . S
H1916 C1920 0.929 . S
H1917 C1926 0.929 . S
C1918 H1912 0.930 . S
C1918 C1919 1.367 . S
C1918 C1926 1.378 . S
C1919 C1918 1.367 . S
C1919 C1927 1.433 . S
C1920 H1916 0.929 . S
C1920 C1922 1.378 . S
C1920 C1924 1.350 . S
C1921 C1924 1.463 1_544 S
C1921 C1926 1.350 . S
C1921 N1929 1.427 . S
C1922 H1913 0.930 . S
C1922 C1920 1.378 . S
C1922 C1923 1.367 . S
C1923 C1922 1.367 . S
C1923 C1925 1.433 . S
C1924 C1920 1.350 . S
C1924 C1921 1.463 1_566 S
C1924 N1928 1.427 . S
C1925 H1915 0.929 . S
C1925 C1923 1.433 . S
C1925 N1928 1.384 . S
C1926 H1917 0.929 . S
C1926 C1918 1.378 . S
C1926 C1921 1.350 . S
C1927 H1914 0.929 . S
C1927 C1919 1.433 . S
C1927 N1929 1.384 . S
N1928 C1924 1.427 . S
N1928 C1925 1.384 . S
N1929 C1921 1.427 . S
N1929 C1927 1.384 . S
H1930 C1936 0.930 . S
H1931 C1940 0.930 . S
H1932 C1945 0.929 . S
H1933 C1943 0.929 . S
H1934 C1938 0.929 . S
H1935 C1944 0.929 . S
C1936 H1930 0.930 . S
C1936 C1937 1.367 . S
C1936 C1944 1.378 . S
C1937 C1936 1.367 . S
C1937 C1945 1.433 . S
C1938 H1934 0.929 . S
C1938 C1940 1.378 . S
C1938 C1942 1.350 . S
C1939 C1942 1.463 1_456 S
C1939 C1944 1.350 . S
C1939 N1947 1.427 . S
C1940 H1931 0.930 . S
C1940 C1938 1.378 . S
C1940 C1941 1.367 . S
C1941 C1940 1.367 . S
C1941 C1943 1.433 . S
C1942 C1938 1.350 . S
C1942 C1939 1.463 1_654 S
C1942 N1946 1.427 . S
C1943 H1933 0.929 . S
C1943 C1941 1.433 . S
C1943 N1946 1.384 . S
C1944 H1935 0.929 . S
C1944 C1936 1.378 . S
C1944 C1939 1.350 . S
C1945 H1932 0.929 . S
C1945 C1937 1.433 . S
C1945 N1947 1.384 . S
N1946 C1942 1.427 . S
N1946 C1943 1.384 . S
N1947 C1939 1.427 . S
N1947 C1945 1.384 . S
H1948 C1954 0.930 . S
H1949 C1958 0.930 . S
H1950 C1963 0.929 . S
H1951 C1961 0.929 . S
H1952 C1956 0.929 . S
H1953 C1962 0.929 . S
C1954 H1948 0.930 . S
C1954 C1955 1.367 . S
C1954 C1962 1.378 1_545 S
C1955 C1954 1.367 . S
C1955 C1963 1.433 . S
C1956 H1952 0.929 . S
C1956 C1958 1.378 1_545 S
C1956 C1960 1.350 1_545 S
C1957 C1960 1.463 1_546 S
C1957 C1962 1.350 1_545 S
C1957 N1965 1.427 . S
C1958 H1949 0.930 . S
C1958 C1956 1.378 1_565 S
C1958 C1959 1.367 . S
C1959 C1958 1.367 . S
C1959 C1961 1.433 . S
C1960 C1956 1.350 1_565 S
C1960 C1957 1.463 1_564 S
C1960 N1964 1.427 . S
C1961 H1951 0.929 . S
C1961 C1959 1.433 . S
C1961 N1964 1.384 . S
C1962 H1953 0.929 . S
C1962 C1954 1.378 1_565 S
C1962 C1957 1.350 1_565 S
C1963 H1950 0.929 . S
C1963 C1955 1.433 . S
C1963 N1965 1.384 . S
N1964 C1960 1.427 . S
N1964 C1961 1.384 . S
N1965 C1957 1.427 . S
N1965 C1963 1.384 . S
H1966 C1972 0.930 . S
H1967 C1976 0.930 . S
H1968 C1981 0.929 . S
H1969 C1979 0.929 . S
H1970 C1974 0.929 . S
H1971 C1980 0.929 . S
C1972 H1966 0.930 . S
C1972 C1973 1.367 . S
C1972 C1980 1.378 . S
C1973 C1972 1.367 . S
C1973 C1981 1.433 . S
C1974 H1970 0.929 . S
C1974 C1976 1.378 . S
C1974 C1978 1.350 . S
C1975 C1978 1.463 1_656 S
C1975 C1980 1.350 . S
C1975 N1983 1.427 . S
C1976 H1967 0.930 . S
C1976 C1974 1.378 . S
C1976 C1977 1.367 . S
C1977 C1976 1.367 . S
C1977 C1979 1.433 . S
C1978 C1974 1.350 . S
C1978 C1975 1.463 1_454 S
C1978 N1982 1.427 . S
C1979 H1969 0.929 . S
C1979 C1977 1.433 . S
C1979 N1982 1.384 . S
C1980 H1971 0.929 . S
C1980 C1972 1.378 . S
C1980 C1975 1.350 . S
C1981 H1968 0.929 . S
C1981 C1973 1.433 . S
C1981 N1983 1.384 . S
N1982 C1978 1.427 . S
N1982 C1979 1.384 . S
N1983 C1975 1.427 . S
N1983 C1981 1.384 . S
C1415 C49 0.953 . S
C1419 C636 0.947 . S
C1433 C145 0.948 . S
C1437 C381 0.952 . S
C1451 C469 0.949 . S
C1455 C196 0.952 . S
C1469 C321 0.949 . S
C1473 C577 0.951 . S
C1487 C753 0.950 . S
C1491 C1340 0.950 . S
C1505 C1085 0.951 . S
C1509 C849 0.950 . S
C1523 C1173 0.944 . S
C1527 C900 0.956 . S
C1541 C1289 0.950 . S
C1545 C1017 0.949 . S
C1559 C20 1.165 . S
C1563 C997 1.224 . S
C1577 C117 1.160 . S
C1581 C761 1.233 . S
C1595 C812 1.226 . S
C1599 C225 1.163 . S
C1613 C293 1.176 . S
C1617 C909 1.235 . S
C1631 C409 1.164 . S
C1635 C1193 1.226 . S
C1649 C1281 1.231 . S
C1653 C497 1.157 . S
C1667 C548 1.150 . S
C1671 C1377 1.223 . S
C1685 C1076 1.233 . S
C1689 C665 1.173 . S
C1703 C724 1.160 . S
C1707 C284 1.223 . S
C1721 C57 1.231 . S
C1725 C821 1.165 . S
C1739 C929 1.150 . S
C1743 C108 1.223 . S
C1757 C205 1.235 . S
C1761 C988 1.171 . S
C1775 C1113 1.152 . S
C1779 C489 1.224 . S
C1793 C585 1.231 . S
C1797 C1201 1.166 . S
C1811 C673 1.226 . S
C1815 C1261 1.172 . S
C1829 C372 1.235 . S
C1833 C1369 1.175 . S
C1847 C401 1.684 . S
C1851 C29 1.685 . S
C1865 C460 1.676 . S
C1869 C137 1.676 . S
C1883 C233 1.684 . S
C1887 C557 1.684 . S
C1901 C645 1.676 . S
C1905 C313 1.676 . S
C1919 C1105 1.683 . S
C1923 C733 1.683 . S
C1937 C1164 1.678 . S
C1941 C841 1.678 . S
C1955 C937 1.680 . S
C1959 C1252 1.681 . S
C1973 C1349 1.677 . S
C1977 C1025 1.677 . S
