# Generated by pormake.
# Topology dia, (4)-cn, num edge types: 1
# Building blocks:
#     Node 0, Type 0, BuildingBlock: QUQFOY_clean_sbu_3, # of connection points: 4
#     Node 1, Type 0, BuildingBlock: QUQFOY_clean_sbu_3, # of connection points: 4
#     Node 2, Type 0, BuildingBlock: QUQFOY_clean_sbu_3, # of connection points: 4
#     Node 3, Type 0, BuildingBlock: QUQFOY_clean_sbu_3, # of connection points: 4
#     Node 4, Type 0, BuildingBlock: QUQFOY_clean_sbu_3, # of connection points: 4
#     Node 5, Type 0, BuildingBlock: QUQFOY_clean_sbu_3, # of connection points: 4
#     Node 6, Type 0, BuildingBlock: QUQFOY_clean_sbu_3, # of connection points: 4
#     Node 7, Type 0, BuildingBlock: QUQFOY_clean_sbu_3, # of connection points: 4
#     Edge 8, Type (0, 0), BuildingBlock: UVAHIK_clean_linker_0, # of connection points: 2
#     Edge 9, Type (0, 0), BuildingBlock: UVAHIK_clean_linker_0, # of connection points: 2
#     Edge 10, Type (0, 0), BuildingBlock: UVAHIK_clean_linker_0, # of connection points: 2
#     Edge 11, Type (0, 0), BuildingBlock: UVAHIK_clean_linker_0, # of connection points: 2
#     Edge 12, Type (0, 0), BuildingBlock: UVAHIK_clean_linker_0, # of connection points: 2
#     Edge 13, Type (0, 0), BuildingBlock: UVAHIK_clean_linker_0, # of connection points: 2
#     Edge 14, Type (0, 0), BuildingBlock: UVAHIK_clean_linker_0, # of connection points: 2
#     Edge 15, Type (0, 0), BuildingBlock: UVAHIK_clean_linker_0, # of connection points: 2
#     Edge 16, Type (0, 0), BuildingBlock: UVAHIK_clean_linker_0, # of connection points: 2
#     Edge 17, Type (0, 0), BuildingBlock: UVAHIK_clean_linker_0, # of connection points: 2
#     Edge 18, Type (0, 0), BuildingBlock: UVAHIK_clean_linker_0, # of connection points: 2
#     Edge 19, Type (0, 0), BuildingBlock: UVAHIK_clean_linker_0, # of connection points: 2
#     Edge 20, Type (0, 0), BuildingBlock: UVAHIK_clean_linker_0, # of connection points: 2
#     Edge 21, Type (0, 0), BuildingBlock: UVAHIK_clean_linker_0, # of connection points: 2
#     Edge 22, Type (0, 0), BuildingBlock: UVAHIK_clean_linker_0, # of connection points: 2
#     Edge 23, Type (0, 0), BuildingBlock: UVAHIK_clean_linker_0, # of connection points: 2
# Relax obj value: 0.120
# Max RMSD: 0.163
# Mean RMSD: 0.163
data_MOF--net-dia--node1-QUQFOY_clean_sbu_3--edge1-UVAHIK_clean_linker_0
_symmetry_space_group_name_H-M    P1
_symmetry_Int_Tables_number       1
_symmetry_cell_setting            triclinic
loop_
_symmetry_equiv_pos_as_xyz
'x, y, z'
_cell_length_a     43.834683
_cell_length_b     43.804525
_cell_length_c     51.174391
_cell_angle_alpha  90.239053
_cell_angle_beta   90.268505
_cell_angle_gamma 92.641104
loop_
_atom_site_label
_atom_site_type_symbol
_atom_site_fract_x
_atom_site_fract_y
_atom_site_fract_z
_atom_type_partial_charge
C0 C 0.05607 0.16317 0.63777 0.0
O1 O 0.04444 0.15939 0.61515 0.0
Cd2 Cd 0.06205 0.12488 0.58273 0.0
O3 O 0.07976 0.14923 0.6445 0.0
Cd4 Cd 0.11521 0.1138 0.62385 0.0
C5 C 0.13219 0.15898 0.57162 0.0
O6 O 0.07528 0.08002 0.60592 0.0
O7 O 0.12056 0.07091 0.59293 0.0
O8 O 0.12331 0.09039 0.66637 0.0
C9 C 0.09238 0.06303 0.59309 0.0
O10 O 0.10625 0.15031 0.56224 0.0
C11 C 0.15226 0.09252 0.66539 0.0
O12 O 0.14007 0.15129 0.59457 0.0
O13 O 0.16398 0.10532 0.64536 0.0
C14 C 0.82234 0.43522 0.84914 0.0
O15 O 0.82496 0.44718 0.87173 0.0
Cd16 Cd 0.85649 0.42805 0.90571 0.0
O17 O 0.83623 0.41117 0.84341 0.0
Cd18 Cd 0.87037 0.37552 0.86553 0.0
C19 C 0.82048 0.35806 0.91429 0.0
O20 O 0.90364 0.41521 0.88556 0.0
O21 O 0.91116 0.36903 0.8975 0.0
O22 O 0.8926 0.36805 0.82239 0.0
C23 C 0.91971 0.39702 0.89827 0.0
O24 O 0.82774 0.38426 0.92391 0.0
C25 C 0.89395 0.33928 0.82455 0.0
O26 O 0.83106 0.34993 0.89234 0.0
O27 O 0.88354 0.32735 0.84543 0.0
C28 C 0.54855 0.14417 0.12725 0.0
O29 O 0.53697 0.14015 0.10464 0.0
Cd30 Cd 0.55841 0.1093 0.07133 0.0
O31 O 0.57351 0.13213 0.13344 0.0
Cd32 Cd 0.61175 0.09992 0.11236 0.0
C33 C 0.62615 0.14979 0.06287 0.0
O34 O 0.57439 0.06394 0.0926 0.0
O35 O 0.62115 0.05884 0.08126 0.0
O36 O 0.6201 0.0795 0.15603 0.0
C37 C 0.59364 0.04875 0.08029 0.0
O38 O 0.60051 0.14061 0.05322 0.0
C39 C 0.64897 0.07976 0.15413 0.0
O40 O 0.63489 0.14019 0.08501 0.0
O41 O 0.66052 0.09021 0.13311 0.0
C42 C 0.82777 0.92996 0.347 0.0
O43 O 0.83057 0.94255 0.36933 0.0
Cd44 Cd 0.86354 0.92603 0.40324 0.0
O45 O 0.84226 0.90623 0.34139 0.0
Cd46 Cd 0.87802 0.87202 0.36349 0.0
C47 C 0.82972 0.85532 0.41378 0.0
O48 O 0.90974 0.91374 0.38142 0.0
O49 O 0.92106 0.86902 0.39439 0.0
O50 O 0.89825 0.86329 0.31979 0.0
C51 C 0.92745 0.89751 0.39441 0.0
O52 O 0.83638 0.88202 0.42261 0.0
C53 C 0.90093 0.83479 0.32284 0.0
O54 O 0.84018 0.84665 0.39193 0.0
O55 O 0.89228 0.82355 0.34454 0.0
C56 C 0.05774 0.65815 0.13277 0.0
O57 O 0.04605 0.65466 0.11015 0.0
Cd58 Cd 0.065 0.62175 0.07712 0.0
O59 O 0.08189 0.64472 0.13906 0.0
Cd60 Cd 0.11816 0.61067 0.11764 0.0
C61 C 0.1342 0.6586 0.06729 0.0
O62 O 0.07863 0.57625 0.09921 0.0
O63 O 0.1243 0.56903 0.08606 0.0
O64 O 0.12681 0.59038 0.16137 0.0
C65 C 0.09643 0.56007 0.08626 0.0
O66 O 0.10865 0.64932 0.05752 0.0
C67 C 0.15547 0.58878 0.15871 0.0
O68 O 0.14217 0.65033 0.09006 0.0
O69 O 0.16682 0.59822 0.13728 0.0
C70 C 0.33094 0.42467 0.34483 0.0
O71 O 0.33587 0.4363 0.36731 0.0
Cd72 Cd 0.36972 0.41652 0.39931 0.0
O73 O 0.34315 0.39998 0.33812 0.0
Cd74 Cd 0.37657 0.36238 0.35861 0.0
C75 C 0.3312 0.34866 0.41114 0.0
O76 O 0.41332 0.40072 0.37571 0.0
O77 O 0.41954 0.35468 0.38846 0.0
O78 O 0.39441 0.35216 0.31434 0.0
C79 C 0.42939 0.3823 0.38809 0.0
O80 O 0.34195 0.37398 0.42036 0.0
C81 C 0.39466 0.3234 0.31722 0.0
O82 O 0.33775 0.34022 0.38806 0.0
O83 O 0.38557 0.31278 0.33901 0.0
C84 C 0.33645 0.9313 0.84742 0.0
O85 O 0.34382 0.94294 0.86946 0.0
Cd86 Cd 0.37601 0.91988 0.90094 0.0
O87 O 0.34616 0.90546 0.84057 0.0
Cd88 Cd 0.37909 0.86614 0.85914 0.0
C89 C 0.33369 0.85353 0.91165 0.0
O90 O 0.41799 0.90203 0.87646 0.0
O91 O 0.42166 0.8554 0.88863 0.0
O92 O 0.396 0.85666 0.8145 0.0
C93 C 0.43306 0.88248 0.88849 0.0
O94 O 0.34551 0.87828 0.92117 0.0
C95 C 0.39489 0.82776 0.81664 0.0
O96 O 0.33998 0.84507 0.88854 0.0
O97 O 0.3854 0.81679 0.83819 0.0
C98 C 0.54824 0.65046 0.62522 0.0
O99 O 0.5371 0.64722 0.60238 0.0
Cd100 Cd 0.55826 0.61602 0.56918 0.0
O101 O 0.57262 0.63752 0.63166 0.0
Cd102 Cd 0.61037 0.60453 0.61084 0.0
C103 C 0.62735 0.65431 0.5618 0.0
O104 O 0.57223 0.5699 0.59048 0.0
O105 O 0.61888 0.56325 0.57964 0.0
O106 O 0.61762 0.58378 0.65462 0.0
C107 C 0.59109 0.55412 0.5783 0.0
O108 O 0.60166 0.64603 0.55172 0.0
C109 C 0.64648 0.58332 0.65297 0.0
O110 O 0.63524 0.6443 0.58404 0.0
O111 O 0.65851 0.5934 0.63202 0.0
C112 C 0.2922 0.3055 0.41642 0.0
C113 C 0.31118 0.32876 0.42763 0.0
C114 C 0.27314 0.28694 0.43212 0.0
C115 C 0.23911 0.28319 0.49866 0.0
H116 H 0.2235 0.19786 0.48044 0.0
C117 C 0.17779 0.1952 0.567 0.0
C118 C 0.15339 0.17801 0.55546 0.0
C119 C 0.1975 0.21347 0.55162 0.0
C120 C 0.22761 0.22169 0.48566 0.0
H121 H 0.32559 0.35039 0.46413 0.0
H122 H 0.29334 0.3174 0.49155 0.0
H123 H 0.25741 0.22983 0.45326 0.0
H124 H 0.13084 0.16608 0.51873 0.0
H125 H 0.16566 0.19754 0.49188 0.0
H126 H 0.20982 0.27459 0.5315 0.0
C127 C 0.2923 0.31402 0.47059 0.0
C128 C 0.24688 0.24009 0.47003 0.0
C129 C 0.31098 0.33286 0.45486 0.0
C130 C 0.14934 0.17916 0.52822 0.0
C131 C 0.16934 0.197 0.51282 0.0
C132 C 0.22024 0.26465 0.51449 0.0
C133 C 0.27299 0.29091 0.45944 0.0
C134 C 0.25276 0.27115 0.47624 0.0
C135 C 0.19348 0.21443 0.52439 0.0
C136 C 0.21419 0.2338 0.50804 0.0
H137 H 0.29171 0.30192 0.39546 0.0
H138 H 0.25822 0.26976 0.42275 0.0
H139 H 0.24257 0.3071 0.50382 0.0
H140 H 0.18145 0.19483 0.58794 0.0
H141 H 0.21607 0.22662 0.56095 0.0
C142 C 0.65328 0.56646 0.6992 0.0
C143 C 0.66507 0.57026 0.67388 0.0
C144 C 0.67043 0.5527 0.71861 0.0
C145 C 0.72718 0.49676 0.72779 0.0
H146 H 0.74545 0.53657 0.79418 0.0
C147 C 0.80888 0.44522 0.8025 0.0
C148 C 0.80343 0.44977 0.82921 0.0
C149 C 0.79182 0.46004 0.78368 0.0
C150 C 0.74012 0.52481 0.77597 0.0
H151 H 0.70395 0.56279 0.64897 0.0
H152 H 0.73354 0.53797 0.68278 0.0
H153 H 0.7156 0.5625 0.7614 0.0
H154 H 0.77527 0.47262 0.85721 0.0
H155 H 0.74451 0.49728 0.82449 0.0
H156 H 0.75048 0.4586 0.74239 0.0
C157 C 0.7112 0.54595 0.68759 0.0
C158 C 0.72321 0.53982 0.75717 0.0
C159 C 0.69436 0.56027 0.66835 0.0
C160 C 0.78017 0.46892 0.83674 0.0
C161 C 0.7627 0.48326 0.81793 0.0
C162 C 0.74356 0.48146 0.74675 0.0
C163 C 0.69932 0.54196 0.71282 0.0
C164 C 0.71681 0.52599 0.73288 0.0
C165 C 0.76848 0.47929 0.79112 0.0
C166 C 0.75045 0.49534 0.77107 0.0
H167 H 0.63078 0.574 0.70399 0.0
H168 H 0.66083 0.54975 0.73795 0.0
H169 H 0.72218 0.48554 0.70925 0.0
H170 H 0.82686 0.43078 0.79613 0.0
H171 H 0.79742 0.45682 0.7633 0.0
C172 C 0.55317 0.01255 0.06226 0.0
C173 C 0.58388 0.02313 0.06292 0.0
C174 C 0.5433 0.99016 0.04429 0.0
C175 C 0.5299 0.93426 0.01048 0.0
H176 H 0.55338 0.95227 0.93901 0.0
C177 C 0.4706 0.87175 0.92394 0.0
C178 C 0.45905 0.89201 0.90553 0.0
C179 C 0.4925 0.88209 0.94226 0.0
C180 C 0.54685 0.94677 0.95889 0.0
H181 H 0.62866 0.01762 0.04612 0.0
H182 H 0.61129 0.97851 0.01454 0.0
H183 H 0.5787 0.98034 0.97488 0.0
H184 H 0.46271 0.93834 0.89073 0.0
H185 H 0.50072 0.95637 0.92265 0.0
H186 H 0.4968 0.90197 -0.00557 0.0
C187 C 0.59488 0.98771 0.02785 0.0
C188 C 0.56151 0.96263 0.97944 0.0
C189 C 0.6048 0.01003 0.04595 0.0
C190 C 0.47106 0.92225 0.90478 0.0
C191 C 0.49304 0.93251 0.92295 0.0
C192 C 0.5153 0.91833 -0.01006 0.0
C193 C 0.56393 0.97795 0.02655 0.0
C194 C 0.55242 0.95728 0.00538 0.0
C195 C 0.5034 0.91276 0.9423 0.0
C196 C 0.5229 0.9252 0.96391 0.0
H197 H 0.53655 0.02214 0.07516 0.0
H198 H 0.51923 0.9834 0.04354 0.0
H199 H 0.52271 0.92942 0.03032 0.0
H200 H 0.46187 0.84824 0.92488 0.0
H201 H 0.5003 0.86632 0.95683 0.0
C202 C 0.92664 0.78766 0.30919 0.0
C203 C 0.9148 0.81586 0.30259 0.0
C204 C 0.94165 0.77062 0.29051 0.0
C205 C 0.97932 0.77841 0.22567 0.0
H206 H 0.97556 0.68984 0.22833 0.0
C207 C 0.02266 0.69964 0.14389 0.0
C208 C 0.04261 0.67734 0.15214 0.0
C209 C 0.00747 0.71709 0.16217 0.0
C210 C 0.97689 0.71458 0.22751 0.0
H211 H 0.90836 0.8479 0.27112 0.0
H212 H 0.93325 0.81755 0.23815 0.0
H213 H 0.94646 0.71869 0.25966 0.0
H214 H 0.0623 0.65579 0.18596 0.0
H215 H 0.03501 0.68588 0.21795 0.0
H216 H 0.00897 0.77392 0.1928 0.0
C217 C 0.93201 0.80901 0.25796 0.0
C218 C 0.96037 0.73117 0.2455 0.0
C219 C 0.9175 0.82632 0.27679 0.0
C220 C 0.04716 0.6729 0.17903 0.0
C221 C 0.03147 0.68994 0.19731 0.0
C222 C -0.00463 0.76176 0.20738 0.0
C223 C 0.94468 0.78111 0.26465 0.0
C224 C 0.96151 0.76334 0.24495 0.0
C225 C 0.01149 0.71212 0.189 0.0
C226 C -0.00556 0.72974 0.20828 0.0
H227 H 0.92513 0.77916 0.32901 0.0
H228 H 0.95154 0.74958 0.2966 0.0
H229 H 0.98133 0.80311 0.2249 0.0
H230 H 0.01879 0.70363 0.12328 0.0
H231 H -0.00794 0.73401 0.15534 0.0
C232 C 0.30692 0.9772 0.83645 0.0
C233 C 0.31688 0.94825 0.82941 0.0
C234 C 0.28903 -0.00643 0.81931 0.0
C235 C 0.26887 -0.00029 0.74958 0.0
H236 H 0.20119 0.04465 0.77589 0.0
C237 C 0.15776 0.0632 0.70687 0.0
C238 C 0.17137 0.07922 0.6859 0.0
C239 C 0.17574 0.04858 0.72515 0.0
C240 C 0.21991 0.0321 0.76822 0.0
H241 H 0.31551 0.91366 0.79889 0.0
H242 H 0.28398 0.94212 0.7691 0.0
H243 H 0.23136 0.01518 0.80602 0.0
H244 H 0.21454 0.09333 0.6681 0.0
H245 H 0.24594 0.06816 0.70022 0.0
H246 H 0.257 0.01601 0.71171 0.0
C247 C 0.2904 0.95233 0.78776 0.0
C248 C 0.23739 0.01547 0.78552 0.0
C249 C 0.30833 0.93594 0.8049 0.0
C250 C 0.20336 0.08104 0.68398 0.0
C251 C 0.22135 0.06645 0.70228 0.0
C252 C 0.2514 0.01634 0.7323 0.0
C253 C 0.28065 0.98138 0.79474 0.0
C254 C 0.26203 -0.00097 0.77638 0.0
C255 C 0.20772 0.04971 0.72287 0.0
C256 C 0.2267 0.03269 0.74141 0.0
H257 H 0.31315 0.98743 0.85514 0.0
H258 H 0.28222 0.01605 0.82515 0.0
H259 H 0.28791 0.98759 0.74196 0.0
H260 H 0.13315 0.06132 0.70885 0.0
H261 H 0.16451 0.03563 0.74063 0.0
C262 C 0.95425 0.43938 0.91554 0.0
C263 C 0.94487 0.4083 0.9155 0.0
C264 C 0.97656 0.45052 0.93309 0.0
C265 C 0.03357 0.46588 0.96529 0.0
H266 H 0.01893 0.44394 0.03767 0.0
C267 C 0.10291 0.52309 0.0495 0.0
C268 C 0.08439 0.53539 0.06887 0.0
C269 C 0.09044 0.5021 0.03129 0.0
C270 C 0.02345 0.45007 0.01752 0.0
H271 H 0.95224 0.36426 0.93313 0.0
H272 H 0.99114 0.38386 0.964 0.0
H273 H 0.98912 0.41795 0.0031 0.0
H274 H 0.03883 0.53422 0.08529 0.0
H275 H 0.01715 0.49763 0.05361 0.0
H276 H 0.0669 0.499 0.9798 0.0
C277 C 0.9811 0.39957 0.9505 0.0
C278 C 0.00658 0.43504 -0.00227 0.0
C279 C 0.95891 0.38838 0.9328 0.0
C280 C 0.05362 0.52523 0.0705 0.0
C281 C 0.04125 0.5041 0.05248 0.0
C282 C 0.05056 0.48078 0.98507 0.0
C283 C 0.98982 0.43082 0.95105 0.0
C284 C 0.01087 0.44343 0.97149 0.0
C285 C 0.05937 0.49283 0.03236 0.0
C286 C 0.04502 0.47363 0.01141 0.0
H287 H 0.9439 0.45526 0.90237 0.0
H288 H 0.98256 0.47478 0.93328 0.0
H289 H 0.03754 0.47256 0.94519 0.0
H290 H 0.12675 0.53044 0.04783 0.0
H291 H 0.10494 0.49358 0.01608 0.0
C292 C 0.41716 0.27457 0.30351 0.0
C293 C 0.4069 0.30346 0.29686 0.0
C294 C 0.43142 0.25678 0.2849 0.0
C295 C 0.43815 0.24116 0.21583 0.0
H296 H 0.52035 0.21772 0.23194 0.0
C297 C 0.51225 0.18455 0.13837 0.0
C298 C 0.53262 0.16269 0.14662 0.0
C299 C 0.49677 0.20179 0.15662 0.0
C300 C 0.49723 0.22351 0.22723 0.0
H301 H 0.40243 0.33594 0.26537 0.0
H302 H 0.42657 0.30422 0.23253 0.0
H303 H 0.49215 0.2464 0.26395 0.0
H304 H 0.55252 0.1414 0.1804 0.0
H305 H 0.52453 0.17036 0.2123 0.0
H306 H 0.44247 0.21747 0.17959 0.0
C307 C 0.42386 0.29566 0.25225 0.0
C308 C 0.4812 0.24012 0.24555 0.0
C309 C 0.41016 0.31377 0.27102 0.0
C310 C 0.53716 0.15831 0.17349 0.0
C311 C 0.5212 0.1751 0.19176 0.0
C312 C 0.45392 0.22401 0.19769 0.0
C313 C 0.43508 0.2673 0.2592 0.0
C314 C 0.45162 0.24919 0.23994 0.0
C315 C 0.5008 0.19712 0.18359 0.0
C316 C 0.48378 0.21508 0.20307 0.0
H317 H 0.41506 0.26611 0.32332 0.0
H318 H 0.43978 0.23488 0.29061 0.0
H319 H 0.41523 0.24777 0.21121 0.0
H320 H 0.50852 0.18862 0.11776 0.0
H321 H 0.48187 0.21897 0.14949 0.0
C322 C 0.79519 0.84459 0.45182 0.0
C323 C 0.80952 0.83424 0.42913 0.0
C324 C 0.77605 0.82484 0.46632 0.0
C325 C 0.7301 0.75219 0.46131 0.0
H326 H 0.73105 0.7573 0.53699 0.0
C327 C 0.67844 0.68162 0.55614 0.0
C328 C 0.64841 0.67534 0.54723 0.0
C329 C 0.69851 0.70079 0.54191 0.0
C330 C 0.73069 0.75537 0.51588 0.0
H331 H 0.81515 0.79486 0.40404 0.0
H332 H 0.78216 0.76024 0.42963 0.0
H333 H 0.76605 0.79029 0.51182 0.0
H334 H 0.61578 0.68474 0.51659 0.0
H335 H 0.65055 0.71861 0.49213 0.0
H336 H 0.69529 0.71674 0.46538 0.0
C337 C 0.78531 0.78381 0.43594 0.0
C338 C 0.75049 0.77456 0.50144 0.0
C339 C 0.80435 0.80363 0.42134 0.0
C340 C 0.63881 0.68893 0.52394 0.0
C341 C 0.65882 0.70821 0.5098 0.0
C342 C 0.71038 0.73292 0.47576 0.0
C343 C 0.77089 0.7942 0.45858 0.0
C344 C 0.75033 0.7733 0.47397 0.0
C345 C 0.68896 0.71423 0.51853 0.0
C346 C 0.71033 0.73439 0.50321 0.0
H347 H 0.79853 0.86808 0.45832 0.0
H348 H 0.76493 0.83373 0.48341 0.0
H349 H 0.72914 0.75083 0.44019 0.0
H350 H 0.68661 0.67141 0.57394 0.0
H351 H 0.72168 0.70465 0.54902 0.0
C352 C 0.20279 0.56342 0.17229 0.0
C353 C 0.17444 0.57483 0.17891 0.0
C354 C 0.2197 0.54791 0.19076 0.0
C355 C 0.21118 0.50796 0.25463 0.0
H356 H 0.29968 0.51086 0.25212 0.0
C357 C 0.29006 0.46095 0.335 0.0
C358 C 0.31162 0.4406 0.32605 0.0
C359 C 0.27265 0.47703 0.31727 0.0
C360 C 0.27496 0.50979 0.2529 0.0
H361 H 0.142 0.58008 0.21023 0.0
H362 H 0.17214 0.5544 0.2429 0.0
H363 H 0.27127 0.54155 0.22165 0.0
H364 H 0.33186 0.42107 0.29157 0.0
H365 H 0.30191 0.44996 0.26053 0.0
H366 H 0.21529 0.47697 0.28667 0.0
C367 C 0.18091 0.55631 0.22321 0.0
C368 C 0.25861 0.52722 0.23539 0.0
C369 C 0.16372 0.57131 0.20457 0.0
C370 C 0.31532 0.4365 0.29902 0.0
C371 C 0.29837 0.4531 0.28129 0.0
C372 C 0.2276 0.49102 0.27248 0.0
C373 C 0.20893 0.54395 0.21645 0.0
C374 C 0.22645 0.52635 0.23584 0.0
C375 C 0.27697 0.47352 0.29029 0.0
C376 C 0.25958 0.49162 0.27159 0.0
H377 H 0.21148 0.56555 0.15257 0.0
H378 H 0.24081 0.53829 0.18458 0.0
H379 H 0.18648 0.50612 0.25531 0.0
H380 H 0.28665 0.46448 0.35573 0.0
H381 H 0.25631 0.49275 0.32461 0.0
C382 C 0.79501 0.30624 0.92086 0.0
C383 C 0.79996 0.33672 0.92909 0.0
C384 C 0.7763 0.28594 0.93529 0.0
C385 C 0.74312 0.27502 0.00118 0.0
H386 H 0.68904 0.21581 0.96553 0.0
C387 C 0.63532 0.18494 0.02497 0.0
C388 C 0.64609 0.17156 0.04796 0.0
C389 C 0.65419 0.20509 0.0106 0.0
C390 C 0.70382 0.23238 0.9758 0.0
H391 H 0.7887 0.36992 0.95872 0.0
H392 H 0.75562 0.33474 0.98352 0.0
H393 H 0.72101 0.25142 0.94008 0.0
H394 H 0.6852 0.16887 0.07385 0.0
H395 H 0.71832 0.20363 0.04851 0.0
H396 H 0.72526 0.25659 0.03689 0.0
C397 C 0.7667 0.32631 0.96624 0.0
C398 C 0.72245 0.25254 0.9612 0.0
C399 C 0.78553 0.34654 0.9519 0.0
C400 C 0.67614 0.17889 0.0563 0.0
C401 C 0.69508 0.19894 0.04183 0.0
C402 C 0.72439 0.25495 0.01578 0.0
C403 C 0.76199 0.29572 0.9582 0.0
C404 C 0.7423 0.27413 0.97371 0.0
C405 C 0.68435 0.21223 0.01878 0.0
C406 C 0.70448 0.23342 0.00327 0.0
H407 H 0.8059 0.29789 0.90344 0.0
H408 H 0.77347 0.26244 0.92873 0.0
H409 H 0.75843 0.2911 0.01145 0.0
H410 H 0.61223 0.17995 0.01806 0.0
H411 H 0.64501 0.21532 -0.00681 0.0
C412 C 0.78446 0.96227 0.33486 0.0
C413 C 0.80815 0.9437 0.32715 0.0
C414 C 0.76673 0.97648 0.31617 0.0
C415 C 0.76999 0.00825 0.25153 0.0
H416 H 0.68163 -0.00155 0.25109 0.0
C417 C 0.69739 0.05727 0.16882 0.0
C418 C 0.66808 0.06681 0.17473 0.0
C419 C 0.71461 0.04271 0.18767 0.0
C420 C 0.70624 0.00197 0.25118 0.0
H421 H 0.83185 0.92533 0.29391 0.0
H422 H 0.80126 0.951 0.26116 0.0
H423 H 0.71108 0.97156 0.28353 0.0
H424 H 0.63418 0.06975 0.20519 0.0
H425 H 0.66474 0.04577 0.23854 0.0
H426 H 0.76546 0.03952 0.22001 0.0
C427 C 0.79632 0.95418 0.2817 0.0
C428 C 0.72305 0.98632 0.26964 0.0
C429 C 0.81365 0.93942 0.30039 0.0
C430 C 0.65665 0.0624 0.20007 0.0
C431 C 0.6741 0.04838 0.21909 0.0
C432 C 0.75319 0.0244 0.23339 0.0
C433 C 0.7728 0.97287 0.28948 0.0
C434 C 0.75503 0.98921 0.26984 0.0
C435 C 0.70314 0.03787 0.21304 0.0
C436 C 0.72107 0.02135 0.23286 0.0
H437 H 0.77965 0.96588 0.35536 0.0
H438 H 0.74875 0.9909 0.32258 0.0
H439 H 0.79467 0.0111 0.25158 0.0
H440 H 0.70666 0.06012 0.14935 0.0
H441 H 0.73656 0.03451 0.18204 0.0
C442 C 0.96536 0.89398 0.43089 0.0
C443 C 0.95066 0.91162 0.41217 0.0
C444 C 0.98452 0.90809 0.44971 0.0
C445 C -0.00609 0.98147 0.48352 0.0
H446 H 0.0691 0.95004 0.51045 0.0
C447 C 0.04796 0.03111 0.57651 0.0
C448 C 0.07921 0.03948 0.57516 0.0
C449 C 0.03429 0.01209 0.55754 0.0
C450 C 0.04818 0.95907 0.50303 0.0
H451 H 0.9461 0.95749 0.39728 0.0
H452 H 0.97976 0.982 0.42985 0.0
H453 H 0.04299 0.92444 0.47335 0.0
H454 H 0.12107 0.03295 0.55387 0.0
H455 H 0.09699 -9e-05 0.52034 0.0
H456 H -0.00096 0.01622 0.51273 0.0
C457 C 0.97597 0.95738 0.43039 0.0
C458 C 0.03318 0.94436 0.48195 0.0
C459 C 0.9568 0.94334 0.41168 0.0
C460 C 0.09693 0.02698 0.55532 0.0
C461 C 0.08317 0.00797 0.5362 0.0
C462 C 0.00876 -0.00398 0.50453 0.0
C463 C 0.98929 0.94002 0.45005 0.0
C464 C 0.00594 0.95553 0.47197 0.0
C465 C 0.05153 0.00115 0.53671 0.0
C466 C 0.03597 0.98496 0.51459 0.0
H467 H 0.96114 0.86946 0.43165 0.0
H468 H -0.00561 0.89414 0.46469 0.0
H469 H 0.97272 0.99035 0.47655 0.0
H470 H 0.03381 0.04006 0.59182 0.0
H471 H 0.00998 0.00663 0.55874 0.0
C472 C 0.91325 0.33231 0.77908 0.0
C473 C 0.90856 0.3208 0.80441 0.0
C474 C 0.9287 0.31544 0.76052 0.0
C475 C 0.98729 0.26076 0.75458 0.0
H476 H 0.95196 0.24017 0.68684 0.0
C477 C 0.04469 0.17861 0.68367 0.0
C478 C 0.04119 0.1831 0.6567 0.0
C479 C 0.02885 0.1961 0.70152 0.0
C480 C 0.9625 0.24619 0.70545 0.0
H481 H 0.91617 0.28267 0.83018 0.0
H482 H 0.9439 0.25358 0.79785 0.0
H483 H 0.92317 0.26957 0.718 0.0
H484 H 0.01944 0.21019 0.62723 0.0
H485 H -0.00698 0.2417 0.65827 0.0
H486 H 0.02703 0.23852 0.74201 0.0
C487 C 0.93533 0.27549 0.79239 0.0
C488 C 0.94584 0.26284 0.72331 0.0
C489 C 0.91935 0.29204 0.81077 0.0
C490 C 0.02231 0.20602 0.64793 0.0
C491 C 0.00696 0.22391 0.66577 0.0
C492 C 0.00422 0.24464 0.73655 0.0
C493 C 0.94026 0.28713 0.76718 0.0
C494 C 0.95802 0.27002 0.74807 0.0
C495 C 0.00962 0.21889 0.69281 0.0
C496 C -0.00803 0.23691 0.71179 0.0
H497 H 0.90514 0.35441 0.77367 0.0
H498 H 0.93234 0.32485 0.74118 0.0
H499 H -0.00275 0.2664 0.77351 0.0
H500 H 0.0589 0.16092 0.69098 0.0
H501 H 0.03114 0.19113 0.72212 0.0
C502 C 0.51278 0.69157 0.63644 0.0
C503 C 0.53233 0.66894 0.64463 0.0
C504 C 0.49719 0.70865 0.65474 0.0
C505 C 0.49602 0.72812 0.7258 0.0
H506 H 0.41515 0.75478 0.70875 0.0
C507 C 0.41535 0.77841 0.80181 0.0
C508 C 0.40637 0.80797 0.79583 0.0
C509 C 0.42934 0.76079 0.78292 0.0
C510 C 0.43774 0.74749 0.71366 0.0
H511 H 0.55066 0.64612 0.67833 0.0
H512 H 0.52247 0.67481 0.71024 0.0
H513 H 0.44264 0.72494 0.67695 0.0
H514 H 0.40375 0.8418 0.76518 0.0
H515 H 0.42741 0.81041 0.73183 0.0
H516 H 0.49035 0.74985 0.76294 0.0
C517 C 0.51988 0.68028 0.68977 0.0
C518 C 0.45366 0.7306 0.69542 0.0
C519 C 0.53596 0.66365 0.67147 0.0
C520 C 0.41049 0.8191 0.77031 0.0
C521 C 0.42392 0.80119 0.75126 0.0
C522 C 0.47983 0.74444 0.74419 0.0
C523 C 0.50029 0.70305 0.68167 0.0
C524 C 0.48312 0.7208 0.70118 0.0
C525 C 0.434 0.77217 0.7576 0.0
C526 C 0.45065 0.75435 0.73822 0.0
H527 H 0.50976 0.69633 0.61586 0.0
H528 H 0.48293 0.72641 0.64769 0.0
H529 H 0.51885 0.72165 0.73082 0.0
H530 H 0.41257 0.76929 0.82134 0.0
H531 H 0.43682 0.73838 0.78815 0.0
C532 C 0.17889 0.69619 0.06389 0.0
C533 C 0.1549 0.67895 0.05179 0.0
C534 C 0.19829 0.71547 0.04909 0.0
C535 C 0.22865 0.7261 0.98351 0.0
H536 H 0.24336 0.81094 0.00368 0.0
C537 C 0.29344 0.81149 0.9162 0.0
C538 C 0.31282 0.83413 0.92782 0.0
C539 C 0.27402 0.7929 0.93153 0.0
C540 C 0.23993 0.7872 -0.00204 0.0
H541 H 0.13265 0.66813 0.0147 0.0
H542 H 0.16694 0.70136 0.98888 0.0
H543 H 0.21052 0.77745 0.03053 0.0
H544 H 0.32728 0.85486 0.96467 0.0
H545 H 0.29429 0.82178 -0.00851 0.0
H546 H 0.25856 0.73532 0.9514 0.0
C547 C 0.17054 0.70006 0.0098 0.0
C548 C 0.22102 0.7681 0.01331 0.0
C549 C 0.15086 0.6812 0.02461 0.0
C550 C 0.31242 0.83777 0.95511 0.0
C551 C 0.29334 0.81888 0.97048 0.0
C552 C 0.24792 0.74504 0.96837 0.0
C553 C 0.19437 0.71742 0.02191 0.0
C554 C 0.21506 0.73745 0.00611 0.0
C555 C 0.27387 0.79619 0.9589 0.0
C556 C 0.25366 0.77591 0.97528 0.0
H557 H 0.18253 0.695 0.0848 0.0
H558 H 0.21663 0.72854 0.05884 0.0
H559 H 0.22466 0.70242 0.97773 0.0
H560 H 0.29304 0.80829 0.89519 0.0
H561 H 0.25893 0.77613 0.92184 0.0
C562 C 0.46748 0.37416 0.42369 0.0
C563 C 0.45485 0.39346 0.40506 0.0
C564 C 0.48898 0.38583 0.44181 0.0
C565 C 0.54105 0.45256 0.45707 0.0
H566 H 0.51896 0.43548 0.52903 0.0
C567 C 0.54988 0.51871 0.5604 0.0
C568 C 0.58071 0.52891 0.56075 0.0
C569 C 0.53946 0.49656 0.54242 0.0
C570 C 0.52555 0.44026 0.50904 0.0
H571 H 0.4561 0.43959 0.38974 0.0
H572 H 0.49352 0.45992 0.42131 0.0
H573 H 0.49281 0.40708 0.49375 0.0
H574 H 0.62508 0.52314 0.54325 0.0
H575 H 0.6067 0.4845 0.51159 0.0
H576 H 0.5727 0.48683 0.47234 0.0
C577 C 0.48694 0.43579 0.42192 0.0
C578 C 0.51082 0.42382 0.48885 0.0
C579 C 0.46532 0.4242 0.40396 0.0
C580 C 0.60115 0.51579 0.54335 0.0
C581 C 0.59066 0.49377 0.5252 0.0
C582 C 0.55591 0.4689 0.47727 0.0
C583 C 0.49842 0.41691 0.44142 0.0
C584 C 0.51776 0.43049 0.46265 0.0
C585 C 0.55962 0.48427 0.52433 0.0
C586 C 0.5476 0.46355 0.5034 0.0
H587 H 0.45994 0.35032 0.42492 0.0
H588 H 0.49767 0.37073 0.45651 0.0
H589 H 0.54703 0.45795 0.43705 0.0
H590 H 0.53362 0.52833 0.57362 0.0
H591 H 0.51534 0.48996 0.54199 0.0
loop_
_geom_bond_atom_site_label_1
_geom_bond_atom_site_label_2
_geom_bond_distance
_geom_bond_site_symmetry_2
_ccdc_geom_bond_type
C0 O1 1.306 . S
C0 O3 1.160 . S
O1 C0 1.306 . S
O1 Cd2 2.228 . S
Cd2 O1 2.228 . S
Cd2 O6 2.273 . S
Cd2 O10 2.277 . S
O3 C0 1.160 . S
O3 Cd4 2.203 . S
Cd4 O3 2.203 . S
Cd4 O6 2.411 . S
Cd4 O7 2.333 . S
Cd4 O8 2.352 . S
Cd4 O12 2.277 . S
Cd4 O13 2.356 . S
C5 O10 1.209 . S
C5 O12 1.226 . S
O6 Cd2 2.273 . S
O6 Cd4 2.411 . S
O6 C9 1.320 . S
O7 Cd4 2.333 . S
O7 C9 1.214 . S
O8 Cd4 2.352 . S
O8 C11 1.258 . S
C9 O6 1.320 . S
C9 O7 1.214 . S
O10 Cd2 2.277 . S
O10 C5 1.209 . S
C11 O8 1.258 . S
C11 O13 1.282 . S
O12 Cd4 2.277 . S
O12 C5 1.226 . S
O13 Cd4 2.356 . S
O13 C11 1.282 . S
C14 O15 1.306 . S
C14 O17 1.160 . S
O15 C14 1.306 . S
O15 Cd16 2.228 . S
Cd16 O15 2.228 . S
Cd16 O20 2.273 . S
Cd16 O24 2.277 . S
O17 C14 1.160 . S
O17 Cd18 2.203 . S
Cd18 O17 2.203 . S
Cd18 O20 2.411 . S
Cd18 O21 2.333 . S
Cd18 O22 2.352 . S
Cd18 O26 2.277 . S
Cd18 O27 2.356 . S
C19 O24 1.209 . S
C19 O26 1.226 . S
O20 Cd16 2.273 . S
O20 Cd18 2.411 . S
O20 C23 1.320 . S
O21 Cd18 2.333 . S
O21 C23 1.214 . S
O22 Cd18 2.352 . S
O22 C25 1.258 . S
C23 O20 1.320 . S
C23 O21 1.214 . S
O24 Cd16 2.277 . S
O24 C19 1.209 . S
C25 O22 1.258 . S
C25 O27 1.282 . S
O26 Cd18 2.277 . S
O26 C19 1.226 . S
O27 Cd18 2.356 . S
O27 C25 1.282 . S
C28 O29 1.306 . S
C28 O31 1.160 . S
O29 C28 1.306 . S
O29 Cd30 2.228 . S
Cd30 O29 2.228 . S
Cd30 O34 2.273 . S
Cd30 O38 2.277 . S
O31 C28 1.160 . S
O31 Cd32 2.203 . S
Cd32 O31 2.203 . S
Cd32 O34 2.411 . S
Cd32 O35 2.333 . S
Cd32 O36 2.352 . S
Cd32 O40 2.277 . S
Cd32 O41 2.356 . S
C33 O38 1.209 . S
C33 O40 1.226 . S
O34 Cd30 2.273 . S
O34 Cd32 2.411 . S
O34 C37 1.320 . S
O35 Cd32 2.333 . S
O35 C37 1.214 . S
O36 Cd32 2.352 . S
O36 C39 1.258 . S
C37 O34 1.320 . S
C37 O35 1.214 . S
O38 Cd30 2.277 . S
O38 C33 1.209 . S
C39 O36 1.258 . S
C39 O41 1.282 . S
O40 Cd32 2.277 . S
O40 C33 1.226 . S
O41 Cd32 2.356 . S
O41 C39 1.282 . S
C42 O43 1.306 . S
C42 O45 1.160 . S
O43 C42 1.306 . S
O43 Cd44 2.228 . S
Cd44 O43 2.228 . S
Cd44 O48 2.273 . S
Cd44 O52 2.277 . S
O45 C42 1.160 . S
O45 Cd46 2.203 . S
Cd46 O45 2.203 . S
Cd46 O48 2.411 . S
Cd46 O49 2.333 . S
Cd46 O50 2.352 . S
Cd46 O54 2.277 . S
Cd46 O55 2.356 . S
C47 O52 1.209 . S
C47 O54 1.226 . S
O48 Cd44 2.273 . S
O48 Cd46 2.411 . S
O48 C51 1.320 . S
O49 Cd46 2.333 . S
O49 C51 1.214 . S
O50 Cd46 2.352 . S
O50 C53 1.258 . S
C51 O48 1.320 . S
C51 O49 1.214 . S
O52 Cd44 2.277 . S
O52 C47 1.209 . S
C53 O50 1.258 . S
C53 O55 1.282 . S
O54 Cd46 2.277 . S
O54 C47 1.226 . S
O55 Cd46 2.356 . S
O55 C53 1.282 . S
C56 O57 1.306 . S
C56 O59 1.160 . S
O57 C56 1.306 . S
O57 Cd58 2.228 . S
Cd58 O57 2.228 . S
Cd58 O62 2.273 . S
Cd58 O66 2.277 . S
O59 C56 1.160 . S
O59 Cd60 2.203 . S
Cd60 O59 2.203 . S
Cd60 O62 2.411 . S
Cd60 O63 2.333 . S
Cd60 O64 2.352 . S
Cd60 O68 2.277 . S
Cd60 O69 2.356 . S
C61 O66 1.209 . S
C61 O68 1.226 . S
O62 Cd58 2.273 . S
O62 Cd60 2.411 . S
O62 C65 1.320 . S
O63 Cd60 2.333 . S
O63 C65 1.214 . S
O64 Cd60 2.352 . S
O64 C67 1.258 . S
C65 O62 1.320 . S
C65 O63 1.214 . S
O66 Cd58 2.277 . S
O66 C61 1.209 . S
C67 O64 1.258 . S
C67 O69 1.282 . S
O68 Cd60 2.277 . S
O68 C61 1.226 . S
O69 Cd60 2.356 . S
O69 C67 1.282 . S
C70 O71 1.306 . S
C70 O73 1.160 . S
O71 C70 1.306 . S
O71 Cd72 2.228 . S
Cd72 O71 2.228 . S
Cd72 O76 2.273 . S
Cd72 O80 2.277 . S
O73 C70 1.160 . S
O73 Cd74 2.203 . S
Cd74 O73 2.203 . S
Cd74 O76 2.411 . S
Cd74 O77 2.333 . S
Cd74 O78 2.352 . S
Cd74 O82 2.277 . S
Cd74 O83 2.356 . S
C75 O80 1.209 . S
C75 O82 1.226 . S
O76 Cd72 2.273 . S
O76 Cd74 2.411 . S
O76 C79 1.320 . S
O77 Cd74 2.333 . S
O77 C79 1.214 . S
O78 Cd74 2.352 . S
O78 C81 1.258 . S
C79 O76 1.320 . S
C79 O77 1.214 . S
O80 Cd72 2.277 . S
O80 C75 1.209 . S
C81 O78 1.258 . S
C81 O83 1.282 . S
O82 Cd74 2.277 . S
O82 C75 1.226 . S
O83 Cd74 2.356 . S
O83 C81 1.282 . S
C84 O85 1.306 . S
C84 O87 1.160 . S
O85 C84 1.306 . S
O85 Cd86 2.228 . S
Cd86 O85 2.228 . S
Cd86 O90 2.273 . S
Cd86 O94 2.277 . S
O87 C84 1.160 . S
O87 Cd88 2.203 . S
Cd88 O87 2.203 . S
Cd88 O90 2.411 . S
Cd88 O91 2.333 . S
Cd88 O92 2.352 . S
Cd88 O96 2.277 . S
Cd88 O97 2.356 . S
C89 O94 1.209 . S
C89 O96 1.226 . S
O90 Cd86 2.273 . S
O90 Cd88 2.411 . S
O90 C93 1.320 . S
O91 Cd88 2.333 . S
O91 C93 1.214 . S
O92 Cd88 2.352 . S
O92 C95 1.258 . S
C93 O90 1.320 . S
C93 O91 1.214 . S
O94 Cd86 2.277 . S
O94 C89 1.209 . S
C95 O92 1.258 . S
C95 O97 1.282 . S
O96 Cd88 2.277 . S
O96 C89 1.226 . S
O97 Cd88 2.356 . S
O97 C95 1.282 . S
C98 O99 1.306 . S
C98 O101 1.160 . S
O99 C98 1.306 . S
O99 Cd100 2.228 . S
Cd100 O99 2.228 . S
Cd100 O104 2.273 . S
Cd100 O108 2.277 . S
O101 C98 1.160 . S
O101 Cd102 2.203 . S
Cd102 O101 2.203 . S
Cd102 O104 2.411 . S
Cd102 O105 2.333 . S
Cd102 O106 2.352 . S
Cd102 O110 2.277 . S
Cd102 O111 2.356 . S
C103 O108 1.209 . S
C103 O110 1.226 . S
O104 Cd100 2.273 . S
O104 Cd102 2.411 . S
O104 C107 1.320 . S
O105 Cd102 2.333 . S
O105 C107 1.214 . S
O106 Cd102 2.352 . S
O106 C109 1.258 . S
C107 O104 1.320 . S
C107 O105 1.214 . S
O108 Cd100 2.277 . S
O108 C103 1.209 . S
C109 O106 1.258 . S
C109 O111 1.282 . S
O110 Cd102 2.277 . S
O110 C103 1.226 . S
O111 Cd102 2.356 . S
O111 C109 1.282 . S
C112 C113 1.349 . S
C112 C114 1.327 . S
C112 H137 0.950 . S
C113 C112 1.349 . S
C113 C129 1.349 . S
C114 C112 1.327 . S
C114 C133 1.429 . S
C114 H138 0.950 . S
C115 C132 1.574 . S
C115 C134 1.368 . S
C115 H139 0.949 . S
H116 C120 0.949 . S
C117 C118 1.349 . S
C117 C119 1.327 . S
C117 H140 0.950 . S
C118 C117 1.349 . S
C118 C130 1.349 . S
C119 C117 1.327 . S
C119 C135 1.429 . S
C119 H141 0.950 . S
C120 H116 0.949 . S
C120 C128 1.574 . S
C120 C136 1.368 . S
H121 C129 0.950 . S
H122 C127 0.950 . S
H123 C128 0.949 . S
H124 C130 0.950 . S
H125 C131 0.950 . S
H126 C132 0.949 . S
C127 H122 0.950 . S
C127 C129 1.327 . S
C127 C133 1.429 . S
C128 C120 1.574 . S
C128 H123 0.949 . S
C128 C134 1.368 . S
C129 C113 1.349 . S
C129 H121 0.950 . S
C129 C127 1.327 . S
C130 C118 1.349 . S
C130 H124 0.950 . S
C130 C131 1.327 . S
C131 H125 0.950 . S
C131 C130 1.327 . S
C131 C135 1.429 . S
C132 C115 1.574 . S
C132 H126 0.949 . S
C132 C136 1.368 . S
C133 C114 1.429 . S
C133 C127 1.429 . S
C133 C134 1.523 . S
C134 C115 1.368 . S
C134 C128 1.368 . S
C134 C133 1.523 . S
C135 C119 1.429 . S
C135 C131 1.429 . S
C135 C136 1.523 . S
C136 C120 1.368 . S
C136 C132 1.368 . S
C136 C135 1.523 . S
H137 C112 0.950 . S
H138 C114 0.950 . S
H139 C115 0.949 . S
H140 C117 0.950 . S
H141 C119 0.950 . S
C142 C143 1.349 . S
C142 C144 1.327 . S
C142 H167 0.950 . S
C143 C142 1.349 . S
C143 C159 1.349 . S
C144 C142 1.327 . S
C144 C163 1.429 . S
C144 H168 0.950 . S
C145 C162 1.574 . S
C145 C164 1.368 . S
C145 H169 0.949 . S
H146 C150 0.949 . S
C147 C148 1.349 . S
C147 C149 1.327 . S
C147 H170 0.950 . S
C148 C147 1.349 . S
C148 C160 1.349 . S
C149 C147 1.327 . S
C149 C165 1.429 . S
C149 H171 0.950 . S
C150 H146 0.949 . S
C150 C158 1.574 . S
C150 C166 1.368 . S
H151 C159 0.950 . S
H152 C157 0.950 . S
H153 C158 0.949 . S
H154 C160 0.950 . S
H155 C161 0.950 . S
H156 C162 0.949 . S
C157 H152 0.950 . S
C157 C159 1.327 . S
C157 C163 1.429 . S
C158 C150 1.574 . S
C158 H153 0.949 . S
C158 C164 1.368 . S
C159 C143 1.349 . S
C159 H151 0.950 . S
C159 C157 1.327 . S
C160 C148 1.349 . S
C160 H154 0.950 . S
C160 C161 1.327 . S
C161 H155 0.950 . S
C161 C160 1.327 . S
C161 C165 1.429 . S
C162 C145 1.574 . S
C162 H156 0.949 . S
C162 C166 1.368 . S
C163 C144 1.429 . S
C163 C157 1.429 . S
C163 C164 1.523 . S
C164 C145 1.368 . S
C164 C158 1.368 . S
C164 C163 1.523 . S
C165 C149 1.429 . S
C165 C161 1.429 . S
C165 C166 1.523 . S
C166 C150 1.368 . S
C166 C162 1.368 . S
C166 C165 1.523 . S
H167 C142 0.950 . S
H168 C144 0.950 . S
H169 C145 0.949 . S
H170 C147 0.950 . S
H171 C149 0.950 . S
C172 C173 1.349 . S
C172 C174 1.327 . S
C172 H197 0.950 . S
C173 C172 1.349 . S
C173 C189 1.349 . S
C174 C172 1.327 . S
C174 C193 1.429 . S
C174 H198 0.950 . S
C175 C192 1.574 1_554 S
C175 C194 1.368 1_565 S
C175 H199 0.949 . S
H176 C180 0.949 . S
C177 C178 1.349 . S
C177 C179 1.327 . S
C177 H200 0.950 . S
C178 C177 1.349 . S
C178 C190 1.349 . S
C179 C177 1.327 . S
C179 C195 1.429 . S
C179 H201 0.950 . S
C180 H176 0.949 . S
C180 C188 1.574 1_556 S
C180 C196 1.368 1_545 S
H181 C189 0.950 . S
H182 C187 0.950 1_565 S
H183 C188 0.949 . S
H184 C190 0.950 . S
H185 C191 0.950 . S
H186 C192 0.949 . S
C187 H182 0.950 1_545 S
C187 C189 1.327 . S
C187 C193 1.429 . S
C188 C180 1.574 1_554 S
C188 H183 0.949 . S
C188 C194 1.368 . S
C189 C173 1.349 . S
C189 H181 0.950 . S
C189 C187 1.327 . S
C190 C178 1.349 . S
C190 H184 0.950 . S
C190 C191 1.327 . S
C191 H185 0.950 . S
C191 C190 1.327 . S
C191 C195 1.429 . S
C192 C175 1.574 1_556 S
C192 H186 0.949 . S
C192 C196 1.368 . S
C193 C174 1.429 . S
C193 C187 1.429 . S
C193 C194 1.523 . S
C194 C175 1.368 1_545 S
C194 C188 1.368 . S
C194 C193 1.523 . S
C195 C179 1.429 . S
C195 C191 1.429 . S
C195 C196 1.523 . S
C196 C180 1.368 1_565 S
C196 C192 1.368 . S
C196 C195 1.523 . S
H197 C172 0.950 . S
H198 C174 0.950 . S
H199 C175 0.949 . S
H200 C177 0.950 . S
H201 C179 0.950 . S
C202 C203 1.349 . S
C202 C204 1.327 . S
C202 H227 0.950 . S
C203 C202 1.349 . S
C203 C219 1.349 . S
C204 C202 1.327 . S
C204 C223 1.429 . S
C204 H228 0.950 . S
C205 C222 1.574 . S
C205 C224 1.368 1_455 S
C205 H229 0.949 . S
H206 C210 0.949 . S
C207 C208 1.349 . S
C207 C209 1.327 . S
C207 H230 0.950 . S
C208 C207 1.349 . S
C208 C220 1.349 . S
C209 C207 1.327 . S
C209 C225 1.429 . S
C209 H231 0.950 . S
C210 H206 0.949 . S
C210 C218 1.574 1_455 S
C210 C226 1.368 . S
H211 C219 0.950 . S
H212 C217 0.950 . S
H213 C218 0.949 . S
H214 C220 0.950 . S
H215 C221 0.950 . S
H216 C222 0.949 . S
C217 H212 0.950 . S
C217 C219 1.327 . S
C217 C223 1.429 . S
C218 C210 1.574 1_655 S
C218 H213 0.949 . S
C218 C224 1.368 . S
C219 C203 1.349 . S
C219 H211 0.950 . S
C219 C217 1.327 . S
C220 C208 1.349 . S
C220 H214 0.950 . S
C220 C221 1.327 . S
C221 H215 0.950 . S
C221 C220 1.327 . S
C221 C225 1.429 . S
C222 C205 1.574 . S
C222 H216 0.949 . S
C222 C226 1.368 . S
C223 C204 1.429 . S
C223 C217 1.429 . S
C223 C224 1.523 . S
C224 C205 1.368 1_655 S
C224 C218 1.368 . S
C224 C223 1.523 . S
C225 C209 1.429 . S
C225 C221 1.429 . S
C225 C226 1.523 . S
C226 C210 1.368 . S
C226 C222 1.368 . S
C226 C225 1.523 . S
H227 C202 0.950 . S
H228 C204 0.950 . S
H229 C205 0.949 . S
H230 C207 0.950 . S
H231 C209 0.950 . S
C232 C233 1.349 . S
C232 C234 1.327 . S
C232 H257 0.950 . S
C233 C232 1.349 . S
C233 C249 1.349 . S
C234 C232 1.327 . S
C234 C253 1.429 . S
C234 H258 0.950 . S
C235 C252 1.574 . S
C235 C254 1.368 . S
C235 H259 0.949 . S
H236 C240 0.949 . S
C237 C238 1.349 . S
C237 C239 1.327 . S
C237 H260 0.950 . S
C238 C237 1.349 . S
C238 C250 1.349 . S
C239 C237 1.327 . S
C239 C255 1.429 . S
C239 H261 0.950 1_545 S
C240 H236 0.949 . S
C240 C248 1.574 . S
C240 C256 1.368 . S
H241 C249 0.950 . S
H242 C247 0.950 . S
H243 C248 0.949 . S
H244 C250 0.950 . S
H245 C251 0.950 . S
H246 C252 0.949 . S
C247 H242 0.950 . S
C247 C249 1.327 . S
C247 C253 1.429 . S
C248 C240 1.574 . S
C248 H243 0.949 . S
C248 C254 1.368 1_545 S
C249 C233 1.349 . S
C249 H241 0.950 . S
C249 C247 1.327 . S
C250 C238 1.349 . S
C250 H244 0.950 . S
C250 C251 1.327 . S
C251 H245 0.950 . S
C251 C250 1.327 . S
C251 C255 1.429 . S
C252 C235 1.574 . S
C252 H246 0.949 . S
C252 C256 1.368 1_565 S
C253 C234 1.429 . S
C253 C247 1.429 . S
C253 C254 1.523 . S
C254 C235 1.368 . S
C254 C248 1.368 1_565 S
C254 C253 1.523 . S
C255 C239 1.429 . S
C255 C251 1.429 . S
C255 C256 1.523 . S
C256 C240 1.368 . S
C256 C252 1.368 1_545 S
C256 C255 1.523 . S
H257 C232 0.950 . S
H258 C234 0.950 . S
H259 C235 0.949 . S
H260 C237 0.950 . S
H261 C239 0.950 1_565 S
C262 C263 1.349 . S
C262 C264 1.327 . S
C262 H287 0.950 . S
C263 C262 1.349 . S
C263 C279 1.349 . S
C264 C262 1.327 . S
C264 C283 1.429 . S
C264 H288 0.950 . S
C265 C282 1.574 1_556 S
C265 C284 1.368 1_455 S
C265 H289 0.949 . S
H266 C270 0.949 . S
C267 C268 1.349 . S
C267 C269 1.327 . S
C267 H290 0.950 . S
C268 C267 1.349 . S
C268 C280 1.349 . S
C269 C267 1.327 . S
C269 C285 1.429 . S
C269 H291 0.950 . S
C270 H266 0.949 . S
C270 C278 1.574 1_554 S
C270 C286 1.368 1_655 S
H271 C279 0.950 . S
H272 C277 0.950 1_455 S
H273 C278 0.949 . S
H274 C280 0.950 . S
H275 C281 0.950 . S
H276 C282 0.949 . S
C277 H272 0.950 1_655 S
C277 C279 1.327 . S
C277 C283 1.429 . S
C278 C270 1.574 1_556 S
C278 H273 0.949 . S
C278 C284 1.368 . S
C279 C263 1.349 . S
C279 H271 0.950 . S
C279 C277 1.327 . S
C280 C268 1.349 . S
C280 H274 0.950 . S
C280 C281 1.327 . S
C281 H275 0.950 . S
C281 C280 1.327 . S
C281 C285 1.429 . S
C282 C265 1.574 1_554 S
C282 H276 0.949 . S
C282 C286 1.368 . S
C283 C264 1.429 . S
C283 C277 1.429 . S
C283 C284 1.523 . S
C284 C265 1.368 1_655 S
C284 C278 1.368 . S
C284 C283 1.523 . S
C285 C269 1.429 . S
C285 C281 1.429 . S
C285 C286 1.523 . S
C286 C270 1.368 1_455 S
C286 C282 1.368 . S
C286 C285 1.523 . S
H287 C262 0.950 . S
H288 C264 0.950 . S
H289 C265 0.949 . S
H290 C267 0.950 . S
H291 C269 0.950 . S
C292 C293 1.349 . S
C292 C294 1.327 . S
C292 H317 0.950 . S
C293 C292 1.349 . S
C293 C309 1.349 . S
C294 C292 1.327 . S
C294 C313 1.429 . S
C294 H318 0.950 . S
C295 C312 1.574 . S
C295 C314 1.368 . S
C295 H319 0.949 . S
H296 C300 0.949 . S
C297 C298 1.349 . S
C297 C299 1.327 . S
C297 H320 0.950 . S
C298 C297 1.349 . S
C298 C310 1.349 . S
C299 C297 1.327 . S
C299 C315 1.429 . S
C299 H321 0.950 . S
C300 H296 0.949 . S
C300 C308 1.574 . S
C300 C316 1.368 . S
H301 C309 0.950 . S
H302 C307 0.950 . S
H303 C308 0.949 . S
H304 C310 0.950 . S
H305 C311 0.950 . S
H306 C312 0.949 . S
C307 H302 0.950 . S
C307 C309 1.327 . S
C307 C313 1.429 . S
C308 C300 1.574 . S
C308 H303 0.949 . S
C308 C314 1.368 . S
C309 C293 1.349 . S
C309 H301 0.950 . S
C309 C307 1.327 . S
C310 C298 1.349 . S
C310 H304 0.950 . S
C310 C311 1.327 . S
C311 H305 0.950 . S
C311 C310 1.327 . S
C311 C315 1.429 . S
C312 C295 1.574 . S
C312 H306 0.949 . S
C312 C316 1.368 . S
C313 C294 1.429 . S
C313 C307 1.429 . S
C313 C314 1.523 . S
C314 C295 1.368 . S
C314 C308 1.368 . S
C314 C313 1.523 . S
C315 C299 1.429 . S
C315 C311 1.429 . S
C315 C316 1.523 . S
C316 C300 1.368 . S
C316 C312 1.368 . S
C316 C315 1.523 . S
H317 C292 0.950 . S
H318 C294 0.950 . S
H319 C295 0.949 . S
H320 C297 0.950 . S
H321 C299 0.950 . S
C322 C323 1.349 . S
C322 C324 1.327 . S
C322 H347 0.950 . S
C323 C322 1.349 . S
C323 C339 1.349 . S
C324 C322 1.327 . S
C324 C343 1.429 . S
C324 H348 0.950 . S
C325 C342 1.574 . S
C325 C344 1.368 . S
C325 H349 0.949 . S
H326 C330 0.949 . S
C327 C328 1.349 . S
C327 C329 1.327 . S
C327 H350 0.950 . S
C328 C327 1.349 . S
C328 C340 1.349 . S
C329 C327 1.327 . S
C329 C345 1.429 . S
C329 H351 0.950 . S
C330 H326 0.949 . S
C330 C338 1.574 . S
C330 C346 1.368 . S
H331 C339 0.950 . S
H332 C337 0.950 . S
H333 C338 0.949 . S
H334 C340 0.950 . S
H335 C341 0.950 . S
H336 C342 0.949 . S
C337 H332 0.950 . S
C337 C339 1.327 . S
C337 C343 1.429 . S
C338 C330 1.574 . S
C338 H333 0.949 . S
C338 C344 1.368 . S
C339 C323 1.349 . S
C339 H331 0.950 . S
C339 C337 1.327 . S
C340 C328 1.349 . S
C340 H334 0.950 . S
C340 C341 1.327 . S
C341 H335 0.950 . S
C341 C340 1.327 . S
C341 C345 1.429 . S
C342 C325 1.574 . S
C342 H336 0.949 . S
C342 C346 1.368 . S
C343 C324 1.429 . S
C343 C337 1.429 . S
C343 C344 1.523 . S
C344 C325 1.368 . S
C344 C338 1.368 . S
C344 C343 1.523 . S
C345 C329 1.429 . S
C345 C341 1.429 . S
C345 C346 1.523 . S
C346 C330 1.368 . S
C346 C342 1.368 . S
C346 C345 1.523 . S
H347 C322 0.950 . S
H348 C324 0.950 . S
H349 C325 0.949 . S
H350 C327 0.950 . S
H351 C329 0.950 . S
C352 C353 1.349 . S
C352 C354 1.327 . S
C352 H377 0.950 . S
C353 C352 1.349 . S
C353 C369 1.349 . S
C354 C352 1.327 . S
C354 C373 1.429 . S
C354 H378 0.950 . S
C355 C372 1.574 . S
C355 C374 1.368 . S
C355 H379 0.949 . S
H356 C360 0.949 . S
C357 C358 1.349 . S
C357 C359 1.327 . S
C357 H380 0.950 . S
C358 C357 1.349 . S
C358 C370 1.349 . S
C359 C357 1.327 . S
C359 C375 1.429 . S
C359 H381 0.950 . S
C360 H356 0.949 . S
C360 C368 1.574 . S
C360 C376 1.368 . S
H361 C369 0.950 . S
H362 C367 0.950 . S
H363 C368 0.949 . S
H364 C370 0.950 . S
H365 C371 0.950 . S
H366 C372 0.949 . S
C367 H362 0.950 . S
C367 C369 1.327 . S
C367 C373 1.429 . S
C368 C360 1.574 . S
C368 H363 0.949 . S
C368 C374 1.368 . S
C369 C353 1.349 . S
C369 H361 0.950 . S
C369 C367 1.327 . S
C370 C358 1.349 . S
C370 H364 0.950 . S
C370 C371 1.327 . S
C371 H365 0.950 . S
C371 C370 1.327 . S
C371 C375 1.429 . S
C372 C355 1.574 . S
C372 H366 0.949 . S
C372 C376 1.368 . S
C373 C354 1.429 . S
C373 C367 1.429 . S
C373 C374 1.523 . S
C374 C355 1.368 . S
C374 C368 1.368 . S
C374 C373 1.523 . S
C375 C359 1.429 . S
C375 C371 1.429 . S
C375 C376 1.523 . S
C376 C360 1.368 . S
C376 C372 1.368 . S
C376 C375 1.523 . S
H377 C352 0.950 . S
H378 C354 0.950 . S
H379 C355 0.949 . S
H380 C357 0.950 . S
H381 C359 0.950 . S
C382 C383 1.349 . S
C382 C384 1.327 . S
C382 H407 0.950 . S
C383 C382 1.349 . S
C383 C399 1.349 . S
C384 C382 1.327 . S
C384 C403 1.429 . S
C384 H408 0.950 . S
C385 C402 1.574 1_556 S
C385 C404 1.368 . S
C385 H409 0.949 . S
H386 C390 0.949 . S
C387 C388 1.349 . S
C387 C389 1.327 . S
C387 H410 0.950 . S
C388 C387 1.349 . S
C388 C400 1.349 . S
C389 C387 1.327 . S
C389 C405 1.429 . S
C389 H411 0.950 . S
C390 H386 0.949 . S
C390 C398 1.574 1_554 S
C390 C406 1.368 . S
H391 C399 0.950 . S
H392 C397 0.950 . S
H393 C398 0.949 . S
H394 C400 0.950 . S
H395 C401 0.950 . S
H396 C402 0.949 . S
C397 H392 0.950 . S
C397 C399 1.327 . S
C397 C403 1.429 . S
C398 C390 1.574 1_556 S
C398 H393 0.949 . S
C398 C404 1.368 . S
C399 C383 1.349 . S
C399 H391 0.950 . S
C399 C397 1.327 . S
C400 C388 1.349 . S
C400 H394 0.950 . S
C400 C401 1.327 . S
C401 H395 0.950 . S
C401 C400 1.327 . S
C401 C405 1.429 . S
C402 C385 1.574 1_554 S
C402 H396 0.949 . S
C402 C406 1.368 . S
C403 C384 1.429 . S
C403 C397 1.429 . S
C403 C404 1.523 . S
C404 C385 1.368 . S
C404 C398 1.368 . S
C404 C403 1.523 . S
C405 C389 1.429 . S
C405 C401 1.429 . S
C405 C406 1.523 . S
C406 C390 1.368 . S
C406 C402 1.368 . S
C406 C405 1.523 . S
H407 C382 0.950 . S
H408 C384 0.950 . S
H409 C385 0.949 . S
H410 C387 0.950 . S
H411 C389 0.950 . S
C412 C413 1.349 . S
C412 C414 1.327 . S
C412 H437 0.950 . S
C413 C412 1.349 . S
C413 C429 1.349 . S
C414 C412 1.327 . S
C414 C433 1.429 . S
C414 H438 0.950 . S
C415 C432 1.574 1_565 S
C415 C434 1.368 . S
C415 H439 0.949 . S
H416 C420 0.949 . S
C417 C418 1.349 . S
C417 C419 1.327 . S
C417 H440 0.950 . S
C418 C417 1.349 . S
C418 C430 1.349 . S
C419 C417 1.327 . S
C419 C435 1.429 . S
C419 H441 0.950 . S
C420 H416 0.949 . S
C420 C428 1.574 . S
C420 C436 1.368 1_565 S
H421 C429 0.950 . S
H422 C427 0.950 . S
H423 C428 0.949 . S
H424 C430 0.950 . S
H425 C431 0.950 . S
H426 C432 0.949 . S
C427 H422 0.950 . S
C427 C429 1.327 . S
C427 C433 1.429 . S
C428 C420 1.574 . S
C428 H423 0.949 . S
C428 C434 1.368 . S
C429 C413 1.349 . S
C429 H421 0.950 . S
C429 C427 1.327 . S
C430 C418 1.349 . S
C430 H424 0.950 . S
C430 C431 1.327 . S
C431 H425 0.950 . S
C431 C430 1.327 . S
C431 C435 1.429 . S
C432 C415 1.574 1_545 S
C432 H426 0.949 . S
C432 C436 1.368 . S
C433 C414 1.429 . S
C433 C427 1.429 . S
C433 C434 1.523 . S
C434 C415 1.368 . S
C434 C428 1.368 . S
C434 C433 1.523 . S
C435 C419 1.429 . S
C435 C431 1.429 . S
C435 C436 1.523 . S
C436 C420 1.368 1_545 S
C436 C432 1.368 . S
C436 C435 1.523 . S
H437 C412 0.950 . S
H438 C414 0.950 . S
H439 C415 0.949 . S
H440 C417 0.950 . S
H441 C419 0.950 . S
C442 C443 1.349 . S
C442 C444 1.327 . S
C442 H467 0.950 . S
C443 C442 1.349 . S
C443 C459 1.349 . S
C444 C442 1.327 . S
C444 C463 1.429 . S
C444 H468 0.950 . S
C445 C462 1.574 . S
C445 C464 1.368 1_545 S
C445 H469 0.949 . S
H446 C450 0.949 . S
C447 C448 1.349 . S
C447 C449 1.327 . S
C447 H470 0.950 . S
C448 C447 1.349 . S
C448 C460 1.349 . S
C449 C447 1.327 . S
C449 C465 1.429 . S
C449 H471 0.950 . S
C450 H446 0.949 . S
C450 C458 1.574 . S
C450 C466 1.368 1_565 S
H451 C459 0.950 . S
H452 C457 0.950 . S
H453 C458 0.949 . S
H454 C460 0.950 . S
H455 C461 0.953 . S
H456 C462 0.949 . S
C457 H452 0.950 . S
C457 C459 1.327 . S
C457 C463 1.429 . S
C458 C450 1.574 . S
C458 H453 0.949 . S
C458 C464 1.368 1_455 S
C459 C443 1.349 . S
C459 H451 0.950 . S
C459 C457 1.327 . S
C460 C448 1.349 . S
C460 H454 0.950 . S
C460 C461 1.327 . S
C461 H455 0.953 . S
C461 C460 1.327 . S
C461 C465 1.429 . S
C462 C445 1.574 . S
C462 H456 0.949 . S
C462 C466 1.368 1_655 S
C463 C444 1.429 . S
C463 C457 1.429 . S
C463 C464 1.523 . S
C464 C445 1.368 1_565 S
C464 C458 1.368 1_655 S
C464 C463 1.523 . S
C465 C449 1.429 . S
C465 C461 1.429 . S
C465 C466 1.523 . S
C466 C450 1.368 1_545 S
C466 C462 1.368 1_455 S
C466 C465 1.523 . S
H467 C442 0.950 . S
H468 C444 0.950 . S
H469 C445 0.949 . S
H470 C447 0.950 . S
H471 C449 0.950 . S
C472 C473 1.349 . S
C472 C474 1.327 . S
C472 H497 0.950 . S
C473 C472 1.349 . S
C473 C489 1.349 . S
C474 C472 1.327 . S
C474 C493 1.429 . S
C474 H498 0.950 . S
C475 C492 1.574 . S
C475 C494 1.368 1_455 S
C475 H499 0.949 1_455 S
H476 C480 0.949 . S
C477 C478 1.349 . S
C477 C479 1.327 . S
C477 H500 0.950 . S
C478 C477 1.349 . S
C478 C490 1.349 . S
C479 C477 1.327 . S
C479 C495 1.429 . S
C479 H501 0.950 . S
C480 H476 0.949 . S
C480 C488 1.570 1_455 S
C480 C496 1.368 . S
H481 C489 0.950 . S
H482 C487 0.950 . S
H483 C488 0.952 . S
H484 C490 0.950 . S
H485 C491 0.950 . S
H486 C492 0.949 . S
C487 H482 0.950 . S
C487 C489 1.327 . S
C487 C493 1.429 . S
C488 C480 1.570 1_655 S
C488 H483 0.952 . S
C488 C494 1.369 . S
C489 C473 1.349 . S
C489 H481 0.950 . S
C489 C487 1.327 . S
C490 C478 1.349 . S
C490 H484 0.950 . S
C490 C491 1.327 . S
C491 H485 0.950 . S
C491 C490 1.327 . S
C491 C495 1.429 . S
C492 C475 1.574 . S
C492 H486 0.949 . S
C492 C496 1.368 . S
C493 C474 1.429 . S
C493 C487 1.429 . S
C493 C494 1.523 . S
C494 C475 1.368 1_655 S
C494 C488 1.369 . S
C494 C493 1.523 . S
C495 C479 1.429 . S
C495 C491 1.429 . S
C495 C496 1.523 . S
C496 C480 1.368 . S
C496 C492 1.368 . S
C496 C495 1.523 . S
H497 C472 0.950 . S
H498 C474 0.950 . S
H499 C475 0.949 1_655 S
H500 C477 0.950 . S
H501 C479 0.950 . S
C502 C503 1.349 . S
C502 C504 1.327 . S
C502 H527 0.950 . S
C503 C502 1.349 . S
C503 C519 1.349 . S
C504 C502 1.327 . S
C504 C523 1.429 . S
C504 H528 0.950 . S
C505 C522 1.574 . S
C505 C524 1.368 . S
C505 H529 0.949 . S
H506 C510 0.949 . S
C507 C508 1.349 . S
C507 C509 1.327 . S
C507 H530 0.950 . S
C508 C507 1.349 . S
C508 C520 1.349 . S
C509 C507 1.327 . S
C509 C525 1.429 . S
C509 H531 0.950 . S
C510 H506 0.949 . S
C510 C518 1.574 . S
C510 C526 1.368 . S
H511 C519 0.950 . S
H512 C517 0.950 . S
H513 C518 0.949 . S
H514 C520 0.950 . S
H515 C521 0.950 . S
H516 C522 0.949 . S
C517 H512 0.950 . S
C517 C519 1.327 . S
C517 C523 1.429 . S
C518 C510 1.574 . S
C518 H513 0.949 . S
C518 C524 1.368 . S
C519 C503 1.349 . S
C519 H511 0.950 . S
C519 C517 1.327 . S
C520 C508 1.349 . S
C520 H514 0.950 . S
C520 C521 1.327 . S
C521 H515 0.950 . S
C521 C520 1.327 . S
C521 C525 1.429 . S
C522 C505 1.574 . S
C522 H516 0.949 . S
C522 C526 1.368 . S
C523 C504 1.429 . S
C523 C517 1.429 . S
C523 C524 1.523 . S
C524 C505 1.368 . S
C524 C518 1.368 . S
C524 C523 1.523 . S
C525 C509 1.429 . S
C525 C521 1.429 . S
C525 C526 1.523 . S
C526 C510 1.368 . S
C526 C522 1.368 . S
C526 C525 1.523 . S
H527 C502 0.950 . S
H528 C504 0.950 . S
H529 C505 0.949 . S
H530 C507 0.950 . S
H531 C509 0.950 . S
C532 C533 1.349 . S
C532 C534 1.327 . S
C532 H557 0.950 . S
C533 C532 1.349 . S
C533 C549 1.349 . S
C534 C532 1.327 . S
C534 C553 1.429 . S
C534 H558 0.950 . S
C535 C552 1.574 . S
C535 C554 1.368 1_556 S
C535 H559 0.949 . S
H536 C540 0.949 . S
C537 C538 1.349 . S
C537 C539 1.327 . S
C537 H560 0.950 . S
C538 C537 1.349 . S
C538 C550 1.349 . S
C539 C537 1.327 . S
C539 C555 1.429 . S
C539 H561 0.950 . S
C540 H536 0.949 . S
C540 C548 1.574 . S
C540 C556 1.368 1_554 S
H541 C549 0.950 . S
H542 C547 0.950 . S
H543 C548 0.949 . S
H544 C550 0.950 . S
H545 C551 0.950 . S
H546 C552 0.949 . S
C547 H542 0.950 . S
C547 C549 1.327 . S
C547 C553 1.429 . S
C548 C540 1.574 . S
C548 H543 0.949 . S
C548 C554 1.368 . S
C549 C533 1.349 . S
C549 H541 0.950 . S
C549 C547 1.327 . S
C550 C538 1.349 . S
C550 H544 0.950 . S
C550 C551 1.327 . S
C551 H545 0.950 . S
C551 C550 1.327 . S
C551 C555 1.429 . S
C552 C535 1.574 . S
C552 H546 0.949 . S
C552 C556 1.368 . S
C553 C534 1.429 . S
C553 C547 1.429 . S
C553 C554 1.523 . S
C554 C535 1.368 1_554 S
C554 C548 1.368 . S
C554 C553 1.523 . S
C555 C539 1.429 . S
C555 C551 1.429 . S
C555 C556 1.523 . S
C556 C540 1.368 1_556 S
C556 C552 1.368 . S
C556 C555 1.523 . S
H557 C532 0.950 . S
H558 C534 0.950 . S
H559 C535 0.949 . S
H560 C537 0.950 . S
H561 C539 0.950 . S
C562 C563 1.349 . S
C562 C564 1.327 . S
C562 H587 0.950 . S
C563 C562 1.349 . S
C563 C579 1.349 . S
C564 C562 1.327 . S
C564 C583 1.429 . S
C564 H588 0.950 . S
C565 C582 1.574 . S
C565 C584 1.368 . S
C565 H589 0.949 . S
H566 C570 0.949 . S
C567 C568 1.349 . S
C567 C569 1.327 . S
C567 H590 0.950 . S
C568 C567 1.349 . S
C568 C580 1.349 . S
C569 C567 1.327 . S
C569 C585 1.429 . S
C569 H591 0.950 . S
C570 H566 0.949 . S
C570 C578 1.574 . S
C570 C586 1.368 . S
H571 C579 0.950 . S
H572 C577 0.950 . S
H573 C578 0.949 . S
H574 C580 0.950 . S
H575 C581 0.950 . S
H576 C582 0.949 . S
C577 H572 0.950 . S
C577 C579 1.327 . S
C577 C583 1.429 . S
C578 C570 1.574 . S
C578 H573 0.949 . S
C578 C584 1.368 . S
C579 C563 1.349 . S
C579 H571 0.950 . S
C579 C577 1.327 . S
C580 C568 1.349 . S
C580 H574 0.950 . S
C580 C581 1.327 . S
C581 H575 0.950 . S
C581 C580 1.327 . S
C581 C585 1.429 . S
C582 C565 1.574 . S
C582 H576 0.949 . S
C582 C586 1.368 . S
C583 C564 1.429 . S
C583 C577 1.429 . S
C583 C584 1.523 . S
C584 C565 1.368 . S
C584 C578 1.368 . S
C584 C583 1.523 . S
C585 C569 1.429 . S
C585 C581 1.429 . S
C585 C586 1.523 . S
C586 C570 1.368 . S
C586 C582 1.368 . S
C586 C585 1.523 . S
H587 C562 0.950 . S
H588 C564 0.950 . S
H589 C565 0.949 . S
H590 C567 0.950 . S
H591 C569 0.950 . S
C113 C75 1.555 . S
C118 C5 1.555 . S
C143 C109 1.533 . S
C148 C14 1.535 . S
C173 C37 1.532 . S
C178 C93 1.532 . S
C203 C53 1.533 . S
C208 C56 1.535 . S
C233 C84 1.535 . S
C238 C11 1.533 . S
C263 C23 1.532 . S
C268 C65 1.532 . S
C293 C81 1.533 . S
C298 C28 1.535 . S
C323 C47 1.555 . S
C328 C103 1.555 . S
C353 C67 1.533 . S
C358 C70 1.535 . S
C383 C19 1.556 . S
C388 C33 1.556 . S
C413 C42 1.535 . S
C418 C39 1.533 . S
C443 C51 1.532 . S
C448 C9 1.532 . S
C473 C25 1.533 . S
C478 C0 1.535 . S
C503 C98 1.535 . S
C508 C95 1.533 . S
C533 C61 1.556 . S
C538 C89 1.556 . S
C563 C79 1.532 . S
C568 C107 1.532 . S
