# Generated by pormake.
# Topology fnw, (5)-cn, num edge types: 1
# Building blocks:
#     Node 0, Type 0, BuildingBlock: XOMCOT_clean_sbu_0, # of connection points: 5
#     Node 1, Type 0, BuildingBlock: XOMCOT_clean_sbu_0, # of connection points: 5
#     Node 2, Type 0, BuildingBlock: XOMCOT_clean_sbu_0, # of connection points: 5
#     Node 3, Type 0, BuildingBlock: XOMCOT_clean_sbu_0, # of connection points: 5
#     Node 4, Type 0, BuildingBlock: XOMCOT_clean_sbu_0, # of connection points: 5
#     Node 5, Type 0, BuildingBlock: XOMCOT_clean_sbu_0, # of connection points: 5
#     Node 6, Type 0, BuildingBlock: XOMCOT_clean_sbu_0, # of connection points: 5
#     Node 7, Type 0, BuildingBlock: XOMCOT_clean_sbu_0, # of connection points: 5
#     Node 8, Type 0, BuildingBlock: XOMCOT_clean_sbu_0, # of connection points: 5
#     Node 9, Type 0, BuildingBlock: XOMCOT_clean_sbu_0, # of connection points: 5
#     Node 10, Type 0, BuildingBlock: XOMCOT_clean_sbu_0, # of connection points: 5
#     Node 11, Type 0, BuildingBlock: XOMCOT_clean_sbu_0, # of connection points: 5
#     Edge 12, Type (0, 0), BuildingBlock: CIFDUS_clean_linker_0, # of connection points: 2
#     Edge 13, Type (0, 0), BuildingBlock: CIFDUS_clean_linker_0, # of connection points: 2
#     Edge 14, Type (0, 0), BuildingBlock: CIFDUS_clean_linker_0, # of connection points: 2
#     Edge 15, Type (0, 0), BuildingBlock: CIFDUS_clean_linker_0, # of connection points: 2
#     Edge 16, Type (0, 0), BuildingBlock: CIFDUS_clean_linker_0, # of connection points: 2
#     Edge 17, Type (0, 0), BuildingBlock: CIFDUS_clean_linker_0, # of connection points: 2
#     Edge 18, Type (0, 0), BuildingBlock: CIFDUS_clean_linker_0, # of connection points: 2
#     Edge 19, Type (0, 0), BuildingBlock: CIFDUS_clean_linker_0, # of connection points: 2
#     Edge 20, Type (0, 0), BuildingBlock: CIFDUS_clean_linker_0, # of connection points: 2
#     Edge 21, Type (0, 0), BuildingBlock: CIFDUS_clean_linker_0, # of connection points: 2
#     Edge 22, Type (0, 0), BuildingBlock: CIFDUS_clean_linker_0, # of connection points: 2
#     Edge 23, Type (0, 0), BuildingBlock: CIFDUS_clean_linker_0, # of connection points: 2
#     Edge 24, Type (0, 0), BuildingBlock: CIFDUS_clean_linker_0, # of connection points: 2
#     Edge 25, Type (0, 0), BuildingBlock: CIFDUS_clean_linker_0, # of connection points: 2
#     Edge 26, Type (0, 0), BuildingBlock: CIFDUS_clean_linker_0, # of connection points: 2
#     Edge 27, Type (0, 0), BuildingBlock: CIFDUS_clean_linker_0, # of connection points: 2
#     Edge 28, Type (0, 0), BuildingBlock: CIFDUS_clean_linker_0, # of connection points: 2
#     Edge 29, Type (0, 0), BuildingBlock: CIFDUS_clean_linker_0, # of connection points: 2
#     Edge 30, Type (0, 0), BuildingBlock: CIFDUS_clean_linker_0, # of connection points: 2
#     Edge 31, Type (0, 0), BuildingBlock: CIFDUS_clean_linker_0, # of connection points: 2
#     Edge 32, Type (0, 0), BuildingBlock: CIFDUS_clean_linker_0, # of connection points: 2
#     Edge 33, Type (0, 0), BuildingBlock: CIFDUS_clean_linker_0, # of connection points: 2
#     Edge 34, Type (0, 0), BuildingBlock: CIFDUS_clean_linker_0, # of connection points: 2
#     Edge 35, Type (0, 0), BuildingBlock: CIFDUS_clean_linker_0, # of connection points: 2
#     Edge 36, Type (0, 0), BuildingBlock: CIFDUS_clean_linker_0, # of connection points: 2
#     Edge 37, Type (0, 0), BuildingBlock: CIFDUS_clean_linker_0, # of connection points: 2
#     Edge 38, Type (0, 0), BuildingBlock: CIFDUS_clean_linker_0, # of connection points: 2
#     Edge 39, Type (0, 0), BuildingBlock: CIFDUS_clean_linker_0, # of connection points: 2
#     Edge 40, Type (0, 0), BuildingBlock: CIFDUS_clean_linker_0, # of connection points: 2
#     Edge 41, Type (0, 0), BuildingBlock: CIFDUS_clean_linker_0, # of connection points: 2
# Relax obj value: 0.265
# Max RMSD: 0.156
# Mean RMSD: 0.156
data_MOF--net-fnw--node1-XOMCOT_clean_sbu_0--edge1-CIFDUS_clean_linker_0
_symmetry_space_group_name_H-M    P1
_symmetry_Int_Tables_number       1
_symmetry_cell_setting            triclinic
loop_
_symmetry_equiv_pos_as_xyz
'x, y, z'
_cell_length_a     45.918397
_cell_length_b     45.925691
_cell_length_c     28.096465
_cell_angle_alpha  90.044138
_cell_angle_beta   89.975343
_cell_angle_gamma 119.93376
loop_
_atom_site_label
_atom_site_type_symbol
_atom_site_fract_x
_atom_site_fract_y
_atom_site_fract_z
_atom_type_partial_charge
Co0 Co 0.27496 0.46514 0.2999 0.0
C1 C 0.30654 0.42205 0.28962 0.0
C2 C 0.33503 0.4655 0.33371 0.0
C3 C 0.35097 0.44693 0.33317 0.0
N4 N 0.30717 0.44993 0.30665 0.0
N5 N 0.33313 0.4197 0.30548 0.0
H6 H 0.28694 0.40373 0.26683 0.0
H7 H 0.34301 0.48868 0.35296 0.0
C8 C 0.31821 0.53177 0.24887 0.0
O9 O 0.29492 0.52505 0.21668 0.0
N10 N 0.24248 0.48086 0.29504 0.0
C11 C 0.20861 0.46152 0.29639 0.0
C12 C 0.19439 0.48165 0.29411 0.0
C13 C 0.24811 0.51276 0.29454 0.0
N14 N 0.21929 0.51383 0.29242 0.0
C15 C 0.23476 0.42813 0.21894 0.0
C16 C 0.28587 0.45793 0.15285 0.0
C17 C 0.25253 0.43994 0.13673 0.0
C18 C 0.22697 0.42323 0.17042 0.0
C19 C 0.29247 0.46187 0.20171 0.0
N20 N 0.26672 0.44981 0.23383 0.0
H21 H 0.2148 0.41548 0.24437 0.0
H22 H 0.31822 0.47652 0.21358 0.0
H23 H 0.19476 0.43453 0.30008 0.0
H24 H 0.27252 0.53497 0.29763 0.0
O25 O 0.24127 0.42495 0.33265 0.0
O26 O 0.27757 0.47315 0.3671 0.0
O27 O 0.31342 0.51074 0.28192 0.0
C28 C 0.25298 0.44255 0.37158 0.0
H29 H 0.37422 0.4532 0.35118 0.0
H30 H 0.16778 0.47326 0.29338 0.0
H31 H 0.30655 0.47004 0.12794 0.0
H32 H 0.20097 0.40817 0.15957 0.0
Co33 Co 0.81287 0.27514 0.80126 0.0
C34 C 0.88701 0.30205 0.79747 0.0
C35 C 0.87269 0.32669 0.84976 0.0
C36 C 0.90709 0.34119 0.8503 0.0
N37 N 0.86007 0.3021 0.81682 0.0
N38 N 0.9161 0.32579 0.81736 0.0
H39 H 0.88551 0.28533 0.76924 0.0
H40 H 0.85793 0.33413 0.87119 0.0
C41 C 0.79729 0.32535 0.75294 0.0
O42 O 0.7768 0.30312 0.72194 0.0
N43 N 0.7651 0.24791 0.7869 0.0
C44 C 0.74869 0.21553 0.77248 0.0
C45 C 0.71512 0.20502 0.7675 0.0
C46 C 0.74073 0.25595 0.79284 0.0
N47 N 0.71023 0.2306 0.77972 0.0
C48 C 0.82014 0.23561 0.72876 0.0
C49 C 0.83043 0.27852 0.6539 0.0
C50 C 0.82049 0.24482 0.64418 0.0
C51 C 0.81772 0.224 0.68231 0.0
C52 C 0.83285 0.28912 0.70117 0.0
N53 N 0.82404 0.26659 0.73759 0.0
H54 H 0.81633 0.21855 0.75752 0.0
H55 H 0.84044 0.31502 0.70791 0.0
H56 H 0.75988 0.20005 0.76665 0.0
H57 H 0.74512 0.27989 0.8063 0.0
O58 O 0.81048 0.23711 0.83494 0.0
O59 O 0.80133 0.27613 0.86668 0.0
O60 O 0.81377 0.31801 0.7825 0.0
C61 C 0.80242 0.24863 0.8719 0.0
H62 H 0.92425 0.36241 0.8719 0.0
H63 H 0.69591 0.18069 0.75471 0.0
H64 H 0.83425 0.29601 0.62553 0.0
H65 H 0.81196 0.19836 0.67644 0.0
Co66 Co 0.54108 0.80374 0.29677 0.0
C67 C 0.58364 0.87692 0.2759 0.0
C68 C 0.54215 0.86576 0.32231 0.0
C69 C 0.56045 0.89996 0.31593 0.0
N70 N 0.55668 0.85134 0.29736 0.0
N71 N 0.58635 0.90685 0.28668 0.0
H72 H 0.60086 0.87385 0.25296 0.0
H73 H 0.51962 0.85225 0.34354 0.0
C74 C 0.47707 0.77933 0.23869 0.0
O75 O 0.48578 0.76302 0.20875 0.0
N76 N 0.52472 0.7554 0.29799 0.0
C77 C 0.54314 0.74026 0.30541 0.0
C78 C 0.52227 0.706 0.30564 0.0
C79 C 0.49258 0.72979 0.29633 0.0
N80 N 0.49053 0.69951 0.29945 0.0
C81 C 0.58206 0.79717 0.22598 0.0
C82 C 0.55842 0.81628 0.14871 0.0
C83 C 0.57821 0.8013 0.14093 0.0
C84 C 0.59149 0.79337 0.18037 0.0
C85 C 0.54956 0.81958 0.19528 0.0
N86 N 0.559 0.80722 0.2328 0.0
H87 H 0.59281 0.79122 0.25578 0.0
H88 H 0.5338 0.83057 0.20096 0.0
H89 H 0.56987 0.75292 0.31177 0.0
H90 H 0.47077 0.73283 0.29515 0.0
O91 O 0.58022 0.81174 0.33325 0.0
O92 O 0.53142 0.80193 0.36345 0.0
O93 O 0.49613 0.7959 0.27342 0.0
C94 C 0.56195 0.80811 0.37064 0.0
H95 H 0.55461 0.91832 0.33037 0.0
H96 H 0.52988 0.68732 0.30994 0.0
H97 H 0.54841 0.82369 0.11916 0.0
H98 H 0.60829 0.78338 0.17596 0.0
Co99 Co 0.72516 0.53963 0.80268 0.0
C100 C 0.6967 0.58512 0.78854 0.0
C101 C 0.67007 0.54662 0.84077 0.0
C102 C 0.65536 0.56624 0.838 0.0
N103 N 0.69611 0.55854 0.81015 0.0
N104 N 0.67201 0.59029 0.80518 0.0
H105 H 0.71471 0.60042 0.76161 0.0
H106 H 0.66218 0.52495 0.86346 0.0
C107 C 0.67767 0.47305 0.75324 0.0
O108 O 0.70075 0.47537 0.72334 0.0
N109 N 0.75418 0.52004 0.79668 0.0
C110 C 0.78772 0.53653 0.78933 0.0
C111 C 0.79852 0.51359 0.78531 0.0
C112 C 0.74561 0.48735 0.8 0.0
N113 N 0.77189 0.4826 0.7913 0.0
C114 C 0.76761 0.5816 0.72762 0.0
C115 C 0.72311 0.55024 0.65379 0.0
C116 C 0.75715 0.57202 0.64309 0.0
C117 C 0.77902 0.5893 0.68079 0.0
C118 C 0.71278 0.54347 0.70137 0.0
N119 N 0.73574 0.55655 0.73743 0.0
H120 H 0.78495 0.59499 0.75604 0.0
H121 H 0.68653 0.52683 0.70887 0.0
H122 H 0.80367 0.56339 0.78717 0.0
H123 H 0.72065 0.46725 0.80854 0.0
O124 O 0.76073 0.57764 0.83682 0.0
O125 O 0.7214 0.53024 0.86971 0.0
O126 O 0.68409 0.49626 0.78347 0.0
C127 C 0.74746 0.55988 0.87505 0.0
H128 H 0.63352 0.56263 0.85767 0.0
H129 H 0.82384 0.51927 0.77695 0.0
H130 H 0.70488 0.5372 0.62592 0.0
H131 H 0.80506 0.60789 0.67428 0.0
Co132 Co 0.19908 0.72892 0.27675 0.0
C133 C 0.12508 0.69975 0.26412 0.0
C134 C 0.13719 0.6777 0.32263 0.0
C135 C 0.10277 0.66262 0.31936 0.0
N136 N 0.15123 0.7011 0.28815 0.0
N137 N 0.09525 0.67641 0.28246 0.0
H138 H 0.12753 0.71511 0.23357 0.0
H139 H 0.15098 0.67143 0.34786 0.0
C140 C 0.22057 0.6834 0.23038 0.0
O141 O 0.2406 0.70777 0.20156 0.0
N142 N 0.24739 0.75667 0.26667 0.0
C143 C 0.26425 0.78535 0.24125 0.0
C144 C 0.29767 0.79463 0.23966 0.0
C145 C 0.27135 0.75004 0.28232 0.0
N146 N 0.30198 0.77237 0.26526 0.0
C147 C 0.19205 0.76835 0.20374 0.0
C148 C 0.18344 0.72651 0.12801 0.0
C149 C 0.19127 0.75966 0.11905 0.0
C150 C 0.19355 0.77996 0.15755 0.0
C151 C 0.18234 0.71597 0.1751 0.0
N152 N 0.19008 0.7381 0.21197 0.0
H153 H 0.19557 0.7852 0.2327 0.0
H154 H 0.17629 0.69042 0.18135 0.0
H155 H 0.25364 0.79893 0.22437 0.0
H156 H 0.26616 0.72818 0.30323 0.0
O157 O 0.19934 0.76615 0.30982 0.0
O158 O 0.20744 0.72708 0.34355 0.0
O159 O 0.2007 0.68719 0.2583 0.0
C160 C 0.20531 0.75408 0.34803 0.0
H161 H 0.08465 0.64203 0.34103 0.0
H162 H 0.31732 0.81587 0.22065 0.0
H163 H 0.18025 0.70959 0.09903 0.0
H164 H 0.19839 0.80534 0.15201 0.0
Co165 Co 0.46098 0.18771 0.80134 0.0
C166 C 0.41493 0.11338 0.79126 0.0
C167 C 0.45375 0.12661 0.84341 0.0
C168 C 0.43456 0.09224 0.84164 0.0
N169 N 0.44146 0.13994 0.81209 0.0
N170 N 0.41024 0.08388 0.80883 0.0
H171 H 0.39961 0.11548 0.76373 0.0
H172 H 0.47568 0.14096 0.86546 0.0
C173 C 0.52672 0.20445 0.75192 0.0
O174 O 0.52362 0.22392 0.7205 0.0
N175 N 0.48119 0.23613 0.79219 0.0
C176 C 0.46499 0.25343 0.78414 0.0
C177 C 0.48817 0.28695 0.77912 0.0
C178 C 0.51399 0.25999 0.79502 0.0
N179 N 0.51904 0.29099 0.78533 0.0
C180 C 0.42055 0.18769 0.72277 0.0
C181 C 0.44911 0.16691 0.65392 0.0
C182 C 0.42863 0.17997 0.63938 0.0
C183 C 0.41301 0.1889 0.67483 0.0
C184 C 0.45598 0.16622 0.70235 0.0
N185 N 0.44417 0.17943 0.73571 0.0
H186 H 0.40784 0.19411 0.74942 0.0
H187 H 0.4716 0.15588 0.71265 0.0
H188 H 0.43815 0.24291 0.78276 0.0
H189 H 0.53392 0.25501 0.80435 0.0
O190 O 0.42346 0.18737 0.83451 0.0
O191 O 0.47056 0.19539 0.86827 0.0
O192 O 0.50411 0.18881 0.78339 0.0
C193 C 0.44134 0.19297 0.87304 0.0
H194 H 0.43899 0.07468 0.86162 0.0
H195 H 0.48268 0.30667 0.77045 0.0
H196 H 0.46093 0.15858 0.62814 0.0
H197 H 0.39543 0.19723 0.66563 0.0
Co198 Co 0.54366 0.74224 0.70882 0.0
C199 C 0.58528 0.70914 0.70724 0.0
C200 C 0.54687 0.6897 0.65367 0.0
C201 C 0.56418 0.67242 0.65128 0.0
N202 N 0.56013 0.71275 0.6887 0.0
N203 N 0.58819 0.68457 0.68515 0.0
H204 H 0.60089 0.72369 0.73668 0.0
H205 H 0.52544 0.68509 0.6322 0.0
C206 C 0.47369 0.69488 0.74875 0.0
O207 O 0.47281 0.71852 0.77391 0.0
N208 N 0.52754 0.77249 0.72796 0.0
C209 C 0.54517 0.80151 0.75242 0.0
C210 C 0.52779 0.81859 0.75253 0.0
C211 C 0.49997 0.77304 0.71216 0.0
N212 N 0.49939 0.80067 0.72741 0.0
C213 C 0.59423 0.77317 0.78097 0.0
C214 C 0.55548 0.73383 0.85555 0.0
C215 C 0.58464 0.76434 0.8656 0.0
C216 C 0.60518 0.7831 0.82762 0.0
C217 C 0.54538 0.72501 0.8084 0.0
N218 N 0.56314 0.74623 0.77203 0.0
H219 H 0.60946 0.78907 0.75227 0.0
H220 H 0.52256 0.70178 0.8021 0.0
H221 H 0.56982 0.81103 0.76738 0.0
H222 H 0.48115 0.75404 0.68918 0.0
O223 O 0.58096 0.77987 0.67654 0.0
O224 O 0.53124 0.74487 0.64465 0.0
O225 O 0.49999 0.70064 0.72565 0.0
C226 C 0.56088 0.77099 0.64002 0.0
H227 H 0.5585 0.65146 0.62796 0.0
H228 H 0.53559 0.84255 0.76947 0.0
H229 H 0.53927 0.71799 0.8838 0.0
H230 H 0.62854 0.80624 0.83388 0.0
Co231 Co 0.8001 0.53504 0.20754 0.0
C232 C 0.87345 0.57738 0.22936 0.0
C233 C 0.86206 0.53626 0.18203 0.0
C234 C 0.89622 0.55427 0.1885 0.0
N235 N 0.84777 0.55077 0.20733 0.0
N236 N 0.90333 0.57998 0.21826 0.0
H237 H 0.87047 0.59447 0.2527 0.0
H238 H 0.84847 0.51395 0.16039 0.0
C239 C 0.77445 0.46877 0.2612 0.0
O240 O 0.75496 0.4745 0.28929 0.0
N241 N 0.75179 0.51855 0.20589 0.0
C242 C 0.73652 0.53713 0.20211 0.0
C243 C 0.70227 0.51613 0.20087 0.0
C244 C 0.72634 0.48636 0.20414 0.0
N245 N 0.69598 0.48425 0.20277 0.0
C246 C 0.79426 0.57573 0.28042 0.0
C247 C 0.80893 0.54719 0.35648 0.0
C248 C 0.79542 0.56817 0.36552 0.0
C249 C 0.78972 0.58383 0.32669 0.0
C250 C 0.8132 0.53991 0.30946 0.0
N251 N 0.80305 0.55185 0.27226 0.0
H252 H 0.78998 0.58821 0.25114 0.0
H253 H 0.82349 0.52363 0.30314 0.0
H254 H 0.7491 0.56413 0.1992 0.0
H255 H 0.7296 0.46469 0.20234 0.0
O256 O 0.80786 0.5743 0.17105 0.0
O257 O 0.79869 0.52571 0.14081 0.0
O258 O 0.79279 0.49023 0.22982 0.0
C259 C 0.80471 0.55611 0.13366 0.0
H260 H 0.91445 0.54843 0.17354 0.0
H261 H 0.68344 0.52372 0.19938 0.0
H262 H 0.81468 0.53521 0.38524 0.0
H263 H 0.78113 0.6017 0.33192 0.0
Co264 Co 0.2685 0.80475 0.68831 0.0
C265 C 0.29809 0.87918 0.70063 0.0
C266 C 0.31491 0.86644 0.6368 0.0
C267 C 0.32931 0.90076 0.63893 0.0
N268 N 0.29528 0.85273 0.67545 0.0
N269 N 0.31882 0.90881 0.67905 0.0
H270 H 0.28556 0.87704 0.73408 0.0
H271 H 0.31919 0.85258 0.60922 0.0
C272 C 0.34 0.82465 0.71564 0.0
O273 O 0.34817 0.85618 0.72139 0.0
N274 N 0.24125 0.75712 0.70063 0.0
C275 C 0.20802 0.74044 0.71004 0.0
C276 C 0.19829 0.70761 0.72089 0.0
C277 C 0.25127 0.73425 0.70581 0.0
N278 N 0.22557 0.70388 0.71853 0.0
C279 C 0.23225 0.81599 0.76204 0.0
C280 C 0.26399 0.80483 0.83749 0.0
C281 C 0.23461 0.806 0.84603 0.0
C282 C 0.21901 0.81238 0.80792 0.0
C283 C 0.27581 0.80757 0.7911 0.0
N284 N 0.25968 0.81247 0.7537 0.0
H285 H 0.21919 0.8197 0.73285 0.0
H286 H 0.29655 0.80333 0.78592 0.0
H287 H 0.19209 0.75156 0.71028 0.0
H288 H 0.27671 0.73953 0.70041 0.0
O289 O 0.23062 0.80384 0.65575 0.0
O290 O 0.26959 0.79556 0.62195 0.0
O291 O 0.30985 0.80226 0.70577 0.0
C292 C 0.24249 0.79745 0.61754 0.0
H293 H 0.34713 0.9185 0.61368 0.0
H294 H 0.17334 0.68831 0.73137 0.0
H295 H 0.27645 0.79944 0.86605 0.0
H296 H 0.19621 0.81347 0.81331 0.0
Co297 Co 0.46306 0.26472 0.21281 0.0
C298 C 0.41853 0.2952 0.21856 0.0
C299 C 0.45445 0.3152 0.16163 0.0
C300 C 0.43547 0.3307 0.16081 0.0
N301 N 0.44376 0.29275 0.19752 0.0
N302 N 0.413 0.31824 0.1966 0.0
H303 H 0.40456 0.28069 0.24919 0.0
H304 H 0.47508 0.3204 0.138 0.0
C305 C 0.52975 0.31169 0.25848 0.0
O306 O 0.52488 0.28846 0.28984 0.0
N307 N 0.48326 0.237 0.22641 0.0
C308 C 0.47093 0.20836 0.25208 0.0
C309 C 0.49514 0.1992 0.25572 0.0
C310 C 0.51417 0.24357 0.21247 0.0
N311 N 0.52223 0.22143 0.23099 0.0
C312 C 0.41943 0.22898 0.29152 0.0
C313 C 0.45264 0.2781 0.35941 0.0
C314 C 0.42933 0.24547 0.37458 0.0
C315 C 0.41133 0.22124 0.33962 0.0
C316 C 0.46 0.28461 0.3109 0.0
N317 N 0.44592 0.25923 0.27817 0.0
H318 H 0.40583 0.20972 0.26525 0.0
H319 H 0.47781 0.30992 0.30019 0.0
H320 H 0.44626 0.19454 0.26741 0.0
H321 H 0.53118 0.26524 0.19149 0.0
O322 O 0.42549 0.22634 0.18182 0.0
O323 O 0.47279 0.26347 0.14643 0.0
O324 O 0.50676 0.30673 0.22853 0.0
C325 C 0.44351 0.23668 0.14314 0.0
H326 H 0.43876 0.35055 0.13681 0.0
H327 H 0.49317 0.17801 0.27534 0.0
H328 H 0.46633 0.29813 0.38479 0.0
H329 H 0.39182 0.19618 0.34935 0.0
Co330 Co 0.1968 0.45993 0.70937 0.0
C331 C 0.12255 0.41219 0.71684 0.0
C332 C 0.13626 0.44448 0.65582 0.0
C333 C 0.10194 0.42447 0.65644 0.0
N334 N 0.14934 0.43673 0.69342 0.0
N335 N 0.09329 0.40429 0.69484 0.0
H336 H 0.12416 0.40065 0.7495 0.0
H337 H 0.15056 0.46414 0.63033 0.0
C338 C 0.20858 0.52484 0.75512 0.0
O339 O 0.22942 0.52405 0.78645 0.0
N340 N 0.2447 0.48388 0.72363 0.0
C341 C 0.26334 0.47164 0.74286 0.0
C342 C 0.29614 0.49722 0.74655 0.0
C343 C 0.26694 0.51636 0.71363 0.0
N344 N 0.29828 0.52544 0.7287 0.0
C345 C 0.19253 0.41666 0.78619 0.0
C346 C 0.1754 0.4474 0.85653 0.0
C347 C 0.18617 0.42489 0.86964 0.0
C348 C 0.19292 0.40796 0.83375 0.0
C349 C 0.17464 0.45476 0.80839 0.0
N350 N 0.18646 0.44201 0.77433 0.0
H351 H 0.19913 0.40429 0.75914 0.0
H352 H 0.16527 0.47133 0.7991 0.0
H353 H 0.25428 0.44597 0.75328 0.0
H354 H 0.26021 0.53321 0.6963 0.0
O355 O 0.20199 0.4249 0.6782 0.0
O356 O 0.20791 0.47085 0.64327 0.0
O357 O 0.19302 0.50079 0.7255 0.0
C358 C 0.20859 0.44304 0.63988 0.0
H359 H 0.08453 0.42586 0.63182 0.0
H360 H 0.31661 0.49534 0.76246 0.0
H361 H 0.16844 0.4598 0.88331 0.0
H362 H 0.20046 0.3897 0.84244 0.0
Co363 Co 0.73705 0.20071 0.21266 0.0
C364 C 0.70735 0.12729 0.23064 0.0
C365 C 0.6803 0.13809 0.17778 0.0
C366 C 0.66497 0.10382 0.18317 0.0
N367 N 0.7069 0.1528 0.20739 0.0
N368 N 0.68191 0.09716 0.21649 0.0
H369 H 0.72562 0.1305 0.25747 0.0
H370 H 0.67229 0.15141 0.1543 0.0
C371 C 0.69358 0.22196 0.26787 0.0
O372 O 0.7177 0.23949 0.29854 0.0
N373 N 0.76731 0.24916 0.21649 0.0
C374 C 0.80127 0.26538 0.21659 0.0
C375 C 0.81347 0.29941 0.21789 0.0
C376 C 0.75955 0.27396 0.21535 0.0
N377 N 0.78719 0.30471 0.21759 0.0
C378 C 0.78206 0.20301 0.28458 0.0
C379 C 0.73921 0.18807 0.36105 0.0
C380 C 0.77374 0.2016 0.3695 0.0
C381 C 0.79481 0.207 0.33052 0.0
C382 C 0.7275 0.18423 0.31416 0.0
N383 N 0.74961 0.19514 0.27695 0.0
H384 H 0.79876 0.20742 0.25516 0.0
H385 H 0.70095 0.17401 0.30803 0.0
H386 H 0.81658 0.25371 0.21429 0.0
H387 H 0.73442 0.26994 0.21127 0.0
O388 O 0.77085 0.19642 0.17687 0.0
O389 O 0.73154 0.2054 0.14592 0.0
O390 O 0.6977 0.20548 0.23444 0.0
C391 C 0.75723 0.20124 0.1393 0.0
H392 H 0.64231 0.08524 0.16543 0.0
H393 H 0.83967 0.31877 0.21914 0.0
H394 H 0.72168 0.18225 0.39014 0.0
H395 H 0.82124 0.21538 0.3354 0.0
H396 H 0.39997 0.33026 0.28557 0.0
H397 H 0.37684 0.3344 0.13813 0.0
H398 H 0.34582 0.36305 0.15957 0.0
H399 H 0.33061 0.3925 0.21966 0.0
H400 H 0.35743 0.39186 0.36627 0.0
H401 H 0.38122 0.35613 0.3463 0.0
C402 C 0.38744 0.33678 0.25841 0.0
C403 C 0.39066 0.33032 0.21038 0.0
C404 C 0.37057 0.35422 0.27093 0.0
C405 C 0.37481 0.33937 0.17531 0.0
C406 C 0.35713 0.35577 0.18756 0.0
C407 C 0.34101 0.38384 0.24721 0.0
C408 C 0.34238 0.39477 0.29429 0.0
C409 C 0.3556 0.36415 0.23513 0.0
C410 C 0.35637 0.38388 0.32973 0.0
C411 C 0.36998 0.3635 0.31831 0.0
H412 H 0.93807 0.32333 0.72924 0.0
H413 H 0.97073 0.35119 0.87428 0.0
H414 H 0.02932 0.37517 0.84969 0.0
H415 H 0.0715 0.39325 0.78568 0.0
H416 H 0.03877 0.36699 0.64041 0.0
H417 H 0.98012 0.33699 0.66622 0.0
C418 C 0.95796 0.33399 0.75556 0.0
C419 C 0.95005 0.33572 0.80345 0.0
C420 C 0.99166 0.34826 0.74101 0.0
C421 C 0.9762 0.35001 0.83708 0.0
C422 C 0.00971 0.36366 0.82306 0.0
C423 C 0.05154 0.38029 0.75989 0.0
C424 C 0.05942 0.3825 0.71119 0.0
C425 C 0.01781 0.36369 0.77494 0.0
C426 C 0.03326 0.36595 0.67804 0.0
C427 C 0.99974 0.3488 0.69278 0.0
H428 H 0.66125 0.0395 0.16907 0.0
H429 H 0.67888 0.08238 0.30964 0.0
H430 H 0.65271 0.02613 0.34492 0.0
H431 H 0.61945 0.96456 0.33494 0.0
H432 H 0.60379 0.92157 0.19467 0.0
H433 H 0.63489 0.97792 0.15966 0.0
C434 C 0.65974 0.03635 0.2074 0.0
C435 C 0.67158 0.06476 0.23686 0.0
C436 C 0.64491 0.004 0.22724 0.0
C437 C 0.67 0.06074 0.28647 0.0
C438 C 0.65486 0.02863 0.30653 0.0
C439 C 0.62344 0.96773 0.29681 0.0
C440 C 0.60926 0.93927 0.26722 0.0
C441 C 0.64145 1.00009 0.27721 0.0
C442 C 0.6147 0.94329 0.21793 0.0
C443 C 0.63222 0.97543 0.198 0.0
H444 H 0.66589 0.60579 0.71496 0.0
H445 H 0.65645 0.6278 0.86121 0.0
H446 H 0.63233 0.66235 0.83638 0.0
H447 H 0.6086 0.68122 0.77363 0.0
H448 H 0.61457 0.65658 0.62725 0.0
H449 H 0.64527 0.62809 0.6512 0.0
C450 C 0.65921 0.61885 0.74108 0.0
C451 C 0.6629 0.61447 0.78974 0.0
C452 C 0.64429 0.63772 0.7265 0.0
C453 C 0.65367 0.6309 0.82358 0.0
C454 C 0.63983 0.65051 0.80939 0.0
C455 C 0.61724 0.67025 0.74688 0.0
C456 C 0.60925 0.67094 0.69875 0.0
C457 C 0.63421 0.65337 0.76103 0.0
C458 C 0.6201 0.65604 0.66458 0.0
C459 C 0.63772 0.63984 0.67825 0.0
H460 H 0.03813 0.65686 0.33149 0.0
H461 H 0.0784 0.66971 0.18963 0.0
H462 H 0.02165 0.6432 0.15636 0.0
H463 H 0.96039 0.61141 0.16835 0.0
H464 H 0.91965 0.5996 0.30956 0.0
H465 H 0.97665 0.63099 0.34268 0.0
C466 C 0.03434 0.65412 0.29331 0.0
C467 C 0.06227 0.66489 0.26301 0.0
C468 C 1.00163 0.63897 0.27449 0.0
C469 C 0.05727 0.66174 0.21355 0.0
C470 C 0.02485 0.6464 0.19458 0.0
C471 C 0.96415 0.61624 0.20627 0.0
C472 C 0.93612 0.6031 0.23665 0.0
C473 C 0.99684 0.63423 0.22478 0.0
C474 C 0.94098 0.60969 0.28565 0.0
C475 C 0.97351 0.62736 0.30451 0.0
H476 H 0.32736 0.92918 0.77062 0.0
H477 H 0.33647 0.96431 0.62621 0.0
H478 H 0.36285 0.02235 0.6542 0.0
H479 H 0.38836 0.06352 0.71931 0.0
H480 H 0.38045 0.02829 0.86339 0.0
H481 H 0.34822 0.97008 0.83626 0.0
C482 C 0.33447 0.94947 0.7454 0.0
C483 C 0.33026 0.94241 0.69637 0.0
C484 C 0.35009 0.98288 0.76173 0.0
C485 C 0.33997 0.96911 0.66409 0.0
C486 C 0.35497 0.00231 0.68008 0.0
C487 C 0.3789 0.04309 0.74477 0.0
C488 C 0.38699 0.05017 0.79322 0.0
C489 C 0.36093 0.00959 0.72874 0.0
C490 C 0.3749 0.02342 0.82583 0.0
C491 C 0.35647 0.99013 0.81034 0.0
H492 H 0.22821 0.47451 0.92818 0.0
H493 H 0.16149 0.36746 0.92291 0.0
H494 H 0.17617 0.36224 0.00532 0.0
H495 H 0.20858 0.38856 0.07885 0.0
H496 H 0.27739 0.49549 0.08116 0.0
H497 H 0.26173 0.50032 0.99988 0.0
C498 C 0.21666 0.45011 0.94536 0.0
C499 C 0.19344 0.42147 0.92005 0.0
C500 C 0.22595 0.44728 0.99199 0.0
C501 C 0.17923 0.38985 0.94205 0.0
C502 C 0.18769 0.38689 0.98901 0.0
C503 C 0.22016 0.41285 0.06141 0.0
C504 C 0.24427 0.44159 0.08598 0.0
C505 C 0.21115 0.41546 0.01432 0.0
C506 C 0.2592 0.4729 0.06284 0.0
C507 C 0.25005 0.47575 0.01648 0.0
H508 H 0.74915 0.16927 0.45423 0.0
H509 H 0.83099 0.25915 0.3932 0.0
H510 H 0.85402 0.27954 0.47218 0.0
H511 H 0.84962 0.27326 0.55904 0.0
H512 H 0.76658 0.18441 0.62029 0.0
H513 H 0.74567 0.16224 0.54112 0.0
C514 C 0.77201 0.19329 0.45826 0.0
C515 C 0.78831 0.21253 0.41781 0.0
C516 C 0.78502 0.20513 0.50394 0.0
C517 C 0.81816 0.24351 0.42364 0.0
C518 C 0.83127 0.25536 0.46887 0.0
C519 C 0.82699 0.24904 0.55505 0.0
C520 C 0.80985 0.23056 0.59562 0.0
C521 C 0.81473 0.23657 0.50932 0.0
C522 C 0.7807 0.19899 0.58974 0.0
C523 C 0.76848 0.18637 0.54442 0.0
H524 H 0.59491 0.8383 0.05911 0.0
H525 H 0.57114 0.7413 0.1145 0.0
H526 H 0.57434 0.72221 0.03472 0.0
H527 H 0.57989 0.73159 0.94852 0.0
H528 H 0.60273 0.82813 0.89246 0.0
H529 H 0.60459 0.84902 0.97295 0.0
C530 C 0.5906 0.81307 0.0536 0.0
C531 C 0.58274 0.79126 0.09257 0.0
C532 C 0.59243 0.80216 0.00751 0.0
C533 C 0.57756 0.75871 0.0851 0.0
C534 C 0.57922 0.74768 0.03947 0.0
C535 C 0.58559 0.75729 0.95402 0.0
C536 C 0.59106 0.7782 0.91461 0.0
C537 C 0.58611 0.769 1.00033 0.0
C538 C 0.59882 0.8116 0.92224 0.0
C539 C 0.59953 0.82349 0.96825 0.0
H540 H 0.82855 0.57448 0.44931 0.0
H541 H 0.73928 0.57024 0.39214 0.0
H542 H 0.7205 0.57311 0.47224 0.0
H543 H 0.72793 0.57411 0.55901 0.0
H544 H 0.81602 0.57579 0.61611 0.0
H545 H 0.83662 0.5768 0.53591 0.0
C546 C 0.80496 0.57412 0.45434 0.0
C547 C 0.78545 0.57216 0.41455 0.0
C548 C 0.79398 0.57532 0.50067 0.0
C549 C 0.75515 0.57224 0.42191 0.0
C550 C 0.74419 0.57361 0.46782 0.0
C551 C 0.7516 0.57466 0.55394 0.0
C552 C 0.77033 0.57495 0.59376 0.0
C553 C 0.76319 0.57475 0.50753 0.0
C554 C 0.80124 0.57613 0.58631 0.0
C555 C 0.81297 0.57641 0.54035 0.0
H556 H 0.26311 0.83467 0.93009 0.0
H557 H 0.17145 0.75642 0.86823 0.0
H558 H 0.14879 0.73524 0.94773 0.0
H559 H 0.15726 0.73647 0.035 0.0
H560 H 0.24868 0.81612 0.09587 0.0
H561 H 0.26921 0.83934 0.01691 0.0
C562 C 0.23797 0.81334 0.93423 0.0
C563 C 0.21894 0.79706 0.8937 0.0
C564 C 0.22522 0.80138 0.97986 0.0
C565 C 0.18636 0.76949 0.89916 0.0
C566 C 0.17356 0.75722 0.94452 0.0
C567 C 0.1815 0.75905 0.03077 0.0
C568 C 0.20148 0.77455 0.07101 0.0
C569 C 0.19307 0.77252 0.98514 0.0
C570 C 0.23277 0.80393 0.06534 0.0
C571 C 0.2446 0.81715 0.02023 0.0
H572 H 0.42719 0.23331 0.59919 0.0
H573 H 0.42171 0.13929 0.56336 0.0
H574 H 0.41986 0.15062 0.47881 0.0
H575 H 0.42269 0.18848 0.41485 0.0
H576 H 0.42773 0.28229 0.45065 0.0
H577 H 0.42657 0.26959 0.53531 0.0
C578 C 0.42498 0.21496 0.573 0.0
C579 C 0.4247 0.18549 0.5879 0.0
C580 C 0.42401 0.22167 0.52431 0.0
C581 C 0.42244 0.16238 0.55314 0.0
C582 C 0.42123 0.16877 0.50469 0.0
C583 C 0.42289 0.2059 0.4411 0.0
C584 C 0.42535 0.23637 0.42616 0.0
C585 C 0.42241 0.19852 0.48983 0.0
C586 C 0.42624 0.25886 0.46093 0.0
C587 C 0.42547 0.25156 0.50943 0.0
H588 H 0.76564 0.57837 0.09496 0.0
H589 H 0.84509 0.55741 0.06315 0.0
H590 H 0.83845 0.56337 0.9779 0.0
H591 H 0.80367 0.56504 0.91253 0.0
H592 H 0.71947 0.57851 0.94439 0.0
H593 H 0.73423 0.58548 0.0291 0.0
C594 C 0.78217 0.57633 0.06924 0.0
C595 C 0.80605 0.56791 0.08479 0.0
C596 C 0.77693 0.57799 0.02024 0.0
C597 C 0.82677 0.56422 0.05153 0.0
C598 C 0.82281 0.56739 0.0029 0.0
C599 C 0.78939 0.57064 0.93804 0.0
C600 C 0.76097 0.57184 0.92278 0.0
C601 C 0.79709 0.57293 0.98677 0.0
C602 C 0.74177 0.57802 0.95579 0.0
C603 C 0.75007 0.58175 0.00411 0.0
H604 H 0.26986 0.83068 0.53662 0.0
H605 H 0.17914 0.74904 0.59522 0.0
H606 H 0.15739 0.7294 0.51471 0.0
H607 H 0.16844 0.73127 0.42816 0.0
H608 H 0.2581 0.81456 0.36991 0.0
H609 H 0.2762 0.83827 0.44978 0.0
C610 C 0.2449 0.80921 0.5315 0.0
C611 C 0.22597 0.79116 0.57114 0.0
C612 C 0.23273 0.79829 0.48538 0.0
C613 C 0.1938 0.76335 0.56479 0.0
C614 C 0.1816 0.75199 0.51891 0.0
C615 C 0.19146 0.75505 0.43316 0.0
C616 C 0.21212 0.7713 0.39391 0.0
C617 C 0.2014 0.76859 0.47901 0.0
C618 C 0.24189 0.80198 0.40003 0.0
C619 C 0.25228 0.81535 0.44557 0.0
H620 H 0.44247 0.16373 0.95543 0.0
H621 H 0.41765 0.23498 0.89585 0.0
H622 H 0.41218 0.25282 0.97617 0.0
H623 H 0.42236 0.25321 0.06305 0.0
H624 H 0.44476 0.1801 0.1221 0.0
H625 H 0.44278 0.15735 0.0425 0.0
C626 C 0.435 0.18254 0.96023 0.0
C627 C 0.43057 0.1982 0.92015 0.0
C628 C 0.43166 0.19235 0.00637 0.0
C629 C 0.42088 0.22248 0.92639 0.0
C630 C 0.41804 0.23283 0.97226 0.0
C631 C 0.42563 0.23155 0.05839 0.0
C632 C 0.43336 0.21799 0.09803 0.0
C633 C 0.42441 0.21866 0.01248 0.0
C634 C 0.4382 0.19041 0.09196 0.0
C635 C 0.43741 0.17768 0.04647 0.0
H636 H 0.28646 0.45303 0.45379 0.0
H637 H 0.18655 0.40574 0.39502 0.0
H638 H 0.16274 0.39763 0.47544 0.0
H639 H 0.17157 0.41204 0.56152 0.0
H640 H 0.27176 0.45868 0.61918 0.0
H641 H 0.29448 0.45874 0.54032 0.0
C642 C 0.25942 0.44017 0.45881 0.0
C643 C 0.2382 0.43017 0.41891 0.0
C644 C 0.24612 0.43578 0.50489 0.0
C645 C 0.20326 0.4134 0.42545 0.0
C646 C 0.18972 0.40908 0.47134 0.0
C647 C 0.19819 0.42115 0.55677 0.0
C648 C 0.22011 0.4351 0.59566 0.0
C649 C 0.21102 0.42125 0.5112 0.0
C650 C 0.25459 0.44744 0.58954 0.0
C651 C 0.26755 0.44771 0.54449 0.0
H652 H 0.83863 0.25039 0.94897 0.0
H653 H 0.73815 0.20564 0.89269 0.0
H654 H 0.71474 0.183 0.97115 0.0
H655 H 0.72294 0.18293 0.05716 0.0
H656 H 0.82307 0.22752 0.11482 0.0
H657 H 0.84683 0.24291 0.03446 0.0
C658 C 0.81171 0.2348 0.95396 0.0
C659 C 0.78993 0.22932 0.91576 0.0
C660 C 0.7985 0.22232 0.99933 0.0
C661 C 0.75512 0.2097 0.92201 0.0
C662 C 0.7418 0.19702 0.96677 0.0
C663 C 0.74994 0.19544 0.0519 0.0
C664 C 0.77134 0.2045 0.09142 0.0
C665 C 0.76322 0.20421 0.00592 0.0
C666 C 0.80622 0.22031 0.08459 0.0
C667 C 0.81976 0.22929 0.03878 0.0
H668 H 0.60089 0.77353 0.56744 0.0
H669 H 0.53607 0.81041 0.61516 0.0
H670 H 0.53438 0.82988 0.53488 0.0
H671 H 0.54346 0.82749 0.44966 0.0
H672 H 0.6069 0.78941 0.40003 0.0
H673 H 0.61759 0.7797 0.4824 0.0
C674 C 0.58758 0.78703 0.56029 0.0
C675 C 0.56886 0.79096 0.59661 0.0
C676 C 0.58596 0.79725 0.51368 0.0
C677 C 0.55092 0.80764 0.5874 0.0
C678 C 0.54969 0.81843 0.54154 0.0
C679 C 0.56015 0.81768 0.45703 0.0
C680 C 0.57396 0.80862 0.41926 0.0
C681 C 0.56586 0.81198 0.50413 0.0
C682 C 0.59596 0.79645 0.42885 0.0
C683 C 0.6019 0.79073 0.47585 0.0
H684 H 0.25866 0.56885 0.24048 0.0
H685 H 0.17107 0.52382 0.33061 0.0
H686 H 0.16284 0.57192 0.31784 0.0
H687 H 0.18069 0.6268 0.28134 0.0
H688 H 0.26773 0.6715 0.18959 0.0
H689 H 0.27585 0.62342 0.20231 0.0
C690 C 0.23802 0.56983 0.25765 0.0
C691 C 0.21561 0.54299 0.2867 0.0
C692 C 0.23314 0.5973 0.24945 0.0
C693 C 0.18854 0.54417 0.30802 0.0
C694 C 0.18385 0.57163 0.30071 0.0
C695 C 0.20131 0.62597 0.26381 0.0
C696 C 0.22351 0.65277 0.23446 0.0
C697 C 0.20591 0.59828 0.27136 0.0
C698 C 0.25008 0.65116 0.21208 0.0
C699 C 0.2549 0.62375 0.21957 0.0
H700 H 0.64745 0.17971 0.79405 0.0
H701 H 0.70417 0.28351 0.75166 0.0
H702 H 0.65207 0.28399 0.73524 0.0
H703 H 0.59017 0.25441 0.73225 0.0
H704 H 0.53358 0.15183 0.78069 0.0
H705 H 0.5857 0.15083 0.79396 0.0
C706 C 0.6483 0.20238 0.78124 0.0
C707 C 0.67955 0.23153 0.77402 0.0
C708 C 0.61827 0.20245 0.77223 0.0
C709 C 0.6804 0.26092 0.75801 0.0
C710 C 0.65063 0.26108 0.74817 0.0
C711 C 0.5893 0.23183 0.7454 0.0
C712 C 0.55815 0.20319 0.75519 0.0
C713 C 0.6194 0.23191 0.75488 0.0
C714 C 0.55733 0.17415 0.77272 0.0
C715 C 0.58709 0.17361 0.78054 0.0
H716 H 0.43624 0.68288 0.24485 0.0
H717 H 0.47829 0.64286 0.34507 0.0
H718 H 0.42892 0.58703 0.33683 0.0
H719 H 0.37397 0.5498 0.30164 0.0
H720 H 0.33144 0.58902 0.20064 0.0
H721 H 0.38098 0.645 0.20842 0.0
C722 C 0.43437 0.66196 0.26517 0.0
C723 C 0.4608 0.66697 0.29568 0.0
C724 C 0.40601 0.62983 0.25984 0.0
C725 C 0.45839 0.63955 0.32116 0.0
C726 C 0.43015 0.60768 0.31652 0.0
C727 C 0.37549 0.57054 0.28118 0.0
C728 C 0.34899 0.56521 0.25064 0.0
C729 C 0.40389 0.60253 0.28591 0.0
C730 C 0.35155 0.59236 0.22419 0.0
C731 C 0.37979 0.62442 0.22882 0.0
H732 H 0.74825 0.34026 0.73338 0.0
H733 H 0.84971 0.38359 0.78598 0.0
H734 H 0.85073 0.43626 0.8032 0.0
H735 H 0.82211 0.46935 0.80588 0.0
H736 H 0.71978 0.42516 0.75697 0.0
H737 H 0.71932 0.37317 0.73714 0.0
C738 C 0.77068 0.36137 0.74808 0.0
C739 C 0.79893 0.35815 0.75803 0.0
C740 C 0.77067 0.39118 0.75947 0.0
C741 C 0.82768 0.38554 0.7778 0.0
C742 C 0.82823 0.41559 0.78789 0.0
C743 C 0.79977 0.44837 0.79078 0.0
C744 C 0.77101 0.45117 0.78299 0.0
C745 C 0.79974 0.41856 0.7794 0.0
C746 C 0.74207 0.42354 0.76399 0.0
C747 C 0.74192 0.39391 0.75215 0.0
H748 H 0.33973 0.77333 0.19235 0.0
H749 H 0.33171 0.76762 0.34501 0.0
H750 H 0.38601 0.76942 0.35054 0.0
H751 H 0.43657 0.77484 0.31149 0.0
H752 H 0.44249 0.77613 0.15829 0.0
H753 H 0.38804 0.77374 0.15295 0.0
C754 C 0.35002 0.77239 0.22668 0.0
C755 C 0.33234 0.7708 0.26833 0.0
C756 C 0.38071 0.77275 0.22928 0.0
C757 C 0.34519 0.76891 0.31272 0.0
C758 C 0.37615 0.77006 0.31577 0.0
C759 C 0.42587 0.77459 0.27697 0.0
C760 C 0.44358 0.77617 0.23528 0.0
C761 C 0.3943 0.77238 0.27428 0.0
C762 C 0.42926 0.77506 0.19076 0.0
C763 C 0.39823 0.77377 0.18775 0.0
H764 H 0.66307 0.40913 0.73343 0.0
H765 H 0.6187 0.46742 0.78188 0.0
H766 H 0.56545 0.416 0.79649 0.0
H767 H 0.53221 0.3545 0.79874 0.0
H768 H 0.57698 0.29596 0.75381 0.0
H769 H 0.62965 0.34727 0.73603 0.0
C770 C 0.64162 0.41052 0.74667 0.0
C771 C 0.64473 0.44197 0.75636 0.0
C772 C 0.61138 0.38079 0.75656 0.0
C773 C 0.61686 0.44344 0.77407 0.0
C774 C 0.58647 0.41407 0.78265 0.0
C775 C 0.55344 0.35298 0.78486 0.0
C776 C 0.55065 0.32139 0.77769 0.0
C777 C 0.58358 0.38261 0.77465 0.0
C778 C 0.57861 0.3199 0.76033 0.0
C779 C 0.60863 0.34927 0.74967 0.0
H780 H 0.40762 0.86496 0.70895 0.0
H781 H 0.33069 0.7618 0.73104 0.0
H782 H 0.37311 0.74469 0.73283 0.0
H783 H 0.43259 0.75926 0.72964 0.0
H784 H 0.50937 0.86251 0.70967 0.0
H785 H 0.46669 0.87939 0.70518 0.0
C786 C 0.40015 0.83877 0.71446 0.0
C787 C 0.36599 0.8147 0.71959 0.0
C788 C 0.42472 0.82909 0.71549 0.0
C789 C 0.35674 0.78081 0.72635 0.0
C790 C 0.38102 0.77098 0.72749 0.0
C791 C 0.43976 0.78531 0.72359 0.0
C792 C 0.47392 0.80964 0.71992 0.0
C793 C 0.4151 0.79488 0.72193 0.0
C794 C 0.48315 0.84345 0.71287 0.0
C795 C 0.4588 0.85309 0.71037 0.0
H796 H 0.54613 0.36734 0.20553 0.0
H797 H 0.58819 0.32546 0.30297 0.0
H798 H 0.64382 0.37478 0.29268 0.0
H799 H 0.68067 0.42973 0.25556 0.0
H800 H 0.63841 0.47217 0.15993 0.0
H801 H 0.58268 0.4226 0.16972 0.0
C802 C 0.56741 0.36904 0.22473 0.0
C803 C 0.56293 0.34271 0.25504 0.0
C804 C 0.59933 0.39747 0.21869 0.0
C805 C 0.59082 0.34542 0.27969 0.0
C806 C 0.62271 0.37354 0.27362 0.0
C807 C 0.65928 0.42788 0.2365 0.0
C808 C 0.66359 0.45437 0.20678 0.0
C809 C 0.62729 0.39961 0.243 0.0
C810 C 0.6356 0.45207 0.18305 0.0
C811 C 0.6038 0.42378 0.18865 0.0
H812 H 0.25402 0.58898 0.77993 0.0
H813 H 0.15541 0.5282 0.71899 0.0
H814 H 0.15155 0.57851 0.70357 0.0
H815 H 0.1774 0.63996 0.70352 0.0
H816 H 0.27738 0.70107 0.75955 0.0
H817 H 0.27993 0.65058 0.77977 0.0
C818 C 0.23159 0.58676 0.76369 0.0
C819 C 0.20503 0.55496 0.75069 0.0
C820 C 0.23004 0.6159 0.75335 0.0
C821 C 0.1762 0.55245 0.7293 0.0
C822 C 0.17402 0.58119 0.72032 0.0
C823 C 0.1996 0.64215 0.7205 0.0
C824 C 0.22714 0.67414 0.72998 0.0
C825 C 0.20098 0.61306 0.73155 0.0
C826 C 0.25602 0.67671 0.75135 0.0
C827 C 0.25738 0.64786 0.76324 0.0
H828 H 0.55767 0.22111 0.3061 0.0
H829 H 0.55853 0.22636 0.15321 0.0
H830 H 0.61211 0.22651 0.15091 0.0
H831 H 0.65776 0.22368 0.19287 0.0
H832 H 0.65933 0.22331 0.34628 0.0
H833 H 0.60568 0.2228 0.34838 0.0
C834 C 0.56977 0.22228 0.27244 0.0
C835 C 0.55432 0.22325 0.22979 0.0
C836 C 0.60078 0.22318 0.27169 0.0
C837 C 0.5702 0.22549 0.18626 0.0
C838 C 0.60065 0.22549 0.18505 0.0
C839 C 0.64626 0.22345 0.22672 0.0
C840 C 0.66205 0.22305 0.26941 0.0
C841 C 0.616 0.22406 0.22755 0.0
C842 C 0.64746 0.22351 0.31306 0.0
C843 C 0.61682 0.22315 0.31423 0.0
H844 H 0.40786 0.67757 0.7539 0.0
H845 H 0.47322 0.63593 0.73721 0.0
H846 H 0.42454 0.57965 0.72874 0.0
H847 H 0.36342 0.54231 0.725 0.0
H848 H 0.29792 0.58394 0.7379 0.0
H849 H 0.34644 0.64014 0.74796 0.0
C850 C 0.41135 0.65607 0.74894 0.0
C851 C 0.44401 0.66079 0.74673 0.0
C852 C 0.38322 0.62385 0.74275 0.0
C853 C 0.44827 0.63288 0.73922 0.0
C854 C 0.42047 0.60071 0.73425 0.0
C855 C 0.35979 0.56367 0.73013 0.0
C856 C 0.32706 0.55886 0.73094 0.0
C857 C 0.38785 0.59592 0.73571 0.0
C858 C 0.3228 0.58693 0.73677 0.0
C859 C 0.35057 0.61907 0.74289 0.0
H860 H 0.74381 0.3183 0.26357 0.0
H861 H 0.83434 0.36305 0.17923 0.0
H862 H 0.83908 0.41816 0.18753 0.0
H863 H 0.81764 0.45341 0.2182 0.0
H864 H 0.72714 0.40978 0.30288 0.0
H865 H 0.72241 0.35439 0.29556 0.0
C866 C 0.76432 0.34013 0.24667 0.0
C867 C 0.78867 0.33669 0.22069 0.0
C868 C 0.76708 0.37186 0.25208 0.0
C869 C 0.81548 0.36518 0.19963 0.0
C870 C 0.81817 0.39664 0.20433 0.0
C871 C 0.79688 0.43185 0.23527 0.0
C872 C 0.77276 0.43573 0.26102 0.0
C873 C 0.79421 0.40026 0.23058 0.0
C874 C 0.7462 0.40753 0.28315 0.0
C875 C 0.74335 0.37583 0.27867 0.0
loop_
_geom_bond_atom_site_label_1
_geom_bond_atom_site_label_2
_geom_bond_distance
_geom_bond_site_symmetry_2
_ccdc_geom_bond_type
Co0 N4 2.148 . S
Co0 N10 2.128 . S
Co0 N20 2.194 . S
Co0 O25 2.351 . S
Co0 O26 2.155 . S
Co0 O27 2.096 . S
C1 N4 1.301 . S
C1 N5 1.328 . S
C1 H6 0.930 . S
C2 C3 1.333 . S
C2 N4 1.317 . S
C2 H7 0.930 . S
C3 C2 1.333 . S
C3 N5 1.350 . S
C3 H29 0.931 . S
N4 Co0 2.148 . S
N4 C1 1.301 . S
N4 C2 1.317 . S
N5 C1 1.328 . S
N5 C3 1.350 . S
H6 C1 0.930 . S
H7 C2 0.930 . S
C8 O9 1.224 . S
C8 O27 1.247 . S
O9 C8 1.224 . S
N10 Co0 2.128 . S
N10 C11 1.355 . S
N10 C13 1.311 . S
C11 N10 1.355 . S
C11 C12 1.363 . S
C11 H23 0.929 . S
C12 C11 1.363 . S
C12 N14 1.375 . S
C12 H30 0.931 . S
C13 N10 1.311 . S
C13 N14 1.347 . S
C13 H24 0.929 . S
N14 C12 1.375 . S
N14 C13 1.347 . S
C15 C18 1.365 . S
C15 N20 1.328 . S
C15 H21 0.929 . S
C16 C17 1.362 . S
C16 C19 1.378 . S
C16 H31 0.929 . S
C17 C16 1.362 . S
C17 C18 1.366 . S
C18 C15 1.365 . S
C18 C17 1.366 . S
C18 H32 0.930 . S
C19 C16 1.378 . S
C19 N20 1.315 . S
C19 H22 0.930 . S
N20 Co0 2.194 . S
N20 C15 1.328 . S
N20 C19 1.315 . S
H21 C15 0.929 . S
H22 C19 0.930 . S
H23 C11 0.929 . S
H24 C13 0.929 . S
O25 Co0 2.351 . S
O25 C28 1.244 . S
O26 Co0 2.155 . S
O26 C28 1.240 . S
O27 Co0 2.096 . S
O27 C8 1.247 . S
C28 O25 1.244 . S
C28 O26 1.240 . S
H29 C3 0.931 . S
H30 C12 0.931 . S
H31 C16 0.929 . S
H32 C18 0.930 . S
Co33 N37 2.148 . S
Co33 N43 2.128 . S
Co33 N53 2.194 . S
Co33 O58 2.351 . S
Co33 O59 2.155 . S
Co33 O60 2.096 . S
C34 N37 1.301 . S
C34 N38 1.328 . S
C34 H39 0.930 . S
C35 C36 1.333 . S
C35 N37 1.317 . S
C35 H40 0.930 . S
C36 C35 1.333 . S
C36 N38 1.350 . S
C36 H62 0.931 . S
N37 Co33 2.148 . S
N37 C34 1.301 . S
N37 C35 1.317 . S
N38 C34 1.328 . S
N38 C36 1.350 . S
H39 C34 0.930 . S
H40 C35 0.930 . S
C41 O42 1.224 . S
C41 O60 1.247 . S
O42 C41 1.224 . S
N43 Co33 2.128 . S
N43 C44 1.355 . S
N43 C46 1.311 . S
C44 N43 1.355 . S
C44 C45 1.363 . S
C44 H56 0.929 . S
C45 C44 1.363 . S
C45 N47 1.375 . S
C45 H63 0.931 . S
C46 N43 1.311 . S
C46 N47 1.347 . S
C46 H57 0.929 . S
N47 C45 1.375 . S
N47 C46 1.347 . S
C48 C51 1.365 . S
C48 N53 1.328 . S
C48 H54 0.929 . S
C49 C50 1.362 . S
C49 C52 1.378 . S
C49 H64 0.929 . S
C50 C49 1.362 . S
C50 C51 1.366 . S
C51 C48 1.365 . S
C51 C50 1.366 . S
C51 H65 0.930 . S
C52 C49 1.378 . S
C52 N53 1.315 . S
C52 H55 0.930 . S
N53 Co33 2.194 . S
N53 C48 1.328 . S
N53 C52 1.315 . S
H54 C48 0.929 . S
H55 C52 0.930 . S
H56 C44 0.929 . S
H57 C46 0.929 . S
O58 Co33 2.351 . S
O58 C61 1.244 . S
O59 Co33 2.155 . S
O59 C61 1.240 . S
O60 Co33 2.096 . S
O60 C41 1.247 . S
C61 O58 1.244 . S
C61 O59 1.240 . S
H62 C36 0.931 . S
H63 C45 0.931 . S
H64 C49 0.929 . S
H65 C51 0.930 . S
Co66 N70 2.148 . S
Co66 N76 2.128 . S
Co66 N86 2.194 . S
Co66 O91 2.351 . S
Co66 O92 2.155 . S
Co66 O93 2.096 . S
C67 N70 1.301 . S
C67 N71 1.328 . S
C67 H72 0.930 . S
C68 C69 1.333 . S
C68 N70 1.317 . S
C68 H73 0.930 . S
C69 C68 1.333 . S
C69 N71 1.350 . S
C69 H95 0.931 . S
N70 Co66 2.148 . S
N70 C67 1.301 . S
N70 C68 1.317 . S
N71 C67 1.328 . S
N71 C69 1.350 . S
H72 C67 0.930 . S
H73 C68 0.930 . S
C74 O75 1.224 . S
C74 O93 1.247 . S
O75 C74 1.224 . S
N76 Co66 2.128 . S
N76 C77 1.355 . S
N76 C79 1.311 . S
C77 N76 1.355 . S
C77 C78 1.363 . S
C77 H89 0.929 . S
C78 C77 1.363 . S
C78 N80 1.375 . S
C78 H96 0.931 . S
C79 N76 1.311 . S
C79 N80 1.347 . S
C79 H90 0.929 . S
N80 C78 1.375 . S
N80 C79 1.347 . S
C81 C84 1.365 . S
C81 N86 1.328 . S
C81 H87 0.929 . S
C82 C83 1.362 . S
C82 C85 1.378 . S
C82 H97 0.929 . S
C83 C82 1.362 . S
C83 C84 1.366 . S
C84 C81 1.365 . S
C84 C83 1.366 . S
C84 H98 0.930 . S
C85 C82 1.378 . S
C85 N86 1.315 . S
C85 H88 0.930 . S
N86 Co66 2.194 . S
N86 C81 1.328 . S
N86 C85 1.315 . S
H87 C81 0.929 . S
H88 C85 0.930 . S
H89 C77 0.929 . S
H90 C79 0.929 . S
O91 Co66 2.351 . S
O91 C94 1.244 . S
O92 Co66 2.155 . S
O92 C94 1.240 . S
O93 Co66 2.096 . S
O93 C74 1.247 . S
C94 O91 1.244 . S
C94 O92 1.240 . S
H95 C69 0.931 . S
H96 C78 0.931 . S
H97 C82 0.929 . S
H98 C84 0.930 . S
Co99 N103 2.148 . S
Co99 N109 2.128 . S
Co99 N119 2.194 . S
Co99 O124 2.351 . S
Co99 O125 2.155 . S
Co99 O126 2.096 . S
C100 N103 1.301 . S
C100 N104 1.328 . S
C100 H105 0.930 . S
C101 C102 1.333 . S
C101 N103 1.317 . S
C101 H106 0.930 . S
C102 C101 1.333 . S
C102 N104 1.350 . S
C102 H128 0.931 . S
N103 Co99 2.148 . S
N103 C100 1.301 . S
N103 C101 1.317 . S
N104 C100 1.328 . S
N104 C102 1.350 . S
H105 C100 0.930 . S
H106 C101 0.930 . S
C107 O108 1.224 . S
C107 O126 1.247 . S
O108 C107 1.224 . S
N109 Co99 2.128 . S
N109 C110 1.355 . S
N109 C112 1.311 . S
C110 N109 1.355 . S
C110 C111 1.363 . S
C110 H122 0.929 . S
C111 C110 1.363 . S
C111 N113 1.375 . S
C111 H129 0.931 . S
C112 N109 1.311 . S
C112 N113 1.347 . S
C112 H123 0.929 . S
N113 C111 1.375 . S
N113 C112 1.347 . S
C114 C117 1.365 . S
C114 N119 1.328 . S
C114 H120 0.929 . S
C115 C116 1.362 . S
C115 C118 1.378 . S
C115 H130 0.929 . S
C116 C115 1.362 . S
C116 C117 1.366 . S
C117 C114 1.365 . S
C117 C116 1.366 . S
C117 H131 0.930 . S
C118 C115 1.378 . S
C118 N119 1.315 . S
C118 H121 0.930 . S
N119 Co99 2.194 . S
N119 C114 1.328 . S
N119 C118 1.315 . S
H120 C114 0.929 . S
H121 C118 0.930 . S
H122 C110 0.929 . S
H123 C112 0.929 . S
O124 Co99 2.351 . S
O124 C127 1.244 . S
O125 Co99 2.155 . S
O125 C127 1.240 . S
O126 Co99 2.096 . S
O126 C107 1.247 . S
C127 O124 1.244 . S
C127 O125 1.240 . S
H128 C102 0.931 . S
H129 C111 0.931 . S
H130 C115 0.929 . S
H131 C117 0.930 . S
Co132 N136 2.148 . S
Co132 N142 2.128 . S
Co132 N152 2.194 . S
Co132 O157 2.351 . S
Co132 O158 2.155 . S
Co132 O159 2.096 . S
C133 N136 1.301 . S
C133 N137 1.328 . S
C133 H138 0.930 . S
C134 C135 1.333 . S
C134 N136 1.317 . S
C134 H139 0.930 . S
C135 C134 1.333 . S
C135 N137 1.350 . S
C135 H161 0.931 . S
N136 Co132 2.148 . S
N136 C133 1.301 . S
N136 C134 1.317 . S
N137 C133 1.328 . S
N137 C135 1.350 . S
H138 C133 0.930 . S
H139 C134 0.930 . S
C140 O141 1.224 . S
C140 O159 1.247 . S
O141 C140 1.224 . S
N142 Co132 2.128 . S
N142 C143 1.355 . S
N142 C145 1.311 . S
C143 N142 1.355 . S
C143 C144 1.363 . S
C143 H155 0.929 . S
C144 C143 1.363 . S
C144 N146 1.375 . S
C144 H162 0.931 . S
C145 N142 1.311 . S
C145 N146 1.347 . S
C145 H156 0.929 . S
N146 C144 1.375 . S
N146 C145 1.347 . S
C147 C150 1.365 . S
C147 N152 1.328 . S
C147 H153 0.929 . S
C148 C149 1.362 . S
C148 C151 1.378 . S
C148 H163 0.929 . S
C149 C148 1.362 . S
C149 C150 1.366 . S
C150 C147 1.365 . S
C150 C149 1.366 . S
C150 H164 0.930 . S
C151 C148 1.378 . S
C151 N152 1.315 . S
C151 H154 0.930 . S
N152 Co132 2.194 . S
N152 C147 1.328 . S
N152 C151 1.315 . S
H153 C147 0.929 . S
H154 C151 0.930 . S
H155 C143 0.929 . S
H156 C145 0.929 . S
O157 Co132 2.351 . S
O157 C160 1.244 . S
O158 Co132 2.155 . S
O158 C160 1.240 . S
O159 Co132 2.096 . S
O159 C140 1.247 . S
C160 O157 1.244 . S
C160 O158 1.240 . S
H161 C135 0.931 . S
H162 C144 0.931 . S
H163 C148 0.929 . S
H164 C150 0.930 . S
Co165 N169 2.148 . S
Co165 N175 2.128 . S
Co165 N185 2.194 . S
Co165 O190 2.351 . S
Co165 O191 2.155 . S
Co165 O192 2.096 . S
C166 N169 1.301 . S
C166 N170 1.328 . S
C166 H171 0.930 . S
C167 C168 1.333 . S
C167 N169 1.317 . S
C167 H172 0.930 . S
C168 C167 1.333 . S
C168 N170 1.350 . S
C168 H194 0.931 . S
N169 Co165 2.148 . S
N169 C166 1.301 . S
N169 C167 1.317 . S
N170 C166 1.328 . S
N170 C168 1.350 . S
H171 C166 0.930 . S
H172 C167 0.930 . S
C173 O174 1.224 . S
C173 O192 1.247 . S
O174 C173 1.224 . S
N175 Co165 2.128 . S
N175 C176 1.355 . S
N175 C178 1.311 . S
C176 N175 1.355 . S
C176 C177 1.363 . S
C176 H188 0.929 . S
C177 C176 1.363 . S
C177 N179 1.375 . S
C177 H195 0.931 . S
C178 N175 1.311 . S
C178 N179 1.347 . S
C178 H189 0.929 . S
N179 C177 1.375 . S
N179 C178 1.347 . S
C180 C183 1.365 . S
C180 N185 1.328 . S
C180 H186 0.929 . S
C181 C182 1.362 . S
C181 C184 1.378 . S
C181 H196 0.929 . S
C182 C181 1.362 . S
C182 C183 1.366 . S
C183 C180 1.365 . S
C183 C182 1.366 . S
C183 H197 0.930 . S
C184 C181 1.378 . S
C184 N185 1.315 . S
C184 H187 0.930 . S
N185 Co165 2.194 . S
N185 C180 1.328 . S
N185 C184 1.315 . S
H186 C180 0.929 . S
H187 C184 0.930 . S
H188 C176 0.929 . S
H189 C178 0.929 . S
O190 Co165 2.351 . S
O190 C193 1.244 . S
O191 Co165 2.155 . S
O191 C193 1.240 . S
O192 Co165 2.096 . S
O192 C173 1.247 . S
C193 O190 1.244 . S
C193 O191 1.240 . S
H194 C168 0.931 . S
H195 C177 0.931 . S
H196 C181 0.929 . S
H197 C183 0.930 . S
Co198 N202 2.148 . S
Co198 N208 2.128 . S
Co198 N218 2.194 . S
Co198 O223 2.351 . S
Co198 O224 2.155 . S
Co198 O225 2.096 . S
C199 N202 1.301 . S
C199 N203 1.328 . S
C199 H204 0.930 . S
C200 C201 1.333 . S
C200 N202 1.317 . S
C200 H205 0.930 . S
C201 C200 1.333 . S
C201 N203 1.350 . S
C201 H227 0.931 . S
N202 Co198 2.148 . S
N202 C199 1.301 . S
N202 C200 1.317 . S
N203 C199 1.328 . S
N203 C201 1.350 . S
H204 C199 0.930 . S
H205 C200 0.930 . S
C206 O207 1.224 . S
C206 O225 1.247 . S
O207 C206 1.224 . S
N208 Co198 2.128 . S
N208 C209 1.355 . S
N208 C211 1.311 . S
C209 N208 1.355 . S
C209 C210 1.363 . S
C209 H221 0.929 . S
C210 C209 1.363 . S
C210 N212 1.375 . S
C210 H228 0.931 . S
C211 N208 1.311 . S
C211 N212 1.347 . S
C211 H222 0.929 . S
N212 C210 1.375 . S
N212 C211 1.347 . S
C213 C216 1.365 . S
C213 N218 1.328 . S
C213 H219 0.929 . S
C214 C215 1.362 . S
C214 C217 1.378 . S
C214 H229 0.929 . S
C215 C214 1.362 . S
C215 C216 1.366 . S
C216 C213 1.365 . S
C216 C215 1.366 . S
C216 H230 0.930 . S
C217 C214 1.378 . S
C217 N218 1.315 . S
C217 H220 0.930 . S
N218 Co198 2.194 . S
N218 C213 1.328 . S
N218 C217 1.315 . S
H219 C213 0.929 . S
H220 C217 0.930 . S
H221 C209 0.929 . S
H222 C211 0.929 . S
O223 Co198 2.351 . S
O223 C226 1.244 . S
O224 Co198 2.155 . S
O224 C226 1.240 . S
O225 Co198 2.096 . S
O225 C206 1.247 . S
C226 O223 1.244 . S
C226 O224 1.240 . S
H227 C201 0.931 . S
H228 C210 0.931 . S
H229 C214 0.929 . S
H230 C216 0.930 . S
Co231 N235 2.148 . S
Co231 N241 2.128 . S
Co231 N251 2.194 . S
Co231 O256 2.351 . S
Co231 O257 2.155 . S
Co231 O258 2.096 . S
C232 N235 1.301 . S
C232 N236 1.328 . S
C232 H237 0.930 . S
C233 C234 1.333 . S
C233 N235 1.317 . S
C233 H238 0.930 . S
C234 C233 1.333 . S
C234 N236 1.350 . S
C234 H260 0.931 . S
N235 Co231 2.148 . S
N235 C232 1.301 . S
N235 C233 1.317 . S
N236 C232 1.328 . S
N236 C234 1.350 . S
H237 C232 0.930 . S
H238 C233 0.930 . S
C239 O240 1.224 . S
C239 O258 1.247 . S
O240 C239 1.224 . S
N241 Co231 2.128 . S
N241 C242 1.355 . S
N241 C244 1.311 . S
C242 N241 1.355 . S
C242 C243 1.363 . S
C242 H254 0.929 . S
C243 C242 1.363 . S
C243 N245 1.375 . S
C243 H261 0.931 . S
C244 N241 1.311 . S
C244 N245 1.347 . S
C244 H255 0.929 . S
N245 C243 1.375 . S
N245 C244 1.347 . S
C246 C249 1.365 . S
C246 N251 1.328 . S
C246 H252 0.929 . S
C247 C248 1.362 . S
C247 C250 1.378 . S
C247 H262 0.929 . S
C248 C247 1.362 . S
C248 C249 1.366 . S
C249 C246 1.365 . S
C249 C248 1.366 . S
C249 H263 0.930 . S
C250 C247 1.378 . S
C250 N251 1.315 . S
C250 H253 0.930 . S
N251 Co231 2.194 . S
N251 C246 1.328 . S
N251 C250 1.315 . S
H252 C246 0.929 . S
H253 C250 0.930 . S
H254 C242 0.929 . S
H255 C244 0.929 . S
O256 Co231 2.351 . S
O256 C259 1.244 . S
O257 Co231 2.155 . S
O257 C259 1.240 . S
O258 Co231 2.096 . S
O258 C239 1.247 . S
C259 O256 1.244 . S
C259 O257 1.240 . S
H260 C234 0.931 . S
H261 C243 0.931 . S
H262 C247 0.929 . S
H263 C249 0.930 . S
Co264 N268 2.148 . S
Co264 N274 2.128 . S
Co264 N284 2.194 . S
Co264 O289 2.351 . S
Co264 O290 2.155 . S
Co264 O291 2.096 . S
C265 N268 1.301 . S
C265 N269 1.328 . S
C265 H270 0.930 . S
C266 C267 1.333 . S
C266 N268 1.317 . S
C266 H271 0.930 . S
C267 C266 1.333 . S
C267 N269 1.350 . S
C267 H293 0.931 . S
N268 Co264 2.148 . S
N268 C265 1.301 . S
N268 C266 1.317 . S
N269 C265 1.328 . S
N269 C267 1.350 . S
H270 C265 0.930 . S
H271 C266 0.930 . S
C272 O273 1.224 . S
C272 O291 1.247 . S
O273 C272 1.224 . S
N274 Co264 2.128 . S
N274 C275 1.355 . S
N274 C277 1.311 . S
C275 N274 1.355 . S
C275 C276 1.363 . S
C275 H287 0.929 . S
C276 C275 1.363 . S
C276 N278 1.375 . S
C276 H294 0.931 . S
C277 N274 1.311 . S
C277 N278 1.347 . S
C277 H288 0.929 . S
N278 C276 1.375 . S
N278 C277 1.347 . S
C279 C282 1.365 . S
C279 N284 1.328 . S
C279 H285 0.929 . S
C280 C281 1.362 . S
C280 C283 1.378 . S
C280 H295 0.929 . S
C281 C280 1.362 . S
C281 C282 1.366 . S
C282 C279 1.365 . S
C282 C281 1.366 . S
C282 H296 0.930 . S
C283 C280 1.378 . S
C283 N284 1.315 . S
C283 H286 0.930 . S
N284 Co264 2.194 . S
N284 C279 1.328 . S
N284 C283 1.315 . S
H285 C279 0.929 . S
H286 C283 0.930 . S
H287 C275 0.929 . S
H288 C277 0.929 . S
O289 Co264 2.351 . S
O289 C292 1.244 . S
O290 Co264 2.155 . S
O290 C292 1.240 . S
O291 Co264 2.096 . S
O291 C272 1.247 . S
C292 O289 1.244 . S
C292 O290 1.240 . S
H293 C267 0.931 . S
H294 C276 0.931 . S
H295 C280 0.929 . S
H296 C282 0.930 . S
Co297 N301 2.148 . S
Co297 N307 2.128 . S
Co297 N317 2.194 . S
Co297 O322 2.351 . S
Co297 O323 2.155 . S
Co297 O324 2.096 . S
C298 N301 1.301 . S
C298 N302 1.328 . S
C298 H303 0.930 . S
C299 C300 1.333 . S
C299 N301 1.317 . S
C299 H304 0.930 . S
C300 C299 1.333 . S
C300 N302 1.350 . S
C300 H326 0.931 . S
N301 Co297 2.148 . S
N301 C298 1.301 . S
N301 C299 1.317 . S
N302 C298 1.328 . S
N302 C300 1.350 . S
H303 C298 0.930 . S
H304 C299 0.930 . S
C305 O306 1.224 . S
C305 O324 1.247 . S
O306 C305 1.224 . S
N307 Co297 2.128 . S
N307 C308 1.355 . S
N307 C310 1.311 . S
C308 N307 1.355 . S
C308 C309 1.363 . S
C308 H320 0.929 . S
C309 C308 1.363 . S
C309 N311 1.375 . S
C309 H327 0.931 . S
C310 N307 1.311 . S
C310 N311 1.347 . S
C310 H321 0.929 . S
N311 C309 1.375 . S
N311 C310 1.347 . S
C312 C315 1.365 . S
C312 N317 1.328 . S
C312 H318 0.929 . S
C313 C314 1.362 . S
C313 C316 1.378 . S
C313 H328 0.929 . S
C314 C313 1.362 . S
C314 C315 1.366 . S
C315 C312 1.365 . S
C315 C314 1.366 . S
C315 H329 0.930 . S
C316 C313 1.378 . S
C316 N317 1.315 . S
C316 H319 0.930 . S
N317 Co297 2.194 . S
N317 C312 1.328 . S
N317 C316 1.315 . S
H318 C312 0.929 . S
H319 C316 0.930 . S
H320 C308 0.929 . S
H321 C310 0.929 . S
O322 Co297 2.351 . S
O322 C325 1.244 . S
O323 Co297 2.155 . S
O323 C325 1.240 . S
O324 Co297 2.096 . S
O324 C305 1.247 . S
C325 O322 1.244 . S
C325 O323 1.240 . S
H326 C300 0.931 . S
H327 C309 0.931 . S
H328 C313 0.929 . S
H329 C315 0.930 . S
Co330 N334 2.148 . S
Co330 N340 2.128 . S
Co330 N350 2.194 . S
Co330 O355 2.351 . S
Co330 O356 2.155 . S
Co330 O357 2.096 . S
C331 N334 1.301 . S
C331 N335 1.328 . S
C331 H336 0.930 . S
C332 C333 1.333 . S
C332 N334 1.317 . S
C332 H337 0.930 . S
C333 C332 1.333 . S
C333 N335 1.350 . S
C333 H359 0.931 . S
N334 Co330 2.148 . S
N334 C331 1.301 . S
N334 C332 1.317 . S
N335 C331 1.328 . S
N335 C333 1.350 . S
H336 C331 0.930 . S
H337 C332 0.930 . S
C338 O339 1.224 . S
C338 O357 1.247 . S
O339 C338 1.224 . S
N340 Co330 2.128 . S
N340 C341 1.355 . S
N340 C343 1.311 . S
C341 N340 1.355 . S
C341 C342 1.363 . S
C341 H353 0.929 . S
C342 C341 1.363 . S
C342 N344 1.375 . S
C342 H360 0.931 . S
C343 N340 1.311 . S
C343 N344 1.347 . S
C343 H354 0.929 . S
N344 C342 1.375 . S
N344 C343 1.347 . S
C345 C348 1.365 . S
C345 N350 1.328 . S
C345 H351 0.929 . S
C346 C347 1.362 . S
C346 C349 1.378 . S
C346 H361 0.929 . S
C347 C346 1.362 . S
C347 C348 1.366 . S
C348 C345 1.365 . S
C348 C347 1.366 . S
C348 H362 0.930 . S
C349 C346 1.378 . S
C349 N350 1.315 . S
C349 H352 0.930 . S
N350 Co330 2.194 . S
N350 C345 1.328 . S
N350 C349 1.315 . S
H351 C345 0.929 . S
H352 C349 0.930 . S
H353 C341 0.929 . S
H354 C343 0.929 . S
O355 Co330 2.351 . S
O355 C358 1.244 . S
O356 Co330 2.155 . S
O356 C358 1.240 . S
O357 Co330 2.096 . S
O357 C338 1.247 . S
C358 O355 1.244 . S
C358 O356 1.240 . S
H359 C333 0.931 . S
H360 C342 0.931 . S
H361 C346 0.929 . S
H362 C348 0.930 . S
Co363 N367 2.148 . S
Co363 N373 2.128 . S
Co363 N383 2.194 . S
Co363 O388 2.351 . S
Co363 O389 2.155 . S
Co363 O390 2.096 . S
C364 N367 1.301 . S
C364 N368 1.328 . S
C364 H369 0.930 . S
C365 C366 1.333 . S
C365 N367 1.317 . S
C365 H370 0.930 . S
C366 C365 1.333 . S
C366 N368 1.350 . S
C366 H392 0.931 . S
N367 Co363 2.148 . S
N367 C364 1.301 . S
N367 C365 1.317 . S
N368 C364 1.328 . S
N368 C366 1.350 . S
H369 C364 0.930 . S
H370 C365 0.930 . S
C371 O372 1.224 . S
C371 O390 1.247 . S
O372 C371 1.224 . S
N373 Co363 2.128 . S
N373 C374 1.355 . S
N373 C376 1.311 . S
C374 N373 1.355 . S
C374 C375 1.363 . S
C374 H386 0.929 . S
C375 C374 1.363 . S
C375 N377 1.375 . S
C375 H393 0.931 . S
C376 N373 1.311 . S
C376 N377 1.347 . S
C376 H387 0.929 . S
N377 C375 1.375 . S
N377 C376 1.347 . S
C378 C381 1.365 . S
C378 N383 1.328 . S
C378 H384 0.929 . S
C379 C380 1.362 . S
C379 C382 1.378 . S
C379 H394 0.929 . S
C380 C379 1.362 . S
C380 C381 1.366 . S
C381 C378 1.365 . S
C381 C380 1.366 . S
C381 H395 0.930 . S
C382 C379 1.378 . S
C382 N383 1.315 . S
C382 H385 0.930 . S
N383 Co363 2.194 . S
N383 C378 1.328 . S
N383 C382 1.315 . S
H384 C378 0.929 . S
H385 C382 0.930 . S
H386 C374 0.929 . S
H387 C376 0.929 . S
O388 Co363 2.351 . S
O388 C391 1.244 . S
O389 Co363 2.155 . S
O389 C391 1.240 . S
O390 Co363 2.096 . S
O390 C371 1.247 . S
C391 O388 1.244 . S
C391 O389 1.240 . S
H392 C366 0.931 . S
H393 C375 0.931 . S
H394 C379 0.929 . S
H395 C381 0.930 . S
H396 C402 0.930 . S
H397 C405 0.930 . S
H398 C406 0.930 . S
H399 C407 0.930 . S
H400 C410 0.930 . S
H401 C411 0.930 . S
C402 H396 0.930 . S
C402 C403 1.355 . S
C402 C404 1.415 . S
C403 C402 1.355 . S
C403 C405 1.419 . S
C404 C402 1.415 . S
C404 C409 1.425 . S
C404 C411 1.409 . S
C405 H397 0.930 . S
C405 C403 1.419 . S
C405 C406 1.362 . S
C406 H398 0.930 . S
C406 C405 1.362 . S
C406 C409 1.409 . S
C407 H399 0.930 . S
C407 C408 1.355 . S
C407 C409 1.415 . S
C408 C407 1.355 . S
C408 C410 1.419 . S
C409 C404 1.425 . S
C409 C406 1.409 . S
C409 C407 1.415 . S
C410 H400 0.930 . S
C410 C408 1.419 . S
C410 C411 1.362 . S
C411 H401 0.930 . S
C411 C404 1.409 . S
C411 C410 1.362 . S
H412 C418 0.930 . S
H413 C421 0.930 . S
H414 C422 0.930 1_455 S
H415 C423 0.930 . S
H416 C426 0.930 . S
H417 C427 0.930 1_655 S
C418 H412 0.930 . S
C418 C419 1.355 . S
C418 C420 1.415 . S
C419 C418 1.355 . S
C419 C421 1.419 . S
C420 C418 1.415 . S
C420 C425 1.425 1_655 S
C420 C427 1.409 1_655 S
C421 H413 0.930 . S
C421 C419 1.419 . S
C421 C422 1.362 . S
C422 H414 0.930 1_655 S
C422 C421 1.362 . S
C422 C425 1.409 1_655 S
C423 H415 0.930 . S
C423 C424 1.355 . S
C423 C425 1.415 . S
C424 C423 1.355 . S
C424 C426 1.419 . S
C425 C420 1.425 1_455 S
C425 C422 1.409 1_455 S
C425 C423 1.415 . S
C426 H416 0.930 . S
C426 C424 1.419 . S
C426 C427 1.362 . S
C427 H417 0.930 1_455 S
C427 C420 1.409 1_455 S
C427 C426 1.362 . S
H428 C434 0.930 . S
H429 C437 0.930 . S
H430 C438 0.930 . S
H431 C439 0.930 . S
H432 C442 0.930 . S
H433 C443 0.930 . S
C434 H428 0.930 . S
C434 C435 1.355 . S
C434 C436 1.415 . S
C435 C434 1.355 . S
C435 C437 1.419 . S
C436 C434 1.415 . S
C436 C441 1.425 1_545 S
C436 C443 1.409 1_545 S
C437 H429 0.930 . S
C437 C435 1.419 . S
C437 C438 1.362 . S
C438 H430 0.930 . S
C438 C437 1.362 . S
C438 C441 1.409 1_545 S
C439 H431 0.930 . S
C439 C440 1.355 . S
C439 C441 1.415 . S
C440 C439 1.355 . S
C440 C442 1.419 . S
C441 C436 1.425 1_565 S
C441 C438 1.409 1_565 S
C441 C439 1.415 . S
C442 H432 0.930 . S
C442 C440 1.419 . S
C442 C443 1.362 . S
C443 H433 0.930 . S
C443 C436 1.409 1_565 S
C443 C442 1.362 . S
H444 C450 0.930 . S
H445 C453 0.930 . S
H446 C454 0.930 . S
H447 C455 0.930 . S
H448 C458 0.930 . S
H449 C459 0.930 . S
C450 H444 0.930 . S
C450 C451 1.355 . S
C450 C452 1.415 . S
C451 C450 1.355 . S
C451 C453 1.419 . S
C452 C450 1.415 . S
C452 C457 1.425 . S
C452 C459 1.409 . S
C453 H445 0.930 . S
C453 C451 1.419 . S
C453 C454 1.362 . S
C454 H446 0.930 . S
C454 C453 1.362 . S
C454 C457 1.409 . S
C455 H447 0.930 . S
C455 C456 1.355 . S
C455 C457 1.415 . S
C456 C455 1.355 . S
C456 C458 1.419 . S
C457 C452 1.425 . S
C457 C454 1.409 . S
C457 C455 1.415 . S
C458 H448 0.930 . S
C458 C456 1.419 . S
C458 C459 1.362 . S
C459 H449 0.930 . S
C459 C452 1.409 . S
C459 C458 1.362 . S
H460 C466 0.930 . S
H461 C469 0.930 . S
H462 C470 0.930 . S
H463 C471 0.930 . S
H464 C474 0.930 . S
H465 C475 0.930 . S
C466 H460 0.930 . S
C466 C467 1.355 . S
C466 C468 1.415 . S
C467 C466 1.355 . S
C467 C469 1.419 . S
C468 C466 1.415 . S
C468 C473 1.425 1_455 S
C468 C475 1.409 1_455 S
C469 H461 0.930 . S
C469 C467 1.419 . S
C469 C470 1.362 . S
C470 H462 0.930 . S
C470 C469 1.362 . S
C470 C473 1.409 1_455 S
C471 H463 0.930 . S
C471 C472 1.355 . S
C471 C473 1.415 . S
C472 C471 1.355 . S
C472 C474 1.419 . S
C473 C468 1.425 1_655 S
C473 C470 1.409 1_655 S
C473 C471 1.415 . S
C474 H464 0.930 . S
C474 C472 1.419 . S
C474 C475 1.362 . S
C475 H465 0.930 . S
C475 C468 1.409 1_655 S
C475 C474 1.362 . S
H476 C482 0.930 . S
H477 C485 0.930 . S
H478 C486 0.930 . S
H479 C487 0.930 . S
H480 C490 0.930 . S
H481 C491 0.930 . S
C482 H476 0.930 . S
C482 C483 1.355 . S
C482 C484 1.415 . S
C483 C482 1.355 . S
C483 C485 1.419 . S
C484 C482 1.415 . S
C484 C489 1.425 1_565 S
C484 C491 1.409 1_565 S
C485 H477 0.930 . S
C485 C483 1.419 . S
C485 C486 1.362 . S
C486 H478 0.930 . S
C486 C485 1.362 . S
C486 C489 1.409 1_565 S
C487 H479 0.930 . S
C487 C488 1.355 . S
C487 C489 1.415 . S
C488 C487 1.355 . S
C488 C490 1.419 . S
C489 C484 1.425 1_545 S
C489 C486 1.409 1_545 S
C489 C487 1.415 . S
C490 H480 0.930 . S
C490 C488 1.419 . S
C490 C491 1.362 . S
C491 H481 0.930 . S
C491 C484 1.409 1_545 S
C491 C490 1.362 . S
H492 C498 0.930 . S
H493 C501 0.930 . S
H494 C502 0.930 . S
H495 C503 0.930 . S
H496 C506 0.930 . S
H497 C507 0.930 . S
C498 H492 0.930 . S
C498 C499 1.355 . S
C498 C500 1.415 . S
C499 C498 1.355 . S
C499 C501 1.419 . S
C500 C498 1.415 . S
C500 C505 1.425 1_556 S
C500 C507 1.409 1_556 S
C501 H493 0.930 . S
C501 C499 1.419 . S
C501 C502 1.362 . S
C502 H494 0.930 . S
C502 C501 1.362 . S
C502 C505 1.409 1_556 S
C503 H495 0.930 . S
C503 C504 1.355 . S
C503 C505 1.415 . S
C504 C503 1.355 . S
C504 C506 1.419 . S
C505 C500 1.425 1_554 S
C505 C502 1.409 1_554 S
C505 C503 1.415 . S
C506 H496 0.930 . S
C506 C504 1.419 . S
C506 C507 1.362 . S
C507 H497 0.930 . S
C507 C500 1.409 1_554 S
C507 C506 1.362 . S
H508 C514 0.930 . S
H509 C517 0.930 . S
H510 C518 0.930 . S
H511 C519 0.930 . S
H512 C522 0.930 . S
H513 C523 0.930 . S
C514 H508 0.930 . S
C514 C515 1.355 . S
C514 C516 1.415 . S
C515 C514 1.355 . S
C515 C517 1.419 . S
C516 C514 1.415 . S
C516 C521 1.425 . S
C516 C523 1.409 . S
C517 H509 0.930 . S
C517 C515 1.419 . S
C517 C518 1.362 . S
C518 H510 0.930 . S
C518 C517 1.362 . S
C518 C521 1.409 . S
C519 H511 0.930 . S
C519 C520 1.355 . S
C519 C521 1.415 . S
C520 C519 1.355 . S
C520 C522 1.419 . S
C521 C516 1.425 . S
C521 C518 1.409 . S
C521 C519 1.415 . S
C522 H512 0.930 . S
C522 C520 1.419 . S
C522 C523 1.362 . S
C523 H513 0.930 . S
C523 C516 1.409 . S
C523 C522 1.362 . S
H524 C530 0.930 . S
H525 C533 0.930 . S
H526 C534 0.931 . S
H527 C535 0.930 . S
H528 C538 0.930 . S
H529 C539 0.931 . S
C530 H524 0.930 . S
C530 C531 1.355 . S
C530 C532 1.415 . S
C531 C530 1.355 . S
C531 C533 1.419 . S
C532 C530 1.415 . S
C532 C537 1.425 1_554 S
C532 C539 1.409 1_554 S
C533 H525 0.930 . S
C533 C531 1.419 . S
C533 C534 1.362 . S
C534 H526 0.931 . S
C534 C533 1.362 . S
C534 C537 1.409 1_554 S
C535 H527 0.930 . S
C535 C536 1.355 . S
C535 C537 1.415 . S
C536 C535 1.355 . S
C536 C538 1.419 . S
C537 C532 1.425 1_556 S
C537 C534 1.409 1_556 S
C537 C535 1.415 . S
C538 H528 0.930 . S
C538 C536 1.419 . S
C538 C539 1.362 . S
C539 H529 0.931 . S
C539 C532 1.409 1_556 S
C539 C538 1.362 . S
H540 C546 0.930 . S
H541 C549 0.930 . S
H542 C550 0.930 . S
H543 C551 0.930 . S
H544 C554 0.930 . S
H545 C555 0.930 . S
C546 H540 0.930 . S
C546 C547 1.355 . S
C546 C548 1.415 . S
C547 C546 1.355 . S
C547 C549 1.419 . S
C548 C546 1.415 . S
C548 C553 1.425 . S
C548 C555 1.409 . S
C549 H541 0.930 . S
C549 C547 1.419 . S
C549 C550 1.362 . S
C550 H542 0.930 . S
C550 C549 1.362 . S
C550 C553 1.409 . S
C551 H543 0.930 . S
C551 C552 1.355 . S
C551 C553 1.415 . S
C552 C551 1.355 . S
C552 C554 1.419 . S
C553 C548 1.425 . S
C553 C550 1.409 . S
C553 C551 1.415 . S
C554 H544 0.930 . S
C554 C552 1.419 . S
C554 C555 1.362 . S
C555 H545 0.930 . S
C555 C548 1.409 . S
C555 C554 1.362 . S
H556 C562 0.930 . S
H557 C565 0.930 . S
H558 C566 0.921 1_554 S
H559 C567 0.930 . S
H560 C570 0.930 . S
H561 C571 0.921 1_556 S
C562 H556 0.930 . S
C562 C563 1.355 . S
C562 C564 1.415 . S
C563 C562 1.355 . S
C563 C565 1.419 . S
C564 C562 1.415 . S
C564 C569 1.425 1_556 S
C564 C571 1.409 1_556 S
C565 H557 0.930 . S
C565 C563 1.419 . S
C565 C566 1.362 . S
C566 H558 0.921 1_556 S
C566 C565 1.362 . S
C566 C569 1.409 1_556 S
C567 H559 0.930 . S
C567 C568 1.355 . S
C567 C569 1.415 . S
C568 C567 1.355 . S
C568 C570 1.419 . S
C569 C564 1.425 1_554 S
C569 C566 1.409 1_554 S
C569 C567 1.415 . S
C570 H560 0.930 . S
C570 C568 1.419 . S
C570 C571 1.362 . S
C571 H561 0.921 1_554 S
C571 C564 1.409 1_554 S
C571 C570 1.362 . S
H572 C578 0.930 . S
H573 C581 0.930 . S
H574 C582 0.930 . S
H575 C583 0.930 . S
H576 C586 0.930 . S
H577 C587 0.930 . S
C578 H572 0.930 . S
C578 C579 1.355 . S
C578 C580 1.415 . S
C579 C578 1.355 . S
C579 C581 1.419 . S
C580 C578 1.415 . S
C580 C585 1.425 . S
C580 C587 1.409 . S
C581 H573 0.930 . S
C581 C579 1.419 . S
C581 C582 1.362 . S
C582 H574 0.930 . S
C582 C581 1.362 . S
C582 C585 1.409 . S
C583 H575 0.930 . S
C583 C584 1.355 . S
C583 C585 1.415 . S
C584 C583 1.355 . S
C584 C586 1.419 . S
C585 C580 1.425 . S
C585 C582 1.409 . S
C585 C583 1.415 . S
C586 H576 0.930 . S
C586 C584 1.419 . S
C586 C587 1.362 . S
C587 H577 0.930 . S
C587 C580 1.409 . S
C587 C586 1.362 . S
H588 C594 0.930 . S
H589 C597 0.930 . S
H590 C598 0.930 . S
H591 C599 0.930 . S
H592 C602 0.930 . S
H593 C603 0.930 . S
C594 H588 0.930 . S
C594 C595 1.355 . S
C594 C596 1.415 . S
C595 C594 1.355 . S
C595 C597 1.419 . S
C596 C594 1.415 . S
C596 C601 1.425 1_554 S
C596 C603 1.409 1_554 S
C597 H589 0.930 . S
C597 C595 1.419 . S
C597 C598 1.362 . S
C598 H590 0.930 . S
C598 C597 1.362 . S
C598 C601 1.409 1_554 S
C599 H591 0.930 . S
C599 C600 1.355 . S
C599 C601 1.415 . S
C600 C599 1.355 . S
C600 C602 1.419 . S
C601 C596 1.425 1_556 S
C601 C598 1.409 1_556 S
C601 C599 1.415 . S
C602 H592 0.930 . S
C602 C600 1.419 . S
C602 C603 1.362 . S
C603 H593 0.930 . S
C603 C596 1.409 1_556 S
C603 C602 1.362 . S
H604 C610 0.930 . S
H605 C613 0.930 . S
H606 C614 0.930 . S
H607 C615 0.930 . S
H608 C618 0.930 . S
H609 C619 0.930 . S
C610 H604 0.930 . S
C610 C611 1.355 . S
C610 C612 1.415 . S
C611 C610 1.355 . S
C611 C613 1.419 . S
C612 C610 1.415 . S
C612 C617 1.425 . S
C612 C619 1.409 . S
C613 H605 0.930 . S
C613 C611 1.419 . S
C613 C614 1.362 . S
C614 H606 0.930 . S
C614 C613 1.362 . S
C614 C617 1.409 . S
C615 H607 0.930 . S
C615 C616 1.355 . S
C615 C617 1.415 . S
C616 C615 1.355 . S
C616 C618 1.419 . S
C617 C612 1.425 . S
C617 C614 1.409 . S
C617 C615 1.415 . S
C618 H608 0.930 . S
C618 C616 1.419 . S
C618 C619 1.362 . S
C619 H609 0.930 . S
C619 C612 1.409 . S
C619 C618 1.362 . S
H620 C626 0.930 . S
H621 C629 0.930 . S
H622 C630 0.930 . S
H623 C631 0.930 . S
H624 C634 0.930 . S
H625 C635 0.930 . S
C626 H620 0.930 . S
C626 C627 1.355 . S
C626 C628 1.415 . S
C627 C626 1.355 . S
C627 C629 1.419 . S
C628 C626 1.415 . S
C628 C633 1.425 1_556 S
C628 C635 1.409 1_556 S
C629 H621 0.930 . S
C629 C627 1.419 . S
C629 C630 1.362 . S
C630 H622 0.930 . S
C630 C629 1.362 . S
C630 C633 1.409 1_556 S
C631 H623 0.930 . S
C631 C632 1.355 . S
C631 C633 1.415 . S
C632 C631 1.355 . S
C632 C634 1.419 . S
C633 C628 1.425 1_554 S
C633 C630 1.409 1_554 S
C633 C631 1.415 . S
C634 H624 0.930 . S
C634 C632 1.419 . S
C634 C635 1.362 . S
C635 H625 0.930 . S
C635 C628 1.409 1_554 S
C635 C634 1.362 . S
H636 C642 0.930 . S
H637 C645 0.930 . S
H638 C646 0.930 . S
H639 C647 0.930 . S
H640 C650 0.930 . S
H641 C651 0.930 . S
C642 H636 0.930 . S
C642 C643 1.355 . S
C642 C644 1.415 . S
C643 C642 1.355 . S
C643 C645 1.419 . S
C644 C642 1.415 . S
C644 C649 1.425 . S
C644 C651 1.409 . S
C645 H637 0.930 . S
C645 C643 1.419 . S
C645 C646 1.362 . S
C646 H638 0.930 . S
C646 C645 1.362 . S
C646 C649 1.409 . S
C647 H639 0.930 . S
C647 C648 1.355 . S
C647 C649 1.415 . S
C648 C647 1.355 . S
C648 C650 1.419 . S
C649 C644 1.425 . S
C649 C646 1.409 . S
C649 C647 1.415 . S
C650 H640 0.930 . S
C650 C648 1.419 . S
C650 C651 1.362 . S
C651 H641 0.930 . S
C651 C644 1.409 . S
C651 C650 1.362 . S
H652 C658 0.930 . S
H653 C661 0.930 . S
H654 C662 0.930 . S
H655 C663 0.930 . S
H656 C666 0.930 . S
H657 C667 0.930 . S
C658 H652 0.930 . S
C658 C659 1.355 . S
C658 C660 1.415 . S
C659 C658 1.355 . S
C659 C661 1.419 . S
C660 C658 1.415 . S
C660 C665 1.425 1_556 S
C660 C667 1.409 1_556 S
C661 H653 0.930 . S
C661 C659 1.419 . S
C661 C662 1.362 . S
C662 H654 0.930 . S
C662 C661 1.362 . S
C662 C665 1.409 1_556 S
C663 H655 0.930 . S
C663 C664 1.355 . S
C663 C665 1.415 . S
C664 C663 1.355 . S
C664 C666 1.419 . S
C665 C660 1.425 1_554 S
C665 C662 1.409 1_554 S
C665 C663 1.415 . S
C666 H656 0.930 . S
C666 C664 1.419 . S
C666 C667 1.362 . S
C667 H657 0.930 . S
C667 C660 1.409 1_554 S
C667 C666 1.362 . S
H668 C674 0.930 . S
H669 C677 0.930 . S
H670 C678 0.930 . S
H671 C679 0.930 . S
H672 C682 0.930 . S
H673 C683 0.930 . S
C674 H668 0.930 . S
C674 C675 1.355 . S
C674 C676 1.415 . S
C675 C674 1.355 . S
C675 C677 1.419 . S
C676 C674 1.415 . S
C676 C681 1.425 . S
C676 C683 1.409 . S
C677 H669 0.930 . S
C677 C675 1.419 . S
C677 C678 1.362 . S
C678 H670 0.930 . S
C678 C677 1.362 . S
C678 C681 1.409 . S
C679 H671 0.930 . S
C679 C680 1.355 . S
C679 C681 1.415 . S
C680 C679 1.355 . S
C680 C682 1.419 . S
C681 C676 1.425 . S
C681 C678 1.409 . S
C681 C679 1.415 . S
C682 H672 0.930 . S
C682 C680 1.419 . S
C682 C683 1.362 . S
C683 H673 0.930 . S
C683 C676 1.409 . S
C683 C682 1.362 . S
H684 C690 0.930 . S
H685 C693 0.930 . S
H686 C694 0.930 . S
H687 C695 0.930 . S
H688 C698 0.930 . S
H689 C699 0.930 . S
C690 H684 0.930 . S
C690 C691 1.355 . S
C690 C692 1.415 . S
C691 C690 1.355 . S
C691 C693 1.419 . S
C692 C690 1.415 . S
C692 C697 1.425 . S
C692 C699 1.409 . S
C693 H685 0.930 . S
C693 C691 1.419 . S
C693 C694 1.362 . S
C694 H686 0.930 . S
C694 C693 1.362 . S
C694 C697 1.409 . S
C695 H687 0.930 . S
C695 C696 1.355 . S
C695 C697 1.415 . S
C696 C695 1.355 . S
C696 C698 1.419 . S
C697 C692 1.425 . S
C697 C694 1.409 . S
C697 C695 1.415 . S
C698 H688 0.930 . S
C698 C696 1.419 . S
C698 C699 1.362 . S
C699 H689 0.930 . S
C699 C692 1.409 . S
C699 C698 1.362 . S
H700 C706 0.930 . S
H701 C709 0.930 . S
H702 C710 0.930 . S
H703 C711 0.930 . S
H704 C714 0.930 . S
H705 C715 0.930 . S
C706 H700 0.930 . S
C706 C707 1.355 . S
C706 C708 1.415 . S
C707 C706 1.355 . S
C707 C709 1.419 . S
C708 C706 1.415 . S
C708 C713 1.425 . S
C708 C715 1.409 . S
C709 H701 0.930 . S
C709 C707 1.419 . S
C709 C710 1.362 . S
C710 H702 0.930 . S
C710 C709 1.362 . S
C710 C713 1.409 . S
C711 H703 0.930 . S
C711 C712 1.355 . S
C711 C713 1.415 . S
C712 C711 1.355 . S
C712 C714 1.419 . S
C713 C708 1.425 . S
C713 C710 1.409 . S
C713 C711 1.415 . S
C714 H704 0.930 . S
C714 C712 1.419 . S
C714 C715 1.362 . S
C715 H705 0.930 . S
C715 C708 1.409 . S
C715 C714 1.362 . S
H716 C722 0.930 . S
H717 C725 0.930 . S
H718 C726 0.930 . S
H719 C727 0.930 . S
H720 C730 0.930 . S
H721 C731 0.930 . S
C722 H716 0.930 . S
C722 C723 1.355 . S
C722 C724 1.415 . S
C723 C722 1.355 . S
C723 C725 1.419 . S
C724 C722 1.415 . S
C724 C729 1.425 . S
C724 C731 1.409 . S
C725 H717 0.930 . S
C725 C723 1.419 . S
C725 C726 1.362 . S
C726 H718 0.930 . S
C726 C725 1.362 . S
C726 C729 1.409 . S
C727 H719 0.930 . S
C727 C728 1.355 . S
C727 C729 1.415 . S
C728 C727 1.355 . S
C728 C730 1.419 . S
C729 C724 1.425 . S
C729 C726 1.409 . S
C729 C727 1.415 . S
C730 H720 0.930 . S
C730 C728 1.419 . S
C730 C731 1.362 . S
C731 H721 0.930 . S
C731 C724 1.409 . S
C731 C730 1.362 . S
H732 C738 0.930 . S
H733 C741 0.930 . S
H734 C742 0.930 . S
H735 C743 0.930 . S
H736 C746 0.930 . S
H737 C747 0.930 . S
C738 H732 0.930 . S
C738 C739 1.355 . S
C738 C740 1.415 . S
C739 C738 1.355 . S
C739 C741 1.419 . S
C740 C738 1.415 . S
C740 C745 1.425 . S
C740 C747 1.409 . S
C741 H733 0.930 . S
C741 C739 1.419 . S
C741 C742 1.362 . S
C742 H734 0.930 . S
C742 C741 1.362 . S
C742 C745 1.409 . S
C743 H735 0.930 . S
C743 C744 1.355 . S
C743 C745 1.415 . S
C744 C743 1.355 . S
C744 C746 1.419 . S
C745 C740 1.425 . S
C745 C742 1.409 . S
C745 C743 1.415 . S
C746 H736 0.930 . S
C746 C744 1.419 . S
C746 C747 1.362 . S
C747 H737 0.930 . S
C747 C740 1.409 . S
C747 C746 1.362 . S
H748 C754 0.930 . S
H749 C757 0.930 . S
H750 C758 0.930 . S
H751 C759 0.930 . S
H752 C762 0.930 . S
H753 C763 0.930 . S
C754 H748 0.930 . S
C754 C755 1.355 . S
C754 C756 1.415 . S
C755 C754 1.355 . S
C755 C757 1.419 . S
C756 C754 1.415 . S
C756 C761 1.425 . S
C756 C763 1.409 . S
C757 H749 0.930 . S
C757 C755 1.419 . S
C757 C758 1.362 . S
C758 H750 0.930 . S
C758 C757 1.362 . S
C758 C761 1.409 . S
C759 H751 0.930 . S
C759 C760 1.355 . S
C759 C761 1.415 . S
C760 C759 1.355 . S
C760 C762 1.419 . S
C761 C756 1.425 . S
C761 C758 1.409 . S
C761 C759 1.415 . S
C762 H752 0.930 . S
C762 C760 1.419 . S
C762 C763 1.362 . S
C763 H753 0.930 . S
C763 C756 1.409 . S
C763 C762 1.362 . S
H764 C770 0.930 . S
H765 C773 0.930 . S
H766 C774 0.930 . S
H767 C775 0.930 . S
H768 C778 0.930 . S
H769 C779 0.930 . S
C770 H764 0.930 . S
C770 C771 1.355 . S
C770 C772 1.415 . S
C771 C770 1.355 . S
C771 C773 1.419 . S
C772 C770 1.415 . S
C772 C777 1.425 . S
C772 C779 1.409 . S
C773 H765 0.930 . S
C773 C771 1.419 . S
C773 C774 1.362 . S
C774 H766 0.930 . S
C774 C773 1.362 . S
C774 C777 1.409 . S
C775 H767 0.930 . S
C775 C776 1.355 . S
C775 C777 1.415 . S
C776 C775 1.355 . S
C776 C778 1.419 . S
C777 C772 1.425 . S
C777 C774 1.409 . S
C777 C775 1.415 . S
C778 H768 0.930 . S
C778 C776 1.419 . S
C778 C779 1.362 . S
C779 H769 0.930 . S
C779 C772 1.409 . S
C779 C778 1.362 . S
H780 C786 0.930 . S
H781 C789 0.930 . S
H782 C790 0.930 . S
H783 C791 0.930 . S
H784 C794 0.930 . S
H785 C795 0.930 . S
C786 H780 0.930 . S
C786 C787 1.355 . S
C786 C788 1.415 . S
C787 C786 1.355 . S
C787 C789 1.419 . S
C788 C786 1.415 . S
C788 C793 1.425 . S
C788 C795 1.409 . S
C789 H781 0.930 . S
C789 C787 1.419 . S
C789 C790 1.362 . S
C790 H782 0.930 . S
C790 C789 1.362 . S
C790 C793 1.409 . S
C791 H783 0.930 . S
C791 C792 1.355 . S
C791 C793 1.415 . S
C792 C791 1.355 . S
C792 C794 1.419 . S
C793 C788 1.425 . S
C793 C790 1.409 . S
C793 C791 1.415 . S
C794 H784 0.930 . S
C794 C792 1.419 . S
C794 C795 1.362 . S
C795 H785 0.930 . S
C795 C788 1.409 . S
C795 C794 1.362 . S
H796 C802 0.930 . S
H797 C805 0.930 . S
H798 C806 0.930 . S
H799 C807 0.930 . S
H800 C810 0.930 . S
H801 C811 0.930 . S
C802 H796 0.930 . S
C802 C803 1.355 . S
C802 C804 1.415 . S
C803 C802 1.355 . S
C803 C805 1.419 . S
C804 C802 1.415 . S
C804 C809 1.425 . S
C804 C811 1.409 . S
C805 H797 0.930 . S
C805 C803 1.419 . S
C805 C806 1.362 . S
C806 H798 0.930 . S
C806 C805 1.362 . S
C806 C809 1.409 . S
C807 H799 0.930 . S
C807 C808 1.355 . S
C807 C809 1.415 . S
C808 C807 1.355 . S
C808 C810 1.419 . S
C809 C804 1.425 . S
C809 C806 1.409 . S
C809 C807 1.415 . S
C810 H800 0.930 . S
C810 C808 1.419 . S
C810 C811 1.362 . S
C811 H801 0.930 . S
C811 C804 1.409 . S
C811 C810 1.362 . S
H812 C818 0.930 . S
H813 C821 0.930 . S
H814 C822 0.930 . S
H815 C823 0.930 . S
H816 C826 0.930 . S
H817 C827 0.930 . S
C818 H812 0.930 . S
C818 C819 1.355 . S
C818 C820 1.415 . S
C819 C818 1.355 . S
C819 C821 1.419 . S
C820 C818 1.415 . S
C820 C825 1.425 . S
C820 C827 1.409 . S
C821 H813 0.930 . S
C821 C819 1.419 . S
C821 C822 1.362 . S
C822 H814 0.930 . S
C822 C821 1.362 . S
C822 C825 1.409 . S
C823 H815 0.930 . S
C823 C824 1.355 . S
C823 C825 1.415 . S
C824 C823 1.355 . S
C824 C826 1.419 . S
C825 C820 1.425 . S
C825 C822 1.409 . S
C825 C823 1.415 . S
C826 H816 0.930 . S
C826 C824 1.419 . S
C826 C827 1.362 . S
C827 H817 0.930 . S
C827 C820 1.409 . S
C827 C826 1.362 . S
H828 C834 0.930 . S
H829 C837 0.930 . S
H830 C838 0.930 . S
H831 C839 0.930 . S
H832 C842 0.930 . S
H833 C843 0.930 . S
C834 H828 0.930 . S
C834 C835 1.355 . S
C834 C836 1.415 . S
C835 C834 1.355 . S
C835 C837 1.419 . S
C836 C834 1.415 . S
C836 C841 1.425 . S
C836 C843 1.409 . S
C837 H829 0.930 . S
C837 C835 1.419 . S
C837 C838 1.362 . S
C838 H830 0.930 . S
C838 C837 1.362 . S
C838 C841 1.409 . S
C839 H831 0.930 . S
C839 C840 1.355 . S
C839 C841 1.415 . S
C840 C839 1.355 . S
C840 C842 1.419 . S
C841 C836 1.425 . S
C841 C838 1.409 . S
C841 C839 1.415 . S
C842 H832 0.930 . S
C842 C840 1.419 . S
C842 C843 1.362 . S
C843 H833 0.930 . S
C843 C836 1.409 . S
C843 C842 1.362 . S
H844 C850 0.930 . S
H845 C853 0.930 . S
H846 C854 0.930 . S
H847 C855 0.930 . S
H848 C858 0.930 . S
H849 C859 0.930 . S
C850 H844 0.930 . S
C850 C851 1.355 . S
C850 C852 1.415 . S
C851 C850 1.355 . S
C851 C853 1.419 . S
C852 C850 1.415 . S
C852 C857 1.425 . S
C852 C859 1.409 . S
C853 H845 0.930 . S
C853 C851 1.419 . S
C853 C854 1.362 . S
C854 H846 0.930 . S
C854 C853 1.362 . S
C854 C857 1.409 . S
C855 H847 0.930 . S
C855 C856 1.355 . S
C855 C857 1.415 . S
C856 C855 1.355 . S
C856 C858 1.419 . S
C857 C852 1.425 . S
C857 C854 1.409 . S
C857 C855 1.415 . S
C858 H848 0.930 . S
C858 C856 1.419 . S
C858 C859 1.362 . S
C859 H849 0.930 . S
C859 C852 1.409 . S
C859 C858 1.362 . S
H860 C866 0.930 . S
H861 C869 0.930 . S
H862 C870 0.930 . S
H863 C871 0.930 . S
H864 C874 0.930 . S
H865 C875 0.930 . S
C866 H860 0.930 . S
C866 C867 1.355 . S
C866 C868 1.415 . S
C867 C866 1.355 . S
C867 C869 1.419 . S
C868 C866 1.415 . S
C868 C873 1.425 . S
C868 C875 1.409 . S
C869 H861 0.930 . S
C869 C867 1.419 . S
C869 C870 1.362 . S
C870 H862 0.930 . S
C870 C869 1.362 . S
C870 C873 1.409 . S
C871 H863 0.930 . S
C871 C872 1.355 . S
C871 C873 1.415 . S
C872 C871 1.355 . S
C872 C874 1.419 . S
C873 C868 1.425 . S
C873 C870 1.409 . S
C873 C871 1.415 . S
C874 H864 0.930 . S
C874 C872 1.419 . S
C874 C875 1.362 . S
C875 H865 0.930 . S
C875 C868 1.409 . S
C875 C874 1.362 . S
C403 N302 1.682 . S
C408 N5 1.734 . S
C419 N38 1.692 . S
C424 N335 1.730 . S
C435 N368 1.716 . S
C440 N71 1.662 . S
C451 N104 1.687 . S
C456 N203 1.733 . S
C467 N137 1.670 . S
C472 N236 1.734 . S
C483 N269 1.733 . S
C488 N170 1.668 . S
C499 C347 1.239 . S
C504 C17 1.191 . S
C515 C380 1.206 . S
C520 C50 1.245 . S
C531 C83 1.248 . S
C536 C215 1.227 . S
C547 C248 1.219 . S
C552 C116 1.248 . S
C563 C281 1.201 . S
C568 C149 1.244 . S
C579 C182 1.198 . S
C584 C314 1.152 . S
C595 C259 1.531 . S
C600 C127 1.569 . S
C611 C292 1.591 . S
C616 C160 1.554 . S
C627 C193 1.595 . S
C632 C325 1.548 . S
C643 C28 1.598 . S
C648 C358 1.537 . S
C659 C61 1.594 . S
C664 C391 1.549 . S
C675 C226 1.526 . S
C680 C94 1.597 . S
C691 N14 1.464 . S
C696 C140 1.460 . S
C707 N47 1.463 . S
C712 C173 1.465 . S
C723 N80 1.456 . S
C728 C8 1.464 . S
C739 C41 1.463 . S
C744 N113 1.467 . S
C755 N146 1.465 . S
C760 C74 1.460 . S
C771 C107 1.465 . S
C776 N179 1.459 . S
C787 C272 1.462 . S
C792 N212 1.457 . S
C803 C305 1.460 . S
C808 N245 1.462 . S
C819 C338 1.465 . S
C824 N278 1.463 . S
C835 N311 1.468 . S
C840 C371 1.462 . S
C851 C206 1.465 . S
C856 N344 1.465 . S
C867 N377 1.456 . S
C872 C239 1.464 . S
