# Generated by pormake.
# Topology qtz-e, (6)-cn, num edge types: 1
# Building blocks:
#     Node 0, Type 0, BuildingBlock: BETDEL_clean_sbu_0, # of connection points: 6
#     Node 1, Type 0, BuildingBlock: BETDEL_clean_sbu_0, # of connection points: 6
#     Node 2, Type 0, BuildingBlock: BETDEL_clean_sbu_0, # of connection points: 6
#     Node 3, Type 0, BuildingBlock: BETDEL_clean_sbu_0, # of connection points: 6
#     Node 4, Type 0, BuildingBlock: BETDEL_clean_sbu_0, # of connection points: 6
#     Node 5, Type 0, BuildingBlock: BETDEL_clean_sbu_0, # of connection points: 6
#     Edge 6, Type (0, 0), BuildingBlock: KIFKEQ_clean_linker_1, # of connection points: 2
#     Edge 7, Type (0, 0), BuildingBlock: KIFKEQ_clean_linker_1, # of connection points: 2
#     Edge 8, Type (0, 0), BuildingBlock: KIFKEQ_clean_linker_1, # of connection points: 2
#     Edge 9, Type (0, 0), BuildingBlock: KIFKEQ_clean_linker_1, # of connection points: 2
#     Edge 10, Type (0, 0), BuildingBlock: KIFKEQ_clean_linker_1, # of connection points: 2
#     Edge 11, Type (0, 0), BuildingBlock: KIFKEQ_clean_linker_1, # of connection points: 2
#     Edge 12, Type (0, 0), BuildingBlock: KIFKEQ_clean_linker_1, # of connection points: 2
#     Edge 13, Type (0, 0), BuildingBlock: KIFKEQ_clean_linker_1, # of connection points: 2
#     Edge 14, Type (0, 0), BuildingBlock: KIFKEQ_clean_linker_1, # of connection points: 2
#     Edge 15, Type (0, 0), BuildingBlock: KIFKEQ_clean_linker_1, # of connection points: 2
#     Edge 16, Type (0, 0), BuildingBlock: KIFKEQ_clean_linker_1, # of connection points: 2
#     Edge 17, Type (0, 0), BuildingBlock: KIFKEQ_clean_linker_1, # of connection points: 2
#     Edge 18, Type (0, 0), BuildingBlock: KIFKEQ_clean_linker_1, # of connection points: 2
#     Edge 19, Type (0, 0), BuildingBlock: KIFKEQ_clean_linker_1, # of connection points: 2
#     Edge 20, Type (0, 0), BuildingBlock: KIFKEQ_clean_linker_1, # of connection points: 2
#     Edge 21, Type (0, 0), BuildingBlock: KIFKEQ_clean_linker_1, # of connection points: 2
#     Edge 22, Type (0, 0), BuildingBlock: KIFKEQ_clean_linker_1, # of connection points: 2
#     Edge 23, Type (0, 0), BuildingBlock: KIFKEQ_clean_linker_1, # of connection points: 2
# Relax obj value: 0.210
# Max RMSD: 0.208
# Mean RMSD: 0.208
data_MOF--net-qtz-e--node1-BETDEL_clean_sbu_0--edge1-KIFKEQ_clean_linker_1
_symmetry_space_group_name_H-M    P1
_symmetry_Int_Tables_number       1
_symmetry_cell_setting            triclinic
loop_
_symmetry_equiv_pos_as_xyz
'x, y, z'
_cell_length_a     25.321278
_cell_length_b     25.764499
_cell_length_c     39.25434
_cell_angle_alpha  89.791413
_cell_angle_beta   90.141666
_cell_angle_gamma 118.82232
loop_
_atom_site_label
_atom_site_type_symbol
_atom_site_fract_x
_atom_site_fract_y
_atom_site_fract_z
_atom_type_partial_charge
Dy0 Dy 0.17052 0.41615 0.07149 0.0
C1 C 0.16314 0.2323 0.98439 0.0
C2 C 0.16603 0.50426 0.10701 0.0
Dy3 Dy 0.14927 0.3063 0.02922 0.0
O4 O 0.21527 0.50611 0.09577 0.0
O5 O 0.11934 0.45552 0.09727 0.0
O6 O 0.23121 0.39964 0.1051 0.0
O7 O 0.22854 0.38042 0.05344 0.0
C8 C 0.25362 0.38108 0.08146 0.0
C9 C 0.05578 0.32746 0.0359 0.0
O10 O 0.12988 0.26763 0.08191 0.0
O11 O 0.10852 0.33916 0.10355 0.0
O12 O 0.12545 0.25265 0.981 0.0
O13 O 0.19194 0.25066 1.01313 0.0
O14 O 0.04788 0.27402 0.0319 0.0
O15 O 0.11014 0.36376 0.0324 0.0
O16 O 0.20232 0.46144 1.02105 0.0
O17 O 0.19506 0.37969 0.99138 0.0
C18 C 0.10886 0.2881 0.10635 0.0
C19 C 0.20876 0.43627 0.99302 0.0
Dy20 Dy 0.73014 0.18658 0.39663 0.0
C21 C 0.88631 0.13133 0.31721 0.0
C22 C 0.64938 0.21094 0.42862 0.0
Dy23 Dy 0.80813 0.14565 0.35895 0.0
O24 O 0.70284 0.25044 0.41866 0.0
O25 O 0.63908 0.15838 0.41943 0.0
O26 O 0.80359 0.22669 0.43483 0.0
O27 O 0.82661 0.22935 0.384 0.0
C28 C 0.84783 0.24741 0.4134 0.0
C29 C 0.68874 0.0722 0.3584 0.0
O30 O 0.81292 0.11617 0.41214 0.0
O31 O 0.72223 0.11036 0.42774 0.0
O32 O 0.82887 0.10929 0.31217 0.0
O33 O 0.90125 0.16053 0.34578 0.0
O34 O 0.72725 0.05272 0.36125 0.0
O35 O 0.71589 0.12708 0.35549 0.0
O36 O 0.73139 0.2266 0.34566 0.0
O37 O 0.80682 0.21129 0.32155 0.0
C38 C 0.76685 0.09844 0.43346 0.0
C39 C 0.76934 0.23366 0.32053 0.0
Dy40 Dy 0.47816 0.72357 0.73225 0.0
C41 C 0.68735 0.86851 0.64847 0.0
C42 C 0.39048 0.65798 0.77777 0.0
Dy43 Dy 0.60239 0.79143 0.69247 0.0
O44 O 0.41725 0.71538 0.77562 0.0
O45 O 0.41061 0.63627 0.75446 0.0
O46 O 0.44431 0.78134 0.71182 0.0
O47 O 0.53875 0.81434 0.71673 0.0
C48 C 0.49778 0.82325 0.70375 0.0
C49 C 0.56792 0.68117 0.71364 0.0
O50 O 0.63872 0.81595 0.74524 0.0
O51 O 0.55018 0.74808 0.7725 0.0
O52 O 0.66619 0.81138 0.64845 0.0
O53 O 0.66352 0.88339 0.67332 0.0
O54 O 0.62494 0.71962 0.7101 0.0
O55 O 0.53626 0.70264 0.70298 0.0
O56 O 0.44442 0.69092 0.67928 0.0
O57 O 0.53213 0.75946 0.6511 0.0
C58 C 0.6087 0.78709 0.77289 0.0
C59 C 0.47467 0.71727 0.65095 0.0
Dy60 Dy 0.77211 0.52767 0.06542 0.0
C61 C 0.79989 0.72027 0.97897 0.0
C62 C 0.75945 0.43158 0.10101 0.0
Dy63 Dy 0.8061 0.6407 1.02321 0.0
O64 O 0.71535 0.44078 0.09156 0.0
O65 O 0.81035 0.47357 0.08939 0.0
O66 O 0.72313 0.55681 0.10058 0.0
O67 O 0.72346 0.5744 0.04891 0.0
C68 C 0.70262 0.57835 0.07741 0.0
C69 C 0.88701 0.60145 1.02589 0.0
O70 O 0.8327 0.67858 0.07565 0.0
O71 O 0.84524 0.60045 0.09548 0.0
O72 O 0.83213 0.69402 0.97462 0.0
O73 O 0.77325 0.70518 1.00846 0.0
O74 O 0.90378 0.65779 1.02394 0.0
O75 O 0.83121 0.57222 1.02401 0.0
O76 O 0.73204 0.48388 1.01558 0.0
O77 O 0.74799 0.56957 0.98663 0.0
C78 C 0.8518 0.65435 0.09913 0.0
C79 C 0.72706 0.51144 0.98805 0.0
Dy80 Dy 0.19065 0.74211 0.40227 0.0
C81 C 0.04322 0.80755 0.32143 0.0
C82 C 0.26953 0.71498 0.43455 0.0
Dy83 Dy 0.1182 0.79042 0.36475 0.0
O84 O 0.21515 0.67658 0.42533 0.0
O85 O 0.28163 0.76775 0.4245 0.0
O86 O 0.11579 0.70252 0.43958 0.0
O87 O 0.09512 0.70432 0.3886 0.0
C88 C 0.07239 0.68504 0.41761 0.0
C89 C 0.23814 0.85956 0.36603 0.0
O90 O 0.11201 0.81737 0.41804 0.0
O91 O 0.19977 0.8174 0.43458 0.0
O92 O 0.10145 0.83304 0.31913 0.0
O93 O 0.02587 0.77415 0.34852 0.0
O94 O 0.20142 0.88128 0.36847 0.0
O95 O 0.20919 0.80487 0.36218 0.0
O96 O 0.18603 0.70034 0.35144 0.0
O97 O 0.12025 0.72808 0.32589 0.0
C98 C 0.15668 0.83161 0.44002 0.0
C99 C 0.15228 0.69981 0.32529 0.0
Dy100 Dy 0.46143 0.2177 0.72882 0.0
C101 C 0.24464 0.06434 0.65297 0.0
C102 C 0.55121 0.28915 0.77163 0.0
Dy103 Dy 0.3336 0.14425 0.69385 0.0
O104 O 0.52768 0.2319 0.77039 0.0
O105 O 0.5271 0.30758 0.74858 0.0
O106 O 0.49544 0.16002 0.70898 0.0
O107 O 0.40123 0.12519 0.71679 0.0
C108 C 0.44172 0.11652 0.70304 0.0
C109 C 0.36788 0.25572 0.7119 0.0
O110 O 0.30323 0.12309 0.74788 0.0
O111 O 0.39388 0.19462 0.77136 0.0
O112 O 0.26509 0.12133 0.65205 0.0
O113 O 0.27145 0.05109 0.67709 0.0
O114 O 0.31099 0.21585 0.71143 0.0
O115 O 0.39908 0.23441 0.70055 0.0
O116 O 0.48916 0.24609 0.67463 0.0
O117 O 0.39941 0.1735 0.65017 0.0
C118 C 0.33596 0.15464 0.77413 0.0
C119 C 0.45633 0.21653 0.64769 0.0
H120 H 0.08045 0.68122 0.26979 0.0
H121 H 0.22459 0.65189 0.30749 0.0
H122 H 0.08502 0.64011 0.21506 0.0
H123 H 0.22815 0.60934 0.25253 0.0
H124 H 0.26106 0.59278 0.14039 0.0
H125 H 0.2573 0.64115 0.19307 0.0
H126 H 0.06262 0.54613 0.18949 0.0
H127 H 0.06653 0.49871 0.13662 0.0
C128 C 0.11289 0.66557 0.26655 0.0
C129 C 0.15232 0.67001 0.29311 0.0
C130 C 0.11529 0.64179 0.2351 0.0
C131 C 0.15718 0.62183 0.22934 0.0
C132 C 0.19602 0.6253 0.25602 0.0
C133 C 0.19355 0.64905 0.28762 0.0
C134 C 0.21755 0.58335 0.15049 0.0
C135 C 0.16409 0.54205 0.13451 0.0
C136 C 0.21538 0.61038 0.18088 0.0
C137 C 0.15969 0.59676 0.19575 0.0
C138 C 0.10626 0.55776 0.17867 0.0
C139 C 0.10846 0.53066 0.14835 0.0
H140 H 0.57639 0.27644 0.63031 0.0
H141 H 0.39746 0.18384 0.58698 0.0
H142 H 0.61952 0.28332 0.57367 0.0
H143 H 0.44037 0.19149 0.53076 0.0
H144 H 0.53972 0.13188 0.45373 0.0
H145 H 0.49181 0.14241 0.50501 0.0
H146 H 0.63265 0.32395 0.515 0.0
H147 H 0.68095 0.31304 0.46363 0.0
C148 C 0.54634 0.25873 0.60868 0.0
C149 C 0.48356 0.22897 0.61326 0.0
C150 C 0.571 0.2628 0.5762 0.0
C151 C 0.53328 0.23733 0.54776 0.0
C152 C 0.47062 0.21055 0.5522 0.0
C153 C 0.44609 0.20635 0.5845 0.0
C154 C 0.55958 0.17446 0.46638 0.0
C155 C 0.61399 0.22157 0.45476 0.0
C156 C 0.53216 0.1806 0.49579 0.0
C157 C 0.55872 0.23395 0.51427 0.0
C158 C 0.61154 0.28211 0.50157 0.0
C159 C 0.63879 0.27605 0.47197 0.0
H160 H 0.28136 0.55601 0.98495 0.0
H161 H 0.17847 0.39335 0.92915 0.0
H162 H 0.31798 0.60972 0.9311 0.0
H163 H 0.21241 0.44677 0.87575 0.0
H164 H 0.35202 0.54249 0.79255 0.0
H165 H 0.30298 0.49018 0.84452 0.0
H166 H 0.29347 0.64439 0.87973 0.0
H167 H 0.34499 0.69751 0.82798 0.0
C168 C 0.26603 0.53203 0.96119 0.0
C169 C 0.22818 0.47052 0.96114 0.0
C170 C 0.28653 0.5627 0.93036 0.0
C171 C 0.26863 0.53235 0.89909 0.0
C172 C 0.22839 0.47125 0.89931 0.0
C173 C 0.20885 0.44065 0.92995 0.0
C174 C 0.33849 0.56479 0.81114 0.0
C175 C 0.35221 0.62389 0.8064 0.0
C176 C 0.31021 0.53483 0.84093 0.0
C177 C 0.29444 0.56319 0.86641 0.0
C178 C 0.30594 0.62165 0.86089 0.0
C179 C 0.3348 0.65183 0.83116 0.0
H180 H 0.66914 0.2207 0.28804 0.0
H181 H 0.86299 0.30971 0.281 0.0
H182 H 0.66306 0.25899 0.23235 0.0
H183 H 0.85811 0.35289 0.22661 0.0
H184 H 0.83893 0.39241 0.11798 0.0
H185 H 0.8389 0.34009 0.1699 0.0
H186 H 0.67354 0.33695 0.20148 0.0
H187 H 0.67145 0.38401 0.14846 0.0
C188 C 0.71055 0.24991 0.27481 0.0
C189 C 0.7665 0.26271 0.28876 0.0
C190 C 0.70728 0.27217 0.24281 0.0
C191 C 0.76008 0.30941 0.22445 0.0
C192 C 0.81621 0.32322 0.23916 0.0
C193 C 0.81927 0.2993 0.27066 0.0
C194 C 0.80185 0.3788 0.13575 0.0
C195 C 0.755 0.39173 0.12917 0.0
C196 C 0.80222 0.34973 0.16588 0.0
C197 C 0.75672 0.33476 0.19063 0.0
C198 C 0.70894 0.34638 0.18318 0.0
C199 C 0.70769 0.37368 0.15265 0.0
H200 H 0.52759 0.73922 0.58861 0.0
H201 H 0.35299 0.66171 0.63722 0.0
H202 H 0.48032 0.72847 0.53333 0.0
H203 H 0.30545 0.65162 0.58143 0.0
H204 H 0.38256 0.79107 0.45646 0.0
H205 H 0.43217 0.78128 0.50741 0.0
H206 H 0.28449 0.60481 0.52386 0.0
H207 H 0.23456 0.61495 0.47273 0.0
C208 C 0.47893 0.71931 0.5875 0.0
C209 C 0.44405 0.70199 0.61742 0.0
C210 C 0.4519 0.71329 0.55574 0.0
C211 C 0.38928 0.68997 0.553 0.0
C212 C 0.35386 0.66943 0.58268 0.0
C213 C 0.38103 0.67531 0.61465 0.0
C214 C 0.36145 0.74964 0.47046 0.0
C215 C 0.30482 0.70381 0.46068 0.0
C216 C 0.38983 0.74393 0.49967 0.0
C217 C 0.36202 0.69235 0.51984 0.0
C218 C 0.30667 0.6453 0.50906 0.0
C219 C 0.27846 0.65087 0.47961 0.0
H220 H 0.65685 0.39127 0.97942 0.0
H221 H 0.74514 0.55714 0.92425 0.0
H222 H 0.61962 0.33855 0.92551 0.0
H223 H 0.71065 0.50489 0.87094 0.0
H224 H 0.57766 0.40164 0.78675 0.0
H225 H 0.6211 0.45452 0.8394 0.0
H226 H 0.65004 0.31052 0.87395 0.0
H227 H 0.60399 0.25654 0.82157 0.0
C228 C 0.66842 0.41634 0.95586 0.0
C229 C 0.70308 0.4783 0.95614 0.0
C230 C 0.64767 0.38622 0.92497 0.0
C231 C 0.662 0.41759 0.89389 0.0
C232 C 0.6976 0.47944 0.89436 0.0
C233 C 0.71746 0.5094 0.92506 0.0
C234 C 0.59438 0.38185 0.80533 0.0
C235 C 0.58768 0.3252 0.80021 0.0
C236 C 0.61929 0.41209 0.83554 0.0
C237 C 0.63871 0.38655 0.86105 0.0
C238 C 0.63443 0.33088 0.85513 0.0
C239 C 0.60887 0.30034 0.825 0.0
H240 H 0.3266 0.42622 0.13635 0.0
H241 H 0.32765 0.38165 0.03046 0.0
H242 H 0.43472 0.48443 0.13589 0.0
H243 H 0.43767 0.43578 0.0307 0.0
H244 H 0.62829 0.58104 1.02743 0.0
H245 H 0.51841 0.53104 0.02957 0.0
H246 H 0.52519 0.4892 0.13591 0.0
H247 H 0.63355 0.54337 0.13432 0.0
C248 C 0.35024 0.42717 0.11319 0.0
C249 C 0.31854 0.40005 0.08327 0.0
C250 C 0.41275 0.46069 0.11292 0.0
C251 C 0.4456 0.46608 0.08306 0.0
C252 C 0.414 0.4346 0.05385 0.0
C253 C 0.35098 0.40234 0.05386 0.0
C254 C 0.60596 0.56303 0.0515 0.0
C255 C 0.63944 0.56537 0.08056 0.0
C256 C 0.54294 0.53308 0.0526 0.0
C257 C 0.51235 0.50414 0.08263 0.0
C258 C 0.54639 0.51083 0.11227 0.0
C259 C 0.60904 0.54204 0.11138 0.0
H260 H -0.00398 0.61273 0.36831 0.0
H261 H 0.04091 0.61719 0.47489 0.0
H262 H 0.94524 0.5049 0.36975 0.0
H263 H -0.00462 0.51063 0.47575 0.0
H264 H 0.87343 0.31174 0.47167 0.0
H265 H 0.91699 0.41801 0.47447 0.0
H266 H -0.02588 0.43192 0.36942 0.0
H267 H 0.92526 0.32431 0.36593 0.0
C268 C -0.00618 0.59064 0.39223 0.0
C269 C 0.02368 0.62341 0.42125 0.0
C270 C 0.96613 0.52883 0.39289 0.0
C271 C -0.03149 0.49879 0.42244 0.0
C272 C -0.00724 0.53166 0.45237 0.0
C273 C 0.01894 0.59317 0.45193 0.0
C274 C 0.89641 0.33749 0.44933 0.0
C275 C 0.89448 0.30957 0.4183 0.0
C276 C 0.92147 0.39884 0.4509 0.0
C277 C 0.94734 0.43394 0.4218 0.0
C278 C 0.952 0.40625 0.39191 0.0
C279 C 0.92543 0.34458 0.3901 0.0
H280 H 0.35704 -0.00069 0.7011 0.0
H281 H 0.50935 0.1356 0.64705 0.0
H282 H 0.37473 0.92429 0.67353 0.0
H283 H 0.52761 0.06112 0.62009 0.0
H284 H 0.42582 0.80118 0.64931 0.0
H285 H 0.40547 0.87448 0.6222 0.0
H286 H 0.56342 0.01358 0.67061 0.0
H287 H 0.58321 0.93975 0.69837 0.0
C288 C 0.3919 0.01288 0.68189 0.0
C289 C 0.43314 0.07267 0.67704 0.0
C290 C 0.40207 -0.02986 0.66591 0.0
C291 C 0.45375 -0.01245 0.64549 0.0
C292 C 0.48805 0.04691 0.63598 0.0
C293 C 0.47767 0.08936 0.65169 0.0
C294 C 0.45811 0.84758 0.6527 0.0
C295 C 0.50482 0.8654 0.67683 0.0
C296 C 0.44649 0.88936 0.63692 0.0
C297 C 0.48175 0.94913 0.64515 0.0
C298 C 0.53531 0.96739 0.66404 0.0
C299 C 0.54672 0.92533 0.68009 0.0
H300 H 0.45233 0.59978 0.70688 0.0
H301 H 0.62126 0.62437 0.74797 0.0
H302 H 0.40268 0.49793 0.72445 0.0
H303 H 0.5711 0.51853 0.76393 0.0
H304 H 0.47978 0.33952 0.69785 0.0
H305 H 0.53151 0.44089 0.71616 0.0
H306 H 0.3717 0.41555 0.76947 0.0
H307 H 0.31969 0.31032 0.75237 0.0
C308 C 0.47859 0.58381 0.7208 0.0
C309 C 0.54058 0.62015 0.7264 0.0
C310 C 0.44975 0.52522 0.73112 0.0
C311 C 0.48275 0.50056 0.74598 0.0
C312 C 0.54461 0.53713 0.7529 0.0
C313 C 0.57345 0.59702 0.7433 0.0
C314 C 0.45594 0.35459 0.7145 0.0
C315 C 0.39581 0.31704 0.7239 0.0
C316 C 0.4861 0.41273 0.72536 0.0
C317 C 0.45612 0.43573 0.7448 0.0
C318 C 0.39601 0.39817 0.75496 0.0
C319 C 0.36598 0.3387 0.7447 0.0
H320 H -0.0005 0.35181 0.08686 0.0
H321 H 0.02037 0.35622 0.97787 0.0
H322 H 0.96283 0.42383 0.0826 0.0
H323 H -0.01384 0.42938 0.97328 0.0
H324 H 0.87703 0.52766 0.97591 0.0
H325 H 0.9075 0.45181 0.97816 0.0
H326 H 0.0059 0.52818 0.07125 0.0
H327 H -0.02747 0.60327 0.06939 0.0
C328 C -0.00654 0.3662 0.06187 0.0
C329 C 0.01081 0.34729 0.03258 0.0
C330 C -0.02578 0.40873 0.05944 0.0
C331 C -0.02726 0.43351 1.02765 0.0
C332 C -0.01381 0.41116 0.99817 0.0
C333 C 0.00491 0.36845 1.00066 0.0
C334 C 0.9071 0.52951 0.99616 0.0
C335 C 0.92375 0.57199 1.02204 0.0
C336 C 0.92418 0.48566 0.99764 0.0
C337 C 0.95857 0.48321 1.0251 0.0
C338 C -0.02167 0.52804 0.05007 0.0
C339 C 0.96078 0.57203 0.04862 0.0
H340 H 0.31195 -0.02536 0.38542 0.0
H341 H 0.31238 0.81516 0.35226 0.0
H342 H 0.42235 0.02507 0.38857 0.0
H343 H 0.42142 0.86527 0.35424 0.0
H344 H 0.61888 0.95904 0.38269 0.0
H345 H 0.50896 0.90796 0.38994 0.0
H346 H 0.50271 0.06051 0.34815 0.0
H347 H 0.61119 0.11127 0.34202 0.0
C348 C 0.3357 0.95064 0.37874 0.0
C349 C 0.30406 0.89144 0.3684 0.0
C350 C 0.39866 -0.02075 0.3805 0.0
C351 C 0.43059 0.94906 0.37161 0.0
C352 C 0.39836 0.88949 0.36185 0.0
C353 C 0.33584 0.86101 0.36035 0.0
C354 C 0.59359 -0.01885 0.37508 0.0
C355 C 0.62304 0.03867 0.3617 0.0
C356 C 0.53094 0.95224 0.37926 0.0
C357 C 0.49721 -0.01954 0.36982 0.0
C358 C 0.52727 0.03802 0.35642 0.0
C359 C 0.58943 0.0668 0.35251 0.0
H360 H 0.21474 0.09557 0.78971 0.0
H361 H 0.39004 0.20533 0.83441 0.0
H362 H 0.16709 0.10071 0.84277 0.0
H363 H 0.34278 0.21174 0.88663 0.0
H364 H 0.24909 0.19675 0.98493 0.0
H365 H 0.28581 0.16429 0.93629 0.0
H366 H 0.1523 0.17439 0.87193 0.0
H367 H 0.1148 0.20499 0.92071 0.0
C368 C 0.24317 0.12009 0.81092 0.0
C369 C 0.3063 0.15033 0.80755 0.0
C370 C 0.21582 0.12346 0.8413 0.0
C371 C 0.25093 0.15701 0.86908 0.0
C372 C 0.31406 0.18486 0.86612 0.0
C373 C 0.34129 0.18153 0.83587 0.0
C374 C 0.22684 0.19074 0.96053 0.0
C375 C 0.17928 0.20368 0.95661 0.0
C376 C 0.24817 0.17262 0.93253 0.0
C377 C 0.2226 0.16731 0.89992 0.0
C378 C 0.17285 0.1773 0.89657 0.0
C379 C 0.15145 0.19518 0.92457 0.0
H380 H 0.8586 0.07672 0.25567 0.0
H381 H 0.00915 0.19684 0.31749 0.0
H382 H 0.92356 0.10497 0.20572 0.0
H383 H 0.07472 0.22444 0.26751 0.0
H384 H 0.11245 0.33593 0.1678 0.0
H385 H 0.06935 0.28565 0.22094 0.0
H386 H 0.01315 0.11658 0.17259 0.0
H387 H 0.05705 0.16786 0.11851 0.0
C388 C 0.90613 0.10763 0.2588 0.0
C389 C 0.92869 0.13556 0.29025 0.0
C390 C 0.94346 0.12355 0.23017 0.0
C391 C 0.004 0.16777 0.23253 0.0
C392 C 0.02793 0.19095 0.26483 0.0
C393 C -0.00947 0.175 0.29347 0.0
C394 C 0.09147 0.28801 0.16845 0.0
C395 C 0.08724 0.25572 0.13887 0.0
C396 C 0.06749 0.25916 0.19913 0.0
C397 C 0.03807 0.19708 0.2011 0.0
C398 C 0.03561 0.16453 0.1718 0.0
C399 C 0.06065 0.19374 0.14094 0.0
H400 H 0.72529 -0.01367 0.64346 0.0
H401 H 0.72098 0.83955 0.5884 0.0
H402 H 0.75661 0.04639 0.59174 0.0
H403 H 0.75199 0.89977 0.53639 0.0
H404 H 0.83612 0.04657 0.45173 0.0
H405 H 0.8316 -0.00455 0.5056 0.0
H406 H 0.68957 0.02917 0.54074 0.0
H407 H 0.69362 0.07928 0.48775 0.0
C408 C 0.73262 0.96744 0.62051 0.0
C409 C 0.72006 0.90814 0.6198 0.0
C410 C 0.75025 0.0017 0.59088 0.0
C411 C 0.75569 -0.02264 0.55995 0.0
C412 C 0.74823 0.91966 0.55989 0.0
C413 C 0.73041 0.88522 0.58962 0.0
C414 C 0.8041 0.04304 0.47105 0.0
C415 C 0.76517 0.06688 0.46539 0.0
C416 C 0.80152 0.01384 0.50179 0.0
C417 C 0.76082 0.00912 0.52749 0.0
C418 C 0.72224 0.03312 0.5217 0.0
C419 C 0.7242 0.06137 0.49108 0.0
H420 H 0.73153 0.84402 0.78342 0.0
H421 H 0.56179 0.74344 0.83575 0.0
H422 H 0.78515 0.84245 0.83497 0.0
H423 H 0.61499 0.74079 0.88661 0.0
H424 H 0.72049 0.76373 0.98137 0.0
H425 H 0.6801 0.79386 0.93315 0.0
H426 H 0.79998 0.76872 0.86532 0.0
H427 H 0.8411 0.74012 0.91361 0.0
C428 C 0.70562 0.82232 0.80598 0.0
C429 C 0.64222 0.79354 0.80523 0.0
C430 C 0.73639 0.82103 0.8355 0.0
C431 C 0.70453 0.7912 0.86503 0.0
C432 C 0.64127 0.76485 0.86464 0.0
C433 C 0.61061 0.76599 0.83521 0.0
C434 C 0.73919 0.76611 0.95626 0.0
C435 C 0.78377 0.74933 0.95125 0.0
C436 C 0.71568 0.78284 0.92853 0.0
C437 C 0.7361 0.78301 0.89515 0.0
C438 C 0.78338 0.76967 0.89058 0.0
C439 C 0.80691 0.75305 0.9183 0.0
H440 H 0.92415 0.72808 0.31342 0.0
H441 H 0.07539 0.87153 0.26261 0.0
H442 H 0.87037 0.69812 0.25917 0.0
H443 H 0.02163 0.84146 0.20837 0.0
H444 H 0.8902 0.77123 0.11566 0.0
H445 H 0.92737 0.81862 0.17132 0.0
H446 H 0.90393 0.65293 0.21196 0.0
H447 H 0.86788 0.60616 0.15718 0.0
C448 C 0.94497 0.75452 0.29093 0.0
C449 C 0.00421 0.80154 0.29208 0.0
C450 C 0.91439 0.73715 0.25984 0.0
C451 C 0.9424 0.7668 0.22951 0.0
C452 C -0.00101 0.81781 0.23133 0.0
C453 C 0.02975 0.83494 0.26239 0.0
C454 C 0.89312 0.74513 0.13653 0.0
C455 C 0.87644 0.68504 0.13187 0.0
C456 C 0.91413 0.77216 0.16833 0.0
C457 C 0.91746 0.73913 0.19606 0.0
C458 C 0.90057 0.67919 0.19129 0.0
C459 C 0.88065 0.6526 0.15964 0.0
H460 H 0.20651 0.09076 0.59352 0.0
H461 H 0.20638 0.94626 0.64965 0.0
H462 H 0.17289 0.029 0.54246 0.0
H463 H 0.17198 0.88437 0.59888 0.0
H464 H 0.22899 0.84766 0.49454 0.0
H465 H 0.23435 0.89758 0.54754 0.0
H466 H 0.09478 0.93555 0.5124 0.0
H467 H 0.08924 0.88499 0.45848 0.0
C468 C 0.19734 0.0452 0.59522 0.0
C469 C 0.20978 0.02344 0.62535 0.0
C470 C 0.17801 0.00983 0.56601 0.0
C471 C 0.17093 0.95228 0.56656 0.0
C472 C 0.17817 0.92897 0.59759 0.0
C473 C 0.19749 0.96425 0.6267 0.0
C474 C 0.19918 0.86642 0.49791 0.0
C475 C 0.15878 0.86246 0.47214 0.0
C476 C 0.20184 0.89453 0.52856 0.0
C477 C 0.1644 0.91978 0.53434 0.0
C478 C 0.12401 0.91625 0.50862 0.0
C479 C 0.12087 0.88736 0.47784 0.0
loop_
_geom_bond_atom_site_label_1
_geom_bond_atom_site_label_2
_geom_bond_distance
_geom_bond_site_symmetry_2
_ccdc_geom_bond_type
Dy0 O4 2.398 . S
Dy0 O5 2.491 . S
Dy0 O6 2.403 . S
Dy0 O7 2.664 . S
Dy0 O11 2.326 . S
Dy0 O15 2.310 . S
Dy0 O16 2.351 1_554 S
C1 O12 1.185 . S
C1 O13 1.355 . S
C2 O4 1.185 . S
C2 O5 1.355 . S
Dy3 O7 2.310 1_556 S
Dy3 O10 2.351 1_556 S
Dy3 O12 2.398 . S
Dy3 O13 2.491 . S
Dy3 O14 2.403 . S
Dy3 O15 2.664 1_556 S
Dy3 O17 2.326 . S
O4 Dy0 2.398 . S
O4 C2 1.185 . S
O5 Dy0 2.491 . S
O5 C2 1.355 . S
O6 Dy0 2.403 . S
O6 C8 1.254 . S
O7 Dy0 2.664 . S
O7 Dy3 2.310 1_554 S
O7 C8 1.268 . S
C8 O6 1.254 . S
C8 O7 1.268 . S
C9 O14 1.254 1_554 S
C9 O15 1.268 . S
O10 Dy3 2.351 1_554 S
O10 C18 1.249 . S
O11 Dy0 2.326 . S
O11 C18 1.267 . S
O12 C1 1.185 . S
O12 Dy3 2.398 . S
O13 C1 1.355 . S
O13 Dy3 2.491 . S
O14 Dy3 2.403 . S
O14 C9 1.254 1_556 S
O15 Dy0 2.310 . S
O15 Dy3 2.664 1_554 S
O15 C9 1.268 . S
O16 Dy0 2.351 1_556 S
O16 C19 1.249 . S
O17 Dy3 2.326 . S
O17 C19 1.267 . S
C18 O10 1.249 . S
C18 O11 1.267 . S
C19 O16 1.249 . S
C19 O17 1.267 . S
Dy20 O24 2.398 . S
Dy20 O25 2.491 . S
Dy20 O26 2.403 . S
Dy20 O27 2.664 . S
Dy20 O31 2.326 . S
Dy20 O35 2.310 . S
Dy20 O36 2.351 . S
C21 O32 1.185 . S
C21 O33 1.355 . S
C22 O24 1.185 . S
C22 O25 1.355 . S
Dy23 O27 2.310 . S
Dy23 O30 2.351 . S
Dy23 O32 2.398 . S
Dy23 O33 2.491 . S
Dy23 O34 2.403 . S
Dy23 O35 2.664 . S
Dy23 O37 2.326 . S
O24 Dy20 2.398 . S
O24 C22 1.185 . S
O25 Dy20 2.491 . S
O25 C22 1.355 . S
O26 Dy20 2.403 . S
O26 C28 1.254 . S
O27 Dy20 2.664 . S
O27 Dy23 2.310 . S
O27 C28 1.268 . S
C28 O26 1.254 . S
C28 O27 1.268 . S
C29 O34 1.254 . S
C29 O35 1.268 . S
O30 Dy23 2.351 . S
O30 C38 1.249 . S
O31 Dy20 2.326 . S
O31 C38 1.267 . S
O32 C21 1.185 . S
O32 Dy23 2.398 . S
O33 C21 1.355 . S
O33 Dy23 2.491 . S
O34 Dy23 2.403 . S
O34 C29 1.254 . S
O35 Dy20 2.310 . S
O35 Dy23 2.664 . S
O35 C29 1.268 . S
O36 Dy20 2.351 . S
O36 C39 1.249 . S
O37 Dy23 2.326 . S
O37 C39 1.267 . S
C38 O30 1.249 . S
C38 O31 1.267 . S
C39 O36 1.249 . S
C39 O37 1.267 . S
Dy40 O44 2.398 . S
Dy40 O45 2.491 . S
Dy40 O46 2.403 . S
Dy40 O47 2.664 . S
Dy40 O51 2.326 . S
Dy40 O55 2.310 . S
Dy40 O56 2.351 . S
C41 O52 1.185 . S
C41 O53 1.355 . S
C42 O44 1.185 . S
C42 O45 1.355 . S
Dy43 O47 2.310 . S
Dy43 O50 2.351 . S
Dy43 O52 2.398 . S
Dy43 O53 2.491 . S
Dy43 O54 2.403 . S
Dy43 O55 2.664 . S
Dy43 O57 2.326 . S
O44 Dy40 2.398 . S
O44 C42 1.185 . S
O45 Dy40 2.491 . S
O45 C42 1.355 . S
O46 Dy40 2.403 . S
O46 C48 1.254 . S
O47 Dy40 2.664 . S
O47 Dy43 2.310 . S
O47 C48 1.268 . S
C48 O46 1.254 . S
C48 O47 1.268 . S
C49 O54 1.254 . S
C49 O55 1.268 . S
O50 Dy43 2.351 . S
O50 C58 1.249 . S
O51 Dy40 2.326 . S
O51 C58 1.267 . S
O52 C41 1.185 . S
O52 Dy43 2.398 . S
O53 C41 1.355 . S
O53 Dy43 2.491 . S
O54 Dy43 2.403 . S
O54 C49 1.254 . S
O55 Dy40 2.310 . S
O55 Dy43 2.664 . S
O55 C49 1.268 . S
O56 Dy40 2.351 . S
O56 C59 1.249 . S
O57 Dy43 2.326 . S
O57 C59 1.267 . S
C58 O50 1.249 . S
C58 O51 1.267 . S
C59 O56 1.249 . S
C59 O57 1.267 . S
Dy60 O64 2.398 . S
Dy60 O65 2.491 . S
Dy60 O66 2.403 . S
Dy60 O67 2.664 . S
Dy60 O71 2.326 . S
Dy60 O75 2.310 . S
Dy60 O76 2.351 1_554 S
C61 O72 1.185 . S
C61 O73 1.355 . S
C62 O64 1.185 . S
C62 O65 1.355 . S
Dy63 O67 2.310 1_556 S
Dy63 O70 2.351 1_556 S
Dy63 O72 2.398 . S
Dy63 O73 2.491 . S
Dy63 O74 2.403 . S
Dy63 O75 2.664 1_556 S
Dy63 O77 2.326 . S
O64 Dy60 2.398 . S
O64 C62 1.185 . S
O65 Dy60 2.491 . S
O65 C62 1.355 . S
O66 Dy60 2.403 . S
O66 C68 1.254 . S
O67 Dy60 2.664 . S
O67 Dy63 2.310 1_554 S
O67 C68 1.268 . S
C68 O66 1.254 . S
C68 O67 1.268 . S
C69 O74 1.254 1_554 S
C69 O75 1.268 . S
O70 Dy63 2.351 1_554 S
O70 C78 1.249 . S
O71 Dy60 2.326 . S
O71 C78 1.267 . S
O72 C61 1.185 . S
O72 Dy63 2.398 . S
O73 C61 1.355 . S
O73 Dy63 2.491 . S
O74 Dy63 2.403 . S
O74 C69 1.254 1_556 S
O75 Dy60 2.310 . S
O75 Dy63 2.664 1_554 S
O75 C69 1.268 . S
O76 Dy60 2.351 1_556 S
O76 C79 1.249 . S
O77 Dy63 2.326 . S
O77 C79 1.267 . S
C78 O70 1.249 . S
C78 O71 1.267 . S
C79 O76 1.249 . S
C79 O77 1.267 . S
Dy80 O84 2.398 . S
Dy80 O85 2.491 . S
Dy80 O86 2.403 . S
Dy80 O87 2.664 . S
Dy80 O91 2.326 . S
Dy80 O95 2.310 . S
Dy80 O96 2.351 . S
C81 O92 1.185 . S
C81 O93 1.355 . S
C82 O84 1.185 . S
C82 O85 1.355 . S
Dy83 O87 2.310 . S
Dy83 O90 2.351 . S
Dy83 O92 2.398 . S
Dy83 O93 2.491 . S
Dy83 O94 2.403 . S
Dy83 O95 2.664 . S
Dy83 O97 2.326 . S
O84 Dy80 2.398 . S
O84 C82 1.185 . S
O85 Dy80 2.491 . S
O85 C82 1.355 . S
O86 Dy80 2.403 . S
O86 C88 1.254 . S
O87 Dy80 2.664 . S
O87 Dy83 2.310 . S
O87 C88 1.268 . S
C88 O86 1.254 . S
C88 O87 1.268 . S
C89 O94 1.254 . S
C89 O95 1.268 . S
O90 Dy83 2.351 . S
O90 C98 1.249 . S
O91 Dy80 2.326 . S
O91 C98 1.267 . S
O92 C81 1.185 . S
O92 Dy83 2.398 . S
O93 C81 1.355 . S
O93 Dy83 2.491 . S
O94 Dy83 2.403 . S
O94 C89 1.254 . S
O95 Dy80 2.310 . S
O95 Dy83 2.664 . S
O95 C89 1.268 . S
O96 Dy80 2.351 . S
O96 C99 1.249 . S
O97 Dy83 2.326 . S
O97 C99 1.267 . S
C98 O90 1.249 . S
C98 O91 1.267 . S
C99 O96 1.249 . S
C99 O97 1.267 . S
Dy100 O104 2.398 . S
Dy100 O105 2.491 . S
Dy100 O106 2.403 . S
Dy100 O107 2.664 . S
Dy100 O111 2.326 . S
Dy100 O115 2.310 . S
Dy100 O116 2.351 . S
C101 O112 1.185 . S
C101 O113 1.355 . S
C102 O104 1.185 . S
C102 O105 1.355 . S
Dy103 O107 2.310 . S
Dy103 O110 2.351 . S
Dy103 O112 2.398 . S
Dy103 O113 2.491 . S
Dy103 O114 2.403 . S
Dy103 O115 2.664 . S
Dy103 O117 2.326 . S
O104 Dy100 2.398 . S
O104 C102 1.185 . S
O105 Dy100 2.491 . S
O105 C102 1.355 . S
O106 Dy100 2.403 . S
O106 C108 1.254 . S
O107 Dy100 2.664 . S
O107 Dy103 2.310 . S
O107 C108 1.268 . S
C108 O106 1.254 . S
C108 O107 1.268 . S
C109 O114 1.254 . S
C109 O115 1.268 . S
O110 Dy103 2.351 . S
O110 C118 1.249 . S
O111 Dy100 2.326 . S
O111 C118 1.267 . S
O112 C101 1.185 . S
O112 Dy103 2.398 . S
O113 C101 1.355 . S
O113 Dy103 2.491 . S
O114 Dy103 2.403 . S
O114 C109 1.254 . S
O115 Dy100 2.310 . S
O115 Dy103 2.664 . S
O115 C109 1.268 . S
O116 Dy100 2.351 . S
O116 C119 1.249 . S
O117 Dy103 2.326 . S
O117 C119 1.267 . S
C118 O110 1.249 . S
C118 O111 1.267 . S
C119 O116 1.249 . S
C119 O117 1.267 . S
H120 C128 0.950 . S
H121 C133 0.950 . S
H122 C130 0.950 . S
H123 C132 0.950 . S
H124 C134 0.950 . S
H125 C136 0.950 . S
H126 C138 0.950 . S
H127 C139 0.950 . S
C128 H120 0.950 . S
C128 C129 1.386 . S
C128 C130 1.391 . S
C129 C128 1.386 . S
C129 C133 1.393 . S
C130 H122 0.950 . S
C130 C128 1.391 . S
C130 C131 1.400 . S
C131 C130 1.400 . S
C131 C132 1.398 . S
C131 C137 1.491 . S
C132 H123 0.950 . S
C132 C131 1.398 . S
C132 C133 1.391 . S
C133 H121 0.950 . S
C133 C129 1.393 . S
C133 C132 1.391 . S
C134 H124 0.950 . S
C134 C135 1.386 . S
C134 C136 1.391 . S
C135 C134 1.386 . S
C135 C139 1.393 . S
C136 H125 0.950 . S
C136 C134 1.391 . S
C136 C137 1.400 . S
C137 C131 1.491 . S
C137 C136 1.400 . S
C137 C138 1.398 . S
C138 H126 0.950 . S
C138 C137 1.398 . S
C138 C139 1.391 . S
C139 H127 0.950 . S
C139 C135 1.393 . S
C139 C138 1.391 . S
H140 C148 0.950 . S
H141 C153 0.950 . S
H142 C150 0.950 . S
H143 C152 0.950 . S
H144 C154 0.950 . S
H145 C156 0.950 . S
H146 C158 0.950 . S
H147 C159 0.950 . S
C148 H140 0.950 . S
C148 C149 1.386 . S
C148 C150 1.391 . S
C149 C148 1.386 . S
C149 C153 1.393 . S
C150 H142 0.950 . S
C150 C148 1.391 . S
C150 C151 1.400 . S
C151 C150 1.400 . S
C151 C152 1.398 . S
C151 C157 1.491 . S
C152 H143 0.950 . S
C152 C151 1.398 . S
C152 C153 1.391 . S
C153 H141 0.950 . S
C153 C149 1.393 . S
C153 C152 1.391 . S
C154 H144 0.950 . S
C154 C155 1.386 . S
C154 C156 1.391 . S
C155 C154 1.386 . S
C155 C159 1.393 . S
C156 H145 0.950 . S
C156 C154 1.391 . S
C156 C157 1.400 . S
C157 C151 1.491 . S
C157 C156 1.400 . S
C157 C158 1.398 . S
C158 H146 0.950 . S
C158 C157 1.398 . S
C158 C159 1.391 . S
C159 H147 0.950 . S
C159 C155 1.393 . S
C159 C158 1.391 . S
H160 C168 0.950 . S
H161 C173 0.950 . S
H162 C170 0.950 . S
H163 C172 0.950 . S
H164 C174 0.950 . S
H165 C176 0.950 . S
H166 C178 0.950 . S
H167 C179 0.950 . S
C168 H160 0.950 . S
C168 C169 1.386 . S
C168 C170 1.391 . S
C169 C168 1.386 . S
C169 C173 1.393 . S
C170 H162 0.950 . S
C170 C168 1.391 . S
C170 C171 1.400 . S
C171 C170 1.400 . S
C171 C172 1.398 . S
C171 C177 1.491 . S
C172 H163 0.950 . S
C172 C171 1.398 . S
C172 C173 1.391 . S
C173 H161 0.950 . S
C173 C169 1.393 . S
C173 C172 1.391 . S
C174 H164 0.950 . S
C174 C175 1.386 . S
C174 C176 1.391 . S
C175 C174 1.386 . S
C175 C179 1.393 . S
C176 H165 0.950 . S
C176 C174 1.391 . S
C176 C177 1.400 . S
C177 C171 1.491 . S
C177 C176 1.400 . S
C177 C178 1.398 . S
C178 H166 0.950 . S
C178 C177 1.398 . S
C178 C179 1.391 . S
C179 H167 0.950 . S
C179 C175 1.393 . S
C179 C178 1.391 . S
H180 C188 0.950 . S
H181 C193 0.950 . S
H182 C190 0.950 . S
H183 C192 0.950 . S
H184 C194 0.950 . S
H185 C196 0.950 . S
H186 C198 0.950 . S
H187 C199 0.950 . S
C188 H180 0.950 . S
C188 C189 1.386 . S
C188 C190 1.391 . S
C189 C188 1.386 . S
C189 C193 1.393 . S
C190 H182 0.950 . S
C190 C188 1.391 . S
C190 C191 1.400 . S
C191 C190 1.400 . S
C191 C192 1.398 . S
C191 C197 1.491 . S
C192 H183 0.950 . S
C192 C191 1.398 . S
C192 C193 1.391 . S
C193 H181 0.950 . S
C193 C189 1.393 . S
C193 C192 1.391 . S
C194 H184 0.950 . S
C194 C195 1.386 . S
C194 C196 1.391 . S
C195 C194 1.386 . S
C195 C199 1.393 . S
C196 H185 0.950 . S
C196 C194 1.391 . S
C196 C197 1.400 . S
C197 C191 1.491 . S
C197 C196 1.400 . S
C197 C198 1.398 . S
C198 H186 0.950 . S
C198 C197 1.398 . S
C198 C199 1.391 . S
C199 H187 0.950 . S
C199 C195 1.393 . S
C199 C198 1.391 . S
H200 C208 0.950 . S
H201 C213 0.950 . S
H202 C210 0.950 . S
H203 C212 0.950 . S
H204 C214 0.950 . S
H205 C216 0.950 . S
H206 C218 0.950 . S
H207 C219 0.950 . S
C208 H200 0.950 . S
C208 C209 1.386 . S
C208 C210 1.391 . S
C209 C208 1.386 . S
C209 C213 1.393 . S
C210 H202 0.950 . S
C210 C208 1.391 . S
C210 C211 1.400 . S
C211 C210 1.400 . S
C211 C212 1.398 . S
C211 C217 1.491 . S
C212 H203 0.950 . S
C212 C211 1.398 . S
C212 C213 1.391 . S
C213 H201 0.950 . S
C213 C209 1.393 . S
C213 C212 1.391 . S
C214 H204 0.950 . S
C214 C215 1.386 . S
C214 C216 1.391 . S
C215 C214 1.386 . S
C215 C219 1.393 . S
C216 H205 0.950 . S
C216 C214 1.391 . S
C216 C217 1.400 . S
C217 C211 1.491 . S
C217 C216 1.400 . S
C217 C218 1.398 . S
C218 H206 0.950 . S
C218 C217 1.398 . S
C218 C219 1.391 . S
C219 H207 0.950 . S
C219 C215 1.393 . S
C219 C218 1.391 . S
H220 C228 0.950 . S
H221 C233 0.950 . S
H222 C230 0.950 . S
H223 C232 0.950 . S
H224 C234 0.950 . S
H225 C236 0.950 . S
H226 C238 0.950 . S
H227 C239 0.950 . S
C228 H220 0.950 . S
C228 C229 1.386 . S
C228 C230 1.391 . S
C229 C228 1.386 . S
C229 C233 1.393 . S
C230 H222 0.950 . S
C230 C228 1.391 . S
C230 C231 1.400 . S
C231 C230 1.400 . S
C231 C232 1.398 . S
C231 C237 1.491 . S
C232 H223 0.950 . S
C232 C231 1.398 . S
C232 C233 1.391 . S
C233 H221 0.950 . S
C233 C229 1.393 . S
C233 C232 1.391 . S
C234 H224 0.950 . S
C234 C235 1.386 . S
C234 C236 1.391 . S
C235 C234 1.386 . S
C235 C239 1.393 . S
C236 H225 0.950 . S
C236 C234 1.391 . S
C236 C237 1.400 . S
C237 C231 1.491 . S
C237 C236 1.400 . S
C237 C238 1.398 . S
C238 H226 0.950 . S
C238 C237 1.398 . S
C238 C239 1.391 . S
C239 H227 0.950 . S
C239 C235 1.393 . S
C239 C238 1.391 . S
H240 C248 0.950 . S
H241 C253 0.950 . S
H242 C250 0.950 . S
H243 C252 0.950 . S
H244 C254 0.950 . S
H245 C256 0.950 . S
H246 C258 0.950 . S
H247 C259 0.950 . S
C248 H240 0.950 . S
C248 C249 1.386 . S
C248 C250 1.391 . S
C249 C248 1.386 . S
C249 C253 1.393 . S
C250 H242 0.950 . S
C250 C248 1.391 . S
C250 C251 1.400 . S
C251 C250 1.400 . S
C251 C252 1.398 . S
C251 C257 1.491 . S
C252 H243 0.950 . S
C252 C251 1.398 . S
C252 C253 1.391 . S
C253 H241 0.950 . S
C253 C249 1.393 . S
C253 C252 1.391 . S
C254 H244 0.950 . S
C254 C255 1.386 . S
C254 C256 1.391 . S
C255 C254 1.386 . S
C255 C259 1.393 . S
C256 H245 0.950 . S
C256 C254 1.391 . S
C256 C257 1.400 . S
C257 C251 1.491 . S
C257 C256 1.400 . S
C257 C258 1.398 . S
C258 H246 0.950 . S
C258 C257 1.398 . S
C258 C259 1.391 . S
C259 H247 0.950 . S
C259 C255 1.393 . S
C259 C258 1.391 . S
H260 C268 0.950 . S
H261 C273 0.950 1_655 S
H262 C270 0.950 . S
H263 C272 0.950 . S
H264 C274 0.950 . S
H265 C276 0.950 . S
H266 C278 0.950 . S
H267 C279 0.950 1_455 S
C268 H260 0.950 . S
C268 C269 1.386 . S
C268 C270 1.391 . S
C269 C268 1.386 . S
C269 C273 1.393 . S
C270 H262 0.950 . S
C270 C268 1.391 . S
C270 C271 1.400 . S
C271 C270 1.400 . S
C271 C272 1.398 1_455 S
C271 C277 1.491 1_455 S
C272 H263 0.950 . S
C272 C271 1.398 1_655 S
C272 C273 1.391 1_655 S
C273 H261 0.950 1_455 S
C273 C269 1.393 . S
C273 C272 1.391 1_455 S
C274 H264 0.950 . S
C274 C275 1.386 . S
C274 C276 1.391 . S
C275 C274 1.386 . S
C275 C279 1.393 . S
C276 H265 0.950 . S
C276 C274 1.391 . S
C276 C277 1.400 . S
C277 C271 1.491 1_655 S
C277 C276 1.400 . S
C277 C278 1.398 1_655 S
C278 H266 0.950 . S
C278 C277 1.398 1_455 S
C278 C279 1.391 1_455 S
C279 H267 0.950 1_655 S
C279 C275 1.393 . S
C279 C278 1.391 1_655 S
H280 C288 0.950 . S
H281 C293 0.950 . S
H282 C290 0.950 . S
H283 C292 0.950 1_565 S
H284 C294 0.950 . S
H285 C296 0.950 . S
H286 C298 0.950 1_545 S
H287 C299 0.950 . S
C288 H280 0.950 . S
C288 C289 1.386 . S
C288 C290 1.391 . S
C289 C288 1.386 . S
C289 C293 1.393 . S
C290 H282 0.950 . S
C290 C288 1.391 . S
C290 C291 1.400 . S
C291 C290 1.400 . S
C291 C292 1.398 . S
C291 C297 1.491 1_545 S
C292 H283 0.950 1_545 S
C292 C291 1.398 . S
C292 C293 1.391 . S
C293 H281 0.950 . S
C293 C289 1.393 . S
C293 C292 1.391 . S
C294 H284 0.950 . S
C294 C295 1.386 . S
C294 C296 1.391 . S
C295 C294 1.386 . S
C295 C299 1.393 . S
C296 H285 0.950 . S
C296 C294 1.391 . S
C296 C297 1.400 . S
C297 C291 1.491 1_565 S
C297 C296 1.400 . S
C297 C298 1.398 . S
C298 H286 0.950 1_565 S
C298 C297 1.398 . S
C298 C299 1.391 . S
C299 H287 0.950 . S
C299 C295 1.393 . S
C299 C298 1.391 . S
H300 C308 0.950 . S
H301 C313 0.950 . S
H302 C310 0.950 . S
H303 C312 0.950 . S
H304 C314 0.950 . S
H305 C316 0.950 . S
H306 C318 0.950 . S
H307 C319 0.950 . S
C308 H300 0.950 . S
C308 C309 1.386 . S
C308 C310 1.391 . S
C309 C308 1.386 . S
C309 C313 1.393 . S
C310 H302 0.950 . S
C310 C308 1.391 . S
C310 C311 1.400 . S
C311 C310 1.400 . S
C311 C312 1.398 . S
C311 C317 1.491 . S
C312 H303 0.950 . S
C312 C311 1.398 . S
C312 C313 1.391 . S
C313 H301 0.950 . S
C313 C309 1.393 . S
C313 C312 1.391 . S
C314 H304 0.950 . S
C314 C315 1.386 . S
C314 C316 1.391 . S
C315 C314 1.386 . S
C315 C319 1.393 . S
C316 H305 0.950 . S
C316 C314 1.391 . S
C316 C317 1.400 . S
C317 C311 1.491 . S
C317 C316 1.400 . S
C317 C318 1.398 . S
C318 H306 0.950 . S
C318 C317 1.398 . S
C318 C319 1.391 . S
C319 H307 0.950 . S
C319 C315 1.393 . S
C319 C318 1.391 . S
H320 C328 0.950 . S
H321 C333 0.950 . S
H322 C330 0.950 . S
H323 C332 0.950 . S
H324 C334 0.950 . S
H325 C336 0.950 . S
H326 C338 0.950 . S
H327 C339 0.950 . S
C328 H320 0.950 . S
C328 C329 1.386 . S
C328 C330 1.391 . S
C329 C328 1.386 . S
C329 C333 1.393 1_554 S
C330 H322 0.950 . S
C330 C328 1.391 . S
C330 C331 1.400 . S
C331 C330 1.400 . S
C331 C332 1.398 1_554 S
C331 C337 1.491 1_455 S
C332 H323 0.950 . S
C332 C331 1.398 1_556 S
C332 C333 1.391 . S
C333 H321 0.950 . S
C333 C329 1.393 1_556 S
C333 C332 1.391 . S
C334 H324 0.950 . S
C334 C335 1.386 1_556 S
C334 C336 1.391 . S
C335 C334 1.386 1_554 S
C335 C339 1.393 . S
C336 H325 0.950 . S
C336 C334 1.391 . S
C336 C337 1.400 1_556 S
C337 C331 1.491 1_655 S
C337 C336 1.400 1_554 S
C337 C338 1.398 . S
C338 H326 0.950 . S
C338 C337 1.398 . S
C338 C339 1.391 . S
C339 H327 0.950 . S
C339 C335 1.393 . S
C339 C338 1.391 . S
H340 C348 0.950 . S
H341 C353 0.950 . S
H342 C350 0.950 1_545 S
H343 C352 0.950 . S
H344 C354 0.950 . S
H345 C356 0.950 1_565 S
H346 C358 0.950 . S
H347 C359 0.950 . S
C348 H340 0.950 . S
C348 C349 1.386 . S
C348 C350 1.391 . S
C349 C348 1.386 . S
C349 C353 1.393 . S
C350 H342 0.950 1_565 S
C350 C348 1.391 . S
C350 C351 1.400 . S
C351 C350 1.400 . S
C351 C352 1.398 . S
C351 C357 1.491 1_565 S
C352 H343 0.950 . S
C352 C351 1.398 . S
C352 C353 1.391 . S
C353 H341 0.950 . S
C353 C349 1.393 . S
C353 C352 1.391 . S
C354 H344 0.950 . S
C354 C355 1.386 . S
C354 C356 1.391 . S
C355 C354 1.386 . S
C355 C359 1.393 . S
C356 H345 0.950 1_545 S
C356 C354 1.391 . S
C356 C357 1.400 . S
C357 C351 1.491 1_545 S
C357 C356 1.400 . S
C357 C358 1.398 . S
C358 H346 0.950 . S
C358 C357 1.398 . S
C358 C359 1.391 . S
C359 H347 0.950 . S
C359 C355 1.393 . S
C359 C358 1.391 . S
H360 C368 0.950 . S
H361 C373 0.950 . S
H362 C370 0.950 . S
H363 C372 0.950 . S
H364 C374 0.950 . S
H365 C376 0.950 . S
H366 C378 0.950 . S
H367 C379 0.950 . S
C368 H360 0.950 . S
C368 C369 1.386 . S
C368 C370 1.391 . S
C369 C368 1.386 . S
C369 C373 1.393 . S
C370 H362 0.950 . S
C370 C368 1.391 . S
C370 C371 1.400 . S
C371 C370 1.400 . S
C371 C372 1.398 . S
C371 C377 1.491 . S
C372 H363 0.950 . S
C372 C371 1.398 . S
C372 C373 1.391 . S
C373 H361 0.950 . S
C373 C369 1.393 . S
C373 C372 1.391 . S
C374 H364 0.950 . S
C374 C375 1.386 . S
C374 C376 1.391 . S
C375 C374 1.386 . S
C375 C379 1.393 . S
C376 H365 0.950 . S
C376 C374 1.391 . S
C376 C377 1.400 . S
C377 C371 1.491 . S
C377 C376 1.400 . S
C377 C378 1.398 . S
C378 H366 0.950 . S
C378 C377 1.398 . S
C378 C379 1.391 . S
C379 H367 0.950 . S
C379 C375 1.393 . S
C379 C378 1.391 . S
H380 C388 0.950 . S
H381 C393 0.950 . S
H382 C390 0.950 . S
H383 C392 0.950 . S
H384 C394 0.950 . S
H385 C396 0.950 . S
H386 C398 0.950 . S
H387 C399 0.950 . S
C388 H380 0.950 . S
C388 C389 1.386 . S
C388 C390 1.391 1_655 S
C389 C388 1.386 . S
C389 C393 1.393 . S
C390 H382 0.950 . S
C390 C388 1.391 1_455 S
C390 C391 1.400 . S
C391 C390 1.400 . S
C391 C392 1.399 1_455 S
C391 C397 1.490 . S
C392 H383 0.950 . S
C392 C391 1.399 1_655 S
C392 C393 1.391 . S
C393 H381 0.950 . S
C393 C389 1.393 . S
C393 C392 1.391 . S
C394 H384 0.950 . S
C394 C395 1.386 . S
C394 C396 1.391 . S
C395 C394 1.386 . S
C395 C399 1.393 . S
C396 H385 0.950 . S
C396 C394 1.391 . S
C396 C397 1.400 . S
C397 C391 1.490 . S
C397 C396 1.400 . S
C397 C398 1.398 . S
C398 H386 0.950 . S
C398 C397 1.398 . S
C398 C399 1.391 . S
C399 H387 0.950 . S
C399 C395 1.393 . S
C399 C398 1.391 . S
H400 C408 0.950 . S
H401 C413 0.950 . S
H402 C410 0.950 . S
H403 C412 0.950 . S
H404 C414 0.950 . S
H405 C416 0.950 . S
H406 C418 0.950 1_565 S
H407 C419 0.950 . S
C408 H400 0.950 . S
C408 C409 1.386 . S
C408 C410 1.391 . S
C409 C408 1.386 . S
C409 C413 1.393 . S
C410 H402 0.950 . S
C410 C408 1.391 . S
C410 C411 1.400 1_565 S
C411 C410 1.400 1_545 S
C411 C412 1.398 . S
C411 C417 1.491 . S
C412 H403 0.950 . S
C412 C411 1.398 . S
C412 C413 1.391 1_545 S
C413 H401 0.950 . S
C413 C409 1.393 . S
C413 C412 1.391 1_565 S
C414 H404 0.950 . S
C414 C415 1.386 . S
C414 C416 1.391 . S
C415 C414 1.386 . S
C415 C419 1.393 . S
C416 H405 0.950 . S
C416 C414 1.391 . S
C416 C417 1.400 . S
C417 C411 1.491 . S
C417 C416 1.400 . S
C417 C418 1.398 . S
C418 H406 0.950 1_545 S
C418 C417 1.398 . S
C418 C419 1.391 . S
C419 H407 0.950 . S
C419 C415 1.393 . S
C419 C418 1.391 . S
H420 C428 0.950 . S
H421 C433 0.950 . S
H422 C430 0.950 . S
H423 C432 0.950 . S
H424 C434 0.950 . S
H425 C436 0.950 . S
H426 C438 0.950 . S
H427 C439 0.950 . S
C428 H420 0.950 . S
C428 C429 1.386 . S
C428 C430 1.391 . S
C429 C428 1.386 . S
C429 C433 1.393 . S
C430 H422 0.950 . S
C430 C428 1.391 . S
C430 C431 1.400 . S
C431 C430 1.400 . S
C431 C432 1.398 . S
C431 C437 1.491 . S
C432 H423 0.950 . S
C432 C431 1.398 . S
C432 C433 1.391 . S
C433 H421 0.950 . S
C433 C429 1.393 . S
C433 C432 1.391 . S
C434 H424 0.950 . S
C434 C435 1.386 . S
C434 C436 1.391 . S
C435 C434 1.386 . S
C435 C439 1.393 . S
C436 H425 0.950 . S
C436 C434 1.391 . S
C436 C437 1.400 . S
C437 C431 1.491 . S
C437 C436 1.400 . S
C437 C438 1.398 . S
C438 H426 0.950 . S
C438 C437 1.398 . S
C438 C439 1.391 . S
C439 H427 0.950 . S
C439 C435 1.393 . S
C439 C438 1.391 . S
H440 C448 0.950 . S
H441 C453 0.950 . S
H442 C450 0.950 . S
H443 C452 0.950 . S
H444 C454 0.950 . S
H445 C456 0.950 . S
H446 C458 0.950 . S
H447 C459 0.950 . S
C448 H440 0.950 . S
C448 C449 1.386 . S
C448 C450 1.391 . S
C449 C448 1.386 . S
C449 C453 1.393 . S
C450 H442 0.950 . S
C450 C448 1.391 . S
C450 C451 1.400 1_455 S
C451 C450 1.400 1_655 S
C451 C452 1.398 1_655 S
C451 C457 1.491 . S
C452 H443 0.950 . S
C452 C451 1.398 1_455 S
C452 C453 1.391 . S
C453 H441 0.950 . S
C453 C449 1.393 . S
C453 C452 1.391 . S
C454 H444 0.950 . S
C454 C455 1.386 . S
C454 C456 1.391 . S
C455 C454 1.386 . S
C455 C459 1.393 . S
C456 H445 0.950 . S
C456 C454 1.391 . S
C456 C457 1.400 . S
C457 C451 1.491 . S
C457 C456 1.400 . S
C457 C458 1.398 . S
C458 H446 0.950 . S
C458 C457 1.398 . S
C458 C459 1.391 . S
C459 H447 0.950 . S
C459 C455 1.393 . S
C459 C458 1.391 . S
H460 C468 0.950 . S
H461 C473 0.950 . S
H462 C470 0.950 1_565 S
H463 C472 0.950 . S
H464 C474 0.950 . S
H465 C476 0.950 . S
H466 C478 0.950 . S
H467 C479 0.950 . S
C468 H460 0.950 . S
C468 C469 1.386 . S
C468 C470 1.391 . S
C469 C468 1.386 . S
C469 C473 1.393 . S
C470 H462 0.950 1_545 S
C470 C468 1.391 . S
C470 C471 1.400 . S
C471 C470 1.400 . S
C471 C472 1.398 . S
C471 C477 1.491 1_545 S
C472 H463 0.950 . S
C472 C471 1.398 . S
C472 C473 1.391 . S
C473 H461 0.950 . S
C473 C469 1.393 . S
C473 C472 1.391 . S
C474 H464 0.950 . S
C474 C475 1.386 . S
C474 C476 1.391 . S
C475 C474 1.386 . S
C475 C479 1.393 . S
C476 H465 0.950 . S
C476 C474 1.391 . S
C476 C477 1.400 . S
C477 C471 1.491 1_565 S
C477 C476 1.400 . S
C477 C478 1.398 . S
C478 H466 0.950 . S
C478 C477 1.398 . S
C478 C479 1.391 . S
C479 H467 0.950 . S
C479 C475 1.393 . S
C479 C478 1.391 . S
C129 C99 1.233 . S
C135 C2 1.235 . S
C149 C119 1.239 . S
C155 C22 1.224 . S
C169 C19 1.240 . S
C175 C42 1.223 . S
C189 C39 1.241 . S
C195 C62 1.221 . S
C209 C59 1.234 . S
C215 C82 1.231 . S
C229 C79 1.240 . S
C235 C102 1.223 . S
C249 C8 0.739 . S
C255 C68 0.741 . S
C269 C88 0.727 . S
C275 C28 0.729 . S
C289 C108 0.769 . S
C295 C48 0.769 . S
C309 C49 0.714 . S
C315 C109 0.715 . S
C329 C9 0.709 . S
C335 C69 0.709 . S
C349 C89 0.710 . S
C355 C29 0.709 . S
C369 C118 1.291 . S
C375 C1 1.278 . S
C389 C21 1.289 . S
C395 C18 1.287 . S
C409 C41 1.278 . S
C415 C38 1.290 . S
C429 C58 1.291 . S
C435 C61 1.278 . S
C449 C81 1.278 . S
C455 C78 1.288 . S
C469 C101 1.289 . S
C475 C98 1.288 . S
