# Generated by pormake.
# Topology uoi, (4)-cn, num edge types: 1
# Building blocks:
#     Node 0, Type 0, BuildingBlock: QUQFOY_clean_sbu_3, # of connection points: 4
#     Node 1, Type 0, BuildingBlock: QUQFOY_clean_sbu_3, # of connection points: 4
#     Node 2, Type 0, BuildingBlock: QUQFOY_clean_sbu_3, # of connection points: 4
#     Node 3, Type 0, BuildingBlock: QUQFOY_clean_sbu_3, # of connection points: 4
#     Node 4, Type 0, BuildingBlock: QUQFOY_clean_sbu_3, # of connection points: 4
#     Node 5, Type 0, BuildingBlock: QUQFOY_clean_sbu_3, # of connection points: 4
#     Node 6, Type 0, BuildingBlock: QUQFOY_clean_sbu_3, # of connection points: 4
#     Node 7, Type 0, BuildingBlock: QUQFOY_clean_sbu_3, # of connection points: 4
#     Node 8, Type 0, BuildingBlock: QUQFOY_clean_sbu_3, # of connection points: 4
#     Node 9, Type 0, BuildingBlock: QUQFOY_clean_sbu_3, # of connection points: 4
#     Node 10, Type 0, BuildingBlock: QUQFOY_clean_sbu_3, # of connection points: 4
#     Node 11, Type 0, BuildingBlock: QUQFOY_clean_sbu_3, # of connection points: 4
#     Node 12, Type 0, BuildingBlock: QUQFOY_clean_sbu_3, # of connection points: 4
#     Node 13, Type 0, BuildingBlock: QUQFOY_clean_sbu_3, # of connection points: 4
#     Node 14, Type 0, BuildingBlock: QUQFOY_clean_sbu_3, # of connection points: 4
#     Node 15, Type 0, BuildingBlock: QUQFOY_clean_sbu_3, # of connection points: 4
#     Node 16, Type 0, BuildingBlock: QUQFOY_clean_sbu_3, # of connection points: 4
#     Node 17, Type 0, BuildingBlock: QUQFOY_clean_sbu_3, # of connection points: 4
#     Node 18, Type 0, BuildingBlock: QUQFOY_clean_sbu_3, # of connection points: 4
#     Node 19, Type 0, BuildingBlock: QUQFOY_clean_sbu_3, # of connection points: 4
#     Node 20, Type 0, BuildingBlock: QUQFOY_clean_sbu_3, # of connection points: 4
#     Node 21, Type 0, BuildingBlock: QUQFOY_clean_sbu_3, # of connection points: 4
#     Node 22, Type 0, BuildingBlock: QUQFOY_clean_sbu_3, # of connection points: 4
#     Node 23, Type 0, BuildingBlock: QUQFOY_clean_sbu_3, # of connection points: 4
#     Node 24, Type 0, BuildingBlock: QUQFOY_clean_sbu_3, # of connection points: 4
#     Node 25, Type 0, BuildingBlock: QUQFOY_clean_sbu_3, # of connection points: 4
#     Node 26, Type 0, BuildingBlock: QUQFOY_clean_sbu_3, # of connection points: 4
#     Node 27, Type 0, BuildingBlock: QUQFOY_clean_sbu_3, # of connection points: 4
#     Node 28, Type 0, BuildingBlock: QUQFOY_clean_sbu_3, # of connection points: 4
#     Node 29, Type 0, BuildingBlock: QUQFOY_clean_sbu_3, # of connection points: 4
#     Node 30, Type 0, BuildingBlock: QUQFOY_clean_sbu_3, # of connection points: 4
#     Node 31, Type 0, BuildingBlock: QUQFOY_clean_sbu_3, # of connection points: 4
#     Edge 32, Type (0, 0), BuildingBlock: MIFKUJ_clean_linker_0, # of connection points: 2
#     Edge 33, Type (0, 0), BuildingBlock: MIFKUJ_clean_linker_0, # of connection points: 2
#     Edge 34, Type (0, 0), BuildingBlock: MIFKUJ_clean_linker_0, # of connection points: 2
#     Edge 35, Type (0, 0), BuildingBlock: MIFKUJ_clean_linker_0, # of connection points: 2
#     Edge 36, Type (0, 0), BuildingBlock: MIFKUJ_clean_linker_0, # of connection points: 2
#     Edge 37, Type (0, 0), BuildingBlock: MIFKUJ_clean_linker_0, # of connection points: 2
#     Edge 38, Type (0, 0), BuildingBlock: MIFKUJ_clean_linker_0, # of connection points: 2
#     Edge 39, Type (0, 0), BuildingBlock: MIFKUJ_clean_linker_0, # of connection points: 2
#     Edge 40, Type (0, 0), BuildingBlock: MIFKUJ_clean_linker_0, # of connection points: 2
#     Edge 41, Type (0, 0), BuildingBlock: MIFKUJ_clean_linker_0, # of connection points: 2
#     Edge 42, Type (0, 0), BuildingBlock: MIFKUJ_clean_linker_0, # of connection points: 2
#     Edge 43, Type (0, 0), BuildingBlock: MIFKUJ_clean_linker_0, # of connection points: 2
#     Edge 44, Type (0, 0), BuildingBlock: MIFKUJ_clean_linker_0, # of connection points: 2
#     Edge 45, Type (0, 0), BuildingBlock: MIFKUJ_clean_linker_0, # of connection points: 2
#     Edge 46, Type (0, 0), BuildingBlock: MIFKUJ_clean_linker_0, # of connection points: 2
#     Edge 47, Type (0, 0), BuildingBlock: MIFKUJ_clean_linker_0, # of connection points: 2
#     Edge 48, Type (0, 0), BuildingBlock: MIFKUJ_clean_linker_0, # of connection points: 2
#     Edge 49, Type (0, 0), BuildingBlock: MIFKUJ_clean_linker_0, # of connection points: 2
#     Edge 50, Type (0, 0), BuildingBlock: MIFKUJ_clean_linker_0, # of connection points: 2
#     Edge 51, Type (0, 0), BuildingBlock: MIFKUJ_clean_linker_0, # of connection points: 2
#     Edge 52, Type (0, 0), BuildingBlock: MIFKUJ_clean_linker_0, # of connection points: 2
#     Edge 53, Type (0, 0), BuildingBlock: MIFKUJ_clean_linker_0, # of connection points: 2
#     Edge 54, Type (0, 0), BuildingBlock: MIFKUJ_clean_linker_0, # of connection points: 2
#     Edge 55, Type (0, 0), BuildingBlock: MIFKUJ_clean_linker_0, # of connection points: 2
#     Edge 56, Type (0, 0), BuildingBlock: MIFKUJ_clean_linker_0, # of connection points: 2
#     Edge 57, Type (0, 0), BuildingBlock: MIFKUJ_clean_linker_0, # of connection points: 2
#     Edge 58, Type (0, 0), BuildingBlock: MIFKUJ_clean_linker_0, # of connection points: 2
#     Edge 59, Type (0, 0), BuildingBlock: MIFKUJ_clean_linker_0, # of connection points: 2
#     Edge 60, Type (0, 0), BuildingBlock: MIFKUJ_clean_linker_0, # of connection points: 2
#     Edge 61, Type (0, 0), BuildingBlock: MIFKUJ_clean_linker_0, # of connection points: 2
#     Edge 62, Type (0, 0), BuildingBlock: MIFKUJ_clean_linker_0, # of connection points: 2
#     Edge 63, Type (0, 0), BuildingBlock: MIFKUJ_clean_linker_0, # of connection points: 2
#     Edge 64, Type (0, 0), BuildingBlock: MIFKUJ_clean_linker_0, # of connection points: 2
#     Edge 65, Type (0, 0), BuildingBlock: MIFKUJ_clean_linker_0, # of connection points: 2
#     Edge 66, Type (0, 0), BuildingBlock: MIFKUJ_clean_linker_0, # of connection points: 2
#     Edge 67, Type (0, 0), BuildingBlock: MIFKUJ_clean_linker_0, # of connection points: 2
#     Edge 68, Type (0, 0), BuildingBlock: MIFKUJ_clean_linker_0, # of connection points: 2
#     Edge 69, Type (0, 0), BuildingBlock: MIFKUJ_clean_linker_0, # of connection points: 2
#     Edge 70, Type (0, 0), BuildingBlock: MIFKUJ_clean_linker_0, # of connection points: 2
#     Edge 71, Type (0, 0), BuildingBlock: MIFKUJ_clean_linker_0, # of connection points: 2
#     Edge 72, Type (0, 0), BuildingBlock: MIFKUJ_clean_linker_0, # of connection points: 2
#     Edge 73, Type (0, 0), BuildingBlock: MIFKUJ_clean_linker_0, # of connection points: 2
#     Edge 74, Type (0, 0), BuildingBlock: MIFKUJ_clean_linker_0, # of connection points: 2
#     Edge 75, Type (0, 0), BuildingBlock: MIFKUJ_clean_linker_0, # of connection points: 2
#     Edge 76, Type (0, 0), BuildingBlock: MIFKUJ_clean_linker_0, # of connection points: 2
#     Edge 77, Type (0, 0), BuildingBlock: MIFKUJ_clean_linker_0, # of connection points: 2
#     Edge 78, Type (0, 0), BuildingBlock: MIFKUJ_clean_linker_0, # of connection points: 2
#     Edge 79, Type (0, 0), BuildingBlock: MIFKUJ_clean_linker_0, # of connection points: 2
#     Edge 80, Type (0, 0), BuildingBlock: MIFKUJ_clean_linker_0, # of connection points: 2
#     Edge 81, Type (0, 0), BuildingBlock: MIFKUJ_clean_linker_0, # of connection points: 2
#     Edge 82, Type (0, 0), BuildingBlock: MIFKUJ_clean_linker_0, # of connection points: 2
#     Edge 83, Type (0, 0), BuildingBlock: MIFKUJ_clean_linker_0, # of connection points: 2
#     Edge 84, Type (0, 0), BuildingBlock: MIFKUJ_clean_linker_0, # of connection points: 2
#     Edge 85, Type (0, 0), BuildingBlock: MIFKUJ_clean_linker_0, # of connection points: 2
#     Edge 86, Type (0, 0), BuildingBlock: MIFKUJ_clean_linker_0, # of connection points: 2
#     Edge 87, Type (0, 0), BuildingBlock: MIFKUJ_clean_linker_0, # of connection points: 2
#     Edge 88, Type (0, 0), BuildingBlock: MIFKUJ_clean_linker_0, # of connection points: 2
#     Edge 89, Type (0, 0), BuildingBlock: MIFKUJ_clean_linker_0, # of connection points: 2
#     Edge 90, Type (0, 0), BuildingBlock: MIFKUJ_clean_linker_0, # of connection points: 2
#     Edge 91, Type (0, 0), BuildingBlock: MIFKUJ_clean_linker_0, # of connection points: 2
#     Edge 92, Type (0, 0), BuildingBlock: MIFKUJ_clean_linker_0, # of connection points: 2
#     Edge 93, Type (0, 0), BuildingBlock: MIFKUJ_clean_linker_0, # of connection points: 2
#     Edge 94, Type (0, 0), BuildingBlock: MIFKUJ_clean_linker_0, # of connection points: 2
#     Edge 95, Type (0, 0), BuildingBlock: MIFKUJ_clean_linker_0, # of connection points: 2
# Relax obj value: 0.257
# Max RMSD: 0.462
# Mean RMSD: 0.287
data_MOF--net-uoi--node1-QUQFOY_clean_sbu_3--edge1-MIFKUJ_clean_linker_0
_symmetry_space_group_name_H-M    P1
_symmetry_Int_Tables_number       1
_symmetry_cell_setting            triclinic
loop_
_symmetry_equiv_pos_as_xyz
'x, y, z'
_cell_length_a     64.880506
_cell_length_b     99.245665
_cell_length_c     27.34186
_cell_angle_alpha  90.026532
_cell_angle_beta   90.055083
_cell_angle_gamma 90.060478
loop_
_atom_site_label
_atom_site_type_symbol
_atom_site_fract_x
_atom_site_fract_y
_atom_site_fract_z
_atom_type_partial_charge
C0 C 0.32467 0.1696 0.34724 0.0
O1 O 0.3323 0.16391 0.3101 0.0
Cd2 Cd 0.34694 0.18509 0.27716 0.0
O3 O 0.32237 0.18224 0.34531 0.0
Cd4 Cd 0.31851 0.18951 0.25829 0.0
C5 C 0.32917 0.21417 0.32332 0.0
O6 O 0.3464 0.1901 0.19252 0.0
O7 O 0.32134 0.20483 0.19307 0.0
O8 O 0.30519 0.16884 0.22669 0.0
C9 C 0.33671 0.19966 0.17137 0.0
O10 O 0.34488 0.20648 0.32345 0.0
C11 C 0.28684 0.17299 0.22094 0.0
O12 O 0.31317 0.21053 0.3 0.0
O13 O 0.28257 0.18479 0.23606 0.0
C14 C 0.11878 0.93291 0.62766 0.0
O15 O 0.10332 0.93705 0.60352 0.0
Cd16 Cd 0.07465 0.92327 0.58304 0.0
O17 O 0.12104 0.92039 0.637 0.0
Cd18 Cd 0.10388 0.8986 0.61391 0.0
C19 C 0.06758 0.9071 0.69462 0.0
O20 O 0.08807 0.90515 0.53676 0.0
O21 O 0.07621 0.88697 0.56895 0.0
O22 O 0.13772 0.89021 0.59125 0.0
C23 C 0.07586 0.89522 0.53364 0.0
O24 O 0.0617 0.91557 0.66245 0.0
C25 C 0.13514 0.8786 0.60972 0.0
O26 O 0.08327 0.89968 0.68749 0.0
O27 O 0.11825 0.8764 0.63174 0.0
C28 C 0.17097 0.82697 0.83877 0.0
O29 O 0.15218 0.83024 0.83479 0.0
Cd30 Cd 0.13324 0.81469 0.78243 0.0
O31 O 0.17793 0.81729 0.8135 0.0
Cd32 Cd 0.16911 0.80184 0.74785 0.0
C33 C 0.14408 0.78295 0.82532 0.0
O34 O 0.1438 0.81357 0.69623 0.0
O35 O 0.14473 0.79176 0.69352 0.0
O36 O 0.19606 0.81443 0.71417 0.0
C37 C 0.1393 0.80273 0.67369 0.0
O38 O 0.13118 0.7926 0.82307 0.0
C39 C 0.20781 0.8049 0.70138 0.0
O40 O 0.16115 0.78364 0.80267 0.0
O41 O 0.20135 0.79292 0.70834 0.0
C42 C 0.37396 0.0618 0.11889 0.0
O43 O 0.39045 0.06063 0.09432 0.0
Cd44 Cd 0.41358 0.07799 0.07074 0.0
O45 O 0.36684 0.07342 0.12979 0.0
Cd46 Cd 0.37719 0.09722 0.10726 0.0
C47 C 0.41744 0.09483 0.18207 0.0
O48 O 0.39429 0.0942 0.02854 0.0
O49 O 0.40281 0.11188 0.0692 0.0
O50 O 0.34352 0.10369 0.07564 0.0
C51 C 0.40428 0.10517 0.02999 0.0
O52 O 0.42547 0.08815 0.14709 0.0
C53 C 0.3433 0.11506 0.09701 0.0
O54 O 0.39873 0.0987 0.18009 0.0
O55 O 0.35769 0.11741 0.12736 0.0
C56 C 0.32011 0.83114 0.17768 0.0
O57 O 0.33937 0.82892 0.17645 0.0
Cd58 Cd 0.35578 0.81112 0.22567 0.0
O59 O 0.30868 0.8247 0.20702 0.0
Cd60 Cd 0.31442 0.80894 0.27218 0.0
C61 C 0.3308 0.78345 0.19511 0.0
O62 O 0.34795 0.80639 0.31144 0.0
O63 O 0.33115 0.82432 0.32887 0.0
O64 O 0.28268 0.81867 0.29838 0.0
C65 C 0.34368 0.81535 0.3428 0.0
O66 O 0.34693 0.7903 0.18646 0.0
C67 C 0.27812 0.80996 0.3304 0.0
O68 O 0.31704 0.78767 0.2246 0.0
O69 O 0.28958 0.79958 0.33278 0.0
C70 C 0.38986 0.93789 0.35845 0.0
O71 O 0.40699 0.93822 0.38099 0.0
Cd72 Cd 0.42718 0.9195 0.40844 0.0
O73 O 0.38114 0.92665 0.34895 0.0
Cd74 Cd 0.38919 0.90239 0.36565 0.0
C75 C 0.43204 0.90291 0.29856 0.0
O76 O 0.40441 0.90434 0.44677 0.0
O77 O 0.40978 0.88557 0.41022 0.0
O78 O 0.35353 0.89768 0.38491 0.0
C79 C 0.41227 0.89267 0.44822 0.0
O80 O 0.44059 0.90831 0.33569 0.0
C81 C 0.3527 0.88678 0.36059 0.0
O82 O 0.41266 0.901 0.29669 0.0
O83 O 0.3684 0.88375 0.3352 0.0
C84 C 0.17333 0.16414 0.68536 0.0
O85 O 0.15388 0.16364 0.68145 0.0
Cd86 Cd 0.13449 0.18033 0.72706 0.0
O87 O 0.18155 0.17287 0.71312 0.0
Cd88 Cd 0.17111 0.19115 0.76796 0.0
C89 C 0.15135 0.21038 0.68097 0.0
O90 O 0.14122 0.18315 0.81442 0.0
O91 O 0.14432 0.20467 0.80325 0.0
O92 O 0.19024 0.18459 0.83976 0.0
C93 C 0.13659 0.19506 0.82773 0.0
O94 O 0.1368 0.20177 0.683 0.0
C95 C 0.20499 0.1928 0.83446 0.0
O96 O 0.16751 0.20881 0.70674 0.0
O97 O 0.20415 0.20068 0.79789 0.0
C98 C 0.11937 0.04957 0.87763 0.0
O99 O 0.10302 0.04742 0.90177 0.0
Cd100 Cd 0.07765 0.06453 0.91055 0.0
O101 O 0.12451 0.0615 0.86527 0.0
Cd102 Cd 0.11328 0.08504 0.88537 0.0
C103 C 0.08025 0.08032 0.79577 0.0
O104 O 0.09209 0.08211 0.9574 0.0
O105 O 0.08545 0.09976 0.91423 0.0
O106 O 0.14459 0.08779 0.9305 0.0
C107 C 0.08203 0.09297 0.95264 0.0
O108 O 0.07143 0.07285 0.82743 0.0
C109 C 0.14972 0.09903 0.91209 0.0
O110 O 0.09718 0.08627 0.80548 0.0
O111 O 0.13828 0.10366 0.8782 0.0
C112 C 0.68196 0.82157 0.66393 0.0
O113 O 0.66263 0.82279 0.65952 0.0
Cd114 Cd 0.64358 0.80546 0.7028 0.0
O115 O 0.68934 0.81224 0.6903 0.0
Cd116 Cd 0.68107 0.79415 0.74682 0.0
C117 C 0.66244 0.77513 0.65924 0.0
O118 O 0.65068 0.80357 0.78997 0.0
O119 O 0.65597 0.78202 0.79303 0.0
O120 O 0.70495 0.8081 0.78647 0.0
C121 C 0.6464 0.79223 0.80904 0.0
O122 O 0.64805 0.78384 0.6614 0.0
C123 C 0.71614 0.79932 0.80669 0.0
O124 O 0.67874 0.77658 0.68471 0.0
O125 O 0.71135 0.78704 0.79907 0.0
C126 C 0.87558 0.0542 0.37267 0.0
O127 O 0.89209 0.05062 0.39387 0.0
Cd128 Cd 0.92098 0.06482 0.40805 0.0
O129 O 0.87215 0.06658 0.36292 0.0
Cd130 Cd 0.88957 0.08852 0.38465 0.0
C131 C 0.92331 0.08233 0.29702 0.0
O132 O 0.91 0.08285 0.45688 0.0
O133 O 0.92002 0.10007 0.41521 0.0
O134 O 0.85881 0.09602 0.42701 0.0
C135 C 0.92216 0.09281 0.45292 0.0
O136 O 0.9305 0.07413 0.32861 0.0
C137 C 0.85979 0.10803 0.41135 0.0
O138 O 0.90674 0.08884 0.30527 0.0
O139 O 0.87356 0.11072 0.37986 0.0
C140 C 0.81239 0.16806 0.15628 0.0
O141 O 0.8313 0.16535 0.1623 0.0
Cd142 Cd 0.84922 0.18295 0.20797 0.0
O143 O 0.8045 0.17782 0.17952 0.0
Cd144 Cd 0.81189 0.19342 0.24548 0.0
C145 C 0.83206 0.21313 0.16163 0.0
O146 O 0.84208 0.18598 0.2947 0.0
O147 O 0.83272 0.20708 0.2958 0.0
O148 O 0.79029 0.1785 0.2897 0.0
C149 C 0.84352 0.19768 0.3138 0.0
O150 O 0.84619 0.20424 0.16364 0.0
C151 C 0.77626 0.18683 0.30075 0.0
O152 O 0.81574 0.21186 0.18708 0.0
O153 O 0.77864 0.19894 0.2862 0.0
C154 C 0.62079 0.94349 0.82781 0.0
O155 O 0.6022 0.9457 0.83972 0.0
Cd156 Cd 0.57571 0.93026 0.85825 0.0
O157 O 0.62783 0.93147 0.82621 0.0
Cd158 Cd 0.61238 0.9088 0.8474 0.0
C159 C 0.5775 0.90992 0.75597 0.0
O160 O 0.5909 0.91561 0.91592 0.0
O161 O 0.58489 0.89581 0.88729 0.0
O162 O 0.64253 0.90147 0.89447 0.0
C163 C 0.58129 0.90457 0.91974 0.0
O164 O 0.56822 0.9186 0.78218 0.0
C165 C 0.6437 0.89005 0.87368 0.0
O166 O 0.59464 0.90487 0.76943 0.0
O167 O 0.63167 0.88799 0.83779 0.0
C168 C 0.6765 0.14857 0.79643 0.0
O169 O 0.65702 0.14921 0.79877 0.0
Cd170 Cd 0.64063 0.1675 0.75395 0.0
O171 O 0.68644 0.15771 0.77424 0.0
Cd172 Cd 0.6811 0.17888 0.73193 0.0
C173 C 0.6542 0.19608 0.81445 0.0
O174 O 0.65427 0.17268 0.67309 0.0
O175 O 0.65815 0.19391 0.69078 0.0
O176 O 0.70475 0.17785 0.6639 0.0
C177 C 0.65093 0.18497 0.66226 0.0
O178 O 0.6395 0.18824 0.80247 0.0
C179 C 0.72041 0.18249 0.68575 0.0
O180 O 0.67227 0.19421 0.79772 0.0
O181 O 0.71781 0.18626 0.72962 0.0
C182 C 0.61204 0.06133 0.62327 0.0
O183 O 0.59393 0.05887 0.60823 0.0
Cd184 Cd 0.5673 0.07485 0.59941 0.0
O185 O 0.61778 0.07346 0.63104 0.0
Cd186 Cd 0.60145 0.09626 0.61767 0.0
C187 C 0.56997 0.09148 0.71124 0.0
O188 O 0.57925 0.09228 0.54789 0.0
O189 O 0.57027 0.10887 0.59421 0.0
O190 O 0.62807 0.10346 0.56274 0.0
C191 C 0.56807 0.10258 0.55419 0.0
O192 O 0.56101 0.08362 0.68109 0.0
C193 C 0.63264 0.11426 0.58497 0.0
O194 O 0.58657 0.09756 0.69963 0.0
O195 O 0.62374 0.11638 0.62569 0.0
C196 C 0.83228 0.83174 0.33856 0.0
O197 O 0.85179 0.83091 0.33832 0.0
Cd198 Cd 0.86942 0.81378 0.28785 0.0
O199 O 0.82172 0.82432 0.31049 0.0
Cd200 Cd 0.82826 0.80864 0.24617 0.0
C201 C 0.85033 0.78417 0.31916 0.0
O202 O 0.86118 0.80839 0.20277 0.0
O203 O 0.84002 0.82405 0.18248 0.0
O204 O 0.79378 0.81544 0.22862 0.0
C205 C 0.85465 0.81636 0.17006 0.0
O206 O 0.86546 0.7921 0.32616 0.0
C207 C 0.78971 0.80627 0.19791 0.0
O208 O 0.83529 0.78772 0.29209 0.0
O209 O 0.80332 0.79726 0.19132 0.0
C210 C 0.86202 0.93672 0.12551 0.0
O211 O 0.87723 0.94044 0.09968 0.0
Cd212 Cd 0.90548 0.92624 0.07963 0.0
O213 O 0.85916 0.92428 0.13542 0.0
Cd214 Cd 0.8745 0.90214 0.10818 0.0
C215 C 0.91152 0.90864 0.18966 0.0
O216 O 0.89298 0.90802 0.03372 0.0
O217 O 0.90298 0.89003 0.071 0.0
O218 O 0.84277 0.89502 0.06871 0.0
C219 C 0.90486 0.89787 0.03477 0.0
O220 O 0.91729 0.9173 0.15804 0.0
C221 C 0.84244 0.88335 0.0877 0.0
O222 O 0.89541 0.90149 0.18287 0.0
O223 O 0.85615 0.88078 0.11964 0.0
C224 C 0.82726 0.66345 0.8398 0.0
O225 O 0.84666 0.66485 0.84033 0.0
Cd226 Cd 0.86018 0.68168 0.78435 0.0
O227 O 0.81623 0.67091 0.81281 0.0
Cd228 Cd 0.81984 0.68909 0.75372 0.0
C229 C 0.84137 0.71098 0.82996 0.0
O230 O 0.84716 0.68 0.70036 0.0
O231 O 0.84034 0.7013 0.69563 0.0
O232 O 0.79172 0.67688 0.71785 0.0
C233 C 0.84852 0.69097 0.6767 0.0
O234 O 0.85759 0.70416 0.82161 0.0
C235 C 0.78066 0.68697 0.7073 0.0
O236 O 0.82408 0.70701 0.81343 0.0
O237 O 0.78771 0.6985 0.71872 0.0
C238 C 0.6247 0.44718 0.12702 0.0
O239 O 0.60832 0.45007 0.10408 0.0
Cd240 Cd 0.58151 0.43393 0.09833 0.0
O241 O 0.62877 0.43499 0.13826 0.0
Cd242 Cd 0.61401 0.41243 0.1138 0.0
C243 C 0.58414 0.41636 0.20897 0.0
O244 O 0.5911 0.41654 0.04384 0.0
O245 O 0.58332 0.39982 0.09075 0.0
O246 O 0.64512 0.40779 0.06667 0.0
C247 C 0.58013 0.40615 0.05126 0.0
O248 O 0.57564 0.42488 0.18051 0.0
C249 C 0.64636 0.39554 0.07957 0.0
O250 O 0.60002 0.40979 0.19563 0.0
O251 O 0.63353 0.3914 0.11124 0.0
C252 C 0.64873 0.32811 0.32065 0.0
O253 O 0.63593 0.31858 0.32567 0.0
Cd254 Cd 0.62779 0.3052 0.25191 0.0
O255 O 0.6592 0.32867 0.28183 0.0
Cd256 Cd 0.66795 0.30872 0.23515 0.0
C257 C 0.65384 0.28106 0.29644 0.0
O258 O 0.64119 0.30826 0.16921 0.0
O259 O 0.66581 0.29337 0.17075 0.0
O260 O 0.68849 0.32658 0.20232 0.0
C261 C 0.65124 0.29893 0.1476 0.0
O262 O 0.63712 0.28289 0.27337 0.0
C263 C 0.7056 0.32048 0.20257 0.0
O264 O 0.6675 0.29033 0.29768 0.0
O265 O 0.7057 0.30857 0.21983 0.0
C266 C 0.87865 0.56049 0.61964 0.0
O267 O 0.89588 0.55881 0.59862 0.0
Cd268 Cd 0.92009 0.57634 0.58634 0.0
O269 O 0.87212 0.57233 0.62929 0.0
Cd270 Cd 0.88299 0.59626 0.61149 0.0
C271 C 0.91696 0.59183 0.70068 0.0
O272 O 0.90369 0.59311 0.53886 0.0
O273 O 0.90991 0.61132 0.57873 0.0
O274 O 0.84972 0.60002 0.5742 0.0
C275 C 0.91355 0.6041 0.5415 0.0
O276 O 0.92634 0.58454 0.66943 0.0
C277 C 0.84662 0.61143 0.59376 0.0
O278 O 0.89986 0.59745 0.69052 0.0
O279 O 0.86011 0.61563 0.62385 0.0
C280 C 0.80733 0.33506 0.64104 0.0
O281 O 0.814 0.34219 0.67595 0.0
Cd282 Cd 0.84013 0.32617 0.70499 0.0
O283 O 0.81173 0.32264 0.64171 0.0
Cd284 Cd 0.81578 0.31382 0.72646 0.0
C285 C 0.83675 0.29467 0.65425 0.0
O286 O 0.84165 0.32164 0.79062 0.0
O287 O 0.8397 0.30045 0.77227 0.0
O288 O 0.78736 0.32793 0.75029 0.0
C289 C 0.84652 0.30952 0.80065 0.0
O290 O 0.84761 0.30538 0.65625 0.0
C291 C 0.77633 0.31865 0.76845 0.0
O292 O 0.82008 0.29404 0.67846 0.0
O293 O 0.78362 0.30674 0.76781 0.0
C294 C 0.87678 0.44139 0.87117 0.0
O295 O 0.89201 0.44371 0.89896 0.0
Cd296 Cd 0.91809 0.42723 0.90715 0.0
O297 O 0.8731 0.42942 0.85637 0.0
Cd298 Cd 0.88628 0.4063 0.87943 0.0
C299 C 0.91932 0.41189 0.79183 0.0
O300 O 0.90604 0.40903 0.9549 0.0
O301 O 0.91613 0.39328 0.90599 0.0
O302 O 0.85398 0.40231 0.92082 0.0
C303 C 0.9173 0.39878 0.94771 0.0
O304 O 0.92664 0.41982 0.82417 0.0
C305 C 0.85196 0.39016 0.90726 0.0
O306 O 0.90312 0.40498 0.80006 0.0
O307 O 0.86512 0.38567 0.87691 0.0
C308 C 0.66759 0.66125 0.14887 0.0
O309 O 0.64954 0.65648 0.15192 0.0
Cd310 Cd 0.62815 0.67195 0.19949 0.0
O311 O 0.67255 0.67115 0.1756 0.0
Cd312 Cd 0.65981 0.68256 0.2474 0.0
C313 C 0.64221 0.70461 0.17179 0.0
O314 O 0.63038 0.6716 0.28884 0.0
O315 O 0.63292 0.69335 0.29225 0.0
O316 O 0.68122 0.6671 0.28957 0.0
C317 C 0.62539 0.6826 0.3098 0.0
O318 O 0.62944 0.69499 0.16533 0.0
C319 C 0.69395 0.67553 0.30691 0.0
O320 O 0.65735 0.70314 0.20085 0.0
O321 O 0.69062 0.68795 0.29789 0.0
C322 C 0.63231 0.5661 0.3688 0.0
O323 O 0.61609 0.56285 0.39191 0.0
Cd324 Cd 0.58812 0.57778 0.40531 0.0
O325 O 0.63602 0.5784 0.35817 0.0
Cd326 Cd 0.62088 0.6011 0.37843 0.0
C327 C 0.58655 0.59377 0.2916 0.0
O328 O 0.60098 0.59602 0.45121 0.0
O329 O 0.59219 0.61411 0.4133 0.0
O330 O 0.65217 0.60809 0.41879 0.0
C331 C 0.58954 0.60635 0.44951 0.0
O332 O 0.57927 0.58558 0.32311 0.0
C333 C 0.65361 0.61947 0.39783 0.0
O334 O 0.60244 0.60089 0.30087 0.0
O335 O 0.64054 0.62198 0.36436 0.0
C336 C 0.17576 0.33842 0.17408 0.0
O337 O 0.15676 0.34102 0.17877 0.0
Cd338 Cd 0.13783 0.32428 0.22514 0.0
O339 O 0.18365 0.3289 0.19879 0.0
Cd340 Cd 0.17366 0.31357 0.26497 0.0
C341 C 0.15493 0.29365 0.18147 0.0
O342 O 0.14363 0.32152 0.31221 0.0
O343 O 0.14743 0.30002 0.30218 0.0
O344 O 0.19402 0.32654 0.32023 0.0
C345 C 0.13925 0.30959 0.32588 0.0
O346 O 0.14085 0.30259 0.183 0.0
C347 C 0.20655 0.3174 0.33285 0.0
O348 O 0.17122 0.295 0.20709 0.0
O349 O 0.20427 0.30589 0.31284 0.0
C350 C 0.38203 0.5613 0.85806 0.0
O351 O 0.39902 0.55773 0.87706 0.0
Cd352 Cd 0.42736 0.57242 0.89107 0.0
O353 O 0.37793 0.57375 0.85122 0.0
Cd354 Cd 0.39433 0.59601 0.87461 0.0
C355 C 0.42777 0.59119 0.78335 0.0
O356 O 0.41595 0.58964 0.94359 0.0
O357 O 0.42387 0.60833 0.90796 0.0
O358 O 0.36597 0.60338 0.92489 0.0
C359 C 0.42722 0.60009 0.94245 0.0
O360 O 0.43546 0.58228 0.8115 0.0
C361 C 0.36256 0.6143 0.90217 0.0
O362 O 0.41183 0.59785 0.79584 0.0
O363 O 0.37315 0.61645 0.86384 0.0
C364 C 0.31793 0.66051 0.6805 0.0
O365 O 0.33686 0.66368 0.67917 0.0
Cd366 Cd 0.35042 0.6833 0.72384 0.0
O367 O 0.30541 0.66748 0.70533 0.0
Cd368 Cd 0.30712 0.68679 0.75831 0.0
C369 C 0.32819 0.7104 0.67806 0.0
O370 O 0.33887 0.69077 0.80418 0.0
O371 O 0.32007 0.67427 0.82888 0.0
O372 O 0.2708 0.68088 0.76355 0.0
C373 C 0.33362 0.68304 0.83886 0.0
O374 O 0.34436 0.70319 0.6767 0.0
C375 C 0.26725 0.68744 0.80239 0.0
O376 O 0.31281 0.70687 0.70426 0.0
O377 O 0.28163 0.69503 0.81782 0.0
C378 C 0.12258 0.43043 0.33735 0.0
O379 O 0.10526 0.43399 0.35456 0.0
Cd380 Cd 0.08075 0.42113 0.39966 0.0
O381 O 0.12921 0.4184 0.34219 0.0
Cd382 Cd 0.11434 0.39741 0.38021 0.0
C383 C 0.07198 0.39764 0.30949 0.0
O384 O 0.09915 0.40726 0.45383 0.0
O385 O 0.08952 0.38713 0.43659 0.0
O386 O 0.1481 0.38963 0.40859 0.0
C387 C 0.08849 0.39706 0.46548 0.0
O388 O 0.06521 0.40651 0.33909 0.0
C389 C 0.14524 0.3775 0.39534 0.0
O390 O 0.09054 0.39348 0.31177 0.0
O391 O 0.12886 0.37496 0.37167 0.0
C392 C 0.18115 0.66152 0.3315 0.0
O393 O 0.16169 0.66083 0.33416 0.0
Cd394 Cd 0.143 0.67846 0.29216 0.0
O395 O 0.18945 0.67033 0.30426 0.0
Cd396 Cd 0.17973 0.6874 0.24403 0.0
C397 C 0.16497 0.70831 0.33026 0.0
O398 O 0.1471 0.68041 0.20445 0.0
O399 O 0.15429 0.70174 0.2082 0.0
O400 O 0.19745 0.67478 0.18298 0.0
C401 C 0.14358 0.69235 0.18967 0.0
O402 O 0.14969 0.70024 0.33113 0.0
C403 C 0.21113 0.68341 0.1725 0.0
O404 O 0.18048 0.70582 0.30319 0.0
O405 O 0.21053 0.69452 0.19575 0.0
C406 C 0.11092 0.5515 0.12817 0.0
O407 O 0.09249 0.54949 0.11433 0.0
Cd408 Cd 0.0665 0.56598 0.10262 0.0
O409 O 0.11784 0.56348 0.13338 0.0
Cd410 Cd 0.10384 0.5868 0.11676 0.0
C411 C 0.07116 0.58433 0.21071 0.0
O412 O 0.07995 0.58248 0.05007 0.0
O413 O 0.07546 0.60114 0.08888 0.0
O414 O 0.13048 0.59311 0.05998 0.0
C415 C 0.07041 0.59357 0.05347 0.0
O416 O 0.0615 0.57642 0.18199 0.0
C417 C 0.13636 0.60356 0.08278 0.0
O418 O 0.08837 0.58951 0.19822 0.0
O419 O 0.12834 0.60571 0.12449 0.0
C420 C 0.31538 0.3431 0.80884 0.0
O421 O 0.33481 0.34348 0.81352 0.0
Cd422 Cd 0.35526 0.32806 0.76422 0.0
O423 O 0.30714 0.3343 0.78141 0.0
Cd424 Cd 0.31868 0.31526 0.73232 0.0
C425 C 0.34531 0.29777 0.81481 0.0
O426 O 0.34418 0.32552 0.67897 0.0
O427 O 0.34586 0.30393 0.68823 0.0
O428 O 0.2953 0.31812 0.66497 0.0
C429 C 0.3496 0.31416 0.66184 0.0
O430 O 0.35939 0.30646 0.80718 0.0
C431 C 0.28281 0.30889 0.67655 0.0
O432 O 0.32766 0.29919 0.79529 0.0
O433 O 0.28667 0.30229 0.71519 0.0
C434 C 0.37766 0.44075 0.63181 0.0
O435 O 0.3946 0.44399 0.61181 0.0
Cd436 Cd 0.42219 0.42924 0.59211 0.0
O437 O 0.37292 0.42841 0.63912 0.0
Cd438 Cd 0.38834 0.40587 0.61578 0.0
C439 C 0.4253 0.41037 0.69954 0.0
O440 O 0.40763 0.41223 0.54358 0.0
O441 O 0.41633 0.39321 0.57493 0.0
O442 O 0.3581 0.39808 0.57273 0.0
C443 C 0.41882 0.40181 0.54121 0.0
O444 O 0.43262 0.41882 0.66901 0.0
C445 C 0.35594 0.3872 0.59654 0.0
O446 O 0.40823 0.40441 0.69141 0.0
O447 O 0.36809 0.38532 0.6324 0.0
H448 H 0.16469 0.15466 0.59366 0.0
H449 H 0.19014 0.14765 0.53244 0.0
H450 H 0.23794 0.14911 0.64191 0.0
H451 H 0.21278 0.15633 0.70287 0.0
H452 H 0.22406 0.16774 0.52137 0.0
H453 H 0.26396 0.12828 0.62305 0.0
H454 H 0.25778 0.10673 0.66597 0.0
H455 H 0.21432 0.09506 0.55509 0.0
H456 H 0.22009 0.11664 0.51208 0.0
H457 H 0.32162 0.17698 0.4422 0.0
H458 H 0.29664 0.1684 0.50123 0.0
H459 H 0.27875 0.13722 0.39976 0.0
H460 H 0.30433 0.14555 0.34091 0.0
H461 H 0.27394 0.13008 0.50457 0.0
H462 H 0.25425 0.16422 0.38695 0.0
H463 H 0.26045 0.1854 0.34207 0.0
H464 H 0.26068 0.2074 0.47736 0.0
H465 H 0.25485 0.1863 0.5231 0.0
C466 C 0.18046 0.15295 0.6051 0.0
C467 C 0.18682 0.15617 0.65286 0.0
C468 C 0.19497 0.14896 0.57009 0.0
C469 C 0.21586 0.14781 0.58278 0.0
C470 C 0.22184 0.14974 0.63156 0.0
C471 C 0.20746 0.15395 0.66629 0.0
C472 C 0.23191 0.14764 0.54445 0.0
C473 C 0.23479 0.15944 0.51719 0.0
C474 C 0.24582 0.13684 0.53889 0.0
C475 C 0.24245 0.12397 0.56455 0.0
C476 C 0.25311 0.12108 0.60796 0.0
C477 C 0.24963 0.1089 0.63233 0.0
C478 C 0.23567 0.09953 0.61325 0.0
C479 C 0.22511 0.10233 0.56985 0.0
C480 C 0.22842 0.11454 0.54559 0.0
C481 C 0.31299 0.16795 0.43333 0.0
C482 C 0.31469 0.162 0.38696 0.0
C483 C 0.29874 0.16305 0.46704 0.0
C484 C 0.2856 0.15236 0.45437 0.0
C485 C 0.28878 0.14548 0.41016 0.0
C486 C 0.30337 0.15025 0.3766 0.0
C487 C 0.26637 0.15035 0.48256 0.0
C488 C 0.26297 0.13826 0.50793 0.0
C489 C 0.25173 0.16089 0.48601 0.0
C490 C 0.25419 0.17368 0.45843 0.0
C491 C 0.25565 0.17358 0.40711 0.0
C492 C 0.25913 0.18556 0.38153 0.0
C493 C 0.26098 0.19773 0.40685 0.0
C494 C 0.25924 0.19796 0.4578 0.0
C495 C 0.25582 0.18599 0.48356 0.0
H496 H 0.26374 0.207 0.38701 0.0
H497 H 0.23305 0.09009 0.63208 0.0
H498 H 0.14055 0.93063 0.71289 0.0
H499 H 0.15401 0.94938 0.76173 0.0
H500 H 0.14049 0.97687 0.64396 0.0
H501 H 0.12688 0.95826 0.59524 0.0
H502 H 0.17598 0.98448 0.7037 0.0
H503 H 0.10329 0.97072 0.71657 0.0
H504 H 0.07646 0.9536 0.73195 0.0
H505 H 0.10155 0.94632 0.8749 0.0
H506 H 0.12876 0.96325 0.85994 0.0
H507 H 0.13603 0.04627 0.78735 0.0
H508 H 0.14792 0.02517 0.7514 0.0
H509 H 0.14143 0.00548 0.89146 0.0
H510 H 0.12803 0.0264 0.92635 0.0
H511 H 0.12277 0.99161 0.83127 0.0
H512 H 0.19024 0.01002 0.82626 0.0
H513 H 0.21733 0.0269 0.81053 0.0
H514 H 0.20404 0.02543 0.65676 0.0
H515 H 0.17666 0.00868 0.67158 0.0
C516 C 0.14123 0.94057 0.69667 0.0
C517 C 0.13233 0.94305 0.65066 0.0
C518 C 0.14893 0.95127 0.72462 0.0
C519 C 0.14798 0.96451 0.7066 0.0
C520 C 0.14137 0.96673 0.65847 0.0
C521 C 0.13345 0.9561 0.63082 0.0
C522 C 0.14954 0.97615 0.74019 0.0
C523 C 0.16451 0.98609 0.73194 0.0
C524 C 0.13478 0.97805 0.77754 0.0
C525 C 0.11817 0.96811 0.78693 0.0
C526 C 0.10315 0.9654 0.75115 0.0
C527 C 0.08788 0.95574 0.75978 0.0
C528 C 0.08734 0.94884 0.80432 0.0
C529 C 0.10202 0.95164 0.84038 0.0
C530 C 0.11737 0.96126 0.83184 0.0
C531 C 0.13771 0.03751 0.81067 0.0
C532 C 0.13107 0.03789 0.85946 0.0
C533 C 0.14466 0.02543 0.7902 0.0
C534 C 0.14578 0.01364 0.81867 0.0
C535 C 0.14062 0.01437 0.86855 0.0
C536 C 0.13305 0.02632 0.88856 0.0
C537 C 0.14923 0.0003 0.79504 0.0
C538 C 0.1349 0.99 0.80462 0.0
C539 C 0.16473 0.9981 0.75934 0.0
C540 C 0.18131 0.00812 0.75012 0.0
C541 C 0.193 0.01335 0.78912 0.0
C542 C 0.20843 0.02289 0.78035 0.0
C543 C 0.21239 0.02724 0.73269 0.0
C544 C 0.20096 0.02204 0.69367 0.0
C545 C 0.18551 0.0125 0.70222 0.0
H546 H 0.22433 0.03464 0.72599 0.0
H547 H 0.07551 0.94136 0.81092 0.0
H548 H 0.29065 0.84966 0.19637 0.0
H549 H 0.26573 0.85833 0.13718 0.0
H550 H 0.30041 0.84016 0.01993 0.0
H551 H 0.32587 0.83195 0.07909 0.0
H552 H 0.27804 0.86245 0.98817 0.0
H553 H 0.26646 0.82134 0.08135 0.0
H554 H 0.2639 0.80871 0.15882 0.0
H555 H 0.21459 0.83447 0.20579 0.0
H556 H 0.21711 0.84739 0.12883 0.0
H557 H 0.21251 0.82772 0.83107 0.0
H558 H 0.23718 0.83714 0.88833 0.0
H559 H 0.18742 0.85231 0.97724 0.0
H560 H 0.16228 0.84267 0.91947 0.0
H561 H 0.2141 0.8374 0.02938 0.0
H562 H 0.22074 0.87439 0.92107 0.0
H563 H 0.22443 0.88596 0.84179 0.0
H564 H 0.28318 0.86704 0.81987 0.0
H565 H 0.27974 0.85521 0.89869 0.0
C566 C 0.29346 0.8481 0.15772 0.0
C567 C 0.30998 0.84005 0.14211 0.0
C568 C 0.2792 0.85302 0.12397 0.0
C569 C 0.28092 0.84955 0.07438 0.0
C570 C 0.29876 0.8429 0.05808 0.0
C571 C 0.31331 0.83821 0.09186 0.0
C572 C 0.2626 0.8503 0.04199 0.0
C573 C 0.264 0.85704 -0.00294 0.0
C574 C 0.24413 0.84344 0.05418 0.0
C575 C 0.24211 0.83541 0.09966 0.0
C576 C 0.25512 0.82433 0.10829 0.0
C577 C 0.25369 0.81713 0.1521 0.0
C578 C 0.23913 0.82081 0.18727 0.0
C579 C 0.22589 0.83165 0.17856 0.0
C580 C 0.22731 0.83892 0.13486 0.0
C581 C 0.20671 0.83322 0.86243 0.0
C582 C 0.18541 0.83431 0.87111 0.0
C583 C 0.22091 0.83876 0.89489 0.0
C584 C 0.2142 0.84559 0.93683 0.0
C585 C 0.19292 0.84717 0.94484 0.0
C586 C 0.17859 0.84167 0.91191 0.0
C587 C 0.22956 0.84934 0.97475 0.0
C588 C 0.22774 0.84328 0.02085 0.0
C589 C 0.24766 0.85669 0.96322 0.0
C590 C 0.24993 0.86387 0.91586 0.0
C591 C 0.2344 0.87263 0.89925 0.0
C592 C 0.23646 0.87925 0.85438 0.0
C593 C 0.25402 0.87723 0.8258 0.0
C594 C 0.26959 0.86861 0.84208 0.0
C595 C 0.26761 0.86197 0.88692 0.0
H596 H 0.25557 0.88235 0.79105 0.0
H597 H 0.23808 0.81525 0.22123 0.0
H598 H 0.37358 0.03715 0.07663 0.0
H599 H 0.36758 0.01563 0.11714 0.0
H600 H 0.349 0.03648 0.24831 0.0
H601 H 0.35471 0.0582 0.20733 0.0
H602 H 0.39155 0.00927 0.19283 0.0
H603 H 0.32019 0.01308 0.31905 0.0
H604 H 0.28567 0.02347 0.31939 0.0
H605 H 0.28467 0.02306 0.16238 0.0
H606 H 0.31904 0.01249 0.16108 0.0
H607 H 0.40187 0.96341 0.38208 0.0
H608 H 0.39117 0.9844 0.34356 0.0
H609 H 0.34731 0.96271 0.25484 0.0
H610 H 0.35787 0.9415 0.29359 0.0
H611 H 0.33356 0.98942 0.28664 0.0
H612 H 0.39109 0.96765 0.20611 0.0
H613 H 0.42525 0.95677 0.20443 0.0
H614 H 0.45291 0.99264 0.2631 0.0
H615 H 0.41884 0.00366 0.26582 0.0
C616 C 0.36757 0.03717 0.1136 0.0
C617 C 0.36481 0.04934 0.13902 0.0
C618 C 0.36419 0.02486 0.13675 0.0
C619 C 0.35808 0.02443 0.18592 0.0
C620 C 0.35359 0.03657 0.21024 0.0
C621 C 0.35682 0.04897 0.18679 0.0
C622 C 0.35961 0.01151 0.21308 0.0
C623 C 0.37878 0.00495 0.21311 0.0
C624 C 0.34303 0.00584 0.23971 0.0
C625 C 0.3223 0.01212 0.24001 0.0
C626 C 0.31258 0.01517 0.2846 0.0
C627 C 0.29304 0.02109 0.28496 0.0
C628 C 0.28302 0.02397 0.24094 0.0
C629 C 0.29249 0.02089 0.19645 0.0
C630 C 0.31202 0.01495 0.19589 0.0
C631 C 0.38969 0.96307 0.35499 0.0
C632 C 0.38097 0.95072 0.34034 0.0
C633 C 0.38353 0.97511 0.33317 0.0
C634 C 0.36863 0.97508 0.296 0.0
C635 C 0.35883 0.96293 0.28355 0.0
C636 C 0.36496 0.95082 0.30555 0.0
C637 C 0.36544 0.98737 0.2662 0.0
C638 C 0.34617 0.9938 0.26602 0.0
C639 C 0.38186 0.99296 0.23892 0.0
C640 C 0.40241 0.98643 0.23653 0.0
C641 C 0.40444 0.97318 0.21893 0.0
C642 C 0.42379 0.967 0.21777 0.0
C643 C 0.44124 0.974 0.23374 0.0
C644 C 0.43938 0.98722 0.25078 0.0
C645 C 0.42006 0.99345 0.2521 0.0
H646 H 0.4562 0.96919 0.23284 0.0
H647 H 0.26789 0.02856 0.24129 0.0
H648 H 0.8451 0.84056 0.42906 0.0
H649 H 0.82234 0.84842 0.4948 0.0
H650 H 0.7712 0.84917 0.3938 0.0
H651 H 0.79379 0.84179 0.32834 0.0
H652 H 0.76443 0.86688 0.46494 0.0
H653 H 0.78501 0.81978 0.45168 0.0
H654 H 0.81032 0.80124 0.44984 0.0
H655 H 0.83208 0.8126 0.59243 0.0
H656 H 0.80704 0.83132 0.59476 0.0
H657 H 0.67867 0.83302 0.57295 0.0
H658 H 0.70672 0.84372 0.52694 0.0
H659 H 0.74585 0.84158 0.65449 0.0
H660 H 0.7183 0.83043 0.69953 0.0
H661 H 0.76252 0.82883 0.58231 0.0
H662 H 0.73223 0.87232 0.60045 0.0
H663 H 0.70447 0.88925 0.59796 0.0
H664 H 0.69809 0.88343 0.44307 0.0
H665 H 0.72561 0.86632 0.44468 0.0
C666 C 0.82921 0.84297 0.42056 0.0
C667 C 0.82106 0.84022 0.37402 0.0
C668 C 0.8162 0.84741 0.45813 0.0
C669 C 0.79493 0.84899 0.44948 0.0
C670 C 0.78747 0.84792 0.40155 0.0
C671 C 0.80041 0.84357 0.36418 0.0
C672 C 0.77985 0.84898 0.49025 0.0
C673 C 0.76404 0.85866 0.49103 0.0
C674 C 0.77939 0.83827 0.5244 0.0
C675 C 0.79439 0.82703 0.52311 0.0
C676 C 0.79529 0.81836 0.48248 0.0
C677 C 0.80957 0.80783 0.48136 0.0
C678 C 0.82285 0.80578 0.52093 0.0
C679 C 0.82183 0.81423 0.56175 0.0
C680 C 0.80761 0.82481 0.56298 0.0
C681 C 0.69307 0.83522 0.5914 0.0
C682 C 0.69649 0.83075 0.6394 0.0
C683 C 0.70906 0.8414 0.56525 0.0
C684 C 0.72845 0.84343 0.58725 0.0
C685 C 0.7311 0.84006 0.63667 0.0
C686 C 0.71535 0.83368 0.66233 0.0
C687 C 0.74681 0.84667 0.55705 0.0
C688 C 0.76317 0.83743 0.55783 0.0
C689 C 0.74745 0.85763 0.52397 0.0
C690 C 0.73095 0.86797 0.52276 0.0
C691 C 0.72482 0.87458 0.56589 0.0
C692 C 0.70914 0.88422 0.56463 0.0
C693 C 0.69951 0.8874 0.5204 0.0
C694 C 0.70557 0.88096 0.47731 0.0
C695 C 0.72124 0.87131 0.47837 0.0
H696 H 0.68737 0.89487 0.5195 0.0
H697 H 0.83389 0.79761 0.52001 0.0
H698 H 0.86457 0.0314 0.4203 0.0
H699 H 0.84998 0.01106 0.38364 0.0
H700 H 0.84252 0.03203 0.24657 0.0
H701 H 0.8563 0.05264 0.28403 0.0
H702 H 0.81362 0.01223 0.25547 0.0
H703 H 0.88681 0.01614 0.26993 0.0
H704 H 0.91988 0.02006 0.31213 0.0
H705 H 0.90839 0.98615 0.40576 0.0
H706 H 0.87506 0.98217 0.36457 0.0
H707 H 0.85199 0.96146 0.09003 0.0
H708 H 0.84141 0.98101 0.13831 0.0
H709 H 0.83582 0.95582 0.26604 0.0
H710 H 0.84591 0.93612 0.21755 0.0
H711 H 0.86723 0.97675 0.26752 0.0
H712 H 0.79525 0.97125 0.23607 0.0
H713 H 0.76433 0.96802 0.18494 0.0
H714 H 0.77636 0.00543 0.11146 0.0
H715 H 0.80755 0.0088 0.16165 0.0
C716 C 0.85908 0.0318 0.38289 0.0
C717 C 0.86172 0.0435 0.35477 0.0
C718 C 0.85081 0.02018 0.36191 0.0
C719 C 0.84572 0.01992 0.31199 0.0
C720 C 0.84644 0.03198 0.28509 0.0
C721 C 0.85431 0.04375 0.30649 0.0
C722 C 0.84297 0.0068 0.2866 0.0
C723 C 0.82533 0.00446 0.25798 0.0
C724 C 0.85826 0.99665 0.28985 0.0
C725 C 0.87833 -0.00104 0.31461 0.0
C726 C 0.89126 0.00959 0.29979 0.0
C727 C 0.91006 0.01181 0.32348 0.0
C728 C 0.91621 0.00338 0.36171 0.0
C729 C 0.90358 0.99269 0.37623 0.0
C730 C 0.88474 0.99044 0.35273 0.0
C731 C 0.84766 0.96 0.12792 0.0
C732 C 0.84988 0.94731 0.15017 0.0
C733 C 0.84156 0.97116 0.15542 0.0
C734 C 0.83789 0.96985 0.20571 0.0
C735 C 0.83846 0.957 0.22715 0.0
C736 C 0.84416 0.94575 0.19939 0.0
C737 C 0.83779 0.98206 0.23683 0.0
C738 C 0.85521 0.98433 0.266 0.0
C739 C 0.8226 0.99221 0.23272 0.0
C740 C 0.80385 0.99023 0.20242 0.0
C741 C 0.79143 0.97873 0.2087 0.0
C742 C 0.77382 0.97689 0.17995 0.0
C743 C 0.76841 0.9865 0.14491 0.0
C744 C 0.78058 0.99799 0.13861 0.0
C745 C 0.79821 -0.00012 0.16726 0.0
H746 H 0.75477 0.98505 0.12269 0.0
H747 H 0.93077 0.00511 0.38 0.0
H748 H 0.66567 0.13795 0.88502 0.0
H749 H 0.69063 0.13208 0.94861 0.0
H750 H 0.73949 0.13297 0.84201 0.0
H751 H 0.71472 0.13878 0.77845 0.0
H752 H 0.73241 0.11578 0.96989 0.0
H753 H 0.76129 0.16246 0.8729 0.0
H754 H 0.74902 0.18102 0.82019 0.0
H755 H 0.68922 0.17878 0.88687 0.0
H756 H 0.70129 0.16043 0.94059 0.0
H757 H 0.82298 0.14738 0.09312 0.0
H758 H 0.80024 0.13632 0.03289 0.0
H759 H 0.74909 0.16012 0.08414 0.0
H760 H 0.7712 0.171 0.1438 0.0
H761 H 0.75911 0.16259 0.98227 0.0
H762 H 0.74587 0.13027 0.10926 0.0
H763 H 0.75515 0.11297 0.17003 0.0
H764 H 0.77908 0.08773 0.05587 0.0
H765 H 0.77022 0.105 0.99443 0.0
C766 C 0.6815 0.13605 0.87456 0.0
C767 C 0.68841 0.13918 0.82721 0.0
C768 C 0.69577 0.13265 0.91098 0.0
C769 C 0.71691 0.13236 0.90003 0.0
C770 C 0.72324 0.13319 0.85113 0.0
C771 C 0.70906 0.13659 0.81487 0.0
C772 C 0.73195 0.13571 0.93876 0.0
C773 C 0.73847 0.12595 0.97249 0.0
C774 C 0.73948 0.14904 0.94258 0.0
C775 C 0.7321 0.15998 0.91015 0.0
C776 C 0.74553 0.16594 0.87619 0.0
C777 C 0.73862 0.17642 0.84621 0.0
C778 C 0.71834 0.18104 0.85008 0.0
C779 C 0.7049 0.17517 0.88382 0.0
C780 C 0.71177 0.16473 0.914 0.0
C781 C 0.80682 0.15008 0.09191 0.0
C782 C 0.79901 0.16022 0.12277 0.0
C783 C 0.79387 0.14372 0.05775 0.0
C784 C 0.77305 0.14746 0.05421 0.0
C785 C 0.76512 0.15712 0.08635 0.0
C786 C 0.77789 0.16337 0.12032 0.0
C787 C 0.7598 0.1427 0.01375 0.0
C788 C 0.75353 0.15231 0.97935 0.0
C789 C 0.75222 0.12935 0.01051 0.0
C790 C 0.75768 0.11901 0.04734 0.0
C791 C 0.75336 0.12111 0.09717 0.0
C792 C 0.75848 0.11129 0.13172 0.0
C793 C 0.76778 0.09928 0.11685 0.0
C794 C 0.77193 0.09705 0.06735 0.0
C795 C 0.76686 0.10685 0.03265 0.0
H796 H 0.77172 0.09168 0.14365 0.0
H797 H 0.71307 0.18923 0.82723 0.0
H798 H 0.61267 0.96965 0.84718 0.0
H799 H 0.6287 0.98931 0.81213 0.0
H800 H 0.67452 0.96425 0.74264 0.0
H801 H 0.65761 0.9441 0.77649 0.0
H802 H 0.66191 0.00266 0.81069 0.0
H803 H 0.68622 0.9787 0.63361 0.0
H804 H 0.68116 0.95807 0.5844 0.0
H805 H 0.61928 0.95446 0.63854 0.0
H806 H 0.62398 0.97512 0.68771 0.0
H807 H 0.65094 0.06148 0.66494 0.0
H808 H 0.67037 0.0418 0.69406 0.0
H809 H 0.62244 0.01562 0.6391 0.0
H810 H 0.60379 0.03485 0.60838 0.0
H811 H 0.65618 0.0031 0.62995 0.0
H812 H 0.62414 0.02952 0.76369 0.0
H813 H 0.62066 0.04997 0.81444 0.0
H814 H 0.68514 0.04834 0.84964 0.0
H815 H 0.68898 0.02792 0.79873 0.0
C816 C 0.6263 0.96822 0.82491 0.0
C817 C 0.63354 0.95525 0.81364 0.0
C818 C 0.63567 0.97957 0.80523 0.0
C819 C 0.65271 0.97834 0.774 0.0
C820 C 0.66117 0.96547 0.76596 0.0
C821 C 0.65157 0.95396 0.78547 0.0
C822 C 0.65916 0.99046 0.74577 0.0
C823 C 0.6612 0.00274 0.77102 0.0
C824 C 0.65853 0.99066 0.69401 0.0
C825 C 0.65556 0.97829 0.66469 0.0
C826 C 0.67156 0.97348 0.63495 0.0
C827 C 0.66875 0.9618 0.60708 0.0
C828 C 0.64994 0.95493 0.6085 0.0
C829 C 0.63386 0.95976 0.6376 0.0
C830 C 0.63659 0.97145 0.66545 0.0
C831 C 0.64485 0.05148 0.65817 0.0
C832 C 0.62562 0.04977 0.63508 0.0
C833 C 0.65593 0.04025 0.67495 0.0
C834 C 0.64776 0.02718 0.66957 0.0
C835 C 0.62924 0.02552 0.64371 0.0
C836 C 0.6184 0.03662 0.6265 0.0
C837 C 0.6565 0.01526 0.6953 0.0
C838 C 0.65793 0.00305 0.66943 0.0
C839 C 0.65915 0.0151 0.74671 0.0
C840 C 0.65691 0.02736 0.77699 0.0
C841 C 0.63758 0.03359 0.78209 0.0
C842 C 0.63554 0.04515 0.81087 0.0
C843 C 0.65268 0.05048 0.8351 0.0
C844 C 0.67189 0.04423 0.83071 0.0
C845 C 0.67401 0.03267 0.80189 0.0
H846 H 0.65108 0.05944 0.85739 0.0
H847 H 0.6478 0.94589 0.58694 0.0
H848 H 0.80189 0.64284 0.81562 0.0
H849 H 0.77598 0.63263 0.86912 0.0
H850 H 0.80095 0.6548 0.9916 0.0
H851 H 0.82765 0.66422 0.93865 0.0
H852 H 0.78387 0.63338 0.02518 0.0
H853 H 0.76283 0.66781 0.90838 0.0
H854 H 0.75631 0.6777 0.82698 0.0
H855 H 0.71723 0.64426 0.79007 0.0
H856 H 0.72375 0.63408 0.87103 0.0
H857 H 0.70822 0.6674 0.14946 0.0
H858 H 0.73529 0.65854 0.0982 0.0
H859 H 0.69165 0.63237 0.02616 0.0
H860 H 0.66384 0.64142 0.07804 0.0
H861 H 0.71526 0.64719 0.96264 0.0
H862 H 0.72939 0.61836 0.09764 0.0
H863 H 0.73391 0.6129 0.18497 0.0
H864 H 0.78539 0.64002 0.19342 0.0
H865 H 0.78107 0.64577 0.10633 0.0
C866 C 0.80238 0.64497 0.85448 0.0
C867 C 0.81666 0.65425 0.87333 0.0
C868 C 0.78745 0.63927 0.88491 0.0
C869 C 0.78603 0.64331 0.93405 0.0
C870 C 0.80161 0.65156 0.95378 0.0
C871 C 0.81692 0.65694 0.92361 0.0
C872 C 0.76699 0.64078 0.96291 0.0
C873 C 0.76884 0.6363 0.01142 0.0
C874 C 0.7472 0.64427 0.94472 0.0
C875 C 0.74399 0.65011 0.89541 0.0
C876 C 0.75304 0.6625 0.88267 0.0
C877 C 0.74931 0.66817 0.83669 0.0
C878 C 0.73635 0.66161 0.80347 0.0
C879 C 0.72727 0.64931 0.81588 0.0
C880 C 0.731 0.64358 0.86174 0.0
C881 C 0.7042 0.65969 0.12306 0.0
C882 C 0.68375 0.65518 0.11767 0.0
C883 C 0.71986 0.65449 0.09412 0.0
C884 C 0.71563 0.64456 0.05914 0.0
C885 C 0.69527 0.6399 0.05356 0.0
C886 C 0.67942 0.6451 0.08298 0.0
C887 C 0.73234 0.64044 0.02542 0.0
C888 C 0.73009 0.64368 0.97589 0.0
C889 C 0.75182 0.63622 0.04315 0.0
C890 C 0.75491 0.63247 0.09528 0.0
C891 C 0.74167 0.62317 0.1181 0.0
C892 C 0.74419 0.62003 0.1676 0.0
C893 C 0.75993 0.6261 0.19471 0.0
C894 C 0.77324 0.63529 0.17234 0.0
C895 C 0.7708 0.63846 0.12284 0.0
H896 H 0.76181 0.62369 0.23306 0.0
H897 H 0.73316 0.66611 0.7683 0.0
H898 H 0.65376 0.56625 0.28292 0.0
H899 H 0.6649 0.54627 0.2374 0.0
H900 H 0.64966 0.52117 0.36085 0.0
H901 H 0.63826 0.54102 0.40623 0.0
H902 H 0.68434 0.51148 0.30105 0.0
H903 H 0.61284 0.52701 0.2895 0.0
H904 H 0.58676 0.54452 0.27316 0.0
H905 H 0.61021 0.54943 0.12743 0.0
H906 H 0.6367 0.5321 0.14331 0.0
H907 H 0.64146 0.44984 0.21775 0.0
H908 H 0.65412 0.4707 0.25458 0.0
H909 H 0.64933 0.49066 0.11467 0.0
H910 H 0.63535 0.47002 0.07881 0.0
H911 H 0.63024 0.50454 0.17516 0.0
H912 H 0.6973 0.48525 0.18068 0.0
H913 H 0.72367 0.46798 0.19736 0.0
H914 H 0.71017 0.47004 0.35088 0.0
H915 H 0.6835 0.48718 0.3351 0.0
C916 C 0.6536 0.55655 0.30108 0.0
C917 C 0.64488 0.55513 0.34782 0.0
C918 C 0.65995 0.54515 0.27501 0.0
C919 C 0.65785 0.53226 0.29564 0.0
C920 C 0.65142 0.53103 0.34435 0.0
C921 C 0.6448 0.54237 0.37012 0.0
C922 C 0.65819 0.5201 0.26427 0.0
C923 C 0.67264 0.50989 0.27328 0.0
C924 C 0.64307 0.51821 0.22766 0.0
C925 C 0.6269 0.52841 0.21779 0.0
C926 C 0.61253 0.5319 0.25411 0.0
C927 C 0.59767 0.54178 0.24493 0.0
C928 C 0.59687 0.54812 0.19934 0.0
C929 C 0.61089 0.54454 0.16277 0.0
C930 C 0.62582 0.5347 0.17185 0.0
C931 C 0.64376 0.45857 0.19463 0.0
C932 C 0.63742 0.45838 0.14556 0.0
C933 C 0.65109 0.47052 0.21564 0.0
C934 C 0.65279 0.48234 0.18748 0.0
C935 C 0.64804 0.48175 0.13735 0.0
C936 C 0.64017 0.46994 0.11677 0.0
C937 C 0.65652 0.49563 0.21137 0.0
C938 C 0.64252 0.50609 0.20154 0.0
C939 C 0.67217 0.49771 0.24687 0.0
C940 C 0.6883 0.48746 0.25663 0.0
C941 C 0.69985 0.48196 0.21797 0.0
C942 C 0.71487 0.4722 0.22728 0.0
C943 C 0.71857 0.4679 0.27513 0.0
C944 C 0.70729 0.47338 0.31382 0.0
C945 C 0.69224 0.48314 0.30472 0.0
H946 H 0.7302 0.46034 0.28225 0.0
H947 H 0.58537 0.55577 0.19229 0.0
H948 H 0.65052 0.32031 0.41603 0.0
H949 H 0.67459 0.3292 0.47642 0.0
H950 H 0.68867 0.36254 0.38073 0.0
H951 H 0.6652 0.35331 0.31935 0.0
H952 H 0.72182 0.35023 0.3992 0.0
H953 H 0.66888 0.36694 0.50102 0.0
H954 H 0.63611 0.367 0.54655 0.0
H955 H 0.65766 0.33444 0.63635 0.0
H956 H 0.69045 0.33403 0.59091 0.0
H957 H 0.78447 0.35825 0.64637 0.0
H958 H 0.75527 0.36452 0.59396 0.0
H959 H 0.76608 0.32938 0.50469 0.0
H960 H 0.79517 0.32317 0.55626 0.0
H961 H 0.72029 0.35027 0.58049 0.0
H962 H 0.75291 0.33429 0.39108 0.0
H963 H 0.78582 0.33538 0.34625 0.0
H964 H 0.80423 0.36972 0.43136 0.0
H965 H 0.77138 0.36888 0.47655 0.0
C966 C 0.65798 0.32988 0.40883 0.0
C967 C 0.65612 0.33606 0.36285 0.0
C968 C 0.67184 0.33498 0.44347 0.0
C969 C 0.68368 0.34652 0.43311 0.0
C970 C 0.67991 0.35356 0.38945 0.0
C971 C 0.66635 0.34834 0.35453 0.0
C972 C 0.70227 0.34969 0.46302 0.0
C973 C 0.72136 0.35046 0.43884 0.0
C974 C 0.70183 0.35023 0.51477 0.0
C975 C 0.68213 0.35043 0.54235 0.0
C976 C 0.66659 0.35973 0.53025 0.0
C977 C 0.64801 0.35983 0.55609 0.0
C978 C 0.6448 0.35072 0.59429 0.0
C979 C 0.66018 0.3415 0.60677 0.0
C980 C 0.67878 0.34134 0.58103 0.0
C981 C 0.78092 0.35207 0.6148 0.0
C982 C 0.79213 0.34022 0.60536 0.0
C983 C 0.76415 0.35561 0.58514 0.0
C984 C 0.75855 0.34747 0.54525 0.0
C985 C 0.77028 0.33595 0.53477 0.0
C986 C 0.7869 0.33237 0.56441 0.0
C987 C 0.73959 0.35022 0.51649 0.0
C988 C 0.72054 0.35045 0.54083 0.0
C989 C 0.73999 0.35081 0.46485 0.0
C990 C 0.75969 0.35149 0.43732 0.0
C991 C 0.76392 0.34212 0.40006 0.0
C992 C 0.7826 0.34266 0.37471 0.0
C993 C 0.79712 0.3526 0.386 0.0
C994 C 0.793 0.36201 0.42272 0.0
C995 C 0.77437 0.36148 0.44832 0.0
H996 H 0.81155 0.35302 0.36621 0.0
H997 H 0.6304 0.35082 0.61424 0.0
H998 H 0.87037 0.46551 0.91542 0.0
H999 H 0.85916 0.48638 0.8765 0.0
H1000 H 0.84747 0.46473 0.74236 0.0
H1001 H 0.85806 0.44371 0.78183 0.0
H1002 H 0.88072 0.49668 0.80669 0.0
H1003 H 0.81643 0.48327 0.66652 0.0
H1004 H 0.78568 0.46872 0.66109 0.0
H1005 H 0.77945 0.46959 0.81738 0.0
H1006 H 0.80998 0.48429 0.82374 0.0
H1007 H 0.88616 0.53427 0.59642 0.0
H1008 H 0.87464 0.51443 0.64105 0.0
H1009 H 0.83512 0.53917 0.73019 0.0
H1010 H 0.84678 0.5593 0.68593 0.0
H1011 H 0.82246 0.50787 0.69619 0.0
H1012 H 0.87025 0.53702 0.78786 0.0
H1013 H 0.90087 0.55178 0.79104 0.0
H1014 H 0.93857 0.51951 0.73704 0.0
H1015 H 0.90807 0.50465 0.73272 0.0
C1016 C 0.86477 0.46513 0.8781 0.0
C1017 C 0.86526 0.45302 0.85148 0.0
C1018 C 0.8584 0.47707 0.85585 0.0
C1019 C 0.85261 0.47719 0.80637 0.0
C1020 C 0.8516 0.46491 0.78074 0.0
C1021 C 0.8577 0.45288 0.8033 0.0
C1022 C 0.85093 0.49025 0.78005 0.0
C1023 C 0.86771 0.49916 0.78339 0.0
C1024 C 0.83414 0.49354 0.74907 0.0
C1025 C 0.81561 0.48481 0.7456 0.0
C1026 C 0.80845 0.48041 0.69972 0.0
C1027 C 0.79106 0.47212 0.69648 0.0
C1028 C 0.78065 0.4682 0.73887 0.0
C1029 C 0.78757 0.47259 0.78458 0.0
C1030 C 0.80494 0.48089 0.78803 0.0
C1031 C 0.87458 0.53552 0.62459 0.0
C1032 C 0.86769 0.54842 0.63826 0.0
C1033 C 0.86792 0.52413 0.64979 0.0
C1034 C 0.85414 0.52538 0.68892 0.0
C1035 C 0.84567 0.53804 0.69978 0.0
C1036 C 0.85242 0.54952 0.67459 0.0
C1037 C 0.85211 0.51403 0.72348 0.0
C1038 C 0.835 0.50542 0.72088 0.0
C1039 C 0.86844 0.511 0.75578 0.0
C1040 C 0.88688 0.51978 0.75959 0.0
C1041 C 0.88505 0.53312 0.77635 0.0
C1042 C 0.90238 0.54149 0.77839 0.0
C1043 C 0.92164 0.5366 0.76415 0.0
C1044 C 0.92363 0.52329 0.74801 0.0
C1045 C 0.90634 0.51489 0.74578 0.0
H1046 H 0.93503 0.5431 0.76571 0.0
H1047 H 0.7672 0.46178 0.73628 0.0
H1048 H 0.27762 0.35293 0.78533 0.0
H1049 H 0.25153 0.36114 0.84236 0.0
H1050 H 0.29575 0.35884 0.96019 0.0
H1051 H 0.32207 0.35126 0.90272 0.0
H1052 H 0.23731 0.34569 0.90767 0.0
H1053 H 0.2812 0.37538 0.06013 0.0
H1054 H 0.30814 0.39283 0.06648 0.0
H1055 H 0.29345 0.40681 0.92204 0.0
H1056 H 0.26621 0.38958 0.91502 0.0
H1057 H 0.21724 0.33619 0.16173 0.0
H1058 H 0.23808 0.34529 0.09547 0.0
H1059 H 0.18507 0.36611 0.03811 0.0
H1060 H 0.16376 0.35685 0.10436 0.0
H1061 H 0.24206 0.37549 0.05294 0.0
H1062 H 0.18267 0.35426 0.95552 0.0
H1063 H 0.15646 0.33623 0.95051 0.0
H1064 H 0.20283 0.30655 0.98123 0.0
H1065 H 0.22921 0.32446 0.98692 0.0
C1066 C 0.28194 0.35469 0.8231 0.0
C1067 C 0.30178 0.35139 0.83981 0.0
C1068 C 0.26701 0.35935 0.8557 0.0
C1069 C 0.27154 0.36055 0.90577 0.0
C1070 C 0.29186 0.35825 0.92173 0.0
C1071 C 0.30694 0.35386 0.88885 0.0
C1072 C 0.2545 0.36181 0.9419 0.0
C1073 C 0.2381 0.35259 0.93841 0.0
C1074 C 0.25551 0.37059 0.98276 0.0
C1075 C 0.27169 0.38113 0.98699 0.0
C1076 C 0.2836 0.38223 0.02983 0.0
C1077 C 0.29896 0.39207 0.03352 0.0
C1078 C 0.30253 0.40091 0.99466 0.0
C1079 C 0.29071 0.39994 0.95206 0.0
C1080 C 0.27532 0.39012 0.94819 0.0
C1081 C 0.20997 0.34286 0.13557 0.0
C1082 C 0.18873 0.34565 0.138 0.0
C1083 C 0.22199 0.34813 0.0979 0.0
C1084 C 0.21307 0.3563 0.06196 0.0
C1085 C 0.19217 0.35977 0.0656 0.0
C1086 C 0.18005 0.35448 0.10343 0.0
C1087 C 0.22523 0.35951 0.01782 0.0
C1088 C 0.24093 0.36921 0.02057 0.0
C1089 C 0.22351 0.35139 0.97572 0.0
C1090 C 0.20778 0.34065 0.972 0.0
C1091 C 0.1872 0.34389 0.96143 0.0
C1092 C 0.17234 0.3337 0.95846 0.0
C1093 C 0.17797 0.32026 0.96565 0.0
C1094 C 0.19848 0.31697 0.97574 0.0
C1095 C 0.21338 0.32712 0.97886 0.0
H1096 H 0.16645 0.31238 0.96332 0.0
H1097 H 0.31444 0.40851 -0.00242 0.0
H1098 H 0.36357 0.46231 0.5814 0.0
H1099 H 0.35131 0.48352 0.61638 0.0
H1100 H 0.35281 0.46582 0.76048 0.0
H1101 H 0.36395 0.44433 0.72494 0.0
H1102 H 0.32432 0.4852 0.75816 0.0
H1103 H 0.39548 0.48134 0.71199 0.0
H1104 H 0.42456 0.47693 0.65622 0.0
H1105 H 0.40429 0.50892 0.56211 0.0
H1106 H 0.37489 0.51339 0.61704 0.0
H1107 H 0.37448 0.53673 0.8978 0.0
H1108 H 0.3603 0.51706 0.85565 0.0
H1109 H 0.3465 0.54168 0.72996 0.0
H1110 H 0.36022 0.56153 0.77265 0.0
H1111 H 0.37569 0.52036 0.7156 0.0
H1112 H 0.30798 0.52665 0.77831 0.0
H1113 H 0.28161 0.53069 0.84144 0.0
H1114 H 0.29865 0.49397 0.91381 0.0
H1115 H 0.32535 0.48979 0.85152 0.0
C1116 C 0.3604 0.46281 0.62026 0.0
C1117 C 0.3647 0.45176 0.65059 0.0
C1118 C 0.35355 0.47494 0.64031 0.0
C1119 C 0.35177 0.4764 0.69125 0.0
C1120 C 0.35418 0.46498 0.72112 0.0
C1121 C 0.3605 0.45269 0.70082 0.0
C1122 C 0.35063 0.49008 0.71352 0.0
C1123 C 0.33554 0.4929 0.74892 0.0
C1124 C 0.36518 0.5002 0.70127 0.0
C1125 C 0.38286 0.49758 0.66825 0.0
C1126 C 0.39715 0.48737 0.67921 0.0
C1127 C 0.41369 0.48487 0.64778 0.0
C1128 C 0.41623 0.49262 0.60556 0.0
C1129 C 0.40227 0.50291 0.59476 0.0
C1130 C 0.38566 0.50543 0.62601 0.0
C1131 C 0.36767 0.53805 0.86193 0.0
C1132 C 0.36851 0.55062 0.83836 0.0
C1133 C 0.35951 0.52681 0.83795 0.0
C1134 C 0.35236 0.52792 0.78969 0.0
C1135 C 0.3518 0.54066 0.76735 0.0
C1136 C 0.35958 0.55199 0.7918 0.0
C1137 C 0.34943 0.51551 0.76027 0.0
C1138 C 0.36404 0.51284 0.72387 0.0
C1139 C 0.33482 0.50549 0.77269 0.0
C1140 C 0.31879 0.50795 0.81034 0.0
C1141 C 0.30625 0.51949 0.80791 0.0
C1142 C 0.2912 0.52179 0.84351 0.0
C1143 C 0.28848 0.5126 0.88166 0.0
C1144 C 0.30078 0.50108 0.88424 0.0
C1145 C 0.31585 0.49873 0.84874 0.0
H1146 H 0.27682 0.51441 0.90918 0.0
H1147 H 0.42906 0.49067 0.58128 0.0
H1148 H 0.16985 0.64471 0.40684 0.0
H1149 H 0.19294 0.6341 0.46646 0.0
H1150 H 0.2456 0.64865 0.38594 0.0
H1151 H 0.22283 0.65894 0.32604 0.0
H1152 H 0.25457 0.62495 0.42955 0.0
H1153 H 0.22358 0.66801 0.47446 0.0
H1154 H 0.19428 0.68315 0.49122 0.0
H1155 H 0.17269 0.65622 0.60295 0.0
H1156 H 0.20177 0.64084 0.58636 0.0
H1157 H 0.32735 0.65562 0.5851 0.0
H1158 H 0.30414 0.64498 0.52621 0.0
H1159 H 0.2652 0.63148 0.64442 0.0
H1160 H 0.28805 0.64252 0.70305 0.0
H1161 H 0.24535 0.64801 0.5889 0.0
H1162 H 0.28495 0.60896 0.55775 0.0
H1163 H 0.31595 0.59545 0.54035 0.0
H1164 H 0.32352 0.61586 0.40311 0.0
H1165 H 0.29276 0.62965 0.41995 0.0
C1166 C 0.18634 0.64533 0.40118 0.0
C1167 C 0.19451 0.65294 0.36238 0.0
C1168 C 0.19951 0.63926 0.43523 0.0
C1169 C 0.22099 0.64081 0.4311 0.0
C1170 C 0.2291 0.64734 0.38996 0.0
C1171 C 0.21601 0.65335 0.35596 0.0
C1172 C 0.23491 0.63775 0.47267 0.0
C1173 C 0.25259 0.62988 0.46464 0.0
C1174 C 0.23207 0.64397 0.5187 0.0
C1175 C 0.21463 0.6532 0.52872 0.0
C1176 C 0.21249 0.66528 0.50234 0.0
C1177 C 0.19595 0.6739 0.51184 0.0
C1178 C 0.18159 0.67062 0.548 0.0
C1179 C 0.18379 0.65872 0.57485 0.0
C1180 C 0.20028 0.65005 0.56541 0.0
C1181 C 0.3144 0.64981 0.59857 0.0
C1182 C 0.30926 0.65003 0.64838 0.0
C1183 C 0.3011 0.64369 0.56487 0.0
C1184 C 0.28275 0.63753 0.5808 0.0
C1185 C 0.27916 0.63625 0.63121 0.0
C1186 C 0.29223 0.64254 0.66471 0.0
C1187 C 0.26551 0.63545 0.54578 0.0
C1188 C 0.24717 0.64253 0.55482 0.0
C1189 C 0.26798 0.62865 0.50068 0.0
C1190 C 0.28654 0.62039 0.49025 0.0
C1191 C 0.2933 0.61064 0.524 0.0
C1192 C 0.31082 0.60292 0.5142 0.0
C1193 C 0.32171 0.6048 0.47067 0.0
C1194 C 0.31507 0.6144 0.43681 0.0
C1195 C 0.29756 0.62216 0.44642 0.0
H1196 H 0.33527 0.59881 0.46316 0.0
H1197 H 0.1688 0.67731 0.55533 0.0
H1198 H 0.15775 0.44412 0.36139 0.0
H1199 H 0.1706 0.46464 0.32078 0.0
H1200 H 0.12432 0.45995 0.20855 0.0
H1201 H 0.11161 0.43965 0.24896 0.0
H1202 H 0.16035 0.47043 0.17118 0.0
H1203 H 0.11419 0.47786 0.31208 0.0
H1204 H 0.10571 0.4761 0.39982 0.0
H1205 H 0.16162 0.49698 0.43664 0.0
H1206 H 0.17052 0.49872 0.34905 0.0
H1207 H 0.10495 0.52575 0.0982 0.0
H1208 H 0.12143 0.50552 0.12879 0.0
H1209 H 0.16196 0.52965 0.21841 0.0
H1210 H 0.14508 0.5502 0.18806 0.0
H1211 H 0.14364 0.51065 0.27135 0.0
H1212 H 0.18217 0.50988 0.12585 0.0
H1213 H 0.18907 0.51205 0.03758 0.0
H1214 H 0.14801 0.47909 0.0078 0.0
H1215 H 0.1406 0.47683 0.09579 0.0
C1216 C 0.15093 0.44726 0.32706 0.0
C1217 C 0.13385 0.44035 0.30786 0.0
C1218 C 0.15816 0.45898 0.30407 0.0
C1219 C 0.1483 0.46389 0.26182 0.0
C1220 C 0.13225 0.45634 0.24088 0.0
C1221 C 0.12498 0.44475 0.26394 0.0
C1222 C 0.15229 0.47766 0.24281 0.0
C1223 C 0.15694 0.47927 0.19304 0.0
C1224 C 0.14855 0.48923 0.27178 0.0
C1225 C 0.14313 0.48827 0.32423 0.0
C1226 C 0.12472 0.482 0.33896 0.0
C1227 C 0.11983 0.48101 0.38862 0.0
C1228 C 0.13315 0.48639 0.4238 0.0
C1229 C 0.15135 0.49279 0.40936 0.0
C1230 C 0.15632 0.49378 0.35974 0.0
C1231 C 0.11763 0.52683 0.12372 0.0
C1232 C 0.1236 0.5396 0.14095 0.0
C1233 C 0.12722 0.51521 0.14088 0.0
C1234 C 0.14315 0.51602 0.17552 0.0
C1235 C 0.1498 0.52878 0.1914 0.0
C1236 C 0.14021 0.54051 0.17393 0.0
C1237 C 0.15064 0.50341 0.19891 0.0
C1238 C 0.14804 0.50197 0.2496 0.0
C1239 C 0.15629 0.49202 0.17069 0.0
C1240 C 0.16084 0.49319 0.11759 0.0
C1241 C 0.17454 0.50312 0.1005 0.0
C1242 C 0.17854 0.50437 0.05047 0.0
C1243 C 0.16899 0.49571 0.01711 0.0
C1244 C 0.15543 0.48577 0.03371 0.0
C1245 C 0.15137 0.48448 0.08369 0.0
H1246 H 0.17209 0.4967 0.97839 0.0
H1247 H 0.12935 0.48562 0.46223 0.0
H1248 H 0.16204 0.12483 0.88995 0.0
H1249 H 0.18741 0.13847 0.93469 0.0
H1250 H 0.20026 0.10461 0.02897 0.0
H1251 H 0.17575 0.09096 0.98388 0.0
H1252 H 0.18727 0.14676 0.02389 0.0
H1253 H 0.24811 0.10444 0.07127 0.0
H1254 H 0.26586 0.0858 0.02923 0.0
H1255 H 0.25165 0.1035 0.89001 0.0
H1256 H 0.23432 0.12244 0.93113 0.0
H1257 H 0.24473 0.17011 0.22993 0.0
H1258 H 0.22181 0.15785 0.17357 0.0
H1259 H 0.27413 0.14846 0.08264 0.0
H1260 H 0.29694 0.15909 0.14091 0.0
H1261 H 0.25503 0.12918 0.07764 0.0
H1262 H 0.23368 0.17462 0.06265 0.0
H1263 H 0.22049 0.19703 0.08597 0.0
H1264 H 0.1634 0.17918 0.13174 0.0
H1265 H 0.1763 0.15667 0.10855 0.0
C1266 C 0.17067 0.12024 0.91949 0.0
C1267 C 0.16691 0.10683 0.93339 0.0
C1268 C 0.18502 0.12807 0.94525 0.0
C1269 C 0.19581 0.12255 0.98508 0.0
C1270 C 0.19244 0.10905 -0.00213 0.0
C1271 C 0.17831 0.10124 0.97209 0.0
C1272 C 0.2097 0.13094 0.01564 0.0
C1273 C 0.20225 0.14306 0.03529 0.0
C1274 C 0.22947 0.12633 0.02932 0.0
C1275 C 0.23964 0.1148 0.00438 0.0
C1276 C 0.24881 0.10439 0.03169 0.0
C1277 C 0.25885 0.09378 0.008 0.0
C1278 C 0.25985 0.09345 0.95698 0.0
C1279 C 0.25084 0.10375 0.92953 0.0
C1280 C 0.24088 0.11442 0.95302 0.0
C1281 C 0.2512 0.16516 0.19813 0.0
C1282 C 0.27254 0.16536 0.18984 0.0
C1283 C 0.23812 0.15835 0.16551 0.0
C1284 C 0.24616 0.15233 0.12288 0.0
C1285 C 0.26751 0.15275 0.11517 0.0
C1286 C 0.28056 0.15889 0.14859 0.0
C1287 C 0.23292 0.14529 0.08619 0.0
C1288 C 0.24032 0.1332 0.06582 0.0
C1289 C 0.21385 0.15052 0.0693 0.0
C1290 C 0.20606 0.16397 0.08416 0.0
C1291 C 0.21837 0.1755 0.07784 0.0
C1292 C 0.21094 0.1882 0.09101 0.0
C1293 C 0.19116 0.18951 0.11053 0.0
C1294 C 0.17874 0.17813 0.11669 0.0
C1295 C 0.1861 0.1654 0.10343 0.0
H1296 H 0.18548 0.19935 0.12083 0.0
H1297 H 0.26762 0.08522 0.93871 0.0
H1298 H 0.26346 0.83457 0.35265 0.0
H1299 H 0.24 0.84077 0.41734 0.0
H1300 H 0.23261 0.7991 0.45714 0.0
H1301 H 0.25709 0.7926 0.39208 0.0
H1302 H 0.1968 0.8235 0.42807 0.0
H1303 H 0.26082 0.80805 0.51232 0.0
H1304 H 0.2981 0.80541 0.56499 0.0
H1305 H 0.28475 0.84848 0.65178 0.0
H1306 H 0.24536 0.85063 0.60409 0.0
H1307 H 0.1272 0.85196 0.59604 0.0
H1308 H 0.15114 0.83505 0.56444 0.0
H1309 H 0.20083 0.86384 0.57367 0.0
H1310 H 0.17674 0.88099 0.60242 0.0
H1311 H 0.21467 0.83969 0.59406 0.0
H1312 H 0.17376 0.86019 0.47305 0.0
H1313 H 0.14242 0.86748 0.42975 0.0
H1314 H 0.12596 0.82628 0.40306 0.0
H1315 H 0.1569 0.81865 0.44797 0.0
C1316 C 0.2571 0.82664 0.37531 0.0
C1317 C 0.26235 0.81309 0.36759 0.0
C1318 C 0.24404 0.83028 0.41328 0.0
C1319 C 0.23596 0.82054 0.44483 0.0
C1320 C 0.23974 0.80685 0.43494 0.0
C1321 C 0.25348 0.80315 0.39759 0.0
C1322 C 0.22086 0.82489 0.48208 0.0
C1323 C 0.20067 0.82676 0.46487 0.0
C1324 C 0.22644 0.82997 0.52905 0.0
C1325 C 0.24777 0.82971 0.54968 0.0
C1326 C 0.26502 0.81606 0.53674 0.0
C1327 C 0.28852 0.81415 0.57101 0.0
C1328 C 0.29563 0.82635 0.61648 0.0
C1329 C 0.28006 0.84089 0.6256 0.0
C1330 C 0.25555 0.84243 0.59431 0.0
C1331 C 0.14335 0.85456 0.59236 0.0
C1332 C 0.15017 0.86778 0.60108 0.0
C1333 C 0.15702 0.84487 0.57445 0.0
C1334 C 0.17776 0.8482 0.56618 0.0
C1335 C 0.18488 0.86109 0.57918 0.0
C1336 C 0.17112 0.87088 0.59562 0.0
C1337 C 0.19154 0.83906 0.53843 0.0
C1338 C 0.21116 0.83628 0.55737 0.0
C1339 C 0.18632 0.8344 0.49113 0.0
C1340 C 0.16732 0.83883 0.4654 0.0
C1341 C 0.16322 0.85265 0.45907 0.0
C1342 C 0.14555 0.85684 0.43412 0.0
C1343 C 0.13206 0.84732 0.41433 0.0
C1344 C 0.13627 0.83359 0.41927 0.0
C1345 C 0.15382 0.82933 0.44467 0.0
H1346 H 0.11845 0.85058 0.39473 0.0
H1347 H 0.30978 0.82514 0.63694 0.0
H1348 H 0.31472 0.89159 0.3984 0.0
H1349 H 0.29332 0.87516 0.44038 0.0
H1350 H 0.33291 0.84316 0.39026 0.0
H1351 H 0.35427 0.85957 0.34717 0.0
H1352 H 0.27239 0.85416 0.43173 0.0
H1353 H 0.34485 0.82412 0.49557 0.0
H1354 H 0.38236 0.82774 0.49759 0.0
H1355 H 0.37287 0.87054 0.50237 0.0
H1356 H 0.33526 0.86706 0.50047 0.0
H1357 H 0.23294 0.79057 0.63775 0.0
H1358 H 0.26147 0.79854 0.59631 0.0
H1359 H 0.25663 0.8354 0.68505 0.0
H1360 H 0.23068 0.82598 0.72493 0.0
H1361 H 0.29208 0.8351 0.54305 0.0
H1362 H 0.2858 0.86709 0.5612 0.0
H1363 H 0.26839 0.88846 0.58162 0.0
H1364 H 0.21563 0.87638 0.49739 0.0
H1365 H 0.23241 0.8549 0.47772 0.0
C1366 C 0.31832 0.88099 0.39437 0.0
C1367 C 0.33628 0.87688 0.37016 0.0
C1368 C 0.30602 0.87156 0.41826 0.0
C1369 C 0.31161 0.85787 0.41865 0.0
C1370 C 0.32822 0.85359 0.38984 0.0
C1371 C 0.34044 0.86303 0.36541 0.0
C1372 C 0.30232 0.84888 0.45603 0.0
C1373 C 0.28096 0.84877 0.45971 0.0
C1374 C 0.31454 0.84314 0.49329 0.0
C1375 C 0.33718 0.84528 0.49565 0.0
C1376 C 0.35074 0.83427 0.49616 0.0
C1377 C 0.37205 0.83631 0.49763 0.0
C1378 C 0.38003 0.84938 0.49949 0.0
C1379 C 0.36669 0.86041 0.50043 0.0
C1380 C 0.34536 0.8584 0.49903 0.0
C1381 C 0.23825 0.80067 0.6461 0.0
C1382 C 0.22805 0.80832 0.68056 0.0
C1383 C 0.25502 0.80616 0.62018 0.0
C1384 C 0.26131 0.82078 0.61997 0.0
C1385 C 0.25304 0.82584 0.66794 0.0
C1386 C 0.23692 0.82032 0.69432 0.0
C1387 C 0.28225 0.83617 0.54362 0.0
C1388 C 0.30581 0.83615 0.5324 0.0
C1389 C 0.27151 0.84665 0.50477 0.0
C1390 C 0.26026 0.85921 0.51876 0.0
C1391 C 0.27035 0.86893 0.54767 0.0
C1392 C 0.26059 0.88107 0.55909 0.0
C1393 C 0.24085 0.88374 0.54109 0.0
C1394 C 0.23088 0.87427 0.51154 0.0
C1395 C 0.24048 0.86206 0.5004 0.0
H1396 H 0.23333 0.89316 0.54983 0.0
H1397 H 0.39653 0.85096 0.50063 0.0
H1398 H 0.20549 0.18769 0.93181 0.0
H1399 H 0.23517 0.18035 0.97987 0.0
H1400 H 0.27474 0.18684 0.85563 0.0
H1401 H 0.24522 0.19484 0.80801 0.0
H1402 H 0.27583 0.1616 0.88641 0.0
H1403 H 0.28191 0.20416 0.95686 0.0
H1404 H 0.2741 0.22541 -0.00096 0.0
H1405 H 0.26053 0.2037 0.1309 0.0
H1406 H 0.26799 0.1823 0.08946 0.0
H1407 H 0.34966 0.1421 0.10394 0.0
H1408 H 0.33158 0.15972 0.05887 0.0
H1409 H 0.28761 0.13028 0.00698 0.0
H1410 H 0.30643 0.11252 0.04959 0.0
H1411 H 0.29788 0.17122 0.05645 0.0
H1412 H 0.27017 0.13596 0.89806 0.0
H1413 H 0.28273 0.11594 0.85366 0.0
H1414 H 0.34502 0.12575 0.89317 0.0
H1415 H 0.33291 0.14598 0.93692 0.0
C1416 C 0.2207 0.18813 0.91555 0.0
C1417 C 0.22317 0.19186 0.86638 0.0
C1418 C 0.23765 0.18399 0.94313 0.0
C1419 C 0.25725 0.18325 0.92172 0.0
C1420 C 0.25989 0.1877 0.87334 0.0
C1421 C 0.24301 0.19222 0.84611 0.0
C1422 C 0.27373 0.17553 0.94665 0.0
C1423 C 0.28069 0.16376 0.92357 0.0
C1424 C 0.28058 0.17857 0.99463 0.0
C1425 C 0.27532 0.19148 0.01953 0.0
C1426 C 0.27702 0.20384 0.99461 0.0
C1427 C 0.2727 0.21596 0.01851 0.0
C1428 C 0.26672 0.21591 0.06756 0.0
C1429 C 0.26512 0.20374 0.09285 0.0
C1430 C 0.26943 0.19159 0.06911 0.0
C1431 C 0.33595 0.13942 0.08349 0.0
C1432 C 0.32954 0.12591 0.07988 0.0
C1433 C 0.32571 0.14951 0.05739 0.0
C1434 C 0.30871 0.14629 0.02781 0.0
C1435 C 0.30131 0.13295 0.02755 0.0
C1436 C 0.3118 0.12282 0.05271 0.0
C1437 C 0.29848 0.15682 -0.00241 0.0
C1438 C 0.29294 0.16912 0.01937 0.0
C1439 C 0.29318 0.15446 0.94811 0.0
C1440 C 0.30061 0.14245 0.921 0.0
C1441 C 0.28656 0.1339 0.89697 0.0
C1442 C 0.29359 0.1225 0.87202 0.0
C1443 C 0.31464 0.11955 0.87078 0.0
C1444 C 0.32872 0.12803 0.89428 0.0
C1445 C 0.32178 0.13947 0.91915 0.0
H1446 H 0.32004 0.1107 0.85152 0.0
H1447 H 0.26342 0.22531 0.08603 0.0
H1448 H 0.84546 0.85609 0.09998 0.0
H1449 H 0.82528 0.83864 0.05835 0.0
H1450 H 0.78801 0.86927 0.99001 0.0
H1451 H 0.80825 0.88678 0.03093 0.0
H1452 H 0.76586 0.84843 0.02816 0.0
H1453 H 0.82306 0.85524 0.92864 0.0
H1454 H 0.85956 0.85734 0.90567 0.0
H1455 H 0.86893 0.81536 0.93549 0.0
H1456 H 0.83243 0.81298 0.95889 0.0
H1457 H 0.73131 0.82447 0.81419 0.0
H1458 H 0.75194 0.83378 0.87993 0.0
H1459 H 0.76319 0.79387 0.93513 0.0
H1460 H 0.73971 0.78444 0.87245 0.0
H1461 H 0.79778 0.816 0.91427 0.0
H1462 H 0.739 0.80148 0.99325 0.0
H1463 H 0.7073 0.7935 0.05669 0.0
H1464 H 0.70716 0.83915 0.13315 0.0
H1465 H 0.73558 0.84844 0.06204 0.0
C1466 C 0.83279 0.85911 0.07663 0.0
C1467 C 0.82843 0.87281 0.06872 0.0
C1468 C 0.82143 0.84913 0.05249 0.0
C1469 C 0.80543 0.85269 0.02043 0.0
C1470 C 0.80044 0.86633 0.01423 0.0
C1471 C 0.81196 0.87631 0.0378 0.0
C1472 C 0.7936 0.84214 0.99417 0.0
C1473 C 0.77252 0.841 0.00416 0.0
C1474 C 0.80315 0.8327 0.96286 0.0
C1475 C 0.82508 0.83404 0.94763 0.0
C1476 C 0.83294 0.84649 0.93135 0.0
C1477 C 0.85362 0.84771 0.91781 0.0
C1478 C 0.86661 0.83651 0.91967 0.0
C1479 C 0.85887 0.82404 0.93455 0.0
C1480 C 0.83819 0.82276 0.94807 0.0
C1481 C 0.73738 0.81765 0.8414 0.0
C1482 C 0.73269 0.80384 0.8401 0.0
C1483 C 0.74917 0.82301 0.87897 0.0
C1484 C 0.75739 0.81464 0.91502 0.0
C1485 C 0.75552 0.80058 0.90975 0.0
C1486 C 0.7425 0.79519 0.87351 0.0
C1487 C 0.77004 0.8211 0.95329 0.0
C1488 C 0.79109 0.82242 0.9422 0.0
C1489 C 0.76091 0.82982 0.98846 0.0
C1490 C 0.74154 0.82625 0.01639 0.0
C1491 C 0.73224 0.80904 0.01608 0.0
C1492 C 0.71275 0.80379 0.05747 0.0
C1493 C 0.70361 0.81522 0.10382 0.0
C1494 C 0.71277 0.83229 0.10547 0.0
C1495 C 0.73072 0.83804 0.06066 0.0
H1496 H 0.69307 0.81165 0.13165 0.0
H1497 H 0.88263 0.83747 0.90918 0.0
H1498 H 0.72973 0.18411 0.58936 0.0
H1499 H 0.76055 0.17525 0.54997 0.0
H1500 H 0.78753 0.16747 0.69126 0.0
H1501 H 0.75683 0.17686 0.73108 0.0
H1502 H 0.81108 0.17837 0.57235 0.0
H1503 H 0.77831 0.13756 0.68822 0.0
H1504 H 0.74544 0.12584 0.72788 0.0
H1505 H 0.70106 0.12661 0.58794 0.0
H1506 H 0.75184 0.14455 0.52748 0.0
H1507 H 0.87634 0.12692 0.46961 0.0
H1508 H 0.8581 0.14236 0.52419 0.0
H1509 H 0.80001 0.12874 0.46439 0.0
H1510 H 0.81838 0.11246 0.41288 0.0
H1511 H 0.79633 0.12953 0.55486 0.0
H1512 H 0.82703 0.16017 0.43889 0.0
H1513 H 0.85666 0.16993 0.39508 0.0
H1514 H 0.881 0.18517 0.5303 0.0
H1515 H 0.85204 0.17492 0.57533 0.0
C1516 C 0.74268 0.18126 0.61204 0.0
C1517 C 0.74095 0.18127 0.66322 0.0
C1518 C 0.76025 0.17613 0.58948 0.0
C1519 C 0.77625 0.17075 0.6178 0.0
C1520 C 0.77538 0.17174 0.66893 0.0
C1521 C 0.75789 0.17715 0.69158 0.0
C1522 C 0.79149 0.16192 0.59392 0.0
C1523 C 0.80834 0.16762 0.56935 0.0
C1524 C 0.78748 0.14803 0.58916 0.0
C1525 C 0.76801 0.14207 0.60612 0.0
C1526 C 0.76514 0.13631 0.66437 0.0
C1527 C 0.74397 0.12874 0.68991 0.0
C1528 C 0.72087 0.12522 0.66296 0.0
C1529 C 0.71621 0.12922 0.60296 0.0
C1530 C 0.74864 0.14076 0.56431 0.0
C1531 C 0.85968 0.12745 0.46771 0.0
C1532 C 0.84864 0.11876 0.43677 0.0
C1533 C 0.84926 0.13627 0.49885 0.0
C1534 C 0.82764 0.1369 0.49813 0.0
C1535 C 0.81669 0.12844 0.46582 0.0
C1536 C 0.82711 0.11926 0.43599 0.0
C1537 C 0.81624 0.14583 0.53241 0.0
C1538 C 0.79995 0.14015 0.55912 0.0
C1539 C 0.82072 0.15977 0.53811 0.0
C1540 C 0.83755 0.16653 0.51064 0.0
C1541 C 0.83881 0.16546 0.45941 0.0
C1542 C 0.85558 0.17099 0.4344 0.0
C1543 C 0.87084 0.17802 0.45998 0.0
C1544 C 0.86929 0.1796 0.51061 0.0
C1545 C 0.85275 0.17386 0.53593 0.0
H1546 H 0.88373 0.18238 0.44049 0.0
H1547 H 0.70891 0.12037 0.68416 0.0
H1548 H 0.64344 0.11528 0.48944 0.0
H1549 H 0.66416 0.13229 0.44816 0.0
H1550 H 0.67325 0.15301 0.58515 0.0
H1551 H 0.65178 0.13618 0.62684 0.0
H1552 H 0.65965 0.16203 0.44321 0.0
H1553 H 0.71194 0.16241 0.59285 0.0
H1554 H 0.73585 0.15175 0.66608 0.0
H1555 H 0.74342 0.10877 0.53199 0.0
H1556 H 0.7192 0.12568 0.48013 0.0
H1557 H 0.74512 0.20204 0.34188 0.0
H1558 H 0.71726 0.19378 0.39495 0.0
H1559 H 0.73941 0.15313 0.37748 0.0
H1560 H 0.76696 0.16114 0.32521 0.0
H1561 H 0.73501 0.15934 0.47155 0.0
H1562 H 0.69033 0.16149 0.32312 0.0
H1563 H 0.67645 0.17428 0.25295 0.0
H1564 H 0.65626 0.20565 0.35005 0.0
H1565 H 0.67025 0.19309 0.42026 0.0
C1566 C 0.64977 0.12348 0.51091 0.0
C1567 C 0.64609 0.12436 0.56148 0.0
C1568 C 0.66139 0.13327 0.48708 0.0
C1569 C 0.66985 0.14404 0.51337 0.0
C1570 C 0.66643 0.14494 0.564 0.0
C1571 C 0.65439 0.13525 0.58786 0.0
C1572 C 0.68379 0.15345 0.48778 0.0
C1573 C 0.67612 0.16168 0.44999 0.0
C1574 C 0.70515 0.15282 0.49578 0.0
C1575 C 0.71434 0.14442 0.53419 0.0
C1576 C 0.71864 0.15259 0.5878 0.0
C1577 C 0.73379 0.14584 0.63262 0.0
C1578 C 0.74774 0.12222 0.60569 0.0
C1579 C 0.73888 0.11822 0.54846 0.0
C1580 C 0.72333 0.12891 0.51664 0.0
C1581 C 0.74388 0.19134 0.34916 0.0
C1582 C 0.75838 0.18227 0.32985 0.0
C1583 C 0.72796 0.18665 0.37941 0.0
C1584 C 0.72639 0.17287 0.39062 0.0
C1585 C 0.74044 0.16383 0.36982 0.0
C1586 C 0.75622 0.16845 0.33988 0.0
C1587 C 0.7111 0.16763 0.4261 0.0
C1588 C 0.71851 0.16005 0.46558 0.0
C1589 C 0.68961 0.16877 0.41895 0.0
C1590 C 0.68106 0.17629 0.37694 0.0
C1591 C 0.68286 0.17109 0.32937 0.0
C1592 C 0.67503 0.17831 0.28957 0.0
C1593 C 0.6654 0.19074 0.29703 0.0
C1594 C 0.66361 0.19598 0.34429 0.0
C1595 C 0.67141 0.18879 0.38413 0.0
H1596 H 0.65937 0.19633 0.26619 0.0
H1597 H 0.75775 0.11488 0.62387 0.0
H1598 H 0.6747 0.89175 0.94175 0.0
H1599 H 0.6918 0.87292 0.98379 0.0
H1600 H 0.65589 0.84473 0.89915 0.0
H1601 H 0.63962 0.86329 0.85552 0.0
H1602 H 0.66454 0.84768 0.02952 0.0
H1603 H 0.68012 0.82436 0.86867 0.0
H1604 H 0.682 0.83129 0.78194 0.0
H1605 H 0.72671 0.86158 0.81865 0.0
H1606 H 0.72427 0.85526 0.90584 0.0
H1607 H 0.75436 0.79193 0.18072 0.0
H1608 H 0.72732 0.79754 0.13243 0.0
H1609 H 0.76331 0.83355 0.0895 0.0
H1610 H 0.78799 0.82664 0.13799 0.0
H1611 H 0.71623 0.81988 0.94881 0.0
H1612 H 0.66292 0.84027 0.11544 0.0
H1613 H 0.63542 0.82885 0.1617 0.0
H1614 H 0.64181 0.79383 0.07139 0.0
H1615 H 0.66923 0.80509 0.02357 0.0
C1616 C 0.67085 0.88152 0.93136 0.0
C1617 C 0.65607 0.87899 0.89479 0.0
C1618 C 0.68047 0.87081 0.95567 0.0
C1619 C 0.67526 0.85747 0.94407 0.0
C1620 C 0.66049 0.85495 0.90774 0.0
C1621 C 0.65124 0.86559 0.88278 0.0
C1622 C 0.68513 0.84607 0.96996 0.0
C1623 C 0.67793 0.84241 0.01543 0.0
C1624 C 0.69805 0.83705 0.94588 0.0
C1625 C 0.70243 0.83912 0.89334 0.0
C1626 C 0.69067 0.8323 0.85797 0.0
C1627 C 0.69152 0.8363 0.80894 0.0
C1628 C 0.70458 0.8468 0.79475 0.0
C1629 C 0.7167 0.8534 0.82962 0.0
C1630 C 0.71547 0.84969 0.87885 0.0
C1631 C 0.7559 0.80088 0.15824 0.0
C1632 C 0.77332 0.80868 0.16219 0.0
C1633 C 0.73964 0.80476 0.12725 0.0
C1634 C 0.7387 0.81686 0.09351 0.0
C1635 C 0.75865 0.824 0.10384 0.0
C1636 C 0.77452 0.82017 0.13473 0.0
C1637 C 0.70592 0.82473 0.02647 0.0
C1638 C 0.70667 0.82613 0.9719 0.0
C1639 C 0.68481 0.83044 0.03751 0.0
C1640 C 0.66809 0.82354 0.06575 0.0
C1641 C 0.65832 0.83017 0.10498 0.0
C1642 C 0.64279 0.82371 0.13151 0.0
C1643 C 0.63687 0.81061 0.11926 0.0
C1644 C 0.64644 0.80396 0.08045 0.0
C1645 C 0.66194 0.81038 0.05356 0.0
H1646 H 0.62488 0.8056 0.1399 0.0
H1647 H 0.70524 0.84986 0.75681 0.0
H1648 H 0.68118 0.61675 0.47194 0.0
H1649 H 0.69682 0.63482 0.51914 0.0
H1650 H 0.6739 0.66414 0.41688 0.0
H1651 H 0.65721 0.64601 0.36947 0.0
H1652 H 0.71323 0.6704 0.45627 0.0
H1653 H 0.64682 0.65961 0.51105 0.0
H1654 H 0.61807 0.64464 0.53323 0.0
H1655 H 0.65269 0.62964 0.65547 0.0
H1656 H 0.682 0.64416 0.63304 0.0
H1657 H 0.75851 0.70576 0.6555 0.0
H1658 H 0.72921 0.70123 0.60079 0.0
H1659 H 0.72947 0.65958 0.64578 0.0
H1660 H 0.7589 0.66387 0.69852 0.0
H1661 H 0.69024 0.66855 0.62897 0.0
H1662 H 0.75815 0.66926 0.5535 0.0
H1663 H 0.79083 0.67934 0.5261 0.0
H1664 H 0.75748 0.7095 0.44612 0.0
H1665 H 0.72447 0.69943 0.47273 0.0
C1666 C 0.67968 0.62699 0.4587 0.0
C1667 C 0.66748 0.62997 0.41765 0.0
C1668 C 0.68863 0.63732 0.48585 0.0
C1669 C 0.68571 0.6508 0.47237 0.0
C1670 C 0.67555 0.65378 0.4285 0.0
C1671 C 0.66626 0.64341 0.4014 0.0
C1672 C 0.69195 0.66155 0.50686 0.0
C1673 C 0.70799 0.67025 0.49375 0.0
C1674 C 0.68455 0.66154 0.55554 0.0
C1675 C 0.66668 0.65304 0.57027 0.0
C1676 C 0.64842 0.65305 0.5424 0.0
C1677 C 0.63203 0.64459 0.55494 0.0
C1678 C 0.63354 0.6362 0.59575 0.0
C1679 C 0.65151 0.63619 0.62396 0.0
C1680 C 0.66804 0.64454 0.61131 0.0
C1681 C 0.75201 0.69572 0.65431 0.0
C1682 C 0.76109 0.68513 0.68075 0.0
C1683 C 0.73525 0.69317 0.6233 0.0
C1684 C 0.72729 0.68004 0.61912 0.0
C1685 C 0.73537 0.66976 0.64851 0.0
C1686 C 0.75229 0.67222 0.67843 0.0
C1687 C 0.7131 0.67618 0.57917 0.0
C1688 C 0.69515 0.66902 0.5911 0.0
C1689 C 0.71921 0.67719 0.52964 0.0
C1690 C 0.73888 0.68363 0.51516 0.0
C1691 C 0.75778 0.67808 0.53029 0.0
C1692 C 0.77635 0.68377 0.51484 0.0
C1693 C 0.77622 0.695 0.48418 0.0
C1694 C 0.75752 0.70077 0.46977 0.0
C1695 C 0.73887 0.69504 0.48488 0.0
H1696 H 0.79063 0.69917 0.47131 0.0
H1697 H 0.62079 0.6297 0.60554 0.0
H1698 H 0.63461 0.3721 0.03888 0.0
H1699 H 0.65429 0.35795 0.983 0.0
H1700 H 0.70764 0.3834 0.00399 0.0
H1701 H 0.68708 0.39838 0.05626 0.0
H1702 H 0.70604 0.37733 0.91496 0.0
H1703 H 0.70069 0.35022 0.05979 0.0
H1704 H 0.67862 0.34161 0.12607 0.0
H1705 H 0.64384 0.31831 0.02249 0.0
H1706 H 0.66507 0.32731 0.95532 0.0
H1707 H 0.76458 0.3104 0.85903 0.0
H1708 H 0.74061 0.32239 0.9122 0.0
H1709 H 0.71925 0.34558 0.78839 0.0
H1710 H 0.74561 0.33506 0.73732 0.0
H1711 H 0.70544 0.32755 0.93119 0.0
H1712 H 0.70444 0.37711 0.81776 0.0
H1713 H 0.72579 0.38916 0.75721 0.0
H1714 H 0.77977 0.36875 0.80981 0.0
H1715 H 0.75857 0.35667 0.87062 0.0
C1716 C 0.65064 0.37452 0.03209 0.0
C1717 C 0.65954 0.38612 0.05248 0.0
C1718 C 0.66193 0.36642 0.00021 0.0
C1719 C 0.6827 0.36933 0.99012 0.0
C1720 C 0.69169 0.38087 0.01123 0.0
C1721 C 0.68007 0.38933 0.04151 0.0
C1722 C 0.69486 0.3605 0.95682 0.0
C1723 C 0.70599 0.36645 0.91859 0.0
C1724 C 0.69512 0.34629 0.96178 0.0
C1725 C 0.68437 0.33946 0.00256 0.0
C1726 C 0.68848 0.34313 0.05127 0.0
C1727 C 0.67607 0.33824 0.08896 0.0
C1728 C 0.6599 0.32941 0.07851 0.0
C1729 C 0.65639 0.32516 0.03052 0.0
C1730 C 0.66858 0.33016 0.99259 0.0
C1731 C 0.75463 0.31801 0.84328 0.0
C1732 C 0.75735 0.32218 0.79476 0.0
C1733 C 0.74081 0.32485 0.87362 0.0
C1734 C 0.72871 0.33546 0.85506 0.0
C1735 C 0.72923 0.33806 0.8045 0.0
C1736 C 0.74399 0.33185 0.775 0.0
C1737 C 0.7169 0.34435 0.88905 0.0
C1738 C 0.70572 0.33842 0.92744 0.0
C1739 C 0.71727 0.35865 0.88521 0.0
C1740 C 0.73 0.36592 0.8486 0.0
C1741 C 0.72087 0.37524 0.81649 0.0
C1742 C 0.73291 0.38206 0.78204 0.0
C1743 C 0.75412 0.37971 0.77957 0.0
C1744 C 0.76334 0.37056 0.81166 0.0
C1745 C 0.75135 0.36375 0.84613 0.0
H1746 H 0.76341 0.38498 0.75284 0.0
H1747 H 0.64988 0.32607 0.10749 0.0
H1748 H 0.74231 0.30864 0.17707 0.0
H1749 H 0.77067 0.31909 0.13117 0.0
H1750 H 0.7379 0.3569 0.13049 0.0
H1751 H 0.71003 0.34672 0.17699 0.0
H1752 H 0.76885 0.32975 0.04096 0.0
H1753 H 0.77037 0.38292 0.13038 0.0
H1754 H 0.76602 0.39306 0.21212 0.0
H1755 H 0.78391 0.35578 0.27929 0.0
H1756 H 0.78862 0.34546 0.19814 0.0
H1757 H 0.81535 0.39749 0.94711 0.0
H1758 H 0.79306 0.38388 -0.00053 0.0
H1759 H 0.83328 0.3497 0.97924 0.0
H1760 H 0.8551 0.36317 0.9248 0.0
H1761 H 0.80231 0.37307 0.08437 0.0
H1762 H 0.79965 0.31907 0.00137 0.0
H1763 H 0.80579 0.3077 0.92296 0.0
H1764 H 0.79419 0.34453 0.84583 0.0
H1765 H 0.78647 0.35597 0.92364 0.0
C1766 C 0.74141 0.31925 0.16795 0.0
C1767 C 0.72394 0.32685 0.18047 0.0
C1768 C 0.75753 0.32517 0.14152 0.0
C1769 C 0.75646 0.33879 0.12772 0.0
C1770 C 0.73925 0.34644 0.14141 0.0
C1771 C 0.72324 0.34057 0.16775 0.0
C1772 C 0.77254 0.34493 0.09635 0.0
C1773 C 0.77659 0.33907 0.05071 0.0
C1774 C 0.78227 0.3572 0.10902 0.0
C1775 C 0.7797 0.36339 0.15809 0.0
C1776 C 0.77348 0.3769 0.1626 0.0
C1777 C 0.77092 0.38268 0.20887 0.0
C1778 C 0.77463 0.37505 0.25092 0.0
C1779 C 0.78096 0.36166 0.24677 0.0
C1780 C 0.78354 0.35583 0.20063 0.0
C1781 C 0.81914 0.38698 0.95288 0.0
C1782 C 0.83679 0.38134 0.93152 0.0
C1783 C 0.80654 0.37925 0.98322 0.0
C1784 C 0.8115 0.36577 0.99349 0.0
C1785 C 0.82898 0.36002 0.97145 0.0
C1786 C 0.84135 0.3677 0.94009 0.0
C1787 C 0.79848 0.35801 0.02822 0.0
C1788 C 0.79491 0.36363 0.07463 0.0
C1789 C 0.78951 0.34537 0.01639 0.0
C1790 C 0.79295 0.33851 0.96871 0.0
C1791 C 0.79815 0.32476 0.96775 0.0
C1792 C 0.80182 0.31826 0.92337 0.0
C1793 C 0.8009 0.32546 0.87963 0.0
C1794 C 0.79529 0.33903 0.87991 0.0
C1795 C 0.79101 0.34549 0.92417 0.0
H1796 H 0.80443 0.32046 0.84556 0.0
H1797 H 0.77263 0.37953 0.2867 0.0
H1798 H 0.72619 0.6902 0.34582 0.0
H1799 H 0.75442 0.68152 0.39672 0.0
H1800 H 0.72951 0.64137 0.38438 0.0
H1801 H 0.70205 0.64973 0.33253 0.0
H1802 H 0.73411 0.64762 0.47606 0.0
H1803 H 0.77517 0.65222 0.3303 0.0
H1804 H 0.79107 0.66422 0.26104 0.0
H1805 H 0.82346 0.69013 0.36087 0.0
H1806 H 0.80765 0.67834 0.43073 0.0
H1807 H 0.8113 0.60316 0.5498 0.0
H1808 H 0.78535 0.61725 0.51048 0.0
H1809 H 0.81706 0.65298 0.56007 0.0
H1810 H 0.84312 0.63885 0.6002 0.0
H1811 H 0.80976 0.65264 0.45945 0.0
H1812 H 0.77164 0.6477 0.60467 0.0
H1813 H 0.7554 0.63674 0.67573 0.0
H1814 H 0.71736 0.61309 0.57992 0.0
H1815 H 0.73377 0.62362 0.5082 0.0
C1816 C 0.72688 0.67952 0.35374 0.0
C1817 C 0.71164 0.6707 0.33604 0.0
C1818 C 0.74302 0.67458 0.38271 0.0
C1819 C 0.74385 0.66085 0.39515 0.0
C1820 C 0.72909 0.65202 0.37575 0.0
C1821 C 0.7133 0.65686 0.34625 0.0
C1822 C 0.75868 0.65569 0.43185 0.0
C1823 C 0.75065 0.64866 0.47216 0.0
C1824 C 0.78025 0.65754 0.42792 0.0
C1825 C 0.78982 0.66459 0.38581 0.0
C1826 C 0.78547 0.66059 0.33752 0.0
C1827 C 0.79454 0.66732 0.29812 0.0
C1828 C 0.80816 0.67799 0.30653 0.0
C1829 C 0.81282 0.68191 0.35438 0.0
C1830 C 0.8038 0.6752 0.39389 0.0
C1831 C 0.81251 0.61401 0.55328 0.0
C1832 C 0.82923 0.61992 0.57788 0.0
C1833 C 0.79766 0.62205 0.53091 0.0
C1834 C 0.79933 0.63614 0.53239 0.0
C1835 C 0.81555 0.64211 0.55861 0.0
C1836 C 0.83031 0.63404 0.5817 0.0
C1837 C 0.78507 0.64436 0.50266 0.0
C1838 C 0.79318 0.65188 0.46367 0.0
C1839 C 0.76352 0.64312 0.50793 0.0
C1840 C 0.75407 0.63639 0.55096 0.0
C1841 C 0.76004 0.64001 0.59867 0.0
C1842 C 0.75079 0.63388 0.63912 0.0
C1843 C 0.73539 0.62421 0.63236 0.0
C1844 C 0.72931 0.62058 0.58512 0.0
C1845 C 0.73861 0.62661 0.54455 0.0
H1846 H 0.72814 0.61954 0.66372 0.0
H1847 H 0.81517 0.68319 0.27597 0.0
H1848 H 0.33665 0.38606 0.50885 0.0
H1849 H 0.31425 0.36839 0.47752 0.0
H1850 H 0.31955 0.34682 0.61385 0.0
H1851 H 0.34271 0.3645 0.64547 0.0
H1852 H 0.32175 0.34005 0.46682 0.0
H1853 H 0.26406 0.33478 0.62443 0.0
H1854 H 0.25243 0.34688 0.69804 0.0
H1855 H 0.26879 0.38457 0.63144 0.0
H1856 H 0.28015 0.37264 0.55718 0.0
H1857 H 0.23868 0.30126 0.36419 0.0
H1858 H 0.26544 0.30721 0.42441 0.0
H1859 H 0.23739 0.34628 0.44328 0.0
H1860 H 0.21078 0.34037 0.38494 0.0
H1861 H 0.24988 0.33786 0.52753 0.0
H1862 H 0.2782 0.3403 0.36307 0.0
H1863 H 0.28825 0.33085 0.28312 0.0
H1864 H 0.3287 0.30284 0.35462 0.0
H1865 H 0.31881 0.3121 0.43473 0.0
C1866 C 0.33309 0.3776 0.53237 0.0
C1867 C 0.34133 0.37673 0.57979 0.0
C1868 C 0.32048 0.36742 0.51414 0.0
C1869 C 0.31547 0.35625 0.54314 0.0
C1870 C 0.32344 0.35532 0.59079 0.0
C1871 C 0.33649 0.36546 0.60887 0.0
C1872 C 0.30074 0.34625 0.52344 0.0
C1873 C 0.30616 0.33921 0.48079 0.0
C1874 C 0.2804 0.34532 0.54154 0.0
C1875 C 0.27358 0.35272 0.58586 0.0
C1876 C 0.26533 0.34561 0.62568 0.0
C1877 C 0.25868 0.35246 0.66744 0.0
C1878 C 0.26007 0.36649 0.66965 0.0
C1879 C 0.26795 0.37369 0.62993 0.0
C1880 C 0.27454 0.36687 0.58801 0.0
C1881 C 0.23826 0.31108 0.38147 0.0
C1882 C 0.22273 0.32039 0.36949 0.0
C1883 C 0.25348 0.31445 0.41591 0.0
C1884 C 0.25351 0.32724 0.43813 0.0
C1885 C 0.23768 0.33633 0.42695 0.0
C1886 C 0.22254 0.33297 0.39307 0.0
C1887 C 0.27065 0.33191 0.46999 0.0
C1888 C 0.2657 0.33801 0.5149 0.0
C1889 C 0.29131 0.33222 0.45336 0.0
C1890 C 0.29745 0.32671 0.40507 0.0
C1891 C 0.28912 0.33206 0.36174 0.0
C1892 C 0.29482 0.32675 0.31634 0.0
C1893 C 0.30902 0.3162 0.31379 0.0
C1894 C 0.31763 0.31097 0.35662 0.0
C1895 C 0.31197 0.31625 0.40207 0.0
H1896 H 0.31341 0.3121 0.27863 0.0
H1897 H 0.25491 0.37179 0.702 0.0
H1898 H 0.3457 0.61464 0.99278 0.0
H1899 H 0.32149 0.63086 0.02663 0.0
H1900 H 0.32273 0.65332 0.89174 0.0
H1901 H 0.34692 0.63689 0.85692 0.0
H1902 H 0.32658 0.65892 0.03669 0.0
H1903 H 0.28911 0.66346 0.87132 0.0
H1904 H 0.27826 0.65445 0.78234 0.0
H1905 H 0.24229 0.61371 0.82315 0.0
H1906 H 0.2474 0.61533 0.92217 0.0
H1907 H 0.24531 0.69832 0.14513 0.0
H1908 H 0.27265 0.69127 0.08828 0.0
H1909 H 0.24026 0.65394 0.06253 0.0
H1910 H 0.21312 0.66094 0.11697 0.0
H1911 H 0.25416 0.66161 0.98371 0.0
H1912 H 0.28352 0.65955 0.14603 0.0
H1913 H 0.29505 0.66942 0.22422 0.0
H1914 H 0.33722 0.69521 0.1474 0.0
H1915 H 0.32601 0.68545 0.069 0.0
C1916 C 0.34071 0.62295 0.96999 0.0
C1917 C 0.34784 0.62431 0.92174 0.0
C1918 C 0.32698 0.63228 0.98956 0.0
C1919 C 0.31977 0.64306 0.96114 0.0
C1920 C 0.32744 0.64479 0.91356 0.0
C1921 C 0.34135 0.63545 0.89388 0.0
C1922 C 0.30444 0.6523 0.98283 0.0
C1923 C 0.31063 0.65948 0.02483 0.0
C1924 C 0.28344 0.65263 0.96784 0.0
C1925 C 0.27529 0.64542 0.9219 0.0
C1926 C 0.28109 0.65398 0.869 0.0
C1927 C 0.2738 0.64826 0.81304 0.0
C1928 C 0.26021 0.63401 0.79914 0.0
C1929 C 0.25069 0.6222 0.83794 0.0
C1930 C 0.25405 0.62337 0.89975 0.0
C1931 C 0.24401 0.68868 0.12675 0.0
C1932 C 0.22717 0.68012 0.13599 0.0
C1933 C 0.25964 0.68467 0.09433 0.0
C1934 C 0.25869 0.67203 0.07114 0.0
C1935 C 0.24149 0.66376 0.0795 0.0
C1936 C 0.22594 0.66776 0.11117 0.0
C1937 C 0.27554 0.66685 0.03923 0.0
C1938 C 0.26991 0.66076 0.99491 0.0
C1939 C 0.29637 0.66637 0.05412 0.0
C1940 C 0.30351 0.67202 0.10144 0.0
C1941 C 0.29514 0.6674 0.14581 0.0
C1942 C 0.30168 0.67294 0.19022 0.0
C1943 C 0.31675 0.68301 0.19078 0.0
C1944 C 0.32546 0.68747 0.14695 0.0
C1945 C 0.319 0.68193 0.10248 0.0
H1946 H 0.32177 0.6873 0.22519 0.0
H1947 H 0.25723 0.63232 0.7607 0.0
H1948 H 0.26415 0.68969 0.90119 0.0
H1949 H 0.23842 0.67897 0.9536 0.0
H1950 H 0.20603 0.66457 0.82651 0.0
H1951 H 0.23056 0.67641 0.77354 0.0
H1952 H 0.18231 0.67264 0.91716 0.0
H1953 H 0.23909 0.64865 0.84741 0.0
H1954 H 0.29292 0.62811 0.83697 0.0
H1955 H 0.27962 0.62053 0.0057 0.0
H1956 H 0.24499 0.63407 0.01357 0.0
H1957 H 0.14258 0.60645 0.98548 0.0
H1958 H 0.16232 0.62396 0.94373 0.0
H1959 H 0.18056 0.64062 0.08279 0.0
H1960 H 0.15997 0.62336 0.1253 0.0
H1961 H 0.21134 0.63097 0.98908 0.0
H1962 H 0.15378 0.65817 0.04689 0.0
H1963 H 0.11638 0.66189 0.05366 0.0
H1964 H 0.11158 0.66459 0.89739 0.0
H1965 H 0.14877 0.66006 0.8895 0.0
C1966 C 0.25106 0.68476 0.88436 0.0
C1967 C 0.24938 0.68389 0.83323 0.0
C1968 C 0.23697 0.67807 0.91436 0.0
C1969 C 0.22169 0.66987 0.89372 0.0
C1970 C 0.21833 0.6704 0.84302 0.0
C1971 C 0.23232 0.67718 0.81284 0.0
C1972 C 0.20962 0.66048 0.92457 0.0
C1973 C 0.18886 0.66365 0.93348 0.0
C1974 C 0.21811 0.64844 0.94476 0.0
C1975 C 0.23903 0.64301 0.93324 0.0
C1976 C 0.24843 0.64372 0.87508 0.0
C1977 C 0.2827 0.63021 0.86788 0.0
C1978 C 0.28909 0.62321 0.92248 0.0
C1979 C 0.2743 0.62543 0.97273 0.0
C1980 C 0.25185 0.63422 0.97758 0.0
C1981 C 0.15083 0.6138 0.00732 0.0
C1982 C 0.14985 0.61352 0.0587 0.0
C1983 C 0.1619 0.62386 0.98335 0.0
C1984 C 0.17247 0.63366 0.01026 0.0
C1985 C 0.17213 0.63322 0.06158 0.0
C1986 C 0.16054 0.62334 0.08571 0.0
C1987 C 0.18505 0.64374 0.98415 0.0
C1988 C 0.20559 0.64045 0.97492 0.0
C1989 C 0.17636 0.65535 0.96265 0.0
C1990 C 0.15409 0.65852 0.96761 0.0
C1991 C 0.14472 0.65925 0.01389 0.0
C1992 C 0.12352 0.66149 0.01793 0.0
C1993 C 0.1116 0.66344 0.97599 0.0
C1994 C 0.12083 0.66306 0.92988 0.0
C1995 C 0.14196 0.66058 0.92561 0.0
H1996 H 0.09522 0.66531 0.97923 0.0
H1997 H 0.30251 0.61681 0.92459 0.0
H1998 H 0.24374 0.30854 0.71158 0.0
H1999 H 0.21284 0.31399 0.66367 0.0
H2000 H 0.2481 0.31082 0.53061 0.0
H2001 H 0.2793 0.30675 0.57849 0.0
H2002 H 0.21876 0.33834 0.61003 0.0
H2003 H 0.20664 0.30187 0.43886 0.0
H2004 H 0.20343 0.27752 0.42431 0.0
H2005 H 0.18984 0.27122 0.57618 0.0
H2006 H 0.19349 0.29552 0.5918 0.0
H2007 H 0.18619 0.37858 0.41855 0.0
H2008 H 0.20583 0.36163 0.46386 0.0
H2009 H 0.15259 0.33552 0.4651 0.0
H2010 H 0.13359 0.35189 0.41621 0.0
H2011 H 0.18446 0.3205 0.4616 0.0
H2012 H 0.16448 0.35727 0.56425 0.0
H2013 H 0.16137 0.38108 0.58917 0.0
H2014 H 0.2273 0.38484 0.5918 0.0
H2015 H 0.23074 0.36108 0.56621 0.0
C2016 C 0.24465 0.30848 0.67202 0.0
C2017 C 0.26374 0.30721 0.64848 0.0
C2018 C 0.22703 0.31157 0.64475 0.0
C2019 C 0.2283 0.31288 0.59371 0.0
C2020 C 0.24686 0.30987 0.56994 0.0
C2021 C 0.26462 0.30748 0.59723 0.0
C2022 C 0.2126 0.32065 0.56675 0.0
C2023 C 0.21093 0.33438 0.578 0.0
C2024 C 0.20211 0.31538 0.52571 0.0
C2025 C 0.20088 0.3006 0.51667 0.0
C2026 C 0.20334 0.29532 0.46932 0.0
C2027 C 0.20139 0.28149 0.46087 0.0
C2028 C 0.1965 0.27281 0.49933 0.0
C2029 C 0.19379 0.27793 0.54643 0.0
C2030 C 0.19601 0.29174 0.55516 0.0
C2031 C 0.17895 0.36903 0.42721 0.0
C2032 C 0.1584 0.36655 0.41403 0.0
C2033 C 0.19007 0.35941 0.45356 0.0
C2034 C 0.18053 0.34739 0.46896 0.0
C2035 C 0.16037 0.34462 0.45337 0.0
C2036 C 0.14949 0.35403 0.42555 0.0
C2037 C 0.19099 0.33824 0.5041 0.0
C2038 C 0.19182 0.32434 0.4942 0.0
C2039 C 0.19993 0.34318 0.54782 0.0
C2040 C 0.19788 0.35744 0.56331 0.0
C2041 C 0.1783 0.3632 0.57002 0.0
C2042 C 0.17647 0.37668 0.58423 0.0
C2043 C 0.19413 0.38446 0.59211 0.0
C2044 C 0.21365 0.37879 0.58581 0.0
C2045 C 0.21555 0.36532 0.57155 0.0
H2046 H 0.19268 0.3949 0.60309 0.0
H2047 H 0.1947 0.26212 0.49259 0.0
H2048 H 0.31152 0.20905 0.10073 0.0
H2049 H 0.32127 0.22136 0.02716 0.0
H2050 H 0.38555 0.21507 0.06086 0.0
H2051 H 0.37572 0.20242 0.13472 0.0
H2052 H 0.37451 0.24207 0.05003 0.0
H2053 H 0.36662 0.20134 0.96365 0.0
H2054 H 0.3504 0.18013 0.9369 0.0
H2055 H 0.30098 0.20237 0.87085 0.0
H2056 H 0.31605 0.22358 0.89975 0.0
H2057 H 0.38243 0.28912 0.85154 0.0
H2058 H 0.38892 0.26887 0.90047 0.0
H2059 H 0.32411 0.25912 0.89565 0.0
H2060 H 0.31761 0.27903 0.84609 0.0
H2061 H 0.34646 0.23708 0.88225 0.0
H2062 H 0.34723 0.27518 0.99532 0.0
H2063 H 0.36037 0.29681 0.02716 0.0
H2064 H 0.42065 0.27957 0.04397 0.0
H2065 H 0.40788 0.25787 0.01168 0.0
C2066 C 0.32772 0.21002 0.09184 0.0
C2067 C 0.34291 0.20493 0.12336 0.0
C2068 C 0.33328 0.21698 0.04968 0.0
C2069 C 0.35413 0.21908 0.03857 0.0
C2070 C 0.36938 0.21346 0.06881 0.0
C2071 C 0.36378 0.20624 0.11074 0.0
C2072 C 0.35954 0.22865 -0.00081 0.0
C2073 C 0.36893 0.24083 0.01286 0.0
C2074 C 0.35192 0.22706 0.95104 0.0
C2075 C 0.34253 0.21416 0.93414 0.0
C2076 C 0.3521 0.20172 0.94415 0.0
C2077 C 0.34304 0.18965 0.92873 0.0
C2078 C 0.32459 0.18986 0.90239 0.0
C2079 C 0.31517 0.20214 0.89151 0.0
C2080 C 0.32393 0.21421 0.90765 0.0
C2081 C 0.36958 0.28265 0.86094 0.0
C2082 C 0.34948 0.28573 0.84517 0.0
C2083 C 0.37333 0.27108 0.88882 0.0
C2084 C 0.35699 0.26251 0.90188 0.0
C2085 C 0.33699 0.26553 0.88573 0.0
C2086 C 0.33327 0.27698 0.85765 0.0
C2087 C 0.3602 0.25069 0.93418 0.0
C2088 C 0.35255 0.23812 0.91901 0.0
C2089 C 0.36902 0.25195 0.98131 0.0
C2090 C 0.37669 0.26499 0.00047 0.0
C2091 C 0.36332 0.27605 0.00543 0.0
C2092 C 0.37069 0.28831 0.02362 0.0
C2093 C 0.39135 0.28958 0.0374 0.0
C2094 C 0.40467 0.27858 0.03315 0.0
C2095 C 0.39738 0.2663 0.01491 0.0
H2096 H 0.39703 0.29908 0.05151 0.0
H2097 H 0.31766 0.18052 0.89021 0.0
H2098 H 0.91548 0.88578 0.24551 0.0
H2099 H 0.94204 0.88139 0.30753 0.0
H2100 H 0.96397 0.92225 0.29274 0.0
H2101 H 0.93797 0.92656 0.23046 0.0
H2102 H 0.99444 0.90469 0.2813 0.0
H2103 H 0.93795 0.91075 0.3959 0.0
H2104 H 0.9039 0.90548 0.43115 0.0
H2105 H 0.92335 0.86487 0.45926 0.0
H2106 H 0.95744 0.86986 0.42361 0.0
H2107 H 0.06404 0.91539 0.4723 0.0
H2108 H 0.03482 0.9155 0.41625 0.0
H2109 H 0.02074 0.87438 0.45529 0.0
H2110 H 0.04965 0.87438 0.51308 0.0
H2111 H 0.98652 0.88851 0.45181 0.0
H2112 H 0.04337 0.88245 0.34376 0.0
H2113 H 0.07758 0.88713 0.30837 0.0
H2114 H 0.05757 0.92665 0.26586 0.0
H2115 H 0.02332 0.92229 0.30159 0.0
C2116 C 0.92571 0.89388 0.25634 0.0
C2117 C 0.9248 0.90647 0.23285 0.0
C2118 C 0.94087 0.89136 0.29173 0.0
C2119 C 0.95507 0.90148 0.30453 0.0
C2120 C 0.95332 0.91426 0.28308 0.0
C2121 C 0.93841 0.91672 0.24754 0.0
C2122 C 0.97286 0.89866 0.33702 0.0
C2123 C 0.99268 0.90128 0.31877 0.0
C2124 C 0.97064 0.89361 0.3851 0.0
C2125 C 0.95016 0.89064 0.40658 0.0
C2126 C 0.9349 0.90067 0.40921 0.0
C2127 C 0.91561 0.89774 0.42935 0.0
C2128 C 0.91144 0.88484 0.44729 0.0
C2129 C 0.92658 0.87485 0.44527 0.0
C2130 C 0.9459 0.87773 0.42514 0.0
C2131 C 0.05487 0.90631 0.46863 0.0
C2132 C 0.05921 0.89484 0.49684 0.0
C2133 C 0.03817 0.90638 0.43647 0.0
C2134 C 0.02576 0.89487 0.43093 0.0
C2135 C 0.03013 0.88336 0.45887 0.0
C2136 C 0.0467 0.88335 0.49164 0.0
C2137 C 0.00802 0.89507 0.39661 0.0
C2138 C 0.98828 0.89183 0.41425 0.0
C2139 C 0.01027 0.89945 0.34768 0.0
C2140 C 0.0308 0.90206 0.32562 0.0
C2141 C 0.0463 0.89217 0.3271 0.0
C2142 C 0.0657 0.89476 0.30696 0.0
C2143 C 0.06976 0.90719 0.28495 0.0
C2144 C 0.05441 0.91703 0.28292 0.0
C2145 C 0.03498 0.9145 0.30305 0.0
H2146 H 0.08479 0.90918 0.2694 0.0
H2147 H 0.8965 0.88259 0.46286 0.0
H2148 H 0.19228 0.72958 0.33073 0.0
H2149 H 0.18805 0.75136 0.37207 0.0
H2150 H 0.13049 0.73768 0.43341 0.0
H2151 H 0.13446 0.7161 0.39241 0.0
H2152 H 0.12641 0.76244 0.39593 0.0
H2153 H 0.17441 0.7387 0.49913 0.0
H2154 H 0.2065 0.72743 0.52464 0.0
H2155 H 0.24117 0.76294 0.48856 0.0
H2156 H 0.20936 0.77429 0.46162 0.0
H2157 H 0.10915 0.78903 0.6274 0.0
H2158 H 0.11266 0.77964 0.54562 0.0
H2159 H 0.16597 0.80478 0.52067 0.0
H2160 H 0.16246 0.81405 0.60299 0.0
H2161 H 0.17588 0.77941 0.51965 0.0
H2162 H 0.12417 0.80443 0.44075 0.0
H2163 H 0.09047 0.81542 0.42864 0.0
H2164 H 0.06059 0.7768 0.43032 0.0
H2165 H 0.09405 0.76564 0.44325 0.0
C2166 C 0.17881 0.73119 0.35336 0.0
C2167 C 0.1637 0.72109 0.3582 0.0
C2168 C 0.1764 0.74365 0.37682 0.0
C2169 C 0.15887 0.74617 0.40553 0.0
C2170 C 0.14401 0.73602 0.41096 0.0
C2171 C 0.1464 0.72363 0.38772 0.0
C2172 C 0.1558 0.75926 0.43072 0.0
C2173 C 0.13719 0.7662 0.42306 0.0
C2174 C 0.17024 0.76442 0.46465 0.0
C2175 C 0.18955 0.75725 0.47739 0.0
C2176 C 0.18893 0.744 0.4956 0.0
C2177 C 0.20707 0.73762 0.51054 0.0
C2178 C 0.22588 0.74444 0.50808 0.0
C2179 C 0.22662 0.75763 0.49024 0.0
C2180 C 0.20855 0.76403 0.47495 0.0
C2181 C 0.12075 0.79318 0.6032 0.0
C2182 C 0.13534 0.80238 0.62099 0.0
C2183 C 0.12282 0.78779 0.55634 0.0
C2184 C 0.13961 0.79148 0.52678 0.0
C2185 C 0.15277 0.80188 0.54253 0.0
C2186 C 0.15062 0.80731 0.58941 0.0
C2187 C 0.14601 0.78229 0.48674 0.0
C2188 C 0.16532 0.77603 0.49137 0.0
C2189 C 0.13199 0.7776 0.45091 0.0
C2190 C 0.11172 0.78422 0.4429 0.0
C2191 C 0.11041 0.79831 0.43871 0.0
C2192 C 0.09134 0.80456 0.43171 0.0
C2193 C 0.0734 0.79681 0.42865 0.0
C2194 C 0.07451 0.7828 0.43258 0.0
C2195 C 0.09355 0.7765 0.43965 0.0
H2196 H 0.05864 0.80166 0.42324 0.0
H2197 H 0.23984 0.73953 0.52032 0.0
H2198 H 0.54281 0.07545 0.75874 0.0
H2199 H 0.51857 0.08231 0.82192 0.0
H2200 H 0.5482 0.12111 0.83166 0.0
H2201 H 0.57274 0.1143 0.76778 0.0
H2202 H 0.5285 0.10563 0.92806 0.0
H2203 H 0.51473 0.12558 0.76845 0.0
H2204 H 0.51381 0.12429 0.67835 0.0
H2205 H 0.47072 0.09149 0.68611 0.0
H2206 H 0.47171 0.09242 0.7763 0.0
H2207 H 0.43258 0.1256 0.03306 0.0
H2208 H 0.46355 0.12788 0.98269 0.0
H2209 H 0.44532 0.09296 0.89905 0.0
H2210 H 0.4143 0.0907 0.94873 0.0
H2211 H 0.46195 0.11218 0.84127 0.0
H2212 H 0.47775 0.09017 0.99557 0.0
H2213 H 0.47895 0.08914 0.08568 0.0
H2214 H 0.51802 0.12408 0.0889 0.0
H2215 H 0.51676 0.12544 -0.00123 0.0
C2216 C 0.5446 0.08531 0.77526 0.0
C2217 C 0.55941 0.09444 0.75777 0.0
C2218 C 0.5308 0.08917 0.81151 0.0
C2219 C 0.53153 0.10223 0.83082 0.0
C2220 C 0.54752 0.11097 0.81709 0.0
C2221 C 0.56147 0.10707 0.78064 0.0
C2222 C 0.51347 0.10717 0.8581 0.0
C2223 C 0.51404 0.1075 0.90929 0.0
C2224 C 0.49462 0.10929 0.83329 0.0
C2225 C 0.4934 0.10902 0.77909 0.0
C2226 C 0.50515 0.11804 0.75092 0.0
C2227 C 0.50462 0.11738 0.69985 0.0
C2228 C 0.49224 0.1078 0.67652 0.0
C2229 C 0.48031 0.0989 0.70423 0.0
C2230 C 0.48083 0.09951 0.75532 0.0
C2231 C 0.43499 0.11855 0.00337 0.0
C2232 C 0.42115 0.10786 0.99518 0.0
C2233 C 0.45272 0.11985 0.97479 0.0
C2234 C 0.45685 0.11046 0.93773 0.0
C2235 C 0.44242 0.1003 0.9276 0.0
C2236 C 0.42472 0.09899 0.95609 0.0
C2237 C 0.47679 0.1105 0.91153 0.0
C2238 C 0.4765 0.11092 0.86031 0.0
C2239 C 0.49583 0.10901 0.93646 0.0
C2240 C 0.49697 0.108 0.99051 0.0
C2241 C 0.4865 0.09768 0.01553 0.0
C2242 C 0.48719 0.09703 0.06659 0.0
C2243 C 0.4985 0.10656 0.09301 0.0
C2244 C 0.50923 0.11672 0.06839 0.0
C2245 C 0.50853 0.11744 0.01732 0.0
H2246 H 0.499 0.10605 0.13254 0.0
H2247 H 0.49188 0.10729 0.63697 0.0
H2248 H 0.29487 0.72621 0.65359 0.0
H2249 H 0.29537 0.74753 0.60779 0.0
H2250 H 0.36154 0.74502 0.59622 0.0
H2251 H 0.3612 0.72384 0.64103 0.0
H2252 H 0.34915 0.77034 0.62113 0.0
H2253 H 0.33322 0.73603 0.50686 0.0
H2254 H 0.31497 0.71735 0.46638 0.0
H2255 H 0.26241 0.74275 0.44316 0.0
H2256 H 0.27989 0.76142 0.48613 0.0
H2257 H 0.37434 0.80343 0.39514 0.0
H2258 H 0.36958 0.78984 0.46914 0.0
H2259 H 0.30604 0.80242 0.47651 0.0
H2260 H 0.31106 0.81662 0.40477 0.0
H2261 H 0.31328 0.77427 0.46162 0.0
H2262 H 0.33369 0.8095 0.57312 0.0
H2263 H 0.35601 0.82744 0.60589 0.0
H2264 H 0.40596 0.79933 0.61904 0.0
H2265 H 0.38379 0.78116 0.58683 0.0
C2266 C 0.3095 0.73023 0.64128 0.0
C2267 C 0.32797 0.72328 0.65066 0.0
C2268 C 0.30976 0.74239 0.6152 0.0
C2269 C 0.32851 0.74785 0.59871 0.0
C2270 C 0.34693 0.74104 0.60884 0.0
C2271 C 0.34666 0.72885 0.63415 0.0
C2272 C 0.32914 0.76041 0.56941 0.0
C2273 C 0.34126 0.77121 0.58626 0.0
C2274 C 0.31879 0.76155 0.52401 0.0
C2275 C 0.30768 0.75005 0.50108 0.0
C2276 C 0.31753 0.73754 0.49458 0.0
C2277 C 0.30732 0.72695 0.47107 0.0
C2278 C 0.28741 0.72881 0.45287 0.0
C2279 C 0.27767 0.74126 0.45814 0.0
C2280 C 0.28767 0.75183 0.48235 0.0
C2281 C 0.35971 0.80383 0.41416 0.0
C2282 C 0.34314 0.81108 0.39435 0.0
C2283 C 0.35696 0.79604 0.45628 0.0
C2284 C 0.33746 0.79515 0.47832 0.0
C2285 C 0.32125 0.80309 0.46044 0.0
C2286 C 0.32418 0.81121 0.41937 0.0
C2287 C 0.3332 0.78415 0.51335 0.0
C2288 C 0.32057 0.77355 0.49726 0.0
C2289 C 0.34358 0.78304 0.55856 0.0
C2290 C 0.35705 0.79397 0.57739 0.0
C2291 C 0.34941 0.80713 0.58293 0.0
C2292 C 0.36203 0.81734 0.60158 0.0
C2293 C 0.38242 0.81454 0.61441 0.0
C2294 C 0.39017 0.80149 0.60903 0.0
C2295 C 0.37754 0.79122 0.59082 0.0
H2296 H 0.39221 0.82247 0.62856 0.0
H2297 H 0.27961 0.72064 0.43424 0.0
H2298 H 0.42867 0.90916 0.51768 0.0
H2299 H 0.46044 0.90558 0.56364 0.0
H2300 H 0.46552 0.86548 0.50435 0.0
H2301 H 0.43372 0.86902 0.45721 0.0
H2302 H 0.47502 0.87509 0.62443 0.0
H2303 H 0.49668 0.87527 0.45435 0.0
H2304 H 0.49352 0.88288 0.36885 0.0
H2305 H 0.50331 0.92383 0.41414 0.0
H2306 H 0.50636 0.91643 0.50014 0.0
H2307 H 0.57668 0.88418 0.72052 0.0
H2308 H 0.55277 0.87529 0.65856 0.0
H2309 H 0.53058 0.91553 0.63102 0.0
H2310 H 0.55397 0.92437 0.69331 0.0
H2311 H 0.53352 0.89881 0.54489 0.0
H2312 H 0.50689 0.89862 0.71381 0.0
H2313 H 0.5089 0.89159 0.80026 0.0
H2314 H 0.50829 0.85003 0.75649 0.0
H2315 H 0.50653 0.85685 0.66969 0.0
C2316 C 0.43624 0.89946 0.51513 0.0
C2317 C 0.42885 0.88944 0.48333 0.0
C2318 C 0.45438 0.89745 0.54139 0.0
C2319 C 0.4653 0.88534 0.53681 0.0
C2320 C 0.45725 0.8749 0.50804 0.0
C2321 C 0.43914 0.87696 0.48123 0.0
C2322 C 0.48606 0.88447 0.55849 0.0
C2323 C 0.4881 0.87981 0.60656 0.0
C2324 C 0.50292 0.89078 0.53518 0.0
C2325 C 0.50156 0.89531 0.48362 0.0
C2326 C 0.49801 0.88591 0.44609 0.0
C2327 C 0.49627 0.89018 0.39756 0.0
C2328 C 0.4981 0.90384 0.38609 0.0
C2329 C 0.50185 0.91325 0.42312 0.0
C2330 C 0.50363 0.90902 0.47175 0.0
C2331 C 0.56714 0.89114 0.70008 0.0
C2332 C 0.567 0.90493 0.71175 0.0
C2333 C 0.55349 0.88605 0.6649 0.0
C2334 C 0.53989 0.89477 0.64054 0.0
C2335 C 0.54102 0.90867 0.64933 0.0
C2336 C 0.55431 0.91369 0.68502 0.0
C2337 C 0.52251 0.88953 0.61115 0.0
C2338 C 0.52092 0.89337 0.56195 0.0
C2339 C 0.50617 0.8823 0.6333 0.0
C2340 C 0.50685 0.87823 0.68538 0.0
C2341 C 0.50732 0.88799 0.72266 0.0
C2342 C 0.50839 0.88405 0.77169 0.0
C2343 C 0.50881 0.87038 0.78384 0.0
C2344 C 0.50802 0.86062 0.747 0.0
C2345 C 0.50698 0.86451 0.69791 0.0
H2346 H 0.50972 0.86734 0.82179 0.0
H2347 H 0.49664 0.90713 0.34852 0.0
H2348 H 0.10452 0.21116 0.85073 0.0
H2349 H 0.10292 0.22467 0.92533 0.0
H2350 H 0.15224 0.20114 0.98767 0.0
H2351 H 0.15316 0.18721 0.91383 0.0
H2352 H 0.12794 0.21331 0.05982 0.0
H2353 H 0.16521 0.22579 0.91485 0.0
H2354 H 0.1693 0.22982 0.82637 0.0
H2355 H 0.12286 0.26058 0.83188 0.0
H2356 H 0.11831 0.25661 0.92033 0.0
H2357 H 0.17678 0.26991 0.1817 0.0
H2358 H 0.1704 0.24991 0.13092 0.0
H2359 H 0.11942 0.27018 0.06142 0.0
H2360 H 0.12565 0.29007 0.11143 0.0
H2361 H 0.14598 0.25864 0.99593 0.0
H2362 H 0.11124 0.24646 0.14634 0.0
H2363 H 0.10948 0.242 0.23494 0.0
H2364 H 0.15431 0.21047 0.21991 0.0
H2365 H 0.15655 0.2149 0.1313 0.0
C2366 C 0.11403 0.20832 0.88166 0.0
C2367 C 0.12895 0.19821 0.87679 0.0
C2368 C 0.11328 0.21612 0.92407 0.0
C2369 C 0.12795 0.21417 0.96122 0.0
C2370 C 0.14089 0.20286 0.95928 0.0
C2371 C 0.1413 0.19484 0.91717 0.0
C2372 C 0.13272 0.22535 0.99533 0.0
C2373 C 0.13199 0.22321 0.04602 0.0
C2374 C 0.1383 0.23822 0.97715 0.0
C2375 C 0.14129 0.24082 0.92411 0.0
C2376 C 0.1558 0.23337 0.89714 0.0
C2377 C 0.15821 0.23565 0.84699 0.0
C2378 C 0.14631 0.24543 0.82347 0.0
C2379 C 0.13205 0.25299 0.85012 0.0
C2380 C 0.12956 0.25074 0.90027 0.0
C2381 C 0.16427 0.2701 0.15546 0.0
C2382 C 0.15177 0.2816 0.15047 0.0
C2383 C 0.16055 0.25864 0.12682 0.0
C2384 C 0.14434 0.25855 0.09273 0.0
C2385 C 0.13197 0.27003 0.0876 0.0
C2386 C 0.13557 0.2814 0.11627 0.0
C2387 C 0.14056 0.24679 0.06061 0.0
C2388 C 0.14178 0.24879 0.00997 0.0
C2389 C 0.1358 0.23381 0.07903 0.0
C2390 C 0.13427 0.23112 0.13226 0.0
C2391 C 0.12087 0.23866 0.16199 0.0
C2392 C 0.11975 0.23612 0.21221 0.0
C2393 C 0.13183 0.22599 0.23308 0.0
C2394 C 0.145 0.21834 0.20374 0.0
C2395 C 0.14619 0.22085 0.15352 0.0
H2396 H 0.13094 0.22403 0.27195 0.0
H2397 H 0.14817 0.24716 0.78463 0.0
H2398 H 0.07497 0.08316 0.04349 0.0
H2399 H 0.04305 0.08451 0.09024 0.0
H2400 H 0.0162 0.10983 0.97897 0.0
H2401 H 0.04847 0.10879 0.93223 0.0
H2402 H 0.00416 0.11683 0.07642 0.0
H2403 H 0.00493 0.07833 0.97203 0.0
H2404 H 0.02083 0.0584 0.93362 0.0
H2405 H 0.02693 0.03962 0.07432 0.0
H2406 H 0.01141 0.05953 0.1137 0.0
H2407 H 0.91338 0.09829 0.21767 0.0
H2408 H 0.93475 0.10252 0.14501 0.0
H2409 H 0.98166 0.07619 0.20309 0.0
H2410 H 0.96054 0.07168 0.27405 0.0
H2411 H 0.97574 0.07128 0.10935 0.0
H2412 H 0.98271 0.112 0.21285 0.0
H2413 H 0.96859 0.13238 0.2522 0.0
H2414 H 0.94779 0.1469 0.1127 0.0
H2415 H 0.96162 0.12652 0.07266 0.0
C2416 C 0.06242 0.08922 0.02937 0.0
C2417 C 0.06406 0.0957 0.98398 0.0
C2418 C 0.0442 0.08998 0.05605 0.0
C2419 C 0.02717 0.09701 0.0374 0.0
C2420 C 0.02917 0.10429 0.99372 0.0
C2421 C 0.04757 0.10366 0.96713 0.0
C2422 C 0.00699 0.09558 0.06188 0.0
C2423 C -0.00238 0.10692 0.08286 0.0
C2424 C -0.00164 0.08266 0.06953 0.0
C2425 C 0.00701 0.07044 0.04581 0.0
C2426 C 0.0097 0.06996 0.9948 0.0
C2427 C 0.01867 0.05867 0.97286 0.0
C2428 C 0.02488 0.04775 0.00151 0.0
C2429 C 0.02208 0.04808 0.05216 0.0
C2430 C 0.01316 0.05936 0.0743 0.0
C2431 C 0.92818 0.09333 0.21457 0.0
C2432 C 0.93523 0.08464 0.25167 0.0
C2433 C 0.94039 0.09581 0.1732 0.0
C2434 C 0.95983 0.08971 0.16875 0.0
C2435 C 0.96666 0.08093 0.2055 0.0
C2436 C 0.95452 0.07839 0.24627 0.0
C2437 C 0.97375 0.0924 0.12695 0.0
C2438 C 0.98185 0.08125 0.10195 0.0
C2439 C 0.98113 0.10547 0.11573 0.0
C2440 C 0.97296 0.11769 0.13991 0.0
C2441 C 0.97501 0.11951 0.19067 0.0
C2442 C 0.96708 0.13106 0.21307 0.0
C2443 C 0.95724 0.14091 0.185 0.0
C2444 C 0.95537 0.13925 0.13442 0.0
C2445 C 0.96325 0.12771 0.11186 0.0
H2446 H 0.95111 0.14984 0.20241 0.0
H2447 H 0.03185 0.03904 0.98447 0.0
H2448 H 0.6191 0.7726 0.82965 0.0
H2449 H 0.60993 0.76506 0.9115 0.0
H2450 H 0.6387 0.80043 0.9728 0.0
H2451 H 0.6479 0.80808 0.89039 0.0
H2452 H 0.65834 0.77657 -0.00336 0.0
H2453 H 0.59136 0.79395 0.00928 0.0
H2454 H 0.55616 0.79999 0.98343 0.0
H2455 H 0.54116 0.75813 0.9657 0.0
H2456 H 0.57635 0.75182 0.99071 0.0
H2457 H 0.65812 0.72941 0.195 0.0
H2458 H 0.65242 0.75074 0.15201 0.0
H2459 H 0.61397 0.73016 0.04681 0.0
H2460 H 0.61888 0.70905 0.09065 0.0
H2461 H 0.59752 0.75346 0.06738 0.0
H2462 H 0.66843 0.7381 0.03084 0.0
H2463 H 0.70435 0.73268 0.05317 0.0
H2464 H 0.71185 0.7721 0.11556 0.0
H2465 H 0.67592 0.77771 0.09395 0.0
C2466 C 0.62255 0.7791 0.86047 0.0
C2467 C 0.63433 0.79081 0.85406 0.0
C2468 C 0.61725 0.77481 0.90728 0.0
C2469 C 0.62391 0.7821 0.94833 0.0
C2470 C 0.63359 0.79463 0.94161 0.0
C2471 C 0.63866 0.79905 0.89453 0.0
C2472 C 0.62521 0.77497 0.99575 0.0
C2473 C 0.64497 0.77183 0.01321 0.0
C2474 C 0.60782 0.76873 0.01699 0.0
C2475 C 0.58657 0.77241 0.00185 0.0
C2476 C 0.58061 0.78603 -0.00044 0.0
C2477 C 0.56064 0.7895 0.98511 0.0
C2478 C 0.54644 0.77945 0.97293 0.0
C2479 C 0.55217 0.7659 0.97522 0.0
C2480 C 0.57213 0.76237 0.98965 0.0
C2481 C 0.64844 0.72947 0.16272 0.0
C2482 C 0.63908 0.71753 0.14592 0.0
C2483 C 0.64518 0.74167 0.13821 0.0
C2484 C 0.63294 0.74206 0.09581 0.0
C2485 C 0.62339 0.73016 0.07956 0.0
C2486 C 0.62632 0.71806 0.10447 0.0
C2487 C 0.6307 0.75454 0.06629 0.0
C2488 C 0.6108 0.75857 0.05204 0.0
C2489 C 0.64796 0.7617 0.04814 0.0
C2490 C 0.66944 0.75823 0.0615 0.0
C2491 C 0.67771 0.74556 0.04969 0.0
C2492 C 0.69807 0.74247 0.06213 0.0
C2493 C 0.71035 0.75202 0.08594 0.0
C2494 C 0.70231 0.7647 0.09727 0.0
C2495 C 0.68195 0.76784 0.08495 0.0
H2496 H 0.72611 0.74961 0.09548 0.0
H2497 H 0.53098 0.78217 0.96174 0.0
H2498 H 0.0868 0.10058 0.729 0.0
H2499 H 0.06615 0.10531 0.65563 0.0
H2500 H 0.02975 0.06971 0.6831 0.0
H2501 H 0.05017 0.0649 0.75554 0.0
H2502 H 0.03781 0.07296 0.58583 0.0
H2503 H 0.01495 0.1006 0.72556 0.0
H2504 H 0.02038 0.11814 0.78826 0.0
H2505 H 0.03551 0.14682 0.67628 0.0
H2506 H 0.03039 0.12937 0.61298 0.0
H2507 H 0.93495 0.07566 0.52452 0.0
H2508 H 0.96745 0.07642 0.56944 0.0
H2509 H 0.98394 0.11334 0.49603 0.0
H2510 H 0.95132 0.11269 0.45075 0.0
H2511 H 0.99293 0.11332 0.59724 0.0
H2512 H 0.00659 0.08686 0.45702 0.0
H2513 H -0.00031 0.06944 0.39485 0.0
H2514 H 0.00203 0.03877 0.50545 0.0
H2515 H 0.00859 0.05604 0.56848 0.0
C2516 C 0.07463 0.09365 0.71877 0.0
C2517 C 0.06993 0.08245 0.74829 0.0
C2518 C 0.06285 0.09639 0.67701 0.0
C2519 C 0.04634 0.08791 0.66429 0.0
C2520 C 0.04244 0.07636 0.69225 0.0
C2521 C 0.05405 0.07368 0.73387 0.0
C2522 C 0.03176 0.09141 0.62474 0.0
C2523 C 0.02809 0.08183 0.588 0.0
C2524 C 0.01956 0.10322 0.62665 0.0
C2525 C 0.02256 0.11366 0.66468 0.0
C2526 C 0.01958 0.11062 0.71439 0.0
C2527 C 0.02258 0.12055 0.75001 0.0
C2528 C 0.02836 0.13357 0.73627 0.0
C2529 C 0.03109 0.13671 0.68687 0.0
C2530 C 0.02815 0.12682 0.65113 0.0
C2531 C 0.94536 0.08402 0.51824 0.0
C2532 C 0.94068 0.09405 0.48383 0.0
C2533 C 0.96396 0.0844 0.5437 0.0
C2534 C 0.97818 0.0948 0.53524 0.0
C2535 C 0.97319 0.10519 0.50265 0.0
C2536 C 0.95459 0.10478 0.47689 0.0
C2537 C -0.00165 0.0945 0.56018 0.0
C2538 C 0.00308 0.10468 0.59391 0.0
C2539 C 0.01158 0.08327 0.5554 0.0
C2540 C 0.00802 0.07277 0.51754 0.0
C2541 C 0.00553 0.07641 0.46816 0.0
C2542 C 0.00168 0.06656 0.43275 0.0
C2543 C 0.00041 0.05301 0.4462 0.0
C2544 C 0.00304 0.04928 0.49508 0.0
C2545 C 0.00686 0.0591 0.53066 0.0
H2546 H -0.00258 0.04539 0.41874 0.0
H2547 H 0.03067 0.14125 0.76389 0.0
H2548 H 0.81736 0.27043 0.64325 0.0
H2549 H 0.82907 0.25096 0.59666 0.0
H2550 H 0.88415 0.27249 0.5552 0.0
H2551 H 0.87234 0.29218 0.60119 0.0
H2552 H 0.86658 0.26103 0.47833 0.0
H2553 H 0.88651 0.2461 0.6361 0.0
H2554 H 0.88236 0.24171 0.72428 0.0
H2555 H 0.834 0.21337 0.69364 0.0
H2556 H 0.83758 0.21775 0.60532 0.0
H2557 H 0.88289 0.20554 0.33171 0.0
H2558 H 0.8936 0.2184 0.40414 0.0
H2559 H 0.8352 0.20962 0.47259 0.0
H2560 H 0.82475 0.1967 0.4008 0.0
H2561 H 0.86552 0.21412 0.54132 0.0
H2562 H 0.83824 0.23495 0.39227 0.0
H2563 H 0.83918 0.23979 0.30378 0.0
H2564 H 0.8993 0.25742 0.31947 0.0
H2565 H 0.89882 0.25247 0.40805 0.0
C2566 C 0.83199 0.27104 0.62435 0.0
C2567 C 0.84386 0.28289 0.62574 0.0
C2568 C 0.83879 0.25983 0.59816 0.0
C2569 C 0.85769 0.26017 0.57322 0.0
C2570 C 0.8696 0.27197 0.57455 0.0
C2571 C 0.86279 0.28323 0.60069 0.0
C2572 C 0.86399 0.24856 0.54254 0.0
C2573 C 0.86702 0.25081 0.49245 0.0
C2574 C 0.86425 0.2352 0.56084 0.0
C2575 C 0.86228 0.23231 0.61397 0.0
C2576 C 0.87491 0.23898 0.64814 0.0
C2577 C 0.87266 0.2365 0.69818 0.0
C2578 C 0.85791 0.22728 0.71455 0.0
C2579 C 0.84543 0.2205 0.6809 0.0
C2580 C 0.84759 0.22297 0.63082 0.0
C2581 C 0.87294 0.20572 0.36349 0.0
C2582 C 0.85315 0.20009 0.3613 0.0
C2583 C 0.87897 0.21313 0.40466 0.0
C2584 C 0.86501 0.21517 0.44326 0.0
C2585 C 0.8462 0.20819 0.44325 0.0
C2586 C 0.84023 0.20079 0.40228 0.0
C2587 C 0.86751 0.22666 0.47732 0.0
C2588 C 0.86598 0.2244 0.52783 0.0
C2589 C 0.86839 0.24005 0.45954 0.0
C2590 C 0.86861 0.24319 0.40653 0.0
C2591 C 0.8517 0.23979 0.37675 0.0
C2592 C 0.85215 0.24254 0.32663 0.0
C2593 C 0.86932 0.24886 0.306 0.0
C2594 C 0.88604 0.25248 0.3355 0.0
C2595 C 0.8857 0.24969 0.38565 0.0
H2596 H 0.86964 0.25097 0.26719 0.0
H2597 H 0.85617 0.22539 0.75331 0.0
H2598 H 0.46947 0.89107 0.30216 0.0
H2599 H 0.49325 0.88742 0.23417 0.0
H2600 H 0.44788 0.90316 0.13371 0.0
H2601 H 0.42363 0.9061 0.20165 0.0
H2602 H 0.47021 0.88459 0.08917 0.0
H2603 H 0.48448 0.92396 0.18692 0.0
H2604 H 0.49136 0.93615 0.26389 0.0
H2605 H 0.54577 0.9124 0.28714 0.0
H2606 H 0.53907 0.89996 0.21052 0.0
H2607 H 0.5624 0.92401 0.97316 0.0
H2608 H 0.53507 0.92115 0.03331 0.0
H2609 H 0.53621 0.87812 0.01 0.0
H2610 H 0.56311 0.88102 0.94805 0.0
H2611 H 0.53576 0.90933 0.11604 0.0
H2612 H 0.48836 0.86484 0.03713 0.0
H2613 H 0.47928 0.85498 0.95708 0.0
H2614 H 0.48805 0.89343 0.88822 0.0
H2615 H 0.49687 0.90357 0.96794 0.0
C2616 C 0.46452 0.89351 0.2654 0.0
C2617 C 0.44501 0.89909 0.25693 0.0
C2618 C 0.47805 0.89141 0.22664 0.0
C2619 C 0.47253 0.89538 0.17912 0.0
C2620 C 0.45248 0.9001 0.17014 0.0
C2621 C 0.4387 0.90184 0.20887 0.0
C2622 C 0.48836 0.89612 0.14029 0.0
C2623 C 0.4846 0.88994 0.09496 0.0
C2624 C 0.50692 0.90335 0.14761 0.0
C2625 C 0.51119 0.91097 0.19323 0.0
C2626 C 0.49787 0.92132 0.20855 0.0
C2627 C 0.50175 0.92827 0.25208 0.0
C2628 C 0.519 0.92505 0.28037 0.0
C2629 C 0.53243 0.91489 0.26515 0.0
C2630 C 0.52862 0.90789 0.22166 0.0
C2631 C 0.55678 0.91395 0.98073 0.0
C2632 C 0.56487 0.90273 0.95615 0.0
C2633 C 0.54117 0.91231 0.01509 0.0
C2634 C 0.53352 0.89943 0.026 0.0
C2635 C 0.54163 0.88818 0.00156 0.0
C2636 C 0.55706 0.88983 0.96646 0.0
C2637 C 0.51766 0.89789 0.06447 0.0
C2638 C 0.52146 0.90389 0.11005 0.0
C2639 C 0.49892 0.89087 0.05661 0.0
C2640 C 0.4935 0.88492 0.00847 0.0
C2641 C 0.48829 0.8712 0.00493 0.0
C2642 C 0.48319 0.86557 0.95961 0.0
C2643 C 0.48314 0.87357 0.91758 0.0
C2644 C 0.48816 0.88724 0.92079 0.0
C2645 C 0.49323 0.89293 0.96603 0.0
H2646 H 0.47915 0.86919 0.88257 0.0
H2647 H 0.52194 0.93042 0.31414 0.0
H2648 H 0.64014 0.25635 0.2698 0.0
H2649 H 0.6392 0.23599 0.31991 0.0
H2650 H 0.67082 0.25715 0.4359 0.0
H2651 H 0.67272 0.27735 0.38466 0.0
H2652 H 0.68302 0.23276 0.43573 0.0
H2653 H 0.61651 0.25388 0.43037 0.0
H2654 H 0.58535 0.26316 0.39114 0.0
H2655 H 0.57199 0.22447 0.32814 0.0
H2656 H 0.60324 0.21501 0.36655 0.0
H2657 H 0.62391 0.20492 0.64228 0.0
H2658 H 0.62175 0.21715 0.56485 0.0
H2659 H 0.66145 0.18762 0.49768 0.0
H2660 H 0.66329 0.17535 0.57459 0.0
H2661 H 0.61339 0.21366 0.46515 0.0
H2662 H 0.70211 0.20866 0.44766 0.0
H2663 H 0.73299 0.20435 0.49824 0.0
H2664 H 0.7001 0.21711 0.62637 0.0
H2665 H 0.66923 0.22155 0.57638 0.0
C2666 C 0.64725 0.25655 0.30568 0.0
C2667 C 0.65636 0.2684 0.32372 0.0
C2668 C 0.64658 0.24494 0.33435 0.0
C2669 C 0.65441 0.24514 0.38216 0.0
C2670 C 0.66458 0.25677 0.39916 0.0
C2671 C 0.66569 0.2683 0.36996 0.0
C2672 C 0.65098 0.23358 0.41555 0.0
C2673 C 0.66783 0.22847 0.44164 0.0
C2674 C 0.63108 0.22813 0.42397 0.0
C2675 C 0.61232 0.23378 0.40083 0.0
C2676 C 0.607 0.24738 0.40785 0.0
C2677 C 0.58932 0.25267 0.38581 0.0
C2678 C 0.57674 0.24442 0.35704 0.0
C2679 C 0.58178 0.23086 0.35035 0.0
C2680 C 0.59947 0.22552 0.37225 0.0
C2681 C 0.63126 0.20071 0.61016 0.0
C2682 C 0.64364 0.18918 0.61398 0.0
C2683 C 0.63006 0.20769 0.56602 0.0
C2684 C 0.64167 0.20339 0.52569 0.0
C2685 C 0.65237 0.19112 0.5282 0.0
C2686 C 0.65324 0.184 0.57212 0.0
C2687 C 0.64543 0.21294 0.48527 0.0
C2688 C 0.62865 0.21767 0.45798 0.0
C2689 C 0.66524 0.21851 0.47736 0.0
C2690 C 0.68325 0.21508 0.50835 0.0
C2691 C 0.70146 0.21032 0.48669 0.0
C2692 C 0.71898 0.20798 0.5152 0.0
C2693 C 0.71851 0.21053 0.56546 0.0
C2694 C 0.70043 0.21515 0.58743 0.0
C2695 C 0.68289 0.21752 0.55902 0.0
H2696 H 0.7322 0.209 0.58738 0.0
H2697 H 0.56305 0.24853 0.34002 0.0
H2698 H 0.40502 0.10412 0.27223 0.0
H2699 H 0.42684 0.1079 0.34448 0.0
H2700 H 0.48049 0.09675 0.26064 0.0
H2701 H 0.45904 0.09282 0.1892 0.0
H2702 H 0.47735 0.0828 0.34583 0.0
H2703 H 0.46988 0.12956 0.29083 0.0
H2704 H 0.44952 0.1499 0.27224 0.0
H2705 H 0.42633 0.15044 0.41927 0.0
H2706 H 0.44637 0.12999 0.43853 0.0
H2707 H 0.5679 0.09883 0.4566 0.0
H2708 H 0.53851 0.10051 0.40126 0.0
H2709 H 0.50005 0.11374 0.5207 0.0
H2710 H 0.5299 0.11265 0.57611 0.0
H2711 H 0.4893 0.12598 0.43308 0.0
H2712 H 0.49946 0.08132 0.49186 0.0
H2713 H 0.51976 0.06113 0.51273 0.0
H2714 H 0.53619 0.05609 0.36174 0.0
H2715 H 0.51626 0.07637 0.34006 0.0
C2716 C 0.42149 0.10258 0.26925 0.0
C2717 C 0.43028 0.098 0.22522 0.0
C2718 C 0.43391 0.10479 0.31044 0.0
C2719 C 0.45524 0.10256 0.30783 0.0
C2720 C 0.46403 0.09842 0.26349 0.0
C2721 C 0.45171 0.09615 0.22268 0.0
C2722 C 0.46866 0.10368 0.35136 0.0
C2723 C 0.47999 0.09226 0.36482 0.0
C2724 C 0.47134 0.11585 0.37762 0.0
C2725 C 0.45942 0.12816 0.36593 0.0
C2726 C 0.4603 0.13395 0.31906 0.0
C2727 C 0.44885 0.14551 0.30843 0.0
C2728 C 0.43658 0.15143 0.3445 0.0
C2729 C 0.4358 0.14583 0.39133 0.0
C2730 C 0.44721 0.13426 0.40213 0.0
C2731 C 0.55326 0.10233 0.47083 0.0
C2732 C 0.551 0.10544 0.5205 0.0
C2733 C 0.5365 0.10327 0.4393 0.0
C2734 C 0.51701 0.1069 0.45724 0.0
C2735 C 0.51495 0.11084 0.50629 0.0
C2736 C 0.53195 0.11019 0.53781 0.0
C2737 C 0.49878 0.10529 0.42527 0.0
C2738 C 0.4864 0.11649 0.41457 0.0
C2739 C 0.49486 0.09285 0.40171 0.0
C2740 C 0.5064 0.0804 0.41437 0.0
C2741 C 0.50745 0.07593 0.46313 0.0
C2742 C 0.5189 0.06447 0.47511 0.0
C2743 C 0.52926 0.05734 0.43859 0.0
C2744 C 0.52814 0.06162 0.38999 0.0
C2745 C 0.51674 0.07308 0.37781 0.0
H2746 H 0.53815 0.04848 0.44795 0.0
H2747 H 0.42773 0.16038 0.33619 0.0
H2748 H 0.82347 0.81563 0.10378 0.0
H2749 H 0.82146 0.80039 0.03416 0.0
H2750 H 0.88575 0.79055 0.05152 0.0
H2751 H 0.88766 0.80539 0.12317 0.0
H2752 H 0.86955 0.7914 0.94828 0.0
H2753 H 0.85799 0.77126 0.10761 0.0
H2754 H 0.84181 0.76933 0.18893 0.0
H2755 H 0.782 0.76715 0.12195 0.0
H2756 H 0.79785 0.76923 0.0402 0.0
H2757 H 0.87609 0.72409 0.86146 0.0
H2758 H 0.8781 0.7451 0.90784 0.0
H2759 H 0.81176 0.74782 0.90821 0.0
H2760 H 0.80957 0.72678 0.86196 0.0
H2761 H 0.82764 0.75186 -0.00197 0.0
H2762 H 0.83927 0.76876 0.83784 0.0
H2763 H 0.85526 0.77022 0.75629 0.0
H2764 H 0.91388 0.77889 0.82224 0.0
H2765 H 0.89831 0.77727 0.9043 0.0
C2766 C 0.83746 0.81073 0.09158 0.0
C2767 C 0.85577 0.81168 0.11896 0.0
C2768 C 0.83622 0.80193 0.05191 0.0
C2769 C 0.85342 0.7943 0.03805 0.0
C2770 C 0.87235 0.79641 0.06168 0.0
C2771 C 0.87346 0.80493 0.10238 0.0
C2772 C 0.8508 0.78268 0.00482 0.0
C2773 C 0.86046 0.78273 0.95901 0.0
C2774 C 0.83869 0.77147 0.01882 0.0
C2775 C 0.82908 0.77052 0.06789 0.0
C2776 C 0.84138 0.7705 0.11027 0.0
C2777 C 0.83228 0.76932 0.15641 0.0
C2778 C 0.81091 0.76804 0.16057 0.0
C2779 C 0.79857 0.76807 0.11863 0.0
C2780 C 0.80759 0.76925 0.0724 0.0
C2781 C 0.86191 0.72915 0.87131 0.0
C2782 C 0.84266 0.72372 0.8581 0.0
C2783 C 0.8631 0.74123 0.8975 0.0
C2784 C 0.84508 0.7481 0.911 0.0
C2785 C 0.82585 0.7427 0.89797 0.0
C2786 C 0.82464 0.73067 0.87155 0.0
C2787 C 0.84631 0.76053 0.94098 0.0
C2788 C 0.83645 0.7606 0.98659 0.0
C2789 C 0.85815 0.77185 0.92653 0.0
C2790 C 0.86765 0.77275 0.87728 0.0
C2791 C 0.85561 0.77084 0.835 0.0
C2792 C 0.8646 0.77173 0.78867 0.0
C2793 C 0.88559 0.77461 0.78408 0.0
C2794 C 0.89763 0.77664 0.82585 0.0
C2795 C 0.88873 0.77575 0.87229 0.0
H2796 H 0.89251 0.7753 0.74817 0.0
H2797 H 0.80389 0.76709 0.19631 0.0
H2798 H 0.06795 0.88599 0.75901 0.0
H2799 H 0.0448 0.88249 0.82862 0.0
H2800 H 0.01671 0.92116 0.80167 0.0
H2801 H 0.0397 0.92475 0.73232 0.0
H2802 H 0.02235 0.91564 0.90137 0.0
H2803 H 0.9957 0.8937 0.75369 0.0
H2804 H -0.00197 0.87759 0.68521 0.0
H2805 H 0.00568 0.84498 0.78681 0.0
H2806 H 0.00366 0.86096 0.85589 0.0
H2807 H 0.91936 0.91701 0.97208 0.0
H2808 H 0.95137 0.91639 0.92523 0.0
H2809 H 0.96371 0.87629 0.97841 0.0
H2810 H 0.93165 0.87682 0.02573 0.0
H2811 H 0.97072 0.87921 0.87852 0.0
H2812 H 0.99048 0.90012 0.02626 0.0
H2813 H 0.98822 0.91577 0.09603 0.0
H2814 H 0.9946 0.94946 -0.00128 0.0
H2815 H -0.00346 0.93401 0.92819 0.0
C2816 C 0.05706 0.89383 0.76842 0.0
C2817 C 0.05541 0.90556 0.73982 0.0
C2818 C 0.04386 0.8918 0.8081 0.0
C2819 C 0.02897 0.90151 0.81983 0.0
C2820 C 0.02812 0.91355 0.7931 0.0
C2821 C 0.04115 0.91553 0.75327 0.0
C2822 C 0.01298 0.8988 0.85691 0.0
C2823 C 0.01105 0.90768 0.89652 0.0
C2824 C -0.00129 0.88811 0.85133 0.0
C2825 C -0.00021 0.87853 0.80985 0.0
C2826 C -0.00196 0.88311 0.76137 0.0
C2827 C -0.00073 0.874 0.72248 0.0
C2828 C 0.00207 0.86027 0.73165 0.0
C2829 C 0.00356 0.85562 0.77976 0.0
C2830 C 0.00237 0.8647 0.81879 0.0
C2831 C 0.92876 0.90801 0.97348 0.0
C2832 C 0.92305 0.89698 0.00266 0.0
C2833 C 0.94711 0.90771 0.94704 0.0
C2834 C 0.96 0.89638 0.94914 0.0
C2835 C 0.954 0.88516 0.97674 0.0
C2836 C 0.93571 0.88548 0.00362 0.0
C2837 C 0.97963 0.89637 0.92192 0.0
C2838 C 0.98227 0.88697 0.88421 0.0
C2839 C 0.99465 0.9065 0.92957 0.0
C2840 C 0.9935 0.91589 0.97184 0.0
C2841 C 0.99122 0.91087 0.01965 0.0
C2842 C 0.99002 0.9197 0.05937 0.0
C2843 C 0.99123 0.9336 0.05181 0.0
C2844 C 0.99366 0.93869 0.00451 0.0
C2845 C 0.99483 0.92989 0.96464 0.0
H2846 H 0.99031 0.94043 0.08261 0.0
H2847 H 0.00301 0.85324 0.70148 0.0
H2848 H 0.88173 0.77225 0.36954 0.0
H2849 H 0.88137 0.75055 0.4112 0.0
H2850 H 0.81884 0.7438 0.36332 0.0
H2851 H 0.81903 0.7656 0.32131 0.0
H2852 H 0.82354 0.74052 0.46113 0.0
H2853 H 0.85623 0.72415 0.31808 0.0
H2854 H 0.88121 0.7239 0.25022 0.0
H2855 H 0.9311 0.7204 0.3527 0.0
H2856 H 0.90645 0.72083 0.42126 0.0
H2857 H 0.82519 0.68231 0.60153 0.0
H2858 H 0.82595 0.69228 0.51958 0.0
H2859 H 0.88358 0.7118 0.5541 0.0
H2860 H 0.88246 0.7022 0.63649 0.0
H2861 H 0.87724 0.70506 0.44974 0.0
H2862 H 0.84478 0.72561 0.59153 0.0
H2863 H 0.82016 0.72627 0.65995 0.0
H2864 H 0.76963 0.72338 0.55897 0.0
H2865 H 0.79404 0.72269 0.48987 0.0
C2866 C 0.86793 0.76613 0.36744 0.0
C2867 C 0.85034 0.77071 0.34245 0.0
C2868 C 0.86783 0.75365 0.39088 0.0
C2869 C 0.85016 0.7455 0.38983 0.0
C2870 C 0.83268 0.74991 0.36423 0.0
C2871 C 0.8328 0.76238 0.34041 0.0
C2872 C 0.84942 0.73311 0.41991 0.0
C2873 C 0.83489 0.73255 0.45775 0.0
C2874 C 0.86452 0.72288 0.41596 0.0
C2875 C 0.87946 0.7226 0.37487 0.0
C2876 C 0.87253 0.72343 0.3262 0.0
C2877 C 0.88664 0.72323 0.28758 0.0
C2878 C 0.90773 0.72215 0.29714 0.0
C2879 C 0.91475 0.72123 0.34535 0.0
C2880 C 0.90072 0.72143 0.38411 0.0
C2881 C 0.83859 0.68809 0.59052 0.0
C2882 C 0.85386 0.69148 0.62482 0.0
C2883 C 0.83893 0.69384 0.54389 0.0
C2884 C 0.85466 0.70291 0.53128 0.0
C2885 C 0.87136 0.70478 0.56323 0.0
C2886 C 0.87078 0.69927 0.61019 0.0
C2887 C 0.85157 0.71265 0.49111 0.0
C2888 C 0.86546 0.71279 0.4519 0.0
C2889 C 0.83594 0.72259 0.49389 0.0
C2890 C 0.82129 0.72342 0.53557 0.0
C2891 C 0.82846 0.72481 0.5839 0.0
C2892 C 0.81453 0.72532 0.62284 0.0
C2893 C 0.79335 0.7247 0.61388 0.0
C2894 C 0.78605 0.72373 0.56592 0.0
C2895 C 0.79994 0.72326 0.52687 0.0
H2896 H 0.78261 0.72513 0.64408 0.0
H2897 H 0.91862 0.722 0.2672 0.0
H2898 H 0.46358 0.41958 0.72204 0.0
H2899 H 0.48532 0.41309 0.79027 0.0
H2900 H 0.43728 0.38723 0.84561 0.0
H2901 H 0.41509 0.39361 0.77632 0.0
H2902 H 0.45945 0.40468 0.9185 0.0
H2903 H 0.47183 0.37047 0.80435 0.0
H2904 H 0.47675 0.36025 0.72309 0.0
H2905 H 0.53237 0.38307 0.70341 0.0
H2906 H 0.52766 0.3936 0.78443 0.0
H2907 H 0.54815 0.38906 0.07107 0.0
H2908 H 0.51812 0.38434 0.01931 0.0
H2909 H 0.54264 0.41059 0.9079 0.0
H2910 H 0.57253 0.41547 0.95945 0.0
H2911 H 0.5272 0.38514 0.87305 0.0
H2912 H 0.50812 0.42208 0.98569 0.0
H2913 H 0.50133 0.43128 0.06798 0.0
H2914 H 0.45623 0.40037 0.09321 0.0
H2915 H 0.463 0.39086 0.01136 0.0
C2916 C 0.45744 0.41257 0.74867 0.0
C2917 C 0.43761 0.40705 0.74347 0.0
C2918 C 0.46995 0.40886 0.78765 0.0
C2919 C 0.46294 0.39958 0.82247 0.0
C2920 C 0.44291 0.39437 0.8188 0.0
C2921 C 0.43033 0.39801 0.77925 0.0
C2922 C 0.47728 0.39536 0.86143 0.0
C2923 C 0.47404 0.40002 0.90916 0.0
C2924 C 0.49618 0.38917 0.84911 0.0
C2925 C 0.49935 0.38285 0.80046 0.0
C2926 C 0.48505 0.37338 0.7826 0.0
C2927 C 0.48781 0.36752 0.73662 0.0
C2928 C 0.50485 0.37101 0.70817 0.0
C2929 C 0.51919 0.38037 0.72561 0.0
C2930 C 0.51651 0.38626 0.77163 0.0
C2931 C 0.5472 0.39375 0.03537 0.0
C2932 C 0.56262 0.40269 0.01926 0.0
C2933 C 0.53004 0.39104 0.006 0.0
C2934 C 0.52822 0.39714 0.96001 0.0
C2935 C 0.54386 0.40577 0.94334 0.0
C2936 C 0.56086 0.40859 0.97284 0.0
C2937 C 0.50976 0.39512 0.92935 0.0
C2938 C 0.51233 0.38931 0.88305 0.0
C2939 C 0.49012 0.39994 0.94352 0.0
C2940 C 0.48624 0.40567 0.9927 0.0
C2941 C 0.49691 0.41717 0.00899 0.0
C2942 C 0.49304 0.42245 0.05551 0.0
C2943 C 0.47837 0.4164 0.0858 0.0
C2944 C 0.46759 0.40503 0.06972 0.0
C2945 C 0.47145 0.3997 0.02331 0.0
H2946 H 0.47526 0.42054 0.12163 0.0
H2947 H 0.50694 0.36641 0.6727 0.0
H2948 H 0.67951 0.29029 0.08348 0.0
H2949 H 0.67352 0.27781 0.00899 0.0
H2950 H 0.60814 0.28529 0.0212 0.0
H2951 H 0.61423 0.2976 0.09814 0.0
H2952 H 0.61433 0.25988 0.01531 0.0
H2953 H 0.63739 0.2952 0.91199 0.0
H2954 H 0.65874 0.314 0.88173 0.0
H2955 H 0.71177 0.28821 0.87807 0.0
H2956 H 0.6907 0.26918 0.9075 0.0
H2957 H 0.61686 0.20787 0.83183 0.0
H2958 H 0.61033 0.22929 0.87319 0.0
H2959 H 0.67525 0.23316 0.90495 0.0
H2960 H 0.68195 0.21198 0.8624 0.0
H2961 H 0.66031 0.25626 0.8712 0.0
H2962 H 0.63811 0.22283 0.99191 0.0
H2963 H 0.61663 0.20386 0.02037 0.0
H2964 H 0.56185 0.22682 0.99184 0.0
H2965 H 0.58303 0.24587 0.96272 0.0
C2966 C 0.66387 0.28958 0.06971 0.0
C2967 C 0.64727 0.29464 0.09693 0.0
C2968 C 0.66047 0.28261 0.02645 0.0
C2969 C 0.64037 0.28064 0.0089 0.0
C2970 C 0.62381 0.2867 0.03393 0.0
C2971 C 0.62726 0.29374 0.07773 0.0
C2972 C 0.63688 0.27017 0.97093 0.0
C2973 C 0.62389 0.25932 0.98284 0.0
C2974 C 0.64953 0.26926 0.92884 0.0
C2975 C 0.66242 0.28075 0.91197 0.0
C2976 C 0.65362 0.29355 0.90496 0.0
C2977 C 0.66567 0.30424 0.88784 0.0
C2978 C 0.68661 0.30232 0.87821 0.0
C2979 C 0.69554 0.28968 0.88548 0.0
C2980 C 0.68351 0.27891 0.90203 0.0
C2981 C 0.62971 0.21321 0.84813 0.0
C2982 C 0.64993 0.20823 0.844 0.0
C2983 C 0.62595 0.22548 0.87165 0.0
C2984 C 0.64229 0.23282 0.89226 0.0
C2985 C 0.66242 0.22771 0.88896 0.0
C2986 C 0.66622 0.21556 0.86495 0.0
C2987 C 0.6387 0.24585 0.91745 0.0
C2988 C 0.65029 0.25709 0.9028 0.0
C2989 C 0.62478 0.24713 0.95696 0.0
C2990 C 0.61212 0.23569 0.97459 0.0
C2991 C 0.62148 0.22379 0.99139 0.0
C2992 C 0.60936 0.21303 0.00769 0.0
C2993 C 0.58789 0.21412 0.00775 0.0
C2994 C 0.57848 0.22598 0.99166 0.0
C2995 C 0.59053 0.23676 0.97529 0.0
H2996 H 0.57854 0.20578 0.02038 0.0
H2997 H 0.69589 0.31061 0.8649 0.0
H2998 H 0.92434 0.59058 0.45919 0.0
H2999 H 0.95737 0.59139 0.41691 0.0
H3000 H 0.97789 0.62319 0.51286 0.0
H3001 H 0.9446 0.62253 0.55551 0.0
H3002 H 0.99052 0.62545 0.40837 0.0
H3003 H 0.99428 0.59526 0.54395 0.0
H3004 H 0.9807 0.57751 0.5982 0.0
H3005 H 0.97958 0.54966 0.47802 0.0
H3006 H 0.99278 0.5673 0.42283 0.0
H3007 H 0.08159 0.60456 0.27578 0.0
H3008 H 0.06202 0.6115 0.34863 0.0
H3009 H 0.01864 0.57926 0.32266 0.0
H3010 H 0.03807 0.57217 0.25183 0.0
H3011 H 0.02629 0.58133 0.41688 0.0
H3012 H 0.01179 0.61318 0.28066 0.0
H3013 H 0.02247 0.63102 0.22308 0.0
H3014 H 0.04309 0.65548 0.3432 0.0
H3015 H 0.03268 0.63771 0.40139 0.0
C3016 C 0.9357 0.59792 0.47081 0.0
C3017 C 0.932 0.60635 0.51107 0.0
C3018 C 0.95456 0.59837 0.44664 0.0
C3019 C 0.97012 0.60718 0.46245 0.0
C3020 C 0.96605 0.61629 0.50039 0.0
C3021 C 0.94706 0.61588 0.52465 0.0
C3022 C 0.99099 0.60579 0.44159 0.0
C3023 C -0.00129 0.61595 0.41112 0.0
C3024 C 0.00171 0.59345 0.44578 0.0
C3025 C 0.99453 0.58263 0.47924 0.0
C3026 C 0.9911 0.58536 0.52906 0.0
C3027 C 0.98344 0.57532 0.55997 0.0
C3028 C 0.97928 0.56247 0.54157 0.0
C3029 C 0.98283 0.55961 0.49225 0.0
C3030 C 0.99045 0.56963 0.46115 0.0
C3031 C 0.06807 0.59884 0.28629 0.0
C3032 C 0.06129 0.58789 0.25775 0.0
C3033 C 0.05687 0.60285 0.3277 0.0
C3034 C 0.03875 0.59597 0.34084 0.0
C3035 C 0.03259 0.58472 0.31346 0.0
C3036 C 0.04369 0.58072 0.2726 0.0
C3037 C 0.02504 0.6006 0.38079 0.0
C3038 C 0.01867 0.59104 0.41545 0.0
C3039 C 0.01557 0.61346 0.38021 0.0
C3040 C 0.02171 0.62409 0.34521 0.0
C3041 C 0.01871 0.62234 0.29469 0.0
C3042 C 0.0247 0.63243 0.26198 0.0
C3043 C 0.03352 0.64436 0.27946 0.0
C3044 C 0.03631 0.64623 0.3297 0.0
C3045 C 0.03037 0.63615 0.36254 0.0
H3046 H 0.03814 0.65216 0.25408 0.0
H3047 H 0.97331 0.55471 0.56554 0.0
H3048 H 0.87295 0.2888 0.81252 0.0
H3049 H 0.87651 0.27585 0.88759 0.0
H3050 H 0.84458 0.30697 0.96728 0.0
H3051 H 0.84286 0.32064 0.89231 0.0
H3052 H 0.86891 0.2903 0.02905 0.0
H3053 H 0.81509 0.28498 0.90988 0.0
H3054 H 0.80186 0.2831 0.82553 0.0
H3055 H 0.83616 0.24652 0.80546 0.0
H3056 H 0.84985 0.24837 0.88952 0.0
H3057 H 0.81438 0.23815 0.16989 0.0
H3058 H 0.82094 0.25798 0.11811 0.0
H3059 H 0.86315 0.23466 0.03067 0.0
H3060 H 0.85704 0.21501 0.08235 0.0
H3061 H 0.83051 0.24922 0.97869 0.0
H3062 H 0.8836 0.25501 0.10241 0.0
H3063 H 0.8957 0.25779 0.18734 0.0
H3064 H 0.8598 0.2939 0.20145 0.0
H3065 H 0.84722 0.29122 0.11676 0.0
C3066 C 0.86773 0.29324 0.84655 0.0
C3067 C 0.85663 0.30536 0.84649 0.0
C3068 C 0.86966 0.28579 0.88944 0.0
C3069 C 0.85979 0.29013 0.93228 0.0
C3070 C 0.85182 0.30328 0.93421 0.0
C3071 C 0.85063 0.31102 0.89134 0.0
C3072 C 0.85393 0.27996 0.96951 0.0
C3073 C 0.86031 0.2814 0.01831 0.0
C3074 C 0.84244 0.2684 0.9556 0.0
C3075 C 0.8336 0.2669 0.90578 0.0
C3076 C 0.81984 0.27658 0.88736 0.0
C3077 C 0.81228 0.27552 0.83963 0.0
C3078 C 0.8182 0.2647 0.8101 0.0
C3079 C 0.8316 0.2549 0.82837 0.0
C3080 C 0.83925 0.25594 0.87609 0.0
C3081 C 0.82501 0.23728 0.13953 0.0
C3082 C 0.83514 0.22503 0.12999 0.0
C3083 C 0.82885 0.24861 0.11033 0.0
C3084 C 0.84262 0.24775 0.0709 0.0
C3085 C 0.85255 0.23551 0.06113 0.0
C3086 C 0.84902 0.2243 0.09066 0.0
C3087 C 0.84608 0.25931 0.03784 0.0
C3088 C 0.839 0.25816 0.98966 0.0
C3089 C 0.85655 0.27114 0.05277 0.0
C3090 C 0.86426 0.27282 0.10346 0.0
C3091 C 0.87812 0.26347 0.12377 0.0
C3092 C 0.88511 0.26505 0.17182 0.0
C3093 C 0.87847 0.27599 0.19983 0.0
C3094 C 0.8649 0.28541 0.17975 0.0
C3095 C 0.85784 0.28388 0.13171 0.0
H3096 H 0.88388 0.27718 0.23705 0.0
H3097 H 0.81239 0.26391 0.77309 0.0
H3098 H 0.91617 0.40134 0.04633 0.0
H3099 H 0.94416 0.39706 0.10406 0.0
H3100 H 0.98325 0.38418 0.98521 0.0
H3101 H 0.95476 0.38769 0.92769 0.0
H3102 H 0.99224 0.37002 0.06346 0.0
H3103 H 0.98543 0.4168 0.02908 0.0
H3104 H 0.96736 0.43848 0.01921 0.0
H3105 H 0.95075 0.43806 0.17118 0.0
H3106 H 0.96847 0.41628 0.18182 0.0
H3107 H 0.08152 0.38884 0.21693 0.0
H3108 H 0.05692 0.38491 0.14981 0.0
H3109 H 0.00637 0.3914 0.24948 0.0
H3110 H 0.03061 0.3955 0.31581 0.0
H3111 H 0.0073 0.40904 0.17122 0.0
H3112 H 0.01526 0.36077 0.20117 0.0
H3113 H 0.03555 0.33982 0.20608 0.0
H3114 H 0.05379 0.34444 0.05609 0.0
H3115 H 0.03381 0.36552 0.05048 0.0
C3116 C 0.93065 0.39742 0.03273 0.0
C3117 C 0.93348 0.39501 0.98271 0.0
C3118 C 0.94664 0.39501 0.06559 0.0
C3119 C 0.96599 0.39068 0.0487 0.0
C3120 C 0.96851 0.3876 -0.00101 0.0
C3121 C 0.95227 0.38966 0.9662 0.0
C3122 C 0.98383 0.39038 0.08255 0.0
C3123 C 0.9957 0.37859 0.08669 0.0
C3124 C 0.9886 0.40165 0.11221 0.0
C3125 C 0.97818 0.41486 0.10615 0.0
C3126 C 0.97785 0.4213 0.06034 0.0
C3127 C 0.96766 0.43361 0.05461 0.0
C3128 C 0.95789 0.43963 0.09452 0.0
C3129 C 0.95832 0.43338 0.14029 0.0
C3130 C 0.96846 0.42106 0.14621 0.0
C3131 C 0.06514 0.38908 0.22455 0.0
C3132 C 0.0579 0.39271 0.27118 0.0
C3133 C 0.05115 0.38682 0.18632 0.0
C3134 C 0.02988 0.38799 0.19479 0.0
C3135 C 0.02274 0.39056 0.24223 0.0
C3136 C 0.0366 0.39294 0.28001 0.0
C3137 C 0.01496 0.38847 0.15403 0.0
C3138 C 0.00385 0.40045 0.14798 0.0
C3139 C 0.01134 0.37751 0.12211 0.0
C3140 C 0.02323 0.3648 0.12558 0.0
C3141 C 0.02375 0.35739 0.16937 0.0
C3142 C 0.03516 0.34547 0.17225 0.0
C3143 C 0.04601 0.34082 0.13147 0.0
C3144 C 0.04541 0.34806 0.08767 0.0
C3145 C 0.03403 0.35998 0.08462 0.0
H3146 H 0.05483 0.33159 0.13378 0.0
H3147 H 0.95 0.44915 0.09001 0.0
H3148 H 0.64183 0.66972 0.3873 0.0
H3149 H 0.64613 0.68129 0.46592 0.0
H3150 H 0.59806 0.70911 0.4256 0.0
H3151 H 0.59478 0.69805 0.3464 0.0
H3152 H 0.63883 0.71925 0.42332 0.0
H3153 H 0.59481 0.69276 0.52781 0.0
H3154 H 0.58231 0.67292 0.573 0.0
H3155 H 0.6401 0.67019 0.64895 0.0
H3156 H 0.65329 0.68971 0.60285 0.0
H3157 H 0.63279 0.77121 0.59046 0.0
H3158 H 0.62599 0.751 0.54283 0.0
H3159 H 0.67769 0.73113 0.61074 0.0
H3160 H 0.68469 0.75151 0.6593 0.0
H3161 H 0.64063 0.71484 0.60385 0.0
H3162 H 0.6851 0.74031 0.50157 0.0
H3163 H 0.6984 0.76061 0.46031 0.0
H3164 H 0.64144 0.76467 0.38163 0.0
H3165 H 0.62766 0.74451 0.42298 0.0
C3166 C 0.63133 0.67775 0.39678 0.0
C3167 C 0.61837 0.68321 0.36077 0.0
C3168 C 0.63381 0.68438 0.44166 0.0
C3169 C 0.62269 0.69622 0.4511 0.0
C3170 C 0.6069 0.70004 0.4188 0.0
C3171 C 0.60485 0.69363 0.37365 0.0
C3172 C 0.63122 0.70653 0.48466 0.0
C3173 C 0.63897 0.7183 0.46287 0.0
C3174 C 0.63264 0.70493 0.53597 0.0
C3175 C 0.62514 0.69265 0.56134 0.0
C3176 C 0.60504 0.68778 0.55334 0.0
C3177 C 0.59779 0.67661 0.57932 0.0
C3178 C 0.61037 0.67033 0.61394 0.0
C3179 C 0.63032 0.67512 0.6223 0.0
C3180 C 0.63774 0.68618 0.59602 0.0
C3181 C 0.64282 0.7626 0.59534 0.0
C3182 C 0.65937 0.76301 0.62852 0.0
C3183 C 0.63887 0.75104 0.56809 0.0
C3184 C 0.65136 0.73961 0.57324 0.0
C3185 C 0.66786 0.73987 0.60644 0.0
C3186 C 0.67194 0.75154 0.63372 0.0
C3187 C 0.64715 0.72768 0.54234 0.0
C3188 C 0.64059 0.71562 0.56428 0.0
C3189 C 0.64706 0.72882 0.4909 0.0
C3190 C 0.6553 0.74094 0.46566 0.0
C3191 C 0.67535 0.74559 0.47575 0.0
C3192 C 0.68299 0.75706 0.4523 0.0
C3193 C 0.67076 0.76394 0.41843 0.0
C3194 C 0.65089 0.75934 0.40788 0.0
C3195 C 0.64317 0.74787 0.43127 0.0
H3196 H 0.67671 0.77282 0.40031 0.0
H3197 H 0.60469 0.66172 0.63416 0.0
H3198 H 0.57356 0.58728 0.5101 0.0
H3199 H 0.54131 0.58835 0.55576 0.0
H3200 H 0.53155 0.62907 0.50603 0.0
H3201 H 0.56386 0.62805 0.45934 0.0
H3202 H 0.524 0.62385 0.61091 0.0
H3203 H 0.50378 0.60866 0.45332 0.0
H3204 H 0.5063 0.59511 0.378 0.0
H3205 H 0.49735 0.55888 0.46114 0.0
H3206 H 0.49513 0.5722 0.53714 0.0
H3207 H 0.42692 0.61468 0.73053 0.0
H3208 H 0.44936 0.62066 0.66155 0.0
H3209 H 0.4755 0.58072 0.66404 0.0
H3210 H 0.45335 0.57473 0.73257 0.0
H3211 H 0.46983 0.59033 0.56968 0.0
H3212 H 0.49831 0.60524 0.72635 0.0
H3213 H 0.49728 0.61831 0.80307 0.0
H3214 H 0.49115 0.65499 0.7211 0.0
H3215 H 0.49187 0.64209 0.64387 0.0
C3216 C 0.5647 0.59652 0.50918 0.0
C3217 C 0.57117 0.60756 0.48097 0.0
C3218 C 0.54623 0.59709 0.53508 0.0
C3219 C 0.53401 0.60872 0.53363 0.0
C3220 C 0.54079 0.61999 0.50724 0.0
C3221 C 0.55919 0.61937 0.48068 0.0
C3222 C 0.51401 0.60879 0.55937 0.0
C3223 C 0.51185 0.61681 0.60121 0.0
C3224 C 0.49832 0.59953 0.54668 0.0
C3225 C 0.4994 0.59144 0.50102 0.0
C3226 C 0.5025 0.5978 0.45562 0.0
C3227 C 0.50386 0.59016 0.41278 0.0
C3228 C 0.50202 0.57614 0.41479 0.0
C3229 C 0.49877 0.56974 0.45965 0.0
C3230 C 0.49744 0.57734 0.50262 0.0
C3231 C 0.43714 0.60711 0.71559 0.0
C3232 C 0.43857 0.59429 0.7372 0.0
C3233 C 0.44996 0.61055 0.67636 0.0
C3234 C 0.46419 0.60116 0.65809 0.0
C3235 C 0.46462 0.5881 0.6776 0.0
C3236 C 0.45203 0.58472 0.71695 0.0
C3237 C 0.48013 0.60506 0.62215 0.0
C3238 C 0.48159 0.59773 0.57844 0.0
C3239 C 0.49518 0.61496 0.63313 0.0
C3240 C 0.49486 0.6227 0.67945 0.0
C3241 C 0.49657 0.61608 0.72474 0.0
C3242 C 0.49607 0.62346 0.76829 0.0
C3243 C 0.49407 0.63747 0.76696 0.0
C3244 C 0.49264 0.64414 0.72207 0.0
C3245 C 0.49309 0.6368 0.67841 0.0
H3246 H 0.4937 0.64317 0.80072 0.0
H3247 H 0.50308 0.57024 0.38159 0.0
H3248 H 0.17555 0.23308 0.67863 0.0
H3249 H 0.17109 0.25299 0.62667 0.0
H3250 H 0.1176 0.23473 0.56021 0.0
H3251 H 0.12192 0.21487 0.61165 0.0
H3252 H 0.14463 0.2451 0.49297 0.0
H3253 H 0.1128 0.25868 0.64471 0.0
H3254 H 0.1126 0.2629 0.73356 0.0
H3255 H 0.15997 0.29276 0.71649 0.0
H3256 H 0.16067 0.28857 0.62763 0.0
H3257 H 0.10614 0.29436 0.34982 0.0
H3258 H 0.10433 0.28065 0.42394 0.0
H3259 H 0.15607 0.30238 0.48411 0.0
H3260 H 0.15728 0.31639 0.41028 0.0
H3261 H 0.13201 0.29116 0.55719 0.0
H3262 H 0.16445 0.27771 0.40765 0.0
H3263 H 0.16684 0.27305 0.31936 0.0
H3264 H 0.11973 0.24285 0.33237 0.0
H3265 H 0.11705 0.24736 0.42082 0.0
C3266 C 0.16288 0.2333 0.65283 0.0
C3267 C 0.14911 0.22237 0.6492 0.0
C3268 C 0.16029 0.24471 0.62341 0.0
C3269 C 0.14394 0.24536 0.58985 0.0
C3270 C 0.13031 0.23443 0.58593 0.0
C3271 C 0.13279 0.22309 0.61544 0.0
C3272 C 0.1411 0.25722 0.55768 0.0
C3273 C 0.14159 0.25513 0.50703 0.0
C3274 C 0.13788 0.27038 0.5762 0.0
C3275 C 0.13705 0.27315 0.62953 0.0
C3276 C 0.12332 0.26606 0.65993 0.0
C3277 C 0.12308 0.26846 0.71032 0.0
C3278 C 0.13633 0.27805 0.7307 0.0
C3279 C 0.14976 0.2853 0.70069 0.0
C3280 C 0.15009 0.28291 0.6503 0.0
C3281 C 0.11617 0.29679 0.38029 0.0
C3282 C 0.13174 0.30648 0.37503 0.0
C3283 C 0.11532 0.28886 0.42239 0.0
C3284 C 0.13052 0.29022 0.45873 0.0
C3285 C 0.14429 0.30111 0.45639 0.0
C3286 C 0.14485 0.30922 0.41458 0.0
C3287 C 0.13469 0.27888 0.49255 0.0
C3288 C 0.13486 0.28109 0.54326 0.0
C3289 C 0.13872 0.26577 0.4742 0.0
C3290 C 0.14051 0.26292 0.42097 0.0
C3291 C 0.15463 0.27007 0.39177 0.0
C3292 C 0.15602 0.26745 0.34163 0.0
C3293 C 0.14344 0.25766 0.32021 0.0
C3294 C 0.1295 0.25042 0.34896 0.0
C3295 C 0.12806 0.25299 0.39915 0.0
H3296 H 0.14451 0.25567 0.28137 0.0
H3297 H 0.13614 0.27989 0.76972 0.0
H3298 H 0.58557 0.61589 0.23188 0.0
H3299 H 0.56306 0.61933 0.16074 0.0
H3300 H 0.54029 0.57867 0.1751 0.0
H3301 H 0.56248 0.57521 0.2461 0.0
H3302 H 0.54636 0.58664 0.07727 0.0
H3303 H 0.51437 0.60265 0.2275 0.0
H3304 H 0.51296 0.61669 0.30186 0.0
H3305 H 0.51701 0.65248 0.21413 0.0
H3306 H 0.51872 0.63861 0.13924 0.0
H3307 H 0.44399 0.5808 0.00099 0.0
H3308 H 0.4756 0.58231 0.04921 0.0
H3309 H 0.48385 0.62353 0.00329 0.0
H3310 H 0.4522 0.62207 0.95426 0.0
H3311 H 0.4893 0.61901 0.10573 0.0
H3312 H 0.51396 0.60244 0.95387 0.0
H3313 H 0.51436 0.58796 0.88063 0.0
H3314 H 0.52376 0.55308 0.97077 0.0
H3315 H 0.52307 0.56733 0.04468 0.0
C3316 C 0.57606 0.60762 0.21919 0.0
C3317 C 0.57555 0.59534 0.24476 0.0
C3318 C 0.56321 0.60961 0.17872 0.0
C3319 C 0.54994 0.59929 0.16309 0.0
C3320 C 0.55044 0.58675 0.18666 0.0
C3321 C 0.56301 0.58483 0.22738 0.0
C3322 C 0.53404 0.60177 0.12547 0.0
C3323 C 0.5339 0.59374 0.08328 0.0
C3324 C 0.51809 0.61126 0.133 0.0
C3325 C 0.51696 0.6196 0.1779 0.0
C3326 C 0.51514 0.61351 0.22412 0.0
C3327 C 0.51425 0.62143 0.26634 0.0
C3328 C 0.51497 0.63547 0.26273 0.0
C3329 C 0.51651 0.64161 0.21687 0.0
C3330 C 0.51744 0.63372 0.17453 0.0
C3331 C 0.45245 0.59021 0.00126 0.0
C3332 C 0.44565 0.60131 0.97381 0.0
C3333 C 0.47056 0.59103 0.02858 0.0
C3334 C 0.48212 0.60298 0.02921 0.0
C3335 C 0.47515 0.61421 0.00292 0.0
C3336 C 0.45711 0.61335 0.97503 0.0
C3337 C 0.50133 0.60361 0.05814 0.0
C3338 C 0.50204 0.61219 0.09884 0.0
C3339 C 0.51778 0.5946 0.04924 0.0
C3340 C 0.51833 0.58596 0.00489 0.0
C3341 C 0.51595 0.59167 0.95814 0.0
C3342 C 0.51625 0.58351 0.91648 0.0
C3343 C 0.51905 0.56961 0.92104 0.0
C3344 C 0.52159 0.56385 0.96729 0.0
C3345 C 0.52127 0.57197 0.00909 0.0
H3346 H 0.51929 0.5633 0.88875 0.0
H3347 H 0.51427 0.6416 0.29545 0.0
H3348 H 0.33807 0.75831 0.23026 0.0
H3349 H 0.33763 0.73712 0.18333 0.0
H3350 H 0.31779 0.75898 0.05521 0.0
H3351 H 0.31835 0.78004 0.10199 0.0
H3352 H 0.29726 0.73562 0.06436 0.0
H3353 H 0.36721 0.75138 0.06981 0.0
H3354 H 0.39977 0.75847 0.10866 0.0
H3355 H 0.4052 0.71977 0.17766 0.0
H3356 H 0.37246 0.71252 0.13971 0.0
H3357 H 0.36298 0.70011 0.87316 0.0
H3358 H 0.36126 0.71324 0.94824 0.0
H3359 H 0.30786 0.69051 0.99387 0.0
H3360 H 0.30954 0.67739 0.9188 0.0
H3361 H 0.36301 0.71109 0.04027 0.0
H3362 H 0.27403 0.71328 0.05644 0.0
H3363 H 0.24242 0.71083 0.00707 0.0
H3364 H 0.27669 0.71969 0.8767 0.0
H3365 H 0.30855 0.72199 0.9253 0.0
C3366 C 0.33327 0.75845 0.1923 0.0
C3367 C 0.32805 0.77063 0.16947 0.0
C3368 C 0.33314 0.74642 0.16556 0.0
C3369 C 0.32774 0.7465 0.11579 0.0
C3370 C 0.32188 0.75868 0.09362 0.0
C3371 C 0.3222 0.77068 0.1202 0.0
C3372 C 0.32905 0.73414 0.0856 0.0
C3373 C 0.31153 0.73009 0.05952 0.0
C3374 C 0.34777 0.72709 0.07904 0.0
C3375 C 0.36723 0.73149 0.10262 0.0
C3376 C 0.37521 0.74444 0.09376 0.0
C3377 C 0.39373 0.74848 0.11549 0.0
C3378 C 0.4045 0.7396 0.14579 0.0
C3379 C 0.3968 0.72665 0.15432 0.0
C3380 C 0.37826 0.72258 0.13274 0.0
C3381 C 0.35129 0.6976 0.89995 0.0
C3382 C 0.33631 0.68778 0.88973 0.0
C3383 C 0.35028 0.70514 0.94295 0.0
C3384 C 0.33422 0.70304 0.97658 0.0
C3385 C 0.3203 0.69242 0.96845 0.0
C3386 C 0.32139 0.68482 0.9255 0.0
C3387 C 0.33131 0.7128 0.01728 0.0
C3388 C 0.34851 0.7163 0.04593 0.0
C3389 C 0.31244 0.71972 0.02473 0.0
C3390 C 0.29378 0.7174 0.99443 0.0
C3391 C 0.27488 0.71442 0.01713 0.0
C3392 C 0.2569 0.71317 0.98934 0.0
C3393 C 0.25754 0.71515 0.93881 0.0
C3394 C 0.27623 0.71816 0.91587 0.0
C3395 C 0.2943 0.71933 0.9435 0.0
H3396 H 0.24356 0.71429 0.91737 0.0
H3397 H 0.41886 0.74273 0.16251 0.0
H3398 H 0.07224 0.41983 0.50586 0.0
H3399 H 0.0415 0.42155 0.5568 0.0
H3400 H 0.03543 0.37823 0.55644 0.0
H3401 H 0.0658 0.37649 0.50374 0.0
H3402 H -0.00077 0.38926 0.54145 0.0
H3403 H 0.05342 0.39601 0.65845 0.0
H3404 H 0.08504 0.40637 0.69171 0.0
H3405 H 0.05551 0.44507 0.69347 0.0
H3406 H 0.02379 0.43497 0.65963 0.0
H3407 H 0.92757 0.38841 0.74369 0.0
H3408 H 0.95438 0.38509 0.68169 0.0
H3409 H 0.96451 0.42807 0.67627 0.0
H3410 H 0.9385 0.43129 0.73962 0.0
H3411 H -0.00122 0.41594 0.69475 0.0
H3412 H 0.94409 0.40881 0.57758 0.0
H3413 H 0.91269 0.39805 0.54486 0.0
H3414 H 0.943 0.35961 0.54501 0.0
H3415 H 0.9745 0.37011 0.57833 0.0
C3416 C 0.06453 0.41066 0.51718 0.0
C3417 C 0.07148 0.39801 0.50109 0.0
C3418 C 0.04695 0.41165 0.54631 0.0
C3419 C 0.03626 0.40001 0.56093 0.0
C3420 C 0.04339 0.38735 0.54555 0.0
C3421 C 0.06082 0.38636 0.51578 0.0
C3422 C 0.01746 0.40109 0.59156 0.0
C3423 C -0.00085 0.39496 0.57533 0.0
C3424 C 0.01729 0.40868 0.63535 0.0
C3425 C 0.03629 0.41474 0.65616 0.0
C3426 C 0.05371 0.40674 0.66567 0.0
C3427 C 0.07164 0.41257 0.68465 0.0
C3428 C 0.07229 0.42637 0.6946 0.0
C3429 C 0.05499 0.43438 0.68571 0.0
C3430 C 0.03702 0.42861 0.6667 0.0
C3431 C 0.93512 0.39714 0.72803 0.0
C3432 C 0.93115 0.41009 0.74643 0.0
C3433 C 0.95043 0.39525 0.69261 0.0
C3434 C 0.96156 0.40634 0.67443 0.0
C3435 C 0.95629 0.41936 0.69006 0.0
C3436 C 0.94137 0.42121 0.72605 0.0
C3437 C 0.98032 0.40441 0.64415 0.0
C3438 C -0.00126 0.41029 0.66076 0.0
C3439 C 0.98054 0.39654 0.60097 0.0
C3440 C 0.96159 0.39023 0.58091 0.0
C3441 C 0.944 0.39805 0.57101 0.0
C3442 C 0.9262 0.39199 0.55228 0.0
C3443 C 0.92583 0.37815 0.54299 0.0
C3444 C 0.94329 0.37033 0.55228 0.0
C3445 C 0.96113 0.37633 0.57104 0.0
H3446 H 0.91203 0.37349 0.52848 0.0
H3447 H 0.08619 0.43087 0.70927 0.0
H3448 H 0.14298 0.67873 0.10347 0.0
H3449 H 0.13424 0.68897 0.0244 0.0
H3450 H 0.10905 0.72346 0.09915 0.0
H3451 H 0.11786 0.71337 0.17763 0.0
H3452 H 0.09037 0.71975 0.01086 0.0
H3453 H 0.16073 0.71975 0.07874 0.0
H3454 H 0.19305 0.70881 0.10488 0.0
H3455 H 0.20031 0.69165 0.96188 0.0
H3456 H 0.1676 0.70204 0.93538 0.0
H3457 H 0.11987 0.7811 0.9063 0.0
H3458 H 0.11246 0.76096 0.95441 0.0
H3459 H 0.14818 0.73699 0.85349 0.0
H3460 H 0.15668 0.75731 0.80715 0.0
H3461 H 0.15842 0.73038 0.93782 0.0
H3462 H 0.09252 0.7351 0.86417 0.0
H3463 H 0.06097 0.7468 0.83735 0.0
H3464 H 0.04556 0.75548 0.98675 0.0
H3465 H 0.07716 0.74401 0.01448 0.0
C3466 C 0.13449 0.68812 0.10288 0.0
C3467 C 0.13116 0.69535 0.14624 0.0
C3468 C 0.12961 0.69397 0.0578 0.0
C3469 C 0.12136 0.70704 0.05603 0.0
C3470 C 0.11547 0.71339 0.09965 0.0
C3471 C 0.1205 0.70763 0.14451 0.0
C3472 C 0.12281 0.71528 0.01112 0.0
C3473 C 0.10517 0.72203 0.99439 0.0
C3474 C 0.1421 0.71797 0.98895 0.0
C3475 C 0.16155 0.7115 0.00533 0.0
C3476 C 0.16906 0.71348 0.05308 0.0
C3477 C 0.18742 0.70735 0.06798 0.0
C3478 C 0.19861 0.69943 0.03514 0.0
C3479 C 0.19147 0.69763 0.98739 0.0
C3480 C 0.17299 0.7036 0.97247 0.0
C3481 C 0.12603 0.77151 0.89433 0.0
C3482 C 0.13894 0.77074 0.85331 0.0
C3483 C 0.12158 0.75996 0.92146 0.0
C3484 C 0.12936 0.74734 0.90705 0.0
C3485 C 0.14193 0.74657 0.86533 0.0
C3486 C 0.14684 0.75818 0.83898 0.0
C3487 C 0.12603 0.73526 0.93814 0.0
C3488 C 0.14339 0.72782 0.95252 0.0
C3489 C 0.10647 0.73193 0.95784 0.0
C3490 C 0.08728 0.73871 0.94139 0.0
C3491 C 0.08246 0.73955 0.89131 0.0
C3492 C 0.06456 0.74615 0.87594 0.0
C3493 C 0.05128 0.75188 0.91032 0.0
C3494 C 0.05585 0.75102 0.96016 0.0
C3495 C 0.07374 0.74444 0.97573 0.0
H3496 H 0.03743 0.75699 0.89833 0.0
H3497 H 0.2129 0.69477 0.0465 0.0
H3498 H 0.91548 0.61441 0.75788 0.0
H3499 H 0.93588 0.61878 0.83211 0.0
H3500 H 0.9603 0.57841 0.82535 0.0
H3501 H 0.94042 0.5741 0.7511 0.0
H3502 H 0.95001 0.58764 0.9224 0.0
H3503 H 0.98665 0.60154 0.77342 0.0
H3504 H 0.98993 0.61508 0.6982 0.0
H3505 H 0.98463 0.65146 0.78234 0.0
H3506 H 0.98102 0.63809 0.85803 0.0
H3507 H 0.05034 0.57617 0.99333 0.0
H3508 H 0.01879 0.5802 0.94718 0.0
H3509 H 0.01719 0.62122 -0.00085 0.0
H3510 H 0.04888 0.61722 0.04632 0.0
H3511 H 0.01023 0.61759 0.8947 0.0
H3512 H 0.98366 0.603 0.0464 0.0
H3513 H 0.98157 0.58905 0.12076 0.0
H3514 H 0.9679 0.5542 0.03342 0.0
H3515 H 0.97026 0.56789 0.9584 0.0
C3516 C 0.92492 0.60642 0.77293 0.0
C3517 C 0.92662 0.59398 0.74872 0.0
C3518 C 0.93651 0.60893 0.81513 0.0
C3519 C 0.94957 0.59892 0.8339 0.0
C3520 C 0.95023 0.58623 0.81141 0.0
C3521 C 0.93901 0.58382 0.76889 0.0
C3522 C 0.96431 0.60185 0.87359 0.0
C3523 C 0.96308 0.59428 0.91676 0.0
C3524 C 0.98099 0.61082 0.86655 0.0
C3525 C 0.98327 0.61883 0.82119 0.0
C3526 C 0.986 0.61242 0.77579 0.0
C3527 C 0.98795 0.62006 0.7331 0.0
C3528 C 0.98741 0.63413 0.73546 0.0
C3529 C 0.98499 0.64057 0.78055 0.0
C3530 C 0.98298 0.63297 0.82334 0.0
C3531 C 0.04337 0.58607 0.99489 0.0
C3532 C 0.05202 0.59636 0.02355 0.0
C3533 C 0.02529 0.58834 0.96873 0.0
C3534 C 0.0156 0.60095 0.97042 0.0
C3535 C 0.02444 0.6114 -0.00219 0.0
C3536 C 0.04248 0.60909 0.02463 0.0
C3537 C -0.00366 0.60296 0.94264 0.0
C3538 C -0.00324 0.61138 0.90155 0.0
C3539 C 0.97887 0.59481 0.9517 0.0
C3540 C 0.97721 0.58649 -0.00331 0.0
C3541 C 0.98034 0.59234 0.04298 0.0
C3542 C 0.97909 0.58448 0.08528 0.0
C3543 C 0.97462 0.57074 0.08182 0.0
C3544 C 0.97135 0.56485 0.03604 0.0
C3545 C 0.9726 0.57266 0.99361 0.0
H3546 H 0.97366 0.56467 0.1146 0.0
H3547 H 0.98894 0.64003 0.70238 0.0
H3548 H 0.3219 0.3214 0.5931 0.0
H3549 H 0.31583 0.30876 0.51804 0.0
H3550 H 0.3743 0.28866 0.53613 0.0
H3551 H 0.37943 0.30042 0.61389 0.0
H3552 H 0.36357 0.29382 0.436 0.0
H3553 H 0.33498 0.27705 0.58781 0.0
H3554 H 0.31269 0.27584 0.66043 0.0
H3555 H 0.25895 0.2766 0.56873 0.0
H3556 H 0.28092 0.27868 0.49559 0.0
H3557 H 0.36225 0.2258 0.36829 0.0
H3558 H 0.36401 0.2479 0.40706 0.0
H3559 H 0.30009 0.25489 0.37174 0.0
H3560 H 0.29812 0.23267 0.33301 0.0
H3561 H 0.30835 0.26019 0.46557 0.0
H3562 H 0.3369 0.27321 0.31352 0.0
H3563 H 0.35945 0.27144 0.24126 0.0
H3564 H 0.41291 0.27511 0.333 0.0
H3565 H 0.39071 0.2767 0.40592 0.0
C3566 C 0.33388 0.31475 0.5799 0.0
C3567 C 0.35114 0.31183 0.60908 0.0
C3568 C 0.33039 0.30752 0.53687 0.0
C3569 C 0.34462 0.29777 0.5215 0.0
C3570 C 0.36318 0.29619 0.54734 0.0
C3571 C 0.36622 0.30298 0.59148 0.0
C3572 C 0.33903 0.28767 0.484 0.0
C3573 C 0.35143 0.28649 0.4422 0.0
C3574 C 0.32281 0.27832 0.49168 0.0
C3575 C 0.30965 0.27837 0.53614 0.0
C3576 C 0.31843 0.2774 0.58309 0.0
C3577 C 0.30583 0.27648 0.6244 0.0
C3578 C 0.28442 0.27613 0.6192 0.0
C3579 C 0.27555 0.27686 0.57271 0.0
C3580 C 0.28806 0.27809 0.53136 0.0
C3581 C 0.34855 0.23203 0.36863 0.0
C3582 C 0.33002 0.22745 0.34774 0.0
C3583 C 0.34966 0.24474 0.39029 0.0
C3584 C 0.3323 0.25315 0.39141 0.0
C3585 C 0.31373 0.24861 0.37075 0.0
C3586 C 0.31262 0.23589 0.34888 0.0
C3587 C 0.3332 0.2661 0.41826 0.0
C3588 C 0.31999 0.26778 0.45824 0.0
C3589 C 0.34865 0.27584 0.40899 0.0
C3590 C 0.36212 0.27501 0.36524 0.0
C3591 C 0.35347 0.27355 0.31833 0.0
C3592 C 0.36619 0.27259 0.27724 0.0
C3593 C 0.3876 0.27314 0.28254 0.0
C3594 C 0.39633 0.27469 0.32895 0.0
C3595 C 0.38367 0.27564 0.37017 0.0
H3596 H 0.39742 0.27239 0.25068 0.0
H3597 H 0.2747 0.27531 0.65121 0.0
H3598 H 0.44093 0.37962 0.51315 0.0
H3599 H 0.47125 0.37909 0.45957 0.0
H3600 H 0.46809 0.42237 0.44465 0.0
H3601 H 0.43738 0.42281 0.49552 0.0
H3602 H 0.47446 0.41211 0.36078 0.0
H3603 H 0.50406 0.40315 0.52366 0.0
H3604 H 0.50923 0.38976 0.59883 0.0
H3605 H 0.52699 0.35554 0.51254 0.0
H3606 H 0.52172 0.36865 0.43698 0.0
H3607 H 0.56623 0.43405 0.27094 0.0
H3608 H 0.54124 0.42872 0.33479 0.0
H3609 H 0.55202 0.38627 0.31257 0.0
H3610 H 0.57781 0.39162 0.24976 0.0
H3611 H 0.54155 0.39216 0.40908 0.0
H3612 H 0.51499 0.40051 0.24885 0.0
H3613 H 0.51215 0.41328 0.17179 0.0
H3614 H 0.48836 0.44736 0.25028 0.0
H3615 H 0.4914 0.43487 0.32795 0.0
C3616 C 0.44672 0.38898 0.49809 0.0
C3617 C 0.43677 0.40124 0.50821 0.0
C3618 C 0.46414 0.38869 0.46789 0.0
C3619 C 0.47219 0.40072 0.44855 0.0
C3620 C 0.46219 0.41294 0.45892 0.0
C3621 C 0.44459 0.41319 0.48801 0.0
C3622 C 0.49061 0.40084 0.41626 0.0
C3623 C 0.48913 0.40784 0.37179 0.0
C3624 C 0.5096 0.3947 0.42913 0.0
C3625 C 0.51231 0.38684 0.47471 0.0
C3626 C 0.50889 0.39273 0.52076 0.0
C3627 C 0.51188 0.3852 0.56342 0.0
C3628 C 0.51842 0.37181 0.56039 0.0
C3629 C 0.52191 0.3659 0.5148 0.0
C3630 C 0.51894 0.37338 0.47209 0.0
C3631 C 0.56379 0.4236 0.28093 0.0
C3632 C 0.57371 0.41323 0.2553 0.0
C3633 C 0.54948 0.42056 0.31721 0.0
C3634 C 0.54437 0.4071 0.32729 0.0
C3635 C 0.55567 0.39672 0.30504 0.0
C3636 C 0.57039 0.39978 0.26929 0.0
C3637 C 0.52548 0.40408 0.35561 0.0
C3638 C 0.5268 0.39639 0.39845 0.0
C3639 C 0.50621 0.40943 0.34115 0.0
C3640 C 0.50354 0.41678 0.29425 0.0
C3641 C 0.5092 0.41074 0.24969 0.0
C3642 C 0.50759 0.41793 0.20592 0.0
C3643 C 0.50014 0.43114 0.20618 0.0
C3644 C 0.49415 0.43714 0.25016 0.0
C3645 C 0.4958 0.43 0.29406 0.0
H3646 H 0.49897 0.43672 0.17228 0.0
H3647 H 0.52092 0.36601 0.5933 0.0
loop_
_geom_bond_atom_site_label_1
_geom_bond_atom_site_label_2
_geom_bond_distance
_geom_bond_site_symmetry_2
_ccdc_geom_bond_type
C0 O1 1.306 . S
C0 O3 1.160 . S
O1 C0 1.306 . S
O1 Cd2 2.228 . S
Cd2 O1 2.228 . S
Cd2 O6 2.273 . S
Cd2 O10 2.277 . S
O3 C0 1.160 . S
O3 Cd4 2.203 . S
Cd4 O3 2.203 . S
Cd4 O6 2.411 . S
Cd4 O7 2.333 . S
Cd4 O8 2.352 . S
Cd4 O12 2.277 . S
Cd4 O13 2.356 . S
C5 O10 1.209 . S
C5 O12 1.226 . S
O6 Cd2 2.273 . S
O6 Cd4 2.411 . S
O6 C9 1.320 . S
O7 Cd4 2.333 . S
O7 C9 1.214 . S
O8 Cd4 2.352 . S
O8 C11 1.258 . S
C9 O6 1.320 . S
C9 O7 1.214 . S
O10 Cd2 2.277 . S
O10 C5 1.209 . S
C11 O8 1.258 . S
C11 O13 1.282 . S
O12 Cd4 2.277 . S
O12 C5 1.226 . S
O13 Cd4 2.356 . S
O13 C11 1.282 . S
C14 O15 1.306 . S
C14 O17 1.160 . S
O15 C14 1.306 . S
O15 Cd16 2.228 . S
Cd16 O15 2.228 . S
Cd16 O20 2.273 . S
Cd16 O24 2.277 . S
O17 C14 1.160 . S
O17 Cd18 2.203 . S
Cd18 O17 2.203 . S
Cd18 O20 2.411 . S
Cd18 O21 2.333 . S
Cd18 O22 2.352 . S
Cd18 O26 2.277 . S
Cd18 O27 2.356 . S
C19 O24 1.209 . S
C19 O26 1.226 . S
O20 Cd16 2.273 . S
O20 Cd18 2.411 . S
O20 C23 1.320 . S
O21 Cd18 2.333 . S
O21 C23 1.214 . S
O22 Cd18 2.352 . S
O22 C25 1.258 . S
C23 O20 1.320 . S
C23 O21 1.214 . S
O24 Cd16 2.277 . S
O24 C19 1.209 . S
C25 O22 1.258 . S
C25 O27 1.282 . S
O26 Cd18 2.277 . S
O26 C19 1.226 . S
O27 Cd18 2.356 . S
O27 C25 1.282 . S
C28 O29 1.306 . S
C28 O31 1.160 . S
O29 C28 1.306 . S
O29 Cd30 2.228 . S
Cd30 O29 2.228 . S
Cd30 O34 2.273 . S
Cd30 O38 2.277 . S
O31 C28 1.160 . S
O31 Cd32 2.203 . S
Cd32 O31 2.203 . S
Cd32 O34 2.411 . S
Cd32 O35 2.333 . S
Cd32 O36 2.352 . S
Cd32 O40 2.277 . S
Cd32 O41 2.356 . S
C33 O38 1.209 . S
C33 O40 1.226 . S
O34 Cd30 2.273 . S
O34 Cd32 2.411 . S
O34 C37 1.320 . S
O35 Cd32 2.333 . S
O35 C37 1.214 . S
O36 Cd32 2.352 . S
O36 C39 1.258 . S
C37 O34 1.320 . S
C37 O35 1.214 . S
O38 Cd30 2.277 . S
O38 C33 1.209 . S
C39 O36 1.258 . S
C39 O41 1.282 . S
O40 Cd32 2.277 . S
O40 C33 1.226 . S
O41 Cd32 2.356 . S
O41 C39 1.282 . S
C42 O43 1.306 . S
C42 O45 1.160 . S
O43 C42 1.306 . S
O43 Cd44 2.228 . S
Cd44 O43 2.228 . S
Cd44 O48 2.273 . S
Cd44 O52 2.277 . S
O45 C42 1.160 . S
O45 Cd46 2.203 . S
Cd46 O45 2.203 . S
Cd46 O48 2.411 . S
Cd46 O49 2.333 . S
Cd46 O50 2.352 . S
Cd46 O54 2.277 . S
Cd46 O55 2.356 . S
C47 O52 1.209 . S
C47 O54 1.226 . S
O48 Cd44 2.273 . S
O48 Cd46 2.411 . S
O48 C51 1.320 . S
O49 Cd46 2.333 . S
O49 C51 1.214 . S
O50 Cd46 2.352 . S
O50 C53 1.258 . S
C51 O48 1.320 . S
C51 O49 1.214 . S
O52 Cd44 2.277 . S
O52 C47 1.209 . S
C53 O50 1.258 . S
C53 O55 1.282 . S
O54 Cd46 2.277 . S
O54 C47 1.226 . S
O55 Cd46 2.356 . S
O55 C53 1.282 . S
C56 O57 1.306 . S
C56 O59 1.160 . S
O57 C56 1.306 . S
O57 Cd58 2.228 . S
Cd58 O57 2.228 . S
Cd58 O62 2.273 . S
Cd58 O66 2.277 . S
O59 C56 1.160 . S
O59 Cd60 2.203 . S
Cd60 O59 2.203 . S
Cd60 O62 2.411 . S
Cd60 O63 2.333 . S
Cd60 O64 2.352 . S
Cd60 O68 2.277 . S
Cd60 O69 2.356 . S
C61 O66 1.209 . S
C61 O68 1.226 . S
O62 Cd58 2.273 . S
O62 Cd60 2.411 . S
O62 C65 1.320 . S
O63 Cd60 2.333 . S
O63 C65 1.214 . S
O64 Cd60 2.352 . S
O64 C67 1.258 . S
C65 O62 1.320 . S
C65 O63 1.214 . S
O66 Cd58 2.277 . S
O66 C61 1.209 . S
C67 O64 1.258 . S
C67 O69 1.282 . S
O68 Cd60 2.277 . S
O68 C61 1.226 . S
O69 Cd60 2.356 . S
O69 C67 1.282 . S
C70 O71 1.306 . S
C70 O73 1.160 . S
O71 C70 1.306 . S
O71 Cd72 2.228 . S
Cd72 O71 2.228 . S
Cd72 O76 2.273 . S
Cd72 O80 2.277 . S
O73 C70 1.160 . S
O73 Cd74 2.203 . S
Cd74 O73 2.203 . S
Cd74 O76 2.411 . S
Cd74 O77 2.333 . S
Cd74 O78 2.352 . S
Cd74 O82 2.277 . S
Cd74 O83 2.356 . S
C75 O80 1.209 . S
C75 O82 1.226 . S
O76 Cd72 2.273 . S
O76 Cd74 2.411 . S
O76 C79 1.320 . S
O77 Cd74 2.333 . S
O77 C79 1.214 . S
O78 Cd74 2.352 . S
O78 C81 1.258 . S
C79 O76 1.320 . S
C79 O77 1.214 . S
O80 Cd72 2.277 . S
O80 C75 1.209 . S
C81 O78 1.258 . S
C81 O83 1.282 . S
O82 Cd74 2.277 . S
O82 C75 1.226 . S
O83 Cd74 2.356 . S
O83 C81 1.282 . S
C84 O85 1.306 . S
C84 O87 1.160 . S
O85 C84 1.306 . S
O85 Cd86 2.228 . S
Cd86 O85 2.228 . S
Cd86 O90 2.273 . S
Cd86 O94 2.277 . S
O87 C84 1.160 . S
O87 Cd88 2.203 . S
Cd88 O87 2.203 . S
Cd88 O90 2.411 . S
Cd88 O91 2.333 . S
Cd88 O92 2.352 . S
Cd88 O96 2.277 . S
Cd88 O97 2.356 . S
C89 O94 1.209 . S
C89 O96 1.226 . S
O90 Cd86 2.273 . S
O90 Cd88 2.411 . S
O90 C93 1.320 . S
O91 Cd88 2.333 . S
O91 C93 1.214 . S
O92 Cd88 2.352 . S
O92 C95 1.258 . S
C93 O90 1.320 . S
C93 O91 1.214 . S
O94 Cd86 2.277 . S
O94 C89 1.209 . S
C95 O92 1.258 . S
C95 O97 1.282 . S
O96 Cd88 2.277 . S
O96 C89 1.226 . S
O97 Cd88 2.356 . S
O97 C95 1.282 . S
C98 O99 1.306 . S
C98 O101 1.160 . S
O99 C98 1.306 . S
O99 Cd100 2.228 . S
Cd100 O99 2.228 . S
Cd100 O104 2.273 . S
Cd100 O108 2.277 . S
O101 C98 1.160 . S
O101 Cd102 2.203 . S
Cd102 O101 2.203 . S
Cd102 O104 2.411 . S
Cd102 O105 2.333 . S
Cd102 O106 2.352 . S
Cd102 O110 2.277 . S
Cd102 O111 2.356 . S
C103 O108 1.209 . S
C103 O110 1.226 . S
O104 Cd100 2.273 . S
O104 Cd102 2.411 . S
O104 C107 1.320 . S
O105 Cd102 2.333 . S
O105 C107 1.214 . S
O106 Cd102 2.352 . S
O106 C109 1.258 . S
C107 O104 1.320 . S
C107 O105 1.214 . S
O108 Cd100 2.277 . S
O108 C103 1.209 . S
C109 O106 1.258 . S
C109 O111 1.282 . S
O110 Cd102 2.277 . S
O110 C103 1.226 . S
O111 Cd102 2.356 . S
O111 C109 1.282 . S
C112 O113 1.306 . S
C112 O115 1.160 . S
O113 C112 1.306 . S
O113 Cd114 2.228 . S
Cd114 O113 2.228 . S
Cd114 O118 2.273 . S
Cd114 O122 2.277 . S
O115 C112 1.160 . S
O115 Cd116 2.203 . S
Cd116 O115 2.203 . S
Cd116 O118 2.411 . S
Cd116 O119 2.333 . S
Cd116 O120 2.352 . S
Cd116 O124 2.277 . S
Cd116 O125 2.356 . S
C117 O122 1.209 . S
C117 O124 1.226 . S
O118 Cd114 2.273 . S
O118 Cd116 2.411 . S
O118 C121 1.320 . S
O119 Cd116 2.333 . S
O119 C121 1.214 . S
O120 Cd116 2.352 . S
O120 C123 1.258 . S
C121 O118 1.320 . S
C121 O119 1.214 . S
O122 Cd114 2.277 . S
O122 C117 1.209 . S
C123 O120 1.258 . S
C123 O125 1.282 . S
O124 Cd116 2.277 . S
O124 C117 1.226 . S
O125 Cd116 2.356 . S
O125 C123 1.282 . S
C126 O127 1.306 . S
C126 O129 1.160 . S
O127 C126 1.306 . S
O127 Cd128 2.228 . S
Cd128 O127 2.228 . S
Cd128 O132 2.273 . S
Cd128 O136 2.277 . S
O129 C126 1.160 . S
O129 Cd130 2.203 . S
Cd130 O129 2.203 . S
Cd130 O132 2.411 . S
Cd130 O133 2.333 . S
Cd130 O134 2.352 . S
Cd130 O138 2.277 . S
Cd130 O139 2.356 . S
C131 O136 1.209 . S
C131 O138 1.226 . S
O132 Cd128 2.273 . S
O132 Cd130 2.411 . S
O132 C135 1.320 . S
O133 Cd130 2.333 . S
O133 C135 1.214 . S
O134 Cd130 2.352 . S
O134 C137 1.258 . S
C135 O132 1.320 . S
C135 O133 1.214 . S
O136 Cd128 2.277 . S
O136 C131 1.209 . S
C137 O134 1.258 . S
C137 O139 1.282 . S
O138 Cd130 2.277 . S
O138 C131 1.226 . S
O139 Cd130 2.356 . S
O139 C137 1.282 . S
C140 O141 1.306 . S
C140 O143 1.160 . S
O141 C140 1.306 . S
O141 Cd142 2.228 . S
Cd142 O141 2.228 . S
Cd142 O146 2.273 . S
Cd142 O150 2.277 . S
O143 C140 1.160 . S
O143 Cd144 2.203 . S
Cd144 O143 2.203 . S
Cd144 O146 2.411 . S
Cd144 O147 2.333 . S
Cd144 O148 2.352 . S
Cd144 O152 2.277 . S
Cd144 O153 2.356 . S
C145 O150 1.209 . S
C145 O152 1.226 . S
O146 Cd142 2.273 . S
O146 Cd144 2.411 . S
O146 C149 1.320 . S
O147 Cd144 2.333 . S
O147 C149 1.214 . S
O148 Cd144 2.352 . S
O148 C151 1.258 . S
C149 O146 1.320 . S
C149 O147 1.214 . S
O150 Cd142 2.277 . S
O150 C145 1.209 . S
C151 O148 1.258 . S
C151 O153 1.282 . S
O152 Cd144 2.277 . S
O152 C145 1.226 . S
O153 Cd144 2.356 . S
O153 C151 1.282 . S
C154 O155 1.306 . S
C154 O157 1.160 . S
O155 C154 1.306 . S
O155 Cd156 2.228 . S
Cd156 O155 2.228 . S
Cd156 O160 2.273 . S
Cd156 O164 2.277 . S
O157 C154 1.160 . S
O157 Cd158 2.203 . S
Cd158 O157 2.203 . S
Cd158 O160 2.411 . S
Cd158 O161 2.333 . S
Cd158 O162 2.352 . S
Cd158 O166 2.277 . S
Cd158 O167 2.356 . S
C159 O164 1.209 . S
C159 O166 1.226 . S
O160 Cd156 2.273 . S
O160 Cd158 2.411 . S
O160 C163 1.320 . S
O161 Cd158 2.333 . S
O161 C163 1.214 . S
O162 Cd158 2.352 . S
O162 C165 1.258 . S
C163 O160 1.320 . S
C163 O161 1.214 . S
O164 Cd156 2.277 . S
O164 C159 1.209 . S
C165 O162 1.258 . S
C165 O167 1.282 . S
O166 Cd158 2.277 . S
O166 C159 1.226 . S
O167 Cd158 2.356 . S
O167 C165 1.282 . S
C168 O169 1.306 . S
C168 O171 1.160 . S
O169 C168 1.306 . S
O169 Cd170 2.228 . S
Cd170 O169 2.228 . S
Cd170 O174 2.273 . S
Cd170 O178 2.277 . S
O171 C168 1.160 . S
O171 Cd172 2.203 . S
Cd172 O171 2.203 . S
Cd172 O174 2.411 . S
Cd172 O175 2.333 . S
Cd172 O176 2.352 . S
Cd172 O180 2.277 . S
Cd172 O181 2.356 . S
C173 O178 1.209 . S
C173 O180 1.226 . S
O174 Cd170 2.273 . S
O174 Cd172 2.411 . S
O174 C177 1.320 . S
O175 Cd172 2.333 . S
O175 C177 1.214 . S
O176 Cd172 2.352 . S
O176 C179 1.258 . S
C177 O174 1.320 . S
C177 O175 1.214 . S
O178 Cd170 2.277 . S
O178 C173 1.209 . S
C179 O176 1.258 . S
C179 O181 1.282 . S
O180 Cd172 2.277 . S
O180 C173 1.226 . S
O181 Cd172 2.356 . S
O181 C179 1.282 . S
C182 O183 1.306 . S
C182 O185 1.160 . S
O183 C182 1.306 . S
O183 Cd184 2.228 . S
Cd184 O183 2.228 . S
Cd184 O188 2.273 . S
Cd184 O192 2.277 . S
O185 C182 1.160 . S
O185 Cd186 2.203 . S
Cd186 O185 2.203 . S
Cd186 O188 2.411 . S
Cd186 O189 2.333 . S
Cd186 O190 2.352 . S
Cd186 O194 2.277 . S
Cd186 O195 2.356 . S
C187 O192 1.209 . S
C187 O194 1.226 . S
O188 Cd184 2.273 . S
O188 Cd186 2.411 . S
O188 C191 1.320 . S
O189 Cd186 2.333 . S
O189 C191 1.214 . S
O190 Cd186 2.352 . S
O190 C193 1.258 . S
C191 O188 1.320 . S
C191 O189 1.214 . S
O192 Cd184 2.277 . S
O192 C187 1.209 . S
C193 O190 1.258 . S
C193 O195 1.282 . S
O194 Cd186 2.277 . S
O194 C187 1.226 . S
O195 Cd186 2.356 . S
O195 C193 1.282 . S
C196 O197 1.306 . S
C196 O199 1.160 . S
O197 C196 1.306 . S
O197 Cd198 2.228 . S
Cd198 O197 2.228 . S
Cd198 O202 2.273 . S
Cd198 O206 2.277 . S
O199 C196 1.160 . S
O199 Cd200 2.203 . S
Cd200 O199 2.203 . S
Cd200 O202 2.411 . S
Cd200 O203 2.333 . S
Cd200 O204 2.352 . S
Cd200 O208 2.277 . S
Cd200 O209 2.356 . S
C201 O206 1.209 . S
C201 O208 1.226 . S
O202 Cd198 2.273 . S
O202 Cd200 2.411 . S
O202 C205 1.320 . S
O203 Cd200 2.333 . S
O203 C205 1.214 . S
O204 Cd200 2.352 . S
O204 C207 1.258 . S
C205 O202 1.320 . S
C205 O203 1.214 . S
O206 Cd198 2.277 . S
O206 C201 1.209 . S
C207 O204 1.258 . S
C207 O209 1.282 . S
O208 Cd200 2.277 . S
O208 C201 1.226 . S
O209 Cd200 2.356 . S
O209 C207 1.282 . S
C210 O211 1.306 . S
C210 O213 1.160 . S
O211 C210 1.306 . S
O211 Cd212 2.228 . S
Cd212 O211 2.228 . S
Cd212 O216 2.273 . S
Cd212 O220 2.277 . S
O213 C210 1.160 . S
O213 Cd214 2.203 . S
Cd214 O213 2.203 . S
Cd214 O216 2.411 . S
Cd214 O217 2.333 . S
Cd214 O218 2.352 . S
Cd214 O222 2.277 . S
Cd214 O223 2.356 . S
C215 O220 1.209 . S
C215 O222 1.226 . S
O216 Cd212 2.273 . S
O216 Cd214 2.411 . S
O216 C219 1.320 . S
O217 Cd214 2.333 . S
O217 C219 1.214 . S
O218 Cd214 2.352 . S
O218 C221 1.258 . S
C219 O216 1.320 . S
C219 O217 1.214 . S
O220 Cd212 2.277 . S
O220 C215 1.209 . S
C221 O218 1.258 . S
C221 O223 1.282 . S
O222 Cd214 2.277 . S
O222 C215 1.226 . S
O223 Cd214 2.356 . S
O223 C221 1.282 . S
C224 O225 1.306 . S
C224 O227 1.160 . S
O225 C224 1.306 . S
O225 Cd226 2.228 . S
Cd226 O225 2.228 . S
Cd226 O230 2.273 . S
Cd226 O234 2.277 . S
O227 C224 1.160 . S
O227 Cd228 2.203 . S
Cd228 O227 2.203 . S
Cd228 O230 2.411 . S
Cd228 O231 2.333 . S
Cd228 O232 2.352 . S
Cd228 O236 2.277 . S
Cd228 O237 2.356 . S
C229 O234 1.209 . S
C229 O236 1.226 . S
O230 Cd226 2.273 . S
O230 Cd228 2.411 . S
O230 C233 1.320 . S
O231 Cd228 2.333 . S
O231 C233 1.214 . S
O232 Cd228 2.352 . S
O232 C235 1.258 . S
C233 O230 1.320 . S
C233 O231 1.214 . S
O234 Cd226 2.277 . S
O234 C229 1.209 . S
C235 O232 1.258 . S
C235 O237 1.282 . S
O236 Cd228 2.277 . S
O236 C229 1.226 . S
O237 Cd228 2.356 . S
O237 C235 1.282 . S
C238 O239 1.306 . S
C238 O241 1.160 . S
O239 C238 1.306 . S
O239 Cd240 2.228 . S
Cd240 O239 2.228 . S
Cd240 O244 2.273 . S
Cd240 O248 2.277 . S
O241 C238 1.160 . S
O241 Cd242 2.203 . S
Cd242 O241 2.203 . S
Cd242 O244 2.411 . S
Cd242 O245 2.333 . S
Cd242 O246 2.352 . S
Cd242 O250 2.277 . S
Cd242 O251 2.356 . S
C243 O248 1.209 . S
C243 O250 1.226 . S
O244 Cd240 2.273 . S
O244 Cd242 2.411 . S
O244 C247 1.320 . S
O245 Cd242 2.333 . S
O245 C247 1.214 . S
O246 Cd242 2.352 . S
O246 C249 1.258 . S
C247 O244 1.320 . S
C247 O245 1.214 . S
O248 Cd240 2.277 . S
O248 C243 1.209 . S
C249 O246 1.258 . S
C249 O251 1.282 . S
O250 Cd242 2.277 . S
O250 C243 1.226 . S
O251 Cd242 2.356 . S
O251 C249 1.282 . S
C252 O253 1.306 . S
C252 O255 1.160 . S
O253 C252 1.306 . S
O253 Cd254 2.228 . S
Cd254 O253 2.228 . S
Cd254 O258 2.273 . S
Cd254 O262 2.277 . S
O255 C252 1.160 . S
O255 Cd256 2.203 . S
Cd256 O255 2.203 . S
Cd256 O258 2.411 . S
Cd256 O259 2.333 . S
Cd256 O260 2.352 . S
Cd256 O264 2.277 . S
Cd256 O265 2.356 . S
C257 O262 1.209 . S
C257 O264 1.226 . S
O258 Cd254 2.273 . S
O258 Cd256 2.411 . S
O258 C261 1.320 . S
O259 Cd256 2.333 . S
O259 C261 1.214 . S
O260 Cd256 2.352 . S
O260 C263 1.258 . S
C261 O258 1.320 . S
C261 O259 1.214 . S
O262 Cd254 2.277 . S
O262 C257 1.209 . S
C263 O260 1.258 . S
C263 O265 1.282 . S
O264 Cd256 2.277 . S
O264 C257 1.226 . S
O265 Cd256 2.356 . S
O265 C263 1.282 . S
C266 O267 1.306 . S
C266 O269 1.160 . S
O267 C266 1.306 . S
O267 Cd268 2.228 . S
Cd268 O267 2.228 . S
Cd268 O272 2.273 . S
Cd268 O276 2.277 . S
O269 C266 1.160 . S
O269 Cd270 2.203 . S
Cd270 O269 2.203 . S
Cd270 O272 2.411 . S
Cd270 O273 2.333 . S
Cd270 O274 2.352 . S
Cd270 O278 2.277 . S
Cd270 O279 2.356 . S
C271 O276 1.209 . S
C271 O278 1.226 . S
O272 Cd268 2.273 . S
O272 Cd270 2.411 . S
O272 C275 1.320 . S
O273 Cd270 2.333 . S
O273 C275 1.214 . S
O274 Cd270 2.352 . S
O274 C277 1.258 . S
C275 O272 1.320 . S
C275 O273 1.214 . S
O276 Cd268 2.277 . S
O276 C271 1.209 . S
C277 O274 1.258 . S
C277 O279 1.282 . S
O278 Cd270 2.277 . S
O278 C271 1.226 . S
O279 Cd270 2.356 . S
O279 C277 1.282 . S
C280 O281 1.306 . S
C280 O283 1.160 . S
O281 C280 1.306 . S
O281 Cd282 2.228 . S
Cd282 O281 2.228 . S
Cd282 O286 2.273 . S
Cd282 O290 2.277 . S
O283 C280 1.160 . S
O283 Cd284 2.203 . S
Cd284 O283 2.203 . S
Cd284 O286 2.411 . S
Cd284 O287 2.333 . S
Cd284 O288 2.352 . S
Cd284 O292 2.277 . S
Cd284 O293 2.356 . S
C285 O290 1.209 . S
C285 O292 1.226 . S
O286 Cd282 2.273 . S
O286 Cd284 2.411 . S
O286 C289 1.320 . S
O287 Cd284 2.333 . S
O287 C289 1.214 . S
O288 Cd284 2.352 . S
O288 C291 1.258 . S
C289 O286 1.320 . S
C289 O287 1.214 . S
O290 Cd282 2.277 . S
O290 C285 1.209 . S
C291 O288 1.258 . S
C291 O293 1.282 . S
O292 Cd284 2.277 . S
O292 C285 1.226 . S
O293 Cd284 2.356 . S
O293 C291 1.282 . S
C294 O295 1.306 . S
C294 O297 1.160 . S
O295 C294 1.306 . S
O295 Cd296 2.228 . S
Cd296 O295 2.228 . S
Cd296 O300 2.273 . S
Cd296 O304 2.277 . S
O297 C294 1.160 . S
O297 Cd298 2.203 . S
Cd298 O297 2.203 . S
Cd298 O300 2.411 . S
Cd298 O301 2.333 . S
Cd298 O302 2.352 . S
Cd298 O306 2.277 . S
Cd298 O307 2.356 . S
C299 O304 1.209 . S
C299 O306 1.226 . S
O300 Cd296 2.273 . S
O300 Cd298 2.411 . S
O300 C303 1.320 . S
O301 Cd298 2.333 . S
O301 C303 1.214 . S
O302 Cd298 2.352 . S
O302 C305 1.258 . S
C303 O300 1.320 . S
C303 O301 1.214 . S
O304 Cd296 2.277 . S
O304 C299 1.209 . S
C305 O302 1.258 . S
C305 O307 1.282 . S
O306 Cd298 2.277 . S
O306 C299 1.226 . S
O307 Cd298 2.356 . S
O307 C305 1.282 . S
C308 O309 1.306 . S
C308 O311 1.160 . S
O309 C308 1.306 . S
O309 Cd310 2.228 . S
Cd310 O309 2.228 . S
Cd310 O314 2.273 . S
Cd310 O318 2.277 . S
O311 C308 1.160 . S
O311 Cd312 2.203 . S
Cd312 O311 2.203 . S
Cd312 O314 2.411 . S
Cd312 O315 2.333 . S
Cd312 O316 2.352 . S
Cd312 O320 2.277 . S
Cd312 O321 2.356 . S
C313 O318 1.209 . S
C313 O320 1.226 . S
O314 Cd310 2.273 . S
O314 Cd312 2.411 . S
O314 C317 1.320 . S
O315 Cd312 2.333 . S
O315 C317 1.214 . S
O316 Cd312 2.352 . S
O316 C319 1.258 . S
C317 O314 1.320 . S
C317 O315 1.214 . S
O318 Cd310 2.277 . S
O318 C313 1.209 . S
C319 O316 1.258 . S
C319 O321 1.282 . S
O320 Cd312 2.277 . S
O320 C313 1.226 . S
O321 Cd312 2.356 . S
O321 C319 1.282 . S
C322 O323 1.306 . S
C322 O325 1.160 . S
O323 C322 1.306 . S
O323 Cd324 2.228 . S
Cd324 O323 2.228 . S
Cd324 O328 2.273 . S
Cd324 O332 2.277 . S
O325 C322 1.160 . S
O325 Cd326 2.203 . S
Cd326 O325 2.203 . S
Cd326 O328 2.411 . S
Cd326 O329 2.333 . S
Cd326 O330 2.352 . S
Cd326 O334 2.277 . S
Cd326 O335 2.356 . S
C327 O332 1.209 . S
C327 O334 1.226 . S
O328 Cd324 2.273 . S
O328 Cd326 2.411 . S
O328 C331 1.320 . S
O329 Cd326 2.333 . S
O329 C331 1.214 . S
O330 Cd326 2.352 . S
O330 C333 1.258 . S
C331 O328 1.320 . S
C331 O329 1.214 . S
O332 Cd324 2.277 . S
O332 C327 1.209 . S
C333 O330 1.258 . S
C333 O335 1.282 . S
O334 Cd326 2.277 . S
O334 C327 1.226 . S
O335 Cd326 2.356 . S
O335 C333 1.282 . S
C336 O337 1.306 . S
C336 O339 1.160 . S
O337 C336 1.306 . S
O337 Cd338 2.228 . S
Cd338 O337 2.228 . S
Cd338 O342 2.273 . S
Cd338 O346 2.277 . S
O339 C336 1.160 . S
O339 Cd340 2.203 . S
Cd340 O339 2.203 . S
Cd340 O342 2.411 . S
Cd340 O343 2.333 . S
Cd340 O344 2.352 . S
Cd340 O348 2.277 . S
Cd340 O349 2.356 . S
C341 O346 1.209 . S
C341 O348 1.226 . S
O342 Cd338 2.273 . S
O342 Cd340 2.411 . S
O342 C345 1.320 . S
O343 Cd340 2.333 . S
O343 C345 1.214 . S
O344 Cd340 2.352 . S
O344 C347 1.258 . S
C345 O342 1.320 . S
C345 O343 1.214 . S
O346 Cd338 2.277 . S
O346 C341 1.209 . S
C347 O344 1.258 . S
C347 O349 1.282 . S
O348 Cd340 2.277 . S
O348 C341 1.226 . S
O349 Cd340 2.356 . S
O349 C347 1.282 . S
C350 O351 1.306 . S
C350 O353 1.160 . S
O351 C350 1.306 . S
O351 Cd352 2.228 . S
Cd352 O351 2.228 . S
Cd352 O356 2.273 . S
Cd352 O360 2.277 . S
O353 C350 1.160 . S
O353 Cd354 2.203 . S
Cd354 O353 2.203 . S
Cd354 O356 2.411 . S
Cd354 O357 2.333 . S
Cd354 O358 2.352 . S
Cd354 O362 2.277 . S
Cd354 O363 2.356 . S
C355 O360 1.209 . S
C355 O362 1.226 . S
O356 Cd352 2.273 . S
O356 Cd354 2.411 . S
O356 C359 1.320 . S
O357 Cd354 2.333 . S
O357 C359 1.214 . S
O358 Cd354 2.352 . S
O358 C361 1.258 . S
C359 O356 1.320 . S
C359 O357 1.214 . S
O360 Cd352 2.277 . S
O360 C355 1.209 . S
C361 O358 1.258 . S
C361 O363 1.282 . S
O362 Cd354 2.277 . S
O362 C355 1.226 . S
O363 Cd354 2.356 . S
O363 C361 1.282 . S
C364 O365 1.306 . S
C364 O367 1.160 . S
O365 C364 1.306 . S
O365 Cd366 2.228 . S
Cd366 O365 2.228 . S
Cd366 O370 2.273 . S
Cd366 O374 2.277 . S
O367 C364 1.160 . S
O367 Cd368 2.203 . S
Cd368 O367 2.203 . S
Cd368 O370 2.411 . S
Cd368 O371 2.333 . S
Cd368 O372 2.352 . S
Cd368 O376 2.277 . S
Cd368 O377 2.356 . S
C369 O374 1.209 . S
C369 O376 1.226 . S
O370 Cd366 2.273 . S
O370 Cd368 2.411 . S
O370 C373 1.320 . S
O371 Cd368 2.333 . S
O371 C373 1.214 . S
O372 Cd368 2.352 . S
O372 C375 1.258 . S
C373 O370 1.320 . S
C373 O371 1.214 . S
O374 Cd366 2.277 . S
O374 C369 1.209 . S
C375 O372 1.258 . S
C375 O377 1.282 . S
O376 Cd368 2.277 . S
O376 C369 1.226 . S
O377 Cd368 2.356 . S
O377 C375 1.282 . S
C378 O379 1.306 . S
C378 O381 1.160 . S
O379 C378 1.306 . S
O379 Cd380 2.228 . S
Cd380 O379 2.228 . S
Cd380 O384 2.273 . S
Cd380 O388 2.277 . S
O381 C378 1.160 . S
O381 Cd382 2.203 . S
Cd382 O381 2.203 . S
Cd382 O384 2.411 . S
Cd382 O385 2.333 . S
Cd382 O386 2.352 . S
Cd382 O390 2.277 . S
Cd382 O391 2.356 . S
C383 O388 1.209 . S
C383 O390 1.226 . S
O384 Cd380 2.273 . S
O384 Cd382 2.411 . S
O384 C387 1.320 . S
O385 Cd382 2.333 . S
O385 C387 1.214 . S
O386 Cd382 2.352 . S
O386 C389 1.258 . S
C387 O384 1.320 . S
C387 O385 1.214 . S
O388 Cd380 2.277 . S
O388 C383 1.209 . S
C389 O386 1.258 . S
C389 O391 1.282 . S
O390 Cd382 2.277 . S
O390 C383 1.226 . S
O391 Cd382 2.356 . S
O391 C389 1.282 . S
C392 O393 1.306 . S
C392 O395 1.160 . S
O393 C392 1.306 . S
O393 Cd394 2.228 . S
Cd394 O393 2.228 . S
Cd394 O398 2.273 . S
Cd394 O402 2.277 . S
O395 C392 1.160 . S
O395 Cd396 2.203 . S
Cd396 O395 2.203 . S
Cd396 O398 2.411 . S
Cd396 O399 2.333 . S
Cd396 O400 2.352 . S
Cd396 O404 2.277 . S
Cd396 O405 2.356 . S
C397 O402 1.209 . S
C397 O404 1.226 . S
O398 Cd394 2.273 . S
O398 Cd396 2.411 . S
O398 C401 1.320 . S
O399 Cd396 2.333 . S
O399 C401 1.214 . S
O400 Cd396 2.352 . S
O400 C403 1.258 . S
C401 O398 1.320 . S
C401 O399 1.214 . S
O402 Cd394 2.277 . S
O402 C397 1.209 . S
C403 O400 1.258 . S
C403 O405 1.282 . S
O404 Cd396 2.277 . S
O404 C397 1.226 . S
O405 Cd396 2.356 . S
O405 C403 1.282 . S
C406 O407 1.306 . S
C406 O409 1.160 . S
O407 C406 1.306 . S
O407 Cd408 2.228 . S
Cd408 O407 2.228 . S
Cd408 O412 2.273 . S
Cd408 O416 2.277 . S
O409 C406 1.160 . S
O409 Cd410 2.203 . S
Cd410 O409 2.203 . S
Cd410 O412 2.411 . S
Cd410 O413 2.333 . S
Cd410 O414 2.352 . S
Cd410 O418 2.277 . S
Cd410 O419 2.356 . S
C411 O416 1.209 . S
C411 O418 1.226 . S
O412 Cd408 2.273 . S
O412 Cd410 2.411 . S
O412 C415 1.320 . S
O413 Cd410 2.333 . S
O413 C415 1.214 . S
O414 Cd410 2.352 . S
O414 C417 1.258 . S
C415 O412 1.320 . S
C415 O413 1.214 . S
O416 Cd408 2.277 . S
O416 C411 1.209 . S
C417 O414 1.258 . S
C417 O419 1.282 . S
O418 Cd410 2.277 . S
O418 C411 1.226 . S
O419 Cd410 2.356 . S
O419 C417 1.282 . S
C420 O421 1.306 . S
C420 O423 1.160 . S
O421 C420 1.306 . S
O421 Cd422 2.228 . S
Cd422 O421 2.228 . S
Cd422 O426 2.273 . S
Cd422 O430 2.277 . S
O423 C420 1.160 . S
O423 Cd424 2.203 . S
Cd424 O423 2.203 . S
Cd424 O426 2.411 . S
Cd424 O427 2.333 . S
Cd424 O428 2.352 . S
Cd424 O432 2.277 . S
Cd424 O433 2.356 . S
C425 O430 1.209 . S
C425 O432 1.226 . S
O426 Cd422 2.273 . S
O426 Cd424 2.411 . S
O426 C429 1.320 . S
O427 Cd424 2.333 . S
O427 C429 1.214 . S
O428 Cd424 2.352 . S
O428 C431 1.258 . S
C429 O426 1.320 . S
C429 O427 1.214 . S
O430 Cd422 2.277 . S
O430 C425 1.209 . S
C431 O428 1.258 . S
C431 O433 1.282 . S
O432 Cd424 2.277 . S
O432 C425 1.226 . S
O433 Cd424 2.356 . S
O433 C431 1.282 . S
C434 O435 1.306 . S
C434 O437 1.160 . S
O435 C434 1.306 . S
O435 Cd436 2.228 . S
Cd436 O435 2.228 . S
Cd436 O440 2.273 . S
Cd436 O444 2.277 . S
O437 C434 1.160 . S
O437 Cd438 2.203 . S
Cd438 O437 2.203 . S
Cd438 O440 2.411 . S
Cd438 O441 2.333 . S
Cd438 O442 2.352 . S
Cd438 O446 2.277 . S
Cd438 O447 2.356 . S
C439 O444 1.209 . S
C439 O446 1.226 . S
O440 Cd436 2.273 . S
O440 Cd438 2.411 . S
O440 C443 1.320 . S
O441 Cd438 2.333 . S
O441 C443 1.214 . S
O442 Cd438 2.352 . S
O442 C445 1.258 . S
C443 O440 1.320 . S
C443 O441 1.214 . S
O444 Cd436 2.277 . S
O444 C439 1.209 . S
C445 O442 1.258 . S
C445 O447 1.282 . S
O446 Cd438 2.277 . S
O446 C439 1.226 . S
O447 Cd438 2.356 . S
O447 C445 1.282 . S
H448 C466 0.951 . S
H449 C468 0.951 . S
H450 C470 0.950 . S
H451 C471 0.950 . S
H452 C473 0.950 . S
H453 C476 0.950 . S
H454 C477 0.950 . S
H455 C479 0.950 . S
H456 C480 0.950 . S
H457 C481 0.951 . S
H458 C483 0.951 . S
H459 C485 0.950 . S
H460 C486 0.950 . S
H461 C488 0.950 . S
H462 C491 0.950 . S
H463 C492 0.950 . S
H464 C494 0.950 . S
H465 C495 0.950 . S
C466 H448 0.951 . S
C466 C467 1.366 . S
C466 C468 1.388 . S
C467 C466 1.366 . S
C467 C471 1.385 . S
C468 H449 0.951 . S
C468 C466 1.388 . S
C468 C469 1.366 . S
C469 C468 1.366 . S
C469 C470 1.414 . S
C469 C472 1.499 . S
C470 H450 0.950 . S
C470 C469 1.414 . S
C470 C471 1.374 . S
C471 H451 0.950 . S
C471 C467 1.385 . S
C471 C470 1.374 . S
C472 C469 1.499 . S
C472 C473 1.373 . S
C472 C474 1.389 . S
C473 H452 0.950 . S
C473 C472 1.373 . S
C473 C489 1.377 . S
C474 C472 1.389 . S
C474 C475 1.524 . S
C474 C488 1.377 . S
C475 C474 1.524 . S
C475 C476 1.397 . S
C475 C480 1.363 . S
C476 H453 0.950 . S
C476 C475 1.397 . S
C476 C477 1.334 . S
C477 H454 0.950 . S
C477 C476 1.334 . S
C477 C478 1.287 . S
C478 C477 1.287 . S
C478 C479 1.524 . S
C478 H497 0.913 . S
C479 H455 0.950 . S
C479 C478 1.524 . S
C479 C480 1.415 . S
C480 H456 0.950 . S
C480 C475 1.363 . S
C480 C479 1.415 . S
C481 H457 0.951 . S
C481 C482 1.366 . S
C481 C483 1.388 . S
C482 C481 1.366 . S
C482 C486 1.385 . S
C483 H458 0.951 . S
C483 C481 1.388 . S
C483 C484 1.366 . S
C484 C483 1.366 . S
C484 C485 1.414 . S
C484 C487 1.499 . S
C485 H459 0.950 . S
C485 C484 1.414 . S
C485 C486 1.374 . S
C486 H460 0.950 . S
C486 C482 1.385 . S
C486 C485 1.374 . S
C487 C484 1.499 . S
C487 C488 1.373 . S
C487 C489 1.389 . S
C488 H461 0.950 . S
C488 C474 1.377 . S
C488 C487 1.373 . S
C489 C473 1.377 . S
C489 C487 1.389 . S
C489 C490 1.524 . S
C490 C489 1.524 . S
C490 C491 1.397 . S
C490 C495 1.363 . S
C491 H462 0.950 . S
C491 C490 1.397 . S
C491 C492 1.334 . S
C492 H463 0.950 . S
C492 C491 1.334 . S
C492 C493 1.287 . S
C493 C492 1.287 . S
C493 C494 1.524 . S
C493 H496 0.999 . S
C494 H464 0.950 . S
C494 C493 1.524 . S
C494 C495 1.415 . S
C495 H465 0.950 . S
C495 C490 1.363 . S
C495 C494 1.415 . S
H496 C493 0.999 . S
H497 C478 0.913 . S
H498 C516 0.951 . S
H499 C518 0.951 . S
H500 C520 0.950 . S
H501 C521 0.950 . S
H502 C523 0.950 . S
H503 C526 0.950 . S
H504 C527 0.950 . S
H505 C529 0.950 . S
H506 C530 0.950 . S
H507 C531 0.951 . S
H508 C533 0.951 . S
H509 C535 0.950 . S
H510 C536 0.950 . S
H511 C538 0.950 . S
H512 C541 0.950 . S
H513 C542 0.950 . S
H514 C544 0.950 . S
H515 C545 0.950 . S
C516 H498 0.951 . S
C516 C517 1.366 . S
C516 C518 1.388 . S
C517 C516 1.366 . S
C517 C521 1.385 . S
C518 H499 0.951 . S
C518 C516 1.388 . S
C518 C519 1.366 . S
C519 C518 1.366 . S
C519 C520 1.414 . S
C519 C522 1.499 . S
C520 H500 0.950 . S
C520 C519 1.414 . S
C520 C521 1.374 . S
C521 H501 0.950 . S
C521 C517 1.385 . S
C521 C520 1.374 . S
C522 C519 1.499 . S
C522 C523 1.373 . S
C522 C524 1.389 . S
C523 H502 0.950 . S
C523 C522 1.373 . S
C523 C539 1.377 1_565 S
C524 C522 1.389 . S
C524 C525 1.524 . S
C524 C538 1.377 1_565 S
C525 C524 1.524 . S
C525 C526 1.397 . S
C525 C530 1.363 . S
C526 H503 0.950 . S
C526 C525 1.397 . S
C526 C527 1.334 . S
C527 H504 0.950 . S
C527 C526 1.334 . S
C527 C528 1.287 . S
C528 C527 1.287 . S
C528 C529 1.524 . S
C528 H547 0.913 . S
C529 H505 0.950 . S
C529 C528 1.524 . S
C529 C530 1.415 . S
C530 H506 0.950 . S
C530 C525 1.363 . S
C530 C529 1.415 . S
C531 H507 0.951 . S
C531 C532 1.366 . S
C531 C533 1.388 . S
C532 C531 1.366 . S
C532 C536 1.385 . S
C533 H508 0.951 . S
C533 C531 1.388 . S
C533 C534 1.366 . S
C534 C533 1.366 . S
C534 C535 1.414 . S
C534 C537 1.499 . S
C535 H509 0.950 . S
C535 C534 1.414 . S
C535 C536 1.374 . S
C536 H510 0.950 . S
C536 C532 1.385 . S
C536 C535 1.374 . S
C537 C534 1.499 . S
C537 C538 1.373 . S
C537 C539 1.389 . S
C538 H511 0.950 . S
C538 C524 1.377 1_545 S
C538 C537 1.373 . S
C539 C523 1.377 1_545 S
C539 C537 1.389 . S
C539 C540 1.524 . S
C540 C539 1.524 . S
C540 C541 1.397 . S
C540 C545 1.363 . S
C541 H512 0.950 . S
C541 C540 1.397 . S
C541 C542 1.334 . S
C542 H513 0.950 . S
C542 C541 1.334 . S
C542 C543 1.287 . S
C543 C542 1.287 . S
C543 C544 1.524 . S
C543 H546 0.999 . S
C544 H514 0.950 . S
C544 C543 1.524 . S
C544 C545 1.415 . S
C545 H515 0.950 . S
C545 C540 1.363 . S
C545 C544 1.415 . S
H546 C543 0.999 . S
H547 C528 0.913 . S
H548 C566 0.951 . S
H549 C568 0.951 . S
H550 C570 0.950 . S
H551 C571 0.950 . S
H552 C573 0.950 . S
H553 C576 0.950 . S
H554 C577 0.950 . S
H555 C579 0.950 . S
H556 C580 0.950 . S
H557 C581 0.951 . S
H558 C583 0.951 . S
H559 C585 0.950 . S
H560 C586 0.950 . S
H561 C588 0.950 . S
H562 C591 0.950 . S
H563 C592 0.950 . S
H564 C594 0.950 . S
H565 C595 0.950 . S
C566 H548 0.951 . S
C566 C567 1.366 . S
C566 C568 1.388 . S
C567 C566 1.366 . S
C567 C571 1.385 . S
C568 H549 0.951 . S
C568 C566 1.388 . S
C568 C569 1.366 . S
C569 C568 1.366 . S
C569 C570 1.414 . S
C569 C572 1.499 . S
C570 H550 0.950 . S
C570 C569 1.414 . S
C570 C571 1.374 . S
C571 H551 0.950 . S
C571 C567 1.385 . S
C571 C570 1.374 . S
C572 C569 1.499 . S
C572 C573 1.373 1_554 S
C572 C574 1.389 . S
C573 H552 0.950 . S
C573 C572 1.373 1_556 S
C573 C589 1.377 . S
C574 C572 1.389 . S
C574 C575 1.524 . S
C574 C588 1.377 . S
C575 C574 1.524 . S
C575 C576 1.397 . S
C575 C580 1.363 . S
C576 H553 0.950 . S
C576 C575 1.397 . S
C576 C577 1.334 . S
C577 H554 0.950 . S
C577 C576 1.334 . S
C577 C578 1.287 . S
C578 C577 1.287 . S
C578 C579 1.524 . S
C578 H597 0.913 . S
C579 H555 0.950 . S
C579 C578 1.524 . S
C579 C580 1.415 . S
C580 H556 0.950 . S
C580 C575 1.363 . S
C580 C579 1.415 . S
C581 H557 0.951 . S
C581 C582 1.366 . S
C581 C583 1.388 . S
C582 C581 1.366 . S
C582 C586 1.385 . S
C583 H558 0.951 . S
C583 C581 1.388 . S
C583 C584 1.366 . S
C584 C583 1.366 . S
C584 C585 1.414 . S
C584 C587 1.499 . S
C585 H559 0.950 . S
C585 C584 1.414 . S
C585 C586 1.374 . S
C586 H560 0.950 . S
C586 C582 1.385 . S
C586 C585 1.374 . S
C587 C584 1.499 . S
C587 C588 1.373 1_556 S
C587 C589 1.389 . S
C588 H561 0.950 . S
C588 C574 1.377 . S
C588 C587 1.373 1_554 S
C589 C573 1.377 . S
C589 C587 1.389 . S
C589 C590 1.524 . S
C590 C589 1.524 . S
C590 C591 1.397 . S
C590 C595 1.363 . S
C591 H562 0.950 . S
C591 C590 1.397 . S
C591 C592 1.334 . S
C592 H563 0.950 . S
C592 C591 1.334 . S
C592 C593 1.287 . S
C593 C592 1.287 . S
C593 C594 1.524 . S
C593 H596 0.999 . S
C594 H564 0.950 . S
C594 C593 1.524 . S
C594 C595 1.415 . S
C595 H565 0.950 . S
C595 C590 1.363 . S
C595 C594 1.415 . S
H596 C593 0.999 . S
H597 C578 0.913 . S
H598 C616 0.951 . S
H599 C618 0.951 . S
H600 C620 0.950 . S
H601 C621 0.950 . S
H602 C623 0.950 . S
H603 C626 0.950 . S
H604 C627 0.950 . S
H605 C629 0.950 . S
H606 C630 0.946 . S
H607 C631 0.951 . S
H608 C633 0.951 . S
H609 C635 0.950 . S
H610 C636 0.950 . S
H611 C638 0.950 . S
H612 C641 0.950 . S
H613 C642 0.950 . S
H614 C644 0.950 . S
H615 C645 0.946 . S
C616 H598 0.951 . S
C616 C617 1.366 . S
C616 C618 1.388 . S
C617 C616 1.366 . S
C617 C621 1.385 . S
C618 H599 0.951 . S
C618 C616 1.388 . S
C618 C619 1.366 . S
C619 C618 1.366 . S
C619 C620 1.414 . S
C619 C622 1.499 . S
C620 H600 0.950 . S
C620 C619 1.414 . S
C620 C621 1.374 . S
C621 H601 0.950 . S
C621 C617 1.385 . S
C621 C620 1.374 . S
C622 C619 1.499 . S
C622 C623 1.373 . S
C622 C624 1.389 . S
C623 H602 0.950 . S
C623 C622 1.373 . S
C623 C639 1.377 1_545 S
C624 C622 1.389 . S
C624 C625 1.524 . S
C624 C638 1.377 1_545 S
C625 C624 1.524 . S
C625 C626 1.397 . S
C625 C630 1.363 . S
C626 H603 0.950 . S
C626 C625 1.397 . S
C626 C627 1.334 . S
C627 H604 0.950 . S
C627 C626 1.334 . S
C627 C628 1.287 . S
C628 C627 1.287 . S
C628 C629 1.524 . S
C628 H647 0.913 . S
C629 H605 0.950 . S
C629 C628 1.524 . S
C629 C630 1.415 . S
C630 H606 0.946 . S
C630 C625 1.363 . S
C630 C629 1.415 . S
C631 H607 0.951 . S
C631 C632 1.366 . S
C631 C633 1.388 . S
C632 C631 1.366 . S
C632 C636 1.385 . S
C633 H608 0.951 . S
C633 C631 1.388 . S
C633 C634 1.366 . S
C634 C633 1.366 . S
C634 C635 1.414 . S
C634 C637 1.499 . S
C635 H609 0.950 . S
C635 C634 1.414 . S
C635 C636 1.374 . S
C636 H610 0.950 . S
C636 C632 1.385 . S
C636 C635 1.374 . S
C637 C634 1.499 . S
C637 C638 1.373 . S
C637 C639 1.389 . S
C638 H611 0.950 . S
C638 C624 1.377 1_565 S
C638 C637 1.373 . S
C639 C623 1.377 1_565 S
C639 C637 1.389 . S
C639 C640 1.524 . S
C640 C639 1.524 . S
C640 C641 1.397 . S
C640 C645 1.363 . S
C641 H612 0.950 . S
C641 C640 1.397 . S
C641 C642 1.334 . S
C642 H613 0.950 . S
C642 C641 1.334 . S
C642 C643 1.287 . S
C643 C642 1.287 . S
C643 C644 1.524 . S
C643 H646 0.999 . S
C644 H614 0.950 . S
C644 C643 1.524 . S
C644 C645 1.415 . S
C645 H615 0.946 . S
C645 C640 1.363 . S
C645 C644 1.415 . S
H646 C643 0.999 . S
H647 C628 0.913 . S
H648 C666 0.951 . S
H649 C668 0.951 . S
H650 C670 0.950 . S
H651 C671 0.950 . S
H652 C673 0.950 . S
H653 C676 0.950 . S
H654 C677 0.950 . S
H655 C679 0.950 . S
H656 C680 0.950 . S
H657 C681 0.951 . S
H658 C683 0.951 . S
H659 C685 0.950 . S
H660 C686 0.950 . S
H661 C688 0.950 . S
H662 C691 0.950 . S
H663 C692 0.950 . S
H664 C694 0.950 . S
H665 C695 0.950 . S
C666 H648 0.951 . S
C666 C667 1.366 . S
C666 C668 1.388 . S
C667 C666 1.366 . S
C667 C671 1.385 . S
C668 H649 0.951 . S
C668 C666 1.388 . S
C668 C669 1.366 . S
C669 C668 1.366 . S
C669 C670 1.414 . S
C669 C672 1.499 . S
C670 H650 0.950 . S
C670 C669 1.414 . S
C670 C671 1.374 . S
C671 H651 0.950 . S
C671 C667 1.385 . S
C671 C670 1.374 . S
C672 C669 1.499 . S
C672 C673 1.373 . S
C672 C674 1.389 . S
C673 H652 0.950 . S
C673 C672 1.373 . S
C673 C689 1.377 . S
C674 C672 1.389 . S
C674 C675 1.524 . S
C674 C688 1.377 . S
C675 C674 1.524 . S
C675 C676 1.397 . S
C675 C680 1.363 . S
C676 H653 0.950 . S
C676 C675 1.397 . S
C676 C677 1.334 . S
C677 H654 0.950 . S
C677 C676 1.334 . S
C677 C678 1.287 . S
C678 C677 1.287 . S
C678 C679 1.524 . S
C678 H697 0.913 . S
C679 H655 0.950 . S
C679 C678 1.524 . S
C679 C680 1.415 . S
C680 H656 0.950 . S
C680 C675 1.363 . S
C680 C679 1.415 . S
C681 H657 0.951 . S
C681 C682 1.366 . S
C681 C683 1.388 . S
C682 C681 1.366 . S
C682 C686 1.385 . S
C683 H658 0.951 . S
C683 C681 1.388 . S
C683 C684 1.366 . S
C684 C683 1.366 . S
C684 C685 1.414 . S
C684 C687 1.499 . S
C685 H659 0.950 . S
C685 C684 1.414 . S
C685 C686 1.374 . S
C686 H660 0.950 . S
C686 C682 1.385 . S
C686 C685 1.374 . S
C687 C684 1.499 . S
C687 C688 1.373 . S
C687 C689 1.389 . S
C688 H661 0.950 . S
C688 C674 1.377 . S
C688 C687 1.373 . S
C689 C673 1.377 . S
C689 C687 1.389 . S
C689 C690 1.524 . S
C690 C689 1.524 . S
C690 C691 1.397 . S
C690 C695 1.363 . S
C691 H662 0.950 . S
C691 C690 1.397 . S
C691 C692 1.334 . S
C692 H663 0.950 . S
C692 C691 1.334 . S
C692 C693 1.287 . S
C693 C692 1.287 . S
C693 C694 1.524 . S
C693 H696 0.999 . S
C694 H664 0.950 . S
C694 C693 1.524 . S
C694 C695 1.415 . S
C695 H665 0.950 . S
C695 C690 1.363 . S
C695 C694 1.415 . S
H696 C693 0.999 . S
H697 C678 0.913 . S
H698 C716 0.951 . S
H699 C718 0.951 . S
H700 C720 0.950 . S
H701 C721 0.950 . S
H702 C723 0.950 . S
H703 C726 0.950 . S
H704 C727 0.950 . S
H705 C729 0.950 . S
H706 C730 0.950 1_565 S
H707 C731 0.951 . S
H708 C733 0.951 . S
H709 C735 0.950 . S
H710 C736 0.950 . S
H711 C738 0.950 . S
H712 C741 0.950 . S
H713 C742 0.950 . S
H714 C744 0.950 . S
H715 C745 0.950 1_545 S
C716 H698 0.951 . S
C716 C717 1.366 . S
C716 C718 1.388 . S
C717 C716 1.366 . S
C717 C721 1.385 . S
C718 H699 0.951 . S
C718 C716 1.388 . S
C718 C719 1.366 . S
C719 C718 1.366 . S
C719 C720 1.414 . S
C719 C722 1.499 . S
C720 H700 0.950 . S
C720 C719 1.414 . S
C720 C721 1.374 . S
C721 H701 0.950 . S
C721 C717 1.385 . S
C721 C720 1.374 . S
C722 C719 1.499 . S
C722 C723 1.373 . S
C722 C724 1.389 . S
C723 H702 0.950 . S
C723 C722 1.373 . S
C723 C739 1.377 1_545 S
C724 C722 1.389 . S
C724 C725 1.524 . S
C724 C738 1.377 1_545 S
C725 C724 1.524 . S
C725 C726 1.397 . S
C725 C730 1.363 . S
C726 H703 0.950 . S
C726 C725 1.397 . S
C726 C727 1.334 . S
C727 H704 0.950 . S
C727 C726 1.334 . S
C727 C728 1.287 . S
C728 C727 1.287 . S
C728 C729 1.524 . S
C728 H747 0.913 . S
C729 H705 0.950 . S
C729 C728 1.524 . S
C729 C730 1.415 . S
C730 H706 0.950 1_545 S
C730 C725 1.363 . S
C730 C729 1.415 . S
C731 H707 0.951 . S
C731 C732 1.366 . S
C731 C733 1.388 . S
C732 C731 1.366 . S
C732 C736 1.385 . S
C733 H708 0.951 . S
C733 C731 1.388 . S
C733 C734 1.366 . S
C734 C733 1.366 . S
C734 C735 1.414 . S
C734 C737 1.499 . S
C735 H709 0.950 . S
C735 C734 1.414 . S
C735 C736 1.374 . S
C736 H710 0.950 . S
C736 C732 1.385 . S
C736 C735 1.374 . S
C737 C734 1.499 . S
C737 C738 1.373 . S
C737 C739 1.389 . S
C738 H711 0.950 . S
C738 C724 1.377 1_565 S
C738 C737 1.373 . S
C739 C723 1.377 1_565 S
C739 C737 1.389 . S
C739 C740 1.524 . S
C740 C739 1.524 . S
C740 C741 1.397 . S
C740 C745 1.363 . S
C741 H712 0.950 . S
C741 C740 1.397 . S
C741 C742 1.334 . S
C742 H713 0.950 . S
C742 C741 1.334 . S
C742 C743 1.287 . S
C743 C742 1.287 . S
C743 C744 1.524 . S
C743 H746 0.999 . S
C744 H714 0.950 . S
C744 C743 1.524 . S
C744 C745 1.415 . S
C745 H715 0.950 1_565 S
C745 C740 1.363 . S
C745 C744 1.415 . S
H746 C743 0.999 . S
H747 C728 0.913 . S
H748 C766 0.951 . S
H749 C768 0.951 . S
H750 C770 0.950 . S
H751 C771 0.950 . S
H752 C773 0.950 . S
H753 C776 0.950 . S
H754 C777 0.950 . S
H755 C779 0.950 . S
H756 C780 0.950 . S
H757 C781 0.951 . S
H758 C783 0.951 . S
H759 C785 0.950 . S
H760 C786 0.950 . S
H761 C788 0.950 . S
H762 C791 0.950 . S
H763 C792 0.950 . S
H764 C794 0.950 . S
H765 C795 0.950 . S
C766 H748 0.951 . S
C766 C767 1.366 . S
C766 C768 1.388 . S
C767 C766 1.366 . S
C767 C771 1.385 . S
C768 H749 0.951 . S
C768 C766 1.388 . S
C768 C769 1.366 . S
C769 C768 1.366 . S
C769 C770 1.414 . S
C769 C772 1.499 . S
C770 H750 0.950 . S
C770 C769 1.414 . S
C770 C771 1.374 . S
C771 H751 0.950 . S
C771 C767 1.385 . S
C771 C770 1.374 . S
C772 C769 1.499 . S
C772 C773 1.373 . S
C772 C774 1.389 . S
C773 H752 0.950 . S
C773 C772 1.373 . S
C773 C789 1.377 1_556 S
C774 C772 1.389 . S
C774 C775 1.524 . S
C774 C788 1.377 1_556 S
C775 C774 1.524 . S
C775 C776 1.397 . S
C775 C780 1.363 . S
C776 H753 0.950 . S
C776 C775 1.397 . S
C776 C777 1.334 . S
C777 H754 0.950 . S
C777 C776 1.334 . S
C777 C778 1.287 . S
C778 C777 1.287 . S
C778 C779 1.524 . S
C778 H797 0.913 . S
C779 H755 0.950 . S
C779 C778 1.524 . S
C779 C780 1.415 . S
C780 H756 0.950 . S
C780 C775 1.363 . S
C780 C779 1.415 . S
C781 H757 0.951 . S
C781 C782 1.366 . S
C781 C783 1.388 . S
C782 C781 1.366 . S
C782 C786 1.385 . S
C783 H758 0.951 . S
C783 C781 1.388 . S
C783 C784 1.366 . S
C784 C783 1.366 . S
C784 C785 1.414 . S
C784 C787 1.499 . S
C785 H759 0.950 . S
C785 C784 1.414 . S
C785 C786 1.374 . S
C786 H760 0.950 . S
C786 C782 1.385 . S
C786 C785 1.374 . S
C787 C784 1.499 . S
C787 C788 1.373 . S
C787 C789 1.389 . S
C788 H761 0.950 . S
C788 C774 1.377 1_554 S
C788 C787 1.373 . S
C789 C773 1.377 1_554 S
C789 C787 1.389 . S
C789 C790 1.524 . S
C790 C789 1.524 . S
C790 C791 1.397 . S
C790 C795 1.363 . S
C791 H762 0.950 . S
C791 C790 1.397 . S
C791 C792 1.334 . S
C792 H763 0.950 . S
C792 C791 1.334 . S
C792 C793 1.287 . S
C793 C792 1.287 . S
C793 C794 1.524 . S
C793 H796 0.999 . S
C794 H764 0.950 . S
C794 C793 1.524 . S
C794 C795 1.415 . S
C795 H765 0.950 . S
C795 C790 1.363 . S
C795 C794 1.415 . S
H796 C793 0.999 . S
H797 C778 0.913 . S
H798 C816 0.951 . S
H799 C818 0.951 . S
H800 C820 0.950 . S
H801 C821 0.950 . S
H802 C823 0.950 . S
H803 C826 0.950 . S
H804 C827 0.950 . S
H805 C829 0.950 . S
H806 C830 0.950 . S
H807 C831 0.951 . S
H808 C833 0.951 . S
H809 C835 0.950 . S
H810 C836 0.950 . S
H811 C838 0.950 . S
H812 C841 0.950 . S
H813 C842 0.950 . S
H814 C844 0.950 . S
H815 C845 0.950 . S
C816 H798 0.951 . S
C816 C817 1.366 . S
C816 C818 1.388 . S
C817 C816 1.366 . S
C817 C821 1.385 . S
C818 H799 0.951 . S
C818 C816 1.388 . S
C818 C819 1.366 . S
C819 C818 1.366 . S
C819 C820 1.414 . S
C819 C822 1.499 . S
C820 H800 0.950 . S
C820 C819 1.414 . S
C820 C821 1.374 . S
C821 H801 0.950 . S
C821 C817 1.385 . S
C821 C820 1.374 . S
C822 C819 1.499 . S
C822 C823 1.373 . S
C822 C824 1.389 . S
C823 H802 0.950 . S
C823 C822 1.373 . S
C823 C839 1.377 1_565 S
C824 C822 1.389 . S
C824 C825 1.524 . S
C824 C838 1.377 1_565 S
C825 C824 1.524 . S
C825 C826 1.397 . S
C825 C830 1.363 . S
C826 H803 0.950 . S
C826 C825 1.397 . S
C826 C827 1.334 . S
C827 H804 0.950 . S
C827 C826 1.334 . S
C827 C828 1.287 . S
C828 C827 1.287 . S
C828 C829 1.524 . S
C828 H847 0.913 . S
C829 H805 0.950 . S
C829 C828 1.524 . S
C829 C830 1.415 . S
C830 H806 0.950 . S
C830 C825 1.363 . S
C830 C829 1.415 . S
C831 H807 0.951 . S
C831 C832 1.366 . S
C831 C833 1.388 . S
C832 C831 1.366 . S
C832 C836 1.385 . S
C833 H808 0.951 . S
C833 C831 1.388 . S
C833 C834 1.366 . S
C834 C833 1.366 . S
C834 C835 1.414 . S
C834 C837 1.499 . S
C835 H809 0.950 . S
C835 C834 1.414 . S
C835 C836 1.374 . S
C836 H810 0.950 . S
C836 C832 1.385 . S
C836 C835 1.374 . S
C837 C834 1.499 . S
C837 C838 1.373 . S
C837 C839 1.389 . S
C838 H811 0.950 . S
C838 C824 1.377 1_545 S
C838 C837 1.373 . S
C839 C823 1.377 1_545 S
C839 C837 1.389 . S
C839 C840 1.524 . S
C840 C839 1.524 . S
C840 C841 1.397 . S
C840 C845 1.363 . S
C841 H812 0.950 . S
C841 C840 1.397 . S
C841 C842 1.334 . S
C842 H813 0.950 . S
C842 C841 1.334 . S
C842 C843 1.287 . S
C843 C842 1.287 . S
C843 C844 1.524 . S
C843 H846 0.999 . S
C844 H814 0.950 . S
C844 C843 1.524 . S
C844 C845 1.415 . S
C845 H815 0.950 . S
C845 C840 1.363 . S
C845 C844 1.415 . S
H846 C843 0.999 . S
H847 C828 0.913 . S
H848 C866 0.951 . S
H849 C868 0.951 . S
H850 C870 0.950 . S
H851 C871 0.950 . S
H852 C873 0.950 . S
H853 C876 0.950 . S
H854 C877 0.950 . S
H855 C879 0.950 . S
H856 C880 0.950 . S
H857 C881 0.951 . S
H858 C883 0.951 . S
H859 C885 0.950 . S
H860 C886 0.950 . S
H861 C888 0.950 . S
H862 C891 0.950 . S
H863 C892 0.950 . S
H864 C894 0.950 . S
H865 C895 0.950 . S
C866 H848 0.951 . S
C866 C867 1.366 . S
C866 C868 1.388 . S
C867 C866 1.366 . S
C867 C871 1.385 . S
C868 H849 0.951 . S
C868 C866 1.388 . S
C868 C869 1.366 . S
C869 C868 1.366 . S
C869 C870 1.414 . S
C869 C872 1.499 . S
C870 H850 0.950 . S
C870 C869 1.414 . S
C870 C871 1.374 . S
C871 H851 0.950 . S
C871 C867 1.385 . S
C871 C870 1.374 . S
C872 C869 1.499 . S
C872 C873 1.373 1_556 S
C872 C874 1.389 . S
C873 H852 0.950 . S
C873 C872 1.373 1_554 S
C873 C889 1.377 . S
C874 C872 1.389 . S
C874 C875 1.524 . S
C874 C888 1.377 . S
C875 C874 1.524 . S
C875 C876 1.397 . S
C875 C880 1.363 . S
C876 H853 0.950 . S
C876 C875 1.397 . S
C876 C877 1.334 . S
C877 H854 0.950 . S
C877 C876 1.334 . S
C877 C878 1.287 . S
C878 C877 1.287 . S
C878 C879 1.524 . S
C878 H897 0.913 . S
C879 H855 0.950 . S
C879 C878 1.524 . S
C879 C880 1.415 . S
C880 H856 0.950 . S
C880 C875 1.363 . S
C880 C879 1.415 . S
C881 H857 0.951 . S
C881 C882 1.366 . S
C881 C883 1.388 . S
C882 C881 1.366 . S
C882 C886 1.385 . S
C883 H858 0.951 . S
C883 C881 1.388 . S
C883 C884 1.366 . S
C884 C883 1.366 . S
C884 C885 1.414 . S
C884 C887 1.499 . S
C885 H859 0.950 . S
C885 C884 1.414 . S
C885 C886 1.374 . S
C886 H860 0.950 . S
C886 C882 1.385 . S
C886 C885 1.374 . S
C887 C884 1.499 . S
C887 C888 1.373 1_554 S
C887 C889 1.389 . S
C888 H861 0.950 . S
C888 C874 1.377 . S
C888 C887 1.373 1_556 S
C889 C873 1.377 . S
C889 C887 1.389 . S
C889 C890 1.524 . S
C890 C889 1.524 . S
C890 C891 1.397 . S
C890 C895 1.363 . S
C891 H862 0.950 . S
C891 C890 1.397 . S
C891 C892 1.334 . S
C892 H863 0.950 . S
C892 C891 1.334 . S
C892 C893 1.287 . S
C893 C892 1.287 . S
C893 C894 1.524 . S
C893 H896 0.999 . S
C894 H864 0.950 . S
C894 C893 1.524 . S
C894 C895 1.415 . S
C895 H865 0.950 . S
C895 C890 1.363 . S
C895 C894 1.415 . S
H896 C893 0.999 . S
H897 C878 0.913 . S
H898 C916 0.951 . S
H899 C918 0.951 . S
H900 C920 0.950 . S
H901 C921 0.950 . S
H902 C923 0.950 . S
H903 C926 0.950 . S
H904 C927 0.950 . S
H905 C929 0.950 . S
H906 C930 0.950 . S
H907 C931 0.951 . S
H908 C933 0.951 . S
H909 C935 0.950 . S
H910 C936 0.950 . S
H911 C938 0.950 . S
H912 C941 0.950 . S
H913 C942 0.950 . S
H914 C944 0.950 . S
H915 C945 0.950 . S
C916 H898 0.951 . S
C916 C917 1.366 . S
C916 C918 1.388 . S
C917 C916 1.366 . S
C917 C921 1.385 . S
C918 H899 0.951 . S
C918 C916 1.388 . S
C918 C919 1.366 . S
C919 C918 1.366 . S
C919 C920 1.414 . S
C919 C922 1.499 . S
C920 H900 0.950 . S
C920 C919 1.414 . S
C920 C921 1.374 . S
C921 H901 0.950 . S
C921 C917 1.385 . S
C921 C920 1.374 . S
C922 C919 1.499 . S
C922 C923 1.373 . S
C922 C924 1.389 . S
C923 H902 0.950 . S
C923 C922 1.373 . S
C923 C939 1.377 . S
C924 C922 1.389 . S
C924 C925 1.524 . S
C924 C938 1.377 . S
C925 C924 1.524 . S
C925 C926 1.397 . S
C925 C930 1.363 . S
C926 H903 0.950 . S
C926 C925 1.397 . S
C926 C927 1.334 . S
C927 H904 0.950 . S
C927 C926 1.334 . S
C927 C928 1.287 . S
C928 C927 1.287 . S
C928 C929 1.524 . S
C928 H947 0.913 . S
C929 H905 0.950 . S
C929 C928 1.524 . S
C929 C930 1.415 . S
C930 H906 0.950 . S
C930 C925 1.363 . S
C930 C929 1.415 . S
C931 H907 0.951 . S
C931 C932 1.366 . S
C931 C933 1.388 . S
C932 C931 1.366 . S
C932 C936 1.385 . S
C933 H908 0.951 . S
C933 C931 1.388 . S
C933 C934 1.366 . S
C934 C933 1.366 . S
C934 C935 1.414 . S
C934 C937 1.499 . S
C935 H909 0.950 . S
C935 C934 1.414 . S
C935 C936 1.374 . S
C936 H910 0.950 . S
C936 C932 1.385 . S
C936 C935 1.374 . S
C937 C934 1.499 . S
C937 C938 1.373 . S
C937 C939 1.389 . S
C938 H911 0.950 . S
C938 C924 1.377 . S
C938 C937 1.373 . S
C939 C923 1.377 . S
C939 C937 1.389 . S
C939 C940 1.524 . S
C940 C939 1.524 . S
C940 C941 1.397 . S
C940 C945 1.363 . S
C941 H912 0.950 . S
C941 C940 1.397 . S
C941 C942 1.334 . S
C942 H913 0.950 . S
C942 C941 1.334 . S
C942 C943 1.287 . S
C943 C942 1.287 . S
C943 C944 1.524 . S
C943 H946 0.999 . S
C944 H914 0.950 . S
C944 C943 1.524 . S
C944 C945 1.415 . S
C945 H915 0.950 . S
C945 C940 1.363 . S
C945 C944 1.415 . S
H946 C943 0.999 . S
H947 C928 0.913 . S
H948 C966 0.951 . S
H949 C968 0.951 . S
H950 C970 0.950 . S
H951 C971 0.950 . S
H952 C973 0.950 . S
H953 C976 0.950 . S
H954 C977 0.950 . S
H955 C979 0.950 . S
H956 C980 0.950 . S
H957 C981 0.951 . S
H958 C983 0.951 . S
H959 C985 0.950 . S
H960 C986 0.950 . S
H961 C988 0.950 . S
H962 C991 0.950 . S
H963 C992 0.950 . S
H964 C994 0.950 . S
H965 C995 0.950 . S
C966 H948 0.951 . S
C966 C967 1.366 . S
C966 C968 1.388 . S
C967 C966 1.366 . S
C967 C971 1.385 . S
C968 H949 0.951 . S
C968 C966 1.388 . S
C968 C969 1.366 . S
C969 C968 1.366 . S
C969 C970 1.414 . S
C969 C972 1.499 . S
C970 H950 0.950 . S
C970 C969 1.414 . S
C970 C971 1.374 . S
C971 H951 0.950 . S
C971 C967 1.385 . S
C971 C970 1.374 . S
C972 C969 1.499 . S
C972 C973 1.373 . S
C972 C974 1.389 . S
C973 H952 0.950 . S
C973 C972 1.373 . S
C973 C989 1.377 . S
C974 C972 1.389 . S
C974 C975 1.524 . S
C974 C988 1.377 . S
C975 C974 1.524 . S
C975 C976 1.397 . S
C975 C980 1.363 . S
C976 H953 0.950 . S
C976 C975 1.397 . S
C976 C977 1.334 . S
C977 H954 0.950 . S
C977 C976 1.334 . S
C977 C978 1.287 . S
C978 C977 1.287 . S
C978 C979 1.524 . S
C978 H997 0.913 . S
C979 H955 0.950 . S
C979 C978 1.524 . S
C979 C980 1.415 . S
C980 H956 0.950 . S
C980 C975 1.363 . S
C980 C979 1.415 . S
C981 H957 0.951 . S
C981 C982 1.366 . S
C981 C983 1.388 . S
C982 C981 1.366 . S
C982 C986 1.385 . S
C983 H958 0.951 . S
C983 C981 1.388 . S
C983 C984 1.366 . S
C984 C983 1.366 . S
C984 C985 1.414 . S
C984 C987 1.499 . S
C985 H959 0.950 . S
C985 C984 1.414 . S
C985 C986 1.374 . S
C986 H960 0.950 . S
C986 C982 1.385 . S
C986 C985 1.374 . S
C987 C984 1.499 . S
C987 C988 1.373 . S
C987 C989 1.389 . S
C988 H961 0.950 . S
C988 C974 1.377 . S
C988 C987 1.373 . S
C989 C973 1.377 . S
C989 C987 1.389 . S
C989 C990 1.524 . S
C990 C989 1.524 . S
C990 C991 1.397 . S
C990 C995 1.363 . S
C991 H962 0.950 . S
C991 C990 1.397 . S
C991 C992 1.334 . S
C992 H963 0.950 . S
C992 C991 1.334 . S
C992 C993 1.287 . S
C993 C992 1.287 . S
C993 C994 1.524 . S
C993 H996 0.999 . S
C994 H964 0.950 . S
C994 C993 1.524 . S
C994 C995 1.415 . S
C995 H965 0.950 . S
C995 C990 1.363 . S
C995 C994 1.415 . S
H996 C993 0.999 . S
H997 C978 0.913 . S
H998 C1016 0.951 . S
H999 C1018 0.951 . S
H1000 C1020 0.950 . S
H1001 C1021 0.950 . S
H1002 C1023 0.950 . S
H1003 C1026 0.950 . S
H1004 C1027 0.950 . S
H1005 C1029 0.950 . S
H1006 C1030 0.950 . S
H1007 C1031 0.951 . S
H1008 C1033 0.951 . S
H1009 C1035 0.950 . S
H1010 C1036 0.950 . S
H1011 C1038 0.950 . S
H1012 C1041 0.950 . S
H1013 C1042 0.950 . S
H1014 C1044 0.950 . S
H1015 C1045 0.950 . S
C1016 H998 0.951 . S
C1016 C1017 1.366 . S
C1016 C1018 1.388 . S
C1017 C1016 1.366 . S
C1017 C1021 1.385 . S
C1018 H999 0.951 . S
C1018 C1016 1.388 . S
C1018 C1019 1.366 . S
C1019 C1018 1.366 . S
C1019 C1020 1.414 . S
C1019 C1022 1.499 . S
C1020 H1000 0.950 . S
C1020 C1019 1.414 . S
C1020 C1021 1.374 . S
C1021 H1001 0.950 . S
C1021 C1017 1.385 . S
C1021 C1020 1.374 . S
C1022 C1019 1.499 . S
C1022 C1023 1.373 . S
C1022 C1024 1.389 . S
C1023 H1002 0.950 . S
C1023 C1022 1.373 . S
C1023 C1039 1.377 . S
C1024 C1022 1.389 . S
C1024 C1025 1.524 . S
C1024 C1038 1.377 . S
C1025 C1024 1.524 . S
C1025 C1026 1.397 . S
C1025 C1030 1.363 . S
C1026 H1003 0.950 . S
C1026 C1025 1.397 . S
C1026 C1027 1.334 . S
C1027 H1004 0.950 . S
C1027 C1026 1.334 . S
C1027 C1028 1.287 . S
C1028 C1027 1.287 . S
C1028 C1029 1.524 . S
C1028 H1047 0.913 . S
C1029 H1005 0.950 . S
C1029 C1028 1.524 . S
C1029 C1030 1.415 . S
C1030 H1006 0.950 . S
C1030 C1025 1.363 . S
C1030 C1029 1.415 . S
C1031 H1007 0.951 . S
C1031 C1032 1.366 . S
C1031 C1033 1.388 . S
C1032 C1031 1.366 . S
C1032 C1036 1.385 . S
C1033 H1008 0.951 . S
C1033 C1031 1.388 . S
C1033 C1034 1.366 . S
C1034 C1033 1.366 . S
C1034 C1035 1.414 . S
C1034 C1037 1.499 . S
C1035 H1009 0.950 . S
C1035 C1034 1.414 . S
C1035 C1036 1.374 . S
C1036 H1010 0.950 . S
C1036 C1032 1.385 . S
C1036 C1035 1.374 . S
C1037 C1034 1.499 . S
C1037 C1038 1.373 . S
C1037 C1039 1.389 . S
C1038 H1011 0.950 . S
C1038 C1024 1.377 . S
C1038 C1037 1.373 . S
C1039 C1023 1.377 . S
C1039 C1037 1.389 . S
C1039 C1040 1.524 . S
C1040 C1039 1.524 . S
C1040 C1041 1.397 . S
C1040 C1045 1.363 . S
C1041 H1012 0.950 . S
C1041 C1040 1.397 . S
C1041 C1042 1.334 . S
C1042 H1013 0.950 . S
C1042 C1041 1.334 . S
C1042 C1043 1.287 . S
C1043 C1042 1.287 . S
C1043 C1044 1.524 . S
C1043 H1046 0.999 . S
C1044 H1014 0.950 . S
C1044 C1043 1.524 . S
C1044 C1045 1.415 . S
C1045 H1015 0.950 . S
C1045 C1040 1.363 . S
C1045 C1044 1.415 . S
H1046 C1043 0.999 . S
H1047 C1028 0.913 . S
H1048 C1066 0.951 . S
H1049 C1068 0.951 . S
H1050 C1070 0.950 . S
H1051 C1071 0.950 . S
H1052 C1073 0.950 . S
H1053 C1076 0.950 . S
H1054 C1077 0.950 . S
H1055 C1079 0.950 . S
H1056 C1080 0.950 . S
H1057 C1081 0.951 . S
H1058 C1083 0.951 . S
H1059 C1085 0.950 . S
H1060 C1086 0.950 . S
H1061 C1088 0.950 . S
H1062 C1091 0.950 . S
H1063 C1092 0.950 . S
H1064 C1094 0.950 . S
H1065 C1095 0.950 . S
C1066 H1048 0.951 . S
C1066 C1067 1.366 . S
C1066 C1068 1.388 . S
C1067 C1066 1.366 . S
C1067 C1071 1.385 . S
C1068 H1049 0.951 . S
C1068 C1066 1.388 . S
C1068 C1069 1.366 . S
C1069 C1068 1.366 . S
C1069 C1070 1.414 . S
C1069 C1072 1.499 . S
C1070 H1050 0.950 . S
C1070 C1069 1.414 . S
C1070 C1071 1.374 . S
C1071 H1051 0.950 . S
C1071 C1067 1.385 . S
C1071 C1070 1.374 . S
C1072 C1069 1.499 . S
C1072 C1073 1.373 . S
C1072 C1074 1.389 1_556 S
C1073 H1052 0.950 . S
C1073 C1072 1.373 . S
C1073 C1089 1.377 . S
C1074 C1072 1.389 1_554 S
C1074 C1075 1.524 . S
C1074 C1088 1.377 . S
C1075 C1074 1.524 . S
C1075 C1076 1.397 . S
C1075 C1080 1.363 . S
C1076 H1053 0.950 . S
C1076 C1075 1.397 . S
C1076 C1077 1.334 . S
C1077 H1054 0.950 . S
C1077 C1076 1.334 . S
C1077 C1078 1.287 . S
C1078 C1077 1.287 . S
C1078 C1079 1.524 . S
C1078 H1097 0.913 . S
C1079 H1055 0.950 . S
C1079 C1078 1.524 . S
C1079 C1080 1.415 . S
C1080 H1056 0.950 . S
C1080 C1075 1.363 . S
C1080 C1079 1.415 . S
C1081 H1057 0.951 . S
C1081 C1082 1.366 . S
C1081 C1083 1.388 . S
C1082 C1081 1.366 . S
C1082 C1086 1.385 . S
C1083 H1058 0.951 . S
C1083 C1081 1.388 . S
C1083 C1084 1.366 . S
C1084 C1083 1.366 . S
C1084 C1085 1.414 . S
C1084 C1087 1.499 . S
C1085 H1059 0.950 . S
C1085 C1084 1.414 . S
C1085 C1086 1.374 . S
C1086 H1060 0.950 . S
C1086 C1082 1.385 . S
C1086 C1085 1.374 . S
C1087 C1084 1.499 . S
C1087 C1088 1.373 . S
C1087 C1089 1.389 1_554 S
C1088 H1061 0.950 . S
C1088 C1074 1.377 . S
C1088 C1087 1.373 . S
C1089 C1073 1.377 . S
C1089 C1087 1.389 1_556 S
C1089 C1090 1.524 . S
C1090 C1089 1.524 . S
C1090 C1091 1.397 . S
C1090 C1095 1.363 . S
C1091 H1062 0.950 . S
C1091 C1090 1.397 . S
C1091 C1092 1.334 . S
C1092 H1063 0.950 . S
C1092 C1091 1.334 . S
C1092 C1093 1.287 . S
C1093 C1092 1.287 . S
C1093 C1094 1.524 . S
C1093 H1096 0.999 . S
C1094 H1064 0.950 . S
C1094 C1093 1.524 . S
C1094 C1095 1.415 . S
C1095 H1065 0.950 . S
C1095 C1090 1.363 . S
C1095 C1094 1.415 . S
H1096 C1093 0.999 . S
H1097 C1078 0.913 . S
H1098 C1116 0.951 . S
H1099 C1118 0.951 . S
H1100 C1120 0.950 . S
H1101 C1121 0.950 . S
H1102 C1123 0.950 . S
H1103 C1126 0.950 . S
H1104 C1127 0.950 . S
H1105 C1129 0.950 . S
H1106 C1130 0.950 . S
H1107 C1131 0.951 . S
H1108 C1133 0.951 . S
H1109 C1135 0.950 . S
H1110 C1136 0.950 . S
H1111 C1138 0.950 . S
H1112 C1141 0.950 . S
H1113 C1142 0.950 . S
H1114 C1144 0.950 . S
H1115 C1145 0.950 . S
C1116 H1098 0.951 . S
C1116 C1117 1.366 . S
C1116 C1118 1.388 . S
C1117 C1116 1.366 . S
C1117 C1121 1.385 . S
C1118 H1099 0.951 . S
C1118 C1116 1.388 . S
C1118 C1119 1.366 . S
C1119 C1118 1.366 . S
C1119 C1120 1.414 . S
C1119 C1122 1.499 . S
C1120 H1100 0.950 . S
C1120 C1119 1.414 . S
C1120 C1121 1.374 . S
C1121 H1101 0.950 . S
C1121 C1117 1.385 . S
C1121 C1120 1.374 . S
C1122 C1119 1.499 . S
C1122 C1123 1.373 . S
C1122 C1124 1.389 . S
C1123 H1102 0.950 . S
C1123 C1122 1.373 . S
C1123 C1139 1.377 . S
C1124 C1122 1.389 . S
C1124 C1125 1.524 . S
C1124 C1138 1.377 . S
C1125 C1124 1.524 . S
C1125 C1126 1.397 . S
C1125 C1130 1.363 . S
C1126 H1103 0.950 . S
C1126 C1125 1.397 . S
C1126 C1127 1.334 . S
C1127 H1104 0.950 . S
C1127 C1126 1.334 . S
C1127 C1128 1.287 . S
C1128 C1127 1.287 . S
C1128 C1129 1.524 . S
C1128 H1147 0.913 . S
C1129 H1105 0.950 . S
C1129 C1128 1.524 . S
C1129 C1130 1.415 . S
C1130 H1106 0.950 . S
C1130 C1125 1.363 . S
C1130 C1129 1.415 . S
C1131 H1107 0.951 . S
C1131 C1132 1.366 . S
C1131 C1133 1.388 . S
C1132 C1131 1.366 . S
C1132 C1136 1.385 . S
C1133 H1108 0.951 . S
C1133 C1131 1.388 . S
C1133 C1134 1.366 . S
C1134 C1133 1.366 . S
C1134 C1135 1.414 . S
C1134 C1137 1.499 . S
C1135 H1109 0.950 . S
C1135 C1134 1.414 . S
C1135 C1136 1.374 . S
C1136 H1110 0.950 . S
C1136 C1132 1.385 . S
C1136 C1135 1.374 . S
C1137 C1134 1.499 . S
C1137 C1138 1.373 . S
C1137 C1139 1.389 . S
C1138 H1111 0.950 . S
C1138 C1124 1.377 . S
C1138 C1137 1.373 . S
C1139 C1123 1.377 . S
C1139 C1137 1.389 . S
C1139 C1140 1.524 . S
C1140 C1139 1.524 . S
C1140 C1141 1.397 . S
C1140 C1145 1.363 . S
C1141 H1112 0.950 . S
C1141 C1140 1.397 . S
C1141 C1142 1.334 . S
C1142 H1113 0.950 . S
C1142 C1141 1.334 . S
C1142 C1143 1.287 . S
C1143 C1142 1.287 . S
C1143 C1144 1.524 . S
C1143 H1146 0.999 . S
C1144 H1114 0.950 . S
C1144 C1143 1.524 . S
C1144 C1145 1.415 . S
C1145 H1115 0.950 . S
C1145 C1140 1.363 . S
C1145 C1144 1.415 . S
H1146 C1143 0.999 . S
H1147 C1128 0.913 . S
H1148 C1166 0.951 . S
H1149 C1168 0.951 . S
H1150 C1170 0.950 . S
H1151 C1171 0.950 . S
H1152 C1173 0.950 . S
H1153 C1176 0.950 . S
H1154 C1177 0.950 . S
H1155 C1179 0.950 . S
H1156 C1180 0.950 . S
H1157 C1181 0.951 . S
H1158 C1183 0.951 . S
H1159 C1185 0.950 . S
H1160 C1186 0.950 . S
H1161 C1188 0.950 . S
H1162 C1191 0.950 . S
H1163 C1192 0.950 . S
H1164 C1194 0.950 . S
H1165 C1195 0.950 . S
C1166 H1148 0.951 . S
C1166 C1167 1.366 . S
C1166 C1168 1.388 . S
C1167 C1166 1.366 . S
C1167 C1171 1.385 . S
C1168 H1149 0.951 . S
C1168 C1166 1.388 . S
C1168 C1169 1.366 . S
C1169 C1168 1.366 . S
C1169 C1170 1.414 . S
C1169 C1172 1.499 . S
C1170 H1150 0.950 . S
C1170 C1169 1.414 . S
C1170 C1171 1.374 . S
C1171 H1151 0.950 . S
C1171 C1167 1.385 . S
C1171 C1170 1.374 . S
C1172 C1169 1.499 . S
C1172 C1173 1.373 . S
C1172 C1174 1.389 . S
C1173 H1152 0.950 . S
C1173 C1172 1.373 . S
C1173 C1189 1.377 . S
C1174 C1172 1.389 . S
C1174 C1175 1.524 . S
C1174 C1188 1.377 . S
C1175 C1174 1.524 . S
C1175 C1176 1.397 . S
C1175 C1180 1.363 . S
C1176 H1153 0.950 . S
C1176 C1175 1.397 . S
C1176 C1177 1.334 . S
C1177 H1154 0.950 . S
C1177 C1176 1.334 . S
C1177 C1178 1.287 . S
C1178 C1177 1.287 . S
C1178 C1179 1.524 . S
C1178 H1197 0.913 . S
C1179 H1155 0.950 . S
C1179 C1178 1.524 . S
C1179 C1180 1.415 . S
C1180 H1156 0.950 . S
C1180 C1175 1.363 . S
C1180 C1179 1.415 . S
C1181 H1157 0.951 . S
C1181 C1182 1.366 . S
C1181 C1183 1.388 . S
C1182 C1181 1.366 . S
C1182 C1186 1.385 . S
C1183 H1158 0.951 . S
C1183 C1181 1.388 . S
C1183 C1184 1.366 . S
C1184 C1183 1.366 . S
C1184 C1185 1.414 . S
C1184 C1187 1.499 . S
C1185 H1159 0.950 . S
C1185 C1184 1.414 . S
C1185 C1186 1.374 . S
C1186 H1160 0.950 . S
C1186 C1182 1.385 . S
C1186 C1185 1.374 . S
C1187 C1184 1.499 . S
C1187 C1188 1.373 . S
C1187 C1189 1.389 . S
C1188 H1161 0.950 . S
C1188 C1174 1.377 . S
C1188 C1187 1.373 . S
C1189 C1173 1.377 . S
C1189 C1187 1.389 . S
C1189 C1190 1.524 . S
C1190 C1189 1.524 . S
C1190 C1191 1.397 . S
C1190 C1195 1.363 . S
C1191 H1162 0.950 . S
C1191 C1190 1.397 . S
C1191 C1192 1.334 . S
C1192 H1163 0.950 . S
C1192 C1191 1.334 . S
C1192 C1193 1.287 . S
C1193 C1192 1.287 . S
C1193 C1194 1.524 . S
C1193 H1196 0.999 . S
C1194 H1164 0.950 . S
C1194 C1193 1.524 . S
C1194 C1195 1.415 . S
C1195 H1165 0.950 . S
C1195 C1190 1.363 . S
C1195 C1194 1.415 . S
H1196 C1193 0.999 . S
H1197 C1178 0.913 . S
H1198 C1216 0.951 . S
H1199 C1218 0.951 . S
H1200 C1220 0.950 . S
H1201 C1221 0.950 . S
H1202 C1223 0.950 . S
H1203 C1226 0.950 . S
H1204 C1227 0.950 . S
H1205 C1229 0.950 . S
H1206 C1230 0.950 . S
H1207 C1231 0.951 . S
H1208 C1233 0.951 . S
H1209 C1235 0.950 . S
H1210 C1236 0.950 . S
H1211 C1238 0.950 . S
H1212 C1241 0.950 . S
H1213 C1242 0.950 . S
H1214 C1244 0.950 . S
H1215 C1245 0.950 . S
C1216 H1198 0.951 . S
C1216 C1217 1.366 . S
C1216 C1218 1.388 . S
C1217 C1216 1.366 . S
C1217 C1221 1.385 . S
C1218 H1199 0.951 . S
C1218 C1216 1.388 . S
C1218 C1219 1.366 . S
C1219 C1218 1.366 . S
C1219 C1220 1.414 . S
C1219 C1222 1.499 . S
C1220 H1200 0.950 . S
C1220 C1219 1.414 . S
C1220 C1221 1.374 . S
C1221 H1201 0.950 . S
C1221 C1217 1.385 . S
C1221 C1220 1.374 . S
C1222 C1219 1.499 . S
C1222 C1223 1.373 . S
C1222 C1224 1.389 . S
C1223 H1202 0.950 . S
C1223 C1222 1.373 . S
C1223 C1239 1.377 . S
C1224 C1222 1.389 . S
C1224 C1225 1.524 . S
C1224 C1238 1.377 . S
C1225 C1224 1.524 . S
C1225 C1226 1.397 . S
C1225 C1230 1.363 . S
C1226 H1203 0.950 . S
C1226 C1225 1.397 . S
C1226 C1227 1.334 . S
C1227 H1204 0.950 . S
C1227 C1226 1.334 . S
C1227 C1228 1.287 . S
C1228 C1227 1.287 . S
C1228 C1229 1.524 . S
C1228 H1247 0.913 . S
C1229 H1205 0.950 . S
C1229 C1228 1.524 . S
C1229 C1230 1.415 . S
C1230 H1206 0.950 . S
C1230 C1225 1.363 . S
C1230 C1229 1.415 . S
C1231 H1207 0.951 . S
C1231 C1232 1.366 . S
C1231 C1233 1.388 . S
C1232 C1231 1.366 . S
C1232 C1236 1.385 . S
C1233 H1208 0.951 . S
C1233 C1231 1.388 . S
C1233 C1234 1.366 . S
C1234 C1233 1.366 . S
C1234 C1235 1.414 . S
C1234 C1237 1.499 . S
C1235 H1209 0.950 . S
C1235 C1234 1.414 . S
C1235 C1236 1.374 . S
C1236 H1210 0.950 . S
C1236 C1232 1.385 . S
C1236 C1235 1.374 . S
C1237 C1234 1.499 . S
C1237 C1238 1.373 . S
C1237 C1239 1.389 . S
C1238 H1211 0.950 . S
C1238 C1224 1.377 . S
C1238 C1237 1.373 . S
C1239 C1223 1.377 . S
C1239 C1237 1.389 . S
C1239 C1240 1.524 . S
C1240 C1239 1.524 . S
C1240 C1241 1.397 . S
C1240 C1245 1.363 . S
C1241 H1212 0.950 . S
C1241 C1240 1.397 . S
C1241 C1242 1.334 . S
C1242 H1213 0.950 . S
C1242 C1241 1.334 . S
C1242 C1243 1.287 . S
C1243 C1242 1.287 . S
C1243 C1244 1.524 . S
C1243 H1246 0.999 . S
C1244 H1214 0.950 . S
C1244 C1243 1.524 . S
C1244 C1245 1.415 . S
C1245 H1215 0.950 . S
C1245 C1240 1.363 . S
C1245 C1244 1.415 . S
H1246 C1243 0.999 . S
H1247 C1228 0.913 . S
H1248 C1266 0.951 . S
H1249 C1268 0.951 . S
H1250 C1270 0.950 1_554 S
H1251 C1271 0.950 . S
H1252 C1273 0.950 . S
H1253 C1276 0.950 . S
H1254 C1277 0.950 . S
H1255 C1279 0.950 . S
H1256 C1280 0.950 . S
H1257 C1281 0.951 . S
H1258 C1283 0.951 . S
H1259 C1285 0.950 . S
H1260 C1286 0.950 . S
H1261 C1288 0.950 1_556 S
H1262 C1291 0.950 . S
H1263 C1292 0.950 . S
H1264 C1294 0.950 . S
H1265 C1295 0.950 . S
C1266 H1248 0.951 . S
C1266 C1267 1.366 . S
C1266 C1268 1.388 . S
C1267 C1266 1.366 . S
C1267 C1271 1.385 . S
C1268 H1249 0.951 . S
C1268 C1266 1.388 . S
C1268 C1269 1.366 . S
C1269 C1268 1.366 . S
C1269 C1270 1.414 . S
C1269 C1272 1.499 . S
C1270 H1250 0.950 1_556 S
C1270 C1269 1.414 . S
C1270 C1271 1.374 . S
C1271 H1251 0.950 . S
C1271 C1267 1.385 . S
C1271 C1270 1.374 . S
C1272 C1269 1.499 . S
C1272 C1273 1.373 1_556 S
C1272 C1274 1.389 . S
C1273 H1252 0.950 . S
C1273 C1272 1.373 1_554 S
C1273 C1289 1.377 . S
C1274 C1272 1.389 . S
C1274 C1275 1.524 . S
C1274 C1288 1.377 1_556 S
C1275 C1274 1.524 . S
C1275 C1276 1.397 . S
C1275 C1280 1.363 . S
C1276 H1253 0.950 . S
C1276 C1275 1.397 . S
C1276 C1277 1.334 . S
C1277 H1254 0.950 . S
C1277 C1276 1.334 . S
C1277 C1278 1.287 . S
C1278 C1277 1.287 . S
C1278 C1279 1.524 . S
C1278 H1297 0.913 . S
C1279 H1255 0.950 . S
C1279 C1278 1.524 . S
C1279 C1280 1.415 . S
C1280 H1256 0.950 . S
C1280 C1275 1.363 . S
C1280 C1279 1.415 . S
C1281 H1257 0.951 . S
C1281 C1282 1.366 . S
C1281 C1283 1.388 . S
C1282 C1281 1.366 . S
C1282 C1286 1.385 . S
C1283 H1258 0.951 . S
C1283 C1281 1.388 . S
C1283 C1284 1.366 . S
C1284 C1283 1.366 . S
C1284 C1285 1.414 . S
C1284 C1287 1.499 . S
C1285 H1259 0.950 . S
C1285 C1284 1.414 . S
C1285 C1286 1.374 . S
C1286 H1260 0.950 . S
C1286 C1282 1.385 . S
C1286 C1285 1.374 . S
C1287 C1284 1.499 . S
C1287 C1288 1.373 . S
C1287 C1289 1.389 . S
C1288 H1261 0.950 1_554 S
C1288 C1274 1.377 1_554 S
C1288 C1287 1.373 . S
C1289 C1273 1.377 . S
C1289 C1287 1.389 . S
C1289 C1290 1.524 . S
C1290 C1289 1.524 . S
C1290 C1291 1.397 . S
C1290 C1295 1.363 . S
C1291 H1262 0.950 . S
C1291 C1290 1.397 . S
C1291 C1292 1.334 . S
C1292 H1263 0.950 . S
C1292 C1291 1.334 . S
C1292 C1293 1.287 . S
C1293 C1292 1.287 . S
C1293 C1294 1.524 . S
C1293 H1296 0.999 . S
C1294 H1264 0.950 . S
C1294 C1293 1.524 . S
C1294 C1295 1.415 . S
C1295 H1265 0.950 . S
C1295 C1290 1.363 . S
C1295 C1294 1.415 . S
H1296 C1293 0.999 . S
H1297 C1278 0.913 . S
H1298 C1316 0.951 . S
H1299 C1318 0.951 . S
H1300 C1320 0.950 . S
H1301 C1321 0.950 . S
H1302 C1323 0.950 . S
H1303 C1326 0.950 . S
H1304 C1327 0.950 . S
H1305 C1329 0.950 . S
H1306 C1330 0.950 . S
H1307 C1331 0.951 . S
H1308 C1333 0.951 . S
H1309 C1335 0.950 . S
H1310 C1336 0.950 . S
H1311 C1338 0.950 . S
H1312 C1341 0.950 . S
H1313 C1342 0.950 . S
H1314 C1344 0.950 . S
H1315 C1345 0.950 . S
C1316 H1298 0.951 . S
C1316 C1317 1.366 . S
C1316 C1318 1.388 . S
C1317 C1316 1.366 . S
C1317 C1321 1.385 . S
C1318 H1299 0.951 . S
C1318 C1316 1.388 . S
C1318 C1319 1.366 . S
C1319 C1318 1.366 . S
C1319 C1320 1.414 . S
C1319 C1322 1.499 . S
C1320 H1300 0.950 . S
C1320 C1319 1.414 . S
C1320 C1321 1.374 . S
C1321 H1301 0.950 . S
C1321 C1317 1.385 . S
C1321 C1320 1.374 . S
C1322 C1319 1.499 . S
C1322 C1323 1.373 . S
C1322 C1324 1.389 . S
C1323 H1302 0.950 . S
C1323 C1322 1.373 . S
C1323 C1339 1.377 . S
C1324 C1322 1.389 . S
C1324 C1325 1.524 . S
C1324 C1338 1.377 . S
C1325 C1324 1.524 . S
C1325 C1326 1.397 . S
C1325 C1330 1.363 . S
C1326 H1303 0.950 . S
C1326 C1325 1.397 . S
C1326 C1327 1.334 . S
C1327 H1304 0.950 . S
C1327 C1326 1.334 . S
C1327 C1328 1.287 . S
C1328 C1327 1.287 . S
C1328 C1329 1.524 . S
C1328 H1347 0.913 . S
C1329 H1305 0.950 . S
C1329 C1328 1.524 . S
C1329 C1330 1.415 . S
C1330 H1306 0.950 . S
C1330 C1325 1.363 . S
C1330 C1329 1.415 . S
C1331 H1307 0.951 . S
C1331 C1332 1.366 . S
C1331 C1333 1.388 . S
C1332 C1331 1.366 . S
C1332 C1336 1.385 . S
C1333 H1308 0.951 . S
C1333 C1331 1.388 . S
C1333 C1334 1.366 . S
C1334 C1333 1.366 . S
C1334 C1335 1.414 . S
C1334 C1337 1.499 . S
C1335 H1309 0.950 . S
C1335 C1334 1.414 . S
C1335 C1336 1.374 . S
C1336 H1310 0.950 . S
C1336 C1332 1.385 . S
C1336 C1335 1.374 . S
C1337 C1334 1.499 . S
C1337 C1338 1.373 . S
C1337 C1339 1.389 . S
C1338 H1311 0.950 . S
C1338 C1324 1.377 . S
C1338 C1337 1.373 . S
C1339 C1323 1.377 . S
C1339 C1337 1.389 . S
C1339 C1340 1.524 . S
C1340 C1339 1.524 . S
C1340 C1341 1.397 . S
C1340 C1345 1.363 . S
C1341 H1312 0.950 . S
C1341 C1340 1.397 . S
C1341 C1342 1.334 . S
C1342 H1313 0.950 . S
C1342 C1341 1.334 . S
C1342 C1343 1.287 . S
C1343 C1342 1.287 . S
C1343 C1344 1.524 . S
C1343 H1346 0.999 . S
C1344 H1314 0.950 . S
C1344 C1343 1.524 . S
C1344 C1345 1.415 . S
C1345 H1315 0.950 . S
C1345 C1340 1.363 . S
C1345 C1344 1.415 . S
H1346 C1343 0.999 . S
H1347 C1328 0.913 . S
H1348 C1366 0.951 . S
H1349 C1368 0.951 . S
H1350 C1370 0.950 . S
H1351 C1371 0.950 . S
H1352 C1373 0.950 . S
H1353 C1376 0.950 . S
H1354 C1377 0.950 . S
H1355 C1379 0.950 . S
H1356 C1380 0.950 . S
H1357 C1381 0.951 . S
H1358 C1383 0.951 . S
H1359 C1385 0.950 . S
H1360 C1386 0.950 . S
H1361 C1388 0.950 . S
H1362 C1391 0.950 . S
H1363 C1392 0.950 . S
H1364 C1394 0.950 . S
H1365 C1395 0.950 . S
C1366 H1348 0.951 . S
C1366 C1367 1.366 . S
C1366 C1368 1.388 . S
C1367 C1366 1.366 . S
C1367 C1371 1.385 . S
C1368 H1349 0.951 . S
C1368 C1366 1.388 . S
C1368 C1369 1.366 . S
C1369 C1368 1.366 . S
C1369 C1370 1.414 . S
C1369 C1372 1.499 . S
C1370 H1350 0.950 . S
C1370 C1369 1.414 . S
C1370 C1371 1.374 . S
C1371 H1351 0.950 . S
C1371 C1367 1.385 . S
C1371 C1370 1.374 . S
C1372 C1369 1.499 . S
C1372 C1373 1.373 . S
C1372 C1374 1.389 . S
C1373 H1352 0.950 . S
C1373 C1372 1.373 . S
C1373 C1389 1.377 . S
C1374 C1372 1.389 . S
C1374 C1375 1.524 . S
C1374 C1388 1.377 . S
C1375 C1374 1.524 . S
C1375 C1376 1.397 . S
C1375 C1380 1.363 . S
C1376 H1353 0.950 . S
C1376 C1375 1.397 . S
C1376 C1377 1.334 . S
C1377 H1354 0.950 . S
C1377 C1376 1.334 . S
C1377 C1378 1.287 . S
C1378 C1377 1.287 . S
C1378 C1379 1.524 . S
C1378 H1397 0.913 . S
C1379 H1355 0.950 . S
C1379 C1378 1.524 . S
C1379 C1380 1.415 . S
C1380 H1356 0.950 . S
C1380 C1375 1.363 . S
C1380 C1379 1.415 . S
C1381 H1357 0.951 . S
C1381 C1382 1.366 . S
C1381 C1383 1.388 . S
C1382 C1381 1.366 . S
C1382 C1386 1.385 . S
C1383 H1358 0.951 . S
C1383 C1381 1.388 . S
C1383 C1384 1.366 . S
C1384 C1383 1.366 . S
C1384 C1385 1.414 . S
C1384 C1387 1.499 . S
C1385 H1359 0.950 . S
C1385 C1384 1.414 . S
C1385 C1386 1.374 . S
C1386 H1360 0.950 . S
C1386 C1382 1.385 . S
C1386 C1385 1.374 . S
C1387 C1384 1.499 . S
C1387 C1388 1.373 . S
C1387 C1389 1.389 . S
C1388 H1361 0.950 . S
C1388 C1374 1.377 . S
C1388 C1387 1.373 . S
C1389 C1373 1.377 . S
C1389 C1387 1.389 . S
C1389 C1390 1.524 . S
C1390 C1389 1.524 . S
C1390 C1391 1.397 . S
C1390 C1395 1.363 . S
C1391 H1362 0.950 . S
C1391 C1390 1.397 . S
C1391 C1392 1.334 . S
C1392 H1363 0.950 . S
C1392 C1391 1.334 . S
C1392 C1393 1.287 . S
C1393 C1392 1.287 . S
C1393 C1394 1.524 . S
C1393 H1396 0.999 . S
C1394 H1364 0.950 . S
C1394 C1393 1.524 . S
C1394 C1395 1.415 . S
C1395 H1365 0.950 . S
C1395 C1390 1.363 . S
C1395 C1394 1.415 . S
H1396 C1393 0.999 . S
H1397 C1378 0.913 . S
H1398 C1416 0.951 . S
H1399 C1418 0.951 . S
H1400 C1420 0.950 . S
H1401 C1421 0.950 . S
H1402 C1423 0.950 . S
H1403 C1426 0.950 1_556 S
H1404 C1427 0.950 . S
H1405 C1429 0.950 . S
H1406 C1430 0.950 . S
H1407 C1431 0.951 . S
H1408 C1433 0.951 1_556 S
H1409 C1435 0.950 . S
H1410 C1436 0.950 . S
H1411 C1438 0.950 . S
H1412 C1441 0.950 . S
H1413 C1442 0.950 . S
H1414 C1444 0.950 . S
H1415 C1445 0.950 . S
C1416 H1398 0.951 . S
C1416 C1417 1.366 . S
C1416 C1418 1.388 . S
C1417 C1416 1.366 . S
C1417 C1421 1.385 . S
C1418 H1399 0.951 . S
C1418 C1416 1.388 . S
C1418 C1419 1.366 . S
C1419 C1418 1.366 . S
C1419 C1420 1.414 . S
C1419 C1422 1.499 . S
C1420 H1400 0.950 . S
C1420 C1419 1.414 . S
C1420 C1421 1.374 . S
C1421 H1401 0.950 . S
C1421 C1417 1.385 . S
C1421 C1420 1.374 . S
C1422 C1419 1.499 . S
C1422 C1423 1.373 . S
C1422 C1424 1.389 1_556 S
C1423 H1402 0.950 . S
C1423 C1422 1.373 . S
C1423 C1439 1.377 . S
C1424 C1422 1.389 1_554 S
C1424 C1425 1.524 . S
C1424 C1438 1.377 . S
C1425 C1424 1.524 . S
C1425 C1426 1.397 . S
C1425 C1430 1.363 . S
C1426 H1403 0.950 1_554 S
C1426 C1425 1.397 . S
C1426 C1427 1.334 . S
C1427 H1404 0.950 . S
C1427 C1426 1.334 . S
C1427 C1428 1.287 . S
C1428 C1427 1.287 . S
C1428 C1429 1.524 . S
C1428 H1447 0.913 . S
C1429 H1405 0.950 . S
C1429 C1428 1.524 . S
C1429 C1430 1.415 . S
C1430 H1406 0.950 . S
C1430 C1425 1.363 . S
C1430 C1429 1.415 . S
C1431 H1407 0.951 . S
C1431 C1432 1.366 . S
C1431 C1433 1.388 . S
C1432 C1431 1.366 . S
C1432 C1436 1.385 . S
C1433 H1408 0.951 1_554 S
C1433 C1431 1.388 . S
C1433 C1434 1.366 . S
C1434 C1433 1.366 . S
C1434 C1435 1.414 . S
C1434 C1437 1.499 . S
C1435 H1409 0.950 . S
C1435 C1434 1.414 . S
C1435 C1436 1.374 . S
C1436 H1410 0.950 . S
C1436 C1432 1.385 . S
C1436 C1435 1.374 . S
C1437 C1434 1.499 . S
C1437 C1438 1.373 . S
C1437 C1439 1.389 1_554 S
C1438 H1411 0.950 . S
C1438 C1424 1.377 . S
C1438 C1437 1.373 . S
C1439 C1423 1.377 . S
C1439 C1437 1.389 1_556 S
C1439 C1440 1.524 . S
C1440 C1439 1.524 . S
C1440 C1441 1.397 . S
C1440 C1445 1.363 . S
C1441 H1412 0.950 . S
C1441 C1440 1.397 . S
C1441 C1442 1.334 . S
C1442 H1413 0.950 . S
C1442 C1441 1.334 . S
C1442 C1443 1.287 . S
C1443 C1442 1.287 . S
C1443 C1444 1.524 . S
C1443 H1446 0.999 . S
C1444 H1414 0.950 . S
C1444 C1443 1.524 . S
C1444 C1445 1.415 . S
C1445 H1415 0.950 . S
C1445 C1440 1.363 . S
C1445 C1444 1.415 . S
H1446 C1443 0.999 . S
H1447 C1428 0.913 . S
H1448 C1466 0.951 . S
H1449 C1468 0.951 . S
H1450 C1470 0.950 . S
H1451 C1471 0.950 . S
H1452 C1473 0.950 . S
H1453 C1476 0.950 . S
H1454 C1477 0.950 . S
H1455 C1479 0.950 . S
H1456 C1480 0.950 . S
H1457 C1481 0.951 . S
H1458 C1483 0.951 . S
H1459 C1485 0.950 . S
H1460 C1486 0.950 . S
H1461 C1488 0.950 . S
H1462 C1491 0.950 . S
H1463 C1492 0.950 . S
H1464 C1494 0.950 . S
H1465 C1495 0.950 . S
C1466 H1448 0.951 . S
C1466 C1467 1.366 . S
C1466 C1468 1.388 . S
C1467 C1466 1.366 . S
C1467 C1471 1.385 . S
C1468 H1449 0.951 . S
C1468 C1466 1.388 . S
C1468 C1469 1.366 . S
C1469 C1468 1.366 . S
C1469 C1470 1.414 . S
C1469 C1472 1.499 . S
C1470 H1450 0.950 . S
C1470 C1469 1.414 . S
C1470 C1471 1.374 . S
C1471 H1451 0.950 . S
C1471 C1467 1.385 . S
C1471 C1470 1.374 . S
C1472 C1469 1.499 . S
C1472 C1473 1.373 . S
C1472 C1474 1.389 1_554 S
C1473 H1452 0.950 . S
C1473 C1472 1.373 . S
C1473 C1489 1.385 . S
C1474 C1472 1.389 1_556 S
C1474 C1475 1.524 . S
C1474 C1488 1.377 . S
C1475 C1474 1.524 . S
C1475 C1476 1.397 . S
C1475 C1480 1.363 . S
C1476 H1453 0.950 . S
C1476 C1475 1.397 . S
C1476 C1477 1.334 . S
C1477 H1454 0.950 . S
C1477 C1476 1.334 . S
C1477 C1478 1.287 . S
C1478 C1477 1.287 . S
C1478 C1479 1.524 . S
C1478 H1497 0.913 . S
C1479 H1455 0.950 . S
C1479 C1478 1.524 . S
C1479 C1480 1.415 . S
C1480 H1456 0.950 . S
C1480 C1475 1.363 . S
C1480 C1479 1.415 . S
C1481 H1457 0.951 . S
C1481 C1482 1.366 . S
C1481 C1483 1.388 . S
C1482 C1481 1.366 . S
C1482 C1486 1.385 . S
C1483 H1458 0.951 . S
C1483 C1481 1.388 . S
C1483 C1484 1.366 . S
C1484 C1483 1.366 . S
C1484 C1485 1.414 . S
C1484 C1487 1.499 . S
C1485 H1459 0.950 . S
C1485 C1484 1.414 . S
C1485 C1486 1.374 . S
C1486 H1460 0.950 . S
C1486 C1482 1.385 . S
C1486 C1485 1.374 . S
C1487 C1484 1.499 . S
C1487 C1488 1.373 . S
C1487 C1489 1.374 1_556 S
C1488 H1461 0.950 . S
C1488 C1474 1.377 . S
C1488 C1487 1.373 . S
C1489 C1473 1.385 . S
C1489 C1487 1.374 1_554 S
C1489 C1490 1.533 . S
C1490 C1489 1.533 . S
C1490 C1491 1.397 . S
C1490 C1495 1.363 . S
C1491 H1462 0.950 . S
C1491 C1490 1.397 . S
C1491 C1492 1.334 . S
C1492 H1463 0.950 . S
C1492 C1491 1.334 . S
C1492 C1493 1.287 . S
C1493 C1492 1.287 . S
C1493 C1494 1.524 . S
C1493 H1496 0.999 . S
C1494 H1464 0.950 . S
C1494 C1493 1.524 . S
C1494 C1495 1.415 . S
C1495 H1465 0.950 . S
C1495 C1490 1.363 . S
C1495 C1494 1.415 . S
H1496 C1493 0.999 . S
H1497 C1478 0.913 . S
H1498 C1516 0.951 . S
H1499 C1518 0.951 . S
H1500 C1520 0.950 . S
H1501 C1521 0.950 . S
H1502 C1523 0.950 . S
H1503 C1526 0.950 . S
H1504 C1527 0.950 . S
H1505 C1529 0.950 . S
H1506 C1530 0.950 . S
H1507 C1531 0.951 . S
H1508 C1533 0.951 . S
H1509 C1535 0.950 . S
H1510 C1536 0.950 . S
H1511 C1538 0.950 . S
H1512 C1541 0.950 . S
H1513 C1542 0.950 . S
H1514 C1544 0.950 . S
H1515 C1545 0.950 . S
C1516 H1498 0.951 . S
C1516 C1517 1.366 . S
C1516 C1518 1.388 . S
C1517 C1516 1.366 . S
C1517 C1521 1.385 . S
C1518 H1499 0.951 . S
C1518 C1516 1.388 . S
C1518 C1519 1.366 . S
C1519 C1518 1.366 . S
C1519 C1520 1.414 . S
C1519 C1522 1.499 . S
C1520 H1500 0.950 . S
C1520 C1519 1.414 . S
C1520 C1521 1.374 . S
C1521 H1501 0.950 . S
C1521 C1517 1.385 . S
C1521 C1520 1.374 . S
C1522 C1519 1.499 . S
C1522 C1523 1.373 . S
C1522 C1524 1.389 . S
C1523 H1502 0.950 . S
C1523 C1522 1.373 . S
C1523 C1539 1.377 . S
C1524 C1522 1.389 . S
C1524 C1525 1.524 . S
C1524 C1538 1.377 . S
C1525 C1524 1.524 . S
C1525 C1526 1.397 . S
C1525 C1530 1.363 . S
C1526 H1503 0.950 . S
C1526 C1525 1.397 . S
C1526 C1527 1.334 . S
C1527 H1504 0.950 . S
C1527 C1526 1.334 . S
C1527 C1528 1.287 . S
C1528 C1527 1.287 . S
C1528 C1529 1.524 . S
C1528 H1547 0.913 . S
C1529 H1505 0.950 . S
C1529 C1528 1.524 . S
C1529 C1530 1.415 . S
C1530 H1506 0.950 . S
C1530 C1525 1.363 . S
C1530 C1529 1.415 . S
C1531 H1507 0.951 . S
C1531 C1532 1.366 . S
C1531 C1533 1.388 . S
C1532 C1531 1.366 . S
C1532 C1536 1.385 . S
C1533 H1508 0.951 . S
C1533 C1531 1.388 . S
C1533 C1534 1.366 . S
C1534 C1533 1.366 . S
C1534 C1535 1.414 . S
C1534 C1537 1.499 . S
C1535 H1509 0.950 . S
C1535 C1534 1.414 . S
C1535 C1536 1.374 . S
C1536 H1510 0.950 . S
C1536 C1532 1.385 . S
C1536 C1535 1.374 . S
C1537 C1534 1.499 . S
C1537 C1538 1.373 . S
C1537 C1539 1.389 . S
C1538 H1511 0.950 . S
C1538 C1524 1.377 . S
C1538 C1537 1.373 . S
C1539 C1523 1.377 . S
C1539 C1537 1.389 . S
C1539 C1540 1.524 . S
C1540 C1539 1.524 . S
C1540 C1541 1.397 . S
C1540 C1545 1.363 . S
C1541 H1512 0.950 . S
C1541 C1540 1.397 . S
C1541 C1542 1.334 . S
C1542 H1513 0.950 . S
C1542 C1541 1.334 . S
C1542 C1543 1.287 . S
C1543 C1542 1.287 . S
C1543 C1544 1.524 . S
C1543 H1546 0.999 . S
C1544 H1514 0.950 . S
C1544 C1543 1.524 . S
C1544 C1545 1.415 . S
C1545 H1515 0.950 . S
C1545 C1540 1.363 . S
C1545 C1544 1.415 . S
H1546 C1543 0.999 . S
H1547 C1528 0.913 . S
H1548 C1566 0.951 . S
H1549 C1568 0.951 . S
H1550 C1570 0.950 . S
H1551 C1571 0.950 . S
H1552 C1573 0.950 . S
H1553 C1576 0.950 . S
H1554 C1577 0.950 . S
H1555 C1579 0.950 . S
H1556 C1580 0.950 . S
H1557 C1581 0.951 . S
H1558 C1583 0.951 . S
H1559 C1585 0.950 . S
H1560 C1586 0.950 . S
H1561 C1588 0.950 . S
H1562 C1591 0.950 . S
H1563 C1592 0.950 . S
H1564 C1594 0.950 . S
H1565 C1595 0.950 . S
C1566 H1548 0.951 . S
C1566 C1567 1.366 . S
C1566 C1568 1.388 . S
C1567 C1566 1.366 . S
C1567 C1571 1.385 . S
C1568 H1549 0.951 . S
C1568 C1566 1.388 . S
C1568 C1569 1.366 . S
C1569 C1568 1.366 . S
C1569 C1570 1.414 . S
C1569 C1572 1.499 . S
C1570 H1550 0.950 . S
C1570 C1569 1.414 . S
C1570 C1571 1.374 . S
C1571 H1551 0.950 . S
C1571 C1567 1.385 . S
C1571 C1570 1.374 . S
C1572 C1569 1.499 . S
C1572 C1573 1.373 . S
C1572 C1574 1.389 . S
C1573 H1552 0.950 . S
C1573 C1572 1.373 . S
C1573 C1589 1.377 . S
C1574 C1572 1.389 . S
C1574 C1575 1.524 . S
C1574 C1588 1.377 . S
C1575 C1574 1.524 . S
C1575 C1576 1.397 . S
C1575 C1580 1.363 . S
C1576 H1553 0.950 . S
C1576 C1575 1.397 . S
C1576 C1577 1.334 . S
C1577 H1554 0.950 . S
C1577 C1576 1.334 . S
C1577 C1578 1.287 . S
C1578 C1577 1.287 . S
C1578 C1579 1.524 . S
C1578 H1597 0.913 . S
C1579 H1555 0.950 . S
C1579 C1578 1.524 . S
C1579 C1580 1.415 . S
C1580 H1556 0.950 . S
C1580 C1575 1.363 . S
C1580 C1579 1.415 . S
C1581 H1557 0.951 . S
C1581 C1582 1.366 . S
C1581 C1583 1.388 . S
C1582 C1581 1.366 . S
C1582 C1586 1.385 . S
C1583 H1558 0.951 . S
C1583 C1581 1.388 . S
C1583 C1584 1.366 . S
C1584 C1583 1.366 . S
C1584 C1585 1.414 . S
C1584 C1587 1.499 . S
C1585 H1559 0.950 . S
C1585 C1584 1.414 . S
C1585 C1586 1.374 . S
C1586 H1560 0.950 . S
C1586 C1582 1.385 . S
C1586 C1585 1.374 . S
C1587 C1584 1.499 . S
C1587 C1588 1.373 . S
C1587 C1589 1.389 . S
C1588 H1561 0.950 . S
C1588 C1574 1.377 . S
C1588 C1587 1.373 . S
C1589 C1573 1.377 . S
C1589 C1587 1.389 . S
C1589 C1590 1.524 . S
C1590 C1589 1.524 . S
C1590 C1591 1.397 . S
C1590 C1595 1.363 . S
C1591 H1562 0.950 . S
C1591 C1590 1.397 . S
C1591 C1592 1.334 . S
C1592 H1563 0.950 . S
C1592 C1591 1.334 . S
C1592 C1593 1.287 . S
C1593 C1592 1.287 . S
C1593 C1594 1.524 . S
C1593 H1596 0.999 . S
C1594 H1564 0.950 . S
C1594 C1593 1.524 . S
C1594 C1595 1.415 . S
C1595 H1565 0.950 . S
C1595 C1590 1.363 . S
C1595 C1594 1.415 . S
H1596 C1593 0.999 . S
H1597 C1578 0.913 . S
H1598 C1616 0.951 . S
H1599 C1618 0.951 . S
H1600 C1620 0.950 . S
H1601 C1621 0.950 . S
H1602 C1623 0.950 . S
H1603 C1626 0.950 . S
H1604 C1627 0.950 . S
H1605 C1629 0.950 . S
H1606 C1630 0.950 . S
H1607 C1631 0.951 . S
H1608 C1633 0.951 . S
H1609 C1635 0.950 . S
H1610 C1636 0.950 . S
H1611 C1638 0.950 1_556 S
H1612 C1641 0.950 . S
H1613 C1642 0.950 . S
H1614 C1644 0.950 . S
H1615 C1645 0.950 . S
C1616 H1598 0.951 . S
C1616 C1617 1.366 . S
C1616 C1618 1.388 . S
C1617 C1616 1.366 . S
C1617 C1621 1.385 . S
C1618 H1599 0.951 . S
C1618 C1616 1.388 . S
C1618 C1619 1.366 . S
C1619 C1618 1.366 . S
C1619 C1620 1.414 . S
C1619 C1622 1.499 . S
C1620 H1600 0.950 . S
C1620 C1619 1.414 . S
C1620 C1621 1.374 . S
C1621 H1601 0.950 . S
C1621 C1617 1.385 . S
C1621 C1620 1.374 . S
C1622 C1619 1.499 . S
C1622 C1623 1.373 1_556 S
C1622 C1624 1.389 . S
C1623 H1602 0.950 . S
C1623 C1622 1.373 1_554 S
C1623 C1639 1.377 . S
C1624 C1622 1.389 . S
C1624 C1625 1.524 . S
C1624 C1638 1.377 1_556 S
C1625 C1624 1.524 . S
C1625 C1626 1.397 . S
C1625 C1630 1.363 . S
C1626 H1603 0.950 . S
C1626 C1625 1.397 . S
C1626 C1627 1.334 . S
C1627 H1604 0.950 . S
C1627 C1626 1.334 . S
C1627 C1628 1.287 . S
C1628 C1627 1.287 . S
C1628 C1629 1.524 . S
C1628 H1647 0.913 . S
C1629 H1605 0.950 . S
C1629 C1628 1.524 . S
C1629 C1630 1.415 . S
C1630 H1606 0.950 . S
C1630 C1625 1.363 . S
C1630 C1629 1.415 . S
C1631 H1607 0.951 . S
C1631 C1632 1.366 . S
C1631 C1633 1.388 . S
C1632 C1631 1.366 . S
C1632 C1636 1.385 . S
C1633 H1608 0.951 . S
C1633 C1631 1.388 . S
C1633 C1634 1.366 . S
C1634 C1633 1.366 . S
C1634 C1635 1.414 . S
C1634 C1637 1.499 . S
C1635 H1609 0.950 . S
C1635 C1634 1.414 . S
C1635 C1636 1.374 . S
C1636 H1610 0.950 . S
C1636 C1632 1.385 . S
C1636 C1635 1.374 . S
C1637 C1634 1.499 . S
C1637 C1638 1.373 . S
C1637 C1639 1.389 . S
C1638 H1611 0.950 1_554 S
C1638 C1624 1.377 1_554 S
C1638 C1637 1.373 . S
C1639 C1623 1.377 . S
C1639 C1637 1.389 . S
C1639 C1640 1.524 . S
C1640 C1639 1.524 . S
C1640 C1641 1.397 . S
C1640 C1645 1.363 . S
C1641 H1612 0.950 . S
C1641 C1640 1.397 . S
C1641 C1642 1.334 . S
C1642 H1613 0.950 . S
C1642 C1641 1.334 . S
C1642 C1643 1.287 . S
C1643 C1642 1.287 . S
C1643 C1644 1.524 . S
C1643 H1646 0.999 . S
C1644 H1614 0.950 . S
C1644 C1643 1.524 . S
C1644 C1645 1.415 . S
C1645 H1615 0.950 . S
C1645 C1640 1.363 . S
C1645 C1644 1.415 . S
H1646 C1643 0.999 . S
H1647 C1628 0.913 . S
H1648 C1666 0.951 . S
H1649 C1668 0.951 . S
H1650 C1670 0.950 . S
H1651 C1671 0.950 . S
H1652 C1673 0.950 . S
H1653 C1676 0.950 . S
H1654 C1677 0.950 . S
H1655 C1679 0.950 . S
H1656 C1680 0.950 . S
H1657 C1681 0.951 . S
H1658 C1683 0.951 . S
H1659 C1685 0.950 . S
H1660 C1686 0.950 . S
H1661 C1688 0.950 . S
H1662 C1691 0.950 . S
H1663 C1692 0.950 . S
H1664 C1694 0.950 . S
H1665 C1695 0.950 . S
C1666 H1648 0.951 . S
C1666 C1667 1.366 . S
C1666 C1668 1.388 . S
C1667 C1666 1.366 . S
C1667 C1671 1.385 . S
C1668 H1649 0.951 . S
C1668 C1666 1.388 . S
C1668 C1669 1.366 . S
C1669 C1668 1.366 . S
C1669 C1670 1.414 . S
C1669 C1672 1.499 . S
C1670 H1650 0.950 . S
C1670 C1669 1.414 . S
C1670 C1671 1.374 . S
C1671 H1651 0.950 . S
C1671 C1667 1.385 . S
C1671 C1670 1.374 . S
C1672 C1669 1.499 . S
C1672 C1673 1.373 . S
C1672 C1674 1.389 . S
C1673 H1652 0.950 . S
C1673 C1672 1.373 . S
C1673 C1689 1.377 . S
C1674 C1672 1.389 . S
C1674 C1675 1.524 . S
C1674 C1688 1.377 . S
C1675 C1674 1.524 . S
C1675 C1676 1.397 . S
C1675 C1680 1.363 . S
C1676 H1653 0.950 . S
C1676 C1675 1.397 . S
C1676 C1677 1.334 . S
C1677 H1654 0.950 . S
C1677 C1676 1.334 . S
C1677 C1678 1.287 . S
C1678 C1677 1.287 . S
C1678 C1679 1.524 . S
C1678 H1697 0.913 . S
C1679 H1655 0.950 . S
C1679 C1678 1.524 . S
C1679 C1680 1.415 . S
C1680 H1656 0.950 . S
C1680 C1675 1.363 . S
C1680 C1679 1.415 . S
C1681 H1657 0.951 . S
C1681 C1682 1.366 . S
C1681 C1683 1.388 . S
C1682 C1681 1.366 . S
C1682 C1686 1.385 . S
C1683 H1658 0.951 . S
C1683 C1681 1.388 . S
C1683 C1684 1.366 . S
C1684 C1683 1.366 . S
C1684 C1685 1.414 . S
C1684 C1687 1.499 . S
C1685 H1659 0.950 . S
C1685 C1684 1.414 . S
C1685 C1686 1.374 . S
C1686 H1660 0.950 . S
C1686 C1682 1.385 . S
C1686 C1685 1.374 . S
C1687 C1684 1.499 . S
C1687 C1688 1.373 . S
C1687 C1689 1.389 . S
C1688 H1661 0.950 . S
C1688 C1674 1.377 . S
C1688 C1687 1.373 . S
C1689 C1673 1.377 . S
C1689 C1687 1.389 . S
C1689 C1690 1.524 . S
C1690 C1689 1.524 . S
C1690 C1691 1.397 . S
C1690 C1695 1.363 . S
C1691 H1662 0.950 . S
C1691 C1690 1.397 . S
C1691 C1692 1.334 . S
C1692 H1663 0.950 . S
C1692 C1691 1.334 . S
C1692 C1693 1.287 . S
C1693 C1692 1.287 . S
C1693 C1694 1.524 . S
C1693 H1696 0.999 . S
C1694 H1664 0.950 . S
C1694 C1693 1.524 . S
C1694 C1695 1.415 . S
C1695 H1665 0.950 . S
C1695 C1690 1.363 . S
C1695 C1694 1.415 . S
H1696 C1693 0.999 . S
H1697 C1678 0.913 . S
H1698 C1716 0.951 . S
H1699 C1718 0.951 . S
H1700 C1720 0.950 . S
H1701 C1721 0.950 . S
H1702 C1723 0.950 . S
H1703 C1726 0.950 . S
H1704 C1727 0.950 . S
H1705 C1729 0.950 . S
H1706 C1730 0.950 . S
H1707 C1731 0.951 . S
H1708 C1733 0.951 . S
H1709 C1735 0.950 . S
H1710 C1736 0.950 . S
H1711 C1738 0.950 . S
H1712 C1741 0.950 . S
H1713 C1742 0.950 . S
H1714 C1744 0.950 . S
H1715 C1745 0.950 . S
C1716 H1698 0.951 . S
C1716 C1717 1.366 . S
C1716 C1718 1.388 . S
C1717 C1716 1.366 . S
C1717 C1721 1.385 . S
C1718 H1699 0.951 . S
C1718 C1716 1.388 . S
C1718 C1719 1.366 . S
C1719 C1718 1.366 . S
C1719 C1720 1.414 . S
C1719 C1722 1.499 . S
C1720 H1700 0.950 . S
C1720 C1719 1.414 . S
C1720 C1721 1.374 . S
C1721 H1701 0.950 . S
C1721 C1717 1.385 . S
C1721 C1720 1.374 . S
C1722 C1719 1.499 . S
C1722 C1723 1.373 1_554 S
C1722 C1724 1.389 . S
C1723 H1702 0.950 . S
C1723 C1722 1.373 1_556 S
C1723 C1739 1.377 . S
C1724 C1722 1.389 . S
C1724 C1725 1.524 . S
C1724 C1738 1.377 1_554 S
C1725 C1724 1.524 . S
C1725 C1726 1.397 . S
C1725 C1730 1.363 . S
C1726 H1703 0.950 . S
C1726 C1725 1.397 . S
C1726 C1727 1.334 . S
C1727 H1704 0.950 . S
C1727 C1726 1.334 . S
C1727 C1728 1.287 . S
C1728 C1727 1.287 . S
C1728 C1729 1.524 . S
C1728 H1747 0.913 . S
C1729 H1705 0.950 . S
C1729 C1728 1.524 . S
C1729 C1730 1.415 . S
C1730 H1706 0.950 . S
C1730 C1725 1.363 . S
C1730 C1729 1.415 . S
C1731 H1707 0.951 . S
C1731 C1732 1.366 . S
C1731 C1733 1.388 . S
C1732 C1731 1.366 . S
C1732 C1736 1.385 . S
C1733 H1708 0.951 . S
C1733 C1731 1.388 . S
C1733 C1734 1.366 . S
C1734 C1733 1.366 . S
C1734 C1735 1.414 . S
C1734 C1737 1.499 . S
C1735 H1709 0.950 . S
C1735 C1734 1.414 . S
C1735 C1736 1.374 . S
C1736 H1710 0.950 . S
C1736 C1732 1.385 . S
C1736 C1735 1.374 . S
C1737 C1734 1.499 . S
C1737 C1738 1.373 . S
C1737 C1739 1.389 . S
C1738 H1711 0.950 . S
C1738 C1724 1.377 1_556 S
C1738 C1737 1.373 . S
C1739 C1723 1.377 . S
C1739 C1737 1.389 . S
C1739 C1740 1.524 . S
C1740 C1739 1.524 . S
C1740 C1741 1.397 . S
C1740 C1745 1.363 . S
C1741 H1712 0.950 . S
C1741 C1740 1.397 . S
C1741 C1742 1.334 . S
C1742 H1713 0.950 . S
C1742 C1741 1.334 . S
C1742 C1743 1.287 . S
C1743 C1742 1.287 . S
C1743 C1744 1.524 . S
C1743 H1746 0.999 . S
C1744 H1714 0.950 . S
C1744 C1743 1.524 . S
C1744 C1745 1.415 . S
C1745 H1715 0.950 . S
C1745 C1740 1.363 . S
C1745 C1744 1.415 . S
H1746 C1743 0.999 . S
H1747 C1728 0.913 . S
H1748 C1766 0.951 . S
H1749 C1768 0.951 . S
H1750 C1770 0.950 . S
H1751 C1771 0.950 . S
H1752 C1773 0.952 . S
H1753 C1776 0.950 . S
H1754 C1777 0.950 . S
H1755 C1779 0.950 . S
H1756 C1780 0.950 . S
H1757 C1781 0.951 . S
H1758 C1783 0.951 . S
H1759 C1785 0.950 . S
H1760 C1786 0.950 . S
H1761 C1788 0.950 . S
H1762 C1791 0.950 . S
H1763 C1792 0.950 . S
H1764 C1794 0.950 . S
H1765 C1795 0.950 . S
C1766 H1748 0.951 . S
C1766 C1767 1.366 . S
C1766 C1768 1.388 . S
C1767 C1766 1.366 . S
C1767 C1771 1.385 . S
C1768 H1749 0.951 . S
C1768 C1766 1.388 . S
C1768 C1769 1.366 . S
C1769 C1768 1.366 . S
C1769 C1770 1.414 . S
C1769 C1772 1.499 . S
C1770 H1750 0.950 . S
C1770 C1769 1.414 . S
C1770 C1771 1.374 . S
C1771 H1751 0.950 . S
C1771 C1767 1.385 . S
C1771 C1770 1.374 . S
C1772 C1769 1.499 . S
C1772 C1773 1.368 1_554 S
C1772 C1774 1.389 . S
C1773 H1752 0.952 . S
C1773 C1772 1.368 1_556 S
C1773 C1789 1.380 . S
C1774 C1772 1.389 . S
C1774 C1775 1.524 . S
C1774 C1788 1.377 . S
C1775 C1774 1.524 . S
C1775 C1776 1.397 . S
C1775 C1780 1.363 . S
C1776 H1753 0.950 . S
C1776 C1775 1.397 . S
C1776 C1777 1.334 . S
C1777 H1754 0.950 . S
C1777 C1776 1.334 . S
C1777 C1778 1.287 . S
C1778 C1777 1.287 . S
C1778 C1779 1.524 . S
C1778 H1797 0.913 . S
C1779 H1755 0.950 . S
C1779 C1778 1.524 . S
C1779 C1780 1.415 . S
C1780 H1756 0.950 . S
C1780 C1775 1.363 . S
C1780 C1779 1.415 . S
C1781 H1757 0.951 . S
C1781 C1782 1.366 . S
C1781 C1783 1.388 . S
C1782 C1781 1.366 . S
C1782 C1786 1.385 . S
C1783 H1758 0.951 . S
C1783 C1781 1.388 . S
C1783 C1784 1.366 . S
C1784 C1783 1.366 . S
C1784 C1785 1.414 . S
C1784 C1787 1.499 . S
C1785 H1759 0.950 . S
C1785 C1784 1.414 . S
C1785 C1786 1.374 . S
C1786 H1760 0.950 . S
C1786 C1782 1.385 . S
C1786 C1785 1.374 . S
C1787 C1784 1.499 . S
C1787 C1788 1.373 1_556 S
C1787 C1789 1.389 . S
C1788 H1761 0.950 . S
C1788 C1774 1.377 . S
C1788 C1787 1.373 1_554 S
C1789 C1773 1.380 . S
C1789 C1787 1.389 . S
C1789 C1790 1.524 . S
C1790 C1789 1.524 . S
C1790 C1791 1.397 . S
C1790 C1795 1.363 . S
C1791 H1762 0.950 . S
C1791 C1790 1.397 . S
C1791 C1792 1.334 . S
C1792 H1763 0.950 . S
C1792 C1791 1.334 . S
C1792 C1793 1.287 . S
C1793 C1792 1.287 . S
C1793 C1794 1.524 . S
C1793 H1796 0.999 . S
C1794 H1764 0.950 . S
C1794 C1793 1.524 . S
C1794 C1795 1.415 . S
C1795 H1765 0.950 . S
C1795 C1790 1.363 . S
C1795 C1794 1.415 . S
H1796 C1793 0.999 . S
H1797 C1778 0.913 . S
H1798 C1816 0.951 . S
H1799 C1818 0.951 . S
H1800 C1820 0.950 . S
H1801 C1821 0.950 . S
H1802 C1823 0.950 . S
H1803 C1826 0.950 . S
H1804 C1827 0.950 . S
H1805 C1829 0.950 . S
H1806 C1830 0.950 . S
H1807 C1831 0.951 . S
H1808 C1833 0.951 . S
H1809 C1835 0.950 . S
H1810 C1836 0.950 . S
H1811 C1838 0.950 . S
H1812 C1841 0.950 . S
H1813 C1842 0.950 . S
H1814 C1844 0.950 . S
H1815 C1845 0.950 . S
C1816 H1798 0.951 . S
C1816 C1817 1.366 . S
C1816 C1818 1.388 . S
C1817 C1816 1.366 . S
C1817 C1821 1.385 . S
C1818 H1799 0.951 . S
C1818 C1816 1.388 . S
C1818 C1819 1.366 . S
C1819 C1818 1.366 . S
C1819 C1820 1.414 . S
C1819 C1822 1.499 . S
C1820 H1800 0.950 . S
C1820 C1819 1.414 . S
C1820 C1821 1.374 . S
C1821 H1801 0.950 . S
C1821 C1817 1.385 . S
C1821 C1820 1.374 . S
C1822 C1819 1.499 . S
C1822 C1823 1.373 . S
C1822 C1824 1.389 . S
C1823 H1802 0.950 . S
C1823 C1822 1.373 . S
C1823 C1839 1.377 . S
C1824 C1822 1.389 . S
C1824 C1825 1.524 . S
C1824 C1838 1.377 . S
C1825 C1824 1.524 . S
C1825 C1826 1.397 . S
C1825 C1830 1.363 . S
C1826 H1803 0.950 . S
C1826 C1825 1.397 . S
C1826 C1827 1.334 . S
C1827 H1804 0.950 . S
C1827 C1826 1.334 . S
C1827 C1828 1.287 . S
C1828 C1827 1.287 . S
C1828 C1829 1.524 . S
C1828 H1847 0.913 . S
C1829 H1805 0.950 . S
C1829 C1828 1.524 . S
C1829 C1830 1.415 . S
C1830 H1806 0.950 . S
C1830 C1825 1.363 . S
C1830 C1829 1.415 . S
C1831 H1807 0.951 . S
C1831 C1832 1.366 . S
C1831 C1833 1.388 . S
C1832 C1831 1.366 . S
C1832 C1836 1.385 . S
C1833 H1808 0.951 . S
C1833 C1831 1.388 . S
C1833 C1834 1.366 . S
C1834 C1833 1.366 . S
C1834 C1835 1.414 . S
C1834 C1837 1.499 . S
C1835 H1809 0.950 . S
C1835 C1834 1.414 . S
C1835 C1836 1.374 . S
C1836 H1810 0.950 . S
C1836 C1832 1.385 . S
C1836 C1835 1.374 . S
C1837 C1834 1.499 . S
C1837 C1838 1.373 . S
C1837 C1839 1.389 . S
C1838 H1811 0.950 . S
C1838 C1824 1.377 . S
C1838 C1837 1.373 . S
C1839 C1823 1.377 . S
C1839 C1837 1.389 . S
C1839 C1840 1.524 . S
C1840 C1839 1.524 . S
C1840 C1841 1.397 . S
C1840 C1845 1.363 . S
C1841 H1812 0.950 . S
C1841 C1840 1.397 . S
C1841 C1842 1.334 . S
C1842 H1813 0.950 . S
C1842 C1841 1.334 . S
C1842 C1843 1.287 . S
C1843 C1842 1.287 . S
C1843 C1844 1.524 . S
C1843 H1846 0.999 . S
C1844 H1814 0.950 . S
C1844 C1843 1.524 . S
C1844 C1845 1.415 . S
C1845 H1815 0.950 . S
C1845 C1840 1.363 . S
C1845 C1844 1.415 . S
H1846 C1843 0.999 . S
H1847 C1828 0.913 . S
H1848 C1866 0.951 . S
H1849 C1868 0.951 . S
H1850 C1870 0.950 . S
H1851 C1871 0.950 . S
H1852 C1873 0.950 . S
H1853 C1876 0.950 . S
H1854 C1877 0.950 . S
H1855 C1879 0.950 . S
H1856 C1880 0.950 . S
H1857 C1881 0.951 . S
H1858 C1883 0.951 . S
H1859 C1885 0.950 . S
H1860 C1886 0.950 . S
H1861 C1888 0.950 . S
H1862 C1891 0.950 . S
H1863 C1892 0.950 . S
H1864 C1894 0.950 . S
H1865 C1895 0.950 . S
C1866 H1848 0.951 . S
C1866 C1867 1.366 . S
C1866 C1868 1.388 . S
C1867 C1866 1.366 . S
C1867 C1871 1.385 . S
C1868 H1849 0.951 . S
C1868 C1866 1.388 . S
C1868 C1869 1.366 . S
C1869 C1868 1.366 . S
C1869 C1870 1.414 . S
C1869 C1872 1.499 . S
C1870 H1850 0.950 . S
C1870 C1869 1.414 . S
C1870 C1871 1.374 . S
C1871 H1851 0.950 . S
C1871 C1867 1.385 . S
C1871 C1870 1.374 . S
C1872 C1869 1.499 . S
C1872 C1873 1.373 . S
C1872 C1874 1.389 . S
C1873 H1852 0.950 . S
C1873 C1872 1.373 . S
C1873 C1889 1.377 . S
C1874 C1872 1.389 . S
C1874 C1875 1.524 . S
C1874 C1888 1.377 . S
C1875 C1874 1.524 . S
C1875 C1876 1.397 . S
C1875 C1880 1.363 . S
C1876 H1853 0.950 . S
C1876 C1875 1.397 . S
C1876 C1877 1.334 . S
C1877 H1854 0.950 . S
C1877 C1876 1.334 . S
C1877 C1878 1.287 . S
C1878 C1877 1.287 . S
C1878 C1879 1.524 . S
C1878 H1897 0.913 . S
C1879 H1855 0.950 . S
C1879 C1878 1.524 . S
C1879 C1880 1.415 . S
C1880 H1856 0.950 . S
C1880 C1875 1.363 . S
C1880 C1879 1.415 . S
C1881 H1857 0.951 . S
C1881 C1882 1.366 . S
C1881 C1883 1.388 . S
C1882 C1881 1.366 . S
C1882 C1886 1.385 . S
C1883 H1858 0.951 . S
C1883 C1881 1.388 . S
C1883 C1884 1.366 . S
C1884 C1883 1.366 . S
C1884 C1885 1.414 . S
C1884 C1887 1.499 . S
C1885 H1859 0.950 . S
C1885 C1884 1.414 . S
C1885 C1886 1.374 . S
C1886 H1860 0.950 . S
C1886 C1882 1.385 . S
C1886 C1885 1.374 . S
C1887 C1884 1.499 . S
C1887 C1888 1.373 . S
C1887 C1889 1.389 . S
C1888 H1861 0.950 . S
C1888 C1874 1.377 . S
C1888 C1887 1.373 . S
C1889 C1873 1.377 . S
C1889 C1887 1.389 . S
C1889 C1890 1.524 . S
C1890 C1889 1.524 . S
C1890 C1891 1.397 . S
C1890 C1895 1.363 . S
C1891 H1862 0.950 . S
C1891 C1890 1.397 . S
C1891 C1892 1.334 . S
C1892 H1863 0.950 . S
C1892 C1891 1.334 . S
C1892 C1893 1.287 . S
C1893 C1892 1.287 . S
C1893 C1894 1.524 . S
C1893 H1896 0.999 . S
C1894 H1864 0.950 . S
C1894 C1893 1.524 . S
C1894 C1895 1.415 . S
C1895 H1865 0.950 . S
C1895 C1890 1.363 . S
C1895 C1894 1.415 . S
H1896 C1893 0.999 . S
H1897 C1878 0.913 . S
H1898 C1916 0.951 . S
H1899 C1918 0.951 . S
H1900 C1920 0.950 . S
H1901 C1921 0.950 . S
H1902 C1923 0.950 . S
H1903 C1926 0.950 . S
H1904 C1927 0.950 . S
H1905 C1929 0.950 . S
H1906 C1930 0.950 1_554 S
H1907 C1931 0.951 . S
H1908 C1933 0.951 . S
H1909 C1935 0.950 . S
H1910 C1936 0.950 . S
H1911 C1938 0.950 . S
H1912 C1941 0.950 . S
H1913 C1942 0.950 . S
H1914 C1944 0.950 . S
H1915 C1945 0.950 . S
C1916 H1898 0.951 . S
C1916 C1917 1.366 . S
C1916 C1918 1.388 . S
C1917 C1916 1.366 . S
C1917 C1921 1.385 . S
C1918 H1899 0.951 . S
C1918 C1916 1.388 . S
C1918 C1919 1.366 . S
C1919 C1918 1.366 . S
C1919 C1920 1.414 . S
C1919 C1922 1.499 . S
C1920 H1900 0.950 . S
C1920 C1919 1.414 . S
C1920 C1921 1.374 . S
C1921 H1901 0.950 . S
C1921 C1917 1.385 . S
C1921 C1920 1.374 . S
C1922 C1919 1.499 . S
C1922 C1923 1.373 1_556 S
C1922 C1924 1.389 . S
C1923 H1902 0.950 . S
C1923 C1922 1.373 1_554 S
C1923 C1939 1.377 . S
C1924 C1922 1.389 . S
C1924 C1925 1.524 . S
C1924 C1938 1.377 1_556 S
C1925 C1924 1.524 . S
C1925 C1926 1.397 . S
C1925 C1930 1.363 . S
C1926 H1903 0.950 . S
C1926 C1925 1.397 . S
C1926 C1927 1.334 . S
C1927 H1904 0.950 . S
C1927 C1926 1.334 . S
C1927 C1928 1.287 . S
C1928 C1927 1.287 . S
C1928 C1929 1.524 . S
C1928 H1947 0.913 . S
C1929 H1905 0.950 . S
C1929 C1928 1.524 . S
C1929 C1930 1.415 . S
C1930 H1906 0.950 1_556 S
C1930 C1925 1.363 . S
C1930 C1929 1.415 . S
C1931 H1907 0.951 . S
C1931 C1932 1.366 . S
C1931 C1933 1.388 . S
C1932 C1931 1.366 . S
C1932 C1936 1.385 . S
C1933 H1908 0.951 . S
C1933 C1931 1.388 . S
C1933 C1934 1.366 . S
C1934 C1933 1.366 . S
C1934 C1935 1.414 . S
C1934 C1937 1.499 . S
C1935 H1909 0.950 . S
C1935 C1934 1.414 . S
C1935 C1936 1.374 . S
C1936 H1910 0.950 . S
C1936 C1932 1.385 . S
C1936 C1935 1.374 . S
C1937 C1934 1.499 . S
C1937 C1938 1.373 . S
C1937 C1939 1.389 . S
C1938 H1911 0.950 . S
C1938 C1924 1.377 1_554 S
C1938 C1937 1.373 . S
C1939 C1923 1.377 . S
C1939 C1937 1.389 . S
C1939 C1940 1.524 . S
C1940 C1939 1.524 . S
C1940 C1941 1.397 . S
C1940 C1945 1.363 . S
C1941 H1912 0.950 . S
C1941 C1940 1.397 . S
C1941 C1942 1.334 . S
C1942 H1913 0.950 . S
C1942 C1941 1.334 . S
C1942 C1943 1.287 . S
C1943 C1942 1.287 . S
C1943 C1944 1.524 . S
C1943 H1946 0.999 . S
C1944 H1914 0.950 . S
C1944 C1943 1.524 . S
C1944 C1945 1.415 . S
C1945 H1915 0.950 . S
C1945 C1940 1.363 . S
C1945 C1944 1.415 . S
H1946 C1943 0.999 . S
H1947 C1928 0.913 . S
H1948 C1966 0.951 . S
H1949 C1968 0.951 . S
H1950 C1970 0.950 . S
H1951 C1971 0.950 . S
H1952 C1973 0.950 . S
H1953 C1976 0.950 . S
H1954 C1977 0.950 . S
H1955 C1979 0.950 . S
H1956 C1980 0.950 1_554 S
H1957 C1981 0.951 . S
H1958 C1983 0.951 1_556 S
H1959 C1985 0.950 . S
H1960 C1986 0.950 . S
H1961 C1988 0.950 1_554 S
H1962 C1991 0.950 . S
H1963 C1992 0.950 . S
H1964 C1994 0.950 . S
H1965 C1995 0.950 . S
C1966 H1948 0.951 . S
C1966 C1967 1.366 . S
C1966 C1968 1.388 . S
C1967 C1966 1.366 . S
C1967 C1971 1.385 . S
C1968 H1949 0.951 . S
C1968 C1966 1.388 . S
C1968 C1969 1.366 . S
C1969 C1968 1.366 . S
C1969 C1970 1.414 . S
C1969 C1972 1.499 . S
C1970 H1950 0.950 . S
C1970 C1969 1.414 . S
C1970 C1971 1.374 . S
C1971 H1951 0.950 . S
C1971 C1967 1.385 . S
C1971 C1970 1.374 . S
C1972 C1969 1.499 . S
C1972 C1973 1.373 . S
C1972 C1974 1.389 . S
C1973 H1952 0.950 . S
C1973 C1972 1.373 . S
C1973 C1989 1.377 . S
C1974 C1972 1.389 . S
C1974 C1975 1.524 . S
C1974 C1988 1.377 . S
C1975 C1974 1.524 . S
C1975 C1976 1.397 . S
C1975 C1980 1.363 . S
C1976 H1953 0.950 . S
C1976 C1975 1.397 . S
C1976 C1977 1.334 . S
C1977 H1954 0.950 . S
C1977 C1976 1.334 . S
C1977 C1978 1.287 . S
C1978 C1977 1.287 . S
C1978 C1979 1.524 . S
C1978 H1997 0.913 . S
C1979 H1955 0.950 . S
C1979 C1978 1.524 . S
C1979 C1980 1.415 . S
C1980 H1956 0.950 1_556 S
C1980 C1975 1.363 . S
C1980 C1979 1.415 . S
C1981 H1957 0.951 . S
C1981 C1982 1.366 . S
C1981 C1983 1.388 . S
C1982 C1981 1.366 . S
C1982 C1986 1.385 . S
C1983 H1958 0.951 1_554 S
C1983 C1981 1.388 . S
C1983 C1984 1.366 . S
C1984 C1983 1.366 . S
C1984 C1985 1.414 . S
C1984 C1987 1.499 . S
C1985 H1959 0.950 . S
C1985 C1984 1.414 . S
C1985 C1986 1.374 . S
C1986 H1960 0.950 . S
C1986 C1982 1.385 . S
C1986 C1985 1.374 . S
C1987 C1984 1.499 . S
C1987 C1988 1.373 1_554 S
C1987 C1989 1.389 1_554 S
C1988 H1961 0.950 1_556 S
C1988 C1974 1.377 . S
C1988 C1987 1.373 1_556 S
C1989 C1973 1.377 . S
C1989 C1987 1.389 1_556 S
C1989 C1990 1.524 1_556 S
C1990 C1989 1.524 1_554 S
C1990 C1991 1.397 . S
C1990 C1995 1.363 1_554 S
C1991 H1962 0.950 . S
C1991 C1990 1.397 . S
C1991 C1992 1.334 . S
C1992 H1963 0.950 . S
C1992 C1991 1.334 . S
C1992 C1993 1.287 . S
C1993 C1992 1.287 . S
C1993 C1994 1.524 1_554 S
C1993 H1996 0.999 . S
C1994 H1964 0.950 . S
C1994 C1993 1.524 1_556 S
C1994 C1995 1.415 . S
C1995 H1965 0.950 . S
C1995 C1990 1.363 1_556 S
C1995 C1994 1.415 . S
H1996 C1993 0.999 . S
H1997 C1978 0.913 . S
H1998 C2016 0.951 . S
H1999 C2018 0.951 . S
H2000 C2020 0.950 . S
H2001 C2021 0.950 . S
H2002 C2023 0.950 . S
H2003 C2026 0.950 . S
H2004 C2027 0.950 . S
H2005 C2029 0.950 . S
H2006 C2030 0.950 . S
H2007 C2031 0.951 . S
H2008 C2033 0.951 . S
H2009 C2035 0.950 . S
H2010 C2036 0.950 . S
H2011 C2038 0.950 . S
H2012 C2041 0.950 . S
H2013 C2042 0.950 . S
H2014 C2044 0.950 . S
H2015 C2045 0.950 . S
C2016 H1998 0.951 . S
C2016 C2017 1.366 . S
C2016 C2018 1.388 . S
C2017 C2016 1.366 . S
C2017 C2021 1.385 . S
C2018 H1999 0.951 . S
C2018 C2016 1.388 . S
C2018 C2019 1.366 . S
C2019 C2018 1.366 . S
C2019 C2020 1.414 . S
C2019 C2022 1.499 . S
C2020 H2000 0.950 . S
C2020 C2019 1.414 . S
C2020 C2021 1.374 . S
C2021 H2001 0.950 . S
C2021 C2017 1.385 . S
C2021 C2020 1.374 . S
C2022 C2019 1.499 . S
C2022 C2023 1.373 . S
C2022 C2024 1.389 . S
C2023 H2002 0.950 . S
C2023 C2022 1.373 . S
C2023 C2039 1.377 . S
C2024 C2022 1.389 . S
C2024 C2025 1.524 . S
C2024 C2038 1.377 . S
C2025 C2024 1.524 . S
C2025 C2026 1.397 . S
C2025 C2030 1.363 . S
C2026 H2003 0.950 . S
C2026 C2025 1.397 . S
C2026 C2027 1.334 . S
C2027 H2004 0.950 . S
C2027 C2026 1.334 . S
C2027 C2028 1.287 . S
C2028 C2027 1.287 . S
C2028 C2029 1.524 . S
C2028 H2047 0.913 . S
C2029 H2005 0.950 . S
C2029 C2028 1.524 . S
C2029 C2030 1.415 . S
C2030 H2006 0.950 . S
C2030 C2025 1.363 . S
C2030 C2029 1.415 . S
C2031 H2007 0.951 . S
C2031 C2032 1.366 . S
C2031 C2033 1.388 . S
C2032 C2031 1.366 . S
C2032 C2036 1.385 . S
C2033 H2008 0.951 . S
C2033 C2031 1.388 . S
C2033 C2034 1.366 . S
C2034 C2033 1.366 . S
C2034 C2035 1.414 . S
C2034 C2037 1.499 . S
C2035 H2009 0.950 . S
C2035 C2034 1.414 . S
C2035 C2036 1.374 . S
C2036 H2010 0.950 . S
C2036 C2032 1.385 . S
C2036 C2035 1.374 . S
C2037 C2034 1.499 . S
C2037 C2038 1.373 . S
C2037 C2039 1.389 . S
C2038 H2011 0.950 . S
C2038 C2024 1.377 . S
C2038 C2037 1.373 . S
C2039 C2023 1.377 . S
C2039 C2037 1.389 . S
C2039 C2040 1.524 . S
C2040 C2039 1.524 . S
C2040 C2041 1.397 . S
C2040 C2045 1.363 . S
C2041 H2012 0.950 . S
C2041 C2040 1.397 . S
C2041 C2042 1.334 . S
C2042 H2013 0.950 . S
C2042 C2041 1.334 . S
C2042 C2043 1.287 . S
C2043 C2042 1.287 . S
C2043 C2044 1.524 . S
C2043 H2046 0.999 . S
C2044 H2014 0.950 . S
C2044 C2043 1.524 . S
C2044 C2045 1.415 . S
C2045 H2015 0.950 . S
C2045 C2040 1.363 . S
C2045 C2044 1.415 . S
H2046 C2043 0.999 . S
H2047 C2028 0.913 . S
H2048 C2066 0.951 . S
H2049 C2068 0.951 . S
H2050 C2070 0.950 . S
H2051 C2071 0.950 . S
H2052 C2073 0.950 1_554 S
H2053 C2076 0.950 . S
H2054 C2077 0.950 . S
H2055 C2079 0.950 . S
H2056 C2080 0.950 . S
H2057 C2081 0.951 . S
H2058 C2083 0.951 . S
H2059 C2085 0.950 . S
H2060 C2086 0.950 . S
H2061 C2088 0.950 . S
H2062 C2091 0.950 . S
H2063 C2092 0.950 . S
H2064 C2094 0.950 . S
H2065 C2095 0.950 . S
C2066 H2048 0.951 . S
C2066 C2067 1.366 . S
C2066 C2068 1.388 . S
C2067 C2066 1.366 . S
C2067 C2071 1.385 . S
C2068 H2049 0.951 . S
C2068 C2066 1.388 . S
C2068 C2069 1.366 . S
C2069 C2068 1.366 . S
C2069 C2070 1.414 . S
C2069 C2072 1.499 1_554 S
C2070 H2050 0.950 . S
C2070 C2069 1.414 . S
C2070 C2071 1.374 . S
C2071 H2051 0.950 . S
C2071 C2067 1.385 . S
C2071 C2070 1.374 . S
C2072 C2069 1.499 1_556 S
C2072 C2073 1.373 . S
C2072 C2074 1.389 . S
C2073 H2052 0.950 1_556 S
C2073 C2072 1.373 . S
C2073 C2089 1.377 . S
C2074 C2072 1.389 . S
C2074 C2075 1.524 . S
C2074 C2088 1.377 . S
C2075 C2074 1.524 . S
C2075 C2076 1.397 . S
C2075 C2080 1.363 . S
C2076 H2053 0.950 . S
C2076 C2075 1.397 . S
C2076 C2077 1.334 . S
C2077 H2054 0.950 . S
C2077 C2076 1.334 . S
C2077 C2078 1.287 . S
C2078 C2077 1.287 . S
C2078 C2079 1.524 . S
C2078 H2097 0.913 . S
C2079 H2055 0.950 . S
C2079 C2078 1.524 . S
C2079 C2080 1.415 . S
C2080 H2056 0.950 . S
C2080 C2075 1.363 . S
C2080 C2079 1.415 . S
C2081 H2057 0.951 . S
C2081 C2082 1.366 . S
C2081 C2083 1.388 . S
C2082 C2081 1.366 . S
C2082 C2086 1.385 . S
C2083 H2058 0.951 . S
C2083 C2081 1.388 . S
C2083 C2084 1.366 . S
C2084 C2083 1.366 . S
C2084 C2085 1.414 . S
C2084 C2087 1.499 . S
C2085 H2059 0.950 . S
C2085 C2084 1.414 . S
C2085 C2086 1.374 . S
C2086 H2060 0.950 . S
C2086 C2082 1.385 . S
C2086 C2085 1.374 . S
C2087 C2084 1.499 . S
C2087 C2088 1.373 . S
C2087 C2089 1.389 . S
C2088 H2061 0.950 . S
C2088 C2074 1.377 . S
C2088 C2087 1.373 . S
C2089 C2073 1.377 . S
C2089 C2087 1.389 . S
C2089 C2090 1.524 . S
C2090 C2089 1.524 . S
C2090 C2091 1.397 . S
C2090 C2095 1.363 . S
C2091 H2062 0.950 . S
C2091 C2090 1.397 . S
C2091 C2092 1.334 . S
C2092 H2063 0.950 . S
C2092 C2091 1.334 . S
C2092 C2093 1.287 . S
C2093 C2092 1.287 . S
C2093 C2094 1.524 . S
C2093 H2096 0.999 . S
C2094 H2064 0.950 . S
C2094 C2093 1.524 . S
C2094 C2095 1.415 . S
C2095 H2065 0.950 . S
C2095 C2090 1.363 . S
C2095 C2094 1.415 . S
H2096 C2093 0.999 . S
H2097 C2078 0.913 . S
H2098 C2116 0.951 . S
H2099 C2118 0.951 . S
H2100 C2120 0.950 . S
H2101 C2121 0.950 . S
H2102 C2123 0.950 . S
H2103 C2126 0.950 . S
H2104 C2127 0.950 . S
H2105 C2129 0.950 . S
H2106 C2130 0.950 . S
H2107 C2131 0.951 . S
H2108 C2133 0.951 . S
H2109 C2135 0.950 . S
H2110 C2136 0.950 . S
H2111 C2138 0.950 . S
H2112 C2141 0.950 . S
H2113 C2142 0.950 . S
H2114 C2144 0.950 . S
H2115 C2145 0.950 . S
C2116 H2098 0.951 . S
C2116 C2117 1.366 . S
C2116 C2118 1.388 . S
C2117 C2116 1.366 . S
C2117 C2121 1.385 . S
C2118 H2099 0.951 . S
C2118 C2116 1.388 . S
C2118 C2119 1.366 . S
C2119 C2118 1.366 . S
C2119 C2120 1.414 . S
C2119 C2122 1.499 . S
C2120 H2100 0.950 . S
C2120 C2119 1.414 . S
C2120 C2121 1.374 . S
C2121 H2101 0.950 . S
C2121 C2117 1.385 . S
C2121 C2120 1.374 . S
C2122 C2119 1.499 . S
C2122 C2123 1.373 . S
C2122 C2124 1.389 . S
C2123 H2102 0.950 . S
C2123 C2122 1.373 . S
C2123 C2139 1.377 1_655 S
C2124 C2122 1.389 . S
C2124 C2125 1.524 . S
C2124 C2138 1.377 1_655 S
C2125 C2124 1.524 . S
C2125 C2126 1.397 . S
C2125 C2130 1.363 . S
C2126 H2103 0.950 . S
C2126 C2125 1.397 . S
C2126 C2127 1.334 . S
C2127 H2104 0.950 . S
C2127 C2126 1.334 . S
C2127 C2128 1.287 . S
C2128 C2127 1.287 . S
C2128 C2129 1.524 . S
C2128 H2147 0.913 . S
C2129 H2105 0.950 . S
C2129 C2128 1.524 . S
C2129 C2130 1.415 . S
C2130 H2106 0.950 . S
C2130 C2125 1.363 . S
C2130 C2129 1.415 . S
C2131 H2107 0.951 . S
C2131 C2132 1.366 . S
C2131 C2133 1.388 . S
C2132 C2131 1.366 . S
C2132 C2136 1.385 . S
C2133 H2108 0.951 . S
C2133 C2131 1.388 . S
C2133 C2134 1.366 . S
C2134 C2133 1.366 . S
C2134 C2135 1.414 . S
C2134 C2137 1.499 . S
C2135 H2109 0.950 . S
C2135 C2134 1.414 . S
C2135 C2136 1.374 . S
C2136 H2110 0.950 . S
C2136 C2132 1.385 . S
C2136 C2135 1.374 . S
C2137 C2134 1.499 . S
C2137 C2138 1.373 . S
C2137 C2139 1.389 . S
C2138 H2111 0.950 . S
C2138 C2124 1.377 1_455 S
C2138 C2137 1.373 . S
C2139 C2123 1.377 1_455 S
C2139 C2137 1.389 . S
C2139 C2140 1.524 . S
C2140 C2139 1.524 . S
C2140 C2141 1.397 . S
C2140 C2145 1.363 . S
C2141 H2112 0.950 . S
C2141 C2140 1.397 . S
C2141 C2142 1.334 . S
C2142 H2113 0.950 . S
C2142 C2141 1.334 . S
C2142 C2143 1.287 . S
C2143 C2142 1.287 . S
C2143 C2144 1.524 . S
C2143 H2146 0.999 . S
C2144 H2114 0.950 . S
C2144 C2143 1.524 . S
C2144 C2145 1.415 . S
C2145 H2115 0.950 . S
C2145 C2140 1.363 . S
C2145 C2144 1.415 . S
H2146 C2143 0.999 . S
H2147 C2128 0.913 . S
H2148 C2166 0.951 . S
H2149 C2168 0.951 . S
H2150 C2170 0.950 . S
H2151 C2171 0.950 . S
H2152 C2173 0.950 . S
H2153 C2176 0.950 . S
H2154 C2177 0.950 . S
H2155 C2179 0.950 . S
H2156 C2180 0.950 . S
H2157 C2181 0.951 . S
H2158 C2183 0.951 . S
H2159 C2185 0.950 . S
H2160 C2186 0.950 . S
H2161 C2188 0.950 . S
H2162 C2191 0.950 . S
H2163 C2192 0.950 . S
H2164 C2194 0.950 . S
H2165 C2195 0.950 . S
C2166 H2148 0.951 . S
C2166 C2167 1.366 . S
C2166 C2168 1.388 . S
C2167 C2166 1.366 . S
C2167 C2171 1.385 . S
C2168 H2149 0.951 . S
C2168 C2166 1.388 . S
C2168 C2169 1.366 . S
C2169 C2168 1.366 . S
C2169 C2170 1.414 . S
C2169 C2172 1.499 . S
C2170 H2150 0.950 . S
C2170 C2169 1.414 . S
C2170 C2171 1.374 . S
C2171 H2151 0.950 . S
C2171 C2167 1.385 . S
C2171 C2170 1.374 . S
C2172 C2169 1.499 . S
C2172 C2173 1.373 . S
C2172 C2174 1.389 . S
C2173 H2152 0.950 . S
C2173 C2172 1.373 . S
C2173 C2189 1.377 . S
C2174 C2172 1.389 . S
C2174 C2175 1.524 . S
C2174 C2188 1.377 . S
C2175 C2174 1.524 . S
C2175 C2176 1.397 . S
C2175 C2180 1.363 . S
C2176 H2153 0.950 . S
C2176 C2175 1.397 . S
C2176 C2177 1.334 . S
C2177 H2154 0.950 . S
C2177 C2176 1.334 . S
C2177 C2178 1.287 . S
C2178 C2177 1.287 . S
C2178 C2179 1.524 . S
C2178 H2197 0.913 . S
C2179 H2155 0.950 . S
C2179 C2178 1.524 . S
C2179 C2180 1.415 . S
C2180 H2156 0.950 . S
C2180 C2175 1.363 . S
C2180 C2179 1.415 . S
C2181 H2157 0.951 . S
C2181 C2182 1.366 . S
C2181 C2183 1.388 . S
C2182 C2181 1.366 . S
C2182 C2186 1.385 . S
C2183 H2158 0.951 . S
C2183 C2181 1.388 . S
C2183 C2184 1.366 . S
C2184 C2183 1.366 . S
C2184 C2185 1.414 . S
C2184 C2187 1.499 . S
C2185 H2159 0.950 . S
C2185 C2184 1.414 . S
C2185 C2186 1.374 . S
C2186 H2160 0.950 . S
C2186 C2182 1.385 . S
C2186 C2185 1.374 . S
C2187 C2184 1.499 . S
C2187 C2188 1.373 . S
C2187 C2189 1.389 . S
C2188 H2161 0.950 . S
C2188 C2174 1.377 . S
C2188 C2187 1.373 . S
C2189 C2173 1.377 . S
C2189 C2187 1.389 . S
C2189 C2190 1.524 . S
C2190 C2189 1.524 . S
C2190 C2191 1.397 . S
C2190 C2195 1.363 . S
C2191 H2162 0.950 . S
C2191 C2190 1.397 . S
C2191 C2192 1.334 . S
C2192 H2163 0.950 . S
C2192 C2191 1.334 . S
C2192 C2193 1.287 . S
C2193 C2192 1.287 . S
C2193 C2194 1.524 . S
C2193 H2196 0.999 . S
C2194 H2164 0.950 . S
C2194 C2193 1.524 . S
C2194 C2195 1.415 . S
C2195 H2165 0.950 . S
C2195 C2190 1.363 . S
C2195 C2194 1.415 . S
H2196 C2193 0.999 . S
H2197 C2178 0.913 . S
H2198 C2216 0.951 . S
H2199 C2218 0.951 . S
H2200 C2220 0.950 . S
H2201 C2221 0.950 . S
H2202 C2223 0.950 . S
H2203 C2226 0.950 . S
H2204 C2227 0.950 . S
H2205 C2229 0.950 . S
H2206 C2230 0.950 . S
H2207 C2231 0.951 . S
H2208 C2233 0.951 1_556 S
H2209 C2235 0.950 . S
H2210 C2236 0.950 . S
H2211 C2238 0.950 . S
H2212 C2241 0.950 . S
H2213 C2242 0.950 . S
H2214 C2244 0.950 . S
H2215 C2245 0.950 1_556 S
C2216 H2198 0.951 . S
C2216 C2217 1.366 . S
C2216 C2218 1.388 . S
C2217 C2216 1.366 . S
C2217 C2221 1.385 . S
C2218 H2199 0.951 . S
C2218 C2216 1.388 . S
C2218 C2219 1.366 . S
C2219 C2218 1.366 . S
C2219 C2220 1.414 . S
C2219 C2222 1.499 . S
C2220 H2200 0.950 . S
C2220 C2219 1.414 . S
C2220 C2221 1.374 . S
C2221 H2201 0.950 . S
C2221 C2217 1.385 . S
C2221 C2220 1.374 . S
C2222 C2219 1.499 . S
C2222 C2223 1.373 . S
C2222 C2224 1.389 . S
C2223 H2202 0.950 . S
C2223 C2222 1.373 . S
C2223 C2239 1.377 . S
C2224 C2222 1.389 . S
C2224 C2225 1.524 . S
C2224 C2238 1.377 . S
C2225 C2224 1.524 . S
C2225 C2226 1.397 . S
C2225 C2230 1.363 . S
C2226 H2203 0.950 . S
C2226 C2225 1.397 . S
C2226 C2227 1.334 . S
C2227 H2204 0.950 . S
C2227 C2226 1.334 . S
C2227 C2228 1.287 . S
C2228 C2227 1.287 . S
C2228 C2229 1.524 . S
C2228 H2247 0.913 . S
C2229 H2205 0.950 . S
C2229 C2228 1.524 . S
C2229 C2230 1.415 . S
C2230 H2206 0.950 . S
C2230 C2225 1.363 . S
C2230 C2229 1.415 . S
C2231 H2207 0.951 . S
C2231 C2232 1.366 . S
C2231 C2233 1.388 . S
C2232 C2231 1.366 . S
C2232 C2236 1.385 . S
C2233 H2208 0.951 1_554 S
C2233 C2231 1.388 . S
C2233 C2234 1.366 1_554 S
C2234 C2233 1.366 1_556 S
C2234 C2235 1.414 . S
C2234 C2237 1.499 . S
C2235 H2209 0.950 . S
C2235 C2234 1.414 . S
C2235 C2236 1.374 1_556 S
C2236 H2210 0.950 . S
C2236 C2232 1.385 . S
C2236 C2235 1.374 1_554 S
C2237 C2234 1.499 . S
C2237 C2238 1.373 . S
C2237 C2239 1.389 . S
C2238 H2211 0.950 . S
C2238 C2224 1.377 . S
C2238 C2237 1.373 . S
C2239 C2223 1.377 . S
C2239 C2237 1.389 . S
C2239 C2240 1.524 1_556 S
C2240 C2239 1.524 1_554 S
C2240 C2241 1.397 . S
C2240 C2245 1.363 . S
C2241 H2212 0.950 . S
C2241 C2240 1.397 . S
C2241 C2242 1.334 . S
C2242 H2213 0.950 . S
C2242 C2241 1.334 . S
C2242 C2243 1.287 . S
C2243 C2242 1.287 . S
C2243 C2244 1.524 . S
C2243 H2246 0.999 . S
C2244 H2214 0.950 . S
C2244 C2243 1.524 . S
C2244 C2245 1.415 . S
C2245 H2215 0.950 1_554 S
C2245 C2240 1.363 . S
C2245 C2244 1.415 . S
H2246 C2243 0.999 . S
H2247 C2228 0.913 . S
H2248 C2266 0.951 . S
H2249 C2268 0.951 . S
H2250 C2270 0.950 . S
H2251 C2271 0.950 . S
H2252 C2273 0.950 . S
H2253 C2276 0.950 . S
H2254 C2277 0.950 . S
H2255 C2279 0.950 . S
H2256 C2280 0.950 . S
H2257 C2281 0.951 . S
H2258 C2283 0.951 . S
H2259 C2285 0.950 . S
H2260 C2286 0.950 . S
H2261 C2288 0.950 . S
H2262 C2291 0.950 . S
H2263 C2292 0.950 . S
H2264 C2294 0.950 . S
H2265 C2295 0.950 . S
C2266 H2248 0.951 . S
C2266 C2267 1.366 . S
C2266 C2268 1.388 . S
C2267 C2266 1.366 . S
C2267 C2271 1.385 . S
C2268 H2249 0.951 . S
C2268 C2266 1.388 . S
C2268 C2269 1.366 . S
C2269 C2268 1.366 . S
C2269 C2270 1.414 . S
C2269 C2272 1.499 . S
C2270 H2250 0.950 . S
C2270 C2269 1.414 . S
C2270 C2271 1.374 . S
C2271 H2251 0.950 . S
C2271 C2267 1.385 . S
C2271 C2270 1.374 . S
C2272 C2269 1.499 . S
C2272 C2273 1.373 . S
C2272 C2274 1.389 . S
C2273 H2252 0.950 . S
C2273 C2272 1.373 . S
C2273 C2289 1.377 . S
C2274 C2272 1.389 . S
C2274 C2275 1.524 . S
C2274 C2288 1.377 . S
C2275 C2274 1.524 . S
C2275 C2276 1.397 . S
C2275 C2280 1.363 . S
C2276 H2253 0.950 . S
C2276 C2275 1.397 . S
C2276 C2277 1.334 . S
C2277 H2254 0.950 . S
C2277 C2276 1.334 . S
C2277 C2278 1.287 . S
C2278 C2277 1.287 . S
C2278 C2279 1.524 . S
C2278 H2297 0.913 . S
C2279 H2255 0.950 . S
C2279 C2278 1.524 . S
C2279 C2280 1.415 . S
C2280 H2256 0.950 . S
C2280 C2275 1.363 . S
C2280 C2279 1.415 . S
C2281 H2257 0.951 . S
C2281 C2282 1.366 . S
C2281 C2283 1.388 . S
C2282 C2281 1.366 . S
C2282 C2286 1.385 . S
C2283 H2258 0.951 . S
C2283 C2281 1.388 . S
C2283 C2284 1.366 . S
C2284 C2283 1.366 . S
C2284 C2285 1.414 . S
C2284 C2287 1.499 . S
C2285 H2259 0.950 . S
C2285 C2284 1.414 . S
C2285 C2286 1.374 . S
C2286 H2260 0.950 . S
C2286 C2282 1.385 . S
C2286 C2285 1.374 . S
C2287 C2284 1.499 . S
C2287 C2288 1.373 . S
C2287 C2289 1.389 . S
C2288 H2261 0.950 . S
C2288 C2274 1.377 . S
C2288 C2287 1.373 . S
C2289 C2273 1.377 . S
C2289 C2287 1.389 . S
C2289 C2290 1.524 . S
C2290 C2289 1.524 . S
C2290 C2291 1.397 . S
C2290 C2295 1.363 . S
C2291 H2262 0.950 . S
C2291 C2290 1.397 . S
C2291 C2292 1.334 . S
C2292 H2263 0.950 . S
C2292 C2291 1.334 . S
C2292 C2293 1.287 . S
C2293 C2292 1.287 . S
C2293 C2294 1.524 . S
C2293 H2296 0.999 . S
C2294 H2264 0.950 . S
C2294 C2293 1.524 . S
C2294 C2295 1.415 . S
C2295 H2265 0.950 . S
C2295 C2290 1.363 . S
C2295 C2294 1.415 . S
H2296 C2293 0.999 . S
H2297 C2278 0.913 . S
H2298 C2316 0.951 . S
H2299 C2318 0.951 . S
H2300 C2320 0.950 . S
H2301 C2321 0.950 . S
H2302 C2323 0.950 . S
H2303 C2326 0.950 . S
H2304 C2327 0.950 . S
H2305 C2329 0.950 . S
H2306 C2330 0.950 . S
H2307 C2331 0.951 . S
H2308 C2333 0.951 . S
H2309 C2335 0.950 . S
H2310 C2336 0.950 . S
H2311 C2338 0.950 . S
H2312 C2341 0.950 . S
H2313 C2342 0.950 . S
H2314 C2344 0.950 . S
H2315 C2345 0.950 . S
C2316 H2298 0.951 . S
C2316 C2317 1.366 . S
C2316 C2318 1.388 . S
C2317 C2316 1.366 . S
C2317 C2321 1.385 . S
C2318 H2299 0.951 . S
C2318 C2316 1.388 . S
C2318 C2319 1.366 . S
C2319 C2318 1.366 . S
C2319 C2320 1.414 . S
C2319 C2322 1.499 . S
C2320 H2300 0.950 . S
C2320 C2319 1.414 . S
C2320 C2321 1.374 . S
C2321 H2301 0.950 . S
C2321 C2317 1.385 . S
C2321 C2320 1.374 . S
C2322 C2319 1.499 . S
C2322 C2323 1.373 . S
C2322 C2324 1.389 . S
C2323 H2302 0.950 . S
C2323 C2322 1.373 . S
C2323 C2339 1.377 . S
C2324 C2322 1.389 . S
C2324 C2325 1.524 . S
C2324 C2338 1.377 . S
C2325 C2324 1.524 . S
C2325 C2326 1.397 . S
C2325 C2330 1.363 . S
C2326 H2303 0.950 . S
C2326 C2325 1.397 . S
C2326 C2327 1.334 . S
C2327 H2304 0.950 . S
C2327 C2326 1.334 . S
C2327 C2328 1.287 . S
C2328 C2327 1.287 . S
C2328 C2329 1.524 . S
C2328 H2347 0.913 . S
C2329 H2305 0.950 . S
C2329 C2328 1.524 . S
C2329 C2330 1.415 . S
C2330 H2306 0.950 . S
C2330 C2325 1.363 . S
C2330 C2329 1.415 . S
C2331 H2307 0.951 . S
C2331 C2332 1.366 . S
C2331 C2333 1.388 . S
C2332 C2331 1.366 . S
C2332 C2336 1.385 . S
C2333 H2308 0.951 . S
C2333 C2331 1.388 . S
C2333 C2334 1.366 . S
C2334 C2333 1.366 . S
C2334 C2335 1.414 . S
C2334 C2337 1.499 . S
C2335 H2309 0.950 . S
C2335 C2334 1.414 . S
C2335 C2336 1.374 . S
C2336 H2310 0.950 . S
C2336 C2332 1.385 . S
C2336 C2335 1.374 . S
C2337 C2334 1.499 . S
C2337 C2338 1.373 . S
C2337 C2339 1.389 . S
C2338 H2311 0.950 . S
C2338 C2324 1.377 . S
C2338 C2337 1.373 . S
C2339 C2323 1.377 . S
C2339 C2337 1.389 . S
C2339 C2340 1.524 . S
C2340 C2339 1.524 . S
C2340 C2341 1.397 . S
C2340 C2345 1.363 . S
C2341 H2312 0.950 . S
C2341 C2340 1.397 . S
C2341 C2342 1.334 . S
C2342 H2313 0.950 . S
C2342 C2341 1.334 . S
C2342 C2343 1.287 . S
C2343 C2342 1.287 . S
C2343 C2344 1.524 . S
C2343 H2346 0.999 . S
C2344 H2314 0.950 . S
C2344 C2343 1.524 . S
C2344 C2345 1.415 . S
C2345 H2315 0.950 . S
C2345 C2340 1.363 . S
C2345 C2344 1.415 . S
H2346 C2343 0.999 . S
H2347 C2328 0.913 . S
H2348 C2366 0.951 . S
H2349 C2368 0.951 . S
H2350 C2370 0.950 . S
H2351 C2371 0.950 . S
H2352 C2373 0.950 . S
H2353 C2376 0.950 . S
H2354 C2377 0.950 . S
H2355 C2379 0.950 . S
H2356 C2380 0.950 . S
H2357 C2381 0.951 . S
H2358 C2383 0.951 . S
H2359 C2385 0.950 . S
H2360 C2386 0.950 . S
H2361 C2388 0.950 . S
H2362 C2391 0.950 . S
H2363 C2392 0.950 . S
H2364 C2394 0.950 . S
H2365 C2395 0.950 . S
C2366 H2348 0.951 . S
C2366 C2367 1.366 . S
C2366 C2368 1.388 . S
C2367 C2366 1.366 . S
C2367 C2371 1.385 . S
C2368 H2349 0.951 . S
C2368 C2366 1.388 . S
C2368 C2369 1.366 . S
C2369 C2368 1.366 . S
C2369 C2370 1.414 . S
C2369 C2372 1.499 1_556 S
C2370 H2350 0.950 . S
C2370 C2369 1.414 . S
C2370 C2371 1.374 . S
C2371 H2351 0.950 . S
C2371 C2367 1.385 . S
C2371 C2370 1.374 . S
C2372 C2369 1.499 1_554 S
C2372 C2373 1.373 . S
C2372 C2374 1.389 1_554 S
C2373 H2352 0.950 . S
C2373 C2372 1.373 . S
C2373 C2389 1.377 . S
C2374 C2372 1.389 1_556 S
C2374 C2375 1.524 . S
C2374 C2388 1.377 1_556 S
C2375 C2374 1.524 . S
C2375 C2376 1.397 . S
C2375 C2380 1.363 . S
C2376 H2353 0.950 . S
C2376 C2375 1.397 . S
C2376 C2377 1.334 . S
C2377 H2354 0.950 . S
C2377 C2376 1.334 . S
C2377 C2378 1.287 . S
C2378 C2377 1.287 . S
C2378 C2379 1.524 . S
C2378 H2397 0.913 . S
C2379 H2355 0.950 . S
C2379 C2378 1.524 . S
C2379 C2380 1.415 . S
C2380 H2356 0.950 . S
C2380 C2375 1.363 . S
C2380 C2379 1.415 . S
C2381 H2357 0.951 . S
C2381 C2382 1.366 . S
C2381 C2383 1.388 . S
C2382 C2381 1.366 . S
C2382 C2386 1.385 . S
C2383 H2358 0.951 . S
C2383 C2381 1.388 . S
C2383 C2384 1.366 . S
C2384 C2383 1.366 . S
C2384 C2385 1.414 . S
C2384 C2387 1.499 . S
C2385 H2359 0.950 . S
C2385 C2384 1.414 . S
C2385 C2386 1.374 . S
C2386 H2360 0.950 . S
C2386 C2382 1.385 . S
C2386 C2385 1.374 . S
C2387 C2384 1.499 . S
C2387 C2388 1.373 . S
C2387 C2389 1.389 . S
C2388 H2361 0.950 . S
C2388 C2374 1.377 1_554 S
C2388 C2387 1.373 . S
C2389 C2373 1.377 . S
C2389 C2387 1.389 . S
C2389 C2390 1.524 . S
C2390 C2389 1.524 . S
C2390 C2391 1.397 . S
C2390 C2395 1.363 . S
C2391 H2362 0.950 . S
C2391 C2390 1.397 . S
C2391 C2392 1.334 . S
C2392 H2363 0.950 . S
C2392 C2391 1.334 . S
C2392 C2393 1.287 . S
C2393 C2392 1.287 . S
C2393 C2394 1.524 . S
C2393 H2396 0.999 . S
C2394 H2364 0.950 . S
C2394 C2393 1.524 . S
C2394 C2395 1.415 . S
C2395 H2365 0.950 . S
C2395 C2390 1.363 . S
C2395 C2394 1.415 . S
H2396 C2393 0.999 . S
H2397 C2378 0.913 . S
H2398 C2416 0.951 1_554 S
H2399 C2418 0.951 . S
H2400 C2420 0.950 . S
H2401 C2421 0.950 . S
H2402 C2423 0.950 . S
H2403 C2426 0.950 . S
H2404 C2427 0.950 . S
H2405 C2429 0.950 . S
H2406 C2430 0.950 . S
H2407 C2431 0.951 . S
H2408 C2433 0.951 . S
H2409 C2435 0.950 . S
H2410 C2436 0.950 . S
H2411 C2438 0.950 . S
H2412 C2441 0.950 . S
H2413 C2442 0.950 . S
H2414 C2444 0.950 1_556 S
H2415 C2445 0.950 . S
C2416 H2398 0.951 1_556 S
C2416 C2417 1.366 . S
C2416 C2418 1.388 1_556 S
C2417 C2416 1.366 . S
C2417 C2421 1.385 . S
C2418 H2399 0.951 . S
C2418 C2416 1.388 1_554 S
C2418 C2419 1.366 . S
C2419 C2418 1.366 . S
C2419 C2420 1.414 1_554 S
C2419 C2422 1.499 . S
C2420 H2400 0.950 . S
C2420 C2419 1.414 1_556 S
C2420 C2421 1.374 . S
C2421 H2401 0.950 . S
C2421 C2417 1.385 . S
C2421 C2420 1.374 . S
C2422 C2419 1.499 . S
C2422 C2423 1.373 1_455 S
C2422 C2424 1.389 . S
C2423 H2402 0.950 . S
C2423 C2422 1.373 1_655 S
C2423 C2439 1.377 . S
C2424 C2422 1.389 . S
C2424 C2425 1.524 . S
C2424 C2438 1.377 . S
C2425 C2424 1.524 . S
C2425 C2426 1.397 . S
C2425 C2430 1.363 . S
C2426 H2403 0.950 . S
C2426 C2425 1.397 . S
C2426 C2427 1.334 . S
C2427 H2404 0.950 . S
C2427 C2426 1.334 . S
C2427 C2428 1.287 . S
C2428 C2427 1.287 . S
C2428 C2429 1.524 . S
C2428 H2447 0.913 . S
C2429 H2405 0.950 . S
C2429 C2428 1.524 . S
C2429 C2430 1.415 . S
C2430 H2406 0.950 . S
C2430 C2425 1.363 . S
C2430 C2429 1.415 . S
C2431 H2407 0.951 . S
C2431 C2432 1.366 . S
C2431 C2433 1.388 . S
C2432 C2431 1.366 . S
C2432 C2436 1.385 . S
C2433 H2408 0.951 . S
C2433 C2431 1.388 . S
C2433 C2434 1.366 . S
C2434 C2433 1.366 . S
C2434 C2435 1.414 . S
C2434 C2437 1.499 . S
C2435 H2409 0.950 . S
C2435 C2434 1.414 . S
C2435 C2436 1.374 . S
C2436 H2410 0.950 . S
C2436 C2432 1.385 . S
C2436 C2435 1.374 . S
C2437 C2434 1.499 . S
C2437 C2438 1.373 1_655 S
C2437 C2439 1.389 . S
C2438 H2411 0.950 . S
C2438 C2424 1.377 . S
C2438 C2437 1.373 1_455 S
C2439 C2423 1.377 . S
C2439 C2437 1.389 . S
C2439 C2440 1.524 . S
C2440 C2439 1.524 . S
C2440 C2441 1.397 . S
C2440 C2445 1.363 . S
C2441 H2412 0.950 . S
C2441 C2440 1.397 . S
C2441 C2442 1.334 . S
C2442 H2413 0.950 . S
C2442 C2441 1.334 . S
C2442 C2443 1.287 . S
C2443 C2442 1.287 . S
C2443 C2444 1.524 . S
C2443 H2446 0.999 . S
C2444 H2414 0.950 1_554 S
C2444 C2443 1.524 . S
C2444 C2445 1.415 . S
C2445 H2415 0.950 . S
C2445 C2440 1.363 . S
C2445 C2444 1.415 . S
H2446 C2443 0.999 . S
H2447 C2428 0.913 . S
H2448 C2466 0.951 . S
H2449 C2468 0.951 . S
H2450 C2470 0.950 1_554 S
H2451 C2471 0.950 . S
H2452 C2473 0.950 . S
H2453 C2476 0.950 1_554 S
H2454 C2477 0.950 . S
H2455 C2479 0.950 . S
H2456 C2480 0.950 . S
H2457 C2481 0.951 . S
H2458 C2483 0.951 . S
H2459 C2485 0.950 . S
H2460 C2486 0.950 . S
H2461 C2488 0.950 . S
H2462 C2491 0.950 . S
H2463 C2492 0.950 . S
H2464 C2494 0.950 . S
H2465 C2495 0.950 . S
C2466 H2448 0.951 . S
C2466 C2467 1.366 . S
C2466 C2468 1.388 . S
C2467 C2466 1.366 . S
C2467 C2471 1.385 . S
C2468 H2449 0.951 . S
C2468 C2466 1.388 . S
C2468 C2469 1.366 . S
C2469 C2468 1.366 . S
C2469 C2470 1.414 . S
C2469 C2472 1.499 1_556 S
C2470 H2450 0.950 1_556 S
C2470 C2469 1.414 . S
C2470 C2471 1.374 . S
C2471 H2451 0.950 . S
C2471 C2467 1.385 . S
C2471 C2470 1.374 . S
C2472 C2469 1.499 1_554 S
C2472 C2473 1.373 . S
C2472 C2474 1.389 . S
C2473 H2452 0.950 . S
C2473 C2472 1.373 . S
C2473 C2489 1.377 . S
C2474 C2472 1.389 . S
C2474 C2475 1.524 1_554 S
C2474 C2488 1.377 . S
C2475 C2474 1.524 1_556 S
C2475 C2476 1.397 . S
C2475 C2480 1.363 . S
C2476 H2453 0.950 1_556 S
C2476 C2475 1.397 . S
C2476 C2477 1.334 . S
C2477 H2454 0.950 . S
C2477 C2476 1.334 . S
C2477 C2478 1.287 . S
C2478 C2477 1.287 . S
C2478 C2479 1.524 . S
C2478 H2497 0.913 . S
C2479 H2455 0.950 . S
C2479 C2478 1.524 . S
C2479 C2480 1.415 . S
C2480 H2456 0.950 . S
C2480 C2475 1.363 . S
C2480 C2479 1.415 . S
C2481 H2457 0.951 . S
C2481 C2482 1.366 . S
C2481 C2483 1.388 . S
C2482 C2481 1.366 . S
C2482 C2486 1.385 . S
C2483 H2458 0.951 . S
C2483 C2481 1.388 . S
C2483 C2484 1.366 . S
C2484 C2483 1.366 . S
C2484 C2485 1.414 . S
C2484 C2487 1.499 . S
C2485 H2459 0.950 . S
C2485 C2484 1.414 . S
C2485 C2486 1.374 . S
C2486 H2460 0.950 . S
C2486 C2482 1.385 . S
C2486 C2485 1.374 . S
C2487 C2484 1.499 . S
C2487 C2488 1.373 . S
C2487 C2489 1.389 . S
C2488 H2461 0.950 . S
C2488 C2474 1.377 . S
C2488 C2487 1.373 . S
C2489 C2473 1.377 . S
C2489 C2487 1.389 . S
C2489 C2490 1.524 . S
C2490 C2489 1.524 . S
C2490 C2491 1.397 . S
C2490 C2495 1.363 . S
C2491 H2462 0.950 . S
C2491 C2490 1.397 . S
C2491 C2492 1.334 . S
C2492 H2463 0.950 . S
C2492 C2491 1.334 . S
C2492 C2493 1.287 . S
C2493 C2492 1.287 . S
C2493 C2494 1.524 . S
C2493 H2496 0.999 . S
C2494 H2464 0.950 . S
C2494 C2493 1.524 . S
C2494 C2495 1.415 . S
C2495 H2465 0.950 . S
C2495 C2490 1.363 . S
C2495 C2494 1.415 . S
H2496 C2493 0.999 . S
H2497 C2478 0.913 . S
H2498 C2516 0.951 . S
H2499 C2518 0.951 . S
H2500 C2520 0.950 . S
H2501 C2521 0.950 . S
H2502 C2523 0.950 . S
H2503 C2526 0.950 . S
H2504 C2527 0.950 . S
H2505 C2529 0.950 . S
H2506 C2530 0.950 . S
H2507 C2531 0.951 . S
H2508 C2533 0.951 . S
H2509 C2535 0.950 . S
H2510 C2536 0.950 . S
H2511 C2538 0.950 . S
H2512 C2541 0.950 . S
H2513 C2542 0.950 . S
H2514 C2544 0.950 . S
H2515 C2545 0.950 . S
C2516 H2498 0.951 . S
C2516 C2517 1.366 . S
C2516 C2518 1.388 . S
C2517 C2516 1.366 . S
C2517 C2521 1.385 . S
C2518 H2499 0.951 . S
C2518 C2516 1.388 . S
C2518 C2519 1.366 . S
C2519 C2518 1.366 . S
C2519 C2520 1.414 . S
C2519 C2522 1.499 . S
C2520 H2500 0.950 . S
C2520 C2519 1.414 . S
C2520 C2521 1.374 . S
C2521 H2501 0.950 . S
C2521 C2517 1.385 . S
C2521 C2520 1.374 . S
C2522 C2519 1.499 . S
C2522 C2523 1.373 . S
C2522 C2524 1.389 . S
C2523 H2502 0.950 . S
C2523 C2522 1.373 . S
C2523 C2539 1.377 1_455 S
C2524 C2522 1.389 . S
C2524 C2525 1.524 . S
C2524 C2538 1.377 1_455 S
C2525 C2524 1.524 . S
C2525 C2526 1.397 . S
C2525 C2530 1.363 . S
C2526 H2503 0.950 . S
C2526 C2525 1.397 . S
C2526 C2527 1.334 . S
C2527 H2504 0.950 . S
C2527 C2526 1.334 . S
C2527 C2528 1.287 . S
C2528 C2527 1.287 . S
C2528 C2529 1.524 . S
C2528 H2547 0.913 . S
C2529 H2505 0.950 . S
C2529 C2528 1.524 . S
C2529 C2530 1.415 . S
C2530 H2506 0.950 . S
C2530 C2525 1.363 . S
C2530 C2529 1.415 . S
C2531 H2507 0.951 . S
C2531 C2532 1.366 . S
C2531 C2533 1.388 . S
C2532 C2531 1.366 . S
C2532 C2536 1.385 . S
C2533 H2508 0.951 . S
C2533 C2531 1.388 . S
C2533 C2534 1.366 . S
C2534 C2533 1.366 . S
C2534 C2535 1.414 . S
C2534 C2537 1.499 . S
C2535 H2509 0.950 . S
C2535 C2534 1.414 . S
C2535 C2536 1.374 . S
C2536 H2510 0.950 . S
C2536 C2532 1.385 . S
C2536 C2535 1.374 . S
C2537 C2534 1.499 . S
C2537 C2538 1.373 . S
C2537 C2539 1.389 . S
C2538 H2511 0.950 . S
C2538 C2524 1.377 1_655 S
C2538 C2537 1.373 . S
C2539 C2523 1.377 1_655 S
C2539 C2537 1.389 . S
C2539 C2540 1.524 . S
C2540 C2539 1.524 . S
C2540 C2541 1.397 . S
C2540 C2545 1.363 . S
C2541 H2512 0.950 . S
C2541 C2540 1.397 . S
C2541 C2542 1.334 . S
C2542 H2513 0.950 . S
C2542 C2541 1.334 . S
C2542 C2543 1.287 . S
C2543 C2542 1.287 . S
C2543 C2544 1.524 . S
C2543 H2546 0.999 . S
C2544 H2514 0.950 . S
C2544 C2543 1.524 . S
C2544 C2545 1.415 . S
C2545 H2515 0.950 . S
C2545 C2540 1.363 . S
C2545 C2544 1.415 . S
H2546 C2543 0.999 . S
H2547 C2528 0.913 . S
H2548 C2566 0.951 . S
H2549 C2568 0.951 . S
H2550 C2570 0.950 . S
H2551 C2571 0.950 . S
H2552 C2573 0.950 . S
H2553 C2576 0.950 . S
H2554 C2577 0.950 . S
H2555 C2579 0.950 . S
H2556 C2580 0.950 . S
H2557 C2581 0.951 . S
H2558 C2583 0.951 . S
H2559 C2585 0.950 . S
H2560 C2586 0.950 . S
H2561 C2588 0.950 . S
H2562 C2591 0.950 . S
H2563 C2592 0.950 . S
H2564 C2594 0.950 . S
H2565 C2595 0.950 . S
C2566 H2548 0.951 . S
C2566 C2567 1.366 . S
C2566 C2568 1.388 . S
C2567 C2566 1.366 . S
C2567 C2571 1.385 . S
C2568 H2549 0.951 . S
C2568 C2566 1.388 . S
C2568 C2569 1.366 . S
C2569 C2568 1.366 . S
C2569 C2570 1.414 . S
C2569 C2572 1.499 . S
C2570 H2550 0.950 . S
C2570 C2569 1.414 . S
C2570 C2571 1.374 . S
C2571 H2551 0.950 . S
C2571 C2567 1.385 . S
C2571 C2570 1.374 . S
C2572 C2569 1.499 . S
C2572 C2573 1.373 . S
C2572 C2574 1.389 . S
C2573 H2552 0.950 . S
C2573 C2572 1.373 . S
C2573 C2589 1.377 . S
C2574 C2572 1.389 . S
C2574 C2575 1.524 . S
C2574 C2588 1.377 . S
C2575 C2574 1.524 . S
C2575 C2576 1.397 . S
C2575 C2580 1.363 . S
C2576 H2553 0.950 . S
C2576 C2575 1.397 . S
C2576 C2577 1.334 . S
C2577 H2554 0.950 . S
C2577 C2576 1.334 . S
C2577 C2578 1.287 . S
C2578 C2577 1.287 . S
C2578 C2579 1.524 . S
C2578 H2597 0.913 . S
C2579 H2555 0.950 . S
C2579 C2578 1.524 . S
C2579 C2580 1.415 . S
C2580 H2556 0.950 . S
C2580 C2575 1.363 . S
C2580 C2579 1.415 . S
C2581 H2557 0.951 . S
C2581 C2582 1.366 . S
C2581 C2583 1.388 . S
C2582 C2581 1.366 . S
C2582 C2586 1.385 . S
C2583 H2558 0.951 . S
C2583 C2581 1.388 . S
C2583 C2584 1.366 . S
C2584 C2583 1.366 . S
C2584 C2585 1.414 . S
C2584 C2587 1.499 . S
C2585 H2559 0.950 . S
C2585 C2584 1.414 . S
C2585 C2586 1.374 . S
C2586 H2560 0.950 . S
C2586 C2582 1.385 . S
C2586 C2585 1.374 . S
C2587 C2584 1.499 . S
C2587 C2588 1.373 . S
C2587 C2589 1.389 . S
C2588 H2561 0.950 . S
C2588 C2574 1.377 . S
C2588 C2587 1.373 . S
C2589 C2573 1.377 . S
C2589 C2587 1.389 . S
C2589 C2590 1.524 . S
C2590 C2589 1.524 . S
C2590 C2591 1.397 . S
C2590 C2595 1.363 . S
C2591 H2562 0.950 . S
C2591 C2590 1.397 . S
C2591 C2592 1.334 . S
C2592 H2563 0.950 . S
C2592 C2591 1.334 . S
C2592 C2593 1.287 . S
C2593 C2592 1.287 . S
C2593 C2594 1.524 . S
C2593 H2596 0.999 . S
C2594 H2564 0.950 . S
C2594 C2593 1.524 . S
C2594 C2595 1.415 . S
C2595 H2565 0.950 . S
C2595 C2590 1.363 . S
C2595 C2594 1.415 . S
H2596 C2593 0.999 . S
H2597 C2578 0.913 . S
H2598 C2616 0.951 . S
H2599 C2618 0.951 . S
H2600 C2620 0.950 . S
H2601 C2621 0.950 . S
H2602 C2623 0.950 . S
H2603 C2626 0.950 . S
H2604 C2627 0.950 . S
H2605 C2629 0.950 . S
H2606 C2630 0.950 . S
H2607 C2631 0.951 . S
H2608 C2633 0.951 . S
H2609 C2635 0.950 . S
H2610 C2636 0.950 1_554 S
H2611 C2638 0.950 . S
H2612 C2641 0.950 1_554 S
H2613 C2642 0.950 . S
H2614 C2644 0.950 . S
H2615 C2645 0.950 . S
C2616 H2598 0.951 . S
C2616 C2617 1.366 . S
C2616 C2618 1.388 . S
C2617 C2616 1.366 . S
C2617 C2621 1.385 . S
C2618 H2599 0.951 . S
C2618 C2616 1.388 . S
C2618 C2619 1.366 . S
C2619 C2618 1.366 . S
C2619 C2620 1.414 . S
C2619 C2622 1.499 . S
C2620 H2600 0.950 . S
C2620 C2619 1.414 . S
C2620 C2621 1.374 . S
C2621 H2601 0.950 . S
C2621 C2617 1.385 . S
C2621 C2620 1.374 . S
C2622 C2619 1.499 . S
C2622 C2623 1.373 . S
C2622 C2624 1.389 . S
C2623 H2602 0.950 . S
C2623 C2622 1.373 . S
C2623 C2639 1.377 . S
C2624 C2622 1.389 . S
C2624 C2625 1.524 . S
C2624 C2638 1.377 . S
C2625 C2624 1.524 . S
C2625 C2626 1.397 . S
C2625 C2630 1.363 . S
C2626 H2603 0.950 . S
C2626 C2625 1.397 . S
C2626 C2627 1.334 . S
C2627 H2604 0.950 . S
C2627 C2626 1.334 . S
C2627 C2628 1.287 . S
C2628 C2627 1.287 . S
C2628 C2629 1.524 . S
C2628 H2647 0.913 . S
C2629 H2605 0.950 . S
C2629 C2628 1.524 . S
C2629 C2630 1.415 . S
C2630 H2606 0.950 . S
C2630 C2625 1.363 . S
C2630 C2629 1.415 . S
C2631 H2607 0.951 . S
C2631 C2632 1.366 . S
C2631 C2633 1.388 . S
C2632 C2631 1.366 . S
C2632 C2636 1.385 . S
C2633 H2608 0.951 . S
C2633 C2631 1.388 . S
C2633 C2634 1.366 1_556 S
C2634 C2633 1.366 1_554 S
C2634 C2635 1.414 . S
C2634 C2637 1.499 . S
C2635 H2609 0.950 . S
C2635 C2634 1.414 . S
C2635 C2636 1.374 1_554 S
C2636 H2610 0.950 1_556 S
C2636 C2632 1.385 . S
C2636 C2635 1.374 1_556 S
C2637 C2634 1.499 . S
C2637 C2638 1.373 . S
C2637 C2639 1.389 . S
C2638 H2611 0.950 . S
C2638 C2624 1.377 . S
C2638 C2637 1.373 . S
C2639 C2623 1.377 . S
C2639 C2637 1.389 . S
C2639 C2640 1.524 . S
C2640 C2639 1.524 . S
C2640 C2641 1.397 1_554 S
C2640 C2645 1.363 1_554 S
C2641 H2612 0.950 1_556 S
C2641 C2640 1.397 1_556 S
C2641 C2642 1.334 . S
C2642 H2613 0.950 . S
C2642 C2641 1.334 . S
C2642 C2643 1.287 . S
C2643 C2642 1.287 . S
C2643 C2644 1.524 . S
C2643 H2646 0.999 . S
C2644 H2614 0.950 . S
C2644 C2643 1.524 . S
C2644 C2645 1.415 . S
C2645 H2615 0.950 . S
C2645 C2640 1.363 1_556 S
C2645 C2644 1.415 . S
H2646 C2643 0.999 . S
H2647 C2628 0.913 . S
H2648 C2666 0.951 . S
H2649 C2668 0.951 . S
H2650 C2670 0.950 . S
H2651 C2671 0.950 . S
H2652 C2673 0.950 . S
H2653 C2676 0.950 . S
H2654 C2677 0.950 . S
H2655 C2679 0.950 . S
H2656 C2680 0.950 . S
H2657 C2681 0.951 . S
H2658 C2683 0.951 . S
H2659 C2685 0.950 . S
H2660 C2686 0.950 . S
H2661 C2688 0.950 . S
H2662 C2691 0.950 . S
H2663 C2692 0.950 . S
H2664 C2694 0.950 . S
H2665 C2695 0.950 . S
C2666 H2648 0.951 . S
C2666 C2667 1.366 . S
C2666 C2668 1.388 . S
C2667 C2666 1.366 . S
C2667 C2671 1.385 . S
C2668 H2649 0.951 . S
C2668 C2666 1.388 . S
C2668 C2669 1.366 . S
C2669 C2668 1.366 . S
C2669 C2670 1.414 . S
C2669 C2672 1.499 . S
C2670 H2650 0.950 . S
C2670 C2669 1.414 . S
C2670 C2671 1.374 . S
C2671 H2651 0.950 . S
C2671 C2667 1.385 . S
C2671 C2670 1.374 . S
C2672 C2669 1.499 . S
C2672 C2673 1.373 . S
C2672 C2674 1.389 . S
C2673 H2652 0.950 . S
C2673 C2672 1.373 . S
C2673 C2689 1.377 . S
C2674 C2672 1.389 . S
C2674 C2675 1.524 . S
C2674 C2688 1.377 . S
C2675 C2674 1.524 . S
C2675 C2676 1.397 . S
C2675 C2680 1.363 . S
C2676 H2653 0.950 . S
C2676 C2675 1.397 . S
C2676 C2677 1.334 . S
C2677 H2654 0.950 . S
C2677 C2676 1.334 . S
C2677 C2678 1.287 . S
C2678 C2677 1.287 . S
C2678 C2679 1.524 . S
C2678 H2697 0.913 . S
C2679 H2655 0.950 . S
C2679 C2678 1.524 . S
C2679 C2680 1.415 . S
C2680 H2656 0.950 . S
C2680 C2675 1.363 . S
C2680 C2679 1.415 . S
C2681 H2657 0.951 . S
C2681 C2682 1.366 . S
C2681 C2683 1.388 . S
C2682 C2681 1.366 . S
C2682 C2686 1.385 . S
C2683 H2658 0.951 . S
C2683 C2681 1.388 . S
C2683 C2684 1.366 . S
C2684 C2683 1.366 . S
C2684 C2685 1.414 . S
C2684 C2687 1.499 . S
C2685 H2659 0.950 . S
C2685 C2684 1.414 . S
C2685 C2686 1.374 . S
C2686 H2660 0.950 . S
C2686 C2682 1.385 . S
C2686 C2685 1.374 . S
C2687 C2684 1.499 . S
C2687 C2688 1.373 . S
C2687 C2689 1.389 . S
C2688 H2661 0.950 . S
C2688 C2674 1.377 . S
C2688 C2687 1.373 . S
C2689 C2673 1.377 . S
C2689 C2687 1.389 . S
C2689 C2690 1.524 . S
C2690 C2689 1.524 . S
C2690 C2691 1.397 . S
C2690 C2695 1.363 . S
C2691 H2662 0.950 . S
C2691 C2690 1.397 . S
C2691 C2692 1.334 . S
C2692 H2663 0.950 . S
C2692 C2691 1.334 . S
C2692 C2693 1.287 . S
C2693 C2692 1.287 . S
C2693 C2694 1.524 . S
C2693 H2696 0.999 . S
C2694 H2664 0.950 . S
C2694 C2693 1.524 . S
C2694 C2695 1.415 . S
C2695 H2665 0.950 . S
C2695 C2690 1.363 . S
C2695 C2694 1.415 . S
H2696 C2693 0.999 . S
H2697 C2678 0.913 . S
H2698 C2716 0.951 . S
H2699 C2718 0.951 . S
H2700 C2720 0.950 . S
H2701 C2721 0.950 . S
H2702 C2723 0.950 . S
H2703 C2726 0.950 . S
H2704 C2727 0.950 . S
H2705 C2729 0.950 . S
H2706 C2730 0.950 . S
H2707 C2731 0.951 . S
H2708 C2733 0.951 . S
H2709 C2735 0.950 . S
H2710 C2736 0.950 . S
H2711 C2738 0.950 . S
H2712 C2741 0.950 . S
H2713 C2742 0.950 . S
H2714 C2744 0.950 . S
H2715 C2745 0.950 . S
C2716 H2698 0.951 . S
C2716 C2717 1.366 . S
C2716 C2718 1.388 . S
C2717 C2716 1.366 . S
C2717 C2721 1.385 . S
C2718 H2699 0.951 . S
C2718 C2716 1.388 . S
C2718 C2719 1.366 . S
C2719 C2718 1.366 . S
C2719 C2720 1.414 . S
C2719 C2722 1.499 . S
C2720 H2700 0.950 . S
C2720 C2719 1.414 . S
C2720 C2721 1.374 . S
C2721 H2701 0.950 . S
C2721 C2717 1.385 . S
C2721 C2720 1.374 . S
C2722 C2719 1.499 . S
C2722 C2723 1.373 . S
C2722 C2724 1.389 . S
C2723 H2702 0.950 . S
C2723 C2722 1.373 . S
C2723 C2739 1.377 . S
C2724 C2722 1.389 . S
C2724 C2725 1.524 . S
C2724 C2738 1.377 . S
C2725 C2724 1.524 . S
C2725 C2726 1.397 . S
C2725 C2730 1.363 . S
C2726 H2703 0.950 . S
C2726 C2725 1.397 . S
C2726 C2727 1.334 . S
C2727 H2704 0.950 . S
C2727 C2726 1.334 . S
C2727 C2728 1.287 . S
C2728 C2727 1.287 . S
C2728 C2729 1.524 . S
C2728 H2747 0.913 . S
C2729 H2705 0.950 . S
C2729 C2728 1.524 . S
C2729 C2730 1.415 . S
C2730 H2706 0.950 . S
C2730 C2725 1.363 . S
C2730 C2729 1.415 . S
C2731 H2707 0.951 . S
C2731 C2732 1.366 . S
C2731 C2733 1.388 . S
C2732 C2731 1.366 . S
C2732 C2736 1.385 . S
C2733 H2708 0.951 . S
C2733 C2731 1.388 . S
C2733 C2734 1.366 . S
C2734 C2733 1.366 . S
C2734 C2735 1.414 . S
C2734 C2737 1.499 . S
C2735 H2709 0.950 . S
C2735 C2734 1.414 . S
C2735 C2736 1.374 . S
C2736 H2710 0.950 . S
C2736 C2732 1.385 . S
C2736 C2735 1.374 . S
C2737 C2734 1.499 . S
C2737 C2738 1.373 . S
C2737 C2739 1.389 . S
C2738 H2711 0.950 . S
C2738 C2724 1.377 . S
C2738 C2737 1.373 . S
C2739 C2723 1.377 . S
C2739 C2737 1.389 . S
C2739 C2740 1.524 . S
C2740 C2739 1.524 . S
C2740 C2741 1.397 . S
C2740 C2745 1.363 . S
C2741 H2712 0.950 . S
C2741 C2740 1.397 . S
C2741 C2742 1.334 . S
C2742 H2713 0.950 . S
C2742 C2741 1.334 . S
C2742 C2743 1.287 . S
C2743 C2742 1.287 . S
C2743 C2744 1.524 . S
C2743 H2746 0.999 . S
C2744 H2714 0.950 . S
C2744 C2743 1.524 . S
C2744 C2745 1.415 . S
C2745 H2715 0.950 . S
C2745 C2740 1.363 . S
C2745 C2744 1.415 . S
H2746 C2743 0.999 . S
H2747 C2728 0.913 . S
H2748 C2766 0.951 . S
H2749 C2768 0.951 . S
H2750 C2770 0.950 . S
H2751 C2771 0.950 . S
H2752 C2773 0.950 . S
H2753 C2776 0.950 . S
H2754 C2777 0.950 . S
H2755 C2779 0.950 . S
H2756 C2780 0.950 . S
H2757 C2781 0.951 . S
H2758 C2783 0.951 . S
H2759 C2785 0.950 . S
H2760 C2786 0.950 . S
H2761 C2788 0.950 . S
H2762 C2791 0.950 . S
H2763 C2792 0.950 . S
H2764 C2794 0.950 . S
H2765 C2795 0.950 . S
C2766 H2748 0.951 . S
C2766 C2767 1.366 . S
C2766 C2768 1.388 . S
C2767 C2766 1.366 . S
C2767 C2771 1.385 . S
C2768 H2749 0.951 . S
C2768 C2766 1.388 . S
C2768 C2769 1.366 . S
C2769 C2768 1.366 . S
C2769 C2770 1.414 . S
C2769 C2772 1.499 1_554 S
C2770 H2750 0.950 . S
C2770 C2769 1.414 . S
C2770 C2771 1.374 . S
C2771 H2751 0.950 . S
C2771 C2767 1.385 . S
C2771 C2770 1.374 . S
C2772 C2769 1.499 1_556 S
C2772 C2773 1.373 . S
C2772 C2774 1.389 1_556 S
C2773 H2752 0.950 . S
C2773 C2772 1.373 . S
C2773 C2789 1.377 . S
C2774 C2772 1.389 1_554 S
C2774 C2775 1.524 . S
C2774 C2788 1.377 1_554 S
C2775 C2774 1.524 . S
C2775 C2776 1.397 . S
C2775 C2780 1.363 . S
C2776 H2753 0.950 . S
C2776 C2775 1.397 . S
C2776 C2777 1.334 . S
C2777 H2754 0.950 . S
C2777 C2776 1.334 . S
C2777 C2778 1.287 . S
C2778 C2777 1.287 . S
C2778 C2779 1.524 . S
C2778 H2797 0.913 . S
C2779 H2755 0.950 . S
C2779 C2778 1.524 . S
C2779 C2780 1.415 . S
C2780 H2756 0.950 . S
C2780 C2775 1.363 . S
C2780 C2779 1.415 . S
C2781 H2757 0.951 . S
C2781 C2782 1.366 . S
C2781 C2783 1.388 . S
C2782 C2781 1.366 . S
C2782 C2786 1.385 . S
C2783 H2758 0.951 . S
C2783 C2781 1.388 . S
C2783 C2784 1.366 . S
C2784 C2783 1.366 . S
C2784 C2785 1.414 . S
C2784 C2787 1.499 . S
C2785 H2759 0.950 . S
C2785 C2784 1.414 . S
C2785 C2786 1.374 . S
C2786 H2760 0.950 . S
C2786 C2782 1.385 . S
C2786 C2785 1.374 . S
C2787 C2784 1.499 . S
C2787 C2788 1.373 . S
C2787 C2789 1.389 . S
C2788 H2761 0.950 . S
C2788 C2774 1.377 1_556 S
C2788 C2787 1.373 . S
C2789 C2773 1.377 . S
C2789 C2787 1.389 . S
C2789 C2790 1.524 . S
C2790 C2789 1.524 . S
C2790 C2791 1.397 . S
C2790 C2795 1.363 . S
C2791 H2762 0.950 . S
C2791 C2790 1.397 . S
C2791 C2792 1.334 . S
C2792 H2763 0.950 . S
C2792 C2791 1.334 . S
C2792 C2793 1.287 . S
C2793 C2792 1.287 . S
C2793 C2794 1.524 . S
C2793 H2796 0.999 . S
C2794 H2764 0.950 . S
C2794 C2793 1.524 . S
C2794 C2795 1.415 . S
C2795 H2765 0.950 . S
C2795 C2790 1.363 . S
C2795 C2794 1.415 . S
H2796 C2793 0.999 . S
H2797 C2778 0.913 . S
H2798 C2816 0.951 . S
H2799 C2818 0.951 . S
H2800 C2820 0.950 . S
H2801 C2821 0.950 . S
H2802 C2823 0.950 . S
H2803 C2826 0.950 . S
H2804 C2827 0.950 . S
H2805 C2829 0.950 . S
H2806 C2830 0.950 . S
H2807 C2831 0.951 . S
H2808 C2833 0.951 . S
H2809 C2835 0.953 . S
H2810 C2836 0.950 . S
H2811 C2838 0.950 . S
H2812 C2841 0.950 . S
H2813 C2842 0.950 . S
H2814 C2844 0.950 . S
H2815 C2845 0.950 . S
C2816 H2798 0.951 . S
C2816 C2817 1.366 . S
C2816 C2818 1.388 . S
C2817 C2816 1.366 . S
C2817 C2821 1.385 . S
C2818 H2799 0.951 . S
C2818 C2816 1.388 . S
C2818 C2819 1.366 . S
C2819 C2818 1.366 . S
C2819 C2820 1.414 . S
C2819 C2822 1.499 . S
C2820 H2800 0.950 . S
C2820 C2819 1.414 . S
C2820 C2821 1.374 . S
C2821 H2801 0.950 . S
C2821 C2817 1.385 . S
C2821 C2820 1.374 . S
C2822 C2819 1.499 . S
C2822 C2823 1.373 . S
C2822 C2824 1.389 1_455 S
C2823 H2802 0.950 . S
C2823 C2822 1.373 . S
C2823 C2839 1.377 . S
C2824 C2822 1.389 1_655 S
C2824 C2825 1.524 . S
C2824 C2838 1.377 . S
C2825 C2824 1.524 . S
C2825 C2826 1.397 . S
C2825 C2830 1.363 . S
C2826 H2803 0.950 . S
C2826 C2825 1.397 . S
C2826 C2827 1.334 . S
C2827 H2804 0.950 . S
C2827 C2826 1.334 . S
C2827 C2828 1.287 . S
C2828 C2827 1.287 . S
C2828 C2829 1.524 . S
C2828 H2847 0.913 . S
C2829 H2805 0.950 . S
C2829 C2828 1.524 . S
C2829 C2830 1.415 . S
C2830 H2806 0.950 . S
C2830 C2825 1.363 . S
C2830 C2829 1.415 . S
C2831 H2807 0.951 . S
C2831 C2832 1.366 . S
C2831 C2833 1.386 1_554 S
C2832 C2831 1.366 . S
C2832 C2836 1.385 . S
C2833 H2808 0.951 . S
C2833 C2831 1.386 1_556 S
C2833 C2834 1.366 . S
C2834 C2833 1.366 . S
C2834 C2835 1.416 . S
C2834 C2837 1.499 . S
C2835 H2809 0.953 . S
C2835 C2834 1.416 . S
C2835 C2836 1.369 1_556 S
C2836 H2810 0.950 . S
C2836 C2832 1.385 . S
C2836 C2835 1.369 1_554 S
C2837 C2834 1.499 . S
C2837 C2838 1.373 . S
C2837 C2839 1.389 1_655 S
C2838 H2811 0.950 . S
C2838 C2824 1.377 . S
C2838 C2837 1.373 . S
C2839 C2823 1.377 . S
C2839 C2837 1.389 1_455 S
C2839 C2840 1.524 . S
C2840 C2839 1.524 . S
C2840 C2841 1.397 1_556 S
C2840 C2845 1.363 . S
C2841 H2812 0.950 . S
C2841 C2840 1.397 1_554 S
C2841 C2842 1.334 . S
C2842 H2813 0.950 . S
C2842 C2841 1.334 . S
C2842 C2843 1.287 . S
C2843 C2842 1.287 . S
C2843 C2844 1.524 . S
C2843 H2846 0.999 . S
C2844 H2814 0.950 . S
C2844 C2843 1.524 . S
C2844 C2845 1.415 1_554 S
C2845 H2815 0.950 . S
C2845 C2840 1.363 . S
C2845 C2844 1.415 1_556 S
H2846 C2843 0.999 . S
H2847 C2828 0.913 . S
H2848 C2866 0.951 . S
H2849 C2868 0.951 . S
H2850 C2870 0.950 . S
H2851 C2871 0.950 . S
H2852 C2873 0.950 . S
H2853 C2876 0.950 . S
H2854 C2877 0.950 . S
H2855 C2879 0.950 . S
H2856 C2880 0.950 . S
H2857 C2881 0.951 . S
H2858 C2883 0.951 . S
H2859 C2885 0.950 . S
H2860 C2886 0.950 . S
H2861 C2888 0.950 . S
H2862 C2891 0.950 . S
H2863 C2892 0.950 . S
H2864 C2894 0.950 . S
H2865 C2895 0.950 . S
C2866 H2848 0.951 . S
C2866 C2867 1.366 . S
C2866 C2868 1.388 . S
C2867 C2866 1.366 . S
C2867 C2871 1.385 . S
C2868 H2849 0.951 . S
C2868 C2866 1.388 . S
C2868 C2869 1.366 . S
C2869 C2868 1.366 . S
C2869 C2870 1.414 . S
C2869 C2872 1.499 . S
C2870 H2850 0.950 . S
C2870 C2869 1.414 . S
C2870 C2871 1.374 . S
C2871 H2851 0.950 . S
C2871 C2867 1.385 . S
C2871 C2870 1.374 . S
C2872 C2869 1.499 . S
C2872 C2873 1.373 . S
C2872 C2874 1.389 . S
C2873 H2852 0.950 . S
C2873 C2872 1.373 . S
C2873 C2889 1.377 . S
C2874 C2872 1.389 . S
C2874 C2875 1.524 . S
C2874 C2888 1.377 . S
C2875 C2874 1.524 . S
C2875 C2876 1.397 . S
C2875 C2880 1.363 . S
C2876 H2853 0.950 . S
C2876 C2875 1.397 . S
C2876 C2877 1.334 . S
C2877 H2854 0.950 . S
C2877 C2876 1.334 . S
C2877 C2878 1.287 . S
C2878 C2877 1.287 . S
C2878 C2879 1.524 . S
C2878 H2897 0.913 . S
C2879 H2855 0.950 . S
C2879 C2878 1.524 . S
C2879 C2880 1.415 . S
C2880 H2856 0.950 . S
C2880 C2875 1.363 . S
C2880 C2879 1.415 . S
C2881 H2857 0.951 . S
C2881 C2882 1.366 . S
C2881 C2883 1.388 . S
C2882 C2881 1.366 . S
C2882 C2886 1.385 . S
C2883 H2858 0.951 . S
C2883 C2881 1.388 . S
C2883 C2884 1.366 . S
C2884 C2883 1.366 . S
C2884 C2885 1.414 . S
C2884 C2887 1.499 . S
C2885 H2859 0.950 . S
C2885 C2884 1.414 . S
C2885 C2886 1.374 . S
C2886 H2860 0.950 . S
C2886 C2882 1.385 . S
C2886 C2885 1.374 . S
C2887 C2884 1.499 . S
C2887 C2888 1.373 . S
C2887 C2889 1.389 . S
C2888 H2861 0.950 . S
C2888 C2874 1.377 . S
C2888 C2887 1.373 . S
C2889 C2873 1.377 . S
C2889 C2887 1.389 . S
C2889 C2890 1.524 . S
C2890 C2889 1.524 . S
C2890 C2891 1.397 . S
C2890 C2895 1.363 . S
C2891 H2862 0.950 . S
C2891 C2890 1.397 . S
C2891 C2892 1.334 . S
C2892 H2863 0.950 . S
C2892 C2891 1.334 . S
C2892 C2893 1.287 . S
C2893 C2892 1.287 . S
C2893 C2894 1.524 . S
C2893 H2896 0.999 . S
C2894 H2864 0.950 . S
C2894 C2893 1.524 . S
C2894 C2895 1.415 . S
C2895 H2865 0.950 . S
C2895 C2890 1.363 . S
C2895 C2894 1.415 . S
H2896 C2893 0.999 . S
H2897 C2878 0.913 . S
H2898 C2916 0.951 . S
H2899 C2918 0.951 . S
H2900 C2920 0.950 . S
H2901 C2921 0.950 . S
H2902 C2923 0.950 . S
H2903 C2926 0.950 . S
H2904 C2927 0.950 . S
H2905 C2929 0.950 . S
H2906 C2930 0.950 . S
H2907 C2931 0.951 . S
H2908 C2933 0.951 . S
H2909 C2935 0.950 . S
H2910 C2936 0.950 1_556 S
H2911 C2938 0.950 . S
H2912 C2941 0.950 1_556 S
H2913 C2942 0.950 . S
H2914 C2944 0.950 . S
H2915 C2945 0.950 . S
C2916 H2898 0.951 . S
C2916 C2917 1.366 . S
C2916 C2918 1.388 . S
C2917 C2916 1.366 . S
C2917 C2921 1.385 . S
C2918 H2899 0.951 . S
C2918 C2916 1.388 . S
C2918 C2919 1.366 . S
C2919 C2918 1.366 . S
C2919 C2920 1.414 . S
C2919 C2922 1.499 . S
C2920 H2900 0.950 . S
C2920 C2919 1.414 . S
C2920 C2921 1.374 . S
C2921 H2901 0.950 . S
C2921 C2917 1.385 . S
C2921 C2920 1.374 . S
C2922 C2919 1.499 . S
C2922 C2923 1.373 . S
C2922 C2924 1.389 . S
C2923 H2902 0.950 . S
C2923 C2922 1.373 . S
C2923 C2939 1.377 . S
C2924 C2922 1.389 . S
C2924 C2925 1.524 . S
C2924 C2938 1.377 . S
C2925 C2924 1.524 . S
C2925 C2926 1.397 . S
C2925 C2930 1.363 . S
C2926 H2903 0.950 . S
C2926 C2925 1.397 . S
C2926 C2927 1.334 . S
C2927 H2904 0.950 . S
C2927 C2926 1.334 . S
C2927 C2928 1.287 . S
C2928 C2927 1.287 . S
C2928 C2929 1.524 . S
C2928 H2947 0.913 . S
C2929 H2905 0.950 . S
C2929 C2928 1.524 . S
C2929 C2930 1.415 . S
C2930 H2906 0.950 . S
C2930 C2925 1.363 . S
C2930 C2929 1.415 . S
C2931 H2907 0.951 . S
C2931 C2932 1.366 . S
C2931 C2933 1.388 . S
C2932 C2931 1.366 . S
C2932 C2936 1.385 . S
C2933 H2908 0.951 . S
C2933 C2931 1.388 . S
C2933 C2934 1.366 1_554 S
C2934 C2933 1.366 1_556 S
C2934 C2935 1.414 . S
C2934 C2937 1.499 . S
C2935 H2909 0.950 . S
C2935 C2934 1.414 . S
C2935 C2936 1.374 1_556 S
C2936 H2910 0.950 1_554 S
C2936 C2932 1.385 . S
C2936 C2935 1.374 1_554 S
C2937 C2934 1.499 . S
C2937 C2938 1.373 . S
C2937 C2939 1.389 . S
C2938 H2911 0.950 . S
C2938 C2924 1.377 . S
C2938 C2937 1.373 . S
C2939 C2923 1.377 . S
C2939 C2937 1.389 . S
C2939 C2940 1.524 . S
C2940 C2939 1.524 . S
C2940 C2941 1.397 1_556 S
C2940 C2945 1.363 1_556 S
C2941 H2912 0.950 1_554 S
C2941 C2940 1.397 1_554 S
C2941 C2942 1.334 . S
C2942 H2913 0.950 . S
C2942 C2941 1.334 . S
C2942 C2943 1.287 . S
C2943 C2942 1.287 . S
C2943 C2944 1.524 . S
C2943 H2946 0.999 . S
C2944 H2914 0.950 . S
C2944 C2943 1.524 . S
C2944 C2945 1.415 . S
C2945 H2915 0.950 . S
C2945 C2940 1.363 1_554 S
C2945 C2944 1.415 . S
H2946 C2943 0.999 . S
H2947 C2928 0.913 . S
H2948 C2966 0.951 . S
H2949 C2968 0.951 . S
H2950 C2970 0.950 . S
H2951 C2971 0.950 . S
H2952 C2973 0.950 . S
H2953 C2976 0.950 . S
H2954 C2977 0.950 . S
H2955 C2979 0.946 1_554 S
H2956 C2980 0.950 . S
H2957 C2981 0.951 . S
H2958 C2983 0.951 . S
H2959 C2985 0.950 . S
H2960 C2986 0.950 . S
H2961 C2988 0.950 . S
H2962 C2991 0.950 . S
H2963 C2992 0.950 . S
H2964 C2994 0.950 . S
H2965 C2995 0.950 . S
C2966 H2948 0.951 . S
C2966 C2967 1.366 . S
C2966 C2968 1.388 . S
C2967 C2966 1.366 . S
C2967 C2971 1.385 . S
C2968 H2949 0.951 . S
C2968 C2966 1.388 . S
C2968 C2969 1.366 . S
C2969 C2968 1.366 . S
C2969 C2970 1.414 . S
C2969 C2972 1.499 1_554 S
C2970 H2950 0.950 . S
C2970 C2969 1.414 . S
C2970 C2971 1.374 . S
C2971 H2951 0.950 . S
C2971 C2967 1.385 . S
C2971 C2970 1.374 . S
C2972 C2969 1.499 1_556 S
C2972 C2973 1.373 . S
C2972 C2974 1.389 . S
C2973 H2952 0.950 . S
C2973 C2972 1.373 . S
C2973 C2989 1.377 . S
C2974 C2972 1.389 . S
C2974 C2975 1.524 . S
C2974 C2988 1.377 . S
C2975 C2974 1.524 . S
C2975 C2976 1.397 . S
C2975 C2980 1.363 . S
C2976 H2953 0.950 . S
C2976 C2975 1.397 . S
C2976 C2977 1.334 . S
C2977 H2954 0.950 . S
C2977 C2976 1.334 . S
C2977 C2978 1.287 . S
C2978 C2977 1.287 . S
C2978 C2979 1.527 . S
C2978 H2997 0.913 . S
C2979 H2955 0.946 1_556 S
C2979 C2978 1.527 . S
C2979 C2980 1.416 . S
C2980 H2956 0.950 . S
C2980 C2975 1.363 . S
C2980 C2979 1.416 . S
C2981 H2957 0.951 . S
C2981 C2982 1.366 . S
C2981 C2983 1.388 . S
C2982 C2981 1.366 . S
C2982 C2986 1.385 . S
C2983 H2958 0.951 . S
C2983 C2981 1.388 . S
C2983 C2984 1.366 . S
C2984 C2983 1.366 . S
C2984 C2985 1.414 . S
C2984 C2987 1.499 . S
C2985 H2959 0.950 . S
C2985 C2984 1.414 . S
C2985 C2986 1.374 . S
C2986 H2960 0.950 . S
C2986 C2982 1.385 . S
C2986 C2985 1.374 . S
C2987 C2984 1.499 . S
C2987 C2988 1.373 . S
C2987 C2989 1.389 . S
C2988 H2961 0.950 . S
C2988 C2974 1.377 . S
C2988 C2987 1.373 . S
C2989 C2973 1.377 . S
C2989 C2987 1.389 . S
C2989 C2990 1.524 . S
C2990 C2989 1.524 . S
C2990 C2991 1.397 . S
C2990 C2995 1.363 . S
C2991 H2962 0.950 . S
C2991 C2990 1.397 . S
C2991 C2992 1.334 . S
C2992 H2963 0.950 . S
C2992 C2991 1.334 . S
C2992 C2993 1.287 . S
C2993 C2992 1.287 . S
C2993 C2994 1.524 . S
C2993 H2996 0.999 . S
C2994 H2964 0.950 . S
C2994 C2993 1.524 . S
C2994 C2995 1.415 . S
C2995 H2965 0.950 . S
C2995 C2990 1.363 . S
C2995 C2994 1.415 . S
H2996 C2993 0.999 . S
H2997 C2978 0.913 . S
H2998 C3016 0.951 . S
H2999 C3018 0.951 . S
H3000 C3020 0.950 . S
H3001 C3021 0.950 . S
H3002 C3023 0.950 . S
H3003 C3026 0.950 . S
H3004 C3027 0.950 . S
H3005 C3029 0.950 . S
H3006 C3030 0.950 . S
H3007 C3031 0.951 . S
H3008 C3033 0.951 . S
H3009 C3035 0.950 . S
H3010 C3036 0.950 . S
H3011 C3038 0.950 . S
H3012 C3041 0.950 . S
H3013 C3042 0.950 . S
H3014 C3044 0.950 . S
H3015 C3045 0.950 . S
C3016 H2998 0.951 . S
C3016 C3017 1.366 . S
C3016 C3018 1.388 . S
C3017 C3016 1.366 . S
C3017 C3021 1.385 . S
C3018 H2999 0.951 . S
C3018 C3016 1.388 . S
C3018 C3019 1.366 . S
C3019 C3018 1.366 . S
C3019 C3020 1.414 . S
C3019 C3022 1.499 . S
C3020 H3000 0.950 . S
C3020 C3019 1.414 . S
C3020 C3021 1.374 . S
C3021 H3001 0.950 . S
C3021 C3017 1.385 . S
C3021 C3020 1.374 . S
C3022 C3019 1.499 . S
C3022 C3023 1.373 . S
C3022 C3024 1.389 . S
C3023 H3002 0.950 . S
C3023 C3022 1.373 . S
C3023 C3039 1.377 1_655 S
C3024 C3022 1.389 . S
C3024 C3025 1.524 . S
C3024 C3038 1.377 1_655 S
C3025 C3024 1.524 . S
C3025 C3026 1.397 . S
C3025 C3030 1.363 . S
C3026 H3003 0.950 . S
C3026 C3025 1.397 . S
C3026 C3027 1.334 . S
C3027 H3004 0.950 . S
C3027 C3026 1.334 . S
C3027 C3028 1.287 . S
C3028 C3027 1.287 . S
C3028 C3029 1.524 . S
C3028 H3047 0.913 . S
C3029 H3005 0.950 . S
C3029 C3028 1.524 . S
C3029 C3030 1.415 . S
C3030 H3006 0.950 . S
C3030 C3025 1.363 . S
C3030 C3029 1.415 . S
C3031 H3007 0.951 . S
C3031 C3032 1.366 . S
C3031 C3033 1.388 . S
C3032 C3031 1.366 . S
C3032 C3036 1.385 . S
C3033 H3008 0.951 . S
C3033 C3031 1.388 . S
C3033 C3034 1.366 . S
C3034 C3033 1.366 . S
C3034 C3035 1.414 . S
C3034 C3037 1.499 . S
C3035 H3009 0.950 . S
C3035 C3034 1.414 . S
C3035 C3036 1.374 . S
C3036 H3010 0.950 . S
C3036 C3032 1.385 . S
C3036 C3035 1.374 . S
C3037 C3034 1.499 . S
C3037 C3038 1.373 . S
C3037 C3039 1.389 . S
C3038 H3011 0.950 . S
C3038 C3024 1.377 1_455 S
C3038 C3037 1.373 . S
C3039 C3023 1.377 1_455 S
C3039 C3037 1.389 . S
C3039 C3040 1.524 . S
C3040 C3039 1.524 . S
C3040 C3041 1.397 . S
C3040 C3045 1.363 . S
C3041 H3012 0.950 . S
C3041 C3040 1.397 . S
C3041 C3042 1.334 . S
C3042 H3013 0.950 . S
C3042 C3041 1.334 . S
C3042 C3043 1.287 . S
C3043 C3042 1.287 . S
C3043 C3044 1.524 . S
C3043 H3046 0.999 . S
C3044 H3014 0.950 . S
C3044 C3043 1.524 . S
C3044 C3045 1.415 . S
C3045 H3015 0.950 . S
C3045 C3040 1.363 . S
C3045 C3044 1.415 . S
H3046 C3043 0.999 . S
H3047 C3028 0.913 . S
H3048 C3066 0.951 . S
H3049 C3068 0.951 . S
H3050 C3070 0.950 1_554 S
H3051 C3071 0.950 . S
H3052 C3073 0.950 . S
H3053 C3076 0.950 . S
H3054 C3077 0.950 . S
H3055 C3079 0.950 . S
H3056 C3080 0.950 . S
H3057 C3081 0.951 . S
H3058 C3083 0.951 . S
H3059 C3085 0.950 . S
H3060 C3086 0.950 . S
H3061 C3088 0.950 . S
H3062 C3091 0.950 . S
H3063 C3092 0.950 . S
H3064 C3094 0.950 . S
H3065 C3095 0.950 . S
C3066 H3048 0.951 . S
C3066 C3067 1.366 . S
C3066 C3068 1.388 . S
C3067 C3066 1.366 . S
C3067 C3071 1.385 . S
C3068 H3049 0.951 . S
C3068 C3066 1.388 . S
C3068 C3069 1.366 . S
C3069 C3068 1.366 . S
C3069 C3070 1.414 . S
C3069 C3072 1.499 1_556 S
C3070 H3050 0.950 1_556 S
C3070 C3069 1.414 . S
C3070 C3071 1.374 . S
C3071 H3051 0.950 . S
C3071 C3067 1.385 . S
C3071 C3070 1.374 . S
C3072 C3069 1.499 1_554 S
C3072 C3073 1.373 . S
C3072 C3074 1.389 1_554 S
C3073 H3052 0.950 . S
C3073 C3072 1.373 . S
C3073 C3089 1.377 . S
C3074 C3072 1.389 1_556 S
C3074 C3075 1.524 . S
C3074 C3088 1.377 1_556 S
C3075 C3074 1.524 . S
C3075 C3076 1.397 . S
C3075 C3080 1.363 . S
C3076 H3053 0.950 . S
C3076 C3075 1.397 . S
C3076 C3077 1.334 . S
C3077 H3054 0.950 . S
C3077 C3076 1.334 . S
C3077 C3078 1.287 . S
C3078 C3077 1.287 . S
C3078 C3079 1.524 . S
C3078 H3097 0.913 . S
C3079 H3055 0.950 . S
C3079 C3078 1.524 . S
C3079 C3080 1.415 . S
C3080 H3056 0.950 . S
C3080 C3075 1.363 . S
C3080 C3079 1.415 . S
C3081 H3057 0.951 . S
C3081 C3082 1.366 . S
C3081 C3083 1.388 . S
C3082 C3081 1.366 . S
C3082 C3086 1.385 . S
C3083 H3058 0.951 . S
C3083 C3081 1.388 . S
C3083 C3084 1.366 . S
C3084 C3083 1.366 . S
C3084 C3085 1.414 . S
C3084 C3087 1.499 . S
C3085 H3059 0.950 . S
C3085 C3084 1.414 . S
C3085 C3086 1.374 . S
C3086 H3060 0.950 . S
C3086 C3082 1.385 . S
C3086 C3085 1.374 . S
C3087 C3084 1.499 . S
C3087 C3088 1.373 . S
C3087 C3089 1.389 . S
C3088 H3061 0.950 . S
C3088 C3074 1.377 1_554 S
C3088 C3087 1.373 . S
C3089 C3073 1.377 . S
C3089 C3087 1.389 . S
C3089 C3090 1.524 . S
C3090 C3089 1.524 . S
C3090 C3091 1.397 . S
C3090 C3095 1.363 . S
C3091 H3062 0.950 . S
C3091 C3090 1.397 . S
C3091 C3092 1.334 . S
C3092 H3063 0.950 . S
C3092 C3091 1.334 . S
C3092 C3093 1.287 . S
C3093 C3092 1.287 . S
C3093 C3094 1.524 . S
C3093 H3096 0.999 . S
C3094 H3064 0.950 . S
C3094 C3093 1.524 . S
C3094 C3095 1.415 . S
C3095 H3065 0.950 . S
C3095 C3090 1.363 . S
C3095 C3094 1.415 . S
H3096 C3093 0.999 . S
H3097 C3078 0.913 . S
H3098 C3116 0.951 1_554 S
H3099 C3118 0.951 . S
H3100 C3120 0.950 . S
H3101 C3121 0.950 . S
H3102 C3123 0.950 . S
H3103 C3126 0.950 . S
H3104 C3127 0.950 . S
H3105 C3129 0.950 . S
H3106 C3130 0.950 . S
H3107 C3131 0.951 . S
H3108 C3133 0.951 . S
H3109 C3135 0.950 . S
H3110 C3136 0.950 . S
H3111 C3138 0.950 . S
H3112 C3141 0.950 . S
H3113 C3142 0.950 . S
H3114 C3144 0.950 1_556 S
H3115 C3145 0.950 . S
C3116 H3098 0.951 1_556 S
C3116 C3117 1.366 . S
C3116 C3118 1.388 1_556 S
C3117 C3116 1.366 . S
C3117 C3121 1.385 . S
C3118 H3099 0.951 . S
C3118 C3116 1.388 1_554 S
C3118 C3119 1.366 . S
C3119 C3118 1.366 . S
C3119 C3120 1.414 1_554 S
C3119 C3122 1.499 . S
C3120 H3100 0.950 . S
C3120 C3119 1.414 1_556 S
C3120 C3121 1.374 . S
C3121 H3101 0.950 . S
C3121 C3117 1.385 . S
C3121 C3120 1.374 . S
C3122 C3119 1.499 . S
C3122 C3123 1.373 1_655 S
C3122 C3124 1.389 . S
C3123 H3102 0.950 . S
C3123 C3122 1.373 1_455 S
C3123 C3139 1.377 . S
C3124 C3122 1.389 . S
C3124 C3125 1.524 . S
C3124 C3138 1.377 . S
C3125 C3124 1.524 . S
C3125 C3126 1.397 . S
C3125 C3130 1.363 . S
C3126 H3103 0.950 . S
C3126 C3125 1.397 . S
C3126 C3127 1.334 . S
C3127 H3104 0.950 . S
C3127 C3126 1.334 . S
C3127 C3128 1.287 . S
C3128 C3127 1.287 . S
C3128 C3129 1.524 . S
C3128 H3147 0.913 . S
C3129 H3105 0.950 . S
C3129 C3128 1.524 . S
C3129 C3130 1.415 . S
C3130 H3106 0.950 . S
C3130 C3125 1.363 . S
C3130 C3129 1.415 . S
C3131 H3107 0.951 . S
C3131 C3132 1.366 . S
C3131 C3133 1.388 . S
C3132 C3131 1.366 . S
C3132 C3136 1.385 . S
C3133 H3108 0.951 . S
C3133 C3131 1.388 . S
C3133 C3134 1.366 . S
C3134 C3133 1.366 . S
C3134 C3135 1.414 . S
C3134 C3137 1.499 . S
C3135 H3109 0.950 . S
C3135 C3134 1.414 . S
C3135 C3136 1.374 . S
C3136 H3110 0.950 . S
C3136 C3132 1.385 . S
C3136 C3135 1.374 . S
C3137 C3134 1.499 . S
C3137 C3138 1.373 1_455 S
C3137 C3139 1.389 . S
C3138 H3111 0.950 . S
C3138 C3124 1.377 . S
C3138 C3137 1.373 1_655 S
C3139 C3123 1.377 . S
C3139 C3137 1.389 . S
C3139 C3140 1.524 . S
C3140 C3139 1.524 . S
C3140 C3141 1.397 . S
C3140 C3145 1.363 . S
C3141 H3112 0.950 . S
C3141 C3140 1.397 . S
C3141 C3142 1.334 . S
C3142 H3113 0.950 . S
C3142 C3141 1.334 . S
C3142 C3143 1.287 . S
C3143 C3142 1.287 . S
C3143 C3144 1.524 . S
C3143 H3146 0.999 . S
C3144 H3114 0.950 1_554 S
C3144 C3143 1.524 . S
C3144 C3145 1.415 . S
C3145 H3115 0.950 . S
C3145 C3140 1.363 . S
C3145 C3144 1.415 . S
H3146 C3143 0.999 . S
H3147 C3128 0.913 . S
H3148 C3166 0.951 . S
H3149 C3168 0.951 . S
H3150 C3170 0.950 . S
H3151 C3171 0.950 . S
H3152 C3173 0.950 . S
H3153 C3176 0.950 . S
H3154 C3177 0.950 . S
H3155 C3179 0.950 . S
H3156 C3180 0.950 . S
H3157 C3181 0.951 . S
H3158 C3183 0.951 . S
H3159 C3185 0.950 . S
H3160 C3186 0.950 . S
H3161 C3188 0.950 . S
H3162 C3191 0.950 . S
H3163 C3192 0.950 . S
H3164 C3194 0.950 . S
H3165 C3195 0.950 . S
C3166 H3148 0.951 . S
C3166 C3167 1.366 . S
C3166 C3168 1.388 . S
C3167 C3166 1.366 . S
C3167 C3171 1.385 . S
C3168 H3149 0.951 . S
C3168 C3166 1.388 . S
C3168 C3169 1.366 . S
C3169 C3168 1.366 . S
C3169 C3170 1.414 . S
C3169 C3172 1.499 . S
C3170 H3150 0.950 . S
C3170 C3169 1.414 . S
C3170 C3171 1.374 . S
C3171 H3151 0.950 . S
C3171 C3167 1.385 . S
C3171 C3170 1.374 . S
C3172 C3169 1.499 . S
C3172 C3173 1.373 . S
C3172 C3174 1.389 . S
C3173 H3152 0.950 . S
C3173 C3172 1.373 . S
C3173 C3189 1.377 . S
C3174 C3172 1.389 . S
C3174 C3175 1.524 . S
C3174 C3188 1.377 . S
C3175 C3174 1.524 . S
C3175 C3176 1.397 . S
C3175 C3180 1.363 . S
C3176 H3153 0.950 . S
C3176 C3175 1.397 . S
C3176 C3177 1.334 . S
C3177 H3154 0.950 . S
C3177 C3176 1.334 . S
C3177 C3178 1.287 . S
C3178 C3177 1.287 . S
C3178 C3179 1.524 . S
C3178 H3197 0.913 . S
C3179 H3155 0.950 . S
C3179 C3178 1.524 . S
C3179 C3180 1.415 . S
C3180 H3156 0.950 . S
C3180 C3175 1.363 . S
C3180 C3179 1.415 . S
C3181 H3157 0.951 . S
C3181 C3182 1.366 . S
C3181 C3183 1.388 . S
C3182 C3181 1.366 . S
C3182 C3186 1.385 . S
C3183 H3158 0.951 . S
C3183 C3181 1.388 . S
C3183 C3184 1.366 . S
C3184 C3183 1.366 . S
C3184 C3185 1.414 . S
C3184 C3187 1.499 . S
C3185 H3159 0.950 . S
C3185 C3184 1.414 . S
C3185 C3186 1.374 . S
C3186 H3160 0.950 . S
C3186 C3182 1.385 . S
C3186 C3185 1.374 . S
C3187 C3184 1.499 . S
C3187 C3188 1.373 . S
C3187 C3189 1.389 . S
C3188 H3161 0.950 . S
C3188 C3174 1.377 . S
C3188 C3187 1.373 . S
C3189 C3173 1.377 . S
C3189 C3187 1.389 . S
C3189 C3190 1.524 . S
C3190 C3189 1.524 . S
C3190 C3191 1.397 . S
C3190 C3195 1.363 . S
C3191 H3162 0.950 . S
C3191 C3190 1.397 . S
C3191 C3192 1.334 . S
C3192 H3163 0.950 . S
C3192 C3191 1.334 . S
C3192 C3193 1.287 . S
C3193 C3192 1.287 . S
C3193 C3194 1.524 . S
C3193 H3196 0.999 . S
C3194 H3164 0.950 . S
C3194 C3193 1.524 . S
C3194 C3195 1.415 . S
C3195 H3165 0.950 . S
C3195 C3190 1.363 . S
C3195 C3194 1.415 . S
H3196 C3193 0.999 . S
H3197 C3178 0.913 . S
H3198 C3216 0.951 . S
H3199 C3218 0.951 . S
H3200 C3220 0.950 . S
H3201 C3221 0.950 . S
H3202 C3223 0.950 . S
H3203 C3226 0.950 . S
H3204 C3227 0.950 . S
H3205 C3229 0.950 . S
H3206 C3230 0.950 . S
H3207 C3231 0.951 . S
H3208 C3233 0.951 . S
H3209 C3235 0.950 . S
H3210 C3236 0.950 . S
H3211 C3238 0.950 . S
H3212 C3241 0.950 . S
H3213 C3242 0.950 . S
H3214 C3244 0.950 . S
H3215 C3245 0.950 . S
C3216 H3198 0.951 . S
C3216 C3217 1.366 . S
C3216 C3218 1.388 . S
C3217 C3216 1.366 . S
C3217 C3221 1.385 . S
C3218 H3199 0.951 . S
C3218 C3216 1.388 . S
C3218 C3219 1.366 . S
C3219 C3218 1.366 . S
C3219 C3220 1.414 . S
C3219 C3222 1.499 . S
C3220 H3200 0.950 . S
C3220 C3219 1.414 . S
C3220 C3221 1.374 . S
C3221 H3201 0.950 . S
C3221 C3217 1.385 . S
C3221 C3220 1.374 . S
C3222 C3219 1.499 . S
C3222 C3223 1.373 . S
C3222 C3224 1.389 . S
C3223 H3202 0.950 . S
C3223 C3222 1.373 . S
C3223 C3239 1.377 . S
C3224 C3222 1.389 . S
C3224 C3225 1.524 . S
C3224 C3238 1.377 . S
C3225 C3224 1.524 . S
C3225 C3226 1.397 . S
C3225 C3230 1.363 . S
C3226 H3203 0.950 . S
C3226 C3225 1.397 . S
C3226 C3227 1.334 . S
C3227 H3204 0.950 . S
C3227 C3226 1.334 . S
C3227 C3228 1.287 . S
C3228 C3227 1.287 . S
C3228 C3229 1.524 . S
C3228 H3247 0.913 . S
C3229 H3205 0.950 . S
C3229 C3228 1.524 . S
C3229 C3230 1.415 . S
C3230 H3206 0.950 . S
C3230 C3225 1.363 . S
C3230 C3229 1.415 . S
C3231 H3207 0.951 . S
C3231 C3232 1.366 . S
C3231 C3233 1.388 . S
C3232 C3231 1.366 . S
C3232 C3236 1.385 . S
C3233 H3208 0.951 . S
C3233 C3231 1.388 . S
C3233 C3234 1.366 . S
C3234 C3233 1.366 . S
C3234 C3235 1.414 . S
C3234 C3237 1.499 . S
C3235 H3209 0.950 . S
C3235 C3234 1.414 . S
C3235 C3236 1.374 . S
C3236 H3210 0.950 . S
C3236 C3232 1.385 . S
C3236 C3235 1.374 . S
C3237 C3234 1.499 . S
C3237 C3238 1.373 . S
C3237 C3239 1.389 . S
C3238 H3211 0.950 . S
C3238 C3224 1.377 . S
C3238 C3237 1.373 . S
C3239 C3223 1.377 . S
C3239 C3237 1.389 . S
C3239 C3240 1.524 . S
C3240 C3239 1.524 . S
C3240 C3241 1.397 . S
C3240 C3245 1.363 . S
C3241 H3212 0.950 . S
C3241 C3240 1.397 . S
C3241 C3242 1.334 . S
C3242 H3213 0.950 . S
C3242 C3241 1.334 . S
C3242 C3243 1.287 . S
C3243 C3242 1.287 . S
C3243 C3244 1.524 . S
C3243 H3246 0.999 . S
C3244 H3214 0.950 . S
C3244 C3243 1.524 . S
C3244 C3245 1.415 . S
C3245 H3215 0.950 . S
C3245 C3240 1.363 . S
C3245 C3244 1.415 . S
H3246 C3243 0.999 . S
H3247 C3228 0.913 . S
H3248 C3266 0.951 . S
H3249 C3268 0.951 . S
H3250 C3270 0.950 . S
H3251 C3271 0.950 . S
H3252 C3273 0.950 . S
H3253 C3276 0.950 . S
H3254 C3277 0.950 . S
H3255 C3279 0.950 . S
H3256 C3280 0.950 . S
H3257 C3281 0.951 . S
H3258 C3283 0.951 . S
H3259 C3285 0.950 . S
H3260 C3286 0.950 . S
H3261 C3288 0.950 . S
H3262 C3291 0.950 . S
H3263 C3292 0.950 . S
H3264 C3294 0.950 . S
H3265 C3295 0.950 . S
C3266 H3248 0.951 . S
C3266 C3267 1.366 . S
C3266 C3268 1.388 . S
C3267 C3266 1.366 . S
C3267 C3271 1.385 . S
C3268 H3249 0.951 . S
C3268 C3266 1.388 . S
C3268 C3269 1.366 . S
C3269 C3268 1.366 . S
C3269 C3270 1.414 . S
C3269 C3272 1.499 . S
C3270 H3250 0.950 . S
C3270 C3269 1.414 . S
C3270 C3271 1.374 . S
C3271 H3251 0.950 . S
C3271 C3267 1.385 . S
C3271 C3270 1.374 . S
C3272 C3269 1.499 . S
C3272 C3273 1.373 . S
C3272 C3274 1.389 . S
C3273 H3252 0.950 . S
C3273 C3272 1.373 . S
C3273 C3289 1.377 . S
C3274 C3272 1.389 . S
C3274 C3275 1.524 . S
C3274 C3288 1.377 . S
C3275 C3274 1.524 . S
C3275 C3276 1.397 . S
C3275 C3280 1.363 . S
C3276 H3253 0.950 . S
C3276 C3275 1.397 . S
C3276 C3277 1.334 . S
C3277 H3254 0.950 . S
C3277 C3276 1.334 . S
C3277 C3278 1.287 . S
C3278 C3277 1.287 . S
C3278 C3279 1.524 . S
C3278 H3297 0.913 . S
C3279 H3255 0.950 . S
C3279 C3278 1.524 . S
C3279 C3280 1.415 . S
C3280 H3256 0.950 . S
C3280 C3275 1.363 . S
C3280 C3279 1.415 . S
C3281 H3257 0.951 . S
C3281 C3282 1.366 . S
C3281 C3283 1.388 . S
C3282 C3281 1.366 . S
C3282 C3286 1.385 . S
C3283 H3258 0.951 . S
C3283 C3281 1.388 . S
C3283 C3284 1.366 . S
C3284 C3283 1.366 . S
C3284 C3285 1.414 . S
C3284 C3287 1.499 . S
C3285 H3259 0.950 . S
C3285 C3284 1.414 . S
C3285 C3286 1.374 . S
C3286 H3260 0.950 . S
C3286 C3282 1.385 . S
C3286 C3285 1.374 . S
C3287 C3284 1.499 . S
C3287 C3288 1.373 . S
C3287 C3289 1.389 . S
C3288 H3261 0.950 . S
C3288 C3274 1.377 . S
C3288 C3287 1.373 . S
C3289 C3273 1.377 . S
C3289 C3287 1.389 . S
C3289 C3290 1.524 . S
C3290 C3289 1.524 . S
C3290 C3291 1.397 . S
C3290 C3295 1.363 . S
C3291 H3262 0.950 . S
C3291 C3290 1.397 . S
C3291 C3292 1.334 . S
C3292 H3263 0.950 . S
C3292 C3291 1.334 . S
C3292 C3293 1.287 . S
C3293 C3292 1.287 . S
C3293 C3294 1.524 . S
C3293 H3296 0.999 . S
C3294 H3264 0.950 . S
C3294 C3293 1.524 . S
C3294 C3295 1.415 . S
C3295 H3265 0.950 . S
C3295 C3290 1.363 . S
C3295 C3294 1.415 . S
H3296 C3293 0.999 . S
H3297 C3278 0.913 . S
H3298 C3316 0.951 . S
H3299 C3318 0.951 . S
H3300 C3320 0.950 . S
H3301 C3321 0.950 . S
H3302 C3323 0.950 . S
H3303 C3326 0.950 . S
H3304 C3327 0.950 . S
H3305 C3329 0.950 . S
H3306 C3330 0.950 . S
H3307 C3331 0.951 . S
H3308 C3333 0.951 1_554 S
H3309 C3335 0.950 . S
H3310 C3336 0.950 . S
H3311 C3338 0.950 . S
H3312 C3341 0.950 . S
H3313 C3342 0.950 . S
H3314 C3344 0.950 . S
H3315 C3345 0.950 1_554 S
C3316 H3298 0.951 . S
C3316 C3317 1.366 . S
C3316 C3318 1.388 . S
C3317 C3316 1.366 . S
C3317 C3321 1.385 . S
C3318 H3299 0.951 . S
C3318 C3316 1.388 . S
C3318 C3319 1.366 . S
C3319 C3318 1.366 . S
C3319 C3320 1.414 . S
C3319 C3322 1.499 . S
C3320 H3300 0.950 . S
C3320 C3319 1.414 . S
C3320 C3321 1.374 . S
C3321 H3301 0.950 . S
C3321 C3317 1.385 . S
C3321 C3320 1.374 . S
C3322 C3319 1.499 . S
C3322 C3323 1.373 . S
C3322 C3324 1.389 . S
C3323 H3302 0.950 . S
C3323 C3322 1.373 . S
C3323 C3339 1.377 . S
C3324 C3322 1.389 . S
C3324 C3325 1.524 . S
C3324 C3338 1.377 . S
C3325 C3324 1.524 . S
C3325 C3326 1.397 . S
C3325 C3330 1.363 . S
C3326 H3303 0.950 . S
C3326 C3325 1.397 . S
C3326 C3327 1.334 . S
C3327 H3304 0.950 . S
C3327 C3326 1.334 . S
C3327 C3328 1.287 . S
C3328 C3327 1.287 . S
C3328 C3329 1.524 . S
C3328 H3347 0.913 . S
C3329 H3305 0.950 . S
C3329 C3328 1.524 . S
C3329 C3330 1.415 . S
C3330 H3306 0.950 . S
C3330 C3325 1.363 . S
C3330 C3329 1.415 . S
C3331 H3307 0.951 . S
C3331 C3332 1.366 . S
C3331 C3333 1.388 . S
C3332 C3331 1.366 . S
C3332 C3336 1.385 . S
C3333 H3308 0.951 1_556 S
C3333 C3331 1.388 . S
C3333 C3334 1.366 1_556 S
C3334 C3333 1.366 1_554 S
C3334 C3335 1.414 . S
C3334 C3337 1.499 . S
C3335 H3309 0.950 . S
C3335 C3334 1.414 . S
C3335 C3336 1.374 1_554 S
C3336 H3310 0.950 . S
C3336 C3332 1.385 . S
C3336 C3335 1.374 1_556 S
C3337 C3334 1.499 . S
C3337 C3338 1.373 . S
C3337 C3339 1.389 . S
C3338 H3311 0.950 . S
C3338 C3324 1.377 . S
C3338 C3337 1.373 . S
C3339 C3323 1.377 . S
C3339 C3337 1.389 . S
C3339 C3340 1.524 1_554 S
C3340 C3339 1.524 1_556 S
C3340 C3341 1.397 . S
C3340 C3345 1.363 . S
C3341 H3312 0.950 . S
C3341 C3340 1.397 . S
C3341 C3342 1.334 . S
C3342 H3313 0.950 . S
C3342 C3341 1.334 . S
C3342 C3343 1.287 . S
C3343 C3342 1.287 . S
C3343 C3344 1.524 . S
C3343 H3346 0.999 . S
C3344 H3314 0.950 . S
C3344 C3343 1.524 . S
C3344 C3345 1.415 . S
C3345 H3315 0.950 1_556 S
C3345 C3340 1.363 . S
C3345 C3344 1.415 . S
H3346 C3343 0.999 . S
H3347 C3328 0.913 . S
H3348 C3366 0.951 . S
H3349 C3368 0.951 . S
H3350 C3370 0.950 . S
H3351 C3371 0.950 . S
H3352 C3373 0.950 . S
H3353 C3376 0.950 . S
H3354 C3377 0.950 . S
H3355 C3379 0.950 . S
H3356 C3380 0.950 . S
H3357 C3381 0.951 . S
H3358 C3383 0.951 . S
H3359 C3385 0.950 . S
H3360 C3386 0.950 . S
H3361 C3388 0.949 1_556 S
H3362 C3391 0.950 . S
H3363 C3392 0.950 . S
H3364 C3394 0.950 . S
H3365 C3395 0.950 . S
C3366 H3348 0.951 . S
C3366 C3367 1.366 . S
C3366 C3368 1.388 . S
C3367 C3366 1.366 . S
C3367 C3371 1.385 . S
C3368 H3349 0.951 . S
C3368 C3366 1.388 . S
C3368 C3369 1.366 . S
C3369 C3368 1.366 . S
C3369 C3370 1.414 . S
C3369 C3372 1.499 . S
C3370 H3350 0.950 . S
C3370 C3369 1.414 . S
C3370 C3371 1.374 . S
C3371 H3351 0.950 . S
C3371 C3367 1.385 . S
C3371 C3370 1.374 . S
C3372 C3369 1.499 . S
C3372 C3373 1.373 . S
C3372 C3374 1.389 . S
C3373 H3352 0.950 . S
C3373 C3372 1.373 . S
C3373 C3389 1.377 . S
C3374 C3372 1.389 . S
C3374 C3375 1.524 . S
C3374 C3388 1.377 . S
C3375 C3374 1.524 . S
C3375 C3376 1.397 . S
C3375 C3380 1.363 . S
C3376 H3353 0.950 . S
C3376 C3375 1.397 . S
C3376 C3377 1.334 . S
C3377 H3354 0.950 . S
C3377 C3376 1.334 . S
C3377 C3378 1.287 . S
C3378 C3377 1.287 . S
C3378 C3379 1.524 . S
C3378 H3397 0.913 . S
C3379 H3355 0.950 . S
C3379 C3378 1.524 . S
C3379 C3380 1.415 . S
C3380 H3356 0.950 . S
C3380 C3375 1.363 . S
C3380 C3379 1.415 . S
C3381 H3357 0.951 . S
C3381 C3382 1.366 . S
C3381 C3383 1.388 . S
C3382 C3381 1.366 . S
C3382 C3386 1.385 . S
C3383 H3358 0.951 . S
C3383 C3381 1.388 . S
C3383 C3384 1.366 . S
C3384 C3383 1.366 . S
C3384 C3385 1.414 . S
C3384 C3387 1.499 1_556 S
C3385 H3359 0.950 . S
C3385 C3384 1.414 . S
C3385 C3386 1.374 . S
C3386 H3360 0.950 . S
C3386 C3382 1.385 . S
C3386 C3385 1.374 . S
C3387 C3384 1.499 1_554 S
C3387 C3388 1.373 . S
C3387 C3389 1.389 . S
C3388 H3361 0.949 1_554 S
C3388 C3374 1.377 . S
C3388 C3387 1.373 . S
C3389 C3373 1.377 . S
C3389 C3387 1.389 . S
C3389 C3390 1.524 . S
C3390 C3389 1.524 . S
C3390 C3391 1.397 . S
C3390 C3395 1.363 . S
C3391 H3362 0.950 . S
C3391 C3390 1.397 . S
C3391 C3392 1.334 . S
C3392 H3363 0.950 . S
C3392 C3391 1.334 . S
C3392 C3393 1.287 . S
C3393 C3392 1.287 . S
C3393 C3394 1.524 . S
C3393 H3396 0.999 . S
C3394 H3364 0.950 . S
C3394 C3393 1.524 . S
C3394 C3395 1.415 . S
C3395 H3365 0.950 . S
C3395 C3390 1.363 . S
C3395 C3394 1.415 . S
H3396 C3393 0.999 . S
H3397 C3378 0.913 . S
H3398 C3416 0.951 . S
H3399 C3418 0.951 . S
H3400 C3420 0.950 . S
H3401 C3421 0.950 . S
H3402 C3423 0.950 . S
H3403 C3426 0.950 . S
H3404 C3427 0.950 . S
H3405 C3429 0.950 . S
H3406 C3430 0.950 . S
H3407 C3431 0.951 . S
H3408 C3433 0.951 . S
H3409 C3435 0.950 . S
H3410 C3436 0.950 . S
H3411 C3438 0.950 . S
H3412 C3441 0.950 . S
H3413 C3442 0.950 . S
H3414 C3444 0.950 . S
H3415 C3445 0.950 . S
C3416 H3398 0.951 . S
C3416 C3417 1.366 . S
C3416 C3418 1.388 . S
C3417 C3416 1.366 . S
C3417 C3421 1.385 . S
C3418 H3399 0.951 . S
C3418 C3416 1.388 . S
C3418 C3419 1.366 . S
C3419 C3418 1.366 . S
C3419 C3420 1.414 . S
C3419 C3422 1.499 . S
C3420 H3400 0.950 . S
C3420 C3419 1.414 . S
C3420 C3421 1.374 . S
C3421 H3401 0.950 . S
C3421 C3417 1.385 . S
C3421 C3420 1.374 . S
C3422 C3419 1.499 . S
C3422 C3423 1.373 . S
C3422 C3424 1.389 . S
C3423 H3402 0.950 . S
C3423 C3422 1.373 . S
C3423 C3439 1.377 1_455 S
C3424 C3422 1.389 . S
C3424 C3425 1.524 . S
C3424 C3438 1.377 1_455 S
C3425 C3424 1.524 . S
C3425 C3426 1.397 . S
C3425 C3430 1.363 . S
C3426 H3403 0.950 . S
C3426 C3425 1.397 . S
C3426 C3427 1.334 . S
C3427 H3404 0.950 . S
C3427 C3426 1.334 . S
C3427 C3428 1.287 . S
C3428 C3427 1.287 . S
C3428 C3429 1.524 . S
C3428 H3447 0.913 . S
C3429 H3405 0.950 . S
C3429 C3428 1.524 . S
C3429 C3430 1.415 . S
C3430 H3406 0.950 . S
C3430 C3425 1.363 . S
C3430 C3429 1.415 . S
C3431 H3407 0.951 . S
C3431 C3432 1.366 . S
C3431 C3433 1.388 . S
C3432 C3431 1.366 . S
C3432 C3436 1.385 . S
C3433 H3408 0.951 . S
C3433 C3431 1.388 . S
C3433 C3434 1.366 . S
C3434 C3433 1.366 . S
C3434 C3435 1.414 . S
C3434 C3437 1.499 . S
C3435 H3409 0.950 . S
C3435 C3434 1.414 . S
C3435 C3436 1.374 . S
C3436 H3410 0.950 . S
C3436 C3432 1.385 . S
C3436 C3435 1.374 . S
C3437 C3434 1.499 . S
C3437 C3438 1.373 . S
C3437 C3439 1.389 . S
C3438 H3411 0.950 . S
C3438 C3424 1.377 1_655 S
C3438 C3437 1.373 . S
C3439 C3423 1.377 1_655 S
C3439 C3437 1.389 . S
C3439 C3440 1.524 . S
C3440 C3439 1.524 . S
C3440 C3441 1.397 . S
C3440 C3445 1.363 . S
C3441 H3412 0.950 . S
C3441 C3440 1.397 . S
C3441 C3442 1.334 . S
C3442 H3413 0.950 . S
C3442 C3441 1.334 . S
C3442 C3443 1.287 . S
C3443 C3442 1.287 . S
C3443 C3444 1.524 . S
C3443 H3446 0.999 . S
C3444 H3414 0.950 . S
C3444 C3443 1.524 . S
C3444 C3445 1.415 . S
C3445 H3415 0.950 . S
C3445 C3440 1.363 . S
C3445 C3444 1.415 . S
H3446 C3443 0.999 . S
H3447 C3428 0.913 . S
H3448 C3466 0.951 . S
H3449 C3468 0.951 1_556 S
H3450 C3470 0.950 . S
H3451 C3471 0.950 . S
H3452 C3473 0.950 . S
H3453 C3476 0.950 1_554 S
H3454 C3477 0.950 1_554 S
H3455 C3479 0.950 . S
H3456 C3480 0.950 . S
H3457 C3481 0.951 . S
H3458 C3483 0.951 . S
H3459 C3485 0.950 . S
H3460 C3486 0.950 . S
H3461 C3488 0.950 . S
H3462 C3491 0.950 . S
H3463 C3492 0.950 . S
H3464 C3494 0.950 . S
H3465 C3495 0.950 . S
C3466 H3448 0.951 . S
C3466 C3467 1.366 . S
C3466 C3468 1.388 . S
C3467 C3466 1.366 . S
C3467 C3471 1.385 . S
C3468 H3449 0.951 1_554 S
C3468 C3466 1.388 . S
C3468 C3469 1.366 . S
C3469 C3468 1.366 . S
C3469 C3470 1.414 . S
C3469 C3472 1.499 1_554 S
C3470 H3450 0.950 . S
C3470 C3469 1.414 . S
C3470 C3471 1.374 . S
C3471 H3451 0.950 . S
C3471 C3467 1.385 . S
C3471 C3470 1.374 . S
C3472 C3469 1.499 1_556 S
C3472 C3473 1.373 1_556 S
C3472 C3474 1.389 . S
C3473 H3452 0.950 . S
C3473 C3472 1.373 1_554 S
C3473 C3489 1.377 1_554 S
C3474 C3472 1.389 . S
C3474 C3475 1.524 . S
C3474 C3488 1.377 . S
C3475 C3474 1.524 . S
C3475 C3476 1.397 . S
C3475 C3480 1.363 . S
C3476 H3453 0.950 1_556 S
C3476 C3475 1.397 . S
C3476 C3477 1.334 . S
C3477 H3454 0.950 1_556 S
C3477 C3476 1.334 . S
C3477 C3478 1.287 . S
C3478 C3477 1.287 . S
C3478 C3479 1.524 . S
C3478 H3497 0.913 . S
C3479 H3455 0.950 . S
C3479 C3478 1.524 . S
C3479 C3480 1.415 . S
C3480 H3456 0.950 . S
C3480 C3475 1.363 . S
C3480 C3479 1.415 . S
C3481 H3457 0.951 . S
C3481 C3482 1.366 . S
C3481 C3483 1.388 . S
C3482 C3481 1.366 . S
C3482 C3486 1.385 . S
C3483 H3458 0.951 . S
C3483 C3481 1.388 . S
C3483 C3484 1.366 . S
C3484 C3483 1.366 . S
C3484 C3485 1.414 . S
C3484 C3487 1.499 . S
C3485 H3459 0.950 . S
C3485 C3484 1.414 . S
C3485 C3486 1.374 . S
C3486 H3460 0.950 . S
C3486 C3482 1.385 . S
C3486 C3485 1.374 . S
C3487 C3484 1.499 . S
C3487 C3488 1.373 . S
C3487 C3489 1.389 . S
C3488 H3461 0.950 . S
C3488 C3474 1.377 . S
C3488 C3487 1.373 . S
C3489 C3473 1.377 1_556 S
C3489 C3487 1.389 . S
C3489 C3490 1.524 . S
C3490 C3489 1.524 . S
C3490 C3491 1.397 . S
C3490 C3495 1.363 1_556 S
C3491 H3462 0.950 . S
C3491 C3490 1.397 . S
C3491 C3492 1.334 . S
C3492 H3463 0.950 . S
C3492 C3491 1.334 . S
C3492 C3493 1.287 . S
C3493 C3492 1.287 . S
C3493 C3494 1.524 1_556 S
C3493 H3496 0.999 . S
C3494 H3464 0.950 . S
C3494 C3493 1.524 1_554 S
C3494 C3495 1.415 . S
C3495 H3465 0.950 . S
C3495 C3490 1.363 1_554 S
C3495 C3494 1.415 . S
H3496 C3493 0.999 . S
H3497 C3478 0.913 . S
H3498 C3516 0.951 . S
H3499 C3518 0.951 . S
H3500 C3520 0.950 . S
H3501 C3521 0.950 . S
H3502 C3523 0.950 . S
H3503 C3526 0.978 . S
H3504 C3527 0.950 . S
H3505 C3529 0.950 . S
H3506 C3530 0.950 . S
H3507 C3531 0.951 . S
H3508 C3533 0.951 . S
H3509 C3535 0.950 . S
H3510 C3536 0.950 . S
H3511 C3538 0.950 . S
H3512 C3541 0.950 . S
H3513 C3542 0.950 . S
H3514 C3544 0.950 . S
H3515 C3545 0.950 1_556 S
C3516 H3498 0.951 . S
C3516 C3517 1.366 . S
C3516 C3518 1.388 . S
C3517 C3516 1.366 . S
C3517 C3521 1.385 . S
C3518 H3499 0.951 . S
C3518 C3516 1.388 . S
C3518 C3519 1.366 . S
C3519 C3518 1.366 . S
C3519 C3520 1.414 . S
C3519 C3522 1.499 . S
C3520 H3500 0.950 . S
C3520 C3519 1.414 . S
C3520 C3521 1.374 . S
C3521 H3501 0.950 . S
C3521 C3517 1.385 . S
C3521 C3520 1.374 . S
C3522 C3519 1.499 . S
C3522 C3523 1.373 . S
C3522 C3524 1.389 1_655 S
C3523 H3502 0.950 . S
C3523 C3522 1.373 . S
C3523 C3539 1.377 . S
C3524 C3522 1.389 1_455 S
C3524 C3525 1.524 . S
C3524 C3538 1.377 . S
C3525 C3524 1.524 . S
C3525 C3526 1.397 . S
C3525 C3530 1.363 . S
C3526 H3503 0.978 . S
C3526 C3525 1.397 . S
C3526 C3527 1.334 . S
C3527 H3504 0.950 . S
C3527 C3526 1.334 . S
C3527 C3528 1.287 . S
C3528 C3527 1.287 . S
C3528 C3529 1.524 . S
C3528 H3547 0.913 . S
C3529 H3505 0.950 . S
C3529 C3528 1.524 . S
C3529 C3530 1.415 . S
C3530 H3506 0.950 . S
C3530 C3525 1.363 . S
C3530 C3529 1.415 . S
C3531 H3507 0.951 . S
C3531 C3532 1.366 . S
C3531 C3533 1.388 . S
C3532 C3531 1.366 . S
C3532 C3536 1.385 . S
C3533 H3508 0.951 . S
C3533 C3531 1.388 . S
C3533 C3534 1.366 1_554 S
C3534 C3533 1.366 1_556 S
C3534 C3535 1.414 . S
C3534 C3537 1.499 . S
C3535 H3509 0.950 . S
C3535 C3534 1.414 . S
C3535 C3536 1.374 1_556 S
C3536 H3510 0.950 . S
C3536 C3532 1.385 . S
C3536 C3535 1.374 1_554 S
C3537 C3534 1.499 . S
C3537 C3538 1.373 . S
C3537 C3539 1.389 1_455 S
C3538 H3511 0.950 . S
C3538 C3524 1.377 . S
C3538 C3537 1.373 . S
C3539 C3523 1.377 . S
C3539 C3537 1.389 1_655 S
C3539 C3540 1.524 1_556 S
C3540 C3539 1.524 1_554 S
C3540 C3541 1.397 . S
C3540 C3545 1.363 . S
C3541 H3512 0.950 . S
C3541 C3540 1.397 . S
C3541 C3542 1.334 . S
C3542 H3513 0.950 . S
C3542 C3541 1.334 . S
C3542 C3543 1.287 . S
C3543 C3542 1.287 . S
C3543 C3544 1.524 . S
C3543 H3546 0.999 . S
C3544 H3514 0.950 . S
C3544 C3543 1.524 . S
C3544 C3545 1.415 . S
C3545 H3515 0.950 1_554 S
C3545 C3540 1.363 . S
C3545 C3544 1.415 . S
H3546 C3543 0.999 . S
H3547 C3528 0.913 . S
H3548 C3566 0.951 . S
H3549 C3568 0.951 . S
H3550 C3570 0.950 . S
H3551 C3571 0.950 . S
H3552 C3573 0.950 . S
H3553 C3576 0.950 . S
H3554 C3577 0.950 . S
H3555 C3579 0.950 . S
H3556 C3580 0.950 . S
H3557 C3581 0.951 . S
H3558 C3583 0.951 . S
H3559 C3585 0.950 . S
H3560 C3586 0.950 . S
H3561 C3588 0.950 . S
H3562 C3591 0.950 . S
H3563 C3592 0.950 . S
H3564 C3594 0.950 . S
H3565 C3595 0.950 . S
C3566 H3548 0.951 . S
C3566 C3567 1.366 . S
C3566 C3568 1.388 . S
C3567 C3566 1.366 . S
C3567 C3571 1.385 . S
C3568 H3549 0.951 . S
C3568 C3566 1.388 . S
C3568 C3569 1.366 . S
C3569 C3568 1.366 . S
C3569 C3570 1.414 . S
C3569 C3572 1.499 . S
C3570 H3550 0.950 . S
C3570 C3569 1.414 . S
C3570 C3571 1.374 . S
C3571 H3551 0.950 . S
C3571 C3567 1.385 . S
C3571 C3570 1.374 . S
C3572 C3569 1.499 . S
C3572 C3573 1.373 . S
C3572 C3574 1.389 . S
C3573 H3552 0.950 . S
C3573 C3572 1.373 . S
C3573 C3589 1.377 . S
C3574 C3572 1.389 . S
C3574 C3575 1.524 . S
C3574 C3588 1.377 . S
C3575 C3574 1.524 . S
C3575 C3576 1.397 . S
C3575 C3580 1.363 . S
C3576 H3553 0.950 . S
C3576 C3575 1.397 . S
C3576 C3577 1.334 . S
C3577 H3554 0.950 . S
C3577 C3576 1.334 . S
C3577 C3578 1.287 . S
C3578 C3577 1.287 . S
C3578 C3579 1.524 . S
C3578 H3597 0.913 . S
C3579 H3555 0.950 . S
C3579 C3578 1.524 . S
C3579 C3580 1.415 . S
C3580 H3556 0.950 . S
C3580 C3575 1.363 . S
C3580 C3579 1.415 . S
C3581 H3557 0.951 . S
C3581 C3582 1.366 . S
C3581 C3583 1.388 . S
C3582 C3581 1.366 . S
C3582 C3586 1.385 . S
C3583 H3558 0.951 . S
C3583 C3581 1.388 . S
C3583 C3584 1.366 . S
C3584 C3583 1.366 . S
C3584 C3585 1.414 . S
C3584 C3587 1.499 . S
C3585 H3559 0.950 . S
C3585 C3584 1.414 . S
C3585 C3586 1.374 . S
C3586 H3560 0.950 . S
C3586 C3582 1.385 . S
C3586 C3585 1.374 . S
C3587 C3584 1.499 . S
C3587 C3588 1.373 . S
C3587 C3589 1.389 . S
C3588 H3561 0.950 . S
C3588 C3574 1.377 . S
C3588 C3587 1.373 . S
C3589 C3573 1.377 . S
C3589 C3587 1.389 . S
C3589 C3590 1.524 . S
C3590 C3589 1.524 . S
C3590 C3591 1.397 . S
C3590 C3595 1.363 . S
C3591 H3562 0.950 . S
C3591 C3590 1.397 . S
C3591 C3592 1.334 . S
C3592 H3563 0.950 . S
C3592 C3591 1.334 . S
C3592 C3593 1.287 . S
C3593 C3592 1.287 . S
C3593 C3594 1.524 . S
C3593 H3596 0.999 . S
C3594 H3564 0.950 . S
C3594 C3593 1.524 . S
C3594 C3595 1.415 . S
C3595 H3565 0.950 . S
C3595 C3590 1.363 . S
C3595 C3594 1.415 . S
H3596 C3593 0.999 . S
H3597 C3578 0.913 . S
H3598 C3616 0.951 . S
H3599 C3618 0.951 . S
H3600 C3620 0.950 . S
H3601 C3621 0.950 . S
H3602 C3623 0.950 . S
H3603 C3626 0.950 . S
H3604 C3627 0.950 . S
H3605 C3629 0.950 . S
H3606 C3630 0.950 . S
H3607 C3631 0.951 . S
H3608 C3633 0.951 . S
H3609 C3635 0.950 . S
H3610 C3636 0.950 . S
H3611 C3638 0.950 . S
H3612 C3641 0.950 . S
H3613 C3642 0.950 . S
H3614 C3644 0.950 . S
H3615 C3645 0.950 . S
C3616 H3598 0.951 . S
C3616 C3617 1.366 . S
C3616 C3618 1.388 . S
C3617 C3616 1.366 . S
C3617 C3621 1.385 . S
C3618 H3599 0.951 . S
C3618 C3616 1.388 . S
C3618 C3619 1.366 . S
C3619 C3618 1.366 . S
C3619 C3620 1.414 . S
C3619 C3622 1.499 . S
C3620 H3600 0.950 . S
C3620 C3619 1.414 . S
C3620 C3621 1.374 . S
C3621 H3601 0.950 . S
C3621 C3617 1.385 . S
C3621 C3620 1.374 . S
C3622 C3619 1.499 . S
C3622 C3623 1.373 . S
C3622 C3624 1.389 . S
C3623 H3602 0.950 . S
C3623 C3622 1.373 . S
C3623 C3639 1.377 . S
C3624 C3622 1.389 . S
C3624 C3625 1.524 . S
C3624 C3638 1.377 . S
C3625 C3624 1.524 . S
C3625 C3626 1.397 . S
C3625 C3630 1.363 . S
C3626 H3603 0.950 . S
C3626 C3625 1.397 . S
C3626 C3627 1.334 . S
C3627 H3604 0.950 . S
C3627 C3626 1.334 . S
C3627 C3628 1.287 . S
C3628 C3627 1.287 . S
C3628 C3629 1.524 . S
C3628 H3647 0.913 . S
C3629 H3605 0.950 . S
C3629 C3628 1.524 . S
C3629 C3630 1.415 . S
C3630 H3606 0.950 . S
C3630 C3625 1.363 . S
C3630 C3629 1.415 . S
C3631 H3607 0.951 . S
C3631 C3632 1.366 . S
C3631 C3633 1.388 . S
C3632 C3631 1.366 . S
C3632 C3636 1.385 . S
C3633 H3608 0.951 . S
C3633 C3631 1.388 . S
C3633 C3634 1.366 . S
C3634 C3633 1.366 . S
C3634 C3635 1.414 . S
C3634 C3637 1.499 . S
C3635 H3609 0.950 . S
C3635 C3634 1.414 . S
C3635 C3636 1.374 . S
C3636 H3610 0.950 . S
C3636 C3632 1.385 . S
C3636 C3635 1.374 . S
C3637 C3634 1.499 . S
C3637 C3638 1.373 . S
C3637 C3639 1.389 . S
C3638 H3611 0.950 . S
C3638 C3624 1.377 . S
C3638 C3637 1.373 . S
C3639 C3623 1.377 . S
C3639 C3637 1.389 . S
C3639 C3640 1.524 . S
C3640 C3639 1.524 . S
C3640 C3641 1.397 . S
C3640 C3645 1.363 . S
C3641 H3612 0.950 . S
C3641 C3640 1.397 . S
C3641 C3642 1.334 . S
C3642 H3613 0.950 . S
C3642 C3641 1.334 . S
C3642 C3643 1.287 . S
C3643 C3642 1.287 . S
C3643 C3644 1.524 . S
C3643 H3646 0.999 . S
C3644 H3614 0.950 . S
C3644 C3643 1.524 . S
C3644 C3645 1.415 . S
C3645 H3615 0.950 . S
C3645 C3640 1.363 . S
C3645 C3644 1.415 . S
H3646 C3643 0.999 . S
H3647 C3628 0.913 . S
C467 C84 2.135 . S
C482 C0 2.136 . S
C517 C14 1.278 . S
C532 C98 1.277 . S
C567 C56 2.136 . S
C582 C28 2.135 . S
C617 C42 1.277 . S
C632 C70 1.278 . S
C667 C196 2.136 . S
C682 C112 2.135 . S
C717 C126 1.279 . S
C732 C210 1.277 . S
C767 C168 2.136 . S
C782 C140 2.135 . S
C817 C154 1.278 . S
C832 C182 1.278 . S
C867 C224 2.136 . S
C882 C308 2.135 . S
C917 C322 1.279 . S
C932 C238 1.277 . S
C967 C252 2.135 . S
C982 C280 2.135 . S
C1017 C294 1.277 . S
C1032 C266 1.278 . S
C1067 C420 2.134 . S
C1082 C336 2.135 . S
C1117 C434 1.279 . S
C1132 C350 1.277 . S
C1167 C392 2.136 . S
C1182 C364 2.135 . S
C1217 C378 1.278 . S
C1232 C406 1.278 . S
C1267 C109 1.244 . S
C1282 C11 1.251 . S
C1317 C67 1.251 . S
C1332 C25 1.245 . S
C1367 C81 1.245 . S
C1382 C39 1.251 . S
C1417 C95 1.251 . S
C1432 C53 1.245 . S
C1467 C221 1.245 . S
C1482 C123 1.251 . S
C1517 C179 1.251 . S
C1532 C137 1.245 . S
C1567 C193 1.244 . S
C1582 C151 1.252 . S
C1617 C165 1.244 . S
C1632 C207 1.251 . S
C1667 C333 1.245 . S
C1682 C235 1.251 . S
C1717 C249 1.245 . S
C1732 C291 1.251 . S
C1767 C263 1.252 . S
C1782 C305 1.245 . S
C1817 C319 1.251 . S
C1832 C277 1.244 . S
C1867 C445 1.244 . S
C1882 C347 1.251 . S
C1917 C361 1.244 . S
C1932 C403 1.252 . S
C1967 C375 1.251 . S
C1982 C417 1.245 . S
C2017 C431 1.251 . S
C2032 C389 1.244 . S
C2067 C9 1.679 . S
C2082 C425 1.923 . S
C2117 C215 1.145 . S
C2132 C23 1.159 . S
C2167 C397 1.923 . S
C2182 C37 1.678 . S
C2217 C187 1.146 . S
C2232 C51 1.159 . S
C2267 C369 1.923 . S
C2282 C65 1.678 . S
C2317 C79 1.159 . S
C2332 C159 1.146 . S
C2367 C93 1.679 . S
C2382 C341 1.923 . S
C2417 C107 1.159 . S
C2432 C131 1.145 . S
C2467 C121 1.678 . S
C2482 C313 1.923 . S
C2517 C103 1.145 . S
C2532 C135 1.159 . S
C2567 C285 1.923 . S
C2582 C149 1.679 . S
C2617 C75 1.146 . S
C2632 C163 1.159 . S
C2667 C257 1.923 . S
C2682 C177 1.679 . S
C2717 C47 1.145 . S
C2732 C191 1.159 . S
C2767 C205 1.679 . S
C2782 C229 1.922 . S
C2817 C19 1.146 . S
C2832 C219 1.159 . S
C2867 C201 1.923 . S
C2882 C233 1.679 . S
C2917 C439 1.145 . S
C2932 C247 1.159 . S
C2967 C261 1.679 . S
C2982 C173 1.923 . S
C3017 C275 1.159 . S
C3032 C411 1.145 . S
C3067 C289 1.679 . S
C3082 C145 1.923 . S
C3117 C303 1.159 . S
C3132 C383 1.145 . S
C3167 C317 1.678 . S
C3182 C117 1.923 . S
C3217 C331 1.159 . S
C3232 C355 1.146 . S
C3267 C89 1.923 . S
C3282 C345 1.679 . S
C3317 C327 1.146 . S
C3332 C359 1.159 . S
C3367 C61 1.923 . S
C3382 C373 1.679 . S
C3417 C387 1.159 . S
C3432 C299 1.145 . S
C3467 C401 1.679 . S
C3482 C33 1.923 . S
C3517 C271 1.146 . S
C3532 C415 1.159 . S
C3567 C429 1.679 . S
C3582 C5 1.923 . S
C3617 C443 1.159 . S
C3632 C243 1.146 . S
