# Generated by pormake.
# Topology uno, (4)-cn, num edge types: 1
# Building blocks:
#     Node 0, Type 0, BuildingBlock: MUDLON_clean_sbu_0, # of connection points: 4
#     Node 1, Type 0, BuildingBlock: MUDLON_clean_sbu_0, # of connection points: 4
#     Node 2, Type 0, BuildingBlock: MUDLON_clean_sbu_0, # of connection points: 4
#     Node 3, Type 0, BuildingBlock: MUDLON_clean_sbu_0, # of connection points: 4
#     Node 4, Type 0, BuildingBlock: MUDLON_clean_sbu_0, # of connection points: 4
#     Node 5, Type 0, BuildingBlock: MUDLON_clean_sbu_0, # of connection points: 4
#     Node 6, Type 0, BuildingBlock: MUDLON_clean_sbu_0, # of connection points: 4
#     Node 7, Type 0, BuildingBlock: MUDLON_clean_sbu_0, # of connection points: 4
#     Node 8, Type 0, BuildingBlock: MUDLON_clean_sbu_0, # of connection points: 4
#     Node 9, Type 0, BuildingBlock: MUDLON_clean_sbu_0, # of connection points: 4
#     Node 10, Type 0, BuildingBlock: MUDLON_clean_sbu_0, # of connection points: 4
#     Node 11, Type 0, BuildingBlock: MUDLON_clean_sbu_0, # of connection points: 4
#     Node 12, Type 0, BuildingBlock: MUDLON_clean_sbu_0, # of connection points: 4
#     Node 13, Type 0, BuildingBlock: MUDLON_clean_sbu_0, # of connection points: 4
#     Node 14, Type 0, BuildingBlock: MUDLON_clean_sbu_0, # of connection points: 4
#     Node 15, Type 0, BuildingBlock: MUDLON_clean_sbu_0, # of connection points: 4
#     Node 16, Type 0, BuildingBlock: MUDLON_clean_sbu_0, # of connection points: 4
#     Node 17, Type 0, BuildingBlock: MUDLON_clean_sbu_0, # of connection points: 4
#     Node 18, Type 0, BuildingBlock: MUDLON_clean_sbu_0, # of connection points: 4
#     Node 19, Type 0, BuildingBlock: MUDLON_clean_sbu_0, # of connection points: 4
#     Node 20, Type 0, BuildingBlock: MUDLON_clean_sbu_0, # of connection points: 4
#     Node 21, Type 0, BuildingBlock: MUDLON_clean_sbu_0, # of connection points: 4
#     Node 22, Type 0, BuildingBlock: MUDLON_clean_sbu_0, # of connection points: 4
#     Node 23, Type 0, BuildingBlock: MUDLON_clean_sbu_0, # of connection points: 4
#     Edge 24, Type (0, 0), BuildingBlock: CIFDUS_clean_linker_0, # of connection points: 2
#     Edge 25, Type (0, 0), BuildingBlock: CIFDUS_clean_linker_0, # of connection points: 2
#     Edge 26, Type (0, 0), BuildingBlock: CIFDUS_clean_linker_0, # of connection points: 2
#     Edge 27, Type (0, 0), BuildingBlock: CIFDUS_clean_linker_0, # of connection points: 2
#     Edge 28, Type (0, 0), BuildingBlock: CIFDUS_clean_linker_0, # of connection points: 2
#     Edge 29, Type (0, 0), BuildingBlock: CIFDUS_clean_linker_0, # of connection points: 2
#     Edge 30, Type (0, 0), BuildingBlock: CIFDUS_clean_linker_0, # of connection points: 2
#     Edge 31, Type (0, 0), BuildingBlock: CIFDUS_clean_linker_0, # of connection points: 2
#     Edge 32, Type (0, 0), BuildingBlock: CIFDUS_clean_linker_0, # of connection points: 2
#     Edge 33, Type (0, 0), BuildingBlock: CIFDUS_clean_linker_0, # of connection points: 2
#     Edge 34, Type (0, 0), BuildingBlock: CIFDUS_clean_linker_0, # of connection points: 2
#     Edge 35, Type (0, 0), BuildingBlock: CIFDUS_clean_linker_0, # of connection points: 2
#     Edge 36, Type (0, 0), BuildingBlock: CIFDUS_clean_linker_0, # of connection points: 2
#     Edge 37, Type (0, 0), BuildingBlock: CIFDUS_clean_linker_0, # of connection points: 2
#     Edge 38, Type (0, 0), BuildingBlock: CIFDUS_clean_linker_0, # of connection points: 2
#     Edge 39, Type (0, 0), BuildingBlock: CIFDUS_clean_linker_0, # of connection points: 2
#     Edge 40, Type (0, 0), BuildingBlock: CIFDUS_clean_linker_0, # of connection points: 2
#     Edge 41, Type (0, 0), BuildingBlock: CIFDUS_clean_linker_0, # of connection points: 2
#     Edge 42, Type (0, 0), BuildingBlock: CIFDUS_clean_linker_0, # of connection points: 2
#     Edge 43, Type (0, 0), BuildingBlock: CIFDUS_clean_linker_0, # of connection points: 2
#     Edge 44, Type (0, 0), BuildingBlock: CIFDUS_clean_linker_0, # of connection points: 2
#     Edge 45, Type (0, 0), BuildingBlock: CIFDUS_clean_linker_0, # of connection points: 2
#     Edge 46, Type (0, 0), BuildingBlock: CIFDUS_clean_linker_0, # of connection points: 2
#     Edge 47, Type (0, 0), BuildingBlock: CIFDUS_clean_linker_0, # of connection points: 2
#     Edge 48, Type (0, 0), BuildingBlock: CIFDUS_clean_linker_0, # of connection points: 2
#     Edge 49, Type (0, 0), BuildingBlock: CIFDUS_clean_linker_0, # of connection points: 2
#     Edge 50, Type (0, 0), BuildingBlock: CIFDUS_clean_linker_0, # of connection points: 2
#     Edge 51, Type (0, 0), BuildingBlock: CIFDUS_clean_linker_0, # of connection points: 2
#     Edge 52, Type (0, 0), BuildingBlock: CIFDUS_clean_linker_0, # of connection points: 2
#     Edge 53, Type (0, 0), BuildingBlock: CIFDUS_clean_linker_0, # of connection points: 2
#     Edge 54, Type (0, 0), BuildingBlock: CIFDUS_clean_linker_0, # of connection points: 2
#     Edge 55, Type (0, 0), BuildingBlock: CIFDUS_clean_linker_0, # of connection points: 2
#     Edge 56, Type (0, 0), BuildingBlock: CIFDUS_clean_linker_0, # of connection points: 2
#     Edge 57, Type (0, 0), BuildingBlock: CIFDUS_clean_linker_0, # of connection points: 2
#     Edge 58, Type (0, 0), BuildingBlock: CIFDUS_clean_linker_0, # of connection points: 2
#     Edge 59, Type (0, 0), BuildingBlock: CIFDUS_clean_linker_0, # of connection points: 2
#     Edge 60, Type (0, 0), BuildingBlock: CIFDUS_clean_linker_0, # of connection points: 2
#     Edge 61, Type (0, 0), BuildingBlock: CIFDUS_clean_linker_0, # of connection points: 2
#     Edge 62, Type (0, 0), BuildingBlock: CIFDUS_clean_linker_0, # of connection points: 2
#     Edge 63, Type (0, 0), BuildingBlock: CIFDUS_clean_linker_0, # of connection points: 2
#     Edge 64, Type (0, 0), BuildingBlock: CIFDUS_clean_linker_0, # of connection points: 2
#     Edge 65, Type (0, 0), BuildingBlock: CIFDUS_clean_linker_0, # of connection points: 2
#     Edge 66, Type (0, 0), BuildingBlock: CIFDUS_clean_linker_0, # of connection points: 2
#     Edge 67, Type (0, 0), BuildingBlock: CIFDUS_clean_linker_0, # of connection points: 2
#     Edge 68, Type (0, 0), BuildingBlock: CIFDUS_clean_linker_0, # of connection points: 2
#     Edge 69, Type (0, 0), BuildingBlock: CIFDUS_clean_linker_0, # of connection points: 2
#     Edge 70, Type (0, 0), BuildingBlock: CIFDUS_clean_linker_0, # of connection points: 2
#     Edge 71, Type (0, 0), BuildingBlock: CIFDUS_clean_linker_0, # of connection points: 2
# Relax obj value: 0.563
# Max RMSD: 0.257
# Mean RMSD: 0.231
data_MOF--net-uno--node1-MUDLON_clean_sbu_0--edge1-CIFDUS_clean_linker_0
_symmetry_space_group_name_H-M    P1
_symmetry_Int_Tables_number       1
_symmetry_cell_setting            triclinic
loop_
_symmetry_equiv_pos_as_xyz
'x, y, z'
_cell_length_a     44.755601
_cell_length_b     44.682546
_cell_length_c     44.706091
_cell_angle_alpha  88.476791
_cell_angle_beta   88.494812
_cell_angle_gamma 88.574053
loop_
_atom_site_label
_atom_site_type_symbol
_atom_site_fract_x
_atom_site_fract_y
_atom_site_fract_z
_atom_type_partial_charge
Mg0 Mg 0.09481 0.30921 0.25257 0.0
C1 C 0.14835 0.29625 0.28985 0.0
O2 O 0.1599 0.31454 0.26943 0.0
C3 C 0.06996 0.37224 0.26675 0.0
O4 O 0.09826 0.37928 0.26748 0.0
C5 C 0.04751 0.26513 0.25912 0.0
O6 O 0.04016 0.28456 0.27978 0.0
O7 O 0.0696 0.27064 0.24156 0.0
O8 O 0.12025 0.29271 0.2906 0.0
O9 O 0.12773 0.32077 0.21792 0.0
C10 C 0.12712 0.34309 0.19971 0.0
O11 O 0.10315 0.36063 0.19879 0.0
O12 O 0.0632 0.3454 0.2619 0.0
Mg13 Mg 0.94778 0.81842 0.53597 0.0
C14 C 1.00095 0.84624 0.55359 0.0
O15 O 0.00782 0.82876 0.53113 0.0
C16 C 0.88148 0.82871 0.55213 0.0
O17 O 0.88945 0.85664 0.55417 0.0
C18 C 0.97793 0.76478 0.56153 0.0
O19 O 0.96033 0.77362 0.58375 0.0
O20 O 0.9749 0.77753 0.53597 0.0
O21 O 0.9739 0.84726 0.56328 0.0
O22 O 0.94727 0.84251 0.49303 0.0
C23 C 0.94196 0.8705 0.49518 0.0
O24 O 0.93759 0.88147 0.52195 0.0
O25 O 0.90158 0.80853 0.54793 0.0
Mg26 Mg 0.43466 0.70148 0.80604 0.0
C27 C 0.38141 0.72 0.84695 0.0
O28 O 0.3702 0.69451 0.83929 0.0
C29 C 0.47751 0.64919 0.81108 0.0
O30 O 0.49595 0.6709 0.80435 0.0
C31 C 0.48706 0.73905 0.81793 0.0
O32 O 0.48176 0.72724 0.84473 0.0
O33 O 0.47161 0.73086 0.79629 0.0
O34 O 0.40823 0.72574 0.83929 0.0
O35 O 0.4071 0.70174 0.76692 0.0
C36 C 0.38543 0.68417 0.76432 0.0
O37 O 0.38041 0.66352 0.78518 0.0
O38 O 0.44995 0.65571 0.81558 0.0
Mg39 Mg 0.57371 0.19737 0.04388 0.0
C40 C 0.55467 0.17142 0.10448 0.0
O41 O 0.55662 0.16529 0.13326 0.0
C42 C 0.63944 0.2083 0.03829 0.0
O43 O 0.63915 0.18854 0.06058 0.0
C44 C 0.53853 0.25175 0.06085 0.0
O45 O 0.56423 0.25674 0.07314 0.0
O46 O 0.53631 0.22879 0.045 0.0
O47 O 0.57724 0.18154 0.08997 0.0
O48 O 0.5648 0.16201 0.01362 0.0
C49 C 0.58358 0.14088 0.00831 0.0
O50 O 0.60924 0.14004 0.02195 0.0
O51 O 0.61473 0.21755 0.02765 0.0
Mg52 Mg 0.00531 0.05315 0.35883 0.0
C53 C 0.0652 0.07173 0.38468 0.0
O54 O 0.07036 0.08413 0.35813 0.0
C55 C 0.03328 1.00036 0.3269 0.0
O56 O 0.04649 0.99653 0.35268 0.0
C57 C 1.00056 0.10419 0.31494 0.0
O58 O 0.01401 0.08375 0.29844 0.0
O59 O 0.99249 0.09719 0.34164 0.0
O60 O 0.04117 0.05771 0.38974 0.0
O61 O 0.97136 0.03004 0.38562 0.0
C62 C 0.96213 0.00482 0.37762 0.0
O63 O 0.96899 0.99564 0.3506 0.0
O64 O 0.01746 0.02396 0.32246 0.0
Mg65 Mg 0.19815 0.7364 0.624 0.0
C66 C 0.2483 0.71901 0.65837 0.0
O67 O 0.25511 0.74279 0.64189 0.0
C68 C 0.14818 0.72589 0.58311 0.0
O69 O 0.16938 0.73468 0.56424 0.0
C70 C 0.23473 0.71038 0.5754 0.0
O71 O 0.21885 0.6878 0.58568 0.0
O72 O 0.22948 0.73613 0.58606 0.0
O73 O 0.22212 0.70877 0.65666 0.0
O74 O 0.19338 0.7797 0.64479 0.0
C75 C 0.18389 0.77904 0.67188 0.0
O76 O 0.17678 0.75312 0.68432 0.0
O77 O 0.15418 0.72272 0.6107 0.0
Mg78 Mg 0.55303 0.95554 0.8635 0.0
C79 C 0.48368 0.95211 0.87753 0.0
O80 O 0.48 0.94119 0.85092 0.0
C81 C 0.53498 0.99772 0.81179 0.0
O82 O 0.50978 0.99974 0.82741 0.0
C83 C 0.55907 0.89602 0.83573 0.0
O84 O 0.55138 0.91308 0.81267 0.0
O85 O 0.564 0.90833 0.86035 0.0
O86 O 0.50959 0.95884 0.8856 0.0
O87 O 0.57879 0.98135 0.89377 0.0
C88 C 0.56557 0.00673 0.89645 0.0
O89 O 0.54198 0.01265 0.88025 0.0
O90 O 0.55545 0.97958 0.82064 0.0
Mg91 Mg 0.31947 0.32023 0.14563 0.0
C92 C 0.29378 0.38491 0.15214 0.0
O93 O 0.29541 0.41419 0.14973 0.0
C94 C 0.38068 0.31684 0.1174 0.0
O95 O 0.38437 0.33768 0.13708 0.0
C96 C 0.26873 0.31917 0.10428 0.0
O97 O 0.28701 0.33738 0.08983 0.0
O98 O 0.27705 0.30675 0.12868 0.0
O99 O 0.31744 0.36896 0.14772 0.0
O100 O 0.32974 0.29801 0.18828 0.0
C101 C 0.33537 0.31119 0.2123 0.0
O102 O 0.33441 0.34057 0.21287 0.0
O103 O 0.35492 0.30599 0.11502 0.0
Mg104 Mg 0.32209 0.12619 0.32832 0.0
C105 C 0.2658 0.1677 0.3353 0.0
O106 O 0.26317 0.15646 0.36266 0.0
C107 C 0.313 0.09785 0.26875 0.0
O108 O 0.28689 0.11167 0.27185 0.0
C109 C 0.2949 0.07768 0.36526 0.0
O110 O 0.28336 0.07382 0.33895 0.0
O111 O 0.3129 0.09892 0.36813 0.0
O112 O 0.28606 0.15758 0.31759 0.0
O113 O 0.35922 0.15603 0.32947 0.0
C114 C 0.35237 0.18293 0.33589 0.0
O115 O 0.3299 0.18758 0.35483 0.0
O116 O 0.3315 0.09881 0.28977 0.0
Mg117 Mg 0.1927 0.9879 0.55647 0.0
C118 C 0.16792 0.04261 0.52417 0.0
O119 O 0.19612 0.04497 0.51583 0.0
C120 C 0.20588 0.00676 0.62035 0.0
O121 O 0.18259 0.02491 0.61697 0.0
C122 C 0.24946 1.00238 0.52238 0.0
O123 O 0.25573 0.01294 0.54859 0.0
O124 O 0.22551 0.98802 0.51994 0.0
O125 O 0.16101 0.02359 0.54472 0.0
O126 O 0.16577 0.94819 0.5575 0.0
C127 C 0.1409 0.94957 0.57197 0.0
O128 O 0.13371 0.9741 0.58636 0.0
O129 O 0.21451 0.99038 0.59887 0.0
Mg130 Mg 0.25158 0.92492 0.83212 0.0
C131 C 0.28271 0.86934 0.85487 0.0
O132 O 0.25477 0.86391 0.8625 0.0
C133 C 0.27438 0.94079 0.7702 0.0
O134 O 0.28504 0.9132 0.77275 0.0
C135 C 0.24712 0.98053 0.86813 0.0
O136 O 0.25719 0.99146 0.84233 0.0
O137 O 0.24115 0.95284 0.87031 0.0
O138 O 0.28877 0.89441 0.84224 0.0
O139 O 0.21651 0.89614 0.81757 0.0
C140 C 0.20334 0.9028 0.79331 0.0
O141 O 0.20633 0.92974 0.78132 0.0
O142 O 0.2617 0.95262 0.79287 0.0
Mg143 Mg 0.35674 0.08241 0.03131 0.0
C144 C 0.37289 0.02684 0.99571 0.0
O145 O 0.34692 0.03308 0.98381 0.0
C146 C 0.35062 0.06875 0.09733 0.0
O147 O 0.3792 0.06222 0.09315 0.0
C148 C 0.29939 0.07768 1.00021 0.0
O149 O 0.29341 0.06398 0.02597 0.0
O150 O 0.32389 0.09142 0.99713 0.0
O151 O 0.38129 0.04227 0.01737 0.0
O152 O 0.3915 0.11525 0.03478 0.0
C153 C 0.39087 0.1355 0.05427 0.0
O154 O 0.36649 0.13959 0.07083 0.0
O155 O 0.33522 0.07688 0.07494 0.0
Mg156 Mg 0.83333 0.21404 0.89859 0.0
C157 C 0.79522 0.16561 0.87532 0.0
O158 O 0.78748 0.16321 0.90381 0.0
C159 C 0.89986 0.20583 0.9057 0.0
O160 O 0.89948 0.21052 0.87656 0.0
C161 C 0.79995 0.20975 0.95813 0.0
O162 O 0.82397 0.19382 0.96506 0.0
O163 O 0.79829 0.22164 0.93207 0.0
O164 O 0.81678 0.18234 0.86754 0.0
O165 O 0.83823 0.25418 0.87121 0.0
C166 C 0.84174 0.28033 0.88078 0.0
O167 O 0.84351 0.28422 0.9097 0.0
O168 O 0.87516 0.20377 0.92016 0.0
Mg169 Mg 0.95015 0.55852 0.18147 0.0
C170 C 0.87943 0.56269 0.17191 0.0
O171 O 0.85263 0.55943 0.18403 0.0
C172 C 0.96466 0.51165 0.22934 0.0
O173 O 0.93792 0.50261 0.2229 0.0
C174 C 0.95126 0.61795 0.20568 0.0
O175 O 0.93689 0.6018 0.22613 0.0
O176 O 0.96111 0.60525 0.18218 0.0
O177 O 0.90178 0.55677 0.18843 0.0
O178 O 0.96716 0.53506 0.14245 0.0
C179 C 0.95902 0.50833 0.13907 0.0
O180 O 0.93848 0.49723 0.15741 0.0
O181 O 0.97402 0.5358 0.21724 0.0
Mg182 Mg 0.68785 0.79441 0.43453 0.0
C183 C 0.69272 0.82879 0.37517 0.0
O184 O 0.67329 0.80908 0.3674 0.0
C185 C 0.61911 0.79573 0.43392 0.0
O186 O 0.62302 0.80904 0.40762 0.0
C187 C 0.72125 0.8236 0.48301 0.0
O188 O 0.70475 0.84651 0.47357 0.0
O189 O 0.71781 0.79821 0.47158 0.0
O190 O 0.69957 0.83004 0.40253 0.0
O191 O 0.70062 0.75419 0.4108 0.0
C192 C 0.68311 0.7417 0.39325 0.0
O193 O 0.65542 0.75179 0.39117 0.0
O194 O 0.64169 0.78977 0.44988 0.0
Mg195 Mg 0.89029 0.84431 0.23715 0.0
C196 C 0.88164 0.81495 0.17882 0.0
O197 O 0.91093 0.81558 0.17728 0.0
C198 C 0.94531 0.87622 0.25069 0.0
O199 O 0.94687 0.85274 0.26896 0.0
C200 C 0.93411 0.79093 0.23952 0.0
O201 O 0.9506 0.80808 0.22179 0.0
O202 O 0.90995 0.80153 0.251 0.0
O203 O 0.86774 0.83204 0.19704 0.0
O204 O 0.85664 0.8559 0.27117 0.0
C205 C 0.82928 0.85961 0.26461 0.0
O206 O 0.82169 0.85795 0.23653 0.0
O207 O 0.92356 0.8787 0.23299 0.0
Mg208 Mg 0.63046 0.18432 0.70229 0.0
C209 C 0.64049 0.2071 0.636 0.0
O210 O 0.64227 0.20236 0.60713 0.0
C211 C 0.61471 0.12019 0.70878 0.0
O212 O 0.64035 0.11839 0.69384 0.0
C213 C 0.58618 0.23648 0.7011 0.0
O214 O 0.57485 0.22069 0.67996 0.0
O215 O 0.60833 0.22571 0.71535 0.0
O216 O 0.63778 0.18466 0.65397 0.0
O217 O 0.67266 0.17978 0.72532 0.0
C218 C 0.67394 0.16436 0.74962 0.0
O219 O 0.64972 0.15126 0.76004 0.0
O220 O 0.60393 0.14592 0.71507 0.0
Mg221 Mg 0.56569 0.47136 0.68547 0.0
C222 C 0.60998 0.48803 0.63737 0.0
O223 O 0.59273 0.51225 0.6372 0.0
C224 C 0.54483 0.50168 0.74093 0.0
O225 O 0.52355 0.4824 0.73762 0.0
C226 C 0.57764 0.41316 0.7161 0.0
O227 O 0.59902 0.42962 0.726 0.0
O228 O 0.55806 0.42548 0.69944 0.0
O229 O 0.60635 0.46865 0.65835 0.0
O230 O 0.53235 0.48929 0.6546 0.0
C231 C 0.5254 0.51702 0.65584 0.0
O232 O 0.53644 0.53272 0.67719 0.0
O233 O 0.56737 0.50094 0.72301 0.0
Mg234 Mg 0.05316 0.3359 0.99647 0.0
C235 C 0.0425 0.39111 0.95499 0.0
O236 O 0.0626 0.40378 0.97101 0.0
C237 C 0.10865 0.32365 0.02939 0.0
O238 O 0.08802 0.3131 0.048 0.0
C239 C 0.04295 0.281 0.96297 0.0
O240 O 0.06336 0.29424 0.94598 0.0
O241 O 0.0358 0.29229 0.98803 0.0
O242 O 0.03808 0.36327 0.95879 0.0
O243 O 0.02986 0.35639 0.03412 0.0
C244 C 0.0403 0.38067 0.04312 0.0
O245 O 0.06596 0.3898 0.03177 0.0
O246 O 0.10073 0.33473 0.00425 0.0
Mg247 Mg 0.44146 0.64555 0.47125 0.0
C248 C 0.4446 0.60702 0.41171 0.0
O249 O 0.43101 0.59959 0.38738 0.0
C250 C 0.39532 0.69058 0.49674 0.0
O251 O 0.4178 0.70895 0.49489 0.0
C252 C 0.4727 0.6987 0.4418 0.0
O253 O 0.45257 0.69494 0.42144 0.0
O254 O 0.47303 0.68139 0.46481 0.0
O255 O 0.43142 0.62589 0.42871 0.0
O256 O 0.45817 0.61416 0.50523 0.0
C257 C 0.45708 0.58575 0.50507 0.0
O258 O 0.44558 0.57269 0.4822 0.0
O259 O 0.39928 0.66371 0.48855 0.0
Mg260 Mg 0.65955 0.50041 0.44502 0.0
C261 C 0.64812 0.4371 0.47232 0.0
O262 O 0.64823 0.40773 0.47171 0.0
C263 C 0.69353 0.48924 0.38805 0.0
O264 O 0.67847 0.46445 0.39117 0.0
C265 C 0.70133 0.49757 0.49477 0.0
O266 O 0.71341 0.47812 0.47621 0.0
O267 O 0.67871 0.513 0.48648 0.0
O268 O 0.65347 0.45201 0.44819 0.0
O269 O 0.61726 0.52431 0.43787 0.0
C270 C 0.59793 0.51214 0.42215 0.0
O271 O 0.60461 0.48615 0.41027 0.0
O272 O 0.69022 0.5091 0.40778 0.0
Mg273 Mg 0.73195 0.40483 0.71728 0.0
C274 C 0.68208 0.36515 0.69779 0.0
O275 O 0.68162 0.38428 0.67497 0.0
C276 C 0.71943 0.43909 0.77349 0.0
O277 O 0.71269 0.41214 0.78359 0.0
C278 C 0.72798 0.44483 0.66241 0.0
O279 O 0.71276 0.46156 0.68147 0.0
O280 O 0.739 0.41982 0.67143 0.0
O281 O 0.69843 0.3704 0.71979 0.0
O282 O 0.77134 0.38099 0.73336 0.0
C283 C 0.78822 0.39133 0.75286 0.0
O284 O 0.78415 0.41912 0.76121 0.0
O285 O 0.72505 0.44296 0.7457 0.0
Mg286 Mg 0.84392 0.50907 0.95917 0.0
C287 C 0.86967 0.55238 0.99835 0.0
O288 O 0.89139 0.53234 0.99509 0.0
C289 C 0.80488 0.51506 0.90209 0.0
O290 O 0.82396 0.5348 0.89148 0.0
C291 C 0.80211 0.49386 0.00709 0.0
O292 O 0.78574 0.50834 0.9872 0.0
O293 O 0.82862 0.48588 0.99942 0.0
O294 O 0.84775 0.55175 0.98078 0.0
O295 O 0.88634 0.48959 0.94377 0.0
C296 C 0.90833 0.50481 0.93398 0.0
O297 O 0.90559 0.53412 0.93178 0.0
O298 O 0.80851 0.50326 0.92792 0.0
Mg299 Mg 0.76381 0.61678 0.20411 0.0
C300 C 0.82107 0.65067 0.18327 0.0
O301 O 0.8352 0.62459 0.1849 0.0
C302 C 0.76376 0.56413 0.2435 0.0
O303 O 0.742 0.55992 0.22502 0.0
C304 C 0.76787 0.56862 0.16069 0.0
O305 O 0.79004 0.56239 0.17864 0.0
O306 O 0.75109 0.59138 0.16594 0.0
O307 O 0.79331 0.65241 0.18984 0.0
O308 O 0.7288 0.63921 0.23018 0.0
C309 C 0.74082 0.64843 0.25364 0.0
O310 O 0.76984 0.64449 0.25625 0.0
O311 O 0.78074 0.58617 0.23842 0.0
H312 H 0.2383 0.40471 0.13625 0.0
H313 H 0.28396 0.33538 0.18721 0.0
H314 H 0.23652 0.31422 0.20333 0.0
H315 H 0.18218 0.31747 0.2059 0.0
H316 H 0.13532 0.38857 0.15794 0.0
H317 H 0.18293 0.40667 0.13717 0.0
C318 C 0.23778 0.38484 0.1507 0.0
C319 C 0.26476 0.37129 0.1602 0.0
C320 C 0.21014 0.37314 0.16035 0.0
C321 C 0.26373 0.34579 0.17911 0.0
C322 C 0.23649 0.33379 0.18847 0.0
C323 C 0.18221 0.33675 0.19064 0.0
C324 C 0.15517 0.35179 0.18372 0.0
C325 C 0.20959 0.34752 0.17956 0.0
C326 C 0.1558 0.37666 0.1638 0.0
C327 C 0.18304 0.3871 0.15201 0.0
H328 H 0.92981 0.93013 0.49416 0.0
H329 H 0.95488 0.85712 0.43658 0.0
H330 H 0.95952 0.89234 0.39392 0.0
H331 H 0.96094 0.94423 0.37427 0.0
H332 H 0.93833 0.01712 0.43288 0.0
H333 H 0.92774 0.98138 0.47384 0.0
C334 C 0.93608 0.92179 0.47225 0.0
C335 C 0.94233 0.89105 0.46865 0.0
C336 C 0.9391 0.94215 0.44803 0.0
C337 C 0.95014 0.88069 0.44002 0.0
C338 C 0.9528 0.90082 0.41563 0.0
C339 C 0.95309 0.95231 0.39583 0.0
C340 C 0.95052 0.98334 0.40056 0.0
C341 C 0.94792 0.93167 0.41953 0.0
C342 C 0.94058 0.99339 0.42869 0.0
C343 C 0.93465 0.97297 0.45215 0.0
H344 H 0.30688 0.73102 0.65792 0.0
H345 H 0.24064 0.67734 0.70433 0.0
H346 H 0.27824 0.65961 0.74012 0.0
H347 H 0.32912 0.66262 0.76014 0.0
H348 H 0.39403 0.71798 0.71356 0.0
H349 H 0.35764 0.73168 0.67572 0.0
C350 C 0.30057 0.71533 0.67577 0.0
C351 C 0.27091 0.70579 0.67869 0.0
C352 C 0.32207 0.70562 0.69625 0.0
C353 C 0.26331 0.68511 0.70169 0.0
C354 C 0.28478 0.67505 0.72217 0.0
C355 C 0.3354 0.67735 0.74148 0.0
C356 C 0.36422 0.68943 0.7398 0.0
C357 C 0.31413 0.6856 0.71996 0.0
C358 C 0.37197 0.70855 0.71553 0.0
C359 C 0.35117 0.71644 0.69388 0.0
H360 H 0.61716 0.09133 0.99299 0.0
H361 H 0.53354 0.13822 0.97548 0.0
H362 H 0.52133 0.10102 0.93935 0.0
H363 H 0.53402 0.05583 0.91268 0.0
H364 H 0.61651 0.00709 0.92989 0.0
H365 H 0.62957 0.04453 0.96631 0.0
C366 C 0.59628 0.09338 0.98126 0.0
C367 C 0.57638 0.11766 0.98686 0.0
C368 C 0.58922 0.0717 0.96049 0.0
C369 C 0.54933 0.11988 0.97159 0.0
C370 C 0.54229 0.09861 0.95089 0.0
C371 C 0.55498 0.05331 0.92424 0.0
C372 C 0.57438 0.0288 0.91844 0.0
C373 C 0.56208 0.07456 0.94513 0.0
C374 C 0.60123 0.02581 0.93393 0.0
C375 C 0.60867 0.0472 0.95472 0.0
H376 H 0.21096 0.18649 0.3568 0.0
H377 H 0.28132 0.20939 0.29296 0.0
H378 H 0.25269 0.25345 0.27626 0.0
H379 H 0.20656 0.28352 0.27715 0.0
H380 H 0.13409 0.2594 0.33792 0.0
H381 H 0.16477 0.21816 0.3588 0.0
C382 C 0.21996 0.20122 0.33931 0.0
C383 C 0.248 0.19445 0.32588 0.0
C384 C 0.20306 0.22636 0.32932 0.0
C385 C 0.25952 0.21376 0.30329 0.0
C386 C 0.24325 0.2391 0.29382 0.0
C387 C 0.19758 0.26962 0.29534 0.0
C388 C 0.16808 0.27457 0.30599 0.0
C389 C 0.21484 0.24536 0.30635 0.0
C390 C 0.15676 0.25608 0.32934 0.0
C391 C 0.17423 0.23239 0.34116 0.0
H392 H 0.06032 0.84147 0.54247 0.0
H393 H 0.99373 0.89539 0.58914 0.0
H394 H 0.03207 0.93117 0.60108 0.0
H395 H 0.08357 0.94913 0.5942 0.0
H396 H 0.14918 0.89539 0.54582 0.0
H397 H 0.112 0.85742 0.53865 0.0
C398 C 0.05414 0.86093 0.55547 0.0
C399 C 0.02413 0.86596 0.56461 0.0
C400 C 0.07608 0.88152 0.56172 0.0
C401 C 0.01665 0.89104 0.5818 0.0
C402 C 0.03854 0.91156 0.58847 0.0
C403 C 0.08984 0.92898 0.58235 0.0
C404 C 0.1191 0.92528 0.5703 0.0
C405 C 0.06819 0.90736 0.57793 0.0
C406 C 0.12682 0.89895 0.55512 0.0
C407 C 0.10556 0.87722 0.55099 0.0
H408 H 0.27474 0.81092 0.871 0.0
H409 H 0.34309 0.8738 0.84533 0.0
H410 H 0.38065 0.83319 0.84497 0.0
H411 H 0.39298 0.77947 0.84674 0.0
H412 H 0.32402 0.71618 0.86902 0.0
H413 H 0.28791 0.75743 0.87649 0.0
C414 C 0.29791 0.81585 0.8657 0.0
C415 C 0.30601 0.84537 0.85793 0.0
C416 C 0.31928 0.79229 0.86488 0.0
C417 C 0.33617 0.85128 0.85115 0.0
C418 C 0.35768 0.82805 0.85094 0.0
C419 C 0.37021 0.77463 0.85382 0.0
C420 C 0.3612 0.7447 0.85715 0.0
C421 C 0.34934 0.79839 0.85704 0.0
C422 C 0.33153 0.73896 0.8662 0.0
C423 C 0.31083 0.76255 0.87032 0.0
H424 H 0.4474 0.12031 0.0358 0.0
H425 H 0.39768 0.18291 0.09097 0.0
H426 H 0.44441 0.20145 0.10983 0.0
H427 H 0.4994 0.19626 0.11435 0.0
H428 H 0.548 0.13104 0.06183 0.0
H429 H 0.50192 0.11724 0.03798 0.0
C430 C 0.44671 0.13834 0.05159 0.0
C431 C 0.419 0.15001 0.06212 0.0
C432 C 0.47358 0.14827 0.06296 0.0
C433 C 0.41866 0.17334 0.08265 0.0
C434 C 0.44538 0.18388 0.09356 0.0
C435 C 0.49974 0.17929 0.09743 0.0
C436 C 0.52696 0.16512 0.08911 0.0
C437 C 0.47294 0.17091 0.08452 0.0
C438 C 0.52735 0.14292 0.06757 0.0
C439 C 0.50098 0.1348 0.05428 0.0
H440 H 0.05602 0.05962 0.44386 0.0
H441 H 0.12395 0.08726 0.37932 0.0
H442 H 0.1613 0.08494 0.41837 0.0
H443 H 0.17539 0.06997 0.46945 0.0
H444 H 0.10737 0.04107 0.53343 0.0
H445 H 0.06915 0.04975 0.49606 0.0
C446 C 0.07896 0.06534 0.43833 0.0
C447 C 0.08731 0.07311 0.40861 0.0
C448 C 0.10025 0.06386 0.46081 0.0
C449 C 0.11699 0.08099 0.40196 0.0
C450 C 0.13835 0.07965 0.42428 0.0
C451 C 0.15213 0.06619 0.47549 0.0
C452 C 0.14434 0.05454 0.50416 0.0
C453 C 0.13035 0.07046 0.45363 0.0
C454 C 0.11405 0.04985 0.51151 0.0
C455 C 0.09219 0.05462 0.49008 0.0
H456 H 0.17506 0.7822 0.73203 0.0
H457 H 0.19192 0.83707 0.65273 0.0
H458 H 0.1954 0.88121 0.6835 0.0
H459 H 0.19814 0.90316 0.73303 0.0
H460 H 0.1849 0.84751 0.81243 0.0
H461 H 0.17498 0.80476 0.78143 0.0
C462 C 0.17915 0.80386 0.72139 0.0
C463 C 0.18341 0.80627 0.6901 0.0
C464 C 0.18175 0.82899 0.73926 0.0
C465 C 0.18875 0.83453 0.67676 0.0
C466 C 0.19072 0.85979 0.69435 0.0
C467 C 0.19243 0.88186 0.7436 0.0
C468 C 0.19217 0.87853 0.77503 0.0
C469 C 0.18785 0.85716 0.72565 0.0
C470 C 0.18519 0.85064 0.78831 0.0
C471 C 0.17968 0.82617 0.77059 0.0
H472 H 0.36624 0.99959 0.94259 0.0
H473 H 0.4285 0.00906 0.01377 0.0
H474 H 0.46748 0.98368 0.98416 0.0
H475 H 0.48535 0.96437 0.93625 0.0
H476 H 0.42416 0.95628 0.86403 0.0
H477 H 0.3831 0.9753 0.8961 0.0
C478 C 0.38818 0.99563 0.95188 0.0
C479 C 0.39454 0.0066 0.98023 0.0
C480 C 0.41073 0.98159 0.93444 0.0
C481 C 0.42305 1.00112 0.99194 0.0
C482 C 0.4454 0.98669 0.97497 0.0
C483 C 0.46297 0.96647 0.92754 0.0
C484 C 0.4579 0.9594 0.89763 0.0
C485 C 0.43973 0.97777 0.94587 0.0
C486 C 0.42869 0.96174 0.88691 0.0
C487 C 0.40526 0.97272 0.9052 0.0
H488 H 0.33423 0.24163 0.33632 0.0
H489 H 0.38592 0.17786 0.2841 0.0
H490 H 0.38639 0.21289 0.24144 0.0
H491 H 0.36667 0.25891 0.21696 0.0
H492 H 0.31642 0.32345 0.26912 0.0
H493 H 0.32062 0.29075 0.31376 0.0
C494 C 0.3462 0.23562 0.31586 0.0
C495 C 0.35952 0.20686 0.31336 0.0
C496 C 0.34612 0.25577 0.29119 0.0
C497 C 0.37522 0.19967 0.2867 0.0
C498 C 0.37531 0.21963 0.26213 0.0
C499 C 0.35697 0.26589 0.23823 0.0
C500 C 0.34092 0.29323 0.23982 0.0
C501 C 0.35988 0.24723 0.26379 0.0
C502 C 0.32883 0.30241 0.26747 0.0
C503 C 0.33118 0.28371 0.29294 0.0
H504 H 0.80808 0.39853 0.80911 0.0
H505 H 0.80947 0.3363 0.73681 0.0
H506 H 0.83041 0.29718 0.76971 0.0
H507 H 0.84122 0.27891 0.82029 0.0
H508 H 0.83704 0.33999 0.89357 0.0
H509 H 0.82471 0.38143 0.85888 0.0
C510 C 0.81368 0.37663 0.80035 0.0
C511 C 0.80692 0.3702 0.77065 0.0
C512 C 0.82479 0.35393 0.81967 0.0
C513 C 0.81421 0.3417 0.75966 0.0
C514 C 0.82607 0.31929 0.77849 0.0
C515 C 0.83802 0.30135 0.82869 0.0
C516 C 0.83947 0.30624 0.85957 0.0
C517 C 0.83028 0.32484 0.80878 0.0
C518 C 0.83576 0.33554 0.86995 0.0
C519 C 0.82861 0.35924 0.85013 0.0
H520 H 0.83478 0.56991 0.13202 0.0
H521 H 0.93007 0.57694 0.13816 0.0
H522 H 0.93558 0.57744 0.08384 0.0
H523 H 0.91342 0.56859 0.03491 0.0
H524 H 0.81747 0.56622 0.02869 0.0
H525 H 0.81194 0.57349 0.08251 0.0
C526 C 0.85679 0.57175 0.12159 0.0
C527 C 0.88241 0.57044 0.13936 0.0
C528 C 0.85951 0.57342 0.09019 0.0
C529 C 0.91039 0.57482 0.12527 0.0
C530 C 0.91342 0.57589 0.09406 0.0
C531 C 0.89126 0.57042 0.04524 0.0
C532 C 0.86596 0.56635 0.0279 0.0
C533 C 0.88821 0.57382 0.07633 0.0
C534 C 0.83736 0.56922 0.04147 0.0
C535 C 0.83418 0.57283 0.07238 0.0
H536 H 0.65808 0.72328 0.3421 0.0
H537 H 0.73578 0.7103 0.39671 0.0
H538 H 0.75928 0.67859 0.35887 0.0
H539 H 0.7596 0.65805 0.30909 0.0
H540 H 0.68321 0.67161 0.25296 0.0
H541 H 0.65714 0.6995 0.29283 0.0
C542 C 0.67996 0.71313 0.34592 0.0
C543 C 0.69526 0.71932 0.37212 0.0
C544 C 0.69365 0.69533 0.32373 0.0
C545 C 0.72362 0.70608 0.37667 0.0
C546 C 0.73711 0.68799 0.35502 0.0
C547 C 0.73719 0.66702 0.30549 0.0
C548 C 0.72351 0.66318 0.27794 0.0
C549 C 0.72264 0.6831 0.32823 0.0
C550 C 0.69427 0.67444 0.27392 0.0
C551 C 0.67943 0.69041 0.29668 0.0
H552 H 0.79712 0.70624 0.17341 0.0
H553 H 0.88169 0.65777 0.17706 0.0
H554 H 0.90816 0.70483 0.1707 0.0
H555 H 0.90707 0.75986 0.17033 0.0
H556 H 0.82228 0.80807 0.16983 0.0
H557 H 0.7961 0.76082 0.16813 0.0
C558 C 0.82137 0.70586 0.17256 0.0
C559 C 0.83737 0.67852 0.17613 0.0
C560 C 0.8364 0.73297 0.16945 0.0
C561 C 0.86879 0.67848 0.17458 0.0
C562 C 0.88395 0.7054 0.17102 0.0
C563 C 0.8829 0.76012 0.16899 0.0
C564 C 0.86659 0.78748 0.17023 0.0
C565 C 0.86797 0.73282 0.16922 0.0
C566 C 0.83529 0.78732 0.16887 0.0
C567 C 0.82032 0.76031 0.16815 0.0
H568 H 0.66581 0.22675 0.68642 0.0
H569 H 0.61805 0.25723 0.60846 0.0
H570 H 0.62334 0.30924 0.62266 0.0
H571 H 0.64555 0.34605 0.65477 0.0
H572 H 0.69244 0.31544 0.73344 0.0
H573 H 0.68238 0.26362 0.72213 0.0
C574 C 0.65596 0.24474 0.67297 0.0
C575 C 0.6414 0.23815 0.64658 0.0
C576 C 0.65896 0.27462 0.68137 0.0
C577 C 0.62941 0.26176 0.6289 0.0
C578 C 0.63234 0.2915 0.63704 0.0
C579 C 0.65317 0.32809 0.66971 0.0
C580 C 0.67024 0.33469 0.69457 0.0
C581 C 0.64765 0.29822 0.66289 0.0
C582 C 0.67949 0.3111 0.71396 0.0
C583 C 0.67396 0.28137 0.7074 0.0
H584 H 0.46764 0.60536 0.56047 0.0
H585 H 0.47156 0.5258 0.50777 0.0
H586 H 0.49144 0.4968 0.55039 0.0
H587 H 0.5096 0.4947 0.60217 0.0
H588 H 0.50488 0.57477 0.65431 0.0
H589 H 0.48313 0.60276 0.61245 0.0
C590 C 0.47283 0.58166 0.55826 0.0
C591 C 0.46834 0.56781 0.53092 0.0
C592 C 0.484 0.56517 0.58283 0.0
C593 C 0.47482 0.53701 0.52858 0.0
C594 C 0.48621 0.52043 0.55294 0.0
C595 C 0.50345 0.51817 0.60449 0.0
C596 C 0.50901 0.5326 0.63136 0.0
C597 C 0.49108 0.53433 0.58014 0.0
C598 C 0.50099 0.56307 0.6339 0.0
C599 C 0.4886 0.57917 0.60993 0.0
H600 H 0.79377 0.18329 0.81661 0.0
H601 H 0.74902 0.12716 0.88295 0.0
H602 H 0.70857 0.11965 0.84851 0.0
H603 H 0.68323 0.1338 0.80207 0.0
H604 H 0.72681 0.19202 0.73677 0.0
H605 H 0.77041 0.19387 0.76833 0.0
C606 C 0.77551 0.16888 0.82336 0.0
C607 C 0.77434 0.15599 0.85246 0.0
C608 C 0.75185 0.16544 0.8038 0.0
C609 C 0.75042 0.13747 0.86077 0.0
C610 C 0.72718 0.1333 0.84114 0.0
C611 C 0.70236 0.14668 0.79456 0.0
C612 C 0.70155 0.16305 0.76724 0.0
C613 C 0.72719 0.148 0.81301 0.0
C614 C 0.7267 0.17938 0.75778 0.0
C615 C 0.75166 0.18046 0.77583 0.0
H616 H 0.95062 0.44913 0.13026 0.0
H617 H 0.00452 0.52345 0.10011 0.0
H618 H 0.0348 0.4902 0.06853 0.0
H619 H 0.04689 0.43998 0.05055 0.0
H620 H 0.99259 0.36566 0.07952 0.0
H621 H 0.96169 0.39899 0.1108 0.0
C622 C 0.96883 0.45813 0.1166 0.0
C623 C 0.97534 0.48875 0.11768 0.0
C624 C 0.9863 0.43885 0.09859 0.0
C625 C 0.99902 0.5 0.09978 0.0
C626 C 0.01645 0.48097 0.08179 0.0
C627 C 0.02844 0.43099 0.06388 0.0
C628 C 0.02224 0.40033 0.063 0.0
C629 C 0.01052 0.45033 0.08132 0.0
C630 C 0.99791 0.38916 0.07996 0.0
C631 C 0.9802 0.40821 0.09776 0.0
H632 H 0.74841 0.85046 0.38145 0.0
H633 H 0.68111 0.83742 0.31597 0.0
H634 H 0.71703 0.84963 0.27566 0.0
H635 H 0.76903 0.85706 0.25897 0.0
H636 H 0.83709 0.86659 0.32448 0.0
H637 H 0.79937 0.86288 0.36477 0.0
C638 C 0.74136 0.85102 0.35841 0.0
C639 C 0.71215 0.84283 0.35172 0.0
C640 C 0.76244 0.85694 0.3353 0.0
C641 C 0.70349 0.84349 0.32171 0.0
C642 C 0.72407 0.8503 0.29864 0.0
C643 C 0.77559 0.85881 0.28202 0.0
C644 C 0.80593 0.8617 0.28867 0.0
C645 C 0.75388 0.85594 0.30513 0.0
C646 C 0.81395 0.86404 0.31871 0.0
C647 C 0.79238 0.86191 0.34179 0.0
H648 H 0.60303 0.51232 0.58194 0.0
H649 H 0.65157 0.44255 0.63012 0.0
H650 H 0.6693 0.42139 0.58275 0.0
H651 H 0.66679 0.42001 0.5276 0.0
H652 H 0.61393 0.487 0.48075 0.0
H653 H 0.60204 0.51206 0.52753 0.0
C654 C 0.61799 0.49283 0.58217 0.0
C655 C 0.62587 0.47898 0.60952 0.0
C656 C 0.62696 0.48008 0.555 0.0
C657 C 0.64506 0.45357 0.60933 0.0
C658 C 0.65498 0.4413 0.58227 0.0
C659 C 0.6528 0.44018 0.52776 0.0
C660 C 0.64183 0.45226 0.50073 0.0
C661 C 0.64532 0.45386 0.55498 0.0
C662 C 0.6235 0.47813 0.50112 0.0
C663 C 0.61647 0.49222 0.52792 0.0
H664 H 0.03773 0.45215 0.95126 0.0
H665 H 0.99442 0.37193 0.9251 0.0
H666 H 0.94959 0.40114 0.91282 0.0
H667 H 0.92001 0.44784 0.91749 0.0
H668 H 0.96292 0.52825 0.94311 0.0
H669 H 0.01058 0.50067 0.94734 0.0
C670 C 0.01879 0.44114 0.94215 0.0
C671 C 0.01926 0.40976 0.93985 0.0
C672 C 0.99278 0.45804 0.93548 0.0
C673 C 0.9946 0.39597 0.92758 0.0
C674 C 0.96881 0.41264 0.92068 0.0
C675 C 0.93996 0.45941 0.92342 0.0
C676 C 0.93793 0.48984 0.93047 0.0
C677 C 0.9672 0.44342 0.92586 0.0
C678 C 0.96395 0.50477 0.93766 0.0
C679 C 0.99117 0.48896 0.94025 0.0
H680 H 0.57496 0.56332 0.44715 0.0
H681 H 0.55355 0.49286 0.38754 0.0
H682 H 0.50428 0.51569 0.38001 0.0
H683 H 0.4675 0.55564 0.38963 0.0
H684 H 0.48831 0.62688 0.44822 0.0
H685 H 0.53736 0.60355 0.45724 0.0
C686 C 0.55953 0.55299 0.43249 0.0
C687 C 0.56807 0.52644 0.41783 0.0
C688 C 0.53104 0.56625 0.42823 0.0
C689 C 0.54768 0.51329 0.39906 0.0
C690 C 0.51944 0.52632 0.39473 0.0
C691 C 0.48273 0.56614 0.40441 0.0
C692 C 0.47407 0.5929 0.41845 0.0
C693 C 0.51094 0.5528 0.40911 0.0
C694 C 0.4941 0.60607 0.43755 0.0
C695 C 0.5223 0.59282 0.44252 0.0
H696 H 0.02449 0.12741 0.26319 0.0
H697 H 0.97524 0.15228 0.34347 0.0
H698 H 0.98179 0.20516 0.33052 0.0
H699 H 0.00724 0.24367 0.30019 0.0
H700 H 0.05909 0.21863 0.22156 0.0
H701 H 0.04531 0.16647 0.22985 0.0
C702 C 0.01473 0.14437 0.27763 0.0
C703 C 0.99981 0.13588 0.30451 0.0
C704 C 0.01925 0.17471 0.27046 0.0
C705 C 0.98711 0.15818 0.32281 0.0
C706 C 0.99091 0.18844 0.31545 0.0
C707 C 0.01512 0.22693 0.28452 0.0
C708 C 0.03456 0.23498 0.26056 0.0
C709 C 0.00784 0.19689 0.28991 0.0
C710 C 0.04434 0.213 0.24036 0.0
C711 C 0.03656 0.18314 0.24515 0.0
H712 H 0.09736 0.71741 0.61718 0.0
H713 H 0.12871 0.73305 0.52608 0.0
H714 H 0.07752 0.74182 0.51025 0.0
H715 H 0.02497 0.75248 0.52353 0.0
H716 H 0.99359 0.73838 0.61483 0.0
H717 H 0.04343 0.72096 0.62905 0.0
C718 C 0.09296 0.72215 0.59377 0.0
C719 C 0.11694 0.72516 0.573 0.0
C720 C 0.06341 0.72768 0.58481 0.0
C721 C 0.11076 0.73102 0.54268 0.0
C722 C 0.08145 0.73609 0.53356 0.0
C723 C 0.02881 0.74493 0.5464 0.0
C724 C 0.00566 0.7473 0.56816 0.0
C725 C 0.05772 0.73562 0.55462 0.0
C726 C 0.01106 0.73715 0.59764 0.0
C727 C 0.03964 0.72732 0.60587 0.0
H728 H 0.54362 0.86349 0.78828 0.0
H729 H 0.56543 0.85483 0.88167 0.0
H730 H 0.54855 0.80331 0.8832 0.0
H731 H 0.52086 0.76366 0.86007 0.0
H732 H 0.4974 0.77311 0.76717 0.0
H733 H 0.52202 0.8212 0.76337 0.0
C734 C 0.54523 0.85019 0.80884 0.0
C735 C 0.55523 0.86323 0.83495 0.0
C736 C 0.53485 0.82079 0.80977 0.0
C737 C 0.55752 0.8455 0.86129 0.0
C738 C 0.54774 0.81604 0.86225 0.0
C739 C 0.52156 0.77597 0.83884 0.0
C740 C 0.50679 0.76505 0.81412 0.0
C741 C 0.53527 0.8039 0.83694 0.0
C742 C 0.50828 0.78113 0.78667 0.0
C743 C 0.52229 0.80871 0.78448 0.0
H744 H 0.43809 0.33509 0.11749 0.0
H745 H 0.38194 0.26898 0.08038 0.0
H746 H 0.42579 0.24434 0.05747 0.0
H747 H 0.48036 0.23937 0.05123 0.0
H748 H 0.53645 0.30486 0.08948 0.0
H749 H 0.49226 0.33203 0.10846 0.0
C750 C 0.43537 0.31547 0.10415 0.0
C751 C 0.40678 0.30382 0.10086 0.0
C752 C 0.46069 0.30121 0.0913 0.0
C753 C 0.40369 0.27843 0.08335 0.0
C754 C 0.42877 0.26425 0.07028 0.0
C755 C 0.48292 0.25984 0.0633 0.0
C756 C 0.51169 0.27001 0.06901 0.0
C757 C 0.45743 0.27514 0.07457 0.0
C758 C 0.51458 0.29647 0.08488 0.0
C759 C 0.48932 0.31201 0.0958 0.0
H760 H 0.28115 0.09741 0.21779 0.0
H761 H 0.36655 0.07062 0.25394 0.0
H762 H 0.38487 0.05671 0.20423 0.0
H763 H 0.37828 0.0567 0.14992 0.0
H764 H 0.29326 0.08466 0.11366 0.0
H765 H 0.27317 0.0933 0.16402 0.0
C766 C 0.30365 0.08815 0.21491 0.0
C767 C 0.32253 0.08541 0.23954 0.0
C768 C 0.31423 0.08062 0.18617 0.0
C769 C 0.35156 0.07319 0.23537 0.0
C770 C 0.36212 0.06529 0.2069 0.0
C771 C 0.35524 0.06435 0.15302 0.0
C772 C 0.33745 0.07035 0.12799 0.0
C773 C 0.34391 0.06964 0.18204 0.0
C774 C 0.30757 0.08006 0.13249 0.0
C775 C 0.29604 0.08506 0.1613 0.0
H776 H 0.235 0.99453 0.46445 0.0
H777 H 0.29966 0.03607 0.51898 0.0
H778 H 0.32058 0.06199 0.47476 0.0
H779 H 0.31745 0.07644 0.4214 0.0
H780 H 0.25201 0.03541 0.36738 0.0
H781 H 0.23447 0.00585 0.41064 0.0
C782 C 0.25401 0.00883 0.46666 0.0
C783 C 0.26556 0.01351 0.49508 0.0
C784 C 0.26553 0.02416 0.44126 0.0
C785 C 0.29022 0.03213 0.49742 0.0
C786 C 0.30211 0.04712 0.47215 0.0
C787 C 0.29948 0.06089 0.41905 0.0
C788 C 0.28587 0.05842 0.39124 0.0
C789 C 0.2894 0.04394 0.44409 0.0
C790 C 0.26281 0.03793 0.38853 0.0
C791 C 0.25274 0.02097 0.41328 0.0
H792 H 0.23959 0.98954 0.75554 0.0
H793 H 0.29954 0.92289 0.71716 0.0
H794 H 0.28569 0.93981 0.66694 0.0
H795 H 0.2525 0.96942 0.63442 0.0
H796 H 0.19055 0.03429 0.67278 0.0
H797 H 0.20947 0.02228 0.72256 0.0
C798 C 0.2501 0.97908 0.73621 0.0
C799 C 0.27041 0.95479 0.74014 0.0
C800 C 0.24139 0.98835 0.7074 0.0
C801 C 0.28373 0.94151 0.7148 0.0
C802 C 0.27573 0.95108 0.68606 0.0
C803 C 0.24333 0.98123 0.65358 0.0
C804 C 0.21985 1.00247 0.64988 0.0
C805 C 0.2539 0.97382 0.68216 0.0
C806 C 0.20847 0.01769 0.67498 0.0
C807 C 0.21924 0.0108 0.70348 0.0
H808 H 0.26819 0.03675 0.87232 0.0
H809 H 0.22712 0.9657 0.92485 0.0
H810 H 0.2351 0.9928 0.97057 0.0
H811 H 0.25991 0.03292 0.99585 0.0
H812 H 0.30438 0.10198 0.94352 0.0
H813 H 0.28826 0.07974 0.89746 0.0
C814 C 0.26051 0.02738 0.8937 0.0
C815 C 0.24746 0.999 0.89516 0.0
C816 C 0.26591 0.0427 0.91997 0.0
C817 C 0.23751 0.98734 0.92308 0.0
C818 C 0.2421 1.00281 0.94926 0.0
C819 C 0.2655 0.04358 0.97443 0.0
C820 C 0.28363 0.06892 0.97316 0.0
C821 C 0.25719 0.03 0.94804 0.0
C822 C 0.29061 0.08237 0.94514 0.0
C823 C 0.28157 0.06954 0.91878 0.0
H824 H 0.13192 0.30158 0.08125 0.0
H825 H 0.15648 0.34619 0.99766 0.0
H826 H 0.20829 0.34797 0.01323 0.0
H827 H 0.24632 0.33794 0.05098 0.0
H828 H 0.22178 0.2932 0.13448 0.0
H829 H 0.17019 0.29049 0.11853 0.0
C830 C 0.14859 0.3116 0.06635 0.0
C831 C 0.14028 0.32377 0.03832 0.0
C832 C 0.17833 0.31258 0.07545 0.0
C833 C 0.16223 0.33665 0.01934 0.0
C834 C 0.19188 0.33771 0.02823 0.0
C835 C 0.22974 0.32742 0.06562 0.0
C836 C 0.23794 0.31574 0.09385 0.0
C837 C 0.20013 0.32588 0.05629 0.0
C838 C 0.21615 0.30219 0.11255 0.0
C839 C 0.1866 0.30071 0.10349 0.0
H840 H 0.74666 0.23907 0.94983 0.0
H841 H 0.79424 0.18261 0.0134 0.0
H842 H 0.74927 0.17952 0.04527 0.0
H843 H 0.69546 0.18917 0.05289 0.0
H844 H 0.64763 0.24477 0.9888 0.0
H845 H 0.69379 0.25211 0.95957 0.0
C846 C 0.74731 0.22634 0.9708 0.0
C847 C 0.77372 0.21082 0.97901 0.0
C848 C 0.72128 0.22438 0.9889 0.0
C849 C 0.77419 0.19463 0.0064 0.0
C850 C 0.74845 0.19279 0.02465 0.0
C851 C 0.69516 0.2032 0.03273 0.0
C852 C 0.66802 0.21612 0.02292 0.0
C853 C 0.72171 0.20702 0.01578 0.0
C854 C 0.66814 0.2344 0.99682 0.0
C855 C 0.69453 0.23855 0.98001 0.0
H856 H 0.07621 0.43283 0.26639 0.0
H857 H 0.00972 0.36437 0.26814 0.0
H858 H 0.97041 0.40236 0.26102 0.0
H859 H 0.9557 0.45406 0.24786 0.0
H860 H 0.02222 0.52248 0.24422 0.0
H861 H 0.06048 0.48559 0.2591 0.0
C862 C 0.05308 0.42626 0.26572 0.0
C863 C 0.04604 0.39574 0.26728 0.0
C864 C 0.03052 0.44822 0.2611 0.0
C865 C 0.01588 0.38766 0.26659 0.0
C866 C 0.99332 0.40938 0.2625 0.0
C867 C 0.97843 0.46107 0.25089 0.0
C868 C 0.98612 0.49091 0.24445 0.0
C869 C 1.00049 0.43961 0.25874 0.0
C870 C 0.01569 0.49959 0.24872 0.0
C871 C 0.03766 0.47846 0.25711 0.0
H872 H 0.83411 0.86792 0.54799 0.0
H873 H 0.85756 0.77372 0.54476 0.0
H874 H 0.80823 0.76333 0.52618 0.0
H875 H 0.76121 0.78181 0.50446 0.0
H876 H 0.73847 0.87623 0.50624 0.0
H877 H 0.78456 0.88555 0.532 0.0
C878 C 0.82827 0.84502 0.54383 0.0
C879 C 0.84976 0.82173 0.54733 0.0
C880 C 0.80006 0.83924 0.53247 0.0
C881 C 0.84162 0.79217 0.54199 0.0
C882 C 0.81342 0.78619 0.53121 0.0
C883 C 0.76609 0.80437 0.51088 0.0
C884 C 0.7466 0.82833 0.50294 0.0
C885 C 0.79289 0.80969 0.52531 0.0
C886 C 0.75316 0.85737 0.51177 0.0
C887 C 0.77959 0.86277 0.52646 0.0
H888 H 0.28186 0.74673 0.56331 0.0
H889 H 0.24674 0.66067 0.54307 0.0
H890 H 0.2928 0.64767 0.51557 0.0
H891 H 0.34423 0.65906 0.50051 0.0
H892 H 0.38029 0.74449 0.52152 0.0
H893 H 0.33265 0.75941 0.54537 0.0
C894 C 0.28411 0.72534 0.55246 0.0
C895 C 0.26094 0.70465 0.55535 0.0
C896 C 0.31094 0.71774 0.5371 0.0
C897 C 0.26428 0.67695 0.54132 0.0
C898 C 0.29065 0.66944 0.52564 0.0
C899 C 0.34168 0.68103 0.51015 0.0
C900 C 0.36593 0.7005 0.50946 0.0
C901 C 0.31435 0.68938 0.52397 0.0
C902 C 0.36207 0.72898 0.52185 0.0
C903 C 0.33482 0.73754 0.53552 0.0
H904 H 1.00165 0.99923 0.27585 0.0
H905 H 0.05358 0.94264 0.33579 0.0
H906 H 0.03377 0.89822 0.31362 0.0
H907 H 0.99511 0.87612 0.28393 0.0
H908 H 0.94116 0.93284 0.226 0.0
H909 H 0.96861 0.9765 0.24048 0.0
C910 C 0.00923 0.97719 0.28361 0.0
C911 C 0.02852 0.9743 0.30797 0.0
C912 C 0.99696 0.95175 0.27148 0.0
C913 C 0.03847 0.94557 0.31735 0.0
C914 C 0.02696 0.92011 0.30483 0.0
C915 C 0.98967 0.89795 0.27406 0.0
C916 C 0.96566 0.90134 0.25447 0.0
C917 C 0.00509 0.92302 0.28297 0.0
C918 C 0.9593 0.92967 0.24142 0.0
C919 C 0.97493 0.95467 0.24977 0.0
H920 H 0.58277 0.9979 0.773 0.0
H921 H 0.50341 0.04916 0.79801 0.0
H922 H 0.51995 0.09103 0.76609 0.0
H923 H 0.55969 0.11509 0.73573 0.0
H924 H 0.639 0.06365 0.71086 0.0
H925 H 0.61961 0.01988 0.7379 0.0
C926 C 0.56885 0.01805 0.77112 0.0
C927 C 0.54212 0.02052 0.78823 0.0
C928 C 0.57864 0.04218 0.75299 0.0
C929 C 0.52416 0.04666 0.78521 0.0
C930 C 0.53369 0.07072 0.76709 0.0
C931 C 0.57257 0.0942 0.73593 0.0
C932 C 0.60095 0.09281 0.72168 0.0
C933 C 0.56134 0.06907 0.75163 0.0
C934 C 0.61717 0.06545 0.7218 0.0
C935 C 0.60614 0.04038 0.73733 0.0
H936 H 0.61027 0.27669 0.73749 0.0
H937 H 0.54215 0.26798 0.67187 0.0
H938 H 0.53164 0.32183 0.67276 0.0
H939 H 0.54462 0.37179 0.68907 0.0
H940 H 0.61469 0.38052 0.75261 0.0
H941 H 0.62148 0.32621 0.75568 0.0
C942 C 0.59282 0.28646 0.72366 0.0
C943 C 0.5771 0.26829 0.70456 0.0
C944 C 0.58738 0.3175 0.72375 0.0
C945 C 0.55462 0.2814 0.68677 0.0
C946 C 0.54867 0.31223 0.68717 0.0
C947 C 0.56108 0.36181 0.70393 0.0
C948 C 0.57912 0.38023 0.72056 0.0
C949 C 0.56532 0.33057 0.70512 0.0
C950 C 0.60048 0.3669 0.73955 0.0
C951 C 0.60443 0.33582 0.74129 0.0
H952 H 0.95588 0.21422 0.8823 0.0
H953 H 0.90632 0.20737 0.96628 0.0
H954 H 0.94885 0.22591 0.99255 0.0
H955 H 0.9966 0.25181 0.99039 0.0
H956 H 0.04566 0.25977 0.90621 0.0
H957 H 0.00713 0.23258 0.88156 0.0
C958 C 0.95458 0.21618 0.90643 0.0
C959 C 0.92768 0.21008 0.92214 0.0
C960 C 0.97895 0.22739 0.9214 0.0
C961 C 0.92659 0.21228 0.9535 0.0
C962 C 0.95089 0.22302 0.96858 0.0
C963 C 0.99921 0.24705 0.96679 0.0
C964 C 0.02364 0.25846 0.95007 0.0
C965 C 0.97667 0.23188 0.95257 0.0
C966 C 0.02689 0.25164 0.9196 0.0
C967 C 0.00477 0.23618 0.9054 0.0
H968 H 0.96743 0.75776 0.20042 0.0
H969 H 0.91181 0.7507 0.28052 0.0
H970 H 0.91377 0.69619 0.27787 0.0
H971 H 0.92781 0.65108 0.25072 0.0
H972 H 0.98131 0.6579 0.16917 0.0
H973 H 0.98369 0.71211 0.17452 0.0
C974 C 0.9563 0.74427 0.21767 0.0
C975 C 0.93956 0.75822 0.24068 0.0
C976 C 0.95682 0.71298 0.21553 0.0
C977 C 0.92485 0.74046 0.26259 0.0
C978 C 0.92584 0.70932 0.26101 0.0
C979 C 0.94023 0.66433 0.23421 0.0
C980 C 0.95428 0.65047 0.20953 0.0
C981 C 0.94116 0.69542 0.2372 0.0
C982 C 0.97022 0.66803 0.18834 0.0
C983 C 0.97163 0.69902 0.1914 0.0
H984 H 0.51442 0.7146 0.48114 0.0
H985 H 0.48297 0.73443 0.39216 0.0
H986 H 0.52375 0.76909 0.38309 0.0
H987 H 0.57079 0.7903 0.39883 0.0
H988 H 0.60271 0.76941 0.48745 0.0
H989 H 0.55902 0.73906 0.49835 0.0
C990 C 0.51633 0.72665 0.45982 0.0
C991 C 0.49586 0.72161 0.43724 0.0
C992 C 0.53994 0.7464 0.45467 0.0
C993 C 0.4985 0.7377 0.40989 0.0
C994 C 0.52185 0.75754 0.40465 0.0
C995 C 0.56795 0.77957 0.42072 0.0
C996 C 0.59018 0.78194 0.44218 0.0
C997 C 0.54304 0.76161 0.42667 0.0
C998 C 0.58608 0.76782 0.47043 0.0
C999 C 0.56114 0.75034 0.47667 0.0
H1000 H 0.7334 0.5336 0.37728 0.0
H1001 H 0.69353 0.45821 0.33651 0.0
H1002 H 0.7167 0.47213 0.28841 0.0
H1003 H 0.74195 0.50966 0.25668 0.0
H1004 H 0.78139 0.58549 0.29679 0.0
H1005 H 0.76548 0.567 0.3465 0.0
C1006 C 0.73013 0.52001 0.35795 0.0
C1007 C 0.71124 0.49531 0.36032 0.0
C1008 C 0.74346 0.52819 0.33024 0.0
C1009 C 0.70768 0.47754 0.33524 0.0
C1010 C 0.72089 0.48549 0.30768 0.0
C1011 C 0.74775 0.52168 0.27641 0.0
C1012 C 0.76245 0.549 0.27314 0.0
C1013 C 0.73794 0.51132 0.30474 0.0
C1014 C 0.77015 0.56431 0.29878 0.0
C1015 C 0.76072 0.55394 0.32718 0.0
H1016 H 0.73775 0.45681 0.52226 0.0
H1017 H 0.68135 0.53461 0.53918 0.0
H1018 H 0.68695 0.52661 0.59302 0.0
H1019 H 0.70345 0.49442 0.63512 0.0
H1020 H 0.75745 0.41504 0.61763 0.0
H1021 H 0.7572 0.42687 0.56414 0.0
C1022 C 0.72718 0.47243 0.53765 0.0
C1023 C 0.70909 0.49621 0.52671 0.0
C1024 C 0.72977 0.4672 0.56852 0.0
C1025 C 0.69545 0.51613 0.54702 0.0
C1026 C 0.69852 0.51149 0.57782 0.0
C1027 C 0.71552 0.47993 0.61966 0.0
C1028 C 0.73021 0.45375 0.63037 0.0
C1029 C 0.71494 0.48661 0.58882 0.0
C1030 C 0.74575 0.43522 0.61 0.0
C1031 C 0.74565 0.44196 0.57938 0.0
H1032 H 0.79333 0.53009 0.84373 0.0
H1033 H 0.76384 0.47301 0.91765 0.0
H1034 H 0.73107 0.44722 0.88489 0.0
H1035 H 0.7159 0.43635 0.83425 0.0
H1036 H 0.7456 0.49269 0.75993 0.0
H1037 H 0.77243 0.52357 0.79394 0.0
C1038 C 0.77938 0.51235 0.85277 0.0
C1039 C 0.78159 0.50315 0.88298 0.0
C1040 C 0.76063 0.4973 0.83371 0.0
C1041 C 0.76302 0.48033 0.89439 0.0
C1042 C 0.74421 0.46549 0.87566 0.0
C1043 C 0.7277 0.45575 0.82553 0.0
C1044 C 0.72915 0.46179 0.79453 0.0
C1045 C 0.7436 0.4731 0.84511 0.0
C1046 C 0.74428 0.48729 0.78369 0.0
C1047 C 0.75984 0.5049 0.80311 0.0
H1048 H 0.8024 0.52132 0.14299 0.0
H1049 H 0.72674 0.57694 0.1168 0.0
H1050 H 0.72717 0.55335 0.06813 0.0
H1051 H 0.75368 0.52295 0.0309 0.0
H1052 H 0.83259 0.47139 0.05544 0.0
H1053 H 0.82582 0.48692 0.10719 0.0
C1054 C 0.78567 0.52799 0.12684 0.0
C1055 C 0.76491 0.55127 0.13329 0.0
C1056 C 0.78669 0.51506 0.09861 0.0
C1057 C 0.74321 0.55936 0.11225 0.0
C1058 C 0.74347 0.5459 0.08441 0.0
C1059 C 0.76903 0.51446 0.04766 0.0
C1060 C 0.79385 0.49634 0.0392 0.0
C1061 C 0.7658 0.52457 0.07699 0.0
C1062 C 0.81339 0.48548 0.0613 0.0
C1063 C 0.80964 0.49451 0.09086 0.0
H1064 H 0.53354 0.62879 0.79658 0.0
H1065 H 0.44406 0.59867 0.81627 0.0
H1066 H 0.45859 0.54849 0.80007 0.0
H1067 H 0.49457 0.51547 0.77376 0.0
H1068 H 0.5832 0.54662 0.75165 0.0
H1069 H 0.57119 0.59395 0.77572 0.0
C1070 C 0.5173 0.61115 0.79784 0.0
C1071 C 0.48761 0.61766 0.80716 0.0
C1072 C 0.52558 0.58257 0.78776 0.0
C1073 C 0.467 0.5944 0.80895 0.0
C1074 C 0.47526 0.5657 0.79955 0.0
C1075 C 0.51147 0.53236 0.77468 0.0
C1076 C 0.5396 0.52765 0.76049 0.0
C1077 C 0.50417 0.55986 0.78789 0.0
C1078 C 0.56127 0.54974 0.76211 0.0
C1079 C 0.55439 0.57689 0.7758 0.0
loop_
_geom_bond_atom_site_label_1
_geom_bond_atom_site_label_2
_geom_bond_distance
_geom_bond_site_symmetry_2
_ccdc_geom_bond_type
Mg0 O7 2.141 . S
Mg0 O8 2.048 . S
Mg0 O9 2.048 . S
Mg0 O12 2.141 . S
C1 O2 1.313 . S
C1 O8 1.195 . S
O2 C1 1.313 . S
C3 O4 1.245 . S
C3 O12 1.289 . S
O4 C3 1.245 . S
C5 O6 1.245 . S
C5 O7 1.289 . S
O6 C5 1.245 . S
O7 Mg0 2.141 . S
O7 C5 1.289 . S
O8 Mg0 2.048 . S
O8 C1 1.195 . S
O9 Mg0 2.048 . S
O9 C10 1.195 . S
C10 O9 1.195 . S
C10 O11 1.313 . S
O11 C10 1.313 . S
O12 Mg0 2.141 . S
O12 C3 1.289 . S
Mg13 O20 2.141 . S
Mg13 O21 2.048 . S
Mg13 O22 2.048 1_455 S
Mg13 O25 2.141 1_455 S
C14 O15 1.313 . S
C14 O21 1.195 . S
O15 C14 1.313 . S
C16 O17 1.245 . S
C16 O25 1.289 . S
O17 C16 1.245 . S
C18 O19 1.245 . S
C18 O20 1.289 . S
O19 C18 1.245 . S
O20 Mg13 2.141 . S
O20 C18 1.289 . S
O21 Mg13 2.048 . S
O21 C14 1.195 . S
O22 Mg13 2.048 1_655 S
O22 C23 1.195 . S
C23 O22 1.195 . S
C23 O24 1.313 . S
O24 C23 1.313 . S
O25 Mg13 2.141 1_655 S
O25 C16 1.289 . S
Mg26 O33 2.141 . S
Mg26 O34 2.048 . S
Mg26 O35 2.048 . S
Mg26 O38 2.141 . S
C27 O28 1.313 . S
C27 O34 1.195 . S
O28 C27 1.313 . S
C29 O30 1.245 . S
C29 O38 1.289 . S
O30 C29 1.245 . S
C31 O32 1.245 . S
C31 O33 1.289 . S
O32 C31 1.245 . S
O33 Mg26 2.141 . S
O33 C31 1.289 . S
O34 Mg26 2.048 . S
O34 C27 1.195 . S
O35 Mg26 2.048 . S
O35 C36 1.195 . S
C36 O35 1.195 . S
C36 O37 1.313 . S
O37 C36 1.313 . S
O38 Mg26 2.141 . S
O38 C29 1.289 . S
Mg39 O46 2.141 1_556 S
Mg39 O47 2.048 . S
Mg39 O48 2.048 . S
Mg39 O51 2.141 . S
C40 O41 1.313 . S
C40 O47 1.195 1_554 S
O41 C40 1.313 . S
C42 O43 1.274 . S
C42 O51 1.289 . S
O43 C42 1.274 . S
C44 O45 1.245 . S
C44 O46 1.289 . S
O45 C44 1.245 . S
O46 Mg39 2.141 1_554 S
O46 C44 1.289 . S
O47 Mg39 2.048 . S
O47 C40 1.195 1_556 S
O48 Mg39 2.048 . S
O48 C49 1.195 . S
C49 O48 1.195 . S
C49 O50 1.313 . S
O50 C49 1.313 . S
O51 Mg39 2.141 . S
O51 C42 1.289 . S
Mg52 O59 2.141 . S
Mg52 O60 2.048 . S
Mg52 O61 2.048 1_445 S
Mg52 O64 2.141 1_445 S
C53 O54 1.313 1_545 S
C53 O60 1.195 . S
O54 C53 1.313 1_565 S
C55 O56 1.245 . S
C55 O64 1.290 . S
O56 C55 1.245 . S
C57 O58 1.245 . S
C57 O59 1.289 . S
O58 C57 1.245 . S
O59 Mg52 2.141 . S
O59 C57 1.289 . S
O60 Mg52 2.048 . S
O60 C53 1.195 . S
O61 Mg52 2.048 1_665 S
O61 C62 1.195 1_655 S
C62 O61 1.195 1_455 S
C62 O63 1.313 . S
O63 C62 1.313 . S
O64 Mg52 2.141 1_665 S
O64 C55 1.290 . S
Mg65 O72 2.141 . S
Mg65 O73 2.048 . S
Mg65 O74 2.048 . S
Mg65 O77 2.141 . S
C66 O67 1.313 . S
C66 O73 1.195 . S
O67 C66 1.313 . S
C68 O69 1.245 . S
C68 O77 1.289 . S
O69 C68 1.245 . S
C70 O71 1.245 . S
C70 O72 1.289 . S
O71 C70 1.245 . S
O72 Mg65 2.141 . S
O72 C70 1.289 . S
O73 Mg65 2.048 . S
O73 C66 1.195 . S
O74 Mg65 2.048 . S
O74 C75 1.195 . S
C75 O74 1.195 . S
C75 O76 1.313 . S
O76 C75 1.313 . S
O77 Mg65 2.141 . S
O77 C68 1.289 . S
Mg78 O85 2.141 . S
Mg78 O86 2.048 . S
Mg78 O87 2.048 1_565 S
Mg78 O90 2.141 1_565 S
C79 O80 1.313 1_565 S
C79 O86 1.195 . S
O80 C79 1.313 1_545 S
C81 O82 1.245 . S
C81 O90 1.289 . S
O82 C81 1.245 . S
C83 O84 1.245 . S
C83 O85 1.289 . S
O84 C83 1.245 . S
O85 Mg78 2.141 . S
O85 C83 1.289 . S
O86 Mg78 2.048 . S
O86 C79 1.195 . S
O87 Mg78 2.048 1_545 S
O87 C88 1.195 . S
C88 O87 1.195 . S
C88 O89 1.313 . S
O89 C88 1.313 . S
O90 Mg78 2.141 1_545 S
O90 C81 1.289 . S
Mg91 O98 2.141 . S
Mg91 O99 2.048 . S
Mg91 O100 2.048 . S
Mg91 O103 2.141 . S
C92 O93 1.313 . S
C92 O99 1.195 . S
O93 C92 1.313 . S
C94 O95 1.245 . S
C94 O103 1.289 . S
O95 C94 1.245 . S
C96 O97 1.245 . S
C96 O98 1.289 . S
O97 C96 1.245 . S
O98 Mg91 2.141 . S
O98 C96 1.289 . S
O99 Mg91 2.048 . S
O99 C92 1.195 . S
O100 Mg91 2.048 . S
O100 C101 1.195 . S
C101 O100 1.195 . S
C101 O102 1.313 . S
O102 C101 1.313 . S
O103 Mg91 2.141 . S
O103 C94 1.289 . S
Mg104 O111 2.141 . S
Mg104 O112 2.048 . S
Mg104 O113 2.048 . S
Mg104 O116 2.141 . S
C105 O106 1.313 . S
C105 O112 1.195 . S
O106 C105 1.313 . S
C107 O108 1.245 . S
C107 O116 1.289 . S
O108 C107 1.245 . S
C109 O110 1.245 . S
C109 O111 1.289 . S
O110 C109 1.245 . S
O111 Mg104 2.141 . S
O111 C109 1.289 . S
O112 Mg104 2.048 . S
O112 C105 1.195 . S
O113 Mg104 2.048 . S
O113 C114 1.195 . S
C114 O113 1.195 . S
C114 O115 1.313 . S
O115 C114 1.313 . S
O116 Mg104 2.141 . S
O116 C107 1.289 . S
Mg117 O124 2.141 1_565 S
Mg117 O125 2.048 . S
Mg117 O126 2.048 . S
Mg117 O129 2.141 . S
C118 O119 1.313 . S
C118 O125 1.195 1_545 S
O119 C118 1.313 . S
C120 O121 1.274 . S
C120 O129 1.289 . S
O121 C120 1.274 . S
C122 O123 1.245 . S
C122 O124 1.289 . S
O123 C122 1.245 . S
O124 Mg117 2.141 1_545 S
O124 C122 1.289 . S
O125 Mg117 2.048 . S
O125 C118 1.195 1_565 S
O126 Mg117 2.048 . S
O126 C127 1.195 . S
C127 O126 1.195 . S
C127 O128 1.313 . S
O128 C127 1.313 . S
O129 Mg117 2.141 . S
O129 C120 1.289 . S
Mg130 O137 2.141 . S
Mg130 O138 2.048 . S
Mg130 O139 2.048 . S
Mg130 O142 2.141 . S
C131 O132 1.313 . S
C131 O138 1.195 . S
O132 C131 1.313 . S
C133 O134 1.245 . S
C133 O142 1.289 . S
O134 C133 1.245 . S
C135 O136 1.245 . S
C135 O137 1.289 . S
O136 C135 1.245 . S
O137 Mg130 2.141 . S
O137 C135 1.289 . S
O138 Mg130 2.048 . S
O138 C131 1.195 . S
O139 Mg130 2.048 . S
O139 C140 1.195 . S
C140 O139 1.195 . S
C140 O141 1.313 . S
O141 C140 1.313 . S
O142 Mg130 2.141 . S
O142 C133 1.289 . S
Mg143 O150 2.141 1_545 S
Mg143 O151 2.048 . S
Mg143 O152 2.048 1_556 S
Mg143 O155 2.141 1_556 S
C144 O145 1.313 1_545 S
C144 O151 1.195 . S
O145 C144 1.313 1_565 S
C146 O147 1.245 . S
C146 O155 1.289 . S
O147 C146 1.245 . S
C148 O149 1.257 . S
C148 O150 1.289 . S
O149 C148 1.257 . S
O150 Mg143 2.141 1_565 S
O150 C148 1.289 . S
O151 Mg143 2.048 . S
O151 C144 1.195 . S
O152 Mg143 2.048 1_554 S
O152 C153 1.195 . S
C153 O152 1.195 . S
C153 O154 1.313 . S
O154 C153 1.313 . S
O155 Mg143 2.141 1_554 S
O155 C146 1.289 . S
Mg156 O163 2.141 . S
Mg156 O164 2.048 . S
Mg156 O165 2.048 . S
Mg156 O168 2.141 . S
C157 O158 1.313 . S
C157 O164 1.195 . S
O158 C157 1.313 . S
C159 O160 1.245 . S
C159 O168 1.289 . S
O160 C159 1.245 . S
C161 O162 1.245 . S
C161 O163 1.289 . S
O162 C161 1.245 . S
O163 Mg156 2.141 . S
O163 C161 1.289 . S
O164 Mg156 2.048 . S
O164 C157 1.195 . S
O165 Mg156 2.048 . S
O165 C166 1.195 . S
C166 O165 1.195 . S
C166 O167 1.313 . S
O167 C166 1.313 . S
O168 Mg156 2.141 . S
O168 C159 1.289 . S
Mg169 O176 2.141 1_455 S
Mg169 O177 2.048 1_455 S
Mg169 O178 2.048 . S
Mg169 O181 2.141 . S
C170 O171 1.313 . S
C170 O177 1.195 . S
O171 C170 1.313 . S
C172 O173 1.245 . S
C172 O181 1.289 . S
O173 C172 1.245 . S
C174 O175 1.245 . S
C174 O176 1.289 . S
O175 C174 1.245 . S
O176 Mg169 2.141 1_655 S
O176 C174 1.289 . S
O177 Mg169 2.048 1_655 S
O177 C170 1.195 . S
O178 Mg169 2.048 . S
O178 C179 1.185 1_455 S
C179 O178 1.185 1_655 S
C179 O180 1.331 . S
O180 C179 1.331 . S
O181 Mg169 2.141 . S
O181 C172 1.289 . S
Mg182 O189 2.141 . S
Mg182 O190 2.048 . S
Mg182 O191 2.048 . S
Mg182 O194 2.141 . S
C183 O184 1.313 . S
C183 O190 1.195 . S
O184 C183 1.313 . S
C185 O186 1.245 . S
C185 O194 1.289 . S
O186 C185 1.245 . S
C187 O188 1.245 . S
C187 O189 1.289 . S
O188 C187 1.245 . S
O189 Mg182 2.141 . S
O189 C187 1.289 . S
O190 Mg182 2.048 . S
O190 C183 1.195 . S
O191 Mg182 2.048 . S
O191 C192 1.195 . S
C192 O191 1.195 . S
C192 O193 1.313 . S
O193 C192 1.313 . S
O194 Mg182 2.141 . S
O194 C185 1.289 . S
Mg195 O202 2.141 . S
Mg195 O203 2.048 . S
Mg195 O204 2.048 . S
Mg195 O207 2.141 . S
C196 O197 1.313 . S
C196 O203 1.195 . S
O197 C196 1.313 . S
C198 O199 1.245 . S
C198 O207 1.289 . S
O199 C198 1.245 . S
C200 O201 1.245 . S
C200 O202 1.289 . S
O201 C200 1.245 . S
O202 Mg195 2.141 . S
O202 C200 1.289 . S
O203 Mg195 2.048 . S
O203 C196 1.195 . S
O204 Mg195 2.048 . S
O204 C205 1.195 . S
C205 O204 1.195 . S
C205 O206 1.313 . S
O206 C205 1.313 . S
O207 Mg195 2.141 . S
O207 C198 1.289 . S
Mg208 O215 2.141 . S
Mg208 O216 2.048 . S
Mg208 O217 2.048 . S
Mg208 O220 2.141 . S
C209 O210 1.313 . S
C209 O216 1.195 . S
O210 C209 1.313 . S
C211 O212 1.245 . S
C211 O220 1.289 . S
O212 C211 1.245 . S
C213 O214 1.245 . S
C213 O215 1.289 . S
O214 C213 1.245 . S
O215 Mg208 2.141 . S
O215 C213 1.289 . S
O216 Mg208 2.048 . S
O216 C209 1.195 . S
O217 Mg208 2.048 . S
O217 C218 1.195 . S
C218 O217 1.195 . S
C218 O219 1.313 . S
O219 C218 1.313 . S
O220 Mg208 2.141 . S
O220 C211 1.289 . S
Mg221 O228 2.141 . S
Mg221 O229 2.048 . S
Mg221 O230 2.048 . S
Mg221 O233 2.141 . S
C222 O223 1.313 . S
C222 O229 1.195 . S
O223 C222 1.313 . S
C224 O225 1.245 . S
C224 O233 1.289 . S
O225 C224 1.245 . S
C226 O227 1.245 . S
C226 O228 1.289 . S
O227 C226 1.245 . S
O228 Mg221 2.141 . S
O228 C226 1.289 . S
O229 Mg221 2.048 . S
O229 C222 1.195 . S
O230 Mg221 2.048 . S
O230 C231 1.195 . S
C231 O230 1.195 . S
C231 O232 1.313 . S
O232 C231 1.313 . S
O233 Mg221 2.141 . S
O233 C224 1.289 . S
Mg234 O241 2.141 1_554 S
Mg234 O242 2.048 . S
Mg234 O243 2.048 1_655 S
Mg234 O246 2.141 1_655 S
C235 O236 1.313 1_554 S
C235 O242 1.195 . S
O236 C235 1.313 1_556 S
C237 O238 1.245 . S
C237 O246 1.289 . S
O238 C237 1.245 . S
C239 O240 1.257 . S
C239 O241 1.289 . S
O240 C239 1.257 . S
O241 Mg234 2.141 1_556 S
O241 C239 1.289 . S
O242 Mg234 2.048 . S
O242 C235 1.195 . S
O243 Mg234 2.048 1_455 S
O243 C244 1.195 . S
C244 O243 1.195 . S
C244 O245 1.313 . S
O245 C244 1.313 . S
O246 Mg234 2.141 1_455 S
O246 C237 1.289 . S
Mg247 O254 2.141 . S
Mg247 O255 2.048 . S
Mg247 O256 2.048 . S
Mg247 O259 2.141 . S
C248 O249 1.313 . S
C248 O255 1.195 . S
O249 C248 1.313 . S
C250 O251 1.245 . S
C250 O259 1.289 . S
O251 C250 1.245 . S
C252 O253 1.245 . S
C252 O254 1.289 . S
O253 C252 1.245 . S
O254 Mg247 2.141 . S
O254 C252 1.289 . S
O255 Mg247 2.048 . S
O255 C248 1.195 . S
O256 Mg247 2.048 . S
O256 C257 1.195 . S
C257 O256 1.195 . S
C257 O258 1.313 . S
O258 C257 1.313 . S
O259 Mg247 2.141 . S
O259 C250 1.289 . S
Mg260 O267 2.141 . S
Mg260 O268 2.048 . S
Mg260 O269 2.048 . S
Mg260 O272 2.141 . S
C261 O262 1.313 . S
C261 O268 1.195 . S
O262 C261 1.313 . S
C263 O264 1.245 . S
C263 O272 1.289 . S
O264 C263 1.245 . S
C265 O266 1.245 . S
C265 O267 1.289 . S
O266 C265 1.245 . S
O267 Mg260 2.141 . S
O267 C265 1.289 . S
O268 Mg260 2.048 . S
O268 C261 1.195 . S
O269 Mg260 2.048 . S
O269 C270 1.195 . S
C270 O269 1.195 . S
C270 O271 1.313 . S
O271 C270 1.313 . S
O272 Mg260 2.141 . S
O272 C263 1.289 . S
Mg273 O280 2.141 . S
Mg273 O281 2.048 . S
Mg273 O282 2.048 . S
Mg273 O285 2.141 . S
C274 O275 1.313 . S
C274 O281 1.195 . S
O275 C274 1.313 . S
C276 O277 1.245 . S
C276 O285 1.289 . S
O277 C276 1.245 . S
C278 O279 1.245 . S
C278 O280 1.289 . S
O279 C278 1.245 . S
O280 Mg273 2.141 . S
O280 C278 1.289 . S
O281 Mg273 2.048 . S
O281 C274 1.195 . S
O282 Mg273 2.048 . S
O282 C283 1.195 . S
C283 O282 1.195 . S
C283 O284 1.313 . S
O284 C283 1.313 . S
O285 Mg273 2.141 . S
O285 C276 1.289 . S
Mg286 O293 2.141 . S
Mg286 O294 2.048 . S
Mg286 O295 2.048 1_554 S
Mg286 O298 2.141 1_554 S
C287 O288 1.313 . S
C287 O294 1.195 . S
O288 C287 1.313 . S
C289 O290 1.245 . S
C289 O298 1.289 . S
O290 C289 1.245 . S
C291 O292 1.245 . S
C291 O293 1.289 . S
O292 C291 1.245 . S
O293 Mg286 2.141 . S
O293 C291 1.289 . S
O294 Mg286 2.048 . S
O294 C287 1.195 . S
O295 Mg286 2.048 1_556 S
O295 C296 1.195 . S
C296 O295 1.195 . S
C296 O297 1.313 . S
O297 C296 1.313 . S
O298 Mg286 2.141 1_556 S
O298 C289 1.289 . S
Mg299 O306 2.141 . S
Mg299 O307 2.048 . S
Mg299 O308 2.048 . S
Mg299 O311 2.141 . S
C300 O301 1.313 . S
C300 O307 1.195 . S
O301 C300 1.313 . S
C302 O303 1.245 . S
C302 O311 1.289 . S
O303 C302 1.245 . S
C304 O305 1.245 . S
C304 O306 1.289 . S
O305 C304 1.245 . S
O306 Mg299 2.141 . S
O306 C304 1.289 . S
O307 Mg299 2.048 . S
O307 C300 1.195 . S
O308 Mg299 2.048 . S
O308 C309 1.195 . S
C309 O308 1.195 . S
C309 O310 1.313 . S
O310 C309 1.313 . S
O311 Mg299 2.141 . S
O311 C302 1.289 . S
H312 C318 0.930 . S
H313 C321 0.930 . S
H314 C322 0.930 . S
H315 C323 0.930 . S
H316 C326 0.930 . S
H317 C327 0.930 . S
C318 H312 0.930 . S
C318 C319 1.355 . S
C318 C320 1.415 . S
C319 C318 1.355 . S
C319 C321 1.419 . S
C320 C318 1.415 . S
C320 C325 1.425 . S
C320 C327 1.409 . S
C321 H313 0.930 . S
C321 C319 1.419 . S
C321 C322 1.362 . S
C322 H314 0.930 . S
C322 C321 1.362 . S
C322 C325 1.409 . S
C323 H315 0.930 . S
C323 C324 1.355 . S
C323 C325 1.415 . S
C324 C323 1.355 . S
C324 C326 1.419 . S
C325 C320 1.425 . S
C325 C322 1.409 . S
C325 C323 1.415 . S
C326 H316 0.930 . S
C326 C324 1.419 . S
C326 C327 1.362 . S
C327 H317 0.930 . S
C327 C320 1.409 . S
C327 C326 1.362 . S
H328 C334 0.930 . S
H329 C337 0.930 . S
H330 C338 0.930 . S
H331 C339 0.930 . S
H332 C342 0.930 . S
H333 C343 0.930 . S
C334 H328 0.930 . S
C334 C335 1.355 . S
C334 C336 1.415 . S
C335 C334 1.355 . S
C335 C337 1.419 1_655 S
C336 C334 1.415 . S
C336 C341 1.425 1_655 S
C336 C343 1.409 . S
C337 H329 0.930 . S
C337 C335 1.419 1_455 S
C337 C338 1.362 . S
C338 H330 0.930 . S
C338 C337 1.362 . S
C338 C341 1.409 . S
C339 H331 0.930 . S
C339 C340 1.355 1_455 S
C339 C341 1.415 . S
C340 C339 1.355 1_655 S
C340 C342 1.419 . S
C341 C336 1.425 1_455 S
C341 C338 1.409 . S
C341 C339 1.415 . S
C342 H332 0.930 . S
C342 C340 1.419 . S
C342 C343 1.362 . S
C343 H333 0.930 . S
C343 C336 1.409 . S
C343 C342 1.362 . S
H344 C350 0.930 . S
H345 C353 0.930 . S
H346 C354 0.930 . S
H347 C355 0.930 . S
H348 C358 0.930 . S
H349 C359 0.930 . S
C350 H344 0.930 . S
C350 C351 1.355 . S
C350 C352 1.415 . S
C351 C350 1.355 . S
C351 C353 1.419 . S
C352 C350 1.415 . S
C352 C357 1.425 . S
C352 C359 1.409 . S
C353 H345 0.930 . S
C353 C351 1.419 . S
C353 C354 1.362 . S
C354 H346 0.930 . S
C354 C353 1.362 . S
C354 C357 1.409 . S
C355 H347 0.930 . S
C355 C356 1.355 . S
C355 C357 1.415 . S
C356 C355 1.355 . S
C356 C358 1.419 . S
C357 C352 1.425 . S
C357 C354 1.409 . S
C357 C355 1.415 . S
C358 H348 0.930 . S
C358 C356 1.419 . S
C358 C359 1.362 . S
C359 H349 0.930 . S
C359 C352 1.409 . S
C359 C358 1.362 . S
H360 C366 0.930 . S
H361 C369 0.930 . S
H362 C370 0.930 . S
H363 C371 0.930 . S
H364 C374 0.930 . S
H365 C375 0.930 . S
C366 H360 0.930 . S
C366 C367 1.355 . S
C366 C368 1.415 . S
C367 C366 1.355 . S
C367 C369 1.419 . S
C368 C366 1.415 . S
C368 C373 1.425 . S
C368 C375 1.409 . S
C369 H361 0.930 . S
C369 C367 1.419 . S
C369 C370 1.362 . S
C370 H362 0.930 . S
C370 C369 1.362 . S
C370 C373 1.409 . S
C371 H363 0.930 . S
C371 C372 1.355 . S
C371 C373 1.415 . S
C372 C371 1.355 . S
C372 C374 1.419 . S
C373 C368 1.425 . S
C373 C370 1.409 . S
C373 C371 1.415 . S
C374 H364 0.930 . S
C374 C372 1.419 . S
C374 C375 1.362 . S
C375 H365 0.930 . S
C375 C368 1.409 . S
C375 C374 1.362 . S
H376 C382 0.930 . S
H377 C385 0.930 . S
H378 C386 0.930 . S
H379 C387 0.930 . S
H380 C390 0.930 . S
H381 C391 0.930 . S
C382 H376 0.930 . S
C382 C383 1.355 . S
C382 C384 1.415 . S
C383 C382 1.355 . S
C383 C385 1.419 . S
C384 C382 1.415 . S
C384 C389 1.425 . S
C384 C391 1.409 . S
C385 H377 0.930 . S
C385 C383 1.419 . S
C385 C386 1.362 . S
C386 H378 0.930 . S
C386 C385 1.362 . S
C386 C389 1.409 . S
C387 H379 0.930 . S
C387 C388 1.355 . S
C387 C389 1.415 . S
C388 C387 1.355 . S
C388 C390 1.419 . S
C389 C384 1.425 . S
C389 C386 1.409 . S
C389 C387 1.415 . S
C390 H380 0.930 . S
C390 C388 1.419 . S
C390 C391 1.362 . S
C391 H381 0.930 . S
C391 C384 1.409 . S
C391 C390 1.362 . S
H392 C398 0.930 . S
H393 C401 0.930 . S
H394 C402 0.930 . S
H395 C403 0.930 . S
H396 C406 0.930 . S
H397 C407 0.930 . S
C398 H392 0.930 . S
C398 C399 1.355 . S
C398 C400 1.415 . S
C399 C398 1.355 . S
C399 C401 1.419 . S
C400 C398 1.415 . S
C400 C405 1.425 . S
C400 C407 1.409 . S
C401 H393 0.930 . S
C401 C399 1.419 . S
C401 C402 1.362 . S
C402 H394 0.930 . S
C402 C401 1.362 . S
C402 C405 1.409 . S
C403 H395 0.930 . S
C403 C404 1.355 . S
C403 C405 1.415 . S
C404 C403 1.355 . S
C404 C406 1.419 . S
C405 C400 1.425 . S
C405 C402 1.409 . S
C405 C403 1.415 . S
C406 H396 0.930 . S
C406 C404 1.419 . S
C406 C407 1.362 . S
C407 H397 0.930 . S
C407 C400 1.409 . S
C407 C406 1.362 . S
H408 C414 0.930 . S
H409 C417 0.930 . S
H410 C418 0.930 . S
H411 C419 0.930 . S
H412 C422 0.930 . S
H413 C423 0.930 . S
C414 H408 0.930 . S
C414 C415 1.355 . S
C414 C416 1.415 . S
C415 C414 1.355 . S
C415 C417 1.419 . S
C416 C414 1.415 . S
C416 C421 1.425 . S
C416 C423 1.409 . S
C417 H409 0.930 . S
C417 C415 1.419 . S
C417 C418 1.362 . S
C418 H410 0.930 . S
C418 C417 1.362 . S
C418 C421 1.409 . S
C419 H411 0.930 . S
C419 C420 1.355 . S
C419 C421 1.415 . S
C420 C419 1.355 . S
C420 C422 1.419 . S
C421 C416 1.425 . S
C421 C418 1.409 . S
C421 C419 1.415 . S
C422 H412 0.930 . S
C422 C420 1.419 . S
C422 C423 1.362 . S
C423 H413 0.930 . S
C423 C416 1.409 . S
C423 C422 1.362 . S
H424 C430 0.930 . S
H425 C433 0.930 . S
H426 C434 0.930 . S
H427 C435 0.930 . S
H428 C438 0.930 . S
H429 C439 0.930 . S
C430 H424 0.930 . S
C430 C431 1.355 1_556 S
C430 C432 1.415 . S
C431 C430 1.355 1_554 S
C431 C433 1.419 . S
C432 C430 1.415 . S
C432 C437 1.425 1_556 S
C432 C439 1.409 . S
C433 H425 0.930 . S
C433 C431 1.419 . S
C433 C434 1.362 . S
C434 H426 0.930 . S
C434 C433 1.362 . S
C434 C437 1.409 . S
C435 H427 0.930 . S
C435 C436 1.355 . S
C435 C437 1.415 . S
C436 C435 1.355 . S
C436 C438 1.419 1_554 S
C437 C432 1.425 1_554 S
C437 C434 1.409 . S
C437 C435 1.415 . S
C438 H428 0.930 . S
C438 C436 1.419 1_556 S
C438 C439 1.362 . S
C439 H429 0.930 . S
C439 C432 1.409 . S
C439 C438 1.362 . S
H440 C446 0.930 1_565 S
H441 C449 0.930 . S
H442 C450 0.930 . S
H443 C451 0.930 . S
H444 C454 0.930 . S
H445 C455 0.930 . S
C446 H440 0.930 1_545 S
C446 C447 1.355 . S
C446 C448 1.415 . S
C447 C446 1.355 . S
C447 C449 1.419 . S
C448 C446 1.415 . S
C448 C453 1.425 . S
C448 C455 1.409 1_545 S
C449 H441 0.930 . S
C449 C447 1.419 . S
C449 C450 1.362 . S
C450 H442 0.930 . S
C450 C449 1.362 . S
C450 C453 1.409 . S
C451 H443 0.930 . S
C451 C452 1.355 . S
C451 C453 1.415 . S
C452 C451 1.355 . S
C452 C454 1.419 1_545 S
C453 C448 1.425 . S
C453 C450 1.409 . S
C453 C451 1.415 . S
C454 H444 0.930 . S
C454 C452 1.419 1_565 S
C454 C455 1.362 . S
C455 H445 0.930 . S
C455 C448 1.409 1_565 S
C455 C454 1.362 . S
H456 C462 0.930 . S
H457 C465 0.930 . S
H458 C466 0.930 . S
H459 C467 0.930 . S
H460 C470 0.930 . S
H461 C471 0.930 . S
C462 H456 0.930 . S
C462 C463 1.355 . S
C462 C464 1.415 . S
C463 C462 1.355 . S
C463 C465 1.419 . S
C464 C462 1.415 . S
C464 C469 1.425 . S
C464 C471 1.409 . S
C465 H457 0.930 . S
C465 C463 1.419 . S
C465 C466 1.362 . S
C466 H458 0.930 . S
C466 C465 1.362 . S
C466 C469 1.409 . S
C467 H459 0.930 . S
C467 C468 1.355 . S
C467 C469 1.415 . S
C468 C467 1.355 . S
C468 C470 1.419 . S
C469 C464 1.425 . S
C469 C466 1.409 . S
C469 C467 1.415 . S
C470 H460 0.930 . S
C470 C468 1.419 . S
C470 C471 1.362 . S
C471 H461 0.930 . S
C471 C464 1.409 . S
C471 C470 1.362 . S
H472 C478 0.930 . S
H473 C481 0.930 . S
H474 C482 0.929 1_545 S
H475 C483 0.930 . S
H476 C486 0.930 . S
H477 C487 0.930 . S
C478 H472 0.930 . S
C478 C479 1.358 . S
C478 C480 1.415 . S
C479 C478 1.358 . S
C479 C481 1.417 1_565 S
C480 C478 1.415 . S
C480 C485 1.425 . S
C480 C487 1.409 . S
C481 H473 0.930 . S
C481 C479 1.417 1_545 S
C481 C482 1.362 1_545 S
C482 H474 0.929 1_565 S
C482 C481 1.362 1_565 S
C482 C485 1.409 . S
C483 H475 0.930 . S
C483 C484 1.355 . S
C483 C485 1.415 . S
C484 C483 1.355 . S
C484 C486 1.419 . S
C485 C480 1.425 . S
C485 C482 1.409 . S
C485 C483 1.415 . S
C486 H476 0.930 . S
C486 C484 1.419 . S
C486 C487 1.362 . S
C487 H477 0.930 . S
C487 C480 1.409 . S
C487 C486 1.362 . S
H488 C494 0.930 . S
H489 C497 0.930 . S
H490 C498 0.930 . S
H491 C499 0.930 . S
H492 C502 0.930 . S
H493 C503 0.930 . S
C494 H488 0.930 . S
C494 C495 1.355 . S
C494 C496 1.415 . S
C495 C494 1.355 . S
C495 C497 1.419 . S
C496 C494 1.415 . S
C496 C501 1.425 . S
C496 C503 1.409 . S
C497 H489 0.930 . S
C497 C495 1.419 . S
C497 C498 1.362 . S
C498 H490 0.930 . S
C498 C497 1.362 . S
C498 C501 1.409 . S
C499 H491 0.930 . S
C499 C500 1.355 . S
C499 C501 1.415 . S
C500 C499 1.355 . S
C500 C502 1.419 . S
C501 C496 1.425 . S
C501 C498 1.409 . S
C501 C499 1.415 . S
C502 H492 0.930 . S
C502 C500 1.419 . S
C502 C503 1.362 . S
C503 H493 0.930 . S
C503 C496 1.409 . S
C503 C502 1.362 . S
H504 C510 0.930 . S
H505 C513 0.930 . S
H506 C514 0.930 . S
H507 C515 0.930 . S
H508 C518 0.930 . S
H509 C519 0.930 . S
C510 H504 0.930 . S
C510 C511 1.355 . S
C510 C512 1.415 . S
C511 C510 1.355 . S
C511 C513 1.419 . S
C512 C510 1.415 . S
C512 C517 1.425 . S
C512 C519 1.409 . S
C513 H505 0.930 . S
C513 C511 1.419 . S
C513 C514 1.362 . S
C514 H506 0.930 . S
C514 C513 1.362 . S
C514 C517 1.409 . S
C515 H507 0.930 . S
C515 C516 1.355 . S
C515 C517 1.415 . S
C516 C515 1.355 . S
C516 C518 1.419 . S
C517 C512 1.425 . S
C517 C514 1.409 . S
C517 C515 1.415 . S
C518 H508 0.930 . S
C518 C516 1.419 . S
C518 C519 1.362 . S
C519 H509 0.930 . S
C519 C512 1.409 . S
C519 C518 1.362 . S
H520 C526 0.930 . S
H521 C529 0.930 . S
H522 C530 0.930 . S
H523 C531 0.930 . S
H524 C534 0.930 . S
H525 C535 0.930 . S
C526 H520 0.930 . S
C526 C527 1.355 . S
C526 C528 1.415 . S
C527 C526 1.355 . S
C527 C529 1.419 . S
C528 C526 1.415 . S
C528 C533 1.425 . S
C528 C535 1.409 . S
C529 H521 0.930 . S
C529 C527 1.419 . S
C529 C530 1.362 . S
C530 H522 0.930 . S
C530 C529 1.362 . S
C530 C533 1.409 . S
C531 H523 0.930 . S
C531 C532 1.355 . S
C531 C533 1.415 . S
C532 C531 1.355 . S
C532 C534 1.419 . S
C533 C528 1.425 . S
C533 C530 1.409 . S
C533 C531 1.415 . S
C534 H524 0.930 . S
C534 C532 1.419 . S
C534 C535 1.362 . S
C535 H525 0.930 . S
C535 C528 1.409 . S
C535 C534 1.362 . S
H536 C542 0.930 . S
H537 C545 0.930 . S
H538 C546 0.930 . S
H539 C547 0.930 . S
H540 C550 0.930 . S
H541 C551 0.930 . S
C542 H536 0.930 . S
C542 C543 1.355 . S
C542 C544 1.415 . S
C543 C542 1.355 . S
C543 C545 1.419 . S
C544 C542 1.415 . S
C544 C549 1.425 . S
C544 C551 1.409 . S
C545 H537 0.930 . S
C545 C543 1.419 . S
C545 C546 1.362 . S
C546 H538 0.930 . S
C546 C545 1.362 . S
C546 C549 1.409 . S
C547 H539 0.930 . S
C547 C548 1.355 . S
C547 C549 1.415 . S
C548 C547 1.355 . S
C548 C550 1.419 . S
C549 C544 1.425 . S
C549 C546 1.409 . S
C549 C547 1.415 . S
C550 H540 0.930 . S
C550 C548 1.419 . S
C550 C551 1.362 . S
C551 H541 0.930 . S
C551 C544 1.409 . S
C551 C550 1.362 . S
H552 C558 0.930 . S
H553 C561 0.930 . S
H554 C562 0.930 . S
H555 C563 0.930 . S
H556 C566 0.930 . S
H557 C567 0.930 . S
C558 H552 0.930 . S
C558 C559 1.355 . S
C558 C560 1.415 . S
C559 C558 1.355 . S
C559 C561 1.419 . S
C560 C558 1.415 . S
C560 C565 1.425 . S
C560 C567 1.409 . S
C561 H553 0.930 . S
C561 C559 1.419 . S
C561 C562 1.362 . S
C562 H554 0.930 . S
C562 C561 1.362 . S
C562 C565 1.409 . S
C563 H555 0.930 . S
C563 C564 1.355 . S
C563 C565 1.415 . S
C564 C563 1.355 . S
C564 C566 1.419 . S
C565 C560 1.425 . S
C565 C562 1.409 . S
C565 C563 1.415 . S
C566 H556 0.930 . S
C566 C564 1.419 . S
C566 C567 1.362 . S
C567 H557 0.930 . S
C567 C560 1.409 . S
C567 C566 1.362 . S
H568 C574 0.930 . S
H569 C577 0.930 . S
H570 C578 0.930 . S
H571 C579 0.930 . S
H572 C582 0.930 . S
H573 C583 0.930 . S
C574 H568 0.930 . S
C574 C575 1.355 . S
C574 C576 1.415 . S
C575 C574 1.355 . S
C575 C577 1.419 . S
C576 C574 1.415 . S
C576 C581 1.425 . S
C576 C583 1.409 . S
C577 H569 0.930 . S
C577 C575 1.419 . S
C577 C578 1.362 . S
C578 H570 0.930 . S
C578 C577 1.362 . S
C578 C581 1.409 . S
C579 H571 0.930 . S
C579 C580 1.355 . S
C579 C581 1.415 . S
C580 C579 1.355 . S
C580 C582 1.419 . S
C581 C576 1.425 . S
C581 C578 1.409 . S
C581 C579 1.415 . S
C582 H572 0.930 . S
C582 C580 1.419 . S
C582 C583 1.362 . S
C583 H573 0.930 . S
C583 C576 1.409 . S
C583 C582 1.362 . S
H584 C590 0.930 . S
H585 C593 0.930 . S
H586 C594 0.930 . S
H587 C595 0.930 . S
H588 C598 0.930 . S
H589 C599 0.930 . S
C590 H584 0.930 . S
C590 C591 1.355 . S
C590 C592 1.415 . S
C591 C590 1.355 . S
C591 C593 1.419 . S
C592 C590 1.415 . S
C592 C597 1.425 . S
C592 C599 1.409 . S
C593 H585 0.930 . S
C593 C591 1.419 . S
C593 C594 1.362 . S
C594 H586 0.930 . S
C594 C593 1.362 . S
C594 C597 1.409 . S
C595 H587 0.930 . S
C595 C596 1.355 . S
C595 C597 1.415 . S
C596 C595 1.355 . S
C596 C598 1.419 . S
C597 C592 1.425 . S
C597 C594 1.409 . S
C597 C595 1.415 . S
C598 H588 0.930 . S
C598 C596 1.419 . S
C598 C599 1.362 . S
C599 H589 0.930 . S
C599 C592 1.409 . S
C599 C598 1.362 . S
H600 C606 0.930 . S
H601 C609 0.930 . S
H602 C610 0.930 . S
H603 C611 0.930 . S
H604 C614 0.930 . S
H605 C615 0.930 . S
C606 H600 0.930 . S
C606 C607 1.355 . S
C606 C608 1.415 . S
C607 C606 1.355 . S
C607 C609 1.419 . S
C608 C606 1.415 . S
C608 C613 1.425 . S
C608 C615 1.409 . S
C609 H601 0.930 . S
C609 C607 1.419 . S
C609 C610 1.362 . S
C610 H602 0.930 . S
C610 C609 1.362 . S
C610 C613 1.409 . S
C611 H603 0.930 . S
C611 C612 1.355 . S
C611 C613 1.415 . S
C612 C611 1.355 . S
C612 C614 1.419 . S
C613 C608 1.425 . S
C613 C610 1.409 . S
C613 C611 1.415 . S
C614 H604 0.930 . S
C614 C612 1.419 . S
C614 C615 1.362 . S
C615 H605 0.930 . S
C615 C608 1.409 . S
C615 C614 1.362 . S
H616 C622 0.930 . S
H617 C625 0.930 . S
H618 C626 0.930 . S
H619 C627 0.930 . S
H620 C630 0.930 . S
H621 C631 0.930 . S
C622 H616 0.930 . S
C622 C623 1.355 1_655 S
C622 C624 1.415 . S
C623 C622 1.355 1_455 S
C623 C625 1.419 . S
C624 C622 1.415 . S
C624 C629 1.425 1_655 S
C624 C631 1.409 . S
C625 H617 0.930 . S
C625 C623 1.419 . S
C625 C626 1.362 . S
C626 H618 0.930 . S
C626 C625 1.362 . S
C626 C629 1.409 . S
C627 H619 0.930 . S
C627 C628 1.355 . S
C627 C629 1.415 . S
C628 C627 1.355 . S
C628 C630 1.419 1_455 S
C629 C624 1.425 1_455 S
C629 C626 1.409 . S
C629 C627 1.415 . S
C630 H620 0.930 . S
C630 C628 1.419 1_655 S
C630 C631 1.362 . S
C631 H621 0.930 . S
C631 C624 1.409 . S
C631 C630 1.362 . S
H632 C638 0.930 . S
H633 C641 0.930 . S
H634 C642 0.930 . S
H635 C643 0.930 . S
H636 C646 0.930 . S
H637 C647 0.930 . S
C638 H632 0.930 . S
C638 C639 1.355 . S
C638 C640 1.415 . S
C639 C638 1.355 . S
C639 C641 1.419 . S
C640 C638 1.415 . S
C640 C645 1.425 . S
C640 C647 1.409 . S
C641 H633 0.930 . S
C641 C639 1.419 . S
C641 C642 1.362 . S
C642 H634 0.930 . S
C642 C641 1.362 . S
C642 C645 1.409 . S
C643 H635 0.930 . S
C643 C644 1.355 . S
C643 C645 1.415 . S
C644 C643 1.355 . S
C644 C646 1.419 . S
C645 C640 1.425 . S
C645 C642 1.409 . S
C645 C643 1.415 . S
C646 H636 0.930 . S
C646 C644 1.419 . S
C646 C647 1.362 . S
C647 H637 0.930 . S
C647 C640 1.409 . S
C647 C646 1.362 . S
H648 C654 0.930 . S
H649 C657 0.930 . S
H650 C658 0.930 . S
H651 C659 0.930 . S
H652 C662 0.930 . S
H653 C663 0.930 . S
C654 H648 0.930 . S
C654 C655 1.355 . S
C654 C656 1.415 . S
C655 C654 1.355 . S
C655 C657 1.419 . S
C656 C654 1.415 . S
C656 C661 1.425 . S
C656 C663 1.409 . S
C657 H649 0.930 . S
C657 C655 1.419 . S
C657 C658 1.362 . S
C658 H650 0.930 . S
C658 C657 1.362 . S
C658 C661 1.409 . S
C659 H651 0.930 . S
C659 C660 1.355 . S
C659 C661 1.415 . S
C660 C659 1.355 . S
C660 C662 1.419 . S
C661 C656 1.425 . S
C661 C658 1.409 . S
C661 C659 1.415 . S
C662 H652 0.930 . S
C662 C660 1.419 . S
C662 C663 1.362 . S
C663 H653 0.930 . S
C663 C656 1.409 . S
C663 C662 1.362 . S
H664 C670 0.930 . S
H665 C673 0.930 . S
H666 C674 0.930 . S
H667 C675 0.930 . S
H668 C678 0.930 . S
H669 C679 0.930 . S
C670 H664 0.930 . S
C670 C671 1.355 1_556 S
C670 C672 1.415 . S
C671 C670 1.355 1_554 S
C671 C673 1.419 . S
C672 C670 1.415 . S
C672 C677 1.425 . S
C672 C679 1.409 . S
C673 H665 0.930 . S
C673 C671 1.419 . S
C673 C674 1.362 . S
C674 H666 0.930 . S
C674 C673 1.362 . S
C674 C677 1.409 1_554 S
C675 H667 0.930 . S
C675 C676 1.355 . S
C675 C677 1.415 . S
C676 C675 1.355 . S
C676 C678 1.419 . S
C677 C672 1.425 . S
C677 C674 1.409 1_556 S
C677 C675 1.415 . S
C678 H668 0.930 . S
C678 C676 1.419 . S
C678 C679 1.362 . S
C679 H669 0.930 . S
C679 C672 1.409 . S
C679 C678 1.362 . S
H680 C686 0.930 . S
H681 C689 0.930 . S
H682 C690 0.930 . S
H683 C691 0.930 . S
H684 C694 0.930 . S
H685 C695 0.930 . S
C686 H680 0.930 . S
C686 C687 1.355 . S
C686 C688 1.415 . S
C687 C686 1.355 . S
C687 C689 1.419 . S
C688 C686 1.415 . S
C688 C693 1.425 . S
C688 C695 1.409 . S
C689 H681 0.930 . S
C689 C687 1.419 . S
C689 C690 1.362 . S
C690 H682 0.930 . S
C690 C689 1.362 . S
C690 C693 1.409 . S
C691 H683 0.930 . S
C691 C692 1.355 . S
C691 C693 1.415 . S
C692 C691 1.355 . S
C692 C694 1.419 . S
C693 C688 1.425 . S
C693 C690 1.409 . S
C693 C691 1.415 . S
C694 H684 0.930 . S
C694 C692 1.419 . S
C694 C695 1.362 . S
C695 H685 0.930 . S
C695 C688 1.409 . S
C695 C694 1.362 . S
H696 C702 0.930 . S
H697 C705 0.930 . S
H698 C706 0.930 . S
H699 C707 0.930 . S
H700 C710 0.930 . S
H701 C711 0.930 . S
C702 H696 0.930 . S
C702 C703 1.355 . S
C702 C704 1.415 . S
C703 C702 1.355 . S
C703 C705 1.419 . S
C704 C702 1.415 . S
C704 C709 1.425 . S
C704 C711 1.409 . S
C705 H697 0.930 . S
C705 C703 1.419 . S
C705 C706 1.362 . S
C706 H698 0.930 . S
C706 C705 1.362 . S
C706 C709 1.409 . S
C707 H699 0.930 . S
C707 C708 1.355 . S
C707 C709 1.415 . S
C708 C707 1.355 . S
C708 C710 1.419 . S
C709 C704 1.425 . S
C709 C706 1.409 . S
C709 C707 1.415 . S
C710 H700 0.930 . S
C710 C708 1.419 . S
C710 C711 1.362 . S
C711 H701 0.930 . S
C711 C704 1.409 . S
C711 C710 1.362 . S
H712 C718 0.930 . S
H713 C721 0.930 . S
H714 C722 0.930 . S
H715 C723 0.930 . S
H716 C726 0.930 . S
H717 C727 0.930 . S
C718 H712 0.930 . S
C718 C719 1.355 . S
C718 C720 1.415 . S
C719 C718 1.355 . S
C719 C721 1.419 . S
C720 C718 1.415 . S
C720 C725 1.425 . S
C720 C727 1.409 . S
C721 H713 0.930 . S
C721 C719 1.419 . S
C721 C722 1.362 . S
C722 H714 0.930 . S
C722 C721 1.362 . S
C722 C725 1.409 . S
C723 H715 0.930 . S
C723 C724 1.355 . S
C723 C725 1.415 . S
C724 C723 1.355 . S
C724 C726 1.419 . S
C725 C720 1.425 . S
C725 C722 1.409 . S
C725 C723 1.415 . S
C726 H716 0.930 . S
C726 C724 1.419 . S
C726 C727 1.362 . S
C727 H717 0.930 . S
C727 C720 1.409 . S
C727 C726 1.362 . S
H728 C734 0.930 . S
H729 C737 0.930 . S
H730 C738 0.930 . S
H731 C739 0.930 . S
H732 C742 0.930 . S
H733 C743 0.930 . S
C734 H728 0.930 . S
C734 C735 1.355 . S
C734 C736 1.415 . S
C735 C734 1.355 . S
C735 C737 1.419 . S
C736 C734 1.415 . S
C736 C741 1.425 . S
C736 C743 1.409 . S
C737 H729 0.930 . S
C737 C735 1.419 . S
C737 C738 1.362 . S
C738 H730 0.930 . S
C738 C737 1.362 . S
C738 C741 1.409 . S
C739 H731 0.930 . S
C739 C740 1.355 . S
C739 C741 1.415 . S
C740 C739 1.355 . S
C740 C742 1.419 . S
C741 C736 1.425 . S
C741 C738 1.409 . S
C741 C739 1.415 . S
C742 H732 0.930 . S
C742 C740 1.419 . S
C742 C743 1.362 . S
C743 H733 0.930 . S
C743 C736 1.409 . S
C743 C742 1.362 . S
H744 C750 0.930 . S
H745 C753 0.930 . S
H746 C754 0.930 . S
H747 C755 0.930 . S
H748 C758 0.930 . S
H749 C759 0.930 . S
C750 H744 0.930 . S
C750 C751 1.355 . S
C750 C752 1.415 . S
C751 C750 1.355 . S
C751 C753 1.419 . S
C752 C750 1.415 . S
C752 C757 1.425 . S
C752 C759 1.409 . S
C753 H745 0.930 . S
C753 C751 1.419 . S
C753 C754 1.362 . S
C754 H746 0.930 . S
C754 C753 1.362 . S
C754 C757 1.409 . S
C755 H747 0.930 . S
C755 C756 1.355 . S
C755 C757 1.415 . S
C756 C755 1.355 . S
C756 C758 1.419 . S
C757 C752 1.425 . S
C757 C754 1.409 . S
C757 C755 1.415 . S
C758 H748 0.930 . S
C758 C756 1.419 . S
C758 C759 1.362 . S
C759 H749 0.930 . S
C759 C752 1.409 . S
C759 C758 1.362 . S
H760 C766 0.930 . S
H761 C769 0.930 . S
H762 C770 0.930 . S
H763 C771 0.930 . S
H764 C774 0.930 . S
H765 C775 0.930 . S
C766 H760 0.930 . S
C766 C767 1.355 . S
C766 C768 1.415 . S
C767 C766 1.355 . S
C767 C769 1.419 . S
C768 C766 1.415 . S
C768 C773 1.425 . S
C768 C775 1.409 . S
C769 H761 0.930 . S
C769 C767 1.419 . S
C769 C770 1.362 . S
C770 H762 0.930 . S
C770 C769 1.362 . S
C770 C773 1.409 . S
C771 H763 0.930 . S
C771 C772 1.355 . S
C771 C773 1.415 . S
C772 C771 1.355 . S
C772 C774 1.419 . S
C773 C768 1.425 . S
C773 C770 1.409 . S
C773 C771 1.415 . S
C774 H764 0.930 . S
C774 C772 1.419 . S
C774 C775 1.362 . S
C775 H765 0.930 . S
C775 C768 1.409 . S
C775 C774 1.362 . S
H776 C782 0.930 . S
H777 C785 0.930 . S
H778 C786 0.930 . S
H779 C787 0.930 . S
H780 C790 0.930 . S
H781 C791 0.930 . S
C782 H776 0.930 . S
C782 C783 1.355 . S
C782 C784 1.415 . S
C783 C782 1.355 . S
C783 C785 1.419 . S
C784 C782 1.415 . S
C784 C789 1.425 . S
C784 C791 1.409 . S
C785 H777 0.930 . S
C785 C783 1.419 . S
C785 C786 1.362 . S
C786 H778 0.930 . S
C786 C785 1.362 . S
C786 C789 1.409 . S
C787 H779 0.930 . S
C787 C788 1.355 . S
C787 C789 1.415 . S
C788 C787 1.355 . S
C788 C790 1.419 . S
C789 C784 1.425 . S
C789 C786 1.409 . S
C789 C787 1.415 . S
C790 H780 0.930 . S
C790 C788 1.419 . S
C790 C791 1.362 . S
C791 H781 0.930 . S
C791 C784 1.409 . S
C791 C790 1.362 . S
H792 C798 0.930 . S
H793 C801 0.930 . S
H794 C802 0.930 . S
H795 C803 0.930 . S
H796 C806 0.930 . S
H797 C807 0.930 . S
C798 H792 0.930 . S
C798 C799 1.355 . S
C798 C800 1.415 . S
C799 C798 1.355 . S
C799 C801 1.419 . S
C800 C798 1.415 . S
C800 C805 1.425 . S
C800 C807 1.409 . S
C801 H793 0.930 . S
C801 C799 1.419 . S
C801 C802 1.362 . S
C802 H794 0.930 . S
C802 C801 1.362 . S
C802 C805 1.409 . S
C803 H795 0.930 . S
C803 C804 1.355 . S
C803 C805 1.415 . S
C804 C803 1.355 . S
C804 C806 1.419 . S
C805 C800 1.425 . S
C805 C802 1.409 . S
C805 C803 1.415 . S
C806 H796 0.930 . S
C806 C804 1.419 . S
C806 C807 1.362 . S
C807 H797 0.930 . S
C807 C800 1.409 . S
C807 C806 1.362 . S
H808 C814 0.930 . S
H809 C817 0.930 . S
H810 C818 0.930 . S
H811 C819 0.930 . S
H812 C822 0.930 . S
H813 C823 0.930 . S
C814 H808 0.930 . S
C814 C815 1.355 . S
C814 C816 1.415 . S
C815 C814 1.355 . S
C815 C817 1.419 . S
C816 C814 1.415 . S
C816 C821 1.425 . S
C816 C823 1.409 . S
C817 H809 0.930 . S
C817 C815 1.419 . S
C817 C818 1.362 . S
C818 H810 0.930 . S
C818 C817 1.362 . S
C818 C821 1.409 . S
C819 H811 0.930 . S
C819 C820 1.355 . S
C819 C821 1.415 . S
C820 C819 1.355 . S
C820 C822 1.419 . S
C821 C816 1.425 . S
C821 C818 1.409 . S
C821 C819 1.415 . S
C822 H812 0.930 . S
C822 C820 1.419 . S
C822 C823 1.362 . S
C823 H813 0.930 . S
C823 C816 1.409 . S
C823 C822 1.362 . S
H824 C830 0.930 . S
H825 C833 0.930 . S
H826 C834 0.930 . S
H827 C835 0.930 . S
H828 C838 0.930 . S
H829 C839 0.930 . S
C830 H824 0.930 . S
C830 C831 1.355 . S
C830 C832 1.415 . S
C831 C830 1.355 . S
C831 C833 1.419 . S
C832 C830 1.415 . S
C832 C837 1.425 . S
C832 C839 1.409 . S
C833 H825 0.930 . S
C833 C831 1.419 . S
C833 C834 1.362 . S
C834 H826 0.930 . S
C834 C833 1.362 . S
C834 C837 1.409 . S
C835 H827 0.930 . S
C835 C836 1.355 . S
C835 C837 1.415 . S
C836 C835 1.355 . S
C836 C838 1.419 . S
C837 C832 1.425 . S
C837 C834 1.409 . S
C837 C835 1.415 . S
C838 H828 0.930 . S
C838 C836 1.419 . S
C838 C839 1.362 . S
C839 H829 0.930 . S
C839 C832 1.409 . S
C839 C838 1.362 . S
H840 C846 0.930 . S
H841 C849 0.930 . S
H842 C850 0.930 . S
H843 C851 0.930 . S
H844 C854 0.930 . S
H845 C855 0.930 . S
C846 H840 0.930 . S
C846 C847 1.355 . S
C846 C848 1.415 . S
C847 C846 1.355 . S
C847 C849 1.419 . S
C848 C846 1.415 . S
C848 C853 1.425 . S
C848 C855 1.409 . S
C849 H841 0.930 . S
C849 C847 1.419 . S
C849 C850 1.362 . S
C850 H842 0.930 . S
C850 C849 1.362 . S
C850 C853 1.409 . S
C851 H843 0.930 . S
C851 C852 1.355 . S
C851 C853 1.415 . S
C852 C851 1.355 . S
C852 C854 1.419 . S
C853 C848 1.425 . S
C853 C850 1.409 . S
C853 C851 1.415 . S
C854 H844 0.930 . S
C854 C852 1.419 . S
C854 C855 1.362 . S
C855 H845 0.930 . S
C855 C848 1.409 . S
C855 C854 1.362 . S
H856 C862 0.930 . S
H857 C865 0.930 . S
H858 C866 0.930 . S
H859 C867 0.930 . S
H860 C870 0.930 . S
H861 C871 0.930 . S
C862 H856 0.930 . S
C862 C863 1.355 . S
C862 C864 1.415 . S
C863 C862 1.355 . S
C863 C865 1.419 . S
C864 C862 1.415 . S
C864 C869 1.425 . S
C864 C871 1.409 . S
C865 H857 0.930 . S
C865 C863 1.419 . S
C865 C866 1.362 . S
C866 H858 0.930 . S
C866 C865 1.362 . S
C866 C869 1.409 . S
C867 H859 0.930 . S
C867 C868 1.355 . S
C867 C869 1.415 . S
C868 C867 1.355 . S
C868 C870 1.419 . S
C869 C864 1.425 . S
C869 C866 1.409 . S
C869 C867 1.415 . S
C870 H860 0.930 . S
C870 C868 1.419 . S
C870 C871 1.362 . S
C871 H861 0.930 . S
C871 C864 1.409 . S
C871 C870 1.362 . S
H872 C878 0.930 . S
H873 C881 0.930 . S
H874 C882 0.930 . S
H875 C883 0.930 . S
H876 C886 0.930 . S
H877 C887 0.930 . S
C878 H872 0.930 . S
C878 C879 1.355 . S
C878 C880 1.415 . S
C879 C878 1.355 . S
C879 C881 1.419 . S
C880 C878 1.415 . S
C880 C885 1.425 . S
C880 C887 1.409 . S
C881 H873 0.930 . S
C881 C879 1.419 . S
C881 C882 1.362 . S
C882 H874 0.930 . S
C882 C881 1.362 . S
C882 C885 1.409 . S
C883 H875 0.930 . S
C883 C884 1.355 . S
C883 C885 1.415 . S
C884 C883 1.355 . S
C884 C886 1.419 . S
C885 C880 1.425 . S
C885 C882 1.409 . S
C885 C883 1.415 . S
C886 H876 0.930 . S
C886 C884 1.419 . S
C886 C887 1.362 . S
C887 H877 0.930 . S
C887 C880 1.409 . S
C887 C886 1.362 . S
H888 C894 0.930 . S
H889 C897 0.930 . S
H890 C898 0.930 . S
H891 C899 0.930 . S
H892 C902 0.930 . S
H893 C903 0.930 . S
C894 H888 0.930 . S
C894 C895 1.355 . S
C894 C896 1.415 . S
C895 C894 1.355 . S
C895 C897 1.419 . S
C896 C894 1.415 . S
C896 C901 1.425 . S
C896 C903 1.409 . S
C897 H889 0.930 . S
C897 C895 1.419 . S
C897 C898 1.362 . S
C898 H890 0.930 . S
C898 C897 1.362 . S
C898 C901 1.409 . S
C899 H891 0.930 . S
C899 C900 1.355 . S
C899 C901 1.415 . S
C900 C899 1.355 . S
C900 C902 1.419 . S
C901 C896 1.425 . S
C901 C898 1.409 . S
C901 C899 1.415 . S
C902 H892 0.930 . S
C902 C900 1.419 . S
C902 C903 1.362 . S
C903 H893 0.930 . S
C903 C896 1.409 . S
C903 C902 1.362 . S
H904 C910 0.930 . S
H905 C913 0.908 1_455 S
H906 C914 0.930 . S
H907 C915 0.930 . S
H908 C918 0.930 . S
H909 C919 0.930 . S
C910 H904 0.930 . S
C910 C911 1.355 . S
C910 C912 1.415 . S
C911 C910 1.355 . S
C911 C913 1.419 . S
C912 C910 1.415 . S
C912 C917 1.425 . S
C912 C919 1.409 . S
C913 H905 0.908 1_655 S
C913 C911 1.419 . S
C913 C914 1.362 . S
C914 H906 0.930 . S
C914 C913 1.362 . S
C914 C917 1.409 . S
C915 H907 0.930 . S
C915 C916 1.355 . S
C915 C917 1.415 . S
C916 C915 1.355 . S
C916 C918 1.419 . S
C917 C912 1.425 . S
C917 C914 1.409 . S
C917 C915 1.415 . S
C918 H908 0.930 . S
C918 C916 1.419 . S
C918 C919 1.362 . S
C919 H909 0.930 . S
C919 C912 1.409 . S
C919 C918 1.362 . S
H920 C926 0.930 . S
H921 C929 0.930 . S
H922 C930 0.930 . S
H923 C931 0.930 . S
H924 C934 0.930 . S
H925 C935 0.930 . S
C926 H920 0.930 . S
C926 C927 1.355 . S
C926 C928 1.415 . S
C927 C926 1.355 . S
C927 C929 1.419 . S
C928 C926 1.415 . S
C928 C933 1.425 . S
C928 C935 1.409 . S
C929 H921 0.930 . S
C929 C927 1.419 . S
C929 C930 1.362 . S
C930 H922 0.930 . S
C930 C929 1.362 . S
C930 C933 1.409 . S
C931 H923 0.930 . S
C931 C932 1.355 . S
C931 C933 1.415 . S
C932 C931 1.355 . S
C932 C934 1.419 . S
C933 C928 1.425 . S
C933 C930 1.409 . S
C933 C931 1.415 . S
C934 H924 0.930 . S
C934 C932 1.419 . S
C934 C935 1.362 . S
C935 H925 0.930 . S
C935 C928 1.409 . S
C935 C934 1.362 . S
H936 C942 0.930 . S
H937 C945 0.930 . S
H938 C946 0.930 . S
H939 C947 0.930 . S
H940 C950 0.930 . S
H941 C951 0.930 . S
C942 H936 0.930 . S
C942 C943 1.355 . S
C942 C944 1.415 . S
C943 C942 1.355 . S
C943 C945 1.419 . S
C944 C942 1.415 . S
C944 C949 1.425 . S
C944 C951 1.409 . S
C945 H937 0.930 . S
C945 C943 1.419 . S
C945 C946 1.362 . S
C946 H938 0.930 . S
C946 C945 1.362 . S
C946 C949 1.409 . S
C947 H939 0.930 . S
C947 C948 1.355 . S
C947 C949 1.415 . S
C948 C947 1.355 . S
C948 C950 1.419 . S
C949 C944 1.425 . S
C949 C946 1.409 . S
C949 C947 1.415 . S
C950 H940 0.930 . S
C950 C948 1.419 . S
C950 C951 1.362 . S
C951 H941 0.930 . S
C951 C944 1.409 . S
C951 C950 1.362 . S
H952 C958 0.930 . S
H953 C961 0.930 . S
H954 C962 0.930 . S
H955 C963 0.930 . S
H956 C966 0.930 1_455 S
H957 C967 0.930 . S
C958 H952 0.930 . S
C958 C959 1.355 . S
C958 C960 1.415 . S
C959 C958 1.355 . S
C959 C961 1.419 . S
C960 C958 1.415 . S
C960 C965 1.425 . S
C960 C967 1.409 . S
C961 H953 0.930 . S
C961 C959 1.419 . S
C961 C962 1.362 . S
C962 H954 0.930 . S
C962 C961 1.362 . S
C962 C965 1.409 . S
C963 H955 0.930 . S
C963 C964 1.355 . S
C963 C965 1.415 . S
C964 C963 1.355 . S
C964 C966 1.419 . S
C965 C960 1.425 . S
C965 C962 1.409 . S
C965 C963 1.415 . S
C966 H956 0.930 1_655 S
C966 C964 1.419 . S
C966 C967 1.362 . S
C967 H957 0.930 . S
C967 C960 1.409 . S
C967 C966 1.362 . S
H968 C974 0.930 . S
H969 C977 0.930 . S
H970 C978 0.930 . S
H971 C979 0.930 . S
H972 C982 0.930 . S
H973 C983 0.930 . S
C974 H968 0.930 . S
C974 C975 1.355 . S
C974 C976 1.415 . S
C975 C974 1.355 . S
C975 C977 1.419 . S
C976 C974 1.415 . S
C976 C981 1.425 . S
C976 C983 1.409 . S
C977 H969 0.930 . S
C977 C975 1.419 . S
C977 C978 1.362 . S
C978 H970 0.930 . S
C978 C977 1.362 . S
C978 C981 1.409 . S
C979 H971 0.930 . S
C979 C980 1.355 . S
C979 C981 1.415 . S
C980 C979 1.355 . S
C980 C982 1.419 . S
C981 C976 1.425 . S
C981 C978 1.409 . S
C981 C979 1.415 . S
C982 H972 0.930 . S
C982 C980 1.419 . S
C982 C983 1.362 . S
C983 H973 0.930 . S
C983 C976 1.409 . S
C983 C982 1.362 . S
H984 C990 0.930 . S
H985 C993 0.930 . S
H986 C994 0.930 . S
H987 C995 0.930 . S
H988 C998 0.930 . S
H989 C999 0.930 . S
C990 H984 0.930 . S
C990 C991 1.355 . S
C990 C992 1.415 . S
C991 C990 1.355 . S
C991 C993 1.419 . S
C992 C990 1.415 . S
C992 C997 1.425 . S
C992 C999 1.409 . S
C993 H985 0.930 . S
C993 C991 1.419 . S
C993 C994 1.362 . S
C994 H986 0.930 . S
C994 C993 1.362 . S
C994 C997 1.409 . S
C995 H987 0.930 . S
C995 C996 1.355 . S
C995 C997 1.415 . S
C996 C995 1.355 . S
C996 C998 1.419 . S
C997 C992 1.425 . S
C997 C994 1.409 . S
C997 C995 1.415 . S
C998 H988 0.930 . S
C998 C996 1.419 . S
C998 C999 1.362 . S
C999 H989 0.930 . S
C999 C992 1.409 . S
C999 C998 1.362 . S
H1000 C1006 0.930 . S
H1001 C1009 0.930 . S
H1002 C1010 0.930 . S
H1003 C1011 0.930 . S
H1004 C1014 0.930 . S
H1005 C1015 0.930 . S
C1006 H1000 0.930 . S
C1006 C1007 1.355 . S
C1006 C1008 1.415 . S
C1007 C1006 1.355 . S
C1007 C1009 1.419 . S
C1008 C1006 1.415 . S
C1008 C1013 1.425 . S
C1008 C1015 1.409 . S
C1009 H1001 0.930 . S
C1009 C1007 1.419 . S
C1009 C1010 1.362 . S
C1010 H1002 0.930 . S
C1010 C1009 1.362 . S
C1010 C1013 1.409 . S
C1011 H1003 0.930 . S
C1011 C1012 1.355 . S
C1011 C1013 1.415 . S
C1012 C1011 1.355 . S
C1012 C1014 1.419 . S
C1013 C1008 1.425 . S
C1013 C1010 1.409 . S
C1013 C1011 1.415 . S
C1014 H1004 0.930 . S
C1014 C1012 1.419 . S
C1014 C1015 1.362 . S
C1015 H1005 0.930 . S
C1015 C1008 1.409 . S
C1015 C1014 1.362 . S
H1016 C1022 0.930 . S
H1017 C1025 0.930 . S
H1018 C1026 0.930 . S
H1019 C1027 0.930 . S
H1020 C1030 0.930 . S
H1021 C1031 0.930 . S
C1022 H1016 0.930 . S
C1022 C1023 1.355 . S
C1022 C1024 1.415 . S
C1023 C1022 1.355 . S
C1023 C1025 1.419 . S
C1024 C1022 1.415 . S
C1024 C1029 1.425 . S
C1024 C1031 1.409 . S
C1025 H1017 0.930 . S
C1025 C1023 1.419 . S
C1025 C1026 1.362 . S
C1026 H1018 0.930 . S
C1026 C1025 1.362 . S
C1026 C1029 1.409 . S
C1027 H1019 0.930 . S
C1027 C1028 1.355 . S
C1027 C1029 1.415 . S
C1028 C1027 1.355 . S
C1028 C1030 1.419 . S
C1029 C1024 1.425 . S
C1029 C1026 1.409 . S
C1029 C1027 1.415 . S
C1030 H1020 0.930 . S
C1030 C1028 1.419 . S
C1030 C1031 1.362 . S
C1031 H1021 0.930 . S
C1031 C1024 1.409 . S
C1031 C1030 1.362 . S
H1032 C1038 0.930 . S
H1033 C1041 0.930 . S
H1034 C1042 0.930 . S
H1035 C1043 0.930 . S
H1036 C1046 0.930 . S
H1037 C1047 0.930 . S
C1038 H1032 0.930 . S
C1038 C1039 1.355 . S
C1038 C1040 1.415 . S
C1039 C1038 1.355 . S
C1039 C1041 1.419 . S
C1040 C1038 1.415 . S
C1040 C1045 1.425 . S
C1040 C1047 1.409 . S
C1041 H1033 0.930 . S
C1041 C1039 1.419 . S
C1041 C1042 1.362 . S
C1042 H1034 0.930 . S
C1042 C1041 1.362 . S
C1042 C1045 1.409 . S
C1043 H1035 0.930 . S
C1043 C1044 1.355 . S
C1043 C1045 1.415 . S
C1044 C1043 1.355 . S
C1044 C1046 1.419 . S
C1045 C1040 1.425 . S
C1045 C1042 1.409 . S
C1045 C1043 1.415 . S
C1046 H1036 0.930 . S
C1046 C1044 1.419 . S
C1046 C1047 1.362 . S
C1047 H1037 0.930 . S
C1047 C1040 1.409 . S
C1047 C1046 1.362 . S
H1048 C1054 0.930 . S
H1049 C1057 0.930 . S
H1050 C1058 0.930 . S
H1051 C1059 0.930 . S
H1052 C1062 0.930 . S
H1053 C1063 0.930 . S
C1054 H1048 0.930 . S
C1054 C1055 1.355 . S
C1054 C1056 1.415 . S
C1055 C1054 1.355 . S
C1055 C1057 1.419 . S
C1056 C1054 1.415 . S
C1056 C1061 1.425 . S
C1056 C1063 1.409 . S
C1057 H1049 0.930 . S
C1057 C1055 1.419 . S
C1057 C1058 1.362 . S
C1058 H1050 0.930 . S
C1058 C1057 1.362 . S
C1058 C1061 1.409 . S
C1059 H1051 0.930 . S
C1059 C1060 1.355 . S
C1059 C1061 1.415 . S
C1060 C1059 1.355 . S
C1060 C1062 1.419 . S
C1061 C1056 1.425 . S
C1061 C1058 1.409 . S
C1061 C1059 1.415 . S
C1062 H1052 0.930 . S
C1062 C1060 1.419 . S
C1062 C1063 1.362 . S
C1063 H1053 0.930 . S
C1063 C1056 1.409 . S
C1063 C1062 1.362 . S
H1064 C1070 0.930 . S
H1065 C1073 0.930 . S
H1066 C1074 0.930 . S
H1067 C1075 0.930 . S
H1068 C1078 0.930 . S
H1069 C1079 0.930 . S
C1070 H1064 0.930 . S
C1070 C1071 1.355 . S
C1070 C1072 1.415 . S
C1071 C1070 1.355 . S
C1071 C1073 1.419 . S
C1072 C1070 1.415 . S
C1072 C1077 1.425 . S
C1072 C1079 1.409 . S
C1073 H1065 0.930 . S
C1073 C1071 1.419 . S
C1073 C1074 1.362 . S
C1074 H1066 0.930 . S
C1074 C1073 1.362 . S
C1074 C1077 1.409 . S
C1075 H1067 0.930 . S
C1075 C1076 1.355 . S
C1075 C1077 1.415 . S
C1076 C1075 1.355 . S
C1076 C1078 1.419 . S
C1077 C1072 1.425 . S
C1077 C1074 1.409 . S
C1077 C1075 1.415 . S
C1078 H1068 0.930 . S
C1078 C1076 1.419 . S
C1078 C1079 1.362 . S
C1079 H1069 0.930 . S
C1079 C1072 1.409 . S
C1079 C1078 1.362 . S
C319 C92 1.430 . S
C324 C10 1.442 . S
C335 C23 0.786 . S
C340 C62 0.778 1_655 S
C351 C66 1.395 . S
C356 C36 1.372 . S
C367 C49 1.182 . S
C372 C88 1.188 . S
C383 C105 1.346 . S
C388 C1 1.462 . S
C399 C14 1.113 . S
C404 C127 1.188 . S
C415 C131 1.378 . S
C420 C27 1.528 . S
C431 C153 0.735 . S
C436 C40 0.718 . S
C447 C53 0.726 . S
C452 C118 0.659 . S
C463 C75 1.229 . S
C468 C140 1.229 . S
C479 C144 0.724 1_565 S
C484 C79 0.750 . S
C495 C114 1.440 . S
C500 C101 1.417 . S
C511 C283 1.508 . S
C516 C166 1.547 . S
C527 C170 1.187 . S
C532 C287 1.216 . S
C543 C192 1.377 . S
C548 C309 1.345 . S
C559 C300 1.134 . S
C564 C196 1.234 . S
C575 C209 1.385 . S
C580 C274 1.337 . S
C591 C257 1.030 . S
C596 C231 0.978 . S
C607 C157 1.289 . S
C612 C218 1.204 . S
C623 C179 0.719 1_455 S
C628 C244 0.665 . S
C639 C183 1.535 . S
C644 C205 1.484 . S
C655 C222 1.012 . S
C660 C261 1.005 . S
C671 C235 0.867 . S
C676 C296 0.833 . S
C687 C270 1.019 . S
C692 C248 1.028 . S
C703 C57 2.706 . S
C708 C5 2.678 . S
C719 C68 1.365 . S
C724 C18 1.285 . S
C735 C83 2.891 . S
C740 C31 2.858 . S
C751 C94 2.185 . S
C756 C44 2.196 . S
C767 C107 2.460 . S
C772 C146 2.613 . S
C783 C122 2.196 . S
C788 C109 2.158 . S
C799 C133 2.047 . S
C804 C120 2.218 . S
C815 C135 1.066 . S
C820 C148 1.012 . S
C831 C237 2.633 . S
C836 C96 2.688 . S
C847 C161 2.338 . S
C852 C42 2.257 . S
C863 C3 2.190 . S
C868 C172 2.087 . S
C879 C16 2.792 . S
C884 C187 2.868 . S
C895 C70 2.255 . S
C900 C250 2.223 . S
C911 C55 0.947 . S
C916 C198 1.008 . S
C927 C81 1.203 . S
C932 C211 1.343 . S
C943 C213 2.260 . S
C948 C226 2.212 . S
C959 C159 1.088 . S
C964 C239 1.099 . S
C975 C200 2.292 . S
C980 C174 2.326 . S
C991 C252 2.628 . S
C996 C185 2.556 . S
C1007 C263 2.162 . S
C1012 C302 1.979 . S
C1023 C265 2.604 . S
C1028 C278 2.537 . S
C1039 C289 2.810 . S
C1044 C276 2.699 . S
C1055 C304 1.335 . S
C1060 C291 1.293 . S
C1071 C29 2.550 . S
C1076 C224 2.399 . S
