# Generated by pormake.
# Topology ske, (6)-cn, num edge types: 1
# Building blocks:
#     Node 0, Type 0, BuildingBlock: KUMBUR_clean_sbu_0, # of connection points: 6
#     Node 1, Type 0, BuildingBlock: KUMBUR_clean_sbu_0, # of connection points: 6
#     Node 2, Type 0, BuildingBlock: KUMBUR_clean_sbu_0, # of connection points: 6
#     Node 3, Type 0, BuildingBlock: KUMBUR_clean_sbu_0, # of connection points: 6
#     Node 4, Type 0, BuildingBlock: KUMBUR_clean_sbu_0, # of connection points: 6
#     Node 5, Type 0, BuildingBlock: KUMBUR_clean_sbu_0, # of connection points: 6
#     Node 6, Type 0, BuildingBlock: KUMBUR_clean_sbu_0, # of connection points: 6
#     Node 7, Type 0, BuildingBlock: KUMBUR_clean_sbu_0, # of connection points: 6
#     Edge 8, Type (0, 0), BuildingBlock: AJUNOK_clean_linker_0, # of connection points: 2
#     Edge 9, Type (0, 0), BuildingBlock: AJUNOK_clean_linker_0, # of connection points: 2
#     Edge 10, Type (0, 0), BuildingBlock: AJUNOK_clean_linker_0, # of connection points: 2
#     Edge 11, Type (0, 0), BuildingBlock: AJUNOK_clean_linker_0, # of connection points: 2
#     Edge 12, Type (0, 0), BuildingBlock: AJUNOK_clean_linker_0, # of connection points: 2
#     Edge 13, Type (0, 0), BuildingBlock: AJUNOK_clean_linker_0, # of connection points: 2
#     Edge 14, Type (0, 0), BuildingBlock: AJUNOK_clean_linker_0, # of connection points: 2
#     Edge 15, Type (0, 0), BuildingBlock: AJUNOK_clean_linker_0, # of connection points: 2
#     Edge 16, Type (0, 0), BuildingBlock: AJUNOK_clean_linker_0, # of connection points: 2
#     Edge 17, Type (0, 0), BuildingBlock: AJUNOK_clean_linker_0, # of connection points: 2
#     Edge 18, Type (0, 0), BuildingBlock: AJUNOK_clean_linker_0, # of connection points: 2
#     Edge 19, Type (0, 0), BuildingBlock: AJUNOK_clean_linker_0, # of connection points: 2
#     Edge 20, Type (0, 0), BuildingBlock: AJUNOK_clean_linker_0, # of connection points: 2
#     Edge 21, Type (0, 0), BuildingBlock: AJUNOK_clean_linker_0, # of connection points: 2
#     Edge 22, Type (0, 0), BuildingBlock: AJUNOK_clean_linker_0, # of connection points: 2
#     Edge 23, Type (0, 0), BuildingBlock: AJUNOK_clean_linker_0, # of connection points: 2
#     Edge 24, Type (0, 0), BuildingBlock: AJUNOK_clean_linker_0, # of connection points: 2
#     Edge 25, Type (0, 0), BuildingBlock: AJUNOK_clean_linker_0, # of connection points: 2
#     Edge 26, Type (0, 0), BuildingBlock: AJUNOK_clean_linker_0, # of connection points: 2
#     Edge 27, Type (0, 0), BuildingBlock: AJUNOK_clean_linker_0, # of connection points: 2
#     Edge 28, Type (0, 0), BuildingBlock: AJUNOK_clean_linker_0, # of connection points: 2
#     Edge 29, Type (0, 0), BuildingBlock: AJUNOK_clean_linker_0, # of connection points: 2
#     Edge 30, Type (0, 0), BuildingBlock: AJUNOK_clean_linker_0, # of connection points: 2
#     Edge 31, Type (0, 0), BuildingBlock: AJUNOK_clean_linker_0, # of connection points: 2
# Relax obj value: 0.112
# Max RMSD: 0.194
# Mean RMSD: 0.189
data_MOF--net-ske--node1-KUMBUR_clean_sbu_0--edge1-AJUNOK_clean_linker_0
_symmetry_space_group_name_H-M    P1
_symmetry_Int_Tables_number       1
_symmetry_cell_setting            triclinic
loop_
_symmetry_equiv_pos_as_xyz
'x, y, z'
_cell_length_a     82.449856
_cell_length_b     22.221853
_cell_length_c     10.782954
_cell_angle_alpha  89.812483
_cell_angle_beta   90.370286
_cell_angle_gamma 114.63736
loop_
_atom_site_label
_atom_site_type_symbol
_atom_site_fract_x
_atom_site_fract_y
_atom_site_fract_z
_atom_type_partial_charge
Tb0 Tb 0.11472 0.19902 0.56952 0.0
C1 C 0.18585 0.42146 0.42997 0.0
C2 C 0.19213 0.40234 0.21877 0.0
C3 C 0.20314 0.51488 0.29813 0.0
C4 C 0.18391 0.37845 0.33377 0.0
C5 C 0.19545 0.49025 0.41386 0.0
C6 C 0.20153 0.47094 0.20078 0.0
C7 C 0.18931 0.50451 0.62792 0.0
N8 N 0.17812 0.39533 0.53979 0.0
C9 C 0.17999 0.43578 0.63942 0.0
C10 C 0.19703 0.53194 0.51456 0.0
Tb11 Tb 0.1628 0.28204 0.54898 0.0
N12 N 0.17487 0.3127 0.35586 0.0
C13 C 0.17465 0.26775 0.2691 0.0
C14 C 0.19113 0.35645 0.12713 0.0
C15 C 0.18257 0.28881 0.15314 0.0
H16 H 0.17389 0.41548 0.72703 0.0
H17 H 0.18196 0.25283 0.08374 0.0
H18 H 0.20784 0.4904 0.11279 0.0
H19 H 0.19048 0.53632 0.70644 0.0
H20 H 0.16801 0.2154 0.28804 0.0
H21 H 0.09634 0.22705 0.03796 0.0
H22 H 0.19724 0.37265 0.03733 0.0
H23 H 0.1033 0.06585 0.38846 0.0
H24 H 0.11054 0.26528 0.83428 0.0
H25 H 0.08583 0.9455 0.40619 0.0
H26 H 0.21055 0.56762 0.28354 0.0
H27 H 0.07976 0.10718 0.07921 0.0
H28 H 0.06816 0.99008 0.99964 0.0
H29 H 0.20423 0.58518 0.50596 0.0
H30 H 0.06513 0.91352 0.82722 0.0
N31 N 0.10261 0.16805 0.76241 0.0
C32 C 0.10341 0.21279 0.85158 0.0
C33 C 0.08597 0.12369 0.98978 0.0
C34 C 0.08447 0.07823 0.89605 0.0
C35 C 0.0953 0.19136 0.96683 0.0
C36 C 0.0929 0.10241 0.78171 0.0
H37 H 0.07155 0.89647 0.60507 0.0
N38 N 0.09921 0.08576 0.57634 0.0
C39 C 0.0872 0.97707 0.48542 0.0
C40 C 0.09106 0.05963 0.68506 0.0
C41 C 0.09704 0.0456 0.47563 0.0
C42 C 0.07918 0.94956 0.5979 0.0
C43 C 0.08096 0.99098 0.69939 0.0
O44 O 0.09444 0.18952 0.44157 0.0
O45 O 0.13776 0.24031 0.44443 0.0
O46 O 0.15123 0.35077 0.49619 0.0
O47 O 0.12551 0.30571 0.61309 0.0
O48 O 0.11441 0.18416 0.3646 0.0
O49 O 0.09644 0.2404 0.61329 0.0
O50 O 0.18513 0.3011 0.66502 0.0
O51 O 0.13978 0.24156 0.67464 0.0
O52 O 0.12598 0.12806 0.61318 0.0
O53 O 0.15199 0.17627 0.499 0.0
O54 O 0.16317 0.29659 0.75406 0.0
O55 O 0.17879 0.23001 0.51809 0.0
C56 C 0.13077 0.21957 0.33636 0.0
C57 C 0.06723 0.18123 0.52859 0.0
C58 C 0.03744 0.18128 0.53825 0.0
C59 C 0.05626 0.21602 0.53561 0.0
C60 C 0.02982 0.11183 0.53656 0.0
C61 C 0.05913 0.11166 0.52755 0.0
C62 C 0.0406 0.07741 0.5321 0.0
C63 C 0.13736 0.35535 0.5488 0.0
C64 C 0.0869 0.21711 0.51385 0.0
C65 C 0.07289 0.96616 0.81401 0.0
C66 C 0.07463 0.00974 0.9122 0.0
C67 C 0.14685 0.26146 0.78277 0.0
C68 C 0.20937 0.28465 0.57762 0.0
C69 C 0.22038 0.26102 0.64452 0.0
C70 C 0.23873 0.28356 0.61575 0.0
C71 C 0.24586 0.33064 0.52086 0.0
C72 C 0.217 0.33158 0.48368 0.0
C73 C 0.23507 0.35432 0.45559 0.0
C74 C 0.1397 0.12455 0.55606 0.0
C75 C 0.19007 0.26041 0.60642 0.0
H76 H 0.06229 0.26968 0.53573 0.0
H77 H 0.01546 0.08418 0.5393 0.0
H78 H 0.06705 0.08352 0.52064 0.0
H79 H 0.03457 0.02385 0.5307 0.0
H80 H 0.21467 0.22487 0.71769 0.0
H81 H 0.25991 0.35002 0.49834 0.0
H82 H 0.20907 0.35102 0.43208 0.0
H83 H 0.24076 0.3908 0.38309 0.0
Tb84 Tb 0.91123 0.28856 0.56426 0.0
C85 C 0.84663 0.13786 0.32082 0.0
C86 C 0.84608 0.21512 0.16411 0.0
C87 C 0.83487 0.09825 0.1145 0.0
C88 C 0.85056 0.20184 0.28483 0.0
C89 C 0.83815 0.08493 0.23725 0.0
C90 C 0.83876 0.16331 0.07808 0.0
C91 C 0.83375 0.00937 0.4074 0.0
N92 N 0.84938 0.12702 0.44131 0.0
C93 C 0.84177 0.06348 0.48685 0.0
C94 C 0.8323 0.0201 0.28126 0.0
Tb95 Tb 0.86432 0.21998 0.56302 0.0
N96 N 0.85769 0.25056 0.37066 0.0
C97 C 0.85906 0.31281 0.34384 0.0
C98 C 0.84869 0.27972 0.13446 0.0
C99 C 0.85488 0.32848 0.22561 0.0
H100 H 0.84204 0.05404 0.58509 0.0
H101 H 0.85633 0.37819 0.20523 0.0
H102 H 0.83559 0.17278 0.98437 0.0
H103 H 0.82842 0.95946 0.444 0.0
H104 H 0.86292 0.3509 0.41286 0.0
H105 H 0.91707 0.13012 0.92943 0.0
H106 H 0.84547 0.292 0.04291 0.0
H107 H 0.93271 0.45567 0.53944 0.0
H108 H 0.91009 0.15612 0.7216 0.0
H109 H 0.94676 0.5504 0.6785 0.0
H110 H 0.82863 0.05836 0.04861 0.0
H111 H 0.92994 0.21874 0.08586 0.0
H112 H 0.94141 0.33907 0.13875 0.0
H113 H 0.82578 0.97815 0.22012 0.0
H114 H 0.94901 0.4534 0.07127 0.0
N115 N 0.91758 0.25871 0.75761 0.0
C116 C 0.91507 0.1955 0.78796 0.0
C117 C 0.92668 0.23056 0.99408 0.0
C118 C 0.93011 0.29561 0.96133 0.0
C119 C 0.91936 0.18045 0.90629 0.0
C120 C 0.92558 0.30838 0.84042 0.0
H121 H 0.95098 0.53261 0.90048 0.0
N122 N 0.92611 0.38273 0.68365 0.0
C123 C 0.94178 0.50064 0.71553 0.0
C124 C 0.92974 0.37241 0.80276 0.0
C125 C 0.93334 0.44628 0.63746 0.0
C126 C 0.94417 0.4904 0.84044 0.0
C127 C 0.93869 0.42578 0.88466 0.0
O128 O 0.93544 0.34105 0.47147 0.0
O129 O 0.88779 0.24185 0.44011 0.0
O130 O 0.872 0.13808 0.59485 0.0
O131 O 0.90085 0.18236 0.51932 0.0
O132 O 0.90954 0.32104 0.37344 0.0
O133 O 0.92971 0.24518 0.54575 0.0
O134 O 0.83883 0.16486 0.63958 0.0
O135 O 0.88773 0.26645 0.68688 0.0
O136 O 0.90379 0.37056 0.52992 0.0
O137 O 0.87468 0.32674 0.59977 0.0
O138 O 0.86632 0.18545 0.75199 0.0
O139 O 0.84801 0.26872 0.61086 0.0
C140 C 0.8939 0.27792 0.34142 0.0
C141 C 0.96037 0.32296 0.54514 0.0
C142 C 0.9888 0.31229 0.57515 0.0
C143 C 0.97065 0.28545 0.53582 0.0
C144 C 0.99623 0.3767 0.62495 0.0
C145 C 0.96841 0.38688 0.59623 0.0
C146 C 0.9861 0.4132 0.63608 0.0
C147 C 0.88619 0.13139 0.55433 0.0
C148 C 0.94179 0.29755 0.49466 0.0
C149 C 0.94241 0.41312 1.00676 0.0
C150 C 0.93814 0.34811 0.04504 0.0
C151 C 0.88172 0.22991 0.78503 0.0
C152 C 0.81674 0.205 0.5982 0.0
C153 C 0.80476 0.2192 0.67345 0.0
C154 C 0.78766 0.2096 0.62799 0.0
C155 C 0.78296 0.18636 0.50602 0.0
C156 C 0.81146 0.18122 0.47764 0.0
C157 C 0.79476 0.17231 0.43186 0.0
C158 C 0.88945 0.37732 0.56562 0.0
C159 C 0.83465 0.21501 0.64562 0.0
H160 H 0.96451 0.23583 0.49807 0.0
H161 H 1.01009 0.39971 0.65367 0.0
H162 H 0.96122 0.41755 0.60339 0.0
H163 H 0.9921 0.46281 0.674 0.0
H164 H 0.8088 0.23812 0.76641 0.0
H165 H 0.76998 0.17794 0.46838 0.0
H166 H 0.82019 0.16917 0.41882 0.0
H167 H 0.79087 0.15395 0.3385 0.0
Tb168 Tb 0.16071 0.77086 0.49716 0.0
C169 C 0.09733 0.6341 0.24096 0.0
C170 C 0.09681 0.71779 0.09844 0.0
C171 C 0.08599 0.60377 0.03013 0.0
C172 C 0.1009 0.69935 0.21634 0.0
C173 C 0.08934 0.58523 0.14879 0.0
C174 C 0.08969 0.66994 1.00505 0.0
C175 C 0.08605 0.5021 0.3019 0.0
N176 N 0.10057 0.61783 0.35716 0.0
C177 C 0.09362 0.55203 0.39028 0.0
C178 C 0.08428 0.51883 0.17974 0.0
Tb179 Tb 0.11381 0.70529 0.49473 0.0
N180 N 0.10814 0.74469 0.30801 0.0
C181 C 0.11014 0.80849 0.28948 0.0
C182 C 0.0999 0.78374 0.07787 0.0
C183 C 0.10636 0.82904 0.17449 0.0
H184 H 0.0934 0.5369 0.48573 0.0
H185 H 0.10826 0.87985 0.16098 0.0
H186 H 0.08676 0.68345 0.91367 0.0
H187 H 0.08116 0.4506 0.32897 0.0
H188 H 0.11405 0.8441 0.36289 0.0
H189 H 0.16767 0.63053 0.88994 0.0
H190 H 0.09702 0.79985 0.98873 0.0
H191 H 0.18545 0.93131 0.43543 0.0
H192 H 0.15995 0.64672 0.67706 0.0
H193 H 0.20224 0.0339 0.55231 0.0
H194 H 0.08011 0.56704 0.95806 0.0
H195 H 0.18105 0.72622 0.03161 0.0
H196 H 0.19339 0.8493 0.06218 0.0
H197 H 0.07816 0.47998 0.11169 0.0
H198 H 0.20243 0.96004 0.97024 0.0
N199 N 0.16781 0.75071 0.69572 0.0
C200 C 0.16536 0.68913 0.7367 0.0
C201 C 0.17752 0.73369 0.93764 0.0
C202 C 0.18106 0.79708 0.89333 0.0
C203 C 0.16997 0.67964 0.858 0.0
C204 C 0.17618 0.80402 0.77005 0.0
H205 H 0.20603 0.02953 0.77938 0.0
N206 N 0.17817 0.86937 0.59596 0.0
C207 C 0.19626 0.98705 0.60077 0.0
C208 C 0.18129 0.86582 0.71862 0.0
C209 C 0.18664 0.92868 0.53505 0.0
C210 C 0.19831 0.98442 0.72885 0.0
C211 C 0.19135 0.92302 0.78874 0.0
O212 O 0.18496 0.81471 0.3986 0.0
O213 O 0.13724 0.72535 0.37248 0.0
O214 O 0.12038 0.62205 0.53722 0.0
O215 O 0.14973 0.66303 0.47229 0.0
O216 O 0.15886 0.80647 0.30952 0.0
O217 O 0.17626 0.71676 0.4697 0.0
O218 O 0.08871 0.64539 0.56936 0.0
O219 O 0.13724 0.74981 0.61871 0.0
O220 O 0.15361 0.85499 0.4781 0.0
O221 O 0.12433 0.8107 0.54612 0.0
O222 O 0.11509 0.67406 0.68795 0.0
O223 O 0.09528 0.74697 0.52731 0.0
C224 C 0.14341 0.76289 0.27569 0.0
C225 C 0.20751 0.77931 0.45385 0.0
C226 C 0.2368 0.77808 0.41584 0.0
C227 C 0.21909 0.76374 0.3772 0.0
C228 C 0.24253 0.80748 0.53274 0.0
C229 C 0.21373 0.80869 0.56952 0.0
C230 C 0.23108 0.82249 0.60866 0.0
C231 C 0.13481 0.6139 0.50857 0.0
C232 C 0.18902 0.76465 0.41296 0.0
C233 C 0.19499 0.91669 0.91435 0.0
C234 C 0.18988 0.85368 0.96659 0.0
C235 C 0.13096 0.71564 0.71913 0.0
C236 C 0.06478 0.67109 0.50204 0.0
C237 C 0.05423 0.7061 0.52763 0.0
C238 C 0.03673 0.68395 0.47879 0.0
C239 C 0.03002 0.62752 0.40321 0.0
C240 C 0.05764 0.61491 0.42516 0.0
C241 C 0.04046 0.59358 0.37608 0.0
C242 C 0.13934 0.86172 0.5166 0.0
C243 C 0.08268 0.69079 0.56066 0.0
H244 H 0.21424 0.74 0.28857 0.0
H245 H 0.256 0.81981 0.56504 0.0
H246 H 0.20523 0.82111 0.62977 0.0
H247 H 0.23571 0.8453 0.69821 0.0
H248 H 0.05945 0.74941 0.58688 0.0
H249 H 0.01666 0.60987 0.36459 0.0
H250 H 0.06517 0.58653 0.40413 0.0
H251 H 0.03514 0.55009 0.31753 0.0
Tb252 Tb 0.86227 0.71132 0.52533 0.0
C253 C 0.93417 0.92817 0.38105 0.0
C254 C 0.94011 0.90507 0.17125 0.0
C255 C 0.95215 0.01868 0.2455 0.0
C256 C 0.93193 0.88339 0.28724 0.0
C257 C 0.94443 0.99636 0.36206 0.0
C258 C 0.95003 0.9731 0.15031 0.0
C259 C 0.93909 0.01468 0.57577 0.0
N260 N 0.92628 0.90447 0.49167 0.0
C261 C 0.92903 0.94651 0.59014 0.0
C262 C 0.94673 0.03982 0.46102 0.0
Tb263 Tb 0.91034 0.79169 0.50567 0.0
N264 N 0.92209 0.8183 0.31093 0.0
C265 C 0.92092 0.77163 0.22485 0.0
C266 C 0.93825 0.85765 0.08065 0.0
C267 C 0.9288 0.79054 0.10821 0.0
H268 H 0.92308 0.92792 0.67899 0.0
H269 H 0.92748 0.75336 0.03949 0.0
H270 H 0.95627 0.99087 0.0614 0.0
H271 H 0.94091 0.04781 0.65317 0.0
H272 H 0.91365 0.71958 0.24563 0.0
H273 H 0.84206 0.73268 0.99114 0.0
H274 H 0.94426 0.87221 0.99009 0.0
H275 H 0.85295 0.58054 0.34172 0.0
H276 H 0.85718 0.7735 0.79121 0.0
H277 H 0.83549 0.45987 0.3524 0.0
H278 H 0.95991 0.07093 0.22842 0.0
H279 H 0.82505 0.61232 1.02553 0.0
H280 H 0.81342 0.49631 0.93943 0.0
H281 H 0.95452 0.09263 0.45024 0.0
H282 H 0.81111 0.42225 0.76395 0.0
N283 N 0.84941 0.67733 0.71503 0.0
C284 C 0.84992 0.72088 0.80559 0.0
C285 C 0.83173 0.62998 0.9379 0.0
C286 C 0.83053 0.58578 0.84241 0.0
C287 C 0.84129 0.69793 0.91877 0.0
C288 C 0.83949 0.61151 0.73046 0.0
H289 H 0.81932 0.40821 0.5444 0.0
N290 N 0.84667 0.59807 0.52583 0.0
C291 C 0.83595 0.49045 0.43144 0.0
C292 C 0.8378 0.57034 0.63146 0.0
C293 C 0.84575 0.55917 0.4255 0.0
C294 C 0.82685 0.46144 0.53999 0.0
C295 C 0.82768 0.5015 0.64184 0.0
O296 O 0.84021 0.69614 0.40883 0.0
O297 O 0.88534 0.74984 0.40001 0.0
O298 O 0.89946 0.86396 0.46275 0.0
O299 O 0.87344 0.81684 0.57697 0.0
O300 O 0.86177 0.69801 0.32001 0.0
O301 O 0.84674 0.7646 0.56071 0.0
O302 O 0.93044 0.80164 0.63538 0.0
O303 O 0.88728 0.75222 0.63043 0.0
O304 O 0.87329 0.64208 0.58523 0.0
O305 O 0.8991 0.6841 0.46871 0.0
O306 O 0.91065 0.80851 0.70998 0.0
O307 O 0.92867 0.75008 0.46479 0.0
C308 C 0.87818 0.7314 0.29165 0.0
C309 C 0.81622 0.71401 0.49695 0.0
C310 C 0.78688 0.71145 0.44264 0.0
C311 C 0.8053 0.73245 0.41781 0.0
C312 C 0.77967 0.67176 0.54763 0.0
C313 C 0.80854 0.6747 0.601 0.0
C314 C 0.79043 0.6537 0.6259 0.0
C315 C 0.88586 0.86826 0.5201 0.0
C316 C 0.83554 0.73663 0.47053 0.0
C317 C 0.81896 0.47506 0.75386 0.0
C318 C 0.82035 0.51718 0.85397 0.0
C319 C 0.89427 0.77342 0.73833 0.0
C320 C 0.95779 0.8106 0.54997 0.0
C321 C 0.96886 0.77643 0.53882 0.0
C322 C 0.98773 0.81155 0.53471 0.0
C323 C 0.9951 0.88116 0.54056 0.0
C324 C 0.96574 0.88008 0.55445 0.0
C325 C 0.98421 0.91488 0.54935 0.0
C326 C 0.8872 0.63617 0.53621 0.0
C327 C 0.93813 0.77411 0.56428 0.0
H328 H 0.81121 0.7639 0.33853 0.0
H329 H 0.76562 0.65416 0.56889 0.0
H330 H 0.81646 0.66032 0.66376 0.0
H331 H 0.78469 0.62325 0.70652 0.0
H332 H 0.96277 0.7229 0.53313 0.0
H333 H 1.00942 0.90984 0.53998 0.0
H334 H 0.95774 0.90776 0.56445 0.0
H335 H 0.99013 0.9684 0.55408 0.0
Tb336 Tb 0.61488 0.69788 0.08227 0.0
C337 C 0.68644 0.92459 0.95327 0.0
C338 C 0.69358 0.90934 0.74195 0.0
C339 C 0.70464 0.02025 0.82924 0.0
C340 C 0.68484 0.8834 0.85455 0.0
C341 C 0.69625 0.9936 0.94212 0.0
C342 C 0.70333 0.97814 0.72932 0.0
C343 C 0.68861 0.00423 0.15432 0.0
N344 N 0.67799 0.89658 0.06004 0.0
C345 C 0.67909 0.93538 0.16089 0.0
C346 C 0.69725 0.03353 0.04452 0.0
Tb347 Tb 0.66287 0.78307 0.06198 0.0
N348 N 0.67546 0.81735 0.87144 0.0
C349 C 0.6753 0.77396 0.78162 0.0
C350 C 0.69266 0.86516 0.64712 0.0
C351 C 0.68367 0.79709 0.66771 0.0
H352 H 0.67226 0.9138 0.24576 0.0
H353 H 0.68314 0.7624 0.59588 0.0
H354 H 0.71009 -0.00085 0.64338 0.0
H355 H 0.68924 0.03469 0.23392 0.0
H356 H 0.66847 0.72127 0.79693 0.0
H357 H 0.59719 0.73567 0.54713 0.0
H358 H 0.69916 0.88297 0.55899 0.0
H359 H 0.60312 0.56144 0.9114 0.0
H360 H 0.61079 0.76973 0.34043 0.0
H361 H 0.58632 0.44107 0.93942 0.0
H362 H 0.71226 0.07318 0.81864 0.0
H363 H 0.58159 0.61668 0.59938 0.0
H364 H 0.57066 0.49787 0.53064 0.0
H365 H 0.70459 0.08684 0.03971 0.0
H366 H 0.56762 0.41765 0.36495 0.0
N367 N 0.60342 0.67112 0.27771 0.0
C368 C 0.60403 0.71763 0.36241 0.0
C369 C 0.58752 0.63136 0.50863 0.0
C370 C 0.58618 0.58394 0.41929 0.0
C371 C 0.59629 0.69854 0.47942 0.0
C372 C 0.59424 0.6058 0.30302 0.0
H373 H 0.5733 0.39602 0.14361 0.0
N374 N 0.60003 0.5848 0.09892 0.0
C375 C 0.58797 0.47426 1.01648 0.0
C376 C 0.59244 0.56091 0.21028 0.0
C377 C 0.59745 0.54266 1.00087 0.0
C378 C 0.58067 0.44899 0.13196 0.0
C379 C 0.58269 0.49251 0.2304 0.0
O380 O 0.59371 0.68031 0.95704 0.0
O381 O 0.63782 0.74066 0.95699 0.0
O382 O 0.65122 0.85086 1.00502 0.0
O383 O 0.62501 0.80546 0.11755 0.0
O384 O 0.61474 0.68095 0.87806 0.0
O385 O 0.59626 0.73842 0.12028 0.0
O386 O 0.68506 0.80037 0.17836 0.0
O387 O 0.63984 0.74232 0.18758 0.0
O388 O 0.62676 0.62891 0.12673 0.0
O389 O 0.6524 0.67782 1.00965 0.0
O390 O 0.66326 0.79636 0.26738 0.0
O391 O 0.67888 0.73159 1.0273 0.0
C392 C 0.63097 0.71814 0.8494 0.0
C393 C 0.56674 0.67262 0.04748 0.0
C394 C 0.53657 0.66918 0.05997 0.0
C395 C 0.55527 0.7055 0.04815 0.0
C396 C 0.52965 0.60017 0.07514 0.0
C397 C 0.55927 0.60343 0.06094 0.0
C398 C 0.54092 0.56772 0.07577 0.0
C399 C 0.63704 0.85497 0.05371 0.0
C400 C 0.58622 0.70972 1.02541 0.0
C401 C 0.57509 0.47006 0.34723 0.0
C402 C 0.57682 0.51573 0.44155 0.0
C403 C 0.64693 0.76145 0.29589 0.0
C404 C 0.70934 0.78431 0.0907 0.0
C405 C 0.72021 0.76243 0.1632 0.0
C406 C 0.73862 0.7844 0.13722 0.0
C407 C 0.74596 0.82939 0.03937 0.0
C408 C 0.71713 0.82877 0.99333 0.0
C409 C 0.73528 0.85119 0.96812 0.0
C410 C 0.64041 0.6259 0.0679 0.0
C411 C 0.69001 0.76039 0.11738 0.0
H412 H 0.5608 0.75874 0.03592 0.0
H413 H 0.51544 0.57119 0.08651 0.0
H414 H 0.56751 0.5765 0.05772 0.0
H415 H 0.53539 0.51443 0.08628 0.0
H416 H 0.71434 0.72796 0.23864 0.0
H417 H 0.76008 0.84856 1.01895 0.0
H418 H 0.70927 0.84642 0.93658 0.0
H419 H 0.74112 0.88589 0.89312 0.0
Tb420 Tb 0.41082 0.78937 0.07441 0.0
C421 C 0.33787 0.57762 0.92921 0.0
C422 C 0.33195 0.6003 0.71836 0.0
C423 C 0.31908 0.48714 0.79591 0.0
C424 C 0.34049 0.62194 0.83376 0.0
C425 C 0.32722 0.5096 0.91182 0.0
C426 C 0.32142 0.53247 0.69933 0.0
C427 C 0.3336 0.49162 0.12429 0.0
N428 N 0.34615 0.60154 0.03904 0.0
C429 C 0.34395 0.55971 0.13718 0.0
C430 C 0.32521 0.4664 1.01111 0.0
Tb431 Tb 0.3627 0.71395 0.05105 0.0
N432 N 0.3506 0.68697 0.85674 0.0
C433 C 0.35163 0.73371 0.77083 0.0
C434 C 0.33381 0.64775 0.62736 0.0
C435 C 0.34348 0.71485 0.65442 0.0
H436 H 0.35052 0.57836 0.22466 0.0
H437 H 0.34472 0.75206 0.58561 0.0
H438 H 0.31484 0.51471 0.61104 0.0
H439 H 0.33214 0.45862 0.20164 0.0
H440 H 0.35904 0.78571 0.79108 0.0
H441 H 0.4284 0.75367 0.54294 0.0
H442 H 0.32749 0.63328 0.53728 0.0
H443 H 0.42343 0.92407 0.89641 0.0
H444 H 0.41357 0.71902 0.33896 0.0
H445 H 0.44313 0.04279 0.9141 0.0
H446 H 0.31087 0.435 0.78031 0.0
H447 H 0.44719 0.87213 0.58432 0.0
H448 H 0.46103 0.9894 0.50469 0.0
H449 H 0.31723 0.41365 1.00139 0.0
H450 H 0.46542 0.06776 0.33249 0.0
N451 N 0.42315 0.8171 0.2681 0.0
C452 C 0.42156 0.77097 0.35684 0.0
C453 C 0.44063 0.85722 0.49509 0.0
C454 C 0.44295 0.90386 0.40155 0.0
C455 C 0.43004 0.79034 0.47206 0.0
C456 C 0.43399 0.88181 0.28753 0.0
H457 H 0.45896 0.08804 0.1113 0.0
N458 N 0.42766 0.9017 0.08307 0.0
C459 C 0.4414 0.01035 0.99276 0.0
C460 C 0.43648 0.92567 0.19127 0.0
C461 C 0.43026 0.94281 0.98305 0.0
C462 C 0.45031 0.03572 0.10428 0.0
C463 C 0.44795 0.99322 0.2053 0.0
O464 O 0.4309 0.79673 0.94814 0.0
O465 O 0.38771 0.75246 0.948 0.0
O466 O 0.373 0.64222 0.99438 0.0
O467 O 0.39882 0.68188 0.11264 0.0
O468 O 0.41132 0.80497 0.86964 0.0
O469 O 0.42819 0.74366 0.11863 0.0
O470 O 0.34018 0.69616 0.16292 0.0
O471 O 0.38578 0.75033 0.17835 0.0
O472 O 0.40092 0.86422 0.11845 0.0
O473 O 0.3746 0.82031 1.00453 0.0
O474 O 0.3622 0.69773 0.25583 0.0
O475 O 0.34787 0.77066 1.02123 0.0
C476 C 0.39484 0.772 0.84034 0.0
C477 C 0.45764 0.80088 0.03858 0.0
C478 C 0.48709 0.79748 0.05575 0.0
C479 C 0.4682 0.76447 0.04652 0.0
C480 C 0.49503 0.8671 0.05918 0.0
C481 C 0.46618 0.87033 0.04083 0.0
C482 C 0.48465 0.90298 0.05221 0.0
C483 C 0.38678 0.63488 0.04383 0.0
C484 C 0.43795 0.76701 1.02067 0.0
C485 C 0.45665 0.01595 0.31942 0.0
C486 C 0.45412 0.97136 0.41751 0.0
C487 C 0.37862 0.73068 0.28587 0.0
C488 C 0.31698 0.7196 0.07297 0.0
C489 C 0.30577 0.73793 0.14854 0.0
C490 C 0.2877 0.72017 0.11488 0.0
C491 C 0.28098 0.68257 1.00683 0.0
C492 C 0.30977 0.68278 0.96517 0.0
C493 C 0.29195 0.66421 0.93279 0.0
C494 C 0.38727 0.87029 0.06367 0.0
C495 C 0.3361 0.7398 0.10592 0.0
H496 H 0.46174 0.71087 0.04493 0.0
H497 H 0.50939 0.89413 0.06434 0.0
H498 H 0.45866 0.89978 0.031 0.0
H499 H 0.491 0.95653 0.05327 0.0
H500 H 0.31115 0.7667 0.23184 0.0
H501 H 0.26712 0.66678 0.98003 0.0
H502 H 0.31785 0.66838 0.9052 0.0
H503 H 0.2866 0.63542 0.84958 0.0
Tb504 Tb 0.66091 0.27089 0.99937 0.0
C505 C 0.59256 0.12551 0.76306 0.0
C506 C 0.59445 0.20414 0.60158 0.0
C507 C 0.57879 0.08637 0.56127 0.0
C508 C 0.59863 0.19017 0.72263 0.0
C509 C 0.58196 0.07296 0.68422 0.0
C510 C 0.58501 0.15191 0.52002 0.0
C511 C 0.57586 -0.00083 0.85931 0.0
N512 N 0.59567 0.11447 0.88284 0.0
C513 C 0.58625 0.05301 0.93377 0.0
C514 C 0.57406 0.0089 0.73308 0.0
Tb515 Tb 0.61361 0.20651 0.99606 0.0
N516 N 0.60786 0.23945 0.80368 0.0
C517 C 0.61213 0.30399 0.77123 0.0
C518 C 0.59954 0.27013 0.56686 0.0
C519 C 0.60812 0.32016 0.65293 0.0
H520 H 0.58721 0.04514 0.03198 0.0
H521 H 0.61178 0.37139 0.62801 0.0
H522 H 0.58201 0.16173 0.4261 0.0
H523 H 0.56909 0.95039 0.89967 0.0
H524 H 0.61856 0.34382 0.8351 0.0
H525 H 0.66909 0.15294 0.42146 0.0
H526 H 0.5966 0.28289 0.47491 0.0
H527 H 0.68646 0.42454 0.90233 0.0
H528 H 0.66003 0.15669 0.20636 0.0
H529 H 0.70517 0.53295 0.99538 0.0
H530 H 0.57095 0.04658 0.49887 0.0
H531 H 0.68391 0.25638 0.54161 0.0
H532 H 0.69756 0.38075 0.54446 0.0
H533 H 0.56583 0.96727 0.67568 0.0
H534 H 0.70718 0.48529 0.4279 0.0
N535 N 0.66908 0.26195 0.20139 0.0
C536 C 0.66649 0.20274 0.25553 0.0
C537 C 0.67996 0.25854 0.44624 0.0
C538 C 0.68376 0.31919 0.38811 0.0
C539 C 0.67166 0.20014 0.37861 0.0
C540 C 0.67825 0.31915 0.26381 0.0
H541 H 0.71038 0.54256 0.22208 0.0
N542 N 0.68002 0.37354 0.0756 0.0
C543 C 0.69914 0.4897 0.05394 0.0
C544 C 0.68375 0.37742 0.19855 0.0
C545 C 0.68857 0.42808 1.00166 0.0
C546 C 0.70195 0.49499 0.18192 0.0
C547 C 0.69474 0.43804 0.25543 0.0
O548 O 0.68438 0.30519 0.89088 0.0
O549 O 0.63726 0.22675 0.8762 0.0
O550 O 0.61915 0.11877 0.99558 0.0
O551 O 0.65015 0.16274 1.00348 0.0
O552 O 0.65927 0.30323 0.80806 0.0
O553 O 0.67529 0.21184 0.98161 0.0
O554 O 0.59233 0.1662 0.12066 0.0
O555 O 0.63722 0.24965 0.11941 0.0
O556 O 0.6545 0.35686 0.99335 0.0
O557 O 0.62426 0.31272 0.03934 0.0
O558 O 0.61556 0.16977 0.18345 0.0
O559 O 0.59386 0.24478 0.99954 0.0
C560 C 0.64351 0.26163 0.77647 0.0
C561 C 0.70652 0.26912 0.95495 0.0
C562 C 0.73525 0.26255 0.92124 0.0
C563 C 0.71781 0.25081 0.88022 0.0
C564 C 0.74122 0.29371 0.03634 0.0
C565 C 0.71298 0.29989 0.06926 0.0
C566 C 0.73017 0.31215 0.10943 0.0
C567 C 0.63431 0.11246 1.00276 0.0
C568 C 0.68796 0.25484 0.91558 0.0
C569 C 0.699 0.43913 0.382 0.0
C570 C 0.69355 0.37965 0.44829 0.0
C571 C 0.63111 0.21283 0.21717 0.0
C572 C 0.56455 0.1681 0.06346 0.0
C573 C 0.55423 0.20462 0.04116 0.0
C574 C 0.53528 0.17268 0.03832 0.0
C575 C 0.52699 0.10398 0.05959 0.0
C576 C 0.55562 0.09935 0.08223 0.0
C577 C 0.53707 0.06778 0.07951 0.0
C578 C 0.6398 0.36337 1.02126 0.0
C579 C 0.58429 0.20218 0.08196 0.0
H580 H 0.71298 0.22682 0.79174 0.0
H581 H 0.7546 0.30463 0.06927 0.0
H582 H 0.70475 0.31446 0.1279 0.0
H583 H 0.73496 0.33618 0.19781 0.0
H584 H 0.56092 0.25774 1.02826 0.0
H585 H 0.51262 0.07809 0.0647 0.0
H586 H 0.56288 0.06978 0.10359 0.0
H587 H 0.53044 0.01506 0.09657 0.0
Tb588 Tb 0.36512 0.21977 0.98565 0.0
C589 C 0.43024 0.3677 0.74451 0.0
C590 C 0.43032 0.28683 0.59472 0.0
C591 C 0.44262 0.40304 0.5384 0.0
C592 C 0.42605 0.30274 0.7135 0.0
C593 C 0.43906 0.41885 0.65815 0.0
C594 C 0.43825 0.33712 0.5067 0.0
C595 C 0.44204 0.49806 0.81814 0.0
N596 N 0.42661 0.38114 0.86118 0.0
C597 C 0.43368 0.44587 0.90083 0.0
C598 C 0.44447 0.48453 0.69548 0.0
Tb599 Tb 0.41212 0.29039 0.98891 0.0
N600 N 0.41811 0.25519 0.80022 0.0
C601 C 0.41536 0.19114 0.77582 0.0
C602 C 0.42664 0.22093 0.56811 0.0
C603 C 0.41934 0.17304 0.65974 0.0
H604 H 0.43313 0.45812 0.99722 0.0
H605 H 0.41686 0.12207 0.64135 0.0
H606 H 0.44133 0.32565 0.4146 0.0
H607 H 0.44693 0.54874 0.84998 0.0
H608 H 0.41043 0.15329 0.84507 0.0
H609 H 0.3561 0.35387 0.37839 0.0
H610 H 0.42966 0.20672 0.4781 0.0
H611 H 0.34151 0.05908 0.91834 0.0
H612 H 0.36467 0.34083 0.16673 0.0
H613 H 0.32507 0.95499 0.03177 0.0
H614 H 0.44911 0.44158 0.47052 0.0
H615 H 0.34324 0.25676 0.51725 0.0
H616 H 0.33196 0.13371 0.54518 0.0
H617 H 0.45118 0.5251 0.63188 0.0
H618 H 0.324 0.02421 0.45096 0.0
N619 N 0.35741 0.23705 0.18311 0.0
C620 C 0.35927 0.29773 0.22495 0.0
C621 C 0.34703 0.25061 0.42368 0.0
C622 C 0.34416 0.18809 0.37841 0.0
C623 C 0.35425 0.30544 0.34555 0.0
C624 C 0.34935 0.18287 0.25577 0.0
H625 H 0.32104 0.95689 0.25853 0.0
N626 N 0.34817 0.11963 0.08069 0.0
C627 C 0.33073 0.00147 0.0816 0.0
C628 C 0.34489 0.12175 0.20314 0.0
C629 C 0.34008 0.06071 1.01782 0.0
C630 C 0.32857 0.00271 0.20957 0.0
C631 C 0.33511 0.06356 0.27129 0.0
O632 O 0.34134 0.17509 0.88076 0.0
O633 O 0.38859 0.268 0.8642 0.0
O634 O 0.40485 0.37269 1.02155 0.0
O635 O 0.37507 0.32747 0.9628 0.0
O636 O 0.36745 0.18597 0.79793 0.0
O637 O 0.34867 0.27072 0.95963 0.0
O638 O 0.43634 0.34689 0.07963 0.0
O639 O 0.38867 0.24421 0.1105 0.0
O640 O 0.37302 0.13744 0.97184 0.0
O641 O 0.40232 0.1853 0.04123 0.0
O642 O 0.41031 0.32285 0.1793 0.0
O643 O 0.43104 0.24949 1.01524 0.0
C644 C 0.38272 0.23112 0.76617 0.0
C645 C 0.31771 0.20451 0.93442 0.0
C646 C 0.28845 0.20658 0.89627 0.0
C647 C 0.3065 0.22508 0.86261 0.0
C648 C 0.282 0.16784 1.00349 0.0
C649 C 0.31078 0.16609 0.04068 0.0
C650 C 0.29309 0.14803 0.07491 0.0
C651 C 0.39 0.37827 0.99402 0.0
C652 C 0.3365 0.22304 0.8978 0.0
C653 C 0.33123 0.06832 0.39655 0.0
C654 C 0.3357 0.13062 0.45004 0.0
C655 C 0.39464 0.27986 0.20992 0.0
C656 C 0.46158 0.32865 1.01643 0.0
C657 C 0.47154 0.29012 1.02809 0.0
C658 C 0.4898 0.31666 0.99491 0.0
C659 C 0.49786 0.3816 0.94884 0.0
C660 C 0.47012 0.39334 0.96884 0.0
C661 C 0.48805 0.41933 0.93517 0.0
C662 C 0.38746 0.13285 1.01425 0.0
C663 C 0.44293 0.30358 0.06332 0.0
H664 H 0.31191 0.25586 0.78173 0.0
H665 H 0.26824 0.15202 0.03156 0.0
H666 H 0.31899 0.14976 0.09717 0.0
H667 H 0.2879 0.11814 0.15701 0.0
H668 H 0.46526 0.24048 0.06597 0.0
H669 H 0.51179 0.40308 0.92247 0.0
H670 H 0.46311 0.42473 0.95982 0.0
H671 H 0.49444 0.46936 0.89957 0.0
C672 C 0.25198 0.26488 0.81563 0.0
C673 C 0.25083 0.26041 0.68557 0.0
C674 C 0.26435 0.24864 0.88213 0.0
C675 C 0.27607 0.22671 0.82171 0.0
H676 H 0.24353 0.28262 0.8663 0.0
H677 H 0.26486 0.25396 0.98207 0.0
S678 S 0.27741 0.20142 0.48239 0.0
N679 N 0.26192 0.22962 0.49891 0.0
N680 N 0.28489 0.19816 0.62358 0.0
C681 C 0.27483 0.22104 0.69162 0.0
C682 C 0.26229 0.23792 0.62388 0.0
C683 C 0.7519 0.26821 0.723 0.0
C684 C 0.7477 0.24459 0.84507 0.0
C685 C 0.765 0.25765 0.65477 0.0
C686 C 0.77445 0.22286 0.70546 0.0
H687 H 0.74535 0.2966 0.68099 0.0
H688 H 0.7679 0.27762 0.56168 0.0
S689 S 0.76724 0.14551 1.01761 0.0
N690 N 0.75329 0.18142 1.01131 0.0
N691 N 0.77771 0.1613 0.88325 0.0
C692 C 0.77008 0.19785 0.82663 0.0
C693 C 0.75676 0.20862 0.89606 0.0
C694 C 0.27318 0.72317 0.31851 0.0
C695 C 0.27545 0.73891 0.19155 0.0
C696 C 0.26049 0.73492 0.38924 0.0
C697 C 0.24957 0.76329 0.33635 0.0
H698 H 0.28095 0.70002 0.36289 0.0
H699 H 0.2591 0.72095 0.48624 0.0
S700 S 0.25135 0.81871 1.00959 0.0
N701 N 0.26634 0.78751 1.0171 0.0
N702 N 0.24276 0.81024 0.14989 0.0
C703 C 0.25196 0.78034 0.20985 0.0
C704 C 0.26484 0.76819 0.1378 0.0
C705 C 0.75074 0.76771 0.34325 0.0
C706 C 0.75049 0.76274 0.2132 0.0
C707 C 0.76271 0.75215 0.41586 0.0
C708 C 0.77493 0.73061 0.36179 0.0
H709 H 0.74188 0.7852 0.38925 0.0
H710 H 0.7625 0.75765 0.51553 0.0
S711 S 0.77865 0.70385 1.02553 0.0
N712 N 0.76291 0.73136 0.03356 0.0
N713 N 0.78524 0.70174 0.16983 0.0
C714 C 0.77462 0.72445 0.23186 0.0
C715 C 0.76245 0.74042 0.15786 0.0
C716 C 0.13 0.94368 0.61783 0.0
C717 C 0.14002 0.92939 0.52673 0.0
C718 C 0.1302 0.00701 0.62764 0.0
C719 C 0.14027 0.05854 0.54585 0.0
H720 H 0.12202 0.90575 0.6828 0.0
H721 H 0.12236 0.01551 0.7001 0.0
S722 S 0.16754 0.04458 0.28361 0.0
N723 N 0.15948 0.97064 0.3488 0.0
N724 N 0.15987 0.08929 0.36652 0.0
C725 C 0.1502 0.04449 0.45338 0.0
C726 C 0.15005 0.98006 0.4439 0.0
C727 C 0.89943 0.49118 0.47412 0.0
C728 C 0.88963 0.44441 0.56437 0.0
C729 C 0.89883 0.55344 0.46655 0.0
C730 C 0.88849 0.57148 0.54948 0.0
H731 H 0.90724 0.4789 0.40653 0.0
H732 H 0.90624 0.58705 0.39351 0.0
S733 S 0.8624 0.46994 0.81386 0.0
N734 N 0.87044 0.42226 0.74425 0.0
N735 N 0.86974 0.5394 0.73325 0.0
C736 C 0.87925 0.52599 0.64349 0.0
C737 C 0.87969 0.46247 0.65003 0.0
C738 C 0.89566 0.98593 0.4485 0.0
C739 C 0.88548 0.9346 0.53026 0.0
C740 C 0.89586 0.04931 0.45726 0.0
C741 C 0.88576 0.06393 0.54735 0.0
H742 H 0.90352 0.97717 0.37653 0.0
H743 H 0.90386 0.08694 0.39184 0.0
S744 S 0.85795 0.94923 0.79019 0.0
N745 N 0.86573 0.90432 0.70876 0.0
N746 N 0.8661 0.02306 0.72452 0.0
C747 C 0.87567 0.01347 0.6305 0.0
C748 C 0.87552 0.94897 0.62203 0.0
C749 C 0.1461 0.53013 0.44483 0.0
C750 C 0.13455 0.54668 0.51845 0.0
C751 C 0.14666 0.46809 0.45456 0.0
C752 C 0.13589 0.41993 0.53974 0.0
H753 H 0.15476 0.56529 0.37827 0.0
H754 H 0.15565 0.458 0.39409 0.0
S755 S 0.10379 0.43968 0.7583 0.0
N756 N 0.1123 0.51045 0.68175 0.0
N757 N 0.11342 0.39401 0.70083 0.0
C758 C 0.12423 0.43583 0.61415 0.0
C759 C 0.12357 0.49908 0.60348 0.0
C760 C 0.63112 0.50835 0.13802 0.0
C761 C 0.64112 0.56019 0.0566 0.0
C762 C 0.63077 0.44492 0.12606 0.0
C763 C 0.64065 0.43102 0.03357 0.0
H764 H 0.62339 0.51658 0.21157 0.0
H765 H 0.6228 0.4066 0.19042 0.0
S766 S 0.66825 0.54735 0.79247 0.0
N767 N 0.66068 0.59184 0.87694 0.0
N768 N 0.66012 0.473 0.85603 0.0
C769 C 0.65075 0.4821 0.95182 0.0
C770 C 0.65099 0.54658 0.96309 0.0
C771 C 0.37649 0.95016 0.96626 0.0
C772 C 0.38709 0.93716 0.05642 0.0
C773 C 0.37649 0.01316 0.9543 0.0
C774 C 0.38716 0.06599 0.03141 0.0
H775 H 0.3683 0.91167 0.90271 0.0
H776 H 0.36834 0.02084 0.88217 0.0
S777 S 0.41578 0.05718 0.29122 0.0
N778 N 0.40739 0.98201 0.23114 0.0
N779 N 0.40764 0.10023 0.20658 0.0
C780 C 0.3975 0.05355 0.12365 0.0
C781 C 0.39738 0.98928 0.13672 0.0
C782 C 0.39969 0.49008 0.0935 0.0
C783 C 0.38982 0.44469 1.00116 0.0
C784 C 0.39878 0.55163 0.10632 0.0
C785 C 0.38805 0.57035 1.02667 0.0
H786 H 0.40783 0.47727 0.15845 0.0
H787 H 0.40632 0.58422 0.18052 0.0
S788 S 0.36168 0.47259 0.7583 0.0
N789 N 0.37019 0.42466 0.8227 0.0
N790 N 0.36887 0.54042 0.84348 0.0
C791 C 0.37872 0.5262 0.93069 0.0
C792 C 0.37948 0.4634 0.91884 0.0
C793 C 0.64656 0.03044 0.94893 0.0
C794 C 0.63384 0.04518 1.01237 0.0
C795 C 0.64716 0.96859 0.96132 0.0
C796 C 0.63535 0.91908 0.04018 0.0
H797 H 0.65612 0.06701 0.8886 0.0
H798 H 0.65707 0.95989 0.90833 0.0
S799 S 0.59993 0.93448 0.23132 0.0
N800 N 0.60934 0.00625 0.15871 0.0
N801 N 0.61055 0.89016 0.1838 0.0
C802 C 0.6225 0.93331 0.10419 0.0
C803 C 0.62176 0.99627 0.09006 0.0
C804 C 0.14276 0.29399 0.13849 0.0
C805 C 0.13677 0.23133 0.19783 0.0
C806 C 0.14518 0.30218 1.00619 0.0
C807 C 0.14106 0.24837 0.92164 0.0
H808 H 0.14552 0.33749 0.19472 0.0
H809 H 0.15039 0.35203 0.9693 0.0
S810 S 0.12547 0.07345 1.0256 0.0
N811 N 0.12698 0.11404 0.15647 0.0
N812 N 0.13167 0.1296 0.91403 0.0
C813 C 0.13525 0.18566 0.98001 0.0
C814 C 0.13286 0.17725 0.11458 0.0
C815 C 0.88453 0.20136 0.14412 0.0
C816 C 0.88957 0.26418 0.20057 0.0
C817 C 0.88241 0.19195 1.01208 0.0
C818 C 0.88581 0.2447 0.92591 0.0
H819 H 0.88225 0.15884 0.20233 0.0
H820 H 0.87816 0.14212 0.97664 0.0
S821 S 0.89841 0.41888 1.02272 0.0
N822 N 0.89756 0.3802 0.15531 0.0
N823 N 0.89328 0.36209 0.91299 0.0
C824 C 0.89065 0.30745 0.98135 0.0
C825 C 0.8928 0.31716 0.11554 0.0
C826 C 0.13401 0.68691 0.07753 0.0
C827 C 0.13943 0.74985 0.13415 0.0
C828 C 0.13179 0.67761 0.94557 0.0
C829 C 0.13555 0.73057 0.85939 0.0
H830 H 0.13145 0.64411 0.13561 0.0
H831 H 0.12714 0.62761 0.91016 0.0
S832 S 0.14956 0.90557 0.95616 0.0
N833 N 0.14831 0.86645 0.08882 0.0
N834 N 0.144 0.84864 0.84641 0.0
C835 C 0.14087 0.79358 0.91483 0.0
C836 C 0.14306 0.80315 0.0491 0.0
C837 C 0.88198 0.69892 0.93571 0.0
C838 C 0.88827 0.76176 0.87683 0.0
C839 C 0.87955 0.6906 0.06794 0.0
C840 C 0.88398 0.7444 0.15288 0.0
H841 H 0.87898 0.6554 0.87919 0.0
H842 H 0.8741 0.64065 0.10447 0.0
S843 S 0.90037 0.91976 0.05018 0.0
N844 N 0.89864 0.87921 0.91899 0.0
N845 N 0.89393 0.86342 0.16139 0.0
C846 C 0.89008 0.8073 0.09498 0.0
C847 C 0.89247 0.81584 0.96045 0.0
C848 C 0.64505 0.80155 0.51947 0.0
C849 C 0.64116 0.74796 0.43471 0.0
C850 C 0.64265 0.79312 0.65175 0.0
C851 C 0.63691 0.73044 0.7108 0.0
H852 H 0.65005 0.8514 0.48275 0.0
H853 H 0.64523 0.8364 0.7082 0.0
S854 S 0.62652 0.57334 0.53812 0.0
N855 N 0.63244 0.62958 0.42673 0.0
N856 N 0.62774 0.61351 0.66908 0.0
C857 C 0.63328 0.67664 0.62738 0.0
C858 C 0.63565 0.6853 0.49286 0.0
C859 C 0.38176 0.69762 0.64329 0.0
C860 C 0.38886 0.76068 0.70141 0.0
C861 C 0.37926 0.6893 0.51095 0.0
C862 C 0.38439 0.74318 0.42528 0.0
H863 H 0.37817 0.65393 0.70046 0.0
H864 H 0.37319 0.6393 0.47497 0.0
S865 S 0.40324 0.91919 0.52622 0.0
N866 N 0.40088 0.87836 0.658 0.0
N867 N 0.39603 0.86275 0.41545 0.0
C868 C 0.39134 0.80632 0.48253 0.0
C869 C 0.39381 0.81482 0.6171 0.0
C870 C 0.63004 0.1747 0.44702 0.0
C871 C 0.63495 0.22765 0.35916 0.0
C872 C 0.63216 0.18436 0.57934 0.0
C873 C 0.63895 0.24799 0.63494 0.0
H874 H 0.62458 0.12435 0.41267 0.0
H875 H 0.62859 0.14129 0.6384 0.0
S876 S 0.65209 0.40437 0.45288 0.0
N877 N 0.6455 0.3467 0.34432 0.0
N878 N 0.65011 0.36523 0.58637 0.0
C879 C 0.64366 0.30126 0.54816 0.0
C880 C 0.64134 0.29125 0.41377 0.0
C881 C 0.38509 0.20285 0.40692 0.0
C882 C 0.39023 0.26579 0.3505 0.0
C883 C 0.3831 0.19336 0.53898 0.0
C884 C 0.38667 0.24608 0.62527 0.0
H885 H 0.38267 0.16031 0.34873 0.0
H886 H 0.37882 0.14346 0.57436 0.0
S887 S 0.39933 0.42042 0.52826 0.0
N888 N 0.3984 0.38185 0.39584 0.0
N889 N 0.39422 0.3635 0.638 0.0
C890 C 0.39154 0.30891 0.56979 0.0
C891 C 0.39362 0.31873 0.43563 0.0
C892 C 0.0251 0.25203 0.64934 0.0
C893 C 0.02541 0.21607 0.54336 0.0
C894 C 0.01283 0.28063 0.66009 0.0
C895 C 1.00048 0.27553 0.56445 0.0
H896 H 0.03417 0.25697 0.72568 0.0
H897 H 0.01303 0.30702 0.74476 0.0
S898 S 0.99647 0.18791 0.26528 0.0
N899 N 0.01246 0.17648 0.34077 0.0
N900 N 0.98994 0.23245 0.35802 0.0
C901 C 1.00075 0.23957 0.45762 0.0
C902 C 0.01309 0.20957 0.44771 0.0
C903 C 0.01527 0.80492 0.44681 0.0
C904 C 1.00008 0.77759 0.52378 0.0
C905 C 0.02754 0.77628 0.43744 0.0
C906 C 0.0251 0.71875 0.50373 0.0
H907 H 0.01761 0.84847 0.39142 0.0
H908 H 0.03875 0.79824 0.37507 0.0
S909 S 0.98835 0.6282 0.72161 0.0
N910 N 0.98401 0.69043 0.67211 0.0
N911 N 1.00672 0.63552 0.64989 0.0
C912 C 1.01015 0.69081 0.58117 0.0
C913 C 0.99772 0.72033 0.59214 0.0
C914 C 0.52613 0.75366 0.13814 0.0
C915 C 0.52401 0.70198 0.0559 0.0
C916 C 0.51382 0.78243 0.14008 0.0
C917 C 0.49894 0.76132 0.05892 0.0
H918 H 0.53723 0.77129 0.20295 0.0
H919 H 0.51601 0.82177 0.20602 0.0
S920 S 0.48812 0.63021 0.81976 0.0
N921 N 0.50626 0.632 0.88861 0.0
N922 N 0.48342 0.68689 0.89004 0.0
C923 C 0.49679 0.70984 0.97557 0.0
C924 C 0.50925 0.6802 0.97439 0.0
C925 C 0.517 0.3043 0.07534 0.0
C926 C 0.50082 0.27802 1.00791 0.0
C927 C 0.52822 0.27093 0.08259 0.0
C928 C 0.52389 0.21021 1.0212 0.0
H929 H 0.52095 0.35098 0.12373 0.0
H930 H 0.54021 0.29236 0.13882 0.0
S931 S 0.48394 0.12437 0.82058 0.0
N932 N 0.48152 0.18983 0.87316 0.0
N933 N 0.50278 0.12833 0.88166 0.0
C934 C 0.50794 0.18454 0.95027 0.0
C935 C 0.49639 0.21801 0.94503 0.0
loop_
_geom_bond_atom_site_label_1
_geom_bond_atom_site_label_2
_geom_bond_distance
_geom_bond_site_symmetry_2
_ccdc_geom_bond_type
Tb0 N31 2.660 . S
Tb0 N38 2.600 . S
Tb0 O44 2.546 . S
Tb0 O45 2.610 . S
Tb0 O47 2.320 . S
Tb0 O48 2.552 . S
Tb0 O49 2.413 . S
Tb0 O51 2.362 . S
Tb0 O52 2.421 . S
Tb0 C64 2.833 . S
C1 C4 1.432 . S
C1 C5 1.414 . S
C1 N8 1.359 . S
C2 C4 1.417 . S
C2 C6 1.432 1_554 S
C2 C14 1.410 1_554 S
C3 C5 1.444 1_556 S
C3 C6 1.317 . S
C3 H26 0.929 . S
C4 C1 1.432 . S
C4 C2 1.417 . S
C4 N12 1.360 . S
C5 C1 1.414 . S
C5 C3 1.444 1_554 S
C5 C10 1.385 . S
C6 C2 1.432 1_556 S
C6 C3 1.317 . S
C6 H18 0.930 . S
C7 C9 1.392 . S
C7 C10 1.370 . S
C7 H19 0.931 . S
N8 C1 1.359 . S
N8 C9 1.327 . S
N8 Tb11 2.600 . S
C9 C7 1.392 . S
C9 N8 1.327 . S
C9 H16 0.930 . S
C10 C5 1.385 . S
C10 C7 1.370 . S
C10 H29 0.930 . S
Tb11 N8 2.600 . S
Tb11 N12 2.660 . S
Tb11 O45 2.362 . S
Tb11 O46 2.421 . S
Tb11 O50 2.546 . S
Tb11 O51 2.610 . S
Tb11 O53 2.320 . S
Tb11 O54 2.552 . S
Tb11 O55 2.413 . S
Tb11 C75 2.833 . S
N12 C4 1.360 . S
N12 Tb11 2.660 . S
N12 C13 1.305 . S
C13 N12 1.305 . S
C13 C15 1.407 . S
C13 H20 0.930 . S
C14 C2 1.410 1_556 S
C14 C15 1.345 1_556 S
C14 H22 0.930 . S
C15 C13 1.407 . S
C15 C14 1.345 1_554 S
C15 H17 0.930 . S
H16 C9 0.930 . S
H17 C15 0.930 . S
H18 C6 0.930 . S
H19 C7 0.931 . S
H20 C13 0.930 . S
H21 C35 0.930 . S
H22 C14 0.930 . S
H23 C41 0.930 . S
H24 C32 0.930 . S
H25 C39 0.931 1_565 S
H26 C3 0.929 . S
H27 C33 0.930 . S
H28 C66 0.930 1_554 S
H29 C10 0.930 . S
H30 C65 0.929 . S
N31 Tb0 2.660 . S
N31 C32 1.305 . S
N31 C36 1.360 . S
C32 H24 0.930 . S
C32 N31 1.305 . S
C32 C35 1.407 . S
C33 H27 0.930 . S
C33 C34 1.410 . S
C33 C35 1.345 . S
C34 C33 1.410 . S
C34 C36 1.417 . S
C34 C66 1.432 . S
C35 H21 0.930 . S
C35 C32 1.407 . S
C35 C33 1.345 . S
C36 N31 1.360 . S
C36 C34 1.417 . S
C36 C40 1.432 . S
H37 C42 0.930 1_565 S
N38 Tb0 2.600 . S
N38 C40 1.359 . S
N38 C41 1.327 . S
C39 H25 0.931 1_545 S
C39 C41 1.392 . S
C39 C42 1.370 . S
C40 C36 1.432 . S
C40 N38 1.359 . S
C40 C43 1.414 . S
C41 H23 0.930 . S
C41 N38 1.327 . S
C41 C39 1.392 . S
C42 H37 0.930 1_545 S
C42 C39 1.370 . S
C42 C43 1.385 . S
C43 C40 1.414 . S
C43 C42 1.385 . S
C43 C65 1.444 . S
O44 Tb0 2.546 . S
O44 C64 1.251 . S
O45 Tb0 2.610 . S
O45 Tb11 2.362 . S
O45 C56 1.283 . S
O46 Tb11 2.421 . S
O46 C63 1.262 . S
O47 Tb0 2.320 . S
O47 C63 1.260 . S
O48 Tb0 2.552 . S
O48 C56 1.243 . S
O49 Tb0 2.413 . S
O49 C64 1.256 . S
O50 Tb11 2.546 . S
O50 C75 1.251 . S
O51 Tb0 2.362 . S
O51 Tb11 2.610 . S
O51 C67 1.283 . S
O52 Tb0 2.421 . S
O52 C74 1.262 . S
O53 Tb11 2.320 . S
O53 C74 1.260 . S
O54 Tb11 2.552 . S
O54 C67 1.243 . S
O55 Tb11 2.413 . S
O55 C75 1.256 . S
C56 O45 1.283 . S
C56 O48 1.243 . S
C57 C59 1.382 . S
C57 C61 1.393 . S
C57 C64 1.500 . S
C58 C59 1.400 . S
C58 C60 1.384 . S
C59 C57 1.382 . S
C59 C58 1.400 . S
C59 H76 0.930 . S
C60 C58 1.384 . S
C60 C62 1.392 . S
C60 H77 0.931 . S
C61 C57 1.393 . S
C61 C62 1.401 . S
C61 H78 0.930 . S
C62 C60 1.392 . S
C62 C61 1.401 . S
C62 H79 0.930 . S
C63 O46 1.262 . S
C63 O47 1.260 . S
C64 Tb0 2.833 . S
C64 O44 1.251 . S
C64 O49 1.256 . S
C64 C57 1.500 . S
C65 H30 0.929 . S
C65 C43 1.444 . S
C65 C66 1.317 . S
C66 H28 0.930 1_556 S
C66 C34 1.432 . S
C66 C65 1.317 . S
C67 O51 1.283 . S
C67 O54 1.243 . S
C68 C69 1.382 . S
C68 C72 1.393 . S
C68 C75 1.500 . S
C69 C68 1.382 . S
C69 C70 1.400 . S
C69 H80 0.930 . S
C70 C69 1.400 . S
C70 C71 1.384 . S
C71 C70 1.384 . S
C71 C73 1.392 . S
C71 H81 0.931 . S
C72 C68 1.393 . S
C72 C73 1.401 . S
C72 H82 0.930 . S
C73 C71 1.392 . S
C73 C72 1.401 . S
C73 H83 0.930 . S
C74 O52 1.262 . S
C74 O53 1.260 . S
C75 Tb11 2.833 . S
C75 O50 1.251 . S
C75 O55 1.256 . S
C75 C68 1.500 . S
H76 C59 0.930 . S
H77 C60 0.931 . S
H78 C61 0.930 . S
H79 C62 0.930 . S
H80 C69 0.930 . S
H81 C71 0.931 . S
H82 C72 0.930 . S
H83 C73 0.930 . S
Tb84 N115 2.660 . S
Tb84 N122 2.600 . S
Tb84 O128 2.546 . S
Tb84 O129 2.610 . S
Tb84 O131 2.320 . S
Tb84 O132 2.552 . S
Tb84 O133 2.413 . S
Tb84 O135 2.362 . S
Tb84 O136 2.421 . S
Tb84 C148 2.833 . S
C85 C88 1.432 . S
C85 C89 1.414 . S
C85 N92 1.359 . S
C86 C88 1.417 . S
C86 C90 1.432 1_554 S
C86 C98 1.410 1_554 S
C87 C89 1.444 1_556 S
C87 C90 1.317 . S
C87 H110 0.929 . S
C88 C85 1.432 . S
C88 C86 1.417 . S
C88 N96 1.360 . S
C89 C85 1.414 . S
C89 C87 1.444 1_554 S
C89 C94 1.385 . S
C90 C86 1.432 1_556 S
C90 C87 1.317 . S
C90 H102 0.930 . S
C91 C93 1.392 1_565 S
C91 C94 1.370 1_565 S
C91 H103 0.931 . S
N92 C85 1.359 . S
N92 C93 1.327 . S
N92 Tb95 2.600 . S
C93 C91 1.392 1_545 S
C93 N92 1.327 . S
C93 H100 0.930 . S
C94 C89 1.385 . S
C94 C91 1.370 1_545 S
C94 H113 0.930 1_545 S
Tb95 N92 2.600 . S
Tb95 N96 2.660 . S
Tb95 O129 2.362 . S
Tb95 O130 2.421 . S
Tb95 O134 2.546 . S
Tb95 O135 2.610 . S
Tb95 O137 2.320 . S
Tb95 O138 2.552 . S
Tb95 O139 2.413 . S
Tb95 C159 2.833 . S
N96 C88 1.360 . S
N96 Tb95 2.660 . S
N96 C97 1.305 . S
C97 N96 1.305 . S
C97 C99 1.407 . S
C97 H104 0.930 . S
C98 C86 1.410 1_556 S
C98 C99 1.345 1_556 S
C98 H106 0.930 . S
C99 C97 1.407 . S
C99 C98 1.345 1_554 S
C99 H101 0.930 . S
H100 C93 0.930 . S
H101 C99 0.930 . S
H102 C90 0.930 . S
H103 C91 0.931 . S
H104 C97 0.930 . S
H105 C119 0.930 . S
H106 C98 0.930 . S
H107 C125 0.930 . S
H108 C116 0.930 . S
H109 C123 0.931 . S
H110 C87 0.929 . S
H111 C117 0.930 . S
H112 C150 0.930 1_554 S
H113 C94 0.930 1_565 S
H114 C149 0.929 . S
N115 Tb84 2.660 . S
N115 C116 1.305 . S
N115 C120 1.360 . S
C116 H108 0.930 . S
C116 N115 1.305 . S
C116 C119 1.407 . S
C117 H111 0.930 . S
C117 C118 1.410 . S
C117 C119 1.345 . S
C118 C117 1.410 . S
C118 C120 1.417 . S
C118 C150 1.432 . S
C119 H105 0.930 . S
C119 C116 1.407 . S
C119 C117 1.345 . S
C120 N115 1.360 . S
C120 C118 1.417 . S
C120 C124 1.432 . S
H121 C126 0.930 . S
N122 Tb84 2.600 . S
N122 C124 1.359 . S
N122 C125 1.327 . S
C123 H109 0.931 . S
C123 C125 1.392 . S
C123 C126 1.370 . S
C124 C120 1.432 . S
C124 N122 1.359 . S
C124 C127 1.414 . S
C125 H107 0.930 . S
C125 N122 1.327 . S
C125 C123 1.392 . S
C126 H121 0.930 . S
C126 C123 1.370 . S
C126 C127 1.385 . S
C127 C124 1.414 . S
C127 C126 1.385 . S
C127 C149 1.444 . S
O128 Tb84 2.546 . S
O128 C148 1.251 . S
O129 Tb84 2.610 . S
O129 Tb95 2.362 . S
O129 C140 1.283 . S
O130 Tb95 2.421 . S
O130 C147 1.262 . S
O131 Tb84 2.320 . S
O131 C147 1.260 . S
O132 Tb84 2.552 . S
O132 C140 1.243 . S
O133 Tb84 2.413 . S
O133 C148 1.256 . S
O134 Tb95 2.546 . S
O134 C159 1.251 . S
O135 Tb84 2.362 . S
O135 Tb95 2.610 . S
O135 C151 1.283 . S
O136 Tb84 2.421 . S
O136 C158 1.262 . S
O137 Tb95 2.320 . S
O137 C158 1.260 . S
O138 Tb95 2.552 . S
O138 C151 1.243 . S
O139 Tb95 2.413 . S
O139 C159 1.256 . S
C140 O129 1.283 . S
C140 O132 1.243 . S
C141 C143 1.382 . S
C141 C145 1.393 . S
C141 C148 1.500 . S
C142 C143 1.400 . S
C142 C144 1.384 . S
C143 C141 1.382 . S
C143 C142 1.400 . S
C143 H160 0.930 . S
C144 C142 1.384 . S
C144 C146 1.392 . S
C144 H161 0.931 . S
C145 C141 1.393 . S
C145 C146 1.401 . S
C145 H162 0.930 . S
C146 C144 1.392 . S
C146 C145 1.401 . S
C146 H163 0.930 . S
C147 O130 1.262 . S
C147 O131 1.260 . S
C148 Tb84 2.833 . S
C148 O128 1.251 . S
C148 O133 1.256 . S
C148 C141 1.500 . S
C149 H114 0.929 . S
C149 C127 1.444 . S
C149 C150 1.317 . S
C150 H112 0.930 1_556 S
C150 C118 1.432 . S
C150 C149 1.317 . S
C151 O135 1.283 . S
C151 O138 1.243 . S
C152 C153 1.382 . S
C152 C156 1.393 . S
C152 C159 1.500 . S
C153 C152 1.382 . S
C153 C154 1.400 . S
C153 H164 0.930 . S
C154 C153 1.400 . S
C154 C155 1.384 . S
C155 C154 1.384 . S
C155 C157 1.392 . S
C155 H165 0.931 . S
C156 C152 1.393 . S
C156 C157 1.401 . S
C156 H166 0.930 . S
C157 C155 1.392 . S
C157 C156 1.401 . S
C157 H167 0.930 . S
C158 O136 1.262 . S
C158 O137 1.260 . S
C159 Tb95 2.833 . S
C159 O134 1.251 . S
C159 O139 1.256 . S
C159 C152 1.500 . S
H160 C143 0.930 . S
H161 C144 0.931 . S
H162 C145 0.930 . S
H163 C146 0.930 . S
H164 C153 0.930 . S
H165 C155 0.931 . S
H166 C156 0.930 . S
H167 C157 0.930 . S
Tb168 N199 2.660 . S
Tb168 N206 2.600 . S
Tb168 O212 2.546 . S
Tb168 O213 2.610 . S
Tb168 O215 2.320 . S
Tb168 O216 2.552 . S
Tb168 O217 2.413 . S
Tb168 O219 2.362 . S
Tb168 O220 2.421 . S
Tb168 C232 2.833 . S
C169 C172 1.432 . S
C169 C173 1.414 . S
C169 N176 1.359 . S
C170 C172 1.417 . S
C170 C174 1.432 . S
C170 C182 1.410 . S
C171 C173 1.444 . S
C171 C174 1.317 . S
C171 H194 0.929 . S
C172 C169 1.432 . S
C172 C170 1.417 . S
C172 N180 1.360 . S
C173 C169 1.414 . S
C173 C171 1.444 . S
C173 C178 1.385 . S
C174 C170 1.432 . S
C174 C171 1.317 . S
C174 H186 0.930 1_554 S
C175 C177 1.392 . S
C175 C178 1.370 . S
C175 H187 0.931 . S
N176 C169 1.359 . S
N176 C177 1.327 . S
N176 Tb179 2.600 . S
C177 C175 1.392 . S
C177 N176 1.327 . S
C177 H184 0.930 . S
C178 C173 1.385 . S
C178 C175 1.370 . S
C178 H197 0.930 . S
Tb179 N176 2.600 . S
Tb179 N180 2.660 . S
Tb179 O213 2.362 . S
Tb179 O214 2.421 . S
Tb179 O218 2.546 . S
Tb179 O219 2.610 . S
Tb179 O221 2.320 . S
Tb179 O222 2.552 . S
Tb179 O223 2.413 . S
Tb179 C243 2.833 . S
N180 C172 1.360 . S
N180 Tb179 2.660 . S
N180 C181 1.305 . S
C181 N180 1.305 . S
C181 C183 1.407 . S
C181 H188 0.930 . S
C182 C170 1.410 . S
C182 C183 1.345 . S
C182 H190 0.930 . S
C183 C181 1.407 . S
C183 C182 1.345 . S
C183 H185 0.930 . S
H184 C177 0.930 . S
H185 C183 0.930 . S
H186 C174 0.930 1_556 S
H187 C175 0.931 . S
H188 C181 0.930 . S
H189 C203 0.930 . S
H190 C182 0.930 . S
H191 C209 0.930 . S
H192 C200 0.930 . S
H193 C207 0.931 . S
H194 C171 0.929 . S
H195 C201 0.930 . S
H196 C234 0.930 . S
H197 C178 0.930 . S
H198 C233 0.929 . S
N199 Tb168 2.660 . S
N199 C200 1.305 . S
N199 C204 1.360 . S
C200 H192 0.930 . S
C200 N199 1.305 . S
C200 C203 1.407 . S
C201 H195 0.930 . S
C201 C202 1.410 1_554 S
C201 C203 1.345 1_554 S
C202 C201 1.410 1_556 S
C202 C204 1.417 . S
C202 C234 1.432 1_556 S
C203 H189 0.930 . S
C203 C200 1.407 . S
C203 C201 1.345 1_556 S
C204 N199 1.360 . S
C204 C202 1.417 . S
C204 C208 1.432 . S
H205 C210 0.930 1_545 S
N206 Tb168 2.600 . S
N206 C208 1.359 . S
N206 C209 1.327 . S
C207 H193 0.931 . S
C207 C209 1.392 1_545 S
C207 C210 1.370 1_545 S
C208 C204 1.432 . S
C208 N206 1.359 . S
C208 C211 1.414 . S
C209 H191 0.930 . S
C209 N206 1.327 . S
C209 C207 1.392 1_565 S
C210 H205 0.930 1_565 S
C210 C207 1.370 1_565 S
C210 C211 1.385 . S
C211 C208 1.414 . S
C211 C210 1.385 . S
C211 C233 1.444 1_556 S
O212 Tb168 2.546 . S
O212 C232 1.251 . S
O213 Tb168 2.610 . S
O213 Tb179 2.362 . S
O213 C224 1.283 . S
O214 Tb179 2.421 . S
O214 C231 1.262 . S
O215 Tb168 2.320 . S
O215 C231 1.260 . S
O216 Tb168 2.552 . S
O216 C224 1.243 . S
O217 Tb168 2.413 . S
O217 C232 1.256 . S
O218 Tb179 2.546 . S
O218 C243 1.251 . S
O219 Tb168 2.362 . S
O219 Tb179 2.610 . S
O219 C235 1.283 . S
O220 Tb168 2.421 . S
O220 C242 1.262 . S
O221 Tb179 2.320 . S
O221 C242 1.260 . S
O222 Tb179 2.552 . S
O222 C235 1.243 . S
O223 Tb179 2.413 . S
O223 C243 1.256 . S
C224 O213 1.283 . S
C224 O216 1.243 . S
C225 C227 1.382 . S
C225 C229 1.393 . S
C225 C232 1.500 . S
C226 C227 1.400 . S
C226 C228 1.384 . S
C227 C225 1.382 . S
C227 C226 1.400 . S
C227 H244 0.930 . S
C228 C226 1.384 . S
C228 C230 1.392 . S
C228 H245 0.931 . S
C229 C225 1.393 . S
C229 C230 1.401 . S
C229 H246 0.930 . S
C230 C228 1.392 . S
C230 C229 1.401 . S
C230 H247 0.930 . S
C231 O214 1.262 . S
C231 O215 1.260 . S
C232 Tb168 2.833 . S
C232 O212 1.251 . S
C232 O217 1.256 . S
C232 C225 1.500 . S
C233 H198 0.929 . S
C233 C211 1.444 1_554 S
C233 C234 1.317 . S
C234 H196 0.930 . S
C234 C202 1.432 1_554 S
C234 C233 1.317 . S
C235 O219 1.283 . S
C235 O222 1.243 . S
C236 C237 1.382 . S
C236 C240 1.393 . S
C236 C243 1.500 . S
C237 C236 1.382 . S
C237 C238 1.400 . S
C237 H248 0.930 . S
C238 C237 1.400 . S
C238 C239 1.384 . S
C239 C238 1.384 . S
C239 C241 1.392 . S
C239 H249 0.931 . S
C240 C236 1.393 . S
C240 C241 1.401 . S
C240 H250 0.930 . S
C241 C239 1.392 . S
C241 C240 1.401 . S
C241 H251 0.930 . S
C242 O220 1.262 . S
C242 O221 1.260 . S
C243 Tb179 2.833 . S
C243 O218 1.251 . S
C243 O223 1.256 . S
C243 C236 1.500 . S
H244 C227 0.930 . S
H245 C228 0.931 . S
H246 C229 0.930 . S
H247 C230 0.930 . S
H248 C237 0.930 . S
H249 C239 0.931 . S
H250 C240 0.930 . S
H251 C241 0.930 . S
Tb252 N283 2.660 . S
Tb252 N290 2.600 . S
Tb252 O296 2.546 . S
Tb252 O297 2.610 . S
Tb252 O299 2.320 . S
Tb252 O300 2.552 . S
Tb252 O301 2.413 . S
Tb252 O303 2.362 . S
Tb252 O304 2.421 . S
Tb252 C316 2.833 . S
C253 C256 1.432 . S
C253 C257 1.414 . S
C253 N260 1.359 . S
C254 C256 1.417 . S
C254 C258 1.432 . S
C254 C266 1.410 . S
C255 C257 1.444 . S
C255 C258 1.317 . S
C255 H278 0.929 . S
C256 C253 1.432 . S
C256 C254 1.417 . S
C256 N264 1.360 . S
C257 C253 1.414 . S
C257 C255 1.444 . S
C257 C262 1.385 . S
C258 C254 1.432 . S
C258 C255 1.317 . S
C258 H270 0.930 1_554 S
C259 C261 1.392 . S
C259 C262 1.370 . S
C259 H271 0.931 1_565 S
N260 C253 1.359 . S
N260 C261 1.327 . S
N260 Tb263 2.600 . S
C261 C259 1.392 . S
C261 N260 1.327 . S
C261 H268 0.930 . S
C262 C257 1.385 . S
C262 C259 1.370 . S
C262 H281 0.930 1_565 S
Tb263 N260 2.600 . S
Tb263 N264 2.660 . S
Tb263 O297 2.362 . S
Tb263 O298 2.421 . S
Tb263 O302 2.546 . S
Tb263 O303 2.610 . S
Tb263 O305 2.320 . S
Tb263 O306 2.552 . S
Tb263 O307 2.413 . S
Tb263 C327 2.833 . S
N264 C256 1.360 . S
N264 Tb263 2.660 . S
N264 C265 1.305 . S
C265 N264 1.305 . S
C265 C267 1.407 . S
C265 H272 0.930 . S
C266 C254 1.410 . S
C266 C267 1.345 . S
C266 H274 0.930 . S
C267 C265 1.407 . S
C267 C266 1.345 . S
C267 H269 0.930 . S
H268 C261 0.930 . S
H269 C267 0.930 . S
H270 C258 0.930 1_556 S
H271 C259 0.931 1_545 S
H272 C265 0.930 . S
H273 C287 0.930 . S
H274 C266 0.930 . S
H275 C293 0.930 . S
H276 C284 0.930 . S
H277 C291 0.931 . S
H278 C255 0.929 . S
H279 C285 0.930 . S
H280 C318 0.930 . S
H281 C262 0.930 1_545 S
H282 C317 0.929 . S
N283 Tb252 2.660 . S
N283 C284 1.305 . S
N283 C288 1.360 . S
C284 H276 0.930 . S
C284 N283 1.305 . S
C284 C287 1.407 . S
C285 H279 0.930 . S
C285 C286 1.410 1_554 S
C285 C287 1.345 1_554 S
C286 C285 1.410 1_556 S
C286 C288 1.417 . S
C286 C318 1.432 1_556 S
C287 H273 0.930 . S
C287 C284 1.407 . S
C287 C285 1.345 1_556 S
C288 N283 1.360 . S
C288 C286 1.417 . S
C288 C292 1.432 . S
H289 C294 0.930 . S
N290 Tb252 2.600 . S
N290 C292 1.359 . S
N290 C293 1.327 . S
C291 H277 0.931 . S
C291 C293 1.392 . S
C291 C294 1.370 . S
C292 C288 1.432 . S
C292 N290 1.359 . S
C292 C295 1.414 . S
C293 H275 0.930 . S
C293 N290 1.327 . S
C293 C291 1.392 . S
C294 H289 0.930 . S
C294 C291 1.370 . S
C294 C295 1.385 . S
C295 C292 1.414 . S
C295 C294 1.385 . S
C295 C317 1.444 1_556 S
O296 Tb252 2.546 . S
O296 C316 1.251 . S
O297 Tb252 2.610 . S
O297 Tb263 2.362 . S
O297 C308 1.283 . S
O298 Tb263 2.421 . S
O298 C315 1.262 . S
O299 Tb252 2.320 . S
O299 C315 1.260 . S
O300 Tb252 2.552 . S
O300 C308 1.243 . S
O301 Tb252 2.413 . S
O301 C316 1.256 . S
O302 Tb263 2.546 . S
O302 C327 1.251 . S
O303 Tb252 2.362 . S
O303 Tb263 2.610 . S
O303 C319 1.283 . S
O304 Tb252 2.421 . S
O304 C326 1.262 . S
O305 Tb263 2.320 . S
O305 C326 1.260 . S
O306 Tb263 2.552 . S
O306 C319 1.243 . S
O307 Tb263 2.413 . S
O307 C327 1.256 . S
C308 O297 1.283 . S
C308 O300 1.243 . S
C309 C311 1.382 . S
C309 C313 1.393 . S
C309 C316 1.500 . S
C310 C311 1.400 . S
C310 C312 1.384 . S
C311 C309 1.382 . S
C311 C310 1.400 . S
C311 H328 0.930 . S
C312 C310 1.384 . S
C312 C314 1.392 . S
C312 H329 0.931 . S
C313 C309 1.393 . S
C313 C314 1.401 . S
C313 H330 0.930 . S
C314 C312 1.392 . S
C314 C313 1.401 . S
C314 H331 0.930 . S
C315 O298 1.262 . S
C315 O299 1.260 . S
C316 Tb252 2.833 . S
C316 O296 1.251 . S
C316 O301 1.256 . S
C316 C309 1.500 . S
C317 H282 0.929 . S
C317 C295 1.444 1_554 S
C317 C318 1.317 . S
C318 H280 0.930 . S
C318 C286 1.432 1_554 S
C318 C317 1.317 . S
C319 O303 1.283 . S
C319 O306 1.243 . S
C320 C321 1.382 . S
C320 C324 1.393 . S
C320 C327 1.500 . S
C321 C320 1.382 . S
C321 C322 1.400 . S
C321 H332 0.930 . S
C322 C321 1.400 . S
C322 C323 1.384 . S
C323 C322 1.384 . S
C323 C325 1.392 . S
C323 H333 0.931 . S
C324 C320 1.393 . S
C324 C325 1.401 . S
C324 H334 0.930 . S
C325 C323 1.392 . S
C325 C324 1.401 . S
C325 H335 0.930 . S
C326 O304 1.262 . S
C326 O305 1.260 . S
C327 Tb263 2.833 . S
C327 O302 1.251 . S
C327 O307 1.256 . S
C327 C320 1.500 . S
H328 C311 0.930 . S
H329 C312 0.931 . S
H330 C313 0.930 . S
H331 C314 0.930 . S
H332 C321 0.930 . S
H333 C323 0.931 . S
H334 C324 0.930 . S
H335 C325 0.930 . S
Tb336 N367 2.660 . S
Tb336 N374 2.600 . S
Tb336 O380 2.546 1_554 S
Tb336 O381 2.610 1_554 S
Tb336 O383 2.320 . S
Tb336 O384 2.552 1_554 S
Tb336 O385 2.413 1_554 S
Tb336 O387 2.362 . S
Tb336 O388 2.421 1_554 S
Tb336 C400 2.833 1_554 S
C337 C340 1.432 . S
C337 C341 1.414 . S
C337 N344 1.359 . S
C338 C340 1.417 . S
C338 C342 1.432 . S
C338 C350 1.410 . S
C339 C341 1.444 . S
C339 C342 1.317 . S
C339 H362 0.929 . S
C340 C337 1.432 . S
C340 C338 1.417 . S
C340 N348 1.360 . S
C341 C337 1.414 . S
C341 C339 1.444 . S
C341 C346 1.385 . S
C342 C338 1.432 . S
C342 C339 1.317 . S
C342 H354 0.930 . S
C343 C345 1.392 1_545 S
C343 C346 1.370 1_545 S
C343 H355 0.931 . S
N344 C337 1.359 . S
N344 C345 1.327 . S
N344 Tb347 2.600 . S
C345 C343 1.392 1_565 S
C345 N344 1.327 . S
C345 H352 0.930 . S
C346 C341 1.385 . S
C346 C343 1.370 1_565 S
C346 H365 0.930 1_565 S
Tb347 N344 2.600 . S
Tb347 N348 2.660 . S
Tb347 O381 2.362 . S
Tb347 O382 2.421 1_556 S
Tb347 O386 2.546 1_556 S
Tb347 O387 2.610 1_556 S
Tb347 O389 2.320 . S
Tb347 O390 2.552 1_556 S
Tb347 O391 2.413 1_556 S
Tb347 C411 2.833 1_556 S
N348 C340 1.360 . S
N348 Tb347 2.660 . S
N348 C349 1.305 . S
C349 N348 1.305 . S
C349 C351 1.407 . S
C349 H356 0.930 . S
C350 C338 1.410 . S
C350 C351 1.345 . S
C350 H358 0.930 . S
C351 C349 1.407 . S
C351 C350 1.345 . S
C351 H353 0.930 . S
H352 C345 0.930 . S
H353 C351 0.930 . S
H354 C342 0.930 . S
H355 C343 0.931 . S
H356 C349 0.930 . S
H357 C371 0.930 . S
H358 C350 0.930 . S
H359 C377 0.930 . S
H360 C368 0.930 . S
H361 C375 0.931 . S
H362 C339 0.929 . S
H363 C369 0.930 . S
H364 C402 0.930 . S
H365 C346 0.930 1_545 S
H366 C401 0.929 . S
N367 Tb336 2.660 . S
N367 C368 1.305 . S
N367 C372 1.360 . S
C368 H360 0.930 . S
C368 N367 1.305 . S
C368 C371 1.407 . S
C369 H363 0.930 . S
C369 C370 1.410 . S
C369 C371 1.345 . S
C370 C369 1.410 . S
C370 C372 1.417 . S
C370 C402 1.432 . S
C371 H357 0.930 . S
C371 C368 1.407 . S
C371 C369 1.345 . S
C372 N367 1.360 . S
C372 C370 1.417 . S
C372 C376 1.432 . S
H373 C378 0.930 . S
N374 Tb336 2.600 . S
N374 C376 1.359 . S
N374 C377 1.327 . S
C375 H361 0.931 . S
C375 C377 1.392 . S
C375 C378 1.370 . S
C376 C372 1.432 . S
C376 N374 1.359 . S
C376 C379 1.414 . S
C377 H359 0.930 . S
C377 N374 1.327 . S
C377 C375 1.392 . S
C378 H373 0.930 . S
C378 C375 1.370 . S
C378 C379 1.385 . S
C379 C376 1.414 . S
C379 C378 1.385 . S
C379 C401 1.444 . S
O380 Tb336 2.546 1_556 S
O380 C400 1.251 . S
O381 Tb336 2.610 1_556 S
O381 Tb347 2.362 . S
O381 C392 1.283 . S
O382 Tb347 2.421 1_554 S
O382 C399 1.262 1_554 S
O383 Tb336 2.320 . S
O383 C399 1.260 1_554 S
O384 Tb336 2.552 1_556 S
O384 C392 1.243 . S
O385 Tb336 2.413 1_556 S
O385 C400 1.256 . S
O386 Tb347 2.546 1_554 S
O386 C411 1.251 . S
O387 Tb336 2.362 . S
O387 Tb347 2.610 1_554 S
O387 C403 1.283 . S
O388 Tb336 2.421 1_556 S
O388 C410 1.262 1_556 S
O389 Tb347 2.320 . S
O389 C410 1.260 1_556 S
O390 Tb347 2.552 1_554 S
O390 C403 1.243 . S
O391 Tb347 2.413 1_554 S
O391 C411 1.256 . S
C392 O381 1.283 . S
C392 O384 1.243 . S
C393 C395 1.382 . S
C393 C397 1.393 . S
C393 C400 1.500 . S
C394 C395 1.400 . S
C394 C396 1.384 . S
C395 C393 1.382 . S
C395 C394 1.400 . S
C395 H412 0.930 . S
C396 C394 1.384 . S
C396 C398 1.392 . S
C396 H413 0.931 . S
C397 C393 1.393 . S
C397 C398 1.401 . S
C397 H414 0.930 . S
C398 C396 1.392 . S
C398 C397 1.401 . S
C398 H415 0.930 . S
C399 O382 1.262 1_556 S
C399 O383 1.260 1_556 S
C400 Tb336 2.833 1_556 S
C400 O380 1.251 . S
C400 O385 1.256 . S
C400 C393 1.500 . S
C401 H366 0.929 . S
C401 C379 1.444 . S
C401 C402 1.317 . S
C402 H364 0.930 . S
C402 C370 1.432 . S
C402 C401 1.317 . S
C403 O387 1.283 . S
C403 O390 1.243 . S
C404 C405 1.382 . S
C404 C408 1.393 . S
C404 C411 1.500 . S
C405 C404 1.382 . S
C405 C406 1.400 . S
C405 H416 0.930 . S
C406 C405 1.400 . S
C406 C407 1.384 . S
C407 C406 1.384 . S
C407 C409 1.392 . S
C407 H417 0.931 . S
C408 C404 1.393 . S
C408 C409 1.401 . S
C408 H418 0.930 . S
C409 C407 1.392 . S
C409 C408 1.401 . S
C409 H419 0.930 . S
C410 O388 1.262 1_554 S
C410 O389 1.260 1_554 S
C411 Tb347 2.833 1_554 S
C411 O386 1.251 . S
C411 O391 1.256 . S
C411 C404 1.500 . S
H412 C395 0.930 . S
H413 C396 0.931 . S
H414 C397 0.930 . S
H415 C398 0.930 . S
H416 C405 0.930 . S
H417 C407 0.931 . S
H418 C408 0.930 . S
H419 C409 0.930 . S
Tb420 N451 2.660 . S
Tb420 N458 2.600 . S
Tb420 O464 2.546 1_554 S
Tb420 O465 2.610 1_554 S
Tb420 O467 2.320 . S
Tb420 O468 2.552 1_554 S
Tb420 O469 2.413 1_554 S
Tb420 O471 2.362 . S
Tb420 O472 2.421 1_554 S
Tb420 C484 2.833 1_554 S
C421 C424 1.432 . S
C421 C425 1.414 . S
C421 N428 1.359 . S
C422 C424 1.417 . S
C422 C426 1.432 . S
C422 C434 1.410 . S
C423 C425 1.444 . S
C423 C426 1.317 . S
C423 H446 0.929 . S
C424 C421 1.432 . S
C424 C422 1.417 . S
C424 N432 1.360 . S
C425 C421 1.414 . S
C425 C423 1.444 . S
C425 C430 1.385 . S
C426 C422 1.432 . S
C426 C423 1.317 . S
C426 H438 0.930 . S
C427 C429 1.392 . S
C427 C430 1.370 . S
C427 H439 0.931 . S
N428 C421 1.359 . S
N428 C429 1.327 . S
N428 Tb431 2.600 . S
C429 C427 1.392 . S
C429 N428 1.327 . S
C429 H436 0.930 . S
C430 C425 1.385 . S
C430 C427 1.370 . S
C430 H449 0.930 . S
Tb431 N428 2.600 . S
Tb431 N432 2.660 . S
Tb431 O465 2.362 . S
Tb431 O466 2.421 1_556 S
Tb431 O470 2.546 1_556 S
Tb431 O471 2.610 1_556 S
Tb431 O473 2.320 . S
Tb431 O474 2.552 1_556 S
Tb431 O475 2.413 1_556 S
Tb431 C495 2.833 1_556 S
N432 C424 1.360 . S
N432 Tb431 2.660 . S
N432 C433 1.305 . S
C433 N432 1.305 . S
C433 C435 1.407 . S
C433 H440 0.930 . S
C434 C422 1.410 . S
C434 C435 1.345 . S
C434 H442 0.930 . S
C435 C433 1.407 . S
C435 C434 1.345 . S
C435 H437 0.930 . S
H436 C429 0.930 . S
H437 C435 0.930 . S
H438 C426 0.930 . S
H439 C427 0.931 . S
H440 C433 0.930 . S
H441 C455 0.930 . S
H442 C434 0.930 . S
H443 C461 0.930 . S
H444 C452 0.930 . S
H445 C459 0.931 1_545 S
H446 C423 0.929 . S
H447 C453 0.930 . S
H448 C486 0.930 . S
H449 C430 0.930 . S
H450 C485 0.929 . S
N451 Tb420 2.660 . S
N451 C452 1.305 . S
N451 C456 1.360 . S
C452 H444 0.930 . S
C452 N451 1.305 . S
C452 C455 1.407 . S
C453 H447 0.930 . S
C453 C454 1.410 . S
C453 C455 1.345 . S
C454 C453 1.410 . S
C454 C456 1.417 . S
C454 C486 1.432 . S
C455 H441 0.930 . S
C455 C452 1.407 . S
C455 C453 1.345 . S
C456 N451 1.360 . S
C456 C454 1.417 . S
C456 C460 1.432 . S
H457 C462 0.930 1_545 S
N458 Tb420 2.600 . S
N458 C460 1.359 . S
N458 C461 1.327 . S
C459 H445 0.931 1_565 S
C459 C461 1.392 . S
C459 C462 1.370 . S
C460 C456 1.432 . S
C460 N458 1.359 . S
C460 C463 1.414 . S
C461 H443 0.930 . S
C461 N458 1.327 . S
C461 C459 1.392 . S
C462 H457 0.930 1_565 S
C462 C459 1.370 . S
C462 C463 1.385 . S
C463 C460 1.414 . S
C463 C462 1.385 . S
C463 C485 1.444 . S
O464 Tb420 2.546 1_556 S
O464 C484 1.251 . S
O465 Tb420 2.610 1_556 S
O465 Tb431 2.362 . S
O465 C476 1.283 . S
O466 Tb431 2.421 1_554 S
O466 C483 1.262 1_554 S
O467 Tb420 2.320 . S
O467 C483 1.260 1_554 S
O468 Tb420 2.552 1_556 S
O468 C476 1.243 . S
O469 Tb420 2.413 1_556 S
O469 C484 1.256 . S
O470 Tb431 2.546 1_554 S
O470 C495 1.251 . S
O471 Tb420 2.362 . S
O471 Tb431 2.610 1_554 S
O471 C487 1.283 . S
O472 Tb420 2.421 1_556 S
O472 C494 1.262 1_556 S
O473 Tb431 2.320 . S
O473 C494 1.260 1_556 S
O474 Tb431 2.552 1_554 S
O474 C487 1.243 . S
O475 Tb431 2.413 1_554 S
O475 C495 1.256 . S
C476 O465 1.283 . S
C476 O468 1.243 . S
C477 C479 1.382 . S
C477 C481 1.393 . S
C477 C484 1.500 . S
C478 C479 1.400 . S
C478 C480 1.384 . S
C479 C477 1.382 . S
C479 C478 1.400 . S
C479 H496 0.930 . S
C480 C478 1.384 . S
C480 C482 1.392 . S
C480 H497 0.931 . S
C481 C477 1.393 . S
C481 C482 1.401 . S
C481 H498 0.930 . S
C482 C480 1.392 . S
C482 C481 1.401 . S
C482 H499 0.930 . S
C483 O466 1.262 1_556 S
C483 O467 1.260 1_556 S
C484 Tb420 2.833 1_556 S
C484 O464 1.251 . S
C484 O469 1.256 . S
C484 C477 1.500 . S
C485 H450 0.929 . S
C485 C463 1.444 . S
C485 C486 1.317 . S
C486 H448 0.930 . S
C486 C454 1.432 . S
C486 C485 1.317 . S
C487 O471 1.283 . S
C487 O474 1.243 . S
C488 C489 1.382 . S
C488 C492 1.393 . S
C488 C495 1.500 . S
C489 C488 1.382 . S
C489 C490 1.400 . S
C489 H500 0.930 . S
C490 C489 1.400 . S
C490 C491 1.384 . S
C491 C490 1.384 . S
C491 C493 1.392 . S
C491 H501 0.931 . S
C492 C488 1.393 . S
C492 C493 1.401 . S
C492 H502 0.930 . S
C493 C491 1.392 . S
C493 C492 1.401 . S
C493 H503 0.930 . S
C494 O472 1.262 1_554 S
C494 O473 1.260 1_554 S
C495 Tb431 2.833 1_554 S
C495 O470 1.251 . S
C495 O475 1.256 . S
C495 C488 1.500 . S
H496 C479 0.930 . S
H497 C480 0.931 . S
H498 C481 0.930 . S
H499 C482 0.930 . S
H500 C489 0.930 . S
H501 C491 0.931 . S
H502 C492 0.930 . S
H503 C493 0.930 . S
Tb504 N535 2.660 . S
Tb504 N542 2.600 . S
Tb504 O548 2.546 1_554 S
Tb504 O549 2.610 1_554 S
Tb504 O551 2.320 . S
Tb504 O552 2.552 1_554 S
Tb504 O553 2.413 1_554 S
Tb504 O555 2.362 . S
Tb504 O556 2.421 1_554 S
Tb504 C568 2.833 1_554 S
C505 C508 1.432 . S
C505 C509 1.414 . S
C505 N512 1.359 . S
C506 C508 1.417 . S
C506 C510 1.432 . S
C506 C518 1.410 . S
C507 C509 1.444 . S
C507 C510 1.317 . S
C507 H530 0.929 . S
C508 C505 1.432 . S
C508 C506 1.417 . S
C508 N516 1.360 . S
C509 C505 1.414 . S
C509 C507 1.444 . S
C509 C514 1.385 . S
C510 C506 1.432 . S
C510 C507 1.317 . S
C510 H522 0.930 . S
C511 C513 1.392 . S
C511 C514 1.370 . S
C511 H523 0.931 1_545 S
N512 C505 1.359 . S
N512 C513 1.327 . S
N512 Tb515 2.600 . S
C513 C511 1.392 . S
C513 N512 1.327 . S
C513 H520 0.930 . S
C514 C509 1.385 . S
C514 C511 1.370 . S
C514 H533 0.930 1_545 S
Tb515 N512 2.600 . S
Tb515 N516 2.660 . S
Tb515 O549 2.362 . S
Tb515 O550 2.421 1_556 S
Tb515 O554 2.546 1_556 S
Tb515 O555 2.610 1_556 S
Tb515 O557 2.320 . S
Tb515 O558 2.552 1_556 S
Tb515 O559 2.413 1_556 S
Tb515 C579 2.833 1_556 S
N516 C508 1.360 . S
N516 Tb515 2.660 . S
N516 C517 1.305 . S
C517 N516 1.305 . S
C517 C519 1.407 . S
C517 H524 0.930 . S
C518 C506 1.410 . S
C518 C519 1.345 . S
C518 H526 0.930 . S
C519 C517 1.407 . S
C519 C518 1.345 . S
C519 H521 0.930 . S
H520 C513 0.930 . S
H521 C519 0.930 . S
H522 C510 0.930 . S
H523 C511 0.931 1_565 S
H524 C517 0.930 . S
H525 C539 0.930 . S
H526 C518 0.930 . S
H527 C545 0.930 . S
H528 C536 0.930 . S
H529 C543 0.931 . S
H530 C507 0.929 . S
H531 C537 0.930 . S
H532 C570 0.930 . S
H533 C514 0.930 1_565 S
H534 C569 0.929 . S
N535 Tb504 2.660 . S
N535 C536 1.305 . S
N535 C540 1.360 . S
C536 H528 0.930 . S
C536 N535 1.305 . S
C536 C539 1.407 . S
C537 H531 0.930 . S
C537 C538 1.410 . S
C537 C539 1.345 . S
C538 C537 1.410 . S
C538 C540 1.417 . S
C538 C570 1.432 . S
C539 H525 0.930 . S
C539 C536 1.407 . S
C539 C537 1.345 . S
C540 N535 1.360 . S
C540 C538 1.417 . S
C540 C544 1.432 . S
H541 C546 0.930 . S
N542 Tb504 2.600 . S
N542 C544 1.359 . S
N542 C545 1.327 . S
C543 H529 0.931 . S
C543 C545 1.392 . S
C543 C546 1.370 . S
C544 C540 1.432 . S
C544 N542 1.359 . S
C544 C547 1.414 . S
C545 H527 0.930 . S
C545 N542 1.327 . S
C545 C543 1.392 . S
C546 H541 0.930 . S
C546 C543 1.370 . S
C546 C547 1.385 . S
C547 C544 1.414 . S
C547 C546 1.385 . S
C547 C569 1.444 . S
O548 Tb504 2.546 1_556 S
O548 C568 1.251 . S
O549 Tb504 2.610 1_556 S
O549 Tb515 2.362 . S
O549 C560 1.283 . S
O550 Tb515 2.421 1_554 S
O550 C567 1.262 1_554 S
O551 Tb504 2.320 . S
O551 C567 1.260 1_554 S
O552 Tb504 2.552 1_556 S
O552 C560 1.243 . S
O553 Tb504 2.413 1_556 S
O553 C568 1.256 . S
O554 Tb515 2.546 1_554 S
O554 C579 1.251 . S
O555 Tb504 2.362 . S
O555 Tb515 2.610 1_554 S
O555 C571 1.283 . S
O556 Tb504 2.421 1_556 S
O556 C578 1.262 1_556 S
O557 Tb515 2.320 . S
O557 C578 1.260 1_556 S
O558 Tb515 2.552 1_554 S
O558 C571 1.243 . S
O559 Tb515 2.413 1_554 S
O559 C579 1.256 . S
C560 O549 1.283 . S
C560 O552 1.243 . S
C561 C563 1.382 . S
C561 C565 1.393 . S
C561 C568 1.500 . S
C562 C563 1.400 . S
C562 C564 1.384 . S
C563 C561 1.382 . S
C563 C562 1.400 . S
C563 H580 0.930 . S
C564 C562 1.384 . S
C564 C566 1.392 . S
C564 H581 0.931 . S
C565 C561 1.393 . S
C565 C566 1.401 . S
C565 H582 0.930 . S
C566 C564 1.392 . S
C566 C565 1.401 . S
C566 H583 0.930 . S
C567 O550 1.262 1_556 S
C567 O551 1.260 1_556 S
C568 Tb504 2.833 1_556 S
C568 O548 1.251 . S
C568 O553 1.256 . S
C568 C561 1.500 . S
C569 H534 0.929 . S
C569 C547 1.444 . S
C569 C570 1.317 . S
C570 H532 0.930 . S
C570 C538 1.432 . S
C570 C569 1.317 . S
C571 O555 1.283 . S
C571 O558 1.243 . S
C572 C573 1.382 . S
C572 C576 1.393 . S
C572 C579 1.500 . S
C573 C572 1.382 . S
C573 C574 1.400 . S
C573 H584 0.930 . S
C574 C573 1.400 . S
C574 C575 1.384 . S
C575 C574 1.384 . S
C575 C577 1.392 . S
C575 H585 0.931 . S
C576 C572 1.393 . S
C576 C577 1.401 . S
C576 H586 0.930 . S
C577 C575 1.392 . S
C577 C576 1.401 . S
C577 H587 0.930 . S
C578 O556 1.262 1_554 S
C578 O557 1.260 1_554 S
C579 Tb515 2.833 1_554 S
C579 O554 1.251 . S
C579 O559 1.256 . S
C579 C572 1.500 . S
H580 C563 0.930 . S
H581 C564 0.931 . S
H582 C565 0.930 . S
H583 C566 0.930 . S
H584 C573 0.930 . S
H585 C575 0.931 . S
H586 C576 0.930 . S
H587 C577 0.930 . S
Tb588 N619 2.660 . S
Tb588 N626 2.600 . S
Tb588 O632 2.546 1_554 S
Tb588 O633 2.610 1_554 S
Tb588 O635 2.320 . S
Tb588 O636 2.552 1_554 S
Tb588 O637 2.413 1_554 S
Tb588 O639 2.362 . S
Tb588 O640 2.421 1_554 S
Tb588 C652 2.833 1_554 S
C589 C592 1.432 . S
C589 C593 1.414 . S
C589 N596 1.359 . S
C590 C592 1.417 . S
C590 C594 1.432 . S
C590 C602 1.410 . S
C591 C593 1.444 . S
C591 C594 1.317 . S
C591 H614 0.929 . S
C592 C589 1.432 . S
C592 C590 1.417 . S
C592 N600 1.360 . S
C593 C589 1.414 . S
C593 C591 1.444 . S
C593 C598 1.385 . S
C594 C590 1.432 . S
C594 C591 1.317 . S
C594 H606 0.930 . S
C595 C597 1.392 . S
C595 C598 1.370 . S
C595 H607 0.931 . S
N596 C589 1.359 . S
N596 C597 1.327 . S
N596 Tb599 2.600 . S
C597 C595 1.392 . S
C597 N596 1.327 . S
C597 H604 0.930 . S
C598 C593 1.385 . S
C598 C595 1.370 . S
C598 H617 0.930 . S
Tb599 N596 2.600 . S
Tb599 N600 2.660 . S
Tb599 O633 2.362 . S
Tb599 O634 2.421 1_556 S
Tb599 O638 2.546 1_556 S
Tb599 O639 2.610 1_556 S
Tb599 O641 2.320 . S
Tb599 O642 2.552 1_556 S
Tb599 O643 2.413 1_556 S
Tb599 C663 2.833 1_556 S
N600 C592 1.360 . S
N600 Tb599 2.660 . S
N600 C601 1.305 . S
C601 N600 1.305 . S
C601 C603 1.407 . S
C601 H608 0.930 . S
C602 C590 1.410 . S
C602 C603 1.345 . S
C602 H610 0.930 . S
C603 C601 1.407 . S
C603 C602 1.345 . S
C603 H605 0.930 . S
H604 C597 0.930 . S
H605 C603 0.930 . S
H606 C594 0.930 . S
H607 C595 0.931 . S
H608 C601 0.930 . S
H609 C623 0.930 . S
H610 C602 0.930 . S
H611 C629 0.930 . S
H612 C620 0.930 . S
H613 C627 0.931 . S
H614 C591 0.929 . S
H615 C621 0.930 . S
H616 C654 0.930 . S
H617 C598 0.930 . S
H618 C653 0.929 . S
N619 Tb588 2.660 . S
N619 C620 1.305 . S
N619 C624 1.360 . S
C620 H612 0.930 . S
C620 N619 1.305 . S
C620 C623 1.407 . S
C621 H615 0.930 . S
C621 C622 1.410 . S
C621 C623 1.345 . S
C622 C621 1.410 . S
C622 C624 1.417 . S
C622 C654 1.432 . S
C623 H609 0.930 . S
C623 C620 1.407 . S
C623 C621 1.345 . S
C624 N619 1.360 . S
C624 C622 1.417 . S
C624 C628 1.432 . S
H625 C630 0.930 1_565 S
N626 Tb588 2.600 . S
N626 C628 1.359 . S
N626 C629 1.327 . S
C627 H613 0.931 . S
C627 C629 1.392 1_565 S
C627 C630 1.370 1_565 S
C628 C624 1.432 . S
C628 N626 1.359 . S
C628 C631 1.414 . S
C629 H611 0.930 . S
C629 N626 1.327 . S
C629 C627 1.392 1_545 S
C630 H625 0.930 1_545 S
C630 C627 1.370 1_545 S
C630 C631 1.385 . S
C631 C628 1.414 . S
C631 C630 1.385 . S
C631 C653 1.444 . S
O632 Tb588 2.546 1_556 S
O632 C652 1.251 . S
O633 Tb588 2.610 1_556 S
O633 Tb599 2.362 . S
O633 C644 1.283 . S
O634 Tb599 2.421 1_554 S
O634 C651 1.262 1_554 S
O635 Tb588 2.320 . S
O635 C651 1.260 1_554 S
O636 Tb588 2.552 1_556 S
O636 C644 1.243 . S
O637 Tb588 2.413 1_556 S
O637 C652 1.256 . S
O638 Tb599 2.546 1_554 S
O638 C663 1.251 . S
O639 Tb588 2.362 . S
O639 Tb599 2.610 1_554 S
O639 C655 1.283 . S
O640 Tb588 2.421 1_556 S
O640 C662 1.262 1_556 S
O641 Tb599 2.320 . S
O641 C662 1.260 1_556 S
O642 Tb599 2.552 1_554 S
O642 C655 1.243 . S
O643 Tb599 2.413 1_554 S
O643 C663 1.256 . S
C644 O633 1.283 . S
C644 O636 1.243 . S
C645 C647 1.382 . S
C645 C649 1.393 . S
C645 C652 1.500 . S
C646 C647 1.400 . S
C646 C648 1.384 . S
C647 C645 1.382 . S
C647 C646 1.400 . S
C647 H664 0.930 . S
C648 C646 1.384 . S
C648 C650 1.392 . S
C648 H665 0.931 . S
C649 C645 1.393 . S
C649 C650 1.401 . S
C649 H666 0.930 . S
C650 C648 1.392 . S
C650 C649 1.401 . S
C650 H667 0.930 . S
C651 O634 1.262 1_556 S
C651 O635 1.260 1_556 S
C652 Tb588 2.833 1_556 S
C652 O632 1.251 . S
C652 O637 1.256 . S
C652 C645 1.500 . S
C653 H618 0.929 . S
C653 C631 1.444 . S
C653 C654 1.317 . S
C654 H616 0.930 . S
C654 C622 1.432 . S
C654 C653 1.317 . S
C655 O639 1.283 . S
C655 O642 1.243 . S
C656 C657 1.382 . S
C656 C660 1.393 . S
C656 C663 1.500 . S
C657 C656 1.382 . S
C657 C658 1.400 . S
C657 H668 0.930 . S
C658 C657 1.400 . S
C658 C659 1.384 . S
C659 C658 1.384 . S
C659 C661 1.392 . S
C659 H669 0.931 . S
C660 C656 1.393 . S
C660 C661 1.401 . S
C660 H670 0.930 . S
C661 C659 1.392 . S
C661 C660 1.401 . S
C661 H671 0.930 . S
C662 O640 1.262 1_554 S
C662 O641 1.260 1_554 S
C663 Tb599 2.833 1_554 S
C663 O638 1.251 . S
C663 O643 1.256 . S
C663 C656 1.500 . S
H664 C647 0.930 . S
H665 C648 0.931 . S
H666 C649 0.930 . S
H667 C650 0.930 . S
H668 C657 0.930 . S
H669 C659 0.931 . S
H670 C660 0.930 . S
H671 C661 0.930 . S
C672 C673 1.369 . S
C672 C674 1.419 . S
C672 H676 0.930 . S
C673 C672 1.369 . S
C673 C682 1.429 . S
C674 C672 1.419 . S
C674 C675 1.363 . S
C674 H677 0.929 . S
C675 C674 1.363 . S
C675 C681 1.428 . S
H676 C672 0.930 . S
H677 C674 0.929 . S
S678 N679 1.613 . S
S678 N680 1.610 . S
N679 S678 1.613 . S
N679 C682 1.350 . S
N680 S678 1.610 . S
N680 C681 1.351 . S
C681 C675 1.428 . S
C681 N680 1.351 . S
C681 C682 1.434 . S
C682 C673 1.429 . S
C682 N679 1.350 . S
C682 C681 1.434 . S
C683 C684 1.369 . S
C683 C685 1.419 . S
C683 H687 0.930 . S
C684 C683 1.369 . S
C684 C693 1.429 . S
C685 C683 1.419 . S
C685 C686 1.363 . S
C685 H688 0.929 . S
C686 C685 1.363 . S
C686 C692 1.428 . S
H687 C683 0.930 . S
H688 C685 0.929 . S
S689 N690 1.613 1_554 S
S689 N691 1.610 1_554 S
N690 S689 1.613 1_556 S
N690 C693 1.350 . S
N691 S689 1.610 1_556 S
N691 C692 1.351 . S
C692 C686 1.428 . S
C692 N691 1.351 . S
C692 C693 1.434 . S
C693 C684 1.429 . S
C693 N690 1.350 . S
C693 C692 1.434 . S
C694 C695 1.369 . S
C694 C696 1.419 . S
C694 H698 0.930 . S
C695 C694 1.369 . S
C695 C704 1.429 . S
C696 C694 1.419 . S
C696 C697 1.363 . S
C696 H699 0.929 . S
C697 C696 1.363 . S
C697 C703 1.428 . S
H698 C694 0.930 . S
H699 C696 0.929 . S
S700 N701 1.613 . S
S700 N702 1.610 . S
N701 S700 1.613 . S
N701 C704 1.350 . S
N702 S700 1.610 . S
N702 C703 1.351 . S
C703 C697 1.428 . S
C703 N702 1.351 . S
C703 C704 1.434 . S
C704 C695 1.429 . S
C704 N701 1.350 . S
C704 C703 1.434 . S
C705 C706 1.369 . S
C705 C707 1.419 . S
C705 H709 0.930 . S
C706 C705 1.369 . S
C706 C715 1.429 . S
C707 C705 1.419 . S
C707 C708 1.363 . S
C707 H710 0.929 . S
C708 C707 1.363 . S
C708 C714 1.428 . S
H709 C705 0.930 . S
H710 C707 0.929 . S
S711 N712 1.613 1_556 S
S711 N713 1.610 1_556 S
N712 S711 1.613 1_554 S
N712 C715 1.350 . S
N713 S711 1.610 1_554 S
N713 C714 1.351 . S
C714 C708 1.428 . S
C714 N713 1.351 . S
C714 C715 1.434 . S
C715 C706 1.429 . S
C715 N712 1.350 . S
C715 C714 1.434 . S
C716 C717 1.369 . S
C716 C718 1.419 1_565 S
C716 H720 0.930 . S
C717 C716 1.369 . S
C717 C726 1.429 . S
C718 C716 1.419 1_545 S
C718 C719 1.363 . S
C718 H721 0.929 . S
C719 C718 1.363 . S
C719 C725 1.428 . S
H720 C716 0.930 . S
H721 C718 0.929 . S
S722 N723 1.613 1_545 S
S722 N724 1.610 . S
N723 S722 1.613 1_565 S
N723 C726 1.350 . S
N724 S722 1.610 . S
N724 C725 1.351 . S
C725 C719 1.428 . S
C725 N724 1.351 . S
C725 C726 1.434 1_545 S
C726 C717 1.429 . S
C726 N723 1.350 . S
C726 C725 1.434 1_565 S
C727 C728 1.369 . S
C727 C729 1.419 . S
C727 H731 0.930 . S
C728 C727 1.369 . S
C728 C737 1.429 . S
C729 C727 1.419 . S
C729 C730 1.363 . S
C729 H732 0.929 . S
C730 C729 1.363 . S
C730 C736 1.428 . S
H731 C727 0.930 . S
H732 C729 0.929 . S
S733 N734 1.613 . S
S733 N735 1.610 . S
N734 S733 1.613 . S
N734 C737 1.350 . S
N735 S733 1.610 . S
N735 C736 1.351 . S
C736 C730 1.428 . S
C736 N735 1.351 . S
C736 C737 1.434 . S
C737 C728 1.429 . S
C737 N734 1.350 . S
C737 C736 1.434 . S
C738 C739 1.369 . S
C738 C740 1.419 1_565 S
C738 H742 0.930 . S
C739 C738 1.369 . S
C739 C748 1.429 . S
C740 C738 1.419 1_545 S
C740 C741 1.363 . S
C740 H743 0.929 . S
C741 C740 1.363 . S
C741 C747 1.428 . S
H742 C738 0.930 . S
H743 C740 0.929 . S
S744 N745 1.613 1_545 S
S744 N746 1.610 . S
N745 S744 1.613 1_565 S
N745 C748 1.350 . S
N746 S744 1.610 . S
N746 C747 1.351 . S
C747 C741 1.428 . S
C747 N746 1.351 . S
C747 C748 1.434 1_545 S
C748 C739 1.429 . S
C748 N745 1.350 . S
C748 C747 1.434 1_565 S
C749 C750 1.369 . S
C749 C751 1.419 . S
C749 H753 0.930 . S
C750 C749 1.369 . S
C750 C759 1.429 . S
C751 C749 1.419 . S
C751 C752 1.363 . S
C751 H754 0.929 . S
C752 C751 1.363 . S
C752 C758 1.428 . S
H753 C749 0.930 . S
H754 C751 0.929 . S
S755 N756 1.613 . S
S755 N757 1.610 . S
N756 S755 1.613 . S
N756 C759 1.350 . S
N757 S755 1.610 . S
N757 C758 1.351 . S
C758 C752 1.428 . S
C758 N757 1.351 . S
C758 C759 1.434 . S
C759 C750 1.429 . S
C759 N756 1.350 . S
C759 C758 1.434 . S
C760 C761 1.369 . S
C760 C762 1.419 . S
C760 H764 0.930 . S
C761 C760 1.369 . S
C761 C770 1.429 . S
C762 C760 1.419 . S
C762 C763 1.363 . S
C762 H765 0.929 . S
C763 C762 1.363 . S
C763 C769 1.428 . S
H764 C760 0.930 . S
H765 C762 0.929 . S
S766 N767 1.613 1_556 S
S766 N768 1.610 1_556 S
N767 S766 1.613 1_554 S
N767 C770 1.350 . S
N768 S766 1.610 1_554 S
N768 C769 1.351 . S
C769 C763 1.428 . S
C769 N768 1.351 . S
C769 C770 1.434 . S
C770 C761 1.429 . S
C770 N767 1.350 . S
C770 C769 1.434 . S
C771 C772 1.369 1_556 S
C771 C773 1.419 1_565 S
C771 H775 0.930 . S
C772 C771 1.369 1_554 S
C772 C781 1.429 . S
C773 C771 1.419 1_545 S
C773 C774 1.363 1_556 S
C773 H776 0.929 . S
C774 C773 1.363 1_554 S
C774 C780 1.428 . S
H775 C771 0.930 . S
H776 C773 0.929 . S
S777 N778 1.613 1_545 S
S777 N779 1.610 . S
N778 S777 1.613 1_565 S
N778 C781 1.350 . S
N779 S777 1.610 . S
N779 C780 1.351 . S
C780 C774 1.428 . S
C780 N779 1.351 . S
C780 C781 1.434 1_545 S
C781 C772 1.429 . S
C781 N778 1.350 . S
C781 C780 1.434 1_565 S
C782 C783 1.369 1_554 S
C782 C784 1.419 . S
C782 H786 0.930 . S
C783 C782 1.369 1_556 S
C783 C792 1.429 . S
C784 C782 1.419 . S
C784 C785 1.363 1_554 S
C784 H787 0.929 . S
C785 C784 1.363 1_556 S
C785 C791 1.428 . S
H786 C782 0.930 . S
H787 C784 0.929 . S
S788 N789 1.613 . S
S788 N790 1.610 . S
N789 S788 1.613 . S
N789 C792 1.350 . S
N790 S788 1.610 . S
N790 C791 1.351 . S
C791 C785 1.428 . S
C791 N790 1.351 . S
C791 C792 1.434 . S
C792 C783 1.429 . S
C792 N789 1.350 . S
C792 C791 1.434 . S
C793 C794 1.369 . S
C793 C795 1.419 1_545 S
C793 H797 0.930 . S
C794 C793 1.369 . S
C794 C803 1.429 1_556 S
C795 C793 1.419 1_565 S
C795 C796 1.363 . S
C795 H798 0.929 . S
C796 C795 1.363 . S
C796 C802 1.428 1_556 S
H797 C793 0.930 . S
H798 C795 0.929 . S
S799 N800 1.613 1_565 S
S799 N801 1.610 . S
N800 S799 1.613 1_545 S
N800 C803 1.350 . S
N801 S799 1.610 . S
N801 C802 1.351 . S
C802 C796 1.428 1_554 S
C802 N801 1.351 . S
C802 C803 1.434 1_565 S
C803 C794 1.429 1_554 S
C803 N800 1.350 . S
C803 C802 1.434 1_545 S
C804 C805 1.369 . S
C804 C806 1.419 1_554 S
C804 H808 0.930 . S
C805 C804 1.369 . S
C805 C814 1.429 1_554 S
C806 C804 1.419 1_556 S
C806 C807 1.363 . S
C806 H809 0.929 . S
C807 C806 1.363 . S
C807 C813 1.428 . S
H808 C804 0.930 . S
H809 C806 0.929 . S
S810 N811 1.613 1_556 S
S810 N812 1.610 . S
N811 S810 1.613 1_554 S
N811 C814 1.350 1_554 S
N812 S810 1.610 . S
N812 C813 1.351 . S
C813 C807 1.428 . S
C813 N812 1.351 . S
C813 C814 1.434 . S
C814 C805 1.429 1_556 S
C814 N811 1.350 1_556 S
C814 C813 1.434 . S
C815 C816 1.369 . S
C815 C817 1.419 1_554 S
C815 H819 0.930 . S
C816 C815 1.369 . S
C816 C825 1.429 1_554 S
C817 C815 1.419 1_556 S
C817 C818 1.363 . S
C817 H820 0.929 . S
C818 C817 1.363 . S
C818 C824 1.428 . S
H819 C815 0.930 . S
H820 C817 0.929 . S
S821 N822 1.613 1_556 S
S821 N823 1.610 . S
N822 S821 1.613 1_554 S
N822 C825 1.350 1_554 S
N823 S821 1.610 . S
N823 C824 1.351 . S
C824 C818 1.428 . S
C824 N823 1.351 . S
C824 C825 1.434 . S
C825 C816 1.429 1_556 S
C825 N822 1.350 1_556 S
C825 C824 1.434 . S
C826 C827 1.369 . S
C826 C828 1.419 . S
C826 H830 0.930 . S
C827 C826 1.369 . S
C827 C836 1.429 . S
C828 C826 1.419 . S
C828 C829 1.363 1_554 S
C828 H831 0.929 1_554 S
C829 C828 1.363 1_556 S
C829 C835 1.428 . S
H830 C826 0.930 . S
H831 C828 0.929 1_556 S
S832 N833 1.613 . S
S832 N834 1.610 1_554 S
N833 S832 1.613 . S
N833 C836 1.350 . S
N834 S832 1.610 1_556 S
N834 C835 1.351 . S
C835 C829 1.428 . S
C835 N834 1.351 . S
C835 C836 1.434 1_556 S
C836 C827 1.429 . S
C836 N833 1.350 . S
C836 C835 1.434 1_554 S
C837 C838 1.369 1_554 S
C837 C839 1.419 . S
C837 H841 0.930 1_554 S
C838 C837 1.369 1_556 S
C838 C847 1.429 . S
C839 C837 1.419 . S
C839 C840 1.363 . S
C839 H842 0.929 . S
C840 C839 1.363 . S
C840 C846 1.428 . S
H841 C837 0.930 1_556 S
H842 C839 0.929 . S
S843 N844 1.613 1_554 S
S843 N845 1.610 . S
N844 S843 1.613 1_556 S
N844 C847 1.350 . S
N845 S843 1.610 . S
N845 C846 1.351 . S
C846 C840 1.428 . S
C846 N845 1.351 . S
C846 C847 1.434 1_554 S
C847 C838 1.429 . S
C847 N844 1.350 . S
C847 C846 1.434 1_556 S
C848 C849 1.369 . S
C848 C850 1.419 . S
C848 H852 0.930 . S
C849 C848 1.369 . S
C849 C858 1.429 . S
C850 C848 1.419 . S
C850 C851 1.363 . S
C850 H853 0.929 . S
C851 C850 1.363 . S
C851 C857 1.428 . S
H852 C848 0.930 . S
H853 C850 0.929 . S
S854 N855 1.613 . S
S854 N856 1.610 . S
N855 S854 1.613 . S
N855 C858 1.350 . S
N856 S854 1.610 . S
N856 C857 1.351 . S
C857 C851 1.428 . S
C857 N856 1.351 . S
C857 C858 1.434 . S
C858 C849 1.429 . S
C858 N855 1.350 . S
C858 C857 1.434 . S
C859 C860 1.369 . S
C859 C861 1.419 . S
C859 H863 0.930 . S
C860 C859 1.369 . S
C860 C869 1.429 . S
C861 C859 1.419 . S
C861 C862 1.363 . S
C861 H864 0.929 . S
C862 C861 1.363 . S
C862 C868 1.428 . S
H863 C859 0.930 . S
H864 C861 0.929 . S
S865 N866 1.613 . S
S865 N867 1.610 . S
N866 S865 1.613 . S
N866 C869 1.350 . S
N867 S865 1.610 . S
N867 C868 1.351 . S
C868 C862 1.428 . S
C868 N867 1.351 . S
C868 C869 1.434 . S
C869 C860 1.429 . S
C869 N866 1.350 . S
C869 C868 1.434 . S
C870 C871 1.369 . S
C870 C872 1.419 . S
C870 H874 0.930 . S
C871 C870 1.369 . S
C871 C880 1.429 . S
C872 C870 1.419 . S
C872 C873 1.363 . S
C872 H875 0.929 . S
C873 C872 1.363 . S
C873 C879 1.428 . S
H874 C870 0.930 . S
H875 C872 0.929 . S
S876 N877 1.613 . S
S876 N878 1.610 . S
N877 S876 1.613 . S
N877 C880 1.350 . S
N878 S876 1.610 . S
N878 C879 1.351 . S
C879 C873 1.428 . S
C879 N878 1.351 . S
C879 C880 1.434 . S
C880 C871 1.429 . S
C880 N877 1.350 . S
C880 C879 1.434 . S
C881 C882 1.369 . S
C881 C883 1.419 . S
C881 H885 0.930 . S
C882 C881 1.369 . S
C882 C891 1.429 . S
C883 C881 1.419 . S
C883 C884 1.363 . S
C883 H886 0.929 . S
C884 C883 1.363 . S
C884 C890 1.428 . S
H885 C881 0.930 . S
H886 C883 0.929 . S
S887 N888 1.613 . S
S887 N889 1.610 . S
N888 S887 1.613 . S
N888 C891 1.350 . S
N889 S887 1.610 . S
N889 C890 1.351 . S
C890 C884 1.428 . S
C890 N889 1.351 . S
C890 C891 1.434 . S
C891 C882 1.429 . S
C891 N888 1.350 . S
C891 C890 1.434 . S
C892 C893 1.369 . S
C892 C894 1.419 1_455 S
C892 H896 0.930 . S
C893 C892 1.369 . S
C893 C902 1.429 . S
C894 C892 1.419 1_655 S
C894 C895 1.363 . S
C894 H897 0.929 . S
C895 C894 1.363 . S
C895 C901 1.428 . S
H896 C892 0.930 . S
H897 C894 0.929 . S
S898 N899 1.613 1_656 S
S898 N900 1.610 1_556 S
N899 S898 1.613 1_454 S
N899 C902 1.350 . S
N900 S898 1.610 1_554 S
N900 C901 1.351 . S
C901 C895 1.428 . S
C901 N900 1.351 . S
C901 C902 1.434 1_655 S
C902 C893 1.429 . S
C902 N899 1.350 . S
C902 C901 1.434 1_455 S
C903 C904 1.369 . S
C903 C905 1.419 1_655 S
C903 H907 0.930 . S
C904 C903 1.369 . S
C904 C913 1.429 . S
C905 C903 1.419 1_455 S
C905 C906 1.363 . S
C905 H908 0.929 . S
C906 C905 1.363 . S
C906 C912 1.428 . S
H907 C903 0.930 . S
H908 C905 0.929 . S
S909 N910 1.613 . S
S909 N911 1.574 1_655 S
N910 S909 1.613 . S
N910 C913 1.350 . S
N911 S909 1.574 1_455 S
N911 C912 1.333 . S
C912 C906 1.428 . S
C912 N911 1.333 . S
C912 C913 1.434 1_455 S
C913 C904 1.429 . S
C913 N910 1.350 . S
C913 C912 1.434 1_655 S
C914 C915 1.369 . S
C914 C916 1.419 . S
C914 H918 0.930 . S
C915 C914 1.369 . S
C915 C924 1.429 . S
C916 C914 1.419 . S
C916 C917 1.363 . S
C916 H919 0.929 . S
C917 C916 1.363 . S
C917 C923 1.428 . S
H918 C914 0.930 . S
H919 C916 0.929 . S
S920 N921 1.613 . S
S920 N922 1.610 . S
N921 S920 1.613 . S
N921 C924 1.350 . S
N922 S920 1.610 . S
N922 C923 1.351 . S
C923 C917 1.428 . S
C923 N922 1.351 . S
C923 C924 1.434 . S
C924 C915 1.429 . S
C924 N921 1.350 . S
C924 C923 1.434 . S
C925 C926 1.369 . S
C925 C927 1.419 . S
C925 H929 0.930 . S
C926 C925 1.369 . S
C926 C935 1.429 . S
C927 C925 1.419 . S
C927 C928 1.363 . S
C927 H930 0.929 . S
C928 C927 1.363 . S
C928 C934 1.428 . S
H929 C925 0.930 . S
H930 C927 0.929 . S
S931 N932 1.614 . S
S931 N933 1.611 . S
N932 S931 1.614 . S
N932 C935 1.350 . S
N933 S931 1.611 . S
N933 C934 1.351 . S
C934 C928 1.428 . S
C934 N933 1.351 . S
C934 C935 1.434 . S
C935 C926 1.429 . S
C935 N932 1.350 . S
C935 C934 1.434 . S
C673 C70 1.423 . S
C675 C646 1.434 . S
C684 C562 1.426 . S
C686 C154 1.432 . S
C695 C490 1.432 . S
C697 C226 1.428 . S
C706 C406 1.428 . S
C708 C310 1.430 . S
C717 C242 1.494 . S
C719 C74 1.614 . S
C728 C158 1.616 . S
C730 C326 1.501 . S
C739 C315 1.612 . S
C741 C147 1.493 . S
C750 C231 1.612 . S
C752 C63 1.496 . S
C761 C410 1.467 . S
C763 C578 1.467 . S
C772 C494 1.471 . S
C774 C662 1.472 . S
C783 C651 1.474 . S
C785 C483 1.472 . S
C794 C567 1.466 . S
C796 C399 1.468 . S
C805 C56 1.929 . S
C807 C67 1.934 . S
C816 C140 1.929 . S
C818 C151 1.934 . S
C827 C224 1.929 . S
C829 C235 1.935 . S
C838 C319 1.929 . S
C840 C308 1.934 . S
C849 C403 1.934 . S
C851 C392 1.930 . S
C860 C476 1.930 . S
C862 C487 1.932 . S
C871 C571 1.935 . S
C873 C560 1.929 . S
C882 C655 1.932 . S
C884 C644 1.931 . S
C893 C58 1.703 . S
C895 C142 1.706 . S
C904 C322 1.708 . S
C906 C238 1.698 . S
C915 C394 1.700 . S
C917 C478 1.708 . S
C926 C658 1.706 . S
C928 C574 1.697 . S
