# Generated by pormake.
# Topology rac, (4)-cn, num edge types: 1
# Building blocks:
#     Node 0, Type 0, BuildingBlock: NAHDIM_clean_sbu_0, # of connection points: 4
#     Node 1, Type 0, BuildingBlock: NAHDIM_clean_sbu_0, # of connection points: 4
#     Node 2, Type 0, BuildingBlock: NAHDIM_clean_sbu_0, # of connection points: 4
#     Node 3, Type 0, BuildingBlock: NAHDIM_clean_sbu_0, # of connection points: 4
#     Node 4, Type 0, BuildingBlock: NAHDIM_clean_sbu_0, # of connection points: 4
#     Node 5, Type 0, BuildingBlock: NAHDIM_clean_sbu_0, # of connection points: 4
#     Node 6, Type 0, BuildingBlock: NAHDIM_clean_sbu_0, # of connection points: 4
#     Node 7, Type 0, BuildingBlock: NAHDIM_clean_sbu_0, # of connection points: 4
#     Edge 8, Type (0, 0), BuildingBlock: XIVTED_clean_linker_0, # of connection points: 2
#     Edge 9, Type (0, 0), BuildingBlock: XIVTED_clean_linker_0, # of connection points: 2
#     Edge 10, Type (0, 0), BuildingBlock: XIVTED_clean_linker_0, # of connection points: 2
#     Edge 11, Type (0, 0), BuildingBlock: XIVTED_clean_linker_0, # of connection points: 2
#     Edge 12, Type (0, 0), BuildingBlock: XIVTED_clean_linker_0, # of connection points: 2
#     Edge 13, Type (0, 0), BuildingBlock: XIVTED_clean_linker_0, # of connection points: 2
#     Edge 14, Type (0, 0), BuildingBlock: XIVTED_clean_linker_0, # of connection points: 2
#     Edge 15, Type (0, 0), BuildingBlock: XIVTED_clean_linker_0, # of connection points: 2
#     Edge 16, Type (0, 0), BuildingBlock: XIVTED_clean_linker_0, # of connection points: 2
#     Edge 17, Type (0, 0), BuildingBlock: XIVTED_clean_linker_0, # of connection points: 2
#     Edge 18, Type (0, 0), BuildingBlock: XIVTED_clean_linker_0, # of connection points: 2
#     Edge 19, Type (0, 0), BuildingBlock: XIVTED_clean_linker_0, # of connection points: 2
#     Edge 20, Type (0, 0), BuildingBlock: XIVTED_clean_linker_0, # of connection points: 2
#     Edge 21, Type (0, 0), BuildingBlock: XIVTED_clean_linker_0, # of connection points: 2
#     Edge 22, Type (0, 0), BuildingBlock: XIVTED_clean_linker_0, # of connection points: 2
#     Edge 23, Type (0, 0), BuildingBlock: XIVTED_clean_linker_0, # of connection points: 2
# Relax obj value: 0.227
# Max RMSD: 0.117
# Mean RMSD: 0.117
data_MOF--net-rac--node1-NAHDIM_clean_sbu_0--edge1-XIVTED_clean_linker_0
_symmetry_space_group_name_H-M    P1
_symmetry_Int_Tables_number       1
_symmetry_cell_setting            triclinic
loop_
_symmetry_equiv_pos_as_xyz
'x, y, z'
_cell_length_a     39.943591
_cell_length_b     20.810739
_cell_length_c     41.846493
_cell_angle_alpha  89.941896
_cell_angle_beta   89.979007
_cell_angle_gamma 90.087261
loop_
_atom_site_label
_atom_site_type_symbol
_atom_site_fract_x
_atom_site_fract_y
_atom_site_fract_z
_atom_type_partial_charge
C0 C 0.45449 0.28792 0.04295 0.0
O1 O 0.46077 0.27857 0.07339 0.0
O2 O 0.40537 0.22805 0.10633 0.0
Zn3 Zn 0.39154 0.22841 0.05979 0.0
O4 O 0.35451 0.29154 0.05587 0.0
C5 C 0.36833 0.0982 0.06742 0.0
O6 O 0.38616 0.10237 0.0937 0.0
O7 O 0.42803 0.26382 0.03093 0.0
C8 C 0.32864 0.28734 0.07335 0.0
O9 O 0.32648 0.24098 0.0946 0.0
C10 C 0.40493 0.27956 0.12268 0.0
O11 O 0.39687 0.33388 0.10865 0.0
O12 O 0.36981 0.14386 0.04724 0.0
C13 C 0.0505 0.6864 0.05575 0.0
O14 O 0.03874 0.70702 0.08318 0.0
O15 O 0.09232 0.74833 0.12389 0.0
Zn16 Zn 0.11347 0.73217 0.08086 0.0
O17 O 0.1433 0.65619 0.08594 0.0
C18 C 0.16871 0.80922 0.08869 0.0
O19 O 0.16737 0.77277 0.11433 0.0
O20 O 0.08028 0.70112 0.04782 0.0
C21 C 0.15911 0.63853 0.06118 0.0
O22 O 0.15524 0.67093 0.03447 0.0
C23 C 0.08479 0.70006 0.14115 0.0
O24 O 0.08939 0.64197 0.1297 0.0
O25 O 0.14513 0.80464 0.06831 0.0
C26 C 0.43767 0.19992 0.44369 0.0
O27 O 0.45125 0.22721 0.41851 0.0
O28 O 0.39517 0.27932 0.37694 0.0
Zn29 Zn 0.37431 0.2493 0.41831 0.0
O30 O 0.34516 0.17609 0.4055 0.0
C31 C 0.34285 0.37431 0.43384 0.0
O32 O 0.3681 0.40103 0.41869 0.0
O33 O 0.4068 0.20912 0.44951 0.0
C34 C 0.31901 0.18484 0.38886 0.0
O35 O 0.31067 0.2434 0.38026 0.0
C36 C 0.40606 0.23455 0.35906 0.0
O37 O 0.40599 0.17534 0.37002 0.0
O38 O 0.34228 0.3137 0.43751 0.0
C39 C 0.04502 0.82527 0.45782 0.0
O40 O 0.02935 0.79627 0.4343 0.0
O41 O 0.081 0.73436 0.39189 0.0
Zn42 Zn 0.1051 0.76544 0.43127 0.0
O43 O 0.13581 0.83331 0.4149 0.0
C44 C 0.13593 0.63982 0.44229 0.0
O45 O 0.11209 0.61826 0.42351 0.0
O46 O 0.07579 0.81312 0.46265 0.0
C47 C 0.16196 0.82016 0.39899 0.0
O48 O 0.1698 0.75988 0.39352 0.0
C49 C 0.0709 0.77834 0.3731 0.0
O50 O 0.07337 0.83855 0.38226 0.0
O51 O 0.13588 0.69865 0.45043 0.0
C52 C 0.56413 0.65858 0.9306 0.0
O53 O 0.56989 0.65487 0.89974 0.0
O54 O 0.5915 0.78482 0.87821 0.0
Zn55 Zn 0.6102 0.75757 0.92079 0.0
O56 O 0.64723 0.69727 0.91054 0.0
C57 C 0.62786 0.88968 0.93847 0.0
O58 O 0.60248 0.90581 0.9202 0.0
O59 O 0.5775 0.70421 0.94635 0.0
C60 C 0.66582 0.67988 0.93352 0.0
O61 O 0.65972 0.70203 0.96233 0.0
C62 C 0.61123 0.81452 0.85946 0.0
O63 O 0.6413 0.83 0.86961 0.0
O64 O 0.63305 0.83059 0.94422 0.0
C65 C 0.94924 0.28776 0.96247 0.0
O66 O 0.96231 0.26283 0.9365 0.0
O67 O 0.90683 0.22798 0.89297 0.0
Zn68 Zn 0.88557 0.24492 0.93592 0.0
O69 O 0.85494 0.32056 0.9313 0.0
C70 C 0.83311 0.15996 0.92781 0.0
O71 O 0.83647 0.18822 0.89993 0.0
O72 O 0.9186 0.27698 0.96883 0.0
C73 C 0.84073 0.34229 0.90638 0.0
O74 O 0.84562 0.31431 0.87865 0.0
C75 C 0.91906 0.27448 0.87701 0.0
O76 O 0.91981 0.33203 0.8899 0.0
O77 O 0.85461 0.17198 0.94947 0.0
C78 C 0.5474 0.8179 0.54536 0.0
O79 O 0.5387 0.80109 0.57446 0.0
O80 O 0.59718 0.7656 0.60939 0.0
Zn81 Zn 0.61036 0.75891 0.56285 0.0
O82 O 0.65029 0.81507 0.55732 0.0
C83 C 0.6303 0.62804 0.57314 0.0
O84 O 0.61585 0.63824 0.60087 0.0
O85 O 0.57526 0.79855 0.53424 0.0
C86 C 0.6756 0.80962 0.57544 0.0
O87 O 0.6754 0.7663 0.59831 0.0
C88 C 0.59856 0.82041 0.62274 0.0
O89 O 0.60676 0.87086 0.60552 0.0
O90 O 0.62766 0.67047 0.5514 0.0
C91 C 0.94819 0.2227 0.5557 0.0
O92 O 0.95939 0.23944 0.58399 0.0
O93 O 0.90453 0.2785 0.62479 0.0
Zn94 Zn 0.88439 0.26258 0.58129 0.0
O95 O 0.85664 0.18307 0.58485 0.0
C96 C 0.82709 0.33343 0.58962 0.0
O97 O 0.82849 0.29474 0.61443 0.0
O98 O 0.9185 0.23799 0.54785 0.0
C99 C 0.84359 0.16198 0.55929 0.0
O100 O 0.8486 0.19332 0.53243 0.0
C101 C 0.91271 0.23 0.64156 0.0
O102 O 0.90977 0.17226 0.62919 0.0
O103 O 0.85118 0.3325 0.56966 0.0
H104 H 0.31624 0.09053 0.02434 0.0
H105 H 0.22427 0.81697 0.12591 0.0
H106 H 0.35934 0.99328 0.10562 0.0
H107 H 0.1818 0.89429 0.03918 0.0
H108 H 0.27417 0.88107 0.11733 0.0
H109 H 0.26798 0.01758 0.02703 0.0
C110 C 0.31588 0.0532 0.04238 0.0
C111 C 0.34185 0.04836 0.06495 0.0
C112 C 0.25407 0.8842 0.10005 0.0
C113 C 0.28649 0.9655 0.0684 0.0
C114 C 0.22533 0.84766 0.10501 0.0
C115 C 0.19859 0.85033 0.08331 0.0
C116 C 0.25634 0.92446 0.07321 0.0
C117 C 0.20175 0.89091 0.0566 0.0
C118 C 0.28821 0.01183 0.044 0.0
C119 C 0.33989 -0.00075 0.08786 0.0
N120 N 0.23008 0.92666 0.05235 0.0
N121 N 0.31264 0.96026 0.08913 0.0
H122 H 0.19802 0.6792 0.46205 0.0
H123 H 0.28036 0.33024 0.44949 0.0
H124 H 0.14208 0.50909 0.43675 0.0
H125 H 0.33671 0.50565 0.43694 0.0
H126 H 0.22962 0.39381 0.45734 0.0
H127 H 0.24888 0.61414 0.46549 0.0
C128 C 0.19627 0.62798 0.45777 0.0
C129 C 0.16571 0.59957 0.44892 0.0
C130 C 0.25316 0.41834 0.45316 0.0
C131 C 0.2239 0.52505 0.45283 0.0
C132 C 0.28221 0.38216 0.44884 0.0
C133 C 0.31288 0.41267 0.44233 0.0
C134 C 0.25477 0.48558 0.45139 0.0
C135 C 0.31361 0.48012 0.44168 0.0
C136 C 0.22538 0.59104 0.45953 0.0
C137 C 0.1651 0.53304 0.44346 0.0
N138 N 0.28496 0.51433 0.44607 0.0
N139 N 0.19377 0.49805 0.44542 0.0
H140 H 0.63182 0.01479 0.91868 0.0
H141 H 0.82101 0.07122 0.97585 0.0
H142 H 0.68578 0.87197 0.97295 0.0
H143 H 0.77495 0.16351 0.89462 0.0
H144 H 0.76879 0.01005 0.98449 0.0
H145 H 0.68091 0.08449 0.92074 0.0
C146 C 0.65374 0.99847 0.93156 0.0
C147 C 0.65476 0.93697 0.94527 0.0
C148 C 0.77028 0.04397 0.9649 0.0
C149 C 0.7113 0.01655 0.94743 0.0
C150 C 0.79999 0.07871 0.95995 0.0
C151 C 0.80246 0.12195 0.93427 0.0
C152 C 0.74283 0.05383 0.94443 0.0
C153 C 0.77442 0.13012 0.91447 0.0
C154 C 0.68188 0.03817 0.93252 0.0
C155 C 0.68397 0.91875 0.96176 0.0
N156 N 0.74587 0.09662 0.92001 0.0
N157 N 0.71123 0.95812 0.96212 0.0
H158 H 0.67844 0.6118 0.52673 0.0
H159 H 0.77152 0.33791 0.62708 0.0
H160 H 0.6401 0.52669 0.61347 0.0
H161 H 0.81352 0.4203 0.54122 0.0
H162 H 0.72154 0.40225 0.61964 0.0
H163 H 0.7255 0.53638 0.52819 0.0
C164 C 0.67953 0.57651 0.54575 0.0
C165 C 0.65535 0.5759 0.57017 0.0
C166 C 0.74157 0.40642 0.60231 0.0
C167 C 0.70937 0.49017 0.57217 0.0
C168 C 0.77031 0.36971 0.60661 0.0
C169 C 0.79698 0.3739 0.58484 0.0
C170 C 0.73922 0.44822 0.57608 0.0
C171 C 0.79366 0.41579 0.55868 0.0
C172 C 0.70656 0.53379 0.54667 0.0
C173 C 0.65821 0.52933 0.59426 0.0
N174 N 0.76533 0.45158 0.55508 0.0
N175 N 0.68481 0.48881 0.59476 0.0
H176 H 0.40021 0.37835 0.16567 0.0
H177 H 0.43246 0.15004 0.31621 0.0
H178 H 0.42448 0.1767 0.15896 0.0
H179 H 0.39766 0.34564 0.32436 0.0
H180 H 0.43802 0.16454 0.25868 0.0
H181 H 0.4069 0.37216 0.22367 0.0
C182 C 0.40723 0.33288 0.17634 0.0
C183 C 0.41151 0.27779 0.15744 0.0
C184 C 0.42945 0.20454 0.27304 0.0
C185 C 0.4192 0.27046 0.22379 0.0
C186 C 0.42634 0.19637 0.30595 0.0
C187 C 0.41418 0.24649 0.3251 0.0
C188 C 0.42022 0.26322 0.25905 0.0
C189 C 0.40695 0.30559 0.31048 0.0
C190 C 0.41102 0.32942 0.20947 0.0
C191 C 0.42069 0.22028 0.17258 0.0
N192 N 0.40974 0.31213 0.27824 0.0
N193 N 0.42404 0.21807 0.20486 0.0
H194 H 0.05029 0.86214 0.32693 0.0
H195 H 0.07372 0.60722 0.18628 0.0
H196 H 0.07195 0.66139 0.34273 0.0
H197 H 0.07077 0.81271 0.17223 0.0
H198 H 0.06152 0.62327 0.24292 0.0
H199 H 0.04556 0.84107 0.26981 0.0
C200 C 0.05357 0.81338 0.31847 0.0
C201 C 0.06208 0.76361 0.3396 0.0
C202 C 0.06321 0.66478 0.22737 0.0
C203 C 0.05693 0.73935 0.27413 0.0
C204 C 0.07014 0.6557 0.19501 0.0
C205 C 0.07373 0.7088 0.17456 0.0
C206 C 0.05975 0.72737 0.23935 0.0
C207 C 0.0686 0.77043 0.18718 0.0
C208 C 0.05096 0.80147 0.2858 0.0
C209 C 0.06568 0.70132 0.32726 0.0
N210 N 0.06213 0.77804 0.21882 0.0
N211 N 0.06349 0.69108 0.29525 0.0
H212 H 0.56362 0.75137 0.82433 0.0
H213 H 0.6147 0.92293 0.6604 0.0
H214 H 0.63935 0.89887 0.81737 0.0
H215 H 0.57264 0.73188 0.66461 0.0
H216 H 0.61225 0.92867 0.71868 0.0
H217 H 0.55514 0.7584 0.76638 0.0
C218 C 0.57803 0.786 0.8107 0.0
C219 C 0.60243 0.82427 0.82556 0.0
C220 C 0.60329 0.88576 0.70679 0.0
C221 C 0.59279 0.83254 0.75958 0.0
C222 C 0.60457 0.88247 0.67354 0.0
C223 C 0.59414 0.82656 0.65765 0.0
C224 C 0.59114 0.8331 0.72428 0.0
C225 C 0.58122 0.77565 0.67594 0.0
C226 C 0.57332 0.78965 0.77767 0.0
C227 C 0.62051 0.86809 0.80678 0.0
N228 N 0.58017 0.78004 0.70834 0.0
N229 N 0.61539 0.87092 0.77473 0.0
H230 H 0.92147 0.34182 0.67523 0.0
H231 H 0.92241 0.16224 0.84306 0.0
H232 H 0.92531 0.13544 0.68527 0.0
H233 H 0.93402 0.36758 0.83305 0.0
H234 H 0.92829 0.15103 0.78526 0.0
H235 H 0.93074 0.35232 0.73272 0.0
C236 C 0.92462 0.29873 0.68945 0.0
C237 C 0.9222 0.23764 0.67548 0.0
C238 C 0.92997 0.19849 0.79573 0.0
C239 C 0.93256 0.24928 0.74129 0.0
C240 C 0.92661 0.20491 0.82875 0.0
C241 C 0.92733 0.266 0.84286 0.0
C242 C 0.9337 0.25363 0.77663 0.0
C243 C 0.93307 0.31956 0.82317 0.0
C244 C 0.92994 0.30475 0.72228 0.0
C245 C 0.92669 0.18351 0.69504 0.0
N246 N 0.93559 0.3122 0.79101 0.0
N247 N 0.93126 0.19059 0.727 0.0
H248 H 0.50498 0.36461 0.06523 0.0
H249 H 0.52577 0.56477 0.90335 0.0
H250 H 0.44759 0.32452 0.98011 0.0
H251 H 0.56218 0.63064 0.99474 0.0
H252 H 0.50062 0.4716 0.92969 0.0
H253 H 0.53115 0.45534 0.03793 0.0
C254 C 0.49817 0.37427 0.04064 0.0
C255 C 0.4739 0.33685 0.025 0.0
C256 C 0.51395 0.50659 0.94401 0.0
C257 C 0.50366 0.44139 0.99368 0.0
C258 C 0.52827 0.55991 0.92902 0.0
C259 C 0.54608 0.60568 0.94688 0.0
C260 C 0.51778 0.49844 0.9771 0.0
C261 C 0.54852 0.59679 0.98005 0.0
C262 C 0.51295 0.42652 0.02517 0.0
C263 C 0.4661 0.35202 0.99315 0.0
N264 N 0.53473 0.54397 0.99405 0.0
N265 N 0.48087 0.40322 0.97857 0.0
H266 H 0.98872 0.63557 0.0688 0.0
H267 H 0.01123 0.33814 0.94933 0.0
H268 H 0.07333 0.61383 0.0055 0.0
H269 H 0.92652 0.36107 0.0124 0.0
H270 H 0.03507 0.43755 0.97047 0.0
H271 H 0.96501 0.5363 0.0475 0.0
C272 C 0.0021 0.61049 0.05008 0.0
C273 C 0.03315 0.63315 0.03903 0.0
C274 C 0.01137 0.42061 0.97984 0.0
C275 C 0.00637 0.5185 0.01491 0.0
C276 C 0.99786 0.36346 0.96797 0.0
C277 C 0.96672 0.34114 0.97899 0.0
C278 C 0.99364 0.45587 0.0029 0.0
C279 C 0.95055 0.37632 0.00311 0.0
C280 C 0.98865 0.55345 0.03809 0.0
C281 C 0.04932 0.59836 0.01476 0.0
N282 N 0.96408 0.43206 0.01408 0.0
N283 N 0.03587 0.54259 0.00369 0.0
H284 H 0.48803 0.87342 0.5629 0.0
H285 H 0.49987 0.15103 0.43067 0.0
H286 H 0.56491 0.88181 0.49045 0.0
H287 H 0.4164 0.12986 0.49544 0.0
H288 H 0.52573 0.05614 0.45451 0.0
H289 H 0.462 0.96857 0.53943 0.0
C290 C 0.49923 0.89474 0.54182 0.0
C291 C 0.52876 0.86951 0.52868 0.0
C292 C 0.50183 0.07243 0.46361 0.0
C293 C 0.49936 0.9793 0.50201 0.0
C294 C 0.48715 0.127 0.45018 0.0
C295 C 0.45582 0.14847 0.46097 0.0
C296 C 0.48515 0.03905 0.48811 0.0
C297 C 0.44053 0.11506 0.48628 0.0
C298 C 0.48443 0.94934 0.52853 0.0
C299 C 0.54215 0.89941 0.50139 0.0
N300 N 0.45527 0.06193 0.49888 0.0
N301 N 0.52748 0.95293 0.48912 0.0
H302 H 0.01023 0.1718 0.56727 0.0
H303 H 0.98322 0.87778 0.44668 0.0
H304 H 0.9255 0.15512 0.50374 0.0
H305 H 0.07166 0.90159 0.50481 0.0
H306 H 0.96119 0.97823 0.46821 0.0
H307 H 0.03379 0.07434 0.54389 0.0
C308 C 0.99682 0.14831 0.54804 0.0
C309 C 0.96573 0.17166 0.5376 0.0
C310 C 0.98537 0.96137 0.47635 0.0
C311 C 0.99229 0.05914 0.51114 0.0
C312 C 0.99786 0.90366 0.46426 0.0
C313 C 0.02939 0.8811 0.4739 0.0
C314 C 0.00448 0.99688 0.49832 0.0
C315 C 0.04724 0.91703 0.49666 0.0
C316 C 0.01019 0.09233 0.53485 0.0
C317 C 0.94952 0.13901 0.51261 0.0
N318 N 0.03459 0.97316 0.50799 0.0
N319 N 0.96283 0.08413 0.50047 0.0
H320 H 0.16833 0.55435 0.11064 0.0
H321 H 0.32151 0.37742 0.02656 0.0
H322 H 0.20208 0.59714 0.01488 0.0
H323 H 0.2751 0.3072 0.11307 0.0
H324 H 0.27856 0.45995 0.0227 0.0
H325 H 0.20794 0.46508 0.11287 0.0
C326 C 0.18402 0.54487 0.09007 0.0
C327 C 0.18207 0.58335 0.06258 0.0
C328 C 0.27763 0.42632 0.04245 0.0
C329 C 0.22737 0.48164 0.06502 0.0
C330 C 0.30221 0.37928 0.04473 0.0
C331 C 0.30192 0.33559 0.07027 0.0
C332 C 0.25275 0.43015 0.06603 0.0
C333 C 0.27623 0.34001 0.093 0.0
C334 C 0.20653 0.49383 0.09133 0.0
C335 C 0.20282 0.56878 0.03657 0.0
N336 N 0.25273 0.38685 0.09047 0.0
N337 N 0.22477 0.51926 0.03851 0.0
H338 H 0.33487 0.0576 0.39099 0.0
H339 H 0.14639 0.94675 0.39236 0.0
H340 H 0.25331 0.18709 0.37049 0.0
H341 H 0.2282 0.81289 0.3827 0.0
H342 H 0.18498 0.03517 0.38173 0.0
H343 H 0.29658 0.96685 0.38538 0.0
C344 C 0.30893 0.06685 0.385 0.0
C345 C 0.29706 0.1299 0.38166 0.0
C346 C 0.19444 0.98643 0.38148 0.0
C347 C 0.25315 0.02645 0.37544 0.0
C348 C 0.17247 0.93598 0.38771 0.0
C349 C 0.1843 0.87262 0.38885 0.0
C350 C 0.22856 0.97345 0.37693 0.0
C351 C 0.21816 0.86117 0.38222 0.0
C352 C 0.28714 0.01503 0.38165 0.0
C353 C 0.26339 0.13921 0.37348 0.0
N354 N 0.23929 0.91132 0.37705 0.0
N355 N 0.24244 0.08799 0.37115 0.0
H356 H 0.68386 0.6219 0.87741 0.0
H357 H 0.82831 0.41427 0.95944 0.0
H358 H 0.71065 0.63434 0.9772 0.0
H359 H 0.80051 0.395 0.86015 0.0
H360 H 0.78774 0.50045 0.96514 0.0
H361 H 0.72871 0.54381 0.8695 0.0
C362 C 0.69924 0.60836 0.89763 0.0
C363 C 0.69342 0.63435 0.92807 0.0
C364 C 0.79055 0.47761 0.94205 0.0
C365 C 0.74468 0.54523 0.91915 0.0
C366 C 0.81374 0.42832 0.93876 0.0
C367 C 0.81761 0.39704 0.90931 0.0
C368 C 0.77096 0.49579 0.91574 0.0
C369 C 0.79822 0.41766 0.88332 0.0
C370 C 0.72482 0.56382 0.89308 0.0
C371 C 0.71414 0.6153 0.95337 0.0
N372 N 0.77554 0.46562 0.88719 0.0
N373 N 0.73879 0.57172 0.94835 0.0
H374 H 0.72774 0.83004 0.61675 0.0
H375 H 0.80667 0.11163 0.51041 0.0
H376 H 0.68782 0.89115 0.52579 0.0
H377 H 0.8318 0.08112 0.60965 0.0
H378 H 0.76895 0.01941 0.5128 0.0
H379 H 0.77211 0.9107 0.61154 0.0
C380 C 0.72847 0.86002 0.59559 0.0
C381 C 0.70392 0.85439 0.57181 0.0
C382 C 0.78282 0.03278 0.53402 0.0
C383 C 0.75443 0.94628 0.56571 0.0
C384 C 0.80438 0.08535 0.53266 0.0
C385 C 0.82212 0.10441 0.55996 0.0
C386 C 0.77908 0.99891 0.56283 0.0
C387 C 0.81834 0.06838 0.58811 0.0
C388 C 0.7537 0.9061 0.59269 0.0
C389 C 0.70606 0.89433 0.54486 0.0
N390 N 0.7971 0.01741 0.58886 0.0
N391 N 0.73081 0.93873 0.54259 0.0
loop_
_geom_bond_atom_site_label_1
_geom_bond_atom_site_label_2
_geom_bond_distance
_geom_bond_site_symmetry_2
_ccdc_geom_bond_type
C0 O1 1.160 . S
C0 O7 1.185 . S
O1 C0 1.160 . S
O2 Zn3 1.899 . S
O2 C10 1.284 . S
Zn3 O2 1.899 . S
Zn3 O4 2.032 . S
Zn3 O7 2.086 . S
Zn3 O12 1.977 . S
O4 Zn3 2.032 . S
O4 C8 1.278 . S
C5 O6 1.203 . S
C5 O12 1.267 . S
O6 C5 1.203 . S
O7 C0 1.185 . S
O7 Zn3 2.086 . S
C8 O4 1.278 . S
C8 O9 1.211 . S
O9 C8 1.211 . S
C10 O2 1.284 . S
C10 O11 1.273 . S
O11 C10 1.273 . S
O12 Zn3 1.977 . S
O12 C5 1.267 . S
C13 O14 1.160 . S
C13 O20 1.185 . S
O14 C13 1.160 . S
O15 Zn16 1.899 . S
O15 C23 1.284 . S
Zn16 O15 1.899 . S
Zn16 O17 2.032 . S
Zn16 O20 2.086 . S
Zn16 O25 1.977 . S
O17 Zn16 2.032 . S
O17 C21 1.278 . S
C18 O19 1.203 . S
C18 O25 1.267 . S
O19 C18 1.203 . S
O20 C13 1.185 . S
O20 Zn16 2.086 . S
C21 O17 1.278 . S
C21 O22 1.211 . S
O22 C21 1.211 . S
C23 O15 1.284 . S
C23 O24 1.273 . S
O24 C23 1.273 . S
O25 Zn16 1.977 . S
O25 C18 1.267 . S
C26 O27 1.160 . S
C26 O33 1.185 . S
O27 C26 1.160 . S
O28 Zn29 1.899 . S
O28 C36 1.284 . S
Zn29 O28 1.899 . S
Zn29 O30 2.032 . S
Zn29 O33 2.086 . S
Zn29 O38 1.977 . S
O30 Zn29 2.032 . S
O30 C34 1.278 . S
C31 O32 1.203 . S
C31 O38 1.267 . S
O32 C31 1.203 . S
O33 C26 1.185 . S
O33 Zn29 2.086 . S
C34 O30 1.278 . S
C34 O35 1.211 . S
O35 C34 1.211 . S
C36 O28 1.284 . S
C36 O37 1.273 . S
O37 C36 1.273 . S
O38 Zn29 1.977 . S
O38 C31 1.267 . S
C39 O40 1.160 . S
C39 O46 1.185 . S
O40 C39 1.160 . S
O41 Zn42 1.899 . S
O41 C49 1.284 . S
Zn42 O41 1.899 . S
Zn42 O43 2.032 . S
Zn42 O46 2.086 . S
Zn42 O51 1.977 . S
O43 Zn42 2.032 . S
O43 C47 1.278 . S
C44 O45 1.203 . S
C44 O51 1.267 . S
O45 C44 1.203 . S
O46 C39 1.185 . S
O46 Zn42 2.086 . S
C47 O43 1.278 . S
C47 O48 1.211 . S
O48 C47 1.211 . S
C49 O41 1.284 . S
C49 O50 1.273 . S
O50 C49 1.273 . S
O51 Zn42 1.977 . S
O51 C44 1.267 . S
C52 O53 1.160 . S
C52 O59 1.185 . S
O53 C52 1.160 . S
O54 Zn55 1.899 . S
O54 C62 1.284 . S
Zn55 O54 1.899 . S
Zn55 O56 2.032 . S
Zn55 O59 2.086 . S
Zn55 O64 1.977 . S
O56 Zn55 2.032 . S
O56 C60 1.278 . S
C57 O58 1.203 . S
C57 O64 1.267 . S
O58 C57 1.203 . S
O59 C52 1.185 . S
O59 Zn55 2.086 . S
C60 O56 1.278 . S
C60 O61 1.211 . S
O61 C60 1.211 . S
C62 O54 1.284 . S
C62 O63 1.273 . S
O63 C62 1.273 . S
O64 Zn55 1.977 . S
O64 C57 1.267 . S
C65 O66 1.160 . S
C65 O72 1.185 . S
O66 C65 1.160 . S
O67 Zn68 1.899 . S
O67 C75 1.284 . S
Zn68 O67 1.899 . S
Zn68 O69 2.032 . S
Zn68 O72 2.086 . S
Zn68 O77 1.977 . S
O69 Zn68 2.032 . S
O69 C73 1.278 . S
C70 O71 1.203 . S
C70 O77 1.267 . S
O71 C70 1.203 . S
O72 C65 1.185 . S
O72 Zn68 2.086 . S
C73 O69 1.278 . S
C73 O74 1.211 . S
O74 C73 1.211 . S
C75 O67 1.284 . S
C75 O76 1.273 . S
O76 C75 1.273 . S
O77 Zn68 1.977 . S
O77 C70 1.267 . S
C78 O79 1.160 . S
C78 O85 1.185 . S
O79 C78 1.160 . S
O80 Zn81 1.899 . S
O80 C88 1.284 . S
Zn81 O80 1.899 . S
Zn81 O82 2.032 . S
Zn81 O85 2.086 . S
Zn81 O90 1.977 . S
O82 Zn81 2.032 . S
O82 C86 1.278 . S
C83 O84 1.203 . S
C83 O90 1.267 . S
O84 C83 1.203 . S
O85 C78 1.185 . S
O85 Zn81 2.086 . S
C86 O82 1.278 . S
C86 O87 1.211 . S
O87 C86 1.211 . S
C88 O80 1.284 . S
C88 O89 1.273 . S
O89 C88 1.273 . S
O90 Zn81 1.977 . S
O90 C83 1.267 . S
C91 O92 1.160 . S
C91 O98 1.185 . S
O92 C91 1.160 . S
O93 Zn94 1.899 . S
O93 C101 1.284 . S
Zn94 O93 1.899 . S
Zn94 O95 2.032 . S
Zn94 O98 2.086 . S
Zn94 O103 1.977 . S
O95 Zn94 2.032 . S
O95 C99 1.278 . S
C96 O97 1.203 . S
C96 O103 1.267 . S
O97 C96 1.203 . S
O98 C91 1.185 . S
O98 Zn94 2.086 . S
C99 O95 1.278 . S
C99 O100 1.211 . S
O100 C99 1.211 . S
C101 O93 1.284 . S
C101 O102 1.273 . S
O102 C101 1.273 . S
O103 Zn94 1.977 . S
O103 C96 1.267 . S
H104 C110 0.930 . S
H105 C114 0.930 . S
H106 C119 0.929 . S
H107 C117 0.929 . S
H108 C112 0.929 . S
H109 C118 0.929 . S
C110 H104 0.930 . S
C110 C111 1.367 . S
C110 C118 1.378 . S
C111 C110 1.367 . S
C111 C119 1.433 . S
C112 H108 0.929 . S
C112 C114 1.378 . S
C112 C116 1.350 . S
C113 C116 1.463 1_545 S
C113 C118 1.350 . S
C113 N121 1.427 . S
C114 H105 0.930 . S
C114 C112 1.378 . S
C114 C115 1.367 . S
C115 C114 1.367 . S
C115 C117 1.433 . S
C116 C112 1.350 . S
C116 C113 1.463 1_565 S
C116 N120 1.427 . S
C117 H107 0.929 . S
C117 C115 1.433 . S
C117 N120 1.384 . S
C118 H109 0.929 . S
C118 C110 1.378 . S
C118 C113 1.350 . S
C119 H106 0.929 . S
C119 C111 1.433 . S
C119 N121 1.384 . S
N120 C116 1.427 . S
N120 C117 1.384 . S
N121 C113 1.427 . S
N121 C119 1.384 . S
H122 C128 0.930 . S
H123 C132 0.930 . S
H124 C137 0.929 . S
H125 C135 0.929 . S
H126 C130 0.929 . S
H127 C136 0.929 . S
C128 H122 0.930 . S
C128 C129 1.367 . S
C128 C136 1.378 . S
C129 C128 1.367 . S
C129 C137 1.433 . S
C130 H126 0.929 . S
C130 C132 1.378 . S
C130 C134 1.350 . S
C131 C134 1.463 . S
C131 C136 1.350 . S
C131 N139 1.427 . S
C132 H123 0.930 . S
C132 C130 1.378 . S
C132 C133 1.367 . S
C133 C132 1.367 . S
C133 C135 1.433 . S
C134 C130 1.350 . S
C134 C131 1.463 . S
C134 N138 1.427 . S
C135 H125 0.929 . S
C135 C133 1.433 . S
C135 N138 1.384 . S
C136 H127 0.929 . S
C136 C128 1.378 . S
C136 C131 1.350 . S
C137 H124 0.929 . S
C137 C129 1.433 . S
C137 N139 1.384 . S
N138 C134 1.427 . S
N138 C135 1.384 . S
N139 C131 1.427 . S
N139 C137 1.384 . S
H140 C146 0.930 . S
H141 C150 0.930 . S
H142 C155 0.929 . S
H143 C153 0.929 . S
H144 C148 0.929 1_565 S
H145 C154 0.929 1_545 S
C146 H140 0.930 . S
C146 C147 1.367 . S
C146 C154 1.378 . S
C147 C146 1.367 . S
C147 C155 1.433 . S
C148 H144 0.929 1_545 S
C148 C150 1.378 . S
C148 C152 1.350 . S
C149 C152 1.463 1_565 S
C149 C154 1.350 . S
C149 N157 1.427 . S
C150 H141 0.930 . S
C150 C148 1.378 . S
C150 C151 1.367 . S
C151 C150 1.367 . S
C151 C153 1.433 . S
C152 C148 1.350 . S
C152 C149 1.463 1_545 S
C152 N156 1.427 . S
C153 H143 0.929 . S
C153 C151 1.433 . S
C153 N156 1.384 . S
C154 H145 0.929 1_565 S
C154 C146 1.378 . S
C154 C149 1.350 . S
C155 H142 0.929 . S
C155 C147 1.433 . S
C155 N157 1.384 . S
N156 C152 1.427 . S
N156 C153 1.384 . S
N157 C149 1.427 . S
N157 C155 1.384 . S
H158 C164 0.930 . S
H159 C168 0.930 . S
H160 C173 0.929 . S
H161 C171 0.929 . S
H162 C166 0.929 . S
H163 C172 0.929 . S
C164 H158 0.930 . S
C164 C165 1.367 . S
C164 C172 1.378 . S
C165 C164 1.367 . S
C165 C173 1.433 . S
C166 H162 0.929 . S
C166 C168 1.378 . S
C166 C170 1.350 . S
C167 C170 1.463 . S
C167 C172 1.350 . S
C167 N175 1.427 . S
C168 H159 0.930 . S
C168 C166 1.378 . S
C168 C169 1.367 . S
C169 C168 1.367 . S
C169 C171 1.433 . S
C170 C166 1.350 . S
C170 C167 1.463 . S
C170 N174 1.427 . S
C171 H161 0.929 . S
C171 C169 1.433 . S
C171 N174 1.384 . S
C172 H163 0.929 . S
C172 C164 1.378 . S
C172 C167 1.350 . S
C173 H160 0.929 . S
C173 C165 1.433 . S
C173 N175 1.384 . S
N174 C170 1.427 . S
N174 C171 1.384 . S
N175 C167 1.427 . S
N175 C173 1.384 . S
H176 C182 0.930 . S
H177 C186 0.930 . S
H178 C191 0.929 . S
H179 C189 0.929 . S
H180 C184 0.929 . S
H181 C190 0.929 . S
C182 H176 0.930 . S
C182 C183 1.367 . S
C182 C190 1.378 . S
C183 C182 1.367 . S
C183 C191 1.433 . S
C184 H180 0.929 . S
C184 C186 1.378 . S
C184 C188 1.350 . S
C185 C188 1.463 . S
C185 C190 1.350 . S
C185 N193 1.427 . S
C186 H177 0.930 . S
C186 C184 1.378 . S
C186 C187 1.367 . S
C187 C186 1.367 . S
C187 C189 1.433 . S
C188 C184 1.350 . S
C188 C185 1.463 . S
C188 N192 1.427 . S
C189 H179 0.929 . S
C189 C187 1.433 . S
C189 N192 1.384 . S
C190 H181 0.929 . S
C190 C182 1.378 . S
C190 C185 1.350 . S
C191 H178 0.929 . S
C191 C183 1.433 . S
C191 N193 1.384 . S
N192 C188 1.427 . S
N192 C189 1.384 . S
N193 C185 1.427 . S
N193 C191 1.384 . S
H194 C200 0.930 . S
H195 C204 0.930 . S
H196 C209 0.929 . S
H197 C207 0.929 . S
H198 C202 0.929 . S
H199 C208 0.929 . S
C200 H194 0.930 . S
C200 C201 1.367 . S
C200 C208 1.378 . S
C201 C200 1.367 . S
C201 C209 1.433 . S
C202 H198 0.929 . S
C202 C204 1.378 . S
C202 C206 1.350 . S
C203 C206 1.463 . S
C203 C208 1.350 . S
C203 N211 1.427 . S
C204 H195 0.930 . S
C204 C202 1.378 . S
C204 C205 1.367 . S
C205 C204 1.367 . S
C205 C207 1.433 . S
C206 C202 1.350 . S
C206 C203 1.463 . S
C206 N210 1.427 . S
C207 H197 0.929 . S
C207 C205 1.433 . S
C207 N210 1.384 . S
C208 H199 0.929 . S
C208 C200 1.378 . S
C208 C203 1.350 . S
C209 H196 0.929 . S
C209 C201 1.433 . S
C209 N211 1.384 . S
N210 C206 1.427 . S
N210 C207 1.384 . S
N211 C203 1.427 . S
N211 C209 1.384 . S
H212 C218 0.930 . S
H213 C222 0.930 . S
H214 C227 0.929 . S
H215 C225 0.929 . S
H216 C220 0.929 . S
H217 C226 0.929 . S
C218 H212 0.930 . S
C218 C219 1.367 . S
C218 C226 1.378 . S
C219 C218 1.367 . S
C219 C227 1.433 . S
C220 H216 0.929 . S
C220 C222 1.378 . S
C220 C224 1.350 . S
C221 C224 1.463 . S
C221 C226 1.350 . S
C221 N229 1.427 . S
C222 H213 0.930 . S
C222 C220 1.378 . S
C222 C223 1.367 . S
C223 C222 1.367 . S
C223 C225 1.433 . S
C224 C220 1.350 . S
C224 C221 1.463 . S
C224 N228 1.427 . S
C225 H215 0.929 . S
C225 C223 1.433 . S
C225 N228 1.384 . S
C226 H217 0.929 . S
C226 C218 1.378 . S
C226 C221 1.350 . S
C227 H214 0.929 . S
C227 C219 1.433 . S
C227 N229 1.384 . S
N228 C224 1.427 . S
N228 C225 1.384 . S
N229 C221 1.427 . S
N229 C227 1.384 . S
H230 C236 0.930 . S
H231 C240 0.930 . S
H232 C245 0.929 . S
H233 C243 0.929 . S
H234 C238 0.929 . S
H235 C244 0.929 . S
C236 H230 0.930 . S
C236 C237 1.367 . S
C236 C244 1.378 . S
C237 C236 1.367 . S
C237 C245 1.433 . S
C238 H234 0.929 . S
C238 C240 1.378 . S
C238 C242 1.350 . S
C239 C242 1.463 . S
C239 C244 1.350 . S
C239 N247 1.427 . S
C240 H231 0.930 . S
C240 C238 1.378 . S
C240 C241 1.367 . S
C241 C240 1.367 . S
C241 C243 1.433 . S
C242 C238 1.350 . S
C242 C239 1.463 . S
C242 N246 1.427 . S
C243 H233 0.929 . S
C243 C241 1.433 . S
C243 N246 1.384 . S
C244 H235 0.929 . S
C244 C236 1.378 . S
C244 C239 1.350 . S
C245 H232 0.929 . S
C245 C237 1.433 . S
C245 N247 1.384 . S
N246 C242 1.427 . S
N246 C243 1.384 . S
N247 C239 1.427 . S
N247 C245 1.384 . S
H248 C254 0.930 . S
H249 C258 0.930 . S
H250 C263 0.929 . S
H251 C261 0.929 . S
H252 C256 0.929 . S
H253 C262 0.929 . S
C254 H248 0.930 . S
C254 C255 1.367 . S
C254 C262 1.378 . S
C255 C254 1.367 . S
C255 C263 1.433 . S
C256 H252 0.929 . S
C256 C258 1.378 . S
C256 C260 1.350 . S
C257 C260 1.463 1_554 S
C257 C262 1.350 . S
C257 N265 1.427 . S
C258 H249 0.930 . S
C258 C256 1.378 . S
C258 C259 1.367 . S
C259 C258 1.367 . S
C259 C261 1.433 . S
C260 C256 1.350 . S
C260 C257 1.463 1_556 S
C260 N264 1.427 . S
C261 H251 0.929 . S
C261 C259 1.433 . S
C261 N264 1.384 . S
C262 H253 0.929 . S
C262 C254 1.378 . S
C262 C257 1.350 . S
C263 H250 0.929 . S
C263 C255 1.433 . S
C263 N265 1.384 . S
N264 C260 1.427 . S
N264 C261 1.384 . S
N265 C257 1.427 . S
N265 C263 1.384 . S
H266 C272 0.930 . S
H267 C276 0.930 . S
H268 C281 0.929 . S
H269 C279 0.929 . S
H270 C274 0.929 1_455 S
H271 C280 0.929 1_655 S
C272 H266 0.930 . S
C272 C273 1.367 . S
C272 C280 1.378 . S
C273 C272 1.367 . S
C273 C281 1.433 1_554 S
C274 H270 0.929 1_655 S
C274 C276 1.378 . S
C274 C278 1.350 . S
C275 C278 1.463 1_454 S
C275 C280 1.350 . S
C275 N283 1.427 1_554 S
C276 H267 0.930 . S
C276 C274 1.378 . S
C276 C277 1.367 . S
C277 C276 1.367 . S
C277 C279 1.433 1_556 S
C278 C274 1.350 . S
C278 C275 1.463 1_656 S
C278 N282 1.427 1_556 S
C279 H269 0.929 . S
C279 C277 1.433 1_554 S
C279 N282 1.384 . S
C280 H271 0.929 1_455 S
C280 C272 1.378 . S
C280 C275 1.350 . S
C281 H268 0.929 . S
C281 C273 1.433 1_556 S
C281 N283 1.384 . S
N282 C278 1.427 1_554 S
N282 C279 1.384 . S
N283 C275 1.427 1_556 S
N283 C281 1.384 . S
H284 C290 0.930 . S
H285 C294 0.930 . S
H286 C299 0.929 . S
H287 C297 0.929 . S
H288 C292 0.929 1_565 S
H289 C298 0.929 1_545 S
C290 H284 0.930 . S
C290 C291 1.367 . S
C290 C298 1.378 . S
C291 C290 1.367 . S
C291 C299 1.433 . S
C292 H288 0.929 1_545 S
C292 C294 1.378 . S
C292 C296 1.350 . S
C293 C296 1.463 1_565 S
C293 C298 1.350 . S
C293 N301 1.427 . S
C294 H285 0.930 . S
C294 C292 1.378 . S
C294 C295 1.367 . S
C295 C294 1.367 . S
C295 C297 1.433 . S
C296 C292 1.350 . S
C296 C293 1.463 1_545 S
C296 N300 1.427 . S
C297 H287 0.929 . S
C297 C295 1.433 . S
C297 N300 1.384 . S
C298 H289 0.929 1_565 S
C298 C290 1.378 . S
C298 C293 1.350 . S
C299 H286 0.929 . S
C299 C291 1.433 . S
C299 N301 1.384 . S
N300 C296 1.427 . S
N300 C297 1.384 . S
N301 C293 1.427 . S
N301 C299 1.384 . S
H302 C308 0.930 . S
H303 C312 0.930 . S
H304 C317 0.929 . S
H305 C315 0.929 . S
H306 C310 0.929 1_545 S
H307 C316 0.929 1_565 S
C308 H302 0.930 . S
C308 C309 1.367 . S
C308 C316 1.378 . S
C309 C308 1.367 . S
C309 C317 1.433 . S
C310 H306 0.929 1_565 S
C310 C312 1.378 . S
C310 C314 1.350 . S
C311 C314 1.463 1_645 S
C311 C316 1.350 . S
C311 N319 1.427 . S
C312 H303 0.930 . S
C312 C310 1.378 . S
C312 C313 1.367 . S
C313 C312 1.367 . S
C313 C315 1.433 . S
C314 C310 1.350 . S
C314 C311 1.463 1_465 S
C314 N318 1.427 . S
C315 H305 0.929 . S
C315 C313 1.433 . S
C315 N318 1.384 . S
C316 H307 0.929 1_545 S
C316 C308 1.378 . S
C316 C311 1.350 . S
C317 H304 0.929 . S
C317 C309 1.433 . S
C317 N319 1.384 . S
N318 C314 1.427 . S
N318 C315 1.384 . S
N319 C311 1.427 . S
N319 C317 1.384 . S
H320 C326 0.930 . S
H321 C330 0.930 . S
H322 C335 0.929 . S
H323 C333 0.929 . S
H324 C328 0.929 . S
H325 C334 0.929 . S
C326 H320 0.930 . S
C326 C327 1.367 . S
C326 C334 1.378 . S
C327 C326 1.367 . S
C327 C335 1.433 . S
C328 H324 0.929 . S
C328 C330 1.378 . S
C328 C332 1.350 . S
C329 C332 1.463 . S
C329 C334 1.350 . S
C329 N337 1.427 . S
C330 H321 0.930 . S
C330 C328 1.378 . S
C330 C331 1.367 . S
C331 C330 1.367 . S
C331 C333 1.433 . S
C332 C328 1.350 . S
C332 C329 1.463 . S
C332 N336 1.427 . S
C333 H323 0.929 . S
C333 C331 1.433 . S
C333 N336 1.384 . S
C334 H325 0.929 . S
C334 C326 1.378 . S
C334 C329 1.350 . S
C335 H322 0.929 . S
C335 C327 1.433 . S
C335 N337 1.384 . S
N336 C332 1.427 . S
N336 C333 1.384 . S
N337 C329 1.427 . S
N337 C335 1.384 . S
H338 C344 0.930 . S
H339 C348 0.930 . S
H340 C353 0.929 . S
H341 C351 0.929 . S
H342 C346 0.929 1_545 S
H343 C352 0.929 1_565 S
C344 H338 0.930 . S
C344 C345 1.367 . S
C344 C352 1.378 . S
C345 C344 1.367 . S
C345 C353 1.433 . S
C346 H342 0.929 1_565 S
C346 C348 1.378 . S
C346 C350 1.350 . S
C347 C350 1.463 1_545 S
C347 C352 1.350 . S
C347 N355 1.427 . S
C348 H339 0.930 . S
C348 C346 1.378 . S
C348 C349 1.367 . S
C349 C348 1.367 . S
C349 C351 1.433 . S
C350 C346 1.350 . S
C350 C347 1.463 1_565 S
C350 N354 1.427 . S
C351 H341 0.929 . S
C351 C349 1.433 . S
C351 N354 1.384 . S
C352 H343 0.929 1_545 S
C352 C344 1.378 . S
C352 C347 1.350 . S
C353 H340 0.929 . S
C353 C345 1.433 . S
C353 N355 1.384 . S
N354 C350 1.427 . S
N354 C351 1.384 . S
N355 C347 1.427 . S
N355 C353 1.384 . S
H356 C362 0.930 . S
H357 C366 0.930 . S
H358 C371 0.929 . S
H359 C369 0.929 . S
H360 C364 0.929 . S
H361 C370 0.929 . S
C362 H356 0.930 . S
C362 C363 1.367 . S
C362 C370 1.378 . S
C363 C362 1.367 . S
C363 C371 1.433 . S
C364 H360 0.929 . S
C364 C366 1.378 . S
C364 C368 1.350 . S
C365 C368 1.463 . S
C365 C370 1.350 . S
C365 N373 1.427 . S
C366 H357 0.930 . S
C366 C364 1.378 . S
C366 C367 1.367 . S
C367 C366 1.367 . S
C367 C369 1.433 . S
C368 C364 1.350 . S
C368 C365 1.463 . S
C368 N372 1.427 . S
C369 H359 0.929 . S
C369 C367 1.433 . S
C369 N372 1.384 . S
C370 H361 0.929 . S
C370 C362 1.378 . S
C370 C365 1.350 . S
C371 H358 0.929 . S
C371 C363 1.433 . S
C371 N373 1.384 . S
N372 C368 1.427 . S
N372 C369 1.384 . S
N373 C365 1.427 . S
N373 C371 1.384 . S
H374 C380 0.930 . S
H375 C384 0.930 . S
H376 C389 0.929 . S
H377 C387 0.929 . S
H378 C382 0.929 . S
H379 C388 0.929 . S
C380 H374 0.930 . S
C380 C381 1.367 . S
C380 C388 1.378 . S
C381 C380 1.367 . S
C381 C389 1.433 . S
C382 H378 0.929 . S
C382 C384 1.378 . S
C382 C386 1.350 . S
C383 C386 1.463 1_565 S
C383 C388 1.350 . S
C383 N391 1.427 . S
C384 H375 0.930 . S
C384 C382 1.378 . S
C384 C385 1.367 . S
C385 C384 1.367 . S
C385 C387 1.433 . S
C386 C382 1.350 . S
C386 C383 1.463 1_545 S
C386 N390 1.427 . S
C387 H377 0.929 . S
C387 C385 1.433 . S
C387 N390 1.384 . S
C388 H379 0.929 . S
C388 C380 1.378 . S
C388 C383 1.350 . S
C389 H376 0.929 . S
C389 C381 1.433 . S
C389 N391 1.384 . S
N390 C386 1.427 . S
N390 C387 1.384 . S
N391 C383 1.427 . S
N391 C389 1.384 . S
C111 C5 1.329 . S
C115 C18 1.317 . S
C129 C44 1.323 . S
C133 C31 1.321 . S
C147 C57 1.328 . S
C151 C70 1.340 . S
C165 C83 1.340 . S
C169 C96 1.323 . S
C183 C10 1.482 . S
C187 C36 1.483 . S
C201 C49 1.481 . S
C205 C23 1.485 . S
C219 C62 1.488 . S
C223 C88 1.480 . S
C237 C101 1.489 . S
C241 C75 1.491 . S
C255 C0 1.489 . S
C259 C52 1.489 . S
C273 C13 1.486 . S
C277 C65 1.486 . S
C291 C78 1.490 . S
C295 C26 1.490 . S
C309 C91 1.485 . S
C313 C39 1.485 . S
C327 C21 0.682 . S
C331 C8 0.685 . S
C345 C34 0.688 . S
C349 C47 0.689 . S
C363 C60 0.681 . S
C367 C73 0.685 . S
C381 C86 0.667 . S
C385 C99 0.670 . S
