# Generated by pormake.
# Topology gsi, (4)-cn, num edge types: 1
# Building blocks:
#     Node 0, Type 0, BuildingBlock: NAHDIM_clean_sbu_0, # of connection points: 4
#     Node 1, Type 0, BuildingBlock: NAHDIM_clean_sbu_0, # of connection points: 4
#     Node 2, Type 0, BuildingBlock: NAHDIM_clean_sbu_0, # of connection points: 4
#     Node 3, Type 0, BuildingBlock: NAHDIM_clean_sbu_0, # of connection points: 4
#     Node 4, Type 0, BuildingBlock: NAHDIM_clean_sbu_0, # of connection points: 4
#     Node 5, Type 0, BuildingBlock: NAHDIM_clean_sbu_0, # of connection points: 4
#     Node 6, Type 0, BuildingBlock: NAHDIM_clean_sbu_0, # of connection points: 4
#     Node 7, Type 0, BuildingBlock: NAHDIM_clean_sbu_0, # of connection points: 4
#     Node 8, Type 0, BuildingBlock: NAHDIM_clean_sbu_0, # of connection points: 4
#     Node 9, Type 0, BuildingBlock: NAHDIM_clean_sbu_0, # of connection points: 4
#     Node 10, Type 0, BuildingBlock: NAHDIM_clean_sbu_0, # of connection points: 4
#     Node 11, Type 0, BuildingBlock: NAHDIM_clean_sbu_0, # of connection points: 4
#     Node 12, Type 0, BuildingBlock: NAHDIM_clean_sbu_0, # of connection points: 4
#     Node 13, Type 0, BuildingBlock: NAHDIM_clean_sbu_0, # of connection points: 4
#     Node 14, Type 0, BuildingBlock: NAHDIM_clean_sbu_0, # of connection points: 4
#     Node 15, Type 0, BuildingBlock: NAHDIM_clean_sbu_0, # of connection points: 4
#     Edge 16, Type (0, 0), BuildingBlock: XIVTED_clean_linker_0, # of connection points: 2
#     Edge 17, Type (0, 0), BuildingBlock: XIVTED_clean_linker_0, # of connection points: 2
#     Edge 18, Type (0, 0), BuildingBlock: XIVTED_clean_linker_0, # of connection points: 2
#     Edge 19, Type (0, 0), BuildingBlock: XIVTED_clean_linker_0, # of connection points: 2
#     Edge 20, Type (0, 0), BuildingBlock: XIVTED_clean_linker_0, # of connection points: 2
#     Edge 21, Type (0, 0), BuildingBlock: XIVTED_clean_linker_0, # of connection points: 2
#     Edge 22, Type (0, 0), BuildingBlock: XIVTED_clean_linker_0, # of connection points: 2
#     Edge 23, Type (0, 0), BuildingBlock: XIVTED_clean_linker_0, # of connection points: 2
#     Edge 24, Type (0, 0), BuildingBlock: XIVTED_clean_linker_0, # of connection points: 2
#     Edge 25, Type (0, 0), BuildingBlock: XIVTED_clean_linker_0, # of connection points: 2
#     Edge 26, Type (0, 0), BuildingBlock: XIVTED_clean_linker_0, # of connection points: 2
#     Edge 27, Type (0, 0), BuildingBlock: XIVTED_clean_linker_0, # of connection points: 2
#     Edge 28, Type (0, 0), BuildingBlock: XIVTED_clean_linker_0, # of connection points: 2
#     Edge 29, Type (0, 0), BuildingBlock: XIVTED_clean_linker_0, # of connection points: 2
#     Edge 30, Type (0, 0), BuildingBlock: XIVTED_clean_linker_0, # of connection points: 2
#     Edge 31, Type (0, 0), BuildingBlock: XIVTED_clean_linker_0, # of connection points: 2
#     Edge 32, Type (0, 0), BuildingBlock: XIVTED_clean_linker_0, # of connection points: 2
#     Edge 33, Type (0, 0), BuildingBlock: XIVTED_clean_linker_0, # of connection points: 2
#     Edge 34, Type (0, 0), BuildingBlock: XIVTED_clean_linker_0, # of connection points: 2
#     Edge 35, Type (0, 0), BuildingBlock: XIVTED_clean_linker_0, # of connection points: 2
#     Edge 36, Type (0, 0), BuildingBlock: XIVTED_clean_linker_0, # of connection points: 2
#     Edge 37, Type (0, 0), BuildingBlock: XIVTED_clean_linker_0, # of connection points: 2
#     Edge 38, Type (0, 0), BuildingBlock: XIVTED_clean_linker_0, # of connection points: 2
#     Edge 39, Type (0, 0), BuildingBlock: XIVTED_clean_linker_0, # of connection points: 2
#     Edge 40, Type (0, 0), BuildingBlock: XIVTED_clean_linker_0, # of connection points: 2
#     Edge 41, Type (0, 0), BuildingBlock: XIVTED_clean_linker_0, # of connection points: 2
#     Edge 42, Type (0, 0), BuildingBlock: XIVTED_clean_linker_0, # of connection points: 2
#     Edge 43, Type (0, 0), BuildingBlock: XIVTED_clean_linker_0, # of connection points: 2
#     Edge 44, Type (0, 0), BuildingBlock: XIVTED_clean_linker_0, # of connection points: 2
#     Edge 45, Type (0, 0), BuildingBlock: XIVTED_clean_linker_0, # of connection points: 2
#     Edge 46, Type (0, 0), BuildingBlock: XIVTED_clean_linker_0, # of connection points: 2
#     Edge 47, Type (0, 0), BuildingBlock: XIVTED_clean_linker_0, # of connection points: 2
# Relax obj value: 0.051
# Max RMSD: 0.059
# Mean RMSD: 0.054
data_MOF--net-gsi--node1-NAHDIM_clean_sbu_0--edge1-XIVTED_clean_linker_0
_symmetry_space_group_name_H-M    P1
_symmetry_Int_Tables_number       1
_symmetry_cell_setting            triclinic
loop_
_symmetry_equiv_pos_as_xyz
'x, y, z'
_cell_length_a     41.939954
_cell_length_b     43.048158
_cell_length_c     43.229773
_cell_angle_alpha  89.991495
_cell_angle_beta   90.017206
_cell_angle_gamma 95.346195
loop_
_atom_site_label
_atom_site_type_symbol
_atom_site_fract_x
_atom_site_fract_y
_atom_site_fract_z
_atom_type_partial_charge
C0 C 0.09022 0.17764 0.10507 0.0
O1 O 0.10073 0.16602 0.07932 0.0
O2 O 0.16351 0.13934 0.09459 0.0
Zn3 Zn 0.14299 0.14863 0.13554 0.0
O4 O 0.17537 0.17589 0.16025 0.0
C5 C 0.1266 0.082 0.14989 0.0
O6 O 0.12581 0.0776 0.11981 0.0
O7 O 0.10407 0.1725 0.13048 0.0
C8 C 0.19328 0.16417 0.17999 0.0
O9 O 0.19065 0.13383 0.18425 0.0
C10 C 0.18866 0.12495 0.09481 0.0
O11 O 0.19933 0.11522 0.12132 0.0
O12 O 0.1321 0.10949 0.16049 0.0
C13 C 0.90742 0.31283 0.10899 0.0
O14 O 0.88567 0.31026 0.08703 0.0
O15 O 0.83964 0.35944 0.09974 0.0
Zn16 Zn 0.86339 0.35201 0.13949 0.0
O17 O 0.83381 0.32473 0.16727 0.0
C18 C 0.87592 0.41959 0.15064 0.0
O19 O 0.87182 0.42277 0.12072 0.0
O20 O 0.90312 0.32981 0.13241 0.0
C21 C 0.81842 0.33673 0.18888 0.0
O22 O 0.82186 0.36709 0.19294 0.0
C23 C 0.81231 0.36986 0.10185 0.0
O24 O 0.80137 0.37628 0.12935 0.0
O25 O 0.87472 0.39241 0.16227 0.0
C26 C 0.13727 0.90197 0.29563 0.0
O27 O 0.13003 0.87338 0.28555 0.0
O28 O 0.11045 0.84319 0.35339 0.0
Zn29 Zn 0.154 0.86686 0.34719 0.0
O30 O 0.18057 0.84001 0.32135 0.0
C31 C 0.16663 0.86423 0.41315 0.0
O32 O 0.13864 0.8478 0.41346 0.0
O33 O 0.14838 0.90592 0.32287 0.0
C34 C 0.20006 0.82266 0.33351 0.0
O35 O 0.20364 0.82267 0.3637 0.0
C36 C 0.10769 0.81367 0.35648 0.0
O37 O 0.13359 0.79874 0.35684 0.0
O38 O 0.17717 0.87616 0.38781 0.0
C39 C 0.86266 0.60184 0.29284 0.0
O40 O 0.86789 0.63039 0.28204 0.0
O41 O 0.89002 0.66096 0.3514 0.0
Zn42 Zn 0.84675 0.63674 0.34496 0.0
O43 O 0.81948 0.6631 0.31924 0.0
C44 C 0.83323 0.64028 0.41053 0.0
O45 O 0.85972 0.65912 0.4103 0.0
O46 O 0.85312 0.5979 0.32062 0.0
C47 C 0.7999 0.68026 0.33156 0.0
O48 O 0.7968 0.68041 0.36179 0.0
C49 C 0.89271 0.6906 0.35291 0.0
O50 O 0.86687 0.70553 0.3512 0.0
O51 O 0.82383 0.6267 0.38558 0.0
C52 C 0.40164 0.80395 0.62489 0.0
O53 O 0.37342 0.78796 0.62599 0.0
O54 O 0.33734 0.8603 0.59876 0.0
Zn55 Zn 0.36317 0.85409 0.6376 0.0
O56 O 0.33579 0.827 0.66692 0.0
C57 C 0.36886 0.92139 0.64925 0.0
O58 O 0.35942 0.92359 0.62043 0.0
O59 O 0.40345 0.83339 0.62854 0.0
C60 C 0.31141 0.83804 0.67852 0.0
O61 O 0.30524 0.86645 0.67101 0.0
C62 C 0.31493 0.83964 0.59146 0.0
O63 O 0.3104 0.81421 0.60829 0.0
O64 O 0.37327 0.89475 0.66025 0.0
C65 C 0.84149 0.89696 0.81552 0.0
O66 O 0.81392 0.87976 0.81486 0.0
O67 O 0.83079 0.85 0.89153 0.0
Zn68 Zn 0.85629 0.84577 0.85229 0.0
O69 O 0.82979 0.81734 0.8231 0.0
C70 C 0.90177 0.80887 0.88313 0.0
O71 O 0.87868 0.80345 0.90347 0.0
O72 O 0.86439 0.88758 0.83121 0.0
C73 C 0.83895 0.79254 0.81152 0.0
O74 O 0.86753 0.78436 0.81827 0.0
C75 C 0.81073 0.82747 0.8996 0.0
O76 O 0.80791 0.80201 0.88269 0.0
O77 O 0.89793 0.82711 0.86056 0.0
C78 C 0.15475 0.59734 0.81618 0.0
O79 O 0.18311 0.61291 0.81866 0.0
O80 O 0.16185 0.64539 0.89145 0.0
Zn81 Zn 0.13913 0.6496 0.85077 0.0
O82 O 0.1683 0.67738 0.82331 0.0
C83 C 0.08291 0.67225 0.88137 0.0
O84 O 0.09267 0.65869 0.90642 0.0
O85 O 0.13095 0.60805 0.82929 0.0
C86 C 0.16383 0.70568 0.81794 0.0
O87 O 0.13934 0.71769 0.83068 0.0
C88 C 0.17162 0.67047 0.90541 0.0
O89 O 0.16528 0.69726 0.89343 0.0
O90 O 0.09818 0.67005 0.8562 0.0
C91 C 0.79747 0.16117 0.60555 0.0
O92 O 0.79763 0.1849 0.62465 0.0
O93 O 0.88583 0.16145 0.6425 0.0
Zn94 Zn 0.84131 0.14143 0.65087 0.0
O95 O 0.82101 0.16823 0.68195 0.0
C96 C 0.86257 0.09451 0.69106 0.0
O97 O 0.88242 0.1181 0.70031 0.0
O98 O 0.81471 0.13916 0.6117 0.0
C99 C 0.80238 0.15753 0.70338 0.0
O100 O 0.79582 0.12722 0.70619 0.0
C101 C 0.88982 0.19081 0.6384 0.0
O102 O 0.86469 0.20688 0.63845 0.0
O103 O 0.84312 0.09866 0.66921 0.0
C104 C 0.18115 0.33792 0.58687 0.0
O105 O 0.1671 0.31139 0.59717 0.0
O106 O 0.11329 0.33552 0.63973 0.0
Zn107 Zn 0.15775 0.3579 0.64456 0.0
O108 O 0.18412 0.33246 0.67189 0.0
C109 C 0.13264 0.40698 0.68098 0.0
O110 O 0.10723 0.38685 0.68343 0.0
O111 O 0.17995 0.36237 0.60314 0.0
C112 C 0.17863 0.33015 0.70074 0.0
O113 O 0.15553 0.34485 0.71279 0.0
C114 C 0.10857 0.30629 0.64457 0.0
O115 O 0.13282 0.29083 0.65263 0.0
O116 O 0.15624 0.39996 0.66479 0.0
C117 C 0.65397 0.09328 0.32136 0.0
O118 O 0.68283 0.10668 0.32701 0.0
O119 O 0.65985 0.1416 0.39522 0.0
Zn120 Zn 0.63899 0.14698 0.3537 0.0
O121 O 0.66998 0.17379 0.32717 0.0
C122 C 0.58149 0.1705 0.38143 0.0
O123 O 0.58793 0.15457 0.40622 0.0
O124 O 0.62992 0.10588 0.33174 0.0
C125 C 0.66855 0.20307 0.325 0.0
O126 O 0.64655 0.21624 0.34059 0.0
C127 C 0.66539 0.16556 0.41227 0.0
O128 O 0.65625 0.19232 0.40275 0.0
O129 O 0.59896 0.16922 0.35754 0.0
C130 C 0.59905 0.68915 0.62626 0.0
O131 O 0.62712 0.70526 0.62866 0.0
O132 O 0.66331 0.63361 0.59768 0.0
Zn133 Zn 0.63784 0.63876 0.63699 0.0
O134 O 0.66554 0.66557 0.66628 0.0
C135 C 0.63792 0.57228 0.65006 0.0
O136 O 0.65341 0.57169 0.6237 0.0
O137 O 0.59741 0.65958 0.62852 0.0
C138 C 0.69191 0.65614 0.67503 0.0
O139 O 0.69996 0.62917 0.66493 0.0
C140 C 0.68403 0.65566 0.58979 0.0
O141 O 0.68686 0.68137 0.60631 0.0
O142 O 0.62794 0.59772 0.65918 0.0
C143 C 0.64904 0.39018 0.79294 0.0
O144 O 0.65191 0.36218 0.78184 0.0
O145 O 0.61498 0.33343 0.85985 0.0
Zn146 Zn 0.65755 0.35735 0.84937 0.0
O147 O 0.68442 0.32884 0.82621 0.0
C148 C 0.67113 0.37021 0.91487 0.0
O149 O 0.64015 0.36378 0.91874 0.0
O150 O 0.65056 0.39439 0.82207 0.0
C151 C 0.68955 0.30243 0.83727 0.0
O152 O 0.67726 0.29393 0.86427 0.0
C153 C 0.60336 0.31281 0.84087 0.0
O154 O 0.61889 0.3084 0.8151 0.0
O155 O 0.68277 0.37004 0.88776 0.0
C156 C 0.3561 0.10591 0.78868 0.0
O157 O 0.36161 0.13457 0.77822 0.0
O158 O 0.38721 0.16088 0.85074 0.0
Zn159 Zn 0.34305 0.14027 0.84223 0.0
O160 O 0.31944 0.16999 0.81694 0.0
C161 C 0.32864 0.12266 0.90703 0.0
O162 O 0.35931 0.11915 0.90963 0.0
O163 O 0.34735 0.10172 0.81667 0.0
C164 C 0.30169 0.18872 0.82957 0.0
O165 O 0.29869 0.18873 0.85981 0.0
C166 C 0.39279 0.18572 0.86649 0.0
O167 O 0.36887 0.19812 0.87984 0.0
O168 O 0.31758 0.13052 0.88112 0.0
C169 C 0.34879 0.40656 0.31891 0.0
O170 O 0.32033 0.39227 0.32462 0.0
O171 O 0.33805 0.35767 0.38896 0.0
Zn172 Zn 0.36472 0.35321 0.35041 0.0
O173 O 0.3391 0.32525 0.32017 0.0
C174 C 0.40989 0.31799 0.38384 0.0
O175 O 0.3876 0.31577 0.40525 0.0
O176 O 0.37336 0.39464 0.32904 0.0
C177 C 0.34412 0.29695 0.31561 0.0
O178 O 0.36688 0.28487 0.33114 0.0
C179 C 0.31812 0.33498 0.39689 0.0
O180 O 0.31616 0.3093 0.38034 0.0
O181 O 0.40585 0.33399 0.35964 0.0
C182 C 0.30836 0.66793 0.0959 0.0
O183 O 0.317 0.69458 0.10972 0.0
O184 O 0.38134 0.66963 0.14604 0.0
Zn185 Zn 0.33722 0.64685 0.14995 0.0
O186 O 0.31152 0.67356 0.17676 0.0
C187 C 0.36341 0.5918 0.17685 0.0
O188 O 0.3914 0.60495 0.16791 0.0
O189 O 0.31533 0.64277 0.10852 0.0
C190 C 0.30661 0.66814 0.20535 0.0
O191 O 0.31782 0.64368 0.21811 0.0
C192 C 0.39559 0.67814 0.17102 0.0
O193 O 0.38186 0.67021 0.19753 0.0
O194 O 0.33823 0.60487 0.17054 0.0
C195 C 0.67807 0.83298 0.09227 0.0
O196 O 0.66401 0.80681 0.10345 0.0
O197 O 0.61267 0.83104 0.14656 0.0
Zn198 Zn 0.65691 0.85374 0.14998 0.0
O199 O 0.68339 0.82699 0.17601 0.0
C200 C 0.63156 0.90761 0.17994 0.0
O201 O 0.60324 0.89297 0.17445 0.0
O202 O 0.67765 0.85781 0.10809 0.0
C203 C 0.68879 0.83249 0.20452 0.0
O204 O 0.67749 0.85679 0.21747 0.0
C205 C 0.59958 0.81979 0.17115 0.0
O206 O 0.6144 0.82499 0.19767 0.0
O207 O 0.65651 0.89579 0.17059 0.0
H208 H 0.20124 0.22809 0.18154 0.0
H209 H 0.34421 0.23435 0.30474 0.0
H210 H 0.23836 0.14628 0.22025 0.0
H211 H 0.29701 0.31507 0.27758 0.0
H212 H 0.30865 0.2022 0.27039 0.0
H213 H 0.23921 0.26085 0.2132 0.0
C214 C 0.21742 0.21701 0.19662 0.0
C215 C 0.21655 0.18439 0.19835 0.0
C216 C 0.3061 0.22695 0.27191 0.0
C217 C 0.26005 0.22171 0.23456 0.0
C218 C 0.32644 0.24535 0.29148 0.0
C219 C 0.32349 0.27743 0.29413 0.0
C220 C 0.28271 0.24075 0.25476 0.0
C221 C 0.30005 0.2904 0.27635 0.0
C222 C 0.23905 0.23572 0.21472 0.0
C223 C 0.23809 0.17132 0.21827 0.0
N224 N 0.28053 0.272 0.25743 0.0
N225 N 0.25895 0.19002 0.2356 0.0
H226 H 0.77868 0.35577 0.23363 0.0
H227 H 0.71373 0.18308 0.28572 0.0
H228 H 0.80829 0.2728 0.19024 0.0
H229 H 0.67496 0.26649 0.31861 0.0
H230 H 0.7506 0.21533 0.25248 0.0
H231 H 0.74258 0.32314 0.26688 0.0
C232 C 0.77762 0.33066 0.23109 0.0
C233 C 0.79654 0.31699 0.20908 0.0
C234 C 0.734 0.22654 0.26696 0.0
C235 C 0.75519 0.27944 0.2472 0.0
C236 C 0.71299 0.20817 0.28599 0.0
C237 C 0.69121 0.22213 0.30496 0.0
C238 C 0.73333 0.25909 0.26704 0.0
C239 C 0.69129 0.25472 0.30434 0.0
C240 C 0.75693 0.31204 0.25008 0.0
C241 C 0.7941 0.28432 0.20685 0.0
N242 N 0.71205 0.27208 0.28572 0.0
N243 N 0.77382 0.26663 0.22573 0.0
H244 H 0.2988 0.66789 0.2682 0.0
H245 H 0.20068 0.81853 0.27029 0.0
H246 H 0.27725 0.71892 0.18596 0.0
H247 H 0.2367 0.77691 0.35258 0.0
H248 H 0.22628 0.78074 0.23888 0.0
H249 H 0.27329 0.70584 0.29942 0.0
C250 C 0.2886 0.687 0.25668 0.0
C251 C 0.29019 0.69025 0.22441 0.0
C252 C 0.22866 0.77995 0.26381 0.0
C253 C 0.26102 0.73381 0.26003 0.0
C254 C 0.21406 0.80152 0.28176 0.0
C255 C 0.21655 0.80087 0.31412 0.0
C256 C 0.2457 0.75743 0.27832 0.0
C257 C 0.2342 0.77831 0.32771 0.0
C258 C 0.27415 0.70873 0.27454 0.0
C259 C 0.27662 0.71553 0.21077 0.0
N260 N 0.24799 0.75741 0.30975 0.0
N261 N 0.26258 0.73633 0.22866 0.0
H262 H 0.79824 0.68402 0.26831 0.0
H263 H 0.69792 0.83316 0.26717 0.0
H264 H 0.76286 0.72553 0.35092 0.0
H265 H 0.71835 0.78193 0.18475 0.0
H266 H 0.72457 0.79576 0.29806 0.0
H267 H 0.77152 0.72122 0.2371 0.0
C268 C 0.78477 0.70088 0.27989 0.0
C269 C 0.78278 0.70167 0.31229 0.0
C270 C 0.72322 0.79269 0.27322 0.0
C271 C 0.75237 0.74443 0.27672 0.0
C272 C 0.70811 0.81412 0.25554 0.0
C273 C 0.70587 0.81065 0.22333 0.0
C274 C 0.73637 0.76771 0.25858 0.0
C275 C 0.71947 0.78547 0.20954 0.0
C276 C 0.76953 0.72211 0.26205 0.0
C277 C 0.765 0.72403 0.32602 0.0
N278 N 0.73417 0.76498 0.22725 0.0
N279 N 0.75059 0.74459 0.30817 0.0
H280 H 0.25789 0.85492 0.70783 0.0
H281 H 0.21729 0.68853 0.78849 0.0
H282 H 0.3157 0.7777 0.69705 0.0
H283 H 0.16104 0.76665 0.80109 0.0
H284 H 0.25358 0.72076 0.75487 0.0
H285 H 0.22212 0.82286 0.74203 0.0
C286 C 0.26309 0.83122 0.71267 0.0
C287 C 0.28983 0.81897 0.69955 0.0
C288 C 0.23331 0.73086 0.765 0.0
C289 C 0.24893 0.78211 0.73868 0.0
C290 C 0.21256 0.71246 0.7842 0.0
C291 C 0.18606 0.72491 0.79762 0.0
C292 C 0.22752 0.76193 0.75913 0.0
C293 C 0.18115 0.75607 0.79124 0.0
C294 C 0.24265 0.81292 0.73222 0.0
C295 C 0.29537 0.78812 0.70667 0.0
N296 N 0.20167 0.77349 0.77243 0.0
N297 N 0.27507 0.77073 0.72573 0.0
H298 H 0.75093 0.64396 0.69636 0.0
H299 H 0.77897 0.80343 0.79191 0.0
H300 H 0.6827 0.71305 0.70002 0.0
H301 H 0.84934 0.73666 0.7848 0.0
H302 H 0.74311 0.77021 0.75883 0.0
H303 H 0.78696 0.67711 0.72945 0.0
C304 C 0.74348 0.66608 0.70416 0.0
C305 C 0.71374 0.67574 0.69542 0.0
C306 C 0.7664 0.76282 0.76447 0.0
C307 C 0.7549 0.71382 0.73327 0.0
C308 C 0.78691 0.78178 0.78337 0.0
C309 C 0.81722 0.77281 0.79115 0.0
C310 C 0.7762 0.7346 0.75327 0.0
C311 C 0.8262 0.74451 0.77939 0.0
C312 C 0.7641 0.68502 0.72303 0.0
C313 C 0.70539 0.70465 0.70619 0.0
N314 N 0.80576 0.7264 0.76106 0.0
N315 N 0.72587 0.72266 0.72456 0.0
H316 H 0.69787 0.24126 0.84966 0.0
H317 H 0.8056 0.22111 0.6996 0.0
H318 H 0.72273 0.31478 0.78359 0.0
H319 H 0.76527 0.14341 0.7546 0.0
H320 H 0.77969 0.25657 0.73331 0.0
H321 H 0.72674 0.20586 0.81816 0.0
C322 C 0.70951 0.25 0.82862 0.0
C323 C 0.70782 0.281 0.81919 0.0
C324 C 0.77652 0.23177 0.73804 0.0
C325 C 0.74087 0.24067 0.78314 0.0
C326 C 0.79138 0.21149 0.71884 0.0
C327 C 0.7875 0.17921 0.72423 0.0
C328 C 0.75776 0.21976 0.76295 0.0
C329 C 0.76879 0.16811 0.74952 0.0
C330 C 0.7259 0.22976 0.81062 0.0
C331 C 0.72332 0.29105 0.7917 0.0
N332 N 0.75459 0.18837 0.76797 0.0
N333 N 0.73919 0.27094 0.77466 0.0
H334 H 0.17456 0.32138 0.7634 0.0
H335 H 0.30449 0.1965 0.76673 0.0
H336 H 0.22519 0.29353 0.68253 0.0
H337 H 0.25942 0.22955 0.84866 0.0
H338 H 0.27517 0.23153 0.73545 0.0
H339 H 0.205 0.28752 0.79501 0.0
C340 C 0.19211 0.30819 0.75229 0.0
C341 C 0.19732 0.31028 0.72026 0.0
C342 C 0.27173 0.23117 0.76028 0.0
C343 C 0.23219 0.27142 0.7563 0.0
C344 C 0.28844 0.21114 0.77816 0.0
C345 C 0.28437 0.21006 0.81038 0.0
C346 C 0.25069 0.25021 0.77467 0.0
C347 C 0.2633 0.22961 0.82391 0.0
C348 C 0.2095 0.28887 0.77036 0.0
C349 C 0.22039 0.29267 0.70714 0.0
N350 N 0.2472 0.24883 0.80598 0.0
N351 N 0.23691 0.27393 0.7252 0.0
H352 H 0.14715 0.96438 0.30938 0.0
H353 H 0.11517 0.01968 0.13615 0.0
H354 H 0.11845 0.90087 0.23503 0.0
H355 H 0.13339 0.08311 0.21284 0.0
H356 H 0.11555 0.97579 0.17206 0.0
H357 H 0.14184 0.00823 0.27438 0.0
C358 C 0.13966 0.95965 0.28573 0.0
C359 C 0.13333 0.92889 0.27512 0.0
C360 C 0.11927 -0.00068 0.18104 0.0
C361 C 0.12727 0.97898 0.23488 0.0
C362 C 0.11902 0.0244 0.16054 0.0
C363 C 0.12434 0.05515 0.17145 0.0
C364 C 0.12506 0.00501 0.21266 0.0
C365 C 0.12921 0.05983 0.20334 0.0
C366 C 0.13658 0.9847 0.26575 0.0
C367 C 0.12362 0.92418 0.24423 0.0
N368 N 0.12963 0.03506 0.22275 0.0
N369 N 0.12103 0.94893 0.22519 0.0
H370 H 0.87976 0.48152 0.13456 0.0
H371 H 0.8586 0.53979 0.30841 0.0
H372 H 0.87667 0.4204 0.21393 0.0
H373 H 0.87686 0.6024 0.23108 0.0
H374 H 0.86483 0.49568 0.27403 0.0
H375 H 0.87885 0.5262 0.16941 0.0
C376 C 0.87915 0.4775 0.15929 0.0
C377 C 0.87819 0.44714 0.1713 0.0
C378 C 0.86762 0.51908 0.26461 0.0
C379 C 0.87683 0.49814 0.21132 0.0
C380 C 0.86398 0.54428 0.28423 0.0
C381 C 0.86712 0.57485 0.27261 0.0
C382 C 0.87421 0.52445 0.23308 0.0
C383 C 0.8742 0.57924 0.24107 0.0
C384 C 0.87861 0.50302 0.17919 0.0
C385 C 0.87742 0.44336 0.20358 0.0
N386 N 0.87735 0.55433 0.22239 0.0
N387 N 0.87653 0.46851 0.22243 0.0
H388 H 0.34291 0.10454 0.96596 0.0
H389 H 0.17356 0.14119 0.03551 0.0
H390 H 0.2656 0.13399 0.91043 0.0
H391 H 0.24629 0.10063 0.08877 0.0
H392 H 0.20661 0.138 0.98921 0.0
H393 H 0.30767 0.10231 0.01114 0.0
C394 C 0.3185 0.11038 0.96321 0.0
C395 C 0.30726 0.11955 0.93435 0.0
C396 C 0.21525 0.12963 0.011 0.0
C397 C 0.26681 0.11721 0.98602 0.0
C398 C 0.19638 0.13144 0.03745 0.0
C399 C 0.20721 0.12129 0.06611 0.0
C400 C 0.24528 0.11776 0.01324 0.0
C401 C 0.23697 0.10881 0.0672 0.0
C402 C 0.29837 0.10908 0.98902 0.0
C403 C 0.27536 0.12682 0.9322 0.0
N404 N 0.25503 0.10758 0.04121 0.0
N405 N 0.25634 0.12566 0.95769 0.0
H406 H 0.75043 0.38479 0.09978 0.0
H407 H 0.73671 0.37437 0.91541 0.0
H408 H 0.82824 0.36275 0.04076 0.0
H409 H 0.655 0.37519 0.97605 0.0
H410 H 0.77186 0.37705 0.96059 0.0
H411 H 0.7166 0.38808 0.05418 0.0
C412 C 0.7605 0.3808 0.07721 0.0
C413 C 0.79222 0.37333 0.07412 0.0
C414 C 0.74626 0.37678 0.96399 0.0
C415 C 0.75349 0.37714 0.02175 0.0
C416 C 0.72614 0.37539 0.9382 0.0
C417 C 0.69278 0.37441 0.94193 0.0
C418 C 0.733 0.37741 0.99377 0.0
C419 C 0.68053 0.37576 0.97206 0.0
C420 C 0.74109 0.38262 0.05119 0.0
C421 C 0.80389 0.36843 0.04425 0.0
N422 N 0.70063 0.37713 0.99681 0.0
N423 N 0.78451 0.37039 0.01921 0.0
H424 H 0.25894 0.80532 0.57732 0.0
H425 H 0.22609 0.89586 0.42139 0.0
H426 H 0.32049 0.88542 0.54677 0.0
H427 H 0.15498 0.8335 0.46785 0.0
H428 H 0.26215 0.89171 0.46555 0.0
H429 H 0.22211 0.81387 0.53529 0.0
C430 C 0.26479 0.82469 0.5617 0.0
C431 C 0.29293 0.84464 0.56554 0.0
C432 C 0.23854 0.87919 0.46613 0.0
C433 C 0.25065 0.8546 0.51721 0.0
C434 C 0.21793 0.88156 0.44097 0.0
C435 C 0.18749 0.86488 0.44083 0.0
C436 C 0.22876 0.85975 0.49112 0.0
C437 C 0.17821 0.84673 0.46684 0.0
C438 C 0.24361 0.82967 0.53778 0.0
C439 C 0.29908 0.86946 0.54464 0.0
N440 N 0.19885 0.84443 0.49075 0.0
N441 N 0.27817 0.87366 0.52123 0.0
H442 H 0.73699 0.69397 0.57436 0.0
H443 H 0.77631 0.60423 0.41971 0.0
H444 H 0.68176 0.60915 0.54584 0.0
H445 H 0.8425 0.67283 0.46446 0.0
H446 H 0.74006 0.60619 0.46404 0.0
H447 H 0.77412 0.68784 0.53204 0.0
C448 C 0.73258 0.67405 0.55912 0.0
C449 C 0.70614 0.65207 0.56363 0.0
C450 C 0.76266 0.62058 0.4642 0.0
C451 C 0.74879 0.64488 0.51495 0.0
C452 C 0.78337 0.61946 0.43895 0.0
C453 C 0.81246 0.63851 0.43828 0.0
C454 C 0.77096 0.64113 0.48875 0.0
C455 C 0.82035 0.65779 0.46386 0.0
C456 C 0.75395 0.67048 0.53502 0.0
C457 C 0.70183 0.62666 0.54319 0.0
N458 N 0.79962 0.65879 0.48786 0.0
N459 N 0.72288 0.62382 0.51959 0.0
H460 H 0.95259 0.30696 0.15379 0.0
H461 H 0.05258 0.19145 0.05579 0.0
H462 H 0.92639 0.27666 0.06126 0.0
H463 H 0.06649 0.20956 0.15332 0.0
H464 H 0.00876 0.22532 0.05583 0.0
H465 H 0.99728 0.27457 0.15231 0.0
C466 C 0.95631 0.29363 0.13306 0.0
C467 C 0.93559 0.29449 0.10763 0.0
C468 C 0.0214 0.22181 0.0772 0.0
C469 C 0.98685 0.25718 0.10583 0.0
C470 C 0.04643 0.20248 0.07721 0.0
C471 C 0.06324 0.19757 0.10461 0.0
C472 C 0.01327 0.2365 0.10475 0.0
C473 C 0.0542 0.21255 0.13166 0.0
C474 C 0.98181 0.27502 0.13229 0.0
C475 C 0.94167 0.27664 0.08144 0.0
N476 N 0.02993 0.23135 0.13101 0.0
N477 N 0.96673 0.25871 0.08122 0.0
H478 H 0.9514 0.66761 0.35731 0.0
H479 H 0.04888 0.83672 0.35629 0.0
H480 H 0.90655 0.75389 0.35524 0.0
H481 H 0.0937 0.75053 0.36133 0.0
H482 H 0.99643 0.8068 0.35752 0.0
H483 H 0.00374 0.6976 0.36037 0.0
C484 C 0.95253 0.69285 0.3576 0.0
C485 C 0.92454 0.70825 0.3559 0.0
C486 C 0.01774 0.79444 0.35848 0.0
C487 C 0.98438 0.74274 0.35933 0.0
C488 C 0.04771 0.81152 0.35779 0.0
C489 C 0.07574 0.79611 0.3586 0.0
C490 C 0.01577 0.7617 0.35991 0.0
C491 C 0.07274 0.76341 0.36058 0.0
C492 C 0.98243 0.70997 0.35935 0.0
C493 C 0.92748 0.74101 0.35643 0.0
N494 N 0.04331 0.7473 0.36105 0.0
N495 N 0.95685 0.75714 0.35799 0.0
H496 H 0.53669 0.66364 0.62192 0.0
H497 H 0.4641 0.82937 0.62279 0.0
H498 H 0.5945 0.75203 0.62266 0.0
H499 H 0.40612 0.74113 0.61963 0.0
H500 H 0.51218 0.80144 0.62036 0.0
H501 H 0.4886 0.69155 0.61874 0.0
C502 C 0.53931 0.6889 0.62126 0.0
C503 C 0.56971 0.7055 0.62271 0.0
C504 C 0.48894 0.78819 0.62005 0.0
C505 C 0.51472 0.73763 0.61916 0.0
C506 C 0.46145 0.80414 0.62142 0.0
C507 C 0.431 0.78758 0.62156 0.0
C508 C 0.486 0.75541 0.61891 0.0
C509 C 0.42908 0.75488 0.61968 0.0
C510 C 0.51182 0.70484 0.61946 0.0
C511 C 0.57159 0.73823 0.62171 0.0
N512 N 0.45618 0.73989 0.61859 0.0
N513 N 0.5445 0.7532 0.62014 0.0
H514 H 0.81887 0.04381 0.68335 0.0
H515 H 0.89316 0.94123 0.81497 0.0
H516 H 0.90239 0.07649 0.73668 0.0
H517 H 0.79992 0.9189 0.77406 0.0
H518 H 0.89968 0.98881 0.78358 0.0
H519 H 0.81461 0.99541 0.71308 0.0
C520 C 0.83646 0.04074 0.70118 0.0
C521 C 0.86097 0.06431 0.70759 0.0
C522 C 0.8778 0.97348 0.78154 0.0
C523 C 0.85615 0.0089 0.74184 0.0
C524 C 0.87407 0.94632 0.79943 0.0
C525 C 0.84591 0.92608 0.79721 0.0
C526 C 0.85332 0.98027 0.76112 0.0
C527 C 0.82198 0.93385 0.77665 0.0
C528 C 0.83393 0.01313 0.71825 0.0
C529 C 0.88304 0.059 0.73102 0.0
N530 N 0.82627 0.96025 0.75938 0.0
N531 N 0.88009 0.03186 0.74732 0.0
H532 H 0.09995 0.55833 0.80647 0.0
H533 H 0.18385 0.45105 0.68534 0.0
H534 H 0.19992 0.57175 0.78137 0.0
H535 H 0.08723 0.4294 0.71849 0.0
H536 H 0.18878 0.49737 0.71808 0.0
H537 H 0.09366 0.51254 0.77262 0.0
C538 C 0.12059 0.55162 0.79394 0.0
C539 C 0.15052 0.56891 0.7968 0.0
C540 C 0.16646 0.48255 0.71817 0.0
C541 C 0.14343 0.51673 0.75789 0.0
C542 C 0.16357 0.45612 0.69936 0.0
C543 C 0.1351 0.43622 0.6992 0.0
C544 C 0.14066 0.48928 0.73696 0.0
C545 C 0.10965 0.44403 0.71791 0.0
C546 C 0.11697 0.5255 0.7746 0.0
C547 C 0.17641 0.55914 0.77996 0.0
N548 N 0.11305 0.46992 0.73608 0.0
N549 N 0.17223 0.53379 0.76121 0.0
H550 H 0.68111 0.78451 0.05196 0.0
H551 H 0.80833 0.8771 0.93928 0.0
H552 H 0.71564 0.88123 0.06529 0.0
H553 H 0.76758 0.78255 0.92372 0.0
H554 H 0.77483 0.87944 0.98547 0.0
H555 H 0.71262 0.7838 0.00465 0.0
C556 C 0.69523 0.80567 0.04488 0.0
C557 C 0.69578 0.83295 0.06268 0.0
C558 C 0.77321 0.85822 0.97189 0.0
C559 C 0.73216 0.83226 0.00848 0.0
C560 C 0.79237 0.85685 0.94556 0.0
C561 C 0.79081 0.82956 0.92762 0.0
C562 C 0.75245 0.8321 0.98037 0.0
C563 C 0.76964 0.80406 0.93682 0.0
C564 C 0.71325 0.80524 0.01782 0.0
C565 C 0.7145 0.85967 0.05228 0.0
N566 N 0.75138 0.80595 0.96255 0.0
N567 N 0.73206 0.85862 0.02591 0.0
H568 H 0.1961 0.72008 0.94008 0.0
H569 H 0.28404 0.617 0.06217 0.0
H570 H 0.19173 0.61957 0.93561 0.0
H571 H 0.28863 0.7176 0.06423 0.0
H572 H 0.25041 0.61704 0.01586 0.0
H573 H 0.22972 0.71917 0.98595 0.0
C574 C 0.20213 0.69777 0.94879 0.0
C575 C 0.19107 0.66985 0.93393 0.0
C576 C 0.25885 0.63909 0.02643 0.0
C577 C 0.22981 0.66865 0.98657 0.0
C578 C 0.2781 0.63909 0.05283 0.0
C579 C 0.28916 0.66735 0.06714 0.0
C580 C 0.25059 0.66753 0.01428 0.0
C581 C 0.28067 0.69525 0.05404 0.0
C582 C 0.22142 0.69727 0.97501 0.0
C583 C 0.19971 0.64166 0.94633 0.0
N584 N 0.26187 0.69461 0.02843 0.0
N585 N 0.21861 0.64178 0.97192 0.0
H586 H 0.67644 0.21128 0.45569 0.0
H587 H 0.78841 0.11462 0.56195 0.0
H588 H 0.69483 0.11628 0.43593 0.0
H589 H 0.76065 0.20592 0.58492 0.0
H590 H 0.75497 0.11453 0.51544 0.0
H591 H 0.70769 0.20943 0.50303 0.0
C592 C 0.68698 0.18996 0.46135 0.0
C593 C 0.68306 0.16392 0.44175 0.0
C594 C 0.75618 0.13453 0.53073 0.0
C595 C 0.71914 0.16168 0.49604 0.0
C596 C 0.7753 0.13463 0.55724 0.0
C597 C 0.77739 0.16035 0.57735 0.0
C598 C 0.73915 0.16038 0.52425 0.0
C599 C 0.75982 0.18559 0.57012 0.0
C600 C 0.70484 0.18891 0.48844 0.0
C601 C 0.69723 0.1369 0.45038 0.0
N602 N 0.74155 0.18498 0.54417 0.0
N603 N 0.71478 0.13652 0.47684 0.0
H604 H 0.18456 0.29061 0.54543 0.0
H605 H 0.31473 0.38447 0.43669 0.0
H606 H 0.21979 0.38666 0.56179 0.0
H607 H 0.2743 0.29006 0.41977 0.0
H608 H 0.28013 0.38647 0.48222 0.0
H609 H 0.21698 0.2908 0.49875 0.0
C610 C 0.19905 0.31182 0.53915 0.0
C611 C 0.19952 0.33863 0.55764 0.0
C612 C 0.27883 0.36537 0.46847 0.0
C613 C 0.237 0.33897 0.50408 0.0
C614 C 0.2986 0.36419 0.44251 0.0
C615 C 0.29748 0.33702 0.42442 0.0
C616 C 0.25789 0.33918 0.47636 0.0
C617 C 0.27607 0.31149 0.43302 0.0
C618 C 0.21761 0.31191 0.51244 0.0
C619 C 0.21871 0.36546 0.54822 0.0
N620 N 0.25722 0.31319 0.45835 0.0
N621 N 0.23682 0.36491 0.52214 0.0
H622 H 0.04247 0.68068 0.93005 0.0
H623 H 0.95001 0.80831 0.84056 0.0
H624 H 0.06214 0.7094 0.83573 0.0
H625 H 0.91832 0.7685 0.92823 0.0
H626 H 0.9944 0.77551 0.84082 0.0
H627 H -0.00064 0.71534 0.93182 0.0
C628 C 0.03769 0.69417 0.9097 0.0
C629 C 0.05591 0.69204 0.88268 0.0
C630 C 0.9778 0.77401 0.86006 0.0
C631 C 0.0069 0.73193 0.88465 0.0
C632 C 0.95252 0.79287 0.86001 0.0
C633 C 0.93031 0.79109 0.88437 0.0
C634 C 0.98107 0.75325 0.88469 0.0
C635 C 0.9348 0.77057 0.90892 0.0
C636 C 0.01311 0.71397 0.91074 0.0
C637 C 0.04867 0.71015 0.85703 0.0
N638 N 0.95964 0.75239 0.90843 0.0
N639 N 0.02483 0.72935 0.85869 0.0
H640 H 0.05197 0.33085 0.6314 0.0
H641 H 0.94738 0.16558 0.64185 0.0
H642 H 0.09158 0.24372 0.65015 0.0
H643 H 0.90649 0.25318 0.62965 0.0
H644 H 0.0008 0.19353 0.64114 0.0
H645 H -0.00123 0.30253 0.6272 0.0
C646 C 0.04951 0.30577 0.63455 0.0
C647 C 0.07627 0.28966 0.64126 0.0
C648 C 0.98015 0.20663 0.6385 0.0
C649 C 0.01551 0.25712 0.63646 0.0
C650 C 0.94962 0.19066 0.63883 0.0
C651 C 0.92239 0.20706 0.63596 0.0
C652 C 0.98351 0.23926 0.63526 0.0
C653 C 0.92679 0.23957 0.63207 0.0
C654 C 0.01914 0.28962 0.63217 0.0
C655 C 0.07165 0.25716 0.64508 0.0
N656 N 0.95676 0.25461 0.63196 0.0
N657 N 0.04188 0.24199 0.64268 0.0
H658 H 0.56532 0.20963 0.33541 0.0
H659 H 0.42477 0.27907 0.43088 0.0
H660 H 0.5398 0.18092 0.42858 0.0
H661 H 0.45672 0.31201 0.34072 0.0
H662 H 0.4668 0.24331 0.43103 0.0
H663 H 0.52504 0.24682 0.33711 0.0
C664 C 0.55114 0.21102 0.35622 0.0
C665 C 0.55595 0.19203 0.3819 0.0
C666 C 0.46472 0.2585 0.41131 0.0
C667 C 0.50975 0.2349 0.38404 0.0
C668 C 0.44078 0.27901 0.41123 0.0
C669 C 0.43712 0.29853 0.3857 0.0
C670 C 0.48506 0.25742 0.38561 0.0
C671 C 0.45858 0.29739 0.3609 0.0
C672 C 0.52819 0.23241 0.35721 0.0
C673 C 0.53689 0.19503 0.40823 0.0
N674 N 0.48147 0.27707 0.36142 0.0
N675 N 0.5146 0.21607 0.40862 0.0
H676 H 0.61775 0.56856 0.71039 0.0
H677 H 0.65142 0.38968 0.72981 0.0
H678 H 0.65267 0.51308 0.63675 0.0
H679 H 0.63703 0.45027 0.80714 0.0
H680 H 0.64572 0.43308 0.69461 0.0
H681 H 0.61813 0.52378 0.74515 0.0
C682 C 0.62521 0.54689 0.70142 0.0
C683 C 0.63532 0.54462 0.6706 0.0
C684 C 0.64376 0.4369 0.71927 0.0
C685 C 0.63589 0.49332 0.71035 0.0
C686 C 0.64696 0.4121 0.73943 0.0
C687 C 0.64485 0.41635 0.77154 0.0
C688 C 0.63818 0.46622 0.7312 0.0
C689 C 0.63899 0.44596 0.78258 0.0
C690 C 0.62556 0.52139 0.72135 0.0
C691 C 0.64481 0.51595 0.66034 0.0
N692 N 0.63587 0.46979 0.76243 0.0
N693 N 0.64491 0.49146 0.68018 0.0
H694 H 0.36644 0.10697 0.72625 0.0
H695 H 0.37671 0.92294 0.71213 0.0
H696 H 0.35454 0.04386 0.80388 0.0
H697 H 0.36493 0.98263 0.63347 0.0
H698 H 0.37541 0.96802 0.74623 0.0
H699 H 0.3722 0.06258 0.69218 0.0
C700 C 0.36511 0.08378 0.73617 0.0
C701 C 0.35989 0.07912 0.76798 0.0
C702 C 0.37323 0.97127 0.7215 0.0
C703 C 0.36664 0.0282 0.72906 0.0
C704 C 0.37414 0.94557 0.70197 0.0
C705 C 0.37081 0.94898 0.66984 0.0
C706 C 0.3692 0.00069 0.70887 0.0
C707 C 0.36746 0.97889 0.65807 0.0
C708 C 0.36835 0.05845 0.71667 0.0
C709 C 0.35838 0.04853 0.77949 0.0
N710 N 0.36671 0.00358 0.67759 0.0
N711 N 0.36179 0.02423 0.76004 0.0
H712 H 0.44602 0.16904 0.83662 0.0
H713 H 0.55923 0.32078 0.88663 0.0
H714 H 0.41388 0.24012 0.89647 0.0
H715 H 0.57883 0.26052 0.8105 0.0
H716 H 0.50885 0.28835 0.89605 0.0
H717 H 0.49819 0.19882 0.83295 0.0
C718 C 0.44998 0.1908 0.84922 0.0
C719 C 0.42539 0.20221 0.86668 0.0
C720 C 0.52427 0.28227 0.87735 0.0
C721 C 0.48523 0.23658 0.86244 0.0
C722 C 0.55301 0.30071 0.87198 0.0
C723 C 0.57316 0.29345 0.84762 0.0
C724 C 0.51591 0.25624 0.85843 0.0
C725 C 0.56395 0.26717 0.82939 0.0
C726 C 0.47979 0.20787 0.84701 0.0
C727 C 0.43207 0.23053 0.8826 0.0
N728 N 0.53607 0.24955 0.83519 0.0
N729 N 0.46135 0.24684 0.87999 0.0
H730 H 0.30935 0.55915 0.19944 0.0
H731 H 0.40388 0.4394 0.29786 0.0
H732 H 0.41241 0.56029 0.19951 0.0
H733 H 0.30084 0.43753 0.29428 0.0
H734 H 0.40791 0.48414 0.26262 0.0
H735 H 0.30614 0.51453 0.23435 0.0
C736 C 0.33134 0.54992 0.20665 0.0
C737 C 0.36122 0.56353 0.1965 0.0
C738 C 0.38444 0.47395 0.26962 0.0
C739 C 0.35769 0.51241 0.23678 0.0
C740 C 0.38212 0.44848 0.28981 0.0
C741 C 0.35197 0.43466 0.29902 0.0
C742 C 0.3564 0.48569 0.25859 0.0
C743 C 0.32459 0.44737 0.2878 0.0
C744 C 0.32948 0.52444 0.22669 0.0
C745 C 0.38886 0.55053 0.2067 0.0
N746 N 0.32748 0.47209 0.26817 0.0
N747 N 0.38644 0.52574 0.22636 0.0
H748 H 0.5978 0.06073 0.30263 0.0
H749 H 0.68665 0.94215 0.19744 0.0
H750 H 0.70051 0.06229 0.29415 0.0
H751 H 0.58384 0.93772 0.20699 0.0
H752 H 0.69179 0.98706 0.23199 0.0
H753 H 0.59182 0.01603 0.26743 0.0
C754 C 0.61909 0.05161 0.2935 0.0
C755 C 0.64971 0.06531 0.30136 0.0
C756 C 0.66808 0.97635 0.22649 0.0
C757 C 0.64303 0.01432 0.26093 0.0
C758 C 0.66511 0.95072 0.20665 0.0
C759 C 0.63475 0.93609 0.19929 0.0
C760 C 0.64051 0.98753 0.23917 0.0
C761 C 0.60773 0.94826 0.21201 0.0
C762 C 0.61565 0.02614 0.27334 0.0
C763 C 0.67643 0.05253 0.28877 0.0
N764 N 0.61124 0.97324 0.23139 0.0
N765 N 0.67246 0.02783 0.26917 0.0
H766 H 0.56383 0.80061 0.12012 0.0
H767 H 0.4322 0.69835 0.22046 0.0
H768 H 0.5657 0.79314 0.2197 0.0
H769 H 0.42886 0.70342 0.12077 0.0
H770 H 0.48144 0.73302 0.22007 0.0
H771 H 0.51433 0.76554 0.11936 0.0
C772 C 0.55378 0.79173 0.14182 0.0
C773 C 0.56894 0.79982 0.17003 0.0
C774 C 0.47004 0.72656 0.19823 0.0
C775 C 0.51252 0.75962 0.16929 0.0
C776 C 0.44188 0.70667 0.19843 0.0
C777 C 0.42633 0.69798 0.1706 0.0
C778 C 0.48285 0.73798 0.16999 0.0
C779 C 0.44008 0.70951 0.14278 0.0
C780 C 0.52559 0.77165 0.14135 0.0
C781 C 0.5549 0.78756 0.1974 0.0
N782 N 0.46755 0.72901 0.14317 0.0
N783 N 0.52756 0.76809 0.19632 0.0
loop_
_geom_bond_atom_site_label_1
_geom_bond_atom_site_label_2
_geom_bond_distance
_geom_bond_site_symmetry_2
_ccdc_geom_bond_type
C0 O1 1.160 . S
C0 O7 1.185 . S
O1 C0 1.160 . S
O2 Zn3 1.899 . S
O2 C10 1.284 . S
Zn3 O2 1.899 . S
Zn3 O4 2.032 . S
Zn3 O7 2.086 . S
Zn3 O12 1.977 . S
O4 Zn3 2.032 . S
O4 C8 1.278 . S
C5 O6 1.203 . S
C5 O12 1.267 . S
O6 C5 1.203 . S
O7 C0 1.185 . S
O7 Zn3 2.086 . S
C8 O4 1.278 . S
C8 O9 1.211 . S
O9 C8 1.211 . S
C10 O2 1.284 . S
C10 O11 1.273 . S
O11 C10 1.273 . S
O12 Zn3 1.977 . S
O12 C5 1.267 . S
C13 O14 1.160 . S
C13 O20 1.185 . S
O14 C13 1.160 . S
O15 Zn16 1.899 . S
O15 C23 1.284 . S
Zn16 O15 1.899 . S
Zn16 O17 2.032 . S
Zn16 O20 2.086 . S
Zn16 O25 1.977 . S
O17 Zn16 2.032 . S
O17 C21 1.278 . S
C18 O19 1.203 . S
C18 O25 1.267 . S
O19 C18 1.203 . S
O20 C13 1.185 . S
O20 Zn16 2.086 . S
C21 O17 1.278 . S
C21 O22 1.211 . S
O22 C21 1.211 . S
C23 O15 1.284 . S
C23 O24 1.273 . S
O24 C23 1.273 . S
O25 Zn16 1.977 . S
O25 C18 1.267 . S
C26 O27 1.160 . S
C26 O33 1.185 . S
O27 C26 1.160 . S
O28 Zn29 1.899 . S
O28 C36 1.284 . S
Zn29 O28 1.899 . S
Zn29 O30 2.032 . S
Zn29 O33 2.086 . S
Zn29 O38 1.977 . S
O30 Zn29 2.032 . S
O30 C34 1.278 . S
C31 O32 1.203 . S
C31 O38 1.267 . S
O32 C31 1.203 . S
O33 C26 1.185 . S
O33 Zn29 2.086 . S
C34 O30 1.278 . S
C34 O35 1.211 . S
O35 C34 1.211 . S
C36 O28 1.284 . S
C36 O37 1.273 . S
O37 C36 1.273 . S
O38 Zn29 1.977 . S
O38 C31 1.267 . S
C39 O40 1.160 . S
C39 O46 1.185 . S
O40 C39 1.160 . S
O41 Zn42 1.899 . S
O41 C49 1.284 . S
Zn42 O41 1.899 . S
Zn42 O43 2.032 . S
Zn42 O46 2.086 . S
Zn42 O51 1.977 . S
O43 Zn42 2.032 . S
O43 C47 1.278 . S
C44 O45 1.203 . S
C44 O51 1.267 . S
O45 C44 1.203 . S
O46 C39 1.185 . S
O46 Zn42 2.086 . S
C47 O43 1.278 . S
C47 O48 1.211 . S
O48 C47 1.211 . S
C49 O41 1.284 . S
C49 O50 1.273 . S
O50 C49 1.273 . S
O51 Zn42 1.977 . S
O51 C44 1.267 . S
C52 O53 1.160 . S
C52 O59 1.185 . S
O53 C52 1.160 . S
O54 Zn55 1.899 . S
O54 C62 1.284 . S
Zn55 O54 1.899 . S
Zn55 O56 2.032 . S
Zn55 O59 2.086 . S
Zn55 O64 1.977 . S
O56 Zn55 2.032 . S
O56 C60 1.278 . S
C57 O58 1.203 . S
C57 O64 1.267 . S
O58 C57 1.203 . S
O59 C52 1.185 . S
O59 Zn55 2.086 . S
C60 O56 1.278 . S
C60 O61 1.211 . S
O61 C60 1.211 . S
C62 O54 1.284 . S
C62 O63 1.273 . S
O63 C62 1.273 . S
O64 Zn55 1.977 . S
O64 C57 1.267 . S
C65 O66 1.160 . S
C65 O72 1.185 . S
O66 C65 1.160 . S
O67 Zn68 1.899 . S
O67 C75 1.284 . S
Zn68 O67 1.899 . S
Zn68 O69 2.032 . S
Zn68 O72 2.086 . S
Zn68 O77 1.977 . S
O69 Zn68 2.032 . S
O69 C73 1.278 . S
C70 O71 1.203 . S
C70 O77 1.267 . S
O71 C70 1.203 . S
O72 C65 1.185 . S
O72 Zn68 2.086 . S
C73 O69 1.278 . S
C73 O74 1.211 . S
O74 C73 1.211 . S
C75 O67 1.284 . S
C75 O76 1.273 . S
O76 C75 1.273 . S
O77 Zn68 1.977 . S
O77 C70 1.267 . S
C78 O79 1.160 . S
C78 O85 1.185 . S
O79 C78 1.160 . S
O80 Zn81 1.899 . S
O80 C88 1.284 . S
Zn81 O80 1.899 . S
Zn81 O82 2.032 . S
Zn81 O85 2.086 . S
Zn81 O90 1.977 . S
O82 Zn81 2.032 . S
O82 C86 1.278 . S
C83 O84 1.203 . S
C83 O90 1.267 . S
O84 C83 1.203 . S
O85 C78 1.185 . S
O85 Zn81 2.086 . S
C86 O82 1.278 . S
C86 O87 1.211 . S
O87 C86 1.211 . S
C88 O80 1.284 . S
C88 O89 1.273 . S
O89 C88 1.273 . S
O90 Zn81 1.977 . S
O90 C83 1.267 . S
C91 O92 1.160 . S
C91 O98 1.185 . S
O92 C91 1.160 . S
O93 Zn94 1.899 . S
O93 C101 1.284 . S
Zn94 O93 1.899 . S
Zn94 O95 2.032 . S
Zn94 O98 2.086 . S
Zn94 O103 1.977 . S
O95 Zn94 2.032 . S
O95 C99 1.278 . S
C96 O97 1.203 . S
C96 O103 1.267 . S
O97 C96 1.203 . S
O98 C91 1.185 . S
O98 Zn94 2.086 . S
C99 O95 1.278 . S
C99 O100 1.211 . S
O100 C99 1.211 . S
C101 O93 1.284 . S
C101 O102 1.273 . S
O102 C101 1.273 . S
O103 Zn94 1.977 . S
O103 C96 1.267 . S
C104 O105 1.160 . S
C104 O111 1.185 . S
O105 C104 1.160 . S
O106 Zn107 1.899 . S
O106 C114 1.284 . S
Zn107 O106 1.899 . S
Zn107 O108 2.032 . S
Zn107 O111 2.086 . S
Zn107 O116 1.977 . S
O108 Zn107 2.032 . S
O108 C112 1.278 . S
C109 O110 1.203 . S
C109 O116 1.267 . S
O110 C109 1.203 . S
O111 C104 1.185 . S
O111 Zn107 2.086 . S
C112 O108 1.278 . S
C112 O113 1.211 . S
O113 C112 1.211 . S
C114 O106 1.284 . S
C114 O115 1.273 . S
O115 C114 1.273 . S
O116 Zn107 1.977 . S
O116 C109 1.267 . S
C117 O118 1.160 . S
C117 O124 1.185 . S
O118 C117 1.160 . S
O119 Zn120 1.899 . S
O119 C127 1.284 . S
Zn120 O119 1.899 . S
Zn120 O121 2.032 . S
Zn120 O124 2.086 . S
Zn120 O129 1.977 . S
O121 Zn120 2.032 . S
O121 C125 1.278 . S
C122 O123 1.203 . S
C122 O129 1.267 . S
O123 C122 1.203 . S
O124 C117 1.185 . S
O124 Zn120 2.086 . S
C125 O121 1.278 . S
C125 O126 1.211 . S
O126 C125 1.211 . S
C127 O119 1.284 . S
C127 O128 1.273 . S
O128 C127 1.273 . S
O129 Zn120 1.977 . S
O129 C122 1.267 . S
C130 O131 1.160 . S
C130 O137 1.185 . S
O131 C130 1.160 . S
O132 Zn133 1.899 . S
O132 C140 1.284 . S
Zn133 O132 1.899 . S
Zn133 O134 2.032 . S
Zn133 O137 2.086 . S
Zn133 O142 1.977 . S
O134 Zn133 2.032 . S
O134 C138 1.278 . S
C135 O136 1.203 . S
C135 O142 1.267 . S
O136 C135 1.203 . S
O137 C130 1.185 . S
O137 Zn133 2.086 . S
C138 O134 1.278 . S
C138 O139 1.211 . S
O139 C138 1.211 . S
C140 O132 1.284 . S
C140 O141 1.273 . S
O141 C140 1.273 . S
O142 Zn133 1.977 . S
O142 C135 1.267 . S
C143 O144 1.160 . S
C143 O150 1.185 . S
O144 C143 1.160 . S
O145 Zn146 1.899 . S
O145 C153 1.284 . S
Zn146 O145 1.899 . S
Zn146 O147 2.032 . S
Zn146 O150 2.086 . S
Zn146 O155 1.977 . S
O147 Zn146 2.032 . S
O147 C151 1.278 . S
C148 O149 1.203 . S
C148 O155 1.267 . S
O149 C148 1.203 . S
O150 C143 1.185 . S
O150 Zn146 2.086 . S
C151 O147 1.278 . S
C151 O152 1.211 . S
O152 C151 1.211 . S
C153 O145 1.284 . S
C153 O154 1.273 . S
O154 C153 1.273 . S
O155 Zn146 1.977 . S
O155 C148 1.267 . S
C156 O157 1.160 . S
C156 O163 1.185 . S
O157 C156 1.160 . S
O158 Zn159 1.899 . S
O158 C166 1.284 . S
Zn159 O158 1.899 . S
Zn159 O160 2.032 . S
Zn159 O163 2.086 . S
Zn159 O168 1.977 . S
O160 Zn159 2.032 . S
O160 C164 1.278 . S
C161 O162 1.203 . S
C161 O168 1.267 . S
O162 C161 1.203 . S
O163 C156 1.185 . S
O163 Zn159 2.086 . S
C164 O160 1.278 . S
C164 O165 1.211 . S
O165 C164 1.211 . S
C166 O158 1.284 . S
C166 O167 1.273 . S
O167 C166 1.273 . S
O168 Zn159 1.977 . S
O168 C161 1.267 . S
C169 O170 1.160 . S
C169 O176 1.185 . S
O170 C169 1.160 . S
O171 Zn172 1.899 . S
O171 C179 1.284 . S
Zn172 O171 1.899 . S
Zn172 O173 2.032 . S
Zn172 O176 2.086 . S
Zn172 O181 1.977 . S
O173 Zn172 2.032 . S
O173 C177 1.278 . S
C174 O175 1.203 . S
C174 O181 1.267 . S
O175 C174 1.203 . S
O176 C169 1.185 . S
O176 Zn172 2.086 . S
C177 O173 1.278 . S
C177 O178 1.211 . S
O178 C177 1.211 . S
C179 O171 1.284 . S
C179 O180 1.273 . S
O180 C179 1.273 . S
O181 Zn172 1.977 . S
O181 C174 1.267 . S
C182 O183 1.160 . S
C182 O189 1.185 . S
O183 C182 1.160 . S
O184 Zn185 1.899 . S
O184 C192 1.284 . S
Zn185 O184 1.899 . S
Zn185 O186 2.032 . S
Zn185 O189 2.086 . S
Zn185 O194 1.977 . S
O186 Zn185 2.032 . S
O186 C190 1.278 . S
C187 O188 1.203 . S
C187 O194 1.267 . S
O188 C187 1.203 . S
O189 C182 1.185 . S
O189 Zn185 2.086 . S
C190 O186 1.278 . S
C190 O191 1.211 . S
O191 C190 1.211 . S
C192 O184 1.284 . S
C192 O193 1.273 . S
O193 C192 1.273 . S
O194 Zn185 1.977 . S
O194 C187 1.267 . S
C195 O196 1.160 . S
C195 O202 1.185 . S
O196 C195 1.160 . S
O197 Zn198 1.899 . S
O197 C205 1.284 . S
Zn198 O197 1.899 . S
Zn198 O199 2.032 . S
Zn198 O202 2.086 . S
Zn198 O207 1.977 . S
O199 Zn198 2.032 . S
O199 C203 1.278 . S
C200 O201 1.203 . S
C200 O207 1.267 . S
O201 C200 1.203 . S
O202 C195 1.185 . S
O202 Zn198 2.086 . S
C203 O199 1.278 . S
C203 O204 1.211 . S
O204 C203 1.211 . S
C205 O197 1.284 . S
C205 O206 1.273 . S
O206 C205 1.273 . S
O207 Zn198 1.977 . S
O207 C200 1.267 . S
H208 C214 0.930 . S
H209 C218 0.930 . S
H210 C223 0.929 . S
H211 C221 0.929 . S
H212 C216 0.929 . S
H213 C222 0.929 . S
C214 H208 0.930 . S
C214 C215 1.367 . S
C214 C222 1.378 . S
C215 C214 1.367 . S
C215 C223 1.433 . S
C216 H212 0.929 . S
C216 C218 1.378 . S
C216 C220 1.350 . S
C217 C220 1.463 . S
C217 C222 1.350 . S
C217 N225 1.427 . S
C218 H209 0.930 . S
C218 C216 1.378 . S
C218 C219 1.367 . S
C219 C218 1.367 . S
C219 C221 1.433 . S
C220 C216 1.350 . S
C220 C217 1.463 . S
C220 N224 1.427 . S
C221 H211 0.929 . S
C221 C219 1.433 . S
C221 N224 1.384 . S
C222 H213 0.929 . S
C222 C214 1.378 . S
C222 C217 1.350 . S
C223 H210 0.929 . S
C223 C215 1.433 . S
C223 N225 1.384 . S
N224 C220 1.427 . S
N224 C221 1.384 . S
N225 C217 1.427 . S
N225 C223 1.384 . S
H226 C232 0.930 . S
H227 C236 0.930 . S
H228 C241 0.929 . S
H229 C239 0.929 . S
H230 C234 0.929 . S
H231 C240 0.929 . S
C232 H226 0.930 . S
C232 C233 1.367 . S
C232 C240 1.378 . S
C233 C232 1.367 . S
C233 C241 1.433 . S
C234 H230 0.929 . S
C234 C236 1.378 . S
C234 C238 1.350 . S
C235 C238 1.463 . S
C235 C240 1.350 . S
C235 N243 1.427 . S
C236 H227 0.930 . S
C236 C234 1.378 . S
C236 C237 1.367 . S
C237 C236 1.367 . S
C237 C239 1.433 . S
C238 C234 1.350 . S
C238 C235 1.463 . S
C238 N242 1.427 . S
C239 H229 0.929 . S
C239 C237 1.433 . S
C239 N242 1.384 . S
C240 H231 0.929 . S
C240 C232 1.378 . S
C240 C235 1.350 . S
C241 H228 0.929 . S
C241 C233 1.433 . S
C241 N243 1.384 . S
N242 C238 1.427 . S
N242 C239 1.384 . S
N243 C235 1.427 . S
N243 C241 1.384 . S
H244 C250 0.930 . S
H245 C254 0.930 . S
H246 C259 0.929 . S
H247 C257 0.929 . S
H248 C252 0.929 . S
H249 C258 0.929 . S
C250 H244 0.930 . S
C250 C251 1.367 . S
C250 C258 1.378 . S
C251 C250 1.367 . S
C251 C259 1.433 . S
C252 H248 0.929 . S
C252 C254 1.378 . S
C252 C256 1.350 . S
C253 C256 1.463 . S
C253 C258 1.350 . S
C253 N261 1.427 . S
C254 H245 0.930 . S
C254 C252 1.378 . S
C254 C255 1.367 . S
C255 C254 1.367 . S
C255 C257 1.433 . S
C256 C252 1.350 . S
C256 C253 1.463 . S
C256 N260 1.427 . S
C257 H247 0.929 . S
C257 C255 1.433 . S
C257 N260 1.384 . S
C258 H249 0.929 . S
C258 C250 1.378 . S
C258 C253 1.350 . S
C259 H246 0.929 . S
C259 C251 1.433 . S
C259 N261 1.384 . S
N260 C256 1.427 . S
N260 C257 1.384 . S
N261 C253 1.427 . S
N261 C259 1.384 . S
H262 C268 0.930 . S
H263 C272 0.930 . S
H264 C277 0.929 . S
H265 C275 0.929 . S
H266 C270 0.929 . S
H267 C276 0.929 . S
C268 H262 0.930 . S
C268 C269 1.367 . S
C268 C276 1.378 . S
C269 C268 1.367 . S
C269 C277 1.433 . S
C270 H266 0.929 . S
C270 C272 1.378 . S
C270 C274 1.350 . S
C271 C274 1.463 . S
C271 C276 1.350 . S
C271 N279 1.427 . S
C272 H263 0.930 . S
C272 C270 1.378 . S
C272 C273 1.367 . S
C273 C272 1.367 . S
C273 C275 1.433 . S
C274 C270 1.350 . S
C274 C271 1.463 . S
C274 N278 1.427 . S
C275 H265 0.929 . S
C275 C273 1.433 . S
C275 N278 1.384 . S
C276 H267 0.929 . S
C276 C268 1.378 . S
C276 C271 1.350 . S
C277 H264 0.929 . S
C277 C269 1.433 . S
C277 N279 1.384 . S
N278 C274 1.427 . S
N278 C275 1.384 . S
N279 C271 1.427 . S
N279 C277 1.384 . S
H280 C286 0.930 . S
H281 C290 0.930 . S
H282 C295 0.929 . S
H283 C293 0.929 . S
H284 C288 0.929 . S
H285 C294 0.929 . S
C286 H280 0.930 . S
C286 C287 1.367 . S
C286 C294 1.378 . S
C287 C286 1.367 . S
C287 C295 1.433 . S
C288 H284 0.929 . S
C288 C290 1.378 . S
C288 C292 1.350 . S
C289 C292 1.463 . S
C289 C294 1.350 . S
C289 N297 1.427 . S
C290 H281 0.930 . S
C290 C288 1.378 . S
C290 C291 1.367 . S
C291 C290 1.367 . S
C291 C293 1.433 . S
C292 C288 1.350 . S
C292 C289 1.463 . S
C292 N296 1.427 . S
C293 H283 0.929 . S
C293 C291 1.433 . S
C293 N296 1.384 . S
C294 H285 0.929 . S
C294 C286 1.378 . S
C294 C289 1.350 . S
C295 H282 0.929 . S
C295 C287 1.433 . S
C295 N297 1.384 . S
N296 C292 1.427 . S
N296 C293 1.384 . S
N297 C289 1.427 . S
N297 C295 1.384 . S
H298 C304 0.930 . S
H299 C308 0.930 . S
H300 C313 0.929 . S
H301 C311 0.929 . S
H302 C306 0.929 . S
H303 C312 0.929 . S
C304 H298 0.930 . S
C304 C305 1.367 . S
C304 C312 1.378 . S
C305 C304 1.367 . S
C305 C313 1.433 . S
C306 H302 0.929 . S
C306 C308 1.378 . S
C306 C310 1.350 . S
C307 C310 1.463 . S
C307 C312 1.350 . S
C307 N315 1.427 . S
C308 H299 0.930 . S
C308 C306 1.378 . S
C308 C309 1.367 . S
C309 C308 1.367 . S
C309 C311 1.433 . S
C310 C306 1.350 . S
C310 C307 1.463 . S
C310 N314 1.427 . S
C311 H301 0.929 . S
C311 C309 1.433 . S
C311 N314 1.384 . S
C312 H303 0.929 . S
C312 C304 1.378 . S
C312 C307 1.350 . S
C313 H300 0.929 . S
C313 C305 1.433 . S
C313 N315 1.384 . S
N314 C310 1.427 . S
N314 C311 1.384 . S
N315 C307 1.427 . S
N315 C313 1.384 . S
H316 C322 0.930 . S
H317 C326 0.930 . S
H318 C331 0.929 . S
H319 C329 0.929 . S
H320 C324 0.929 . S
H321 C330 0.929 . S
C322 H316 0.930 . S
C322 C323 1.367 . S
C322 C330 1.378 . S
C323 C322 1.367 . S
C323 C331 1.433 . S
C324 H320 0.929 . S
C324 C326 1.378 . S
C324 C328 1.350 . S
C325 C328 1.463 . S
C325 C330 1.350 . S
C325 N333 1.427 . S
C326 H317 0.930 . S
C326 C324 1.378 . S
C326 C327 1.367 . S
C327 C326 1.367 . S
C327 C329 1.433 . S
C328 C324 1.350 . S
C328 C325 1.463 . S
C328 N332 1.427 . S
C329 H319 0.929 . S
C329 C327 1.433 . S
C329 N332 1.384 . S
C330 H321 0.929 . S
C330 C322 1.378 . S
C330 C325 1.350 . S
C331 H318 0.929 . S
C331 C323 1.433 . S
C331 N333 1.384 . S
N332 C328 1.427 . S
N332 C329 1.384 . S
N333 C325 1.427 . S
N333 C331 1.384 . S
H334 C340 0.930 . S
H335 C344 0.930 . S
H336 C349 0.929 . S
H337 C347 0.929 . S
H338 C342 0.929 . S
H339 C348 0.929 . S
C340 H334 0.930 . S
C340 C341 1.367 . S
C340 C348 1.378 . S
C341 C340 1.367 . S
C341 C349 1.433 . S
C342 H338 0.929 . S
C342 C344 1.378 . S
C342 C346 1.350 . S
C343 C346 1.463 . S
C343 C348 1.350 . S
C343 N351 1.427 . S
C344 H335 0.930 . S
C344 C342 1.378 . S
C344 C345 1.367 . S
C345 C344 1.367 . S
C345 C347 1.433 . S
C346 C342 1.350 . S
C346 C343 1.463 . S
C346 N350 1.427 . S
C347 H337 0.929 . S
C347 C345 1.433 . S
C347 N350 1.384 . S
C348 H339 0.929 . S
C348 C340 1.378 . S
C348 C343 1.350 . S
C349 H336 0.929 . S
C349 C341 1.433 . S
C349 N351 1.384 . S
N350 C346 1.427 . S
N350 C347 1.384 . S
N351 C343 1.427 . S
N351 C349 1.384 . S
H352 C358 0.930 . S
H353 C362 0.930 . S
H354 C367 0.929 . S
H355 C365 0.929 . S
H356 C360 0.929 1_565 S
H357 C366 0.929 1_545 S
C358 H352 0.930 . S
C358 C359 1.367 . S
C358 C366 1.378 . S
C359 C358 1.367 . S
C359 C367 1.433 . S
C360 H356 0.929 1_545 S
C360 C362 1.378 . S
C360 C364 1.350 . S
C361 C364 1.463 1_565 S
C361 C366 1.350 . S
C361 N369 1.427 . S
C362 H353 0.930 . S
C362 C360 1.378 . S
C362 C363 1.367 . S
C363 C362 1.367 . S
C363 C365 1.433 . S
C364 C360 1.350 . S
C364 C361 1.463 1_545 S
C364 N368 1.427 . S
C365 H355 0.929 . S
C365 C363 1.433 . S
C365 N368 1.384 . S
C366 H357 0.929 1_565 S
C366 C358 1.378 . S
C366 C361 1.350 . S
C367 H354 0.929 . S
C367 C359 1.433 . S
C367 N369 1.384 . S
N368 C364 1.427 . S
N368 C365 1.384 . S
N369 C361 1.427 . S
N369 C367 1.384 . S
H370 C376 0.930 . S
H371 C380 0.930 . S
H372 C385 0.929 . S
H373 C383 0.929 . S
H374 C378 0.929 . S
H375 C384 0.929 . S
C376 H370 0.930 . S
C376 C377 1.367 . S
C376 C384 1.378 . S
C377 C376 1.367 . S
C377 C385 1.433 . S
C378 H374 0.929 . S
C378 C380 1.378 . S
C378 C382 1.350 . S
C379 C382 1.463 . S
C379 C384 1.350 . S
C379 N387 1.427 . S
C380 H371 0.930 . S
C380 C378 1.378 . S
C380 C381 1.367 . S
C381 C380 1.367 . S
C381 C383 1.433 . S
C382 C378 1.350 . S
C382 C379 1.463 . S
C382 N386 1.427 . S
C383 H373 0.929 . S
C383 C381 1.433 . S
C383 N386 1.384 . S
C384 H375 0.929 . S
C384 C376 1.378 . S
C384 C379 1.350 . S
C385 H372 0.929 . S
C385 C377 1.433 . S
C385 N387 1.384 . S
N386 C382 1.427 . S
N386 C383 1.384 . S
N387 C379 1.427 . S
N387 C385 1.384 . S
H388 C394 0.930 . S
H389 C398 0.930 . S
H390 C403 0.929 . S
H391 C401 0.929 . S
H392 C396 0.929 1_556 S
H393 C402 0.929 1_554 S
C394 H388 0.930 . S
C394 C395 1.367 . S
C394 C402 1.378 . S
C395 C394 1.367 . S
C395 C403 1.433 . S
C396 H392 0.929 1_554 S
C396 C398 1.378 . S
C396 C400 1.350 . S
C397 C400 1.463 1_556 S
C397 C402 1.350 . S
C397 N405 1.427 . S
C398 H389 0.930 . S
C398 C396 1.378 . S
C398 C399 1.367 . S
C399 C398 1.367 . S
C399 C401 1.433 . S
C400 C396 1.350 . S
C400 C397 1.463 1_554 S
C400 N404 1.427 . S
C401 H391 0.929 . S
C401 C399 1.433 . S
C401 N404 1.384 . S
C402 H393 0.929 1_556 S
C402 C394 1.378 . S
C402 C397 1.350 . S
C403 H390 0.929 . S
C403 C395 1.433 . S
C403 N405 1.384 . S
N404 C400 1.427 . S
N404 C401 1.384 . S
N405 C397 1.427 . S
N405 C403 1.384 . S
H406 C412 0.930 . S
H407 C416 0.930 . S
H408 C421 0.929 . S
H409 C419 0.929 . S
H410 C414 0.929 . S
H411 C420 0.929 . S
C412 H406 0.930 . S
C412 C413 1.367 . S
C412 C420 1.378 . S
C413 C412 1.367 . S
C413 C421 1.433 . S
C414 H410 0.929 . S
C414 C416 1.378 . S
C414 C418 1.350 . S
C415 C418 1.463 1_554 S
C415 C420 1.350 . S
C415 N423 1.427 . S
C416 H407 0.930 . S
C416 C414 1.378 . S
C416 C417 1.367 . S
C417 C416 1.367 . S
C417 C419 1.433 . S
C418 C414 1.350 . S
C418 C415 1.463 1_556 S
C418 N422 1.427 . S
C419 H409 0.929 . S
C419 C417 1.433 . S
C419 N422 1.384 . S
C420 H411 0.929 . S
C420 C412 1.378 . S
C420 C415 1.350 . S
C421 H408 0.929 . S
C421 C413 1.433 . S
C421 N423 1.384 . S
N422 C418 1.427 . S
N422 C419 1.384 . S
N423 C415 1.427 . S
N423 C421 1.384 . S
H424 C430 0.930 . S
H425 C434 0.930 . S
H426 C439 0.929 . S
H427 C437 0.929 . S
H428 C432 0.929 . S
H429 C438 0.929 . S
C430 H424 0.930 . S
C430 C431 1.367 . S
C430 C438 1.378 . S
C431 C430 1.367 . S
C431 C439 1.433 . S
C432 H428 0.929 . S
C432 C434 1.378 . S
C432 C436 1.350 . S
C433 C436 1.463 . S
C433 C438 1.350 . S
C433 N441 1.427 . S
C434 H425 0.930 . S
C434 C432 1.378 . S
C434 C435 1.367 . S
C435 C434 1.367 . S
C435 C437 1.433 . S
C436 C432 1.350 . S
C436 C433 1.463 . S
C436 N440 1.427 . S
C437 H427 0.929 . S
C437 C435 1.433 . S
C437 N440 1.384 . S
C438 H429 0.929 . S
C438 C430 1.378 . S
C438 C433 1.350 . S
C439 H426 0.929 . S
C439 C431 1.433 . S
C439 N441 1.384 . S
N440 C436 1.427 . S
N440 C437 1.384 . S
N441 C433 1.427 . S
N441 C439 1.384 . S
H442 C448 0.930 . S
H443 C452 0.930 . S
H444 C457 0.929 . S
H445 C455 0.929 . S
H446 C450 0.929 . S
H447 C456 0.929 . S
C448 H442 0.930 . S
C448 C449 1.367 . S
C448 C456 1.378 . S
C449 C448 1.367 . S
C449 C457 1.433 . S
C450 H446 0.929 . S
C450 C452 1.378 . S
C450 C454 1.350 . S
C451 C454 1.463 . S
C451 C456 1.350 . S
C451 N459 1.427 . S
C452 H443 0.930 . S
C452 C450 1.378 . S
C452 C453 1.367 . S
C453 C452 1.367 . S
C453 C455 1.433 . S
C454 C450 1.350 . S
C454 C451 1.463 . S
C454 N458 1.427 . S
C455 H445 0.929 . S
C455 C453 1.433 . S
C455 N458 1.384 . S
C456 H447 0.929 . S
C456 C448 1.378 . S
C456 C451 1.350 . S
C457 H444 0.929 . S
C457 C449 1.433 . S
C457 N459 1.384 . S
N458 C454 1.427 . S
N458 C455 1.384 . S
N459 C451 1.427 . S
N459 C457 1.384 . S
H460 C466 0.930 . S
H461 C470 0.930 . S
H462 C475 0.929 . S
H463 C473 0.929 . S
H464 C468 0.929 . S
H465 C474 0.929 . S
C466 H460 0.930 . S
C466 C467 1.367 . S
C466 C474 1.378 . S
C467 C466 1.367 . S
C467 C475 1.433 . S
C468 H464 0.929 . S
C468 C470 1.378 . S
C468 C472 1.350 . S
C469 C472 1.463 1_655 S
C469 C474 1.350 . S
C469 N477 1.427 . S
C470 H461 0.930 . S
C470 C468 1.378 . S
C470 C471 1.367 . S
C471 C470 1.367 . S
C471 C473 1.433 . S
C472 C468 1.350 . S
C472 C469 1.463 1_455 S
C472 N476 1.427 . S
C473 H463 0.929 . S
C473 C471 1.433 . S
C473 N476 1.384 . S
C474 H465 0.929 . S
C474 C466 1.378 . S
C474 C469 1.350 . S
C475 H462 0.929 . S
C475 C467 1.433 . S
C475 N477 1.384 . S
N476 C472 1.427 . S
N476 C473 1.384 . S
N477 C469 1.427 . S
N477 C475 1.384 . S
H478 C484 0.930 . S
H479 C488 0.930 . S
H480 C493 0.929 . S
H481 C491 0.929 . S
H482 C486 0.929 1_655 S
H483 C492 0.929 1_455 S
C484 H478 0.930 . S
C484 C485 1.367 . S
C484 C492 1.378 . S
C485 C484 1.367 . S
C485 C493 1.433 . S
C486 H482 0.929 1_455 S
C486 C488 1.378 . S
C486 C490 1.350 . S
C487 C490 1.463 1_655 S
C487 C492 1.350 . S
C487 N495 1.427 . S
C488 H479 0.930 . S
C488 C486 1.378 . S
C488 C489 1.367 . S
C489 C488 1.367 . S
C489 C491 1.433 . S
C490 C486 1.350 . S
C490 C487 1.463 1_455 S
C490 N494 1.427 . S
C491 H481 0.929 . S
C491 C489 1.433 . S
C491 N494 1.384 . S
C492 H483 0.929 1_655 S
C492 C484 1.378 . S
C492 C487 1.350 . S
C493 H480 0.929 . S
C493 C485 1.433 . S
C493 N495 1.384 . S
N494 C490 1.427 . S
N494 C491 1.384 . S
N495 C487 1.427 . S
N495 C493 1.384 . S
H496 C502 0.930 . S
H497 C506 0.930 . S
H498 C511 0.929 . S
H499 C509 0.929 . S
H500 C504 0.929 . S
H501 C510 0.929 . S
C502 H496 0.930 . S
C502 C503 1.367 . S
C502 C510 1.378 . S
C503 C502 1.367 . S
C503 C511 1.433 . S
C504 H500 0.929 . S
C504 C506 1.378 . S
C504 C508 1.350 . S
C505 C508 1.463 . S
C505 C510 1.350 . S
C505 N513 1.427 . S
C506 H497 0.930 . S
C506 C504 1.378 . S
C506 C507 1.367 . S
C507 C506 1.367 . S
C507 C509 1.433 . S
C508 C504 1.350 . S
C508 C505 1.463 . S
C508 N512 1.427 . S
C509 H499 0.929 . S
C509 C507 1.433 . S
C509 N512 1.384 . S
C510 H501 0.929 . S
C510 C502 1.378 . S
C510 C505 1.350 . S
C511 H498 0.929 . S
C511 C503 1.433 . S
C511 N513 1.384 . S
N512 C508 1.427 . S
N512 C509 1.384 . S
N513 C505 1.427 . S
N513 C511 1.384 . S
H514 C520 0.930 . S
H515 C524 0.930 . S
H516 C529 0.929 . S
H517 C527 0.929 . S
H518 C522 0.929 . S
H519 C528 0.929 . S
C520 H514 0.930 . S
C520 C521 1.367 . S
C520 C528 1.378 . S
C521 C520 1.367 . S
C521 C529 1.433 . S
C522 H518 0.929 . S
C522 C524 1.378 . S
C522 C526 1.350 . S
C523 C526 1.463 1_545 S
C523 C528 1.350 . S
C523 N531 1.427 . S
C524 H515 0.930 . S
C524 C522 1.378 . S
C524 C525 1.367 . S
C525 C524 1.367 . S
C525 C527 1.433 . S
C526 C522 1.350 . S
C526 C523 1.463 1_565 S
C526 N530 1.427 . S
C527 H517 0.929 . S
C527 C525 1.433 . S
C527 N530 1.384 . S
C528 H519 0.929 . S
C528 C520 1.378 . S
C528 C523 1.350 . S
C529 H516 0.929 . S
C529 C521 1.433 . S
C529 N531 1.384 . S
N530 C526 1.427 . S
N530 C527 1.384 . S
N531 C523 1.427 . S
N531 C529 1.384 . S
H532 C538 0.930 . S
H533 C542 0.930 . S
H534 C547 0.929 . S
H535 C545 0.929 . S
H536 C540 0.929 . S
H537 C546 0.929 . S
C538 H532 0.930 . S
C538 C539 1.367 . S
C538 C546 1.378 . S
C539 C538 1.367 . S
C539 C547 1.433 . S
C540 H536 0.929 . S
C540 C542 1.378 . S
C540 C544 1.350 . S
C541 C544 1.463 . S
C541 C546 1.350 . S
C541 N549 1.427 . S
C542 H533 0.930 . S
C542 C540 1.378 . S
C542 C543 1.367 . S
C543 C542 1.367 . S
C543 C545 1.433 . S
C544 C540 1.350 . S
C544 C541 1.463 . S
C544 N548 1.427 . S
C545 H535 0.929 . S
C545 C543 1.433 . S
C545 N548 1.384 . S
C546 H537 0.929 . S
C546 C538 1.378 . S
C546 C541 1.350 . S
C547 H534 0.929 . S
C547 C539 1.433 . S
C547 N549 1.384 . S
N548 C544 1.427 . S
N548 C545 1.384 . S
N549 C541 1.427 . S
N549 C547 1.384 . S
H550 C556 0.930 . S
H551 C560 0.930 . S
H552 C565 0.929 . S
H553 C563 0.929 . S
H554 C558 0.929 1_554 S
H555 C564 0.929 1_556 S
C556 H550 0.930 . S
C556 C557 1.367 . S
C556 C564 1.378 . S
C557 C556 1.367 . S
C557 C565 1.433 . S
C558 H554 0.929 1_556 S
C558 C560 1.378 . S
C558 C562 1.350 . S
C559 C562 1.463 1_554 S
C559 C564 1.350 . S
C559 N567 1.427 . S
C560 H551 0.930 . S
C560 C558 1.378 . S
C560 C561 1.367 . S
C561 C560 1.367 . S
C561 C563 1.433 . S
C562 C558 1.350 . S
C562 C559 1.463 1_556 S
C562 N566 1.427 . S
C563 H553 0.929 . S
C563 C561 1.433 . S
C563 N566 1.384 . S
C564 H555 0.929 1_554 S
C564 C556 1.378 . S
C564 C559 1.350 . S
C565 H552 0.929 . S
C565 C557 1.433 . S
C565 N567 1.384 . S
N566 C562 1.427 . S
N566 C563 1.384 . S
N567 C559 1.427 . S
N567 C565 1.384 . S
H568 C574 0.930 . S
H569 C578 0.930 . S
H570 C583 0.929 . S
H571 C581 0.929 . S
H572 C576 0.929 1_556 S
H573 C582 0.929 1_554 S
C574 H568 0.930 . S
C574 C575 1.367 . S
C574 C582 1.378 . S
C575 C574 1.367 . S
C575 C583 1.433 . S
C576 H572 0.929 1_554 S
C576 C578 1.378 . S
C576 C580 1.350 . S
C577 C580 1.463 1_556 S
C577 C582 1.350 . S
C577 N585 1.427 . S
C578 H569 0.930 . S
C578 C576 1.378 . S
C578 C579 1.367 . S
C579 C578 1.367 . S
C579 C581 1.433 . S
C580 C576 1.350 . S
C580 C577 1.463 1_554 S
C580 N584 1.427 . S
C581 H571 0.929 . S
C581 C579 1.433 . S
C581 N584 1.384 . S
C582 H573 0.929 1_556 S
C582 C574 1.378 . S
C582 C577 1.350 . S
C583 H570 0.929 . S
C583 C575 1.433 . S
C583 N585 1.384 . S
N584 C580 1.427 . S
N584 C581 1.384 . S
N585 C577 1.427 . S
N585 C583 1.384 . S
H586 C592 0.930 . S
H587 C596 0.930 . S
H588 C601 0.929 . S
H589 C599 0.929 . S
H590 C594 0.929 . S
H591 C600 0.929 . S
C592 H586 0.930 . S
C592 C593 1.367 . S
C592 C600 1.378 . S
C593 C592 1.367 . S
C593 C601 1.433 . S
C594 H590 0.929 . S
C594 C596 1.378 . S
C594 C598 1.350 . S
C595 C598 1.463 . S
C595 C600 1.350 . S
C595 N603 1.427 . S
C596 H587 0.930 . S
C596 C594 1.378 . S
C596 C597 1.367 . S
C597 C596 1.367 . S
C597 C599 1.433 . S
C598 C594 1.350 . S
C598 C595 1.463 . S
C598 N602 1.427 . S
C599 H589 0.929 . S
C599 C597 1.433 . S
C599 N602 1.384 . S
C600 H591 0.929 . S
C600 C592 1.378 . S
C600 C595 1.350 . S
C601 H588 0.929 . S
C601 C593 1.433 . S
C601 N603 1.384 . S
N602 C598 1.427 . S
N602 C599 1.384 . S
N603 C595 1.427 . S
N603 C601 1.384 . S
H604 C610 0.930 . S
H605 C614 0.930 . S
H606 C619 0.929 . S
H607 C617 0.929 . S
H608 C612 0.929 . S
H609 C618 0.929 . S
C610 H604 0.930 . S
C610 C611 1.367 . S
C610 C618 1.378 . S
C611 C610 1.367 . S
C611 C619 1.433 . S
C612 H608 0.929 . S
C612 C614 1.378 . S
C612 C616 1.350 . S
C613 C616 1.463 . S
C613 C618 1.350 . S
C613 N621 1.427 . S
C614 H605 0.930 . S
C614 C612 1.378 . S
C614 C615 1.367 . S
C615 C614 1.367 . S
C615 C617 1.433 . S
C616 C612 1.350 . S
C616 C613 1.463 . S
C616 N620 1.427 . S
C617 H607 0.929 . S
C617 C615 1.433 . S
C617 N620 1.384 . S
C618 H609 0.929 . S
C618 C610 1.378 . S
C618 C613 1.350 . S
C619 H606 0.929 . S
C619 C611 1.433 . S
C619 N621 1.384 . S
N620 C616 1.427 . S
N620 C617 1.384 . S
N621 C613 1.427 . S
N621 C619 1.384 . S
H622 C628 0.930 . S
H623 C632 0.930 . S
H624 C637 0.929 . S
H625 C635 0.929 . S
H626 C630 0.929 1_455 S
H627 C636 0.929 1_655 S
C628 H622 0.930 . S
C628 C629 1.367 . S
C628 C636 1.378 . S
C629 C628 1.367 . S
C629 C637 1.433 . S
C630 H626 0.929 1_655 S
C630 C632 1.378 . S
C630 C634 1.350 . S
C631 C634 1.463 1_455 S
C631 C636 1.350 . S
C631 N639 1.427 . S
C632 H623 0.930 . S
C632 C630 1.378 . S
C632 C633 1.367 . S
C633 C632 1.367 . S
C633 C635 1.433 . S
C634 C630 1.350 . S
C634 C631 1.463 1_655 S
C634 N638 1.427 . S
C635 H625 0.929 . S
C635 C633 1.433 . S
C635 N638 1.384 . S
C636 H627 0.929 1_455 S
C636 C628 1.378 . S
C636 C631 1.350 . S
C637 H624 0.929 . S
C637 C629 1.433 . S
C637 N639 1.384 . S
N638 C634 1.427 . S
N638 C635 1.384 . S
N639 C631 1.427 . S
N639 C637 1.384 . S
H640 C646 0.930 . S
H641 C650 0.930 . S
H642 C655 0.929 . S
H643 C653 0.929 . S
H644 C648 0.929 1_455 S
H645 C654 0.929 1_655 S
C646 H640 0.930 . S
C646 C647 1.367 . S
C646 C654 1.378 . S
C647 C646 1.367 . S
C647 C655 1.433 . S
C648 H644 0.929 1_655 S
C648 C650 1.378 . S
C648 C652 1.350 . S
C649 C652 1.463 1_455 S
C649 C654 1.350 . S
C649 N657 1.427 . S
C650 H641 0.930 . S
C650 C648 1.378 . S
C650 C651 1.367 . S
C651 C650 1.367 . S
C651 C653 1.433 . S
C652 C648 1.350 . S
C652 C649 1.463 1_655 S
C652 N656 1.427 . S
C653 H643 0.929 . S
C653 C651 1.433 . S
C653 N656 1.384 . S
C654 H645 0.929 1_455 S
C654 C646 1.378 . S
C654 C649 1.350 . S
C655 H642 0.929 . S
C655 C647 1.433 . S
C655 N657 1.384 . S
N656 C652 1.427 . S
N656 C653 1.384 . S
N657 C649 1.427 . S
N657 C655 1.384 . S
H658 C664 0.930 . S
H659 C668 0.930 . S
H660 C673 0.929 . S
H661 C671 0.929 . S
H662 C666 0.929 . S
H663 C672 0.929 . S
C664 H658 0.930 . S
C664 C665 1.367 . S
C664 C672 1.378 . S
C665 C664 1.367 . S
C665 C673 1.433 . S
C666 H662 0.929 . S
C666 C668 1.378 . S
C666 C670 1.350 . S
C667 C670 1.463 . S
C667 C672 1.350 . S
C667 N675 1.427 . S
C668 H659 0.930 . S
C668 C666 1.378 . S
C668 C669 1.367 . S
C669 C668 1.367 . S
C669 C671 1.433 . S
C670 C666 1.350 . S
C670 C667 1.463 . S
C670 N674 1.427 . S
C671 H661 0.929 . S
C671 C669 1.433 . S
C671 N674 1.384 . S
C672 H663 0.929 . S
C672 C664 1.378 . S
C672 C667 1.350 . S
C673 H660 0.929 . S
C673 C665 1.433 . S
C673 N675 1.384 . S
N674 C670 1.427 . S
N674 C671 1.384 . S
N675 C667 1.427 . S
N675 C673 1.384 . S
H676 C682 0.930 . S
H677 C686 0.930 . S
H678 C691 0.929 . S
H679 C689 0.929 . S
H680 C684 0.929 . S
H681 C690 0.929 . S
C682 H676 0.930 . S
C682 C683 1.367 . S
C682 C690 1.378 . S
C683 C682 1.367 . S
C683 C691 1.433 . S
C684 H680 0.929 . S
C684 C686 1.378 . S
C684 C688 1.350 . S
C685 C688 1.463 . S
C685 C690 1.350 . S
C685 N693 1.427 . S
C686 H677 0.930 . S
C686 C684 1.378 . S
C686 C687 1.367 . S
C687 C686 1.367 . S
C687 C689 1.433 . S
C688 C684 1.350 . S
C688 C685 1.463 . S
C688 N692 1.427 . S
C689 H679 0.929 . S
C689 C687 1.433 . S
C689 N692 1.384 . S
C690 H681 0.929 . S
C690 C682 1.378 . S
C690 C685 1.350 . S
C691 H678 0.929 . S
C691 C683 1.433 . S
C691 N693 1.384 . S
N692 C688 1.427 . S
N692 C689 1.384 . S
N693 C685 1.427 . S
N693 C691 1.384 . S
H694 C700 0.930 . S
H695 C704 0.930 . S
H696 C709 0.929 . S
H697 C707 0.929 . S
H698 C702 0.929 . S
H699 C708 0.929 . S
C700 H694 0.930 . S
C700 C701 1.367 . S
C700 C708 1.378 . S
C701 C700 1.367 . S
C701 C709 1.433 . S
C702 H698 0.929 . S
C702 C704 1.378 . S
C702 C706 1.350 . S
C703 C706 1.463 1_545 S
C703 C708 1.350 . S
C703 N711 1.427 . S
C704 H695 0.930 . S
C704 C702 1.378 . S
C704 C705 1.367 . S
C705 C704 1.367 . S
C705 C707 1.433 . S
C706 C702 1.350 . S
C706 C703 1.463 1_565 S
C706 N710 1.427 . S
C707 H697 0.929 . S
C707 C705 1.433 . S
C707 N710 1.384 . S
C708 H699 0.929 . S
C708 C700 1.378 . S
C708 C703 1.350 . S
C709 H696 0.929 . S
C709 C701 1.433 . S
C709 N711 1.384 . S
N710 C706 1.427 . S
N710 C707 1.384 . S
N711 C703 1.427 . S
N711 C709 1.384 . S
H712 C718 0.930 . S
H713 C722 0.930 . S
H714 C727 0.929 . S
H715 C725 0.929 . S
H716 C720 0.929 . S
H717 C726 0.929 . S
C718 H712 0.930 . S
C718 C719 1.367 . S
C718 C726 1.378 . S
C719 C718 1.367 . S
C719 C727 1.433 . S
C720 H716 0.929 . S
C720 C722 1.378 . S
C720 C724 1.350 . S
C721 C724 1.463 . S
C721 C726 1.350 . S
C721 N729 1.427 . S
C722 H713 0.930 . S
C722 C720 1.378 . S
C722 C723 1.367 . S
C723 C722 1.367 . S
C723 C725 1.433 . S
C724 C720 1.350 . S
C724 C721 1.463 . S
C724 N728 1.427 . S
C725 H715 0.929 . S
C725 C723 1.433 . S
C725 N728 1.384 . S
C726 H717 0.929 . S
C726 C718 1.378 . S
C726 C721 1.350 . S
C727 H714 0.929 . S
C727 C719 1.433 . S
C727 N729 1.384 . S
N728 C724 1.427 . S
N728 C725 1.384 . S
N729 C721 1.427 . S
N729 C727 1.384 . S
H730 C736 0.930 . S
H731 C740 0.930 . S
H732 C745 0.929 . S
H733 C743 0.929 . S
H734 C738 0.929 . S
H735 C744 0.929 . S
C736 H730 0.930 . S
C736 C737 1.367 . S
C736 C744 1.378 . S
C737 C736 1.367 . S
C737 C745 1.433 . S
C738 H734 0.929 . S
C738 C740 1.378 . S
C738 C742 1.350 . S
C739 C742 1.463 . S
C739 C744 1.350 . S
C739 N747 1.427 . S
C740 H731 0.930 . S
C740 C738 1.378 . S
C740 C741 1.367 . S
C741 C740 1.367 . S
C741 C743 1.433 . S
C742 C738 1.350 . S
C742 C739 1.463 . S
C742 N746 1.427 . S
C743 H733 0.929 . S
C743 C741 1.433 . S
C743 N746 1.384 . S
C744 H735 0.929 . S
C744 C736 1.378 . S
C744 C739 1.350 . S
C745 H732 0.929 . S
C745 C737 1.433 . S
C745 N747 1.384 . S
N746 C742 1.427 . S
N746 C743 1.384 . S
N747 C739 1.427 . S
N747 C745 1.384 . S
H748 C754 0.930 . S
H749 C758 0.930 . S
H750 C763 0.929 . S
H751 C761 0.929 . S
H752 C756 0.929 . S
H753 C762 0.937 . S
C754 H748 0.930 . S
C754 C755 1.367 . S
C754 C762 1.378 . S
C755 C754 1.367 . S
C755 C763 1.433 . S
C756 H752 0.929 . S
C756 C758 1.378 . S
C756 C760 1.350 . S
C757 C760 1.463 1_545 S
C757 C762 1.350 . S
C757 N765 1.427 . S
C758 H749 0.930 . S
C758 C756 1.378 . S
C758 C759 1.367 . S
C759 C758 1.367 . S
C759 C761 1.433 . S
C760 C756 1.350 . S
C760 C757 1.463 1_565 S
C760 N764 1.427 . S
C761 H751 0.929 . S
C761 C759 1.433 . S
C761 N764 1.384 . S
C762 H753 0.937 . S
C762 C754 1.378 . S
C762 C757 1.350 . S
C763 H750 0.929 . S
C763 C755 1.433 . S
C763 N765 1.384 . S
N764 C760 1.427 . S
N764 C761 1.384 . S
N765 C757 1.427 . S
N765 C763 1.384 . S
H766 C772 0.930 . S
H767 C776 0.930 . S
H768 C781 0.929 . S
H769 C779 0.929 . S
H770 C774 0.929 . S
H771 C780 0.929 . S
C772 H766 0.930 . S
C772 C773 1.367 . S
C772 C780 1.378 . S
C773 C772 1.367 . S
C773 C781 1.433 . S
C774 H770 0.929 . S
C774 C776 1.378 . S
C774 C778 1.350 . S
C775 C778 1.463 . S
C775 C780 1.350 . S
C775 N783 1.427 . S
C776 H767 0.930 . S
C776 C774 1.378 . S
C776 C777 1.367 . S
C777 C776 1.367 . S
C777 C779 1.433 . S
C778 C774 1.350 . S
C778 C775 1.463 . S
C778 N782 1.427 . S
C779 H769 0.929 . S
C779 C777 1.433 . S
C779 N782 1.384 . S
C780 H771 0.929 . S
C780 C772 1.378 . S
C780 C775 1.350 . S
C781 H768 0.929 . S
C781 C773 1.433 . S
C781 N783 1.384 . S
N782 C778 1.427 . S
N782 C779 1.384 . S
N783 C775 1.427 . S
N783 C781 1.384 . S
C215 C8 1.027 . S
C219 C177 1.023 . S
C233 C21 1.013 . S
C237 C125 1.029 . S
C251 C190 1.066 . S
C255 C34 1.072 . S
C269 C47 1.072 . S
C273 C203 1.063 . S
C287 C60 1.012 . S
C291 C86 1.030 . S
C305 C138 1.012 . S
C309 C73 1.030 . S
C323 C151 1.068 . S
C327 C99 1.070 . S
C341 C112 1.061 . S
C345 C164 1.075 . S
C359 C26 1.553 . S
C363 C5 1.558 . S
C377 C18 1.551 . S
C381 C39 1.546 . S
C395 C161 1.576 . S
C399 C10 1.561 . S
C413 C23 1.549 . S
C417 C148 1.580 . S
C431 C62 1.549 . S
C435 C31 1.581 . S
C449 C140 1.551 . S
C453 C44 1.583 . S
C467 C13 1.537 . S
C471 C0 1.529 . S
C485 C49 1.517 . S
C489 C36 1.516 . S
C503 C130 1.531 . S
C507 C52 1.538 . S
C521 C96 1.598 . S
C525 C65 1.615 . S
C539 C78 1.615 . S
C543 C109 1.595 . S
C557 C195 1.552 . S
C561 C75 1.524 . S
C575 C88 1.521 . S
C579 C182 1.554 . S
C593 C127 1.520 . S
C597 C91 1.554 . S
C611 C104 1.552 . S
C615 C179 1.524 . S
C629 C83 1.593 . S
C633 C70 1.596 . S
C647 C114 1.451 . S
C651 C101 1.454 . S
C665 C122 1.593 . S
C669 C174 1.589 . S
C683 C135 1.557 . S
C687 C143 1.549 . S
C701 C156 1.545 . S
C705 C57 1.552 . S
C719 C166 1.510 . S
C723 C153 1.517 . S
C737 C187 1.597 . S
C741 C169 1.615 . S
C755 C117 1.615 . S
C759 C200 1.600 . S
C773 C205 1.453 . S
C777 C192 1.446 . S
