# Generated by pormake.
# Topology smc, (6)-cn, num edge types: 1
# Building blocks:
#     Node 0, Type 0, BuildingBlock: CUWYAW_clean_sbu_0, # of connection points: 6
#     Node 1, Type 0, BuildingBlock: CUWYAW_clean_sbu_0, # of connection points: 6
#     Node 2, Type 0, BuildingBlock: CUWYAW_clean_sbu_0, # of connection points: 6
#     Node 3, Type 0, BuildingBlock: CUWYAW_clean_sbu_0, # of connection points: 6
#     Node 4, Type 0, BuildingBlock: CUWYAW_clean_sbu_0, # of connection points: 6
#     Node 5, Type 0, BuildingBlock: CUWYAW_clean_sbu_0, # of connection points: 6
#     Node 6, Type 0, BuildingBlock: CUWYAW_clean_sbu_0, # of connection points: 6
#     Node 7, Type 0, BuildingBlock: CUWYAW_clean_sbu_0, # of connection points: 6
#     Node 8, Type 0, BuildingBlock: CUWYAW_clean_sbu_0, # of connection points: 6
#     Edge 9, Type (0, 0), BuildingBlock: AJUNOK_clean_linker_0, # of connection points: 2
#     Edge 10, Type (0, 0), BuildingBlock: AJUNOK_clean_linker_0, # of connection points: 2
#     Edge 11, Type (0, 0), BuildingBlock: AJUNOK_clean_linker_0, # of connection points: 2
#     Edge 12, Type (0, 0), BuildingBlock: AJUNOK_clean_linker_0, # of connection points: 2
#     Edge 13, Type (0, 0), BuildingBlock: AJUNOK_clean_linker_0, # of connection points: 2
#     Edge 14, Type (0, 0), BuildingBlock: AJUNOK_clean_linker_0, # of connection points: 2
#     Edge 15, Type (0, 0), BuildingBlock: AJUNOK_clean_linker_0, # of connection points: 2
#     Edge 16, Type (0, 0), BuildingBlock: AJUNOK_clean_linker_0, # of connection points: 2
#     Edge 17, Type (0, 0), BuildingBlock: AJUNOK_clean_linker_0, # of connection points: 2
#     Edge 18, Type (0, 0), BuildingBlock: AJUNOK_clean_linker_0, # of connection points: 2
#     Edge 19, Type (0, 0), BuildingBlock: AJUNOK_clean_linker_0, # of connection points: 2
#     Edge 20, Type (0, 0), BuildingBlock: AJUNOK_clean_linker_0, # of connection points: 2
#     Edge 21, Type (0, 0), BuildingBlock: AJUNOK_clean_linker_0, # of connection points: 2
#     Edge 22, Type (0, 0), BuildingBlock: AJUNOK_clean_linker_0, # of connection points: 2
#     Edge 23, Type (0, 0), BuildingBlock: AJUNOK_clean_linker_0, # of connection points: 2
#     Edge 24, Type (0, 0), BuildingBlock: AJUNOK_clean_linker_0, # of connection points: 2
#     Edge 25, Type (0, 0), BuildingBlock: AJUNOK_clean_linker_0, # of connection points: 2
#     Edge 26, Type (0, 0), BuildingBlock: AJUNOK_clean_linker_0, # of connection points: 2
#     Edge 27, Type (0, 0), BuildingBlock: AJUNOK_clean_linker_0, # of connection points: 2
#     Edge 28, Type (0, 0), BuildingBlock: AJUNOK_clean_linker_0, # of connection points: 2
#     Edge 29, Type (0, 0), BuildingBlock: AJUNOK_clean_linker_0, # of connection points: 2
#     Edge 30, Type (0, 0), BuildingBlock: AJUNOK_clean_linker_0, # of connection points: 2
#     Edge 31, Type (0, 0), BuildingBlock: AJUNOK_clean_linker_0, # of connection points: 2
#     Edge 32, Type (0, 0), BuildingBlock: AJUNOK_clean_linker_0, # of connection points: 2
#     Edge 33, Type (0, 0), BuildingBlock: AJUNOK_clean_linker_0, # of connection points: 2
#     Edge 34, Type (0, 0), BuildingBlock: AJUNOK_clean_linker_0, # of connection points: 2
#     Edge 35, Type (0, 0), BuildingBlock: AJUNOK_clean_linker_0, # of connection points: 2
# Relax obj value: 0.207
# Max RMSD: 0.343
# Mean RMSD: 0.343
data_MOF--net-smc--node1-CUWYAW_clean_sbu_0--edge1-AJUNOK_clean_linker_0
_symmetry_space_group_name_H-M    P1
_symmetry_Int_Tables_number       1
_symmetry_cell_setting            triclinic
loop_
_symmetry_equiv_pos_as_xyz
'x, y, z'
_cell_length_a     31.419173
_cell_length_b     31.569243
_cell_length_c     27.778475
_cell_angle_alpha  90.257291
_cell_angle_beta   90.458184
_cell_angle_gamma 120.19741
loop_
_atom_site_label
_atom_site_type_symbol
_atom_site_fract_x
_atom_site_fract_y
_atom_site_fract_z
_atom_type_partial_charge
C0 C 0.9364 0.31936 0.03846 0.0
Eu1 Eu 1.00659 0.41127 0.04127 0.0
C2 C 0.88248 0.29297 0.04736 0.0
C3 C 0.86253 0.26118 0.08652 0.0
C4 C 0.81134 0.23316 0.09222 0.0
C5 C 0.77928 0.23675 0.05906 0.0
C6 C 0.79905 0.26968 1.02093 0.0
C7 C 0.85 0.29734 1.01498 0.0
C8 C 0.06288 0.45745 0.12033 0.0
C9 C 0.96773 0.48919 0.0481 0.0
C10 C 0.13378 0.60567 1.028 0.0
Eu11 Eu 0.07452 0.51202 1.0165 0.0
C12 C 0.18151 0.65065 1.01964 0.0
C13 C 0.18904 0.67496 0.97578 0.0
C14 C 0.22445 0.7242 0.97216 0.0
C15 C 0.25468 0.75034 1.01176 0.0
C16 C 0.25085 0.72467 0.05432 0.0
C17 C 0.21426 0.67515 0.05831 0.0
C18 C 1.03005 0.45193 0.93741 0.0
C19 C 0.12232 0.45088 0.99928 0.0
O20 O 0.9504 0.34872 1.00199 0.0
O21 O 0.96689 0.33838 0.07503 0.0
O22 O 1.01511 0.43088 0.12038 0.0
O23 O 0.07707 0.46406 0.07671 0.0
O24 O 0.95627 0.44324 0.05413 0.0
O25 O 1.01153 0.52239 0.03456 0.0
O26 O 0.13112 0.57343 0.05921 0.0
O27 O 0.103 0.5861 0.99154 0.0
O28 O 0.07455 0.48971 0.93728 0.0
O29 O 1.01 0.45199 0.97697 0.0
O30 O 0.1286 0.49445 0.99388 0.0
O31 O 0.08011 0.41341 1.01655 0.0
H32 H 0.88643 0.25702 0.11197 0.0
H33 H 0.79669 0.20772 0.12182 0.0
H34 H 0.77499 0.27246 0.99454 0.0
H35 H 0.8637 0.32122 0.98413 0.0
H36 H 0.16465 0.65737 0.94524 0.0
H37 H 0.22506 0.74251 0.93913 0.0
H38 H 0.27419 0.74345 0.08521 0.0
H39 H 0.2094 0.65718 0.09263 0.0
C40 C 0.76377 0.65591 0.04742 0.0
Eu41 Eu 0.66956 0.62473 0.04304 0.0
C42 C 0.79267 0.63055 0.0463 0.0
C43 C 0.82864 0.64114 0.08199 0.0
C44 C 0.85384 0.61502 0.08395 0.0
C45 C 0.84338 0.57736 0.0504 0.0
C46 C 0.80738 0.56699 1.01452 0.0
C47 C 0.78216 0.59308 1.01267 0.0
C48 C 0.62347 0.63138 0.12357 0.0
C49 C 0.59536 0.50945 0.05462 0.0
C50 C 0.47324 0.55021 1.02714 0.0
Eu51 Eu 0.56821 0.58822 1.02189 0.0
C52 C 0.4292 0.55359 1.01469 0.0
C53 C 0.40412 0.53342 0.97115 0.0
C54 C 0.35536 0.52179 0.96515 0.0
C55 C 0.33063 0.53085 1.00217 0.0
C56 C 0.35762 0.55639 0.04366 0.0
C57 C 0.40643 0.56737 0.05001 0.0
C58 C 0.6242 0.598 0.94159 0.0
C59 C 0.62854 0.69876 1.00537 0.0
O60 O 0.74113 0.65645 1.00778 0.0
O61 O 0.7363 0.64681 0.08523 0.0
O62 O 0.64924 0.60972 0.12145 0.0
O63 O 0.61663 0.64076 0.08077 0.0
O64 O 0.64043 0.54156 0.0409 0.0
O65 O 0.56367 0.52419 0.0601 0.0
O66 O 0.50424 0.58106 0.0591 0.0
O67 O 0.49461 0.53856 0.9934 0.0
O68 O 0.5894 0.60878 0.94304 0.0
O69 O 0.62584 0.58005 0.98168 0.0
O70 O 0.58424 0.66118 1.00534 0.0
O71 O 0.66784 0.695 1.01781 0.0
H72 H 0.83701 0.66947 0.10871 0.0
H73 H 0.88209 0.62495 0.11133 0.0
H74 H 0.79826 0.53821 0.98814 0.0
H75 H 0.75394 0.58346 0.9854 0.0
H76 H 0.42059 0.52255 0.94317 0.0
H77 H 0.336 0.50161 0.933 0.0
H78 H 0.34013 0.56509 0.07246 0.0
H79 H 0.42499 0.58332 0.08397 0.0
C80 C 0.42796 0.13677 0.05712 0.0
Eu81 Eu 0.45199 0.06907 0.04685 0.0
C82 C 0.45568 0.19136 0.05558 0.0
C83 C 0.4655 0.21818 0.09875 0.0
C84 C 0.49179 0.26941 0.09883 0.0
C85 C 0.50827 0.29559 0.05563 0.0
C86 C 0.49949 0.26892 1.01234 0.0
C87 C 0.47341 0.21732 1.01227 0.0
C88 C 0.44353 1.00966 0.12179 0.0
C89 C 0.56703 0.10214 0.05473 0.0
C90 C 0.50251 0.93188 1.01345 0.0
Eu91 Eu 0.4817 1.0013 1.0162 0.0
C92 C 0.51513 0.89284 1.01031 0.0
C93 C 0.54092 0.89123 0.9702 0.0
C94 C 0.55861 0.8588 0.96844 0.0
C95 C 0.55058 0.82663 1.00652 0.0
C96 C 0.52243 0.82627 0.04593 0.0
C97 C 0.5045 0.85906 0.04766 0.0
C98 C 0.47796 0.05574 0.94031 0.0
C99 C 0.37311 0.96042 0.99813 0.0
O100 O 0.42161 0.11255 1.01694 0.0
O101 O 0.43888 0.11728 0.09302 0.0
O102 O 0.46811 0.05729 0.12342 0.0
O103 O 0.43251 0.99683 0.07787 0.0
O104 O 0.53594 0.11815 0.04742 0.0
O105 O 0.55079 0.05511 0.05408 0.0
O106 O 0.46632 0.92848 0.03947 0.0
O107 O 0.52756 0.97305 0.98995 0.0
O108 O 0.4679 1.01065 0.93699 0.0
O109 O 0.49366 0.07135 0.9827 0.0
O110 O 0.41167 0.96289 0.97923 0.0
O111 O 0.37824 0.99593 1.02821 0.0
H112 H 0.45273 0.19945 0.13273 0.0
H113 H 0.49882 0.28868 0.13295 0.0
H114 H 0.51163 0.28794 0.97844 0.0
H115 H 0.46686 0.19788 0.97832 0.0
H116 H 0.54889 0.91626 0.9406 0.0
H117 H 0.58055 0.86049 0.93786 0.0
H118 H 0.51509 0.80138 0.07555 0.0
H119 H 0.48404 0.85923 0.07881 0.0
C120 C 0.6125 0.65081 0.37334 0.0
Eu121 Eu 0.67568 0.74459 0.37153 0.0
C122 C 0.55755 0.62239 0.37322 0.0
C123 C 0.53302 0.59304 0.41295 0.0
C124 C 0.4815 0.56774 0.41521 0.0
C125 C 0.45283 0.57109 0.37785 0.0
C126 C 0.47731 0.6009 0.33821 0.0
C127 C 0.52908 0.62632 0.33596 0.0
C128 C 0.73236 0.79052 0.45054 0.0
C129 C 0.63313 0.81995 0.38157 0.0
C130 C 0.80321 0.93588 0.36331 0.0
Eu131 Eu 0.73839 0.84392 0.35006 0.0
C132 C 0.84923 0.98242 0.35458 0.0
C133 C 0.85519 1.00852 0.31215 0.0
C134 C 0.89025 0.0583 0.31009 0.0
C135 C 0.92042 0.08314 0.35028 0.0
C136 C 0.91842 0.05541 0.39065 0.0
C137 C 0.88279 1.00553 0.3929 0.0
C138 C 0.68677 0.78879 0.27012 0.0
C139 C 0.78784 0.78895 0.32139 0.0
O140 O 0.63503 0.67362 0.33399 0.0
O141 O 0.63275 0.67743 0.41189 0.0
O142 O 0.68456 0.76496 0.45067 0.0
O143 O 0.74655 0.79667 0.40703 0.0
O144 O 0.62086 0.77343 0.37568 0.0
O145 O 0.67928 0.8541 0.38064 0.0
O146 O 0.80483 0.90064 0.38646 0.0
O147 O 0.76631 0.92039 0.33252 0.0
O148 O 0.73188 0.82539 0.26974 0.0
O149 O 0.66991 0.78613 0.31197 0.0
O150 O 0.78068 0.82314 0.30576 0.0
O151 O 0.75265 0.75334 0.34818 0.0
H152 H 0.55384 0.58983 0.44258 0.0
H153 H 0.46396 0.5454 0.44639 0.0
H154 H 0.45644 0.60376 0.30845 0.0
H155 H 0.54677 0.649 0.30511 0.0
H156 H 0.83037 0.99154 0.28176 0.0
H157 H 0.89104 0.07797 0.27799 0.0
H158 H 0.94275 0.07253 0.42132 0.0
H159 H 0.87935 0.98593 0.42591 0.0
C160 C 0.43152 0.98983 0.37842 0.0
Eu161 Eu 0.33751 0.95843 0.37468 0.0
C162 C 0.45869 0.96231 0.37757 0.0
C163 C 0.47392 0.95082 0.42107 0.0
C164 C 0.49683 0.92247 0.42124 0.0
C165 C 0.50563 0.9053 0.37789 0.0
C166 C 0.49086 0.917 0.33437 0.0
C167 C 0.46747 0.94495 0.33419 0.0
C168 C 0.29098 0.96457 0.45394 0.0
C169 C 0.26343 0.8418 0.38671 0.0
C170 C 0.14505 0.89143 0.36269 0.0
Eu171 Eu 0.23759 0.92046 0.35189 0.0
C172 C 0.09783 0.889 0.35262 0.0
C173 C 0.07346 0.87188 0.30814 0.0
C174 C 1.02383 0.85809 0.30345 0.0
C175 C 0.99799 0.86077 0.34319 0.0
C176 C 1.02326 0.8817 0.38647 0.0
C177 C 0.07302 0.89586 0.39109 0.0
C178 C 0.29112 0.92544 0.27189 0.0
C179 C 0.29387 0.02699 0.32916 0.0
O180 O 0.40901 0.99097 0.33883 0.0
O181 O 0.40478 0.98286 0.41647 0.0
O182 O 0.31692 0.94296 0.45275 0.0
O183 O 0.28423 0.97415 0.41107 0.0
O184 O 0.30946 0.87528 0.37714 0.0
O185 O 0.22953 0.85392 0.38635 0.0
O186 O 0.1802 0.92996 0.38504 0.0
O187 O 0.16086 0.86959 0.33354 0.0
O188 O 0.25303 0.93137 0.27174 0.0
O189 O 0.29569 0.91162 0.31347 0.0
O190 O 0.2609 0.98604 0.31051 0.0
O191 O 0.32899 0.02712 0.35688 0.0
H192 H 0.46803 0.96372 0.4552 0.0
H193 H 0.50884 0.91502 0.4552 0.0
H194 H 0.49768 0.90466 0.30037 0.0
H195 H 0.45643 0.953 0.30003 0.0
H196 H 0.09193 0.86684 0.27778 0.0
H197 H 1.00502 0.8435 0.26932 0.0
H198 H 1.00419 0.88562 0.41697 0.0
H199 H 0.09134 0.90947 0.42563 0.0
C200 C 0.09273 0.47057 0.39677 0.0
Eu201 Eu 0.12116 0.40677 0.38488 0.0
C202 C 0.11983 0.52502 0.39398 0.0
C203 C 0.13401 0.55277 0.43685 0.0
C204 C 0.16156 0.60388 0.43583 0.0
C205 C 0.17494 0.62898 0.39189 0.0
C206 C 0.16165 0.60145 0.34883 0.0
C207 C 0.13422 0.54997 0.34984 0.0
C208 C 0.12269 0.35056 0.45758 0.0
C209 C 0.23759 0.44319 0.38208 0.0
C210 C 0.17326 0.26766 0.34777 0.0
Eu211 Eu 0.15477 0.33849 0.34849 0.0
C212 C 0.18377 0.22737 0.3474 0.0
C213 C 0.19936 0.21586 0.30478 0.0
C214 C 0.21648 0.18287 0.30535 0.0
C215 C 0.21893 0.16142 0.34865 0.0
C216 C 0.20116 0.17102 0.39104 0.0
C217 C 0.18329 0.20372 0.39034 0.0
C218 C 0.15212 0.39483 0.27235 0.0
C219 C 0.0432 0.2951 0.34141 0.0
O220 O 0.08441 0.44517 0.35687 0.0
O221 O 0.10641 0.45279 0.43209 0.0
O222 O 0.14661 0.39826 0.45823 0.0
O223 O 0.10979 0.33665 0.4141 0.0
O224 O 0.20467 0.45722 0.37525 0.0
O225 O 0.2231 0.39641 0.38478 0.0
O226 O 0.13705 0.26571 0.3726 0.0
O227 O 0.19889 0.30755 0.32266 0.0
O228 O 0.16451 0.36135 0.26782 0.0
O229 O 0.14437 0.39597 0.31635 0.0
O230 O 0.08058 0.29908 0.31765 0.0
O231 O 0.04905 0.33068 0.37207 0.0
H232 H 0.12397 0.53489 0.47148 0.0
H233 H 0.17203 0.62391 0.46969 0.0
H234 H 0.17129 0.61972 0.31439 0.0
H235 H 0.12405 0.52994 0.31609 0.0
H236 H 0.19932 0.23321 0.27123 0.0
H237 H 0.22868 0.17464 0.27204 0.0
H238 H 0.20134 0.15351 0.42443 0.0
H239 H 0.17098 0.21199 0.42355 0.0
C240 C 0.27714 0.98207 0.7106 0.0
Eu241 Eu 0.3404 0.07561 0.7077 0.0
C242 C 0.22239 0.95372 0.70942 0.0
C243 C 0.19742 0.92599 0.74976 0.0
C244 C 0.14602 0.9013 0.75155 0.0
C245 C 0.11786 0.90324 0.71288 0.0
C246 C 0.14279 0.93125 0.67241 0.0
C247 C 0.19456 0.95643 0.67076 0.0
C248 C 0.3949 0.12246 0.78669 0.0
C249 C 0.30176 0.15313 0.71811 0.0
C250 C 0.47317 0.2631 0.68572 0.0
Eu251 Eu 0.40478 0.17207 0.68254 0.0
C252 C 0.51201 0.31497 0.68702 0.0
C253 C 0.5218 0.34301 0.64537 0.0
C254 C 0.5559 0.39301 0.64665 0.0
C255 C 0.58038 0.41603 0.68977 0.0
C256 C 0.57202 0.38786 0.73128 0.0
C257 C 0.53818 0.33735 0.72982 0.0
C258 C 0.35028 0.11631 0.60421 0.0
C259 C 0.45166 0.11314 0.66279 0.0
O260 O 0.30037 1.00409 0.67127 0.0
O261 O 0.29643 1.00945 0.74891 0.0
O262 O 0.34702 0.09901 0.78497 0.0
O263 O 0.41129 0.12767 0.74396 0.0
O264 O 0.28731 0.10622 0.71125 0.0
O265 O 0.34854 0.18561 0.71573 0.0
O266 O 0.47513 0.22985 0.71217 0.0
O267 O 0.43418 0.24699 0.65772 0.0
O268 O 0.39646 0.14998 0.60312 0.0
O269 O 0.33467 0.11556 0.64624 0.0
O270 O 0.44203 0.14276 0.6403 0.0
O271 O 0.4175 0.08184 0.69291 0.0
H272 H 0.21782 0.92381 0.78036 0.0
H273 H 0.12818 0.88052 0.78346 0.0
H274 H 0.12233 0.93293 0.64164 0.0
H275 H 0.21269 0.97801 0.63934 0.0
H276 H 0.50273 0.32633 0.61182 0.0
H277 H 0.56265 0.41402 0.61401 0.0
H278 H 0.59155 0.40486 0.76455 0.0
H279 H 0.53153 0.31611 0.76228 0.0
C280 C 0.09534 0.31881 0.71201 0.0
Eu281 Eu 1.00161 0.28891 0.70763 0.0
C282 C 0.12246 0.29134 0.71247 0.0
C283 C 0.1447 0.2886 0.75551 0.0
C284 C 0.16907 0.26183 0.75765 0.0
C285 C 0.17263 0.23754 0.71665 0.0
C286 C 0.1493 0.23903 0.67376 0.0
C287 C 0.12456 0.26577 0.67168 0.0
C288 C 0.95423 0.29753 0.78457 0.0
C289 C 0.92716 0.17116 0.70413 0.0
C290 C 0.80978 0.21485 0.68305 0.0
Eu291 Eu 0.90508 0.25668 0.67731 0.0
C292 C 0.7631 0.21544 0.68503 0.0
C293 C 0.73958 0.21656 0.64231 0.0
C294 C 0.69028 0.20419 0.6426 0.0
C295 C 0.66341 0.19067 0.6856 0.0
C296 C 0.68769 0.19261 0.72885 0.0
C297 C 0.7372 0.20496 0.72857 0.0
C298 C 0.96516 0.26837 0.60202 0.0
C299 C 0.96403 0.36721 0.67032 0.0
O300 O 0.07296 0.31899 0.67207 0.0
O301 O 0.06867 0.31296 0.74985 0.0
O302 O 0.9778 0.27347 0.78471 0.0
O303 O 0.94857 0.30678 0.74114 0.0
O304 O 0.97227 0.20612 0.71571 0.0
O305 O 0.89504 0.1824 0.68811 0.0
O306 O 0.83903 0.22911 0.7209 0.0
O307 O 0.83319 0.22377 0.64219 0.0
O308 O 0.93076 0.27983 0.60087 0.0
O309 O 0.96417 0.24849 0.64185 0.0
O310 O 0.92399 0.32946 0.65389 0.0
O311 O 0.99906 0.36128 0.692 0.0
H312 H 0.14327 0.30728 0.78774 0.0
H313 H 0.18594 0.26077 0.79144 0.0
H314 H 0.15147 0.22081 0.64153 0.0
H315 H 0.10751 0.2668 0.63808 0.0
H316 H 0.75823 0.22407 0.60812 0.0
H317 H 0.67246 0.20275 0.60859 0.0
H318 H 0.668 0.18314 0.76253 0.0
H319 H 0.75435 0.20357 0.76205 0.0
C320 C 0.75806 0.80106 0.73152 0.0
Eu321 Eu 0.78584 0.73682 0.71766 0.0
C322 C 0.78382 0.85503 0.72454 0.0
C323 C 0.78273 0.88528 0.7612 0.0
C324 C 0.81002 0.93653 0.75741 0.0
C325 C 0.83864 0.95875 0.71656 0.0
C326 C 0.84031 0.92848 0.68018 0.0
C327 C 0.81378 0.87732 0.68444 0.0
C328 C 0.77987 0.67999 0.79339 0.0
C329 C 0.90311 0.77648 0.71948 0.0
C330 C 0.84183 0.60674 0.6827 0.0
Eu331 Eu 0.81812 0.67423 0.68599 0.0
C332 C 0.85504 0.56805 0.68231 0.0
C333 C 0.87359 0.55831 0.64057 0.0
C334 C 0.89146 0.52568 0.64179 0.0
C335 C 0.89188 0.50277 0.68498 0.0
C336 C 0.87152 0.51135 0.72634 0.0
C337 C 0.8527 0.54315 0.72481 0.0
C338 C 0.81074 0.72601 0.60981 0.0
C339 C 0.71011 0.62686 0.67057 0.0
O340 O 0.74503 0.77243 0.69337 0.0
O341 O 0.77717 0.78693 0.76518 0.0
O342 O 0.80545 0.72756 0.79354 0.0
O343 O 0.76867 0.66564 0.74978 0.0
O344 O 0.86972 0.78971 0.71279 0.0
O345 O 0.88881 0.72993 0.71999 0.0
O346 O 0.80664 0.6037 0.71005 0.0
O347 O 0.86449 0.64659 0.65694 0.0
O348 O 0.80303 0.68164 0.60732 0.0
O349 O 0.82703 0.74348 0.65163 0.0
O350 O 0.74867 0.63701 0.6465 0.0
O351 O 0.71387 0.66044 0.70241 0.0
H352 H 0.7612 0.86921 0.79321 0.0
H353 H 0.80812 0.95881 0.78613 0.0
H354 H 0.86282 0.94445 0.64871 0.0
H355 H 0.81779 0.85553 0.65681 0.0
H356 H 0.87504 0.57657 0.60718 0.0
H357 H 0.9056 0.51891 0.60901 0.0
H358 H 0.87173 0.49502 0.76045 0.0
H359 H 0.83845 0.55003 0.75749 0.0
C360 C 0.2476 0.48392 0.04078 0.0
C361 C 0.27584 0.50717 0.99995 0.0
C362 C 0.19594 0.45806 0.03869 0.0
C363 C 0.16985 0.45244 0.99546 0.0
H364 H 0.26537 0.48653 0.07512 0.0
H365 H 0.17688 0.44709 0.07234 0.0
S366 S 0.22611 0.51257 0.88001 0.0
N367 N 0.27361 0.52852 0.91646 0.0
N368 N 0.17689 0.47601 0.91154 0.0
C369 C 0.19795 0.47499 0.95417 0.0
C370 C 0.25052 0.50348 0.95676 0.0
C371 C 0.60273 0.79546 0.0444 0.0
C372 C 0.57448 0.79617 1.00508 0.0
C373 C 0.62877 0.76995 0.04168 0.0
C374 C 0.62788 0.74464 0.99945 0.0
H375 H 0.60412 0.81409 0.07772 0.0
H376 H 0.64607 0.76644 0.07414 0.0
S377 S 0.55532 0.73099 0.88847 0.0
N378 N 0.54385 0.76577 0.92435 0.0
N379 N 0.59489 0.72073 0.91824 0.0
C380 C 0.6008 0.74645 0.95961 0.0
C381 C 0.57309 0.77082 0.96288 0.0
C382 C 0.30929 0.88664 0.04158 0.0
C383 C 0.33147 0.90914 0.99793 0.0
C384 C 0.28587 0.83528 0.04675 0.0
C385 C 0.2854 0.80481 1.00906 0.0
H386 H 0.31245 0.90891 0.07269 0.0
H387 H 0.2682 0.81943 0.08054 0.0
S388 S 0.34476 0.84627 0.8903 0.0
N389 N 0.3514 0.89625 0.9165 0.0
N390 N 0.31539 0.80212 0.9295 0.0
C391 C 0.30927 0.82719 0.96623 0.0
C392 C 0.32944 0.8784 0.95961 0.0
C393 C 0.57626 0.38082 0.03229 0.0
C394 C 0.53163 0.3503 0.05613 0.0
C395 C 0.59838 0.43249 0.03366 0.0
C396 C 0.57648 0.45554 0.05863 0.0
H397 H 0.59423 0.36465 1.01254 0.0
H398 H 0.63199 0.45436 1.01388 0.0
S399 S 0.45829 0.39175 0.12506 0.0
N400 N 0.46557 0.34706 0.10359 0.0
N401 N 0.50701 0.44288 0.10752 0.0
C402 C 0.53185 0.42508 0.0826 0.0
C403 C 0.50948 0.37293 0.08096 0.0
C404 C 0.64091 0.18687 0.06574 0.0
C405 C 0.62126 0.13622 0.0581 0.0
C406 C 0.69217 0.21941 0.06685 0.0
C407 C 0.72544 0.20235 0.06075 0.0
H408 H 0.6166 0.20154 0.07056 0.0
H409 H 0.7059 0.25818 0.07234 0.0
S410 S 0.69396 0.0747 0.03441 0.0
N411 N 0.64028 0.07158 0.04071 0.0
N412 N 0.73578 0.13281 0.04354 0.0
C413 C 0.70653 0.15221 0.05245 0.0
C414 C 0.65467 0.11914 0.05096 0.0
C415 C 0.91947 0.52145 1.00733 0.0
C416 C 0.93025 0.50443 0.04981 0.0
C417 C 0.89037 0.54362 1.00784 0.0
C418 C 0.8715 0.5506 0.05108 0.0
H419 H 0.9348 0.51873 0.97341 0.0
H420 H 0.88415 0.55702 0.97421 0.0
S421 S 0.8901 0.51313 0.1725 0.0
N422 N 0.92064 0.49642 0.13629 0.0
N423 N 0.86539 0.53762 0.13774 0.0
C424 C 0.88176 0.53327 0.09392 0.0
C425 C 0.91125 0.51033 0.09318 0.0
C426 C 0.85887 0.77582 0.34481 0.0
C427 C 0.84147 0.80398 0.3222 0.0
C428 C 0.90972 0.79483 0.35307 0.0
C429 C 0.94476 0.84244 0.33846 0.0
H430 H 0.83312 0.73901 0.35602 0.0
H431 H 0.92181 0.77202 0.37053 0.0
S432 S 0.92126 0.93192 0.27627 0.0
N433 N 0.86645 0.88314 0.28319 0.0
N434 N 0.96016 0.9173 0.30039 0.0
C435 C 0.92864 0.87083 0.31529 0.0
C436 C 0.87755 0.85189 0.30636 0.0
C437 C 0.28357 0.13863 0.36657 0.0
C438 C 0.23707 0.12651 0.34751 0.0
C439 C 0.30327 0.10754 0.35949 0.0
C440 C 0.27748 0.06407 0.33208 0.0
H441 H 0.30493 0.17253 0.38665 0.0
H442 H 0.33849 0.11737 0.37584 0.0
S443 S 0.15128 1.01558 0.27769 0.0
N444 N 0.16409 0.06759 0.30399 0.0
N445 N 0.20041 1.01065 0.28706 0.0
C446 C 0.23018 0.05207 0.31311 0.0
C447 C 0.21012 0.08282 0.32185 0.0
C448 C 0.99728 0.21281 0.30372 0.0
C449 C 1.00223 0.24326 0.34335 0.0
C450 C 0.97331 0.16184 0.30734 0.0
C451 C 0.95065 0.13795 0.35013 0.0
H452 H 1.01507 0.22878 0.26996 0.0
H453 H 0.97305 0.141 0.27613 0.0
S454 S 0.94982 0.19938 0.46431 0.0
N455 N 0.98222 0.24517 0.42733 0.0
N456 N 0.93294 0.14864 0.43308 0.0
C457 C 0.95378 0.16748 0.38996 0.0
C458 C 0.97989 0.22006 0.38665 0.0
C459 C 0.26525 0.76458 0.36545 0.0
C460 C 0.246 0.78868 0.3928 0.0
C461 C 0.2422 0.71286 0.3648 0.0
C462 C 0.19938 0.68362 0.39171 0.0
H463 H 0.29701 0.7856 0.34299 0.0
H464 H 0.25786 0.69565 0.34304 0.0
S465 S 0.13321 0.72864 0.4673 0.0
N466 N 0.18113 0.77883 0.4469 0.0
N467 N 0.13774 0.68279 0.44447 0.0
C468 C 0.17996 0.70744 0.41891 0.0
C469 C 0.2033 0.75957 0.41981 0.0
C470 C 0.32436 0.46026 0.39172 0.0
C471 C 0.2921 0.47846 0.38309 0.0
C472 C 0.37567 0.4905 0.38997 0.0
C473 C 0.39773 0.54061 0.37935 0.0
H474 H 0.31004 0.42188 0.39948 0.0
H475 H 0.39833 0.47412 0.39631 0.0
S476 S 0.33104 0.60781 0.35535 0.0
N477 N 0.28671 0.55077 0.36431 0.0
N478 N 0.3834 0.60775 0.36127 0.0
C479 C 0.36631 0.55974 0.37093 0.0
C480 C 0.31362 0.52877 0.3729 0.0
C481 C 0.57956 0.90132 0.35283 0.0
C482 C 0.53487 0.87993 0.37761 0.0
C483 C 0.60996 0.88071 0.35401 0.0
C484 C 0.59684 0.83721 0.37939 0.0
H485 H 0.59181 0.93511 0.33333 0.0
H486 H 0.64445 0.89942 0.33484 0.0
S487 S 0.48221 0.76518 0.44811 0.0
N488 N 0.47799 0.81197 0.42734 0.0
N489 N 0.53495 0.77245 0.42833 0.0
C490 C 0.5515 0.81445 0.40307 0.0
C491 C 0.52071 0.8361 0.40267 0.0
C492 C 0.57522 0.12694 0.70331 0.0
C493 C 0.60972 0.17273 0.68396 0.0
C494 C 0.52406 0.10686 0.69591 0.0
C495 C 0.50578 0.13153 0.66817 0.0
H496 H 0.58793 0.10597 0.72331 0.0
H497 H 0.49884 0.07185 0.71175 0.0
S498 S 0.58246 0.25696 0.61581 0.0
N499 N 0.62248 0.245 0.6418 0.0
N500 N 0.52842 0.20772 0.62453 0.0
C501 C 0.54082 0.1786 0.64996 0.0
C502 C 0.59214 0.19909 0.65883 0.0
C503 C 0.97862 0.45293 0.66083 0.0
C504 C 0.95494 0.4074 0.68368 0.0
C505 C 0.95883 0.4843 0.6628 0.0
C506 C 0.91423 0.47074 0.68678 0.0
H507 H 1.01088 0.46316 0.63927 0.0
H508 H 0.97792 0.51893 0.64419 0.0
S509 S 0.83761 0.35411 0.7515 0.0
N510 N 0.88524 0.35067 0.73218 0.0
N511 N 0.84704 0.40781 0.73331 0.0
C512 C 0.89098 0.42564 0.71068 0.0
C513 C 0.91161 0.39455 0.70972 0.0
C514 C 0.63513 0.5537 0.70668 0.0
C515 C 0.67526 0.57281 0.6751 0.0
C516 C 0.60547 0.50265 0.71343 0.0
C517 C 0.61562 0.4693 0.68957 0.0
H518 H 0.62648 0.57818 0.72609 0.0
H519 H 0.57373 0.48908 0.73653 0.0
S520 S 0.71987 0.49859 0.60911 0.0
N521 N 0.72512 0.55192 0.6225 0.0
N522 N 0.67065 0.45792 0.63794 0.0
C523 C 0.65675 0.48753 0.66018 0.0
C524 C 0.68615 0.53872 0.65217 0.0
C525 C 0.89645 0.04458 0.74829 0.0
C526 C 0.86525 1.01325 0.71128 0.0
C527 C 0.91934 0.09609 0.74485 0.0
C528 C 0.91113 0.11801 0.70462 0.0
H529 H 0.90268 0.02908 0.78045 0.0
H530 H 0.94166 0.11868 0.77476 0.0
S531 S 0.83355 0.0526 0.59745 0.0
N532 N 0.82855 1.00839 0.6327 0.0
N533 N 0.87074 0.1043 0.62629 0.0
C534 C 0.88089 0.08702 0.66696 0.0
C535 C 0.85821 0.03495 0.67023 0.0
C536 C 0.98951 0.79445 0.73246 0.0
C537 C 0.95739 0.81188 0.72018 0.0
C538 C 0.04072 0.82422 0.72962 0.0
C539 C 0.0628 0.87311 0.71438 0.0
H540 H 0.97507 0.75697 0.74394 0.0
H541 H 0.06327 0.80835 0.73887 0.0
S542 S 0.99607 0.93737 0.67787 0.0
N543 N 0.9518 0.88163 0.69167 0.0
N544 N 0.04846 0.93806 0.68704 0.0
C545 C 1.03143 0.89139 0.70195 0.0
C546 C 0.9788 0.86081 0.70489 0.0
C547 C 0.21771 0.14502 0.70512 0.0
C548 C 0.26675 0.17214 0.72226 0.0
C549 C 0.18718 0.16605 0.70294 0.0
C550 C 0.20446 0.2148 0.7182 0.0
H551 H 0.20326 0.10787 0.69197 0.0
H552 H 0.14985 0.14406 0.68926 0.0
S553 S 0.32989 0.3021 0.76464 0.0
N554 N 0.33061 0.25092 0.75467 0.0
N555 N 0.27402 0.28984 0.74926 0.0
C556 C 0.25318 0.24207 0.73532 0.0
C557 C 0.28401 0.22092 0.73776 0.0
C558 C 0.11985 0.44955 0.24135 0.0
C559 C 0.13453 0.41471 0.23226 0.0
C560 C 0.09805 0.46443 0.20515 0.0
C561 C 0.09016 0.44529 0.15787 0.0
H562 H 0.12493 0.46514 0.27695 0.0
H563 H 0.08661 0.49054 0.21449 0.0
S564 S 0.11901 0.35051 0.11568 0.0
N565 N 0.13958 0.36185 0.17179 0.0
N566 N 0.0953 0.38601 0.10578 0.0
C567 C 0.10434 0.41005 0.14859 0.0
C568 C 0.12758 0.39601 0.185 0.0
C569 C 0.7013 0.73564 0.21256 0.0
C570 C 0.66787 0.74716 0.23409 0.0
C571 C 0.68595 0.69743 0.17841 0.0
C572 C 0.63644 0.6692 0.16284 0.0
H573 H 0.73999 0.75623 0.22234 0.0
H574 H 0.7137 0.69077 0.16316 0.0
S575 S 0.534 0.68541 0.20601 0.0
N576 N 0.58247 0.72706 0.23686 0.0
N577 N 0.55402 0.65669 0.17105 0.0
C578 C 0.60251 0.68061 0.18347 0.0
C579 C 0.61804 0.71897 0.21948 0.0
C580 C 0.40643 0.95644 0.19651 0.0
C581 C 0.40408 0.98522 0.15898 0.0
C582 C 0.36963 0.93632 0.23254 0.0
C583 C 0.32913 0.94427 0.23253 0.0
H584 H 0.43706 0.94986 0.19838 0.0
H585 H 0.37306 0.91466 0.26077 0.0
S586 S 0.30687 1.01803 0.14234 0.0
N587 N 0.35814 1.02076 0.12459 0.0
N588 N 0.2901 0.98379 0.19097 0.0
C589 C 0.32663 0.97279 0.19479 0.0
C590 C 0.36375 0.99303 0.15855 0.0
C591 C 0.48635 0.10068 0.86168 0.0
C592 C 0.45986 0.07864 0.90396 0.0
C593 C 0.46681 0.11751 0.82495 0.0
C594 C 0.41997 0.11341 0.82902 0.0
H595 H 0.52182 0.10357 0.85623 0.0
H596 H 0.48782 0.13218 0.79241 0.0
S597 S 0.33439 0.05524 0.93089 0.0
N598 N 0.38238 0.04949 0.94461 0.0
N599 N 0.3483 0.08558 0.87986 0.0
C600 C 0.39393 0.09237 0.87172 0.0
C601 C 0.41298 0.07365 0.90782 0.0
C602 C 0.99735 0.42067 0.85224 0.0
C603 C 1.00867 0.41168 0.89902 0.0
C604 C 0.97758 0.38347 0.81597 0.0
C605 C 0.96637 0.33475 0.82492 0.0
H606 H 1.0049 0.45713 0.84317 0.0
H607 H 0.97315 0.39378 0.7802 0.0
S608 S 0.99556 0.29308 0.93831 0.0
N609 N 1.01618 0.35196 0.94772 0.0
N610 N 0.96973 0.28073 0.88433 0.0
C611 C 0.9772 0.32545 0.87155 0.0
C612 C 1.00075 0.36404 0.90711 0.0
C613 C 0.71308 0.67941 0.84378 0.0
C614 C 0.74079 0.65696 0.83159 0.0
C615 C 0.67547 0.6596 0.87842 0.0
C616 C 0.66379 0.61655 0.90368 0.0
H617 H 0.72016 0.7127 0.82592 0.0
H618 H 0.65581 0.67884 0.88599 0.0
S619 S 0.72263 0.54114 0.88389 0.0
N620 N 0.75166 0.58725 0.84629 0.0
N621 N 0.68213 0.55076 0.91231 0.0
C622 C 0.69082 0.59327 0.89176 0.0
C623 C 0.72875 0.6131 0.85554 0.0
C624 C 0.75837 0.79447 0.53813 0.0
C625 C 0.75988 0.78107 0.48996 0.0
C626 C 0.77772 0.77946 0.57648 0.0
C627 C 0.79857 0.74957 0.56888 0.0
H628 H 0.7407 0.81547 0.54648 0.0
H629 H 0.77352 0.78893 0.61245 0.0
S630 S 0.80937 0.70163 0.45046 0.0
N631 N 0.78344 0.73462 0.43758 0.0
N632 N 0.81891 0.70676 0.50914 0.0
C633 C 0.8007 0.73636 0.52094 0.0
C634 C 0.78168 0.75197 0.48182 0.0
C635 C 0.32944 1.0026 0.53463 0.0
C636 C 0.29846 0.99872 0.4956 0.0
C637 C 0.34463 0.03969 0.57012 0.0
C638 C 0.32858 0.07401 0.56937 0.0
H639 H 0.34411 0.97811 0.53681 0.0
H640 H 0.3702 0.04214 0.59786 0.0
S641 S 0.24476 0.07904 0.47787 0.0
N642 N 0.25079 0.03229 0.46008 0.0
N643 N 0.27842 0.10083 0.52753 0.0
C644 C 0.29615 0.06968 0.53194 0.0
C645 C 0.28118 0.03231 0.49513 0.0
C646 C 1.01855 0.33045 0.54157 0.0
C647 C 1.00609 0.28704 0.5662 0.0
C648 C 0.05652 0.35022 0.50775 0.0
C649 C 0.08397 0.32748 0.4958 0.0
H650 H 0.99901 0.3499 0.54877 0.0
H651 H 0.06382 0.38362 0.49022 0.0
S652 S 0.06269 0.20979 0.54617 0.0
N653 N 1.02269 0.22009 0.57468 0.0
N654 N 0.09313 0.25652 0.5095 0.0
C655 C 0.07117 0.28316 0.51921 0.0
C656 C 1.03278 0.26334 0.55486 0.0
loop_
_geom_bond_atom_site_label_1
_geom_bond_atom_site_label_2
_geom_bond_distance
_geom_bond_site_symmetry_2
_ccdc_geom_bond_type
C0 Eu1 2.835 . S
C0 C2 1.500 . S
C0 O20 1.257 1_554 S
C0 O21 1.260 . S
Eu1 C0 2.835 . S
Eu1 O20 2.473 1_554 S
Eu1 O21 2.480 . S
Eu1 O22 2.430 . S
Eu1 O23 2.670 1_655 S
Eu1 O24 2.394 . S
Eu1 O29 2.355 1_554 S
Eu1 O31 2.374 1_654 S
C2 C0 1.500 . S
C2 C3 1.377 . S
C2 C7 1.377 1_554 S
C3 C2 1.377 . S
C3 C4 1.395 . S
C3 H32 0.931 . S
C4 C3 1.395 . S
C4 C5 1.383 . S
C4 H33 0.931 . S
C5 C4 1.383 . S
C5 C6 1.394 1_554 S
C6 C5 1.394 1_556 S
C6 C7 1.378 . S
C6 H34 0.931 . S
C7 C2 1.377 1_556 S
C7 C6 1.378 . S
C7 H35 0.931 . S
C8 O22 1.259 1_455 S
C8 O23 1.270 . S
C9 O24 1.251 . S
C9 O25 1.251 . S
C10 Eu11 2.835 . S
C10 C12 1.500 . S
C10 O26 1.257 1_556 S
C10 O27 1.260 . S
Eu11 C10 2.835 . S
Eu11 O23 2.355 1_556 S
Eu11 O25 2.374 1_456 S
Eu11 O26 2.473 1_556 S
Eu11 O27 2.480 . S
Eu11 O28 2.430 . S
Eu11 O29 2.670 1_455 S
Eu11 O30 2.394 . S
C12 C10 1.500 . S
C12 C13 1.377 . S
C12 C17 1.377 1_556 S
C13 C12 1.377 . S
C13 C14 1.395 . S
C13 H36 0.931 . S
C14 C13 1.395 . S
C14 C15 1.383 . S
C14 H37 0.931 . S
C15 C14 1.383 . S
C15 C16 1.394 1_556 S
C16 C15 1.394 1_554 S
C16 C17 1.378 . S
C16 H38 0.931 . S
C17 C12 1.377 1_554 S
C17 C16 1.378 . S
C17 H39 0.931 . S
C18 O28 1.259 1_655 S
C18 O29 1.270 . S
C19 O30 1.251 . S
C19 O31 1.251 . S
O20 C0 1.257 1_556 S
O20 Eu1 2.473 1_556 S
O21 C0 1.260 . S
O21 Eu1 2.480 . S
O22 Eu1 2.430 . S
O22 C8 1.259 1_655 S
O23 Eu1 2.670 1_455 S
O23 C8 1.270 . S
O23 Eu11 2.355 1_554 S
O24 Eu1 2.394 . S
O24 C9 1.251 . S
O25 C9 1.251 . S
O25 Eu11 2.374 1_654 S
O26 C10 1.257 1_554 S
O26 Eu11 2.473 1_554 S
O27 C10 1.260 . S
O27 Eu11 2.480 . S
O28 Eu11 2.430 . S
O28 C18 1.259 1_455 S
O29 Eu1 2.355 1_556 S
O29 Eu11 2.670 1_655 S
O29 C18 1.270 . S
O30 Eu11 2.394 . S
O30 C19 1.251 . S
O31 Eu1 2.374 1_456 S
O31 C19 1.251 . S
H32 C3 0.931 . S
H33 C4 0.931 . S
H34 C6 0.931 . S
H35 C7 0.931 . S
H36 C13 0.931 . S
H37 C14 0.931 . S
H38 C16 0.931 . S
H39 C17 0.931 . S
C40 Eu41 2.835 . S
C40 C42 1.500 . S
C40 O60 1.257 1_554 S
C40 O61 1.260 . S
Eu41 C40 2.835 . S
Eu41 O60 2.473 1_554 S
Eu41 O61 2.480 . S
Eu41 O62 2.430 . S
Eu41 O63 2.670 . S
Eu41 O64 2.394 . S
Eu41 O69 2.355 1_554 S
Eu41 O71 2.374 1_554 S
C42 C40 1.500 . S
C42 C43 1.377 . S
C42 C47 1.377 1_554 S
C43 C42 1.377 . S
C43 C44 1.395 . S
C43 H72 0.931 . S
C44 C43 1.395 . S
C44 C45 1.383 . S
C44 H73 0.931 . S
C45 C44 1.383 . S
C45 C46 1.394 1_554 S
C46 C45 1.394 1_556 S
C46 C47 1.378 . S
C46 H74 0.931 . S
C47 C42 1.377 1_556 S
C47 C46 1.378 . S
C47 H75 0.931 . S
C48 O62 1.259 . S
C48 O63 1.270 . S
C49 O64 1.251 . S
C49 O65 1.251 . S
C50 Eu51 2.835 . S
C50 C52 1.500 . S
C50 O66 1.257 1_556 S
C50 O67 1.260 . S
Eu51 C50 2.835 . S
Eu51 O63 2.355 1_556 S
Eu51 O65 2.374 1_556 S
Eu51 O66 2.473 1_556 S
Eu51 O67 2.480 . S
Eu51 O68 2.430 . S
Eu51 O69 2.670 . S
Eu51 O70 2.394 . S
C52 C50 1.500 . S
C52 C53 1.377 . S
C52 C57 1.377 1_556 S
C53 C52 1.377 . S
C53 C54 1.395 . S
C53 H76 0.931 . S
C54 C53 1.395 . S
C54 C55 1.383 . S
C54 H77 0.931 . S
C55 C54 1.383 . S
C55 C56 1.394 1_556 S
C56 C55 1.394 1_554 S
C56 C57 1.378 . S
C56 H78 0.931 . S
C57 C52 1.377 1_554 S
C57 C56 1.378 . S
C57 H79 0.931 . S
C58 O68 1.259 . S
C58 O69 1.270 . S
C59 O70 1.251 . S
C59 O71 1.251 . S
O60 C40 1.257 1_556 S
O60 Eu41 2.473 1_556 S
O61 C40 1.260 . S
O61 Eu41 2.480 . S
O62 Eu41 2.430 . S
O62 C48 1.259 . S
O63 Eu41 2.670 . S
O63 C48 1.270 . S
O63 Eu51 2.355 1_554 S
O64 Eu41 2.394 . S
O64 C49 1.251 . S
O65 C49 1.251 . S
O65 Eu51 2.374 1_554 S
O66 C50 1.257 1_554 S
O66 Eu51 2.473 1_554 S
O67 C50 1.260 . S
O67 Eu51 2.480 . S
O68 Eu51 2.430 . S
O68 C58 1.259 . S
O69 Eu41 2.355 1_556 S
O69 Eu51 2.670 . S
O69 C58 1.270 . S
O70 Eu51 2.394 . S
O70 C59 1.251 . S
O71 Eu41 2.374 1_556 S
O71 C59 1.251 . S
H72 C43 0.931 . S
H73 C44 0.931 . S
H74 C46 0.931 . S
H75 C47 0.931 . S
H76 C53 0.931 . S
H77 C54 0.931 . S
H78 C56 0.931 . S
H79 C57 0.931 . S
C80 Eu81 2.835 . S
C80 C82 1.500 . S
C80 O100 1.257 1_554 S
C80 O101 1.260 . S
Eu81 C80 2.835 . S
Eu81 O100 2.473 1_554 S
Eu81 O101 2.480 . S
Eu81 O102 2.430 . S
Eu81 O103 2.670 1_545 S
Eu81 O104 2.394 . S
Eu81 O109 2.355 1_554 S
Eu81 O111 2.374 1_544 S
C82 C80 1.500 . S
C82 C83 1.377 . S
C82 C87 1.377 1_554 S
C83 C82 1.377 . S
C83 C84 1.395 . S
C83 H112 0.931 . S
C84 C83 1.395 . S
C84 C85 1.383 . S
C84 H113 0.931 . S
C85 C84 1.383 . S
C85 C86 1.394 1_554 S
C86 C85 1.394 1_556 S
C86 C87 1.378 . S
C86 H114 0.931 . S
C87 C82 1.377 1_556 S
C87 C86 1.378 . S
C87 H115 0.931 . S
C88 O102 1.275 . S
C88 O103 1.263 1_545 S
C89 O104 1.251 . S
C89 O105 1.251 . S
C90 Eu91 2.835 . S
C90 C92 1.500 . S
C90 O106 1.257 1_556 S
C90 O107 1.260 . S
Eu91 C90 2.835 . S
Eu91 O103 2.355 1_556 S
Eu91 O105 2.374 1_566 S
Eu91 O106 2.473 1_556 S
Eu91 O107 2.480 . S
Eu91 O108 2.430 . S
Eu91 O109 2.670 1_565 S
Eu91 O110 2.394 . S
C92 C90 1.500 . S
C92 C93 1.377 . S
C92 C97 1.377 1_556 S
C93 C92 1.377 . S
C93 C94 1.395 . S
C93 H116 0.931 . S
C94 C93 1.395 . S
C94 C95 1.383 . S
C94 H117 0.931 . S
C95 C94 1.383 . S
C95 C96 1.394 1_556 S
C96 C95 1.394 1_554 S
C96 C97 1.378 . S
C96 H118 0.931 . S
C97 C92 1.377 1_554 S
C97 C96 1.378 . S
C97 H119 0.931 . S
C98 O108 1.259 1_545 S
C98 O109 1.270 . S
C99 O110 1.251 . S
C99 O111 1.251 . S
O100 C80 1.257 1_556 S
O100 Eu81 2.473 1_556 S
O101 C80 1.260 . S
O101 Eu81 2.480 . S
O102 Eu81 2.430 . S
O102 C88 1.275 . S
O103 Eu81 2.670 1_565 S
O103 C88 1.263 1_565 S
O103 Eu91 2.355 1_554 S
O104 Eu81 2.394 . S
O104 C89 1.251 . S
O105 C89 1.251 . S
O105 Eu91 2.374 1_544 S
O106 C90 1.257 1_554 S
O106 Eu91 2.473 1_554 S
O107 C90 1.260 . S
O107 Eu91 2.480 . S
O108 Eu91 2.430 . S
O108 C98 1.259 1_565 S
O109 Eu81 2.355 1_556 S
O109 Eu91 2.670 1_545 S
O109 C98 1.270 . S
O110 Eu91 2.394 . S
O110 C99 1.251 . S
O111 Eu81 2.374 1_566 S
O111 C99 1.251 . S
H112 C83 0.931 . S
H113 C84 0.931 . S
H114 C86 0.931 . S
H115 C87 0.931 . S
H116 C93 0.931 . S
H117 C94 0.931 . S
H118 C96 0.931 . S
H119 C97 0.931 . S
C120 Eu121 2.835 . S
C120 C122 1.500 . S
C120 O140 1.257 . S
C120 O141 1.260 . S
Eu121 C120 2.835 . S
Eu121 O140 2.473 . S
Eu121 O141 2.480 . S
Eu121 O142 2.430 . S
Eu121 O143 2.670 . S
Eu121 O144 2.394 . S
Eu121 O149 2.355 . S
Eu121 O151 2.374 . S
C122 C120 1.500 . S
C122 C123 1.377 . S
C122 C127 1.377 . S
C123 C122 1.377 . S
C123 C124 1.395 . S
C123 H152 0.931 . S
C124 C123 1.395 . S
C124 C125 1.383 . S
C124 H153 0.931 . S
C125 C124 1.383 . S
C125 C126 1.394 . S
C126 C125 1.394 . S
C126 C127 1.378 . S
C126 H154 0.931 . S
C127 C122 1.377 . S
C127 C126 1.378 . S
C127 H155 0.931 . S
C128 O142 1.259 . S
C128 O143 1.270 . S
C129 O144 1.251 . S
C129 O145 1.251 . S
C130 Eu131 2.835 . S
C130 C132 1.500 . S
C130 O146 1.257 . S
C130 O147 1.260 . S
Eu131 C130 2.835 . S
Eu131 O143 2.355 . S
Eu131 O145 2.374 . S
Eu131 O146 2.473 . S
Eu131 O147 2.480 . S
Eu131 O148 2.430 . S
Eu131 O149 2.670 . S
Eu131 O150 2.394 . S
C132 C130 1.500 . S
C132 C133 1.377 . S
C132 C137 1.377 . S
C133 C132 1.377 . S
C133 C134 1.395 1_565 S
C133 H156 0.931 . S
C134 C133 1.395 1_545 S
C134 C135 1.383 . S
C134 H157 0.931 . S
C135 C134 1.383 . S
C135 C136 1.394 . S
C136 C135 1.394 . S
C136 C137 1.378 1_545 S
C136 H158 0.931 . S
C137 C132 1.377 . S
C137 C136 1.378 1_565 S
C137 H159 0.931 . S
C138 O148 1.259 . S
C138 O149 1.270 . S
C139 O150 1.251 . S
C139 O151 1.251 . S
O140 C120 1.257 . S
O140 Eu121 2.473 . S
O141 C120 1.260 . S
O141 Eu121 2.480 . S
O142 Eu121 2.430 . S
O142 C128 1.259 . S
O143 Eu121 2.670 . S
O143 C128 1.270 . S
O143 Eu131 2.355 . S
O144 Eu121 2.394 . S
O144 C129 1.251 . S
O145 C129 1.251 . S
O145 Eu131 2.374 . S
O146 C130 1.257 . S
O146 Eu131 2.473 . S
O147 C130 1.260 . S
O147 Eu131 2.480 . S
O148 Eu131 2.430 . S
O148 C138 1.259 . S
O149 Eu121 2.355 . S
O149 Eu131 2.670 . S
O149 C138 1.270 . S
O150 Eu131 2.394 . S
O150 C139 1.251 . S
O151 Eu121 2.374 . S
O151 C139 1.251 . S
H152 C123 0.931 . S
H153 C124 0.931 . S
H154 C126 0.931 . S
H155 C127 0.931 . S
H156 C133 0.931 . S
H157 C134 0.931 . S
H158 C136 0.931 . S
H159 C137 0.931 . S
C160 Eu161 2.835 . S
C160 C162 1.500 . S
C160 O180 1.257 . S
C160 O181 1.260 . S
Eu161 C160 2.835 . S
Eu161 O180 2.473 . S
Eu161 O181 2.480 . S
Eu161 O182 2.430 . S
Eu161 O183 2.670 . S
Eu161 O184 2.394 . S
Eu161 O189 2.355 . S
Eu161 O191 2.374 . S
C162 C160 1.500 . S
C162 C163 1.377 . S
C162 C167 1.377 . S
C163 C162 1.377 . S
C163 C164 1.395 . S
C163 H192 0.931 . S
C164 C163 1.395 . S
C164 C165 1.383 . S
C164 H193 0.931 . S
C165 C164 1.383 . S
C165 C166 1.394 . S
C166 C165 1.394 . S
C166 C167 1.378 . S
C166 H194 0.931 . S
C167 C162 1.377 . S
C167 C166 1.378 . S
C167 H195 0.931 . S
C168 O182 1.259 . S
C168 O183 1.270 . S
C169 O184 1.251 . S
C169 O185 1.251 . S
C170 Eu171 2.835 . S
C170 C172 1.500 . S
C170 O186 1.257 . S
C170 O187 1.260 . S
Eu171 C170 2.835 . S
Eu171 O183 2.355 . S
Eu171 O185 2.374 . S
Eu171 O186 2.473 . S
Eu171 O187 2.480 . S
Eu171 O188 2.430 . S
Eu171 O189 2.670 . S
Eu171 O190 2.394 . S
C172 C170 1.500 . S
C172 C173 1.377 . S
C172 C177 1.377 . S
C173 C172 1.377 . S
C173 C174 1.395 1_455 S
C173 H196 0.931 . S
C174 C173 1.395 1_655 S
C174 C175 1.383 . S
C174 H197 0.931 . S
C175 C174 1.383 . S
C175 C176 1.402 . S
C176 C175 1.402 . S
C176 C177 1.364 1_655 S
C176 H198 0.937 . S
C177 C172 1.377 . S
C177 C176 1.364 1_455 S
C177 H199 0.931 . S
C178 O188 1.259 . S
C178 O189 1.270 . S
C179 O190 1.251 . S
C179 O191 1.251 . S
O180 C160 1.257 . S
O180 Eu161 2.473 . S
O181 C160 1.260 . S
O181 Eu161 2.480 . S
O182 Eu161 2.430 . S
O182 C168 1.259 . S
O183 Eu161 2.670 . S
O183 C168 1.270 . S
O183 Eu171 2.355 . S
O184 Eu161 2.394 . S
O184 C169 1.251 . S
O185 C169 1.251 . S
O185 Eu171 2.374 . S
O186 C170 1.257 . S
O186 Eu171 2.473 . S
O187 C170 1.260 . S
O187 Eu171 2.480 . S
O188 Eu171 2.430 . S
O188 C178 1.259 . S
O189 Eu161 2.355 . S
O189 Eu171 2.670 . S
O189 C178 1.270 . S
O190 Eu171 2.394 . S
O190 C179 1.251 . S
O191 Eu161 2.374 . S
O191 C179 1.251 . S
H192 C163 0.931 . S
H193 C164 0.931 . S
H194 C166 0.931 . S
H195 C167 0.931 . S
H196 C173 0.931 . S
H197 C174 0.931 . S
H198 C176 0.937 . S
H199 C177 0.931 . S
C200 Eu201 2.835 . S
C200 C202 1.500 . S
C200 O220 1.257 . S
C200 O221 1.260 . S
Eu201 C200 2.835 . S
Eu201 O220 2.473 . S
Eu201 O221 2.480 . S
Eu201 O222 2.430 . S
Eu201 O223 2.670 . S
Eu201 O224 2.394 . S
Eu201 O229 2.355 . S
Eu201 O231 2.374 . S
C202 C200 1.500 . S
C202 C203 1.377 . S
C202 C207 1.377 . S
C203 C202 1.377 . S
C203 C204 1.395 . S
C203 H232 0.931 . S
C204 C203 1.395 . S
C204 C205 1.383 . S
C204 H233 0.931 . S
C205 C204 1.383 . S
C205 C206 1.394 . S
C206 C205 1.394 . S
C206 C207 1.378 . S
C206 H234 0.931 . S
C207 C202 1.377 . S
C207 C206 1.378 . S
C207 H235 0.931 . S
C208 O222 1.259 . S
C208 O223 1.270 . S
C209 O224 1.251 . S
C209 O225 1.251 . S
C210 Eu211 2.835 . S
C210 C212 1.500 . S
C210 O226 1.257 . S
C210 O227 1.260 . S
Eu211 C210 2.835 . S
Eu211 O223 2.355 . S
Eu211 O225 2.374 . S
Eu211 O226 2.473 . S
Eu211 O227 2.480 . S
Eu211 O228 2.430 . S
Eu211 O229 2.670 . S
Eu211 O230 2.394 . S
C212 C210 1.500 . S
C212 C213 1.377 . S
C212 C217 1.377 . S
C213 C212 1.377 . S
C213 C214 1.395 . S
C213 H236 0.931 . S
C214 C213 1.395 . S
C214 C215 1.383 . S
C214 H237 0.931 . S
C215 C214 1.383 . S
C215 C216 1.394 . S
C216 C215 1.394 . S
C216 C217 1.378 . S
C216 H238 0.931 . S
C217 C212 1.377 . S
C217 C216 1.378 . S
C217 H239 0.931 . S
C218 O228 1.259 . S
C218 O229 1.270 . S
C219 O230 1.251 . S
C219 O231 1.251 . S
O220 C200 1.257 . S
O220 Eu201 2.473 . S
O221 C200 1.260 . S
O221 Eu201 2.480 . S
O222 Eu201 2.430 . S
O222 C208 1.259 . S
O223 Eu201 2.670 . S
O223 C208 1.270 . S
O223 Eu211 2.355 . S
O224 Eu201 2.394 . S
O224 C209 1.251 . S
O225 C209 1.251 . S
O225 Eu211 2.374 . S
O226 C210 1.257 . S
O226 Eu211 2.473 . S
O227 C210 1.260 . S
O227 Eu211 2.480 . S
O228 Eu211 2.430 . S
O228 C218 1.259 . S
O229 Eu201 2.355 . S
O229 Eu211 2.670 . S
O229 C218 1.270 . S
O230 Eu211 2.394 . S
O230 C219 1.251 . S
O231 Eu201 2.374 . S
O231 C219 1.251 . S
H232 C203 0.931 . S
H233 C204 0.931 . S
H234 C206 0.931 . S
H235 C207 0.931 . S
H236 C213 0.931 . S
H237 C214 0.931 . S
H238 C216 0.931 . S
H239 C217 0.931 . S
C240 Eu241 2.835 1_565 S
C240 C242 1.500 . S
C240 O260 1.257 1_565 S
C240 O261 1.260 . S
Eu241 C240 2.835 1_545 S
Eu241 O260 2.473 . S
Eu241 O261 2.480 1_545 S
Eu241 O262 2.430 . S
Eu241 O263 2.670 . S
Eu241 O264 2.394 . S
Eu241 O269 2.355 . S
Eu241 O271 2.374 . S
C242 C240 1.500 . S
C242 C243 1.377 . S
C242 C247 1.377 . S
C243 C242 1.377 . S
C243 C244 1.395 . S
C243 H272 0.931 . S
C244 C243 1.395 . S
C244 C245 1.383 . S
C244 H273 0.931 . S
C245 C244 1.383 . S
C245 C246 1.394 . S
C246 C245 1.394 . S
C246 C247 1.378 . S
C246 H274 0.931 . S
C247 C242 1.377 . S
C247 C246 1.378 . S
C247 H275 0.931 . S
C248 O262 1.259 . S
C248 O263 1.270 . S
C249 O264 1.251 . S
C249 O265 1.251 . S
C250 Eu251 2.835 . S
C250 C252 1.500 . S
C250 O266 1.257 . S
C250 O267 1.260 . S
Eu251 C250 2.835 . S
Eu251 O263 2.355 . S
Eu251 O265 2.374 . S
Eu251 O266 2.473 . S
Eu251 O267 2.480 . S
Eu251 O268 2.430 . S
Eu251 O269 2.670 . S
Eu251 O270 2.394 . S
C252 C250 1.500 . S
C252 C253 1.377 . S
C252 C257 1.377 . S
C253 C252 1.377 . S
C253 C254 1.395 . S
C253 H276 0.931 . S
C254 C253 1.395 . S
C254 C255 1.383 . S
C254 H277 0.931 . S
C255 C254 1.383 . S
C255 C256 1.394 . S
C256 C255 1.394 . S
C256 C257 1.378 . S
C256 H278 0.931 . S
C257 C252 1.377 . S
C257 C256 1.378 . S
C257 H279 0.931 . S
C258 O268 1.259 . S
C258 O269 1.270 . S
C259 O270 1.251 . S
C259 O271 1.251 . S
O260 C240 1.257 1_545 S
O260 Eu241 2.473 . S
O261 C240 1.260 . S
O261 Eu241 2.480 1_565 S
O262 Eu241 2.430 . S
O262 C248 1.259 . S
O263 Eu241 2.670 . S
O263 C248 1.270 . S
O263 Eu251 2.355 . S
O264 Eu241 2.394 . S
O264 C249 1.251 . S
O265 C249 1.251 . S
O265 Eu251 2.374 . S
O266 C250 1.257 . S
O266 Eu251 2.473 . S
O267 C250 1.260 . S
O267 Eu251 2.480 . S
O268 Eu251 2.430 . S
O268 C258 1.259 . S
O269 Eu241 2.355 . S
O269 Eu251 2.670 . S
O269 C258 1.270 . S
O270 Eu251 2.394 . S
O270 C259 1.251 . S
O271 Eu241 2.374 . S
O271 C259 1.251 . S
H272 C243 0.931 . S
H273 C244 0.931 . S
H274 C246 0.931 . S
H275 C247 0.931 . S
H276 C253 0.931 . S
H277 C254 0.931 . S
H278 C256 0.931 . S
H279 C257 0.931 . S
C280 Eu281 2.835 1_455 S
C280 C282 1.500 . S
C280 O300 1.257 . S
C280 O301 1.260 . S
Eu281 C280 2.835 1_655 S
Eu281 O300 2.473 1_655 S
Eu281 O301 2.480 1_655 S
Eu281 O302 2.430 . S
Eu281 O303 2.670 . S
Eu281 O304 2.394 . S
Eu281 O309 2.355 . S
Eu281 O311 2.374 . S
C282 C280 1.500 . S
C282 C283 1.377 . S
C282 C287 1.377 . S
C283 C282 1.377 . S
C283 C284 1.395 . S
C283 H312 0.931 . S
C284 C283 1.395 . S
C284 C285 1.383 . S
C284 H313 0.931 . S
C285 C284 1.383 . S
C285 C286 1.394 . S
C286 C285 1.394 . S
C286 C287 1.378 . S
C286 H314 0.931 . S
C287 C282 1.377 . S
C287 C286 1.378 . S
C287 H315 0.931 . S
C288 O302 1.259 . S
C288 O303 1.270 . S
C289 O304 1.251 . S
C289 O305 1.251 . S
C290 Eu291 2.835 . S
C290 C292 1.500 . S
C290 O306 1.257 . S
C290 O307 1.260 . S
Eu291 C290 2.835 . S
Eu291 O303 2.355 . S
Eu291 O305 2.374 . S
Eu291 O306 2.473 . S
Eu291 O307 2.480 . S
Eu291 O308 2.430 . S
Eu291 O309 2.670 . S
Eu291 O310 2.394 . S
C292 C290 1.500 . S
C292 C293 1.377 . S
C292 C297 1.377 . S
C293 C292 1.377 . S
C293 C294 1.395 . S
C293 H316 0.931 . S
C294 C293 1.395 . S
C294 C295 1.383 . S
C294 H317 0.931 . S
C295 C294 1.383 . S
C295 C296 1.394 . S
C296 C295 1.394 . S
C296 C297 1.378 . S
C296 H318 0.931 . S
C297 C292 1.377 . S
C297 C296 1.378 . S
C297 H319 0.931 . S
C298 O308 1.259 . S
C298 O309 1.270 . S
C299 O310 1.251 . S
C299 O311 1.251 . S
O300 C280 1.257 . S
O300 Eu281 2.473 1_455 S
O301 C280 1.260 . S
O301 Eu281 2.480 1_455 S
O302 Eu281 2.430 . S
O302 C288 1.259 . S
O303 Eu281 2.670 . S
O303 C288 1.270 . S
O303 Eu291 2.355 . S
O304 Eu281 2.394 . S
O304 C289 1.251 . S
O305 C289 1.251 . S
O305 Eu291 2.374 . S
O306 C290 1.257 . S
O306 Eu291 2.473 . S
O307 C290 1.260 . S
O307 Eu291 2.480 . S
O308 Eu291 2.430 . S
O308 C298 1.259 . S
O309 Eu281 2.355 . S
O309 Eu291 2.670 . S
O309 C298 1.270 . S
O310 Eu291 2.394 . S
O310 C299 1.251 . S
O311 Eu281 2.374 . S
O311 C299 1.251 . S
H312 C283 0.931 . S
H313 C284 0.931 . S
H314 C286 0.931 . S
H315 C287 0.931 . S
H316 C293 0.931 . S
H317 C294 0.931 . S
H318 C296 0.931 . S
H319 C297 0.931 . S
C320 Eu321 2.835 . S
C320 C322 1.500 . S
C320 O340 1.257 . S
C320 O341 1.260 . S
Eu321 C320 2.835 . S
Eu321 O340 2.473 . S
Eu321 O341 2.480 . S
Eu321 O342 2.430 . S
Eu321 O343 2.670 . S
Eu321 O344 2.394 . S
Eu321 O349 2.355 . S
Eu321 O351 2.374 . S
C322 C320 1.500 . S
C322 C323 1.377 . S
C322 C327 1.377 . S
C323 C322 1.377 . S
C323 C324 1.395 . S
C323 H352 0.931 . S
C324 C323 1.395 . S
C324 C325 1.383 . S
C324 H353 0.931 . S
C325 C324 1.383 . S
C325 C326 1.394 . S
C326 C325 1.394 . S
C326 C327 1.378 . S
C326 H354 0.931 . S
C327 C322 1.377 . S
C327 C326 1.378 . S
C327 H355 0.931 . S
C328 O342 1.259 . S
C328 O343 1.270 . S
C329 O344 1.251 . S
C329 O345 1.251 . S
C330 Eu331 2.835 . S
C330 C332 1.500 . S
C330 O346 1.257 . S
C330 O347 1.260 . S
Eu331 C330 2.835 . S
Eu331 O343 2.355 . S
Eu331 O345 2.374 . S
Eu331 O346 2.473 . S
Eu331 O347 2.480 . S
Eu331 O348 2.430 . S
Eu331 O349 2.670 . S
Eu331 O350 2.394 . S
C332 C330 1.500 . S
C332 C333 1.377 . S
C332 C337 1.377 . S
C333 C332 1.377 . S
C333 C334 1.395 . S
C333 H356 0.931 . S
C334 C333 1.395 . S
C334 C335 1.383 . S
C334 H357 0.931 . S
C335 C334 1.383 . S
C335 C336 1.394 . S
C336 C335 1.394 . S
C336 C337 1.378 . S
C336 H358 0.931 . S
C337 C332 1.377 . S
C337 C336 1.378 . S
C337 H359 0.931 . S
C338 O348 1.259 . S
C338 O349 1.270 . S
C339 O350 1.251 . S
C339 O351 1.251 . S
O340 C320 1.257 . S
O340 Eu321 2.473 . S
O341 C320 1.260 . S
O341 Eu321 2.480 . S
O342 Eu321 2.430 . S
O342 C328 1.259 . S
O343 Eu321 2.670 . S
O343 C328 1.270 . S
O343 Eu331 2.355 . S
O344 Eu321 2.394 . S
O344 C329 1.251 . S
O345 C329 1.251 . S
O345 Eu331 2.374 . S
O346 C330 1.257 . S
O346 Eu331 2.473 . S
O347 C330 1.260 . S
O347 Eu331 2.480 . S
O348 Eu331 2.430 . S
O348 C338 1.259 . S
O349 Eu321 2.355 . S
O349 Eu331 2.670 . S
O349 C338 1.270 . S
O350 Eu331 2.394 . S
O350 C339 1.251 . S
O351 Eu321 2.374 . S
O351 C339 1.251 . S
H352 C323 0.931 . S
H353 C324 0.931 . S
H354 C326 0.931 . S
H355 C327 0.931 . S
H356 C333 0.931 . S
H357 C334 0.931 . S
H358 C336 0.931 . S
H359 C337 0.931 . S
C360 C361 1.369 1_554 S
C360 C362 1.419 . S
C360 H364 0.930 . S
C361 C360 1.369 1_556 S
C361 C370 1.429 . S
C362 C360 1.419 . S
C362 C363 1.363 1_554 S
C362 H365 0.929 . S
C363 C362 1.363 1_556 S
C363 C369 1.428 . S
H364 C360 0.930 . S
H365 C362 0.929 . S
S366 N367 1.613 . S
S366 N368 1.610 . S
N367 S366 1.613 . S
N367 C370 1.350 . S
N368 S366 1.610 . S
N368 C369 1.351 . S
C369 C363 1.428 . S
C369 N368 1.351 . S
C369 C370 1.434 . S
C370 C361 1.429 . S
C370 N367 1.350 . S
C370 C369 1.434 . S
C371 C372 1.369 1_554 S
C371 C373 1.419 . S
C371 H375 0.930 . S
C372 C371 1.369 1_556 S
C372 C381 1.429 . S
C373 C371 1.419 . S
C373 C374 1.363 1_554 S
C373 H376 0.929 . S
C374 C373 1.363 1_556 S
C374 C380 1.428 . S
H375 C371 0.930 . S
H376 C373 0.929 . S
S377 N378 1.613 . S
S377 N379 1.610 . S
N378 S377 1.613 . S
N378 C381 1.350 . S
N379 S377 1.610 . S
N379 C380 1.351 . S
C380 C374 1.428 . S
C380 N379 1.351 . S
C380 C381 1.434 . S
C381 C372 1.429 . S
C381 N378 1.350 . S
C381 C380 1.434 . S
C382 C383 1.369 1_554 S
C382 C384 1.419 . S
C382 H386 0.930 . S
C383 C382 1.369 1_556 S
C383 C392 1.429 . S
C384 C382 1.419 . S
C384 C385 1.363 1_554 S
C384 H387 0.929 . S
C385 C384 1.363 1_556 S
C385 C391 1.428 . S
H386 C382 0.930 . S
H387 C384 0.929 . S
S388 N389 1.613 . S
S388 N390 1.610 . S
N389 S388 1.613 . S
N389 C392 1.350 . S
N390 S388 1.610 . S
N390 C391 1.351 . S
C391 C385 1.428 . S
C391 N390 1.351 . S
C391 C392 1.434 . S
C392 C383 1.429 . S
C392 N389 1.350 . S
C392 C391 1.434 . S
C393 C394 1.369 1_556 S
C393 C395 1.419 . S
C393 H397 0.930 . S
C394 C393 1.369 1_554 S
C394 C403 1.429 . S
C395 C393 1.419 . S
C395 C396 1.363 1_556 S
C395 H398 0.929 . S
C396 C395 1.363 1_554 S
C396 C402 1.428 . S
H397 C393 0.930 . S
H398 C395 0.929 . S
S399 N400 1.613 . S
S399 N401 1.610 . S
N400 S399 1.613 . S
N400 C403 1.350 . S
N401 S399 1.610 . S
N401 C402 1.351 . S
C402 C396 1.428 . S
C402 N401 1.351 . S
C402 C403 1.434 . S
C403 C394 1.429 . S
C403 N400 1.350 . S
C403 C402 1.434 . S
C404 C405 1.369 . S
C404 C406 1.419 . S
C404 H408 0.930 . S
C405 C404 1.369 . S
C405 C414 1.429 . S
C406 C404 1.419 . S
C406 C407 1.363 . S
C406 H409 0.929 . S
C407 C406 1.363 . S
C407 C413 1.428 . S
H408 C404 0.930 . S
H409 C406 0.929 . S
S410 N411 1.613 1_556 S
S410 N412 1.612 . S
N411 S410 1.613 1_554 S
N411 C414 1.350 . S
N412 S410 1.612 . S
N412 C413 1.348 1_556 S
C413 C407 1.428 . S
C413 N412 1.348 1_554 S
C413 C414 1.434 . S
C414 C405 1.429 . S
C414 N411 1.350 . S
C414 C413 1.434 . S
C415 C416 1.369 1_556 S
C415 C417 1.419 . S
C415 H419 0.930 . S
C416 C415 1.369 1_554 S
C416 C425 1.429 . S
C417 C415 1.419 . S
C417 C418 1.363 1_556 S
C417 H420 0.929 . S
C418 C417 1.363 1_554 S
C418 C424 1.428 . S
H419 C415 0.930 . S
H420 C417 0.929 . S
S421 N422 1.613 . S
S421 N423 1.610 . S
N422 S421 1.613 . S
N422 C425 1.350 . S
N423 S421 1.610 . S
N423 C424 1.351 . S
C424 C418 1.428 . S
C424 N423 1.351 . S
C424 C425 1.434 . S
C425 C416 1.429 . S
C425 N422 1.350 . S
C425 C424 1.434 . S
C426 C427 1.369 . S
C426 C428 1.419 . S
C426 H430 0.930 . S
C427 C426 1.369 . S
C427 C436 1.429 . S
C428 C426 1.419 . S
C428 C429 1.363 . S
C428 H431 0.929 . S
C429 C428 1.363 . S
C429 C435 1.428 . S
H430 C426 0.930 . S
H431 C428 0.929 . S
S432 N433 1.613 . S
S432 N434 1.610 . S
N433 S432 1.613 . S
N433 C436 1.350 . S
N434 S432 1.610 . S
N434 C435 1.351 . S
C435 C429 1.428 . S
C435 N434 1.351 . S
C435 C436 1.434 . S
C436 C427 1.429 . S
C436 N433 1.350 . S
C436 C435 1.434 . S
C437 C438 1.369 . S
C437 C439 1.419 . S
C437 H441 0.930 . S
C438 C437 1.369 . S
C438 C447 1.429 1_545 S
C439 C437 1.419 . S
C439 C440 1.363 . S
C439 H442 0.929 . S
C440 C439 1.363 . S
C440 C446 1.428 1_545 S
H441 C437 0.930 . S
H442 C439 0.929 . S
S443 N444 1.613 . S
S443 N445 1.610 . S
N444 S443 1.613 . S
N444 C447 1.350 . S
N445 S443 1.610 . S
N445 C446 1.351 . S
C446 C440 1.428 1_565 S
C446 N445 1.351 . S
C446 C447 1.434 . S
C447 C438 1.429 1_565 S
C447 N444 1.350 . S
C447 C446 1.434 . S
C448 C449 1.369 . S
C448 C450 1.414 . S
C448 H452 0.930 . S
C449 C448 1.369 . S
C449 C458 1.429 1_455 S
C450 C448 1.414 . S
C450 C451 1.356 1_455 S
C450 H453 0.942 . S
C451 C450 1.356 1_655 S
C451 C457 1.428 . S
H452 C448 0.930 . S
H453 C450 0.942 . S
S454 N455 1.613 . S
S454 N456 1.610 . S
N455 S454 1.613 . S
N455 C458 1.350 . S
N456 S454 1.610 . S
N456 C457 1.351 . S
C457 C451 1.428 . S
C457 N456 1.351 . S
C457 C458 1.434 . S
C458 C449 1.429 1_655 S
C458 N455 1.350 . S
C458 C457 1.434 . S
C459 C460 1.369 . S
C459 C461 1.419 . S
C459 H463 0.930 . S
C460 C459 1.369 . S
C460 C469 1.429 . S
C461 C459 1.419 . S
C461 C462 1.363 . S
C461 H464 0.929 . S
C462 C461 1.363 . S
C462 C468 1.428 . S
H463 C459 0.930 . S
H464 C461 0.929 . S
S465 N466 1.613 . S
S465 N467 1.610 . S
N466 S465 1.613 . S
N466 C469 1.350 . S
N467 S465 1.610 . S
N467 C468 1.351 . S
C468 C462 1.428 . S
C468 N467 1.351 . S
C468 C469 1.434 . S
C469 C460 1.429 . S
C469 N466 1.350 . S
C469 C468 1.434 . S
C470 C471 1.369 . S
C470 C472 1.419 . S
C470 H474 0.930 . S
C471 C470 1.369 . S
C471 C480 1.429 . S
C472 C470 1.419 . S
C472 C473 1.363 . S
C472 H475 0.929 . S
C473 C472 1.363 . S
C473 C479 1.428 . S
H474 C470 0.930 . S
H475 C472 0.929 . S
S476 N477 1.613 . S
S476 N478 1.610 . S
N477 S476 1.613 . S
N477 C480 1.350 . S
N478 S476 1.610 . S
N478 C479 1.351 . S
C479 C473 1.428 . S
C479 N478 1.351 . S
C479 C480 1.434 . S
C480 C471 1.429 . S
C480 N477 1.350 . S
C480 C479 1.434 . S
C481 C482 1.369 . S
C481 C483 1.419 . S
C481 H485 0.930 . S
C482 C481 1.369 . S
C482 C491 1.429 . S
C483 C481 1.419 . S
C483 C484 1.363 . S
C483 H486 0.929 . S
C484 C483 1.363 . S
C484 C490 1.428 . S
H485 C481 0.930 . S
H486 C483 0.929 . S
S487 N488 1.613 . S
S487 N489 1.610 . S
N488 S487 1.613 . S
N488 C491 1.350 . S
N489 S487 1.610 . S
N489 C490 1.351 . S
C490 C484 1.428 . S
C490 N489 1.351 . S
C490 C491 1.434 . S
C491 C482 1.429 . S
C491 N488 1.350 . S
C491 C490 1.434 . S
C492 C493 1.369 . S
C492 C494 1.419 . S
C492 H496 0.930 . S
C493 C492 1.369 . S
C493 C502 1.429 . S
C494 C492 1.419 . S
C494 C495 1.363 . S
C494 H497 0.929 . S
C495 C494 1.363 . S
C495 C501 1.428 . S
H496 C492 0.930 . S
H497 C494 0.929 . S
S498 N499 1.613 . S
S498 N500 1.610 . S
N499 S498 1.613 . S
N499 C502 1.350 . S
N500 S498 1.610 . S
N500 C501 1.351 . S
C501 C495 1.428 . S
C501 N500 1.351 . S
C501 C502 1.434 . S
C502 C493 1.429 . S
C502 N499 1.350 . S
C502 C501 1.434 . S
C503 C504 1.369 . S
C503 C505 1.419 . S
C503 H507 0.930 . S
C504 C503 1.369 . S
C504 C513 1.429 . S
C505 C503 1.419 . S
C505 C506 1.363 . S
C505 H508 0.929 . S
C506 C505 1.363 . S
C506 C512 1.428 . S
H507 C503 0.930 . S
H508 C505 0.929 . S
S509 N510 1.613 . S
S509 N511 1.610 . S
N510 S509 1.613 . S
N510 C513 1.350 . S
N511 S509 1.610 . S
N511 C512 1.351 . S
C512 C506 1.428 . S
C512 N511 1.351 . S
C512 C513 1.434 . S
C513 C504 1.429 . S
C513 N510 1.350 . S
C513 C512 1.434 . S
C514 C515 1.369 . S
C514 C516 1.419 . S
C514 H518 0.930 . S
C515 C514 1.369 . S
C515 C524 1.429 . S
C516 C514 1.419 . S
C516 C517 1.363 . S
C516 H519 0.929 . S
C517 C516 1.363 . S
C517 C523 1.428 . S
H518 C514 0.930 . S
H519 C516 0.929 . S
S520 N521 1.613 . S
S520 N522 1.610 . S
N521 S520 1.613 . S
N521 C524 1.350 . S
N522 S520 1.610 . S
N522 C523 1.351 . S
C523 C517 1.428 . S
C523 N522 1.351 . S
C523 C524 1.434 . S
C524 C515 1.429 . S
C524 N521 1.350 . S
C524 C523 1.434 . S
C525 C526 1.369 1_545 S
C525 C527 1.419 . S
C525 H529 0.930 . S
C526 C525 1.369 1_565 S
C526 C535 1.429 1_565 S
C527 C525 1.419 . S
C527 C528 1.363 . S
C527 H530 0.929 . S
C528 C527 1.363 . S
C528 C534 1.428 . S
H529 C525 0.930 . S
H530 C527 0.929 . S
S531 N532 1.613 . S
S531 N533 1.610 . S
N532 S531 1.613 . S
N532 C535 1.350 . S
N533 S531 1.610 . S
N533 C534 1.351 . S
C534 C528 1.428 . S
C534 N533 1.351 . S
C534 C535 1.434 . S
C535 C526 1.429 1_545 S
C535 N532 1.350 . S
C535 C534 1.434 . S
C536 C537 1.369 . S
C536 C538 1.419 . S
C536 H540 0.930 . S
C537 C536 1.369 . S
C537 C546 1.429 . S
C538 C536 1.419 . S
C538 C539 1.363 1_655 S
C538 H541 0.929 . S
C539 C538 1.363 1_455 S
C539 C545 1.428 1_455 S
H540 C536 0.930 . S
H541 C538 0.929 . S
S542 N543 1.613 . S
S542 N544 1.610 1_655 S
N543 S542 1.613 . S
N543 C546 1.350 . S
N544 S542 1.610 1_455 S
N544 C545 1.351 1_455 S
C545 C539 1.428 1_655 S
C545 N544 1.351 1_655 S
C545 C546 1.434 . S
C546 C537 1.429 . S
C546 N543 1.350 . S
C546 C545 1.434 . S
C547 C548 1.369 . S
C547 C549 1.419 . S
C547 H551 0.930 . S
C548 C547 1.369 . S
C548 C557 1.429 . S
C549 C547 1.419 . S
C549 C550 1.363 . S
C549 H552 0.929 . S
C550 C549 1.363 . S
C550 C556 1.428 . S
H551 C547 0.930 . S
H552 C549 0.929 . S
S553 N554 1.613 . S
S553 N555 1.610 . S
N554 S553 1.613 . S
N554 C557 1.350 . S
N555 S553 1.610 . S
N555 C556 1.351 . S
C556 C550 1.428 . S
C556 N555 1.351 . S
C556 C557 1.434 . S
C557 C548 1.429 . S
C557 N554 1.350 . S
C557 C556 1.434 . S
C558 C559 1.369 . S
C558 C560 1.419 . S
C558 H562 0.930 . S
C559 C558 1.369 . S
C559 C568 1.429 . S
C560 C558 1.419 . S
C560 C561 1.363 . S
C560 H563 0.929 . S
C561 C560 1.363 . S
C561 C567 1.428 . S
H562 C558 0.930 . S
H563 C560 0.929 . S
S564 N565 1.613 . S
S564 N566 1.610 . S
N565 S564 1.613 . S
N565 C568 1.350 . S
N566 S564 1.610 . S
N566 C567 1.351 . S
C567 C561 1.428 . S
C567 N566 1.351 . S
C567 C568 1.434 . S
C568 C559 1.429 . S
C568 N565 1.350 . S
C568 C567 1.434 . S
C569 C570 1.369 . S
C569 C571 1.419 . S
C569 H573 0.930 . S
C570 C569 1.369 . S
C570 C579 1.429 . S
C571 C569 1.419 . S
C571 C572 1.363 . S
C571 H574 0.929 . S
C572 C571 1.363 . S
C572 C578 1.428 . S
H573 C569 0.930 . S
H574 C571 0.929 . S
S575 N576 1.613 . S
S575 N577 1.610 . S
N576 S575 1.613 . S
N576 C579 1.350 . S
N577 S575 1.610 . S
N577 C578 1.351 . S
C578 C572 1.428 . S
C578 N577 1.351 . S
C578 C579 1.434 . S
C579 C570 1.429 . S
C579 N576 1.350 . S
C579 C578 1.434 . S
C580 C581 1.369 . S
C580 C582 1.419 . S
C580 H584 0.930 . S
C581 C580 1.369 . S
C581 C590 1.429 . S
C582 C580 1.419 . S
C582 C583 1.363 . S
C582 H585 0.929 . S
C583 C582 1.363 . S
C583 C589 1.428 . S
H584 C580 0.930 . S
H585 C582 0.929 . S
S586 N587 1.613 . S
S586 N588 1.610 1_545 S
N587 S586 1.613 . S
N587 C590 1.350 1_545 S
N588 S586 1.610 1_565 S
N588 C589 1.351 . S
C589 C583 1.428 . S
C589 N588 1.351 . S
C589 C590 1.434 . S
C590 C581 1.429 . S
C590 N587 1.350 1_565 S
C590 C589 1.434 . S
C591 C592 1.369 . S
C591 C593 1.419 . S
C591 H595 0.930 . S
C592 C591 1.369 . S
C592 C601 1.429 . S
C593 C591 1.419 . S
C593 C594 1.363 . S
C593 H596 0.929 . S
C594 C593 1.363 . S
C594 C600 1.428 . S
H595 C591 0.930 . S
H596 C593 0.929 . S
S597 N598 1.613 . S
S597 N599 1.610 . S
N598 S597 1.613 . S
N598 C601 1.350 . S
N599 S597 1.610 . S
N599 C600 1.351 . S
C600 C594 1.428 . S
C600 N599 1.351 . S
C600 C601 1.434 . S
C601 C592 1.429 . S
C601 N598 1.350 . S
C601 C600 1.434 . S
C602 C603 1.369 . S
C602 C604 1.419 . S
C602 H606 0.930 . S
C603 C602 1.369 . S
C603 C612 1.429 . S
C604 C602 1.419 . S
C604 C605 1.363 . S
C604 H607 0.929 . S
C605 C604 1.363 . S
C605 C611 1.428 . S
H606 C602 0.930 . S
H607 C604 0.929 . S
S608 N609 1.613 . S
S608 N610 1.610 . S
N609 S608 1.613 . S
N609 C612 1.350 . S
N610 S608 1.610 . S
N610 C611 1.351 . S
C611 C605 1.428 . S
C611 N610 1.351 . S
C611 C612 1.434 . S
C612 C603 1.429 . S
C612 N609 1.350 . S
C612 C611 1.434 . S
C613 C614 1.369 . S
C613 C615 1.419 . S
C613 H617 0.930 . S
C614 C613 1.369 . S
C614 C623 1.429 . S
C615 C613 1.419 . S
C615 C616 1.363 . S
C615 H618 0.929 . S
C616 C615 1.363 . S
C616 C622 1.428 . S
H617 C613 0.930 . S
H618 C615 0.929 . S
S619 N620 1.613 . S
S619 N621 1.610 . S
N620 S619 1.613 . S
N620 C623 1.350 . S
N621 S619 1.610 . S
N621 C622 1.351 . S
C622 C616 1.428 . S
C622 N621 1.351 . S
C622 C623 1.434 . S
C623 C614 1.429 . S
C623 N620 1.350 . S
C623 C622 1.434 . S
C624 C625 1.369 . S
C624 C626 1.419 . S
C624 H628 0.930 . S
C625 C624 1.369 . S
C625 C634 1.429 . S
C626 C624 1.419 . S
C626 C627 1.363 . S
C626 H629 0.929 . S
C627 C626 1.363 . S
C627 C633 1.428 . S
H628 C624 0.930 . S
H629 C626 0.929 . S
S630 N631 1.613 . S
S630 N632 1.610 . S
N631 S630 1.613 . S
N631 C634 1.350 . S
N632 S630 1.610 . S
N632 C633 1.351 . S
C633 C627 1.428 . S
C633 N632 1.351 . S
C633 C634 1.434 . S
C634 C625 1.429 . S
C634 N631 1.350 . S
C634 C633 1.434 . S
C635 C636 1.369 . S
C635 C637 1.419 1_565 S
C635 H639 0.930 . S
C636 C635 1.369 . S
C636 C645 1.429 . S
C637 C635 1.419 1_545 S
C637 C638 1.363 . S
C637 H640 0.929 . S
C638 C637 1.363 . S
C638 C644 1.428 . S
H639 C635 0.930 . S
H640 C637 0.929 . S
S641 N642 1.613 1_545 S
S641 N643 1.610 . S
N642 S641 1.613 1_565 S
N642 C645 1.350 . S
N643 S641 1.610 . S
N643 C644 1.351 . S
C644 C638 1.428 . S
C644 N643 1.351 . S
C644 C645 1.434 1_545 S
C645 C636 1.429 . S
C645 N642 1.350 . S
C645 C644 1.434 1_565 S
C646 C647 1.369 . S
C646 C648 1.419 1_655 S
C646 H650 0.930 . S
C647 C646 1.369 . S
C647 C656 1.429 . S
C648 C646 1.419 1_455 S
C648 C649 1.363 . S
C648 H651 0.929 . S
C649 C648 1.363 . S
C649 C655 1.428 . S
H650 C646 0.930 . S
H651 C648 0.929 . S
S652 N653 1.613 1_455 S
S652 N654 1.610 . S
N653 S652 1.613 1_655 S
N653 C656 1.350 . S
N654 S652 1.610 . S
N654 C655 1.351 . S
C655 C649 1.428 . S
C655 N654 1.351 . S
C655 C656 1.434 1_455 S
C656 C647 1.429 . S
C656 N653 1.350 . S
C656 C655 1.434 1_655 S
C361 C55 1.710 . S
C363 C19 1.763 . S
C372 C95 1.710 . S
C374 C59 1.764 . S
C383 C99 1.766 . S
C385 C15 1.707 . S
C394 C85 1.526 . S
C396 C49 1.467 . S
C405 C89 1.466 . S
C407 C5 1.526 . S
C416 C9 1.473 . S
C418 C45 1.520 . S
C427 C139 1.762 . S
C429 C175 1.711 . S
C438 C215 1.714 . S
C440 C179 1.761 1_545 S
C449 C219 1.766 . S
C451 C135 1.708 . S
C460 C169 1.470 . S
C462 C205 1.523 . S
C471 C209 1.477 . S
C473 C125 1.518 . S
C482 C165 1.518 . S
C484 C129 1.474 . S
C493 C295 1.714 . S
C495 C259 1.761 . S
C504 C299 1.760 . S
C506 C335 1.712 . S
C515 C339 1.761 . S
C517 C255 1.712 . S
C526 C325 1.522 . S
C528 C289 1.472 . S
C537 C329 1.477 . S
C539 C245 1.519 . S
C548 C249 1.467 . S
C550 C285 1.524 . S
C559 C218 2.704 . S
C561 C8 2.230 . S
C570 C138 2.701 . S
C572 C48 2.237 . S
C581 C88 2.227 1_565 S
C583 C178 2.703 . S
C592 C98 2.700 . S
C594 C248 2.234 . S
C603 C18 2.700 . S
C605 C288 2.237 . S
C614 C328 2.236 . S
C616 C58 2.702 . S
C625 C128 2.228 . S
C627 C338 2.703 . S
C636 C168 2.230 . S
C638 C258 2.703 . S
C647 C298 2.701 . S
C649 C208 2.237 . S
