# Generated by pormake.
# Topology ukj, (4)-cn, num edge types: 1
# Building blocks:
#     Node 0, Type 0, BuildingBlock: NAWXER_clean_sbu_0, # of connection points: 4
#     Node 1, Type 0, BuildingBlock: NAWXER_clean_sbu_0, # of connection points: 4
#     Node 2, Type 0, BuildingBlock: NAWXER_clean_sbu_0, # of connection points: 4
#     Node 3, Type 0, BuildingBlock: NAWXER_clean_sbu_0, # of connection points: 4
#     Node 4, Type 0, BuildingBlock: NAWXER_clean_sbu_0, # of connection points: 4
#     Node 5, Type 0, BuildingBlock: NAWXER_clean_sbu_0, # of connection points: 4
#     Node 6, Type 0, BuildingBlock: NAWXER_clean_sbu_0, # of connection points: 4
#     Node 7, Type 0, BuildingBlock: NAWXER_clean_sbu_0, # of connection points: 4
#     Node 8, Type 0, BuildingBlock: NAWXER_clean_sbu_0, # of connection points: 4
#     Node 9, Type 0, BuildingBlock: NAWXER_clean_sbu_0, # of connection points: 4
#     Node 10, Type 0, BuildingBlock: NAWXER_clean_sbu_0, # of connection points: 4
#     Node 11, Type 0, BuildingBlock: NAWXER_clean_sbu_0, # of connection points: 4
#     Node 12, Type 0, BuildingBlock: NAWXER_clean_sbu_0, # of connection points: 4
#     Node 13, Type 0, BuildingBlock: NAWXER_clean_sbu_0, # of connection points: 4
#     Node 14, Type 0, BuildingBlock: NAWXER_clean_sbu_0, # of connection points: 4
#     Node 15, Type 0, BuildingBlock: NAWXER_clean_sbu_0, # of connection points: 4
#     Node 16, Type 0, BuildingBlock: NAWXER_clean_sbu_0, # of connection points: 4
#     Node 17, Type 0, BuildingBlock: NAWXER_clean_sbu_0, # of connection points: 4
#     Node 18, Type 0, BuildingBlock: NAWXER_clean_sbu_0, # of connection points: 4
#     Node 19, Type 0, BuildingBlock: NAWXER_clean_sbu_0, # of connection points: 4
#     Node 20, Type 0, BuildingBlock: NAWXER_clean_sbu_0, # of connection points: 4
#     Node 21, Type 0, BuildingBlock: NAWXER_clean_sbu_0, # of connection points: 4
#     Node 22, Type 0, BuildingBlock: NAWXER_clean_sbu_0, # of connection points: 4
#     Node 23, Type 0, BuildingBlock: NAWXER_clean_sbu_0, # of connection points: 4
#     Node 24, Type 0, BuildingBlock: NAWXER_clean_sbu_0, # of connection points: 4
#     Node 25, Type 0, BuildingBlock: NAWXER_clean_sbu_0, # of connection points: 4
#     Node 26, Type 0, BuildingBlock: NAWXER_clean_sbu_0, # of connection points: 4
#     Node 27, Type 0, BuildingBlock: NAWXER_clean_sbu_0, # of connection points: 4
#     Node 28, Type 0, BuildingBlock: NAWXER_clean_sbu_0, # of connection points: 4
#     Node 29, Type 0, BuildingBlock: NAWXER_clean_sbu_0, # of connection points: 4
#     Node 30, Type 0, BuildingBlock: NAWXER_clean_sbu_0, # of connection points: 4
#     Node 31, Type 0, BuildingBlock: NAWXER_clean_sbu_0, # of connection points: 4
#     Edge 32, Type (0, 0), BuildingBlock: UVAHIK_clean_linker_0, # of connection points: 2
#     Edge 33, Type (0, 0), BuildingBlock: UVAHIK_clean_linker_0, # of connection points: 2
#     Edge 34, Type (0, 0), BuildingBlock: UVAHIK_clean_linker_0, # of connection points: 2
#     Edge 35, Type (0, 0), BuildingBlock: UVAHIK_clean_linker_0, # of connection points: 2
#     Edge 36, Type (0, 0), BuildingBlock: UVAHIK_clean_linker_0, # of connection points: 2
#     Edge 37, Type (0, 0), BuildingBlock: UVAHIK_clean_linker_0, # of connection points: 2
#     Edge 38, Type (0, 0), BuildingBlock: UVAHIK_clean_linker_0, # of connection points: 2
#     Edge 39, Type (0, 0), BuildingBlock: UVAHIK_clean_linker_0, # of connection points: 2
#     Edge 40, Type (0, 0), BuildingBlock: UVAHIK_clean_linker_0, # of connection points: 2
#     Edge 41, Type (0, 0), BuildingBlock: UVAHIK_clean_linker_0, # of connection points: 2
#     Edge 42, Type (0, 0), BuildingBlock: UVAHIK_clean_linker_0, # of connection points: 2
#     Edge 43, Type (0, 0), BuildingBlock: UVAHIK_clean_linker_0, # of connection points: 2
#     Edge 44, Type (0, 0), BuildingBlock: UVAHIK_clean_linker_0, # of connection points: 2
#     Edge 45, Type (0, 0), BuildingBlock: UVAHIK_clean_linker_0, # of connection points: 2
#     Edge 46, Type (0, 0), BuildingBlock: UVAHIK_clean_linker_0, # of connection points: 2
#     Edge 47, Type (0, 0), BuildingBlock: UVAHIK_clean_linker_0, # of connection points: 2
#     Edge 48, Type (0, 0), BuildingBlock: UVAHIK_clean_linker_0, # of connection points: 2
#     Edge 49, Type (0, 0), BuildingBlock: UVAHIK_clean_linker_0, # of connection points: 2
#     Edge 50, Type (0, 0), BuildingBlock: UVAHIK_clean_linker_0, # of connection points: 2
#     Edge 51, Type (0, 0), BuildingBlock: UVAHIK_clean_linker_0, # of connection points: 2
#     Edge 52, Type (0, 0), BuildingBlock: UVAHIK_clean_linker_0, # of connection points: 2
#     Edge 53, Type (0, 0), BuildingBlock: UVAHIK_clean_linker_0, # of connection points: 2
#     Edge 54, Type (0, 0), BuildingBlock: UVAHIK_clean_linker_0, # of connection points: 2
#     Edge 55, Type (0, 0), BuildingBlock: UVAHIK_clean_linker_0, # of connection points: 2
#     Edge 56, Type (0, 0), BuildingBlock: UVAHIK_clean_linker_0, # of connection points: 2
#     Edge 57, Type (0, 0), BuildingBlock: UVAHIK_clean_linker_0, # of connection points: 2
#     Edge 58, Type (0, 0), BuildingBlock: UVAHIK_clean_linker_0, # of connection points: 2
#     Edge 59, Type (0, 0), BuildingBlock: UVAHIK_clean_linker_0, # of connection points: 2
#     Edge 60, Type (0, 0), BuildingBlock: UVAHIK_clean_linker_0, # of connection points: 2
#     Edge 61, Type (0, 0), BuildingBlock: UVAHIK_clean_linker_0, # of connection points: 2
#     Edge 62, Type (0, 0), BuildingBlock: UVAHIK_clean_linker_0, # of connection points: 2
#     Edge 63, Type (0, 0), BuildingBlock: UVAHIK_clean_linker_0, # of connection points: 2
#     Edge 64, Type (0, 0), BuildingBlock: UVAHIK_clean_linker_0, # of connection points: 2
#     Edge 65, Type (0, 0), BuildingBlock: UVAHIK_clean_linker_0, # of connection points: 2
#     Edge 66, Type (0, 0), BuildingBlock: UVAHIK_clean_linker_0, # of connection points: 2
#     Edge 67, Type (0, 0), BuildingBlock: UVAHIK_clean_linker_0, # of connection points: 2
#     Edge 68, Type (0, 0), BuildingBlock: UVAHIK_clean_linker_0, # of connection points: 2
#     Edge 69, Type (0, 0), BuildingBlock: UVAHIK_clean_linker_0, # of connection points: 2
#     Edge 70, Type (0, 0), BuildingBlock: UVAHIK_clean_linker_0, # of connection points: 2
#     Edge 71, Type (0, 0), BuildingBlock: UVAHIK_clean_linker_0, # of connection points: 2
#     Edge 72, Type (0, 0), BuildingBlock: UVAHIK_clean_linker_0, # of connection points: 2
#     Edge 73, Type (0, 0), BuildingBlock: UVAHIK_clean_linker_0, # of connection points: 2
#     Edge 74, Type (0, 0), BuildingBlock: UVAHIK_clean_linker_0, # of connection points: 2
#     Edge 75, Type (0, 0), BuildingBlock: UVAHIK_clean_linker_0, # of connection points: 2
#     Edge 76, Type (0, 0), BuildingBlock: UVAHIK_clean_linker_0, # of connection points: 2
#     Edge 77, Type (0, 0), BuildingBlock: UVAHIK_clean_linker_0, # of connection points: 2
#     Edge 78, Type (0, 0), BuildingBlock: UVAHIK_clean_linker_0, # of connection points: 2
#     Edge 79, Type (0, 0), BuildingBlock: UVAHIK_clean_linker_0, # of connection points: 2
#     Edge 80, Type (0, 0), BuildingBlock: UVAHIK_clean_linker_0, # of connection points: 2
#     Edge 81, Type (0, 0), BuildingBlock: UVAHIK_clean_linker_0, # of connection points: 2
#     Edge 82, Type (0, 0), BuildingBlock: UVAHIK_clean_linker_0, # of connection points: 2
#     Edge 83, Type (0, 0), BuildingBlock: UVAHIK_clean_linker_0, # of connection points: 2
#     Edge 84, Type (0, 0), BuildingBlock: UVAHIK_clean_linker_0, # of connection points: 2
#     Edge 85, Type (0, 0), BuildingBlock: UVAHIK_clean_linker_0, # of connection points: 2
#     Edge 86, Type (0, 0), BuildingBlock: UVAHIK_clean_linker_0, # of connection points: 2
#     Edge 87, Type (0, 0), BuildingBlock: UVAHIK_clean_linker_0, # of connection points: 2
#     Edge 88, Type (0, 0), BuildingBlock: UVAHIK_clean_linker_0, # of connection points: 2
#     Edge 89, Type (0, 0), BuildingBlock: UVAHIK_clean_linker_0, # of connection points: 2
#     Edge 90, Type (0, 0), BuildingBlock: UVAHIK_clean_linker_0, # of connection points: 2
#     Edge 91, Type (0, 0), BuildingBlock: UVAHIK_clean_linker_0, # of connection points: 2
#     Edge 92, Type (0, 0), BuildingBlock: UVAHIK_clean_linker_0, # of connection points: 2
#     Edge 93, Type (0, 0), BuildingBlock: UVAHIK_clean_linker_0, # of connection points: 2
#     Edge 94, Type (0, 0), BuildingBlock: UVAHIK_clean_linker_0, # of connection points: 2
#     Edge 95, Type (0, 0), BuildingBlock: UVAHIK_clean_linker_0, # of connection points: 2
# Relax obj value: 0.006
# Max RMSD: 0.183
# Mean RMSD: 0.183
data_MOF--net-ukj--node1-NAWXER_clean_sbu_0--edge1-UVAHIK_clean_linker_0
_symmetry_space_group_name_H-M    P1
_symmetry_Int_Tables_number       1
_symmetry_cell_setting            triclinic
loop_
_symmetry_equiv_pos_as_xyz
'x, y, z'
_cell_length_a     45.280893
_cell_length_b     70.415073
_cell_length_c     75.974168
_cell_angle_alpha  89.997001
_cell_angle_beta   90.000326
_cell_angle_gamma 89.999979
loop_
_atom_site_label
_atom_site_type_symbol
_atom_site_fract_x
_atom_site_fract_y
_atom_site_fract_z
_atom_type_partial_charge
C0 C 0.15633 0.35472 0.28131 0.0
C1 C 0.15408 0.34983 0.21752 0.0
O2 O 0.16769 0.33904 0.27598 0.0
Zn3 Zn 0.17655 0.32562 0.25094 0.0
O4 O 0.1468 0.36662 0.27012 0.0
Zn5 Zn 0.15602 0.35228 0.24937 0.0
O6 O 0.12636 0.32807 0.25089 0.0
O7 O 0.15445 0.30252 0.25262 0.0
O8 O 0.14575 0.36353 0.22719 0.0
O9 O 0.16572 0.33507 0.22462 0.0
O10 O 0.21892 0.32343 0.25051 0.0
O11 O 0.20357 0.35306 0.24889 0.0
C12 C 0.12889 0.30993 0.25203 0.0
C13 C 0.2248 0.34101 0.24941 0.0
C14 C 0.09387 0.89612 0.28126 0.0
C15 C 0.0976 0.90035 0.2174 0.0
O16 O 0.0815 0.91135 0.2756 0.0
Zn17 Zn 0.07335 0.92452 0.25038 0.0
O18 O 0.10503 0.88453 0.27032 0.0
Zn19 Zn 0.09519 0.89823 0.24928 0.0
O20 O 0.12365 0.9229 0.25071 0.0
O21 O 0.09464 0.94802 0.25211 0.0
O22 O 0.10639 0.88692 0.22725 0.0
O23 O 0.08513 0.91494 0.22428 0.0
O24 O 0.03101 0.92602 0.24945 0.0
O25 O 0.04759 0.89661 0.2485 0.0
C26 C 0.12046 0.94099 0.2517 0.0
C27 C 0.02587 0.90832 0.24862 0.0
C28 C 0.15799 0.89579 0.96719 0.0
C29 C 0.15457 0.90047 0.03096 0.0
O30 O 0.16912 0.91151 0.97261 0.0
Zn31 Zn 0.17746 0.92487 0.99775 0.0
O32 O 0.14841 0.88383 0.9783 0.0
Zn33 Zn 0.15714 0.89815 -0.00088 0.0
O34 O 0.1273 0.92227 0.99749 0.0
O35 O 0.15522 0.94791 0.99601 0.0
O36 O 0.14658 0.88678 0.0212 0.0
O37 O 0.16621 0.9153 0.02399 0.0
O38 O 0.2198 0.92722 0.99845 0.0
O39 O 0.20468 0.89754 -8e-05 0.0
C40 C 0.12972 0.94042 0.99642 0.0
C41 C 0.22582 0.90966 -0.00044 0.0
C42 C 0.12081 0.30957 0.99651 0.0
C43 C 0.02603 0.34199 -0.00016 0.0
O44 O 0.12391 0.32766 0.9976 0.0
Zn45 Zn 0.09528 0.35226 -0.00083 0.0
O46 O 0.09503 0.30249 0.99609 0.0
Zn47 Zn 0.07362 0.32593 0.99798 0.0
O48 O 0.08166 0.33925 0.97281 0.0
O49 O 0.105 0.36611 0.97821 0.0
O50 O 0.03128 0.32431 0.99894 0.0
O51 O 0.04768 0.35376 -1e-05 0.0
O52 O 0.10648 0.3635 0.0212 0.0
O53 O 0.0855 0.33539 0.02412 0.0
C54 C 0.09392 0.35454 0.96722 0.0
C55 C 0.09789 0.35 0.03102 0.0
C56 C 0.84629 0.65021 0.78078 0.0
C57 C 0.84407 0.64554 0.71699 0.0
O58 O 0.85473 0.63659 0.77105 0.0
Zn59 Zn 0.84441 0.64791 0.74892 0.0
O60 O 0.83456 0.66497 0.77374 0.0
Zn61 Zn 0.82373 0.67452 0.74744 0.0
O62 O 0.78135 0.67663 0.74786 0.0
O63 O 0.79685 0.64703 0.7494 0.0
O64 O 0.83263 0.66119 0.72234 0.0
O65 O 0.8537 0.63365 0.72815 0.0
O66 O 0.87393 0.67219 0.74748 0.0
O67 O 0.8457 0.69768 0.74582 0.0
C68 C 0.77556 0.65903 0.74891 0.0
C69 C 0.8713 0.69033 0.7464 0.0
C70 C 0.87991 0.05979 0.74661 0.0
C71 C 0.97511 0.09173 0.74989 0.0
O72 O 0.90561 0.05257 0.74618 0.0
Zn73 Zn 0.92733 0.07589 0.74808 0.0
O74 O 0.87704 0.07789 0.7477 0.0
Zn75 Zn 0.90598 0.10233 0.74929 0.0
O76 O 0.89642 0.11626 0.72836 0.0
O77 O 0.91947 0.08931 0.72291 0.0
O78 O 0.95359 0.10359 0.75006 0.0
O79 O 0.96967 0.07407 0.74903 0.0
O80 O 0.91558 0.08539 0.77422 0.0
O81 O 0.89498 0.11362 0.77132 0.0
C82 C 0.90739 0.10468 0.71736 0.0
C83 C 0.90339 0.10007 0.78113 0.0
C84 C 0.84359 0.1043 0.03125 0.0
C85 C 0.84616 0.09963 0.96748 0.0
O86 O 0.8533 0.11619 0.02011 0.0
Zn87 Zn 0.84406 0.10196 -0.00067 0.0
O88 O 0.83212 0.08867 0.02587 0.0
Zn89 Zn 0.82328 0.07537 0.00077 0.0
O90 O 0.84517 0.05217 0.00241 0.0
O91 O 0.87348 0.07763 0.00084 0.0
O92 O 0.83433 0.08489 0.97451 0.0
O93 O 0.85458 0.11325 0.97721 0.0
O94 O 0.79653 0.10293 0.99875 0.0
O95 O 0.78089 0.07335 0.00025 0.0
C96 C 0.87079 0.05949 0.0019 0.0
C97 C 0.77518 0.09096 -0.00081 0.0
C98 C 0.90276 0.64945 0.96724 0.0
C99 C 0.90674 0.64499 0.03106 0.0
O100 O 0.8945 0.63586 0.97706 0.0
Zn101 Zn 0.90541 0.64722 -0.0009 0.0
O102 O 0.91481 0.66417 0.97415 0.0
Zn103 Zn 0.92647 0.67375 0.00028 0.0
O104 O 0.96874 0.67577 -0.00066 0.0
O105 O 0.95306 0.64616 0.99832 0.0
O106 O 0.91868 0.66039 0.02547 0.0
O107 O 0.89595 0.63331 0.02008 0.0
O108 O 0.87621 0.67156 0.00063 0.0
O109 O 0.90457 0.69698 0.00213 0.0
C110 C 0.97442 0.65814 0.99847 0.0
C111 C 0.87893 0.68968 0.00169 0.0
C112 C 0.1297 0.80987 0.75213 0.0
C113 C 0.2254 0.84118 0.74914 0.0
O114 O 0.12706 0.828 0.75108 0.0
Zn115 Zn 0.15657 0.8523 0.7495 0.0
O116 O 0.1553 0.80251 0.75257 0.0
Zn117 Zn 0.17726 0.82567 0.75084 0.0
O118 O 0.16871 0.83895 0.77599 0.0
O119 O 0.14759 0.86652 0.77037 0.0
O120 O 0.21964 0.82358 0.75018 0.0
O121 O 0.20409 0.85318 0.74879 0.0
O122 O 0.14592 0.86362 0.72741 0.0
O123 O 0.16593 0.83521 0.72462 0.0
C124 C 0.15737 0.85459 0.78145 0.0
C125 C 0.15411 0.84998 0.71764 0.0
C126 C 0.09812 0.39999 0.71738 0.0
C127 C 0.09431 0.39551 0.7812 0.0
O128 O 0.0858 0.41461 0.7243 0.0
Zn129 Zn 0.0741 0.42414 0.75043 0.0
O130 O 0.10678 0.3865 0.72719 0.0
Zn131 Zn 0.09568 0.39777 0.74925 0.0
O132 O 0.04806 0.39634 0.74846 0.0
O133 O 0.03178 0.42582 0.74949 0.0
O134 O 0.10538 0.38393 0.77023 0.0
O135 O 0.08209 0.41081 0.7756 0.0
O136 O 0.09561 0.44753 0.75228 0.0
O137 O 0.12439 0.42232 0.75079 0.0
C138 C 0.02646 0.40815 0.74861 0.0
C139 C 0.12136 0.44041 0.75186 0.0
C140 C 0.1541 0.39997 0.53086 0.0
C141 C 0.15678 0.39556 0.46705 0.0
O142 O 0.16585 0.41476 0.52388 0.0
Zn143 Zn 0.17698 0.42437 0.49766 0.0
O144 O 0.14586 0.38634 0.52108 0.0
Zn145 Zn 0.15634 0.39773 0.49899 0.0
O146 O 0.20387 0.39685 0.49957 0.0
O147 O 0.21936 0.42646 0.49819 0.0
O148 O 0.14718 0.38357 0.47813 0.0
O149 O 0.16817 0.41118 0.47252 0.0
O150 O 0.15501 0.44753 0.49606 0.0
O151 O 0.12679 0.42202 0.49755 0.0
C152 C 0.22516 0.40886 0.49918 0.0
C153 C 0.12942 0.44017 0.49653 0.0
C154 C 0.09361 0.85521 0.46733 0.0
C155 C 0.09744 0.85038 0.53115 0.0
O156 O 0.08159 0.83981 0.47286 0.0
Zn157 Zn 0.07377 0.8263 0.49796 0.0
O158 O 0.10452 0.86679 0.47835 0.0
Zn159 Zn 0.09499 0.85278 0.49928 0.0
O160 O 0.12404 0.8284 0.49764 0.0
O161 O 0.09558 0.80304 0.496 0.0
O162 O 0.1059 0.86398 0.5214 0.0
O163 O 0.08533 0.83573 0.52415 0.0
O164 O 0.03149 0.82436 0.49886 0.0
O165 O 0.04733 0.85393 0.50003 0.0
C166 C 0.12124 0.81029 0.49647 0.0
C167 C 0.02591 0.84199 0.49981 0.0
C168 C 0.84455 0.14505 0.21701 0.0
C169 C 0.84735 0.1491 0.28082 0.0
O170 O 0.8547 0.13317 0.22802 0.0
Zn171 Zn 0.84543 0.14718 0.24894 0.0
O172 O 0.83277 0.16052 0.22255 0.0
Zn173 Zn 0.82386 0.17351 0.24778 0.0
O174 O 0.84533 0.19695 0.24638 0.0
O175 O 0.87416 0.17174 0.24747 0.0
O176 O 0.83463 0.16363 0.27397 0.0
O177 O 0.8569 0.13596 0.2709 0.0
O178 O 0.7978 0.14574 0.24976 0.0
O179 O 0.78152 0.17519 0.24827 0.0
C180 C 0.8711 0.18985 0.24664 0.0
C181 C 0.7762 0.15753 0.24937 0.0
C182 C 0.90619 0.6041 0.21712 0.0
C183 C 0.90222 0.59963 0.28095 0.0
O184 O 0.89496 0.61564 0.22808 0.0
Zn185 Zn 0.9047 0.60184 0.24908 0.0
O186 O 0.91852 0.58885 0.22274 0.0
Zn187 Zn 0.92653 0.57555 0.24792 0.0
O188 O 0.90521 0.55207 0.24605 0.0
O189 O 0.87621 0.57719 0.24751 0.0
O190 O 0.91468 0.58504 0.27404 0.0
O191 O 0.89346 0.61308 0.27112 0.0
O192 O 0.95231 0.60343 0.2499 0.0
O193 O 0.96886 0.57402 0.2489 0.0
C194 C 0.87939 0.5591 0.24644 0.0
C195 C 0.97402 0.59171 0.24977 0.0
C196 C 0.87091 0.55965 0.50188 0.0
C197 C 0.77523 0.59104 0.4992 0.0
O198 O 0.8453 0.5523 0.50237 0.0
Zn199 Zn 0.82337 0.57548 0.50073 0.0
O200 O 0.87357 0.57779 0.50084 0.0
Zn201 Zn 0.84409 0.6021 0.49935 0.0
O202 O 0.85328 0.6163 0.52019 0.0
O203 O 0.8322 0.58873 0.52586 0.0
O204 O 0.79656 0.60302 0.4988 0.0
O205 O 0.78097 0.57343 0.5002 0.0
O206 O 0.83451 0.58503 0.47449 0.0
O207 O 0.85456 0.61344 0.47724 0.0
C208 C 0.84362 0.60435 0.53129 0.0
C209 C 0.84628 0.5998 0.46749 0.0
C210 C 0.9743 0.15804 0.49859 0.0
C211 C 0.88008 0.19111 0.50175 0.0
O212 O 0.96932 0.17576 0.49942 0.0
Zn213 Zn 0.92707 0.17438 0.50036 0.0
O214 O 0.95247 0.14639 0.49853 0.0
Zn215 Zn 0.90476 0.14829 0.49954 0.0
O216 O 0.89269 0.13699 0.47773 0.0
O217 O 0.91561 0.16438 0.47431 0.0
O218 O 0.8767 0.17304 0.50097 0.0
O219 O 0.90597 0.19802 0.50189 0.0
O220 O 0.91907 0.16139 0.52572 0.0
O221 O 0.89499 0.13474 0.52062 0.0
C222 C 0.90242 0.14992 0.46765 0.0
C223 C 0.90652 0.14627 0.53147 0.0
C224 C 0.65759 0.35525 0.78101 0.0
C225 C 0.65423 0.35059 0.71723 0.0
O226 O 0.66874 0.33955 0.77558 0.0
Zn227 Zn 0.6771 0.3262 0.75044 0.0
O228 O 0.64797 0.36721 0.76991 0.0
Zn229 Zn 0.65673 0.3529 0.74908 0.0
O230 O 0.62692 0.32873 0.75068 0.0
O231 O 0.65495 0.30314 0.75219 0.0
O232 O 0.64618 0.36427 0.72701 0.0
O233 O 0.66589 0.33577 0.7242 0.0
O234 O 0.71942 0.32385 0.74978 0.0
O235 O 0.70429 0.35354 0.74831 0.0
C236 C 0.62942 0.31058 0.75175 0.0
C237 C 0.72543 0.34141 0.74868 0.0
C238 C 0.59794 0.89997 0.71714 0.0
C239 C 0.59401 0.89542 0.78095 0.0
O240 O 0.58579 0.91465 0.72407 0.0
Zn241 Zn 0.57409 0.92416 0.7502 0.0
O242 O 0.60631 0.8864 0.72694 0.0
Zn243 Zn 0.59535 0.89769 0.74901 0.0
O244 O 0.54772 0.89648 0.74826 0.0
O245 O 0.53179 0.92603 0.74928 0.0
O246 O 0.60491 0.88378 0.76997 0.0
O247 O 0.58197 0.91079 0.77537 0.0
O248 O 0.59586 0.94746 0.75208 0.0
O249 O 0.62436 0.92211 0.75058 0.0
C250 C 0.52625 0.90839 0.74842 0.0
C251 C 0.62154 0.94022 0.75166 0.0
C252 C 0.65404 0.9006 0.53062 0.0
C253 C 0.65673 0.89579 0.46684 0.0
O254 O 0.66592 0.91532 0.52358 0.0
Zn255 Zn 0.67704 0.92477 0.49729 0.0
O256 O 0.64558 0.88699 0.5209 0.0
Zn257 Zn 0.65616 0.89823 0.49877 0.0
O258 O 0.7037 0.89721 0.4994 0.0
O259 O 0.71942 0.92676 0.49785 0.0
O260 O 0.64693 0.88395 0.478 0.0
O261 O 0.66825 0.91141 0.4722 0.0
O262 O 0.65525 0.94799 0.49557 0.0
O263 O 0.62683 0.92259 0.4972 0.0
C264 C 0.72508 0.90915 0.49896 0.0
C265 C 0.6296 0.94072 0.49609 0.0
C266 C 0.59737 0.35117 0.53078 0.0
C267 C 0.59465 0.3554 0.46691 0.0
O268 O 0.58562 0.33639 0.52379 0.0
Zn269 Zn 0.57453 0.32671 0.49763 0.0
O270 O 0.6056 0.36482 0.52102 0.0
Zn271 Zn 0.59511 0.35343 0.49889 0.0
O272 O 0.54761 0.35423 0.49946 0.0
O273 O 0.53212 0.32461 0.49818 0.0
O274 O 0.60419 0.36749 0.47791 0.0
O275 O 0.58333 0.3398 0.47247 0.0
O276 O 0.59666 0.30359 0.49612 0.0
O277 O 0.6247 0.32919 0.49747 0.0
C278 C 0.52632 0.34221 0.49911 0.0
C279 C 0.6222 0.31104 0.49653 0.0
C280 C 0.34575 0.65103 0.28081 0.0
C281 C 0.34222 0.64634 0.21705 0.0
O282 O 0.35385 0.63738 0.27103 0.0
Zn283 Zn 0.34308 0.6487 0.24898 0.0
O284 O 0.33392 0.66581 0.27386 0.0
Zn285 Zn 0.32247 0.67533 0.24763 0.0
O286 O 0.28011 0.67747 0.24836 0.0
O287 O 0.29556 0.64786 0.2498 0.0
O288 O 0.33093 0.66201 0.22247 0.0
O289 O 0.35195 0.63443 0.22815 0.0
O290 O 0.37264 0.67296 0.24731 0.0
O291 O 0.34443 0.69848 0.24586 0.0
C292 C 0.27429 0.65989 0.24946 0.0
C293 C 0.37002 0.6911 0.24625 0.0
C294 C 0.37879 0.06051 0.24638 0.0
C295 C 0.47502 0.09107 0.24959 0.0
O296 O 0.40424 0.05295 0.24611 0.0
Zn297 Zn 0.42659 0.07594 0.2478 0.0
O298 O 0.37647 0.07868 0.24734 0.0
Zn299 Zn 0.40643 0.10275 0.24898 0.0
O300 O 0.3979 0.11694 0.22801 0.0
O301 O 0.41836 0.08912 0.22257 0.0
O302 O 0.45395 0.10325 0.24983 0.0
O303 O 0.46891 0.07352 0.24859 0.0
O304 O 0.41514 0.08563 0.27393 0.0
O305 O 0.39574 0.1142 0.27102 0.0
C306 C 0.40737 0.10482 0.21701 0.0
C307 C 0.40352 0.10049 0.28084 0.0
C308 C 0.34311 0.10478 0.53107 0.0
C309 C 0.34597 0.10014 0.46725 0.0
O310 O 0.3526 0.11677 0.51995 0.0
Zn311 Zn 0.34373 0.10246 0.49911 0.0
O312 O 0.33197 0.08907 0.52565 0.0
Zn313 Zn 0.32344 0.07573 0.50054 0.0
O314 O 0.34566 0.05271 0.50221 0.0
O315 O 0.3736 0.07833 0.50063 0.0
O316 O 0.33438 0.08533 0.47427 0.0
O317 O 0.35413 0.11382 0.47699 0.0
O318 O 0.29615 0.10304 0.49842 0.0
O319 O 0.28113 0.07333 0.49998 0.0
C320 C 0.37117 0.06018 0.5017 0.0
C321 C 0.27505 0.09088 0.49885 0.0
C322 C 0.40635 0.64568 0.53104 0.0
C323 C 0.40328 0.65032 0.4672 0.0
O324 O 0.39551 0.63408 0.52 0.0
Zn325 Zn 0.4054 0.64799 0.49908 0.0
O326 O 0.41854 0.66103 0.52551 0.0
Zn327 Zn 0.42677 0.67442 0.50041 0.0
O328 O 0.40507 0.69775 0.50222 0.0
O329 O 0.37649 0.67245 0.50053 0.0
O330 O 0.4154 0.66496 0.47421 0.0
O331 O 0.39466 0.63675 0.47693 0.0
O332 O 0.45304 0.6467 0.49852 0.0
O333 O 0.46908 0.67623 0.49968 0.0
C334 C 0.37937 0.69055 0.50166 0.0
C335 C 0.47455 0.65857 0.4988 0.0
C336 C 0.65728 0.8544 0.28116 0.0
C337 C 0.65437 0.84987 0.21737 0.0
O338 O 0.66844 0.8387 0.27573 0.0
Zn339 Zn 0.67702 0.82541 0.2506 0.0
O340 O 0.6478 0.86641 0.27006 0.0
Zn341 Zn 0.65669 0.85214 0.24922 0.0
O342 O 0.62686 0.828 0.25072 0.0
O343 O 0.65479 0.80237 0.25224 0.0
O344 O 0.64628 0.86354 0.22713 0.0
O345 O 0.66596 0.83503 0.22436 0.0
O346 O 0.71937 0.82309 0.25002 0.0
O347 O 0.70422 0.85277 0.24854 0.0
C348 C 0.62928 0.80985 0.25175 0.0
C349 C 0.72537 0.84066 0.24893 0.0
C350 C 0.59474 0.39415 0.28078 0.0
C351 C 0.5968 0.39889 0.21695 0.0
O352 O 0.58327 0.40977 0.27539 0.0
Zn353 Zn 0.5742 0.42307 0.25034 0.0
O354 O 0.60428 0.3822 0.26964 0.0
Zn355 Zn 0.59491 0.39643 0.24882 0.0
O356 O 0.6244 0.42072 0.25029 0.0
O357 O 0.59621 0.44623 0.25195 0.0
O358 O 0.60522 0.38521 0.2266 0.0
O359 O 0.58506 0.41361 0.22406 0.0
O360 O 0.5318 0.4251 0.24995 0.0
O361 O 0.54739 0.39552 0.24841 0.0
C362 C 0.62179 0.43885 0.25138 0.0
C363 C 0.52606 0.4075 0.24892 0.0
C364 C 0.65396 0.40062 0.03055 0.0
C365 C 0.65772 0.3964 0.96677 0.0
O366 O 0.66581 0.41545 0.02371 0.0
Zn367 Zn 0.67733 0.42517 0.99756 0.0
O368 O 0.64589 0.38704 0.02067 0.0
Zn369 Zn 0.65671 0.39854 0.99871 0.0
O370 O 0.70425 0.39769 -0.00043 0.0
O371 O 0.71968 0.42733 0.99837 0.0
O372 O 0.64789 0.38443 0.97779 0.0
O373 O 0.66902 0.41202 0.9723 0.0
O374 O 0.65539 0.44833 0.99591 0.0
O375 O 0.62715 0.42282 0.99719 0.0
C376 C 0.72551 0.40973 -0.00066 0.0
C377 C 0.62979 0.44097 0.99625 0.0
C378 C 0.59831 0.85015 0.03085 0.0
C379 C 0.59426 0.85463 0.96702 0.0
O380 O 0.58585 0.83557 0.02394 0.0
Zn381 Zn 0.57397 0.82608 0.99783 0.0
O382 O 0.60703 0.86362 0.02103 0.0
Zn383 Zn 0.59575 0.85239 0.99898 0.0
O384 O 0.54815 0.85396 -0.00016 0.0
O385 O 0.53164 0.82453 0.99883 0.0
O386 O 0.60545 0.86619 0.97798 0.0
O387 O 0.58196 0.83937 0.97265 0.0
O388 O 0.59533 0.80261 0.99597 0.0
O389 O 0.62427 0.82777 0.99739 0.0
C390 C 0.52646 0.84222 -0.00028 0.0
C391 C 0.62113 0.80968 0.99634 0.0
C392 C 0.27573 0.15933 0.74913 0.0
C393 C 0.37123 0.19085 0.74613 0.0
O394 O 0.28144 0.17694 0.74805 0.0
Zn395 Zn 0.32381 0.17491 0.7474 0.0
O396 O 0.29707 0.14736 0.7495 0.0
Zn397 Zn 0.34462 0.14836 0.74877 0.0
O398 O 0.35534 0.13706 0.77085 0.0
O399 O 0.33515 0.16542 0.77365 0.0
O400 O 0.374 0.17272 0.7472 0.0
O401 O 0.34559 0.19814 0.74567 0.0
O402 O 0.33244 0.16163 0.72225 0.0
O403 O 0.3537 0.13413 0.72794 0.0
C404 C 0.34706 0.15067 0.78062 0.0
C405 C 0.34389 0.14601 0.71682 0.0
C406 C 0.40313 0.60091 0.781 0.0
C407 C 0.40632 0.60514 0.71715 0.0
O408 O 0.39467 0.61444 0.77117 0.0
Zn409 Zn 0.40538 0.60303 0.74911 0.0
O410 O 0.41517 0.58619 0.77408 0.0
Zn411 Zn 0.42657 0.57654 0.74793 0.0
O412 O 0.46886 0.57462 0.7487 0.0
O413 O 0.45303 0.6042 0.74969 0.0
O414 O 0.41841 0.58979 0.72274 0.0
O415 O 0.3956 0.61684 0.72813 0.0
O416 O 0.3763 0.57863 0.74777 0.0
O417 O 0.40476 0.55326 0.74623 0.0
C418 C 0.47446 0.59226 0.74949 0.0
C419 C 0.3791 0.56051 0.74674 0.0
C420 C 0.34365 0.60516 0.03132 0.0
C421 C 0.3469 0.60058 0.96751 0.0
O422 O 0.35344 0.6171 0.02024 0.0
Zn423 Zn 0.34451 0.60288 -0.00063 0.0
O424 O 0.33232 0.58953 0.02585 0.0
Zn425 Zn 0.32381 0.57625 0.0007 0.0
O426 O 0.34576 0.55309 0.0024 0.0
O427 O 0.37401 0.57859 0.00096 0.0
O428 O 0.33507 0.58582 0.97449 0.0
O429 O 0.35517 0.61421 0.97728 0.0
O430 O 0.29697 0.60374 0.99863 0.0
O431 O 0.28145 0.57414 3e-05 0.0
C432 C 0.37136 0.56045 0.00199 0.0
C433 C 0.27567 0.59173 0.99898 0.0
C434 C 0.40606 0.14469 0.03101 0.0
C435 C 0.40331 0.14968 0.96719 0.0
O436 O 0.39632 0.13281 0.01987 0.0
Zn437 Zn 0.40548 0.14712 0.99906 0.0
O438 O 0.41748 0.16034 0.02563 0.0
Zn439 Zn 0.42622 0.17375 0.00058 0.0
O440 O 0.40422 0.1969 0.00235 0.0
O441 O 0.37602 0.1714 0.00067 0.0
O442 O 0.41511 0.16437 0.9743 0.0
O443 O 0.39499 0.13597 0.97684 0.0
O444 O 0.45299 0.14622 0.99848 0.0
O445 O 0.46863 0.17579 4e-05 0.0
C446 C 0.37863 0.18953 0.00181 0.0
C447 C 0.47434 0.15819 0.99895 0.0
C448 C 0.14401 0.36788 0.18973 0.0
C449 C 0.14961 0.35056 0.19826 0.0
C450 C 0.13926 0.36843 0.17155 0.0
C451 C 0.14833 0.33937 0.13083 0.0
H452 H 0.09117 0.37488 0.11179 0.0
C453 C 0.10188 0.33401 0.0603 0.0
C454 C 0.10301 0.35074 0.05022 0.0
C455 C 0.10793 0.33448 0.07832 0.0
C456 C 0.10733 0.36499 0.11694 0.0
H457 H 0.15429 0.32019 0.19449 0.0
H458 H 0.14493 0.32099 0.16301 0.0
H459 H 0.1011 0.37464 0.14335 0.0
H460 H 0.11073 0.38112 0.05119 0.0
H461 H 0.12065 0.38195 0.08286 0.0
H462 H 0.15367 0.32933 0.1044 0.0
C463 C 0.14512 0.33429 0.17016 0.0
C464 C 0.11318 0.36489 0.13501 0.0
C465 C 0.15032 0.33379 0.18827 0.0
C466 C 0.10976 0.368 0.05861 0.0
C467 C 0.11532 0.3685 0.07671 0.0
C468 C 0.14213 0.33928 0.11283 0.0
C469 C 0.13954 0.35161 0.16153 0.0
C470 C 0.13373 0.35204 0.14222 0.0
C471 C 0.11474 0.35171 0.08668 0.0
C472 C 0.12154 0.35206 0.10573 0.0
H473 H 0.14352 0.38106 0.19708 0.0
H474 H 0.13558 0.38207 0.16537 0.0
H475 H 0.16477 0.32955 0.13578 0.0
H476 H 0.09684 0.32048 0.05422 0.0
H477 H 0.10711 0.32136 0.08576 0.0
C478 C 0.14972 0.91645 0.0602 0.0
C479 C 0.1496 0.89968 0.05018 0.0
C480 C 0.14374 0.9159 0.07823 0.0
C481 C 0.14613 0.88561 0.11699 0.0
H482 H 0.08629 0.91954 0.13554 0.0
C483 C 0.10925 0.8823 0.1898 0.0
C484 C 0.10243 0.89954 0.19817 0.0
C485 C 0.11422 0.88172 0.17163 0.0
C486 C 0.10339 0.91016 0.13068 0.0
H487 H 0.14379 0.86912 0.05125 0.0
H488 H 0.13398 0.86815 0.08293 0.0
H489 H 0.09752 0.91989 0.10419 0.0
H490 H 0.09586 0.92973 0.19412 0.0
H491 H 0.10555 0.92888 0.16269 0.0
H492 H 0.15286 0.87629 0.14347 0.0
C493 C 0.13847 0.88171 0.07674 0.0
C494 C 0.10968 0.91032 0.11269 0.0
C495 C 0.14396 0.88229 0.05863 0.0
C496 C 0.10077 0.91618 0.18803 0.0
C497 C 0.10616 0.91566 0.16994 0.0
C498 C 0.14019 0.88565 0.13506 0.0
C499 C 0.138 0.89854 0.08665 0.0
C500 C 0.13114 0.89809 0.10569 0.0
C501 C 0.11289 0.89842 0.16147 0.0
C502 C 0.11878 0.89798 0.14216 0.0
H503 H 0.1539 0.93008 0.05407 0.0
H504 H 0.14372 0.92906 0.08563 0.0
H505 H 0.16295 0.87615 0.11191 0.0
H506 H 0.11052 0.86921 0.19726 0.0
H507 H 0.11883 0.86813 0.16556 0.0
C508 C 0.84955 0.66604 0.81016 0.0
C509 C 0.85069 0.64937 0.80004 0.0
C510 C 0.85471 0.66544 0.82827 0.0
C511 C 0.88739 0.63489 0.86321 0.0
H512 H 0.846 0.66977 0.89406 0.0
C513 C 0.89124 0.63142 0.93962 0.0
C514 C 0.89757 0.64872 0.94805 0.0
C515 C 0.88559 0.63092 0.92152 0.0
C516 C 0.85779 0.66001 0.88557 0.0
H517 H 0.8575 0.61892 0.80102 0.0
H518 H 0.86539 0.61772 0.83273 0.0
H519 H 0.83486 0.66965 0.86269 0.0
H520 H 0.90288 0.67905 0.94414 0.0
H521 H 0.89245 0.67819 0.91262 0.0
H522 H 0.90972 0.62499 0.88636 0.0
C523 C 0.8614 0.63138 0.82664 0.0
C524 C 0.85156 0.65999 0.86756 0.0
C525 C 0.85667 0.63203 0.80846 0.0
C526 C 0.89818 0.66549 0.93802 0.0
C527 C 0.89204 0.66503 0.92002 0.0
C528 C 0.89327 0.63473 0.88127 0.0
C529 C 0.86068 0.64811 0.83678 0.0
C530 C 0.86649 0.64757 0.85609 0.0
C531 C 0.88564 0.64776 0.91161 0.0
C532 C 0.87874 0.64743 0.89257 0.0
H533 H 0.84528 0.67966 0.80403 0.0
H534 H 0.85455 0.67868 0.83552 0.0
H535 H 0.89972 0.62534 0.8548 0.0
H536 H 0.89068 0.61826 0.94699 0.0
H537 H 0.8806 0.61744 0.91533 0.0
C538 C 0.85684 0.11774 0.9398 0.0
C539 C 0.85073 0.10042 0.94823 0.0
C540 C 0.86171 0.11834 0.92164 0.0
C541 C 0.85204 0.08965 0.88076 0.0
H542 H 0.91042 0.12452 0.86202 0.0
C543 C 0.8989 0.08403 0.81036 0.0
C544 C 0.89824 0.1008 0.80033 0.0
C545 C 0.89277 0.0845 0.82836 0.0
C546 C 0.89393 0.11481 0.86709 0.0
H547 H 0.84527 0.07013 0.94429 0.0
H548 H 0.8548 0.07102 0.91283 0.0
H549 H 0.90027 0.12424 0.89356 0.0
H550 H 0.8913 0.13126 0.80136 0.0
H551 H 0.88124 0.13209 0.83302 0.0
H552 H 0.84658 0.07983 0.85426 0.0
C553 C 0.85494 0.08428 0.92005 0.0
C554 C 0.88795 0.11469 0.88515 0.0
C555 C 0.84963 0.08373 0.93815 0.0
C556 C 0.89189 0.1181 0.80875 0.0
C557 C 0.88625 0.1186 0.82684 0.0
C558 C 0.85837 0.08958 0.86277 0.0
C559 C 0.86103 0.10159 0.91153 0.0
C560 C 0.86696 0.10207 0.89224 0.0
C561 C 0.88634 0.10177 0.83676 0.0
C562 C 0.8794 0.10212 0.85579 0.0
H563 H 0.85764 0.13087 0.94722 0.0
H564 H 0.86579 0.13197 0.91553 0.0
H565 H 0.83528 0.08002 0.88562 0.0
H566 H 0.90362 0.07047 0.80424 0.0
H567 H 0.89319 0.07135 0.83577 0.0
C568 C 0.14968 0.83398 0.68838 0.0
C569 C 0.14917 0.85074 0.69842 0.0
C570 C 0.14375 0.83449 0.67035 0.0
C571 C 0.14561 0.86491 0.63163 0.0
H572 H 0.08674 0.83041 0.6129 0.0
C573 C 0.10864 0.86831 0.55887 0.0
C574 C 0.10226 0.85108 0.55039 0.0
C575 C 0.11361 0.8688 0.57704 0.0
C576 C 0.10357 0.83995 0.61781 0.0
H577 H 0.14271 0.88124 0.69737 0.0
H578 H 0.13299 0.88216 0.66568 0.0
H579 H 0.09789 0.83005 0.64426 0.0
H580 H 0.09647 0.82079 0.55422 0.0
H581 H 0.10617 0.82148 0.58566 0.0
H582 H 0.15214 0.87442 0.6052 0.0
C583 C 0.13775 0.86864 0.67187 0.0
C584 C 0.10981 0.83978 0.63581 0.0
C585 C 0.14318 0.86809 0.68998 0.0
C586 C 0.10103 0.83434 0.56041 0.0
C587 C 0.10643 0.83477 0.5785 0.0
C588 C 0.13971 0.86488 0.61357 0.0
C589 C 0.13768 0.85181 0.66194 0.0
C590 C 0.13091 0.85223 0.64288 0.0
C591 C 0.11274 0.85201 0.58709 0.0
C592 C 0.11864 0.85237 0.60639 0.0
H593 H 0.15413 0.82038 0.69451 0.0
H594 H 0.14405 0.82135 0.66294 0.0
H595 H 0.16216 0.87454 0.63677 0.0
H596 H 0.10956 0.88147 0.55151 0.0
H597 H 0.11787 0.88239 0.5832 0.0
C598 C 0.14342 0.38181 0.55852 0.0
C599 C 0.14925 0.39918 0.55008 0.0
C600 C 0.13804 0.38125 0.57665 0.0
C601 C 0.10986 0.41001 0.61267 0.0
H602 H 0.15279 0.37575 0.64335 0.0
C603 C 0.10143 0.41586 0.68803 0.0
C604 C 0.1029 0.39919 0.69814 0.0
C605 C 0.10674 0.41533 0.66994 0.0
C606 C 0.1402 0.38518 0.63497 0.0
H607 H 0.15401 0.42955 0.55398 0.0
H608 H 0.14403 0.42856 0.58556 0.0
H609 H 0.16269 0.37555 0.61177 0.0
H610 H 0.11058 0.36883 0.69718 0.0
H611 H 0.11875 0.36774 0.66548 0.0
H612 H 0.08674 0.41935 0.63558 0.0
C613 C 0.1438 0.41541 0.57815 0.0
C614 C 0.14602 0.38511 0.61689 0.0
C615 C 0.14968 0.41595 0.56012 0.0
C616 C 0.10946 0.38193 0.68974 0.0
C617 C 0.11435 0.38135 0.67157 0.0
C618 C 0.10369 0.40988 0.63068 0.0
C619 C 0.13787 0.39808 0.58657 0.0
C620 C 0.13112 0.39766 0.60563 0.0
C621 C 0.11321 0.39807 0.66143 0.0
C622 C 0.119 0.39762 0.64212 0.0
H623 H 0.14301 0.36866 0.55114 0.0
H624 H 0.1334 0.36772 0.58284 0.0
H625 H 0.09778 0.41964 0.6042 0.0
H626 H 0.09672 0.42942 0.69414 0.0
H627 H 0.10627 0.42857 0.6627 0.0
C628 C 0.83798 0.1613 0.31126 0.0
C629 C 0.85164 0.14803 0.3001 0.0
C630 C 0.84296 0.16081 0.3294 0.0
C631 C 0.87116 0.13002 0.36537 0.0
H632 H 0.87951 0.17803 0.38985 0.0
C633 C 0.87901 0.13487 0.4412 0.0
C634 C 0.89782 0.14872 0.4484 0.0
C635 C 0.87362 0.13432 0.42309 0.0
C636 C 0.87756 0.16448 0.38321 0.0
H637 H 0.88107 0.12374 0.29926 0.0
H638 H 0.89029 0.12316 0.33084 0.0
H639 H 0.86979 0.17787 0.3584 0.0
H640 H 0.92634 0.17254 0.44216 0.0
H641 H 0.91753 0.1713 0.41058 0.0
H642 H 0.87992 0.11665 0.39011 0.0
C643 C 0.87526 0.13372 0.32564 0.0
C644 C 0.87152 0.16439 0.36519 0.0
C645 C 0.8701 0.13412 0.30751 0.0
C646 C 0.91156 0.16177 0.43706 0.0
C647 C 0.90634 0.16114 0.41895 0.0
C648 C 0.87738 0.13012 0.38339 0.0
C649 C 0.86191 0.14715 0.33681 0.0
C650 C 0.86818 0.14717 0.35604 0.0
C651 C 0.88707 0.14753 0.41175 0.0
C652 C 0.88066 0.14735 0.39254 0.0
H653 H 0.82345 0.17212 0.306 0.0
H654 H 0.83185 0.17115 0.33763 0.0
H655 H 0.86842 0.1165 0.35879 0.0
H656 H 0.86797 0.12465 0.44959 0.0
H657 H 0.85836 0.1238 0.41805 0.0
C658 C 0.89892 0.58376 0.3103 0.0
C659 C 0.89741 0.60042 0.30018 0.0
C660 C 0.89359 0.58429 0.32839 0.0
C661 C 0.86008 0.61445 0.36335 0.0
H662 H 0.90252 0.58002 0.39414 0.0
C663 C 0.85695 0.61791 0.43979 0.0
C664 C 0.85111 0.60056 0.44826 0.0
C665 C 0.86231 0.61844 0.42167 0.0
C666 C 0.89043 0.58964 0.38566 0.0
H667 H 0.88966 0.63078 0.30112 0.0
H668 H 0.88147 0.63187 0.33282 0.0
H669 H 0.91354 0.58028 0.36276 0.0
H670 H 0.84633 0.57018 0.44439 0.0
H671 H 0.85628 0.57113 0.41281 0.0
H672 H 0.83761 0.6241 0.38655 0.0
C673 C 0.8859 0.61827 0.32674 0.0
C674 C 0.8966 0.58975 0.36765 0.0
C675 C 0.8908 0.61768 0.30857 0.0
C676 C 0.85066 0.58378 0.43824 0.0
C677 C 0.85652 0.58428 0.4202 0.0
C678 C 0.85427 0.61454 0.38143 0.0
C679 C 0.88708 0.60155 0.33689 0.0
C680 C 0.88129 0.60201 0.3562 0.0
C681 C 0.86246 0.60161 0.41176 0.0
C682 C 0.86918 0.602 0.3927 0.0
H683 H 0.90367 0.5702 0.30419 0.0
H684 H 0.89408 0.57106 0.33564 0.0
H685 H 0.84748 0.62387 0.35496 0.0
H686 H 0.85738 0.63107 0.44716 0.0
H687 H 0.86696 0.63197 0.41545 0.0
C688 C 0.60823 0.36918 0.55851 0.0
C689 C 0.60212 0.35191 0.55002 0.0
C690 C 0.6132 0.36968 0.57668 0.0
C691 C 0.60361 0.34072 0.61742 0.0
H692 H 0.66189 0.37551 0.6364 0.0
C693 C 0.64988 0.33468 0.68793 0.0
C694 C 0.64931 0.35141 0.69801 0.0
C695 C 0.64394 0.33524 0.6699 0.0
C696 C 0.64542 0.36582 0.63126 0.0
H697 H 0.59681 0.32158 0.55384 0.0
H698 H 0.6065 0.32231 0.58527 0.0
H699 H 0.65174 0.37546 0.60484 0.0
H700 H 0.64272 0.3819 0.69703 0.0
H701 H 0.63295 0.38289 0.66536 0.0
H702 H 0.59813 0.3307 0.64385 0.0
C703 C 0.60655 0.33561 0.57812 0.0
C704 C 0.63945 0.36584 0.6132 0.0
C705 C 0.60116 0.33516 0.56003 0.0
C706 C 0.64325 0.36877 0.68962 0.0
C707 C 0.63778 0.36936 0.67151 0.0
C708 C 0.60992 0.34052 0.63541 0.0
C709 C 0.61259 0.35288 0.58672 0.0
C710 C 0.61851 0.35324 0.60602 0.0
C711 C 0.63777 0.35257 0.66153 0.0
C712 C 0.63092 0.35303 0.64248 0.0
H713 H 0.60895 0.38235 0.55115 0.0
H714 H 0.61726 0.38329 0.58285 0.0
H715 H 0.58687 0.33111 0.6125 0.0
H716 H 0.6544 0.32107 0.69402 0.0
H717 H 0.6443 0.32211 0.66246 0.0
C718 C 0.60941 0.88196 0.68949 0.0
C719 C 0.60306 0.89925 0.69794 0.0
C720 C 0.61496 0.88148 0.67139 0.0
C721 C 0.64248 0.9106 0.63538 0.0
H722 H 0.60049 0.87588 0.60469 0.0
C723 C 0.65065 0.9165 0.55997 0.0
C724 C 0.64952 0.89981 0.54988 0.0
C725 C 0.64545 0.91595 0.57808 0.0
C726 C 0.61283 0.88544 0.61308 0.0
H727 H 0.5976 0.92958 0.69405 0.0
H728 H 0.60787 0.92874 0.66251 0.0
H729 H 0.59062 0.87554 0.63627 0.0
H730 H 0.64269 0.86936 0.5509 0.0
H731 H 0.63475 0.86823 0.58261 0.0
H732 H 0.66531 0.92023 0.61247 0.0
C733 C 0.60837 0.91558 0.6699 0.0
C734 C 0.60702 0.88529 0.63115 0.0
C735 C 0.60233 0.91603 0.68792 0.0
C736 C 0.6435 0.88249 0.55832 0.0
C737 C 0.63875 0.88188 0.5765 0.0
C738 C 0.64864 0.91056 0.61737 0.0
C739 C 0.61479 0.89832 0.66148 0.0
C740 C 0.62158 0.898 0.64242 0.0
C741 C 0.63946 0.89863 0.58661 0.0
C742 C 0.63369 0.89812 0.60593 0.0
H743 H 0.61007 0.8688 0.69687 0.0
H744 H 0.61997 0.86801 0.66518 0.0
H745 H 0.65429 0.92037 0.64386 0.0
H746 H 0.65495 0.93011 0.55382 0.0
H747 H 0.64561 0.9292 0.5853 0.0
C748 C 0.35695 0.63289 0.30841 0.0
C749 C 0.35082 0.65025 0.30002 0.0
C750 C 0.36254 0.63231 0.32651 0.0
C751 C 0.39062 0.66112 0.36255 0.0
H752 H 0.3487 0.62628 0.39317 0.0
C753 C 0.39973 0.66639 0.43795 0.0
C754 C 0.39856 0.64963 0.44795 0.0
C755 C 0.39432 0.66597 0.41986 0.0
C756 C 0.36102 0.63587 0.3848 0.0
H757 H 0.34577 0.68059 0.304 0.0
H758 H 0.3561 0.67957 0.33554 0.0
H759 H 0.33846 0.62625 0.36163 0.0
H760 H 0.39141 0.61922 0.44679 0.0
H761 H 0.3831 0.61834 0.4151 0.0
H762 H 0.41382 0.67046 0.38543 0.0
C763 C 0.3564 0.66644 0.32811 0.0
C764 C 0.35499 0.6359 0.36675 0.0
C765 C 0.35032 0.66699 0.31009 0.0
C766 C 0.39228 0.63239 0.43944 0.0
C767 C 0.38731 0.63193 0.42128 0.0
C768 C 0.397 0.6609 0.38054 0.0
C769 C 0.36262 0.64911 0.33647 0.0
C770 C 0.36953 0.64865 0.35551 0.0
C771 C 0.38808 0.64874 0.41125 0.0
C772 C 0.38208 0.64841 0.39196 0.0
H773 H 0.35742 0.61975 0.301 0.0
H774 H 0.3674 0.61878 0.33265 0.0
H775 H 0.40243 0.67091 0.3541 0.0
H776 H 0.40422 0.67993 0.44415 0.0
H777 H 0.39451 0.67928 0.41272 0.0
C778 C 0.35661 0.11829 0.43956 0.0
C779 C 0.35055 0.10096 0.44799 0.0
C780 C 0.36147 0.11891 0.42139 0.0
C781 C 0.35178 0.09026 0.38048 0.0
H782 H 0.41019 0.12511 0.36174 0.0
C783 C 0.39855 0.0845 0.31007 0.0
C784 C 0.39826 0.10127 0.30004 0.0
C785 C 0.39234 0.08501 0.32807 0.0
C786 C 0.39367 0.11542 0.36681 0.0
H787 H 0.34513 0.07067 0.44401 0.0
H788 H 0.35462 0.07161 0.41255 0.0
H789 H 0.4 0.12485 0.39328 0.0
H790 H 0.39185 0.13178 0.30107 0.0
H791 H 0.38161 0.13268 0.33271 0.0
H792 H 0.34632 0.08043 0.35399 0.0
C793 C 0.35475 0.08485 0.41978 0.0
C794 C 0.38768 0.1153 0.38486 0.0
C795 C 0.34947 0.08428 0.43788 0.0
C796 C 0.39217 0.11862 0.30845 0.0
C797 C 0.38643 0.11916 0.32654 0.0
C798 C 0.35811 0.09018 0.36249 0.0
C799 C 0.3608 0.10217 0.41126 0.0
C800 C 0.36671 0.10267 0.39196 0.0
C801 C 0.38617 0.10233 0.33646 0.0
C802 C 0.37916 0.10272 0.3555 0.0
H803 H 0.35741 0.13141 0.44699 0.0
H804 H 0.36553 0.13256 0.41529 0.0
H805 H 0.33502 0.08063 0.38534 0.0
H806 H 0.40307 0.0709 0.30397 0.0
H807 H 0.39251 0.07186 0.33547 0.0
C808 C 0.64979 0.8339 0.18811 0.0
C809 C 0.64954 0.85067 0.19814 0.0
C810 C 0.64395 0.83445 0.17007 0.0
C811 C 0.64654 0.86475 0.13132 0.0
H812 H 0.58691 0.83077 0.11262 0.0
C813 C 0.60993 0.86814 0.05848 0.0
C814 C 0.60317 0.85091 0.05008 0.0
C815 C 0.61487 0.86868 0.07665 0.0
C816 C 0.60395 0.84016 0.11753 0.0
H817 H 0.64365 0.88121 0.19707 0.0
H818 H 0.63409 0.88219 0.16536 0.0
H819 H 0.59793 0.83042 0.144 0.0
H820 H 0.5967 0.8207 0.05406 0.0
H821 H 0.60634 0.82149 0.0855 0.0
H822 H 0.65341 0.87409 0.10487 0.0
C823 C 0.63857 0.86864 0.17156 0.0
C824 C 0.61012 0.84 0.13553 0.0
C825 C 0.64392 0.86806 0.18969 0.0
C826 C 0.60156 0.83424 0.06018 0.0
C827 C 0.60692 0.83473 0.07827 0.0
C828 C 0.64072 0.86471 0.11325 0.0
C829 C 0.63823 0.85181 0.16164 0.0
C830 C 0.6315 0.85225 0.14259 0.0
C831 C 0.61358 0.85196 0.08678 0.0
C832 C 0.61938 0.85237 0.10609 0.0
H833 H 0.65396 0.82027 0.19425 0.0
H834 H 0.64403 0.8213 0.16267 0.0
H835 H 0.66331 0.87423 0.13645 0.0
H836 H 0.61116 0.88124 0.05105 0.0
H837 H 0.61942 0.88227 0.08275 0.0
C838 C 0.64919 0.41635 0.05992 0.0
C839 C 0.64883 0.39968 0.04975 0.0
C840 C 0.64306 0.41566 0.07792 0.0
C841 C 0.64457 0.38487 0.11639 0.0
H842 H 0.58559 0.41922 0.13524 0.0
C843 C 0.60753 0.38104 0.18911 0.0
C844 C 0.60132 0.39826 0.19768 0.0
C845 C 0.61238 0.38063 0.17093 0.0
C846 C 0.60245 0.40971 0.13029 0.0
H847 H 0.64241 0.36916 0.05053 0.0
H848 H 0.63233 0.36794 0.08217 0.0
H849 H 0.59694 0.41984 0.1039 0.0
H850 H 0.59563 0.42857 0.19397 0.0
H851 H 0.6051 0.428 0.16251 0.0
H852 H 0.65094 0.37513 0.14276 0.0
C853 C 0.63713 0.38153 0.07611 0.0
C854 C 0.60881 0.41003 0.11231 0.0
C855 C 0.64278 0.38225 0.05802 0.0
C856 C 0.60008 0.41504 0.18772 0.0
C857 C 0.60534 0.41468 0.16962 0.0
C858 C 0.63856 0.38474 0.13444 0.0
C859 C 0.63692 0.39825 0.08617 0.0
C860 C 0.62997 0.39765 0.1052 0.0
C861 C 0.61154 0.39747 0.16095 0.0
C862 C 0.61746 0.39721 0.14165 0.0
H863 H 0.65369 0.43 0.05392 0.0
H864 H 0.64326 0.42873 0.08544 0.0
H865 H 0.66116 0.37528 0.11122 0.0
H866 H 0.60846 0.36785 0.19643 0.0
H867 H 0.61656 0.36706 0.16471 0.0
C868 C 0.35827 0.13255 0.80824 0.0
C869 C 0.35198 0.14988 0.79985 0.0
C870 C 0.36369 0.13198 0.82635 0.0
C871 C 0.39095 0.16092 0.86256 0.0
H872 H 0.34947 0.12564 0.89295 0.0
C873 C 0.39954 0.1659 0.93801 0.0
C874 C 0.39866 0.14908 0.94793 0.0
C875 C 0.39421 0.16554 0.91992 0.0
C876 C 0.36167 0.13536 0.88465 0.0
H877 H 0.34646 0.18019 0.80386 0.0
H878 H 0.3565 0.17918 0.83543 0.0
H879 H 0.33948 0.12564 0.86138 0.0
H880 H 0.39207 0.11862 0.94661 0.0
H881 H 0.38389 0.11786 0.91491 0.0
H882 H 0.41379 0.17037 0.88554 0.0
C883 C 0.35706 0.16606 0.82798 0.0
C884 C 0.35578 0.13541 0.86658 0.0
C885 C 0.35116 0.1666 0.80994 0.0
C886 C 0.39272 0.13184 0.93933 0.0
C887 C 0.38782 0.13144 0.92115 0.0
C888 C 0.39719 0.16069 0.88056 0.0
C889 C 0.36344 0.14876 0.83634 0.0
C890 C 0.37017 0.14831 0.85541 0.0
C891 C 0.38832 0.14831 0.91121 0.0
C892 C 0.38243 0.14804 0.8919 0.0
H893 H 0.359 0.11943 0.80081 0.0
H894 H 0.36869 0.11847 0.8325 0.0
H895 H 0.40265 0.17083 0.85417 0.0
H896 H 0.40377 0.17944 0.94429 0.0
H897 H 0.39419 0.17889 0.91283 0.0
C898 C 0.39172 0.61902 0.80861 0.0
C899 C 0.39818 0.60171 0.80022 0.0
C900 C 0.38624 0.61956 0.82672 0.0
C901 C 0.35902 0.59046 0.86281 0.0
H902 H 0.40052 0.6255 0.89343 0.0
C903 C 0.35074 0.58468 0.9382 0.0
C904 C 0.35158 0.60139 0.94827 0.0
C905 C 0.35603 0.58524 0.9201 0.0
C906 C 0.38831 0.61584 0.88506 0.0
H907 H 0.40397 0.57142 0.80422 0.0
H908 H 0.39384 0.57237 0.83577 0.0
H909 H 0.41045 0.62578 0.86185 0.0
H910 H 0.35806 0.63186 0.94723 0.0
H911 H 0.36617 0.63299 0.91553 0.0
H912 H 0.33626 0.58079 0.88573 0.0
C913 C 0.39318 0.58549 0.82833 0.0
C914 C 0.39416 0.61596 0.86699 0.0
C915 C 0.39914 0.58499 0.81031 0.0
C916 C 0.35745 0.61873 0.93982 0.0
C917 C 0.3623 0.61934 0.92165 0.0
C918 C 0.35282 0.59052 0.88081 0.0
C919 C 0.38661 0.60276 0.83669 0.0
C920 C 0.37979 0.60314 0.85574 0.0
C921 C 0.36182 0.60258 0.91155 0.0
C922 C 0.36761 0.60307 0.89224 0.0
H923 H 0.39088 0.63214 0.80118 0.0
H924 H 0.38111 0.63304 0.83287 0.0
H925 H 0.34734 0.5806 0.85436 0.0
H926 H 0.34657 0.57106 0.94435 0.0
H927 H 0.35608 0.57197 0.91289 0.0
C928 C 0.92596 0.19449 0.24744 0.0
C929 C 0.89744 0.20232 0.24647 0.0
C930 C 0.95082 0.20625 0.24785 0.0
C931 C 0.97398 0.25525 0.25828 0.0
H932 H 0.0444 0.24151 0.23218 0.0
C933 C 0.07391 0.3058 0.25091 0.0
C934 C 0.10224 0.29773 0.25209 0.0
C935 C 0.04881 0.29426 0.25036 0.0
C936 C 0.02503 0.24544 0.2397 0.0
H937 H 0.87274 0.22868 0.24493 0.0
H938 H 0.91615 0.24916 0.24544 0.0
H939 H 0.00081 0.22128 0.23057 0.0
H940 H 0.12634 0.27116 0.25385 0.0
H941 H 0.08255 0.25106 0.25305 0.0
H942 H 0.99823 0.27943 0.26741 0.0
C943 C 0.91926 0.23393 0.24614 0.0
C944 C 1.00003 0.23385 0.23877 0.0
C945 C 0.89438 0.22218 0.24573 0.0
C946 C 0.10487 0.27785 0.25288 0.0
C947 C 0.07977 0.26631 0.25231 0.0
C948 C 0.99898 0.26686 0.2592 0.0
C949 C 0.94777 0.22611 0.24728 0.0
C950 C 0.97422 0.23859 0.24807 0.0
C951 C 0.05146 0.27437 0.25094 0.0
C952 C 0.02482 0.26207 0.24995 0.0
H953 H 0.92913 0.17926 0.24808 0.0
H954 H 0.97242 0.19976 0.24895 0.0
H955 H 0.95462 0.25917 0.26582 0.0
H956 H 0.07108 0.32106 0.25023 0.0
H957 H 0.02734 0.30091 0.24911 0.0
C958 C 0.14361 0.97338 0.25208 0.0
C959 C 0.14674 0.95352 0.25176 0.0
C960 C 0.16847 0.98515 0.25147 0.0
C961 C 0.24687 0.98526 0.23807 0.0
H962 H 0.2516 0.0303 0.2673 0.0
C963 C 0.35434 0.02857 0.24566 0.0
C964 C 0.35197 0.04847 0.24613 0.0
C965 C 0.32907 0.01719 0.24601 0.0
C966 C 0.25047 0.0179 0.25889 0.0
H967 H 0.17851 0.93046 0.25084 0.0
H968 H 0.22178 0.95098 0.24998 0.0
H969 H 0.20797 0.01006 0.26888 0.0
H970 H 0.32108 0.07202 0.2471 0.0
H971 H 0.27699 0.05214 0.24752 0.0
H972 H 0.28936 0.99307 0.2281 0.0
C973 C 0.2001 0.95747 0.25043 0.0
C974 C 0.22547 0.00629 0.25981 0.0
C975 C 0.17528 0.9457 0.25104 0.0
C976 C 0.32372 0.05673 0.24677 0.0
C977 C 0.29844 0.04534 0.24713 0.0
C978 C 0.27185 0.99686 0.23715 0.0
C979 C 0.19699 0.97733 0.25052 0.0
C980 C 0.22342 0.9898 0.24946 0.0
C981 C 0.30082 0.02544 0.24684 0.0
C982 C 0.27399 0.01329 0.24758 0.0
H983 H 0.12194 0.97987 0.25259 0.0
H984 H 0.16529 0.0004 0.25139 0.0
H985 H 0.24577 0.97284 0.22969 0.0
H986 H 0.37576 0.02174 0.24522 0.0
H987 H 0.3317 0.00191 0.24599 0.0
C988 C 0.10548 0.97244 0.99564 0.0
C989 C 0.10298 0.95254 0.99623 0.0
C990 C 0.08029 0.9839 0.99608 0.0
C991 C 0.0019 0.98345 0.00945 0.0
H992 H 0.99673 0.02826 0.97994 0.0
C993 C 0.89461 0.02733 0.00252 0.0
C994 C 0.89736 0.04722 0.00198 0.0
C995 C 0.91966 0.01574 0.00198 0.0
C996 C 0.99798 0.01592 0.98842 0.0
H997 H 0.07194 0.9291 0.99752 0.0
H998 H 0.02801 0.94911 0.9981 0.0
H999 H 0.04037 0.00806 0.97831 0.0
H1000 H 0.92868 0.0705 0.00069 0.0
H1001 H 0.97234 0.05028 -7e-05 0.0
H1002 H 0.95951 0.99132 0.01956 0.0
C1003 C 0.04949 0.95584 0.99754 0.0
C1004 C 0.02298 0.00433 0.98747 0.0
C1005 C 0.07468 0.94438 0.99709 0.0
C1006 C 0.92575 0.05524 0.00108 0.0
C1007 C 0.95079 0.04365 0.00052 0.0
C1008 C 0.9769 0.99504 0.01039 0.0
C1009 C 0.052 0.97574 0.99713 0.0
C1010 C 0.02526 0.98796 0.99799 0.0
C1011 C 0.94804 0.02376 0.00087 0.0
C1012 C 0.97465 0.01143 -9e-05 0.0
H1013 H 0.12694 0.9792 0.99503 0.0
H1014 H 0.08303 0.99918 0.99595 0.0
H1015 H 0.00316 0.97111 0.01793 0.0
H1016 H 0.87307 0.02068 0.00317 0.0
H1017 H 0.91674 0.00048 0.00207 0.0
C1018 C 0.32366 0.19369 0.00073 0.0
C1019 C 0.352 0.20175 0.00193 0.0
C1020 C 0.29857 0.20524 0.00019 0.0
C1021 C 0.27483 0.25408 0.98963 0.0
H1022 H 0.2043 0.24022 0.01557 0.0
C1023 C 0.17566 0.30493 0.99737 0.0
C1024 C 0.14716 0.2971 0.9963 0.0
C1025 C 0.20052 0.29319 0.99777 0.0
C1026 C 0.22369 0.24417 0.00807 0.0
H1027 H 0.37613 0.22831 0.00375 0.0
H1028 H 0.33235 0.24843 0.00299 0.0
H1029 H 0.24794 0.22 0.0172 0.0
H1030 H 0.12249 0.27074 0.99457 0.0
H1031 H 0.16592 0.25027 0.99507 0.0
H1032 H 0.25062 0.27825 0.98051 0.0
C1033 C 0.32956 0.23317 0.00222 0.0
C1034 C 0.24872 0.23259 0.00903 0.0
C1035 C 0.35465 0.22162 0.00277 0.0
C1036 C 0.14411 0.27725 0.99545 0.0
C1037 C 0.169 0.2655 0.99585 0.0
C1038 C 0.24982 0.26566 0.98867 0.0
C1039 C 0.30123 0.22512 0.00083 0.0
C1040 C 0.2746 0.23743 -0.00016 0.0
C1041 C 0.1975 0.27333 0.9971 0.0
C1042 C 0.22396 0.26086 0.99791 0.0
H1043 H 0.32082 0.17844 1e-05 0.0
H1044 H 0.27711 0.1986 0.99893 0.0
H1045 H 0.29424 0.25805 0.98215 0.0
H1046 H 0.17882 0.32015 0.99811 0.0
H1047 H 0.22212 0.29968 0.99896 0.0
C1048 C 0.92625 0.69458 0.7476 0.0
C1049 C 0.89789 0.70259 0.74634 0.0
C1050 C 0.95129 0.70618 0.74814 0.0
C1051 C 0.97489 0.75511 0.75853 0.0
H1052 H 0.04552 0.74109 0.73277 0.0
C1053 C 0.07474 0.80562 0.75108 0.0
C1054 C 0.10311 0.79761 0.75228 0.0
C1055 C 0.0497 0.79403 0.75059 0.0
C1056 C 0.02609 0.74509 0.74021 0.0
H1057 H 0.87366 0.72911 0.74445 0.0
H1058 H 0.91736 0.7493 0.74522 0.0
H1059 H 0.00187 0.72091 0.73112 0.0
H1060 H 0.12733 0.77109 0.75415 0.0
H1061 H 0.08363 0.75091 0.75348 0.0
H1062 H 0.99911 0.7793 0.76762 0.0
C1063 C 0.92021 0.73405 0.74603 0.0
C1064 C 0.00106 0.73353 0.73925 0.0
C1065 C 0.89517 0.72246 0.74547 0.0
C1066 C 0.10583 0.77774 0.75317 0.0
C1067 C 0.08078 0.76615 0.75266 0.0
C1068 C 0.99992 0.76668 0.75949 0.0
C1069 C 0.94856 0.72605 0.74745 0.0
C1070 C 0.97515 0.7384 0.74839 0.0
C1071 C 0.05243 0.77415 0.75127 0.0
C1072 C 0.02583 0.76181 0.75034 0.0
H1073 H 0.92914 0.67933 0.74835 0.0
H1074 H 0.97277 0.69956 0.74944 0.0
H1075 H 0.95545 0.75911 0.76596 0.0
H1076 H 0.07185 0.82087 0.75032 0.0
H1077 H 0.02821 0.80065 0.74931 0.0
C1078 C 0.67647 0.94453 0.75105 0.0
C1079 C 0.64806 0.95254 0.75187 0.0
C1080 C 0.7015 0.95613 0.75062 0.0
C1081 C 0.72541 0.00482 0.73967 0.0
H1082 H 0.79533 0.99126 0.76633 0.0
C1083 C 0.82499 0.05544 0.74725 0.0
C1084 C 0.85341 0.04745 0.74642 0.0
C1085 C 0.79997 0.04383 0.7477 0.0
C1086 C 0.77611 0.99513 0.75864 0.0
H1087 H 0.62373 0.97905 0.75311 0.0
H1088 H 0.66744 0.99927 0.75253 0.0
H1089 H 0.75155 0.97117 0.76795 0.0
H1090 H 0.87778 0.02094 0.74519 0.0
H1091 H 0.83409 0.0007 0.7458 0.0
H1092 H 0.74996 0.02877 0.73037 0.0
C1093 C 0.67033 0.98401 0.75198 0.0
C1094 C 0.751 0.98362 0.75959 0.0
C1095 C 0.64528 0.97241 0.75243 0.0
C1096 C 0.85622 0.02757 0.74587 0.0
C1097 C 0.83118 0.01596 0.74634 0.0
C1098 C 0.75051 0.01632 0.73873 0.0
C1099 C 0.69873 0.97601 0.75098 0.0
C1100 C 0.72535 0.98833 0.75011 0.0
C1101 C 0.80277 0.02395 0.74734 0.0
C1102 C 0.77616 0.01162 0.74821 0.0
H1103 H 0.67942 0.92927 0.75055 0.0
H1104 H 0.72303 0.9495 0.74964 0.0
H1105 H 0.70619 0.00868 0.73198 0.0
H1106 H 0.82201 0.07069 0.74775 0.0
H1107 H 0.77844 0.05044 0.74868 0.0
C1108 C 0.64439 0.77733 0.99561 0.0
C1109 C 0.64746 0.79719 0.9961 0.0
C1110 C 0.66928 0.76558 0.99602 0.0
C1111 C 0.7499 0.76556 0.98816 0.0
H1112 H 0.74875 0.72061 0.01765 0.0
C1113 C 0.85506 0.72182 0.00227 0.0
C1114 C 0.85236 0.70194 0.00181 0.0
C1115 C 0.82998 0.73338 0.0017 0.0
C1116 C 0.74932 0.733 0.00921 0.0
H1117 H 0.67916 0.82027 0.99725 0.0
H1118 H 0.72247 0.79981 0.99808 0.0
H1119 H 0.70506 0.74078 0.01597 0.0
H1120 H 0.82109 0.67862 0.00058 0.0
H1121 H 0.7774 0.69878 -0.00051 0.0
H1122 H 0.79417 0.7578 0.98142 0.0
C1123 C 0.70085 0.7933 0.99719 0.0
C1124 C 0.72427 0.74455 0.00823 0.0
C1125 C 0.67598 0.80503 0.9968 0.0
C1126 C 0.82398 0.69388 0.001 0.0
C1127 C 0.7989 0.70544 0.00046 0.0
C1128 C 0.77495 0.75402 0.98914 0.0
C1129 C 0.6978 0.77343 0.99689 0.0
C1130 C 0.72428 0.76098 0.99771 0.0
C1131 C 0.80161 0.72532 0.00069 0.0
C1132 C 0.77497 0.73761 -0.0003 0.0
H1133 H 0.62274 0.77081 0.99503 0.0
H1134 H 0.66619 0.75034 0.99554 0.0
H1135 H 0.75049 0.77796 0.97973 0.0
H1136 H 0.87658 0.7285 0.00293 0.0
H1137 H 0.83281 0.74865 0.00216 0.0
C1138 C 0.32418 0.5562 0.74775 0.0
C1139 C 0.35257 0.5482 0.74668 0.0
C1140 C 0.29916 0.5446 0.74827 0.0
C1141 C 0.27546 0.49579 0.75894 0.0
H1142 H 0.20518 0.50951 0.73269 0.0
C1143 C 0.17623 0.44497 0.75112 0.0
C1144 C 0.14774 0.45285 0.75209 0.0
C1145 C 0.20113 0.45668 0.75074 0.0
C1146 C 0.22451 0.5056 0.74027 0.0
H1147 H 0.37687 0.5217 0.74509 0.0
H1148 H 0.33318 0.50148 0.74583 0.0
H1149 H 0.24884 0.52971 0.73111 0.0
H1150 H 0.12315 0.47924 0.75366 0.0
H1151 H 0.16665 0.49965 0.75318 0.0
H1152 H 0.25114 0.47167 0.7681 0.0
C1153 C 0.3303 0.51673 0.74651 0.0
C1154 C 0.24954 0.51717 0.73935 0.0
C1155 C 0.35534 0.52833 0.74597 0.0
C1156 C 0.14476 0.47271 0.75285 0.0
C1157 C 0.16969 0.48442 0.75247 0.0
C1158 C 0.25043 0.48422 0.75987 0.0
C1159 C 0.30192 0.52473 0.74775 0.0
C1160 C 0.27532 0.51239 0.74866 0.0
C1161 C 0.19816 0.47654 0.75132 0.0
C1162 C 0.22466 0.48898 0.75053 0.0
H1163 H 0.32124 0.57145 0.74837 0.0
H1164 H 0.27765 0.55122 0.74943 0.0
H1165 H 0.29479 0.49187 0.76651 0.0
H1166 H 0.17934 0.42974 0.75045 0.0
H1167 H 0.22272 0.45016 0.74964 0.0
C1168 C 0.92586 0.5554 0.5008 0.0
C1169 C 0.89749 0.54738 0.502 0.0
C1170 C 0.95091 0.5438 0.50032 0.0
C1171 C 0.97457 0.49485 0.49003 0.0
H1172 H 0.04508 0.50892 0.51589 0.0
C1173 C 0.07445 0.44439 0.49762 0.0
C1174 C 0.10281 0.45241 0.49643 0.0
C1175 C 0.04939 0.45597 0.49811 0.0
C1176 C 0.02569 0.5049 0.50843 0.0
H1177 H 0.87326 0.52087 0.50386 0.0
H1178 H 0.91696 0.50068 0.50321 0.0
H1179 H 0.0014 0.5291 0.51745 0.0
H1180 H 0.12701 0.47894 0.49458 0.0
H1181 H 0.08328 0.49911 0.49524 0.0
H1182 H 0.99886 0.47066 0.48101 0.0
C1183 C 0.91982 0.51592 0.50239 0.0
C1184 C 0.00064 0.51646 0.50933 0.0
C1185 C 0.89477 0.52752 0.50288 0.0
C1186 C 0.10551 0.47228 0.49556 0.0
C1187 C 0.08045 0.48386 0.49605 0.0
C1188 C 0.99962 0.48329 0.48913 0.0
C1189 C 0.94818 0.52392 0.50102 0.0
C1190 C 0.97478 0.51158 0.50015 0.0
C1191 C 0.0521 0.47585 0.49743 0.0
C1192 C 0.02548 0.48818 0.49831 0.0
H1193 H 0.92877 0.57064 0.50004 0.0
H1194 H 0.9724 0.55041 0.49906 0.0
H1195 H 0.95518 0.49083 0.48257 0.0
H1196 H 0.07157 0.42914 0.49837 0.0
H1197 H 0.02791 0.44934 0.49937 0.0
C1198 C 0.32448 0.69494 0.50058 0.0
C1199 C 0.35289 0.7029 0.50176 0.0
C1200 C 0.2995 0.70657 0.50009 0.0
C1201 C 0.27592 0.75549 0.48972 0.0
H1202 H 0.20543 0.74147 0.51562 0.0
C1203 C 0.17616 0.80597 0.49737 0.0
C1204 C 0.14777 0.79798 0.49624 0.0
C1205 C 0.20118 0.79436 0.49779 0.0
C1206 C 0.22482 0.74547 0.50814 0.0
H1207 H 0.37726 0.72936 0.50357 0.0
H1208 H 0.33361 0.74964 0.50289 0.0
H1209 H 0.24913 0.72133 0.51724 0.0
H1210 H 0.12346 0.7715 0.49442 0.0
H1211 H 0.16715 0.75127 0.49496 0.0
H1212 H 0.2516 0.77963 0.48062 0.0
C1213 C 0.33071 0.7344 0.50211 0.0
C1214 C 0.24988 0.73393 0.50909 0.0
C1215 C 0.35571 0.72276 0.50261 0.0
C1216 C 0.14499 0.77812 0.49535 0.0
C1217 C 0.17003 0.76651 0.49577 0.0
C1218 C 0.25086 0.76702 0.48877 0.0
C1219 C 0.30231 0.72644 0.50076 0.0
C1220 C 0.27573 0.7388 0.49988 0.0
C1221 C 0.19841 0.77449 0.4971 0.0
C1222 C 0.225 0.76215 0.49797 0.0
H1223 H 0.3215 0.6797 0.49984 0.0
H1224 H 0.27798 0.69999 0.49883 0.0
H1225 H 0.29532 0.75949 0.48224 0.0
H1226 H 0.1791 0.82121 0.49814 0.0
H1227 H 0.22269 0.80096 0.49902 0.0
C1228 C 0.82456 0.55437 0.24719 0.0
C1229 C 0.8531 0.54658 0.24619 0.0
C1230 C 0.79974 0.54259 0.24752 0.0
C1231 C 0.77665 0.49354 0.25776 0.0
H1232 H 0.70628 0.50733 0.23163 0.0
C1233 C 0.67676 0.44301 0.25028 0.0
C1234 C 0.64842 0.45108 0.25144 0.0
C1235 C 0.70185 0.45456 0.24975 0.0
C1236 C 0.72564 0.50339 0.23916 0.0
H1237 H 0.87789 0.52027 0.24455 0.0
H1238 H 0.83453 0.49972 0.24494 0.0
H1239 H 0.74987 0.52758 0.23009 0.0
H1240 H 0.62429 0.47764 0.25318 0.0
H1241 H 0.66807 0.49775 0.25242 0.0
H1242 H 0.75239 0.46936 0.26683 0.0
C1243 C 0.83139 0.51495 0.24571 0.0
C1244 C 0.75064 0.51499 0.23827 0.0
C1245 C 0.85623 0.52674 0.24537 0.0
C1246 C 0.64577 0.47095 0.25223 0.0
C1247 C 0.67086 0.4825 0.25168 0.0
C1248 C 0.75165 0.48194 0.25865 0.0
C1249 C 0.80285 0.52273 0.24686 0.0
C1250 C 0.77642 0.51022 0.24758 0.0
C1251 C 0.69919 0.47444 0.25034 0.0
C1252 C 0.72582 0.48675 0.24939 0.0
H1253 H 0.82134 0.56959 0.2479 0.0
H1254 H 0.77811 0.54904 0.24864 0.0
H1255 H 0.796 0.48962 0.26531 0.0
H1256 H 0.6796 0.42776 0.2496 0.0
H1257 H 0.72332 0.44791 0.24852 0.0
C1258 C 0.64641 0.27901 0.49619 0.0
C1259 C 0.64892 0.2989 0.49648 0.0
C1260 C 0.6716 0.26756 0.4968 0.0
C1261 C 0.75216 0.26809 0.48908 0.0
H1262 H 0.7514 0.2234 0.5189 0.0
C1263 C 0.85717 0.22358 0.50229 0.0
C1264 C 0.85391 0.20373 0.502 0.0
C1265 C 0.83237 0.23542 0.50195 0.0
C1266 C 0.75188 0.23572 0.51038 0.0
H1267 H 0.67997 0.32236 0.49746 0.0
H1268 H 0.72387 0.30237 0.49862 0.0
H1269 H 0.7077 0.24353 0.51727 0.0
H1270 H 0.82196 0.18076 0.50125 0.0
H1271 H 0.77884 0.20138 0.50053 0.0
H1272 H 0.79633 0.26024 0.48215 0.0
C1273 C 0.70242 0.29563 0.49776 0.0
C1274 C 0.72682 0.24725 0.50943 0.0
C1275 C 0.67722 0.30708 0.49717 0.0
C1276 C 0.8253 0.19599 0.50154 0.0
C1277 C 0.80053 0.20781 0.50122 0.0
C1278 C 0.77723 0.25655 0.49002 0.0
C1279 C 0.69989 0.27573 0.49769 0.0
C1280 C 0.72663 0.26354 0.49873 0.0
C1281 C 0.80376 0.22767 0.50135 0.0
C1282 C 0.77735 0.24019 0.50064 0.0
H1283 H 0.62495 0.27223 0.49561 0.0
H1284 H 0.66891 0.25228 0.49647 0.0
H1285 H 0.7526 0.2804 0.48054 0.0
H1286 H 0.87889 0.23001 0.50267 0.0
H1287 H 0.83561 0.25066 0.50229 0.0
C1288 C 0.39487 0.22305 0.74509 0.0
C1289 C 0.39774 0.20319 0.746 0.0
C1290 C 0.41984 0.23472 0.74559 0.0
C1291 C 0.50068 0.23438 0.73874 0.0
H1292 H 0.49858 0.28019 0.76705 0.0
C1293 C 0.60538 0.27853 0.7528 0.0
C1294 C 0.60275 0.2984 0.75188 0.0
C1295 C 0.58029 0.26698 0.75227 0.0
C1296 C 0.49943 0.26756 0.75894 0.0
H1297 H 0.42916 0.18003 0.748 0.0
H1298 H 0.47265 0.20038 0.749 0.0
H1299 H 0.45498 0.25995 0.76541 0.0
H1300 H 0.57159 0.32171 0.74985 0.0
H1301 H 0.52787 0.30154 0.74879 0.0
H1302 H 0.54513 0.24198 0.73227 0.0
C1303 C 0.45112 0.20693 0.74771 0.0
C1304 C 0.47443 0.25596 0.75798 0.0
C1305 C 0.42616 0.19526 0.74722 0.0
C1306 C 0.57442 0.30646 0.75063 0.0
C1307 C 0.54932 0.2949 0.75011 0.0
C1308 C 0.52568 0.24598 0.73969 0.0
C1309 C 0.44825 0.2268 0.74699 0.0
C1310 C 0.47476 0.23922 0.74788 0.0
C1311 C 0.55198 0.27502 0.7508 0.0
C1312 C 0.52537 0.26269 0.74982 0.0
H1313 H 0.37332 0.22963 0.7441 0.0
H1314 H 0.41688 0.24995 0.74476 0.0
H1315 H 0.50154 0.22175 0.73063 0.0
H1316 H 0.62685 0.27184 0.75383 0.0
H1317 H 0.58309 0.25173 0.7531 0.0
C1318 C 0.39532 0.02816 0.5027 0.0
C1319 C 0.39788 0.04803 0.50179 0.0
C1320 C 0.42045 0.01665 0.50213 0.0
C1321 C 0.5013 0.01736 0.50878 0.0
H1322 H 0.49933 0.97154 0.48047 0.0
C1323 C 0.60595 0.97291 0.49501 0.0
C1324 C 0.6031 0.95305 0.49594 0.0
C1325 C 0.58098 0.98457 0.49548 0.0
C1326 C 0.50015 0.98418 0.48858 0.0
H1327 H 0.42894 0.0714 0.49974 0.0
H1328 H 0.47274 0.0513 0.49863 0.0
H1329 H 0.45569 0.99173 0.4821 0.0
H1330 H 0.57169 0.92988 0.49796 0.0
H1331 H 0.52819 0.95022 0.49891 0.0
H1332 H 0.54576 0.00979 0.51527 0.0
C1333 C 0.45131 0.04463 0.49996 0.0
C1334 C 0.47512 0.99575 0.48953 0.0
C1335 C 0.42617 0.05614 0.50052 0.0
C1336 C 0.57469 0.94511 0.49716 0.0
C1337 C 0.54972 0.95678 0.49762 0.0
C1338 C 0.52633 0.00579 0.50783 0.0
C1339 C 0.44873 0.02474 0.50065 0.0
C1340 C 0.47538 0.01246 0.49966 0.0
C1341 C 0.55257 0.97664 0.49688 0.0
C1342 C 0.52604 0.98905 0.49774 0.0
H1343 H 0.37388 0.02144 0.50375 0.0
H1344 H 0.41772 0.0014 0.50296 0.0
H1345 H 0.5021 0.02999 0.5169 0.0
H1346 H 0.6275 0.9795 0.49401 0.0
H1347 H 0.58392 0.9998 0.49463 0.0
C1348 C 0.60506 0.77783 0.25247 0.0
C1349 C 0.60255 0.79772 0.25183 0.0
C1350 C 0.57989 0.76636 0.2519 0.0
C1351 C 0.49916 0.76711 0.25906 0.0
H1352 H 0.50034 0.72172 0.23015 0.0
C1353 C 0.39395 0.72322 0.24534 0.0
C1354 C 0.39664 0.70334 0.24604 0.0
C1355 C 0.41903 0.73478 0.24579 0.0
C1356 C 0.49974 0.73424 0.23842 0.0
H1357 H 0.57153 0.82115 0.25023 0.0
H1358 H 0.52766 0.80113 0.24911 0.0
H1359 H 0.54415 0.74177 0.23178 0.0
H1360 H 0.42788 0.68003 0.24759 0.0
H1361 H 0.47158 0.7002 0.24849 0.0
H1362 H 0.45475 0.75957 0.26571 0.0
C1363 C 0.54909 0.7944 0.25024 0.0
C1364 C 0.52487 0.74572 0.23937 0.0
C1365 C 0.57427 0.80588 0.2508 0.0
C1366 C 0.425 0.69529 0.24698 0.0
C1367 C 0.45008 0.70685 0.24741 0.0
C1368 C 0.47403 0.75562 0.25811 0.0
C1369 C 0.55161 0.7745 0.25069 0.0
C1370 C 0.52488 0.76228 0.24971 0.0
C1371 C 0.44739 0.72674 0.24692 0.0
C1372 C 0.47403 0.73904 0.24779 0.0
H1373 H 0.6265 0.77107 0.25332 0.0
H1374 H 0.58258 0.75109 0.25253 0.0
H1375 H 0.49857 0.77962 0.26734 0.0
H1376 H 0.37244 0.7299 0.24456 0.0
H1377 H 0.41621 0.75004 0.24514 0.0
C1378 C 0.57481 0.44519 0.99703 0.0
C1379 C 0.6032 0.45322 0.99614 0.0
C1380 C 0.54976 0.45678 0.99757 0.0
C1381 C 0.52598 0.5055 0.00862 0.0
H1382 H 0.45587 0.49205 0.9821 0.0
C1383 C 0.42634 0.55621 0.00124 0.0
C1384 C 0.39795 0.54818 0.00214 0.0
C1385 C 0.45138 0.54461 0.00074 0.0
C1386 C 0.47515 0.49589 0.98975 0.0
H1387 H 0.62746 0.47977 0.99486 0.0
H1388 H 0.58375 0.49995 0.9956 0.0
H1389 H 0.49954 0.47187 0.98042 0.0
H1390 H 0.37367 0.52165 0.00347 0.0
H1391 H 0.41737 0.50146 0.00277 0.0
H1392 H 0.50158 0.52952 0.01794 0.0
C1393 C 0.58089 0.48469 0.99614 0.0
C1394 C 0.50019 0.48433 0.98877 0.0
C1395 C 0.60594 0.47311 0.99559 0.0
C1396 C 0.3952 0.52831 0.00272 0.0
C1397 C 0.42024 0.51672 0.00221 0.0
C1398 C 0.50094 0.51706 0.00959 0.0
C1399 C 0.55251 0.47667 0.99723 0.0
C1400 C 0.52591 0.489 0.99819 0.0
C1401 C 0.44862 0.52473 0.00111 0.0
C1402 C 0.47522 0.51239 0.00017 0.0
H1403 H 0.5719 0.42993 0.99752 0.0
H1404 H 0.52825 0.45015 0.9986 0.0
H1405 H 0.54526 0.50934 0.01626 0.0
H1406 H 0.42926 0.57147 0.00072 0.0
H1407 H 0.4729 0.55124 -0.0003 0.0
C1408 C 0.15826 0.40626 0.43565 0.0
C1409 C 0.15522 0.39152 0.44797 0.0
C1410 C 0.15713 0.40245 0.41762 0.0
C1411 C 0.13486 0.36518 0.38532 0.0
H1412 H 0.18504 0.39419 0.35387 0.0
C1413 C 0.15795 0.34438 0.31282 0.0
C1414 C 0.15478 0.35898 0.30034 0.0
C1415 C 0.15686 0.34843 0.33082 0.0
C1416 C 0.17076 0.38608 0.3625 0.0
H1417 H 0.14886 0.3612 0.45107 0.0
H1418 H 0.14803 0.3544 0.41966 0.0
H1419 H 0.18578 0.40092 0.38532 0.0
H1420 H 0.14809 0.38926 0.29693 0.0
H1421 H 0.14682 0.39636 0.32843 0.0
H1422 H 0.12071 0.34994 0.36238 0.0
C1423 C 0.15038 0.36902 0.42385 0.0
C1424 C 0.17103 0.38998 0.38053 0.0
C1425 C 0.15105 0.37288 0.44189 0.0
C1426 C 0.15053 0.37771 0.30623 0.0
C1427 C 0.14994 0.38179 0.32423 0.0
C1428 C 0.13496 0.3611 0.36731 0.0
C1429 C 0.15342 0.38375 0.41145 0.0
C1430 C 0.15303 0.37962 0.3922 0.0
C1431 C 0.15309 0.36719 0.33668 0.0
C1432 C 0.15285 0.37155 0.35574 0.0
H1433 H 0.16124 0.42081 0.43994 0.0
H1434 H 0.15893 0.41424 0.40853 0.0
H1435 H 0.12027 0.35713 0.39379 0.0
H1436 H 0.16117 0.32981 0.30869 0.0
H1437 H 0.15953 0.33694 0.34017 0.0
C1438 C 0.07873 0.90332 0.31225 0.0
C1439 C 0.09484 0.89207 0.30037 0.0
C1440 C 0.07928 0.89939 0.33028 0.0
C1441 C 0.09661 0.86104 0.3621 0.0
H1442 H 0.09577 0.90241 0.39576 0.0
C1443 C 0.07855 0.84816 0.43629 0.0
C1444 C 0.0945 0.85942 0.44824 0.0
C1445 C 0.07911 0.85219 0.41829 0.0
C1446 C 0.09633 0.89067 0.38656 0.0
H1447 H 0.1245 0.86801 0.29814 0.0
H1448 H 0.12602 0.86141 0.3296 0.0
H1449 H 0.0968 0.90941 0.36441 0.0
H1450 H 0.12382 0.88364 0.45063 0.0
H1451 H 0.12538 0.89041 0.41919 0.0
H1452 H 0.09705 0.84231 0.38424 0.0
C1453 C 0.11242 0.87303 0.32497 0.0
C1454 C 0.09649 0.89469 0.36855 0.0
C1455 C 0.11169 0.87688 0.30693 0.0
C1456 C 0.11115 0.87475 0.44178 0.0
C1457 C 0.1119 0.8787 0.42375 0.0
C1458 C 0.09663 0.85702 0.38011 0.0
C1459 C 0.09613 0.88419 0.33688 0.0
C1460 C 0.09651 0.87993 0.35608 0.0
C1461 C 0.09583 0.86749 0.41177 0.0
C1462 C 0.09635 0.87179 0.39258 0.0
H1463 H 0.06537 0.91507 0.30763 0.0
H1464 H 0.06607 0.9081 0.339 0.0
H1465 H 0.09626 0.8493 0.3529 0.0
H1466 H 0.06533 0.83632 0.44084 0.0
H1467 H 0.06605 0.84346 0.40951 0.0
C1468 C 0.15942 0.84407 0.81289 0.0
C1469 C 0.15609 0.85873 0.80051 0.0
C1470 C 0.1586 0.84799 0.83091 0.0
C1471 C 0.13666 0.88539 0.86317 0.0
H1472 H 0.18729 0.85655 0.89449 0.0
C1473 C 0.15983 0.90621 0.93568 0.0
C1474 C 0.1567 0.89158 0.94813 0.0
C1475 C 0.15886 0.9022 0.91767 0.0
C1476 C 0.1729 0.86462 0.88589 0.0
H1477 H 0.14953 0.88903 0.79731 0.0
H1478 H 0.14921 0.89601 0.82868 0.0
H1479 H 0.18773 0.84975 0.86305 0.0
H1480 H 0.15026 0.86126 0.95147 0.0
H1481 H 0.14918 0.85424 0.91996 0.0
H1482 H 0.12267 0.90065 0.88613 0.0
C1483 C 0.15157 0.88137 0.82456 0.0
C1484 C 0.17299 0.86068 0.86787 0.0
C1485 C 0.15193 0.8774 0.80653 0.0
C1486 C 0.15266 0.87285 0.9422 0.0
C1487 C 0.15219 0.86881 0.92419 0.0
C1488 C 0.13693 0.88952 0.88117 0.0
C1489 C 0.1549 0.86672 0.83701 0.0
C1490 C 0.15479 0.87096 0.85625 0.0
C1491 C 0.15524 0.88345 0.91177 0.0
C1492 C 0.15497 0.87912 0.89269 0.0
H1493 H 0.1624 0.82951 0.80865 0.0
H1494 H 0.16061 0.83626 0.84005 0.0
H1495 H 0.12193 0.89339 0.85474 0.0
H1496 H 0.1629 0.92079 0.93985 0.0
H1497 H 0.16144 0.91372 0.90835 0.0
C1498 C 0.11212 0.3762 0.80682 0.0
C1499 C 0.09525 0.3914 0.8003 0.0
C1500 C 0.11286 0.3723 0.82485 0.0
C1501 C 0.09698 0.39389 0.86845 0.0
H1502 H 0.09759 0.3415 0.88412 0.0
C1503 C 0.07897 0.34741 0.93618 0.0
C1504 C 0.09491 0.35868 0.94813 0.0
C1505 C 0.07959 0.3514 0.91817 0.0
C1506 C 0.09716 0.35622 0.87999 0.0
H1507 H 0.06574 0.41435 0.8076 0.0
H1508 H 0.06645 0.4073 0.83896 0.0
H1509 H 0.09678 0.34851 0.85277 0.0
H1510 H 0.12432 0.38286 0.9505 0.0
H1511 H 0.12598 0.38956 0.91905 0.0
H1512 H 0.09627 0.4016 0.89566 0.0
C1513 C 0.07967 0.39862 0.83022 0.0
C1514 C 0.09712 0.36025 0.86198 0.0
C1515 C 0.07912 0.4026 0.8122 0.0
C1516 C 0.11165 0.37396 0.94165 0.0
C1517 C 0.11246 0.37787 0.92362 0.0
C1518 C 0.09683 0.38986 0.88646 0.0
C1519 C 0.09656 0.38343 0.83678 0.0
C1520 C 0.09698 0.37914 0.85597 0.0
C1521 C 0.09636 0.36668 0.91165 0.0
C1522 C 0.09688 0.37097 0.89246 0.0
H1523 H 0.12494 0.36735 0.798 0.0
H1524 H 0.12648 0.36068 0.82945 0.0
H1525 H 0.09726 0.40861 0.86432 0.0
H1526 H 0.0657 0.3356 0.94074 0.0
H1527 H 0.06653 0.34267 0.90939 0.0
C1528 C 0.84234 0.65589 0.68547 0.0
C1529 C 0.84558 0.6413 0.69795 0.0
C1530 C 0.84338 0.65184 0.66747 0.0
C1531 C 0.82946 0.61417 0.63581 0.0
H1532 H 0.87997 0.64304 0.60448 0.0
C1533 C 0.84206 0.59376 0.56272 0.0
C1534 C 0.84515 0.60845 0.55036 0.0
C1535 C 0.84315 0.59763 0.58075 0.0
C1536 C 0.86537 0.63501 0.61296 0.0
H1537 H 0.85235 0.61102 0.70135 0.0
H1538 H 0.85354 0.60393 0.66986 0.0
H1539 H 0.8795 0.65031 0.63587 0.0
H1540 H 0.85156 0.63876 0.54717 0.0
H1541 H 0.85232 0.64567 0.57856 0.0
H1542 H 0.81446 0.59927 0.61302 0.0
C1543 C 0.85039 0.61849 0.67406 0.0
C1544 C 0.86526 0.63914 0.63096 0.0
C1545 C 0.84986 0.62258 0.69206 0.0
C1546 C 0.84934 0.62711 0.55639 0.0
C1547 C 0.84996 0.63104 0.57442 0.0
C1548 C 0.8292 0.61023 0.61779 0.0
C1549 C 0.84718 0.63309 0.66161 0.0
C1550 C 0.84737 0.62872 0.64254 0.0
C1551 C 0.84687 0.61636 0.58686 0.0
C1552 C 0.84722 0.62056 0.6061 0.0
H1553 H 0.83909 0.67047 0.6896 0.0
H1554 H 0.84066 0.66333 0.65812 0.0
H1555 H 0.81519 0.60608 0.64446 0.0
H1556 H 0.83907 0.5792 0.55847 0.0
H1557 H 0.84131 0.58588 0.58987 0.0
C1558 C 0.89011 0.12435 0.69185 0.0
C1559 C 0.90654 0.1089 0.69828 0.0
C1560 C 0.88947 0.12837 0.67384 0.0
C1561 C 0.9044 0.10682 0.63015 0.0
H1562 H 0.90521 0.15928 0.61468 0.0
C1563 C 0.88866 0.12718 0.5572 0.0
C1564 C 0.90576 0.14222 0.55058 0.0
C1565 C 0.88817 0.12326 0.57523 0.0
C1566 C 0.90524 0.14454 0.61876 0.0
H1567 H 0.93537 0.08564 0.69084 0.0
H1568 H 0.93481 0.0929 0.65952 0.0
H1569 H 0.90628 0.15211 0.64601 0.0
H1570 H 0.93588 0.16491 0.55771 0.0
H1571 H 0.93558 0.15782 0.58908 0.0
H1572 H 0.9044 0.09923 0.60291 0.0
C1573 C 0.92188 0.10168 0.66832 0.0
C1574 C 0.90544 0.14043 0.63675 0.0
C1575 C 0.92234 0.09758 0.68631 0.0
C1576 C 0.92234 0.15328 0.56239 0.0
C1577 C 0.92202 0.14927 0.58041 0.0
C1578 C 0.90438 0.11093 0.61216 0.0
C1579 C 0.90542 0.11712 0.66185 0.0
C1580 C 0.90502 0.12151 0.64268 0.0
C1581 C 0.90495 0.1342 0.58706 0.0
C1582 C 0.9048 0.12984 0.60623 0.0
H1583 H 0.87756 0.13329 0.70072 0.0
H1584 H 0.87619 0.14018 0.66931 0.0
H1585 H 0.90369 0.09209 0.63423 0.0
H1586 H 0.87549 0.11845 0.54846 0.0
H1587 H 0.87439 0.11175 0.5799 0.0
C1588 C 0.84999 0.12237 0.19185 0.0
C1589 C 0.84588 0.14101 0.19793 0.0
C1590 C 0.8504 0.11848 0.17381 0.0
C1591 C 0.82927 0.13943 0.13055 0.0
H1592 H 0.87924 0.09929 0.11225 0.0
C1593 C 0.84952 0.12721 0.05622 0.0
C1594 C 0.84509 0.10851 0.0503 0.0
C1595 C 0.85012 0.13125 0.07422 0.0
C1596 C 0.86509 0.11048 0.11723 0.0
H1597 H 0.8397 0.17029 0.18992 0.0
H1598 H 0.8416 0.16369 0.15849 0.0
H1599 H 0.88002 0.1065 0.14365 0.0
H1600 H 0.83836 0.07935 0.05859 0.0
H1601 H 0.84004 0.08642 0.09009 0.0
H1602 H 0.81506 0.14367 0.10393 0.0
C1603 C 0.84353 0.15191 0.16758 0.0
C1604 C 0.86538 0.11457 0.13523 0.0
C1605 C 0.84264 0.15574 0.18562 0.0
C1606 C 0.84173 0.0939 0.06275 0.0
C1607 C 0.84283 0.09791 0.08076 0.0
C1608 C 0.82936 0.13553 0.11252 0.0
C1609 C 0.84718 0.1332 0.16141 0.0
C1610 C 0.84734 0.12904 0.14217 0.0
C1611 C 0.84681 0.11664 0.08665 0.0
C1612 C 0.84716 0.12096 0.10571 0.0
H1613 H 0.85231 0.11069 0.20103 0.0
H1614 H 0.85269 0.10386 0.16963 0.0
H1615 H 0.81461 0.1504 0.13538 0.0
H1616 H 0.85211 0.13877 0.04694 0.0
H1617 H 0.8534 0.14579 0.07845 0.0
C1618 C 0.9215 0.65227 0.06211 0.0
C1619 C 0.90579 0.64087 0.05016 0.0
C1620 C 0.9209 0.6483 0.08012 0.0
C1621 C 0.90422 0.60975 0.11186 0.0
H1622 H 0.90353 0.65112 0.14552 0.0
C1623 C 0.92168 0.59712 0.18615 0.0
C1624 C 0.90533 0.60823 0.19802 0.0
C1625 C 0.9212 0.6011 0.16814 0.0
C1626 C 0.9034 0.63938 0.13632 0.0
H1627 H 0.8768 0.61648 0.0478 0.0
H1628 H 0.87519 0.60981 0.07925 0.0
H1629 H 0.90272 0.65811 0.11417 0.0
H1630 H 0.87534 0.63213 0.20026 0.0
H1631 H 0.87392 0.63881 0.1688 0.0
H1632 H 0.90397 0.59101 0.13401 0.0
C1633 C 0.88852 0.62159 0.07468 0.0
C1634 C 0.90336 0.6434 0.11831 0.0
C1635 C 0.8893 0.62548 0.05664 0.0
C1636 C 0.88832 0.62335 0.19147 0.0
C1637 C 0.88766 0.62726 0.17343 0.0
C1638 C 0.90406 0.60573 0.12987 0.0
C1639 C 0.90439 0.63291 0.08665 0.0
C1640 C 0.9039 0.62863 0.10584 0.0
C1641 C 0.90416 0.61621 0.16154 0.0
C1642 C 0.90378 0.62049 0.14234 0.0
H1643 H 0.93457 0.66418 0.05754 0.0
H1644 H 0.93379 0.65714 0.0889 0.0
H1645 H 0.90499 0.59801 0.10266 0.0
H1646 H 0.93516 0.58543 0.19078 0.0
H1647 H 0.93458 0.5925 0.15943 0.0
C1648 C 0.65205 0.37361 0.94169 0.0
C1649 C 0.65654 0.39227 0.94769 0.0
C1650 C 0.65169 0.36963 0.92367 0.0
C1651 C 0.63759 0.39062 0.88063 0.0
H1652 H 0.68733 0.35019 0.86269 0.0
C1653 C 0.65274 0.37818 0.80604 0.0
C1654 C 0.65637 0.35945 0.80007 0.0
C1655 C 0.6524 0.3822 0.82406 0.0
C1656 C 0.67289 0.36131 0.86746 0.0
H1657 H 0.66367 0.42144 0.93952 0.0
H1658 H 0.66243 0.41447 0.90799 0.0
H1659 H 0.68678 0.35701 0.89413 0.0
H1660 H 0.66178 0.33017 0.80827 0.0
H1661 H 0.66001 0.33702 0.83965 0.0
H1662 H 0.62297 0.39466 0.85415 0.0
C1663 C 0.65939 0.40296 0.91727 0.0
C1664 C 0.67274 0.36526 0.88548 0.0
C1665 C 0.66024 0.40691 0.9353 0.0
C1666 C 0.65921 0.34478 0.81247 0.0
C1667 C 0.6584 0.34875 0.83049 0.0
C1668 C 0.63737 0.38649 0.86263 0.0
C1669 C 0.65532 0.38427 0.9113 0.0
C1670 C 0.65518 0.37999 0.89222 0.0
C1671 C 0.65522 0.36753 0.83655 0.0
C1672 C 0.65511 0.37181 0.85577 0.0
H1673 H 0.64919 0.36203 0.95091 0.0
H1674 H 0.64832 0.35512 0.91939 0.0
H1675 H 0.62362 0.40193 0.88554 0.0
H1676 H 0.65072 0.38982 0.79679 0.0
H1677 H 0.65045 0.39687 0.82815 0.0
C1678 C 0.61216 0.87386 0.94137 0.0
C1679 C 0.59516 0.85874 0.94792 0.0
C1680 C 0.61287 0.87773 0.92333 0.0
C1681 C 0.59663 0.85615 0.87977 0.0
H1682 H 0.59785 0.90852 0.86404 0.0
C1683 C 0.57915 0.90265 0.81199 0.0
C1684 C 0.59495 0.89128 0.80005 0.0
C1685 C 0.57973 0.89867 0.83 0.0
C1686 C 0.59724 0.89381 0.86819 0.0
H1687 H 0.56539 0.8359 0.94067 0.0
H1688 H 0.56606 0.84292 0.90931 0.0
H1689 H 0.59699 0.90155 0.8954 0.0
H1690 H 0.62403 0.86694 0.7977 0.0
H1691 H 0.6256 0.86026 0.82915 0.0
H1692 H 0.59579 0.84841 0.85256 0.0
C1693 C 0.5794 0.85155 0.91803 0.0
C1694 C 0.59718 0.88981 0.8862 0.0
C1695 C 0.57887 0.84759 0.93605 0.0
C1696 C 0.61148 0.87591 0.80654 0.0
C1697 C 0.61224 0.87201 0.82457 0.0
C1698 C 0.5965 0.86016 0.86176 0.0
C1699 C 0.59642 0.86666 0.91143 0.0
C1700 C 0.59684 0.87092 0.89223 0.0
C1701 C 0.5963 0.88331 0.83654 0.0
C1702 C 0.59677 0.87904 0.85573 0.0
H1703 H 0.6251 0.88266 0.95016 0.0
H1704 H 0.6266 0.88929 0.9187 0.0
H1705 H 0.59675 0.84144 0.88392 0.0
H1706 H 0.56604 0.91453 0.80742 0.0
H1707 H 0.56678 0.90748 0.83877 0.0
C1708 C 0.65065 0.87283 0.44192 0.0
C1709 C 0.65531 0.89152 0.4478 0.0
C1710 C 0.65015 0.86872 0.42393 0.0
C1711 C 0.6361 0.88948 0.38076 0.0
H1712 H 0.68587 0.849 0.36298 0.0
C1713 C 0.65214 0.87723 0.30625 0.0
C1714 C 0.65583 0.85852 0.30023 0.0
C1715 C 0.65154 0.88117 0.32428 0.0
C1716 C 0.67142 0.86013 0.36771 0.0
H1717 H 0.66255 0.9206 0.43943 0.0
H1718 H 0.66106 0.91342 0.40795 0.0
H1719 H 0.68512 0.85584 0.39442 0.0
H1720 H 0.66107 0.82921 0.30835 0.0
H1721 H 0.65887 0.83592 0.33975 0.0
H1722 H 0.6217 0.89354 0.35424 0.0
C1723 C 0.658 0.90198 0.41731 0.0
C1724 C 0.67114 0.86409 0.38573 0.0
C1725 C 0.65899 0.90606 0.43531 0.0
C1726 C 0.65847 0.8438 0.3126 0.0
C1727 C 0.6574 0.84769 0.33062 0.0
C1728 C 0.636 0.88534 0.36277 0.0
C1729 C 0.6538 0.88326 0.41146 0.0
C1730 C 0.65361 0.87886 0.3924 0.0
C1731 C 0.65415 0.86646 0.33673 0.0
C1732 C 0.65379 0.87067 0.35597 0.0
H1733 H 0.64781 0.86131 0.45123 0.0
H1734 H 0.64669 0.85418 0.41974 0.0
H1735 H 0.62215 0.90083 0.38563 0.0
H1736 H 0.65027 0.8889 0.29703 0.0
H1737 H 0.64957 0.89583 0.32841 0.0
C1738 C 0.60042 0.37781 0.44153 0.0
C1739 C 0.59626 0.35924 0.4478 0.0
C1740 C 0.6011 0.38147 0.42345 0.0
C1741 C 0.5805 0.35995 0.38035 0.0
H1742 H 0.63077 0.39979 0.36176 0.0
C1743 C 0.60075 0.3714 0.30588 0.0
C1744 C 0.59644 0.39006 0.29984 0.0
C1745 C 0.60145 0.3675 0.32392 0.0
C1746 C 0.61655 0.38868 0.36681 0.0
H1747 H 0.59033 0.32986 0.44005 0.0
H1748 H 0.59267 0.33606 0.40859 0.0
H1749 H 0.63121 0.393 0.39324 0.0
H1750 H 0.59008 0.41932 0.30795 0.0
H1751 H 0.59192 0.4125 0.33948 0.0
H1752 H 0.56651 0.35539 0.35373 0.0
C1753 C 0.59443 0.34796 0.41755 0.0
C1754 C 0.61664 0.38483 0.38486 0.0
C1755 C 0.59329 0.34436 0.43562 0.0
C1756 C 0.59334 0.40478 0.3122 0.0
C1757 C 0.59454 0.40092 0.33023 0.0
C1758 C 0.58078 0.36361 0.36227 0.0
C1759 C 0.5981 0.36659 0.4112 0.0
C1760 C 0.59848 0.37048 0.3919 0.0
C1761 C 0.59836 0.38222 0.33625 0.0
C1762 C 0.59867 0.37807 0.35535 0.0
H1763 H 0.60256 0.38961 0.4506 0.0
H1764 H 0.60344 0.39604 0.41911 0.0
H1765 H 0.56577 0.34907 0.38526 0.0
H1766 H 0.60314 0.35975 0.29667 0.0
H1767 H 0.6046 0.35297 0.32824 0.0
C1768 C 0.34775 0.62342 0.19206 0.0
C1769 C 0.34355 0.64214 0.19799 0.0
C1770 C 0.34829 0.61938 0.17406 0.0
C1771 C 0.36356 0.64012 0.13106 0.0
H1772 H 0.31303 0.60024 0.11287 0.0
C1773 C 0.34892 0.62798 0.05641 0.0
C1774 C 0.34487 0.6093 0.05038 0.0
C1775 C 0.3492 0.63195 0.07444 0.0
C1776 C 0.32769 0.6112 0.11771 0.0
H1777 H 0.33713 0.67133 0.18971 0.0
H1778 H 0.33872 0.66426 0.15821 0.0
H1779 H 0.31331 0.60705 0.14431 0.0
H1780 H 0.33864 0.58007 0.05851 0.0
H1781 H 0.34029 0.58682 0.08991 0.0
H1782 H 0.37866 0.64402 0.10466 0.0
C1783 C 0.34137 0.65275 0.16753 0.0
C1784 C 0.32769 0.61515 0.13574 0.0
C1785 C 0.34032 0.65676 0.18555 0.0
C1786 C 0.34155 0.59464 0.06275 0.0
C1787 C 0.3423 0.59855 0.08078 0.0
C1788 C 0.36393 0.63599 0.11307 0.0
C1789 C 0.34516 0.63401 0.16163 0.0
C1790 C 0.34552 0.62969 0.14256 0.0
C1791 C 0.34589 0.61729 0.08688 0.0
C1792 C 0.34589 0.62153 0.10612 0.0
H1793 H 0.35023 0.61184 0.20133 0.0
H1794 H 0.35143 0.60482 0.16983 0.0
H1795 H 0.37774 0.65129 0.13605 0.0
H1796 H 0.35131 0.63961 0.04719 0.0
H1797 H 0.35148 0.64659 0.07857 0.0
C1798 C 0.40241 0.12742 0.19173 0.0
C1799 C 0.40599 0.10877 0.19791 0.0
C1800 C 0.40175 0.13117 0.17366 0.0
C1801 C 0.4211 0.10962 0.13035 0.0
H1802 H 0.37189 0.15025 0.11224 0.0
C1803 C 0.40003 0.12183 0.05604 0.0
C1804 C 0.40466 0.14049 0.05007 0.0
C1805 C 0.3996 0.11781 0.07406 0.0
C1806 C 0.38582 0.13891 0.11715 0.0
H1807 H 0.41103 0.07936 0.19004 0.0
H1808 H 0.40872 0.08575 0.15859 0.0
H1809 H 0.3717 0.14328 0.14368 0.0
H1810 H 0.41192 0.16962 0.05831 0.0
H1811 H 0.41056 0.1626 0.08981 0.0
H1812 H 0.43452 0.10503 0.10363 0.0
C1813 C 0.40738 0.09762 0.16761 0.0
C1814 C 0.38587 0.13496 0.13518 0.0
C1815 C 0.40851 0.09391 0.18567 0.0
C1816 C 0.40838 0.15509 0.0625 0.0
C1817 C 0.40746 0.15111 0.08051 0.0
C1818 C 0.42067 0.1134 0.11229 0.0
C1819 C 0.40419 0.11632 0.16134 0.0
C1820 C 0.40366 0.12032 0.14206 0.0
C1821 C 0.40329 0.13242 0.08645 0.0
C1822 C 0.40316 0.12814 0.10554 0.0
H1823 H 0.40064 0.13919 0.20084 0.0
H1824 H 0.39983 0.14579 0.1694 0.0
H1825 H 0.43553 0.0985 0.13512 0.0
H1826 H 0.39717 0.11027 0.04678 0.0
H1827 H 0.39616 0.10329 0.07832 0.0
C1828 C 0.34961 0.1231 0.69184 0.0
C1829 C 0.34522 0.1418 0.69777 0.0
C1830 C 0.35003 0.11904 0.67383 0.0
C1831 C 0.36438 0.13982 0.63071 0.0
H1832 H 0.31407 0.09965 0.61285 0.0
C1833 C 0.34848 0.12762 0.55615 0.0
C1834 C 0.34455 0.10893 0.55014 0.0
C1835 C 0.34905 0.13158 0.57417 0.0
C1836 C 0.32867 0.1107 0.6176 0.0
H1837 H 0.33839 0.17095 0.68948 0.0
H1838 H 0.33976 0.16385 0.65797 0.0
H1839 H 0.31485 0.10646 0.64429 0.0
H1840 H 0.33885 0.07966 0.55829 0.0
H1841 H 0.341 0.0864 0.58968 0.0
H1842 H 0.37891 0.14381 0.6042 0.0
C1843 C 0.34265 0.15237 0.6673 0.0
C1844 C 0.32896 0.11464 0.63562 0.0
C1845 C 0.34173 0.15639 0.68531 0.0
C1846 C 0.34164 0.09424 0.56252 0.0
C1847 C 0.34268 0.09815 0.58054 0.0
C1848 C 0.36446 0.1357 0.61271 0.0
C1849 C 0.34658 0.13363 0.6614 0.0
C1850 C 0.3467 0.12929 0.64233 0.0
C1851 C 0.34616 0.1169 0.58664 0.0
C1852 C 0.34649 0.12113 0.60588 0.0
H1853 H 0.35229 0.11154 0.70111 0.0
H1854 H 0.35328 0.10449 0.66961 0.0
H1855 H 0.37849 0.15107 0.6356 0.0
H1856 H 0.35056 0.13927 0.54692 0.0
H1857 H 0.35123 0.14623 0.5783 0.0
C1858 C 0.38844 0.62448 0.69156 0.0
C1859 C 0.40512 0.60917 0.69803 0.0
C1860 C 0.38747 0.6283 0.67351 0.0
C1861 C 0.40239 0.60647 0.62987 0.0
H1862 H 0.40269 0.65884 0.61412 0.0
C1863 C 0.38821 0.62638 0.55659 0.0
C1864 C 0.4052 0.64155 0.55013 0.0
C1865 C 0.38726 0.6225 0.57463 0.0
C1866 C 0.40286 0.64412 0.61827 0.0
H1867 H 0.43403 0.58593 0.69064 0.0
H1868 H 0.43293 0.59286 0.65926 0.0
H1869 H 0.40358 0.65188 0.64547 0.0
H1870 H 0.43471 0.66447 0.55754 0.0
H1871 H 0.43365 0.65743 0.58889 0.0
H1872 H 0.40281 0.59871 0.60266 0.0
C1873 C 0.42003 0.60168 0.66805 0.0
C1874 C 0.40294 0.64013 0.63629 0.0
C1875 C 0.42081 0.59778 0.68607 0.0
C1876 C 0.42124 0.65274 0.5621 0.0
C1877 C 0.42048 0.64877 0.58011 0.0
C1878 C 0.40251 0.61047 0.61185 0.0
C1879 C 0.40335 0.617 0.66152 0.0
C1880 C 0.40278 0.62125 0.64233 0.0
C1881 C 0.40346 0.63361 0.58662 0.0
C1882 C 0.40282 0.62935 0.60581 0.0
H1883 H 0.37595 0.63347 0.70041 0.0
H1884 H 0.37402 0.64002 0.66895 0.0
H1885 H 0.40186 0.59176 0.63402 0.0
H1886 H 0.37545 0.61755 0.54773 0.0
H1887 H 0.37354 0.6109 0.57919 0.0
C1888 C 0.26222 0.3672 0.24829 0.0
C1889 C 0.25583 0.34767 0.24886 0.0
C1890 C 0.29144 0.37356 0.24796 0.0
C1891 C 0.36762 0.35857 0.25855 0.0
H1892 H 0.38938 0.40124 0.22897 0.0
C1893 C 0.48889 0.38115 0.24815 0.0
C1894 C 0.49509 0.40072 0.24847 0.0
C1895 C 0.45974 0.37467 0.24795 0.0
C1896 C 0.38358 0.38943 0.23744 0.0
H1897 H 0.27521 0.3195 0.24938 0.0
H1898 H 0.32621 0.33061 0.24859 0.0
H1899 H 0.33853 0.3898 0.22893 0.0
H1900 H 0.47543 0.42881 0.24877 0.0
H1901 H 0.4245 0.41746 0.24851 0.0
H1902 H 0.41269 0.35819 0.26702 0.0
C1903 C 0.3086 0.34102 0.24866 0.0
C1904 C 0.35444 0.38287 0.23742 0.0
C1905 C 0.27935 0.33464 0.24901 0.0
C1906 C 0.47144 0.41365 0.2485 0.0
C1907 C 0.44225 0.40715 0.24825 0.0
C1908 C 0.39676 0.36511 0.25853 0.0
C1909 C 0.315 0.36056 0.24817 0.0
C1910 C 0.34609 0.36739 0.248 0.0
C1911 C 0.43607 0.38758 0.24804 0.0
C1912 C 0.40508 0.38062 0.248 0.0
H1913 H 0.24465 0.37763 0.24823 0.0
H1914 H 0.29556 0.38871 0.24784 0.0
H1915 H 0.36185 0.34682 0.26707 0.0
H1916 H 0.50657 0.37079 0.24808 0.0
H1917 H 0.45574 0.35951 0.24756 0.0
C1918 C 0.77989 0.83415 0.24846 0.0
C1919 C 0.75643 0.84723 0.24825 0.0
C1920 C 0.80917 0.84046 0.24798 0.0
C1921 C 0.85506 0.88211 0.23622 0.0
H1922 H 0.91329 0.85803 0.26626 0.0
C1923 C 0.97115 0.91386 0.24765 0.0
C1924 C 0.99512 0.90117 0.24797 0.0
C1925 C 0.94215 0.90706 0.24723 0.0
C1926 C 0.89738 0.86476 0.25764 0.0
H1927 H 0.74539 0.87721 0.24738 0.0
H1928 H 0.79634 0.88818 0.24675 0.0
H1929 H 0.86253 0.84648 0.2663 0.0
H1930 H 0.00737 0.87137 0.248 0.0
H1931 H 0.95681 0.85955 0.24717 0.0
H1932 H 0.88989 0.90048 0.22766 0.0
C1933 C 0.79215 0.87304 0.24703 0.0
C1934 C 0.86828 0.85813 0.25765 0.0
C1935 C 0.76291 0.86674 0.2475 0.0
C1936 C 0.98943 0.88154 0.2478 0.0
C1937 C 0.96044 0.87475 0.24743 0.0
C1938 C 0.88414 0.88876 0.23623 0.0
C1939 C 0.81564 0.85999 0.24728 0.0
C1940 C 0.84675 0.86677 0.24699 0.0
C1941 C 0.93646 0.88743 0.24717 0.0
C1942 C 0.90562 0.8802 0.24698 0.0
H1943 H 0.77567 0.81902 0.24898 0.0
H1944 H 0.82673 0.83003 0.24798 0.0
H1945 H 0.83914 0.88889 0.22763 0.0
H1946 H 0.97474 0.92906 0.2478 0.0
H1947 H 0.92416 0.91719 0.24725 0.0
C1948 C 0.2634 0.8836 0.00102 0.0
C1949 C 0.25689 0.90311 0.00029 0.0
C1950 C 0.29266 0.87733 0.00151 0.0
C1951 C 0.36877 0.89233 0.99095 0.0
H1952 H 0.39044 0.84987 0.02079 0.0
C1953 C 0.48996 0.86897 0.00069 0.0
C1954 C 0.49569 0.84934 0.00043 0.0
C1955 C 0.46095 0.87573 0.0011 0.0
C1956 C 0.38468 0.86163 0.01226 0.0
H1957 H 0.27608 0.93133 -0.00035 0.0
H1958 H 0.32716 0.92036 0.00069 0.0
H1959 H 0.33968 0.86143 0.02085 0.0
H1960 H 0.47536 0.82144 0.00051 0.0
H1961 H 0.42476 0.83327 0.00115 0.0
H1962 H 0.41378 0.89251 0.98235 0.0
C1963 C 0.30961 0.90991 0.00064 0.0
C1964 C 0.35559 0.86825 0.01229 0.0
C1965 C 0.28032 0.9162 0.00015 0.0
C1966 C 0.47174 0.83664 0.00072 0.0
C1967 C 0.44273 0.84342 0.00119 0.0
C1968 C 0.39788 0.88572 0.99094 0.0
C1969 C 0.31613 0.89039 0.0013 0.0
C1970 C 0.34724 0.88364 0.00158 0.0
C1971 C 0.437 0.86304 0.00133 0.0
C1972 C 0.40615 0.87025 0.00155 0.0
H1973 H 0.2459 0.87312 0.00109 0.0
H1974 H 0.29688 0.86219 0.00175 0.0
H1975 H 0.363 0.90402 0.98234 0.0
H1976 H 0.50788 0.87915 0.00052 0.0
H1977 H 0.4573 0.89093 0.00142 0.0
C1978 C 0.98944 0.36867 0.00105 0.0
C1979 C 0.99523 0.34906 0.0005 0.0
C1980 C 0.96041 0.3754 0.0014 0.0
C1981 C 0.88394 0.36099 0.01176 0.0
H1982 H 0.86285 0.40411 0.9826 0.0
C1983 C 0.76288 0.38352 0.00042 0.0
C1984 C 0.75652 0.40306 6e-05 0.0
C1985 C 0.79209 0.37714 0.00089 0.0
C1986 C 0.86845 0.39221 0.99099 0.0
H1987 H 0.97498 0.32114 -3e-05 0.0
H1988 H 0.92433 0.3329 0.00047 0.0
H1989 H 0.9136 0.39256 0.98268 0.0
H1990 H 0.77593 0.43123 8e-05 0.0
H1991 H 0.8269 0.42008 0.0011 0.0
H1992 H 0.83878 0.36062 0.02007 0.0
C1993 C 0.94227 0.34307 0.00081 0.0
C1994 C 0.89754 0.38558 0.99103 0.0
C1995 C 0.97131 0.33633 0.00042 0.0
C1996 C 0.78005 0.41608 0.00028 0.0
C1997 C 0.80928 0.40969 0.00076 0.0
C1998 C 0.85485 0.36764 0.01175 0.0
C1999 C 0.93648 0.36268 0.00124 0.0
C2000 C 0.90561 0.36986 0.00138 0.0
C2001 C 0.81565 0.39014 0.00104 0.0
C2002 C 0.84673 0.38329 0.00132 0.0
H2003 H 0.00733 0.37888 0.00117 0.0
H2004 H 0.95671 0.39059 0.00196 0.0
H2005 H 0.88953 0.34903 0.02009 0.0
H2006 H 0.7453 0.37309 0.0002 0.0
H2007 H 0.7962 0.36199 0.00084 0.0
C2008 C 0.73829 0.63275 0.74992 0.0
C2009 C 0.74457 0.6523 0.74943 0.0
C2010 C 0.70912 0.62632 0.75019 0.0
C2011 C 0.63301 0.64131 0.76061 0.0
H2012 H 0.61119 0.59831 0.7315 0.0
C2013 C 0.51161 0.61864 0.75024 0.0
C2014 C 0.5054 0.59908 0.74997 0.0
C2015 C 0.54078 0.62512 0.75044 0.0
C2016 C 0.61698 0.61018 0.73987 0.0
H2017 H 0.72501 0.68043 0.74892 0.0
H2018 H 0.67404 0.66916 0.74931 0.0
H2019 H 0.66201 0.60969 0.73134 0.0
H2020 H 0.52506 0.57098 0.74985 0.0
H2021 H 0.57593 0.58229 0.7504 0.0
H2022 H 0.58797 0.64179 0.76916 0.0
C2023 C 0.69175 0.65882 0.74964 0.0
C2024 C 0.64612 0.61672 0.73977 0.0
C2025 C 0.72096 0.66527 0.74932 0.0
C2026 C 0.52905 0.58615 0.74999 0.0
C2027 C 0.55823 0.59263 0.7502 0.0
C2028 C 0.60386 0.63476 0.76073 0.0
C2029 C 0.6855 0.63927 0.75002 0.0
C2030 C 0.65448 0.63236 0.75014 0.0
C2031 C 0.56445 0.6122 0.75038 0.0
C2032 C 0.59549 0.61911 0.75036 0.0
H2033 H 0.75593 0.62236 0.75006 0.0
H2034 H 0.70506 0.61117 0.75072 0.0
H2035 H 0.63883 0.65322 0.76894 0.0
H2036 H 0.49393 0.62901 0.75018 0.0
H2037 H 0.54478 0.64029 0.75034 0.0
C2038 C 0.01195 0.11827 0.75071 0.0
C2039 C 0.00598 0.09868 0.75048 0.0
C2040 C 0.04103 0.1249 0.75095 0.0
C2041 C 0.11735 0.11051 0.76162 0.0
H2042 H 0.13871 0.153 0.73174 0.0
C2043 C 0.23852 0.13303 0.75044 0.0
C2044 C 0.24476 0.15258 0.7498 0.0
C2045 C 0.20935 0.12657 0.75086 0.0
C2046 C 0.13305 0.14128 0.74034 0.0
H2047 H 0.02598 0.07068 0.75042 0.0
H2048 H 0.07675 0.08226 0.75075 0.0
H2049 H 0.08796 0.14147 0.73189 0.0
H2050 H 0.22516 0.18068 0.74925 0.0
H2051 H 0.17426 0.16942 0.75018 0.0
H2052 H 0.16243 0.11032 0.77008 0.0
C2053 C 0.05889 0.0925 0.75091 0.0
C2054 C 0.10395 0.13466 0.7404 0.0
C2055 C 0.02978 0.08586 0.75062 0.0
C2056 C 0.22114 0.16553 0.74968 0.0
C2057 C 0.19194 0.15907 0.75011 0.0
C2058 C 0.14645 0.11715 0.76158 0.0
C2059 C 0.06485 0.1121 0.751 0.0
C2060 C 0.09577 0.11918 0.75103 0.0
C2061 C 0.1857 0.13951 0.75067 0.0
C2062 C 0.15466 0.1326 0.75091 0.0
H2063 H 0.99415 0.12855 0.75065 0.0
H2064 H 0.04486 0.14008 0.75125 0.0
H2065 H 0.11167 0.09874 0.77015 0.0
H2066 H 0.25618 0.12265 0.75049 0.0
H2067 H 0.20534 0.11141 0.75105 0.0
C2068 C 0.51144 0.13182 0.99795 0.0
C2069 C 0.50529 0.15139 0.9984 0.0
C2070 C 0.54057 0.1253 0.99771 0.0
C2071 C 0.61681 0.14002 0.98734 0.0
H2072 H 0.63823 0.09715 0.01674 0.0
C2073 C 0.73801 0.1173 0.99814 0.0
C2074 C 0.74422 0.09774 0.99861 0.0
C2075 C 0.70885 0.12378 0.99781 0.0
C2076 C 0.63255 0.10898 0.00828 0.0
H2077 H 0.52503 0.17946 0.99886 0.0
H2078 H 0.57593 0.16805 0.99852 0.0
H2079 H 0.58747 0.10865 0.01673 0.0
H2080 H 0.72458 0.06964 0.99895 0.0
H2081 H 0.67369 0.08095 0.99816 0.0
H2082 H 0.66189 0.14033 0.97887 0.0
C2083 C 0.55815 0.15777 0.9982 0.0
C2084 C 0.60345 0.11559 0.00829 0.0
C2085 C 0.52898 0.1643 0.99849 0.0
C2086 C 0.72058 0.0848 0.99865 0.0
C2087 C 0.69139 0.09129 0.9983 0.0
C2088 C 0.64591 0.13339 0.98731 0.0
C2089 C 0.56427 0.13819 0.99788 0.0
C2090 C 0.59524 0.13119 0.99783 0.0
C2091 C 0.68518 0.11086 0.99792 0.0
C2092 C 0.65415 0.1178 0.99779 0.0
H2093 H 0.49374 0.12148 0.99783 0.0
H2094 H 0.54453 0.11014 0.99723 0.0
H2095 H 0.6111 0.1519 0.97895 0.0
H2096 H 0.75568 0.12767 0.99816 0.0
H2097 H 0.70487 0.13894 0.99777 0.0
C2098 C 0.22108 0.58548 0.99835 0.0
C2099 C 0.24468 0.59846 0.99833 0.0
C2100 C 0.19187 0.59193 0.99795 0.0
C2101 C 0.14619 0.63399 0.00783 0.0
H2102 H 0.08813 0.60892 0.97837 0.0
C2103 C 0.02897 0.66438 0.9978 0.0
C2104 C 0.00539 0.65139 0.99786 0.0
C2105 C 0.05818 0.65796 0.9975 0.0
C2106 C 0.104 0.61596 0.98682 0.0
H2107 H 0.25604 0.6284 0.99775 0.0
H2108 H 0.20517 0.63959 0.99696 0.0
H2109 H 0.13902 0.59755 0.97858 0.0
H2110 H 0.99407 0.62144 0.99758 0.0
H2111 H 0.04498 0.61027 0.99725 0.0
H2112 H 0.1112 0.65234 0.01614 0.0
C2113 C 0.20923 0.62444 0.99748 0.0
C2114 C 0.13316 0.60943 0.98693 0.0
C2115 C 0.23841 0.618 0.99783 0.0
C2116 C 0.0117 0.63185 0.9975 0.0
C2117 C 0.0409 0.62543 0.99721 0.0
C2118 C 0.11703 0.64049 0.00773 0.0
C2119 C 0.18562 0.61148 0.99758 0.0
C2120 C 0.1546 0.61838 0.99743 0.0
C2121 C 0.0645 0.6384 0.99726 0.0
C2122 C 0.09558 0.63156 0.99723 0.0
H2123 H 0.22513 0.57033 0.99876 0.0
H2124 H 0.17417 0.58159 0.99824 0.0
H2125 H 0.16206 0.64102 0.01628 0.0
H2126 H 0.0249 0.67954 0.99801 0.0
H2127 H 0.07583 0.66834 0.9973 0.0
C2128 C 0.48922 0.88194 0.74756 0.0
C2129 C 0.49534 0.90152 0.74787 0.0
C2130 C 0.46008 0.87541 0.74734 0.0
C2131 C 0.38384 0.89021 0.75796 0.0
H2132 H 0.36211 0.84713 0.72891 0.0
C2133 C 0.2626 0.86748 0.74803 0.0
C2134 C 0.25638 0.84793 0.74853 0.0
C2135 C 0.29176 0.87395 0.74771 0.0
C2136 C 0.3679 0.85905 0.73723 0.0
H2137 H 0.47556 0.92958 0.74799 0.0
H2138 H 0.42474 0.91818 0.7474 0.0
H2139 H 0.41292 0.85865 0.72864 0.0
H2140 H 0.276 0.81982 0.74901 0.0
H2141 H 0.32694 0.83114 0.74854 0.0
H2142 H 0.33883 0.89062 0.76652 0.0
C2143 C 0.44249 0.90787 0.74759 0.0
C2144 C 0.39702 0.86566 0.73708 0.0
C2145 C 0.47164 0.91441 0.74783 0.0
C2146 C 0.28002 0.83498 0.7486 0.0
C2147 C 0.30921 0.84146 0.74824 0.0
C2148 C 0.35474 0.88362 0.75808 0.0
C2149 C 0.43635 0.88829 0.74741 0.0
C2150 C 0.40534 0.88132 0.74745 0.0
C2151 C 0.31542 0.86102 0.74786 0.0
C2152 C 0.34641 0.86797 0.74772 0.0
H2153 H 0.50694 0.87161 0.74764 0.0
H2154 H 0.45615 0.86024 0.74743 0.0
H2155 H 0.3896 0.90209 0.76633 0.0
H2156 H 0.24494 0.87786 0.74792 0.0
H2157 H 0.29578 0.8891 0.74718 0.0
C2158 C 0.77992 0.33484 0.74818 0.0
C2159 C 0.75651 0.34795 0.74799 0.0
C2160 C 0.80922 0.3411 0.74774 0.0
C2161 C 0.85537 0.38268 0.73614 0.0
H2162 H 0.91337 0.35831 0.76615 0.0
C2163 C 0.97179 0.41393 0.74765 0.0
C2164 C 0.99563 0.40114 0.74794 0.0
C2165 C 0.94272 0.40725 0.74722 0.0
C2166 C 0.89752 0.36513 0.75754 0.0
H2167 H 0.74559 0.37795 0.74716 0.0
H2168 H 0.7966 0.38883 0.74659 0.0
H2169 H 0.86251 0.34694 0.76615 0.0
H2170 H 0.00756 0.37128 0.7479 0.0
H2171 H 0.95687 0.35969 0.74706 0.0
H2172 H 0.89037 0.40095 0.72764 0.0
C2173 C 0.79234 0.3737 0.74683 0.0
C2174 C 0.86837 0.3586 0.75753 0.0
C2175 C 0.76307 0.36745 0.74727 0.0
C2176 C 0.98973 0.38153 0.74773 0.0
C2177 C 0.96066 0.37487 0.74735 0.0
C2178 C 0.88451 0.38922 0.73618 0.0
C2179 C 0.81578 0.36061 0.7471 0.0
C2180 C 0.84692 0.36733 0.74686 0.0
C2181 C 0.93682 0.38765 0.74712 0.0
C2182 C 0.90591 0.38055 0.74691 0.0
H2183 H 0.77565 0.31971 0.74868 0.0
H2184 H 0.82674 0.33063 0.74773 0.0
H2185 H 0.83953 0.38952 0.72756 0.0
H2186 H 0.97555 0.42912 0.74783 0.0
H2187 H 0.92484 0.41747 0.74725 0.0
C2188 C 0.26246 0.3826 0.50023 0.0
C2189 C 0.25615 0.40214 0.49971 0.0
C2190 C 0.29165 0.37618 0.50051 0.0
C2191 C 0.3678 0.39105 0.48977 0.0
H2192 H 0.38966 0.34837 0.51929 0.0
C2193 C 0.4891 0.36851 0.49994 0.0
C2194 C 0.49534 0.34895 0.49963 0.0
C2195 C 0.45993 0.37497 0.50018 0.0
C2196 C 0.38384 0.36018 0.51084 0.0
H2197 H 0.27566 0.43028 0.49923 0.0
H2198 H 0.32661 0.41907 0.49991 0.0
H2199 H 0.33883 0.35984 0.51943 0.0
H2200 H 0.47574 0.32084 0.49942 0.0
H2201 H 0.42479 0.33215 0.49976 0.0
H2202 H 0.41282 0.39141 0.4812 0.0
C2203 C 0.30895 0.40869 0.49985 0.0
C2204 C 0.35471 0.36675 0.51091 0.0
C2205 C 0.27973 0.41512 0.49956 0.0
C2206 C 0.47171 0.336 0.49968 0.0
C2207 C 0.44251 0.34248 0.49997 0.0
C2208 C 0.39693 0.3845 0.48972 0.0
C2209 C 0.31526 0.38914 0.50029 0.0
C2210 C 0.34632 0.38226 0.50037 0.0
C2211 C 0.43629 0.36204 0.50016 0.0
C2212 C 0.40529 0.36898 0.50024 0.0
H2213 H 0.24483 0.3722 0.5003 0.0
H2214 H 0.29571 0.36102 0.5006 0.0
H2215 H 0.362 0.40282 0.48126 0.0
H2216 H 0.50675 0.37889 0.49995 0.0
H2217 H 0.45591 0.39013 0.50056 0.0
C2218 C 0.97132 0.83588 0.50043 0.0
C2219 C 0.99497 0.84881 0.50042 0.0
C2220 C 0.94214 0.84236 0.50071 0.0
C2221 C 0.89652 0.88448 0.51134 0.0
H2222 H 0.83845 0.85956 0.48178 0.0
C2223 C 0.7797 0.91526 0.49958 0.0
C2224 C 0.75602 0.90235 0.4996 0.0
C2225 C 0.80887 0.90873 0.50001 0.0
C2226 C 0.85432 0.86654 0.49025 0.0
H2227 H 0.00645 0.87873 0.50074 0.0
H2228 H 0.95561 0.89002 0.50102 0.0
H2229 H 0.88923 0.84811 0.48201 0.0
H2230 H 0.74446 0.87244 0.50021 0.0
H2231 H 0.79525 0.86111 0.50106 0.0
H2232 H 0.86157 0.90298 0.5195 0.0
C2233 C 0.9596 0.87485 0.50106 0.0
C2234 C 0.88344 0.85997 0.4904 0.0
C2235 C 0.98877 0.86837 0.50079 0.0
C2236 C 0.76216 0.88278 0.50013 0.0
C2237 C 0.79129 0.87627 0.50051 0.0
C2238 C 0.8674 0.89108 0.51117 0.0
C2239 C 0.93593 0.86193 0.50096 0.0
C2240 C 0.9049 0.86885 0.50094 0.0
C2241 C 0.81499 0.88916 0.50042 0.0
C2242 C 0.84597 0.88218 0.50062 0.0
H2243 H 0.97531 0.82071 0.50021 0.0
H2244 H 0.92444 0.83202 0.50087 0.0
H2245 H 0.91239 0.89147 0.5198 0.0
H2246 H 0.77575 0.93042 0.49916 0.0
H2247 H 0.82664 0.91903 0.49974 0.0
C2248 C 0.52947 0.08439 0.25053 0.0
C2249 C 0.50613 0.09755 0.25029 0.0
C2250 C 0.5588 0.09061 0.25097 0.0
C2251 C 0.60496 0.13247 0.26174 0.0
H2252 H 0.6633 0.10711 0.23269 0.0
C2253 C 0.72152 0.16332 0.2499 0.0
C2254 C 0.74537 0.15053 0.25006 0.0
C2255 C 0.69245 0.15666 0.25039 0.0
C2256 C 0.64735 0.11421 0.24104 0.0
H2257 H 0.49535 0.12759 0.25033 0.0
H2258 H 0.54639 0.13838 0.25089 0.0
H2259 H 0.61243 0.09578 0.23277 0.0
H2260 H 0.7573 0.12069 0.25095 0.0
H2261 H 0.70661 0.10912 0.25189 0.0
H2262 H 0.63987 0.15099 0.26989 0.0
C2263 C 0.54207 0.12326 0.251 0.0
C2264 C 0.61819 0.1077 0.24109 0.0
C2265 C 0.51277 0.11705 0.25057 0.0
C2266 C 0.73946 0.13094 0.25076 0.0
C2267 C 0.7104 0.12429 0.2512 0.0
C2268 C 0.63411 0.13899 0.26165 0.0
C2269 C 0.56545 0.11012 0.25118 0.0
C2270 C 0.59662 0.11679 0.2514 0.0
C2271 C 0.68655 0.13706 0.25099 0.0
C2272 C 0.65563 0.12997 0.25127 0.0
H2273 H 0.52512 0.06927 0.25038 0.0
H2274 H 0.57626 0.08011 0.25133 0.0
H2275 H 0.58902 0.1396 0.27005 0.0
H2276 H 0.72527 0.1785 0.24933 0.0
H2277 H 0.67456 0.16686 0.24999 0.0
C2278 C 0.01048 0.61848 0.25071 0.0
C2279 C 0.00478 0.59885 0.25044 0.0
C2280 C 0.03947 0.62526 0.25108 0.0
C2281 C 0.11584 0.61122 0.26206 0.0
H2282 H 0.13719 0.65375 0.23222 0.0
C2283 C 0.23697 0.63366 0.25086 0.0
C2284 C 0.24329 0.6532 0.25018 0.0
C2285 C 0.20777 0.62726 0.25132 0.0
C2286 C 0.13152 0.64202 0.2408 0.0
H2287 H 0.02516 0.57096 0.25044 0.0
H2288 H 0.07575 0.58282 0.25099 0.0
H2289 H 0.08648 0.64212 0.23225 0.0
H2290 H 0.22381 0.68134 0.24961 0.0
H2291 H 0.17285 0.67016 0.25062 0.0
H2292 H 0.16088 0.6111 0.2706 0.0
C2293 C 0.05776 0.59296 0.25108 0.0
C2294 C 0.10245 0.63534 0.24081 0.0
C2295 C 0.02875 0.58616 0.25067 0.0
C2296 C 0.21972 0.66619 0.25007 0.0
C2297 C 0.1905 0.65978 0.25055 0.0
C2298 C 0.1449 0.61791 0.26207 0.0
C2299 C 0.06346 0.61259 0.25123 0.0
C2300 C 0.09429 0.61983 0.2514 0.0
C2301 C 0.18418 0.64023 0.25114 0.0
C2302 C 0.15312 0.63336 0.2514 0.0
H2303 H 0.99254 0.62865 0.25059 0.0
H2304 H 0.0431 0.64046 0.25141 0.0
H2305 H 0.11017 0.59943 0.27057 0.0
H2306 H 0.25458 0.62325 0.2509 0.0
H2307 H 0.2037 0.61211 0.25153 0.0
C2308 C 0.72061 0.58488 0.49875 0.0
C2309 C 0.74427 0.59781 0.49869 0.0
C2310 C 0.69142 0.59138 0.49846 0.0
C2311 C 0.646 0.63353 0.50852 0.0
H2312 H 0.58771 0.60875 0.47901 0.0
C2313 C 0.52919 0.66451 0.49835 0.0
C2314 C 0.50544 0.65165 0.49831 0.0
C2315 C 0.55832 0.65793 0.49814 0.0
C2316 C 0.60364 0.6157 0.48747 0.0
H2317 H 0.75575 0.62773 0.49817 0.0
H2318 H 0.70493 0.63902 0.49756 0.0
H2319 H 0.63849 0.59718 0.47921 0.0
H2320 H 0.49373 0.62177 0.49798 0.0
H2321 H 0.54449 0.61032 0.4978 0.0
H2322 H 0.61119 0.652 0.51686 0.0
C2323 C 0.70892 0.62386 0.49803 0.0
C2324 C 0.63274 0.60906 0.48758 0.0
C2325 C 0.73807 0.61737 0.49827 0.0
C2326 C 0.51149 0.63207 0.49796 0.0
C2327 C 0.54061 0.6255 0.49776 0.0
C2328 C 0.61691 0.64015 0.50844 0.0
C2329 C 0.68525 0.61095 0.49817 0.0
C2330 C 0.65426 0.61792 0.49809 0.0
C2331 C 0.56438 0.63834 0.49789 0.0
C2332 C 0.59537 0.63133 0.4979 0.0
H2333 H 0.7246 0.56972 0.49909 0.0
H2334 H 0.67368 0.58107 0.49876 0.0
H2335 H 0.66194 0.64048 0.51698 0.0
H2336 H 0.52532 0.67969 0.49856 0.0
H2337 H 0.5761 0.66821 0.498 0.0
C2338 C 0.01068 0.1312 0.4977 0.0
C2339 C 0.00501 0.15083 0.49786 0.0
C2340 C 0.03967 0.1244 0.49727 0.0
C2341 C 0.11593 0.13844 0.48594 0.0
H2342 H 0.13781 0.0963 0.51612 0.0
C2343 C 0.23732 0.11685 0.49735 0.0
C2344 C 0.24395 0.09737 0.49815 0.0
C2345 C 0.20803 0.12306 0.49684 0.0
C2346 C 0.13199 0.10792 0.50744 0.0
H2347 H 0.02544 0.17871 0.49761 0.0
H2348 H 0.07598 0.16683 0.49697 0.0
H2349 H 0.08696 0.10771 0.51603 0.0
H2350 H 0.22492 0.0691 0.49892 0.0
H2351 H 0.17378 0.07993 0.49785 0.0
H2352 H 0.16094 0.13868 0.47737 0.0
C2353 C 0.05799 0.15669 0.497 0.0
C2354 C 0.10284 0.11446 0.5074 0.0
C2355 C 0.029 0.1635 0.49747 0.0
C2356 C 0.22059 0.08422 0.49836 0.0
C2357 C 0.19127 0.09043 0.49785 0.0
C2358 C 0.14506 0.13188 0.48596 0.0
C2359 C 0.06366 0.13706 0.49694 0.0
C2360 C 0.09451 0.12985 0.49671 0.0
C2361 C 0.18464 0.10993 0.49711 0.0
C2362 C 0.15348 0.1166 0.49677 0.0
H2363 H 0.99272 0.12105 0.49795 0.0
H2364 H 0.04329 0.10919 0.49703 0.0
H2365 H 0.11012 0.15013 0.47735 0.0
H2366 H 0.25477 0.12738 0.49722 0.0
H2367 H 0.20371 0.13818 0.49653 0.0
loop_
_geom_bond_atom_site_label_1
_geom_bond_atom_site_label_2
_geom_bond_distance
_geom_bond_site_symmetry_2
_ccdc_geom_bond_type
C0 O2 1.247 . S
C0 O4 1.258 . S
C1 O8 1.247 . S
C1 O9 1.258 . S
O2 C0 1.247 . S
O2 Zn3 2.028 . S
Zn3 O2 2.028 . S
Zn3 O7 2.035 . S
Zn3 O9 2.035 . S
Zn3 O10 2.028 . S
O4 C0 1.258 . S
O4 Zn5 2.035 . S
Zn5 O4 2.035 . S
Zn5 O6 2.028 . S
Zn5 O8 2.028 . S
Zn5 O11 2.035 . S
O6 Zn5 2.028 . S
O6 C12 1.247 . S
O7 Zn3 2.035 . S
O7 C12 1.258 . S
O8 C1 1.247 . S
O8 Zn5 2.028 . S
O9 C1 1.258 . S
O9 Zn3 2.035 . S
O10 Zn3 2.028 . S
O10 C13 1.247 . S
O11 Zn5 2.035 . S
O11 C13 1.258 . S
C12 O6 1.247 . S
C12 O7 1.258 . S
C13 O10 1.247 . S
C13 O11 1.258 . S
C14 O16 1.247 . S
C14 O18 1.258 . S
C15 O22 1.247 . S
C15 O23 1.258 . S
O16 C14 1.247 . S
O16 Zn17 2.028 . S
Zn17 O16 2.028 . S
Zn17 O21 2.035 . S
Zn17 O23 2.035 . S
Zn17 O24 2.028 . S
O18 C14 1.258 . S
O18 Zn19 2.035 . S
Zn19 O18 2.035 . S
Zn19 O20 2.028 . S
Zn19 O22 2.028 . S
Zn19 O25 2.035 . S
O20 Zn19 2.028 . S
O20 C26 1.247 . S
O21 Zn17 2.035 . S
O21 C26 1.258 . S
O22 C15 1.247 . S
O22 Zn19 2.028 . S
O23 C15 1.258 . S
O23 Zn17 2.035 . S
O24 Zn17 2.028 . S
O24 C27 1.247 . S
O25 Zn19 2.035 . S
O25 C27 1.258 . S
C26 O20 1.247 . S
C26 O21 1.258 . S
C27 O24 1.247 . S
C27 O25 1.258 . S
C28 O30 1.247 . S
C28 O32 1.258 . S
C29 O36 1.247 . S
C29 O37 1.258 . S
O30 C28 1.247 . S
O30 Zn31 2.028 . S
Zn31 O30 2.028 . S
Zn31 O35 2.035 . S
Zn31 O37 2.035 1_556 S
Zn31 O38 2.026 1_556 S
O32 C28 1.258 . S
O32 Zn33 2.035 1_556 S
Zn33 O32 2.035 1_554 S
Zn33 O34 2.024 1_554 S
Zn33 O36 2.028 . S
Zn33 O39 2.035 . S
O34 Zn33 2.024 1_556 S
O34 C40 1.250 . S
O35 Zn31 2.035 . S
O35 C40 1.258 . S
O36 C29 1.247 . S
O36 Zn33 2.028 . S
O37 C29 1.258 . S
O37 Zn31 2.035 1_554 S
O38 Zn31 2.026 1_554 S
O38 C41 1.246 . S
O39 Zn33 2.035 . S
O39 C41 1.266 . S
C40 O34 1.250 . S
C40 O35 1.258 . S
C41 O38 1.246 . S
C41 O39 1.266 . S
C42 O44 1.250 . S
C42 O46 1.258 . S
C43 O50 1.246 . S
C43 O51 1.266 . S
O44 C42 1.250 . S
O44 Zn45 2.024 1_556 S
Zn45 O44 2.024 1_554 S
Zn45 O49 2.035 1_554 S
Zn45 O51 2.035 . S
Zn45 O52 2.028 . S
O46 C42 1.258 . S
O46 Zn47 2.035 . S
Zn47 O46 2.035 . S
Zn47 O48 2.028 . S
Zn47 O50 2.026 1_556 S
Zn47 O53 2.035 1_556 S
O48 Zn47 2.028 . S
O48 C54 1.247 . S
O49 Zn45 2.035 1_556 S
O49 C54 1.258 . S
O50 C43 1.246 . S
O50 Zn47 2.026 1_554 S
O51 C43 1.266 . S
O51 Zn45 2.035 . S
O52 Zn45 2.028 . S
O52 C55 1.247 . S
O53 Zn47 2.035 1_554 S
O53 C55 1.258 . S
C54 O48 1.247 . S
C54 O49 1.258 . S
C55 O52 1.247 . S
C55 O53 1.258 . S
C56 O58 1.247 . S
C56 O60 1.258 . S
C57 O64 1.247 . S
C57 O65 1.258 . S
O58 C56 1.247 . S
O58 Zn59 2.028 . S
Zn59 O58 2.028 . S
Zn59 O63 2.035 . S
Zn59 O65 2.035 . S
Zn59 O66 2.028 . S
O60 C56 1.258 . S
O60 Zn61 2.035 . S
Zn61 O60 2.035 . S
Zn61 O62 2.028 . S
Zn61 O64 2.028 . S
Zn61 O67 2.035 . S
O62 Zn61 2.028 . S
O62 C68 1.247 . S
O63 Zn59 2.035 . S
O63 C68 1.258 . S
O64 C57 1.247 . S
O64 Zn61 2.028 . S
O65 C57 1.258 . S
O65 Zn59 2.035 . S
O66 Zn59 2.028 . S
O66 C69 1.247 . S
O67 Zn61 2.035 . S
O67 C69 1.258 . S
C68 O62 1.247 . S
C68 O63 1.258 . S
C69 O66 1.247 . S
C69 O67 1.258 . S
C70 O72 1.247 . S
C70 O74 1.258 . S
C71 O78 1.247 . S
C71 O79 1.258 . S
O72 C70 1.247 . S
O72 Zn73 2.028 . S
Zn73 O72 2.028 . S
Zn73 O77 2.035 . S
Zn73 O79 2.035 . S
Zn73 O80 2.028 . S
O74 C70 1.258 . S
O74 Zn75 2.035 . S
Zn75 O74 2.035 . S
Zn75 O76 2.028 . S
Zn75 O78 2.028 . S
Zn75 O81 2.035 . S
O76 Zn75 2.028 . S
O76 C82 1.247 . S
O77 Zn73 2.035 . S
O77 C82 1.258 . S
O78 C71 1.247 . S
O78 Zn75 2.028 . S
O79 C71 1.258 . S
O79 Zn73 2.035 . S
O80 Zn73 2.028 . S
O80 C83 1.247 . S
O81 Zn75 2.035 . S
O81 C83 1.258 . S
C82 O76 1.247 . S
C82 O77 1.258 . S
C83 O80 1.247 . S
C83 O81 1.258 . S
C84 O86 1.247 . S
C84 O88 1.258 . S
C85 O92 1.247 . S
C85 O93 1.258 . S
O86 C84 1.247 . S
O86 Zn87 2.028 1_554 S
Zn87 O86 2.028 1_556 S
Zn87 O91 2.032 1_556 S
Zn87 O93 2.035 . S
Zn87 O94 2.028 . S
O88 C84 1.258 . S
O88 Zn89 2.035 . S
Zn89 O88 2.035 . S
Zn89 O90 2.028 . S
Zn89 O92 2.028 1_554 S
Zn89 O95 2.035 1_554 S
O90 Zn89 2.028 . S
O90 C96 1.247 . S
O91 Zn87 2.032 1_554 S
O91 C96 1.261 . S
O92 C85 1.247 . S
O92 Zn89 2.028 1_556 S
O93 C85 1.258 . S
O93 Zn87 2.035 . S
O94 Zn87 2.028 . S
O94 C97 1.255 . S
O95 Zn89 2.035 1_556 S
O95 C97 1.257 . S
C96 O90 1.247 . S
C96 O91 1.261 . S
C97 O94 1.255 . S
C97 O95 1.257 . S
C98 O100 1.247 . S
C98 O102 1.258 . S
C99 O106 1.247 . S
C99 O107 1.258 . S
O100 C98 1.247 . S
O100 Zn101 2.028 . S
Zn101 O100 2.028 . S
Zn101 O105 2.035 . S
Zn101 O107 2.035 1_556 S
Zn101 O108 2.024 1_556 S
O102 C98 1.258 . S
O102 Zn103 2.035 1_556 S
Zn103 O102 2.035 1_554 S
Zn103 O104 2.026 1_554 S
Zn103 O106 2.028 . S
Zn103 O109 2.035 . S
O104 Zn103 2.026 1_556 S
O104 C110 1.246 . S
O105 Zn101 2.035 . S
O105 C110 1.266 . S
O106 C99 1.247 . S
O106 Zn103 2.028 . S
O107 C99 1.258 . S
O107 Zn101 2.035 1_554 S
O108 Zn101 2.024 1_554 S
O108 C111 1.250 . S
O109 Zn103 2.035 . S
O109 C111 1.258 . S
C110 O104 1.246 . S
C110 O105 1.266 . S
C111 O108 1.250 . S
C111 O109 1.258 . S
C112 O114 1.247 . S
C112 O116 1.258 . S
C113 O120 1.247 . S
C113 O121 1.258 . S
O114 C112 1.247 . S
O114 Zn115 2.028 . S
Zn115 O114 2.028 . S
Zn115 O119 2.035 . S
Zn115 O121 2.035 . S
Zn115 O122 2.028 . S
O116 C112 1.258 . S
O116 Zn117 2.035 . S
Zn117 O116 2.035 . S
Zn117 O118 2.028 . S
Zn117 O120 2.028 . S
Zn117 O123 2.035 . S
O118 Zn117 2.028 . S
O118 C124 1.247 . S
O119 Zn115 2.035 . S
O119 C124 1.258 . S
O120 C113 1.247 . S
O120 Zn117 2.028 . S
O121 C113 1.258 . S
O121 Zn115 2.035 . S
O122 Zn115 2.028 . S
O122 C125 1.247 . S
O123 Zn117 2.035 . S
O123 C125 1.258 . S
C124 O118 1.247 . S
C124 O119 1.258 . S
C125 O122 1.247 . S
C125 O123 1.258 . S
C126 O128 1.247 . S
C126 O130 1.258 . S
C127 O134 1.247 . S
C127 O135 1.258 . S
O128 C126 1.247 . S
O128 Zn129 2.028 . S
Zn129 O128 2.028 . S
Zn129 O133 2.035 . S
Zn129 O135 2.035 . S
Zn129 O136 2.028 . S
O130 C126 1.258 . S
O130 Zn131 2.035 . S
Zn131 O130 2.035 . S
Zn131 O132 2.028 . S
Zn131 O134 2.028 . S
Zn131 O137 2.035 . S
O132 Zn131 2.028 . S
O132 C138 1.247 . S
O133 Zn129 2.035 . S
O133 C138 1.258 . S
O134 C127 1.247 . S
O134 Zn131 2.028 . S
O135 C127 1.258 . S
O135 Zn129 2.035 . S
O136 Zn129 2.028 . S
O136 C139 1.247 . S
O137 Zn131 2.035 . S
O137 C139 1.258 . S
C138 O132 1.247 . S
C138 O133 1.258 . S
C139 O136 1.247 . S
C139 O137 1.258 . S
C140 O142 1.247 . S
C140 O144 1.258 . S
C141 O148 1.247 . S
C141 O149 1.258 . S
O142 C140 1.247 . S
O142 Zn143 2.028 . S
Zn143 O142 2.028 . S
Zn143 O147 2.035 . S
Zn143 O149 2.035 . S
Zn143 O150 2.028 . S
O144 C140 1.258 . S
O144 Zn145 2.035 . S
Zn145 O144 2.035 . S
Zn145 O146 2.028 . S
Zn145 O148 2.028 . S
Zn145 O151 2.035 . S
O146 Zn145 2.028 . S
O146 C152 1.247 . S
O147 Zn143 2.035 . S
O147 C152 1.258 . S
O148 C141 1.247 . S
O148 Zn145 2.028 . S
O149 C141 1.258 . S
O149 Zn143 2.035 . S
O150 Zn143 2.028 . S
O150 C153 1.247 . S
O151 Zn145 2.035 . S
O151 C153 1.258 . S
C152 O146 1.247 . S
C152 O147 1.258 . S
C153 O150 1.247 . S
C153 O151 1.258 . S
C154 O156 1.247 . S
C154 O158 1.258 . S
C155 O162 1.247 . S
C155 O163 1.258 . S
O156 C154 1.247 . S
O156 Zn157 2.028 . S
Zn157 O156 2.028 . S
Zn157 O161 2.035 . S
Zn157 O163 2.035 . S
Zn157 O164 2.028 . S
O158 C154 1.258 . S
O158 Zn159 2.035 . S
Zn159 O158 2.035 . S
Zn159 O160 2.028 . S
Zn159 O162 2.028 . S
Zn159 O165 2.035 . S
O160 Zn159 2.028 . S
O160 C166 1.247 . S
O161 Zn157 2.035 . S
O161 C166 1.258 . S
O162 C155 1.247 . S
O162 Zn159 2.028 . S
O163 C155 1.258 . S
O163 Zn157 2.035 . S
O164 Zn157 2.028 . S
O164 C167 1.247 . S
O165 Zn159 2.035 . S
O165 C167 1.258 . S
C166 O160 1.247 . S
C166 O161 1.258 . S
C167 O164 1.247 . S
C167 O165 1.258 . S
C168 O170 1.247 . S
C168 O172 1.258 . S
C169 O176 1.247 . S
C169 O177 1.258 . S
O170 C168 1.247 . S
O170 Zn171 2.028 . S
Zn171 O170 2.028 . S
Zn171 O175 2.035 . S
Zn171 O177 2.035 . S
Zn171 O178 2.028 . S
O172 C168 1.258 . S
O172 Zn173 2.035 . S
Zn173 O172 2.035 . S
Zn173 O174 2.028 . S
Zn173 O176 2.028 . S
Zn173 O179 2.035 . S
O174 Zn173 2.028 . S
O174 C180 1.247 . S
O175 Zn171 2.035 . S
O175 C180 1.258 . S
O176 C169 1.247 . S
O176 Zn173 2.028 . S
O177 C169 1.258 . S
O177 Zn171 2.035 . S
O178 Zn171 2.028 . S
O178 C181 1.247 . S
O179 Zn173 2.035 . S
O179 C181 1.258 . S
C180 O174 1.247 . S
C180 O175 1.258 . S
C181 O178 1.247 . S
C181 O179 1.258 . S
C182 O184 1.247 . S
C182 O186 1.258 . S
C183 O190 1.247 . S
C183 O191 1.258 . S
O184 C182 1.247 . S
O184 Zn185 2.028 . S
Zn185 O184 2.028 . S
Zn185 O189 2.035 . S
Zn185 O191 2.035 . S
Zn185 O192 2.028 . S
O186 C182 1.258 . S
O186 Zn187 2.035 . S
Zn187 O186 2.035 . S
Zn187 O188 2.028 . S
Zn187 O190 2.028 . S
Zn187 O193 2.035 . S
O188 Zn187 2.028 . S
O188 C194 1.247 . S
O189 Zn185 2.035 . S
O189 C194 1.258 . S
O190 C183 1.247 . S
O190 Zn187 2.028 . S
O191 C183 1.258 . S
O191 Zn185 2.035 . S
O192 Zn185 2.028 . S
O192 C195 1.247 . S
O193 Zn187 2.035 . S
O193 C195 1.258 . S
C194 O188 1.247 . S
C194 O189 1.258 . S
C195 O192 1.247 . S
C195 O193 1.258 . S
C196 O198 1.247 . S
C196 O200 1.258 . S
C197 O204 1.247 . S
C197 O205 1.258 . S
O198 C196 1.247 . S
O198 Zn199 2.028 . S
Zn199 O198 2.028 . S
Zn199 O203 2.035 . S
Zn199 O205 2.035 . S
Zn199 O206 2.028 . S
O200 C196 1.258 . S
O200 Zn201 2.035 . S
Zn201 O200 2.035 . S
Zn201 O202 2.028 . S
Zn201 O204 2.028 . S
Zn201 O207 2.035 . S
O202 Zn201 2.028 . S
O202 C208 1.247 . S
O203 Zn199 2.035 . S
O203 C208 1.258 . S
O204 C197 1.247 . S
O204 Zn201 2.028 . S
O205 C197 1.258 . S
O205 Zn199 2.035 . S
O206 Zn199 2.028 . S
O206 C209 1.247 . S
O207 Zn201 2.035 . S
O207 C209 1.258 . S
C208 O202 1.247 . S
C208 O203 1.258 . S
C209 O206 1.247 . S
C209 O207 1.258 . S
C210 O212 1.247 . S
C210 O214 1.258 . S
C211 O218 1.247 . S
C211 O219 1.258 . S
O212 C210 1.247 . S
O212 Zn213 2.028 . S
Zn213 O212 2.028 . S
Zn213 O217 2.035 . S
Zn213 O219 2.035 . S
Zn213 O220 2.028 . S
O214 C210 1.258 . S
O214 Zn215 2.035 . S
Zn215 O214 2.035 . S
Zn215 O216 2.028 . S
Zn215 O218 2.028 . S
Zn215 O221 2.035 . S
O216 Zn215 2.028 . S
O216 C222 1.247 . S
O217 Zn213 2.035 . S
O217 C222 1.258 . S
O218 C211 1.247 . S
O218 Zn215 2.028 . S
O219 C211 1.258 . S
O219 Zn213 2.035 . S
O220 Zn213 2.028 . S
O220 C223 1.247 . S
O221 Zn215 2.035 . S
O221 C223 1.258 . S
C222 O216 1.247 . S
C222 O217 1.258 . S
C223 O220 1.247 . S
C223 O221 1.258 . S
C224 O226 1.247 . S
C224 O228 1.258 . S
C225 O232 1.247 . S
C225 O233 1.258 . S
O226 C224 1.247 . S
O226 Zn227 2.028 . S
Zn227 O226 2.028 . S
Zn227 O231 2.035 . S
Zn227 O233 2.035 . S
Zn227 O234 2.028 . S
O228 C224 1.258 . S
O228 Zn229 2.035 . S
Zn229 O228 2.035 . S
Zn229 O230 2.028 . S
Zn229 O232 2.028 . S
Zn229 O235 2.035 . S
O230 Zn229 2.028 . S
O230 C236 1.247 . S
O231 Zn227 2.035 . S
O231 C236 1.258 . S
O232 C225 1.247 . S
O232 Zn229 2.028 . S
O233 C225 1.258 . S
O233 Zn227 2.035 . S
O234 Zn227 2.028 . S
O234 C237 1.247 . S
O235 Zn229 2.035 . S
O235 C237 1.258 . S
C236 O230 1.247 . S
C236 O231 1.258 . S
C237 O234 1.247 . S
C237 O235 1.258 . S
C238 O240 1.247 . S
C238 O242 1.258 . S
C239 O246 1.247 . S
C239 O247 1.258 . S
O240 C238 1.247 . S
O240 Zn241 2.028 . S
Zn241 O240 2.028 . S
Zn241 O245 2.035 . S
Zn241 O247 2.035 . S
Zn241 O248 2.028 . S
O242 C238 1.258 . S
O242 Zn243 2.035 . S
Zn243 O242 2.035 . S
Zn243 O244 2.028 . S
Zn243 O246 2.028 . S
Zn243 O249 2.035 . S
O244 Zn243 2.028 . S
O244 C250 1.247 . S
O245 Zn241 2.035 . S
O245 C250 1.258 . S
O246 C239 1.247 . S
O246 Zn243 2.028 . S
O247 C239 1.258 . S
O247 Zn241 2.035 . S
O248 Zn241 2.028 . S
O248 C251 1.247 . S
O249 Zn243 2.035 . S
O249 C251 1.258 . S
C250 O244 1.247 . S
C250 O245 1.258 . S
C251 O248 1.247 . S
C251 O249 1.258 . S
C252 O254 1.247 . S
C252 O256 1.258 . S
C253 O260 1.247 . S
C253 O261 1.258 . S
O254 C252 1.247 . S
O254 Zn255 2.028 . S
Zn255 O254 2.028 . S
Zn255 O259 2.035 . S
Zn255 O261 2.035 . S
Zn255 O262 2.028 . S
O256 C252 1.258 . S
O256 Zn257 2.035 . S
Zn257 O256 2.035 . S
Zn257 O258 2.028 . S
Zn257 O260 2.028 . S
Zn257 O263 2.035 . S
O258 Zn257 2.028 . S
O258 C264 1.247 . S
O259 Zn255 2.035 . S
O259 C264 1.258 . S
O260 C253 1.247 . S
O260 Zn257 2.028 . S
O261 C253 1.258 . S
O261 Zn255 2.035 . S
O262 Zn255 2.028 . S
O262 C265 1.247 . S
O263 Zn257 2.035 . S
O263 C265 1.258 . S
C264 O258 1.247 . S
C264 O259 1.258 . S
C265 O262 1.247 . S
C265 O263 1.258 . S
C266 O268 1.247 . S
C266 O270 1.258 . S
C267 O274 1.247 . S
C267 O275 1.258 . S
O268 C266 1.247 . S
O268 Zn269 2.028 . S
Zn269 O268 2.028 . S
Zn269 O273 2.035 . S
Zn269 O275 2.035 . S
Zn269 O276 2.028 . S
O270 C266 1.258 . S
O270 Zn271 2.035 . S
Zn271 O270 2.035 . S
Zn271 O272 2.028 . S
Zn271 O274 2.028 . S
Zn271 O277 2.035 . S
O272 Zn271 2.028 . S
O272 C278 1.247 . S
O273 Zn269 2.035 . S
O273 C278 1.258 . S
O274 C267 1.247 . S
O274 Zn271 2.028 . S
O275 C267 1.258 . S
O275 Zn269 2.035 . S
O276 Zn269 2.028 . S
O276 C279 1.247 . S
O277 Zn271 2.035 . S
O277 C279 1.258 . S
C278 O272 1.247 . S
C278 O273 1.258 . S
C279 O276 1.247 . S
C279 O277 1.258 . S
C280 O282 1.247 . S
C280 O284 1.258 . S
C281 O288 1.247 . S
C281 O289 1.258 . S
O282 C280 1.247 . S
O282 Zn283 2.028 . S
Zn283 O282 2.028 . S
Zn283 O287 2.035 . S
Zn283 O289 2.035 . S
Zn283 O290 2.028 . S
O284 C280 1.258 . S
O284 Zn285 2.035 . S
Zn285 O284 2.035 . S
Zn285 O286 2.028 . S
Zn285 O288 2.028 . S
Zn285 O291 2.035 . S
O286 Zn285 2.028 . S
O286 C292 1.247 . S
O287 Zn283 2.035 . S
O287 C292 1.258 . S
O288 C281 1.247 . S
O288 Zn285 2.028 . S
O289 C281 1.258 . S
O289 Zn283 2.035 . S
O290 Zn283 2.028 . S
O290 C293 1.247 . S
O291 Zn285 2.035 . S
O291 C293 1.258 . S
C292 O286 1.247 . S
C292 O287 1.258 . S
C293 O290 1.247 . S
C293 O291 1.258 . S
C294 O296 1.247 . S
C294 O298 1.258 . S
C295 O302 1.247 . S
C295 O303 1.258 . S
O296 C294 1.247 . S
O296 Zn297 2.028 . S
Zn297 O296 2.028 . S
Zn297 O301 2.035 . S
Zn297 O303 2.035 . S
Zn297 O304 2.028 . S
O298 C294 1.258 . S
O298 Zn299 2.035 . S
Zn299 O298 2.035 . S
Zn299 O300 2.028 . S
Zn299 O302 2.028 . S
Zn299 O305 2.035 . S
O300 Zn299 2.028 . S
O300 C306 1.247 . S
O301 Zn297 2.035 . S
O301 C306 1.258 . S
O302 C295 1.247 . S
O302 Zn299 2.028 . S
O303 C295 1.258 . S
O303 Zn297 2.035 . S
O304 Zn297 2.028 . S
O304 C307 1.247 . S
O305 Zn299 2.035 . S
O305 C307 1.258 . S
C306 O300 1.247 . S
C306 O301 1.258 . S
C307 O304 1.247 . S
C307 O305 1.258 . S
C308 O310 1.247 . S
C308 O312 1.258 . S
C309 O316 1.247 . S
C309 O317 1.258 . S
O310 C308 1.247 . S
O310 Zn311 2.028 . S
Zn311 O310 2.028 . S
Zn311 O315 2.035 . S
Zn311 O317 2.035 . S
Zn311 O318 2.028 . S
O312 C308 1.258 . S
O312 Zn313 2.035 . S
Zn313 O312 2.035 . S
Zn313 O314 2.028 . S
Zn313 O316 2.028 . S
Zn313 O319 2.035 . S
O314 Zn313 2.028 . S
O314 C320 1.247 . S
O315 Zn311 2.035 . S
O315 C320 1.258 . S
O316 C309 1.247 . S
O316 Zn313 2.028 . S
O317 C309 1.258 . S
O317 Zn311 2.035 . S
O318 Zn311 2.028 . S
O318 C321 1.247 . S
O319 Zn313 2.035 . S
O319 C321 1.258 . S
C320 O314 1.247 . S
C320 O315 1.258 . S
C321 O318 1.247 . S
C321 O319 1.258 . S
C322 O324 1.247 . S
C322 O326 1.258 . S
C323 O330 1.247 . S
C323 O331 1.258 . S
O324 C322 1.247 . S
O324 Zn325 2.028 . S
Zn325 O324 2.028 . S
Zn325 O329 2.035 . S
Zn325 O331 2.035 . S
Zn325 O332 2.028 . S
O326 C322 1.258 . S
O326 Zn327 2.035 . S
Zn327 O326 2.035 . S
Zn327 O328 2.028 . S
Zn327 O330 2.028 . S
Zn327 O333 2.035 . S
O328 Zn327 2.028 . S
O328 C334 1.247 . S
O329 Zn325 2.035 . S
O329 C334 1.258 . S
O330 C323 1.247 . S
O330 Zn327 2.028 . S
O331 C323 1.258 . S
O331 Zn325 2.035 . S
O332 Zn325 2.028 . S
O332 C335 1.247 . S
O333 Zn327 2.035 . S
O333 C335 1.258 . S
C334 O328 1.247 . S
C334 O329 1.258 . S
C335 O332 1.247 . S
C335 O333 1.258 . S
C336 O338 1.247 . S
C336 O340 1.258 . S
C337 O344 1.247 . S
C337 O345 1.258 . S
O338 C336 1.247 . S
O338 Zn339 2.028 . S
Zn339 O338 2.028 . S
Zn339 O343 2.035 . S
Zn339 O345 2.035 . S
Zn339 O346 2.028 . S
O340 C336 1.258 . S
O340 Zn341 2.035 . S
Zn341 O340 2.035 . S
Zn341 O342 2.028 . S
Zn341 O344 2.028 . S
Zn341 O347 2.035 . S
O342 Zn341 2.028 . S
O342 C348 1.247 . S
O343 Zn339 2.035 . S
O343 C348 1.258 . S
O344 C337 1.247 . S
O344 Zn341 2.028 . S
O345 C337 1.258 . S
O345 Zn339 2.035 . S
O346 Zn339 2.028 . S
O346 C349 1.247 . S
O347 Zn341 2.035 . S
O347 C349 1.258 . S
C348 O342 1.247 . S
C348 O343 1.258 . S
C349 O346 1.247 . S
C349 O347 1.258 . S
C350 O352 1.247 . S
C350 O354 1.258 . S
C351 O358 1.247 . S
C351 O359 1.258 . S
O352 C350 1.247 . S
O352 Zn353 2.028 . S
Zn353 O352 2.028 . S
Zn353 O357 2.035 . S
Zn353 O359 2.035 . S
Zn353 O360 2.028 . S
O354 C350 1.258 . S
O354 Zn355 2.035 . S
Zn355 O354 2.035 . S
Zn355 O356 2.028 . S
Zn355 O358 2.028 . S
Zn355 O361 2.035 . S
O356 Zn355 2.028 . S
O356 C362 1.247 . S
O357 Zn353 2.035 . S
O357 C362 1.258 . S
O358 C351 1.247 . S
O358 Zn355 2.028 . S
O359 C351 1.258 . S
O359 Zn353 2.035 . S
O360 Zn353 2.028 . S
O360 C363 1.247 . S
O361 Zn355 2.035 . S
O361 C363 1.258 . S
C362 O356 1.247 . S
C362 O357 1.258 . S
C363 O360 1.247 . S
C363 O361 1.258 . S
C364 O366 1.247 . S
C364 O368 1.258 . S
C365 O372 1.247 . S
C365 O373 1.258 . S
O366 C364 1.247 . S
O366 Zn367 2.028 1_554 S
Zn367 O366 2.028 1_556 S
Zn367 O371 2.034 1_556 S
Zn367 O373 2.035 . S
Zn367 O374 2.028 . S
O368 C364 1.258 . S
O368 Zn369 2.035 . S
Zn369 O368 2.035 . S
Zn369 O370 2.028 . S
Zn369 O372 2.028 1_554 S
Zn369 O375 2.032 1_554 S
O370 Zn369 2.028 . S
O370 C376 1.256 . S
O371 Zn367 2.034 1_554 S
O371 C376 1.257 . S
O372 C365 1.247 . S
O372 Zn369 2.028 1_556 S
O373 C365 1.258 . S
O373 Zn367 2.035 . S
O374 Zn367 2.028 . S
O374 C377 1.247 . S
O375 Zn369 2.032 1_556 S
O375 C377 1.261 . S
C376 O370 1.256 . S
C376 O371 1.257 . S
C377 O374 1.247 . S
C377 O375 1.261 . S
C378 O380 1.247 . S
C378 O382 1.258 . S
C379 O386 1.247 . S
C379 O387 1.258 . S
O380 C378 1.247 . S
O380 Zn381 2.028 1_554 S
Zn381 O380 2.028 1_556 S
Zn381 O385 2.034 1_556 S
Zn381 O387 2.035 . S
Zn381 O388 2.028 . S
O382 C378 1.258 . S
O382 Zn383 2.035 . S
Zn383 O382 2.035 . S
Zn383 O384 2.028 . S
Zn383 O386 2.028 1_554 S
Zn383 O389 2.032 1_554 S
O384 Zn383 2.028 . S
O384 C390 1.256 . S
O385 Zn381 2.034 1_554 S
O385 C390 1.257 . S
O386 C379 1.247 . S
O386 Zn383 2.028 1_556 S
O387 C379 1.258 . S
O387 Zn381 2.035 . S
O388 Zn381 2.028 . S
O388 C391 1.247 . S
O389 Zn383 2.032 1_556 S
O389 C391 1.261 . S
C390 O384 1.256 . S
C390 O385 1.257 . S
C391 O388 1.247 . S
C391 O389 1.261 . S
C392 O394 1.247 . S
C392 O396 1.258 . S
C393 O400 1.247 . S
C393 O401 1.258 . S
O394 C392 1.247 . S
O394 Zn395 2.028 . S
Zn395 O394 2.028 . S
Zn395 O399 2.035 . S
Zn395 O401 2.035 . S
Zn395 O402 2.028 . S
O396 C392 1.258 . S
O396 Zn397 2.035 . S
Zn397 O396 2.035 . S
Zn397 O398 2.028 . S
Zn397 O400 2.028 . S
Zn397 O403 2.035 . S
O398 Zn397 2.028 . S
O398 C404 1.247 . S
O399 Zn395 2.035 . S
O399 C404 1.258 . S
O400 C393 1.247 . S
O400 Zn397 2.028 . S
O401 C393 1.258 . S
O401 Zn395 2.035 . S
O402 Zn395 2.028 . S
O402 C405 1.247 . S
O403 Zn397 2.035 . S
O403 C405 1.258 . S
C404 O398 1.247 . S
C404 O399 1.258 . S
C405 O402 1.247 . S
C405 O403 1.258 . S
C406 O408 1.247 . S
C406 O410 1.258 . S
C407 O414 1.247 . S
C407 O415 1.258 . S
O408 C406 1.247 . S
O408 Zn409 2.028 . S
Zn409 O408 2.028 . S
Zn409 O413 2.035 . S
Zn409 O415 2.035 . S
Zn409 O416 2.028 . S
O410 C406 1.258 . S
O410 Zn411 2.035 . S
Zn411 O410 2.035 . S
Zn411 O412 2.028 . S
Zn411 O414 2.028 . S
Zn411 O417 2.035 . S
O412 Zn411 2.028 . S
O412 C418 1.247 . S
O413 Zn409 2.035 . S
O413 C418 1.258 . S
O414 C407 1.247 . S
O414 Zn411 2.028 . S
O415 C407 1.258 . S
O415 Zn409 2.035 . S
O416 Zn409 2.028 . S
O416 C419 1.247 . S
O417 Zn411 2.035 . S
O417 C419 1.258 . S
C418 O412 1.247 . S
C418 O413 1.258 . S
C419 O416 1.247 . S
C419 O417 1.258 . S
C420 O422 1.247 . S
C420 O424 1.258 . S
C421 O428 1.247 . S
C421 O429 1.258 . S
O422 C420 1.247 . S
O422 Zn423 2.028 1_554 S
Zn423 O422 2.028 1_556 S
Zn423 O427 2.032 1_556 S
Zn423 O429 2.035 . S
Zn423 O430 2.028 . S
O424 C420 1.258 . S
O424 Zn425 2.035 . S
Zn425 O424 2.035 . S
Zn425 O426 2.028 . S
Zn425 O428 2.028 1_554 S
Zn425 O431 2.035 1_554 S
O426 Zn425 2.028 . S
O426 C432 1.247 . S
O427 Zn423 2.032 1_554 S
O427 C432 1.261 . S
O428 C421 1.247 . S
O428 Zn425 2.028 1_556 S
O429 C421 1.258 . S
O429 Zn423 2.035 . S
O430 Zn423 2.028 . S
O430 C433 1.255 . S
O431 Zn425 2.035 1_556 S
O431 C433 1.257 . S
C432 O426 1.247 . S
C432 O427 1.261 . S
C433 O430 1.255 . S
C433 O431 1.257 . S
C434 O436 1.247 . S
C434 O438 1.258 . S
C435 O442 1.247 . S
C435 O443 1.258 . S
O436 C434 1.247 . S
O436 Zn437 2.028 1_554 S
Zn437 O436 2.028 1_556 S
Zn437 O441 2.032 1_556 S
Zn437 O443 2.035 . S
Zn437 O444 2.028 . S
O438 C434 1.258 . S
O438 Zn439 2.035 . S
Zn439 O438 2.035 . S
Zn439 O440 2.028 . S
Zn439 O442 2.028 1_554 S
Zn439 O445 2.035 1_554 S
O440 Zn439 2.028 . S
O440 C446 1.247 . S
O441 Zn437 2.032 1_554 S
O441 C446 1.261 . S
O442 C435 1.247 . S
O442 Zn439 2.028 1_556 S
O443 C435 1.258 . S
O443 Zn437 2.035 . S
O444 Zn437 2.028 . S
O444 C447 1.255 . S
O445 Zn439 2.035 1_556 S
O445 C447 1.257 . S
C446 O440 1.247 . S
C446 O441 1.261 . S
C447 O444 1.255 . S
C447 O445 1.257 . S
C448 C449 1.349 . S
C448 C450 1.327 . S
C448 H473 0.950 . S
C449 C448 1.349 . S
C449 C465 1.349 . S
C450 C448 1.327 . S
C450 C469 1.429 . S
C450 H474 0.950 . S
C451 C468 1.574 . S
C451 C470 1.368 . S
C451 H475 0.949 . S
H452 C456 0.949 . S
C453 C454 1.349 . S
C453 C455 1.327 . S
C453 H476 0.950 . S
C454 C453 1.349 . S
C454 C466 1.349 . S
C455 C453 1.327 . S
C455 C471 1.429 . S
C455 H477 0.950 . S
C456 H452 0.949 . S
C456 C464 1.574 . S
C456 C472 1.368 . S
H457 C465 0.950 . S
H458 C463 0.950 . S
H459 C464 0.949 . S
H460 C466 0.950 . S
H461 C467 0.950 . S
H462 C468 0.949 . S
C463 H458 0.950 . S
C463 C465 1.327 . S
C463 C469 1.429 . S
C464 C456 1.574 . S
C464 H459 0.949 . S
C464 C470 1.368 . S
C465 C449 1.349 . S
C465 H457 0.950 . S
C465 C463 1.327 . S
C466 C454 1.349 . S
C466 H460 0.950 . S
C466 C467 1.327 . S
C467 H461 0.950 . S
C467 C466 1.327 . S
C467 C471 1.429 . S
C468 C451 1.574 . S
C468 H462 0.949 . S
C468 C472 1.368 . S
C469 C450 1.429 . S
C469 C463 1.429 . S
C469 C470 1.523 . S
C470 C451 1.368 . S
C470 C464 1.368 . S
C470 C469 1.523 . S
C471 C455 1.429 . S
C471 C467 1.429 . S
C471 C472 1.523 . S
C472 C456 1.368 . S
C472 C468 1.368 . S
C472 C471 1.523 . S
H473 C448 0.950 . S
H474 C450 0.950 . S
H475 C451 0.949 . S
H476 C453 0.950 . S
H477 C455 0.950 . S
C478 C479 1.349 . S
C478 C480 1.327 . S
C478 H503 0.950 . S
C479 C478 1.349 . S
C479 C495 1.349 . S
C480 C478 1.327 . S
C480 C499 1.429 . S
C480 H504 0.950 . S
C481 C498 1.574 . S
C481 C500 1.368 . S
C481 H505 0.949 . S
H482 C486 0.949 . S
C483 C484 1.349 . S
C483 C485 1.327 . S
C483 H506 0.950 . S
C484 C483 1.349 . S
C484 C496 1.349 . S
C485 C483 1.327 . S
C485 C501 1.429 . S
C485 H507 0.950 . S
C486 H482 0.949 . S
C486 C494 1.574 . S
C486 C502 1.368 . S
H487 C495 0.950 . S
H488 C493 0.950 . S
H489 C494 0.949 . S
H490 C496 0.950 . S
H491 C497 0.950 . S
H492 C498 0.949 . S
C493 H488 0.950 . S
C493 C495 1.327 . S
C493 C499 1.429 . S
C494 C486 1.574 . S
C494 H489 0.949 . S
C494 C500 1.368 . S
C495 C479 1.349 . S
C495 H487 0.950 . S
C495 C493 1.327 . S
C496 C484 1.349 . S
C496 H490 0.950 . S
C496 C497 1.327 . S
C497 H491 0.950 . S
C497 C496 1.327 . S
C497 C501 1.429 . S
C498 C481 1.574 . S
C498 H492 0.949 . S
C498 C502 1.368 . S
C499 C480 1.429 . S
C499 C493 1.429 . S
C499 C500 1.523 . S
C500 C481 1.368 . S
C500 C494 1.368 . S
C500 C499 1.523 . S
C501 C485 1.429 . S
C501 C497 1.429 . S
C501 C502 1.523 . S
C502 C486 1.368 . S
C502 C498 1.368 . S
C502 C501 1.523 . S
H503 C478 0.950 . S
H504 C480 0.950 . S
H505 C481 0.949 . S
H506 C483 0.950 . S
H507 C485 0.950 . S
C508 C509 1.349 . S
C508 C510 1.327 . S
C508 H533 0.950 . S
C509 C508 1.349 . S
C509 C525 1.349 . S
C510 C508 1.327 . S
C510 C529 1.429 . S
C510 H534 0.950 . S
C511 C528 1.574 . S
C511 C530 1.368 . S
C511 H535 0.949 . S
H512 C516 0.949 . S
C513 C514 1.349 . S
C513 C515 1.327 . S
C513 H536 0.950 . S
C514 C513 1.349 . S
C514 C526 1.349 . S
C515 C513 1.327 . S
C515 C531 1.429 . S
C515 H537 0.950 . S
C516 H512 0.949 . S
C516 C524 1.574 . S
C516 C532 1.368 . S
H517 C525 0.950 . S
H518 C523 0.950 . S
H519 C524 0.949 . S
H520 C526 0.950 . S
H521 C527 0.950 . S
H522 C528 0.949 . S
C523 H518 0.950 . S
C523 C525 1.327 . S
C523 C529 1.429 . S
C524 C516 1.574 . S
C524 H519 0.949 . S
C524 C530 1.368 . S
C525 C509 1.349 . S
C525 H517 0.950 . S
C525 C523 1.327 . S
C526 C514 1.349 . S
C526 H520 0.950 . S
C526 C527 1.327 . S
C527 H521 0.950 . S
C527 C526 1.327 . S
C527 C531 1.429 . S
C528 C511 1.574 . S
C528 H522 0.949 . S
C528 C532 1.368 . S
C529 C510 1.429 . S
C529 C523 1.429 . S
C529 C530 1.523 . S
C530 C511 1.368 . S
C530 C524 1.368 . S
C530 C529 1.523 . S
C531 C515 1.429 . S
C531 C527 1.429 . S
C531 C532 1.523 . S
C532 C516 1.368 . S
C532 C528 1.368 . S
C532 C531 1.523 . S
H533 C508 0.950 . S
H534 C510 0.950 . S
H535 C511 0.949 . S
H536 C513 0.950 . S
H537 C515 0.950 . S
C538 C539 1.349 . S
C538 C540 1.327 . S
C538 H563 0.950 . S
C539 C538 1.349 . S
C539 C555 1.349 . S
C540 C538 1.327 . S
C540 C559 1.429 . S
C540 H564 0.950 . S
C541 C558 1.574 . S
C541 C560 1.368 . S
C541 H565 0.949 . S
H542 C546 0.949 . S
C543 C544 1.349 . S
C543 C545 1.327 . S
C543 H566 0.950 . S
C544 C543 1.349 . S
C544 C556 1.349 . S
C545 C543 1.327 . S
C545 C561 1.429 . S
C545 H567 0.950 . S
C546 H542 0.949 . S
C546 C554 1.574 . S
C546 C562 1.368 . S
H547 C555 0.950 . S
H548 C553 0.950 . S
H549 C554 0.949 . S
H550 C556 0.950 . S
H551 C557 0.950 . S
H552 C558 0.949 . S
C553 H548 0.950 . S
C553 C555 1.327 . S
C553 C559 1.429 . S
C554 C546 1.574 . S
C554 H549 0.949 . S
C554 C560 1.368 . S
C555 C539 1.349 . S
C555 H547 0.950 . S
C555 C553 1.327 . S
C556 C544 1.349 . S
C556 H550 0.950 . S
C556 C557 1.327 . S
C557 H551 0.950 . S
C557 C556 1.327 . S
C557 C561 1.429 . S
C558 C541 1.574 . S
C558 H552 0.949 . S
C558 C562 1.368 . S
C559 C540 1.429 . S
C559 C553 1.429 . S
C559 C560 1.523 . S
C560 C541 1.368 . S
C560 C554 1.368 . S
C560 C559 1.523 . S
C561 C545 1.429 . S
C561 C557 1.429 . S
C561 C562 1.523 . S
C562 C546 1.368 . S
C562 C558 1.368 . S
C562 C561 1.523 . S
H563 C538 0.950 . S
H564 C540 0.950 . S
H565 C541 0.949 . S
H566 C543 0.950 . S
H567 C545 0.950 . S
C568 C569 1.349 . S
C568 C570 1.327 . S
C568 H593 0.950 . S
C569 C568 1.349 . S
C569 C585 1.349 . S
C570 C568 1.327 . S
C570 C589 1.429 . S
C570 H594 0.950 . S
C571 C588 1.574 . S
C571 C590 1.368 . S
C571 H595 0.949 . S
H572 C576 0.949 . S
C573 C574 1.349 . S
C573 C575 1.327 . S
C573 H596 0.950 . S
C574 C573 1.349 . S
C574 C586 1.349 . S
C575 C573 1.327 . S
C575 C591 1.429 . S
C575 H597 0.950 . S
C576 H572 0.949 . S
C576 C584 1.574 . S
C576 C592 1.368 . S
H577 C585 0.950 . S
H578 C583 0.950 . S
H579 C584 0.949 . S
H580 C586 0.950 . S
H581 C587 0.950 . S
H582 C588 0.949 . S
C583 H578 0.950 . S
C583 C585 1.327 . S
C583 C589 1.429 . S
C584 C576 1.574 . S
C584 H579 0.949 . S
C584 C590 1.368 . S
C585 C569 1.349 . S
C585 H577 0.950 . S
C585 C583 1.327 . S
C586 C574 1.349 . S
C586 H580 0.950 . S
C586 C587 1.327 . S
C587 H581 0.950 . S
C587 C586 1.327 . S
C587 C591 1.429 . S
C588 C571 1.574 . S
C588 H582 0.949 . S
C588 C592 1.368 . S
C589 C570 1.429 . S
C589 C583 1.429 . S
C589 C590 1.523 . S
C590 C571 1.368 . S
C590 C584 1.368 . S
C590 C589 1.523 . S
C591 C575 1.429 . S
C591 C587 1.429 . S
C591 C592 1.523 . S
C592 C576 1.368 . S
C592 C588 1.368 . S
C592 C591 1.523 . S
H593 C568 0.950 . S
H594 C570 0.950 . S
H595 C571 0.949 . S
H596 C573 0.950 . S
H597 C575 0.950 . S
C598 C599 1.349 . S
C598 C600 1.327 . S
C598 H623 0.950 . S
C599 C598 1.349 . S
C599 C615 1.349 . S
C600 C598 1.327 . S
C600 C619 1.429 . S
C600 H624 0.950 . S
C601 C618 1.574 . S
C601 C620 1.368 . S
C601 H625 0.949 . S
H602 C606 0.949 . S
C603 C604 1.349 . S
C603 C605 1.327 . S
C603 H626 0.950 . S
C604 C603 1.349 . S
C604 C616 1.349 . S
C605 C603 1.327 . S
C605 C621 1.429 . S
C605 H627 0.950 . S
C606 H602 0.949 . S
C606 C614 1.574 . S
C606 C622 1.368 . S
H607 C615 0.950 . S
H608 C613 0.950 . S
H609 C614 0.949 . S
H610 C616 0.950 . S
H611 C617 0.950 . S
H612 C618 0.949 . S
C613 H608 0.950 . S
C613 C615 1.327 . S
C613 C619 1.429 . S
C614 C606 1.574 . S
C614 H609 0.949 . S
C614 C620 1.368 . S
C615 C599 1.349 . S
C615 H607 0.950 . S
C615 C613 1.327 . S
C616 C604 1.349 . S
C616 H610 0.950 . S
C616 C617 1.327 . S
C617 H611 0.950 . S
C617 C616 1.327 . S
C617 C621 1.429 . S
C618 C601 1.574 . S
C618 H612 0.949 . S
C618 C622 1.368 . S
C619 C600 1.429 . S
C619 C613 1.429 . S
C619 C620 1.523 . S
C620 C601 1.368 . S
C620 C614 1.368 . S
C620 C619 1.523 . S
C621 C605 1.429 . S
C621 C617 1.429 . S
C621 C622 1.523 . S
C622 C606 1.368 . S
C622 C618 1.368 . S
C622 C621 1.523 . S
H623 C598 0.950 . S
H624 C600 0.950 . S
H625 C601 0.949 . S
H626 C603 0.950 . S
H627 C605 0.950 . S
C628 C629 1.349 . S
C628 C630 1.327 . S
C628 H653 0.950 . S
C629 C628 1.349 . S
C629 C645 1.349 . S
C630 C628 1.327 . S
C630 C649 1.429 . S
C630 H654 0.950 . S
C631 C648 1.574 . S
C631 C650 1.368 . S
C631 H655 0.949 . S
H632 C636 0.949 . S
C633 C634 1.349 . S
C633 C635 1.327 . S
C633 H656 0.950 . S
C634 C633 1.349 . S
C634 C646 1.349 . S
C635 C633 1.327 . S
C635 C651 1.429 . S
C635 H657 0.950 . S
C636 H632 0.949 . S
C636 C644 1.574 . S
C636 C652 1.368 . S
H637 C645 0.950 . S
H638 C643 0.950 . S
H639 C644 0.949 . S
H640 C646 0.950 . S
H641 C647 0.950 . S
H642 C648 0.949 . S
C643 H638 0.950 . S
C643 C645 1.327 . S
C643 C649 1.429 . S
C644 C636 1.574 . S
C644 H639 0.949 . S
C644 C650 1.368 . S
C645 C629 1.349 . S
C645 H637 0.950 . S
C645 C643 1.327 . S
C646 C634 1.349 . S
C646 H640 0.950 . S
C646 C647 1.327 . S
C647 H641 0.950 . S
C647 C646 1.327 . S
C647 C651 1.429 . S
C648 C631 1.574 . S
C648 H642 0.949 . S
C648 C652 1.368 . S
C649 C630 1.429 . S
C649 C643 1.429 . S
C649 C650 1.523 . S
C650 C631 1.368 . S
C650 C644 1.368 . S
C650 C649 1.523 . S
C651 C635 1.429 . S
C651 C647 1.429 . S
C651 C652 1.523 . S
C652 C636 1.368 . S
C652 C648 1.368 . S
C652 C651 1.523 . S
H653 C628 0.950 . S
H654 C630 0.950 . S
H655 C631 0.949 . S
H656 C633 0.950 . S
H657 C635 0.950 . S
C658 C659 1.349 . S
C658 C660 1.327 . S
C658 H683 0.950 . S
C659 C658 1.349 . S
C659 C675 1.349 . S
C660 C658 1.327 . S
C660 C679 1.429 . S
C660 H684 0.950 . S
C661 C678 1.574 . S
C661 C680 1.368 . S
C661 H685 0.949 . S
H662 C666 0.949 . S
C663 C664 1.349 . S
C663 C665 1.327 . S
C663 H686 0.950 . S
C664 C663 1.349 . S
C664 C676 1.349 . S
C665 C663 1.327 . S
C665 C681 1.429 . S
C665 H687 0.950 . S
C666 H662 0.949 . S
C666 C674 1.574 . S
C666 C682 1.368 . S
H667 C675 0.950 . S
H668 C673 0.950 . S
H669 C674 0.949 . S
H670 C676 0.950 . S
H671 C677 0.950 . S
H672 C678 0.949 . S
C673 H668 0.950 . S
C673 C675 1.327 . S
C673 C679 1.429 . S
C674 C666 1.574 . S
C674 H669 0.949 . S
C674 C680 1.368 . S
C675 C659 1.349 . S
C675 H667 0.950 . S
C675 C673 1.327 . S
C676 C664 1.349 . S
C676 H670 0.950 . S
C676 C677 1.327 . S
C677 H671 0.950 . S
C677 C676 1.327 . S
C677 C681 1.429 . S
C678 C661 1.574 . S
C678 H672 0.949 . S
C678 C682 1.368 . S
C679 C660 1.429 . S
C679 C673 1.429 . S
C679 C680 1.523 . S
C680 C661 1.368 . S
C680 C674 1.368 . S
C680 C679 1.523 . S
C681 C665 1.429 . S
C681 C677 1.429 . S
C681 C682 1.523 . S
C682 C666 1.368 . S
C682 C678 1.368 . S
C682 C681 1.523 . S
H683 C658 0.950 . S
H684 C660 0.950 . S
H685 C661 0.949 . S
H686 C663 0.950 . S
H687 C665 0.950 . S
C688 C689 1.349 . S
C688 C690 1.327 . S
C688 H713 0.950 . S
C689 C688 1.349 . S
C689 C705 1.349 . S
C690 C688 1.327 . S
C690 C709 1.429 . S
C690 H714 0.950 . S
C691 C708 1.574 . S
C691 C710 1.368 . S
C691 H715 0.949 . S
H692 C696 0.949 . S
C693 C694 1.349 . S
C693 C695 1.327 . S
C693 H716 0.950 . S
C694 C693 1.349 . S
C694 C706 1.349 . S
C695 C693 1.327 . S
C695 C711 1.429 . S
C695 H717 0.950 . S
C696 H692 0.949 . S
C696 C704 1.574 . S
C696 C712 1.368 . S
H697 C705 0.950 . S
H698 C703 0.950 . S
H699 C704 0.949 . S
H700 C706 0.950 . S
H701 C707 0.950 . S
H702 C708 0.949 . S
C703 H698 0.950 . S
C703 C705 1.327 . S
C703 C709 1.429 . S
C704 C696 1.574 . S
C704 H699 0.949 . S
C704 C710 1.368 . S
C705 C689 1.349 . S
C705 H697 0.950 . S
C705 C703 1.327 . S
C706 C694 1.349 . S
C706 H700 0.950 . S
C706 C707 1.327 . S
C707 H701 0.950 . S
C707 C706 1.327 . S
C707 C711 1.429 . S
C708 C691 1.574 . S
C708 H702 0.949 . S
C708 C712 1.368 . S
C709 C690 1.429 . S
C709 C703 1.429 . S
C709 C710 1.523 . S
C710 C691 1.368 . S
C710 C704 1.368 . S
C710 C709 1.523 . S
C711 C695 1.429 . S
C711 C707 1.429 . S
C711 C712 1.523 . S
C712 C696 1.368 . S
C712 C708 1.368 . S
C712 C711 1.523 . S
H713 C688 0.950 . S
H714 C690 0.950 . S
H715 C691 0.949 . S
H716 C693 0.950 . S
H717 C695 0.950 . S
C718 C719 1.349 . S
C718 C720 1.327 . S
C718 H743 0.950 . S
C719 C718 1.349 . S
C719 C735 1.349 . S
C720 C718 1.327 . S
C720 C739 1.429 . S
C720 H744 0.950 . S
C721 C738 1.574 . S
C721 C740 1.368 . S
C721 H745 0.949 . S
H722 C726 0.949 . S
C723 C724 1.349 . S
C723 C725 1.327 . S
C723 H746 0.950 . S
C724 C723 1.349 . S
C724 C736 1.349 . S
C725 C723 1.327 . S
C725 C741 1.429 . S
C725 H747 0.950 . S
C726 H722 0.949 . S
C726 C734 1.574 . S
C726 C742 1.368 . S
H727 C735 0.950 . S
H728 C733 0.950 . S
H729 C734 0.949 . S
H730 C736 0.950 . S
H731 C737 0.950 . S
H732 C738 0.949 . S
C733 H728 0.950 . S
C733 C735 1.327 . S
C733 C739 1.429 . S
C734 C726 1.574 . S
C734 H729 0.949 . S
C734 C740 1.368 . S
C735 C719 1.349 . S
C735 H727 0.950 . S
C735 C733 1.327 . S
C736 C724 1.349 . S
C736 H730 0.950 . S
C736 C737 1.327 . S
C737 H731 0.950 . S
C737 C736 1.327 . S
C737 C741 1.429 . S
C738 C721 1.574 . S
C738 H732 0.949 . S
C738 C742 1.368 . S
C739 C720 1.429 . S
C739 C733 1.429 . S
C739 C740 1.523 . S
C740 C721 1.368 . S
C740 C734 1.368 . S
C740 C739 1.523 . S
C741 C725 1.429 . S
C741 C737 1.429 . S
C741 C742 1.523 . S
C742 C726 1.368 . S
C742 C738 1.368 . S
C742 C741 1.523 . S
H743 C718 0.950 . S
H744 C720 0.950 . S
H745 C721 0.949 . S
H746 C723 0.950 . S
H747 C725 0.950 . S
C748 C749 1.349 . S
C748 C750 1.327 . S
C748 H773 0.950 . S
C749 C748 1.349 . S
C749 C765 1.349 . S
C750 C748 1.327 . S
C750 C769 1.429 . S
C750 H774 0.950 . S
C751 C768 1.574 . S
C751 C770 1.368 . S
C751 H775 0.949 . S
H752 C756 0.949 . S
C753 C754 1.349 . S
C753 C755 1.327 . S
C753 H776 0.950 . S
C754 C753 1.349 . S
C754 C766 1.349 . S
C755 C753 1.327 . S
C755 C771 1.429 . S
C755 H777 0.950 . S
C756 H752 0.949 . S
C756 C764 1.574 . S
C756 C772 1.368 . S
H757 C765 0.950 . S
H758 C763 0.950 . S
H759 C764 0.949 . S
H760 C766 0.950 . S
H761 C767 0.950 . S
H762 C768 0.949 . S
C763 H758 0.950 . S
C763 C765 1.327 . S
C763 C769 1.429 . S
C764 C756 1.574 . S
C764 H759 0.949 . S
C764 C770 1.368 . S
C765 C749 1.349 . S
C765 H757 0.950 . S
C765 C763 1.327 . S
C766 C754 1.349 . S
C766 H760 0.950 . S
C766 C767 1.327 . S
C767 H761 0.950 . S
C767 C766 1.327 . S
C767 C771 1.429 . S
C768 C751 1.574 . S
C768 H762 0.949 . S
C768 C772 1.368 . S
C769 C750 1.429 . S
C769 C763 1.429 . S
C769 C770 1.523 . S
C770 C751 1.368 . S
C770 C764 1.368 . S
C770 C769 1.523 . S
C771 C755 1.429 . S
C771 C767 1.429 . S
C771 C772 1.523 . S
C772 C756 1.368 . S
C772 C768 1.368 . S
C772 C771 1.523 . S
H773 C748 0.950 . S
H774 C750 0.950 . S
H775 C751 0.949 . S
H776 C753 0.950 . S
H777 C755 0.950 . S
C778 C779 1.349 . S
C778 C780 1.327 . S
C778 H803 0.950 . S
C779 C778 1.349 . S
C779 C795 1.349 . S
C780 C778 1.327 . S
C780 C799 1.429 . S
C780 H804 0.950 . S
C781 C798 1.574 . S
C781 C800 1.368 . S
C781 H805 0.949 . S
H782 C786 0.949 . S
C783 C784 1.349 . S
C783 C785 1.327 . S
C783 H806 0.950 . S
C784 C783 1.349 . S
C784 C796 1.349 . S
C785 C783 1.327 . S
C785 C801 1.429 . S
C785 H807 0.950 . S
C786 H782 0.949 . S
C786 C794 1.574 . S
C786 C802 1.368 . S
H787 C795 0.950 . S
H788 C793 0.950 . S
H789 C794 0.949 . S
H790 C796 0.950 . S
H791 C797 0.950 . S
H792 C798 0.949 . S
C793 H788 0.950 . S
C793 C795 1.327 . S
C793 C799 1.429 . S
C794 C786 1.574 . S
C794 H789 0.949 . S
C794 C800 1.368 . S
C795 C779 1.349 . S
C795 H787 0.950 . S
C795 C793 1.327 . S
C796 C784 1.349 . S
C796 H790 0.950 . S
C796 C797 1.327 . S
C797 H791 0.950 . S
C797 C796 1.327 . S
C797 C801 1.429 . S
C798 C781 1.574 . S
C798 H792 0.949 . S
C798 C802 1.368 . S
C799 C780 1.429 . S
C799 C793 1.429 . S
C799 C800 1.523 . S
C800 C781 1.368 . S
C800 C794 1.368 . S
C800 C799 1.523 . S
C801 C785 1.429 . S
C801 C797 1.429 . S
C801 C802 1.523 . S
C802 C786 1.368 . S
C802 C798 1.368 . S
C802 C801 1.523 . S
H803 C778 0.950 . S
H804 C780 0.950 . S
H805 C781 0.949 . S
H806 C783 0.950 . S
H807 C785 0.950 . S
C808 C809 1.349 . S
C808 C810 1.327 . S
C808 H833 0.950 . S
C809 C808 1.349 . S
C809 C825 1.349 . S
C810 C808 1.327 . S
C810 C829 1.429 . S
C810 H834 0.950 . S
C811 C828 1.574 . S
C811 C830 1.368 . S
C811 H835 0.949 . S
H812 C816 0.949 . S
C813 C814 1.349 . S
C813 C815 1.327 . S
C813 H836 0.950 . S
C814 C813 1.349 . S
C814 C826 1.349 . S
C815 C813 1.327 . S
C815 C831 1.429 . S
C815 H837 0.950 . S
C816 H812 0.949 . S
C816 C824 1.574 . S
C816 C832 1.368 . S
H817 C825 0.950 . S
H818 C823 0.950 . S
H819 C824 0.949 . S
H820 C826 0.950 . S
H821 C827 0.950 . S
H822 C828 0.949 . S
C823 H818 0.950 . S
C823 C825 1.327 . S
C823 C829 1.429 . S
C824 C816 1.574 . S
C824 H819 0.949 . S
C824 C830 1.368 . S
C825 C809 1.349 . S
C825 H817 0.950 . S
C825 C823 1.327 . S
C826 C814 1.349 . S
C826 H820 0.950 . S
C826 C827 1.327 . S
C827 H821 0.950 . S
C827 C826 1.327 . S
C827 C831 1.429 . S
C828 C811 1.574 . S
C828 H822 0.949 . S
C828 C832 1.368 . S
C829 C810 1.429 . S
C829 C823 1.429 . S
C829 C830 1.523 . S
C830 C811 1.368 . S
C830 C824 1.368 . S
C830 C829 1.523 . S
C831 C815 1.429 . S
C831 C827 1.429 . S
C831 C832 1.523 . S
C832 C816 1.368 . S
C832 C828 1.368 . S
C832 C831 1.523 . S
H833 C808 0.950 . S
H834 C810 0.950 . S
H835 C811 0.949 . S
H836 C813 0.950 . S
H837 C815 0.950 . S
C838 C839 1.349 . S
C838 C840 1.327 . S
C838 H863 0.950 . S
C839 C838 1.349 . S
C839 C855 1.349 . S
C840 C838 1.327 . S
C840 C859 1.429 . S
C840 H864 0.950 . S
C841 C858 1.574 . S
C841 C860 1.368 . S
C841 H865 0.949 . S
H842 C846 0.949 . S
C843 C844 1.349 . S
C843 C845 1.327 . S
C843 H866 0.950 . S
C844 C843 1.349 . S
C844 C856 1.349 . S
C845 C843 1.327 . S
C845 C861 1.429 . S
C845 H867 0.950 . S
C846 H842 0.949 . S
C846 C854 1.574 . S
C846 C862 1.368 . S
H847 C855 0.950 . S
H848 C853 0.950 . S
H849 C854 0.949 . S
H850 C856 0.950 . S
H851 C857 0.950 . S
H852 C858 0.949 . S
C853 H848 0.950 . S
C853 C855 1.327 . S
C853 C859 1.429 . S
C854 C846 1.574 . S
C854 H849 0.949 . S
C854 C860 1.368 . S
C855 C839 1.349 . S
C855 H847 0.950 . S
C855 C853 1.327 . S
C856 C844 1.349 . S
C856 H850 0.950 . S
C856 C857 1.327 . S
C857 H851 0.950 . S
C857 C856 1.327 . S
C857 C861 1.429 . S
C858 C841 1.574 . S
C858 H852 0.949 . S
C858 C862 1.368 . S
C859 C840 1.429 . S
C859 C853 1.429 . S
C859 C860 1.523 . S
C860 C841 1.368 . S
C860 C854 1.368 . S
C860 C859 1.523 . S
C861 C845 1.429 . S
C861 C857 1.429 . S
C861 C862 1.523 . S
C862 C846 1.368 . S
C862 C858 1.368 . S
C862 C861 1.523 . S
H863 C838 0.950 . S
H864 C840 0.950 . S
H865 C841 0.949 . S
H866 C843 0.950 . S
H867 C845 0.950 . S
C868 C869 1.349 . S
C868 C870 1.327 . S
C868 H893 0.950 . S
C869 C868 1.349 . S
C869 C885 1.349 . S
C870 C868 1.327 . S
C870 C889 1.429 . S
C870 H894 0.950 . S
C871 C888 1.574 . S
C871 C890 1.368 . S
C871 H895 0.949 . S
H872 C876 0.949 . S
C873 C874 1.349 . S
C873 C875 1.327 . S
C873 H896 0.950 . S
C874 C873 1.349 . S
C874 C886 1.349 . S
C875 C873 1.327 . S
C875 C891 1.429 . S
C875 H897 0.950 . S
C876 H872 0.949 . S
C876 C884 1.574 . S
C876 C892 1.368 . S
H877 C885 0.950 . S
H878 C883 0.950 . S
H879 C884 0.949 . S
H880 C886 0.950 . S
H881 C887 0.950 . S
H882 C888 0.949 . S
C883 H878 0.950 . S
C883 C885 1.327 . S
C883 C889 1.429 . S
C884 C876 1.574 . S
C884 H879 0.949 . S
C884 C890 1.368 . S
C885 C869 1.349 . S
C885 H877 0.950 . S
C885 C883 1.327 . S
C886 C874 1.349 . S
C886 H880 0.950 . S
C886 C887 1.327 . S
C887 H881 0.950 . S
C887 C886 1.327 . S
C887 C891 1.429 . S
C888 C871 1.574 . S
C888 H882 0.949 . S
C888 C892 1.368 . S
C889 C870 1.429 . S
C889 C883 1.429 . S
C889 C890 1.523 . S
C890 C871 1.368 . S
C890 C884 1.368 . S
C890 C889 1.523 . S
C891 C875 1.429 . S
C891 C887 1.429 . S
C891 C892 1.523 . S
C892 C876 1.368 . S
C892 C888 1.368 . S
C892 C891 1.523 . S
H893 C868 0.950 . S
H894 C870 0.950 . S
H895 C871 0.949 . S
H896 C873 0.950 . S
H897 C875 0.950 . S
C898 C899 1.349 . S
C898 C900 1.327 . S
C898 H923 0.950 . S
C899 C898 1.349 . S
C899 C915 1.349 . S
C900 C898 1.327 . S
C900 C919 1.429 . S
C900 H924 0.950 . S
C901 C918 1.574 . S
C901 C920 1.368 . S
C901 H925 0.949 . S
H902 C906 0.949 . S
C903 C904 1.349 . S
C903 C905 1.327 . S
C903 H926 0.950 . S
C904 C903 1.349 . S
C904 C916 1.349 . S
C905 C903 1.327 . S
C905 C921 1.429 . S
C905 H927 0.950 . S
C906 H902 0.949 . S
C906 C914 1.574 . S
C906 C922 1.368 . S
H907 C915 0.950 . S
H908 C913 0.950 . S
H909 C914 0.949 . S
H910 C916 0.950 . S
H911 C917 0.950 . S
H912 C918 0.949 . S
C913 H908 0.950 . S
C913 C915 1.327 . S
C913 C919 1.429 . S
C914 C906 1.574 . S
C914 H909 0.949 . S
C914 C920 1.368 . S
C915 C899 1.349 . S
C915 H907 0.950 . S
C915 C913 1.327 . S
C916 C904 1.349 . S
C916 H910 0.950 . S
C916 C917 1.327 . S
C917 H911 0.950 . S
C917 C916 1.327 . S
C917 C921 1.429 . S
C918 C901 1.574 . S
C918 H912 0.949 . S
C918 C922 1.368 . S
C919 C900 1.429 . S
C919 C913 1.429 . S
C919 C920 1.523 . S
C920 C901 1.368 . S
C920 C914 1.368 . S
C920 C919 1.523 . S
C921 C905 1.429 . S
C921 C917 1.429 . S
C921 C922 1.523 . S
C922 C906 1.368 . S
C922 C918 1.368 . S
C922 C921 1.523 . S
H923 C898 0.950 . S
H924 C900 0.950 . S
H925 C901 0.949 . S
H926 C903 0.950 . S
H927 C905 0.950 . S
C928 C929 1.349 . S
C928 C930 1.327 . S
C928 H953 0.950 . S
C929 C928 1.349 . S
C929 C945 1.349 . S
C930 C928 1.327 . S
C930 C949 1.429 . S
C930 H954 0.950 . S
C931 C948 1.548 1_655 S
C931 C950 1.368 . S
C931 H955 0.949 . S
H932 C936 0.949 . S
C933 C934 1.349 . S
C933 C935 1.327 . S
C933 H956 0.950 . S
C934 C933 1.349 . S
C934 C946 1.349 . S
C935 C933 1.327 . S
C935 C951 1.429 . S
C935 H957 0.950 . S
C936 H932 0.949 . S
C936 C944 1.548 1_455 S
C936 C952 1.368 . S
H937 C945 0.950 . S
H938 C943 0.950 . S
H939 C944 0.952 . S
H940 C946 0.950 . S
H941 C947 0.950 . S
H942 C948 0.952 . S
C943 H938 0.950 . S
C943 C945 1.327 . S
C943 C949 1.429 . S
C944 C936 1.548 1_655 S
C944 H939 0.952 . S
C944 C950 1.393 . S
C945 C929 1.349 . S
C945 H937 0.950 . S
C945 C943 1.327 . S
C946 C934 1.349 . S
C946 H940 0.950 . S
C946 C947 1.327 . S
C947 H941 0.950 . S
C947 C946 1.327 . S
C947 C951 1.429 . S
C948 C931 1.548 1_455 S
C948 H942 0.952 . S
C948 C952 1.393 . S
C949 C930 1.429 . S
C949 C943 1.429 . S
C949 C950 1.523 . S
C950 C931 1.368 . S
C950 C944 1.393 . S
C950 C949 1.523 . S
C951 C935 1.429 . S
C951 C947 1.429 . S
C951 C952 1.523 . S
C952 C936 1.368 . S
C952 C948 1.393 . S
C952 C951 1.523 . S
H953 C928 0.950 . S
H954 C930 0.950 . S
H955 C931 0.949 . S
H956 C933 0.950 . S
H957 C935 0.950 . S
C958 C959 1.349 . S
C958 C960 1.327 . S
C958 H983 0.950 . S
C959 C958 1.349 . S
C959 C975 1.349 . S
C960 C958 1.327 . S
C960 C979 1.429 . S
C960 H984 0.950 . S
C961 C978 1.564 1_565 S
C961 C980 1.368 . S
C961 H985 0.949 . S
H962 C966 0.949 . S
C963 C964 1.349 . S
C963 C965 1.327 . S
C963 H986 0.950 . S
C964 C963 1.349 . S
C964 C976 1.349 . S
C965 C963 1.327 . S
C965 C981 1.429 . S
C965 H987 0.950 . S
C966 H962 0.949 . S
C966 C974 1.564 1_545 S
C966 C982 1.368 . S
H967 C975 0.950 . S
H968 C973 0.950 . S
H969 C974 0.948 . S
H970 C976 0.950 . S
H971 C977 0.950 . S
H972 C978 0.948 . S
C973 H968 0.950 . S
C973 C975 1.327 . S
C973 C979 1.429 . S
C974 C966 1.564 1_565 S
C974 H969 0.948 . S
C974 C980 1.378 . S
C975 C959 1.349 . S
C975 H967 0.950 . S
C975 C973 1.327 . S
C976 C964 1.349 . S
C976 H970 0.950 . S
C976 C977 1.327 . S
C977 H971 0.950 . S
C977 C976 1.327 . S
C977 C981 1.429 . S
C978 C961 1.564 1_545 S
C978 H972 0.948 . S
C978 C982 1.378 . S
C979 C960 1.429 . S
C979 C973 1.429 . S
C979 C980 1.523 . S
C980 C961 1.368 . S
C980 C974 1.378 . S
C980 C979 1.523 . S
C981 C965 1.429 . S
C981 C977 1.429 . S
C981 C982 1.523 . S
C982 C966 1.368 . S
C982 C978 1.378 . S
C982 C981 1.523 . S
H983 C958 0.950 . S
H984 C960 0.950 . S
H985 C961 0.949 . S
H986 C963 0.950 . S
H987 C965 0.950 . S
C988 C989 1.324 1_554 S
C988 C990 1.327 . S
C988 H1013 0.950 . S
C989 C988 1.324 1_556 S
C989 C1005 1.374 . S
C990 C988 1.327 . S
C990 C1009 1.419 1_554 S
C990 H1014 0.950 . S
C991 C1008 1.527 1_465 S
C991 C1010 1.395 . S
C991 H1015 0.952 . S
H992 C996 0.952 . S
C993 C994 1.322 1_556 S
C993 C995 1.327 . S
C993 H1016 0.950 . S
C994 C993 1.322 1_554 S
C994 C1006 1.376 . S
C995 C993 1.327 . S
C995 C1011 1.418 1_556 S
C995 H1017 0.950 . S
C996 H992 0.952 . S
C996 C1004 1.528 1_645 S
C996 C1012 1.397 . S
H997 C1005 0.950 . S
H998 C1003 0.950 . S
H999 C1004 0.951 . S
H1000 C1006 0.950 . S
H1001 C1007 0.950 . S
H1002 C1008 0.951 . S
C1003 H998 0.950 . S
C1003 C1005 1.327 . S
C1003 C1009 1.438 . S
C1004 C996 1.528 1_465 S
C1004 H999 0.951 . S
C1004 C1010 1.384 1_554 S
C1005 C989 1.374 . S
C1005 H997 0.950 . S
C1005 C1003 1.327 . S
C1006 C994 1.376 . S
C1006 H1000 0.950 . S
C1006 C1007 1.327 . S
C1007 H1001 0.950 . S
C1007 C1006 1.327 . S
C1007 C1011 1.439 . S
C1008 C991 1.527 1_645 S
C1008 H1002 0.951 . S
C1008 C1012 1.383 1_556 S
C1009 C990 1.419 1_556 S
C1009 C1003 1.438 . S
C1009 C1010 1.523 . S
C1010 C991 1.395 . S
C1010 C1004 1.384 1_556 S
C1010 C1009 1.523 . S
C1011 C995 1.418 1_554 S
C1011 C1007 1.439 . S
C1011 C1012 1.523 . S
C1012 C996 1.397 . S
C1012 C1008 1.383 1_554 S
C1012 C1011 1.523 . S
H1013 C988 0.950 . S
H1014 C990 0.950 . S
H1015 C991 0.952 . S
H1016 C993 0.950 . S
H1017 C995 0.950 . S
C1018 C1019 1.322 1_556 S
C1018 C1020 1.327 . S
C1018 H1043 0.950 . S
C1019 C1018 1.322 1_554 S
C1019 C1035 1.376 . S
C1020 C1018 1.327 . S
C1020 C1039 1.418 1_556 S
C1020 H1044 0.950 . S
C1021 C1038 1.574 . S
C1021 C1040 1.371 . S
C1021 H1045 0.949 . S
H1022 C1026 0.949 . S
C1023 C1024 1.323 1_554 S
C1023 C1025 1.327 . S
C1023 H1046 0.950 . S
C1024 C1023 1.323 1_556 S
C1024 C1036 1.375 . S
C1025 C1023 1.327 . S
C1025 C1041 1.419 1_554 S
C1025 H1047 0.950 . S
C1026 H1022 0.949 . S
C1026 C1034 1.574 . S
C1026 C1042 1.370 . S
H1027 C1035 0.950 . S
H1028 C1033 0.950 . S
H1029 C1034 0.949 . S
H1030 C1036 0.950 . S
H1031 C1037 0.950 . S
H1032 C1038 0.949 . S
C1033 H1028 0.950 . S
C1033 C1035 1.327 . S
C1033 C1039 1.439 . S
C1034 C1026 1.574 . S
C1034 H1029 0.949 . S
C1034 C1040 1.366 1_556 S
C1035 C1019 1.376 . S
C1035 H1027 0.950 . S
C1035 C1033 1.327 . S
C1036 C1024 1.375 . S
C1036 H1030 0.950 . S
C1036 C1037 1.327 . S
C1037 H1031 0.950 . S
C1037 C1036 1.327 . S
C1037 C1041 1.438 . S
C1038 C1021 1.574 . S
C1038 H1032 0.949 . S
C1038 C1042 1.367 1_554 S
C1039 C1020 1.418 1_554 S
C1039 C1033 1.439 . S
C1039 C1040 1.523 . S
C1040 C1021 1.371 . S
C1040 C1034 1.366 1_554 S
C1040 C1039 1.523 . S
C1041 C1025 1.419 1_556 S
C1041 C1037 1.438 . S
C1041 C1042 1.523 . S
C1042 C1026 1.370 . S
C1042 C1038 1.367 1_556 S
C1042 C1041 1.523 . S
H1043 C1018 0.950 . S
H1044 C1020 0.950 . S
H1045 C1021 0.949 . S
H1046 C1023 0.950 . S
H1047 C1025 0.950 . S
C1048 C1049 1.349 . S
C1048 C1050 1.327 . S
C1048 H1073 0.950 . S
C1049 C1048 1.349 . S
C1049 C1065 1.349 . S
C1050 C1048 1.327 . S
C1050 C1069 1.429 . S
C1050 H1074 0.950 . S
C1051 C1068 1.574 1_655 S
C1051 C1070 1.368 . S
C1051 H1075 0.949 . S
H1052 C1056 0.949 . S
C1053 C1054 1.349 . S
C1053 C1055 1.327 . S
C1053 H1076 0.950 . S
C1054 C1053 1.349 . S
C1054 C1066 1.349 . S
C1055 C1053 1.327 . S
C1055 C1071 1.429 . S
C1055 H1077 0.950 . S
C1056 H1052 0.949 . S
C1056 C1064 1.574 1_455 S
C1056 C1072 1.368 . S
H1057 C1065 0.950 . S
H1058 C1063 0.950 . S
H1059 C1064 0.949 . S
H1060 C1066 0.950 . S
H1061 C1067 0.950 . S
H1062 C1068 0.949 . S
C1063 H1058 0.950 . S
C1063 C1065 1.327 . S
C1063 C1069 1.429 . S
C1064 C1056 1.574 1_655 S
C1064 H1059 0.949 . S
C1064 C1070 1.368 . S
C1065 C1049 1.349 . S
C1065 H1057 0.950 . S
C1065 C1063 1.327 . S
C1066 C1054 1.349 . S
C1066 H1060 0.950 . S
C1066 C1067 1.327 . S
C1067 H1061 0.950 . S
C1067 C1066 1.327 . S
C1067 C1071 1.429 . S
C1068 C1051 1.574 1_455 S
C1068 H1062 0.949 . S
C1068 C1072 1.368 . S
C1069 C1050 1.429 . S
C1069 C1063 1.429 . S
C1069 C1070 1.523 . S
C1070 C1051 1.368 . S
C1070 C1064 1.368 . S
C1070 C1069 1.523 . S
C1071 C1055 1.429 . S
C1071 C1067 1.429 . S
C1071 C1072 1.523 . S
C1072 C1056 1.368 . S
C1072 C1068 1.368 . S
C1072 C1071 1.523 . S
H1073 C1048 0.950 . S
H1074 C1050 0.950 . S
H1075 C1051 0.949 . S
H1076 C1053 0.950 . S
H1077 C1055 0.950 . S
C1078 C1079 1.349 . S
C1078 C1080 1.327 . S
C1078 H1103 0.950 . S
C1079 C1078 1.349 . S
C1079 C1095 1.349 . S
C1080 C1078 1.327 . S
C1080 C1099 1.429 . S
C1080 H1104 0.950 . S
C1081 C1098 1.546 1_565 S
C1081 C1100 1.394 . S
C1081 H1105 0.952 . S
H1082 C1086 0.952 . S
C1083 C1084 1.349 . S
C1083 C1085 1.327 . S
C1083 H1106 0.950 . S
C1084 C1083 1.349 . S
C1084 C1096 1.349 . S
C1085 C1083 1.327 . S
C1085 C1101 1.429 . S
C1085 H1107 0.950 . S
C1086 H1082 0.952 . S
C1086 C1094 1.546 1_545 S
C1086 C1102 1.394 . S
H1087 C1095 0.950 . S
H1088 C1093 0.950 . S
H1089 C1094 0.949 . S
H1090 C1096 0.950 . S
H1091 C1097 0.950 . S
H1092 C1098 0.949 . S
C1093 H1088 0.950 . S
C1093 C1095 1.327 . S
C1093 C1099 1.429 . S
C1094 C1086 1.546 1_565 S
C1094 H1089 0.949 . S
C1094 C1100 1.368 . S
C1095 C1079 1.349 . S
C1095 H1087 0.950 . S
C1095 C1093 1.327 . S
C1096 C1084 1.349 . S
C1096 H1090 0.950 . S
C1096 C1097 1.327 . S
C1097 H1091 0.950 . S
C1097 C1096 1.327 . S
C1097 C1101 1.429 . S
C1098 C1081 1.546 1_545 S
C1098 H1092 0.949 . S
C1098 C1102 1.368 . S
C1099 C1080 1.429 . S
C1099 C1093 1.429 . S
C1099 C1100 1.523 . S
C1100 C1081 1.394 . S
C1100 C1094 1.368 . S
C1100 C1099 1.523 . S
C1101 C1085 1.429 . S
C1101 C1097 1.429 . S
C1101 C1102 1.523 . S
C1102 C1086 1.394 . S
C1102 C1098 1.368 . S
C1102 C1101 1.523 . S
H1103 C1078 0.950 . S
H1104 C1080 0.950 . S
H1105 C1081 0.952 . S
H1106 C1083 0.950 . S
H1107 C1085 0.950 . S
C1108 C1109 1.323 1_554 S
C1108 C1110 1.327 . S
C1108 H1133 0.950 . S
C1109 C1108 1.323 1_556 S
C1109 C1125 1.375 . S
C1110 C1108 1.327 . S
C1110 C1129 1.419 1_554 S
C1110 H1134 0.950 . S
C1111 C1128 1.574 . S
C1111 C1130 1.370 . S
C1111 H1135 0.949 . S
H1112 C1116 0.949 . S
C1113 C1114 1.322 1_556 S
C1113 C1115 1.327 . S
C1113 H1136 0.950 . S
C1114 C1113 1.322 1_554 S
C1114 C1126 1.376 . S
C1115 C1113 1.327 . S
C1115 C1131 1.418 1_556 S
C1115 H1137 0.950 . S
C1116 H1112 0.949 . S
C1116 C1124 1.574 . S
C1116 C1132 1.371 . S
H1117 C1125 0.950 . S
H1118 C1123 0.950 . S
H1119 C1124 0.949 . S
H1120 C1126 0.950 . S
H1121 C1127 0.950 . S
H1122 C1128 0.949 . S
C1123 H1118 0.950 . S
C1123 C1125 1.327 . S
C1123 C1129 1.438 . S
C1124 C1116 1.574 . S
C1124 H1119 0.949 . S
C1124 C1130 1.367 1_554 S
C1125 C1109 1.375 . S
C1125 H1117 0.950 . S
C1125 C1123 1.327 . S
C1126 C1114 1.376 . S
C1126 H1120 0.950 . S
C1126 C1127 1.327 . S
C1127 H1121 0.950 . S
C1127 C1126 1.327 . S
C1127 C1131 1.439 . S
C1128 C1111 1.574 . S
C1128 H1122 0.949 . S
C1128 C1132 1.366 1_556 S
C1129 C1110 1.419 1_556 S
C1129 C1123 1.438 . S
C1129 C1130 1.523 . S
C1130 C1111 1.370 . S
C1130 C1124 1.367 1_556 S
C1130 C1129 1.523 . S
C1131 C1115 1.418 1_554 S
C1131 C1127 1.439 . S
C1131 C1132 1.523 . S
C1132 C1116 1.371 . S
C1132 C1128 1.366 1_554 S
C1132 C1131 1.523 . S
H1133 C1108 0.950 . S
H1134 C1110 0.950 . S
H1135 C1111 0.949 . S
H1136 C1113 0.950 . S
H1137 C1115 0.950 . S
C1138 C1139 1.349 . S
C1138 C1140 1.327 . S
C1138 H1163 0.950 . S
C1139 C1138 1.349 . S
C1139 C1155 1.349 . S
C1140 C1138 1.327 . S
C1140 C1159 1.429 . S
C1140 H1164 0.950 . S
C1141 C1158 1.574 . S
C1141 C1160 1.368 . S
C1141 H1165 0.949 . S
H1142 C1146 0.949 . S
C1143 C1144 1.349 . S
C1143 C1145 1.327 . S
C1143 H1166 0.950 . S
C1144 C1143 1.349 . S
C1144 C1156 1.349 . S
C1145 C1143 1.327 . S
C1145 C1161 1.429 . S
C1145 H1167 0.950 . S
C1146 H1142 0.949 . S
C1146 C1154 1.574 . S
C1146 C1162 1.368 . S
H1147 C1155 0.950 . S
H1148 C1153 0.950 . S
H1149 C1154 0.949 . S
H1150 C1156 0.950 . S
H1151 C1157 0.950 . S
H1152 C1158 0.949 . S
C1153 H1148 0.950 . S
C1153 C1155 1.327 . S
C1153 C1159 1.429 . S
C1154 C1146 1.574 . S
C1154 H1149 0.949 . S
C1154 C1160 1.368 . S
C1155 C1139 1.349 . S
C1155 H1147 0.950 . S
C1155 C1153 1.327 . S
C1156 C1144 1.349 . S
C1156 H1150 0.950 . S
C1156 C1157 1.327 . S
C1157 H1151 0.950 . S
C1157 C1156 1.327 . S
C1157 C1161 1.429 . S
C1158 C1141 1.574 . S
C1158 H1152 0.949 . S
C1158 C1162 1.368 . S
C1159 C1140 1.429 . S
C1159 C1153 1.429 . S
C1159 C1160 1.523 . S
C1160 C1141 1.368 . S
C1160 C1154 1.368 . S
C1160 C1159 1.523 . S
C1161 C1145 1.429 . S
C1161 C1157 1.429 . S
C1161 C1162 1.523 . S
C1162 C1146 1.368 . S
C1162 C1158 1.368 . S
C1162 C1161 1.523 . S
H1163 C1138 0.950 . S
H1164 C1140 0.950 . S
H1165 C1141 0.949 . S
H1166 C1143 0.950 . S
H1167 C1145 0.950 . S
C1168 C1169 1.349 . S
C1168 C1170 1.327 . S
C1168 H1193 0.950 . S
C1169 C1168 1.349 . S
C1169 C1185 1.349 . S
C1170 C1168 1.327 . S
C1170 C1189 1.429 . S
C1170 H1194 0.950 . S
C1171 C1188 1.547 1_655 S
C1171 C1190 1.368 . S
C1171 H1195 0.949 . S
H1172 C1176 0.949 . S
C1173 C1174 1.349 . S
C1173 C1175 1.327 . S
C1173 H1196 0.950 . S
C1174 C1173 1.349 . S
C1174 C1186 1.349 . S
C1175 C1173 1.327 . S
C1175 C1191 1.429 . S
C1175 H1197 0.950 . S
C1176 H1172 0.949 . S
C1176 C1184 1.547 1_455 S
C1176 C1192 1.368 . S
H1177 C1185 0.950 . S
H1178 C1183 0.950 . S
H1179 C1184 0.952 . S
H1180 C1186 0.950 . S
H1181 C1187 0.950 . S
H1182 C1188 0.952 . S
C1183 H1178 0.950 . S
C1183 C1185 1.327 . S
C1183 C1189 1.429 . S
C1184 C1176 1.547 1_655 S
C1184 H1179 0.952 . S
C1184 C1190 1.393 . S
C1185 C1169 1.349 . S
C1185 H1177 0.950 . S
C1185 C1183 1.327 . S
C1186 C1174 1.349 . S
C1186 H1180 0.950 . S
C1186 C1187 1.327 . S
C1187 H1181 0.950 . S
C1187 C1186 1.327 . S
C1187 C1191 1.429 . S
C1188 C1171 1.547 1_455 S
C1188 H1182 0.952 . S
C1188 C1192 1.393 . S
C1189 C1170 1.429 . S
C1189 C1183 1.429 . S
C1189 C1190 1.523 . S
C1190 C1171 1.368 . S
C1190 C1184 1.393 . S
C1190 C1189 1.523 . S
C1191 C1175 1.429 . S
C1191 C1187 1.429 . S
C1191 C1192 1.523 . S
C1192 C1176 1.368 . S
C1192 C1188 1.393 . S
C1192 C1191 1.523 . S
H1193 C1168 0.950 . S
H1194 C1170 0.950 . S
H1195 C1171 0.949 . S
H1196 C1173 0.950 . S
H1197 C1175 0.950 . S
C1198 C1199 1.349 . S
C1198 C1200 1.327 . S
C1198 H1223 0.950 . S
C1199 C1198 1.349 . S
C1199 C1215 1.349 . S
C1200 C1198 1.327 . S
C1200 C1219 1.429 . S
C1200 H1224 0.950 . S
C1201 C1218 1.574 . S
C1201 C1220 1.368 . S
C1201 H1225 0.949 . S
H1202 C1206 0.949 . S
C1203 C1204 1.349 . S
C1203 C1205 1.327 . S
C1203 H1226 0.950 . S
C1204 C1203 1.349 . S
C1204 C1216 1.349 . S
C1205 C1203 1.327 . S
C1205 C1221 1.429 . S
C1205 H1227 0.950 . S
C1206 H1202 0.949 . S
C1206 C1214 1.574 . S
C1206 C1222 1.368 . S
H1207 C1215 0.950 . S
H1208 C1213 0.950 . S
H1209 C1214 0.949 . S
H1210 C1216 0.950 . S
H1211 C1217 0.950 . S
H1212 C1218 0.949 . S
C1213 H1208 0.950 . S
C1213 C1215 1.327 . S
C1213 C1219 1.429 . S
C1214 C1206 1.574 . S
C1214 H1209 0.949 . S
C1214 C1220 1.368 . S
C1215 C1199 1.349 . S
C1215 H1207 0.950 . S
C1215 C1213 1.327 . S
C1216 C1204 1.349 . S
C1216 H1210 0.950 . S
C1216 C1217 1.327 . S
C1217 H1211 0.950 . S
C1217 C1216 1.327 . S
C1217 C1221 1.429 . S
C1218 C1201 1.574 . S
C1218 H1212 0.949 . S
C1218 C1222 1.368 . S
C1219 C1200 1.429 . S
C1219 C1213 1.429 . S
C1219 C1220 1.523 . S
C1220 C1201 1.368 . S
C1220 C1214 1.368 . S
C1220 C1219 1.523 . S
C1221 C1205 1.429 . S
C1221 C1217 1.429 . S
C1221 C1222 1.523 . S
C1222 C1206 1.368 . S
C1222 C1218 1.368 . S
C1222 C1221 1.523 . S
H1223 C1198 0.950 . S
H1224 C1200 0.950 . S
H1225 C1201 0.949 . S
H1226 C1203 0.950 . S
H1227 C1205 0.950 . S
C1228 C1229 1.349 . S
C1228 C1230 1.327 . S
C1228 H1253 0.950 . S
C1229 C1228 1.349 . S
C1229 C1245 1.349 . S
C1230 C1228 1.327 . S
C1230 C1249 1.429 . S
C1230 H1254 0.950 . S
C1231 C1248 1.574 . S
C1231 C1250 1.368 . S
C1231 H1255 0.949 . S
H1232 C1236 0.949 . S
C1233 C1234 1.349 . S
C1233 C1235 1.327 . S
C1233 H1256 0.950 . S
C1234 C1233 1.349 . S
C1234 C1246 1.349 . S
C1235 C1233 1.327 . S
C1235 C1251 1.429 . S
C1235 H1257 0.950 . S
C1236 H1232 0.949 . S
C1236 C1244 1.574 . S
C1236 C1252 1.368 . S
H1237 C1245 0.950 . S
H1238 C1243 0.950 . S
H1239 C1244 0.949 . S
H1240 C1246 0.950 . S
H1241 C1247 0.950 . S
H1242 C1248 0.949 . S
C1243 H1238 0.950 . S
C1243 C1245 1.327 . S
C1243 C1249 1.429 . S
C1244 C1236 1.574 . S
C1244 H1239 0.949 . S
C1244 C1250 1.368 . S
C1245 C1229 1.349 . S
C1245 H1237 0.950 . S
C1245 C1243 1.327 . S
C1246 C1234 1.349 . S
C1246 H1240 0.950 . S
C1246 C1247 1.327 . S
C1247 H1241 0.950 . S
C1247 C1246 1.327 . S
C1247 C1251 1.429 . S
C1248 C1231 1.574 . S
C1248 H1242 0.949 . S
C1248 C1252 1.368 . S
C1249 C1230 1.429 . S
C1249 C1243 1.429 . S
C1249 C1250 1.523 . S
C1250 C1231 1.368 . S
C1250 C1244 1.368 . S
C1250 C1249 1.523 . S
C1251 C1235 1.429 . S
C1251 C1247 1.429 . S
C1251 C1252 1.523 . S
C1252 C1236 1.368 . S
C1252 C1248 1.368 . S
C1252 C1251 1.523 . S
H1253 C1228 0.950 . S
H1254 C1230 0.950 . S
H1255 C1231 0.949 . S
H1256 C1233 0.950 . S
H1257 C1235 0.950 . S
C1258 C1259 1.349 . S
C1258 C1260 1.327 . S
C1258 H1283 0.950 . S
C1259 C1258 1.349 . S
C1259 C1275 1.349 . S
C1260 C1258 1.327 . S
C1260 C1279 1.429 . S
C1260 H1284 0.950 . S
C1261 C1278 1.574 . S
C1261 C1280 1.368 . S
C1261 H1285 0.949 . S
H1262 C1266 0.949 . S
C1263 C1264 1.349 . S
C1263 C1265 1.327 . S
C1263 H1286 0.950 . S
C1264 C1263 1.349 . S
C1264 C1276 1.349 . S
C1265 C1263 1.327 . S
C1265 C1281 1.429 . S
C1265 H1287 0.950 . S
C1266 H1262 0.949 . S
C1266 C1274 1.574 . S
C1266 C1282 1.368 . S
H1267 C1275 0.950 . S
H1268 C1273 0.950 . S
H1269 C1274 0.949 . S
H1270 C1276 0.950 . S
H1271 C1277 0.950 . S
H1272 C1278 0.949 . S
C1273 H1268 0.950 . S
C1273 C1275 1.327 . S
C1273 C1279 1.429 . S
C1274 C1266 1.574 . S
C1274 H1269 0.949 . S
C1274 C1280 1.368 . S
C1275 C1259 1.349 . S
C1275 H1267 0.950 . S
C1275 C1273 1.327 . S
C1276 C1264 1.349 . S
C1276 H1270 0.950 . S
C1276 C1277 1.327 . S
C1277 H1271 0.950 . S
C1277 C1276 1.327 . S
C1277 C1281 1.429 . S
C1278 C1261 1.574 . S
C1278 H1272 0.949 . S
C1278 C1282 1.368 . S
C1279 C1260 1.429 . S
C1279 C1273 1.429 . S
C1279 C1280 1.523 . S
C1280 C1261 1.368 . S
C1280 C1274 1.368 . S
C1280 C1279 1.523 . S
C1281 C1265 1.429 . S
C1281 C1277 1.429 . S
C1281 C1282 1.523 . S
C1282 C1266 1.368 . S
C1282 C1278 1.368 . S
C1282 C1281 1.523 . S
H1283 C1258 0.950 . S
H1284 C1260 0.950 . S
H1285 C1261 0.949 . S
H1286 C1263 0.950 . S
H1287 C1265 0.950 . S
C1288 C1289 1.349 . S
C1288 C1290 1.327 . S
C1288 H1313 0.950 . S
C1289 C1288 1.349 . S
C1289 C1305 1.349 . S
C1290 C1288 1.327 . S
C1290 C1309 1.429 . S
C1290 H1314 0.950 . S
C1291 C1308 1.574 . S
C1291 C1310 1.368 . S
C1291 H1315 0.949 . S
H1292 C1296 0.949 . S
C1293 C1294 1.349 . S
C1293 C1295 1.327 . S
C1293 H1316 0.950 . S
C1294 C1293 1.349 . S
C1294 C1306 1.349 . S
C1295 C1293 1.327 . S
C1295 C1311 1.429 . S
C1295 H1317 0.950 . S
C1296 H1292 0.949 . S
C1296 C1304 1.574 . S
C1296 C1312 1.368 . S
H1297 C1305 0.950 . S
H1298 C1303 0.950 . S
H1299 C1304 0.949 . S
H1300 C1306 0.950 . S
H1301 C1307 0.950 . S
H1302 C1308 0.949 . S
C1303 H1298 0.950 . S
C1303 C1305 1.327 . S
C1303 C1309 1.429 . S
C1304 C1296 1.574 . S
C1304 H1299 0.949 . S
C1304 C1310 1.368 . S
C1305 C1289 1.349 . S
C1305 H1297 0.950 . S
C1305 C1303 1.327 . S
C1306 C1294 1.349 . S
C1306 H1300 0.950 . S
C1306 C1307 1.327 . S
C1307 H1301 0.950 . S
C1307 C1306 1.327 . S
C1307 C1311 1.429 . S
C1308 C1291 1.574 . S
C1308 H1302 0.949 . S
C1308 C1312 1.368 . S
C1309 C1290 1.429 . S
C1309 C1303 1.429 . S
C1309 C1310 1.523 . S
C1310 C1291 1.368 . S
C1310 C1304 1.368 . S
C1310 C1309 1.523 . S
C1311 C1295 1.429 . S
C1311 C1307 1.429 . S
C1311 C1312 1.523 . S
C1312 C1296 1.368 . S
C1312 C1308 1.368 . S
C1312 C1311 1.523 . S
H1313 C1288 0.950 . S
H1314 C1290 0.950 . S
H1315 C1291 0.949 . S
H1316 C1293 0.950 . S
H1317 C1295 0.950 . S
C1318 C1319 1.349 . S
C1318 C1320 1.327 . S
C1318 H1343 0.950 . S
C1319 C1318 1.349 . S
C1319 C1335 1.349 . S
C1320 C1318 1.327 . S
C1320 C1339 1.429 . S
C1320 H1344 0.950 . S
C1321 C1338 1.553 1_545 S
C1321 C1340 1.368 . S
C1321 H1345 0.949 . S
H1322 C1326 0.949 . S
C1323 C1324 1.349 . S
C1323 C1325 1.327 . S
C1323 H1346 0.950 . S
C1324 C1323 1.349 . S
C1324 C1336 1.349 . S
C1325 C1323 1.327 . S
C1325 C1341 1.429 . S
C1325 H1347 0.950 . S
C1326 H1322 0.949 . S
C1326 C1334 1.553 1_565 S
C1326 C1342 1.368 . S
H1327 C1335 0.950 . S
H1328 C1333 0.950 . S
H1329 C1334 0.951 . S
H1330 C1336 0.950 . S
H1331 C1337 0.950 . S
H1332 C1338 0.951 . S
C1333 H1328 0.950 . S
C1333 C1335 1.327 . S
C1333 C1339 1.429 . S
C1334 C1326 1.553 1_545 S
C1334 H1329 0.951 . S
C1334 C1340 1.388 . S
C1335 C1319 1.349 . S
C1335 H1327 0.950 . S
C1335 C1333 1.327 . S
C1336 C1324 1.349 . S
C1336 H1330 0.950 . S
C1336 C1337 1.327 . S
C1337 H1331 0.950 . S
C1337 C1336 1.327 . S
C1337 C1341 1.429 . S
C1338 C1321 1.553 1_565 S
C1338 H1332 0.951 . S
C1338 C1342 1.388 . S
C1339 C1320 1.429 . S
C1339 C1333 1.429 . S
C1339 C1340 1.523 . S
C1340 C1321 1.368 . S
C1340 C1334 1.388 . S
C1340 C1339 1.523 . S
C1341 C1325 1.429 . S
C1341 C1337 1.429 . S
C1341 C1342 1.523 . S
C1342 C1326 1.368 . S
C1342 C1338 1.388 . S
C1342 C1341 1.523 . S
H1343 C1318 0.950 . S
H1344 C1320 0.950 . S
H1345 C1321 0.949 . S
H1346 C1323 0.950 . S
H1347 C1325 0.950 . S
C1348 C1349 1.349 . S
C1348 C1350 1.327 . S
C1348 H1373 0.950 . S
C1349 C1348 1.349 . S
C1349 C1365 1.349 . S
C1350 C1348 1.327 . S
C1350 C1369 1.429 . S
C1350 H1374 0.950 . S
C1351 C1368 1.574 . S
C1351 C1370 1.368 . S
C1351 H1375 0.949 . S
H1352 C1356 0.949 . S
C1353 C1354 1.349 . S
C1353 C1355 1.327 . S
C1353 H1376 0.950 . S
C1354 C1353 1.349 . S
C1354 C1366 1.349 . S
C1355 C1353 1.327 . S
C1355 C1371 1.429 . S
C1355 H1377 0.950 . S
C1356 H1352 0.949 . S
C1356 C1364 1.574 . S
C1356 C1372 1.368 . S
H1357 C1365 0.950 . S
H1358 C1363 0.950 . S
H1359 C1364 0.949 . S
H1360 C1366 0.950 . S
H1361 C1367 0.950 . S
H1362 C1368 0.949 . S
C1363 H1358 0.950 . S
C1363 C1365 1.327 . S
C1363 C1369 1.429 . S
C1364 C1356 1.574 . S
C1364 H1359 0.949 . S
C1364 C1370 1.368 . S
C1365 C1349 1.349 . S
C1365 H1357 0.950 . S
C1365 C1363 1.327 . S
C1366 C1354 1.349 . S
C1366 H1360 0.950 . S
C1366 C1367 1.327 . S
C1367 H1361 0.950 . S
C1367 C1366 1.327 . S
C1367 C1371 1.429 . S
C1368 C1351 1.574 . S
C1368 H1362 0.949 . S
C1368 C1372 1.368 . S
C1369 C1350 1.429 . S
C1369 C1363 1.429 . S
C1369 C1370 1.523 . S
C1370 C1351 1.368 . S
C1370 C1364 1.368 . S
C1370 C1369 1.523 . S
C1371 C1355 1.429 . S
C1371 C1367 1.429 . S
C1371 C1372 1.523 . S
C1372 C1356 1.368 . S
C1372 C1368 1.368 . S
C1372 C1371 1.523 . S
H1373 C1348 0.950 . S
H1374 C1350 0.950 . S
H1375 C1351 0.949 . S
H1376 C1353 0.950 . S
H1377 C1355 0.950 . S
C1378 C1379 1.375 . S
C1378 C1380 1.327 . S
C1378 H1403 0.950 . S
C1379 C1378 1.375 . S
C1379 C1395 1.323 1_556 S
C1380 C1378 1.327 . S
C1380 C1399 1.438 . S
C1380 H1404 0.950 . S
C1381 C1398 1.574 . S
C1381 C1400 1.367 1_554 S
C1381 H1405 0.949 . S
H1382 C1386 0.949 . S
C1383 C1384 1.376 . S
C1383 C1385 1.327 . S
C1383 H1406 0.950 . S
C1384 C1383 1.376 . S
C1384 C1396 1.322 1_554 S
C1385 C1383 1.327 . S
C1385 C1401 1.439 . S
C1385 H1407 0.950 . S
C1386 H1382 0.949 . S
C1386 C1394 1.574 . S
C1386 C1402 1.366 1_556 S
H1387 C1395 0.950 . S
H1388 C1393 0.950 . S
H1389 C1394 0.949 . S
H1390 C1396 0.950 . S
H1391 C1397 0.950 . S
H1392 C1398 0.949 . S
C1393 H1388 0.950 . S
C1393 C1395 1.327 . S
C1393 C1399 1.419 1_554 S
C1394 C1386 1.574 . S
C1394 H1389 0.949 . S
C1394 C1400 1.370 . S
C1395 C1379 1.323 1_554 S
C1395 H1387 0.950 . S
C1395 C1393 1.327 . S
C1396 C1384 1.322 1_556 S
C1396 H1390 0.950 . S
C1396 C1397 1.327 . S
C1397 H1391 0.950 . S
C1397 C1396 1.327 . S
C1397 C1401 1.418 1_556 S
C1398 C1381 1.574 . S
C1398 H1392 0.949 . S
C1398 C1402 1.371 . S
C1399 C1380 1.438 . S
C1399 C1393 1.419 1_556 S
C1399 C1400 1.523 . S
C1400 C1381 1.367 1_556 S
C1400 C1394 1.370 . S
C1400 C1399 1.523 . S
C1401 C1385 1.439 . S
C1401 C1397 1.418 1_554 S
C1401 C1402 1.523 . S
C1402 C1386 1.366 1_554 S
C1402 C1398 1.371 . S
C1402 C1401 1.523 . S
H1403 C1378 0.950 . S
H1404 C1380 0.950 . S
H1405 C1381 0.949 . S
H1406 C1383 0.950 . S
H1407 C1385 0.950 . S
C1408 C1409 1.349 . S
C1408 C1410 1.327 . S
C1408 H1433 0.950 . S
C1409 C1408 1.349 . S
C1409 C1425 1.349 . S
C1410 C1408 1.327 . S
C1410 C1429 1.429 . S
C1410 H1434 0.950 . S
C1411 C1428 1.574 . S
C1411 C1430 1.368 . S
C1411 H1435 0.949 . S
H1412 C1416 0.949 . S
C1413 C1414 1.349 . S
C1413 C1415 1.327 . S
C1413 H1436 0.950 . S
C1414 C1413 1.349 . S
C1414 C1426 1.349 . S
C1415 C1413 1.327 . S
C1415 C1431 1.429 . S
C1415 H1437 0.950 . S
C1416 H1412 0.949 . S
C1416 C1424 1.574 . S
C1416 C1432 1.368 . S
H1417 C1425 0.950 . S
H1418 C1423 0.950 . S
H1419 C1424 0.949 . S
H1420 C1426 0.950 . S
H1421 C1427 0.950 . S
H1422 C1428 0.949 . S
C1423 H1418 0.950 . S
C1423 C1425 1.327 . S
C1423 C1429 1.429 . S
C1424 C1416 1.574 . S
C1424 H1419 0.949 . S
C1424 C1430 1.368 . S
C1425 C1409 1.349 . S
C1425 H1417 0.950 . S
C1425 C1423 1.327 . S
C1426 C1414 1.349 . S
C1426 H1420 0.950 . S
C1426 C1427 1.327 . S
C1427 H1421 0.950 . S
C1427 C1426 1.327 . S
C1427 C1431 1.429 . S
C1428 C1411 1.574 . S
C1428 H1422 0.949 . S
C1428 C1432 1.368 . S
C1429 C1410 1.429 . S
C1429 C1423 1.429 . S
C1429 C1430 1.523 . S
C1430 C1411 1.368 . S
C1430 C1424 1.368 . S
C1430 C1429 1.523 . S
C1431 C1415 1.429 . S
C1431 C1427 1.429 . S
C1431 C1432 1.523 . S
C1432 C1416 1.368 . S
C1432 C1428 1.368 . S
C1432 C1431 1.523 . S
H1433 C1408 0.950 . S
H1434 C1410 0.950 . S
H1435 C1411 0.949 . S
H1436 C1413 0.950 . S
H1437 C1415 0.950 . S
C1438 C1439 1.349 . S
C1438 C1440 1.327 . S
C1438 H1463 0.950 . S
C1439 C1438 1.349 . S
C1439 C1455 1.349 . S
C1440 C1438 1.327 . S
C1440 C1459 1.429 . S
C1440 H1464 0.950 . S
C1441 C1458 1.574 . S
C1441 C1460 1.368 . S
C1441 H1465 0.949 . S
H1442 C1446 0.949 . S
C1443 C1444 1.349 . S
C1443 C1445 1.327 . S
C1443 H1466 0.950 . S
C1444 C1443 1.349 . S
C1444 C1456 1.349 . S
C1445 C1443 1.327 . S
C1445 C1461 1.429 . S
C1445 H1467 0.950 . S
C1446 H1442 0.949 . S
C1446 C1454 1.574 . S
C1446 C1462 1.368 . S
H1447 C1455 0.950 . S
H1448 C1453 0.950 . S
H1449 C1454 0.949 . S
H1450 C1456 0.950 . S
H1451 C1457 0.950 . S
H1452 C1458 0.949 . S
C1453 H1448 0.950 . S
C1453 C1455 1.327 . S
C1453 C1459 1.429 . S
C1454 C1446 1.574 . S
C1454 H1449 0.949 . S
C1454 C1460 1.368 . S
C1455 C1439 1.349 . S
C1455 H1447 0.950 . S
C1455 C1453 1.327 . S
C1456 C1444 1.349 . S
C1456 H1450 0.950 . S
C1456 C1457 1.327 . S
C1457 H1451 0.950 . S
C1457 C1456 1.327 . S
C1457 C1461 1.429 . S
C1458 C1441 1.574 . S
C1458 H1452 0.949 . S
C1458 C1462 1.368 . S
C1459 C1440 1.429 . S
C1459 C1453 1.429 . S
C1459 C1460 1.523 . S
C1460 C1441 1.368 . S
C1460 C1454 1.368 . S
C1460 C1459 1.523 . S
C1461 C1445 1.429 . S
C1461 C1457 1.429 . S
C1461 C1462 1.523 . S
C1462 C1446 1.368 . S
C1462 C1458 1.368 . S
C1462 C1461 1.523 . S
H1463 C1438 0.950 . S
H1464 C1440 0.950 . S
H1465 C1441 0.949 . S
H1466 C1443 0.950 . S
H1467 C1445 0.950 . S
C1468 C1469 1.349 . S
C1468 C1470 1.327 . S
C1468 H1493 0.950 . S
C1469 C1468 1.349 . S
C1469 C1485 1.349 . S
C1470 C1468 1.327 . S
C1470 C1489 1.429 . S
C1470 H1494 0.950 . S
C1471 C1488 1.574 . S
C1471 C1490 1.368 . S
C1471 H1495 0.949 . S
H1472 C1476 0.949 . S
C1473 C1474 1.349 . S
C1473 C1475 1.327 . S
C1473 H1496 0.950 . S
C1474 C1473 1.349 . S
C1474 C1486 1.349 . S
C1475 C1473 1.327 . S
C1475 C1491 1.429 . S
C1475 H1497 0.950 . S
C1476 H1472 0.949 . S
C1476 C1484 1.574 . S
C1476 C1492 1.368 . S
H1477 C1485 0.950 . S
H1478 C1483 0.950 . S
H1479 C1484 0.949 . S
H1480 C1486 0.950 . S
H1481 C1487 0.950 . S
H1482 C1488 0.949 . S
C1483 H1478 0.950 . S
C1483 C1485 1.327 . S
C1483 C1489 1.429 . S
C1484 C1476 1.574 . S
C1484 H1479 0.949 . S
C1484 C1490 1.368 . S
C1485 C1469 1.349 . S
C1485 H1477 0.950 . S
C1485 C1483 1.327 . S
C1486 C1474 1.349 . S
C1486 H1480 0.950 . S
C1486 C1487 1.327 . S
C1487 H1481 0.950 . S
C1487 C1486 1.327 . S
C1487 C1491 1.429 . S
C1488 C1471 1.574 . S
C1488 H1482 0.949 . S
C1488 C1492 1.368 . S
C1489 C1470 1.429 . S
C1489 C1483 1.429 . S
C1489 C1490 1.523 . S
C1490 C1471 1.368 . S
C1490 C1484 1.368 . S
C1490 C1489 1.523 . S
C1491 C1475 1.429 . S
C1491 C1487 1.429 . S
C1491 C1492 1.523 . S
C1492 C1476 1.368 . S
C1492 C1488 1.368 . S
C1492 C1491 1.523 . S
H1493 C1468 0.950 . S
H1494 C1470 0.950 . S
H1495 C1471 0.949 . S
H1496 C1473 0.950 . S
H1497 C1475 0.950 . S
C1498 C1499 1.349 . S
C1498 C1500 1.327 . S
C1498 H1523 0.950 . S
C1499 C1498 1.349 . S
C1499 C1515 1.349 . S
C1500 C1498 1.327 . S
C1500 C1519 1.429 . S
C1500 H1524 0.950 . S
C1501 C1518 1.574 . S
C1501 C1520 1.368 . S
C1501 H1525 0.949 . S
H1502 C1506 0.949 . S
C1503 C1504 1.349 . S
C1503 C1505 1.327 . S
C1503 H1526 0.950 . S
C1504 C1503 1.349 . S
C1504 C1516 1.349 . S
C1505 C1503 1.327 . S
C1505 C1521 1.429 . S
C1505 H1527 0.950 . S
C1506 H1502 0.949 . S
C1506 C1514 1.574 . S
C1506 C1522 1.368 . S
H1507 C1515 0.950 . S
H1508 C1513 0.950 . S
H1509 C1514 0.949 . S
H1510 C1516 0.950 . S
H1511 C1517 0.950 . S
H1512 C1518 0.949 . S
C1513 H1508 0.950 . S
C1513 C1515 1.327 . S
C1513 C1519 1.429 . S
C1514 C1506 1.574 . S
C1514 H1509 0.949 . S
C1514 C1520 1.368 . S
C1515 C1499 1.349 . S
C1515 H1507 0.950 . S
C1515 C1513 1.327 . S
C1516 C1504 1.349 . S
C1516 H1510 0.950 . S
C1516 C1517 1.327 . S
C1517 H1511 0.950 . S
C1517 C1516 1.327 . S
C1517 C1521 1.429 . S
C1518 C1501 1.574 . S
C1518 H1512 0.949 . S
C1518 C1522 1.368 . S
C1519 C1500 1.429 . S
C1519 C1513 1.429 . S
C1519 C1520 1.523 . S
C1520 C1501 1.368 . S
C1520 C1514 1.368 . S
C1520 C1519 1.523 . S
C1521 C1505 1.429 . S
C1521 C1517 1.429 . S
C1521 C1522 1.523 . S
C1522 C1506 1.368 . S
C1522 C1518 1.368 . S
C1522 C1521 1.523 . S
H1523 C1498 0.950 . S
H1524 C1500 0.950 . S
H1525 C1501 0.949 . S
H1526 C1503 0.950 . S
H1527 C1505 0.950 . S
C1528 C1529 1.349 . S
C1528 C1530 1.327 . S
C1528 H1553 0.950 . S
C1529 C1528 1.349 . S
C1529 C1545 1.349 . S
C1530 C1528 1.327 . S
C1530 C1549 1.429 . S
C1530 H1554 0.950 . S
C1531 C1548 1.574 . S
C1531 C1550 1.368 . S
C1531 H1555 0.949 . S
H1532 C1536 0.949 . S
C1533 C1534 1.349 . S
C1533 C1535 1.327 . S
C1533 H1556 0.950 . S
C1534 C1533 1.349 . S
C1534 C1546 1.349 . S
C1535 C1533 1.327 . S
C1535 C1551 1.429 . S
C1535 H1557 0.950 . S
C1536 H1532 0.949 . S
C1536 C1544 1.574 . S
C1536 C1552 1.368 . S
H1537 C1545 0.950 . S
H1538 C1543 0.950 . S
H1539 C1544 0.949 . S
H1540 C1546 0.950 . S
H1541 C1547 0.950 . S
H1542 C1548 0.949 . S
C1543 H1538 0.950 . S
C1543 C1545 1.327 . S
C1543 C1549 1.429 . S
C1544 C1536 1.574 . S
C1544 H1539 0.949 . S
C1544 C1550 1.368 . S
C1545 C1529 1.349 . S
C1545 H1537 0.950 . S
C1545 C1543 1.327 . S
C1546 C1534 1.349 . S
C1546 H1540 0.950 . S
C1546 C1547 1.327 . S
C1547 H1541 0.950 . S
C1547 C1546 1.327 . S
C1547 C1551 1.429 . S
C1548 C1531 1.574 . S
C1548 H1542 0.949 . S
C1548 C1552 1.368 . S
C1549 C1530 1.429 . S
C1549 C1543 1.429 . S
C1549 C1550 1.523 . S
C1550 C1531 1.368 . S
C1550 C1544 1.368 . S
C1550 C1549 1.523 . S
C1551 C1535 1.429 . S
C1551 C1547 1.429 . S
C1551 C1552 1.523 . S
C1552 C1536 1.368 . S
C1552 C1548 1.368 . S
C1552 C1551 1.523 . S
H1553 C1528 0.950 . S
H1554 C1530 0.950 . S
H1555 C1531 0.949 . S
H1556 C1533 0.950 . S
H1557 C1535 0.950 . S
C1558 C1559 1.349 . S
C1558 C1560 1.327 . S
C1558 H1583 0.950 . S
C1559 C1558 1.349 . S
C1559 C1575 1.349 . S
C1560 C1558 1.327 . S
C1560 C1579 1.429 . S
C1560 H1584 0.950 . S
C1561 C1578 1.574 . S
C1561 C1580 1.368 . S
C1561 H1585 0.949 . S
H1562 C1566 0.949 . S
C1563 C1564 1.349 . S
C1563 C1565 1.327 . S
C1563 H1586 0.950 . S
C1564 C1563 1.349 . S
C1564 C1576 1.349 . S
C1565 C1563 1.327 . S
C1565 C1581 1.429 . S
C1565 H1587 0.950 . S
C1566 H1562 0.949 . S
C1566 C1574 1.574 . S
C1566 C1582 1.368 . S
H1567 C1575 0.950 . S
H1568 C1573 0.950 . S
H1569 C1574 0.949 . S
H1570 C1576 0.950 . S
H1571 C1577 0.950 . S
H1572 C1578 0.949 . S
C1573 H1568 0.950 . S
C1573 C1575 1.327 . S
C1573 C1579 1.429 . S
C1574 C1566 1.574 . S
C1574 H1569 0.949 . S
C1574 C1580 1.368 . S
C1575 C1559 1.349 . S
C1575 H1567 0.950 . S
C1575 C1573 1.327 . S
C1576 C1564 1.349 . S
C1576 H1570 0.950 . S
C1576 C1577 1.327 . S
C1577 H1571 0.950 . S
C1577 C1576 1.327 . S
C1577 C1581 1.429 . S
C1578 C1561 1.574 . S
C1578 H1572 0.949 . S
C1578 C1582 1.368 . S
C1579 C1560 1.429 . S
C1579 C1573 1.429 . S
C1579 C1580 1.523 . S
C1580 C1561 1.368 . S
C1580 C1574 1.368 . S
C1580 C1579 1.523 . S
C1581 C1565 1.429 . S
C1581 C1577 1.429 . S
C1581 C1582 1.523 . S
C1582 C1566 1.368 . S
C1582 C1578 1.368 . S
C1582 C1581 1.523 . S
H1583 C1558 0.950 . S
H1584 C1560 0.950 . S
H1585 C1561 0.949 . S
H1586 C1563 0.950 . S
H1587 C1565 0.950 . S
C1588 C1589 1.349 . S
C1588 C1590 1.327 . S
C1588 H1613 0.950 . S
C1589 C1588 1.349 . S
C1589 C1605 1.349 . S
C1590 C1588 1.327 . S
C1590 C1609 1.429 . S
C1590 H1614 0.950 . S
C1591 C1608 1.574 . S
C1591 C1610 1.368 . S
C1591 H1615 0.949 . S
H1592 C1596 0.949 . S
C1593 C1594 1.349 . S
C1593 C1595 1.327 . S
C1593 H1616 0.950 . S
C1594 C1593 1.349 . S
C1594 C1606 1.349 . S
C1595 C1593 1.327 . S
C1595 C1611 1.429 . S
C1595 H1617 0.950 . S
C1596 H1592 0.949 . S
C1596 C1604 1.574 . S
C1596 C1612 1.368 . S
H1597 C1605 0.950 . S
H1598 C1603 0.950 . S
H1599 C1604 0.949 . S
H1600 C1606 0.950 . S
H1601 C1607 0.950 . S
H1602 C1608 0.949 . S
C1603 H1598 0.950 . S
C1603 C1605 1.327 . S
C1603 C1609 1.429 . S
C1604 C1596 1.574 . S
C1604 H1599 0.949 . S
C1604 C1610 1.368 . S
C1605 C1589 1.349 . S
C1605 H1597 0.950 . S
C1605 C1603 1.327 . S
C1606 C1594 1.349 . S
C1606 H1600 0.950 . S
C1606 C1607 1.327 . S
C1607 H1601 0.950 . S
C1607 C1606 1.327 . S
C1607 C1611 1.429 . S
C1608 C1591 1.574 . S
C1608 H1602 0.949 . S
C1608 C1612 1.368 . S
C1609 C1590 1.429 . S
C1609 C1603 1.429 . S
C1609 C1610 1.523 . S
C1610 C1591 1.368 . S
C1610 C1604 1.368 . S
C1610 C1609 1.523 . S
C1611 C1595 1.429 . S
C1611 C1607 1.429 . S
C1611 C1612 1.523 . S
C1612 C1596 1.368 . S
C1612 C1608 1.368 . S
C1612 C1611 1.523 . S
H1613 C1588 0.950 . S
H1614 C1590 0.950 . S
H1615 C1591 0.949 . S
H1616 C1593 0.950 . S
H1617 C1595 0.950 . S
C1618 C1619 1.349 . S
C1618 C1620 1.327 . S
C1618 H1643 0.950 . S
C1619 C1618 1.349 . S
C1619 C1635 1.349 . S
C1620 C1618 1.327 . S
C1620 C1639 1.429 . S
C1620 H1644 0.950 . S
C1621 C1638 1.574 . S
C1621 C1640 1.368 . S
C1621 H1645 0.949 . S
H1622 C1626 0.949 . S
C1623 C1624 1.349 . S
C1623 C1625 1.327 . S
C1623 H1646 0.950 . S
C1624 C1623 1.349 . S
C1624 C1636 1.349 . S
C1625 C1623 1.327 . S
C1625 C1641 1.429 . S
C1625 H1647 0.950 . S
C1626 H1622 0.949 . S
C1626 C1634 1.574 . S
C1626 C1642 1.368 . S
H1627 C1635 0.950 . S
H1628 C1633 0.950 . S
H1629 C1634 0.949 . S
H1630 C1636 0.950 . S
H1631 C1637 0.950 . S
H1632 C1638 0.949 . S
C1633 H1628 0.950 . S
C1633 C1635 1.327 . S
C1633 C1639 1.429 . S
C1634 C1626 1.574 . S
C1634 H1629 0.949 . S
C1634 C1640 1.368 . S
C1635 C1619 1.349 . S
C1635 H1627 0.950 . S
C1635 C1633 1.327 . S
C1636 C1624 1.349 . S
C1636 H1630 0.950 . S
C1636 C1637 1.327 . S
C1637 H1631 0.950 . S
C1637 C1636 1.327 . S
C1637 C1641 1.429 . S
C1638 C1621 1.574 . S
C1638 H1632 0.949 . S
C1638 C1642 1.368 . S
C1639 C1620 1.429 . S
C1639 C1633 1.429 . S
C1639 C1640 1.523 . S
C1640 C1621 1.368 . S
C1640 C1634 1.368 . S
C1640 C1639 1.523 . S
C1641 C1625 1.429 . S
C1641 C1637 1.429 . S
C1641 C1642 1.523 . S
C1642 C1626 1.368 . S
C1642 C1638 1.368 . S
C1642 C1641 1.523 . S
H1643 C1618 0.950 . S
H1644 C1620 0.950 . S
H1645 C1621 0.949 . S
H1646 C1623 0.950 . S
H1647 C1625 0.950 . S
C1648 C1649 1.349 . S
C1648 C1650 1.327 . S
C1648 H1673 0.950 . S
C1649 C1648 1.349 . S
C1649 C1665 1.349 . S
C1650 C1648 1.327 . S
C1650 C1669 1.429 . S
C1650 H1674 0.950 . S
C1651 C1668 1.574 . S
C1651 C1670 1.368 . S
C1651 H1675 0.949 . S
H1652 C1656 0.949 . S
C1653 C1654 1.349 . S
C1653 C1655 1.327 . S
C1653 H1676 0.950 . S
C1654 C1653 1.349 . S
C1654 C1666 1.349 . S
C1655 C1653 1.327 . S
C1655 C1671 1.429 . S
C1655 H1677 0.950 . S
C1656 H1652 0.949 . S
C1656 C1664 1.574 . S
C1656 C1672 1.368 . S
H1657 C1665 0.950 . S
H1658 C1663 0.950 . S
H1659 C1664 0.949 . S
H1660 C1666 0.950 . S
H1661 C1667 0.950 . S
H1662 C1668 0.949 . S
C1663 H1658 0.950 . S
C1663 C1665 1.327 . S
C1663 C1669 1.429 . S
C1664 C1656 1.574 . S
C1664 H1659 0.949 . S
C1664 C1670 1.368 . S
C1665 C1649 1.349 . S
C1665 H1657 0.950 . S
C1665 C1663 1.327 . S
C1666 C1654 1.349 . S
C1666 H1660 0.950 . S
C1666 C1667 1.327 . S
C1667 H1661 0.950 . S
C1667 C1666 1.327 . S
C1667 C1671 1.429 . S
C1668 C1651 1.574 . S
C1668 H1662 0.949 . S
C1668 C1672 1.368 . S
C1669 C1650 1.429 . S
C1669 C1663 1.429 . S
C1669 C1670 1.523 . S
C1670 C1651 1.368 . S
C1670 C1664 1.368 . S
C1670 C1669 1.523 . S
C1671 C1655 1.429 . S
C1671 C1667 1.429 . S
C1671 C1672 1.523 . S
C1672 C1656 1.368 . S
C1672 C1668 1.368 . S
C1672 C1671 1.523 . S
H1673 C1648 0.950 . S
H1674 C1650 0.950 . S
H1675 C1651 0.949 . S
H1676 C1653 0.950 . S
H1677 C1655 0.950 . S
C1678 C1679 1.349 . S
C1678 C1680 1.327 . S
C1678 H1703 0.950 . S
C1679 C1678 1.349 . S
C1679 C1695 1.349 . S
C1680 C1678 1.327 . S
C1680 C1699 1.429 . S
C1680 H1704 0.950 . S
C1681 C1698 1.574 . S
C1681 C1700 1.368 . S
C1681 H1705 0.949 . S
H1682 C1686 0.949 . S
C1683 C1684 1.349 . S
C1683 C1685 1.327 . S
C1683 H1706 0.950 . S
C1684 C1683 1.349 . S
C1684 C1696 1.349 . S
C1685 C1683 1.327 . S
C1685 C1701 1.429 . S
C1685 H1707 0.950 . S
C1686 H1682 0.949 . S
C1686 C1694 1.574 . S
C1686 C1702 1.368 . S
H1687 C1695 0.950 . S
H1688 C1693 0.950 . S
H1689 C1694 0.949 . S
H1690 C1696 0.950 . S
H1691 C1697 0.950 . S
H1692 C1698 0.949 . S
C1693 H1688 0.950 . S
C1693 C1695 1.327 . S
C1693 C1699 1.429 . S
C1694 C1686 1.574 . S
C1694 H1689 0.949 . S
C1694 C1700 1.368 . S
C1695 C1679 1.349 . S
C1695 H1687 0.950 . S
C1695 C1693 1.327 . S
C1696 C1684 1.349 . S
C1696 H1690 0.950 . S
C1696 C1697 1.327 . S
C1697 H1691 0.950 . S
C1697 C1696 1.327 . S
C1697 C1701 1.429 . S
C1698 C1681 1.574 . S
C1698 H1692 0.949 . S
C1698 C1702 1.368 . S
C1699 C1680 1.429 . S
C1699 C1693 1.429 . S
C1699 C1700 1.523 . S
C1700 C1681 1.368 . S
C1700 C1694 1.368 . S
C1700 C1699 1.523 . S
C1701 C1685 1.429 . S
C1701 C1697 1.429 . S
C1701 C1702 1.523 . S
C1702 C1686 1.368 . S
C1702 C1698 1.368 . S
C1702 C1701 1.523 . S
H1703 C1678 0.950 . S
H1704 C1680 0.950 . S
H1705 C1681 0.949 . S
H1706 C1683 0.950 . S
H1707 C1685 0.950 . S
C1708 C1709 1.349 . S
C1708 C1710 1.327 . S
C1708 H1733 0.950 . S
C1709 C1708 1.349 . S
C1709 C1725 1.349 . S
C1710 C1708 1.327 . S
C1710 C1729 1.429 . S
C1710 H1734 0.950 . S
C1711 C1728 1.574 . S
C1711 C1730 1.368 . S
C1711 H1735 0.949 . S
H1712 C1716 0.949 . S
C1713 C1714 1.349 . S
C1713 C1715 1.327 . S
C1713 H1736 0.950 . S
C1714 C1713 1.349 . S
C1714 C1726 1.349 . S
C1715 C1713 1.327 . S
C1715 C1731 1.429 . S
C1715 H1737 0.950 . S
C1716 H1712 0.949 . S
C1716 C1724 1.574 . S
C1716 C1732 1.368 . S
H1717 C1725 0.950 . S
H1718 C1723 0.950 . S
H1719 C1724 0.949 . S
H1720 C1726 0.950 . S
H1721 C1727 0.950 . S
H1722 C1728 0.949 . S
C1723 H1718 0.950 . S
C1723 C1725 1.327 . S
C1723 C1729 1.429 . S
C1724 C1716 1.574 . S
C1724 H1719 0.949 . S
C1724 C1730 1.368 . S
C1725 C1709 1.349 . S
C1725 H1717 0.950 . S
C1725 C1723 1.327 . S
C1726 C1714 1.349 . S
C1726 H1720 0.950 . S
C1726 C1727 1.327 . S
C1727 H1721 0.950 . S
C1727 C1726 1.327 . S
C1727 C1731 1.429 . S
C1728 C1711 1.574 . S
C1728 H1722 0.949 . S
C1728 C1732 1.368 . S
C1729 C1710 1.429 . S
C1729 C1723 1.429 . S
C1729 C1730 1.523 . S
C1730 C1711 1.368 . S
C1730 C1724 1.368 . S
C1730 C1729 1.523 . S
C1731 C1715 1.429 . S
C1731 C1727 1.429 . S
C1731 C1732 1.523 . S
C1732 C1716 1.368 . S
C1732 C1728 1.368 . S
C1732 C1731 1.523 . S
H1733 C1708 0.950 . S
H1734 C1710 0.950 . S
H1735 C1711 0.949 . S
H1736 C1713 0.950 . S
H1737 C1715 0.950 . S
C1738 C1739 1.349 . S
C1738 C1740 1.327 . S
C1738 H1763 0.950 . S
C1739 C1738 1.349 . S
C1739 C1755 1.349 . S
C1740 C1738 1.327 . S
C1740 C1759 1.429 . S
C1740 H1764 0.950 . S
C1741 C1758 1.574 . S
C1741 C1760 1.368 . S
C1741 H1765 0.949 . S
H1742 C1746 0.949 . S
C1743 C1744 1.349 . S
C1743 C1745 1.327 . S
C1743 H1766 0.950 . S
C1744 C1743 1.349 . S
C1744 C1756 1.349 . S
C1745 C1743 1.327 . S
C1745 C1761 1.429 . S
C1745 H1767 0.950 . S
C1746 H1742 0.949 . S
C1746 C1754 1.574 . S
C1746 C1762 1.368 . S
H1747 C1755 0.950 . S
H1748 C1753 0.950 . S
H1749 C1754 0.949 . S
H1750 C1756 0.950 . S
H1751 C1757 0.950 . S
H1752 C1758 0.949 . S
C1753 H1748 0.950 . S
C1753 C1755 1.327 . S
C1753 C1759 1.429 . S
C1754 C1746 1.574 . S
C1754 H1749 0.949 . S
C1754 C1760 1.368 . S
C1755 C1739 1.349 . S
C1755 H1747 0.950 . S
C1755 C1753 1.327 . S
C1756 C1744 1.349 . S
C1756 H1750 0.950 . S
C1756 C1757 1.327 . S
C1757 H1751 0.950 . S
C1757 C1756 1.327 . S
C1757 C1761 1.429 . S
C1758 C1741 1.574 . S
C1758 H1752 0.949 . S
C1758 C1762 1.368 . S
C1759 C1740 1.429 . S
C1759 C1753 1.429 . S
C1759 C1760 1.523 . S
C1760 C1741 1.368 . S
C1760 C1754 1.368 . S
C1760 C1759 1.523 . S
C1761 C1745 1.429 . S
C1761 C1757 1.429 . S
C1761 C1762 1.523 . S
C1762 C1746 1.368 . S
C1762 C1758 1.368 . S
C1762 C1761 1.523 . S
H1763 C1738 0.950 . S
H1764 C1740 0.950 . S
H1765 C1741 0.949 . S
H1766 C1743 0.950 . S
H1767 C1745 0.950 . S
C1768 C1769 1.349 . S
C1768 C1770 1.327 . S
C1768 H1793 0.950 . S
C1769 C1768 1.349 . S
C1769 C1785 1.349 . S
C1770 C1768 1.327 . S
C1770 C1789 1.429 . S
C1770 H1794 0.950 . S
C1771 C1788 1.574 . S
C1771 C1790 1.368 . S
C1771 H1795 0.949 . S
H1772 C1776 0.949 . S
C1773 C1774 1.349 . S
C1773 C1775 1.327 . S
C1773 H1796 0.950 . S
C1774 C1773 1.349 . S
C1774 C1786 1.349 . S
C1775 C1773 1.327 . S
C1775 C1791 1.429 . S
C1775 H1797 0.950 . S
C1776 H1772 0.949 . S
C1776 C1784 1.574 . S
C1776 C1792 1.368 . S
H1777 C1785 0.950 . S
H1778 C1783 0.950 . S
H1779 C1784 0.949 . S
H1780 C1786 0.950 . S
H1781 C1787 0.950 . S
H1782 C1788 0.949 . S
C1783 H1778 0.950 . S
C1783 C1785 1.327 . S
C1783 C1789 1.429 . S
C1784 C1776 1.574 . S
C1784 H1779 0.949 . S
C1784 C1790 1.368 . S
C1785 C1769 1.349 . S
C1785 H1777 0.950 . S
C1785 C1783 1.327 . S
C1786 C1774 1.349 . S
C1786 H1780 0.950 . S
C1786 C1787 1.327 . S
C1787 H1781 0.950 . S
C1787 C1786 1.327 . S
C1787 C1791 1.429 . S
C1788 C1771 1.574 . S
C1788 H1782 0.949 . S
C1788 C1792 1.368 . S
C1789 C1770 1.429 . S
C1789 C1783 1.429 . S
C1789 C1790 1.523 . S
C1790 C1771 1.368 . S
C1790 C1784 1.368 . S
C1790 C1789 1.523 . S
C1791 C1775 1.429 . S
C1791 C1787 1.429 . S
C1791 C1792 1.523 . S
C1792 C1776 1.368 . S
C1792 C1788 1.368 . S
C1792 C1791 1.523 . S
H1793 C1768 0.950 . S
H1794 C1770 0.950 . S
H1795 C1771 0.949 . S
H1796 C1773 0.950 . S
H1797 C1775 0.950 . S
C1798 C1799 1.349 . S
C1798 C1800 1.327 . S
C1798 H1823 0.950 . S
C1799 C1798 1.349 . S
C1799 C1815 1.349 . S
C1800 C1798 1.327 . S
C1800 C1819 1.429 . S
C1800 H1824 0.950 . S
C1801 C1818 1.574 . S
C1801 C1820 1.368 . S
C1801 H1825 0.949 . S
H1802 C1806 0.949 . S
C1803 C1804 1.349 . S
C1803 C1805 1.327 . S
C1803 H1826 0.950 . S
C1804 C1803 1.349 . S
C1804 C1816 1.349 . S
C1805 C1803 1.327 . S
C1805 C1821 1.429 . S
C1805 H1827 0.950 . S
C1806 H1802 0.949 . S
C1806 C1814 1.574 . S
C1806 C1822 1.368 . S
H1807 C1815 0.950 . S
H1808 C1813 0.950 . S
H1809 C1814 0.949 . S
H1810 C1816 0.950 . S
H1811 C1817 0.950 . S
H1812 C1818 0.949 . S
C1813 H1808 0.950 . S
C1813 C1815 1.327 . S
C1813 C1819 1.429 . S
C1814 C1806 1.574 . S
C1814 H1809 0.949 . S
C1814 C1820 1.368 . S
C1815 C1799 1.349 . S
C1815 H1807 0.950 . S
C1815 C1813 1.327 . S
C1816 C1804 1.349 . S
C1816 H1810 0.950 . S
C1816 C1817 1.327 . S
C1817 H1811 0.950 . S
C1817 C1816 1.327 . S
C1817 C1821 1.429 . S
C1818 C1801 1.574 . S
C1818 H1812 0.949 . S
C1818 C1822 1.368 . S
C1819 C1800 1.429 . S
C1819 C1813 1.429 . S
C1819 C1820 1.523 . S
C1820 C1801 1.368 . S
C1820 C1814 1.368 . S
C1820 C1819 1.523 . S
C1821 C1805 1.429 . S
C1821 C1817 1.429 . S
C1821 C1822 1.523 . S
C1822 C1806 1.368 . S
C1822 C1818 1.368 . S
C1822 C1821 1.523 . S
H1823 C1798 0.950 . S
H1824 C1800 0.950 . S
H1825 C1801 0.949 . S
H1826 C1803 0.950 . S
H1827 C1805 0.950 . S
C1828 C1829 1.349 . S
C1828 C1830 1.327 . S
C1828 H1853 0.950 . S
C1829 C1828 1.349 . S
C1829 C1845 1.349 . S
C1830 C1828 1.327 . S
C1830 C1849 1.429 . S
C1830 H1854 0.950 . S
C1831 C1848 1.574 . S
C1831 C1850 1.368 . S
C1831 H1855 0.949 . S
H1832 C1836 0.949 . S
C1833 C1834 1.349 . S
C1833 C1835 1.327 . S
C1833 H1856 0.950 . S
C1834 C1833 1.349 . S
C1834 C1846 1.349 . S
C1835 C1833 1.327 . S
C1835 C1851 1.429 . S
C1835 H1857 0.950 . S
C1836 H1832 0.949 . S
C1836 C1844 1.574 . S
C1836 C1852 1.368 . S
H1837 C1845 0.950 . S
H1838 C1843 0.950 . S
H1839 C1844 0.949 . S
H1840 C1846 0.950 . S
H1841 C1847 0.950 . S
H1842 C1848 0.949 . S
C1843 H1838 0.950 . S
C1843 C1845 1.327 . S
C1843 C1849 1.429 . S
C1844 C1836 1.574 . S
C1844 H1839 0.949 . S
C1844 C1850 1.368 . S
C1845 C1829 1.349 . S
C1845 H1837 0.950 . S
C1845 C1843 1.327 . S
C1846 C1834 1.349 . S
C1846 H1840 0.950 . S
C1846 C1847 1.327 . S
C1847 H1841 0.950 . S
C1847 C1846 1.327 . S
C1847 C1851 1.429 . S
C1848 C1831 1.574 . S
C1848 H1842 0.949 . S
C1848 C1852 1.368 . S
C1849 C1830 1.429 . S
C1849 C1843 1.429 . S
C1849 C1850 1.523 . S
C1850 C1831 1.368 . S
C1850 C1844 1.368 . S
C1850 C1849 1.523 . S
C1851 C1835 1.429 . S
C1851 C1847 1.429 . S
C1851 C1852 1.523 . S
C1852 C1836 1.368 . S
C1852 C1848 1.368 . S
C1852 C1851 1.523 . S
H1853 C1828 0.950 . S
H1854 C1830 0.950 . S
H1855 C1831 0.949 . S
H1856 C1833 0.950 . S
H1857 C1835 0.950 . S
C1858 C1859 1.349 . S
C1858 C1860 1.327 . S
C1858 H1883 0.950 . S
C1859 C1858 1.349 . S
C1859 C1875 1.349 . S
C1860 C1858 1.327 . S
C1860 C1879 1.429 . S
C1860 H1884 0.950 . S
C1861 C1878 1.574 . S
C1861 C1880 1.368 . S
C1861 H1885 0.949 . S
H1862 C1866 0.949 . S
C1863 C1864 1.349 . S
C1863 C1865 1.327 . S
C1863 H1886 0.950 . S
C1864 C1863 1.349 . S
C1864 C1876 1.349 . S
C1865 C1863 1.327 . S
C1865 C1881 1.429 . S
C1865 H1887 0.950 . S
C1866 H1862 0.949 . S
C1866 C1874 1.574 . S
C1866 C1882 1.368 . S
H1867 C1875 0.950 . S
H1868 C1873 0.950 . S
H1869 C1874 0.949 . S
H1870 C1876 0.950 . S
H1871 C1877 0.950 . S
H1872 C1878 0.949 . S
C1873 H1868 0.950 . S
C1873 C1875 1.327 . S
C1873 C1879 1.429 . S
C1874 C1866 1.574 . S
C1874 H1869 0.949 . S
C1874 C1880 1.368 . S
C1875 C1859 1.349 . S
C1875 H1867 0.950 . S
C1875 C1873 1.327 . S
C1876 C1864 1.349 . S
C1876 H1870 0.950 . S
C1876 C1877 1.327 . S
C1877 H1871 0.950 . S
C1877 C1876 1.327 . S
C1877 C1881 1.429 . S
C1878 C1861 1.574 . S
C1878 H1872 0.949 . S
C1878 C1882 1.368 . S
C1879 C1860 1.429 . S
C1879 C1873 1.429 . S
C1879 C1880 1.523 . S
C1880 C1861 1.368 . S
C1880 C1874 1.368 . S
C1880 C1879 1.523 . S
C1881 C1865 1.429 . S
C1881 C1877 1.429 . S
C1881 C1882 1.523 . S
C1882 C1866 1.368 . S
C1882 C1878 1.368 . S
C1882 C1881 1.523 . S
H1883 C1858 0.950 . S
H1884 C1860 0.950 . S
H1885 C1861 0.949 . S
H1886 C1863 0.950 . S
H1887 C1865 0.950 . S
C1888 C1889 1.349 . S
C1888 C1890 1.327 . S
C1888 H1913 0.950 . S
C1889 C1888 1.349 . S
C1889 C1905 1.349 . S
C1890 C1888 1.327 . S
C1890 C1909 1.429 . S
C1890 H1914 0.950 . S
C1891 C1908 1.574 . S
C1891 C1910 1.368 . S
C1891 H1915 0.949 . S
H1892 C1896 0.949 . S
C1893 C1894 1.349 . S
C1893 C1895 1.327 . S
C1893 H1916 0.950 . S
C1894 C1893 1.349 . S
C1894 C1906 1.349 . S
C1895 C1893 1.327 . S
C1895 C1911 1.429 . S
C1895 H1917 0.950 . S
C1896 H1892 0.949 . S
C1896 C1904 1.574 . S
C1896 C1912 1.368 . S
H1897 C1905 0.950 . S
H1898 C1903 0.950 . S
H1899 C1904 0.949 . S
H1900 C1906 0.950 . S
H1901 C1907 0.950 . S
H1902 C1908 0.949 . S
C1903 H1898 0.950 . S
C1903 C1905 1.327 . S
C1903 C1909 1.429 . S
C1904 C1896 1.574 . S
C1904 H1899 0.949 . S
C1904 C1910 1.368 . S
C1905 C1889 1.349 . S
C1905 H1897 0.950 . S
C1905 C1903 1.327 . S
C1906 C1894 1.349 . S
C1906 H1900 0.950 . S
C1906 C1907 1.327 . S
C1907 H1901 0.950 . S
C1907 C1906 1.327 . S
C1907 C1911 1.429 . S
C1908 C1891 1.574 . S
C1908 H1902 0.949 . S
C1908 C1912 1.368 . S
C1909 C1890 1.429 . S
C1909 C1903 1.429 . S
C1909 C1910 1.523 . S
C1910 C1891 1.368 . S
C1910 C1904 1.368 . S
C1910 C1909 1.523 . S
C1911 C1895 1.429 . S
C1911 C1907 1.429 . S
C1911 C1912 1.523 . S
C1912 C1896 1.368 . S
C1912 C1908 1.368 . S
C1912 C1911 1.523 . S
H1913 C1888 0.950 . S
H1914 C1890 0.950 . S
H1915 C1891 0.949 . S
H1916 C1893 0.950 . S
H1917 C1895 0.950 . S
C1918 C1919 1.349 . S
C1918 C1920 1.327 . S
C1918 H1943 0.950 . S
C1919 C1918 1.349 . S
C1919 C1935 1.349 . S
C1920 C1918 1.327 . S
C1920 C1939 1.429 . S
C1920 H1944 0.950 . S
C1921 C1938 1.574 . S
C1921 C1940 1.368 . S
C1921 H1945 0.949 . S
H1922 C1926 0.949 . S
C1923 C1924 1.349 . S
C1923 C1925 1.327 . S
C1923 H1946 0.950 . S
C1924 C1923 1.349 . S
C1924 C1936 1.349 . S
C1925 C1923 1.327 . S
C1925 C1941 1.429 . S
C1925 H1947 0.950 . S
C1926 H1922 0.949 . S
C1926 C1934 1.574 . S
C1926 C1942 1.368 . S
H1927 C1935 0.950 . S
H1928 C1933 0.950 . S
H1929 C1934 0.949 . S
H1930 C1936 0.950 . S
H1931 C1937 0.950 . S
H1932 C1938 0.949 . S
C1933 H1928 0.950 . S
C1933 C1935 1.327 . S
C1933 C1939 1.429 . S
C1934 C1926 1.574 . S
C1934 H1929 0.949 . S
C1934 C1940 1.368 . S
C1935 C1919 1.349 . S
C1935 H1927 0.950 . S
C1935 C1933 1.327 . S
C1936 C1924 1.349 . S
C1936 H1930 0.950 . S
C1936 C1937 1.327 . S
C1937 H1931 0.950 . S
C1937 C1936 1.327 . S
C1937 C1941 1.429 . S
C1938 C1921 1.574 . S
C1938 H1932 0.949 . S
C1938 C1942 1.368 . S
C1939 C1920 1.429 . S
C1939 C1933 1.429 . S
C1939 C1940 1.523 . S
C1940 C1921 1.368 . S
C1940 C1934 1.368 . S
C1940 C1939 1.523 . S
C1941 C1925 1.429 . S
C1941 C1937 1.429 . S
C1941 C1942 1.523 . S
C1942 C1926 1.368 . S
C1942 C1938 1.368 . S
C1942 C1941 1.523 . S
H1943 C1918 0.950 . S
H1944 C1920 0.950 . S
H1945 C1921 0.949 . S
H1946 C1923 0.950 . S
H1947 C1925 0.950 . S
C1948 C1949 1.353 . S
C1948 C1950 1.327 . S
C1948 H1973 0.950 . S
C1949 C1948 1.353 . S
C1949 C1965 1.345 1_554 S
C1950 C1948 1.327 . S
C1950 C1969 1.433 . S
C1950 H1974 0.950 . S
C1951 C1968 1.574 . S
C1951 C1970 1.364 1_556 S
C1951 H1975 0.949 . S
H1952 C1956 0.949 . S
C1953 C1954 1.345 1_556 S
C1953 C1955 1.327 . S
C1953 H1976 0.950 . S
C1954 C1953 1.345 1_554 S
C1954 C1966 1.353 . S
C1955 C1953 1.327 . S
C1955 C1971 1.424 1_556 S
C1955 H1977 0.950 . S
C1956 H1952 0.949 . S
C1956 C1964 1.574 . S
C1956 C1972 1.373 . S
H1957 C1965 0.950 . S
H1958 C1963 0.950 . S
H1959 C1964 0.949 . S
H1960 C1966 0.950 . S
H1961 C1967 0.950 . S
H1962 C1968 0.949 . S
C1963 H1958 0.950 . S
C1963 C1965 1.327 . S
C1963 C1969 1.424 1_556 S
C1964 C1956 1.574 . S
C1964 H1959 0.949 . S
C1964 C1970 1.373 . S
C1965 C1949 1.345 1_556 S
C1965 H1957 0.950 . S
C1965 C1963 1.327 . S
C1966 C1954 1.353 . S
C1966 H1960 0.950 . S
C1966 C1967 1.327 . S
C1967 H1961 0.950 . S
C1967 C1966 1.327 . S
C1967 C1971 1.433 . S
C1968 C1951 1.574 . S
C1968 H1962 0.949 . S
C1968 C1972 1.364 1_556 S
C1969 C1950 1.433 . S
C1969 C1963 1.424 1_554 S
C1969 C1970 1.523 . S
C1970 C1951 1.364 1_554 S
C1970 C1964 1.373 . S
C1970 C1969 1.523 . S
C1971 C1955 1.424 1_554 S
C1971 C1967 1.433 . S
C1971 C1972 1.523 . S
C1972 C1956 1.373 . S
C1972 C1968 1.364 1_554 S
C1972 C1971 1.523 . S
H1973 C1948 0.950 . S
H1974 C1950 0.950 . S
H1975 C1951 0.949 . S
H1976 C1953 0.950 . S
H1977 C1955 0.950 . S
C1978 C1979 1.353 . S
C1978 C1980 1.327 . S
C1978 H2003 0.950 . S
C1979 C1978 1.353 . S
C1979 C1995 1.345 1_554 S
C1980 C1978 1.327 . S
C1980 C1999 1.433 . S
C1980 H2004 0.950 . S
C1981 C1998 1.574 . S
C1981 C2000 1.364 1_556 S
C1981 H2005 0.949 . S
H1982 C1986 0.949 . S
C1983 C1984 1.345 1_556 S
C1983 C1985 1.327 . S
C1983 H2006 0.950 . S
C1984 C1983 1.345 1_554 S
C1984 C1996 1.353 . S
C1985 C1983 1.327 . S
C1985 C2001 1.425 1_556 S
C1985 H2007 0.950 . S
C1986 H1982 0.949 . S
C1986 C1994 1.574 . S
C1986 C2002 1.373 . S
H1987 C1995 0.950 . S
H1988 C1993 0.950 . S
H1989 C1994 0.949 . S
H1990 C1996 0.950 . S
H1991 C1997 0.950 . S
H1992 C1998 0.949 . S
C1993 H1988 0.950 . S
C1993 C1995 1.327 . S
C1993 C1999 1.425 1_556 S
C1994 C1986 1.574 . S
C1994 H1989 0.949 . S
C1994 C2000 1.373 . S
C1995 C1979 1.345 1_556 S
C1995 H1987 0.950 . S
C1995 C1993 1.327 . S
C1996 C1984 1.353 . S
C1996 H1990 0.950 . S
C1996 C1997 1.327 . S
C1997 H1991 0.950 . S
C1997 C1996 1.327 . S
C1997 C2001 1.433 . S
C1998 C1981 1.574 . S
C1998 H1992 0.949 . S
C1998 C2002 1.364 1_556 S
C1999 C1980 1.433 . S
C1999 C1993 1.425 1_554 S
C1999 C2000 1.523 . S
C2000 C1981 1.364 1_554 S
C2000 C1994 1.373 . S
C2000 C1999 1.523 . S
C2001 C1985 1.425 1_554 S
C2001 C1997 1.433 . S
C2001 C2002 1.523 . S
C2002 C1986 1.373 . S
C2002 C1998 1.364 1_554 S
C2002 C2001 1.523 . S
H2003 C1978 0.950 . S
H2004 C1980 0.950 . S
H2005 C1981 0.949 . S
H2006 C1983 0.950 . S
H2007 C1985 0.950 . S
C2008 C2009 1.349 . S
C2008 C2010 1.327 . S
C2008 H2033 0.950 . S
C2009 C2008 1.349 . S
C2009 C2025 1.349 . S
C2010 C2008 1.327 . S
C2010 C2029 1.429 . S
C2010 H2034 0.950 . S
C2011 C2028 1.574 . S
C2011 C2030 1.368 . S
C2011 H2035 0.949 . S
H2012 C2016 0.949 . S
C2013 C2014 1.349 . S
C2013 C2015 1.327 . S
C2013 H2036 0.950 . S
C2014 C2013 1.349 . S
C2014 C2026 1.349 . S
C2015 C2013 1.327 . S
C2015 C2031 1.429 . S
C2015 H2037 0.950 . S
C2016 H2012 0.949 . S
C2016 C2024 1.574 . S
C2016 C2032 1.368 . S
H2017 C2025 0.950 . S
H2018 C2023 0.950 . S
H2019 C2024 0.949 . S
H2020 C2026 0.950 . S
H2021 C2027 0.950 . S
H2022 C2028 0.949 . S
C2023 H2018 0.950 . S
C2023 C2025 1.327 . S
C2023 C2029 1.429 . S
C2024 C2016 1.574 . S
C2024 H2019 0.949 . S
C2024 C2030 1.368 . S
C2025 C2009 1.349 . S
C2025 H2017 0.950 . S
C2025 C2023 1.327 . S
C2026 C2014 1.349 . S
C2026 H2020 0.950 . S
C2026 C2027 1.327 . S
C2027 H2021 0.950 . S
C2027 C2026 1.327 . S
C2027 C2031 1.429 . S
C2028 C2011 1.574 . S
C2028 H2022 0.949 . S
C2028 C2032 1.368 . S
C2029 C2010 1.429 . S
C2029 C2023 1.429 . S
C2029 C2030 1.523 . S
C2030 C2011 1.368 . S
C2030 C2024 1.368 . S
C2030 C2029 1.523 . S
C2031 C2015 1.429 . S
C2031 C2027 1.429 . S
C2031 C2032 1.523 . S
C2032 C2016 1.368 . S
C2032 C2028 1.368 . S
C2032 C2031 1.523 . S
H2033 C2008 0.950 . S
H2034 C2010 0.950 . S
H2035 C2011 0.949 . S
H2036 C2013 0.950 . S
H2037 C2015 0.950 . S
C2038 C2039 1.349 . S
C2038 C2040 1.327 . S
C2038 H2063 0.950 . S
C2039 C2038 1.349 . S
C2039 C2055 1.349 . S
C2040 C2038 1.327 . S
C2040 C2059 1.429 . S
C2040 H2064 0.950 . S
C2041 C2058 1.574 . S
C2041 C2060 1.368 . S
C2041 H2065 0.949 . S
H2042 C2046 0.949 . S
C2043 C2044 1.349 . S
C2043 C2045 1.327 . S
C2043 H2066 0.950 . S
C2044 C2043 1.349 . S
C2044 C2056 1.349 . S
C2045 C2043 1.327 . S
C2045 C2061 1.429 . S
C2045 H2067 0.950 . S
C2046 H2042 0.949 . S
C2046 C2054 1.574 . S
C2046 C2062 1.368 . S
H2047 C2055 0.950 . S
H2048 C2053 0.950 . S
H2049 C2054 0.949 . S
H2050 C2056 0.950 . S
H2051 C2057 0.950 . S
H2052 C2058 0.949 . S
C2053 H2048 0.950 . S
C2053 C2055 1.327 . S
C2053 C2059 1.429 . S
C2054 C2046 1.574 . S
C2054 H2049 0.949 . S
C2054 C2060 1.368 . S
C2055 C2039 1.349 . S
C2055 H2047 0.950 . S
C2055 C2053 1.327 . S
C2056 C2044 1.349 . S
C2056 H2050 0.950 . S
C2056 C2057 1.327 . S
C2057 H2051 0.950 . S
C2057 C2056 1.327 . S
C2057 C2061 1.429 . S
C2058 C2041 1.574 . S
C2058 H2052 0.949 . S
C2058 C2062 1.368 . S
C2059 C2040 1.429 . S
C2059 C2053 1.429 . S
C2059 C2060 1.523 . S
C2060 C2041 1.368 . S
C2060 C2054 1.368 . S
C2060 C2059 1.523 . S
C2061 C2045 1.429 . S
C2061 C2057 1.429 . S
C2061 C2062 1.523 . S
C2062 C2046 1.368 . S
C2062 C2058 1.368 . S
C2062 C2061 1.523 . S
H2063 C2038 0.950 . S
H2064 C2040 0.950 . S
H2065 C2041 0.949 . S
H2066 C2043 0.950 . S
H2067 C2045 0.950 . S
C2068 C2069 1.346 1_554 S
C2068 C2070 1.327 . S
C2068 H2093 0.950 . S
C2069 C2068 1.346 1_556 S
C2069 C2085 1.352 . S
C2070 C2068 1.327 . S
C2070 C2089 1.426 1_554 S
C2070 H2094 0.950 . S
C2071 C2088 1.574 . S
C2071 C2090 1.372 . S
C2071 H2095 0.949 . S
H2072 C2076 0.949 . S
C2073 C2074 1.352 . S
C2073 C2075 1.327 . S
C2073 H2096 0.950 . S
C2074 C2073 1.352 . S
C2074 C2086 1.346 1_556 S
C2075 C2073 1.327 . S
C2075 C2091 1.432 . S
C2075 H2097 0.950 . S
C2076 H2072 0.949 . S
C2076 C2084 1.574 . S
C2076 C2092 1.365 1_554 S
H2077 C2085 0.950 . S
H2078 C2083 0.950 . S
H2079 C2084 0.949 . S
H2080 C2086 0.950 . S
H2081 C2087 0.950 . S
H2082 C2088 0.949 . S
C2083 H2078 0.950 . S
C2083 C2085 1.327 . S
C2083 C2089 1.432 . S
C2084 C2076 1.574 . S
C2084 H2079 0.949 . S
C2084 C2090 1.365 1_554 S
C2085 C2069 1.352 . S
C2085 H2077 0.950 . S
C2085 C2083 1.327 . S
C2086 C2074 1.346 1_554 S
C2086 H2080 0.950 . S
C2086 C2087 1.327 . S
C2087 H2081 0.950 . S
C2087 C2086 1.327 . S
C2087 C2091 1.426 1_554 S
C2088 C2071 1.574 . S
C2088 H2082 0.949 . S
C2088 C2092 1.372 . S
C2089 C2070 1.426 1_556 S
C2089 C2083 1.432 . S
C2089 C2090 1.523 . S
C2090 C2071 1.372 . S
C2090 C2084 1.365 1_556 S
C2090 C2089 1.523 . S
C2091 C2075 1.432 . S
C2091 C2087 1.426 1_556 S
C2091 C2092 1.523 . S
C2092 C2076 1.365 1_556 S
C2092 C2088 1.372 . S
C2092 C2091 1.523 . S
H2093 C2068 0.950 . S
H2094 C2070 0.950 . S
H2095 C2071 0.949 . S
H2096 C2073 0.950 . S
H2097 C2075 0.950 . S
C2098 C2099 1.352 . S
C2098 C2100 1.327 . S
C2098 H2123 0.950 . S
C2099 C2098 1.352 . S
C2099 C2115 1.346 1_556 S
C2100 C2098 1.327 . S
C2100 C2119 1.432 . S
C2100 H2124 0.950 . S
C2101 C2118 1.574 . S
C2101 C2120 1.365 1_554 S
C2101 H2125 0.949 . S
H2102 C2106 0.949 . S
C2103 C2104 1.346 1_554 S
C2103 C2105 1.327 . S
C2103 H2126 0.950 . S
C2104 C2103 1.346 1_556 S
C2104 C2116 1.352 . S
C2105 C2103 1.327 . S
C2105 C2121 1.425 1_554 S
C2105 H2127 0.950 . S
C2106 H2102 0.949 . S
C2106 C2114 1.574 . S
C2106 C2122 1.372 . S
H2107 C2115 0.950 . S
H2108 C2113 0.950 . S
H2109 C2114 0.949 . S
H2110 C2116 0.950 . S
H2111 C2117 0.950 . S
H2112 C2118 0.949 . S
C2113 H2108 0.950 . S
C2113 C2115 1.327 . S
C2113 C2119 1.425 1_554 S
C2114 C2106 1.574 . S
C2114 H2109 0.949 . S
C2114 C2120 1.372 . S
C2115 C2099 1.346 1_554 S
C2115 H2107 0.950 . S
C2115 C2113 1.327 . S
C2116 C2104 1.352 . S
C2116 H2110 0.950 . S
C2116 C2117 1.327 . S
C2117 H2111 0.950 . S
C2117 C2116 1.327 . S
C2117 C2121 1.432 . S
C2118 C2101 1.574 . S
C2118 H2112 0.949 . S
C2118 C2122 1.365 1_554 S
C2119 C2100 1.432 . S
C2119 C2113 1.425 1_556 S
C2119 C2120 1.523 . S
C2120 C2101 1.365 1_556 S
C2120 C2114 1.372 . S
C2120 C2119 1.523 . S
C2121 C2105 1.425 1_556 S
C2121 C2117 1.432 . S
C2121 C2122 1.523 . S
C2122 C2106 1.372 . S
C2122 C2118 1.365 1_556 S
C2122 C2121 1.523 . S
H2123 C2098 0.950 . S
H2124 C2100 0.950 . S
H2125 C2101 0.949 . S
H2126 C2103 0.950 . S
H2127 C2105 0.950 . S
C2128 C2129 1.349 . S
C2128 C2130 1.327 . S
C2128 H2153 0.950 . S
C2129 C2128 1.349 . S
C2129 C2145 1.349 . S
C2130 C2128 1.327 . S
C2130 C2149 1.429 . S
C2130 H2154 0.950 . S
C2131 C2148 1.574 . S
C2131 C2150 1.368 . S
C2131 H2155 0.949 . S
H2132 C2136 0.949 . S
C2133 C2134 1.349 . S
C2133 C2135 1.327 . S
C2133 H2156 0.950 . S
C2134 C2133 1.349 . S
C2134 C2146 1.349 . S
C2135 C2133 1.327 . S
C2135 C2151 1.429 . S
C2135 H2157 0.950 . S
C2136 H2132 0.949 . S
C2136 C2144 1.574 . S
C2136 C2152 1.368 . S
H2137 C2145 0.950 . S
H2138 C2143 0.950 . S
H2139 C2144 0.949 . S
H2140 C2146 0.950 . S
H2141 C2147 0.950 . S
H2142 C2148 0.949 . S
C2143 H2138 0.950 . S
C2143 C2145 1.327 . S
C2143 C2149 1.429 . S
C2144 C2136 1.574 . S
C2144 H2139 0.949 . S
C2144 C2150 1.368 . S
C2145 C2129 1.349 . S
C2145 H2137 0.950 . S
C2145 C2143 1.327 . S
C2146 C2134 1.349 . S
C2146 H2140 0.950 . S
C2146 C2147 1.327 . S
C2147 H2141 0.950 . S
C2147 C2146 1.327 . S
C2147 C2151 1.429 . S
C2148 C2131 1.574 . S
C2148 H2142 0.949 . S
C2148 C2152 1.368 . S
C2149 C2130 1.429 . S
C2149 C2143 1.429 . S
C2149 C2150 1.523 . S
C2150 C2131 1.368 . S
C2150 C2144 1.368 . S
C2150 C2149 1.523 . S
C2151 C2135 1.429 . S
C2151 C2147 1.429 . S
C2151 C2152 1.523 . S
C2152 C2136 1.368 . S
C2152 C2148 1.368 . S
C2152 C2151 1.523 . S
H2153 C2128 0.950 . S
H2154 C2130 0.950 . S
H2155 C2131 0.949 . S
H2156 C2133 0.950 . S
H2157 C2135 0.950 . S
C2158 C2159 1.349 . S
C2158 C2160 1.327 . S
C2158 H2183 0.950 . S
C2159 C2158 1.349 . S
C2159 C2175 1.349 . S
C2160 C2158 1.327 . S
C2160 C2179 1.429 . S
C2160 H2184 0.950 . S
C2161 C2178 1.574 . S
C2161 C2180 1.368 . S
C2161 H2185 0.949 . S
H2162 C2166 0.949 . S
C2163 C2164 1.349 . S
C2163 C2165 1.327 . S
C2163 H2186 0.950 . S
C2164 C2163 1.349 . S
C2164 C2176 1.349 . S
C2165 C2163 1.327 . S
C2165 C2181 1.429 . S
C2165 H2187 0.950 . S
C2166 H2162 0.949 . S
C2166 C2174 1.574 . S
C2166 C2182 1.368 . S
H2167 C2175 0.950 . S
H2168 C2173 0.950 . S
H2169 C2174 0.949 . S
H2170 C2176 0.950 . S
H2171 C2177 0.950 . S
H2172 C2178 0.949 . S
C2173 H2168 0.950 . S
C2173 C2175 1.327 . S
C2173 C2179 1.429 . S
C2174 C2166 1.574 . S
C2174 H2169 0.949 . S
C2174 C2180 1.368 . S
C2175 C2159 1.349 . S
C2175 H2167 0.950 . S
C2175 C2173 1.327 . S
C2176 C2164 1.349 . S
C2176 H2170 0.950 . S
C2176 C2177 1.327 . S
C2177 H2171 0.950 . S
C2177 C2176 1.327 . S
C2177 C2181 1.429 . S
C2178 C2161 1.574 . S
C2178 H2172 0.949 . S
C2178 C2182 1.368 . S
C2179 C2160 1.429 . S
C2179 C2173 1.429 . S
C2179 C2180 1.523 . S
C2180 C2161 1.368 . S
C2180 C2174 1.368 . S
C2180 C2179 1.523 . S
C2181 C2165 1.429 . S
C2181 C2177 1.429 . S
C2181 C2182 1.523 . S
C2182 C2166 1.368 . S
C2182 C2178 1.368 . S
C2182 C2181 1.523 . S
H2183 C2158 0.950 . S
H2184 C2160 0.950 . S
H2185 C2161 0.949 . S
H2186 C2163 0.950 . S
H2187 C2165 0.950 . S
C2188 C2189 1.349 . S
C2188 C2190 1.327 . S
C2188 H2213 0.950 . S
C2189 C2188 1.349 . S
C2189 C2205 1.349 . S
C2190 C2188 1.327 . S
C2190 C2209 1.429 . S
C2190 H2214 0.950 . S
C2191 C2208 1.574 . S
C2191 C2210 1.368 . S
C2191 H2215 0.949 . S
H2192 C2196 0.949 . S
C2193 C2194 1.349 . S
C2193 C2195 1.327 . S
C2193 H2216 0.950 . S
C2194 C2193 1.349 . S
C2194 C2206 1.349 . S
C2195 C2193 1.327 . S
C2195 C2211 1.429 . S
C2195 H2217 0.950 . S
C2196 H2192 0.949 . S
C2196 C2204 1.574 . S
C2196 C2212 1.368 . S
H2197 C2205 0.950 . S
H2198 C2203 0.950 . S
H2199 C2204 0.949 . S
H2200 C2206 0.950 . S
H2201 C2207 0.950 . S
H2202 C2208 0.949 . S
C2203 H2198 0.950 . S
C2203 C2205 1.327 . S
C2203 C2209 1.429 . S
C2204 C2196 1.574 . S
C2204 H2199 0.949 . S
C2204 C2210 1.368 . S
C2205 C2189 1.349 . S
C2205 H2197 0.950 . S
C2205 C2203 1.327 . S
C2206 C2194 1.349 . S
C2206 H2200 0.950 . S
C2206 C2207 1.327 . S
C2207 H2201 0.950 . S
C2207 C2206 1.327 . S
C2207 C2211 1.429 . S
C2208 C2191 1.574 . S
C2208 H2202 0.949 . S
C2208 C2212 1.368 . S
C2209 C2190 1.429 . S
C2209 C2203 1.429 . S
C2209 C2210 1.523 . S
C2210 C2191 1.368 . S
C2210 C2204 1.368 . S
C2210 C2209 1.523 . S
C2211 C2195 1.429 . S
C2211 C2207 1.429 . S
C2211 C2212 1.523 . S
C2212 C2196 1.368 . S
C2212 C2208 1.368 . S
C2212 C2211 1.523 . S
H2213 C2188 0.950 . S
H2214 C2190 0.950 . S
H2215 C2191 0.949 . S
H2216 C2193 0.950 . S
H2217 C2195 0.950 . S
C2218 C2219 1.349 . S
C2218 C2220 1.327 . S
C2218 H2243 0.950 . S
C2219 C2218 1.349 . S
C2219 C2235 1.349 . S
C2220 C2218 1.327 . S
C2220 C2239 1.429 . S
C2220 H2244 0.950 . S
C2221 C2238 1.574 . S
C2221 C2240 1.368 . S
C2221 H2245 0.949 . S
H2222 C2226 0.949 . S
C2223 C2224 1.349 . S
C2223 C2225 1.327 . S
C2223 H2246 0.950 . S
C2224 C2223 1.349 . S
C2224 C2236 1.349 . S
C2225 C2223 1.327 . S
C2225 C2241 1.429 . S
C2225 H2247 0.950 . S
C2226 H2222 0.949 . S
C2226 C2234 1.574 . S
C2226 C2242 1.368 . S
H2227 C2235 0.950 . S
H2228 C2233 0.950 . S
H2229 C2234 0.949 . S
H2230 C2236 0.950 . S
H2231 C2237 0.950 . S
H2232 C2238 0.949 . S
C2233 H2228 0.950 . S
C2233 C2235 1.327 . S
C2233 C2239 1.429 . S
C2234 C2226 1.574 . S
C2234 H2229 0.949 . S
C2234 C2240 1.368 . S
C2235 C2219 1.349 . S
C2235 H2227 0.950 . S
C2235 C2233 1.327 . S
C2236 C2224 1.349 . S
C2236 H2230 0.950 . S
C2236 C2237 1.327 . S
C2237 H2231 0.950 . S
C2237 C2236 1.327 . S
C2237 C2241 1.429 . S
C2238 C2221 1.574 . S
C2238 H2232 0.949 . S
C2238 C2242 1.368 . S
C2239 C2220 1.429 . S
C2239 C2233 1.429 . S
C2239 C2240 1.523 . S
C2240 C2221 1.368 . S
C2240 C2234 1.368 . S
C2240 C2239 1.523 . S
C2241 C2225 1.429 . S
C2241 C2237 1.429 . S
C2241 C2242 1.523 . S
C2242 C2226 1.368 . S
C2242 C2238 1.368 . S
C2242 C2241 1.523 . S
H2243 C2218 0.950 . S
H2244 C2220 0.950 . S
H2245 C2221 0.949 . S
H2246 C2223 0.950 . S
H2247 C2225 0.950 . S
C2248 C2249 1.349 . S
C2248 C2250 1.327 . S
C2248 H2273 0.950 . S
C2249 C2248 1.349 . S
C2249 C2265 1.349 . S
C2250 C2248 1.327 . S
C2250 C2269 1.429 . S
C2250 H2274 0.950 . S
C2251 C2268 1.574 . S
C2251 C2270 1.368 . S
C2251 H2275 0.949 . S
H2252 C2256 0.949 . S
C2253 C2254 1.349 . S
C2253 C2255 1.327 . S
C2253 H2276 0.950 . S
C2254 C2253 1.349 . S
C2254 C2266 1.349 . S
C2255 C2253 1.327 . S
C2255 C2271 1.429 . S
C2255 H2277 0.950 . S
C2256 H2252 0.949 . S
C2256 C2264 1.574 . S
C2256 C2272 1.368 . S
H2257 C2265 0.950 . S
H2258 C2263 0.950 . S
H2259 C2264 0.949 . S
H2260 C2266 0.950 . S
H2261 C2267 0.950 . S
H2262 C2268 0.949 . S
C2263 H2258 0.950 . S
C2263 C2265 1.327 . S
C2263 C2269 1.429 . S
C2264 C2256 1.574 . S
C2264 H2259 0.949 . S
C2264 C2270 1.368 . S
C2265 C2249 1.349 . S
C2265 H2257 0.950 . S
C2265 C2263 1.327 . S
C2266 C2254 1.349 . S
C2266 H2260 0.950 . S
C2266 C2267 1.327 . S
C2267 H2261 0.950 . S
C2267 C2266 1.327 . S
C2267 C2271 1.429 . S
C2268 C2251 1.574 . S
C2268 H2262 0.949 . S
C2268 C2272 1.368 . S
C2269 C2250 1.429 . S
C2269 C2263 1.429 . S
C2269 C2270 1.523 . S
C2270 C2251 1.368 . S
C2270 C2264 1.368 . S
C2270 C2269 1.523 . S
C2271 C2255 1.429 . S
C2271 C2267 1.429 . S
C2271 C2272 1.523 . S
C2272 C2256 1.368 . S
C2272 C2268 1.368 . S
C2272 C2271 1.523 . S
H2273 C2248 0.950 . S
H2274 C2250 0.950 . S
H2275 C2251 0.949 . S
H2276 C2253 0.950 . S
H2277 C2255 0.950 . S
C2278 C2279 1.349 . S
C2278 C2280 1.327 . S
C2278 H2303 0.950 . S
C2279 C2278 1.349 . S
C2279 C2295 1.349 . S
C2280 C2278 1.327 . S
C2280 C2299 1.429 . S
C2280 H2304 0.950 . S
C2281 C2298 1.574 . S
C2281 C2300 1.368 . S
C2281 H2305 0.949 . S
H2282 C2286 0.949 . S
C2283 C2284 1.349 . S
C2283 C2285 1.327 . S
C2283 H2306 0.950 . S
C2284 C2283 1.349 . S
C2284 C2296 1.349 . S
C2285 C2283 1.327 . S
C2285 C2301 1.429 . S
C2285 H2307 0.950 . S
C2286 H2282 0.949 . S
C2286 C2294 1.574 . S
C2286 C2302 1.368 . S
H2287 C2295 0.950 . S
H2288 C2293 0.950 . S
H2289 C2294 0.949 . S
H2290 C2296 0.950 . S
H2291 C2297 0.950 . S
H2292 C2298 0.949 . S
C2293 H2288 0.950 . S
C2293 C2295 1.327 . S
C2293 C2299 1.429 . S
C2294 C2286 1.574 . S
C2294 H2289 0.949 . S
C2294 C2300 1.368 . S
C2295 C2279 1.349 . S
C2295 H2287 0.950 . S
C2295 C2293 1.327 . S
C2296 C2284 1.349 . S
C2296 H2290 0.950 . S
C2296 C2297 1.327 . S
C2297 H2291 0.950 . S
C2297 C2296 1.327 . S
C2297 C2301 1.429 . S
C2298 C2281 1.574 . S
C2298 H2292 0.949 . S
C2298 C2302 1.368 . S
C2299 C2280 1.429 . S
C2299 C2293 1.429 . S
C2299 C2300 1.523 . S
C2300 C2281 1.368 . S
C2300 C2294 1.368 . S
C2300 C2299 1.523 . S
C2301 C2285 1.429 . S
C2301 C2297 1.429 . S
C2301 C2302 1.523 . S
C2302 C2286 1.368 . S
C2302 C2298 1.368 . S
C2302 C2301 1.523 . S
H2303 C2278 0.950 . S
H2304 C2280 0.950 . S
H2305 C2281 0.949 . S
H2306 C2283 0.950 . S
H2307 C2285 0.950 . S
C2308 C2309 1.349 . S
C2308 C2310 1.327 . S
C2308 H2333 0.950 . S
C2309 C2308 1.349 . S
C2309 C2325 1.349 . S
C2310 C2308 1.327 . S
C2310 C2329 1.429 . S
C2310 H2334 0.950 . S
C2311 C2328 1.574 . S
C2311 C2330 1.368 . S
C2311 H2335 0.949 . S
H2312 C2316 0.949 . S
C2313 C2314 1.349 . S
C2313 C2315 1.327 . S
C2313 H2336 0.950 . S
C2314 C2313 1.349 . S
C2314 C2326 1.349 . S
C2315 C2313 1.327 . S
C2315 C2331 1.429 . S
C2315 H2337 0.950 . S
C2316 H2312 0.949 . S
C2316 C2324 1.574 . S
C2316 C2332 1.368 . S
H2317 C2325 0.950 . S
H2318 C2323 0.950 . S
H2319 C2324 0.949 . S
H2320 C2326 0.950 . S
H2321 C2327 0.950 . S
H2322 C2328 0.949 . S
C2323 H2318 0.950 . S
C2323 C2325 1.327 . S
C2323 C2329 1.429 . S
C2324 C2316 1.574 . S
C2324 H2319 0.949 . S
C2324 C2330 1.368 . S
C2325 C2309 1.349 . S
C2325 H2317 0.950 . S
C2325 C2323 1.327 . S
C2326 C2314 1.349 . S
C2326 H2320 0.950 . S
C2326 C2327 1.327 . S
C2327 H2321 0.950 . S
C2327 C2326 1.327 . S
C2327 C2331 1.429 . S
C2328 C2311 1.574 . S
C2328 H2322 0.949 . S
C2328 C2332 1.368 . S
C2329 C2310 1.429 . S
C2329 C2323 1.429 . S
C2329 C2330 1.523 . S
C2330 C2311 1.368 . S
C2330 C2324 1.368 . S
C2330 C2329 1.523 . S
C2331 C2315 1.429 . S
C2331 C2327 1.429 . S
C2331 C2332 1.523 . S
C2332 C2316 1.368 . S
C2332 C2328 1.368 . S
C2332 C2331 1.523 . S
H2333 C2308 0.950 . S
H2334 C2310 0.950 . S
H2335 C2311 0.949 . S
H2336 C2313 0.950 . S
H2337 C2315 0.950 . S
C2338 C2339 1.349 . S
C2338 C2340 1.327 . S
C2338 H2363 0.950 . S
C2339 C2338 1.349 . S
C2339 C2355 1.349 . S
C2340 C2338 1.327 . S
C2340 C2359 1.429 . S
C2340 H2364 0.950 . S
C2341 C2358 1.574 . S
C2341 C2360 1.368 . S
C2341 H2365 0.949 . S
H2342 C2346 0.949 . S
C2343 C2344 1.349 . S
C2343 C2345 1.327 . S
C2343 H2366 0.950 . S
C2344 C2343 1.349 . S
C2344 C2356 1.349 . S
C2345 C2343 1.327 . S
C2345 C2361 1.429 . S
C2345 H2367 0.950 . S
C2346 H2342 0.949 . S
C2346 C2354 1.574 . S
C2346 C2362 1.368 . S
H2347 C2355 0.950 . S
H2348 C2353 0.950 . S
H2349 C2354 0.949 . S
H2350 C2356 0.950 . S
H2351 C2357 0.950 . S
H2352 C2358 0.949 . S
C2353 H2348 0.950 . S
C2353 C2355 1.327 . S
C2353 C2359 1.429 . S
C2354 C2346 1.574 . S
C2354 H2349 0.949 . S
C2354 C2360 1.368 . S
C2355 C2339 1.349 . S
C2355 H2347 0.950 . S
C2355 C2353 1.327 . S
C2356 C2344 1.349 . S
C2356 H2350 0.950 . S
C2356 C2357 1.327 . S
C2357 H2351 0.950 . S
C2357 C2356 1.327 . S
C2357 C2361 1.429 . S
C2358 C2341 1.574 . S
C2358 H2352 0.949 . S
C2358 C2362 1.368 . S
C2359 C2340 1.429 . S
C2359 C2353 1.429 . S
C2359 C2360 1.523 . S
C2360 C2341 1.368 . S
C2360 C2354 1.368 . S
C2360 C2359 1.523 . S
C2361 C2345 1.429 . S
C2361 C2357 1.429 . S
C2361 C2362 1.523 . S
C2362 C2346 1.368 . S
C2362 C2358 1.368 . S
C2362 C2361 1.523 . S
H2363 C2338 0.950 . S
H2364 C2340 0.950 . S
H2365 C2341 0.949 . S
H2366 C2343 0.950 . S
H2367 C2345 0.950 . S
C449 C1 1.564 . S
C454 C55 1.564 . S
C479 C29 1.564 . S
C484 C15 1.564 . S
C509 C56 1.564 . S
C514 C98 1.564 . S
C539 C85 1.564 . S
C544 C83 1.564 . S
C569 C125 1.563 . S
C574 C155 1.563 . S
C599 C140 1.564 . S
C604 C126 1.564 . S
C629 C169 1.564 . S
C634 C222 1.563 . S
C659 C183 1.564 . S
C664 C209 1.564 . S
C689 C266 1.564 . S
C694 C225 1.564 . S
C719 C238 1.564 . S
C724 C252 1.564 . S
C749 C280 1.564 . S
C754 C323 1.564 . S
C779 C309 1.565 . S
C784 C307 1.565 . S
C809 C337 1.563 . S
C814 C378 1.564 . S
C839 C364 1.565 . S
C844 C351 1.564 . S
C869 C404 1.564 . S
C874 C435 1.564 . S
C899 C406 1.564 . S
C904 C421 1.564 . S
C929 C180 1.593 . S
C934 C12 1.594 . S
C959 C26 1.594 . S
C964 C294 1.593 . S
C989 C40 1.596 . S
C994 C96 1.595 . S
C1019 C446 1.595 . S
C1024 C42 1.596 . S
C1049 C69 1.594 . S
C1054 C112 1.594 . S
C1079 C251 1.593 . S
C1084 C70 1.593 . S
C1109 C391 1.594 . S
C1114 C111 1.596 . S
C1139 C419 1.594 . S
C1144 C139 1.593 . S
C1169 C196 1.593 . S
C1174 C153 1.593 . S
C1199 C334 1.593 . S
C1204 C166 1.594 . S
C1229 C194 1.593 . S
C1234 C362 1.594 . S
C1259 C279 1.593 . S
C1264 C211 1.594 . S
C1289 C393 1.594 . S
C1294 C236 1.594 . S
C1319 C320 1.593 . S
C1324 C265 1.593 . S
C1349 C348 1.594 . S
C1354 C293 1.594 . S
C1379 C377 1.594 . S
C1384 C432 1.595 . S
C1409 C141 1.729 . S
C1414 C0 1.731 . S
C1439 C14 1.731 . S
C1444 C154 1.731 . S
C1469 C124 1.731 . S
C1474 C28 1.731 . S
C1499 C127 1.729 . S
C1504 C54 1.731 . S
C1529 C57 1.731 . S
C1534 C208 1.729 . S
C1559 C82 1.729 . S
C1564 C223 1.731 . S
C1589 C168 1.730 . S
C1594 C84 1.730 . S
C1619 C99 1.731 . S
C1624 C182 1.729 . S
C1649 C365 1.729 . S
C1654 C224 1.731 . S
C1679 C379 1.729 . S
C1684 C239 1.729 . S
C1709 C253 1.729 . S
C1714 C336 1.731 . S
C1739 C267 1.729 . S
C1744 C350 1.731 . S
C1769 C281 1.731 . S
C1774 C420 1.729 . S
C1799 C306 1.729 . S
C1804 C434 1.729 . S
C1829 C405 1.731 . S
C1834 C308 1.729 . S
C1859 C407 1.731 . S
C1864 C322 1.729 . S
C1889 C13 1.724 . S
C1894 C363 1.724 . S
C1919 C349 1.724 . S
C1924 C27 1.724 1_655 S
C1949 C41 1.722 . S
C1954 C390 1.724 . S
C1979 C43 1.722 1_655 S
C1984 C376 1.724 . S
C2009 C68 1.724 . S
C2014 C418 1.724 . S
C2039 C71 1.725 1_455 S
C2044 C392 1.724 . S
C2069 C447 1.724 . S
C2074 C97 1.724 . S
C2099 C433 1.724 . S
C2104 C110 1.722 1_455 S
C2129 C250 1.725 . S
C2134 C113 1.724 . S
C2159 C237 1.724 . S
C2164 C138 1.725 1_655 S
C2189 C152 1.725 . S
C2194 C278 1.725 . S
C2219 C167 1.723 1_655 S
C2224 C264 1.725 . S
C2249 C295 1.725 . S
C2254 C181 1.725 . S
C2279 C195 1.725 1_455 S
C2284 C292 1.724 . S
C2309 C197 1.725 . S
C2314 C335 1.725 . S
C2339 C210 1.723 1_455 S
C2344 C321 1.725 . S
