# Generated by pormake.
# Topology wla, (5)-cn, num edge types: 1
# Building blocks:
#     Node 0, Type 0, BuildingBlock: BEQFEK_clean_sbu_0, # of connection points: 5
#     Node 1, Type 0, BuildingBlock: BEQFEK_clean_sbu_0, # of connection points: 5
#     Node 2, Type 0, BuildingBlock: BEQFEK_clean_sbu_0, # of connection points: 5
#     Node 3, Type 0, BuildingBlock: BEQFEK_clean_sbu_0, # of connection points: 5
#     Node 4, Type 0, BuildingBlock: BEQFEK_clean_sbu_0, # of connection points: 5
#     Node 5, Type 0, BuildingBlock: BEQFEK_clean_sbu_0, # of connection points: 5
#     Node 6, Type 0, BuildingBlock: BEQFEK_clean_sbu_0, # of connection points: 5
#     Node 7, Type 0, BuildingBlock: BEQFEK_clean_sbu_0, # of connection points: 5
#     Node 8, Type 0, BuildingBlock: BEQFEK_clean_sbu_0, # of connection points: 5
#     Node 9, Type 0, BuildingBlock: BEQFEK_clean_sbu_0, # of connection points: 5
#     Node 10, Type 0, BuildingBlock: BEQFEK_clean_sbu_0, # of connection points: 5
#     Node 11, Type 0, BuildingBlock: BEQFEK_clean_sbu_0, # of connection points: 5
#     Node 12, Type 0, BuildingBlock: BEQFEK_clean_sbu_0, # of connection points: 5
#     Node 13, Type 0, BuildingBlock: BEQFEK_clean_sbu_0, # of connection points: 5
#     Node 14, Type 0, BuildingBlock: BEQFEK_clean_sbu_0, # of connection points: 5
#     Node 15, Type 0, BuildingBlock: BEQFEK_clean_sbu_0, # of connection points: 5
#     Node 16, Type 0, BuildingBlock: BEQFEK_clean_sbu_0, # of connection points: 5
#     Node 17, Type 0, BuildingBlock: BEQFEK_clean_sbu_0, # of connection points: 5
#     Edge 18, Type (0, 0), BuildingBlock: AJUNOK_clean_linker_0, # of connection points: 2
#     Edge 19, Type (0, 0), BuildingBlock: AJUNOK_clean_linker_0, # of connection points: 2
#     Edge 20, Type (0, 0), BuildingBlock: AJUNOK_clean_linker_0, # of connection points: 2
#     Edge 21, Type (0, 0), BuildingBlock: AJUNOK_clean_linker_0, # of connection points: 2
#     Edge 22, Type (0, 0), BuildingBlock: AJUNOK_clean_linker_0, # of connection points: 2
#     Edge 23, Type (0, 0), BuildingBlock: AJUNOK_clean_linker_0, # of connection points: 2
#     Edge 24, Type (0, 0), BuildingBlock: AJUNOK_clean_linker_0, # of connection points: 2
#     Edge 25, Type (0, 0), BuildingBlock: AJUNOK_clean_linker_0, # of connection points: 2
#     Edge 26, Type (0, 0), BuildingBlock: AJUNOK_clean_linker_0, # of connection points: 2
#     Edge 27, Type (0, 0), BuildingBlock: AJUNOK_clean_linker_0, # of connection points: 2
#     Edge 28, Type (0, 0), BuildingBlock: AJUNOK_clean_linker_0, # of connection points: 2
#     Edge 29, Type (0, 0), BuildingBlock: AJUNOK_clean_linker_0, # of connection points: 2
#     Edge 30, Type (0, 0), BuildingBlock: AJUNOK_clean_linker_0, # of connection points: 2
#     Edge 31, Type (0, 0), BuildingBlock: AJUNOK_clean_linker_0, # of connection points: 2
#     Edge 32, Type (0, 0), BuildingBlock: AJUNOK_clean_linker_0, # of connection points: 2
#     Edge 33, Type (0, 0), BuildingBlock: AJUNOK_clean_linker_0, # of connection points: 2
#     Edge 34, Type (0, 0), BuildingBlock: AJUNOK_clean_linker_0, # of connection points: 2
#     Edge 35, Type (0, 0), BuildingBlock: AJUNOK_clean_linker_0, # of connection points: 2
#     Edge 36, Type (0, 0), BuildingBlock: AJUNOK_clean_linker_0, # of connection points: 2
#     Edge 37, Type (0, 0), BuildingBlock: AJUNOK_clean_linker_0, # of connection points: 2
#     Edge 38, Type (0, 0), BuildingBlock: AJUNOK_clean_linker_0, # of connection points: 2
#     Edge 39, Type (0, 0), BuildingBlock: AJUNOK_clean_linker_0, # of connection points: 2
#     Edge 40, Type (0, 0), BuildingBlock: AJUNOK_clean_linker_0, # of connection points: 2
#     Edge 41, Type (0, 0), BuildingBlock: AJUNOK_clean_linker_0, # of connection points: 2
#     Edge 42, Type (0, 0), BuildingBlock: AJUNOK_clean_linker_0, # of connection points: 2
#     Edge 43, Type (0, 0), BuildingBlock: AJUNOK_clean_linker_0, # of connection points: 2
#     Edge 44, Type (0, 0), BuildingBlock: AJUNOK_clean_linker_0, # of connection points: 2
#     Edge 45, Type (0, 0), BuildingBlock: AJUNOK_clean_linker_0, # of connection points: 2
#     Edge 46, Type (0, 0), BuildingBlock: AJUNOK_clean_linker_0, # of connection points: 2
#     Edge 47, Type (0, 0), BuildingBlock: AJUNOK_clean_linker_0, # of connection points: 2
#     Edge 48, Type (0, 0), BuildingBlock: AJUNOK_clean_linker_0, # of connection points: 2
#     Edge 49, Type (0, 0), BuildingBlock: AJUNOK_clean_linker_0, # of connection points: 2
#     Edge 50, Type (0, 0), BuildingBlock: AJUNOK_clean_linker_0, # of connection points: 2
#     Edge 51, Type (0, 0), BuildingBlock: AJUNOK_clean_linker_0, # of connection points: 2
#     Edge 52, Type (0, 0), BuildingBlock: AJUNOK_clean_linker_0, # of connection points: 2
#     Edge 53, Type (0, 0), BuildingBlock: AJUNOK_clean_linker_0, # of connection points: 2
#     Edge 54, Type (0, 0), BuildingBlock: AJUNOK_clean_linker_0, # of connection points: 2
#     Edge 55, Type (0, 0), BuildingBlock: AJUNOK_clean_linker_0, # of connection points: 2
#     Edge 56, Type (0, 0), BuildingBlock: AJUNOK_clean_linker_0, # of connection points: 2
#     Edge 57, Type (0, 0), BuildingBlock: AJUNOK_clean_linker_0, # of connection points: 2
#     Edge 58, Type (0, 0), BuildingBlock: AJUNOK_clean_linker_0, # of connection points: 2
#     Edge 59, Type (0, 0), BuildingBlock: AJUNOK_clean_linker_0, # of connection points: 2
#     Edge 60, Type (0, 0), BuildingBlock: AJUNOK_clean_linker_0, # of connection points: 2
#     Edge 61, Type (0, 0), BuildingBlock: AJUNOK_clean_linker_0, # of connection points: 2
#     Edge 62, Type (0, 0), BuildingBlock: AJUNOK_clean_linker_0, # of connection points: 2
# Relax obj value: 0.265
# Max RMSD: 0.180
# Mean RMSD: 0.180
data_MOF--net-wla--node1-BEQFEK_clean_sbu_0--edge1-AJUNOK_clean_linker_0
_symmetry_space_group_name_H-M    P1
_symmetry_Int_Tables_number       1
_symmetry_cell_setting            triclinic
loop_
_symmetry_equiv_pos_as_xyz
'x, y, z'
_cell_length_a     49.746871
_cell_length_b     49.738772
_cell_length_c     22.640031
_cell_angle_alpha  89.978263
_cell_angle_beta   89.959479
_cell_angle_gamma 120.00787
loop_
_atom_site_label
_atom_site_type_symbol
_atom_site_fract_x
_atom_site_fract_y
_atom_site_fract_z
_atom_type_partial_charge
Co0 Co 0.12906 0.00415 0.28864 0.0
Co1 Co 0.19232 0.06638 0.28107 0.0
C2 C 0.17677 0.01893 0.37915 0.0
O3 O 0.15052 -3e-05 0.35687 0.0
O4 O 0.19475 0.04515 0.35495 0.0
C5 C 0.07364 0.94226 0.30656 0.0
O6 O 0.08915 0.93567 0.34528 0.0
C7 C 0.25813 0.10181 0.24768 0.0
C8 C 0.26502 0.14909 0.23853 0.0
C9 C 0.27945 0.13175 0.23073 0.0
N10 N 0.23195 0.10128 0.26439 0.0
N11 N 0.23639 0.12973 0.25966 0.0
C12 C 0.26207 0.07394 0.24521 0.0
H13 H 0.23955 0.05234 0.25246 0.0
H14 H 0.27215 0.073 0.20203 0.0
H15 H 0.27865 0.07598 0.28008 0.0
C16 C 0.1452 0.9974 0.1677 0.0
N17 N 0.15264 0.01222 0.21985 0.0
N18 N 0.17813 0.03931 0.21415 0.0
C19 C 0.18711 0.043 0.15703 0.0
C20 C 0.16671 0.01649 0.12605 0.0
C21 C 0.11695 0.96637 0.15773 0.0
H22 H 0.11447 0.95043 0.19431 0.0
H23 H 0.11828 0.95619 0.11497 0.0
H24 H 0.09607 0.96898 0.15792 0.0
O25 O 0.12008 0.03809 0.30176 0.0
O26 O 0.16392 0.08284 0.29489 0.0
H27 H 0.21305 0.09293 0.15483 0.0
H28 H 0.20618 0.07474 0.08332 0.0
C29 C 0.2114 0.07291 0.13032 0.0
H30 H 0.23403 0.07372 0.13196 0.0
H31 H 0.21942 0.13567 0.26838 0.0
O32 O 0.08718 0.96793 0.27897 0.0
C33 C 0.1347 0.06759 0.30252 0.0
Co34 Co 0.00631 0.12924 0.28246 0.0
Co35 Co 0.94414 0.13038 0.26827 0.0
C36 C 0.98752 0.1616 0.36999 0.0
O37 O 0.00651 0.15358 0.3505 0.0
O38 O 0.96196 0.15397 0.34365 0.0
C39 C 0.06609 0.1338 0.31378 0.0
O40 O 0.06988 0.15319 0.35658 0.0
C41 C 0.90166 0.15412 0.23673 0.0
C42 C 0.86368 0.11168 0.19628 0.0
C43 C 0.87365 0.14276 0.20618 0.0
N44 N 0.90787 0.13085 0.24287 0.0
N45 N 0.88477 0.10549 0.21951 0.0
C46 C 0.92236 0.18618 0.25994 0.0
H47 H 0.93639 0.18555 0.2974 0.0
H48 H 0.93859 0.20079 0.22465 0.0
H49 H 0.90847 0.19681 0.27452 0.0
C50 C 0.0167 0.15387 0.16244 0.0
N51 N 0.00029 0.1455 0.21287 0.0
N52 N 0.97402 0.14541 0.20524 0.0
C53 C 0.97287 0.15356 0.14879 0.0
C54 C -0.00015 0.15917 0.12009 0.0
C55 C 0.04679 0.15438 0.15412 0.0
H56 H 0.06268 0.16721 0.19113 0.0
H57 H 0.05795 0.16543 0.11156 0.0
H58 H 0.04246 0.13022 0.15506 0.0
O59 O 0.9734 0.08581 0.29027 0.0
O60 O 0.92903 0.08577 0.2832 0.0
H61 H 0.9244 0.12853 0.12844 0.0
H62 H 0.94784 0.15568 0.072 0.0
C63 C 0.94485 0.15174 0.12036 0.0
H64 H 0.94045 0.16957 0.13992 0.0
H65 H 0.88405 0.08419 0.21701 0.0
O66 O 0.04332 0.12461 0.27858 0.0
C67 C 0.94398 0.07149 0.28994 0.0
Co68 Co 0.88328 0.88044 0.28557 0.0
Co69 Co 0.87716 0.81479 0.27934 0.0
C70 C 0.8499 0.83216 0.37955 0.0
O71 O 0.8589 0.85866 0.35627 0.0
O72 O 0.85543 0.81221 0.35533 0.0
C73 C 0.88385 0.93791 0.31575 0.0
O74 O 0.87301 0.92595 0.36807 0.0
C75 C 0.85117 0.74748 0.2561 0.0
C76 C 0.89104 0.74979 0.20822 0.0
C77 C 0.86043 0.72982 0.22355 0.0
N78 N 0.87515 0.77678 0.25833 0.0
N79 N 0.8991 0.77768 0.23113 0.0
C80 C 0.81929 0.73773 0.27862 0.0
H81 H 0.81637 0.75826 0.28493 0.0
H82 H 0.80137 0.72095 0.24788 0.0
H83 H 0.81604 0.7261 0.32199 0.0
C84 C 0.86038 0.86488 0.16451 0.0
N85 N 0.86659 0.85684 0.21721 0.0
N86 N 0.86154 0.82827 0.21498 0.0
C87 C 0.8502 0.81656 0.16094 0.0
C88 C 0.84912 0.83939 0.1271 0.0
C89 C 0.87047 0.89781 0.14814 0.0
H90 H 0.89354 0.91356 0.16774 0.0
H91 H 0.85366 0.90414 0.16637 0.0
H92 H 0.87229 0.90142 0.09966 0.0
O93 O 0.92609 0.89 0.29403 0.0
O94 O 0.92275 0.84403 0.2895 0.0
H95 H 0.86137 0.78151 0.13832 0.0
H96 H 0.8283 0.77834 0.09882 0.0
C97 C 0.84062 0.78421 0.14177 0.0
H98 H 0.82459 0.76765 0.17488 0.0
H99 H 0.92042 0.79789 0.22468 0.0
O100 O 0.88704 0.92151 0.27651 0.0
C101 C 0.93885 0.8734 0.29431 0.0
Co102 Co 0.00026 0.12884 0.70494 0.0
Co103 Co 0.06238 0.19239 0.70933 0.0
C104 C 0.01433 0.17591 0.61272 0.0
O105 O 0.99582 0.14961 0.63552 0.0
O106 O 0.0405 0.19432 0.63643 0.0
C107 C 0.93774 0.07304 0.69148 0.0
O108 O 0.92964 0.08821 0.65484 0.0
C109 C 0.09776 0.25795 0.74394 0.0
C110 C 0.14486 0.26429 0.75229 0.0
C111 C 0.12768 0.27875 0.76278 0.0
N112 N 0.0973 0.23219 0.72445 0.0
N113 N 0.12568 0.23646 0.72817 0.0
C114 C 0.06934 0.2608 0.7506 0.0
H115 H 0.04811 0.23759 0.75055 0.0
H116 H 0.07052 0.27353 0.79168 0.0
H117 H 0.06787 0.27404 0.71252 0.0
C118 C 0.99469 0.14577 0.82576 0.0
N119 N 0.00877 0.15312 0.77283 0.0
N120 N 0.03604 0.17849 0.77746 0.0
C121 C 0.04064 0.18744 0.83462 0.0
C122 C 0.01446 0.16722 0.86667 0.0
C123 C 0.96407 0.11728 0.83741 0.0
H124 H 0.9671 0.09664 0.83692 0.0
H125 H 0.94747 0.11433 0.80186 0.0
H126 H 0.95445 0.11864 0.88085 0.0
O127 O 0.03421 0.1197 0.69347 0.0
O128 O 0.07888 0.16405 0.69564 0.0
H129 H 0.0906 0.2122 0.83401 0.0
H130 H 0.07351 0.20502 0.90666 0.0
C131 C 0.07124 0.21094 0.86034 0.0
H132 H 0.07291 0.234 0.86067 0.0
H133 H 0.13155 0.2196 0.71777 0.0
O134 O 0.96422 0.08694 0.71605 0.0
C135 C 0.06369 0.13465 0.69127 0.0
Co136 Co 0.88066 0.88378 0.71567 0.0
Co137 Co 0.81407 0.87545 0.71974 0.0
C138 C 0.83276 0.84851 0.62168 0.0
O139 O 0.85923 0.85841 0.64568 0.0
O140 O 0.8123 0.85377 0.64426 0.0
C141 C 0.93816 0.88471 0.68572 0.0
O142 O 0.92577 0.87351 0.63388 0.0
C143 C 0.74628 0.848 0.73957 0.0
C144 C 0.74717 0.88536 0.79405 0.0
C145 C 0.7278 0.85566 0.77335 0.0
N146 N 0.77553 0.87208 0.74126 0.0
N147 N 0.77566 0.89455 0.77264 0.0
C148 C 0.73706 0.81725 0.71206 0.0
H149 H 0.75775 0.81477 0.70435 0.0
H150 H 0.72004 0.79807 0.7405 0.0
H151 H 0.72578 0.81569 0.66895 0.0
C152 C 0.865 0.86243 0.83813 0.0
N153 N 0.8571 0.86742 0.78421 0.0
N154 N 0.82796 0.86064 0.78444 0.0
C155 C 0.81572 0.84909 0.83806 0.0
C156 C 0.83898 0.85051 0.87439 0.0
C157 C 0.89782 0.87302 0.85588 0.0
H158 H 0.91374 0.89529 0.83367 0.0
H159 H 0.90403 0.85548 0.84163 0.0
H160 H 0.9012 0.8765 0.90425 0.0
O161 O 0.889 0.9261 0.70551 0.0
O162 O 0.84239 0.92134 0.70954 0.0
H163 H 0.77604 0.85341 0.85867 0.0
H164 H 0.77606 0.82076 0.89383 0.0
C165 C 0.78201 0.83489 0.8529 0.0
H166 H 0.76794 0.81957 0.81635 0.0
H167 H 0.79564 0.91551 0.78261 0.0
O168 O 0.92205 0.88825 0.72517 0.0
C169 C 0.87173 0.93813 0.70481 0.0
Co170 Co 0.12892 0.00835 0.71174 0.0
Co171 Co 0.13186 0.94702 0.72321 0.0
C172 C 0.16167 0.99121 0.62188 0.0
O173 O 0.15309 0.00955 0.64251 0.0
O174 O 0.15473 0.96562 0.64746 0.0
C175 C 0.12787 0.0643 0.67691 0.0
O176 O 0.1401 0.0631 0.62624 0.0
C177 C 0.15793 0.90605 0.74724 0.0
C178 C 0.11914 0.86906 0.79834 0.0
C179 C 0.14951 0.87952 0.78106 0.0
N180 N 0.13401 0.91146 0.74724 0.0
N181 N 0.11072 0.88887 0.77665 0.0
C182 C 0.18724 0.92541 0.71329 0.0
H183 H 0.18182 0.93267 0.67073 0.0
H184 H 0.2025 0.9468 0.73865 0.0
H185 H 0.19954 0.91238 0.70435 0.0
C186 C 0.15428 0.01852 0.831 0.0
N187 N 0.14613 0.00249 0.78018 0.0
N188 N 0.14709 0.97669 0.78657 0.0
C189 C 0.15598 0.9756 0.84249 0.0
C190 C 0.16059 0.00193 0.87236 0.0
C191 C 0.15349 0.04787 0.84084 0.0
H192 H 0.12905 0.04268 0.83969 0.0
H193 H 0.16622 0.06449 0.80465 0.0
H194 H 0.16402 0.05865 0.88389 0.0
O195 O 0.08563 0.97482 0.70537 0.0
O196 O 0.08687 0.93098 0.71073 0.0
H197 H 0.13247 0.92769 0.86689 0.0
H198 H 0.16341 0.95219 0.91629 0.0
C199 C 0.15611 0.94818 0.86936 0.0
H200 H 0.17231 0.94323 0.84448 0.0
H201 H 0.08952 0.88781 0.78439 0.0
O202 O 0.12445 0.04541 0.71787 0.0
C203 C 0.07195 0.94539 0.70551 0.0
Co204 Co 0.79085 0.33971 0.63383 0.0
Co205 Co 0.85729 0.39699 0.61639 0.0
C206 C 0.84253 0.35685 0.7223 0.0
O207 O 0.81516 0.33965 0.70254 0.0
O208 O 0.86243 0.38104 0.69448 0.0
C209 C 0.73842 0.27397 0.63812 0.0
O210 O 0.75744 0.26306 0.63154 0.0
C211 C 0.92436 0.43656 0.58714 0.0
C212 C 0.92151 0.47074 0.52874 0.0
C213 C 0.94174 0.46158 0.5499 0.0
N214 N 0.89493 0.43091 0.58701 0.0
N215 N 0.89364 0.45186 0.55302 0.0
C216 C 0.93455 0.41628 0.61681 0.0
H217 H 0.91445 0.39261 0.62368 0.0
H218 H 0.95277 0.41515 0.5904 0.0
H219 H 0.94444 0.42627 0.66066 0.0
C220 C 0.80097 0.32761 0.51093 0.0
N221 N 0.81132 0.34254 0.5627 0.0
N222 N 0.84028 0.36499 0.55688 0.0
C223 C 0.8499 0.36373 0.50171 0.0
C224 C 0.82525 0.34032 0.47036 0.0
C225 C 0.76729 0.3059 0.49832 0.0
H226 H 0.75272 0.31233 0.52521 0.0
H227 H 0.76133 0.28192 0.51037 0.0
H228 H 0.76186 0.3064 0.45096 0.0
O229 O 0.7832 0.37441 0.63728 0.0
O230 O 0.82993 0.41565 0.62657 0.0
H231 H 0.88513 0.4078 0.4691 0.0
H232 H 0.88661 0.37512 0.43824 0.0
C233 C 0.88205 0.3846 0.47897 0.0
H234 H 0.89914 0.38703 0.51281 0.0
H235 H 0.87328 0.45225 0.5439 0.0
O236 O 0.74892 0.30308 0.63862 0.0
C237 C 0.80077 0.40358 0.63352 0.0
Co238 Co 0.67254 0.46526 0.61942 0.0
Co239 Co 0.61075 0.46747 0.61677 0.0
C240 C 0.65851 0.49745 0.71358 0.0
O241 O 0.67667 0.48941 0.69024 0.0
O242 O 0.63229 0.49001 0.69055 0.0
C243 C 0.73361 0.47104 0.63945 0.0
O244 O 0.73771 0.49014 0.68302 0.0
C245 C 0.57544 0.49855 0.58743 0.0
C246 C 0.52736 0.45902 0.58889 0.0
C247 C 0.5449 0.49046 0.57688 0.0
N248 N 0.57597 0.47288 0.60413 0.0
N249 N 0.54713 0.44943 0.60561 0.0
C250 C 0.60348 0.53025 0.58385 0.0
H251 H 0.62497 0.52922 0.59177 0.0
H252 H 0.60473 0.5409 0.54019 0.0
H253 H 0.60156 0.54534 0.61768 0.0
C254 C 0.67912 0.49127 0.5011 0.0
N255 N 0.66452 0.48277 0.55342 0.0
N256 N 0.63761 0.48176 0.54973 0.0
C257 C 0.63381 0.48854 0.49373 0.0
C258 C 0.66022 0.49536 0.46174 0.0
C259 C 0.70906 0.49227 0.48775 0.0
H260 H 0.70477 0.46819 0.48426 0.0
H261 H 0.72571 0.50398 0.52436 0.0
H262 H 0.71929 0.5047 0.44569 0.0
O263 O 0.63853 0.42184 0.62811 0.0
O264 O 0.59426 0.4223 0.62647 0.0
H265 H 0.58377 0.46439 0.49346 0.0
H266 H 0.60134 0.47483 0.42129 0.0
C267 C 0.60356 0.48251 0.46795 0.0
H268 H 0.60262 0.50428 0.46834 0.0
H269 H 0.541 0.42666 0.61635 0.0
O270 O 0.70936 0.46059 0.60772 0.0
C271 C 0.60901 0.4076 0.62977 0.0
Co272 Co 0.55224 0.21715 0.61044 0.0
Co273 Co 0.54202 0.14972 0.60315 0.0
C274 C 0.51232 0.16817 0.69827 0.0
O275 O 0.52336 0.19521 0.6761 0.0
O276 O 0.51784 0.148 0.67519 0.0
C277 C 0.54687 0.27255 0.63192 0.0
O278 O 0.52336 0.25546 0.66698 0.0
C279 C 0.51077 0.08198 0.57851 0.0
C280 C 0.55144 0.07785 0.55295 0.0
C281 C 0.51947 0.06117 0.55785 0.0
N282 N 0.53657 0.10989 0.58472 0.0
N283 N 0.56075 0.10704 0.57014 0.0
C284 C 0.47873 0.07536 0.59354 0.0
H285 H 0.47866 0.09723 0.60292 0.0
H286 H 0.46244 0.0627 0.55701 0.0
H287 H 0.47044 0.06018 0.63314 0.0
C288 C 0.53684 0.20548 0.48411 0.0
N289 N 0.53872 0.19562 0.53845 0.0
N290 N 0.53226 0.16656 0.53573 0.0
C291 C 0.52475 0.15659 0.47948 0.0
C292 C 0.52797 0.18109 0.44462 0.0
C293 C 0.5471 0.23866 0.46992 0.0
H294 H 0.56889 0.25414 0.49393 0.0
H295 H 0.52908 0.24402 0.48511 0.0
H296 H 0.55119 0.24356 0.42198 0.0
O297 O 0.59301 0.22269 0.62919 0.0
O298 O 0.58741 0.17584 0.62034 0.0
H299 H 0.53227 0.11841 0.46353 0.0
H300 H 0.50417 0.1197 0.41435 0.0
C301 C 0.51327 0.12386 0.46013 0.0
H302 H 0.49407 0.10798 0.4894 0.0
H303 H 0.58365 0.12533 0.56991 0.0
O304 O 0.56001 0.2601 0.60398 0.0
C305 C 0.60431 0.20476 0.63039 0.0
Co306 Co 0.66377 0.46306 0.04924 0.0
Co307 Co 0.72763 0.52485 0.05965 0.0
C308 C 0.68413 0.51187 0.95737 0.0
O309 O 0.66403 0.48583 0.97891 0.0
O310 O 0.70987 0.52929 0.98342 0.0
C311 C 0.60861 0.40709 0.01301 0.0
O312 O 0.61557 0.41912 0.95971 0.0
C313 C 0.76724 0.59056 0.09134 0.0
C314 C 0.81127 0.59193 0.11264 0.0
C315 C 0.7968 0.60948 0.11325 0.0
N316 N 0.76415 0.56274 0.07883 0.0
N317 N 0.79074 0.56391 0.09071 0.0
C318 C 0.74185 0.59818 0.08581 0.0
H319 H 0.71911 0.57676 0.07907 0.0
H320 H 0.74107 0.61076 0.12568 0.0
H321 H 0.7468 0.61379 0.04732 0.0
C322 C 0.65528 0.4809 0.16754 0.0
N323 N 0.67131 0.48733 0.11678 0.0
N324 N 0.69853 0.5126 0.12327 0.0
C325 C 0.70083 0.52262 0.17942 0.0
C326 C 0.67337 0.50312 0.20873 0.0
C327 C 0.62463 0.45223 0.17799 0.0
H328 H 0.60872 0.4488 0.14081 0.0
H329 H 0.61396 0.45372 0.22003 0.0
H330 H 0.62805 0.43184 0.17976 0.0
O331 O 0.69555 0.45061 0.04256 0.0
O332 O 0.74106 0.49378 0.04962 0.0
H333 H 0.75045 0.54598 0.18912 0.0
H334 H 0.72988 0.54338 0.25631 0.0
C335 C 0.73027 0.54675 0.2078 0.0
H336 H 0.73297 0.56992 0.19972 0.0
H337 H 0.79441 0.5451 0.08653 0.0
O338 O 0.62465 0.42314 0.0566 0.0
C339 C 0.72503 0.46448 0.04381 0.0
Co340 Co 0.54828 0.22038 0.02462 0.0
Co341 Co 0.48162 0.21018 0.04417 0.0
C342 C 0.49543 0.18396 0.93909 0.0
O343 O 0.52312 0.19498 0.95767 0.0
O344 O 0.47554 0.18818 0.96702 0.0
C345 C 0.60014 0.20664 0.01907 0.0
O346 O 0.58083 0.17678 0.02585 0.0
C347 C 0.41519 0.18308 0.07924 0.0
C348 C 0.41962 0.22189 0.13415 0.0
C349 C 0.39891 0.19179 0.11716 0.0
N350 N 0.4445 0.20696 0.07517 0.0
N351 N 0.44666 0.23024 0.10697 0.0
C352 C 0.40429 0.1517 0.05302 0.0
H353 H 0.42434 0.14862 0.04207 0.0
H354 H 0.38829 0.1332 0.08383 0.0
H355 H 0.39143 0.1496 0.01168 0.0
C356 C 0.54016 0.20008 0.14855 0.0
N357 N 0.5289 0.20359 0.09691 0.0
N358 N 0.49977 0.19633 0.10363 0.0
C359 C 0.49096 0.18595 0.15935 0.0
C360 C 0.51632 0.18836 0.19008 0.0
C361 C 0.57413 0.21319 0.15983 0.0
H362 H 0.58787 0.23402 0.13193 0.0
H363 H 0.58072 0.19561 0.14805 0.0
H364 H 0.57999 0.21976 0.20686 0.0
O365 O 0.55571 0.2626 0.01956 0.0
O366 O 0.50858 0.25604 0.03154 0.0
H367 H 0.45491 0.19349 0.1921 0.0
H368 H 0.45508 0.16033 0.22421 0.0
C369 C 0.45884 0.17383 0.18299 0.0
H370 H 0.44177 0.15837 0.14993 0.0
H371 H 0.46718 0.25131 0.11297 0.0
O372 O 0.59002 0.22555 0.01881 0.0
C373 C 0.53755 0.27348 0.02311 0.0
Co374 Co 0.78643 0.33377 0.05193 0.0
Co375 Co 0.79574 0.27607 0.05799 0.0
C376 C 0.82641 0.32428 0.96389 0.0
O377 O 0.81538 0.34023 0.98647 0.0
O378 O 0.82054 0.29819 0.9859 0.0
C379 C 0.78734 0.39222 0.02741 0.0
O380 O 0.807 0.39755 0.98415 0.0
C381 C 0.82038 0.23285 0.08033 0.0
C382 C 0.78076 0.19766 0.13246 0.0
C383 C 0.81025 0.20566 0.11319 0.0
N384 N 0.79793 0.24047 0.08161 0.0
N385 N 0.77424 0.21902 0.11204 0.0
C386 C 0.85044 0.25127 0.04806 0.0
H387 H 0.8475 0.26391 0.01055 0.0
H388 H 0.86804 0.26866 0.07838 0.0
H389 H 0.85897 0.23586 0.03155 0.0
C390 C 0.80236 0.33702 0.17807 0.0
N391 N 0.79959 0.32525 0.12348 0.0
N392 N 0.80653 0.30301 0.12474 0.0
C393 C 0.81565 0.30105 0.1799 0.0
C394 C 0.81261 0.32202 0.21598 0.0
C395 C 0.79206 0.35969 0.19408 0.0
H396 H 0.77037 0.35383 0.17015 0.0
H397 H 0.81019 0.38333 0.18034 0.0
H398 H 0.7878 0.35963 0.24217 0.0
O399 O 0.74554 0.29945 0.03228 0.0
O400 O 0.75064 0.25793 0.03955 0.0
H401 H 0.81032 0.25688 0.20276 0.0
H402 H 0.84276 0.28941 0.2382 0.0
C403 C 0.8292 0.2812 0.19667 0.0
H404 H 0.84471 0.28181 0.16097 0.0
H405 H 0.75403 0.21972 0.1212 0.0
O406 O 0.77881 0.36875 0.06055 0.0
C407 C 0.73402 0.27026 0.02987 0.0
Co408 Co 0.45529 0.66974 0.96525 0.0
Co409 Co 0.52134 0.72612 0.94097 0.0
C410 C 0.50998 0.68442 0.04376 0.0
O411 O 0.48199 0.66757 0.02693 0.0
O412 O 0.52889 0.70911 0.01593 0.0
C413 C 0.40281 0.60456 0.97261 0.0
O414 O 0.42114 0.59362 0.95865 0.0
C415 C 0.58715 0.76511 0.90266 0.0
C416 C 0.58244 0.79963 0.84869 0.0
C417 C 0.60312 0.79001 0.86451 0.0
N418 N 0.55794 0.75977 0.90787 0.0
N419 N 0.55556 0.7809 0.87645 0.0
C420 C 0.59835 0.74477 0.92825 0.0
H421 H 0.57845 0.72197 0.94148 0.0
H422 H 0.6132 0.74141 0.89588 0.0
H423 H 0.61263 0.75624 0.96788 0.0
C424 C 0.45902 0.65993 0.83749 0.0
N425 N 0.47195 0.67352 0.88931 0.0
N426 N 0.50099 0.69514 0.88065 0.0
C427 C 0.50806 0.69463 0.82325 0.0
C428 C 0.48161 0.67273 0.79353 0.0
C429 C 0.42478 0.63914 0.82949 0.0
H430 H 0.41192 0.64565 0.86102 0.0
H431 H 0.4186 0.61482 0.83891 0.0
H432 H 0.41751 0.64056 0.78381 0.0
O433 O 0.44961 0.70515 0.98012 0.0
O434 O 0.49566 0.74562 0.96035 0.0
H435 H 0.54366 0.73791 0.78837 0.0
H436 H 0.54233 0.70429 0.75533 0.0
C437 C 0.53971 0.71429 0.79727 0.0
H438 H 0.55746 0.71589 0.82868 0.0
H439 H 0.53505 0.78158 0.87158 0.0
O440 O 0.41336 0.63366 0.97433 0.0
C441 C 0.46747 0.73427 0.97599 0.0
Co442 Co 0.33903 0.79328 0.95841 0.0
Co443 Co 0.28036 0.79941 0.93463 0.0
C444 C 0.31966 0.82724 0.04202 0.0
O445 O 0.33822 0.81827 0.02454 0.0
O446 O 0.29533 0.82124 0.0127 0.0
C447 C 0.40402 0.80459 0.97414 0.0
O448 O 0.41663 0.83493 0.97359 0.0
C449 C 0.23874 0.82448 0.90517 0.0
C450 C 0.2078 0.78864 0.84139 0.0
C451 C 0.21465 0.81701 0.86518 0.0
N452 N 0.24639 0.80211 0.90259 0.0
N453 N 0.22731 0.78048 0.86549 0.0
C454 C 0.25321 0.85099 0.94773 0.0
H455 H 0.2579 0.843 0.9902 0.0
H456 H 0.27582 0.86925 0.92982 0.0
H457 H 0.23783 0.86079 0.956 0.0
C458 C 0.35423 0.81754 0.8365 0.0
N459 N 0.33695 0.81043 0.88593 0.0
N460 N 0.31308 0.8145 0.87667 0.0
C461 C 0.31508 0.82529 0.82116 0.0
C462 C 0.34106 0.8274 0.79392 0.0
C463 C 0.38152 0.81289 0.82921 0.0
H464 H 0.37528 0.78923 0.84423 0.0
H465 H 0.40076 0.82982 0.85743 0.0
H466 H 0.38972 0.81633 0.78277 0.0
O467 O 0.30424 0.75075 0.96478 0.0
O468 O 0.26243 0.75405 0.94659 0.0
H469 H 0.26993 0.80708 0.78371 0.0
H470 H 0.29866 0.84217 0.74915 0.0
C471 C 0.29073 0.82999 0.79206 0.0
H472 H 0.28441 0.8438 0.82131 0.0
H473 H 0.22848 0.76069 0.85471 0.0
O474 O 0.37503 0.7872 0.96645 0.0
C475 C 0.27504 0.73796 0.95861 0.0
Co476 Co 0.21802 0.54823 0.9605 0.0
Co477 Co 0.20737 0.48107 0.94738 0.0
C478 C 0.1768 0.49763 0.04389 0.0
O479 O 0.18817 0.52503 0.02348 0.0
O480 O 0.18278 0.47788 0.02023 0.0
C481 C 0.20902 0.60303 0.96052 0.0
O482 O 0.17873 0.58488 0.95948 0.0
C483 C 0.17595 0.41408 0.9165 0.0
C484 C 0.21647 0.41051 0.88722 0.0
C485 C 0.1845 0.39388 0.89195 0.0
N486 N 0.20184 0.44167 0.92486 0.0
N487 N 0.22595 0.43914 0.90812 0.0
C488 C 0.144 0.40726 0.9328 0.0
H489 H 0.14334 0.42914 0.93753 0.0
H490 H 0.12673 0.39192 0.89965 0.0
H491 H 0.13754 0.39486 0.97578 0.0
C492 C 0.20357 0.53988 0.83347 0.0
N493 N 0.20507 0.52875 0.88676 0.0
N494 N 0.19816 0.49964 0.88167 0.0
C495 C 0.1906 0.49088 0.82485 0.0
C496 C 0.1939 0.51609 0.79227 0.0
C497 C 0.21581 0.57366 0.8215 0.0
H498 H 0.23677 0.58786 0.8487 0.0
H499 H 0.19796 0.57977 0.83405 0.0
H500 H 0.22195 0.57944 0.77427 0.0
O501 O 0.25826 0.55286 0.97962 0.0
O502 O 0.25273 0.50635 0.96567 0.0
H503 H 0.19906 0.45369 0.80502 0.0
H504 H 0.17113 0.45557 0.75647 0.0
C505 C 0.17981 0.45882 0.80245 0.0
H506 H 0.16046 0.44213 0.83052 0.0
H507 H 0.24888 0.45736 0.90881 0.0
O508 O 0.22655 0.5913 0.95981 0.0
C509 C 0.26945 0.53489 0.97899 0.0
Co510 Co 0.33493 0.79547 0.37699 0.0
Co511 Co 0.39701 0.85907 0.37791 0.0
C512 C 0.34665 0.84208 0.28514 0.0
O513 O 0.32858 0.81605 0.30926 0.0
O514 O 0.37351 0.86041 0.3065 0.0
C515 C 0.27362 0.73982 0.36049 0.0
O516 O 0.26746 0.75528 0.32088 0.0
C517 C 0.43227 0.92441 0.41408 0.0
C518 C 0.47984 0.93162 0.41612 0.0
C519 C 0.4624 0.94524 0.43156 0.0
N520 N 0.43184 0.89921 0.39135 0.0
N521 N 0.46049 0.90406 0.39121 0.0
C522 C 0.40384 0.92679 0.42481 0.0
H523 H 0.38251 0.90397 0.41841 0.0
H524 H 0.40427 0.93568 0.46996 0.0
H525 H 0.40351 0.94357 0.39294 0.0
C526 C 0.33254 0.81265 0.5 0.0
N527 N 0.3451 0.81977 0.44566 0.0
N528 N 0.37246 0.84513 0.4482 0.0
C529 C 0.37884 0.85413 0.50518 0.0
C530 C 0.35349 0.83423 0.5396 0.0
C531 C 0.3021 0.78439 0.51387 0.0
H532 H 0.28525 0.78015 0.47799 0.0
H533 H 0.29264 0.78701 0.55652 0.0
H534 H 0.30542 0.76396 0.5166 0.0
O535 O 0.36882 0.78659 0.35988 0.0
O536 O 0.41347 0.83091 0.36228 0.0
H537 H 0.41404 0.87002 0.57308 0.0
H538 H 0.41339 0.9001 0.53081 0.0
C539 C 0.4106 0.87661 0.52805 0.0
H540 H 0.42868 0.87728 0.49852 0.0
H541 H 0.46652 0.8877 0.37777 0.0
O542 O 0.29895 0.75349 0.38917 0.0
C543 C 0.39829 0.8016 0.35585 0.0
Co544 Co 0.21553 0.5503 0.3693 0.0
Co545 Co 0.14983 0.54256 0.38861 0.0
C546 C 0.16214 0.51427 0.28467 0.0
O547 O 0.18966 0.52433 0.30342 0.0
O548 O 0.14305 0.51981 0.31225 0.0
C549 C 0.26769 0.53641 0.36269 0.0
O550 O 0.24953 0.50712 0.37687 0.0
C551 C 0.08349 0.51598 0.42232 0.0
C552 C 0.08752 0.5544 0.47795 0.0
C553 C 0.06698 0.52439 0.46015 0.0
N554 N 0.11284 0.53982 0.41925 0.0
N555 N 0.11481 0.56288 0.45155 0.0
C556 C 0.0725 0.48486 0.39491 0.0
H557 H 0.0925 0.48215 0.38162 0.0
H558 H 0.05734 0.46613 0.42615 0.0
H559 H 0.05859 0.48272 0.35508 0.0
C560 C 0.20748 0.53283 0.49564 0.0
N561 N 0.19646 0.53522 0.44279 0.0
N562 N 0.16746 0.5286 0.44866 0.0
C563 C 0.15849 0.5197 0.5049 0.0
C564 C 0.1838 0.52314 0.53717 0.0
C565 C 0.24103 0.54382 0.50722 0.0
H566 H 0.25587 0.56226 0.47533 0.0
H567 H 0.24523 0.52405 0.50168 0.0
H568 H 0.24763 0.55292 0.55283 0.0
O569 O 0.22368 0.59266 0.36167 0.0
O570 O 0.17763 0.58835 0.37529 0.0
H571 H 0.12001 0.52459 0.53306 0.0
H572 H 0.12229 0.49336 0.56875 0.0
C573 C 0.12576 0.50599 0.52646 0.0
H574 H 0.10972 0.48946 0.4932 0.0
H575 H 0.13531 0.5839 0.45818 0.0
O576 O 0.25701 0.55485 0.36104 0.0
C577 C 0.20667 0.60489 0.36581 0.0
Co578 Co 0.45242 0.66575 0.36665 0.0
Co579 Co 0.46295 0.60922 0.38382 0.0
C580 C 0.4937 0.65483 0.28504 0.0
O581 O 0.48228 0.67115 0.3038 0.0
O582 O 0.48807 0.62972 0.31101 0.0
C583 C 0.46052 0.72917 0.3565 0.0
O584 O 0.49082 0.74165 0.35388 0.0
C585 C 0.49238 0.57253 0.42196 0.0
C586 C 0.45064 0.53116 0.45668 0.0
C587 C 0.48263 0.54521 0.45365 0.0
N588 N 0.46723 0.575 0.4095 0.0
N589 N 0.44238 0.54972 0.42886 0.0
C590 C 0.52504 0.5972 0.40878 0.0
H591 H 0.52601 0.61936 0.39713 0.0
H592 H 0.54032 0.60062 0.44713 0.0
H593 H 0.53374 0.58969 0.37072 0.0
C594 C 0.46463 0.67182 0.4952 0.0
N595 N 0.46471 0.65973 0.44199 0.0
N596 N 0.47149 0.63749 0.44855 0.0
C597 C 0.47725 0.63568 0.50627 0.0
C598 C 0.47232 0.65677 0.53803 0.0
C599 C 0.45372 0.69459 0.50496 0.0
H600 H 0.43322 0.68845 0.47678 0.0
H601 H 0.47244 0.71807 0.49183 0.0
H602 H 0.44745 0.6951 0.5518 0.0
O603 O 0.41204 0.62998 0.34853 0.0
O604 O 0.41782 0.5893 0.36433 0.0
H605 H 0.47012 0.59065 0.52804 0.0
H606 H 0.49683 0.62121 0.57672 0.0
C607 C 0.48878 0.61528 0.53042 0.0
H608 H 0.50877 0.6185 0.50383 0.0
H609 H 0.41981 0.54598 0.42647 0.0
O610 O 0.44345 0.70012 0.36395 0.0
C611 C 0.40096 0.60083 0.35033 0.0
C612 C 0.13242 0.11662 0.31724 0.0
C613 C 0.11693 0.08416 0.30886 0.0
C614 C 0.11593 0.13276 0.32024 0.0
C615 C 0.08354 0.11703 0.31363 0.0
H616 H 0.15746 0.12973 0.32115 0.0
H617 H 0.12864 0.15771 0.32621 0.0
S618 S 0.03152 0.03212 0.29541 0.0
N619 N 0.06677 0.03687 0.29765 0.0
N620 N 0.03627 0.06725 0.30222 0.0
C621 C 0.06771 0.08463 0.30662 0.0
C622 C 0.08428 0.06817 0.30451 0.0
C623 C 0.88732 0.98898 0.33799 0.0
C624 C 0.8975 0.97163 0.3054 0.0
C625 C 0.90171 0.02137 0.33148 0.0
C626 C 0.92726 0.03739 0.29349 0.0
H627 H 0.86828 0.9775 0.36899 0.0
H628 H 0.8935 0.03404 0.35769 0.0
S629 S 0.96218 0.00299 0.19653 0.0
N630 N 0.93403 0.97311 0.23178 0.0
N631 N 0.96132 0.03378 0.22108 0.0
C632 C 0.93731 0.02035 0.26003 0.0
C633 C 0.92236 0.98749 0.26557 0.0
C634 C 0.9903 0.92053 0.27878 0.0
C635 C 0.97317 0.88931 0.29672 0.0
C636 C 0.02265 0.93688 0.28071 0.0
C637 C 0.03945 0.92295 0.30151 0.0
H638 H 0.97866 0.93261 0.26283 0.0
H639 H 0.03448 0.96098 0.26696 0.0
S640 S 0.00587 0.84145 0.35227 0.0
N641 N 0.97539 0.84464 0.33437 0.0
N642 N 0.03661 0.87579 0.33918 0.0
C643 C 0.02276 0.89163 0.31911 0.0
C644 C 0.98956 0.87471 0.3163 0.0
C645 C 0.12437 0.11192 0.65484 0.0
C646 C 0.11227 0.08282 0.68257 0.0
C647 C 0.10887 0.129 0.65845 0.0
C648 C 0.08031 0.11701 0.68828 0.0
H649 H 0.14601 0.1216 0.63054 0.0
H650 H 0.11898 0.15141 0.63682 0.0
S651 S 0.03857 0.04164 0.76742 0.0
N652 N 0.07004 0.04281 0.7409 0.0
N653 N 0.04075 0.07443 0.74643 0.0
C654 C 0.06797 0.08788 0.7159 0.0
C655 C 0.08399 0.0709 0.71337 0.0
C656 C 0.93417 0.02255 0.71475 0.0
C657 C 0.91912 0.03879 0.69699 0.0
C658 C 0.9185 0.99021 0.71686 0.0
C659 C 0.88687 0.97245 0.70208 0.0
H660 H 0.95862 0.03483 0.72597 0.0
H661 H 0.93149 0.97911 0.73044 0.0
S662 S 0.8361 0.00355 0.65584 0.0
N663 N 0.87045 0.03477 0.66601 0.0
N664 N 0.84059 0.97354 0.67108 0.0
C665 C 0.87116 0.98827 0.68566 0.0
C666 C 0.88738 0.0215 0.68272 0.0
C667 C 0.0217 0.90385 0.66341 0.0
C668 C 0.03784 0.92803 0.70402 0.0
C669 C 0.98923 0.8893 0.65854 0.0
C670 C 0.97194 0.89798 0.6952 0.0
H671 H 0.03431 0.89697 0.63382 0.0
H672 H 0.97768 0.87148 0.62532 0.0
S673 S 0.0038 0.95825 0.8127 0.0
N674 N 0.03454 0.95888 0.78364 0.0
N675 N 0.97373 0.93126 0.77605 0.0
C676 C 0.98798 0.92124 0.7379 0.0
C677 C 0.02091 0.93637 0.74186 0.0
C678 C 0.74093 0.42753 0.60587 0.0
C679 C 0.75328 0.45653 0.63407 0.0
C680 C 0.75682 0.41103 0.6056 0.0
C681 C 0.78605 0.42303 0.63243 0.0
H682 H 0.71819 0.41676 0.5855 0.0
H683 H 0.74592 0.38848 0.58441 0.0
S684 S 0.82994 0.49894 0.70824 0.0
N685 N 0.79732 0.49728 0.68734 0.0
N686 N 0.82769 0.46635 0.68519 0.0
C687 C 0.79946 0.45257 0.65852 0.0
C688 C 0.78293 0.46926 0.65985 0.0
C689 C 0.60721 0.35733 0.61209 0.0
C690 C 0.59199 0.37318 0.63123 0.0
C691 C 0.59208 0.32493 0.61132 0.0
C692 C 0.56114 0.30682 0.6305 0.0
H693 H 0.63105 0.37002 0.59689 0.0
H694 H 0.60509 0.31407 0.59641 0.0
S695 S 0.51064 0.33678 0.6846 0.0
N696 N 0.54398 0.36831 0.66916 0.0
N697 N 0.51559 0.30712 0.66877 0.0
C698 C 0.54551 0.32225 0.64977 0.0
C699 C 0.56089 0.35546 0.64979 0.0
C700 C 0.65427 0.24837 0.66654 0.0
C701 C 0.63818 0.21893 0.63995 0.0
C702 C 0.68663 0.26513 0.66799 0.0
C703 C 0.70443 0.25324 0.64298 0.0
H704 H 0.64181 0.25914 0.6848 0.0
H705 H 0.69777 0.2881 0.68749 0.0
S706 S 0.67377 0.17606 0.57257 0.0
N707 N 0.64247 0.17753 0.59161 0.0
N708 N 0.70367 0.20925 0.59451 0.0
C709 C 0.68879 0.22306 0.61936 0.0
C710 C 0.65557 0.20585 0.61782 0.0
C711 C 0.7866 0.44197 0.01549 0.0
C712 C 0.77161 0.41066 0.03301 0.0
C713 C 0.77155 0.45943 0.01973 0.0
C714 C 0.74075 0.44593 0.04026 0.0
H715 H 0.81017 0.45312 0.99883 0.0
H716 H 0.78399 0.48352 0.006 0.0
S717 S 0.69099 0.36442 0.09027 0.0
N718 N 0.72412 0.36676 0.07124 0.0
N719 N 0.69584 0.39929 0.0783 0.0
C720 C 0.72547 0.41454 0.05751 0.0
C721 C 0.74091 0.39699 0.05415 0.0
C722 C 0.5653 0.35623 0.97595 0.0
C723 C 0.58679 0.37339 0.02075 0.0
C724 C 0.54772 0.32365 0.97832 0.0
C725 C 0.55151 0.30735 0.02511 0.0
H726 H 0.56275 0.36797 0.93788 0.0
H727 H 0.53228 0.31113 0.94207 0.0
S728 S 0.60298 0.34068 0.15489 0.0
N729 N 0.6092 0.3711 0.11514 0.0
N730 N 0.57669 0.31009 0.1183 0.0
C731 C 0.57185 0.32407 0.07112 0.0
C732 C 0.58934 0.35708 0.06937 0.0
C733 C 0.68458 0.26487 0.99322 0.0
C734 C 0.70024 0.25092 0.0192 0.0
C735 C 0.65226 0.24954 0.99091 0.0
C736 C 0.63408 0.21955 0.01451 0.0
H737 H 0.69734 0.28837 0.97618 0.0
H738 H 0.64146 0.26183 0.97202 0.0
S739 S 0.66361 0.17143 0.08229 0.0
N740 N 0.69522 0.20433 0.06494 0.0
N741 N 0.63405 0.17536 0.06064 0.0
C742 C 0.64932 0.20442 0.03733 0.0
C743 C 0.68251 0.22015 0.03966 0.0
C744 C 0.4521 0.80132 0.95676 0.0
C745 C 0.42284 0.7896 0.98349 0.0
C746 C 0.4675 0.78409 0.95728 0.0
C747 C 0.4541 0.75473 0.98477 0.0
H748 H 0.4623 0.823 0.93253 0.0
H749 H 0.48918 0.79308 0.93335 0.0
S750 S 0.38061 0.71694 0.07074 0.0
N751 N 0.38306 0.74912 0.04486 0.0
N752 N 0.41194 0.717 0.04652 0.0
C753 C 0.426 0.74409 0.01561 0.0
C754 C 0.41037 0.76147 0.01476 0.0
C755 C 0.27061 0.68698 0.98188 0.0
C756 C 0.25616 0.70362 0.96304 0.0
C757 C 0.2548 0.65462 0.98195 0.0
C758 C 0.22371 0.63725 0.96343 0.0
H759 H 0.29466 0.69898 0.99588 0.0
H760 H 0.26734 0.64315 0.99621 0.0
S761 S 0.17446 0.66923 0.91256 0.0
N762 N 0.20833 0.70017 0.92735 0.0
N763 N 0.17848 0.63896 0.92781 0.0
C764 C 0.20846 0.65338 0.94637 0.0
C765 C 0.2247 0.68662 0.94607 0.0
C766 C 0.3202 0.53782 0.95634 0.0
C767 C 0.30326 0.54882 0.98796 0.0
C768 C 0.35281 0.55503 0.95417 0.0
C769 C 0.36931 0.58371 0.9835 0.0
H770 H 0.30821 0.51688 0.93008 0.0
H771 H 0.36498 0.54677 0.92658 0.0
S772 S 0.33599 0.61939 0.08174 0.0
N773 N 0.3056 0.58772 0.0561 0.0
N774 N 0.36656 0.61993 0.05206 0.0
C775 C 0.35269 0.5935 0.01923 0.0
C776 C 0.31972 0.57607 0.02148 0.0
C777 C 0.46143 0.77991 0.36618 0.0
C778 C 0.44556 0.74836 0.35034 0.0
C779 C 0.4464 0.79746 0.36548 0.0
C780 C 0.41501 0.78408 0.34867 0.0
H781 H 0.48526 0.79084 0.3813 0.0
H782 H 0.45917 0.82134 0.38036 0.0
S783 S 0.3647 0.7036 0.2941 0.0
N784 N 0.39782 0.7054 0.31099 0.0
N785 N 0.36974 0.73825 0.30943 0.0
C786 C 0.3995 0.75302 0.32944 0.0
C787 C 0.41472 0.7352 0.33036 0.0
C788 C 0.26919 0.68884 0.38252 0.0
C789 C 0.25474 0.70554 0.36409 0.0
C790 C 0.25331 0.65647 0.38245 0.0
C791 C 0.22206 0.6392 0.3649 0.0
H792 H 0.29335 0.70082 0.3958 0.0
H793 H 0.26575 0.6449 0.39667 0.0
S794 S 0.173 0.67155 0.31494 0.0
N795 N 0.20712 0.70244 0.32871 0.0
N796 N 0.17682 0.64113 0.33011 0.0
C797 C 0.20694 0.65545 0.34768 0.0
C798 C 0.22341 0.6887 0.34675 0.0
C799 C 0.35068 0.55307 0.37577 0.0
C800 C 0.36708 0.58067 0.34281 0.0
C801 C 0.31811 0.5375 0.37948 0.0
C802 C 0.30108 0.54914 0.3504 0.0
H803 H 0.36312 0.54456 0.4019 0.0
H804 H 0.30641 0.51739 0.40802 0.0
S805 S 0.33273 0.61688 0.24896 0.0
N806 N 0.36358 0.61623 0.27372 0.0
N807 N 0.30266 0.58712 0.28055 0.0
C808 C 0.31711 0.57516 0.31336 0.0
C809 C 0.35005 0.59088 0.30957 0.0
C810 C 0.36583 0.17207 0.20668 0.0
C811 C 0.36828 0.17245 0.14469 0.0
C812 C 0.33682 0.15738 0.23461 0.0
C813 C 0.30946 0.1428 0.20133 0.0
H814 H 0.3865 0.1839 0.23371 0.0
H815 H 0.33575 0.15835 0.28231 0.0
S816 S 0.30317 0.13717 0.03828 0.0
N817 N 0.34092 0.15663 0.05109 0.0
N818 N 0.28623 0.12919 0.10378 0.0
C819 C 0.31151 0.14229 0.13955 0.0
C820 C 0.34105 0.15705 0.11108 0.0
C821 C 0.8591 0.20556 0.14286 0.0
C822 C 0.82691 0.18932 0.1323 0.0
C823 C 0.87421 0.1906 0.1667 0.0
C824 C 0.85761 0.15904 0.18292 0.0
H825 H 0.87281 0.23018 0.13428 0.0
H826 H 0.89911 0.20401 0.17148 0.0
S827 S 0.77285 0.10582 0.16347 0.0
N828 N 0.77911 0.13948 0.13763 0.0
N829 N 0.80701 0.11195 0.18579 0.0
C830 C 0.8254 0.14253 0.17235 0.0
C831 C 0.8102 0.15753 0.14664 0.0
C832 C 0.82706 0.66688 0.10764 0.0
C833 C 0.80936 0.64001 0.14119 0.0
C834 C 0.84272 0.69602 0.13484 0.0
C835 C 0.84101 0.69912 0.19636 0.0
H836 H 0.82956 0.66525 0.06044 0.0
H837 H 0.85673 0.71624 0.10765 0.0
S838 S 0.79719 0.63546 0.30314 0.0
N839 N 0.79052 0.61793 0.23841 0.0
N840 N 0.81985 0.67291 0.28971 0.0
C841 C 0.82261 0.67245 0.23008 0.0
C842 C 0.80683 0.64275 0.20238 0.0
C843 C 0.1558 0.31076 0.85003 0.0
C844 C 0.13853 0.30714 0.79848 0.0
C845 C 0.16896 0.3384 0.88242 0.0
C846 C 0.16505 0.36325 0.86472 0.0
H847 H 0.15977 0.2923 0.86475 0.0
H848 H 0.18316 0.34075 0.9205 0.0
S849 S 0.12322 0.36615 0.7316 0.0
N850 N 0.11891 0.33101 0.73039 0.0
N851 N 0.14352 0.38299 0.79165 0.0
C852 C 0.14734 0.35978 0.81398 0.0
C853 C 0.13403 0.33164 0.78076 0.0
C854 C 0.66022 0.81409 0.87819 0.0
C855 C 0.6346 0.80274 0.84014 0.0
C856 C 0.69051 0.8304 0.85577 0.0
C857 C 0.696 0.83521 0.79467 0.0
H858 H 0.65682 0.81167 0.92559 0.0
H859 H 0.7098 0.83994 0.88648 0.0
S860 S 0.63674 0.80769 0.67662 0.0
N861 N 0.61651 0.7958 0.73855 0.0
N862 N 0.67364 0.82592 0.69647 0.0
C863 C 0.67065 0.82261 0.75608 0.0
C864 C 0.63982 0.80651 0.77888 0.0
C865 C 0.16776 0.81775 0.83007 0.0
C866 C 0.19926 0.83454 0.84611 0.0
C867 C 0.1524 0.83265 0.80788 0.0
C868 C 0.1678 0.86506 0.80084 0.0
H869 H 0.15473 0.79271 0.8346 0.0
H870 H 0.12813 0.81854 0.79617 0.0
S871 S 0.25043 0.92006 0.83652 0.0
N872 N 0.2459 0.88544 0.85009 0.0
N873 N 0.21604 0.9138 0.81536 0.0
C874 C 0.19921 0.88233 0.81762 0.0
C875 C 0.21519 0.86698 0.83854 0.0
C876 C 0.97956 0.47591 0.46752 0.0
C877 C 0.97378 0.47398 0.52869 0.0
C878 C 0.00996 0.4909 0.44541 0.0
C879 C 0.03542 0.505 0.48386 0.0
H880 H 0.9604 0.4663 0.43653 0.0
H881 H 0.01353 0.49269 0.39804 0.0
S882 S 0.03269 0.50514 0.64753 0.0
N883 N 0.99587 0.48608 0.62723 0.0
N884 N 0.05313 0.51483 0.58575 0.0
C885 C 0.02996 0.50243 0.54509 0.0
C886 C -0.00095 0.4867 0.56756 0.0
C887 C 0.52709 0.53507 0.46303 0.0
C888 C 0.50129 0.53516 0.48816 0.0
C889 C 0.54252 0.52215 0.49357 0.0
C890 C 0.53261 0.50907 0.55007 0.0
H891 H 0.53443 0.54356 0.41853 0.0
H892 H 0.56113 0.52083 0.47147 0.0
S893 S 0.4688 0.50692 0.63789 0.0
N894 N 0.4685 0.52372 0.57517 0.0
N895 N 0.4972 0.49902 0.6316 0.0
C896 C 0.50783 0.5103 0.57658 0.0
C897 C 0.49226 0.5235 0.54587 0.0
C898 C 0.4664 0.9964 0.45501 0.0
C899 C 0.47344 0.97308 0.46914 0.0
C900 C 0.4797 0.02437 0.48683 0.0
C901 C 0.50015 0.02964 0.53401 0.0
H902 H 0.45192 0.99374 0.41727 0.0
H903 H 0.4755 0.04265 0.472 0.0
S904 S 0.52303 0.97452 0.59284 0.0
N905 N 0.4999 0.95601 0.53675 0.0
N906 N 0.52495 0.00861 0.59603 0.0
C907 C 0.50608 0.00592 0.55029 0.0
C908 C 0.49267 0.97759 0.51802 0.0
C909 C 0.16803 0.98117 0.45953 0.0
C910 C 0.18316 0.01217 0.43952 0.0
C911 C 0.16442 0.97418 0.51999 0.0
C912 C 0.17544 0.99801 0.56223 0.0
H913 H 0.15664 0.96222 0.42837 0.0
H914 H 0.15018 0.95016 0.53336 0.0
S915 S 0.2227 0.08255 0.53336 0.0
N916 N 0.21413 0.06661 0.46706 0.0
N917 N 0.20681 0.0534 0.58069 0.0
C918 C 0.19382 0.02886 0.54299 0.0
C919 C 0.19788 0.03599 0.48149 0.0
C920 C 0.97625 0.16584 0.53223 0.0
C921 C 0.00717 0.1821 0.55248 0.0
C922 C 0.96946 0.1626 0.47171 0.0
C923 C 0.99343 0.17518 0.42967 0.0
H924 H 0.95733 0.15335 0.56311 0.0
H925 H 0.94565 0.14746 0.45803 0.0
S926 S 0.07743 0.22573 0.45939 0.0
N927 N 0.06138 0.21576 0.52552 0.0
N928 N 0.04853 0.20907 0.41179 0.0
C929 C 0.02399 0.19462 0.44927 0.0
C930 C 0.0309 0.1983 0.51083 0.0
C931 C 0.81573 0.84543 0.51742 0.0
C932 C 0.82839 0.8353 0.56171 0.0
C933 C 0.82031 0.84169 0.45755 0.0
C934 C 0.83709 0.82711 0.44007 0.0
H935 H 0.80479 0.85887 0.52883 0.0
H936 H 0.81253 0.85219 0.42481 0.0
S937 S 0.86962 0.79127 0.53944 0.0
N938 N 0.85457 0.80639 0.58447 0.0
N939 N 0.86249 0.79865 0.47191 0.0
C940 C 0.84674 0.8138 0.48395 0.0
C941 C 0.8426 0.81813 0.54488 0.0
C942 C 0.83247 0.31094 0.86067 0.0
C943 C 0.84079 0.3337 0.90466 0.0
C944 C 0.83609 0.31902 0.80066 0.0
C945 C 0.84887 0.35014 0.78266 0.0
H946 H 0.8202 0.28653 0.87229 0.0
H947 H 0.82666 0.30058 0.76813 0.0
S948 S 0.88008 0.41883 0.88079 0.0
N949 N 0.86649 0.38892 0.9264 0.0
N950 N 0.87401 0.40409 0.81351 0.0
C951 C 0.86069 0.37334 0.82617 0.0
C952 C 0.85645 0.36509 0.88729 0.0
C953 C 0.64839 0.50576 0.87537 0.0
C954 C 0.67902 0.5187 0.89634 0.0
C955 C 0.64199 0.50217 0.8148 0.0
C956 C 0.66602 0.51097 0.7734 0.0
H957 H 0.62905 0.49603 0.90602 0.0
H958 H 0.61794 0.48968 0.8009 0.0
S959 S 0.75047 0.55238 0.80498 0.0
N960 N 0.73387 0.54541 0.8707 0.0
N961 N 0.72178 0.53831 0.75667 0.0
C962 C 0.69689 0.52731 0.79348 0.0
C963 C 0.70343 0.53133 0.85515 0.0
C964 C 0.48402 0.18027 0.77539 0.0
C965 C 0.49789 0.16284 0.75759 0.0
C966 C 0.47926 0.18378 0.83535 0.0
C967 C 0.48875 0.17041 0.87934 0.0
H968 H 0.47905 0.19328 0.74309 0.0
H969 H 0.47118 0.19963 0.84732 0.0
S970 S 0.52079 0.11813 0.85622 0.0
N971 N 0.51642 0.12813 0.78888 0.0
N972 N 0.50833 0.1356 0.90147 0.0
C973 C 0.49955 0.15036 0.86205 0.0
C974 C 0.50385 0.14628 0.80107 0.0
C975 C 0.52368 0.69382 0.20661 0.0
C976 C 0.50856 0.66269 0.22589 0.0
C977 C 0.52839 0.7013 0.14625 0.0
C978 C 0.51755 0.67784 0.10321 0.0
H979 H 0.52954 0.71236 0.23804 0.0
H980 H 0.53734 0.72527 0.13328 0.0
S981 S 0.48203 0.59335 0.13051 0.0
N982 N 0.48751 0.60872 0.19715 0.0
N983 N 0.49552 0.6228 0.08383 0.0
C984 C 0.50565 0.647 0.12206 0.0
C985 C 0.50139 0.63941 0.18348 0.0
C986 C 0.35552 0.85878 0.12243 0.0
C987 C 0.32484 0.84048 0.1021 0.0
C988 C 0.36226 0.8626 0.18295 0.0
C989 C 0.33855 0.84769 0.22517 0.0
H990 H 0.37468 0.86803 0.09139 0.0
H991 H 0.3864 0.87459 0.1963 0.0
S992 S 0.25396 0.80286 0.1948 0.0
N993 N 0.27022 0.81187 0.12872 0.0
N994 N 0.28283 0.81861 0.24267 0.0
C995 C 0.30755 0.83246 0.20544 0.0
C996 C 0.30068 0.82898 0.14373 0.0
C997 C 0.16809 0.48242 0.20665 0.0
C998 C 0.15491 0.50036 0.22501 0.0
C999 C 0.17132 0.47783 0.14653 0.0
C1000 C 0.16213 0.49168 0.10289 0.0
H1001 H 0.1783 0.47405 0.23885 0.0
H1002 H 0.18413 0.46631 0.13451 0.0
S1003 S 0.12098 0.5356 0.12778 0.0
N1004 N 0.12806 0.52763 0.19488 0.0
N1005 N 0.13487 0.51972 0.08181 0.0
C1006 C 0.1458 0.50664 0.12067 0.0
C1007 C 0.14198 0.5108 0.18188 0.0
C1008 C 0.18984 0.01424 0.02981 0.0
C1009 C 0.16477 0.01264 0.06144 0.0
C1010 C 0.18851 0.01093 0.96822 0.0
C1011 C 0.1622 0.00626 0.9368 0.0
H1012 H 0.21046 0.01785 0.05292 0.0
H1013 H 0.20807 0.01198 0.94501 0.0
S1014 S 0.0911 0.00166 -0.00099 0.0
N1015 N 0.1136 0.0075 0.05681 0.0
N1016 N 0.1107 0.00031 0.94128 0.0
C1017 C 0.13715 0.00491 0.96791 0.0
C1018 C 0.13854 0.00837 0.03032 0.0
C1019 C 0.00865 0.1877 0.02511 0.0
C1020 C 0.00512 0.16163 0.05593 0.0
C1021 C 0.01202 0.18954 0.96354 0.0
C1022 C 0.01147 0.16515 0.93136 0.0
H1023 H 0.00857 0.2066 0.04875 0.0
H1024 H 0.01458 0.20988 0.94084 0.0
S1025 S 0.00382 0.09244 0.99199 0.0
N1026 N 0.00168 0.11123 0.05031 0.0
N1027 N 0.00863 0.11496 0.93464 0.0
C1028 C 0.00849 0.13924 0.96185 0.0
C1029 C 0.00513 0.1374 0.0243 0.0
C1030 C 0.85306 0.82955 0.96185 0.0
C1031 C 0.83791 0.8447 0.93882 0.0
C1032 C 0.85606 0.82731 0.02283 0.0
C1033 C 0.84266 0.83875 0.06306 0.0
H1034 H 0.86375 0.8204 0.93249 0.0
H1035 H 0.86989 0.81749 0.03836 0.0
S1036 S 0.79832 0.87811 0.02583 0.0
N1037 N 0.80955 0.87159 0.96142 0.0
N1038 N 0.81117 0.86309 0.07578 0.0
C1039 C 0.82566 0.85206 0.04066 0.0
C1040 C 0.82413 0.85597 0.97862 0.0
C1041 C 0.8327 0.35583 0.30527 0.0
C1042 C 0.81678 0.32588 0.28088 0.0
C1043 C 0.83547 0.36026 0.36649 0.0
C1044 C 0.82341 0.33488 0.40567 0.0
H1045 H 0.84268 0.37606 0.27681 0.0
H1046 H 0.84661 0.3838 0.38311 0.0
S1047 S 0.78022 0.25166 0.36435 0.0
N1048 N 0.78769 0.27038 0.30083 0.0
N1049 N 0.79615 0.27873 0.41564 0.0
C1050 C 0.80828 0.30479 0.38183 0.0
C1051 C 0.8043 0.30028 0.31953 0.0
C1052 C 0.66729 0.47597 0.30378 0.0
C1053 C 0.66868 0.5011 0.27286 0.0
C1054 C 0.66483 0.47444 0.36529 0.0
C1055 C 0.66354 0.49792 0.39732 0.0
H1056 H 0.6686 0.45769 0.2803 0.0
H1057 H 0.66376 0.45473 0.38793 0.0
S1058 S 0.66604 0.56822 0.33665 0.0
N1059 N 0.66865 0.54983 0.27806 0.0
N1060 N 0.66339 0.54663 0.39432 0.0
C1061 C 0.66454 0.52293 0.36692 0.0
C1062 C 0.66739 0.52467 0.30433 0.0
C1063 C 0.50578 0.19736 0.29423 0.0
C1064 C 0.51881 0.18513 0.25477 0.0
C1065 C 0.50827 0.19526 0.35541 0.0
C1066 C 0.52495 0.182 0.37958 0.0
H1067 H 0.49387 0.20904 0.27787 0.0
H1068 H 0.49729 0.20441 0.38404 0.0
S1069 S 0.56505 0.14819 0.29558 0.0
N1070 N 0.54835 0.15854 0.24441 0.0
N1071 N 0.55653 0.15829 0.35929 0.0
C1072 C 0.53889 0.17048 0.34072 0.0
C1073 C 0.53508 0.17127 0.27839 0.0
C1074 C 0.49065 0.69372 0.6902 0.0
C1075 C 0.47766 0.66794 0.72856 0.0
C1076 C 0.48858 0.68996 0.62872 0.0
C1077 C 0.47256 0.66029 0.60322 0.0
H1078 H 0.50272 0.71709 0.70772 0.0
H1079 H 0.49997 0.71041 0.60096 0.0
S1080 S 0.43147 0.58532 0.68383 0.0
N1081 N 0.44772 0.6117 0.73626 0.0
N1082 N 0.4405 0.6048 0.62103 0.0
C1083 C 0.4579 0.63439 0.64101 0.0
C1084 C 0.46118 0.63816 0.70356 0.0
C1085 C 0.34232 0.80458 0.697 0.0
C1086 C 0.34741 0.83062 0.72997 0.0
C1087 C 0.34455 0.80595 0.63531 0.0
C1088 C 0.35171 0.83335 0.60476 0.0
H1089 H 0.33585 0.78282 0.71901 0.0
H1090 H 0.34055 0.78542 0.61139 0.0
S1091 S 0.36801 0.90807 0.67132 0.0
N1092 N 0.36098 0.88475 0.72839 0.0
N1093 N 0.36452 0.88722 0.61202 0.0
C1094 C 0.3575 0.85971 0.6374 0.0
C1095 C 0.35544 0.85835 0.7002 0.0
C1096 C 0.20176 0.50741 0.62729 0.0
C1097 C 0.18635 0.52184 0.60234 0.0
C1098 C 0.20449 0.50602 0.68869 0.0
C1099 C 0.19093 0.51802 0.72741 0.0
H1100 H 0.2118 0.4971 0.5992 0.0
H1101 H 0.21738 0.4955 0.70592 0.0
S1102 S 0.14933 0.55946 0.68457 0.0
N1103 N 0.16003 0.55114 0.62135 0.0
N1104 N 0.16146 0.54471 0.73641 0.0
C1105 C 0.17537 0.5324 0.70304 0.0
C1106 C 0.17389 0.53515 0.64062 0.0
loop_
_geom_bond_atom_site_label_1
_geom_bond_atom_site_label_2
_geom_bond_distance
_geom_bond_site_symmetry_2
_ccdc_geom_bond_type
Co0 O3 1.970 . S
Co0 N17 1.989 . S
Co0 O25 1.967 1_565 S
Co0 O32 1.920 . S
Co1 O4 1.966 . S
Co1 N10 2.022 . S
Co1 N18 1.993 . S
Co1 O26 1.941 . S
C2 O3 1.258 1_545 S
C2 O4 1.263 . S
O3 Co0 1.970 . S
O3 C2 1.258 1_565 S
O4 Co1 1.966 . S
O4 C2 1.263 . S
C5 O6 1.235 . S
C5 O32 1.289 . S
O6 C5 1.235 . S
C7 C9 1.400 . S
C7 N10 1.351 . S
C7 C12 1.501 . S
C8 C9 1.387 . S
C8 N11 1.341 . S
C9 C7 1.400 . S
C9 C8 1.387 . S
N10 Co1 2.022 . S
N10 C7 1.351 . S
N10 N11 1.365 . S
N11 C8 1.341 . S
N11 N10 1.365 . S
N11 H31 0.862 . S
C12 C7 1.501 . S
C12 H13 0.961 . S
C12 H14 0.961 . S
C12 H15 0.960 . S
H13 C12 0.961 . S
H14 C12 0.961 . S
H15 C12 0.960 . S
C16 N17 1.342 . S
C16 C20 1.401 . S
C16 C21 1.499 . S
N17 Co0 1.989 . S
N17 C16 1.342 . S
N17 N18 1.388 1_565 S
N18 Co1 1.993 . S
N18 N17 1.388 1_545 S
N18 C19 1.346 . S
C19 N18 1.346 . S
C19 C20 1.396 1_545 S
C19 C29 1.510 . S
C20 C16 1.401 . S
C20 C19 1.396 1_565 S
C21 C16 1.499 . S
C21 H22 0.959 . S
C21 H23 0.960 . S
C21 H24 0.961 . S
H22 C21 0.959 . S
H23 C21 0.960 . S
H24 C21 0.961 . S
O25 Co0 1.967 1_545 S
O25 C33 1.258 . S
O26 Co1 1.941 . S
O26 C33 1.266 . S
H27 C29 0.959 . S
H28 C29 0.961 . S
C29 C19 1.510 . S
C29 H27 0.959 . S
C29 H28 0.961 . S
C29 H30 0.960 . S
H30 C29 0.960 . S
H31 N11 0.862 . S
O32 Co0 1.920 . S
O32 C5 1.289 . S
C33 O25 1.258 . S
C33 O26 1.266 . S
Co34 O37 1.970 . S
Co34 N51 1.989 . S
Co34 O59 1.967 1_455 S
Co34 O66 1.920 . S
Co35 O38 1.966 . S
Co35 N44 2.022 . S
Co35 N52 1.972 1_655 S
Co35 O60 1.941 . S
C36 O37 1.258 . S
C36 O38 1.263 1_455 S
O37 Co34 1.970 . S
O37 C36 1.258 . S
O38 Co35 1.966 . S
O38 C36 1.263 1_655 S
C39 O40 1.235 . S
C39 O66 1.289 . S
O40 C39 1.235 . S
C41 C43 1.400 . S
C41 N44 1.351 . S
C41 C46 1.501 . S
C42 C43 1.387 . S
C42 N45 1.341 . S
C43 C41 1.400 . S
C43 C42 1.387 . S
N44 Co35 2.022 . S
N44 C41 1.351 . S
N44 N45 1.365 . S
N45 C42 1.341 . S
N45 N44 1.365 . S
N45 H65 0.862 . S
C46 C41 1.501 . S
C46 H47 0.961 . S
C46 H48 0.961 . S
C46 H49 0.960 . S
H47 C46 0.961 . S
H48 C46 0.961 . S
H49 C46 0.960 . S
C50 N51 1.342 . S
C50 C54 1.401 . S
C50 C55 1.499 . S
N51 Co34 1.989 . S
N51 C50 1.342 . S
N51 N52 1.421 . S
N52 Co35 1.972 1_455 S
N52 N51 1.421 . S
N52 C53 1.340 . S
C53 N52 1.340 . S
C53 C54 1.396 . S
C53 C63 1.510 1_455 S
C54 C50 1.401 . S
C54 C53 1.396 . S
C55 C50 1.499 . S
C55 H56 0.959 . S
C55 H57 0.960 . S
C55 H58 0.961 . S
H56 C55 0.959 . S
H57 C55 0.960 . S
H58 C55 0.961 . S
O59 Co34 1.967 1_655 S
O59 C67 1.258 . S
O60 Co35 1.941 . S
O60 C67 1.266 . S
H61 C63 0.959 . S
H62 C63 0.961 . S
C63 C53 1.510 1_655 S
C63 H61 0.959 . S
C63 H62 0.961 . S
C63 H64 0.960 . S
H64 C63 0.960 . S
H65 N45 0.862 . S
O66 Co34 1.920 . S
O66 C39 1.289 . S
C67 O59 1.258 . S
C67 O60 1.266 . S
Co68 O71 1.970 . S
Co68 N85 1.989 . S
Co68 O93 1.967 . S
Co68 O100 1.920 . S
Co69 O72 1.966 . S
Co69 N78 2.022 . S
Co69 N86 1.993 . S
Co69 O94 1.941 . S
C70 O71 1.258 . S
C70 O72 1.263 . S
O71 Co68 1.970 . S
O71 C70 1.258 . S
O72 Co69 1.966 . S
O72 C70 1.263 . S
C73 O74 1.235 . S
C73 O100 1.289 . S
O74 C73 1.235 . S
C75 C77 1.400 . S
C75 N78 1.351 . S
C75 C80 1.501 . S
C76 C77 1.387 . S
C76 N79 1.341 . S
C77 C75 1.400 . S
C77 C76 1.387 . S
N78 Co69 2.022 . S
N78 C75 1.351 . S
N78 N79 1.365 . S
N79 C76 1.341 . S
N79 N78 1.365 . S
N79 H99 0.862 . S
C80 C75 1.501 . S
C80 H81 0.961 . S
C80 H82 0.961 . S
C80 H83 0.960 . S
H81 C80 0.961 . S
H82 C80 0.961 . S
H83 C80 0.960 . S
C84 N85 1.342 . S
C84 C88 1.401 . S
C84 C89 1.499 . S
N85 Co68 1.989 . S
N85 C84 1.342 . S
N85 N86 1.388 . S
N86 Co69 1.993 . S
N86 N85 1.388 . S
N86 C87 1.346 . S
C87 N86 1.346 . S
C87 C88 1.396 . S
C87 C97 1.510 . S
C88 C84 1.401 . S
C88 C87 1.396 . S
C89 C84 1.499 . S
C89 H90 0.959 . S
C89 H91 0.960 . S
C89 H92 0.961 . S
H90 C89 0.959 . S
H91 C89 0.960 . S
H92 C89 0.961 . S
O93 Co68 1.967 . S
O93 C101 1.258 . S
O94 Co69 1.941 . S
O94 C101 1.266 . S
H95 C97 0.959 . S
H96 C97 0.961 . S
C97 C87 1.510 . S
C97 H95 0.959 . S
C97 H96 0.961 . S
C97 H98 0.960 . S
H98 C97 0.960 . S
H99 N79 0.862 . S
O100 Co68 1.920 . S
O100 C73 1.289 . S
C101 O93 1.258 . S
C101 O94 1.266 . S
Co102 O105 1.970 . S
Co102 N119 1.989 . S
Co102 O127 1.967 1_655 S
Co102 O134 1.920 . S
Co103 O106 1.966 . S
Co103 N112 2.022 . S
Co103 N120 1.993 . S
Co103 O128 1.941 . S
C104 O105 1.258 1_455 S
C104 O106 1.263 . S
O105 Co102 1.970 . S
O105 C104 1.258 1_655 S
O106 Co103 1.966 . S
O106 C104 1.263 . S
C107 O108 1.235 . S
C107 O134 1.289 . S
O108 C107 1.235 . S
C109 C111 1.400 . S
C109 N112 1.351 . S
C109 C114 1.501 . S
C110 C111 1.387 . S
C110 N113 1.341 . S
C111 C109 1.400 . S
C111 C110 1.387 . S
N112 Co103 2.022 . S
N112 C109 1.351 . S
N112 N113 1.365 . S
N113 C110 1.341 . S
N113 N112 1.365 . S
N113 H133 0.862 . S
C114 C109 1.501 . S
C114 H115 0.961 . S
C114 H116 0.961 . S
C114 H117 0.960 . S
H115 C114 0.961 . S
H116 C114 0.961 . S
H117 C114 0.960 . S
C118 N119 1.342 . S
C118 C122 1.401 . S
C118 C123 1.499 . S
N119 Co102 1.989 . S
N119 C118 1.342 . S
N119 N120 1.388 1_655 S
N120 Co103 1.993 . S
N120 N119 1.388 1_455 S
N120 C121 1.346 . S
C121 N120 1.346 . S
C121 C122 1.396 1_455 S
C121 C131 1.510 . S
C122 C118 1.401 . S
C122 C121 1.396 1_655 S
C123 C118 1.499 . S
C123 H124 0.959 . S
C123 H125 0.960 . S
C123 H126 0.961 . S
H124 C123 0.959 . S
H125 C123 0.960 . S
H126 C123 0.961 . S
O127 Co102 1.967 1_455 S
O127 C135 1.258 . S
O128 Co103 1.941 . S
O128 C135 1.266 . S
H129 C131 0.959 . S
H130 C131 0.961 . S
C131 C121 1.510 . S
C131 H129 0.959 . S
C131 H130 0.961 . S
C131 H132 0.960 . S
H132 C131 0.960 . S
H133 N113 0.862 . S
O134 Co102 1.920 . S
O134 C107 1.289 . S
C135 O127 1.258 . S
C135 O128 1.266 . S
Co136 O139 1.970 . S
Co136 N153 1.989 . S
Co136 O161 1.967 . S
Co136 O168 1.920 . S
Co137 O140 1.966 . S
Co137 N146 2.022 . S
Co137 N154 1.993 . S
Co137 O162 1.941 . S
C138 O139 1.258 . S
C138 O140 1.263 . S
O139 Co136 1.970 . S
O139 C138 1.258 . S
O140 Co137 1.966 . S
O140 C138 1.263 . S
C141 O142 1.235 . S
C141 O168 1.289 . S
O142 C141 1.235 . S
C143 C145 1.400 . S
C143 N146 1.351 . S
C143 C148 1.501 . S
C144 C145 1.387 . S
C144 N147 1.341 . S
C145 C143 1.400 . S
C145 C144 1.387 . S
N146 Co137 2.022 . S
N146 C143 1.351 . S
N146 N147 1.365 . S
N147 C144 1.341 . S
N147 N146 1.365 . S
N147 H167 0.862 . S
C148 C143 1.501 . S
C148 H149 0.961 . S
C148 H150 0.961 . S
C148 H151 0.960 . S
H149 C148 0.961 . S
H150 C148 0.961 . S
H151 C148 0.960 . S
C152 N153 1.342 . S
C152 C156 1.401 . S
C152 C157 1.499 . S
N153 Co136 1.989 . S
N153 C152 1.342 . S
N153 N154 1.388 . S
N154 Co137 1.993 . S
N154 N153 1.388 . S
N154 C155 1.346 . S
C155 N154 1.346 . S
C155 C156 1.396 . S
C155 C165 1.510 . S
C156 C152 1.401 . S
C156 C155 1.396 . S
C157 C152 1.499 . S
C157 H158 0.959 . S
C157 H159 0.960 . S
C157 H160 0.961 . S
H158 C157 0.959 . S
H159 C157 0.960 . S
H160 C157 0.961 . S
O161 Co136 1.967 . S
O161 C169 1.258 . S
O162 Co137 1.941 . S
O162 C169 1.266 . S
H163 C165 0.959 . S
H164 C165 0.961 . S
C165 C155 1.510 . S
C165 H163 0.959 . S
C165 H164 0.961 . S
C165 H166 0.960 . S
H166 C165 0.960 . S
H167 N147 0.862 . S
O168 Co136 1.920 . S
O168 C141 1.289 . S
C169 O161 1.258 . S
C169 O162 1.266 . S
Co170 O173 1.970 . S
Co170 N187 1.989 . S
Co170 O195 1.967 1_545 S
Co170 O202 1.920 . S
Co171 O174 1.966 . S
Co171 N180 2.022 . S
Co171 N188 1.972 1_565 S
Co171 O196 1.941 . S
C172 O173 1.258 . S
C172 O174 1.263 1_545 S
O173 Co170 1.970 . S
O173 C172 1.258 . S
O174 Co171 1.966 . S
O174 C172 1.263 1_565 S
C175 O176 1.235 . S
C175 O202 1.289 . S
O176 C175 1.235 . S
C177 C179 1.400 . S
C177 N180 1.351 . S
C177 C182 1.501 . S
C178 C179 1.387 . S
C178 N181 1.341 . S
C179 C177 1.400 . S
C179 C178 1.387 . S
N180 Co171 2.022 . S
N180 C177 1.351 . S
N180 N181 1.365 . S
N181 C178 1.341 . S
N181 N180 1.365 . S
N181 H201 0.862 . S
C182 C177 1.501 . S
C182 H183 0.961 . S
C182 H184 0.961 . S
C182 H185 0.960 . S
H183 C182 0.961 . S
H184 C182 0.961 . S
H185 C182 0.960 . S
C186 N187 1.342 . S
C186 C190 1.401 . S
C186 C191 1.499 . S
N187 Co170 1.989 . S
N187 C186 1.342 . S
N187 N188 1.421 . S
N188 Co171 1.972 1_545 S
N188 N187 1.421 . S
N188 C189 1.340 . S
C189 N188 1.340 . S
C189 C190 1.396 . S
C189 C199 1.510 1_545 S
C190 C186 1.401 . S
C190 C189 1.396 . S
C191 C186 1.499 . S
C191 H192 0.959 . S
C191 H193 0.960 . S
C191 H194 0.961 . S
H192 C191 0.959 . S
H193 C191 0.960 . S
H194 C191 0.961 . S
O195 Co170 1.967 1_565 S
O195 C203 1.258 . S
O196 Co171 1.941 . S
O196 C203 1.266 . S
H197 C199 0.959 . S
H198 C199 0.961 . S
C199 C189 1.510 1_565 S
C199 H197 0.959 . S
C199 H198 0.961 . S
C199 H200 0.960 . S
H200 C199 0.960 . S
H201 N181 0.862 . S
O202 Co170 1.920 . S
O202 C175 1.289 . S
C203 O195 1.258 . S
C203 O196 1.266 . S
Co204 O207 1.970 . S
Co204 N221 1.989 . S
Co204 O229 1.967 . S
Co204 O236 1.920 . S
Co205 O208 1.966 . S
Co205 N214 2.022 . S
Co205 N222 1.993 . S
Co205 O230 1.941 . S
C206 O207 1.258 . S
C206 O208 1.263 . S
O207 Co204 1.970 . S
O207 C206 1.258 . S
O208 Co205 1.966 . S
O208 C206 1.263 . S
C209 O210 1.235 . S
C209 O236 1.289 . S
O210 C209 1.235 . S
C211 C213 1.400 . S
C211 N214 1.351 . S
C211 C216 1.501 . S
C212 C213 1.387 . S
C212 N215 1.341 . S
C213 C211 1.400 . S
C213 C212 1.387 . S
N214 Co205 2.022 . S
N214 C211 1.351 . S
N214 N215 1.365 . S
N215 C212 1.341 . S
N215 N214 1.365 . S
N215 H235 0.862 . S
C216 C211 1.501 . S
C216 H217 0.961 . S
C216 H218 0.961 . S
C216 H219 0.960 . S
H217 C216 0.961 . S
H218 C216 0.961 . S
H219 C216 0.960 . S
C220 N221 1.342 . S
C220 C224 1.401 . S
C220 C225 1.499 . S
N221 Co204 1.989 . S
N221 C220 1.342 . S
N221 N222 1.388 . S
N222 Co205 1.993 . S
N222 N221 1.388 . S
N222 C223 1.346 . S
C223 N222 1.346 . S
C223 C224 1.396 . S
C223 C233 1.510 . S
C224 C220 1.401 . S
C224 C223 1.396 . S
C225 C220 1.499 . S
C225 H226 0.959 . S
C225 H227 0.960 . S
C225 H228 0.961 . S
H226 C225 0.959 . S
H227 C225 0.960 . S
H228 C225 0.961 . S
O229 Co204 1.967 . S
O229 C237 1.258 . S
O230 Co205 1.941 . S
O230 C237 1.266 . S
H231 C233 0.959 . S
H232 C233 0.961 . S
C233 C223 1.510 . S
C233 H231 0.959 . S
C233 H232 0.961 . S
C233 H234 0.960 . S
H234 C233 0.960 . S
H235 N215 0.862 . S
O236 Co204 1.920 . S
O236 C209 1.289 . S
C237 O229 1.258 . S
C237 O230 1.266 . S
Co238 O241 1.970 . S
Co238 N255 1.989 . S
Co238 O263 1.967 . S
Co238 O270 1.920 . S
Co239 O242 1.966 . S
Co239 N248 2.022 . S
Co239 N256 1.993 . S
Co239 O264 1.941 . S
C240 O241 1.258 . S
C240 O242 1.263 . S
O241 Co238 1.970 . S
O241 C240 1.258 . S
O242 Co239 1.966 . S
O242 C240 1.263 . S
C243 O244 1.235 . S
C243 O270 1.289 . S
O244 C243 1.235 . S
C245 C247 1.400 . S
C245 N248 1.351 . S
C245 C250 1.501 . S
C246 C247 1.387 . S
C246 N249 1.341 . S
C247 C245 1.400 . S
C247 C246 1.387 . S
N248 Co239 2.022 . S
N248 C245 1.351 . S
N248 N249 1.365 . S
N249 C246 1.341 . S
N249 N248 1.365 . S
N249 H269 0.862 . S
C250 C245 1.501 . S
C250 H251 0.961 . S
C250 H252 0.961 . S
C250 H253 0.960 . S
H251 C250 0.961 . S
H252 C250 0.961 . S
H253 C250 0.960 . S
C254 N255 1.342 . S
C254 C258 1.401 . S
C254 C259 1.499 . S
N255 Co238 1.989 . S
N255 C254 1.342 . S
N255 N256 1.388 . S
N256 Co239 1.993 . S
N256 N255 1.388 . S
N256 C257 1.346 . S
C257 N256 1.346 . S
C257 C258 1.396 . S
C257 C267 1.510 . S
C258 C254 1.401 . S
C258 C257 1.396 . S
C259 C254 1.499 . S
C259 H260 0.959 . S
C259 H261 0.960 . S
C259 H262 0.961 . S
H260 C259 0.959 . S
H261 C259 0.960 . S
H262 C259 0.961 . S
O263 Co238 1.967 . S
O263 C271 1.258 . S
O264 Co239 1.941 . S
O264 C271 1.266 . S
H265 C267 0.959 . S
H266 C267 0.961 . S
C267 C257 1.510 . S
C267 H265 0.959 . S
C267 H266 0.961 . S
C267 H268 0.960 . S
H268 C267 0.960 . S
H269 N249 0.862 . S
O270 Co238 1.920 . S
O270 C243 1.289 . S
C271 O263 1.258 . S
C271 O264 1.266 . S
Co272 O275 1.970 . S
Co272 N289 1.989 . S
Co272 O297 1.967 . S
Co272 O304 1.920 . S
Co273 O276 1.966 . S
Co273 N282 2.022 . S
Co273 N290 1.993 . S
Co273 O298 1.941 . S
C274 O275 1.258 . S
C274 O276 1.263 . S
O275 Co272 1.970 . S
O275 C274 1.258 . S
O276 Co273 1.966 . S
O276 C274 1.263 . S
C277 O278 1.235 . S
C277 O304 1.289 . S
O278 C277 1.235 . S
C279 C281 1.400 . S
C279 N282 1.351 . S
C279 C284 1.501 . S
C280 C281 1.387 . S
C280 N283 1.341 . S
C281 C279 1.400 . S
C281 C280 1.387 . S
N282 Co273 2.022 . S
N282 C279 1.351 . S
N282 N283 1.365 . S
N283 C280 1.341 . S
N283 N282 1.365 . S
N283 H303 0.862 . S
C284 C279 1.501 . S
C284 H285 0.961 . S
C284 H286 0.961 . S
C284 H287 0.960 . S
H285 C284 0.961 . S
H286 C284 0.961 . S
H287 C284 0.960 . S
C288 N289 1.342 . S
C288 C292 1.401 . S
C288 C293 1.499 . S
N289 Co272 1.989 . S
N289 C288 1.342 . S
N289 N290 1.388 . S
N290 Co273 1.993 . S
N290 N289 1.388 . S
N290 C291 1.346 . S
C291 N290 1.346 . S
C291 C292 1.396 . S
C291 C301 1.510 . S
C292 C288 1.401 . S
C292 C291 1.396 . S
C293 C288 1.499 . S
C293 H294 0.959 . S
C293 H295 0.960 . S
C293 H296 0.961 . S
H294 C293 0.959 . S
H295 C293 0.960 . S
H296 C293 0.961 . S
O297 Co272 1.967 . S
O297 C305 1.258 . S
O298 Co273 1.941 . S
O298 C305 1.266 . S
H299 C301 0.959 . S
H300 C301 0.961 . S
C301 C291 1.510 . S
C301 H299 0.959 . S
C301 H300 0.961 . S
C301 H302 0.960 . S
H302 C301 0.960 . S
H303 N283 0.862 . S
O304 Co272 1.920 . S
O304 C277 1.289 . S
C305 O297 1.258 . S
C305 O298 1.266 . S
Co306 O309 1.970 1_554 S
Co306 N323 1.989 . S
Co306 O331 1.967 . S
Co306 O338 1.920 . S
Co307 O310 1.966 1_554 S
Co307 N316 2.022 . S
Co307 N324 1.993 . S
Co307 O332 1.941 . S
C308 O309 1.258 . S
C308 O310 1.263 . S
O309 Co306 1.970 1_556 S
O309 C308 1.258 . S
O310 Co307 1.966 1_556 S
O310 C308 1.263 . S
C311 O312 1.235 . S
C311 O338 1.289 . S
O312 C311 1.235 . S
C313 C315 1.400 . S
C313 N316 1.351 . S
C313 C318 1.501 . S
C314 C315 1.387 . S
C314 N317 1.341 . S
C315 C313 1.400 . S
C315 C314 1.387 . S
N316 Co307 2.022 . S
N316 C313 1.351 . S
N316 N317 1.365 . S
N317 C314 1.341 . S
N317 N316 1.365 . S
N317 H337 0.862 . S
C318 C313 1.501 . S
C318 H319 0.961 1_554 S
C318 H320 0.961 . S
C318 H321 0.960 1_554 S
H319 C318 0.961 1_556 S
H320 C318 0.961 . S
H321 C318 0.960 1_556 S
C322 N323 1.342 . S
C322 C326 1.401 . S
C322 C327 1.499 . S
N323 Co306 1.989 . S
N323 C322 1.342 . S
N323 N324 1.388 . S
N324 Co307 1.993 . S
N324 N323 1.388 . S
N324 C325 1.346 . S
C325 N324 1.346 . S
C325 C326 1.396 . S
C325 C335 1.510 . S
C326 C322 1.401 . S
C326 C325 1.396 . S
C327 C322 1.499 . S
C327 H328 0.959 . S
C327 H329 0.960 . S
C327 H330 0.961 . S
H328 C327 0.959 . S
H329 C327 0.960 . S
H330 C327 0.961 . S
O331 Co306 1.967 . S
O331 C339 1.258 . S
O332 Co307 1.941 . S
O332 C339 1.266 . S
H333 C335 0.959 . S
H334 C335 0.961 . S
C335 C325 1.510 . S
C335 H333 0.959 . S
C335 H334 0.961 . S
C335 H336 0.960 . S
H336 C335 0.960 . S
H337 N317 0.862 . S
O338 Co306 1.920 . S
O338 C311 1.289 . S
C339 O331 1.258 . S
C339 O332 1.266 . S
Co340 O343 1.970 1_554 S
Co340 N357 1.989 . S
Co340 O365 1.967 . S
Co340 O372 1.920 . S
Co341 O344 1.966 1_554 S
Co341 N350 2.022 . S
Co341 N358 1.993 . S
Co341 O366 1.941 . S
C342 O343 1.258 . S
C342 O344 1.263 . S
O343 Co340 1.970 1_556 S
O343 C342 1.258 . S
O344 Co341 1.966 1_556 S
O344 C342 1.263 . S
C345 O346 1.235 . S
C345 O372 1.289 . S
O346 C345 1.235 . S
C347 C349 1.400 . S
C347 N350 1.351 . S
C347 C352 1.501 . S
C348 C349 1.387 . S
C348 N351 1.341 . S
C349 C347 1.400 . S
C349 C348 1.387 . S
N350 Co341 2.022 . S
N350 C347 1.351 . S
N350 N351 1.365 . S
N351 C348 1.341 . S
N351 N350 1.365 . S
N351 H371 0.862 . S
C352 C347 1.501 . S
C352 H353 0.961 1_554 S
C352 H354 0.961 . S
C352 H355 0.960 1_554 S
H353 C352 0.961 1_556 S
H354 C352 0.961 . S
H355 C352 0.960 1_556 S
C356 N357 1.342 . S
C356 C360 1.401 . S
C356 C361 1.499 . S
N357 Co340 1.989 . S
N357 C356 1.342 . S
N357 N358 1.388 . S
N358 Co341 1.993 . S
N358 N357 1.388 . S
N358 C359 1.346 . S
C359 N358 1.346 . S
C359 C360 1.396 . S
C359 C369 1.510 . S
C360 C356 1.401 . S
C360 C359 1.396 . S
C361 C356 1.499 . S
C361 H362 0.959 . S
C361 H363 0.960 . S
C361 H364 0.961 . S
H362 C361 0.959 . S
H363 C361 0.960 . S
H364 C361 0.961 . S
O365 Co340 1.967 . S
O365 C373 1.258 . S
O366 Co341 1.941 . S
O366 C373 1.266 . S
H367 C369 0.959 . S
H368 C369 0.961 . S
C369 C359 1.510 . S
C369 H367 0.959 . S
C369 H368 0.961 . S
C369 H370 0.960 . S
H370 C369 0.960 . S
H371 N351 0.862 . S
O372 Co340 1.920 . S
O372 C345 1.289 . S
C373 O365 1.258 . S
C373 O366 1.266 . S
Co374 O377 1.970 1_554 S
Co374 N391 1.989 . S
Co374 O399 1.967 . S
Co374 O406 1.920 . S
Co375 O378 1.966 1_554 S
Co375 N384 2.022 . S
Co375 N392 1.993 . S
Co375 O400 1.941 . S
C376 O377 1.258 . S
C376 O378 1.263 . S
O377 Co374 1.970 1_556 S
O377 C376 1.258 . S
O378 Co375 1.966 1_556 S
O378 C376 1.263 . S
C379 O380 1.235 . S
C379 O406 1.289 . S
O380 C379 1.235 . S
C381 C383 1.400 . S
C381 N384 1.351 . S
C381 C386 1.501 . S
C382 C383 1.387 . S
C382 N385 1.341 . S
C383 C381 1.400 . S
C383 C382 1.387 . S
N384 Co375 2.022 . S
N384 C381 1.351 . S
N384 N385 1.365 . S
N385 C382 1.341 . S
N385 N384 1.365 . S
N385 H405 0.862 . S
C386 C381 1.501 . S
C386 H387 0.961 1_554 S
C386 H388 0.961 . S
C386 H389 0.960 1_554 S
H387 C386 0.961 1_556 S
H388 C386 0.961 . S
H389 C386 0.960 1_556 S
C390 N391 1.342 . S
C390 C394 1.401 . S
C390 C395 1.499 . S
N391 Co374 1.989 . S
N391 C390 1.342 . S
N391 N392 1.388 . S
N392 Co375 1.993 . S
N392 N391 1.388 . S
N392 C393 1.346 . S
C393 N392 1.346 . S
C393 C394 1.396 . S
C393 C403 1.510 . S
C394 C390 1.401 . S
C394 C393 1.396 . S
C395 C390 1.499 . S
C395 H396 0.959 . S
C395 H397 0.960 . S
C395 H398 0.961 . S
H396 C395 0.959 . S
H397 C395 0.960 . S
H398 C395 0.961 . S
O399 Co374 1.967 . S
O399 C407 1.258 . S
O400 Co375 1.941 . S
O400 C407 1.266 . S
H401 C403 0.959 . S
H402 C403 0.961 . S
C403 C393 1.510 . S
C403 H401 0.959 . S
C403 H402 0.961 . S
C403 H404 0.960 . S
H404 C403 0.960 . S
H405 N385 0.862 . S
O406 Co374 1.920 . S
O406 C379 1.289 . S
C407 O399 1.258 . S
C407 O400 1.266 . S
Co408 O411 1.970 1_556 S
Co408 N425 1.989 . S
Co408 O433 1.967 . S
Co408 O440 1.920 . S
Co409 O412 1.966 1_556 S
Co409 N418 2.022 . S
Co409 N426 1.993 . S
Co409 O434 1.941 . S
C410 O411 1.258 . S
C410 O412 1.263 . S
O411 Co408 1.970 1_554 S
O411 C410 1.258 . S
O412 Co409 1.966 1_554 S
O412 C410 1.263 . S
C413 O414 1.235 . S
C413 O440 1.289 . S
O414 C413 1.235 . S
C415 C417 1.400 . S
C415 N418 1.351 . S
C415 C420 1.501 . S
C416 C417 1.387 . S
C416 N419 1.341 . S
C417 C415 1.400 . S
C417 C416 1.387 . S
N418 Co409 2.022 . S
N418 C415 1.351 . S
N418 N419 1.365 . S
N419 C416 1.341 . S
N419 N418 1.365 . S
N419 H439 0.862 . S
C420 C415 1.501 . S
C420 H421 0.961 1_556 S
C420 H422 0.961 . S
C420 H423 0.960 1_556 S
H421 C420 0.961 1_554 S
H422 C420 0.961 . S
H423 C420 0.960 1_554 S
C424 N425 1.342 . S
C424 C428 1.401 . S
C424 C429 1.499 . S
N425 Co408 1.989 . S
N425 C424 1.342 . S
N425 N426 1.388 . S
N426 Co409 1.993 . S
N426 N425 1.388 . S
N426 C427 1.346 . S
C427 N426 1.346 . S
C427 C428 1.396 . S
C427 C437 1.510 . S
C428 C424 1.401 . S
C428 C427 1.396 . S
C429 C424 1.499 . S
C429 H430 0.959 . S
C429 H431 0.960 . S
C429 H432 0.961 . S
H430 C429 0.959 . S
H431 C429 0.960 . S
H432 C429 0.961 . S
O433 Co408 1.967 . S
O433 C441 1.258 . S
O434 Co409 1.941 . S
O434 C441 1.266 . S
H435 C437 0.959 . S
H436 C437 0.961 . S
C437 C427 1.510 . S
C437 H435 0.959 . S
C437 H436 0.961 . S
C437 H438 0.960 . S
H438 C437 0.960 . S
H439 N419 0.862 . S
O440 Co408 1.920 . S
O440 C413 1.289 . S
C441 O433 1.258 . S
C441 O434 1.266 . S
Co442 O445 1.970 1_556 S
Co442 N459 1.989 . S
Co442 O467 1.967 . S
Co442 O474 1.920 . S
Co443 O446 1.966 1_556 S
Co443 N452 2.022 . S
Co443 N460 1.993 . S
Co443 O468 1.941 . S
C444 O445 1.258 . S
C444 O446 1.263 . S
O445 Co442 1.970 1_554 S
O445 C444 1.258 . S
O446 Co443 1.966 1_554 S
O446 C444 1.263 . S
C447 O448 1.235 . S
C447 O474 1.289 . S
O448 C447 1.235 . S
C449 C451 1.400 . S
C449 N452 1.351 . S
C449 C454 1.501 . S
C450 C451 1.387 . S
C450 N453 1.341 . S
C451 C449 1.400 . S
C451 C450 1.387 . S
N452 Co443 2.022 . S
N452 C449 1.351 . S
N452 N453 1.365 . S
N453 C450 1.341 . S
N453 N452 1.365 . S
N453 H473 0.862 . S
C454 C449 1.501 . S
C454 H455 0.961 1_556 S
C454 H456 0.961 . S
C454 H457 0.960 1_556 S
H455 C454 0.961 1_554 S
H456 C454 0.961 . S
H457 C454 0.960 1_554 S
C458 N459 1.342 . S
C458 C462 1.401 . S
C458 C463 1.499 . S
N459 Co442 1.989 . S
N459 C458 1.342 . S
N459 N460 1.388 . S
N460 Co443 1.993 . S
N460 N459 1.388 . S
N460 C461 1.346 . S
C461 N460 1.346 . S
C461 C462 1.396 . S
C461 C471 1.510 . S
C462 C458 1.401 . S
C462 C461 1.396 . S
C463 C458 1.499 . S
C463 H464 0.959 . S
C463 H465 0.960 . S
C463 H466 0.961 . S
H464 C463 0.959 . S
H465 C463 0.960 . S
H466 C463 0.961 . S
O467 Co442 1.967 . S
O467 C475 1.258 . S
O468 Co443 1.941 . S
O468 C475 1.266 . S
H469 C471 0.959 . S
H470 C471 0.961 . S
C471 C461 1.510 . S
C471 H469 0.959 . S
C471 H470 0.961 . S
C471 H472 0.960 . S
H472 C471 0.960 . S
H473 N453 0.862 . S
O474 Co442 1.920 . S
O474 C447 1.289 . S
C475 O467 1.258 . S
C475 O468 1.266 . S
Co476 O479 1.970 1_556 S
Co476 N493 1.989 . S
Co476 O501 1.967 . S
Co476 O508 1.920 . S
Co477 O480 1.966 1_556 S
Co477 N486 2.022 . S
Co477 N494 1.993 . S
Co477 O502 1.941 . S
C478 O479 1.258 . S
C478 O480 1.263 . S
O479 Co476 1.970 1_554 S
O479 C478 1.258 . S
O480 Co477 1.966 1_554 S
O480 C478 1.263 . S
C481 O482 1.235 . S
C481 O508 1.289 . S
O482 C481 1.235 . S
C483 C485 1.400 . S
C483 N486 1.351 . S
C483 C488 1.501 . S
C484 C485 1.387 . S
C484 N487 1.341 . S
C485 C483 1.400 . S
C485 C484 1.387 . S
N486 Co477 2.022 . S
N486 C483 1.351 . S
N486 N487 1.365 . S
N487 C484 1.341 . S
N487 N486 1.365 . S
N487 H507 0.862 . S
C488 C483 1.501 . S
C488 H489 0.961 1_556 S
C488 H490 0.961 . S
C488 H491 0.960 1_556 S
H489 C488 0.961 1_554 S
H490 C488 0.961 . S
H491 C488 0.960 1_554 S
C492 N493 1.342 . S
C492 C496 1.401 . S
C492 C497 1.499 . S
N493 Co476 1.989 . S
N493 C492 1.342 . S
N493 N494 1.388 . S
N494 Co477 1.993 . S
N494 N493 1.388 . S
N494 C495 1.346 . S
C495 N494 1.346 . S
C495 C496 1.396 . S
C495 C505 1.510 . S
C496 C492 1.401 . S
C496 C495 1.396 . S
C497 C492 1.499 . S
C497 H498 0.959 . S
C497 H499 0.960 . S
C497 H500 0.961 . S
H498 C497 0.959 . S
H499 C497 0.960 . S
H500 C497 0.961 . S
O501 Co476 1.967 . S
O501 C509 1.258 . S
O502 Co477 1.941 . S
O502 C509 1.266 . S
H503 C505 0.959 . S
H504 C505 0.961 . S
C505 C495 1.510 . S
C505 H503 0.959 . S
C505 H504 0.961 . S
C505 H506 0.960 . S
H506 C505 0.960 . S
H507 N487 0.862 . S
O508 Co476 1.920 . S
O508 C481 1.289 . S
C509 O501 1.258 . S
C509 O502 1.266 . S
Co510 O513 1.970 . S
Co510 N527 1.989 . S
Co510 O535 1.967 . S
Co510 O542 1.920 . S
Co511 O514 1.966 . S
Co511 N520 2.022 . S
Co511 N528 1.993 . S
Co511 O536 1.941 . S
C512 O513 1.258 . S
C512 O514 1.263 . S
O513 Co510 1.970 . S
O513 C512 1.258 . S
O514 Co511 1.966 . S
O514 C512 1.263 . S
C515 O516 1.235 . S
C515 O542 1.289 . S
O516 C515 1.235 . S
C517 C519 1.400 . S
C517 N520 1.351 . S
C517 C522 1.501 . S
C518 C519 1.387 . S
C518 N521 1.341 . S
C519 C517 1.400 . S
C519 C518 1.387 . S
N520 Co511 2.022 . S
N520 C517 1.351 . S
N520 N521 1.365 . S
N521 C518 1.341 . S
N521 N520 1.365 . S
N521 H541 0.862 . S
C522 C517 1.501 . S
C522 H523 0.961 . S
C522 H524 0.961 . S
C522 H525 0.960 . S
H523 C522 0.961 . S
H524 C522 0.961 . S
H525 C522 0.960 . S
C526 N527 1.342 . S
C526 C530 1.401 . S
C526 C531 1.499 . S
N527 Co510 1.989 . S
N527 C526 1.342 . S
N527 N528 1.388 . S
N528 Co511 1.993 . S
N528 N527 1.388 . S
N528 C529 1.346 . S
C529 N528 1.346 . S
C529 C530 1.396 . S
C529 C539 1.510 . S
C530 C526 1.401 . S
C530 C529 1.396 . S
C531 C526 1.499 . S
C531 H532 0.959 . S
C531 H533 0.960 . S
C531 H534 0.961 . S
H532 C531 0.959 . S
H533 C531 0.960 . S
H534 C531 0.961 . S
O535 Co510 1.967 . S
O535 C543 1.258 . S
O536 Co511 1.941 . S
O536 C543 1.266 . S
H537 C539 0.959 . S
H538 C539 0.961 . S
C539 C529 1.510 . S
C539 H537 0.959 . S
C539 H538 0.961 . S
C539 H540 0.960 . S
H540 C539 0.960 . S
H541 N521 0.862 . S
O542 Co510 1.920 . S
O542 C515 1.289 . S
C543 O535 1.258 . S
C543 O536 1.266 . S
Co544 O547 1.970 . S
Co544 N561 1.989 . S
Co544 O569 1.967 . S
Co544 O576 1.920 . S
Co545 O548 1.966 . S
Co545 N554 2.022 . S
Co545 N562 1.993 . S
Co545 O570 1.941 . S
C546 O547 1.258 . S
C546 O548 1.263 . S
O547 Co544 1.970 . S
O547 C546 1.258 . S
O548 Co545 1.966 . S
O548 C546 1.263 . S
C549 O550 1.235 . S
C549 O576 1.289 . S
O550 C549 1.235 . S
C551 C553 1.400 . S
C551 N554 1.351 . S
C551 C556 1.501 . S
C552 C553 1.387 . S
C552 N555 1.341 . S
C553 C551 1.400 . S
C553 C552 1.387 . S
N554 Co545 2.022 . S
N554 C551 1.351 . S
N554 N555 1.365 . S
N555 C552 1.341 . S
N555 N554 1.365 . S
N555 H575 0.862 . S
C556 C551 1.501 . S
C556 H557 0.961 . S
C556 H558 0.961 . S
C556 H559 0.960 . S
H557 C556 0.961 . S
H558 C556 0.961 . S
H559 C556 0.960 . S
C560 N561 1.342 . S
C560 C564 1.401 . S
C560 C565 1.499 . S
N561 Co544 1.989 . S
N561 C560 1.342 . S
N561 N562 1.388 . S
N562 Co545 1.993 . S
N562 N561 1.388 . S
N562 C563 1.346 . S
C563 N562 1.346 . S
C563 C564 1.396 . S
C563 C573 1.510 . S
C564 C560 1.401 . S
C564 C563 1.396 . S
C565 C560 1.499 . S
C565 H566 0.959 . S
C565 H567 0.960 . S
C565 H568 0.961 . S
H566 C565 0.959 . S
H567 C565 0.960 . S
H568 C565 0.961 . S
O569 Co544 1.967 . S
O569 C577 1.258 . S
O570 Co545 1.941 . S
O570 C577 1.266 . S
H571 C573 0.959 . S
H572 C573 0.961 . S
C573 C563 1.510 . S
C573 H571 0.959 . S
C573 H572 0.961 . S
C573 H574 0.960 . S
H574 C573 0.960 . S
H575 N555 0.862 . S
O576 Co544 1.920 . S
O576 C549 1.289 . S
C577 O569 1.258 . S
C577 O570 1.266 . S
Co578 O581 1.970 . S
Co578 N595 1.989 . S
Co578 O603 1.967 . S
Co578 O610 1.920 . S
Co579 O582 1.966 . S
Co579 N588 2.022 . S
Co579 N596 1.993 . S
Co579 O604 1.941 . S
C580 O581 1.258 . S
C580 O582 1.263 . S
O581 Co578 1.970 . S
O581 C580 1.258 . S
O582 Co579 1.966 . S
O582 C580 1.263 . S
C583 O584 1.235 . S
C583 O610 1.289 . S
O584 C583 1.235 . S
C585 C587 1.400 . S
C585 N588 1.351 . S
C585 C590 1.501 . S
C586 C587 1.387 . S
C586 N589 1.341 . S
C587 C585 1.400 . S
C587 C586 1.387 . S
N588 Co579 2.022 . S
N588 C585 1.351 . S
N588 N589 1.365 . S
N589 C586 1.341 . S
N589 N588 1.365 . S
N589 H609 0.862 . S
C590 C585 1.501 . S
C590 H591 0.961 . S
C590 H592 0.961 . S
C590 H593 0.960 . S
H591 C590 0.961 . S
H592 C590 0.961 . S
H593 C590 0.960 . S
C594 N595 1.342 . S
C594 C598 1.401 . S
C594 C599 1.499 . S
N595 Co578 1.989 . S
N595 C594 1.342 . S
N595 N596 1.388 . S
N596 Co579 1.993 . S
N596 N595 1.388 . S
N596 C597 1.346 . S
C597 N596 1.346 . S
C597 C598 1.396 . S
C597 C607 1.510 . S
C598 C594 1.401 . S
C598 C597 1.396 . S
C599 C594 1.499 . S
C599 H600 0.959 . S
C599 H601 0.960 . S
C599 H602 0.961 . S
H600 C599 0.959 . S
H601 C599 0.960 . S
H602 C599 0.961 . S
O603 Co578 1.967 . S
O603 C611 1.258 . S
O604 Co579 1.941 . S
O604 C611 1.266 . S
H605 C607 0.959 . S
H606 C607 0.961 . S
C607 C597 1.510 . S
C607 H605 0.959 . S
C607 H606 0.961 . S
C607 H608 0.960 . S
H608 C607 0.960 . S
H609 N589 0.862 . S
O610 Co578 1.920 . S
O610 C583 1.289 . S
C611 O603 1.258 . S
C611 O604 1.266 . S
C612 C613 1.369 . S
C612 C614 1.419 . S
C612 H616 0.930 . S
C613 C612 1.369 . S
C613 C622 1.429 . S
C614 C612 1.419 . S
C614 C615 1.363 . S
C614 H617 0.929 . S
C615 C614 1.363 . S
C615 C621 1.428 . S
H616 C612 0.930 . S
H617 C614 0.929 . S
S618 N619 1.613 . S
S618 N620 1.610 . S
N619 S618 1.613 . S
N619 C622 1.350 . S
N620 S618 1.610 . S
N620 C621 1.351 . S
C621 C615 1.428 . S
C621 N620 1.351 . S
C621 C622 1.434 . S
C622 C613 1.429 . S
C622 N619 1.350 . S
C622 C621 1.434 . S
C623 C624 1.369 1_545 S
C623 C625 1.419 . S
C623 H627 0.930 1_545 S
C624 C623 1.369 1_565 S
C624 C633 1.429 1_565 S
C625 C623 1.419 . S
C625 C626 1.363 . S
C625 H628 0.929 . S
C626 C625 1.363 . S
C626 C632 1.428 . S
H627 C623 0.930 1_565 S
H628 C625 0.929 . S
S629 N630 1.613 1_545 S
S629 N631 1.610 . S
N630 S629 1.613 1_565 S
N630 C633 1.350 1_565 S
N631 S629 1.610 . S
N631 C632 1.351 . S
C632 C626 1.428 . S
C632 N631 1.351 . S
C632 C633 1.434 . S
C633 C624 1.429 1_545 S
C633 N630 1.350 1_545 S
C633 C632 1.434 . S
C634 C635 1.369 . S
C634 C636 1.419 1_655 S
C634 H638 0.930 . S
C635 C634 1.369 . S
C635 C644 1.429 . S
C636 C634 1.419 1_455 S
C636 C637 1.363 . S
C636 H639 0.929 . S
C637 C636 1.363 . S
C637 C643 1.428 . S
H638 C634 0.930 . S
H639 C636 0.929 . S
S640 N641 1.613 . S
S640 N642 1.610 1_655 S
N641 S640 1.613 . S
N641 C644 1.350 . S
N642 S640 1.610 1_455 S
N642 C643 1.351 . S
C643 C637 1.428 . S
C643 N642 1.351 . S
C643 C644 1.434 1_455 S
C644 C635 1.429 . S
C644 N641 1.350 . S
C644 C643 1.434 1_655 S
C645 C646 1.369 . S
C645 C647 1.419 . S
C645 H649 0.930 . S
C646 C645 1.369 . S
C646 C655 1.429 . S
C647 C645 1.419 . S
C647 C648 1.363 . S
C647 H650 0.929 . S
C648 C647 1.363 . S
C648 C654 1.428 . S
H649 C645 0.930 . S
H650 C647 0.929 . S
S651 N652 1.613 . S
S651 N653 1.610 . S
N652 S651 1.613 . S
N652 C655 1.350 . S
N653 S651 1.610 . S
N653 C654 1.351 . S
C654 C648 1.428 . S
C654 N653 1.351 . S
C654 C655 1.434 . S
C655 C646 1.429 . S
C655 N652 1.350 . S
C655 C654 1.434 . S
C656 C657 1.369 . S
C656 C658 1.419 1_545 S
C656 H660 0.930 . S
C657 C656 1.369 . S
C657 C666 1.429 . S
C658 C656 1.419 1_565 S
C658 C659 1.363 . S
C658 H661 0.929 . S
C659 C658 1.363 . S
C659 C665 1.428 . S
H660 C656 0.930 . S
H661 C658 0.929 . S
S662 N663 1.613 1_565 S
S662 N664 1.610 . S
N663 S662 1.613 1_545 S
N663 C666 1.350 . S
N664 S662 1.610 . S
N664 C665 1.351 . S
C665 C659 1.428 . S
C665 N664 1.351 . S
C665 C666 1.434 1_565 S
C666 C657 1.429 . S
C666 N663 1.350 . S
C666 C665 1.434 1_545 S
C667 C668 1.369 . S
C667 C669 1.419 . S
C667 H671 0.930 . S
C668 C667 1.369 . S
C668 C677 1.429 . S
C669 C667 1.419 . S
C669 C670 1.363 1_455 S
C669 H672 0.929 1_455 S
C670 C669 1.363 1_655 S
C670 C676 1.428 1_655 S
H671 C667 0.930 . S
H672 C669 0.929 1_655 S
S673 N674 1.613 . S
S673 N675 1.610 1_455 S
N674 S673 1.613 . S
N674 C677 1.350 . S
N675 S673 1.610 1_655 S
N675 C676 1.351 1_655 S
C676 C670 1.428 1_455 S
C676 N675 1.351 1_455 S
C676 C677 1.434 . S
C677 C668 1.429 . S
C677 N674 1.350 . S
C677 C676 1.434 . S
C678 C679 1.369 . S
C678 C680 1.419 . S
C678 H682 0.930 . S
C679 C678 1.369 . S
C679 C688 1.429 . S
C680 C678 1.419 . S
C680 C681 1.363 . S
C680 H683 0.929 . S
C681 C680 1.363 . S
C681 C687 1.428 . S
H682 C678 0.930 . S
H683 C680 0.929 . S
S684 N685 1.613 . S
S684 N686 1.610 . S
N685 S684 1.613 . S
N685 C688 1.350 . S
N686 S684 1.610 . S
N686 C687 1.351 . S
C687 C681 1.428 . S
C687 N686 1.351 . S
C687 C688 1.434 . S
C688 C679 1.429 . S
C688 N685 1.350 . S
C688 C687 1.434 . S
C689 C690 1.369 . S
C689 C691 1.419 . S
C689 H693 0.930 . S
C690 C689 1.369 . S
C690 C699 1.429 . S
C691 C689 1.419 . S
C691 C692 1.363 . S
C691 H694 0.929 . S
C692 C691 1.363 . S
C692 C698 1.428 . S
H693 C689 0.930 . S
H694 C691 0.929 . S
S695 N696 1.613 . S
S695 N697 1.610 . S
N696 S695 1.613 . S
N696 C699 1.350 . S
N697 S695 1.610 . S
N697 C698 1.351 . S
C698 C692 1.428 . S
C698 N697 1.351 . S
C698 C699 1.434 . S
C699 C690 1.429 . S
C699 N696 1.350 . S
C699 C698 1.434 . S
C700 C701 1.369 . S
C700 C702 1.419 . S
C700 H704 0.930 . S
C701 C700 1.369 . S
C701 C710 1.429 . S
C702 C700 1.419 . S
C702 C703 1.363 . S
C702 H705 0.929 . S
C703 C702 1.363 . S
C703 C709 1.428 . S
H704 C700 0.930 . S
H705 C702 0.929 . S
S706 N707 1.613 . S
S706 N708 1.610 . S
N707 S706 1.613 . S
N707 C710 1.350 . S
N708 S706 1.610 . S
N708 C709 1.351 . S
C709 C703 1.428 . S
C709 N708 1.351 . S
C709 C710 1.434 . S
C710 C701 1.429 . S
C710 N707 1.350 . S
C710 C709 1.434 . S
C711 C712 1.369 . S
C711 C713 1.419 . S
C711 H715 0.930 . S
C712 C711 1.369 . S
C712 C721 1.429 . S
C713 C711 1.419 . S
C713 C714 1.363 . S
C713 H716 0.929 . S
C714 C713 1.363 . S
C714 C720 1.428 . S
H715 C711 0.930 . S
H716 C713 0.929 . S
S717 N718 1.613 . S
S717 N719 1.610 . S
N718 S717 1.613 . S
N718 C721 1.350 . S
N719 S717 1.610 . S
N719 C720 1.351 . S
C720 C714 1.428 . S
C720 N719 1.351 . S
C720 C721 1.434 . S
C721 C712 1.429 . S
C721 N718 1.350 . S
C721 C720 1.434 . S
C722 C723 1.369 . S
C722 C724 1.419 . S
C722 H726 0.930 1_554 S
C723 C722 1.369 . S
C723 C732 1.429 . S
C724 C722 1.419 . S
C724 C725 1.363 . S
C724 H727 0.929 1_554 S
C725 C724 1.363 . S
C725 C731 1.428 . S
H726 C722 0.930 1_556 S
H727 C724 0.929 1_556 S
S728 N729 1.613 . S
S728 N730 1.610 . S
N729 S728 1.613 . S
N729 C732 1.350 . S
N730 S728 1.610 . S
N730 C731 1.351 . S
C731 C725 1.428 . S
C731 N730 1.351 . S
C731 C732 1.434 . S
C732 C723 1.429 . S
C732 N729 1.350 . S
C732 C731 1.434 . S
C733 C734 1.369 . S
C733 C735 1.419 . S
C733 H737 0.930 . S
C734 C733 1.369 . S
C734 C743 1.429 . S
C735 C733 1.419 . S
C735 C736 1.363 . S
C735 H738 0.929 . S
C736 C735 1.363 . S
C736 C742 1.428 . S
H737 C733 0.930 . S
H738 C735 0.929 . S
S739 N740 1.613 . S
S739 N741 1.610 . S
N740 S739 1.613 . S
N740 C743 1.350 . S
N741 S739 1.610 . S
N741 C742 1.351 . S
C742 C736 1.428 . S
C742 N741 1.351 . S
C742 C743 1.434 . S
C743 C734 1.429 . S
C743 N740 1.350 . S
C743 C742 1.434 . S
C744 C745 1.369 . S
C744 C746 1.419 . S
C744 H748 0.930 . S
C745 C744 1.369 . S
C745 C754 1.429 . S
C746 C744 1.419 . S
C746 C747 1.363 . S
C746 H749 0.929 . S
C747 C746 1.363 . S
C747 C753 1.428 . S
H748 C744 0.930 . S
H749 C746 0.929 . S
S750 N751 1.613 . S
S750 N752 1.610 . S
N751 S750 1.613 . S
N751 C754 1.350 1_554 S
N752 S750 1.610 . S
N752 C753 1.351 1_554 S
C753 C747 1.428 . S
C753 N752 1.351 1_556 S
C753 C754 1.434 . S
C754 C745 1.429 . S
C754 N751 1.350 1_556 S
C754 C753 1.434 . S
C755 C756 1.369 . S
C755 C757 1.419 . S
C755 H759 0.930 1_556 S
C756 C755 1.369 . S
C756 C765 1.429 . S
C757 C755 1.419 . S
C757 C758 1.363 . S
C757 H760 0.929 1_556 S
C758 C757 1.363 . S
C758 C764 1.428 . S
H759 C755 0.930 1_554 S
H760 C757 0.929 1_554 S
S761 N762 1.613 . S
S761 N763 1.610 . S
N762 S761 1.613 . S
N762 C765 1.350 . S
N763 S761 1.610 . S
N763 C764 1.351 . S
C764 C758 1.428 . S
C764 N763 1.351 . S
C764 C765 1.434 . S
C765 C756 1.429 . S
C765 N762 1.350 . S
C765 C764 1.434 . S
C766 C767 1.369 . S
C766 C768 1.419 . S
C766 H770 0.930 . S
C767 C766 1.369 . S
C767 C776 1.429 . S
C768 C766 1.419 . S
C768 C769 1.363 . S
C768 H771 0.929 . S
C769 C768 1.363 . S
C769 C775 1.428 . S
H770 C766 0.930 . S
H771 C768 0.929 . S
S772 N773 1.613 . S
S772 N774 1.610 . S
N773 S772 1.613 . S
N773 C776 1.350 1_554 S
N774 S772 1.610 . S
N774 C775 1.351 1_554 S
C775 C769 1.428 . S
C775 N774 1.351 1_556 S
C775 C776 1.434 . S
C776 C767 1.429 . S
C776 N773 1.350 1_556 S
C776 C775 1.434 . S
C777 C778 1.369 . S
C777 C779 1.419 . S
C777 H781 0.930 . S
C778 C777 1.369 . S
C778 C787 1.429 . S
C779 C777 1.419 . S
C779 C780 1.363 . S
C779 H782 0.929 . S
C780 C779 1.363 . S
C780 C786 1.428 . S
H781 C777 0.930 . S
H782 C779 0.929 . S
S783 N784 1.613 . S
S783 N785 1.610 . S
N784 S783 1.613 . S
N784 C787 1.350 . S
N785 S783 1.610 . S
N785 C786 1.351 . S
C786 C780 1.428 . S
C786 N785 1.351 . S
C786 C787 1.434 . S
C787 C778 1.429 . S
C787 N784 1.350 . S
C787 C786 1.434 . S
C788 C789 1.369 . S
C788 C790 1.419 . S
C788 H792 0.930 . S
C789 C788 1.369 . S
C789 C798 1.429 . S
C790 C788 1.419 . S
C790 C791 1.363 . S
C790 H793 0.929 . S
C791 C790 1.363 . S
C791 C797 1.428 . S
H792 C788 0.930 . S
H793 C790 0.929 . S
S794 N795 1.613 . S
S794 N796 1.610 . S
N795 S794 1.613 . S
N795 C798 1.350 . S
N796 S794 1.610 . S
N796 C797 1.351 . S
C797 C791 1.428 . S
C797 N796 1.351 . S
C797 C798 1.434 . S
C798 C789 1.429 . S
C798 N795 1.350 . S
C798 C797 1.434 . S
C799 C800 1.369 . S
C799 C801 1.419 . S
C799 H803 0.930 . S
C800 C799 1.369 . S
C800 C809 1.429 . S
C801 C799 1.419 . S
C801 C802 1.363 . S
C801 H804 0.929 . S
C802 C801 1.363 . S
C802 C808 1.428 . S
H803 C799 0.930 . S
H804 C801 0.929 . S
S805 N806 1.613 . S
S805 N807 1.610 . S
N806 S805 1.613 . S
N806 C809 1.350 . S
N807 S805 1.610 . S
N807 C808 1.351 . S
C808 C802 1.428 . S
C808 N807 1.351 . S
C808 C809 1.434 . S
C809 C800 1.429 . S
C809 N806 1.350 . S
C809 C808 1.434 . S
C810 C811 1.369 . S
C810 C812 1.419 . S
C810 H814 0.930 . S
C811 C810 1.369 . S
C811 C820 1.429 . S
C812 C810 1.419 . S
C812 C813 1.363 . S
C812 H815 0.929 . S
C813 C812 1.363 . S
C813 C819 1.428 . S
H814 C810 0.930 . S
H815 C812 0.929 . S
S816 N817 1.613 . S
S816 N818 1.610 . S
N817 S816 1.613 . S
N817 C820 1.350 . S
N818 S816 1.610 . S
N818 C819 1.351 . S
C819 C813 1.428 . S
C819 N818 1.351 . S
C819 C820 1.434 . S
C820 C811 1.429 . S
C820 N817 1.350 . S
C820 C819 1.434 . S
C821 C822 1.369 . S
C821 C823 1.419 . S
C821 H825 0.930 . S
C822 C821 1.369 . S
C822 C831 1.429 . S
C823 C821 1.419 . S
C823 C824 1.363 . S
C823 H826 0.929 . S
C824 C823 1.363 . S
C824 C830 1.428 . S
H825 C821 0.930 . S
H826 C823 0.929 . S
S827 N828 1.613 . S
S827 N829 1.610 . S
N828 S827 1.613 . S
N828 C831 1.350 . S
N829 S827 1.610 . S
N829 C830 1.351 . S
C830 C824 1.428 . S
C830 N829 1.351 . S
C830 C831 1.434 . S
C831 C822 1.429 . S
C831 N828 1.350 . S
C831 C830 1.434 . S
C832 C833 1.369 . S
C832 C834 1.419 . S
C832 H836 0.930 . S
C833 C832 1.369 . S
C833 C842 1.429 . S
C834 C832 1.419 . S
C834 C835 1.363 . S
C834 H837 0.929 . S
C835 C834 1.363 . S
C835 C841 1.428 . S
H836 C832 0.930 . S
H837 C834 0.929 . S
S838 N839 1.613 . S
S838 N840 1.610 . S
N839 S838 1.613 . S
N839 C842 1.350 . S
N840 S838 1.610 . S
N840 C841 1.351 . S
C841 C835 1.428 . S
C841 N840 1.351 . S
C841 C842 1.434 . S
C842 C833 1.429 . S
C842 N839 1.350 . S
C842 C841 1.434 . S
C843 C844 1.369 . S
C843 C845 1.419 . S
C843 H847 0.930 . S
C844 C843 1.369 . S
C844 C853 1.429 . S
C845 C843 1.419 . S
C845 C846 1.363 . S
C845 H848 0.929 . S
C846 C845 1.363 . S
C846 C852 1.428 . S
H847 C843 0.930 . S
H848 C845 0.929 . S
S849 N850 1.613 . S
S849 N851 1.610 . S
N850 S849 1.613 . S
N850 C853 1.350 . S
N851 S849 1.610 . S
N851 C852 1.351 . S
C852 C846 1.428 . S
C852 N851 1.351 . S
C852 C853 1.434 . S
C853 C844 1.429 . S
C853 N850 1.350 . S
C853 C852 1.434 . S
C854 C855 1.369 . S
C854 C856 1.419 . S
C854 H858 0.930 . S
C855 C854 1.369 . S
C855 C864 1.429 . S
C856 C854 1.419 . S
C856 C857 1.363 . S
C856 H859 0.929 . S
C857 C856 1.363 . S
C857 C863 1.428 . S
H858 C854 0.930 . S
H859 C856 0.929 . S
S860 N861 1.613 . S
S860 N862 1.610 . S
N861 S860 1.613 . S
N861 C864 1.350 . S
N862 S860 1.610 . S
N862 C863 1.351 . S
C863 C857 1.428 . S
C863 N862 1.351 . S
C863 C864 1.434 . S
C864 C855 1.429 . S
C864 N861 1.350 . S
C864 C863 1.434 . S
C865 C866 1.369 . S
C865 C867 1.419 . S
C865 H869 0.930 . S
C866 C865 1.369 . S
C866 C875 1.429 . S
C867 C865 1.419 . S
C867 C868 1.363 . S
C867 H870 0.929 . S
C868 C867 1.363 . S
C868 C874 1.428 . S
H869 C865 0.930 . S
H870 C867 0.929 . S
S871 N872 1.613 . S
S871 N873 1.610 . S
N872 S871 1.613 . S
N872 C875 1.350 . S
N873 S871 1.610 . S
N873 C874 1.351 . S
C874 C868 1.428 . S
C874 N873 1.351 . S
C874 C875 1.434 . S
C875 C866 1.429 . S
C875 N872 1.350 . S
C875 C874 1.434 . S
C876 C877 1.369 . S
C876 C878 1.419 1_655 S
C876 H880 0.930 . S
C877 C876 1.369 . S
C877 C886 1.429 1_655 S
C878 C876 1.419 1_455 S
C878 C879 1.363 . S
C878 H881 0.929 1_455 S
C879 C878 1.363 . S
C879 C885 1.428 . S
H880 C876 0.930 . S
H881 C878 0.929 1_655 S
S882 N883 1.613 . S
S882 N884 1.610 . S
N883 S882 1.613 . S
N883 C886 1.350 . S
N884 S882 1.610 . S
N884 C885 1.351 . S
C885 C879 1.428 . S
C885 N884 1.351 . S
C885 C886 1.434 . S
C886 C877 1.429 1_455 S
C886 N883 1.350 . S
C886 C885 1.434 . S
C887 C888 1.369 . S
C887 C889 1.419 . S
C887 H891 0.930 . S
C888 C887 1.369 . S
C888 C897 1.429 . S
C889 C887 1.419 . S
C889 C890 1.363 . S
C889 H892 0.929 . S
C890 C889 1.363 . S
C890 C896 1.428 . S
H891 C887 0.930 . S
H892 C889 0.929 . S
S893 N894 1.613 . S
S893 N895 1.610 . S
N894 S893 1.613 . S
N894 C897 1.350 . S
N895 S893 1.610 . S
N895 C896 1.351 . S
C896 C890 1.428 . S
C896 N895 1.351 . S
C896 C897 1.434 . S
C897 C888 1.429 . S
C897 N894 1.350 . S
C897 C896 1.434 . S
C898 C899 1.369 1_545 S
C898 C900 1.419 . S
C898 H902 0.930 . S
C899 C898 1.369 1_565 S
C899 C908 1.429 . S
C900 C898 1.419 . S
C900 C901 1.363 . S
C900 H903 0.929 . S
C901 C900 1.363 . S
C901 C907 1.432 . S
H902 C898 0.930 . S
H903 C900 0.929 . S
S904 N905 1.613 . S
S904 N906 1.610 . S
N905 S904 1.613 . S
N905 C908 1.350 . S
N906 S904 1.610 . S
N906 C907 1.350 1_565 S
C907 C901 1.432 . S
C907 N906 1.350 1_545 S
C907 C908 1.431 1_545 S
C908 C899 1.429 . S
C908 N905 1.350 . S
C908 C907 1.431 1_565 S
C909 C910 1.369 1_565 S
C909 C911 1.419 . S
C909 H913 0.930 . S
C910 C909 1.369 1_545 S
C910 C919 1.429 . S
C911 C909 1.419 . S
C911 C912 1.363 1_565 S
C911 H914 0.929 . S
C912 C911 1.363 1_545 S
C912 C918 1.428 . S
H913 C909 0.930 . S
H914 C911 0.929 . S
S915 N916 1.613 . S
S915 N917 1.610 . S
N916 S915 1.613 . S
N916 C919 1.350 . S
N917 S915 1.610 . S
N917 C918 1.351 . S
C918 C912 1.428 . S
C918 N917 1.351 . S
C918 C919 1.434 . S
C919 C910 1.429 . S
C919 N916 1.350 . S
C919 C918 1.434 . S
C920 C921 1.369 1_655 S
C920 C922 1.419 . S
C920 H924 0.930 . S
C921 C920 1.369 1_455 S
C921 C930 1.429 . S
C922 C920 1.419 . S
C922 C923 1.363 1_655 S
C922 H925 0.929 . S
C923 C922 1.363 1_455 S
C923 C929 1.428 . S
H924 C920 0.930 . S
H925 C922 0.929 . S
S926 N927 1.613 . S
S926 N928 1.610 . S
N927 S926 1.613 . S
N927 C930 1.350 . S
N928 S926 1.610 . S
N928 C929 1.351 . S
C929 C923 1.428 . S
C929 N928 1.351 . S
C929 C930 1.434 . S
C930 C921 1.429 . S
C930 N927 1.350 . S
C930 C929 1.434 . S
C931 C932 1.369 . S
C931 C933 1.419 . S
C931 H935 0.930 . S
C932 C931 1.369 . S
C932 C941 1.429 . S
C933 C931 1.419 . S
C933 C934 1.363 . S
C933 H936 0.929 . S
C934 C933 1.363 . S
C934 C940 1.428 . S
H935 C931 0.930 . S
H936 C933 0.929 . S
S937 N938 1.613 . S
S937 N939 1.610 . S
N938 S937 1.613 . S
N938 C941 1.350 . S
N939 S937 1.610 . S
N939 C940 1.351 . S
C940 C934 1.428 . S
C940 N939 1.351 . S
C940 C941 1.434 . S
C941 C932 1.429 . S
C941 N938 1.350 . S
C941 C940 1.434 . S
C942 C943 1.369 . S
C942 C944 1.419 . S
C942 H946 0.930 . S
C943 C942 1.369 . S
C943 C952 1.429 . S
C944 C942 1.419 . S
C944 C945 1.363 . S
C944 H947 0.929 . S
C945 C944 1.363 . S
C945 C951 1.428 . S
H946 C942 0.930 . S
H947 C944 0.929 . S
S948 N949 1.613 . S
S948 N950 1.610 . S
N949 S948 1.613 . S
N949 C952 1.350 . S
N950 S948 1.610 . S
N950 C951 1.351 . S
C951 C945 1.428 . S
C951 N950 1.351 . S
C951 C952 1.434 . S
C952 C943 1.429 . S
C952 N949 1.350 . S
C952 C951 1.434 . S
C953 C954 1.369 . S
C953 C955 1.419 . S
C953 H957 0.930 . S
C954 C953 1.369 . S
C954 C963 1.429 . S
C955 C953 1.419 . S
C955 C956 1.363 . S
C955 H958 0.929 . S
C956 C955 1.363 . S
C956 C962 1.428 . S
H957 C953 0.930 . S
H958 C955 0.929 . S
S959 N960 1.613 . S
S959 N961 1.610 . S
N960 S959 1.613 . S
N960 C963 1.350 . S
N961 S959 1.610 . S
N961 C962 1.351 . S
C962 C956 1.428 . S
C962 N961 1.351 . S
C962 C963 1.434 . S
C963 C954 1.429 . S
C963 N960 1.350 . S
C963 C962 1.434 . S
C964 C965 1.369 . S
C964 C966 1.419 . S
C964 H968 0.930 . S
C965 C964 1.369 . S
C965 C974 1.429 . S
C966 C964 1.419 . S
C966 C967 1.363 . S
C966 H969 0.929 . S
C967 C966 1.363 . S
C967 C973 1.428 . S
H968 C964 0.930 . S
H969 C966 0.929 . S
S970 N971 1.613 . S
S970 N972 1.610 . S
N971 S970 1.613 . S
N971 C974 1.350 . S
N972 S970 1.610 . S
N972 C973 1.351 . S
C973 C967 1.428 . S
C973 N972 1.351 . S
C973 C974 1.434 . S
C974 C965 1.429 . S
C974 N971 1.350 . S
C974 C973 1.434 . S
C975 C976 1.369 . S
C975 C977 1.419 . S
C975 H979 0.930 . S
C976 C975 1.369 . S
C976 C985 1.429 . S
C977 C975 1.419 . S
C977 C978 1.363 . S
C977 H980 0.929 . S
C978 C977 1.363 . S
C978 C984 1.428 . S
H979 C975 0.930 . S
H980 C977 0.929 . S
S981 N982 1.613 . S
S981 N983 1.610 . S
N982 S981 1.613 . S
N982 C985 1.350 . S
N983 S981 1.610 . S
N983 C984 1.351 . S
C984 C978 1.428 . S
C984 N983 1.351 . S
C984 C985 1.434 . S
C985 C976 1.429 . S
C985 N982 1.350 . S
C985 C984 1.434 . S
C986 C987 1.369 . S
C986 C988 1.419 . S
C986 H990 0.930 . S
C987 C986 1.369 . S
C987 C996 1.429 . S
C988 C986 1.419 . S
C988 C989 1.363 . S
C988 H991 0.929 . S
C989 C988 1.363 . S
C989 C995 1.428 . S
H990 C986 0.930 . S
H991 C988 0.929 . S
S992 N993 1.613 . S
S992 N994 1.610 . S
N993 S992 1.613 . S
N993 C996 1.350 . S
N994 S992 1.610 . S
N994 C995 1.351 . S
C995 C989 1.428 . S
C995 N994 1.351 . S
C995 C996 1.434 . S
C996 C987 1.429 . S
C996 N993 1.350 . S
C996 C995 1.434 . S
C997 C998 1.369 . S
C997 C999 1.419 . S
C997 H1001 0.930 . S
C998 C997 1.369 . S
C998 C1007 1.429 . S
C999 C997 1.419 . S
C999 C1000 1.363 . S
C999 H1002 0.929 . S
C1000 C999 1.363 . S
C1000 C1006 1.428 . S
H1001 C997 0.930 . S
H1002 C999 0.929 . S
S1003 N1004 1.613 . S
S1003 N1005 1.610 . S
N1004 S1003 1.613 . S
N1004 C1007 1.350 . S
N1005 S1003 1.610 . S
N1005 C1006 1.351 . S
C1006 C1000 1.428 . S
C1006 N1005 1.351 . S
C1006 C1007 1.434 . S
C1007 C998 1.429 . S
C1007 N1004 1.350 . S
C1007 C1006 1.434 . S
C1008 C1009 1.369 1_545 S
C1008 C1010 1.419 1_554 S
C1008 H1012 0.930 . S
C1009 C1008 1.369 1_565 S
C1009 C1018 1.429 . S
C1010 C1008 1.419 1_556 S
C1010 C1011 1.363 . S
C1010 H1013 0.929 . S
C1011 C1010 1.363 . S
C1011 C1017 1.436 . S
H1012 C1008 0.930 . S
H1013 C1010 0.929 . S
S1014 N1015 1.613 1_556 S
S1014 N1016 1.610 . S
N1015 S1014 1.613 1_554 S
N1015 C1018 1.350 . S
N1016 S1014 1.610 . S
N1016 C1017 1.358 1_565 S
C1017 C1011 1.436 . S
C1017 N1016 1.358 1_545 S
C1017 C1018 1.418 1_546 S
C1018 C1009 1.429 . S
C1018 N1015 1.350 . S
C1018 C1017 1.418 1_564 S
C1019 C1020 1.369 . S
C1019 C1021 1.419 1_454 S
C1019 H1023 0.930 1_455 S
C1020 C1019 1.369 . S
C1020 C1029 1.429 . S
C1021 C1019 1.419 1_656 S
C1021 C1022 1.363 . S
C1021 H1024 0.929 . S
C1022 C1021 1.363 . S
C1022 C1028 1.428 1_655 S
H1023 C1019 0.930 1_655 S
H1024 C1021 0.929 . S
S1025 N1026 1.613 1_556 S
S1025 N1027 1.610 . S
N1026 S1025 1.613 1_554 S
N1026 C1029 1.350 . S
N1027 S1025 1.610 . S
N1027 C1028 1.351 . S
C1028 C1022 1.428 1_455 S
C1028 N1027 1.351 . S
C1028 C1029 1.434 1_556 S
C1029 C1020 1.429 . S
C1029 N1026 1.350 . S
C1029 C1028 1.434 1_554 S
C1030 C1031 1.369 . S
C1030 C1032 1.419 1_556 S
C1030 H1034 0.930 . S
C1031 C1030 1.369 . S
C1031 C1040 1.429 . S
C1032 C1030 1.419 1_554 S
C1032 C1033 1.363 . S
C1032 H1035 0.929 . S
C1033 C1032 1.363 . S
C1033 C1039 1.432 . S
H1034 C1030 0.930 . S
H1035 C1032 0.929 . S
S1036 N1037 1.613 . S
S1036 N1038 1.610 . S
N1037 S1036 1.613 . S
N1037 C1040 1.350 . S
N1038 S1036 1.610 . S
N1038 C1039 1.350 1_556 S
C1039 C1033 1.432 . S
C1039 N1038 1.350 1_554 S
C1039 C1040 1.430 1_554 S
C1040 C1031 1.429 . S
C1040 N1037 1.350 . S
C1040 C1039 1.430 1_556 S
C1041 C1042 1.369 . S
C1041 C1043 1.419 . S
C1041 H1045 0.930 . S
C1042 C1041 1.369 . S
C1042 C1051 1.429 . S
C1043 C1041 1.419 . S
C1043 C1044 1.363 . S
C1043 H1046 0.929 . S
C1044 C1043 1.363 . S
C1044 C1050 1.428 . S
H1045 C1041 0.930 . S
H1046 C1043 0.929 . S
S1047 N1048 1.613 . S
S1047 N1049 1.610 . S
N1048 S1047 1.613 . S
N1048 C1051 1.350 . S
N1049 S1047 1.610 . S
N1049 C1050 1.351 . S
C1050 C1044 1.428 . S
C1050 N1049 1.351 . S
C1050 C1051 1.434 . S
C1051 C1042 1.429 . S
C1051 N1048 1.350 . S
C1051 C1050 1.434 . S
C1052 C1053 1.369 . S
C1052 C1054 1.419 . S
C1052 H1056 0.930 . S
C1053 C1052 1.369 . S
C1053 C1062 1.429 . S
C1054 C1052 1.419 . S
C1054 C1055 1.363 . S
C1054 H1057 0.929 . S
C1055 C1054 1.363 . S
C1055 C1061 1.428 . S
H1056 C1052 0.930 . S
H1057 C1054 0.929 . S
S1058 N1059 1.613 . S
S1058 N1060 1.610 . S
N1059 S1058 1.613 . S
N1059 C1062 1.350 . S
N1060 S1058 1.610 . S
N1060 C1061 1.351 . S
C1061 C1055 1.428 . S
C1061 N1060 1.351 . S
C1061 C1062 1.434 . S
C1062 C1053 1.429 . S
C1062 N1059 1.350 . S
C1062 C1061 1.434 . S
C1063 C1064 1.369 . S
C1063 C1065 1.419 . S
C1063 H1067 0.930 . S
C1064 C1063 1.369 . S
C1064 C1073 1.429 . S
C1065 C1063 1.419 . S
C1065 C1066 1.363 . S
C1065 H1068 0.929 . S
C1066 C1065 1.363 . S
C1066 C1072 1.428 . S
H1067 C1063 0.930 . S
H1068 C1065 0.929 . S
S1069 N1070 1.613 . S
S1069 N1071 1.610 . S
N1070 S1069 1.613 . S
N1070 C1073 1.350 . S
N1071 S1069 1.610 . S
N1071 C1072 1.351 . S
C1072 C1066 1.428 . S
C1072 N1071 1.351 . S
C1072 C1073 1.434 . S
C1073 C1064 1.429 . S
C1073 N1070 1.350 . S
C1073 C1072 1.434 . S
C1074 C1075 1.369 . S
C1074 C1076 1.419 . S
C1074 H1078 0.930 . S
C1075 C1074 1.369 . S
C1075 C1084 1.429 . S
C1076 C1074 1.419 . S
C1076 C1077 1.363 . S
C1076 H1079 0.929 . S
C1077 C1076 1.363 . S
C1077 C1083 1.428 . S
H1078 C1074 0.930 . S
H1079 C1076 0.929 . S
S1080 N1081 1.613 . S
S1080 N1082 1.610 . S
N1081 S1080 1.613 . S
N1081 C1084 1.350 . S
N1082 S1080 1.610 . S
N1082 C1083 1.351 . S
C1083 C1077 1.428 . S
C1083 N1082 1.351 . S
C1083 C1084 1.434 . S
C1084 C1075 1.429 . S
C1084 N1081 1.350 . S
C1084 C1083 1.434 . S
C1085 C1086 1.369 . S
C1085 C1087 1.419 . S
C1085 H1089 0.930 . S
C1086 C1085 1.369 . S
C1086 C1095 1.429 . S
C1087 C1085 1.419 . S
C1087 C1088 1.363 . S
C1087 H1090 0.929 . S
C1088 C1087 1.363 . S
C1088 C1094 1.428 . S
H1089 C1085 0.930 . S
H1090 C1087 0.929 . S
S1091 N1092 1.613 . S
S1091 N1093 1.610 . S
N1092 S1091 1.613 . S
N1092 C1095 1.350 . S
N1093 S1091 1.610 . S
N1093 C1094 1.351 . S
C1094 C1088 1.428 . S
C1094 N1093 1.351 . S
C1094 C1095 1.434 . S
C1095 C1086 1.429 . S
C1095 N1092 1.350 . S
C1095 C1094 1.434 . S
C1096 C1097 1.369 . S
C1096 C1098 1.419 . S
C1096 H1100 0.930 . S
C1097 C1096 1.369 . S
C1097 C1106 1.429 . S
C1098 C1096 1.419 . S
C1098 C1099 1.363 . S
C1098 H1101 0.929 . S
C1099 C1098 1.363 . S
C1099 C1105 1.428 . S
H1100 C1096 0.930 . S
H1101 C1098 0.929 . S
S1102 N1103 1.613 . S
S1102 N1104 1.610 . S
N1103 S1102 1.613 . S
N1103 C1106 1.350 . S
N1104 S1102 1.610 . S
N1104 C1105 1.351 . S
C1105 C1099 1.428 . S
C1105 N1104 1.351 . S
C1105 C1106 1.434 . S
C1106 C1097 1.429 . S
C1106 N1103 1.350 . S
C1106 C1105 1.434 . S
C613 C33 1.300 . S
C615 C39 1.303 . S
C624 C73 1.300 . S
C626 C67 1.298 . S
C635 C101 1.300 . S
C637 C5 1.302 . S
C646 C175 1.299 . S
C648 C135 1.303 . S
C657 C107 1.301 . S
C659 C169 1.298 . S
C668 C203 1.298 . S
C670 C141 1.302 . S
C679 C243 1.302 . S
C681 C237 1.301 . S
C690 C271 1.301 . S
C692 C277 1.302 . S
C701 C305 1.300 . S
C703 C209 1.302 . S
C712 C379 1.299 . S
C714 C339 1.300 . S
C723 C311 1.300 . S
C725 C373 1.298 . S
C734 C407 1.301 . S
C736 C345 1.302 . S
C745 C447 1.300 . S
C747 C441 1.301 . S
C756 C475 1.299 . S
C758 C481 1.302 . S
C767 C509 1.300 . S
C769 C413 1.299 . S
C778 C583 1.300 . S
C780 C543 1.301 . S
C789 C515 1.302 . S
C791 C577 1.300 . S
C800 C611 1.299 . S
C802 C549 1.300 . S
C811 C349 1.630 . S
C813 C9 1.626 . S
C822 C383 1.629 . S
C824 C43 1.624 . S
C833 C315 1.631 . S
C835 C77 1.635 . S
C844 C111 1.632 . S
C846 C485 1.626 . S
C855 C417 1.626 . S
C857 C145 1.635 . S
C866 C451 1.634 . S
C868 C179 1.631 . S
C877 C213 1.632 . S
C879 C553 1.625 . S
C888 C587 1.625 . S
C890 C247 1.634 . S
C899 C519 1.625 . S
C901 C281 1.635 . S
C910 C2 1.609 . S
C912 C172 1.612 . S
C921 C104 1.609 . S
C923 C36 1.612 . S
C932 C138 1.614 . S
C934 C70 1.612 . S
C943 C376 1.613 . S
C945 C206 1.610 . S
C954 C308 1.610 . S
C956 C240 1.613 . S
C965 C274 1.614 . S
C967 C342 1.613 . S
C976 C580 1.608 . S
C978 C410 1.612 . S
C987 C444 1.611 . S
C989 C512 1.614 . S
C998 C546 1.608 . S
C1000 C478 1.612 . S
C1009 C20 1.220 . S
C1011 C190 1.209 . S
C1020 C54 1.220 . S
C1022 C122 1.210 . S
C1031 C156 1.208 . S
C1033 C88 1.220 . S
C1042 C394 1.208 . S
C1044 C224 1.221 . S
C1053 C326 1.211 . S
C1055 C258 1.220 . S
C1064 C360 1.222 . S
C1066 C292 1.210 . S
C1075 C428 1.222 . S
C1077 C598 1.209 . S
C1086 C462 1.218 . S
C1088 C530 1.215 . S
C1097 C564 1.209 . S
C1099 C496 1.217 . S
