# Generated by pormake.
# Topology vbm, (6)-cn, num edge types: 1
# Building blocks:
#     Node 0, Type 0, BuildingBlock: KUMJIN_clean_sbu_1, # of connection points: 6
#     Node 1, Type 0, BuildingBlock: KUMJIN_clean_sbu_1, # of connection points: 6
#     Node 2, Type 0, BuildingBlock: KUMJIN_clean_sbu_1, # of connection points: 6
#     Node 3, Type 0, BuildingBlock: KUMJIN_clean_sbu_1, # of connection points: 6
#     Node 4, Type 0, BuildingBlock: KUMJIN_clean_sbu_1, # of connection points: 6
#     Node 5, Type 0, BuildingBlock: KUMJIN_clean_sbu_1, # of connection points: 6
#     Node 6, Type 0, BuildingBlock: KUMJIN_clean_sbu_1, # of connection points: 6
#     Node 7, Type 0, BuildingBlock: KUMJIN_clean_sbu_1, # of connection points: 6
#     Node 8, Type 0, BuildingBlock: KUMJIN_clean_sbu_1, # of connection points: 6
#     Node 9, Type 0, BuildingBlock: KUMJIN_clean_sbu_1, # of connection points: 6
#     Node 10, Type 0, BuildingBlock: KUMJIN_clean_sbu_1, # of connection points: 6
#     Node 11, Type 0, BuildingBlock: KUMJIN_clean_sbu_1, # of connection points: 6
#     Node 12, Type 0, BuildingBlock: KUMJIN_clean_sbu_1, # of connection points: 6
#     Node 13, Type 0, BuildingBlock: KUMJIN_clean_sbu_1, # of connection points: 6
#     Node 14, Type 0, BuildingBlock: KUMJIN_clean_sbu_1, # of connection points: 6
#     Node 15, Type 0, BuildingBlock: KUMJIN_clean_sbu_1, # of connection points: 6
#     Edge 16, Type (0, 0), BuildingBlock: AJUNOK_clean_linker_0, # of connection points: 2
#     Edge 17, Type (0, 0), BuildingBlock: AJUNOK_clean_linker_0, # of connection points: 2
#     Edge 18, Type (0, 0), BuildingBlock: AJUNOK_clean_linker_0, # of connection points: 2
#     Edge 19, Type (0, 0), BuildingBlock: AJUNOK_clean_linker_0, # of connection points: 2
#     Edge 20, Type (0, 0), BuildingBlock: AJUNOK_clean_linker_0, # of connection points: 2
#     Edge 21, Type (0, 0), BuildingBlock: AJUNOK_clean_linker_0, # of connection points: 2
#     Edge 22, Type (0, 0), BuildingBlock: AJUNOK_clean_linker_0, # of connection points: 2
#     Edge 23, Type (0, 0), BuildingBlock: AJUNOK_clean_linker_0, # of connection points: 2
#     Edge 24, Type (0, 0), BuildingBlock: AJUNOK_clean_linker_0, # of connection points: 2
#     Edge 25, Type (0, 0), BuildingBlock: AJUNOK_clean_linker_0, # of connection points: 2
#     Edge 26, Type (0, 0), BuildingBlock: AJUNOK_clean_linker_0, # of connection points: 2
#     Edge 27, Type (0, 0), BuildingBlock: AJUNOK_clean_linker_0, # of connection points: 2
#     Edge 28, Type (0, 0), BuildingBlock: AJUNOK_clean_linker_0, # of connection points: 2
#     Edge 29, Type (0, 0), BuildingBlock: AJUNOK_clean_linker_0, # of connection points: 2
#     Edge 30, Type (0, 0), BuildingBlock: AJUNOK_clean_linker_0, # of connection points: 2
#     Edge 31, Type (0, 0), BuildingBlock: AJUNOK_clean_linker_0, # of connection points: 2
#     Edge 32, Type (0, 0), BuildingBlock: AJUNOK_clean_linker_0, # of connection points: 2
#     Edge 33, Type (0, 0), BuildingBlock: AJUNOK_clean_linker_0, # of connection points: 2
#     Edge 34, Type (0, 0), BuildingBlock: AJUNOK_clean_linker_0, # of connection points: 2
#     Edge 35, Type (0, 0), BuildingBlock: AJUNOK_clean_linker_0, # of connection points: 2
#     Edge 36, Type (0, 0), BuildingBlock: AJUNOK_clean_linker_0, # of connection points: 2
#     Edge 37, Type (0, 0), BuildingBlock: AJUNOK_clean_linker_0, # of connection points: 2
#     Edge 38, Type (0, 0), BuildingBlock: AJUNOK_clean_linker_0, # of connection points: 2
#     Edge 39, Type (0, 0), BuildingBlock: AJUNOK_clean_linker_0, # of connection points: 2
#     Edge 40, Type (0, 0), BuildingBlock: AJUNOK_clean_linker_0, # of connection points: 2
#     Edge 41, Type (0, 0), BuildingBlock: AJUNOK_clean_linker_0, # of connection points: 2
#     Edge 42, Type (0, 0), BuildingBlock: AJUNOK_clean_linker_0, # of connection points: 2
#     Edge 43, Type (0, 0), BuildingBlock: AJUNOK_clean_linker_0, # of connection points: 2
#     Edge 44, Type (0, 0), BuildingBlock: AJUNOK_clean_linker_0, # of connection points: 2
#     Edge 45, Type (0, 0), BuildingBlock: AJUNOK_clean_linker_0, # of connection points: 2
#     Edge 46, Type (0, 0), BuildingBlock: AJUNOK_clean_linker_0, # of connection points: 2
#     Edge 47, Type (0, 0), BuildingBlock: AJUNOK_clean_linker_0, # of connection points: 2
#     Edge 48, Type (0, 0), BuildingBlock: AJUNOK_clean_linker_0, # of connection points: 2
#     Edge 49, Type (0, 0), BuildingBlock: AJUNOK_clean_linker_0, # of connection points: 2
#     Edge 50, Type (0, 0), BuildingBlock: AJUNOK_clean_linker_0, # of connection points: 2
#     Edge 51, Type (0, 0), BuildingBlock: AJUNOK_clean_linker_0, # of connection points: 2
#     Edge 52, Type (0, 0), BuildingBlock: AJUNOK_clean_linker_0, # of connection points: 2
#     Edge 53, Type (0, 0), BuildingBlock: AJUNOK_clean_linker_0, # of connection points: 2
#     Edge 54, Type (0, 0), BuildingBlock: AJUNOK_clean_linker_0, # of connection points: 2
#     Edge 55, Type (0, 0), BuildingBlock: AJUNOK_clean_linker_0, # of connection points: 2
#     Edge 56, Type (0, 0), BuildingBlock: AJUNOK_clean_linker_0, # of connection points: 2
#     Edge 57, Type (0, 0), BuildingBlock: AJUNOK_clean_linker_0, # of connection points: 2
#     Edge 58, Type (0, 0), BuildingBlock: AJUNOK_clean_linker_0, # of connection points: 2
#     Edge 59, Type (0, 0), BuildingBlock: AJUNOK_clean_linker_0, # of connection points: 2
#     Edge 60, Type (0, 0), BuildingBlock: AJUNOK_clean_linker_0, # of connection points: 2
#     Edge 61, Type (0, 0), BuildingBlock: AJUNOK_clean_linker_0, # of connection points: 2
#     Edge 62, Type (0, 0), BuildingBlock: AJUNOK_clean_linker_0, # of connection points: 2
#     Edge 63, Type (0, 0), BuildingBlock: AJUNOK_clean_linker_0, # of connection points: 2
# Relax obj value: 0.077
# Max RMSD: 0.149
# Mean RMSD: 0.149
data_MOF--net-vbm--node1-KUMJIN_clean_sbu_1--edge1-AJUNOK_clean_linker_0
_symmetry_space_group_name_H-M    P1
_symmetry_Int_Tables_number       1
_symmetry_cell_setting            triclinic
loop_
_symmetry_equiv_pos_as_xyz
'x, y, z'
_cell_length_a     38.990657
_cell_length_b     20.813479
_cell_length_c     42.343444
_cell_angle_alpha  90.068027
_cell_angle_beta   90.11226
_cell_angle_gamma 89.714399
loop_
_atom_site_label
_atom_site_type_symbol
_atom_site_fract_x
_atom_site_fract_y
_atom_site_fract_z
_atom_type_partial_charge
Eu0 Eu 0.11624 0.20163 0.14497 0.0
C1 C 0.22688 0.02891 0.09052 0.0
N2 N 0.19432 0.02112 0.07988 0.0
C3 C 0.21507 0.99482 0.02852 0.0
C4 C 0.25425 0.03029 0.06916 0.0
C5 C 0.18782 1.00591 0.04915 0.0
C6 C 0.24845 1.00957 0.03821 0.0
C7 C 0.26528 0.05752 0.1333 0.0
C8 C 0.23262 0.03966 0.12261 0.0
C9 C 0.29135 0.06816 0.11123 0.0
C10 C 0.28595 0.05406 0.07923 0.0
Eu11 Eu 0.15159 0.03702 0.11755 0.0
N12 N 0.20548 0.03979 0.14275 0.0
C13 C 0.27002 0.0684 0.16556 0.0
C14 C 0.21048 0.04465 0.17451 0.0
C15 C 0.24288 0.05931 0.18647 0.0
H16 H 0.16177 0.99986 0.0409 0.0
H17 H 0.24666 0.06548 0.21162 0.0
H18 H 0.10092 0.18857 0.22273 0.0
H19 H 0.03115 0.27999 0.04933 0.0
H20 H 0.18981 0.0382 0.1907 0.0
H21 H 0.29438 0.08391 0.17446 0.0
H22 H 0.08601 0.2509 0.07315 0.0
H23 H 0.21014 0.97765 0.00484 0.0
H24 H 0.31563 0.08773 0.11859 0.0
H25 H 0.30626 0.06252 0.06237 0.0
H26 H 0.05108 0.18639 0.2579 0.0
H27 H 0.2695 1.00494 0.02176 0.0
H28 H 0.97943 0.28572 0.08215 0.0
N29 N 0.0713 0.20726 0.18147 0.0
C30 C 0.04013 0.22386 0.16962 0.0
C31 C 0.04754 0.19577 0.23307 0.0
C32 C 0.01104 0.22501 0.1892 0.0
C33 C 0.07573 0.19647 0.21296 0.0
C34 C 0.01492 0.20751 0.22083 0.0
N35 N 0.06515 0.23122 0.11869 0.0
C36 C 0.06348 0.24841 0.0876 0.0
C37 C 1.00508 0.25478 0.12479 0.0
C38 C 0.03705 0.23674 0.13749 0.0
C39 C 1.00308 0.26981 0.09268 0.0
C40 C 0.03237 0.26676 0.07402 0.0
H41 H 0.99295 0.203 0.23597 0.0
H42 H 0.95653 0.24524 0.1913 0.0
H43 H 0.95183 0.2724 0.13528 0.0
O44 O 0.12587 0.30053 0.12913 0.0
O45 O 0.07574 0.12208 0.14379 0.0
O46 O 0.09568 0.05537 0.10488 0.0
O47 O 0.12633 0.27744 0.17883 0.0
O48 O 0.13355 0.19381 0.09225 0.0
O49 O 0.12463 0.08786 0.07825 0.0
O50 O 0.15322 0.94238 0.14028 0.0
O51 O 0.18641 0.12879 0.11092 0.0
O52 O 0.17112 0.17792 0.15553 0.0
O53 O 0.13989 0.95109 0.09075 0.0
O54 O 0.12439 0.03651 0.16463 0.0
O55 O 0.13698 0.13538 0.18426 0.0
C56 C 0.07056 0.07667 0.12272 0.0
C57 C 0.10935 0.3827 0.1653 0.0
C58 C 0.10608 0.49911 0.16157 0.0
C59 C 0.08081 0.50003 0.18502 0.0
C60 C 0.08337 0.38414 0.18831 0.0
C61 C 0.06928 0.44261 0.19809 0.0
C62 C 0.12027 0.44042 0.15162 0.0
C63 C 0.12819 0.14844 0.07069 0.0
C64 C 0.12775 0.32276 0.15784 0.0
C65 C 0.97912 0.24254 0.17653 0.0
C66 C 0.97632 0.25798 0.14452 0.0
C67 C 0.19252 0.17398 0.13215 0.0
C68 C 0.16146 0.85104 0.10733 0.0
C69 C 0.15925 0.73495 0.11064 0.0
C70 C 0.18535 0.73024 0.08804 0.0
C71 C 0.18818 0.84615 0.08528 0.0
C72 C 0.1475 0.79534 0.12041 0.0
C73 C 0.19999 0.78582 0.07564 0.0
C74 C 0.12846 0.07464 0.18875 0.0
C75 C 0.14484 0.91241 0.11436 0.0
H76 H 0.07005 0.54519 0.19316 0.0
H77 H 0.07457 0.34042 0.19938 0.0
H78 H 0.04974 0.44348 0.2162 0.0
H79 H 0.14055 0.43992 0.13411 0.0
H80 H 0.19448 0.68363 0.0802 0.0
H81 H 0.19945 0.88851 0.07507 0.0
H82 H 0.12681 0.79889 0.13743 0.0
H83 H 0.22024 0.78216 0.05829 0.0
Eu84 Eu 0.89752 0.82508 0.1424 0.0
C85 C 0.77821 1.00449 0.09125 0.0
N86 N 0.81082 1.00293 0.07976 0.0
C87 C 0.79182 0.04325 0.02992 0.0
C88 C 0.75079 0.02358 0.07159 0.0
C89 C 0.81789 0.01946 0.04926 0.0
C90 C 0.758 0.04367 0.04075 0.0
C91 C 0.7386 0.99214 0.1352 0.0
C92 C 0.77229 0.99041 0.1232 0.0
C93 C 0.71126 1.00831 0.11512 0.0
C94 C 0.71731 0.02469 0.0836 0.0
Eu95 Eu 0.85306 0.98342 0.11779 0.0
N96 N 0.79931 0.97623 0.14258 0.0
C97 C 0.73337 0.97907 0.16725 0.0
C98 C 0.79448 0.96667 0.17412 0.0
C99 C 0.76147 0.96717 0.18685 0.0
H100 H 0.84411 0.01983 0.04096 0.0
H101 H 0.75774 0.95846 0.2118 0.0
H102 H 0.9142 0.84607 0.22102 0.0
H103 H 0.98343 0.73889 0.05016 0.0
H104 H 0.81571 0.95852 0.18965 0.0
H105 H 0.7078 0.97921 0.17721 0.0
H106 H 0.9279 0.76924 0.07338 0.0
H107 H 0.7978 0.06107 0.00659 0.0
H108 H 0.68536 1.00982 0.12393 0.0
H109 H 0.69589 0.03899 0.06881 0.0
H110 H 0.96444 0.8651 0.25454 0.0
H111 H 0.73774 0.0607 0.0253 0.0
H112 H 0.03669 0.75009 0.08145 0.0
N113 N 0.94331 0.83397 0.17876 0.0
C114 C 0.97512 0.82331 0.16649 0.0
C115 C 0.96779 0.85398 0.22975 0.0
C116 C 1.0046 0.82879 0.18557 0.0
C117 C 0.93926 0.84494 0.21036 0.0
C118 C 1.00062 0.84752 0.21706 0.0
N119 N 0.94955 0.80313 0.1164 0.0
C120 C 0.95098 0.7774 0.0868 0.0
C121 C 0.01055 0.7883 0.12251 0.0
C122 C 0.97821 0.80568 0.13481 0.0
C123 C 0.01237 0.76466 0.0916 0.0
C124 C 0.9824 0.75862 0.0738 0.0
H125 H 0.02273 0.85571 0.23192 0.0
H126 H 0.05989 0.81825 0.18731 0.0
H127 H 0.0649 0.78062 0.1324 0.0
O128 O 0.8846 0.72848 0.12523 0.0
O129 O 0.93255 0.91187 0.13662 0.0
O130 O 0.90805 0.97919 0.09965 0.0
O131 O 0.91014 0.74134 0.17033 0.0
O132 O 0.87906 0.8319 0.09012 0.0
O133 O 0.87811 0.9392 0.07516 0.0
O134 O 0.86781 0.06987 0.14434 0.0
O135 O 0.82039 0.89008 0.11565 0.0
O136 O 0.84159 0.82985 0.15621 0.0
O137 O 0.83896 0.07833 0.10121 0.0
O138 O 0.88157 0.98148 0.16409 0.0
O139 O 0.87315 0.88124 0.18356 0.0
C140 C 0.93482 0.9581 0.11569 0.0
C141 C 0.88229 0.6431 0.1625 0.0
C142 C 0.87928 0.52627 0.16207 0.0
C143 C 0.86156 0.52915 0.19106 0.0
C144 C 0.86331 0.64516 0.19053 0.0
C145 C 0.85341 0.58813 0.20495 0.0
C146 C 0.89033 0.58401 0.14845 0.0
C147 C 0.87903 0.87763 0.06825 0.0
C148 C 0.89824 0.70068 0.14984 0.0
C149 C 0.037 0.81467 0.17286 0.0
C150 C 0.03989 0.79347 0.14158 0.0
C151 C 0.81762 0.84098 0.13523 0.0
C152 C 0.87828 0.15819 0.1107 0.0
C153 C 0.89161 0.27151 0.10656 0.0
C154 C 0.91186 0.2581 0.07989 0.0
C155 C 0.89986 0.14505 0.08496 0.0
C156 C 0.87471 0.221 0.12181 0.0
C157 C 0.91651 0.19505 0.0696 0.0
C158 C 0.87938 0.94286 0.18812 0.0
C159 C 0.85564 0.10861 0.12288 0.0
H160 H 0.85238 0.48597 0.2024 0.0
H161 H 0.85725 0.6906 0.20176 0.0
H162 H 0.83918 0.58952 0.22687 0.0
H163 H 0.90643 0.58339 0.12763 0.0
H164 H 0.9249 0.29608 0.06744 0.0
H165 H 0.90261 0.09665 0.07591 0.0
H166 H 0.8579 0.2308 0.14165 0.0
H167 H 0.93265 0.18508 0.04939 0.0
Eu168 Eu 0.11605 0.82309 0.36523 0.0
C169 C 0.23193 1.01043 0.41785 0.0
N170 N 0.19901 1.00284 0.42741 0.0
C171 C 0.21423 0.03229 0.48018 0.0
C172 C 0.25784 0.02592 0.43984 0.0
C173 C 0.18977 1.01327 0.45802 0.0
C174 C 0.24857 0.03699 0.47131 0.0
C175 C 0.27406 1.00934 0.37574 0.0
C176 C 0.23973 1.00393 0.38593 0.0
C177 C 0.3 0.02297 0.39776 0.0
C178 C 0.29189 0.03178 0.42965 0.0
Eu179 Eu 0.15828 0.98693 0.38764 0.0
N180 N 0.21397 0.99179 0.36499 0.0
C181 C 0.28141 1.00081 0.34371 0.0
C182 C 0.22128 0.98219 0.33377 0.0
C183 C 0.25491 0.98707 0.32269 0.0
H184 H 0.16328 1.00948 0.46516 0.0
H185 H 0.26041 0.97945 0.29791 0.0
H186 H 0.10582 0.79174 0.28803 0.0
H187 H 0.02413 0.78775 0.46151 0.0
H188 H 0.2018 0.96928 0.31707 0.0
H189 H 0.30746 1.00413 0.33503 0.0
H190 H 0.08125 0.79631 0.43794 0.0
H191 H 0.20654 0.04368 0.50406 0.0
H192 H 0.32641 0.02735 0.39034 0.0
H193 H 0.31215 0.04342 0.44623 0.0
H194 H 0.05868 0.76461 0.25161 0.0
H195 H 0.26758 0.05046 0.48877 0.0
H196 H 0.97273 0.7875 0.42728 0.0
N197 N 0.0728 0.8087 0.32714 0.0
C198 C 0.04025 0.8045 0.33881 0.0
C199 C 0.05308 0.77749 0.27584 0.0
C200 C 0.01255 0.78984 0.31862 0.0
C201 C 0.07965 0.79389 0.29637 0.0
C202 C 0.01939 0.7762 0.28691 0.0
N203 N 0.06269 0.81122 0.3911 0.0
C204 C 0.05922 0.80043 0.42282 0.0
C205 C 1.00182 0.7976 0.38404 0.0
C206 C 0.03503 0.80633 0.37151 0.0
C207 C 0.99784 0.79387 0.41684 0.0
C208 C 0.02675 0.79403 0.43626 0.0
H209 H 0.99898 0.76164 0.27112 0.0
H210 H 0.95771 0.77429 0.31568 0.0
H211 H 0.94825 0.78296 0.37281 0.0
O212 O 0.14654 0.73697 0.37758 0.0
O213 O 0.08222 0.90102 0.38712 0.0
O214 O 0.10498 0.98977 0.36494 0.0
O215 O 0.09825 0.72717 0.35386 0.0
O216 O 0.13583 0.83101 0.41649 0.0
O217 O 0.12882 0.93854 0.42602 0.0
O218 O 0.16698 0.09151 0.38062 0.0
O219 O 0.19058 0.89391 0.39402 0.0
O220 O 0.17129 0.8418 0.35036 0.0
O221 O 0.13211 0.05492 0.41718 0.0
O222 O 0.14528 0.98404 0.33636 0.0
O223 O 0.12609 0.88419 0.31924 0.0
C224 C 0.07806 0.9582 0.37489 0.0
C225 C 0.13649 0.64264 0.3469 0.0
C226 C 0.14146 0.52666 0.34147 0.0
C227 C 0.15308 0.53444 0.31041 0.0
C228 C 0.14791 0.6502 0.31574 0.0
C229 C 0.1559 0.59606 0.29749 0.0
C230 C 0.1325 0.58084 0.35938 0.0
C231 C 0.13254 0.8798 0.43621 0.0
C232 C 0.12437 0.69737 0.36554 0.0
C233 C 0.97929 0.78454 0.331 0.0
C234 C 0.9739 0.78925 0.36357 0.0
C235 C 0.19513 0.84938 0.37212 0.0
C236 C 0.13657 0.16951 0.41482 0.0
C237 C 0.12753 0.28377 0.40575 0.0
C238 C 0.11099 0.28876 0.43503 0.0
C239 C 0.12047 0.17586 0.44437 0.0
C240 C 0.1405 0.22398 0.39562 0.0
C241 C 0.10771 0.23507 0.45429 0.0
C242 C 0.1355 0.945 0.31375 0.0
C243 C 0.14535 0.10478 0.40335 0.0
H244 H 0.15982 0.49294 0.29622 0.0
H245 H 0.15013 0.69765 0.30549 0.0
H246 H 0.16465 0.60185 0.27344 0.0
H247 H 0.12287 0.57487 0.38322 0.0
H248 H 0.10095 0.3345 0.44313 0.0
H249 H 0.11707 0.1347 0.45966 0.0
H250 H 0.15249 0.21966 0.37261 0.0
H251 H 0.09492 0.23921 0.47686 0.0
Eu252 Eu 0.89415 0.20564 0.35869 0.0
C253 C 0.78113 0.01671 0.41303 0.0
N254 N 0.81308 0.02812 0.4246 0.0
C255 C 0.79398 1.00615 0.47713 0.0
C256 C 0.75394 1.00143 0.43361 0.0
C257 C 0.81962 0.02498 0.45623 0.0
C258 C 0.76087 0.99518 0.46591 0.0
C259 C 0.74139 0.01791 0.36879 0.0
C260 C 0.77514 0.02327 0.38066 0.0
C261 C 0.71445 1.00215 0.38926 0.0
C262 C 0.72075 0.99322 0.42148 0.0
Eu263 Eu 0.85631 0.03888 0.38647 0.0
N264 N 0.80172 0.03865 0.3612 0.0
C265 C 0.73545 0.03013 0.33679 0.0
C266 C 0.79569 0.05225 0.3301 0.0
C267 C 0.76265 0.04802 0.31748 0.0
H268 H 0.84519 0.03298 0.46509 0.0
H269 H 0.75816 0.05896 0.29283 0.0
H270 H 0.90118 0.24288 0.28275 0.0
H271 H 0.99135 0.22235 0.45371 0.0
H272 H 0.8157 0.06794 0.31472 0.0
H273 H 0.70985 0.02729 0.32692 0.0
H274 H 0.93346 0.22013 0.43282 0.0
H275 H 0.79988 0.99934 0.50184 0.0
H276 H 0.68851 0.99758 0.38047 0.0
H277 H 0.6996 0.98138 0.43694 0.0
H278 H 0.94432 0.29032 0.24707 0.0
H279 H 0.74086 0.98201 0.48236 0.0
H280 H 0.04041 0.23678 0.41768 0.0
N281 N 0.93523 0.23785 0.32179 0.0
C282 C 0.9676 0.24661 0.33274 0.0
C283 C 0.95127 0.2777 0.27103 0.0
C284 C 0.99369 0.26844 0.31248 0.0
C285 C 0.92692 0.25122 0.29126 0.0
C286 C 0.98482 0.28661 0.28177 0.0
N287 N 0.94818 0.22169 0.38434 0.0
C288 C 0.95392 0.22084 0.41621 0.0
C289 C 0.00854 0.24127 0.37586 0.0
C290 C 0.97458 0.23565 0.36448 0.0
C291 C 0.01472 0.23316 0.4081 0.0
C292 C 0.98715 0.22458 0.42845 0.0
H293 H 1.00382 0.3066 0.266 0.0
H294 H 0.04813 0.28675 0.30797 0.0
H295 H 0.06141 0.2588 0.36306 0.0
O296 O 0.89513 0.30842 0.37176 0.0
O297 O 0.93297 0.12427 0.35216 0.0
O298 O 0.91514 0.04843 0.38826 0.0
O299 O 0.86526 0.27583 0.33186 0.0
O300 O 0.87792 0.19783 0.41118 0.0
O301 O 0.89159 0.09338 0.41771 0.0
O302 O 0.8563 0.93515 0.37209 0.0
O303 O 0.82162 0.12764 0.39585 0.0
O304 O 0.83856 0.17744 0.3517 0.0
O305 O 0.86787 0.96629 0.42025 0.0
O306 O 0.87102 0.03566 0.33534 0.0
O307 O 0.88717 0.13636 0.31585 0.0
C308 C 0.93875 0.07254 0.36931 0.0
C309 C 0.88122 0.38584 0.33137 0.0
C310 C 0.88315 0.50303 0.33219 0.0
C311 C 0.88218 0.50393 0.29914 0.0
C312 C 0.87992 0.38804 0.29815 0.0
C313 C 0.88094 0.44661 0.28224 0.0
C314 C 0.88326 0.4439 0.34831 0.0
C315 C 0.88314 0.1483 0.43001 0.0
C316 C 0.87505 0.32503 0.34847 0.0
C317 C 0.02757 0.27216 0.32354 0.0
C318 C 0.0351 0.25672 0.35494 0.0
C319 C 0.81697 0.17442 0.37531 0.0
C320 C 0.87144 0.85336 0.41267 0.0
C321 C 0.88157 0.73924 0.40417 0.0
C322 C 0.89035 0.73246 0.43617 0.0
C323 C 0.88004 0.84519 0.44474 0.0
C324 C 0.87208 0.80004 0.39237 0.0
C325 C 0.88947 0.78518 0.45631 0.0
C326 C 0.88047 0.07377 0.31221 0.0
C327 C 0.8649 0.91869 0.40083 0.0
H328 H 0.88207 0.54912 0.28646 0.0
H329 H 0.87679 0.34492 0.28428 0.0
H330 H 0.87979 0.44761 0.25671 0.0
H331 H 0.88318 0.44331 0.37392 0.0
H332 H 0.89754 0.68603 0.4457 0.0
H333 H 0.88001 0.88539 0.46101 0.0
H334 H 0.86621 0.80601 0.3675 0.0
H335 H 0.89622 0.77958 0.48096 0.0
Eu336 Eu 0.85322 0.98721 0.88513 0.0
C337 C 0.9747 0.82929 0.83695 0.0
N338 N 0.94323 0.8385 0.8238 0.0
C339 C 0.9691 0.86233 0.77402 0.0
C340 C 1.00476 0.83903 0.8192 0.0
C341 C 0.9404 0.84684 0.79201 0.0
C342 C 1.00153 0.86008 0.78798 0.0
C343 C 0.00872 0.78737 0.88036 0.0
C344 C 0.9768 0.80504 0.86746 0.0
C345 C 0.03872 0.79866 0.86304 0.0
C346 C 0.03683 0.82507 0.83268 0.0
Eu347 Eu 0.8962 0.82379 0.85821 0.0
N348 N 0.94743 0.79677 0.88416 0.0
C349 C 0.00939 0.7578 0.91005 0.0
C350 C 0.94774 0.7659 0.91254 0.0
C351 C 0.97877 0.74662 0.92611 0.0
H352 H 0.91632 0.83906 0.78045 0.0
H353 H 0.97904 0.72269 0.94878 0.0
H354 H 0.83255 0.96874 0.96064 0.0
H355 H 0.76856 1.01149 0.78103 0.0
H356 H 0.92407 0.75518 0.92454 0.0
H357 H 0.03324 0.74225 0.92052 0.0
H358 H 0.82285 1.00619 0.80866 0.0
H359 H 0.96625 0.87363 0.74921 0.0
H360 H 0.06345 0.7865 0.87276 0.0
H361 H 0.06023 0.8322 0.8194 0.0
H362 H 0.78061 0.94607 0.99213 0.0
H363 H 0.02395 0.87103 0.77399 0.0
H364 H 0.71443 1.0076 0.81098 0.0
N365 N 0.8049 0.97998 0.91787 0.0
C366 C 0.77372 0.98605 0.90387 0.0
C367 C 0.77832 0.95997 0.96767 0.0
C368 C 0.74337 0.9811 0.92178 0.0
C369 C 0.80767 0.97017 0.94953 0.0
C370 C 0.746 0.96725 0.954 0.0
N371 N 0.80183 0.99521 0.85443 0.0
C372 C 0.80042 1.00241 0.82241 0.0
C373 C 0.73991 0.99875 0.85625 0.0
C374 C 0.77213 0.99397 0.87135 0.0
C375 C 0.73869 1.00456 0.82343 0.0
C376 C 0.76912 1.0064 0.80646 0.0
H377 H 0.72331 0.96098 0.96837 0.0
H378 H 0.68785 0.98501 0.92027 0.0
H379 H 0.68524 1.0017 0.86285 0.0
O380 O 0.84344 0.09057 0.87861 0.0
O381 O 0.82267 0.89257 0.88905 0.0
O382 O 0.8404 0.84091 0.84476 0.0
O383 O 0.86808 0.05516 0.92191 0.0
O384 O 0.87792 0.99205 0.83717 0.0
O385 O 0.87872 0.88967 0.81618 0.0
O386 O 0.87568 0.72716 0.86996 0.0
O387 O 0.92966 0.89499 0.88571 0.0
O388 O 0.9091 0.99098 0.86821 0.0
O389 O 0.91161 0.73967 0.83167 0.0
O390 O 0.8762 0.82665 0.90985 0.0
O391 O 0.88072 0.93367 0.92437 0.0
C392 C 0.81715 0.84961 0.86674 0.0
C393 C 0.86085 0.1709 0.91753 0.0
C394 C 0.87241 0.28504 0.90905 0.0
C395 C 0.87443 0.29355 0.94191 0.0
C396 C 0.86314 0.18082 0.95024 0.0
C397 C 0.86971 0.24183 0.9623 0.0
C398 C 0.86508 0.22345 0.89686 0.0
C399 C 0.88003 0.95333 0.8128 0.0
C400 C 0.85809 0.10469 0.90543 0.0
C401 C 0.71144 0.98778 0.90686 0.0
C402 C 0.70983 0.99692 0.87421 0.0
C403 C 0.93497 0.955 0.87763 0.0
C404 C 0.88472 0.6381 0.83354 0.0
C405 C 0.88259 0.52037 0.83509 0.0
C406 C 0.87437 0.52016 0.80277 0.0
C407 C 0.87623 0.6364 0.80134 0.0
C408 C 0.88836 0.57991 0.85026 0.0
C409 C 0.87132 0.57769 0.78608 0.0
C410 C 0.87844 0.87239 0.93164 0.0
C411 C 0.89471 0.69902 0.84871 0.0
H412 H 0.8794 0.34056 0.95188 0.0
H413 H 0.86027 0.14112 0.96654 0.0
H414 H 0.87144 0.24896 0.98757 0.0
H415 H 0.86404 0.2161 0.87152 0.0
H416 H 0.87003 0.4753 0.79043 0.0
H417 H 0.87416 0.68042 0.78782 0.0
H418 H 0.89468 0.58114 0.8752 0.0
H419 H 0.86513 0.57672 0.76116 0.0
Eu420 Eu 0.15798 0.04408 0.88693 0.0
C421 C 0.03899 0.22528 0.83542 0.0
N422 N 0.07149 0.21854 0.82388 0.0
C423 C 0.05222 0.24547 0.77191 0.0
C424 C 0.01163 0.24103 0.81503 0.0
C425 C 0.07833 0.22672 0.79252 0.0
C426 C 0.01876 0.25256 0.78318 0.0
C427 C 0.99991 0.22896 0.88019 0.0
C428 C 0.0334 0.22094 0.86803 0.0
C429 C 0.97241 0.24076 0.85954 0.0
C430 C 0.97831 0.24762 0.82715 0.0
Eu431 Eu 0.11465 0.20542 0.86213 0.0
N432 N 0.0607 0.21186 0.88787 0.0
C433 C 0.99513 0.22762 0.91289 0.0
C434 C 0.05631 0.21777 0.91972 0.0
C435 C 0.02356 0.22311 0.93274 0.0
H436 H 0.10436 0.2237 0.78392 0.0
H437 H 0.0204 0.22629 0.95809 0.0
H438 H 0.17494 0.0803 0.96349 0.0
H439 H 0.24437 0.96191 0.79417 0.0
H440 H 0.07764 0.22237 0.93536 0.0
H441 H 0.96982 0.2334 0.92307 0.0
H442 H 0.18857 0.99211 0.81739 0.0
H443 H 0.058 0.25539 0.74741 0.0
H444 H 0.9466 0.24694 0.86855 0.0
H445 H 0.95696 0.2591 0.81171 0.0
H446 H 0.22545 0.10501 0.99579 0.0
H447 H 0.99871 0.26832 0.76722 0.0
H448 H 0.29721 0.97113 0.82589 0.0
N449 N 0.20367 0.05635 0.92272 0.0
C450 C 0.23508 0.03983 0.91133 0.0
C451 C 0.22849 0.08487 0.97241 0.0
C452 C 0.26426 0.04139 0.9311 0.0
C453 C 0.19985 0.07488 0.95335 0.0
C454 C 0.26071 0.06551 0.96177 0.0
N455 N 0.21001 0.02413 0.86062 0.0
C456 C 0.21165 1.0001 0.83075 0.0
C457 C 0.27068 1.00568 0.86745 0.0
C458 C 0.23835 0.02368 0.87952 0.0
C459 C 0.27291 0.98574 0.83599 0.0
C460 C 0.24314 0.98143 0.81782 0.0
H461 H 0.28285 0.07125 0.97699 0.0
H462 H 0.31909 0.02515 0.9338 0.0
H463 H 0.3245 0.9932 0.87837 0.0
O464 O 0.15375 0.94437 0.87069 0.0
O465 O 0.19199 0.13684 0.886 0.0
O466 O 0.16976 0.196 0.84547 0.0
O467 O 0.16622 0.96511 0.91947 0.0
O468 O 0.13567 0.04445 0.83722 0.0
O469 O 0.13679 0.14973 0.81954 0.0
O470 O 0.13607 0.29687 0.88029 0.0
O471 O 0.07896 0.11852 0.86014 0.0
O472 O 0.09978 0.04457 0.89574 0.0
O473 O 0.09822 0.29683 0.84342 0.0
O474 O 0.13376 0.19569 0.91355 0.0
O475 O 0.12574 0.08927 0.92484 0.0
C476 C 0.19509 0.18426 0.86523 0.0
C477 C 0.13718 0.86829 0.90921 0.0
C478 C 0.1208 0.75608 0.90516 0.0
C479 C 0.10137 0.76274 0.93286 0.0
C480 C 0.11724 0.87433 0.93666 0.0
C481 C 0.09943 0.82164 0.94835 0.0
C482 C 0.13843 0.80929 0.89319 0.0
C483 C 0.13469 0.08695 0.8143 0.0
C484 C 0.15933 0.92082 0.89874 0.0
C485 C 0.29639 0.02387 0.919 0.0
C486 C 0.29955 1.00617 0.8873 0.0
C487 C 0.07459 0.06775 0.87811 0.0
C488 C 0.1303 0.3894 0.84674 0.0
C489 C 0.12884 0.50638 0.84383 0.0
C490 C 0.14499 0.50277 0.81411 0.0
C491 C 0.14724 0.38663 0.81761 0.0
C492 C 0.12037 0.44887 0.85928 0.0
C493 C 0.15422 0.44324 0.80124 0.0
C494 C 0.12883 0.14897 0.93399 0.0
C495 C 0.11692 0.33158 0.86161 0.0
H496 H 0.08765 0.7222 0.94256 0.0
H497 H 0.1159 0.91936 0.94945 0.0
H498 H 0.08441 0.82622 0.9697 0.0
H499 H 0.15417 0.8041 0.87223 0.0
H500 H 0.15228 0.5459 0.80159 0.0
H501 H 0.15389 0.34077 0.8071 0.0
H502 H 0.10593 0.45012 0.88112 0.0
H503 H 0.16714 0.44108 0.77866 0.0
Eu504 Eu 0.85304 0.04277 0.61596 0.0
C505 C 0.97706 0.20019 0.66398 0.0
N506 N 0.94498 0.19379 0.67619 0.0
C507 C 0.96872 0.17476 0.72753 0.0
C508 C 0.00631 0.19212 0.68318 0.0
C509 C 0.94068 0.18744 0.70798 0.0
C510 C 1.00168 0.175 0.71478 0.0
C511 C 0.0134 0.23201 0.62021 0.0
C512 C 0.98073 0.21821 0.63257 0.0
C513 C 0.04255 0.22381 0.6393 0.0
C514 C 0.03906 0.20295 0.67056 0.0
Eu515 Eu 0.89955 0.20393 0.63938 0.0
N516 N 0.9522 0.2237 0.61429 0.0
C517 C 0.01575 0.25443 0.58911 0.0
C518 C 0.95415 0.2473 0.58429 0.0
C519 C 0.98596 0.26235 0.57114 0.0
H520 H 0.91589 0.19314 0.71848 0.0
H521 H 0.98745 0.28046 0.54723 0.0
H522 H 0.83096 0.08058 0.54173 0.0
H523 H 0.77253 1.01144 0.72072 0.0
H524 H 0.9312 0.25569 0.57061 0.0
H525 H 0.04039 0.26606 0.57886 0.0
H526 H 0.82531 1.00175 0.68951 0.0
H527 H 0.96493 0.16617 0.75249 0.0
H528 H 0.06787 0.23388 0.63017 0.0
H529 H 0.06177 0.19734 0.6851 0.0
H530 H 0.77962 0.11814 0.51276 0.0
H531 H 0.02343 0.16426 0.72974 0.0
H532 H 0.71903 0.04958 0.69537 0.0
N533 N 0.80476 0.07034 0.58531 0.0
C534 C 0.77406 0.07032 0.60044 0.0
C535 C 0.7777 0.10448 0.53734 0.0
C536 C 0.74393 0.0895 0.58453 0.0
C537 C 0.80684 0.08445 0.55393 0.0
C538 C 0.74606 0.10669 0.55263 0.0
N539 N 0.80322 0.04032 0.64768 0.0
C540 C 0.80278 0.02133 0.67849 0.0
C541 C 0.7424 0.06047 0.64935 0.0
C542 C 0.77344 0.05618 0.6326 0.0
C543 C 0.74238 0.04618 0.68162 0.0
C544 C 0.77257 0.02521 0.69609 0.0
H545 H 0.72352 0.12233 0.53969 0.0
H546 H 0.68955 0.10844 0.58956 0.0
H547 H 0.68882 0.08394 0.64638 0.0
O548 O 0.84166 0.94051 0.62416 0.0
O549 O 0.82771 0.14373 0.6125 0.0
O550 O 0.84481 0.19417 0.65681 0.0
O551 O 0.85433 0.97395 0.57751 0.0
O552 O 0.87774 0.03911 0.6639 0.0
O553 O 0.87909 0.14405 0.68189 0.0
O554 O 0.87796 0.29585 0.62262 0.0
O555 O 0.93247 0.12684 0.61626 0.0
O556 O 0.90927 0.03142 0.63217 0.0
O557 O 0.91574 0.2938 0.66014 0.0
O558 O 0.88116 0.19337 0.58757 0.0
O559 O 0.88593 0.08466 0.57786 0.0
C560 C 0.82069 0.18295 0.63608 0.0
C561 C 0.87162 0.86754 0.58999 0.0
C562 C 0.88774 0.75561 0.60029 0.0
C563 C 0.91023 0.75744 0.57456 0.0
C564 C 0.89486 0.86801 0.56457 0.0
C565 C 0.91361 0.81322 0.5568 0.0
C566 C 0.8683 0.81079 0.60807 0.0
C567 C 0.87963 0.08093 0.68703 0.0
C568 C 0.84888 0.92402 0.59525 0.0
C569 C 0.713 0.09341 0.60124 0.0
C570 C 0.71242 0.07938 0.63355 0.0
C571 C 0.93617 0.06717 0.62554 0.0
C572 C 0.88225 0.38706 0.65667 0.0
C573 C 0.8785 0.50378 0.65783 0.0
C574 C 0.86506 0.50041 0.68854 0.0
C575 C 0.86785 0.38435 0.68696 0.0
C576 C 0.88739 0.44677 0.64204 0.0
C577 C 0.85952 0.441 0.70288 0.0
C578 C 0.88547 0.14441 0.56792 0.0
C579 C 0.89675 0.32952 0.64198 0.0
H580 H 0.92498 0.71524 0.56802 0.0
H581 H 0.89805 0.91027 0.54999 0.0
H582 H 0.93078 0.81394 0.53674 0.0
H583 H 0.85006 0.80885 0.62733 0.0
H584 H 0.85792 0.54382 0.7011 0.0
H585 H 0.86412 0.33861 0.69862 0.0
H586 H 0.89871 0.44897 0.61868 0.0
H587 H 0.84878 0.43895 0.7264 0.0
Eu588 Eu 0.15753 0.99219 0.61539 0.0
C589 C 0.04055 0.80714 0.66519 0.0
N590 N 0.07207 0.80549 0.67869 0.0
C591 C 0.0474 0.78199 0.72891 0.0
C592 C 0.0109 0.80253 0.68373 0.0
C593 C 0.07605 0.794 0.71012 0.0
C594 C 0.0146 0.78702 0.71569 0.0
C595 C 1.00557 0.81505 0.618 0.0
C596 C 0.03799 0.81245 0.63261 0.0
C597 C 0.97603 0.81916 0.63679 0.0
C598 C 0.97879 0.81322 0.66971 0.0
Eu599 Eu 0.11822 0.82585 0.64516 0.0
N600 N 0.06718 0.81152 0.61521 0.0
C601 C 1.00395 0.81202 0.58505 0.0
C602 C 0.06533 0.79833 0.58364 0.0
C603 C 0.03386 0.80084 0.56787 0.0
H604 H 0.10138 0.79334 0.72054 0.0
H605 H 0.03265 0.79317 0.5426 0.0
H606 H 0.17428 0.94958 0.53946 0.0
H607 H 0.24497 0.12396 0.69249 0.0
H608 H 0.08762 0.78376 0.57053 0.0
H609 H 0.97974 0.81429 0.57283 0.0
H610 H 0.18834 0.08847 0.67265 0.0
H611 H 0.05059 0.76998 0.7536 0.0
H612 H 0.95096 0.82485 0.6261 0.0
H613 H 0.95595 0.81599 0.68416 0.0
H614 H 0.22379 0.90687 0.50958 0.0
H615 H 0.99236 0.77741 0.73009 0.0
H616 H 0.29807 0.07875 0.66945 0.0
N617 N 0.20338 0.97124 0.58026 0.0
C618 C 0.23531 0.98135 0.59208 0.0
C619 C 0.22739 0.92697 0.53294 0.0
C620 C 0.2646 0.96125 0.57531 0.0
C621 C 0.19919 0.94924 0.55019 0.0
C622 C 0.26029 0.93241 0.54569 0.0
N623 N 0.2096 0.02691 0.63762 0.0
C624 C 0.21145 0.06946 0.66205 0.0
C625 C 0.27101 0.0252 0.63341 0.0
C626 C 0.23839 1.01022 0.62151 0.0
C627 C 0.27335 0.06464 0.66006 0.0
C628 C 0.24341 0.08952 0.67341 0.0
H629 H 0.28218 0.91583 0.53217 0.0
H630 H 0.3198 0.95235 0.57695 0.0
H631 H 0.32497 1.00971 0.6278 0.0
O632 O 0.14433 0.09298 0.62625 0.0
O633 O 0.18991 0.89927 0.61195 0.0
O634 O 0.17338 0.84916 0.65652 0.0
O635 O 0.15906 0.06419 0.57831 0.0
O636 O 0.15065 0.989 0.66889 0.0
O637 O 0.12583 0.8939 0.68775 0.0
O638 O 0.11632 0.72406 0.63105 0.0
O639 O 0.0828 0.91287 0.65254 0.0
O640 O 0.0995 0.97901 0.61212 0.0
O641 O 0.14193 0.75148 0.67415 0.0
O642 O 0.1367 0.8356 0.59348 0.0
O643 O 0.12178 0.93941 0.58323 0.0
C644 C 0.19594 0.85726 0.6343 0.0
C645 C 0.14515 0.17697 0.5857 0.0
C646 C 0.13487 0.29158 0.59487 0.0
C647 C 0.13613 0.30171 0.56208 0.0
C648 C 0.14632 0.18874 0.55308 0.0
C649 C 0.14187 0.2507 0.54145 0.0
C650 C 0.13938 0.22866 0.60666 0.0
C651 C 0.13845 0.9527 0.69187 0.0
C652 C 0.14956 0.11051 0.59711 0.0
C653 C 0.29703 0.96975 0.58886 0.0
C654 C 0.30012 1.00217 0.61773 0.0
C655 C 0.07651 0.96058 0.63294 0.0
C656 C 0.122 0.64339 0.67107 0.0
C657 C 0.11851 0.52612 0.66844 0.0
C658 C 0.11279 0.52431 0.70111 0.0
C659 C 0.11626 0.64018 0.70379 0.0
C660 C 0.12219 0.58603 0.65334 0.0
C661 C 0.11128 0.58108 0.71856 0.0
C662 C 0.12808 0.88118 0.57328 0.0
C663 C 0.13272 0.70417 0.65597 0.0
H664 H 0.1332 0.34954 0.55236 0.0
H665 H 0.15061 0.14998 0.53643 0.0
H666 H 0.14308 0.25932 0.5163 0.0
H667 H 0.13808 0.21998 0.63187 0.0
H668 H 0.10977 0.4788 0.71316 0.0
H669 H 0.11674 0.68291 0.71827 0.0
H670 H 0.1273 0.58769 0.62818 0.0
H671 H 0.10721 0.57915 0.74382 0.0
Eu672 Eu 0.61987 0.70942 0.14425 0.0
C673 C 0.72649 0.51701 0.09024 0.0
N674 N 0.69395 0.52492 0.0794 0.0
C675 C 0.71161 0.49947 0.02694 0.0
C676 C 0.75343 0.50418 0.06907 0.0
C677 C 0.68616 0.51789 0.04825 0.0
C678 C 0.74559 0.49435 0.03715 0.0
C679 C 0.76704 0.52134 0.13371 0.0
C680 C 0.73313 0.52399 0.12252 0.0
C681 C 0.79395 0.5105 0.11251 0.0
C682 C 0.78716 0.50137 0.08034 0.0
Eu683 Eu 0.65239 0.53997 0.11815 0.0
N684 N 0.70673 0.53688 0.14262 0.0
C685 C 0.77303 0.53084 0.16589 0.0
C686 C 0.71264 0.54664 0.17406 0.0
C687 C 0.74584 0.54376 0.18615 0.0
H688 H 0.65995 0.52242 0.04024 0.0
H689 H 0.75047 0.55175 0.21107 0.0
H690 H 0.60886 0.73792 0.2206 0.0
H691 H 0.53393 0.76432 0.04444 0.0
H692 H 0.69232 0.55792 0.19005 0.0
H693 H 0.79849 0.52835 0.17534 0.0
H694 H 0.58864 0.74243 0.06925 0.0
H695 H 0.70494 0.48902 0.0027 0.0
H696 H 0.82001 0.50953 0.12092 0.0
H697 H 0.80805 0.49295 0.06418 0.0
H698 H 0.56452 0.78238 0.25577 0.0
H699 H 0.76548 0.48233 0.02029 0.0
H700 H 0.48376 0.78784 0.07709 0.0
N701 N 0.57717 0.74081 0.17986 0.0
C702 C 0.54626 0.7569 0.1674 0.0
C703 C 0.5586 0.77358 0.23116 0.0
C704 C 0.51943 0.7787 0.18699 0.0
C705 C 0.58363 0.7482 0.21122 0.0
C706 C 0.52606 0.78764 0.21916 0.0
N707 N 0.56907 0.73783 0.11628 0.0
C708 C 0.5667 0.74465 0.08424 0.0
C709 C 0.51018 0.77223 0.12137 0.0
C710 C 0.54192 0.75448 0.13483 0.0
C711 C 0.50717 0.77329 0.0885 0.0
C712 C 0.5356 0.76007 0.06988 0.0
H713 H 0.50651 0.8068 0.23473 0.0
H714 H 0.46643 0.80984 0.1885 0.0
H715 H 0.45851 0.80427 0.13102 0.0
O716 O 0.62532 0.80945 0.12862 0.0
O717 O 0.57706 0.6363 0.14927 0.0
O718 O 0.59479 0.56024 0.11323 0.0
O719 O 0.64574 0.78002 0.17367 0.0
O720 O 0.6374 0.69566 0.09153 0.0
O721 O 0.62057 0.59296 0.08348 0.0
O722 O 0.65367 0.4406 0.13607 0.0
O723 O 0.68972 0.62613 0.11052 0.0
O724 O 0.67348 0.67566 0.15478 0.0
O725 O 0.63662 0.46109 0.0884 0.0
O726 O 0.63495 0.53795 0.16831 0.0
O727 O 0.62561 0.64104 0.18785 0.0
C728 C 0.57125 0.58506 0.13207 0.0
C729 C 0.62686 0.8882 0.16939 0.0
C730 C 0.61889 1.004 0.16609 0.0
C731 C 0.60822 1.00537 0.19767 0.0
C732 C 0.61808 0.89127 0.20159 0.0
C733 C 0.60764 0.94903 0.21527 0.0
C734 C 0.62688 0.94505 0.15161 0.0
C735 C 0.62937 0.64816 0.07194 0.0
C736 C 0.63951 0.828 0.15491 0.0
C737 C 0.48745 0.79374 0.17373 0.0
C738 C 0.48286 0.79033 0.14101 0.0
C739 C 0.69556 0.67101 0.13186 0.0
C740 C 0.65493 0.35508 0.09814 0.0
C741 C 0.65135 0.23897 0.10109 0.0
C742 C 0.66788 0.23378 0.07187 0.0
C743 C 0.67207 0.34938 0.06913 0.0
C744 C 0.64508 0.2996 0.11431 0.0
C745 C 0.67867 0.28894 0.05624 0.0
C746 C 0.62835 0.57746 0.19159 0.0
C747 C 0.64227 0.4172 0.10951 0.0
H748 H 0.60185 0.05052 0.20905 0.0
H749 H 0.62049 0.84999 0.21671 0.0
H750 H 0.60063 0.95062 0.23998 0.0
H751 H 0.6352 0.94396 0.12719 0.0
H752 H 0.67304 0.18707 0.06155 0.0
H753 H 0.67957 0.39125 0.05597 0.0
H754 H 0.63155 0.30353 0.13662 0.0
H755 H 0.69211 0.28493 0.03408 0.0
Eu756 Eu 0.39198 0.3221 0.13947 0.0
C757 C 0.27457 0.49839 0.09028 0.0
N758 N 0.30609 0.4859 0.07795 0.0
C759 C 0.28531 0.50743 0.02593 0.0
C760 C 0.24652 0.5118 0.07019 0.0
C761 C 0.31164 0.48836 0.04619 0.0
C762 C 0.25232 0.51682 0.0377 0.0
C763 C 0.23775 0.51306 0.13598 0.0
C764 C 0.27049 0.50064 0.12309 0.0
C765 C 0.20963 0.52316 0.11585 0.0
C766 C 0.21403 0.52338 0.08313 0.0
Eu767 Eu 0.35101 0.48637 0.11451 0.0
N768 N 0.29842 0.49298 0.14225 0.0
C769 C 0.23426 0.51687 0.16877 0.0
C770 C 0.29505 0.49796 0.17425 0.0
C771 C 0.26306 0.50948 0.18795 0.0
H772 H 0.33716 0.48179 0.03683 0.0
H773 H 0.2607 0.51322 0.21336 0.0
H774 H 0.41162 0.33315 0.21735 0.0
H775 H 0.47115 0.23454 0.04094 0.0
H776 H 0.3166 0.49454 0.18967 0.0
H777 H 0.20953 0.52631 0.1795 0.0
H778 H 0.41909 0.27562 0.06541 0.0
H779 H 0.29072 0.5172 1.00145 0.0
H780 H 0.18444 0.53243 0.12536 0.0
H781 H 0.1922 0.53359 0.06803 0.0
H782 H 0.46259 0.32601 0.25081 0.0
H783 H 0.23183 0.53029 0.02167 0.0
H784 H 0.52194 0.2098 0.07375 0.0
N785 N 0.43818 0.31225 0.17474 0.0
C786 C 0.46719 0.28603 0.16212 0.0
C787 C 0.46424 0.3154 0.22582 0.0
C788 C 0.49591 0.27382 0.18127 0.0
C789 C 0.43572 0.32268 0.20649 0.0
C790 C 0.49455 0.29245 0.21273 0.0
N791 N 0.44096 0.28614 0.11136 0.0
C792 C 0.44143 0.27086 0.07995 0.0
C793 C 0.49807 0.24217 0.11706 0.0
C794 C 0.4683 0.27096 0.13002 0.0
C795 C 0.4993 0.23059 0.0846 0.0
C796 C 0.47085 0.24507 0.06598 0.0
H797 H 0.5168 0.28843 0.22691 0.0
H798 H 0.54719 0.23332 0.18342 0.0
H799 H 0.54891 0.20473 0.12717 0.0
O800 O 0.37045 0.22825 0.12368 0.0
O801 O 0.43344 0.39521 0.12596 0.0
O802 O 0.40772 0.49566 0.12894 0.0
O803 O 0.39945 0.23666 0.16707 0.0
O804 O 0.37405 0.33475 0.08772 0.0
O805 O 0.38632 0.44026 0.07986 0.0
O806 O 0.34224 0.58848 0.1252 0.0
O807 O 0.31863 0.39341 0.1085 0.0
O808 O 0.33641 0.34065 0.15235 0.0
O809 O 0.35856 0.55828 0.07871 0.0
O810 O 0.37257 0.49066 0.16311 0.0
O811 O 0.37659 0.38735 0.1825 0.0
C812 C 0.43538 0.45849 0.12823 0.0
C813 C 0.37038 0.13939 0.16113 0.0
C814 C 0.36949 0.02196 0.162 0.0
C815 C 0.3564 0.02451 0.19291 0.0
C816 C 0.35696 0.14059 0.19185 0.0
C817 C 0.35053 0.08336 0.20779 0.0
C818 C 0.37699 0.07997 0.14638 0.0
C819 C 0.38191 0.38265 0.06865 0.0
C820 C 0.38466 0.19811 0.1474 0.0
C821 C 0.52508 0.2436 0.16867 0.0
C822 C 0.526 0.22708 0.1367 0.0
C823 C 0.31359 0.34835 0.1299 0.0
C824 C 0.37696 0.65981 0.09524 0.0
C825 C 0.39096 0.77053 0.10692 0.0
C826 C 0.41511 0.76987 0.0825 0.0
C827 C 0.40304 0.65867 0.07221 0.0
C828 C 0.37172 0.71554 0.11331 0.0
C829 C 0.42189 0.71364 0.06588 0.0
C830 C 0.37679 0.45091 0.18663 0.0
C831 C 0.35251 0.60657 0.09731 0.0
H832 H 0.3503 0.98086 0.20556 0.0
H833 H 0.35263 0.18579 0.20395 0.0
H834 H 0.34053 0.08458 0.2316 0.0
H835 H 0.38901 0.07903 0.12332 0.0
H836 H 0.42821 0.81367 0.07606 0.0
H837 H 0.4079 0.61632 0.058 0.0
H838 H 0.35143 0.7175 0.13078 0.0
H839 H 0.4409 0.71329 0.04728 0.0
Eu840 Eu 0.61911 0.32225 0.3633 0.0
C841 C 0.7308 0.50879 0.415 0.0
N842 N 0.69813 0.50688 0.42609 0.0
C843 C 0.71695 0.54239 0.47684 0.0
C844 C 0.75831 0.52264 0.43546 0.0
C845 C 0.69091 0.52092 0.45681 0.0
C846 C 0.75095 0.54101 0.46654 0.0
C847 C 0.77075 0.49304 0.3717 0.0
C848 C 0.73686 0.49672 0.38307 0.0
C849 C 0.79827 0.50262 0.39259 0.0
C850 C 0.79207 0.5188 0.42418 0.0
Eu851 Eu 0.65542 0.48833 0.38839 0.0
N852 N 0.7097 0.48648 0.36342 0.0
C853 C 0.77599 0.4799 0.33964 0.0
C854 C 0.71471 0.47799 0.3318 0.0
C855 C 0.74785 0.4745 0.31945 0.0
H856 H 0.66475 0.51985 0.46522 0.0
H857 H 0.75167 0.46604 0.29447 0.0
H858 H 0.60418 0.31019 0.28692 0.0
H859 H 0.53186 0.28276 0.46398 0.0
H860 H 0.69359 0.47307 0.31586 0.0
H861 H 0.8016 0.47434 0.33015 0.0
H862 H 0.58716 0.29483 0.4384 0.0
H863 H 0.71083 0.55886 0.50042 0.0
H864 H 0.82447 0.49899 0.38442 0.0
H865 H 0.81359 0.52808 0.43973 0.0
H866 H 0.56058 0.26655 0.25305 0.0
H867 H 0.77126 0.55464 0.48267 0.0
H868 H 0.47967 0.26908 0.43159 0.0
N869 N 0.57365 0.3057 0.32837 0.0
C870 C 0.54268 0.29142 0.34108 0.0
C871 C 0.55373 0.27768 0.27712 0.0
C872 C 0.51527 0.27176 0.32172 0.0
C873 C 0.57904 0.30207 0.29672 0.0
C874 C 0.52152 0.26263 0.28956 0.0
N875 N 0.56706 0.30462 0.39185 0.0
C876 C 0.56484 0.29721 0.42386 0.0
C877 C 0.50674 0.2794 0.38732 0.0
C878 C 0.53891 0.2932 0.37362 0.0
C879 C 0.50393 0.279 0.42019 0.0
C880 C 0.53326 0.28708 0.43853 0.0
H881 H 0.50202 0.24169 0.27461 0.0
H882 H 0.46182 0.24362 0.32061 0.0
H883 H 0.454 0.2525 0.37805 0.0
O884 O 0.62159 0.2225 0.38006 0.0
O885 O 0.58063 0.40386 0.35709 0.0
O886 O 0.5985 0.46844 0.39734 0.0
O887 O 0.63695 0.24528 0.33254 0.0
O888 O 0.63852 0.33318 0.41514 0.0
O889 O 0.62732 0.43884 0.42704 0.0
O890 O 0.65622 0.58431 0.36679 0.0
O891 O 0.6917 0.39944 0.39564 0.0
O892 O 0.67445 0.34412 0.35282 0.0
O893 O 0.64098 0.57229 0.4156 0.0
O894 O 0.63354 0.48818 0.33923 0.0
O895 O 0.63443 0.38434 0.32022 0.0
C896 C 0.57512 0.45191 0.37649 0.0
C897 C 0.61455 0.14144 0.34107 0.0
C898 C 0.60819 0.02586 0.34357 0.0
C899 C 0.58796 0.02686 0.31623 0.0
C900 C 0.59521 0.14139 0.31303 0.0
C901 C 0.58129 0.08481 0.30113 0.0
C902 C 0.62081 0.08314 0.35643 0.0
C903 C 0.63346 0.3799 0.43597 0.0
C904 C 0.63138 0.19993 0.35286 0.0
C905 C 0.48322 0.25851 0.33521 0.0
C906 C 0.47879 0.26351 0.36791 0.0
C907 C 0.69647 0.35139 0.37566 0.0
C908 C 0.66074 0.67458 0.40125 0.0
C909 C 0.65637 0.79028 0.39799 0.0
C910 C 0.67887 0.79639 0.42363 0.0
C911 C 0.68408 0.68101 0.42632 0.0
C912 C 0.64738 0.7295 0.38673 0.0
C913 C 0.69294 0.74171 0.43756 0.0
C914 C 0.63092 0.44712 0.31593 0.0
C915 C 0.64614 0.61243 0.3927 0.0
H916 H 0.57834 0.98262 0.3061 0.0
H917 H 0.5921 0.18404 0.29941 0.0
H918 H 0.56647 0.08559 0.27949 0.0
H919 H 0.63701 0.08185 0.3773 0.0
H920 H 0.68577 0.84341 0.43255 0.0
H921 H 0.6949 0.63959 0.4377 0.0
H922 H 0.62912 0.72505 0.36746 0.0
H923 H 0.71046 0.7463 0.45727 0.0
Eu924 Eu 0.39597 0.70431 0.35864 0.0
C925 C 0.28328 0.53724 0.41583 0.0
N926 N 0.3164 0.5309 0.42545 0.0
C927 C 0.29814 0.50862 0.47807 0.0
C928 C 0.2564 0.53583 0.43791 0.0
C929 C 0.3243 0.51827 0.45618 0.0
C930 C 0.26402 0.51888 0.4691 0.0
C931 C 0.24299 0.56494 0.37431 0.0
C932 C 0.27633 0.54805 0.38396 0.0
C933 C 0.21671 0.56916 0.39684 0.0
C934 C 0.22307 0.55242 0.42832 0.0
Eu935 Eu 0.35791 0.5408 0.38592 0.0
N936 N 0.30273 0.54788 0.36292 0.0
C937 C 0.23717 0.57783 0.34234 0.0
C938 C 0.29655 0.5546 0.33138 0.0
C939 C 0.26373 0.57036 0.32062 0.0
H940 H 0.35075 0.51329 0.46352 0.0
H941 H 0.25908 0.57788 0.29568 0.0
H942 H 0.41503 0.70183 0.28224 0.0
H943 H 0.47876 0.77067 0.45916 0.0
H944 H 0.31665 0.54922 0.31441 0.0
H945 H 0.21221 0.59259 0.33421 0.0
H946 H 0.42431 0.75481 0.43196 0.0
H947 H 0.30439 0.4947 0.502 0.0
H948 H 0.19124 0.58402 0.39011 0.0
H949 H 0.2022 0.55376 0.44516 0.0
H950 H 0.46626 0.69768 0.24832 0.0
H951 H 0.24383 0.51433 0.48647 0.0
H952 H 0.53313 0.76551 0.42939 0.0
N953 N 0.44326 0.71181 0.32469 0.0
C954 C 0.47435 0.72226 0.33814 0.0
C955 C 0.46884 0.70462 0.27356 0.0
C956 C 0.50417 0.72412 0.31957 0.0
C957 C 0.43995 0.70572 0.29281 0.0
C958 C 0.50109 0.71261 0.28717 0.0
N959 N 0.44684 0.72862 0.38779 0.0
C960 C 0.44748 0.74657 0.41888 0.0
C961 C 0.50818 0.74358 0.38501 0.0
C962 C 0.47625 0.73065 0.37058 0.0
C963 C 0.50913 0.75551 0.41746 0.0
C964 C 0.47854 0.75809 0.43435 0.0
H965 H 0.52336 0.70949 0.27246 0.0
H966 H 0.55888 0.74223 0.31984 0.0
H967 H 0.56257 0.7573 0.37713 0.0
O968 O 0.38705 0.80342 0.37467 0.0
O969 O 0.43292 0.61982 0.35286 0.0
O970 O 0.41571 0.55458 0.39338 0.0
O971 O 0.38398 0.78013 0.32512 0.0
O972 O 0.37964 0.69374 0.41157 0.0
O973 O 0.39098 0.58797 0.42188 0.0
O974 O 0.35454 0.44481 0.36447 0.0
O975 O 0.32488 0.63461 0.39354 0.0
O976 O 0.34066 0.68238 0.34876 0.0
O977 O 0.36872 0.4557 0.41369 0.0
O978 O 0.37863 0.53804 0.33635 0.0
O979 O 0.37647 0.6415 0.31712 0.0
C980 C 0.43907 0.57351 0.37306 0.0
C981 C 0.39999 0.88619 0.33805 0.0
C982 C 0.40149 1.0026 0.34247 0.0
C983 C 0.42545 1.00504 0.3179 0.0
C984 C 0.42464 0.88912 0.3139 0.0
C985 C 0.43721 0.94839 0.3039 0.0
C986 C 0.38886 0.94315 0.35261 0.0
C987 C 0.38682 0.64685 0.4318 0.0
C988 C 0.38309 0.82547 0.34616 0.0
C989 C 0.53588 0.73737 0.33384 0.0
C990 C 0.53794 0.74658 0.3665 0.0
C991 C 0.31904 0.67933 0.37203 0.0
C992 C 0.34706 0.35491 0.39865 0.0
C993 C 0.34954 0.23854 0.39608 0.0
C994 C 0.32477 0.23487 0.41994 0.0
C995 C 0.32174 0.35098 0.42208 0.0
C996 C 0.36054 0.29857 0.38537 0.0
C997 C 0.31072 0.29102 0.43268 0.0
C998 C 0.37894 0.57843 0.3127 0.0
C999 C 0.36322 0.41594 0.39062 0.0
H1000 H 0.43503 0.0508 0.30962 0.0
H1001 H 0.43361 0.84593 0.30222 0.0
H1002 H 0.45576 0.95046 0.28495 0.0
H1003 H 0.3696 0.94142 0.37104 0.0
H1004 H 0.31623 0.18861 0.42852 0.0
H1005 H 0.31112 0.39392 0.43269 0.0
H1006 H 0.38044 0.30132 0.36753 0.0
H1007 H 0.29156 0.28807 0.45106 0.0
Eu1008 Eu 0.35422 0.48915 0.88603 0.0
C1009 C 0.46895 0.27842 0.83601 0.0
N1010 N 0.4376 0.29326 0.82392 0.0
C1011 C 0.45613 0.26167 0.77242 0.0
C1012 C 0.49589 0.25803 0.81622 0.0
C1013 C 0.43096 0.28584 0.79259 0.0
C1014 C 0.48892 0.24855 0.78417 0.0
C1015 C 0.50582 0.26455 0.88174 0.0
C1016 C 0.4735 0.27945 0.86845 0.0
C1017 C 0.53343 0.24901 0.86189 0.0
C1018 C 0.52834 0.24475 0.82921 0.0
Eu1019 Eu 0.3941 0.31963 0.86008 0.0
N1020 N 0.44598 0.29278 0.88704 0.0
C1021 C 0.50917 0.26375 0.91462 0.0
C1022 C 0.44857 0.28575 0.91905 0.0
C1023 C 0.48023 0.27333 0.93334 0.0
H1024 H 0.40537 0.29347 0.78367 0.0
H1025 H 0.48208 0.26941 0.95878 0.0
H1026 H 0.33369 0.44441 0.96008 0.0
H1027 H 0.27067 0.55669 0.78707 0.0
H1028 H 0.42637 0.28695 0.93384 0.0
H1029 H 0.53359 0.25301 0.92573 0.0
H1030 H 0.32548 0.54595 0.81478 0.0
H1031 H 0.44996 0.25207 0.74794 0.0
H1032 H 0.55847 0.23786 0.87165 0.0
H1033 H 0.54948 0.22999 0.81425 0.0
H1034 H 0.28321 0.39923 0.98708 0.0
H1035 H 0.50835 0.2292 0.76855 0.0
H1036 H 0.21692 0.5265 0.81372 0.0
N1037 N 0.30668 0.46557 0.91792 0.0
C1038 C 0.27552 0.47275 0.90389 0.0
C1039 C 0.28065 0.42027 0.96383 0.0
C1040 C 0.24563 0.45249 0.91954 0.0
C1041 C 0.3094 0.44403 0.9482 0.0
C1042 C 0.24849 0.42549 0.94968 0.0
N1043 N 0.30365 0.50589 0.85653 0.0
C1044 C 0.3026 0.53042 0.82661 0.0
C1045 C 0.2422 0.49876 0.85724 0.0
C1046 C 0.27408 0.49346 0.87248 0.0
C1047 C 0.24104 0.52124 0.82612 0.0
C1048 C 0.27135 0.5379 0.81089 0.0
H1049 H 0.22611 0.40812 0.96209 0.0
H1050 H 0.19106 0.43873 0.91517 0.0
H1051 H 0.18851 0.48126 0.86149 0.0
O1052 O 0.34979 0.59262 0.87708 0.0
O1053 O 0.32428 0.39351 0.88799 0.0
O1054 O 0.34099 0.34872 0.84287 0.0
O1055 O 0.35735 0.55726 0.92534 0.0
O1056 O 0.37278 0.49132 0.83591 0.0
O1057 O 0.3886 0.38952 0.81744 0.0
O1058 O 0.3896 0.22054 0.87833 0.0
O1059 O 0.4364 0.39278 0.86771 0.0
O1060 O 0.41157 0.49347 0.87625 0.0
O1061 O 0.37001 0.24448 0.83233 0.0
O1062 O 0.37546 0.33559 0.91135 0.0
O1063 O 0.39022 0.44018 0.91956 0.0
C1064 C 0.31659 0.35853 0.86326 0.0
C1065 C 0.35366 0.67324 0.91852 0.0
C1066 C 0.36491 0.78764 0.91136 0.0
C1067 C 0.35468 0.79849 0.94273 0.0
C1068 C 0.34418 0.68522 0.9499 0.0
C1069 C 0.34448 0.7476 0.96182 0.0
C1070 C 0.36379 0.72474 0.89908 0.0
C1071 C 0.38248 0.45213 0.81326 0.0
C1072 C 0.35387 0.60673 0.90676 0.0
C1073 C 0.21417 0.45595 0.90393 0.0
C1074 C 0.21258 0.47981 0.87318 0.0
C1075 C 0.43832 0.4554 0.87155 0.0
C1076 C 0.38941 0.1373 0.83897 0.0
C1077 C 0.39543 0.02043 0.84216 0.0
C1078 C 0.4074 0.01905 0.811 0.0
C1079 C 0.40083 0.13409 0.80748 0.0
C1080 C 0.38693 0.07985 0.85634 0.0
C1081 C 0.41034 0.07572 0.79388 0.0
C1082 C 0.38512 0.38241 0.9305 0.0
C1083 C 0.37623 0.19861 0.8523 0.0
H1084 H 0.35441 0.84664 0.95249 0.0
H1085 H 0.33633 0.64632 0.96521 0.0
H1086 H 0.33683 0.75655 0.98599 0.0
H1087 H 0.37163 0.71579 0.87491 0.0
H1088 H 0.41403 0.97387 0.79978 0.0
H1089 H 0.4011 0.176 0.79268 0.0
H1090 H 0.37693 0.08098 0.88022 0.0
H1091 H 0.41901 0.07422 0.76962 0.0
Eu1092 Eu 0.65953 0.54331 0.88649 0.0
C1093 C 0.54679 0.76384 0.83592 0.0
N1094 N 0.57685 0.74073 0.82433 0.0
C1095 C 0.55915 0.76719 0.7717 0.0
C1096 C 0.5212 0.78817 0.81549 0.0
C1097 C 0.58331 0.74216 0.79273 0.0
C1098 C 0.52778 0.78974 0.78306 0.0
C1099 C 0.51012 0.78592 0.88091 0.0
C1100 C 0.54158 0.76373 0.86834 0.0
C1101 C 0.4845 0.80938 0.86059 0.0
C1102 C 0.49014 0.81102 0.82799 0.0
Eu1103 Eu 0.61912 0.71246 0.86173 0.0
N1104 N 0.56714 0.74207 0.88754 0.0
C1105 C 0.50538 0.78455 0.91359 0.0
C1106 C 0.5631 0.74438 0.91959 0.0
C1107 C 0.53208 0.76399 0.93301 0.0
H1108 H 0.60831 0.72987 0.78399 0.0
H1109 H 0.52912 0.76474 0.95843 0.0
H1110 H 0.67881 0.57509 0.96206 0.0
H1111 H 0.74472 0.50687 0.78444 0.0
H1112 H 0.58368 0.73369 0.93537 0.0
H1113 H 0.48152 0.80057 0.9241 0.0
H1114 H 0.68961 0.51033 0.81144 0.0
H1115 H 0.56514 0.77055 0.74681 0.0
H1116 H 0.4603 0.82673 0.86987 0.0
H1117 H 0.47022 0.82974 0.81262 0.0
H1118 H 0.73 0.60488 0.99326 0.0
H1119 H 0.50907 0.80922 0.76668 0.0
H1120 H 0.79827 0.52515 0.81421 0.0
N1121 N 0.70681 0.55981 0.91985 0.0
C1122 C 0.73817 0.55388 0.90614 0.0
C1123 C 0.73265 0.5892 0.96903 0.0
C1124 C 0.76818 0.56548 0.92385 0.0
C1125 C 0.70366 0.57437 0.95109 0.0
C1126 C 0.7651 0.58346 0.95557 0.0
N1127 N 0.7106 0.53557 0.85642 0.0
C1128 C 0.71218 0.52101 0.82495 0.0
C1129 C 0.77232 0.53909 0.85887 0.0
C1130 C 0.74005 0.542 0.87365 0.0
C1131 C 0.77389 0.52737 0.82638 0.0
C1132 C 0.74372 0.51759 0.80945 0.0
H1133 H 0.78755 0.59423 0.9697 0.0
H1134 H 0.82356 0.5705 0.92223 0.0
H1135 H 0.82662 0.54714 0.86579 0.0
O1136 O 0.66582 0.44058 0.87554 0.0
O1137 O 0.68974 0.63811 0.89236 0.0
O1138 O 0.67268 0.68298 0.84733 0.0
O1139 O 0.65565 0.47215 0.92407 0.0
O1140 O 0.63902 0.54049 0.8369 0.0
O1141 O 0.62637 0.64386 0.81888 0.0
O1142 O 0.62457 0.81111 0.88003 0.0
O1143 O 0.57683 0.63843 0.86622 0.0
O1144 O 0.60137 0.53919 0.87886 0.0
O1145 O 0.64231 0.7874 0.8333 0.0
O1146 O 0.63717 0.69781 0.91376 0.0
O1147 O 0.62426 0.59199 0.92062 0.0
C1148 C 0.6958 0.67846 0.86936 0.0
C1149 C 0.6616 0.35742 0.91581 0.0
C1150 C 0.64993 0.2433 0.90839 0.0
C1151 C 0.66144 0.23178 0.9393 0.0
C1152 C 0.67276 0.34467 0.94665 0.0
C1153 C 0.6729 0.28208 0.95815 0.0
C1154 C 0.65041 0.30646 0.89644 0.0
C1155 C 0.63065 0.58099 0.81436 0.0
C1156 C 0.66067 0.42426 0.9048 0.0
C1157 C 0.80016 0.56189 0.90908 0.0
C1158 C 0.80204 0.5487 0.87681 0.0
C1159 C 0.57466 0.57624 0.87194 0.0
C1160 C 0.62075 0.89296 0.84051 0.0
C1161 C 0.61225 1.00893 0.84384 0.0
C1162 C 0.59788 1.00901 0.81351 0.0
C1163 C 0.60788 0.89504 0.80944 0.0
C1164 C 0.62218 0.95039 0.85793 0.0
C1165 C 0.59542 0.95205 0.79652 0.0
C1166 C 0.62992 0.64884 0.93256 0.0
C1167 C 0.63622 0.83325 0.85339 0.0
H1168 H 0.66182 0.1835 0.94884 0.0
H1169 H 0.68154 0.38314 0.96188 0.0
H1170 H 0.68189 0.27234 0.98175 0.0
H1171 H 0.64124 0.31607 0.8727 0.0
H1172 H 0.58978 0.05361 0.80256 0.0
H1173 H 0.60881 0.85361 0.79438 0.0
H1174 H 0.63327 0.95025 0.88144 0.0
H1175 H 0.58536 0.95259 0.77268 0.0
Eu1176 Eu 0.35193 0.54764 0.61623 0.0
C1177 C 0.47738 0.70727 0.66632 0.0
N1178 N 0.44527 0.70465 0.67886 0.0
C1179 C 0.46851 0.69867 0.73111 0.0
C1180 C 0.50644 0.70432 0.68607 0.0
C1181 C 0.44047 0.70375 0.71076 0.0
C1182 C 0.50156 0.69709 0.71859 0.0
C1183 C 0.51428 0.71851 0.62048 0.0
C1184 C 0.48119 0.71256 0.63361 0.0
C1185 C 0.54323 0.71612 0.64023 0.0
C1186 C 0.53934 0.70836 0.67286 0.0
Eu1187 Eu 0.3999 0.70515 0.64224 0.0
N1188 N 0.45269 0.7133 0.61478 0.0
C1189 C 0.51734 0.72809 0.58793 0.0
C1190 C 0.45562 0.72834 0.58351 0.0
C1191 C 0.48786 0.73408 0.56947 0.0
H1192 H 0.41505 0.70834 0.72044 0.0
H1193 H 0.4899 0.74474 0.54453 0.0
H1194 H 0.33253 0.59292 0.54183 0.0
H1195 H 0.2672 0.52077 0.71885 0.0
H1196 H 0.4335 0.739 0.56928 0.0
H1197 H 0.5423 0.73322 0.57702 0.0
H1198 H 0.32228 0.52637 0.69187 0.0
H1199 H 0.46463 0.69609 0.75639 0.0
H1200 H 0.56878 0.72058 0.63049 0.0
H1201 H 0.56196 0.70653 0.68776 0.0
H1202 H 0.28082 0.62022 0.51113 0.0
H1203 H 0.52316 0.69045 0.7342 0.0
H1204 H 0.21345 0.52996 0.68831 0.0
N1205 N 0.30491 0.56836 0.58315 0.0
C1206 C 0.27365 0.55856 0.59648 0.0
C1207 C 0.27846 0.60117 0.53477 0.0
C1208 C 0.24341 0.56668 0.5785 0.0
C1209 C 0.30778 0.58774 0.55256 0.0
C1210 C 0.24617 0.58843 0.54735 0.0
N1211 N 0.30108 0.54504 0.64653 0.0
C1212 C 0.29961 0.53365 0.67822 0.0
C1213 C 0.23934 0.54145 0.6435 0.0
C1214 C 0.2717 0.54731 0.62898 0.0
C1215 C 0.23783 0.5331 0.67622 0.0
C1216 C 0.2681 0.52879 0.69361 0.0
H1217 H 0.22351 0.59755 0.53316 0.0
H1218 H 0.18792 0.56334 0.5793 0.0
H1219 H 0.18466 0.53938 0.63591 0.0
O1220 O 0.34945 0.44687 0.63121 0.0
O1221 O 0.32341 0.64595 0.61431 0.0
O1222 O 0.34418 0.69965 0.65701 0.0
O1223 O 0.34166 0.47174 0.58226 0.0
O1224 O 0.37725 0.54341 0.66396 0.0
O1225 O 0.37895 0.64589 0.68472 0.0
O1226 O 0.38379 0.80143 0.625 0.0
O1227 O 0.43331 0.61548 0.64243 0.0
O1228 O 0.41029 0.54053 0.60832 0.0
O1229 O 0.41613 0.79182 0.66596 0.0
O1230 O 0.38228 0.69538 0.58994 0.0
O1231 O 0.38633 0.58756 0.57919 0.0
C1232 C 0.31978 0.69114 0.63604 0.0
C1233 C 0.36932 0.37292 0.5927 0.0
C1234 C 0.38738 0.26078 0.59617 0.0
C1235 C 0.40956 0.2704 0.57057 0.0
C1236 C 0.39254 0.38191 0.56773 0.0
C1237 C 0.41243 0.33079 0.55675 0.0
C1238 C 0.36736 0.31242 0.60736 0.0
C1239 C 0.38022 0.58221 0.68819 0.0
C1240 C 0.34611 0.42542 0.60248 0.0
C1241 C 0.21139 0.558 0.5928 0.0
C1242 C 0.20945 0.54508 0.62513 0.0
C1243 C 0.43614 0.5635 0.62509 0.0
C1244 C 0.38904 0.89204 0.66033 0.0
C1245 C 0.38423 1.0095 0.65739 0.0
C1246 C 0.37131 1.00924 0.68851 0.0
C1247 C 0.37795 0.89406 0.69176 0.0
C1248 C 0.39308 0.94985 0.6435 0.0
C1249 C 0.36895 0.95236 0.70565 0.0
C1250 C 0.38698 0.64735 0.56984 0.0
C1251 C 0.4015 0.83134 0.64659 0.0
H1252 H 0.42524 0.23129 0.56168 0.0
H1253 H 0.39499 0.4282 0.55631 0.0
H1254 H 0.42995 0.33784 0.53729 0.0
H1255 H 0.3498 0.30515 0.62685 0.0
H1256 H 0.36277 0.05309 0.69984 0.0
H1257 H 0.37603 0.85045 0.70558 0.0
H1258 H 0.40437 0.94791 0.62019 0.0
H1259 H 0.35971 0.95338 0.72973 0.0
Eu1260 Eu 0.65528 0.48392 0.61457 0.0
C1261 C 0.54046 0.30077 0.66407 0.0
N1262 N 0.57132 0.30804 0.67847 0.0
C1263 C 0.54418 0.31853 0.7287 0.0
C1264 C 0.50991 0.30403 0.68158 0.0
C1265 C 0.57377 0.31283 0.71045 0.0
C1266 C 0.51212 0.31613 0.71397 0.0
C1267 C 0.50793 0.282 0.6162 0.0
C1268 C 0.53953 0.29213 0.63161 0.0
C1269 C 0.47737 0.28478 0.63364 0.0
C1270 C 0.47829 0.29644 0.66619 0.0
Eu1271 Eu 0.61915 0.31903 0.64553 0.0
N1272 N 0.56956 0.29189 0.61531 0.0
C1273 C 0.50807 0.26833 0.58387 0.0
C1274 C 0.5699 0.27222 0.58448 0.0
C1275 C 0.53925 0.26212 0.56809 0.0
H1276 H 0.59859 0.31415 0.72172 0.0
H1277 H 0.53973 0.24855 0.54341 0.0
H1278 H 0.67055 0.45643 0.53831 0.0
H1279 H 0.74494 0.50828 0.71405 0.0
H1280 H 0.59353 0.2621 0.57236 0.0
H1281 H 0.48443 0.26034 0.57111 0.0
H1282 H 0.68896 0.50924 0.6888 0.0
H1283 H 0.54612 0.32586 0.75395 0.0
H1284 H 0.45292 0.27766 0.62225 0.0
H1285 H 0.45447 0.2986 0.67931 0.0
H1286 H 0.72015 0.4273 0.50493 0.0
H1287 H 0.48925 0.32424 0.72764 0.0
H1288 H 0.79675 0.49133 0.68208 0.0
N1289 N 0.7009 0.47398 0.57893 0.0
C1290 C 0.73293 0.47958 0.59134 0.0
C1291 C 0.72411 0.44409 0.52883 0.0
C1292 C 0.762 0.46792 0.57237 0.0
C1293 C 0.69607 0.45855 0.548 0.0
C1294 C 0.75726 0.45155 0.54061 0.0
N1295 N 0.70779 0.49217 0.6424 0.0
C1296 C 0.71077 0.50146 0.6742 0.0
C1297 C 0.76914 0.48546 0.63787 0.0
C1298 C 0.7364 0.48793 0.62398 0.0
C1299 C 0.7721 0.49263 0.67058 0.0
C1300 C 0.74285 0.5017 0.68876 0.0
H1301 H 0.77895 0.44067 0.52552 0.0
H1302 H 0.81705 0.45461 0.57241 0.0
H1303 H 0.8224 0.46654 0.62969 0.0
O1304 O 0.65223 0.5873 0.62766 0.0
O1305 O 0.6894 0.39146 0.61065 0.0
O1306 O 0.67415 0.3451 0.65615 0.0
O1307 O 0.65285 0.55673 0.57829 0.0
O1308 O 0.63448 0.49039 0.66423 0.0
O1309 O 0.63104 0.38903 0.68687 0.0
O1310 O 0.62378 0.21674 0.63238 0.0
O1311 O 0.58078 0.40237 0.64874 0.0
O1312 O 0.59717 0.47012 0.60848 0.0
O1313 O 0.63811 0.24829 0.67903 0.0
O1314 O 0.63729 0.32742 0.59343 0.0
O1315 O 0.62129 0.4301 0.58157 0.0
C1316 C 0.69628 0.34999 0.63331 0.0
C1317 C 0.64688 0.67097 0.58654 0.0
C1318 C 0.63615 0.78546 0.59546 0.0
C1319 C 0.63204 0.79394 0.5628 0.0
C1320 C 0.64305 0.68127 0.5539 0.0
C1321 C 0.6357 0.74226 0.54221 0.0
C1322 C 0.64375 0.72365 0.6074 0.0
C1323 C 0.63085 0.45289 0.68897 0.0
C1324 C 0.65022 0.60421 0.59808 0.0
C1325 C 0.79448 0.46555 0.58636 0.0
C1326 C 0.79776 0.47297 0.619 0.0
C1327 C 0.57393 0.44802 0.62824 0.0
C1328 C 0.62431 0.13722 0.67369 0.0
C1329 C 0.62209 0.02015 0.66872 0.0
C1330 C 0.61884 1.01508 0.70156 0.0
C1331 C 0.62097 0.13073 0.70662 0.0
C1332 C 0.62358 0.08143 0.65468 0.0
C1333 C 0.61786 0.07013 0.72031 0.0
C1334 C 0.62789 0.37149 0.57261 0.0
C1335 C 0.63495 0.19957 0.66007 0.0
H1336 H 0.62626 0.84097 0.55316 0.0
H1337 H 0.64495 0.64183 0.53726 0.0
H1338 H 0.63251 0.74937 0.51705 0.0
H1339 H 0.64607 0.71645 0.63268 0.0
H1340 H 0.61757 0.96834 0.71272 0.0
H1341 H 0.62196 0.17228 0.72201 0.0
H1342 H 0.62713 0.08529 0.62935 0.0
H1343 H 0.61582 0.06575 0.74569 0.0
C1344 C 0.24925 0.21374 0.10764 0.0
C1345 C 0.22296 0.21997 0.13049 0.0
C1346 C 0.27817 0.25548 0.1071 0.0
C1347 C 0.28199 0.30625 0.12907 0.0
H1348 H 0.24768 0.17597 0.09014 0.0
H1349 H 0.29791 0.24734 0.08956 0.0
S1350 S 0.21946 0.3492 0.19147 0.0
N1351 N 0.20262 0.28539 0.17441 0.0
N1352 N 0.25588 0.36232 0.17287 0.0
C1353 C 0.25559 0.31418 0.15123 0.0
C1354 C 0.22644 0.27184 0.152 0.0
C1355 C 0.76113 0.80025 0.15702 0.0
C1356 C 0.78671 0.79778 0.13364 0.0
C1357 C 0.73214 0.75958 0.15602 0.0
C1358 C 0.72729 0.71336 0.13182 0.0
H1359 H 0.76352 0.83383 0.17639 0.0
H1360 H 0.71348 0.76433 0.17475 0.0
S1361 S 0.78876 0.68345 0.06635 0.0
N1362 N 0.80633 0.74297 0.08644 0.0
N1363 N 0.75251 0.66643 0.08461 0.0
C1364 C 0.75326 0.7096 0.10864 0.0
C1365 C 0.78266 0.7516 0.10956 0.0
C1366 C 0.26541 0.72784 0.39871 0.0
C1367 C 0.28716 0.72234 0.37209 0.0
C1368 C 0.23627 0.76954 0.39892 0.0
C1369 C 0.2268 0.80658 0.37224 0.0
H1370 H 0.27107 0.70012 0.41973 0.0
H1371 H 0.22065 0.77189 0.42002 0.0
S1372 S 0.27444 0.81119 0.29656 0.0
N1373 N 0.29669 0.76026 0.31844 0.0
N1374 N 0.24178 0.83447 0.31858 0.0
C1375 C 0.24795 0.8009 0.3455 0.0
C1376 C 0.27801 0.76011 0.34549 0.0
C1377 C 0.78312 0.27184 0.35552 0.0
C1378 C 0.78594 0.21923 0.37654 0.0
C1379 C 0.75475 0.3145 0.35586 0.0
C1380 C 0.7275 0.30763 0.37729 0.0
H1381 H 0.80263 0.27992 0.33799 0.0
H1382 H 0.75381 0.3522 0.33847 0.0
S1383 S 0.71785 0.17145 0.43299 0.0
N1384 N 0.75609 0.1596 0.4173 0.0
N1385 N 0.70261 0.23776 0.41666 0.0
C1386 C 0.7289 0.25363 0.39731 0.0
C1387 C 0.75805 0.21035 0.39733 0.0
C1388 C 0.74077 0.74466 0.84082 0.0
C1389 C 0.72674 0.72208 0.86945 0.0
C1390 C 0.76995 0.78501 0.84014 0.0
C1391 C 0.78603 0.80652 0.86808 0.0
H1392 H 0.72938 0.73026 0.81858 0.0
H1393 H 0.77972 0.80023 0.81744 0.0
S1394 S 0.75919 0.76319 0.94947 0.0
N1395 N 0.73155 0.72512 0.92662 0.0
N1396 N 0.78514 0.80192 0.92538 0.0
C1397 C 0.77193 0.7851 0.89688 0.0
C1398 C 0.74277 0.74272 0.89756 0.0
C1399 C 0.25783 0.32235 0.84303 0.0
C1400 C 0.28589 0.31442 0.86379 0.0
C1401 C 0.22901 0.28057 0.84373 0.0
C1402 C 0.22662 0.22838 0.86517 0.0
H1403 H 0.25799 0.36149 0.8262 0.0
H1404 H 0.20837 0.28952 0.82718 0.0
S1405 S 0.29339 0.19011 0.92541 0.0
N1406 N 0.30939 0.25203 0.90652 0.0
N1407 N 0.25578 0.17561 0.90888 0.0
C1408 C 0.2546 0.22154 0.88638 0.0
C1409 C 0.28389 0.26379 0.88542 0.0
C1410 C 0.73908 0.27568 0.66104 0.0
C1411 C 0.72835 0.30783 0.63322 0.0
C1412 C 0.76889 0.23629 0.66195 0.0
C1413 C 0.78926 0.22578 0.63494 0.0
H1414 H 0.72439 0.28123 0.68256 0.0
H1415 H 0.77574 0.21296 0.68394 0.0
S1416 S 0.77261 0.29492 0.55574 0.0
N1417 N 0.7409 0.32339 0.57758 0.0
N1418 N 0.79627 0.25011 0.57944 0.0
C1419 C 0.77869 0.25649 0.60692 0.0
C1420 C 0.74859 0.29719 0.60603 0.0
C1421 C 0.2303 0.76122 0.61533 0.0
C1422 C 0.22787 0.81705 0.63391 0.0
C1423 C 0.26012 0.7222 0.61574 0.0
C1424 C 0.2886 0.73554 0.63539 0.0
H1425 H 0.20899 0.74751 0.60033 0.0
H1426 H 0.26078 0.6816 0.6002 0.0
S1427 S 0.2952 0.88029 0.68658 0.0
N1428 N 0.25677 0.88675 0.67068 0.0
N1429 N 0.31218 0.81327 0.67244 0.0
C1430 C 0.28638 0.79254 0.65355 0.0
C1431 C 0.25623 0.83288 0.65263 0.0
C1432 C 0.11801 0.94844 0.25506 0.0
C1433 C 0.13399 0.97696 0.2814 0.0
C1434 C 0.11563 0.98085 0.22564 0.0
C1435 C 0.12895 0.04355 0.22101 0.0
H1436 H 0.10705 0.90098 0.2571 0.0
H1437 H 0.10322 0.95618 0.20622 0.0
S1438 S 0.17411 0.14039 0.2815 0.0
N1439 N 0.16384 0.07355 0.29991 0.0
N1440 N 0.15932 0.13182 0.2453 0.0
C1441 C 0.14487 0.07259 0.24699 0.0
C1442 C 0.14742 0.04008 0.27681 0.0
C1443 C 0.8644 0.98184 0.2757 0.0
C1444 C 0.88142 0.04144 0.28021 0.0
C1445 C 0.86481 0.9487 0.24657 0.0
C1446 C 0.8822 0.9734 0.22031 0.0
H1447 H 0.85001 0.96048 0.29481 0.0
H1448 H 0.85055 0.90438 0.24441 0.0
S1449 S 0.9338 0.12317 0.21968 0.0
N1450 N 0.9182 0.12048 0.25582 0.0
N1451 N 0.91912 0.05893 0.20144 0.0
C1452 C 0.90017 0.03174 0.22467 0.0
C1453 C 0.8997 0.06552 0.25434 0.0
C1454 C 0.88698 0.98478 0.72293 0.0
C1455 C 0.88132 0.05184 0.71973 0.0
C1456 C 0.88563 0.95315 0.7523 0.0
C1457 C 0.88145 0.98699 0.78078 0.0
H1458 H 0.89122 0.95519 0.70223 0.0
H1459 H 0.88695 0.90159 0.75206 0.0
S1460 S 0.86257 0.16323 0.78598 0.0
N1461 N 0.86652 0.14956 0.7478 0.0
N1462 N 0.87032 0.0937 0.80323 0.0
C1463 C 0.87648 0.05488 0.77798 0.0
C1464 C 0.87507 0.08621 0.74767 0.0
C1465 C 0.10577 0.0246 0.77027 0.0
C1466 C 0.13431 0.05973 0.78144 0.0
C1467 C 0.10723 0.98828 0.74186 0.0
C1468 C 0.13777 0.98336 0.72415 0.0
H1469 H 0.08215 0.02496 0.7837 0.0
H1470 H 0.08425 0.96442 0.73362 0.0
S1471 S 0.22116 0.05525 0.74679 0.0
N1472 N 0.1942 0.08377 0.77334 0.0
N1473 N 0.19832 1.00883 0.7232 0.0
C1474 C 0.16675 1.01537 0.7362 0.0
C1475 C 0.16469 0.05514 0.76391 0.0
C1476 C 0.642 0.4496 0.25664 0.0
C1477 C 0.62706 0.47688 0.28367 0.0
C1478 C 0.64213 0.48272 0.22748 0.0
C1479 C 0.62736 0.54496 0.22368 0.0
H1480 H 0.65472 0.40334 0.2582 0.0
H1481 H 0.65469 0.45924 0.20779 0.0
S1482 S 0.58177 0.63383 0.2866 0.0
N1483 N 0.59467 0.56754 0.30421 0.0
N1484 N 0.59512 0.62894 0.24979 0.0
C1485 C 0.61142 0.5714 0.25038 0.0
C1486 C 0.61116 0.53766 0.28006 0.0
C1487 C 0.38264 0.48045 0.27694 0.0
C1488 C 0.3791 0.54807 0.28016 0.0
C1489 C 0.38148 0.4491 0.24732 0.0
C1490 C 0.37825 0.48359 0.2189 0.0
H1491 H 0.38571 0.45055 0.29767 0.0
H1492 H 0.38245 0.39738 0.24713 0.0
S1493 S 0.36564 0.66193 0.21392 0.0
N1494 N 0.3688 0.64755 0.25207 0.0
N1495 N 0.37036 0.59145 0.19668 0.0
C1496 C 0.37481 0.55175 0.22189 0.0
C1497 C 0.37443 0.5831 0.25221 0.0
C1498 C 0.38775 0.55084 0.77823 0.0
C1499 C 0.38502 0.48307 0.78102 0.0
C1500 C 0.38627 0.58277 0.74875 0.0
C1501 C 0.38303 0.54874 0.72016 0.0
H1502 H 0.39022 0.58019 0.79924 0.0
H1503 H 0.38696 0.63458 0.74868 0.0
S1504 S 0.37424 0.37002 0.71406 0.0
N1505 N 0.37736 0.3837 0.75229 0.0
N1506 N 0.3774 0.44109 0.69725 0.0
C1507 C 0.38118 0.4804 0.7227 0.0
C1508 C 0.38159 0.4484 0.75281 0.0
C1509 C 0.6216 0.48459 0.77857 0.0
C1510 C 0.62762 0.5514 0.78182 0.0
C1511 C 0.62226 0.4532 0.74894 0.0
C1512 C 0.62822 0.48697 0.72069 0.0
H1513 H 0.61701 0.45554 0.79933 0.0
H1514 H 0.61856 0.40186 0.74844 0.0
S1515 S 0.6458 0.663 0.71575 0.0
N1516 N 0.6414 0.64927 0.75385 0.0
N1517 N 0.63923 0.59322 0.6984 0.0
C1518 C 0.6331 0.55447 0.72358 0.0
C1519 C 0.63365 0.58579 0.75389 0.0
C1520 C 0.10029 0.13011 0.98571 0.0
C1521 C 0.12566 0.1625 0.96851 0.0
C1522 C 0.10002 0.13068 0.0188 0.0
C1523 C 0.12537 0.16297 0.03635 0.0
H1524 H 0.08112 0.10191 0.97344 0.0
H1525 H 0.08061 0.10282 0.03084 0.0
S1526 S 0.19825 0.25383 0.0028 0.0
N1527 N 0.17674 0.22871 0.97147 0.0
N1528 N 0.17682 0.22804 0.03395 0.0
C1529 C 0.15032 0.19755 0.01957 0.0
C1530 C 0.15029 0.19781 0.98559 0.0
C1531 C 0.84896 0.85008 0.98355 0.0
C1532 C 0.87949 0.85611 0.96601 0.0
C1533 C 0.84898 0.85334 0.01691 0.0
C1534 C 0.87972 0.86068 0.03403 0.0
H1535 H 0.82465 0.84718 0.97143 0.0
H1536 H 0.82467 0.85325 0.02927 0.0
S1537 S 0.96681 0.87008 0.99969 0.0
N1538 N 0.94129 0.86445 0.96867 0.0
N1539 N 0.9415 0.86897 0.03087 0.0
C1540 C 0.91043 0.86261 0.01683 0.0
C1541 C 0.91032 0.86031 0.98301 0.0
C1542 C 0.107 0.91297 0.48748 0.0
C1543 C 0.12817 0.86984 0.47079 0.0
C1544 C 0.10547 0.9126 0.52045 0.0
C1545 C 0.12526 0.8694 0.53853 0.0
H1546 H 0.0921 0.94899 0.47499 0.0
H1547 H 0.0896 0.94859 0.53189 0.0
S1548 S 0.18299 0.74311 0.5064 0.0
N1549 N 0.16762 0.77953 0.47467 0.0
N1550 N 0.16512 0.77921 0.53709 0.0
C1551 C 0.14506 0.8233 0.52221 0.0
C1552 C 0.14647 0.82352 0.48827 0.0
C1553 C 0.90238 0.10316 0.51504 0.0
C1554 C 0.88855 0.1538 0.53307 0.0
C1555 C 0.90138 0.10373 0.48211 0.0
C1556 C 0.88619 0.15473 0.46515 0.0
H1557 H 0.91344 0.0613 0.52645 0.0
H1558 H 0.9119 0.0623 0.46994 0.0
S1559 S 0.85026 0.30349 0.50068 0.0
N1560 N 0.86222 0.2599 0.53143 0.0
N1561 N 0.86001 0.26069 0.469 0.0
C1562 C 0.87403 0.20774 0.48265 0.0
C1563 C 0.87528 0.20734 0.51665 0.0
C1564 C 0.6454 0.70162 0.01919 0.0
C1565 C 0.62677 0.65543 0.03647 0.0
C1566 C 0.64534 0.70194 0.98556 0.0
C1567 C 0.62672 0.65594 0.96794 0.0
H1568 H 0.66109 0.73619 0.03165 0.0
H1569 H 0.66108 0.73663 0.97333 0.0
S1570 S 0.57086 0.52895 1.00157 0.0
N1571 N 0.58679 0.56606 0.03263 0.0
N1572 N 0.58716 0.56629 0.97084 0.0
C1573 C 0.60691 0.61165 0.9851 0.0
C1574 C 0.60679 0.61152 0.01886 0.0
C1575 C 0.40283 0.42345 0.98352 0.0
C1576 C 0.38775 0.37391 0.96564 0.0
C1577 C 0.40174 0.4238 0.0165 0.0
C1578 C 0.38555 0.37461 0.03367 0.0
H1579 H 0.41482 0.46393 0.97197 0.0
H1580 H 0.4131 0.46442 0.02858 0.0
S1581 S 0.34559 0.22942 0.99882 0.0
N1582 N 0.35866 0.27093 0.96788 0.0
N1583 N 0.35654 0.27175 0.03026 0.0
C1584 C 0.372 0.3227 0.01637 0.0
C1585 C 0.37314 0.32229 0.98237 0.0
C1586 C 0.604 0.39819 0.48727 0.0
C1587 C 0.63009 0.36644 0.4704 0.0
C1588 C 0.60204 0.39458 0.52021 0.0
C1589 C 0.62615 0.35926 0.53799 0.0
H1590 H 0.58539 0.42783 0.47494 0.0
H1591 H 0.58229 0.4224 0.53199 0.0
S1592 S 0.69917 0.26627 0.50538 0.0
N1593 N 0.68017 0.29728 0.47394 0.0
N1594 N 0.67636 0.29001 0.53614 0.0
C1595 C 0.65142 0.32457 0.52145 0.0
C1596 C 0.65347 0.32846 0.48761 0.0
C1597 C 0.40652 0.60749 0.51743 0.0
C1598 C 0.39114 0.65728 0.53497 0.0
C1599 C 0.40621 0.60721 0.48446 0.0
C1600 C 0.39036 0.65657 0.46681 0.0
H1601 H 0.41813 0.56667 0.52928 0.0
H1602 H 0.4178 0.56619 0.47278 0.0
S1603 S 0.34993 0.80274 0.50091 0.0
N1604 N 0.36228 0.76095 0.53216 0.0
N1605 N 0.36154 0.76028 0.46964 0.0
C1606 C 0.37668 0.70902 0.48383 0.0
C1607 C 0.37712 0.70942 0.51793 0.0
C1608 C 0.97429 0.04541 0.13345 0.0
C1609 C 0.96808 0.99244 0.11372 0.0
C1610 C 0.00724 0.07233 0.13616 0.0
C1611 C 0.03536 0.04853 0.11869 0.0
H1612 H 0.95373 0.06504 0.14764 0.0
H1613 H 0.01064 0.11113 0.15269 0.0
S1614 S 0.03187 0.91151 0.06237 0.0
N1615 N 0.99238 0.9174 0.07614 0.0
N1616 N 0.05378 0.96897 0.07994 0.0
C1617 C 0.02904 0.99635 0.09815 0.0
C1618 C 0.99561 0.96821 0.09598 0.0
C1619 C 0.98338 0.9964 0.39254 0.0
C1620 C 0.9744 0.0434 0.36985 0.0
C1621 C 0.01665 0.9692 0.39397 0.0
C1622 C 0.04278 0.98769 0.37292 0.0
H1623 H 0.96463 0.98056 0.40964 0.0
H1624 H 0.02204 0.934 0.41213 0.0
S1625 S 0.03251 0.10337 0.30711 0.0
N1626 N 0.99456 0.10314 0.32425 0.0
N1627 N 0.05675 0.05331 0.32755 0.0
C1628 C 0.03416 0.03374 0.34989 0.0
C1629 C 1.0002 0.06106 0.34817 0.0
C1630 C 0.01345 0.05828 0.85735 0.0
C1631 C 0.03929 0.03735 0.87857 0.0
C1632 C 0.98004 0.03219 0.85748 0.0
C1633 C 0.97072 0.98259 0.87835 0.0
H1634 H 0.01897 0.0951 0.84015 0.0
H1635 H 0.96149 0.05053 0.84064 0.0
S1636 S 0.02743 0.91181 0.93969 0.0
N1637 N 0.05205 0.96483 0.92192 0.0
N1638 N 0.98999 0.91518 0.92156 0.0
C1639 C 0.99616 0.96096 0.89958 0.0
C1640 C 0.0301 0.98824 0.89981 0.0
C1641 C 0.98107 0.99456 0.65019 0.0
C1642 C 0.97155 0.03873 0.62653 0.0
C1643 C 0.01499 0.97071 0.65257 0.0
C1644 C 0.04076 0.98848 0.63089 0.0
H1645 H 0.96237 0.97945 0.66753 0.0
H1646 H 0.02103 0.93837 0.67176 0.0
S1647 S 0.02841 0.1006 0.56335 0.0
N1648 N 0.99046 0.09803 0.58046 0.0
N1649 N 0.05346 0.0531 0.58445 0.0
C1650 C 0.03128 0.03241 0.60694 0.0
C1651 C 0.99695 0.05728 0.60483 0.0
C1652 C 0.47329 0.55838 0.13123 0.0
C1653 C 0.47039 0.49059 0.12954 0.0
C1654 C 0.50558 0.58936 0.13274 0.0
C1655 C 0.53657 0.55418 0.13233 0.0
H1656 H 0.45042 0.58815 0.13126 0.0
H1657 H 0.50612 0.64107 0.13366 0.0
S1658 S 0.5449 0.37788 0.12941 0.0
N1659 N 0.50314 0.39094 0.12799 0.0
N1660 N 0.56255 0.44909 0.13173 0.0
C1661 C 0.53421 0.4873 0.13116 0.0
C1662 C 0.50163 0.45568 0.12951 0.0
C1663 C 0.48888 0.51749 0.34706 0.0
C1664 C 0.47404 0.54443 0.37432 0.0
C1665 C 0.52129 0.48713 0.34811 0.0
C1666 C 0.5407 0.48428 0.37626 0.0
H1667 H 0.47499 0.51867 0.32487 0.0
H1668 H 0.53138 0.46631 0.32656 0.0
S1669 S 0.51395 0.55146 0.45376 0.0
N1670 N 0.48141 0.5679 0.43002 0.0
N1671 N 0.54264 0.51338 0.43189 0.0
C1672 C 0.5264 0.51275 0.40348 0.0
C1673 C 0.49303 0.54211 0.40254 0.0
C1674 C 0.50228 0.45306 0.88216 0.0
C1675 C 0.47296 0.48577 0.87096 0.0
C1676 C 0.53487 0.48235 0.88233 0.0
C1677 C 0.53971 0.54554 0.87101 0.0
H1678 H 0.49996 0.40497 0.89154 0.0
H1679 H 0.55634 0.45519 0.89171 0.0
S1680 S 0.47132 0.64858 0.83586 0.0
N1681 N 0.45109 0.58298 0.84668 0.0
N1682 N 0.5118 0.63698 0.84582 0.0
C1683 C 0.5105 0.57767 0.85892 0.0
C1684 C 0.47738 0.54818 0.85922 0.0
C1685 C 0.49305 0.54019 0.65117 0.0
C1686 C 0.47051 0.53041 0.62539 0.0
C1687 C 0.52615 0.51289 0.65202 0.0
C1688 C 0.53849 0.47507 0.62699 0.0
H1689 H 0.48501 0.56899 0.67115 0.0
H1690 H 0.54242 0.52222 0.67228 0.0
S1691 S 0.49045 0.43279 0.5543 0.0
N1692 N 0.46334 0.47821 0.57445 0.0
N1693 N 0.52568 0.42795 0.57594 0.0
C1694 C 0.51643 0.46426 0.6012 0.0
C1695 C 0.48244 0.4914 0.60047 0.0
C1696 C 0.15302 0.65654 0.15435 0.0
C1697 C 0.14403 0.67655 0.12379 0.0
C1698 C 0.14031 0.59896 0.16661 0.0
C1699 C 0.11854 0.55992 0.14847 0.0
H1700 H 0.1704 0.68502 0.16856 0.0
H1701 H 0.14805 0.58417 0.19011 0.0
S1702 S 0.08493 0.59491 0.06848 0.0
N1703 N 0.11016 0.65629 0.0767 0.0
N1704 N 0.08689 0.54679 0.09947 0.0
C1705 C 0.10876 0.58027 0.11822 0.0
C1706 C 0.12137 0.63914 0.10591 0.0
C1707 C 0.8933 0.34701 0.15228 0.0
C1708 C 0.88952 0.33738 0.1196 0.0
C1709 C 0.89169 0.40846 0.16538 0.0
C1710 C 0.88568 0.46301 0.14649 0.0
H1711 H 0.89791 0.3067 0.16792 0.0
H1712 H 0.89503 0.41297 0.19068 0.0
S1713 S 0.87751 0.46328 0.05875 0.0
N1714 N 0.88136 0.38685 0.06826 0.0
N1715 N 0.87908 0.50302 0.09248 0.0
C1716 C 0.88353 0.45417 0.1134 0.0
C1717 C 0.88497 0.39122 0.10013 0.0
C1718 C 0.10248 0.37795 0.3774 0.0
C1719 C 0.13154 0.34205 0.38645 0.0
C1720 C 0.10588 0.43713 0.36208 0.0
C1721 C 0.13844 0.46212 0.35541 0.0
H1722 H 0.077 0.36107 0.383 0.0
H1723 H 0.08298 0.46405 0.35589 0.0
S1724 S 0.22227 0.38938 0.37667 0.0
N1725 N 0.19366 0.3373 0.38943 0.0
N1726 N 0.20005 0.44772 0.35973 0.0
C1727 C 0.16759 0.42658 0.3642 0.0
C1728 C 0.16415 0.36661 0.37996 0.0
C1729 C 0.91117 0.58261 0.36767 0.0
C1730 C 0.88264 0.5643 0.34964 0.0
C1731 C 0.91119 0.64095 0.38413 0.0
C1732 C 0.88235 0.68195 0.38365 0.0
H1733 H 0.93363 0.55184 0.36886 0.0
H1734 H 0.93374 0.65375 0.39771 0.0
S1735 S 0.80095 0.65437 0.34054 0.0
N1736 N 0.82533 0.59196 0.33146 0.0
N1737 N 0.82432 0.69942 0.36433 0.0
C1738 C 0.85374 0.66417 0.36559 0.0
C1739 C 0.85412 0.6057 0.34816 0.0
C1740 C 0.85156 0.35937 0.8666 0.0
C1741 C 0.87735 0.34143 0.88807 0.0
C1742 C 0.85376 0.41689 0.84948 0.0
C1743 C 0.88182 0.45883 0.85315 0.0
H1744 H 0.82894 0.32984 0.8638 0.0
H1745 H 0.83281 0.4294 0.83381 0.0
S1746 S 0.95804 0.42966 0.9038 0.0
N1747 N 0.93322 0.36693 0.91013 0.0
N1748 N 0.93715 0.47557 0.87833 0.0
C1749 C 0.90828 0.44037 0.87389 0.0
C1750 C 0.90614 0.3815 0.89114 0.0
C1751 C 0.11629 0.62487 0.843 0.0
C1752 C 0.12518 0.56938 0.86026 0.0
C1753 C 0.11557 0.68557 0.85736 0.0
C1754 C 0.12335 0.69276 0.88959 0.0
H1755 H 0.10979 0.62145 0.81817 0.0
H1756 H 0.10846 0.72694 0.84325 0.0
S1757 S 0.15042 0.56499 0.94517 0.0
N1758 N 0.14317 0.52725 0.91156 0.0
N1759 N 0.14209 0.64129 0.93797 0.0
C1760 C 0.13265 0.63834 0.90705 0.0
C1761 C 0.13333 0.57664 0.89261 0.0
C1762 C 0.86532 0.6441 0.60167 0.0
C1763 C 0.88337 0.69363 0.6168 0.0
C1764 C 0.8651 0.5817 0.61411 0.0
C1765 C 0.88229 0.56715 0.64248 0.0
H1766 H 0.85195 0.65342 0.57967 0.0
H1767 H 0.85152 0.54501 0.6013 0.0
S1768 S 0.93728 0.67672 0.68852 0.0
N1769 N 0.92138 0.722 0.65991 0.0
N1770 N 0.92092 0.60467 0.68317 0.0
C1771 C 0.90135 0.61549 0.65711 0.0
C1772 C 0.90173 0.67883 0.64441 0.0
C1773 C 0.10358 0.39321 0.60853 0.0
C1774 C 0.12933 0.34785 0.61599 0.0
C1775 C 0.10039 0.45103 0.62535 0.0
C1776 C 0.12238 0.46506 0.65067 0.0
H1777 H 0.08603 0.38432 0.58916 0.0
H1778 H 0.08047 0.48483 0.61862 0.0
S1779 S 0.19425 0.36356 0.67966 0.0
N1780 N 0.1776 0.32188 0.65021 0.0
N1781 N 0.17076 0.42953 0.68249 0.0
C1782 C 0.14776 0.41974 0.65885 0.0
C1783 C 0.15135 0.36125 0.64146 0.0
C1784 C 0.60928 0.08142 0.1218 0.0
C1785 C 0.62626 0.06482 0.14993 0.0
C1786 C 0.61699 0.13895 0.10622 0.0
C1787 C 0.64195 0.18076 0.11839 0.0
H1788 H 0.59 0.0499 0.11191 0.0
H1789 H 0.60352 0.15079 0.08457 0.0
S1790 S 0.69569 0.15578 0.18945 0.0
N1791 N 0.6704 0.09243 0.18815 0.0
N1792 N 0.68467 0.20067 0.1589 0.0
C1793 C 0.65922 0.16435 0.14624 0.0
C1794 C 0.65145 0.10614 0.16201 0.0
C1795 C 0.39415 0.84602 0.15265 0.0
C1796 C 0.38283 0.83204 0.122 0.0
C1797 C 0.39077 0.90827 0.16494 0.0
C1798 C 0.37582 0.95825 0.147 0.0
H1799 H 0.40632 0.80909 0.16682 0.0
H1800 H 0.40016 0.91744 0.18861 0.0
S1801 S 0.34323 0.94298 0.06474 0.0
N1802 N 0.35594 0.87003 0.07417 0.0
N1803 N 0.35143 0.98804 0.09601 0.0
C1804 C 0.36504 0.94404 0.116 0.0
C1805 C 0.36777 0.88049 0.10395 0.0
C1806 C 0.60815 0.94541 0.3867 0.0
C1807 C 0.61922 0.96437 0.35666 0.0
C1808 C 0.61957 0.88748 0.39972 0.0
C1809 C 0.64241 0.8478 0.38299 0.0
H1810 H 0.59079 0.97564 0.40013 0.0
H1811 H 0.6109 0.87389 0.42306 0.0
S1812 S 0.67998 0.87836 0.30429 0.0
N1813 N 0.65475 0.94089 0.31097 0.0
N1814 N 0.67615 0.83135 0.33549 0.0
C1815 C 0.65342 0.86612 0.3529 0.0
C1816 C 0.64187 0.92491 0.3397 0.0
C1817 C 0.36613 0.10203 0.33935 0.0
C1818 C 0.38872 0.06261 0.35657 0.0
C1819 C 0.35389 0.15976 0.35217 0.0
C1820 C 0.36402 0.17947 0.38247 0.0
H1821 H 0.35767 0.08775 0.31599 0.0
H1822 H 0.3361 0.18876 0.33853 0.0
S1823 S 0.42481 0.09582 0.43581 0.0
N1824 N 0.42191 0.04823 0.40465 0.0
N1825 N 0.39932 0.15777 0.42857 0.0
C1826 C 0.38717 0.14126 0.3996 0.0
C1827 C 0.39941 0.08233 0.38667 0.0
C1828 C 0.36073 0.85566 0.86257 0.0
C1829 C 0.37623 0.84289 0.89193 0.0
C1830 C 0.36785 0.9126 0.84617 0.0
C1831 C 0.39008 0.95907 0.85894 0.0
H1832 H 0.34209 0.82269 0.8528 0.0
H1833 H 0.35489 0.92155 0.82395 0.0
S1834 S 0.44179 0.94295 0.93185 0.0
N1835 N 0.41863 0.87677 0.93058 0.0
N1836 N 0.43062 0.98515 0.90043 0.0
C1837 C 0.40698 0.94539 0.88735 0.0
C1838 C 0.40039 0.88692 0.90367 0.0
C1839 C 0.61354 0.14574 0.90271 0.0
C1840 C 0.63759 0.1882 0.88944 0.0
C1841 C 0.60525 0.08771 0.88786 0.0
C1842 C 0.62034 0.0708 0.85901 0.0
H1843 H 0.60168 0.15687 0.92519 0.0
H1844 H 0.58711 0.05574 0.89903 0.0
S1845 S 0.68478 0.16424 0.81438 0.0
N1846 N 0.67639 0.20887 0.84576 0.0
N1847 N 0.66022 0.10016 0.81751 0.0
C1848 C 0.6437 0.11335 0.84501 0.0
C1849 C 0.65237 0.17217 0.86025 0.0
C1850 C 0.39465 0.12884 0.65741 0.0
C1851 C 0.38737 0.07233 0.64013 0.0
C1852 C 0.39357 0.18969 0.64335 0.0
C1853 C 0.38591 0.19671 0.61118 0.0
H1854 H 0.40133 0.1264 0.68221 0.0
H1855 H 0.3994 0.23147 0.65764 0.0
S1856 S 0.36695 0.06672 0.55409 0.0
N1857 N 0.37412 0.0291 0.58778 0.0
N1858 N 0.37157 0.14378 0.56197 0.0
C1859 C 0.37953 0.1414 0.59323 0.0
C1860 C 0.38073 0.07919 0.60742 0.0
C1861 C 0.60211 0.87983 0.6146 0.0
C1862 C 0.63223 0.84227 0.6163 0.0
C1863 C 0.59922 0.93822 0.63104 0.0
C1864 C 0.62631 0.9608 0.6498 0.0
H1865 H 0.58075 0.86415 0.60017 0.0
H1866 H 0.57559 0.96559 0.6293 0.0
S1867 S 0.71101 0.88225 0.66108 0.0
N1868 N 0.68997 0.83294 0.63745 0.0
N1869 N 0.68432 0.94214 0.66877 0.0
C1870 C 0.65648 0.92372 0.65178 0.0
C1871 C 0.65947 0.86443 0.635 0.0
loop_
_geom_bond_atom_site_label_1
_geom_bond_atom_site_label_2
_geom_bond_distance
_geom_bond_site_symmetry_2
_ccdc_geom_bond_type
Eu0 N29 2.600 . S
Eu0 N35 2.562 . S
Eu0 O44 2.462 . S
Eu0 O45 2.373 . S
Eu0 O47 2.432 . S
Eu0 O48 2.291 . S
Eu0 O52 2.335 . S
Eu0 O55 2.372 . S
Eu0 C64 2.787 . S
C1 N2 1.365 . S
C1 C4 1.405 . S
C1 C8 1.448 . S
N2 C1 1.365 . S
N2 C5 1.319 . S
N2 Eu11 2.600 . S
C3 C5 1.397 . S
C3 C6 1.367 . S
C3 H23 0.931 1_554 S
C4 C1 1.405 . S
C4 C6 1.403 . S
C4 C10 1.441 . S
C5 N2 1.319 . S
C5 C3 1.397 . S
C5 H16 0.930 . S
C6 C3 1.367 . S
C6 C4 1.403 . S
C6 H27 0.929 . S
C7 C8 1.430 1_565 S
C7 C9 1.387 . S
C7 C13 1.404 . S
C8 C1 1.448 . S
C8 C7 1.430 1_545 S
C8 N12 1.351 . S
C9 C7 1.387 . S
C9 C10 1.373 1_565 S
C9 H24 0.931 . S
C10 C4 1.441 . S
C10 C9 1.373 1_545 S
C10 H25 0.931 1_545 S
Eu11 N2 2.600 . S
Eu11 N12 2.562 . S
Eu11 O46 2.335 . S
Eu11 O49 2.372 . S
Eu11 O50 2.462 1_545 S
Eu11 O51 2.373 . S
Eu11 O53 2.432 1_545 S
Eu11 O54 2.291 . S
Eu11 C75 2.787 1_545 S
N12 C8 1.351 . S
N12 Eu11 2.562 . S
N12 C14 1.325 1_545 S
C13 C7 1.404 . S
C13 C15 1.366 . S
C13 H21 0.930 . S
C14 N12 1.325 1_565 S
C14 C15 1.416 . S
C14 H20 0.929 . S
C15 C13 1.366 . S
C15 C14 1.416 . S
C15 H17 0.930 . S
H16 C5 0.930 . S
H17 C15 0.930 . S
H18 C33 0.930 . S
H19 C40 0.931 . S
H20 C14 0.929 . S
H21 C13 0.930 . S
H22 C36 0.929 . S
H23 C3 0.931 1_556 S
H24 C9 0.931 . S
H25 C10 0.931 1_565 S
H26 C31 0.931 . S
H27 C6 0.929 . S
H28 C39 0.930 . S
N29 Eu0 2.600 . S
N29 C30 1.365 . S
N29 C33 1.319 . S
C30 N29 1.365 . S
C30 C32 1.405 1_455 S
C30 C38 1.448 . S
C31 H26 0.931 . S
C31 C33 1.397 . S
C31 C34 1.367 . S
C32 C30 1.405 1_655 S
C32 C34 1.403 1_655 S
C32 C65 1.439 . S
C33 H18 0.930 . S
C33 N29 1.319 . S
C33 C31 1.397 . S
C34 C31 1.367 . S
C34 C32 1.403 1_455 S
C34 H41 0.929 1_455 S
N35 Eu0 2.562 . S
N35 C36 1.325 . S
N35 C38 1.351 . S
C36 H22 0.929 . S
C36 N35 1.325 . S
C36 C40 1.416 . S
C37 C38 1.430 1_655 S
C37 C39 1.404 . S
C37 C66 1.387 . S
C38 C30 1.448 . S
C38 N35 1.351 . S
C38 C37 1.430 1_455 S
C39 H28 0.930 . S
C39 C37 1.404 . S
C39 C40 1.366 1_655 S
C40 H19 0.931 . S
C40 C36 1.416 . S
C40 C39 1.366 1_455 S
H41 C34 0.929 1_655 S
H42 C65 0.931 . S
H43 C66 0.931 . S
O44 Eu0 2.462 . S
O44 C64 1.252 . S
O45 Eu0 2.373 . S
O45 C56 1.249 . S
O46 Eu11 2.335 . S
O46 C56 1.264 . S
O47 Eu0 2.432 . S
O47 C64 1.268 . S
O48 Eu0 2.291 . S
O48 C63 1.255 . S
O49 Eu11 2.372 . S
O49 C63 1.257 . S
O50 Eu11 2.462 1_565 S
O50 C75 1.252 . S
O51 Eu11 2.373 . S
O51 C67 1.249 . S
O52 Eu0 2.335 . S
O52 C67 1.264 . S
O53 Eu11 2.432 1_565 S
O53 C75 1.268 . S
O54 Eu11 2.291 . S
O54 C74 1.255 . S
O55 Eu0 2.372 . S
O55 C74 1.257 . S
C56 O45 1.249 . S
C56 O46 1.264 . S
C57 C60 1.382 . S
C57 C62 1.390 . S
C57 C64 1.506 . S
C58 C59 1.398 . S
C58 C62 1.392 . S
C59 C58 1.398 . S
C59 C61 1.372 . S
C59 H76 0.931 . S
C60 C57 1.382 . S
C60 C61 1.390 . S
C60 H77 0.931 . S
C61 C59 1.372 . S
C61 C60 1.390 . S
C61 H78 0.929 . S
C62 C57 1.390 . S
C62 C58 1.392 . S
C62 H79 0.930 . S
C63 O48 1.255 . S
C63 O49 1.257 . S
C64 Eu0 2.787 . S
C64 O44 1.252 . S
C64 O47 1.268 . S
C64 C57 1.506 . S
C65 C32 1.439 . S
C65 H42 0.931 . S
C65 C66 1.374 . S
C66 C37 1.387 . S
C66 H43 0.931 . S
C66 C65 1.374 . S
C67 O51 1.249 . S
C67 O52 1.264 . S
C68 C71 1.382 . S
C68 C72 1.390 . S
C68 C75 1.506 . S
C69 C70 1.398 . S
C69 C72 1.392 . S
C70 C69 1.398 . S
C70 C73 1.372 . S
C70 H80 0.931 . S
C71 C68 1.382 . S
C71 C73 1.390 . S
C71 H81 0.931 . S
C72 C68 1.390 . S
C72 C69 1.392 . S
C72 H82 0.930 . S
C73 C70 1.372 . S
C73 C71 1.390 . S
C73 H83 0.929 . S
C74 O54 1.255 . S
C74 O55 1.257 . S
C75 Eu11 2.787 1_565 S
C75 O50 1.252 . S
C75 O53 1.268 . S
C75 C68 1.506 . S
H76 C59 0.931 . S
H77 C60 0.931 . S
H78 C61 0.929 . S
H79 C62 0.930 . S
H80 C70 0.931 . S
H81 C71 0.931 . S
H82 C72 0.930 . S
H83 C73 0.929 . S
Eu84 N113 2.600 . S
Eu84 N119 2.562 . S
Eu84 O128 2.462 . S
Eu84 O129 2.373 . S
Eu84 O131 2.432 . S
Eu84 O132 2.291 . S
Eu84 O136 2.335 . S
Eu84 O139 2.372 . S
Eu84 C148 2.787 . S
C85 N86 1.365 . S
C85 C88 1.405 . S
C85 C92 1.448 . S
N86 C85 1.365 . S
N86 C89 1.319 . S
N86 Eu95 2.600 . S
C87 C89 1.397 . S
C87 C90 1.367 . S
C87 H107 0.931 1_554 S
C88 C85 1.405 . S
C88 C90 1.403 . S
C88 C94 1.441 . S
C89 N86 1.319 . S
C89 C87 1.397 . S
C89 H100 0.930 . S
C90 C87 1.367 . S
C90 C88 1.403 . S
C90 H111 0.929 . S
C91 C92 1.430 1_545 S
C91 C93 1.387 . S
C91 C97 1.404 . S
C92 C85 1.448 . S
C92 C91 1.430 1_565 S
C92 N96 1.351 . S
C93 C91 1.387 . S
C93 C94 1.373 1_545 S
C93 H108 0.931 . S
C94 C88 1.441 . S
C94 C93 1.373 1_565 S
C94 H109 0.931 1_565 S
Eu95 N86 2.600 . S
Eu95 N96 2.562 . S
Eu95 O130 2.335 . S
Eu95 O133 2.372 . S
Eu95 O134 2.462 1_565 S
Eu95 O135 2.373 . S
Eu95 O137 2.432 1_565 S
Eu95 O138 2.291 . S
Eu95 C159 2.787 1_565 S
N96 C92 1.351 . S
N96 Eu95 2.562 . S
N96 C98 1.325 1_565 S
C97 C91 1.404 . S
C97 C99 1.366 . S
C97 H105 0.930 . S
C98 N96 1.325 1_545 S
C98 C99 1.416 . S
C98 H104 0.929 . S
C99 C97 1.366 . S
C99 C98 1.416 . S
C99 H101 0.930 . S
H100 C89 0.930 . S
H101 C99 0.930 . S
H102 C117 0.930 . S
H103 C124 0.931 . S
H104 C98 0.929 . S
H105 C97 0.930 . S
H106 C120 0.929 . S
H107 C87 0.931 1_556 S
H108 C93 0.931 . S
H109 C94 0.931 1_545 S
H110 C115 0.931 . S
H111 C90 0.929 . S
H112 C123 0.930 . S
N113 Eu84 2.600 . S
N113 C114 1.365 . S
N113 C117 1.319 . S
C114 N113 1.365 . S
C114 C116 1.405 1_655 S
C114 C122 1.448 . S
C115 H110 0.931 . S
C115 C117 1.397 . S
C115 C118 1.367 . S
C116 C114 1.405 1_455 S
C116 C118 1.403 1_455 S
C116 C149 1.439 . S
C117 H102 0.930 . S
C117 N113 1.319 . S
C117 C115 1.397 . S
C118 C115 1.367 . S
C118 C116 1.403 1_655 S
C118 H125 0.929 1_655 S
N119 Eu84 2.562 . S
N119 C120 1.325 . S
N119 C122 1.351 . S
C120 H106 0.929 . S
C120 N119 1.325 . S
C120 C124 1.416 . S
C121 C122 1.430 1_455 S
C121 C123 1.404 . S
C121 C150 1.387 . S
C122 C114 1.448 . S
C122 N119 1.351 . S
C122 C121 1.430 1_655 S
C123 H112 0.930 . S
C123 C121 1.404 . S
C123 C124 1.366 1_455 S
C124 H103 0.931 . S
C124 C120 1.416 . S
C124 C123 1.366 1_655 S
H125 C118 0.929 1_455 S
H126 C149 0.931 . S
H127 C150 0.931 . S
O128 Eu84 2.462 . S
O128 C148 1.252 . S
O129 Eu84 2.373 . S
O129 C140 1.249 . S
O130 Eu95 2.335 . S
O130 C140 1.264 . S
O131 Eu84 2.432 . S
O131 C148 1.268 . S
O132 Eu84 2.291 . S
O132 C147 1.255 . S
O133 Eu95 2.372 . S
O133 C147 1.257 . S
O134 Eu95 2.462 1_545 S
O134 C159 1.252 . S
O135 Eu95 2.373 . S
O135 C151 1.249 . S
O136 Eu84 2.335 . S
O136 C151 1.264 . S
O137 Eu95 2.432 1_545 S
O137 C159 1.268 . S
O138 Eu95 2.291 . S
O138 C158 1.255 . S
O139 Eu84 2.372 . S
O139 C158 1.257 . S
C140 O129 1.249 . S
C140 O130 1.264 . S
C141 C144 1.382 . S
C141 C146 1.390 . S
C141 C148 1.506 . S
C142 C143 1.398 . S
C142 C146 1.392 . S
C143 C142 1.398 . S
C143 C145 1.372 . S
C143 H160 0.931 . S
C144 C141 1.382 . S
C144 C145 1.390 . S
C144 H161 0.931 . S
C145 C143 1.372 . S
C145 C144 1.390 . S
C145 H162 0.929 . S
C146 C141 1.390 . S
C146 C142 1.392 . S
C146 H163 0.930 . S
C147 O132 1.255 . S
C147 O133 1.257 . S
C148 Eu84 2.787 . S
C148 O128 1.252 . S
C148 O131 1.268 . S
C148 C141 1.506 . S
C149 C116 1.439 . S
C149 H126 0.931 . S
C149 C150 1.374 . S
C150 C121 1.387 . S
C150 H127 0.931 . S
C150 C149 1.374 . S
C151 O135 1.249 . S
C151 O136 1.264 . S
C152 C155 1.382 . S
C152 C156 1.390 . S
C152 C159 1.506 . S
C153 C154 1.398 . S
C153 C156 1.392 . S
C154 C153 1.398 . S
C154 C157 1.372 . S
C154 H164 0.931 . S
C155 C152 1.382 . S
C155 C157 1.390 . S
C155 H165 0.931 . S
C156 C152 1.390 . S
C156 C153 1.392 . S
C156 H166 0.930 . S
C157 C154 1.372 . S
C157 C155 1.390 . S
C157 H167 0.929 . S
C158 O138 1.255 . S
C158 O139 1.257 . S
C159 Eu95 2.787 1_545 S
C159 O134 1.252 . S
C159 O137 1.268 . S
C159 C152 1.506 . S
H160 C143 0.931 . S
H161 C144 0.931 . S
H162 C145 0.929 . S
H163 C146 0.930 . S
H164 C154 0.931 . S
H165 C155 0.931 . S
H166 C156 0.930 . S
H167 C157 0.929 . S
Eu168 N197 2.600 . S
Eu168 N203 2.562 . S
Eu168 O212 2.462 . S
Eu168 O213 2.373 . S
Eu168 O215 2.432 . S
Eu168 O216 2.291 . S
Eu168 O220 2.335 . S
Eu168 O223 2.372 . S
Eu168 C232 2.787 . S
C169 N170 1.365 . S
C169 C172 1.405 . S
C169 C176 1.448 . S
N170 C169 1.365 . S
N170 C173 1.319 . S
N170 Eu179 2.600 . S
C171 C173 1.397 . S
C171 C174 1.367 . S
C171 H191 0.931 . S
C172 C169 1.405 . S
C172 C174 1.403 . S
C172 C178 1.441 . S
C173 N170 1.319 . S
C173 C171 1.397 . S
C173 H184 0.930 . S
C174 C171 1.367 . S
C174 C172 1.403 . S
C174 H195 0.929 . S
C175 C176 1.430 1_545 S
C175 C177 1.387 . S
C175 C181 1.404 . S
C176 C169 1.448 . S
C176 C175 1.430 1_565 S
C176 N180 1.351 . S
C177 C175 1.387 . S
C177 C178 1.373 1_545 S
C177 H192 0.931 . S
C178 C172 1.441 . S
C178 C177 1.373 1_565 S
C178 H193 0.931 1_565 S
Eu179 N170 2.600 . S
Eu179 N180 2.562 . S
Eu179 O214 2.335 . S
Eu179 O217 2.372 . S
Eu179 O218 2.462 1_565 S
Eu179 O219 2.373 . S
Eu179 O221 2.432 1_565 S
Eu179 O222 2.291 . S
Eu179 C243 2.787 1_565 S
N180 C176 1.351 . S
N180 Eu179 2.562 . S
N180 C182 1.325 1_565 S
C181 C175 1.404 . S
C181 C183 1.366 . S
C181 H189 0.930 . S
C182 N180 1.325 1_545 S
C182 C183 1.416 . S
C182 H188 0.929 . S
C183 C181 1.366 . S
C183 C182 1.416 . S
C183 H185 0.930 . S
H184 C173 0.930 . S
H185 C183 0.930 . S
H186 C201 0.930 . S
H187 C208 0.931 . S
H188 C182 0.929 . S
H189 C181 0.930 . S
H190 C204 0.929 . S
H191 C171 0.931 . S
H192 C177 0.931 . S
H193 C178 0.931 1_545 S
H194 C199 0.931 . S
H195 C174 0.929 . S
H196 C207 0.930 . S
N197 Eu168 2.600 . S
N197 C198 1.365 . S
N197 C201 1.319 . S
C198 N197 1.365 . S
C198 C200 1.405 1_455 S
C198 C206 1.448 . S
C199 H194 0.931 . S
C199 C201 1.397 . S
C199 C202 1.367 . S
C200 C198 1.405 1_655 S
C200 C202 1.403 1_655 S
C200 C233 1.439 . S
C201 H186 0.930 . S
C201 N197 1.319 . S
C201 C199 1.397 . S
C202 C199 1.367 . S
C202 C200 1.403 1_455 S
C202 H209 0.929 1_455 S
N203 Eu168 2.562 . S
N203 C204 1.325 . S
N203 C206 1.351 . S
C204 H190 0.929 . S
C204 N203 1.325 . S
C204 C208 1.416 . S
C205 C206 1.430 1_655 S
C205 C207 1.404 . S
C205 C234 1.387 . S
C206 C198 1.448 . S
C206 N203 1.351 . S
C206 C205 1.430 1_455 S
C207 H196 0.930 . S
C207 C205 1.404 . S
C207 C208 1.366 1_655 S
C208 H187 0.931 . S
C208 C204 1.416 . S
C208 C207 1.366 1_455 S
H209 C202 0.929 1_655 S
H210 C233 0.931 . S
H211 C234 0.931 . S
O212 Eu168 2.462 . S
O212 C232 1.252 . S
O213 Eu168 2.373 . S
O213 C224 1.249 . S
O214 Eu179 2.335 . S
O214 C224 1.264 . S
O215 Eu168 2.432 . S
O215 C232 1.268 . S
O216 Eu168 2.291 . S
O216 C231 1.255 . S
O217 Eu179 2.372 . S
O217 C231 1.257 . S
O218 Eu179 2.462 1_545 S
O218 C243 1.252 . S
O219 Eu179 2.373 . S
O219 C235 1.249 . S
O220 Eu168 2.335 . S
O220 C235 1.264 . S
O221 Eu179 2.432 1_545 S
O221 C243 1.268 . S
O222 Eu179 2.291 . S
O222 C242 1.255 . S
O223 Eu168 2.372 . S
O223 C242 1.257 . S
C224 O213 1.249 . S
C224 O214 1.264 . S
C225 C228 1.382 . S
C225 C230 1.390 . S
C225 C232 1.506 . S
C226 C227 1.398 . S
C226 C230 1.392 . S
C227 C226 1.398 . S
C227 C229 1.372 . S
C227 H244 0.931 . S
C228 C225 1.382 . S
C228 C229 1.390 . S
C228 H245 0.931 . S
C229 C227 1.372 . S
C229 C228 1.390 . S
C229 H246 0.929 . S
C230 C225 1.390 . S
C230 C226 1.392 . S
C230 H247 0.930 . S
C231 O216 1.255 . S
C231 O217 1.257 . S
C232 Eu168 2.787 . S
C232 O212 1.252 . S
C232 O215 1.268 . S
C232 C225 1.506 . S
C233 C200 1.439 . S
C233 H210 0.931 . S
C233 C234 1.374 . S
C234 C205 1.387 . S
C234 H211 0.931 . S
C234 C233 1.374 . S
C235 O219 1.249 . S
C235 O220 1.264 . S
C236 C239 1.382 . S
C236 C240 1.390 . S
C236 C243 1.506 . S
C237 C238 1.398 . S
C237 C240 1.392 . S
C238 C237 1.398 . S
C238 C241 1.372 . S
C238 H248 0.931 . S
C239 C236 1.382 . S
C239 C241 1.390 . S
C239 H249 0.931 . S
C240 C236 1.390 . S
C240 C237 1.392 . S
C240 H250 0.930 . S
C241 C238 1.372 . S
C241 C239 1.390 . S
C241 H251 0.929 . S
C242 O222 1.255 . S
C242 O223 1.257 . S
C243 Eu179 2.787 1_545 S
C243 O218 1.252 . S
C243 O221 1.268 . S
C243 C236 1.506 . S
H244 C227 0.931 . S
H245 C228 0.931 . S
H246 C229 0.929 . S
H247 C230 0.930 . S
H248 C238 0.931 . S
H249 C239 0.931 . S
H250 C240 0.930 . S
H251 C241 0.929 . S
Eu252 N281 2.600 . S
Eu252 N287 2.562 . S
Eu252 O296 2.462 . S
Eu252 O297 2.373 . S
Eu252 O299 2.432 . S
Eu252 O300 2.291 . S
Eu252 O304 2.335 . S
Eu252 O307 2.372 . S
Eu252 C316 2.787 . S
C253 N254 1.365 . S
C253 C256 1.405 . S
C253 C260 1.448 . S
N254 C253 1.365 . S
N254 C257 1.319 . S
N254 Eu263 2.600 . S
C255 C257 1.397 . S
C255 C258 1.367 . S
C255 H275 0.931 . S
C256 C253 1.405 . S
C256 C258 1.403 . S
C256 C262 1.441 . S
C257 N254 1.319 . S
C257 C255 1.397 . S
C257 H268 0.930 . S
C258 C255 1.367 . S
C258 C256 1.403 . S
C258 H279 0.929 . S
C259 C260 1.430 1_565 S
C259 C261 1.387 . S
C259 C265 1.404 . S
C260 C253 1.448 . S
C260 C259 1.430 1_545 S
C260 N264 1.351 . S
C261 C259 1.387 . S
C261 C262 1.373 1_565 S
C261 H276 0.931 . S
C262 C256 1.441 . S
C262 C261 1.373 1_545 S
C262 H277 0.931 1_545 S
Eu263 N254 2.600 . S
Eu263 N264 2.562 . S
Eu263 O298 2.335 . S
Eu263 O301 2.372 . S
Eu263 O302 2.462 1_545 S
Eu263 O303 2.373 . S
Eu263 O305 2.432 1_545 S
Eu263 O306 2.291 . S
Eu263 C327 2.787 1_545 S
N264 C260 1.351 . S
N264 Eu263 2.562 . S
N264 C266 1.325 1_545 S
C265 C259 1.404 . S
C265 C267 1.366 . S
C265 H273 0.930 . S
C266 N264 1.325 1_565 S
C266 C267 1.416 . S
C266 H272 0.929 . S
C267 C265 1.366 . S
C267 C266 1.416 . S
C267 H269 0.930 . S
H268 C257 0.930 . S
H269 C267 0.930 . S
H270 C285 0.930 . S
H271 C292 0.931 . S
H272 C266 0.929 . S
H273 C265 0.930 . S
H274 C288 0.929 . S
H275 C255 0.931 . S
H276 C261 0.931 . S
H277 C262 0.931 1_565 S
H278 C283 0.931 . S
H279 C258 0.929 . S
H280 C291 0.930 . S
N281 Eu252 2.600 . S
N281 C282 1.365 . S
N281 C285 1.319 . S
C282 N281 1.365 . S
C282 C284 1.405 1_655 S
C282 C290 1.448 . S
C283 H278 0.931 . S
C283 C285 1.397 . S
C283 C286 1.367 . S
C284 C282 1.405 1_455 S
C284 C286 1.403 1_455 S
C284 C317 1.439 . S
C285 H270 0.930 . S
C285 N281 1.319 . S
C285 C283 1.397 . S
C286 C283 1.367 . S
C286 C284 1.403 1_655 S
C286 H293 0.929 1_655 S
N287 Eu252 2.562 . S
N287 C288 1.325 . S
N287 C290 1.351 . S
C288 H274 0.929 . S
C288 N287 1.325 . S
C288 C292 1.416 . S
C289 C290 1.430 1_455 S
C289 C291 1.404 . S
C289 C318 1.387 . S
C290 C282 1.448 . S
C290 N287 1.351 . S
C290 C289 1.430 1_655 S
C291 H280 0.930 . S
C291 C289 1.404 . S
C291 C292 1.366 1_455 S
C292 H271 0.931 . S
C292 C288 1.416 . S
C292 C291 1.366 1_655 S
H293 C286 0.929 1_455 S
H294 C317 0.931 . S
H295 C318 0.931 . S
O296 Eu252 2.462 . S
O296 C316 1.252 . S
O297 Eu252 2.373 . S
O297 C308 1.249 . S
O298 Eu263 2.335 . S
O298 C308 1.264 . S
O299 Eu252 2.432 . S
O299 C316 1.268 . S
O300 Eu252 2.291 . S
O300 C315 1.255 . S
O301 Eu263 2.372 . S
O301 C315 1.257 . S
O302 Eu263 2.462 1_565 S
O302 C327 1.252 . S
O303 Eu263 2.373 . S
O303 C319 1.249 . S
O304 Eu252 2.335 . S
O304 C319 1.264 . S
O305 Eu263 2.432 1_565 S
O305 C327 1.268 . S
O306 Eu263 2.291 . S
O306 C326 1.255 . S
O307 Eu252 2.372 . S
O307 C326 1.257 . S
C308 O297 1.249 . S
C308 O298 1.264 . S
C309 C312 1.382 . S
C309 C314 1.390 . S
C309 C316 1.506 . S
C310 C311 1.398 . S
C310 C314 1.392 . S
C311 C310 1.398 . S
C311 C313 1.372 . S
C311 H328 0.931 . S
C312 C309 1.382 . S
C312 C313 1.390 . S
C312 H329 0.931 . S
C313 C311 1.372 . S
C313 C312 1.390 . S
C313 H330 0.929 . S
C314 C309 1.390 . S
C314 C310 1.392 . S
C314 H331 0.930 . S
C315 O300 1.255 . S
C315 O301 1.257 . S
C316 Eu252 2.787 . S
C316 O296 1.252 . S
C316 O299 1.268 . S
C316 C309 1.506 . S
C317 C284 1.439 . S
C317 H294 0.931 . S
C317 C318 1.374 . S
C318 C289 1.387 . S
C318 H295 0.931 . S
C318 C317 1.374 . S
C319 O303 1.249 . S
C319 O304 1.264 . S
C320 C323 1.382 . S
C320 C324 1.390 . S
C320 C327 1.506 . S
C321 C322 1.398 . S
C321 C324 1.392 . S
C322 C321 1.398 . S
C322 C325 1.372 . S
C322 H332 0.931 . S
C323 C320 1.382 . S
C323 C325 1.390 . S
C323 H333 0.931 . S
C324 C320 1.390 . S
C324 C321 1.392 . S
C324 H334 0.930 . S
C325 C322 1.372 . S
C325 C323 1.390 . S
C325 H335 0.929 . S
C326 O306 1.255 . S
C326 O307 1.257 . S
C327 Eu263 2.787 1_565 S
C327 O302 1.252 . S
C327 O305 1.268 . S
C327 C320 1.506 . S
H328 C311 0.931 . S
H329 C312 0.931 . S
H330 C313 0.929 . S
H331 C314 0.930 . S
H332 C322 0.931 . S
H333 C323 0.931 . S
H334 C324 0.930 . S
H335 C325 0.929 . S
Eu336 N365 2.600 . S
Eu336 N371 2.562 . S
Eu336 O380 2.462 1_565 S
Eu336 O381 2.373 . S
Eu336 O383 2.432 1_565 S
Eu336 O384 2.291 . S
Eu336 O388 2.335 . S
Eu336 O391 2.372 . S
Eu336 C400 2.787 1_565 S
C337 N338 1.365 . S
C337 C340 1.405 1_655 S
C337 C344 1.448 . S
N338 C337 1.365 . S
N338 C341 1.319 . S
N338 Eu347 2.600 . S
C339 C341 1.397 . S
C339 C342 1.367 . S
C339 H359 0.931 . S
C340 C337 1.405 1_455 S
C340 C342 1.403 1_455 S
C340 C346 1.439 . S
C341 N338 1.319 . S
C341 C339 1.397 . S
C341 H352 0.930 . S
C342 C339 1.367 . S
C342 C340 1.403 1_655 S
C342 H363 0.929 1_655 S
C343 C344 1.430 1_455 S
C343 C345 1.387 . S
C343 C349 1.404 . S
C344 C337 1.448 . S
C344 C343 1.430 1_655 S
C344 N348 1.351 . S
C345 C343 1.387 . S
C345 C346 1.374 . S
C345 H360 0.931 . S
C346 C340 1.439 . S
C346 C345 1.374 . S
C346 H361 0.931 . S
Eu347 N338 2.600 . S
Eu347 N348 2.562 . S
Eu347 O382 2.335 . S
Eu347 O385 2.372 . S
Eu347 O386 2.462 . S
Eu347 O387 2.373 . S
Eu347 O389 2.432 . S
Eu347 O390 2.291 . S
Eu347 C411 2.787 . S
N348 C344 1.351 . S
N348 Eu347 2.562 . S
N348 C350 1.325 . S
C349 C343 1.404 . S
C349 C351 1.366 1_455 S
C349 H357 0.930 . S
C350 N348 1.325 . S
C350 C351 1.416 . S
C350 H356 0.929 . S
C351 C349 1.366 1_655 S
C351 C350 1.416 . S
C351 H353 0.931 . S
H352 C341 0.930 . S
H353 C351 0.931 . S
H354 C369 0.930 . S
H355 C376 0.930 . S
H356 C350 0.929 . S
H357 C349 0.930 . S
H358 C372 0.929 . S
H359 C339 0.931 . S
H360 C345 0.931 . S
H361 C346 0.931 . S
H362 C367 0.931 1_554 S
H363 C342 0.929 1_455 S
H364 C375 0.930 . S
N365 Eu336 2.600 . S
N365 C366 1.365 . S
N365 C369 1.319 . S
C366 N365 1.365 . S
C366 C368 1.405 . S
C366 C374 1.448 . S
C367 H362 0.931 1_556 S
C367 C369 1.397 . S
C367 C370 1.367 . S
C368 C366 1.405 . S
C368 C370 1.403 . S
C368 C401 1.441 . S
C369 H354 0.930 . S
C369 N365 1.319 . S
C369 C367 1.397 . S
C370 C367 1.367 . S
C370 C368 1.403 . S
C370 H377 0.929 . S
N371 Eu336 2.562 . S
N371 C372 1.325 1_565 S
N371 C374 1.351 . S
C372 H358 0.929 . S
C372 N371 1.325 1_545 S
C372 C376 1.416 . S
C373 C374 1.430 1_545 S
C373 C375 1.404 . S
C373 C402 1.387 . S
C374 C366 1.448 . S
C374 N371 1.351 . S
C374 C373 1.430 1_565 S
C375 H364 0.930 . S
C375 C373 1.404 . S
C375 C376 1.366 . S
C376 H355 0.930 . S
C376 C372 1.416 . S
C376 C375 1.366 . S
H377 C370 0.929 . S
H378 C401 0.931 1_545 S
H379 C402 0.931 . S
O380 Eu336 2.462 1_545 S
O380 C400 1.252 . S
O381 Eu336 2.373 . S
O381 C392 1.249 . S
O382 Eu347 2.335 . S
O382 C392 1.264 . S
O383 Eu336 2.432 1_545 S
O383 C400 1.268 . S
O384 Eu336 2.291 . S
O384 C399 1.255 . S
O385 Eu347 2.372 . S
O385 C399 1.257 . S
O386 Eu347 2.462 . S
O386 C411 1.252 . S
O387 Eu347 2.373 . S
O387 C403 1.249 . S
O388 Eu336 2.335 . S
O388 C403 1.264 . S
O389 Eu347 2.432 . S
O389 C411 1.268 . S
O390 Eu347 2.291 . S
O390 C410 1.255 . S
O391 Eu336 2.372 . S
O391 C410 1.257 . S
C392 O381 1.249 . S
C392 O382 1.264 . S
C393 C396 1.382 . S
C393 C398 1.390 . S
C393 C400 1.506 . S
C394 C395 1.398 . S
C394 C398 1.392 . S
C395 C394 1.398 . S
C395 C397 1.372 . S
C395 H412 0.931 . S
C396 C393 1.382 . S
C396 C397 1.390 . S
C396 H413 0.931 . S
C397 C395 1.372 . S
C397 C396 1.390 . S
C397 H414 0.929 . S
C398 C393 1.390 . S
C398 C394 1.392 . S
C398 H415 0.930 . S
C399 O384 1.255 . S
C399 O385 1.257 . S
C400 Eu336 2.787 1_545 S
C400 O380 1.252 . S
C400 O383 1.268 . S
C400 C393 1.506 . S
C401 C368 1.441 . S
C401 H378 0.931 1_565 S
C401 C402 1.373 1_565 S
C402 C373 1.387 . S
C402 H379 0.931 . S
C402 C401 1.373 1_545 S
C403 O387 1.249 . S
C403 O388 1.264 . S
C404 C407 1.382 . S
C404 C408 1.390 . S
C404 C411 1.506 . S
C405 C406 1.398 . S
C405 C408 1.392 . S
C406 C405 1.398 . S
C406 C409 1.372 . S
C406 H416 0.931 . S
C407 C404 1.382 . S
C407 C409 1.390 . S
C407 H417 0.931 . S
C408 C404 1.390 . S
C408 C405 1.392 . S
C408 H418 0.930 . S
C409 C406 1.372 . S
C409 C407 1.390 . S
C409 H419 0.929 . S
C410 O390 1.255 . S
C410 O391 1.257 . S
C411 Eu347 2.787 . S
C411 O386 1.252 . S
C411 O389 1.268 . S
C411 C404 1.506 . S
H412 C395 0.931 . S
H413 C396 0.931 . S
H414 C397 0.929 . S
H415 C398 0.930 . S
H416 C406 0.931 . S
H417 C407 0.931 . S
H418 C408 0.930 . S
H419 C409 0.929 . S
Eu420 N449 2.600 . S
Eu420 N455 2.562 . S
Eu420 O464 2.462 1_545 S
Eu420 O465 2.373 . S
Eu420 O467 2.432 1_545 S
Eu420 O468 2.291 . S
Eu420 O472 2.335 . S
Eu420 O475 2.372 . S
Eu420 C484 2.787 1_545 S
C421 N422 1.365 . S
C421 C424 1.405 1_455 S
C421 C428 1.448 . S
N422 C421 1.365 . S
N422 C425 1.319 . S
N422 Eu431 2.600 . S
C423 C425 1.397 . S
C423 C426 1.367 . S
C423 H443 0.931 . S
C424 C421 1.405 1_655 S
C424 C426 1.403 1_655 S
C424 C430 1.439 . S
C425 N422 1.319 . S
C425 C423 1.397 . S
C425 H436 0.930 . S
C426 C423 1.367 . S
C426 C424 1.403 1_455 S
C426 H447 0.929 1_455 S
C427 C428 1.430 1_655 S
C427 C429 1.387 . S
C427 C433 1.404 . S
C428 C421 1.448 . S
C428 C427 1.430 1_455 S
C428 N432 1.351 . S
C429 C427 1.387 . S
C429 C430 1.374 . S
C429 H444 0.931 . S
C430 C424 1.439 . S
C430 C429 1.374 . S
C430 H445 0.931 . S
Eu431 N422 2.600 . S
Eu431 N432 2.562 . S
Eu431 O466 2.335 . S
Eu431 O469 2.372 . S
Eu431 O470 2.462 . S
Eu431 O471 2.373 . S
Eu431 O473 2.432 . S
Eu431 O474 2.291 . S
Eu431 C495 2.787 . S
N432 C428 1.351 . S
N432 Eu431 2.562 . S
N432 C434 1.325 . S
C433 C427 1.404 . S
C433 C435 1.366 1_655 S
C433 H441 0.930 . S
C434 N432 1.325 . S
C434 C435 1.416 . S
C434 H440 0.929 . S
C435 C433 1.366 1_455 S
C435 C434 1.416 . S
C435 H437 0.931 . S
H436 C425 0.930 . S
H437 C435 0.931 . S
H438 C453 0.930 . S
H439 C460 0.930 . S
H440 C434 0.929 . S
H441 C433 0.930 . S
H442 C456 0.929 . S
H443 C423 0.931 . S
H444 C429 0.931 . S
H445 C430 0.931 . S
H446 C451 0.931 1_554 S
H447 C426 0.929 1_655 S
H448 C459 0.930 . S
N449 Eu420 2.600 . S
N449 C450 1.365 . S
N449 C453 1.319 . S
C450 N449 1.365 . S
C450 C452 1.405 . S
C450 C458 1.448 . S
C451 H446 0.931 1_556 S
C451 C453 1.397 . S
C451 C454 1.367 . S
C452 C450 1.405 . S
C452 C454 1.403 . S
C452 C485 1.441 . S
C453 H438 0.930 . S
C453 N449 1.319 . S
C453 C451 1.397 . S
C454 C451 1.367 . S
C454 C452 1.403 . S
C454 H461 0.929 . S
N455 Eu420 2.562 . S
N455 C456 1.325 1_545 S
N455 C458 1.351 . S
C456 H442 0.929 . S
C456 N455 1.325 1_565 S
C456 C460 1.416 . S
C457 C458 1.430 1_565 S
C457 C459 1.404 . S
C457 C486 1.387 . S
C458 C450 1.448 . S
C458 N455 1.351 . S
C458 C457 1.430 1_545 S
C459 H448 0.930 . S
C459 C457 1.404 . S
C459 C460 1.366 . S
C460 H439 0.930 . S
C460 C456 1.416 . S
C460 C459 1.366 . S
H461 C454 0.929 . S
H462 C485 0.931 1_565 S
H463 C486 0.931 . S
O464 Eu420 2.462 1_565 S
O464 C484 1.252 . S
O465 Eu420 2.373 . S
O465 C476 1.249 . S
O466 Eu431 2.335 . S
O466 C476 1.264 . S
O467 Eu420 2.432 1_565 S
O467 C484 1.268 . S
O468 Eu420 2.291 . S
O468 C483 1.255 . S
O469 Eu431 2.372 . S
O469 C483 1.257 . S
O470 Eu431 2.462 . S
O470 C495 1.252 . S
O471 Eu431 2.373 . S
O471 C487 1.249 . S
O472 Eu420 2.335 . S
O472 C487 1.264 . S
O473 Eu431 2.432 . S
O473 C495 1.268 . S
O474 Eu431 2.291 . S
O474 C494 1.255 . S
O475 Eu420 2.372 . S
O475 C494 1.257 . S
C476 O465 1.249 . S
C476 O466 1.264 . S
C477 C480 1.382 . S
C477 C482 1.390 . S
C477 C484 1.506 . S
C478 C479 1.398 . S
C478 C482 1.392 . S
C479 C478 1.398 . S
C479 C481 1.372 . S
C479 H496 0.931 . S
C480 C477 1.382 . S
C480 C481 1.390 . S
C480 H497 0.931 . S
C481 C479 1.372 . S
C481 C480 1.390 . S
C481 H498 0.929 . S
C482 C477 1.390 . S
C482 C478 1.392 . S
C482 H499 0.930 . S
C483 O468 1.255 . S
C483 O469 1.257 . S
C484 Eu420 2.787 1_565 S
C484 O464 1.252 . S
C484 O467 1.268 . S
C484 C477 1.506 . S
C485 C452 1.441 . S
C485 H462 0.931 1_545 S
C485 C486 1.373 1_545 S
C486 C457 1.387 . S
C486 H463 0.931 . S
C486 C485 1.373 1_565 S
C487 O471 1.249 . S
C487 O472 1.264 . S
C488 C491 1.382 . S
C488 C492 1.390 . S
C488 C495 1.506 . S
C489 C490 1.398 . S
C489 C492 1.392 . S
C490 C489 1.398 . S
C490 C493 1.372 . S
C490 H500 0.931 . S
C491 C488 1.382 . S
C491 C493 1.390 . S
C491 H501 0.931 . S
C492 C488 1.390 . S
C492 C489 1.392 . S
C492 H502 0.930 . S
C493 C490 1.372 . S
C493 C491 1.390 . S
C493 H503 0.929 . S
C494 O474 1.255 . S
C494 O475 1.257 . S
C495 Eu431 2.787 . S
C495 O470 1.252 . S
C495 O473 1.268 . S
C495 C488 1.506 . S
H496 C479 0.931 . S
H497 C480 0.931 . S
H498 C481 0.929 . S
H499 C482 0.930 . S
H500 C490 0.931 . S
H501 C491 0.931 . S
H502 C492 0.930 . S
H503 C493 0.929 . S
Eu504 N533 2.600 . S
Eu504 N539 2.562 . S
Eu504 O548 2.462 1_545 S
Eu504 O549 2.373 . S
Eu504 O551 2.432 1_545 S
Eu504 O552 2.291 . S
Eu504 O556 2.335 . S
Eu504 O559 2.372 . S
Eu504 C568 2.787 1_545 S
C505 N506 1.365 . S
C505 C508 1.405 1_655 S
C505 C512 1.448 . S
N506 C505 1.365 . S
N506 C509 1.319 . S
N506 Eu515 2.600 . S
C507 C509 1.397 . S
C507 C510 1.367 . S
C507 H527 0.931 . S
C508 C505 1.405 1_455 S
C508 C510 1.403 1_455 S
C508 C514 1.439 . S
C509 N506 1.319 . S
C509 C507 1.397 . S
C509 H520 0.930 . S
C510 C507 1.367 . S
C510 C508 1.403 1_655 S
C510 H531 0.929 1_655 S
C511 C512 1.430 1_455 S
C511 C513 1.387 . S
C511 C517 1.404 . S
C512 C505 1.448 . S
C512 C511 1.430 1_655 S
C512 N516 1.351 . S
C513 C511 1.387 . S
C513 C514 1.374 . S
C513 H528 0.931 . S
C514 C508 1.439 . S
C514 C513 1.374 . S
C514 H529 0.931 . S
Eu515 N506 2.600 . S
Eu515 N516 2.562 . S
Eu515 O550 2.335 . S
Eu515 O553 2.372 . S
Eu515 O554 2.462 . S
Eu515 O555 2.373 . S
Eu515 O557 2.432 . S
Eu515 O558 2.291 . S
Eu515 C579 2.787 . S
N516 C512 1.351 . S
N516 Eu515 2.562 . S
N516 C518 1.325 . S
C517 C511 1.404 . S
C517 C519 1.366 1_455 S
C517 H525 0.930 . S
C518 N516 1.325 . S
C518 C519 1.416 . S
C518 H524 0.929 . S
C519 C517 1.366 1_655 S
C519 C518 1.416 . S
C519 H521 0.931 . S
H520 C509 0.930 . S
H521 C519 0.931 . S
H522 C537 0.930 . S
H523 C544 0.930 . S
H524 C518 0.929 . S
H525 C517 0.930 . S
H526 C540 0.929 . S
H527 C507 0.931 . S
H528 C513 0.931 . S
H529 C514 0.931 . S
H530 C535 0.931 . S
H531 C510 0.929 1_455 S
H532 C543 0.930 . S
N533 Eu504 2.600 . S
N533 C534 1.365 . S
N533 C537 1.319 . S
C534 N533 1.365 . S
C534 C536 1.405 . S
C534 C542 1.448 . S
C535 H530 0.931 . S
C535 C537 1.397 . S
C535 C538 1.367 . S
C536 C534 1.405 . S
C536 C538 1.403 . S
C536 C569 1.441 . S
C537 H522 0.930 . S
C537 N533 1.319 . S
C537 C535 1.397 . S
C538 C535 1.367 . S
C538 C536 1.403 . S
C538 H545 0.929 . S
N539 Eu504 2.562 . S
N539 C540 1.325 1_545 S
N539 C542 1.351 . S
C540 H526 0.929 . S
C540 N539 1.325 1_565 S
C540 C544 1.416 . S
C541 C542 1.430 1_565 S
C541 C543 1.404 . S
C541 C570 1.387 . S
C542 C534 1.448 . S
C542 N539 1.351 . S
C542 C541 1.430 1_545 S
C543 H532 0.930 . S
C543 C541 1.404 . S
C543 C544 1.366 . S
C544 H523 0.930 . S
C544 C540 1.416 . S
C544 C543 1.366 . S
H545 C538 0.929 . S
H546 C569 0.931 1_565 S
H547 C570 0.931 . S
O548 Eu504 2.462 1_565 S
O548 C568 1.252 . S
O549 Eu504 2.373 . S
O549 C560 1.249 . S
O550 Eu515 2.335 . S
O550 C560 1.264 . S
O551 Eu504 2.432 1_565 S
O551 C568 1.268 . S
O552 Eu504 2.291 . S
O552 C567 1.255 . S
O553 Eu515 2.372 . S
O553 C567 1.257 . S
O554 Eu515 2.462 . S
O554 C579 1.252 . S
O555 Eu515 2.373 . S
O555 C571 1.249 . S
O556 Eu504 2.335 . S
O556 C571 1.264 . S
O557 Eu515 2.432 . S
O557 C579 1.268 . S
O558 Eu515 2.291 . S
O558 C578 1.255 . S
O559 Eu504 2.372 . S
O559 C578 1.257 . S
C560 O549 1.249 . S
C560 O550 1.264 . S
C561 C564 1.382 . S
C561 C566 1.390 . S
C561 C568 1.506 . S
C562 C563 1.398 . S
C562 C566 1.392 . S
C563 C562 1.398 . S
C563 C565 1.372 . S
C563 H580 0.931 . S
C564 C561 1.382 . S
C564 C565 1.390 . S
C564 H581 0.931 . S
C565 C563 1.372 . S
C565 C564 1.390 . S
C565 H582 0.929 . S
C566 C561 1.390 . S
C566 C562 1.392 . S
C566 H583 0.930 . S
C567 O552 1.255 . S
C567 O553 1.257 . S
C568 Eu504 2.787 1_565 S
C568 O548 1.252 . S
C568 O551 1.268 . S
C568 C561 1.506 . S
C569 C536 1.441 . S
C569 H546 0.931 1_545 S
C569 C570 1.373 1_545 S
C570 C541 1.387 . S
C570 H547 0.931 . S
C570 C569 1.373 1_565 S
C571 O555 1.249 . S
C571 O556 1.264 . S
C572 C575 1.382 . S
C572 C576 1.390 . S
C572 C579 1.506 . S
C573 C574 1.398 . S
C573 C576 1.392 . S
C574 C573 1.398 . S
C574 C577 1.372 . S
C574 H584 0.931 . S
C575 C572 1.382 . S
C575 C577 1.390 . S
C575 H585 0.931 . S
C576 C572 1.390 . S
C576 C573 1.392 . S
C576 H586 0.930 . S
C577 C574 1.372 . S
C577 C575 1.390 . S
C577 H587 0.929 . S
C578 O558 1.255 . S
C578 O559 1.257 . S
C579 Eu515 2.787 . S
C579 O554 1.252 . S
C579 O557 1.268 . S
C579 C572 1.506 . S
H580 C563 0.931 . S
H581 C564 0.931 . S
H582 C565 0.929 . S
H583 C566 0.930 . S
H584 C574 0.931 . S
H585 C575 0.931 . S
H586 C576 0.930 . S
H587 C577 0.929 . S
Eu588 N617 2.600 . S
Eu588 N623 2.562 . S
Eu588 O632 2.462 1_565 S
Eu588 O633 2.373 . S
Eu588 O635 2.432 1_565 S
Eu588 O636 2.291 . S
Eu588 O640 2.335 . S
Eu588 O643 2.372 . S
Eu588 C652 2.787 1_565 S
C589 N590 1.365 . S
C589 C592 1.405 1_455 S
C589 C596 1.448 . S
N590 C589 1.365 . S
N590 C593 1.319 . S
N590 Eu599 2.600 . S
C591 C593 1.397 . S
C591 C594 1.367 . S
C591 H611 0.931 . S
C592 C589 1.405 1_655 S
C592 C594 1.403 1_655 S
C592 C598 1.439 . S
C593 N590 1.319 . S
C593 C591 1.397 . S
C593 H604 0.930 . S
C594 C591 1.367 . S
C594 C592 1.403 1_455 S
C594 H615 0.929 1_455 S
C595 C596 1.430 1_655 S
C595 C597 1.387 . S
C595 C601 1.404 . S
C596 C589 1.448 . S
C596 C595 1.430 1_455 S
C596 N600 1.351 . S
C597 C595 1.387 . S
C597 C598 1.374 . S
C597 H612 0.931 . S
C598 C592 1.439 . S
C598 C597 1.374 . S
C598 H613 0.931 . S
Eu599 N590 2.600 . S
Eu599 N600 2.562 . S
Eu599 O634 2.335 . S
Eu599 O637 2.372 . S
Eu599 O638 2.462 . S
Eu599 O639 2.373 . S
Eu599 O641 2.432 . S
Eu599 O642 2.291 . S
Eu599 C663 2.787 . S
N600 C596 1.351 . S
N600 Eu599 2.562 . S
N600 C602 1.325 . S
C601 C595 1.404 . S
C601 C603 1.366 1_655 S
C601 H609 0.930 . S
C602 N600 1.325 . S
C602 C603 1.416 . S
C602 H608 0.929 . S
C603 C601 1.366 1_455 S
C603 C602 1.416 . S
C603 H605 0.931 . S
H604 C593 0.930 . S
H605 C603 0.931 . S
H606 C621 0.930 . S
H607 C628 0.930 . S
H608 C602 0.929 . S
H609 C601 0.930 . S
H610 C624 0.929 . S
H611 C591 0.931 . S
H612 C597 0.931 . S
H613 C598 0.931 . S
H614 C619 0.931 . S
H615 C594 0.929 1_655 S
H616 C627 0.930 . S
N617 Eu588 2.600 . S
N617 C618 1.365 . S
N617 C621 1.319 . S
C618 N617 1.365 . S
C618 C620 1.405 . S
C618 C626 1.448 . S
C619 H614 0.931 . S
C619 C621 1.397 . S
C619 C622 1.367 . S
C620 C618 1.405 . S
C620 C622 1.403 . S
C620 C653 1.441 . S
C621 H606 0.930 . S
C621 N617 1.319 . S
C621 C619 1.397 . S
C622 C619 1.367 . S
C622 C620 1.403 . S
C622 H629 0.929 . S
N623 Eu588 2.562 . S
N623 C624 1.325 1_565 S
N623 C626 1.351 . S
C624 H610 0.929 . S
C624 N623 1.325 1_545 S
C624 C628 1.416 . S
C625 C626 1.430 1_545 S
C625 C627 1.404 . S
C625 C654 1.387 . S
C626 C618 1.448 . S
C626 N623 1.351 . S
C626 C625 1.430 1_565 S
C627 H616 0.930 . S
C627 C625 1.404 . S
C627 C628 1.366 . S
C628 H607 0.930 . S
C628 C624 1.416 . S
C628 C627 1.366 . S
H629 C622 0.929 . S
H630 C653 0.931 1_545 S
H631 C654 0.931 . S
O632 Eu588 2.462 1_545 S
O632 C652 1.252 . S
O633 Eu588 2.373 . S
O633 C644 1.249 . S
O634 Eu599 2.335 . S
O634 C644 1.264 . S
O635 Eu588 2.432 1_545 S
O635 C652 1.268 . S
O636 Eu588 2.291 . S
O636 C651 1.255 . S
O637 Eu599 2.372 . S
O637 C651 1.257 . S
O638 Eu599 2.462 . S
O638 C663 1.252 . S
O639 Eu599 2.373 . S
O639 C655 1.249 . S
O640 Eu588 2.335 . S
O640 C655 1.264 . S
O641 Eu599 2.432 . S
O641 C663 1.268 . S
O642 Eu599 2.291 . S
O642 C662 1.255 . S
O643 Eu588 2.372 . S
O643 C662 1.257 . S
C644 O633 1.249 . S
C644 O634 1.264 . S
C645 C648 1.382 . S
C645 C650 1.390 . S
C645 C652 1.506 . S
C646 C647 1.398 . S
C646 C650 1.392 . S
C647 C646 1.398 . S
C647 C649 1.372 . S
C647 H664 0.931 . S
C648 C645 1.382 . S
C648 C649 1.390 . S
C648 H665 0.931 . S
C649 C647 1.372 . S
C649 C648 1.390 . S
C649 H666 0.929 . S
C650 C645 1.390 . S
C650 C646 1.392 . S
C650 H667 0.930 . S
C651 O636 1.255 . S
C651 O637 1.257 . S
C652 Eu588 2.787 1_545 S
C652 O632 1.252 . S
C652 O635 1.268 . S
C652 C645 1.506 . S
C653 C620 1.441 . S
C653 H630 0.931 1_565 S
C653 C654 1.373 1_565 S
C654 C625 1.387 . S
C654 H631 0.931 . S
C654 C653 1.373 1_545 S
C655 O639 1.249 . S
C655 O640 1.264 . S
C656 C659 1.382 . S
C656 C660 1.390 . S
C656 C663 1.506 . S
C657 C658 1.398 . S
C657 C660 1.392 . S
C658 C657 1.398 . S
C658 C661 1.372 . S
C658 H668 0.931 . S
C659 C656 1.382 . S
C659 C661 1.390 . S
C659 H669 0.931 . S
C660 C656 1.390 . S
C660 C657 1.392 . S
C660 H670 0.930 . S
C661 C658 1.372 . S
C661 C659 1.390 . S
C661 H671 0.929 . S
C662 O642 1.255 . S
C662 O643 1.257 . S
C663 Eu599 2.787 . S
C663 O638 1.252 . S
C663 O641 1.268 . S
C663 C656 1.506 . S
H664 C647 0.931 . S
H665 C648 0.931 . S
H666 C649 0.929 . S
H667 C650 0.930 . S
H668 C658 0.931 . S
H669 C659 0.931 . S
H670 C660 0.930 . S
H671 C661 0.929 . S
Eu672 N701 2.600 . S
Eu672 N707 2.562 . S
Eu672 O716 2.462 . S
Eu672 O717 2.373 . S
Eu672 O719 2.432 . S
Eu672 O720 2.291 . S
Eu672 O724 2.335 . S
Eu672 O727 2.372 . S
Eu672 C736 2.787 . S
C673 N674 1.365 . S
C673 C676 1.405 . S
C673 C680 1.448 . S
N674 C673 1.365 . S
N674 C677 1.319 . S
N674 Eu683 2.600 . S
C675 C677 1.397 . S
C675 C678 1.367 . S
C675 H695 0.931 1_554 S
C676 C673 1.405 . S
C676 C678 1.403 . S
C676 C682 1.439 . S
C677 N674 1.319 . S
C677 C675 1.397 . S
C677 H688 0.930 . S
C678 C675 1.367 . S
C678 C676 1.403 . S
C678 H699 0.929 . S
C679 C680 1.430 . S
C679 C681 1.387 . S
C679 C685 1.404 . S
C680 C673 1.448 . S
C680 C679 1.430 . S
C680 N684 1.351 . S
C681 C679 1.387 . S
C681 C682 1.374 . S
C681 H696 0.931 . S
C682 C676 1.439 . S
C682 C681 1.374 . S
C682 H697 0.931 . S
Eu683 N674 2.600 . S
Eu683 N684 2.562 . S
Eu683 O718 2.335 . S
Eu683 O721 2.372 . S
Eu683 O722 2.462 . S
Eu683 O723 2.373 . S
Eu683 O725 2.432 . S
Eu683 O726 2.291 . S
Eu683 C747 2.787 . S
N684 C680 1.351 . S
N684 Eu683 2.562 . S
N684 C686 1.325 . S
C685 C679 1.404 . S
C685 C687 1.366 . S
C685 H693 0.930 . S
C686 N684 1.325 . S
C686 C687 1.416 . S
C686 H692 0.929 . S
C687 C685 1.366 . S
C687 C686 1.416 . S
C687 H689 0.930 . S
H688 C677 0.930 . S
H689 C687 0.930 . S
H690 C705 0.930 . S
H691 C712 0.930 . S
H692 C686 0.929 . S
H693 C685 0.930 . S
H694 C708 0.929 . S
H695 C675 0.931 1_556 S
H696 C681 0.931 . S
H697 C682 0.931 . S
H698 C703 0.931 . S
H699 C678 0.929 . S
H700 C711 0.930 . S
N701 Eu672 2.600 . S
N701 C702 1.365 . S
N701 C705 1.319 . S
C702 N701 1.365 . S
C702 C704 1.405 . S
C702 C710 1.448 . S
C703 H698 0.931 . S
C703 C705 1.397 . S
C703 C706 1.367 . S
C704 C702 1.405 . S
C704 C706 1.403 . S
C704 C737 1.439 . S
C705 H690 0.930 . S
C705 N701 1.319 . S
C705 C703 1.397 . S
C706 C703 1.367 . S
C706 C704 1.403 . S
C706 H713 0.929 . S
N707 Eu672 2.562 . S
N707 C708 1.325 . S
N707 C710 1.351 . S
C708 H694 0.929 . S
C708 N707 1.325 . S
C708 C712 1.416 . S
C709 C710 1.430 . S
C709 C711 1.404 . S
C709 C738 1.387 . S
C710 C702 1.448 . S
C710 N707 1.351 . S
C710 C709 1.430 . S
C711 H700 0.930 . S
C711 C709 1.404 . S
C711 C712 1.366 . S
C712 H691 0.930 . S
C712 C708 1.416 . S
C712 C711 1.366 . S
H713 C706 0.929 . S
H714 C737 0.931 . S
H715 C738 0.931 . S
O716 Eu672 2.462 . S
O716 C736 1.252 . S
O717 Eu672 2.373 . S
O717 C728 1.249 . S
O718 Eu683 2.335 . S
O718 C728 1.264 . S
O719 Eu672 2.432 . S
O719 C736 1.268 . S
O720 Eu672 2.291 . S
O720 C735 1.255 . S
O721 Eu683 2.372 . S
O721 C735 1.257 . S
O722 Eu683 2.462 . S
O722 C747 1.252 . S
O723 Eu683 2.373 . S
O723 C739 1.249 . S
O724 Eu672 2.335 . S
O724 C739 1.264 . S
O725 Eu683 2.432 . S
O725 C747 1.268 . S
O726 Eu683 2.291 . S
O726 C746 1.255 . S
O727 Eu672 2.372 . S
O727 C746 1.257 . S
C728 O717 1.249 . S
C728 O718 1.264 . S
C729 C732 1.382 . S
C729 C734 1.390 . S
C729 C736 1.506 . S
C730 C731 1.398 1_565 S
C730 C734 1.392 . S
C731 C730 1.398 1_545 S
C731 C733 1.372 1_545 S
C731 H748 0.931 . S
C732 C729 1.382 . S
C732 C733 1.390 . S
C732 H749 0.931 . S
C733 C731 1.372 1_565 S
C733 C732 1.390 . S
C733 H750 0.929 1_565 S
C734 C729 1.390 . S
C734 C730 1.392 . S
C734 H751 0.930 . S
C735 O720 1.255 . S
C735 O721 1.257 . S
C736 Eu672 2.787 . S
C736 O716 1.252 . S
C736 O719 1.268 . S
C736 C729 1.506 . S
C737 C704 1.439 . S
C737 H714 0.931 . S
C737 C738 1.374 . S
C738 C709 1.387 . S
C738 H715 0.931 . S
C738 C737 1.374 . S
C739 O723 1.249 . S
C739 O724 1.264 . S
C740 C743 1.382 . S
C740 C744 1.390 . S
C740 C747 1.506 . S
C741 C742 1.398 . S
C741 C744 1.392 . S
C742 C741 1.398 . S
C742 C745 1.372 . S
C742 H752 0.931 . S
C743 C740 1.382 . S
C743 C745 1.390 . S
C743 H753 0.931 . S
C744 C740 1.390 . S
C744 C741 1.392 . S
C744 H754 0.930 . S
C745 C742 1.372 . S
C745 C743 1.390 . S
C745 H755 0.929 . S
C746 O726 1.255 . S
C746 O727 1.257 . S
C747 Eu683 2.787 . S
C747 O722 1.252 . S
C747 O725 1.268 . S
C747 C740 1.506 . S
H748 C731 0.931 . S
H749 C732 0.931 . S
H750 C733 0.929 1_545 S
H751 C734 0.930 . S
H752 C742 0.931 . S
H753 C743 0.931 . S
H754 C744 0.930 . S
H755 C745 0.929 . S
Eu756 N785 2.600 . S
Eu756 N791 2.562 . S
Eu756 O800 2.462 . S
Eu756 O801 2.373 . S
Eu756 O803 2.432 . S
Eu756 O804 2.291 . S
Eu756 O808 2.335 . S
Eu756 O811 2.372 . S
Eu756 C820 2.787 . S
C757 N758 1.365 . S
C757 C760 1.405 . S
C757 C764 1.448 . S
N758 C757 1.365 . S
N758 C761 1.319 . S
N758 Eu767 2.600 . S
C759 C761 1.397 . S
C759 C762 1.367 . S
C759 H779 0.931 1_554 S
C760 C757 1.405 . S
C760 C762 1.403 . S
C760 C766 1.439 . S
C761 N758 1.319 . S
C761 C759 1.397 . S
C761 H772 0.930 . S
C762 C759 1.367 . S
C762 C760 1.403 . S
C762 H783 0.929 . S
C763 C764 1.430 . S
C763 C765 1.387 . S
C763 C769 1.404 . S
C764 C757 1.448 . S
C764 C763 1.430 . S
C764 N768 1.351 . S
C765 C763 1.387 . S
C765 C766 1.374 . S
C765 H780 0.931 . S
C766 C760 1.439 . S
C766 C765 1.374 . S
C766 H781 0.931 . S
Eu767 N758 2.600 . S
Eu767 N768 2.562 . S
Eu767 O802 2.335 . S
Eu767 O805 2.372 . S
Eu767 O806 2.462 . S
Eu767 O807 2.373 . S
Eu767 O809 2.432 . S
Eu767 O810 2.291 . S
Eu767 C831 2.787 . S
N768 C764 1.351 . S
N768 Eu767 2.562 . S
N768 C770 1.325 . S
C769 C763 1.404 . S
C769 C771 1.366 . S
C769 H777 0.930 . S
C770 N768 1.325 . S
C770 C771 1.416 . S
C770 H776 0.929 . S
C771 C769 1.366 . S
C771 C770 1.416 . S
C771 H773 0.930 . S
H772 C761 0.930 . S
H773 C771 0.930 . S
H774 C789 0.930 . S
H775 C796 0.930 . S
H776 C770 0.929 . S
H777 C769 0.930 . S
H778 C792 0.929 . S
H779 C759 0.931 1_556 S
H780 C765 0.931 . S
H781 C766 0.931 . S
H782 C787 0.931 . S
H783 C762 0.929 . S
H784 C795 0.930 . S
N785 Eu756 2.600 . S
N785 C786 1.365 . S
N785 C789 1.319 . S
C786 N785 1.365 . S
C786 C788 1.405 . S
C786 C794 1.448 . S
C787 H782 0.931 . S
C787 C789 1.397 . S
C787 C790 1.367 . S
C788 C786 1.405 . S
C788 C790 1.403 . S
C788 C821 1.439 . S
C789 H774 0.930 . S
C789 N785 1.319 . S
C789 C787 1.397 . S
C790 C787 1.367 . S
C790 C788 1.403 . S
C790 H797 0.929 . S
N791 Eu756 2.562 . S
N791 C792 1.325 . S
N791 C794 1.351 . S
C792 H778 0.929 . S
C792 N791 1.325 . S
C792 C796 1.416 . S
C793 C794 1.430 . S
C793 C795 1.404 . S
C793 C822 1.387 . S
C794 C786 1.448 . S
C794 N791 1.351 . S
C794 C793 1.430 . S
C795 H784 0.930 . S
C795 C793 1.404 . S
C795 C796 1.366 . S
C796 H775 0.930 . S
C796 C792 1.416 . S
C796 C795 1.366 . S
H797 C790 0.929 . S
H798 C821 0.931 . S
H799 C822 0.931 . S
O800 Eu756 2.462 . S
O800 C820 1.252 . S
O801 Eu756 2.373 . S
O801 C812 1.249 . S
O802 Eu767 2.335 . S
O802 C812 1.264 . S
O803 Eu756 2.432 . S
O803 C820 1.268 . S
O804 Eu756 2.291 . S
O804 C819 1.255 . S
O805 Eu767 2.372 . S
O805 C819 1.257 . S
O806 Eu767 2.462 . S
O806 C831 1.252 . S
O807 Eu767 2.373 . S
O807 C823 1.249 . S
O808 Eu756 2.335 . S
O808 C823 1.264 . S
O809 Eu767 2.432 . S
O809 C831 1.268 . S
O810 Eu767 2.291 . S
O810 C830 1.255 . S
O811 Eu756 2.372 . S
O811 C830 1.257 . S
C812 O801 1.249 . S
C812 O802 1.264 . S
C813 C816 1.382 . S
C813 C818 1.390 . S
C813 C820 1.506 . S
C814 C815 1.398 1_545 S
C814 C818 1.392 . S
C815 C814 1.398 1_565 S
C815 C817 1.372 1_565 S
C815 H832 0.931 . S
C816 C813 1.382 . S
C816 C817 1.390 . S
C816 H833 0.931 . S
C817 C815 1.372 1_545 S
C817 C816 1.390 . S
C817 H834 0.929 1_545 S
C818 C813 1.390 . S
C818 C814 1.392 . S
C818 H835 0.930 . S
C819 O804 1.255 . S
C819 O805 1.257 . S
C820 Eu756 2.787 . S
C820 O800 1.252 . S
C820 O803 1.268 . S
C820 C813 1.506 . S
C821 C788 1.439 . S
C821 H798 0.931 . S
C821 C822 1.374 . S
C822 C793 1.387 . S
C822 H799 0.931 . S
C822 C821 1.374 . S
C823 O807 1.249 . S
C823 O808 1.264 . S
C824 C827 1.382 . S
C824 C828 1.390 . S
C824 C831 1.506 . S
C825 C826 1.398 . S
C825 C828 1.392 . S
C826 C825 1.398 . S
C826 C829 1.372 . S
C826 H836 0.931 . S
C827 C824 1.382 . S
C827 C829 1.390 . S
C827 H837 0.931 . S
C828 C824 1.390 . S
C828 C825 1.392 . S
C828 H838 0.930 . S
C829 C826 1.372 . S
C829 C827 1.390 . S
C829 H839 0.929 . S
C830 O810 1.255 . S
C830 O811 1.257 . S
C831 Eu767 2.787 . S
C831 O806 1.252 . S
C831 O809 1.268 . S
C831 C824 1.506 . S
H832 C815 0.931 . S
H833 C816 0.931 . S
H834 C817 0.929 1_565 S
H835 C818 0.930 . S
H836 C826 0.931 . S
H837 C827 0.931 . S
H838 C828 0.930 . S
H839 C829 0.929 . S
Eu840 N869 2.600 . S
Eu840 N875 2.562 . S
Eu840 O884 2.462 . S
Eu840 O885 2.373 . S
Eu840 O887 2.432 . S
Eu840 O888 2.291 . S
Eu840 O892 2.335 . S
Eu840 O895 2.372 . S
Eu840 C904 2.787 . S
C841 N842 1.365 . S
C841 C844 1.405 . S
C841 C848 1.448 . S
N842 C841 1.365 . S
N842 C845 1.319 . S
N842 Eu851 2.600 . S
C843 C845 1.397 . S
C843 C846 1.367 . S
C843 H863 0.931 . S
C844 C841 1.405 . S
C844 C846 1.403 . S
C844 C850 1.439 . S
C845 N842 1.319 . S
C845 C843 1.397 . S
C845 H856 0.930 . S
C846 C843 1.367 . S
C846 C844 1.403 . S
C846 H867 0.929 . S
C847 C848 1.430 . S
C847 C849 1.387 . S
C847 C853 1.404 . S
C848 C841 1.448 . S
C848 C847 1.430 . S
C848 N852 1.351 . S
C849 C847 1.387 . S
C849 C850 1.374 . S
C849 H864 0.931 . S
C850 C844 1.439 . S
C850 C849 1.374 . S
C850 H865 0.931 . S
Eu851 N842 2.600 . S
Eu851 N852 2.562 . S
Eu851 O886 2.335 . S
Eu851 O889 2.372 . S
Eu851 O890 2.462 . S
Eu851 O891 2.373 . S
Eu851 O893 2.432 . S
Eu851 O894 2.291 . S
Eu851 C915 2.787 . S
N852 C848 1.351 . S
N852 Eu851 2.562 . S
N852 C854 1.325 . S
C853 C847 1.404 . S
C853 C855 1.366 . S
C853 H861 0.930 . S
C854 N852 1.325 . S
C854 C855 1.416 . S
C854 H860 0.929 . S
C855 C853 1.366 . S
C855 C854 1.416 . S
C855 H857 0.930 . S
H856 C845 0.930 . S
H857 C855 0.930 . S
H858 C873 0.930 . S
H859 C880 0.930 . S
H860 C854 0.929 . S
H861 C853 0.930 . S
H862 C876 0.929 . S
H863 C843 0.931 . S
H864 C849 0.931 . S
H865 C850 0.931 . S
H866 C871 0.931 . S
H867 C846 0.929 . S
H868 C879 0.930 . S
N869 Eu840 2.600 . S
N869 C870 1.365 . S
N869 C873 1.319 . S
C870 N869 1.365 . S
C870 C872 1.405 . S
C870 C878 1.448 . S
C871 H866 0.931 . S
C871 C873 1.397 . S
C871 C874 1.367 . S
C872 C870 1.405 . S
C872 C874 1.403 . S
C872 C905 1.439 . S
C873 H858 0.930 . S
C873 N869 1.319 . S
C873 C871 1.397 . S
C874 C871 1.367 . S
C874 C872 1.403 . S
C874 H881 0.929 . S
N875 Eu840 2.562 . S
N875 C876 1.325 . S
N875 C878 1.351 . S
C876 H862 0.929 . S
C876 N875 1.325 . S
C876 C880 1.416 . S
C877 C878 1.430 . S
C877 C879 1.404 . S
C877 C906 1.387 . S
C878 C870 1.448 . S
C878 N875 1.351 . S
C878 C877 1.430 . S
C879 H868 0.930 . S
C879 C877 1.404 . S
C879 C880 1.366 . S
C880 H859 0.930 . S
C880 C876 1.416 . S
C880 C879 1.366 . S
H881 C874 0.929 . S
H882 C905 0.931 . S
H883 C906 0.931 . S
O884 Eu840 2.462 . S
O884 C904 1.252 . S
O885 Eu840 2.373 . S
O885 C896 1.249 . S
O886 Eu851 2.335 . S
O886 C896 1.264 . S
O887 Eu840 2.432 . S
O887 C904 1.268 . S
O888 Eu840 2.291 . S
O888 C903 1.255 . S
O889 Eu851 2.372 . S
O889 C903 1.257 . S
O890 Eu851 2.462 . S
O890 C915 1.252 . S
O891 Eu851 2.373 . S
O891 C907 1.249 . S
O892 Eu840 2.335 . S
O892 C907 1.264 . S
O893 Eu851 2.432 . S
O893 C915 1.268 . S
O894 Eu851 2.291 . S
O894 C914 1.255 . S
O895 Eu840 2.372 . S
O895 C914 1.257 . S
C896 O885 1.249 . S
C896 O886 1.264 . S
C897 C900 1.382 . S
C897 C902 1.390 . S
C897 C904 1.506 . S
C898 C899 1.398 1_545 S
C898 C902 1.392 . S
C899 C898 1.398 1_565 S
C899 C901 1.372 1_565 S
C899 H916 0.931 . S
C900 C897 1.382 . S
C900 C901 1.390 . S
C900 H917 0.931 . S
C901 C899 1.372 1_545 S
C901 C900 1.390 . S
C901 H918 0.929 1_545 S
C902 C897 1.390 . S
C902 C898 1.392 . S
C902 H919 0.930 . S
C903 O888 1.255 . S
C903 O889 1.257 . S
C904 Eu840 2.787 . S
C904 O884 1.252 . S
C904 O887 1.268 . S
C904 C897 1.506 . S
C905 C872 1.439 . S
C905 H882 0.931 . S
C905 C906 1.374 . S
C906 C877 1.387 . S
C906 H883 0.931 . S
C906 C905 1.374 . S
C907 O891 1.249 . S
C907 O892 1.264 . S
C908 C911 1.382 . S
C908 C912 1.390 . S
C908 C915 1.506 . S
C909 C910 1.398 . S
C909 C912 1.392 . S
C910 C909 1.398 . S
C910 C913 1.372 . S
C910 H920 0.931 . S
C911 C908 1.382 . S
C911 C913 1.390 . S
C911 H921 0.931 . S
C912 C908 1.390 . S
C912 C909 1.392 . S
C912 H922 0.930 . S
C913 C910 1.372 . S
C913 C911 1.390 . S
C913 H923 0.929 . S
C914 O894 1.255 . S
C914 O895 1.257 . S
C915 Eu851 2.787 . S
C915 O890 1.252 . S
C915 O893 1.268 . S
C915 C908 1.506 . S
H916 C899 0.931 . S
H917 C900 0.931 . S
H918 C901 0.929 1_565 S
H919 C902 0.930 . S
H920 C910 0.931 . S
H921 C911 0.931 . S
H922 C912 0.930 . S
H923 C913 0.929 . S
Eu924 N953 2.600 . S
Eu924 N959 2.562 . S
Eu924 O968 2.462 . S
Eu924 O969 2.373 . S
Eu924 O971 2.432 . S
Eu924 O972 2.291 . S
Eu924 O976 2.335 . S
Eu924 O979 2.372 . S
Eu924 C988 2.787 . S
C925 N926 1.365 . S
C925 C928 1.405 . S
C925 C932 1.448 . S
N926 C925 1.365 . S
N926 C929 1.319 . S
N926 Eu935 2.600 . S
C927 C929 1.397 . S
C927 C930 1.367 . S
C927 H947 0.931 . S
C928 C925 1.405 . S
C928 C930 1.403 . S
C928 C934 1.439 . S
C929 N926 1.319 . S
C929 C927 1.397 . S
C929 H940 0.930 . S
C930 C927 1.367 . S
C930 C928 1.403 . S
C930 H951 0.929 . S
C931 C932 1.430 . S
C931 C933 1.387 . S
C931 C937 1.404 . S
C932 C925 1.448 . S
C932 C931 1.430 . S
C932 N936 1.351 . S
C933 C931 1.387 . S
C933 C934 1.374 . S
C933 H948 0.931 . S
C934 C928 1.439 . S
C934 C933 1.374 . S
C934 H949 0.931 . S
Eu935 N926 2.600 . S
Eu935 N936 2.562 . S
Eu935 O970 2.335 . S
Eu935 O973 2.372 . S
Eu935 O974 2.462 . S
Eu935 O975 2.373 . S
Eu935 O977 2.432 . S
Eu935 O978 2.291 . S
Eu935 C999 2.787 . S
N936 C932 1.351 . S
N936 Eu935 2.562 . S
N936 C938 1.325 . S
C937 C931 1.404 . S
C937 C939 1.366 . S
C937 H945 0.930 . S
C938 N936 1.325 . S
C938 C939 1.416 . S
C938 H944 0.929 . S
C939 C937 1.366 . S
C939 C938 1.416 . S
C939 H941 0.930 . S
H940 C929 0.930 . S
H941 C939 0.930 . S
H942 C957 0.930 . S
H943 C964 0.930 . S
H944 C938 0.929 . S
H945 C937 0.930 . S
H946 C960 0.929 . S
H947 C927 0.931 . S
H948 C933 0.931 . S
H949 C934 0.931 . S
H950 C955 0.931 . S
H951 C930 0.929 . S
H952 C963 0.930 . S
N953 Eu924 2.600 . S
N953 C954 1.365 . S
N953 C957 1.319 . S
C954 N953 1.365 . S
C954 C956 1.405 . S
C954 C962 1.448 . S
C955 H950 0.931 . S
C955 C957 1.397 . S
C955 C958 1.367 . S
C956 C954 1.405 . S
C956 C958 1.403 . S
C956 C989 1.439 . S
C957 H942 0.930 . S
C957 N953 1.319 . S
C957 C955 1.397 . S
C958 C955 1.367 . S
C958 C956 1.403 . S
C958 H965 0.929 . S
N959 Eu924 2.562 . S
N959 C960 1.325 . S
N959 C962 1.351 . S
C960 H946 0.929 . S
C960 N959 1.325 . S
C960 C964 1.416 . S
C961 C962 1.430 . S
C961 C963 1.404 . S
C961 C990 1.387 . S
C962 C954 1.448 . S
C962 N959 1.351 . S
C962 C961 1.430 . S
C963 H952 0.930 . S
C963 C961 1.404 . S
C963 C964 1.366 . S
C964 H943 0.930 . S
C964 C960 1.416 . S
C964 C963 1.366 . S
H965 C958 0.929 . S
H966 C989 0.931 . S
H967 C990 0.931 . S
O968 Eu924 2.462 . S
O968 C988 1.252 . S
O969 Eu924 2.373 . S
O969 C980 1.249 . S
O970 Eu935 2.335 . S
O970 C980 1.264 . S
O971 Eu924 2.432 . S
O971 C988 1.268 . S
O972 Eu924 2.291 . S
O972 C987 1.255 . S
O973 Eu935 2.372 . S
O973 C987 1.257 . S
O974 Eu935 2.462 . S
O974 C999 1.252 . S
O975 Eu935 2.373 . S
O975 C991 1.249 . S
O976 Eu924 2.335 . S
O976 C991 1.264 . S
O977 Eu935 2.432 . S
O977 C999 1.268 . S
O978 Eu935 2.291 . S
O978 C998 1.255 . S
O979 Eu924 2.372 . S
O979 C998 1.257 . S
C980 O969 1.249 . S
C980 O970 1.264 . S
C981 C984 1.382 . S
C981 C986 1.390 . S
C981 C988 1.506 . S
C982 C983 1.398 1_565 S
C982 C986 1.392 . S
C983 C982 1.398 1_545 S
C983 C985 1.372 1_545 S
C983 H1000 0.931 . S
C984 C981 1.382 . S
C984 C985 1.390 . S
C984 H1001 0.931 . S
C985 C983 1.372 1_565 S
C985 C984 1.390 . S
C985 H1002 0.929 1_565 S
C986 C981 1.390 . S
C986 C982 1.392 . S
C986 H1003 0.930 . S
C987 O972 1.255 . S
C987 O973 1.257 . S
C988 Eu924 2.787 . S
C988 O968 1.252 . S
C988 O971 1.268 . S
C988 C981 1.506 . S
C989 C956 1.439 . S
C989 H966 0.931 . S
C989 C990 1.374 . S
C990 C961 1.387 . S
C990 H967 0.931 . S
C990 C989 1.374 . S
C991 O975 1.249 . S
C991 O976 1.264 . S
C992 C995 1.382 . S
C992 C996 1.390 . S
C992 C999 1.506 . S
C993 C994 1.398 . S
C993 C996 1.392 . S
C994 C993 1.398 . S
C994 C997 1.372 . S
C994 H1004 0.931 . S
C995 C992 1.382 . S
C995 C997 1.390 . S
C995 H1005 0.931 . S
C996 C992 1.390 . S
C996 C993 1.392 . S
C996 H1006 0.930 . S
C997 C994 1.372 . S
C997 C995 1.390 . S
C997 H1007 0.929 . S
C998 O978 1.255 . S
C998 O979 1.257 . S
C999 Eu935 2.787 . S
C999 O974 1.252 . S
C999 O977 1.268 . S
C999 C992 1.506 . S
H1000 C983 0.931 . S
H1001 C984 0.931 . S
H1002 C985 0.929 1_545 S
H1003 C986 0.930 . S
H1004 C994 0.931 . S
H1005 C995 0.931 . S
H1006 C996 0.930 . S
H1007 C997 0.929 . S
Eu1008 N1037 2.600 . S
Eu1008 N1043 2.562 . S
Eu1008 O1052 2.462 . S
Eu1008 O1053 2.373 . S
Eu1008 O1055 2.432 . S
Eu1008 O1056 2.291 . S
Eu1008 O1060 2.335 . S
Eu1008 O1063 2.372 . S
Eu1008 C1072 2.787 . S
C1009 N1010 1.365 . S
C1009 C1012 1.405 . S
C1009 C1016 1.448 . S
N1010 C1009 1.365 . S
N1010 C1013 1.319 . S
N1010 Eu1019 2.600 . S
C1011 C1013 1.397 . S
C1011 C1014 1.367 . S
C1011 H1031 0.931 . S
C1012 C1009 1.405 . S
C1012 C1014 1.403 . S
C1012 C1018 1.439 . S
C1013 N1010 1.319 . S
C1013 C1011 1.397 . S
C1013 H1024 0.930 . S
C1014 C1011 1.367 . S
C1014 C1012 1.403 . S
C1014 H1035 0.929 . S
C1015 C1016 1.430 . S
C1015 C1017 1.387 . S
C1015 C1021 1.404 . S
C1016 C1009 1.448 . S
C1016 C1015 1.430 . S
C1016 N1020 1.351 . S
C1017 C1015 1.387 . S
C1017 C1018 1.374 . S
C1017 H1032 0.931 . S
C1018 C1012 1.439 . S
C1018 C1017 1.374 . S
C1018 H1033 0.931 . S
Eu1019 N1010 2.600 . S
Eu1019 N1020 2.562 . S
Eu1019 O1054 2.335 . S
Eu1019 O1057 2.372 . S
Eu1019 O1058 2.462 . S
Eu1019 O1059 2.373 . S
Eu1019 O1061 2.432 . S
Eu1019 O1062 2.291 . S
Eu1019 C1083 2.787 . S
N1020 C1016 1.351 . S
N1020 Eu1019 2.562 . S
N1020 C1022 1.325 . S
C1021 C1015 1.404 . S
C1021 C1023 1.366 . S
C1021 H1029 0.930 . S
C1022 N1020 1.325 . S
C1022 C1023 1.416 . S
C1022 H1028 0.929 . S
C1023 C1021 1.366 . S
C1023 C1022 1.416 . S
C1023 H1025 0.930 . S
H1024 C1013 0.930 . S
H1025 C1023 0.930 . S
H1026 C1041 0.930 . S
H1027 C1048 0.930 . S
H1028 C1022 0.929 . S
H1029 C1021 0.930 . S
H1030 C1044 0.929 . S
H1031 C1011 0.931 . S
H1032 C1017 0.931 . S
H1033 C1018 0.931 . S
H1034 C1039 0.931 1_554 S
H1035 C1014 0.929 . S
H1036 C1047 0.930 . S
N1037 Eu1008 2.600 . S
N1037 C1038 1.365 . S
N1037 C1041 1.319 . S
C1038 N1037 1.365 . S
C1038 C1040 1.405 . S
C1038 C1046 1.448 . S
C1039 H1034 0.931 1_556 S
C1039 C1041 1.397 . S
C1039 C1042 1.367 . S
C1040 C1038 1.405 . S
C1040 C1042 1.403 . S
C1040 C1073 1.439 . S
C1041 H1026 0.930 . S
C1041 N1037 1.319 . S
C1041 C1039 1.397 . S
C1042 C1039 1.367 . S
C1042 C1040 1.403 . S
C1042 H1049 0.929 . S
N1043 Eu1008 2.562 . S
N1043 C1044 1.325 . S
N1043 C1046 1.351 . S
C1044 H1030 0.929 . S
C1044 N1043 1.325 . S
C1044 C1048 1.416 . S
C1045 C1046 1.430 . S
C1045 C1047 1.404 . S
C1045 C1074 1.387 . S
C1046 C1038 1.448 . S
C1046 N1043 1.351 . S
C1046 C1045 1.430 . S
C1047 H1036 0.930 . S
C1047 C1045 1.404 . S
C1047 C1048 1.366 . S
C1048 H1027 0.930 . S
C1048 C1044 1.416 . S
C1048 C1047 1.366 . S
H1049 C1042 0.929 . S
H1050 C1073 0.931 . S
H1051 C1074 0.931 . S
O1052 Eu1008 2.462 . S
O1052 C1072 1.252 . S
O1053 Eu1008 2.373 . S
O1053 C1064 1.249 . S
O1054 Eu1019 2.335 . S
O1054 C1064 1.264 . S
O1055 Eu1008 2.432 . S
O1055 C1072 1.268 . S
O1056 Eu1008 2.291 . S
O1056 C1071 1.255 . S
O1057 Eu1019 2.372 . S
O1057 C1071 1.257 . S
O1058 Eu1019 2.462 . S
O1058 C1083 1.252 . S
O1059 Eu1019 2.373 . S
O1059 C1075 1.249 . S
O1060 Eu1008 2.335 . S
O1060 C1075 1.264 . S
O1061 Eu1019 2.432 . S
O1061 C1083 1.268 . S
O1062 Eu1019 2.291 . S
O1062 C1082 1.255 . S
O1063 Eu1008 2.372 . S
O1063 C1082 1.257 . S
C1064 O1053 1.249 . S
C1064 O1054 1.264 . S
C1065 C1068 1.382 . S
C1065 C1070 1.390 . S
C1065 C1072 1.506 . S
C1066 C1067 1.398 . S
C1066 C1070 1.392 . S
C1067 C1066 1.398 . S
C1067 C1069 1.372 . S
C1067 H1084 0.931 . S
C1068 C1065 1.382 . S
C1068 C1069 1.390 . S
C1068 H1085 0.931 . S
C1069 C1067 1.372 . S
C1069 C1068 1.390 . S
C1069 H1086 0.929 . S
C1070 C1065 1.390 . S
C1070 C1066 1.392 . S
C1070 H1087 0.930 . S
C1071 O1056 1.255 . S
C1071 O1057 1.257 . S
C1072 Eu1008 2.787 . S
C1072 O1052 1.252 . S
C1072 O1055 1.268 . S
C1072 C1065 1.506 . S
C1073 C1040 1.439 . S
C1073 H1050 0.931 . S
C1073 C1074 1.374 . S
C1074 C1045 1.387 . S
C1074 H1051 0.931 . S
C1074 C1073 1.374 . S
C1075 O1059 1.249 . S
C1075 O1060 1.264 . S
C1076 C1079 1.382 . S
C1076 C1080 1.390 . S
C1076 C1083 1.506 . S
C1077 C1078 1.398 1_545 S
C1077 C1080 1.392 . S
C1078 C1077 1.398 1_565 S
C1078 C1081 1.372 1_565 S
C1078 H1088 0.931 . S
C1079 C1076 1.382 . S
C1079 C1081 1.390 . S
C1079 H1089 0.931 . S
C1080 C1076 1.390 . S
C1080 C1077 1.392 . S
C1080 H1090 0.930 . S
C1081 C1078 1.372 1_545 S
C1081 C1079 1.390 . S
C1081 H1091 0.929 1_545 S
C1082 O1062 1.255 . S
C1082 O1063 1.257 . S
C1083 Eu1019 2.787 . S
C1083 O1058 1.252 . S
C1083 O1061 1.268 . S
C1083 C1076 1.506 . S
H1084 C1067 0.931 . S
H1085 C1068 0.931 . S
H1086 C1069 0.929 . S
H1087 C1070 0.930 . S
H1088 C1078 0.931 . S
H1089 C1079 0.931 . S
H1090 C1080 0.930 . S
H1091 C1081 0.929 1_565 S
Eu1092 N1121 2.600 . S
Eu1092 N1127 2.562 . S
Eu1092 O1136 2.462 . S
Eu1092 O1137 2.373 . S
Eu1092 O1139 2.432 . S
Eu1092 O1140 2.291 . S
Eu1092 O1144 2.335 . S
Eu1092 O1147 2.372 . S
Eu1092 C1156 2.787 . S
C1093 N1094 1.365 . S
C1093 C1096 1.405 . S
C1093 C1100 1.448 . S
N1094 C1093 1.365 . S
N1094 C1097 1.319 . S
N1094 Eu1103 2.600 . S
C1095 C1097 1.397 . S
C1095 C1098 1.367 . S
C1095 H1115 0.931 . S
C1096 C1093 1.405 . S
C1096 C1098 1.403 . S
C1096 C1102 1.439 . S
C1097 N1094 1.319 . S
C1097 C1095 1.397 . S
C1097 H1108 0.930 . S
C1098 C1095 1.367 . S
C1098 C1096 1.403 . S
C1098 H1119 0.929 . S
C1099 C1100 1.430 . S
C1099 C1101 1.387 . S
C1099 C1105 1.404 . S
C1100 C1093 1.448 . S
C1100 C1099 1.430 . S
C1100 N1104 1.351 . S
C1101 C1099 1.387 . S
C1101 C1102 1.374 . S
C1101 H1116 0.931 . S
C1102 C1096 1.439 . S
C1102 C1101 1.374 . S
C1102 H1117 0.931 . S
Eu1103 N1094 2.600 . S
Eu1103 N1104 2.562 . S
Eu1103 O1138 2.335 . S
Eu1103 O1141 2.372 . S
Eu1103 O1142 2.462 . S
Eu1103 O1143 2.373 . S
Eu1103 O1145 2.432 . S
Eu1103 O1146 2.291 . S
Eu1103 C1167 2.787 . S
N1104 C1100 1.351 . S
N1104 Eu1103 2.562 . S
N1104 C1106 1.325 . S
C1105 C1099 1.404 . S
C1105 C1107 1.366 . S
C1105 H1113 0.930 . S
C1106 N1104 1.325 . S
C1106 C1107 1.416 . S
C1106 H1112 0.929 . S
C1107 C1105 1.366 . S
C1107 C1106 1.416 . S
C1107 H1109 0.930 . S
H1108 C1097 0.930 . S
H1109 C1107 0.930 . S
H1110 C1125 0.930 . S
H1111 C1132 0.930 . S
H1112 C1106 0.929 . S
H1113 C1105 0.930 . S
H1114 C1128 0.929 . S
H1115 C1095 0.931 . S
H1116 C1101 0.931 . S
H1117 C1102 0.931 . S
H1118 C1123 0.931 1_554 S
H1119 C1098 0.929 . S
H1120 C1131 0.930 . S
N1121 Eu1092 2.600 . S
N1121 C1122 1.365 . S
N1121 C1125 1.319 . S
C1122 N1121 1.365 . S
C1122 C1124 1.405 . S
C1122 C1130 1.448 . S
C1123 H1118 0.931 1_556 S
C1123 C1125 1.397 . S
C1123 C1126 1.367 . S
C1124 C1122 1.405 . S
C1124 C1126 1.403 . S
C1124 C1157 1.439 . S
C1125 H1110 0.930 . S
C1125 N1121 1.319 . S
C1125 C1123 1.397 . S
C1126 C1123 1.367 . S
C1126 C1124 1.403 . S
C1126 H1133 0.929 . S
N1127 Eu1092 2.562 . S
N1127 C1128 1.325 . S
N1127 C1130 1.351 . S
C1128 H1114 0.929 . S
C1128 N1127 1.325 . S
C1128 C1132 1.416 . S
C1129 C1130 1.430 . S
C1129 C1131 1.404 . S
C1129 C1158 1.387 . S
C1130 C1122 1.448 . S
C1130 N1127 1.351 . S
C1130 C1129 1.430 . S
C1131 H1120 0.930 . S
C1131 C1129 1.404 . S
C1131 C1132 1.366 . S
C1132 H1111 0.930 . S
C1132 C1128 1.416 . S
C1132 C1131 1.366 . S
H1133 C1126 0.929 . S
H1134 C1157 0.931 . S
H1135 C1158 0.931 . S
O1136 Eu1092 2.462 . S
O1136 C1156 1.252 . S
O1137 Eu1092 2.373 . S
O1137 C1148 1.249 . S
O1138 Eu1103 2.335 . S
O1138 C1148 1.264 . S
O1139 Eu1092 2.432 . S
O1139 C1156 1.268 . S
O1140 Eu1092 2.291 . S
O1140 C1155 1.255 . S
O1141 Eu1103 2.372 . S
O1141 C1155 1.257 . S
O1142 Eu1103 2.462 . S
O1142 C1167 1.252 . S
O1143 Eu1103 2.373 . S
O1143 C1159 1.249 . S
O1144 Eu1092 2.335 . S
O1144 C1159 1.264 . S
O1145 Eu1103 2.432 . S
O1145 C1167 1.268 . S
O1146 Eu1103 2.291 . S
O1146 C1166 1.255 . S
O1147 Eu1092 2.372 . S
O1147 C1166 1.257 . S
C1148 O1137 1.249 . S
C1148 O1138 1.264 . S
C1149 C1152 1.382 . S
C1149 C1154 1.390 . S
C1149 C1156 1.506 . S
C1150 C1151 1.398 . S
C1150 C1154 1.392 . S
C1151 C1150 1.398 . S
C1151 C1153 1.372 . S
C1151 H1168 0.931 . S
C1152 C1149 1.382 . S
C1152 C1153 1.390 . S
C1152 H1169 0.931 . S
C1153 C1151 1.372 . S
C1153 C1152 1.390 . S
C1153 H1170 0.929 . S
C1154 C1149 1.390 . S
C1154 C1150 1.392 . S
C1154 H1171 0.930 . S
C1155 O1140 1.255 . S
C1155 O1141 1.257 . S
C1156 Eu1092 2.787 . S
C1156 O1136 1.252 . S
C1156 O1139 1.268 . S
C1156 C1149 1.506 . S
C1157 C1124 1.439 . S
C1157 H1134 0.931 . S
C1157 C1158 1.374 . S
C1158 C1129 1.387 . S
C1158 H1135 0.931 . S
C1158 C1157 1.374 . S
C1159 O1143 1.249 . S
C1159 O1144 1.264 . S
C1160 C1163 1.382 . S
C1160 C1164 1.390 . S
C1160 C1167 1.506 . S
C1161 C1162 1.398 1_565 S
C1161 C1164 1.392 . S
C1162 C1161 1.398 1_545 S
C1162 C1165 1.372 1_545 S
C1162 H1172 0.931 . S
C1163 C1160 1.382 . S
C1163 C1165 1.390 . S
C1163 H1173 0.931 . S
C1164 C1160 1.390 . S
C1164 C1161 1.392 . S
C1164 H1174 0.930 . S
C1165 C1162 1.372 1_565 S
C1165 C1163 1.390 . S
C1165 H1175 0.929 1_565 S
C1166 O1146 1.255 . S
C1166 O1147 1.257 . S
C1167 Eu1103 2.787 . S
C1167 O1142 1.252 . S
C1167 O1145 1.268 . S
C1167 C1160 1.506 . S
H1168 C1151 0.931 . S
H1169 C1152 0.931 . S
H1170 C1153 0.929 . S
H1171 C1154 0.930 . S
H1172 C1162 0.931 . S
H1173 C1163 0.931 . S
H1174 C1164 0.930 . S
H1175 C1165 0.929 1_545 S
Eu1176 N1205 2.600 . S
Eu1176 N1211 2.562 . S
Eu1176 O1220 2.462 . S
Eu1176 O1221 2.373 . S
Eu1176 O1223 2.432 . S
Eu1176 O1224 2.291 . S
Eu1176 O1228 2.335 . S
Eu1176 O1231 2.372 . S
Eu1176 C1240 2.787 . S
C1177 N1178 1.365 . S
C1177 C1180 1.405 . S
C1177 C1184 1.448 . S
N1178 C1177 1.365 . S
N1178 C1181 1.319 . S
N1178 Eu1187 2.600 . S
C1179 C1181 1.397 . S
C1179 C1182 1.367 . S
C1179 H1199 0.931 . S
C1180 C1177 1.405 . S
C1180 C1182 1.403 . S
C1180 C1186 1.439 . S
C1181 N1178 1.319 . S
C1181 C1179 1.397 . S
C1181 H1192 0.930 . S
C1182 C1179 1.367 . S
C1182 C1180 1.403 . S
C1182 H1203 0.929 . S
C1183 C1184 1.430 . S
C1183 C1185 1.387 . S
C1183 C1189 1.404 . S
C1184 C1177 1.448 . S
C1184 C1183 1.430 . S
C1184 N1188 1.351 . S
C1185 C1183 1.387 . S
C1185 C1186 1.374 . S
C1185 H1200 0.931 . S
C1186 C1180 1.439 . S
C1186 C1185 1.374 . S
C1186 H1201 0.931 . S
Eu1187 N1178 2.600 . S
Eu1187 N1188 2.562 . S
Eu1187 O1222 2.335 . S
Eu1187 O1225 2.372 . S
Eu1187 O1226 2.462 . S
Eu1187 O1227 2.373 . S
Eu1187 O1229 2.432 . S
Eu1187 O1230 2.291 . S
Eu1187 C1251 2.787 . S
N1188 C1184 1.351 . S
N1188 Eu1187 2.562 . S
N1188 C1190 1.325 . S
C1189 C1183 1.404 . S
C1189 C1191 1.366 . S
C1189 H1197 0.930 . S
C1190 N1188 1.325 . S
C1190 C1191 1.416 . S
C1190 H1196 0.929 . S
C1191 C1189 1.366 . S
C1191 C1190 1.416 . S
C1191 H1193 0.930 . S
H1192 C1181 0.930 . S
H1193 C1191 0.930 . S
H1194 C1209 0.930 . S
H1195 C1216 0.930 . S
H1196 C1190 0.929 . S
H1197 C1189 0.930 . S
H1198 C1212 0.929 . S
H1199 C1179 0.931 . S
H1200 C1185 0.931 . S
H1201 C1186 0.931 . S
H1202 C1207 0.931 . S
H1203 C1182 0.929 . S
H1204 C1215 0.930 . S
N1205 Eu1176 2.600 . S
N1205 C1206 1.365 . S
N1205 C1209 1.319 . S
C1206 N1205 1.365 . S
C1206 C1208 1.405 . S
C1206 C1214 1.448 . S
C1207 H1202 0.931 . S
C1207 C1209 1.397 . S
C1207 C1210 1.367 . S
C1208 C1206 1.405 . S
C1208 C1210 1.403 . S
C1208 C1241 1.439 . S
C1209 H1194 0.930 . S
C1209 N1205 1.319 . S
C1209 C1207 1.397 . S
C1210 C1207 1.367 . S
C1210 C1208 1.403 . S
C1210 H1217 0.929 . S
N1211 Eu1176 2.562 . S
N1211 C1212 1.325 . S
N1211 C1214 1.351 . S
C1212 H1198 0.929 . S
C1212 N1211 1.325 . S
C1212 C1216 1.416 . S
C1213 C1214 1.430 . S
C1213 C1215 1.404 . S
C1213 C1242 1.387 . S
C1214 C1206 1.448 . S
C1214 N1211 1.351 . S
C1214 C1213 1.430 . S
C1215 H1204 0.930 . S
C1215 C1213 1.404 . S
C1215 C1216 1.366 . S
C1216 H1195 0.930 . S
C1216 C1212 1.416 . S
C1216 C1215 1.366 . S
H1217 C1210 0.929 . S
H1218 C1241 0.931 . S
H1219 C1242 0.931 . S
O1220 Eu1176 2.462 . S
O1220 C1240 1.252 . S
O1221 Eu1176 2.373 . S
O1221 C1232 1.249 . S
O1222 Eu1187 2.335 . S
O1222 C1232 1.264 . S
O1223 Eu1176 2.432 . S
O1223 C1240 1.268 . S
O1224 Eu1176 2.291 . S
O1224 C1239 1.255 . S
O1225 Eu1187 2.372 . S
O1225 C1239 1.257 . S
O1226 Eu1187 2.462 . S
O1226 C1251 1.252 . S
O1227 Eu1187 2.373 . S
O1227 C1243 1.249 . S
O1228 Eu1176 2.335 . S
O1228 C1243 1.264 . S
O1229 Eu1187 2.432 . S
O1229 C1251 1.268 . S
O1230 Eu1187 2.291 . S
O1230 C1250 1.255 . S
O1231 Eu1176 2.372 . S
O1231 C1250 1.257 . S
C1232 O1221 1.249 . S
C1232 O1222 1.264 . S
C1233 C1236 1.382 . S
C1233 C1238 1.390 . S
C1233 C1240 1.506 . S
C1234 C1235 1.398 . S
C1234 C1238 1.392 . S
C1235 C1234 1.398 . S
C1235 C1237 1.372 . S
C1235 H1252 0.931 . S
C1236 C1233 1.382 . S
C1236 C1237 1.390 . S
C1236 H1253 0.931 . S
C1237 C1235 1.372 . S
C1237 C1236 1.390 . S
C1237 H1254 0.929 . S
C1238 C1233 1.390 . S
C1238 C1234 1.392 . S
C1238 H1255 0.930 . S
C1239 O1224 1.255 . S
C1239 O1225 1.257 . S
C1240 Eu1176 2.787 . S
C1240 O1220 1.252 . S
C1240 O1223 1.268 . S
C1240 C1233 1.506 . S
C1241 C1208 1.439 . S
C1241 H1218 0.931 . S
C1241 C1242 1.374 . S
C1242 C1213 1.387 . S
C1242 H1219 0.931 . S
C1242 C1241 1.374 . S
C1243 O1227 1.249 . S
C1243 O1228 1.264 . S
C1244 C1247 1.382 . S
C1244 C1248 1.390 . S
C1244 C1251 1.506 . S
C1245 C1246 1.398 1_565 S
C1245 C1248 1.392 . S
C1246 C1245 1.398 1_545 S
C1246 C1249 1.372 1_545 S
C1246 H1256 0.931 . S
C1247 C1244 1.382 . S
C1247 C1249 1.390 . S
C1247 H1257 0.931 . S
C1248 C1244 1.390 . S
C1248 C1245 1.392 . S
C1248 H1258 0.930 . S
C1249 C1246 1.372 1_565 S
C1249 C1247 1.390 . S
C1249 H1259 0.929 1_565 S
C1250 O1230 1.255 . S
C1250 O1231 1.257 . S
C1251 Eu1187 2.787 . S
C1251 O1226 1.252 . S
C1251 O1229 1.268 . S
C1251 C1244 1.506 . S
H1252 C1235 0.931 . S
H1253 C1236 0.931 . S
H1254 C1237 0.929 . S
H1255 C1238 0.930 . S
H1256 C1246 0.931 . S
H1257 C1247 0.931 . S
H1258 C1248 0.930 . S
H1259 C1249 0.929 1_545 S
Eu1260 N1289 2.600 . S
Eu1260 N1295 2.562 . S
Eu1260 O1304 2.462 . S
Eu1260 O1305 2.373 . S
Eu1260 O1307 2.432 . S
Eu1260 O1308 2.291 . S
Eu1260 O1312 2.335 . S
Eu1260 O1315 2.372 . S
Eu1260 C1324 2.787 . S
C1261 N1262 1.365 . S
C1261 C1264 1.405 . S
C1261 C1268 1.448 . S
N1262 C1261 1.365 . S
N1262 C1265 1.319 . S
N1262 Eu1271 2.600 . S
C1263 C1265 1.397 . S
C1263 C1266 1.367 . S
C1263 H1283 0.931 . S
C1264 C1261 1.405 . S
C1264 C1266 1.403 . S
C1264 C1270 1.439 . S
C1265 N1262 1.319 . S
C1265 C1263 1.397 . S
C1265 H1276 0.930 . S
C1266 C1263 1.367 . S
C1266 C1264 1.403 . S
C1266 H1287 0.929 . S
C1267 C1268 1.430 . S
C1267 C1269 1.387 . S
C1267 C1273 1.404 . S
C1268 C1261 1.448 . S
C1268 C1267 1.430 . S
C1268 N1272 1.351 . S
C1269 C1267 1.387 . S
C1269 C1270 1.374 . S
C1269 H1284 0.931 . S
C1270 C1264 1.439 . S
C1270 C1269 1.374 . S
C1270 H1285 0.931 . S
Eu1271 N1262 2.600 . S
Eu1271 N1272 2.562 . S
Eu1271 O1306 2.335 . S
Eu1271 O1309 2.372 . S
Eu1271 O1310 2.462 . S
Eu1271 O1311 2.373 . S
Eu1271 O1313 2.432 . S
Eu1271 O1314 2.291 . S
Eu1271 C1335 2.787 . S
N1272 C1268 1.351 . S
N1272 Eu1271 2.562 . S
N1272 C1274 1.325 . S
C1273 C1267 1.404 . S
C1273 C1275 1.366 . S
C1273 H1281 0.930 . S
C1274 N1272 1.325 . S
C1274 C1275 1.416 . S
C1274 H1280 0.929 . S
C1275 C1273 1.366 . S
C1275 C1274 1.416 . S
C1275 H1277 0.930 . S
H1276 C1265 0.930 . S
H1277 C1275 0.930 . S
H1278 C1293 0.930 . S
H1279 C1300 0.930 . S
H1280 C1274 0.929 . S
H1281 C1273 0.930 . S
H1282 C1296 0.929 . S
H1283 C1263 0.931 . S
H1284 C1269 0.931 . S
H1285 C1270 0.931 . S
H1286 C1291 0.931 . S
H1287 C1266 0.929 . S
H1288 C1299 0.930 . S
N1289 Eu1260 2.600 . S
N1289 C1290 1.365 . S
N1289 C1293 1.319 . S
C1290 N1289 1.365 . S
C1290 C1292 1.405 . S
C1290 C1298 1.448 . S
C1291 H1286 0.931 . S
C1291 C1293 1.397 . S
C1291 C1294 1.367 . S
C1292 C1290 1.405 . S
C1292 C1294 1.403 . S
C1292 C1325 1.439 . S
C1293 H1278 0.930 . S
C1293 N1289 1.319 . S
C1293 C1291 1.397 . S
C1294 C1291 1.367 . S
C1294 C1292 1.403 . S
C1294 H1301 0.929 . S
N1295 Eu1260 2.562 . S
N1295 C1296 1.325 . S
N1295 C1298 1.351 . S
C1296 H1282 0.929 . S
C1296 N1295 1.325 . S
C1296 C1300 1.416 . S
C1297 C1298 1.430 . S
C1297 C1299 1.404 . S
C1297 C1326 1.387 . S
C1298 C1290 1.448 . S
C1298 N1295 1.351 . S
C1298 C1297 1.430 . S
C1299 H1288 0.930 . S
C1299 C1297 1.404 . S
C1299 C1300 1.366 . S
C1300 H1279 0.930 . S
C1300 C1296 1.416 . S
C1300 C1299 1.366 . S
H1301 C1294 0.929 . S
H1302 C1325 0.931 . S
H1303 C1326 0.931 . S
O1304 Eu1260 2.462 . S
O1304 C1324 1.252 . S
O1305 Eu1260 2.373 . S
O1305 C1316 1.249 . S
O1306 Eu1271 2.335 . S
O1306 C1316 1.264 . S
O1307 Eu1260 2.432 . S
O1307 C1324 1.268 . S
O1308 Eu1260 2.291 . S
O1308 C1323 1.255 . S
O1309 Eu1271 2.372 . S
O1309 C1323 1.257 . S
O1310 Eu1271 2.462 . S
O1310 C1335 1.252 . S
O1311 Eu1271 2.373 . S
O1311 C1327 1.249 . S
O1312 Eu1260 2.335 . S
O1312 C1327 1.264 . S
O1313 Eu1271 2.432 . S
O1313 C1335 1.268 . S
O1314 Eu1271 2.291 . S
O1314 C1334 1.255 . S
O1315 Eu1260 2.372 . S
O1315 C1334 1.257 . S
C1316 O1305 1.249 . S
C1316 O1306 1.264 . S
C1317 C1320 1.382 . S
C1317 C1322 1.390 . S
C1317 C1324 1.506 . S
C1318 C1319 1.398 . S
C1318 C1322 1.392 . S
C1319 C1318 1.398 . S
C1319 C1321 1.372 . S
C1319 H1336 0.931 . S
C1320 C1317 1.382 . S
C1320 C1321 1.390 . S
C1320 H1337 0.931 . S
C1321 C1319 1.372 . S
C1321 C1320 1.390 . S
C1321 H1338 0.929 . S
C1322 C1317 1.390 . S
C1322 C1318 1.392 . S
C1322 H1339 0.930 . S
C1323 O1308 1.255 . S
C1323 O1309 1.257 . S
C1324 Eu1260 2.787 . S
C1324 O1304 1.252 . S
C1324 O1307 1.268 . S
C1324 C1317 1.506 . S
C1325 C1292 1.439 . S
C1325 H1302 0.931 . S
C1325 C1326 1.374 . S
C1326 C1297 1.387 . S
C1326 H1303 0.931 . S
C1326 C1325 1.374 . S
C1327 O1311 1.249 . S
C1327 O1312 1.264 . S
C1328 C1331 1.382 . S
C1328 C1332 1.390 . S
C1328 C1335 1.506 . S
C1329 C1330 1.398 1_545 S
C1329 C1332 1.392 . S
C1330 C1329 1.398 1_565 S
C1330 C1333 1.372 1_565 S
C1330 H1340 0.931 . S
C1331 C1328 1.382 . S
C1331 C1333 1.390 . S
C1331 H1341 0.931 . S
C1332 C1328 1.390 . S
C1332 C1329 1.392 . S
C1332 H1342 0.930 . S
C1333 C1330 1.372 1_545 S
C1333 C1331 1.390 . S
C1333 H1343 0.929 1_545 S
C1334 O1314 1.255 . S
C1334 O1315 1.257 . S
C1335 Eu1271 2.787 . S
C1335 O1310 1.252 . S
C1335 O1313 1.268 . S
C1335 C1328 1.506 . S
H1336 C1319 0.931 . S
H1337 C1320 0.931 . S
H1338 C1321 0.929 . S
H1339 C1322 0.930 . S
H1340 C1330 0.931 . S
H1341 C1331 0.931 . S
H1342 C1332 0.930 . S
H1343 C1333 0.929 1_565 S
C1344 C1345 1.369 . S
C1344 C1346 1.419 . S
C1344 H1348 0.930 . S
C1345 C1344 1.369 . S
C1345 C1354 1.429 . S
C1346 C1344 1.419 . S
C1346 C1347 1.363 . S
C1346 H1349 0.929 . S
C1347 C1346 1.363 . S
C1347 C1353 1.428 . S
H1348 C1344 0.930 . S
H1349 C1346 0.929 . S
S1350 N1351 1.613 . S
S1350 N1352 1.610 . S
N1351 S1350 1.613 . S
N1351 C1354 1.350 . S
N1352 S1350 1.610 . S
N1352 C1353 1.351 . S
C1353 C1347 1.428 . S
C1353 N1352 1.351 . S
C1353 C1354 1.434 . S
C1354 C1345 1.429 . S
C1354 N1351 1.350 . S
C1354 C1353 1.434 . S
C1355 C1356 1.369 . S
C1355 C1357 1.419 . S
C1355 H1359 0.930 . S
C1356 C1355 1.369 . S
C1356 C1365 1.429 . S
C1357 C1355 1.419 . S
C1357 C1358 1.363 . S
C1357 H1360 0.929 . S
C1358 C1357 1.363 . S
C1358 C1364 1.428 . S
H1359 C1355 0.930 . S
H1360 C1357 0.929 . S
S1361 N1362 1.613 . S
S1361 N1363 1.610 . S
N1362 S1361 1.613 . S
N1362 C1365 1.350 . S
N1363 S1361 1.610 . S
N1363 C1364 1.351 . S
C1364 C1358 1.428 . S
C1364 N1363 1.351 . S
C1364 C1365 1.434 . S
C1365 C1356 1.429 . S
C1365 N1362 1.350 . S
C1365 C1364 1.434 . S
C1366 C1367 1.369 . S
C1366 C1368 1.419 . S
C1366 H1370 0.930 . S
C1367 C1366 1.369 . S
C1367 C1376 1.429 . S
C1368 C1366 1.419 . S
C1368 C1369 1.363 . S
C1368 H1371 0.929 . S
C1369 C1368 1.363 . S
C1369 C1375 1.428 . S
H1370 C1366 0.930 . S
H1371 C1368 0.929 . S
S1372 N1373 1.613 . S
S1372 N1374 1.610 . S
N1373 S1372 1.613 . S
N1373 C1376 1.350 . S
N1374 S1372 1.610 . S
N1374 C1375 1.351 . S
C1375 C1369 1.428 . S
C1375 N1374 1.351 . S
C1375 C1376 1.434 . S
C1376 C1367 1.429 . S
C1376 N1373 1.350 . S
C1376 C1375 1.434 . S
C1377 C1378 1.369 . S
C1377 C1379 1.419 . S
C1377 H1381 0.930 . S
C1378 C1377 1.369 . S
C1378 C1387 1.429 . S
C1379 C1377 1.419 . S
C1379 C1380 1.363 . S
C1379 H1382 0.929 . S
C1380 C1379 1.363 . S
C1380 C1386 1.428 . S
H1381 C1377 0.930 . S
H1382 C1379 0.929 . S
S1383 N1384 1.613 . S
S1383 N1385 1.610 . S
N1384 S1383 1.613 . S
N1384 C1387 1.350 . S
N1385 S1383 1.610 . S
N1385 C1386 1.351 . S
C1386 C1380 1.428 . S
C1386 N1385 1.351 . S
C1386 C1387 1.434 . S
C1387 C1378 1.429 . S
C1387 N1384 1.350 . S
C1387 C1386 1.434 . S
C1388 C1389 1.369 . S
C1388 C1390 1.419 . S
C1388 H1392 0.930 . S
C1389 C1388 1.369 . S
C1389 C1398 1.429 . S
C1390 C1388 1.419 . S
C1390 C1391 1.363 . S
C1390 H1393 0.929 . S
C1391 C1390 1.363 . S
C1391 C1397 1.428 . S
H1392 C1388 0.930 . S
H1393 C1390 0.929 . S
S1394 N1395 1.613 . S
S1394 N1396 1.610 . S
N1395 S1394 1.613 . S
N1395 C1398 1.350 . S
N1396 S1394 1.610 . S
N1396 C1397 1.351 . S
C1397 C1391 1.428 . S
C1397 N1396 1.351 . S
C1397 C1398 1.434 . S
C1398 C1389 1.429 . S
C1398 N1395 1.350 . S
C1398 C1397 1.434 . S
C1399 C1400 1.369 . S
C1399 C1401 1.419 . S
C1399 H1403 0.930 . S
C1400 C1399 1.369 . S
C1400 C1409 1.429 . S
C1401 C1399 1.419 . S
C1401 C1402 1.363 . S
C1401 H1404 0.929 . S
C1402 C1401 1.363 . S
C1402 C1408 1.428 . S
H1403 C1399 0.930 . S
H1404 C1401 0.929 . S
S1405 N1406 1.613 . S
S1405 N1407 1.610 . S
N1406 S1405 1.613 . S
N1406 C1409 1.350 . S
N1407 S1405 1.610 . S
N1407 C1408 1.351 . S
C1408 C1402 1.428 . S
C1408 N1407 1.351 . S
C1408 C1409 1.434 . S
C1409 C1400 1.429 . S
C1409 N1406 1.350 . S
C1409 C1408 1.434 . S
C1410 C1411 1.369 . S
C1410 C1412 1.419 . S
C1410 H1414 0.930 . S
C1411 C1410 1.369 . S
C1411 C1420 1.429 . S
C1412 C1410 1.419 . S
C1412 C1413 1.363 . S
C1412 H1415 0.929 . S
C1413 C1412 1.363 . S
C1413 C1419 1.428 . S
H1414 C1410 0.930 . S
H1415 C1412 0.929 . S
S1416 N1417 1.613 . S
S1416 N1418 1.610 . S
N1417 S1416 1.613 . S
N1417 C1420 1.350 . S
N1418 S1416 1.610 . S
N1418 C1419 1.351 . S
C1419 C1413 1.428 . S
C1419 N1418 1.351 . S
C1419 C1420 1.434 . S
C1420 C1411 1.429 . S
C1420 N1417 1.350 . S
C1420 C1419 1.434 . S
C1421 C1422 1.369 . S
C1421 C1423 1.419 . S
C1421 H1425 0.930 . S
C1422 C1421 1.369 . S
C1422 C1431 1.429 . S
C1423 C1421 1.419 . S
C1423 C1424 1.363 . S
C1423 H1426 0.929 . S
C1424 C1423 1.363 . S
C1424 C1430 1.428 . S
H1425 C1421 0.930 . S
H1426 C1423 0.929 . S
S1427 N1428 1.613 . S
S1427 N1429 1.610 . S
N1428 S1427 1.613 . S
N1428 C1431 1.350 . S
N1429 S1427 1.610 . S
N1429 C1430 1.351 . S
C1430 C1424 1.428 . S
C1430 N1429 1.351 . S
C1430 C1431 1.434 . S
C1431 C1422 1.429 . S
C1431 N1428 1.350 . S
C1431 C1430 1.434 . S
C1432 C1433 1.369 . S
C1432 C1434 1.419 . S
C1432 H1436 0.930 . S
C1433 C1432 1.369 . S
C1433 C1442 1.429 1_565 S
C1434 C1432 1.419 . S
C1434 C1435 1.363 1_565 S
C1434 H1437 0.929 . S
C1435 C1434 1.363 1_545 S
C1435 C1441 1.428 . S
H1436 C1432 0.930 . S
H1437 C1434 0.929 . S
S1438 N1439 1.613 . S
S1438 N1440 1.610 . S
N1439 S1438 1.613 . S
N1439 C1442 1.350 . S
N1440 S1438 1.610 . S
N1440 C1441 1.351 . S
C1441 C1435 1.428 . S
C1441 N1440 1.351 . S
C1441 C1442 1.434 . S
C1442 C1433 1.429 1_545 S
C1442 N1439 1.350 . S
C1442 C1441 1.434 . S
C1443 C1444 1.369 1_565 S
C1443 C1445 1.419 . S
C1443 H1447 0.930 . S
C1444 C1443 1.369 1_545 S
C1444 C1453 1.429 . S
C1445 C1443 1.419 . S
C1445 C1446 1.363 . S
C1445 H1448 0.929 . S
C1446 C1445 1.363 . S
C1446 C1452 1.428 1_565 S
H1447 C1443 0.930 . S
H1448 C1445 0.929 . S
S1449 N1450 1.613 . S
S1449 N1451 1.610 . S
N1450 S1449 1.613 . S
N1450 C1453 1.350 . S
N1451 S1449 1.610 . S
N1451 C1452 1.351 . S
C1452 C1446 1.428 1_545 S
C1452 N1451 1.351 . S
C1452 C1453 1.434 . S
C1453 C1444 1.429 . S
C1453 N1450 1.350 . S
C1453 C1452 1.434 . S
C1454 C1455 1.369 1_565 S
C1454 C1456 1.419 . S
C1454 H1458 0.930 . S
C1455 C1454 1.369 1_545 S
C1455 C1464 1.429 . S
C1456 C1454 1.419 . S
C1456 C1457 1.363 . S
C1456 H1459 0.929 . S
C1457 C1456 1.363 . S
C1457 C1463 1.428 1_565 S
H1458 C1454 0.930 . S
H1459 C1456 0.929 . S
S1460 N1461 1.613 . S
S1460 N1462 1.610 . S
N1461 S1460 1.613 . S
N1461 C1464 1.350 . S
N1462 S1460 1.610 . S
N1462 C1463 1.351 . S
C1463 C1457 1.428 1_545 S
C1463 N1462 1.351 . S
C1463 C1464 1.434 . S
C1464 C1455 1.429 . S
C1464 N1461 1.350 . S
C1464 C1463 1.434 . S
C1465 C1466 1.369 . S
C1465 C1467 1.419 1_545 S
C1465 H1469 0.930 . S
C1466 C1465 1.369 . S
C1466 C1475 1.429 . S
C1467 C1465 1.419 1_565 S
C1467 C1468 1.363 . S
C1467 H1470 0.929 . S
C1468 C1467 1.363 . S
C1468 C1474 1.428 . S
H1469 C1465 0.930 . S
H1470 C1467 0.929 . S
S1471 N1472 1.613 . S
S1471 N1473 1.610 1_545 S
N1472 S1471 1.613 . S
N1472 C1475 1.350 . S
N1473 S1471 1.610 1_565 S
N1473 C1474 1.351 . S
C1474 C1468 1.428 . S
C1474 N1473 1.351 . S
C1474 C1475 1.434 1_565 S
C1475 C1466 1.429 . S
C1475 N1472 1.350 . S
C1475 C1474 1.434 1_545 S
C1476 C1477 1.369 . S
C1476 C1478 1.419 . S
C1476 H1480 0.930 . S
C1477 C1476 1.369 . S
C1477 C1486 1.429 . S
C1478 C1476 1.419 . S
C1478 C1479 1.363 . S
C1478 H1481 0.929 . S
C1479 C1478 1.363 . S
C1479 C1485 1.428 . S
H1480 C1476 0.930 . S
H1481 C1478 0.929 . S
S1482 N1483 1.613 . S
S1482 N1484 1.610 . S
N1483 S1482 1.613 . S
N1483 C1486 1.350 . S
N1484 S1482 1.610 . S
N1484 C1485 1.351 . S
C1485 C1479 1.428 . S
C1485 N1484 1.351 . S
C1485 C1486 1.434 . S
C1486 C1477 1.429 . S
C1486 N1483 1.350 . S
C1486 C1485 1.434 . S
C1487 C1488 1.369 . S
C1487 C1489 1.419 . S
C1487 H1491 0.930 . S
C1488 C1487 1.369 . S
C1488 C1497 1.429 . S
C1489 C1487 1.419 . S
C1489 C1490 1.363 . S
C1489 H1492 0.929 . S
C1490 C1489 1.363 . S
C1490 C1496 1.428 . S
H1491 C1487 0.930 . S
H1492 C1489 0.929 . S
S1493 N1494 1.613 . S
S1493 N1495 1.610 . S
N1494 S1493 1.613 . S
N1494 C1497 1.350 . S
N1495 S1493 1.610 . S
N1495 C1496 1.351 . S
C1496 C1490 1.428 . S
C1496 N1495 1.351 . S
C1496 C1497 1.434 . S
C1497 C1488 1.429 . S
C1497 N1494 1.350 . S
C1497 C1496 1.434 . S
C1498 C1499 1.369 . S
C1498 C1500 1.419 . S
C1498 H1502 0.930 . S
C1499 C1498 1.369 . S
C1499 C1508 1.429 . S
C1500 C1498 1.419 . S
C1500 C1501 1.363 . S
C1500 H1503 0.929 . S
C1501 C1500 1.363 . S
C1501 C1507 1.428 . S
H1502 C1498 0.930 . S
H1503 C1500 0.929 . S
S1504 N1505 1.613 . S
S1504 N1506 1.610 . S
N1505 S1504 1.613 . S
N1505 C1508 1.350 . S
N1506 S1504 1.610 . S
N1506 C1507 1.351 . S
C1507 C1501 1.428 . S
C1507 N1506 1.351 . S
C1507 C1508 1.434 . S
C1508 C1499 1.429 . S
C1508 N1505 1.350 . S
C1508 C1507 1.434 . S
C1509 C1510 1.369 . S
C1509 C1511 1.419 . S
C1509 H1513 0.930 . S
C1510 C1509 1.369 . S
C1510 C1519 1.429 . S
C1511 C1509 1.419 . S
C1511 C1512 1.363 . S
C1511 H1514 0.929 . S
C1512 C1511 1.363 . S
C1512 C1518 1.428 . S
H1513 C1509 0.930 . S
H1514 C1511 0.929 . S
S1515 N1516 1.613 . S
S1515 N1517 1.610 . S
N1516 S1515 1.613 . S
N1516 C1519 1.350 . S
N1517 S1515 1.610 . S
N1517 C1518 1.351 . S
C1518 C1512 1.428 . S
C1518 N1517 1.351 . S
C1518 C1519 1.434 . S
C1519 C1510 1.429 . S
C1519 N1516 1.350 . S
C1519 C1518 1.434 . S
C1520 C1521 1.369 . S
C1520 C1522 1.419 1_556 S
C1520 H1524 0.930 . S
C1521 C1520 1.369 . S
C1521 C1530 1.429 . S
C1522 C1520 1.419 1_554 S
C1522 C1523 1.363 . S
C1522 H1525 0.929 . S
C1523 C1522 1.363 . S
C1523 C1529 1.428 . S
H1524 C1520 0.930 . S
H1525 C1522 0.929 . S
S1526 N1527 1.616 1_554 S
S1526 N1528 1.608 . S
N1527 S1526 1.616 1_556 S
N1527 C1530 1.350 . S
N1528 S1526 1.608 . S
N1528 C1529 1.351 . S
C1529 C1523 1.428 . S
C1529 N1528 1.351 . S
C1529 C1530 1.434 1_554 S
C1530 C1521 1.429 . S
C1530 N1527 1.350 . S
C1530 C1529 1.434 1_556 S
C1531 C1532 1.369 . S
C1531 C1533 1.419 1_556 S
C1531 H1535 0.930 . S
C1532 C1531 1.369 . S
C1532 C1541 1.429 . S
C1533 C1531 1.419 1_554 S
C1533 C1534 1.363 . S
C1533 H1536 0.929 . S
C1534 C1533 1.363 . S
C1534 C1540 1.428 . S
H1535 C1531 0.930 . S
H1536 C1533 0.929 . S
S1537 N1538 1.616 1_554 S
S1537 N1539 1.608 . S
N1538 S1537 1.616 1_556 S
N1538 C1541 1.350 . S
N1539 S1537 1.608 . S
N1539 C1540 1.351 . S
C1540 C1534 1.428 . S
C1540 N1539 1.351 . S
C1540 C1541 1.434 1_554 S
C1541 C1532 1.429 . S
C1541 N1538 1.350 . S
C1541 C1540 1.434 1_556 S
C1542 C1543 1.369 . S
C1542 C1544 1.419 . S
C1542 H1546 0.930 . S
C1543 C1542 1.369 . S
C1543 C1552 1.429 . S
C1544 C1542 1.419 . S
C1544 C1545 1.363 . S
C1544 H1547 0.929 . S
C1545 C1544 1.363 . S
C1545 C1551 1.428 . S
H1546 C1542 0.930 . S
H1547 C1544 0.929 . S
S1548 N1549 1.613 . S
S1548 N1550 1.610 . S
N1549 S1548 1.613 . S
N1549 C1552 1.350 . S
N1550 S1548 1.610 . S
N1550 C1551 1.351 . S
C1551 C1545 1.428 . S
C1551 N1550 1.351 . S
C1551 C1552 1.434 . S
C1552 C1543 1.429 . S
C1552 N1549 1.350 . S
C1552 C1551 1.434 . S
C1553 C1554 1.369 . S
C1553 C1555 1.419 . S
C1553 H1557 0.930 . S
C1554 C1553 1.369 . S
C1554 C1563 1.429 . S
C1555 C1553 1.419 . S
C1555 C1556 1.363 . S
C1555 H1558 0.929 . S
C1556 C1555 1.363 . S
C1556 C1562 1.428 . S
H1557 C1553 0.930 . S
H1558 C1555 0.929 . S
S1559 N1560 1.613 . S
S1559 N1561 1.610 . S
N1560 S1559 1.613 . S
N1560 C1563 1.350 . S
N1561 S1559 1.610 . S
N1561 C1562 1.351 . S
C1562 C1556 1.428 . S
C1562 N1561 1.351 . S
C1562 C1563 1.434 . S
C1563 C1554 1.429 . S
C1563 N1560 1.350 . S
C1563 C1562 1.434 . S
C1564 C1565 1.369 . S
C1564 C1566 1.419 1_554 S
C1564 H1568 0.930 . S
C1565 C1564 1.369 . S
C1565 C1574 1.429 . S
C1566 C1564 1.419 1_556 S
C1566 C1567 1.363 . S
C1566 H1569 0.929 . S
C1567 C1566 1.363 . S
C1567 C1573 1.428 . S
H1568 C1564 0.930 . S
H1569 C1566 0.929 . S
S1570 N1571 1.616 1_556 S
S1570 N1572 1.608 . S
N1571 S1570 1.616 1_554 S
N1571 C1574 1.350 . S
N1572 S1570 1.608 . S
N1572 C1573 1.351 . S
C1573 C1567 1.428 . S
C1573 N1572 1.351 . S
C1573 C1574 1.434 1_556 S
C1574 C1565 1.429 . S
C1574 N1571 1.350 . S
C1574 C1573 1.434 1_554 S
C1575 C1576 1.369 . S
C1575 C1577 1.419 1_556 S
C1575 H1579 0.930 . S
C1576 C1575 1.369 . S
C1576 C1585 1.429 . S
C1577 C1575 1.419 1_554 S
C1577 C1578 1.363 . S
C1577 H1580 0.929 . S
C1578 C1577 1.363 . S
C1578 C1584 1.428 . S
H1579 C1575 0.930 . S
H1580 C1577 0.929 . S
S1581 N1582 1.616 1_554 S
S1581 N1583 1.608 . S
N1582 S1581 1.616 1_556 S
N1582 C1585 1.350 . S
N1583 S1581 1.608 . S
N1583 C1584 1.351 . S
C1584 C1578 1.428 . S
C1584 N1583 1.351 . S
C1584 C1585 1.434 1_554 S
C1585 C1576 1.429 . S
C1585 N1582 1.350 . S
C1585 C1584 1.434 1_556 S
C1586 C1587 1.369 . S
C1586 C1588 1.419 . S
C1586 H1590 0.930 . S
C1587 C1586 1.369 . S
C1587 C1596 1.429 . S
C1588 C1586 1.419 . S
C1588 C1589 1.363 . S
C1588 H1591 0.929 . S
C1589 C1588 1.363 . S
C1589 C1595 1.428 . S
H1590 C1586 0.930 . S
H1591 C1588 0.929 . S
S1592 N1593 1.613 . S
S1592 N1594 1.610 . S
N1593 S1592 1.613 . S
N1593 C1596 1.350 . S
N1594 S1592 1.610 . S
N1594 C1595 1.351 . S
C1595 C1589 1.428 . S
C1595 N1594 1.351 . S
C1595 C1596 1.434 . S
C1596 C1587 1.429 . S
C1596 N1593 1.350 . S
C1596 C1595 1.434 . S
C1597 C1598 1.369 . S
C1597 C1599 1.419 . S
C1597 H1601 0.930 . S
C1598 C1597 1.369 . S
C1598 C1607 1.429 . S
C1599 C1597 1.419 . S
C1599 C1600 1.363 . S
C1599 H1602 0.929 . S
C1600 C1599 1.363 . S
C1600 C1606 1.428 . S
H1601 C1597 0.930 . S
H1602 C1599 0.929 . S
S1603 N1604 1.613 . S
S1603 N1605 1.610 . S
N1604 S1603 1.613 . S
N1604 C1607 1.350 . S
N1605 S1603 1.610 . S
N1605 C1606 1.351 . S
C1606 C1600 1.428 . S
C1606 N1605 1.351 . S
C1606 C1607 1.434 . S
C1607 C1598 1.429 . S
C1607 N1604 1.350 . S
C1607 C1606 1.434 . S
C1608 C1609 1.369 1_545 S
C1608 C1610 1.419 1_655 S
C1608 H1612 0.930 . S
C1609 C1608 1.369 1_565 S
C1609 C1618 1.429 . S
C1610 C1608 1.419 1_455 S
C1610 C1611 1.363 . S
C1610 H1613 0.929 . S
C1611 C1610 1.363 . S
C1611 C1617 1.428 1_545 S
H1612 C1608 0.930 . S
H1613 C1610 0.929 . S
S1614 N1615 1.613 1_455 S
S1614 N1616 1.610 . S
N1615 S1614 1.613 1_655 S
N1615 C1618 1.350 . S
N1616 S1614 1.610 . S
N1616 C1617 1.351 . S
C1617 C1611 1.428 1_565 S
C1617 N1616 1.351 . S
C1617 C1618 1.434 1_455 S
C1618 C1609 1.429 . S
C1618 N1615 1.350 . S
C1618 C1617 1.434 1_655 S
C1619 C1620 1.369 1_565 S
C1619 C1621 1.419 1_655 S
C1619 H1623 0.930 . S
C1620 C1619 1.369 1_545 S
C1620 C1629 1.429 . S
C1621 C1619 1.419 1_455 S
C1621 C1622 1.363 . S
C1621 H1624 0.929 . S
C1622 C1621 1.363 . S
C1622 C1628 1.428 1_565 S
H1623 C1619 0.930 . S
H1624 C1621 0.929 . S
S1625 N1626 1.613 1_455 S
S1625 N1627 1.610 . S
N1626 S1625 1.613 1_655 S
N1626 C1629 1.350 . S
N1627 S1625 1.610 . S
N1627 C1628 1.351 . S
C1628 C1622 1.428 1_545 S
C1628 N1627 1.351 . S
C1628 C1629 1.434 1_455 S
C1629 C1620 1.429 . S
C1629 N1626 1.350 . S
C1629 C1628 1.434 1_655 S
C1630 C1631 1.369 . S
C1630 C1632 1.419 1_455 S
C1630 H1634 0.930 . S
C1631 C1630 1.369 . S
C1631 C1640 1.429 1_545 S
C1632 C1630 1.419 1_655 S
C1632 C1633 1.363 1_545 S
C1632 H1635 0.929 . S
C1633 C1632 1.363 1_565 S
C1633 C1639 1.428 . S
H1634 C1630 0.930 . S
H1635 C1632 0.929 . S
S1636 N1637 1.613 . S
S1636 N1638 1.610 1_455 S
N1637 S1636 1.613 . S
N1637 C1640 1.350 . S
N1638 S1636 1.610 1_655 S
N1638 C1639 1.351 . S
C1639 C1633 1.428 . S
C1639 N1638 1.351 . S
C1639 C1640 1.434 1_655 S
C1640 C1631 1.429 1_565 S
C1640 N1637 1.350 . S
C1640 C1639 1.434 1_455 S
C1641 C1642 1.369 1_565 S
C1641 C1643 1.419 1_655 S
C1641 H1645 0.930 . S
C1642 C1641 1.369 1_545 S
C1642 C1651 1.429 . S
C1643 C1641 1.419 1_455 S
C1643 C1644 1.363 . S
C1643 H1646 0.929 . S
C1644 C1643 1.363 . S
C1644 C1650 1.428 1_565 S
H1645 C1641 0.930 . S
H1646 C1643 0.929 . S
S1647 N1648 1.613 1_455 S
S1647 N1649 1.610 . S
N1648 S1647 1.613 1_655 S
N1648 C1651 1.350 . S
N1649 S1647 1.610 . S
N1649 C1650 1.351 . S
C1650 C1644 1.428 1_545 S
C1650 N1649 1.351 . S
C1650 C1651 1.434 1_455 S
C1651 C1642 1.429 . S
C1651 N1648 1.350 . S
C1651 C1650 1.434 1_655 S
C1652 C1653 1.369 . S
C1652 C1654 1.419 . S
C1652 H1656 0.930 . S
C1653 C1652 1.369 . S
C1653 C1662 1.429 . S
C1654 C1652 1.419 . S
C1654 C1655 1.363 . S
C1654 H1657 0.929 . S
C1655 C1654 1.363 . S
C1655 C1661 1.428 . S
H1656 C1652 0.930 . S
H1657 C1654 0.929 . S
S1658 N1659 1.613 . S
S1658 N1660 1.610 . S
N1659 S1658 1.613 . S
N1659 C1662 1.350 . S
N1660 S1658 1.610 . S
N1660 C1661 1.351 . S
C1661 C1655 1.428 . S
C1661 N1660 1.351 . S
C1661 C1662 1.434 . S
C1662 C1653 1.429 . S
C1662 N1659 1.350 . S
C1662 C1661 1.434 . S
C1663 C1664 1.369 . S
C1663 C1665 1.419 . S
C1663 H1667 0.930 . S
C1664 C1663 1.369 . S
C1664 C1673 1.429 . S
C1665 C1663 1.419 . S
C1665 C1666 1.363 . S
C1665 H1668 0.929 . S
C1666 C1665 1.363 . S
C1666 C1672 1.428 . S
H1667 C1663 0.930 . S
H1668 C1665 0.929 . S
S1669 N1670 1.613 . S
S1669 N1671 1.610 . S
N1670 S1669 1.613 . S
N1670 C1673 1.350 . S
N1671 S1669 1.610 . S
N1671 C1672 1.351 . S
C1672 C1666 1.428 . S
C1672 N1671 1.351 . S
C1672 C1673 1.434 . S
C1673 C1664 1.429 . S
C1673 N1670 1.350 . S
C1673 C1672 1.434 . S
C1674 C1675 1.369 . S
C1674 C1676 1.419 . S
C1674 H1678 0.930 . S
C1675 C1674 1.369 . S
C1675 C1684 1.429 . S
C1676 C1674 1.419 . S
C1676 C1677 1.363 . S
C1676 H1679 0.929 . S
C1677 C1676 1.363 . S
C1677 C1683 1.428 . S
H1678 C1674 0.930 . S
H1679 C1676 0.929 . S
S1680 N1681 1.613 . S
S1680 N1682 1.610 . S
N1681 S1680 1.613 . S
N1681 C1684 1.350 . S
N1682 S1680 1.610 . S
N1682 C1683 1.351 . S
C1683 C1677 1.428 . S
C1683 N1682 1.351 . S
C1683 C1684 1.434 . S
C1684 C1675 1.429 . S
C1684 N1681 1.350 . S
C1684 C1683 1.434 . S
C1685 C1686 1.369 . S
C1685 C1687 1.419 . S
C1685 H1689 0.930 . S
C1686 C1685 1.369 . S
C1686 C1695 1.429 . S
C1687 C1685 1.419 . S
C1687 C1688 1.363 . S
C1687 H1690 0.929 . S
C1688 C1687 1.363 . S
C1688 C1694 1.428 . S
H1689 C1685 0.930 . S
H1690 C1687 0.929 . S
S1691 N1692 1.613 . S
S1691 N1693 1.610 . S
N1692 S1691 1.613 . S
N1692 C1695 1.350 . S
N1693 S1691 1.610 . S
N1693 C1694 1.351 . S
C1694 C1688 1.428 . S
C1694 N1693 1.351 . S
C1694 C1695 1.434 . S
C1695 C1686 1.429 . S
C1695 N1692 1.350 . S
C1695 C1694 1.434 . S
C1696 C1697 1.369 . S
C1696 C1698 1.419 . S
C1696 H1700 0.930 . S
C1697 C1696 1.369 . S
C1697 C1706 1.429 . S
C1698 C1696 1.419 . S
C1698 C1699 1.363 . S
C1698 H1701 0.929 . S
C1699 C1698 1.363 . S
C1699 C1705 1.428 . S
H1700 C1696 0.930 . S
H1701 C1698 0.929 . S
S1702 N1703 1.613 . S
S1702 N1704 1.610 . S
N1703 S1702 1.613 . S
N1703 C1706 1.350 . S
N1704 S1702 1.610 . S
N1704 C1705 1.351 . S
C1705 C1699 1.428 . S
C1705 N1704 1.351 . S
C1705 C1706 1.434 . S
C1706 C1697 1.429 . S
C1706 N1703 1.350 . S
C1706 C1705 1.434 . S
C1707 C1708 1.369 . S
C1707 C1709 1.419 . S
C1707 H1711 0.930 . S
C1708 C1707 1.369 . S
C1708 C1717 1.429 . S
C1709 C1707 1.419 . S
C1709 C1710 1.363 . S
C1709 H1712 0.929 . S
C1710 C1709 1.363 . S
C1710 C1716 1.428 . S
H1711 C1707 0.930 . S
H1712 C1709 0.929 . S
S1713 N1714 1.613 . S
S1713 N1715 1.610 . S
N1714 S1713 1.613 . S
N1714 C1717 1.350 . S
N1715 S1713 1.610 . S
N1715 C1716 1.351 . S
C1716 C1710 1.428 . S
C1716 N1715 1.351 . S
C1716 C1717 1.434 . S
C1717 C1708 1.429 . S
C1717 N1714 1.350 . S
C1717 C1716 1.434 . S
C1718 C1719 1.369 . S
C1718 C1720 1.419 . S
C1718 H1722 0.930 . S
C1719 C1718 1.369 . S
C1719 C1728 1.429 . S
C1720 C1718 1.419 . S
C1720 C1721 1.363 . S
C1720 H1723 0.929 . S
C1721 C1720 1.363 . S
C1721 C1727 1.428 . S
H1722 C1718 0.930 . S
H1723 C1720 0.929 . S
S1724 N1725 1.613 . S
S1724 N1726 1.610 . S
N1725 S1724 1.613 . S
N1725 C1728 1.350 . S
N1726 S1724 1.610 . S
N1726 C1727 1.351 . S
C1727 C1721 1.428 . S
C1727 N1726 1.351 . S
C1727 C1728 1.434 . S
C1728 C1719 1.429 . S
C1728 N1725 1.350 . S
C1728 C1727 1.434 . S
C1729 C1730 1.369 . S
C1729 C1731 1.419 . S
C1729 H1733 0.930 . S
C1730 C1729 1.369 . S
C1730 C1739 1.429 . S
C1731 C1729 1.419 . S
C1731 C1732 1.363 . S
C1731 H1734 0.929 . S
C1732 C1731 1.363 . S
C1732 C1738 1.428 . S
H1733 C1729 0.930 . S
H1734 C1731 0.929 . S
S1735 N1736 1.613 . S
S1735 N1737 1.610 . S
N1736 S1735 1.613 . S
N1736 C1739 1.350 . S
N1737 S1735 1.610 . S
N1737 C1738 1.351 . S
C1738 C1732 1.428 . S
C1738 N1737 1.351 . S
C1738 C1739 1.434 . S
C1739 C1730 1.429 . S
C1739 N1736 1.350 . S
C1739 C1738 1.434 . S
C1740 C1741 1.369 . S
C1740 C1742 1.419 . S
C1740 H1744 0.930 . S
C1741 C1740 1.369 . S
C1741 C1750 1.429 . S
C1742 C1740 1.419 . S
C1742 C1743 1.363 . S
C1742 H1745 0.929 . S
C1743 C1742 1.363 . S
C1743 C1749 1.428 . S
H1744 C1740 0.930 . S
H1745 C1742 0.929 . S
S1746 N1747 1.613 . S
S1746 N1748 1.610 . S
N1747 S1746 1.613 . S
N1747 C1750 1.350 . S
N1748 S1746 1.610 . S
N1748 C1749 1.351 . S
C1749 C1743 1.428 . S
C1749 N1748 1.351 . S
C1749 C1750 1.434 . S
C1750 C1741 1.429 . S
C1750 N1747 1.350 . S
C1750 C1749 1.434 . S
C1751 C1752 1.369 . S
C1751 C1753 1.419 . S
C1751 H1755 0.930 . S
C1752 C1751 1.369 . S
C1752 C1761 1.429 . S
C1753 C1751 1.419 . S
C1753 C1754 1.363 . S
C1753 H1756 0.929 . S
C1754 C1753 1.363 . S
C1754 C1760 1.428 . S
H1755 C1751 0.930 . S
H1756 C1753 0.929 . S
S1757 N1758 1.613 . S
S1757 N1759 1.610 . S
N1758 S1757 1.613 . S
N1758 C1761 1.350 . S
N1759 S1757 1.610 . S
N1759 C1760 1.351 . S
C1760 C1754 1.428 . S
C1760 N1759 1.351 . S
C1760 C1761 1.434 . S
C1761 C1752 1.429 . S
C1761 N1758 1.350 . S
C1761 C1760 1.434 . S
C1762 C1763 1.369 . S
C1762 C1764 1.419 . S
C1762 H1766 0.930 . S
C1763 C1762 1.369 . S
C1763 C1772 1.429 . S
C1764 C1762 1.419 . S
C1764 C1765 1.363 . S
C1764 H1767 0.929 . S
C1765 C1764 1.363 . S
C1765 C1771 1.428 . S
H1766 C1762 0.930 . S
H1767 C1764 0.929 . S
S1768 N1769 1.613 . S
S1768 N1770 1.610 . S
N1769 S1768 1.613 . S
N1769 C1772 1.350 . S
N1770 S1768 1.610 . S
N1770 C1771 1.351 . S
C1771 C1765 1.428 . S
C1771 N1770 1.351 . S
C1771 C1772 1.434 . S
C1772 C1763 1.429 . S
C1772 N1769 1.350 . S
C1772 C1771 1.434 . S
C1773 C1774 1.369 . S
C1773 C1775 1.419 . S
C1773 H1777 0.930 . S
C1774 C1773 1.369 . S
C1774 C1783 1.429 . S
C1775 C1773 1.419 . S
C1775 C1776 1.363 . S
C1775 H1778 0.929 . S
C1776 C1775 1.363 . S
C1776 C1782 1.428 . S
H1777 C1773 0.930 . S
H1778 C1775 0.929 . S
S1779 N1780 1.613 . S
S1779 N1781 1.610 . S
N1780 S1779 1.613 . S
N1780 C1783 1.350 . S
N1781 S1779 1.610 . S
N1781 C1782 1.351 . S
C1782 C1776 1.428 . S
C1782 N1781 1.351 . S
C1782 C1783 1.434 . S
C1783 C1774 1.429 . S
C1783 N1780 1.350 . S
C1783 C1782 1.434 . S
C1784 C1785 1.369 . S
C1784 C1786 1.419 . S
C1784 H1788 0.930 . S
C1785 C1784 1.369 . S
C1785 C1794 1.429 . S
C1786 C1784 1.419 . S
C1786 C1787 1.363 . S
C1786 H1789 0.929 . S
C1787 C1786 1.363 . S
C1787 C1793 1.428 . S
H1788 C1784 0.930 . S
H1789 C1786 0.929 . S
S1790 N1791 1.613 . S
S1790 N1792 1.610 . S
N1791 S1790 1.613 . S
N1791 C1794 1.350 . S
N1792 S1790 1.610 . S
N1792 C1793 1.351 . S
C1793 C1787 1.428 . S
C1793 N1792 1.351 . S
C1793 C1794 1.434 . S
C1794 C1785 1.429 . S
C1794 N1791 1.350 . S
C1794 C1793 1.434 . S
C1795 C1796 1.369 . S
C1795 C1797 1.419 . S
C1795 H1799 0.930 . S
C1796 C1795 1.369 . S
C1796 C1805 1.429 . S
C1797 C1795 1.419 . S
C1797 C1798 1.363 . S
C1797 H1800 0.929 . S
C1798 C1797 1.363 . S
C1798 C1804 1.428 . S
H1799 C1795 0.930 . S
H1800 C1797 0.929 . S
S1801 N1802 1.613 . S
S1801 N1803 1.610 . S
N1802 S1801 1.613 . S
N1802 C1805 1.350 . S
N1803 S1801 1.610 . S
N1803 C1804 1.351 . S
C1804 C1798 1.428 . S
C1804 N1803 1.351 . S
C1804 C1805 1.434 . S
C1805 C1796 1.429 . S
C1805 N1802 1.350 . S
C1805 C1804 1.434 . S
C1806 C1807 1.369 . S
C1806 C1808 1.419 . S
C1806 H1810 0.930 . S
C1807 C1806 1.369 . S
C1807 C1816 1.429 . S
C1808 C1806 1.419 . S
C1808 C1809 1.363 . S
C1808 H1811 0.929 . S
C1809 C1808 1.363 . S
C1809 C1815 1.428 . S
H1810 C1806 0.930 . S
H1811 C1808 0.929 . S
S1812 N1813 1.613 . S
S1812 N1814 1.610 . S
N1813 S1812 1.613 . S
N1813 C1816 1.350 . S
N1814 S1812 1.610 . S
N1814 C1815 1.351 . S
C1815 C1809 1.428 . S
C1815 N1814 1.351 . S
C1815 C1816 1.434 . S
C1816 C1807 1.429 . S
C1816 N1813 1.350 . S
C1816 C1815 1.434 . S
C1817 C1818 1.369 . S
C1817 C1819 1.419 . S
C1817 H1821 0.930 . S
C1818 C1817 1.369 . S
C1818 C1827 1.429 . S
C1819 C1817 1.419 . S
C1819 C1820 1.363 . S
C1819 H1822 0.929 . S
C1820 C1819 1.363 . S
C1820 C1826 1.428 . S
H1821 C1817 0.930 . S
H1822 C1819 0.929 . S
S1823 N1824 1.613 . S
S1823 N1825 1.610 . S
N1824 S1823 1.613 . S
N1824 C1827 1.350 . S
N1825 S1823 1.610 . S
N1825 C1826 1.351 . S
C1826 C1820 1.428 . S
C1826 N1825 1.351 . S
C1826 C1827 1.434 . S
C1827 C1818 1.429 . S
C1827 N1824 1.350 . S
C1827 C1826 1.434 . S
C1828 C1829 1.369 . S
C1828 C1830 1.419 . S
C1828 H1832 0.930 . S
C1829 C1828 1.369 . S
C1829 C1838 1.429 . S
C1830 C1828 1.419 . S
C1830 C1831 1.363 . S
C1830 H1833 0.929 . S
C1831 C1830 1.363 . S
C1831 C1837 1.428 . S
H1832 C1828 0.930 . S
H1833 C1830 0.929 . S
S1834 N1835 1.613 . S
S1834 N1836 1.610 . S
N1835 S1834 1.613 . S
N1835 C1838 1.350 . S
N1836 S1834 1.610 . S
N1836 C1837 1.351 . S
C1837 C1831 1.428 . S
C1837 N1836 1.351 . S
C1837 C1838 1.434 . S
C1838 C1829 1.429 . S
C1838 N1835 1.350 . S
C1838 C1837 1.434 . S
C1839 C1840 1.369 . S
C1839 C1841 1.419 . S
C1839 H1843 0.930 . S
C1840 C1839 1.369 . S
C1840 C1849 1.429 . S
C1841 C1839 1.419 . S
C1841 C1842 1.363 . S
C1841 H1844 0.929 . S
C1842 C1841 1.363 . S
C1842 C1848 1.428 . S
H1843 C1839 0.930 . S
H1844 C1841 0.929 . S
S1845 N1846 1.613 . S
S1845 N1847 1.610 . S
N1846 S1845 1.613 . S
N1846 C1849 1.350 . S
N1847 S1845 1.610 . S
N1847 C1848 1.351 . S
C1848 C1842 1.428 . S
C1848 N1847 1.351 . S
C1848 C1849 1.434 . S
C1849 C1840 1.429 . S
C1849 N1846 1.350 . S
C1849 C1848 1.434 . S
C1850 C1851 1.369 . S
C1850 C1852 1.419 . S
C1850 H1854 0.930 . S
C1851 C1850 1.369 . S
C1851 C1860 1.429 . S
C1852 C1850 1.419 . S
C1852 C1853 1.363 . S
C1852 H1855 0.929 . S
C1853 C1852 1.363 . S
C1853 C1859 1.428 . S
H1854 C1850 0.930 . S
H1855 C1852 0.929 . S
S1856 N1857 1.613 . S
S1856 N1858 1.610 . S
N1857 S1856 1.613 . S
N1857 C1860 1.350 . S
N1858 S1856 1.610 . S
N1858 C1859 1.351 . S
C1859 C1853 1.428 . S
C1859 N1858 1.351 . S
C1859 C1860 1.434 . S
C1860 C1851 1.429 . S
C1860 N1857 1.350 . S
C1860 C1859 1.434 . S
C1861 C1862 1.369 . S
C1861 C1863 1.419 . S
C1861 H1865 0.930 . S
C1862 C1861 1.369 . S
C1862 C1871 1.429 . S
C1863 C1861 1.419 . S
C1863 C1864 1.363 . S
C1863 H1866 0.929 . S
C1864 C1863 1.363 . S
C1864 C1870 1.428 . S
H1865 C1861 0.930 . S
H1866 C1863 0.929 . S
S1867 N1868 1.613 . S
S1867 N1869 1.610 . S
N1868 S1867 1.613 . S
N1868 C1871 1.350 . S
N1869 S1867 1.610 . S
N1869 C1870 1.351 . S
C1870 C1864 1.428 . S
C1870 N1869 1.351 . S
C1870 C1871 1.434 . S
C1871 C1862 1.429 . S
C1871 N1868 1.350 . S
C1871 C1870 1.434 . S
C1345 C67 1.505 . S
C1347 C823 1.508 . S
C1356 C151 1.504 . S
C1358 C739 1.507 . S
C1367 C991 1.507 . S
C1369 C235 1.509 . S
C1378 C319 1.508 . S
C1380 C907 1.505 . S
C1389 C1148 1.504 . S
C1391 C392 1.505 . S
C1400 C1064 1.505 . S
C1402 C476 1.508 . S
C1411 C1316 1.505 . S
C1413 C560 1.505 . S
C1422 C644 1.508 . S
C1424 C1232 1.505 . S
C1433 C242 1.699 . S
C1435 C74 1.700 . S
C1444 C326 1.700 . S
C1446 C158 1.699 . S
C1455 C567 1.700 . S
C1457 C399 1.699 . S
C1466 C483 1.699 . S
C1468 C651 1.699 . S
C1477 C914 1.700 . S
C1479 C746 1.700 . S
C1488 C998 1.699 . S
C1490 C830 1.699 . S
C1499 C1071 1.700 . S
C1501 C1239 1.699 . S
C1510 C1155 1.700 . S
C1512 C1323 1.699 . S
C1521 C494 1.677 . S
C1523 C63 1.678 . S
C1532 C410 1.684 . S
C1534 C147 1.683 . S
C1543 C231 1.685 . S
C1545 C662 1.684 . S
C1554 C578 1.685 . S
C1556 C315 1.684 . S
C1565 C735 1.678 . S
C1567 C1166 1.678 . S
C1576 C1082 1.685 . S
C1578 C819 1.684 . S
C1587 C903 1.684 . S
C1589 C1334 1.683 . S
C1598 C1250 1.685 . S
C1600 C987 1.684 . S
C1609 C140 1.501 . S
C1611 C56 1.501 . S
C1620 C308 1.499 . S
C1622 C224 1.499 . S
C1631 C487 1.501 . S
C1633 C403 1.501 . S
C1642 C571 1.503 . S
C1644 C655 1.502 . S
C1653 C812 1.500 . S
C1655 C728 1.500 . S
C1664 C980 1.502 . S
C1666 C896 1.502 . S
C1675 C1075 1.500 . S
C1677 C1159 1.500 . S
C1686 C1243 1.502 . S
C1688 C1327 1.502 . S
C1697 C69 1.309 . S
C1699 C58 1.324 . S
C1708 C153 1.308 . S
C1710 C142 1.325 . S
C1719 C237 1.309 . S
C1721 C226 1.324 . S
C1730 C310 1.316 . S
C1732 C321 1.318 . S
C1741 C394 1.311 . S
C1743 C405 1.321 . S
C1752 C489 1.326 . S
C1754 C478 1.310 . S
C1763 C562 1.320 . S
C1765 C573 1.315 . S
C1774 C646 1.324 . S
C1776 C657 1.313 . S
C1785 C730 1.309 1_545 S
C1787 C741 1.323 . S
C1796 C825 1.308 . S
C1798 C814 1.324 1_565 S
C1807 C898 1.308 1_565 S
C1809 C909 1.325 . S
C1818 C982 1.327 1_545 S
C1820 C993 1.310 . S
C1829 C1066 1.309 . S
C1831 C1077 1.324 1_565 S
C1840 C1150 1.327 . S
C1842 C1161 1.310 1_545 S
C1851 C1245 1.327 1_545 S
C1853 C1234 1.310 . S
C1862 C1318 1.321 . S
C1864 C1329 1.316 1_565 S
