# Generated by pormake.
# Topology fno, (5)-cn, num edge types: 1
# Building blocks:
#     Node 0, Type 0, BuildingBlock: XOMCOT_clean_sbu_0, # of connection points: 5
#     Node 1, Type 0, BuildingBlock: XOMCOT_clean_sbu_0, # of connection points: 5
#     Node 2, Type 0, BuildingBlock: XOMCOT_clean_sbu_0, # of connection points: 5
#     Node 3, Type 0, BuildingBlock: XOMCOT_clean_sbu_0, # of connection points: 5
#     Node 4, Type 0, BuildingBlock: XOMCOT_clean_sbu_0, # of connection points: 5
#     Node 5, Type 0, BuildingBlock: XOMCOT_clean_sbu_0, # of connection points: 5
#     Node 6, Type 0, BuildingBlock: XOMCOT_clean_sbu_0, # of connection points: 5
#     Node 7, Type 0, BuildingBlock: XOMCOT_clean_sbu_0, # of connection points: 5
#     Node 8, Type 0, BuildingBlock: XOMCOT_clean_sbu_0, # of connection points: 5
#     Node 9, Type 0, BuildingBlock: XOMCOT_clean_sbu_0, # of connection points: 5
#     Node 10, Type 0, BuildingBlock: XOMCOT_clean_sbu_0, # of connection points: 5
#     Node 11, Type 0, BuildingBlock: XOMCOT_clean_sbu_0, # of connection points: 5
#     Node 12, Type 0, BuildingBlock: XOMCOT_clean_sbu_0, # of connection points: 5
#     Node 13, Type 0, BuildingBlock: XOMCOT_clean_sbu_0, # of connection points: 5
#     Node 14, Type 0, BuildingBlock: XOMCOT_clean_sbu_0, # of connection points: 5
#     Node 15, Type 0, BuildingBlock: XOMCOT_clean_sbu_0, # of connection points: 5
#     Node 16, Type 0, BuildingBlock: XOMCOT_clean_sbu_0, # of connection points: 5
#     Node 17, Type 0, BuildingBlock: XOMCOT_clean_sbu_0, # of connection points: 5
#     Node 18, Type 0, BuildingBlock: XOMCOT_clean_sbu_0, # of connection points: 5
#     Node 19, Type 0, BuildingBlock: XOMCOT_clean_sbu_0, # of connection points: 5
#     Node 20, Type 0, BuildingBlock: XOMCOT_clean_sbu_0, # of connection points: 5
#     Node 21, Type 0, BuildingBlock: XOMCOT_clean_sbu_0, # of connection points: 5
#     Node 22, Type 0, BuildingBlock: XOMCOT_clean_sbu_0, # of connection points: 5
#     Node 23, Type 0, BuildingBlock: XOMCOT_clean_sbu_0, # of connection points: 5
#     Node 24, Type 0, BuildingBlock: XOMCOT_clean_sbu_0, # of connection points: 5
#     Node 25, Type 0, BuildingBlock: XOMCOT_clean_sbu_0, # of connection points: 5
#     Node 26, Type 0, BuildingBlock: XOMCOT_clean_sbu_0, # of connection points: 5
#     Node 27, Type 0, BuildingBlock: XOMCOT_clean_sbu_0, # of connection points: 5
#     Node 28, Type 0, BuildingBlock: XOMCOT_clean_sbu_0, # of connection points: 5
#     Node 29, Type 0, BuildingBlock: XOMCOT_clean_sbu_0, # of connection points: 5
#     Node 30, Type 0, BuildingBlock: XOMCOT_clean_sbu_0, # of connection points: 5
#     Node 31, Type 0, BuildingBlock: XOMCOT_clean_sbu_0, # of connection points: 5
#     Node 32, Type 0, BuildingBlock: XOMCOT_clean_sbu_0, # of connection points: 5
#     Node 33, Type 0, BuildingBlock: XOMCOT_clean_sbu_0, # of connection points: 5
#     Node 34, Type 0, BuildingBlock: XOMCOT_clean_sbu_0, # of connection points: 5
#     Node 35, Type 0, BuildingBlock: XOMCOT_clean_sbu_0, # of connection points: 5
#     Node 36, Type 0, BuildingBlock: XOMCOT_clean_sbu_0, # of connection points: 5
#     Node 37, Type 0, BuildingBlock: XOMCOT_clean_sbu_0, # of connection points: 5
#     Node 38, Type 0, BuildingBlock: XOMCOT_clean_sbu_0, # of connection points: 5
#     Node 39, Type 0, BuildingBlock: XOMCOT_clean_sbu_0, # of connection points: 5
#     Node 40, Type 0, BuildingBlock: XOMCOT_clean_sbu_0, # of connection points: 5
#     Node 41, Type 0, BuildingBlock: XOMCOT_clean_sbu_0, # of connection points: 5
#     Node 42, Type 0, BuildingBlock: XOMCOT_clean_sbu_0, # of connection points: 5
#     Node 43, Type 0, BuildingBlock: XOMCOT_clean_sbu_0, # of connection points: 5
#     Node 44, Type 0, BuildingBlock: XOMCOT_clean_sbu_0, # of connection points: 5
#     Node 45, Type 0, BuildingBlock: XOMCOT_clean_sbu_0, # of connection points: 5
#     Node 46, Type 0, BuildingBlock: XOMCOT_clean_sbu_0, # of connection points: 5
#     Node 47, Type 0, BuildingBlock: XOMCOT_clean_sbu_0, # of connection points: 5
#     Edge 48, Type (0, 0), None
#     Edge 49, Type (0, 0), None
#     Edge 50, Type (0, 0), None
#     Edge 51, Type (0, 0), None
#     Edge 52, Type (0, 0), None
#     Edge 53, Type (0, 0), None
#     Edge 54, Type (0, 0), None
#     Edge 55, Type (0, 0), None
#     Edge 56, Type (0, 0), None
#     Edge 57, Type (0, 0), None
#     Edge 58, Type (0, 0), None
#     Edge 59, Type (0, 0), None
#     Edge 60, Type (0, 0), None
#     Edge 61, Type (0, 0), None
#     Edge 62, Type (0, 0), None
#     Edge 63, Type (0, 0), None
#     Edge 64, Type (0, 0), None
#     Edge 65, Type (0, 0), None
#     Edge 66, Type (0, 0), None
#     Edge 67, Type (0, 0), None
#     Edge 68, Type (0, 0), None
#     Edge 69, Type (0, 0), None
#     Edge 70, Type (0, 0), None
#     Edge 71, Type (0, 0), None
#     Edge 72, Type (0, 0), None
#     Edge 73, Type (0, 0), None
#     Edge 74, Type (0, 0), None
#     Edge 75, Type (0, 0), None
#     Edge 76, Type (0, 0), None
#     Edge 77, Type (0, 0), None
#     Edge 78, Type (0, 0), None
#     Edge 79, Type (0, 0), None
#     Edge 80, Type (0, 0), None
#     Edge 81, Type (0, 0), None
#     Edge 82, Type (0, 0), None
#     Edge 83, Type (0, 0), None
#     Edge 84, Type (0, 0), None
#     Edge 85, Type (0, 0), None
#     Edge 86, Type (0, 0), None
#     Edge 87, Type (0, 0), None
#     Edge 88, Type (0, 0), None
#     Edge 89, Type (0, 0), None
#     Edge 90, Type (0, 0), None
#     Edge 91, Type (0, 0), None
#     Edge 92, Type (0, 0), None
#     Edge 93, Type (0, 0), None
#     Edge 94, Type (0, 0), None
#     Edge 95, Type (0, 0), None
#     Edge 96, Type (0, 0), None
#     Edge 97, Type (0, 0), None
#     Edge 98, Type (0, 0), None
#     Edge 99, Type (0, 0), None
#     Edge 100, Type (0, 0), None
#     Edge 101, Type (0, 0), None
#     Edge 102, Type (0, 0), None
#     Edge 103, Type (0, 0), None
#     Edge 104, Type (0, 0), None
#     Edge 105, Type (0, 0), None
#     Edge 106, Type (0, 0), None
#     Edge 107, Type (0, 0), None
#     Edge 108, Type (0, 0), None
#     Edge 109, Type (0, 0), None
#     Edge 110, Type (0, 0), None
#     Edge 111, Type (0, 0), None
#     Edge 112, Type (0, 0), None
#     Edge 113, Type (0, 0), None
#     Edge 114, Type (0, 0), None
#     Edge 115, Type (0, 0), None
#     Edge 116, Type (0, 0), None
#     Edge 117, Type (0, 0), None
#     Edge 118, Type (0, 0), None
#     Edge 119, Type (0, 0), None
#     Edge 120, Type (0, 0), None
#     Edge 121, Type (0, 0), None
#     Edge 122, Type (0, 0), None
#     Edge 123, Type (0, 0), None
#     Edge 124, Type (0, 0), None
#     Edge 125, Type (0, 0), None
#     Edge 126, Type (0, 0), None
#     Edge 127, Type (0, 0), None
#     Edge 128, Type (0, 0), None
#     Edge 129, Type (0, 0), None
#     Edge 130, Type (0, 0), None
#     Edge 131, Type (0, 0), None
#     Edge 132, Type (0, 0), None
#     Edge 133, Type (0, 0), None
#     Edge 134, Type (0, 0), None
#     Edge 135, Type (0, 0), None
#     Edge 136, Type (0, 0), None
#     Edge 137, Type (0, 0), None
#     Edge 138, Type (0, 0), None
#     Edge 139, Type (0, 0), None
#     Edge 140, Type (0, 0), None
#     Edge 141, Type (0, 0), None
#     Edge 142, Type (0, 0), None
#     Edge 143, Type (0, 0), None
#     Edge 144, Type (0, 0), None
#     Edge 145, Type (0, 0), None
#     Edge 146, Type (0, 0), None
#     Edge 147, Type (0, 0), None
#     Edge 148, Type (0, 0), None
#     Edge 149, Type (0, 0), None
#     Edge 150, Type (0, 0), None
#     Edge 151, Type (0, 0), None
#     Edge 152, Type (0, 0), None
#     Edge 153, Type (0, 0), None
#     Edge 154, Type (0, 0), None
#     Edge 155, Type (0, 0), None
#     Edge 156, Type (0, 0), None
#     Edge 157, Type (0, 0), None
#     Edge 158, Type (0, 0), None
#     Edge 159, Type (0, 0), None
#     Edge 160, Type (0, 0), None
#     Edge 161, Type (0, 0), None
#     Edge 162, Type (0, 0), None
#     Edge 163, Type (0, 0), None
#     Edge 164, Type (0, 0), None
#     Edge 165, Type (0, 0), None
#     Edge 166, Type (0, 0), None
#     Edge 167, Type (0, 0), None
# Relax obj value: 0.184
# Max RMSD: 0.190
# Mean RMSD: 0.181
data_MOF--net-fno--node1-XOMCOT_clean_sbu_0--edge1-none
_symmetry_space_group_name_H-M    P1
_symmetry_Int_Tables_number       1
_symmetry_cell_setting            triclinic
loop_
_symmetry_equiv_pos_as_xyz
'x, y, z'
_cell_length_a     31.67234
_cell_length_b     30.705642
_cell_length_c     31.505665
_cell_angle_alpha  90.051341
_cell_angle_beta   90.333559
_cell_angle_gamma 90.732872
loop_
_atom_site_label
_atom_site_type_symbol
_atom_site_fract_x
_atom_site_fract_y
_atom_site_fract_z
_atom_type_partial_charge
Co0 Co 0.11533 0.38746 0.12978 0.0
C1 C 0.12768 0.38494 0.22381 0.0
C2 C 0.0664 0.40534 0.20197 0.0
C3 C 0.06475 0.39954 0.24482 0.0
N4 N 0.10545 0.39616 0.18873 0.0
N5 N 0.10313 0.38698 0.25868 0.0
H6 H 0.16012 0.3743 0.22374 0.0
H7 H 0.04029 0.41339 0.18125 0.0
C8 C 0.10525 0.48419 0.11737 0.0
O9 O 0.06465 0.47543 0.1142 0.0
N10 N 0.12285 0.37831 0.07059 0.0
C11 C 0.13472 0.34064 0.05265 0.0
C12 C 0.12607 0.34271 0.01003 0.0
C13 C 0.10781 0.40318 0.03897 0.0
N14 N 0.10926 0.382 0.0017 0.0
C15 C 0.10083 0.29702 0.15303 0.0
C16 C 0.02228 0.29462 0.11379 0.0
C17 C 0.03682 0.25747 0.13465 0.0
C18 C 0.07666 0.25845 0.15424 0.0
C19 C 0.04711 0.33214 0.1135 0.0
N20 N 0.0855 0.33291 0.13292 0.0
H21 H 0.13126 0.29833 0.1687 0.0
H22 H 0.03573 0.36116 0.09797 0.0
H23 H 0.14658 0.31279 0.06976 0.0
H24 H 0.09394 0.43483 0.04337 0.0
O25 O 0.17383 0.36328 0.14093 0.0
O26 O 0.16281 0.43041 0.12875 0.0
O27 O 0.13184 0.45275 0.12378 0.0
C28 C 0.19033 0.40058 0.13495 0.0
H29 H 0.03726 0.40451 0.26443 0.0
H30 H 0.13183 0.31733 0.98698 0.0
H31 H 0.99138 0.29492 0.09882 0.0
H32 H 0.08825 0.23035 0.17126 0.0
Co33 Co 0.8751 0.88596 0.36836 0.0
C34 C 0.87632 0.9091 0.45986 0.0
C35 C 0.84844 0.84614 0.44686 0.0
C36 C 0.85056 0.85184 0.49002 0.0
N37 N 0.86465 0.88182 0.42807 0.0
N38 N 0.86827 0.89123 0.49814 0.0
H39 H 0.89171 0.94039 0.4553 0.0
H40 H 0.83684 0.81755 0.43023 0.0
C41 C 0.7814 0.87477 0.36192 0.0
O42 O 0.78808 0.83324 0.35499 0.0
N43 N 0.88751 0.8904 0.30876 0.0
C44 C 0.92637 0.89893 0.29318 0.0
C45 C 0.92404 0.90105 0.24975 0.0
C46 C 0.8617 0.88834 0.27472 0.0
N47 N 0.88343 0.89467 0.23835 0.0
C48 C 0.96265 0.86137 0.38884 0.0
C49 C 0.94314 0.77502 0.36899 0.0
C50 C 0.98444 0.78581 0.38104 0.0
C51 C 0.99427 0.82964 0.39129 0.0
C52 C 0.91321 0.80744 0.36624 0.0
N53 N 0.92319 0.84959 0.37548 0.0
H54 H 0.96978 0.89499 0.39665 0.0
H55 H 0.8814 0.79918 0.35614 0.0
H56 H 0.95455 0.90392 0.31213 0.0
H57 H 0.82802 0.88218 0.27647 0.0
O58 O 0.89948 0.94854 0.3749 0.0
O59 O 0.835 0.9338 0.36141 0.0
O60 O 0.81268 0.90254 0.36144 0.0
C61 C 0.86309 0.96374 0.3659 0.0
H62 H 0.83909 0.82905 0.51357 0.0
H63 H 0.95001 0.90733 0.22827 0.0
H64 H 0.93429 0.74201 0.3602 0.0
H65 H 0.02596 0.83916 0.40085 0.0
Co66 Co 0.38814 0.63661 0.62542 0.0
C67 C 0.39525 0.63039 0.53039 0.0
C68 C 0.39654 0.69573 0.5554 0.0
C69 C 0.40155 0.69781 0.51233 0.0
N70 N 0.39264 0.65375 0.56685 0.0
N71 N 0.40052 0.65692 0.4965 0.0
H72 H 0.39255 0.59529 0.52847 0.0
H73 H 0.39594 0.72297 0.57717 0.0
C74 C 0.29457 0.64955 0.62353 0.0
O75 O 0.30283 0.68749 0.64123 0.0
N76 N 0.38467 0.62047 0.68432 0.0
C77 C 0.41635 0.59893 0.70319 0.0
C78 C 0.4137 0.60464 0.74593 0.0
C79 C 0.362 0.63822 0.71631 0.0
N80 N 0.37977 0.62924 0.75437 0.0
C81 C 0.47757 0.65694 0.61667 0.0
C82 C 0.472 0.72876 0.66971 0.0
C83 C 0.50893 0.72263 0.64651 0.0
C84 C 0.51238 0.68547 0.62078 0.0
C85 C 0.43818 0.70019 0.66421 0.0
N86 N 0.44093 0.66566 0.63737 0.0
H87 H 0.47893 0.62976 0.59489 0.0
H88 H 0.40851 0.70719 0.67938 0.0
H89 H 0.44218 0.58371 0.68679 0.0
H90 H 0.33624 0.66052 0.71182 0.0
O91 O 0.4114 0.5761 0.61239 0.0
O92 O 0.34592 0.59066 0.61128 0.0
O93 O 0.32499 0.6227 0.61587 0.0
C94 C 0.37403 0.56107 0.60823 0.0
H95 H 0.40453 0.72742 0.49385 0.0
H96 H 0.43592 0.59241 0.7692 0.0
H97 H 0.46814 0.75741 0.68938 0.0
H98 H 0.5403 0.68038 0.60181 0.0
Co99 Co 0.62039 0.14832 0.86524 0.0
C100 C 0.61362 0.12499 0.95469 0.0
C101 C 0.62908 0.19286 0.9453 0.0
C102 C 0.62406 0.18549 0.98788 0.0
N103 N 0.62241 0.15499 0.92488 0.0
N104 N 0.61427 0.14291 0.99338 0.0
H105 H 0.60641 0.09106 0.94864 0.0
H106 H 0.63651 0.22357 0.9301 0.0
C107 C 0.71316 0.15785 0.86868 0.0
O108 O 0.70676 0.1982 0.85664 0.0
N109 N 0.61701 0.14115 0.80554 0.0
C110 C 0.58393 0.1215 0.78629 0.0
C111 C 0.58982 0.12355 0.74363 0.0
C112 C 0.64293 0.15516 0.77459 0.0
N113 N 0.62635 0.14522 0.73629 0.0
C114 C 0.53422 0.17475 0.88355 0.0
C115 C 0.54835 0.2577 0.85085 0.0
C116 C 0.51024 0.24911 0.87169 0.0
C117 C 0.50308 0.2067 0.8877 0.0
C118 C 0.57821 0.22491 0.84704 0.0
N119 N 0.57108 0.18444 0.86342 0.0
H120 H 0.52953 0.14297 0.89766 0.0
H121 H 0.60822 0.23223 0.83228 0.0
H122 H 0.55695 0.1073 0.80225 0.0
H123 H 0.67178 0.17369 0.77985 0.0
O124 O 0.59328 0.08725 0.87138 0.0
O125 O 0.65955 0.09813 0.86693 0.0
O126 O 0.68218 0.12984 0.8684 0.0
C127 C 0.62953 0.06978 0.86894 0.0
H128 H 0.6285 0.20934 0.01283 0.0
H129 H 0.56898 0.10968 0.71975 0.0
H130 H 0.55508 0.2895 0.83746 0.0
H131 H 0.47414 0.19864 0.90424 0.0
Co132 Co 0.12464 0.64957 0.36734 0.0
C133 C 0.11878 0.63085 0.45843 0.0
C134 C 0.1426 0.69533 0.44486 0.0
C135 C 0.13657 0.69186 0.48776 0.0
N136 N 0.13135 0.65725 0.42676 0.0
N137 N 0.12151 0.65143 0.496 0.0
H138 H 0.10658 0.59806 0.45419 0.0
H139 H 0.15293 0.72401 0.42771 0.0
C140 C 0.21764 0.65662 0.36784 0.0
O141 O 0.21208 0.69765 0.35766 0.0
N142 N 0.11635 0.64233 0.30785 0.0
C143 C 0.08036 0.62571 0.2913 0.0
C144 C 0.08189 0.62951 0.24826 0.0
C145 C 0.13968 0.65622 0.27481 0.0
N146 N 0.11887 0.64888 0.23794 0.0
C147 C 0.04 0.67698 0.38963 0.0
C148 C 0.05512 0.76032 0.35821 0.0
C149 C 0.01715 0.75168 0.37914 0.0
C150 C 0.00946 0.70925 0.39474 0.0
C151 C 0.08429 0.72723 0.35341 0.0
N152 N 0.07653 0.6866 0.36896 0.0
H153 H 0.03498 0.64489 0.40295 0.0
H154 H 0.11413 0.73419 0.33815 0.0
H155 H 0.05415 0.61295 0.30951 0.0
H156 H 0.16996 0.67273 0.27778 0.0
O157 O 0.09676 0.58892 0.37539 0.0
O158 O 0.16257 0.59881 0.36601 0.0
O159 O 0.18602 0.62942 0.36657 0.0
C160 C 0.13236 0.57091 0.36961 0.0
H161 H 0.14323 0.71694 0.51107 0.0
H162 H 0.05758 0.61876 0.22621 0.0
H163 H 0.062 0.79221 0.34508 0.0
H164 H 0.9804 0.70133 0.41114 0.0
Co165 Co 0.6193 0.88801 0.63427 0.0
C166 C 0.62791 0.88615 0.72842 0.0
C167 C 0.57117 0.91495 0.70359 0.0
C168 C 0.56669 0.91005 0.74626 0.0
N169 N 0.60911 0.89997 0.69234 0.0
N170 N 0.60223 0.89221 0.76193 0.0
H171 H 0.65822 0.87031 0.72986 0.0
H172 H 0.54728 0.92597 0.68158 0.0
C173 C 0.60954 0.98482 0.61819 0.0
O174 O 0.5688 0.97728 0.61403 0.0
N175 N 0.62652 0.87634 0.57573 0.0
C176 C 0.63731 0.83801 0.55844 0.0
C177 C 0.62999 0.84027 0.51557 0.0
C178 C 0.61339 0.90163 0.54372 0.0
N179 N 0.61509 0.88028 0.50672 0.0
C180 C 0.6054 0.79658 0.65613 0.0
C181 C 0.52304 0.79865 0.62592 0.0
C182 C 0.53854 0.75979 0.64269 0.0
C183 C 0.58034 0.75851 0.65766 0.0
C184 C 0.54887 0.83535 0.62485 0.0
N185 N 0.5891 0.83396 0.63979 0.0
H186 H 0.63749 0.79613 0.66797 0.0
H187 H 0.53695 0.86548 0.61197 0.0
H188 H 0.64809 0.80996 0.57595 0.0
H189 H 0.60102 0.93401 0.54746 0.0
O190 O 0.67894 0.86544 0.64578 0.0
O191 O 0.66597 0.93138 0.63079 0.0
O192 O 0.63524 0.95294 0.62569 0.0
C193 C 0.69446 0.90282 0.63736 0.0
H194 H 0.5392 0.91896 0.76448 0.0
H195 H 0.63563 0.8147 0.49269 0.0
H196 H 0.49092 0.8007 0.6141 0.0
H197 H 0.59298 0.72895 0.67114 0.0
Co198 Co 0.36656 0.38418 0.87236 0.0
C199 C 0.36993 0.40323 0.96466 0.0
C200 C 0.34488 0.33946 0.94992 0.0
C201 C 0.34817 0.34337 0.99322 0.0
N202 N 0.35861 0.37677 0.93214 0.0
N203 N 0.36394 0.38336 0.00239 0.0
H204 H 0.38327 0.4356 0.96097 0.0
H205 H 0.33415 0.31104 0.93245 0.0
C206 C 0.27232 0.37526 0.86712 0.0
O207 O 0.2783 0.33352 0.86063 0.0
N208 N 0.37612 0.39156 0.81285 0.0
C209 C 0.41197 0.40923 0.79738 0.0
C210 C 0.40998 0.4086 0.75409 0.0
C211 C 0.35238 0.38038 0.77879 0.0
N212 N 0.37282 0.3903 0.74241 0.0
C213 C 0.45574 0.35915 0.8847 0.0
C214 C 0.43532 0.27281 0.86584 0.0
C215 C 0.47748 0.28358 0.87467 0.0
C216 C 0.4877 0.32753 0.88423 0.0
C217 C 0.40495 0.30512 0.86606 0.0
N218 N 0.4152 0.34728 0.87521 0.0
H219 H 0.46342 0.39273 0.89211 0.0
H220 H 0.3725 0.29665 0.8585 0.0
H221 H 0.43794 0.4217 0.81641 0.0
H222 H 0.32164 0.36468 0.78058 0.0
O223 O 0.39176 0.44651 0.8809 0.0
O224 O 0.32681 0.43305 0.86981 0.0
O225 O 0.30427 0.40215 0.86832 0.0
C226 C 0.35528 0.46261 0.87414 0.0
H227 H 0.33904 0.31884 0.01615 0.0
H228 H 0.43371 0.42151 0.73285 0.0
H229 H 0.42593 0.23982 0.85761 0.0
H230 H 0.51994 0.33725 0.89139 0.0
Co231 Co 0.88534 0.13624 0.12184 0.0
C232 C 0.89218 0.13254 0.02696 0.0
C233 C 0.89206 0.19725 0.05335 0.0
C234 C 0.8972 0.20052 0.01034 0.0
N235 N 0.88894 0.15491 0.06381 0.0
N236 N 0.89705 0.15999 0.99375 0.0
H237 H 0.89035 0.09743 0.02431 0.0
H238 H 0.89095 0.22391 0.07576 0.0
C239 C 0.79054 0.1488 0.1214 0.0
O240 O 0.79695 0.18557 0.14191 0.0
N241 N 0.88297 0.11911 0.18037 0.0
C242 C 0.91571 0.09846 0.1985 0.0
C243 C 0.91566 0.10664 0.24103 0.0
C244 C 0.86217 0.1384 0.21266 0.0
N245 N 0.88218 0.13163 0.24996 0.0
C246 C 0.97459 0.15509 0.11112 0.0
C247 C 0.97129 0.22718 0.16409 0.0
C248 C 0.00728 0.2206 0.13964 0.0
C249 C 0.00962 0.18342 0.11385 0.0
C250 C 0.93714 0.19883 0.15989 0.0
N251 N 0.93878 0.16416 0.13308 0.0
H252 H 0.97494 0.12792 0.08927 0.0
H253 H 0.90799 0.20626 0.17584 0.0
H254 H 0.9408 0.08276 0.18138 0.0
H255 H 0.83626 0.16058 0.20859 0.0
O256 O 0.90705 0.0751 0.10765 0.0
O257 O 0.84211 0.09124 0.10737 0.0
O258 O 0.82188 0.12338 0.11285 0.0
C259 C 0.86931 0.06097 0.10361 0.0
H260 H 0.89962 0.23056 0.99244 0.0
H261 H 0.93913 0.09575 0.26369 0.0
H262 H 0.96831 0.25604 0.18363 0.0
H263 H 0.0368 0.17813 0.09388 0.0
Co264 Co 0.11475 0.14091 0.37248 0.0
C265 C 0.2068 0.15197 0.36549 0.0
C266 C 0.18836 0.09038 0.39281 0.0
C267 C 0.23163 0.09249 0.39095 0.0
N268 N 0.1731 0.12753 0.3768 0.0
N269 N 0.24297 0.13101 0.37349 0.0
H270 H 0.20511 0.18407 0.35152 0.0
H271 H 0.16927 0.06409 0.40557 0.0
C272 C 0.1095 0.13244 0.46797 0.0
O273 O 0.09672 0.09219 0.461 0.0
N274 N 0.05669 0.15487 0.36746 0.0
C275 C 0.04033 0.17305 0.33228 0.0
C276 C -0.00244 0.16887 0.33381 0.0
C277 C 0.02386 0.14075 0.3908 0.0
N278 N 0.98736 0.14845 0.37032 0.0
C279 C 0.13622 0.1131 0.28593 0.0
C280 C 0.07248 0.05064 0.28398 0.0
C281 C 0.10029 0.05258 0.24938 0.0
C282 C 0.13228 0.08513 0.25049 0.0
C283 C 0.0792 0.0769 0.31931 0.0
N284 N 0.11014 0.10801 0.31996 0.0
H285 H 0.16088 0.13777 0.28661 0.0
H286 H 0.05921 0.07233 0.34666 0.0
H287 H 0.05845 0.18534 0.30577 0.0
H288 H 0.02671 0.12208 0.41975 0.0
O289 O 0.12761 0.20071 0.34682 0.0
O290 O 0.12163 0.1898 0.41328 0.0
O291 O 0.11629 0.15866 0.43609 0.0
C292 C 0.12641 0.21798 0.38349 0.0
H293 H 0.25298 0.06859 0.40359 0.0
H294 H 0.97568 0.17904 0.30931 0.0
H295 H 0.04583 0.02834 0.2848 0.0
H296 H 0.15488 0.0883 0.22505 0.0
Co297 Co 0.12892 0.89274 0.63749 0.0
C298 C 0.1293 0.79401 0.64356 0.0
C299 C 0.10552 0.82084 0.585 0.0
C300 C 0.10586 0.77657 0.58148 0.0
N301 N 0.1201 0.83211 0.62352 0.0
N302 N 0.12085 0.75933 0.61795 0.0
H303 H 0.14296 0.79178 0.67503 0.0
H304 H 0.09635 0.84364 0.5606 0.0
C305 C 0.03553 0.90292 0.6273 0.0
O306 O 0.04385 0.90733 0.58672 0.0
N307 N 0.13821 0.95373 0.6503 0.0
C308 C 0.17588 0.96894 0.66401 0.0
C309 C 0.17625 1.01334 0.66152 0.0
C310 C 0.1153 0.98957 0.64054 0.0
N311 N 0.13834 0.02656 0.64704 0.0
C312 C 0.21567 0.86909 0.61577 0.0
C313 C 0.21259 0.91407 0.53958 0.0
C314 C 0.24828 0.88903 0.54851 0.0
C315 C 0.25015 0.86708 0.58768 0.0
C316 C 0.17933 0.91532 0.56829 0.0
N317 N 0.18085 0.89269 0.60534 0.0
H318 H 0.21629 0.85071 0.64502 0.0
H319 H 0.15128 0.93343 0.56039 0.0
H320 H 0.20227 0.94882 0.67292 0.0
H321 H 0.08402 0.98852 0.62654 0.0
O322 O 0.15343 0.87795 0.69579 0.0
O323 O 0.0878 0.88756 0.68501 0.0
O324 O 0.0662 0.89707 0.65436 0.0
C325 C 0.1169 0.87913 0.71227 0.0
H326 H 0.09562 0.75831 0.55378 0.0
H327 H 0.20279 0.03449 0.6695 0.0
H328 H 0.20984 0.93158 0.50987 0.0
H329 H 0.27696 0.84703 0.59553 0.0
Co330 Co 0.38788 0.8951 0.86614 0.0
C331 C 0.29649 0.87328 0.85784 0.0
C332 C 0.311 0.93842 0.8794 0.0
C333 C 0.26828 0.93347 0.87783 0.0
N334 N 0.32853 0.90108 0.86674 0.0
N335 N 0.25921 0.89273 0.86425 0.0
H336 H 0.30014 0.83986 0.84772 0.0
H337 H 0.32835 0.96684 0.89038 0.0
C338 C 0.38163 0.90187 0.96014 0.0
O339 O 0.39021 0.94346 0.95471 0.0
N340 N 0.44904 0.89309 0.86747 0.0
C341 C 0.47435 0.91651 0.84154 0.0
C342 C 0.51179 0.9249 0.86172 0.0
C343 C 0.47318 0.88586 0.90233 0.0
N344 N 0.51236 0.9034 0.89876 0.0
C345 C 0.38316 0.91504 0.77524 0.0
C346 C 0.3897 1.00393 0.79038 0.0
C347 C 0.38346 0.98946 0.74863 0.0
C348 C 0.3809 0.94431 0.74094 0.0
C349 C 0.39219 0.97393 0.82325 0.0
N350 N 0.38877 0.93042 0.81555 0.0
H351 H 0.3799 0.88044 0.76956 0.0
H352 H 0.39662 0.98531 0.85549 0.0
H353 H 0.46544 0.93116 0.8118 0.0
H354 H 0.4617 0.87075 0.93109 0.0
O355 O 0.38287 0.83424 0.83839 0.0
O356 O 0.38523 0.84384 0.90502 0.0
O357 O 0.38334 0.87521 0.9282 0.0
C358 C 0.38269 0.81599 0.87467 0.0
H359 H 0.2458 0.957 0.88885 0.0
H360 H 0.5347 0.94883 0.85144 0.0
H361 H 0.3925 0.03833 0.79768 0.0
H362 H 0.37596 0.93195 0.70907 0.0
Co363 Co 0.36006 0.13733 0.12797 0.0
C364 C 0.35902 0.23515 0.14188 0.0
C365 C 0.38589 0.21382 0.08289 0.0
C366 C 0.38269 0.25808 0.08194 0.0
N367 N 0.37122 0.19899 0.12011 0.0
N368 N 0.36577 0.27192 0.11872 0.0
H369 H 0.34364 0.23441 0.17246 0.0
H370 H 0.39581 0.19351 0.05688 0.0
C371 C 0.45333 0.12541 0.11776 0.0
O372 O 0.44633 0.13331 0.0774 0.0
N373 N 0.34798 0.076 0.13494 0.0
C374 C 0.31035 0.06107 0.14848 0.0
C375 C 0.31045 0.01665 0.14782 0.0
C376 C 0.37124 0.04007 0.12683 0.0
N377 N 0.34855 1.0032 0.13449 0.0
C378 C 0.27009 0.15329 0.10626 0.0
C379 C 0.28494 0.13484 0.02135 0.0
C380 C 0.24384 0.14512 0.03345 0.0
C381 C 0.2363 0.15416 0.07667 0.0
C382 C 0.31706 0.13335 0.05165 0.0
N383 N 0.30966 0.14253 0.09319 0.0
H384 H 0.26449 0.16065 0.13931 0.0
H385 H 0.3486 0.1247 0.04201 0.0
H386 H 0.28433 0.0812 0.15799 0.0
H387 H 0.40322 0.04086 0.1149 0.0
O388 O 0.33681 0.1476 0.18826 0.0
O389 O 0.40122 0.13466 0.17543 0.0
O390 O 0.42247 0.12734 0.14477 0.0
C391 C 0.37347 0.14146 0.20404 0.0
H392 H 0.39199 0.27866 0.05562 0.0
H393 H 0.28425 0.99568 0.1568 0.0
H394 H 0.29214 0.12745 0.98856 0.0
H395 H 0.20492 0.1624 0.08722 0.0
Co396 Co 0.10831 0.89876 0.11935 0.0
C397 C 0.01413 0.89858 0.11895 0.0
C398 C 0.03938 0.90716 0.05629 0.0
C399 C 0.99644 0.90527 0.05322 0.0
N400 N 0.05095 0.90216 0.09736 0.0
N401 N 0.98062 0.90005 0.09243 0.0
H402 H 0.01179 0.89328 0.15278 0.0
H403 H 0.06005 0.91164 0.02959 0.0
C404 C 0.07498 0.81738 0.16129 0.0
O405 O 0.04465 0.80324 0.18624 0.0
N406 N 0.16623 0.89632 0.14142 0.0
C407 C 0.18372 0.92077 0.17288 0.0
C408 C 0.22685 0.91594 0.17267 0.0
C409 C 0.19944 0.87581 0.12366 0.0
N410 N 0.23632 0.88717 0.14212 0.0
C411 C 0.1137 0.98976 0.14462 0.0
C412 C 0.079 0.97754 0.22394 0.0
C413 C 0.09736 0.01841 0.215 0.0
C414 C 0.11387 0.02454 0.17393 0.0
C415 C 0.07847 0.94451 0.19381 0.0
N416 N 0.0976 0.94971 0.15536 0.0
H417 H 0.12861 0.9944 0.11418 0.0
H418 H 0.06408 0.91422 0.20324 0.0
H419 H 0.16702 0.94168 0.19435 0.0
H420 H 0.19731 0.85417 0.09664 0.0
O421 O 0.12944 0.92682 0.06736 0.0
O422 O 0.12153 0.85586 0.07734 0.0
O423 O 0.08709 0.8573 0.16479 0.0
C424 C 0.13318 0.88734 0.05257 0.0
H425 H 0.97811 0.90752 0.02417 0.0
H426 H 0.24937 0.93165 0.19387 0.0
H427 H 0.06653 0.9695 0.25483 0.0
H428 H 0.1277 0.05545 0.16462 0.0
Co429 Co 0.36784 0.88379 0.3938 0.0
C430 C 0.38133 0.98301 0.39554 0.0
C431 C 0.31874 0.95839 0.38177 0.0
C432 C 0.31845 1.00248 0.37839 0.0
N433 N 0.35765 0.94566 0.39257 0.0
N434 N 0.35735 0.01856 0.3873 0.0
H435 H 0.41482 0.98413 0.40255 0.0
H436 H 0.29255 0.93652 0.37498 0.0
C437 C 0.35714 0.88409 0.29856 0.0
O438 O 0.31619 0.88347 0.30492 0.0
N439 N 0.37497 0.82041 0.39273 0.0
C440 C 0.35914 0.79138 0.42073 0.0
C441 C 0.35807 0.75067 0.40249 0.0
C442 C 0.38477 0.79583 0.35843 0.0
N443 N 0.37522 0.75296 0.3635 0.0
C444 C 0.35121 0.89157 0.4854 0.0
C445 C 0.2665 0.87025 0.47404 0.0
C446 C 0.28037 0.88296 0.51456 0.0
C447 C 0.32358 0.89282 0.52042 0.0
C448 C 0.29481 0.86918 0.44046 0.0
N449 N 0.33626 0.88004 0.44616 0.0
H450 H 0.38399 0.90101 0.48946 0.0
H451 H 0.28352 0.86058 0.40904 0.0
H452 H 0.34552 0.79909 0.45109 0.0
H453 H 0.39664 0.80906 0.32901 0.0
O454 O 0.42814 0.89132 0.41819 0.0
O455 O 0.41393 0.89174 0.35227 0.0
O456 O 0.38328 0.88649 0.33046 0.0
C457 C 0.44285 0.89458 0.38075 0.0
H458 H 0.29173 0.02115 0.36778 0.0
H459 H 0.34101 0.72346 0.41564 0.0
H460 H 0.23359 0.86218 0.46808 0.0
H461 H 0.33542 0.90318 0.55117 0.0
Co462 Co 0.38054 0.14089 0.61842 0.0
C463 C 0.47525 0.14761 0.60441 0.0
C464 C 0.4551 0.14839 0.66954 0.0
C465 C 0.49784 0.15218 0.66899 0.0
N466 N 0.44048 0.14576 0.62941 0.0
N467 N 0.51081 0.15127 0.62839 0.0
H468 H 0.47467 0.14602 0.57009 0.0
H469 H 0.43583 0.14746 0.69774 0.0
C470 C 0.37388 0.22394 0.6737 0.0
O471 O 0.37744 0.23763 0.71312 0.0
N472 N 0.32012 0.13546 0.61002 0.0
C473 C 0.30043 0.09905 0.59582 0.0
C474 C 0.25796 0.10213 0.60387 0.0
C475 C 0.28926 0.16029 0.62652 0.0
N476 N 0.25112 0.14073 0.62291 0.0
C477 C 0.40179 0.05534 0.64832 0.0
C478 C 0.3526 0.05817 0.7205 0.0
C479 C 0.37882 0.02227 0.71429 0.0
C480 C 0.40283 0.02045 0.67706 0.0
C481 C 0.3524 0.09207 0.69112 0.0
N482 N 0.37769 0.09097 0.65624 0.0
H483 H 0.42144 0.05456 0.62038 0.0
H484 H 0.33238 0.11962 0.69689 0.0
H485 H 0.31622 0.07099 0.58296 0.0
H486 H 0.29458 0.19028 0.64379 0.0
O487 O 0.38895 0.11131 0.56331 0.0
O488 O 0.38507 0.18197 0.57387 0.0
O489 O 0.3716 0.18247 0.66773 0.0
C490 C 0.38632 0.15027 0.54721 0.0
H491 H 0.51786 0.1561 0.69665 0.0
H492 H 0.23405 0.07764 0.59668 0.0
H493 H 0.333 0.06048 0.74846 0.0
H494 H 0.42355 0.99335 0.67115 0.0
Co495 Co 0.11851 0.13466 0.87984 0.0
C496 C 0.11519 0.03544 0.88325 0.0
C497 C 0.17373 0.06258 0.86039 0.0
C498 C 0.17678 0.01843 0.86077 0.0
N499 N 0.13512 0.07393 0.87377 0.0
N500 N 0.14056 1.00091 0.87563 0.0
H501 H 0.08361 0.03278 0.89598 0.0
H502 H 0.19899 0.08465 0.85175 0.0
C503 C 0.17425 0.15565 0.80061 0.0
O504 O 0.21408 0.16028 0.78979 0.0
N505 N 0.10286 0.19517 0.88723 0.0
C506 C 0.08513 0.20865 0.92355 0.0
C507 C 0.08373 0.25296 0.92364 0.0
C508 C 0.11204 0.23222 0.86515 0.0
N509 N 0.10046 0.26808 0.88715 0.0
C510 C 0.14881 0.11459 0.96442 0.0
C511 C 0.21553 0.17363 0.96459 0.0
C512 C 0.21025 0.14648 1e-05 0.0
C513 C 0.17583 0.11721 4e-05 0.0
C514 C 0.18761 0.17044 0.93007 0.0
N515 N 0.15542 0.14038 0.92968 0.0
H516 H 0.123 0.0912 0.96432 0.0
H517 H 0.19226 0.19206 0.90344 0.0
H518 H 0.07584 0.18764 0.94948 0.0
H519 H 0.12909 0.23323 0.83552 0.0
O520 O 0.06464 0.11796 0.90692 0.0
O521 O 0.07557 0.1258 0.83834 0.0
O522 O 0.1663 0.15339 0.84067 0.0
C523 C 0.04896 0.11973 0.86863 0.0
H524 H 0.204 1.00052 0.85041 0.0
H525 H 0.0718 0.27279 0.94928 0.0
H526 H 0.24166 0.1967 0.96327 0.0
H527 H 0.1709 0.0953 0.02653 0.0
Co528 Co 0.85848 0.38835 0.87824 0.0
C529 C 0.87466 0.48716 0.88591 0.0
C530 C 0.81507 0.46578 0.85935 0.0
C531 C 0.81656 0.51012 0.85877 0.0
N532 N 0.85096 0.45088 0.87631 0.0
N533 N 0.85353 0.52422 0.87579 0.0
H534 H 0.90595 0.4865 0.89986 0.0
H535 H 0.78972 0.4453 0.84722 0.0
C536 C 0.84983 0.38584 0.78291 0.0
O537 O 0.81012 0.37477 0.78902 0.0
N538 N 0.86405 0.32477 0.87855 0.0
C539 C 0.85254 0.29678 0.90953 0.0
C540 C 0.85356 0.25485 0.89416 0.0
C541 C 0.87321 0.29868 0.84523 0.0
N542 N 0.86754 0.25574 0.85387 0.0
C543 C 0.83869 0.39347 0.96954 0.0
C544 C 0.75593 0.36709 0.95397 0.0
C545 C 0.76819 0.37577 0.99602 0.0
C546 C 0.81045 0.38872 0.00383 0.0
C547 C 0.78451 0.37277 0.92119 0.0
N548 N 0.82507 0.38536 0.92909 0.0
H549 H 0.87105 0.40355 0.97535 0.0
H550 H 0.77465 0.36623 0.88884 0.0
H551 H 0.84111 0.30571 0.9405 0.0
H552 H 0.88259 0.31067 0.81443 0.0
O553 O 0.91782 0.39441 0.90432 0.0
O554 O 0.90562 0.3923 0.83783 0.0
O555 O 0.87527 0.39122 0.81511 0.0
C556 C 0.9337 0.39347 0.86725 0.0
H557 H 0.79249 0.53053 0.84507 0.0
H558 H 0.83971 0.22742 0.91019 0.0
H559 H 0.72415 0.35616 0.94622 0.0
H560 H 0.82117 0.39608 0.03576 0.0
Co561 Co 0.86895 0.64355 0.12523 0.0
C562 C 0.96347 0.65074 0.10756 0.0
C563 C 0.94483 0.66401 0.1718 0.0
C564 C 0.98775 0.66362 0.17042 0.0
N565 N 0.929 0.65587 0.13277 0.0
N566 N -0.00014 0.65527 0.13036 0.0
H567 H 0.96202 0.64198 0.0743 0.0
H568 H 0.92637 0.66778 0.20027 0.0
C569 C 0.85161 0.72671 0.17644 0.0
O570 O 0.83301 0.74055 0.21105 0.0
N571 N 0.80915 0.6292 0.11991 0.0
C572 C 0.79554 0.58784 0.12319 0.0
C573 C 0.75286 0.58733 0.12512 0.0
C574 C 0.77337 0.65359 0.11761 0.0
N575 N 0.73809 0.62785 0.1198 0.0
C576 C 0.9009 0.56172 0.15801 0.0
C577 C 0.85857 0.56533 0.23461 0.0
C578 C 0.88477 0.52991 0.22686 0.0
C579 C 0.90574 0.5279 0.18774 0.0
C580 C 0.85391 0.59771 0.20398 0.0
N581 N 0.87541 0.59621 0.16646 0.0
H582 H 0.91762 0.56037 0.12822 0.0
H583 H 0.83214 0.62359 0.21041 0.0
H584 H 0.8154 0.5597 0.12657 0.0
H585 H 0.77324 0.68871 0.11473 0.0
O586 O 0.87905 0.61382 0.07048 0.0
O587 O 0.86301 0.68305 0.07935 0.0
O588 O 0.85544 0.6854 0.17232 0.0
C589 C 0.86972 0.6513 0.05342 0.0
H590 H 0.00863 0.66925 0.19724 0.0
H591 H 0.73453 0.55949 0.13402 0.0
H592 H 0.84125 0.56768 0.26407 0.0
H593 H 0.92626 0.50095 0.18059 0.0
Co594 Co 0.62775 0.63621 0.37915 0.0
C595 C 0.62107 0.53782 0.37942 0.0
C596 C 0.67895 0.56447 0.35405 0.0
C597 C 0.68106 0.51999 0.35331 0.0
N598 N 0.64174 0.57587 0.37048 0.0
N599 N 0.64498 0.50297 0.36935 0.0
H600 H 0.59017 0.53567 0.39381 0.0
H601 H 0.70306 0.58723 0.34361 0.0
C602 C 0.63435 0.64834 0.28367 0.0
O603 O 0.67329 0.66181 0.29078 0.0
N604 N 0.6136 0.69636 0.38886 0.0
C605 C 0.59569 0.70859 0.4255 0.0
C606 C 0.59204 0.75262 0.4259 0.0
C607 C 0.62028 0.73373 0.36663 0.0
N608 N 0.60743 0.76874 0.38924 0.0
C609 C 0.64726 0.61994 0.46936 0.0
C610 C 0.72581 0.66028 0.46377 0.0
C611 C 0.7136 0.64275 0.503 0.0
C612 C 0.67345 0.62274 0.50577 0.0
C613 C 0.69883 0.65717 0.42867 0.0
N614 N 0.66042 0.63708 0.43157 0.0
H615 H 0.61677 0.60389 0.47145 0.0
H616 H 0.70868 0.67066 0.39855 0.0
H617 H 0.58683 0.68687 0.451 0.0
H618 H 0.63577 0.73541 0.33614 0.0
O619 O 0.57035 0.61998 0.40422 0.0
O620 O 0.57994 0.63139 0.33831 0.0
O621 O 0.6096 0.6392 0.31556 0.0
C622 C 0.55311 0.62363 0.36791 0.0
H623 H 0.70716 0.5015 0.34106 0.0
H624 H 0.57936 0.77161 0.45177 0.0
H625 H 0.75647 0.67584 0.46007 0.0
H626 H 0.66307 0.60822 0.53529 0.0
Co627 Co 0.89289 0.39069 0.3714 0.0
C628 C 0.79961 0.37033 0.36594 0.0
C629 C 0.81487 0.43684 0.3815 0.0
C630 C 0.77204 0.43296 0.37791 0.0
N631 N 0.83243 0.3978 0.37417 0.0
N632 N 0.76237 0.39135 0.36803 0.0
H633 H 0.80264 0.33622 0.35806 0.0
H634 H 0.83204 0.46668 0.38832 0.0
C635 C 0.89447 0.44365 0.45754 0.0
O636 O 0.89777 0.4843 0.47043 0.0
N637 N 0.95446 0.38732 0.36929 0.0
C638 C 0.97849 0.40882 0.34067 0.0
C639 C 0.01663 0.41974 0.3588 0.0
C640 C 0.98044 0.3832 0.40342 0.0
N641 N 0.01931 0.40102 0.39717 0.0
C642 C 0.88079 0.42207 0.28602 0.0
C643 C 0.90281 0.50814 0.30124 0.0
C644 C 0.88999 0.49606 0.26022 0.0
C645 C 0.87944 0.45227 0.25258 0.0
C646 C 0.90457 0.47696 0.3335 0.0
N647 N 0.8932 0.43445 0.32594 0.0
H648 H 0.87144 0.3887 0.2799 0.0
H649 H 0.91545 0.48744 0.36434 0.0
H650 H 0.96784 0.42081 0.31033 0.0
H651 H 0.97042 0.37059 0.43354 0.0
O652 O 0.88598 0.33507 0.33807 0.0
O653 O 0.88937 0.34138 0.40699 0.0
O654 O 0.89991 0.43686 0.41747 0.0
C655 C 0.88514 0.31594 0.37497 0.0
H656 H 0.74972 0.45866 0.3833 0.0
H657 H 0.03847 0.44376 0.34628 0.0
H658 H 0.91137 0.54165 0.30836 0.0
H659 H 0.86889 0.44176 0.2214 0.0
Co660 Co 0.61416 0.64247 0.87096 0.0
C661 C 0.70597 0.66043 0.86899 0.0
C662 C 0.6901 0.59428 0.88572 0.0
C663 C 0.73282 0.59788 0.88289 0.0
N664 N 0.67325 0.63342 0.87746 0.0
N665 N 0.74269 0.63911 0.87181 0.0
H666 H 0.70312 0.69421 0.85979 0.0
H667 H 0.67265 0.56452 0.89184 0.0
C668 C 0.6067 0.58387 0.95191 0.0
O669 O 0.60676 0.54273 0.96343 0.0
N670 N 0.55514 0.65004 0.86345 0.0
C671 C 0.53762 0.66228 0.82645 0.0
C672 C 0.49493 0.65722 0.82955 0.0
C673 C 0.52313 0.63806 0.88901 0.0
N674 N 0.48598 0.64206 0.86876 0.0
C675 C 0.63946 0.61229 0.78835 0.0
C676 C 0.58856 0.53833 0.78653 0.0
C677 C 0.61541 0.54658 0.75219 0.0
C678 C 0.641 0.58416 0.75323 0.0
C679 C 0.58825 0.56702 0.82119 0.0
N680 N 0.61387 0.60319 0.82205 0.0
H681 H 0.65935 0.64117 0.78888 0.0
H682 H 0.56733 0.56012 0.84737 0.0
H683 H 0.55497 0.67224 0.79856 0.0
H684 H 0.52684 0.62444 0.9204 0.0
O685 O 0.62312 0.69983 0.84259 0.0
O686 O 0.61647 0.68835 0.91099 0.0
O687 O 0.60326 0.59182 0.91171 0.0
C688 C 0.61923 0.7161 0.88059 0.0
H689 H 0.75489 0.57221 0.88934 0.0
H690 H 0.47227 0.66413 0.80468 0.0
H691 H 0.56849 0.5095 0.78688 0.0
H692 H 0.66233 0.59142 0.72737 0.0
Co693 Co 0.87348 0.64725 0.88127 0.0
C694 C 0.87222 0.63298 0.97661 0.0
C695 C 0.8402 0.68943 0.95281 0.0
C696 C 0.84251 0.6926 0.99586 0.0
N697 N 0.85884 0.65257 0.9403 0.0
N698 N 0.8624 0.65732 0.01117 0.0
H699 H 0.891 0.60379 0.97755 0.0
H700 H 0.82871 0.71429 0.93162 0.0
C701 C 0.78222 0.65481 0.86642 0.0
O702 O 0.78956 0.69674 0.86172 0.0
N703 N 0.88719 0.64592 0.82121 0.0
C704 C 0.92703 0.64896 0.80703 0.0
C705 C 0.92623 0.65787 0.76466 0.0
C706 C 0.86231 0.65206 0.78621 0.0
N707 N 0.88591 0.65854 0.75083 0.0
C708 C 0.95831 0.66988 0.91163 0.0
C709 C 0.94799 0.75685 0.89004 0.0
C710 C 0.98632 0.74399 0.90805 0.0
C711 C 0.99135 0.69987 0.91922 0.0
C712 C 0.91641 0.72597 0.88246 0.0
N713 N 0.9221 0.68339 0.89252 0.0
H714 H 0.96184 0.63608 0.9204 0.0
H715 H 0.88693 0.73581 0.86808 0.0
H716 H 0.95511 0.64736 0.82654 0.0
H717 H 0.82817 0.65202 0.78659 0.0
O718 O 0.89832 0.58536 0.89011 0.0
O719 O 0.83481 0.5964 0.87252 0.0
O720 O 0.81314 0.62791 0.86955 0.0
C721 C 0.86289 0.56776 0.88012 0.0
H722 H 0.83095 0.71952 0.01459 0.0
H723 H 0.95353 0.66576 0.7459 0.0
H724 H 0.94298 0.79023 0.8803 0.0
H725 H 0.02057 0.68873 0.93328 0.0
Co726 Co 0.11854 0.14762 0.63996 0.0
C727 C 0.10809 0.1274 0.54603 0.0
C728 C 0.13737 0.18897 0.56151 0.0
C729 C 0.13526 0.18542 0.51828 0.0
N730 N 0.12048 0.15294 0.57906 0.0
N731 N 0.11659 0.14706 0.5083 0.0
H732 H 0.09313 0.0957 0.5494 0.0
H733 H 0.15081 0.21596 0.5793 0.0
C734 C 0.21325 0.156 0.6358 0.0
O735 O 0.20866 0.19722 0.6458 0.0
N736 N 0.11867 0.14591 0.70217 0.0
C737 C 0.08821 0.16047 0.72819 0.0
C738 C 0.10448 0.16536 0.76855 0.0
C739 C 0.15265 0.14097 0.72802 0.0
N740 N 0.14456 0.15137 0.76905 0.0
C741 C 0.02856 0.16376 0.6268 0.0
C742 C 0.03764 0.25157 0.64549 0.0
C743 C -0.00191 0.23612 0.63119 0.0
C744 C 0.99349 0.19129 0.62264 0.0
C745 C 0.07154 0.22335 0.64878 0.0
N746 N 0.0668 0.18031 0.63955 0.0
H747 H 0.02536 0.1297 0.61856 0.0
H748 H 0.10225 0.23587 0.6583 0.0
H749 H 0.05719 0.17079 0.71839 0.0
H750 H 0.18355 0.13193 0.71689 0.0
O751 O 0.09262 0.08566 0.6374 0.0
O752 O 0.15856 0.09837 0.64019 0.0
O753 O 0.18103 0.12948 0.63679 0.0
C754 C 0.12924 0.06923 0.64011 0.0
H755 H 0.14815 0.20861 0.49594 0.0
H756 H 0.08948 0.18356 0.7934 0.0
H757 H 0.04273 0.2856 0.65331 0.0
H758 H 0.96369 0.17801 0.61121 0.0
Co759 Co 0.63033 0.38012 0.3764 0.0
C760 C 0.62418 0.39995 0.46894 0.0
C761 C 0.65838 0.34197 0.45308 0.0
C762 C 0.64908 0.341 0.49529 0.0
N763 N 0.64239 0.37829 0.43617 0.0
N764 N 0.62771 0.37729 0.50563 0.0
H765 H 0.60578 0.42919 0.46546 0.0
H766 H 0.67224 0.31588 0.43503 0.0
C767 C 0.7226 0.37496 0.36382 0.0
O768 O 0.7158 0.33275 0.36105 0.0
N769 N 0.61609 0.38092 0.31665 0.0
C770 C 0.57541 0.38372 0.30502 0.0
C771 C 0.57193 0.37614 0.26288 0.0
C772 C 0.63756 0.37331 0.28003 0.0
N773 N 0.61058 0.37131 0.24627 0.0
C774 C 0.54473 0.35162 0.40124 0.0
C775 C 0.56181 0.26599 0.37897 0.0
C776 C 0.52099 0.27628 0.39189 0.0
C777 C 0.51257 0.31968 0.40366 0.0
C778 C 0.59237 0.29878 0.37607 0.0
N779 N 0.58342 0.34078 0.38609 0.0
H780 H 0.53832 0.385 0.40981 0.0
H781 H 0.62356 0.291 0.36472 0.0
H782 H 0.54935 0.38925 0.32615 0.0
H783 H 0.67142 0.36952 0.27816 0.0
O784 O 0.60295 0.44041 0.38307 0.0
O785 O 0.6676 0.43196 0.36789 0.0
O786 O 0.69095 0.40131 0.36608 0.0
C787 C 0.63794 0.45923 0.37399 0.0
H788 H 0.65722 0.31495 0.51673 0.0
H789 H 0.54265 0.37214 0.24616 0.0
H790 H 0.56961 0.2332 0.36933 0.0
H791 H 0.48138 0.32882 0.41407 0.0
Co792 Co 0.37025 0.8824 0.1284 0.0
C793 C 0.37274 0.90613 0.03695 0.0
C794 C 0.34906 0.84146 0.0491 0.0
C795 C 0.35452 0.846 0.00628 0.0
N796 N 0.36001 0.87908 0.06837 0.0
N797 N 0.36997 0.8863 0.9987 0.0
H798 H 0.38653 0.93815 0.04204 0.0
H799 H 0.34065 0.81164 0.06536 0.0
C800 C 0.27527 0.87358 0.13112 0.0
O801 O 0.27981 0.83677 0.1106 0.0
N802 N 0.38106 0.88411 0.1886 0.0
C803 C 0.41939 0.88042 0.20686 0.0
C804 C 0.41444 0.87794 0.24972 0.0
C805 C 0.35325 0.88516 0.22104 0.0
N806 N 0.37328 0.88243 0.25883 0.0
C807 C 0.45778 0.8637 0.10299 0.0
C808 C 0.45045 0.77909 0.13303 0.0
C809 C 0.48893 0.79237 0.11502 0.0
C810 C 0.49261 0.83557 0.1001 0.0
C811 C 0.41686 0.80754 0.13462 0.0
N812 N 0.42083 0.84909 0.12035 0.0
H813 H 0.46039 0.8968 0.09151 0.0
H814 H 0.38725 0.79682 0.14831 0.0
H815 H 0.44904 0.87784 0.19038 0.0
H816 H 0.3194 0.88768 0.2173 0.0
O817 O 0.39468 0.94471 0.1231 0.0
O818 O 0.33009 0.9307 0.13548 0.0
O819 O 0.3078 0.8988 0.13846 0.0
C820 C 0.35834 0.96036 0.13042 0.0
H821 H 0.34806 0.8213 0.98262 0.0
H822 H 0.43885 0.86998 0.27214 0.0
H823 H 0.44608 0.7467 0.14598 0.0
H824 H 0.52162 0.84715 0.08574 0.0
Co825 Co 0.86913 0.3846 0.61283 0.0
C826 C 0.8473 0.37989 0.7054 0.0
C827 C 0.91058 0.40151 0.6912 0.0
C828 C 0.90527 0.40338 0.73411 0.0
N829 N 0.87458 0.38686 0.67321 0.0
N830 N 0.8658 0.38942 0.74318 0.0
H831 H 0.81506 0.36842 0.70143 0.0
H832 H 0.93848 0.41135 0.67385 0.0
C833 C 0.8781 0.4804 0.61994 0.0
O834 O 0.9184 0.47513 0.612 0.0
N835 N 0.86667 0.38483 0.55109 0.0
C836 C 0.88008 0.35251 0.52599 0.0
C837 C 0.89252 0.36987 0.48799 0.0
C838 C 0.86813 0.42072 0.52611 0.0
N839 N 0.88303 0.41245 0.48666 0.0
C840 C 0.8913 0.29354 0.62962 0.0
C841 C 0.97407 0.30831 0.60458 0.0
C842 C 0.96365 0.26795 0.62279 0.0
C843 C 0.92129 0.26025 0.63455 0.0
C844 C 0.9437 0.34032 0.60075 0.0
N845 N 0.90315 0.33283 0.61299 0.0
H846 H 0.85929 0.28848 0.64051 0.0
H847 H 0.95261 0.37207 0.5886 0.0
H848 H 0.8872 0.31991 0.53641 0.0
H849 H 0.86189 0.45319 0.53752 0.0
O850 O 0.80892 0.35764 0.61603 0.0
O851 O 0.82127 0.42559 0.61267 0.0
O852 O 0.85174 0.4481 0.61639 0.0
C853 C 0.79295 0.39556 0.61359 0.0
H854 H 0.92825 0.41568 0.75677 0.0
H855 H 0.91631 0.35446 0.46985 0.0
H856 H 0.00591 0.31569 0.5942 0.0
H857 H 0.91191 0.22969 0.64903 0.0
Co858 Co 0.37542 0.14089 0.37674 0.0
C859 C 0.38018 0.1316 0.47132 0.0
C860 C 0.35645 0.1927 0.44829 0.0
C861 C 0.36373 0.19648 0.49088 0.0
N862 N 0.36712 0.15254 0.4358 0.0
N863 N 0.37837 0.15819 0.50553 0.0
H864 H 0.39269 0.09897 0.47186 0.0
H865 H 0.34661 0.21841 0.42712 0.0
C866 C 0.28288 0.14588 0.36731 0.0
O867 O 0.29033 0.18683 0.35744 0.0
N868 N 0.38432 0.13152 0.31695 0.0
C869 C 0.42303 0.12304 0.30237 0.0
C870 C 0.42289 0.12768 0.25946 0.0
C871 C 0.36039 0.14042 0.282 0.0
N872 N 0.38366 0.13762 0.24606 0.0
C873 C 0.46094 0.16829 0.40015 0.0
C874 C 0.44938 0.25148 0.36782 0.0
C875 C 0.48705 0.24242 0.38929 0.0
C876 C 0.49296 0.20001 0.40522 0.0
C877 C 0.41879 0.21882 0.3628 0.0
N878 N 0.42475 0.1782 0.3789 0.0
H879 H 0.46473 0.13628 0.41382 0.0
H880 H 0.38934 0.22613 0.34695 0.0
H881 H 0.45035 0.11676 0.32205 0.0
H882 H 0.32763 0.14993 0.28292 0.0
O883 O 0.4022 0.08093 0.38965 0.0
O884 O 0.33683 0.08952 0.37809 0.0
O885 O 0.31404 0.11961 0.37299 0.0
C886 C 0.36621 0.06222 0.38566 0.0
H887 H 0.35845 0.22537 0.50976 0.0
H888 H 0.45041 0.12589 0.23985 0.0
H889 H 0.44382 0.28341 0.35447 0.0
H890 H 0.52172 0.19174 0.42196 0.0
Co891 Co 0.61908 0.64342 0.11108 0.0
C892 C 0.63821 0.65294 0.2055 0.0
C893 C 0.57865 0.62275 0.18951 0.0
C894 C 0.58271 0.6232 0.23274 0.0
N895 N 0.61324 0.64101 0.17215 0.0
N896 N 0.6197 0.64266 0.24314 0.0
H897 H 0.66892 0.66843 0.20243 0.0
H898 H 0.5524 0.60911 0.17168 0.0
C899 C 0.61252 0.54704 0.11372 0.0
O900 O 0.57159 0.55338 0.11269 0.0
N901 N 0.62133 0.64361 0.04864 0.0
C902 C 0.602 0.67283 0.02336 0.0
C903 C 0.5941 0.65454 0.98436 0.0
C904 C 0.62691 0.60871 0.02272 0.0
N905 N 0.61185 0.61512 0.9827 0.0
C906 C 0.59614 0.73581 0.11945 0.0
C907 C 0.51226 0.71644 0.10093 0.0
C908 C 0.5233 0.75967 0.11092 0.0
C909 C 0.56613 0.76946 0.11966 0.0
C910 C 0.54256 0.68424 0.10195 0.0
N911 N 0.58367 0.69404 0.11061 0.0
H912 H 0.62885 0.74304 0.1269 0.0
H913 H 0.5335 0.65085 0.09516 0.0
H914 H 0.58956 0.70371 0.03329 0.0
H915 H 0.63918 0.57789 0.03343 0.0
O916 O 0.6781 0.67298 0.11518 0.0
O917 O 0.66874 0.60446 0.11409 0.0
O918 O 0.63855 0.58002 0.11236 0.0
C919 C 0.69575 0.63591 0.11644 0.0
H920 H 0.56115 0.60794 0.25467 0.0
H921 H 0.57085 0.66668 0.9624 0.0
H922 H 0.48007 0.70718 0.09293 0.0
H923 H 0.57603 0.80229 0.12787 0.0
Co924 Co 0.13037 0.87747 0.88403 0.0
C925 C 0.13849 0.8997 0.97632 0.0
C926 C 0.16608 0.83887 0.95796 0.0
C927 C 0.16418 0.84023 0.00134 0.0
N928 N 0.14914 0.87542 0.94217 0.0
N929 N 0.14721 0.87843 0.01292 0.0
H930 H 0.12016 0.92915 0.9745 0.0
H931 H 0.17521 0.81118 0.93902 0.0
C932 C 0.22001 0.87519 0.86225 0.0
O933 O 0.21407 0.83294 0.85838 0.0
N934 N 0.11197 0.8773 0.82535 0.0
C935 C 0.07124 0.87389 0.81343 0.0
C936 C 0.06909 0.87147 0.77029 0.0
C937 C 0.13431 0.87751 0.78862 0.0
N938 N 0.10832 0.87491 0.75438 0.0
C939 C 0.04837 0.85023 0.91739 0.0
C940 C 0.0611 0.76425 0.89341 0.0
C941 C 0.02196 0.77578 0.91009 0.0
C942 C 0.01599 0.81922 0.92315 0.0
C943 C 0.09205 0.79616 0.88765 0.0
N944 N 0.08491 0.83836 0.89826 0.0
H945 H 0.04366 0.88375 0.92656 0.0
H946 H 0.12174 0.78764 0.87319 0.0
H947 H 0.04456 0.87241 0.83454 0.0
H948 H 0.16831 0.88066 0.78688 0.0
O949 O 0.10154 0.93703 0.8926 0.0
O950 O 0.16498 0.93066 0.8727 0.0
O951 O 0.18833 0.90054 0.86834 0.0
C952 C 0.13502 0.957 0.88082 0.0
H953 H 0.17253 0.81408 0.02276 0.0
H954 H 0.04078 0.86542 0.7523 0.0
H955 H 0.06694 0.73139 0.88258 0.0
H956 H 0.98622 0.82928 0.9365 0.0
Co957 Co 0.86464 0.9035 0.63279 0.0
C958 C 0.77103 0.88935 0.6378 0.0
C959 C 0.79129 0.94493 0.60104 0.0
C960 C 0.7484 0.94586 0.60465 0.0
N961 N 0.80558 0.90994 0.62183 0.0
N962 N 0.73555 0.91133 0.62793 0.0
H963 H 0.77198 0.86081 0.6579 0.0
H964 H 0.8111 0.96906 0.58569 0.0
C965 C 0.87538 0.90848 0.53732 0.0
O966 O 0.88471 0.95001 0.54213 0.0
N967 N 0.92437 0.89859 0.64439 0.0
C968 C 0.9404 0.8948 0.68385 0.0
C969 C 0.98332 0.89795 0.68196 0.0
C970 C 0.95831 0.90292 0.61864 0.0
N971 N 0.9949 0.9019 0.64119 0.0
C972 C 0.84349 0.92208 0.72078 0.0
C973 C 0.86885 1.00848 0.71313 0.0
C974 C 0.85465 0.99321 0.75245 0.0
C975 C 0.84189 0.94947 0.75639 0.0
C976 C 0.8707 0.98008 0.67894 0.0
N977 N 0.85865 0.93773 0.68323 0.0
H978 H 0.83345 0.88844 0.72347 0.0
H979 H 0.88218 0.99159 0.64863 0.0
H980 H 0.92219 0.89148 0.71253 0.0
H981 H 0.95634 0.90699 0.58458 0.0
O982 O 0.8553 0.84313 0.65919 0.0
O983 O 0.86812 0.85349 0.59373 0.0
O984 O 0.87095 0.88347 0.57033 0.0
C985 C 0.86196 0.82557 0.62333 0.0
H986 H 0.72806 0.96965 0.59009 0.0
H987 H 0.00421 0.89959 0.70873 0.0
H988 H 0.87904 0.04204 0.70906 0.0
H989 H 0.83049 0.93688 0.78638 0.0
Co990 Co 0.85609 0.13974 0.36392 0.0
C991 C 0.87064 0.23825 0.35511 0.0
C992 C 0.86622 0.21216 0.41842 0.0
C993 C 0.87477 0.25563 0.42131 0.0
N994 N 0.86339 0.20084 0.37739 0.0
N995 N 0.8776 0.27254 0.38183 0.0
H996 H 0.87136 0.24022 0.32082 0.0
H997 H 0.86292 0.18967 0.44464 0.0
C998 C 0.94785 0.13653 0.38126 0.0
O999 O 0.93845 0.12545 0.42039 0.0
N1000 N 0.8499 0.07822 0.35261 0.0
C1001 C 0.81502 0.06099 0.33449 0.0
C1002 C 0.8168 0.01677 0.33754 0.0
C1003 C 0.87344 0.04395 0.36562 0.0
N1004 N 0.85332 1.00579 0.35696 0.0
C1005 C 0.77147 0.16913 0.38089 0.0
C1006 C 0.76302 0.11345 0.4496 0.0
C1007 C 0.73324 0.14606 0.44325 0.0
C1008 C 0.73647 0.17319 0.40759 0.0
C1009 C 0.79763 0.11143 0.42325 0.0
N1010 N 0.80185 0.13948 0.39019 0.0
H1011 H 0.77583 0.19155 0.35478 0.0
H1012 H 0.82263 0.08899 0.4307 0.0
H1013 H 0.78897 0.07955 0.32198 0.0
H1014 H 0.90284 0.04692 0.38311 0.0
O1015 O 0.83584 0.15169 0.30329 0.0
O1016 O 0.90001 0.14121 0.3197 0.0
O1017 O 0.91885 0.13877 0.35237 0.0
C1018 C 0.87298 0.14547 0.28961 0.0
H1019 H 0.87873 0.27359 0.45072 0.0
H1020 H 0.7925 0.99417 0.32663 0.0
H1021 H 0.7614 0.09209 0.47694 0.0
H1022 H 0.71411 0.19905 0.40229 0.0
Co1023 Co 0.62309 0.12091 0.12376 0.0
C1024 C 0.71357 0.14863 0.12546 0.0
C1025 C 0.6994 0.09558 0.08272 0.0
C1026 C 0.74211 0.10264 0.08294 0.0
N1027 N 0.68158 0.12414 0.10928 0.0
N1028 N 0.75106 0.1355 0.11009 0.0
H1029 H 0.70989 0.17324 0.14973 0.0
H1030 H 0.68259 0.07015 0.06568 0.0
C1031 C 0.60919 0.1223 0.03079 0.0
O1032 O 0.60715 0.07958 0.03297 0.0
N1033 N 0.5635 0.11593 0.13723 0.0
C1034 C 0.54663 0.10117 0.17382 0.0
C1035 C 0.50347 0.10146 0.17034 0.0
C1036 C 0.52997 0.12503 0.112 0.0
N1037 N 0.49305 0.11739 0.13201 0.0
C1038 C 0.65108 0.09599 0.20777 0.0
C1039 C 0.63601 1.00833 0.1907 0.0
C1040 C 0.64726 0.02109 0.23194 0.0
C1041 C 0.6564 0.06537 0.24008 0.0
C1042 C 0.63125 0.0398 0.15959 0.0
N1043 N 0.63699 0.08265 0.16898 0.0
H1044 H 0.65659 0.13017 0.21417 0.0
H1045 H 0.62078 0.03044 0.12809 0.0
H1046 H 0.56401 0.09 0.20119 0.0
H1047 H 0.5323 0.13798 0.08018 0.0
O1048 O 0.62706 0.17973 0.15561 0.0
O1049 O 0.61047 0.17327 0.09049 0.0
O1050 O 0.61042 0.14545 0.06499 0.0
C1051 C 0.61565 0.19921 0.12188 0.0
H1052 H 0.76492 0.08475 0.06462 0.0
H1053 H 0.48158 0.08822 0.19311 0.0
H1054 H 0.62829 0.97477 0.18305 0.0
H1055 H 0.66597 0.07635 0.2714 0.0
Co1056 Co 0.61898 0.89269 0.87447 0.0
C1057 C 0.61541 0.79488 0.86398 0.0
C1058 C 0.59932 0.81787 0.92625 0.0
C1059 C 0.60332 0.77384 0.928 0.0
N1060 N 0.6068 0.83169 0.88636 0.0
N1061 N 0.61354 0.75909 0.88916 0.0
H1062 H 0.62515 0.79448 0.83112 0.0
H1063 H 0.5949 0.83852 0.95356 0.0
C1064 C 0.54145 0.90805 0.93036 0.0
O1065 O 0.52865 0.9087 0.96996 0.0
N1066 N 0.63313 0.95355 0.86428 0.0
C1067 C 0.67219 0.96611 0.85246 0.0
C1068 C 0.67498 1.01057 0.85346 0.0
C1069 C 0.61219 0.99112 0.87208 0.0
N1070 N 0.63735 0.02644 0.86535 0.0
C1071 C 0.69696 0.85932 0.90385 0.0
C1072 C 0.69928 0.90682 0.97857 0.0
C1073 C 0.72961 0.87512 0.97123 0.0
C1074 C 0.72916 0.85187 0.93309 0.0
C1075 C 0.66818 0.91381 0.94822 0.0
N1076 N 0.66655 0.88909 0.91226 0.0
H1077 H 0.69563 0.84045 0.87489 0.0
H1078 H 0.64523 0.93883 0.95386 0.0
H1079 H 0.69757 0.94415 0.84515 0.0
H1080 H 0.58063 0.99278 0.88475 0.0
O1081 O 0.64615 0.87816 0.82011 0.0
O1082 O 0.57908 0.89279 0.83003 0.0
O1083 O 0.58135 0.90995 0.92359 0.0
C1084 C 0.60909 0.88558 0.80381 0.0
H1085 H 0.59997 0.75415 0.95634 0.0
H1086 H 0.7028 0.02989 0.84589 0.0
H1087 H 0.7 0.92634 0.00725 0.0
H1088 H 0.75299 0.82786 0.92638 0.0
Co1089 Co 0.87958 0.14072 0.88225 0.0
C1090 C 0.97399 0.12728 0.88675 0.0
C1091 C 0.9488 0.13436 0.82361 0.0
C1092 C 0.99093 0.12619 0.82058 0.0
N1093 N 0.9379 0.13555 0.86486 0.0
N1094 N 0.00694 0.12188 0.86006 0.0
H1095 H 0.97636 0.12613 0.92101 0.0
H1096 H 0.92728 0.13826 0.79717 0.0
C1097 C 0.86921 0.22303 0.82431 0.0
O1098 O 0.87008 0.23371 0.78391 0.0
N1099 N 0.82046 0.14286 0.89773 0.0
C1100 C 0.80093 0.10846 0.9162 0.0
C1101 C 0.75849 0.11 0.9078 0.0
C1102 C 0.78901 0.16553 0.87902 0.0
N1103 N 0.75116 0.1458 0.88445 0.0
C1104 C 0.88478 0.05228 0.85319 0.0
C1105 C 0.8317 0.06284 0.78393 0.0
C1106 C 0.85363 0.02389 0.78842 0.0
C1107 C 0.87933 0.01797 0.82426 0.0
C1108 C 0.83786 0.09602 0.81344 0.0
N1109 N 0.86541 0.09115 0.84654 0.0
H1110 H 0.90624 0.0486 0.87972 0.0
H1111 H 0.82158 0.12624 0.80854 0.0
H1112 H 0.81686 0.08137 0.93084 0.0
H1113 H 0.79386 0.19295 0.85808 0.0
O1114 O 0.89087 0.11173 0.93654 0.0
O1115 O 0.89536 0.18253 0.92444 0.0
O1116 O 0.87048 0.18209 0.83293 0.0
C1117 C 0.89611 0.15101 0.95157 0.0
H1118 H 0.0087 0.12439 0.79136 0.0
H1119 H 0.73502 0.08589 0.91701 0.0
H1120 H 0.81142 0.06832 0.75668 0.0
H1121 H 0.89698 0.98827 0.82843 0.0
Co1122 Co 0.62732 0.15883 0.60353 0.0
C1123 C 0.60623 0.06315 0.60364 0.0
C1124 C 0.67163 0.08019 0.61353 0.0
C1125 C 0.66683 0.03652 0.61999 0.0
N1126 N 0.63402 0.09699 0.60313 0.0
N1127 N 0.62595 0.0256 0.61356 0.0
H1128 H 0.57254 0.06605 0.59877 0.0
H1129 H 0.70009 0.09914 0.61923 0.0
C1130 C 0.64021 0.15637 0.69735 0.0
O1131 O 0.6788 0.17117 0.69125 0.0
N1132 N 0.62454 0.222 0.60676 0.0
C1133 C 0.648 0.24952 0.5831 0.0
C1134 C 0.65284 0.28807 0.60414 0.0
C1135 C 0.61403 0.24594 0.64129 0.0
N1136 N 0.62973 0.28712 0.63974 0.0
C1137 C 0.63645 0.15611 0.51177 0.0
C1138 C 0.72353 0.16375 0.51844 0.0
C1139 C 0.70504 0.15605 0.47866 0.0
C1140 C 0.66095 0.1533 0.47496 0.0
C1141 C 0.69827 0.16577 0.55392 0.0
N1142 N 0.65567 0.16173 0.5503 0.0
H1143 H 0.60257 0.15227 0.5095 0.0
H1144 H 0.71252 0.1702 0.58494 0.0
H1145 H 0.66419 0.2418 0.55417 0.0
H1146 H 0.59743 0.23301 0.6685 0.0
O1147 O 0.56673 0.15472 0.58006 0.0
O1148 O 0.5813 0.15388 0.64583 0.0
O1149 O 0.61357 0.15331 0.66617 0.0
C1150 C 0.55217 0.15332 0.61748 0.0
H1151 H 0.6911 0.01513 0.63156 0.0
H1152 H 0.6746 0.31321 0.59472 0.0
H1153 H 0.75751 0.16633 0.52226 0.0
H1154 H 0.64595 0.147 0.44455 0.0
Co1155 Co 0.61471 0.89117 0.37621 0.0
C1156 C 0.70521 0.86794 0.37172 0.0
C1157 C 0.69314 0.92955 0.40157 0.0
C1158 C 0.73543 0.92737 0.39317 0.0
N1159 N 0.67412 0.89276 0.38771 0.0
N1160 N 0.74296 0.88872 0.37447 0.0
H1161 H 0.70009 0.83725 0.35548 0.0
H1162 H 0.67671 0.9576 0.41362 0.0
C1163 C 0.60585 0.89595 0.4679 0.0
O1164 O 0.6017 0.93798 0.46149 0.0
N1165 N 0.55448 0.89218 0.36467 0.0
C1166 C 0.53853 0.90137 0.32609 0.0
C1167 C 0.49618 0.90665 0.32935 0.0
C1168 C 0.52054 0.89066 0.39108 0.0
N1169 N 0.48421 0.89836 0.36949 0.0
C1170 C 0.64562 0.91512 0.2932 0.0
C1171 C 0.62393 1.00167 0.30467 0.0
C1172 C 0.64354 0.98926 0.2669 0.0
C1173 C 0.65496 0.94543 0.26145 0.0
C1174 C 0.61542 0.97056 0.33538 0.0
N1175 N 0.62538 0.92819 0.32889 0.0
H1176 H 0.65456 0.8815 0.2894 0.0
H1177 H 0.60038 0.97995 0.36468 0.0
H1178 H 0.55643 0.90568 0.29731 0.0
H1179 H 0.52223 0.88349 0.42465 0.0
O1180 O 0.61946 0.83109 0.34711 0.0
O1181 O 0.60562 0.83937 0.41247 0.0
O1182 O 0.60584 0.86941 0.43618 0.0
C1183 C 0.61096 0.81228 0.3821 0.0
H1184 H 0.75877 0.9526 0.3998 0.0
H1185 H 0.47591 0.9181 0.30424 0.0
H1186 H 0.61388 0.0348 0.30997 0.0
H1187 H 0.67057 0.93469 0.23287 0.0
Co1188 Co 0.86405 0.88414 0.10979 0.0
C1189 C 0.87978 0.98144 0.10231 0.0
C1190 C 0.81453 0.9611 0.10493 0.0
C1191 C 0.81617 1.0054 0.10267 0.0
N1192 N 0.85403 0.94573 0.10437 0.0
N1193 N 0.85695 0.01845 0.10117 0.0
H1194 H 0.91391 0.98063 0.10325 0.0
H1195 H 0.78628 0.94134 0.10832 0.0
C1196 C 0.86796 0.89369 0.19825 0.0
O1197 O 0.82711 0.88941 0.19162 0.0
N1198 N 0.87148 0.82252 0.11688 0.0
C1199 C 0.90012 0.79593 0.09974 0.0
C1200 C 0.8959 0.7556 0.11852 0.0
C1201 C 0.85017 0.79806 0.14519 0.0
N1202 N 0.86394 0.75666 0.14674 0.0
C1203 C 0.83474 0.88498 0.02364 0.0
C1204 C 0.75424 0.85584 0.04363 0.0
C1205 C 0.76344 0.86923 0.00221 0.0
C1206 C 0.80431 0.88261 0.99187 0.0
C1207 C 0.786 0.85764 0.07434 0.0
N1208 N 0.82508 0.87319 0.06425 0.0
H1209 H 0.86516 0.89866 0.01566 0.0
H1210 H 0.77888 0.84921 0.10687 0.0
H1211 H 0.92389 0.80546 0.07697 0.0
H1212 H 0.8254 0.81065 0.16506 0.0
O1213 O 0.91273 0.88872 0.07119 0.0
O1214 O 0.92194 0.8952 0.13771 0.0
O1215 O 0.89305 0.89456 0.16612 0.0
C1216 C 0.93901 0.89471 0.10065 0.0
H1217 H 0.78921 0.02649 0.10459 0.0
H1218 H 0.91746 0.72962 0.11381 0.0
H1219 H 0.72255 0.84578 0.05237 0.0
H1220 H 0.81187 0.89389 0.96019 0.0
Co1221 Co 0.11672 0.66034 0.10514 0.0
C1222 C 0.09865 0.56303 0.10499 0.0
C1223 C 0.16368 0.58226 0.11235 0.0
C1224 C 0.16077 0.53819 0.11778 0.0
N1225 N 0.12512 0.59813 0.10401 0.0
N1226 N 0.1201 0.52582 0.11306 0.0
H1227 H 0.06469 0.56474 0.10161 0.0
H1228 H 0.19182 0.60194 0.11713 0.0
C1229 C 0.13061 0.65917 0.198 0.0
O1230 O 0.16916 0.6728 0.18963 0.0
N1231 N 0.11318 0.72328 0.10959 0.0
C1232 C 0.14822 0.74805 0.11506 0.0
C1233 C 0.13754 0.78735 0.13199 0.0
C1234 C 0.08139 0.74861 0.12371 0.0
N1235 N 0.09551 0.78843 0.13643 0.0
C1236 C 0.12857 0.66022 0.01284 0.0
C1237 C 0.21521 0.67023 0.02247 0.0
C1238 C 0.19869 0.66219 0.98195 0.0
C1239 C 0.15466 0.65833 0.97678 0.0
C1240 C 0.18858 0.67098 0.05702 0.0
N1241 N 0.14618 0.66576 0.05218 0.0
H1242 H 0.09487 0.65532 0.00941 0.0
H1243 H 0.20214 0.67335 0.08847 0.0
H1244 H 0.18008 0.73642 0.11349 0.0
H1245 H 0.04929 0.73732 0.12827 0.0
O1246 O 0.05591 0.65497 0.0817 0.0
O1247 O 0.07062 0.65358 0.14741 0.0
O1248 O 0.10293 0.65487 0.16783 0.0
C1249 C 0.04127 0.65265 0.11917 0.0
H1250 H 0.18635 0.51732 0.12713 0.0
H1251 H 0.15935 0.80928 0.14745 0.0
H1252 H 0.24898 0.67323 0.02777 0.0
H1253 H 0.14094 0.65165 0.94586 0.0
Co1254 Co 0.10448 0.3903 0.87029 0.0
C1255 C 0.19568 0.37018 0.87059 0.0
C1256 C 0.18169 0.43439 0.89366 0.0
C1257 C 0.22461 0.431 0.88981 0.0
N1258 N 0.16366 0.39653 0.88139 0.0
N1259 N 0.23328 0.39076 0.87521 0.0
H1260 H 0.1917 0.33779 0.85752 0.0
H1261 H 0.16453 0.46316 0.90267 0.0
C1262 C 0.09794 0.39692 0.96302 0.0
O1263 O 0.09222 0.43869 0.95642 0.0
N1264 N 0.04528 0.38482 0.85824 0.0
C1265 C 0.03116 0.37301 0.81962 0.0
C1266 C 0.98827 0.37519 0.8192 0.0
C1267 C 0.01053 0.3936 0.88154 0.0
N1268 N 0.9751 0.3883 0.85777 0.0
C1269 C 0.13397 0.41758 0.78677 0.0
C1270 C 0.10584 0.50191 0.79978 0.0
C1271 C 0.12913 0.49297 0.76329 0.0
C1272 C 0.1429 0.45 0.75655 0.0
C1273 C 0.09711 0.46867 0.82851 0.0
N1274 N 0.11117 0.42756 0.82189 0.0
H1275 H 0.14602 0.38506 0.78267 0.0
H1276 H 0.08005 0.4759 0.85727 0.0
H1277 H 0.05099 0.36383 0.79334 0.0
H1278 H 0.01124 0.40469 0.91416 0.0
O1279 O 0.11311 0.3294 0.84345 0.0
O1280 O 0.09902 0.33942 0.90848 0.0
O1281 O 0.09775 0.37002 0.93142 0.0
C1282 C 0.10516 0.31144 0.87909 0.0
H1283 H 0.24764 0.45631 0.89708 0.0
H1284 H 0.96813 0.36623 0.79269 0.0
H1285 H 0.09394 0.53423 0.80584 0.0
H1286 H 0.16091 0.44182 0.7286 0.0
Co1287 Co 0.37087 0.38381 0.60896 0.0
C1288 C 0.38664 0.48179 0.60503 0.0
C1289 C 0.32238 0.46009 0.61373 0.0
C1290 C 0.32276 0.5043 0.61196 0.0
N1291 N 0.36188 0.44559 0.60869 0.0
N1292 N 0.3629 0.51825 0.60683 0.0
H1293 H 0.42064 0.48158 0.60181 0.0
H1294 H 0.295 0.43964 0.61941 0.0
C1295 C 0.36024 0.38332 0.7018 0.0
O1296 O 0.32165 0.36981 0.69299 0.0
N1297 N 0.37608 0.3205 0.61101 0.0
C1298 C 0.35566 0.29215 0.58514 0.0
C1299 C 0.35238 0.2526 0.6048 0.0
C1300 C 0.38689 0.29613 0.64522 0.0
N1301 N 0.3737 0.2541 0.64179 0.0
C1302 C 0.35204 0.39224 0.51837 0.0
C1303 C 0.26689 0.3749 0.53178 0.0
C1304 C 0.28002 0.38818 0.49152 0.0
C1305 C 0.32327 0.39591 0.48438 0.0
C1306 C 0.29635 0.37111 0.56425 0.0
N1307 N 0.33796 0.38017 0.55752 0.0
H1308 H 0.38497 0.4005 0.51375 0.0
H1309 H 0.28592 0.36228 0.59578 0.0
H1310 H 0.34027 0.29982 0.55554 0.0
H1311 H 0.40196 0.30919 0.67343 0.0
O1312 O 0.43039 0.38967 0.58336 0.0
O1313 O 0.41899 0.38995 0.64969 0.0
O1314 O 0.38733 0.3889 0.67151 0.0
C1315 C 0.4469 0.39085 0.6203 0.0
H1316 H 0.29562 0.52476 0.61659 0.0
H1317 H 0.33136 0.22701 0.59425 0.0
H1318 H 0.23386 0.36836 0.53833 0.0
H1319 H 0.33431 0.4064 0.45352 0.0
Co1320 Co 0.12531 0.63602 0.62685 0.0
C1321 C 0.21788 0.65538 0.62719 0.0
C1322 C 0.19966 0.59897 0.59054 0.0
C1323 C 0.24284 0.60208 0.59089 0.0
N1324 N 0.18406 0.63209 0.61328 0.0
N1325 N 0.25427 0.63728 0.61408 0.0
H1326 H 0.21608 0.6833 0.64806 0.0
H1327 H 0.18086 0.57335 0.57597 0.0
C1328 C 0.11315 0.63485 0.53477 0.0
O1329 O 0.10644 0.59287 0.53998 0.0
N1330 N 0.0659 0.6383 0.64021 0.0
C1331 C 0.04977 0.63309 0.67937 0.0
C1332 C 0.00675 0.6335 0.67671 0.0
C1333 C 0.03205 0.6427 0.61417 0.0
N1334 N 0.99551 0.6407 0.63615 0.0
C1335 C 0.14698 0.60397 0.71204 0.0
C1336 C 0.12497 0.51919 0.68876 0.0
C1337 C 0.13546 0.52776 0.73111 0.0
C1338 C 0.14741 0.57066 0.74266 0.0
C1339 C 0.12412 0.55324 0.65975 0.0
N1340 N 0.13371 0.59478 0.6718 0.0
H1341 H 0.15517 0.63706 0.72088 0.0
H1342 H 0.11425 0.54692 0.62737 0.0
H1343 H 0.06765 0.62816 0.70813 0.0
H1344 H 0.034 0.64746 0.58021 0.0
O1345 O 0.13423 0.69526 0.65761 0.0
O1346 O 0.11891 0.68941 0.5922 0.0
O1347 O 0.11615 0.66024 0.56742 0.0
C1348 C 0.12556 0.71551 0.62329 0.0
H1349 H 0.2642 0.58005 0.57532 0.0
H1350 H 0.98545 0.62597 0.70215 0.0
H1351 H 0.11524 0.48687 0.67855 0.0
H1352 H 0.15599 0.57845 0.77514 0.0
Co1353 Co 0.36064 0.39386 0.13677 0.0
C1354 C 0.26588 0.38312 0.13825 0.0
C1355 C 0.29041 0.43994 0.10638 0.0
C1356 C 0.24763 0.44342 0.10858 0.0
N1357 N 0.30205 0.40262 0.12501 0.0
N1358 N 0.23211 0.40802 0.1286 0.0
H1359 H 0.26446 0.35304 0.1561 0.0
H1360 H 0.31204 0.46402 0.09364 0.0
C1361 C 0.37076 0.39971 0.04194 0.0
O1362 O 0.37955 0.44124 0.04769 0.0
N1363 N 0.42039 0.3885 0.14783 0.0
C1364 C 0.43898 0.39375 0.18611 0.0
C1365 C 0.48165 0.39589 0.18091 0.0
C1366 C 0.45256 0.38641 0.11984 0.0
N1367 N 0.49039 0.38992 0.13971 0.0
C1368 C 0.34221 0.41519 0.22586 0.0
C1369 C 0.36581 0.50167 0.21395 0.0
C1370 C 0.35429 0.48799 0.25469 0.0
C1371 C 0.34231 0.4441 0.26068 0.0
C1372 C 0.36615 0.4719 0.18069 0.0
N1373 N 0.35511 0.42946 0.18693 0.0
H1374 H 0.33314 0.38145 0.23029 0.0
H1375 H 0.37601 0.48243 0.14948 0.0
H1376 H 0.42307 0.39819 0.2159 0.0
H1377 H 0.44856 0.38281 0.0859 0.0
O1378 O 0.35093 0.33247 0.16255 0.0
O1379 O 0.36387 0.34353 0.09749 0.0
O1380 O 0.36651 0.37398 0.07441 0.0
C1381 C 0.35842 0.31497 0.12666 0.0
H1382 H 0.22926 0.46954 0.09528 0.0
H1383 H 0.50407 0.4054 0.20484 0.0
H1384 H 0.37544 0.53509 0.20799 0.0
H1385 H 0.33296 0.43247 0.29171 0.0
Co1386 Co 0.62273 0.37467 0.12695 0.0
C1387 C 0.62075 0.27746 0.13962 0.0
C1388 C 0.58996 0.30188 0.08332 0.0
C1389 C 0.58826 0.25776 0.08221 0.0
N1390 N 0.61007 0.31444 0.11889 0.0
N1391 N 0.6079 0.24218 0.11704 0.0
H1392 H 0.6396 0.27639 0.16835 0.0
H1393 H 0.57931 0.32352 0.05859 0.0
C1394 C 0.52967 0.38702 0.12308 0.0
O1395 O 0.53495 0.38606 0.08178 0.0
N1396 N 0.63445 0.43578 0.13262 0.0
C1397 C 0.67329 0.45355 0.12899 0.0
C1398 C 0.66925 0.49641 0.11889 0.0
C1399 C 0.6073 0.4689 0.12686 0.0
N1400 N 0.62818 0.50658 0.11931 0.0
C1401 C 0.70918 0.35327 0.09991 0.0
C1402 C 0.69503 0.38999 0.02076 0.0
C1403 C 0.73537 0.37399 0.02992 0.0
C1404 C 0.74242 0.35541 0.07025 0.0
C1405 C 0.66318 0.38689 0.05067 0.0
N1406 N 0.67054 0.36958 0.08963 0.0
H1407 H 0.71455 0.33952 0.13103 0.0
H1408 H 0.63234 0.39981 0.04344 0.0
H1409 H 0.7025 0.43584 0.12886 0.0
H1410 H 0.57331 0.46534 0.12611 0.0
O1411 O 0.65182 0.36451 0.18461 0.0
O1412 O 0.58608 0.37629 0.17755 0.0
O1413 O 0.56203 0.38327 0.14842 0.0
C1414 C 0.61673 0.36944 0.20349 0.0
H1415 H 0.57445 0.23838 0.05682 0.0
H1416 H 0.69382 0.5166 0.10627 0.0
H1417 H 0.68803 0.40534 0.99064 0.0
H1418 H 0.77297 0.34235 0.07852 0.0
Co1419 Co 0.86159 0.64995 0.63302 0.0
C1420 C 0.85914 0.74746 0.64101 0.0
C1421 C 0.87883 0.72216 0.58047 0.0
C1422 C 0.87804 0.76636 0.57789 0.0
N1423 N 0.8672 0.71022 0.61967 0.0
N1424 N 0.86555 0.78238 0.6156 0.0
H1425 H 0.84836 0.74897 0.67351 0.0
H1426 H 0.88668 0.69987 0.55523 0.0
C1427 C 0.95522 0.64499 0.62188 0.0
O1428 O 0.94693 0.64616 0.58101 0.0
N1429 N 0.85628 0.58954 0.64417 0.0
C1430 C 0.82063 0.56944 0.65704 0.0
C1431 C 0.82473 0.52571 0.64995 0.0
C1432 C 0.88204 0.55828 0.63023 0.0
N1433 N 0.86321 0.51903 0.63309 0.0
C1434 C 0.77202 0.66389 0.60843 0.0
C1435 C 0.78466 0.62359 0.53066 0.0
C1436 C 0.74518 0.64179 0.5385 0.0
C1437 C 0.73859 0.66154 0.57838 0.0
C1438 C 0.81654 0.62635 0.56116 0.0
N1439 N 0.81035 0.64653 0.59905 0.0
H1440 H 0.76753 0.68027 0.63845 0.0
H1441 H 0.84724 0.61314 0.55418 0.0
H1442 H 0.79261 0.58578 0.66782 0.0
H1443 H 0.91206 0.56438 0.61501 0.0
O1444 O 0.83801 0.66107 0.69298 0.0
O1445 O 0.90347 0.65598 0.68003 0.0
O1446 O 0.92475 0.6482 0.64922 0.0
C1447 C 0.87526 0.66045 0.7087 0.0
H1448 H 0.88677 0.78538 0.55034 0.0
H1449 H 0.80087 0.50088 0.6558 0.0
H1450 H 0.79121 0.60805 0.50055 0.0
H1451 H 0.70862 0.67637 0.58552 0.0
Co1452 Co 0.62037 0.39807 0.61743 0.0
C1453 C 0.52422 0.39284 0.60513 0.0
C1454 C 0.54657 0.38629 0.66935 0.0
C1455 C 0.50359 0.38579 0.6698 0.0
N1456 N 0.56017 0.3906 0.62914 0.0
N1457 N 0.48906 0.39011 0.6298 0.0
H1458 H 0.52374 0.39749 0.57109 0.0
H1459 H 0.56662 0.38521 0.69719 0.0
C1460 C 0.63073 0.31645 0.67232 0.0
O1461 O 0.62802 0.30198 0.71147 0.0
N1462 N 0.68064 0.40672 0.60735 0.0
C1463 C 0.69565 0.44451 0.59154 0.0
C1464 C 0.73874 0.44402 0.59228 0.0
C1465 C 0.71557 0.38335 0.61774 0.0
N1466 N 0.75148 0.40549 0.60803 0.0
C1467 C 0.59334 0.48099 0.65169 0.0
C1468 C 0.6493 0.48174 0.71964 0.0
C1469 C 0.61889 0.51429 0.71721 0.0
C1470 C 0.59096 0.51414 0.68244 0.0
C1471 C 0.65031 0.44908 0.68868 0.0
N1472 N 0.62202 0.44834 0.65572 0.0
H1473 H 0.57117 0.48053 0.62545 0.0
H1474 H 0.67344 0.42371 0.69181 0.0
H1475 H 0.67636 0.47152 0.58166 0.0
H1476 H 0.71514 0.35304 0.63512 0.0
O1477 O 0.60968 0.42545 0.56093 0.0
O1478 O 0.61697 0.35586 0.57382 0.0
O1479 O 0.63301 0.35795 0.66695 0.0
C1480 C 0.61499 0.38621 0.546 0.0
H1481 H 0.48439 0.38222 0.69787 0.0
H1482 H 0.75936 0.47034 0.58196 0.0
H1483 H 0.67144 0.48091 0.74596 0.0
H1484 H 0.56706 0.53889 0.67952 0.0
Co1485 Co 0.35328 0.63939 0.86921 0.0
C1486 C 0.36768 0.73787 0.8574 0.0
C1487 C 0.37338 0.7121 0.92067 0.0
C1488 C 0.38214 0.75566 0.9221 0.0
N1489 N 0.36408 0.70052 0.8806 0.0
N1490 N 0.37825 0.7724 0.88273 0.0
H1491 H 0.36227 0.73983 0.82351 0.0
H1492 H 0.37432 0.68974 0.94716 0.0
C1493 C 0.44683 0.63324 0.88332 0.0
O1494 O 0.43961 0.62687 0.92389 0.0
N1495 N 0.34411 0.57766 0.86045 0.0
C1496 C 0.3081 0.56109 0.84416 0.0
C1497 C 0.3089 0.51684 0.84788 0.0
C1498 C 0.36725 0.54287 0.87312 0.0
N1499 N 0.34584 0.50504 0.86599 0.0
C1500 C 0.26929 0.67272 0.88575 0.0
C1501 C 0.25904 0.61996 0.95633 0.0
C1502 C 0.22902 0.65198 0.94797 0.0
C1503 C 0.23353 0.67789 0.91151 0.0
C1504 C 0.29429 0.61674 0.93079 0.0
N1505 N 0.29929 0.64308 0.8965 0.0
H1506 H 0.2741 0.69384 0.85871 0.0
H1507 H 0.31884 0.59416 0.93934 0.0
H1508 H 0.28226 0.58018 0.83196 0.0
H1509 H 0.39765 0.54531 0.88884 0.0
O1510 O 0.33295 0.6502 0.80779 0.0
O1511 O 0.39636 0.63695 0.82455 0.0
O1512 O 0.41604 0.6345 0.85621 0.0
C1513 C 0.36982 0.64205 0.79427 0.0
H1514 H 0.39175 0.77357 0.95018 0.0
H1515 H 0.28387 0.49476 0.83768 0.0
H1516 H 0.25669 0.59949 0.98426 0.0
H1517 H 0.21122 0.70338 0.90453 0.0
Co1518 Co 0.12676 0.39444 0.37003 0.0
C1519 C 0.126 0.29603 0.3648 0.0
C1520 C 0.11531 0.32213 0.42712 0.0
C1521 C 0.11737 0.27802 0.43028 0.0
N1522 N 0.12019 0.33389 0.38624 0.0
N1523 N 0.12441 0.2614 0.39147 0.0
H1524 H 0.13205 0.29386 0.3311 0.0
H1525 H 0.11221 0.34418 0.4536 0.0
C1526 C 0.0496 0.40826 0.42755 0.0
O1527 O 0.03806 0.4103 0.4675 0.0
N1528 N 0.13521 0.45535 0.35584 0.0
C1529 C 0.17217 0.46939 0.33967 0.0
C1530 C 0.17471 0.51359 0.34333 0.0
C1531 C 0.11499 0.49194 0.36861 0.0
N1532 N 0.13895 0.52802 0.36129 0.0
C1533 C 0.21027 0.37101 0.39541 0.0
C1534 C 0.21437 0.42388 0.46644 0.0
C1535 C 0.24748 0.39516 0.4585 0.0
C1536 C 0.24587 0.36936 0.42188 0.0
C1537 C 0.17966 0.42484 0.43902 0.0
N1538 N 0.17733 0.39752 0.40491 0.0
H1539 H 0.20832 0.34979 0.36806 0.0
H1540 H 0.15426 0.44688 0.44578 0.0
H1541 H 0.19714 0.44848 0.32886 0.0
H1542 H 0.08542 0.49201 0.38562 0.0
O1543 O 0.15169 0.37902 0.31456 0.0
O1544 O 0.08442 0.38798 0.32819 0.0
O1545 O 0.08945 0.41131 0.41965 0.0
C1546 C 0.11319 0.38235 0.3003 0.0
H1547 H 0.11339 0.25957 0.45916 0.0
H1548 H 0.20144 0.53372 0.334 0.0
H1549 H 0.21476 0.44443 0.49442 0.0
H1550 H 0.27075 0.34656 0.41503 0.0
Co1551 Co 0.38295 0.63783 0.38453 0.0
C1552 C 0.47801 0.62648 0.38788 0.0
C1553 C 0.45161 0.63694 0.32573 0.0
C1554 C 0.49403 0.63245 0.32178 0.0
N1555 N 0.44119 0.63402 0.36698 0.0
N1556 N 0.51088 0.62557 0.36046 0.0
H1557 H 0.48089 0.62278 0.42193 0.0
H1558 H 0.42973 0.64196 0.2998 0.0
C1559 C 0.37492 0.72265 0.33142 0.0
O1560 O 0.37642 0.73655 0.29198 0.0
N1561 N 0.32381 0.63939 0.39947 0.0
C1562 C 0.30367 0.60429 0.41587 0.0
C1563 C 0.26148 0.60636 0.40608 0.0
C1564 C 0.29306 0.66292 0.38064 0.0
N1565 N 0.25504 0.64319 0.38395 0.0
C1566 C 0.38758 0.54919 0.3544 0.0
C1567 C 0.33539 0.5604 0.28463 0.0
C1568 C 0.35553 0.52038 0.28984 0.0
C1569 C 0.38104 0.51446 0.32591 0.0
C1570 C 0.3425 0.59395 0.3138 0.0
N1571 N 0.3693 0.58862 0.34747 0.0
H1572 H 0.40857 0.54504 0.38125 0.0
H1573 H 0.32708 0.6246 0.30851 0.0
H1574 H 0.31916 0.57656 0.42986 0.0
H1575 H 0.29858 0.69129 0.36112 0.0
O1576 O 0.39423 0.60822 0.43903 0.0
O1577 O 0.39845 0.67888 0.42725 0.0
O1578 O 0.37355 0.68104 0.33682 0.0
C1579 C 0.39935 0.64749 0.4543 0.0
H1580 H 0.5112 0.63576 0.29255 0.0
H1581 H 0.23762 0.58201 0.41356 0.0
H1582 H 0.31527 0.56619 0.25733 0.0
H1583 H 0.39747 0.48414 0.33083 0.0
loop_
_geom_bond_atom_site_label_1
_geom_bond_atom_site_label_2
_geom_bond_distance
_geom_bond_site_symmetry_2
_ccdc_geom_bond_type
Co0 N4 2.148 . S
Co0 N10 2.128 . S
Co0 N20 2.194 . S
Co0 O25 2.351 . S
Co0 O26 2.155 . S
Co0 O27 2.096 . S
C1 N4 1.301 . S
C1 N5 1.328 . S
C1 H6 0.930 . S
C2 C3 1.333 . S
C2 N4 1.317 . S
C2 H7 0.930 . S
C3 C2 1.333 . S
C3 N5 1.350 . S
C3 H29 0.931 . S
N4 Co0 2.148 . S
N4 C1 1.301 . S
N4 C2 1.317 . S
N5 C1 1.328 . S
N5 C3 1.350 . S
H6 C1 0.930 . S
H7 C2 0.930 . S
C8 O9 1.224 . S
C8 O27 1.247 . S
O9 C8 1.224 . S
N10 Co0 2.128 . S
N10 C11 1.355 . S
N10 C13 1.311 . S
C11 N10 1.355 . S
C11 C12 1.363 1_554 S
C11 H23 0.929 . S
C12 C11 1.363 1_556 S
C12 N14 1.375 . S
C12 H30 0.931 . S
C13 N10 1.311 . S
C13 N14 1.347 1_554 S
C13 H24 0.929 . S
N14 C12 1.375 . S
N14 C13 1.347 1_556 S
C15 C18 1.365 . S
C15 N20 1.328 . S
C15 H21 0.929 . S
C16 C17 1.362 . S
C16 C19 1.378 . S
C16 H31 0.929 1_455 S
C17 C16 1.362 . S
C17 C18 1.366 . S
C18 C15 1.365 . S
C18 C17 1.366 . S
C18 H32 0.930 . S
C19 C16 1.378 . S
C19 N20 1.315 . S
C19 H22 0.930 . S
N20 Co0 2.194 . S
N20 C15 1.328 . S
N20 C19 1.315 . S
H21 C15 0.929 . S
H22 C19 0.930 . S
H23 C11 0.929 . S
H24 C13 0.929 . S
O25 Co0 2.351 . S
O25 C28 1.244 . S
O26 Co0 2.155 . S
O26 C28 1.240 . S
O27 Co0 2.096 . S
O27 C8 1.247 . S
C28 O25 1.244 . S
C28 O26 1.240 . S
H29 C3 0.931 . S
H30 C12 0.931 . S
H31 C16 0.929 1_655 S
H32 C18 0.930 . S
Co33 N37 2.148 . S
Co33 N43 2.128 . S
Co33 N53 2.194 . S
Co33 O58 2.351 . S
Co33 O59 2.155 . S
Co33 O60 2.096 . S
C34 N37 1.301 . S
C34 N38 1.328 . S
C34 H39 0.930 . S
C35 C36 1.333 . S
C35 N37 1.317 . S
C35 H40 0.930 . S
C36 C35 1.333 . S
C36 N38 1.350 . S
C36 H62 0.931 . S
N37 Co33 2.148 . S
N37 C34 1.301 . S
N37 C35 1.317 . S
N38 C34 1.328 . S
N38 C36 1.350 . S
H39 C34 0.930 . S
H40 C35 0.930 . S
C41 O42 1.224 . S
C41 O60 1.247 . S
O42 C41 1.224 . S
N43 Co33 2.128 . S
N43 C44 1.355 . S
N43 C46 1.311 . S
C44 N43 1.355 . S
C44 C45 1.363 . S
C44 H56 0.929 . S
C45 C44 1.363 . S
C45 N47 1.375 . S
C45 H63 0.931 . S
C46 N43 1.311 . S
C46 N47 1.347 . S
C46 H57 0.929 . S
N47 C45 1.375 . S
N47 C46 1.347 . S
C48 C51 1.365 . S
C48 N53 1.328 . S
C48 H54 0.929 . S
C49 C50 1.362 . S
C49 C52 1.378 . S
C49 H64 0.929 . S
C50 C49 1.362 . S
C50 C51 1.366 . S
C51 C48 1.365 . S
C51 C50 1.366 . S
C51 H65 0.930 1_655 S
C52 C49 1.378 . S
C52 N53 1.315 . S
C52 H55 0.930 . S
N53 Co33 2.194 . S
N53 C48 1.328 . S
N53 C52 1.315 . S
H54 C48 0.929 . S
H55 C52 0.930 . S
H56 C44 0.929 . S
H57 C46 0.929 . S
O58 Co33 2.351 . S
O58 C61 1.244 . S
O59 Co33 2.155 . S
O59 C61 1.240 . S
O60 Co33 2.096 . S
O60 C41 1.247 . S
C61 O58 1.244 . S
C61 O59 1.240 . S
H62 C36 0.931 . S
H63 C45 0.931 . S
H64 C49 0.929 . S
H65 C51 0.930 1_455 S
Co66 N70 2.148 . S
Co66 N76 2.128 . S
Co66 N86 2.194 . S
Co66 O91 2.351 . S
Co66 O92 2.155 . S
Co66 O93 2.096 . S
C67 N70 1.301 . S
C67 N71 1.328 . S
C67 H72 0.930 . S
C68 C69 1.333 . S
C68 N70 1.317 . S
C68 H73 0.930 . S
C69 C68 1.333 . S
C69 N71 1.350 . S
C69 H95 0.931 . S
N70 Co66 2.148 . S
N70 C67 1.301 . S
N70 C68 1.317 . S
N71 C67 1.328 . S
N71 C69 1.350 . S
H72 C67 0.930 . S
H73 C68 0.930 . S
C74 O75 1.224 . S
C74 O93 1.247 . S
O75 C74 1.224 . S
N76 Co66 2.128 . S
N76 C77 1.355 . S
N76 C79 1.311 . S
C77 N76 1.355 . S
C77 C78 1.363 . S
C77 H89 0.929 . S
C78 C77 1.363 . S
C78 N80 1.375 . S
C78 H96 0.931 . S
C79 N76 1.311 . S
C79 N80 1.347 . S
C79 H90 0.929 . S
N80 C78 1.375 . S
N80 C79 1.347 . S
C81 C84 1.365 . S
C81 N86 1.328 . S
C81 H87 0.929 . S
C82 C83 1.362 . S
C82 C85 1.378 . S
C82 H97 0.929 . S
C83 C82 1.362 . S
C83 C84 1.366 . S
C84 C81 1.365 . S
C84 C83 1.366 . S
C84 H98 0.930 . S
C85 C82 1.378 . S
C85 N86 1.315 . S
C85 H88 0.930 . S
N86 Co66 2.194 . S
N86 C81 1.328 . S
N86 C85 1.315 . S
H87 C81 0.929 . S
H88 C85 0.930 . S
H89 C77 0.929 . S
H90 C79 0.929 . S
O91 Co66 2.351 . S
O91 C94 1.244 . S
O92 Co66 2.155 . S
O92 C94 1.240 . S
O93 Co66 2.096 . S
O93 C74 1.247 . S
C94 O91 1.244 . S
C94 O92 1.240 . S
H95 C69 0.931 . S
H96 C78 0.931 . S
H97 C82 0.929 . S
H98 C84 0.930 . S
Co99 N103 2.148 . S
Co99 N109 2.128 . S
Co99 N119 2.194 . S
Co99 O124 2.351 . S
Co99 O125 2.155 . S
Co99 O126 2.096 . S
C100 N103 1.301 . S
C100 N104 1.328 1_556 S
C100 H105 0.930 . S
C101 C102 1.333 1_556 S
C101 N103 1.317 . S
C101 H106 0.930 . S
C102 C101 1.333 1_554 S
C102 N104 1.350 . S
C102 H128 0.931 . S
N103 Co99 2.148 . S
N103 C100 1.301 . S
N103 C101 1.317 . S
N104 C100 1.328 1_554 S
N104 C102 1.350 . S
H105 C100 0.930 . S
H106 C101 0.930 . S
C107 O108 1.224 . S
C107 O126 1.247 . S
O108 C107 1.224 . S
N109 Co99 2.128 . S
N109 C110 1.355 . S
N109 C112 1.311 . S
C110 N109 1.355 . S
C110 C111 1.363 . S
C110 H122 0.929 . S
C111 C110 1.363 . S
C111 N113 1.375 . S
C111 H129 0.931 . S
C112 N109 1.311 . S
C112 N113 1.347 . S
C112 H123 0.929 . S
N113 C111 1.375 . S
N113 C112 1.347 . S
C114 C117 1.365 . S
C114 N119 1.328 . S
C114 H120 0.929 . S
C115 C116 1.362 . S
C115 C118 1.378 . S
C115 H130 0.929 . S
C116 C115 1.362 . S
C116 C117 1.366 . S
C117 C114 1.365 . S
C117 C116 1.366 . S
C117 H131 0.930 . S
C118 C115 1.378 . S
C118 N119 1.315 . S
C118 H121 0.930 . S
N119 Co99 2.194 . S
N119 C114 1.328 . S
N119 C118 1.315 . S
H120 C114 0.929 . S
H121 C118 0.930 . S
H122 C110 0.929 . S
H123 C112 0.929 . S
O124 Co99 2.351 . S
O124 C127 1.244 . S
O125 Co99 2.155 . S
O125 C127 1.240 . S
O126 Co99 2.096 . S
O126 C107 1.247 . S
C127 O124 1.244 . S
C127 O125 1.240 . S
H128 C102 0.931 . S
H129 C111 0.931 . S
H130 C115 0.929 . S
H131 C117 0.930 . S
Co132 N136 2.148 . S
Co132 N142 2.128 . S
Co132 N152 2.194 . S
Co132 O157 2.351 . S
Co132 O158 2.155 . S
Co132 O159 2.096 . S
C133 N136 1.301 . S
C133 N137 1.328 . S
C133 H138 0.930 . S
C134 C135 1.333 . S
C134 N136 1.317 . S
C134 H139 0.930 . S
C135 C134 1.333 . S
C135 N137 1.350 . S
C135 H161 0.931 . S
N136 Co132 2.148 . S
N136 C133 1.301 . S
N136 C134 1.317 . S
N137 C133 1.328 . S
N137 C135 1.350 . S
H138 C133 0.930 . S
H139 C134 0.930 . S
C140 O141 1.224 . S
C140 O159 1.247 . S
O141 C140 1.224 . S
N142 Co132 2.128 . S
N142 C143 1.355 . S
N142 C145 1.311 . S
C143 N142 1.355 . S
C143 C144 1.363 . S
C143 H155 0.929 . S
C144 C143 1.363 . S
C144 N146 1.375 . S
C144 H162 0.931 . S
C145 N142 1.311 . S
C145 N146 1.347 . S
C145 H156 0.929 . S
N146 C144 1.375 . S
N146 C145 1.347 . S
C147 C150 1.365 . S
C147 N152 1.328 . S
C147 H153 0.929 . S
C148 C149 1.362 . S
C148 C151 1.378 . S
C148 H163 0.929 . S
C149 C148 1.362 . S
C149 C150 1.366 . S
C150 C147 1.365 . S
C150 C149 1.366 . S
C150 H164 0.930 1_455 S
C151 C148 1.378 . S
C151 N152 1.315 . S
C151 H154 0.930 . S
N152 Co132 2.194 . S
N152 C147 1.328 . S
N152 C151 1.315 . S
H153 C147 0.929 . S
H154 C151 0.930 . S
H155 C143 0.929 . S
H156 C145 0.929 . S
O157 Co132 2.351 . S
O157 C160 1.244 . S
O158 Co132 2.155 . S
O158 C160 1.240 . S
O159 Co132 2.096 . S
O159 C140 1.247 . S
C160 O157 1.244 . S
C160 O158 1.240 . S
H161 C135 0.931 . S
H162 C144 0.931 . S
H163 C148 0.929 . S
H164 C150 0.930 1_655 S
Co165 N169 2.148 . S
Co165 N175 2.128 . S
Co165 N185 2.194 . S
Co165 O190 2.351 . S
Co165 O191 2.155 . S
Co165 O192 2.096 . S
C166 N169 1.301 . S
C166 N170 1.328 . S
C166 H171 0.930 . S
C167 C168 1.333 . S
C167 N169 1.317 . S
C167 H172 0.930 . S
C168 C167 1.333 . S
C168 N170 1.350 . S
C168 H194 0.931 . S
N169 Co165 2.148 . S
N169 C166 1.301 . S
N169 C167 1.317 . S
N170 C166 1.328 . S
N170 C168 1.350 . S
H171 C166 0.930 . S
H172 C167 0.930 . S
C173 O174 1.224 . S
C173 O192 1.247 . S
O174 C173 1.224 . S
N175 Co165 2.128 . S
N175 C176 1.355 . S
N175 C178 1.311 . S
C176 N175 1.355 . S
C176 C177 1.363 . S
C176 H188 0.929 . S
C177 C176 1.363 . S
C177 N179 1.375 . S
C177 H195 0.931 . S
C178 N175 1.311 . S
C178 N179 1.347 . S
C178 H189 0.929 . S
N179 C177 1.375 . S
N179 C178 1.347 . S
C180 C183 1.365 . S
C180 N185 1.328 . S
C180 H186 0.929 . S
C181 C182 1.362 . S
C181 C184 1.378 . S
C181 H196 0.929 . S
C182 C181 1.362 . S
C182 C183 1.366 . S
C183 C180 1.365 . S
C183 C182 1.366 . S
C183 H197 0.930 . S
C184 C181 1.378 . S
C184 N185 1.315 . S
C184 H187 0.930 . S
N185 Co165 2.194 . S
N185 C180 1.328 . S
N185 C184 1.315 . S
H186 C180 0.929 . S
H187 C184 0.930 . S
H188 C176 0.929 . S
H189 C178 0.929 . S
O190 Co165 2.351 . S
O190 C193 1.244 . S
O191 Co165 2.155 . S
O191 C193 1.240 . S
O192 Co165 2.096 . S
O192 C173 1.247 . S
C193 O190 1.244 . S
C193 O191 1.240 . S
H194 C168 0.931 . S
H195 C177 0.931 . S
H196 C181 0.929 . S
H197 C183 0.930 . S
Co198 N202 2.148 . S
Co198 N208 2.128 . S
Co198 N218 2.194 . S
Co198 O223 2.351 . S
Co198 O224 2.155 . S
Co198 O225 2.096 . S
C199 N202 1.301 . S
C199 N203 1.328 1_556 S
C199 H204 0.930 . S
C200 C201 1.333 1_556 S
C200 N202 1.317 . S
C200 H205 0.930 . S
C201 C200 1.333 1_554 S
C201 N203 1.350 . S
C201 H227 0.931 . S
N202 Co198 2.148 . S
N202 C199 1.301 . S
N202 C200 1.317 . S
N203 C199 1.328 1_554 S
N203 C201 1.350 . S
H204 C199 0.930 . S
H205 C200 0.930 . S
C206 O207 1.224 . S
C206 O225 1.247 . S
O207 C206 1.224 . S
N208 Co198 2.128 . S
N208 C209 1.355 . S
N208 C211 1.311 . S
C209 N208 1.355 . S
C209 C210 1.363 . S
C209 H221 0.929 . S
C210 C209 1.363 . S
C210 N212 1.375 . S
C210 H228 0.931 . S
C211 N208 1.311 . S
C211 N212 1.347 . S
C211 H222 0.929 . S
N212 C210 1.375 . S
N212 C211 1.347 . S
C213 C216 1.365 . S
C213 N218 1.328 . S
C213 H219 0.929 . S
C214 C215 1.362 . S
C214 C217 1.378 . S
C214 H229 0.929 . S
C215 C214 1.362 . S
C215 C216 1.366 . S
C216 C213 1.365 . S
C216 C215 1.366 . S
C216 H230 0.930 . S
C217 C214 1.378 . S
C217 N218 1.315 . S
C217 H220 0.930 . S
N218 Co198 2.194 . S
N218 C213 1.328 . S
N218 C217 1.315 . S
H219 C213 0.929 . S
H220 C217 0.930 . S
H221 C209 0.929 . S
H222 C211 0.929 . S
O223 Co198 2.351 . S
O223 C226 1.244 . S
O224 Co198 2.155 . S
O224 C226 1.240 . S
O225 Co198 2.096 . S
O225 C206 1.247 . S
C226 O223 1.244 . S
C226 O224 1.240 . S
H227 C201 0.931 . S
H228 C210 0.931 . S
H229 C214 0.929 . S
H230 C216 0.930 . S
Co231 N235 2.148 . S
Co231 N241 2.128 . S
Co231 N251 2.194 . S
Co231 O256 2.351 . S
Co231 O257 2.155 . S
Co231 O258 2.096 . S
C232 N235 1.301 . S
C232 N236 1.328 1_554 S
C232 H237 0.930 . S
C233 C234 1.333 1_554 S
C233 N235 1.317 . S
C233 H238 0.930 . S
C234 C233 1.333 1_556 S
C234 N236 1.350 . S
C234 H260 0.931 . S
N235 Co231 2.148 . S
N235 C232 1.301 . S
N235 C233 1.317 . S
N236 C232 1.328 1_556 S
N236 C234 1.350 . S
H237 C232 0.930 . S
H238 C233 0.930 . S
C239 O240 1.224 . S
C239 O258 1.247 . S
O240 C239 1.224 . S
N241 Co231 2.128 . S
N241 C242 1.355 . S
N241 C244 1.311 . S
C242 N241 1.355 . S
C242 C243 1.363 . S
C242 H254 0.929 . S
C243 C242 1.363 . S
C243 N245 1.375 . S
C243 H261 0.931 . S
C244 N241 1.311 . S
C244 N245 1.347 . S
C244 H255 0.929 . S
N245 C243 1.375 . S
N245 C244 1.347 . S
C246 C249 1.365 . S
C246 N251 1.328 . S
C246 H252 0.929 . S
C247 C248 1.362 . S
C247 C250 1.378 . S
C247 H262 0.929 . S
C248 C247 1.362 . S
C248 C249 1.366 . S
C249 C246 1.365 . S
C249 C248 1.366 . S
C249 H263 0.930 1_655 S
C250 C247 1.378 . S
C250 N251 1.315 . S
C250 H253 0.930 . S
N251 Co231 2.194 . S
N251 C246 1.328 . S
N251 C250 1.315 . S
H252 C246 0.929 . S
H253 C250 0.930 . S
H254 C242 0.929 . S
H255 C244 0.929 . S
O256 Co231 2.351 . S
O256 C259 1.244 . S
O257 Co231 2.155 . S
O257 C259 1.240 . S
O258 Co231 2.096 . S
O258 C239 1.247 . S
C259 O256 1.244 . S
C259 O257 1.240 . S
H260 C234 0.931 . S
H261 C243 0.931 . S
H262 C247 0.929 . S
H263 C249 0.930 1_455 S
Co264 N268 2.148 . S
Co264 N274 2.128 . S
Co264 N284 2.194 . S
Co264 O289 2.351 . S
Co264 O290 2.155 . S
Co264 O291 2.096 . S
C265 N268 1.301 . S
C265 N269 1.328 . S
C265 H270 0.930 . S
C266 C267 1.333 . S
C266 N268 1.317 . S
C266 H271 0.930 . S
C267 C266 1.333 . S
C267 N269 1.350 . S
C267 H293 0.931 . S
N268 Co264 2.148 . S
N268 C265 1.301 . S
N268 C266 1.317 . S
N269 C265 1.328 . S
N269 C267 1.350 . S
H270 C265 0.930 . S
H271 C266 0.930 . S
C272 O273 1.224 . S
C272 O291 1.247 . S
O273 C272 1.224 . S
N274 Co264 2.128 . S
N274 C275 1.355 . S
N274 C277 1.311 . S
C275 N274 1.355 . S
C275 C276 1.363 1_455 S
C275 H287 0.929 . S
C276 C275 1.363 1_655 S
C276 N278 1.375 . S
C276 H294 0.931 . S
C277 N274 1.311 . S
C277 N278 1.347 1_455 S
C277 H288 0.929 . S
N278 C276 1.375 . S
N278 C277 1.347 1_655 S
C279 C282 1.365 . S
C279 N284 1.328 . S
C279 H285 0.929 . S
C280 C281 1.362 . S
C280 C283 1.378 . S
C280 H295 0.929 1_545 S
C281 C280 1.362 . S
C281 C282 1.366 . S
C282 C279 1.365 . S
C282 C281 1.366 . S
C282 H296 0.930 . S
C283 C280 1.378 . S
C283 N284 1.315 . S
C283 H286 0.930 . S
N284 Co264 2.194 . S
N284 C279 1.328 . S
N284 C283 1.315 . S
H285 C279 0.929 . S
H286 C283 0.930 . S
H287 C275 0.929 . S
H288 C277 0.929 . S
O289 Co264 2.351 . S
O289 C292 1.244 . S
O290 Co264 2.155 . S
O290 C292 1.240 . S
O291 Co264 2.096 . S
O291 C272 1.247 . S
C292 O289 1.244 . S
C292 O290 1.240 . S
H293 C267 0.931 . S
H294 C276 0.931 . S
H295 C280 0.929 1_565 S
H296 C282 0.930 . S
Co297 N301 2.148 . S
Co297 N307 2.128 . S
Co297 N317 2.194 . S
Co297 O322 2.351 . S
Co297 O323 2.155 . S
Co297 O324 2.096 . S
C298 N301 1.301 . S
C298 N302 1.328 . S
C298 H303 0.930 . S
C299 C300 1.333 . S
C299 N301 1.317 . S
C299 H304 0.930 . S
C300 C299 1.333 . S
C300 N302 1.350 . S
C300 H326 0.931 . S
N301 Co297 2.148 . S
N301 C298 1.301 . S
N301 C299 1.317 . S
N302 C298 1.328 . S
N302 C300 1.350 . S
H303 C298 0.930 . S
H304 C299 0.930 . S
C305 O306 1.224 . S
C305 O324 1.247 . S
O306 C305 1.224 . S
N307 Co297 2.128 . S
N307 C308 1.355 . S
N307 C310 1.311 . S
C308 N307 1.355 . S
C308 C309 1.363 1_565 S
C308 H320 0.929 . S
C309 C308 1.363 1_545 S
C309 N311 1.375 . S
C309 H327 0.931 . S
C310 N307 1.311 . S
C310 N311 1.347 1_565 S
C310 H321 0.929 . S
N311 C309 1.375 . S
N311 C310 1.347 1_545 S
C312 C315 1.365 . S
C312 N317 1.328 . S
C312 H318 0.929 . S
C313 C314 1.362 . S
C313 C316 1.378 . S
C313 H328 0.929 . S
C314 C313 1.362 . S
C314 C315 1.366 . S
C315 C312 1.365 . S
C315 C314 1.366 . S
C315 H329 0.930 . S
C316 C313 1.378 . S
C316 N317 1.315 . S
C316 H319 0.930 . S
N317 Co297 2.194 . S
N317 C312 1.328 . S
N317 C316 1.315 . S
H318 C312 0.929 . S
H319 C316 0.930 . S
H320 C308 0.929 . S
H321 C310 0.929 . S
O322 Co297 2.351 . S
O322 C325 1.244 . S
O323 Co297 2.155 . S
O323 C325 1.240 . S
O324 Co297 2.096 . S
O324 C305 1.247 . S
C325 O322 1.244 . S
C325 O323 1.240 . S
H326 C300 0.931 . S
H327 C309 0.931 . S
H328 C313 0.929 . S
H329 C315 0.930 . S
Co330 N334 2.148 . S
Co330 N340 2.128 . S
Co330 N350 2.194 . S
Co330 O355 2.351 . S
Co330 O356 2.155 . S
Co330 O357 2.096 . S
C331 N334 1.301 . S
C331 N335 1.328 . S
C331 H336 0.930 . S
C332 C333 1.333 . S
C332 N334 1.317 . S
C332 H337 0.930 . S
C333 C332 1.333 . S
C333 N335 1.350 . S
C333 H359 0.931 . S
N334 Co330 2.148 . S
N334 C331 1.301 . S
N334 C332 1.317 . S
N335 C331 1.328 . S
N335 C333 1.350 . S
H336 C331 0.930 . S
H337 C332 0.930 . S
C338 O339 1.224 . S
C338 O357 1.247 . S
O339 C338 1.224 . S
N340 Co330 2.128 . S
N340 C341 1.355 . S
N340 C343 1.311 . S
C341 N340 1.355 . S
C341 C342 1.363 . S
C341 H353 0.929 . S
C342 C341 1.363 . S
C342 N344 1.375 . S
C342 H360 0.931 . S
C343 N340 1.311 . S
C343 N344 1.347 . S
C343 H354 0.929 . S
N344 C342 1.375 . S
N344 C343 1.347 . S
C345 C348 1.365 . S
C345 N350 1.328 . S
C345 H351 0.929 . S
C346 C347 1.362 . S
C346 C349 1.378 . S
C346 H361 0.929 1_565 S
C347 C346 1.362 . S
C347 C348 1.366 . S
C348 C345 1.365 . S
C348 C347 1.366 . S
C348 H362 0.930 . S
C349 C346 1.378 . S
C349 N350 1.315 . S
C349 H352 0.930 . S
N350 Co330 2.194 . S
N350 C345 1.328 . S
N350 C349 1.315 . S
H351 C345 0.929 . S
H352 C349 0.930 . S
H353 C341 0.929 . S
H354 C343 0.929 . S
O355 Co330 2.351 . S
O355 C358 1.244 . S
O356 Co330 2.155 . S
O356 C358 1.240 . S
O357 Co330 2.096 . S
O357 C338 1.247 . S
C358 O355 1.244 . S
C358 O356 1.240 . S
H359 C333 0.931 . S
H360 C342 0.931 . S
H361 C346 0.929 1_545 S
H362 C348 0.930 . S
Co363 N367 2.148 . S
Co363 N373 2.128 . S
Co363 N383 2.194 . S
Co363 O388 2.351 . S
Co363 O389 2.155 . S
Co363 O390 2.096 . S
C364 N367 1.301 . S
C364 N368 1.328 . S
C364 H369 0.930 . S
C365 C366 1.333 . S
C365 N367 1.317 . S
C365 H370 0.930 . S
C366 C365 1.333 . S
C366 N368 1.350 . S
C366 H392 0.931 . S
N367 Co363 2.148 . S
N367 C364 1.301 . S
N367 C365 1.317 . S
N368 C364 1.328 . S
N368 C366 1.350 . S
H369 C364 0.930 . S
H370 C365 0.930 . S
C371 O372 1.224 . S
C371 O390 1.247 . S
O372 C371 1.224 . S
N373 Co363 2.128 . S
N373 C374 1.355 . S
N373 C376 1.311 . S
C374 N373 1.355 . S
C374 C375 1.363 1_545 S
C374 H386 0.929 . S
C375 C374 1.363 1_565 S
C375 N377 1.375 . S
C375 H393 0.931 . S
C376 N373 1.311 . S
C376 N377 1.347 1_545 S
C376 H387 0.929 . S
N377 C375 1.375 . S
N377 C376 1.347 1_565 S
C378 C381 1.365 . S
C378 N383 1.328 . S
C378 H384 0.929 . S
C379 C380 1.362 . S
C379 C382 1.378 . S
C379 H394 0.929 1_554 S
C380 C379 1.362 . S
C380 C381 1.366 . S
C381 C378 1.365 . S
C381 C380 1.366 . S
C381 H395 0.930 . S
C382 C379 1.378 . S
C382 N383 1.315 . S
C382 H385 0.930 . S
N383 Co363 2.194 . S
N383 C378 1.328 . S
N383 C382 1.315 . S
H384 C378 0.929 . S
H385 C382 0.930 . S
H386 C374 0.929 . S
H387 C376 0.929 . S
O388 Co363 2.351 . S
O388 C391 1.244 . S
O389 Co363 2.155 . S
O389 C391 1.240 . S
O390 Co363 2.096 . S
O390 C371 1.247 . S
C391 O388 1.244 . S
C391 O389 1.240 . S
H392 C366 0.931 . S
H393 C375 0.931 . S
H394 C379 0.929 1_556 S
H395 C381 0.930 . S
Co396 N400 2.148 . S
Co396 N406 2.128 . S
Co396 N416 2.194 . S
Co396 O421 2.351 . S
Co396 O422 2.155 . S
Co396 O423 2.096 . S
C397 N400 1.301 . S
C397 N401 1.328 1_455 S
C397 H402 0.930 . S
C398 C399 1.333 1_455 S
C398 N400 1.317 . S
C398 H403 0.930 . S
C399 C398 1.333 1_655 S
C399 N401 1.350 . S
C399 H425 0.931 . S
N400 Co396 2.148 . S
N400 C397 1.301 . S
N400 C398 1.317 . S
N401 C397 1.328 1_655 S
N401 C399 1.350 . S
H402 C397 0.930 . S
H403 C398 0.930 . S
C404 O405 1.224 . S
C404 O423 1.247 . S
O405 C404 1.224 . S
N406 Co396 2.128 . S
N406 C407 1.355 . S
N406 C409 1.311 . S
C407 N406 1.355 . S
C407 C408 1.363 . S
C407 H419 0.929 . S
C408 C407 1.363 . S
C408 N410 1.375 . S
C408 H426 0.931 . S
C409 N406 1.311 . S
C409 N410 1.347 . S
C409 H420 0.929 . S
N410 C408 1.375 . S
N410 C409 1.347 . S
C411 C414 1.365 . S
C411 N416 1.328 . S
C411 H417 0.929 . S
C412 C413 1.362 . S
C412 C415 1.378 . S
C412 H427 0.929 . S
C413 C412 1.362 . S
C413 C414 1.366 . S
C414 C411 1.365 . S
C414 C413 1.366 . S
C414 H428 0.930 1_565 S
C415 C412 1.378 . S
C415 N416 1.315 . S
C415 H418 0.930 . S
N416 Co396 2.194 . S
N416 C411 1.328 . S
N416 C415 1.315 . S
H417 C411 0.929 . S
H418 C415 0.930 . S
H419 C407 0.929 . S
H420 C409 0.929 . S
O421 Co396 2.351 . S
O421 C424 1.244 . S
O422 Co396 2.155 . S
O422 C424 1.240 . S
O423 Co396 2.096 . S
O423 C404 1.247 . S
C424 O421 1.244 . S
C424 O422 1.240 . S
H425 C399 0.931 . S
H426 C408 0.931 . S
H427 C412 0.929 . S
H428 C414 0.930 1_545 S
Co429 N433 2.148 . S
Co429 N439 2.128 . S
Co429 N449 2.194 . S
Co429 O454 2.351 . S
Co429 O455 2.155 . S
Co429 O456 2.096 . S
C430 N433 1.301 . S
C430 N434 1.328 1_565 S
C430 H435 0.930 . S
C431 C432 1.333 1_565 S
C431 N433 1.317 . S
C431 H436 0.930 . S
C432 C431 1.333 1_545 S
C432 N434 1.350 . S
C432 H458 0.931 . S
N433 Co429 2.148 . S
N433 C430 1.301 . S
N433 C431 1.317 . S
N434 C430 1.328 1_545 S
N434 C432 1.350 . S
H435 C430 0.930 . S
H436 C431 0.930 . S
C437 O438 1.224 . S
C437 O456 1.247 . S
O438 C437 1.224 . S
N439 Co429 2.128 . S
N439 C440 1.355 . S
N439 C442 1.311 . S
C440 N439 1.355 . S
C440 C441 1.363 . S
C440 H452 0.929 . S
C441 C440 1.363 . S
C441 N443 1.375 . S
C441 H459 0.931 . S
C442 N439 1.311 . S
C442 N443 1.347 . S
C442 H453 0.929 . S
N443 C441 1.375 . S
N443 C442 1.347 . S
C444 C447 1.365 . S
C444 N449 1.328 . S
C444 H450 0.929 . S
C445 C446 1.362 . S
C445 C448 1.378 . S
C445 H460 0.929 . S
C446 C445 1.362 . S
C446 C447 1.366 . S
C447 C444 1.365 . S
C447 C446 1.366 . S
C447 H461 0.930 . S
C448 C445 1.378 . S
C448 N449 1.315 . S
C448 H451 0.930 . S
N449 Co429 2.194 . S
N449 C444 1.328 . S
N449 C448 1.315 . S
H450 C444 0.929 . S
H451 C448 0.930 . S
H452 C440 0.929 . S
H453 C442 0.929 . S
O454 Co429 2.351 . S
O454 C457 1.244 . S
O455 Co429 2.155 . S
O455 C457 1.240 . S
O456 Co429 2.096 . S
O456 C437 1.247 . S
C457 O454 1.244 . S
C457 O455 1.240 . S
H458 C432 0.931 . S
H459 C441 0.931 . S
H460 C445 0.929 . S
H461 C447 0.930 . S
Co462 N466 2.148 . S
Co462 N472 2.128 . S
Co462 N482 2.194 . S
Co462 O487 2.351 . S
Co462 O488 2.155 . S
Co462 O489 2.096 . S
C463 N466 1.301 . S
C463 N467 1.328 . S
C463 H468 0.930 . S
C464 C465 1.333 . S
C464 N466 1.317 . S
C464 H469 0.930 . S
C465 C464 1.333 . S
C465 N467 1.350 . S
C465 H491 0.931 . S
N466 Co462 2.148 . S
N466 C463 1.301 . S
N466 C464 1.317 . S
N467 C463 1.328 . S
N467 C465 1.350 . S
H468 C463 0.930 . S
H469 C464 0.930 . S
C470 O471 1.224 . S
C470 O489 1.247 . S
O471 C470 1.224 . S
N472 Co462 2.128 . S
N472 C473 1.355 . S
N472 C475 1.311 . S
C473 N472 1.355 . S
C473 C474 1.363 . S
C473 H485 0.929 . S
C474 C473 1.363 . S
C474 N476 1.375 . S
C474 H492 0.931 . S
C475 N472 1.311 . S
C475 N476 1.347 . S
C475 H486 0.929 . S
N476 C474 1.375 . S
N476 C475 1.347 . S
C477 C480 1.365 . S
C477 N482 1.328 . S
C477 H483 0.929 . S
C478 C479 1.362 . S
C478 C481 1.378 . S
C478 H493 0.929 . S
C479 C478 1.362 . S
C479 C480 1.366 . S
C480 C477 1.365 . S
C480 C479 1.366 . S
C480 H494 0.930 1_545 S
C481 C478 1.378 . S
C481 N482 1.315 . S
C481 H484 0.930 . S
N482 Co462 2.194 . S
N482 C477 1.328 . S
N482 C481 1.315 . S
H483 C477 0.929 . S
H484 C481 0.930 . S
H485 C473 0.929 . S
H486 C475 0.929 . S
O487 Co462 2.351 . S
O487 C490 1.244 . S
O488 Co462 2.155 . S
O488 C490 1.240 . S
O489 Co462 2.096 . S
O489 C470 1.247 . S
C490 O487 1.244 . S
C490 O488 1.240 . S
H491 C465 0.931 . S
H492 C474 0.931 . S
H493 C478 0.929 . S
H494 C480 0.930 1_565 S
Co495 N499 2.148 . S
Co495 N505 2.128 . S
Co495 N515 2.194 . S
Co495 O520 2.351 . S
Co495 O521 2.155 . S
Co495 O522 2.096 . S
C496 N499 1.301 . S
C496 N500 1.328 1_545 S
C496 H501 0.930 . S
C497 C498 1.333 1_545 S
C497 N499 1.317 . S
C497 H502 0.930 . S
C498 C497 1.333 1_565 S
C498 N500 1.350 . S
C498 H524 0.931 . S
N499 Co495 2.148 . S
N499 C496 1.301 . S
N499 C497 1.317 . S
N500 C496 1.328 1_565 S
N500 C498 1.350 . S
H501 C496 0.930 . S
H502 C497 0.930 . S
C503 O504 1.224 . S
C503 O522 1.247 . S
O504 C503 1.224 . S
N505 Co495 2.128 . S
N505 C506 1.355 . S
N505 C508 1.311 . S
C506 N505 1.355 . S
C506 C507 1.363 . S
C506 H518 0.929 . S
C507 C506 1.363 . S
C507 N509 1.375 . S
C507 H525 0.931 . S
C508 N505 1.311 . S
C508 N509 1.347 . S
C508 H519 0.929 . S
N509 C507 1.375 . S
N509 C508 1.347 . S
C510 C513 1.365 . S
C510 N515 1.328 . S
C510 H516 0.929 . S
C511 C512 1.362 . S
C511 C514 1.378 . S
C511 H526 0.929 . S
C512 C511 1.362 . S
C512 C513 1.366 . S
C513 C510 1.365 . S
C513 C512 1.366 . S
C513 H527 0.930 1_556 S
C514 C511 1.378 . S
C514 N515 1.315 . S
C514 H517 0.930 . S
N515 Co495 2.194 . S
N515 C510 1.328 . S
N515 C514 1.315 . S
H516 C510 0.929 . S
H517 C514 0.930 . S
H518 C506 0.929 . S
H519 C508 0.929 . S
O520 Co495 2.351 . S
O520 C523 1.244 . S
O521 Co495 2.155 . S
O521 C523 1.240 . S
O522 Co495 2.096 . S
O522 C503 1.247 . S
C523 O520 1.244 . S
C523 O521 1.240 . S
H524 C498 0.931 . S
H525 C507 0.931 . S
H526 C511 0.929 . S
H527 C513 0.930 1_554 S
Co528 N532 2.148 . S
Co528 N538 2.128 . S
Co528 N548 2.194 . S
Co528 O553 2.351 . S
Co528 O554 2.155 . S
Co528 O555 2.096 . S
C529 N532 1.301 . S
C529 N533 1.328 . S
C529 H534 0.930 . S
C530 C531 1.333 . S
C530 N532 1.317 . S
C530 H535 0.930 . S
C531 C530 1.333 . S
C531 N533 1.350 . S
C531 H557 0.931 . S
N532 Co528 2.148 . S
N532 C529 1.301 . S
N532 C530 1.317 . S
N533 C529 1.328 . S
N533 C531 1.350 . S
H534 C529 0.930 . S
H535 C530 0.930 . S
C536 O537 1.224 . S
C536 O555 1.247 . S
O537 C536 1.224 . S
N538 Co528 2.128 . S
N538 C539 1.355 . S
N538 C541 1.311 . S
C539 N538 1.355 . S
C539 C540 1.363 . S
C539 H551 0.929 . S
C540 C539 1.363 . S
C540 N542 1.375 . S
C540 H558 0.931 . S
C541 N538 1.311 . S
C541 N542 1.347 . S
C541 H552 0.929 . S
N542 C540 1.375 . S
N542 C541 1.347 . S
C543 C546 1.365 . S
C543 N548 1.328 . S
C543 H549 0.929 . S
C544 C545 1.362 . S
C544 C547 1.378 . S
C544 H559 0.929 . S
C545 C544 1.362 . S
C545 C546 1.366 . S
C546 C543 1.365 . S
C546 C545 1.366 . S
C546 H560 0.930 1_556 S
C547 C544 1.378 . S
C547 N548 1.315 . S
C547 H550 0.930 . S
N548 Co528 2.194 . S
N548 C543 1.328 . S
N548 C547 1.315 . S
H549 C543 0.929 . S
H550 C547 0.930 . S
H551 C539 0.929 . S
H552 C541 0.929 . S
O553 Co528 2.351 . S
O553 C556 1.244 . S
O554 Co528 2.155 . S
O554 C556 1.240 . S
O555 Co528 2.096 . S
O555 C536 1.247 . S
C556 O553 1.244 . S
C556 O554 1.240 . S
H557 C531 0.931 . S
H558 C540 0.931 . S
H559 C544 0.929 . S
H560 C546 0.930 1_554 S
Co561 N565 2.148 . S
Co561 N571 2.128 . S
Co561 N581 2.194 . S
Co561 O586 2.351 . S
Co561 O587 2.155 . S
Co561 O588 2.096 . S
C562 N565 1.301 . S
C562 N566 1.328 1_655 S
C562 H567 0.930 . S
C563 C564 1.333 1_655 S
C563 N565 1.317 . S
C563 H568 0.930 . S
C564 C563 1.333 1_455 S
C564 N566 1.350 . S
C564 H590 0.931 . S
N565 Co561 2.148 . S
N565 C562 1.301 . S
N565 C563 1.317 . S
N566 C562 1.328 1_455 S
N566 C564 1.350 . S
H567 C562 0.930 . S
H568 C563 0.930 . S
C569 O570 1.224 . S
C569 O588 1.247 . S
O570 C569 1.224 . S
N571 Co561 2.128 . S
N571 C572 1.355 . S
N571 C574 1.311 . S
C572 N571 1.355 . S
C572 C573 1.363 . S
C572 H584 0.929 . S
C573 C572 1.363 . S
C573 N575 1.375 . S
C573 H591 0.931 . S
C574 N571 1.311 . S
C574 N575 1.347 . S
C574 H585 0.929 . S
N575 C573 1.375 . S
N575 C574 1.347 . S
C576 C579 1.365 . S
C576 N581 1.328 . S
C576 H582 0.929 . S
C577 C578 1.362 . S
C577 C580 1.378 . S
C577 H592 0.929 . S
C578 C577 1.362 . S
C578 C579 1.366 . S
C579 C576 1.365 . S
C579 C578 1.366 . S
C579 H593 0.930 . S
C580 C577 1.378 . S
C580 N581 1.315 . S
C580 H583 0.930 . S
N581 Co561 2.194 . S
N581 C576 1.328 . S
N581 C580 1.315 . S
H582 C576 0.929 . S
H583 C580 0.930 . S
H584 C572 0.929 . S
H585 C574 0.929 . S
O586 Co561 2.351 . S
O586 C589 1.244 . S
O587 Co561 2.155 . S
O587 C589 1.240 . S
O588 Co561 2.096 . S
O588 C569 1.247 . S
C589 O586 1.244 . S
C589 O587 1.240 . S
H590 C564 0.931 . S
H591 C573 0.931 . S
H592 C577 0.929 . S
H593 C579 0.930 . S
Co594 N598 2.148 . S
Co594 N604 2.128 . S
Co594 N614 2.194 . S
Co594 O619 2.351 . S
Co594 O620 2.155 . S
Co594 O621 2.096 . S
C595 N598 1.301 . S
C595 N599 1.328 . S
C595 H600 0.930 . S
C596 C597 1.333 . S
C596 N598 1.317 . S
C596 H601 0.930 . S
C597 C596 1.333 . S
C597 N599 1.350 . S
C597 H623 0.931 . S
N598 Co594 2.148 . S
N598 C595 1.301 . S
N598 C596 1.317 . S
N599 C595 1.328 . S
N599 C597 1.350 . S
H600 C595 0.930 . S
H601 C596 0.930 . S
C602 O603 1.224 . S
C602 O621 1.247 . S
O603 C602 1.224 . S
N604 Co594 2.128 . S
N604 C605 1.355 . S
N604 C607 1.311 . S
C605 N604 1.355 . S
C605 C606 1.363 . S
C605 H617 0.929 . S
C606 C605 1.363 . S
C606 N608 1.375 . S
C606 H624 0.931 . S
C607 N604 1.311 . S
C607 N608 1.347 . S
C607 H618 0.929 . S
N608 C606 1.375 . S
N608 C607 1.347 . S
C609 C612 1.365 . S
C609 N614 1.328 . S
C609 H615 0.929 . S
C610 C611 1.362 . S
C610 C613 1.378 . S
C610 H625 0.929 . S
C611 C610 1.362 . S
C611 C612 1.366 . S
C612 C609 1.365 . S
C612 C611 1.366 . S
C612 H626 0.930 . S
C613 C610 1.378 . S
C613 N614 1.315 . S
C613 H616 0.930 . S
N614 Co594 2.194 . S
N614 C609 1.328 . S
N614 C613 1.315 . S
H615 C609 0.929 . S
H616 C613 0.930 . S
H617 C605 0.929 . S
H618 C607 0.929 . S
O619 Co594 2.351 . S
O619 C622 1.244 . S
O620 Co594 2.155 . S
O620 C622 1.240 . S
O621 Co594 2.096 . S
O621 C602 1.247 . S
C622 O619 1.244 . S
C622 O620 1.240 . S
H623 C597 0.931 . S
H624 C606 0.931 . S
H625 C610 0.929 . S
H626 C612 0.930 . S
Co627 N631 2.148 . S
Co627 N637 2.128 . S
Co627 N647 2.194 . S
Co627 O652 2.351 . S
Co627 O653 2.155 . S
Co627 O654 2.096 . S
C628 N631 1.301 . S
C628 N632 1.328 . S
C628 H633 0.930 . S
C629 C630 1.333 . S
C629 N631 1.317 . S
C629 H634 0.930 . S
C630 C629 1.333 . S
C630 N632 1.350 . S
C630 H656 0.931 . S
N631 Co627 2.148 . S
N631 C628 1.301 . S
N631 C629 1.317 . S
N632 C628 1.328 . S
N632 C630 1.350 . S
H633 C628 0.930 . S
H634 C629 0.930 . S
C635 O636 1.224 . S
C635 O654 1.247 . S
O636 C635 1.224 . S
N637 Co627 2.128 . S
N637 C638 1.355 . S
N637 C640 1.311 . S
C638 N637 1.355 . S
C638 C639 1.363 1_655 S
C638 H650 0.929 . S
C639 C638 1.363 1_455 S
C639 N641 1.375 . S
C639 H657 0.931 . S
C640 N637 1.311 . S
C640 N641 1.347 1_655 S
C640 H651 0.929 . S
N641 C639 1.375 . S
N641 C640 1.347 1_455 S
C642 C645 1.365 . S
C642 N647 1.328 . S
C642 H648 0.929 . S
C643 C644 1.362 . S
C643 C646 1.378 . S
C643 H658 0.929 . S
C644 C643 1.362 . S
C644 C645 1.366 . S
C645 C642 1.365 . S
C645 C644 1.366 . S
C645 H659 0.930 . S
C646 C643 1.378 . S
C646 N647 1.315 . S
C646 H649 0.930 . S
N647 Co627 2.194 . S
N647 C642 1.328 . S
N647 C646 1.315 . S
H648 C642 0.929 . S
H649 C646 0.930 . S
H650 C638 0.929 . S
H651 C640 0.929 . S
O652 Co627 2.351 . S
O652 C655 1.244 . S
O653 Co627 2.155 . S
O653 C655 1.240 . S
O654 Co627 2.096 . S
O654 C635 1.247 . S
C655 O652 1.244 . S
C655 O653 1.240 . S
H656 C630 0.931 . S
H657 C639 0.931 . S
H658 C643 0.929 . S
H659 C645 0.930 . S
Co660 N664 2.148 . S
Co660 N670 2.128 . S
Co660 N680 2.194 . S
Co660 O685 2.351 . S
Co660 O686 2.155 . S
Co660 O687 2.096 . S
C661 N664 1.301 . S
C661 N665 1.328 . S
C661 H666 0.930 . S
C662 C663 1.333 . S
C662 N664 1.317 . S
C662 H667 0.930 . S
C663 C662 1.333 . S
C663 N665 1.350 . S
C663 H689 0.931 . S
N664 Co660 2.148 . S
N664 C661 1.301 . S
N664 C662 1.317 . S
N665 C661 1.328 . S
N665 C663 1.350 . S
H666 C661 0.930 . S
H667 C662 0.930 . S
C668 O669 1.224 . S
C668 O687 1.247 . S
O669 C668 1.224 . S
N670 Co660 2.128 . S
N670 C671 1.355 . S
N670 C673 1.311 . S
C671 N670 1.355 . S
C671 C672 1.363 . S
C671 H683 0.929 . S
C672 C671 1.363 . S
C672 N674 1.375 . S
C672 H690 0.931 . S
C673 N670 1.311 . S
C673 N674 1.347 . S
C673 H684 0.929 . S
N674 C672 1.375 . S
N674 C673 1.347 . S
C675 C678 1.365 . S
C675 N680 1.328 . S
C675 H681 0.929 . S
C676 C677 1.362 . S
C676 C679 1.378 . S
C676 H691 0.929 . S
C677 C676 1.362 . S
C677 C678 1.366 . S
C678 C675 1.365 . S
C678 C677 1.366 . S
C678 H692 0.930 . S
C679 C676 1.378 . S
C679 N680 1.315 . S
C679 H682 0.930 . S
N680 Co660 2.194 . S
N680 C675 1.328 . S
N680 C679 1.315 . S
H681 C675 0.929 . S
H682 C679 0.930 . S
H683 C671 0.929 . S
H684 C673 0.929 . S
O685 Co660 2.351 . S
O685 C688 1.244 . S
O686 Co660 2.155 . S
O686 C688 1.240 . S
O687 Co660 2.096 . S
O687 C668 1.247 . S
C688 O685 1.244 . S
C688 O686 1.240 . S
H689 C663 0.931 . S
H690 C672 0.931 . S
H691 C676 0.929 . S
H692 C678 0.930 . S
Co693 N697 2.148 . S
Co693 N703 2.128 . S
Co693 N713 2.194 . S
Co693 O718 2.351 . S
Co693 O719 2.155 . S
Co693 O720 2.096 . S
C694 N697 1.301 . S
C694 N698 1.328 1_556 S
C694 H699 0.930 . S
C695 C696 1.333 1_556 S
C695 N697 1.317 . S
C695 H700 0.930 . S
C696 C695 1.333 1_554 S
C696 N698 1.350 . S
C696 H722 0.931 . S
N697 Co693 2.148 . S
N697 C694 1.301 . S
N697 C695 1.317 . S
N698 C694 1.328 1_554 S
N698 C696 1.350 . S
H699 C694 0.930 . S
H700 C695 0.930 . S
C701 O702 1.224 . S
C701 O720 1.247 . S
O702 C701 1.224 . S
N703 Co693 2.128 . S
N703 C704 1.355 . S
N703 C706 1.311 . S
C704 N703 1.355 . S
C704 C705 1.363 . S
C704 H716 0.929 . S
C705 C704 1.363 . S
C705 N707 1.375 . S
C705 H723 0.931 . S
C706 N703 1.311 . S
C706 N707 1.347 . S
C706 H717 0.929 . S
N707 C705 1.375 . S
N707 C706 1.347 . S
C708 C711 1.365 . S
C708 N713 1.328 . S
C708 H714 0.929 . S
C709 C710 1.362 . S
C709 C712 1.378 . S
C709 H724 0.929 . S
C710 C709 1.362 . S
C710 C711 1.366 . S
C711 C708 1.365 . S
C711 C710 1.366 . S
C711 H725 0.930 1_655 S
C712 C709 1.378 . S
C712 N713 1.315 . S
C712 H715 0.930 . S
N713 Co693 2.194 . S
N713 C708 1.328 . S
N713 C712 1.315 . S
H714 C708 0.929 . S
H715 C712 0.930 . S
H716 C704 0.929 . S
H717 C706 0.929 . S
O718 Co693 2.351 . S
O718 C721 1.244 . S
O719 Co693 2.155 . S
O719 C721 1.240 . S
O720 Co693 2.096 . S
O720 C701 1.247 . S
C721 O718 1.244 . S
C721 O719 1.240 . S
H722 C696 0.931 . S
H723 C705 0.931 . S
H724 C709 0.929 . S
H725 C711 0.930 1_455 S
Co726 N730 2.148 . S
Co726 N736 2.128 . S
Co726 N746 2.194 . S
Co726 O751 2.351 . S
Co726 O752 2.155 . S
Co726 O753 2.096 . S
C727 N730 1.301 . S
C727 N731 1.328 . S
C727 H732 0.930 . S
C728 C729 1.333 . S
C728 N730 1.317 . S
C728 H733 0.930 . S
C729 C728 1.333 . S
C729 N731 1.350 . S
C729 H755 0.931 . S
N730 Co726 2.148 . S
N730 C727 1.301 . S
N730 C728 1.317 . S
N731 C727 1.328 . S
N731 C729 1.350 . S
H732 C727 0.930 . S
H733 C728 0.930 . S
C734 O735 1.224 . S
C734 O753 1.247 . S
O735 C734 1.224 . S
N736 Co726 2.128 . S
N736 C737 1.355 . S
N736 C739 1.311 . S
C737 N736 1.355 . S
C737 C738 1.363 . S
C737 H749 0.929 . S
C738 C737 1.363 . S
C738 N740 1.375 . S
C738 H756 0.931 . S
C739 N736 1.311 . S
C739 N740 1.347 . S
C739 H750 0.929 . S
N740 C738 1.375 . S
N740 C739 1.347 . S
C741 C744 1.365 . S
C741 N746 1.328 . S
C741 H747 0.929 . S
C742 C743 1.362 . S
C742 C745 1.378 . S
C742 H757 0.929 . S
C743 C742 1.362 . S
C743 C744 1.366 . S
C744 C741 1.365 . S
C744 C743 1.366 . S
C744 H758 0.930 1_455 S
C745 C742 1.378 . S
C745 N746 1.315 . S
C745 H748 0.930 . S
N746 Co726 2.194 . S
N746 C741 1.328 . S
N746 C745 1.315 . S
H747 C741 0.929 . S
H748 C745 0.930 . S
H749 C737 0.929 . S
H750 C739 0.929 . S
O751 Co726 2.351 . S
O751 C754 1.244 . S
O752 Co726 2.155 . S
O752 C754 1.240 . S
O753 Co726 2.096 . S
O753 C734 1.247 . S
C754 O751 1.244 . S
C754 O752 1.240 . S
H755 C729 0.931 . S
H756 C738 0.931 . S
H757 C742 0.929 . S
H758 C744 0.930 1_655 S
Co759 N763 2.148 . S
Co759 N769 2.128 . S
Co759 N779 2.194 . S
Co759 O784 2.351 . S
Co759 O785 2.155 . S
Co759 O786 2.096 . S
C760 N763 1.301 . S
C760 N764 1.328 . S
C760 H765 0.930 . S
C761 C762 1.333 . S
C761 N763 1.317 . S
C761 H766 0.930 . S
C762 C761 1.333 . S
C762 N764 1.350 . S
C762 H788 0.931 . S
N763 Co759 2.148 . S
N763 C760 1.301 . S
N763 C761 1.317 . S
N764 C760 1.328 . S
N764 C762 1.350 . S
H765 C760 0.930 . S
H766 C761 0.930 . S
C767 O768 1.224 . S
C767 O786 1.247 . S
O768 C767 1.224 . S
N769 Co759 2.128 . S
N769 C770 1.355 . S
N769 C772 1.311 . S
C770 N769 1.355 . S
C770 C771 1.363 . S
C770 H782 0.929 . S
C771 C770 1.363 . S
C771 N773 1.375 . S
C771 H789 0.931 . S
C772 N769 1.311 . S
C772 N773 1.347 . S
C772 H783 0.929 . S
N773 C771 1.375 . S
N773 C772 1.347 . S
C774 C777 1.365 . S
C774 N779 1.328 . S
C774 H780 0.929 . S
C775 C776 1.362 . S
C775 C778 1.378 . S
C775 H790 0.929 . S
C776 C775 1.362 . S
C776 C777 1.366 . S
C777 C774 1.365 . S
C777 C776 1.366 . S
C777 H791 0.930 . S
C778 C775 1.378 . S
C778 N779 1.315 . S
C778 H781 0.930 . S
N779 Co759 2.194 . S
N779 C774 1.328 . S
N779 C778 1.315 . S
H780 C774 0.929 . S
H781 C778 0.930 . S
H782 C770 0.929 . S
H783 C772 0.929 . S
O784 Co759 2.351 . S
O784 C787 1.244 . S
O785 Co759 2.155 . S
O785 C787 1.240 . S
O786 Co759 2.096 . S
O786 C767 1.247 . S
C787 O784 1.244 . S
C787 O785 1.240 . S
H788 C762 0.931 . S
H789 C771 0.931 . S
H790 C775 0.929 . S
H791 C777 0.930 . S
Co792 N796 2.148 . S
Co792 N802 2.128 . S
Co792 N812 2.194 . S
Co792 O817 2.351 . S
Co792 O818 2.155 . S
Co792 O819 2.096 . S
C793 N796 1.301 . S
C793 N797 1.328 1_554 S
C793 H798 0.930 . S
C794 C795 1.333 1_554 S
C794 N796 1.317 . S
C794 H799 0.930 . S
C795 C794 1.333 1_556 S
C795 N797 1.350 . S
C795 H821 0.931 . S
N796 Co792 2.148 . S
N796 C793 1.301 . S
N796 C794 1.317 . S
N797 C793 1.328 1_556 S
N797 C795 1.350 . S
H798 C793 0.930 . S
H799 C794 0.930 . S
C800 O801 1.224 . S
C800 O819 1.247 . S
O801 C800 1.224 . S
N802 Co792 2.128 . S
N802 C803 1.355 . S
N802 C805 1.311 . S
C803 N802 1.355 . S
C803 C804 1.363 . S
C803 H815 0.929 . S
C804 C803 1.363 . S
C804 N806 1.375 . S
C804 H822 0.931 . S
C805 N802 1.311 . S
C805 N806 1.347 . S
C805 H816 0.929 . S
N806 C804 1.375 . S
N806 C805 1.347 . S
C807 C810 1.365 . S
C807 N812 1.328 . S
C807 H813 0.929 . S
C808 C809 1.362 . S
C808 C811 1.378 . S
C808 H823 0.929 . S
C809 C808 1.362 . S
C809 C810 1.366 . S
C810 C807 1.365 . S
C810 C809 1.366 . S
C810 H824 0.930 . S
C811 C808 1.378 . S
C811 N812 1.315 . S
C811 H814 0.930 . S
N812 Co792 2.194 . S
N812 C807 1.328 . S
N812 C811 1.315 . S
H813 C807 0.929 . S
H814 C811 0.930 . S
H815 C803 0.929 . S
H816 C805 0.929 . S
O817 Co792 2.351 . S
O817 C820 1.244 . S
O818 Co792 2.155 . S
O818 C820 1.240 . S
O819 Co792 2.096 . S
O819 C800 1.247 . S
C820 O817 1.244 . S
C820 O818 1.240 . S
H821 C795 0.931 . S
H822 C804 0.931 . S
H823 C808 0.929 . S
H824 C810 0.930 . S
Co825 N829 2.148 . S
Co825 N835 2.128 . S
Co825 N845 2.194 . S
Co825 O850 2.351 . S
Co825 O851 2.155 . S
Co825 O852 2.096 . S
C826 N829 1.301 . S
C826 N830 1.328 . S
C826 H831 0.930 . S
C827 C828 1.333 . S
C827 N829 1.317 . S
C827 H832 0.930 . S
C828 C827 1.333 . S
C828 N830 1.350 . S
C828 H854 0.931 . S
N829 Co825 2.148 . S
N829 C826 1.301 . S
N829 C827 1.317 . S
N830 C826 1.328 . S
N830 C828 1.350 . S
H831 C826 0.930 . S
H832 C827 0.930 . S
C833 O834 1.224 . S
C833 O852 1.247 . S
O834 C833 1.224 . S
N835 Co825 2.128 . S
N835 C836 1.355 . S
N835 C838 1.311 . S
C836 N835 1.355 . S
C836 C837 1.363 . S
C836 H848 0.929 . S
C837 C836 1.363 . S
C837 N839 1.375 . S
C837 H855 0.931 . S
C838 N835 1.311 . S
C838 N839 1.347 . S
C838 H849 0.929 . S
N839 C837 1.375 . S
N839 C838 1.347 . S
C840 C843 1.365 . S
C840 N845 1.328 . S
C840 H846 0.929 . S
C841 C842 1.362 . S
C841 C844 1.378 . S
C841 H856 0.929 1_655 S
C842 C841 1.362 . S
C842 C843 1.366 . S
C843 C840 1.365 . S
C843 C842 1.366 . S
C843 H857 0.930 . S
C844 C841 1.378 . S
C844 N845 1.315 . S
C844 H847 0.930 . S
N845 Co825 2.194 . S
N845 C840 1.328 . S
N845 C844 1.315 . S
H846 C840 0.929 . S
H847 C844 0.930 . S
H848 C836 0.929 . S
H849 C838 0.929 . S
O850 Co825 2.351 . S
O850 C853 1.244 . S
O851 Co825 2.155 . S
O851 C853 1.240 . S
O852 Co825 2.096 . S
O852 C833 1.247 . S
C853 O850 1.244 . S
C853 O851 1.240 . S
H854 C828 0.931 . S
H855 C837 0.931 . S
H856 C841 0.929 1_455 S
H857 C843 0.930 . S
Co858 N862 2.148 . S
Co858 N868 2.128 . S
Co858 N878 2.194 . S
Co858 O883 2.351 . S
Co858 O884 2.155 . S
Co858 O885 2.096 . S
C859 N862 1.301 . S
C859 N863 1.328 . S
C859 H864 0.930 . S
C860 C861 1.333 . S
C860 N862 1.317 . S
C860 H865 0.930 . S
C861 C860 1.333 . S
C861 N863 1.350 . S
C861 H887 0.931 . S
N862 Co858 2.148 . S
N862 C859 1.301 . S
N862 C860 1.317 . S
N863 C859 1.328 . S
N863 C861 1.350 . S
H864 C859 0.930 . S
H865 C860 0.930 . S
C866 O867 1.224 . S
C866 O885 1.247 . S
O867 C866 1.224 . S
N868 Co858 2.128 . S
N868 C869 1.355 . S
N868 C871 1.311 . S
C869 N868 1.355 . S
C869 C870 1.363 . S
C869 H881 0.929 . S
C870 C869 1.363 . S
C870 N872 1.375 . S
C870 H888 0.931 . S
C871 N868 1.311 . S
C871 N872 1.347 . S
C871 H882 0.929 . S
N872 C870 1.375 . S
N872 C871 1.347 . S
C873 C876 1.365 . S
C873 N878 1.328 . S
C873 H879 0.929 . S
C874 C875 1.362 . S
C874 C877 1.378 . S
C874 H889 0.929 . S
C875 C874 1.362 . S
C875 C876 1.366 . S
C876 C873 1.365 . S
C876 C875 1.366 . S
C876 H890 0.930 . S
C877 C874 1.378 . S
C877 N878 1.315 . S
C877 H880 0.930 . S
N878 Co858 2.194 . S
N878 C873 1.328 . S
N878 C877 1.315 . S
H879 C873 0.929 . S
H880 C877 0.930 . S
H881 C869 0.929 . S
H882 C871 0.929 . S
O883 Co858 2.351 . S
O883 C886 1.244 . S
O884 Co858 2.155 . S
O884 C886 1.240 . S
O885 Co858 2.096 . S
O885 C866 1.247 . S
C886 O883 1.244 . S
C886 O884 1.240 . S
H887 C861 0.931 . S
H888 C870 0.931 . S
H889 C874 0.929 . S
H890 C876 0.930 . S
Co891 N895 2.148 . S
Co891 N901 2.128 . S
Co891 N911 2.194 . S
Co891 O916 2.351 . S
Co891 O917 2.155 . S
Co891 O918 2.096 . S
C892 N895 1.301 . S
C892 N896 1.328 . S
C892 H897 0.930 . S
C893 C894 1.333 . S
C893 N895 1.317 . S
C893 H898 0.930 . S
C894 C893 1.333 . S
C894 N896 1.350 . S
C894 H920 0.931 . S
N895 Co891 2.148 . S
N895 C892 1.301 . S
N895 C893 1.317 . S
N896 C892 1.328 . S
N896 C894 1.350 . S
H897 C892 0.930 . S
H898 C893 0.930 . S
C899 O900 1.224 . S
C899 O918 1.247 . S
O900 C899 1.224 . S
N901 Co891 2.128 . S
N901 C902 1.355 . S
N901 C904 1.311 . S
C902 N901 1.355 . S
C902 C903 1.363 1_554 S
C902 H914 0.929 . S
C903 C902 1.363 1_556 S
C903 N905 1.375 . S
C903 H921 0.931 . S
C904 N901 1.311 . S
C904 N905 1.347 1_554 S
C904 H915 0.929 . S
N905 C903 1.375 . S
N905 C904 1.347 1_556 S
C906 C909 1.365 . S
C906 N911 1.328 . S
C906 H912 0.929 . S
C907 C908 1.362 . S
C907 C910 1.378 . S
C907 H922 0.929 . S
C908 C907 1.362 . S
C908 C909 1.366 . S
C909 C906 1.365 . S
C909 C908 1.366 . S
C909 H923 0.930 . S
C910 C907 1.378 . S
C910 N911 1.315 . S
C910 H913 0.930 . S
N911 Co891 2.194 . S
N911 C906 1.328 . S
N911 C910 1.315 . S
H912 C906 0.929 . S
H913 C910 0.930 . S
H914 C902 0.929 . S
H915 C904 0.929 . S
O916 Co891 2.351 . S
O916 C919 1.244 . S
O917 Co891 2.155 . S
O917 C919 1.240 . S
O918 Co891 2.096 . S
O918 C899 1.247 . S
C919 O916 1.244 . S
C919 O917 1.240 . S
H920 C894 0.931 . S
H921 C903 0.931 . S
H922 C907 0.929 . S
H923 C909 0.930 . S
Co924 N928 2.148 . S
Co924 N934 2.128 . S
Co924 N944 2.194 . S
Co924 O949 2.351 . S
Co924 O950 2.155 . S
Co924 O951 2.096 . S
C925 N928 1.301 . S
C925 N929 1.328 1_556 S
C925 H930 0.930 . S
C926 C927 1.333 1_556 S
C926 N928 1.317 . S
C926 H931 0.930 . S
C927 C926 1.333 1_554 S
C927 N929 1.350 . S
C927 H953 0.931 . S
N928 Co924 2.148 . S
N928 C925 1.301 . S
N928 C926 1.317 . S
N929 C925 1.328 1_554 S
N929 C927 1.350 . S
H930 C925 0.930 . S
H931 C926 0.930 . S
C932 O933 1.224 . S
C932 O951 1.247 . S
O933 C932 1.224 . S
N934 Co924 2.128 . S
N934 C935 1.355 . S
N934 C937 1.311 . S
C935 N934 1.355 . S
C935 C936 1.363 . S
C935 H947 0.929 . S
C936 C935 1.363 . S
C936 N938 1.375 . S
C936 H954 0.931 . S
C937 N934 1.311 . S
C937 N938 1.347 . S
C937 H948 0.929 . S
N938 C936 1.375 . S
N938 C937 1.347 . S
C939 C942 1.365 . S
C939 N944 1.328 . S
C939 H945 0.929 . S
C940 C941 1.362 . S
C940 C943 1.378 . S
C940 H955 0.929 . S
C941 C940 1.362 . S
C941 C942 1.366 . S
C942 C939 1.365 . S
C942 C941 1.366 . S
C942 H956 0.930 1_455 S
C943 C940 1.378 . S
C943 N944 1.315 . S
C943 H946 0.930 . S
N944 Co924 2.194 . S
N944 C939 1.328 . S
N944 C943 1.315 . S
H945 C939 0.929 . S
H946 C943 0.930 . S
H947 C935 0.929 . S
H948 C937 0.929 . S
O949 Co924 2.351 . S
O949 C952 1.244 . S
O950 Co924 2.155 . S
O950 C952 1.240 . S
O951 Co924 2.096 . S
O951 C932 1.247 . S
C952 O949 1.244 . S
C952 O950 1.240 . S
H953 C927 0.931 . S
H954 C936 0.931 . S
H955 C940 0.929 . S
H956 C942 0.930 1_655 S
Co957 N961 2.148 . S
Co957 N967 2.128 . S
Co957 N977 2.194 . S
Co957 O982 2.351 . S
Co957 O983 2.155 . S
Co957 O984 2.096 . S
C958 N961 1.301 . S
C958 N962 1.328 . S
C958 H963 0.930 . S
C959 C960 1.333 . S
C959 N961 1.317 . S
C959 H964 0.930 . S
C960 C959 1.333 . S
C960 N962 1.350 . S
C960 H986 0.931 . S
N961 Co957 2.148 . S
N961 C958 1.301 . S
N961 C959 1.317 . S
N962 C958 1.328 . S
N962 C960 1.350 . S
H963 C958 0.930 . S
H964 C959 0.930 . S
C965 O966 1.224 . S
C965 O984 1.247 . S
O966 C965 1.224 . S
N967 Co957 2.128 . S
N967 C968 1.355 . S
N967 C970 1.311 . S
C968 N967 1.355 . S
C968 C969 1.363 1_655 S
C968 H980 0.929 . S
C969 C968 1.363 1_455 S
C969 N971 1.375 . S
C969 H987 0.931 . S
C970 N967 1.311 . S
C970 N971 1.347 1_655 S
C970 H981 0.929 . S
N971 C969 1.375 . S
N971 C970 1.347 1_455 S
C972 C975 1.365 . S
C972 N977 1.328 . S
C972 H978 0.929 . S
C973 C974 1.362 . S
C973 C976 1.378 . S
C973 H988 0.929 1_565 S
C974 C973 1.362 . S
C974 C975 1.366 . S
C975 C972 1.365 . S
C975 C974 1.366 . S
C975 H989 0.930 . S
C976 C973 1.378 . S
C976 N977 1.315 . S
C976 H979 0.930 . S
N977 Co957 2.194 . S
N977 C972 1.328 . S
N977 C976 1.315 . S
H978 C972 0.929 . S
H979 C976 0.930 . S
H980 C968 0.929 . S
H981 C970 0.929 . S
O982 Co957 2.351 . S
O982 C985 1.244 . S
O983 Co957 2.155 . S
O983 C985 1.240 . S
O984 Co957 2.096 . S
O984 C965 1.247 . S
C985 O982 1.244 . S
C985 O983 1.240 . S
H986 C960 0.931 . S
H987 C969 0.931 . S
H988 C973 0.929 1_545 S
H989 C975 0.930 . S
Co990 N994 2.148 . S
Co990 N1000 2.128 . S
Co990 N1010 2.194 . S
Co990 O1015 2.351 . S
Co990 O1016 2.155 . S
Co990 O1017 2.096 . S
C991 N994 1.301 . S
C991 N995 1.328 . S
C991 H996 0.930 . S
C992 C993 1.333 . S
C992 N994 1.317 . S
C992 H997 0.930 . S
C993 C992 1.333 . S
C993 N995 1.350 . S
C993 H1019 0.931 . S
N994 Co990 2.148 . S
N994 C991 1.301 . S
N994 C992 1.317 . S
N995 C991 1.328 . S
N995 C993 1.350 . S
H996 C991 0.930 . S
H997 C992 0.930 . S
C998 O999 1.224 . S
C998 O1017 1.247 . S
O999 C998 1.224 . S
N1000 Co990 2.128 . S
N1000 C1001 1.355 . S
N1000 C1003 1.311 . S
C1001 N1000 1.355 . S
C1001 C1002 1.363 1_545 S
C1001 H1013 0.929 . S
C1002 C1001 1.363 1_565 S
C1002 N1004 1.375 . S
C1002 H1020 0.931 . S
C1003 N1000 1.311 . S
C1003 N1004 1.347 1_545 S
C1003 H1014 0.929 . S
N1004 C1002 1.375 . S
N1004 C1003 1.347 1_565 S
C1005 C1008 1.365 . S
C1005 N1010 1.328 . S
C1005 H1011 0.929 . S
C1006 C1007 1.362 . S
C1006 C1009 1.378 . S
C1006 H1021 0.929 . S
C1007 C1006 1.362 . S
C1007 C1008 1.366 . S
C1008 C1005 1.365 . S
C1008 C1007 1.366 . S
C1008 H1022 0.930 . S
C1009 C1006 1.378 . S
C1009 N1010 1.315 . S
C1009 H1012 0.930 . S
N1010 Co990 2.194 . S
N1010 C1005 1.328 . S
N1010 C1009 1.315 . S
H1011 C1005 0.929 . S
H1012 C1009 0.930 . S
H1013 C1001 0.929 . S
H1014 C1003 0.929 . S
O1015 Co990 2.351 . S
O1015 C1018 1.244 . S
O1016 Co990 2.155 . S
O1016 C1018 1.240 . S
O1017 Co990 2.096 . S
O1017 C998 1.247 . S
C1018 O1015 1.244 . S
C1018 O1016 1.240 . S
H1019 C993 0.931 . S
H1020 C1002 0.931 . S
H1021 C1006 0.929 . S
H1022 C1008 0.930 . S
Co1023 N1027 2.148 . S
Co1023 N1033 2.128 . S
Co1023 N1043 2.194 . S
Co1023 O1048 2.351 . S
Co1023 O1049 2.155 . S
Co1023 O1050 2.096 . S
C1024 N1027 1.301 . S
C1024 N1028 1.328 . S
C1024 H1029 0.930 . S
C1025 C1026 1.333 . S
C1025 N1027 1.317 . S
C1025 H1030 0.930 . S
C1026 C1025 1.333 . S
C1026 N1028 1.350 . S
C1026 H1052 0.931 . S
N1027 Co1023 2.148 . S
N1027 C1024 1.301 . S
N1027 C1025 1.317 . S
N1028 C1024 1.328 . S
N1028 C1026 1.350 . S
H1029 C1024 0.930 . S
H1030 C1025 0.930 . S
C1031 O1032 1.224 . S
C1031 O1050 1.247 . S
O1032 C1031 1.224 . S
N1033 Co1023 2.128 . S
N1033 C1034 1.355 . S
N1033 C1036 1.311 . S
C1034 N1033 1.355 . S
C1034 C1035 1.363 . S
C1034 H1046 0.929 . S
C1035 C1034 1.363 . S
C1035 N1037 1.375 . S
C1035 H1053 0.931 . S
C1036 N1033 1.311 . S
C1036 N1037 1.347 . S
C1036 H1047 0.929 . S
N1037 C1035 1.375 . S
N1037 C1036 1.347 . S
C1038 C1041 1.365 . S
C1038 N1043 1.328 . S
C1038 H1044 0.929 . S
C1039 C1040 1.362 . S
C1039 C1042 1.378 . S
C1039 H1054 0.929 1_545 S
C1040 C1039 1.362 . S
C1040 C1041 1.366 . S
C1041 C1038 1.365 . S
C1041 C1040 1.366 . S
C1041 H1055 0.930 . S
C1042 C1039 1.378 . S
C1042 N1043 1.315 . S
C1042 H1045 0.930 . S
N1043 Co1023 2.194 . S
N1043 C1038 1.328 . S
N1043 C1042 1.315 . S
H1044 C1038 0.929 . S
H1045 C1042 0.930 . S
H1046 C1034 0.929 . S
H1047 C1036 0.929 . S
O1048 Co1023 2.351 . S
O1048 C1051 1.244 . S
O1049 Co1023 2.155 . S
O1049 C1051 1.240 . S
O1050 Co1023 2.096 . S
O1050 C1031 1.247 . S
C1051 O1048 1.244 . S
C1051 O1049 1.240 . S
H1052 C1026 0.931 . S
H1053 C1035 0.931 . S
H1054 C1039 0.929 1_565 S
H1055 C1041 0.930 . S
Co1056 N1060 2.148 . S
Co1056 N1066 2.128 . S
Co1056 N1076 2.194 . S
Co1056 O1081 2.351 . S
Co1056 O1082 2.155 . S
Co1056 O1083 2.096 . S
C1057 N1060 1.301 . S
C1057 N1061 1.328 . S
C1057 H1062 0.930 . S
C1058 C1059 1.333 . S
C1058 N1060 1.317 . S
C1058 H1063 0.930 . S
C1059 C1058 1.333 . S
C1059 N1061 1.350 . S
C1059 H1085 0.931 . S
N1060 Co1056 2.148 . S
N1060 C1057 1.301 . S
N1060 C1058 1.317 . S
N1061 C1057 1.328 . S
N1061 C1059 1.350 . S
H1062 C1057 0.930 . S
H1063 C1058 0.930 . S
C1064 O1065 1.224 . S
C1064 O1083 1.247 . S
O1065 C1064 1.224 . S
N1066 Co1056 2.128 . S
N1066 C1067 1.355 . S
N1066 C1069 1.311 . S
C1067 N1066 1.355 . S
C1067 C1068 1.363 1_565 S
C1067 H1079 0.929 . S
C1068 C1067 1.363 1_545 S
C1068 N1070 1.375 . S
C1068 H1086 0.931 . S
C1069 N1066 1.311 . S
C1069 N1070 1.347 1_565 S
C1069 H1080 0.929 . S
N1070 C1068 1.375 . S
N1070 C1069 1.347 1_545 S
C1071 C1074 1.365 . S
C1071 N1076 1.328 . S
C1071 H1077 0.929 . S
C1072 C1073 1.362 . S
C1072 C1075 1.378 . S
C1072 H1087 0.929 1_556 S
C1073 C1072 1.362 . S
C1073 C1074 1.366 . S
C1074 C1071 1.365 . S
C1074 C1073 1.366 . S
C1074 H1088 0.930 . S
C1075 C1072 1.378 . S
C1075 N1076 1.315 . S
C1075 H1078 0.930 . S
N1076 Co1056 2.194 . S
N1076 C1071 1.328 . S
N1076 C1075 1.315 . S
H1077 C1071 0.929 . S
H1078 C1075 0.930 . S
H1079 C1067 0.929 . S
H1080 C1069 0.929 . S
O1081 Co1056 2.351 . S
O1081 C1084 1.244 . S
O1082 Co1056 2.155 . S
O1082 C1084 1.240 . S
O1083 Co1056 2.096 . S
O1083 C1064 1.247 . S
C1084 O1081 1.244 . S
C1084 O1082 1.240 . S
H1085 C1059 0.931 . S
H1086 C1068 0.931 . S
H1087 C1072 0.929 1_554 S
H1088 C1074 0.930 . S
Co1089 N1093 2.148 . S
Co1089 N1099 2.128 . S
Co1089 N1109 2.194 . S
Co1089 O1114 2.351 . S
Co1089 O1115 2.155 . S
Co1089 O1116 2.096 . S
C1090 N1093 1.301 . S
C1090 N1094 1.328 1_655 S
C1090 H1095 0.930 . S
C1091 C1092 1.333 1_655 S
C1091 N1093 1.317 . S
C1091 H1096 0.930 . S
C1092 C1091 1.333 1_455 S
C1092 N1094 1.350 . S
C1092 H1118 0.931 . S
N1093 Co1089 2.148 . S
N1093 C1090 1.301 . S
N1093 C1091 1.317 . S
N1094 C1090 1.328 1_455 S
N1094 C1092 1.350 . S
H1095 C1090 0.930 . S
H1096 C1091 0.930 . S
C1097 O1098 1.224 . S
C1097 O1116 1.247 . S
O1098 C1097 1.224 . S
N1099 Co1089 2.128 . S
N1099 C1100 1.355 . S
N1099 C1102 1.311 . S
C1100 N1099 1.355 . S
C1100 C1101 1.363 . S
C1100 H1112 0.929 . S
C1101 C1100 1.363 . S
C1101 N1103 1.375 . S
C1101 H1119 0.931 . S
C1102 N1099 1.311 . S
C1102 N1103 1.347 . S
C1102 H1113 0.929 . S
N1103 C1101 1.375 . S
N1103 C1102 1.347 . S
C1104 C1107 1.365 . S
C1104 N1109 1.328 . S
C1104 H1110 0.929 . S
C1105 C1106 1.362 . S
C1105 C1108 1.378 . S
C1105 H1120 0.929 . S
C1106 C1105 1.362 . S
C1106 C1107 1.366 . S
C1107 C1104 1.365 . S
C1107 C1106 1.366 . S
C1107 H1121 0.930 1_545 S
C1108 C1105 1.378 . S
C1108 N1109 1.315 . S
C1108 H1111 0.930 . S
N1109 Co1089 2.194 . S
N1109 C1104 1.328 . S
N1109 C1108 1.315 . S
H1110 C1104 0.929 . S
H1111 C1108 0.930 . S
H1112 C1100 0.929 . S
H1113 C1102 0.929 . S
O1114 Co1089 2.351 . S
O1114 C1117 1.244 . S
O1115 Co1089 2.155 . S
O1115 C1117 1.240 . S
O1116 Co1089 2.096 . S
O1116 C1097 1.247 . S
C1117 O1114 1.244 . S
C1117 O1115 1.240 . S
H1118 C1092 0.931 . S
H1119 C1101 0.931 . S
H1120 C1105 0.929 . S
H1121 C1107 0.930 1_565 S
Co1122 N1126 2.148 . S
Co1122 N1132 2.128 . S
Co1122 N1142 2.194 . S
Co1122 O1147 2.351 . S
Co1122 O1148 2.155 . S
Co1122 O1149 2.096 . S
C1123 N1126 1.301 . S
C1123 N1127 1.328 1_545 S
C1123 H1128 0.930 . S
C1124 C1125 1.333 1_545 S
C1124 N1126 1.317 . S
C1124 H1129 0.930 . S
C1125 C1124 1.333 1_565 S
C1125 N1127 1.350 . S
C1125 H1151 0.931 . S
N1126 Co1122 2.148 . S
N1126 C1123 1.301 . S
N1126 C1124 1.317 . S
N1127 C1123 1.328 1_565 S
N1127 C1125 1.350 . S
H1128 C1123 0.930 . S
H1129 C1124 0.930 . S
C1130 O1131 1.224 . S
C1130 O1149 1.247 . S
O1131 C1130 1.224 . S
N1132 Co1122 2.128 . S
N1132 C1133 1.355 . S
N1132 C1135 1.311 . S
C1133 N1132 1.355 . S
C1133 C1134 1.363 . S
C1133 H1145 0.929 . S
C1134 C1133 1.363 . S
C1134 N1136 1.375 . S
C1134 H1152 0.931 . S
C1135 N1132 1.311 . S
C1135 N1136 1.347 . S
C1135 H1146 0.929 . S
N1136 C1134 1.375 . S
N1136 C1135 1.347 . S
C1137 C1140 1.365 . S
C1137 N1142 1.328 . S
C1137 H1143 0.929 . S
C1138 C1139 1.362 . S
C1138 C1141 1.378 . S
C1138 H1153 0.929 . S
C1139 C1138 1.362 . S
C1139 C1140 1.366 . S
C1140 C1137 1.365 . S
C1140 C1139 1.366 . S
C1140 H1154 0.930 . S
C1141 C1138 1.378 . S
C1141 N1142 1.315 . S
C1141 H1144 0.930 . S
N1142 Co1122 2.194 . S
N1142 C1137 1.328 . S
N1142 C1141 1.315 . S
H1143 C1137 0.929 . S
H1144 C1141 0.930 . S
H1145 C1133 0.929 . S
H1146 C1135 0.929 . S
O1147 Co1122 2.351 . S
O1147 C1150 1.244 . S
O1148 Co1122 2.155 . S
O1148 C1150 1.240 . S
O1149 Co1122 2.096 . S
O1149 C1130 1.247 . S
C1150 O1147 1.244 . S
C1150 O1148 1.240 . S
H1151 C1125 0.931 . S
H1152 C1134 0.931 . S
H1153 C1138 0.929 . S
H1154 C1140 0.930 . S
Co1155 N1159 2.148 . S
Co1155 N1165 2.128 . S
Co1155 N1175 2.194 . S
Co1155 O1180 2.351 . S
Co1155 O1181 2.155 . S
Co1155 O1182 2.096 . S
C1156 N1159 1.301 . S
C1156 N1160 1.328 . S
C1156 H1161 0.930 . S
C1157 C1158 1.333 . S
C1157 N1159 1.317 . S
C1157 H1162 0.930 . S
C1158 C1157 1.333 . S
C1158 N1160 1.350 . S
C1158 H1184 0.931 . S
N1159 Co1155 2.148 . S
N1159 C1156 1.301 . S
N1159 C1157 1.317 . S
N1160 C1156 1.328 . S
N1160 C1158 1.350 . S
H1161 C1156 0.930 . S
H1162 C1157 0.930 . S
C1163 O1164 1.224 . S
C1163 O1182 1.247 . S
O1164 C1163 1.224 . S
N1165 Co1155 2.128 . S
N1165 C1166 1.355 . S
N1165 C1168 1.311 . S
C1166 N1165 1.355 . S
C1166 C1167 1.363 . S
C1166 H1178 0.929 . S
C1167 C1166 1.363 . S
C1167 N1169 1.375 . S
C1167 H1185 0.931 . S
C1168 N1165 1.311 . S
C1168 N1169 1.347 . S
C1168 H1179 0.929 . S
N1169 C1167 1.375 . S
N1169 C1168 1.347 . S
C1170 C1173 1.365 . S
C1170 N1175 1.328 . S
C1170 H1176 0.929 . S
C1171 C1172 1.362 . S
C1171 C1174 1.378 . S
C1171 H1186 0.929 1_565 S
C1172 C1171 1.362 . S
C1172 C1173 1.366 . S
C1173 C1170 1.365 . S
C1173 C1172 1.366 . S
C1173 H1187 0.930 . S
C1174 C1171 1.378 . S
C1174 N1175 1.315 . S
C1174 H1177 0.930 . S
N1175 Co1155 2.194 . S
N1175 C1170 1.328 . S
N1175 C1174 1.315 . S
H1176 C1170 0.929 . S
H1177 C1174 0.930 . S
H1178 C1166 0.929 . S
H1179 C1168 0.929 . S
O1180 Co1155 2.351 . S
O1180 C1183 1.244 . S
O1181 Co1155 2.155 . S
O1181 C1183 1.240 . S
O1182 Co1155 2.096 . S
O1182 C1163 1.247 . S
C1183 O1180 1.244 . S
C1183 O1181 1.240 . S
H1184 C1158 0.931 . S
H1185 C1167 0.931 . S
H1186 C1171 0.929 1_545 S
H1187 C1173 0.930 . S
Co1188 N1192 2.148 . S
Co1188 N1198 2.128 . S
Co1188 N1208 2.194 . S
Co1188 O1213 2.351 . S
Co1188 O1214 2.155 . S
Co1188 O1215 2.096 . S
C1189 N1192 1.301 . S
C1189 N1193 1.328 1_565 S
C1189 H1194 0.930 . S
C1190 C1191 1.333 1_565 S
C1190 N1192 1.317 . S
C1190 H1195 0.930 . S
C1191 C1190 1.333 1_545 S
C1191 N1193 1.350 . S
C1191 H1217 0.931 . S
N1192 Co1188 2.148 . S
N1192 C1189 1.301 . S
N1192 C1190 1.317 . S
N1193 C1189 1.328 1_545 S
N1193 C1191 1.350 . S
H1194 C1189 0.930 . S
H1195 C1190 0.930 . S
C1196 O1197 1.224 . S
C1196 O1215 1.247 . S
O1197 C1196 1.224 . S
N1198 Co1188 2.128 . S
N1198 C1199 1.355 . S
N1198 C1201 1.311 . S
C1199 N1198 1.355 . S
C1199 C1200 1.363 . S
C1199 H1211 0.929 . S
C1200 C1199 1.363 . S
C1200 N1202 1.375 . S
C1200 H1218 0.931 . S
C1201 N1198 1.311 . S
C1201 N1202 1.347 . S
C1201 H1212 0.929 . S
N1202 C1200 1.375 . S
N1202 C1201 1.347 . S
C1203 C1206 1.365 . S
C1203 N1208 1.328 . S
C1203 H1209 0.929 . S
C1204 C1205 1.362 . S
C1204 C1207 1.378 . S
C1204 H1219 0.929 . S
C1205 C1204 1.362 . S
C1205 C1206 1.366 . S
C1206 C1203 1.365 . S
C1206 C1205 1.366 . S
C1206 H1220 0.930 1_554 S
C1207 C1204 1.378 . S
C1207 N1208 1.315 . S
C1207 H1210 0.930 . S
N1208 Co1188 2.194 . S
N1208 C1203 1.328 . S
N1208 C1207 1.315 . S
H1209 C1203 0.929 . S
H1210 C1207 0.930 . S
H1211 C1199 0.929 . S
H1212 C1201 0.929 . S
O1213 Co1188 2.351 . S
O1213 C1216 1.244 . S
O1214 Co1188 2.155 . S
O1214 C1216 1.240 . S
O1215 Co1188 2.096 . S
O1215 C1196 1.247 . S
C1216 O1213 1.244 . S
C1216 O1214 1.240 . S
H1217 C1191 0.931 . S
H1218 C1200 0.931 . S
H1219 C1204 0.929 . S
H1220 C1206 0.930 1_556 S
Co1221 N1225 2.148 . S
Co1221 N1231 2.128 . S
Co1221 N1241 2.194 . S
Co1221 O1246 2.351 . S
Co1221 O1247 2.155 . S
Co1221 O1248 2.096 . S
C1222 N1225 1.301 . S
C1222 N1226 1.328 . S
C1222 H1227 0.930 . S
C1223 C1224 1.333 . S
C1223 N1225 1.317 . S
C1223 H1228 0.930 . S
C1224 C1223 1.333 . S
C1224 N1226 1.350 . S
C1224 H1250 0.931 . S
N1225 Co1221 2.148 . S
N1225 C1222 1.301 . S
N1225 C1223 1.317 . S
N1226 C1222 1.328 . S
N1226 C1224 1.350 . S
H1227 C1222 0.930 . S
H1228 C1223 0.930 . S
C1229 O1230 1.224 . S
C1229 O1248 1.247 . S
O1230 C1229 1.224 . S
N1231 Co1221 2.128 . S
N1231 C1232 1.355 . S
N1231 C1234 1.311 . S
C1232 N1231 1.355 . S
C1232 C1233 1.363 . S
C1232 H1244 0.929 . S
C1233 C1232 1.363 . S
C1233 N1235 1.375 . S
C1233 H1251 0.931 . S
C1234 N1231 1.311 . S
C1234 N1235 1.347 . S
C1234 H1245 0.929 . S
N1235 C1233 1.375 . S
N1235 C1234 1.347 . S
C1236 C1239 1.365 . S
C1236 N1241 1.328 . S
C1236 H1242 0.929 . S
C1237 C1238 1.362 . S
C1237 C1240 1.378 . S
C1237 H1252 0.929 . S
C1238 C1237 1.362 . S
C1238 C1239 1.366 . S
C1239 C1236 1.365 . S
C1239 C1238 1.366 . S
C1239 H1253 0.930 1_554 S
C1240 C1237 1.378 . S
C1240 N1241 1.315 . S
C1240 H1243 0.930 . S
N1241 Co1221 2.194 . S
N1241 C1236 1.328 . S
N1241 C1240 1.315 . S
H1242 C1236 0.929 . S
H1243 C1240 0.930 . S
H1244 C1232 0.929 . S
H1245 C1234 0.929 . S
O1246 Co1221 2.351 . S
O1246 C1249 1.244 . S
O1247 Co1221 2.155 . S
O1247 C1249 1.240 . S
O1248 Co1221 2.096 . S
O1248 C1229 1.247 . S
C1249 O1246 1.244 . S
C1249 O1247 1.240 . S
H1250 C1224 0.931 . S
H1251 C1233 0.931 . S
H1252 C1237 0.929 . S
H1253 C1239 0.930 1_556 S
Co1254 N1258 2.148 . S
Co1254 N1264 2.128 . S
Co1254 N1274 2.194 . S
Co1254 O1279 2.351 . S
Co1254 O1280 2.155 . S
Co1254 O1281 2.096 . S
C1255 N1258 1.301 . S
C1255 N1259 1.328 . S
C1255 H1260 0.930 . S
C1256 C1257 1.333 . S
C1256 N1258 1.317 . S
C1256 H1261 0.930 . S
C1257 C1256 1.333 . S
C1257 N1259 1.350 . S
C1257 H1283 0.931 . S
N1258 Co1254 2.148 . S
N1258 C1255 1.301 . S
N1258 C1256 1.317 . S
N1259 C1255 1.328 . S
N1259 C1257 1.350 . S
H1260 C1255 0.930 . S
H1261 C1256 0.930 . S
C1262 O1263 1.224 . S
C1262 O1281 1.247 . S
O1263 C1262 1.224 . S
N1264 Co1254 2.128 . S
N1264 C1265 1.355 . S
N1264 C1267 1.311 . S
C1265 N1264 1.355 . S
C1265 C1266 1.363 1_455 S
C1265 H1277 0.929 . S
C1266 C1265 1.363 1_655 S
C1266 N1268 1.375 . S
C1266 H1284 0.931 . S
C1267 N1264 1.311 . S
C1267 N1268 1.347 1_455 S
C1267 H1278 0.929 . S
N1268 C1266 1.375 . S
N1268 C1267 1.347 1_655 S
C1269 C1272 1.365 . S
C1269 N1274 1.328 . S
C1269 H1275 0.929 . S
C1270 C1271 1.362 . S
C1270 C1273 1.378 . S
C1270 H1285 0.929 . S
C1271 C1270 1.362 . S
C1271 C1272 1.366 . S
C1272 C1269 1.365 . S
C1272 C1271 1.366 . S
C1272 H1286 0.930 . S
C1273 C1270 1.378 . S
C1273 N1274 1.315 . S
C1273 H1276 0.930 . S
N1274 Co1254 2.194 . S
N1274 C1269 1.328 . S
N1274 C1273 1.315 . S
H1275 C1269 0.929 . S
H1276 C1273 0.930 . S
H1277 C1265 0.929 . S
H1278 C1267 0.929 . S
O1279 Co1254 2.351 . S
O1279 C1282 1.244 . S
O1280 Co1254 2.155 . S
O1280 C1282 1.240 . S
O1281 Co1254 2.096 . S
O1281 C1262 1.247 . S
C1282 O1279 1.244 . S
C1282 O1280 1.240 . S
H1283 C1257 0.931 . S
H1284 C1266 0.931 . S
H1285 C1270 0.929 . S
H1286 C1272 0.930 . S
Co1287 N1291 2.148 . S
Co1287 N1297 2.128 . S
Co1287 N1307 2.194 . S
Co1287 O1312 2.351 . S
Co1287 O1313 2.155 . S
Co1287 O1314 2.096 . S
C1288 N1291 1.301 . S
C1288 N1292 1.328 . S
C1288 H1293 0.930 . S
C1289 C1290 1.333 . S
C1289 N1291 1.317 . S
C1289 H1294 0.930 . S
C1290 C1289 1.333 . S
C1290 N1292 1.350 . S
C1290 H1316 0.931 . S
N1291 Co1287 2.148 . S
N1291 C1288 1.301 . S
N1291 C1289 1.317 . S
N1292 C1288 1.328 . S
N1292 C1290 1.350 . S
H1293 C1288 0.930 . S
H1294 C1289 0.930 . S
C1295 O1296 1.224 . S
C1295 O1314 1.247 . S
O1296 C1295 1.224 . S
N1297 Co1287 2.128 . S
N1297 C1298 1.355 . S
N1297 C1300 1.311 . S
C1298 N1297 1.355 . S
C1298 C1299 1.363 . S
C1298 H1310 0.929 . S
C1299 C1298 1.363 . S
C1299 N1301 1.375 . S
C1299 H1317 0.931 . S
C1300 N1297 1.311 . S
C1300 N1301 1.347 . S
C1300 H1311 0.929 . S
N1301 C1299 1.375 . S
N1301 C1300 1.347 . S
C1302 C1305 1.365 . S
C1302 N1307 1.328 . S
C1302 H1308 0.929 . S
C1303 C1304 1.362 . S
C1303 C1306 1.378 . S
C1303 H1318 0.929 . S
C1304 C1303 1.362 . S
C1304 C1305 1.366 . S
C1305 C1302 1.365 . S
C1305 C1304 1.366 . S
C1305 H1319 0.930 . S
C1306 C1303 1.378 . S
C1306 N1307 1.315 . S
C1306 H1309 0.930 . S
N1307 Co1287 2.194 . S
N1307 C1302 1.328 . S
N1307 C1306 1.315 . S
H1308 C1302 0.929 . S
H1309 C1306 0.930 . S
H1310 C1298 0.929 . S
H1311 C1300 0.929 . S
O1312 Co1287 2.351 . S
O1312 C1315 1.244 . S
O1313 Co1287 2.155 . S
O1313 C1315 1.240 . S
O1314 Co1287 2.096 . S
O1314 C1295 1.247 . S
C1315 O1312 1.244 . S
C1315 O1313 1.240 . S
H1316 C1290 0.931 . S
H1317 C1299 0.931 . S
H1318 C1303 0.929 . S
H1319 C1305 0.930 . S
Co1320 N1324 2.148 . S
Co1320 N1330 2.128 . S
Co1320 N1340 2.194 . S
Co1320 O1345 2.351 . S
Co1320 O1346 2.155 . S
Co1320 O1347 2.096 . S
C1321 N1324 1.301 . S
C1321 N1325 1.328 . S
C1321 H1326 0.930 . S
C1322 C1323 1.333 . S
C1322 N1324 1.317 . S
C1322 H1327 0.930 . S
C1323 C1322 1.333 . S
C1323 N1325 1.350 . S
C1323 H1349 0.931 . S
N1324 Co1320 2.148 . S
N1324 C1321 1.301 . S
N1324 C1322 1.317 . S
N1325 C1321 1.328 . S
N1325 C1323 1.350 . S
H1326 C1321 0.930 . S
H1327 C1322 0.930 . S
C1328 O1329 1.224 . S
C1328 O1347 1.247 . S
O1329 C1328 1.224 . S
N1330 Co1320 2.128 . S
N1330 C1331 1.355 . S
N1330 C1333 1.311 . S
C1331 N1330 1.355 . S
C1331 C1332 1.363 1_455 S
C1331 H1343 0.929 . S
C1332 C1331 1.363 1_655 S
C1332 N1334 1.375 . S
C1332 H1350 0.931 . S
C1333 N1330 1.311 . S
C1333 N1334 1.347 1_455 S
C1333 H1344 0.929 . S
N1334 C1332 1.375 . S
N1334 C1333 1.347 1_655 S
C1335 C1338 1.365 . S
C1335 N1340 1.328 . S
C1335 H1341 0.929 . S
C1336 C1337 1.362 . S
C1336 C1339 1.378 . S
C1336 H1351 0.929 . S
C1337 C1336 1.362 . S
C1337 C1338 1.366 . S
C1338 C1335 1.365 . S
C1338 C1337 1.366 . S
C1338 H1352 0.930 . S
C1339 C1336 1.378 . S
C1339 N1340 1.315 . S
C1339 H1342 0.930 . S
N1340 Co1320 2.194 . S
N1340 C1335 1.328 . S
N1340 C1339 1.315 . S
H1341 C1335 0.929 . S
H1342 C1339 0.930 . S
H1343 C1331 0.929 . S
H1344 C1333 0.929 . S
O1345 Co1320 2.351 . S
O1345 C1348 1.244 . S
O1346 Co1320 2.155 . S
O1346 C1348 1.240 . S
O1347 Co1320 2.096 . S
O1347 C1328 1.247 . S
C1348 O1345 1.244 . S
C1348 O1346 1.240 . S
H1349 C1323 0.931 . S
H1350 C1332 0.931 . S
H1351 C1336 0.929 . S
H1352 C1338 0.930 . S
Co1353 N1357 2.148 . S
Co1353 N1363 2.128 . S
Co1353 N1373 2.194 . S
Co1353 O1378 2.351 . S
Co1353 O1379 2.155 . S
Co1353 O1380 2.096 . S
C1354 N1357 1.301 . S
C1354 N1358 1.328 . S
C1354 H1359 0.930 . S
C1355 C1356 1.333 . S
C1355 N1357 1.317 . S
C1355 H1360 0.930 . S
C1356 C1355 1.333 . S
C1356 N1358 1.350 . S
C1356 H1382 0.931 . S
N1357 Co1353 2.148 . S
N1357 C1354 1.301 . S
N1357 C1355 1.317 . S
N1358 C1354 1.328 . S
N1358 C1356 1.350 . S
H1359 C1354 0.930 . S
H1360 C1355 0.930 . S
C1361 O1362 1.224 . S
C1361 O1380 1.247 . S
O1362 C1361 1.224 . S
N1363 Co1353 2.128 . S
N1363 C1364 1.355 . S
N1363 C1366 1.311 . S
C1364 N1363 1.355 . S
C1364 C1365 1.363 . S
C1364 H1376 0.929 . S
C1365 C1364 1.363 . S
C1365 N1367 1.375 . S
C1365 H1383 0.931 . S
C1366 N1363 1.311 . S
C1366 N1367 1.347 . S
C1366 H1377 0.929 . S
N1367 C1365 1.375 . S
N1367 C1366 1.347 . S
C1368 C1371 1.365 . S
C1368 N1373 1.328 . S
C1368 H1374 0.929 . S
C1369 C1370 1.362 . S
C1369 C1372 1.378 . S
C1369 H1384 0.929 . S
C1370 C1369 1.362 . S
C1370 C1371 1.366 . S
C1371 C1368 1.365 . S
C1371 C1370 1.366 . S
C1371 H1385 0.930 . S
C1372 C1369 1.378 . S
C1372 N1373 1.315 . S
C1372 H1375 0.930 . S
N1373 Co1353 2.194 . S
N1373 C1368 1.328 . S
N1373 C1372 1.315 . S
H1374 C1368 0.929 . S
H1375 C1372 0.930 . S
H1376 C1364 0.929 . S
H1377 C1366 0.929 . S
O1378 Co1353 2.351 . S
O1378 C1381 1.244 . S
O1379 Co1353 2.155 . S
O1379 C1381 1.240 . S
O1380 Co1353 2.096 . S
O1380 C1361 1.247 . S
C1381 O1378 1.244 . S
C1381 O1379 1.240 . S
H1382 C1356 0.931 . S
H1383 C1365 0.931 . S
H1384 C1369 0.929 . S
H1385 C1371 0.930 . S
Co1386 N1390 2.148 . S
Co1386 N1396 2.128 . S
Co1386 N1406 2.194 . S
Co1386 O1411 2.351 . S
Co1386 O1412 2.155 . S
Co1386 O1413 2.096 . S
C1387 N1390 1.301 . S
C1387 N1391 1.328 . S
C1387 H1392 0.930 . S
C1388 C1389 1.333 . S
C1388 N1390 1.317 . S
C1388 H1393 0.930 . S
C1389 C1388 1.333 . S
C1389 N1391 1.350 . S
C1389 H1415 0.931 . S
N1390 Co1386 2.148 . S
N1390 C1387 1.301 . S
N1390 C1388 1.317 . S
N1391 C1387 1.328 . S
N1391 C1389 1.350 . S
H1392 C1387 0.930 . S
H1393 C1388 0.930 . S
C1394 O1395 1.224 . S
C1394 O1413 1.247 . S
O1395 C1394 1.224 . S
N1396 Co1386 2.128 . S
N1396 C1397 1.355 . S
N1396 C1399 1.311 . S
C1397 N1396 1.355 . S
C1397 C1398 1.363 . S
C1397 H1409 0.929 . S
C1398 C1397 1.363 . S
C1398 N1400 1.375 . S
C1398 H1416 0.931 . S
C1399 N1396 1.311 . S
C1399 N1400 1.347 . S
C1399 H1410 0.929 . S
N1400 C1398 1.375 . S
N1400 C1399 1.347 . S
C1401 C1404 1.365 . S
C1401 N1406 1.328 . S
C1401 H1407 0.929 . S
C1402 C1403 1.362 . S
C1402 C1405 1.378 . S
C1402 H1417 0.929 1_554 S
C1403 C1402 1.362 . S
C1403 C1404 1.366 . S
C1404 C1401 1.365 . S
C1404 C1403 1.366 . S
C1404 H1418 0.930 . S
C1405 C1402 1.378 . S
C1405 N1406 1.315 . S
C1405 H1408 0.930 . S
N1406 Co1386 2.194 . S
N1406 C1401 1.328 . S
N1406 C1405 1.315 . S
H1407 C1401 0.929 . S
H1408 C1405 0.930 . S
H1409 C1397 0.929 . S
H1410 C1399 0.929 . S
O1411 Co1386 2.351 . S
O1411 C1414 1.244 . S
O1412 Co1386 2.155 . S
O1412 C1414 1.240 . S
O1413 Co1386 2.096 . S
O1413 C1394 1.247 . S
C1414 O1411 1.244 . S
C1414 O1412 1.240 . S
H1415 C1389 0.931 . S
H1416 C1398 0.931 . S
H1417 C1402 0.929 1_556 S
H1418 C1404 0.930 . S
Co1419 N1423 2.148 . S
Co1419 N1429 2.128 . S
Co1419 N1439 2.194 . S
Co1419 O1444 2.351 . S
Co1419 O1445 2.155 . S
Co1419 O1446 2.096 . S
C1420 N1423 1.301 . S
C1420 N1424 1.328 . S
C1420 H1425 0.930 . S
C1421 C1422 1.333 . S
C1421 N1423 1.317 . S
C1421 H1426 0.930 . S
C1422 C1421 1.333 . S
C1422 N1424 1.350 . S
C1422 H1448 0.931 . S
N1423 Co1419 2.148 . S
N1423 C1420 1.301 . S
N1423 C1421 1.317 . S
N1424 C1420 1.328 . S
N1424 C1422 1.350 . S
H1425 C1420 0.930 . S
H1426 C1421 0.930 . S
C1427 O1428 1.224 . S
C1427 O1446 1.247 . S
O1428 C1427 1.224 . S
N1429 Co1419 2.128 . S
N1429 C1430 1.355 . S
N1429 C1432 1.311 . S
C1430 N1429 1.355 . S
C1430 C1431 1.363 . S
C1430 H1442 0.929 . S
C1431 C1430 1.363 . S
C1431 N1433 1.375 . S
C1431 H1449 0.931 . S
C1432 N1429 1.311 . S
C1432 N1433 1.347 . S
C1432 H1443 0.929 . S
N1433 C1431 1.375 . S
N1433 C1432 1.347 . S
C1434 C1437 1.365 . S
C1434 N1439 1.328 . S
C1434 H1440 0.929 . S
C1435 C1436 1.362 . S
C1435 C1438 1.378 . S
C1435 H1450 0.929 . S
C1436 C1435 1.362 . S
C1436 C1437 1.366 . S
C1437 C1434 1.365 . S
C1437 C1436 1.366 . S
C1437 H1451 0.930 . S
C1438 C1435 1.378 . S
C1438 N1439 1.315 . S
C1438 H1441 0.930 . S
N1439 Co1419 2.194 . S
N1439 C1434 1.328 . S
N1439 C1438 1.315 . S
H1440 C1434 0.929 . S
H1441 C1438 0.930 . S
H1442 C1430 0.929 . S
H1443 C1432 0.929 . S
O1444 Co1419 2.351 . S
O1444 C1447 1.244 . S
O1445 Co1419 2.155 . S
O1445 C1447 1.240 . S
O1446 Co1419 2.096 . S
O1446 C1427 1.247 . S
C1447 O1444 1.244 . S
C1447 O1445 1.240 . S
H1448 C1422 0.931 . S
H1449 C1431 0.931 . S
H1450 C1435 0.929 . S
H1451 C1437 0.930 . S
Co1452 N1456 2.148 . S
Co1452 N1462 2.128 . S
Co1452 N1472 2.194 . S
Co1452 O1477 2.351 . S
Co1452 O1478 2.155 . S
Co1452 O1479 2.096 . S
C1453 N1456 1.301 . S
C1453 N1457 1.328 . S
C1453 H1458 0.930 . S
C1454 C1455 1.333 . S
C1454 N1456 1.317 . S
C1454 H1459 0.930 . S
C1455 C1454 1.333 . S
C1455 N1457 1.350 . S
C1455 H1481 0.931 . S
N1456 Co1452 2.148 . S
N1456 C1453 1.301 . S
N1456 C1454 1.317 . S
N1457 C1453 1.328 . S
N1457 C1455 1.350 . S
H1458 C1453 0.930 . S
H1459 C1454 0.930 . S
C1460 O1461 1.224 . S
C1460 O1479 1.247 . S
O1461 C1460 1.224 . S
N1462 Co1452 2.128 . S
N1462 C1463 1.355 . S
N1462 C1465 1.311 . S
C1463 N1462 1.355 . S
C1463 C1464 1.363 . S
C1463 H1475 0.929 . S
C1464 C1463 1.363 . S
C1464 N1466 1.375 . S
C1464 H1482 0.931 . S
C1465 N1462 1.311 . S
C1465 N1466 1.347 . S
C1465 H1476 0.929 . S
N1466 C1464 1.375 . S
N1466 C1465 1.347 . S
C1467 C1470 1.365 . S
C1467 N1472 1.328 . S
C1467 H1473 0.929 . S
C1468 C1469 1.362 . S
C1468 C1471 1.378 . S
C1468 H1483 0.929 . S
C1469 C1468 1.362 . S
C1469 C1470 1.366 . S
C1470 C1467 1.365 . S
C1470 C1469 1.366 . S
C1470 H1484 0.930 . S
C1471 C1468 1.378 . S
C1471 N1472 1.315 . S
C1471 H1474 0.930 . S
N1472 Co1452 2.194 . S
N1472 C1467 1.328 . S
N1472 C1471 1.315 . S
H1473 C1467 0.929 . S
H1474 C1471 0.930 . S
H1475 C1463 0.929 . S
H1476 C1465 0.929 . S
O1477 Co1452 2.351 . S
O1477 C1480 1.244 . S
O1478 Co1452 2.155 . S
O1478 C1480 1.240 . S
O1479 Co1452 2.096 . S
O1479 C1460 1.247 . S
C1480 O1477 1.244 . S
C1480 O1478 1.240 . S
H1481 C1455 0.931 . S
H1482 C1464 0.931 . S
H1483 C1468 0.929 . S
H1484 C1470 0.930 . S
Co1485 N1489 2.148 . S
Co1485 N1495 2.128 . S
Co1485 N1505 2.194 . S
Co1485 O1510 2.351 . S
Co1485 O1511 2.155 . S
Co1485 O1512 2.096 . S
C1486 N1489 1.301 . S
C1486 N1490 1.328 . S
C1486 H1491 0.930 . S
C1487 C1488 1.333 . S
C1487 N1489 1.317 . S
C1487 H1492 0.930 . S
C1488 C1487 1.333 . S
C1488 N1490 1.350 . S
C1488 H1514 0.931 . S
N1489 Co1485 2.148 . S
N1489 C1486 1.301 . S
N1489 C1487 1.317 . S
N1490 C1486 1.328 . S
N1490 C1488 1.350 . S
H1491 C1486 0.930 . S
H1492 C1487 0.930 . S
C1493 O1494 1.224 . S
C1493 O1512 1.247 . S
O1494 C1493 1.224 . S
N1495 Co1485 2.128 . S
N1495 C1496 1.355 . S
N1495 C1498 1.311 . S
C1496 N1495 1.355 . S
C1496 C1497 1.363 . S
C1496 H1508 0.929 . S
C1497 C1496 1.363 . S
C1497 N1499 1.375 . S
C1497 H1515 0.931 . S
C1498 N1495 1.311 . S
C1498 N1499 1.347 . S
C1498 H1509 0.929 . S
N1499 C1497 1.375 . S
N1499 C1498 1.347 . S
C1500 C1503 1.365 . S
C1500 N1505 1.328 . S
C1500 H1506 0.929 . S
C1501 C1502 1.362 . S
C1501 C1504 1.378 . S
C1501 H1516 0.929 1_556 S
C1502 C1501 1.362 . S
C1502 C1503 1.366 . S
C1503 C1500 1.365 . S
C1503 C1502 1.366 . S
C1503 H1517 0.930 . S
C1504 C1501 1.378 . S
C1504 N1505 1.315 . S
C1504 H1507 0.930 . S
N1505 Co1485 2.194 . S
N1505 C1500 1.328 . S
N1505 C1504 1.315 . S
H1506 C1500 0.929 . S
H1507 C1504 0.930 . S
H1508 C1496 0.929 . S
H1509 C1498 0.929 . S
O1510 Co1485 2.351 . S
O1510 C1513 1.244 . S
O1511 Co1485 2.155 . S
O1511 C1513 1.240 . S
O1512 Co1485 2.096 . S
O1512 C1493 1.247 . S
C1513 O1510 1.244 . S
C1513 O1511 1.240 . S
H1514 C1488 0.931 . S
H1515 C1497 0.931 . S
H1516 C1501 0.929 1_554 S
H1517 C1503 0.930 . S
Co1518 N1522 2.148 . S
Co1518 N1528 2.128 . S
Co1518 N1538 2.194 . S
Co1518 O1543 2.351 . S
Co1518 O1544 2.155 . S
Co1518 O1545 2.096 . S
C1519 N1522 1.301 . S
C1519 N1523 1.328 . S
C1519 H1524 0.930 . S
C1520 C1521 1.333 . S
C1520 N1522 1.317 . S
C1520 H1525 0.930 . S
C1521 C1520 1.333 . S
C1521 N1523 1.350 . S
C1521 H1547 0.931 . S
N1522 Co1518 2.148 . S
N1522 C1519 1.301 . S
N1522 C1520 1.317 . S
N1523 C1519 1.328 . S
N1523 C1521 1.350 . S
H1524 C1519 0.930 . S
H1525 C1520 0.930 . S
C1526 O1527 1.224 . S
C1526 O1545 1.247 . S
O1527 C1526 1.224 . S
N1528 Co1518 2.128 . S
N1528 C1529 1.355 . S
N1528 C1531 1.311 . S
C1529 N1528 1.355 . S
C1529 C1530 1.363 . S
C1529 H1541 0.929 . S
C1530 C1529 1.363 . S
C1530 N1532 1.375 . S
C1530 H1548 0.931 . S
C1531 N1528 1.311 . S
C1531 N1532 1.347 . S
C1531 H1542 0.929 . S
N1532 C1530 1.375 . S
N1532 C1531 1.347 . S
C1533 C1536 1.365 . S
C1533 N1538 1.328 . S
C1533 H1539 0.929 . S
C1534 C1535 1.362 . S
C1534 C1537 1.378 . S
C1534 H1549 0.929 . S
C1535 C1534 1.362 . S
C1535 C1536 1.366 . S
C1536 C1533 1.365 . S
C1536 C1535 1.366 . S
C1536 H1550 0.930 . S
C1537 C1534 1.378 . S
C1537 N1538 1.315 . S
C1537 H1540 0.930 . S
N1538 Co1518 2.194 . S
N1538 C1533 1.328 . S
N1538 C1537 1.315 . S
H1539 C1533 0.929 . S
H1540 C1537 0.930 . S
H1541 C1529 0.929 . S
H1542 C1531 0.929 . S
O1543 Co1518 2.351 . S
O1543 C1546 1.244 . S
O1544 Co1518 2.155 . S
O1544 C1546 1.240 . S
O1545 Co1518 2.096 . S
O1545 C1526 1.247 . S
C1546 O1543 1.244 . S
C1546 O1544 1.240 . S
H1547 C1521 0.931 . S
H1548 C1530 0.931 . S
H1549 C1534 0.929 . S
H1550 C1536 0.930 . S
Co1551 N1555 2.148 . S
Co1551 N1561 2.128 . S
Co1551 N1571 2.194 . S
Co1551 O1576 2.351 . S
Co1551 O1577 2.155 . S
Co1551 O1578 2.096 . S
C1552 N1555 1.301 . S
C1552 N1556 1.328 . S
C1552 H1557 0.930 . S
C1553 C1554 1.333 . S
C1553 N1555 1.317 . S
C1553 H1558 0.930 . S
C1554 C1553 1.333 . S
C1554 N1556 1.350 . S
C1554 H1580 0.931 . S
N1555 Co1551 2.148 . S
N1555 C1552 1.301 . S
N1555 C1553 1.317 . S
N1556 C1552 1.328 . S
N1556 C1554 1.350 . S
H1557 C1552 0.930 . S
H1558 C1553 0.930 . S
C1559 O1560 1.224 . S
C1559 O1578 1.247 . S
O1560 C1559 1.224 . S
N1561 Co1551 2.128 . S
N1561 C1562 1.355 . S
N1561 C1564 1.311 . S
C1562 N1561 1.355 . S
C1562 C1563 1.363 . S
C1562 H1574 0.929 . S
C1563 C1562 1.363 . S
C1563 N1565 1.375 . S
C1563 H1581 0.931 . S
C1564 N1561 1.311 . S
C1564 N1565 1.347 . S
C1564 H1575 0.929 . S
N1565 C1563 1.375 . S
N1565 C1564 1.347 . S
C1566 C1569 1.365 . S
C1566 N1571 1.328 . S
C1566 H1572 0.929 . S
C1567 C1568 1.362 . S
C1567 C1570 1.378 . S
C1567 H1582 0.929 . S
C1568 C1567 1.362 . S
C1568 C1569 1.366 . S
C1569 C1566 1.365 . S
C1569 C1568 1.366 . S
C1569 H1583 0.930 . S
C1570 C1567 1.378 . S
C1570 N1571 1.315 . S
C1570 H1573 0.930 . S
N1571 Co1551 2.194 . S
N1571 C1566 1.328 . S
N1571 C1570 1.315 . S
H1572 C1566 0.929 . S
H1573 C1570 0.930 . S
H1574 C1562 0.929 . S
H1575 C1564 0.929 . S
O1576 Co1551 2.351 . S
O1576 C1579 1.244 . S
O1577 Co1551 2.155 . S
O1577 C1579 1.240 . S
O1578 Co1551 2.096 . S
O1578 C1559 1.247 . S
C1579 O1576 1.244 . S
C1579 O1577 1.240 . S
H1580 C1554 0.931 . S
H1581 C1563 0.931 . S
H1582 C1567 0.929 . S
H1583 C1569 0.930 . S
N14 C1262 1.406 . S
N47 C1196 1.496 . S
N71 C1579 1.253 . S
C1130 N113 1.512 . S
N137 C1328 1.401 . S
C1084 N170 1.289 . S
N203 C1361 1.341 . S
N245 C1018 1.325 . S
C998 N278 1.416 . S
N302 C1348 1.277 . S
N344 C1064 1.379 . S
C1381 N368 1.264 . S
N401 C1216 1.346 . S
N443 C1559 1.447 . S
C1150 N467 1.373 . S
N509 C1282 1.322 . S
C820 N377 1.371 . S
C721 N533 1.230 . S
N575 C919 1.330 . S
C787 N599 1.229 . S
C800 N410 1.463 . S
N311 C754 1.393 . S
C767 N632 1.369 . S
C701 N665 1.375 . S
C589 N698 1.205 . S
C503 N740 1.445 . S
C1480 N764 1.192 . S
N806 C437 1.477 . S
C635 N839 1.475 . S
N872 C391 1.303 . S
C668 N905 1.466 . S
C325 N938 1.340 . S
C305 N971 1.409 . S
C655 N995 1.314 . S
N1037 C371 1.455 . S
N1061 C688 1.311 . S
N1094 C523 1.294 . S
N1136 C1460 1.406 . S
N1169 C457 1.402 . S
N1202 C569 1.390 . S
C127 N1070 1.374 . S
C8 N1226 1.417 . S
C206 N1259 1.404 . S
C94 N1292 1.270 . S
N1103 C107 1.453 . S
C61 N1004 1.393 . S
C74 N1325 1.314 . S
N1358 C28 1.247 . S
C1163 N179 1.421 . S
C1295 N212 1.498 . S
N236 C1117 1.266 . S
C1229 N146 1.515 . S
N104 C1031 1.405 . S
N5 C1546 1.276 . S
C965 N38 1.344 . S
N80 C1513 1.309 . S
N674 C1493 1.427 . S
N1391 C1051 1.323 . S
N641 C1526 1.390 . S
C985 N1424 1.306 . S
N1457 C1315 1.300 . S
N542 C1097 1.437 . S
C1249 N566 1.326 . S
N608 C1183 1.311 . S
C833 N1433 1.494 . S
N434 C886 1.245 . S
N476 C734 1.452 . S
C952 N500 1.246 . S
C853 N1466 1.341 . S
C899 N1400 1.518 . S
N335 C932 1.351 . S
C866 N269 1.358 . S
C490 N863 1.238 . S
C602 N896 1.406 . S
C424 N929 1.225 . S
N830 C536 1.442 . S
C338 N797 1.439 . S
N707 C1447 1.335 . S
C272 N731 1.432 . S
C1414 N773 1.371 . S
C1394 N1367 1.442 . S
N1490 C358 1.293 . S
C1427 N1334 1.488 . S
N1523 C292 1.289 . S
C622 N1556 1.273 . S
C404 N1235 1.440 . S
N1268 C556 1.385 . S
C470 N1301 1.424 . S
N1532 C160 1.358 . S
C173 N1127 1.406 . S
C41 N1160 1.420 . S
N1193 C259 1.260 . S
N1565 C140 1.437 . S
N1499 C226 1.376 . S
N1028 C239 1.305 . S
C193 N962 1.239 . S
C248 C17 1.623 1_655 S
C149 C50 1.690 1_455 S
C182 C83 1.623 . S
C215 C116 1.690 . S
C413 C281 1.655 1_565 S
C446 C314 1.649 . S
C479 C347 1.681 1_545 S
C512 C380 1.634 1_556 S
C1403 C545 1.662 1_554 S
C578 C644 1.669 . S
C611 C1436 1.646 . S
C677 C1469 1.640 . S
C710 C941 1.622 1_655 S
C842 C743 1.682 1_655 S
C875 C776 1.624 . S
C908 C809 1.679 . S
C1106 C974 1.650 1_545 S
C1007 C1139 1.662 . S
C1040 C1172 1.644 1_545 S
C1073 C1205 1.646 1_556 S
C1502 C1238 1.672 1_556 S
C1337 C1271 1.655 . S
C1304 C1535 1.656 . S
C1568 C1370 1.660 . S
