# Generated by pormake.
# Topology ilc, (8)-cn, num edge types: 1
# Building blocks:
#     Node 0, Type 0, BuildingBlock: EYACOX_clean_sbu_0, # of connection points: 8
#     Node 1, Type 0, BuildingBlock: EYACOX_clean_sbu_0, # of connection points: 8
#     Node 2, Type 0, BuildingBlock: EYACOX_clean_sbu_0, # of connection points: 8
#     Edge 3, Type (0, 0), BuildingBlock: UVAHIK_clean_linker_0, # of connection points: 2
#     Edge 4, Type (0, 0), BuildingBlock: UVAHIK_clean_linker_0, # of connection points: 2
#     Edge 5, Type (0, 0), BuildingBlock: UVAHIK_clean_linker_0, # of connection points: 2
#     Edge 6, Type (0, 0), BuildingBlock: UVAHIK_clean_linker_0, # of connection points: 2
#     Edge 7, Type (0, 0), BuildingBlock: UVAHIK_clean_linker_0, # of connection points: 2
#     Edge 8, Type (0, 0), BuildingBlock: UVAHIK_clean_linker_0, # of connection points: 2
#     Edge 9, Type (0, 0), BuildingBlock: UVAHIK_clean_linker_0, # of connection points: 2
#     Edge 10, Type (0, 0), BuildingBlock: UVAHIK_clean_linker_0, # of connection points: 2
#     Edge 11, Type (0, 0), BuildingBlock: UVAHIK_clean_linker_0, # of connection points: 2
#     Edge 12, Type (0, 0), BuildingBlock: UVAHIK_clean_linker_0, # of connection points: 2
#     Edge 13, Type (0, 0), BuildingBlock: UVAHIK_clean_linker_0, # of connection points: 2
#     Edge 14, Type (0, 0), BuildingBlock: UVAHIK_clean_linker_0, # of connection points: 2
# Relax obj value: 0.091
# Max RMSD: 0.168
# Mean RMSD: 0.168
data_MOF--net-ilc--node1-EYACOX_clean_sbu_0--edge1-UVAHIK_clean_linker_0
_symmetry_space_group_name_H-M    P1
_symmetry_Int_Tables_number       1
_symmetry_cell_setting            triclinic
loop_
_symmetry_equiv_pos_as_xyz
'x, y, z'
_cell_length_a     32.40897
_cell_length_b     27.78297
_cell_length_c     23.960494
_cell_angle_alpha  85.241224
_cell_angle_beta   117.03082
_cell_angle_gamma 127.43242
loop_
_atom_site_label
_atom_site_type_symbol
_atom_site_fract_x
_atom_site_fract_y
_atom_site_fract_z
_atom_type_partial_charge
Eu0 Eu 0.95902 0.9322 0.00093 0.0
Eu1 Eu 0.06503 0.98768 0.96228 0.0
O2 O 0.90895 0.95032 0.01871 0.0
O3 O 0.89419 0.86394 0.03091 0.0
O4 O 0.99991 0.88164 0.93326 0.0
O5 O 0.91371 0.86344 0.90859 0.0
O6 O 0.95231 0.99148 0.9326 0.0
O7 O 0.99645 0.99059 0.88042 0.0
C8 C 0.89004 0.91245 0.10349 0.0
C9 C 0.89753 0.9337 0.22127 0.0
C10 C 0.85207 0.87327 0.17823 0.0
C11 C 0.84779 0.86264 0.11881 0.0
C12 C 0.93899 0.98383 0.20639 0.0
C13 C 0.93599 0.97323 0.14798 0.0
C14 C 0.88457 0.9011 0.04024 0.0
C15 C 0.94083 0.84585 0.90134 0.0
O16 O 0.08791 0.97502 0.89524 0.0
O17 O 0.15749 0.05545 0.98051 0.0
C18 C 0.96299 0.00048 0.88434 0.0
O19 O 0.08737 0.06972 0.01788 0.0
O20 O 0.04919 0.01456 0.08121 0.0
O21 O 0.09524 0.96042 0.05468 0.0
O22 O 1.00642 0.89453 0.05671 0.0
C23 C 0.16917 0.06549 0.88789 0.0
C24 C 0.16903 0.12789 0.80993 0.0
C25 C 0.14556 0.09308 0.84882 0.0
C26 C 0.21577 0.13464 0.81065 0.0
C27 C 0.23764 0.10509 0.84665 0.0
C28 C 0.21432 0.07058 0.88553 0.0
C29 C 0.14414 0.02659 0.92722 0.0
C30 C 0.08507 0.06789 0.07133 0.0
C31 C 0.06189 0.91746 0.07715 0.0
H32 H 0.90006 0.94212 0.26661 0.0
H33 H 0.81192 0.81607 0.08481 0.0
H34 H 0.96863 0.01225 0.137 0.0
H35 H 0.10833 0.08614 0.84741 0.0
H36 H 0.23172 0.15863 0.77816 0.0
H37 H 0.23036 0.0467 0.91279 0.0
Eu38 Eu 0.63625 0.27639 0.33912 0.0
Eu39 Eu 0.73839 0.32599 0.29649 0.0
O40 O 0.59356 0.30123 0.36393 0.0
O41 O 0.57131 0.21075 0.37005 0.0
O42 O 0.666 0.22038 0.25987 0.0
O43 O 0.58517 0.2105 0.24186 0.0
O44 O 0.63276 0.33924 0.27431 0.0
O45 O 0.67481 0.33774 0.2194 0.0
C46 C 0.57621 0.26333 0.44954 0.0
C47 C 0.59076 0.28549 0.57163 0.0
C48 C 0.54194 0.22568 0.52755 0.0
C49 C 0.53427 0.21477 0.46599 0.0
C50 C 0.6316 0.33466 0.55544 0.0
C51 C 0.62504 0.32358 0.49482 0.0
C52 C 0.5672 0.25158 0.38418 0.0
C53 C 0.60771 0.18998 0.22829 0.0
O54 O 0.75806 0.31112 0.22705 0.0
O55 O 0.83074 0.38948 0.31427 0.0
C56 C 0.64335 0.34934 0.22593 0.0
O57 O 0.76625 0.40987 0.35625 0.0
O58 O 0.72939 0.35394 0.41976 0.0
O59 O 0.76544 0.29371 0.38583 0.0
O60 O 0.67598 0.22964 0.38641 0.0
C61 C 0.84186 0.39896 0.22133 0.0
C62 C 0.84911 0.46736 0.14896 0.0
C63 C 0.82443 0.43315 0.18725 0.0
C64 C 0.89068 0.46675 0.14517 0.0
C65 C 0.90592 0.43046 0.17594 0.0
C66 C 0.88163 0.39681 0.21441 0.0
C67 C 0.81532 0.36034 0.25968 0.0
C68 C 0.76577 0.40761 0.41082 0.0
C69 C 0.73051 0.24993 0.40634 0.0
H70 H 0.59567 0.29477 0.61832 0.0
H71 H 0.49578 0.16894 0.43104 0.0
H72 H 0.65712 0.36196 0.48278 0.0
H73 H 0.79086 0.43167 0.18904 0.0
H74 H 0.90709 0.49019 0.1128 0.0
H75 H 0.89251 0.3678 0.23761 0.0
Eu76 Eu 0.29479 0.60089 0.66844 0.0
Eu77 Eu 0.40382 0.66136 0.63436 0.0
O78 O 0.24314 0.61565 0.6873 0.0
O79 O 0.22714 0.52793 0.69272 0.0
O80 O 0.34097 0.55528 0.6052 0.0
O81 O 0.2529 0.53424 0.57652 0.0
O82 O 0.28567 0.65795 0.59829 0.0
O83 O 0.33471 0.66211 0.55012 0.0
C84 C 0.22097 0.57031 0.76801 0.0
C85 C 0.22648 0.5818 0.8867 0.0
C86 C 0.18062 0.52348 0.83971 0.0
C87 C 0.1774 0.51787 0.77983 0.0
C88 C 0.26882 0.63459 0.87502 0.0
C89 C 0.2668 0.6289 0.81612 0.0
C90 C 0.21728 0.56389 0.70489 0.0
C91 C 0.28181 0.51837 0.57102 0.0
O92 O 0.43127 0.64791 0.57336 0.0
O93 O 0.49556 0.73365 0.65174 0.0
C94 C 0.2985 0.66892 0.55158 0.0
O95 O 0.42119 0.7415 0.68645 0.0
O96 O 0.38283 0.68524 0.74905 0.0
O97 O 0.43545 0.63798 0.72913 0.0
O98 O 0.34498 0.5667 0.72681 0.0
C99 C 0.50815 0.73784 0.56042 0.0
C100 C 0.50739 0.79863 0.48102 0.0
C101 C 0.48661 0.76769 0.52314 0.0
C102 C 0.54951 0.79934 0.47676 0.0
C103 C 0.56873 0.7671 0.51084 0.0
C104 C 0.54817 0.73654 0.55299 0.0
C105 C 0.48546 0.70255 0.60277 0.0
C106 C 0.41713 0.73917 0.73881 0.0
C107 C 0.40192 0.59331 0.75027 0.0
H108 H 0.22788 0.58688 0.93213 0.0
H109 H 0.14119 0.47314 0.74269 0.0
H110 H 0.30015 0.67003 0.80763 0.0
H111 H 0.45275 0.76526 0.52542 0.0
H112 H 0.56334 0.82039 0.44195 0.0
H113 H 0.5622 0.71062 0.57878 0.0
C114 C 0.08072 0.10245 0.70726 0.0
C115 C 0.13978 0.14838 0.75906 0.0
C116 C 0.06157 0.11384 0.64625 0.0
C117 C 0.13477 0.20254 0.55414 0.0
H118 H 0.96865 0.10789 0.41421 0.0
C119 C 0.964 0.07859 0.2575 0.0
C120 C 0.98363 0.04647 0.25348 0.0
C121 C 0.9936 0.12107 0.31604 0.0
C122 C 1.01564 0.13615 0.45246 0.0
H123 H 0.22179 0.24516 0.79087 0.0
H124 H 0.18788 0.26577 0.685 0.0
H125 H 0.99311 0.12553 0.5264 0.0
H126 H 0.05285 0.03823 0.30425 0.0
H127 H 0.10495 0.11242 0.40635 0.0
H128 H 0.15682 0.21084 0.48005 0.0
C129 C 0.15693 0.22031 0.69058 0.0
C130 C 1.02949 0.14556 0.51701 0.0
C131 C 0.17605 0.20883 0.75148 0.0
C132 C 0.03749 0.06317 0.30606 0.0
C133 C 0.06713 0.10562 0.36468 0.0
C134 C 0.12092 0.1932 0.48951 0.0
C135 C 0.10113 0.17154 0.63621 0.0
C136 C 0.08873 0.17613 0.56875 0.0
C137 C 0.04294 0.13156 0.37163 0.0
C138 C 0.06072 0.15717 0.43799 0.0
H139 H 0.05199 0.05536 0.7116 0.0
H140 H 1.01819 0.07506 0.60568 0.0
H141 H 0.18098 0.22622 0.59254 0.0
H142 H 0.92215 0.06589 0.21759 0.0
H143 H 0.97463 0.14132 0.31936 0.0
C144 C 0.73014 0.41143 0.65606 0.0
C145 C 0.67806 0.39748 0.60261 0.0
C146 C 0.76061 0.45462 0.71448 0.0
C147 C 0.71288 0.49546 0.79966 0.0
H148 H 0.87464 0.57342 0.94212 0.0
C149 C 0.86581 0.55478 0.09784 0.0
C150 C 0.82506 0.49428 0.10223 0.0
C151 C 0.85012 0.57009 0.03867 0.0
C152 C 0.82959 0.55332 0.90312 0.0
H153 H 0.62073 0.4223 0.56512 0.0
H154 H 0.67466 0.49897 0.66661 0.0
H155 H 0.85211 0.55732 0.83056 0.0
H156 H 0.7334 0.40601 0.05148 0.0
H157 H 0.70564 0.43231 0.94863 0.0
H158 H 0.68966 0.48884 0.87219 0.0
C159 C 0.69155 0.47596 0.66416 0.0
C160 C 0.81658 0.5435 0.83893 0.0
C161 C 0.66122 0.43284 0.60573 0.0
C162 C 0.76555 0.45306 0.04956 0.0
C163 C 0.74985 0.46823 0.99028 0.0
C164 C 0.72589 0.50534 0.86384 0.0
C165 C 0.73901 0.48408 0.72047 0.0
C166 C 0.75732 0.51141 0.78646 0.0
C167 C 0.7934 0.52511 0.98291 0.0
C168 C 0.7836 0.53129 0.91641 0.0
H169 H 0.74331 0.38397 0.65495 0.0
H170 H 0.79684 0.45936 0.75662 0.0
H171 H 0.66658 0.47041 0.76073 0.0
H172 H 0.91201 0.5875 0.13796 0.0
H173 H 0.8842 0.61498 0.03525 0.0
C174 C 0.29313 0.72832 0.92755 0.0
C175 C 0.31221 0.69518 0.92497 0.0
C176 C 0.32174 0.77046 0.98587 0.0
C177 C 0.45021 0.84671 0.15806 0.0
H178 H 0.3271 0.79213 0.19832 0.0
C179 C 0.41779 0.77489 0.38241 0.0
C180 C 0.47846 0.82003 0.43147 0.0
C181 C 0.39687 0.78442 0.32072 0.0
C182 C 0.3622 0.80859 0.18789 0.0
H183 H 0.37837 0.6831 0.97882 0.0
H184 H 0.42908 0.75708 0.08048 0.0
H185 H 0.29888 0.76545 0.08575 0.0
H186 H 0.5619 0.91449 0.45853 0.0
H187 H 0.52491 0.93225 0.35166 0.0
H188 H 0.5127 0.88513 0.26039 0.0
C189 C 0.39253 0.75139 0.03778 0.0
C190 C 0.34615 0.79386 0.12314 0.0
C191 C 0.36377 0.70917 0.97951 0.0
C192 C 0.51497 0.87878 0.42118 0.0
C193 C 0.49399 0.88854 0.35968 0.0
C194 C 0.46624 0.86134 0.22275 0.0
C195 C 0.36975 0.77986 0.04254 0.0
C196 C 0.3895 0.81002 0.10787 0.0
C197 C 0.43629 0.83951 0.30742 0.0
C198 C 0.42191 0.83969 0.2388 0.0
H199 H 0.25275 0.71734 0.88618 0.0
H200 H 0.30374 0.79238 0.98772 0.0
H201 H 0.48482 0.86079 0.14777 0.0
H202 H 0.38878 0.72912 0.389 0.0
H203 H 0.35204 0.74557 0.28196 0.0
C204 C 0.29616 0.71809 0.45867 0.0
C205 C 0.27276 0.69159 0.49998 0.0
C206 C 0.27318 0.74146 0.41147 0.0
C207 C 0.13957 0.72937 0.31451 0.0
H208 H 0.25156 0.89628 0.30238 0.0
C209 C 0.05806 0.85574 0.15989 0.0
C210 C 0.08707 0.89264 0.12605 0.0
C211 C 0.08093 0.83098 0.20484 0.0
C212 C 0.21958 0.84922 0.30433 0.0
H213 H 0.20617 0.66791 0.52327 0.0
H214 H 0.16572 0.70809 0.44039 0.0
H215 H 0.29034 0.85191 0.38016 0.0
H216 H 0.16281 0.93217 0.11277 0.0
H217 H 0.20184 0.88785 0.18989 0.0
H218 H 0.06875 0.72593 0.23815 0.0
C219 C 0.20186 0.71078 0.44465 0.0
C220 C 0.24189 0.82391 0.34905 0.0
C221 C 0.22528 0.68811 0.49235 0.0
C222 C 0.13959 0.90436 0.13835 0.0
C223 C 0.16215 0.87912 0.18287 0.0
C224 C 0.11722 0.75436 0.26931 0.0
C225 C 0.22584 0.73809 0.40405 0.0
C226 C 0.20212 0.76394 0.35492 0.0
C227 C 0.13308 0.842 0.21666 0.0
C228 C 0.15693 0.81484 0.26393 0.0
H229 H 0.33284 0.72166 0.46331 0.0
H230 H 0.29222 0.76185 0.38049 0.0
H231 H 0.10788 0.68266 0.31742 0.0
H232 H 1.01775 0.84613 0.15195 0.0
H233 H 0.05795 0.80367 0.23079 0.0
C234 C 0.19996 0.44009 0.46225 0.0
C235 C 0.24887 0.45971 0.52439 0.0
C236 C 0.17757 0.39253 0.41355 0.0
C237 C 0.23604 0.33012 0.37377 0.0
H238 H 0.07199 0.21062 0.2287 0.0
C239 C 0.15216 0.13112 0.18531 0.0
C240 C 0.11794 0.12503 0.11967 0.0
C241 C 0.17 0.17469 0.23409 0.0
C242 C 0.11805 0.24446 0.26871 0.0
H243 H 0.30846 0.44127 0.58719 0.0
H244 H 0.2676 0.35631 0.50333 0.0
H245 H 0.09269 0.27294 0.31889 0.0
H246 H 0.07596 0.15935 0.05251 0.0
H247 H 0.10702 0.23608 0.13867 0.0
H248 H 0.26109 0.30063 0.32433 0.0
C249 C 0.24821 0.37921 0.49103 0.0
C250 C 0.12985 0.27981 0.32029 0.0
C251 C 0.27132 0.42746 0.53911 0.0
C252 C 0.10375 0.16474 0.10304 0.0
C253 C 0.12057 0.20761 0.15203 0.0
C254 C 0.22414 0.29444 0.32272 0.0
C255 C 0.20336 0.36356 0.42692 0.0
C256 C 0.18906 0.32304 0.37338 0.0
C257 C 0.15259 0.21169 0.21779 0.0
C258 C 0.16521 0.25162 0.26977 0.0
H259 H 0.18213 0.46458 0.44999 0.0
H260 H 0.14301 0.38157 0.36463 0.0
H261 H 0.28242 0.36415 0.41304 0.0
H262 H 0.16225 0.09975 0.19882 0.0
H263 H 0.19437 0.17689 0.28454 0.0
C264 C 0.65812 0.81323 0.49998 0.0
C265 C 0.60371 0.75964 0.49432 0.0
C266 C 0.6838 0.808 0.46971 0.0
C267 C 0.637 0.71192 0.32525 0.0
H268 H 0.80958 0.81685 0.39669 0.0
C269 C 0.82959 0.80477 0.25149 0.0
C270 C 0.80872 0.82394 0.19691 0.0
C271 C 0.79817 0.77709 0.28487 0.0
C272 C 0.76115 0.78618 0.37603 0.0
H273 H 0.53451 0.65838 0.45481 0.0
H274 H 0.57942 0.64905 0.40147 0.0
H275 H 0.77161 0.80797 0.46758 0.0
H276 H 0.73694 0.82557 0.1316 0.0
H277 H 0.68167 0.7771 0.18962 0.0
H278 H 0.62674 0.69192 0.2331 0.0
C279 C 0.60232 0.69504 0.4296 0.0
C280 C 0.73948 0.78167 0.4167 0.0
C281 C 0.57706 0.70023 0.46075 0.0
C282 C 0.75317 0.80995 0.1728 0.0
C283 C 0.72177 0.78246 0.20637 0.0
C284 C 0.65874 0.71675 0.28436 0.0
C285 C 0.65508 0.74913 0.43227 0.0
C286 C 0.67729 0.74579 0.39152 0.0
C287 C 0.74562 0.76875 0.26474 0.0
C288 C 0.7212 0.75512 0.30898 0.0
H289 H 0.67896 0.8596 0.52482 0.0
H290 H 0.72411 0.85066 0.47223 0.0
H291 H 0.58882 0.68425 0.30421 0.0
H292 H 0.87277 0.81589 0.27137 0.0
H293 H 0.81716 0.76598 0.32889 0.0
C294 C 0.72511 0.18849 0.48927 0.0
C295 C 0.75363 0.223 0.45415 0.0
C296 C 0.7475 0.16395 0.53519 0.0
C297 C 0.83729 0.11371 0.58048 0.0
H298 H 0.85997 0.14027 0.75179 0.0
C299 C 0.95915 0.04798 0.79027 0.0
C300 C 0.93786 0.0242 0.83366 0.0
C301 C 0.93646 0.07176 0.74344 0.0
C302 C 0.85307 0.1315 0.70392 0.0
H303 H 0.8276 0.25805 0.43918 0.0
H304 H 0.86617 0.21444 0.5189 0.0
H305 H 0.81995 0.18169 0.67064 0.0
H306 H 0.87515 0.00563 0.86098 0.0
H307 H 0.83436 0.04533 0.77827 0.0
H308 H 0.86919 0.06249 0.61298 0.0
C309 C 0.82658 0.2066 0.51086 0.0
C310 C 0.83034 0.15549 0.65753 0.0
C311 C 0.80466 0.23185 0.46551 0.0
C312 C 0.89289 0.02405 0.82866 0.0
C313 C 0.86976 0.04723 0.78141 0.0
C314 C 0.85941 0.08909 0.62663 0.0
C315 C 0.79841 0.1727 0.5464 0.0
C316 C 0.82231 0.14693 0.59541 0.0
C317 C 0.8915 0.07179 0.73843 0.0
C318 C 0.86768 0.09772 0.68902 0.0
H319 H 0.6858 0.18093 0.48184 0.0
H320 H 0.72463 0.13757 0.56155 0.0
H321 H 0.83092 0.10586 0.53269 0.0
H322 H 0.99411 0.0492 0.79304 0.0
H323 H 0.95503 0.09114 0.71195 0.0
C324 C 0.8272 0.46661 0.52573 0.0
C325 C 0.79847 0.46423 0.45994 0.0
C326 C 0.84288 0.50909 0.57362 0.0
C327 C 0.79032 0.5837 0.5976 0.0
H328 H 0.94522 0.68708 0.75829 0.0
C329 C 0.86254 0.77192 0.79035 0.0
C330 C 0.90606 0.78653 0.85471 0.0
C331 C 0.84183 0.72532 0.742 0.0
C332 C 0.90121 0.65747 0.71433 0.0
H333 H 0.76504 0.50488 0.39192 0.0
H334 H 0.79266 0.58001 0.47646 0.0
H335 H 0.93088 0.62763 0.67286 0.0
H336 H 0.95705 0.76029 0.92129 0.0
H337 H 0.91872 0.67685 0.83786 0.0
H338 H 0.76021 0.61264 0.63953 0.0
C339 C 0.8033 0.54916 0.49068 0.0
C340 C 0.89342 0.62414 0.66517 0.0
C341 C 0.78852 0.50719 0.44266 0.0
C342 C 0.9239 0.75 0.87156 0.0
C343 C 0.90234 0.70272 0.82371 0.0
C344 C 0.79794 0.61674 0.64716 0.0
C345 C 0.82906 0.54907 0.55625 0.0
C346 C 0.83807 0.58719 0.60641 0.0
C347 C 0.86389 0.6924 0.75791 0.0
C348 C 0.85351 0.65392 0.70616 0.0
H349 H 0.83415 0.43291 0.5397 0.0
H350 H 0.86233 0.50792 0.62382 0.0
H351 H 0.74677 0.55432 0.553 0.0
H352 H 0.84859 0.80003 0.77653 0.0
H353 H 0.81226 0.71864 0.69181 0.0
C354 C 0.51704 0.16486 0.60581 0.0
C355 C 0.49719 0.17846 0.54602 0.0
C356 C 0.48182 0.1385 0.63503 0.0
C357 C 0.37922 0.14952 0.644 0.0
H358 H 0.36923 0.04016 0.75825 0.0
C359 C 0.32982 0.16207 0.83846 0.0
C360 C 0.27875 0.10488 0.83503 0.0
C361 C 0.35759 0.16254 0.80757 0.0
C362 C 0.37162 0.07064 0.72638 0.0
H363 H 0.42293 0.17005 0.4671 0.0
H364 H 0.36078 0.12325 0.51775 0.0
H365 H 0.40651 0.04736 0.68596 0.0
H366 H 0.22002 0.0033 0.80182 0.0
H367 H 0.26949 0.00408 0.74843 0.0
H368 H 0.34581 0.17401 0.68488 0.0
C369 C 0.40384 0.13348 0.54234 0.0
C370 C 0.39288 0.07477 0.68507 0.0
C371 C 0.43898 0.1595 0.5129 0.0
C372 C 0.25976 0.048 0.80579 0.0
C373 C 0.28778 0.04847 0.77487 0.0
C374 C 0.35885 0.14602 0.68563 0.0
C375 C 0.42628 0.12576 0.60523 0.0
C376 C 0.39729 0.11467 0.64372 0.0
C377 C 0.33493 0.10584 0.77265 0.0
C378 C 0.35561 0.10732 0.72796 0.0
H379 H 0.56201 0.17947 0.63243 0.0
H380 H 0.50055 0.13337 0.68347 0.0
H381 H 0.38294 0.18151 0.61371 0.0
H382 H 0.34533 0.20654 0.86075 0.0
H383 H 0.39465 0.20745 0.80775 0.0
C384 C 0.57385 0.37385 0.17267 0.0
C385 C 0.61947 0.37528 0.17745 0.0
C386 C 0.55079 0.39768 0.12642 0.0
C387 C 0.58811 0.5095 0.02925 0.0
H388 H 0.41461 0.40928 0.919 0.0
C389 C 0.48219 0.58441 0.81479 0.0
C390 C 0.42865 0.57096 0.80115 0.0
C391 C 0.50606 0.56111 0.86099 0.0
C392 C 0.46316 0.43841 0.95003 0.0
H393 H 0.67716 0.40356 0.13786 0.0
H394 H 0.63735 0.44606 0.05774 0.0
H395 H 0.45518 0.36776 -0.00067 0.0
H396 H 0.35902 0.52389 0.8266 0.0
H397 H 0.40156 0.485 0.9085 0.0
H398 H 0.59643 0.58084 0.98136 0.0
C399 C 0.61939 0.42621 0.08969 0.0
C400 C 0.48633 0.41439 0.99583 0.0
C401 C 0.6419 0.40157 0.13533 0.0
C402 C 0.40007 0.53464 0.83552 0.0
C403 C 0.4243 0.51196 0.88225 0.0
C404 C 0.56498 0.53391 0.984 0.0
C405 C 0.57342 0.42422 0.08462 0.0
C406 C 0.549 0.44967 0.03583 0.0
C407 C 0.47734 0.52439 0.89522 0.0
C408 C 0.50216 0.49866 0.94372 0.0
H409 H 0.55551 0.3538 0.20426 0.0
H410 H 0.51568 0.39603 0.12384 0.0
H411 H 0.63664 0.53794 0.06001 0.0
H412 H 0.50509 0.61185 0.7888 0.0
H413 H 0.54641 0.57088 0.86883 0.0
C414 C 0.46926 0.79913 0.85096 0.0
C415 C 0.44494 0.79567 0.78445 0.0
C416 C 0.48079 0.84199 0.89395 0.0
C417 C 0.49445 0.98215 0.9148 0.0
H418 H 0.45308 0.91392 0.04624 0.0
C419 C 0.52655 0.1266 0.11344 0.0
C420 C 0.56844 0.13344 0.17504 0.0
C421 C 0.49883 0.08006 0.05954 0.0
C422 C 0.46406 0.93314 0.00929 0.0
H423 H 0.41613 0.83573 0.7105 0.0
H424 H 0.4358 0.91107 0.78601 0.0
H425 H 0.43432 0.84707 0.96293 0.0
H426 H 0.61144 0.0955 0.23037 0.0
H427 H 0.56107 0.01247 0.1369 0.0
H428 H 0.52469 0.0686 0.96219 0.0
C429 C 0.44671 0.88114 0.80506 0.0
C430 C 0.4541 0.89533 0.96213 0.0
C431 C 0.43591 0.83852 0.76195 0.0
C432 C 0.57907 0.09072 0.18316 0.0
C433 C 0.55025 0.04334 0.12983 0.0
C434 C 0.50375 0.01984 0.96171 0.0
C435 C 0.46702 0.88145 0.87106 0.0
C436 C 0.47129 0.92007 0.91587 0.0
C437 C 0.51159 0.03905 0.0673 0.0
C438 C 0.49037 0.99609 0.01048 0.0
H439 H 0.47646 0.76633 0.86918 0.0
H440 H 0.49839 0.84248 0.94484 0.0
H441 H 0.50808 0.00254 0.87981 0.0
H442 H 0.5184 0.15972 0.10627 0.0
H443 H 0.46907 0.07738 0.01164 0.0
C444 C 0.15197 0.45489 0.91119 0.0
C445 C 0.13397 0.47205 0.85348 0.0
C446 C 0.11572 0.42675 0.93915 0.0
C447 C 1.01895 0.44452 0.952 0.0
H448 H 1.00819 0.33572 0.067 0.0
C449 C 0.9928 0.47553 0.1607 0.0
C450 C 0.94022 0.42223 0.15879 0.0
C451 C 1.01459 0.46961 0.12547 0.0
C452 C 1.01073 0.36596 0.03482 0.0
H453 H 0.0614 0.46697 0.77585 0.0
H454 H 0.99735 0.41687 0.82413 0.0
H455 H 0.0392 0.33671 0.98998 0.0
H456 H 0.87259 0.32045 0.1238 0.0
H457 H 0.91169 0.30998 0.06282 0.0
H458 H 0.99265 0.47543 -0.00221 0.0
C459 C 0.03979 0.4258 0.84821 0.0
C460 C 1.02832 0.36649 0.99079 0.0
C461 C 0.07603 0.45375 0.8201 0.0
C462 C 0.91357 0.36222 0.12658 0.0
C463 C 0.93564 0.35625 0.09136 0.0
C464 C 1.0023 0.44459 -0.0037 0.0
C465 C 0.06104 0.41576 0.91004 0.0
C466 C 1.03336 0.40648 0.94947 0.0
C467 C 0.98441 0.41026 0.08783 0.0
C468 C 0.9992 0.40637 0.03907 0.0
H469 H 0.19673 0.46897 0.93794 0.0
H470 H 0.13351 0.41975 0.98676 0.0
H471 H 1.02335 0.47671 0.92185 0.0
H472 H 1.01424 0.52227 0.18532 0.0
H473 H 0.05296 0.51191 0.12444 0.0
loop_
_geom_bond_atom_site_label_1
_geom_bond_atom_site_label_2
_geom_bond_distance
_geom_bond_site_symmetry_2
_ccdc_geom_bond_type
Eu0 O2 2.472 . S
Eu0 O3 2.507 . S
Eu0 O5 2.336 1_554 S
Eu0 O6 2.398 1_554 S
Eu0 C14 2.835 . S
Eu0 O20 2.396 1_665 S
Eu0 O22 2.323 1_655 S
Eu1 O4 2.396 1_445 S
Eu1 O7 2.323 1_455 S
Eu1 O16 2.472 . S
Eu1 O17 2.507 . S
Eu1 O19 2.336 1_556 S
Eu1 O21 2.402 1_556 S
Eu1 C29 2.835 . S
O2 Eu0 2.472 . S
O2 C14 1.258 . S
O3 Eu0 2.507 . S
O3 C14 1.246 . S
O4 Eu1 2.396 1_665 S
O4 C15 1.216 . S
O5 Eu0 2.336 1_556 S
O5 C15 1.279 . S
O6 Eu0 2.398 1_556 S
O6 C18 1.239 1_565 S
O7 Eu1 2.323 1_655 S
O7 C18 1.249 . S
C8 C11 1.390 . S
C8 C13 1.370 . S
C8 C14 1.489 . S
C9 C10 1.344 . S
C9 C12 1.413 . S
C9 H32 0.931 . S
C10 C9 1.344 . S
C10 C11 1.423 . S
C11 C8 1.390 . S
C11 C10 1.423 . S
C11 H33 0.930 . S
C12 C9 1.413 . S
C12 C13 1.397 . S
C13 C8 1.370 . S
C13 C12 1.397 . S
C13 H34 0.932 . S
C14 Eu0 2.835 . S
C14 O2 1.258 . S
C14 O3 1.246 . S
C14 C8 1.489 . S
C15 O4 1.216 . S
C15 O5 1.279 . S
O16 Eu1 2.472 . S
O16 C29 1.258 . S
O17 Eu1 2.507 . S
O17 C29 1.246 . S
C18 O6 1.239 1_545 S
C18 O7 1.249 . S
O19 Eu1 2.336 1_554 S
O19 C30 1.279 . S
O20 Eu0 2.396 1_445 S
O20 C30 1.216 . S
O21 Eu1 2.402 1_554 S
O21 C31 1.238 1_545 S
O22 Eu0 2.323 1_455 S
O22 C31 1.249 . S
C23 C25 1.370 . S
C23 C28 1.390 . S
C23 C29 1.489 . S
C24 C25 1.397 . S
C24 C26 1.413 . S
C25 C23 1.370 . S
C25 C24 1.397 . S
C25 H35 0.932 . S
C26 C24 1.413 . S
C26 C27 1.344 . S
C26 H36 0.931 . S
C27 C26 1.344 . S
C27 C28 1.423 . S
C28 C23 1.390 . S
C28 C27 1.423 . S
C28 H37 0.930 . S
C29 Eu1 2.835 . S
C29 O16 1.258 . S
C29 O17 1.246 . S
C29 C23 1.489 . S
C30 O19 1.279 . S
C30 O20 1.216 . S
C31 O21 1.238 1_565 S
C31 O22 1.249 . S
H32 C9 0.931 . S
H33 C11 0.930 . S
H34 C13 0.932 . S
H35 C25 0.932 . S
H36 C26 0.931 . S
H37 C28 0.930 . S
Eu38 O40 2.472 . S
Eu38 O41 2.507 . S
Eu38 O43 2.336 . S
Eu38 O44 2.389 . S
Eu38 C52 2.835 . S
Eu38 O58 2.396 . S
Eu38 O60 2.323 . S
Eu39 O42 2.396 . S
Eu39 O45 2.323 . S
Eu39 O54 2.472 . S
Eu39 O55 2.507 . S
Eu39 O57 2.336 . S
Eu39 O59 2.389 . S
Eu39 C67 2.835 . S
O40 Eu38 2.472 . S
O40 C52 1.258 . S
O41 Eu38 2.507 . S
O41 C52 1.246 . S
O42 Eu39 2.396 . S
O42 C53 1.216 . S
O43 Eu38 2.336 . S
O43 C53 1.279 . S
O44 Eu38 2.389 . S
O44 C56 1.239 . S
O45 Eu39 2.323 . S
O45 C56 1.249 . S
C46 C49 1.390 . S
C46 C51 1.370 . S
C46 C52 1.489 . S
C47 C48 1.344 . S
C47 C50 1.413 . S
C47 H70 0.931 . S
C48 C47 1.344 . S
C48 C49 1.423 . S
C49 C46 1.390 . S
C49 C48 1.423 . S
C49 H71 0.930 . S
C50 C47 1.413 . S
C50 C51 1.397 . S
C51 C46 1.370 . S
C51 C50 1.397 . S
C51 H72 0.932 . S
C52 Eu38 2.835 . S
C52 O40 1.258 . S
C52 O41 1.246 . S
C52 C46 1.489 . S
C53 O42 1.216 . S
C53 O43 1.279 . S
O54 Eu39 2.472 . S
O54 C67 1.258 . S
O55 Eu39 2.507 . S
O55 C67 1.246 . S
C56 O44 1.239 . S
C56 O45 1.249 . S
O57 Eu39 2.336 . S
O57 C68 1.279 . S
O58 Eu38 2.396 . S
O58 C68 1.216 . S
O59 Eu39 2.389 . S
O59 C69 1.239 . S
O60 Eu38 2.323 . S
O60 C69 1.249 . S
C61 C63 1.370 . S
C61 C66 1.390 . S
C61 C67 1.489 . S
C62 C63 1.397 . S
C62 C64 1.413 . S
C63 C61 1.370 . S
C63 C62 1.397 . S
C63 H73 0.932 . S
C64 C62 1.413 . S
C64 C65 1.344 . S
C64 H74 0.931 . S
C65 C64 1.344 . S
C65 C66 1.423 . S
C66 C61 1.390 . S
C66 C65 1.423 . S
C66 H75 0.930 . S
C67 Eu39 2.835 . S
C67 O54 1.258 . S
C67 O55 1.246 . S
C67 C61 1.489 . S
C68 O57 1.279 . S
C68 O58 1.216 . S
C69 O59 1.239 . S
C69 O60 1.249 . S
H70 C47 0.931 . S
H71 C49 0.930 . S
H72 C51 0.932 . S
H73 C63 0.932 . S
H74 C64 0.931 . S
H75 C66 0.930 . S
Eu76 O78 2.472 . S
Eu76 O79 2.507 . S
Eu76 O81 2.336 . S
Eu76 O82 2.389 . S
Eu76 C90 2.835 . S
Eu76 O96 2.396 . S
Eu76 O98 2.323 . S
Eu77 O80 2.396 . S
Eu77 O83 2.323 . S
Eu77 O92 2.472 . S
Eu77 O93 2.507 . S
Eu77 O95 2.336 . S
Eu77 O97 2.389 . S
Eu77 C105 2.835 . S
O78 Eu76 2.472 . S
O78 C90 1.258 . S
O79 Eu76 2.507 . S
O79 C90 1.246 . S
O80 Eu77 2.396 . S
O80 C91 1.216 . S
O81 Eu76 2.336 . S
O81 C91 1.279 . S
O82 Eu76 2.389 . S
O82 C94 1.239 . S
O83 Eu77 2.323 . S
O83 C94 1.249 . S
C84 C87 1.390 . S
C84 C89 1.370 . S
C84 C90 1.489 . S
C85 C86 1.344 . S
C85 C88 1.413 . S
C85 H108 0.931 . S
C86 C85 1.344 . S
C86 C87 1.423 . S
C87 C84 1.390 . S
C87 C86 1.423 . S
C87 H109 0.930 . S
C88 C85 1.413 . S
C88 C89 1.397 . S
C89 C84 1.370 . S
C89 C88 1.397 . S
C89 H110 0.932 . S
C90 Eu76 2.835 . S
C90 O78 1.258 . S
C90 O79 1.246 . S
C90 C84 1.489 . S
C91 O80 1.216 . S
C91 O81 1.279 . S
O92 Eu77 2.472 . S
O92 C105 1.258 . S
O93 Eu77 2.507 . S
O93 C105 1.246 . S
C94 O82 1.239 . S
C94 O83 1.249 . S
O95 Eu77 2.336 . S
O95 C106 1.279 . S
O96 Eu76 2.396 . S
O96 C106 1.216 . S
O97 Eu77 2.389 . S
O97 C107 1.239 . S
O98 Eu76 2.323 . S
O98 C107 1.249 . S
C99 C101 1.370 . S
C99 C104 1.390 . S
C99 C105 1.489 . S
C100 C101 1.397 . S
C100 C102 1.413 . S
C101 C99 1.370 . S
C101 C100 1.397 . S
C101 H111 0.932 . S
C102 C100 1.413 . S
C102 C103 1.344 . S
C102 H112 0.931 . S
C103 C102 1.344 . S
C103 C104 1.423 . S
C104 C99 1.390 . S
C104 C103 1.423 . S
C104 H113 0.930 . S
C105 Eu77 2.835 . S
C105 O92 1.258 . S
C105 O93 1.246 . S
C105 C99 1.489 . S
C106 O95 1.279 . S
C106 O96 1.216 . S
C107 O97 1.239 . S
C107 O98 1.249 . S
H108 C85 0.931 . S
H109 C87 0.930 . S
H110 C89 0.932 . S
H111 C101 0.932 . S
H112 C102 0.931 . S
H113 C104 0.930 . S
C114 C115 1.349 . S
C114 C116 1.327 . S
C114 H139 0.950 . S
C115 C114 1.349 . S
C115 C131 1.349 . S
C116 C114 1.327 . S
C116 C135 1.429 . S
C116 H140 0.950 1_445 S
C117 C134 1.574 . S
C117 C136 1.368 . S
C117 H141 0.949 . S
H118 C122 0.949 . S
C119 C120 1.349 . S
C119 C121 1.327 . S
C119 H142 0.950 . S
C120 C119 1.349 . S
C120 C132 1.349 . S
C121 C119 1.327 . S
C121 C137 1.429 . S
C121 H143 0.950 1_665 S
C122 H118 0.949 . S
C122 C130 1.574 . S
C122 C138 1.368 . S
H123 C131 0.950 . S
H124 C129 0.950 . S
H125 C130 0.949 . S
H126 C132 0.950 . S
H127 C133 0.950 . S
H128 C134 0.949 . S
C129 H124 0.950 . S
C129 C131 1.327 . S
C129 C135 1.429 . S
C130 C122 1.574 . S
C130 H125 0.949 . S
C130 C136 1.368 1_665 S
C131 C115 1.349 . S
C131 H123 0.950 . S
C131 C129 1.327 . S
C132 C120 1.349 . S
C132 H126 0.950 . S
C132 C133 1.327 . S
C133 H127 0.950 . S
C133 C132 1.327 . S
C133 C137 1.429 . S
C134 C117 1.574 . S
C134 H128 0.949 . S
C134 C138 1.368 1_445 S
C135 C116 1.429 . S
C135 C129 1.429 . S
C135 C136 1.523 . S
C136 C117 1.368 . S
C136 C130 1.368 1_445 S
C136 C135 1.523 . S
C137 C121 1.429 . S
C137 C133 1.429 . S
C137 C138 1.523 . S
C138 C122 1.368 . S
C138 C134 1.368 1_665 S
C138 C137 1.523 . S
H139 C114 0.950 . S
H140 C116 0.950 1_665 S
H141 C117 0.949 . S
H142 C119 0.950 . S
H143 C121 0.950 1_445 S
C144 C145 1.349 . S
C144 C146 1.327 . S
C144 H169 0.950 . S
C145 C144 1.349 . S
C145 C161 1.349 . S
C146 C144 1.327 . S
C146 C165 1.429 . S
C146 H170 0.950 . S
C147 C164 1.574 . S
C147 C166 1.368 . S
C147 H171 0.949 . S
H148 C152 0.949 . S
C149 C150 1.349 . S
C149 C151 1.327 1_554 S
C149 H172 0.950 . S
C150 C149 1.349 . S
C150 C162 1.349 . S
C151 C149 1.327 1_556 S
C151 C167 1.429 . S
C151 H173 0.950 . S
C152 H148 0.949 . S
C152 C160 1.574 . S
C152 C168 1.368 . S
H153 C161 0.950 . S
H154 C159 0.950 . S
H155 C160 0.949 . S
H156 C162 0.950 . S
H157 C163 0.950 1_556 S
H158 C164 0.949 . S
C159 H154 0.950 . S
C159 C161 1.327 . S
C159 C165 1.429 . S
C160 C152 1.574 . S
C160 H155 0.949 . S
C160 C166 1.368 . S
C161 C145 1.349 . S
C161 H153 0.950 . S
C161 C159 1.327 . S
C162 C150 1.349 . S
C162 H156 0.950 . S
C162 C163 1.327 . S
C163 H157 0.950 1_554 S
C163 C162 1.327 . S
C163 C167 1.429 1_554 S
C164 C147 1.574 . S
C164 H158 0.949 . S
C164 C168 1.368 . S
C165 C146 1.429 . S
C165 C159 1.429 . S
C165 C166 1.523 . S
C166 C147 1.368 . S
C166 C160 1.368 . S
C166 C165 1.523 . S
C167 C151 1.429 . S
C167 C163 1.429 1_556 S
C167 C168 1.523 . S
C168 C152 1.368 . S
C168 C164 1.368 . S
C168 C167 1.523 . S
H169 C144 0.950 . S
H170 C146 0.950 . S
H171 C147 0.949 . S
H172 C149 0.950 . S
H173 C151 0.950 . S
C174 C175 1.349 . S
C174 C176 1.327 . S
C174 H199 0.950 . S
C175 C174 1.349 . S
C175 C191 1.349 . S
C176 C174 1.327 . S
C176 C195 1.429 1_556 S
C176 H200 0.950 . S
C177 C194 1.574 . S
C177 C196 1.368 . S
C177 H201 0.949 . S
H178 C182 0.949 . S
C179 C180 1.349 . S
C179 C181 1.327 . S
C179 H202 0.950 . S
C180 C179 1.349 . S
C180 C192 1.349 . S
C181 C179 1.327 . S
C181 C197 1.429 . S
C181 H203 0.950 . S
C182 H178 0.949 . S
C182 C190 1.574 . S
C182 C198 1.368 . S
H183 C191 0.950 . S
H184 C189 0.950 . S
H185 C190 0.949 . S
H186 C192 0.950 . S
H187 C193 0.950 . S
H188 C194 0.949 . S
C189 H184 0.950 . S
C189 C191 1.327 1_554 S
C189 C195 1.429 . S
C190 C182 1.574 . S
C190 H185 0.949 . S
C190 C196 1.368 . S
C191 C175 1.349 . S
C191 H183 0.950 . S
C191 C189 1.327 1_556 S
C192 C180 1.349 . S
C192 H186 0.950 . S
C192 C193 1.327 . S
C193 H187 0.950 . S
C193 C192 1.327 . S
C193 C197 1.429 . S
C194 C177 1.574 . S
C194 H188 0.949 . S
C194 C198 1.368 . S
C195 C176 1.429 1_554 S
C195 C189 1.429 . S
C195 C196 1.523 . S
C196 C177 1.368 . S
C196 C190 1.368 . S
C196 C195 1.523 . S
C197 C181 1.429 . S
C197 C193 1.429 . S
C197 C198 1.523 . S
C198 C182 1.368 . S
C198 C194 1.368 . S
C198 C197 1.523 . S
H199 C174 0.950 . S
H200 C176 0.950 . S
H201 C177 0.949 . S
H202 C179 0.950 . S
H203 C181 0.950 . S
C204 C205 1.349 . S
C204 C206 1.327 . S
C204 H229 0.950 . S
C205 C204 1.349 . S
C205 C221 1.349 . S
C206 C204 1.327 . S
C206 C225 1.429 . S
C206 H230 0.950 . S
C207 C224 1.574 . S
C207 C226 1.368 . S
C207 H231 0.949 . S
H208 C212 0.949 . S
C209 C210 1.349 . S
C209 C211 1.327 . S
C209 H232 0.950 . S
C210 C209 1.349 . S
C210 C222 1.349 . S
C211 C209 1.327 . S
C211 C227 1.429 . S
C211 H233 0.950 . S
C212 H208 0.949 . S
C212 C220 1.574 . S
C212 C228 1.368 . S
H213 C221 0.950 . S
H214 C219 0.950 . S
H215 C220 0.949 . S
H216 C222 0.950 1_545 S
H217 C223 0.950 . S
H218 C224 0.949 . S
C219 H214 0.950 . S
C219 C221 1.327 . S
C219 C225 1.429 . S
C220 C212 1.574 . S
C220 H215 0.949 . S
C220 C226 1.368 . S
C221 C205 1.349 . S
C221 H213 0.950 . S
C221 C219 1.327 . S
C222 C210 1.349 . S
C222 H216 0.950 1_565 S
C222 C223 1.327 . S
C223 H217 0.950 . S
C223 C222 1.327 . S
C223 C227 1.429 . S
C224 C207 1.574 . S
C224 H218 0.949 . S
C224 C228 1.368 . S
C225 C206 1.429 . S
C225 C219 1.429 . S
C225 C226 1.523 . S
C226 C207 1.368 . S
C226 C220 1.368 . S
C226 C225 1.523 . S
C227 C211 1.429 . S
C227 C223 1.429 . S
C227 C228 1.523 . S
C228 C212 1.368 . S
C228 C224 1.368 . S
C228 C227 1.523 . S
H229 C204 0.950 . S
H230 C206 0.950 . S
H231 C207 0.949 . S
H232 C209 0.950 . S
H233 C211 0.950 . S
C234 C235 1.349 . S
C234 C236 1.327 . S
C234 H259 0.950 . S
C235 C234 1.349 . S
C235 C251 1.349 . S
C236 C234 1.327 . S
C236 C255 1.429 . S
C236 H260 0.950 . S
C237 C254 1.574 . S
C237 C256 1.368 . S
C237 H261 0.949 . S
H238 C242 0.949 . S
C239 C240 1.349 . S
C239 C241 1.327 . S
C239 H262 0.950 . S
C240 C239 1.349 . S
C240 C252 1.349 . S
C241 C239 1.327 . S
C241 C257 1.429 . S
C241 H263 0.950 . S
C242 H238 0.949 . S
C242 C250 1.574 . S
C242 C258 1.368 . S
H243 C251 0.950 . S
H244 C249 0.950 . S
H245 C250 0.949 . S
H246 C252 0.950 . S
H247 C253 0.950 . S
H248 C254 0.949 . S
C249 H244 0.950 . S
C249 C251 1.327 . S
C249 C255 1.429 . S
C250 C242 1.574 . S
C250 H245 0.949 . S
C250 C256 1.368 . S
C251 C235 1.349 . S
C251 H243 0.950 . S
C251 C249 1.327 . S
C252 C240 1.349 . S
C252 H246 0.950 . S
C252 C253 1.327 . S
C253 H247 0.950 . S
C253 C252 1.327 . S
C253 C257 1.429 . S
C254 C237 1.574 . S
C254 H248 0.949 . S
C254 C258 1.368 . S
C255 C236 1.429 . S
C255 C249 1.429 . S
C255 C256 1.523 . S
C256 C237 1.368 . S
C256 C250 1.368 . S
C256 C255 1.523 . S
C257 C241 1.429 . S
C257 C253 1.429 . S
C257 C258 1.523 . S
C258 C242 1.368 . S
C258 C254 1.368 . S
C258 C257 1.523 . S
H259 C234 0.950 . S
H260 C236 0.950 . S
H261 C237 0.949 . S
H262 C239 0.950 . S
H263 C241 0.950 . S
C264 C265 1.349 . S
C264 C266 1.327 . S
C264 H289 0.950 . S
C265 C264 1.349 . S
C265 C281 1.349 . S
C266 C264 1.327 . S
C266 C285 1.429 . S
C266 H290 0.950 . S
C267 C284 1.574 . S
C267 C286 1.368 . S
C267 H291 0.949 . S
H268 C272 0.949 . S
C269 C270 1.349 . S
C269 C271 1.327 . S
C269 H292 0.950 . S
C270 C269 1.349 . S
C270 C282 1.349 . S
C271 C269 1.327 . S
C271 C287 1.429 . S
C271 H293 0.950 . S
C272 H268 0.949 . S
C272 C280 1.574 . S
C272 C288 1.368 . S
H273 C281 0.950 . S
H274 C279 0.950 . S
H275 C280 0.949 . S
H276 C282 0.950 . S
H277 C283 0.950 . S
H278 C284 0.949 . S
C279 H274 0.950 . S
C279 C281 1.327 . S
C279 C285 1.429 . S
C280 C272 1.574 . S
C280 H275 0.949 . S
C280 C286 1.368 . S
C281 C265 1.349 . S
C281 H273 0.950 . S
C281 C279 1.327 . S
C282 C270 1.349 . S
C282 H276 0.950 . S
C282 C283 1.327 . S
C283 H277 0.950 . S
C283 C282 1.327 . S
C283 C287 1.429 . S
C284 C267 1.574 . S
C284 H278 0.949 . S
C284 C288 1.368 . S
C285 C266 1.429 . S
C285 C279 1.429 . S
C285 C286 1.523 . S
C286 C267 1.368 . S
C286 C280 1.368 . S
C286 C285 1.523 . S
C287 C271 1.429 . S
C287 C283 1.429 . S
C287 C288 1.523 . S
C288 C272 1.368 . S
C288 C284 1.368 . S
C288 C287 1.523 . S
H289 C264 0.950 . S
H290 C266 0.950 . S
H291 C267 0.949 . S
H292 C269 0.950 . S
H293 C271 0.950 . S
C294 C295 1.349 . S
C294 C296 1.327 . S
C294 H319 0.950 . S
C295 C294 1.349 . S
C295 C311 1.349 . S
C296 C294 1.327 . S
C296 C315 1.429 . S
C296 H320 0.950 . S
C297 C314 1.574 . S
C297 C316 1.368 . S
C297 H321 0.949 . S
H298 C302 0.949 . S
C299 C300 1.349 . S
C299 C301 1.327 . S
C299 H322 0.950 . S
C300 C299 1.349 . S
C300 C312 1.349 . S
C301 C299 1.327 . S
C301 C317 1.429 . S
C301 H323 0.950 . S
C302 H298 0.949 . S
C302 C310 1.574 . S
C302 C318 1.368 . S
H303 C311 0.950 . S
H304 C309 0.950 . S
H305 C310 0.949 . S
H306 C312 0.950 . S
H307 C313 0.950 . S
H308 C314 0.949 . S
C309 H304 0.950 . S
C309 C311 1.327 . S
C309 C315 1.429 . S
C310 C302 1.574 . S
C310 H305 0.949 . S
C310 C316 1.368 . S
C311 C295 1.349 . S
C311 H303 0.950 . S
C311 C309 1.327 . S
C312 C300 1.349 . S
C312 H306 0.950 . S
C312 C313 1.327 . S
C313 H307 0.950 . S
C313 C312 1.327 . S
C313 C317 1.429 . S
C314 C297 1.574 . S
C314 H308 0.949 . S
C314 C318 1.368 . S
C315 C296 1.429 . S
C315 C309 1.429 . S
C315 C316 1.523 . S
C316 C297 1.368 . S
C316 C310 1.368 . S
C316 C315 1.523 . S
C317 C301 1.429 . S
C317 C313 1.429 . S
C317 C318 1.523 . S
C318 C302 1.368 . S
C318 C314 1.368 . S
C318 C317 1.523 . S
H319 C294 0.950 . S
H320 C296 0.950 . S
H321 C297 0.949 . S
H322 C299 0.950 . S
H323 C301 0.950 . S
C324 C325 1.349 . S
C324 C326 1.327 . S
C324 H349 0.950 . S
C325 C324 1.349 . S
C325 C341 1.349 . S
C326 C324 1.327 . S
C326 C345 1.429 . S
C326 H350 0.950 . S
C327 C344 1.574 . S
C327 C346 1.368 . S
C327 H351 0.949 . S
H328 C332 0.949 . S
C329 C330 1.349 . S
C329 C331 1.327 . S
C329 H352 0.950 . S
C330 C329 1.349 . S
C330 C342 1.349 . S
C331 C329 1.327 . S
C331 C347 1.429 . S
C331 H353 0.950 . S
C332 H328 0.949 . S
C332 C340 1.574 . S
C332 C348 1.368 . S
H333 C341 0.950 . S
H334 C339 0.950 . S
H335 C340 0.949 . S
H336 C342 0.950 . S
H337 C343 0.950 . S
H338 C344 0.949 . S
C339 H334 0.950 . S
C339 C341 1.327 . S
C339 C345 1.429 . S
C340 C332 1.574 . S
C340 H335 0.949 . S
C340 C346 1.368 . S
C341 C325 1.349 . S
C341 H333 0.950 . S
C341 C339 1.327 . S
C342 C330 1.349 . S
C342 H336 0.950 . S
C342 C343 1.327 . S
C343 H337 0.950 . S
C343 C342 1.327 . S
C343 C347 1.429 . S
C344 C327 1.574 . S
C344 H338 0.949 . S
C344 C348 1.368 . S
C345 C326 1.429 . S
C345 C339 1.429 . S
C345 C346 1.523 . S
C346 C327 1.368 . S
C346 C340 1.368 . S
C346 C345 1.523 . S
C347 C331 1.429 . S
C347 C343 1.429 . S
C347 C348 1.523 . S
C348 C332 1.368 . S
C348 C344 1.368 . S
C348 C347 1.523 . S
H349 C324 0.950 . S
H350 C326 0.950 . S
H351 C327 0.949 . S
H352 C329 0.950 . S
H353 C331 0.950 . S
C354 C355 1.349 . S
C354 C356 1.327 . S
C354 H379 0.950 . S
C355 C354 1.349 . S
C355 C371 1.349 . S
C356 C354 1.327 . S
C356 C375 1.429 . S
C356 H380 0.950 . S
C357 C374 1.574 . S
C357 C376 1.368 . S
C357 H381 0.949 . S
H358 C362 0.949 . S
C359 C360 1.349 . S
C359 C361 1.327 . S
C359 H382 0.950 . S
C360 C359 1.349 . S
C360 C372 1.349 . S
C361 C359 1.327 . S
C361 C377 1.429 . S
C361 H383 0.950 . S
C362 H358 0.949 . S
C362 C370 1.574 . S
C362 C378 1.368 . S
H363 C371 0.950 . S
H364 C369 0.950 . S
H365 C370 0.949 . S
H366 C372 0.950 . S
H367 C373 0.950 . S
H368 C374 0.949 . S
C369 H364 0.950 . S
C369 C371 1.327 . S
C369 C375 1.429 . S
C370 C362 1.574 . S
C370 H365 0.949 . S
C370 C376 1.368 . S
C371 C355 1.349 . S
C371 H363 0.950 . S
C371 C369 1.327 . S
C372 C360 1.349 . S
C372 H366 0.950 . S
C372 C373 1.327 . S
C373 H367 0.950 . S
C373 C372 1.327 . S
C373 C377 1.429 . S
C374 C357 1.574 . S
C374 H368 0.949 . S
C374 C378 1.368 . S
C375 C356 1.429 . S
C375 C369 1.429 . S
C375 C376 1.523 . S
C376 C357 1.368 . S
C376 C370 1.368 . S
C376 C375 1.523 . S
C377 C361 1.429 . S
C377 C373 1.429 . S
C377 C378 1.523 . S
C378 C362 1.368 . S
C378 C374 1.368 . S
C378 C377 1.523 . S
H379 C354 0.950 . S
H380 C356 0.950 . S
H381 C357 0.949 . S
H382 C359 0.950 . S
H383 C361 0.950 . S
C384 C385 1.349 . S
C384 C386 1.327 . S
C384 H409 0.950 . S
C385 C384 1.349 . S
C385 C401 1.349 . S
C386 C384 1.327 . S
C386 C405 1.429 . S
C386 H410 0.950 . S
C387 C404 1.574 . S
C387 C406 1.368 . S
C387 H411 0.949 . S
H388 C392 0.949 . S
C389 C390 1.349 . S
C389 C391 1.327 . S
C389 H412 0.950 . S
C390 C389 1.349 . S
C390 C402 1.349 . S
C391 C389 1.327 . S
C391 C407 1.429 . S
C391 H413 0.950 . S
C392 H388 0.949 . S
C392 C400 1.574 . S
C392 C408 1.368 . S
H393 C401 0.950 . S
H394 C399 0.950 . S
H395 C400 0.949 . S
H396 C402 0.950 . S
H397 C403 0.950 . S
H398 C404 0.949 . S
C399 H394 0.950 . S
C399 C401 1.327 . S
C399 C405 1.429 . S
C400 C392 1.574 . S
C400 H395 0.949 . S
C400 C406 1.368 1_556 S
C401 C385 1.349 . S
C401 H393 0.950 . S
C401 C399 1.327 . S
C402 C390 1.349 . S
C402 H396 0.950 . S
C402 C403 1.327 . S
C403 H397 0.950 . S
C403 C402 1.327 . S
C403 C407 1.429 . S
C404 C387 1.574 . S
C404 H398 0.949 . S
C404 C408 1.368 1_554 S
C405 C386 1.429 . S
C405 C399 1.429 . S
C405 C406 1.523 . S
C406 C387 1.368 . S
C406 C400 1.368 1_554 S
C406 C405 1.523 . S
C407 C391 1.429 . S
C407 C403 1.429 . S
C407 C408 1.523 . S
C408 C392 1.368 . S
C408 C404 1.368 1_556 S
C408 C407 1.523 . S
H409 C384 0.950 . S
H410 C386 0.950 . S
H411 C387 0.949 . S
H412 C389 0.950 . S
H413 C391 0.950 . S
C414 C415 1.349 . S
C414 C416 1.327 . S
C414 H439 0.950 . S
C415 C414 1.349 . S
C415 C431 1.349 . S
C416 C414 1.327 . S
C416 C435 1.429 . S
C416 H440 0.950 . S
C417 C434 1.574 1_556 S
C417 C436 1.368 1_545 S
C417 H441 0.949 . S
H418 C422 0.949 . S
C419 C420 1.349 . S
C419 C421 1.327 . S
C419 H442 0.950 . S
C420 C419 1.349 . S
C420 C432 1.349 . S
C421 C419 1.327 . S
C421 C437 1.429 . S
C421 H443 0.950 . S
C422 H418 0.949 . S
C422 C430 1.574 1_554 S
C422 C438 1.368 1_565 S
H423 C431 0.950 . S
H424 C429 0.950 . S
H425 C430 0.949 . S
H426 C432 0.950 . S
H427 C433 0.950 . S
H428 C434 0.949 . S
C429 H424 0.950 . S
C429 C431 1.327 . S
C429 C435 1.429 . S
C430 C422 1.574 1_556 S
C430 H425 0.949 . S
C430 C436 1.368 . S
C431 C415 1.349 . S
C431 H423 0.950 . S
C431 C429 1.327 . S
C432 C420 1.349 . S
C432 H426 0.950 . S
C432 C433 1.327 . S
C433 H427 0.950 . S
C433 C432 1.327 . S
C433 C437 1.429 . S
C434 C417 1.574 1_554 S
C434 H428 0.949 . S
C434 C438 1.368 . S
C435 C416 1.429 . S
C435 C429 1.429 . S
C435 C436 1.523 . S
C436 C417 1.368 1_565 S
C436 C430 1.368 . S
C436 C435 1.523 . S
C437 C421 1.429 . S
C437 C433 1.429 . S
C437 C438 1.523 . S
C438 C422 1.368 1_545 S
C438 C434 1.368 . S
C438 C437 1.523 . S
H439 C414 0.950 . S
H440 C416 0.950 . S
H441 C417 0.949 . S
H442 C419 0.950 . S
H443 C421 0.950 . S
C444 C445 1.349 . S
C444 C446 1.327 . S
C444 H469 0.950 . S
C445 C444 1.349 . S
C445 C461 1.349 . S
C446 C444 1.327 . S
C446 C465 1.429 . S
C446 H470 0.950 . S
C447 C464 1.574 1_456 S
C447 C466 1.368 . S
C447 H471 0.949 . S
H448 C452 0.949 . S
C449 C450 1.349 . S
C449 C451 1.327 . S
C449 H472 0.950 . S
C450 C449 1.349 . S
C450 C462 1.349 . S
C451 C449 1.327 . S
C451 C467 1.429 . S
C451 H473 0.950 . S
C452 H448 0.949 . S
C452 C460 1.574 1_654 S
C452 C468 1.368 . S
H453 C461 0.950 . S
H454 C459 0.950 . S
H455 C460 0.949 . S
H456 C462 0.950 . S
H457 C463 0.950 . S
H458 C464 0.949 . S
C459 H454 0.950 . S
C459 C461 1.327 . S
C459 C465 1.429 . S
C460 C452 1.574 1_456 S
C460 H455 0.949 . S
C460 C466 1.368 . S
C461 C445 1.349 . S
C461 H453 0.950 . S
C461 C459 1.327 . S
C462 C450 1.349 . S
C462 H456 0.950 . S
C462 C463 1.327 . S
C463 H457 0.950 . S
C463 C462 1.327 . S
C463 C467 1.429 . S
C464 C447 1.574 1_654 S
C464 H458 0.949 . S
C464 C468 1.368 . S
C465 C446 1.429 . S
C465 C459 1.429 . S
C465 C466 1.523 . S
C466 C447 1.368 . S
C466 C460 1.368 . S
C466 C465 1.523 . S
C467 C451 1.429 . S
C467 C463 1.429 . S
C467 C468 1.523 . S
C468 C452 1.368 . S
C468 C464 1.368 . S
C468 C467 1.523 . S
H469 C444 0.950 . S
H470 C446 0.950 . S
H471 C447 0.949 . S
H472 C449 0.950 . S
H473 C451 0.950 . S
C115 C24 0.667 . S
C120 C12 0.667 . S
C145 C50 0.667 . S
C150 C62 0.667 . S
C175 C88 0.667 . S
C180 C100 0.667 . S
C205 C94 2.062 . S
C210 C31 2.061 . S
C235 C91 1.184 . S
C240 C30 1.182 . S
C265 C103 2.287 . S
C270 C10 2.287 . S
C295 C69 2.062 . S
C300 C18 2.063 . S
C325 C68 1.184 . S
C330 C15 1.186 . S
C355 C48 2.287 . S
C360 C27 2.287 . S
C385 C56 2.062 . S
C390 C107 2.062 . S
C415 C106 1.184 . S
C420 C53 1.184 . S
C445 C86 2.287 . S
C450 C65 2.287 . S
