# Generated by pormake.
# Topology kag, (6)-cn, num edge types: 1
# Building blocks:
#     Node 0, Type 0, BuildingBlock: KUMBOL_clean_sbu_1, # of connection points: 6
#     Node 1, Type 0, BuildingBlock: KUMBOL_clean_sbu_1, # of connection points: 6
#     Node 2, Type 0, BuildingBlock: KUMBOL_clean_sbu_1, # of connection points: 6
#     Edge 3, Type (0, 0), BuildingBlock: XIVTED_clean_linker_0, # of connection points: 2
#     Edge 4, Type (0, 0), BuildingBlock: XIVTED_clean_linker_0, # of connection points: 2
#     Edge 5, Type (0, 0), BuildingBlock: XIVTED_clean_linker_0, # of connection points: 2
#     Edge 6, Type (0, 0), BuildingBlock: XIVTED_clean_linker_0, # of connection points: 2
#     Edge 7, Type (0, 0), BuildingBlock: XIVTED_clean_linker_0, # of connection points: 2
#     Edge 8, Type (0, 0), BuildingBlock: XIVTED_clean_linker_0, # of connection points: 2
#     Edge 9, Type (0, 0), BuildingBlock: XIVTED_clean_linker_0, # of connection points: 2
#     Edge 10, Type (0, 0), BuildingBlock: XIVTED_clean_linker_0, # of connection points: 2
#     Edge 11, Type (0, 0), BuildingBlock: XIVTED_clean_linker_0, # of connection points: 2
# Relax obj value: 0.094
# Max RMSD: 0.181
# Mean RMSD: 0.125
data_MOF--net-kag--node1-KUMBOL_clean_sbu_1--edge1-XIVTED_clean_linker_0
_symmetry_space_group_name_H-M    P1
_symmetry_Int_Tables_number       1
_symmetry_cell_setting            triclinic
loop_
_symmetry_equiv_pos_as_xyz
'x, y, z'
_cell_length_a     30.561773
_cell_length_b     40.36847
_cell_length_c     15.06144
_cell_angle_alpha  107.91744
_cell_angle_beta   96.981397
_cell_angle_gamma 99.01826
loop_
_atom_site_label
_atom_site_type_symbol
_atom_site_fract_x
_atom_site_fract_y
_atom_site_fract_z
_atom_type_partial_charge
C0 C 0.10806 0.4103 0.86007 0.0
C1 C 0.15292 0.40049 0.99053 0.0
C2 C 0.11641 0.41323 0.95546 0.0
C3 C 0.18149 0.38592 0.92961 0.0
C4 C 0.13649 0.39544 0.79861 0.0
C5 C 0.17332 0.38341 0.834 0.0
N6 N 0.07311 0.42329 0.82832 0.0
C7 C 0.06359 0.42101 0.73558 0.0
C8 C 0.1274 0.39358 0.70359 0.0
C9 C 0.09065 0.40627 0.67189 0.0
Gd10 Gd 0.05889 0.55498 0.05814 0.0
Gd11 Gd 1.03045 0.44845 0.94053 0.0
N12 N 0.08883 0.42837 0.01361 0.0
C13 C 0.15932 0.40233 0.08557 0.0
C14 C 0.09298 0.42753 0.10416 0.0
C15 C 0.12874 0.41531 0.14208 0.0
H16 H 0.06818 0.435 0.14704 0.0
H17 H 0.13222 0.41534 0.21448 0.0
H18 H 1.02626 0.57028 0.85164 0.0
H19 H 1.03468 0.43007 0.71057 0.0
H20 H 0.96368 0.59019 0.77973 0.0
H21 H 0.1869 0.39276 0.11515 0.0
H22 H 0.20987 0.37627 0.95564 0.0
H23 H 1.05036 0.57261 0.28586 0.0
H24 H 0.14846 0.38236 0.65417 0.0
H25 H 0.0831 0.40464 0.59838 0.0
H26 H 0.88041 0.6275 0.0296 0.0
H27 H 0.19568 0.37211 0.78797 0.0
H28 H 0.93601 0.6205 0.33338 0.0
H29 H 1.00011 0.59796 0.39366 0.0
N30 N 1.01427 0.57986 0.16618 0.0
C31 C 0.98002 0.59297 0.13201 0.0
C32 C 1.02207 0.58189 0.25895 0.0
C33 C 0.95791 0.60936 0.28591 0.0
C34 C 0.99395 0.59653 0.32014 0.0
C35 C 0.95057 0.60773 0.1909 0.0
H36 H 0.89133 0.63108 0.19697 0.0
N37 N 1.00219 0.57547 0.98127 0.0
C38 C 0.97346 0.59028 0.03674 0.0
C39 C 0.93353 0.60208 0.90478 0.0
C40 C 0.93783 0.60329 -0.00072 0.0
C41 C 1.00029 0.57716 0.89172 0.0
C42 C 0.96542 0.5896 0.85142 0.0
O43 O 0.09981 0.47856 0.93738 0.0
O44 O 0.11589 0.52621 0.07521 0.0
O45 O 0.10114 0.59623 0.02359 0.0
O46 O 0.09592 0.60301 0.16953 0.0
O47 O 1.02428 0.47253 0.09466 0.0
O48 O 0.07833 0.52452 0.15375 0.0
O49 O 0.9898 0.52484 0.06214 0.0
O50 O 0.97311 0.47708 0.92434 0.0
O51 O 0.98969 0.40735 0.97833 0.0
O52 O 0.99262 0.40015 0.83123 0.0
O53 O 0.06533 0.53057 0.90432 0.0
O54 O 1.01059 0.47905 0.84561 0.0
C55 C 0.12911 0.50306 0.00667 0.0
C56 C 0.05102 0.49836 0.16595 0.0
C57 C 0.16626 0.62598 0.13879 0.0
C58 C 0.23657 0.66163 0.12829 0.0
C59 C 0.23785 0.61976 0.2147 0.0
C60 C 0.1909 0.61019 0.19342 0.0
C61 C 0.26065 0.64523 0.18223 0.0
C62 C 0.18922 0.65173 0.10676 0.0
C63 C 0.11685 0.6151 0.11217 0.0
C64 C 0.90816 0.61768 0.05752 0.0
C65 C 0.91449 0.61987 0.15299 0.0
H66 H 0.90669 0.61188 0.87345 0.0
C67 C 0.96025 0.50053 0.99293 0.0
C68 C 1.03809 0.50505 0.83317 0.0
C69 C 0.92363 0.37671 0.86653 0.0
C70 C 0.85479 0.33997 0.87984 0.0
C71 C 0.8507 0.382 0.79445 0.0
C72 C 0.89759 0.39227 0.81369 0.0
C73 C 0.82933 0.35608 0.82734 0.0
C74 C 0.9021 0.35054 0.89916 0.0
C75 C 0.97307 0.38813 0.89036 0.0
H76 H 0.25663 0.60737 0.25649 0.0
H77 H 0.1739 0.59035 0.2192 0.0
H78 H 0.29705 0.65246 0.20047 0.0
H79 H 0.17019 0.66359 0.06365 0.0
H80 H 0.83084 0.39419 0.75392 0.0
H81 H 0.91347 0.41243 0.78756 0.0
H82 H 0.79293 0.34835 0.81074 0.0
H83 H 0.92224 0.33894 0.94113 0.0
C84 C 0.68092 0.95277 0.03919 0.0
C85 C 0.71024 0.93818 0.89283 0.0
C86 C 0.68686 0.95914 0.95595 0.0
C87 C 0.72532 0.90963 0.91268 0.0
C88 C 0.69822 0.9255 0.0623 0.0
C89 C 0.71939 0.90333 -0.00262 0.0
N90 N 0.66028 0.97462 0.10019 0.0
C91 C 0.65992 0.9732 0.1896 0.0
C92 C 0.6951 0.92219 0.15134 0.0
C93 C 0.67664 0.9466 0.21599 0.0
Gd94 Gd 0.4955 0.99243 0.96181 0.0
Gd95 Gd 0.63155 0.01784 0.05021 0.0
N96 N 0.67284 0.98752 0.94039 0.0
C97 C 0.71932 0.94742 0.81372 0.0
C98 C 0.68483 0.99825 0.86747 0.0
C99 C 0.70725 0.97797 0.80197 0.0
H100 H 0.67752 0.02263 0.85969 0.0
H101 H 0.71575 0.9862 0.74318 0.0
H102 H 0.46784 0.02989 0.17267 0.0
H103 H 0.64544 0.99199 0.23918 0.0
H104 H 0.4265 0.07628 0.24449 0.0
H105 H 0.73718 0.93201 0.76352 0.0
H106 H 0.74294 0.89301 0.86456 0.0
H107 H 0.47744 0.98014 0.72733 0.0
H108 H 0.70805 0.90162 0.17189 0.0
H109 H 0.67514 0.94487 0.28589 0.0
H110 H 0.37754 0.11768 0.98999 0.0
H111 H 0.73248 0.88195 0.01326 0.0
H112 H 0.41107 0.06091 0.68385 0.0
H113 H 0.44689 0.00978 0.62047 0.0
N114 N 0.46517 0.01703 0.8519 0.0
C115 C 0.44328 0.04371 0.88731 0.0
C116 C 0.4649 0.00387 0.75682 0.0
C117 C 0.42596 0.04874 0.73163 0.0
C118 C 0.44633 0.02001 0.69564 0.0
C119 C 0.42326 0.0604 0.82808 0.0
H120 H 0.3848 0.10067 0.82184 0.0
N121 N 0.459 0.037 0.03801 0.0
C122 C 0.43912 0.05336 0.98237 0.0
C123 C 0.41087 0.08835 0.11592 0.0
C124 C 0.41495 0.07985 0.02027 0.0
C125 C 0.4538 0.04422 0.13031 0.0
C126 C 0.43011 0.07028 0.17093 0.0
O127 O 0.59222 0.96455 0.04545 0.0
O128 O 0.5388 0.95209 0.91466 0.0
O129 O 0.45453 0.9532 0.00602 0.0
O130 O 0.43035 0.96318 0.87776 0.0
O131 O 0.60494 0.02039 0.90425 0.0
O132 O 0.53773 0.97887 0.84602 0.0
O133 O 0.52903 0.05165 0.03507 0.0
O134 O 0.59859 0.05436 0.99135 0.0
O135 O 0.69727 0.05301 0.076 0.0
O136 O 0.66164 0.05356 0.1912 0.0
O137 O 0.52038 0.98986 0.10656 0.0
O138 O 0.58454 0.03322 0.15386 0.0
C139 C 0.56196 0.94143 0.97583 0.0
C140 C 0.57334 0.99878 0.83306 0.0
C141 C 0.41421 0.90379 0.87574 0.0
C142 C 0.38632 0.84293 0.87045 0.0
C143 C 0.41451 0.85389 0.73568 0.0
C144 C 0.42361 0.89045 0.78376 0.0
C145 C 0.39602 0.83024 0.7785 0.0
C146 C 0.39559 0.8799 0.91866 0.0
C147 C 0.42469 0.94238 0.92819 0.0
C148 C 0.39591 0.09706 0.96193 0.0
C149 C 0.40018 0.08745 0.86622 0.0
H150 H 0.3926 0.10856 0.14769 0.0
C151 C 0.56557 0.06971 0.01945 0.0
C152 C 0.55398 0.01093 0.1727 0.0
C153 C 0.70475 0.1085 0.2009 0.0
C154 C 0.72546 0.16663 0.18147 0.0
C155 C 0.70696 0.16269 0.33092 0.0
C156 C 0.69972 0.12573 0.29447 0.0
C157 C 0.71967 0.18305 0.27504 0.0
C158 C 0.71806 0.12917 0.14479 0.0
C159 C 0.69557 0.06911 0.16446 0.0
H160 H 0.4219 0.84383 0.66495 0.0
H161 H 0.43846 0.90819 0.74925 0.0
H162 H 0.38876 0.80201 0.73902 0.0
H163 H 0.38894 0.89015 0.99008 0.0
H164 H 0.70291 0.17564 0.40304 0.0
H165 H 0.68996 0.11054 0.33957 0.0
H166 H 0.72586 0.21175 0.30592 0.0
H167 H 0.72197 0.11622 0.07251 0.0
C168 C 0.65694 0.59904 0.17336 0.0
C169 C 0.7135 0.60053 0.07346 0.0
C170 C 0.66865 0.59025 0.08374 0.0
C171 C 0.74646 0.61958 0.15434 0.0
C172 C 0.68993 0.6184 0.25459 0.0
C173 C 0.73471 0.62849 0.24459 0.0
N174 N 0.61341 0.58869 0.18111 0.0
C175 C 0.60026 0.59802 0.26726 0.0
C176 C 0.6769 0.62714 0.34353 0.0
C177 C 0.63182 0.61708 0.34979 0.0
Gd178 Gd 0.52544 0.45016 0.94718 0.0
Gd179 Gd 0.56358 0.55707 0.03817 0.0
N180 N 0.63635 0.57066 0.00686 0.0
C181 C 0.72394 0.59112 0.98214 0.0
C182 C 0.64586 0.56283 0.91748 0.0
C183 C 0.68988 0.57245 0.90381 0.0
H184 H 0.61963 0.54923 0.85673 0.0
H185 H 0.69747 0.56563 0.83284 0.0
H186 H 0.47445 0.45666 0.1359 0.0
H187 H 0.56525 0.59143 0.27234 0.0
H188 H 0.39806 0.44083 0.16738 0.0
H189 H 0.75804 0.59841 0.97131 0.0
H190 H 0.78115 0.62755 0.14786 0.0
H191 H 0.51764 0.41866 0.71028 0.0
H192 H 0.70124 0.642 0.40762 0.0
H193 H 0.6213 0.62426 0.41807 0.0
H194 H 0.30759 0.38181 0.85777 0.0
H195 H 0.76051 0.64328 0.30626 0.0
H196 H 0.37993 0.36942 0.5877 0.0
H197 H 0.45854 0.38734 0.56898 0.0
N198 N 0.47256 0.4202 0.80774 0.0
C199 C 0.42978 0.40977 0.8199 0.0
C200 C 0.48326 0.41195 0.71924 0.0
C201 C 0.40564 0.38355 0.65 0.0
C202 C 0.44995 0.39374 0.63909 0.0
C203 C 0.39509 0.39136 0.74114 0.0
H204 H 0.324 0.36732 0.69591 0.0
N205 N 0.45431 0.43678 0.98623 0.0
C206 C 0.42048 0.41789 0.9116 0.0
C207 C 0.36824 0.41667 0.01937 0.0
C208 C 0.37635 0.40782 0.92626 0.0
C209 C 0.44705 0.44399 0.07713 0.0
C210 C 0.40383 0.43455 0.0951 0.0
O211 O 0.61769 0.52441 0.05172 0.0
O212 O 0.59664 0.47003 0.93118 0.0
O213 O 0.54093 0.41611 0.02914 0.0
O214 O 0.53086 0.39571 0.87609 0.0
O215 O 0.53196 0.52585 0.88531 0.0
O216 O 0.55552 0.47271 0.84354 0.0
O217 O 0.47159 0.48286 0.93371 0.0
O218 O 0.49208 0.53738 0.05376 0.0
O219 O 0.55376 0.59061 0.95234 0.0
O220 O 0.55316 0.61087 0.10269 0.0
O221 O 0.55639 0.4807 0.10103 0.0
O222 O 0.53392 0.53449 0.14194 0.0
C223 C 0.62771 0.49595 0.99299 0.0
C224 C 0.5455 0.50047 0.8237 0.0
C225 C 0.57727 0.36939 0.95952 0.0
C226 C 0.60269 0.3168 0.97888 0.0
C227 C 0.65327 0.36212 0.94238 0.0
C228 C 0.61971 0.38187 0.94228 0.0
C229 C 0.64485 0.3298 0.95955 0.0
C230 C 0.569 0.33715 0.97875 0.0
C231 C 0.54079 0.38904 0.95452 0.0
C232 C 0.34174 0.38961 0.84785 0.0
C233 C 0.35108 0.3814 0.75563 0.0
H234 H 0.33476 0.40951 0.03356 0.0
C235 C 0.46121 0.51093 0.99311 0.0
C236 C 0.54491 0.50726 0.16317 0.0
C237 C 0.51313 0.636 0.0034 0.0
C238 C 0.4912 0.6888 0.97827 0.0
C239 C 0.43431 0.63618 0.95809 0.0
C240 C 0.46773 0.61874 0.98143 0.0
C241 C 0.44587 0.67082 0.95593 0.0
C242 C 0.52471 0.67107 0.00244 0.0
C243 C 0.54903 0.61739 0.02294 0.0
H244 H 0.68585 0.37166 0.92783 0.0
H245 H 0.62665 0.40661 0.92756 0.0
H246 H 0.67136 0.3148 0.95577 0.0
H247 H 0.5363 0.32815 0.99371 0.0
H248 H 0.39928 0.62273 0.94113 0.0
H249 H 0.45824 0.59173 0.98149 0.0
H250 H 0.41927 0.68371 0.93779 0.0
H251 H 0.55989 0.68421 0.01837 0.0
H252 H 0.10479 0.54117 0.77235 0.0
H253 H 0.98531 0.46095 0.22616 0.0
H254 H 0.97548 0.46891 0.67184 0.0
H255 H 0.11278 0.53562 0.32785 0.0
H256 H 0.98174 0.4627 0.38855 0.0
H257 H 0.10841 0.53935 0.60994 0.0
C258 C 0.07704 0.52503 0.71612 0.0
C259 C 1.03984 0.50503 0.73555 0.0
C260 C 1.01052 0.47869 0.37541 0.0
C261 C 1.04389 0.50267 0.54932 0.0
C262 C 1.01267 0.4776 0.28262 0.0
C263 C 1.04933 0.49829 0.26353 0.0
C264 C 1.04535 0.50054 0.44971 0.0
C265 C 0.08374 0.51943 0.33949 0.0
C266 C 0.07921 0.52391 0.62333 0.0
C267 C 1.00494 0.48453 0.6599 0.0
N268 N 0.08087 0.52006 0.42928 0.0
N269 N 1.00787 0.48381 0.57006 0.0
H270 H 0.50911 0.95917 0.22979 0.0
H271 H 0.61621 0.05288 0.78102 0.0
H272 H 0.60724 0.058 0.33771 0.0
H273 H 0.53566 0.94643 0.66347 0.0
H274 H 0.61329 0.05578 0.62041 0.0
H275 H 0.51682 0.95513 0.3892 0.0
C276 C 0.5321 0.98018 0.28711 0.0
C277 C 0.5574 0.00907 0.27018 0.0
C278 C 0.59644 0.03171 0.62965 0.0
C279 C 0.56666 0.00445 0.45351 0.0
C280 C 0.59832 0.02995 0.72134 0.0
C281 C 0.5757 0.99949 0.73579 0.0
C282 C 0.5717 1.00282 0.55167 0.0
C283 C 0.55299 0.97065 0.65573 0.0
C284 C 0.53671 0.97772 0.37817 0.0
C285 C 0.58703 0.03525 0.34732 0.0
N286 N 0.55122 0.97314 0.56736 0.0
N287 N 0.59073 0.03237 0.43558 0.0
H288 H 0.50964 0.54516 0.74508 0.0
H289 H 0.58391 0.46459 0.24434 0.0
H290 H 0.58198 0.45945 0.68181 0.0
H291 H 0.50831 0.54826 0.30498 0.0
H292 H 0.58454 0.463 0.40498 0.0
H293 H 0.5102 0.5475 0.58542 0.0
C294 C 0.52559 0.52674 0.69757 0.0
C295 C 0.54543 0.5018 0.72666 0.0
C296 C 0.56797 0.48182 0.38337 0.0
C297 C 0.54626 0.50446 0.54346 0.0
C298 C 0.56755 0.48276 0.29154 0.0
C299 C 0.54635 0.50686 0.26133 0.0
C300 C 0.54689 0.50506 0.44564 0.0
C301 C 0.52567 0.52966 0.32565 0.0
C302 C 0.52585 0.5281 0.60628 0.0
C303 C 0.56571 0.47875 0.66201 0.0
N304 N 0.52645 0.5282 0.41478 0.0
N305 N 0.56557 0.48063 0.57341 0.0
H306 H 0.20025 0.5354 0.15563 0.0
H307 H 0.38936 0.47538 0.84902 0.0
H308 H 0.17067 0.47434 0.85739 0.0
H309 H 0.42142 0.54792 0.13687 0.0
H310 H 0.30927 0.47312 0.85304 0.0
H311 H 0.28086 0.53911 0.15239 0.0
C312 C 0.21063 0.52298 0.08925 0.0
C313 C 0.17835 0.50479 0.00653 0.0
C314 C 0.33371 0.4897 0.91533 0.0
C315 C 0.27105 0.50819 0.00264 0.0
C316 C 0.37961 0.49092 0.91322 0.0
C317 C 0.41243 0.51167 0.99301 0.0
C318 C 0.32003 0.50946 -0.00214 0.0
C319 C 0.39747 0.53161 0.07355 0.0
C320 C 0.25677 0.5249 0.08759 0.0
C321 C 0.19406 0.4884 0.92321 0.0
N322 N 0.35249 0.52987 0.07408 0.0
N323 N 0.23906 0.49046 0.92346 0.0
H324 H 0.78745 0.15764 0.06299 0.0
H325 H 0.77864 0.33989 0.95946 0.0
H326 H 0.69757 0.22672 0.16986 0.0
H327 H 0.87914 0.27754 0.88129 0.0
H328 H 0.74333 0.29536 0.0221 0.0
H329 H 0.81578 0.19768 0.98014 0.0
C330 C 0.77325 0.18097 0.06808 0.0
C331 C 0.74031 0.18895 0.12412 0.0
C332 C 0.773 0.29133 0.9909 0.0
C333 C 0.77296 0.23513 0.03036 0.0
C334 C 0.79308 0.31668 0.95471 0.0
C335 C 0.83211 0.31256 0.91551 0.0
C336 C 0.7919 0.26151 0.98761 0.0
C337 C 0.84954 0.28209 0.91224 0.0
C338 C 0.78968 0.20397 0.02134 0.0
C339 C 0.72357 0.21983 0.12895 0.0
N340 N 0.82937 0.25779 0.94796 0.0
N341 N 0.74015 0.24181 0.08301 0.0
H342 H 0.51412 0.88257 0.82853 0.0
H343 H 0.55159 0.74588 0.1078 0.0
H344 H 0.58531 0.91427 0.1162 0.0
H345 H 0.45812 0.71637 0.84426 0.0
H346 H 0.56916 0.80687 0.10549 0.0
H347 H 0.49666 0.82087 0.82718 0.0
C348 C 0.52597 0.87662 0.89144 0.0
C349 C 0.55134 0.90374 0.97247 0.0
C350 C 0.54484 0.78707 0.04803 0.0
C351 C 0.53241 0.83306 0.97093 0.0
C352 C 0.535 0.75215 0.04905 0.0
C353 C 0.50323 0.72588 0.97628 0.0
C354 C 0.52317 0.79591 0.97313 0.0
C355 C 0.48248 0.73577 0.90244 0.0
C356 C 0.51623 0.84136 0.8905 0.0
C357 C 0.56643 0.89431 0.0515 0.0
N358 N 0.49294 0.76987 0.90256 0.0
N359 N 0.55688 0.85989 0.04864 0.0
H360 H 0.9197 0.5301 0.14276 0.0
H361 H 0.66623 0.45722 0.84998 0.0
H362 H 0.88832 0.4684 0.84495 0.0
H363 H 0.70044 0.53148 0.13578 0.0
H364 H 0.74661 0.45786 0.84905 0.0
H365 H 0.8395 0.52891 0.14296 0.0
C366 C 0.89602 0.51642 0.07712 0.0
C367 C 0.91113 0.49941 0.9936 0.0
C368 C 0.73655 0.47404 0.91197 0.0
C369 C 0.81835 0.4971 0.99384 0.0
C370 C 0.69055 0.47353 0.91278 0.0
C371 C 0.67632 0.49451 0.9929 0.0
C372 C 0.76883 0.49549 0.99216 0.0
C373 C 0.70965 0.51518 0.07195 0.0
C374 C 0.85002 0.51553 0.07746 0.0
C375 C 0.87841 0.48146 0.91135 0.0
N376 N 0.75411 0.51517 0.06953 0.0
N377 N 0.83373 0.48072 0.91357 0.0
H378 H 0.31346 0.66062 0.05133 0.0
H379 H 0.31916 0.84919 0.97628 0.0
H380 H 0.21472 0.72487 0.12818 0.0
H381 H 0.40679 0.7787 0.86531 0.0
H382 H 0.28454 0.80614 0.04424 0.0
H383 H 0.35202 0.70576 0.99432 0.0
C384 C 0.30004 0.68432 0.05672 0.0
C385 C 0.2607 0.68893 0.09431 0.0
C386 C 0.31147 0.80014 0.00531 0.0
C387 C 0.30454 0.74058 0.02865 0.0
C388 C 0.33149 0.82483 0.96706 0.0
C389 C 0.36604 0.81758 0.91509 0.0
C390 C 0.32618 0.76796 0.99191 0.0
C391 C 0.38009 0.78528 0.90422 0.0
C392 C 0.32194 0.70998 0.02368 0.0
C393 C 0.24458 0.71999 0.09854 0.0
N394 N 0.36013 0.76167 0.94224 0.0
N395 N 0.26656 0.74462 0.06617 0.0
H396 H 0.52266 0.2668 0.93631 0.0
H397 H 0.6377 0.11273 0.99449 0.0
H398 H 0.66296 0.28633 0.06351 0.0
H399 H 0.50381 0.11411 0.05685 0.0
H400 H 0.64468 0.17335 0.99386 0.0
H401 H 0.51165 0.20847 0.95786 0.0
C402 C 0.55112 0.25929 0.96962 0.0
C403 C 0.59412 0.28188 -0.00326 0.0
C404 C 0.61381 0.16047 0.00823 0.0
C405 C 0.58158 0.21441 0.0187 0.0
C406 C 0.60956 0.12563 0.00832 0.0
C407 C 0.56959 0.10762 0.02439 0.0
C408 C 0.57769 0.17775 0.02281 0.0
C409 C 0.53463 0.12632 0.04172 0.0
C410 C 0.54468 0.22581 0.98143 0.0
C411 C 0.62952 0.26983 0.03821 0.0
N412 N 0.5392 0.16024 0.03927 0.0
N413 N 0.62259 0.2369 0.04647 0.0
loop_
_geom_bond_atom_site_label_1
_geom_bond_atom_site_label_2
_geom_bond_distance
_geom_bond_site_symmetry_2
_ccdc_geom_bond_type
C0 C2 1.422 . S
C0 C4 1.415 . S
C0 N6 1.369 . S
C1 C2 1.421 . S
C1 C3 1.417 . S
C1 C13 1.422 1_556 S
C2 C0 1.422 . S
C2 C1 1.421 . S
C2 N12 1.359 . S
C3 C1 1.417 . S
C3 C5 1.329 . S
C3 H22 0.930 . S
C4 C0 1.415 . S
C4 C5 1.437 . S
C4 C8 1.413 . S
C5 C3 1.329 . S
C5 C4 1.437 . S
C5 H27 0.929 . S
N6 C0 1.369 . S
N6 C7 1.338 1_455 S
N6 Gd11 2.622 1_455 S
C7 N6 1.338 1_655 S
C7 C9 1.378 1_655 S
C7 H19 0.929 . S
C8 C4 1.413 . S
C8 C9 1.348 . S
C8 H24 0.931 . S
C9 C7 1.378 1_455 S
C9 C8 1.348 . S
C9 H25 0.930 . S
Gd10 N30 2.622 1_455 S
Gd10 N37 2.570 1_455 S
Gd10 O44 2.353 . S
Gd10 O45 2.468 1_554 S
Gd10 O46 2.427 . S
Gd10 O48 2.388 . S
Gd10 O49 2.386 1_455 S
Gd10 O53 2.307 1_454 S
Gd10 C63 2.805 . S
Gd11 N6 2.622 1_655 S
Gd11 N12 2.570 1_655 S
Gd11 O43 2.386 1_655 S
Gd11 O47 2.307 1_656 S
Gd11 O50 2.353 . S
Gd11 O51 2.468 1_556 S
Gd11 O52 2.427 . S
Gd11 O54 2.388 . S
Gd11 C75 2.805 . S
N12 C2 1.359 . S
N12 Gd11 2.570 1_455 S
N12 C14 1.343 1_556 S
C13 C1 1.422 1_554 S
C13 C15 1.321 . S
C13 H21 0.931 . S
C14 N12 1.343 1_554 S
C14 C15 1.390 . S
C14 H16 0.931 . S
C15 C13 1.321 . S
C15 C14 1.390 . S
C15 H17 0.930 . S
H16 C14 0.931 . S
H17 C15 0.930 . S
H18 C41 0.931 . S
H19 C7 0.929 . S
H20 C42 0.930 . S
H21 C13 0.931 . S
H22 C3 0.930 . S
H23 C32 0.929 . S
H24 C8 0.931 . S
H25 C9 0.930 . S
H26 C64 0.930 . S
H27 C5 0.929 . S
H28 C33 0.931 . S
H29 C34 0.930 . S
N30 Gd10 2.622 1_655 S
N30 C31 1.369 . S
N30 C32 1.338 1_655 S
C31 N30 1.369 . S
C31 C35 1.415 . S
C31 C38 1.422 . S
C32 H23 0.929 . S
C32 N30 1.338 1_455 S
C32 C34 1.378 1_455 S
C33 H28 0.931 . S
C33 C34 1.348 . S
C33 C35 1.413 . S
C34 H29 0.930 . S
C34 C32 1.378 1_655 S
C34 C33 1.348 . S
C35 C31 1.415 . S
C35 C33 1.413 . S
C35 C65 1.437 . S
H36 C65 0.929 . S
N37 Gd10 2.570 1_655 S
N37 C38 1.359 . S
N37 C41 1.343 1_554 S
C38 C31 1.422 . S
C38 N37 1.359 . S
C38 C40 1.421 . S
C39 C40 1.422 1_556 S
C39 C42 1.321 . S
C39 H66 0.931 . S
C40 C38 1.421 . S
C40 C39 1.422 1_554 S
C40 C64 1.417 . S
C41 H18 0.931 . S
C41 N37 1.343 1_556 S
C41 C42 1.390 . S
C42 H20 0.930 . S
C42 C39 1.321 . S
C42 C41 1.390 . S
O43 Gd11 2.386 1_455 S
O43 C55 1.265 1_556 S
O44 Gd10 2.353 . S
O44 C55 1.242 . S
O45 Gd10 2.468 1_556 S
O45 C63 1.263 1_556 S
O46 Gd10 2.427 . S
O46 C63 1.252 . S
O47 Gd11 2.307 1_454 S
O47 C56 1.261 . S
O48 Gd10 2.388 . S
O48 C56 1.252 . S
O49 Gd10 2.386 1_655 S
O49 C67 1.265 1_554 S
O50 Gd11 2.353 . S
O50 C67 1.242 . S
O51 Gd11 2.468 1_554 S
O51 C75 1.263 1_554 S
O52 Gd11 2.427 . S
O52 C75 1.252 . S
O53 Gd10 2.307 1_656 S
O53 C68 1.261 . S
O54 Gd11 2.388 . S
O54 C68 1.252 . S
C55 O43 1.265 1_554 S
C55 O44 1.242 . S
C56 O47 1.261 . S
C56 O48 1.252 . S
C57 C60 1.394 . S
C57 C62 1.370 . S
C57 C63 1.500 . S
C58 C61 1.383 . S
C58 C62 1.395 . S
C59 C60 1.396 . S
C59 C61 1.365 . S
C59 H76 0.929 . S
C60 C57 1.394 . S
C60 C59 1.396 . S
C60 H77 0.930 . S
C61 C58 1.383 . S
C61 C59 1.365 . S
C61 H78 0.931 . S
C62 C57 1.370 . S
C62 C58 1.395 . S
C62 H79 0.930 1_554 S
C63 Gd10 2.805 . S
C63 O45 1.263 1_554 S
C63 O46 1.252 . S
C63 C57 1.500 . S
C64 H26 0.930 . S
C64 C40 1.417 . S
C64 C65 1.329 . S
C65 C35 1.437 . S
C65 H36 0.929 . S
C65 C64 1.329 . S
H66 C39 0.931 . S
C67 O49 1.265 1_556 S
C67 O50 1.242 . S
C68 O53 1.261 . S
C68 O54 1.252 . S
C69 C72 1.394 . S
C69 C74 1.370 . S
C69 C75 1.500 . S
C70 C73 1.383 . S
C70 C74 1.395 . S
C71 C72 1.396 . S
C71 C73 1.365 . S
C71 H80 0.929 . S
C72 C69 1.394 . S
C72 C71 1.396 . S
C72 H81 0.930 . S
C73 C70 1.383 . S
C73 C71 1.365 . S
C73 H82 0.931 . S
C74 C69 1.370 . S
C74 C70 1.395 . S
C74 H83 0.930 1_556 S
C75 Gd11 2.805 . S
C75 O51 1.263 1_556 S
C75 O52 1.252 . S
C75 C69 1.500 . S
H76 C59 0.929 . S
H77 C60 0.930 . S
H78 C61 0.931 . S
H79 C62 0.930 1_556 S
H80 C71 0.929 . S
H81 C72 0.930 . S
H82 C73 0.931 . S
H83 C74 0.930 1_554 S
C84 C86 1.422 . S
C84 C88 1.415 . S
C84 N90 1.369 1_565 S
C85 C86 1.421 1_556 S
C85 C87 1.417 1_556 S
C85 C97 1.422 . S
C86 C84 1.422 . S
C86 C85 1.421 1_554 S
C86 N96 1.359 1_554 S
C87 C85 1.417 1_554 S
C87 C89 1.329 . S
C87 H106 0.930 . S
C88 C84 1.415 . S
C88 C89 1.437 . S
C88 C92 1.413 . S
C89 C87 1.329 . S
C89 C88 1.437 . S
C89 H111 0.929 . S
N90 C84 1.369 1_545 S
N90 C91 1.338 . S
N90 Gd95 2.622 . S
C91 N90 1.338 . S
C91 C93 1.378 . S
C91 H103 0.929 . S
C92 C88 1.413 . S
C92 C93 1.348 1_565 S
C92 H108 0.931 . S
C93 C91 1.378 . S
C93 C92 1.348 1_545 S
C93 H109 0.930 . S
Gd94 N114 2.622 . S
Gd94 N121 2.570 1_566 S
Gd94 O128 2.353 . S
Gd94 O129 2.468 1_556 S
Gd94 O130 2.427 . S
Gd94 O132 2.388 . S
Gd94 O133 2.386 1_565 S
Gd94 O137 2.307 1_566 S
Gd94 C147 2.805 . S
Gd95 N90 2.622 . S
Gd95 N96 2.570 1_544 S
Gd95 O127 2.386 1_545 S
Gd95 O131 2.307 1_544 S
Gd95 O134 2.353 . S
Gd95 O135 2.468 1_554 S
Gd95 O136 2.427 . S
Gd95 O138 2.388 . S
Gd95 C159 2.805 . S
N96 C86 1.359 1_556 S
N96 Gd95 2.570 1_566 S
N96 C98 1.343 . S
C97 C85 1.422 . S
C97 C99 1.321 . S
C97 H105 0.931 . S
C98 N96 1.343 . S
C98 C99 1.390 . S
C98 H100 0.931 . S
C99 C97 1.321 . S
C99 C98 1.390 . S
C99 H101 0.930 . S
H100 C98 0.931 . S
H101 C99 0.930 . S
H102 C125 0.931 . S
H103 C91 0.929 . S
H104 C126 0.930 . S
H105 C97 0.931 . S
H106 C87 0.930 . S
H107 C116 0.929 . S
H108 C92 0.931 . S
H109 C93 0.930 . S
H110 C148 0.930 . S
H111 C89 0.929 . S
H112 C117 0.931 . S
H113 C118 0.930 . S
N114 Gd94 2.622 . S
N114 C115 1.369 1_565 S
N114 C116 1.338 . S
C115 N114 1.369 1_545 S
C115 C119 1.415 . S
C115 C122 1.422 . S
C116 H107 0.929 . S
C116 N114 1.338 . S
C116 C118 1.378 . S
C117 H112 0.931 . S
C117 C118 1.348 1_545 S
C117 C119 1.413 . S
C118 H113 0.930 . S
C118 C116 1.378 . S
C118 C117 1.348 1_565 S
C119 C115 1.415 . S
C119 C117 1.413 . S
C119 C149 1.437 . S
H120 C149 0.929 . S
N121 Gd94 2.570 1_544 S
N121 C122 1.359 1_554 S
N121 C125 1.343 . S
C122 C115 1.422 . S
C122 N121 1.359 1_556 S
C122 C124 1.421 1_556 S
C123 C124 1.422 . S
C123 C126 1.321 . S
C123 H150 0.931 . S
C124 C122 1.421 1_554 S
C124 C123 1.422 . S
C124 C148 1.417 1_554 S
C125 H102 0.931 . S
C125 N121 1.343 . S
C125 C126 1.390 . S
C126 H104 0.930 . S
C126 C123 1.321 . S
C126 C125 1.390 . S
O127 Gd95 2.386 1_565 S
O127 C139 1.265 1_554 S
O128 Gd94 2.353 . S
O128 C139 1.242 . S
O129 Gd94 2.468 1_554 S
O129 C147 1.263 1_554 S
O130 Gd94 2.427 . S
O130 C147 1.252 . S
O131 Gd95 2.307 1_566 S
O131 C140 1.261 . S
O132 Gd94 2.388 . S
O132 C140 1.252 . S
O133 Gd94 2.386 1_545 S
O133 C151 1.265 1_556 S
O134 Gd95 2.353 . S
O134 C151 1.242 . S
O135 Gd95 2.468 1_556 S
O135 C159 1.263 1_556 S
O136 Gd95 2.427 . S
O136 C159 1.252 . S
O137 Gd94 2.307 1_544 S
O137 C152 1.261 . S
O138 Gd95 2.388 . S
O138 C152 1.252 . S
C139 O127 1.265 1_556 S
C139 O128 1.242 . S
C140 O131 1.261 . S
C140 O132 1.252 . S
C141 C144 1.394 . S
C141 C146 1.370 1_556 S
C141 C147 1.500 . S
C142 C145 1.383 1_554 S
C142 C146 1.395 . S
C143 C144 1.396 . S
C143 C145 1.365 . S
C143 H160 0.929 . S
C144 C141 1.394 . S
C144 C143 1.396 . S
C144 H161 0.930 . S
C145 C142 1.383 1_556 S
C145 C143 1.365 . S
C145 H162 0.931 . S
C146 C141 1.370 1_554 S
C146 C142 1.395 . S
C146 H163 0.930 . S
C147 Gd94 2.805 . S
C147 O129 1.263 1_556 S
C147 O130 1.252 . S
C147 C141 1.500 . S
C148 H110 0.930 . S
C148 C124 1.417 1_556 S
C148 C149 1.329 . S
C149 C119 1.437 . S
C149 H120 0.929 . S
C149 C148 1.329 . S
H150 C123 0.931 . S
C151 O133 1.265 1_554 S
C151 O134 1.242 . S
C152 O137 1.261 . S
C152 O138 1.252 . S
C153 C156 1.394 . S
C153 C158 1.370 1_554 S
C153 C159 1.500 . S
C154 C157 1.383 1_556 S
C154 C158 1.395 . S
C155 C156 1.396 . S
C155 C157 1.365 . S
C155 H164 0.929 . S
C156 C153 1.394 . S
C156 C155 1.396 . S
C156 H165 0.930 . S
C157 C154 1.383 1_554 S
C157 C155 1.365 . S
C157 H166 0.931 . S
C158 C153 1.370 1_556 S
C158 C154 1.395 . S
C158 H167 0.930 . S
C159 Gd95 2.805 . S
C159 O135 1.263 1_554 S
C159 O136 1.252 . S
C159 C153 1.500 . S
H160 C143 0.929 . S
H161 C144 0.930 . S
H162 C145 0.931 . S
H163 C146 0.930 . S
H164 C155 0.929 . S
H165 C156 0.930 . S
H166 C157 0.931 . S
H167 C158 0.930 . S
C168 C170 1.422 . S
C168 C172 1.415 . S
C168 N174 1.369 . S
C169 C170 1.421 . S
C169 C171 1.417 . S
C169 C181 1.422 1_554 S
C170 C168 1.422 . S
C170 C169 1.421 . S
C170 N180 1.359 . S
C171 C169 1.417 . S
C171 C173 1.329 . S
C171 H190 0.930 . S
C172 C168 1.415 . S
C172 C173 1.437 . S
C172 C176 1.413 . S
C173 C171 1.329 . S
C173 C172 1.437 . S
C173 H195 0.929 . S
N174 C168 1.369 . S
N174 C175 1.338 . S
N174 Gd179 2.622 . S
C175 N174 1.338 . S
C175 C177 1.378 . S
C175 H187 0.929 . S
C176 C172 1.413 . S
C176 C177 1.348 . S
C176 H192 0.931 . S
C177 C175 1.378 . S
C177 C176 1.348 . S
C177 H193 0.930 . S
Gd178 N198 2.622 . S
Gd178 N205 2.570 . S
Gd178 O212 2.353 . S
Gd178 O213 2.468 1_556 S
Gd178 O214 2.427 . S
Gd178 O216 2.388 . S
Gd178 O217 2.386 . S
Gd178 O221 2.307 1_556 S
Gd178 C231 2.805 . S
Gd179 N174 2.622 . S
Gd179 N180 2.570 . S
Gd179 O211 2.386 . S
Gd179 O215 2.307 1_554 S
Gd179 O218 2.353 . S
Gd179 O219 2.468 1_554 S
Gd179 O220 2.427 . S
Gd179 O222 2.388 . S
Gd179 C243 2.805 . S
N180 C170 1.359 . S
N180 Gd179 2.570 . S
N180 C182 1.343 1_554 S
C181 C169 1.422 1_556 S
C181 C183 1.321 . S
C181 H189 0.931 . S
C182 N180 1.343 1_556 S
C182 C183 1.390 . S
C182 H184 0.931 . S
C183 C181 1.321 . S
C183 C182 1.390 . S
C183 H185 0.930 . S
H184 C182 0.931 . S
H185 C183 0.930 . S
H186 C209 0.931 . S
H187 C175 0.929 . S
H188 C210 0.930 . S
H189 C181 0.931 . S
H190 C171 0.930 . S
H191 C200 0.929 . S
H192 C176 0.931 . S
H193 C177 0.930 . S
H194 C232 0.930 . S
H195 C173 0.929 . S
H196 C201 0.931 . S
H197 C202 0.930 . S
N198 Gd178 2.622 . S
N198 C199 1.369 . S
N198 C200 1.338 . S
C199 N198 1.369 . S
C199 C203 1.415 . S
C199 C206 1.422 . S
C200 H191 0.929 . S
C200 N198 1.338 . S
C200 C202 1.378 . S
C201 H196 0.931 . S
C201 C202 1.348 . S
C201 C203 1.413 . S
C202 H197 0.930 . S
C202 C200 1.378 . S
C202 C201 1.348 . S
C203 C199 1.415 . S
C203 C201 1.413 . S
C203 C233 1.437 . S
H204 C233 0.929 . S
N205 Gd178 2.570 . S
N205 C206 1.359 . S
N205 C209 1.343 1_556 S
C206 C199 1.422 . S
C206 N205 1.359 . S
C206 C208 1.421 . S
C207 C208 1.422 1_554 S
C207 C210 1.321 . S
C207 H234 0.931 . S
C208 C206 1.421 . S
C208 C207 1.422 1_556 S
C208 C232 1.417 . S
C209 H186 0.931 . S
C209 N205 1.343 1_554 S
C209 C210 1.390 . S
C210 H188 0.930 . S
C210 C207 1.321 . S
C210 C209 1.390 . S
O211 Gd179 2.386 . S
O211 C223 1.265 . S
O212 Gd178 2.353 . S
O212 C223 1.242 1_556 S
O213 Gd178 2.468 1_554 S
O213 C231 1.263 1_554 S
O214 Gd178 2.427 . S
O214 C231 1.252 . S
O215 Gd179 2.307 1_556 S
O215 C224 1.261 . S
O216 Gd178 2.388 . S
O216 C224 1.252 . S
O217 Gd178 2.386 . S
O217 C235 1.265 . S
O218 Gd179 2.353 . S
O218 C235 1.242 1_554 S
O219 Gd179 2.468 1_556 S
O219 C243 1.263 1_556 S
O220 Gd179 2.427 . S
O220 C243 1.252 . S
O221 Gd178 2.307 1_554 S
O221 C236 1.261 . S
O222 Gd179 2.388 . S
O222 C236 1.252 . S
C223 O211 1.265 . S
C223 O212 1.242 1_554 S
C224 O215 1.261 . S
C224 O216 1.252 . S
C225 C228 1.394 . S
C225 C230 1.375 . S
C225 C231 1.500 . S
C226 C229 1.383 . S
C226 C230 1.394 . S
C227 C228 1.396 . S
C227 C229 1.365 . S
C227 H244 0.929 . S
C228 C225 1.394 . S
C228 C227 1.396 . S
C228 H245 0.930 . S
C229 C226 1.383 . S
C229 C227 1.365 . S
C229 H246 0.931 . S
C230 C225 1.375 . S
C230 C226 1.394 . S
C230 H247 0.926 1_556 S
C231 Gd178 2.805 . S
C231 O213 1.263 1_556 S
C231 O214 1.252 . S
C231 C225 1.500 . S
C232 H194 0.930 . S
C232 C208 1.417 . S
C232 C233 1.329 . S
C233 C203 1.437 . S
C233 H204 0.929 . S
C233 C232 1.329 . S
H234 C207 0.931 . S
C235 O217 1.265 . S
C235 O218 1.242 1_556 S
C236 O221 1.261 . S
C236 O222 1.252 . S
C237 C240 1.394 . S
C237 C242 1.378 . S
C237 C243 1.500 . S
C238 C241 1.383 . S
C238 C242 1.393 . S
C239 C240 1.396 . S
C239 C241 1.365 . S
C239 H248 0.929 . S
C240 C237 1.394 . S
C240 C239 1.396 . S
C240 H249 0.930 . S
C241 C238 1.383 . S
C241 C239 1.365 . S
C241 H250 0.931 . S
C242 C237 1.378 . S
C242 C238 1.393 . S
C242 H251 0.924 1_554 S
C243 Gd179 2.805 . S
C243 O219 1.263 1_554 S
C243 O220 1.252 . S
C243 C237 1.500 . S
H244 C227 0.929 . S
H245 C228 0.930 . S
H246 C229 0.931 . S
H247 C230 0.926 1_554 S
H248 C239 0.929 . S
H249 C240 0.930 . S
H250 C241 0.931 . S
H251 C242 0.924 1_556 S
H252 C258 0.930 . S
H253 C262 0.930 . S
H254 C267 0.929 . S
H255 C265 0.929 . S
H256 C260 0.929 . S
H257 C266 0.929 . S
C258 H252 0.930 . S
C258 C259 1.367 1_455 S
C258 C266 1.378 . S
C259 C258 1.367 1_655 S
C259 C267 1.433 . S
C260 H256 0.929 . S
C260 C262 1.378 . S
C260 C264 1.351 . S
C261 C264 1.465 1_455 S
C261 C266 1.353 . S
C261 N269 1.423 1_455 S
C262 H253 0.930 . S
C262 C260 1.378 . S
C262 C263 1.367 1_655 S
C263 C262 1.367 1_455 S
C263 C265 1.433 . S
C264 C260 1.351 . S
C264 C261 1.465 1_655 S
C264 N268 1.425 1_655 S
C265 H255 0.929 . S
C265 C263 1.433 . S
C265 N268 1.384 . S
C266 H257 0.929 . S
C266 C258 1.378 . S
C266 C261 1.353 . S
C267 H254 0.929 . S
C267 C259 1.433 . S
C267 N269 1.384 . S
N268 C264 1.425 1_455 S
N268 C265 1.384 . S
N269 C261 1.423 1_655 S
N269 C267 1.384 . S
H270 C276 0.930 . S
H271 C280 0.930 . S
H272 C285 0.929 . S
H273 C283 0.929 . S
H274 C278 0.929 . S
H275 C284 0.929 . S
C276 H270 0.930 . S
C276 C277 1.367 1_565 S
C276 C284 1.378 . S
C277 C276 1.367 1_545 S
C277 C285 1.433 . S
C278 H274 0.929 . S
C278 C280 1.378 . S
C278 C282 1.346 1_545 S
C279 C282 1.455 1_545 S
C279 C284 1.342 1_545 S
C279 N287 1.441 . S
C280 H271 0.930 . S
C280 C278 1.378 . S
C280 C281 1.367 1_545 S
C281 C280 1.367 1_565 S
C281 C283 1.433 . S
C282 C278 1.346 1_565 S
C282 C279 1.455 1_565 S
C282 N286 1.434 . S
C283 H273 0.929 . S
C283 C281 1.433 . S
C283 N286 1.384 . S
C284 H275 0.929 . S
C284 C276 1.378 . S
C284 C279 1.342 1_565 S
C285 H272 0.929 . S
C285 C277 1.433 . S
C285 N287 1.384 . S
N286 C282 1.434 . S
N286 C283 1.384 . S
N287 C279 1.441 . S
N287 C285 1.384 . S
H288 C294 0.930 . S
H289 C298 0.930 . S
H290 C303 0.929 . S
H291 C301 0.929 . S
H292 C296 0.929 . S
H293 C302 0.929 . S
C294 H288 0.930 . S
C294 C295 1.367 . S
C294 C302 1.378 . S
C295 C294 1.367 . S
C295 C303 1.433 . S
C296 H292 0.929 . S
C296 C298 1.378 . S
C296 C300 1.350 . S
C297 C300 1.463 . S
C297 C302 1.350 . S
C297 N305 1.427 . S
C298 H289 0.930 . S
C298 C296 1.378 . S
C298 C299 1.367 . S
C299 C298 1.367 . S
C299 C301 1.433 . S
C300 C296 1.350 . S
C300 C297 1.463 . S
C300 N304 1.427 . S
C301 H291 0.929 . S
C301 C299 1.433 . S
C301 N304 1.384 . S
C302 H293 0.929 . S
C302 C294 1.378 . S
C302 C297 1.350 . S
C303 H290 0.929 . S
C303 C295 1.433 . S
C303 N305 1.384 . S
N304 C300 1.427 . S
N304 C301 1.384 . S
N305 C297 1.427 . S
N305 C303 1.384 . S
H306 C312 0.930 . S
H307 C316 0.930 . S
H308 C321 0.929 . S
H309 C319 0.929 . S
H310 C314 0.929 . S
H311 C320 0.929 . S
C312 H306 0.930 . S
C312 C313 1.367 . S
C312 C320 1.378 . S
C313 C312 1.367 . S
C313 C321 1.433 1_554 S
C314 H310 0.929 . S
C314 C316 1.378 . S
C314 C318 1.350 . S
C315 C318 1.463 1_554 S
C315 C320 1.350 . S
C315 N323 1.427 1_554 S
C316 H307 0.930 . S
C316 C314 1.378 . S
C316 C317 1.367 . S
C317 C316 1.367 . S
C317 C319 1.433 1_556 S
C318 C314 1.350 . S
C318 C315 1.463 1_556 S
C318 N322 1.427 1_556 S
C319 H309 0.929 . S
C319 C317 1.433 1_554 S
C319 N322 1.384 . S
C320 H311 0.929 . S
C320 C312 1.378 . S
C320 C315 1.350 . S
C321 H308 0.929 . S
C321 C313 1.433 1_556 S
C321 N323 1.384 . S
N322 C318 1.427 1_554 S
N322 C319 1.384 . S
N323 C315 1.427 1_556 S
N323 C321 1.384 . S
H324 C330 0.930 . S
H325 C334 0.930 . S
H326 C339 0.929 . S
H327 C337 0.929 . S
H328 C332 0.929 . S
H329 C338 0.929 . S
C330 H324 0.930 . S
C330 C331 1.367 1_554 S
C330 C338 1.378 . S
C331 C330 1.367 1_556 S
C331 C339 1.433 . S
C332 H328 0.929 . S
C332 C334 1.378 . S
C332 C336 1.350 . S
C333 C336 1.463 . S
C333 C338 1.350 1_556 S
C333 N341 1.427 . S
C334 H325 0.930 . S
C334 C332 1.378 . S
C334 C335 1.367 1_556 S
C335 C334 1.367 1_554 S
C335 C337 1.433 . S
C336 C332 1.350 . S
C336 C333 1.463 . S
C336 N340 1.427 1_556 S
C337 H327 0.929 . S
C337 C335 1.433 . S
C337 N340 1.384 . S
C338 H329 0.929 . S
C338 C330 1.378 . S
C338 C333 1.350 1_554 S
C339 H326 0.929 . S
C339 C331 1.433 . S
C339 N341 1.384 . S
N340 C336 1.427 1_554 S
N340 C337 1.384 . S
N341 C333 1.427 . S
N341 C339 1.384 . S
H342 C348 0.930 . S
H343 C352 0.930 1_554 S
H344 C357 0.929 1_554 S
H345 C355 0.929 . S
H346 C350 0.929 1_554 S
H347 C356 0.929 . S
C348 H342 0.930 . S
C348 C349 1.367 . S
C348 C356 1.378 . S
C349 C348 1.367 . S
C349 C357 1.433 . S
C350 H346 0.929 1_556 S
C350 C352 1.378 . S
C350 C354 1.350 . S
C351 C354 1.463 . S
C351 C356 1.350 . S
C351 N359 1.427 . S
C352 H343 0.930 1_556 S
C352 C350 1.378 . S
C352 C353 1.367 . S
C353 C352 1.367 . S
C353 C355 1.433 . S
C354 C350 1.350 . S
C354 C351 1.463 . S
C354 N358 1.427 . S
C355 H345 0.929 . S
C355 C353 1.433 . S
C355 N358 1.384 . S
C356 H347 0.929 . S
C356 C348 1.378 . S
C356 C351 1.350 . S
C357 H344 0.929 1_556 S
C357 C349 1.433 . S
C357 N359 1.384 . S
N358 C354 1.427 . S
N358 C355 1.384 . S
N359 C351 1.427 . S
N359 C357 1.384 . S
H360 C366 0.930 . S
H361 C370 0.930 . S
H362 C375 0.929 . S
H363 C373 0.929 . S
H364 C368 0.929 . S
H365 C374 0.929 . S
C366 H360 0.930 . S
C366 C367 1.367 1_554 S
C366 C374 1.378 . S
C367 C366 1.367 1_556 S
C367 C375 1.433 . S
C368 H364 0.929 . S
C368 C370 1.378 . S
C368 C372 1.350 . S
C369 C372 1.463 . S
C369 C374 1.351 1_556 S
C369 N377 1.426 . S
C370 H361 0.930 . S
C370 C368 1.378 . S
C370 C371 1.367 1_556 S
C371 C370 1.367 1_554 S
C371 C373 1.433 . S
C372 C368 1.350 . S
C372 C369 1.463 . S
C372 N376 1.427 1_556 S
C373 H363 0.929 . S
C373 C371 1.433 . S
C373 N376 1.384 . S
C374 H365 0.929 . S
C374 C366 1.378 . S
C374 C369 1.351 1_554 S
C375 H362 0.929 . S
C375 C367 1.433 . S
C375 N377 1.384 . S
N376 C372 1.427 1_554 S
N376 C373 1.384 . S
N377 C369 1.426 . S
N377 C375 1.384 . S
H378 C384 0.930 . S
H379 C388 0.930 . S
H380 C393 0.929 . S
H381 C391 0.929 . S
H382 C386 0.929 1_556 S
H383 C392 0.929 . S
C384 H378 0.930 . S
C384 C385 1.367 1_554 S
C384 C392 1.378 . S
C385 C384 1.367 1_556 S
C385 C393 1.433 . S
C386 H382 0.929 1_554 S
C386 C388 1.378 . S
C386 C390 1.350 . S
C387 C390 1.463 . S
C387 C392 1.350 . S
C387 N395 1.427 1_554 S
C388 H379 0.930 . S
C388 C386 1.378 . S
C388 C389 1.367 . S
C389 C388 1.367 . S
C389 C391 1.433 . S
C390 C386 1.350 . S
C390 C387 1.463 . S
C390 N394 1.427 . S
C391 H381 0.929 . S
C391 C389 1.433 . S
C391 N394 1.384 . S
C392 H383 0.929 . S
C392 C384 1.378 . S
C392 C387 1.350 . S
C393 H380 0.929 . S
C393 C385 1.433 . S
C393 N395 1.384 . S
N394 C390 1.427 . S
N394 C391 1.384 . S
N395 C387 1.427 1_556 S
N395 C393 1.384 . S
H396 C402 0.930 . S
H397 C406 0.930 1_556 S
H398 C411 0.929 1_556 S
H399 C409 0.929 . S
H400 C404 0.929 1_556 S
H401 C410 0.929 . S
C402 H396 0.930 . S
C402 C403 1.367 . S
C402 C410 1.378 . S
C403 C402 1.367 . S
C403 C411 1.433 . S
C404 H400 0.929 1_554 S
C404 C406 1.378 . S
C404 C408 1.350 . S
C405 C408 1.463 . S
C405 C410 1.350 . S
C405 N413 1.427 . S
C406 H397 0.930 1_554 S
C406 C404 1.378 . S
C406 C407 1.367 . S
C407 C406 1.367 . S
C407 C409 1.433 . S
C408 C404 1.350 . S
C408 C405 1.463 . S
C408 N412 1.427 . S
C409 H399 0.929 . S
C409 C407 1.433 . S
C409 N412 1.384 . S
C410 H401 0.929 . S
C410 C402 1.378 . S
C410 C405 1.350 . S
C411 H398 0.929 1_554 S
C411 C403 1.433 . S
C411 N413 1.384 . S
N412 C408 1.427 . S
N412 C409 1.384 . S
N413 C405 1.427 . S
N413 C411 1.384 . S
C259 C68 1.489 . S
C263 C56 1.489 . S
C277 C152 1.523 . S
C281 C140 1.523 . S
C295 C224 1.478 . S
C299 C236 1.478 . S
C313 C55 2.309 . S
C317 C235 2.319 . S
C331 C154 0.765 . S
C335 C70 0.767 1_554 S
C349 C139 1.619 . S
C353 C238 1.488 1_556 S
C367 C67 2.306 . S
C371 C223 2.327 . S
C385 C58 0.780 1_556 S
C389 C142 0.778 . S
C403 C226 1.494 1_554 S
C407 C151 1.613 . S
