# Generated by pormake.
# Topology cds-f, (5)-cn, num edge types: 1
# Building blocks:
#     Node 0, Type 0, BuildingBlock: BEQFEK_clean_sbu_0, # of connection points: 5
#     Node 1, Type 0, BuildingBlock: BEQFEK_clean_sbu_0, # of connection points: 5
#     Node 2, Type 0, BuildingBlock: BEQFEK_clean_sbu_0, # of connection points: 5
#     Node 3, Type 0, BuildingBlock: BEQFEK_clean_sbu_0, # of connection points: 5
#     Node 4, Type 0, BuildingBlock: BEQFEK_clean_sbu_0, # of connection points: 5
#     Node 5, Type 0, BuildingBlock: BEQFEK_clean_sbu_0, # of connection points: 5
#     Node 6, Type 0, BuildingBlock: BEQFEK_clean_sbu_0, # of connection points: 5
#     Node 7, Type 0, BuildingBlock: BEQFEK_clean_sbu_0, # of connection points: 5
#     Node 8, Type 0, BuildingBlock: BEQFEK_clean_sbu_0, # of connection points: 5
#     Node 9, Type 0, BuildingBlock: BEQFEK_clean_sbu_0, # of connection points: 5
#     Node 10, Type 0, BuildingBlock: BEQFEK_clean_sbu_0, # of connection points: 5
#     Node 11, Type 0, BuildingBlock: BEQFEK_clean_sbu_0, # of connection points: 5
#     Node 12, Type 0, BuildingBlock: BEQFEK_clean_sbu_0, # of connection points: 5
#     Node 13, Type 0, BuildingBlock: BEQFEK_clean_sbu_0, # of connection points: 5
#     Node 14, Type 0, BuildingBlock: BEQFEK_clean_sbu_0, # of connection points: 5
#     Node 15, Type 0, BuildingBlock: BEQFEK_clean_sbu_0, # of connection points: 5
#     Edge 16, Type (0, 0), BuildingBlock: XUDNAN_clean_linker_2, # of connection points: 2
#     Edge 17, Type (0, 0), BuildingBlock: XUDNAN_clean_linker_2, # of connection points: 2
#     Edge 18, Type (0, 0), BuildingBlock: XUDNAN_clean_linker_2, # of connection points: 2
#     Edge 19, Type (0, 0), BuildingBlock: XUDNAN_clean_linker_2, # of connection points: 2
#     Edge 20, Type (0, 0), BuildingBlock: XUDNAN_clean_linker_2, # of connection points: 2
#     Edge 21, Type (0, 0), BuildingBlock: XUDNAN_clean_linker_2, # of connection points: 2
#     Edge 22, Type (0, 0), BuildingBlock: XUDNAN_clean_linker_2, # of connection points: 2
#     Edge 23, Type (0, 0), BuildingBlock: XUDNAN_clean_linker_2, # of connection points: 2
#     Edge 24, Type (0, 0), BuildingBlock: XUDNAN_clean_linker_2, # of connection points: 2
#     Edge 25, Type (0, 0), BuildingBlock: XUDNAN_clean_linker_2, # of connection points: 2
#     Edge 26, Type (0, 0), BuildingBlock: XUDNAN_clean_linker_2, # of connection points: 2
#     Edge 27, Type (0, 0), BuildingBlock: XUDNAN_clean_linker_2, # of connection points: 2
#     Edge 28, Type (0, 0), BuildingBlock: XUDNAN_clean_linker_2, # of connection points: 2
#     Edge 29, Type (0, 0), BuildingBlock: XUDNAN_clean_linker_2, # of connection points: 2
#     Edge 30, Type (0, 0), BuildingBlock: XUDNAN_clean_linker_2, # of connection points: 2
#     Edge 31, Type (0, 0), BuildingBlock: XUDNAN_clean_linker_2, # of connection points: 2
#     Edge 32, Type (0, 0), BuildingBlock: XUDNAN_clean_linker_2, # of connection points: 2
#     Edge 33, Type (0, 0), BuildingBlock: XUDNAN_clean_linker_2, # of connection points: 2
#     Edge 34, Type (0, 0), BuildingBlock: XUDNAN_clean_linker_2, # of connection points: 2
#     Edge 35, Type (0, 0), BuildingBlock: XUDNAN_clean_linker_2, # of connection points: 2
#     Edge 36, Type (0, 0), BuildingBlock: XUDNAN_clean_linker_2, # of connection points: 2
#     Edge 37, Type (0, 0), BuildingBlock: XUDNAN_clean_linker_2, # of connection points: 2
#     Edge 38, Type (0, 0), BuildingBlock: XUDNAN_clean_linker_2, # of connection points: 2
#     Edge 39, Type (0, 0), BuildingBlock: XUDNAN_clean_linker_2, # of connection points: 2
#     Edge 40, Type (0, 0), BuildingBlock: XUDNAN_clean_linker_2, # of connection points: 2
#     Edge 41, Type (0, 0), BuildingBlock: XUDNAN_clean_linker_2, # of connection points: 2
#     Edge 42, Type (0, 0), BuildingBlock: XUDNAN_clean_linker_2, # of connection points: 2
#     Edge 43, Type (0, 0), BuildingBlock: XUDNAN_clean_linker_2, # of connection points: 2
#     Edge 44, Type (0, 0), BuildingBlock: XUDNAN_clean_linker_2, # of connection points: 2
#     Edge 45, Type (0, 0), BuildingBlock: XUDNAN_clean_linker_2, # of connection points: 2
#     Edge 46, Type (0, 0), BuildingBlock: XUDNAN_clean_linker_2, # of connection points: 2
#     Edge 47, Type (0, 0), BuildingBlock: XUDNAN_clean_linker_2, # of connection points: 2
#     Edge 48, Type (0, 0), BuildingBlock: XUDNAN_clean_linker_2, # of connection points: 2
#     Edge 49, Type (0, 0), BuildingBlock: XUDNAN_clean_linker_2, # of connection points: 2
#     Edge 50, Type (0, 0), BuildingBlock: XUDNAN_clean_linker_2, # of connection points: 2
#     Edge 51, Type (0, 0), BuildingBlock: XUDNAN_clean_linker_2, # of connection points: 2
#     Edge 52, Type (0, 0), BuildingBlock: XUDNAN_clean_linker_2, # of connection points: 2
#     Edge 53, Type (0, 0), BuildingBlock: XUDNAN_clean_linker_2, # of connection points: 2
#     Edge 54, Type (0, 0), BuildingBlock: XUDNAN_clean_linker_2, # of connection points: 2
#     Edge 55, Type (0, 0), BuildingBlock: XUDNAN_clean_linker_2, # of connection points: 2
# Relax obj value: 0.091
# Max RMSD: 0.135
# Mean RMSD: 0.097
data_MOF--net-cds-f--node1-BEQFEK_clean_sbu_0--edge1-XUDNAN_clean_linker_2
_symmetry_space_group_name_H-M    P1
_symmetry_Int_Tables_number       1
_symmetry_cell_setting            triclinic
loop_
_symmetry_equiv_pos_as_xyz
'x, y, z'
_cell_length_a     38.838466
_cell_length_b     38.939166
_cell_length_c     61.529864
_cell_angle_alpha  90.050455
_cell_angle_beta   94.265176
_cell_angle_gamma 87.55139
loop_
_atom_site_label
_atom_site_type_symbol
_atom_site_fract_x
_atom_site_fract_y
_atom_site_fract_z
_atom_type_partial_charge
Co0 Co 0.28404 0.30192 0.14114 0.0
Co1 Co 0.20297 0.30739 0.13224 0.0
C2 C 0.23707 0.27395 0.17273 0.0
O3 O 0.2671 0.27979 0.16702 0.0
O4 O 0.21007 0.28224 0.1605 0.0
C5 C 0.354 0.28695 0.1593 0.0
O6 O 0.339 0.28207 0.17743 0.0
C7 C 0.13076 0.28684 0.12498 0.0
C8 C 0.10413 0.3367 0.11624 0.0
C9 C 0.09796 0.30255 0.12034 0.0
N10 N 0.15452 0.31081 0.12393 0.0
N11 N 0.13842 0.34046 0.11855 0.0
C12 C 0.14022 0.24991 0.12993 0.0
H13 H 0.16738 0.24386 0.12627 0.0
H14 H 0.12273 0.23291 0.12025 0.0
H15 H 0.13811 0.24506 0.14754 0.0
C16 C 0.27845 0.27456 0.09657 0.0
N17 N 0.26326 0.28412 0.11468 0.0
N18 N 0.22987 0.28934 0.10991 0.0
C19 C 0.22309 0.28555 0.08821 0.0
C20 C 0.2538 0.27603 0.07884 0.0
C21 C 0.3162 0.26494 0.09653 0.0
H22 H 0.32462 0.24966 0.11134 0.0
H23 H 0.32185 0.24958 0.08191 0.0
H24 H 0.33119 0.28859 0.09694 0.0
O25 O 0.2735 0.35285 0.14282 0.0
O26 O 0.21624 0.35428 0.13798 0.0
H27 H 0.19296 0.30679 0.0599 0.0
H28 H 0.17203 0.27518 0.0752 0.0
C29 C 0.1894 0.29711 0.07648 0.0
H30 H 0.17683 0.31803 0.0856 0.0
H31 H 0.15078 0.36352 0.11702 0.0
O32 O 0.33544 0.29527 0.14204 0.0
C33 C 0.24437 0.36945 0.14169 0.0
Co34 Co 0.67297 0.28443 0.63155 0.0
Co35 Co 0.67625 0.20438 0.63614 0.0
C36 C 0.71034 0.24403 0.67051 0.0
O37 O 0.69939 0.27084 0.65975 0.0
O38 O 0.7043 0.21398 0.66339 0.0
C39 C 0.71143 0.34435 0.63228 0.0
O40 O 0.73575 0.32269 0.64056 0.0
C41 C 0.68874 0.12797 0.63738 0.0
C42 C 0.64757 0.11381 0.61261 0.0
C43 C 0.67462 0.10026 0.62626 0.0
N44 N 0.67078 0.15674 0.63045 0.0
N45 N 0.64597 0.14791 0.6159 0.0
C46 C 0.72002 0.12745 0.65309 0.0
H47 H 0.73415 0.1514 0.65154 0.0
H48 H 0.73731 0.10466 0.65036 0.0
H49 H 0.71167 0.12617 0.66992 0.0
C50 C 0.69459 0.26585 0.58758 0.0
N51 N 0.68836 0.25793 0.60821 0.0
N52 N 0.69385 0.22477 0.61133 0.0
C53 C 0.70577 0.21067 0.59321 0.0
C54 C 0.70589 0.23602 0.57714 0.0
C55 C 0.68566 0.30044 0.57759 0.0
H56 H 0.6663 0.31464 0.58693 0.0
H57 H 0.70932 0.31549 0.5779 0.0
H58 H 0.67509 0.29793 0.56043 0.0
O59 O 0.62314 0.27855 0.63423 0.0
O60 O 0.62821 0.22221 0.63962 0.0
H61 H 0.69631 0.15759 0.58718 0.0
H62 H 0.73788 0.17063 0.57969 0.0
C63 C 0.71835 0.17388 0.59189 0.0
H64 H 0.73001 0.16506 0.60803 0.0
H65 H 0.62853 0.16542 0.60769 0.0
O66 O 0.68165 0.33349 0.62672 0.0
C67 C 0.60988 0.25016 0.63832 0.0
Co68 Co 0.72759 0.70642 0.13011 0.0
Co69 Co 0.80754 0.68774 0.13497 0.0
C70 C 0.77061 0.72778 0.16919 0.0
O71 O 0.74193 0.72807 0.15779 0.0
O72 O 0.79779 0.71274 0.16267 0.0
C73 C 0.6567 0.71489 0.13776 0.0
O74 O 0.66919 0.70788 0.15777 0.0
C75 C 0.88058 0.70574 0.13571 0.0
C76 C 0.90693 0.65507 0.1315 0.0
C77 C 0.91312 0.68975 0.13398 0.0
N78 N 0.85674 0.6816 0.13434 0.0
N79 N 0.8727 0.65136 0.13191 0.0
C80 C 0.87146 0.74335 0.13716 0.0
H81 H 0.84385 0.74862 0.13171 0.0
H82 H 0.88805 0.75835 0.1271 0.0
H83 H 0.87544 0.75168 0.15438 0.0
C84 C 0.74581 0.73483 0.08844 0.0
N85 N 0.75491 0.72059 0.10804 0.0
N86 N 0.78805 0.71158 0.10934 0.0
C87 C 0.80088 0.7188 0.09013 0.0
C88 C 0.77456 0.73402 0.07626 0.0
C89 C 0.70992 0.74804 0.08152 0.0
H90 H 0.69371 0.72602 0.07688 0.0
H91 H 0.69849 0.76155 0.09532 0.0
H92 H 0.70974 0.76594 0.06748 0.0
O93 O 0.73189 0.65583 0.13306 0.0
O94 O 0.78799 0.64151 0.13564 0.0
H95 H 0.84343 0.68156 0.09207 0.0
H96 H 0.83674 0.70334 0.06623 0.0
C97 C 0.83599 0.70655 0.0841 0.0
H98 H 0.85513 0.7256 0.08971 0.0
H99 H 0.86018 0.62821 0.13031 0.0
O100 O 0.67754 0.71705 0.12285 0.0
C101 C 0.75656 0.63316 0.13485 0.0
Co102 Co 0.30166 0.7992 0.62331 0.0
Co103 Co 0.29412 0.7193 0.61892 0.0
C104 C 0.27997 0.76351 0.58047 0.0
O105 O 0.288 0.78882 0.59265 0.0
O106 O 0.27979 0.73316 0.5882 0.0
C107 C 0.26701 0.86467 0.62057 0.0
O108 O 0.24118 0.84591 0.61348 0.0
C109 C 0.27342 0.64696 0.61249 0.0
C110 C 0.30987 0.62077 0.637 0.0
C111 C 0.28401 0.61453 0.62089 0.0
N112 N 0.29249 0.6707 0.62308 0.0
N113 N 0.31407 0.65481 0.63774 0.0
C114 C 0.24474 0.65598 0.59562 0.0
H115 H 0.23512 0.68293 0.5978 0.0
H116 H 0.22317 0.63842 0.59669 0.0
H117 H 0.25463 0.65374 0.5792 0.0
C118 C 0.25873 0.78818 0.66009 0.0
N119 N 0.27347 0.77686 0.64215 0.0
N120 N 0.26861 0.74379 0.63971 0.0
C121 C 0.25002 0.73315 0.6559 0.0
C122 C 0.24313 0.76092 0.66939 0.0
C123 C 0.26423 0.82292 0.6699 0.0
H124 H 0.28931 0.83256 0.66562 0.0
H125 H 0.2432 0.84109 0.66337 0.0
H126 H 0.26393 0.82215 0.6879 0.0
O127 O 0.35073 0.78434 0.62937 0.0
O128 O 0.34389 0.72844 0.62477 0.0
H129 H 0.26388 0.68164 0.66603 0.0
H130 H 0.21978 0.69502 0.67027 0.0
C131 C 0.24077 0.69668 0.65907 0.0
H132 H 0.23238 0.68527 0.64313 0.0
H133 H 0.33197 0.66723 0.64814 0.0
O134 O 0.29612 0.84984 0.62617 0.0
C135 C 0.36324 0.75363 0.62881 0.0
Co136 Co 0.21603 0.69713 0.88304 0.0
Co137 Co 0.29471 0.69916 0.87402 0.0
C138 C 0.27087 0.71671 0.91769 0.0
O139 O 0.23944 0.71212 0.91126 0.0
O140 O 0.29504 0.71282 0.90487 0.0
C141 C 0.15051 0.72208 0.89763 0.0
O142 O 0.16936 0.74198 0.91051 0.0
C143 C 0.36856 0.71546 0.87134 0.0
C144 C 0.38007 0.68721 0.84137 0.0
C145 C 0.39462 0.70789 0.85756 0.0
N146 N 0.33983 0.70008 0.86349 0.0
N147 N 0.34711 0.68296 0.84572 0.0
C148 C 0.37045 0.73773 0.89116 0.0
H149 H 0.34566 0.75267 0.89221 0.0
H150 H 0.39203 0.75548 0.89091 0.0
H151 H 0.37467 0.72114 0.90586 0.0
C152 C 0.20971 0.7354 0.84138 0.0
N153 N 0.22888 0.72286 0.859 0.0
N154 N 0.26185 0.7257 0.85601 0.0
C155 C 0.26459 0.74123 0.83672 0.0
C156 C 0.23177 0.7472 0.82653 0.0
C157 C 0.17168 0.73075 0.83752 0.0
H158 H 0.16606 0.70355 0.84059 0.0
H159 H 0.15787 0.74687 0.84926 0.0
H160 H 0.16184 0.738 0.8207 0.0
O161 O 0.22779 0.64769 0.87863 0.0
O162 O 0.28301 0.65039 0.87209 0.0
H163 H 0.30752 0.72474 0.81889 0.0
H164 H 0.29447 0.76926 0.81512 0.0
C165 C 0.29805 0.7481 0.82727 0.0
H166 H 0.31765 0.75513 0.84036 0.0
H167 H 0.32942 0.66843 0.83649 0.0
O168 O 0.16528 0.70159 0.88481 0.0
C169 C 0.25639 0.6331 0.8742 0.0
Co170 Co 0.30573 0.30226 0.36692 0.0
Co171 Co 0.32743 0.22401 0.36587 0.0
C172 C 0.28399 0.25882 0.32895 0.0
O173 O 0.28264 0.2876 0.33877 0.0
O174 O 0.3008 0.23275 0.33738 0.0
C175 C 0.30631 0.37255 0.36009 0.0
O176 O 0.32585 0.36077 0.34496 0.0
C177 C 0.31548 0.15003 0.36641 0.0
C178 C 0.36891 0.1281 0.37149 0.0
C179 C 0.33475 0.11919 0.36834 0.0
N180 N 0.33732 0.17589 0.36844 0.0
N181 N 0.36918 0.16261 0.37156 0.0
C182 C 0.27734 0.15502 0.36122 0.0
H183 H 0.27064 0.18158 0.3554 0.0
H184 H 0.26374 0.15071 0.37613 0.0
H185 H 0.26827 0.13617 0.34875 0.0
C186 C 0.27994 0.28147 0.40896 0.0
N187 N 0.294 0.27396 0.39007 0.0
N188 N 0.30405 0.24126 0.39005 0.0
C189 C 0.29759 0.22711 0.40926 0.0
C190 C 0.28176 0.25203 0.42185 0.0
C191 C 0.2656 0.31639 0.41451 0.0
H192 H 0.25123 0.32816 0.39993 0.0
H193 H 0.24808 0.31512 0.42791 0.0
H194 H 0.28725 0.33304 0.41957 0.0
O195 O 0.35713 0.30093 0.3655 0.0
O196 O 0.37208 0.24541 0.36527 0.0
H197 H 0.31381 0.19007 0.43464 0.0
H198 H 0.29244 0.17272 0.41033 0.0
C199 C 0.31085 0.192 0.41661 0.0
H200 H 0.33629 0.18593 0.41018 0.0
H201 H 0.39119 0.1771 0.37341 0.0
O202 O 0.29253 0.35121 0.37203 0.0
C203 C 0.38013 0.27668 0.36504 0.0
Co204 Co 0.77798 0.31211 0.88625 0.0
Co205 Co 0.69833 0.30854 0.87252 0.0
C206 C 0.72684 0.28572 0.91672 0.0
O207 O 0.75745 0.2928 0.91248 0.0
O208 O 0.70141 0.28986 0.90248 0.0
C209 C 0.84594 0.28035 0.89591 0.0
O210 O 0.82889 0.25229 0.89811 0.0
C211 C 0.62147 0.30389 0.86707 0.0
C212 C 0.61174 0.32024 0.83273 0.0
C213 C 0.59511 0.30982 0.85061 0.0
N214 N 0.65202 0.30937 0.85886 0.0
N215 N 0.64578 0.31987 0.83849 0.0
C216 C 0.6177 0.29879 0.89085 0.0
H217 H 0.63888 0.31124 0.90049 0.0
H218 H 0.61917 0.27089 0.89462 0.0
H219 H 0.5928 0.31026 0.8957 0.0
C220 C 0.78125 0.27863 0.84286 0.0
N221 N 0.76348 0.28924 0.85983 0.0
N222 N 0.73039 0.2846 0.85509 0.0
C223 C 0.72653 0.2688 0.83555 0.0
C224 C 0.75842 0.26557 0.82672 0.0
C225 C 0.81916 0.28308 0.84153 0.0
H226 H 0.82597 0.30917 0.84717 0.0
H227 H 0.8337 0.26399 0.85239 0.0
H228 H 0.82728 0.27873 0.82482 0.0
O229 O 0.76467 0.3618 0.8838 0.0
O230 O 0.70877 0.35781 0.87451 0.0
H231 H 0.68417 0.27662 0.81145 0.0
H232 H 0.69581 0.23257 0.81735 0.0
C233 C 0.69277 0.25834 0.82478 0.0
H234 H 0.67298 0.25696 0.83675 0.0
H235 H 0.66475 0.32775 0.82867 0.0
O236 O 0.82924 0.30844 0.89109 0.0
C237 C 0.73491 0.37586 0.87895 0.0
Co238 Co 0.71565 0.80414 0.37932 0.0
Co239 Co 0.70395 0.72411 0.37613 0.0
C240 C 0.73374 0.75752 0.41726 0.0
O241 O 0.73306 0.78713 0.40847 0.0
O242 O 0.72315 0.73134 0.40671 0.0
C243 C 0.74345 0.8704 0.39057 0.0
O244 O 0.76042 0.85321 0.40662 0.0
C245 C 0.72195 0.6497 0.37973 0.0
C246 C 0.67747 0.6272 0.36133 0.0
C247 C 0.70775 0.61835 0.37383 0.0
N248 N 0.70078 0.67542 0.37134 0.0
N249 N 0.67433 0.66174 0.36028 0.0
C250 C 0.75556 0.65569 0.39235 0.0
H251 H 0.76552 0.68072 0.38763 0.0
H252 H 0.77492 0.6347 0.38946 0.0
H253 H 0.7514 0.65672 0.40999 0.0
C254 C 0.74982 0.78934 0.33924 0.0
N255 N 0.73584 0.7783 0.35715 0.0
N256 N 0.73028 0.74528 0.35518 0.0
C257 C 0.73991 0.73446 0.3356 0.0
C258 C 0.75243 0.76218 0.3247 0.0
C259 C 0.7574 0.82612 0.33535 0.0
H260 H 0.73271 0.84144 0.33254 0.0
H261 H 0.77171 0.83648 0.35002 0.0
H262 H 0.773 0.82882 0.3211 0.0
O263 O 0.66465 0.80052 0.37609 0.0
O264 O 0.65627 0.74454 0.3735 0.0
H265 H 0.70308 0.6971 0.32601 0.0
H266 H 0.73953 0.69682 0.30945 0.0
C267 C 0.73137 0.7001 0.32623 0.0
H268 H 0.74421 0.6796 0.33684 0.0
H269 H 0.65375 0.676 0.35235 0.0
O270 O 0.72396 0.85436 0.37687 0.0
C271 C 0.6445 0.77557 0.37389 0.0
Co272 Co 0.71738 0.70121 0.87904 0.0
Co273 Co 0.79706 0.68248 0.88312 0.0
C274 C 0.76253 0.72096 0.91824 0.0
O275 O 0.73276 0.7202 0.90809 0.0
O276 O 0.78927 0.70776 0.91024 0.0
C277 C 0.64511 0.71163 0.88503 0.0
O278 O 0.65411 0.69798 0.90424 0.0
C279 C 0.87056 0.69614 0.88849 0.0
C280 C 0.89513 0.64764 0.87747 0.0
C281 C 0.90251 0.6799 0.88571 0.0
N282 N 0.84571 0.67443 0.8823 0.0
N283 N 0.86053 0.64544 0.87579 0.0
C284 C 0.86315 0.73249 0.89523 0.0
H285 H 0.83704 0.74155 0.88848 0.0
H286 H 0.8828 0.74963 0.88958 0.0
H287 H 0.86373 0.73372 0.91326 0.0
C288 C 0.73533 0.72435 0.83569 0.0
N289 N 0.74481 0.71464 0.85638 0.0
N290 N 0.77831 0.70746 0.85825 0.0
C291 C 0.79136 0.71313 0.83897 0.0
C292 C 0.76456 0.72354 0.82384 0.0
C293 C 0.69837 0.72774 0.8268 0.0
H294 H 0.68498 0.70417 0.83074 0.0
H295 H 0.68538 0.7497 0.83485 0.0
H296 H 0.69578 0.73176 0.80892 0.0
O297 O 0.71941 0.65054 0.88067 0.0
O298 O 0.77569 0.6368 0.8836 0.0
H299 H 0.83391 0.67727 0.83562 0.0
H300 H 0.83398 0.71475 0.81821 0.0
C301 C 0.82827 0.70541 0.83454 0.0
H302 H 0.84543 0.71811 0.84698 0.0
H303 H 0.84703 0.6242 0.87015 0.0
O304 O 0.66826 0.71604 0.87184 0.0
C305 C 0.74431 0.6281 0.88236 0.0
Co306 Co 0.31619 0.80059 0.36433 0.0
Co307 Co 0.33765 0.72271 0.36966 0.0
C308 C 0.29961 0.75262 0.32856 0.0
O309 O 0.29773 0.78271 0.33647 0.0
O310 O 0.31431 0.72748 0.33943 0.0
C311 C 0.31707 0.87057 0.35443 0.0
O312 O 0.34035 0.85846 0.34165 0.0
C313 C 0.32309 0.6501 0.3756 0.0
C314 C 0.37583 0.62626 0.37976 0.0
C315 C 0.3412 0.61869 0.37828 0.0
N316 N 0.34603 0.67498 0.3755 0.0
N317 N 0.37748 0.66059 0.37823 0.0
C318 C 0.28493 0.65636 0.37138 0.0
H319 H 0.27897 0.68238 0.36438 0.0
H320 H 0.27257 0.65469 0.38701 0.0
H321 H 0.27404 0.6365 0.36022 0.0
C322 C 0.28456 0.78816 0.40501 0.0
N323 N 0.30021 0.77606 0.38769 0.0
N324 N 0.31211 0.74441 0.39157 0.0
C325 C 0.3064 0.73609 0.41228 0.0
C326 C 0.28874 0.76374 0.42166 0.0
C327 C 0.26642 0.82287 0.40536 0.0
H328 H 0.2524 0.82828 0.38927 0.0
H329 H 0.24774 0.82435 0.41817 0.0
H330 H 0.28575 0.84284 0.40836 0.0
O331 O 0.36796 0.79861 0.36593 0.0
O332 O 0.38287 0.74321 0.36971 0.0
H333 H 0.33001 0.71047 0.44115 0.0
H334 H 0.3038 0.68418 0.42301 0.0
C335 C 0.32261 0.70489 0.42379 0.0
H336 H 0.34599 0.69567 0.41589 0.0
H337 H 0.40013 0.67411 0.37838 0.0
O338 O 0.30184 0.84972 0.3659 0.0
C339 C 0.39103 0.77431 0.36801 0.0
Co340 Co 0.2763 0.30939 0.87685 0.0
Co341 Co 0.19765 0.32505 0.88389 0.0
C342 C 0.24847 0.29507 0.91948 0.0
O343 O 0.27336 0.29475 0.90713 0.0
O344 O 0.21796 0.30545 0.91261 0.0
C345 C 0.35033 0.28847 0.87785 0.0
O346 O 0.34781 0.2763 0.89754 0.0
C347 C 0.12574 0.30617 0.88935 0.0
C348 C 0.09689 0.35468 0.88008 0.0
C349 C 0.09235 0.32121 0.88669 0.0
N350 N 0.14836 0.32964 0.8843 0.0
N351 N 0.13091 0.35858 0.87886 0.0
C352 C 0.13666 0.27072 0.89715 0.0
H353 H 0.16445 0.26933 0.9028 0.0
H354 H 0.13282 0.25238 0.88346 0.0
H355 H 0.12107 0.26302 0.9106 0.0
C356 C 0.24668 0.27711 0.8374 0.0
N357 N 0.24275 0.29011 0.85735 0.0
N358 N 0.20991 0.29842 0.85922 0.0
C359 C 0.19196 0.2918 0.84013 0.0
C360 C 0.21477 0.27828 0.82554 0.0
C361 C 0.28105 0.26697 0.82927 0.0
H362 H 0.29714 0.25263 0.84219 0.0
H363 H 0.27809 0.2507 0.81449 0.0
H364 H 0.2946 0.29045 0.82534 0.0
O365 O 0.26956 0.35965 0.87546 0.0
O366 O 0.21453 0.37223 0.88063 0.0
H367 H 0.14741 0.30232 0.8172 0.0
H368 H 0.138 0.28909 0.84415 0.0
C369 C 0.15533 0.30437 0.83481 0.0
H370 H 0.15222 0.33162 0.8398 0.0
H371 H 0.14222 0.38098 0.87417 0.0
O372 O 0.32357 0.30124 0.86714 0.0
C373 C 0.24465 0.38156 0.87708 0.0
Co374 Co 0.70474 0.30269 0.38267 0.0
Co375 Co 0.69133 0.224 0.37398 0.0
C376 C 0.71542 0.25099 0.41852 0.0
O377 O 0.71731 0.28214 0.41244 0.0
O378 O 0.70609 0.22786 0.40501 0.0
C379 C 0.73172 0.36823 0.39775 0.0
O380 O 0.74487 0.35038 0.41472 0.0
C381 C 0.71278 0.15114 0.37523 0.0
C382 C 0.66884 0.12656 0.35758 0.0
C383 C 0.7003 0.11914 0.36923 0.0
N384 N 0.68963 0.17581 0.36776 0.0
N385 N 0.66348 0.16098 0.35712 0.0
C386 C 0.74666 0.15896 0.38697 0.0
H387 H 0.75416 0.18514 0.38265 0.0
H388 H 0.76716 0.13984 0.38284 0.0
H389 H 0.74407 0.15832 0.4048 0.0
C390 C 0.74419 0.29102 0.34344 0.0
N391 N 0.72727 0.27899 0.36003 0.0
N392 N 0.72124 0.24637 0.3564 0.0
C393 C 0.73389 0.23674 0.33745 0.0
C394 C 0.74898 0.26461 0.32861 0.0
C395 C 0.7509 0.32816 0.34029 0.0
H396 H 0.76518 0.33802 0.35513 0.0
H397 H 0.76601 0.33208 0.32594 0.0
H398 H 0.72587 0.34303 0.33801 0.0
O399 O 0.65367 0.30044 0.37649 0.0
O400 O 0.64442 0.24539 0.36951 0.0
H401 H 0.73868 0.20112 0.31059 0.0
H402 H 0.73969 0.18194 0.33732 0.0
C403 C 0.72767 0.20282 0.32671 0.0
H404 H 0.69947 0.19898 0.32468 0.0
H405 H 0.64165 0.17429 0.34995 0.0
O406 O 0.71467 0.3529 0.38246 0.0
C407 C 0.63323 0.27641 0.37141 0.0
Co408 Co 0.78414 0.31786 0.12949 0.0
Co409 Co 0.70425 0.31428 0.13409 0.0
C410 C 0.7532 0.29193 0.17053 0.0
O411 O 0.77827 0.29946 0.1594 0.0
O412 O 0.72207 0.29535 0.16255 0.0
C413 C 0.84915 0.28171 0.13025 0.0
O414 O 0.83126 0.258 0.13886 0.0
C415 C 0.63257 0.29578 0.14127 0.0
C416 C 0.60268 0.3338 0.12002 0.0
C417 C 0.59895 0.30742 0.13466 0.0
N418 N 0.65479 0.31469 0.13111 0.0
N419 N 0.63669 0.33729 0.11842 0.0
C420 C 0.64377 0.26629 0.15607 0.0
H421 H 0.66892 0.25485 0.15158 0.0
H422 H 0.62417 0.24632 0.1552 0.0
H423 H 0.6472 0.27577 0.17307 0.0
C424 C 0.76146 0.2896 0.08616 0.0
N425 N 0.75602 0.29665 0.10712 0.0
N426 N 0.72367 0.29122 0.1104 0.0
C427 C 0.70804 0.27828 0.09213 0.0
C428 C 0.73106 0.27766 0.07568 0.0
C429 C 0.79307 0.30009 0.07575 0.0
H430 H 0.80668 0.31969 0.08578 0.0
H431 H 0.81086 0.27726 0.07433 0.0
H432 H 0.78624 0.31088 0.05923 0.0
O433 O 0.77187 0.3675 0.12965 0.0
O434 O 0.71571 0.36367 0.13344 0.0
H435 H 0.65346 0.28904 0.08736 0.0
H436 H 0.66758 0.24726 0.07773 0.0
C437 C 0.67167 0.26668 0.09077 0.0
H438 H 0.66597 0.25537 0.10659 0.0
H439 H 0.64762 0.35537 0.10881 0.0
O440 O 0.83397 0.31019 0.12444 0.0
C441 C 0.74207 0.38161 0.13163 0.0
Co442 Co 0.68002 0.77908 0.63075 0.0
Co443 Co 0.68376 0.69872 0.62712 0.0
C444 C 0.716 0.73311 0.66596 0.0
O445 O 0.70537 0.76272 0.65873 0.0
O446 O 0.71035 0.70593 0.65499 0.0
C447 C 0.68703 0.85152 0.64326 0.0
O448 O 0.6842 0.84191 0.66348 0.0
C449 C 0.70582 0.62533 0.6259 0.0
C450 C 0.65966 0.60371 0.60877 0.0
C451 C 0.69184 0.59436 0.61889 0.0
N452 N 0.6827 0.6511 0.62032 0.0
N453 N 0.65531 0.63801 0.60999 0.0
C454 C 0.74081 0.63131 0.63674 0.0
H455 H 0.74767 0.65838 0.63447 0.0
H456 H 0.76065 0.61396 0.62988 0.0
H457 H 0.74058 0.62638 0.65449 0.0
C458 C 0.70923 0.77106 0.58744 0.0
N459 N 0.69844 0.75769 0.60583 0.0
N460 N 0.70107 0.72397 0.60466 0.0
C461 C 0.71418 0.71476 0.58574 0.0
C462 C 0.7198 0.74432 0.57411 0.0
C463 C 0.70612 0.80853 0.58192 0.0
H464 H 0.68115 0.81963 0.58691 0.0
H465 H 0.72736 0.82183 0.59103 0.0
H466 H 0.70745 0.8131 0.56422 0.0
O467 O 0.62998 0.76988 0.63165 0.0
O468 O 0.63524 0.71301 0.63044 0.0
H469 H 0.69683 0.66598 0.57466 0.0
H470 H 0.73814 0.67669 0.56526 0.0
C471 C 0.72157 0.67831 0.57918 0.0
H472 H 0.73486 0.66396 0.59313 0.0
H473 H 0.63336 0.65249 0.6041 0.0
O474 O 0.68544 0.82929 0.62811 0.0
C475 C 0.6167 0.74053 0.63186 0.0
Co476 Co 0.22622 0.69144 0.13122 0.0
Co477 Co 0.30706 0.67658 0.13698 0.0
C478 C 0.27106 0.71297 0.17128 0.0
O479 O 0.24244 0.71213 0.15972 0.0
O480 O 0.29905 0.70009 0.16459 0.0
C481 C 0.161 0.72942 0.13403 0.0
O482 O 0.17989 0.75078 0.14579 0.0
C483 C 0.38332 0.68517 0.13898 0.0
C484 C 0.39852 0.64111 0.1186 0.0
C485 C 0.41122 0.66962 0.12938 0.0
N486 N 0.35521 0.66686 0.13375 0.0
N487 N 0.3648 0.64013 0.12204 0.0
C488 C 0.38268 0.71876 0.15077 0.0
H489 H 0.35577 0.72919 0.15153 0.0
H490 H 0.39824 0.7375 0.14261 0.0
H491 H 0.39449 0.71478 0.16761 0.0
C492 C 0.24564 0.71102 0.08696 0.0
N493 N 0.25334 0.70359 0.10825 0.0
N494 N 0.28711 0.70202 0.11221 0.0
C495 C 0.30183 0.71114 0.0941 0.0
C496 C 0.27633 0.71577 0.07707 0.0
C497 C 0.21018 0.70851 0.07592 0.0
H498 H 0.19357 0.69385 0.08612 0.0
H499 H 0.19839 0.73477 0.07327 0.0
H500 H 0.21137 0.69572 0.05985 0.0
O501 O 0.22986 0.64165 0.13495 0.0
O502 O 0.28653 0.6304 0.13817 0.0
H503 H 0.35429 0.69283 0.09182 0.0
H504 H 0.34423 0.73455 0.07966 0.0
C505 C 0.3395 0.71752 0.09349 0.0
H506 H 0.34893 0.73005 0.10882 0.0
H507 H 0.34784 0.62221 0.11534 0.0
O508 O 0.17582 0.70365 0.12534 0.0
C509 C 0.25564 0.62044 0.13752 0.0
Co510 Co 0.29193 0.29921 0.61881 0.0
Co511 Co 0.29183 0.21849 0.62408 0.0
C512 C 0.27624 0.25147 0.58068 0.0
O513 O 0.28113 0.28117 0.58876 0.0
O514 O 0.27873 0.22464 0.59259 0.0
C515 C 0.26612 0.3655 0.60245 0.0
O516 O 0.25163 0.3471 0.58667 0.0
C517 C 0.27245 0.14505 0.62479 0.0
C518 C 0.31354 0.1239 0.64842 0.0
C519 C 0.28534 0.11464 0.63491 0.0
N520 N 0.29224 0.17087 0.6321 0.0
N521 N 0.31657 0.15794 0.64629 0.0
C522 C 0.24302 0.14937 0.60777 0.0
H523 H 0.24406 0.17397 0.59894 0.0
H524 H 0.21833 0.14966 0.61576 0.0
H525 H 0.2433 0.12766 0.59607 0.0
C526 C 0.24643 0.29418 0.65556 0.0
N527 N 0.26377 0.27963 0.63949 0.0
N528 N 0.26327 0.24598 0.64134 0.0
C529 C 0.24568 0.23802 0.65859 0.0
C530 C 0.23435 0.26834 0.66827 0.0
C531 C 0.24348 0.33211 0.6594 0.0
H532 H 0.26957 0.34176 0.66374 0.0
H533 H 0.23305 0.3452 0.64416 0.0
H534 H 0.22629 0.3386 0.67256 0.0
O535 O 0.34191 0.28848 0.62732 0.0
O536 O 0.33994 0.23179 0.63028 0.0
H537 H 0.2717 0.19253 0.67194 0.0
H538 H 0.23012 0.20105 0.68218 0.0
C539 C 0.24487 0.20231 0.66752 0.0
H540 H 0.23326 0.18529 0.65479 0.0
H541 H 0.33564 0.17234 0.65433 0.0
O542 O 0.28424 0.35033 0.61797 0.0
C543 C 0.35679 0.25912 0.63132 0.0
H544 H 0.89266 0.32098 0.10842 0.0
H545 H 0.89099 0.22983 0.14883 0.0
H546 H 0.95434 0.22224 0.1484 0.0
H547 H 0.96223 0.28878 0.07521 0.0
H548 H 0.98064 0.33037 0.07379 0.0
H549 H 0.93487 0.32727 0.07605 0.0
H550 H 0.93879 0.36577 0.11046 0.0
H551 H 0.98449 0.36897 0.10831 0.0
H552 H 0.96878 0.35349 0.13318 0.0
H553 H 0.01835 0.22835 0.14695 0.0
H554 H 0.07742 0.24602 0.14329 0.0
H555 H 0.03756 0.33063 0.10143 0.0
C556 C 0.90556 0.2992 0.11697 0.0
C557 C 0.88684 0.27603 0.12868 0.0
C558 C 0.90473 0.24786 0.13967 0.0
C559 C 0.94074 0.24332 0.13953 0.0
C560 C 0.95847 0.26686 0.12806 0.0
C561 C 0.94145 0.29404 0.11679 0.0
C562 C 0.9667 0.3163 0.10634 0.0
C563 C 0.96075 0.31563 0.08136 0.0
C564 C 0.96456 0.35331 0.11511 0.0
C565 C 1.00059 0.29792 0.11399 0.0
C566 C 0.99532 0.26943 0.12644 0.0
C567 C 0.02283 0.25001 0.13667 0.0
C568 C 0.05661 0.26008 0.13422 0.0
C569 C 0.06275 0.28909 0.12136 0.0
C570 C 0.03408 0.30791 0.11103 0.0
H571 H 0.68028 0.05524 0.66069 0.0
H572 H 0.69326 0.06357 0.5916 0.0
H573 H 0.70403 0.00076 0.58953 0.0
H574 H 0.74389 0.98056 0.67234 0.0
H575 H 0.71668 0.96137 0.69104 0.0
H576 H 0.71608 0.00745 0.68802 0.0
H577 H 0.64984 0.00825 0.67901 0.0
H578 H 0.65025 0.96224 0.68174 0.0
H579 H 0.63237 0.98245 0.65682 0.0
H580 H 0.70599 0.93784 0.59364 0.0
H581 H 0.70009 0.8775 0.60368 0.0
H582 H 0.6845 0.90817 0.67026 0.0
C583 C 0.68667 0.04377 0.64538 0.0
C584 C 0.68667 0.06396 0.62635 0.0
C585 C 0.69368 0.04831 0.60634 0.0
C586 C 0.69984 0.01276 0.60504 0.0
C587 C 0.69866 0.99325 0.6239 0.0
C588 C 0.69244 0.00807 0.64375 0.0
C589 C 0.68902 0.98072 0.66094 0.0
C590 C 0.71816 0.98264 0.67917 0.0
C591 C 0.65325 0.9836 0.67016 0.0
C592 C 0.69318 0.94837 0.64745 0.0
C593 C 0.69917 0.95633 0.62622 0.0
C594 C 0.70187 0.93119 0.6103 0.0
C595 C 0.69831 0.89691 0.61617 0.0
C596 C 0.69197 0.88794 0.63779 0.0
C597 C 0.68969 0.91411 0.65366 0.0
H598 H 0.96954 0.66366 0.11458 0.0
H599 H 0.93654 0.74805 0.15536 0.0
H600 H 0.99492 0.7704 0.15655 0.0
H601 H 0.05071 0.64859 0.14325 0.0
H602 H 0.07322 0.63752 0.11946 0.0
H603 H 0.02779 0.63036 0.11973 0.0
H604 H 0.01567 0.66709 0.08468 0.0
H605 H 0.06113 0.67442 0.08431 0.0
H606 H 0.03031 0.71038 0.08421 0.0
H607 H 0.05821 0.78168 0.15524 0.0
H608 H 0.12143 0.77943 0.15291 0.0
H609 H 0.11381 0.68647 0.11414 0.0
C610 C 0.97439 0.68714 0.12353 0.0
C611 C 0.94783 0.70465 0.13425 0.0
C612 C 0.95564 0.73489 0.14613 0.0
C613 C 0.98901 0.74765 0.14711 0.0
C614 C 0.01446 0.72978 0.13628 0.0
C615 C 0.00756 0.70008 0.12478 0.0
C616 C 0.03996 0.68438 0.11582 0.0
C617 C 0.04841 0.64807 0.12513 0.0
C618 C 0.03655 0.68406 0.09076 0.0
C619 C 0.06634 0.70957 0.1244 0.0
C620 C 0.05105 0.73577 0.13597 0.0
C621 C 0.0704 0.76141 0.14608 0.0
C622 C 0.10635 0.75991 0.14465 0.0
C623 C 0.1227 0.73283 0.13331 0.0
C624 C 0.10217 0.70768 0.12279 0.0
H625 H 0.31667 0.91144 0.63021 0.0
H626 H 0.20658 0.90347 0.61401 0.0
H627 H 0.19878 0.96668 0.61594 0.0
H628 H 0.31045 0.98117 0.66825 0.0
H629 H 0.34821 0.00132 0.6598 0.0
H630 H 0.34487 0.95547 0.65741 0.0
H631 H 0.35439 0.95927 0.61624 0.0
H632 H 0.3577 0.00514 0.6185 0.0
H633 H 0.32642 0.9875 0.59893 0.0
H634 H 0.20311 0.03111 0.62015 0.0
H635 H 0.21942 0.0912 0.62566 0.0
H636 H 0.32687 0.05658 0.63763 0.0
C637 C 0.29087 0.92292 0.62714 0.0
C638 C 0.26222 0.90249 0.62199 0.0
C639 C 0.22894 0.9186 0.61797 0.0
C640 C 0.22423 0.95448 0.61905 0.0
C641 C 0.25307 0.97388 0.62408 0.0
C642 C 0.28575 0.95864 0.62802 0.0
C643 C 0.31256 0.98522 0.63281 0.0
C644 C 0.33004 0.98051 0.65595 0.0
C645 C 0.33934 0.98422 0.61559 0.0
C646 C 0.28988 0.0178 0.63099 0.0
C647 C 0.25565 0.0108 0.62599 0.0
C648 C 0.22993 0.03692 0.62378 0.0
C649 C 0.23952 0.0711 0.62667 0.0
C650 C 0.27457 0.07883 0.63149 0.0
C651 C 0.29986 0.05163 0.63382 0.0
H652 H 0.95963 0.66386 0.86395 0.0
H653 H 0.92552 0.7234 0.9186 0.0
H654 H 0.98449 0.74347 0.92621 0.0
H655 H 0.04023 0.63513 0.89006 0.0
H656 H 0.06342 0.63708 0.86581 0.0
H657 H 0.01788 0.62958 0.86363 0.0
H658 H 0.00685 0.68206 0.83778 0.0
H659 H 0.0524 0.68972 0.83987 0.0
H660 H 0.02171 0.72345 0.84651 0.0
H661 H 0.04799 0.75543 0.92867 0.0
H662 H 0.11117 0.75689 0.92639 0.0
H663 H 0.10392 0.68796 0.87087 0.0
C664 C 0.96449 0.68138 0.8774 0.0
C665 C 0.93763 0.6929 0.89024 0.0
C666 C 0.94518 0.71536 0.90792 0.0
C667 C 0.97878 0.72663 0.91254 0.0
C668 C 0.00458 0.71497 0.89943 0.0
C669 C 0.99784 0.69275 0.88227 0.0
C670 C 0.03038 0.68284 0.87125 0.0
C671 C 0.03845 0.64385 0.8728 0.0
C672 C 0.02766 0.69527 0.84744 0.0
C673 C 0.05658 0.70262 0.88508 0.0
C674 C 0.04118 0.7212 0.90115 0.0
C675 C 0.06031 0.74107 0.9161 0.0
C676 C 0.09618 0.74175 0.91466 0.0
C677 C 0.11252 0.72251 0.89848 0.0
C678 C 0.09226 0.70293 0.88345 0.0
H679 H 0.35524 0.92136 0.33927 0.0
H680 H 0.26539 0.9043 0.37516 0.0
H681 H 0.25742 0.96702 0.38059 0.0
H682 H 0.38849 0.9861 0.3734 0.0
H683 H 0.40435 0.01072 0.35174 0.0
H684 H 0.40081 0.96499 0.34889 0.0
H685 H 0.3623 0.97426 0.31294 0.0
H686 H 0.36579 0.02008 0.31565 0.0
H687 H 0.32381 0.00185 0.31284 0.0
H688 H 0.26138 0.03159 0.38371 0.0
H689 H 0.27817 0.09214 0.38532 0.0
H690 H 0.36599 0.06589 0.34804 0.0
C691 C 0.33351 0.93078 0.34796 0.0
C692 C 0.31075 0.90801 0.35664 0.0
C693 C 0.28305 0.92136 0.36828 0.0
C694 C 0.27827 0.95691 0.3714 0.0
C695 C 0.30149 0.97863 0.36284 0.0
C696 C 0.32859 0.96603 0.35139 0.0
C697 C 0.35129 0.99441 0.34506 0.0
C698 C 0.38842 0.9887 0.3554 0.0
C699 C 0.35074 0.99785 0.32014 0.0
C700 C 0.33302 0.02495 0.35499 0.0
C701 C 0.30411 0.0155 0.36494 0.0
C702 C 0.2837 0.03936 0.37571 0.0
C703 C 0.29325 0.07374 0.37639 0.0
C704 C 0.323 0.08372 0.36646 0.0
C705 C 0.34299 0.05895 0.35565 0.0
H706 H 0.88921 0.33424 0.89837 0.0
H707 H 0.88913 0.22292 0.89483 0.0
H708 H 0.95264 0.22061 0.89348 0.0
H709 H 0.95369 0.34599 0.86189 0.0
H710 H 0.97329 0.38079 0.87689 0.0
H711 H 0.92812 0.37352 0.8786 0.0
H712 H 0.93759 0.36904 0.92066 0.0
H713 H 0.98282 0.37643 0.9191 0.0
H714 H 0.9698 0.33866 0.93271 0.0
H715 H 0.01566 0.23109 0.88914 0.0
H716 H 0.07307 0.2529 0.88471 0.0
H717 H 0.0325 0.35717 0.8939 0.0
C718 C 0.90255 0.30934 0.89752 0.0
C719 C 0.88419 0.27875 0.89669 0.0
C720 C 0.90265 0.24669 0.89559 0.0
C721 C 0.93873 0.24512 0.89476 0.0
C722 C 0.95599 0.27581 0.89534 0.0
C723 C 0.93853 0.30729 0.89694 0.0
C724 C 0.96304 0.3365 0.89703 0.0
C725 C 0.95399 0.36061 0.87743 0.0
C726 C 0.96333 0.35632 0.91866 0.0
C727 C 0.99694 0.3166 0.89485 0.0
C728 C 0.99238 0.28166 0.89384 0.0
C729 C 0.01971 0.25836 0.89053 0.0
C730 C 0.05259 0.27108 0.88832 0.0
C731 C 0.05809 0.30681 0.88981 0.0
C732 C 0.02959 0.32965 0.89305 0.0
H733 H 0.68816 0.05958 0.34678 0.0
H734 H 0.74222 0.09783 0.40558 0.0
H735 H 0.76337 0.0392 0.41522 0.0
H736 H 0.65837 0.98605 0.37187 0.0
H737 H 0.66223 0.95835 0.34861 0.0
H738 H 0.65473 0.00394 0.34474 0.0
H739 H 0.70934 0.00603 0.3231 0.0
H740 H 0.71701 0.96037 0.3269 0.0
H741 H 0.75029 0.98946 0.33539 0.0
H742 H 0.77628 0.97592 0.41976 0.0
H743 H 0.77736 0.91257 0.41976 0.0
H744 H 0.71225 0.91439 0.35921 0.0
C745 C 0.70494 0.05575 0.36151 0.0
C746 C 0.71467 0.08389 0.37486 0.0
C747 C 0.73585 0.07742 0.39432 0.0
C748 C 0.74769 0.04391 0.40015 0.0
C749 C 0.73777 0.0169 0.38657 0.0
C750 C 0.71668 0.02238 0.36771 0.0
C751 C 0.70768 0.9886 0.35683 0.0
C752 C 0.66842 0.98398 0.35544 0.0
C753 C 0.72194 0.98597 0.33422 0.0
C754 C 0.72658 0.96329 0.37272 0.0
C755 C 0.7441 0.9802 0.38962 0.0
C756 C 0.76279 0.96239 0.40656 0.0
C757 C 0.76325 0.92635 0.4064 0.0
C758 C 0.74489 0.9084 0.38951 0.0
C759 C 0.72665 0.92728 0.37234 0.0
H760 H 0.29523 0.41656 0.13808 0.0
H761 H 0.18775 0.40755 0.15169 0.0
H762 H 0.18061 0.47027 0.1538 0.0
H763 H 0.31145 0.49208 0.17348 0.0
H764 H 0.33839 0.51152 0.15471 0.0
H765 H 0.33647 0.4654 0.15598 0.0
H766 H 0.3189 0.46389 0.11455 0.0
H767 H 0.32055 0.50997 0.11319 0.0
H768 H 0.2816 0.48925 0.10375 0.0
H769 H 0.18277 0.53274 0.15169 0.0
H770 H 0.195 0.59347 0.14684 0.0
H771 H 0.30126 0.56435 0.13495 0.0
C772 C 0.27044 0.42784 0.14189 0.0
C773 C 0.24206 0.40711 0.14468 0.0
C774 C 0.20985 0.42284 0.14935 0.0
C775 C 0.20549 0.45849 0.15067 0.0
C776 C 0.23359 0.47822 0.14736 0.0
C777 C 0.26552 0.4637 0.14321 0.0
C778 C 0.2908 0.49135 0.13933 0.0
C779 C 0.32107 0.49 0.15693 0.0
C780 C 0.30371 0.48843 0.11634 0.0
C781 C 0.26773 0.52345 0.14155 0.0
C782 C 0.23491 0.51505 0.14627 0.0
C783 C 0.20845 0.53979 0.14821 0.0
C784 C 0.21565 0.57423 0.1453 0.0
C785 C 0.2491 0.58371 0.14053 0.0
C786 C 0.27553 0.55791 0.13876 0.0
H787 H 0.40784 0.30299 0.62164 0.0
H788 H 0.39073 0.20699 0.65425 0.0
H789 H 0.45334 0.19723 0.66186 0.0
H790 H 0.48049 0.27264 0.5954 0.0
H791 H 0.50389 0.31157 0.59829 0.0
H792 H 0.45741 0.31357 0.59734 0.0
H793 H 0.45956 0.34563 0.63428 0.0
H794 H 0.50612 0.34388 0.6353 0.0
H795 H 0.48438 0.32684 0.65755 0.0
H796 H 0.51665 0.19452 0.66317 0.0
H797 H 0.57858 0.19953 0.65872 0.0
H798 H 0.55694 0.29731 0.62546 0.0
C799 C 0.41733 0.28034 0.63078 0.0
C800 C 0.39437 0.25577 0.63738 0.0
C801 C 0.40777 0.2261 0.64895 0.0
C802 C 0.44333 0.22036 0.65345 0.0
C803 C 0.46531 0.24454 0.64632 0.0
C804 C 0.45303 0.27403 0.63533 0.0
C805 C 0.48272 0.29455 0.62831 0.0
C806 C 0.48101 0.29828 0.60335 0.0
C807 C 0.48322 0.32982 0.63953 0.0
C808 C 0.51339 0.27151 0.63667 0.0
C809 C 0.50256 0.24297 0.64713 0.0
C810 C 0.52558 0.21695 0.65526 0.0
C811 C 0.56072 0.21997 0.65254 0.0
C812 C 0.57266 0.24886 0.64181 0.0
C813 C 0.54863 0.27517 0.63399 0.0
H814 H 0.79243 0.4294 0.13118 0.0
H815 H 0.68166 0.41983 0.13348 0.0
H816 H 0.67387 0.48281 0.13514 0.0
H817 H 0.80011 0.50056 0.1684 0.0
H818 H 0.83197 0.5213 0.15375 0.0
H819 H 0.82918 0.47527 0.15265 0.0
H820 H 0.82168 0.47795 0.11048 0.0
H821 H 0.82457 0.52397 0.11145 0.0
H822 H 0.78759 0.5052 0.0974 0.0
H823 H 0.67764 0.54633 0.13646 0.0
H824 H 0.69266 0.60708 0.13686 0.0
H825 H 0.80107 0.57612 0.13391 0.0
C826 C 0.76652 0.44052 0.13198 0.0
C827 C 0.73767 0.41957 0.13221 0.0
C828 C 0.70421 0.43523 0.13332 0.0
C829 C 0.69948 0.47102 0.13428 0.0
C830 C 0.72842 0.49086 0.13414 0.0
C831 C 0.76129 0.47628 0.133 0.0
C832 C 0.78794 0.50362 0.13305 0.0
C833 C 0.81382 0.49996 0.15317 0.0
C834 C 0.80653 0.50262 0.11183 0.0
C835 C 0.76484 0.53581 0.13434 0.0
C836 C 0.73063 0.52777 0.13498 0.0
C837 C 0.70434 0.553 0.13599 0.0
C838 C 0.71319 0.58747 0.13621 0.0
C839 C 0.74808 0.59647 0.13543 0.0
C840 C 0.7742 0.57015 0.13461 0.0
H841 H 0.5645 0.7916 0.62878 0.0
H842 H 0.58393 0.68193 0.6396 0.0
H843 H 0.52195 0.67475 0.64213 0.0
H844 H 0.49395 0.8021 0.66514 0.0
H845 H 0.46924 0.83233 0.64739 0.0
H846 H 0.51572 0.82983 0.64767 0.0
H847 H 0.51144 0.81925 0.606 0.0
H848 H 0.465 0.82174 0.6056 0.0
H849 H 0.48676 0.78424 0.59498 0.0
H850 H 0.45861 0.67798 0.64171 0.0
H851 H 0.39609 0.69163 0.63795 0.0
H852 H 0.41572 0.79919 0.6275 0.0
C853 C 0.55571 0.76618 0.63191 0.0
C854 C 0.57922 0.73737 0.63401 0.0
C855 C 0.56658 0.70445 0.63788 0.0
C856 C 0.53135 0.70004 0.63943 0.0
C857 C 0.5089 0.72876 0.63712 0.0
C858 C 0.52038 0.76121 0.63345 0.0
C859 C 0.49021 0.78734 0.63067 0.0
C860 C 0.49242 0.81451 0.6488 0.0
C861 C 0.48824 0.80412 0.60796 0.0
C862 C 0.46015 0.76428 0.63304 0.0
C863 C 0.47172 0.73065 0.63688 0.0
C864 C 0.44914 0.70425 0.63886 0.0
C865 C 0.41364 0.71229 0.63663 0.0
C866 C 0.40095 0.74649 0.63247 0.0
C867 C 0.42462 0.77288 0.63091 0.0
H868 H 0.2015 0.4381 0.88432 0.0
H869 H 0.30323 0.40841 0.86375 0.0
H870 H 0.31572 0.46921 0.85949 0.0
H871 H 0.18557 0.51181 0.84798 0.0
H872 H 0.16443 0.53771 0.86777 0.0
H873 H 0.16247 0.49157 0.8685 0.0
H874 H 0.18775 0.49108 0.90868 0.0
H875 H 0.18976 0.53718 0.90807 0.0
H876 H 0.22816 0.51099 0.91563 0.0
H877 H 0.31844 0.5323 0.85829 0.0
H878 H 0.31157 0.59517 0.86084 0.0
H879 H 0.20832 0.58537 0.88237 0.0
C880 C 0.2263 0.4444 0.8788 0.0
C881 C 0.25135 0.41838 0.87438 0.0
C882 C 0.2836 0.42776 0.86731 0.0
C883 C 0.29097 0.46227 0.86476 0.0
C884 C 0.26588 0.48721 0.86934 0.0
C885 C 0.23422 0.47889 0.87623 0.0
C886 C 0.21238 0.51102 0.88065 0.0
C887 C 0.17925 0.51314 0.86531 0.0
C888 C 0.20403 0.51266 0.90469 0.0
C889 C 0.23693 0.53856 0.87533 0.0
C890 C 0.26753 0.52412 0.86874 0.0
C891 C 0.29457 0.54401 0.86336 0.0
C892 C 0.29039 0.57974 0.86491 0.0
C893 C 0.25941 0.5953 0.87183 0.0
C894 C 0.23224 0.57431 0.87693 0.0
H895 H 0.58163 0.2308 0.36548 0.0
H896 H 0.59935 0.3399 0.37141 0.0
H897 H 0.53625 0.35242 0.36878 0.0
H898 H 0.50558 0.23836 0.32726 0.0
H899 H 0.48477 0.20374 0.33975 0.0
H900 H 0.53124 0.20382 0.34069 0.0
H901 H 0.53431 0.19906 0.38282 0.0
H902 H 0.4879 0.1991 0.38202 0.0
H903 H 0.51095 0.23054 0.39819 0.0
H904 H 0.47075 0.35257 0.36708 0.0
H905 H 0.40876 0.34021 0.3667 0.0
H906 H 0.43514 0.23101 0.36237 0.0
C907 C 0.57237 0.2574 0.36596 0.0
C908 C 0.59552 0.28437 0.36858 0.0
C909 C 0.58215 0.31878 0.36937 0.0
C910 C 0.54634 0.32616 0.36786 0.0
C911 C 0.52428 0.29887 0.36556 0.0
C912 C 0.53684 0.2652 0.36458 0.0
C913 C 0.50787 0.24038 0.36297 0.0
C914 C 0.50734 0.22041 0.34138 0.0
C915 C 0.51042 0.21584 0.38268 0.0
C916 C 0.47701 0.2653 0.36345 0.0
C917 C 0.48688 0.29894 0.36481 0.0
C918 C 0.46273 0.32632 0.36591 0.0
C919 C 0.42758 0.31904 0.3657 0.0
C920 C 0.41701 0.28465 0.36452 0.0
C921 C 0.44223 0.2576 0.36326 0.0
H922 H 0.79001 0.57177 0.88617 0.0
H923 H 0.68049 0.60077 0.87789 0.0
H924 H 0.66674 0.53969 0.87616 0.0
H925 H 0.78753 0.49986 0.84981 0.0
H926 H 0.81865 0.47362 0.8663 0.0
H927 H 0.82026 0.51976 0.86727 0.0
H928 H 0.81645 0.51832 0.90912 0.0
H929 H 0.81495 0.47216 0.90829 0.0
H930 H 0.78123 0.49727 0.92028 0.0
H931 H 0.66451 0.4761 0.87434 0.0
H932 H 0.67373 0.41325 0.87388 0.0
H933 H 0.78464 0.42454 0.88391 0.0
C934 C 0.76312 0.5653 0.8841 0.0
C935 C 0.73635 0.5912 0.88217 0.0
C936 C 0.70151 0.58153 0.87944 0.0
C937 C 0.69338 0.54686 0.87841 0.0
C938 C 0.72034 0.52207 0.8802 0.0
C939 C 0.75448 0.53074 0.8831 0.0
C940 C 0.77843 0.49887 0.88456 0.0
C941 C 0.80264 0.49799 0.86587 0.0
C942 C 0.79897 0.49652 0.90689 0.0
C943 C 0.75234 0.47101 0.88194 0.0
C944 C 0.71902 0.48507 0.87939 0.0
C945 C 0.69046 0.46474 0.8764 0.0
C946 C 0.69604 0.429 0.87612 0.0
C947 C 0.72993 0.41382 0.8789 0.0
C948 C 0.75842 0.43527 0.88182 0.0
H949 H 0.44659 0.72839 0.37011 0.0
H950 H 0.41941 0.83774 0.36664 0.0
H951 H 0.48138 0.85011 0.36729 0.0
H952 H 0.52206 0.73414 0.40663 0.0
H953 H 0.54584 0.7002 0.39357 0.0
H954 H 0.4994 0.70016 0.39265 0.0
H955 H 0.49653 0.69755 0.35046 0.0
H956 H 0.54297 0.69764 0.35125 0.0
H957 H 0.51717 0.72978 0.3356 0.0
H958 H 0.54663 0.85034 0.36887 0.0
H959 H 0.60975 0.8385 0.37101 0.0
H960 H 0.59342 0.72891 0.37299 0.0
C961 C 0.45354 0.755 0.36948 0.0
C962 C 0.42806 0.78211 0.36835 0.0
C963 C 0.43842 0.81652 0.36751 0.0
C964 C 0.47356 0.82381 0.36787 0.0
C965 C 0.49795 0.79641 0.369 0.0
C966 C 0.48835 0.76271 0.36975 0.0
C967 C 0.5195 0.73789 0.37096 0.0
C968 C 0.52183 0.71687 0.39222 0.0
C969 C 0.519 0.71434 0.35087 0.0
C970 C 0.54822 0.7629 0.37086 0.0
C971 C 0.53531 0.79653 0.36973 0.0
C972 C 0.55701 0.8241 0.36971 0.0
C973 C 0.59285 0.81709 0.37094 0.0
C974 C 0.60663 0.78276 0.37214 0.0
C975 C 0.58382 0.75543 0.372 0.0
H976 H 0.21242 0.25339 0.04337 0.0
H977 H 0.30888 0.30282 0.06042 0.0
H978 H 0.32053 0.30468 0.02197 0.0
H979 H 0.23584 0.20733 0.99436 0.0
H980 H 0.19543 0.21832 0.97913 0.0
H981 H 0.197 0.21428 0.00838 0.0
H982 H 0.17 0.27596 0.01119 0.0
H983 H 0.16817 0.2801 0.98198 0.0
H984 H 0.1903 0.31118 0.99898 0.0
H985 H 0.32205 0.30255 0.98209 0.0
H986 H 0.30889 0.30654 0.94248 0.0
H987 H 0.2065 0.26931 0.94967 0.0
C988 C 0.23611 0.26439 0.03904 0.0
C989 C 0.26048 0.27644 0.05526 0.0
C990 C 0.29077 0.29129 0.0487 0.0
C991 C 0.29747 0.29295 0.02674 0.0
C992 C 0.27302 0.28092 0.01127 0.0
C993 C 0.24247 0.26783 0.01698 0.0
C994 C 0.21851 0.26142 0.99684 0.0
C995 C 0.21128 0.22305 0.99455 0.0
C996 C 0.18475 0.28349 0.99728 0.0
C997 C 0.24044 0.2732 0.97902 0.0
C998 C 0.27216 0.28333 0.98783 0.0
C999 C 0.29726 0.29484 0.97495 0.0
C1000 C 0.28956 0.29685 0.95243 0.0
C1001 C 0.25667 0.28827 0.94299 0.0
C1002 C 0.23183 0.27604 0.95648 0.0
H1003 H 0.73523 0.29131 0.45441 0.0
H1004 H 0.70515 0.18839 0.43587 0.0
H1005 H 0.70352 0.17301 0.47428 0.0
H1006 H 0.79041 0.26239 0.50449 0.0
H1007 H 0.77814 0.29994 0.51974 0.0
H1008 H 0.78005 0.30268 0.4906 0.0
H1009 H 0.71663 0.32657 0.48697 0.0
H1010 H 0.71435 0.32347 0.51601 0.0
H1011 H 0.68345 0.3022 0.49794 0.0
H1012 H 0.69409 0.17165 0.51318 0.0
H1013 H 0.68718 0.18101 0.5519 0.0
H1014 H 0.73267 0.28061 0.54796 0.0
C1015 C 0.72909 0.26534 0.45847 0.0
C1016 C 0.72008 0.24125 0.44195 0.0
C1017 C 0.71207 0.20751 0.44803 0.0
C1018 C 0.71102 0.19839 0.4699 0.0
C1019 C 0.71883 0.22292 0.48569 0.0
C1020 C 0.72863 0.2554 0.48044 0.0
C1021 C 0.73508 0.27675 0.50094 0.0
C1022 C 0.77319 0.28598 0.50413 0.0
C1023 C 0.71094 0.30916 0.50042 0.0
C1024 C 0.72597 0.25153 0.51826 0.0
C1025 C 0.71643 0.2208 0.50893 0.0
C1026 C 0.70302 0.19495 0.52091 0.0
C1027 C 0.69962 0.20038 0.54311 0.0
C1028 C 0.71068 0.23093 0.55349 0.0
C1029 C 0.72422 0.25678 0.54075 0.0
H1030 H 0.71887 0.71241 0.95023 0.0
H1031 H 0.81543 0.75713 0.937 0.0
H1032 H 0.82572 0.77178 0.97602 0.0
H1033 H 0.69539 0.77048 0.99561 0.0
H1034 H 0.67946 0.73559 0.01069 0.0
H1035 H 0.67654 0.7346 0.98132 0.0
H1036 H 0.70967 0.67534 0.98243 0.0
H1037 H 0.71283 0.67621 0.01172 0.0
H1038 H 0.75141 0.67084 0.99729 0.0
H1039 H 0.82806 0.77656 0.01689 0.0
H1040 H 0.82367 0.76846 0.0565 0.0
H1041 H 0.72834 0.71582 0.04294 0.0
C1042 C 0.74151 0.72641 0.95547 0.0
C1043 C 0.76605 0.73433 0.94066 0.0
C1044 C 0.79617 0.75128 0.94816 0.0
C1045 C 0.80215 0.75976 0.97024 0.0
C1046 C 0.77792 0.75072 0.98461 0.0
C1047 C 0.74824 0.7343 0.97753 0.0
C1048 C 0.72858 0.72341 0.99654 0.0
C1049 C 0.69288 0.74215 0.996 0.0
C1050 C 0.72547 0.68413 0.99702 0.0
C1051 C 0.75219 0.73557 0.0154 0.0
C1052 C 0.78014 0.75188 0.00821 0.0
C1053 C 0.80612 0.76408 0.0227 0.0
C1054 C 0.80355 0.75921 0.04512 0.0
C1055 C 0.77557 0.74176 0.05274 0.0
C1056 C 0.74953 0.73007 0.03764 0.0
H1057 H 0.26957 0.71796 0.45284 0.0
H1058 H 0.30073 0.82265 0.44446 0.0
H1059 H 0.29211 0.83482 0.48261 0.0
H1060 H 0.20916 0.73282 0.49541 0.0
H1061 H 0.22465 0.69551 0.51112 0.0
H1062 H 0.22685 0.69564 0.48195 0.0
H1063 H 0.29269 0.68114 0.48673 0.0
H1064 H 0.2906 0.68064 0.51586 0.0
H1065 H 0.31997 0.70821 0.50367 0.0
H1066 H 0.28178 0.8365 0.52107 0.0
H1067 H 0.28157 0.8252 0.56011 0.0
H1068 H 0.2664 0.71689 0.54684 0.0
C1069 C 0.27426 0.7435 0.45902 0.0
C1070 C 0.28397 0.7699 0.44515 0.0
C1071 C 0.2909 0.80263 0.45412 0.0
C1072 C 0.2865 0.80976 0.47597 0.0
C1073 C 0.27643 0.78352 0.48905 0.0
C1074 C 0.27137 0.75075 0.48121 0.0
C1075 C 0.2656 0.7263 0.49974 0.0
C1076 C 0.2294 0.71171 0.49688 0.0
C1077 C 0.2939 0.69736 0.50161 0.0
C1078 C 0.26864 0.75057 0.5191 0.0
C1079 C 0.27388 0.78358 0.51226 0.0
C1080 C 0.27785 0.81075 0.52673 0.0
C1081 C 0.27767 0.80395 0.54895 0.0
C1082 C 0.27432 0.77003 0.5567 0.0
C1083 C 0.26896 0.74307 0.54147 0.0
H1084 H 0.23097 0.74566 0.94887 0.0
H1085 H 0.33142 0.69666 0.93966 0.0
H1086 H 0.34422 0.69407 0.97936 0.0
H1087 H 0.26266 0.79759 0.99751 0.0
H1088 H 0.22293 0.79361 0.01052 0.0
H1089 H 0.22241 0.79431 0.9812 0.0
H1090 H 0.1918 0.73649 0.9796 0.0
H1091 H 0.19276 0.73526 0.00889 0.0
H1092 H 0.21163 0.69988 0.99432 0.0
H1093 H 0.34089 0.68518 0.0186 0.0
H1094 H 0.32837 0.68259 0.0568 0.0
H1095 H 0.23562 0.74756 0.04294 0.0
C1096 C 0.25597 0.7352 0.95526 0.0
C1097 C 0.28018 0.72126 0.94119 0.0
C1098 C 0.31259 0.70769 0.95009 0.0
C1099 C 0.32005 0.70593 0.97264 0.0
C1100 C 0.29528 0.71879 0.98606 0.0
C1101 C 0.26438 0.73424 0.97784 0.0
C1102 C 0.24247 0.74584 0.99619 0.0
C1103 C 0.23732 0.78518 0.99637 0.0
C1104 C 0.20761 0.72831 0.99464 0.0
C1105 C 0.26536 0.73309 0.01587 0.0
C1106 C 0.29539 0.71715 0.00946 0.0
C1107 C 0.31849 0.69924 0.02404 0.0
C1108 C 0.31131 0.69837 0.04591 0.0
C1109 C 0.2821 0.71663 0.05339 0.0
C1110 C 0.25862 0.734 0.03799 0.0
H1111 H 0.29771 0.29501 0.45613 0.0
H1112 H 0.24669 0.20074 0.43922 0.0
H1113 H 0.23644 0.19187 0.47799 0.0
H1114 H 0.34053 0.26673 0.50513 0.0
H1115 H 0.33489 0.30668 0.51953 0.0
H1116 H 0.33599 0.30683 0.49035 0.0
H1117 H 0.27636 0.33961 0.48653 0.0
H1118 H 0.27515 0.33975 0.51576 0.0
H1119 H 0.24024 0.32218 0.49892 0.0
H1120 H 0.23683 0.19062 0.51889 0.0
H1121 H 0.24507 0.19855 0.55877 0.0
H1122 H 0.29266 0.29556 0.54872 0.0
C1123 C 0.28355 0.27301 0.46051 0.0
C1124 C 0.27284 0.24858 0.44473 0.0
C1125 C 0.25523 0.21962 0.45115 0.0
C1126 C 0.24918 0.21447 0.47308 0.0
C1127 C 0.26051 0.2388 0.48832 0.0
C1128 C 0.27696 0.26771 0.48229 0.0
C1129 C 0.28764 0.2893 0.50195 0.0
C1130 C 0.3271 0.29255 0.50437 0.0
C1131 C 0.26871 0.32481 0.50071 0.0
C1132 C 0.27535 0.26762 0.52003 0.0
C1133 C 0.25977 0.23859 0.51183 0.0
C1134 C 0.24846 0.21354 0.52548 0.0
C1135 C 0.25336 0.2182 0.5481 0.0
C1136 C 0.26917 0.24782 0.55684 0.0
C1137 C 0.27988 0.27298 0.54254 0.0
H1138 H 0.77359 0.25336 0.04413 0.0
H1139 H 0.67024 0.29626 0.05214 0.0
H1140 H 0.65615 0.29205 0.01297 0.0
H1141 H 0.78357 0.30763 0.99926 0.0
H1142 H 0.81014 0.2773 0.98508 0.0
H1143 H 0.81022 0.27543 0.01431 0.0
H1144 H 0.79365 0.21172 0.01185 0.0
H1145 H 0.7933 0.21349 0.98255 0.0
H1146 H 0.75561 0.20038 0.99526 0.0
H1147 H 0.65333 0.28664 0.97301 0.0
H1148 H 0.66466 0.29084 0.93447 0.0
H1149 H 0.77291 0.26248 0.95066 0.0
C1150 C 0.7479 0.26163 0.03774 0.0
C1151 C 0.72261 0.27367 0.05172 0.0
C1152 C 0.68952 0.28469 0.04236 0.0
C1153 C 0.68131 0.28288 0.01989 0.0
C1154 C 0.70681 0.27121 0.00666 0.0
C1155 C 0.73974 0.26164 0.01511 0.0
C1156 C 0.7638 0.25571 0.99695 0.0
C1157 C 0.79369 0.2805 0.99902 0.0
C1158 C 0.77739 0.21808 0.99664 0.0
C1159 C 0.73925 0.26405 0.97709 0.0
C1160 C 0.70628 0.27175 0.98316 0.0
C1161 C 0.67903 0.28068 0.968 0.0
C1162 C 0.68578 0.28289 0.94606 0.0
C1163 C 0.71971 0.27716 0.93942 0.0
C1164 C 0.74668 0.26697 0.95518 0.0
H1165 H 0.70827 0.71376 0.44608 0.0
H1166 H 0.77899 0.79627 0.44174 0.0
H1167 H 0.78818 0.79729 0.48193 0.0
H1168 H 0.66656 0.74873 0.48889 0.0
H1169 H 0.65965 0.70861 0.50216 0.0
H1170 H 0.66359 0.70966 0.47324 0.0
H1171 H 0.71381 0.66357 0.47726 0.0
H1172 H 0.70985 0.66216 0.50625 0.0
H1173 H 0.75082 0.67081 0.4959 0.0
H1174 H 0.78518 0.79329 0.52246 0.0
H1175 H 0.76876 0.78577 0.56023 0.0
H1176 H 0.69663 0.70916 0.5378 0.0
C1177 C 0.72662 0.73118 0.45358 0.0
C1178 C 0.7434 0.75455 0.44086 0.0
C1179 C 0.76619 0.77793 0.45125 0.0
C1180 C 0.77161 0.77863 0.47403 0.0
C1181 C 0.75382 0.75598 0.48617 0.0
C1182 C 0.73176 0.73268 0.47631 0.0
C1183 C 0.71263 0.71402 0.49299 0.0
C1184 C 0.67329 0.72068 0.48908 0.0
C1185 C 0.72237 0.67534 0.4931 0.0
C1186 C 0.72671 0.73106 0.51371 0.0
C1187 C 0.75092 0.75472 0.50949 0.0
C1188 C 0.76648 0.77463 0.52598 0.0
C1189 C 0.75686 0.77039 0.54731 0.0
C1190 C 0.73155 0.74686 0.55185 0.0
C1191 C 0.71655 0.72683 0.53483 0.0
H1192 H 0.53668 0.31016 0.11105 0.0
H1193 H 0.58439 0.2838 0.17521 0.0
H1194 H 0.52733 0.27133 0.18753 0.0
H1195 H 0.46421 0.35486 0.12967 0.0
H1196 H 0.43423 0.34095 0.10799 0.0
H1197 H 0.47924 0.3439 0.10341 0.0
H1198 H 0.48197 0.28009 0.09142 0.0
H1199 H 0.43687 0.27698 0.09587 0.0
H1200 H 0.46851 0.24747 0.10936 0.0
H1201 H 0.46435 0.26603 0.19371 0.0
H1202 H 0.40069 0.26827 0.19324 0.0
H1203 H 0.39383 0.29961 0.12529 0.0
C1204 C 0.53523 0.30115 0.12759 0.0
C1205 C 0.56532 0.29691 0.14192 0.0
C1206 C 0.56215 0.28581 0.16357 0.0
C1207 C 0.52967 0.27904 0.17082 0.0
C1208 C 0.50056 0.28367 0.15628 0.0
C1209 C 0.50305 0.29442 0.13509 0.0
C1210 C 0.46769 0.29948 0.12309 0.0
C1211 C 0.46096 0.33703 0.11561 0.0
C1212 C 0.46353 0.27451 0.10379 0.0
C1213 C 0.44483 0.29045 0.14096 0.0
C1214 C 0.46428 0.2812 0.15993 0.0
C1215 C 0.44887 0.27296 0.17888 0.0
C1216 C 0.41266 0.27438 0.17846 0.0
C1217 C 0.39219 0.28407 0.15923 0.0
C1218 C 0.40867 0.29192 0.14022 0.0
H1219 H 0.67678 0.39265 0.60571 0.0
H1220 H 0.7603 0.37935 0.65627 0.0
H1221 H 0.76796 0.44202 0.65652 0.0
H1222 H 0.71596 0.46275 0.5767 0.0
H1223 H 0.67466 0.48452 0.56995 0.0
H1224 H 0.67757 0.43839 0.57269 0.0
H1225 H 0.63201 0.44186 0.60143 0.0
H1226 H 0.62905 0.48792 0.59883 0.0
H1227 H 0.63944 0.46842 0.62519 0.0
H1228 H 0.7608 0.5064 0.65479 0.0
H1229 H 0.74306 0.56693 0.64918 0.0
H1230 H 0.66835 0.53828 0.59691 0.0
C1231 C 0.69696 0.40293 0.61662 0.0
C1232 C 0.71788 0.3813 0.63103 0.0
C1233 C 0.74411 0.39554 0.64503 0.0
C1234 C 0.74863 0.43107 0.6453 0.0
C1235 C 0.7272 0.45181 0.63114 0.0
C1236 C 0.70228 0.43822 0.6168 0.0
C1237 C 0.68207 0.46617 0.60366 0.0
C1238 C 0.68793 0.46275 0.5793 0.0
C1239 C 0.64336 0.46608 0.60753 0.0
C1240 C 0.69868 0.49767 0.61343 0.0
C1241 C 0.72464 0.48889 0.62922 0.0
C1242 C 0.74138 0.51367 0.6419 0.0
C1243 C 0.73131 0.54836 0.63834 0.0
C1244 C 0.70514 0.55811 0.62192 0.0
C1245 C 0.68896 0.5321 0.60929 0.0
H1246 H 0.60528 0.71248 0.16595 0.0
H1247 H 0.62257 0.71898 0.09718 0.0
H1248 H 0.56012 0.71378 0.08788 0.0
H1249 H 0.54471 0.64974 0.16155 0.0
H1250 H 0.51781 0.66714 0.18189 0.0
H1251 H 0.56308 0.67565 0.1834 0.0
H1252 H 0.54834 0.74116 0.18362 0.0
H1253 H 0.50291 0.73286 0.18223 0.0
H1254 H 0.51958 0.76001 0.16211 0.0
H1255 H 0.49789 0.69993 0.08584 0.0
H1256 H 0.43891 0.68184 0.09128 0.0
H1257 H 0.4607 0.68681 0.16127 0.0
C1258 C 0.59586 0.71355 0.14894 0.0
C1259 C 0.61887 0.71614 0.13229 0.0
C1260 C 0.60549 0.71716 0.11023 0.0
C1261 C 0.57003 0.71424 0.10478 0.0
C1262 C 0.54821 0.71083 0.12157 0.0
C1263 C 0.56048 0.71096 0.14322 0.0
C1264 C 0.53181 0.70497 0.15807 0.0
C1265 C 0.53985 0.67244 0.17204 0.0
C1266 C 0.52528 0.73664 0.17235 0.0
C1267 C 0.50175 0.70014 0.14135 0.0
C1268 C 0.5118 0.70383 0.12039 0.0
C1269 C 0.48951 0.69771 0.10214 0.0
C1270 C 0.4562 0.68731 0.10538 0.0
C1271 C 0.44539 0.68343 0.12666 0.0
C1272 C 0.46824 0.69042 0.14486 0.0
H1273 H 0.28321 0.41138 0.63508 0.0
H1274 H 0.24073 0.40563 0.56796 0.0
H1275 H 0.23687 0.46899 0.56588 0.0
H1276 H 0.23055 0.48708 0.64978 0.0
H1277 H 0.26512 0.50439 0.66704 0.0
H1278 H 0.26285 0.45857 0.66357 0.0
H1279 H 0.32509 0.45559 0.65092 0.0
H1280 H 0.32754 0.50133 0.65436 0.0
H1281 H 0.3353 0.48204 0.62844 0.0
H1282 H 0.24273 0.53297 0.57011 0.0
H1283 H 0.2558 0.59214 0.58069 0.0
H1284 H 0.29065 0.5565 0.64582 0.0
C1285 C 0.27285 0.42343 0.61999 0.0
C1286 C 0.26235 0.40352 0.60166 0.0
C1287 C 0.24886 0.42032 0.58224 0.0
C1288 C 0.24656 0.45632 0.58089 0.0
C1289 C 0.25742 0.47521 0.59919 0.0
C1290 C 0.27002 0.45935 0.61843 0.0
C1291 C 0.28073 0.48554 0.63556 0.0
C1292 C 0.25847 0.48378 0.65514 0.0
C1293 C 0.31946 0.48084 0.64273 0.0
C1294 C 0.27296 0.51854 0.62278 0.0
C1295 C 0.25946 0.51209 0.60186 0.0
C1296 C 0.25243 0.53844 0.58664 0.0
C1297 C 0.25955 0.57225 0.59294 0.0
C1298 C 0.27316 0.57954 0.61439 0.0
C1299 C 0.27968 0.55209 0.62941 0.0
H1300 H 0.58875 0.7039 0.90886 0.0
H1301 H 0.61785 0.73608 0.84543 0.0
H1302 H 0.5563 0.74433 0.83285 0.0
H1303 H 0.51913 0.65564 0.88997 0.0
H1304 H 0.49193 0.66749 0.91149 0.0
H1305 H 0.53817 0.66765 0.91635 0.0
H1306 H 0.53358 0.73132 0.92848 0.0
H1307 H 0.48723 0.73136 0.92363 0.0
H1308 H 0.51135 0.76282 0.91045 0.0
H1309 H 0.49235 0.74253 0.82574 0.0
H1310 H 0.42987 0.73247 0.82498 0.0
H1311 H 0.44152 0.70345 0.8932 0.0
C1312 C 0.58221 0.71328 0.89244 0.0
C1313 C 0.60821 0.71939 0.87815 0.0
C1314 C 0.59848 0.73131 0.85673 0.0
C1315 C 0.56355 0.73616 0.84943 0.0
C1316 C 0.5386 0.72933 0.8638 0.0
C1317 C 0.54743 0.71842 0.88492 0.0
C1318 C 0.51554 0.711 0.89664 0.0
C1319 C 0.51625 0.6732 0.90404 0.0
C1320 C 0.51171 0.7356 0.91595 0.0
C1321 C 0.48748 0.71841 0.8786 0.0
C1322 C 0.50139 0.72917 0.85983 0.0
C1323 C 0.48106 0.73486 0.84045 0.0
C1324 C 0.44568 0.72903 0.84015 0.0
C1325 C 0.43092 0.71798 0.85914 0.0
C1326 C 0.45202 0.71304 0.87867 0.0
H1327 H 0.34631 0.4218 0.34517 0.0
H1328 H 0.26021 0.40753 0.38486 0.0
H1329 H 0.25756 0.47 0.39272 0.0
H1330 H 0.38803 0.48174 0.37999 0.0
H1331 H 0.40303 0.50656 0.35813 0.0
H1332 H 0.39612 0.46147 0.3544 0.0
H1333 H 0.35454 0.47524 0.32029 0.0
H1334 H 0.36139 0.52041 0.32388 0.0
H1335 H 0.31816 0.50503 0.32253 0.0
H1336 H 0.26561 0.53456 0.39663 0.0
H1337 H 0.28555 0.59423 0.39777 0.0
H1338 H 0.36765 0.56416 0.35672 0.0
C1339 C 0.32653 0.4318 0.35528 0.0
C1340 C 0.30321 0.40991 0.36422 0.0
C1341 C 0.27821 0.42394 0.37774 0.0
C1342 C 0.27649 0.45935 0.38225 0.0
C1343 C 0.30013 0.48019 0.37326 0.0
C1344 C 0.32478 0.46679 0.36015 0.0
C1345 C 0.34851 0.494 0.35344 0.0
C1346 C 0.38614 0.48542 0.36201 0.0
C1347 C 0.34544 0.49896 0.32856 0.0
C1348 C 0.33355 0.52488 0.36489 0.0
C1349 C 0.30541 0.51665 0.37605 0.0
C1350 C 0.28752 0.54128 0.38786 0.0
C1351 C 0.29885 0.57511 0.38831 0.0
C1352 C 0.32792 0.58372 0.3772 0.0
C1353 C 0.34537 0.55822 0.3654 0.0
H1354 H 0.41361 0.26072 0.8943 0.0
H1355 H 0.36462 0.32394 0.84162 0.0
H1356 H 0.42163 0.33454 0.8287 0.0
H1357 H 0.4863 0.31065 0.90592 0.0
H1358 H 0.51692 0.27491 0.91083 0.0
H1359 H 0.47216 0.27029 0.9156 0.0
H1360 H 0.46926 0.21809 0.88949 0.0
H1361 H 0.51417 0.22225 0.88487 0.0
H1362 H 0.48213 0.22253 0.86212 0.0
H1363 H 0.48339 0.34271 0.82328 0.0
H1364 H 0.5466 0.34413 0.82374 0.0
H1365 H 0.55647 0.27162 0.87777 0.0
C1366 C 0.41487 0.27642 0.87988 0.0
C1367 C 0.38456 0.29159 0.86905 0.0
C1368 C 0.38736 0.31197 0.85022 0.0
C1369 C 0.41967 0.31824 0.84275 0.0
C1370 C 0.449 0.30355 0.85404 0.0
C1371 C 0.447 0.28259 0.87196 0.0
C1372 C 0.48278 0.27022 0.8811 0.0
C1373 C 0.48994 0.28225 0.90477 0.0
C1374 C 0.48735 0.23094 0.87928 0.0
C1375 C 0.50509 0.28827 0.86583 0.0
C1376 C 0.48498 0.30741 0.85042 0.0
C1377 C 0.49945 0.32751 0.83512 0.0
C1378 C 0.53549 0.32811 0.83554 0.0
C1379 C 0.55691 0.30862 0.8511 0.0
C1380 C 0.54125 0.28794 0.86618 0.0
H1381 H 0.70719 0.41351 0.36519 0.0
H1382 H 0.76355 0.4089 0.42884 0.0
H1383 H 0.7666 0.47205 0.42877 0.0
H1384 H 0.75348 0.48465 0.34371 0.0
H1385 H 0.71527 0.50345 0.32918 0.0
H1386 H 0.71925 0.45768 0.33365 0.0
H1387 H 0.66133 0.46004 0.35206 0.0
H1388 H 0.65719 0.50577 0.34768 0.0
H1389 H 0.65601 0.48855 0.37478 0.0
H1390 H 0.75967 0.53611 0.42306 0.0
H1391 H 0.74436 0.59573 0.41189 0.0
H1392 H 0.69451 0.55917 0.35127 0.0
C1393 C 0.72049 0.42572 0.37903 0.0
C1394 C 0.73515 0.4061 0.39703 0.0
C1395 C 0.75216 0.42323 0.41483 0.0
C1396 C 0.75406 0.45916 0.41495 0.0
C1397 C 0.73902 0.47772 0.39708 0.0
C1398 C 0.72272 0.4616 0.37939 0.0
C1399 C 0.7077 0.48764 0.36257 0.0
C1400 C 0.72496 0.48308 0.341 0.0
C1401 C 0.66822 0.48536 0.35908 0.0
C1402 C 0.71757 0.52093 0.37374 0.0
C1403 C 0.73576 0.51463 0.39358 0.0
C1404 C 0.74615 0.54134 0.40732 0.0
C1405 C 0.7377 0.57535 0.40065 0.0
C1406 C 0.71929 0.58254 0.38029 0.0
C1407 C 0.70916 0.55472 0.36676 0.0
H1408 H 0.31386 0.2343 0.29324 0.0
H1409 H 0.21827 0.27947 0.31452 0.0
H1410 H 0.19231 0.27857 0.27648 0.0
H1411 H 0.31363 0.28594 0.24718 0.0
H1412 H 0.33296 0.25376 0.23027 0.0
H1413 H 0.34147 0.25186 0.25937 0.0
H1414 H 0.31981 0.18981 0.25952 0.0
H1415 H 0.31102 0.19165 0.23034 0.0
H1416 H 0.27722 0.18146 0.24752 0.0
H1417 H 0.17838 0.27644 0.23597 0.0
H1418 H 0.18008 0.282 0.19614 0.0
H1419 H 0.2867 0.24286 0.20106 0.0
C1420 C 0.28715 0.24307 0.28988 0.0
C1421 C 0.26764 0.25625 0.30669 0.0
C1422 C 0.2333 0.26889 0.30177 0.0
C1423 C 0.21837 0.26825 0.28028 0.0
C1424 C 0.2384 0.25541 0.26394 0.0
C1425 C 0.27225 0.24353 0.26846 0.0
C1426 C 0.28983 0.23584 0.24772 0.0
C1427 C 0.32131 0.25819 0.24604 0.0
C1428 C 0.30007 0.1974 0.24619 0.0
C1429 C 0.26087 0.24601 0.23081 0.0
C1430 C 0.23112 0.25624 0.24048 0.0
C1431 C 0.20144 0.26824 0.22821 0.0
C1432 C 0.20261 0.27115 0.20555 0.0
C1433 C 0.23353 0.26287 0.19546 0.0
C1434 C 0.26262 0.24917 0.20826 0.0
H1435 H 0.74228 0.21277 0.79831 0.0
H1436 H 0.78321 0.31464 0.80166 0.0
H1437 H 0.78331 0.31606 0.76164 0.0
H1438 H 0.78507 0.1822 0.74877 0.0
H1439 H 0.7473 0.16052 0.73823 0.0
H1440 H 0.75658 0.16446 0.76726 0.0
H1441 H 0.69587 0.19331 0.77066 0.0
H1442 H 0.68644 0.18954 0.74171 0.0
H1443 H 0.68296 0.23101 0.7546 0.0
H1444 H 0.77102 0.31068 0.72183 0.0
H1445 H 0.74732 0.29871 0.68447 0.0
H1446 H 0.71274 0.20068 0.70594 0.0
C1447 C 0.75192 0.23501 0.79058 0.0
C1448 C 0.76338 0.26334 0.80308 0.0
C1449 C 0.77538 0.29222 0.79243 0.0
C1450 C 0.77534 0.29334 0.76969 0.0
C1451 C 0.76306 0.26541 0.75777 0.0
C1452 C 0.75168 0.23668 0.76779 0.0
C1453 C 0.73623 0.21191 0.75107 0.0
C1454 C 0.75758 0.17774 0.75135 0.0
C1455 C 0.69812 0.20612 0.75473 0.0
C1456 C 0.73967 0.23177 0.73019 0.0
C1457 C 0.75563 0.26237 0.73447 0.0
C1458 C 0.75912 0.28651 0.71819 0.0
C1459 C 0.74546 0.27953 0.69702 0.0
C1460 C 0.72852 0.24862 0.69225 0.0
C1461 C 0.72628 0.22414 0.709 0.0
H1462 H 0.80715 0.70531 0.20682 0.0
H1463 H 0.73296 0.78404 0.18089 0.0
H1464 H 0.72504 0.8048 0.21811 0.0
H1465 H 0.76136 0.68353 0.25045 0.0
H1466 H 0.79796 0.67589 0.26987 0.0
H1467 H 0.80293 0.67059 0.2412 0.0
H1468 H 0.85189 0.71386 0.24327 0.0
H1469 H 0.84743 0.71897 0.27207 0.0
H1470 H 0.84414 0.75608 0.25442 0.0
H1471 H 0.71875 0.81196 0.25735 0.0
H1472 H 0.71608 0.80678 0.29705 0.0
H1473 H 0.79436 0.72381 0.29877 0.0
C1474 C 0.79025 0.7277 0.20901 0.0
C1475 C 0.77098 0.74344 0.19103 0.0
C1476 C 0.74812 0.77186 0.19448 0.0
C1477 C 0.7435 0.78385 0.21554 0.0
C1478 C 0.76186 0.76707 0.233 0.0
C1479 C 0.78499 0.73978 0.23005 0.0
C1480 C 0.79874 0.72431 0.2518 0.0
C1481 C 0.78969 0.68634 0.25341 0.0
C1482 C 0.83788 0.72857 0.25561 0.0
C1483 C 0.77894 0.74655 0.2673 0.0
C1484 C 0.75812 0.77124 0.25603 0.0
C1485 C 0.73556 0.79334 0.26644 0.0
C1486 C 0.73429 0.79026 0.28899 0.0
C1487 C 0.75552 0.76539 0.30096 0.0
C1488 C 0.77821 0.74332 0.28997 0.0
H1489 H 0.25744 0.70934 0.79409 0.0
H1490 H 0.18835 0.79648 0.80594 0.0
H1491 H 0.17843 0.80623 0.76597 0.0
H1492 H 0.29856 0.74729 0.75205 0.0
H1493 H 0.30347 0.7081 0.73675 0.0
H1494 H 0.30154 0.70632 0.76584 0.0
H1495 H 0.25028 0.66576 0.76093 0.0
H1496 H 0.25187 0.66767 0.73176 0.0
H1497 H 0.21221 0.6791 0.74398 0.0
H1498 H 0.18051 0.80877 0.72469 0.0
H1499 H 0.19522 0.80488 0.68619 0.0
H1500 H 0.26432 0.71692 0.70252 0.0
C1501 C 0.24015 0.73043 0.78825 0.0
C1502 C 0.22383 0.75243 0.8029 0.0
C1503 C 0.20099 0.77944 0.7948 0.0
C1504 C 0.19523 0.78504 0.77221 0.0
C1505 C 0.21236 0.76318 0.75814 0.0
C1506 C 0.23432 0.73638 0.76593 0.0
C1507 C 0.25153 0.7179 0.74776 0.0
C1508 C 0.29111 0.72006 0.75078 0.0
C1509 C 0.24082 0.68039 0.74601 0.0
C1510 C 0.23647 0.73888 0.72845 0.0
C1511 C 0.21361 0.76465 0.73465 0.0
C1512 C 0.198 0.78841 0.71965 0.0
C1513 C 0.20647 0.78604 0.69788 0.0
C1514 C 0.23042 0.76028 0.69144 0.0
C1515 C 0.24514 0.7362 0.70688 0.0
H1516 H 0.73898 0.7717 0.79344 0.0
H1517 H 0.78993 0.67061 0.80023 0.0
H1518 H 0.78922 0.66555 0.76029 0.0
H1519 H 0.68134 0.74982 0.74912 0.0
H1520 H 0.68171 0.79061 0.73533 0.0
H1521 H 0.69011 0.78834 0.76446 0.0
H1522 H 0.74838 0.81733 0.76134 0.0
H1523 H 0.7402 0.81954 0.73214 0.0
H1524 H 0.77947 0.79861 0.74395 0.0
H1525 H 0.77883 0.66883 0.72023 0.0
H1526 H 0.75716 0.67925 0.68206 0.0
H1527 H 0.71164 0.77789 0.70037 0.0
C1528 C 0.75043 0.74882 0.78641 0.0
C1529 C 0.76522 0.72186 0.79984 0.0
C1530 C 0.77936 0.69194 0.79021 0.0
C1531 C 0.77898 0.68878 0.76755 0.0
C1532 C 0.76416 0.71571 0.75471 0.0
C1533 C 0.75001 0.74513 0.76372 0.0
C1534 C 0.73314 0.76889 0.74613 0.0
C1535 C 0.69427 0.77474 0.74893 0.0
C1536 C 0.7514 0.80312 0.74588 0.0
C1537 C 0.73941 0.74784 0.72593 0.0
C1538 C 0.7577 0.71744 0.73131 0.0
C1539 C 0.76485 0.69272 0.71574 0.0
C1540 C 0.75238 0.69885 0.69411 0.0
C1541 C 0.73291 0.72946 0.68822 0.0
C1542 C 0.72701 0.75457 0.70431 0.0
H1543 H 0.31571 0.69349 0.20587 0.0
H1544 H 0.2249 0.7591 0.188 0.0
H1545 H 0.22116 0.77505 0.22671 0.0
H1546 H 0.285 0.66089 0.25454 0.0
H1547 H 0.3267 0.65933 0.26956 0.0
H1548 H 0.32377 0.6548 0.24035 0.0
H1549 H 0.36386 0.70575 0.23691 0.0
H1550 H 0.36739 0.71006 0.26612 0.0
H1551 H 0.35294 0.74642 0.24922 0.0
H1552 H 0.22784 0.78418 0.26723 0.0
H1553 H 0.24439 0.78586 0.30679 0.0
H1554 H 0.32802 0.71072 0.2984 0.0
C1555 C 0.29541 0.71171 0.21004 0.0
C1556 C 0.27082 0.72545 0.19393 0.0
C1557 C 0.24411 0.74851 0.2001 0.0
C1558 C 0.24174 0.75761 0.22202 0.0
C1559 C 0.26596 0.743 0.23755 0.0
C1560 C 0.29226 0.72052 0.23185 0.0
C1561 C 0.31423 0.70746 0.25174 0.0
C1562 C 0.31229 0.6683 0.25418 0.0
C1563 C 0.35183 0.71807 0.25095 0.0
C1564 C 0.29635 0.72632 0.26955 0.0
C1565 C 0.26869 0.74683 0.261 0.0
C1566 C 0.24922 0.76798 0.27413 0.0
C1567 C 0.25873 0.76869 0.29655 0.0
C1568 C 0.28708 0.74801 0.3056 0.0
C1569 C 0.3057 0.72613 0.29195 0.0
H1570 H 0.26294 0.30244 0.70338 0.0
H1571 H 0.17671 0.24034 0.68253 0.0
H1572 H 0.15968 0.2384 0.72055 0.0
H1573 H 0.28636 0.26063 0.75212 0.0
H1574 H 0.29723 0.29854 0.76755 0.0
H1575 H 0.30048 0.29796 0.73853 0.0
H1576 H 0.25952 0.35222 0.73408 0.0
H1577 H 0.2566 0.35335 0.76317 0.0
H1578 H 0.21784 0.35238 0.74518 0.0
H1579 H 0.15654 0.23796 0.76175 0.0
H1580 H 0.16514 0.24276 0.80203 0.0
H1581 H 0.25091 0.30846 0.79493 0.0
C1582 C 0.23985 0.28937 0.70673 0.0
C1583 C 0.22099 0.27162 0.69013 0.0
C1584 C 0.1914 0.25407 0.69514 0.0
C1585 C 0.18159 0.25286 0.71664 0.0
C1586 C 0.20137 0.26982 0.73281 0.0
C1587 C 0.22953 0.28825 0.72801 0.0
C1588 C 0.24736 0.3031 0.74837 0.0
C1589 C 0.28508 0.28922 0.75184 0.0
C1590 C 0.24518 0.34261 0.74766 0.0
C1591 C 0.22546 0.2894 0.76546 0.0
C1592 C 0.19903 0.27025 0.75626 0.0
C1593 C 0.17681 0.25337 0.76909 0.0
C1594 C 0.18185 0.25617 0.79189 0.0
C1595 C 0.20878 0.27574 0.80152 0.0
C1596 C 0.23041 0.29289 0.78804 0.0
H1597 H 0.7036 0.26997 0.29302 0.0
H1598 H 0.81289 0.26661 0.31312 0.0
H1599 H 0.8265 0.26965 0.27434 0.0
H1600 H 0.70848 0.21881 0.24453 0.0
H1601 H 0.67544 0.24419 0.22897 0.0
H1602 H 0.67466 0.24117 0.25815 0.0
H1603 H 0.67429 0.30759 0.2612 0.0
H1604 H 0.67468 0.3108 0.23203 0.0
H1605 H 0.70759 0.33066 0.24936 0.0
H1606 H 0.82751 0.27343 0.23321 0.0
H1607 H 0.81626 0.28154 0.19346 0.0
H1608 H 0.70583 0.28261 0.20071 0.0
C1609 C 0.73035 0.26994 0.28914 0.0
C1610 C 0.75734 0.26805 0.30577 0.0
C1611 C 0.79205 0.26814 0.3004 0.0
C1612 C 0.79992 0.26969 0.2785 0.0
C1613 C 0.77266 0.27123 0.26234 0.0
C1614 C 0.73856 0.27164 0.26744 0.0
C1615 C 0.71401 0.27452 0.24719 0.0
C1616 C 0.69185 0.24278 0.24456 0.0
C1617 C 0.69131 0.30788 0.24746 0.0
C1618 C 0.73954 0.27567 0.22982 0.0
C1619 C 0.77324 0.27357 0.23884 0.0
C1620 C 0.80122 0.27503 0.22598 0.0
C1621 C 0.79455 0.27955 0.20339 0.0
C1622 C 0.76016 0.28266 0.19388 0.0
C1623 C 0.73243 0.28004 0.20736 0.0
loop_
_geom_bond_atom_site_label_1
_geom_bond_atom_site_label_2
_geom_bond_distance
_geom_bond_site_symmetry_2
_ccdc_geom_bond_type
Co0 O3 1.970 . S
Co0 N17 1.989 . S
Co0 O25 1.967 . S
Co0 O32 1.920 . S
Co1 O4 1.966 . S
Co1 N10 2.022 . S
Co1 N18 1.993 . S
Co1 O26 1.941 . S
C2 O3 1.258 . S
C2 O4 1.263 . S
O3 Co0 1.970 . S
O3 C2 1.258 . S
O4 Co1 1.966 . S
O4 C2 1.263 . S
C5 O6 1.235 . S
C5 O32 1.289 . S
O6 C5 1.235 . S
C7 C9 1.400 . S
C7 N10 1.351 . S
C7 C12 1.501 . S
C8 C9 1.387 . S
C8 N11 1.341 . S
C9 C7 1.400 . S
C9 C8 1.387 . S
N10 Co1 2.022 . S
N10 C7 1.351 . S
N10 N11 1.365 . S
N11 C8 1.341 . S
N11 N10 1.365 . S
N11 H31 0.862 . S
C12 C7 1.501 . S
C12 H13 0.961 . S
C12 H14 0.961 . S
C12 H15 0.960 . S
H13 C12 0.961 . S
H14 C12 0.961 . S
H15 C12 0.960 . S
C16 N17 1.342 . S
C16 C20 1.401 . S
C16 C21 1.499 . S
N17 Co0 1.989 . S
N17 C16 1.342 . S
N17 N18 1.388 . S
N18 Co1 1.993 . S
N18 N17 1.388 . S
N18 C19 1.346 . S
C19 N18 1.346 . S
C19 C20 1.396 . S
C19 C29 1.510 . S
C20 C16 1.401 . S
C20 C19 1.396 . S
C21 C16 1.499 . S
C21 H22 0.959 . S
C21 H23 0.960 . S
C21 H24 0.961 . S
H22 C21 0.959 . S
H23 C21 0.960 . S
H24 C21 0.961 . S
O25 Co0 1.967 . S
O25 C33 1.258 . S
O26 Co1 1.941 . S
O26 C33 1.266 . S
H27 C29 0.959 . S
H28 C29 0.961 . S
C29 C19 1.510 . S
C29 H27 0.959 . S
C29 H28 0.961 . S
C29 H30 0.960 . S
H30 C29 0.960 . S
H31 N11 0.862 . S
O32 Co0 1.920 . S
O32 C5 1.289 . S
C33 O25 1.258 . S
C33 O26 1.266 . S
Co34 O37 1.970 . S
Co34 N51 1.989 . S
Co34 O59 1.967 . S
Co34 O66 1.920 . S
Co35 O38 1.966 . S
Co35 N44 2.022 . S
Co35 N52 1.993 . S
Co35 O60 1.941 . S
C36 O37 1.258 . S
C36 O38 1.263 . S
O37 Co34 1.970 . S
O37 C36 1.258 . S
O38 Co35 1.966 . S
O38 C36 1.263 . S
C39 O40 1.235 . S
C39 O66 1.289 . S
O40 C39 1.235 . S
C41 C43 1.400 . S
C41 N44 1.351 . S
C41 C46 1.501 . S
C42 C43 1.387 . S
C42 N45 1.341 . S
C43 C41 1.400 . S
C43 C42 1.387 . S
N44 Co35 2.022 . S
N44 C41 1.351 . S
N44 N45 1.365 . S
N45 C42 1.341 . S
N45 N44 1.365 . S
N45 H65 0.862 . S
C46 C41 1.501 . S
C46 H47 0.961 . S
C46 H48 0.961 . S
C46 H49 0.960 . S
H47 C46 0.961 . S
H48 C46 0.961 . S
H49 C46 0.960 . S
C50 N51 1.342 . S
C50 C54 1.401 . S
C50 C55 1.499 . S
N51 Co34 1.989 . S
N51 C50 1.342 . S
N51 N52 1.388 . S
N52 Co35 1.993 . S
N52 N51 1.388 . S
N52 C53 1.346 . S
C53 N52 1.346 . S
C53 C54 1.396 . S
C53 C63 1.510 . S
C54 C50 1.401 . S
C54 C53 1.396 . S
C55 C50 1.499 . S
C55 H56 0.959 . S
C55 H57 0.960 . S
C55 H58 0.961 . S
H56 C55 0.959 . S
H57 C55 0.960 . S
H58 C55 0.961 . S
O59 Co34 1.967 . S
O59 C67 1.258 . S
O60 Co35 1.941 . S
O60 C67 1.266 . S
H61 C63 0.959 . S
H62 C63 0.961 . S
C63 C53 1.510 . S
C63 H61 0.959 . S
C63 H62 0.961 . S
C63 H64 0.960 . S
H64 C63 0.960 . S
H65 N45 0.862 . S
O66 Co34 1.920 . S
O66 C39 1.289 . S
C67 O59 1.258 . S
C67 O60 1.266 . S
Co68 O71 1.970 . S
Co68 N85 1.989 . S
Co68 O93 1.967 . S
Co68 O100 1.920 . S
Co69 O72 1.966 . S
Co69 N78 2.022 . S
Co69 N86 1.993 . S
Co69 O94 1.941 . S
C70 O71 1.258 . S
C70 O72 1.263 . S
O71 Co68 1.970 . S
O71 C70 1.258 . S
O72 Co69 1.966 . S
O72 C70 1.263 . S
C73 O74 1.235 . S
C73 O100 1.289 . S
O74 C73 1.235 . S
C75 C77 1.400 . S
C75 N78 1.351 . S
C75 C80 1.501 . S
C76 C77 1.387 . S
C76 N79 1.341 . S
C77 C75 1.400 . S
C77 C76 1.387 . S
N78 Co69 2.022 . S
N78 C75 1.351 . S
N78 N79 1.365 . S
N79 C76 1.341 . S
N79 N78 1.365 . S
N79 H99 0.862 . S
C80 C75 1.501 . S
C80 H81 0.961 . S
C80 H82 0.961 . S
C80 H83 0.960 . S
H81 C80 0.961 . S
H82 C80 0.961 . S
H83 C80 0.960 . S
C84 N85 1.342 . S
C84 C88 1.401 . S
C84 C89 1.499 . S
N85 Co68 1.989 . S
N85 C84 1.342 . S
N85 N86 1.388 . S
N86 Co69 1.993 . S
N86 N85 1.388 . S
N86 C87 1.346 . S
C87 N86 1.346 . S
C87 C88 1.396 . S
C87 C97 1.510 . S
C88 C84 1.401 . S
C88 C87 1.396 . S
C89 C84 1.499 . S
C89 H90 0.959 . S
C89 H91 0.960 . S
C89 H92 0.961 . S
H90 C89 0.959 . S
H91 C89 0.960 . S
H92 C89 0.961 . S
O93 Co68 1.967 . S
O93 C101 1.258 . S
O94 Co69 1.941 . S
O94 C101 1.266 . S
H95 C97 0.959 . S
H96 C97 0.961 . S
C97 C87 1.510 . S
C97 H95 0.959 . S
C97 H96 0.961 . S
C97 H98 0.960 . S
H98 C97 0.960 . S
H99 N79 0.862 . S
O100 Co68 1.920 . S
O100 C73 1.289 . S
C101 O93 1.258 . S
C101 O94 1.266 . S
Co102 O105 1.970 . S
Co102 N119 1.989 . S
Co102 O127 1.967 . S
Co102 O134 1.920 . S
Co103 O106 1.966 . S
Co103 N112 2.022 . S
Co103 N120 1.993 . S
Co103 O128 1.941 . S
C104 O105 1.258 . S
C104 O106 1.263 . S
O105 Co102 1.970 . S
O105 C104 1.258 . S
O106 Co103 1.966 . S
O106 C104 1.263 . S
C107 O108 1.235 . S
C107 O134 1.289 . S
O108 C107 1.235 . S
C109 C111 1.400 . S
C109 N112 1.351 . S
C109 C114 1.501 . S
C110 C111 1.387 . S
C110 N113 1.341 . S
C111 C109 1.400 . S
C111 C110 1.387 . S
N112 Co103 2.022 . S
N112 C109 1.351 . S
N112 N113 1.365 . S
N113 C110 1.341 . S
N113 N112 1.365 . S
N113 H133 0.862 . S
C114 C109 1.501 . S
C114 H115 0.961 . S
C114 H116 0.961 . S
C114 H117 0.960 . S
H115 C114 0.961 . S
H116 C114 0.961 . S
H117 C114 0.960 . S
C118 N119 1.342 . S
C118 C122 1.401 . S
C118 C123 1.499 . S
N119 Co102 1.989 . S
N119 C118 1.342 . S
N119 N120 1.388 . S
N120 Co103 1.993 . S
N120 N119 1.388 . S
N120 C121 1.346 . S
C121 N120 1.346 . S
C121 C122 1.396 . S
C121 C131 1.510 . S
C122 C118 1.401 . S
C122 C121 1.396 . S
C123 C118 1.499 . S
C123 H124 0.959 . S
C123 H125 0.960 . S
C123 H126 0.961 . S
H124 C123 0.959 . S
H125 C123 0.960 . S
H126 C123 0.961 . S
O127 Co102 1.967 . S
O127 C135 1.258 . S
O128 Co103 1.941 . S
O128 C135 1.266 . S
H129 C131 0.959 . S
H130 C131 0.961 . S
C131 C121 1.510 . S
C131 H129 0.959 . S
C131 H130 0.961 . S
C131 H132 0.960 . S
H132 C131 0.960 . S
H133 N113 0.862 . S
O134 Co102 1.920 . S
O134 C107 1.289 . S
C135 O127 1.258 . S
C135 O128 1.266 . S
Co136 O139 1.970 . S
Co136 N153 1.989 . S
Co136 O161 1.967 . S
Co136 O168 1.920 . S
Co137 O140 1.966 . S
Co137 N146 2.022 . S
Co137 N154 1.993 . S
Co137 O162 1.941 . S
C138 O139 1.258 . S
C138 O140 1.263 . S
O139 Co136 1.970 . S
O139 C138 1.258 . S
O140 Co137 1.966 . S
O140 C138 1.263 . S
C141 O142 1.235 . S
C141 O168 1.289 . S
O142 C141 1.235 . S
C143 C145 1.400 . S
C143 N146 1.351 . S
C143 C148 1.501 . S
C144 C145 1.387 . S
C144 N147 1.341 . S
C145 C143 1.400 . S
C145 C144 1.387 . S
N146 Co137 2.022 . S
N146 C143 1.351 . S
N146 N147 1.365 . S
N147 C144 1.341 . S
N147 N146 1.365 . S
N147 H167 0.862 . S
C148 C143 1.501 . S
C148 H149 0.961 . S
C148 H150 0.961 . S
C148 H151 0.960 . S
H149 C148 0.961 . S
H150 C148 0.961 . S
H151 C148 0.960 . S
C152 N153 1.342 . S
C152 C156 1.401 . S
C152 C157 1.499 . S
N153 Co136 1.989 . S
N153 C152 1.342 . S
N153 N154 1.388 . S
N154 Co137 1.993 . S
N154 N153 1.388 . S
N154 C155 1.346 . S
C155 N154 1.346 . S
C155 C156 1.396 . S
C155 C165 1.510 . S
C156 C152 1.401 . S
C156 C155 1.396 . S
C157 C152 1.499 . S
C157 H158 0.959 . S
C157 H159 0.960 . S
C157 H160 0.961 . S
H158 C157 0.959 . S
H159 C157 0.960 . S
H160 C157 0.961 . S
O161 Co136 1.967 . S
O161 C169 1.258 . S
O162 Co137 1.941 . S
O162 C169 1.266 . S
H163 C165 0.959 . S
H164 C165 0.961 . S
C165 C155 1.510 . S
C165 H163 0.959 . S
C165 H164 0.961 . S
C165 H166 0.960 . S
H166 C165 0.960 . S
H167 N147 0.862 . S
O168 Co136 1.920 . S
O168 C141 1.289 . S
C169 O161 1.258 . S
C169 O162 1.266 . S
Co170 O173 1.970 . S
Co170 N187 1.989 . S
Co170 O195 1.967 . S
Co170 O202 1.920 . S
Co171 O174 1.966 . S
Co171 N180 2.022 . S
Co171 N188 1.993 . S
Co171 O196 1.941 . S
C172 O173 1.258 . S
C172 O174 1.263 . S
O173 Co170 1.970 . S
O173 C172 1.258 . S
O174 Co171 1.966 . S
O174 C172 1.263 . S
C175 O176 1.235 . S
C175 O202 1.289 . S
O176 C175 1.235 . S
C177 C179 1.400 . S
C177 N180 1.351 . S
C177 C182 1.501 . S
C178 C179 1.387 . S
C178 N181 1.341 . S
C179 C177 1.400 . S
C179 C178 1.387 . S
N180 Co171 2.022 . S
N180 C177 1.351 . S
N180 N181 1.365 . S
N181 C178 1.341 . S
N181 N180 1.365 . S
N181 H201 0.862 . S
C182 C177 1.501 . S
C182 H183 0.961 . S
C182 H184 0.961 . S
C182 H185 0.960 . S
H183 C182 0.961 . S
H184 C182 0.961 . S
H185 C182 0.960 . S
C186 N187 1.342 . S
C186 C190 1.401 . S
C186 C191 1.499 . S
N187 Co170 1.989 . S
N187 C186 1.342 . S
N187 N188 1.388 . S
N188 Co171 1.993 . S
N188 N187 1.388 . S
N188 C189 1.346 . S
C189 N188 1.346 . S
C189 C190 1.396 . S
C189 C199 1.510 . S
C190 C186 1.401 . S
C190 C189 1.396 . S
C191 C186 1.499 . S
C191 H192 0.959 . S
C191 H193 0.960 . S
C191 H194 0.961 . S
H192 C191 0.959 . S
H193 C191 0.960 . S
H194 C191 0.961 . S
O195 Co170 1.967 . S
O195 C203 1.258 . S
O196 Co171 1.941 . S
O196 C203 1.266 . S
H197 C199 0.959 . S
H198 C199 0.961 . S
C199 C189 1.510 . S
C199 H197 0.959 . S
C199 H198 0.961 . S
C199 H200 0.960 . S
H200 C199 0.960 . S
H201 N181 0.862 . S
O202 Co170 1.920 . S
O202 C175 1.289 . S
C203 O195 1.258 . S
C203 O196 1.266 . S
Co204 O207 1.970 . S
Co204 N221 1.989 . S
Co204 O229 1.967 . S
Co204 O236 1.920 . S
Co205 O208 1.966 . S
Co205 N214 2.022 . S
Co205 N222 1.993 . S
Co205 O230 1.941 . S
C206 O207 1.258 . S
C206 O208 1.263 . S
O207 Co204 1.970 . S
O207 C206 1.258 . S
O208 Co205 1.966 . S
O208 C206 1.263 . S
C209 O210 1.235 . S
C209 O236 1.289 . S
O210 C209 1.235 . S
C211 C213 1.400 . S
C211 N214 1.351 . S
C211 C216 1.501 . S
C212 C213 1.387 . S
C212 N215 1.341 . S
C213 C211 1.400 . S
C213 C212 1.387 . S
N214 Co205 2.022 . S
N214 C211 1.351 . S
N214 N215 1.365 . S
N215 C212 1.341 . S
N215 N214 1.365 . S
N215 H235 0.862 . S
C216 C211 1.501 . S
C216 H217 0.961 . S
C216 H218 0.961 . S
C216 H219 0.960 . S
H217 C216 0.961 . S
H218 C216 0.961 . S
H219 C216 0.960 . S
C220 N221 1.342 . S
C220 C224 1.401 . S
C220 C225 1.499 . S
N221 Co204 1.989 . S
N221 C220 1.342 . S
N221 N222 1.388 . S
N222 Co205 1.993 . S
N222 N221 1.388 . S
N222 C223 1.346 . S
C223 N222 1.346 . S
C223 C224 1.396 . S
C223 C233 1.510 . S
C224 C220 1.401 . S
C224 C223 1.396 . S
C225 C220 1.499 . S
C225 H226 0.959 . S
C225 H227 0.960 . S
C225 H228 0.961 . S
H226 C225 0.959 . S
H227 C225 0.960 . S
H228 C225 0.961 . S
O229 Co204 1.967 . S
O229 C237 1.258 . S
O230 Co205 1.941 . S
O230 C237 1.266 . S
H231 C233 0.959 . S
H232 C233 0.961 . S
C233 C223 1.510 . S
C233 H231 0.959 . S
C233 H232 0.961 . S
C233 H234 0.960 . S
H234 C233 0.960 . S
H235 N215 0.862 . S
O236 Co204 1.920 . S
O236 C209 1.289 . S
C237 O229 1.258 . S
C237 O230 1.266 . S
Co238 O241 1.970 . S
Co238 N255 1.989 . S
Co238 O263 1.967 . S
Co238 O270 1.920 . S
Co239 O242 1.966 . S
Co239 N248 2.022 . S
Co239 N256 1.993 . S
Co239 O264 1.941 . S
C240 O241 1.258 . S
C240 O242 1.263 . S
O241 Co238 1.970 . S
O241 C240 1.258 . S
O242 Co239 1.966 . S
O242 C240 1.263 . S
C243 O244 1.235 . S
C243 O270 1.289 . S
O244 C243 1.235 . S
C245 C247 1.400 . S
C245 N248 1.351 . S
C245 C250 1.501 . S
C246 C247 1.387 . S
C246 N249 1.341 . S
C247 C245 1.400 . S
C247 C246 1.387 . S
N248 Co239 2.022 . S
N248 C245 1.351 . S
N248 N249 1.365 . S
N249 C246 1.341 . S
N249 N248 1.365 . S
N249 H269 0.862 . S
C250 C245 1.501 . S
C250 H251 0.961 . S
C250 H252 0.961 . S
C250 H253 0.960 . S
H251 C250 0.961 . S
H252 C250 0.961 . S
H253 C250 0.960 . S
C254 N255 1.342 . S
C254 C258 1.401 . S
C254 C259 1.499 . S
N255 Co238 1.989 . S
N255 C254 1.342 . S
N255 N256 1.388 . S
N256 Co239 1.993 . S
N256 N255 1.388 . S
N256 C257 1.346 . S
C257 N256 1.346 . S
C257 C258 1.396 . S
C257 C267 1.510 . S
C258 C254 1.401 . S
C258 C257 1.396 . S
C259 C254 1.499 . S
C259 H260 0.959 . S
C259 H261 0.960 . S
C259 H262 0.961 . S
H260 C259 0.959 . S
H261 C259 0.960 . S
H262 C259 0.961 . S
O263 Co238 1.967 . S
O263 C271 1.258 . S
O264 Co239 1.941 . S
O264 C271 1.266 . S
H265 C267 0.959 . S
H266 C267 0.961 . S
C267 C257 1.510 . S
C267 H265 0.959 . S
C267 H266 0.961 . S
C267 H268 0.960 . S
H268 C267 0.960 . S
H269 N249 0.862 . S
O270 Co238 1.920 . S
O270 C243 1.289 . S
C271 O263 1.258 . S
C271 O264 1.266 . S
Co272 O275 1.970 . S
Co272 N289 1.989 . S
Co272 O297 1.967 . S
Co272 O304 1.920 . S
Co273 O276 1.966 . S
Co273 N282 2.022 . S
Co273 N290 1.993 . S
Co273 O298 1.941 . S
C274 O275 1.258 . S
C274 O276 1.263 . S
O275 Co272 1.970 . S
O275 C274 1.258 . S
O276 Co273 1.966 . S
O276 C274 1.263 . S
C277 O278 1.235 . S
C277 O304 1.289 . S
O278 C277 1.235 . S
C279 C281 1.400 . S
C279 N282 1.351 . S
C279 C284 1.501 . S
C280 C281 1.387 . S
C280 N283 1.341 . S
C281 C279 1.400 . S
C281 C280 1.387 . S
N282 Co273 2.022 . S
N282 C279 1.351 . S
N282 N283 1.365 . S
N283 C280 1.341 . S
N283 N282 1.365 . S
N283 H303 0.862 . S
C284 C279 1.501 . S
C284 H285 0.961 . S
C284 H286 0.961 . S
C284 H287 0.960 . S
H285 C284 0.961 . S
H286 C284 0.961 . S
H287 C284 0.960 . S
C288 N289 1.342 . S
C288 C292 1.401 . S
C288 C293 1.499 . S
N289 Co272 1.989 . S
N289 C288 1.342 . S
N289 N290 1.388 . S
N290 Co273 1.993 . S
N290 N289 1.388 . S
N290 C291 1.346 . S
C291 N290 1.346 . S
C291 C292 1.396 . S
C291 C301 1.510 . S
C292 C288 1.401 . S
C292 C291 1.396 . S
C293 C288 1.499 . S
C293 H294 0.959 . S
C293 H295 0.960 . S
C293 H296 0.961 . S
H294 C293 0.959 . S
H295 C293 0.960 . S
H296 C293 0.961 . S
O297 Co272 1.967 . S
O297 C305 1.258 . S
O298 Co273 1.941 . S
O298 C305 1.266 . S
H299 C301 0.959 . S
H300 C301 0.961 . S
C301 C291 1.510 . S
C301 H299 0.959 . S
C301 H300 0.961 . S
C301 H302 0.960 . S
H302 C301 0.960 . S
H303 N283 0.862 . S
O304 Co272 1.920 . S
O304 C277 1.289 . S
C305 O297 1.258 . S
C305 O298 1.266 . S
Co306 O309 1.970 . S
Co306 N323 1.989 . S
Co306 O331 1.967 . S
Co306 O338 1.920 . S
Co307 O310 1.966 . S
Co307 N316 2.022 . S
Co307 N324 1.993 . S
Co307 O332 1.941 . S
C308 O309 1.258 . S
C308 O310 1.263 . S
O309 Co306 1.970 . S
O309 C308 1.258 . S
O310 Co307 1.966 . S
O310 C308 1.263 . S
C311 O312 1.235 . S
C311 O338 1.289 . S
O312 C311 1.235 . S
C313 C315 1.400 . S
C313 N316 1.351 . S
C313 C318 1.501 . S
C314 C315 1.387 . S
C314 N317 1.341 . S
C315 C313 1.400 . S
C315 C314 1.387 . S
N316 Co307 2.022 . S
N316 C313 1.351 . S
N316 N317 1.365 . S
N317 C314 1.341 . S
N317 N316 1.365 . S
N317 H337 0.862 . S
C318 C313 1.501 . S
C318 H319 0.961 . S
C318 H320 0.961 . S
C318 H321 0.960 . S
H319 C318 0.961 . S
H320 C318 0.961 . S
H321 C318 0.960 . S
C322 N323 1.342 . S
C322 C326 1.401 . S
C322 C327 1.499 . S
N323 Co306 1.989 . S
N323 C322 1.342 . S
N323 N324 1.388 . S
N324 Co307 1.993 . S
N324 N323 1.388 . S
N324 C325 1.346 . S
C325 N324 1.346 . S
C325 C326 1.396 . S
C325 C335 1.510 . S
C326 C322 1.401 . S
C326 C325 1.396 . S
C327 C322 1.499 . S
C327 H328 0.959 . S
C327 H329 0.960 . S
C327 H330 0.961 . S
H328 C327 0.959 . S
H329 C327 0.960 . S
H330 C327 0.961 . S
O331 Co306 1.967 . S
O331 C339 1.258 . S
O332 Co307 1.941 . S
O332 C339 1.266 . S
H333 C335 0.959 . S
H334 C335 0.961 . S
C335 C325 1.510 . S
C335 H333 0.959 . S
C335 H334 0.961 . S
C335 H336 0.960 . S
H336 C335 0.960 . S
H337 N317 0.862 . S
O338 Co306 1.920 . S
O338 C311 1.289 . S
C339 O331 1.258 . S
C339 O332 1.266 . S
Co340 O343 1.970 . S
Co340 N357 1.989 . S
Co340 O365 1.967 . S
Co340 O372 1.920 . S
Co341 O344 1.966 . S
Co341 N350 2.022 . S
Co341 N358 1.993 . S
Co341 O366 1.941 . S
C342 O343 1.258 . S
C342 O344 1.263 . S
O343 Co340 1.970 . S
O343 C342 1.258 . S
O344 Co341 1.966 . S
O344 C342 1.263 . S
C345 O346 1.235 . S
C345 O372 1.289 . S
O346 C345 1.235 . S
C347 C349 1.400 . S
C347 N350 1.351 . S
C347 C352 1.501 . S
C348 C349 1.387 . S
C348 N351 1.341 . S
C349 C347 1.400 . S
C349 C348 1.387 . S
N350 Co341 2.022 . S
N350 C347 1.351 . S
N350 N351 1.365 . S
N351 C348 1.341 . S
N351 N350 1.365 . S
N351 H371 0.862 . S
C352 C347 1.501 . S
C352 H353 0.961 . S
C352 H354 0.961 . S
C352 H355 0.960 . S
H353 C352 0.961 . S
H354 C352 0.961 . S
H355 C352 0.960 . S
C356 N357 1.342 . S
C356 C360 1.401 . S
C356 C361 1.499 . S
N357 Co340 1.989 . S
N357 C356 1.342 . S
N357 N358 1.388 . S
N358 Co341 1.993 . S
N358 N357 1.388 . S
N358 C359 1.346 . S
C359 N358 1.346 . S
C359 C360 1.396 . S
C359 C369 1.510 . S
C360 C356 1.401 . S
C360 C359 1.396 . S
C361 C356 1.499 . S
C361 H362 0.959 . S
C361 H363 0.960 . S
C361 H364 0.961 . S
H362 C361 0.959 . S
H363 C361 0.960 . S
H364 C361 0.961 . S
O365 Co340 1.967 . S
O365 C373 1.258 . S
O366 Co341 1.941 . S
O366 C373 1.266 . S
H367 C369 0.959 . S
H368 C369 0.961 . S
C369 C359 1.510 . S
C369 H367 0.959 . S
C369 H368 0.961 . S
C369 H370 0.960 . S
H370 C369 0.960 . S
H371 N351 0.862 . S
O372 Co340 1.920 . S
O372 C345 1.289 . S
C373 O365 1.258 . S
C373 O366 1.266 . S
Co374 O377 1.970 . S
Co374 N391 1.989 . S
Co374 O399 1.967 . S
Co374 O406 1.920 . S
Co375 O378 1.966 . S
Co375 N384 2.022 . S
Co375 N392 1.993 . S
Co375 O400 1.941 . S
C376 O377 1.258 . S
C376 O378 1.263 . S
O377 Co374 1.970 . S
O377 C376 1.258 . S
O378 Co375 1.966 . S
O378 C376 1.263 . S
C379 O380 1.235 . S
C379 O406 1.289 . S
O380 C379 1.235 . S
C381 C383 1.400 . S
C381 N384 1.351 . S
C381 C386 1.501 . S
C382 C383 1.387 . S
C382 N385 1.341 . S
C383 C381 1.400 . S
C383 C382 1.387 . S
N384 Co375 2.022 . S
N384 C381 1.351 . S
N384 N385 1.365 . S
N385 C382 1.341 . S
N385 N384 1.365 . S
N385 H405 0.862 . S
C386 C381 1.501 . S
C386 H387 0.961 . S
C386 H388 0.961 . S
C386 H389 0.960 . S
H387 C386 0.961 . S
H388 C386 0.961 . S
H389 C386 0.960 . S
C390 N391 1.342 . S
C390 C394 1.401 . S
C390 C395 1.499 . S
N391 Co374 1.989 . S
N391 C390 1.342 . S
N391 N392 1.388 . S
N392 Co375 1.993 . S
N392 N391 1.388 . S
N392 C393 1.346 . S
C393 N392 1.346 . S
C393 C394 1.396 . S
C393 C403 1.510 . S
C394 C390 1.401 . S
C394 C393 1.396 . S
C395 C390 1.499 . S
C395 H396 0.959 . S
C395 H397 0.960 . S
C395 H398 0.961 . S
H396 C395 0.959 . S
H397 C395 0.960 . S
H398 C395 0.961 . S
O399 Co374 1.967 . S
O399 C407 1.258 . S
O400 Co375 1.941 . S
O400 C407 1.266 . S
H401 C403 0.959 . S
H402 C403 0.961 . S
C403 C393 1.510 . S
C403 H401 0.959 . S
C403 H402 0.961 . S
C403 H404 0.960 . S
H404 C403 0.960 . S
H405 N385 0.862 . S
O406 Co374 1.920 . S
O406 C379 1.289 . S
C407 O399 1.258 . S
C407 O400 1.266 . S
Co408 O411 1.970 . S
Co408 N425 1.989 . S
Co408 O433 1.967 . S
Co408 O440 1.920 . S
Co409 O412 1.966 . S
Co409 N418 2.022 . S
Co409 N426 1.993 . S
Co409 O434 1.941 . S
C410 O411 1.258 . S
C410 O412 1.263 . S
O411 Co408 1.970 . S
O411 C410 1.258 . S
O412 Co409 1.966 . S
O412 C410 1.263 . S
C413 O414 1.235 . S
C413 O440 1.289 . S
O414 C413 1.235 . S
C415 C417 1.400 . S
C415 N418 1.351 . S
C415 C420 1.501 . S
C416 C417 1.387 . S
C416 N419 1.341 . S
C417 C415 1.400 . S
C417 C416 1.387 . S
N418 Co409 2.022 . S
N418 C415 1.351 . S
N418 N419 1.365 . S
N419 C416 1.341 . S
N419 N418 1.365 . S
N419 H439 0.862 . S
C420 C415 1.501 . S
C420 H421 0.961 . S
C420 H422 0.961 . S
C420 H423 0.960 . S
H421 C420 0.961 . S
H422 C420 0.961 . S
H423 C420 0.960 . S
C424 N425 1.342 . S
C424 C428 1.401 . S
C424 C429 1.499 . S
N425 Co408 1.989 . S
N425 C424 1.342 . S
N425 N426 1.388 . S
N426 Co409 1.993 . S
N426 N425 1.388 . S
N426 C427 1.346 . S
C427 N426 1.346 . S
C427 C428 1.396 . S
C427 C437 1.510 . S
C428 C424 1.401 . S
C428 C427 1.396 . S
C429 C424 1.499 . S
C429 H430 0.959 . S
C429 H431 0.960 . S
C429 H432 0.961 . S
H430 C429 0.959 . S
H431 C429 0.960 . S
H432 C429 0.961 . S
O433 Co408 1.967 . S
O433 C441 1.258 . S
O434 Co409 1.941 . S
O434 C441 1.266 . S
H435 C437 0.959 . S
H436 C437 0.961 . S
C437 C427 1.510 . S
C437 H435 0.959 . S
C437 H436 0.961 . S
C437 H438 0.960 . S
H438 C437 0.960 . S
H439 N419 0.862 . S
O440 Co408 1.920 . S
O440 C413 1.289 . S
C441 O433 1.258 . S
C441 O434 1.266 . S
Co442 O445 1.970 . S
Co442 N459 1.989 . S
Co442 O467 1.967 . S
Co442 O474 1.920 . S
Co443 O446 1.966 . S
Co443 N452 2.022 . S
Co443 N460 1.993 . S
Co443 O468 1.941 . S
C444 O445 1.258 . S
C444 O446 1.263 . S
O445 Co442 1.970 . S
O445 C444 1.258 . S
O446 Co443 1.966 . S
O446 C444 1.263 . S
C447 O448 1.235 . S
C447 O474 1.289 . S
O448 C447 1.235 . S
C449 C451 1.400 . S
C449 N452 1.351 . S
C449 C454 1.501 . S
C450 C451 1.387 . S
C450 N453 1.341 . S
C451 C449 1.400 . S
C451 C450 1.387 . S
N452 Co443 2.022 . S
N452 C449 1.351 . S
N452 N453 1.365 . S
N453 C450 1.341 . S
N453 N452 1.365 . S
N453 H473 0.862 . S
C454 C449 1.501 . S
C454 H455 0.961 . S
C454 H456 0.961 . S
C454 H457 0.960 . S
H455 C454 0.961 . S
H456 C454 0.961 . S
H457 C454 0.960 . S
C458 N459 1.342 . S
C458 C462 1.401 . S
C458 C463 1.499 . S
N459 Co442 1.989 . S
N459 C458 1.342 . S
N459 N460 1.388 . S
N460 Co443 1.993 . S
N460 N459 1.388 . S
N460 C461 1.346 . S
C461 N460 1.346 . S
C461 C462 1.396 . S
C461 C471 1.510 . S
C462 C458 1.401 . S
C462 C461 1.396 . S
C463 C458 1.499 . S
C463 H464 0.959 . S
C463 H465 0.960 . S
C463 H466 0.961 . S
H464 C463 0.959 . S
H465 C463 0.960 . S
H466 C463 0.961 . S
O467 Co442 1.967 . S
O467 C475 1.258 . S
O468 Co443 1.941 . S
O468 C475 1.266 . S
H469 C471 0.959 . S
H470 C471 0.961 . S
C471 C461 1.510 . S
C471 H469 0.959 . S
C471 H470 0.961 . S
C471 H472 0.960 . S
H472 C471 0.960 . S
H473 N453 0.862 . S
O474 Co442 1.920 . S
O474 C447 1.289 . S
C475 O467 1.258 . S
C475 O468 1.266 . S
Co476 O479 1.970 . S
Co476 N493 1.989 . S
Co476 O501 1.967 . S
Co476 O508 1.920 . S
Co477 O480 1.966 . S
Co477 N486 2.022 . S
Co477 N494 1.993 . S
Co477 O502 1.941 . S
C478 O479 1.258 . S
C478 O480 1.263 . S
O479 Co476 1.970 . S
O479 C478 1.258 . S
O480 Co477 1.966 . S
O480 C478 1.263 . S
C481 O482 1.235 . S
C481 O508 1.289 . S
O482 C481 1.235 . S
C483 C485 1.400 . S
C483 N486 1.351 . S
C483 C488 1.501 . S
C484 C485 1.387 . S
C484 N487 1.341 . S
C485 C483 1.400 . S
C485 C484 1.387 . S
N486 Co477 2.022 . S
N486 C483 1.351 . S
N486 N487 1.365 . S
N487 C484 1.341 . S
N487 N486 1.365 . S
N487 H507 0.862 . S
C488 C483 1.501 . S
C488 H489 0.961 . S
C488 H490 0.961 . S
C488 H491 0.960 . S
H489 C488 0.961 . S
H490 C488 0.961 . S
H491 C488 0.960 . S
C492 N493 1.342 . S
C492 C496 1.401 . S
C492 C497 1.499 . S
N493 Co476 1.989 . S
N493 C492 1.342 . S
N493 N494 1.388 . S
N494 Co477 1.993 . S
N494 N493 1.388 . S
N494 C495 1.346 . S
C495 N494 1.346 . S
C495 C496 1.396 . S
C495 C505 1.510 . S
C496 C492 1.401 . S
C496 C495 1.396 . S
C497 C492 1.499 . S
C497 H498 0.959 . S
C497 H499 0.960 . S
C497 H500 0.961 . S
H498 C497 0.959 . S
H499 C497 0.960 . S
H500 C497 0.961 . S
O501 Co476 1.967 . S
O501 C509 1.258 . S
O502 Co477 1.941 . S
O502 C509 1.266 . S
H503 C505 0.959 . S
H504 C505 0.961 . S
C505 C495 1.510 . S
C505 H503 0.959 . S
C505 H504 0.961 . S
C505 H506 0.960 . S
H506 C505 0.960 . S
H507 N487 0.862 . S
O508 Co476 1.920 . S
O508 C481 1.289 . S
C509 O501 1.258 . S
C509 O502 1.266 . S
Co510 O513 1.970 . S
Co510 N527 1.989 . S
Co510 O535 1.967 . S
Co510 O542 1.920 . S
Co511 O514 1.966 . S
Co511 N520 2.022 . S
Co511 N528 1.993 . S
Co511 O536 1.941 . S
C512 O513 1.258 . S
C512 O514 1.263 . S
O513 Co510 1.970 . S
O513 C512 1.258 . S
O514 Co511 1.966 . S
O514 C512 1.263 . S
C515 O516 1.235 . S
C515 O542 1.289 . S
O516 C515 1.235 . S
C517 C519 1.400 . S
C517 N520 1.351 . S
C517 C522 1.501 . S
C518 C519 1.387 . S
C518 N521 1.341 . S
C519 C517 1.400 . S
C519 C518 1.387 . S
N520 Co511 2.022 . S
N520 C517 1.351 . S
N520 N521 1.365 . S
N521 C518 1.341 . S
N521 N520 1.365 . S
N521 H541 0.862 . S
C522 C517 1.501 . S
C522 H523 0.961 . S
C522 H524 0.961 . S
C522 H525 0.960 . S
H523 C522 0.961 . S
H524 C522 0.961 . S
H525 C522 0.960 . S
C526 N527 1.342 . S
C526 C530 1.401 . S
C526 C531 1.499 . S
N527 Co510 1.989 . S
N527 C526 1.342 . S
N527 N528 1.388 . S
N528 Co511 1.993 . S
N528 N527 1.388 . S
N528 C529 1.346 . S
C529 N528 1.346 . S
C529 C530 1.396 . S
C529 C539 1.510 . S
C530 C526 1.401 . S
C530 C529 1.396 . S
C531 C526 1.499 . S
C531 H532 0.959 . S
C531 H533 0.960 . S
C531 H534 0.961 . S
H532 C531 0.959 . S
H533 C531 0.960 . S
H534 C531 0.961 . S
O535 Co510 1.967 . S
O535 C543 1.258 . S
O536 Co511 1.941 . S
O536 C543 1.266 . S
H537 C539 0.959 . S
H538 C539 0.961 . S
C539 C529 1.510 . S
C539 H537 0.959 . S
C539 H538 0.961 . S
C539 H540 0.960 . S
H540 C539 0.960 . S
H541 N521 0.862 . S
O542 Co510 1.920 . S
O542 C515 1.289 . S
C543 O535 1.258 . S
C543 O536 1.266 . S
H544 C556 0.930 . S
H545 C558 0.930 . S
H546 C559 0.930 . S
H547 C563 0.959 . S
H548 C563 0.959 1_455 S
H549 C563 0.961 . S
H550 C564 0.960 . S
H551 C564 0.961 1_455 S
H552 C564 0.959 . S
H553 C567 0.929 . S
H554 C568 0.931 . S
H555 C570 0.930 . S
C556 H544 0.930 . S
C556 C557 1.399 . S
C556 C561 1.399 . S
C557 C556 1.399 . S
C557 C558 1.376 . S
C558 H545 0.930 . S
C558 C557 1.376 . S
C558 C559 1.388 . S
C559 H546 0.930 . S
C559 C558 1.388 . S
C559 C560 1.390 . S
C560 C559 1.390 . S
C560 C561 1.394 . S
C560 C566 1.465 1_655 S
C561 C556 1.399 . S
C561 C560 1.394 . S
C561 C562 1.516 . S
C562 C561 1.516 . S
C562 C563 1.502 . S
C562 C564 1.561 . S
C562 C565 1.526 1_655 S
C563 H547 0.959 . S
C563 H548 0.959 1_655 S
C563 H549 0.961 . S
C563 C562 1.502 . S
C564 H550 0.960 . S
C564 H551 0.961 1_655 S
C564 H552 0.959 . S
C564 C562 1.561 . S
C565 C562 1.526 1_455 S
C565 C566 1.396 . S
C565 C570 1.390 . S
C566 C560 1.465 1_455 S
C566 C565 1.396 . S
C566 C567 1.399 . S
C567 H553 0.929 . S
C567 C566 1.399 . S
C567 C568 1.385 . S
C568 H554 0.931 . S
C568 C567 1.385 . S
C568 C569 1.389 . S
C569 C568 1.389 . S
C569 C570 1.387 . S
C570 H555 0.930 . S
C570 C565 1.390 . S
C570 C569 1.387 . S
H571 C583 0.930 . S
H572 C585 0.930 . S
H573 C586 0.930 . S
H574 C590 0.959 . S
H575 C590 0.959 . S
H576 C590 0.961 . S
H577 C591 0.960 1_545 S
H578 C591 0.961 . S
H579 C591 0.959 . S
H580 C594 0.929 . S
H581 C595 0.931 . S
H582 C597 0.930 . S
C583 H571 0.930 . S
C583 C584 1.399 . S
C583 C588 1.399 . S
C584 C583 1.399 . S
C584 C585 1.376 . S
C585 H572 0.930 . S
C585 C584 1.376 . S
C585 C586 1.388 . S
C586 H573 0.930 . S
C586 C585 1.388 . S
C586 C587 1.390 . S
C587 C586 1.390 . S
C587 C588 1.394 . S
C587 C593 1.465 1_545 S
C588 C583 1.399 . S
C588 C587 1.394 . S
C588 C589 1.516 1_545 S
C589 C588 1.516 1_565 S
C589 C590 1.502 . S
C589 C591 1.561 . S
C589 C592 1.526 . S
C590 H574 0.959 . S
C590 H575 0.959 . S
C590 H576 0.961 . S
C590 C589 1.502 . S
C591 H577 0.960 1_565 S
C591 H578 0.961 . S
C591 H579 0.959 . S
C591 C589 1.561 . S
C592 C589 1.526 . S
C592 C593 1.396 . S
C592 C597 1.390 . S
C593 C587 1.465 1_565 S
C593 C592 1.396 . S
C593 C594 1.399 . S
C594 H580 0.929 . S
C594 C593 1.399 . S
C594 C595 1.385 . S
C595 H581 0.931 . S
C595 C594 1.385 . S
C595 C596 1.389 . S
C596 C595 1.389 . S
C596 C597 1.387 . S
C597 H582 0.930 . S
C597 C592 1.390 . S
C597 C596 1.387 . S
H598 C610 0.930 . S
H599 C612 0.930 . S
H600 C613 0.928 1_455 S
H601 C617 0.959 . S
H602 C617 0.959 . S
H603 C617 0.961 . S
H604 C618 0.960 . S
H605 C618 0.961 . S
H606 C618 0.959 . S
H607 C621 0.929 . S
H608 C622 0.931 . S
H609 C624 0.930 . S
C610 H598 0.930 . S
C610 C611 1.399 . S
C610 C615 1.399 1_655 S
C611 C610 1.399 . S
C611 C612 1.376 . S
C612 H599 0.930 . S
C612 C611 1.376 . S
C612 C613 1.394 . S
C613 H600 0.928 1_655 S
C613 C612 1.394 . S
C613 C614 1.386 1_655 S
C614 C613 1.386 1_455 S
C614 C615 1.394 . S
C614 C620 1.465 . S
C615 C610 1.399 1_455 S
C615 C614 1.394 . S
C615 C616 1.516 . S
C616 C615 1.516 . S
C616 C617 1.502 . S
C616 C618 1.561 . S
C616 C619 1.526 . S
C617 H601 0.959 . S
C617 H602 0.959 . S
C617 H603 0.961 . S
C617 C616 1.502 . S
C618 H604 0.960 . S
C618 H605 0.961 . S
C618 H606 0.959 . S
C618 C616 1.561 . S
C619 C616 1.526 . S
C619 C620 1.396 . S
C619 C624 1.390 . S
C620 C614 1.465 . S
C620 C619 1.396 . S
C620 C621 1.399 . S
C621 H607 0.929 . S
C621 C620 1.399 . S
C621 C622 1.385 . S
C622 H608 0.931 . S
C622 C621 1.385 . S
C622 C623 1.389 . S
C623 C622 1.389 . S
C623 C624 1.387 . S
C624 H609 0.930 . S
C624 C619 1.390 . S
C624 C623 1.387 . S
H625 C637 0.930 . S
H626 C639 0.930 . S
H627 C640 0.930 . S
H628 C644 0.959 . S
H629 C644 0.959 1_545 S
H630 C644 0.961 . S
H631 C645 0.960 . S
H632 C645 0.961 1_545 S
H633 C645 0.960 . S
H634 C648 0.929 . S
H635 C649 0.931 . S
H636 C651 0.930 . S
C637 H625 0.930 . S
C637 C638 1.399 . S
C637 C642 1.399 . S
C638 C637 1.399 . S
C638 C639 1.376 . S
C639 H626 0.930 . S
C639 C638 1.376 . S
C639 C640 1.388 . S
C640 H627 0.930 . S
C640 C639 1.388 . S
C640 C641 1.390 . S
C641 C640 1.390 . S
C641 C642 1.394 . S
C641 C647 1.465 1_565 S
C642 C637 1.399 . S
C642 C641 1.394 . S
C642 C643 1.516 . S
C643 C642 1.516 . S
C643 C644 1.502 . S
C643 C645 1.561 . S
C643 C646 1.526 1_565 S
C644 H628 0.959 . S
C644 H629 0.959 1_565 S
C644 H630 0.961 . S
C644 C643 1.502 . S
C645 H631 0.960 . S
C645 H632 0.961 1_565 S
C645 H633 0.960 . S
C645 C643 1.561 . S
C646 C643 1.526 1_545 S
C646 C647 1.396 . S
C646 C651 1.390 . S
C647 C641 1.465 1_545 S
C647 C646 1.396 . S
C647 C648 1.399 . S
C648 H634 0.929 . S
C648 C647 1.399 . S
C648 C649 1.385 . S
C649 H635 0.931 . S
C649 C648 1.385 . S
C649 C650 1.389 . S
C650 C649 1.389 . S
C650 C651 1.387 . S
C651 H636 0.930 . S
C651 C646 1.390 . S
C651 C650 1.387 . S
H652 C664 0.930 . S
H653 C666 0.930 . S
H654 C667 0.930 . S
H655 C671 0.959 . S
H656 C671 0.959 . S
H657 C671 0.961 1_655 S
H658 C672 0.960 1_655 S
H659 C672 0.961 . S
H660 C672 0.959 . S
H661 C675 0.929 . S
H662 C676 0.931 . S
H663 C678 0.930 . S
C664 H652 0.930 . S
C664 C665 1.399 . S
C664 C669 1.399 . S
C665 C664 1.399 . S
C665 C666 1.376 . S
C666 H653 0.930 . S
C666 C665 1.376 . S
C666 C667 1.388 . S
C667 H654 0.930 . S
C667 C666 1.388 . S
C667 C668 1.390 . S
C668 C667 1.390 . S
C668 C669 1.394 . S
C668 C674 1.465 1_655 S
C669 C664 1.399 . S
C669 C668 1.394 . S
C669 C670 1.516 1_655 S
C670 C669 1.516 1_455 S
C670 C671 1.502 . S
C670 C672 1.561 . S
C670 C673 1.526 . S
C671 H655 0.959 . S
C671 H656 0.959 . S
C671 H657 0.961 1_455 S
C671 C670 1.502 . S
C672 H658 0.960 1_455 S
C672 H659 0.961 . S
C672 H660 0.959 . S
C672 C670 1.561 . S
C673 C670 1.526 . S
C673 C674 1.396 . S
C673 C678 1.390 . S
C674 C668 1.465 1_455 S
C674 C673 1.396 . S
C674 C675 1.399 . S
C675 H661 0.929 . S
C675 C674 1.399 . S
C675 C676 1.385 . S
C676 H662 0.931 . S
C676 C675 1.385 . S
C676 C677 1.389 . S
C677 C676 1.389 . S
C677 C678 1.387 . S
C678 H663 0.930 . S
C678 C673 1.390 . S
C678 C677 1.387 . S
H679 C691 0.930 . S
H680 C693 0.930 . S
H681 C694 0.930 . S
H682 C698 0.959 . S
H683 C698 0.959 1_545 S
H684 C698 0.961 . S
H685 C699 0.960 . S
H686 C699 0.961 1_545 S
H687 C699 0.959 . S
H688 C702 0.929 . S
H689 C703 0.931 . S
H690 C705 0.930 . S
C691 H679 0.930 . S
C691 C692 1.399 . S
C691 C696 1.399 . S
C692 C691 1.399 . S
C692 C693 1.376 . S
C693 H680 0.930 . S
C693 C692 1.376 . S
C693 C694 1.388 . S
C694 H681 0.930 . S
C694 C693 1.388 . S
C694 C695 1.390 . S
C695 C694 1.390 . S
C695 C696 1.394 . S
C695 C701 1.465 1_565 S
C696 C691 1.399 . S
C696 C695 1.394 . S
C696 C697 1.516 . S
C697 C696 1.516 . S
C697 C698 1.502 . S
C697 C699 1.561 . S
C697 C700 1.526 1_565 S
C698 H682 0.959 . S
C698 H683 0.959 1_565 S
C698 H684 0.961 . S
C698 C697 1.502 . S
C699 H685 0.960 . S
C699 H686 0.961 1_565 S
C699 H687 0.959 . S
C699 C697 1.561 . S
C700 C697 1.526 1_545 S
C700 C701 1.396 . S
C700 C705 1.390 . S
C701 C695 1.465 1_545 S
C701 C700 1.396 . S
C701 C702 1.399 . S
C702 H688 0.929 . S
C702 C701 1.399 . S
C702 C703 1.385 . S
C703 H689 0.931 . S
C703 C702 1.385 . S
C703 C704 1.389 . S
C704 C703 1.389 . S
C704 C705 1.387 . S
C705 H690 0.930 . S
C705 C700 1.390 . S
C705 C704 1.387 . S
H706 C718 0.930 . S
H707 C720 0.930 . S
H708 C721 0.930 . S
H709 C725 0.959 . S
H710 C725 0.959 . S
H711 C725 0.961 . S
H712 C726 0.960 . S
H713 C726 0.961 . S
H714 C726 0.959 . S
H715 C729 0.923 1_655 S
H716 C730 0.931 . S
H717 C732 0.930 . S
C718 H706 0.930 . S
C718 C719 1.399 . S
C718 C723 1.399 . S
C719 C718 1.399 . S
C719 C720 1.376 . S
C720 H707 0.930 . S
C720 C719 1.376 . S
C720 C721 1.388 . S
C721 H708 0.930 . S
C721 C720 1.388 . S
C721 C722 1.390 . S
C722 C721 1.390 . S
C722 C723 1.394 . S
C722 C728 1.465 . S
C723 C718 1.399 . S
C723 C722 1.394 . S
C723 C724 1.516 . S
C724 C723 1.516 . S
C724 C725 1.502 . S
C724 C726 1.561 . S
C724 C727 1.526 . S
C725 H709 0.959 . S
C725 H710 0.959 . S
C725 H711 0.961 . S
C725 C724 1.502 . S
C726 H712 0.960 . S
C726 H713 0.961 . S
C726 H714 0.959 . S
C726 C724 1.561 . S
C727 C724 1.526 . S
C727 C728 1.396 . S
C727 C732 1.390 1_655 S
C728 C722 1.465 . S
C728 C727 1.396 . S
C728 C729 1.386 1_655 S
C729 H715 0.923 1_455 S
C729 C728 1.386 1_455 S
C729 C730 1.404 . S
C730 H716 0.931 . S
C730 C729 1.404 . S
C730 C731 1.389 . S
C731 C730 1.389 . S
C731 C732 1.387 . S
C732 H717 0.930 . S
C732 C727 1.390 1_455 S
C732 C731 1.387 . S
H733 C745 0.930 . S
H734 C747 0.930 . S
H735 C748 0.930 . S
H736 C752 0.959 . S
H737 C752 0.959 . S
H738 C752 0.984 . S
H739 C753 0.960 . S
H740 C753 0.961 . S
H741 C753 0.959 . S
H742 C756 0.929 . S
H743 C757 0.931 . S
H744 C759 0.930 . S
C745 H733 0.930 . S
C745 C746 1.399 . S
C745 C750 1.399 . S
C746 C745 1.399 . S
C746 C747 1.376 . S
C747 H734 0.930 . S
C747 C746 1.376 . S
C747 C748 1.388 . S
C748 H735 0.930 . S
C748 C747 1.388 . S
C748 C749 1.390 1_545 S
C749 C748 1.390 1_565 S
C749 C750 1.394 1_565 S
C749 C755 1.465 . S
C750 C745 1.399 . S
C750 C749 1.394 1_545 S
C750 C751 1.516 1_545 S
C751 C750 1.516 1_565 S
C751 C752 1.502 . S
C751 C753 1.561 . S
C751 C754 1.526 . S
C752 H736 0.959 . S
C752 H737 0.959 . S
C752 H738 0.984 . S
C752 C751 1.502 . S
C753 H739 0.960 . S
C753 H740 0.961 . S
C753 H741 0.959 . S
C753 C751 1.561 . S
C754 C751 1.526 . S
C754 C755 1.396 . S
C754 C759 1.390 . S
C755 C749 1.465 . S
C755 C754 1.396 . S
C755 C756 1.399 . S
C756 H742 0.929 . S
C756 C755 1.399 . S
C756 C757 1.385 . S
C757 H743 0.931 . S
C757 C756 1.385 . S
C757 C758 1.389 . S
C758 C757 1.389 . S
C758 C759 1.387 . S
C759 H744 0.930 . S
C759 C754 1.390 . S
C759 C758 1.387 . S
H760 C772 0.930 . S
H761 C774 0.930 . S
H762 C775 0.930 . S
H763 C779 0.959 . S
H764 C779 0.959 . S
H765 C779 0.961 . S
H766 C780 0.960 . S
H767 C780 0.961 . S
H768 C780 0.959 . S
H769 C783 0.929 . S
H770 C784 0.931 . S
H771 C786 0.930 . S
C772 H760 0.930 . S
C772 C773 1.399 . S
C772 C777 1.399 . S
C773 C772 1.399 . S
C773 C774 1.376 . S
C774 H761 0.930 . S
C774 C773 1.376 . S
C774 C775 1.388 . S
C775 H762 0.930 . S
C775 C774 1.388 . S
C775 C776 1.390 . S
C776 C775 1.390 . S
C776 C777 1.394 . S
C776 C782 1.465 . S
C777 C772 1.399 . S
C777 C776 1.394 . S
C777 C778 1.516 . S
C778 C777 1.516 . S
C778 C779 1.502 . S
C778 C780 1.561 . S
C778 C781 1.526 . S
C779 H763 0.959 . S
C779 H764 0.959 . S
C779 H765 0.961 . S
C779 C778 1.502 . S
C780 H766 0.960 . S
C780 H767 0.961 . S
C780 H768 0.959 . S
C780 C778 1.561 . S
C781 C778 1.526 . S
C781 C782 1.396 . S
C781 C786 1.390 . S
C782 C776 1.465 . S
C782 C781 1.396 . S
C782 C783 1.399 . S
C783 H769 0.929 . S
C783 C782 1.399 . S
C783 C784 1.385 . S
C784 H770 0.931 . S
C784 C783 1.385 . S
C784 C785 1.389 . S
C785 C784 1.389 . S
C785 C786 1.387 . S
C786 H771 0.930 . S
C786 C781 1.390 . S
C786 C785 1.387 . S
H787 C799 0.930 . S
H788 C801 0.930 . S
H789 C802 0.930 . S
H790 C806 0.959 . S
H791 C806 0.959 . S
H792 C806 0.961 . S
H793 C807 0.960 . S
H794 C807 0.961 . S
H795 C807 0.959 . S
H796 C810 0.929 . S
H797 C811 0.931 . S
H798 C813 0.930 . S
C799 H787 0.930 . S
C799 C800 1.399 . S
C799 C804 1.399 . S
C800 C799 1.399 . S
C800 C801 1.376 . S
C801 H788 0.930 . S
C801 C800 1.376 . S
C801 C802 1.388 . S
C802 H789 0.930 . S
C802 C801 1.388 . S
C802 C803 1.390 . S
C803 C802 1.390 . S
C803 C804 1.394 . S
C803 C809 1.465 . S
C804 C799 1.399 . S
C804 C803 1.394 . S
C804 C805 1.516 . S
C805 C804 1.516 . S
C805 C806 1.502 . S
C805 C807 1.561 . S
C805 C808 1.526 . S
C806 H790 0.959 . S
C806 H791 0.959 . S
C806 H792 0.961 . S
C806 C805 1.502 . S
C807 H793 0.960 . S
C807 H794 0.961 . S
C807 H795 0.959 . S
C807 C805 1.561 . S
C808 C805 1.526 . S
C808 C809 1.396 . S
C808 C813 1.390 . S
C809 C803 1.465 . S
C809 C808 1.396 . S
C809 C810 1.399 . S
C810 H796 0.929 . S
C810 C809 1.399 . S
C810 C811 1.385 . S
C811 H797 0.931 . S
C811 C810 1.385 . S
C811 C812 1.389 . S
C812 C811 1.389 . S
C812 C813 1.387 . S
C813 H798 0.930 . S
C813 C808 1.390 . S
C813 C812 1.387 . S
H814 C826 0.930 . S
H815 C828 0.930 . S
H816 C829 0.930 . S
H817 C833 0.959 . S
H818 C833 0.959 . S
H819 C833 0.961 . S
H820 C834 0.960 . S
H821 C834 0.961 . S
H822 C834 0.959 . S
H823 C837 0.929 . S
H824 C838 0.931 . S
H825 C840 0.930 . S
C826 H814 0.930 . S
C826 C827 1.399 . S
C826 C831 1.399 . S
C827 C826 1.399 . S
C827 C828 1.376 . S
C828 H815 0.930 . S
C828 C827 1.376 . S
C828 C829 1.388 . S
C829 H816 0.930 . S
C829 C828 1.388 . S
C829 C830 1.390 . S
C830 C829 1.390 . S
C830 C831 1.394 . S
C830 C836 1.465 . S
C831 C826 1.399 . S
C831 C830 1.394 . S
C831 C832 1.516 . S
C832 C831 1.516 . S
C832 C833 1.502 . S
C832 C834 1.561 . S
C832 C835 1.526 . S
C833 H817 0.959 . S
C833 H818 0.959 . S
C833 H819 0.961 . S
C833 C832 1.502 . S
C834 H820 0.960 . S
C834 H821 0.961 . S
C834 H822 0.959 . S
C834 C832 1.561 . S
C835 C832 1.526 . S
C835 C836 1.396 . S
C835 C840 1.390 . S
C836 C830 1.465 . S
C836 C835 1.396 . S
C836 C837 1.399 . S
C837 H823 0.929 . S
C837 C836 1.399 . S
C837 C838 1.385 . S
C838 H824 0.931 . S
C838 C837 1.385 . S
C838 C839 1.389 . S
C839 C838 1.389 . S
C839 C840 1.387 . S
C840 H825 0.930 . S
C840 C835 1.390 . S
C840 C839 1.387 . S
H841 C853 0.930 . S
H842 C855 0.930 . S
H843 C856 0.930 . S
H844 C860 0.959 . S
H845 C860 0.959 . S
H846 C860 0.961 . S
H847 C861 0.960 . S
H848 C861 0.961 . S
H849 C861 0.959 . S
H850 C864 0.929 . S
H851 C865 0.931 . S
H852 C867 0.930 . S
C853 H841 0.930 . S
C853 C854 1.399 . S
C853 C858 1.399 . S
C854 C853 1.399 . S
C854 C855 1.376 . S
C855 H842 0.930 . S
C855 C854 1.376 . S
C855 C856 1.388 . S
C856 H843 0.930 . S
C856 C855 1.388 . S
C856 C857 1.390 . S
C857 C856 1.390 . S
C857 C858 1.394 . S
C857 C863 1.465 . S
C858 C853 1.399 . S
C858 C857 1.394 . S
C858 C859 1.516 . S
C859 C858 1.516 . S
C859 C860 1.502 . S
C859 C861 1.561 . S
C859 C862 1.526 . S
C860 H844 0.959 . S
C860 H845 0.959 . S
C860 H846 0.961 . S
C860 C859 1.502 . S
C861 H847 0.960 . S
C861 H848 0.961 . S
C861 H849 0.959 . S
C861 C859 1.561 . S
C862 C859 1.526 . S
C862 C863 1.396 . S
C862 C867 1.390 . S
C863 C857 1.465 . S
C863 C862 1.396 . S
C863 C864 1.399 . S
C864 H850 0.929 . S
C864 C863 1.399 . S
C864 C865 1.385 . S
C865 H851 0.931 . S
C865 C864 1.385 . S
C865 C866 1.389 . S
C866 C865 1.389 . S
C866 C867 1.387 . S
C867 H852 0.930 . S
C867 C862 1.390 . S
C867 C866 1.387 . S
H868 C880 0.930 . S
H869 C882 0.930 . S
H870 C883 0.930 . S
H871 C887 0.959 . S
H872 C887 0.959 . S
H873 C887 0.961 . S
H874 C888 0.960 . S
H875 C888 0.961 . S
H876 C888 0.959 . S
H877 C891 0.929 . S
H878 C892 0.931 . S
H879 C894 0.930 . S
C880 H868 0.930 . S
C880 C881 1.399 . S
C880 C885 1.399 . S
C881 C880 1.399 . S
C881 C882 1.376 . S
C882 H869 0.930 . S
C882 C881 1.376 . S
C882 C883 1.388 . S
C883 H870 0.930 . S
C883 C882 1.388 . S
C883 C884 1.390 . S
C884 C883 1.390 . S
C884 C885 1.394 . S
C884 C890 1.465 . S
C885 C880 1.399 . S
C885 C884 1.394 . S
C885 C886 1.516 . S
C886 C885 1.516 . S
C886 C887 1.502 . S
C886 C888 1.561 . S
C886 C889 1.526 . S
C887 H871 0.959 . S
C887 H872 0.959 . S
C887 H873 0.961 . S
C887 C886 1.502 . S
C888 H874 0.960 . S
C888 H875 0.961 . S
C888 H876 0.959 . S
C888 C886 1.561 . S
C889 C886 1.526 . S
C889 C890 1.396 . S
C889 C894 1.390 . S
C890 C884 1.465 . S
C890 C889 1.396 . S
C890 C891 1.399 . S
C891 H877 0.929 . S
C891 C890 1.399 . S
C891 C892 1.385 . S
C892 H878 0.931 . S
C892 C891 1.385 . S
C892 C893 1.389 . S
C893 C892 1.389 . S
C893 C894 1.387 . S
C894 H879 0.930 . S
C894 C889 1.390 . S
C894 C893 1.387 . S
H895 C907 0.930 . S
H896 C909 0.930 . S
H897 C910 0.930 . S
H898 C914 0.959 . S
H899 C914 0.959 . S
H900 C914 0.961 . S
H901 C915 0.960 . S
H902 C915 0.961 . S
H903 C915 0.959 . S
H904 C918 0.929 . S
H905 C919 0.931 . S
H906 C921 0.930 . S
C907 H895 0.930 . S
C907 C908 1.399 . S
C907 C912 1.399 . S
C908 C907 1.399 . S
C908 C909 1.376 . S
C909 H896 0.930 . S
C909 C908 1.376 . S
C909 C910 1.388 . S
C910 H897 0.930 . S
C910 C909 1.388 . S
C910 C911 1.390 . S
C911 C910 1.390 . S
C911 C912 1.394 . S
C911 C917 1.465 . S
C912 C907 1.399 . S
C912 C911 1.394 . S
C912 C913 1.516 . S
C913 C912 1.516 . S
C913 C914 1.502 . S
C913 C915 1.561 . S
C913 C916 1.526 . S
C914 H898 0.959 . S
C914 H899 0.959 . S
C914 H900 0.961 . S
C914 C913 1.502 . S
C915 H901 0.960 . S
C915 H902 0.961 . S
C915 H903 0.959 . S
C915 C913 1.561 . S
C916 C913 1.526 . S
C916 C917 1.396 . S
C916 C921 1.390 . S
C917 C911 1.465 . S
C917 C916 1.396 . S
C917 C918 1.399 . S
C918 H904 0.929 . S
C918 C917 1.399 . S
C918 C919 1.385 . S
C919 H905 0.931 . S
C919 C918 1.385 . S
C919 C920 1.389 . S
C920 C919 1.389 . S
C920 C921 1.387 . S
C921 H906 0.930 . S
C921 C916 1.390 . S
C921 C920 1.387 . S
H922 C934 0.930 . S
H923 C936 0.930 . S
H924 C937 0.930 . S
H925 C941 0.959 . S
H926 C941 0.959 . S
H927 C941 0.961 . S
H928 C942 0.960 . S
H929 C942 0.961 . S
H930 C942 0.959 . S
H931 C945 0.929 . S
H932 C946 0.931 . S
H933 C948 0.930 . S
C934 H922 0.930 . S
C934 C935 1.399 . S
C934 C939 1.399 . S
C935 C934 1.399 . S
C935 C936 1.376 . S
C936 H923 0.930 . S
C936 C935 1.376 . S
C936 C937 1.388 . S
C937 H924 0.930 . S
C937 C936 1.388 . S
C937 C938 1.390 . S
C938 C937 1.390 . S
C938 C939 1.394 . S
C938 C944 1.465 . S
C939 C934 1.399 . S
C939 C938 1.394 . S
C939 C940 1.516 . S
C940 C939 1.516 . S
C940 C941 1.502 . S
C940 C942 1.561 . S
C940 C943 1.526 . S
C941 H925 0.959 . S
C941 H926 0.959 . S
C941 H927 0.961 . S
C941 C940 1.502 . S
C942 H928 0.960 . S
C942 H929 0.961 . S
C942 H930 0.959 . S
C942 C940 1.561 . S
C943 C940 1.526 . S
C943 C944 1.396 . S
C943 C948 1.390 . S
C944 C938 1.465 . S
C944 C943 1.396 . S
C944 C945 1.399 . S
C945 H931 0.929 . S
C945 C944 1.399 . S
C945 C946 1.385 . S
C946 H932 0.931 . S
C946 C945 1.385 . S
C946 C947 1.389 . S
C947 C946 1.389 . S
C947 C948 1.387 . S
C948 H933 0.930 . S
C948 C943 1.390 . S
C948 C947 1.387 . S
H949 C961 0.930 . S
H950 C963 0.930 . S
H951 C964 0.930 . S
H952 C968 0.959 . S
H953 C968 0.959 . S
H954 C968 0.961 . S
H955 C969 0.960 . S
H956 C969 0.961 . S
H957 C969 0.959 . S
H958 C972 0.929 . S
H959 C973 0.931 . S
H960 C975 0.930 . S
C961 H949 0.930 . S
C961 C962 1.399 . S
C961 C966 1.399 . S
C962 C961 1.399 . S
C962 C963 1.376 . S
C963 H950 0.930 . S
C963 C962 1.376 . S
C963 C964 1.388 . S
C964 H951 0.930 . S
C964 C963 1.388 . S
C964 C965 1.390 . S
C965 C964 1.390 . S
C965 C966 1.394 . S
C965 C971 1.465 . S
C966 C961 1.399 . S
C966 C965 1.394 . S
C966 C967 1.516 . S
C967 C966 1.516 . S
C967 C968 1.502 . S
C967 C969 1.561 . S
C967 C970 1.526 . S
C968 H952 0.959 . S
C968 H953 0.959 . S
C968 H954 0.961 . S
C968 C967 1.502 . S
C969 H955 0.960 . S
C969 H956 0.961 . S
C969 H957 0.959 . S
C969 C967 1.561 . S
C970 C967 1.526 . S
C970 C971 1.396 . S
C970 C975 1.390 . S
C971 C965 1.465 . S
C971 C970 1.396 . S
C971 C972 1.399 . S
C972 H958 0.929 . S
C972 C971 1.399 . S
C972 C973 1.385 . S
C973 H959 0.931 . S
C973 C972 1.385 . S
C973 C974 1.389 . S
C974 C973 1.389 . S
C974 C975 1.387 . S
C975 H960 0.930 . S
C975 C970 1.390 . S
C975 C974 1.387 . S
H976 C988 0.930 . S
H977 C990 0.930 . S
H978 C991 0.930 . S
H979 C995 0.957 1_556 S
H980 C995 0.947 1_556 S
H981 C995 0.976 . S
H982 C996 0.960 . S
H983 C996 0.961 1_556 S
H984 C996 0.959 . S
H985 C999 0.929 . S
H986 C1000 0.931 . S
H987 C1002 0.930 . S
C988 H976 0.930 . S
C988 C989 1.399 . S
C988 C993 1.399 . S
C989 C988 1.399 . S
C989 C990 1.376 . S
C990 H977 0.930 . S
C990 C989 1.376 . S
C990 C991 1.388 . S
C991 H978 0.930 . S
C991 C990 1.388 . S
C991 C992 1.390 . S
C992 C991 1.390 . S
C992 C993 1.394 . S
C992 C998 1.465 1_554 S
C993 C988 1.399 . S
C993 C992 1.394 . S
C993 C994 1.516 . S
C994 C993 1.516 . S
C994 C995 1.502 . S
C994 C996 1.561 . S
C994 C997 1.526 1_554 S
C995 H979 0.957 1_554 S
C995 H980 0.947 1_554 S
C995 H981 0.976 . S
C995 C994 1.502 . S
C996 H982 0.960 . S
C996 H983 0.961 1_554 S
C996 H984 0.959 . S
C996 C994 1.561 . S
C997 C994 1.526 1_556 S
C997 C998 1.396 . S
C997 C1002 1.390 . S
C998 C992 1.465 1_556 S
C998 C997 1.396 . S
C998 C999 1.399 . S
C999 H985 0.929 . S
C999 C998 1.399 . S
C999 C1000 1.385 . S
C1000 H986 0.931 . S
C1000 C999 1.385 . S
C1000 C1001 1.389 . S
C1001 C1000 1.389 . S
C1001 C1002 1.387 . S
C1002 H987 0.930 . S
C1002 C997 1.390 . S
C1002 C1001 1.387 . S
H1003 C1015 0.930 . S
H1004 C1017 0.930 . S
H1005 C1018 0.930 . S
H1006 C1022 0.959 . S
H1007 C1022 0.959 . S
H1008 C1022 0.961 . S
H1009 C1023 0.960 . S
H1010 C1023 0.961 . S
H1011 C1023 0.959 . S
H1012 C1026 0.929 . S
H1013 C1027 0.931 . S
H1014 C1029 0.930 . S
C1015 H1003 0.930 . S
C1015 C1016 1.399 . S
C1015 C1020 1.399 . S
C1016 C1015 1.399 . S
C1016 C1017 1.376 . S
C1017 H1004 0.930 . S
C1017 C1016 1.376 . S
C1017 C1018 1.388 . S
C1018 H1005 0.930 . S
C1018 C1017 1.388 . S
C1018 C1019 1.390 . S
C1019 C1018 1.390 . S
C1019 C1020 1.394 . S
C1019 C1025 1.465 . S
C1020 C1015 1.399 . S
C1020 C1019 1.394 . S
C1020 C1021 1.516 . S
C1021 C1020 1.516 . S
C1021 C1022 1.502 . S
C1021 C1023 1.561 . S
C1021 C1024 1.526 . S
C1022 H1006 0.959 . S
C1022 H1007 0.959 . S
C1022 H1008 0.961 . S
C1022 C1021 1.502 . S
C1023 H1009 0.960 . S
C1023 H1010 0.961 . S
C1023 H1011 0.959 . S
C1023 C1021 1.561 . S
C1024 C1021 1.526 . S
C1024 C1025 1.396 . S
C1024 C1029 1.390 . S
C1025 C1019 1.465 . S
C1025 C1024 1.396 . S
C1025 C1026 1.399 . S
C1026 H1012 0.929 . S
C1026 C1025 1.399 . S
C1026 C1027 1.385 . S
C1027 H1013 0.931 . S
C1027 C1026 1.385 . S
C1027 C1028 1.389 . S
C1028 C1027 1.389 . S
C1028 C1029 1.387 . S
C1029 H1014 0.930 . S
C1029 C1024 1.390 . S
C1029 C1028 1.387 . S
H1030 C1042 0.930 . S
H1031 C1044 0.930 . S
H1032 C1045 0.930 . S
H1033 C1049 0.959 . S
H1034 C1049 0.959 1_554 S
H1035 C1049 0.961 . S
H1036 C1050 0.960 . S
H1037 C1050 0.961 1_554 S
H1038 C1050 0.959 . S
H1039 C1053 0.929 . S
H1040 C1054 0.931 . S
H1041 C1056 0.930 . S
C1042 H1030 0.930 . S
C1042 C1043 1.399 . S
C1042 C1047 1.399 . S
C1043 C1042 1.399 . S
C1043 C1044 1.376 . S
C1044 H1031 0.930 . S
C1044 C1043 1.376 . S
C1044 C1045 1.388 . S
C1045 H1032 0.930 . S
C1045 C1044 1.388 . S
C1045 C1046 1.390 . S
C1046 C1045 1.390 . S
C1046 C1047 1.394 . S
C1046 C1052 1.465 1_556 S
C1047 C1042 1.399 . S
C1047 C1046 1.394 . S
C1047 C1048 1.516 . S
C1048 C1047 1.516 . S
C1048 C1049 1.502 . S
C1048 C1050 1.561 . S
C1048 C1051 1.526 1_556 S
C1049 H1033 0.959 . S
C1049 H1034 0.959 1_556 S
C1049 H1035 0.961 . S
C1049 C1048 1.502 . S
C1050 H1036 0.960 . S
C1050 H1037 0.961 1_556 S
C1050 H1038 0.959 . S
C1050 C1048 1.561 . S
C1051 C1048 1.526 1_554 S
C1051 C1052 1.396 . S
C1051 C1056 1.390 . S
C1052 C1046 1.465 1_554 S
C1052 C1051 1.396 . S
C1052 C1053 1.399 . S
C1053 H1039 0.929 . S
C1053 C1052 1.399 . S
C1053 C1054 1.385 . S
C1054 H1040 0.931 . S
C1054 C1053 1.385 . S
C1054 C1055 1.389 . S
C1055 C1054 1.389 . S
C1055 C1056 1.387 . S
C1056 H1041 0.930 . S
C1056 C1051 1.390 . S
C1056 C1055 1.387 . S
H1057 C1069 0.930 . S
H1058 C1071 0.930 . S
H1059 C1072 0.930 . S
H1060 C1076 0.959 . S
H1061 C1076 0.959 . S
H1062 C1076 0.961 . S
H1063 C1077 0.960 . S
H1064 C1077 0.961 . S
H1065 C1077 0.959 . S
H1066 C1080 0.929 . S
H1067 C1081 0.931 . S
H1068 C1083 0.930 . S
C1069 H1057 0.930 . S
C1069 C1070 1.399 . S
C1069 C1074 1.399 . S
C1070 C1069 1.399 . S
C1070 C1071 1.376 . S
C1071 H1058 0.930 . S
C1071 C1070 1.376 . S
C1071 C1072 1.388 . S
C1072 H1059 0.930 . S
C1072 C1071 1.388 . S
C1072 C1073 1.390 . S
C1073 C1072 1.390 . S
C1073 C1074 1.394 . S
C1073 C1079 1.465 . S
C1074 C1069 1.399 . S
C1074 C1073 1.394 . S
C1074 C1075 1.516 . S
C1075 C1074 1.516 . S
C1075 C1076 1.502 . S
C1075 C1077 1.561 . S
C1075 C1078 1.526 . S
C1076 H1060 0.959 . S
C1076 H1061 0.959 . S
C1076 H1062 0.961 . S
C1076 C1075 1.502 . S
C1077 H1063 0.960 . S
C1077 H1064 0.961 . S
C1077 H1065 0.959 . S
C1077 C1075 1.561 . S
C1078 C1075 1.526 . S
C1078 C1079 1.396 . S
C1078 C1083 1.390 . S
C1079 C1073 1.465 . S
C1079 C1078 1.396 . S
C1079 C1080 1.399 . S
C1080 H1066 0.929 . S
C1080 C1079 1.399 . S
C1080 C1081 1.385 . S
C1081 H1067 0.931 . S
C1081 C1080 1.385 . S
C1081 C1082 1.389 . S
C1082 C1081 1.389 . S
C1082 C1083 1.387 . S
C1083 H1068 0.930 . S
C1083 C1078 1.390 . S
C1083 C1082 1.387 . S
H1084 C1096 0.930 . S
H1085 C1098 0.930 . S
H1086 C1099 0.930 . S
H1087 C1103 0.960 . S
H1088 C1103 0.966 . S
H1089 C1103 0.953 1_556 S
H1090 C1104 0.939 1_556 S
H1091 C1104 0.979 . S
H1092 C1104 0.964 . S
H1093 C1107 0.929 . S
H1094 C1108 0.931 . S
H1095 C1110 0.930 . S
C1096 H1084 0.930 . S
C1096 C1097 1.399 . S
C1096 C1101 1.399 . S
C1097 C1096 1.399 . S
C1097 C1098 1.376 . S
C1098 H1085 0.930 . S
C1098 C1097 1.376 . S
C1098 C1099 1.388 . S
C1099 H1086 0.930 . S
C1099 C1098 1.388 . S
C1099 C1100 1.390 . S
C1100 C1099 1.390 . S
C1100 C1101 1.394 . S
C1100 C1106 1.465 1_556 S
C1101 C1096 1.399 . S
C1101 C1100 1.394 . S
C1101 C1102 1.516 1_556 S
C1102 C1101 1.516 1_554 S
C1102 C1103 1.503 . S
C1102 C1104 1.560 . S
C1102 C1105 1.526 . S
C1103 H1087 0.960 . S
C1103 H1088 0.966 . S
C1103 H1089 0.953 1_554 S
C1103 C1102 1.503 . S
C1104 H1090 0.939 1_554 S
C1104 H1091 0.979 . S
C1104 H1092 0.964 . S
C1104 C1102 1.560 . S
C1105 C1102 1.526 . S
C1105 C1106 1.396 . S
C1105 C1110 1.390 . S
C1106 C1100 1.465 1_554 S
C1106 C1105 1.396 . S
C1106 C1107 1.399 . S
C1107 H1093 0.929 . S
C1107 C1106 1.399 . S
C1107 C1108 1.385 . S
C1108 H1094 0.931 . S
C1108 C1107 1.385 . S
C1108 C1109 1.389 . S
C1109 C1108 1.389 . S
C1109 C1110 1.387 . S
C1110 H1095 0.930 . S
C1110 C1105 1.390 . S
C1110 C1109 1.387 . S
H1111 C1123 0.930 . S
H1112 C1125 0.930 . S
H1113 C1126 0.930 . S
H1114 C1130 0.959 . S
H1115 C1130 0.959 . S
H1116 C1130 0.961 . S
H1117 C1131 0.960 . S
H1118 C1131 0.961 . S
H1119 C1131 0.959 . S
H1120 C1134 0.929 . S
H1121 C1135 0.931 . S
H1122 C1137 0.930 . S
C1123 H1111 0.930 . S
C1123 C1124 1.399 . S
C1123 C1128 1.399 . S
C1124 C1123 1.399 . S
C1124 C1125 1.376 . S
C1125 H1112 0.930 . S
C1125 C1124 1.376 . S
C1125 C1126 1.388 . S
C1126 H1113 0.930 . S
C1126 C1125 1.388 . S
C1126 C1127 1.390 . S
C1127 C1126 1.390 . S
C1127 C1128 1.394 . S
C1127 C1133 1.465 . S
C1128 C1123 1.399 . S
C1128 C1127 1.394 . S
C1128 C1129 1.516 . S
C1129 C1128 1.516 . S
C1129 C1130 1.502 . S
C1129 C1131 1.561 . S
C1129 C1132 1.526 . S
C1130 H1114 0.959 . S
C1130 H1115 0.959 . S
C1130 H1116 0.961 . S
C1130 C1129 1.502 . S
C1131 H1117 0.960 . S
C1131 H1118 0.961 . S
C1131 H1119 0.959 . S
C1131 C1129 1.561 . S
C1132 C1129 1.526 . S
C1132 C1133 1.396 . S
C1132 C1137 1.390 . S
C1133 C1127 1.465 . S
C1133 C1132 1.396 . S
C1133 C1134 1.399 . S
C1134 H1120 0.929 . S
C1134 C1133 1.399 . S
C1134 C1135 1.385 . S
C1135 H1121 0.931 . S
C1135 C1134 1.385 . S
C1135 C1136 1.389 . S
C1136 C1135 1.389 . S
C1136 C1137 1.387 . S
C1137 H1122 0.930 . S
C1137 C1132 1.390 . S
C1137 C1136 1.387 . S
H1138 C1150 0.930 . S
H1139 C1152 0.930 . S
H1140 C1153 0.930 . S
H1141 C1157 0.959 . S
H1142 C1157 0.959 . S
H1143 C1157 0.961 1_554 S
H1144 C1158 0.960 1_554 S
H1145 C1158 0.961 . S
H1146 C1158 0.959 . S
H1147 C1161 0.929 . S
H1148 C1162 0.931 . S
H1149 C1164 0.930 . S
C1150 H1138 0.930 . S
C1150 C1151 1.399 . S
C1150 C1155 1.399 . S
C1151 C1150 1.399 . S
C1151 C1152 1.376 . S
C1152 H1139 0.930 . S
C1152 C1151 1.376 . S
C1152 C1153 1.388 . S
C1153 H1140 0.930 . S
C1153 C1152 1.388 . S
C1153 C1154 1.390 . S
C1154 C1153 1.390 . S
C1154 C1155 1.394 . S
C1154 C1160 1.465 1_554 S
C1155 C1150 1.399 . S
C1155 C1154 1.394 . S
C1155 C1156 1.516 1_554 S
C1156 C1155 1.516 1_556 S
C1156 C1157 1.502 . S
C1156 C1158 1.561 . S
C1156 C1159 1.526 . S
C1157 H1141 0.959 . S
C1157 H1142 0.959 . S
C1157 H1143 0.961 1_556 S
C1157 C1156 1.502 . S
C1158 H1144 0.960 1_556 S
C1158 H1145 0.961 . S
C1158 H1146 0.959 . S
C1158 C1156 1.561 . S
C1159 C1156 1.526 . S
C1159 C1160 1.396 . S
C1159 C1164 1.390 . S
C1160 C1154 1.465 1_556 S
C1160 C1159 1.396 . S
C1160 C1161 1.399 . S
C1161 H1147 0.929 . S
C1161 C1160 1.399 . S
C1161 C1162 1.385 . S
C1162 H1148 0.931 . S
C1162 C1161 1.385 . S
C1162 C1163 1.389 . S
C1163 C1162 1.389 . S
C1163 C1164 1.387 . S
C1164 H1149 0.930 . S
C1164 C1159 1.390 . S
C1164 C1163 1.387 . S
H1165 C1177 0.930 . S
H1166 C1179 0.930 . S
H1167 C1180 0.930 . S
H1168 C1184 0.959 . S
H1169 C1184 0.959 . S
H1170 C1184 0.961 . S
H1171 C1185 0.960 . S
H1172 C1185 0.961 . S
H1173 C1185 0.959 . S
H1174 C1188 0.929 . S
H1175 C1189 0.931 . S
H1176 C1191 0.930 . S
C1177 H1165 0.930 . S
C1177 C1178 1.399 . S
C1177 C1182 1.399 . S
C1178 C1177 1.399 . S
C1178 C1179 1.376 . S
C1179 H1166 0.930 . S
C1179 C1178 1.376 . S
C1179 C1180 1.388 . S
C1180 H1167 0.930 . S
C1180 C1179 1.388 . S
C1180 C1181 1.390 . S
C1181 C1180 1.390 . S
C1181 C1182 1.394 . S
C1181 C1187 1.465 . S
C1182 C1177 1.399 . S
C1182 C1181 1.394 . S
C1182 C1183 1.516 . S
C1183 C1182 1.516 . S
C1183 C1184 1.502 . S
C1183 C1185 1.561 . S
C1183 C1186 1.526 . S
C1184 H1168 0.959 . S
C1184 H1169 0.959 . S
C1184 H1170 0.961 . S
C1184 C1183 1.502 . S
C1185 H1171 0.960 . S
C1185 H1172 0.961 . S
C1185 H1173 0.959 . S
C1185 C1183 1.561 . S
C1186 C1183 1.526 . S
C1186 C1187 1.396 . S
C1186 C1191 1.390 . S
C1187 C1181 1.465 . S
C1187 C1186 1.396 . S
C1187 C1188 1.399 . S
C1188 H1174 0.929 . S
C1188 C1187 1.399 . S
C1188 C1189 1.385 . S
C1189 H1175 0.931 . S
C1189 C1188 1.385 . S
C1189 C1190 1.389 . S
C1190 C1189 1.389 . S
C1190 C1191 1.387 . S
C1191 H1176 0.930 . S
C1191 C1186 1.390 . S
C1191 C1190 1.387 . S
H1192 C1204 0.930 . S
H1193 C1206 0.930 . S
H1194 C1207 0.930 . S
H1195 C1211 0.959 . S
H1196 C1211 0.959 . S
H1197 C1211 0.961 . S
H1198 C1212 0.960 . S
H1199 C1212 0.961 . S
H1200 C1212 0.959 . S
H1201 C1215 0.929 . S
H1202 C1216 0.931 . S
H1203 C1218 0.930 . S
C1204 H1192 0.930 . S
C1204 C1205 1.399 . S
C1204 C1209 1.399 . S
C1205 C1204 1.399 . S
C1205 C1206 1.376 . S
C1206 H1193 0.930 . S
C1206 C1205 1.376 . S
C1206 C1207 1.388 . S
C1207 H1194 0.930 . S
C1207 C1206 1.388 . S
C1207 C1208 1.390 . S
C1208 C1207 1.390 . S
C1208 C1209 1.394 . S
C1208 C1214 1.465 . S
C1209 C1204 1.399 . S
C1209 C1208 1.394 . S
C1209 C1210 1.516 . S
C1210 C1209 1.516 . S
C1210 C1211 1.502 . S
C1210 C1212 1.561 . S
C1210 C1213 1.526 . S
C1211 H1195 0.959 . S
C1211 H1196 0.959 . S
C1211 H1197 0.961 . S
C1211 C1210 1.502 . S
C1212 H1198 0.960 . S
C1212 H1199 0.961 . S
C1212 H1200 0.959 . S
C1212 C1210 1.561 . S
C1213 C1210 1.526 . S
C1213 C1214 1.396 . S
C1213 C1218 1.390 . S
C1214 C1208 1.465 . S
C1214 C1213 1.396 . S
C1214 C1215 1.399 . S
C1215 H1201 0.929 . S
C1215 C1214 1.399 . S
C1215 C1216 1.385 . S
C1216 H1202 0.931 . S
C1216 C1215 1.385 . S
C1216 C1217 1.389 . S
C1217 C1216 1.389 . S
C1217 C1218 1.387 . S
C1218 H1203 0.930 . S
C1218 C1213 1.390 . S
C1218 C1217 1.387 . S
H1219 C1231 0.930 . S
H1220 C1233 0.930 . S
H1221 C1234 0.930 . S
H1222 C1238 0.959 . S
H1223 C1238 0.959 . S
H1224 C1238 0.961 . S
H1225 C1239 0.960 . S
H1226 C1239 0.961 . S
H1227 C1239 0.959 . S
H1228 C1242 0.929 . S
H1229 C1243 0.931 . S
H1230 C1245 0.930 . S
C1231 H1219 0.930 . S
C1231 C1232 1.399 . S
C1231 C1236 1.399 . S
C1232 C1231 1.399 . S
C1232 C1233 1.376 . S
C1233 H1220 0.930 . S
C1233 C1232 1.376 . S
C1233 C1234 1.388 . S
C1234 H1221 0.930 . S
C1234 C1233 1.388 . S
C1234 C1235 1.390 . S
C1235 C1234 1.390 . S
C1235 C1236 1.394 . S
C1235 C1241 1.465 . S
C1236 C1231 1.399 . S
C1236 C1235 1.394 . S
C1236 C1237 1.516 . S
C1237 C1236 1.516 . S
C1237 C1238 1.502 . S
C1237 C1239 1.561 . S
C1237 C1240 1.526 . S
C1238 H1222 0.959 . S
C1238 H1223 0.959 . S
C1238 H1224 0.961 . S
C1238 C1237 1.502 . S
C1239 H1225 0.960 . S
C1239 H1226 0.961 . S
C1239 H1227 0.959 . S
C1239 C1237 1.561 . S
C1240 C1237 1.526 . S
C1240 C1241 1.396 . S
C1240 C1245 1.390 . S
C1241 C1235 1.465 . S
C1241 C1240 1.396 . S
C1241 C1242 1.399 . S
C1242 H1228 0.929 . S
C1242 C1241 1.399 . S
C1242 C1243 1.385 . S
C1243 H1229 0.931 . S
C1243 C1242 1.385 . S
C1243 C1244 1.389 . S
C1244 C1243 1.389 . S
C1244 C1245 1.387 . S
C1245 H1230 0.930 . S
C1245 C1240 1.390 . S
C1245 C1244 1.387 . S
H1246 C1258 0.930 . S
H1247 C1260 0.930 . S
H1248 C1261 0.930 . S
H1249 C1265 0.959 . S
H1250 C1265 0.959 . S
H1251 C1265 0.961 . S
H1252 C1266 0.960 . S
H1253 C1266 0.961 . S
H1254 C1266 0.959 . S
H1255 C1269 0.929 . S
H1256 C1270 0.931 . S
H1257 C1272 0.930 . S
C1258 H1246 0.930 . S
C1258 C1259 1.399 . S
C1258 C1263 1.399 . S
C1259 C1258 1.399 . S
C1259 C1260 1.376 . S
C1260 H1247 0.930 . S
C1260 C1259 1.376 . S
C1260 C1261 1.388 . S
C1261 H1248 0.930 . S
C1261 C1260 1.388 . S
C1261 C1262 1.390 . S
C1262 C1261 1.390 . S
C1262 C1263 1.394 . S
C1262 C1268 1.465 . S
C1263 C1258 1.399 . S
C1263 C1262 1.394 . S
C1263 C1264 1.516 . S
C1264 C1263 1.516 . S
C1264 C1265 1.502 . S
C1264 C1266 1.561 . S
C1264 C1267 1.526 . S
C1265 H1249 0.959 . S
C1265 H1250 0.959 . S
C1265 H1251 0.961 . S
C1265 C1264 1.502 . S
C1266 H1252 0.960 . S
C1266 H1253 0.961 . S
C1266 H1254 0.959 . S
C1266 C1264 1.561 . S
C1267 C1264 1.526 . S
C1267 C1268 1.396 . S
C1267 C1272 1.390 . S
C1268 C1262 1.465 . S
C1268 C1267 1.396 . S
C1268 C1269 1.399 . S
C1269 H1255 0.929 . S
C1269 C1268 1.399 . S
C1269 C1270 1.385 . S
C1270 H1256 0.931 . S
C1270 C1269 1.385 . S
C1270 C1271 1.389 . S
C1271 C1270 1.389 . S
C1271 C1272 1.387 . S
C1272 H1257 0.930 . S
C1272 C1267 1.390 . S
C1272 C1271 1.387 . S
H1273 C1285 0.930 . S
H1274 C1287 0.930 . S
H1275 C1288 0.930 . S
H1276 C1292 0.959 . S
H1277 C1292 0.959 . S
H1278 C1292 0.961 . S
H1279 C1293 0.960 . S
H1280 C1293 0.961 . S
H1281 C1293 0.959 . S
H1282 C1296 0.929 . S
H1283 C1297 0.931 . S
H1284 C1299 0.930 . S
C1285 H1273 0.930 . S
C1285 C1286 1.399 . S
C1285 C1290 1.399 . S
C1286 C1285 1.399 . S
C1286 C1287 1.376 . S
C1287 H1274 0.930 . S
C1287 C1286 1.376 . S
C1287 C1288 1.388 . S
C1288 H1275 0.930 . S
C1288 C1287 1.388 . S
C1288 C1289 1.390 . S
C1289 C1288 1.390 . S
C1289 C1290 1.394 . S
C1289 C1295 1.465 . S
C1290 C1285 1.399 . S
C1290 C1289 1.394 . S
C1290 C1291 1.516 . S
C1291 C1290 1.516 . S
C1291 C1292 1.502 . S
C1291 C1293 1.561 . S
C1291 C1294 1.526 . S
C1292 H1276 0.959 . S
C1292 H1277 0.959 . S
C1292 H1278 0.961 . S
C1292 C1291 1.502 . S
C1293 H1279 0.960 . S
C1293 H1280 0.961 . S
C1293 H1281 0.959 . S
C1293 C1291 1.561 . S
C1294 C1291 1.526 . S
C1294 C1295 1.396 . S
C1294 C1299 1.390 . S
C1295 C1289 1.465 . S
C1295 C1294 1.396 . S
C1295 C1296 1.399 . S
C1296 H1282 0.929 . S
C1296 C1295 1.399 . S
C1296 C1297 1.385 . S
C1297 H1283 0.931 . S
C1297 C1296 1.385 . S
C1297 C1298 1.389 . S
C1298 C1297 1.389 . S
C1298 C1299 1.387 . S
C1299 H1284 0.930 . S
C1299 C1294 1.390 . S
C1299 C1298 1.387 . S
H1300 C1312 0.930 . S
H1301 C1314 0.930 . S
H1302 C1315 0.930 . S
H1303 C1319 0.959 . S
H1304 C1319 0.959 . S
H1305 C1319 0.961 . S
H1306 C1320 0.960 . S
H1307 C1320 0.961 . S
H1308 C1320 0.959 . S
H1309 C1323 0.929 . S
H1310 C1324 0.931 . S
H1311 C1326 0.930 . S
C1312 H1300 0.930 . S
C1312 C1313 1.399 . S
C1312 C1317 1.399 . S
C1313 C1312 1.399 . S
C1313 C1314 1.376 . S
C1314 H1301 0.930 . S
C1314 C1313 1.376 . S
C1314 C1315 1.388 . S
C1315 H1302 0.930 . S
C1315 C1314 1.388 . S
C1315 C1316 1.390 . S
C1316 C1315 1.390 . S
C1316 C1317 1.394 . S
C1316 C1322 1.465 . S
C1317 C1312 1.399 . S
C1317 C1316 1.394 . S
C1317 C1318 1.516 . S
C1318 C1317 1.516 . S
C1318 C1319 1.502 . S
C1318 C1320 1.561 . S
C1318 C1321 1.526 . S
C1319 H1303 0.959 . S
C1319 H1304 0.959 . S
C1319 H1305 0.961 . S
C1319 C1318 1.502 . S
C1320 H1306 0.960 . S
C1320 H1307 0.961 . S
C1320 H1308 0.959 . S
C1320 C1318 1.561 . S
C1321 C1318 1.526 . S
C1321 C1322 1.396 . S
C1321 C1326 1.390 . S
C1322 C1316 1.465 . S
C1322 C1321 1.396 . S
C1322 C1323 1.399 . S
C1323 H1309 0.929 . S
C1323 C1322 1.399 . S
C1323 C1324 1.385 . S
C1324 H1310 0.931 . S
C1324 C1323 1.385 . S
C1324 C1325 1.389 . S
C1325 C1324 1.389 . S
C1325 C1326 1.387 . S
C1326 H1311 0.930 . S
C1326 C1321 1.390 . S
C1326 C1325 1.387 . S
H1327 C1339 0.930 . S
H1328 C1341 0.930 . S
H1329 C1342 0.930 . S
H1330 C1346 0.959 . S
H1331 C1346 0.959 . S
H1332 C1346 0.961 . S
H1333 C1347 0.960 . S
H1334 C1347 0.961 . S
H1335 C1347 0.959 . S
H1336 C1350 0.929 . S
H1337 C1351 0.931 . S
H1338 C1353 0.930 . S
C1339 H1327 0.930 . S
C1339 C1340 1.399 . S
C1339 C1344 1.399 . S
C1340 C1339 1.399 . S
C1340 C1341 1.376 . S
C1341 H1328 0.930 . S
C1341 C1340 1.376 . S
C1341 C1342 1.388 . S
C1342 H1329 0.930 . S
C1342 C1341 1.388 . S
C1342 C1343 1.390 . S
C1343 C1342 1.390 . S
C1343 C1344 1.394 . S
C1343 C1349 1.465 . S
C1344 C1339 1.399 . S
C1344 C1343 1.394 . S
C1344 C1345 1.516 . S
C1345 C1344 1.516 . S
C1345 C1346 1.502 . S
C1345 C1347 1.561 . S
C1345 C1348 1.526 . S
C1346 H1330 0.959 . S
C1346 H1331 0.959 . S
C1346 H1332 0.961 . S
C1346 C1345 1.502 . S
C1347 H1333 0.960 . S
C1347 H1334 0.961 . S
C1347 H1335 0.959 . S
C1347 C1345 1.561 . S
C1348 C1345 1.526 . S
C1348 C1349 1.396 . S
C1348 C1353 1.390 . S
C1349 C1343 1.465 . S
C1349 C1348 1.396 . S
C1349 C1350 1.399 . S
C1350 H1336 0.929 . S
C1350 C1349 1.399 . S
C1350 C1351 1.385 . S
C1351 H1337 0.931 . S
C1351 C1350 1.385 . S
C1351 C1352 1.389 . S
C1352 C1351 1.389 . S
C1352 C1353 1.387 . S
C1353 H1338 0.930 . S
C1353 C1348 1.390 . S
C1353 C1352 1.387 . S
H1354 C1366 0.930 . S
H1355 C1368 0.930 . S
H1356 C1369 0.930 . S
H1357 C1373 0.959 . S
H1358 C1373 0.959 . S
H1359 C1373 0.961 . S
H1360 C1374 0.960 . S
H1361 C1374 0.961 . S
H1362 C1374 0.959 . S
H1363 C1377 0.929 . S
H1364 C1378 0.931 . S
H1365 C1380 0.930 . S
C1366 H1354 0.930 . S
C1366 C1367 1.399 . S
C1366 C1371 1.399 . S
C1367 C1366 1.399 . S
C1367 C1368 1.376 . S
C1368 H1355 0.930 . S
C1368 C1367 1.376 . S
C1368 C1369 1.388 . S
C1369 H1356 0.930 . S
C1369 C1368 1.388 . S
C1369 C1370 1.390 . S
C1370 C1369 1.390 . S
C1370 C1371 1.394 . S
C1370 C1376 1.465 . S
C1371 C1366 1.399 . S
C1371 C1370 1.394 . S
C1371 C1372 1.516 . S
C1372 C1371 1.516 . S
C1372 C1373 1.502 . S
C1372 C1374 1.561 . S
C1372 C1375 1.526 . S
C1373 H1357 0.959 . S
C1373 H1358 0.959 . S
C1373 H1359 0.961 . S
C1373 C1372 1.502 . S
C1374 H1360 0.960 . S
C1374 H1361 0.961 . S
C1374 H1362 0.959 . S
C1374 C1372 1.561 . S
C1375 C1372 1.526 . S
C1375 C1376 1.396 . S
C1375 C1380 1.390 . S
C1376 C1370 1.465 . S
C1376 C1375 1.396 . S
C1376 C1377 1.399 . S
C1377 H1363 0.929 . S
C1377 C1376 1.399 . S
C1377 C1378 1.385 . S
C1378 H1364 0.931 . S
C1378 C1377 1.385 . S
C1378 C1379 1.389 . S
C1379 C1378 1.389 . S
C1379 C1380 1.387 . S
C1380 H1365 0.930 . S
C1380 C1375 1.390 . S
C1380 C1379 1.387 . S
H1381 C1393 0.930 . S
H1382 C1395 0.930 . S
H1383 C1396 0.930 . S
H1384 C1400 0.959 . S
H1385 C1400 0.959 . S
H1386 C1400 0.961 . S
H1387 C1401 0.960 . S
H1388 C1401 0.961 . S
H1389 C1401 0.959 . S
H1390 C1404 0.929 . S
H1391 C1405 0.931 . S
H1392 C1407 0.930 . S
C1393 H1381 0.930 . S
C1393 C1394 1.399 . S
C1393 C1398 1.399 . S
C1394 C1393 1.399 . S
C1394 C1395 1.376 . S
C1395 H1382 0.930 . S
C1395 C1394 1.376 . S
C1395 C1396 1.388 . S
C1396 H1383 0.930 . S
C1396 C1395 1.388 . S
C1396 C1397 1.390 . S
C1397 C1396 1.390 . S
C1397 C1398 1.394 . S
C1397 C1403 1.465 . S
C1398 C1393 1.399 . S
C1398 C1397 1.394 . S
C1398 C1399 1.516 . S
C1399 C1398 1.516 . S
C1399 C1400 1.502 . S
C1399 C1401 1.561 . S
C1399 C1402 1.526 . S
C1400 H1384 0.959 . S
C1400 H1385 0.959 . S
C1400 H1386 0.961 . S
C1400 C1399 1.502 . S
C1401 H1387 0.960 . S
C1401 H1388 0.961 . S
C1401 H1389 0.959 . S
C1401 C1399 1.561 . S
C1402 C1399 1.526 . S
C1402 C1403 1.396 . S
C1402 C1407 1.390 . S
C1403 C1397 1.465 . S
C1403 C1402 1.396 . S
C1403 C1404 1.399 . S
C1404 H1390 0.929 . S
C1404 C1403 1.399 . S
C1404 C1405 1.385 . S
C1405 H1391 0.931 . S
C1405 C1404 1.385 . S
C1405 C1406 1.389 . S
C1406 C1405 1.389 . S
C1406 C1407 1.387 . S
C1407 H1392 0.930 . S
C1407 C1402 1.390 . S
C1407 C1406 1.387 . S
H1408 C1420 0.930 . S
H1409 C1422 0.930 . S
H1410 C1423 0.930 . S
H1411 C1427 0.959 . S
H1412 C1427 0.959 . S
H1413 C1427 0.961 . S
H1414 C1428 0.960 . S
H1415 C1428 0.961 . S
H1416 C1428 0.959 . S
H1417 C1431 0.929 . S
H1418 C1432 0.931 . S
H1419 C1434 0.930 . S
C1420 H1408 0.930 . S
C1420 C1421 1.399 . S
C1420 C1425 1.399 . S
C1421 C1420 1.399 . S
C1421 C1422 1.376 . S
C1422 H1409 0.930 . S
C1422 C1421 1.376 . S
C1422 C1423 1.388 . S
C1423 H1410 0.930 . S
C1423 C1422 1.388 . S
C1423 C1424 1.390 . S
C1424 C1423 1.390 . S
C1424 C1425 1.394 . S
C1424 C1430 1.465 . S
C1425 C1420 1.399 . S
C1425 C1424 1.394 . S
C1425 C1426 1.516 . S
C1426 C1425 1.516 . S
C1426 C1427 1.502 . S
C1426 C1428 1.561 . S
C1426 C1429 1.526 . S
C1427 H1411 0.959 . S
C1427 H1412 0.959 . S
C1427 H1413 0.961 . S
C1427 C1426 1.502 . S
C1428 H1414 0.960 . S
C1428 H1415 0.961 . S
C1428 H1416 0.959 . S
C1428 C1426 1.561 . S
C1429 C1426 1.526 . S
C1429 C1430 1.396 . S
C1429 C1434 1.390 . S
C1430 C1424 1.465 . S
C1430 C1429 1.396 . S
C1430 C1431 1.399 . S
C1431 H1417 0.929 . S
C1431 C1430 1.399 . S
C1431 C1432 1.385 . S
C1432 H1418 0.931 . S
C1432 C1431 1.385 . S
C1432 C1433 1.389 . S
C1433 C1432 1.389 . S
C1433 C1434 1.387 . S
C1434 H1419 0.930 . S
C1434 C1429 1.390 . S
C1434 C1433 1.387 . S
H1435 C1447 0.930 . S
H1436 C1449 0.930 . S
H1437 C1450 0.930 . S
H1438 C1454 0.959 . S
H1439 C1454 0.959 . S
H1440 C1454 0.961 . S
H1441 C1455 0.960 . S
H1442 C1455 0.961 . S
H1443 C1455 0.959 . S
H1444 C1458 0.929 . S
H1445 C1459 0.931 . S
H1446 C1461 0.930 . S
C1447 H1435 0.930 . S
C1447 C1448 1.399 . S
C1447 C1452 1.399 . S
C1448 C1447 1.399 . S
C1448 C1449 1.376 . S
C1449 H1436 0.930 . S
C1449 C1448 1.376 . S
C1449 C1450 1.388 . S
C1450 H1437 0.930 . S
C1450 C1449 1.388 . S
C1450 C1451 1.390 . S
C1451 C1450 1.390 . S
C1451 C1452 1.394 . S
C1451 C1457 1.465 . S
C1452 C1447 1.399 . S
C1452 C1451 1.394 . S
C1452 C1453 1.516 . S
C1453 C1452 1.516 . S
C1453 C1454 1.502 . S
C1453 C1455 1.561 . S
C1453 C1456 1.526 . S
C1454 H1438 0.959 . S
C1454 H1439 0.959 . S
C1454 H1440 0.961 . S
C1454 C1453 1.502 . S
C1455 H1441 0.960 . S
C1455 H1442 0.961 . S
C1455 H1443 0.959 . S
C1455 C1453 1.561 . S
C1456 C1453 1.526 . S
C1456 C1457 1.396 . S
C1456 C1461 1.390 . S
C1457 C1451 1.465 . S
C1457 C1456 1.396 . S
C1457 C1458 1.399 . S
C1458 H1444 0.929 . S
C1458 C1457 1.399 . S
C1458 C1459 1.385 . S
C1459 H1445 0.931 . S
C1459 C1458 1.385 . S
C1459 C1460 1.389 . S
C1460 C1459 1.389 . S
C1460 C1461 1.387 . S
C1461 H1446 0.930 . S
C1461 C1456 1.390 . S
C1461 C1460 1.387 . S
H1462 C1474 0.930 . S
H1463 C1476 0.930 . S
H1464 C1477 0.930 . S
H1465 C1481 0.959 . S
H1466 C1481 0.959 . S
H1467 C1481 0.961 . S
H1468 C1482 0.960 . S
H1469 C1482 0.961 . S
H1470 C1482 0.959 . S
H1471 C1485 0.929 . S
H1472 C1486 0.931 . S
H1473 C1488 0.930 . S
C1474 H1462 0.930 . S
C1474 C1475 1.399 . S
C1474 C1479 1.399 . S
C1475 C1474 1.399 . S
C1475 C1476 1.376 . S
C1476 H1463 0.930 . S
C1476 C1475 1.376 . S
C1476 C1477 1.388 . S
C1477 H1464 0.930 . S
C1477 C1476 1.388 . S
C1477 C1478 1.390 . S
C1478 C1477 1.390 . S
C1478 C1479 1.394 . S
C1478 C1484 1.465 . S
C1479 C1474 1.399 . S
C1479 C1478 1.394 . S
C1479 C1480 1.516 . S
C1480 C1479 1.516 . S
C1480 C1481 1.502 . S
C1480 C1482 1.561 . S
C1480 C1483 1.526 . S
C1481 H1465 0.959 . S
C1481 H1466 0.959 . S
C1481 H1467 0.961 . S
C1481 C1480 1.502 . S
C1482 H1468 0.960 . S
C1482 H1469 0.961 . S
C1482 H1470 0.959 . S
C1482 C1480 1.561 . S
C1483 C1480 1.526 . S
C1483 C1484 1.396 . S
C1483 C1488 1.390 . S
C1484 C1478 1.465 . S
C1484 C1483 1.396 . S
C1484 C1485 1.399 . S
C1485 H1471 0.929 . S
C1485 C1484 1.399 . S
C1485 C1486 1.385 . S
C1486 H1472 0.931 . S
C1486 C1485 1.385 . S
C1486 C1487 1.389 . S
C1487 C1486 1.389 . S
C1487 C1488 1.387 . S
C1488 H1473 0.930 . S
C1488 C1483 1.390 . S
C1488 C1487 1.387 . S
H1489 C1501 0.930 . S
H1490 C1503 0.930 . S
H1491 C1504 0.930 . S
H1492 C1508 0.959 . S
H1493 C1508 0.959 . S
H1494 C1508 0.961 . S
H1495 C1509 0.960 . S
H1496 C1509 0.961 . S
H1497 C1509 0.959 . S
H1498 C1512 0.929 . S
H1499 C1513 0.931 . S
H1500 C1515 0.930 . S
C1501 H1489 0.930 . S
C1501 C1502 1.399 . S
C1501 C1506 1.399 . S
C1502 C1501 1.399 . S
C1502 C1503 1.376 . S
C1503 H1490 0.930 . S
C1503 C1502 1.376 . S
C1503 C1504 1.388 . S
C1504 H1491 0.930 . S
C1504 C1503 1.388 . S
C1504 C1505 1.390 . S
C1505 C1504 1.390 . S
C1505 C1506 1.394 . S
C1505 C1511 1.465 . S
C1506 C1501 1.399 . S
C1506 C1505 1.394 . S
C1506 C1507 1.516 . S
C1507 C1506 1.516 . S
C1507 C1508 1.502 . S
C1507 C1509 1.561 . S
C1507 C1510 1.526 . S
C1508 H1492 0.959 . S
C1508 H1493 0.959 . S
C1508 H1494 0.961 . S
C1508 C1507 1.502 . S
C1509 H1495 0.960 . S
C1509 H1496 0.961 . S
C1509 H1497 0.959 . S
C1509 C1507 1.561 . S
C1510 C1507 1.526 . S
C1510 C1511 1.396 . S
C1510 C1515 1.390 . S
C1511 C1505 1.465 . S
C1511 C1510 1.396 . S
C1511 C1512 1.399 . S
C1512 H1498 0.929 . S
C1512 C1511 1.399 . S
C1512 C1513 1.385 . S
C1513 H1499 0.931 . S
C1513 C1512 1.385 . S
C1513 C1514 1.389 . S
C1514 C1513 1.389 . S
C1514 C1515 1.387 . S
C1515 H1500 0.930 . S
C1515 C1510 1.390 . S
C1515 C1514 1.387 . S
H1516 C1528 0.930 . S
H1517 C1530 0.930 . S
H1518 C1531 0.930 . S
H1519 C1535 0.959 . S
H1520 C1535 0.959 . S
H1521 C1535 0.961 . S
H1522 C1536 0.960 . S
H1523 C1536 0.961 . S
H1524 C1536 0.959 . S
H1525 C1539 0.929 . S
H1526 C1540 0.931 . S
H1527 C1542 0.930 . S
C1528 H1516 0.930 . S
C1528 C1529 1.399 . S
C1528 C1533 1.399 . S
C1529 C1528 1.399 . S
C1529 C1530 1.376 . S
C1530 H1517 0.930 . S
C1530 C1529 1.376 . S
C1530 C1531 1.388 . S
C1531 H1518 0.930 . S
C1531 C1530 1.388 . S
C1531 C1532 1.390 . S
C1532 C1531 1.390 . S
C1532 C1533 1.394 . S
C1532 C1538 1.465 . S
C1533 C1528 1.399 . S
C1533 C1532 1.394 . S
C1533 C1534 1.516 . S
C1534 C1533 1.516 . S
C1534 C1535 1.502 . S
C1534 C1536 1.561 . S
C1534 C1537 1.526 . S
C1535 H1519 0.959 . S
C1535 H1520 0.959 . S
C1535 H1521 0.961 . S
C1535 C1534 1.502 . S
C1536 H1522 0.960 . S
C1536 H1523 0.961 . S
C1536 H1524 0.959 . S
C1536 C1534 1.561 . S
C1537 C1534 1.526 . S
C1537 C1538 1.396 . S
C1537 C1542 1.390 . S
C1538 C1532 1.465 . S
C1538 C1537 1.396 . S
C1538 C1539 1.399 . S
C1539 H1525 0.929 . S
C1539 C1538 1.399 . S
C1539 C1540 1.385 . S
C1540 H1526 0.931 . S
C1540 C1539 1.385 . S
C1540 C1541 1.389 . S
C1541 C1540 1.389 . S
C1541 C1542 1.387 . S
C1542 H1527 0.930 . S
C1542 C1537 1.390 . S
C1542 C1541 1.387 . S
H1543 C1555 0.930 . S
H1544 C1557 0.930 . S
H1545 C1558 0.930 . S
H1546 C1562 0.959 . S
H1547 C1562 0.959 . S
H1548 C1562 0.961 . S
H1549 C1563 0.960 . S
H1550 C1563 0.961 . S
H1551 C1563 0.959 . S
H1552 C1566 0.929 . S
H1553 C1567 0.931 . S
H1554 C1569 0.930 . S
C1555 H1543 0.930 . S
C1555 C1556 1.399 . S
C1555 C1560 1.399 . S
C1556 C1555 1.399 . S
C1556 C1557 1.376 . S
C1557 H1544 0.930 . S
C1557 C1556 1.376 . S
C1557 C1558 1.388 . S
C1558 H1545 0.930 . S
C1558 C1557 1.388 . S
C1558 C1559 1.390 . S
C1559 C1558 1.390 . S
C1559 C1560 1.394 . S
C1559 C1565 1.465 . S
C1560 C1555 1.399 . S
C1560 C1559 1.394 . S
C1560 C1561 1.516 . S
C1561 C1560 1.516 . S
C1561 C1562 1.502 . S
C1561 C1563 1.561 . S
C1561 C1564 1.526 . S
C1562 H1546 0.959 . S
C1562 H1547 0.959 . S
C1562 H1548 0.961 . S
C1562 C1561 1.502 . S
C1563 H1549 0.960 . S
C1563 H1550 0.961 . S
C1563 H1551 0.959 . S
C1563 C1561 1.561 . S
C1564 C1561 1.526 . S
C1564 C1565 1.396 . S
C1564 C1569 1.390 . S
C1565 C1559 1.465 . S
C1565 C1564 1.396 . S
C1565 C1566 1.399 . S
C1566 H1552 0.929 . S
C1566 C1565 1.399 . S
C1566 C1567 1.385 . S
C1567 H1553 0.931 . S
C1567 C1566 1.385 . S
C1567 C1568 1.389 . S
C1568 C1567 1.389 . S
C1568 C1569 1.387 . S
C1569 H1554 0.930 . S
C1569 C1564 1.390 . S
C1569 C1568 1.387 . S
H1570 C1582 0.930 . S
H1571 C1584 0.930 . S
H1572 C1585 0.930 . S
H1573 C1589 0.959 . S
H1574 C1589 0.959 . S
H1575 C1589 0.961 . S
H1576 C1590 0.960 . S
H1577 C1590 0.961 . S
H1578 C1590 0.959 . S
H1579 C1593 0.929 . S
H1580 C1594 0.931 . S
H1581 C1596 0.930 . S
C1582 H1570 0.930 . S
C1582 C1583 1.399 . S
C1582 C1587 1.399 . S
C1583 C1582 1.399 . S
C1583 C1584 1.376 . S
C1584 H1571 0.930 . S
C1584 C1583 1.376 . S
C1584 C1585 1.388 . S
C1585 H1572 0.930 . S
C1585 C1584 1.388 . S
C1585 C1586 1.390 . S
C1586 C1585 1.390 . S
C1586 C1587 1.394 . S
C1586 C1592 1.465 . S
C1587 C1582 1.399 . S
C1587 C1586 1.394 . S
C1587 C1588 1.516 . S
C1588 C1587 1.516 . S
C1588 C1589 1.502 . S
C1588 C1590 1.561 . S
C1588 C1591 1.526 . S
C1589 H1573 0.959 . S
C1589 H1574 0.959 . S
C1589 H1575 0.961 . S
C1589 C1588 1.502 . S
C1590 H1576 0.960 . S
C1590 H1577 0.961 . S
C1590 H1578 0.959 . S
C1590 C1588 1.561 . S
C1591 C1588 1.526 . S
C1591 C1592 1.396 . S
C1591 C1596 1.390 . S
C1592 C1586 1.465 . S
C1592 C1591 1.396 . S
C1592 C1593 1.399 . S
C1593 H1579 0.929 . S
C1593 C1592 1.399 . S
C1593 C1594 1.385 . S
C1594 H1580 0.931 . S
C1594 C1593 1.385 . S
C1594 C1595 1.389 . S
C1595 C1594 1.389 . S
C1595 C1596 1.387 . S
C1596 H1581 0.930 . S
C1596 C1591 1.390 . S
C1596 C1595 1.387 . S
H1597 C1609 0.930 . S
H1598 C1611 0.930 . S
H1599 C1612 0.930 . S
H1600 C1616 0.959 . S
H1601 C1616 0.959 . S
H1602 C1616 0.961 . S
H1603 C1617 0.960 . S
H1604 C1617 0.961 . S
H1605 C1617 0.959 . S
H1606 C1620 0.929 . S
H1607 C1621 0.931 . S
H1608 C1623 0.930 . S
C1609 H1597 0.930 . S
C1609 C1610 1.399 . S
C1609 C1614 1.399 . S
C1610 C1609 1.399 . S
C1610 C1611 1.376 . S
C1611 H1598 0.930 . S
C1611 C1610 1.376 . S
C1611 C1612 1.388 . S
C1612 H1599 0.930 . S
C1612 C1611 1.388 . S
C1612 C1613 1.390 . S
C1613 C1612 1.390 . S
C1613 C1614 1.394 . S
C1613 C1619 1.465 . S
C1614 C1609 1.399 . S
C1614 C1613 1.394 . S
C1614 C1615 1.516 . S
C1615 C1614 1.516 . S
C1615 C1616 1.502 . S
C1615 C1617 1.561 . S
C1615 C1618 1.526 . S
C1616 H1600 0.959 . S
C1616 H1601 0.959 . S
C1616 H1602 0.961 . S
C1616 C1615 1.502 . S
C1617 H1603 0.960 . S
C1617 H1604 0.961 . S
C1617 H1605 0.959 . S
C1617 C1615 1.561 . S
C1618 C1615 1.526 . S
C1618 C1619 1.396 . S
C1618 C1623 1.390 . S
C1619 C1613 1.465 . S
C1619 C1618 1.396 . S
C1619 C1620 1.399 . S
C1620 H1606 0.929 . S
C1620 C1619 1.399 . S
C1620 C1621 1.385 . S
C1621 H1607 0.931 . S
C1621 C1620 1.385 . S
C1621 C1622 1.389 . S
C1622 C1621 1.389 . S
C1622 C1623 1.387 . S
C1623 H1608 0.930 . S
C1623 C1618 1.390 . S
C1623 C1622 1.387 . S
C557 C413 1.501 . S
C569 C9 1.417 . S
C584 C43 1.276 . S
C596 C447 1.443 . S
C611 C77 1.457 . S
C623 C481 1.490 . S
C638 C107 1.421 . S
C650 C519 1.393 . S
C665 C281 1.429 . S
C677 C141 1.497 . S
C692 C311 1.552 . S
C704 C179 1.473 . S
C719 C209 1.474 . S
C731 C349 1.451 . S
C746 C383 1.509 . S
C758 C243 1.567 . S
C773 C33 1.559 . S
C785 C509 1.566 . S
C800 C543 1.669 . S
C812 C67 1.663 . S
C827 C441 1.535 . S
C839 C101 1.538 . S
C854 C475 1.665 . S
C866 C135 1.673 . S
C881 C373 1.848 . S
C893 C169 1.841 . S
C908 C407 1.689 . S
C920 C203 1.689 . S
C935 C305 1.850 . S
C947 C237 1.848 . S
C962 C339 1.693 . S
C974 C271 1.694 . S
C989 C20 1.397 . S
C1001 C342 1.412 . S
C1016 C376 1.422 . S
C1028 C54 1.470 . S
C1043 C274 1.486 . S
C1055 C88 1.484 . S
C1070 C326 1.437 . S
C1082 C104 1.411 . S
C1097 C138 1.415 . S
C1109 C496 1.388 . S
C1124 C190 1.422 . S
C1136 C512 1.405 . S
C1151 C428 1.366 . S
C1163 C206 1.394 . S
C1178 C240 1.381 . S
C1190 C462 1.387 . S
C1205 C417 1.385 . S
C1217 C5 1.404 . S
C1232 C39 1.490 . S
C1244 C451 1.391 . S
C1259 C73 1.430 . S
C1271 C485 1.271 . S
C1286 C515 1.481 . S
C1298 C111 1.386 . S
C1313 C277 1.419 . S
C1325 C145 1.281 . S
C1340 C175 1.328 . S
C1352 C315 1.276 . S
C1367 C345 1.424 . S
C1379 C213 1.301 . S
C1394 C379 1.359 . S
C1406 C247 1.235 . S
C1421 C172 1.587 . S
C1433 C2 1.582 . S
C1448 C224 1.607 . S
C1460 C36 1.614 . S
C1475 C70 1.199 . S
C1487 C258 1.197 . S
C1502 C156 1.314 . S
C1514 C122 1.304 . S
C1529 C292 1.626 . S
C1541 C444 1.679 . S
C1556 C478 1.523 . S
C1568 C308 1.500 . S
C1583 C530 1.396 . S
C1595 C360 1.382 . S
C1610 C394 1.308 . S
C1622 C410 1.304 . S
