# Generated by pormake.
# Topology upa, (4)-cn, num edge types: 1
# Building blocks:
#     Node 0, Type 0, BuildingBlock: QUQFOY_clean_sbu_1, # of connection points: 4
#     Node 1, Type 0, BuildingBlock: QUQFOY_clean_sbu_1, # of connection points: 4
#     Node 2, Type 0, BuildingBlock: QUQFOY_clean_sbu_1, # of connection points: 4
#     Node 3, Type 0, BuildingBlock: QUQFOY_clean_sbu_1, # of connection points: 4
#     Node 4, Type 0, BuildingBlock: QUQFOY_clean_sbu_1, # of connection points: 4
#     Node 5, Type 0, BuildingBlock: QUQFOY_clean_sbu_1, # of connection points: 4
#     Node 6, Type 0, BuildingBlock: QUQFOY_clean_sbu_1, # of connection points: 4
#     Node 7, Type 0, BuildingBlock: QUQFOY_clean_sbu_1, # of connection points: 4
#     Edge 8, Type (0, 0), BuildingBlock: KIFKEQ_clean_linker_1, # of connection points: 2
#     Edge 9, Type (0, 0), BuildingBlock: KIFKEQ_clean_linker_1, # of connection points: 2
#     Edge 10, Type (0, 0), BuildingBlock: KIFKEQ_clean_linker_1, # of connection points: 2
#     Edge 11, Type (0, 0), BuildingBlock: KIFKEQ_clean_linker_1, # of connection points: 2
#     Edge 12, Type (0, 0), BuildingBlock: KIFKEQ_clean_linker_1, # of connection points: 2
#     Edge 13, Type (0, 0), BuildingBlock: KIFKEQ_clean_linker_1, # of connection points: 2
#     Edge 14, Type (0, 0), BuildingBlock: KIFKEQ_clean_linker_1, # of connection points: 2
#     Edge 15, Type (0, 0), BuildingBlock: KIFKEQ_clean_linker_1, # of connection points: 2
#     Edge 16, Type (0, 0), BuildingBlock: KIFKEQ_clean_linker_1, # of connection points: 2
#     Edge 17, Type (0, 0), BuildingBlock: KIFKEQ_clean_linker_1, # of connection points: 2
#     Edge 18, Type (0, 0), BuildingBlock: KIFKEQ_clean_linker_1, # of connection points: 2
#     Edge 19, Type (0, 0), BuildingBlock: KIFKEQ_clean_linker_1, # of connection points: 2
#     Edge 20, Type (0, 0), BuildingBlock: KIFKEQ_clean_linker_1, # of connection points: 2
#     Edge 21, Type (0, 0), BuildingBlock: KIFKEQ_clean_linker_1, # of connection points: 2
#     Edge 22, Type (0, 0), BuildingBlock: KIFKEQ_clean_linker_1, # of connection points: 2
#     Edge 23, Type (0, 0), BuildingBlock: KIFKEQ_clean_linker_1, # of connection points: 2
# Relax obj value: 0.120
# Max RMSD: 0.089
# Mean RMSD: 0.089
data_MOF--net-upa--node1-QUQFOY_clean_sbu_1--edge1-KIFKEQ_clean_linker_1
_symmetry_space_group_name_H-M    P1
_symmetry_Int_Tables_number       1
_symmetry_cell_setting            triclinic
loop_
_symmetry_equiv_pos_as_xyz
'x, y, z'
_cell_length_a     30.020369
_cell_length_b     29.958223
_cell_length_c     43.043403
_cell_angle_alpha  90.013769
_cell_angle_beta   89.998234
_cell_angle_gamma 90.025548
loop_
_atom_site_label
_atom_site_type_symbol
_atom_site_fract_x
_atom_site_fract_y
_atom_site_fract_z
_atom_type_partial_charge
O0 O 0.20096 0.20311 0.37697 0.0
Cd1 Cd 0.19655 0.18341 0.33091 0.0
Cd2 Cd 0.10717 0.23685 0.34406 0.0
O3 O 0.14134 0.24534 0.38551 0.0
O4 O 0.25599 0.15551 0.32252 0.0
O5 O 0.23195 0.21523 0.29766 0.0
C6 C 0.26296 0.18599 0.302 0.0
C7 C 0.04392 0.27979 0.33192 0.0
C8 C 0.17754 0.22758 0.39484 0.0
C9 C 0.10896 0.13767 0.32145 0.0
O10 O 0.09101 0.17348 0.33081 0.0
O11 O 0.15102 0.13437 0.31913 0.0
O12 O 0.04504 0.25382 0.35565 0.0
O13 O 0.08059 0.28558 0.31678 0.0
O14 O 0.31219 0.70384 0.87397 0.0
Cd15 Cd 0.33004 0.69663 0.82772 0.0
Cd16 Cd 0.276 0.61207 0.84193 0.0
O17 O 0.26582 0.64751 0.8826 0.0
O18 O 0.35901 0.75515 0.81763 0.0
O19 O 0.29779 0.73166 0.79445 0.0
C20 C 0.32775 0.76227 0.79775 0.0
C21 C 0.22831 0.55412 0.82596 0.0
C22 C 0.28585 0.68259 0.89185 0.0
C23 C 0.3746 0.60741 0.82186 0.0
O24 O 0.33921 0.59063 0.83288 0.0
O25 O 0.37743 0.64903 0.81641 0.0
O26 O 0.24973 0.5524 0.85179 0.0
O27 O 0.23014 0.59099 0.81048 0.0
O28 O 0.80445 0.80923 0.37587 0.0
Cd29 Cd 0.81374 0.82914 0.33009 0.0
Cd30 Cd 0.89634 0.77652 0.34475 0.0
O31 O 0.86061 0.76298 0.38467 0.0
O32 O 0.75471 0.85642 0.31958 0.0
O33 O 0.78235 0.79838 0.29445 0.0
C34 C 0.75039 0.82674 0.29815 0.0
C35 C 0.95254 0.72941 0.32569 0.0
C36 C 0.82512 0.78233 0.39367 0.0
C37 C 0.90204 0.87575 0.32775 0.0
O38 O 0.91858 0.84039 0.33905 0.0
O39 O 0.86098 0.8778 0.32063 0.0
O40 O 0.95524 0.74773 0.35265 0.0
O41 O 0.91557 0.73394 0.31067 0.0
O42 O 0.70074 0.30396 0.87623 0.0
Cd43 Cd 0.68207 0.31157 0.83008 0.0
Cd44 Cd 0.73535 0.39593 0.84454 0.0
O45 O 0.74719 0.36022 0.88483 0.0
O46 O 0.65249 0.25328 0.8201 0.0
O47 O 0.71345 0.27638 0.79643 0.0
C48 C 0.68327 0.24602 0.79989 0.0
C49 C 0.78219 0.45348 0.82688 0.0
C50 C 0.72741 0.32498 0.89402 0.0
C51 C 0.63677 0.40073 0.82557 0.0
O52 O 0.67179 0.41748 0.83717 0.0
O53 O 0.63467 0.35939 0.81904 0.0
O54 O 0.76255 0.45551 0.85339 0.0
O55 O 0.77928 0.41644 0.81165 0.0
O56 O 0.70132 0.30837 0.13937 0.0
Cd57 Cd 0.69196 0.32848 0.18512 0.0
Cd58 Cd 0.60932 0.27579 0.17034 0.0
O59 O 0.64517 0.26206 0.13053 0.0
O60 O 0.75092 0.35605 0.19553 0.0
O61 O 0.72349 0.29805 0.22082 0.0
C62 C 0.75536 0.32652 0.21703 0.0
C63 C 0.55303 0.22881 0.18946 0.0
C64 C 0.6807 0.2814 0.12157 0.0
C65 C 0.6036 0.375 0.18728 0.0
O66 O 0.5871 0.33967 0.17587 0.0
O67 O 0.64461 0.37703 0.19455 0.0
O68 O 0.55041 0.24694 0.16244 0.0
O69 O 0.58996 0.23342 0.20451 0.0
O70 O 0.19487 0.20372 0.64102 0.0
Cd71 Cd 0.17741 0.19581 0.6873 0.0
Cd72 Cd 0.23129 0.11215 0.67245 0.0
O73 O 0.24187 0.14808 0.63207 0.0
O74 O 0.14817 0.25402 0.6978 0.0
O75 O 0.20975 0.23076 0.72059 0.0
C76 C 0.17958 0.2612 0.71755 0.0
C77 C 0.27923 0.05482 0.68896 0.0
C78 C 0.22147 0.18303 0.62302 0.0
C79 C 0.1329 0.10641 0.69225 0.0
O80 O 0.16809 0.08999 0.68068 0.0
O81 O 0.13032 0.14781 0.69854 0.0
O82 O 0.25857 0.05289 0.66283 0.0
O83 O 0.27654 0.09163 0.70446 0.0
O84 O 0.30479 0.70136 0.13826 0.0
Cd85 Cd 0.30887 0.6819 0.18437 0.0
Cd86 Cd 0.39845 0.73531 0.17147 0.0
O87 O 0.36455 0.7435 0.12988 0.0
O88 O 0.24927 0.6543 0.19277 0.0
O89 O 0.27356 0.7141 0.21748 0.0
C90 C 0.24242 0.68496 0.2132 0.0
C91 C 0.46184 0.77821 0.18348 0.0
C92 C 0.3284 0.72572 0.12043 0.0
C93 C 0.39629 0.63623 0.19435 0.0
O94 O 0.41434 0.67205 0.18507 0.0
O95 O 0.35421 0.63284 0.19637 0.0
O96 O 0.46071 0.75193 0.15991 0.0
O97 O 0.42514 0.78431 0.19852 0.0
O98 O 0.80569 0.80384 0.63917 0.0
Cd99 Cd 0.82478 0.81092 0.68526 0.0
Cd100 Cd 0.77146 0.89607 0.6713 0.0
O101 O 0.75996 0.86073 0.63076 0.0
O102 O 0.8541 0.75241 0.69486 0.0
O103 O 0.79354 0.77566 0.71893 0.0
C104 C 0.82351 0.74518 0.71522 0.0
C105 C 0.72484 0.95411 0.68849 0.0
C106 C 0.77933 0.82533 0.62145 0.0
C107 C 0.87027 0.89996 0.69048 0.0
O108 O 0.83507 0.91702 0.67943 0.0
O109 O 0.87255 0.8584 0.69626 0.0
O110 O 0.74517 0.95598 0.66223 0.0
O111 O 0.72697 0.91702 0.7037 0.0
H112 H 0.01838 0.13736 0.32098 0.0
H113 H 0.13218 0.0511 0.30728 0.0
H114 H 0.96904 0.07379 0.31771 0.0
H115 H 0.08208 0.98704 0.30284 0.0
H116 H 0.88507 0.95358 0.29596 0.0
H117 H 0.93639 0.01577 0.28732 0.0
H118 H 0.03802 0.94638 0.33953 0.0
H119 H 0.98774 0.88428 0.34729 0.0
C120 C 0.03293 0.10484 0.31673 0.0
C121 C 0.07942 0.09922 0.31496 0.0
C122 C 0.0044 0.06833 0.31452 0.0
C123 C 0.02153 0.02521 0.31029 0.0
C124 C 0.06788 0.0198 0.30669 0.0
C125 C 0.0966 0.05648 0.30905 0.0
C126 C 0.91842 0.95167 0.30548 0.0
C127 C 0.93215 0.91411 0.32246 0.0
C128 C 0.94784 0.98723 0.30052 0.0
C129 C 0.99143 0.98599 0.31263 0.0
C130 C 0.00512 0.94815 0.32928 0.0
C131 C 0.97595 0.91267 0.33405 0.0
H132 H 0.45877 0.62873 0.80125 0.0
H133 H 0.37661 0.51728 0.82949 0.0
H134 H 0.52232 0.57828 0.79588 0.0
H135 H 0.43983 0.4677 0.82508 0.0
H136 H 0.63166 0.4894 0.83873 0.0
H137 H 0.56888 0.53898 0.83208 0.0
H138 H 0.49258 0.43124 0.79166 0.0
H139 H 0.55563 0.38068 0.79918 0.0
C140 C 0.45418 0.59357 0.80614 0.0
C141 C 0.41277 0.57723 0.81618 0.0
C142 C 0.49057 0.56468 0.80317 0.0
C143 C 0.48621 0.51896 0.81025 0.0
C144 C 0.44432 0.5025 0.81905 0.0
C145 C 0.40809 0.53121 0.82192 0.0
C146 C 0.60165 0.47608 0.82826 0.0
C147 C 0.59854 0.4308 0.81981 0.0
C148 C 0.56572 0.50482 0.82412 0.0
C149 C 0.5257 0.48919 0.81129 0.0
C150 C 0.52286 0.44419 0.80196 0.0
C151 C 0.55894 0.41523 0.80621 0.0
H152 H 0.51837 0.384 0.16693 0.0
H153 H 0.62004 0.45217 0.21999 0.0
H154 H 0.46791 0.44583 0.175 0.0
H155 H 0.56853 0.51408 0.22894 0.0
H156 H 0.48684 0.6363 0.19603 0.0
H157 H 0.53627 0.57281 0.1991 0.0
H158 H 0.42314 0.48539 0.21184 0.0
H159 H 0.37298 0.54938 0.20757 0.0
C160 C 0.5299 0.41208 0.18061 0.0
C161 C 0.57347 0.41329 0.19261 0.0
C162 C 0.50062 0.44739 0.18556 0.0
C163 C 0.51395 0.48483 0.20281 0.0
C164 C 0.55734 0.48586 0.21529 0.0
C165 C 0.58688 0.45047 0.21015 0.0
C166 C 0.47229 0.60364 0.19978 0.0
C167 C 0.42577 0.59782 0.20097 0.0
C168 C 0.50086 0.56718 0.20188 0.0
C169 C 0.48374 0.52391 0.20541 0.0
C170 C 0.43734 0.51828 0.20851 0.0
C171 C 0.40858 0.55491 0.20627 0.0
H172 H 0.05013 0.12665 0.7159 0.0
H173 H 0.12966 0.01699 0.68135 0.0
H174 H 0.98679 0.07602 0.72184 0.0
H175 H 0.06658 0.96729 0.68638 0.0
H176 H 0.87418 0.98953 0.68043 0.0
H177 H 0.93736 0.03883 0.68642 0.0
H178 H 0.01646 0.92888 0.72074 0.0
H179 H 0.95297 0.87864 0.71385 0.0
C180 C 0.05418 0.09185 0.7097 0.0
C181 C 0.0948 0.07608 0.69782 0.0
C182 C 0.01792 0.06285 0.71302 0.0
C183 C 0.02159 0.01761 0.70446 0.0
C184 C 0.06269 1.00169 0.69363 0.0
C185 C 0.09881 0.03049 0.69042 0.0
C186 C 0.9049 0.97565 0.68943 0.0
C187 C 0.90864 0.92987 0.69629 0.0
C188 C 0.94108 1.00422 0.6932 0.0
C189 C 0.982 0.98789 0.70406 0.0
C190 C 0.98547 0.94238 0.71195 0.0
C191 C 0.94913 0.91361 0.70807 0.0
H192 H 0.25691 0.20412 0.42158 0.0
H193 H 0.12754 0.25895 0.4434 0.0
H194 H 0.27461 0.2006 0.47674 0.0
H195 H 0.14459 0.25404 0.49852 0.0
H196 H 0.19093 0.26053 0.59687 0.0
H197 H 0.18671 0.27905 0.54185 0.0
H198 H 0.2531 0.1552 0.51935 0.0
H199 H 0.25863 0.13747 0.57432 0.0
C200 C 0.23236 0.21582 0.43812 0.0
C201 C 0.19063 0.23149 0.42801 0.0
C202 C 0.24241 0.2135 0.46982 0.0
C203 C 0.21088 0.22647 0.49224 0.0
C204 C 0.16997 0.24418 0.48202 0.0
C205 C 0.16006 0.24684 0.45031 0.0
C206 C 0.20532 0.2376 0.58021 0.0
C207 C 0.22482 0.19731 0.59006 0.0
C208 C 0.2026 0.24808 0.54859 0.0
C209 C 0.21902 0.21842 0.52599 0.0
C210 C 0.24048 0.17917 0.53598 0.0
C211 C 0.24351 0.16885 0.56761 0.0
H212 H 0.24901 0.63613 0.94027 0.0
H213 H 0.31579 0.76003 0.91849 0.0
H214 H 0.25426 0.65331 0.99534 0.0
H215 H 0.31975 0.77797 0.97362 0.0
H216 H 0.37858 0.75755 0.07209 0.0
H217 H 0.36194 0.75278 0.01691 0.0
H218 H 0.23214 0.69824 0.03811 0.0
H219 H 0.24942 0.70165 0.09334 0.0
C220 C 0.26388 0.66756 0.94717 0.0
C221 C 0.28238 0.69645 0.9249 0.0
C222 C 0.26675 0.67756 0.97886 0.0
C223 C 0.28786 0.71689 0.98909 0.0
C224 C 0.30412 0.74694 0.96668 0.0
C225 C 0.30155 0.73678 0.93501 0.0
C226 C 0.3462 0.7452 0.06505 0.0
C227 C 0.31556 0.72955 0.08721 0.0
C228 C 0.33652 0.74263 0.0333 0.0
C229 C 0.29578 0.72469 0.0229 0.0
C230 C 0.2642 0.71135 0.04518 0.0
C231 C 0.27401 0.7136 0.07691 0.0
H232 H 0.74495 0.87319 0.57286 0.0
H233 H 0.80537 0.74631 0.5951 0.0
H234 H 0.74996 0.85569 0.51784 0.0
H235 H 0.80888 0.72798 0.54002 0.0
H236 H 0.871 0.74569 0.44235 0.0
H237 H 0.85275 0.75031 0.49723 0.0
H238 H 0.72724 0.81297 0.47449 0.0
H239 H 0.74637 0.80982 0.41952 0.0
C240 C 0.75827 0.84103 0.56606 0.0
C241 C 0.7752 0.8114 0.58845 0.0
C242 C 0.76099 0.83084 0.53439 0.0
C243 C 0.78031 0.79053 0.52427 0.0
C244 C 0.79474 0.75976 0.54682 0.0
C245 C 0.79242 0.77014 0.57848 0.0
C246 C 0.83914 0.75974 0.44897 0.0
C247 C 0.81041 0.77782 0.42647 0.0
C248 C 0.82851 0.76224 0.48057 0.0
C249 C 0.78864 0.7825 0.49051 0.0
C250 C 0.75868 0.79808 0.46783 0.0
C251 C 0.76951 0.79595 0.43623 0.0
H252 H 0.76229 0.37218 0.94277 0.0
H253 H 0.70055 0.24604 0.92009 0.0
H254 H 0.75705 0.35442 0.99772 0.0
H255 H 0.69683 0.22739 0.97511 0.0
H256 H 0.63473 0.24514 0.07278 0.0
H257 H 0.65321 0.24976 0.01794 0.0
H258 H 0.77916 0.31142 0.04099 0.0
H259 H 0.7598 0.30831 0.09591 0.0
C260 C 0.74863 0.34012 0.94945 0.0
C261 C 0.73139 0.31079 0.92697 0.0
C262 C 0.74578 0.32976 0.98109 0.0
C263 C 0.72604 0.28958 0.99107 0.0
C264 C 0.7113 0.25908 0.96842 0.0
C265 C 0.71374 0.26964 0.93679 0.0
C266 C 0.66673 0.25896 0.06623 0.0
C267 C 0.69553 0.2768 0.0888 0.0
C268 C 0.67749 0.26146 0.03465 0.0
C269 C 0.71756 0.28145 0.02481 0.0
C270 C 0.74757 0.29674 0.04757 0.0
C271 C 0.73661 0.29464 0.07914 0.0
H272 H 0.47156 0.21588 0.16289 0.0
H273 H 0.54201 0.20129 0.24982 0.0
H274 H 0.40137 0.20095 0.18924 0.0
H275 H 0.47145 0.18662 0.27626 0.0
H276 H 0.33633 0.13314 0.30996 0.0
H277 H 0.40676 0.13592 0.28166 0.0
H278 H 0.35643 0.24481 0.22612 0.0
H279 H 0.28588 0.24185 0.25422 0.0
C280 C 0.47223 0.20863 0.18754 0.0
C281 C 0.51247 0.2101 0.20428 0.0
C282 C 0.43186 0.20049 0.20269 0.0
C283 C 0.43067 0.19342 0.23494 0.0
C284 C 0.4712 0.19189 0.25137 0.0
C285 C 0.51169 0.20021 0.2362 0.0
C286 C 0.3402 0.15759 0.29162 0.0
C287 C 0.30543 0.18733 0.28436 0.0
C288 C 0.38067 0.15925 0.2755 0.0
C289 C 0.38722 0.19045 0.25156 0.0
C290 C 0.35227 0.2199 0.24412 0.0
C291 C 0.31191 0.21844 0.26038 0.0
H292 H 0.38241 0.83485 0.80362 0.0
H293 H 0.26919 0.786 0.75181 0.0
H294 H 0.37833 0.9057 0.77576 0.0
H295 H 0.26492 0.85698 0.72416 0.0
H296 H 0.28885 0.9736 0.66111 0.0
H297 H 0.30545 0.90261 0.68606 0.0
H298 H 0.32827 0.97095 0.77295 0.0
H299 H 0.31197 0.04229 0.74789 0.0
C300 C 0.35673 0.83913 0.7862 0.0
C301 C 0.32607 0.8047 0.77997 0.0
C302 C 0.35432 0.87985 0.77034 0.0
C303 C 0.32139 0.88705 0.74769 0.0
C304 C 0.29112 0.85236 0.74115 0.0
C305 C 0.29336 0.81173 0.75715 0.0
C306 C 0.29832 0.97371 0.68539 0.0
C307 C 0.29878 0.0137 0.70254 0.0
C308 C 0.30742 0.93288 0.69976 0.0
C309 C 0.31738 0.93096 0.73163 0.0
C310 C 0.32078 0.97123 0.74834 0.0
C311 C 0.31151 0.01218 0.73396 0.0
H312 H 0.74216 0.80115 0.23753 0.0
H313 H 0.66634 0.84852 0.31591 0.0
H314 H 0.67456 0.7983 0.20637 0.0
H315 H 0.59801 0.842 0.28608 0.0
H316 H 0.47858 0.84683 0.22449 0.0
H317 H 0.54959 0.86492 0.24912 0.0
H318 H 0.6127 0.75884 0.19682 0.0
H319 H 0.54324 0.74395 0.17077 0.0
C320 C 0.71078 0.81042 0.24815 0.0
C321 C 0.70942 0.82487 0.27911 0.0
C322 C 0.67172 0.8085 0.2304 0.0
C323 C 0.62997 0.81943 0.2435 0.0
C324 C 0.62909 0.83416 0.27461 0.0
C325 C 0.66835 0.83746 0.29198 0.0
C326 C 0.50805 0.8283 0.21783 0.0
C327 C 0.50527 0.79415 0.19559 0.0
C328 C 0.54882 0.83813 0.23227 0.0
C329 C 0.58752 0.81307 0.22553 0.0
C330 C 0.58453 0.7798 0.2025 0.0
C331 C 0.54425 0.77095 0.18751 0.0
H332 H 0.74089 0.22193 0.75343 0.0
H333 H 0.62761 0.17419 0.80565 0.0
H334 H 0.74361 0.1513 0.72523 0.0
H335 H 0.63011 0.10372 0.77724 0.0
H336 H 0.69309 0.96638 0.74771 0.0
H337 H 0.67866 0.03761 0.77348 0.0
H338 H 0.70201 0.10695 0.68706 0.0
H339 H 0.71677 0.03604 0.66141 0.0
C340 C 0.71638 0.19652 0.75875 0.0
C341 C 0.68412 0.20376 0.78184 0.0
C342 C 0.71773 0.15609 0.74244 0.0
C343 C 0.68697 0.12181 0.74891 0.0
C344 C 0.65449 0.12922 0.77185 0.0
C345 C 0.65298 0.16974 0.78804 0.0
C346 C 0.69407 0.99671 0.73404 0.0
C347 C 0.7064 0.99544 0.70254 0.0
C348 C 0.68587 0.03761 0.74883 0.0
C349 C 0.68995 0.07809 0.73245 0.0
C350 C 0.69954 0.0765 0.70052 0.0
C351 C 0.70757 0.03572 0.68575 0.0
H352 H 0.96246 0.24589 0.34501 0.0
H353 H 0.02724 0.34776 0.29041 0.0
H354 H 0.89301 0.26039 0.31889 0.0
H355 H 0.95623 0.3655 0.2657 0.0
H356 H 0.8394 0.34805 0.19909 0.0
H357 H 0.90774 0.34204 0.22895 0.0
H358 H 0.83119 0.2996 0.309 0.0
H359 H 0.76359 0.3019 0.27783 0.0
C360 C 0.96148 0.27261 0.32806 0.0
C361 C 1.0005 0.29562 0.31975 0.0
C362 C 0.9212 0.28123 0.31303 0.0
C363 C 0.91823 0.31409 0.28973 0.0
C364 C 0.95697 0.33901 0.28276 0.0
C365 C 0.99775 0.32939 0.29725 0.0
C366 C 0.8374 0.33737 0.2231 0.0
C367 C 0.79633 0.32496 0.23607 0.0
C368 C 0.87666 0.33437 0.24049 0.0
C369 C 0.87578 0.32015 0.27171 0.0
C370 C 0.83403 0.30941 0.2849 0.0
C371 C 0.79497 0.31101 0.26713 0.0
H372 H 0.23889 0.2853 0.76296 0.0
H373 H 0.12416 0.33326 0.71244 0.0
H374 H 0.24324 0.35628 0.79063 0.0
H375 H 0.1283 0.40409 0.74033 0.0
H376 H 0.19416 0.54123 0.76745 0.0
H377 H 0.17781 0.46974 0.74259 0.0
H378 H 0.20349 0.40166 0.82917 0.0
H379 H 0.22017 0.47282 0.8539 0.0
C380 C 0.21439 0.31083 0.75792 0.0
C381 C 0.18125 0.30357 0.73544 0.0
C382 C 0.21668 0.35146 0.77393 0.0
C383 C 0.18602 0.3859 0.76775 0.0
C384 C 0.15263 0.37845 0.74547 0.0
C385 C 0.15018 0.33773 0.72959 0.0
C386 C 0.19525 0.51114 0.78137 0.0
C387 C 0.2088 0.5128 0.81261 0.0
C388 C 0.18594 0.47009 0.7671 0.0
C389 C 0.19011 0.42986 0.78377 0.0
C390 C 0.20091 0.4319 0.8155 0.0
C391 C 0.21006 0.47282 0.82975 0.0
H392 H 0.21972 0.74123 0.26079 0.0
H393 H 0.16878 0.63235 0.20536 0.0
H394 H 0.14919 0.74463 0.28889 0.0
H395 H 0.09836 0.63556 0.23365 0.0
H396 H 0.9634 0.70152 0.26539 0.0
H397 H 0.03387 0.68649 0.23894 0.0
H398 H 0.1041 0.70116 0.32589 0.0
H399 H 0.03399 0.71646 0.35224 0.0
C400 C 0.19359 0.71788 0.2547 0.0
C401 C 0.19993 0.68659 0.23081 0.0
C402 C 0.15323 0.7196 0.27095 0.0
C403 C 0.11815 0.69021 0.2636 0.0
C404 C 0.12456 0.65884 0.23975 0.0
C405 C 0.16502 0.65693 0.22363 0.0
C406 C 0.99373 0.70045 0.27899 0.0
C407 C 0.99302 0.71053 0.31089 0.0
C408 C 0.03418 0.69192 0.26382 0.0
C409 C 0.07472 0.69344 0.28022 0.0
C410 C 0.07359 0.70072 0.31246 0.0
C411 C 0.03327 0.70906 0.32761 0.0
H412 H 0.79163 0.53534 0.85387 0.0
H413 H 0.81261 0.4655 0.76729 0.0
H414 H 0.8063 0.60614 0.82806 0.0
H415 H 0.82697 0.53663 0.74136 0.0
H416 H 0.87844 0.67296 0.70875 0.0
H417 H 0.87602 0.60245 0.73711 0.0
H418 H 0.76399 0.65068 0.79033 0.0
H419 H 0.76662 0.72134 0.76217 0.0
C420 C 0.80022 0.53495 0.82943 0.0
C421 C 0.80066 0.49466 0.81262 0.0
C422 C 0.8082 0.57566 0.81457 0.0
C423 C 0.817 0.57719 0.78253 0.0
C424 C 0.82036 0.53667 0.76609 0.0
C425 C 0.81222 0.49584 0.78097 0.0
C426 C 0.8534 0.66864 0.72662 0.0
C427 C 0.82266 0.70285 0.73317 0.0
C428 C 0.85194 0.6281 0.74277 0.0
C429 C 0.81991 0.62088 0.76605 0.0
C430 C 0.78953 0.65534 0.77286 0.0
C431 C 0.79082 0.69577 0.75657 0.0
loop_
_geom_bond_atom_site_label_1
_geom_bond_atom_site_label_2
_geom_bond_distance
_geom_bond_site_symmetry_2
_ccdc_geom_bond_type
O0 Cd1 2.223 . S
O0 C8 1.315 . S
Cd1 O0 2.223 . S
Cd1 O4 2.297 . S
Cd1 O5 2.439 . S
Cd1 O11 2.240 . S
Cd2 O3 2.240 . S
Cd2 O10 2.223 . S
Cd2 O12 2.297 1_455 S
Cd2 O13 2.439 . S
O3 Cd2 2.240 . S
O3 C8 1.279 . S
O4 Cd1 2.297 . S
O4 C6 1.247 . S
O5 Cd1 2.439 . S
O5 C6 1.208 . S
C6 O4 1.247 . S
C6 O5 1.208 . S
C7 O12 1.247 . S
C7 O13 1.208 1_655 S
C8 O0 1.315 . S
C8 O3 1.279 . S
C9 O10 1.315 . S
C9 O11 1.279 . S
O10 Cd2 2.223 . S
O10 C9 1.315 . S
O11 Cd1 2.240 . S
O11 C9 1.279 . S
O12 Cd2 2.297 1_655 S
O12 C7 1.247 . S
O13 Cd2 2.439 . S
O13 C7 1.208 1_455 S
O14 Cd15 2.223 . S
O14 C22 1.315 . S
Cd15 O14 2.223 . S
Cd15 O18 2.297 . S
Cd15 O19 2.439 . S
Cd15 O25 2.240 . S
Cd16 O17 2.240 . S
Cd16 O24 2.223 . S
Cd16 O26 2.297 . S
Cd16 O27 2.439 . S
O17 Cd16 2.240 . S
O17 C22 1.279 . S
O18 Cd15 2.297 . S
O18 C20 1.247 . S
O19 Cd15 2.439 . S
O19 C20 1.208 . S
C20 O18 1.247 . S
C20 O19 1.208 . S
C21 O26 1.247 . S
C21 O27 1.208 . S
C22 O14 1.315 . S
C22 O17 1.279 . S
C23 O24 1.315 . S
C23 O25 1.279 . S
O24 Cd16 2.223 . S
O24 C23 1.315 . S
O25 Cd15 2.240 . S
O25 C23 1.279 . S
O26 Cd16 2.297 . S
O26 C21 1.247 . S
O27 Cd16 2.439 . S
O27 C21 1.208 . S
O28 Cd29 2.223 . S
O28 C36 1.315 . S
Cd29 O28 2.223 . S
Cd29 O32 2.297 . S
Cd29 O33 2.439 . S
Cd29 O39 2.240 . S
Cd30 O31 2.240 . S
Cd30 O38 2.223 . S
Cd30 O40 2.297 1_655 S
Cd30 O41 2.439 . S
O31 Cd30 2.240 . S
O31 C36 1.279 . S
O32 Cd29 2.297 . S
O32 C34 1.247 . S
O33 Cd29 2.439 . S
O33 C34 1.208 . S
C34 O32 1.247 . S
C34 O33 1.208 . S
C35 O40 1.247 . S
C35 O41 1.208 1_455 S
C36 O28 1.315 . S
C36 O31 1.279 . S
C37 O38 1.315 . S
C37 O39 1.279 . S
O38 Cd30 2.223 . S
O38 C37 1.315 . S
O39 Cd29 2.240 . S
O39 C37 1.279 . S
O40 Cd30 2.297 1_455 S
O40 C35 1.247 . S
O41 Cd30 2.439 . S
O41 C35 1.208 1_655 S
O42 Cd43 2.223 . S
O42 C50 1.315 . S
Cd43 O42 2.223 . S
Cd43 O46 2.297 . S
Cd43 O47 2.439 . S
Cd43 O53 2.240 . S
Cd44 O45 2.240 . S
Cd44 O52 2.223 . S
Cd44 O54 2.297 . S
Cd44 O55 2.439 . S
O45 Cd44 2.240 . S
O45 C50 1.279 . S
O46 Cd43 2.297 . S
O46 C48 1.247 . S
O47 Cd43 2.439 . S
O47 C48 1.208 . S
C48 O46 1.247 . S
C48 O47 1.208 . S
C49 O54 1.247 . S
C49 O55 1.208 . S
C50 O42 1.315 . S
C50 O45 1.279 . S
C51 O52 1.315 . S
C51 O53 1.279 . S
O52 Cd44 2.223 . S
O52 C51 1.315 . S
O53 Cd43 2.240 . S
O53 C51 1.279 . S
O54 Cd44 2.297 . S
O54 C49 1.247 . S
O55 Cd44 2.439 . S
O55 C49 1.208 . S
O56 Cd57 2.223 . S
O56 C64 1.315 . S
Cd57 O56 2.223 . S
Cd57 O60 2.297 . S
Cd57 O61 2.439 . S
Cd57 O67 2.240 . S
Cd58 O59 2.240 . S
Cd58 O66 2.223 . S
Cd58 O68 2.297 . S
Cd58 O69 2.439 . S
O59 Cd58 2.240 . S
O59 C64 1.279 . S
O60 Cd57 2.297 . S
O60 C62 1.247 . S
O61 Cd57 2.439 . S
O61 C62 1.208 . S
C62 O60 1.247 . S
C62 O61 1.208 . S
C63 O68 1.247 . S
C63 O69 1.208 . S
C64 O56 1.315 . S
C64 O59 1.279 . S
C65 O66 1.315 . S
C65 O67 1.279 . S
O66 Cd58 2.223 . S
O66 C65 1.315 . S
O67 Cd57 2.240 . S
O67 C65 1.279 . S
O68 Cd58 2.297 . S
O68 C63 1.247 . S
O69 Cd58 2.439 . S
O69 C63 1.208 . S
O70 Cd71 2.223 . S
O70 C78 1.315 . S
Cd71 O70 2.223 . S
Cd71 O74 2.297 . S
Cd71 O75 2.439 . S
Cd71 O81 2.240 . S
Cd72 O73 2.240 . S
Cd72 O80 2.223 . S
Cd72 O82 2.297 1_545 S
Cd72 O83 2.439 . S
O73 Cd72 2.240 . S
O73 C78 1.279 . S
O74 Cd71 2.297 . S
O74 C76 1.247 . S
O75 Cd71 2.439 . S
O75 C76 1.208 . S
C76 O74 1.247 . S
C76 O75 1.208 . S
C77 O82 1.247 . S
C77 O83 1.208 1_565 S
C78 O70 1.315 . S
C78 O73 1.279 . S
C79 O80 1.315 . S
C79 O81 1.279 . S
O80 Cd72 2.223 . S
O80 C79 1.315 . S
O81 Cd71 2.240 . S
O81 C79 1.279 . S
O82 Cd72 2.297 1_565 S
O82 C77 1.247 . S
O83 Cd72 2.439 . S
O83 C77 1.208 1_545 S
O84 Cd85 2.223 . S
O84 C92 1.315 . S
Cd85 O84 2.223 . S
Cd85 O88 2.297 . S
Cd85 O89 2.439 . S
Cd85 O95 2.240 . S
Cd86 O87 2.240 . S
Cd86 O94 2.223 . S
Cd86 O96 2.297 . S
Cd86 O97 2.439 . S
O87 Cd86 2.240 . S
O87 C92 1.279 . S
O88 Cd85 2.297 . S
O88 C90 1.247 . S
O89 Cd85 2.439 . S
O89 C90 1.208 . S
C90 O88 1.247 . S
C90 O89 1.208 . S
C91 O96 1.247 . S
C91 O97 1.208 . S
C92 O84 1.315 . S
C92 O87 1.279 . S
C93 O94 1.315 . S
C93 O95 1.279 . S
O94 Cd86 2.223 . S
O94 C93 1.315 . S
O95 Cd85 2.240 . S
O95 C93 1.279 . S
O96 Cd86 2.297 . S
O96 C91 1.247 . S
O97 Cd86 2.439 . S
O97 C91 1.208 . S
O98 Cd99 2.223 . S
O98 C106 1.315 . S
Cd99 O98 2.223 . S
Cd99 O102 2.297 . S
Cd99 O103 2.439 . S
Cd99 O109 2.240 . S
Cd100 O101 2.240 . S
Cd100 O108 2.223 . S
Cd100 O110 2.297 1_565 S
Cd100 O111 2.439 . S
O101 Cd100 2.240 . S
O101 C106 1.279 . S
O102 Cd99 2.297 . S
O102 C104 1.247 . S
O103 Cd99 2.439 . S
O103 C104 1.208 . S
C104 O102 1.247 . S
C104 O103 1.208 . S
C105 O110 1.247 . S
C105 O111 1.208 1_545 S
C106 O98 1.315 . S
C106 O101 1.279 . S
C107 O108 1.315 . S
C107 O109 1.279 . S
O108 Cd100 2.223 . S
O108 C107 1.315 . S
O109 Cd99 2.240 . S
O109 C107 1.279 . S
O110 Cd100 2.297 1_545 S
O110 C105 1.247 . S
O111 Cd100 2.439 . S
O111 C105 1.208 1_565 S
H112 C120 0.950 . S
H113 C125 0.950 . S
H114 C122 0.950 . S
H115 C124 0.950 . S
H116 C126 0.950 . S
H117 C128 0.950 . S
H118 C130 0.950 . S
H119 C131 0.950 . S
C120 H112 0.950 . S
C120 C121 1.386 . S
C120 C122 1.391 . S
C121 C120 1.386 . S
C121 C125 1.393 . S
C122 H114 0.950 . S
C122 C120 1.391 . S
C122 C123 1.400 . S
C123 C122 1.400 . S
C123 C124 1.398 1_455 S
C123 C129 1.491 1_445 S
C124 H115 0.950 . S
C124 C123 1.398 1_655 S
C124 C125 1.391 1_655 S
C125 H113 0.950 . S
C125 C121 1.393 . S
C125 C124 1.391 1_455 S
C126 H116 0.950 . S
C126 C127 1.386 . S
C126 C128 1.391 . S
C127 C126 1.386 . S
C127 C131 1.393 . S
C128 H117 0.950 . S
C128 C126 1.391 . S
C128 C129 1.400 . S
C129 C123 1.491 1_665 S
C129 C128 1.400 . S
C129 C130 1.398 1_655 S
C130 H118 0.950 . S
C130 C129 1.398 1_455 S
C130 C131 1.391 1_455 S
C131 H119 0.950 . S
C131 C127 1.393 . S
C131 C130 1.391 1_655 S
H132 C140 0.950 . S
H133 C145 0.950 . S
H134 C142 0.950 . S
H135 C144 0.950 . S
H136 C146 0.950 . S
H137 C148 0.950 . S
H138 C150 0.950 . S
H139 C151 0.950 . S
C140 H132 0.950 . S
C140 C141 1.386 . S
C140 C142 1.391 . S
C141 C140 1.386 . S
C141 C145 1.393 . S
C142 H134 0.950 . S
C142 C140 1.391 . S
C142 C143 1.400 . S
C143 C142 1.400 . S
C143 C144 1.398 . S
C143 C149 1.491 . S
C144 H135 0.950 . S
C144 C143 1.398 . S
C144 C145 1.391 . S
C145 H133 0.950 . S
C145 C141 1.393 . S
C145 C144 1.391 . S
C146 H136 0.950 . S
C146 C147 1.386 . S
C146 C148 1.391 . S
C147 C146 1.386 . S
C147 C151 1.393 . S
C148 H137 0.950 . S
C148 C146 1.391 . S
C148 C149 1.400 . S
C149 C143 1.491 . S
C149 C148 1.400 . S
C149 C150 1.398 . S
C150 H138 0.950 . S
C150 C149 1.398 . S
C150 C151 1.391 . S
C151 H139 0.950 . S
C151 C147 1.393 . S
C151 C150 1.391 . S
H152 C160 0.950 . S
H153 C165 0.950 . S
H154 C162 0.950 . S
H155 C164 0.950 . S
H156 C166 0.950 . S
H157 C168 0.950 . S
H158 C170 0.950 . S
H159 C171 0.950 . S
C160 H152 0.950 . S
C160 C161 1.386 . S
C160 C162 1.391 . S
C161 C160 1.386 . S
C161 C165 1.393 . S
C162 H154 0.950 . S
C162 C160 1.391 . S
C162 C163 1.400 . S
C163 C162 1.400 . S
C163 C164 1.398 . S
C163 C169 1.491 . S
C164 H155 0.950 . S
C164 C163 1.398 . S
C164 C165 1.391 . S
C165 H153 0.950 . S
C165 C161 1.393 . S
C165 C164 1.391 . S
C166 H156 0.950 . S
C166 C167 1.386 . S
C166 C168 1.391 . S
C167 C166 1.386 . S
C167 C171 1.393 . S
C168 H157 0.950 . S
C168 C166 1.391 . S
C168 C169 1.400 . S
C169 C163 1.491 . S
C169 C168 1.400 . S
C169 C170 1.398 . S
C170 H158 0.950 . S
C170 C169 1.398 . S
C170 C171 1.391 . S
C171 H159 0.950 . S
C171 C167 1.393 . S
C171 C170 1.391 . S
H172 C180 0.950 . S
H173 C185 0.950 . S
H174 C182 0.950 . S
H175 C184 0.950 1_565 S
H176 C186 0.950 . S
H177 C188 0.950 . S
H178 C190 0.950 1_545 S
H179 C191 0.950 . S
C180 H172 0.950 . S
C180 C181 1.386 . S
C180 C182 1.391 . S
C181 C180 1.386 . S
C181 C185 1.393 . S
C182 H174 0.950 . S
C182 C180 1.391 . S
C182 C183 1.400 . S
C183 C182 1.400 . S
C183 C184 1.398 . S
C183 C189 1.491 1_445 S
C184 H175 0.950 1_545 S
C184 C183 1.398 . S
C184 C185 1.391 . S
C185 H173 0.950 . S
C185 C181 1.393 . S
C185 C184 1.391 . S
C186 H176 0.950 . S
C186 C187 1.386 . S
C186 C188 1.391 . S
C187 C186 1.386 . S
C187 C191 1.393 . S
C188 H177 0.950 . S
C188 C186 1.391 . S
C188 C189 1.400 . S
C189 C183 1.491 1_665 S
C189 C188 1.400 . S
C189 C190 1.398 . S
C190 H178 0.950 1_565 S
C190 C189 1.398 . S
C190 C191 1.391 . S
C191 H179 0.950 . S
C191 C187 1.393 . S
C191 C190 1.391 . S
H192 C200 0.950 . S
H193 C205 0.950 . S
H194 C202 0.950 . S
H195 C204 0.950 . S
H196 C206 0.950 . S
H197 C208 0.950 . S
H198 C210 0.950 . S
H199 C211 0.950 . S
C200 H192 0.950 . S
C200 C201 1.386 . S
C200 C202 1.391 . S
C201 C200 1.386 . S
C201 C205 1.393 . S
C202 H194 0.950 . S
C202 C200 1.391 . S
C202 C203 1.400 . S
C203 C202 1.400 . S
C203 C204 1.398 . S
C203 C209 1.491 . S
C204 H195 0.950 . S
C204 C203 1.398 . S
C204 C205 1.391 . S
C205 H193 0.950 . S
C205 C201 1.393 . S
C205 C204 1.391 . S
C206 H196 0.950 . S
C206 C207 1.386 . S
C206 C208 1.391 . S
C207 C206 1.386 . S
C207 C211 1.393 . S
C208 H197 0.950 . S
C208 C206 1.391 . S
C208 C209 1.400 . S
C209 C203 1.491 . S
C209 C208 1.400 . S
C209 C210 1.398 . S
C210 H198 0.950 . S
C210 C209 1.398 . S
C210 C211 1.391 . S
C211 H199 0.950 . S
C211 C207 1.393 . S
C211 C210 1.391 . S
H212 C220 0.950 . S
H213 C225 0.950 . S
H214 C222 0.950 . S
H215 C224 0.950 . S
H216 C226 0.950 . S
H217 C228 0.950 . S
H218 C230 0.950 . S
H219 C231 0.950 . S
C220 H212 0.950 . S
C220 C221 1.386 . S
C220 C222 1.391 . S
C221 C220 1.386 . S
C221 C225 1.393 . S
C222 H214 0.950 . S
C222 C220 1.391 . S
C222 C223 1.400 . S
C223 C222 1.400 . S
C223 C224 1.398 . S
C223 C229 1.491 1_556 S
C224 H215 0.950 . S
C224 C223 1.398 . S
C224 C225 1.391 . S
C225 H213 0.950 . S
C225 C221 1.393 . S
C225 C224 1.391 . S
C226 H216 0.950 . S
C226 C227 1.386 . S
C226 C228 1.391 . S
C227 C226 1.386 . S
C227 C231 1.393 . S
C228 H217 0.950 . S
C228 C226 1.391 . S
C228 C229 1.400 . S
C229 C223 1.491 1_554 S
C229 C228 1.400 . S
C229 C230 1.398 . S
C230 H218 0.950 . S
C230 C229 1.398 . S
C230 C231 1.391 . S
C231 H219 0.950 . S
C231 C227 1.393 . S
C231 C230 1.391 . S
H232 C240 0.950 . S
H233 C245 0.950 . S
H234 C242 0.950 . S
H235 C244 0.950 . S
H236 C246 0.950 . S
H237 C248 0.950 . S
H238 C250 0.950 . S
H239 C251 0.950 . S
C240 H232 0.950 . S
C240 C241 1.386 . S
C240 C242 1.391 . S
C241 C240 1.386 . S
C241 C245 1.393 . S
C242 H234 0.950 . S
C242 C240 1.391 . S
C242 C243 1.400 . S
C243 C242 1.400 . S
C243 C244 1.398 . S
C243 C249 1.491 . S
C244 H235 0.950 . S
C244 C243 1.398 . S
C244 C245 1.391 . S
C245 H233 0.950 . S
C245 C241 1.393 . S
C245 C244 1.391 . S
C246 H236 0.950 . S
C246 C247 1.386 . S
C246 C248 1.391 . S
C247 C246 1.386 . S
C247 C251 1.393 . S
C248 H237 0.950 . S
C248 C246 1.391 . S
C248 C249 1.400 . S
C249 C243 1.491 . S
C249 C248 1.400 . S
C249 C250 1.398 . S
C250 H238 0.950 . S
C250 C249 1.398 . S
C250 C251 1.391 . S
C251 H239 0.950 . S
C251 C247 1.393 . S
C251 C250 1.391 . S
H252 C260 0.950 . S
H253 C265 0.950 . S
H254 C262 0.950 . S
H255 C264 0.950 . S
H256 C266 0.950 . S
H257 C268 0.950 . S
H258 C270 0.950 . S
H259 C271 0.950 . S
C260 H252 0.950 . S
C260 C261 1.386 . S
C260 C262 1.391 . S
C261 C260 1.386 . S
C261 C265 1.393 . S
C262 H254 0.950 . S
C262 C260 1.391 . S
C262 C263 1.400 . S
C263 C262 1.400 . S
C263 C264 1.398 . S
C263 C269 1.491 1_556 S
C264 H255 0.950 . S
C264 C263 1.398 . S
C264 C265 1.391 . S
C265 H253 0.950 . S
C265 C261 1.393 . S
C265 C264 1.391 . S
C266 H256 0.950 . S
C266 C267 1.386 . S
C266 C268 1.391 . S
C267 C266 1.386 . S
C267 C271 1.393 . S
C268 H257 0.950 . S
C268 C266 1.391 . S
C268 C269 1.400 . S
C269 C263 1.491 1_554 S
C269 C268 1.400 . S
C269 C270 1.398 . S
C270 H258 0.950 . S
C270 C269 1.398 . S
C270 C271 1.391 . S
C271 H259 0.950 . S
C271 C267 1.393 . S
C271 C270 1.391 . S
H272 C280 0.950 . S
H273 C285 0.950 . S
H274 C282 0.950 . S
H275 C284 0.950 . S
H276 C286 0.950 . S
H277 C288 0.950 . S
H278 C290 0.950 . S
H279 C291 0.950 . S
C280 H272 0.950 . S
C280 C281 1.386 . S
C280 C282 1.391 . S
C281 C280 1.386 . S
C281 C285 1.393 . S
C282 H274 0.950 . S
C282 C280 1.391 . S
C282 C283 1.400 . S
C283 C282 1.400 . S
C283 C284 1.398 . S
C283 C289 1.491 . S
C284 H275 0.950 . S
C284 C283 1.398 . S
C284 C285 1.391 . S
C285 H273 0.950 . S
C285 C281 1.393 . S
C285 C284 1.391 . S
C286 H276 0.950 . S
C286 C287 1.386 . S
C286 C288 1.391 . S
C287 C286 1.386 . S
C287 C291 1.393 . S
C288 H277 0.950 . S
C288 C286 1.391 . S
C288 C289 1.400 . S
C289 C283 1.491 . S
C289 C288 1.400 . S
C289 C290 1.398 . S
C290 H278 0.950 . S
C290 C289 1.398 . S
C290 C291 1.391 . S
C291 H279 0.950 . S
C291 C287 1.393 . S
C291 C290 1.391 . S
H292 C300 0.950 . S
H293 C305 0.950 . S
H294 C302 0.950 . S
H295 C304 0.950 . S
H296 C306 0.950 . S
H297 C308 0.950 . S
H298 C310 0.950 . S
H299 C311 0.950 . S
C300 H292 0.950 . S
C300 C301 1.386 . S
C300 C302 1.391 . S
C301 C300 1.386 . S
C301 C305 1.393 . S
C302 H294 0.950 . S
C302 C300 1.391 . S
C302 C303 1.400 . S
C303 C302 1.400 . S
C303 C304 1.398 . S
C303 C309 1.491 . S
C304 H295 0.950 . S
C304 C303 1.398 . S
C304 C305 1.391 . S
C305 H293 0.950 . S
C305 C301 1.393 . S
C305 C304 1.391 . S
C306 H296 0.950 . S
C306 C307 1.386 . S
C306 C308 1.391 . S
C307 C306 1.386 . S
C307 C311 1.393 . S
C308 H297 0.950 . S
C308 C306 1.391 . S
C308 C309 1.400 . S
C309 C303 1.491 . S
C309 C308 1.400 . S
C309 C310 1.398 . S
C310 H298 0.950 . S
C310 C309 1.398 . S
C310 C311 1.391 . S
C311 H299 0.950 . S
C311 C307 1.393 . S
C311 C310 1.391 . S
H312 C320 0.950 . S
H313 C325 0.950 . S
H314 C322 0.950 . S
H315 C324 0.950 . S
H316 C326 0.950 . S
H317 C328 0.950 . S
H318 C330 0.950 . S
H319 C331 0.950 . S
C320 H312 0.950 . S
C320 C321 1.386 . S
C320 C322 1.391 . S
C321 C320 1.386 . S
C321 C325 1.393 . S
C322 H314 0.950 . S
C322 C320 1.391 . S
C322 C323 1.400 . S
C323 C322 1.400 . S
C323 C324 1.398 . S
C323 C329 1.491 . S
C324 H315 0.950 . S
C324 C323 1.398 . S
C324 C325 1.391 . S
C325 H313 0.950 . S
C325 C321 1.393 . S
C325 C324 1.391 . S
C326 H316 0.950 . S
C326 C327 1.386 . S
C326 C328 1.391 . S
C327 C326 1.386 . S
C327 C331 1.393 . S
C328 H317 0.950 . S
C328 C326 1.391 . S
C328 C329 1.400 . S
C329 C323 1.491 . S
C329 C328 1.400 . S
C329 C330 1.398 . S
C330 H318 0.950 . S
C330 C329 1.398 . S
C330 C331 1.391 . S
C331 H319 0.950 . S
C331 C327 1.393 . S
C331 C330 1.391 . S
H332 C340 0.950 . S
H333 C345 0.950 . S
H334 C342 0.950 . S
H335 C344 0.950 . S
H336 C346 0.950 . S
H337 C348 0.950 . S
H338 C350 0.950 . S
H339 C351 0.950 . S
C340 H332 0.950 . S
C340 C341 1.386 . S
C340 C342 1.391 . S
C341 C340 1.386 . S
C341 C345 1.393 . S
C342 H334 0.950 . S
C342 C340 1.391 . S
C342 C343 1.400 . S
C343 C342 1.400 . S
C343 C344 1.398 . S
C343 C349 1.491 . S
C344 H335 0.950 . S
C344 C343 1.398 . S
C344 C345 1.391 . S
C345 H333 0.950 . S
C345 C341 1.393 . S
C345 C344 1.391 . S
C346 H336 0.950 . S
C346 C347 1.386 . S
C346 C348 1.391 . S
C347 C346 1.386 . S
C347 C351 1.393 . S
C348 H337 0.950 . S
C348 C346 1.391 . S
C348 C349 1.400 . S
C349 C343 1.491 . S
C349 C348 1.400 . S
C349 C350 1.398 . S
C350 H338 0.950 . S
C350 C349 1.398 . S
C350 C351 1.391 . S
C351 H339 0.950 . S
C351 C347 1.393 . S
C351 C350 1.391 . S
H352 C360 0.950 . S
H353 C365 0.950 . S
H354 C362 0.950 . S
H355 C364 0.950 . S
H356 C366 0.950 . S
H357 C368 0.950 . S
H358 C370 0.950 . S
H359 C371 0.950 . S
C360 H352 0.950 . S
C360 C361 1.386 . S
C360 C362 1.391 . S
C361 C360 1.386 . S
C361 C365 1.393 . S
C362 H354 0.950 . S
C362 C360 1.391 . S
C362 C363 1.400 . S
C363 C362 1.400 . S
C363 C364 1.398 . S
C363 C369 1.491 . S
C364 H355 0.950 . S
C364 C363 1.398 . S
C364 C365 1.391 . S
C365 H353 0.950 . S
C365 C361 1.393 . S
C365 C364 1.391 . S
C366 H356 0.950 . S
C366 C367 1.386 . S
C366 C368 1.391 . S
C367 C366 1.386 . S
C367 C371 1.393 . S
C368 H357 0.950 . S
C368 C366 1.391 . S
C368 C369 1.400 . S
C369 C363 1.491 . S
C369 C368 1.400 . S
C369 C370 1.398 . S
C370 H358 0.950 . S
C370 C369 1.398 . S
C370 C371 1.391 . S
C371 H359 0.950 . S
C371 C367 1.393 . S
C371 C370 1.391 . S
H372 C380 0.950 . S
H373 C385 0.950 . S
H374 C382 0.950 . S
H375 C384 0.950 . S
H376 C386 0.950 . S
H377 C388 0.950 . S
H378 C390 0.950 . S
H379 C391 0.950 . S
C380 H372 0.950 . S
C380 C381 1.386 . S
C380 C382 1.391 . S
C381 C380 1.386 . S
C381 C385 1.393 . S
C382 H374 0.950 . S
C382 C380 1.391 . S
C382 C383 1.400 . S
C383 C382 1.400 . S
C383 C384 1.398 . S
C383 C389 1.491 . S
C384 H375 0.950 . S
C384 C383 1.398 . S
C384 C385 1.391 . S
C385 H373 0.950 . S
C385 C381 1.393 . S
C385 C384 1.391 . S
C386 H376 0.950 . S
C386 C387 1.386 . S
C386 C388 1.391 . S
C387 C386 1.386 . S
C387 C391 1.393 . S
C388 H377 0.950 . S
C388 C386 1.391 . S
C388 C389 1.400 . S
C389 C383 1.491 . S
C389 C388 1.400 . S
C389 C390 1.398 . S
C390 H378 0.950 . S
C390 C389 1.398 . S
C390 C391 1.391 . S
C391 H379 0.950 . S
C391 C387 1.393 . S
C391 C390 1.391 . S
H392 C400 0.950 . S
H393 C405 0.950 . S
H394 C402 0.950 . S
H395 C404 0.950 . S
H396 C406 0.950 . S
H397 C408 0.950 . S
H398 C410 0.950 . S
H399 C411 0.950 . S
C400 H392 0.950 . S
C400 C401 1.386 . S
C400 C402 1.391 . S
C401 C400 1.386 . S
C401 C405 1.393 . S
C402 H394 0.950 . S
C402 C400 1.391 . S
C402 C403 1.400 . S
C403 C402 1.400 . S
C403 C404 1.398 . S
C403 C409 1.491 . S
C404 H395 0.950 . S
C404 C403 1.398 . S
C404 C405 1.391 . S
C405 H393 0.950 . S
C405 C401 1.393 . S
C405 C404 1.391 . S
C406 H396 0.950 . S
C406 C407 1.386 . S
C406 C408 1.391 . S
C407 C406 1.386 . S
C407 C411 1.393 . S
C408 H397 0.950 . S
C408 C406 1.391 . S
C408 C409 1.400 . S
C409 C403 1.491 . S
C409 C408 1.400 . S
C409 C410 1.398 . S
C410 H398 0.950 . S
C410 C409 1.398 . S
C410 C411 1.391 . S
C411 H399 0.950 . S
C411 C407 1.393 . S
C411 C410 1.391 . S
H412 C420 0.950 . S
H413 C425 0.950 . S
H414 C422 0.950 . S
H415 C424 0.950 . S
H416 C426 0.950 . S
H417 C428 0.950 . S
H418 C430 0.950 . S
H419 C431 0.950 . S
C420 H412 0.950 . S
C420 C421 1.386 . S
C420 C422 1.391 . S
C421 C420 1.386 . S
C421 C425 1.393 . S
C422 H414 0.950 . S
C422 C420 1.391 . S
C422 C423 1.400 . S
C423 C422 1.400 . S
C423 C424 1.398 . S
C423 C429 1.491 . S
C424 H415 0.950 . S
C424 C423 1.398 . S
C424 C425 1.391 . S
C425 H413 0.950 . S
C425 C421 1.393 . S
C425 C424 1.391 . S
C426 H416 0.950 . S
C426 C427 1.386 . S
C426 C428 1.391 . S
C427 C426 1.386 . S
C427 C431 1.393 . S
C428 H417 0.950 . S
C428 C426 1.391 . S
C428 C429 1.400 . S
C429 C423 1.491 . S
C429 C428 1.400 . S
C429 C430 1.398 . S
C430 H418 0.950 . S
C430 C429 1.398 . S
C430 C431 1.391 . S
C431 H419 0.950 . S
C431 C427 1.393 . S
C431 C430 1.391 . S
C121 C9 0.821 . S
C127 C37 0.820 . S
C141 C23 0.839 . S
C147 C51 0.837 . S
C161 C65 0.832 . S
C167 C93 0.835 . S
C181 C79 0.844 . S
C187 C107 0.843 . S
C201 C8 1.377 . S
C207 C78 1.376 . S
C221 C22 1.363 . S
C227 C92 1.365 . S
C241 C106 1.363 . S
C247 C36 1.366 . S
C261 C50 1.370 . S
C267 C64 1.373 . S
C281 C63 1.769 . S
C287 C6 1.726 . S
C301 C20 1.717 . S
C307 C77 1.779 . S
C321 C34 1.718 . S
C327 C91 1.764 . S
C341 C48 1.728 . S
C347 C105 1.771 . S
C361 C7 1.765 . S
C367 C62 1.720 . S
C381 C76 1.731 . S
C387 C21 1.783 . S
C401 C90 1.733 . S
C407 C35 1.779 . S
C421 C49 1.783 . S
C427 C104 1.727 . S
