# Generated by pormake.
# Topology smc, (6)-cn, num edge types: 1
# Building blocks:
#     Node 0, Type 0, BuildingBlock: CUWYAW_clean_sbu_0, # of connection points: 6
#     Node 1, Type 0, BuildingBlock: CUWYAW_clean_sbu_0, # of connection points: 6
#     Node 2, Type 0, BuildingBlock: CUWYAW_clean_sbu_0, # of connection points: 6
#     Node 3, Type 0, BuildingBlock: CUWYAW_clean_sbu_0, # of connection points: 6
#     Node 4, Type 0, BuildingBlock: CUWYAW_clean_sbu_0, # of connection points: 6
#     Node 5, Type 0, BuildingBlock: CUWYAW_clean_sbu_0, # of connection points: 6
#     Node 6, Type 0, BuildingBlock: CUWYAW_clean_sbu_0, # of connection points: 6
#     Node 7, Type 0, BuildingBlock: CUWYAW_clean_sbu_0, # of connection points: 6
#     Node 8, Type 0, BuildingBlock: CUWYAW_clean_sbu_0, # of connection points: 6
#     Edge 9, Type (0, 0), BuildingBlock: UVAHIK_clean_linker_0, # of connection points: 2
#     Edge 10, Type (0, 0), BuildingBlock: UVAHIK_clean_linker_0, # of connection points: 2
#     Edge 11, Type (0, 0), BuildingBlock: UVAHIK_clean_linker_0, # of connection points: 2
#     Edge 12, Type (0, 0), BuildingBlock: UVAHIK_clean_linker_0, # of connection points: 2
#     Edge 13, Type (0, 0), BuildingBlock: UVAHIK_clean_linker_0, # of connection points: 2
#     Edge 14, Type (0, 0), BuildingBlock: UVAHIK_clean_linker_0, # of connection points: 2
#     Edge 15, Type (0, 0), BuildingBlock: UVAHIK_clean_linker_0, # of connection points: 2
#     Edge 16, Type (0, 0), BuildingBlock: UVAHIK_clean_linker_0, # of connection points: 2
#     Edge 17, Type (0, 0), BuildingBlock: UVAHIK_clean_linker_0, # of connection points: 2
#     Edge 18, Type (0, 0), BuildingBlock: UVAHIK_clean_linker_0, # of connection points: 2
#     Edge 19, Type (0, 0), BuildingBlock: UVAHIK_clean_linker_0, # of connection points: 2
#     Edge 20, Type (0, 0), BuildingBlock: UVAHIK_clean_linker_0, # of connection points: 2
#     Edge 21, Type (0, 0), BuildingBlock: UVAHIK_clean_linker_0, # of connection points: 2
#     Edge 22, Type (0, 0), BuildingBlock: UVAHIK_clean_linker_0, # of connection points: 2
#     Edge 23, Type (0, 0), BuildingBlock: UVAHIK_clean_linker_0, # of connection points: 2
#     Edge 24, Type (0, 0), BuildingBlock: UVAHIK_clean_linker_0, # of connection points: 2
#     Edge 25, Type (0, 0), BuildingBlock: UVAHIK_clean_linker_0, # of connection points: 2
#     Edge 26, Type (0, 0), BuildingBlock: UVAHIK_clean_linker_0, # of connection points: 2
#     Edge 27, Type (0, 0), BuildingBlock: UVAHIK_clean_linker_0, # of connection points: 2
#     Edge 28, Type (0, 0), BuildingBlock: UVAHIK_clean_linker_0, # of connection points: 2
#     Edge 29, Type (0, 0), BuildingBlock: UVAHIK_clean_linker_0, # of connection points: 2
#     Edge 30, Type (0, 0), BuildingBlock: UVAHIK_clean_linker_0, # of connection points: 2
#     Edge 31, Type (0, 0), BuildingBlock: UVAHIK_clean_linker_0, # of connection points: 2
#     Edge 32, Type (0, 0), BuildingBlock: UVAHIK_clean_linker_0, # of connection points: 2
#     Edge 33, Type (0, 0), BuildingBlock: UVAHIK_clean_linker_0, # of connection points: 2
#     Edge 34, Type (0, 0), BuildingBlock: UVAHIK_clean_linker_0, # of connection points: 2
#     Edge 35, Type (0, 0), BuildingBlock: UVAHIK_clean_linker_0, # of connection points: 2
# Relax obj value: 0.184
# Max RMSD: 0.302
# Mean RMSD: 0.302
data_MOF--net-smc--node1-CUWYAW_clean_sbu_0--edge1-UVAHIK_clean_linker_0
_symmetry_space_group_name_H-M    P1
_symmetry_Int_Tables_number       1
_symmetry_cell_setting            triclinic
loop_
_symmetry_equiv_pos_as_xyz
'x, y, z'
_cell_length_a     48.550314
_cell_length_b     48.553993
_cell_length_c     52.054641
_cell_angle_alpha  90.137605
_cell_angle_beta   89.960545
_cell_angle_gamma 120.0842
loop_
_atom_site_label
_atom_site_type_symbol
_atom_site_fract_x
_atom_site_fract_y
_atom_site_fract_z
_atom_type_partial_charge
C0 C 0.94616 0.35198 1.01185 0.0
Eu1 Eu 0.98926 0.41146 0.02021 0.0
C2 C 0.91076 0.3328 1.01365 0.0
C3 C 0.89595 0.31893 0.03714 0.0
C4 C 0.86284 0.29977 0.03882 0.0
C5 C 0.84347 0.29371 0.01704 0.0
C6 C 0.85818 0.30813 0.99364 0.0
C7 C 0.89142 0.32735 0.99195 0.0
C8 C 0.01369 0.4331 0.06787 0.0
C9 C 0.95985 0.4588 0.02575 0.0
C10 C 0.07048 0.5442 1.01425 0.0
Eu11 Eu 0.0335 0.48233 1.0133 0.0
C12 C 0.10454 0.56939 1.01303 0.0
C13 C 0.11558 0.58984 0.99176 0.0
C14 C 0.14594 0.61687 0.99186 0.0
C15 C 0.16608 0.62428 1.01333 0.0
C16 C 0.1558 0.60267 0.03398 0.0
C17 C 0.12535 0.57558 0.03387 0.0
C18 C 0.01183 0.44644 0.96902 0.0
C19 C 0.06623 0.44113 0.01568 0.0
O20 O 0.95871 0.37307 0.99352 0.0
O21 O 0.96161 0.36249 0.03343 0.0
O22 O 0.99145 0.40463 0.06238 0.0
O23 O 0.02084 0.45093 0.04802 0.0
O24 O 0.95366 0.42894 0.02469 0.0
O25 O 0.98891 0.4831 0.0232 0.0
O26 O 0.06051 0.52651 0.03485 0.0
O27 O 0.05723 0.52808 0.99329 0.0
O28 O 0.04118 0.46859 0.97274 0.0
O29 O 0.99587 0.44438 0.98879 0.0
O30 O 0.06885 0.46837 0.02218 0.0
O31 O 0.03807 0.41594 1.00966 0.0
H32 H 0.90996 0.32257 0.05433 0.0
H33 H 0.85241 0.28963 0.05727 0.0
H34 H 0.8441 0.30384 0.9764 0.0
H35 H 0.90197 0.33757 0.97354 0.0
H36 H 0.1001 0.5858 0.97548 0.0
H37 H 0.15274 0.63298 0.97571 0.0
H38 H 0.17084 0.60727 0.05065 0.0
H39 H 0.11773 0.56023 0.05056 0.0
C40 C 0.67315 0.61314 0.02168 0.0
Eu41 Eu 0.61201 0.59224 0.02286 0.0
C42 C 0.69304 0.59762 0.02124 0.0
C43 C 0.70915 0.59744 0.04362 0.0
C44 C 0.72825 0.58338 0.04373 0.0
C45 C 0.73206 0.5692 0.0214 0.0
C46 C 0.71543 0.56876 0.99909 0.0
C47 C 0.69622 0.58287 0.99898 0.0
C48 C 0.58024 0.58789 0.0673 0.0
C49 C 0.56579 0.51612 0.02421 0.0
C50 C 0.48333 0.54382 0.01508 0.0
Eu51 Eu 0.54489 0.56789 1.01226 0.0
C52 C 0.458 0.55237 1.0127 0.0
C53 C 0.44595 0.55375 0.98849 0.0
C54 C 0.41811 0.55543 0.98646 0.0
C55 C 0.4014 0.55545 1.00855 0.0
C56 C 0.41491 0.55682 0.03276 0.0
C57 C 0.44285 0.55518 0.03481 0.0
C58 C 0.58104 0.57955 0.96872 0.0
C59 C 0.58482 0.64192 1.0109 0.0
O60 O 0.65651 0.61085 1.00117 0.0
O61 O 0.65729 0.60988 0.04281 0.0
O62 O 0.5996 0.57703 0.06422 0.0
O63 O 0.57586 0.59727 0.04567 0.0
O64 O 0.59565 0.53935 0.02294 0.0
O65 O 0.54215 0.52181 0.02274 0.0
O66 O 0.50225 0.55464 0.03504 0.0
O67 O 0.49809 0.54328 0.99419 0.0
O68 O 0.55762 0.58511 0.97097 0.0
O69 O 0.58321 0.56647 0.98905 0.0
O70 O 0.55638 0.61715 1.00898 0.0
O71 O 0.61038 0.63899 0.01539 0.0
H72 H 0.70709 0.60834 0.06115 0.0
H73 H 0.74008 0.58363 0.06143 0.0
H74 H 0.71786 0.55823 0.98149 0.0
H75 H 0.68414 0.58242 0.98138 0.0
H76 H 0.45708 0.55192 0.97103 0.0
H77 H 0.40879 0.55513 0.9675 0.0
H78 H 0.40276 0.55688 0.0502 0.0
H79 H 0.45157 0.55428 0.05376 0.0
C80 C 0.41509 0.07761 1.0069 0.0
Eu81 Eu 0.42852 0.03374 0.01924 0.0
C82 C 0.43021 0.11248 1.01111 0.0
C83 C 0.4291 0.12562 0.03496 0.0
C84 C 0.44322 0.15874 0.03796 0.0
C85 C 0.45867 0.17934 0.01718 0.0
C86 C 0.46058 0.16607 0.99367 0.0
C87 C 0.44639 0.13317 0.99064 0.0
C88 C 0.42937 0.01355 0.06743 0.0
C89 C 0.50594 0.06403 0.02639 0.0
C90 C 0.47754 0.95122 1.01181 0.0
Eu91 Eu 0.45863 0.99308 1.01267 0.0
C92 C 0.46839 0.91715 1.01037 0.0
C93 C 0.46724 0.90314 0.98644 0.0
C94 C 0.46615 0.87387 0.98502 0.0
C95 C 0.46658 0.85803 1.00748 0.0
C96 C 0.46508 0.87075 0.03141 0.0
C97 C 0.4661 0.90007 0.03284 0.0
C98 C 0.45166 0.02146 0.96901 0.0
C99 C 0.38229 0.9576 1.01257 0.0
O100 O 0.43102 0.06873 0.99212 0.0
O101 O 0.4019 0.05846 0.02648 0.0
O102 O 0.42089 0.03402 0.06133 0.0
O103 O 0.44 0.00583 0.04776 0.0
O104 O 0.48253 0.0691 0.01971 0.0
O105 O 0.5009 0.03511 0.02921 0.0
O106 O 0.47185 0.96203 0.03298 0.0
O107 O 0.47429 0.96474 0.99127 0.0
O108 O 0.47785 0.02178 0.97483 0.0
O109 O 0.43185 0.00732 0.98659 0.0
O110 O 0.40789 0.95502 1.01415 0.0
O111 O 0.38335 0.98554 1.01224 0.0
H112 H 0.41705 0.11039 0.0512 0.0
H113 H 0.44119 0.1681 0.05631 0.0
H114 H 0.4729 0.18116 0.97742 0.0
H115 H 0.44794 0.12386 0.97209 0.0
H116 H 0.46904 0.91561 0.96874 0.0
H117 H 0.46663 0.86443 0.96626 0.0
H118 H 0.46547 0.85927 0.04911 0.0
H119 H 0.46709 0.91024 0.0516 0.0
C120 C 0.61602 0.68386 0.35817 0.0
Eu121 Eu 0.65648 0.74495 0.35819 0.0
C122 C 0.58055 0.6642 0.35781 0.0
C123 C 0.56378 0.64987 0.38048 0.0
C124 C 0.53052 0.63091 0.38035 0.0
C125 C 0.51301 0.62549 0.35748 0.0
C126 C 0.52975 0.64031 0.33485 0.0
C127 C 0.56306 0.65935 0.33499 0.0
C128 C 0.68637 0.78153 0.40043 0.0
C129 C 0.62774 0.79288 0.35686 0.0
C130 C 0.74158 0.87829 0.34778 0.0
Eu131 Eu 0.70137 0.8172 0.34489 0.0
C132 C 0.77557 0.90367 0.34681 0.0
C133 C 0.78676 0.92349 0.32514 0.0
C134 C 0.81659 0.95117 0.32533 0.0
C135 C 0.83614 0.95993 0.34727 0.0
C136 C 0.82583 0.93892 0.36836 0.0
C137 C 0.7958 0.91118 0.3682 0.0
C138 C 0.67091 0.78179 0.30118 0.0
C139 C 0.73266 0.77304 0.34237 0.0
O140 O 0.62987 0.70006 0.33746 0.0
O141 O 0.6293 0.70012 0.37909 0.0
O142 O 0.65629 0.76044 0.39902 0.0
O143 O 0.69835 0.78472 0.37803 0.0
O144 O 0.62136 0.76305 0.35454 0.0
O145 O 0.65707 0.81718 0.35737 0.0
O146 O 0.73076 0.85983 0.36802 0.0
O147 O 0.72857 0.86327 0.32636 0.0
O148 O 0.69111 0.81214 0.30087 0.0
O149 O 0.66829 0.77375 0.32434 0.0
O150 O 0.73664 0.80171 0.33957 0.0
O151 O 0.70497 0.74774 0.3496 0.0
H152 H 0.5764 0.6532 0.39841 0.0
H153 H 0.51852 0.62048 0.39827 0.0
H154 H 0.51722 0.63657 0.31682 0.0
H155 H 0.57508 0.67 0.31711 0.0
H156 H 0.77169 0.91853 0.30842 0.0
H157 H 0.82328 0.96671 0.3088 0.0
H158 H 0.84045 0.94447 0.38541 0.0
H159 H 0.78797 0.89641 0.38521 0.0
C160 C 0.3375 0.9424 0.34254 0.0
Eu161 Eu 0.27944 0.9283 0.35371 0.0
C162 C 0.35727 0.92709 0.3463 0.0
C163 C 0.37164 0.92792 0.37001 0.0
C164 C 0.39096 0.91407 0.37256 0.0
C165 C 0.39644 0.89918 0.35147 0.0
C166 C 0.38123 0.89763 0.32806 0.0
C167 C 0.36212 0.91148 0.3255 0.0
C168 C 0.25649 0.92586 0.40156 0.0
C169 C 0.23236 0.85027 0.35935 0.0
C170 C 0.14905 0.87925 0.33835 0.0
Eu171 Eu 0.20917 0.89727 0.34523 0.0
C172 C 0.12295 0.88654 0.34046 0.0
C173 C 0.10236 0.87912 0.31946 0.0
C174 C 0.07467 0.88101 0.32142 0.0
C175 C 0.06676 0.89057 0.34451 0.0
C176 C 0.08845 0.89979 0.3652 0.0
C177 C 0.11623 0.89767 0.36324 0.0
C178 C 0.24666 0.90601 0.30269 0.0
C179 C 0.24772 0.97265 0.35242 0.0
O180 O 0.3134 0.92766 0.32684 0.0
O181 O 0.33055 0.95425 0.36254 0.0
O182 O 0.28583 0.9352 0.39604 0.0
O183 O 0.23881 0.91547 0.38144 0.0
O184 O 0.2611 0.87423 0.35371 0.0
O185 O 0.20794 0.8546 0.36122 0.0
O186 O 0.16006 0.87312 0.35919 0.0
O187 O 0.17105 0.89457 0.32112 0.0
O188 O 0.2216 0.87907 0.30831 0.0
O189 O 0.2511 0.92559 0.32021 0.0
O190 O 0.22082 0.94595 0.35574 0.0
O191 O 0.2749 0.97297 0.34776 0.0
H192 H 0.36835 0.9396 0.3865 0.0
H193 H 0.40233 0.91589 0.39087 0.0
H194 H 0.3842 0.88578 0.31153 0.0
H195 H 0.3513 0.91018 0.307 0.0
H196 H 0.10695 0.87037 0.30173 0.0
H197 H 0.05863 0.87317 0.30515 0.0
H198 H 0.08361 0.90786 0.38314 0.0
H199 H 0.13186 0.90378 0.37971 0.0
C200 C 0.07587 0.40996 0.35302 0.0
Eu201 Eu 0.09727 0.37054 0.35571 0.0
C202 C 0.09162 0.44531 0.3535 0.0
C203 C 0.09278 0.46126 0.37641 0.0
C204 C 0.10754 0.49449 0.37712 0.0
C205 C 0.12136 0.51274 0.35489 0.0
C206 C 0.12067 0.49682 0.33205 0.0
C207 C 0.10594 0.46354 0.33135 0.0
C208 C 0.10422 0.34368 0.39927 0.0
C209 C 0.17365 0.39921 0.35789 0.0
C210 C 0.14501 0.28514 0.35262 0.0
Eu211 Eu 0.12565 0.32584 0.34558 0.0
C212 C 0.13667 0.25172 0.3481 0.0
C213 C 0.1372 0.24043 0.32333 0.0
C214 C 0.13546 0.21099 0.32005 0.0
C215 C 0.13341 0.19237 0.34145 0.0
C216 C 0.13023 0.20256 0.36602 0.0
C217 C 0.13192 0.23197 0.36928 0.0
C218 C 0.1221 0.3557 0.30103 0.0
C219 C 0.05068 0.29431 0.33965 0.0
O220 O 0.08065 0.39686 0.33274 0.0
O221 O 0.07661 0.3962 0.37441 0.0
O222 O 0.11283 0.37358 0.39672 0.0
O223 O 0.09533 0.32997 0.37745 0.0
O224 O 0.15074 0.40537 0.35176 0.0
O225 O 0.16762 0.36985 0.3616 0.0
O226 O 0.12806 0.29027 0.36948 0.0
O227 O 0.15348 0.30444 0.33292 0.0
O228 O 0.13174 0.33505 0.30107 0.0
O229 O 0.11655 0.35846 0.324 0.0
O230 O 0.07571 0.29097 0.33652 0.0
O231 O 0.05244 0.32148 0.34742 0.0
H232 H 0.08221 0.44803 0.39387 0.0
H233 H 0.10813 0.5059 0.39517 0.0
H234 H 0.13083 0.51002 0.31452 0.0
H235 H 0.10561 0.45213 0.31335 0.0
H236 H 0.1405 0.25492 0.30655 0.0
H237 H 0.13726 0.20349 0.30081 0.0
H238 H 0.12872 0.18896 0.38295 0.0
H239 H 0.13137 0.24007 0.38859 0.0
C240 C 0.28168 0.02007 0.67605 0.0
Eu241 Eu 0.32468 0.07858 0.68725 0.0
C242 C 0.24669 0.99962 0.6798 0.0
C243 C 0.2332 0.98648 0.70381 0.0
C244 C 0.20005 0.96719 0.70649 0.0
C245 C 0.1796 0.96065 0.68528 0.0
C246 C 0.19323 0.97417 0.66142 0.0
C247 C 0.22623 0.99322 0.65872 0.0
C248 C 0.34592 0.1018 0.73482 0.0
C249 C 0.29234 0.12453 0.6938 0.0
C250 C 0.40637 0.21035 0.68104 0.0
Eu251 Eu 0.36295 0.14995 0.67928 0.0
C252 C 0.44065 0.23471 0.67818 0.0
C253 C 0.45091 0.25468 0.65657 0.0
C254 C 0.48066 0.28266 0.65644 0.0
C255 C 0.50086 0.29148 0.67801 0.0
C256 C 0.49174 0.27003 0.69869 0.0
C257 C 0.462 0.24203 0.69881 0.0
C258 C 0.33444 0.11307 0.63618 0.0
C259 C 0.40133 0.11215 0.67728 0.0
O260 O 0.29038 0.04411 0.66051 0.0
O261 O 0.30054 0.02752 0.69604 0.0
O262 O 0.32589 0.07237 0.72951 0.0
O263 O 0.35211 0.11927 0.71471 0.0
O264 O 0.28801 0.09594 0.68804 0.0
O265 O 0.32089 0.14928 0.69577 0.0
O266 O 0.39796 0.19119 0.70074 0.0
O267 O 0.38927 0.19662 0.66056 0.0
O268 O 0.33486 0.13963 0.64103 0.0
O269 O 0.34894 0.10814 0.65397 0.0
O270 O 0.40097 0.13879 0.6754 0.0
O271 O 0.37478 0.08426 0.68135 0.0
H272 H 0.24818 0.99105 0.72052 0.0
H273 H 0.19042 0.95754 0.72524 0.0
H274 H 0.17844 0.96942 0.64457 0.0
H275 H 0.23582 1.00289 0.63995 0.0
H276 H 0.43509 0.24983 0.6404 0.0
H277 H 0.4867 0.2985 0.64016 0.0
H278 H 0.50696 0.27562 0.71538 0.0
H279 H 0.45505 0.22716 0.71577 0.0
C280 C 0.00962 0.2822 0.6899 0.0
Eu281 Eu 0.94861 0.26109 0.69036 0.0
C282 C 0.02897 0.26621 0.68984 0.0
C283 C 0.04431 0.2652 0.7124 0.0
C284 C 0.06283 0.25052 0.71256 0.0
C285 C 0.06672 0.23659 0.69011 0.0
C286 C 0.05083 0.237 0.66764 0.0
C287 C 0.03224 0.25166 0.66749 0.0
C288 C 0.91382 0.25323 0.73353 0.0
C289 C 0.90075 0.18448 0.68871 0.0
C290 C 0.81676 0.21474 0.68212 0.0
Eu291 Eu 0.87733 0.23441 0.6781 0.0
C292 C 0.79274 0.22495 0.68045 0.0
C293 C 0.77533 0.21991 0.65759 0.0
C294 C 0.74753 0.22179 0.65751 0.0
C295 C 0.73662 0.2285 0.6803 0.0
C296 C 0.75538 0.23631 0.70254 0.0
C297 C 0.78331 0.23466 0.70262 0.0
C298 C 0.91122 0.23959 0.63347 0.0
C299 C 0.921 0.30958 0.67613 0.0
O300 O 0.99308 0.27919 0.66921 0.0
O301 O 0.99378 0.27984 0.71091 0.0
O302 O 0.93348 0.24271 0.7303 0.0
O303 O 0.90972 0.26318 0.71192 0.0
O304 O 0.93053 0.20787 0.68589 0.0
O305 O 0.87674 0.18977 0.69008 0.0
O306 O 0.83618 0.22416 0.70183 0.0
O307 O 0.83035 0.21359 0.66079 0.0
O308 O 0.88084 0.22912 0.63382 0.0
O309 O 0.92015 0.24534 0.6564 0.0
O310 O 0.89258 0.28495 0.67217 0.0
O311 O 0.94593 0.307 0.68378 0.0
H312 H 0.04209 0.27591 0.72999 0.0
H313 H 0.07416 0.25011 0.73035 0.0
H314 H 0.0534 0.22671 0.64996 0.0
H315 H 0.02067 0.2518 0.64974 0.0
H316 H 0.78181 0.21219 0.64022 0.0
H317 H 0.73306 0.21514 0.64028 0.0
H318 H 0.74709 0.2412 0.72037 0.0
H319 H 0.79612 0.23868 0.72053 0.0
C320 C 0.74393 0.74257 0.69183 0.0
Eu321 Eu 0.76517 0.70275 0.69019 0.0
C322 C 0.75943 0.77793 0.69074 0.0
C323 C 0.76003 0.795 0.71278 0.0
C324 C 0.77485 0.82828 0.71241 0.0
C325 C 0.78941 0.84551 0.68991 0.0
C326 C 0.78903 0.8284 0.66786 0.0
C327 C 0.77428 0.79507 0.66827 0.0
C328 C 0.77132 0.67341 0.73301 0.0
C329 C 0.84121 0.73113 0.69022 0.0
C330 C 0.81228 0.6172 0.68383 0.0
Eu331 Eu 0.79221 0.65774 0.67823 0.0
C332 C 0.80414 0.58353 0.6803 0.0
C333 C 0.81671 0.57515 0.65935 0.0
C334 C 0.81486 0.54546 0.65838 0.0
C335 C 0.80043 0.52327 0.67839 0.0
C336 C 0.78587 0.53085 0.69848 0.0
C337 C 0.78786 0.56066 0.6995 0.0
C338 C 0.78808 0.68757 0.63364 0.0
C339 C 0.71718 0.62655 0.67424 0.0
O340 O 0.7437 0.7274 0.67092 0.0
O341 O 0.74985 0.73092 0.71232 0.0
O342 O 0.78159 0.70368 0.73083 0.0
O343 O 0.7623 0.66109 0.71077 0.0
O344 O 0.81829 0.73742 0.68457 0.0
O345 O 0.83503 0.70168 0.69363 0.0
O346 O 0.79763 0.62374 0.70189 0.0
O347 O 0.81796 0.63491 0.66339 0.0
O348 O 0.79652 0.66602 0.63389 0.0
O349 O 0.78344 0.69131 0.65681 0.0
O350 O 0.74192 0.62289 0.67061 0.0
O351 O 0.71954 0.65396 0.68221 0.0
H352 H 0.74888 0.78253 0.7304 0.0
H353 H 0.77426 0.84045 0.72968 0.0
H354 H 0.80035 0.84079 0.65028 0.0
H355 H 0.77459 0.78282 0.65096 0.0
H356 H 0.8296 0.59222 0.64432 0.0
H357 H 0.82665 0.54087 0.64268 0.0
H358 H 0.77392 0.51421 0.71397 0.0
H359 H 0.77788 0.56625 0.71596 0.0
C360 C 0.35649 0.56435 0.02282 0.0
C361 C 0.3682 0.54955 1.00634 0.0
C362 C 0.32416 0.55553 0.02228 0.0
C363 C 0.24883 0.5098 0.98451 0.0
H364 H 0.20942 0.4895 0.05157 0.0
C365 C 0.11042 0.43611 0.99431 0.0
C366 C 0.09701 0.44157 0.01628 0.0
C367 C 0.14374 0.44905 0.99261 0.0
C368 C 0.21952 0.49549 0.03251 0.0
H369 H 0.35493 0.51408 0.97626 0.0
H370 H 0.29923 0.49897 0.97532 0.0
H371 H 0.26648 0.51812 0.04835 0.0
H372 H 0.10816 0.46388 0.05365 0.0
H373 H 0.16414 0.48789 0.05026 0.0
H374 H 0.20197 0.488 0.96855 0.0
C375 C 0.31495 0.51785 0.98825 0.0
C376 C 0.2527 0.51204 0.03077 0.0
C377 C 0.34705 0.52659 0.98881 0.0
C378 C 0.11734 0.45845 0.03676 0.0
C379 C 0.15014 0.47244 0.03471 0.0
C380 C 0.21549 0.49388 0.98621 0.0
C381 C 0.30289 0.53169 1.00527 0.0
C382 C 0.26782 0.51873 1.00679 0.0
C383 C 0.1643 0.46857 1.0125 0.0
C384 C 0.20011 0.48587 1.01028 0.0
H385 H 0.37216 0.58231 0.03642 0.0
H386 H 0.31569 0.56689 0.03551 0.0
H387 H 0.25977 0.51492 0.96568 0.0
H388 H 0.0956 0.4239 0.97786 0.0
H389 H 0.15328 0.44463 0.97531 0.0
C390 C 0.49596 0.83278 0.98848 0.0
C391 C 0.47306 0.83112 1.00593 0.0
C392 C 0.50517 0.8098 0.98851 0.0
C393 C 0.51122 0.75385 0.03184 0.0
H394 H 0.5372 0.72874 0.96974 0.0
C395 C 0.56236 0.66962 0.03416 0.0
C396 C 0.58382 0.67145 0.01511 0.0
C397 C 0.54857 0.68868 0.03328 0.0
C398 C 0.53064 0.73597 0.98731 0.0
H399 H 0.44095 0.80305 0.03653 0.0
H400 H 0.4571 0.76262 0.03657 0.0
H401 H 0.50919 0.7585 0.96664 0.0
H402 H 0.6081 0.69566 0.98033 0.0
H403 H 0.58597 0.73147 0.97981 0.0
H404 H 0.53324 0.73223 0.05262 0.0
C405 C 0.46812 0.78206 0.023 0.0
C406 C 0.51424 0.75278 0.98552 0.0
C407 C 0.45885 0.80519 0.02297 0.0
C408 C 0.59274 0.69455 0.99587 0.0
C409 C 0.57923 0.71434 0.99522 0.0
C410 C 0.52782 0.73729 0.03364 0.0
C411 C 0.49184 0.78444 1.00602 0.0
C412 C 0.50493 0.76253 1.00778 0.0
C413 C 0.55607 0.71083 1.01347 0.0
C414 C 0.53832 0.72858 1.01142 0.0
H415 H 0.50804 0.85274 0.9755 0.0
H416 H 0.52397 0.81287 0.97556 0.0
H417 H 0.50467 0.76114 0.04939 0.0
H418 H 0.55303 0.65059 0.04813 0.0
H419 H 0.53021 0.6842 0.0472 0.0
C420 C 0.34871 0.90843 0.98835 0.0
C421 C 0.3526 0.92702 1.01025 0.0
C422 C 0.32981 0.87525 0.98923 0.0
C423 C 0.26866 0.80848 0.02817 0.0
H424 H 0.30043 0.75939 0.99309 0.0
C425 C 0.20288 0.67336 0.03858 0.0
C426 C 0.19548 0.65622 0.01535 0.0
C427 C 0.22627 0.70554 0.03945 0.0
C428 C 0.29122 0.77276 1.00292 0.0
H429 H 0.3397 0.92563 0.05013 0.0
H430 H 0.30596 0.86782 0.0517 0.0
H431 H 0.33036 0.81753 0.99083 0.0
H432 H 0.20949 0.65888 0.97544 0.0
H433 H 0.24978 0.71527 0.97683 0.0
H434 H 0.22955 0.76399 0.04016 0.0
C435 C 0.31698 0.87875 0.03361 0.0
C436 C 0.30825 0.80611 1.00152 0.0
C437 C 0.33587 0.91198 0.03267 0.0
C438 C 0.21401 0.6715 0.99352 0.0
C439 C 0.23739 0.7038 0.99438 0.0
C440 C 0.25179 0.77531 0.02966 0.0
C441 C 0.31453 0.85988 1.01214 0.0
C442 C 0.29696 0.8244 1.01392 0.0
C443 C 0.24279 0.72153 0.01711 0.0
C444 C 0.26264 0.75695 0.01691 0.0
H445 H 0.36238 0.9194 0.97113 0.0
H446 H 0.32814 0.86163 0.97221 0.0
H447 H 0.25898 0.82162 0.03769 0.0
H448 H 0.18921 0.66259 0.05582 0.0
H449 H 0.23038 0.71829 0.05744 0.0
C450 C 0.48712 0.23154 0.04158 0.0
C451 C 0.47132 0.21435 0.01931 0.0
C452 C 0.49848 0.26438 0.04324 0.0
C453 C 0.48531 0.32686 0.01567 0.0
H454 H 0.56954 0.38597 0.04166 0.0
C455 C 0.53644 0.46175 1.00563 0.0
C456 C 0.55775 0.48249 0.02416 0.0
C457 C 0.52697 0.42943 1.00574 0.0
C458 C 0.54572 0.36988 0.03474 0.0
H459 H 0.45485 0.21842 0.98152 0.0
H460 H 0.47494 0.27529 0.9843 0.0
H461 H 0.55091 0.32905 0.04125 0.0
H462 H 0.58556 0.48587 0.05764 0.0
H463 H 0.56772 0.4289 0.05892 0.0
H464 H 0.47938 0.36699 1.00975 0.0
C465 C 0.47844 0.26347 1.00054 0.0
C466 C 0.53511 0.33716 0.03443 0.0
C467 C 0.46725 0.23084 0.99884 0.0
C468 C 0.56943 0.47033 0.04294 0.0
C469 C 0.55923 0.43766 0.04353 0.0
C470 C 0.49566 0.3594 0.01633 0.0
C471 C 0.49401 0.28066 0.02279 0.0
C472 C 0.50494 0.31531 0.02454 0.0
C473 C 0.53772 0.41663 0.02495 0.0
C474 C 0.52626 0.38159 0.02548 0.0
H475 H 0.49091 0.21968 0.05763 0.0
H476 H 0.51026 0.27691 0.06071 0.0
H477 H 0.46168 0.31064 1.00839 0.0
H478 H 0.52723 0.47064 0.99084 0.0
H479 H 0.51126 0.41459 0.99057 0.0
C480 C 0.54958 0.11977 0.01571 0.0
C481 C 0.53943 0.09066 0.0283 0.0
C482 C 0.58202 0.1431 0.01508 0.0
C483 C 0.65946 0.16837 0.04759 0.0
H484 H 0.69635 0.21178 0.9835 0.0
C485 C 0.79581 0.24367 0.03346 0.0
C486 C 0.80826 0.27161 0.01866 0.0
C487 C 0.76294 0.22266 0.0349 0.0
C488 C 0.68644 0.20027 1.00168 0.0
H489 H 0.55548 0.06363 0.05061 0.0
H490 H 0.61153 0.10411 0.04972 0.0
H491 H 0.63934 0.17405 0.98596 0.0
H492 H 0.79545 0.29938 0.99403 0.0
H493 H 0.73813 0.26292 0.9967 0.0
H494 H 0.7064 0.19448 0.06339 0.0
C495 C 0.59461 0.10914 0.04038 0.0
C496 C 0.65365 0.17857 1.00308 0.0
C497 C 0.56236 0.08581 0.04081 0.0
C498 C 0.78681 0.27793 1.00535 0.0
C499 C 0.75386 0.25693 1.00686 0.0
C500 C 0.69218 0.19013 0.04624 0.0
C501 C 0.605 0.13799 0.02728 0.0
C502 C 0.63972 0.16217 0.02602 0.0
C503 C 0.74141 0.22894 0.02166 0.0
C504 C 0.70625 0.2063 0.02322 0.0
H505 H 0.53263 0.12414 1.00564 0.0
H506 H 0.58912 0.16513 1.00498 0.0
H507 H 0.64957 0.15656 0.06569 0.0
H508 H 0.81152 0.23762 0.0436 0.0
H509 H 0.75448 0.20113 0.04608 0.0
C510 C 0.93985 0.49546 0.03851 0.0
C511 C 0.93362 0.46614 0.02804 0.0
C512 C 0.9166 0.50445 0.03831 0.0
C513 C 0.84391 0.49054 1.00413 0.0
H514 H 0.83365 0.53326 0.06323 0.0
C515 C 0.74645 0.52747 1.00852 0.0
C516 C 0.75414 0.55599 0.02142 0.0
C517 C 0.76719 0.51514 1.00919 0.0
C518 C 0.8364 0.52178 0.04635 0.0
H519 H 0.89791 0.42329 1.00905 0.0
H520 H 0.85713 0.43908 1.00855 0.0
H521 H 0.87134 0.51419 0.06503 0.0
H522 H 0.79055 0.59441 0.04423 0.0
H523 H 0.82654 0.57338 0.04514 0.0
H524 H 0.80938 0.49869 0.98525 0.0
C525 C 0.8801 0.45506 0.01704 0.0
C526 C 0.85803 0.51069 0.04746 0.0
C527 C 0.90331 0.44582 0.0176 0.0
C528 C 0.78337 0.57203 0.03457 0.0
C529 C 0.8041 0.55985 0.03513 0.0
C530 C 0.82237 0.50185 1.00294 0.0
C531 C 0.88649 0.48459 0.02731 0.0
C532 C 0.86228 0.49508 0.02633 0.0
C533 C 0.79629 0.53106 0.02267 0.0
C534 C 0.81845 0.5179 0.02399 0.0
H535 H 0.963 0.51178 0.04659 0.0
H536 H 0.92258 0.52748 0.04615 0.0
H537 H 0.8468 0.47898 0.98736 0.0
H538 H 0.72407 0.51429 0.99834 0.0
H539 H 0.76006 0.49277 0.99955 0.0
C540 C 0.77739 0.7709 0.36351 0.0
C541 C 0.7629 0.77273 0.34077 0.0
C542 C 0.81063 0.78549 0.3653 0.0
C543 C 0.88428 0.84938 0.33387 0.0
H544 H 0.92587 0.81436 0.3749 0.0
C545 C 0.01889 0.89152 0.32628 0.0
C546 C 0.03456 0.88744 0.34747 0.0
C547 C 0.98653 0.88219 0.32756 0.0
C548 C 0.91479 0.82497 0.36375 0.0
H549 H 0.77193 0.7896 0.30153 0.0
H550 H 0.82955 0.81303 0.30396 0.0
H551 H 0.8683 0.78623 0.37213 0.0
H552 H 0.02862 0.87314 0.38751 0.0
H553 H 0.973 0.85854 0.39007 0.0
H554 H 0.93102 0.888 0.32526 0.0
C555 C 0.81545 0.80134 0.32082 0.0
C556 C 0.88155 0.80862 0.36206 0.0
C557 C 0.78228 0.78704 0.31917 0.0
C558 C 0.01763 0.87661 0.37069 0.0
C559 C 0.98539 0.86767 0.37205 0.0
C560 C 0.91763 0.86579 0.33557 0.0
C561 C 0.83022 0.80192 0.34422 0.0
C562 C 0.86576 0.82023 0.34677 0.0
C563 C 0.96898 0.86891 0.35019 0.0
C564 C 0.93342 0.85357 0.35026 0.0
H565 H 0.76345 0.76092 0.38067 0.0
H566 H 0.82098 0.78554 0.38373 0.0
H567 H 0.87304 0.85963 0.32246 0.0
H568 H 0.03125 0.90071 0.30825 0.0
H569 H 0.97496 0.88375 0.3103 0.0
C570 C 0.16356 0.16808 0.32221 0.0
C571 C 0.1392 0.16516 0.3386 0.0
C572 C 0.17274 0.14508 0.32203 0.0
C573 C 0.17555 0.08741 0.36506 0.0
H574 H 0.20657 0.06439 0.30471 0.0
C575 C 0.22073 0.99933 0.37103 0.0
C576 C 0.24435 1.00127 0.35421 0.0
C577 C 0.20841 0.01948 0.36867 0.0
C578 C 0.19857 0.07106 0.3218 0.0
H579 H 0.10413 0.13462 0.36665 0.0
H580 H 0.12024 0.09423 0.36632 0.0
H581 H 0.17941 0.09496 0.29992 0.0
H582 H 0.27419 0.02698 0.32189 0.0
H583 H 0.2537 0.06418 0.31851 0.0
H584 H 0.19535 0.06468 0.38712 0.0
C585 C 0.13246 0.11468 0.35381 0.0
C586 C 0.18267 0.08828 0.31903 0.0
C587 C 0.12322 0.13778 0.354 0.0
C588 C 0.25674 0.02547 0.33565 0.0
C589 C 0.24439 0.04621 0.33338 0.0
C590 C 0.1917 0.07058 0.36786 0.0
C591 C 0.1579 0.11851 0.33826 0.0
C592 C 0.17127 0.09695 0.34067 0.0
C593 C 0.21947 0.04287 0.34956 0.0
C594 C 0.20361 0.06225 0.34631 0.0
H595 H 0.17689 0.18911 0.31051 0.0
H596 H 0.19276 0.14912 0.31017 0.0
H597 H 0.16756 0.09407 0.38219 0.0
H598 H 0.20945 0.98022 0.38484 0.0
H599 H 0.1887 0.01521 0.38101 0.0
C600 C 1.0047 0.24998 0.3617 0.0
C601 C 0.02047 0.2638 0.3386 0.0
C602 C 0.9861 0.21676 0.36398 0.0
C603 C 0.97624 0.14263 0.33335 0.0
H604 H 0.89963 0.10141 0.37458 0.0
C605 C 0.88329 0.00778 0.32718 0.0
C606 C 0.8649 0.99246 0.34907 0.0
C607 C 0.90613 0.04027 0.3278 0.0
C608 C 0.92131 0.11245 0.36335 0.0
H609 H 0.02786 0.25386 0.29947 0.0
H610 H 0.99389 0.19632 0.30281 0.0
H611 H 0.92902 0.159 0.37137 0.0
H612 H 0.85831 0.99924 0.38939 0.0
H613 H 0.89879 0.05516 0.39068 0.0
H614 H 0.96807 0.0958 0.32502 0.0
C615 C 0.99649 0.21083 0.31947 0.0
C616 C 0.93817 0.14565 0.36143 0.0
C617 C 0.01522 0.24392 0.31729 0.0
C618 C 0.87188 0.00995 0.37211 0.0
C619 C 0.89485 0.04232 0.37277 0.0
C620 C 0.9593 0.10933 0.33522 0.0
C621 C 0.98267 0.19668 0.34312 0.0
C622 C 0.96557 0.16125 0.34608 0.0
C623 C 0.91133 0.05825 0.35038 0.0
C624 C 0.93134 0.09375 0.35001 0.0
H625 H 0.00929 0.26457 0.3787 0.0
H626 H 0.97611 0.20684 0.38258 0.0
H627 H 0.99774 0.15376 0.32189 0.0
H628 H 0.87919 0.995 0.30923 0.0
H629 H 0.9184 0.05159 0.31017 0.0
C630 C 0.19795 0.79394 0.3735 0.0
C631 C 0.22588 0.81699 0.36122 0.0
C632 C 0.18923 0.76182 0.3731 0.0
C633 C 0.20017 0.70252 0.3368 0.0
H634 H 0.16298 0.65135 0.39775 0.0
C635 C 0.16338 0.56843 0.34186 0.0
C636 C 0.13533 0.54805 0.35542 0.0
C637 C 0.17612 0.60154 0.34245 0.0
C638 C 0.17295 0.66511 0.38042 0.0
H639 H 0.26657 0.82415 0.33885 0.0
H640 H 0.25139 0.76769 0.33828 0.0
H641 H 0.18254 0.70823 0.39927 0.0
H642 H 0.0983 0.54674 0.3796 0.0
H643 H 0.12023 0.60399 0.38053 0.0
H644 H 0.19008 0.65916 0.31786 0.0
C645 C 0.23624 0.77468 0.34821 0.0
C646 C 0.18429 0.69786 0.38133 0.0
C647 C 0.24517 0.80707 0.3488 0.0
C648 C 0.12029 0.56165 0.36938 0.0
C649 C 0.13294 0.59462 0.36992 0.0
C650 C 0.18869 0.66962 0.33586 0.0
C651 C 0.20807 0.75163 0.36031 0.0
C652 C 0.19779 0.71701 0.35949 0.0
C653 C 0.16112 0.61511 0.35658 0.0
C654 C 0.17462 0.65039 0.35761 0.0
H655 H 0.18239 0.80064 0.38313 0.0
H656 H 0.16716 0.74481 0.38229 0.0
H657 H 0.21006 0.71643 0.31953 0.0
H658 H 0.17579 0.55885 0.3311 0.0
H659 H 0.19804 0.6165 0.33217 0.0
C660 C 0.22989 0.42005 0.37251 0.0
C661 C 0.20753 0.42517 0.35935 0.0
C662 C 0.26228 0.44299 0.37238 0.0
C663 C 0.3235 0.51192 0.33575 0.0
H664 H 0.37292 0.52801 0.39811 0.0
C665 C 0.45748 0.61017 0.34218 0.0
C666 C 0.47764 0.60362 0.35722 0.0
C667 C 0.42437 0.58945 0.34217 0.0
C668 C 0.35968 0.5236 0.38038 0.0
H669 H 0.20199 0.4586 0.33554 0.0
H670 H 0.25879 0.49886 0.33528 0.0
H671 H 0.31598 0.49051 0.39875 0.0
H672 H 0.47838 0.56929 0.38335 0.0
H673 H 0.42122 0.5334 0.38325 0.0
H674 H 0.36737 0.5447 0.31728 0.0
C675 C 0.25109 0.47696 0.34577 0.0
C676 C 0.32687 0.50206 0.38079 0.0
C677 C 0.21848 0.45405 0.34615 0.0
C678 C 0.46371 0.57562 0.37199 0.0
C679 C 0.43074 0.55493 0.37193 0.0
C680 C 0.35644 0.53339 0.3353 0.0
C681 C 0.27345 0.47171 0.35888 0.0
C682 C 0.30829 0.49574 0.35847 0.0
C683 C 0.41047 0.56155 0.35716 0.0
C684 C 0.3751 0.5394 0.35759 0.0
H685 H 0.2224 0.39805 0.38281 0.0
H686 H 0.27871 0.43784 0.38242 0.0
H687 H 0.31007 0.50737 0.3181 0.0
H688 H 0.46722 0.63162 0.33072 0.0
H689 H 0.40965 0.59565 0.33076 0.0
C690 C 0.42063 0.87074 0.37533 0.0
C691 C 0.419 0.88661 0.35325 0.0
C692 C 0.44215 0.85938 0.37666 0.0
C693 C 0.5176 0.87207 0.3479 0.0
H694 H 0.49302 0.78866 0.37509 0.0
C695 C 0.60179 0.82111 0.33779 0.0
C696 C 0.60166 0.80034 0.35654 0.0
C697 C 0.57873 0.83035 0.33788 0.0
C698 C 0.50063 0.81225 0.36778 0.0
H699 H 0.43935 0.90315 0.31541 0.0
H700 H 0.47619 0.88313 0.31761 0.0
H701 H 0.45478 0.80732 0.37503 0.0
H702 H 0.57762 0.77323 0.39039 0.0
H703 H 0.53812 0.79055 0.39156 0.0
H704 H 0.5635 0.87775 0.34124 0.0
C705 C 0.461 0.87956 0.33399 0.0
C706 C 0.47851 0.82291 0.36769 0.0
C707 C 0.43949 0.89074 0.33262 0.0
C708 C 0.57793 0.78892 0.37549 0.0
C709 C 0.55522 0.79884 0.37603 0.0
C710 C 0.53978 0.86167 0.34831 0.0
C711 C 0.46282 0.86387 0.35605 0.0
C712 C 0.48658 0.85281 0.35742 0.0
C713 C 0.55532 0.81992 0.35728 0.0
C714 C 0.53163 0.83136 0.3579 0.0
H715 H 0.4051 0.86686 0.39153 0.0
H716 H 0.44299 0.84756 0.39401 0.0
H717 H 0.52494 0.89551 0.34032 0.0
H718 H 0.61981 0.83018 0.3229 0.0
H719 H 0.57937 0.84571 0.32258 0.0
C720 C 0.68238 0.19016 0.69474 0.0
C721 C 0.70279 0.21902 0.68253 0.0
C722 C 0.64975 0.17856 0.69541 0.0
C723 C 0.58787 0.2001 0.69056 0.0
H724 H 0.53415 0.11105 0.6721 0.0
C725 C 0.45724 0.14621 0.66388 0.0
C726 C 0.43412 0.11728 0.67523 0.0
C727 C 0.48948 0.15793 0.66743 0.0
C728 C 0.5488 0.1357 0.67782 0.0
H729 H 0.70572 0.25889 0.66166 0.0
H730 H 0.6479 0.23879 0.66329 0.0
H731 H 0.59195 0.13491 0.67176 0.0
H732 H 0.42753 0.07689 0.69751 0.0
H733 H 0.4852 0.09628 0.70166 0.0
H734 H 0.54459 0.20099 0.69609 0.0
C735 C 0.65734 0.22517 0.67231 0.0
C736 C 0.58187 0.14947 0.67745 0.0
C737 C 0.69023 0.23663 0.67133 0.0
C738 C 0.44453 0.09897 0.68837 0.0
C739 C 0.47745 0.11038 0.6911 0.0
C740 C 0.55473 0.1863 0.69093 0.0
C741 C 0.63678 0.19567 0.68398 0.0
C742 C 0.60175 0.18178 0.68377 0.0
C743 C 0.50008 0.14052 0.68135 0.0
C744 C 0.53488 0.15398 0.68435 0.0
H745 H 0.69167 0.17611 0.70325 0.0
H746 H 0.63458 0.156 0.70477 0.0
H747 H 0.60261 0.22494 0.69579 0.0
H748 H 0.45051 0.16109 0.65322 0.0
H749 H 0.50619 0.1808 0.65915 0.0
C750 C 0.91127 0.3486 0.65382 0.0
C751 C 0.92111 0.33994 0.67626 0.0
C752 C 0.89637 0.3669 0.65513 0.0
C753 C 0.87953 0.41775 0.69864 0.0
H754 H 0.80944 0.39512 0.65156 0.0
C755 C 0.80982 0.48423 0.70333 0.0
C756 C 0.804 0.49437 0.67966 0.0
C757 C 0.81875 0.46095 0.70428 0.0
C758 C 0.82905 0.4019 0.66477 0.0
H759 H 0.92341 0.34407 0.71764 0.0
H760 H 0.89785 0.37631 0.72012 0.0
H761 H 0.83824 0.36593 0.65028 0.0
H762 H 0.80008 0.48533 0.6386 0.0
H763 H 0.81689 0.44585 0.64016 0.0
H764 H 0.8708 0.45391 0.71293 0.0
C765 C 0.90222 0.36965 0.70134 0.0
C766 C 0.84571 0.38522 0.66397 0.0
C767 C 0.91745 0.3516 0.69995 0.0
C768 C 0.80517 0.47884 0.65714 0.0
C769 C 0.81443 0.45576 0.65808 0.0
C770 C 0.86292 0.43439 0.69944 0.0
C771 C 0.89052 0.37667 0.679 0.0
C772 C 0.87163 0.39333 0.68059 0.0
C773 C 0.82253 0.44736 0.68159 0.0
C774 C 0.83776 0.42711 0.68226 0.0
H775 H 0.9127 0.33894 0.6354 0.0
H776 H 0.88833 0.37231 0.63745 0.0
H777 H 0.89936 0.42489 0.71166 0.0
H778 H 0.8093 0.49548 0.72115 0.0
H779 H 0.82386 0.45449 0.72283 0.0
C780 C 0.6812 0.57628 0.65201 0.0
C781 C 0.6868 0.59612 0.67343 0.0
C782 C 0.66244 0.54318 0.65411 0.0
C783 C 0.6031 0.47786 0.69502 0.0
H784 H 0.63319 0.42781 0.65916 0.0
C785 C 0.53495 0.34148 0.70339 0.0
C786 C 0.52891 0.32443 0.68018 0.0
C787 C 0.55774 0.37389 0.70464 0.0
C788 C 0.62434 0.44139 0.66918 0.0
H789 H 0.67635 0.59668 0.71374 0.0
H790 H 0.64246 0.53886 0.71733 0.0
H791 H 0.66385 0.48588 0.65702 0.0
H792 H 0.54412 0.32793 0.64057 0.0
H793 H 0.58348 0.38459 0.64261 0.0
H794 H 0.56345 0.43359 0.7069 0.0
C795 C 0.65244 0.54893 0.69876 0.0
C796 C 0.64188 0.47475 0.6679 0.0
C797 C 0.67134 0.58218 0.69662 0.0
C798 C 0.54773 0.34035 0.65866 0.0
C799 C 0.57058 0.37285 0.65992 0.0
C800 C 0.5856 0.4446 0.69629 0.0
C801 C 0.64868 0.52893 0.67774 0.0
C802 C 0.63114 0.49345 0.68041 0.0
C803 C 0.57512 0.39032 0.68272 0.0
C804 C 0.59565 0.42582 0.68308 0.0
H805 H 0.69367 0.58625 0.63413 0.0
H806 H 0.65966 0.52871 0.63738 0.0
H807 H 0.59397 0.49134 0.70478 0.0
H808 H 0.52089 0.33026 0.72037 0.0
H809 H 0.56103 0.38632 0.72269 0.0
C810 C 0.82073 0.89996 0.71058 0.0
C811 C 0.80392 0.88099 0.68929 0.0
C812 C 0.8328 0.93297 0.71045 0.0
C813 C 0.8207 0.99457 0.67915 0.0
H814 H 0.90368 0.05377 0.70724 0.0
C815 C 0.87208 0.1302 0.66945 0.0
C816 C 0.89296 0.15081 0.68826 0.0
C817 C 0.8625 0.09778 0.6695 0.0
C818 C 0.8802 0.03772 0.69967 0.0
H819 H 0.78716 0.88244 0.65098 0.0
H820 H 0.8085 0.93981 0.65062 0.0
H821 H 0.88496 0.99693 0.70758 0.0
H822 H 0.91959 0.15367 0.72237 0.0
H823 H 0.9017 0.09673 0.72349 0.0
H824 H 0.81518 0.03476 0.67193 0.0
C825 C 0.81206 0.92909 0.66758 0.0
C826 C 0.86952 1.00495 0.69977 0.0
C827 C 0.80012 0.89615 0.66767 0.0
C828 C 0.90395 0.13834 0.70735 0.0
C829 C 0.89368 0.10561 0.70785 0.0
C830 C 0.83114 0.02721 0.67937 0.0
C831 C 0.82828 0.94796 0.68906 0.0
C832 C 0.83972 0.98292 0.68931 0.0
C833 C 0.87269 0.08468 0.68892 0.0
C834 C 0.86124 0.04951 0.6894 0.0
H835 H 0.82455 0.88929 0.72746 0.0
H836 H 0.84502 0.94663 0.72739 0.0
H837 H 0.79734 0.97833 0.67139 0.0
H838 H 0.8632 0.13927 0.65453 0.0
H839 H 0.84712 0.0831 0.65413 0.0
C840 C 0.89773 0.75162 0.70407 0.0
C841 C 0.8751 0.75712 0.69179 0.0
C842 C 0.93004 0.77489 0.70428 0.0
C843 C 0.99025 0.84604 0.66924 0.0
H844 H 0.04103 0.85979 0.73045 0.0
C845 C 0.12299 0.94554 0.67427 0.0
C846 C 0.14434 0.9391 0.68764 0.0
C847 C 0.09005 0.92449 0.6754 0.0
C848 C 0.0274 0.85605 0.71304 0.0
H849 H 0.86898 0.79167 0.67006 0.0
H850 H 0.92557 0.83241 0.67033 0.0
H851 H 0.98421 0.82143 0.73125 0.0
H852 H 0.14734 0.90512 0.71271 0.0
H853 H 0.0902 0.86842 0.71456 0.0
H854 H 0.03348 0.88021 0.65086 0.0
C855 C 0.91819 0.80995 0.67983 0.0
C856 C 0.99466 0.83403 0.71354 0.0
C857 C 0.88569 0.78672 0.67988 0.0
C858 C 0.13171 0.91119 0.70246 0.0
C859 C 0.09878 0.89006 0.70351 0.0
C860 C 0.02305 0.86795 0.66869 0.0
C861 C 0.94083 0.80431 0.69199 0.0
C862 C 0.9756 0.82862 0.69163 0.0
C863 C 0.0774 0.89626 0.68988 0.0
C864 C 0.04219 0.87325 0.69057 0.0
H865 H 0.89054 0.72911 0.71344 0.0
H866 H 0.9467 0.76946 0.71358 0.0
H867 H 0.97649 0.84219 0.65188 0.0
H868 H 0.13172 0.96702 0.66297 0.0
H869 H 0.0745 0.93055 0.66503 0.0
C870 C 0.2705 0.15906 0.70769 0.0
C871 C 0.26537 0.13082 0.69572 0.0
C872 C 0.2474 0.16812 0.70699 0.0
C873 C 0.17714 0.15718 0.67077 0.0
H874 H 0.16449 0.19612 0.73136 0.0
C875 C 0.08027 0.19463 0.67654 0.0
C876 C 0.08824 0.22285 0.69002 0.0
C877 C 0.1007 0.18198 0.67676 0.0
C878 C 0.16792 0.18567 0.71412 0.0
H879 H 0.23158 0.08995 0.67357 0.0
H880 H 0.19061 0.10559 0.67266 0.0
H881 H 0.20131 0.17606 0.73297 0.0
H882 H 0.12468 0.26043 0.71344 0.0
H883 H 0.1601 0.23867 0.71373 0.0
H884 H 0.1439 0.16724 0.65186 0.0
C885 C 0.21284 0.12076 0.68252 0.0
C886 C 0.18905 0.17404 0.71508 0.0
C887 C 0.23609 0.11154 0.68334 0.0
C888 C 0.11734 0.23827 0.70336 0.0
C889 C 0.13773 0.22573 0.70352 0.0
C890 C 0.15597 0.16895 0.66978 0.0
C891 C 0.21829 0.14927 0.6943 0.0
C892 C 0.1942 0.15986 0.69338 0.0
C893 C 0.12964 0.19726 0.69042 0.0
C894 C 0.1513 0.18364 0.69141 0.0
H895 H 0.29284 0.17472 0.71725 0.0
H896 H 0.25279 0.19046 0.71589 0.0
H897 H 0.1808 0.14679 0.65359 0.0
H898 H 0.05796 0.18197 0.6662 0.0
H899 H 0.09347 0.15987 0.66665 0.0
C900 C 0.08339 0.36609 0.27648 0.0
C901 C 0.11334 0.36831 0.27806 0.0
C902 C 0.07458 0.37697 0.25463 0.0
C903 C 0.10637 0.43004 0.19682 0.0
H904 H 0.0209 0.3765 0.17094 0.0
C905 C 0.06153 0.45397 0.09789 0.0
C906 C 0.02854 0.44011 0.09409 0.0
C907 C 0.07384 0.44905 0.12106 0.0
C908 C 0.04468 0.39244 0.17798 0.0
H909 H 0.15784 0.38447 0.258 0.0
H910 H 0.14296 0.4044 0.22016 0.0
H911 H 0.03798 0.36072 0.20901 0.0
H912 H 0.98301 0.41368 0.11309 0.0
H913 H 1.00397 0.40793 0.15365 0.0
H914 H 0.11293 0.462 0.16581 0.0
C915 C 0.12602 0.39391 0.2357 0.0
C916 C 0.0546 0.38308 0.20002 0.0
C917 C 0.13452 0.38227 0.25735 0.0
C918 C 0.00858 0.42451 0.11511 0.0
C919 C 0.02072 0.42047 0.13837 0.0
C920 C 0.09627 0.4397 0.17483 0.0
C921 C 0.09569 0.39107 0.23377 0.0
C922 C 0.08555 0.40166 0.20997 0.0
C923 C 0.05338 0.43089 0.14141 0.0
C924 C 0.06505 0.42118 0.16502 0.0
H925 H 0.06637 0.35517 0.29194 0.0
H926 H 0.05112 0.37444 0.25415 0.0
H927 H 0.13038 0.44518 0.20381 0.0
H928 H 0.07757 0.46678 0.08242 0.0
H929 H 0.0992 0.45812 0.12235 0.0
C930 C 0.65024 0.72859 0.27867 0.0
C931 C 0.65809 0.76064 0.27794 0.0
C932 C 0.63913 0.7091 0.25664 0.0
C933 C 0.60742 0.70465 0.18937 0.0
H934 H 0.63021 0.63934 0.18069 0.0
C935 C 0.58687 0.63589 0.09212 0.0
C936 C 0.58204 0.60478 0.09208 0.0
C937 C 0.59345 0.6537 0.115 0.0
C938 C 0.62298 0.65699 0.18277 0.0
H939 H 0.66147 0.79759 0.25277 0.0
H940 H 0.6429 0.76415 0.21426 0.0
H941 H 0.64668 0.67207 0.2191 0.0
H942 H 0.5808 0.56831 0.1166 0.0
H943 H 0.59133 0.59862 0.1565 0.0
H944 H 0.5838 0.68959 0.15293 0.0
C945 C 0.64421 0.75346 0.23209 0.0
C946 C 0.6326 0.67604 0.20508 0.0
C947 C 0.65515 0.77286 0.25424 0.0
C948 C 0.58379 0.59195 0.11583 0.0
C949 C 0.59034 0.6097 0.13878 0.0
C950 C 0.59771 0.68551 0.16705 0.0
C951 C 0.63601 0.72113 0.23281 0.0
C952 C 0.62512 0.70036 0.20887 0.0
C953 C 0.59585 0.64121 0.13883 0.0
C954 C 0.60535 0.66128 0.1632 0.0
H955 H 0.65381 0.71878 0.29603 0.0
H956 H 0.63307 0.68449 0.25842 0.0
H957 H 0.60056 0.72259 0.19144 0.0
H958 H 0.58763 0.64734 0.07421 0.0
H959 H 0.59815 0.67792 0.11366 0.0
C960 C 0.40111 0.96516 0.09663 0.0
C961 C 0.4206 0.99831 0.09342 0.0
C962 C 0.38401 0.95246 0.11982 0.0
C963 C 0.35097 0.9783 0.17373 0.0
H964 H 0.33325 0.90029 0.20781 0.0
C965 C 0.28874 0.94586 0.27306 0.0
C966 C 0.26677 0.9139 0.27889 0.0
C967 C 0.30756 0.95413 0.25077 0.0
C968 C 0.3376 0.92198 0.19843 0.0
H969 H 0.43843 0.04364 0.11265 0.0
H970 H 0.41001 0.0219 0.15267 0.0
H971 H 0.36646 0.91752 0.16899 0.0
H972 H 0.24808 0.86544 0.26575 0.0
H973 H 0.28097 0.87974 0.22673 0.0
H974 H 0.32204 0.98284 0.20256 0.0
C975 C 0.40716 1.00548 0.1374 0.0
C976 C 0.3568 0.93191 0.17608 0.0
C977 C 0.42405 0.01801 0.11448 0.0
C978 C 0.26457 0.89032 0.26183 0.0
C979 C 0.28368 0.89859 0.23949 0.0
C980 C 0.33182 0.96839 0.19585 0.0
C981 C 0.38578 0.97264 0.1402 0.0
C982 C 0.36423 0.96056 0.16354 0.0
C983 C 0.30531 0.93074 0.23336 0.0
C984 C 0.32503 0.94027 0.20892 0.0
H985 H 0.3971 0.94928 0.08062 0.0
H986 H 0.36788 0.92704 0.12111 0.0
H987 H 0.35515 0.99998 0.16442 0.0
H988 H 0.29129 0.96474 0.28574 0.0
H989 H 0.32417 0.97908 0.24733 0.0
C990 C 0.41377 0.02971 0.94132 0.0
C991 C 0.44451 0.03427 0.94509 0.0
C992 C 0.406 0.04096 0.91919 0.0
C993 C 0.44071 0.09531 0.86146 0.0
H994 H 0.35398 0.04555 0.83692 0.0
C995 C 0.39517 0.1174 0.76172 0.0
C996 C 0.363 0.10945 0.76013 0.0
C997 C 0.40768 0.11214 0.78464 0.0
C998 C 0.37824 0.06025 0.84354 0.0
H999 H 0.49132 0.05478 0.92801 0.0
H1000 H 0.4777 0.0739 0.889 0.0
H1001 H 0.37034 0.02843 0.87464 0.0
H1002 H 0.31942 0.09071 0.78194 0.0
H1003 H 0.34113 0.08316 0.82167 0.0
H1004 H 0.44845 0.12681 0.82967 0.0
C1005 C 0.45953 0.06193 0.90347 0.0
C1006 C 0.38776 0.0503 0.8655 0.0
C1007 C 0.46738 0.05073 0.92586 0.0
C1008 C 0.34445 0.09792 0.78252 0.0
C1009 C 0.35685 0.09283 0.80529 0.0
C1010 C 0.43114 0.10525 0.83927 0.0
C1011 C 0.4285 0.057 0.89955 0.0
C1012 C 0.41908 0.06773 0.87522 0.0
C1013 C 0.3883 0.0985 0.80658 0.0
C1014 C 0.39953 0.08811 0.83005 0.0
H1015 H 0.39545 0.01732 0.95564 0.0
H1016 H 0.38211 0.03716 0.9177 0.0
H1017 H 0.46499 0.10973 0.86809 0.0
H1018 H 0.40993 0.12513 0.74466 0.0
H1019 H 0.43196 0.11684 0.78455 0.0
C1020 C 0.01996 0.42797 0.92564 0.0
C1021 C 0.99906 0.42672 0.9449 0.0
C1022 C 0.00854 0.40963 0.90303 0.0
C1023 C 0.93314 0.35788 0.86383 0.0
H1024 H 0.98907 0.33408 0.82978 0.0
C1025 C 0.90524 0.29158 0.76239 0.0
C1026 C 0.91606 0.26971 0.75886 0.0
C1027 C 0.91253 0.31016 0.78518 0.0
C1028 C 0.97278 0.3401 0.839 0.0
H1029 H 0.94919 0.40535 0.95479 0.0
H1030 H 0.9292 0.37258 0.91601 0.0
H1031 H 1.00648 0.36534 0.86867 0.0
H1032 H 0.94199 0.24978 0.77774 0.0
H1033 H 0.95444 0.28147 0.81639 0.0
H1034 H 0.89893 0.33109 0.83417 0.0
C1035 C 0.95464 0.38806 0.91801 0.0
C1036 C 0.98313 0.35883 0.86142 0.0
C1037 C 0.96616 0.4067 0.94061 0.0
C1038 C 0.9332 0.26629 0.7793 0.0
C1039 C 0.94075 0.28493 0.80165 0.0
C1040 C 0.92265 0.33882 0.84131 0.0
C1041 C 0.97561 0.38892 0.89869 0.0
C1042 C 0.96371 0.36834 0.87445 0.0
C1043 C 0.93129 0.30781 0.80495 0.0
C1044 C 0.94224 0.32935 0.82853 0.0
H1045 H 0.04541 0.44321 0.92803 0.0
H1046 H 0.0259 0.4122 0.8888 0.0
H1047 H 0.91721 0.3646 0.87271 0.0
H1048 H 0.89197 0.29501 0.74726 0.0
H1049 H 0.90451 0.32726 0.78683 0.0
C1050 C 0.75823 0.64218 0.7751 0.0
C1051 C 0.75071 0.65791 0.75607 0.0
C1052 C 0.74024 0.63161 0.7981 0.0
C1053 C 0.68308 0.64596 0.8378 0.0
H1054 H 0.66925 0.57163 0.87584 0.0
C1055 C 0.59452 0.59954 0.9232 0.0
C1056 C 0.60073 0.58606 0.94476 0.0
C1057 C 0.61305 0.60683 0.90078 0.0
C1058 C 0.67305 0.59268 0.86567 0.0
H1059 H 0.71774 0.67384 0.7461 0.0
H1060 H 0.68638 0.65517 0.78517 0.0
H1061 H 0.70033 0.5862 0.83609 0.0
H1062 H 0.63135 0.56905 0.95908 0.0
H1063 H 0.6643 0.58242 0.92019 0.0
H1064 H 0.65611 0.65268 0.86714 0.0
C1065 C 0.70645 0.65143 0.78309 0.0
C1066 C 0.69104 0.60111 0.84268 0.0
C1067 C 0.72428 0.66188 0.76032 0.0
C1068 C 0.62594 0.57962 0.94298 0.0
C1069 C 0.64473 0.58711 0.92048 0.0
C1070 C 0.66515 0.63753 0.8606 0.0
C1071 C 0.71437 0.6367 0.8028 0.0
C1072 C 0.69608 0.62774 0.82806 0.0
C1073 C 0.63884 0.6012 0.89898 0.0
C1074 C 0.65936 0.61052 0.87492 0.0
H1075 H 0.77851 0.63885 0.77254 0.0
H1076 H 0.74738 0.62044 0.81256 0.0
H1077 H 0.687 0.66723 0.82796 0.0
H1078 H 0.5752 0.60462 0.92363 0.0
H1079 H 0.60687 0.61678 0.88471 0.0
C1080 C 0.69823 0.78879 0.44834 0.0
C1081 C 0.70322 0.77944 0.42395 0.0
C1082 C 0.70931 0.78129 0.47092 0.0
C1083 C 0.73318 0.72328 0.49558 0.0
H1084 H 0.76396 0.77915 0.55474 0.0
C1085 C 0.78159 0.68872 0.58542 0.0
C1086 C 0.77995 0.70004 0.60998 0.0
C1087 C 0.77346 0.69951 0.56309 0.0
C1088 C 0.75501 0.76278 0.5387 0.0
H1089 H 0.72215 0.75317 0.40474 0.0
H1090 H 0.74266 0.74128 0.44339 0.0
H1091 H 0.74805 0.79592 0.51619 0.0
H1092 H 0.76988 0.73311 0.62963 0.0
H1093 H 0.75386 0.75057 0.59148 0.0
H1094 H 0.73913 0.68975 0.51797 0.0
C1095 C 0.73048 0.75471 0.44536 0.0
C1096 C 0.7459 0.77263 0.51629 0.0
C1097 C 0.71954 0.76235 0.42292 0.0
C1098 C 0.77049 0.72304 0.61133 0.0
C1099 C 0.76184 0.73355 0.58905 0.0
C1100 C 0.74193 0.71329 0.51802 0.0
C1101 C 0.72518 0.76355 0.46993 0.0
C1102 C 0.73496 0.75316 0.49418 0.0
C1103 C 0.76295 0.72191 0.56433 0.0
C1104 C 0.75325 0.73282 0.54014 0.0
H1105 H 0.68485 0.80107 0.45002 0.0
H1106 H 0.70421 0.78829 0.48927 0.0
H1107 H 0.72429 0.70705 0.47942 0.0
H1108 H 0.78921 0.67133 0.58337 0.0
H1109 H 0.77583 0.69031 0.54479 0.0
C1110 C 0.2568 0.9262 0.44966 0.0
C1111 C 0.24928 0.93609 0.42664 0.0
C1112 C 0.26153 0.94323 0.47276 0.0
C1113 C 0.25512 0.01032 0.50449 0.0
H1114 H 0.32354 0.01604 0.5465 0.0
C1115 C 0.30818 0.10018 0.59169 0.0
C1116 C 0.32205 0.09267 0.6123 0.0
C1117 C 0.29753 0.08087 0.56934 0.0
C1118 C 0.30391 0.01451 0.53553 0.0
H1119 H 0.24215 0.97265 0.4102 0.0
H1120 H 0.24923 1.0019 0.45019 0.0
H1121 H 0.30656 0.98227 0.50887 0.0
H1122 H 0.33528 0.05847 0.62511 0.0
H1123 H 0.31532 0.0243 0.5877 0.0
H1124 H 0.25256 0.04271 0.53128 0.0
C1125 C 0.25052 0.98029 0.45079 0.0
C1126 C 0.29407 0.99485 0.51358 0.0
C1127 C 0.2457 0.96307 0.42771 0.0
C1128 C 0.32462 0.06514 0.60986 0.0
C1129 C 0.31346 0.04559 0.58792 0.0
C1130 C 0.26484 0.02991 0.52665 0.0
C1131 C 0.25964 0.97134 0.47364 0.0
C1132 C 0.26939 0.99217 0.49759 0.0
C1133 C 0.30005 0.05313 0.56691 0.0
C1134 C 0.28943 0.03237 0.54277 0.0
H1135 H 0.26092 0.90624 0.44949 0.0
H1136 H 0.26785 0.93487 0.48978 0.0
H1137 H 0.23596 0.00907 0.49297 0.0
H1138 H 0.30591 0.12123 0.59267 0.0
H1139 H 0.28786 0.08816 0.55379 0.0
C1140 C 0.91949 0.23093 0.58673 0.0
C1141 C 0.93176 0.24744 0.60994 0.0
C1142 C 0.93863 0.23856 0.5645 0.0
C1143 C 0.02501 0.29316 0.54124 0.0
H1144 H 0.98641 0.26136 0.47469 0.0
C1145 C 0.09604 0.3464 0.44675 0.0
C1146 C 0.08859 0.32788 0.42422 0.0
C1147 C 0.07789 0.33443 0.46926 0.0
C1148 C 0.99786 0.27033 0.49308 0.0
H1149 H 0.97333 0.28665 0.62717 0.0
H1150 H 1.0062 0.30078 0.58931 0.0
H1151 H 0.95337 0.24583 0.51258 0.0
H1152 H 0.05645 0.28123 0.40847 0.0
H1153 H 0.0252 0.25989 0.44795 0.0
H1154 H 0.06946 0.31816 0.5213 0.0
C1155 C 0.98247 0.28056 0.5878 0.0
C1156 C 0.97862 0.26129 0.51534 0.0
C1157 C 0.96346 0.27242 0.61006 0.0
C1158 C 0.06308 0.29627 0.42537 0.0
C1159 C 0.04482 0.28417 0.44806 0.0
C1160 C 0.04409 0.30246 0.51899 0.0
C1161 C 0.97075 0.26372 0.56433 0.0
C1162 C 0.99158 0.27269 0.54011 0.0
C1163 C 0.05153 0.30325 0.47036 0.0
C1164 C 0.03097 0.29153 0.49438 0.0
H1165 H 0.89501 0.2117 0.58579 0.0
H1166 H 0.92779 0.2242 0.54763 0.0
H1167 H 0.03716 0.30218 0.5593 0.0
H1168 H 0.11529 0.37089 0.4467 0.0
H1169 H 0.08394 0.35037 0.48552 0.0
loop_
_geom_bond_atom_site_label_1
_geom_bond_atom_site_label_2
_geom_bond_distance
_geom_bond_site_symmetry_2
_ccdc_geom_bond_type
C0 Eu1 2.835 . S
C0 C2 1.500 . S
C0 O20 1.257 1_554 S
C0 O21 1.260 . S
Eu1 C0 2.835 . S
Eu1 O20 2.473 1_554 S
Eu1 O21 2.480 . S
Eu1 O22 2.430 . S
Eu1 O23 2.670 1_655 S
Eu1 O24 2.394 . S
Eu1 O29 2.355 1_554 S
Eu1 O31 2.377 1_655 S
C2 C0 1.500 . S
C2 C3 1.377 . S
C2 C7 1.377 1_554 S
C3 C2 1.377 . S
C3 C4 1.395 . S
C3 H32 0.931 . S
C4 C3 1.395 . S
C4 C5 1.383 . S
C4 H33 0.931 . S
C5 C4 1.383 . S
C5 C6 1.394 1_554 S
C6 C5 1.394 1_556 S
C6 C7 1.378 . S
C6 H34 0.931 . S
C7 C2 1.377 1_556 S
C7 C6 1.378 . S
C7 H35 0.931 . S
C8 O22 1.259 1_455 S
C8 O23 1.270 . S
C9 O24 1.251 . S
C9 O25 1.251 . S
C10 Eu11 2.835 . S
C10 C12 1.500 . S
C10 O26 1.257 1_556 S
C10 O27 1.260 . S
Eu11 C10 2.835 . S
Eu11 O23 2.355 1_556 S
Eu11 O25 2.374 1_456 S
Eu11 O26 2.473 1_556 S
Eu11 O27 2.480 . S
Eu11 O28 2.430 . S
Eu11 O29 2.670 1_455 S
Eu11 O30 2.394 . S
C12 C10 1.500 . S
C12 C13 1.377 . S
C12 C17 1.377 1_556 S
C13 C12 1.377 . S
C13 C14 1.395 . S
C13 H36 0.931 . S
C14 C13 1.395 . S
C14 C15 1.385 1_556 S
C14 H37 0.931 . S
C15 C14 1.385 1_554 S
C15 C16 1.392 . S
C16 C15 1.392 . S
C16 C17 1.378 . S
C16 H38 0.931 . S
C17 C12 1.377 1_554 S
C17 C16 1.378 . S
C17 H39 0.931 . S
C18 O28 1.259 1_655 S
C18 O29 1.270 . S
C19 O30 1.251 . S
C19 O31 1.247 1_556 S
O20 C0 1.257 1_556 S
O20 Eu1 2.473 1_556 S
O21 C0 1.260 . S
O21 Eu1 2.480 . S
O22 Eu1 2.430 . S
O22 C8 1.259 1_655 S
O23 Eu1 2.670 1_455 S
O23 C8 1.270 . S
O23 Eu11 2.355 1_554 S
O24 Eu1 2.394 . S
O24 C9 1.251 . S
O25 C9 1.251 . S
O25 Eu11 2.374 1_654 S
O26 C10 1.257 1_554 S
O26 Eu11 2.473 1_554 S
O27 C10 1.260 . S
O27 Eu11 2.480 . S
O28 Eu11 2.430 . S
O28 C18 1.259 1_455 S
O29 Eu1 2.355 1_556 S
O29 Eu11 2.670 1_655 S
O29 C18 1.270 . S
O30 Eu11 2.394 . S
O30 C19 1.251 . S
O31 Eu1 2.377 1_455 S
O31 C19 1.247 1_554 S
H32 C3 0.931 . S
H33 C4 0.931 . S
H34 C6 0.931 . S
H35 C7 0.931 . S
H36 C13 0.931 . S
H37 C14 0.931 . S
H38 C16 0.931 . S
H39 C17 0.931 . S
C40 Eu41 2.835 . S
C40 C42 1.500 . S
C40 O60 1.257 1_554 S
C40 O61 1.260 . S
Eu41 C40 2.835 . S
Eu41 O60 2.473 1_554 S
Eu41 O61 2.480 . S
Eu41 O62 2.430 . S
Eu41 O63 2.670 . S
Eu41 O64 2.394 . S
Eu41 O69 2.355 1_554 S
Eu41 O71 2.377 . S
C42 C40 1.500 . S
C42 C43 1.377 . S
C42 C47 1.377 1_554 S
C43 C42 1.377 . S
C43 C44 1.395 . S
C43 H72 0.931 . S
C44 C43 1.395 . S
C44 C45 1.383 . S
C44 H73 0.931 . S
C45 C44 1.383 . S
C45 C46 1.394 1_554 S
C46 C45 1.394 1_556 S
C46 C47 1.378 . S
C46 H74 0.931 . S
C47 C42 1.377 1_556 S
C47 C46 1.378 . S
C47 H75 0.931 . S
C48 O62 1.259 . S
C48 O63 1.270 . S
C49 O64 1.251 . S
C49 O65 1.251 . S
C50 Eu51 2.835 . S
C50 C52 1.500 . S
C50 O66 1.257 1_556 S
C50 O67 1.260 . S
Eu51 C50 2.835 . S
Eu51 O63 2.355 1_556 S
Eu51 O65 2.374 1_556 S
Eu51 O66 2.473 1_556 S
Eu51 O67 2.480 . S
Eu51 O68 2.430 . S
Eu51 O69 2.670 . S
Eu51 O70 2.394 . S
C52 C50 1.500 . S
C52 C53 1.377 . S
C52 C57 1.377 1_556 S
C53 C52 1.377 . S
C53 C54 1.395 . S
C53 H76 0.931 . S
C54 C53 1.395 . S
C54 C55 1.385 1_556 S
C54 H77 0.931 . S
C55 C54 1.385 1_554 S
C55 C56 1.393 . S
C56 C55 1.393 . S
C56 C57 1.378 . S
C56 H78 0.931 . S
C57 C52 1.377 1_554 S
C57 C56 1.378 . S
C57 H79 0.931 . S
C58 O68 1.259 . S
C58 O69 1.270 . S
C59 O70 1.251 . S
C59 O71 1.247 1_556 S
O60 C40 1.257 1_556 S
O60 Eu41 2.473 1_556 S
O61 C40 1.260 . S
O61 Eu41 2.480 . S
O62 Eu41 2.430 . S
O62 C48 1.259 . S
O63 Eu41 2.670 . S
O63 C48 1.270 . S
O63 Eu51 2.355 1_554 S
O64 Eu41 2.394 . S
O64 C49 1.251 . S
O65 C49 1.251 . S
O65 Eu51 2.374 1_554 S
O66 C50 1.257 1_554 S
O66 Eu51 2.473 1_554 S
O67 C50 1.260 . S
O67 Eu51 2.480 . S
O68 Eu51 2.430 . S
O68 C58 1.259 . S
O69 Eu41 2.355 1_556 S
O69 Eu51 2.670 . S
O69 C58 1.270 . S
O70 Eu51 2.394 . S
O70 C59 1.251 . S
O71 Eu41 2.377 . S
O71 C59 1.247 1_554 S
H72 C43 0.931 . S
H73 C44 0.931 . S
H74 C46 0.931 . S
H75 C47 0.931 . S
H76 C53 0.931 . S
H77 C54 0.931 . S
H78 C56 0.931 . S
H79 C57 0.931 . S
C80 Eu81 2.835 . S
C80 C82 1.500 . S
C80 O100 1.257 1_554 S
C80 O101 1.260 . S
Eu81 C80 2.835 . S
Eu81 O100 2.473 1_554 S
Eu81 O101 2.480 . S
Eu81 O102 2.430 . S
Eu81 O103 2.670 1_545 S
Eu81 O104 2.394 . S
Eu81 O109 2.355 1_554 S
Eu81 O111 2.377 1_545 S
C82 C80 1.500 . S
C82 C83 1.377 . S
C82 C87 1.377 1_554 S
C83 C82 1.377 . S
C83 C84 1.395 . S
C83 H112 0.931 . S
C84 C83 1.395 . S
C84 C85 1.383 . S
C84 H113 0.931 . S
C85 C84 1.383 . S
C85 C86 1.394 1_554 S
C86 C85 1.394 1_556 S
C86 C87 1.378 . S
C86 H114 0.931 . S
C87 C82 1.377 1_556 S
C87 C86 1.378 . S
C87 H115 0.931 . S
C88 O102 1.259 . S
C88 O103 1.270 1_545 S
C89 O104 1.251 . S
C89 O105 1.251 . S
C90 Eu91 2.835 . S
C90 C92 1.500 . S
C90 O106 1.257 1_556 S
C90 O107 1.260 . S
Eu91 C90 2.835 . S
Eu91 O103 2.355 1_556 S
Eu91 O105 2.374 1_566 S
Eu91 O106 2.473 1_556 S
Eu91 O107 2.480 . S
Eu91 O108 2.430 . S
Eu91 O109 2.670 1_565 S
Eu91 O110 2.394 . S
C92 C90 1.500 . S
C92 C93 1.377 . S
C92 C97 1.377 1_556 S
C93 C92 1.377 . S
C93 C94 1.395 . S
C93 H116 0.931 . S
C94 C93 1.395 . S
C94 C95 1.385 1_556 S
C94 H117 0.931 . S
C95 C94 1.385 1_554 S
C95 C96 1.392 . S
C96 C95 1.392 . S
C96 C97 1.378 . S
C96 H118 0.931 . S
C97 C92 1.377 1_554 S
C97 C96 1.378 . S
C97 H119 0.931 . S
C98 O108 1.259 1_545 S
C98 O109 1.270 . S
C99 O110 1.251 . S
C99 O111 1.247 1_556 S
O100 C80 1.257 1_556 S
O100 Eu81 2.473 1_556 S
O101 C80 1.260 . S
O101 Eu81 2.480 . S
O102 Eu81 2.430 . S
O102 C88 1.259 . S
O103 Eu81 2.670 1_565 S
O103 C88 1.270 1_565 S
O103 Eu91 2.355 1_554 S
O104 Eu81 2.394 . S
O104 C89 1.251 . S
O105 C89 1.251 . S
O105 Eu91 2.374 1_544 S
O106 C90 1.257 1_554 S
O106 Eu91 2.473 1_554 S
O107 C90 1.260 . S
O107 Eu91 2.480 . S
O108 Eu91 2.430 . S
O108 C98 1.259 1_565 S
O109 Eu81 2.355 1_556 S
O109 Eu91 2.670 1_545 S
O109 C98 1.270 . S
O110 Eu91 2.394 . S
O110 C99 1.251 . S
O111 Eu81 2.377 1_565 S
O111 C99 1.247 1_554 S
H112 C83 0.931 . S
H113 C84 0.931 . S
H114 C86 0.931 . S
H115 C87 0.931 . S
H116 C93 0.931 . S
H117 C94 0.931 . S
H118 C96 0.931 . S
H119 C97 0.931 . S
C120 Eu121 2.835 . S
C120 C122 1.500 . S
C120 O140 1.257 . S
C120 O141 1.260 . S
Eu121 C120 2.835 . S
Eu121 O140 2.473 . S
Eu121 O141 2.480 . S
Eu121 O142 2.430 . S
Eu121 O143 2.670 . S
Eu121 O144 2.394 . S
Eu121 O149 2.355 . S
Eu121 O151 2.374 . S
C122 C120 1.500 . S
C122 C123 1.377 . S
C122 C127 1.377 . S
C123 C122 1.377 . S
C123 C124 1.395 . S
C123 H152 0.931 . S
C124 C123 1.395 . S
C124 C125 1.383 . S
C124 H153 0.931 . S
C125 C124 1.383 . S
C125 C126 1.394 . S
C126 C125 1.394 . S
C126 C127 1.378 . S
C126 H154 0.931 . S
C127 C122 1.377 . S
C127 C126 1.378 . S
C127 H155 0.931 . S
C128 O142 1.259 . S
C128 O143 1.270 . S
C129 O144 1.251 . S
C129 O145 1.251 . S
C130 Eu131 2.835 . S
C130 C132 1.500 . S
C130 O146 1.257 . S
C130 O147 1.260 . S
Eu131 C130 2.835 . S
Eu131 O143 2.355 . S
Eu131 O145 2.374 . S
Eu131 O146 2.473 . S
Eu131 O147 2.480 . S
Eu131 O148 2.430 . S
Eu131 O149 2.670 . S
Eu131 O150 2.394 . S
C132 C130 1.500 . S
C132 C133 1.377 . S
C132 C137 1.377 . S
C133 C132 1.377 . S
C133 C134 1.395 . S
C133 H156 0.931 . S
C134 C133 1.395 . S
C134 C135 1.383 . S
C134 H157 0.931 . S
C135 C134 1.383 . S
C135 C136 1.394 . S
C136 C135 1.394 . S
C136 C137 1.378 . S
C136 H158 0.931 . S
C137 C132 1.377 . S
C137 C136 1.378 . S
C137 H159 0.931 . S
C138 O148 1.259 . S
C138 O149 1.270 . S
C139 O150 1.251 . S
C139 O151 1.251 . S
O140 C120 1.257 . S
O140 Eu121 2.473 . S
O141 C120 1.260 . S
O141 Eu121 2.480 . S
O142 Eu121 2.430 . S
O142 C128 1.259 . S
O143 Eu121 2.670 . S
O143 C128 1.270 . S
O143 Eu131 2.355 . S
O144 Eu121 2.394 . S
O144 C129 1.251 . S
O145 C129 1.251 . S
O145 Eu131 2.374 . S
O146 C130 1.257 . S
O146 Eu131 2.473 . S
O147 C130 1.260 . S
O147 Eu131 2.480 . S
O148 Eu131 2.430 . S
O148 C138 1.259 . S
O149 Eu121 2.355 . S
O149 Eu131 2.670 . S
O149 C138 1.270 . S
O150 Eu131 2.394 . S
O150 C139 1.251 . S
O151 Eu121 2.374 . S
O151 C139 1.251 . S
H152 C123 0.931 . S
H153 C124 0.931 . S
H154 C126 0.931 . S
H155 C127 0.931 . S
H156 C133 0.931 . S
H157 C134 0.931 . S
H158 C136 0.931 . S
H159 C137 0.931 . S
C160 Eu161 2.835 . S
C160 C162 1.500 . S
C160 O180 1.257 . S
C160 O181 1.260 . S
Eu161 C160 2.835 . S
Eu161 O180 2.473 . S
Eu161 O181 2.480 . S
Eu161 O182 2.430 . S
Eu161 O183 2.670 . S
Eu161 O184 2.394 . S
Eu161 O189 2.355 . S
Eu161 O191 2.374 . S
C162 C160 1.500 . S
C162 C163 1.377 . S
C162 C167 1.377 . S
C163 C162 1.377 . S
C163 C164 1.395 . S
C163 H192 0.931 . S
C164 C163 1.395 . S
C164 C165 1.383 . S
C164 H193 0.931 . S
C165 C164 1.383 . S
C165 C166 1.394 . S
C166 C165 1.394 . S
C166 C167 1.378 . S
C166 H194 0.931 . S
C167 C162 1.377 . S
C167 C166 1.378 . S
C167 H195 0.931 . S
C168 O182 1.259 . S
C168 O183 1.270 . S
C169 O184 1.251 . S
C169 O185 1.251 . S
C170 Eu171 2.835 . S
C170 C172 1.500 . S
C170 O186 1.257 . S
C170 O187 1.260 . S
Eu171 C170 2.835 . S
Eu171 O183 2.355 . S
Eu171 O185 2.374 . S
Eu171 O186 2.473 . S
Eu171 O187 2.480 . S
Eu171 O188 2.430 . S
Eu171 O189 2.670 . S
Eu171 O190 2.394 . S
C172 C170 1.500 . S
C172 C173 1.377 . S
C172 C177 1.377 . S
C173 C172 1.377 . S
C173 C174 1.395 . S
C173 H196 0.931 . S
C174 C173 1.395 . S
C174 C175 1.383 . S
C174 H197 0.931 . S
C175 C174 1.383 . S
C175 C176 1.394 . S
C176 C175 1.394 . S
C176 C177 1.378 . S
C176 H198 0.931 . S
C177 C172 1.377 . S
C177 C176 1.378 . S
C177 H199 0.931 . S
C178 O188 1.259 . S
C178 O189 1.270 . S
C179 O190 1.251 . S
C179 O191 1.251 . S
O180 C160 1.257 . S
O180 Eu161 2.473 . S
O181 C160 1.260 . S
O181 Eu161 2.480 . S
O182 Eu161 2.430 . S
O182 C168 1.259 . S
O183 Eu161 2.670 . S
O183 C168 1.270 . S
O183 Eu171 2.355 . S
O184 Eu161 2.394 . S
O184 C169 1.251 . S
O185 C169 1.251 . S
O185 Eu171 2.374 . S
O186 C170 1.257 . S
O186 Eu171 2.473 . S
O187 C170 1.260 . S
O187 Eu171 2.480 . S
O188 Eu171 2.430 . S
O188 C178 1.259 . S
O189 Eu161 2.355 . S
O189 Eu171 2.670 . S
O189 C178 1.270 . S
O190 Eu171 2.394 . S
O190 C179 1.251 . S
O191 Eu161 2.374 . S
O191 C179 1.251 . S
H192 C163 0.931 . S
H193 C164 0.931 . S
H194 C166 0.931 . S
H195 C167 0.931 . S
H196 C173 0.931 . S
H197 C174 0.931 . S
H198 C176 0.931 . S
H199 C177 0.931 . S
C200 Eu201 2.835 . S
C200 C202 1.500 . S
C200 O220 1.257 . S
C200 O221 1.260 . S
Eu201 C200 2.835 . S
Eu201 O220 2.473 . S
Eu201 O221 2.480 . S
Eu201 O222 2.430 . S
Eu201 O223 2.670 . S
Eu201 O224 2.394 . S
Eu201 O229 2.355 . S
Eu201 O231 2.374 . S
C202 C200 1.500 . S
C202 C203 1.377 . S
C202 C207 1.377 . S
C203 C202 1.377 . S
C203 C204 1.395 . S
C203 H232 0.931 . S
C204 C203 1.395 . S
C204 C205 1.383 . S
C204 H233 0.931 . S
C205 C204 1.383 . S
C205 C206 1.394 . S
C206 C205 1.394 . S
C206 C207 1.378 . S
C206 H234 0.931 . S
C207 C202 1.377 . S
C207 C206 1.378 . S
C207 H235 0.931 . S
C208 O222 1.259 . S
C208 O223 1.270 . S
C209 O224 1.251 . S
C209 O225 1.251 . S
C210 Eu211 2.835 . S
C210 C212 1.500 . S
C210 O226 1.257 . S
C210 O227 1.260 . S
Eu211 C210 2.835 . S
Eu211 O223 2.355 . S
Eu211 O225 2.374 . S
Eu211 O226 2.473 . S
Eu211 O227 2.480 . S
Eu211 O228 2.430 . S
Eu211 O229 2.670 . S
Eu211 O230 2.394 . S
C212 C210 1.500 . S
C212 C213 1.377 . S
C212 C217 1.377 . S
C213 C212 1.377 . S
C213 C214 1.395 . S
C213 H236 0.931 . S
C214 C213 1.395 . S
C214 C215 1.383 . S
C214 H237 0.931 . S
C215 C214 1.383 . S
C215 C216 1.394 . S
C216 C215 1.394 . S
C216 C217 1.378 . S
C216 H238 0.931 . S
C217 C212 1.377 . S
C217 C216 1.378 . S
C217 H239 0.931 . S
C218 O228 1.259 . S
C218 O229 1.270 . S
C219 O230 1.251 . S
C219 O231 1.251 . S
O220 C200 1.257 . S
O220 Eu201 2.473 . S
O221 C200 1.260 . S
O221 Eu201 2.480 . S
O222 Eu201 2.430 . S
O222 C208 1.259 . S
O223 Eu201 2.670 . S
O223 C208 1.270 . S
O223 Eu211 2.355 . S
O224 Eu201 2.394 . S
O224 C209 1.251 . S
O225 C209 1.251 . S
O225 Eu211 2.374 . S
O226 C210 1.257 . S
O226 Eu211 2.473 . S
O227 C210 1.260 . S
O227 Eu211 2.480 . S
O228 Eu211 2.430 . S
O228 C218 1.259 . S
O229 Eu201 2.355 . S
O229 Eu211 2.670 . S
O229 C218 1.270 . S
O230 Eu211 2.394 . S
O230 C219 1.251 . S
O231 Eu201 2.374 . S
O231 C219 1.251 . S
H232 C203 0.931 . S
H233 C204 0.931 . S
H234 C206 0.931 . S
H235 C207 0.931 . S
H236 C213 0.931 . S
H237 C214 0.931 . S
H238 C216 0.931 . S
H239 C217 0.931 . S
C240 Eu241 2.835 . S
C240 C242 1.505 . S
C240 O260 1.257 . S
C240 O261 1.260 . S
Eu241 C240 2.835 . S
Eu241 O260 2.473 . S
Eu241 O261 2.480 . S
Eu241 O262 2.430 . S
Eu241 O263 2.670 . S
Eu241 O264 2.394 . S
Eu241 O269 2.355 . S
Eu241 O271 2.374 . S
C242 C240 1.505 . S
C242 C243 1.369 1_545 S
C242 C247 1.379 1_545 S
C243 C242 1.369 1_565 S
C243 C244 1.395 . S
C243 H272 0.931 . S
C244 C243 1.395 . S
C244 C245 1.383 . S
C244 H273 0.931 . S
C245 C244 1.383 . S
C245 C246 1.394 . S
C246 C245 1.394 . S
C246 C247 1.378 . S
C246 H274 0.931 . S
C247 C242 1.379 1_565 S
C247 C246 1.378 . S
C247 H275 0.931 1_565 S
C248 O262 1.259 . S
C248 O263 1.270 . S
C249 O264 1.251 . S
C249 O265 1.251 . S
C250 Eu251 2.835 . S
C250 C252 1.500 . S
C250 O266 1.257 . S
C250 O267 1.260 . S
Eu251 C250 2.835 . S
Eu251 O263 2.355 . S
Eu251 O265 2.374 . S
Eu251 O266 2.473 . S
Eu251 O267 2.480 . S
Eu251 O268 2.430 . S
Eu251 O269 2.670 . S
Eu251 O270 2.394 . S
C252 C250 1.500 . S
C252 C253 1.377 . S
C252 C257 1.377 . S
C253 C252 1.377 . S
C253 C254 1.395 . S
C253 H276 0.931 . S
C254 C253 1.395 . S
C254 C255 1.383 . S
C254 H277 0.931 . S
C255 C254 1.383 . S
C255 C256 1.394 . S
C256 C255 1.394 . S
C256 C257 1.378 . S
C256 H278 0.931 . S
C257 C252 1.377 . S
C257 C256 1.378 . S
C257 H279 0.931 . S
C258 O268 1.259 . S
C258 O269 1.270 . S
C259 O270 1.251 . S
C259 O271 1.251 . S
O260 C240 1.257 . S
O260 Eu241 2.473 . S
O261 C240 1.260 . S
O261 Eu241 2.480 . S
O262 Eu241 2.430 . S
O262 C248 1.259 . S
O263 Eu241 2.670 . S
O263 C248 1.270 . S
O263 Eu251 2.355 . S
O264 Eu241 2.394 . S
O264 C249 1.251 . S
O265 C249 1.251 . S
O265 Eu251 2.374 . S
O266 C250 1.257 . S
O266 Eu251 2.473 . S
O267 C250 1.260 . S
O267 Eu251 2.480 . S
O268 Eu251 2.430 . S
O268 C258 1.259 . S
O269 Eu241 2.355 . S
O269 Eu251 2.670 . S
O269 C258 1.270 . S
O270 Eu251 2.394 . S
O270 C259 1.251 . S
O271 Eu241 2.374 . S
O271 C259 1.251 . S
H272 C243 0.931 . S
H273 C244 0.931 . S
H274 C246 0.931 . S
H275 C247 0.931 1_545 S
H276 C253 0.931 . S
H277 C254 0.931 . S
H278 C256 0.931 . S
H279 C257 0.931 . S
C280 Eu281 2.835 . S
C280 C282 1.500 1_655 S
C280 O300 1.257 . S
C280 O301 1.260 . S
Eu281 C280 2.835 . S
Eu281 O300 2.473 . S
Eu281 O301 2.480 . S
Eu281 O302 2.430 . S
Eu281 O303 2.670 . S
Eu281 O304 2.394 . S
Eu281 O309 2.355 . S
Eu281 O311 2.374 . S
C282 C280 1.500 1_455 S
C282 C283 1.377 . S
C282 C287 1.377 . S
C283 C282 1.377 . S
C283 C284 1.395 . S
C283 H312 0.931 . S
C284 C283 1.395 . S
C284 C285 1.383 . S
C284 H313 0.931 . S
C285 C284 1.383 . S
C285 C286 1.394 . S
C286 C285 1.394 . S
C286 C287 1.378 . S
C286 H314 0.931 . S
C287 C282 1.377 . S
C287 C286 1.378 . S
C287 H315 0.931 . S
C288 O302 1.259 . S
C288 O303 1.270 . S
C289 O304 1.251 . S
C289 O305 1.251 . S
C290 Eu291 2.835 . S
C290 C292 1.500 . S
C290 O306 1.257 . S
C290 O307 1.260 . S
Eu291 C290 2.835 . S
Eu291 O303 2.355 . S
Eu291 O305 2.374 . S
Eu291 O306 2.473 . S
Eu291 O307 2.480 . S
Eu291 O308 2.430 . S
Eu291 O309 2.670 . S
Eu291 O310 2.394 . S
C292 C290 1.500 . S
C292 C293 1.377 . S
C292 C297 1.377 . S
C293 C292 1.377 . S
C293 C294 1.395 . S
C293 H316 0.931 . S
C294 C293 1.395 . S
C294 C295 1.383 . S
C294 H317 0.931 . S
C295 C294 1.383 . S
C295 C296 1.394 . S
C296 C295 1.394 . S
C296 C297 1.378 . S
C296 H318 0.931 . S
C297 C292 1.377 . S
C297 C296 1.378 . S
C297 H319 0.931 . S
C298 O308 1.259 . S
C298 O309 1.270 . S
C299 O310 1.251 . S
C299 O311 1.251 . S
O300 C280 1.257 . S
O300 Eu281 2.473 . S
O301 C280 1.260 . S
O301 Eu281 2.480 . S
O302 Eu281 2.430 . S
O302 C288 1.259 . S
O303 Eu281 2.670 . S
O303 C288 1.270 . S
O303 Eu291 2.355 . S
O304 Eu281 2.394 . S
O304 C289 1.251 . S
O305 C289 1.251 . S
O305 Eu291 2.374 . S
O306 C290 1.257 . S
O306 Eu291 2.473 . S
O307 C290 1.260 . S
O307 Eu291 2.480 . S
O308 Eu291 2.430 . S
O308 C298 1.259 . S
O309 Eu281 2.355 . S
O309 Eu291 2.670 . S
O309 C298 1.270 . S
O310 Eu291 2.394 . S
O310 C299 1.251 . S
O311 Eu281 2.374 . S
O311 C299 1.251 . S
H312 C283 0.931 . S
H313 C284 0.931 . S
H314 C286 0.931 . S
H315 C287 0.931 . S
H316 C293 0.931 . S
H317 C294 0.931 . S
H318 C296 0.931 . S
H319 C297 0.931 . S
C320 Eu321 2.835 . S
C320 C322 1.500 . S
C320 O340 1.257 . S
C320 O341 1.260 . S
Eu321 C320 2.835 . S
Eu321 O340 2.473 . S
Eu321 O341 2.480 . S
Eu321 O342 2.430 . S
Eu321 O343 2.670 . S
Eu321 O344 2.394 . S
Eu321 O349 2.355 . S
Eu321 O351 2.374 . S
C322 C320 1.500 . S
C322 C323 1.377 . S
C322 C327 1.377 . S
C323 C322 1.377 . S
C323 C324 1.395 . S
C323 H352 0.931 . S
C324 C323 1.395 . S
C324 C325 1.383 . S
C324 H353 0.931 . S
C325 C324 1.383 . S
C325 C326 1.394 . S
C326 C325 1.394 . S
C326 C327 1.378 . S
C326 H354 0.931 . S
C327 C322 1.377 . S
C327 C326 1.378 . S
C327 H355 0.931 . S
C328 O342 1.259 . S
C328 O343 1.270 . S
C329 O344 1.251 . S
C329 O345 1.251 . S
C330 Eu331 2.835 . S
C330 C332 1.500 . S
C330 O346 1.257 . S
C330 O347 1.260 . S
Eu331 C330 2.835 . S
Eu331 O343 2.355 . S
Eu331 O345 2.374 . S
Eu331 O346 2.473 . S
Eu331 O347 2.480 . S
Eu331 O348 2.430 . S
Eu331 O349 2.670 . S
Eu331 O350 2.394 . S
C332 C330 1.500 . S
C332 C333 1.377 . S
C332 C337 1.377 . S
C333 C332 1.377 . S
C333 C334 1.395 . S
C333 H356 0.931 . S
C334 C333 1.395 . S
C334 C335 1.383 . S
C334 H357 0.931 . S
C335 C334 1.383 . S
C335 C336 1.394 . S
C336 C335 1.394 . S
C336 C337 1.378 . S
C336 H358 0.931 . S
C337 C332 1.377 . S
C337 C336 1.378 . S
C337 H359 0.931 . S
C338 O348 1.259 . S
C338 O349 1.270 . S
C339 O350 1.251 . S
C339 O351 1.251 . S
O340 C320 1.257 . S
O340 Eu321 2.473 . S
O341 C320 1.260 . S
O341 Eu321 2.480 . S
O342 Eu321 2.430 . S
O342 C328 1.259 . S
O343 Eu321 2.670 . S
O343 C328 1.270 . S
O343 Eu331 2.355 . S
O344 Eu321 2.394 . S
O344 C329 1.251 . S
O345 C329 1.251 . S
O345 Eu331 2.374 . S
O346 C330 1.257 . S
O346 Eu331 2.473 . S
O347 C330 1.260 . S
O347 Eu331 2.480 . S
O348 Eu331 2.430 . S
O348 C338 1.259 . S
O349 Eu321 2.355 . S
O349 Eu331 2.670 . S
O349 C338 1.270 . S
O350 Eu331 2.394 . S
O350 C339 1.251 . S
O351 Eu321 2.374 . S
O351 C339 1.251 . S
H352 C323 0.931 . S
H353 C324 0.931 . S
H354 C326 0.931 . S
H355 C327 0.931 . S
H356 C333 0.931 . S
H357 C334 0.931 . S
H358 C336 0.931 . S
H359 C337 0.931 . S
C360 C361 1.356 . S
C360 C362 1.327 . S
C360 H385 0.950 . S
C361 C360 1.356 . S
C361 C377 1.342 1_554 S
C362 C360 1.327 . S
C362 C381 1.407 1_554 S
C362 H386 0.950 . S
C363 C380 1.574 . S
C363 C382 1.368 . S
C363 H387 0.949 . S
H364 C368 0.949 . S
C365 C366 1.349 . S
C365 C367 1.327 . S
C365 H388 0.950 . S
C366 C365 1.349 . S
C366 C378 1.349 1_556 S
C367 C365 1.327 . S
C367 C383 1.429 . S
C367 H389 0.950 . S
C368 H364 0.949 . S
C368 C376 1.574 . S
C368 C384 1.368 1_554 S
H369 C377 0.950 . S
H370 C375 0.950 . S
H371 C376 0.949 . S
H372 C378 0.950 . S
H373 C379 0.950 . S
H374 C380 0.949 . S
C375 H370 0.950 . S
C375 C377 1.327 . S
C375 C381 1.450 . S
C376 C368 1.574 . S
C376 H371 0.949 . S
C376 C382 1.368 1_554 S
C377 C361 1.342 1_556 S
C377 H369 0.950 . S
C377 C375 1.327 . S
C378 C366 1.349 1_554 S
C378 H372 0.950 . S
C378 C379 1.327 . S
C379 H373 0.950 . S
C379 C378 1.327 . S
C379 C383 1.429 1_554 S
C380 C363 1.574 . S
C380 H374 0.949 . S
C380 C384 1.368 . S
C381 C362 1.407 1_556 S
C381 C375 1.450 . S
C381 C382 1.524 . S
C382 C363 1.368 . S
C382 C376 1.368 1_556 S
C382 C381 1.524 . S
C383 C367 1.429 . S
C383 C379 1.429 1_556 S
C383 C384 1.523 . S
C384 C368 1.368 1_556 S
C384 C380 1.368 . S
C384 C383 1.523 . S
H385 C360 0.950 . S
H386 C362 0.950 . S
H387 C363 0.949 . S
H388 C365 0.950 . S
H389 C367 0.950 . S
C390 C391 1.342 1_556 S
C390 C392 1.327 . S
C390 H415 0.950 . S
C391 C390 1.342 1_554 S
C391 C407 1.356 . S
C392 C390 1.327 . S
C392 C411 1.452 . S
C392 H416 0.950 . S
C393 C410 1.574 . S
C393 C412 1.368 1_554 S
C393 H417 0.949 . S
H394 C398 0.949 . S
C395 C396 1.349 1_554 S
C395 C397 1.327 . S
C395 H418 0.950 . S
C396 C395 1.349 1_556 S
C396 C408 1.349 . S
C397 C395 1.327 . S
C397 C413 1.429 1_554 S
C397 H419 0.950 . S
C398 H394 0.949 . S
C398 C406 1.574 . S
C398 C414 1.368 . S
H399 C407 0.950 . S
H400 C405 0.950 . S
H401 C406 0.949 . S
H402 C408 0.950 . S
H403 C409 0.950 . S
H404 C410 0.949 . S
C405 H400 0.950 . S
C405 C407 1.327 . S
C405 C411 1.405 1_554 S
C406 C398 1.574 . S
C406 H401 0.949 . S
C406 C412 1.368 . S
C407 C391 1.356 . S
C407 H399 0.950 . S
C407 C405 1.327 . S
C408 C396 1.349 . S
C408 H402 0.950 . S
C408 C409 1.327 . S
C409 H403 0.950 . S
C409 C408 1.327 . S
C409 C413 1.429 . S
C410 C393 1.574 . S
C410 H404 0.949 . S
C410 C414 1.368 1_554 S
C411 C392 1.452 . S
C411 C405 1.405 1_556 S
C411 C412 1.524 . S
C412 C393 1.368 1_556 S
C412 C406 1.368 . S
C412 C411 1.524 . S
C413 C397 1.429 1_556 S
C413 C409 1.429 . S
C413 C414 1.523 . S
C414 C398 1.368 . S
C414 C410 1.368 1_556 S
C414 C413 1.523 . S
H415 C390 0.950 . S
H416 C392 0.950 . S
H417 C393 0.949 . S
H418 C395 0.950 . S
H419 C397 0.950 . S
C420 C421 1.349 . S
C420 C422 1.327 . S
C420 H445 0.950 . S
C421 C420 1.349 . S
C421 C437 1.349 1_556 S
C422 C420 1.327 . S
C422 C441 1.429 . S
C422 H446 0.950 . S
C423 C440 1.574 . S
C423 C442 1.368 1_554 S
C423 H447 0.949 . S
H424 C428 0.949 . S
C425 C426 1.355 . S
C425 C427 1.327 . S
C425 H448 0.950 . S
C426 C425 1.355 . S
C426 C438 1.342 1_554 S
C427 C425 1.327 . S
C427 C443 1.406 1_554 S
C427 H449 0.950 . S
C428 H424 0.949 . S
C428 C436 1.574 . S
C428 C444 1.368 . S
H429 C437 0.950 . S
H430 C435 0.950 . S
H431 C436 0.949 . S
H432 C438 0.950 . S
H433 C439 0.950 . S
H434 C440 0.949 . S
C435 H430 0.950 . S
C435 C437 1.327 . S
C435 C441 1.429 1_554 S
C436 C428 1.574 . S
C436 H431 0.949 . S
C436 C442 1.368 . S
C437 C421 1.349 1_554 S
C437 H429 0.950 . S
C437 C435 1.327 . S
C438 C426 1.342 1_556 S
C438 H432 0.950 . S
C438 C439 1.327 . S
C439 H433 0.950 . S
C439 C438 1.327 . S
C439 C443 1.451 . S
C440 C423 1.574 . S
C440 H434 0.949 . S
C440 C444 1.368 1_554 S
C441 C422 1.429 . S
C441 C435 1.429 1_556 S
C441 C442 1.523 . S
C442 C423 1.368 1_556 S
C442 C436 1.368 . S
C442 C441 1.523 . S
C443 C427 1.406 1_556 S
C443 C439 1.451 . S
C443 C444 1.524 . S
C444 C428 1.368 . S
C444 C440 1.368 1_556 S
C444 C443 1.524 . S
H445 C420 0.950 . S
H446 C422 0.950 . S
H447 C423 0.949 . S
H448 C425 0.950 . S
H449 C427 0.950 . S
C450 C451 1.349 . S
C450 C452 1.327 . S
C450 H475 0.950 . S
C451 C450 1.349 . S
C451 C467 1.349 1_554 S
C452 C450 1.327 . S
C452 C471 1.429 . S
C452 H476 0.950 . S
C453 C470 1.574 . S
C453 C472 1.368 1_556 S
C453 H477 0.949 . S
H454 C458 0.949 . S
C455 C456 1.349 1_556 S
C455 C457 1.327 . S
C455 H478 0.950 . S
C456 C455 1.349 1_554 S
C456 C468 1.349 . S
C457 C455 1.327 . S
C457 C473 1.429 1_556 S
C457 H479 0.950 . S
C458 H454 0.949 . S
C458 C466 1.574 . S
C458 C474 1.368 . S
H459 C467 0.950 . S
H460 C465 0.950 . S
H461 C466 0.949 . S
H462 C468 0.950 . S
H463 C469 0.950 . S
H464 C470 0.949 . S
C465 H460 0.950 . S
C465 C467 1.327 . S
C465 C471 1.429 1_556 S
C466 C458 1.574 . S
C466 H461 0.949 . S
C466 C472 1.368 . S
C467 C451 1.349 1_556 S
C467 H459 0.950 . S
C467 C465 1.327 . S
C468 C456 1.349 . S
C468 H462 0.950 . S
C468 C469 1.327 . S
C469 H463 0.950 . S
C469 C468 1.327 . S
C469 C473 1.429 . S
C470 C453 1.574 . S
C470 H464 0.949 . S
C470 C474 1.368 1_556 S
C471 C452 1.429 . S
C471 C465 1.429 1_554 S
C471 C472 1.523 . S
C472 C453 1.368 1_554 S
C472 C466 1.368 . S
C472 C471 1.523 . S
C473 C457 1.429 1_554 S
C473 C469 1.429 . S
C473 C474 1.523 . S
C474 C458 1.368 . S
C474 C470 1.368 1_554 S
C474 C473 1.523 . S
H475 C450 0.950 . S
H476 C452 0.950 . S
H477 C453 0.949 . S
H478 C455 0.950 . S
H479 C457 0.950 . S
C480 C481 1.349 1_556 S
C480 C482 1.327 . S
C480 H505 0.950 . S
C481 C480 1.349 1_554 S
C481 C497 1.349 . S
C482 C480 1.327 . S
C482 C501 1.429 1_556 S
C482 H506 0.950 . S
C483 C500 1.574 . S
C483 C502 1.368 . S
C483 H507 0.949 . S
H484 C488 0.949 . S
C485 C486 1.349 . S
C485 C487 1.327 . S
C485 H508 0.950 . S
C486 C485 1.349 . S
C486 C498 1.349 1_554 S
C487 C485 1.327 . S
C487 C503 1.429 . S
C487 H509 0.950 . S
C488 H484 0.949 . S
C488 C496 1.574 . S
C488 C504 1.368 1_556 S
H489 C497 0.950 . S
H490 C495 0.950 . S
H491 C496 0.949 . S
H492 C498 0.950 . S
H493 C499 0.950 . S
H494 C500 0.949 . S
C495 H490 0.950 . S
C495 C497 1.327 . S
C495 C501 1.429 . S
C496 C488 1.574 . S
C496 H491 0.949 . S
C496 C502 1.368 1_556 S
C497 C481 1.349 . S
C497 H489 0.950 . S
C497 C495 1.327 . S
C498 C486 1.349 1_556 S
C498 H492 0.950 . S
C498 C499 1.327 . S
C499 H493 0.950 . S
C499 C498 1.327 . S
C499 C503 1.429 1_556 S
C500 C483 1.574 . S
C500 H494 0.949 . S
C500 C504 1.368 . S
C501 C482 1.429 1_554 S
C501 C495 1.429 . S
C501 C502 1.523 . S
C502 C483 1.368 . S
C502 C496 1.368 1_554 S
C502 C501 1.523 . S
C503 C487 1.429 . S
C503 C499 1.429 1_554 S
C503 C504 1.523 . S
C504 C488 1.368 1_554 S
C504 C500 1.368 . S
C504 C503 1.523 . S
H505 C480 0.950 . S
H506 C482 0.950 . S
H507 C483 0.949 . S
H508 C485 0.950 . S
H509 C487 0.950 . S
C510 C511 1.349 . S
C510 C512 1.327 . S
C510 H535 0.950 . S
C511 C510 1.349 . S
C511 C527 1.349 1_554 S
C512 C510 1.327 . S
C512 C531 1.429 . S
C512 H536 0.950 . S
C513 C530 1.574 . S
C513 C532 1.368 1_556 S
C513 H537 0.949 . S
H514 C518 0.949 . S
C515 C516 1.349 1_556 S
C515 C517 1.327 . S
C515 H538 0.950 . S
C516 C515 1.349 1_554 S
C516 C528 1.349 . S
C517 C515 1.327 . S
C517 C533 1.429 1_556 S
C517 H539 0.950 . S
C518 H514 0.949 . S
C518 C526 1.574 . S
C518 C534 1.368 . S
H519 C527 0.950 . S
H520 C525 0.950 . S
H521 C526 0.949 . S
H522 C528 0.950 . S
H523 C529 0.950 . S
H524 C530 0.949 . S
C525 H520 0.950 . S
C525 C527 1.327 . S
C525 C531 1.429 1_556 S
C526 C518 1.574 . S
C526 H521 0.949 . S
C526 C532 1.368 . S
C527 C511 1.349 1_556 S
C527 H519 0.950 . S
C527 C525 1.327 . S
C528 C516 1.349 . S
C528 H522 0.950 . S
C528 C529 1.327 . S
C529 H523 0.950 . S
C529 C528 1.327 . S
C529 C533 1.429 . S
C530 C513 1.574 . S
C530 H524 0.949 . S
C530 C534 1.368 1_556 S
C531 C512 1.429 . S
C531 C525 1.429 1_554 S
C531 C532 1.523 . S
C532 C513 1.368 1_554 S
C532 C526 1.368 . S
C532 C531 1.523 . S
C533 C517 1.429 1_554 S
C533 C529 1.429 . S
C533 C534 1.523 . S
C534 C518 1.368 . S
C534 C530 1.368 1_554 S
C534 C533 1.523 . S
H535 C510 0.950 . S
H536 C512 0.950 . S
H537 C513 0.949 . S
H538 C515 0.950 . S
H539 C517 0.950 . S
C540 C541 1.349 . S
C540 C542 1.327 . S
C540 H565 0.950 . S
C541 C540 1.349 . S
C541 C557 1.349 . S
C542 C540 1.327 . S
C542 C561 1.429 . S
C542 H566 0.950 . S
C543 C560 1.574 . S
C543 C562 1.368 . S
C543 H567 0.949 . S
H544 C548 0.949 . S
C545 C546 1.349 . S
C545 C547 1.327 1_455 S
C545 H568 0.950 . S
C546 C545 1.349 . S
C546 C558 1.349 . S
C547 C545 1.327 1_655 S
C547 C563 1.429 . S
C547 H569 0.950 . S
C548 H544 0.949 . S
C548 C556 1.574 . S
C548 C564 1.368 . S
H549 C557 0.950 . S
H550 C555 0.950 . S
H551 C556 0.949 . S
H552 C558 0.950 . S
H553 C559 0.950 . S
H554 C560 0.949 . S
C555 H550 0.950 . S
C555 C557 1.327 . S
C555 C561 1.429 . S
C556 C548 1.574 . S
C556 H551 0.949 . S
C556 C562 1.368 . S
C557 C541 1.349 . S
C557 H549 0.950 . S
C557 C555 1.327 . S
C558 C546 1.349 . S
C558 H552 0.950 . S
C558 C559 1.327 1_455 S
C559 H553 0.950 . S
C559 C558 1.327 1_655 S
C559 C563 1.429 . S
C560 C543 1.574 . S
C560 H554 0.949 . S
C560 C564 1.368 . S
C561 C542 1.429 . S
C561 C555 1.429 . S
C561 C562 1.523 . S
C562 C543 1.368 . S
C562 C556 1.368 . S
C562 C561 1.523 . S
C563 C547 1.429 . S
C563 C559 1.429 . S
C563 C564 1.523 . S
C564 C548 1.368 . S
C564 C560 1.368 . S
C564 C563 1.523 . S
H565 C540 0.950 . S
H566 C542 0.950 . S
H567 C543 0.949 . S
H568 C545 0.950 . S
H569 C547 0.950 . S
C570 C571 1.349 . S
C570 C572 1.327 . S
C570 H595 0.950 . S
C571 C570 1.349 . S
C571 C587 1.349 . S
C572 C570 1.327 . S
C572 C591 1.429 . S
C572 H596 0.950 . S
C573 C590 1.574 . S
C573 C592 1.368 . S
C573 H597 0.949 . S
H574 C578 0.949 . S
C575 C576 1.349 . S
C575 C577 1.327 . S
C575 H598 0.950 . S
C576 C575 1.349 . S
C576 C588 1.349 . S
C577 C575 1.327 . S
C577 C593 1.429 1_565 S
C577 H599 0.950 . S
C578 H574 0.949 . S
C578 C586 1.574 . S
C578 C594 1.368 . S
H579 C587 0.950 . S
H580 C585 0.950 . S
H581 C586 0.949 . S
H582 C588 0.950 1_545 S
H583 C589 0.950 . S
H584 C590 0.949 . S
C585 H580 0.950 . S
C585 C587 1.327 . S
C585 C591 1.429 . S
C586 C578 1.574 . S
C586 H581 0.949 . S
C586 C592 1.368 . S
C587 C571 1.349 . S
C587 H579 0.950 . S
C587 C585 1.327 . S
C588 C576 1.349 . S
C588 H582 0.950 1_565 S
C588 C589 1.327 1_565 S
C589 H583 0.950 . S
C589 C588 1.327 1_545 S
C589 C593 1.429 . S
C590 C573 1.574 . S
C590 H584 0.949 . S
C590 C594 1.368 . S
C591 C572 1.429 . S
C591 C585 1.429 . S
C591 C592 1.523 . S
C592 C573 1.368 . S
C592 C586 1.368 . S
C592 C591 1.523 . S
C593 C577 1.429 1_545 S
C593 C589 1.429 . S
C593 C594 1.523 . S
C594 C578 1.368 . S
C594 C590 1.368 . S
C594 C593 1.523 . S
H595 C570 0.950 . S
H596 C572 0.950 . S
H597 C573 0.949 . S
H598 C575 0.950 . S
H599 C577 0.950 . S
C600 C601 1.349 . S
C600 C602 1.327 1_455 S
C600 H625 0.950 . S
C601 C600 1.349 . S
C601 C617 1.349 . S
C602 C600 1.327 1_655 S
C602 C621 1.429 . S
C602 H626 0.950 . S
C603 C620 1.574 . S
C603 C622 1.368 . S
C603 H627 0.949 . S
H604 C608 0.949 . S
C605 C606 1.349 1_545 S
C605 C607 1.327 . S
C605 H628 0.950 1_545 S
C606 C605 1.349 1_565 S
C606 C618 1.349 1_565 S
C607 C605 1.327 . S
C607 C623 1.429 . S
C607 H629 0.950 . S
C608 H604 0.949 . S
C608 C616 1.574 . S
C608 C624 1.368 . S
H609 C617 0.950 . S
H610 C615 0.950 . S
H611 C616 0.949 . S
H612 C618 0.950 . S
H613 C619 0.950 . S
H614 C620 0.949 . S
C615 H610 0.950 . S
C615 C617 1.327 . S
C615 C621 1.429 1_455 S
C616 C608 1.574 . S
C616 H611 0.949 . S
C616 C622 1.368 . S
C617 C601 1.349 . S
C617 H609 0.950 . S
C617 C615 1.327 . S
C618 C606 1.349 1_545 S
C618 H612 0.950 . S
C618 C619 1.327 . S
C619 H613 0.950 . S
C619 C618 1.327 . S
C619 C623 1.429 . S
C620 C603 1.574 . S
C620 H614 0.949 . S
C620 C624 1.368 . S
C621 C602 1.429 . S
C621 C615 1.429 1_655 S
C621 C622 1.523 . S
C622 C603 1.368 . S
C622 C616 1.368 . S
C622 C621 1.523 . S
C623 C607 1.429 . S
C623 C619 1.429 . S
C623 C624 1.523 . S
C624 C608 1.368 . S
C624 C620 1.368 . S
C624 C623 1.523 . S
H625 C600 0.950 . S
H626 C602 0.950 . S
H627 C603 0.949 . S
H628 C605 0.950 1_565 S
H629 C607 0.950 . S
C630 C631 1.349 . S
C630 C632 1.327 . S
C630 H655 0.950 . S
C631 C630 1.349 . S
C631 C647 1.349 . S
C632 C630 1.327 . S
C632 C651 1.429 . S
C632 H656 0.950 . S
C633 C650 1.574 . S
C633 C652 1.368 . S
C633 H657 0.949 . S
H634 C638 0.949 . S
C635 C636 1.349 . S
C635 C637 1.327 . S
C635 H658 0.950 . S
C636 C635 1.349 . S
C636 C648 1.349 . S
C637 C635 1.327 . S
C637 C653 1.429 . S
C637 H659 0.950 . S
C638 H634 0.949 . S
C638 C646 1.574 . S
C638 C654 1.368 . S
H639 C647 0.950 . S
H640 C645 0.950 . S
H641 C646 0.949 . S
H642 C648 0.950 . S
H643 C649 0.950 . S
H644 C650 0.949 . S
C645 H640 0.950 . S
C645 C647 1.327 . S
C645 C651 1.429 . S
C646 C638 1.574 . S
C646 H641 0.949 . S
C646 C652 1.368 . S
C647 C631 1.349 . S
C647 H639 0.950 . S
C647 C645 1.327 . S
C648 C636 1.349 . S
C648 H642 0.950 . S
C648 C649 1.327 . S
C649 H643 0.950 . S
C649 C648 1.327 . S
C649 C653 1.429 . S
C650 C633 1.574 . S
C650 H644 0.949 . S
C650 C654 1.368 . S
C651 C632 1.429 . S
C651 C645 1.429 . S
C651 C652 1.523 . S
C652 C633 1.368 . S
C652 C646 1.368 . S
C652 C651 1.523 . S
C653 C637 1.429 . S
C653 C649 1.429 . S
C653 C654 1.523 . S
C654 C638 1.368 . S
C654 C650 1.368 . S
C654 C653 1.523 . S
H655 C630 0.950 . S
H656 C632 0.950 . S
H657 C633 0.949 . S
H658 C635 0.950 . S
H659 C637 0.950 . S
C660 C661 1.349 . S
C660 C662 1.327 . S
C660 H685 0.950 . S
C661 C660 1.349 . S
C661 C677 1.349 . S
C662 C660 1.327 . S
C662 C681 1.429 . S
C662 H686 0.950 . S
C663 C680 1.574 . S
C663 C682 1.368 . S
C663 H687 0.949 . S
H664 C668 0.949 . S
C665 C666 1.349 . S
C665 C667 1.327 . S
C665 H688 0.950 . S
C666 C665 1.349 . S
C666 C678 1.349 . S
C667 C665 1.327 . S
C667 C683 1.429 . S
C667 H689 0.950 . S
C668 H664 0.949 . S
C668 C676 1.574 . S
C668 C684 1.368 . S
H669 C677 0.950 . S
H670 C675 0.950 . S
H671 C676 0.949 . S
H672 C678 0.950 . S
H673 C679 0.950 . S
H674 C680 0.949 . S
C675 H670 0.950 . S
C675 C677 1.327 . S
C675 C681 1.429 . S
C676 C668 1.574 . S
C676 H671 0.949 . S
C676 C682 1.368 . S
C677 C661 1.349 . S
C677 H669 0.950 . S
C677 C675 1.327 . S
C678 C666 1.349 . S
C678 H672 0.950 . S
C678 C679 1.327 . S
C679 H673 0.950 . S
C679 C678 1.327 . S
C679 C683 1.429 . S
C680 C663 1.574 . S
C680 H674 0.949 . S
C680 C684 1.368 . S
C681 C662 1.429 . S
C681 C675 1.429 . S
C681 C682 1.523 . S
C682 C663 1.368 . S
C682 C676 1.368 . S
C682 C681 1.523 . S
C683 C667 1.429 . S
C683 C679 1.429 . S
C683 C684 1.523 . S
C684 C668 1.368 . S
C684 C680 1.368 . S
C684 C683 1.523 . S
H685 C660 0.950 . S
H686 C662 0.950 . S
H687 C663 0.949 . S
H688 C665 0.950 . S
H689 C667 0.950 . S
C690 C691 1.349 . S
C690 C692 1.327 . S
C690 H715 0.950 . S
C691 C690 1.349 . S
C691 C707 1.349 . S
C692 C690 1.327 . S
C692 C711 1.429 . S
C692 H716 0.950 . S
C693 C710 1.574 . S
C693 C712 1.368 . S
C693 H717 0.949 . S
H694 C698 0.949 . S
C695 C696 1.349 . S
C695 C697 1.327 . S
C695 H718 0.950 . S
C696 C695 1.349 . S
C696 C708 1.349 . S
C697 C695 1.327 . S
C697 C713 1.429 . S
C697 H719 0.950 . S
C698 H694 0.949 . S
C698 C706 1.574 . S
C698 C714 1.368 . S
H699 C707 0.950 . S
H700 C705 0.950 . S
H701 C706 0.949 . S
H702 C708 0.950 . S
H703 C709 0.950 . S
H704 C710 0.949 . S
C705 H700 0.950 . S
C705 C707 1.327 . S
C705 C711 1.429 . S
C706 C698 1.574 . S
C706 H701 0.949 . S
C706 C712 1.368 . S
C707 C691 1.349 . S
C707 H699 0.950 . S
C707 C705 1.327 . S
C708 C696 1.349 . S
C708 H702 0.950 . S
C708 C709 1.327 . S
C709 H703 0.950 . S
C709 C708 1.327 . S
C709 C713 1.429 . S
C710 C693 1.574 . S
C710 H704 0.949 . S
C710 C714 1.368 . S
C711 C692 1.429 . S
C711 C705 1.429 . S
C711 C712 1.523 . S
C712 C693 1.368 . S
C712 C706 1.368 . S
C712 C711 1.523 . S
C713 C697 1.429 . S
C713 C709 1.429 . S
C713 C714 1.523 . S
C714 C698 1.368 . S
C714 C710 1.368 . S
C714 C713 1.523 . S
H715 C690 0.950 . S
H716 C692 0.950 . S
H717 C693 0.949 . S
H718 C695 0.950 . S
H719 C697 0.950 . S
C720 C721 1.349 . S
C720 C722 1.327 . S
C720 H745 0.950 . S
C721 C720 1.349 . S
C721 C737 1.349 . S
C722 C720 1.327 . S
C722 C741 1.429 . S
C722 H746 0.950 . S
C723 C740 1.574 . S
C723 C742 1.368 . S
C723 H747 0.949 . S
H724 C728 0.949 . S
C725 C726 1.349 . S
C725 C727 1.327 . S
C725 H748 0.950 . S
C726 C725 1.349 . S
C726 C738 1.349 . S
C727 C725 1.327 . S
C727 C743 1.429 . S
C727 H749 0.950 . S
C728 H724 0.949 . S
C728 C736 1.574 . S
C728 C744 1.368 . S
H729 C737 0.950 . S
H730 C735 0.950 . S
H731 C736 0.949 . S
H732 C738 0.950 . S
H733 C739 0.950 . S
H734 C740 0.949 . S
C735 H730 0.950 . S
C735 C737 1.327 . S
C735 C741 1.429 . S
C736 C728 1.574 . S
C736 H731 0.949 . S
C736 C742 1.368 . S
C737 C721 1.349 . S
C737 H729 0.950 . S
C737 C735 1.327 . S
C738 C726 1.349 . S
C738 H732 0.950 . S
C738 C739 1.327 . S
C739 H733 0.950 . S
C739 C738 1.327 . S
C739 C743 1.429 . S
C740 C723 1.574 . S
C740 H734 0.949 . S
C740 C744 1.368 . S
C741 C722 1.429 . S
C741 C735 1.429 . S
C741 C742 1.523 . S
C742 C723 1.368 . S
C742 C736 1.368 . S
C742 C741 1.523 . S
C743 C727 1.429 . S
C743 C739 1.429 . S
C743 C744 1.523 . S
C744 C728 1.368 . S
C744 C740 1.368 . S
C744 C743 1.523 . S
H745 C720 0.950 . S
H746 C722 0.950 . S
H747 C723 0.949 . S
H748 C725 0.950 . S
H749 C727 0.950 . S
C750 C751 1.349 . S
C750 C752 1.327 . S
C750 H775 0.950 . S
C751 C750 1.349 . S
C751 C767 1.349 . S
C752 C750 1.327 . S
C752 C771 1.429 . S
C752 H776 0.950 . S
C753 C770 1.574 . S
C753 C772 1.368 . S
C753 H777 0.949 . S
H754 C758 0.949 . S
C755 C756 1.349 . S
C755 C757 1.327 . S
C755 H778 0.950 . S
C756 C755 1.349 . S
C756 C768 1.349 . S
C757 C755 1.327 . S
C757 C773 1.429 . S
C757 H779 0.950 . S
C758 H754 0.949 . S
C758 C766 1.574 . S
C758 C774 1.368 . S
H759 C767 0.950 . S
H760 C765 0.950 . S
H761 C766 0.949 . S
H762 C768 0.950 . S
H763 C769 0.950 . S
H764 C770 0.949 . S
C765 H760 0.950 . S
C765 C767 1.327 . S
C765 C771 1.429 . S
C766 C758 1.574 . S
C766 H761 0.949 . S
C766 C772 1.368 . S
C767 C751 1.349 . S
C767 H759 0.950 . S
C767 C765 1.327 . S
C768 C756 1.349 . S
C768 H762 0.950 . S
C768 C769 1.327 . S
C769 H763 0.950 . S
C769 C768 1.327 . S
C769 C773 1.429 . S
C770 C753 1.574 . S
C770 H764 0.949 . S
C770 C774 1.368 . S
C771 C752 1.429 . S
C771 C765 1.429 . S
C771 C772 1.523 . S
C772 C753 1.368 . S
C772 C766 1.368 . S
C772 C771 1.523 . S
C773 C757 1.429 . S
C773 C769 1.429 . S
C773 C774 1.523 . S
C774 C758 1.368 . S
C774 C770 1.368 . S
C774 C773 1.523 . S
H775 C750 0.950 . S
H776 C752 0.950 . S
H777 C753 0.949 . S
H778 C755 0.950 . S
H779 C757 0.950 . S
C780 C781 1.349 . S
C780 C782 1.327 . S
C780 H805 0.950 . S
C781 C780 1.349 . S
C781 C797 1.349 . S
C782 C780 1.327 . S
C782 C801 1.429 . S
C782 H806 0.950 . S
C783 C800 1.574 . S
C783 C802 1.368 . S
C783 H807 0.949 . S
H784 C788 0.949 . S
C785 C786 1.349 . S
C785 C787 1.327 . S
C785 H808 0.950 . S
C786 C785 1.349 . S
C786 C798 1.349 . S
C787 C785 1.327 . S
C787 C803 1.429 . S
C787 H809 0.950 . S
C788 H784 0.949 . S
C788 C796 1.574 . S
C788 C804 1.368 . S
H789 C797 0.950 . S
H790 C795 0.950 . S
H791 C796 0.949 . S
H792 C798 0.950 . S
H793 C799 0.950 . S
H794 C800 0.949 . S
C795 H790 0.950 . S
C795 C797 1.327 . S
C795 C801 1.429 . S
C796 C788 1.574 . S
C796 H791 0.949 . S
C796 C802 1.368 . S
C797 C781 1.349 . S
C797 H789 0.950 . S
C797 C795 1.327 . S
C798 C786 1.349 . S
C798 H792 0.950 . S
C798 C799 1.327 . S
C799 H793 0.950 . S
C799 C798 1.327 . S
C799 C803 1.429 . S
C800 C783 1.574 . S
C800 H794 0.949 . S
C800 C804 1.368 . S
C801 C782 1.429 . S
C801 C795 1.429 . S
C801 C802 1.523 . S
C802 C783 1.368 . S
C802 C796 1.368 . S
C802 C801 1.523 . S
C803 C787 1.429 . S
C803 C799 1.429 . S
C803 C804 1.523 . S
C804 C788 1.368 . S
C804 C800 1.368 . S
C804 C803 1.523 . S
H805 C780 0.950 . S
H806 C782 0.950 . S
H807 C783 0.949 . S
H808 C785 0.950 . S
H809 C787 0.950 . S
C810 C811 1.349 . S
C810 C812 1.327 . S
C810 H835 0.950 . S
C811 C810 1.349 . S
C811 C827 1.349 . S
C812 C810 1.327 . S
C812 C831 1.429 . S
C812 H836 0.950 . S
C813 C830 1.574 1_565 S
C813 C832 1.368 . S
C813 H837 0.949 . S
H814 C818 0.949 . S
C815 C816 1.349 . S
C815 C817 1.327 . S
C815 H838 0.950 . S
C816 C815 1.349 . S
C816 C828 1.349 . S
C817 C815 1.327 . S
C817 C833 1.429 . S
C817 H839 0.950 . S
C818 H814 0.949 . S
C818 C826 1.557 1_545 S
C818 C834 1.368 . S
H819 C827 0.950 . S
H820 C825 0.950 . S
H821 C826 0.962 . S
H822 C828 0.950 . S
H823 C829 0.950 . S
H824 C830 0.949 . S
C825 H820 0.950 . S
C825 C827 1.327 . S
C825 C831 1.429 . S
C826 C818 1.557 1_565 S
C826 H821 0.962 . S
C826 C832 1.371 . S
C827 C811 1.349 . S
C827 H819 0.950 . S
C827 C825 1.327 . S
C828 C816 1.349 . S
C828 H822 0.950 . S
C828 C829 1.327 . S
C829 H823 0.950 . S
C829 C828 1.327 . S
C829 C833 1.429 . S
C830 C813 1.574 1_545 S
C830 H824 0.949 . S
C830 C834 1.368 . S
C831 C812 1.429 . S
C831 C825 1.429 . S
C831 C832 1.523 . S
C832 C813 1.368 . S
C832 C826 1.371 . S
C832 C831 1.523 . S
C833 C817 1.429 . S
C833 C829 1.429 . S
C833 C834 1.523 . S
C834 C818 1.368 . S
C834 C830 1.368 . S
C834 C833 1.523 . S
H835 C810 0.950 . S
H836 C812 0.950 . S
H837 C813 0.949 . S
H838 C815 0.950 . S
H839 C817 0.950 . S
C840 C841 1.349 . S
C840 C842 1.327 . S
C840 H865 0.950 . S
C841 C840 1.349 . S
C841 C857 1.349 . S
C842 C840 1.327 . S
C842 C861 1.429 . S
C842 H866 0.950 . S
C843 C860 1.574 1_655 S
C843 C862 1.368 . S
C843 H867 0.949 . S
H844 C848 0.949 . S
C845 C846 1.349 . S
C845 C847 1.327 . S
C845 H868 0.950 . S
C846 C845 1.349 . S
C846 C858 1.349 . S
C847 C845 1.327 . S
C847 C863 1.429 . S
C847 H869 0.950 . S
C848 H844 0.949 . S
C848 C856 1.574 1_455 S
C848 C864 1.368 . S
H849 C857 0.950 . S
H850 C855 0.950 . S
H851 C856 0.949 . S
H852 C858 0.950 . S
H853 C859 0.950 . S
H854 C860 0.949 . S
C855 H850 0.950 . S
C855 C857 1.327 . S
C855 C861 1.429 . S
C856 C848 1.574 1_655 S
C856 H851 0.949 . S
C856 C862 1.368 . S
C857 C841 1.349 . S
C857 H849 0.950 . S
C857 C855 1.327 . S
C858 C846 1.349 . S
C858 H852 0.950 . S
C858 C859 1.327 . S
C859 H853 0.950 . S
C859 C858 1.327 . S
C859 C863 1.429 . S
C860 C843 1.574 1_455 S
C860 H854 0.949 . S
C860 C864 1.368 . S
C861 C842 1.429 . S
C861 C855 1.429 . S
C861 C862 1.523 . S
C862 C843 1.368 . S
C862 C856 1.368 . S
C862 C861 1.523 . S
C863 C847 1.429 . S
C863 C859 1.429 . S
C863 C864 1.523 . S
C864 C848 1.368 . S
C864 C860 1.368 . S
C864 C863 1.523 . S
H865 C840 0.950 . S
H866 C842 0.950 . S
H867 C843 0.949 . S
H868 C845 0.950 . S
H869 C847 0.950 . S
C870 C871 1.349 . S
C870 C872 1.327 . S
C870 H895 0.950 . S
C871 C870 1.349 . S
C871 C887 1.349 . S
C872 C870 1.327 . S
C872 C891 1.429 . S
C872 H896 0.950 . S
C873 C890 1.574 . S
C873 C892 1.368 . S
C873 H897 0.949 . S
H874 C878 0.949 . S
C875 C876 1.349 . S
C875 C877 1.327 . S
C875 H898 0.950 . S
C876 C875 1.349 . S
C876 C888 1.349 . S
C877 C875 1.327 . S
C877 C893 1.429 . S
C877 H899 0.950 . S
C878 H874 0.949 . S
C878 C886 1.574 . S
C878 C894 1.368 . S
H879 C887 0.950 . S
H880 C885 0.950 . S
H881 C886 0.949 . S
H882 C888 0.950 . S
H883 C889 0.950 . S
H884 C890 0.949 . S
C885 H880 0.950 . S
C885 C887 1.327 . S
C885 C891 1.429 . S
C886 C878 1.574 . S
C886 H881 0.949 . S
C886 C892 1.368 . S
C887 C871 1.349 . S
C887 H879 0.950 . S
C887 C885 1.327 . S
C888 C876 1.349 . S
C888 H882 0.950 . S
C888 C889 1.327 . S
C889 H883 0.950 . S
C889 C888 1.327 . S
C889 C893 1.429 . S
C890 C873 1.574 . S
C890 H884 0.949 . S
C890 C894 1.368 . S
C891 C872 1.429 . S
C891 C885 1.429 . S
C891 C892 1.523 . S
C892 C873 1.368 . S
C892 C886 1.368 . S
C892 C891 1.523 . S
C893 C877 1.429 . S
C893 C889 1.429 . S
C893 C894 1.523 . S
C894 C878 1.368 . S
C894 C890 1.368 . S
C894 C893 1.523 . S
H895 C870 0.950 . S
H896 C872 0.950 . S
H897 C873 0.949 . S
H898 C875 0.950 . S
H899 C877 0.950 . S
C900 C901 1.349 . S
C900 C902 1.327 . S
C900 H925 0.950 . S
C901 C900 1.349 . S
C901 C917 1.349 . S
C902 C900 1.327 . S
C902 C921 1.429 . S
C902 H926 0.950 . S
C903 C920 1.574 . S
C903 C922 1.368 . S
C903 H927 0.949 . S
H904 C908 0.949 . S
C905 C906 1.349 . S
C905 C907 1.327 . S
C905 H928 0.950 . S
C906 C905 1.349 . S
C906 C918 1.349 . S
C907 C905 1.327 . S
C907 C923 1.429 . S
C907 H929 0.950 . S
C908 H904 0.949 . S
C908 C916 1.574 . S
C908 C924 1.368 . S
H909 C917 0.950 . S
H910 C915 0.950 . S
H911 C916 0.949 . S
H912 C918 0.950 1_655 S
H913 C919 0.950 1_655 S
H914 C920 0.949 . S
C915 H910 0.950 . S
C915 C917 1.327 . S
C915 C921 1.429 . S
C916 C908 1.574 . S
C916 H911 0.949 . S
C916 C922 1.368 . S
C917 C901 1.349 . S
C917 H909 0.950 . S
C917 C915 1.327 . S
C918 C906 1.349 . S
C918 H912 0.950 1_455 S
C918 C919 1.327 . S
C919 H913 0.950 1_455 S
C919 C918 1.327 . S
C919 C923 1.429 . S
C920 C903 1.574 . S
C920 H914 0.949 . S
C920 C924 1.368 . S
C921 C902 1.429 . S
C921 C915 1.429 . S
C921 C922 1.523 . S
C922 C903 1.368 . S
C922 C916 1.368 . S
C922 C921 1.523 . S
C923 C907 1.429 . S
C923 C919 1.429 . S
C923 C924 1.523 . S
C924 C908 1.368 . S
C924 C920 1.368 . S
C924 C923 1.523 . S
H925 C900 0.950 . S
H926 C902 0.950 . S
H927 C903 0.949 . S
H928 C905 0.950 . S
H929 C907 0.950 . S
C930 C931 1.349 . S
C930 C932 1.327 . S
C930 H955 0.950 . S
C931 C930 1.349 . S
C931 C947 1.349 . S
C932 C930 1.327 . S
C932 C951 1.429 . S
C932 H956 0.950 . S
C933 C950 1.574 . S
C933 C952 1.368 . S
C933 H957 0.949 . S
H934 C938 0.949 . S
C935 C936 1.349 . S
C935 C937 1.327 . S
C935 H958 0.950 . S
C936 C935 1.349 . S
C936 C948 1.349 . S
C937 C935 1.327 . S
C937 C953 1.429 . S
C937 H959 0.950 . S
C938 H934 0.949 . S
C938 C946 1.574 . S
C938 C954 1.368 . S
H939 C947 0.950 . S
H940 C945 0.950 . S
H941 C946 0.949 . S
H942 C948 0.950 . S
H943 C949 0.950 . S
H944 C950 0.949 . S
C945 H940 0.950 . S
C945 C947 1.327 . S
C945 C951 1.429 . S
C946 C938 1.574 . S
C946 H941 0.949 . S
C946 C952 1.368 . S
C947 C931 1.349 . S
C947 H939 0.950 . S
C947 C945 1.327 . S
C948 C936 1.349 . S
C948 H942 0.950 . S
C948 C949 1.327 . S
C949 H943 0.950 . S
C949 C948 1.327 . S
C949 C953 1.429 . S
C950 C933 1.574 . S
C950 H944 0.949 . S
C950 C954 1.368 . S
C951 C932 1.429 . S
C951 C945 1.429 . S
C951 C952 1.523 . S
C952 C933 1.368 . S
C952 C946 1.368 . S
C952 C951 1.523 . S
C953 C937 1.429 . S
C953 C949 1.429 . S
C953 C954 1.523 . S
C954 C938 1.368 . S
C954 C950 1.368 . S
C954 C953 1.523 . S
H955 C930 0.950 . S
H956 C932 0.950 . S
H957 C933 0.949 . S
H958 C935 0.950 . S
H959 C937 0.950 . S
C960 C961 1.349 . S
C960 C962 1.327 . S
C960 H985 0.950 . S
C961 C960 1.349 . S
C961 C977 1.349 1_565 S
C962 C960 1.327 . S
C962 C981 1.429 . S
C962 H986 0.950 . S
C963 C980 1.574 . S
C963 C982 1.368 . S
C963 H987 0.949 . S
H964 C968 0.949 . S
C965 C966 1.349 . S
C965 C967 1.327 . S
C965 H988 0.950 . S
C966 C965 1.349 . S
C966 C978 1.349 . S
C967 C965 1.327 . S
C967 C983 1.429 . S
C967 H989 0.950 . S
C968 H964 0.949 . S
C968 C976 1.574 . S
C968 C984 1.368 . S
H969 C977 0.950 . S
H970 C975 0.950 1_545 S
H971 C976 0.949 . S
H972 C978 0.950 . S
H973 C979 0.950 . S
H974 C980 0.949 . S
C975 H970 0.950 1_565 S
C975 C977 1.327 1_565 S
C975 C981 1.429 . S
C976 C968 1.574 . S
C976 H971 0.949 . S
C976 C982 1.368 . S
C977 C961 1.349 1_545 S
C977 H969 0.950 . S
C977 C975 1.327 1_545 S
C978 C966 1.349 . S
C978 H972 0.950 . S
C978 C979 1.327 . S
C979 H973 0.950 . S
C979 C978 1.327 . S
C979 C983 1.429 . S
C980 C963 1.574 . S
C980 H974 0.949 . S
C980 C984 1.368 . S
C981 C962 1.429 . S
C981 C975 1.429 . S
C981 C982 1.523 . S
C982 C963 1.368 . S
C982 C976 1.368 . S
C982 C981 1.523 . S
C983 C967 1.429 . S
C983 C979 1.429 . S
C983 C984 1.523 . S
C984 C968 1.368 . S
C984 C980 1.368 . S
C984 C983 1.523 . S
H985 C960 0.950 . S
H986 C962 0.950 . S
H987 C963 0.949 . S
H988 C965 0.950 . S
H989 C967 0.950 . S
C990 C991 1.349 . S
C990 C992 1.327 . S
C990 H1015 0.950 . S
C991 C990 1.349 . S
C991 C1007 1.349 . S
C992 C990 1.327 . S
C992 C1011 1.429 . S
C992 H1016 0.950 . S
C993 C1010 1.574 . S
C993 C1012 1.368 . S
C993 H1017 0.949 . S
H994 C998 0.949 . S
C995 C996 1.349 . S
C995 C997 1.327 . S
C995 H1018 0.950 . S
C996 C995 1.349 . S
C996 C1008 1.349 . S
C997 C995 1.327 . S
C997 C1013 1.429 . S
C997 H1019 0.950 . S
C998 H994 0.949 . S
C998 C1006 1.574 . S
C998 C1014 1.368 . S
H999 C1007 0.950 . S
H1000 C1005 0.950 . S
H1001 C1006 0.949 . S
H1002 C1008 0.950 . S
H1003 C1009 0.950 . S
H1004 C1010 0.949 . S
C1005 H1000 0.950 . S
C1005 C1007 1.327 . S
C1005 C1011 1.429 . S
C1006 C998 1.574 . S
C1006 H1001 0.949 . S
C1006 C1012 1.368 . S
C1007 C991 1.349 . S
C1007 H999 0.950 . S
C1007 C1005 1.327 . S
C1008 C996 1.349 . S
C1008 H1002 0.950 . S
C1008 C1009 1.327 . S
C1009 H1003 0.950 . S
C1009 C1008 1.327 . S
C1009 C1013 1.429 . S
C1010 C993 1.574 . S
C1010 H1004 0.949 . S
C1010 C1014 1.368 . S
C1011 C992 1.429 . S
C1011 C1005 1.429 . S
C1011 C1012 1.523 . S
C1012 C993 1.368 . S
C1012 C1006 1.368 . S
C1012 C1011 1.523 . S
C1013 C997 1.429 . S
C1013 C1009 1.429 . S
C1013 C1014 1.523 . S
C1014 C998 1.368 . S
C1014 C1010 1.368 . S
C1014 C1013 1.523 . S
H1015 C990 0.950 . S
H1016 C992 0.950 . S
H1017 C993 0.949 . S
H1018 C995 0.950 . S
H1019 C997 0.950 . S
C1020 C1021 1.349 . S
C1020 C1022 1.327 . S
C1020 H1045 0.950 1_655 S
C1021 C1020 1.349 . S
C1021 C1037 1.349 . S
C1022 C1020 1.327 . S
C1022 C1041 1.429 . S
C1022 H1046 0.950 1_655 S
C1023 C1040 1.574 . S
C1023 C1042 1.368 . S
C1023 H1047 0.949 . S
H1024 C1028 0.949 . S
C1025 C1026 1.349 . S
C1025 C1027 1.327 . S
C1025 H1048 0.950 . S
C1026 C1025 1.349 . S
C1026 C1038 1.349 . S
C1027 C1025 1.327 . S
C1027 C1043 1.429 . S
C1027 H1049 0.950 . S
C1028 H1024 0.949 . S
C1028 C1036 1.574 . S
C1028 C1044 1.368 . S
H1029 C1037 0.950 . S
H1030 C1035 0.950 . S
H1031 C1036 0.949 . S
H1032 C1038 0.950 . S
H1033 C1039 0.950 . S
H1034 C1040 0.949 . S
C1035 H1030 0.950 . S
C1035 C1037 1.327 . S
C1035 C1041 1.429 . S
C1036 C1028 1.574 . S
C1036 H1031 0.949 . S
C1036 C1042 1.368 . S
C1037 C1021 1.349 . S
C1037 H1029 0.950 . S
C1037 C1035 1.327 . S
C1038 C1026 1.349 . S
C1038 H1032 0.950 . S
C1038 C1039 1.327 . S
C1039 H1033 0.950 . S
C1039 C1038 1.327 . S
C1039 C1043 1.429 . S
C1040 C1023 1.574 . S
C1040 H1034 0.949 . S
C1040 C1044 1.368 . S
C1041 C1022 1.429 . S
C1041 C1035 1.429 . S
C1041 C1042 1.523 . S
C1042 C1023 1.368 . S
C1042 C1036 1.368 . S
C1042 C1041 1.523 . S
C1043 C1027 1.429 . S
C1043 C1039 1.429 . S
C1043 C1044 1.523 . S
C1044 C1028 1.368 . S
C1044 C1040 1.368 . S
C1044 C1043 1.523 . S
H1045 C1020 0.950 1_455 S
H1046 C1022 0.950 1_455 S
H1047 C1023 0.949 . S
H1048 C1025 0.950 . S
H1049 C1027 0.950 . S
C1050 C1051 1.349 . S
C1050 C1052 1.327 . S
C1050 H1075 0.950 . S
C1051 C1050 1.349 . S
C1051 C1067 1.349 . S
C1052 C1050 1.327 . S
C1052 C1071 1.429 . S
C1052 H1076 0.950 . S
C1053 C1070 1.574 . S
C1053 C1072 1.368 . S
C1053 H1077 0.949 . S
H1054 C1058 0.949 . S
C1055 C1056 1.349 . S
C1055 C1057 1.327 . S
C1055 H1078 0.950 . S
C1056 C1055 1.349 . S
C1056 C1068 1.349 . S
C1057 C1055 1.327 . S
C1057 C1073 1.429 . S
C1057 H1079 0.950 . S
C1058 H1054 0.949 . S
C1058 C1066 1.574 . S
C1058 C1074 1.368 . S
H1059 C1067 0.950 . S
H1060 C1065 0.950 . S
H1061 C1066 0.949 . S
H1062 C1068 0.950 . S
H1063 C1069 0.950 . S
H1064 C1070 0.949 . S
C1065 H1060 0.950 . S
C1065 C1067 1.327 . S
C1065 C1071 1.429 . S
C1066 C1058 1.574 . S
C1066 H1061 0.949 . S
C1066 C1072 1.368 . S
C1067 C1051 1.349 . S
C1067 H1059 0.950 . S
C1067 C1065 1.327 . S
C1068 C1056 1.349 . S
C1068 H1062 0.950 . S
C1068 C1069 1.327 . S
C1069 H1063 0.950 . S
C1069 C1068 1.327 . S
C1069 C1073 1.429 . S
C1070 C1053 1.574 . S
C1070 H1064 0.949 . S
C1070 C1074 1.368 . S
C1071 C1052 1.429 . S
C1071 C1065 1.429 . S
C1071 C1072 1.523 . S
C1072 C1053 1.368 . S
C1072 C1066 1.368 . S
C1072 C1071 1.523 . S
C1073 C1057 1.429 . S
C1073 C1069 1.429 . S
C1073 C1074 1.523 . S
C1074 C1058 1.368 . S
C1074 C1070 1.368 . S
C1074 C1073 1.523 . S
H1075 C1050 0.950 . S
H1076 C1052 0.950 . S
H1077 C1053 0.949 . S
H1078 C1055 0.950 . S
H1079 C1057 0.950 . S
C1080 C1081 1.349 . S
C1080 C1082 1.327 . S
C1080 H1105 0.950 . S
C1081 C1080 1.349 . S
C1081 C1097 1.349 . S
C1082 C1080 1.327 . S
C1082 C1101 1.429 . S
C1082 H1106 0.950 . S
C1083 C1100 1.574 . S
C1083 C1102 1.368 . S
C1083 H1107 0.949 . S
H1084 C1088 0.949 . S
C1085 C1086 1.349 . S
C1085 C1087 1.327 . S
C1085 H1108 0.950 . S
C1086 C1085 1.349 . S
C1086 C1098 1.349 . S
C1087 C1085 1.327 . S
C1087 C1103 1.429 . S
C1087 H1109 0.950 . S
C1088 H1084 0.949 . S
C1088 C1096 1.574 . S
C1088 C1104 1.368 . S
H1089 C1097 0.950 . S
H1090 C1095 0.950 . S
H1091 C1096 0.949 . S
H1092 C1098 0.950 . S
H1093 C1099 0.950 . S
H1094 C1100 0.949 . S
C1095 H1090 0.950 . S
C1095 C1097 1.327 . S
C1095 C1101 1.429 . S
C1096 C1088 1.574 . S
C1096 H1091 0.949 . S
C1096 C1102 1.368 . S
C1097 C1081 1.349 . S
C1097 H1089 0.950 . S
C1097 C1095 1.327 . S
C1098 C1086 1.349 . S
C1098 H1092 0.950 . S
C1098 C1099 1.327 . S
C1099 H1093 0.950 . S
C1099 C1098 1.327 . S
C1099 C1103 1.429 . S
C1100 C1083 1.574 . S
C1100 H1094 0.949 . S
C1100 C1104 1.368 . S
C1101 C1082 1.429 . S
C1101 C1095 1.429 . S
C1101 C1102 1.523 . S
C1102 C1083 1.368 . S
C1102 C1096 1.368 . S
C1102 C1101 1.523 . S
C1103 C1087 1.429 . S
C1103 C1099 1.429 . S
C1103 C1104 1.523 . S
C1104 C1088 1.368 . S
C1104 C1100 1.368 . S
C1104 C1103 1.523 . S
H1105 C1080 0.950 . S
H1106 C1082 0.950 . S
H1107 C1083 0.949 . S
H1108 C1085 0.950 . S
H1109 C1087 0.950 . S
C1110 C1111 1.349 . S
C1110 C1112 1.327 . S
C1110 H1135 0.950 . S
C1111 C1110 1.349 . S
C1111 C1127 1.349 . S
C1112 C1110 1.327 . S
C1112 C1131 1.429 . S
C1112 H1136 0.950 . S
C1113 C1130 1.574 . S
C1113 C1132 1.368 1_545 S
C1113 H1137 0.949 . S
H1114 C1118 0.948 . S
C1115 C1116 1.349 . S
C1115 C1117 1.327 . S
C1115 H1138 0.950 . S
C1116 C1115 1.349 . S
C1116 C1128 1.349 . S
C1117 C1115 1.327 . S
C1117 C1133 1.429 . S
C1117 H1139 0.950 . S
C1118 H1114 0.948 . S
C1118 C1126 1.572 . S
C1118 C1134 1.372 1_565 S
H1119 C1127 0.950 . S
H1120 C1125 0.950 . S
H1121 C1126 0.949 . S
H1122 C1128 0.950 . S
H1123 C1129 0.950 . S
H1124 C1130 0.949 . S
C1125 H1120 0.950 . S
C1125 C1127 1.327 . S
C1125 C1131 1.429 . S
C1126 C1118 1.572 . S
C1126 H1121 0.949 . S
C1126 C1132 1.368 . S
C1127 C1111 1.349 . S
C1127 H1119 0.950 . S
C1127 C1125 1.327 . S
C1128 C1116 1.349 . S
C1128 H1122 0.950 . S
C1128 C1129 1.327 . S
C1129 H1123 0.950 . S
C1129 C1128 1.327 . S
C1129 C1133 1.429 . S
C1130 C1113 1.574 . S
C1130 H1124 0.949 . S
C1130 C1134 1.368 . S
C1131 C1112 1.429 . S
C1131 C1125 1.429 . S
C1131 C1132 1.523 . S
C1132 C1113 1.368 1_565 S
C1132 C1126 1.368 . S
C1132 C1131 1.523 . S
C1133 C1117 1.429 . S
C1133 C1129 1.429 . S
C1133 C1134 1.523 . S
C1134 C1118 1.372 1_545 S
C1134 C1130 1.368 . S
C1134 C1133 1.523 . S
H1135 C1110 0.950 . S
H1136 C1112 0.950 . S
H1137 C1113 0.949 . S
H1138 C1115 0.950 . S
H1139 C1117 0.950 . S
C1140 C1141 1.349 . S
C1140 C1142 1.327 . S
C1140 H1165 0.950 . S
C1141 C1140 1.349 . S
C1141 C1157 1.349 . S
C1142 C1140 1.327 . S
C1142 C1161 1.429 . S
C1142 H1166 0.950 . S
C1143 C1160 1.574 . S
C1143 C1162 1.368 1_455 S
C1143 H1167 0.949 . S
H1144 C1148 0.951 . S
C1145 C1146 1.349 . S
C1145 C1147 1.327 . S
C1145 H1168 0.950 . S
C1146 C1145 1.349 . S
C1146 C1158 1.349 . S
C1147 C1145 1.327 . S
C1147 C1163 1.429 . S
C1147 H1169 0.950 . S
C1148 H1144 0.951 . S
C1148 C1156 1.595 . S
C1148 C1164 1.347 1_655 S
H1149 C1157 0.950 . S
H1150 C1155 0.950 . S
H1151 C1156 0.949 . S
H1152 C1158 0.950 . S
H1153 C1159 0.950 . S
H1154 C1160 0.949 . S
C1155 H1150 0.950 . S
C1155 C1157 1.327 . S
C1155 C1161 1.429 . S
C1156 C1148 1.595 . S
C1156 H1151 0.949 . S
C1156 C1162 1.368 . S
C1157 C1141 1.349 . S
C1157 H1149 0.950 . S
C1157 C1155 1.327 . S
C1158 C1146 1.349 . S
C1158 H1152 0.950 . S
C1158 C1159 1.327 . S
C1159 H1153 0.950 . S
C1159 C1158 1.327 . S
C1159 C1163 1.429 . S
C1160 C1143 1.574 . S
C1160 H1154 0.949 . S
C1160 C1164 1.368 . S
C1161 C1142 1.429 . S
C1161 C1155 1.429 . S
C1161 C1162 1.523 . S
C1162 C1143 1.368 1_655 S
C1162 C1156 1.368 . S
C1162 C1161 1.523 . S
C1163 C1147 1.429 . S
C1163 C1159 1.429 . S
C1163 C1164 1.523 . S
C1164 C1148 1.347 1_455 S
C1164 C1160 1.368 . S
C1164 C1163 1.523 . S
H1165 C1140 0.950 . S
H1166 C1142 0.950 . S
H1167 C1143 0.949 . S
H1168 C1145 0.950 . S
H1169 C1147 0.950 . S
C361 C55 1.488 . S
C366 C19 1.511 . S
C391 C95 1.487 . S
C396 C59 1.511 . S
C421 C99 1.511 . S
C426 C15 1.488 . S
C451 C85 1.283 . S
C456 C49 1.260 . S
C481 C89 1.260 . S
C486 C5 1.283 . S
C511 C9 1.260 . S
C516 C45 1.283 . S
C541 C139 1.511 . S
C546 C175 1.488 . S
C571 C215 1.488 . S
C576 C179 1.511 . S
C601 C219 1.511 . S
C606 C135 1.488 . S
C631 C169 1.260 . S
C636 C205 1.283 . S
C661 C209 1.260 . S
C666 C125 1.283 . S
C691 C165 1.283 . S
C696 C129 1.260 . S
C721 C295 1.488 . S
C726 C259 1.511 . S
C751 C299 1.511 . S
C756 C335 1.487 . S
C781 C339 1.511 . S
C786 C255 1.488 . S
C811 C325 1.283 . S
C816 C289 1.260 . S
C841 C329 1.260 . S
C846 C245 1.283 . S
C871 C249 1.260 . S
C876 C285 1.283 . S
C901 C218 2.516 . S
C906 C8 2.207 . S
C931 C138 2.516 . S
C936 C48 2.207 . S
C961 C88 2.207 1_565 S
C966 C178 2.516 . S
C991 C98 2.516 . S
C996 C248 2.207 . S
C1021 C18 2.517 . S
C1026 C288 2.207 . S
C1051 C328 2.207 . S
C1056 C58 2.516 . S
C1081 C128 2.207 . S
C1086 C338 2.516 . S
C1111 C168 2.207 . S
C1116 C258 2.517 . S
C1141 C298 2.516 . S
C1146 C208 2.207 . S
