# Generated by pormake.
# Topology lta, (4)-cn, num edge types: 1
# Building blocks:
#     Node 0, Type 0, BuildingBlock: GALJAG_clean_sbu_0, # of connection points: 4
#     Node 1, Type 0, BuildingBlock: GALJAG_clean_sbu_0, # of connection points: 4
#     Node 2, Type 0, BuildingBlock: GALJAG_clean_sbu_0, # of connection points: 4
#     Node 3, Type 0, BuildingBlock: GALJAG_clean_sbu_0, # of connection points: 4
#     Node 4, Type 0, BuildingBlock: GALJAG_clean_sbu_0, # of connection points: 4
#     Node 5, Type 0, BuildingBlock: GALJAG_clean_sbu_0, # of connection points: 4
#     Node 6, Type 0, BuildingBlock: GALJAG_clean_sbu_0, # of connection points: 4
#     Node 7, Type 0, BuildingBlock: GALJAG_clean_sbu_0, # of connection points: 4
#     Node 8, Type 0, BuildingBlock: GALJAG_clean_sbu_0, # of connection points: 4
#     Node 9, Type 0, BuildingBlock: GALJAG_clean_sbu_0, # of connection points: 4
#     Node 10, Type 0, BuildingBlock: GALJAG_clean_sbu_0, # of connection points: 4
#     Node 11, Type 0, BuildingBlock: GALJAG_clean_sbu_0, # of connection points: 4
#     Node 12, Type 0, BuildingBlock: GALJAG_clean_sbu_0, # of connection points: 4
#     Node 13, Type 0, BuildingBlock: GALJAG_clean_sbu_0, # of connection points: 4
#     Node 14, Type 0, BuildingBlock: GALJAG_clean_sbu_0, # of connection points: 4
#     Node 15, Type 0, BuildingBlock: GALJAG_clean_sbu_0, # of connection points: 4
#     Node 16, Type 0, BuildingBlock: GALJAG_clean_sbu_0, # of connection points: 4
#     Node 17, Type 0, BuildingBlock: GALJAG_clean_sbu_0, # of connection points: 4
#     Node 18, Type 0, BuildingBlock: GALJAG_clean_sbu_0, # of connection points: 4
#     Node 19, Type 0, BuildingBlock: GALJAG_clean_sbu_0, # of connection points: 4
#     Node 20, Type 0, BuildingBlock: GALJAG_clean_sbu_0, # of connection points: 4
#     Node 21, Type 0, BuildingBlock: GALJAG_clean_sbu_0, # of connection points: 4
#     Node 22, Type 0, BuildingBlock: GALJAG_clean_sbu_0, # of connection points: 4
#     Node 23, Type 0, BuildingBlock: GALJAG_clean_sbu_0, # of connection points: 4
#     Edge 24, Type (0, 0), BuildingBlock: XUDNAN_clean_linker_2, # of connection points: 2
#     Edge 25, Type (0, 0), BuildingBlock: XUDNAN_clean_linker_2, # of connection points: 2
#     Edge 26, Type (0, 0), BuildingBlock: XUDNAN_clean_linker_2, # of connection points: 2
#     Edge 27, Type (0, 0), BuildingBlock: XUDNAN_clean_linker_2, # of connection points: 2
#     Edge 28, Type (0, 0), BuildingBlock: XUDNAN_clean_linker_2, # of connection points: 2
#     Edge 29, Type (0, 0), BuildingBlock: XUDNAN_clean_linker_2, # of connection points: 2
#     Edge 30, Type (0, 0), BuildingBlock: XUDNAN_clean_linker_2, # of connection points: 2
#     Edge 31, Type (0, 0), BuildingBlock: XUDNAN_clean_linker_2, # of connection points: 2
#     Edge 32, Type (0, 0), BuildingBlock: XUDNAN_clean_linker_2, # of connection points: 2
#     Edge 33, Type (0, 0), BuildingBlock: XUDNAN_clean_linker_2, # of connection points: 2
#     Edge 34, Type (0, 0), BuildingBlock: XUDNAN_clean_linker_2, # of connection points: 2
#     Edge 35, Type (0, 0), BuildingBlock: XUDNAN_clean_linker_2, # of connection points: 2
#     Edge 36, Type (0, 0), BuildingBlock: XUDNAN_clean_linker_2, # of connection points: 2
#     Edge 37, Type (0, 0), BuildingBlock: XUDNAN_clean_linker_2, # of connection points: 2
#     Edge 38, Type (0, 0), BuildingBlock: XUDNAN_clean_linker_2, # of connection points: 2
#     Edge 39, Type (0, 0), BuildingBlock: XUDNAN_clean_linker_2, # of connection points: 2
#     Edge 40, Type (0, 0), BuildingBlock: XUDNAN_clean_linker_2, # of connection points: 2
#     Edge 41, Type (0, 0), BuildingBlock: XUDNAN_clean_linker_2, # of connection points: 2
#     Edge 42, Type (0, 0), BuildingBlock: XUDNAN_clean_linker_2, # of connection points: 2
#     Edge 43, Type (0, 0), BuildingBlock: XUDNAN_clean_linker_2, # of connection points: 2
#     Edge 44, Type (0, 0), BuildingBlock: XUDNAN_clean_linker_2, # of connection points: 2
#     Edge 45, Type (0, 0), BuildingBlock: XUDNAN_clean_linker_2, # of connection points: 2
#     Edge 46, Type (0, 0), BuildingBlock: XUDNAN_clean_linker_2, # of connection points: 2
#     Edge 47, Type (0, 0), BuildingBlock: XUDNAN_clean_linker_2, # of connection points: 2
#     Edge 48, Type (0, 0), BuildingBlock: XUDNAN_clean_linker_2, # of connection points: 2
#     Edge 49, Type (0, 0), BuildingBlock: XUDNAN_clean_linker_2, # of connection points: 2
#     Edge 50, Type (0, 0), BuildingBlock: XUDNAN_clean_linker_2, # of connection points: 2
#     Edge 51, Type (0, 0), BuildingBlock: XUDNAN_clean_linker_2, # of connection points: 2
#     Edge 52, Type (0, 0), BuildingBlock: XUDNAN_clean_linker_2, # of connection points: 2
#     Edge 53, Type (0, 0), BuildingBlock: XUDNAN_clean_linker_2, # of connection points: 2
#     Edge 54, Type (0, 0), BuildingBlock: XUDNAN_clean_linker_2, # of connection points: 2
#     Edge 55, Type (0, 0), BuildingBlock: XUDNAN_clean_linker_2, # of connection points: 2
#     Edge 56, Type (0, 0), BuildingBlock: XUDNAN_clean_linker_2, # of connection points: 2
#     Edge 57, Type (0, 0), BuildingBlock: XUDNAN_clean_linker_2, # of connection points: 2
#     Edge 58, Type (0, 0), BuildingBlock: XUDNAN_clean_linker_2, # of connection points: 2
#     Edge 59, Type (0, 0), BuildingBlock: XUDNAN_clean_linker_2, # of connection points: 2
#     Edge 60, Type (0, 0), BuildingBlock: XUDNAN_clean_linker_2, # of connection points: 2
#     Edge 61, Type (0, 0), BuildingBlock: XUDNAN_clean_linker_2, # of connection points: 2
#     Edge 62, Type (0, 0), BuildingBlock: XUDNAN_clean_linker_2, # of connection points: 2
#     Edge 63, Type (0, 0), BuildingBlock: XUDNAN_clean_linker_2, # of connection points: 2
#     Edge 64, Type (0, 0), BuildingBlock: XUDNAN_clean_linker_2, # of connection points: 2
#     Edge 65, Type (0, 0), BuildingBlock: XUDNAN_clean_linker_2, # of connection points: 2
#     Edge 66, Type (0, 0), BuildingBlock: XUDNAN_clean_linker_2, # of connection points: 2
#     Edge 67, Type (0, 0), BuildingBlock: XUDNAN_clean_linker_2, # of connection points: 2
#     Edge 68, Type (0, 0), BuildingBlock: XUDNAN_clean_linker_2, # of connection points: 2
#     Edge 69, Type (0, 0), BuildingBlock: XUDNAN_clean_linker_2, # of connection points: 2
#     Edge 70, Type (0, 0), BuildingBlock: XUDNAN_clean_linker_2, # of connection points: 2
#     Edge 71, Type (0, 0), BuildingBlock: XUDNAN_clean_linker_2, # of connection points: 2
# Relax obj value: 0.417
# Max RMSD: 0.230
# Mean RMSD: 0.230
data_MOF--net-lta--node1-GALJAG_clean_sbu_0--edge1-XUDNAN_clean_linker_2
_symmetry_space_group_name_H-M    P1
_symmetry_Int_Tables_number       1
_symmetry_cell_setting            triclinic
loop_
_symmetry_equiv_pos_as_xyz
'x, y, z'
_cell_length_a     56.32253
_cell_length_b     56.457767
_cell_length_c     56.311106
_cell_angle_alpha  89.97087
_cell_angle_beta   90.02602
_cell_angle_gamma 89.930171
loop_
_atom_site_label
_atom_site_type_symbol
_atom_site_fract_x
_atom_site_fract_y
_atom_site_fract_z
_atom_type_partial_charge
In0 In 0.12423 0.30745 0.50638 0.0
O1 O 0.13861 0.33906 0.52702 0.0
O2 O 0.11951 0.31286 0.54618 0.0
C3 C 0.14007 0.31851 0.46269 0.0
C4 C 0.14858 0.26734 0.51462 0.0
C5 C 0.07734 0.31418 0.49987 0.0
O6 O 0.14579 0.33011 0.48098 0.0
O7 O 0.12667 0.30101 0.46651 0.0
O8 O 0.08573 0.29439 0.50619 0.0
O9 O 0.09254 0.33027 0.49693 0.0
C10 C 0.13051 0.33228 0.54677 0.0
O11 O 0.12624 0.2675 0.5126 0.0
O12 O 0.15837 0.2873 0.5125 0.0
In13 In 0.6715 0.12719 0.49684 0.0
O14 O 0.63979 0.13576 0.52051 0.0
O15 O 0.67238 0.12707 0.53734 0.0
C16 C 0.64314 0.14063 0.46053 0.0
C17 C 0.71087 0.15356 0.49243 0.0
C18 C 0.68378 0.08101 0.49641 0.0
O19 O 0.65159 0.15517 0.47525 0.0
O20 O 0.64916 0.11939 0.46399 0.0
O21 O 0.69842 0.09744 0.49279 0.0
O22 O 0.66274 0.08779 0.50001 0.0
C23 C 0.65087 0.13275 0.53973 0.0
O24 O 0.70489 0.13834 0.47717 0.0
O25 O 0.69662 0.15594 0.50955 0.0
In26 In 0.88981 0.68548 0.49118 0.0
O27 O 0.87082 0.72009 0.50095 0.0
O28 O 0.8676 0.7072 0.46571 0.0
C29 C 0.93637 0.69371 0.49878 0.0
C30 C 0.86831 0.66497 0.52876 0.0
C31 C 0.89047 0.65551 0.45399 0.0
O32 O 0.92191 0.71025 0.49439 0.0
O33 O 0.92721 0.67338 0.49975 0.0
O34 O 0.88146 0.65016 0.47376 0.0
O35 O 0.89954 0.6759 0.45303 0.0
C36 C 0.86175 0.72273 0.48062 0.0
O37 O 0.85887 0.66629 0.50851 0.0
O38 O 0.88855 0.67443 0.53026 0.0
In39 In 0.32865 0.86441 0.47264 0.0
O40 O 0.35932 0.88466 0.48898 0.0
O41 O 0.34466 0.85634 0.50906 0.0
C42 C 0.35182 0.86012 0.43097 0.0
C43 C 0.30373 0.82377 0.47366 0.0
C44 C 0.30239 0.90353 0.48007 0.0
O45 O 0.36107 0.85515 0.45073 0.0
O46 O 0.33062 0.86735 0.43208 0.0
O47 O 0.30232 0.88615 0.49417 0.0
O48 O 0.31488 0.90068 0.46166 0.0
C49 C 0.35978 0.87279 0.50793 0.0
O50 O 0.29402 0.84359 0.47009 0.0
O51 O 0.32585 0.82451 0.47683 0.0
In52 In 0.15414 0.66268 0.49239 0.0
O53 O 0.15075 0.62688 0.47427 0.0
O54 O 0.14901 0.65747 0.45241 0.0
C55 C 0.16798 0.6434 0.53414 0.0
C56 C 0.19002 0.69323 0.48479 0.0
C57 C 0.10914 0.67804 0.4971 0.0
O58 O 0.17671 0.63742 0.51446 0.0
O59 O 0.15227 0.65926 0.5329 0.0
O60 O 0.12597 0.69177 0.49162 0.0
O61 O 0.1151 0.6567 0.50027 0.0
C62 C 0.14852 0.63517 0.45361 0.0
O63 O 0.17006 0.69991 0.49244 0.0
O64 O 0.1917 0.67136 0.48082 0.0
In65 In 0.30796 0.1159 0.52128 0.0
O66 O 0.34086 0.12572 0.4997 0.0
O67 O 0.30764 0.12484 0.48186 0.0
C68 C 0.33743 0.12177 0.55877 0.0
C69 C 0.26892 0.14307 0.52609 0.0
C70 C 0.29523 0.07015 0.51654 0.0
O71 O 0.32197 0.13684 0.55299 0.0
O72 O 0.3379 0.10357 0.54583 0.0
O73 O 0.29193 0.08147 0.5356 0.0
O74 O 0.30499 0.08186 0.50019 0.0
C75 C 0.3297 0.1283 0.48043 0.0
O76 O 0.28888 0.15129 0.52026 0.0
O77 O 0.26861 0.12105 0.5298 0.0
In78 In 0.85581 0.31363 0.49683 0.0
O79 O 0.83892 0.34472 0.4774 0.0
O80 O 0.84408 0.31299 0.45795 0.0
C81 C 0.84362 0.33636 0.53698 0.0
C82 C 0.83765 0.26959 0.49874 0.0
C83 C 0.90334 0.31819 0.49326 0.0
O84 O 0.82924 0.3331 0.5201 0.0
O85 O 0.86402 0.32757 0.53387 0.0
O86 O 0.8938 0.30075 0.50353 0.0
O87 O 0.88894 0.33311 0.48488 0.0
C88 C 0.8367 0.33406 0.45788 0.0
O89 O 0.85351 0.27536 0.48409 0.0
O90 O 0.8316 0.28578 0.51288 0.0
In91 In 0.69059 0.86161 0.4911 0.0
O92 O 0.7275 0.84669 0.49902 0.0
O93 O 0.70678 0.82958 0.47267 0.0
C94 C 0.69795 0.90833 0.49714 0.0
C95 C 0.66756 0.86441 0.44933 0.0
C96 C 0.6682 0.84682 0.5308 0.0
O97 O 0.71434 0.89431 0.49116 0.0
O98 O 0.67804 0.89871 0.50043 0.0
O99 O 0.65906 0.84523 0.51042 0.0
O100 O 0.68888 0.85528 0.5311 0.0
C101 C 0.72617 0.83045 0.48376 0.0
O102 O 0.65914 0.85338 0.46696 0.0
O103 O 0.68764 0.87372 0.45277 0.0
In104 In 0.47678 0.14023 0.31737 0.0
O105 O 0.49006 0.16502 0.28824 0.0
O106 O 0.45289 0.15974 0.29131 0.0
C107 C 0.48266 0.09592 0.30062 0.0
C108 C 0.51586 0.14993 0.34315 0.0
C109 C 0.43922 0.14346 0.34693 0.0
O110 O 0.48876 0.11396 0.28894 0.0
O111 O 0.47343 0.10029 0.32052 0.0
O112 O 0.45969 0.15039 0.35272 0.0
O113 O 0.43765 0.13513 0.32623 0.0
C114 C 0.46963 0.16953 0.28025 0.0
O115 O 0.50163 0.16598 0.33659 0.0
O116 O 0.5104 0.12931 0.33652 0.0
In117 In 0.86085 0.48586 0.31751 0.0
O118 O 0.85711 0.48264 0.27751 0.0
O119 O 0.83021 0.50133 0.29627 0.0
C120 C 0.90568 0.47 0.32206 0.0
C121 C 0.86625 0.52831 0.33853 0.0
C122 C 0.83594 0.44963 0.33604 0.0
O123 O 0.89777 0.4781 0.30272 0.0
O124 O 0.89097 0.46985 0.3389 0.0
O125 O 0.83614 0.47004 0.34517 0.0
O126 O 0.84767 0.44772 0.31706 0.0
C127 C 0.83784 0.49398 0.27655 0.0
O128 O 0.8532 0.51225 0.34697 0.0
O129 O 0.87613 0.52322 0.3191 0.0
In130 In 0.51573 0.87897 0.28955 0.0
O131 O 0.50346 0.86324 0.25436 0.0
O132 O 0.53718 0.85273 0.26714 0.0
C133 C 0.51188 0.92614 0.28377 0.0
C134 C 0.47457 0.86538 0.30994 0.0
C135 C 0.55395 0.87595 0.31801 0.0
O136 O 0.51963 0.91283 0.26754 0.0
O137 O 0.50647 0.91568 0.30277 0.0
O138 O 0.53537 0.86395 0.32158 0.0
O139 O 0.5533 0.88924 0.29997 0.0
C140 C 0.52187 0.8511 0.25097 0.0
O141 O 0.49458 0.85932 0.31805 0.0
O142 O 0.47538 0.87764 0.29126 0.0
In143 In 0.12458 0.46508 0.31538 0.0
O144 O 0.14908 0.44385 0.33916 0.0
O145 O 0.12686 0.4247 0.3154 0.0
C146 C 0.13113 0.50679 0.33801 0.0
C147 C 0.14687 0.47124 0.27366 0.0
C148 C 0.0778 0.45742 0.32107 0.0
O149 O 0.1367 0.48712 0.34699 0.0
O150 O 0.12242 0.50554 0.31745 0.0
O151 O 0.08722 0.45898 0.3008 0.0
O152 O 0.09192 0.45979 0.33824 0.0
C153 C 0.14212 0.4239 0.33184 0.0
O154 O 0.12477 0.47406 0.27587 0.0
O155 O 0.15752 0.46499 0.29235 0.0
In156 In 0.50416 0.85857 0.67309 0.0
O157 O 0.50165 0.83821 0.70799 0.0
O158 O 0.49434 0.81972 0.67599 0.0
C159 C 0.50388 0.89817 0.69947 0.0
C160 C 0.54529 0.84793 0.65097 0.0
C161 C 0.47161 0.8715 0.64052 0.0
O162 O 0.48644 0.88415 0.69891 0.0
O163 O 0.52156 0.89181 0.68726 0.0
O164 O 0.49138 0.88169 0.64273 0.0
O165 O 0.468 0.85483 0.65502 0.0
C166 C 0.49609 0.8189 0.69827 0.0
O167 O 0.52535 0.84709 0.64089 0.0
O168 O 0.54464 0.85408 0.6725 0.0
In169 In 0.1287 0.50195 0.68488 0.0
O170 O 0.12985 0.51481 0.72345 0.0
O171 O 0.15108 0.48527 0.7138 0.0
C172 C 0.08231 0.50838 0.67546 0.0
C173 C 0.15331 0.53831 0.66592 0.0
C174 C 0.13296 0.45948 0.66362 0.0
O175 O 0.08983 0.50462 0.69625 0.0
O176 O 0.09815 0.509 0.65969 0.0
O177 O 0.14256 0.47798 0.65553 0.0
O178 O 0.1214 0.46235 0.6826 0.0
C179 C 0.14439 0.49912 0.73 0.0
O180 O 0.16174 0.51767 0.66747 0.0
O181 O 0.13292 0.54076 0.67479 0.0
In182 In 0.50548 0.11372 0.70238 0.0
O183 O 0.48978 0.14046 0.72828 0.0
O184 O 0.52374 0.12633 0.73628 0.0
C185 C 0.50314 0.06777 0.71514 0.0
C186 C 0.46669 0.12121 0.67552 0.0
C187 C 0.5427 0.12621 0.67453 0.0
O188 O 0.48933 0.08316 0.72366 0.0
O189 O 0.51783 0.07557 0.70021 0.0
O190 O 0.52145 0.12798 0.66787 0.0
O191 O 0.54523 0.11859 0.69538 0.0
C192 C 0.50718 0.14003 0.74234 0.0
O193 O 0.47608 0.13734 0.68793 0.0
O194 O 0.47692 0.10129 0.67666 0.0
In195 In 0.86165 0.50563 0.67122 0.0
O196 O 0.85976 0.488 0.70762 0.0
O197 O 0.83919 0.51898 0.70206 0.0
C198 C 0.90885 0.50982 0.66623 0.0
C199 C 0.84777 0.46511 0.64993 0.0
C200 C 0.84772 0.54522 0.6484 0.0
O201 O 0.89895 0.50982 0.68636 0.0
O202 O 0.89493 0.50766 0.6488 0.0
O203 O 0.8381 0.52535 0.64484 0.0
O204 O 0.86385 0.54522 0.66394 0.0
C205 C 0.84516 0.50262 0.71607 0.0
O206 O 0.83342 0.48159 0.65469 0.0
O207 O 0.86892 0.46907 0.65598 0.0
In208 In 0.30757 0.52609 0.13524 0.0
O209 O 0.26689 0.52773 0.13846 0.0
O210 O 0.28646 0.51012 0.16534 0.0
C211 C 0.31313 0.52283 0.08783 0.0
C212 C 0.3191 0.57089 0.14737 0.0
C213 C 0.33802 0.49164 0.14804 0.0
O214 O 0.29508 0.51477 0.09836 0.0
O215 O 0.3281 0.53273 0.10118 0.0
O216 O 0.33864 0.51215 0.15689 0.0
O217 O 0.32197 0.48846 0.1327 0.0
C218 C 0.26642 0.51613 0.15758 0.0
O219 O 0.32867 0.55287 0.15645 0.0
O220 O 0.30298 0.5664 0.13249 0.0
In221 In 0.30145 0.48417 0.87022 0.0
O222 O 0.31761 0.46018 0.84231 0.0
O223 O 0.31649 0.44735 0.87786 0.0
C224 C 0.32152 0.52104 0.84726 0.0
C225 C 0.2554 0.48291 0.8571 0.0
C226 C 0.31093 0.49111 0.91667 0.0
O227 O 0.33164 0.50132 0.84986 0.0
O228 O 0.30092 0.52218 0.85592 0.0
O229 O 0.29288 0.47974 0.90984 0.0
O230 O 0.32409 0.49843 0.90019 0.0
C231 C 0.32291 0.4438 0.85663 0.0
O232 O 0.27016 0.46721 0.85118 0.0
O233 O 0.26367 0.49886 0.87035 0.0
In234 In 0.49787 0.31721 0.86765 0.0
O235 O 0.4847 0.28585 0.84598 0.0
O236 O 0.51549 0.28063 0.86688 0.0
C237 C 0.49462 0.32645 0.91431 0.0
C238 C 0.53777 0.33902 0.85245 0.0
C239 C 0.45641 0.33662 0.85397 0.0
O240 O 0.4933 0.3056 0.90623 0.0
O241 O 0.4976 0.34236 0.89886 0.0
O242 O 0.47527 0.33905 0.84207 0.0
O243 O 0.45845 0.32416 0.87247 0.0
C244 C 0.5009 0.27191 0.8524 0.0
O245 O 0.51922 0.33804 0.83994 0.0
O246 O 0.53619 0.32885 0.87228 0.0
In247 In 0.6902 0.48922 0.86917 0.0
O248 O 0.65504 0.50655 0.85979 0.0
O249 O 0.68328 0.52922 0.86988 0.0
C250 C 0.66796 0.45013 0.85319 0.0
C251 C 0.73059 0.48937 0.84379 0.0
C252 C 0.69731 0.49059 0.91646 0.0
O253 O 0.67149 0.46808 0.84031 0.0
O254 O 0.6764 0.4516 0.87391 0.0
O255 O 0.71329 0.49594 0.90176 0.0
O256 O 0.67794 0.48417 0.90731 0.0
C257 C 0.66192 0.52743 0.86345 0.0
O258 O 0.72611 0.47355 0.85896 0.0
O259 O 0.71466 0.5049 0.8414 0.0
In260 In 0.48467 0.65742 0.84835 0.0
O261 O 0.48423 0.69524 0.8338 0.0
O262 O 0.49072 0.6667 0.80995 0.0
C263 C 0.47495 0.66316 0.89478 0.0
C264 C 0.44429 0.63664 0.8342 0.0
C265 C 0.52773 0.63672 0.85051 0.0
O266 O 0.48349 0.67981 0.88246 0.0
O267 O 0.47153 0.64412 0.88368 0.0
O268 O 0.50922 0.62575 0.84442 0.0
O269 O 0.5246 0.65828 0.85546 0.0
C270 C 0.48814 0.68869 0.81269 0.0
O271 O 0.46408 0.62607 0.8342 0.0
O272 O 0.44491 0.6579 0.84119 0.0
In273 In 0.67157 0.50165 0.13539 0.0
O274 O 0.70844 0.48759 0.143 0.0
O275 O 0.69742 0.51848 0.16165 0.0
C276 C 0.68292 0.50334 0.08918 0.0
C277 C 0.6517 0.4597 0.14691 0.0
C278 C 0.63969 0.53678 0.14343 0.0
O279 O 0.69581 0.51246 0.10508 0.0
O280 O 0.66406 0.49374 0.09659 0.0
O281 O 0.64212 0.51933 0.15711 0.0
O282 O 0.65363 0.53681 0.12597 0.0
C283 C 0.71357 0.50342 0.15789 0.0
O284 O 0.65992 0.47366 0.1623 0.0
O285 O 0.65367 0.46682 0.1258 0.0
In286 In 0.48411 0.69052 0.11381 0.0
O287 O 0.47954 0.7281 0.12799 0.0
O288 O 0.51457 0.71575 0.12247 0.0
C289 C 0.47617 0.68347 0.06714 0.0
C290 C 0.51561 0.6574 0.12778 0.0
C291 C 0.44097 0.68281 0.1329 0.0
O292 O 0.48621 0.70199 0.07467 0.0
O293 O 0.47058 0.6688 0.08301 0.0
O294 O 0.45956 0.67278 0.14044 0.0
O295 O 0.44427 0.69729 0.11614 0.0
C296 C 0.50142 0.73228 0.12961 0.0
O297 O 0.49971 0.66536 0.14143 0.0
O298 O 0.51555 0.66611 0.10713 0.0
In299 In 0.48396 0.33 0.13552 0.0
O300 O 0.47196 0.3597 0.16025 0.0
O301 O 0.44746 0.34724 0.13445 0.0
C302 C 0.52766 0.34414 0.14844 0.0
C303 C 0.47424 0.28713 0.15439 0.0
C304 C 0.48396 0.33425 0.08791 0.0
O305 O 0.51061 0.34322 0.16296 0.0
O306 O 0.52275 0.33739 0.12766 0.0
O307 O 0.48407 0.31422 0.09796 0.0
O308 O 0.48381 0.35168 0.10185 0.0
C309 C 0.45163 0.36162 0.15106 0.0
O310 O 0.49509 0.29442 0.15109 0.0
O311 O 0.45827 0.3011 0.1474 0.0
H312 H 0.16796 0.41957 0.37233 0.0
H313 H 0.12894 0.37868 0.32022 0.0
H314 H 0.1318 0.34342 0.34604 0.0
H315 H 0.2057 0.36881 0.39706 0.0
H316 H 0.2029 0.38063 0.42667 0.0
H317 H 0.20373 0.40038 0.4015 0.0
H318 H 0.16394 0.41904 0.41505 0.0
H319 H 0.16281 0.3993 0.43998 0.0
H320 H 0.13842 0.40024 0.41926 0.0
H321 H 0.13121 0.31576 0.38052 0.0
H322 H 0.1271 0.29825 0.4205 0.0
H323 H 0.16584 0.35745 0.45049 0.0
C324 C 0.16095 0.40293 0.36589 0.0
C325 C 0.1484 0.40175 0.34424 0.0
C326 C 0.13883 0.37986 0.33667 0.0
C327 C 0.14044 0.35973 0.3512 0.0
C328 C 0.15185 0.3618 0.3731 0.0
C329 C 0.1622 0.38282 0.38029 0.0
C330 C 0.17003 0.38166 0.40598 0.0
C331 C 0.19721 0.38294 0.40791 0.0
C332 C 0.15807 0.4012 0.42092 0.0
C333 C 0.16103 0.35732 0.41261 0.0
C334 C 0.1512 0.34585 0.39326 0.0
C335 C 0.1394 0.32428 0.39565 0.0
C336 C 0.13708 0.3145 0.41844 0.0
C337 C 0.14625 0.32648 0.43852 0.0
C338 C 0.15899 0.34774 0.43539 0.0
H339 H 0.62154 0.11183 0.42817 0.0
H340 H 0.62685 0.18523 0.45034 0.0
H341 H 0.59677 0.1964 0.42032 0.0
H342 H 0.61225 0.12346 0.36459 0.0
H343 H 0.59154 0.09933 0.36156 0.0
H344 H 0.61501 0.09765 0.38325 0.0
H345 H 0.58393 0.09021 0.41638 0.0
H346 H 0.56041 0.09193 0.39483 0.0
H347 H 0.56001 0.11107 0.42044 0.0
H348 H 0.56377 0.1989 0.38989 0.0
H349 H 0.53067 0.1924 0.36167 0.0
H350 H 0.5475 0.1174 0.35979 0.0
C351 C 0.61666 0.13032 0.42647 0.0
C352 C 0.62654 0.14769 0.4415 0.0
C353 C 0.61953 0.17165 0.43891 0.0
C354 C 0.6025 0.17817 0.4219 0.0
C355 C 0.59281 0.16051 0.40758 0.0
C356 C 0.59975 0.1371 0.40963 0.0
C357 C 0.58577 0.12131 0.39307 0.0
C358 C 0.60212 0.10976 0.37452 0.0
C359 C 0.5717 0.10253 0.40702 0.0
C360 C 0.56948 0.13939 0.38178 0.0
C361 C 0.57391 0.16195 0.39017 0.0
C362 C 0.56031 0.18135 0.383 0.0
C363 C 0.54156 0.1775 0.36701 0.0
C364 C 0.5366 0.15443 0.35852 0.0
C365 C 0.55097 0.13528 0.36583 0.0
H366 H 0.86797 0.61288 0.4512 0.0
H367 H 0.91067 0.6621 0.41026 0.0
H368 H 0.90813 0.63542 0.37549 0.0
H369 H 0.89284 0.55961 0.42738 0.0
H370 H 0.86497 0.54395 0.42737 0.0
H371 H 0.87023 0.56702 0.44879 0.0
H372 H 0.83206 0.58863 0.43477 0.0
H373 H 0.82676 0.56569 0.4132 0.0
H374 H 0.82868 0.59616 0.40384 0.0
H375 H 0.90142 0.60284 0.34551 0.0
H376 H 0.89133 0.56673 0.32276 0.0
H377 H 0.85226 0.53977 0.38341 0.0
C378 C 0.87685 0.61803 0.43494 0.0
C379 C 0.88957 0.63948 0.43337 0.0
C380 C 0.90085 0.64568 0.41179 0.0
C381 C 0.89948 0.63069 0.39197 0.0
C382 C 0.88665 0.6097 0.39409 0.0
C383 C 0.87554 0.60339 0.41503 0.0
C384 C 0.86293 0.57988 0.41277 0.0
C385 C 0.87338 0.56153 0.4301 0.0
C386 C 0.83601 0.58277 0.41635 0.0
C387 C 0.8688 0.57383 0.3873 0.0
C388 C 0.88249 0.59122 0.37679 0.0
C389 C 0.8906 0.58916 0.3535 0.0
C390 C 0.88477 0.56865 0.34073 0.0
C391 C 0.87091 0.55059 0.35131 0.0
C392 C 0.86268 0.5534 0.37479 0.0
H393 H 0.39751 0.84528 0.4255 0.0
H394 H 0.33675 0.8716 0.38608 0.0
H395 H 0.36069 0.87136 0.34923 0.0
H396 H 0.43988 0.87989 0.39752 0.0
H397 H 0.46286 0.85764 0.39759 0.0
H398 H 0.44014 0.85714 0.42 0.0
H399 H 0.42948 0.81402 0.40837 0.0
H400 H 0.45221 0.81439 0.38586 0.0
H401 H 0.42203 0.80726 0.37799 0.0
H402 H 0.39246 0.87217 0.3178 0.0
H403 H 0.4295 0.87448 0.29441 0.0
H404 H 0.46918 0.84717 0.35455 0.0
C405 C 0.38909 0.85059 0.40904 0.0
C406 C 0.36527 0.8584 0.40857 0.0
C407 C 0.35496 0.86547 0.38676 0.0
C408 C 0.36839 0.86531 0.36577 0.0
C409 C 0.39199 0.85785 0.36693 0.0
C410 C 0.40219 0.85051 0.38801 0.0
C411 C 0.4283 0.84497 0.38494 0.0
C412 C 0.44369 0.86086 0.40095 0.0
C413 C 0.43329 0.81859 0.38956 0.0
C414 C 0.43143 0.85107 0.35899 0.0
C415 C 0.41023 0.85819 0.34882 0.0
C416 C 0.40907 0.86627 0.32546 0.0
C417 C 0.43019 0.86754 0.31233 0.0
C418 C 0.45213 0.86083 0.32265 0.0
C419 C 0.4526 0.85203 0.34609 0.0
H420 H 0.13464 0.58129 0.65419 0.0
H421 H 0.1965 0.53668 0.64382 0.0
H422 H 0.21094 0.56394 0.61277 0.0
H423 H 0.12305 0.59035 0.59681 0.0
H424 H 0.11337 0.62072 0.59891 0.0
H425 H 0.11086 0.60155 0.62421 0.0
H426 H 0.13563 0.63079 0.64953 0.0
H427 H 0.138 0.65032 0.62429 0.0
H428 H 0.16443 0.64014 0.63921 0.0
H429 H 0.21407 0.59047 0.57771 0.0
H430 H 0.20653 0.61531 0.54241 0.0
H431 H 0.14291 0.64318 0.57557 0.0
C432 C 0.15173 0.57781 0.64608 0.0
C433 C 0.16455 0.55699 0.65147 0.0
C434 C 0.18651 0.55265 0.64008 0.0
C435 C 0.19487 0.56807 0.62245 0.0
C436 C 0.18118 0.58785 0.61667 0.0
C437 C 0.16023 0.59297 0.62841 0.0
C438 C 0.14724 0.61343 0.61678 0.0
C439 C 0.12217 0.60605 0.6087 0.0
C440 C 0.14628 0.63495 0.63345 0.0
C441 C 0.16339 0.61805 0.59583 0.0
C442 C 0.18311 0.60342 0.59633 0.0
C443 C 0.19909 0.60248 0.57746 0.0
C444 C 0.1946 0.61655 0.55744 0.0
C445 C 0.17429 0.63129 0.55645 0.0
C446 C 0.15887 0.63247 0.57614 0.0
H447 H 0.37167 0.0913 0.57496 0.0
H448 H 0.3413 0.16096 0.58694 0.0
H449 H 0.37057 0.16812 0.61883 0.0
H450 H 0.38427 0.07796 0.63681 0.0
H451 H 0.41168 0.06286 0.63014 0.0
H452 H 0.38789 0.06302 0.60875 0.0
H453 H 0.41631 0.08061 0.57716 0.0
H454 H 0.44016 0.08057 0.59846 0.0
H455 H 0.43203 0.10767 0.58358 0.0
H456 H 0.4042 0.16832 0.64821 0.0
H457 H 0.4391 0.16103 0.67384 0.0
H458 H 0.44696 0.09098 0.6431 0.0
C459 C 0.37107 0.10799 0.58441 0.0
C460 C 0.35423 0.12558 0.57853 0.0
C461 C 0.35404 0.14723 0.59123 0.0
C462 C 0.37059 0.15146 0.60934 0.0
C463 C 0.3871 0.13382 0.61458 0.0
C464 C 0.38739 0.11247 0.60259 0.0
C465 C 0.40718 0.09659 0.61145 0.0
C466 C 0.39715 0.07376 0.62244 0.0
C467 C 0.42497 0.09105 0.59147 0.0
C468 C 0.4181 0.11242 0.63017 0.0
C469 C 0.40627 0.13382 0.63169 0.0
C470 C 0.4135 0.15156 0.6473 0.0
C471 C 0.43334 0.14728 0.66174 0.0
C472 C 0.44563 0.12542 0.6605 0.0
C473 C 0.4378 0.10779 0.64455 0.0
H474 H 0.87654 0.42865 0.63662 0.0
H475 H 0.80359 0.45323 0.63347 0.0
H476 H 0.79319 0.41894 0.60823 0.0
H477 H 0.88108 0.41248 0.57814 0.0
H478 H 0.89939 0.38673 0.58302 0.0
H479 H 0.90014 0.41084 0.60382 0.0
H480 H 0.88945 0.38203 0.63805 0.0
H481 H 0.8887 0.35775 0.61729 0.0
H482 H 0.86326 0.36387 0.63571 0.0
H483 H 0.79208 0.3853 0.57919 0.0
H484 H 0.8004 0.35521 0.54845 0.0
H485 H 0.874 0.35252 0.57101 0.0
C486 C 0.85824 0.42651 0.6311 0.0
C487 C 0.84082 0.44349 0.63703 0.0
C488 C 0.81717 0.44032 0.62919 0.0
C489 C 0.81109 0.42087 0.61494 0.0
C490 C 0.82884 0.40471 0.60894 0.0
C491 C 0.85191 0.40725 0.61692 0.0
C492 C 0.86816 0.38878 0.60621 0.0
C493 C 0.88837 0.40041 0.59195 0.0
C494 C 0.87796 0.37212 0.62546 0.0
C495 C 0.85086 0.37605 0.59015 0.0
C496 C 0.82818 0.38523 0.59225 0.0
C497 C 0.80965 0.37765 0.57773 0.0
C498 C 0.81454 0.3606 0.5603 0.0
C499 C 0.83779 0.35146 0.55751 0.0
C500 C 0.85597 0.3589 0.57303 0.0
H501 H 0.54979 0.83536 0.60458 0.0
H502 H 0.59091 0.85103 0.66779 0.0
H503 H 0.62797 0.84723 0.64448 0.0
H504 H 0.59246 0.79309 0.57739 0.0
H505 H 0.58621 0.80386 0.54789 0.0
H506 H 0.56338 0.80445 0.57031 0.0
H507 H 0.55767 0.8495 0.56339 0.0
H508 H 0.58044 0.84907 0.54105 0.0
H509 H 0.58289 0.86898 0.56594 0.0
H510 H 0.65996 0.84649 0.61321 0.0
H511 H 0.68411 0.84936 0.57667 0.0
H512 H 0.6217 0.83395 0.53426 0.0
C513 C 0.56661 0.83747 0.61366 0.0
C514 C 0.56755 0.84339 0.63798 0.0
C515 C 0.58985 0.84635 0.64917 0.0
C516 C 0.61096 0.84416 0.6361 0.0
C517 C 0.60937 0.83879 0.61197 0.0
C518 C 0.58773 0.83534 0.60092 0.0
C519 C 0.59059 0.8318 0.57446 0.0
C520 C 0.5827 0.80681 0.56709 0.0
C521 C 0.57711 0.85098 0.5604 0.0
C522 C 0.61716 0.83466 0.57215 0.0
C523 C 0.62776 0.83834 0.594 0.0
C524 C 0.65193 0.84322 0.59606 0.0
C525 C 0.66549 0.84484 0.57523 0.0
C526 C 0.65477 0.84172 0.55269 0.0
C527 C 0.63044 0.83605 0.55126 0.0
H528 H 0.37665 0.1386 0.47333 0.0
H529 H 0.30972 0.12933 0.43628 0.0
H530 H 0.33016 0.13497 0.39791 0.0
H531 H 0.40103 0.18383 0.43296 0.0
H532 H 0.43079 0.17227 0.43525 0.0
H533 H 0.41056 0.16931 0.45986 0.0
H534 H 0.41725 0.12387 0.45986 0.0
H535 H 0.43741 0.12669 0.43524 0.0
H536 H 0.4121 0.10731 0.43298 0.0
H537 H 0.35837 0.13767 0.36365 0.0
H538 H 0.39227 0.13919 0.33581 0.0
H539 H 0.44054 0.14824 0.39517 0.0
C540 C 0.36625 0.13811 0.45716 0.0
C541 C 0.34163 0.13355 0.45773 0.0
C542 C 0.32861 0.13289 0.43622 0.0
C543 C 0.34005 0.13607 0.41436 0.0
C544 C 0.36443 0.14016 0.41437 0.0
C545 C 0.37736 0.14143 0.43521 0.0
C546 C 0.40351 0.14514 0.43028 0.0
C547 C 0.41197 0.16906 0.44017 0.0
C548 C 0.41844 0.12452 0.44017 0.0
C549 C 0.40335 0.14518 0.4034 0.0
C550 C 0.38063 0.14233 0.39458 0.0
C551 C 0.37619 0.1403 0.37032 0.0
C552 C 0.39553 0.1411 0.35467 0.0
C553 C 0.41891 0.14405 0.36338 0.0
C554 C 0.42278 0.14638 0.38803 0.0
H555 H 0.82151 0.37964 0.45396 0.0
H556 H 0.83389 0.31584 0.41294 0.0
H557 H 0.82605 0.33807 0.37597 0.0
H558 H 0.77551 0.4071 0.41248 0.0
H559 H 0.78741 0.43624 0.4178 0.0
H560 H 0.78814 0.41423 0.44101 0.0
H561 H 0.83365 0.41987 0.44501 0.0
H562 H 0.83305 0.44175 0.42192 0.0
H563 H 0.85218 0.41628 0.41915 0.0
H564 H 0.82545 0.36839 0.34391 0.0
H565 H 0.83244 0.40416 0.31967 0.0
H566 H 0.8196 0.44819 0.38141 0.0
C567 C 0.82173 0.37017 0.43724 0.0
C568 C 0.82822 0.34607 0.43624 0.0
C569 C 0.8288 0.33431 0.41406 0.0
C570 C 0.82425 0.34677 0.39299 0.0
C571 C 0.81881 0.37083 0.39449 0.0
C572 C 0.81724 0.38234 0.41612 0.0
C573 C 0.81442 0.4088 0.41291 0.0
C574 C 0.78991 0.41707 0.42156 0.0
C575 C 0.83453 0.42245 0.42547 0.0
C576 C 0.81634 0.41058 0.38619 0.0
C577 C 0.81825 0.38845 0.37581 0.0
C578 C 0.82329 0.38577 0.35171 0.0
C579 C 0.82728 0.40618 0.33809 0.0
C580 C 0.82636 0.42888 0.34867 0.0
C581 C 0.81988 0.43106 0.37276 0.0
H582 H 0.5571 0.85403 0.3613 0.0
H583 H 0.59733 0.89627 0.31106 0.0
H584 H 0.63152 0.89627 0.33854 0.0
H585 H 0.57766 0.88332 0.41309 0.0
H586 H 0.57873 0.85695 0.43111 0.0
H587 H 0.55797 0.85894 0.40688 0.0
H588 H 0.57507 0.82027 0.3889 0.0
H589 H 0.59588 0.81813 0.41312 0.0
H590 H 0.60645 0.81817 0.38291 0.0
H591 H 0.66064 0.89303 0.37195 0.0
H592 H 0.68268 0.88724 0.40941 0.0
H593 H 0.62333 0.8475 0.43816 0.0
C594 C 0.5732 0.86304 0.35598 0.0
C595 C 0.57466 0.87506 0.33403 0.0
C596 C 0.5959 0.88692 0.32779 0.0
C597 C 0.6154 0.88698 0.34325 0.0
C598 C 0.61333 0.87514 0.36485 0.0
C599 C 0.59279 0.8634 0.37125 0.0
C600 C 0.59484 0.85291 0.39593 0.0
C601 C 0.5762 0.86368 0.41274 0.0
C602 C 0.59295 0.82576 0.39516 0.0
C603 C 0.61968 0.86077 0.40248 0.0
C604 C 0.63008 0.87345 0.38424 0.0
C605 C 0.65276 0.88302 0.38631 0.0
C606 C 0.66512 0.87965 0.40764 0.0
C607 C 0.65472 0.86689 0.42663 0.0
C608 C 0.63177 0.85723 0.42389 0.0
H609 H 0.15233 0.58708 0.45193 0.0
H610 H 0.13834 0.64868 0.40797 0.0
H611 H 0.13311 0.6226 0.37302 0.0
H612 H 0.18572 0.55443 0.40812 0.0
H613 H 0.17389 0.52618 0.41716 0.0
H614 H 0.17666 0.54979 0.43848 0.0
H615 H 0.13185 0.54629 0.44841 0.0
H616 H 0.12895 0.52266 0.42716 0.0
H617 H 0.1103 0.54852 0.42483 0.0
H618 H 0.12815 0.58936 0.34322 0.0
H619 H 0.12476 0.55177 0.32084 0.0
H620 H 0.14319 0.51253 0.38453 0.0
C621 C 0.1482 0.59511 0.43495 0.0
C622 C 0.14567 0.61986 0.4326 0.0
C623 C 0.14035 0.62972 0.41009 0.0
C624 C 0.13736 0.61507 0.39018 0.0
C625 C 0.13993 0.59067 0.39313 0.0
C626 C 0.14534 0.5808 0.41494 0.0
C627 C 0.14713 0.55413 0.41348 0.0
C628 C 0.17235 0.54564 0.41967 0.0
C629 C 0.12844 0.54221 0.42941 0.0
C630 C 0.14167 0.55045 0.38747 0.0
C631 C 0.13753 0.57171 0.37599 0.0
C632 C 0.13151 0.57263 0.35199 0.0
C633 C 0.12961 0.55123 0.33945 0.0
C634 C 0.13384 0.52931 0.35096 0.0
C635 C 0.14006 0.52903 0.37522 0.0
H636 H 0.36646 0.84785 0.54918 0.0
H637 H 0.39153 0.90911 0.50992 0.0
H638 H 0.42081 0.91725 0.54146 0.0
H639 H 0.37379 0.87322 0.60874 0.0
H640 H 0.38364 0.84559 0.62144 0.0
H641 H 0.36339 0.84555 0.59665 0.0
H642 H 0.39241 0.81894 0.57287 0.0
H643 H 0.41269 0.81886 0.59756 0.0
H644 H 0.42267 0.82846 0.56871 0.0
H645 H 0.44883 0.91736 0.57566 0.0
H646 H 0.47457 0.9089 0.6101 0.0
H647 H 0.43135 0.84766 0.62738 0.0
C648 C 0.37795 0.86312 0.54737 0.0
C649 C 0.37675 0.87789 0.52717 0.0
C650 C 0.39218 0.89757 0.52529 0.0
C651 C 0.40879 0.9024 0.54313 0.0
C652 C 0.40965 0.88741 0.56275 0.0
C653 C 0.39467 0.86818 0.56502 0.0
C654 C 0.40012 0.85417 0.58731 0.0
C655 C 0.37897 0.85467 0.60456 0.0
C656 C 0.40741 0.8286 0.58124 0.0
C657 C 0.42087 0.86825 0.59691 0.0
C658 C 0.4259 0.88748 0.58259 0.0
C659 C 0.44494 0.9025 0.58716 0.0
C660 C 0.45946 0.89754 0.60673 0.0
C661 C 0.45486 0.8777 0.62141 0.0
C662 C 0.4351 0.86311 0.61661 0.0
H663 H 0.15132 0.45077 0.61961 0.0
H664 H 0.11649 0.41669 0.67923 0.0
H665 H 0.1155 0.37901 0.65693 0.0
H666 H 0.11768 0.42367 0.57545 0.0
H667 H 0.14166 0.4207 0.55447 0.0
H668 H 0.14224 0.44411 0.57611 0.0
H669 H 0.18333 0.42963 0.591 0.0
H670 H 0.18291 0.40617 0.56931 0.0
H671 H 0.18692 0.39928 0.60032 0.0
H672 H 0.11514 0.3462 0.62693 0.0
H673 H 0.11501 0.32074 0.59126 0.0
H674 H 0.14984 0.37645 0.55122 0.0
C675 C 0.14391 0.43526 0.62815 0.0
C676 C 0.13409 0.43655 0.65117 0.0
C677 C 0.12418 0.41601 0.66162 0.0
C678 C 0.12361 0.39454 0.64913 0.0
C679 C 0.13308 0.39396 0.62628 0.0
C680 C 0.14311 0.41376 0.61591 0.0
C681 C 0.15047 0.40893 0.59052 0.0
C682 C 0.13721 0.42532 0.57312 0.0
C683 C 0.17752 0.41113 0.58763 0.0
C684 C 0.14246 0.38349 0.58803 0.0
C685 C 0.13273 0.37509 0.60892 0.0
C686 C 0.12298 0.35247 0.61056 0.0
C687 C 0.12295 0.33817 0.59022 0.0
C688 C 0.13249 0.34662 0.56855 0.0
C689 C 0.14265 0.36944 0.56761 0.0
H690 H 0.54093 0.1385 0.62767 0.0
H691 H 0.59 0.12347 0.68518 0.0
H692 H 0.6237 0.12705 0.6573 0.0
H693 H 0.56959 0.10477 0.5849 0.0
H694 H 0.56391 0.12469 0.56051 0.0
H695 H 0.54398 0.12396 0.58544 0.0
H696 H 0.54981 0.16906 0.59177 0.0
H697 H 0.5697 0.16996 0.56672 0.0
H698 H 0.57938 0.18074 0.59524 0.0
H699 H 0.65154 0.12835 0.62249 0.0
H700 H 0.6715 0.1277 0.58341 0.0
H701 H 0.60408 0.14177 0.5488 0.0
C702 C 0.5588 0.13648 0.63451 0.0
C703 C 0.56292 0.13083 0.65858 0.0
C704 C 0.5865 0.12793 0.6668 0.0
C705 C 0.60573 0.12996 0.65112 0.0
C706 C 0.60103 0.13502 0.62735 0.0
C707 C 0.57814 0.1384 0.61911 0.0
C708 C 0.57772 0.14202 0.59248 0.0
C709 C 0.56293 0.12271 0.58012 0.0
C710 C 0.56862 0.16693 0.58619 0.0
C711 C 0.60386 0.13947 0.58693 0.0
C712 C 0.61706 0.1357 0.60729 0.0
C713 C 0.64145 0.13161 0.60646 0.0
C714 C 0.65261 0.13121 0.5842 0.0
C715 C 0.63933 0.13477 0.56314 0.0
C716 C 0.61471 0.13921 0.56463 0.0
H717 H 0.87511 0.58454 0.64304 0.0
H718 H 0.80958 0.55208 0.61916 0.0
H719 H 0.80444 0.58405 0.58961 0.0
H720 H 0.85791 0.64814 0.63158 0.0
H721 H 0.88739 0.65514 0.6213 0.0
H722 H 0.88322 0.63284 0.64384 0.0
H723 H 0.90617 0.60257 0.61795 0.0
H724 H 0.91027 0.62462 0.59533 0.0
H725 H 0.89626 0.59687 0.58804 0.0
H726 H 0.80956 0.61553 0.55901 0.0
H727 H 0.82499 0.64338 0.529 0.0
H728 H 0.88783 0.65477 0.57206 0.0
C729 C 0.85923 0.58467 0.63218 0.0
C730 C 0.84256 0.56607 0.63352 0.0
C731 C 0.82242 0.56634 0.61851 0.0
C732 C 0.81932 0.58446 0.60176 0.0
C733 C 0.83652 0.60214 0.6003 0.0
C734 C 0.85606 0.60245 0.61519 0.0
C735 C 0.87356 0.62147 0.60796 0.0
C736 C 0.87563 0.64053 0.62732 0.0
C737 C 0.89799 0.61073 0.60196 0.0
C738 C 0.86135 0.63111 0.58605 0.0
C739 C 0.83976 0.6201 0.58224 0.0
C740 C 0.82619 0.62461 0.56205 0.0
C741 C 0.83514 0.6404 0.54507 0.0
C742 C 0.85754 0.65129 0.5483 0.0
C743 C 0.87049 0.64699 0.56932 0.0
H744 H 0.34287 0.44779 0.12816 0.0
H745 H 0.37207 0.49376 0.18254 0.0
H746 H 0.40223 0.4634 0.19212 0.0
H747 H 0.35319 0.39128 0.15928 0.0
H748 H 0.361 0.37604 0.13227 0.0
H749 H 0.34024 0.40035 0.13144 0.0
H750 H 0.36639 0.42164 0.10015 0.0
H751 H 0.38717 0.39744 0.10087 0.0
H752 H 0.39723 0.42717 0.10668 0.0
H753 H 0.43108 0.42952 0.19346 0.0
H754 H 0.45706 0.39506 0.18576 0.0
H755 H 0.40888 0.37142 0.13051 0.0
C756 C 0.35536 0.4513 0.14235 0.0
C757 C 0.35512 0.47302 0.1547 0.0
C758 C 0.37195 0.47715 0.17292 0.0
C759 C 0.38906 0.46 0.17854 0.0
C760 C 0.38901 0.43884 0.16583 0.0
C761 C 0.37257 0.43442 0.14813 0.0
C762 C 0.37734 0.411 0.136 0.0
C763 C 0.35671 0.39364 0.14 0.0
C764 C 0.38234 0.41454 0.10936 0.0
C765 C 0.39938 0.40321 0.14923 0.0
C766 C 0.40568 0.41935 0.16655 0.0
C767 C 0.42617 0.41659 0.18017 0.0
C768 C 0.4408 0.39699 0.17567 0.0
C769 C 0.43488 0.38056 0.15764 0.0
C770 C 0.41369 0.38355 0.1446 0.0
H771 H 0.43895 0.59029 0.82232 0.0
H772 H 0.39924 0.65495 0.83483 0.0
H773 H 0.3617 0.63253 0.8319 0.0
H774 H 0.39397 0.56068 0.78212 0.0
H775 H 0.40025 0.53219 0.79515 0.0
H776 H 0.42342 0.55408 0.79281 0.0
H777 H 0.43102 0.55083 0.83811 0.0
H778 H 0.40792 0.52911 0.84061 0.0
H779 H 0.40674 0.5556 0.85843 0.0
H780 H 0.32942 0.60225 0.83496 0.0
H781 H 0.30542 0.56678 0.84422 0.0
H782 H 0.36638 0.5221 0.82966 0.0
C783 C 0.42233 0.59987 0.82363 0.0
C784 C 0.42192 0.62432 0.82869 0.0
C785 C 0.39989 0.6362 0.83079 0.0
C786 C 0.37849 0.62363 0.82905 0.0
C787 C 0.37951 0.5993 0.82493 0.0
C788 C 0.4009 0.58759 0.82201 0.0
C789 C 0.39751 0.56106 0.82092 0.0
C790 C 0.40418 0.55144 0.79628 0.0
C791 C 0.41161 0.54844 0.84069 0.0
C792 C 0.37105 0.55956 0.82508 0.0
C793 C 0.36085 0.58178 0.82679 0.0
C794 C 0.33708 0.58476 0.83308 0.0
C795 C 0.3236 0.56454 0.83836 0.0
C796 C 0.33407 0.54176 0.83755 0.0
C797 C 0.35784 0.53929 0.83009 0.0
H798 H 0.41897 0.34547 0.88318 0.0
H799 H 0.44415 0.35611 0.8112 0.0
H800 H 0.40833 0.3799 0.80225 0.0
H801 H 0.35393 0.34476 0.86988 0.0
H802 H 0.34709 0.36112 0.8965 0.0
H803 H 0.37227 0.34137 0.8959 0.0
H804 H 0.39977 0.3758 0.90894 0.0
H805 H 0.37475 0.39557 0.90958 0.0
H806 H 0.40029 0.4027 0.89168 0.0
H807 H 0.37252 0.40604 0.80254 0.0
H808 H 0.34119 0.43487 0.81268 0.0
H809 H 0.34019 0.40839 0.88502 0.0
C810 C 0.41658 0.35223 0.86533 0.0
C811 C 0.43409 0.34876 0.84776 0.0
C812 C 0.43079 0.35846 0.82483 0.0
C813 C 0.41046 0.37186 0.81957 0.0
C814 C 0.39371 0.37539 0.83747 0.0
C815 C 0.3966 0.3659 0.85992 0.0
C816 C 0.37767 0.37474 0.87683 0.0
C817 C 0.3618 0.35427 0.88527 0.0
C818 C 0.38879 0.38799 0.89799 0.0
C819 C 0.3642 0.39139 0.86063 0.0
C820 C 0.37338 0.39108 0.83786 0.0
C821 C 0.36495 0.40619 0.8202 0.0
C822 C 0.34715 0.4225 0.82614 0.0
C823 C 0.33823 0.42378 0.84962 0.0
C824 C 0.34644 0.40757 0.86686 0.0
H825 H 0.65387 0.41223 0.87973 0.0
H826 H 0.64614 0.44439 0.81018 0.0
H827 H 0.61489 0.4154 0.80019 0.0
H828 H 0.64053 0.34966 0.86105 0.0
H829 H 0.62456 0.34403 0.8882 0.0
H830 H 0.64918 0.3644 0.88809 0.0
H831 H 0.62201 0.39699 0.9058 0.0
H832 H 0.59731 0.37689 0.90575 0.0
H833 H 0.59499 0.4049 0.89054 0.0
H834 H 0.58034 0.3873 0.80029 0.0
H835 H 0.54627 0.36145 0.81008 0.0
H836 H 0.57698 0.34758 0.87938 0.0
C837 C 0.64616 0.41267 0.86211 0.0
C838 C 0.65249 0.43044 0.84567 0.0
C839 C 0.64166 0.43079 0.82297 0.0
C840 C 0.62391 0.41438 0.81713 0.0
C841 C 0.61743 0.39762 0.8341 0.0
C842 C 0.62845 0.39646 0.85603 0.0
C843 C 0.61668 0.3784 0.87198 0.0
C844 C 0.63376 0.35791 0.87766 0.0
C845 C 0.60718 0.39 0.89485 0.0
C846 C 0.59667 0.37033 0.85601 0.0
C847 C 0.59756 0.38134 0.83411 0.0
C848 C 0.57975 0.37817 0.81718 0.0
C849 C 0.56044 0.36354 0.82291 0.0
C850 C 0.55911 0.35242 0.8454 0.0
C851 C 0.5777 0.35557 0.8619 0.0
H852 H 0.61562 0.52677 0.84969 0.0
H853 H 0.67188 0.57417 0.8722 0.0
H854 H 0.64397 0.60803 0.86988 0.0
H855 H 0.58725 0.56715 0.80825 0.0
H856 H 0.5578 0.55717 0.81574 0.0
H857 H 0.58259 0.53713 0.8181 0.0
H858 H 0.57198 0.52911 0.86218 0.0
H859 H 0.54721 0.54916 0.85998 0.0
H860 H 0.56952 0.55367 0.88249 0.0
H861 H 0.60911 0.6363 0.86678 0.0
H862 H 0.57035 0.65666 0.86281 0.0
H863 H 0.5376 0.59021 0.84227 0.0
C864 C 0.62216 0.5443 0.85394 0.0
C865 C 0.64587 0.54792 0.86108 0.0
C866 C 0.65374 0.57108 0.86661 0.0
C867 C 0.63805 0.59038 0.86534 0.0
C868 C 0.61466 0.58613 0.85843 0.0
C869 C 0.6068 0.56365 0.85275 0.0
C870 C 0.58071 0.56358 0.8465 0.0
C871 C 0.57687 0.5558 0.82061 0.0
C872 C 0.56653 0.54796 0.86383 0.0
C873 C 0.57498 0.5895 0.84982 0.0
C874 C 0.59476 0.60228 0.85662 0.0
C875 C 0.59355 0.6265 0.86131 0.0
C876 C 0.57149 0.63789 0.85904 0.0
C877 C 0.55105 0.625 0.85218 0.0
C878 C 0.55295 0.60055 0.84742 0.0
H879 H 0.62662 0.57145 0.11225 0.0
H880 H 0.61045 0.5425 0.18177 0.0
H881 H 0.57762 0.57132 0.18611 0.0
H882 H 0.61318 0.6331 0.12585 0.0
H883 H 0.60023 0.6386 0.09709 0.0
H884 H 0.62335 0.61675 0.1003 0.0
H885 H 0.59593 0.5851 0.08138 0.0
H886 H 0.57269 0.6068 0.07822 0.0
H887 H 0.56709 0.57967 0.09414 0.0
H888 H 0.54568 0.60245 0.18211 0.0
H889 H 0.51681 0.6332 0.1699 0.0
H890 H 0.55356 0.6408 0.10261 0.0
C891 C 0.61639 0.5714 0.12853 0.0
C892 C 0.62112 0.5549 0.14676 0.0
C893 C 0.60713 0.5551 0.16764 0.0
C894 C 0.58849 0.57139 0.17027 0.0
C895 C 0.58408 0.58725 0.1518 0.0
C896 C 0.59765 0.58738 0.13135 0.0
C897 C 0.58864 0.60549 0.1137 0.0
C898 C 0.60747 0.62462 0.10897 0.0
C899 C 0.58061 0.59354 0.0905 0.0
C900 C 0.56776 0.61542 0.12733 0.0
C901 C 0.5655 0.60481 0.14933 0.0
C902 C 0.54732 0.61094 0.16496 0.0
C903 C 0.53103 0.62839 0.15788 0.0
C904 C 0.53298 0.63932 0.13533 0.0
C905 C 0.55162 0.63273 0.11995 0.0
H906 H 0.35675 0.58282 0.17489 0.0
H907 H 0.30446 0.61247 0.12682 0.0
H908 H 0.32692 0.64999 0.12574 0.0
H909 H 0.37483 0.64118 0.20528 0.0
H910 H 0.40534 0.63151 0.20608 0.0
H911 H 0.38168 0.6102 0.20901 0.0
H912 H 0.39911 0.58636 0.17377 0.0
H913 H 0.42254 0.60755 0.17059 0.0
H914 H 0.40361 0.60096 0.14564 0.0
H915 H 0.35921 0.67976 0.12216 0.0
H916 H 0.39823 0.69861 0.11602 0.0
H917 H 0.42996 0.64938 0.16592 0.0
C918 C 0.34946 0.59759 0.165 0.0
C919 C 0.32885 0.59485 0.15104 0.0
C920 C 0.32013 0.61431 0.13782 0.0
C921 C 0.33275 0.63572 0.13718 0.0
C922 C 0.35385 0.6374 0.15007 0.0
C923 C 0.36198 0.6189 0.16402 0.0
C924 C 0.38696 0.62338 0.17284 0.0
C925 C 0.3872 0.62678 0.19991 0.0
C926 C 0.40403 0.6034 0.16523 0.0
C927 C 0.39235 0.64636 0.16016 0.0
C928 C 0.37281 0.6546 0.14775 0.0
C929 C 0.37442 0.67387 0.13233 0.0
C930 C 0.39668 0.68444 0.12889 0.0
C931 C 0.41705 0.67546 0.14057 0.0
C932 C 0.4146 0.65684 0.15707 0.0
H933 H 0.63478 0.42631 0.11648 0.0
H934 H 0.63896 0.44438 0.1912 0.0
H935 H 0.61214 0.41111 0.20076 0.0
H936 H 0.57604 0.41561 0.11472 0.0
H937 H 0.577 0.39109 0.09425 0.0
H938 H 0.60018 0.41287 0.09387 0.0
H939 H 0.63171 0.37996 0.10013 0.0
H940 H 0.60852 0.35796 0.10043 0.0
H941 H 0.62897 0.35999 0.12497 0.0
H942 H 0.57929 0.38136 0.20116 0.0
H943 H 0.544 0.35686 0.19242 0.0
H944 H 0.56232 0.35732 0.11764 0.0
C945 C 0.63064 0.42279 0.13493 0.0
C946 C 0.6389 0.43782 0.15312 0.0
C947 C 0.63288 0.43294 0.17702 0.0
C948 C 0.61774 0.41404 0.18261 0.0
C949 C 0.60917 0.40002 0.16413 0.0
C950 C 0.6157 0.40396 0.14078 0.0
C951 C 0.6021 0.38814 0.12394 0.0
C952 C 0.58799 0.40281 0.10564 0.0
C953 C 0.61883 0.37046 0.11165 0.0
C954 C 0.58586 0.37572 0.14129 0.0
C955 C 0.59047 0.38246 0.16444 0.0
C956 C 0.57593 0.37542 0.1832 0.0
C957 C 0.5559 0.36159 0.17808 0.0
C958 C 0.55064 0.35506 0.1544 0.0
C959 C 0.56623 0.36163 0.13597 0.0
H960 H 0.04014 0.28468 0.51076 0.0
H961 H 0.05692 0.35354 0.48084 0.0
H962 H 0.01425 0.3615 0.4751 0.0
H963 H 0.99016 0.27165 0.47233 0.0
H964 H 0.97308 0.25768 0.49548 0.0
H965 H 0.00504 0.25697 0.49657 0.0
H966 H 0.00412 0.27584 0.53851 0.0
H967 H 0.97217 0.27663 0.53754 0.0
H968 H 0.98864 0.30346 0.54291 0.0
H969 H 0.97014 0.36231 0.47289 0.0
H970 H 0.92684 0.35629 0.47525 0.0
H971 H 0.9383 0.28728 0.50739 0.0
C972 C 0.0348 0.30135 0.50287 0.0
C973 C 0.05178 0.31847 0.49617 0.0
C974 C 0.04417 0.34018 0.48609 0.0
C975 C 0.01999 0.34486 0.48272 0.0
C976 C 0.00368 0.32768 0.4896 0.0
C977 C 0.01069 0.30639 0.49952 0.0
C978 C 0.98943 0.29127 0.50593 0.0
C979 C 0.98944 0.26802 0.49172 0.0
C980 C 0.98854 0.28653 0.53282 0.0
C981 C 0.96941 0.30746 0.49815 0.0
C982 C 0.97808 0.3283 0.48866 0.0
C983 C 0.9631 0.34606 0.48027 0.0
C984 C 0.93856 0.34247 0.48168 0.0
C985 C 0.92926 0.32134 0.49152 0.0
C986 C 0.94493 0.30362 0.4998 0.0
H987 H 0.65544 0.04247 0.50424 0.0
H988 H 0.72817 0.06296 0.48924 0.0
H989 H 0.74022 0.02089 0.48974 0.0
H990 H 0.66945 0.99389 0.54396 0.0
H991 H 0.64552 0.97557 0.53331 0.0
H992 H 0.64276 0.00735 0.53249 0.0
H993 H 0.63411 0.00564 0.48729 0.0
H994 H 0.63674 0.97387 0.488 0.0
H995 H 0.65486 0.9909 0.46789 0.0
H996 H 0.74408 0.9766 0.49064 0.0
H997 H 0.73923 0.93308 0.49112 0.0
H998 H 0.66408 0.9418 0.50585 0.0
C999 C 0.67391 0.0381 0.50114 0.0
C1000 C 0.69089 0.0559 0.49671 0.0
C1001 C 0.71488 0.04954 0.49268 0.0
C1002 C 0.72191 0.02573 0.49298 0.0
C1003 C 0.70473 0.00858 0.49742 0.0
C1004 C 0.68123 0.01445 0.50141 0.0
C1005 C 0.66617 0.99261 0.50515 0.0
C1006 C 0.65534 0.99235 0.53022 0.0
C1007 C 0.64684 0.99065 0.48594 0.0
C1008 C 0.68482 0.97353 0.50237 0.0
C1009 C 0.70697 0.98309 0.49803 0.0
C1010 C 0.72686 0.96889 0.49417 0.0
C1011 C 0.72394 0.94424 0.49448 0.0
C1012 C 0.70132 0.93415 0.4986 0.0
C1013 C 0.68163 0.94903 0.50284 0.0
H1014 H 0.96984 0.66017 0.50818 0.0
H1015 H 0.96124 0.73522 0.49393 0.0
H1016 H 0.00494 0.74011 0.49434 0.0
H1017 H 0.02172 0.66527 0.54723 0.0
H1018 H 0.035 0.63857 0.53574 0.0
H1019 H 0.00316 0.64165 0.53635 0.0
H1020 H 0.00148 0.63314 0.49114 0.0
H1021 H 0.03327 0.63017 0.49035 0.0
H1022 H 0.01869 0.65115 0.47109 0.0
H1023 H 0.04977 0.7359 0.49329 0.0
H1024 H 0.09181 0.72313 0.49163 0.0
H1025 H 0.07029 0.6509 0.50667 0.0
C1026 C 0.97711 0.67773 0.50552 0.0
C1027 C 0.96221 0.69735 0.50109 0.0
C1028 C 0.97239 0.71998 0.49747 0.0
C1029 C -0.00285 0.72291 0.49767 0.0
C1030 C 0.01137 0.70305 0.50166 0.0
C1031 C 0.00167 0.68094 0.50568 0.0
C1032 C 0.02068 0.6622 0.5084 0.0
C1033 C 0.02011 0.65129 0.53342 0.0
C1034 C 0.01839 0.64305 0.48909 0.0
C1035 C 0.04265 0.67711 0.50481 0.0
C1036 C 0.03699 0.70065 0.50109 0.0
C1037 C 0.05441 0.71755 0.49643 0.0
C1038 C 0.0782 0.71014 0.49547 0.0
C1039 C 0.08427 0.68606 0.49909 0.0
C1040 C 0.06621 0.66946 0.50399 0.0
H1041 H 0.3032 0.04261 0.47773 0.0
H1042 H 0.27372 0.04082 0.54886 0.0
H1043 H 0.26623 -0.00215 0.54454 0.0
H1044 H 0.26377 -0.00327 0.45118 0.0
H1045 H 0.28762 0.98486 0.43346 0.0
H1046 H 0.28711 0.01594 0.44079 0.0
H1047 H 0.32926 0.01241 0.45902 0.0
H1048 H 0.32992 0.98146 0.45168 0.0
H1049 H 0.33469 0.99075 0.48193 0.0
H1050 H 0.26669 0.95454 0.53428 0.0
H1051 H 0.27677 0.91447 0.51985 0.0
H1052 H 0.30586 0.94492 0.45541 0.0
C1053 C 0.29468 0.0333 0.49221 0.0
C1054 C 0.28893 0.04498 0.51359 0.0
C1055 C 0.27816 0.03215 0.53229 0.0
C1056 C 0.27372 0.0078 0.52993 0.0
C1057 C 0.28 -0.0033 0.50871 0.0
C1058 C 0.29019 0.00908 0.49015 0.0
C1059 C 0.29756 0.99275 0.47019 0.0
C1060 C 0.28315 -0.00212 0.44757 0.0
C1061 C 0.32444 0.99444 0.46545 0.0
C1062 C 0.29087 0.96909 0.4808 0.0
C1063 C 0.28033 0.97173 0.50282 0.0
C1064 C 0.27452 0.95227 0.51688 0.0
C1065 C 0.28029 0.92958 0.50854 0.0
C1066 C 0.29195 0.92663 0.48646 0.0
C1067 C 0.29658 0.94661 0.47216 0.0
H1068 H 0.49275 0.95673 0.31571 0.0
H1069 H 0.52418 0.95353 0.24544 0.0
H1070 H 0.51887 -0.0031 0.2412 0.0
H1071 H 0.44859 0.00093 0.30225 0.0
H1072 H 0.45112 0.01506 0.33083 0.0
H1073 H 0.45712 0.98385 0.32794 0.0
H1074 H 0.49886 0.98992 0.34642 0.0
H1075 H 0.49297 0.02111 0.34944 0.0
H1076 H 0.51882 0.01121 0.33339 0.0
H1077 H 0.511 0.04093 0.24549 0.0
H1078 H 0.50138 0.08189 0.25795 0.0
H1079 H 0.47463 0.05515 0.32506 0.0
C1080 C 0.4985 0.96511 0.29939 0.0
C1081 C 0.5089 0.95188 0.2809 0.0
C1082 C 0.51617 0.96345 0.25981 0.0
C1083 C 0.51319 0.98801 0.25725 0.0
C1084 C 0.50284 0.00055 0.2759 0.0
C1085 C 0.49558 0.98945 0.29653 0.0
C1086 C 0.48524 0.00682 0.31409 0.0
C1087 C 0.45896 0.00134 0.31906 0.0
C1088 C 0.49985 0.00729 0.33719 0.0
C1089 C 0.48798 0.02955 0.30025 0.0
C1090 C 0.49811 0.02564 0.27824 0.0
C1091 C 0.50293 0.04418 0.26262 0.0
C1092 C 0.49741 0.06733 0.26983 0.0
C1093 C 0.4872 0.0716 0.2924 0.0
C1094 C 0.48227 0.0524 0.30762 0.0
H1095 H 0.94129 0.47078 0.28904 0.0
H1096 H 0.92612 0.45291 0.36246 0.0
H1097 H 0.96846 0.44387 0.36904 0.0
H1098 H 0.98874 0.42579 0.28001 0.0
H1099 H 0.00603 0.44551 0.26174 0.0
H1100 H 0.9741 0.44783 0.26202 0.0
H1101 H 0.9774 0.49215 0.27351 0.0
H1102 H 0.00926 0.48996 0.27339 0.0
H1103 H 0.99409 0.50038 0.29956 0.0
H1104 H 0.0125 0.44143 0.36901 0.0
H1105 H 0.05564 0.44452 0.36199 0.0
H1106 H 0.04233 0.46302 0.28837 0.0
C1107 C 0.94683 0.46449 0.30635 0.0
C1108 C 0.9305 0.46249 0.32524 0.0
C1109 C 0.93838 0.4545 0.34774 0.0
C1110 C 0.96236 0.44926 0.35163 0.0
C1111 C 0.97812 0.4519 0.33278 0.0
C1112 C 0.97069 0.45911 0.31052 0.0
C1113 C 0.99148 0.46203 0.29375 0.0
C1114 C 0.98999 0.44422 0.27316 0.0
C1115 C 0.99315 0.48765 0.28453 0.0
C1116 C 0.01181 0.45615 0.31031 0.0
C1117 C 0.00368 0.45014 0.33268 0.0
C1118 C 0.01911 0.44568 0.35148 0.0
C1119 C 0.04354 0.44758 0.34735 0.0
C1120 C 0.0522 0.45385 0.32462 0.0
C1121 C 0.03614 0.45783 0.30581 0.0
H1122 H 0.53603 0.93375 0.69575 0.0
H1123 H 0.46837 0.91578 0.72771 0.0
H1124 H 0.46354 0.95731 0.74084 0.0
H1125 H 0.55395 0.98098 0.73933 0.0
H1126 H 0.5666 -0.00127 0.71593 0.0
H1127 H 0.567 0.96687 0.71375 0.0
H1128 H 0.54575 0.96957 0.67299 0.0
H1129 H 0.54504 0.00129 0.67513 0.0
H1130 H 0.51782 0.98508 0.67084 0.0
H1131 H 0.46343 0.0017 0.7451 0.0
H1132 H 0.46777 0.04497 0.73949 0.0
H1133 H 0.53482 0.03342 0.70345 0.0
C1134 C 0.5206 0.93835 0.70625 0.0
C1135 C 0.50267 0.92159 0.71092 0.0
C1136 C 0.48241 0.92838 0.72414 0.0
C1137 C 0.47956 0.95189 0.73172 0.0
C1138 C 0.49718 0.96825 0.72599 0.0
C1139 C 0.5174 0.9617 0.71368 0.0
C1140 C 0.53225 0.98296 0.70702 0.0
C1141 C 0.55638 0.98235 0.71978 0.0
C1142 C 0.53537 0.98482 0.6799 0.0
C1143 C 0.51672 0.0026 0.71652 0.0
C1144 C 0.49684 0.99382 0.72789 0.0
C1145 C 0.47914 0.00877 0.73661 0.0
C1146 C 0.48171 0.03328 0.73331 0.0
C1147 C 0.50162 0.04242 0.72105 0.0
C1148 C 0.51948 0.02689 0.71301 0.0
H1149 H 0.94308 0.50839 0.70074 0.0
H1150 H 0.93286 0.51568 0.62467 0.0
H1151 H 0.97625 0.51805 0.61908 0.0
H1152 H 0.99394 0.54796 0.70568 0.0
H1153 H 0.00862 0.52983 0.72758 0.0
H1154 H 0.97668 0.53007 0.72579 0.0
H1155 H 0.97658 0.48442 0.72091 0.0
H1156 H 0.00849 0.48403 0.72267 0.0
H1157 H 0.99373 0.47111 0.6974 0.0
H1158 H 0.0204 0.51825 0.62151 0.0
H1159 H 0.0629 0.51538 0.63171 0.0
H1160 H 0.04457 0.50734 0.70616 0.0
C1161 C 0.95 0.51072 0.68295 0.0
C1162 C 0.9347 0.51194 0.66313 0.0
C1163 C 0.94433 0.51473 0.64008 0.0
C1164 C 0.96891 0.51615 0.63673 0.0
C1165 C 0.98354 0.51472 0.65662 0.0
C1166 C 0.9745 0.51204 0.67927 0.0
C1167 C 0.99417 0.50998 0.69749 0.0
C1168 C 0.9933 0.5307 0.71518 0.0
C1169 C 0.99318 0.48596 0.71037 0.0
C1170 C 0.01567 0.51165 0.68147 0.0
C1171 C 0.00912 0.51456 0.658 0.0
C1172 C 0.02579 0.51608 0.63983 0.0
C1173 C 0.04986 0.51442 0.6458 0.0
C1174 C 0.05696 0.51116 0.66971 0.0
C1175 C 0.03962 0.50992 0.68775 0.0
H1176 H 0.28322 0.48131 0.9556 0.0
H1177 H 0.34992 0.51342 0.9343 0.0
H1178 H 0.35779 0.52464 0.97585 0.0
H1179 H 0.2675 0.52493 -0.0015 0.0
H1180 H 0.25476 0.50419 0.01922 0.0
H1181 H 0.25468 0.49766 0.98792 0.0
H1182 H 0.27644 0.45798 0.99598 0.0
H1183 H 0.27645 0.46432 0.02734 0.0
H1184 H 0.304 0.45811 0.01228 0.0
H1185 H 0.35799 0.53351 0.01916 0.0
H1186 H 0.35089 0.53863 0.06209 0.0
H1187 H 0.28404 0.50097 0.05551 0.0
C1188 C 0.29958 0.49049 0.95975 0.0
C1189 C 0.31599 0.49646 0.94178 0.0
C1190 C 0.33711 0.50865 0.94782 0.0
C1191 C 0.34175 0.51511 0.97136 0.0
C1192 C 0.3251 0.50924 0.98862 0.0
C1193 C 0.30448 0.49713 0.98318 0.0
C1194 C 0.28936 0.49342 0.0051 0.0
C1195 C 0.26514 0.50579 0.00252 0.0
C1196 C 0.2864 0.46688 0.01049 0.0
C1197 C 0.30464 0.50547 0.02363 0.0
C1198 C 0.32518 0.51444 0.01371 0.0
C1199 C 0.34201 0.5265 0.02718 0.0
C1200 C 0.3378 0.52936 0.05151 0.0
C1201 C 0.31693 0.52021 0.06207 0.0
C1202 C 0.30014 0.50817 0.0479 0.0
H1203 H 0.49107 0.29534 0.95164 0.0
H1204 H 0.49358 0.37027 0.93435 0.0
H1205 H 0.49022 0.38014 0.97684 0.0
H1206 H 0.44872 0.30009 -0.00029 0.0
H1207 H 0.46297 0.27777 0.01766 0.0
H1208 H 0.46511 0.27643 0.98577 0.0
H1209 H 0.51102 0.27583 0.98877 0.0
H1210 H 0.50903 0.27715 0.02066 0.0
H1211 H 0.52602 0.29907 0.00478 0.0
H1212 H 0.48697 0.38207 0.02069 0.0
H1213 H 0.48479 0.37601 0.06394 0.0
H1214 H 0.48476 0.29982 0.05335 0.0
C1215 C 0.49084 0.31381 0.95683 0.0
C1216 C 0.49255 0.33206 0.93976 0.0
C1217 C 0.4923 0.35602 0.94717 0.0
C1218 C 0.49036 0.36181 0.97124 0.0
C1219 C 0.48873 0.34344 0.98763 0.0
C1220 C 0.48899 0.31993 0.98083 0.0
C1221 C 0.48742 0.30365 0.00218 0.0
C1222 C 0.4647 0.2886 0.00127 0.0
C1223 C 0.5097 0.28801 0.00421 0.0
C1224 C 0.48633 0.32173 0.02202 0.0
C1225 C 0.48702 0.34455 0.01315 0.0
C1226 C 0.4864 0.3643 0.02788 0.0
C1227 C 0.48515 0.36066 0.05241 0.0
C1228 C 0.4846 0.33745 0.06195 0.0
C1229 C 0.48512 0.31775 0.04652 0.0
H1230 H 0.66559 0.47888 0.95114 0.0
H1231 H 0.73613 0.50771 0.94002 0.0
H1232 H 0.74039 0.51378 0.98329 0.0
H1233 H 0.6482 0.51838 0.9968 0.0
H1234 H 0.63206 0.49644 0.01352 0.0
H1235 H 0.63497 0.49344 0.98183 0.0
H1236 H 0.65331 0.45165 0.98729 0.0
H1237 H 0.6503 0.45445 0.019 0.0
H1238 H 0.6789 0.44798 0.00618 0.0
H1239 H 0.73613 0.51833 0.02751 0.0
H1240 H 0.72437 0.51936 0.06978 0.0
H1241 H 0.65682 0.48712 0.05168 0.0
C1242 C 0.68202 0.48628 0.95783 0.0
C1243 C 0.70055 0.49283 0.94231 0.0
C1244 C 0.72175 0.50252 0.95167 0.0
C1245 C 0.72431 0.50607 0.97618 0.0
C1246 C 0.70555 0.49971 0.99098 0.0
C1247 C 0.68489 0.48986 0.98218 0.0
C1248 C 0.66728 0.48483 0.0018 0.0
C1249 C 0.64427 0.49913 -0.00173 0.0
C1250 C 0.66216 0.45814 0.00368 0.0
C1251 C 0.68116 0.49361 0.02301 0.0
C1252 C 0.70318 0.50214 0.01641 0.0
C1253 C 0.71898 0.51158 0.03291 0.0
C1254 C 0.71213 0.51216 0.05683 0.0
C1255 C 0.68972 0.5033 0.06393 0.0
C1256 C 0.67409 0.49396 0.04676 0.0
H1257 H 0.49134 0.69643 0.92656 0.0
H1258 H 0.44719 0.63373 0.92062 0.0
H1259 H 0.44053 0.6342 0.9638 0.0
H1260 H 0.5201 0.67932 0.97926 0.0
H1261 H 0.52131 0.70852 0.99214 0.0
H1262 H 0.52068 0.70511 0.96037 0.0
H1263 H 0.48353 0.73212 0.95794 0.0
H1264 H 0.48412 0.73572 0.98974 0.0
H1265 H 0.45765 0.72496 0.97535 0.0
H1266 H 0.44114 0.63906 0.00719 0.0
H1267 H 0.44867 0.64838 0.0492 0.0
H1268 H 0.49258 0.70797 0.02813 0.0
C1269 C 0.47989 0.68313 0.93436 0.0
C1270 C 0.46967 0.6651 0.92032 0.0
C1271 C 0.45517 0.64769 0.93111 0.0
C1272 C 0.45121 0.64785 0.95559 0.0
C1273 C 0.46189 0.66553 0.96905 0.0
C1274 C 0.47587 0.68292 0.95893 0.0
C1275 C 0.48646 0.6989 0.97782 0.0
C1276 C 0.51375 0.69789 0.97736 0.0
C1277 C 0.47739 0.72444 0.97504 0.0
C1278 C 0.47659 0.68741 7e-05 0.0
C1279 C 0.46233 0.66831 0.99448 0.0
C1280 C 0.45204 0.65413 0.01185 0.0
C1281 C 0.45651 0.65952 0.03564 0.0
C1282 C 0.47115 0.67892 0.04187 0.0
C1283 C 0.48114 0.69317 0.02384 0.0
H1284 H 0.19663 0.26308 0.51436 0.0
H1285 H 0.13185 0.22263 0.52377 0.0
H1286 H 0.15573 0.18622 0.5298 0.0
H1287 H 0.22749 0.21964 0.48119 0.0
H1288 H 0.25598 0.22622 0.49419 0.0
H1289 H 0.23373 0.24902 0.49203 0.0
H1290 H 0.23664 0.25623 0.53741 0.0
H1291 H 0.25889 0.23341 0.53973 0.0
H1292 H 0.23239 0.2318 0.55758 0.0
H1293 H 0.18706 0.15415 0.53373 0.0
H1294 H 0.22304 0.1289 0.53385 0.0
H1295 H 0.26661 0.19096 0.52112 0.0
C1296 C 0.18744 0.24661 0.51789 0.0
C1297 C 0.16244 0.2456 0.51872 0.0
C1298 C 0.15104 0.22371 0.52312 0.0
C1299 C 0.16444 0.20301 0.52662 0.0
C1300 C 0.18912 0.20462 0.52558 0.0
C1301 C 0.20047 0.22588 0.52126 0.0
C1302 C 0.22709 0.22286 0.52004 0.0
C1303 C 0.23662 0.22984 0.4954 0.0
C1304 C 0.23947 0.23691 0.53988 0.0
C1305 C 0.22901 0.1965 0.52416 0.0
C1306 C 0.20698 0.18627 0.52751 0.0
C1307 C 0.2044 0.16199 0.53122 0.0
C1308 C 0.22489 0.14782 0.53128 0.0
C1309 C 0.24753 0.15802 0.5275 0.0
C1310 C 0.24953 0.18268 0.5241 0.0
H1311 H 0.72616 0.18846 0.52213 0.0
H1312 H 0.74596 0.1487 0.45923 0.0
H1313 H 0.78356 0.17112 0.45687 0.0
H1314 H 0.74702 0.24339 0.50241 0.0
H1315 H 0.75728 0.25299 0.53116 0.0
H1316 H 0.73322 0.2322 0.52903 0.0
H1317 H 0.75646 0.20281 0.5558 0.0
H1318 H 0.78073 0.22349 0.55782 0.0
H1319 H 0.78599 0.19377 0.54738 0.0
H1320 H 0.81757 0.19967 0.45989 0.0
H1321 H 0.84394 0.23403 0.46636 0.0
H1322 H 0.80161 0.2548 0.52728 0.0
C1323 C 0.73851 0.18431 0.50799 0.0
C1324 C 0.73325 0.16687 0.49088 0.0
C1325 C 0.74971 0.16205 0.47251 0.0
C1326 C 0.77116 0.17455 0.47113 0.0
C1327 C 0.77582 0.19167 0.48832 0.0
C1328 C 0.75991 0.1966 0.50634 0.0
C1329 C 0.76829 0.21697 0.52158 0.0
C1330 C 0.75039 0.2376 0.52099 0.0
C1331 C 0.77316 0.20876 0.54716 0.0
C1332 C 0.79107 0.22321 0.50888 0.0
C1333 C 0.79533 0.20818 0.48999 0.0
C1334 C 0.81459 0.21138 0.4748 0.0
C1335 C 0.82948 0.23089 0.47863 0.0
C1336 C 0.8248 0.24696 0.49735 0.0
C1337 C 0.80575 0.24265 0.51299 0.0
H1338 H 0.84448 0.75747 0.51006 0.0
H1339 H 0.83724 0.72778 0.43931 0.0
H1340 H 0.80273 0.75358 0.4319 0.0
H1341 H 0.7842 0.76091 0.52314 0.0
H1342 H 0.78548 0.78876 0.53872 0.0
H1343 H 0.81117 0.7698 0.53791 0.0
H1344 H 0.83633 0.80388 0.52017 0.0
H1345 H 0.81077 0.82309 0.52122 0.0
H1346 H 0.82631 0.81866 0.4936 0.0
H1347 H 0.76645 0.7785 0.43384 0.0
H1348 H 0.73273 0.80478 0.44347 0.0
H1349 H 0.76424 0.81997 0.51212 0.0
C1350 C 0.83595 0.75682 0.49283 0.0
C1351 C 0.8435 0.74066 0.47525 0.0
C1352 C 0.83178 0.7401 0.453 0.0
C1353 C 0.81214 0.75465 0.44862 0.0
C1354 C 0.80467 0.76985 0.46656 0.0
C1355 C 0.81641 0.7714 0.48806 0.0
C1356 C 0.80414 0.78868 0.50458 0.0
C1357 C 0.79575 0.77629 0.52743 0.0
C1358 C 0.82036 0.80984 0.51022 0.0
C1359 C 0.78335 0.79607 0.48921 0.0
C1360 C 0.78399 0.78493 0.46737 0.0
C1361 C 0.76594 0.78769 0.4507 0.0
C1362 C 0.74681 0.80248 0.45638 0.0
C1363 C 0.74606 0.81445 0.47843 0.0
C1364 C 0.76459 0.81124 0.49501 0.0
H1365 H 0.18921 0.74173 0.48497 0.0
H1366 H 0.23622 0.68126 0.47712 0.0
H1367 H 0.27041 0.70822 0.47288 0.0
H1368 H 0.21921 0.7791 0.44188 0.0
H1369 H 0.21442 0.80587 0.45866 0.0
H1370 H 0.19357 0.78179 0.46085 0.0
H1371 H 0.19907 0.78111 0.50655 0.0
H1372 H 0.21998 0.80513 0.5045 0.0
H1373 H 0.22847 0.77784 0.51881 0.0
H1374 H 0.29958 0.74142 0.47155 0.0
H1375 H 0.32179 0.77911 0.47078 0.0
H1376 H 0.25567 0.81807 0.47766 0.0
C1377 C 0.2067 0.73421 0.48227 0.0
C1378 C 0.21016 0.70947 0.48143 0.0
C1379 C 0.23323 0.7002 0.47777 0.0
C1380 C 0.25275 0.71534 0.47538 0.0
C1381 C 0.24878 0.73966 0.47644 0.0
C1382 C 0.22634 0.74907 0.47957 0.0
C1383 C 0.22697 0.77587 0.47993 0.0
C1384 C 0.2127 0.78627 0.45908 0.0
C1385 C 0.2181 0.78555 0.50387 0.0
C1386 C 0.25332 0.78002 0.47681 0.0
C1387 C 0.26558 0.75888 0.47494 0.0
C1388 C 0.29019 0.75811 0.47277 0.0
C1389 C 0.30263 0.77956 0.47243 0.0
C1390 C 0.29038 0.8014 0.47403 0.0
C1391 C 0.26542 0.8016 0.47617 0.0
H1392 H 0.50305 0.19199 0.25327 0.0
H1393 H 0.4271 0.18095 0.25995 0.0
H1394 H 0.42026 0.20649 0.22498 0.0
H1395 H 0.50021 0.25213 0.23849 0.0
H1396 H 0.52455 0.25125 0.21772 0.0
H1397 H 0.52343 0.23036 0.24181 0.0
H1398 H 0.52621 0.19572 0.21171 0.0
H1399 H 0.52714 0.21656 0.18748 0.0
H1400 H 0.50483 0.19371 0.18796 0.0
H1401 H 0.42151 0.23563 0.19152 0.0
H1402 H 0.43071 0.26763 0.16303 0.0
H1403 H 0.50584 0.25902 0.17786 0.0
C1404 C 0.485 0.19476 0.24721 0.0
C1405 C 0.46559 0.18453 0.25924 0.0
C1406 C 0.44222 0.18866 0.25094 0.0
C1407 C 0.43817 0.203 0.23103 0.0
C1408 C 0.4577 0.2129 0.21959 0.0
C1409 C 0.48066 0.20897 0.22737 0.0
C1410 C 0.49843 0.22288 0.21289 0.0
C1411 C 0.51247 0.24018 0.22867 0.0
C1412 C 0.51514 0.20622 0.1992 0.0
C1413 C 0.48183 0.23583 0.19623 0.0
C1414 C 0.45843 0.2296 0.20015 0.0
C1415 C 0.43978 0.24042 0.18802 0.0
C1416 C 0.44516 0.25854 0.17189 0.0
C1417 C 0.46897 0.26563 0.16818 0.0
C1418 C 0.4875 0.25369 0.18007 0.0
H1419 H 0.79647 0.51842 0.27021 0.0
H1420 H 0.84893 0.4761 0.23293 0.0
H1421 H 0.82442 0.47781 0.19662 0.0
H1422 H 0.74698 0.49133 0.24678 0.0
H1423 H 0.72913 0.51774 0.24434 0.0
H1424 H 0.7522 0.51604 0.26636 0.0
H1425 H 0.77132 0.55428 0.24958 0.0
H1426 H 0.74818 0.55619 0.22753 0.0
H1427 H 0.77889 0.55586 0.21852 0.0
H1428 H 0.79205 0.47925 0.16661 0.0
H1429 H 0.75453 0.48195 0.14405 0.0
H1430 H 0.72371 0.52459 0.20022 0.0
C1431 C 0.80304 0.50997 0.25425 0.0
C1432 C 0.82455 0.49715 0.25429 0.0
C1433 C 0.8325 0.48609 0.23319 0.0
C1434 C 0.81875 0.48701 0.21249 0.0
C1435 C 0.79732 0.49932 0.21318 0.0
C1436 C 0.78961 0.51084 0.23342 0.0
C1437 C 0.76513 0.52137 0.22999 0.0
C1438 C 0.74732 0.51099 0.24793 0.0
C1439 C 0.76594 0.54854 0.23149 0.0
C1440 C 0.7599 0.51317 0.20498 0.0
C1441 C 0.77877 0.50063 0.19554 0.0
C1442 C 0.77734 0.48946 0.17355 0.0
C1443 C 0.75597 0.49098 0.16095 0.0
C1444 C 0.73645 0.50366 0.17038 0.0
C1445 C 0.73859 0.51522 0.19245 0.0
H1446 H 0.47611 0.76974 0.14663 0.0
H1447 H 0.54752 0.74128 0.14167 0.0
H1448 H 0.56177 0.77221 0.16917 0.0
H1449 H 0.49388 0.83379 0.15334 0.0
H1450 H 0.47001 0.83912 0.17397 0.0
H1451 H 0.46647 0.81757 0.15062 0.0
H1452 H 0.45581 0.78575 0.18204 0.0
H1453 H 0.45965 0.807 0.20546 0.0
H1454 H 0.47632 0.77973 0.2059 0.0
H1455 H 0.56666 0.80133 0.20231 0.0
H1456 H 0.56238 0.8287 0.23633 0.0
H1457 H 0.48801 0.83866 0.21883 0.0
C1458 C 0.49489 0.77052 0.15071 0.0
C1459 C 0.51074 0.75324 0.14203 0.0
C1460 C 0.53512 0.75452 0.14802 0.0
C1461 C 0.54337 0.772 0.16362 0.0
C1462 C 0.52707 0.78821 0.17271 0.0
C1463 C 0.5034 0.7879 0.16613 0.0
C1464 C 0.4891 0.80586 0.18 0.0
C1465 C 0.47929 0.82524 0.16349 0.0
C1466 C 0.46906 0.79386 0.19419 0.0
C1467 C 0.50816 0.81551 0.1962 0.0
C1468 C 0.52999 0.80531 0.19159 0.0
C1469 C 0.54979 0.80988 0.20572 0.0
C1470 C 0.54717 0.82529 0.22506 0.0
C1471 C 0.52492 0.83586 0.23001 0.0
C1472 C 0.50532 0.83111 0.21519 0.0
H1473 H 0.19326 0.46221 0.26431 0.0
H1474 H 0.12956 0.49265 0.23349 0.0
H1475 H 0.15272 0.50539 0.19836 0.0
H1476 H 0.23175 0.50691 0.24819 0.0
H1477 H 0.2566 0.48779 0.24184 0.0
H1478 H 0.23448 0.4787 0.26296 0.0
H1479 H 0.22722 0.44009 0.23911 0.0
H1480 H 0.24953 0.44896 0.21799 0.0
H1481 H 0.21998 0.44188 0.20798 0.0
H1482 H 0.18409 0.51816 0.16853 0.0
H1483 H 0.22056 0.52853 0.14616 0.0
H1484 H 0.26279 0.48932 0.19731 0.0
C1485 C 0.18407 0.47117 0.24998 0.0
C1486 C 0.15969 0.47646 0.25152 0.0
C1487 C 0.14827 0.48833 0.23251 0.0
C1488 C 0.16126 0.49562 0.21254 0.0
C1489 C 0.1855 0.49063 0.21186 0.0
C1490 C 0.19669 0.47842 0.23 0.0
C1491 C 0.22306 0.47631 0.22578 0.0
C1492 C 0.23729 0.48814 0.24588 0.0
C1493 C 0.23037 0.45026 0.22251 0.0
C1494 C 0.22516 0.48994 0.20283 0.0
C1495 C 0.20335 0.49789 0.19486 0.0
C1496 C 0.20122 0.51177 0.17445 0.0
C1497 C 0.22197 0.51763 0.16193 0.0
C1498 C 0.2444 0.50972 0.17006 0.0
C1499 C 0.24587 0.49559 0.19064 0.0
H1500 H 0.48997 0.73726 0.81371 0.0
H1501 H 0.48752 0.67696 0.76594 0.0
H1502 H 0.48764 0.70396 0.73156 0.0
H1503 H 0.45257 0.77622 0.77896 0.0
H1504 H 0.46975 0.80234 0.78547 0.0
H1505 H 0.46868 0.77835 0.80655 0.0
H1506 H 0.51463 0.7757 0.8062 0.0
H1507 H 0.51584 0.79974 0.78521 0.0
H1508 H 0.52993 0.77189 0.77835 0.0
H1509 H 0.48786 0.73701 0.70251 0.0
H1510 H 0.49083 0.7745 0.68019 0.0
H1511 H 0.49452 0.81347 0.74656 0.0
C1512 C 0.4894 0.7298 0.796 0.0
C1513 C 0.48867 0.70509 0.79241 0.0
C1514 C 0.48812 0.69588 0.76903 0.0
C1515 C 0.48809 0.71104 0.7494 0.0
C1516 C 0.48875 0.73532 0.7535 0.0
C1517 C 0.48959 0.74469 0.77616 0.0
C1518 C 0.49108 0.77146 0.7755 0.0
C1519 C 0.46922 0.78275 0.78732 0.0
C1520 C 0.51425 0.7802 0.78699 0.0
C1521 C 0.49107 0.77558 0.74894 0.0
C1522 C 0.48947 0.75449 0.73662 0.0
C1523 C 0.48914 0.75367 0.71192 0.0
C1524 C 0.49079 0.77503 0.69942 0.0
C1525 C 0.49295 0.79679 0.71169 0.0
C1526 C 0.49292 0.79705 0.73675 0.0
H1527 H 0.23665 0.45358 0.82383 0.0
H1528 H 0.22151 0.51687 0.86472 0.0
H1529 H 0.18613 0.5244 0.83988 0.0
H1530 H 0.22687 0.4774 0.77069 0.0
H1531 H 0.21349 0.45196 0.75675 0.0
H1532 H 0.23355 0.44795 0.78119 0.0
H1533 H 0.20146 0.42459 0.80437 0.0
H1534 H 0.18129 0.42819 0.77975 0.0
H1535 H 0.17262 0.43765 0.80907 0.0
H1536 H 0.15756 0.52922 0.80606 0.0
H1537 H 0.13789 0.53033 0.76675 0.0
H1538 H 0.17251 0.46433 0.74785 0.0
C1539 C 0.22533 0.46848 0.82819 0.0
C1540 C 0.23167 0.48457 0.84622 0.0
C1541 C 0.21679 0.5042 0.85107 0.0
C1542 C 0.19665 0.5086 0.83708 0.0
C1543 C 0.19157 0.49304 0.81855 0.0
C1544 C 0.20533 0.47316 0.81431 0.0
C1545 C 0.19826 0.46103 0.79146 0.0
C1546 C 0.21929 0.45953 0.77401 0.0
C1547 C 0.18778 0.43641 0.79647 0.0
C1548 C 0.17939 0.47796 0.78275 0.0
C1549 C 0.17532 0.49601 0.79883 0.0
C1550 C 0.16019 0.51489 0.79358 0.0
C1551 C 0.14919 0.51544 0.77121 0.0
C1552 C 0.15373 0.49741 0.75436 0.0
C1553 C 0.1686 0.47826 0.76048 0.0
H1554 H 0.47519 0.17344 0.75629 0.0
H1555 H 0.54235 0.14115 0.77584 0.0
H1556 H 0.54581 0.16883 0.80967 0.0
H1557 H 0.49218 0.23134 0.76648 0.0
H1558 H 0.46393 0.24109 0.77794 0.0
H1559 H 0.46521 0.2167 0.75747 0.0
H1560 H 0.4429 0.19013 0.78768 0.0
H1561 H 0.44154 0.21451 0.80829 0.0
H1562 H 0.45451 0.18673 0.81732 0.0
H1563 H 0.5438 0.20255 0.83875 0.0
H1564 H 0.537 0.24027 0.86001 0.0
H1565 H 0.47132 0.25031 0.82096 0.0
C1566 C 0.49038 0.17187 0.76798 0.0
C1567 C 0.50845 0.15514 0.76359 0.0
C1568 C 0.52826 0.15383 0.77902 0.0
C1569 C 0.53033 0.16939 0.7983 0.0
C1570 C 0.51236 0.18599 0.80191 0.0
C1571 C 0.49273 0.18726 0.7872 0.0
C1572 C 0.47692 0.20793 0.7936 0.0
C1573 C 0.47443 0.22529 0.77263 0.0
C1574 C 0.45252 0.1993 0.80224 0.0
C1575 C 0.49111 0.2186 0.81369 0.0
C1576 C 0.5113 0.20551 0.81851 0.0
C1577 C 0.52788 0.21276 0.83539 0.0
C1578 C 0.52388 0.23418 0.84735 0.0
C1579 C 0.50361 0.24809 0.84214 0.0
C1580 C 0.48686 0.23991 0.82545 0.0
H1581 H 0.74299 0.52151 0.81 0.0
H1582 H 0.76709 0.45728 0.84487 0.0
H1583 H 0.80229 0.45632 0.81864 0.0
H1584 H 0.75739 0.50461 0.75283 0.0
H1585 H 0.76669 0.53355 0.74306 0.0
H1586 H 0.74528 0.53081 0.76656 0.0
H1587 H 0.77204 0.55613 0.79411 0.0
H1588 H 0.79359 0.55894 0.77063 0.0
H1589 H 0.80241 0.54732 0.79912 0.0
H1590 H 0.83237 0.46016 0.78591 0.0
H1591 H 0.8545 0.46804 0.74884 0.0
H1592 H 0.81052 0.52987 0.73587 0.0
C1593 C 0.75589 0.50748 0.81242 0.0
C1594 C 0.75242 0.4895 0.82944 0.0
C1595 C 0.76951 0.47127 0.83193 0.0
C1596 C 0.78958 0.47064 0.8172 0.0
C1597 C 0.79228 0.48848 0.8003 0.0
C1598 C 0.77594 0.50661 0.79793 0.0
C1599 C 0.78186 0.52258 0.77723 0.0
C1600 C 0.76161 0.52288 0.75884 0.0
C1601 C 0.78784 0.54773 0.78579 0.0
C1602 C 0.80363 0.51013 0.76775 0.0
C1603 C 0.8096 0.4907 0.78148 0.0
C1604 C 0.82811 0.47554 0.77523 0.0
C1605 C 0.84054 0.48013 0.75417 0.0
C1606 C 0.83424 0.49961 0.73962 0.0
C1607 C 0.8159 0.51502 0.74682 0.0
loop_
_geom_bond_atom_site_label_1
_geom_bond_atom_site_label_2
_geom_bond_distance
_geom_bond_site_symmetry_2
_ccdc_geom_bond_type
In0 O1 2.294 . S
In0 O2 2.326 . S
In0 O6 2.266 . S
In0 O7 2.326 . S
In0 O8 2.266 . S
In0 O9 2.326 . S
In0 O11 2.294 . S
In0 O12 2.326 . S
O1 In0 2.294 . S
O1 C10 1.240 . S
O2 In0 2.326 . S
O2 C10 1.252 . S
C3 O6 1.252 . S
C3 O7 1.260 . S
C4 O11 1.240 . S
C4 O12 1.252 . S
C5 O8 1.252 . S
C5 O9 1.260 . S
O6 In0 2.266 . S
O6 C3 1.252 . S
O7 In0 2.326 . S
O7 C3 1.260 . S
O8 In0 2.266 . S
O8 C5 1.252 . S
O9 In0 2.326 . S
O9 C5 1.260 . S
C10 O1 1.240 . S
C10 O2 1.252 . S
O11 In0 2.294 . S
O11 C4 1.240 . S
O12 In0 2.326 . S
O12 C4 1.252 . S
In13 O14 2.294 . S
In13 O15 2.326 . S
In13 O19 2.266 . S
In13 O20 2.326 . S
In13 O21 2.266 . S
In13 O22 2.326 . S
In13 O24 2.294 . S
In13 O25 2.326 . S
O14 In13 2.294 . S
O14 C23 1.240 . S
O15 In13 2.326 . S
O15 C23 1.252 . S
C16 O19 1.252 . S
C16 O20 1.260 . S
C17 O24 1.240 . S
C17 O25 1.252 . S
C18 O21 1.252 . S
C18 O22 1.260 . S
O19 In13 2.266 . S
O19 C16 1.252 . S
O20 In13 2.326 . S
O20 C16 1.260 . S
O21 In13 2.266 . S
O21 C18 1.252 . S
O22 In13 2.326 . S
O22 C18 1.260 . S
C23 O14 1.240 . S
C23 O15 1.252 . S
O24 In13 2.294 . S
O24 C17 1.240 . S
O25 In13 2.326 . S
O25 C17 1.252 . S
In26 O27 2.294 . S
In26 O28 2.326 . S
In26 O32 2.266 . S
In26 O33 2.326 . S
In26 O34 2.266 . S
In26 O35 2.326 . S
In26 O37 2.294 . S
In26 O38 2.326 . S
O27 In26 2.294 . S
O27 C36 1.240 . S
O28 In26 2.326 . S
O28 C36 1.252 . S
C29 O32 1.252 . S
C29 O33 1.260 . S
C30 O37 1.240 . S
C30 O38 1.252 . S
C31 O34 1.252 . S
C31 O35 1.260 . S
O32 In26 2.266 . S
O32 C29 1.252 . S
O33 In26 2.326 . S
O33 C29 1.260 . S
O34 In26 2.266 . S
O34 C31 1.252 . S
O35 In26 2.326 . S
O35 C31 1.260 . S
C36 O27 1.240 . S
C36 O28 1.252 . S
O37 In26 2.294 . S
O37 C30 1.240 . S
O38 In26 2.326 . S
O38 C30 1.252 . S
In39 O40 2.294 . S
In39 O41 2.326 . S
In39 O45 2.266 . S
In39 O46 2.326 . S
In39 O47 2.266 . S
In39 O48 2.326 . S
In39 O50 2.294 . S
In39 O51 2.326 . S
O40 In39 2.294 . S
O40 C49 1.240 . S
O41 In39 2.326 . S
O41 C49 1.252 . S
C42 O45 1.252 . S
C42 O46 1.260 . S
C43 O50 1.240 . S
C43 O51 1.252 . S
C44 O47 1.252 . S
C44 O48 1.260 . S
O45 In39 2.266 . S
O45 C42 1.252 . S
O46 In39 2.326 . S
O46 C42 1.260 . S
O47 In39 2.266 . S
O47 C44 1.252 . S
O48 In39 2.326 . S
O48 C44 1.260 . S
C49 O40 1.240 . S
C49 O41 1.252 . S
O50 In39 2.294 . S
O50 C43 1.240 . S
O51 In39 2.326 . S
O51 C43 1.252 . S
In52 O53 2.294 . S
In52 O54 2.326 . S
In52 O58 2.266 . S
In52 O59 2.326 . S
In52 O60 2.266 . S
In52 O61 2.326 . S
In52 O63 2.294 . S
In52 O64 2.326 . S
O53 In52 2.294 . S
O53 C62 1.240 . S
O54 In52 2.326 . S
O54 C62 1.252 . S
C55 O58 1.252 . S
C55 O59 1.260 . S
C56 O63 1.240 . S
C56 O64 1.252 . S
C57 O60 1.252 . S
C57 O61 1.260 . S
O58 In52 2.266 . S
O58 C55 1.252 . S
O59 In52 2.326 . S
O59 C55 1.260 . S
O60 In52 2.266 . S
O60 C57 1.252 . S
O61 In52 2.326 . S
O61 C57 1.260 . S
C62 O53 1.240 . S
C62 O54 1.252 . S
O63 In52 2.294 . S
O63 C56 1.240 . S
O64 In52 2.326 . S
O64 C56 1.252 . S
In65 O66 2.294 . S
In65 O67 2.326 . S
In65 O71 2.266 . S
In65 O72 2.326 . S
In65 O73 2.266 . S
In65 O74 2.326 . S
In65 O76 2.294 . S
In65 O77 2.326 . S
O66 In65 2.294 . S
O66 C75 1.240 . S
O67 In65 2.326 . S
O67 C75 1.252 . S
C68 O71 1.252 . S
C68 O72 1.260 . S
C69 O76 1.240 . S
C69 O77 1.252 . S
C70 O73 1.252 . S
C70 O74 1.260 . S
O71 In65 2.266 . S
O71 C68 1.252 . S
O72 In65 2.326 . S
O72 C68 1.260 . S
O73 In65 2.266 . S
O73 C70 1.252 . S
O74 In65 2.326 . S
O74 C70 1.260 . S
C75 O66 1.240 . S
C75 O67 1.252 . S
O76 In65 2.294 . S
O76 C69 1.240 . S
O77 In65 2.326 . S
O77 C69 1.252 . S
In78 O79 2.294 . S
In78 O80 2.326 . S
In78 O84 2.266 . S
In78 O85 2.326 . S
In78 O86 2.266 . S
In78 O87 2.326 . S
In78 O89 2.294 . S
In78 O90 2.326 . S
O79 In78 2.294 . S
O79 C88 1.240 . S
O80 In78 2.326 . S
O80 C88 1.252 . S
C81 O84 1.252 . S
C81 O85 1.260 . S
C82 O89 1.240 . S
C82 O90 1.252 . S
C83 O86 1.252 . S
C83 O87 1.260 . S
O84 In78 2.266 . S
O84 C81 1.252 . S
O85 In78 2.326 . S
O85 C81 1.260 . S
O86 In78 2.266 . S
O86 C83 1.252 . S
O87 In78 2.326 . S
O87 C83 1.260 . S
C88 O79 1.240 . S
C88 O80 1.252 . S
O89 In78 2.294 . S
O89 C82 1.240 . S
O90 In78 2.326 . S
O90 C82 1.252 . S
In91 O92 2.294 . S
In91 O93 2.326 . S
In91 O97 2.266 . S
In91 O98 2.326 . S
In91 O99 2.266 . S
In91 O100 2.326 . S
In91 O102 2.294 . S
In91 O103 2.326 . S
O92 In91 2.294 . S
O92 C101 1.240 . S
O93 In91 2.326 . S
O93 C101 1.252 . S
C94 O97 1.252 . S
C94 O98 1.260 . S
C95 O102 1.240 . S
C95 O103 1.252 . S
C96 O99 1.252 . S
C96 O100 1.260 . S
O97 In91 2.266 . S
O97 C94 1.252 . S
O98 In91 2.326 . S
O98 C94 1.260 . S
O99 In91 2.266 . S
O99 C96 1.252 . S
O100 In91 2.326 . S
O100 C96 1.260 . S
C101 O92 1.240 . S
C101 O93 1.252 . S
O102 In91 2.294 . S
O102 C95 1.240 . S
O103 In91 2.326 . S
O103 C95 1.252 . S
In104 O105 2.294 . S
In104 O106 2.326 . S
In104 O110 2.266 . S
In104 O111 2.326 . S
In104 O112 2.266 . S
In104 O113 2.326 . S
In104 O115 2.294 . S
In104 O116 2.326 . S
O105 In104 2.294 . S
O105 C114 1.240 . S
O106 In104 2.326 . S
O106 C114 1.252 . S
C107 O110 1.252 . S
C107 O111 1.260 . S
C108 O115 1.240 . S
C108 O116 1.252 . S
C109 O112 1.252 . S
C109 O113 1.260 . S
O110 In104 2.266 . S
O110 C107 1.252 . S
O111 In104 2.326 . S
O111 C107 1.260 . S
O112 In104 2.266 . S
O112 C109 1.252 . S
O113 In104 2.326 . S
O113 C109 1.260 . S
C114 O105 1.240 . S
C114 O106 1.252 . S
O115 In104 2.294 . S
O115 C108 1.240 . S
O116 In104 2.326 . S
O116 C108 1.252 . S
In117 O118 2.294 . S
In117 O119 2.326 . S
In117 O123 2.266 . S
In117 O124 2.326 . S
In117 O125 2.266 . S
In117 O126 2.326 . S
In117 O128 2.294 . S
In117 O129 2.326 . S
O118 In117 2.294 . S
O118 C127 1.240 . S
O119 In117 2.326 . S
O119 C127 1.252 . S
C120 O123 1.252 . S
C120 O124 1.260 . S
C121 O128 1.240 . S
C121 O129 1.252 . S
C122 O125 1.252 . S
C122 O126 1.260 . S
O123 In117 2.266 . S
O123 C120 1.252 . S
O124 In117 2.326 . S
O124 C120 1.260 . S
O125 In117 2.266 . S
O125 C122 1.252 . S
O126 In117 2.326 . S
O126 C122 1.260 . S
C127 O118 1.240 . S
C127 O119 1.252 . S
O128 In117 2.294 . S
O128 C121 1.240 . S
O129 In117 2.326 . S
O129 C121 1.252 . S
In130 O131 2.294 . S
In130 O132 2.326 . S
In130 O136 2.266 . S
In130 O137 2.326 . S
In130 O138 2.266 . S
In130 O139 2.326 . S
In130 O141 2.294 . S
In130 O142 2.326 . S
O131 In130 2.294 . S
O131 C140 1.240 . S
O132 In130 2.326 . S
O132 C140 1.252 . S
C133 O136 1.252 . S
C133 O137 1.260 . S
C134 O141 1.240 . S
C134 O142 1.252 . S
C135 O138 1.252 . S
C135 O139 1.260 . S
O136 In130 2.266 . S
O136 C133 1.252 . S
O137 In130 2.326 . S
O137 C133 1.260 . S
O138 In130 2.266 . S
O138 C135 1.252 . S
O139 In130 2.326 . S
O139 C135 1.260 . S
C140 O131 1.240 . S
C140 O132 1.252 . S
O141 In130 2.294 . S
O141 C134 1.240 . S
O142 In130 2.326 . S
O142 C134 1.252 . S
In143 O144 2.294 . S
In143 O145 2.326 . S
In143 O149 2.266 . S
In143 O150 2.326 . S
In143 O151 2.266 . S
In143 O152 2.326 . S
In143 O154 2.294 . S
In143 O155 2.326 . S
O144 In143 2.294 . S
O144 C153 1.240 . S
O145 In143 2.326 . S
O145 C153 1.252 . S
C146 O149 1.252 . S
C146 O150 1.260 . S
C147 O154 1.240 . S
C147 O155 1.252 . S
C148 O151 1.252 . S
C148 O152 1.260 . S
O149 In143 2.266 . S
O149 C146 1.252 . S
O150 In143 2.326 . S
O150 C146 1.260 . S
O151 In143 2.266 . S
O151 C148 1.252 . S
O152 In143 2.326 . S
O152 C148 1.260 . S
C153 O144 1.240 . S
C153 O145 1.252 . S
O154 In143 2.294 . S
O154 C147 1.240 . S
O155 In143 2.326 . S
O155 C147 1.252 . S
In156 O157 2.294 . S
In156 O158 2.326 . S
In156 O162 2.266 . S
In156 O163 2.326 . S
In156 O164 2.266 . S
In156 O165 2.326 . S
In156 O167 2.294 . S
In156 O168 2.326 . S
O157 In156 2.294 . S
O157 C166 1.240 . S
O158 In156 2.326 . S
O158 C166 1.252 . S
C159 O162 1.252 . S
C159 O163 1.260 . S
C160 O167 1.240 . S
C160 O168 1.252 . S
C161 O164 1.252 . S
C161 O165 1.260 . S
O162 In156 2.266 . S
O162 C159 1.252 . S
O163 In156 2.326 . S
O163 C159 1.260 . S
O164 In156 2.266 . S
O164 C161 1.252 . S
O165 In156 2.326 . S
O165 C161 1.260 . S
C166 O157 1.240 . S
C166 O158 1.252 . S
O167 In156 2.294 . S
O167 C160 1.240 . S
O168 In156 2.326 . S
O168 C160 1.252 . S
In169 O170 2.294 . S
In169 O171 2.326 . S
In169 O175 2.266 . S
In169 O176 2.326 . S
In169 O177 2.266 . S
In169 O178 2.326 . S
In169 O180 2.294 . S
In169 O181 2.326 . S
O170 In169 2.294 . S
O170 C179 1.240 . S
O171 In169 2.326 . S
O171 C179 1.252 . S
C172 O175 1.252 . S
C172 O176 1.260 . S
C173 O180 1.240 . S
C173 O181 1.252 . S
C174 O177 1.252 . S
C174 O178 1.260 . S
O175 In169 2.266 . S
O175 C172 1.252 . S
O176 In169 2.326 . S
O176 C172 1.260 . S
O177 In169 2.266 . S
O177 C174 1.252 . S
O178 In169 2.326 . S
O178 C174 1.260 . S
C179 O170 1.240 . S
C179 O171 1.252 . S
O180 In169 2.294 . S
O180 C173 1.240 . S
O181 In169 2.326 . S
O181 C173 1.252 . S
In182 O183 2.294 . S
In182 O184 2.326 . S
In182 O188 2.266 . S
In182 O189 2.326 . S
In182 O190 2.266 . S
In182 O191 2.326 . S
In182 O193 2.294 . S
In182 O194 2.326 . S
O183 In182 2.294 . S
O183 C192 1.240 . S
O184 In182 2.326 . S
O184 C192 1.252 . S
C185 O188 1.252 . S
C185 O189 1.260 . S
C186 O193 1.240 . S
C186 O194 1.252 . S
C187 O190 1.252 . S
C187 O191 1.260 . S
O188 In182 2.266 . S
O188 C185 1.252 . S
O189 In182 2.326 . S
O189 C185 1.260 . S
O190 In182 2.266 . S
O190 C187 1.252 . S
O191 In182 2.326 . S
O191 C187 1.260 . S
C192 O183 1.240 . S
C192 O184 1.252 . S
O193 In182 2.294 . S
O193 C186 1.240 . S
O194 In182 2.326 . S
O194 C186 1.252 . S
In195 O196 2.294 . S
In195 O197 2.326 . S
In195 O201 2.266 . S
In195 O202 2.326 . S
In195 O203 2.266 . S
In195 O204 2.326 . S
In195 O206 2.294 . S
In195 O207 2.326 . S
O196 In195 2.294 . S
O196 C205 1.240 . S
O197 In195 2.326 . S
O197 C205 1.252 . S
C198 O201 1.252 . S
C198 O202 1.260 . S
C199 O206 1.240 . S
C199 O207 1.252 . S
C200 O203 1.252 . S
C200 O204 1.260 . S
O201 In195 2.266 . S
O201 C198 1.252 . S
O202 In195 2.326 . S
O202 C198 1.260 . S
O203 In195 2.266 . S
O203 C200 1.252 . S
O204 In195 2.326 . S
O204 C200 1.260 . S
C205 O196 1.240 . S
C205 O197 1.252 . S
O206 In195 2.294 . S
O206 C199 1.240 . S
O207 In195 2.326 . S
O207 C199 1.252 . S
In208 O209 2.294 . S
In208 O210 2.326 . S
In208 O214 2.266 . S
In208 O215 2.326 . S
In208 O216 2.266 . S
In208 O217 2.326 . S
In208 O219 2.294 . S
In208 O220 2.326 . S
O209 In208 2.294 . S
O209 C218 1.240 . S
O210 In208 2.326 . S
O210 C218 1.252 . S
C211 O214 1.252 . S
C211 O215 1.260 . S
C212 O219 1.240 . S
C212 O220 1.252 . S
C213 O216 1.252 . S
C213 O217 1.260 . S
O214 In208 2.266 . S
O214 C211 1.252 . S
O215 In208 2.326 . S
O215 C211 1.260 . S
O216 In208 2.266 . S
O216 C213 1.252 . S
O217 In208 2.326 . S
O217 C213 1.260 . S
C218 O209 1.240 . S
C218 O210 1.252 . S
O219 In208 2.294 . S
O219 C212 1.240 . S
O220 In208 2.326 . S
O220 C212 1.252 . S
In221 O222 2.294 . S
In221 O223 2.326 . S
In221 O227 2.266 . S
In221 O228 2.326 . S
In221 O229 2.266 . S
In221 O230 2.326 . S
In221 O232 2.294 . S
In221 O233 2.326 . S
O222 In221 2.294 . S
O222 C231 1.240 . S
O223 In221 2.326 . S
O223 C231 1.252 . S
C224 O227 1.252 . S
C224 O228 1.260 . S
C225 O232 1.240 . S
C225 O233 1.252 . S
C226 O229 1.252 . S
C226 O230 1.260 . S
O227 In221 2.266 . S
O227 C224 1.252 . S
O228 In221 2.326 . S
O228 C224 1.260 . S
O229 In221 2.266 . S
O229 C226 1.252 . S
O230 In221 2.326 . S
O230 C226 1.260 . S
C231 O222 1.240 . S
C231 O223 1.252 . S
O232 In221 2.294 . S
O232 C225 1.240 . S
O233 In221 2.326 . S
O233 C225 1.252 . S
In234 O235 2.294 . S
In234 O236 2.326 . S
In234 O240 2.266 . S
In234 O241 2.326 . S
In234 O242 2.266 . S
In234 O243 2.326 . S
In234 O245 2.294 . S
In234 O246 2.326 . S
O235 In234 2.294 . S
O235 C244 1.240 . S
O236 In234 2.326 . S
O236 C244 1.252 . S
C237 O240 1.252 . S
C237 O241 1.260 . S
C238 O245 1.240 . S
C238 O246 1.252 . S
C239 O242 1.252 . S
C239 O243 1.260 . S
O240 In234 2.266 . S
O240 C237 1.252 . S
O241 In234 2.326 . S
O241 C237 1.260 . S
O242 In234 2.266 . S
O242 C239 1.252 . S
O243 In234 2.326 . S
O243 C239 1.260 . S
C244 O235 1.240 . S
C244 O236 1.252 . S
O245 In234 2.294 . S
O245 C238 1.240 . S
O246 In234 2.326 . S
O246 C238 1.252 . S
In247 O248 2.294 . S
In247 O249 2.326 . S
In247 O253 2.266 . S
In247 O254 2.326 . S
In247 O255 2.266 . S
In247 O256 2.326 . S
In247 O258 2.294 . S
In247 O259 2.326 . S
O248 In247 2.294 . S
O248 C257 1.240 . S
O249 In247 2.326 . S
O249 C257 1.252 . S
C250 O253 1.252 . S
C250 O254 1.260 . S
C251 O258 1.240 . S
C251 O259 1.252 . S
C252 O255 1.252 . S
C252 O256 1.260 . S
O253 In247 2.266 . S
O253 C250 1.252 . S
O254 In247 2.326 . S
O254 C250 1.260 . S
O255 In247 2.266 . S
O255 C252 1.252 . S
O256 In247 2.326 . S
O256 C252 1.260 . S
C257 O248 1.240 . S
C257 O249 1.252 . S
O258 In247 2.294 . S
O258 C251 1.240 . S
O259 In247 2.326 . S
O259 C251 1.252 . S
In260 O261 2.294 . S
In260 O262 2.326 . S
In260 O266 2.266 . S
In260 O267 2.326 . S
In260 O268 2.266 . S
In260 O269 2.326 . S
In260 O271 2.294 . S
In260 O272 2.326 . S
O261 In260 2.294 . S
O261 C270 1.240 . S
O262 In260 2.326 . S
O262 C270 1.252 . S
C263 O266 1.252 . S
C263 O267 1.260 . S
C264 O271 1.240 . S
C264 O272 1.252 . S
C265 O268 1.252 . S
C265 O269 1.260 . S
O266 In260 2.266 . S
O266 C263 1.252 . S
O267 In260 2.326 . S
O267 C263 1.260 . S
O268 In260 2.266 . S
O268 C265 1.252 . S
O269 In260 2.326 . S
O269 C265 1.260 . S
C270 O261 1.240 . S
C270 O262 1.252 . S
O271 In260 2.294 . S
O271 C264 1.240 . S
O272 In260 2.326 . S
O272 C264 1.252 . S
In273 O274 2.294 . S
In273 O275 2.326 . S
In273 O279 2.266 . S
In273 O280 2.326 . S
In273 O281 2.266 . S
In273 O282 2.326 . S
In273 O284 2.294 . S
In273 O285 2.326 . S
O274 In273 2.294 . S
O274 C283 1.240 . S
O275 In273 2.326 . S
O275 C283 1.252 . S
C276 O279 1.252 . S
C276 O280 1.260 . S
C277 O284 1.240 . S
C277 O285 1.252 . S
C278 O281 1.252 . S
C278 O282 1.260 . S
O279 In273 2.266 . S
O279 C276 1.252 . S
O280 In273 2.326 . S
O280 C276 1.260 . S
O281 In273 2.266 . S
O281 C278 1.252 . S
O282 In273 2.326 . S
O282 C278 1.260 . S
C283 O274 1.240 . S
C283 O275 1.252 . S
O284 In273 2.294 . S
O284 C277 1.240 . S
O285 In273 2.326 . S
O285 C277 1.252 . S
In286 O287 2.294 . S
In286 O288 2.326 . S
In286 O292 2.266 . S
In286 O293 2.326 . S
In286 O294 2.266 . S
In286 O295 2.326 . S
In286 O297 2.294 . S
In286 O298 2.326 . S
O287 In286 2.294 . S
O287 C296 1.240 . S
O288 In286 2.326 . S
O288 C296 1.252 . S
C289 O292 1.252 . S
C289 O293 1.260 . S
C290 O297 1.240 . S
C290 O298 1.252 . S
C291 O294 1.252 . S
C291 O295 1.260 . S
O292 In286 2.266 . S
O292 C289 1.252 . S
O293 In286 2.326 . S
O293 C289 1.260 . S
O294 In286 2.266 . S
O294 C291 1.252 . S
O295 In286 2.326 . S
O295 C291 1.260 . S
C296 O287 1.240 . S
C296 O288 1.252 . S
O297 In286 2.294 . S
O297 C290 1.240 . S
O298 In286 2.326 . S
O298 C290 1.252 . S
In299 O300 2.294 . S
In299 O301 2.326 . S
In299 O305 2.266 . S
In299 O306 2.326 . S
In299 O307 2.266 . S
In299 O308 2.326 . S
In299 O310 2.294 . S
In299 O311 2.326 . S
O300 In299 2.294 . S
O300 C309 1.240 . S
O301 In299 2.326 . S
O301 C309 1.252 . S
C302 O305 1.252 . S
C302 O306 1.260 . S
C303 O310 1.240 . S
C303 O311 1.252 . S
C304 O307 1.252 . S
C304 O308 1.260 . S
O305 In299 2.266 . S
O305 C302 1.252 . S
O306 In299 2.326 . S
O306 C302 1.260 . S
O307 In299 2.266 . S
O307 C304 1.252 . S
O308 In299 2.326 . S
O308 C304 1.260 . S
C309 O300 1.240 . S
C309 O301 1.252 . S
O310 In299 2.294 . S
O310 C303 1.240 . S
O311 In299 2.326 . S
O311 C303 1.252 . S
H312 C324 0.930 . S
H313 C326 0.930 . S
H314 C327 0.930 . S
H315 C331 0.959 . S
H316 C331 0.959 . S
H317 C331 0.961 . S
H318 C332 0.960 . S
H319 C332 0.961 . S
H320 C332 0.959 . S
H321 C335 0.929 . S
H322 C336 0.931 . S
H323 C338 0.930 . S
C324 H312 0.930 . S
C324 C325 1.399 . S
C324 C329 1.399 . S
C325 C324 1.399 . S
C325 C326 1.376 . S
C326 H313 0.930 . S
C326 C325 1.376 . S
C326 C327 1.388 . S
C327 H314 0.930 . S
C327 C326 1.388 . S
C327 C328 1.390 . S
C328 C327 1.390 . S
C328 C329 1.394 . S
C328 C334 1.465 . S
C329 C324 1.399 . S
C329 C328 1.394 . S
C329 C330 1.516 . S
C330 C329 1.516 . S
C330 C331 1.502 . S
C330 C332 1.561 . S
C330 C333 1.526 . S
C331 H315 0.959 . S
C331 H316 0.959 . S
C331 H317 0.961 . S
C331 C330 1.502 . S
C332 H318 0.960 . S
C332 H319 0.961 . S
C332 H320 0.959 . S
C332 C330 1.561 . S
C333 C330 1.526 . S
C333 C334 1.396 . S
C333 C338 1.390 . S
C334 C328 1.465 . S
C334 C333 1.396 . S
C334 C335 1.399 . S
C335 H321 0.929 . S
C335 C334 1.399 . S
C335 C336 1.385 . S
C336 H322 0.931 . S
C336 C335 1.385 . S
C336 C337 1.389 . S
C337 C336 1.389 . S
C337 C338 1.387 . S
C338 H323 0.930 . S
C338 C333 1.390 . S
C338 C337 1.387 . S
H339 C351 0.930 . S
H340 C353 0.930 . S
H341 C354 0.930 . S
H342 C358 0.959 . S
H343 C358 0.959 . S
H344 C358 0.961 . S
H345 C359 0.960 . S
H346 C359 0.961 . S
H347 C359 0.959 . S
H348 C362 0.929 . S
H349 C363 0.931 . S
H350 C365 0.930 . S
C351 H339 0.930 . S
C351 C352 1.399 . S
C351 C356 1.399 . S
C352 C351 1.399 . S
C352 C353 1.376 . S
C353 H340 0.930 . S
C353 C352 1.376 . S
C353 C354 1.388 . S
C354 H341 0.930 . S
C354 C353 1.388 . S
C354 C355 1.390 . S
C355 C354 1.390 . S
C355 C356 1.394 . S
C355 C361 1.465 . S
C356 C351 1.399 . S
C356 C355 1.394 . S
C356 C357 1.516 . S
C357 C356 1.516 . S
C357 C358 1.502 . S
C357 C359 1.561 . S
C357 C360 1.526 . S
C358 H342 0.959 . S
C358 H343 0.959 . S
C358 H344 0.961 . S
C358 C357 1.502 . S
C359 H345 0.960 . S
C359 H346 0.961 . S
C359 H347 0.959 . S
C359 C357 1.561 . S
C360 C357 1.526 . S
C360 C361 1.396 . S
C360 C365 1.390 . S
C361 C355 1.465 . S
C361 C360 1.396 . S
C361 C362 1.399 . S
C362 H348 0.929 . S
C362 C361 1.399 . S
C362 C363 1.385 . S
C363 H349 0.931 . S
C363 C362 1.385 . S
C363 C364 1.389 . S
C364 C363 1.389 . S
C364 C365 1.387 . S
C365 H350 0.930 . S
C365 C360 1.390 . S
C365 C364 1.387 . S
H366 C378 0.930 . S
H367 C380 0.930 . S
H368 C381 0.930 . S
H369 C385 0.959 . S
H370 C385 0.959 . S
H371 C385 0.961 . S
H372 C386 0.960 . S
H373 C386 0.961 . S
H374 C386 0.959 . S
H375 C389 0.929 . S
H376 C390 0.931 . S
H377 C392 0.930 . S
C378 H366 0.930 . S
C378 C379 1.399 . S
C378 C383 1.399 . S
C379 C378 1.399 . S
C379 C380 1.376 . S
C380 H367 0.930 . S
C380 C379 1.376 . S
C380 C381 1.388 . S
C381 H368 0.930 . S
C381 C380 1.388 . S
C381 C382 1.390 . S
C382 C381 1.390 . S
C382 C383 1.394 . S
C382 C388 1.465 . S
C383 C378 1.399 . S
C383 C382 1.394 . S
C383 C384 1.516 . S
C384 C383 1.516 . S
C384 C385 1.502 . S
C384 C386 1.561 . S
C384 C387 1.526 . S
C385 H369 0.959 . S
C385 H370 0.959 . S
C385 H371 0.961 . S
C385 C384 1.502 . S
C386 H372 0.960 . S
C386 H373 0.961 . S
C386 H374 0.959 . S
C386 C384 1.561 . S
C387 C384 1.526 . S
C387 C388 1.396 . S
C387 C392 1.390 . S
C388 C382 1.465 . S
C388 C387 1.396 . S
C388 C389 1.399 . S
C389 H375 0.929 . S
C389 C388 1.399 . S
C389 C390 1.385 . S
C390 H376 0.931 . S
C390 C389 1.385 . S
C390 C391 1.389 . S
C391 C390 1.389 . S
C391 C392 1.387 . S
C392 H377 0.930 . S
C392 C387 1.390 . S
C392 C391 1.387 . S
H393 C405 0.930 . S
H394 C407 0.930 . S
H395 C408 0.930 . S
H396 C412 0.959 . S
H397 C412 0.959 . S
H398 C412 0.961 . S
H399 C413 0.960 . S
H400 C413 0.961 . S
H401 C413 0.959 . S
H402 C416 0.929 . S
H403 C417 0.931 . S
H404 C419 0.930 . S
C405 H393 0.930 . S
C405 C406 1.399 . S
C405 C410 1.399 . S
C406 C405 1.399 . S
C406 C407 1.376 . S
C407 H394 0.930 . S
C407 C406 1.376 . S
C407 C408 1.388 . S
C408 H395 0.930 . S
C408 C407 1.388 . S
C408 C409 1.390 . S
C409 C408 1.390 . S
C409 C410 1.394 . S
C409 C415 1.465 . S
C410 C405 1.399 . S
C410 C409 1.394 . S
C410 C411 1.516 . S
C411 C410 1.516 . S
C411 C412 1.502 . S
C411 C413 1.561 . S
C411 C414 1.526 . S
C412 H396 0.959 . S
C412 H397 0.959 . S
C412 H398 0.961 . S
C412 C411 1.502 . S
C413 H399 0.960 . S
C413 H400 0.961 . S
C413 H401 0.959 . S
C413 C411 1.561 . S
C414 C411 1.526 . S
C414 C415 1.396 . S
C414 C419 1.390 . S
C415 C409 1.465 . S
C415 C414 1.396 . S
C415 C416 1.399 . S
C416 H402 0.929 . S
C416 C415 1.399 . S
C416 C417 1.385 . S
C417 H403 0.931 . S
C417 C416 1.385 . S
C417 C418 1.389 . S
C418 C417 1.389 . S
C418 C419 1.387 . S
C419 H404 0.930 . S
C419 C414 1.390 . S
C419 C418 1.387 . S
H420 C432 0.930 . S
H421 C434 0.930 . S
H422 C435 0.930 . S
H423 C439 0.959 . S
H424 C439 0.959 . S
H425 C439 0.961 . S
H426 C440 0.960 . S
H427 C440 0.961 . S
H428 C440 0.959 . S
H429 C443 0.929 . S
H430 C444 0.931 . S
H431 C446 0.930 . S
C432 H420 0.930 . S
C432 C433 1.399 . S
C432 C437 1.399 . S
C433 C432 1.399 . S
C433 C434 1.376 . S
C434 H421 0.930 . S
C434 C433 1.376 . S
C434 C435 1.388 . S
C435 H422 0.930 . S
C435 C434 1.388 . S
C435 C436 1.390 . S
C436 C435 1.390 . S
C436 C437 1.394 . S
C436 C442 1.465 . S
C437 C432 1.399 . S
C437 C436 1.394 . S
C437 C438 1.516 . S
C438 C437 1.516 . S
C438 C439 1.502 . S
C438 C440 1.561 . S
C438 C441 1.526 . S
C439 H423 0.959 . S
C439 H424 0.959 . S
C439 H425 0.961 . S
C439 C438 1.502 . S
C440 H426 0.960 . S
C440 H427 0.961 . S
C440 H428 0.959 . S
C440 C438 1.561 . S
C441 C438 1.526 . S
C441 C442 1.396 . S
C441 C446 1.390 . S
C442 C436 1.465 . S
C442 C441 1.396 . S
C442 C443 1.399 . S
C443 H429 0.929 . S
C443 C442 1.399 . S
C443 C444 1.385 . S
C444 H430 0.931 . S
C444 C443 1.385 . S
C444 C445 1.389 . S
C445 C444 1.389 . S
C445 C446 1.387 . S
C446 H431 0.930 . S
C446 C441 1.390 . S
C446 C445 1.387 . S
H447 C459 0.930 . S
H448 C461 0.930 . S
H449 C462 0.930 . S
H450 C466 0.959 . S
H451 C466 0.959 . S
H452 C466 0.961 . S
H453 C467 0.960 . S
H454 C467 0.961 . S
H455 C467 0.959 . S
H456 C470 0.929 . S
H457 C471 0.931 . S
H458 C473 0.930 . S
C459 H447 0.930 . S
C459 C460 1.399 . S
C459 C464 1.399 . S
C460 C459 1.399 . S
C460 C461 1.376 . S
C461 H448 0.930 . S
C461 C460 1.376 . S
C461 C462 1.388 . S
C462 H449 0.930 . S
C462 C461 1.388 . S
C462 C463 1.390 . S
C463 C462 1.390 . S
C463 C464 1.394 . S
C463 C469 1.465 . S
C464 C459 1.399 . S
C464 C463 1.394 . S
C464 C465 1.516 . S
C465 C464 1.516 . S
C465 C466 1.502 . S
C465 C467 1.561 . S
C465 C468 1.526 . S
C466 H450 0.959 . S
C466 H451 0.959 . S
C466 H452 0.961 . S
C466 C465 1.502 . S
C467 H453 0.960 . S
C467 H454 0.961 . S
C467 H455 0.959 . S
C467 C465 1.561 . S
C468 C465 1.526 . S
C468 C469 1.396 . S
C468 C473 1.390 . S
C469 C463 1.465 . S
C469 C468 1.396 . S
C469 C470 1.399 . S
C470 H456 0.929 . S
C470 C469 1.399 . S
C470 C471 1.385 . S
C471 H457 0.931 . S
C471 C470 1.385 . S
C471 C472 1.389 . S
C472 C471 1.389 . S
C472 C473 1.387 . S
C473 H458 0.930 . S
C473 C468 1.390 . S
C473 C472 1.387 . S
H474 C486 0.930 . S
H475 C488 0.930 . S
H476 C489 0.930 . S
H477 C493 0.959 . S
H478 C493 0.959 . S
H479 C493 0.961 . S
H480 C494 0.960 . S
H481 C494 0.961 . S
H482 C494 0.959 . S
H483 C497 0.929 . S
H484 C498 0.931 . S
H485 C500 0.930 . S
C486 H474 0.930 . S
C486 C487 1.399 . S
C486 C491 1.399 . S
C487 C486 1.399 . S
C487 C488 1.376 . S
C488 H475 0.930 . S
C488 C487 1.376 . S
C488 C489 1.388 . S
C489 H476 0.930 . S
C489 C488 1.388 . S
C489 C490 1.390 . S
C490 C489 1.390 . S
C490 C491 1.394 . S
C490 C496 1.465 . S
C491 C486 1.399 . S
C491 C490 1.394 . S
C491 C492 1.516 . S
C492 C491 1.516 . S
C492 C493 1.502 . S
C492 C494 1.561 . S
C492 C495 1.526 . S
C493 H477 0.959 . S
C493 H478 0.959 . S
C493 H479 0.961 . S
C493 C492 1.502 . S
C494 H480 0.960 . S
C494 H481 0.961 . S
C494 H482 0.959 . S
C494 C492 1.561 . S
C495 C492 1.526 . S
C495 C496 1.396 . S
C495 C500 1.390 . S
C496 C490 1.465 . S
C496 C495 1.396 . S
C496 C497 1.399 . S
C497 H483 0.929 . S
C497 C496 1.399 . S
C497 C498 1.385 . S
C498 H484 0.931 . S
C498 C497 1.385 . S
C498 C499 1.389 . S
C499 C498 1.389 . S
C499 C500 1.387 . S
C500 H485 0.930 . S
C500 C495 1.390 . S
C500 C499 1.387 . S
H501 C513 0.930 . S
H502 C515 0.930 . S
H503 C516 0.930 . S
H504 C520 0.959 . S
H505 C520 0.959 . S
H506 C520 0.961 . S
H507 C521 0.960 . S
H508 C521 0.961 . S
H509 C521 0.959 . S
H510 C524 0.929 . S
H511 C525 0.931 . S
H512 C527 0.930 . S
C513 H501 0.930 . S
C513 C514 1.399 . S
C513 C518 1.399 . S
C514 C513 1.399 . S
C514 C515 1.376 . S
C515 H502 0.930 . S
C515 C514 1.376 . S
C515 C516 1.388 . S
C516 H503 0.930 . S
C516 C515 1.388 . S
C516 C517 1.390 . S
C517 C516 1.390 . S
C517 C518 1.394 . S
C517 C523 1.465 . S
C518 C513 1.399 . S
C518 C517 1.394 . S
C518 C519 1.516 . S
C519 C518 1.516 . S
C519 C520 1.502 . S
C519 C521 1.561 . S
C519 C522 1.526 . S
C520 H504 0.959 . S
C520 H505 0.959 . S
C520 H506 0.961 . S
C520 C519 1.502 . S
C521 H507 0.960 . S
C521 H508 0.961 . S
C521 H509 0.959 . S
C521 C519 1.561 . S
C522 C519 1.526 . S
C522 C523 1.396 . S
C522 C527 1.390 . S
C523 C517 1.465 . S
C523 C522 1.396 . S
C523 C524 1.399 . S
C524 H510 0.929 . S
C524 C523 1.399 . S
C524 C525 1.385 . S
C525 H511 0.931 . S
C525 C524 1.385 . S
C525 C526 1.389 . S
C526 C525 1.389 . S
C526 C527 1.387 . S
C527 H512 0.930 . S
C527 C522 1.390 . S
C527 C526 1.387 . S
H528 C540 0.930 . S
H529 C542 0.930 . S
H530 C543 0.930 . S
H531 C547 0.959 . S
H532 C547 0.959 . S
H533 C547 0.961 . S
H534 C548 0.960 . S
H535 C548 0.961 . S
H536 C548 0.959 . S
H537 C551 0.929 . S
H538 C552 0.931 . S
H539 C554 0.930 . S
C540 H528 0.930 . S
C540 C541 1.399 . S
C540 C545 1.399 . S
C541 C540 1.399 . S
C541 C542 1.376 . S
C542 H529 0.930 . S
C542 C541 1.376 . S
C542 C543 1.388 . S
C543 H530 0.930 . S
C543 C542 1.388 . S
C543 C544 1.390 . S
C544 C543 1.390 . S
C544 C545 1.394 . S
C544 C550 1.465 . S
C545 C540 1.399 . S
C545 C544 1.394 . S
C545 C546 1.516 . S
C546 C545 1.516 . S
C546 C547 1.502 . S
C546 C548 1.561 . S
C546 C549 1.526 . S
C547 H531 0.959 . S
C547 H532 0.959 . S
C547 H533 0.961 . S
C547 C546 1.502 . S
C548 H534 0.960 . S
C548 H535 0.961 . S
C548 H536 0.959 . S
C548 C546 1.561 . S
C549 C546 1.526 . S
C549 C550 1.396 . S
C549 C554 1.390 . S
C550 C544 1.465 . S
C550 C549 1.396 . S
C550 C551 1.399 . S
C551 H537 0.929 . S
C551 C550 1.399 . S
C551 C552 1.385 . S
C552 H538 0.931 . S
C552 C551 1.385 . S
C552 C553 1.389 . S
C553 C552 1.389 . S
C553 C554 1.387 . S
C554 H539 0.930 . S
C554 C549 1.390 . S
C554 C553 1.387 . S
H555 C567 0.930 . S
H556 C569 0.930 . S
H557 C570 0.930 . S
H558 C574 0.959 . S
H559 C574 0.959 . S
H560 C574 0.961 . S
H561 C575 0.960 . S
H562 C575 0.961 . S
H563 C575 0.959 . S
H564 C578 0.929 . S
H565 C579 0.931 . S
H566 C581 0.930 . S
C567 H555 0.930 . S
C567 C568 1.399 . S
C567 C572 1.399 . S
C568 C567 1.399 . S
C568 C569 1.376 . S
C569 H556 0.930 . S
C569 C568 1.376 . S
C569 C570 1.388 . S
C570 H557 0.930 . S
C570 C569 1.388 . S
C570 C571 1.390 . S
C571 C570 1.390 . S
C571 C572 1.394 . S
C571 C577 1.465 . S
C572 C567 1.399 . S
C572 C571 1.394 . S
C572 C573 1.516 . S
C573 C572 1.516 . S
C573 C574 1.502 . S
C573 C575 1.561 . S
C573 C576 1.526 . S
C574 H558 0.959 . S
C574 H559 0.959 . S
C574 H560 0.961 . S
C574 C573 1.502 . S
C575 H561 0.960 . S
C575 H562 0.961 . S
C575 H563 0.959 . S
C575 C573 1.561 . S
C576 C573 1.526 . S
C576 C577 1.396 . S
C576 C581 1.390 . S
C577 C571 1.465 . S
C577 C576 1.396 . S
C577 C578 1.399 . S
C578 H564 0.929 . S
C578 C577 1.399 . S
C578 C579 1.385 . S
C579 H565 0.931 . S
C579 C578 1.385 . S
C579 C580 1.389 . S
C580 C579 1.389 . S
C580 C581 1.387 . S
C581 H566 0.930 . S
C581 C576 1.390 . S
C581 C580 1.387 . S
H582 C594 0.930 . S
H583 C596 0.930 . S
H584 C597 0.930 . S
H585 C601 0.959 . S
H586 C601 0.959 . S
H587 C601 0.961 . S
H588 C602 0.960 . S
H589 C602 0.961 . S
H590 C602 0.959 . S
H591 C605 0.929 . S
H592 C606 0.931 . S
H593 C608 0.930 . S
C594 H582 0.930 . S
C594 C595 1.399 . S
C594 C599 1.399 . S
C595 C594 1.399 . S
C595 C596 1.376 . S
C596 H583 0.930 . S
C596 C595 1.376 . S
C596 C597 1.388 . S
C597 H584 0.930 . S
C597 C596 1.388 . S
C597 C598 1.390 . S
C598 C597 1.390 . S
C598 C599 1.394 . S
C598 C604 1.465 . S
C599 C594 1.399 . S
C599 C598 1.394 . S
C599 C600 1.516 . S
C600 C599 1.516 . S
C600 C601 1.502 . S
C600 C602 1.561 . S
C600 C603 1.526 . S
C601 H585 0.959 . S
C601 H586 0.959 . S
C601 H587 0.961 . S
C601 C600 1.502 . S
C602 H588 0.960 . S
C602 H589 0.961 . S
C602 H590 0.959 . S
C602 C600 1.561 . S
C603 C600 1.526 . S
C603 C604 1.396 . S
C603 C608 1.390 . S
C604 C598 1.465 . S
C604 C603 1.396 . S
C604 C605 1.399 . S
C605 H591 0.929 . S
C605 C604 1.399 . S
C605 C606 1.385 . S
C606 H592 0.931 . S
C606 C605 1.385 . S
C606 C607 1.389 . S
C607 C606 1.389 . S
C607 C608 1.387 . S
C608 H593 0.930 . S
C608 C603 1.390 . S
C608 C607 1.387 . S
H609 C621 0.930 . S
H610 C623 0.930 . S
H611 C624 0.930 . S
H612 C628 0.959 . S
H613 C628 0.959 . S
H614 C628 0.961 . S
H615 C629 0.960 . S
H616 C629 0.961 . S
H617 C629 0.959 . S
H618 C632 0.929 . S
H619 C633 0.931 . S
H620 C635 0.930 . S
C621 H609 0.930 . S
C621 C622 1.399 . S
C621 C626 1.399 . S
C622 C621 1.399 . S
C622 C623 1.376 . S
C623 H610 0.930 . S
C623 C622 1.376 . S
C623 C624 1.388 . S
C624 H611 0.930 . S
C624 C623 1.388 . S
C624 C625 1.390 . S
C625 C624 1.390 . S
C625 C626 1.394 . S
C625 C631 1.465 . S
C626 C621 1.399 . S
C626 C625 1.394 . S
C626 C627 1.516 . S
C627 C626 1.516 . S
C627 C628 1.502 . S
C627 C629 1.561 . S
C627 C630 1.526 . S
C628 H612 0.959 . S
C628 H613 0.959 . S
C628 H614 0.961 . S
C628 C627 1.502 . S
C629 H615 0.960 . S
C629 H616 0.961 . S
C629 H617 0.959 . S
C629 C627 1.561 . S
C630 C627 1.526 . S
C630 C631 1.396 . S
C630 C635 1.390 . S
C631 C625 1.465 . S
C631 C630 1.396 . S
C631 C632 1.399 . S
C632 H618 0.929 . S
C632 C631 1.399 . S
C632 C633 1.385 . S
C633 H619 0.931 . S
C633 C632 1.385 . S
C633 C634 1.389 . S
C634 C633 1.389 . S
C634 C635 1.387 . S
C635 H620 0.930 . S
C635 C630 1.390 . S
C635 C634 1.387 . S
H636 C648 0.930 . S
H637 C650 0.930 . S
H638 C651 0.930 . S
H639 C655 0.959 . S
H640 C655 0.959 . S
H641 C655 0.961 . S
H642 C656 0.960 . S
H643 C656 0.961 . S
H644 C656 0.959 . S
H645 C659 0.929 . S
H646 C660 0.931 . S
H647 C662 0.930 . S
C648 H636 0.930 . S
C648 C649 1.399 . S
C648 C653 1.399 . S
C649 C648 1.399 . S
C649 C650 1.376 . S
C650 H637 0.930 . S
C650 C649 1.376 . S
C650 C651 1.388 . S
C651 H638 0.930 . S
C651 C650 1.388 . S
C651 C652 1.390 . S
C652 C651 1.390 . S
C652 C653 1.394 . S
C652 C658 1.465 . S
C653 C648 1.399 . S
C653 C652 1.394 . S
C653 C654 1.516 . S
C654 C653 1.516 . S
C654 C655 1.502 . S
C654 C656 1.561 . S
C654 C657 1.526 . S
C655 H639 0.959 . S
C655 H640 0.959 . S
C655 H641 0.961 . S
C655 C654 1.502 . S
C656 H642 0.960 . S
C656 H643 0.961 . S
C656 H644 0.959 . S
C656 C654 1.561 . S
C657 C654 1.526 . S
C657 C658 1.396 . S
C657 C662 1.390 . S
C658 C652 1.465 . S
C658 C657 1.396 . S
C658 C659 1.399 . S
C659 H645 0.929 . S
C659 C658 1.399 . S
C659 C660 1.385 . S
C660 H646 0.931 . S
C660 C659 1.385 . S
C660 C661 1.389 . S
C661 C660 1.389 . S
C661 C662 1.387 . S
C662 H647 0.930 . S
C662 C657 1.390 . S
C662 C661 1.387 . S
H663 C675 0.930 . S
H664 C677 0.930 . S
H665 C678 0.930 . S
H666 C682 0.959 . S
H667 C682 0.959 . S
H668 C682 0.961 . S
H669 C683 0.960 . S
H670 C683 0.961 . S
H671 C683 0.959 . S
H672 C686 0.929 . S
H673 C687 0.931 . S
H674 C689 0.930 . S
C675 H663 0.930 . S
C675 C676 1.399 . S
C675 C680 1.399 . S
C676 C675 1.399 . S
C676 C677 1.376 . S
C677 H664 0.930 . S
C677 C676 1.376 . S
C677 C678 1.388 . S
C678 H665 0.930 . S
C678 C677 1.388 . S
C678 C679 1.390 . S
C679 C678 1.390 . S
C679 C680 1.394 . S
C679 C685 1.465 . S
C680 C675 1.399 . S
C680 C679 1.394 . S
C680 C681 1.516 . S
C681 C680 1.516 . S
C681 C682 1.502 . S
C681 C683 1.561 . S
C681 C684 1.526 . S
C682 H666 0.959 . S
C682 H667 0.959 . S
C682 H668 0.961 . S
C682 C681 1.502 . S
C683 H669 0.960 . S
C683 H670 0.961 . S
C683 H671 0.959 . S
C683 C681 1.561 . S
C684 C681 1.526 . S
C684 C685 1.396 . S
C684 C689 1.390 . S
C685 C679 1.465 . S
C685 C684 1.396 . S
C685 C686 1.399 . S
C686 H672 0.929 . S
C686 C685 1.399 . S
C686 C687 1.385 . S
C687 H673 0.931 . S
C687 C686 1.385 . S
C687 C688 1.389 . S
C688 C687 1.389 . S
C688 C689 1.387 . S
C689 H674 0.930 . S
C689 C684 1.390 . S
C689 C688 1.387 . S
H690 C702 0.930 . S
H691 C704 0.930 . S
H692 C705 0.930 . S
H693 C709 0.959 . S
H694 C709 0.959 . S
H695 C709 0.961 . S
H696 C710 0.960 . S
H697 C710 0.961 . S
H698 C710 0.959 . S
H699 C713 0.929 . S
H700 C714 0.931 . S
H701 C716 0.930 . S
C702 H690 0.930 . S
C702 C703 1.399 . S
C702 C707 1.399 . S
C703 C702 1.399 . S
C703 C704 1.376 . S
C704 H691 0.930 . S
C704 C703 1.376 . S
C704 C705 1.388 . S
C705 H692 0.930 . S
C705 C704 1.388 . S
C705 C706 1.390 . S
C706 C705 1.390 . S
C706 C707 1.394 . S
C706 C712 1.465 . S
C707 C702 1.399 . S
C707 C706 1.394 . S
C707 C708 1.516 . S
C708 C707 1.516 . S
C708 C709 1.502 . S
C708 C710 1.561 . S
C708 C711 1.526 . S
C709 H693 0.959 . S
C709 H694 0.959 . S
C709 H695 0.961 . S
C709 C708 1.502 . S
C710 H696 0.960 . S
C710 H697 0.961 . S
C710 H698 0.959 . S
C710 C708 1.561 . S
C711 C708 1.526 . S
C711 C712 1.396 . S
C711 C716 1.390 . S
C712 C706 1.465 . S
C712 C711 1.396 . S
C712 C713 1.399 . S
C713 H699 0.929 . S
C713 C712 1.399 . S
C713 C714 1.385 . S
C714 H700 0.931 . S
C714 C713 1.385 . S
C714 C715 1.389 . S
C715 C714 1.389 . S
C715 C716 1.387 . S
C716 H701 0.930 . S
C716 C711 1.390 . S
C716 C715 1.387 . S
H717 C729 0.930 . S
H718 C731 0.930 . S
H719 C732 0.930 . S
H720 C736 0.959 . S
H721 C736 0.959 . S
H722 C736 0.961 . S
H723 C737 0.960 . S
H724 C737 0.961 . S
H725 C737 0.959 . S
H726 C740 0.929 . S
H727 C741 0.931 . S
H728 C743 0.930 . S
C729 H717 0.930 . S
C729 C730 1.399 . S
C729 C734 1.399 . S
C730 C729 1.399 . S
C730 C731 1.376 . S
C731 H718 0.930 . S
C731 C730 1.376 . S
C731 C732 1.388 . S
C732 H719 0.930 . S
C732 C731 1.388 . S
C732 C733 1.390 . S
C733 C732 1.390 . S
C733 C734 1.394 . S
C733 C739 1.465 . S
C734 C729 1.399 . S
C734 C733 1.394 . S
C734 C735 1.516 . S
C735 C734 1.516 . S
C735 C736 1.502 . S
C735 C737 1.561 . S
C735 C738 1.526 . S
C736 H720 0.959 . S
C736 H721 0.959 . S
C736 H722 0.961 . S
C736 C735 1.502 . S
C737 H723 0.960 . S
C737 H724 0.961 . S
C737 H725 0.959 . S
C737 C735 1.561 . S
C738 C735 1.526 . S
C738 C739 1.396 . S
C738 C743 1.390 . S
C739 C733 1.465 . S
C739 C738 1.396 . S
C739 C740 1.399 . S
C740 H726 0.929 . S
C740 C739 1.399 . S
C740 C741 1.385 . S
C741 H727 0.931 . S
C741 C740 1.385 . S
C741 C742 1.389 . S
C742 C741 1.389 . S
C742 C743 1.387 . S
C743 H728 0.930 . S
C743 C738 1.390 . S
C743 C742 1.387 . S
H744 C756 0.930 . S
H745 C758 0.930 . S
H746 C759 0.930 . S
H747 C763 0.959 . S
H748 C763 0.959 . S
H749 C763 0.961 . S
H750 C764 0.960 . S
H751 C764 0.961 . S
H752 C764 0.959 . S
H753 C767 0.929 . S
H754 C768 0.931 . S
H755 C770 0.930 . S
C756 H744 0.930 . S
C756 C757 1.399 . S
C756 C761 1.399 . S
C757 C756 1.399 . S
C757 C758 1.376 . S
C758 H745 0.930 . S
C758 C757 1.376 . S
C758 C759 1.388 . S
C759 H746 0.930 . S
C759 C758 1.388 . S
C759 C760 1.390 . S
C760 C759 1.390 . S
C760 C761 1.394 . S
C760 C766 1.465 . S
C761 C756 1.399 . S
C761 C760 1.394 . S
C761 C762 1.516 . S
C762 C761 1.516 . S
C762 C763 1.502 . S
C762 C764 1.561 . S
C762 C765 1.526 . S
C763 H747 0.959 . S
C763 H748 0.959 . S
C763 H749 0.961 . S
C763 C762 1.502 . S
C764 H750 0.960 . S
C764 H751 0.961 . S
C764 H752 0.959 . S
C764 C762 1.561 . S
C765 C762 1.526 . S
C765 C766 1.396 . S
C765 C770 1.390 . S
C766 C760 1.465 . S
C766 C765 1.396 . S
C766 C767 1.399 . S
C767 H753 0.929 . S
C767 C766 1.399 . S
C767 C768 1.385 . S
C768 H754 0.931 . S
C768 C767 1.385 . S
C768 C769 1.389 . S
C769 C768 1.389 . S
C769 C770 1.387 . S
C770 H755 0.930 . S
C770 C765 1.390 . S
C770 C769 1.387 . S
H771 C783 0.930 . S
H772 C785 0.930 . S
H773 C786 0.930 . S
H774 C790 0.959 . S
H775 C790 0.959 . S
H776 C790 0.961 . S
H777 C791 0.960 . S
H778 C791 0.961 . S
H779 C791 0.959 . S
H780 C794 0.929 . S
H781 C795 0.931 . S
H782 C797 0.930 . S
C783 H771 0.930 . S
C783 C784 1.399 . S
C783 C788 1.399 . S
C784 C783 1.399 . S
C784 C785 1.376 . S
C785 H772 0.930 . S
C785 C784 1.376 . S
C785 C786 1.388 . S
C786 H773 0.930 . S
C786 C785 1.388 . S
C786 C787 1.390 . S
C787 C786 1.390 . S
C787 C788 1.394 . S
C787 C793 1.465 . S
C788 C783 1.399 . S
C788 C787 1.394 . S
C788 C789 1.516 . S
C789 C788 1.516 . S
C789 C790 1.502 . S
C789 C791 1.561 . S
C789 C792 1.526 . S
C790 H774 0.959 . S
C790 H775 0.959 . S
C790 H776 0.961 . S
C790 C789 1.502 . S
C791 H777 0.960 . S
C791 H778 0.961 . S
C791 H779 0.959 . S
C791 C789 1.561 . S
C792 C789 1.526 . S
C792 C793 1.396 . S
C792 C797 1.390 . S
C793 C787 1.465 . S
C793 C792 1.396 . S
C793 C794 1.399 . S
C794 H780 0.929 . S
C794 C793 1.399 . S
C794 C795 1.385 . S
C795 H781 0.931 . S
C795 C794 1.385 . S
C795 C796 1.389 . S
C796 C795 1.389 . S
C796 C797 1.387 . S
C797 H782 0.930 . S
C797 C792 1.390 . S
C797 C796 1.387 . S
H798 C810 0.930 . S
H799 C812 0.930 . S
H800 C813 0.930 . S
H801 C817 0.959 . S
H802 C817 0.959 . S
H803 C817 0.961 . S
H804 C818 0.960 . S
H805 C818 0.961 . S
H806 C818 0.959 . S
H807 C821 0.929 . S
H808 C822 0.931 . S
H809 C824 0.930 . S
C810 H798 0.930 . S
C810 C811 1.399 . S
C810 C815 1.399 . S
C811 C810 1.399 . S
C811 C812 1.376 . S
C812 H799 0.930 . S
C812 C811 1.376 . S
C812 C813 1.388 . S
C813 H800 0.930 . S
C813 C812 1.388 . S
C813 C814 1.390 . S
C814 C813 1.390 . S
C814 C815 1.394 . S
C814 C820 1.465 . S
C815 C810 1.399 . S
C815 C814 1.394 . S
C815 C816 1.516 . S
C816 C815 1.516 . S
C816 C817 1.502 . S
C816 C818 1.561 . S
C816 C819 1.526 . S
C817 H801 0.959 . S
C817 H802 0.959 . S
C817 H803 0.961 . S
C817 C816 1.502 . S
C818 H804 0.960 . S
C818 H805 0.961 . S
C818 H806 0.959 . S
C818 C816 1.561 . S
C819 C816 1.526 . S
C819 C820 1.396 . S
C819 C824 1.390 . S
C820 C814 1.465 . S
C820 C819 1.396 . S
C820 C821 1.399 . S
C821 H807 0.929 . S
C821 C820 1.399 . S
C821 C822 1.385 . S
C822 H808 0.931 . S
C822 C821 1.385 . S
C822 C823 1.389 . S
C823 C822 1.389 . S
C823 C824 1.387 . S
C824 H809 0.930 . S
C824 C819 1.390 . S
C824 C823 1.387 . S
H825 C837 0.930 . S
H826 C839 0.930 . S
H827 C840 0.930 . S
H828 C844 0.959 . S
H829 C844 0.959 . S
H830 C844 0.961 . S
H831 C845 0.960 . S
H832 C845 0.961 . S
H833 C845 0.959 . S
H834 C848 0.929 . S
H835 C849 0.931 . S
H836 C851 0.930 . S
C837 H825 0.930 . S
C837 C838 1.399 . S
C837 C842 1.399 . S
C838 C837 1.399 . S
C838 C839 1.376 . S
C839 H826 0.930 . S
C839 C838 1.376 . S
C839 C840 1.388 . S
C840 H827 0.930 . S
C840 C839 1.388 . S
C840 C841 1.390 . S
C841 C840 1.390 . S
C841 C842 1.394 . S
C841 C847 1.465 . S
C842 C837 1.399 . S
C842 C841 1.394 . S
C842 C843 1.516 . S
C843 C842 1.516 . S
C843 C844 1.502 . S
C843 C845 1.561 . S
C843 C846 1.526 . S
C844 H828 0.959 . S
C844 H829 0.959 . S
C844 H830 0.961 . S
C844 C843 1.502 . S
C845 H831 0.960 . S
C845 H832 0.961 . S
C845 H833 0.959 . S
C845 C843 1.561 . S
C846 C843 1.526 . S
C846 C847 1.396 . S
C846 C851 1.390 . S
C847 C841 1.465 . S
C847 C846 1.396 . S
C847 C848 1.399 . S
C848 H834 0.929 . S
C848 C847 1.399 . S
C848 C849 1.385 . S
C849 H835 0.931 . S
C849 C848 1.385 . S
C849 C850 1.389 . S
C850 C849 1.389 . S
C850 C851 1.387 . S
C851 H836 0.930 . S
C851 C846 1.390 . S
C851 C850 1.387 . S
H852 C864 0.930 . S
H853 C866 0.930 . S
H854 C867 0.930 . S
H855 C871 0.959 . S
H856 C871 0.959 . S
H857 C871 0.961 . S
H858 C872 0.960 . S
H859 C872 0.961 . S
H860 C872 0.959 . S
H861 C875 0.929 . S
H862 C876 0.931 . S
H863 C878 0.930 . S
C864 H852 0.930 . S
C864 C865 1.399 . S
C864 C869 1.399 . S
C865 C864 1.399 . S
C865 C866 1.376 . S
C866 H853 0.930 . S
C866 C865 1.376 . S
C866 C867 1.388 . S
C867 H854 0.930 . S
C867 C866 1.388 . S
C867 C868 1.390 . S
C868 C867 1.390 . S
C868 C869 1.394 . S
C868 C874 1.465 . S
C869 C864 1.399 . S
C869 C868 1.394 . S
C869 C870 1.516 . S
C870 C869 1.516 . S
C870 C871 1.502 . S
C870 C872 1.561 . S
C870 C873 1.526 . S
C871 H855 0.959 . S
C871 H856 0.959 . S
C871 H857 0.961 . S
C871 C870 1.502 . S
C872 H858 0.960 . S
C872 H859 0.961 . S
C872 H860 0.959 . S
C872 C870 1.561 . S
C873 C870 1.526 . S
C873 C874 1.396 . S
C873 C878 1.390 . S
C874 C868 1.465 . S
C874 C873 1.396 . S
C874 C875 1.399 . S
C875 H861 0.929 . S
C875 C874 1.399 . S
C875 C876 1.385 . S
C876 H862 0.931 . S
C876 C875 1.385 . S
C876 C877 1.389 . S
C877 C876 1.389 . S
C877 C878 1.387 . S
C878 H863 0.930 . S
C878 C873 1.390 . S
C878 C877 1.387 . S
H879 C891 0.930 . S
H880 C893 0.930 . S
H881 C894 0.930 . S
H882 C898 0.959 . S
H883 C898 0.959 . S
H884 C898 0.961 . S
H885 C899 0.960 . S
H886 C899 0.961 . S
H887 C899 0.959 . S
H888 C902 0.929 . S
H889 C903 0.931 . S
H890 C905 0.930 . S
C891 H879 0.930 . S
C891 C892 1.399 . S
C891 C896 1.399 . S
C892 C891 1.399 . S
C892 C893 1.376 . S
C893 H880 0.930 . S
C893 C892 1.376 . S
C893 C894 1.388 . S
C894 H881 0.930 . S
C894 C893 1.388 . S
C894 C895 1.390 . S
C895 C894 1.390 . S
C895 C896 1.394 . S
C895 C901 1.465 . S
C896 C891 1.399 . S
C896 C895 1.394 . S
C896 C897 1.516 . S
C897 C896 1.516 . S
C897 C898 1.502 . S
C897 C899 1.561 . S
C897 C900 1.526 . S
C898 H882 0.959 . S
C898 H883 0.959 . S
C898 H884 0.961 . S
C898 C897 1.502 . S
C899 H885 0.960 . S
C899 H886 0.961 . S
C899 H887 0.959 . S
C899 C897 1.561 . S
C900 C897 1.526 . S
C900 C901 1.396 . S
C900 C905 1.390 . S
C901 C895 1.465 . S
C901 C900 1.396 . S
C901 C902 1.399 . S
C902 H888 0.929 . S
C902 C901 1.399 . S
C902 C903 1.385 . S
C903 H889 0.931 . S
C903 C902 1.385 . S
C903 C904 1.389 . S
C904 C903 1.389 . S
C904 C905 1.387 . S
C905 H890 0.930 . S
C905 C900 1.390 . S
C905 C904 1.387 . S
H906 C918 0.930 . S
H907 C920 0.930 . S
H908 C921 0.930 . S
H909 C925 0.959 . S
H910 C925 0.959 . S
H911 C925 0.961 . S
H912 C926 0.960 . S
H913 C926 0.961 . S
H914 C926 0.959 . S
H915 C929 0.929 . S
H916 C930 0.931 . S
H917 C932 0.930 . S
C918 H906 0.930 . S
C918 C919 1.399 . S
C918 C923 1.399 . S
C919 C918 1.399 . S
C919 C920 1.376 . S
C920 H907 0.930 . S
C920 C919 1.376 . S
C920 C921 1.388 . S
C921 H908 0.930 . S
C921 C920 1.388 . S
C921 C922 1.390 . S
C922 C921 1.390 . S
C922 C923 1.394 . S
C922 C928 1.465 . S
C923 C918 1.399 . S
C923 C922 1.394 . S
C923 C924 1.516 . S
C924 C923 1.516 . S
C924 C925 1.502 . S
C924 C926 1.561 . S
C924 C927 1.526 . S
C925 H909 0.959 . S
C925 H910 0.959 . S
C925 H911 0.961 . S
C925 C924 1.502 . S
C926 H912 0.960 . S
C926 H913 0.961 . S
C926 H914 0.959 . S
C926 C924 1.561 . S
C927 C924 1.526 . S
C927 C928 1.396 . S
C927 C932 1.390 . S
C928 C922 1.465 . S
C928 C927 1.396 . S
C928 C929 1.399 . S
C929 H915 0.929 . S
C929 C928 1.399 . S
C929 C930 1.385 . S
C930 H916 0.931 . S
C930 C929 1.385 . S
C930 C931 1.389 . S
C931 C930 1.389 . S
C931 C932 1.387 . S
C932 H917 0.930 . S
C932 C927 1.390 . S
C932 C931 1.387 . S
H933 C945 0.930 . S
H934 C947 0.930 . S
H935 C948 0.930 . S
H936 C952 0.959 . S
H937 C952 0.959 . S
H938 C952 0.961 . S
H939 C953 0.960 . S
H940 C953 0.961 . S
H941 C953 0.959 . S
H942 C956 0.929 . S
H943 C957 0.931 . S
H944 C959 0.930 . S
C945 H933 0.930 . S
C945 C946 1.399 . S
C945 C950 1.399 . S
C946 C945 1.399 . S
C946 C947 1.376 . S
C947 H934 0.930 . S
C947 C946 1.376 . S
C947 C948 1.388 . S
C948 H935 0.930 . S
C948 C947 1.388 . S
C948 C949 1.390 . S
C949 C948 1.390 . S
C949 C950 1.394 . S
C949 C955 1.465 . S
C950 C945 1.399 . S
C950 C949 1.394 . S
C950 C951 1.516 . S
C951 C950 1.516 . S
C951 C952 1.502 . S
C951 C953 1.561 . S
C951 C954 1.526 . S
C952 H936 0.959 . S
C952 H937 0.959 . S
C952 H938 0.961 . S
C952 C951 1.502 . S
C953 H939 0.960 . S
C953 H940 0.961 . S
C953 H941 0.959 . S
C953 C951 1.561 . S
C954 C951 1.526 . S
C954 C955 1.396 . S
C954 C959 1.390 . S
C955 C949 1.465 . S
C955 C954 1.396 . S
C955 C956 1.399 . S
C956 H942 0.929 . S
C956 C955 1.399 . S
C956 C957 1.385 . S
C957 H943 0.931 . S
C957 C956 1.385 . S
C957 C958 1.389 . S
C958 C957 1.389 . S
C958 C959 1.387 . S
C959 H944 0.930 . S
C959 C954 1.390 . S
C959 C958 1.387 . S
H960 C972 0.930 . S
H961 C974 0.930 . S
H962 C975 0.930 . S
H963 C979 0.959 . S
H964 C979 0.959 . S
H965 C979 0.961 1_455 S
H966 C980 0.960 . S
H967 C980 0.961 1_655 S
H968 C980 0.959 . S
H969 C983 0.929 . S
H970 C984 0.931 . S
H971 C986 0.930 . S
C972 H960 0.930 . S
C972 C973 1.399 . S
C972 C977 1.399 . S
C973 C972 1.399 . S
C973 C974 1.376 . S
C974 H961 0.930 . S
C974 C973 1.376 . S
C974 C975 1.388 . S
C975 H962 0.930 . S
C975 C974 1.388 . S
C975 C976 1.390 . S
C976 C975 1.390 . S
C976 C977 1.394 . S
C976 C982 1.465 1_455 S
C977 C972 1.399 . S
C977 C976 1.394 . S
C977 C978 1.508 1_455 S
C978 C977 1.508 1_655 S
C978 C979 1.503 . S
C978 C980 1.560 1_655 S
C978 C981 1.534 . S
C979 H963 0.959 . S
C979 H964 0.959 . S
C979 H965 0.961 1_655 S
C979 C978 1.503 . S
C980 H966 0.960 . S
C980 H967 0.961 1_455 S
C980 H968 0.959 . S
C980 C978 1.560 1_455 S
C981 C978 1.534 . S
C981 C982 1.396 . S
C981 C986 1.390 . S
C982 C976 1.465 1_655 S
C982 C981 1.396 . S
C982 C983 1.399 . S
C983 H969 0.929 . S
C983 C982 1.399 . S
C983 C984 1.385 . S
C984 H970 0.931 . S
C984 C983 1.385 . S
C984 C985 1.389 . S
C985 C984 1.389 . S
C985 C986 1.387 . S
C986 H971 0.930 . S
C986 C981 1.390 . S
C986 C985 1.387 . S
H987 C999 0.930 . S
H988 C1001 0.930 . S
H989 C1002 0.930 . S
H990 C1006 0.959 . S
H991 C1006 0.959 . S
H992 C1006 0.961 1_545 S
H993 C1007 0.960 1_545 S
H994 C1007 0.961 . S
H995 C1007 0.959 . S
H996 C1010 0.929 . S
H997 C1011 0.931 . S
H998 C1013 0.930 . S
C999 H987 0.930 . S
C999 C1000 1.399 . S
C999 C1004 1.399 . S
C1000 C999 1.399 . S
C1000 C1001 1.376 . S
C1001 H988 0.930 . S
C1001 C1000 1.376 . S
C1001 C1002 1.388 . S
C1002 H989 0.930 . S
C1002 C1001 1.388 . S
C1002 C1003 1.390 . S
C1003 C1002 1.390 . S
C1003 C1004 1.394 . S
C1003 C1009 1.465 1_545 S
C1004 C999 1.399 . S
C1004 C1003 1.394 . S
C1004 C1005 1.516 1_545 S
C1005 C1004 1.516 1_565 S
C1005 C1006 1.502 . S
C1005 C1007 1.561 . S
C1005 C1008 1.526 . S
C1006 H990 0.959 . S
C1006 H991 0.959 . S
C1006 H992 0.961 1_565 S
C1006 C1005 1.502 . S
C1007 H993 0.960 1_565 S
C1007 H994 0.961 . S
C1007 H995 0.959 . S
C1007 C1005 1.561 . S
C1008 C1005 1.526 . S
C1008 C1009 1.396 . S
C1008 C1013 1.390 . S
C1009 C1003 1.465 1_565 S
C1009 C1008 1.396 . S
C1009 C1010 1.399 . S
C1010 H996 0.929 . S
C1010 C1009 1.399 . S
C1010 C1011 1.385 . S
C1011 H997 0.931 . S
C1011 C1010 1.385 . S
C1011 C1012 1.389 . S
C1012 C1011 1.389 . S
C1012 C1013 1.387 . S
C1013 H998 0.930 . S
C1013 C1008 1.390 . S
C1013 C1012 1.387 . S
H1014 C1026 0.930 . S
H1015 C1028 0.930 . S
H1016 C1029 0.930 . S
H1017 C1033 0.959 . S
H1018 C1033 0.959 1_455 S
H1019 C1033 0.961 . S
H1020 C1034 0.960 1_655 S
H1021 C1034 0.961 . S
H1022 C1034 0.959 . S
H1023 C1037 0.929 . S
H1024 C1038 0.931 . S
H1025 C1040 0.930 . S
C1026 H1014 0.930 . S
C1026 C1027 1.399 . S
C1026 C1031 1.399 . S
C1027 C1026 1.399 . S
C1027 C1028 1.376 . S
C1028 H1015 0.930 . S
C1028 C1027 1.376 . S
C1028 C1029 1.388 . S
C1029 H1016 0.930 . S
C1029 C1028 1.388 . S
C1029 C1030 1.390 . S
C1030 C1029 1.390 . S
C1030 C1031 1.394 . S
C1030 C1036 1.465 1_655 S
C1031 C1026 1.399 . S
C1031 C1030 1.394 . S
C1031 C1032 1.552 . S
C1032 C1031 1.552 . S
C1032 C1033 1.508 . S
C1032 C1034 1.557 1_655 S
C1032 C1035 1.488 1_655 S
C1033 H1017 0.959 . S
C1033 H1018 0.959 1_655 S
C1033 H1019 0.961 . S
C1033 C1032 1.508 . S
C1034 H1020 0.960 1_455 S
C1034 H1021 0.961 . S
C1034 H1022 0.959 . S
C1034 C1032 1.557 1_455 S
C1035 C1032 1.488 1_455 S
C1035 C1036 1.396 . S
C1035 C1040 1.390 . S
C1036 C1030 1.465 1_455 S
C1036 C1035 1.396 . S
C1036 C1037 1.399 . S
C1037 H1023 0.929 . S
C1037 C1036 1.399 . S
C1037 C1038 1.385 . S
C1038 H1024 0.931 . S
C1038 C1037 1.385 . S
C1038 C1039 1.389 . S
C1039 C1038 1.389 . S
C1039 C1040 1.387 . S
C1040 H1025 0.930 . S
C1040 C1035 1.390 . S
C1040 C1039 1.387 . S
H1041 C1053 0.930 . S
H1042 C1055 0.930 . S
H1043 C1056 0.930 . S
H1044 C1060 0.959 . S
H1045 C1060 0.959 1_565 S
H1046 C1060 0.961 . S
H1047 C1061 0.960 . S
H1048 C1061 0.961 1_565 S
H1049 C1061 0.959 . S
H1050 C1064 0.929 . S
H1051 C1065 0.931 . S
H1052 C1067 0.930 . S
C1053 H1041 0.930 . S
C1053 C1054 1.399 . S
C1053 C1058 1.399 . S
C1054 C1053 1.399 . S
C1054 C1055 1.376 . S
C1055 H1042 0.930 . S
C1055 C1054 1.376 . S
C1055 C1056 1.388 . S
C1056 H1043 0.930 . S
C1056 C1055 1.388 . S
C1056 C1057 1.390 . S
C1057 C1056 1.390 . S
C1057 C1058 1.394 . S
C1057 C1063 1.465 1_545 S
C1058 C1053 1.399 . S
C1058 C1057 1.394 . S
C1058 C1059 1.516 . S
C1059 C1058 1.516 . S
C1059 C1060 1.502 . S
C1059 C1061 1.561 . S
C1059 C1062 1.526 1_545 S
C1060 H1044 0.959 . S
C1060 H1045 0.959 1_545 S
C1060 H1046 0.961 . S
C1060 C1059 1.502 . S
C1061 H1047 0.960 . S
C1061 H1048 0.961 1_545 S
C1061 H1049 0.959 . S
C1061 C1059 1.561 . S
C1062 C1059 1.526 1_565 S
C1062 C1063 1.396 . S
C1062 C1067 1.390 . S
C1063 C1057 1.465 1_565 S
C1063 C1062 1.396 . S
C1063 C1064 1.399 . S
C1064 H1050 0.929 . S
C1064 C1063 1.399 . S
C1064 C1065 1.385 . S
C1065 H1051 0.931 . S
C1065 C1064 1.385 . S
C1065 C1066 1.389 . S
C1066 C1065 1.389 . S
C1066 C1067 1.387 . S
C1067 H1052 0.930 . S
C1067 C1062 1.390 . S
C1067 C1066 1.387 . S
H1068 C1080 0.930 . S
H1069 C1082 0.930 . S
H1070 C1083 0.930 . S
H1071 C1087 0.959 . S
H1072 C1087 0.959 1_545 S
H1073 C1087 0.961 . S
H1074 C1088 0.960 1_565 S
H1075 C1088 0.961 . S
H1076 C1088 0.959 . S
H1077 C1091 0.929 . S
H1078 C1092 0.931 . S
H1079 C1094 0.930 . S
C1080 H1068 0.930 . S
C1080 C1081 1.399 . S
C1080 C1085 1.399 . S
C1081 C1080 1.399 . S
C1081 C1082 1.376 . S
C1082 H1069 0.930 . S
C1082 C1081 1.376 . S
C1082 C1083 1.388 . S
C1083 H1070 0.930 . S
C1083 C1082 1.388 . S
C1083 C1084 1.390 . S
C1084 C1083 1.390 . S
C1084 C1085 1.394 . S
C1084 C1090 1.465 1_565 S
C1085 C1080 1.399 . S
C1085 C1084 1.394 . S
C1085 C1086 1.547 . S
C1086 C1085 1.547 . S
C1086 C1087 1.507 . S
C1086 C1088 1.557 1_565 S
C1086 C1089 1.494 1_565 S
C1087 H1071 0.959 . S
C1087 H1072 0.959 1_565 S
C1087 H1073 0.961 . S
C1087 C1086 1.507 . S
C1088 H1074 0.960 1_545 S
C1088 H1075 0.961 . S
C1088 H1076 0.959 . S
C1088 C1086 1.557 1_545 S
C1089 C1086 1.494 1_545 S
C1089 C1090 1.396 . S
C1089 C1094 1.390 . S
C1090 C1084 1.465 1_545 S
C1090 C1089 1.396 . S
C1090 C1091 1.399 . S
C1091 H1077 0.929 . S
C1091 C1090 1.399 . S
C1091 C1092 1.385 . S
C1092 H1078 0.931 . S
C1092 C1091 1.385 . S
C1092 C1093 1.389 . S
C1093 C1092 1.389 . S
C1093 C1094 1.387 . S
C1094 H1079 0.930 . S
C1094 C1089 1.390 . S
C1094 C1093 1.387 . S
H1095 C1107 0.930 . S
H1096 C1109 0.930 . S
H1097 C1110 0.930 . S
H1098 C1114 0.959 . S
H1099 C1114 0.959 . S
H1100 C1114 0.961 1_655 S
H1101 C1115 0.960 . S
H1102 C1115 0.961 1_455 S
H1103 C1115 0.959 . S
H1104 C1118 0.929 . S
H1105 C1119 0.931 . S
H1106 C1121 0.930 . S
C1107 H1095 0.930 . S
C1107 C1108 1.399 . S
C1107 C1112 1.399 . S
C1108 C1107 1.399 . S
C1108 C1109 1.376 . S
C1109 H1096 0.930 . S
C1109 C1108 1.376 . S
C1109 C1110 1.388 . S
C1110 H1097 0.930 . S
C1110 C1109 1.388 . S
C1110 C1111 1.390 . S
C1111 C1110 1.390 . S
C1111 C1112 1.394 . S
C1111 C1117 1.465 1_655 S
C1112 C1107 1.399 . S
C1112 C1111 1.394 . S
C1112 C1113 1.516 1_655 S
C1113 C1112 1.516 1_455 S
C1113 C1114 1.502 . S
C1113 C1115 1.561 1_455 S
C1113 C1116 1.526 . S
C1114 H1098 0.959 . S
C1114 H1099 0.959 . S
C1114 H1100 0.961 1_455 S
C1114 C1113 1.502 . S
C1115 H1101 0.960 . S
C1115 H1102 0.961 1_655 S
C1115 H1103 0.959 . S
C1115 C1113 1.561 1_655 S
C1116 C1113 1.526 . S
C1116 C1117 1.396 . S
C1116 C1121 1.390 . S
C1117 C1111 1.465 1_455 S
C1117 C1116 1.396 . S
C1117 C1118 1.399 . S
C1118 H1104 0.929 . S
C1118 C1117 1.399 . S
C1118 C1119 1.385 . S
C1119 H1105 0.931 . S
C1119 C1118 1.385 . S
C1119 C1120 1.389 . S
C1120 C1119 1.389 . S
C1120 C1121 1.387 . S
C1121 H1106 0.930 . S
C1121 C1116 1.390 . S
C1121 C1120 1.387 . S
H1122 C1134 0.930 . S
H1123 C1136 0.930 . S
H1124 C1137 0.930 . S
H1125 C1141 0.959 . S
H1126 C1141 0.959 1_545 S
H1127 C1141 0.961 . S
H1128 C1142 0.960 1_565 S
H1129 C1142 0.961 . S
H1130 C1142 0.959 . S
H1131 C1145 0.929 . S
H1132 C1146 0.931 . S
H1133 C1148 0.930 . S
C1134 H1122 0.930 . S
C1134 C1135 1.399 . S
C1134 C1139 1.399 . S
C1135 C1134 1.399 . S
C1135 C1136 1.376 . S
C1136 H1123 0.930 . S
C1136 C1135 1.376 . S
C1136 C1137 1.388 . S
C1137 H1124 0.930 . S
C1137 C1136 1.388 . S
C1137 C1138 1.390 . S
C1138 C1137 1.390 . S
C1138 C1139 1.394 . S
C1138 C1144 1.465 1_565 S
C1139 C1134 1.399 . S
C1139 C1138 1.394 . S
C1139 C1140 1.534 . S
C1140 C1139 1.534 . S
C1140 C1141 1.505 . S
C1140 C1142 1.559 1_565 S
C1140 C1143 1.507 1_565 S
C1141 H1125 0.959 . S
C1141 H1126 0.959 1_565 S
C1141 H1127 0.961 . S
C1141 C1140 1.505 . S
C1142 H1128 0.960 1_545 S
C1142 H1129 0.961 . S
C1142 H1130 0.959 . S
C1142 C1140 1.559 1_545 S
C1143 C1140 1.507 1_545 S
C1143 C1144 1.396 . S
C1143 C1148 1.390 . S
C1144 C1138 1.465 1_545 S
C1144 C1143 1.396 . S
C1144 C1145 1.399 . S
C1145 H1131 0.929 . S
C1145 C1144 1.399 . S
C1145 C1146 1.385 . S
C1146 H1132 0.931 . S
C1146 C1145 1.385 . S
C1146 C1147 1.389 . S
C1147 C1146 1.389 . S
C1147 C1148 1.387 . S
C1148 H1133 0.930 . S
C1148 C1143 1.390 . S
C1148 C1147 1.387 . S
H1149 C1161 0.930 . S
H1150 C1163 0.930 . S
H1151 C1164 0.930 . S
H1152 C1168 0.959 . S
H1153 C1168 0.959 . S
H1154 C1168 0.961 1_655 S
H1155 C1169 0.960 . S
H1156 C1169 0.961 1_455 S
H1157 C1169 0.959 . S
H1158 C1172 0.929 . S
H1159 C1173 0.931 . S
H1160 C1175 0.930 . S
C1161 H1149 0.930 . S
C1161 C1162 1.399 . S
C1161 C1166 1.399 . S
C1162 C1161 1.399 . S
C1162 C1163 1.376 . S
C1163 H1150 0.930 . S
C1163 C1162 1.376 . S
C1163 C1164 1.388 . S
C1164 H1151 0.930 . S
C1164 C1163 1.388 . S
C1164 C1165 1.390 . S
C1165 C1164 1.390 . S
C1165 C1166 1.394 . S
C1165 C1171 1.465 1_655 S
C1166 C1161 1.399 . S
C1166 C1165 1.394 . S
C1166 C1167 1.509 1_655 S
C1167 C1166 1.509 1_455 S
C1167 C1168 1.503 . S
C1167 C1169 1.560 1_455 S
C1167 C1170 1.533 . S
C1168 H1152 0.959 . S
C1168 H1153 0.959 . S
C1168 H1154 0.961 1_455 S
C1168 C1167 1.503 . S
C1169 H1155 0.960 . S
C1169 H1156 0.961 1_655 S
C1169 H1157 0.959 . S
C1169 C1167 1.560 1_655 S
C1170 C1167 1.533 . S
C1170 C1171 1.396 . S
C1170 C1175 1.390 . S
C1171 C1165 1.465 1_455 S
C1171 C1170 1.396 . S
C1171 C1172 1.399 . S
C1172 H1158 0.929 . S
C1172 C1171 1.399 . S
C1172 C1173 1.385 . S
C1173 H1159 0.931 . S
C1173 C1172 1.385 . S
C1173 C1174 1.389 . S
C1174 C1173 1.389 . S
C1174 C1175 1.387 . S
C1175 H1160 0.930 . S
C1175 C1170 1.390 . S
C1175 C1174 1.387 . S
H1176 C1188 0.930 . S
H1177 C1190 0.930 . S
H1178 C1191 0.930 . S
H1179 C1195 0.959 . S
H1180 C1195 0.959 1_554 S
H1181 C1195 0.961 . S
H1182 C1196 0.960 . S
H1183 C1196 0.961 1_554 S
H1184 C1196 0.959 . S
H1185 C1199 0.929 . S
H1186 C1200 0.931 . S
H1187 C1202 0.930 . S
C1188 H1176 0.930 . S
C1188 C1189 1.399 . S
C1188 C1193 1.399 . S
C1189 C1188 1.399 . S
C1189 C1190 1.376 . S
C1190 H1177 0.930 . S
C1190 C1189 1.376 . S
C1190 C1191 1.388 . S
C1191 H1178 0.930 . S
C1191 C1190 1.388 . S
C1191 C1192 1.390 . S
C1192 C1191 1.390 . S
C1192 C1193 1.394 . S
C1192 C1198 1.465 1_556 S
C1193 C1188 1.399 . S
C1193 C1192 1.394 . S
C1193 C1194 1.516 . S
C1194 C1193 1.516 . S
C1194 C1195 1.502 . S
C1194 C1196 1.561 . S
C1194 C1197 1.526 1_556 S
C1195 H1179 0.959 . S
C1195 H1180 0.959 1_556 S
C1195 H1181 0.961 . S
C1195 C1194 1.502 . S
C1196 H1182 0.960 . S
C1196 H1183 0.961 1_556 S
C1196 H1184 0.959 . S
C1196 C1194 1.561 . S
C1197 C1194 1.526 1_554 S
C1197 C1198 1.396 . S
C1197 C1202 1.390 . S
C1198 C1192 1.465 1_554 S
C1198 C1197 1.396 . S
C1198 C1199 1.399 . S
C1199 H1185 0.929 . S
C1199 C1198 1.399 . S
C1199 C1200 1.385 . S
C1200 H1186 0.931 . S
C1200 C1199 1.385 . S
C1200 C1201 1.389 . S
C1201 C1200 1.389 . S
C1201 C1202 1.387 . S
C1202 H1187 0.930 . S
C1202 C1197 1.390 . S
C1202 C1201 1.387 . S
H1203 C1215 0.930 . S
H1204 C1217 0.930 . S
H1205 C1218 0.930 . S
H1206 C1222 0.959 . S
H1207 C1222 0.959 . S
H1208 C1222 0.961 1_556 S
H1209 C1223 0.960 . S
H1210 C1223 0.961 1_554 S
H1211 C1223 0.959 . S
H1212 C1226 0.929 . S
H1213 C1227 0.931 . S
H1214 C1229 0.930 . S
C1215 H1203 0.930 . S
C1215 C1216 1.399 . S
C1215 C1220 1.399 . S
C1216 C1215 1.399 . S
C1216 C1217 1.376 . S
C1217 H1204 0.930 . S
C1217 C1216 1.376 . S
C1217 C1218 1.388 . S
C1218 H1205 0.930 . S
C1218 C1217 1.388 . S
C1218 C1219 1.390 . S
C1219 C1218 1.390 . S
C1219 C1220 1.394 . S
C1219 C1225 1.465 1_556 S
C1220 C1215 1.399 . S
C1220 C1219 1.394 . S
C1220 C1221 1.516 1_556 S
C1221 C1220 1.516 1_554 S
C1221 C1222 1.502 . S
C1221 C1223 1.561 1_554 S
C1221 C1224 1.526 . S
C1222 H1206 0.959 . S
C1222 H1207 0.959 . S
C1222 H1208 0.961 1_554 S
C1222 C1221 1.502 . S
C1223 H1209 0.960 . S
C1223 H1210 0.961 1_556 S
C1223 H1211 0.959 . S
C1223 C1221 1.561 1_556 S
C1224 C1221 1.526 . S
C1224 C1225 1.396 . S
C1224 C1229 1.390 . S
C1225 C1219 1.465 1_554 S
C1225 C1224 1.396 . S
C1225 C1226 1.399 . S
C1226 H1212 0.929 . S
C1226 C1225 1.399 . S
C1226 C1227 1.385 . S
C1227 H1213 0.931 . S
C1227 C1226 1.385 . S
C1227 C1228 1.389 . S
C1228 C1227 1.389 . S
C1228 C1229 1.387 . S
C1229 H1214 0.930 . S
C1229 C1224 1.390 . S
C1229 C1228 1.387 . S
H1230 C1242 0.930 . S
H1231 C1244 0.930 . S
H1232 C1245 0.930 . S
H1233 C1249 0.964 . S
H1234 C1249 0.920 1_554 S
H1235 C1249 1.002 . S
H1236 C1250 0.960 1_556 S
H1237 C1250 0.961 . S
H1238 C1250 0.959 . S
H1239 C1253 0.929 . S
H1240 C1254 0.931 . S
H1241 C1256 0.930 . S
C1242 H1230 0.930 . S
C1242 C1243 1.399 . S
C1242 C1247 1.399 . S
C1243 C1242 1.399 . S
C1243 C1244 1.376 . S
C1244 H1231 0.930 . S
C1244 C1243 1.376 . S
C1244 C1245 1.388 . S
C1245 H1232 0.930 . S
C1245 C1244 1.388 . S
C1245 C1246 1.390 . S
C1246 C1245 1.390 . S
C1246 C1247 1.394 . S
C1246 C1252 1.465 1_556 S
C1247 C1242 1.399 . S
C1247 C1246 1.394 . S
C1247 C1248 1.516 1_556 S
C1248 C1247 1.516 1_554 S
C1248 C1249 1.499 1_554 S
C1248 C1250 1.561 . S
C1248 C1251 1.526 . S
C1249 H1233 0.964 . S
C1249 H1234 0.920 1_556 S
C1249 H1235 1.002 . S
C1249 C1248 1.499 1_556 S
C1250 H1236 0.960 1_554 S
C1250 H1237 0.961 . S
C1250 H1238 0.959 . S
C1250 C1248 1.561 . S
C1251 C1248 1.526 . S
C1251 C1252 1.396 . S
C1251 C1256 1.390 . S
C1252 C1246 1.465 1_554 S
C1252 C1251 1.396 . S
C1252 C1253 1.399 . S
C1253 H1239 0.929 . S
C1253 C1252 1.399 . S
C1253 C1254 1.385 . S
C1254 H1240 0.931 . S
C1254 C1253 1.385 . S
C1254 C1255 1.389 . S
C1255 C1254 1.389 . S
C1255 C1256 1.387 . S
C1256 H1241 0.930 . S
C1256 C1251 1.390 . S
C1256 C1255 1.387 . S
H1257 C1269 0.930 . S
H1258 C1271 0.930 . S
H1259 C1272 0.930 . S
H1260 C1276 0.959 . S
H1261 C1276 0.959 . S
H1262 C1276 0.961 1_556 S
H1263 C1277 0.960 . S
H1264 C1277 0.961 1_554 S
H1265 C1277 0.959 . S
H1266 C1280 0.929 . S
H1267 C1281 0.931 . S
H1268 C1283 0.930 . S
C1269 H1257 0.930 . S
C1269 C1270 1.399 . S
C1269 C1274 1.399 . S
C1270 C1269 1.399 . S
C1270 C1271 1.376 . S
C1271 H1258 0.930 . S
C1271 C1270 1.376 . S
C1271 C1272 1.388 . S
C1272 H1259 0.930 . S
C1272 C1271 1.388 . S
C1272 C1273 1.390 . S
C1273 C1272 1.390 . S
C1273 C1274 1.394 . S
C1273 C1279 1.465 1_556 S
C1274 C1269 1.399 . S
C1274 C1273 1.394 . S
C1274 C1275 1.516 1_556 S
C1275 C1274 1.516 1_554 S
C1275 C1276 1.502 . S
C1275 C1277 1.561 1_554 S
C1275 C1278 1.526 . S
C1276 H1260 0.959 . S
C1276 H1261 0.959 . S
C1276 H1262 0.961 1_554 S
C1276 C1275 1.502 . S
C1277 H1263 0.960 . S
C1277 H1264 0.961 1_556 S
C1277 H1265 0.959 . S
C1277 C1275 1.561 1_556 S
C1278 C1275 1.526 . S
C1278 C1279 1.396 . S
C1278 C1283 1.390 . S
C1279 C1273 1.465 1_554 S
C1279 C1278 1.396 . S
C1279 C1280 1.399 . S
C1280 H1266 0.929 . S
C1280 C1279 1.399 . S
C1280 C1281 1.385 . S
C1281 H1267 0.931 . S
C1281 C1280 1.385 . S
C1281 C1282 1.389 . S
C1282 C1281 1.389 . S
C1282 C1283 1.387 . S
C1283 H1268 0.930 . S
C1283 C1278 1.390 . S
C1283 C1282 1.387 . S
H1284 C1296 0.930 . S
H1285 C1298 0.930 . S
H1286 C1299 0.930 . S
H1287 C1303 0.959 . S
H1288 C1303 0.959 . S
H1289 C1303 0.961 . S
H1290 C1304 0.960 . S
H1291 C1304 0.961 . S
H1292 C1304 0.959 . S
H1293 C1307 0.929 . S
H1294 C1308 0.931 . S
H1295 C1310 0.930 . S
C1296 H1284 0.930 . S
C1296 C1297 1.399 . S
C1296 C1301 1.399 . S
C1297 C1296 1.399 . S
C1297 C1298 1.376 . S
C1298 H1285 0.930 . S
C1298 C1297 1.376 . S
C1298 C1299 1.388 . S
C1299 H1286 0.930 . S
C1299 C1298 1.388 . S
C1299 C1300 1.390 . S
C1300 C1299 1.390 . S
C1300 C1301 1.394 . S
C1300 C1306 1.465 . S
C1301 C1296 1.399 . S
C1301 C1300 1.394 . S
C1301 C1302 1.516 . S
C1302 C1301 1.516 . S
C1302 C1303 1.502 . S
C1302 C1304 1.561 . S
C1302 C1305 1.526 . S
C1303 H1287 0.959 . S
C1303 H1288 0.959 . S
C1303 H1289 0.961 . S
C1303 C1302 1.502 . S
C1304 H1290 0.960 . S
C1304 H1291 0.961 . S
C1304 H1292 0.959 . S
C1304 C1302 1.561 . S
C1305 C1302 1.526 . S
C1305 C1306 1.396 . S
C1305 C1310 1.390 . S
C1306 C1300 1.465 . S
C1306 C1305 1.396 . S
C1306 C1307 1.399 . S
C1307 H1293 0.929 . S
C1307 C1306 1.399 . S
C1307 C1308 1.385 . S
C1308 H1294 0.931 . S
C1308 C1307 1.385 . S
C1308 C1309 1.389 . S
C1309 C1308 1.389 . S
C1309 C1310 1.387 . S
C1310 H1295 0.930 . S
C1310 C1305 1.390 . S
C1310 C1309 1.387 . S
H1311 C1323 0.930 . S
H1312 C1325 0.930 . S
H1313 C1326 0.930 . S
H1314 C1330 0.959 . S
H1315 C1330 0.959 . S
H1316 C1330 0.961 . S
H1317 C1331 0.960 . S
H1318 C1331 0.961 . S
H1319 C1331 0.959 . S
H1320 C1334 0.929 . S
H1321 C1335 0.931 . S
H1322 C1337 0.930 . S
C1323 H1311 0.930 . S
C1323 C1324 1.399 . S
C1323 C1328 1.399 . S
C1324 C1323 1.399 . S
C1324 C1325 1.376 . S
C1325 H1312 0.930 . S
C1325 C1324 1.376 . S
C1325 C1326 1.388 . S
C1326 H1313 0.930 . S
C1326 C1325 1.388 . S
C1326 C1327 1.390 . S
C1327 C1326 1.390 . S
C1327 C1328 1.394 . S
C1327 C1333 1.465 . S
C1328 C1323 1.399 . S
C1328 C1327 1.394 . S
C1328 C1329 1.516 . S
C1329 C1328 1.516 . S
C1329 C1330 1.502 . S
C1329 C1331 1.561 . S
C1329 C1332 1.526 . S
C1330 H1314 0.959 . S
C1330 H1315 0.959 . S
C1330 H1316 0.961 . S
C1330 C1329 1.502 . S
C1331 H1317 0.960 . S
C1331 H1318 0.961 . S
C1331 H1319 0.959 . S
C1331 C1329 1.561 . S
C1332 C1329 1.526 . S
C1332 C1333 1.396 . S
C1332 C1337 1.390 . S
C1333 C1327 1.465 . S
C1333 C1332 1.396 . S
C1333 C1334 1.399 . S
C1334 H1320 0.929 . S
C1334 C1333 1.399 . S
C1334 C1335 1.385 . S
C1335 H1321 0.931 . S
C1335 C1334 1.385 . S
C1335 C1336 1.389 . S
C1336 C1335 1.389 . S
C1336 C1337 1.387 . S
C1337 H1322 0.930 . S
C1337 C1332 1.390 . S
C1337 C1336 1.387 . S
H1338 C1350 0.930 . S
H1339 C1352 0.930 . S
H1340 C1353 0.930 . S
H1341 C1357 0.959 . S
H1342 C1357 0.959 . S
H1343 C1357 0.961 . S
H1344 C1358 0.960 . S
H1345 C1358 0.961 . S
H1346 C1358 0.959 . S
H1347 C1361 0.929 . S
H1348 C1362 0.931 . S
H1349 C1364 0.930 . S
C1350 H1338 0.930 . S
C1350 C1351 1.399 . S
C1350 C1355 1.399 . S
C1351 C1350 1.399 . S
C1351 C1352 1.376 . S
C1352 H1339 0.930 . S
C1352 C1351 1.376 . S
C1352 C1353 1.388 . S
C1353 H1340 0.930 . S
C1353 C1352 1.388 . S
C1353 C1354 1.390 . S
C1354 C1353 1.390 . S
C1354 C1355 1.394 . S
C1354 C1360 1.465 . S
C1355 C1350 1.399 . S
C1355 C1354 1.394 . S
C1355 C1356 1.516 . S
C1356 C1355 1.516 . S
C1356 C1357 1.502 . S
C1356 C1358 1.561 . S
C1356 C1359 1.526 . S
C1357 H1341 0.959 . S
C1357 H1342 0.959 . S
C1357 H1343 0.961 . S
C1357 C1356 1.502 . S
C1358 H1344 0.960 . S
C1358 H1345 0.961 . S
C1358 H1346 0.959 . S
C1358 C1356 1.561 . S
C1359 C1356 1.526 . S
C1359 C1360 1.396 . S
C1359 C1364 1.390 . S
C1360 C1354 1.465 . S
C1360 C1359 1.396 . S
C1360 C1361 1.399 . S
C1361 H1347 0.929 . S
C1361 C1360 1.399 . S
C1361 C1362 1.385 . S
C1362 H1348 0.931 . S
C1362 C1361 1.385 . S
C1362 C1363 1.389 . S
C1363 C1362 1.389 . S
C1363 C1364 1.387 . S
C1364 H1349 0.930 . S
C1364 C1359 1.390 . S
C1364 C1363 1.387 . S
H1365 C1377 0.930 . S
H1366 C1379 0.930 . S
H1367 C1380 0.930 . S
H1368 C1384 0.959 . S
H1369 C1384 0.959 . S
H1370 C1384 0.961 . S
H1371 C1385 0.960 . S
H1372 C1385 0.961 . S
H1373 C1385 0.959 . S
H1374 C1388 0.929 . S
H1375 C1389 0.931 . S
H1376 C1391 0.930 . S
C1377 H1365 0.930 . S
C1377 C1378 1.399 . S
C1377 C1382 1.399 . S
C1378 C1377 1.399 . S
C1378 C1379 1.376 . S
C1379 H1366 0.930 . S
C1379 C1378 1.376 . S
C1379 C1380 1.388 . S
C1380 H1367 0.930 . S
C1380 C1379 1.388 . S
C1380 C1381 1.390 . S
C1381 C1380 1.390 . S
C1381 C1382 1.394 . S
C1381 C1387 1.465 . S
C1382 C1377 1.399 . S
C1382 C1381 1.394 . S
C1382 C1383 1.516 . S
C1383 C1382 1.516 . S
C1383 C1384 1.502 . S
C1383 C1385 1.561 . S
C1383 C1386 1.526 . S
C1384 H1368 0.959 . S
C1384 H1369 0.959 . S
C1384 H1370 0.961 . S
C1384 C1383 1.502 . S
C1385 H1371 0.960 . S
C1385 H1372 0.961 . S
C1385 H1373 0.959 . S
C1385 C1383 1.561 . S
C1386 C1383 1.526 . S
C1386 C1387 1.396 . S
C1386 C1391 1.390 . S
C1387 C1381 1.465 . S
C1387 C1386 1.396 . S
C1387 C1388 1.399 . S
C1388 H1374 0.929 . S
C1388 C1387 1.399 . S
C1388 C1389 1.385 . S
C1389 H1375 0.931 . S
C1389 C1388 1.385 . S
C1389 C1390 1.389 . S
C1390 C1389 1.389 . S
C1390 C1391 1.387 . S
C1391 H1376 0.930 . S
C1391 C1386 1.390 . S
C1391 C1390 1.387 . S
H1392 C1404 0.930 . S
H1393 C1406 0.930 . S
H1394 C1407 0.930 . S
H1395 C1411 0.959 . S
H1396 C1411 0.959 . S
H1397 C1411 0.961 . S
H1398 C1412 0.960 . S
H1399 C1412 0.961 . S
H1400 C1412 0.959 . S
H1401 C1415 0.929 . S
H1402 C1416 0.931 . S
H1403 C1418 0.930 . S
C1404 H1392 0.930 . S
C1404 C1405 1.399 . S
C1404 C1409 1.399 . S
C1405 C1404 1.399 . S
C1405 C1406 1.376 . S
C1406 H1393 0.930 . S
C1406 C1405 1.376 . S
C1406 C1407 1.388 . S
C1407 H1394 0.930 . S
C1407 C1406 1.388 . S
C1407 C1408 1.390 . S
C1408 C1407 1.390 . S
C1408 C1409 1.394 . S
C1408 C1414 1.465 . S
C1409 C1404 1.399 . S
C1409 C1408 1.394 . S
C1409 C1410 1.516 . S
C1410 C1409 1.516 . S
C1410 C1411 1.502 . S
C1410 C1412 1.561 . S
C1410 C1413 1.526 . S
C1411 H1395 0.959 . S
C1411 H1396 0.959 . S
C1411 H1397 0.961 . S
C1411 C1410 1.502 . S
C1412 H1398 0.960 . S
C1412 H1399 0.961 . S
C1412 H1400 0.959 . S
C1412 C1410 1.561 . S
C1413 C1410 1.526 . S
C1413 C1414 1.396 . S
C1413 C1418 1.390 . S
C1414 C1408 1.465 . S
C1414 C1413 1.396 . S
C1414 C1415 1.399 . S
C1415 H1401 0.929 . S
C1415 C1414 1.399 . S
C1415 C1416 1.385 . S
C1416 H1402 0.931 . S
C1416 C1415 1.385 . S
C1416 C1417 1.389 . S
C1417 C1416 1.389 . S
C1417 C1418 1.387 . S
C1418 H1403 0.930 . S
C1418 C1413 1.390 . S
C1418 C1417 1.387 . S
H1419 C1431 0.930 . S
H1420 C1433 0.930 . S
H1421 C1434 0.930 . S
H1422 C1438 0.959 . S
H1423 C1438 0.959 . S
H1424 C1438 0.961 . S
H1425 C1439 0.960 . S
H1426 C1439 0.961 . S
H1427 C1439 0.959 . S
H1428 C1442 0.929 . S
H1429 C1443 0.931 . S
H1430 C1445 0.930 . S
C1431 H1419 0.930 . S
C1431 C1432 1.399 . S
C1431 C1436 1.399 . S
C1432 C1431 1.399 . S
C1432 C1433 1.376 . S
C1433 H1420 0.930 . S
C1433 C1432 1.376 . S
C1433 C1434 1.388 . S
C1434 H1421 0.930 . S
C1434 C1433 1.388 . S
C1434 C1435 1.390 . S
C1435 C1434 1.390 . S
C1435 C1436 1.394 . S
C1435 C1441 1.465 . S
C1436 C1431 1.399 . S
C1436 C1435 1.394 . S
C1436 C1437 1.516 . S
C1437 C1436 1.516 . S
C1437 C1438 1.502 . S
C1437 C1439 1.561 . S
C1437 C1440 1.526 . S
C1438 H1422 0.959 . S
C1438 H1423 0.959 . S
C1438 H1424 0.961 . S
C1438 C1437 1.502 . S
C1439 H1425 0.960 . S
C1439 H1426 0.961 . S
C1439 H1427 0.959 . S
C1439 C1437 1.561 . S
C1440 C1437 1.526 . S
C1440 C1441 1.396 . S
C1440 C1445 1.390 . S
C1441 C1435 1.465 . S
C1441 C1440 1.396 . S
C1441 C1442 1.399 . S
C1442 H1428 0.929 . S
C1442 C1441 1.399 . S
C1442 C1443 1.385 . S
C1443 H1429 0.931 . S
C1443 C1442 1.385 . S
C1443 C1444 1.389 . S
C1444 C1443 1.389 . S
C1444 C1445 1.387 . S
C1445 H1430 0.930 . S
C1445 C1440 1.390 . S
C1445 C1444 1.387 . S
H1446 C1458 0.930 . S
H1447 C1460 0.930 . S
H1448 C1461 0.930 . S
H1449 C1465 0.959 . S
H1450 C1465 0.959 . S
H1451 C1465 0.961 . S
H1452 C1466 0.960 . S
H1453 C1466 0.961 . S
H1454 C1466 0.959 . S
H1455 C1469 0.929 . S
H1456 C1470 0.931 . S
H1457 C1472 0.930 . S
C1458 H1446 0.930 . S
C1458 C1459 1.399 . S
C1458 C1463 1.399 . S
C1459 C1458 1.399 . S
C1459 C1460 1.376 . S
C1460 H1447 0.930 . S
C1460 C1459 1.376 . S
C1460 C1461 1.388 . S
C1461 H1448 0.930 . S
C1461 C1460 1.388 . S
C1461 C1462 1.390 . S
C1462 C1461 1.390 . S
C1462 C1463 1.394 . S
C1462 C1468 1.465 . S
C1463 C1458 1.399 . S
C1463 C1462 1.394 . S
C1463 C1464 1.516 . S
C1464 C1463 1.516 . S
C1464 C1465 1.502 . S
C1464 C1466 1.561 . S
C1464 C1467 1.526 . S
C1465 H1449 0.959 . S
C1465 H1450 0.959 . S
C1465 H1451 0.961 . S
C1465 C1464 1.502 . S
C1466 H1452 0.960 . S
C1466 H1453 0.961 . S
C1466 H1454 0.959 . S
C1466 C1464 1.561 . S
C1467 C1464 1.526 . S
C1467 C1468 1.396 . S
C1467 C1472 1.390 . S
C1468 C1462 1.465 . S
C1468 C1467 1.396 . S
C1468 C1469 1.399 . S
C1469 H1455 0.929 . S
C1469 C1468 1.399 . S
C1469 C1470 1.385 . S
C1470 H1456 0.931 . S
C1470 C1469 1.385 . S
C1470 C1471 1.389 . S
C1471 C1470 1.389 . S
C1471 C1472 1.387 . S
C1472 H1457 0.930 . S
C1472 C1467 1.390 . S
C1472 C1471 1.387 . S
H1473 C1485 0.930 . S
H1474 C1487 0.930 . S
H1475 C1488 0.930 . S
H1476 C1492 0.959 . S
H1477 C1492 0.959 . S
H1478 C1492 0.961 . S
H1479 C1493 0.960 . S
H1480 C1493 0.961 . S
H1481 C1493 0.959 . S
H1482 C1496 0.929 . S
H1483 C1497 0.931 . S
H1484 C1499 0.930 . S
C1485 H1473 0.930 . S
C1485 C1486 1.399 . S
C1485 C1490 1.399 . S
C1486 C1485 1.399 . S
C1486 C1487 1.376 . S
C1487 H1474 0.930 . S
C1487 C1486 1.376 . S
C1487 C1488 1.388 . S
C1488 H1475 0.930 . S
C1488 C1487 1.388 . S
C1488 C1489 1.390 . S
C1489 C1488 1.390 . S
C1489 C1490 1.394 . S
C1489 C1495 1.465 . S
C1490 C1485 1.399 . S
C1490 C1489 1.394 . S
C1490 C1491 1.516 . S
C1491 C1490 1.516 . S
C1491 C1492 1.502 . S
C1491 C1493 1.561 . S
C1491 C1494 1.526 . S
C1492 H1476 0.959 . S
C1492 H1477 0.959 . S
C1492 H1478 0.961 . S
C1492 C1491 1.502 . S
C1493 H1479 0.960 . S
C1493 H1480 0.961 . S
C1493 H1481 0.959 . S
C1493 C1491 1.561 . S
C1494 C1491 1.526 . S
C1494 C1495 1.396 . S
C1494 C1499 1.390 . S
C1495 C1489 1.465 . S
C1495 C1494 1.396 . S
C1495 C1496 1.399 . S
C1496 H1482 0.929 . S
C1496 C1495 1.399 . S
C1496 C1497 1.385 . S
C1497 H1483 0.931 . S
C1497 C1496 1.385 . S
C1497 C1498 1.389 . S
C1498 C1497 1.389 . S
C1498 C1499 1.387 . S
C1499 H1484 0.930 . S
C1499 C1494 1.390 . S
C1499 C1498 1.387 . S
H1500 C1512 0.930 . S
H1501 C1514 0.930 . S
H1502 C1515 0.930 . S
H1503 C1519 0.959 . S
H1504 C1519 0.959 . S
H1505 C1519 0.961 . S
H1506 C1520 0.960 . S
H1507 C1520 0.961 . S
H1508 C1520 0.959 . S
H1509 C1523 0.929 . S
H1510 C1524 0.931 . S
H1511 C1526 0.930 . S
C1512 H1500 0.930 . S
C1512 C1513 1.399 . S
C1512 C1517 1.399 . S
C1513 C1512 1.399 . S
C1513 C1514 1.376 . S
C1514 H1501 0.930 . S
C1514 C1513 1.376 . S
C1514 C1515 1.388 . S
C1515 H1502 0.930 . S
C1515 C1514 1.388 . S
C1515 C1516 1.390 . S
C1516 C1515 1.390 . S
C1516 C1517 1.394 . S
C1516 C1522 1.465 . S
C1517 C1512 1.399 . S
C1517 C1516 1.394 . S
C1517 C1518 1.516 . S
C1518 C1517 1.516 . S
C1518 C1519 1.502 . S
C1518 C1520 1.561 . S
C1518 C1521 1.526 . S
C1519 H1503 0.959 . S
C1519 H1504 0.959 . S
C1519 H1505 0.961 . S
C1519 C1518 1.502 . S
C1520 H1506 0.960 . S
C1520 H1507 0.961 . S
C1520 H1508 0.959 . S
C1520 C1518 1.561 . S
C1521 C1518 1.526 . S
C1521 C1522 1.396 . S
C1521 C1526 1.390 . S
C1522 C1516 1.465 . S
C1522 C1521 1.396 . S
C1522 C1523 1.399 . S
C1523 H1509 0.929 . S
C1523 C1522 1.399 . S
C1523 C1524 1.385 . S
C1524 H1510 0.931 . S
C1524 C1523 1.385 . S
C1524 C1525 1.389 . S
C1525 C1524 1.389 . S
C1525 C1526 1.387 . S
C1526 H1511 0.930 . S
C1526 C1521 1.390 . S
C1526 C1525 1.387 . S
H1527 C1539 0.930 . S
H1528 C1541 0.930 . S
H1529 C1542 0.930 . S
H1530 C1546 0.959 . S
H1531 C1546 0.959 . S
H1532 C1546 0.961 . S
H1533 C1547 0.960 . S
H1534 C1547 0.961 . S
H1535 C1547 0.959 . S
H1536 C1550 0.929 . S
H1537 C1551 0.931 . S
H1538 C1553 0.930 . S
C1539 H1527 0.930 . S
C1539 C1540 1.399 . S
C1539 C1544 1.399 . S
C1540 C1539 1.399 . S
C1540 C1541 1.376 . S
C1541 H1528 0.930 . S
C1541 C1540 1.376 . S
C1541 C1542 1.388 . S
C1542 H1529 0.930 . S
C1542 C1541 1.388 . S
C1542 C1543 1.390 . S
C1543 C1542 1.390 . S
C1543 C1544 1.394 . S
C1543 C1549 1.465 . S
C1544 C1539 1.399 . S
C1544 C1543 1.394 . S
C1544 C1545 1.516 . S
C1545 C1544 1.516 . S
C1545 C1546 1.502 . S
C1545 C1547 1.561 . S
C1545 C1548 1.526 . S
C1546 H1530 0.959 . S
C1546 H1531 0.959 . S
C1546 H1532 0.961 . S
C1546 C1545 1.502 . S
C1547 H1533 0.960 . S
C1547 H1534 0.961 . S
C1547 H1535 0.959 . S
C1547 C1545 1.561 . S
C1548 C1545 1.526 . S
C1548 C1549 1.396 . S
C1548 C1553 1.390 . S
C1549 C1543 1.465 . S
C1549 C1548 1.396 . S
C1549 C1550 1.399 . S
C1550 H1536 0.929 . S
C1550 C1549 1.399 . S
C1550 C1551 1.385 . S
C1551 H1537 0.931 . S
C1551 C1550 1.385 . S
C1551 C1552 1.389 . S
C1552 C1551 1.389 . S
C1552 C1553 1.387 . S
C1553 H1538 0.930 . S
C1553 C1548 1.390 . S
C1553 C1552 1.387 . S
H1554 C1566 0.930 . S
H1555 C1568 0.930 . S
H1556 C1569 0.930 . S
H1557 C1573 0.959 . S
H1558 C1573 0.959 . S
H1559 C1573 0.961 . S
H1560 C1574 0.960 . S
H1561 C1574 0.961 . S
H1562 C1574 0.959 . S
H1563 C1577 0.929 . S
H1564 C1578 0.931 . S
H1565 C1580 0.930 . S
C1566 H1554 0.930 . S
C1566 C1567 1.399 . S
C1566 C1571 1.399 . S
C1567 C1566 1.399 . S
C1567 C1568 1.376 . S
C1568 H1555 0.930 . S
C1568 C1567 1.376 . S
C1568 C1569 1.388 . S
C1569 H1556 0.930 . S
C1569 C1568 1.388 . S
C1569 C1570 1.390 . S
C1570 C1569 1.390 . S
C1570 C1571 1.394 . S
C1570 C1576 1.465 . S
C1571 C1566 1.399 . S
C1571 C1570 1.394 . S
C1571 C1572 1.516 . S
C1572 C1571 1.516 . S
C1572 C1573 1.502 . S
C1572 C1574 1.561 . S
C1572 C1575 1.526 . S
C1573 H1557 0.959 . S
C1573 H1558 0.959 . S
C1573 H1559 0.961 . S
C1573 C1572 1.502 . S
C1574 H1560 0.960 . S
C1574 H1561 0.961 . S
C1574 H1562 0.959 . S
C1574 C1572 1.561 . S
C1575 C1572 1.526 . S
C1575 C1576 1.396 . S
C1575 C1580 1.390 . S
C1576 C1570 1.465 . S
C1576 C1575 1.396 . S
C1576 C1577 1.399 . S
C1577 H1563 0.929 . S
C1577 C1576 1.399 . S
C1577 C1578 1.385 . S
C1578 H1564 0.931 . S
C1578 C1577 1.385 . S
C1578 C1579 1.389 . S
C1579 C1578 1.389 . S
C1579 C1580 1.387 . S
C1580 H1565 0.930 . S
C1580 C1575 1.390 . S
C1580 C1579 1.387 . S
H1581 C1593 0.930 . S
H1582 C1595 0.930 . S
H1583 C1596 0.930 . S
H1584 C1600 0.959 . S
H1585 C1600 0.959 . S
H1586 C1600 0.961 . S
H1587 C1601 0.960 . S
H1588 C1601 0.961 . S
H1589 C1601 0.959 . S
H1590 C1604 0.929 . S
H1591 C1605 0.931 . S
H1592 C1607 0.930 . S
C1593 H1581 0.930 . S
C1593 C1594 1.399 . S
C1593 C1598 1.399 . S
C1594 C1593 1.399 . S
C1594 C1595 1.376 . S
C1595 H1582 0.930 . S
C1595 C1594 1.376 . S
C1595 C1596 1.388 . S
C1596 H1583 0.930 . S
C1596 C1595 1.388 . S
C1596 C1597 1.390 . S
C1597 C1596 1.390 . S
C1597 C1598 1.394 . S
C1597 C1603 1.465 . S
C1598 C1593 1.399 . S
C1598 C1597 1.394 . S
C1598 C1599 1.516 . S
C1599 C1598 1.516 . S
C1599 C1600 1.502 . S
C1599 C1601 1.561 . S
C1599 C1602 1.526 . S
C1600 H1584 0.959 . S
C1600 H1585 0.959 . S
C1600 H1586 0.961 . S
C1600 C1599 1.502 . S
C1601 H1587 0.960 . S
C1601 H1588 0.961 . S
C1601 H1589 0.959 . S
C1601 C1599 1.561 . S
C1602 C1599 1.526 . S
C1602 C1603 1.396 . S
C1602 C1607 1.390 . S
C1603 C1597 1.465 . S
C1603 C1602 1.396 . S
C1603 C1604 1.399 . S
C1604 H1590 0.929 . S
C1604 C1603 1.399 . S
C1604 C1605 1.385 . S
C1605 H1591 0.931 . S
C1605 C1604 1.385 . S
C1605 C1606 1.389 . S
C1606 C1605 1.389 . S
C1606 C1607 1.387 . S
C1607 H1592 0.930 . S
C1607 C1602 1.390 . S
C1607 C1606 1.387 . S
C325 C153 1.504 . S
C337 C3 1.534 . S
C352 C16 1.486 . S
C364 C108 1.495 . S
C379 C31 1.528 . S
C391 C121 1.530 . S
C406 C42 1.523 . S
C418 C134 1.486 . S
C433 C173 1.485 . S
C445 C55 1.484 . S
C460 C68 1.487 . S
C472 C186 1.498 . S
C487 C199 1.493 . S
C499 C81 1.486 . S
C514 C160 1.474 . S
C526 C96 1.511 . S
C541 C75 1.531 . S
C553 C109 1.528 . S
C568 C88 1.511 . S
C580 C122 1.536 . S
C595 C135 1.522 . S
C607 C95 1.486 . S
C622 C62 1.528 . S
C634 C146 1.534 . S
C649 C49 1.469 . S
C661 C161 1.489 . S
C676 C174 1.529 . S
C688 C10 1.530 . S
C703 C187 1.533 . S
C715 C23 1.501 . S
C730 C200 1.496 . S
C742 C30 1.513 . S
C757 C213 1.490 . S
C769 C309 1.504 . S
C784 C264 1.521 . S
C796 C224 1.536 . S
C811 C239 1.489 . S
C823 C231 1.502 . S
C838 C250 1.490 . S
C850 C238 1.503 . S
C865 C257 1.485 . S
C877 C265 1.523 . S
C892 C278 1.488 . S
C904 C290 1.501 . S
C919 C212 1.470 . S
C931 C291 1.504 . S
C946 C277 1.531 . S
C958 C302 1.522 . S
C973 C5 1.606 . S
C985 C83 1.618 . S
C1000 C18 1.615 . S
C1012 C94 1.638 . S
C1027 C29 1.638 . S
C1039 C57 1.622 . S
C1054 C70 1.631 . S
C1066 C44 1.605 . S
C1081 C133 1.638 . S
C1093 C107 1.622 . S
C1108 C120 1.604 . S
C1120 C148 1.622 . S
C1135 C159 1.637 . S
C1147 C185 1.624 . S
C1162 C198 1.606 . S
C1174 C172 1.618 . S
C1189 C226 1.626 . S
C1201 C211 1.604 . S
C1216 C237 1.604 . S
C1228 C304 1.622 . S
C1243 C252 1.634 . S
C1255 C276 1.630 . S
C1270 C263 1.604 . S
C1282 C289 1.622 . S
C1297 C4 1.003 . S
C1309 C69 0.999 . S
C1324 C17 0.990 . S
C1336 C82 0.994 . S
C1351 C36 1.006 . S
C1363 C101 1.002 . S
C1378 C56 1.005 . S
C1390 C43 1.001 . S
C1405 C114 1.005 . S
C1417 C303 1.007 . S
C1432 C127 0.990 . S
C1444 C283 0.993 . S
C1459 C296 1.007 . S
C1471 C140 1.004 . S
C1486 C147 0.993 . S
C1498 C218 0.997 . S
C1513 C270 1.002 . S
C1525 C166 1.005 . S
C1540 C225 0.999 . S
C1552 C179 1.003 . S
C1567 C192 1.001 . S
C1579 C244 1.005 . S
C1594 C251 0.992 . S
C1606 C205 0.996 . S
