# Generated by pormake.
# Topology snz, (6)-cn, num edge types: 1
# Building blocks:
#     Node 0, Type 0, BuildingBlock: HISSIN_clean_sbu_0, # of connection points: 6
#     Node 1, Type 0, BuildingBlock: HISSIN_clean_sbu_0, # of connection points: 6
#     Node 2, Type 0, BuildingBlock: HISSIN_clean_sbu_0, # of connection points: 6
#     Node 3, Type 0, BuildingBlock: HISSIN_clean_sbu_0, # of connection points: 6
#     Node 4, Type 0, BuildingBlock: HISSIN_clean_sbu_0, # of connection points: 6
#     Node 5, Type 0, BuildingBlock: HISSIN_clean_sbu_0, # of connection points: 6
#     Node 6, Type 0, BuildingBlock: HISSIN_clean_sbu_0, # of connection points: 6
#     Node 7, Type 0, BuildingBlock: HISSIN_clean_sbu_0, # of connection points: 6
#     Node 8, Type 0, BuildingBlock: HISSIN_clean_sbu_0, # of connection points: 6
#     Edge 9, Type (0, 0), BuildingBlock: CIFDUS_clean_linker_0, # of connection points: 2
#     Edge 10, Type (0, 0), BuildingBlock: CIFDUS_clean_linker_0, # of connection points: 2
#     Edge 11, Type (0, 0), BuildingBlock: CIFDUS_clean_linker_0, # of connection points: 2
#     Edge 12, Type (0, 0), BuildingBlock: CIFDUS_clean_linker_0, # of connection points: 2
#     Edge 13, Type (0, 0), BuildingBlock: CIFDUS_clean_linker_0, # of connection points: 2
#     Edge 14, Type (0, 0), BuildingBlock: CIFDUS_clean_linker_0, # of connection points: 2
#     Edge 15, Type (0, 0), BuildingBlock: CIFDUS_clean_linker_0, # of connection points: 2
#     Edge 16, Type (0, 0), BuildingBlock: CIFDUS_clean_linker_0, # of connection points: 2
#     Edge 17, Type (0, 0), BuildingBlock: CIFDUS_clean_linker_0, # of connection points: 2
#     Edge 18, Type (0, 0), BuildingBlock: CIFDUS_clean_linker_0, # of connection points: 2
#     Edge 19, Type (0, 0), BuildingBlock: CIFDUS_clean_linker_0, # of connection points: 2
#     Edge 20, Type (0, 0), BuildingBlock: CIFDUS_clean_linker_0, # of connection points: 2
#     Edge 21, Type (0, 0), BuildingBlock: CIFDUS_clean_linker_0, # of connection points: 2
#     Edge 22, Type (0, 0), BuildingBlock: CIFDUS_clean_linker_0, # of connection points: 2
#     Edge 23, Type (0, 0), BuildingBlock: CIFDUS_clean_linker_0, # of connection points: 2
#     Edge 24, Type (0, 0), BuildingBlock: CIFDUS_clean_linker_0, # of connection points: 2
#     Edge 25, Type (0, 0), BuildingBlock: CIFDUS_clean_linker_0, # of connection points: 2
#     Edge 26, Type (0, 0), BuildingBlock: CIFDUS_clean_linker_0, # of connection points: 2
#     Edge 27, Type (0, 0), BuildingBlock: CIFDUS_clean_linker_0, # of connection points: 2
#     Edge 28, Type (0, 0), BuildingBlock: CIFDUS_clean_linker_0, # of connection points: 2
#     Edge 29, Type (0, 0), BuildingBlock: CIFDUS_clean_linker_0, # of connection points: 2
#     Edge 30, Type (0, 0), BuildingBlock: CIFDUS_clean_linker_0, # of connection points: 2
#     Edge 31, Type (0, 0), BuildingBlock: CIFDUS_clean_linker_0, # of connection points: 2
#     Edge 32, Type (0, 0), BuildingBlock: CIFDUS_clean_linker_0, # of connection points: 2
#     Edge 33, Type (0, 0), BuildingBlock: CIFDUS_clean_linker_0, # of connection points: 2
#     Edge 34, Type (0, 0), BuildingBlock: CIFDUS_clean_linker_0, # of connection points: 2
#     Edge 35, Type (0, 0), BuildingBlock: CIFDUS_clean_linker_0, # of connection points: 2
# Relax obj value: 0.466
# Max RMSD: 0.234
# Mean RMSD: 0.155
data_MOF--net-snz--node1-HISSIN_clean_sbu_0--edge1-CIFDUS_clean_linker_0
_symmetry_space_group_name_H-M    P1
_symmetry_Int_Tables_number       1
_symmetry_cell_setting            triclinic
loop_
_symmetry_equiv_pos_as_xyz
'x, y, z'
_cell_length_a     61.99181
_cell_length_b     48.451593
_cell_length_c     14.640308
_cell_angle_alpha  96.532985
_cell_angle_beta   97.16929
_cell_angle_gamma 121.20414
loop_
_atom_site_label
_atom_site_type_symbol
_atom_site_fract_x
_atom_site_fract_y
_atom_site_fract_z
_atom_type_partial_charge
Eu0 Eu 0.14993 0.50203 0.28098 0.0
Eu1 Eu 0.10422 0.51332 0.24771 0.0
C2 C 0.12478 0.50583 0.46887 0.0
C3 C 0.19056 0.46539 0.34908 0.0
C4 C 0.17365 0.43085 0.32298 0.0
C5 C 0.21911 0.45795 0.4591 0.0
C6 C 0.17965 0.41011 0.36348 0.0
C7 C 0.2132 0.47863 0.4181 0.0
C8 C 0.20263 0.42333 0.43154 0.0
C9 C 0.18558 0.48795 0.30304 0.0
O10 O 0.13838 0.56609 0.26771 0.0
O11 O 0.17166 0.55882 0.30928 0.0
C12 C 0.16314 0.57852 0.29818 0.0
O13 O 0.14485 0.50493 0.11886 0.0
O14 O 0.08842 0.542 0.29479 0.0
O15 O 0.06394 0.49625 0.19163 0.0
O16 O 0.1128 0.51542 0.09494 0.0
C17 C 0.12941 0.50993 1.0596 0.0
O18 O 0.11392 0.44996 0.25742 0.0
O19 O 0.08454 0.45885 0.18149 0.0
O20 O 0.1079 0.5076 0.40719 0.0
O21 O 0.16663 0.47479 0.22948 0.0
O22 O 0.1868 0.51209 0.35788 0.0
O23 O 0.14301 0.50369 0.43587 0.0
C24 C 0.05399 0.53715 0.18884 0.0
C25 C 0.06865 0.56971 0.17587 0.0
C26 C 1.01494 0.5325 0.11276 0.0
C27 C 0.0564 0.58357 0.13159 0.0
C28 C 1.02712 0.51876 0.1573 0.0
C29 C 1.02946 0.56494 0.09913 0.0
C30 C 0.06587 0.52215 0.23887 0.0
C31 C 0.09126 0.43838 0.20265 0.0
H32 H 0.15595 0.41976 0.27012 0.0
H33 H 0.2367 0.46923 0.51251 0.0
H34 H 0.16657 0.38367 0.33942 0.0
H35 H 0.22654 0.50512 0.43981 0.0
H36 H 0.08947 0.5844 0.19984 0.0
H37 H 0.99411 0.51777 0.08914 0.0
H38 H 0.068 0.60853 0.12096 0.0
H39 H 1.01552 0.49373 0.16754 0.0
Eu40 Eu 0.65835 0.52114 1.06023 0.0
Eu41 Eu 0.60821 0.52347 1.04894 0.0
C42 C 0.63206 0.52388 0.84795 0.0
C43 C 0.7265 0.54231 1.04414 0.0
C44 C 0.73134 0.56774 0.99599 0.0
C45 C 0.76919 0.55323 1.0377 0.0
C46 C 0.75496 0.58573 0.96856 0.0
C47 C 0.74558 0.53524 1.06474 0.0
C48 C 0.77423 0.57869 0.98896 0.0
C49 C 0.70191 0.52329 1.07465 0.0
O50 O 0.5913 0.46841 1.04285 0.0
O51 O 0.62611 0.46584 1.02128 0.0
C52 C 0.6013 0.45083 1.02307 0.0
O53 O 0.65136 0.51826 0.21617 0.0
O54 O 0.56834 0.50231 0.97651 0.0
O55 O 0.58658 0.54482 0.09123 0.0
O56 O 0.61653 0.52308 0.21074 0.0
C57 C 0.63465 0.52062 0.26137 0.0
O58 O 0.67444 0.57646 1.07997 0.0
O59 O 0.63885 0.57881 0.08749 0.0
O60 O 0.61454 0.52448 0.892 0.0
O61 O 0.69736 0.53968 0.13774 0.0
O62 O 0.68139 0.50303 1.00881 0.0
O63 O 0.65104 0.52336 0.89976 0.0
C64 C 0.54412 0.50301 0.0849 0.0
C65 C 0.54744 0.48647 0.15248 0.0
C66 C 0.50141 0.48458 0.11143 0.0
C67 C 0.52805 0.46944 0.20022 0.0
C68 C 0.52106 0.50201 1.06429 0.0
C69 C 0.50478 0.46819 0.18001 0.0
C70 C 0.56491 0.52093 1.0365 0.0
C71 C 0.66393 0.59383 0.09453 0.0
H72 H 0.71685 0.57363 0.97949 0.0
H73 H 0.78362 0.54739 1.05617 0.0
H74 H 0.75795 0.60482 0.93017 0.0
H75 H 0.74227 0.51584 0.10232 0.0
H76 H 0.56514 0.48689 0.16879 0.0
H77 H 0.48358 0.48378 0.09383 0.0
H78 H 0.5315 0.45773 0.25402 0.0
H79 H 0.51826 0.51459 1.01187 0.0
Eu80 Eu 0.59826 0.05871 0.87033 0.0
Eu81 Eu 0.65548 0.12303 0.93182 0.0
C82 C 0.62462 0.09129 0.10672 0.0
C83 C 0.53455 0.98789 0.89365 0.0
C84 C 0.5458 0.98631 0.98081 0.0
C85 C 0.49263 0.95941 0.9334 0.0
C86 C 0.53045 0.9715 1.04438 0.0
C87 C 0.50791 0.97402 0.86994 0.0
C88 C 0.50384 0.95859 1.02173 0.0
C89 C 0.55065 1.00889 0.83482 0.0
O90 O 0.65889 0.07861 0.90278 0.0
O91 O 0.62118 0.03894 0.93144 0.0
C92 C 0.64516 0.05037 0.92755 0.0
O93 O 0.60931 0.06449 0.72065 0.0
O94 O 0.69364 0.14869 1.0278 0.0
O95 O 0.6901 0.16408 0.89783 0.0
O96 O 0.64587 0.11625 0.76626 0.0
C97 C 0.62808 0.09108 0.69633 0.0
O98 O 0.5928 0.09985 0.84919 0.0
O99 O 0.62963 0.14505 0.94183 0.0
O100 O 0.64601 0.11445 0.0831 0.0
O101 O 0.55756 0.03953 0.85863 0.0
O102 O 0.56961 1.00599 0.81684 0.0
O103 O 0.60457 0.06951 1.03639 0.0
C104 C 0.7297 0.16573 0.95263 0.0
C105 C 0.73247 0.15558 0.86276 0.0
C106 C 0.77245 0.17604 1.01764 0.0
C107 C 0.75494 0.15579 0.85075 0.0
C108 C 0.75016 0.17598 1.02946 0.0
C109 C 0.7754 0.16588 0.92815 0.0
C110 C 0.7061 0.16599 0.96912 0.0
C111 C 0.60517 0.13044 0.89523 0.0
H112 H 0.56651 0.99776 1.00127 0.0
H113 H 0.47211 0.94948 0.91442 0.0
H114 H 0.53951 0.97152 0.1127 0.0
H115 H 0.49909 0.97581 0.804 0.0
H116 H 0.71721 0.14731 0.80152 0.0
H117 H 0.78762 0.18455 1.07933 0.0
H118 H 0.75603 0.14743 0.78069 0.0
H119 H 0.74895 0.18411 0.0996 0.0
Eu120 Eu 0.80111 0.86189 0.30166 0.0
Eu121 Eu 0.75372 0.8711 0.28849 0.0
C122 C 0.77729 0.86323 0.50019 0.0
C123 C 0.85052 0.83531 0.33622 0.0
C124 C 0.84097 0.81539 0.40193 0.0
C125 C 0.88181 0.82005 0.32664 0.0
C126 C 0.8522 0.79828 0.43113 0.0
C127 C 0.87064 0.83708 0.29775 0.0
C128 C 0.87308 0.80101 0.39495 0.0
C129 C 0.84063 0.8554 0.30805 0.0
O130 O 0.78821 0.92457 0.32432 0.0
O131 O 0.82177 0.91736 0.35574 0.0
C132 C 0.81287 0.93675 0.35709 0.0
O133 O 0.79511 0.86712 0.14224 0.0
O134 O 0.73591 0.89751 0.3357 0.0
O135 O 0.71498 0.85628 0.21712 0.0
O136 O 0.76014 0.87156 0.13288 0.0
C137 C 0.77707 0.86932 0.08963 0.0
O138 O 0.76781 0.80818 0.27165 0.0
O139 O 0.73356 0.81458 0.26466 0.0
O140 O 0.76063 0.86842 0.44993 0.0
O141 O 0.82116 0.84159 0.23658 0.0
O142 O 0.83868 0.87362 0.37471 0.0
O143 O 0.79287 0.85817 0.45495 0.0
C144 C 0.70761 0.89994 0.21411 0.0
C145 C 0.68759 0.88348 0.13307 0.0
C146 C 0.70892 0.95065 0.20177 0.0
C147 C 0.67813 0.90021 0.08768 0.0
C148 C 0.71839 0.93388 0.24729 0.0
C149 C 0.68835 0.93389 0.12227 0.0
C150 C 0.71572 0.88102 0.26637 0.0
C151 C 0.74278 0.79534 0.25764 0.0
H152 H 0.82529 0.81367 0.43189 0.0
H153 H 0.89753 0.82212 0.29632 0.0
H154 H 0.84517 0.78388 0.48421 0.0
H155 H 0.87805 0.85217 0.24637 0.0
H156 H 0.67881 0.85738 0.10566 0.0
H157 H 0.7171 0.97648 0.23096 0.0
H158 H 0.66254 0.88661 1.02587 0.0
H159 H 0.73376 0.94738 0.30977 0.0
Eu160 Eu 0.29848 0.85104 0.48433 0.0
Eu161 Eu 0.24801 0.85364 0.45207 0.0
C162 C 0.27422 0.85324 0.26257 0.0
C163 C 0.36177 0.86806 0.44462 0.0
C164 C 0.35637 0.87718 0.36146 0.0
C165 C 0.40573 0.89025 0.42591 0.0
C166 C 0.37525 0.89223 0.3101 0.0
C167 C 0.38654 0.87463 0.47676 0.0
C168 C 0.40025 0.89933 0.34223 0.0
C169 C 0.34155 0.85274 0.49804 0.0
O170 O 0.23174 0.79824 0.42814 0.0
O171 O 0.26771 0.7957 0.45571 0.0
C172 C 0.24242 0.78078 0.43206 0.0
O173 O 0.29086 0.85148 0.63979 0.0
O174 O 0.20846 0.83345 0.37548 0.0
O175 O 0.22565 0.87389 0.49552 0.0
O176 O 0.25338 0.85053 0.61214 0.0
C177 C 0.27158 0.85105 0.67318 0.0
O178 O 0.316 0.90628 0.49066 0.0
O179 O 0.28027 0.90888 0.49201 0.0
O180 O 0.25679 0.85674 0.29862 0.0
O181 O 0.33886 0.87324 0.55355 0.0
O182 O 0.3194 0.82791 0.44874 0.0
O183 O 0.29067 0.84994 0.3213 0.0
C184 C 0.18052 0.83476 0.46999 0.0
C185 C 0.18056 0.82643 0.55884 0.0
C186 C 0.13426 0.81157 0.44772 0.0
C187 C 0.1577 0.81122 0.59234 0.0
C188 C 0.15714 0.82687 0.41445 0.0
C189 C 0.13428 0.8039 0.53762 0.0
C190 C 0.20456 0.85181 0.43434 0.0
C191 C 0.30552 0.92382 0.50003 0.0
H192 H 0.33752 0.87277 0.33616 0.0
H193 H 0.4249 0.89567 0.45282 0.0
H194 H 0.37016 0.89817 0.24492 0.0
H195 H 0.39108 0.86801 0.54139 0.0
H196 H 0.19828 0.83187 0.60266 0.0
H197 H 0.11669 0.80655 0.40392 0.0
H198 H 0.15837 0.80515 0.66116 0.0
H199 H 0.15664 0.83292 0.34555 0.0
Eu200 Eu 0.25087 0.25096 0.62806 0.0
Eu201 Eu 0.30923 0.31016 0.66429 0.0
C202 C 0.28185 0.2835 0.85456 0.0
C203 C 0.1765 0.2085 0.60664 0.0
C204 C 0.17589 0.22697 0.68698 0.0
C205 C 0.13094 0.18824 0.5461 0.0
C206 C 0.15305 0.22593 0.69675 0.0
C207 C 0.15368 0.18928 0.53651 0.0
C208 C 0.13005 0.20652 0.62635 0.0
C209 C 0.20021 0.20827 0.59435 0.0
O210 O 0.31302 0.26776 0.61879 0.0
O211 O 0.27519 0.22652 0.64642 0.0
C212 C 0.2992 0.23808 0.63396 0.0
O213 O 0.2589 0.25536 0.47261 0.0
O214 O 0.35028 0.32898 0.68977 0.0
O215 O 0.33768 0.36308 0.70835 0.0
O216 O 0.30014 0.30063 0.49842 0.0
C217 C 0.27862 0.27703 0.43713 0.0
O218 O 0.25001 0.29783 0.64724 0.0
O219 O 0.2877 0.3316 0.60543 0.0
O220 O 0.30201 0.30358 0.81887 0.0
O221 O 0.21247 0.2236 0.53237 0.0
O222 O 0.21634 0.2127 0.66915 0.0
O223 O 0.2598 0.26167 0.79364 0.0
C224 C 0.37365 0.37814 0.63946 0.0
C225 C 0.36395 0.38604 0.56153 0.0
C226 C 0.41406 0.399 0.58927 0.0
C227 C 0.37935 0.40058 0.49814 0.0
C228 C 0.39876 0.38476 0.65298 0.0
C229 C 0.40441 0.40685 0.51125 0.0
C230 C 0.35695 0.35963 0.70082 0.0
C231 C 0.26507 0.3246 0.61726 0.0
H232 H 0.19309 0.24227 0.74241 0.0
H233 H 0.11384 0.1725 0.49063 0.0
H234 H 0.15357 0.24076 0.75917 0.0
H235 H 0.15334 0.17468 0.4739 0.0
H236 H 0.34431 0.38029 0.54836 0.0
H237 H 0.4334 0.40374 0.60066 0.0
H238 H 0.37146 0.40602 0.43755 0.0
H239 H 0.4063 0.37816 0.71161 0.0
Eu240 Eu 0.46432 0.19831 0.68991 0.0
Eu241 Eu 0.44376 0.17725 0.85049 0.0
C242 C 0.41617 0.12193 0.65312 0.0
C243 C 0.48506 0.2397 0.48858 0.0
C244 C 0.45081 0.21727 0.43045 0.0
C245 C 0.50437 0.2644 0.30133 0.0
C246 C 0.44044 0.21676 0.30802 0.0
C247 C 0.51158 0.26294 0.4266 0.0
C248 C 0.46771 0.24207 0.23777 0.0
C249 C 0.49062 0.23375 0.5786 0.0
O250 O 0.48293 0.17943 0.8735 0.0
O251 O 0.48321 0.17044 0.72045 0.0
C252 C 0.49237 0.1714 0.80656 0.0
O253 O 0.49532 0.23699 0.81608 0.0
O254 O 0.43454 0.13814 0.92546 0.0
O255 O 0.42667 0.17586 0.97133 0.0
O256 O 0.46745 0.23403 0.90195 0.0
C257 C 0.49005 0.25208 0.8805 0.0
O258 O 0.42918 0.20342 0.66496 0.0
O259 O 0.41191 0.18455 0.78917 0.0
O260 O 0.41579 0.13062 0.74034 0.0
O261 O 0.48293 0.24484 0.6438 0.0
O262 O 0.48383 0.20327 0.57691 0.0
O263 O 0.43379 0.14405 0.61379 0.0
C264 C 0.44361 0.15817 1.08176 0.0
C265 C 0.4796 0.1808 0.09947 0.0
C266 C 0.44396 0.14901 0.29406 0.0
C267 C 0.49998 0.18904 0.21504 0.0
C268 C 0.42671 0.14334 0.17632 0.0
C269 C 0.48231 0.17165 0.31739 0.0
C270 C 0.42854 0.15154 0.99137 0.0
C271 C 0.411 0.19629 0.71351 0.0
H272 H 0.4363 0.20372 0.46957 0.0
H273 H 0.51968 0.28043 0.26849 0.0
H274 H 0.42022 0.20618 0.27812 0.0
H275 H 0.53146 0.27526 0.46396 0.0
H276 H 0.48887 0.1893 1.04222 0.0
H277 H 0.43338 0.13673 0.34545 0.0
H278 H 0.52045 0.19916 0.22236 0.0
H279 H 0.40584 0.12992 0.16117 0.0
Eu280 Eu 0.9558 0.1715 0.87193 0.0
Eu281 Eu 0.95265 0.20151 0.69413 0.0
C282 C 0.98783 0.25132 0.9014 0.0
C283 C 0.93646 0.10812 1.01937 0.0
C284 C 0.91242 0.08929 0.95525 0.0
C285 C 0.91461 0.09396 0.1477 0.0
C286 C 0.8898 0.07706 0.9897 0.0
C287 C 0.9374 0.10651 0.11445 0.0
C288 C 0.89213 0.08675 0.08652 0.0
C289 C 0.95726 0.13774 0.99621 0.0
O290 O 0.9854 0.19314 0.68264 0.0
O291 O 0.99541 0.19289 0.83708 0.0
C292 C 1.00138 0.19464 0.75407 0.0
O293 O 0.93322 0.12741 0.74788 0.0
O294 O 0.94885 0.24039 0.64919 0.0
O295 O 0.95698 0.20991 0.55305 0.0
O296 O 0.92171 0.14733 0.62994 0.0
C297 C 0.91956 0.12228 0.66425 0.0
O298 O 0.91719 0.16885 0.86791 0.0
O299 O 0.91584 0.19066 0.73828 0.0
O300 O 0.98094 0.24634 0.80967 0.0
O301 O 0.96215 0.134 0.91334 0.0
O302 O 0.95589 0.16375 1.01537 0.0
O303 O 0.97974 0.22626 0.94408 0.0
C304 C 0.9549 0.25362 0.49704 0.0
C305 C 0.96949 0.2556 0.42979 0.0
C306 C 0.92869 0.26494 0.39191 0.0
C307 C 0.96164 0.25849 0.34027 0.0
C308 C 0.93662 0.26234 0.48218 0.0
C309 C 0.93815 0.25679 0.31807 0.0
C310 C 0.95407 0.2348 0.56826 0.0
C311 C 0.90556 0.17815 0.80809 0.0
H312 H 0.91115 0.08926 0.88074 0.0
H313 H 0.91642 0.09896 0.22325 0.0
H314 H 0.87203 0.06894 0.9406 0.0
H315 H 0.95575 0.11993 0.16472 0.0
H316 H 0.98438 0.25014 0.44195 0.0
H317 H 0.91131 0.26533 0.37662 0.0
H318 H 0.97029 0.25397 0.2852 0.0
H319 H 0.92574 0.26197 0.53499 0.0
Eu320 Eu 0.93803 0.6464 0.66417 0.0
Eu321 Eu 0.96229 0.71573 0.81161 0.0
C322 C 0.92744 0.70039 0.61431 0.0
C323 C 0.8973 0.58051 0.45241 0.0
C324 C 0.90641 0.57934 0.3702 0.0
C325 C 0.86427 0.58631 0.36686 0.0
C326 C 0.89625 0.58509 0.2898 0.0
C327 C 0.87479 0.58122 0.44804 0.0
C328 C 0.8765 0.5914 0.29044 0.0
C329 C 0.9151 0.59059 0.54324 0.0
O330 O 0.91987 0.68392 0.81675 0.0
O331 O 0.9177 0.63558 0.78412 0.0
C332 C 0.90774 0.65208 0.81395 0.0
O333 O 0.96817 0.6486 0.76873 0.0
O334 O 0.96775 0.76446 0.83699 0.0
O335 O 0.98299 0.74952 0.94801 0.0
O336 O 0.96986 0.68348 0.89339 0.0
C337 C 0.9743 0.66105 0.85886 0.0
O338 O 0.97243 0.68473 0.61322 0.0
O339 O 0.99595 0.72221 0.75271 0.0
O340 O 0.95043 0.72147 0.66723 0.0
O341 O 0.93866 0.6149 0.54751 0.0
O342 O 0.90678 0.59464 0.61789 0.0
O343 O 0.91608 0.66893 0.61431 0.0
C344 C 0.96091 0.77444 0.98872 0.0
C345 C 0.93497 0.76302 0.95083 0.0
C346 C 0.9508 0.76776 0.14218 0.0
C347 C 0.91679 0.75121 1.00673 0.0
C348 C 0.96907 0.77975 0.08638 0.0
C349 C 0.92441 0.75052 0.10015 0.0
C350 C 0.97635 0.76995 0.92722 0.0
C351 C 0.99448 0.70971 0.66609 0.0
H352 H 0.92361 0.57855 0.37187 0.0
H353 H 0.84861 0.59022 0.36819 0.0
H354 H 0.90626 0.58885 0.23238 0.0
H355 H 0.86701 0.58164 0.51008 0.0
H356 H 0.92801 0.75878 0.87579 0.0
H357 H 0.95699 0.76715 0.2141 0.0
H358 H 0.89646 0.7378 0.97322 0.0
H359 H 0.98894 0.78854 0.117 0.0
H360 H 0.09955 0.5144 0.89597 0.0
H361 H 0.16354 0.5028 0.96743 0.0
H362 H 0.16814 0.50048 0.80375 0.0
H363 H 0.15467 0.50162 0.63257 0.0
H364 H 0.09036 0.51257 0.56051 0.0
H365 H 0.08585 0.51509 0.72436 0.0
C366 C 0.11469 0.51145 0.87709 0.0
C367 C 0.13125 0.50904 0.95083 0.0
C368 C 0.11736 0.50987 0.77837 0.0
C369 C 0.15028 0.50497 0.91789 0.0
C370 C 0.15299 0.50357 0.82182 0.0
C371 C 0.13949 0.5045 0.65137 0.0
C372 C 0.12287 0.50674 0.57752 0.0
C373 C 0.13675 0.50596 0.74998 0.0
C374 C 0.1037 0.51056 0.61022 0.0
C375 C 0.10104 0.51209 0.70637 0.0
H376 H 0.66277 0.52068 0.71506 0.0
H377 H 0.59583 0.52631 0.7206 0.0
H378 H 0.59035 0.52583 0.55184 0.0
H379 H 0.60391 0.52386 0.39434 0.0
H380 H 0.67071 0.51789 0.38872 0.0
H381 H 0.67621 0.51846 0.55751 0.0
C382 C 0.64687 0.52188 0.68053 0.0
C383 C 0.62985 0.52369 0.73729 0.0
C384 C 0.64354 0.52149 0.57892 0.0
C385 C 0.60962 0.52501 0.68467 0.0
C386 C 0.60637 0.5247 0.58563 0.0
C387 C 0.6198 0.52264 0.42886 0.0
C388 C 0.6368 0.52075 0.37206 0.0
C389 C 0.62309 0.52295 0.53046 0.0
C390 C 0.65695 0.51928 0.42465 0.0
C391 C 0.66022 0.51964 0.52372 0.0
H392 H 0.59313 0.0511 0.51191 0.0
H393 H 0.66864 0.13835 0.62896 0.0
H394 H 0.67487 0.14665 0.47062 0.0
H395 H 0.65965 0.13048 0.29133 0.0
H396 H 0.58386 0.04378 0.17404 0.0
H397 H 0.57783 0.03499 0.33229 0.0
C398 C 0.61112 0.07207 0.50416 0.0
C399 C 0.63033 0.09393 0.58909 0.0
C400 C 0.61481 0.07729 0.40855 0.0
C401 C 0.65308 0.12064 0.57029 0.0
C402 C 0.65679 0.12558 0.47732 0.0
C403 C 0.64162 0.10957 0.29893 0.0
C404 C 0.62228 0.08807 0.21392 0.0
C405 C 0.63789 0.10432 0.39448 0.0
C406 C 0.59947 0.06138 0.23269 0.0
C407 C 0.59588 0.05613 0.32564 0.0
H408 H 0.74961 0.87243 0.6383 0.0
H409 H 0.81048 0.85468 0.62279 0.0
H410 H 0.81638 0.85513 0.79123 0.0
H411 H 0.80497 0.86043 0.9517 0.0
H412 H 0.74379 0.87761 0.96682 0.0
H413 H 0.73801 0.87738 0.79853 0.0
C414 C 0.76424 0.86852 0.6705 0.0
C415 C 0.77942 0.86334 0.61089 0.0
C416 C 0.76779 0.86875 0.7721 0.0
C417 C 0.79808 0.85862 0.66083 0.0
C418 C 0.80161 0.85892 0.75979 0.0
C419 C 0.7903 0.86428 0.91946 0.0
C420 C 0.77502 0.86927 0.97895 0.0
C421 C 0.78671 0.86397 0.8178 0.0
C422 C 0.75626 0.87381 0.92888 0.0
C423 C 0.75281 0.87365 0.83 0.0
H424 H 0.30316 0.85053 0.84063 0.0
H425 H 0.23485 0.85269 0.76045 0.0
H426 H 0.2292 0.85383 0.92254 0.0
H427 H 0.24287 0.8543 0.09527 0.0
H428 H 0.31076 0.85118 0.1747 0.0
H429 H 0.31661 0.8505 1.01302 0.0
C430 C 0.28688 0.85122 0.85727 0.0
C431 C 0.26951 0.85145 0.78157 0.0
C432 C 0.2834 0.85181 0.95506 0.0
C433 C 0.24888 0.85238 0.81164 0.0
C434 C 0.24553 0.85309 0.90685 0.0
C435 C 0.25911 0.85352 1.07858 0.0
C436 C 0.27635 0.85299 0.15415 0.0
C437 C 0.26254 0.85284 0.98071 0.0
C438 C 0.29685 0.85179 0.12382 0.0
C439 C 0.30032 0.85134 1.02877 0.0
H440 H 0.24602 0.24523 0.96933 0.0
H441 H 0.32418 0.32739 1.00197 0.0
H442 H 0.33045 0.3331 0.17313 0.0
H443 H 0.31448 0.31553 0.32217 0.0
H444 H 0.23644 0.23301 0.28923 0.0
H445 H 0.23016 0.22748 0.11815 0.0
C446 C 0.26458 0.2646 1.01285 0.0
C447 C 0.28451 0.28589 0.96617 0.0
C448 C 0.26837 0.26792 0.11575 0.0
C449 C 0.30808 0.31031 1.02995 0.0
C450 C 0.31179 0.31367 0.13037 0.0
C451 C 0.29595 0.29609 0.27864 0.0
C452 C 0.27604 0.27464 0.32534 0.0
C453 C 0.2922 0.29274 0.17568 0.0
C454 C 0.25253 0.25016 0.26137 0.0
C455 C 0.24881 0.24691 0.16098 0.0
H456 H 0.46049 0.21555 0.09132 0.0
H457 H 0.46781 0.29811 0.30055 0.0
H458 H 0.4821 0.28354 0.45134 0.0
H459 H 0.50451 0.20901 0.45146 0.0
H460 H 0.47725 0.11188 0.25781 0.0
H461 H 0.4552 0.12074 0.11305 0.0
C462 C 0.46273 0.221 0.17009 0.0
C463 C 0.46285 0.25615 0.19386 0.0
C464 C 0.46562 0.19357 0.22675 0.0
C465 C 0.46856 0.27611 0.29329 0.0
C466 C 0.47624 0.2663 0.38416 0.0
C467 C 0.4899 0.19454 0.38245 0.0
C468 C 0.48965 0.15928 0.35891 0.0
C469 C 0.47666 0.21449 0.33363 0.0
C470 C 0.47626 0.1337 0.26532 0.0
C471 C 0.46212 0.1388 0.17944 0.0
H472 H 0.89535 0.20066 0.33008 0.0
H473 H 0.94052 0.25103 0.13328 0.0
H474 H 0.92386 0.19834 1.02986 0.0
H475 H 0.90449 0.13958 1.01331 0.0
H476 H 0.86661 0.08972 0.22468 0.0
H477 H 0.87102 0.14053 0.30275 0.0
C478 C 0.90024 0.20021 0.26155 0.0
C479 C 0.91912 0.22977 0.23879 0.0
C480 C 0.89184 0.16966 0.20553 0.0
C481 C 0.92574 0.22872 0.15117 0.0
C482 C 0.91651 0.19844 0.09292 0.0
C483 C 0.89613 0.13923 1.07412 0.0
C484 C 0.88482 0.11071 0.11235 0.0
C485 C 0.90071 0.16893 0.12195 0.0
C486 C 0.87477 0.11109 0.19275 0.0
C487 C 0.87768 0.14027 0.23783 0.0
H488 H 0.87283 0.64437 0.33703 0.0
H489 H 0.87753 0.58593 0.10366 0.0
H490 H 0.89269 0.63163 1.02371 0.0
H491 H 0.90862 0.6894 1.02675 0.0
H492 H 0.90449 0.74831 0.25865 0.0
H493 H 0.88289 0.69965 0.32908 0.0
C494 C 0.87534 0.64057 0.26568 0.0
C495 C 0.87434 0.61181 0.22678 0.0
C496 C 0.88341 0.66666 0.21848 0.0
C497 C 0.87839 0.60789 0.13539 0.0
C498 C 0.8868 0.63391 0.08894 0.0
C499 C 0.90164 0.69105 0.09022 0.0
C500 C 0.90703 0.72166 0.136 0.0
C501 C 0.88997 0.66358 0.1308 0.0
C502 C 0.89982 0.72458 0.22156 0.0
C503 C 0.88768 0.69697 0.26186 0.0
H504 H 0.2161 0.31398 0.58583 0.0
H505 H 0.29585 0.3867 0.59072 0.0
H506 H 0.28368 0.42305 0.53518 0.0
H507 H 0.2507 0.43371 0.47768 0.0
H508 H 0.17079 0.36281 0.47477 0.0
H509 H 0.1827 0.32635 0.53478 0.0
C510 C 0.23082 0.33795 0.57596 0.0
C511 C 0.25689 0.34736 0.59264 0.0
C512 C 0.22368 0.35907 0.54287 0.0
C513 C 0.27562 0.37851 0.57839 0.0
C514 C 0.26871 0.39946 0.54632 0.0
C515 C 0.23583 0.4106 0.49168 0.0
C516 C 0.20984 0.40129 0.47143 0.0
C517 C 0.24281 0.3899 0.52731 0.0
C518 C 0.19093 0.37065 0.48817 0.0
C519 C 0.19776 0.3498 0.52329 0.0
H520 H 0.65155 0.64128 0.13804 0.0
H521 H 0.71645 0.63216 0.11537 0.0
H522 H 0.74579 0.69178 0.16452 0.0
H523 H 0.75396 0.74748 0.21495 0.0
H524 H 0.68963 0.75781 0.23593 0.0
H525 H 0.65985 0.69783 0.18751 0.0
C526 C 0.67209 0.65224 0.14336 0.0
C527 C 0.68139 0.63138 0.12209 0.0
C528 C 0.68932 0.6873 0.17222 0.0
C529 C 0.70829 0.64681 0.13044 0.0
C530 C 0.7253 0.68126 0.15901 0.0
C531 C 0.73344 0.73679 0.20952 0.0
C532 C 0.72442 0.75791 0.23027 0.0
C533 C 0.71617 0.70189 0.18043 0.0
C534 C 0.69752 0.74282 0.2213 0.0
C535 C 0.68032 0.70821 0.1932 0.0
H536 H 0.47126 0.9753 1.07203 0.0
H537 H 0.50121 0.91467 0.12856 0.0
H538 H 0.4725 0.89192 0.23769 0.0
H539 H 0.4369 0.88686 0.30778 0.0
H540 H 0.40852 0.94955 0.25418 0.0
H541 H 0.43828 0.97341 0.15081 0.0
C542 C 0.47141 0.95701 0.10813 0.0
C543 C 0.48786 0.94615 0.09162 0.0
C544 C 0.45501 0.94424 0.17016 0.0
C545 C 0.48851 0.92317 0.14032 0.0
C546 C 0.47209 0.91015 0.20222 0.0
C547 C 0.43757 0.90618 0.27498 0.0
C548 C 0.42024 0.91602 0.28755 0.0
C549 C 0.45502 0.9202 0.21663 0.0
C550 C 0.42121 0.94092 0.24383 0.0
C551 C 0.43833 0.95476 0.18521 0.0
H552 H 0.55985 0.10843 0.77344 0.0
H553 H 0.61276 0.18691 1.01145 0.0
H554 H 0.58263 0.2059 1.01107 0.0
H555 H 0.53972 0.19928 0.94195 0.0
H556 H 0.48912 0.11978 0.70244 0.0
H557 H 0.51936 0.10213 0.70656 0.0
C558 C 0.56521 0.1299 0.82572 0.0
C559 C 0.58911 0.14609 0.89235 0.0
C560 C 0.54763 0.14034 0.82563 0.0
C561 C 0.59497 0.17392 0.95833 0.0
C562 C 0.57744 0.18461 0.95853 0.0
C563 C 0.53516 0.17783 0.89159 0.0
C564 C 0.51149 0.16066 0.82226 0.0
C565 C 0.55342 0.16784 0.89283 0.0
C566 C 0.5067 0.13345 0.75678 0.0
C567 C 0.52418 0.12333 0.75877 0.0
H568 H 1.02743 0.28054 1.06355 0.0
H569 H 0.98591 0.30287 0.85733 0.0
H570 H 1.01281 0.36121 0.93238 0.0
H571 H 0.049 0.40702 1.05423 0.0
H572 H 0.09305 0.38651 0.25524 0.0
H573 H 0.06473 0.32736 0.18554 0.0
C574 C 1.0241 0.29813 1.03577 0.0
C575 C 1.00427 0.28679 0.95477 0.0
C576 C 0.04034 0.33244 1.07845 0.0
C577 C 1.00082 0.31044 0.91924 0.0
C578 C 1.01629 0.34406 0.9623 0.0
C579 C 0.05237 0.3897 0.08364 0.0
C580 C 0.07324 0.40173 0.16129 0.0
C581 C 0.03624 0.35551 1.04166 0.0
C582 C 0.07724 0.37842 0.1963 0.0
C583 C 0.06095 0.34437 0.15617 0.0
H584 H 0.87914 0.67632 0.87146 0.0
H585 H 0.87864 0.58651 0.81518 0.0
H586 H 0.83769 0.55629 0.86342 0.0
H587 H 0.80205 0.55499 0.92239 0.0
H588 H 0.80325 0.64496 0.9882 0.0
H589 H 0.84387 0.67532 0.93637 0.0
C590 C 0.8701 0.65016 0.86988 0.0
C591 C 0.8823 0.63397 0.84094 0.0
C592 C 0.8466 0.63283 0.89953 0.0
C593 C 0.86997 0.59985 0.83784 0.0
C594 C 0.84648 0.58244 0.86562 0.0
C595 C 0.81124 0.5813 0.92639 0.0
C596 C 0.79934 0.59747 0.95883 0.0
C597 C 0.8347 0.59869 0.89716 0.0
C598 C 0.81157 0.63159 0.962 0.0
C599 C 0.83491 0.64906 0.93265 0.0
H600 H 0.9665 0.60082 0.8234 0.0
H601 H 1.00709 0.69163 1.03254 0.0
H602 H 1.0281 0.66982 0.12708 0.0
H603 H 0.03567 0.62512 0.14618 0.0
H604 H 0.99415 0.53476 0.93451 0.0
H605 H 0.97259 0.55627 0.84448 0.0
C606 C 0.97995 0.61591 0.88977 0.0
C607 C 0.98554 0.64787 0.92095 0.0
C608 C 0.99174 0.60328 0.94283 0.0
C609 C 1.00255 0.6669 1.00763 0.0
C610 C 1.01461 0.6545 1.06115 0.0
C611 C 1.02195 0.6103 1.0802 0.0
C612 C 1.01646 0.57846 1.04673 0.0
C613 C 1.00953 0.62282 1.02881 0.0
C614 C 0.99846 0.55922 0.96188 0.0
C615 C 0.98622 0.57152 0.91026 0.0
H616 H 0.55133 0.40865 1.05052 0.0
H617 H 0.61126 0.40668 0.93459 0.0
H618 H 0.58318 0.34675 0.88211 0.0
H619 H 0.54081 0.29394 0.86384 0.0
H620 H 0.48157 0.29502 0.98707 0.0
H621 H 0.50979 0.3551 1.04115 0.0
C622 C 0.55841 0.39521 1.01432 0.0
C623 C 0.58384 0.41308 0.99701 0.0
C624 C 0.54203 0.35999 0.985 0.0
C625 C 0.59217 0.3944 0.94995 0.0
C626 C 0.57593 0.35977 0.91934 0.0
C627 C 0.53403 0.30712 0.9034 0.0
C628 C 0.50866 0.28912 0.92102 0.0
C629 C 0.55071 0.34214 0.9358 0.0
C630 C 0.50073 0.30746 0.97237 0.0
C631 C 0.51699 0.34215 1.00322 0.0
H632 H 0.87574 0.157 0.94435 0.0
H633 H 0.87661 0.19206 0.68734 0.0
H634 H 0.8371 0.19027 0.69842 0.0
H635 H 0.80246 0.18094 0.78378 0.0
H636 H 0.80336 0.1498 1.04805 0.0
H637 H 0.84218 0.14972 1.03436 0.0
C638 C 0.86788 0.16516 0.89254 0.0
C639 C 0.88026 0.17548 0.81691 0.0
C640 C 0.8452 0.16517 0.90104 0.0
C641 C 0.8683 0.1843 0.74757 0.0
C642 C 0.84546 0.18336 0.75378 0.0
C643 C 0.81092 0.17386 0.8383 0.0
C644 C 0.79944 0.16542 0.9171 0.0
C645 C 0.83374 0.17412 0.83061 0.0
C646 C 0.81144 0.15684 0.98695 0.0
C647 C 0.83376 0.15655 0.97891 0.0
H648 H 0.62105 0.98652 0.94918 0.0
H649 H 0.69666 0.07326 0.97211 0.0
H650 H 0.71675 0.04513 1.03357 0.0
H651 H 0.7129 0.99631 0.0859 0.0
H652 H 0.6371 0.90962 1.06099 0.0
H653 H 0.61722 0.9371 0.99435 0.0
C654 C 0.64193 0.99922 0.96684 0.0
C655 C 0.65726 0.03203 0.95595 0.0
C656 C 0.65341 0.98286 1.002 0.0
C657 C 0.68432 0.04797 0.97903 0.0
C658 C 0.69586 0.03193 1.01475 0.0
C659 C 0.69203 0.98346 1.06607 0.0
C660 C 0.67659 0.95085 1.07865 0.0
C661 C 0.68061 0.99948 1.0275 0.0
C662 C 0.64955 0.93451 1.05125 0.0
C663 C 0.63811 0.95031 1.01355 0.0
H664 H 0.25488 0.7324 0.42376 0.0
H665 H 0.18964 0.74311 0.38065 0.0
H666 H 0.1603 0.68349 0.33471 0.0
H667 H 0.15216 0.62728 0.3057 0.0
H668 H 0.21657 0.61516 0.35026 0.0
H669 H 0.2465 0.67521 0.39547 0.0
C670 C 0.23425 0.72179 0.40468 0.0
C671 C 0.2249 0.74316 0.40654 0.0
C672 C 0.21698 0.68665 0.37773 0.0
C673 C 0.19788 0.72813 0.38076 0.0
C674 C 0.18086 0.69365 0.35401 0.0
C675 C 0.17275 0.63758 0.32479 0.0
C676 C 0.18175 0.61593 0.32348 0.0
C677 C 0.19006 0.67253 0.35191 0.0
C678 C 0.2087 0.63056 0.34975 0.0
C679 C 0.22598 0.6652 0.376 0.0
H680 H 0.47464 0.48746 0.24628 0.0
H681 H 0.48972 0.40961 0.23275 0.0
H682 H 0.45962 0.38361 0.33375 0.0
H683 H 0.43021 0.38401 0.42961 0.0
H684 H 0.41385 0.46051 0.43936 0.0
H685 H 0.44266 0.48549 0.33245 0.0
C686 C 0.47093 0.46443 0.26362 0.0
C687 C 0.48458 0.45069 0.2329 0.0
C688 C 0.45337 0.44936 0.32049 0.0
C689 C 0.47984 0.42106 0.25719 0.0
C690 C 0.46254 0.40606 0.31439 0.0
C691 C 0.43304 0.40619 0.40824 0.0
C692 C 0.42037 0.42078 0.44264 0.0
C693 C 0.44951 0.42027 0.34738 0.0
C694 C 0.42356 0.44901 0.41334 0.0
C695 C 0.44004 0.46331 0.35278 0.0
H696 H 0.94789 0.75968 0.56546 0.0
H697 H 0.87535 0.66924 0.55157 0.0
H698 H 0.85186 0.69252 0.48356 0.0
H699 H 0.8521 0.73906 0.42979 0.0
H700 H 0.92499 0.82901 0.44302 0.0
H701 H 0.94819 0.80508 0.50709 0.0
C702 C 0.92694 0.74496 0.54673 0.0
C703 C 0.91336 0.71289 0.56356 0.0
C704 C 0.91364 0.75836 0.50721 0.0
C705 C 0.88623 0.69401 0.53885 0.0
C706 C 0.87279 0.7074 0.50087 0.0
C707 C 0.87305 0.75344 0.44743 0.0
C708 C 0.88679 0.78573 0.43182 0.0
C709 C 0.88631 0.73965 0.48521 0.0
C710 C 0.91395 0.80393 0.45328 0.0
C711 C 0.92725 0.79037 0.49052 0.0
H712 H 0.36684 0.07928 0.67713 0.0
H713 H 0.42256 0.0818 0.52378 0.0
H714 H 0.39427 0.02178 0.4646 0.0
H715 H 0.35387 0.96716 0.46105 0.0
H716 H 0.29681 0.96646 0.60342 0.0
H717 H 0.325 0.02619 0.66089 0.0
C718 C 0.37271 0.06691 0.62934 0.0
C719 C 0.39708 0.08579 0.6047 0.0
C720 C 0.35593 0.03213 0.59375 0.0
C721 C 0.404 0.06862 0.54314 0.0
C722 C 0.38778 0.03398 0.5098 0.0
C723 C 0.34744 0.98004 0.504 0.0
C724 C 0.32286 0.9615 0.52765 0.0
C725 C 0.36372 1.01523 0.53517 0.0
C726 C 0.31525 0.97936 0.58309 0.0
C727 C 0.33155 1.01383 0.61654 0.0
H728 H 1.02107 0.19479 0.59252 0.0
H729 H 0.0395 0.20318 0.89257 0.0
H730 H 0.08015 0.20822 0.88088 0.0
H731 H 0.1107 0.209 0.78631 0.0
H732 H 0.09293 0.20115 0.48637 0.0
H733 H 0.05242 0.19684 0.49769 0.0
C734 C 0.03397 0.19781 0.65549 0.0
C735 C 1.02675 0.19849 0.74346 0.0
C736 C 0.05773 0.20061 0.64849 0.0
C737 C 0.04407 0.20242 0.82368 0.0
C738 C 0.06755 0.20534 0.8172 0.0
C739 C 0.09821 0.20672 0.72323 0.0
C740 C 0.10532 0.2052 0.63536 0.0
C741 C 0.07464 0.20435 0.73005 0.0
C742 C 0.08822 0.20179 0.55502 0.0
C743 C 0.0649 0.19953 0.56141 0.0
H744 H 0.36524 0.17774 0.7781 0.0
H745 H 0.40883 0.23055 0.5809 0.0
H746 H 0.37744 0.24496 0.5346 0.0
H747 H 0.33891 0.24564 0.55369 0.0
H748 H 0.29372 0.19283 0.74645 0.0
H749 H 0.32369 0.17499 0.78839 0.0
C750 C 0.36784 0.19223 0.72451 0.0
C751 C 0.38996 0.20306 0.68377 0.0
C752 C 0.34912 0.20036 0.69651 0.0
C753 C 0.39243 0.2217 0.61412 0.0
C754 C 0.37432 0.23005 0.5873 0.0
C755 C 0.33515 0.22966 0.60376 0.0
C756 C 0.31354 0.22051 0.64584 0.0
C757 C 0.35272 0.21983 0.62829 0.0
C758 C 0.30959 0.19993 0.71102 0.0
C759 C 0.32709 0.19005 0.73602 0.0
H760 H 0.85946 0.96803 0.48482 0.0
H761 H 0.8069 0.9882 0.33178 0.0
H762 H 0.83512 0.04684 0.40757 0.0
H763 H 0.87484 0.09319 0.52188 0.0
H764 H 0.92511 0.07093 0.68211 0.0
H765 H 0.89806 1.01335 0.60008 0.0
C766 C 0.85421 0.98521 0.46704 0.0
C767 C 0.83097 0.97323 0.40092 0.0
C768 C 0.87031 0.01904 0.51316 0.0
C769 C 0.82457 0.99627 0.38137 0.0
C770 C 0.84079 0.03003 0.4251 0.0
C771 C 0.88 0.07582 0.53829 0.0
C772 C 0.90242 0.08704 0.60838 0.0
C773 C 0.86375 0.04187 0.49168 0.0
C774 C 0.90823 0.06357 0.62902 0.0
C775 C 0.89267 0.03035 0.5818 0.0
H776 H 0.04366 0.75811 0.75803 0.0
H777 H 0.99881 0.69416 0.48651 0.0
H778 H 0.03781 0.71755 0.42286 0.0
H779 H 0.08485 0.75569 0.44452 0.0
H780 H 0.12948 0.81963 0.7161 0.0
H781 H 0.09046 0.79644 0.77933 0.0
C782 C 0.04233 0.74928 0.6848 0.0
C783 C 1.01821 0.72434 0.62722 0.0
C784 C 0.06489 0.76272 0.64864 0.0
C785 C 1.01704 0.71326 0.53262 0.0
C786 C 0.03937 0.72664 0.49607 0.0
C787 C 0.08604 0.76473 0.51738 0.0
C788 C 0.11022 0.78932 0.57542 0.0
C789 C 0.06343 0.75134 0.55343 0.0
C790 C 0.1113 0.80038 0.67004 0.0
C791 C 0.08893 0.78728 0.70621 0.0
loop_
_geom_bond_atom_site_label_1
_geom_bond_atom_site_label_2
_geom_bond_distance
_geom_bond_site_symmetry_2
_ccdc_geom_bond_type
Eu0 C9 2.828 . S
Eu0 O11 2.392 . S
Eu0 O13 2.418 1_554 S
Eu0 O18 2.373 . S
Eu0 O21 2.488 . S
Eu0 O22 2.471 . S
Eu0 O23 2.349 . S
Eu1 O10 2.373 . S
Eu1 O14 2.488 . S
Eu1 O15 2.471 1_554 S
Eu1 O16 2.349 1_554 S
Eu1 O19 2.392 . S
Eu1 O20 2.418 . S
Eu1 C30 2.828 . S
C2 O20 1.244 . S
C2 O23 1.265 . S
C3 C4 1.379 . S
C3 C7 1.373 . S
C3 C9 1.505 . S
C4 C3 1.379 . S
C4 C6 1.369 . S
C4 H32 0.930 . S
C5 C7 1.383 . S
C5 C8 1.382 . S
C5 H33 0.930 . S
C6 C4 1.369 . S
C6 C8 1.392 . S
C6 H34 0.930 . S
C7 C3 1.373 . S
C7 C5 1.383 . S
C7 H35 0.931 . S
C8 C5 1.382 . S
C8 C6 1.392 . S
C9 Eu0 2.828 . S
C9 C3 1.505 . S
C9 O21 1.249 . S
C9 O22 1.244 . S
O10 Eu1 2.373 . S
O10 C12 1.258 . S
O11 Eu0 2.392 . S
O11 C12 1.242 . S
C12 O10 1.258 . S
C12 O11 1.242 . S
O13 Eu0 2.418 1_556 S
O13 C17 1.244 . S
O14 Eu1 2.488 . S
O14 C30 1.249 . S
O15 Eu1 2.471 1_556 S
O15 C30 1.244 1_556 S
O16 Eu1 2.349 1_556 S
O16 C17 1.265 . S
C17 O13 1.244 . S
C17 O16 1.265 . S
O18 Eu0 2.373 . S
O18 C31 1.258 . S
O19 Eu1 2.392 . S
O19 C31 1.242 . S
O20 Eu1 2.418 . S
O20 C2 1.244 . S
O21 Eu0 2.488 . S
O21 C9 1.249 . S
O22 Eu0 2.471 . S
O22 C9 1.244 . S
O23 Eu0 2.349 . S
O23 C2 1.265 . S
C24 C25 1.379 1_655 S
C24 C28 1.373 1_556 S
C24 C30 1.505 1_656 S
C25 C24 1.379 1_455 S
C25 C27 1.369 . S
C25 H36 0.930 . S
C26 C28 1.383 . S
C26 C29 1.382 1_554 S
C26 H37 0.930 . S
C27 C25 1.369 . S
C27 C29 1.392 1_455 S
C27 H38 0.930 . S
C28 C24 1.373 1_554 S
C28 C26 1.383 . S
C28 H39 0.931 . S
C29 C26 1.382 1_556 S
C29 C27 1.392 1_655 S
C30 Eu1 2.828 . S
C30 O14 1.249 . S
C30 O15 1.244 1_554 S
C30 C24 1.505 1_454 S
C31 O18 1.258 . S
C31 O19 1.242 . S
H32 C4 0.930 . S
H33 C5 0.930 . S
H34 C6 0.930 . S
H35 C7 0.931 . S
H36 C25 0.930 . S
H37 C26 0.930 . S
H38 C27 0.930 . S
H39 C28 0.931 . S
Eu40 C49 2.828 . S
Eu40 O51 2.392 . S
Eu40 O53 2.418 . S
Eu40 O58 2.373 . S
Eu40 O61 2.488 . S
Eu40 O62 2.471 . S
Eu40 O63 2.349 . S
Eu41 O50 2.373 . S
Eu41 O54 2.488 . S
Eu41 O55 2.471 . S
Eu41 O56 2.349 . S
Eu41 O59 2.392 . S
Eu41 O60 2.418 1_554 S
Eu41 C70 2.828 . S
C42 O60 1.244 . S
C42 O63 1.265 1_556 S
C43 C44 1.379 . S
C43 C47 1.373 . S
C43 C49 1.505 . S
C44 C43 1.379 . S
C44 C46 1.369 . S
C44 H72 0.930 . S
C45 C47 1.383 . S
C45 C48 1.382 . S
C45 H73 0.930 . S
C46 C44 1.369 . S
C46 C48 1.392 . S
C46 H74 0.930 1_554 S
C47 C43 1.373 . S
C47 C45 1.383 . S
C47 H75 0.931 . S
C48 C45 1.382 . S
C48 C46 1.392 . S
C49 Eu40 2.828 . S
C49 C43 1.505 . S
C49 O61 1.249 . S
C49 O62 1.244 . S
O50 Eu41 2.373 . S
O50 C52 1.258 . S
O51 Eu40 2.392 . S
O51 C52 1.242 . S
C52 O50 1.258 . S
C52 O51 1.242 . S
O53 Eu40 2.418 . S
O53 C57 1.244 . S
O54 Eu41 2.488 . S
O54 C70 1.249 . S
O55 Eu41 2.471 . S
O55 C70 1.244 . S
O56 Eu41 2.349 . S
O56 C57 1.265 . S
C57 O53 1.244 . S
C57 O56 1.265 . S
O58 Eu40 2.373 . S
O58 C71 1.258 . S
O59 Eu41 2.392 . S
O59 C71 1.242 . S
O60 Eu41 2.418 1_556 S
O60 C42 1.244 . S
O61 Eu40 2.488 . S
O61 C49 1.249 . S
O62 Eu40 2.471 . S
O62 C49 1.244 . S
O63 Eu40 2.349 . S
O63 C42 1.265 1_554 S
C64 C65 1.379 . S
C64 C68 1.373 . S
C64 C70 1.505 . S
C65 C64 1.379 . S
C65 C67 1.369 . S
C65 H76 0.930 . S
C66 C68 1.383 . S
C66 C69 1.382 . S
C66 H77 0.930 . S
C67 C65 1.369 . S
C67 C69 1.392 . S
C67 H78 0.930 . S
C68 C64 1.373 . S
C68 C66 1.383 . S
C68 H79 0.931 . S
C69 C66 1.382 . S
C69 C67 1.392 . S
C70 Eu41 2.828 . S
C70 O54 1.249 . S
C70 O55 1.244 . S
C70 C64 1.505 . S
C71 O58 1.258 . S
C71 O59 1.242 . S
H72 C44 0.930 . S
H73 C45 0.930 . S
H74 C46 0.930 1_556 S
H75 C47 0.931 . S
H76 C65 0.930 . S
H77 C66 0.930 . S
H78 C67 0.930 . S
H79 C68 0.931 . S
Eu80 C89 2.828 . S
Eu80 O91 2.392 . S
Eu80 O93 2.418 1_554 S
Eu80 O98 2.373 . S
Eu80 O101 2.488 . S
Eu80 O102 2.471 . S
Eu80 O103 2.349 . S
Eu81 O90 2.373 . S
Eu81 O94 2.488 . S
Eu81 O95 2.471 . S
Eu81 O96 2.349 . S
Eu81 O99 2.392 . S
Eu81 O100 2.418 . S
Eu81 C110 2.828 . S
C82 O100 1.244 . S
C82 O103 1.265 . S
C83 C84 1.379 . S
C83 C87 1.373 . S
C83 C89 1.505 . S
C84 C83 1.379 . S
C84 C86 1.369 . S
C84 H112 0.930 . S
C85 C87 1.383 . S
C85 C88 1.382 . S
C85 H113 0.930 1_545 S
C86 C84 1.369 . S
C86 C88 1.392 . S
C86 H114 0.930 . S
C87 C83 1.373 . S
C87 C85 1.383 . S
C87 H115 0.931 . S
C88 C85 1.382 . S
C88 C86 1.392 . S
C89 Eu80 2.828 . S
C89 C83 1.505 . S
C89 O101 1.249 . S
C89 O102 1.244 . S
O90 Eu81 2.373 . S
O90 C92 1.258 . S
O91 Eu80 2.392 . S
O91 C92 1.242 . S
C92 O90 1.258 . S
C92 O91 1.242 . S
O93 Eu80 2.418 1_556 S
O93 C97 1.244 . S
O94 Eu81 2.488 . S
O94 C110 1.249 . S
O95 Eu81 2.471 . S
O95 C110 1.244 . S
O96 Eu81 2.349 . S
O96 C97 1.265 1_554 S
C97 O93 1.244 . S
C97 O96 1.265 1_556 S
O98 Eu80 2.373 . S
O98 C111 1.258 . S
O99 Eu81 2.392 . S
O99 C111 1.242 . S
O100 Eu81 2.418 . S
O100 C82 1.244 . S
O101 Eu80 2.488 . S
O101 C89 1.249 . S
O102 Eu80 2.471 . S
O102 C89 1.244 . S
O103 Eu80 2.349 . S
O103 C82 1.265 . S
C104 C105 1.379 . S
C104 C108 1.373 . S
C104 C110 1.505 . S
C105 C104 1.379 . S
C105 C107 1.369 . S
C105 H116 0.930 . S
C106 C108 1.383 . S
C106 C109 1.382 . S
C106 H117 0.930 . S
C107 C105 1.369 . S
C107 C109 1.392 . S
C107 H118 0.930 . S
C108 C104 1.373 . S
C108 C106 1.383 . S
C108 H119 0.931 . S
C109 C106 1.382 . S
C109 C107 1.392 . S
C110 Eu81 2.828 . S
C110 O94 1.249 . S
C110 O95 1.244 . S
C110 C104 1.505 . S
C111 O98 1.258 . S
C111 O99 1.242 . S
H112 C84 0.930 . S
H113 C85 0.930 1_565 S
H114 C86 0.930 . S
H115 C87 0.931 . S
H116 C105 0.930 . S
H117 C106 0.930 . S
H118 C107 0.930 . S
H119 C108 0.931 . S
Eu120 C129 2.828 . S
Eu120 O131 2.392 . S
Eu120 O133 2.418 . S
Eu120 O138 2.373 . S
Eu120 O141 2.488 . S
Eu120 O142 2.471 . S
Eu120 O143 2.349 . S
Eu121 O130 2.373 . S
Eu121 O134 2.488 . S
Eu121 O135 2.471 . S
Eu121 O136 2.349 . S
Eu121 O139 2.392 . S
Eu121 O140 2.418 . S
Eu121 C150 2.828 . S
C122 O140 1.244 . S
C122 O143 1.265 . S
C123 C124 1.379 . S
C123 C127 1.373 . S
C123 C129 1.505 . S
C124 C123 1.379 . S
C124 C126 1.369 . S
C124 H152 0.930 . S
C125 C127 1.383 . S
C125 C128 1.382 . S
C125 H153 0.930 . S
C126 C124 1.369 . S
C126 C128 1.392 . S
C126 H154 0.930 . S
C127 C123 1.373 . S
C127 C125 1.383 . S
C127 H155 0.931 . S
C128 C125 1.382 . S
C128 C126 1.392 . S
C129 Eu120 2.828 . S
C129 C123 1.505 . S
C129 O141 1.249 . S
C129 O142 1.244 . S
O130 Eu121 2.373 . S
O130 C132 1.258 . S
O131 Eu120 2.392 . S
O131 C132 1.242 . S
C132 O130 1.258 . S
C132 O131 1.242 . S
O133 Eu120 2.418 . S
O133 C137 1.244 . S
O134 Eu121 2.488 . S
O134 C150 1.249 . S
O135 Eu121 2.471 . S
O135 C150 1.244 . S
O136 Eu121 2.349 . S
O136 C137 1.265 . S
C137 O133 1.244 . S
C137 O136 1.265 . S
O138 Eu120 2.373 . S
O138 C151 1.258 . S
O139 Eu121 2.392 . S
O139 C151 1.242 . S
O140 Eu121 2.418 . S
O140 C122 1.244 . S
O141 Eu120 2.488 . S
O141 C129 1.249 . S
O142 Eu120 2.471 . S
O142 C129 1.244 . S
O143 Eu120 2.349 . S
O143 C122 1.265 . S
C144 C145 1.379 . S
C144 C148 1.373 . S
C144 C150 1.505 . S
C145 C144 1.379 . S
C145 C147 1.369 . S
C145 H156 0.930 . S
C146 C148 1.383 . S
C146 C149 1.382 . S
C146 H157 0.930 . S
C147 C145 1.369 . S
C147 C149 1.392 . S
C147 H158 0.930 . S
C148 C144 1.373 . S
C148 C146 1.383 . S
C148 H159 0.931 . S
C149 C146 1.382 . S
C149 C147 1.392 . S
C150 Eu121 2.828 . S
C150 O134 1.249 . S
C150 O135 1.244 . S
C150 C144 1.505 . S
C151 O138 1.258 . S
C151 O139 1.242 . S
H152 C124 0.930 . S
H153 C125 0.930 . S
H154 C126 0.930 . S
H155 C127 0.931 . S
H156 C145 0.930 . S
H157 C146 0.930 . S
H158 C147 0.930 . S
H159 C148 0.931 . S
Eu160 C169 2.828 . S
Eu160 O171 2.392 . S
Eu160 O173 2.418 . S
Eu160 O178 2.373 . S
Eu160 O181 2.488 . S
Eu160 O182 2.471 . S
Eu160 O183 2.349 . S
Eu161 O170 2.373 . S
Eu161 O174 2.488 . S
Eu161 O175 2.471 . S
Eu161 O176 2.349 . S
Eu161 O179 2.392 . S
Eu161 O180 2.418 . S
Eu161 C190 2.828 . S
C162 O180 1.244 . S
C162 O183 1.265 . S
C163 C164 1.379 . S
C163 C167 1.373 . S
C163 C169 1.505 . S
C164 C163 1.379 . S
C164 C166 1.369 . S
C164 H192 0.930 . S
C165 C167 1.383 . S
C165 C168 1.382 . S
C165 H193 0.930 . S
C166 C164 1.369 . S
C166 C168 1.392 . S
C166 H194 0.930 . S
C167 C163 1.373 . S
C167 C165 1.383 . S
C167 H195 0.931 . S
C168 C165 1.382 . S
C168 C166 1.392 . S
C169 Eu160 2.828 . S
C169 C163 1.505 . S
C169 O181 1.249 . S
C169 O182 1.244 . S
O170 Eu161 2.373 . S
O170 C172 1.258 . S
O171 Eu160 2.392 . S
O171 C172 1.242 . S
C172 O170 1.258 . S
C172 O171 1.242 . S
O173 Eu160 2.418 . S
O173 C177 1.244 . S
O174 Eu161 2.488 . S
O174 C190 1.249 . S
O175 Eu161 2.471 . S
O175 C190 1.244 . S
O176 Eu161 2.349 . S
O176 C177 1.265 . S
C177 O173 1.244 . S
C177 O176 1.265 . S
O178 Eu160 2.373 . S
O178 C191 1.258 . S
O179 Eu161 2.392 . S
O179 C191 1.242 . S
O180 Eu161 2.418 . S
O180 C162 1.244 . S
O181 Eu160 2.488 . S
O181 C169 1.249 . S
O182 Eu160 2.471 . S
O182 C169 1.244 . S
O183 Eu160 2.349 . S
O183 C162 1.265 . S
C184 C185 1.379 . S
C184 C188 1.373 . S
C184 C190 1.505 . S
C185 C184 1.379 . S
C185 C187 1.369 . S
C185 H196 0.930 . S
C186 C188 1.383 . S
C186 C189 1.382 . S
C186 H197 0.930 . S
C187 C185 1.369 . S
C187 C189 1.392 . S
C187 H198 0.930 . S
C188 C184 1.373 . S
C188 C186 1.383 . S
C188 H199 0.931 . S
C189 C186 1.382 . S
C189 C187 1.392 . S
C190 Eu161 2.828 . S
C190 O174 1.249 . S
C190 O175 1.244 . S
C190 C184 1.505 . S
C191 O178 1.258 . S
C191 O179 1.242 . S
H192 C164 0.930 . S
H193 C165 0.930 . S
H194 C166 0.930 . S
H195 C167 0.931 . S
H196 C185 0.930 . S
H197 C186 0.930 . S
H198 C187 0.930 . S
H199 C188 0.931 . S
Eu200 C209 2.828 . S
Eu200 O211 2.392 . S
Eu200 O213 2.418 . S
Eu200 O218 2.373 . S
Eu200 O221 2.488 . S
Eu200 O222 2.471 . S
Eu200 O223 2.349 . S
Eu201 O210 2.373 . S
Eu201 O214 2.488 . S
Eu201 O215 2.471 . S
Eu201 O216 2.349 . S
Eu201 O219 2.392 . S
Eu201 O220 2.418 . S
Eu201 C230 2.828 . S
C202 O220 1.244 . S
C202 O223 1.265 . S
C203 C204 1.379 . S
C203 C207 1.373 . S
C203 C209 1.505 . S
C204 C203 1.379 . S
C204 C206 1.369 . S
C204 H232 0.930 . S
C205 C207 1.383 . S
C205 C208 1.382 . S
C205 H233 0.930 . S
C206 C204 1.369 . S
C206 C208 1.392 . S
C206 H234 0.930 . S
C207 C203 1.373 . S
C207 C205 1.383 . S
C207 H235 0.931 . S
C208 C205 1.382 . S
C208 C206 1.392 . S
C209 Eu200 2.828 . S
C209 C203 1.505 . S
C209 O221 1.249 . S
C209 O222 1.244 . S
O210 Eu201 2.373 . S
O210 C212 1.258 . S
O211 Eu200 2.392 . S
O211 C212 1.242 . S
C212 O210 1.258 . S
C212 O211 1.242 . S
O213 Eu200 2.418 . S
O213 C217 1.244 . S
O214 Eu201 2.488 . S
O214 C230 1.249 . S
O215 Eu201 2.471 . S
O215 C230 1.244 . S
O216 Eu201 2.349 . S
O216 C217 1.265 . S
C217 O213 1.244 . S
C217 O216 1.265 . S
O218 Eu200 2.373 . S
O218 C231 1.258 . S
O219 Eu201 2.392 . S
O219 C231 1.242 . S
O220 Eu201 2.418 . S
O220 C202 1.244 . S
O221 Eu200 2.488 . S
O221 C209 1.249 . S
O222 Eu200 2.471 . S
O222 C209 1.244 . S
O223 Eu200 2.349 . S
O223 C202 1.265 . S
C224 C225 1.379 . S
C224 C228 1.373 . S
C224 C230 1.505 . S
C225 C224 1.379 . S
C225 C227 1.369 . S
C225 H236 0.930 . S
C226 C228 1.383 . S
C226 C229 1.382 . S
C226 H237 0.930 . S
C227 C225 1.369 . S
C227 C229 1.392 . S
C227 H238 0.930 . S
C228 C224 1.373 . S
C228 C226 1.383 . S
C228 H239 0.931 . S
C229 C226 1.382 . S
C229 C227 1.392 . S
C230 Eu201 2.828 . S
C230 O214 1.249 . S
C230 O215 1.244 . S
C230 C224 1.505 . S
C231 O218 1.258 . S
C231 O219 1.242 . S
H232 C204 0.930 . S
H233 C205 0.930 . S
H234 C206 0.930 . S
H235 C207 0.931 . S
H236 C225 0.930 . S
H237 C226 0.930 . S
H238 C227 0.930 . S
H239 C228 0.931 . S
Eu240 C249 2.828 . S
Eu240 O251 2.392 . S
Eu240 O253 2.418 . S
Eu240 O258 2.373 . S
Eu240 O261 2.488 . S
Eu240 O262 2.471 . S
Eu240 O263 2.349 . S
Eu241 O250 2.373 . S
Eu241 O254 2.488 . S
Eu241 O255 2.471 . S
Eu241 O256 2.349 . S
Eu241 O259 2.392 . S
Eu241 O260 2.418 . S
Eu241 C270 2.828 . S
C242 O260 1.244 . S
C242 O263 1.265 . S
C243 C244 1.379 . S
C243 C247 1.373 . S
C243 C249 1.505 . S
C244 C243 1.379 . S
C244 C246 1.369 . S
C244 H272 0.930 . S
C245 C247 1.383 . S
C245 C248 1.382 . S
C245 H273 0.930 . S
C246 C244 1.369 . S
C246 C248 1.392 . S
C246 H274 0.930 . S
C247 C243 1.373 . S
C247 C245 1.383 . S
C247 H275 0.931 . S
C248 C245 1.382 . S
C248 C246 1.392 . S
C249 Eu240 2.828 . S
C249 C243 1.505 . S
C249 O261 1.249 . S
C249 O262 1.244 . S
O250 Eu241 2.373 . S
O250 C252 1.258 . S
O251 Eu240 2.392 . S
O251 C252 1.242 . S
C252 O250 1.258 . S
C252 O251 1.242 . S
O253 Eu240 2.418 . S
O253 C257 1.244 . S
O254 Eu241 2.488 . S
O254 C270 1.249 . S
O255 Eu241 2.471 . S
O255 C270 1.244 . S
O256 Eu241 2.349 . S
O256 C257 1.265 . S
C257 O253 1.244 . S
C257 O256 1.265 . S
O258 Eu240 2.373 . S
O258 C271 1.258 . S
O259 Eu241 2.392 . S
O259 C271 1.242 . S
O260 Eu241 2.418 . S
O260 C242 1.244 . S
O261 Eu240 2.488 . S
O261 C249 1.249 . S
O262 Eu240 2.471 . S
O262 C249 1.244 . S
O263 Eu240 2.349 . S
O263 C242 1.265 . S
C264 C265 1.379 . S
C264 C268 1.373 . S
C264 C270 1.505 1_554 S
C265 C264 1.379 . S
C265 C267 1.369 . S
C265 H276 0.930 . S
C266 C268 1.383 . S
C266 C269 1.382 . S
C266 H277 0.930 . S
C267 C265 1.369 . S
C267 C269 1.392 . S
C267 H278 0.930 . S
C268 C264 1.373 . S
C268 C266 1.383 . S
C268 H279 0.931 . S
C269 C266 1.382 . S
C269 C267 1.392 . S
C270 Eu241 2.828 . S
C270 O254 1.249 . S
C270 O255 1.244 . S
C270 C264 1.505 1_556 S
C271 O258 1.258 . S
C271 O259 1.242 . S
H272 C244 0.930 . S
H273 C245 0.930 . S
H274 C246 0.930 . S
H275 C247 0.931 . S
H276 C265 0.930 . S
H277 C266 0.930 . S
H278 C267 0.930 . S
H279 C268 0.931 . S
Eu280 C289 2.828 . S
Eu280 O291 2.392 . S
Eu280 O293 2.418 . S
Eu280 O298 2.373 . S
Eu280 O301 2.488 . S
Eu280 O302 2.471 . S
Eu280 O303 2.349 . S
Eu281 O290 2.373 . S
Eu281 O294 2.488 . S
Eu281 O295 2.471 . S
Eu281 O296 2.349 . S
Eu281 O299 2.392 . S
Eu281 O300 2.418 . S
Eu281 C310 2.828 . S
C282 O300 1.244 . S
C282 O303 1.265 . S
C283 C284 1.379 . S
C283 C287 1.373 . S
C283 C289 1.505 1_554 S
C284 C283 1.379 . S
C284 C286 1.369 . S
C284 H312 0.930 . S
C285 C287 1.383 . S
C285 C288 1.382 . S
C285 H313 0.930 . S
C286 C284 1.369 . S
C286 C288 1.392 . S
C286 H314 0.930 . S
C287 C283 1.373 . S
C287 C285 1.383 . S
C287 H315 0.931 . S
C288 C285 1.382 . S
C288 C286 1.392 . S
C289 Eu280 2.828 . S
C289 C283 1.505 1_556 S
C289 O301 1.249 . S
C289 O302 1.244 . S
O290 Eu281 2.373 . S
O290 C292 1.258 . S
O291 Eu280 2.392 . S
O291 C292 1.242 . S
C292 O290 1.258 . S
C292 O291 1.242 . S
O293 Eu280 2.418 . S
O293 C297 1.244 . S
O294 Eu281 2.488 . S
O294 C310 1.249 . S
O295 Eu281 2.471 . S
O295 C310 1.244 . S
O296 Eu281 2.349 . S
O296 C297 1.265 . S
C297 O293 1.244 . S
C297 O296 1.265 . S
O298 Eu280 2.373 . S
O298 C311 1.258 . S
O299 Eu281 2.392 . S
O299 C311 1.242 . S
O300 Eu281 2.418 . S
O300 C282 1.244 . S
O301 Eu280 2.488 . S
O301 C289 1.249 . S
O302 Eu280 2.471 . S
O302 C289 1.244 . S
O303 Eu280 2.349 . S
O303 C282 1.265 . S
C304 C305 1.379 . S
C304 C308 1.373 . S
C304 C310 1.505 . S
C305 C304 1.379 . S
C305 C307 1.369 . S
C305 H316 0.930 . S
C306 C308 1.383 . S
C306 C309 1.382 . S
C306 H317 0.930 . S
C307 C305 1.369 . S
C307 C309 1.392 . S
C307 H318 0.930 . S
C308 C304 1.373 . S
C308 C306 1.383 . S
C308 H319 0.931 . S
C309 C306 1.382 . S
C309 C307 1.392 . S
C310 Eu281 2.828 . S
C310 O294 1.249 . S
C310 O295 1.244 . S
C310 C304 1.505 . S
C311 O298 1.258 . S
C311 O299 1.242 . S
H312 C284 0.930 . S
H313 C285 0.930 . S
H314 C286 0.930 . S
H315 C287 0.931 . S
H316 C305 0.930 . S
H317 C306 0.930 . S
H318 C307 0.930 . S
H319 C308 0.931 . S
Eu320 C329 2.828 . S
Eu320 O331 2.392 . S
Eu320 O333 2.418 . S
Eu320 O338 2.373 . S
Eu320 O341 2.488 . S
Eu320 O342 2.471 . S
Eu320 O343 2.349 . S
Eu321 O330 2.373 . S
Eu321 O334 2.488 . S
Eu321 O335 2.471 . S
Eu321 O336 2.349 . S
Eu321 O339 2.392 . S
Eu321 O340 2.418 . S
Eu321 C350 2.828 . S
C322 O340 1.244 . S
C322 O343 1.265 . S
C323 C324 1.379 . S
C323 C327 1.373 . S
C323 C329 1.505 . S
C324 C323 1.379 . S
C324 C326 1.369 . S
C324 H352 0.930 . S
C325 C327 1.383 . S
C325 C328 1.382 . S
C325 H353 0.930 . S
C326 C324 1.369 . S
C326 C328 1.392 . S
C326 H354 0.930 . S
C327 C323 1.373 . S
C327 C325 1.383 . S
C327 H355 0.931 . S
C328 C325 1.382 . S
C328 C326 1.392 . S
C329 Eu320 2.828 . S
C329 C323 1.505 . S
C329 O341 1.249 . S
C329 O342 1.244 . S
O330 Eu321 2.373 . S
O330 C332 1.258 . S
O331 Eu320 2.392 . S
O331 C332 1.242 . S
C332 O330 1.258 . S
C332 O331 1.242 . S
O333 Eu320 2.418 . S
O333 C337 1.244 . S
O334 Eu321 2.488 . S
O334 C350 1.249 . S
O335 Eu321 2.471 . S
O335 C350 1.244 . S
O336 Eu321 2.349 . S
O336 C337 1.265 . S
C337 O333 1.244 . S
C337 O336 1.265 . S
O338 Eu320 2.373 . S
O338 C351 1.258 . S
O339 Eu321 2.392 . S
O339 C351 1.242 . S
O340 Eu321 2.418 . S
O340 C322 1.244 . S
O341 Eu320 2.488 . S
O341 C329 1.249 . S
O342 Eu320 2.471 . S
O342 C329 1.244 . S
O343 Eu320 2.349 . S
O343 C322 1.265 . S
C344 C345 1.379 . S
C344 C348 1.373 . S
C344 C350 1.505 1_554 S
C345 C344 1.379 . S
C345 C347 1.369 . S
C345 H356 0.930 . S
C346 C348 1.383 . S
C346 C349 1.382 . S
C346 H357 0.930 . S
C347 C345 1.369 . S
C347 C349 1.392 . S
C347 H358 0.930 . S
C348 C344 1.373 . S
C348 C346 1.383 . S
C348 H359 0.931 . S
C349 C346 1.382 . S
C349 C347 1.392 . S
C350 Eu321 2.828 . S
C350 O334 1.249 . S
C350 O335 1.244 . S
C350 C344 1.505 1_556 S
C351 O338 1.258 . S
C351 O339 1.242 . S
H352 C324 0.930 . S
H353 C325 0.930 . S
H354 C326 0.930 . S
H355 C327 0.931 . S
H356 C345 0.930 . S
H357 C346 0.930 . S
H358 C347 0.930 . S
H359 C348 0.931 . S
H360 C366 0.930 . S
H361 C369 0.930 . S
H362 C370 0.930 . S
H363 C371 0.930 . S
H364 C374 0.930 . S
H365 C375 0.930 . S
C366 H360 0.930 . S
C366 C367 1.355 . S
C366 C368 1.415 . S
C367 C366 1.355 . S
C367 C369 1.419 . S
C368 C366 1.415 . S
C368 C373 1.425 . S
C368 C375 1.409 . S
C369 H361 0.930 . S
C369 C367 1.419 . S
C369 C370 1.362 . S
C370 H362 0.930 . S
C370 C369 1.362 . S
C370 C373 1.409 . S
C371 H363 0.930 . S
C371 C372 1.355 . S
C371 C373 1.415 . S
C372 C371 1.355 . S
C372 C374 1.419 . S
C373 C368 1.425 . S
C373 C370 1.409 . S
C373 C371 1.415 . S
C374 H364 0.930 . S
C374 C372 1.419 . S
C374 C375 1.362 . S
C375 H365 0.930 . S
C375 C368 1.409 . S
C375 C374 1.362 . S
H376 C382 0.930 . S
H377 C385 0.930 . S
H378 C386 0.930 . S
H379 C387 0.930 . S
H380 C390 0.930 . S
H381 C391 0.930 . S
C382 H376 0.930 . S
C382 C383 1.355 . S
C382 C384 1.415 . S
C383 C382 1.355 . S
C383 C385 1.419 . S
C384 C382 1.415 . S
C384 C389 1.425 . S
C384 C391 1.409 . S
C385 H377 0.930 . S
C385 C383 1.419 . S
C385 C386 1.362 . S
C386 H378 0.930 . S
C386 C385 1.362 . S
C386 C389 1.409 . S
C387 H379 0.930 . S
C387 C388 1.355 . S
C387 C389 1.415 . S
C388 C387 1.355 . S
C388 C390 1.419 . S
C389 C384 1.425 . S
C389 C386 1.409 . S
C389 C387 1.415 . S
C390 H380 0.930 . S
C390 C388 1.419 . S
C390 C391 1.362 . S
C391 H381 0.930 . S
C391 C384 1.409 . S
C391 C390 1.362 . S
H392 C398 0.930 . S
H393 C401 0.930 . S
H394 C402 0.930 . S
H395 C403 0.930 . S
H396 C406 0.930 . S
H397 C407 0.930 . S
C398 H392 0.930 . S
C398 C399 1.355 . S
C398 C400 1.415 . S
C399 C398 1.355 . S
C399 C401 1.419 . S
C400 C398 1.415 . S
C400 C405 1.425 . S
C400 C407 1.409 . S
C401 H393 0.930 . S
C401 C399 1.419 . S
C401 C402 1.362 . S
C402 H394 0.930 . S
C402 C401 1.362 . S
C402 C405 1.409 . S
C403 H395 0.930 . S
C403 C404 1.355 . S
C403 C405 1.415 . S
C404 C403 1.355 . S
C404 C406 1.419 . S
C405 C400 1.425 . S
C405 C402 1.409 . S
C405 C403 1.415 . S
C406 H396 0.930 . S
C406 C404 1.419 . S
C406 C407 1.362 . S
C407 H397 0.930 . S
C407 C400 1.409 . S
C407 C406 1.362 . S
H408 C414 0.930 . S
H409 C417 0.930 . S
H410 C418 0.930 . S
H411 C419 0.930 . S
H412 C422 0.930 . S
H413 C423 0.930 . S
C414 H408 0.930 . S
C414 C415 1.355 . S
C414 C416 1.415 . S
C415 C414 1.355 . S
C415 C417 1.419 . S
C416 C414 1.415 . S
C416 C421 1.425 . S
C416 C423 1.409 . S
C417 H409 0.930 . S
C417 C415 1.419 . S
C417 C418 1.362 . S
C418 H410 0.930 . S
C418 C417 1.362 . S
C418 C421 1.409 . S
C419 H411 0.930 . S
C419 C420 1.355 . S
C419 C421 1.415 . S
C420 C419 1.355 . S
C420 C422 1.419 . S
C421 C416 1.425 . S
C421 C418 1.409 . S
C421 C419 1.415 . S
C422 H412 0.930 . S
C422 C420 1.419 . S
C422 C423 1.362 . S
C423 H413 0.930 . S
C423 C416 1.409 . S
C423 C422 1.362 . S
H424 C430 0.930 . S
H425 C433 0.930 . S
H426 C434 0.930 . S
H427 C435 0.930 . S
H428 C438 0.930 . S
H429 C439 0.930 . S
C430 H424 0.930 . S
C430 C431 1.355 . S
C430 C432 1.415 . S
C431 C430 1.355 . S
C431 C433 1.419 . S
C432 C430 1.415 . S
C432 C437 1.425 . S
C432 C439 1.409 . S
C433 H425 0.930 . S
C433 C431 1.419 . S
C433 C434 1.362 . S
C434 H426 0.930 . S
C434 C433 1.362 . S
C434 C437 1.409 . S
C435 H427 0.930 . S
C435 C436 1.355 . S
C435 C437 1.415 . S
C436 C435 1.355 . S
C436 C438 1.419 . S
C437 C432 1.425 . S
C437 C434 1.409 . S
C437 C435 1.415 . S
C438 H428 0.930 . S
C438 C436 1.419 . S
C438 C439 1.362 . S
C439 H429 0.930 . S
C439 C432 1.409 . S
C439 C438 1.362 . S
H440 C446 0.930 . S
H441 C449 0.930 . S
H442 C450 0.930 . S
H443 C451 0.930 . S
H444 C454 0.930 . S
H445 C455 0.930 . S
C446 H440 0.930 . S
C446 C447 1.355 . S
C446 C448 1.415 . S
C447 C446 1.355 . S
C447 C449 1.419 . S
C448 C446 1.415 . S
C448 C453 1.425 . S
C448 C455 1.409 . S
C449 H441 0.930 . S
C449 C447 1.419 . S
C449 C450 1.362 . S
C450 H442 0.930 . S
C450 C449 1.362 . S
C450 C453 1.409 . S
C451 H443 0.930 . S
C451 C452 1.355 . S
C451 C453 1.415 . S
C452 C451 1.355 . S
C452 C454 1.419 . S
C453 C448 1.425 . S
C453 C450 1.409 . S
C453 C451 1.415 . S
C454 H444 0.930 . S
C454 C452 1.419 . S
C454 C455 1.362 . S
C455 H445 0.930 . S
C455 C448 1.409 . S
C455 C454 1.362 . S
H456 C462 0.930 . S
H457 C465 0.930 . S
H458 C466 0.930 . S
H459 C467 0.930 . S
H460 C470 0.930 . S
H461 C471 0.930 . S
C462 H456 0.930 . S
C462 C463 1.355 . S
C462 C464 1.415 . S
C463 C462 1.355 . S
C463 C465 1.419 . S
C464 C462 1.415 . S
C464 C469 1.425 . S
C464 C471 1.409 . S
C465 H457 0.930 . S
C465 C463 1.419 . S
C465 C466 1.362 . S
C466 H458 0.930 . S
C466 C465 1.362 . S
C466 C469 1.409 . S
C467 H459 0.930 . S
C467 C468 1.355 . S
C467 C469 1.415 . S
C468 C467 1.355 . S
C468 C470 1.419 . S
C469 C464 1.425 . S
C469 C466 1.409 . S
C469 C467 1.415 . S
C470 H460 0.930 . S
C470 C468 1.419 . S
C470 C471 1.362 . S
C471 H461 0.930 . S
C471 C464 1.409 . S
C471 C470 1.362 . S
H472 C478 0.930 . S
H473 C481 0.930 . S
H474 C482 0.930 . S
H475 C483 0.930 . S
H476 C486 0.930 . S
H477 C487 0.930 . S
C478 H472 0.930 . S
C478 C479 1.355 . S
C478 C480 1.415 . S
C479 C478 1.355 . S
C479 C481 1.419 . S
C480 C478 1.415 . S
C480 C485 1.425 . S
C480 C487 1.409 . S
C481 H473 0.930 . S
C481 C479 1.419 . S
C481 C482 1.362 . S
C482 H474 0.930 . S
C482 C481 1.362 . S
C482 C485 1.409 . S
C483 H475 0.930 . S
C483 C484 1.355 . S
C483 C485 1.415 . S
C484 C483 1.355 . S
C484 C486 1.419 . S
C485 C480 1.425 . S
C485 C482 1.409 . S
C485 C483 1.415 . S
C486 H476 0.930 . S
C486 C484 1.419 . S
C486 C487 1.362 . S
C487 H477 0.930 . S
C487 C480 1.409 . S
C487 C486 1.362 . S
H488 C494 0.930 . S
H489 C497 0.930 . S
H490 C498 0.930 . S
H491 C499 0.930 . S
H492 C502 0.930 . S
H493 C503 0.930 . S
C494 H488 0.930 . S
C494 C495 1.355 . S
C494 C496 1.415 . S
C495 C494 1.355 . S
C495 C497 1.419 . S
C496 C494 1.415 . S
C496 C501 1.425 . S
C496 C503 1.409 . S
C497 H489 0.930 . S
C497 C495 1.419 . S
C497 C498 1.362 . S
C498 H490 0.930 . S
C498 C497 1.362 . S
C498 C501 1.409 . S
C499 H491 0.930 . S
C499 C500 1.355 . S
C499 C501 1.415 . S
C500 C499 1.355 . S
C500 C502 1.419 . S
C501 C496 1.425 . S
C501 C498 1.409 . S
C501 C499 1.415 . S
C502 H492 0.930 . S
C502 C500 1.419 . S
C502 C503 1.362 . S
C503 H493 0.930 . S
C503 C496 1.409 . S
C503 C502 1.362 . S
H504 C510 0.930 . S
H505 C513 0.930 . S
H506 C514 0.930 . S
H507 C515 0.930 . S
H508 C518 0.930 . S
H509 C519 0.930 . S
C510 H504 0.930 . S
C510 C511 1.355 . S
C510 C512 1.415 . S
C511 C510 1.355 . S
C511 C513 1.419 . S
C512 C510 1.415 . S
C512 C517 1.425 . S
C512 C519 1.409 . S
C513 H505 0.930 . S
C513 C511 1.419 . S
C513 C514 1.362 . S
C514 H506 0.930 . S
C514 C513 1.362 . S
C514 C517 1.409 . S
C515 H507 0.930 . S
C515 C516 1.355 . S
C515 C517 1.415 . S
C516 C515 1.355 . S
C516 C518 1.419 . S
C517 C512 1.425 . S
C517 C514 1.409 . S
C517 C515 1.415 . S
C518 H508 0.930 . S
C518 C516 1.419 . S
C518 C519 1.362 . S
C519 H509 0.930 . S
C519 C512 1.409 . S
C519 C518 1.362 . S
H520 C526 0.930 . S
H521 C529 0.930 . S
H522 C530 0.930 . S
H523 C531 0.930 . S
H524 C534 0.930 . S
H525 C535 0.930 . S
C526 H520 0.930 . S
C526 C527 1.355 . S
C526 C528 1.415 . S
C527 C526 1.355 . S
C527 C529 1.419 . S
C528 C526 1.415 . S
C528 C533 1.425 . S
C528 C535 1.409 . S
C529 H521 0.930 . S
C529 C527 1.419 . S
C529 C530 1.362 . S
C530 H522 0.930 . S
C530 C529 1.362 . S
C530 C533 1.409 . S
C531 H523 0.930 . S
C531 C532 1.355 . S
C531 C533 1.415 . S
C532 C531 1.355 . S
C532 C534 1.419 . S
C533 C528 1.425 . S
C533 C530 1.409 . S
C533 C531 1.415 . S
C534 H524 0.930 . S
C534 C532 1.419 . S
C534 C535 1.362 . S
C535 H525 0.930 . S
C535 C528 1.409 . S
C535 C534 1.362 . S
H536 C542 0.930 . S
H537 C545 0.930 . S
H538 C546 0.930 . S
H539 C547 0.930 . S
H540 C550 0.930 . S
H541 C551 0.930 1_545 S
C542 H536 0.930 . S
C542 C543 1.355 . S
C542 C544 1.415 1_545 S
C543 C542 1.355 . S
C543 C545 1.419 1_545 S
C544 C542 1.415 1_565 S
C544 C549 1.425 . S
C544 C551 1.409 . S
C545 H537 0.930 . S
C545 C543 1.419 1_565 S
C545 C546 1.362 . S
C546 H538 0.930 . S
C546 C545 1.362 . S
C546 C549 1.409 . S
C547 H539 0.930 . S
C547 C548 1.355 . S
C547 C549 1.415 . S
C548 C547 1.355 . S
C548 C550 1.419 . S
C549 C544 1.425 . S
C549 C546 1.409 . S
C549 C547 1.415 . S
C550 H540 0.930 . S
C550 C548 1.419 . S
C550 C551 1.362 . S
C551 H541 0.930 1_565 S
C551 C544 1.409 . S
C551 C550 1.362 . S
H552 C558 0.930 . S
H553 C561 0.930 . S
H554 C562 0.930 . S
H555 C563 0.930 . S
H556 C566 0.930 . S
H557 C567 0.930 . S
C558 H552 0.930 . S
C558 C559 1.355 1_556 S
C558 C560 1.415 . S
C559 C558 1.355 1_554 S
C559 C561 1.419 . S
C560 C558 1.415 . S
C560 C565 1.425 . S
C560 C567 1.409 . S
C561 H553 0.930 . S
C561 C559 1.419 . S
C561 C562 1.362 . S
C562 H554 0.930 . S
C562 C561 1.362 . S
C562 C565 1.409 1_554 S
C563 H555 0.930 . S
C563 C564 1.355 . S
C563 C565 1.415 . S
C564 C563 1.355 . S
C564 C566 1.419 . S
C565 C560 1.425 . S
C565 C562 1.409 1_556 S
C565 C563 1.415 . S
C566 H556 0.930 . S
C566 C564 1.419 . S
C566 C567 1.362 . S
C567 H557 0.930 . S
C567 C560 1.409 . S
C567 C566 1.362 . S
H568 C574 0.930 . S
H569 C577 0.930 . S
H570 C578 0.930 . S
H571 C579 0.930 . S
H572 C582 0.930 1_554 S
H573 C583 0.930 . S
C574 H568 0.930 . S
C574 C575 1.355 . S
C574 C576 1.415 . S
C575 C574 1.355 . S
C575 C577 1.419 . S
C576 C574 1.415 . S
C576 C581 1.425 . S
C576 C583 1.409 1_655 S
C577 H569 0.930 . S
C577 C575 1.419 . S
C577 C578 1.362 . S
C578 H570 0.930 . S
C578 C577 1.362 . S
C578 C581 1.409 . S
C579 H571 0.930 . S
C579 C580 1.355 1_655 S
C579 C581 1.415 . S
C580 C579 1.355 1_455 S
C580 C582 1.419 . S
C581 C576 1.425 . S
C581 C578 1.409 . S
C581 C579 1.415 . S
C582 H572 0.930 1_556 S
C582 C580 1.419 . S
C582 C583 1.362 . S
C583 H573 0.930 . S
C583 C576 1.409 1_455 S
C583 C582 1.362 . S
H584 C590 0.930 . S
H585 C593 0.930 . S
H586 C594 0.930 . S
H587 C595 0.930 . S
H588 C598 0.930 . S
H589 C599 0.930 . S
C590 H584 0.930 . S
C590 C591 1.355 . S
C590 C592 1.415 . S
C591 C590 1.355 . S
C591 C593 1.419 . S
C592 C590 1.415 . S
C592 C597 1.425 . S
C592 C599 1.409 . S
C593 H585 0.930 . S
C593 C591 1.419 . S
C593 C594 1.362 . S
C594 H586 0.930 . S
C594 C593 1.362 . S
C594 C597 1.409 . S
C595 H587 0.930 . S
C595 C596 1.355 1_556 S
C595 C597 1.415 . S
C596 C595 1.355 1_554 S
C596 C598 1.419 . S
C597 C592 1.425 . S
C597 C594 1.409 . S
C597 C595 1.415 . S
C598 H588 0.930 . S
C598 C596 1.419 . S
C598 C599 1.362 1_554 S
C599 H589 0.930 . S
C599 C592 1.409 . S
C599 C598 1.362 1_556 S
H600 C606 0.930 . S
H601 C609 0.930 . S
H602 C610 0.930 . S
H603 C611 0.930 . S
H604 C614 0.930 . S
H605 C615 0.930 . S
C606 H600 0.930 . S
C606 C607 1.355 . S
C606 C608 1.415 . S
C607 C606 1.355 . S
C607 C609 1.419 . S
C608 C606 1.415 . S
C608 C613 1.425 . S
C608 C615 1.409 . S
C609 H601 0.930 . S
C609 C607 1.419 . S
C609 C610 1.362 . S
C610 H602 0.930 . S
C610 C609 1.362 . S
C610 C613 1.409 . S
C611 H603 0.930 . S
C611 C612 1.355 . S
C611 C613 1.415 . S
C612 C611 1.355 . S
C612 C614 1.419 . S
C613 C608 1.425 . S
C613 C610 1.409 . S
C613 C611 1.415 . S
C614 H604 0.930 . S
C614 C612 1.419 . S
C614 C615 1.362 . S
C615 H605 0.930 . S
C615 C608 1.409 . S
C615 C614 1.362 . S
H616 C622 0.930 1_554 S
H617 C625 0.930 . S
H618 C626 0.930 . S
H619 C627 0.930 . S
H620 C630 0.930 . S
H621 C631 0.930 . S
C622 H616 0.930 1_556 S
C622 C623 1.355 . S
C622 C624 1.415 . S
C623 C622 1.355 . S
C623 C625 1.419 . S
C624 C622 1.415 . S
C624 C629 1.425 . S
C624 C631 1.409 . S
C625 H617 0.930 . S
C625 C623 1.419 . S
C625 C626 1.362 . S
C626 H618 0.930 . S
C626 C625 1.362 . S
C626 C629 1.409 . S
C627 H619 0.930 . S
C627 C628 1.355 . S
C627 C629 1.415 . S
C628 C627 1.355 . S
C628 C630 1.419 . S
C629 C624 1.425 . S
C629 C626 1.409 . S
C629 C627 1.415 . S
C630 H620 0.930 . S
C630 C628 1.419 . S
C630 C631 1.362 . S
C631 H621 0.930 . S
C631 C624 1.409 . S
C631 C630 1.362 . S
H632 C638 0.930 . S
H633 C641 0.930 . S
H634 C642 0.930 . S
H635 C643 0.930 . S
H636 C646 0.930 . S
H637 C647 0.930 . S
C638 H632 0.930 . S
C638 C639 1.355 . S
C638 C640 1.415 . S
C639 C638 1.355 . S
C639 C641 1.419 . S
C640 C638 1.415 . S
C640 C645 1.425 . S
C640 C647 1.409 1_556 S
C641 H633 0.930 . S
C641 C639 1.419 . S
C641 C642 1.362 . S
C642 H634 0.930 . S
C642 C641 1.362 . S
C642 C645 1.409 . S
C643 H635 0.930 . S
C643 C644 1.355 1_556 S
C643 C645 1.415 . S
C644 C643 1.355 1_554 S
C644 C646 1.419 . S
C645 C640 1.425 . S
C645 C642 1.409 . S
C645 C643 1.415 . S
C646 H636 0.930 . S
C646 C644 1.419 . S
C646 C647 1.362 . S
C647 H637 0.930 . S
C647 C640 1.409 1_554 S
C647 C646 1.362 . S
H648 C654 0.930 . S
H649 C657 0.930 . S
H650 C658 0.930 . S
H651 C659 0.930 . S
H652 C662 0.930 . S
H653 C663 0.930 . S
C654 H648 0.930 . S
C654 C655 1.355 . S
C654 C656 1.415 . S
C655 C654 1.355 . S
C655 C657 1.419 . S
C656 C654 1.415 . S
C656 C661 1.425 . S
C656 C663 1.409 1_545 S
C657 H649 0.930 . S
C657 C655 1.419 . S
C657 C658 1.362 . S
C658 H650 0.930 . S
C658 C657 1.362 . S
C658 C661 1.409 . S
C659 H651 0.930 . S
C659 C660 1.371 . S
C659 C661 1.415 . S
C660 C659 1.371 . S
C660 C662 1.418 1_545 S
C661 C656 1.425 . S
C661 C658 1.409 . S
C661 C659 1.415 . S
C662 H652 0.930 . S
C662 C660 1.418 1_565 S
C662 C663 1.362 . S
C663 H653 0.930 . S
C663 C656 1.409 1_565 S
C663 C662 1.362 . S
H664 C670 0.930 . S
H665 C673 0.930 . S
H666 C674 0.930 . S
H667 C675 0.930 . S
H668 C678 0.930 . S
H669 C679 0.930 . S
C670 H664 0.930 . S
C670 C671 1.355 . S
C670 C672 1.415 . S
C671 C670 1.355 . S
C671 C673 1.419 . S
C672 C670 1.415 . S
C672 C677 1.425 . S
C672 C679 1.409 . S
C673 H665 0.930 . S
C673 C671 1.419 . S
C673 C674 1.362 . S
C674 H666 0.930 . S
C674 C673 1.362 . S
C674 C677 1.409 . S
C675 H667 0.930 . S
C675 C676 1.355 . S
C675 C677 1.415 . S
C676 C675 1.355 . S
C676 C678 1.419 . S
C677 C672 1.425 . S
C677 C674 1.409 . S
C677 C675 1.415 . S
C678 H668 0.930 . S
C678 C676 1.419 . S
C678 C679 1.362 . S
C679 H669 0.930 . S
C679 C672 1.409 . S
C679 C678 1.362 . S
H680 C686 0.930 . S
H681 C689 0.930 . S
H682 C690 0.930 . S
H683 C691 0.930 . S
H684 C694 0.930 . S
H685 C695 0.930 . S
C686 H680 0.930 . S
C686 C687 1.355 . S
C686 C688 1.415 . S
C687 C686 1.355 . S
C687 C689 1.419 . S
C688 C686 1.415 . S
C688 C693 1.425 . S
C688 C695 1.409 . S
C689 H681 0.930 . S
C689 C687 1.419 . S
C689 C690 1.362 . S
C690 H682 0.930 . S
C690 C689 1.362 . S
C690 C693 1.409 . S
C691 H683 0.930 . S
C691 C692 1.355 . S
C691 C693 1.415 . S
C692 C691 1.355 . S
C692 C694 1.419 . S
C693 C688 1.425 . S
C693 C690 1.409 . S
C693 C691 1.415 . S
C694 H684 0.930 . S
C694 C692 1.419 . S
C694 C695 1.362 . S
C695 H685 0.930 . S
C695 C688 1.409 . S
C695 C694 1.362 . S
H696 C702 0.930 . S
H697 C705 0.930 . S
H698 C706 0.930 . S
H699 C707 0.930 . S
H700 C710 0.930 . S
H701 C711 0.930 . S
C702 H696 0.930 . S
C702 C703 1.355 . S
C702 C704 1.415 . S
C703 C702 1.355 . S
C703 C705 1.419 . S
C704 C702 1.415 . S
C704 C709 1.425 . S
C704 C711 1.409 . S
C705 H697 0.930 . S
C705 C703 1.419 . S
C705 C706 1.362 . S
C706 H698 0.930 . S
C706 C705 1.362 . S
C706 C709 1.409 . S
C707 H699 0.930 . S
C707 C708 1.355 . S
C707 C709 1.415 . S
C708 C707 1.355 . S
C708 C710 1.419 . S
C709 C704 1.425 . S
C709 C706 1.409 . S
C709 C707 1.415 . S
C710 H700 0.930 . S
C710 C708 1.419 . S
C710 C711 1.362 . S
C711 H701 0.930 . S
C711 C704 1.409 . S
C711 C710 1.362 . S
H712 C718 0.930 . S
H713 C721 0.930 . S
H714 C722 0.896 1_565 S
H715 C723 0.930 . S
H716 C726 0.930 . S
H717 C727 0.930 . S
C718 H712 0.930 . S
C718 C719 1.355 . S
C718 C720 1.415 . S
C719 C718 1.355 . S
C719 C721 1.419 . S
C720 C718 1.415 . S
C720 C725 1.425 1_545 S
C720 C727 1.409 . S
C721 H713 0.930 . S
C721 C719 1.419 . S
C721 C722 1.385 . S
C722 H714 0.896 1_545 S
C722 C721 1.385 . S
C722 C725 1.422 1_545 S
C723 H715 0.930 . S
C723 C724 1.355 . S
C723 C725 1.415 . S
C724 C723 1.355 . S
C724 C726 1.419 . S
C725 C720 1.425 1_565 S
C725 C722 1.422 1_565 S
C725 C723 1.415 . S
C726 H716 0.930 . S
C726 C724 1.419 . S
C726 C727 1.362 1_565 S
C727 H717 0.930 . S
C727 C720 1.409 . S
C727 C726 1.362 1_545 S
H728 C734 0.930 . S
H729 C737 0.930 . S
H730 C738 0.930 . S
H731 C739 0.930 . S
H732 C742 0.931 . S
H733 C743 0.930 . S
C734 H728 0.930 . S
C734 C735 1.355 . S
C734 C736 1.415 . S
C735 C734 1.355 . S
C735 C737 1.419 1_655 S
C736 C734 1.415 . S
C736 C741 1.425 1_655 S
C736 C743 1.409 . S
C737 H729 0.930 . S
C737 C735 1.419 1_455 S
C737 C738 1.362 . S
C738 H730 0.930 . S
C738 C737 1.362 . S
C738 C741 1.409 . S
C739 H731 0.930 . S
C739 C740 1.355 . S
C739 C741 1.415 . S
C740 C739 1.355 . S
C740 C742 1.419 . S
C741 C736 1.425 1_455 S
C741 C738 1.409 . S
C741 C739 1.415 . S
C742 H732 0.931 . S
C742 C740 1.419 . S
C742 C743 1.362 1_455 S
C743 H733 0.930 . S
C743 C736 1.409 . S
C743 C742 1.362 1_655 S
H744 C750 0.930 . S
H745 C753 0.930 . S
H746 C754 0.930 . S
H747 C755 0.930 . S
H748 C758 0.930 . S
H749 C759 0.930 . S
C750 H744 0.930 . S
C750 C751 1.355 . S
C750 C752 1.415 . S
C751 C750 1.355 . S
C751 C753 1.419 . S
C752 C750 1.415 . S
C752 C757 1.425 . S
C752 C759 1.409 . S
C753 H745 0.930 . S
C753 C751 1.419 . S
C753 C754 1.362 . S
C754 H746 0.930 . S
C754 C753 1.362 . S
C754 C757 1.409 . S
C755 H747 0.930 . S
C755 C756 1.355 . S
C755 C757 1.415 . S
C756 C755 1.355 . S
C756 C758 1.419 . S
C757 C752 1.425 . S
C757 C754 1.409 . S
C757 C755 1.415 . S
C758 H748 0.930 . S
C758 C756 1.419 . S
C758 C759 1.362 . S
C759 H749 0.930 . S
C759 C752 1.409 . S
C759 C758 1.362 . S
H760 C766 0.930 . S
H761 C769 0.930 . S
H762 C770 0.930 . S
H763 C771 0.930 . S
H764 C774 0.930 . S
H765 C775 0.930 . S
C766 H760 0.930 . S
C766 C767 1.355 . S
C766 C768 1.415 1_565 S
C767 C766 1.355 . S
C767 C769 1.419 . S
C768 C766 1.415 1_545 S
C768 C773 1.425 . S
C768 C775 1.409 . S
C769 H761 0.930 . S
C769 C767 1.419 . S
C769 C770 1.362 1_565 S
C770 H762 0.930 . S
C770 C769 1.362 1_545 S
C770 C773 1.409 . S
C771 H763 0.930 . S
C771 C772 1.355 . S
C771 C773 1.415 . S
C772 C771 1.355 . S
C772 C774 1.419 . S
C773 C768 1.425 . S
C773 C770 1.409 . S
C773 C771 1.415 . S
C774 H764 0.930 . S
C774 C772 1.419 . S
C774 C775 1.362 . S
C775 H765 0.930 . S
C775 C768 1.409 . S
C775 C774 1.362 . S
H776 C782 0.930 . S
H777 C785 0.930 . S
H778 C786 0.930 . S
H779 C787 0.930 1_655 S
H780 C790 0.930 . S
H781 C791 0.930 . S
C782 H776 0.930 . S
C782 C783 1.355 1_455 S
C782 C784 1.415 . S
C783 C782 1.355 1_655 S
C783 C785 1.419 . S
C784 C782 1.415 . S
C784 C789 1.425 1_455 S
C784 C791 1.409 . S
C785 H777 0.930 . S
C785 C783 1.419 . S
C785 C786 1.362 . S
C786 H778 0.930 . S
C786 C785 1.362 . S
C786 C789 1.409 . S
C787 H779 0.930 1_455 S
C787 C788 1.355 . S
C787 C789 1.415 1_455 S
C788 C787 1.355 . S
C788 C790 1.419 . S
C789 C784 1.425 1_655 S
C789 C786 1.409 . S
C789 C787 1.415 1_655 S
C790 H780 0.930 . S
C790 C788 1.419 . S
C790 C791 1.362 . S
C791 H781 0.930 . S
C791 C784 1.409 . S
C791 C790 1.362 . S
C367 C17 3.505 . S
C372 C2 3.505 . S
C383 C42 3.579 . S
C388 C57 3.579 . S
C399 C97 3.618 . S
C404 C82 3.618 . S
C415 C122 3.520 . S
C420 C137 3.520 1_556 S
C431 C177 3.587 . S
C436 C162 3.587 1_556 S
C447 C202 3.611 . S
C452 C217 3.611 1_556 S
C463 C248 1.766 . S
C468 C269 1.766 . S
C479 C309 2.170 . S
C484 C288 2.170 . S
C495 C328 1.423 . S
C500 C349 1.423 . S
C511 C231 1.622 . S
C516 C8 1.621 . S
C527 C71 2.599 . S
C532 C151 2.621 . S
C543 C88 1.042 . S
C548 C168 1.088 . S
C559 C111 3.053 . S
C564 C252 3.100 . S
C575 C282 1.317 . S
C580 C31 1.321 1_556 S
C591 C332 1.874 . S
C596 C48 1.770 . S
C607 C337 0.939 . S
C612 C29 0.850 . S
C623 C52 2.299 1_556 S
C628 C257 2.317 . S
C639 C311 2.778 . S
C644 C109 2.686 . S
C655 C92 1.627 . S
C660 C149 1.595 1_545 S
C671 C172 2.610 . S
C676 C12 2.625 . S
C687 C69 1.094 . S
C692 C229 1.041 . S
C703 C322 0.962 . S
C708 C128 0.964 . S
C719 C242 2.312 . S
C724 C191 2.336 . S
C735 C292 2.780 . S
C740 C208 2.688 . S
C751 C271 3.098 . S
C756 C212 3.022 . S
C767 C132 1.306 . S
C772 C297 1.324 . S
C783 C351 1.858 . S
C788 C189 1.741 . S
