# Generated by pormake.
# Topology afw, (4)-cn, num edge types: 1
# Building blocks:
#     Node 0, Type 0, BuildingBlock: UXUYUI_clean_sbu_0, # of connection points: 4
#     Node 1, Type 0, BuildingBlock: UXUYUI_clean_sbu_0, # of connection points: 4
#     Node 2, Type 0, BuildingBlock: UXUYUI_clean_sbu_0, # of connection points: 4
#     Node 3, Type 0, BuildingBlock: UXUYUI_clean_sbu_0, # of connection points: 4
#     Node 4, Type 0, BuildingBlock: UXUYUI_clean_sbu_0, # of connection points: 4
#     Node 5, Type 0, BuildingBlock: UXUYUI_clean_sbu_0, # of connection points: 4
#     Node 6, Type 0, BuildingBlock: UXUYUI_clean_sbu_0, # of connection points: 4
#     Node 7, Type 0, BuildingBlock: UXUYUI_clean_sbu_0, # of connection points: 4
#     Node 8, Type 0, BuildingBlock: UXUYUI_clean_sbu_0, # of connection points: 4
#     Edge 9, Type (0, 0), BuildingBlock: XUDNAN_clean_linker_2, # of connection points: 2
#     Edge 10, Type (0, 0), BuildingBlock: XUDNAN_clean_linker_2, # of connection points: 2
#     Edge 11, Type (0, 0), BuildingBlock: XUDNAN_clean_linker_2, # of connection points: 2
#     Edge 12, Type (0, 0), BuildingBlock: XUDNAN_clean_linker_2, # of connection points: 2
#     Edge 13, Type (0, 0), BuildingBlock: XUDNAN_clean_linker_2, # of connection points: 2
#     Edge 14, Type (0, 0), BuildingBlock: XUDNAN_clean_linker_2, # of connection points: 2
#     Edge 15, Type (0, 0), BuildingBlock: XUDNAN_clean_linker_2, # of connection points: 2
#     Edge 16, Type (0, 0), BuildingBlock: XUDNAN_clean_linker_2, # of connection points: 2
#     Edge 17, Type (0, 0), BuildingBlock: XUDNAN_clean_linker_2, # of connection points: 2
#     Edge 18, Type (0, 0), BuildingBlock: XUDNAN_clean_linker_2, # of connection points: 2
#     Edge 19, Type (0, 0), BuildingBlock: XUDNAN_clean_linker_2, # of connection points: 2
#     Edge 20, Type (0, 0), BuildingBlock: XUDNAN_clean_linker_2, # of connection points: 2
#     Edge 21, Type (0, 0), BuildingBlock: XUDNAN_clean_linker_2, # of connection points: 2
#     Edge 22, Type (0, 0), BuildingBlock: XUDNAN_clean_linker_2, # of connection points: 2
#     Edge 23, Type (0, 0), BuildingBlock: XUDNAN_clean_linker_2, # of connection points: 2
#     Edge 24, Type (0, 0), BuildingBlock: XUDNAN_clean_linker_2, # of connection points: 2
#     Edge 25, Type (0, 0), BuildingBlock: XUDNAN_clean_linker_2, # of connection points: 2
#     Edge 26, Type (0, 0), BuildingBlock: XUDNAN_clean_linker_2, # of connection points: 2
# Relax obj value: 0.350
# Max RMSD: 0.270
# Mean RMSD: 0.270
data_MOF--net-afw--node1-UXUYUI_clean_sbu_0--edge1-XUDNAN_clean_linker_2
_symmetry_space_group_name_H-M    P1
_symmetry_Int_Tables_number       1
_symmetry_cell_setting            triclinic
loop_
_symmetry_equiv_pos_as_xyz
'x, y, z'
_cell_length_a     57.367142
_cell_length_b     57.352993
_cell_length_c     53.751254
_cell_angle_alpha  89.991612
_cell_angle_beta   90.008217
_cell_angle_gamma 119.97797
loop_
_atom_site_label
_atom_site_type_symbol
_atom_site_fract_x
_atom_site_fract_y
_atom_site_fract_z
_atom_type_partial_charge
Li0 Li 0.01492 0.24549 0.02826 0.0
Li1 Li 0.98842 0.20412 0.0045 0.0
Li2 Li 0.03926 0.22999 0.00341 0.0
Li3 Li 0.01348 0.2478 0.98246 0.0
C4 C 0.01144 0.20637 0.05654 0.0
N5 N 0.00475 0.19846 0.10732 0.0
C6 C 0.9857 0.19059 0.06655 0.0
C7 C 0.0338 0.21787 0.0723 0.0
C8 C 0.98273 0.18688 0.09229 0.0
C9 C 0.02999 0.21371 0.09794 0.0
C10 C 0.95833 0.23002 -0.00216 0.0
C11 C 0.92566 0.21512 0.96468 0.0
N12 N 0.90848 0.21825 0.97988 0.0
C13 C 0.94039 0.23321 0.01311 0.0
C14 C 0.95095 0.22098 0.97341 0.0
C15 C 0.91526 0.22711 0.00369 0.0
C16 C 0.03743 0.28527 0.06609 0.0
N17 N 0.01488 0.2628 0.05824 0.0
C18 C 0.99035 0.26398 0.09359 0.0
C19 C 0.99155 0.25213 0.07136 0.0
C20 C 0.01335 0.28718 0.10227 0.0
C21 C 0.03715 0.29781 0.08824 0.0
H22 H 0.05557 0.29361 0.0551 0.0
H23 H 0.97391 0.2343 0.06458 0.0
C24 C 0.96632 0.14939 0.00172 0.0
N25 N 0.9589 0.16834 0.00402 0.0
C26 C 0.94696 0.12214 0.00143 0.0
C27 C 0.91247 0.13434 0.0057 0.0
C28 C 0.93259 0.16141 0.00626 0.0
C29 C 0.91953 0.11423 0.00327 0.0
H30 H 0.98744 0.15554 0.00031 0.0
H31 H 0.92709 0.17671 0.0086 0.0
C32 C 0.07218 0.28333 0.00454 0.0
N33 N 0.12753 0.31551 0.00325 0.0
C34 C 0.08463 0.30069 0.98448 0.0
C35 C 0.08787 0.28255 0.02407 0.0
C36 C 0.11264 0.31676 0.98414 0.0
C37 C 0.11582 0.2989 0.02304 0.0
C38 C 0.01085 0.20468 0.95196 0.0
C39 C 0.03383 0.21241 0.93753 0.0
C40 C 0.98552 0.18678 0.94212 0.0
C41 C 0.03105 0.20272 0.91323 0.0
C42 C 0.98357 0.17749 0.91776 0.0
N43 N 0.00618 0.18562 0.90392 0.0
C44 C 0.06783 0.20416 0.01536 0.0
C45 C 0.09034 0.23879 0.98551 0.0
C46 C 0.08796 0.19735 0.01394 0.0
N47 N 0.06929 0.22446 0.00119 0.0
C48 C 0.11115 0.23287 0.98375 0.0
C49 C 0.10986 0.21166 -0.00215 0.0
H50 H 0.05074 0.19291 0.02746 0.0
H51 H 0.09079 0.25448 0.97406 0.0
C52 C -0.0019 0.28053 0.95548 0.0
N53 N 0.01354 0.26868 0.95492 0.0
C54 C -0.00155 0.29631 0.93556 0.0
C55 C 0.03169 0.28862 0.91547 0.0
C56 C 0.03029 0.27258 0.93555 0.0
C57 C 0.01551 0.30066 0.91519 0.0
H58 H 0.98565 0.27796 0.97147 0.0
H59 H 0.04325 0.26397 0.93605 0.0
O60 O 0.0147 0.21069 0.03145 0.0
O61 O 0.9829 0.23569 0.0069 0.0
O62 O 0.04477 0.26736 0.00512 0.0
O63 O 0.01323 0.21366 0.97595 0.0
H64 H 0.96818 0.1816 0.05462 0.0
H65 H 0.05386 0.22994 0.06483 0.0
H66 H 0.96292 0.17488 0.10032 0.0
H67 H 0.04709 0.22262 0.11038 0.0
H68 H 0.91973 0.20813 0.9458 0.0
H69 H 0.9458 0.24028 0.03204 0.0
H70 H 0.96473 0.21883 0.96126 0.0
H71 H 0.90116 0.22942 0.01532 0.0
H72 H 0.97168 0.25492 0.10399 0.0
H73 H 0.0552 0.31588 0.0941 0.0
H74 H 0.95355 0.10748 0.0002 0.0
H75 H 0.89163 0.12929 0.00702 0.0
H76 H 0.07281 0.30182 0.96936 0.0
H77 H 0.07857 0.26923 0.03972 0.0
H78 H 0.12255 0.33022 0.9687 0.0
H79 H 0.12821 0.29835 0.03794 0.0
H80 H 0.05361 0.22597 0.9449 0.0
H81 H 0.96751 0.17993 0.95318 0.0
H82 H 0.04868 0.20876 0.90179 0.0
H83 H 0.96407 0.16373 0.90989 0.0
H84 H 0.08635 0.18094 0.02521 0.0
H85 H 0.12759 0.24415 0.97093 0.0
H86 H 0.98551 0.305 0.93622 0.0
H87 H 0.04586 0.29206 0.90068 0.0
Li88 Li 0.82897 0.80492 0.00342 0.0
Li89 Li 0.78508 0.7862 0.02331 0.0
Li90 Li 0.78884 0.78697 0.97831 0.0
Li91 Li 0.80287 0.82854 0.0007 0.0
C92 C 0.80675 0.7515 0.98971 0.0
N93 N 0.82231 0.7198 0.96401 0.0
C94 C 0.7969 0.72472 0.99671 0.0
C95 C 0.82453 0.76217 0.96964 0.0
C96 C 0.80501 0.70902 0.98348 0.0
C97 C 0.83214 0.74582 0.95688 0.0
C98 C 0.82453 0.82943 0.05398 0.0
C99 C 0.82352 0.85548 0.08877 0.0
N100 N 0.83837 0.84755 0.10233 0.0
C101 C 0.84015 0.82191 0.06812 0.0
C102 C 0.81645 0.84667 0.06426 0.0
C103 C 0.84677 0.83112 0.09258 0.0
C104 C 0.88436 0.8338 0.99711 0.0
N105 N 0.86416 0.81076 0.007 0.0
C106 C 0.89558 0.79908 0.02364 0.0
C107 C 0.86912 0.79331 0.0199 0.0
C108 C 0.91694 0.82295 0.01388 0.0
C109 C 0.91104 0.8403 0.00028 0.0
H110 H 0.8797 0.84739 0.98721 0.0
H111 H 0.85255 0.77519 0.02767 0.0
C112 C 0.73781 0.75424 0.05212 0.0
N113 N 0.76502 0.76549 0.05113 0.0
C114 C 0.72346 0.73861 0.07253 0.0
C115 C 0.76524 0.74536 0.08993 0.0
C116 C 0.77876 0.76096 0.06927 0.0
C117 C 0.73721 0.73404 0.09183 0.0
H118 H 0.72712 0.75707 0.03696 0.0
H119 H 0.80016 0.76895 0.06741 0.0
C120 C 0.82169 0.83471 0.95256 0.0
N121 N 0.81964 0.8607 0.91004 0.0
C122 C 0.79786 0.8342 0.94597 0.0
C123 C 0.84447 0.84846 0.93754 0.0
C124 C 0.79723 0.84746 0.9244 0.0
C125 C 0.84303 0.86147 0.91611 0.0
C126 C 0.74676 0.80224 0.00638 0.0
C127 C 0.72595 0.79825 0.99029 0.0
C128 C 0.7479 0.81236 0.03027 0.0
C129 C 0.70659 0.80453 -0.0016 0.0
C130 C 0.72817 0.81837 0.03769 0.0
N131 N 0.7081 0.81438 0.02173 0.0
C132 C 0.74541 0.74791 0.95158 0.0
C133 C 0.78481 0.77235 0.92716 0.0
C134 C 0.73093 0.73334 0.93079 0.0
N135 N 0.77169 0.76719 0.94931 0.0
C136 C 0.77099 0.75857 0.90581 0.0
C137 C 0.74366 0.739 0.9075 0.0
H138 H 0.73562 0.74424 0.96951 0.0
H139 H 0.80586 0.78744 0.92596 0.0
C140 C 0.83413 0.88324 0.00431 0.0
N141 N 0.80816 0.86396 0.00024 0.0
C142 C 0.84146 0.91034 0.00427 0.0
C143 C 0.7951 0.89736 0.99597 0.0
C144 C 0.78871 0.87043 0.99581 0.0
C145 C 0.8218 0.91764 0.00016 0.0
H146 H 0.84915 0.87744 0.00758 0.0
H147 H 0.76833 0.85487 0.99196 0.0
O148 O 0.79889 0.76702 0.00254 0.0
O149 O 0.81821 0.82095 0.02986 0.0
O150 O 0.82292 0.82195 0.97362 0.0
O151 O 0.76601 0.7965 -0.00147 0.0
H152 H 0.78313 0.71618 0.01222 0.0
H153 H 0.83242 0.78284 0.96395 0.0
H154 H 0.79754 0.68825 0.9887 0.0
H155 H 0.84588 0.75381 0.94132 0.0
H156 H 0.81731 0.86874 0.09698 0.0
H157 H 0.84694 0.80894 0.06035 0.0
H158 H 0.80506 0.8534 0.05338 0.0
H159 H 0.85865 0.82525 0.1038 0.0
H160 H 0.89931 0.78517 0.03415 0.0
H161 H 0.9269 0.85914 0.99284 0.0
H162 H 0.70186 0.73021 0.07316 0.0
H163 H 0.77658 0.74165 0.10393 0.0
H164 H 0.77999 0.82365 0.95728 0.0
H165 H 0.86307 0.84902 0.94237 0.0
H166 H 0.77892 0.84721 0.91907 0.0
H167 H 0.86051 0.87217 0.9043 0.0
H168 H 0.72485 0.79048 0.97171 0.0
H169 H 0.76367 0.81523 0.043 0.0
H170 H 0.69039 0.80159 0.98614 0.0
H171 H 0.72878 0.82617 0.05615 0.0
H172 H 0.70979 0.71854 0.9327 0.0
H173 H 0.78144 0.7633 0.88813 0.0
H174 H 0.86224 0.92543 0.00776 0.0
H175 H 0.77948 0.90231 0.99248 0.0
Li176 Li 0.22642 0.04514 0.99522 0.0
Li177 Li 0.24307 0.024 0.02351 0.0
Li178 Li 0.23584 0.01265 0.97935 0.0
Li179 Li 0.19766 0.99784 0.00676 0.0
C180 C 0.27941 0.07453 0.99377 0.0
N181 N 0.31337 0.12967 0.99236 0.0
C182 C 0.29078 0.08883 0.0157 0.0
C183 C 0.28565 0.08826 0.97107 0.0
C184 C 0.30782 0.1167 0.01462 0.0
C185 C 0.30275 0.11614 0.97076 0.0
C186 C 0.19347 0.03651 0.03599 0.0
C187 C 0.17543 0.05484 0.06575 0.0
N188 N 0.15577 0.05086 0.04929 0.0
C189 C 0.17305 0.0326 0.01937 0.0
C190 C 0.19469 0.04776 0.05936 0.0
C191 C 0.1542 0.03998 0.02644 0.0
C192 C 0.21015 0.07768 0.96992 0.0
N193 N 0.22493 0.07715 0.98945 0.0
C194 C 0.22971 0.11825 0.00533 0.0
C195 C 0.23496 0.097 0.00688 0.0
C196 C 0.21348 0.11861 0.98598 0.0
C197 C 0.20414 0.09834 0.96782 0.0
H198 H 0.20172 0.0613 0.95674 0.0
H199 H 0.24571 0.09552 0.02275 0.0
C200 C 0.27865 0.01382 0.05061 0.0
N201 N 0.26434 0.02685 0.05136 0.0
C202 C 0.29323 0.01384 0.07138 0.0
C203 C 0.27868 0.04139 0.09295 0.0
C204 C 0.26405 0.04048 0.0719 0.0
C205 C 0.29332 0.02776 0.09285 0.0
H206 H 0.27839 0.0031 0.03397 0.0
H207 H 0.25239 0.05056 0.0719 0.0
C208 C 0.1993 0.0102 0.94837 0.0
N209 N 0.19343 0.00103 0.89765 0.0
C210 C 0.17661 0.9875 0.93893 0.0
C211 C 0.21868 0.02853 0.93195 0.0
C212 C 0.17408 0.98314 0.91325 0.0
C213 C 0.21547 0.02346 0.9064 0.0
C214 C 0.21904 0.96793 0.02516 0.0
C215 C 0.22132 0.94542 0.01927 0.0
C216 C 0.20989 0.96997 0.04873 0.0
C217 C 0.21448 0.92533 0.03713 0.0
C218 C 0.20326 0.94945 0.06606 0.0
N219 N 0.20568 0.92774 0.05996 0.0
C220 C 0.27314 0.0167 0.94258 0.0
C221 C 0.23285 0.97455 0.94572 0.0
C222 C 0.28298 0.00654 0.92433 0.0
N223 N 0.24858 0.00057 0.95287 0.0
C224 C 0.24186 0.96358 0.92757 0.0
C225 C 0.26739 0.97953 0.91686 0.0
H226 H 0.2853 0.03723 0.94892 0.0
H227 H 0.21346 0.96226 0.95443 0.0
C228 C 0.14909 0.96801 0.03495 0.0
N229 N 0.16286 0.96845 0.01419 0.0
C230 C 0.1233 0.94643 0.03932 0.0
C231 C 0.12694 0.92545 0.00165 0.0
C232 C 0.15274 0.94734 -0.00187 0.0
C233 C 0.11173 0.92507 0.02225 0.0
H234 H 0.15798 0.98441 0.0481 0.0
H235 H 0.16473 0.9476 0.98251 0.0
O236 O 0.26245 0.04725 0.9945 0.0
O237 O 0.21276 0.03032 0.02922 0.0
O238 O 0.20238 0.01467 0.97351 0.0
O239 O 0.22558 0.98767 0.00778 0.0
H240 H 0.28632 0.07862 0.03341 0.0
H241 H 0.27748 0.07757 0.95384 0.0
H242 H 0.31659 0.12801 0.03149 0.0
H243 H 0.30763 0.12701 0.95333 0.0
H244 H 0.17616 0.06357 0.08377 0.0
H245 H 0.17172 0.02401 0.00118 0.0
H246 H 0.21041 0.05109 0.07242 0.0
H247 H 0.13835 0.03711 0.01374 0.0
H248 H 0.23682 0.13328 0.01992 0.0
H249 H 0.19147 0.09794 0.95269 0.0
H250 H 0.30449 0.0033 0.0706 0.0
H251 H 0.27818 0.0522 0.10928 0.0
H252 H 0.16094 0.97353 0.9512 0.0
H253 H 0.2361 0.04637 0.93891 0.0
H254 H 0.15667 0.96559 0.90571 0.0
H255 H 0.23049 0.03737 0.89354 0.0
H256 H 0.2283 0.94353 0.00107 0.0
H257 H 0.20791 0.98719 0.0536 0.0
H258 H 0.21617 0.9078 0.03283 0.0
H259 H 0.19618 0.95078 0.08437 0.0
H260 H 0.30287 0.01942 0.91671 0.0
H261 H 0.22903 0.9428 0.92207 0.0
H262 H 0.11223 0.94688 0.05546 0.0
H263 H 0.11891 0.90906 0.98836 0.0
Li264 Li 0.6576 0.53109 0.32704 0.0
Li265 Li 0.67814 0.56787 0.35714 0.0
Li266 Li 0.68181 0.57683 0.31274 0.0
Li267 Li 0.70654 0.55758 0.33263 0.0
C268 C 0.62159 0.54637 0.33365 0.0
N269 N 0.56603 0.5168 0.33507 0.0
C270 C 0.60799 0.54212 0.35626 0.0
C271 C 0.6069 0.53564 0.31176 0.0
C272 C 0.5799 0.52712 0.35658 0.0
C273 C 0.57883 0.52071 0.31287 0.0
C274 C 0.68953 0.51929 0.36612 0.0
C275 C 0.72255 0.51583 0.39121 0.0
N276 N 0.71338 0.49046 0.38246 0.0
C277 C 0.68035 0.49314 0.35747 0.0
C278 C 0.7107 0.5307 0.38324 0.0
C279 C 0.69268 0.4789 0.36595 0.0
C280 C 0.62731 0.48315 0.29971 0.0
N281 N 0.62838 0.49589 0.32133 0.0
C282 C 0.58842 0.45735 0.33603 0.0
C283 C 0.60966 0.48353 0.33947 0.0
C284 C 0.58687 0.44343 0.31399 0.0
C285 C 0.60669 0.45678 0.29565 0.0
H286 H 0.64284 0.49323 0.28586 0.0
H287 H 0.61138 0.49397 0.35671 0.0
C288 C 0.66561 0.59834 0.39014 0.0
N289 N 0.67239 0.57882 0.38865 0.0
C290 C 0.6582 0.60432 0.41296 0.0
C291 C 0.66544 0.57033 0.43222 0.0
C292 C 0.67272 0.56506 0.40908 0.0
C293 C 0.65752 0.5898 0.43426 0.0
H294 H 0.66493 0.6085 0.37344 0.0
H295 H 0.67773 0.54933 0.40728 0.0
C296 C 0.69147 0.5516 0.27686 0.0
N297 N 0.70378 0.56574 0.22747 0.0
C298 C 0.71819 0.56406 0.2688 0.0
C299 C 0.67099 0.54613 0.25978 0.0
C300 C 0.724 0.57106 0.24374 0.0
C301 C 0.67763 0.55353 0.2349 0.0
C302 C 0.7201 0.61576 0.35256 0.0
C303 C 0.71577 0.63676 0.34555 0.0
C304 C 0.73314 0.61736 0.37501 0.0
C305 C 0.72444 0.65901 0.36123 0.0
C306 C 0.74145 0.63992 0.3902 0.0
N307 N 0.73697 0.6601 0.38305 0.0
C308 C 0.66027 0.59918 0.27929 0.0
C309 C 0.70733 0.61662 0.27612 0.0
C310 C 0.66063 0.61387 0.25847 0.0
N311 N 0.68329 0.6003 0.28723 0.0
C312 C 0.70864 0.63164 0.25523 0.0
C313 C 0.68496 0.62993 0.24586 0.0
H314 H 0.64152 0.5864 0.28873 0.0
H315 H 0.72532 0.61716 0.28298 0.0
C316 C 0.73562 0.53204 0.32156 0.0
N317 N 0.73805 0.55465 0.33214 0.0
C318 C 0.75671 0.52664 0.32294 0.0
C319 C 0.78298 0.56858 0.34506 0.0
C320 C 0.76125 0.57311 0.34334 0.0
C321 C 0.78069 0.54483 0.33513 0.0
H322 H 0.71684 0.51771 0.31285 0.0
H323 H 0.76264 0.59099 0.35148 0.0
O324 O 0.64912 0.56082 0.33297 0.0
O325 O 0.67822 0.53385 0.35753 0.0
O326 O 0.68544 0.54521 0.30142 0.0
O327 O 0.71143 0.59365 0.33764 0.0
H328 H 0.61895 0.55007 0.37342 0.0
H329 H 0.61707 0.53841 0.29414 0.0
H330 H 0.56913 0.5236 0.37396 0.0
H331 H 0.56724 0.51214 0.29609 0.0
H332 H 0.73913 0.52451 0.40424 0.0
H333 H 0.66409 0.48402 0.34414 0.0
H334 H 0.71825 0.55102 0.38993 0.0
H335 H 0.68588 0.4587 0.35931 0.0
H336 H 0.57354 0.44811 0.3506 0.0
H337 H 0.60686 0.44675 0.27865 0.0
H338 H 0.65186 0.6192 0.41367 0.0
H339 H 0.66539 0.55886 0.44825 0.0
H340 H 0.73431 0.56859 0.2818 0.0
H341 H 0.65022 0.53663 0.26574 0.0
H342 H 0.7446 0.58085 0.23726 0.0
H343 H 0.66201 0.54965 0.22152 0.0
H344 H 0.70562 0.6358 0.3283 0.0
H345 H 0.73641 0.60116 0.38083 0.0
H346 H 0.72114 0.67537 0.3561 0.0
H347 H 0.75138 0.64135 0.4077 0.0
H348 H 0.64201 0.61237 0.2521 0.0
H349 H 0.72779 0.64355 0.24594 0.0
H350 H 0.75378 0.50785 0.31539 0.0
H351 H 0.8012 0.58329 0.35435 0.0
Li352 Li 0.49322 0.13653 0.33542 0.0
Li353 Li 0.45159 0.12023 0.35887 0.0
Li354 Li 0.45124 0.11605 0.31375 0.0
Li355 Li 0.46726 0.15998 0.33365 0.0
C356 C 0.45155 0.07321 0.33082 0.0
N357 N 0.42565 0.02083 0.31357 0.0
C358 C 0.42884 0.05335 0.34319 0.0
C359 C 0.46116 0.06641 0.30975 0.0
C360 C 0.41603 0.02698 0.33417 0.0
C361 C 0.44774 0.03983 0.30128 0.0
C362 C 0.48875 0.15827 0.38737 0.0
C363 C 0.47702 0.16952 0.42688 0.0
N364 N 0.49371 0.16255 0.43851 0.0
C365 C 0.50591 0.15138 0.39967 0.0
C366 C 0.4743 0.16759 0.40102 0.0
C367 C 0.50811 0.15363 0.42556 0.0
C368 C 0.5484 0.16819 0.34216 0.0
N369 N 0.52893 0.14287 0.33606 0.0
C370 C 0.56182 0.1298 0.32836 0.0
C371 C 0.53499 0.1236 0.32955 0.0
C372 C 0.58243 0.15599 0.33411 0.0
C373 C 0.5754 0.17524 0.34128 0.0
H374 H 0.5429 0.18308 0.34714 0.0
H375 H 0.51906 0.1036 0.32488 0.0
C376 C 0.41018 0.10106 0.39535 0.0
N377 N 0.43413 0.10335 0.38888 0.0
C378 C 0.39756 0.08824 0.4175 0.0
C379 C 0.43464 0.08057 0.42579 0.0
C380 C 0.44636 0.09329 0.40344 0.0
C381 C 0.40979 0.07772 0.43303 0.0
H382 H 0.40072 0.1089 0.38319 0.0
H383 H 0.46526 0.09515 0.39761 0.0
C384 C 0.50746 0.1631 0.2936 0.0
N385 N 0.55749 0.18841 0.27115 0.0
C386 C 0.52405 0.19099 0.29557 0.0
C387 C 0.51622 0.14812 0.28003 0.0
C388 C 0.54928 0.2034 0.2841 0.0
C389 C 0.54162 0.16128 0.26889 0.0
C390 C 0.41363 0.13765 0.33077 0.0
C391 C 0.40028 0.13332 0.30801 0.0
C392 C 0.4099 0.15257 0.34931 0.0
C393 C 0.38357 0.14421 0.30411 0.0
C394 C 0.39307 0.16317 0.34466 0.0
N395 N 0.38036 0.15881 0.32235 0.0
C396 C 0.40749 0.07277 0.28861 0.0
C397 C 0.44225 0.10515 0.26295 0.0
C398 C 0.39233 0.05908 0.26774 0.0
N399 N 0.43189 0.09537 0.2858 0.0
C400 C 0.4277 0.0923 0.24163 0.0
C401 C 0.40227 0.0692 0.24393 0.0
H402 H 0.39945 0.06589 0.30705 0.0
H403 H 0.46141 0.12345 0.26126 0.0
C404 C 0.48928 0.21437 0.34539 0.0
N405 N 0.47117 0.19468 0.33027 0.0
C406 C 0.49594 0.24105 0.3417 0.0
C407 C 0.4642 0.22656 0.30766 0.0
C408 C 0.4587 0.20023 0.3116 0.0
C409 C 0.48356 0.2476 0.32244 0.0
H410 H 0.49953 0.20953 0.35958 0.0
H411 H 0.44508 0.18437 0.29928 0.0
O412 O 0.46427 0.09919 0.33925 0.0
O413 O 0.48594 0.15574 0.3621 0.0
O414 O 0.48302 0.15045 0.30531 0.0
O415 O 0.43009 0.12717 0.33495 0.0
H416 H 0.42105 0.05824 0.35946 0.0
H417 H 0.47855 0.08157 0.29981 0.0
H418 H 0.39838 0.01142 0.34351 0.0
H419 H 0.45485 0.03432 0.2849 0.0
H420 H 0.46584 0.17654 0.4377 0.0
H421 H 0.51717 0.14405 0.38938 0.0
H422 H 0.46103 0.17311 0.39174 0.0
H423 H 0.52119 0.14821 0.43535 0.0
H424 H 0.5664 0.11434 0.32295 0.0
H425 H 0.59063 0.19578 0.34546 0.0
H426 H 0.37825 0.08615 0.42216 0.0
H427 H 0.44505 0.07319 0.43732 0.0
H428 H 0.51765 0.20291 0.30601 0.0
H429 H 0.50372 0.1265 0.27846 0.0
H430 H 0.56238 0.22495 0.28559 0.0
H431 H 0.54876 0.1499 0.25854 0.0
H432 H 0.40291 0.12184 0.29344 0.0
H433 H 0.42008 0.15612 0.36702 0.0
H434 H 0.37319 0.14111 0.28655 0.0
H435 H 0.39013 0.17489 0.35879 0.0
H436 H 0.37259 0.04155 0.27019 0.0
H437 H 0.43598 0.10066 0.22354 0.0
H438 H 0.51155 0.25641 0.35318 0.0
H439 H 0.45381 0.23036 0.2928 0.0
Li440 Li 0.90717 0.34734 0.36242 0.0
Li441 Li 0.89312 0.37405 0.33943 0.0
Li442 Li 0.86763 0.32562 0.33718 0.0
Li443 Li 0.91094 0.34991 0.31802 0.0
C444 C 0.87419 0.36257 0.38754 0.0
N445 N 0.87556 0.39118 0.42941 0.0
C446 C 0.89848 0.38451 0.39549 0.0
C447 C 0.85061 0.35521 0.40088 0.0
C448 C 0.89876 0.3987 0.4167 0.0
C449 C 0.85171 0.36992 0.42201 0.0
C450 C 0.94808 0.40254 0.32975 0.0
C451 C 0.95896 0.43419 0.29614 0.0
N452 N 0.98458 0.44864 0.30486 0.0
C453 C 0.97451 0.41769 0.33838 0.0
C454 C 0.9402 0.41083 0.30846 0.0
C455 C 0.99267 0.44095 0.32554 0.0
C456 C 0.9503 0.35033 0.38821 0.0
N457 N 0.92448 0.34461 0.39131 0.0
C458 C 0.92627 0.33686 0.43471 0.0
C459 C 0.91209 0.33741 0.41385 0.0
C460 C 0.95318 0.34326 0.43214 0.0
C461 C 0.9651 0.34965 0.40849 0.0
H462 H 0.95946 0.35576 0.36997 0.0
H463 H 0.89134 0.33241 0.4157 0.0
C464 C 0.86559 0.40117 0.32989 0.0
N465 N 0.88895 0.40483 0.33979 0.0
C466 C 0.85971 0.42198 0.33031 0.0
C467 C 0.90217 0.45008 0.35105 0.0
C468 C 0.90728 0.42868 0.35015 0.0
C469 C 0.87804 0.4468 0.34113 0.0
H470 H 0.85129 0.38184 0.32206 0.0
H471 H 0.92566 0.43099 0.35802 0.0
C472 C 0.88905 0.29395 0.35204 0.0
N473 N 0.87281 0.24695 0.37843 0.0
C474 C 0.89804 0.2763 0.34508 0.0
C475 C 0.87178 0.28768 0.37242 0.0
C476 C 0.8896 0.25264 0.35866 0.0
C477 C 0.86381 0.26383 0.38552 0.0
C478 C 0.86702 0.33782 0.28769 0.0
C479 C 0.86803 0.31456 0.28193 0.0
C480 C 0.8545 0.34701 0.27126 0.0
C481 C 0.85648 0.30089 0.25979 0.0
C482 C 0.84318 0.33278 0.2493 0.0
N483 N 0.84439 0.3102 0.24407 0.0
C484 C 0.81243 0.30191 0.34114 0.0
C485 C 0.82598 0.27155 0.32631 0.0
C486 C 0.78545 0.28199 0.33974 0.0
N487 N 0.83199 0.29636 0.33455 0.0
C488 C 0.79918 0.25095 0.32467 0.0
C489 C 0.7785 0.25605 0.3315 0.0
H490 H 0.81788 0.32195 0.34733 0.0
H491 H 0.84195 0.26775 0.32098 0.0
C492 C 0.94822 0.33921 0.2956 0.0
N493 N 0.93267 0.35049 0.29134 0.0
C494 C 0.9637 0.33748 0.27647 0.0
C495 C 0.94734 0.35966 0.24912 0.0
C496 C 0.93223 0.36103 0.26881 0.0
C497 C 0.96305 0.34744 0.25276 0.0
H498 H 0.94814 0.33107 0.31378 0.0
H499 H 0.91981 0.37006 0.26599 0.0
O500 O 0.87324 0.34838 0.36673 0.0
O501 O 0.93021 0.37973 0.34222 0.0
O502 O 0.89726 0.31717 0.33883 0.0
O503 O 0.87818 0.35169 0.30922 0.0
H504 H 0.91697 0.3905 0.38548 0.0
H505 H 0.83164 0.33828 0.39495 0.0
H506 H 0.91741 0.41571 0.42306 0.0
H507 H 0.83361 0.36443 0.43251 0.0
H508 H 0.95313 0.44084 0.27964 0.0
H509 H 0.9809 0.41153 0.35485 0.0
H510 H 0.91985 0.39944 0.30151 0.0
H511 H 0.01319 0.45287 0.33201 0.0
H512 H 0.9164 0.33164 0.45268 0.0
H513 H 0.98589 0.35494 0.40586 0.0
H514 H 0.84064 0.41837 0.3229 0.0
H515 H 0.91688 0.46893 0.35946 0.0
H516 H 0.91139 0.28085 0.32933 0.0
H517 H 0.86449 0.30097 0.37807 0.0
H518 H 0.89641 0.23879 0.35347 0.0
H519 H 0.85045 0.25874 0.40132 0.0
H520 H 0.8777 0.30715 0.29431 0.0
H521 H 0.85358 0.365 0.27543 0.0
H522 H 0.85714 0.28289 0.2551 0.0
H523 H 0.83343 0.33968 0.23641 0.0
H524 H 0.77018 0.28702 0.34467 0.0
H525 H 0.79473 0.23122 0.31833 0.0
H526 H 0.97528 0.32761 0.27998 0.0
H527 H 0.94652 0.36783 0.23118 0.0
Li528 Li 0.34748 0.90253 0.69274 0.0
Li529 Li 0.32429 0.86657 0.66248 0.0
Li530 Li 0.3735 0.89149 0.66541 0.0
Li531 Li 0.34879 0.91236 0.64872 0.0
C532 C 0.35756 0.85282 0.69885 0.0
N533 N 0.38057 0.82247 0.71296 0.0
C534 C 0.34591 0.82589 0.69152 0.0
C535 C 0.38084 0.86425 0.71347 0.0
C536 C 0.35785 0.8109 0.69885 0.0
C537 C 0.39221 0.8486 0.72034 0.0
C538 C 0.28988 0.88249 0.67191 0.0
C539 C 0.24647 0.85907 0.6519 0.0
N540 N 0.23441 0.85241 0.6746 0.0
C541 C 0.27705 0.87542 0.69504 0.0
C542 C 0.27448 0.8743 0.65015 0.0
C543 C 0.24899 0.86022 0.69601 0.0
C544 C 0.33395 0.93048 0.72724 0.0
N545 N 0.34447 0.91399 0.72502 0.0
C546 C 0.34625 0.91059 0.76914 0.0
C547 C 0.35096 0.90428 0.7453 0.0
C548 C 0.33434 0.92669 0.77209 0.0
C549 C 0.32862 0.93708 0.75072 0.0
H550 H 0.32874 0.93765 0.71072 0.0
H551 H 0.35911 0.89105 0.743 0.0
C552 C 0.28884 0.82004 0.63478 0.0
N553 N 0.29396 0.83186 0.65756 0.0
C554 C 0.26782 0.79364 0.6317 0.0
C555 C 0.25746 0.79239 0.67545 0.0
C556 C 0.27872 0.81873 0.6777 0.0
C557 C 0.25206 0.77932 0.6523 0.0
H558 H 0.30158 0.8308 0.61919 0.0
H559 H 0.28357 0.82852 0.69567 0.0
C560 C 0.38975 0.94939 0.6878 0.0
N561 N 0.40865 0.99238 0.72026 0.0
C562 C 0.38341 0.96969 0.68399 0.0
C563 C 0.40577 0.95098 0.70805 0.0
C564 C 0.39317 0.99127 0.70062 0.0
C565 C 0.41509 0.97286 0.72428 0.0
C566 C 0.35557 0.88735 0.61078 0.0
C567 C 0.38171 0.89822 0.60146 0.0
C568 C 0.33482 0.88422 0.595 0.0
C569 C 0.3867 0.90605 0.57651 0.0
C570 C 0.34065 0.89237 0.57019 0.0
N571 N 0.36625 0.90303 0.56154 0.0
C572 C 0.40031 0.86382 0.65338 0.0
C573 C 0.42945 0.90807 0.66818 0.0
C574 C 0.42153 0.8586 0.65242 0.0
N575 N 0.40447 0.88793 0.66182 0.0
C576 C 0.45145 0.9039 0.66702 0.0
C577 C 0.44737 0.87869 0.65958 0.0
H578 H 0.38029 0.84838 0.64803 0.0
H579 H 0.43219 0.92716 0.67453 0.0
C580 C 0.32932 0.93983 0.61824 0.0
N581 N 0.351 0.9376 0.62484 0.0
C582 C 0.33148 0.95719 0.59899 0.0
C583 C 0.37836 0.97004 0.59444 0.0
C584 C 0.37538 0.95275 0.61389 0.0
C585 C 0.35613 0.97206 0.58653 0.0
H586 H 0.31029 0.92781 0.62755 0.0
H587 H 0.39233 0.95081 0.61987 0.0
O588 O 0.34648 0.86801 0.69144 0.0
O589 O 0.31736 0.89698 0.67054 0.0
O590 O 0.3798 0.92775 0.67212 0.0
O591 O 0.35041 0.88026 0.63531 0.0
H592 H 0.32804 0.81672 0.68007 0.0
H593 H 0.39042 0.88517 0.71896 0.0
H594 H 0.34911 0.79008 0.69322 0.0
H595 H 0.41038 0.85728 0.73142 0.0
H596 H 0.23432 0.85246 0.63521 0.0
H597 H 0.2886 0.88126 0.71209 0.0
H598 H 0.28405 0.8793 0.63209 0.0
H599 H 0.23881 0.85452 0.71379 0.0
H600 H 0.3514 0.90249 0.78506 0.0
H601 H 0.31905 0.94921 0.75201 0.0
H602 H 0.26471 0.78422 0.61362 0.0
H603 H 0.24569 0.78221 0.69178 0.0
H604 H 0.37087 0.96866 0.66852 0.0
H605 H 0.41064 0.9353 0.71139 0.0
H606 H 0.38833 0.00708 0.69797 0.0
H607 H 0.42737 0.97428 0.74011 0.0
H608 H 0.39804 0.90091 0.6134 0.0
H609 H 0.31451 0.87599 0.60193 0.0
H610 H 0.40686 0.91464 0.56909 0.0
H611 H 0.32484 0.8903 0.55784 0.0
H612 H 0.41779 0.83902 0.64634 0.0
H613 H 0.4712 0.91981 0.67261 0.0
H614 H 0.31393 0.95831 0.59337 0.0
H615 H 0.39779 0.98154 0.5855 0.0
Li616 Li 0.1156 0.45396 0.69399 0.0
Li617 Li 0.15835 0.46853 0.67374 0.0
Li618 Li 0.13428 0.49388 0.66835 0.0
Li619 Li 0.11693 0.44957 0.64955 0.0
C620 C 0.16208 0.48832 0.72116 0.0
N621 N 0.18718 0.48852 0.76509 0.0
C622 C 0.16097 0.46473 0.72964 0.0
C623 C 0.17598 0.512 0.73499 0.0
C624 C 0.17379 0.46525 0.7519 0.0
C625 C 0.18853 0.51169 0.75717 0.0
C626 C 0.13393 0.41326 0.6666 0.0
C627 C 0.15489 0.39972 0.63529 0.0
N628 N 0.14867 0.37729 0.64879 0.0
C629 C 0.12779 0.39012 0.68019 0.0
C630 C 0.14764 0.41817 0.644 0.0
C631 C 0.13539 0.37216 0.67086 0.0
C632 C 0.07669 0.41054 0.72115 0.0
N633 N 0.09478 0.43726 0.72263 0.0
C634 C 0.08393 0.43823 0.76533 0.0
C635 C 0.09826 0.45135 0.74396 0.0
C636 C 0.06557 0.41041 0.76463 0.0
C637 C 0.06168 0.39665 0.74199 0.0
H638 H 0.07423 0.39997 0.70381 0.0
H639 H 0.1126 0.47267 0.74457 0.0
C640 C 0.21298 0.49991 0.66993 0.0
N641 N 0.19383 0.47461 0.67639 0.0
C642 C 0.24012 0.5079 0.67219 0.0
C643 C 0.22742 0.46354 0.68775 0.0
C644 C 0.20039 0.45642 0.68527 0.0
C645 C 0.2477 0.48964 0.6812 0.0
H646 H 0.20707 0.51404 0.66338 0.0
H647 H 0.18474 0.43658 0.69078 0.0
C648 C 0.08 0.47088 0.67976 0.0
N649 N 0.04625 0.48567 0.70271 0.0
C650 C 0.05342 0.46008 0.6717 0.0
C651 C 0.08942 0.4892 0.6995 0.0
C652 C 0.03667 0.46782 0.68354 0.0
C653 C 0.07204 0.49642 0.71086 0.0
C654 C 0.15992 0.49138 0.61955 0.0
C655 C 0.14948 0.50517 0.60645 0.0
C656 C 0.17979 0.48744 0.60858 0.0
C657 C 0.15862 0.51423 0.58234 0.0
C658 C 0.18842 0.49683 0.58445 0.0
N659 N 0.17773 0.50989 0.57192 0.0
C660 C 0.16573 0.54901 0.67087 0.0
C661 C 0.1225 0.53519 0.65411 0.0
C662 C 0.1732 0.57598 0.6679 0.0
N663 N 0.1408 0.52934 0.66401 0.0
C664 C 0.12912 0.56199 0.65085 0.0
C665 C 0.15479 0.58281 0.6578 0.0
H666 H 0.17991 0.54364 0.6784 0.0
H667 H 0.1029 0.51908 0.64854 0.0
C668 C 0.08845 0.40219 0.61912 0.0
N669 N 0.09733 0.42898 0.62139 0.0
C670 C 0.07325 0.38794 0.59846 0.0
C671 C 0.07563 0.42879 0.58343 0.0
C672 C 0.09088 0.44224 0.60427 0.0
C673 C 0.06662 0.40128 0.58035 0.0
H674 H 0.09256 0.39163 0.63352 0.0
H675 H 0.09711 0.46319 0.60707 0.0
O676 O 0.14989 0.48846 0.69933 0.0
O677 O 0.12709 0.43126 0.67581 0.0
O678 O 0.09651 0.46333 0.66835 0.0
O679 O 0.15165 0.48283 0.64338 0.0
H680 H 0.15033 0.44619 0.71922 0.0
H681 H 0.17705 0.53042 0.72864 0.0
H682 H 0.17308 0.44715 0.75868 0.0
H683 H 0.19935 0.52988 0.76808 0.0
H684 H 0.16543 0.40323 0.61778 0.0
H685 H 0.11733 0.38616 0.69782 0.0
H686 H 0.15239 0.43586 0.63324 0.0
H687 H 0.13077 0.35416 0.68118 0.0
H688 H 0.08792 0.44965 0.78239 0.0
H689 H 0.04743 0.37532 0.74043 0.0
H690 H 0.25499 0.52842 0.66751 0.0
H691 H 0.23235 0.44882 0.69473 0.0
H692 H 0.04584 0.44586 0.65644 0.0
H693 H 0.10993 0.49783 0.70598 0.0
H694 H 0.01605 0.45963 0.67749 0.0
H695 H 0.07907 0.51058 0.72615 0.0
H696 H 0.13438 0.50874 0.61474 0.0
H697 H 0.18862 0.47742 0.61864 0.0
H698 H 0.15057 0.52477 0.57194 0.0
H699 H 0.20372 0.49384 0.57572 0.0
H700 H 0.1934 0.5913 0.673 0.0
H701 H 0.11428 0.56635 0.64311 0.0
H702 H 0.06616 0.36658 0.597 0.0
H703 H 0.07093 0.43982 0.56989 0.0
Li704 Li 0.56002 0.71109 0.66816 0.0
Li705 Li 0.57765 0.68864 0.693 0.0
Li706 Li 0.56916 0.67965 0.64641 0.0
Li707 Li 0.53212 0.66447 0.67637 0.0
C708 C 0.61101 0.73996 0.65922 0.0
N709 N 0.64034 0.79449 0.64951 0.0
C710 C 0.62114 0.75839 0.67884 0.0
C711 C 0.61599 0.74921 0.63468 0.0
C712 C 0.63586 0.7859 0.67354 0.0
C713 C 0.63082 0.77688 0.63015 0.0
C714 C 0.52707 0.69672 0.71176 0.0
C715 C 0.50487 0.70157 0.74783 0.0
N716 N 0.48646 0.70279 0.73275 0.0
C717 C 0.50793 0.69798 0.69663 0.0
C718 C 0.52556 0.69852 0.73757 0.0
C719 C 0.48757 0.70108 0.70758 0.0
C720 C 0.55936 0.75526 0.64306 0.0
N721 N 0.56049 0.74487 0.66549 0.0
C722 C 0.55696 0.7796 0.68672 0.0
C723 C 0.56076 0.75741 0.68706 0.0
C724 C 0.55375 0.78947 0.66389 0.0
C725 C 0.556 0.77773 0.64182 0.0
H726 H 0.56043 0.74586 0.62612 0.0
H727 H 0.56299 0.74964 0.70466 0.0
C728 C 0.60986 0.67342 0.71967 0.0
N729 N 0.60014 0.6907 0.71932 0.0
C730 C 0.62596 0.67396 0.73937 0.0
C731 C 0.62219 0.71054 0.75758 0.0
C732 C 0.60588 0.70905 0.73768 0.0
C733 C 0.63229 0.69273 0.7586 0.0
H734 H 0.60492 0.65908 0.70471 0.0
H735 H 0.59763 0.72236 0.73691 0.0
C736 C 0.52699 0.68887 0.62391 0.0
N737 N 0.50691 0.70084 0.5821 0.0
C738 C 0.50046 0.68373 0.62357 0.0
C739 C 0.54311 0.69957 0.60278 0.0
C740 C 0.49075 0.69009 0.60231 0.0
C741 C 0.53264 0.70564 0.58188 0.0
C742 C 0.54592 0.62797 0.68291 0.0
C743 C 0.53494 0.6067 0.6659 0.0
C744 C 0.54126 0.62265 0.70836 0.0
C745 C 0.51932 0.58038 0.67467 0.0
C746 C 0.52555 0.59604 0.71637 0.0
N747 N 0.51498 0.57564 0.6995 0.0
C748 C 0.60618 0.67963 0.61151 0.0
C749 C 0.55999 0.64831 0.60454 0.0
C750 C 0.61354 0.66903 0.59159 0.0
N751 N 0.57981 0.66888 0.61767 0.0
C752 C 0.56641 0.63698 0.58467 0.0
C753 C 0.59351 0.64704 0.57829 0.0
H754 H 0.62147 0.69585 0.62253 0.0
H755 H 0.5392 0.64024 0.61001 0.0
C756 C 0.48526 0.62903 0.70459 0.0
N757 N 0.49664 0.63556 0.68161 0.0
C758 C 0.45882 0.60802 0.70742 0.0
C759 C 0.45681 0.60026 0.66305 0.0
C760 C 0.48317 0.62152 0.66107 0.0
C761 C 0.44411 0.59352 0.68641 0.0
H762 H 0.49662 0.64024 0.72069 0.0
H763 H 0.49295 0.62693 0.6431 0.0
O764 O 0.59592 0.71302 0.66404 0.0
O765 O 0.54719 0.69363 0.70151 0.0
O766 O 0.53662 0.68218 0.64437 0.0
O767 O 0.56053 0.65394 0.67469 0.0
H768 H 0.61737 0.75153 0.69793 0.0
H769 H 0.60832 0.73519 0.6193 0.0
H770 H 0.64365 0.80041 0.68852 0.0
H771 H 0.63471 0.78435 0.61125 0.0
H772 H 0.50345 0.70299 0.76778 0.0
H773 H 0.50894 0.69681 0.67667 0.0
H774 H 0.54024 0.69753 0.74953 0.0
H775 H 0.47267 0.70217 0.69607 0.0
H776 H 0.55577 0.78847 0.70412 0.0
H777 H 0.55375 0.78492 0.62384 0.0
H778 H 0.63354 0.66004 0.73949 0.0
H779 H 0.62641 0.72508 0.77224 0.0
H780 H 0.48741 0.67474 0.63945 0.0
H781 H 0.56359 0.7035 0.60259 0.0
H782 H 0.4703 0.68634 0.60184 0.0
H783 H 0.54499 0.71416 0.5655 0.0
H784 H 0.53825 0.61049 0.64615 0.0
H785 H 0.54934 0.63892 0.72174 0.0
H786 H 0.51059 0.56372 0.66171 0.0
H787 H 0.52165 0.59163 0.736 0.0
H788 H 0.63466 0.67718 0.58729 0.0
H789 H 0.55041 0.62025 0.57465 0.0
H790 H 0.4498 0.6037 0.72576 0.0
H791 H 0.44647 0.58932 0.64642 0.0
H792 H 0.16166 0.10727 0.98247 0.0
H793 H 0.24321 0.17355 0.99124 0.0
H794 H 0.22591 0.20545 0.99365 0.0
H795 H 0.13581 0.14218 0.94533 0.0
H796 H 0.10348 0.12569 0.96053 0.0
H797 H 0.12271 0.1088 0.95791 0.0
H798 H 0.12033 0.10213 0.00575 0.0
H799 H 0.10121 0.1191 0.00854 0.0
H800 H 0.13202 0.131 0.02585 0.0
H801 H 0.19897 0.22978 0.99541 0.0
H802 H 0.16478 0.24405 -0.00116 0.0
H803 H 0.10134 0.16104 0.99049 0.0
C804 C 0.17592 0.12857 0.98443 0.0
C805 C 0.20377 0.13812 0.98627 0.0
C806 C 0.22179 0.16598 0.98963 0.0
C807 C 0.21215 0.18416 0.99095 0.0
C808 C 0.18446 0.17403 0.98914 0.0
C809 C 0.16663 0.14683 0.98609 0.0
C810 C 0.13778 0.14072 0.98603 0.0
C811 C 0.12415 0.12864 0.96096 0.0
C812 C 0.12191 0.12214 0.00784 0.0
C813 C 0.14204 0.16871 0.98956 0.0
C814 C 0.16907 0.18775 0.99107 0.0
C815 C 0.17776 0.21503 0.99427 0.0
C816 C 0.15827 0.22295 0.99612 0.0
C817 C 0.13051 0.20359 0.99511 0.0
C818 C 0.12244 0.17621 0.99165 0.0
H819 H 0.86359 0.95906 0.97567 0.0
H820 H 0.79741 0.94085 0.02576 0.0
H821 H 0.81304 0.98953 0.02952 0.0
H822 H 0.91243 0.01567 0.00653 0.0
H823 H 0.92907 0.03444 0.9789 0.0
H824 H 0.91107 0.99824 0.97817 0.0
H825 H 0.88211 -0.00129 0.94135 0.0
H826 H 0.90018 0.03498 0.94183 0.0
H827 H 0.86401 0.01676 0.94439 0.0
H828 H 0.83921 0.04034 0.03153 0.0
H829 H 0.87226 0.08892 0.03006 0.0
H830 H 0.91968 0.07343 0.97656 0.0
C831 C 0.85221 0.96535 0.98716 0.0
C832 C 0.82937 0.94635 0.00047 0.0
C833 C 0.81485 0.95518 0.01527 0.0
C834 C 0.82361 0.98273 0.01754 0.0
C835 C 0.84661 0.00103 0.00457 0.0
C836 C 0.86047 0.99265 0.98939 0.0
C837 C 0.88517 0.01628 0.97822 0.0
C838 C 0.91095 0.01614 0.98593 0.0
C839 C 0.88271 0.01671 0.94976 0.0
C840 C 0.88362 0.03932 0.99018 0.0
C841 C 0.86119 0.03018 0.0052 0.0
C842 C 0.85654 0.04777 0.01941 0.0
C843 C 0.87541 0.07538 0.01835 0.0
C844 C 0.89864 0.08518 0.00313 0.0
C845 C 0.90237 0.06675 0.9886 0.0
H846 H 0.9591 0.84485 0.9812 0.0
H847 H 0.93892 0.81946 0.058 0.0
H848 H 0.98714 0.83799 0.06752 0.0
H849 H 0.01805 0.83421 0.97644 0.0
H850 H 0.03639 0.86376 0.95737 0.0
H851 H 0.00017 0.84462 0.95581 0.0
H852 H -0.00202 0.88769 0.96589 0.0
H853 H 0.03408 0.90689 0.96757 0.0
H854 H 0.01414 0.90656 0.99363 0.0
H855 H 0.03761 0.86519 0.06996 0.0
H856 H 0.08622 0.89748 0.0647 0.0
H857 H 0.07307 0.90499 0.98637 0.0
C858 C 0.9648 0.84274 -9e-05 0.0
C859 C 0.94531 0.83068 0.01885 0.0
C860 C 0.95351 0.82827 0.04312 0.0
C861 C 0.98085 0.8388 0.04871 0.0
C862 C -0.00036 0.85134 0.02975 0.0
C863 C 0.99192 0.85306 0.00576 0.0
C864 C 0.01603 0.86948 0.98924 0.0
C865 C 0.01776 0.85196 0.96849 0.0
C866 C 0.01552 0.89411 0.97847 0.0
C867 C 0.03852 0.8777 0.00791 0.0
C868 C 0.02872 0.8668 0.03112 0.0
C869 C 0.04556 0.87342 0.05178 0.0
C870 C 0.07306 0.89187 0.04866 0.0
C871 C 0.08337 0.90348 0.02508 0.0
C872 C 0.06586 0.89589 0.00445 0.0
H873 H 0.8544 0.46248 0.30565 0.0
H874 H 0.88532 0.47945 0.38112 0.0
H875 H 0.86887 0.51162 0.38588 0.0
H876 H 0.86668 0.53124 0.29081 0.0
H877 H 0.83587 0.51795 0.27326 0.0
H878 H 0.8539 0.49972 0.27449 0.0
H879 H 0.81094 0.45755 0.29064 0.0
H880 H 0.79285 0.47563 0.28958 0.0
H881 H 0.79453 0.4602 0.31823 0.0
H882 H 0.84346 0.53677 0.38441 0.0
H883 H 0.81162 0.55307 0.37674 0.0
H884 H 0.79792 0.52024 0.30195 0.0
C885 C 0.85811 0.4733 0.32304 0.0
C886 C 0.87121 0.46852 0.34299 0.0
C887 C 0.87572 0.4831 0.36545 0.0
C888 C 0.86638 0.50136 0.36834 0.0
C889 C 0.85285 0.50501 0.34853 0.0
C890 C 0.84896 0.49156 0.32622 0.0
C891 C 0.83185 0.49723 0.30856 0.0
C892 C 0.84805 0.51245 0.28541 0.0
C893 C 0.80602 0.4711 0.30135 0.0
C894 C 0.82572 0.51504 0.32479 0.0
C895 C 0.83832 0.51964 0.34764 0.0
C896 C 0.83396 0.53381 0.36639 0.0
C897 C 0.81591 0.5431 0.36181 0.0
C898 C 0.80233 0.53807 0.33869 0.0
C899 C 0.80789 0.52438 0.31984 0.0
H900 H 0.50193 0.29033 0.35514 0.0
H901 H 0.48638 0.2705 0.27658 0.0
H902 H 0.50533 0.31843 0.26678 0.0
H903 H 0.49304 0.34985 0.35566 0.0
H904 H 0.52097 0.36794 0.3766 0.0
H905 H 0.50125 0.33174 0.37816 0.0
H906 H 0.54452 0.32867 0.37236 0.0
H907 H 0.5643 0.36476 0.37083 0.0
H908 H 0.56582 0.34464 0.34581 0.0
H909 H 0.53027 0.36886 0.26484 0.0
H910 H 0.56118 0.41748 0.27073 0.0
H911 H 0.56499 0.40398 0.34981 0.0
C912 C 0.50222 0.29587 0.33585 0.0
C913 C 0.49232 0.27628 0.31674 0.0
C914 C 0.49305 0.28476 0.29179 0.0
C915 C 0.50397 0.31208 0.28595 0.0
C916 C 0.51428 0.3308 0.30518 0.0
C917 C 0.51359 0.32305 0.32963 0.0
C918 C 0.52888 0.34717 0.34647 0.0
C919 C 0.5099 0.3493 0.36533 0.0
C920 C 0.55226 0.34625 0.35962 0.0
C921 C 0.53903 0.36966 0.32754 0.0
C922 C 0.52987 0.35987 0.30393 0.0
C923 C 0.53748 0.37677 0.28327 0.0
C924 C 0.55529 0.40435 0.28679 0.0
C925 C 0.56576 0.41472 0.31073 0.0
C926 C 0.55705 0.39701 0.33133 0.0
H927 H 0.62364 0.18752 0.36581 0.0
H928 H 0.60621 0.14267 0.29675 0.0
H929 H 0.65479 0.15966 0.2907 0.0
H930 H 0.67961 0.24532 0.34447 0.0
H931 H 0.69839 0.25284 0.37309 0.0
H932 H 0.66222 0.23414 0.37379 0.0
H933 H 0.66338 0.19543 0.39763 0.0
H934 H 0.69964 0.21411 0.39713 0.0
H935 H 0.68182 0.18039 0.3848 0.0
H936 H 0.70554 0.18585 0.28981 0.0
H937 H 0.75404 0.21859 0.29438 0.0
H938 H 0.73788 0.24584 0.36421 0.0
C939 C 0.63 0.18098 0.34957 0.0
C940 C 0.61116 0.16373 0.33178 0.0
C941 C 0.62027 0.15555 0.31082 0.0
C942 C 0.64782 0.16517 0.30718 0.0
C943 C 0.66592 0.18273 0.32479 0.0
C944 C 0.65733 0.19036 0.34568 0.0
C945 C 0.68082 0.2109 0.36091 0.0
C946 C 0.68021 0.23736 0.36318 0.0
C947 C 0.68145 0.19952 0.38664 0.0
C948 C 0.70399 0.21437 0.34488 0.0
C949 C 0.69506 0.19774 0.32429 0.0
C950 C 0.71279 0.19863 0.30608 0.0
C951 C 0.74032 0.21723 0.30889 0.0
C952 C 0.74978 0.23478 0.32966 0.0
C953 C 0.73129 0.23286 0.34803 0.0
H954 H 0.44842 0.83833 0.6848 0.0
H955 H 0.49571 0.90523 0.63529 0.0
H956 H 0.53081 0.892 0.63338 0.0
H957 H 0.50599 0.84191 0.71901 0.0
H958 H 0.48976 0.80583 0.72195 0.0
H959 H 0.46981 0.82209 0.72078 0.0
H960 H 0.44296 0.79193 0.68347 0.0
H961 H 0.46281 0.77565 0.6845 0.0
H962 H 0.46082 0.79131 0.65611 0.0
H963 H 0.55763 0.86765 0.63304 0.0
H964 H 0.57547 0.83628 0.63673 0.0
H965 H 0.51147 0.78729 0.68839 0.0
C966 C 0.46638 0.85037 0.67385 0.0
C967 C 0.46953 0.87268 0.66011 0.0
C968 C 0.49318 0.88812 0.646 0.0
C969 C 0.51311 0.88074 0.64482 0.0
C970 C 0.50917 0.85823 0.65826 0.0
C971 C 0.48655 0.84356 0.67282 0.0
C972 C 0.48654 0.81974 0.68486 0.0
C973 C 0.48813 0.82258 0.71334 0.0
C974 C 0.46183 0.7931 0.67673 0.0
C975 C 0.51225 0.82271 0.67419 0.0
C976 C 0.5251 0.84502 0.6589 0.0
C977 C 0.54807 0.85048 0.64539 0.0
C978 C 0.558 0.83259 0.64751 0.0
C979 C 0.54508 0.80977 0.66319 0.0
C980 C 0.52215 0.80505 0.67685 0.0
H981 H 0.24224 0.73915 0.68529 0.0
H982 H 0.21634 0.75377 0.614 0.0
H983 H 0.18542 0.70484 0.60903 0.0
H984 H 0.2438 0.68183 0.66831 0.0
H985 H 0.23155 0.6646 0.69757 0.0
H986 H 0.24943 0.70078 0.69663 0.0
H987 H 0.20927 0.70146 0.718 0.0
H988 H 0.19129 0.66521 0.71918 0.0
H989 H 0.17614 0.68268 0.70454 0.0
H990 H 0.16034 0.65393 0.61041 0.0
H991 H 0.14352 0.60557 0.61791 0.0
H992 H 0.18479 0.62509 0.68908 0.0
C993 C 0.22953 0.73222 0.66894 0.0
C994 C 0.23161 0.75033 0.6501 0.0
C995 C 0.2152 0.74025 0.62862 0.0
C996 C 0.19745 0.71252 0.62572 0.0
C997 C 0.19623 0.69522 0.64453 0.0
C998 C 0.21173 0.70474 0.6658 0.0
C999 C 0.20802 0.68198 0.68259 0.0
C1000 C 0.23479 0.68233 0.68648 0.0
C1001 C 0.19542 0.68289 0.70755 0.0
C1002 C 0.18857 0.65809 0.66715 0.0
C1003 C 0.18176 0.66606 0.64538 0.0
C1004 C 0.1652 0.64745 0.62758 0.0
C1005 C 0.15565 0.62002 0.63206 0.0
C1006 C 0.16281 0.61151 0.6541 0.0
C1007 C 0.1791 0.63091 0.67197 0.0
H1008 H 0.28941 0.52194 0.65023 0.0
H1009 H 0.27159 0.47775 0.71976 0.0
H1010 H 0.32025 0.49624 0.72691 0.0
H1011 H 0.34913 0.5176 0.63303 0.0
H1012 H 0.36632 0.5514 0.62083 0.0
H1013 H 0.33011 0.53176 0.61965 0.0
H1014 H 0.32694 0.56954 0.6432 0.0
H1015 H 0.36305 0.58923 0.64448 0.0
H1016 H 0.34366 0.58106 0.67277 0.0
H1017 H 0.37117 0.52318 0.72829 0.0
H1018 H 0.4197 0.55589 0.72363 0.0
H1019 H 0.40319 0.58389 0.65437 0.0
C1020 C 0.29566 0.51592 0.66688 0.0
C1021 C 0.27664 0.49836 0.68442 0.0
C1022 C 0.28573 0.49084 0.70585 0.0
C1023 C 0.31335 0.50134 0.71013 0.0
C1024 C 0.33156 0.51922 0.69276 0.0
C1025 C 0.32303 0.52633 0.67151 0.0
C1026 C 0.34648 0.5474 0.65664 0.0
C1027 C 0.3481 0.53637 0.63102 0.0
C1028 C 0.34493 0.57333 0.65415 0.0
C1029 C 0.36958 0.55159 0.67316 0.0
C1030 C 0.36067 0.53496 0.69375 0.0
C1031 C 0.37838 0.53614 0.71213 0.0
C1032 C 0.40587 0.55493 0.70942 0.0
C1033 C 0.41532 0.57244 0.68859 0.0
C1034 C 0.3968 0.57044 0.67022 0.0
H1035 H 0.02409 0.29545 0.86566 0.0
H1036 H 0.01176 0.34668 0.91718 0.0
H1037 H 0.0176 0.37752 0.8828 0.0
H1038 H 0.07759 0.3483 0.8342 0.0
H1039 H 0.06886 0.33227 0.80413 0.0
H1040 H 0.05943 0.31209 0.83188 0.0
H1041 H 0.00953 0.28764 0.81773 0.0
H1042 H 0.01884 0.3079 0.78993 0.0
H1043 H 0.9936 0.30709 0.81045 0.0
H1044 H 0.02859 0.40482 0.84355 0.0
H1045 H 0.04605 0.42741 0.80318 0.0
H1046 H 0.05501 0.36011 0.77876 0.0
C1047 C 0.02247 0.31305 0.86981 0.0
C1048 C 0.01726 0.31841 0.89422 0.0
C1049 C 0.0151 0.34166 0.89861 0.0
C1050 C 0.01851 0.35942 0.87919 0.0
C1051 C 0.02416 0.35374 0.8555 0.0
C1052 C 0.02621 0.33116 0.85077 0.0
C1053 C 0.03498 0.33093 0.82429 0.0
C1054 C 0.06181 0.33091 0.8236 0.0
C1055 C 0.01292 0.30697 0.80974 0.0
C1056 C 0.03826 0.3573 0.81504 0.0
C1057 C 0.03144 0.36993 0.83314 0.0
C1058 C 0.03389 0.39506 0.82919 0.0
C1059 C 0.04404 0.40783 0.80627 0.0
C1060 C 0.05201 0.39562 0.78774 0.0
C1061 C 0.04861 0.36982 0.79221 0.0
H1062 H 0.74108 0.76371 0.86534 0.0
H1063 H 0.71001 0.68518 0.89937 0.0
H1064 H 0.68068 0.66402 0.86273 0.0
H1065 H 0.67967 0.7526 0.84255 0.0
H1066 H 0.69292 0.77142 0.81418 0.0
H1067 H 0.714 0.77987 0.84129 0.0
H1068 H 0.74922 0.77385 0.81618 0.0
H1069 H 0.72831 0.76555 0.78888 0.0
H1070 H 0.73892 0.74266 0.79999 0.0
H1071 H 0.65276 0.65204 0.8237 0.0
H1072 H 0.62672 0.65028 0.78632 0.0
H1073 H 0.67515 0.73701 0.77895 0.0
C1074 C 0.72861 0.742 0.86473 0.0
C1075 C 0.72795 0.72594 0.88488 0.0
C1076 C 0.71079 0.6977 0.88394 0.0
C1077 C 0.69422 0.68556 0.86322 0.0
C1078 C 0.69501 0.70204 0.84378 0.0
C1079 C 0.71174 0.72966 0.8444 0.0
C1080 C 0.7071 0.74311 0.82226 0.0
C1081 C 0.69787 0.76291 0.83058 0.0
C1082 C 0.73239 0.75711 0.80585 0.0
C1083 C 0.68471 0.71882 0.80935 0.0
C1084 C 0.67833 0.69526 0.82178 0.0
C1085 C 0.65773 0.67032 0.81369 0.0
C1086 C 0.64312 0.66951 0.79247 0.0
C1087 C 0.64898 0.69352 0.77988 0.0
C1088 C 0.67021 0.71839 0.78834 0.0
H1089 H 0.33596 0.97243 0.79019 0.0
H1090 H 0.31324 0.8904 0.81036 0.0
H1091 H 0.29656 0.89625 0.85072 0.0
H1092 H 0.35556 0.00179 0.85242 0.0
H1093 H 0.34147 0.02343 0.84808 0.0
H1094 H 0.35427 0.01383 0.82176 0.0
H1095 H 0.30825 0.99526 0.79953 0.0
H1096 H 0.29531 0.00471 0.82578 0.0
H1097 H 0.2781 0.97037 0.81497 0.0
H1098 H 0.27945 0.90963 0.8875 0.0
H1099 H 0.26333 0.92996 0.91857 0.0
H1100 H 0.29515 0.00249 0.87373 0.0
C1101 C 0.32763 0.95573 0.80312 0.0
C1102 C 0.32617 0.93103 0.7971 0.0
C1103 C 0.31519 0.90974 0.81468 0.0
C1104 C 0.30548 0.91278 0.83763 0.0
C1105 C 0.30682 0.93721 0.84274 0.0
C1106 C 0.31767 0.95835 0.82605 0.0
C1107 C 0.31536 0.98196 0.83557 0.0
C1108 C 0.34333 0.00672 0.8397 0.0
C1109 C 0.29823 0.98844 0.81791 0.0
C1110 C 0.30106 0.97057 0.86001 0.0
C1111 C 0.29652 0.94481 0.86386 0.0
C1112 C 0.28296 0.92983 0.88475 0.0
C1113 C 0.27369 0.94146 0.90218 0.0
C1114 C 0.27788 0.96776 0.89852 0.0
C1115 C 0.29193 0.98249 0.8772 0.0
H1116 H 0.39193 0.09556 0.20747 0.0
H1117 H 0.37401 0.01589 0.23068 0.0
H1118 H 0.34495 0.99628 0.19354 0.0
H1119 H 0.32632 0.07646 0.18605 0.0
H1120 H 0.33785 0.09978 0.16036 0.0
H1121 H 0.35816 0.10735 0.18795 0.0
H1122 H 0.39834 0.1129 0.16136 0.0
H1123 H 0.37817 0.10542 0.13365 0.0
H1124 H 0.39392 0.08588 0.14119 0.0
H1125 H 0.3179 0.98581 0.15365 0.0
H1126 H 0.29304 0.98495 0.11564 0.0
H1127 H 0.32814 0.0716 0.11999 0.0
C1128 C 0.38219 0.07402 0.20453 0.0
C1129 C 0.38537 0.05719 0.22166 0.0
C1130 C 0.37178 0.02904 0.21764 0.0
C1131 C 0.35538 0.01781 0.19662 0.0
C1132 C 0.35269 0.03504 0.18005 0.0
C1133 C 0.36562 0.06253 0.1839 0.0
C1134 C 0.35862 0.07663 0.16402 0.0
C1135 C 0.34439 0.09089 0.17527 0.0
C1136 C 0.38376 0.09637 0.14918 0.0
C1137 C 0.3396 0.05279 0.14835 0.0
C1138 C 0.3366 0.02898 0.1577 0.0
C1139 C 0.32009 0.00432 0.14618 0.0
C1140 C 0.30615 0.00403 0.12461 0.0
C1141 C 0.30866 0.0282 0.11508 0.0
C1142 C 0.32567 0.05282 0.12709 0.0
H1143 H 0.97298 0.29571 0.11834 0.0
H1144 H 0.05136 0.30788 0.13927 0.0
H1145 H 0.0487 0.32803 0.17907 0.0
H1146 H 0.98031 0.35672 0.14676 0.0
H1147 H 0.94568 0.34042 0.15668 0.0
H1148 H 0.95479 0.32894 0.12911 0.0
H1149 H 0.93271 0.28067 0.14735 0.0
H1150 H 0.92346 0.29197 0.17489 0.0
H1151 H 0.94313 0.2755 0.17751 0.0
H1152 H 0.03589 0.34388 0.21779 0.0
H1153 H 0.01398 0.35428 0.25227 0.0
H1154 H 0.94384 0.33083 0.20579 0.0
C1155 C 0.98962 0.30264 0.13126 0.0
C1156 C 0.01238 0.30023 0.12573 0.0
C1157 C 0.03387 0.30983 0.14301 0.0
C1158 C 0.03251 0.32122 0.16568 0.0
C1159 C 0.0096 0.323 0.17064 0.0
C1160 C 0.9886 0.31405 0.15387 0.0
C1161 C 0.96573 0.31715 0.16404 0.0
C1162 C 0.96139 0.33699 0.1482 0.0
C1163 C 0.93973 0.28969 0.16607 0.0
C1164 C 0.97689 0.32874 0.18939 0.0
C1165 C 0.00229 0.33217 0.19282 0.0
C1166 C 0.0161 0.34149 0.21524 0.0
C1167 C 0.00346 0.34721 0.23473 0.0
C1168 C 0.9773 0.3435 0.23163 0.0
C1169 C 0.96408 0.33442 0.20854 0.0
H1170 H 0.72268 0.68066 0.2306 0.0
H1171 H 0.64888 0.60956 0.2075 0.0
H1172 H 0.65184 0.63051 0.16666 0.0
H1173 H 0.71162 0.73036 0.19658 0.0
H1174 H 0.74673 0.75065 0.1887 0.0
H1175 H 0.73697 0.73143 0.21714 0.0
H1176 H 0.76388 0.70818 0.20397 0.0
H1177 H 0.7736 0.72718 0.17548 0.0
H1178 H 0.75668 0.69094 0.17449 0.0
H1179 H 0.66543 0.65696 0.12698 0.0
H1180 H 0.68837 0.68724 0.09158 0.0
H1181 H 0.75299 0.74135 0.14075 0.0
C1182 C 0.70697 0.66963 0.21705 0.0
C1183 C 0.68547 0.64356 0.22228 0.0
C1184 C 0.66528 0.62977 0.20407 0.0
C1185 C 0.66684 0.64145 0.18078 0.0
C1186 C 0.6886 0.66698 0.17608 0.0
C1187 C 0.7082 0.68099 0.19376 0.0
C1188 C 0.73039 0.70737 0.18351 0.0
C1189 C 0.73148 0.73137 0.19731 0.0
C1190 C 0.75774 0.70846 0.18441 0.0
C1191 C 0.72066 0.70558 0.15705 0.0
C1192 C 0.69638 0.68229 0.1532 0.0
C1193 C 0.68422 0.67551 0.12986 0.0
C1194 C 0.69735 0.69291 0.10988 0.0
C1195 C 0.72244 0.71675 0.11337 0.0
C1196 C 0.73392 0.72322 0.13741 0.0
H1197 H 0.0242 0.40445 0.56124 0.0
H1198 H 0.07137 0.3652 0.55038 0.0
H1199 H 0.04484 0.3428 0.51263 0.0
H1200 H 0.96 0.34879 0.53943 0.0
H1201 H 0.95047 0.37099 0.52461 0.0
H1202 H 0.97177 0.38208 0.55174 0.0
H1203 H 0.00765 0.4236 0.52736 0.0
H1204 H 0.98646 0.41268 0.50022 0.0
H1205 H 0.02039 0.41864 0.49837 0.0
H1206 H 0.01598 0.32833 0.47394 0.0
H1207 H 0.98601 0.32171 0.43819 0.0
H1208 H 0.95756 0.36994 0.47526 0.0
C1209 C 0.02887 0.39103 0.55098 0.0
C1210 C 0.04986 0.38658 0.55861 0.0
C1211 C 0.0552 0.36868 0.5449 0.0
C1212 C 0.04029 0.35595 0.52345 0.0
C1213 C 0.01998 0.36113 0.51623 0.0
C1214 C 0.01413 0.37809 0.52971 0.0
C1215 C 0.99211 0.38123 0.51755 0.0
C1216 C 0.9671 0.3701 0.53433 0.0
C1217 C 0.00227 0.41079 0.51045 0.0
C1218 C 0.98683 0.36386 0.49477 0.0
C1219 C 0.00302 0.35235 0.49433 0.0
C1220 C 0.00292 0.3369 0.47427 0.0
C1221 C 0.98597 0.33333 0.45405 0.0
C1222 C 0.96934 0.34507 0.45421 0.0
C1223 C 0.96961 0.36022 0.47497 0.0
H1224 H 0.66747 0.63724 0.45617 0.0
H1225 H 0.62247 0.55046 0.46562 0.0
H1226 H 0.6024 0.55592 0.50415 0.0
H1227 H 0.68068 0.65404 0.52192 0.0
H1228 H 0.67664 0.68316 0.51941 0.0
H1229 H 0.68852 0.67256 0.49311 0.0
H1230 H 0.64982 0.66993 0.46614 0.0
H1231 H 0.63778 0.68045 0.49235 0.0
H1232 H 0.61551 0.64948 0.47646 0.0
H1233 H 0.58541 0.57036 0.54012 0.0
H1234 H 0.57377 0.59321 0.57262 0.0
H1235 H 0.62963 0.67067 0.54008 0.0
C1236 C 0.65347 0.61942 0.46642 0.0
C1237 C 0.64667 0.59343 0.45802 0.0
C1238 C 0.62834 0.57058 0.47196 0.0
C1239 C 0.6167 0.57346 0.49377 0.0
C1240 C 0.62367 0.59931 0.50143 0.0
C1241 C 0.64172 0.62192 0.48831 0.0
C1242 C 0.64535 0.64737 0.50043 0.0
C1243 C 0.67453 0.66534 0.50924 0.0
C1244 C 0.63658 0.6627 0.48279 0.0
C1245 C 0.62625 0.63546 0.52223 0.0
C1246 C 0.61396 0.6077 0.52241 0.0
C1247 C 0.59497 0.59209 0.54028 0.0
C1248 C 0.58837 0.60522 0.55853 0.0
C1249 C 0.60077 0.63365 0.55877 0.0
C1250 C 0.62005 0.64892 0.54044 0.0
H1251 H 0.378 0.9722 0.54171 0.0
H1252 H 0.34002 0.00961 0.58233 0.0
H1253 H 0.3471 0.03946 0.54627 0.0
H1254 H 0.429 0.0307 0.51371 0.0
H1255 H 0.42822 0.01478 0.48457 0.0
H1256 H 0.41831 0.99533 0.5128 0.0
H1257 H 0.37215 0.96191 0.49317 0.0
H1258 H 0.38197 0.98121 0.46479 0.0
H1259 H 0.35145 0.97446 0.48046 0.0
H1260 H 0.36199 0.06757 0.50677 0.0
H1261 H 0.38193 0.09049 0.46694 0.0
H1262 H 0.40825 0.03278 0.45227 0.0
C1263 C 0.37107 0.98661 0.54295 0.0
C1264 C 0.35865 0.98884 0.56473 0.0
C1265 C 0.3495 0.00762 0.56567 0.0
C1266 C 0.35348 0.02462 0.54534 0.0
C1267 C 0.36627 0.02221 0.52424 0.0
C1268 C 0.37466 0.00345 0.52287 0.0
C1269 C 0.38848 0.00521 0.49846 0.0
C1270 C 0.41773 0.01191 0.50265 0.0
C1271 C 0.37255 0.97915 0.48333 0.0
C1272 C 0.38726 0.0284 0.4865 0.0
C1273 C 0.37429 0.0379 0.50152 0.0
C1274 C 0.37186 0.06005 0.49471 0.0
C1275 C 0.38315 0.07286 0.47201 0.0
C1276 C 0.3967 0.06348 0.45646 0.0
C1277 C 0.39835 0.04071 0.46381 0.0
loop_
_geom_bond_atom_site_label_1
_geom_bond_atom_site_label_2
_geom_bond_distance
_geom_bond_site_symmetry_2
_ccdc_geom_bond_type
Li0 N17 1.990 . S
Li0 O60 1.956 . S
Li0 O61 1.969 1_455 S
Li0 O62 1.961 . S
Li1 N25 1.994 . S
Li1 O60 1.954 1_656 S
Li1 O61 1.956 1_556 S
Li1 O63 1.972 1_655 S
Li2 N47 1.990 . S
Li2 O60 1.961 . S
Li2 O62 1.956 . S
Li2 O63 1.970 1_554 S
Li3 N53 1.990 . S
Li3 O61 1.962 1_456 S
Li3 O62 1.970 1_556 S
Li3 O63 1.956 . S
C4 C6 1.348 1_455 S
C4 C7 1.356 . S
C4 O60 1.325 . S
N5 C8 1.314 . S
N5 C9 1.279 1_655 S
C6 C4 1.348 1_655 S
C6 C8 1.353 . S
C6 H64 0.929 . S
C7 C4 1.356 . S
C7 C9 1.358 . S
C7 H65 0.930 . S
C8 N5 1.314 . S
C8 C6 1.353 . S
C8 H66 0.930 . S
C9 N5 1.279 1_455 S
C9 C7 1.358 . S
C9 H67 0.930 . S
C10 C13 1.348 1_556 S
C10 C14 1.356 . S
C10 O61 1.325 1_556 S
C11 N12 1.279 . S
C11 C14 1.358 . S
C11 H68 0.930 . S
N12 C11 1.279 . S
N12 C15 1.314 1_556 S
C13 C10 1.348 1_554 S
C13 C15 1.353 . S
C13 H69 0.929 . S
C14 C10 1.356 . S
C14 C11 1.358 . S
C14 H70 0.930 . S
C15 N12 1.314 1_554 S
C15 C13 1.353 . S
C15 H71 0.930 . S
C16 N17 1.314 . S
C16 C21 1.353 . S
C16 H22 0.930 . S
N17 Li0 1.990 . S
N17 C16 1.314 . S
N17 C19 1.279 1_455 S
C18 C19 1.358 . S
C18 C20 1.356 . S
C18 H72 0.930 . S
C19 N17 1.279 1_655 S
C19 C18 1.358 . S
C19 H23 0.930 . S
C20 C18 1.356 . S
C20 C21 1.348 1_655 S
C21 C16 1.353 . S
C21 C20 1.348 1_455 S
C21 H73 0.929 . S
H22 C16 0.930 . S
H23 C19 0.930 . S
C24 N25 1.314 . S
C24 C26 1.353 . S
C24 H30 0.930 . S
N25 Li1 1.994 . S
N25 C24 1.314 . S
N25 C28 1.279 . S
C26 C24 1.353 . S
C26 C29 1.348 . S
C26 H74 0.929 . S
C27 C28 1.358 . S
C27 C29 1.356 . S
C27 H75 0.930 . S
C28 N25 1.279 . S
C28 C27 1.358 . S
C28 H31 0.930 . S
C29 C26 1.348 . S
C29 C27 1.356 . S
H30 C24 0.930 . S
H31 C28 0.930 . S
C32 C34 1.348 1_554 S
C32 C35 1.356 . S
C32 O62 1.325 . S
N33 C36 1.314 . S
N33 C37 1.279 . S
C34 C32 1.348 1_556 S
C34 C36 1.353 1_556 S
C34 H76 0.929 . S
C35 C32 1.356 . S
C35 C37 1.358 . S
C35 H77 0.930 . S
C36 N33 1.314 . S
C36 C34 1.353 1_554 S
C36 H78 0.930 1_554 S
C37 N33 1.279 . S
C37 C35 1.358 . S
C37 H79 0.930 . S
C38 C39 1.348 . S
C38 C40 1.356 . S
C38 O63 1.325 . S
C39 C38 1.348 . S
C39 C41 1.353 . S
C39 H80 0.929 . S
C40 C38 1.356 . S
C40 C42 1.358 . S
C40 H81 0.930 1_455 S
C41 C39 1.353 . S
C41 N43 1.314 . S
C41 H82 0.930 . S
C42 C40 1.358 . S
C42 N43 1.279 . S
C42 H83 0.930 1_455 S
N43 C41 1.314 . S
N43 C42 1.279 . S
C44 C46 1.353 . S
C44 N47 1.314 . S
C44 H50 0.930 . S
C45 N47 1.279 . S
C45 C48 1.358 . S
C45 H51 0.930 . S
C46 C44 1.353 . S
C46 C49 1.348 . S
C46 H84 0.929 . S
N47 Li2 1.990 . S
N47 C44 1.314 . S
N47 C45 1.279 . S
C48 C45 1.358 . S
C48 C49 1.356 . S
C48 H85 0.930 . S
C49 C46 1.348 . S
C49 C48 1.356 . S
H50 C44 0.930 . S
H51 C45 0.930 . S
C52 N53 1.314 . S
C52 C54 1.353 . S
C52 H58 0.930 . S
N53 Li3 1.990 . S
N53 C52 1.314 . S
N53 C56 1.279 . S
C54 C52 1.353 . S
C54 C57 1.348 . S
C54 H86 0.929 . S
C55 C56 1.358 . S
C55 C57 1.356 . S
C55 H87 0.930 . S
C56 N53 1.279 . S
C56 C55 1.358 . S
C56 H59 0.930 . S
C57 C54 1.348 . S
C57 C55 1.356 . S
H58 C52 0.930 . S
H59 C56 0.930 . S
O60 Li0 1.956 . S
O60 Li1 1.954 1_454 S
O60 Li2 1.961 . S
O60 C4 1.325 . S
O61 Li0 1.969 1_655 S
O61 Li1 1.956 1_554 S
O61 Li3 1.962 1_654 S
O61 C10 1.325 1_554 S
O62 Li0 1.961 . S
O62 Li2 1.956 . S
O62 Li3 1.970 1_554 S
O62 C32 1.325 . S
O63 Li1 1.972 1_455 S
O63 Li2 1.970 1_556 S
O63 Li3 1.956 . S
O63 C38 1.325 . S
H64 C6 0.929 . S
H65 C7 0.930 . S
H66 C8 0.930 . S
H67 C9 0.930 . S
H68 C11 0.930 . S
H69 C13 0.929 . S
H70 C14 0.930 . S
H71 C15 0.930 . S
H72 C18 0.930 . S
H73 C21 0.929 . S
H74 C26 0.929 . S
H75 C27 0.930 . S
H76 C34 0.929 . S
H77 C35 0.930 . S
H78 C36 0.930 1_556 S
H79 C37 0.930 . S
H80 C39 0.929 . S
H81 C40 0.930 1_655 S
H82 C41 0.930 . S
H83 C42 0.930 1_655 S
H84 C46 0.929 . S
H85 C48 0.930 . S
H86 C54 0.929 . S
H87 C55 0.930 . S
Li88 N105 1.994 . S
Li88 O148 1.956 1_556 S
Li88 O149 1.954 1_556 S
Li88 O150 1.972 . S
Li89 N113 1.990 . S
Li89 O148 1.969 . S
Li89 O149 1.956 . S
Li89 O151 1.961 . S
Li90 N135 1.990 . S
Li90 O148 1.962 1_556 S
Li90 O150 1.956 . S
Li90 O151 1.970 1_556 S
Li91 N141 1.990 . S
Li91 O149 1.961 . S
Li91 O150 1.970 1_554 S
Li91 O151 1.956 . S
C92 C94 1.348 1_556 S
C92 C95 1.356 . S
C92 O148 1.325 1_556 S
N93 C96 1.314 1_556 S
N93 C97 1.279 . S
C94 C92 1.348 1_554 S
C94 C96 1.353 . S
C94 H152 0.929 . S
C95 C92 1.356 . S
C95 C97 1.358 . S
C95 H153 0.930 . S
C96 N93 1.314 1_554 S
C96 C94 1.353 . S
C96 H154 0.930 . S
C97 N93 1.279 . S
C97 C95 1.358 . S
C97 H155 0.930 . S
C98 C101 1.348 . S
C98 C102 1.356 . S
C98 O149 1.325 . S
C99 N100 1.279 . S
C99 C102 1.358 . S
C99 H156 0.930 . S
N100 C99 1.279 . S
N100 C103 1.314 . S
C101 C98 1.348 . S
C101 C103 1.353 . S
C101 H157 0.929 . S
C102 C98 1.356 . S
C102 C99 1.358 . S
C102 H158 0.930 . S
C103 N100 1.314 . S
C103 C101 1.353 . S
C103 H159 0.930 . S
C104 N105 1.314 . S
C104 C109 1.353 . S
C104 H110 0.930 . S
N105 Li88 1.994 . S
N105 C104 1.314 . S
N105 C107 1.279 . S
C106 C107 1.358 . S
C106 C108 1.356 . S
C106 H160 0.930 . S
C107 N105 1.279 . S
C107 C106 1.358 . S
C107 H111 0.930 . S
C108 C106 1.356 . S
C108 C109 1.348 . S
C109 C104 1.353 . S
C109 C108 1.348 . S
C109 H161 0.929 . S
H110 C104 0.930 . S
H111 C107 0.930 . S
C112 N113 1.314 . S
C112 C114 1.353 . S
C112 H118 0.930 . S
N113 Li89 1.990 . S
N113 C112 1.314 . S
N113 C116 1.279 . S
C114 C112 1.353 . S
C114 C117 1.348 . S
C114 H162 0.929 . S
C115 C116 1.358 . S
C115 C117 1.356 . S
C115 H163 0.930 . S
C116 N113 1.279 . S
C116 C115 1.358 . S
C116 H119 0.930 . S
C117 C114 1.348 . S
C117 C115 1.356 . S
H118 C112 0.930 . S
H119 C116 0.930 . S
C120 C122 1.348 . S
C120 C123 1.356 . S
C120 O150 1.325 . S
N121 C124 1.314 . S
N121 C125 1.279 . S
C122 C120 1.348 . S
C122 C124 1.353 . S
C122 H164 0.929 . S
C123 C120 1.356 . S
C123 C125 1.358 . S
C123 H165 0.930 . S
C124 N121 1.314 . S
C124 C122 1.353 . S
C124 H166 0.930 . S
C125 N121 1.279 . S
C125 C123 1.358 . S
C125 H167 0.930 . S
C126 C127 1.348 1_554 S
C126 C128 1.356 . S
C126 O151 1.325 . S
C127 C126 1.348 1_556 S
C127 C129 1.353 1_556 S
C127 H168 0.929 . S
C128 C126 1.356 . S
C128 C130 1.358 . S
C128 H169 0.930 . S
C129 C127 1.353 1_554 S
C129 N131 1.314 . S
C129 H170 0.930 1_554 S
C130 C128 1.358 . S
C130 N131 1.279 . S
C130 H171 0.930 . S
N131 C129 1.314 . S
N131 C130 1.279 . S
C132 C134 1.353 . S
C132 N135 1.314 . S
C132 H138 0.930 . S
C133 N135 1.279 . S
C133 C136 1.358 . S
C133 H139 0.930 . S
C134 C132 1.353 . S
C134 C137 1.348 . S
C134 H172 0.929 . S
N135 Li90 1.990 . S
N135 C132 1.314 . S
N135 C133 1.279 . S
C136 C133 1.358 . S
C136 C137 1.356 . S
C136 H173 0.930 . S
C137 C134 1.348 . S
C137 C136 1.356 . S
H138 C132 0.930 . S
H139 C133 0.930 . S
C140 N141 1.314 . S
C140 C142 1.353 . S
C140 H146 0.930 . S
N141 Li91 1.990 . S
N141 C140 1.314 . S
N141 C144 1.279 . S
C142 C140 1.353 . S
C142 C145 1.348 . S
C142 H174 0.929 . S
C143 C144 1.358 . S
C143 C145 1.356 . S
C143 H175 0.930 . S
C144 N141 1.279 . S
C144 C143 1.358 . S
C144 H147 0.930 . S
C145 C142 1.348 . S
C145 C143 1.356 . S
H146 C140 0.930 . S
H147 C144 0.930 . S
O148 Li88 1.956 1_554 S
O148 Li89 1.969 . S
O148 Li90 1.962 1_554 S
O148 C92 1.325 1_554 S
O149 Li88 1.954 1_554 S
O149 Li89 1.956 . S
O149 Li91 1.961 . S
O149 C98 1.325 . S
O150 Li88 1.972 . S
O150 Li90 1.956 . S
O150 Li91 1.970 1_556 S
O150 C120 1.325 . S
O151 Li89 1.961 . S
O151 Li90 1.970 1_554 S
O151 Li91 1.956 . S
O151 C126 1.325 . S
H152 C94 0.929 . S
H153 C95 0.930 . S
H154 C96 0.930 . S
H155 C97 0.930 . S
H156 C99 0.930 . S
H157 C101 0.929 . S
H158 C102 0.930 . S
H159 C103 0.930 . S
H160 C106 0.930 . S
H161 C109 0.929 . S
H162 C114 0.929 . S
H163 C115 0.930 . S
H164 C122 0.929 . S
H165 C123 0.930 . S
H166 C124 0.930 . S
H167 C125 0.930 . S
H168 C127 0.929 . S
H169 C128 0.930 . S
H170 C129 0.930 1_556 S
H171 C130 0.930 . S
H172 C134 0.929 . S
H173 C136 0.930 . S
H174 C142 0.929 . S
H175 C143 0.930 . S
Li176 N193 1.994 . S
Li176 O236 1.956 1_556 S
Li176 O237 1.954 1_556 S
Li176 O238 1.972 . S
Li177 N201 1.990 . S
Li177 O236 1.969 . S
Li177 O237 1.956 . S
Li177 O239 1.961 1_545 S
Li178 N223 1.990 . S
Li178 O236 1.962 1_556 S
Li178 O238 1.956 . S
Li178 O239 1.970 1_546 S
Li179 N229 1.990 . S
Li179 O237 1.961 1_565 S
Li179 O238 1.970 1_564 S
Li179 O239 1.956 . S
C180 C182 1.348 1_556 S
C180 C183 1.356 . S
C180 O236 1.325 1_556 S
N181 C184 1.314 1_556 S
N181 C185 1.279 . S
C182 C180 1.348 1_554 S
C182 C184 1.353 . S
C182 H240 0.929 . S
C183 C180 1.356 . S
C183 C185 1.358 . S
C183 H241 0.930 . S
C184 N181 1.314 1_554 S
C184 C182 1.353 . S
C184 H242 0.930 . S
C185 N181 1.279 . S
C185 C183 1.358 . S
C185 H243 0.930 . S
C186 C189 1.348 . S
C186 C190 1.356 . S
C186 O237 1.325 . S
C187 N188 1.279 . S
C187 C190 1.358 . S
C187 H244 0.930 1_545 S
N188 C187 1.279 . S
N188 C191 1.314 . S
C189 C186 1.348 . S
C189 C191 1.353 . S
C189 H245 0.929 . S
C190 C186 1.356 . S
C190 C187 1.358 . S
C190 H246 0.930 1_545 S
C191 N188 1.314 . S
C191 C189 1.353 . S
C191 H247 0.930 . S
C192 N193 1.314 . S
C192 C197 1.353 . S
C192 H198 0.930 . S
N193 Li176 1.994 . S
N193 C192 1.314 . S
N193 C195 1.279 . S
C194 C195 1.358 . S
C194 C196 1.356 . S
C194 H248 0.930 . S
C195 N193 1.279 . S
C195 C194 1.358 . S
C195 H199 0.930 . S
C196 C194 1.356 . S
C196 C197 1.348 . S
C197 C192 1.353 . S
C197 C196 1.348 . S
C197 H249 0.929 . S
H198 C192 0.930 . S
H199 C195 0.930 . S
C200 N201 1.314 . S
C200 C202 1.353 . S
C200 H206 0.930 . S
N201 Li177 1.990 . S
N201 C200 1.314 . S
N201 C204 1.279 . S
C202 C200 1.353 . S
C202 C205 1.348 . S
C202 H250 0.929 . S
C203 C204 1.358 . S
C203 C205 1.356 . S
C203 H251 0.930 . S
C204 N201 1.279 . S
C204 C203 1.358 . S
C204 H207 0.930 . S
C205 C202 1.348 . S
C205 C203 1.356 . S
H206 C200 0.930 . S
H207 C204 0.930 . S
C208 C210 1.348 1_545 S
C208 C211 1.356 . S
C208 O238 1.325 . S
N209 C212 1.314 . S
N209 C213 1.279 1_565 S
C210 C208 1.348 1_565 S
C210 C212 1.353 . S
C210 H252 0.929 . S
C211 C208 1.356 . S
C211 C213 1.358 . S
C211 H253 0.930 . S
C212 N209 1.314 . S
C212 C210 1.353 . S
C212 H254 0.930 . S
C213 N209 1.279 1_545 S
C213 C211 1.358 . S
C213 H255 0.930 . S
C214 C215 1.348 1_554 S
C214 C216 1.356 . S
C214 O239 1.325 . S
C215 C214 1.348 1_556 S
C215 C217 1.353 1_556 S
C215 H256 0.929 . S
C216 C214 1.356 . S
C216 C218 1.358 . S
C216 H257 0.930 . S
C217 C215 1.353 1_554 S
C217 N219 1.314 . S
C217 H258 0.930 1_554 S
C218 C216 1.358 . S
C218 N219 1.279 . S
C218 H259 0.930 . S
N219 C217 1.314 . S
N219 C218 1.279 . S
C220 C222 1.353 . S
C220 N223 1.314 . S
C220 H226 0.930 . S
C221 N223 1.279 1_565 S
C221 C224 1.358 . S
C221 H227 0.930 . S
C222 C220 1.353 . S
C222 C225 1.348 1_545 S
C222 H260 0.929 . S
N223 Li178 1.990 . S
N223 C220 1.314 . S
N223 C221 1.279 1_545 S
C224 C221 1.358 . S
C224 C225 1.356 . S
C224 H261 0.930 . S
C225 C222 1.348 1_565 S
C225 C224 1.356 . S
H226 C220 0.930 . S
H227 C221 0.930 . S
C228 N229 1.314 . S
C228 C230 1.353 . S
C228 H234 0.930 . S
N229 Li179 1.990 . S
N229 C228 1.314 . S
N229 C232 1.279 . S
C230 C228 1.353 . S
C230 C233 1.348 . S
C230 H262 0.929 . S
C231 C232 1.358 . S
C231 C233 1.356 . S
C231 H263 0.930 . S
C232 N229 1.279 . S
C232 C231 1.358 . S
C232 H235 0.930 . S
C233 C230 1.348 . S
C233 C231 1.356 . S
H234 C228 0.930 . S
H235 C232 0.930 . S
O236 Li176 1.956 1_554 S
O236 Li177 1.969 . S
O236 Li178 1.962 1_554 S
O236 C180 1.325 1_554 S
O237 Li176 1.954 1_554 S
O237 Li177 1.956 . S
O237 Li179 1.961 1_545 S
O237 C186 1.325 . S
O238 Li176 1.972 . S
O238 Li178 1.956 . S
O238 Li179 1.970 1_546 S
O238 C208 1.325 . S
O239 Li177 1.961 1_565 S
O239 Li178 1.970 1_564 S
O239 Li179 1.956 . S
O239 C214 1.325 . S
H240 C182 0.929 . S
H241 C183 0.930 . S
H242 C184 0.930 . S
H243 C185 0.930 . S
H244 C187 0.930 1_565 S
H245 C189 0.929 . S
H246 C190 0.930 1_565 S
H247 C191 0.930 . S
H248 C194 0.930 . S
H249 C197 0.929 . S
H250 C202 0.929 . S
H251 C203 0.930 . S
H252 C210 0.929 . S
H253 C211 0.930 . S
H254 C212 0.930 . S
H255 C213 0.930 . S
H256 C215 0.929 . S
H257 C216 0.930 . S
H258 C217 0.930 1_556 S
H259 C218 0.930 . S
H260 C222 0.929 . S
H261 C224 0.930 . S
H262 C230 0.929 . S
H263 C231 0.930 . S
Li264 N281 1.990 . S
Li264 O324 1.956 . S
Li264 O325 1.970 . S
Li264 O326 1.961 . S
Li265 N289 1.990 . S
Li265 O324 1.970 . S
Li265 O325 1.956 . S
Li265 O327 1.961 . S
Li266 N311 1.990 . S
Li266 O324 1.961 . S
Li266 O326 1.956 . S
Li266 O327 1.970 . S
Li267 N317 1.990 . S
Li267 O325 1.961 . S
Li267 O326 1.970 . S
Li267 O327 1.956 . S
C268 C270 1.348 . S
C268 C271 1.356 . S
C268 O324 1.325 . S
N269 C272 1.314 . S
N269 C273 1.279 . S
C270 C268 1.348 . S
C270 C272 1.353 . S
C270 H328 0.929 . S
C271 C268 1.356 . S
C271 C273 1.358 . S
C271 H329 0.930 . S
C272 N269 1.314 . S
C272 C270 1.353 . S
C272 H330 0.930 . S
C273 N269 1.279 . S
C273 C271 1.358 . S
C273 H331 0.930 . S
C274 C277 1.348 . S
C274 C278 1.356 . S
C274 O325 1.325 . S
C275 N276 1.279 . S
C275 C278 1.358 . S
C275 H332 0.930 . S
N276 C275 1.279 . S
N276 C279 1.314 . S
C277 C274 1.348 . S
C277 C279 1.353 . S
C277 H333 0.929 . S
C278 C274 1.356 . S
C278 C275 1.358 . S
C278 H334 0.930 . S
C279 N276 1.314 . S
C279 C277 1.353 . S
C279 H335 0.930 . S
C280 N281 1.314 . S
C280 C285 1.353 . S
C280 H286 0.930 . S
N281 Li264 1.990 . S
N281 C280 1.314 . S
N281 C283 1.279 . S
C282 C283 1.358 . S
C282 C284 1.356 . S
C282 H336 0.930 . S
C283 N281 1.279 . S
C283 C282 1.358 . S
C283 H287 0.930 . S
C284 C282 1.356 . S
C284 C285 1.348 . S
C285 C280 1.353 . S
C285 C284 1.348 . S
C285 H337 0.929 . S
H286 C280 0.930 . S
H287 C283 0.930 . S
C288 N289 1.314 . S
C288 C290 1.353 . S
C288 H294 0.930 . S
N289 Li265 1.990 . S
N289 C288 1.314 . S
N289 C292 1.279 . S
C290 C288 1.353 . S
C290 C293 1.348 . S
C290 H338 0.929 . S
C291 C292 1.358 . S
C291 C293 1.356 . S
C291 H339 0.930 . S
C292 N289 1.279 . S
C292 C291 1.358 . S
C292 H295 0.930 . S
C293 C290 1.348 . S
C293 C291 1.356 . S
H294 C288 0.930 . S
H295 C292 0.930 . S
C296 C298 1.348 . S
C296 C299 1.356 . S
C296 O326 1.325 . S
N297 C300 1.314 . S
N297 C301 1.279 . S
C298 C296 1.348 . S
C298 C300 1.353 . S
C298 H340 0.929 . S
C299 C296 1.356 . S
C299 C301 1.358 . S
C299 H341 0.930 . S
C300 N297 1.314 . S
C300 C298 1.353 . S
C300 H342 0.930 . S
C301 N297 1.279 . S
C301 C299 1.358 . S
C301 H343 0.930 . S
C302 C303 1.348 . S
C302 C304 1.356 . S
C302 O327 1.325 . S
C303 C302 1.348 . S
C303 C305 1.353 . S
C303 H344 0.929 . S
C304 C302 1.356 . S
C304 C306 1.358 . S
C304 H345 0.930 . S
C305 C303 1.353 . S
C305 N307 1.314 . S
C305 H346 0.930 . S
C306 C304 1.358 . S
C306 N307 1.279 . S
C306 H347 0.930 . S
N307 C305 1.314 . S
N307 C306 1.279 . S
C308 C310 1.353 . S
C308 N311 1.314 . S
C308 H314 0.930 . S
C309 N311 1.279 . S
C309 C312 1.358 . S
C309 H315 0.930 . S
C310 C308 1.353 . S
C310 C313 1.348 . S
C310 H348 0.929 . S
N311 Li266 1.990 . S
N311 C308 1.314 . S
N311 C309 1.279 . S
C312 C309 1.358 . S
C312 C313 1.356 . S
C312 H349 0.930 . S
C313 C310 1.348 . S
C313 C312 1.356 . S
H314 C308 0.930 . S
H315 C309 0.930 . S
C316 N317 1.314 . S
C316 C318 1.353 . S
C316 H322 0.930 . S
N317 Li267 1.990 . S
N317 C316 1.314 . S
N317 C320 1.279 . S
C318 C316 1.353 . S
C318 C321 1.348 . S
C318 H350 0.929 . S
C319 C320 1.358 . S
C319 C321 1.356 . S
C319 H351 0.930 . S
C320 N317 1.279 . S
C320 C319 1.358 . S
C320 H323 0.930 . S
C321 C318 1.348 . S
C321 C319 1.356 . S
H322 C316 0.930 . S
H323 C320 0.930 . S
O324 Li264 1.956 . S
O324 Li265 1.970 . S
O324 Li266 1.961 . S
O324 C268 1.325 . S
O325 Li264 1.970 . S
O325 Li265 1.956 . S
O325 Li267 1.961 . S
O325 C274 1.325 . S
O326 Li264 1.961 . S
O326 Li266 1.956 . S
O326 Li267 1.970 . S
O326 C296 1.325 . S
O327 Li265 1.961 . S
O327 Li266 1.970 . S
O327 Li267 1.956 . S
O327 C302 1.325 . S
H328 C270 0.929 . S
H329 C271 0.930 . S
H330 C272 0.930 . S
H331 C273 0.930 . S
H332 C275 0.930 . S
H333 C277 0.929 . S
H334 C278 0.930 . S
H335 C279 0.930 . S
H336 C282 0.930 . S
H337 C285 0.929 . S
H338 C290 0.929 . S
H339 C291 0.930 . S
H340 C298 0.929 . S
H341 C299 0.930 . S
H342 C300 0.930 . S
H343 C301 0.930 . S
H344 C303 0.929 . S
H345 C304 0.930 . S
H346 C305 0.930 . S
H347 C306 0.930 . S
H348 C310 0.929 . S
H349 C312 0.930 . S
H350 C318 0.929 . S
H351 C319 0.930 . S
Li352 N369 1.990 . S
Li352 O412 1.956 . S
Li352 O413 1.970 . S
Li352 O414 1.961 . S
Li353 N377 1.990 . S
Li353 O412 1.970 . S
Li353 O413 1.956 . S
Li353 O415 1.961 . S
Li354 N399 1.990 . S
Li354 O412 1.961 . S
Li354 O414 1.956 . S
Li354 O415 1.970 . S
Li355 N405 1.990 . S
Li355 O413 1.961 . S
Li355 O414 1.970 . S
Li355 O415 1.956 . S
C356 C358 1.348 . S
C356 C359 1.356 . S
C356 O412 1.325 . S
N357 C360 1.314 . S
N357 C361 1.279 . S
C358 C356 1.348 . S
C358 C360 1.353 . S
C358 H416 0.929 . S
C359 C356 1.356 . S
C359 C361 1.358 . S
C359 H417 0.930 . S
C360 N357 1.314 . S
C360 C358 1.353 . S
C360 H418 0.930 . S
C361 N357 1.279 . S
C361 C359 1.358 . S
C361 H419 0.930 . S
C362 C365 1.348 . S
C362 C366 1.356 . S
C362 O413 1.325 . S
C363 N364 1.279 . S
C363 C366 1.358 . S
C363 H420 0.930 . S
N364 C363 1.279 . S
N364 C367 1.314 . S
C365 C362 1.348 . S
C365 C367 1.353 . S
C365 H421 0.929 . S
C366 C362 1.356 . S
C366 C363 1.358 . S
C366 H422 0.930 . S
C367 N364 1.314 . S
C367 C365 1.353 . S
C367 H423 0.930 . S
C368 N369 1.314 . S
C368 C373 1.353 . S
C368 H374 0.930 . S
N369 Li352 1.990 . S
N369 C368 1.314 . S
N369 C371 1.279 . S
C370 C371 1.358 . S
C370 C372 1.356 . S
C370 H424 0.930 . S
C371 N369 1.279 . S
C371 C370 1.358 . S
C371 H375 0.930 . S
C372 C370 1.356 . S
C372 C373 1.348 . S
C373 C368 1.353 . S
C373 C372 1.348 . S
C373 H425 0.929 . S
H374 C368 0.930 . S
H375 C371 0.930 . S
C376 N377 1.314 . S
C376 C378 1.353 . S
C376 H382 0.930 . S
N377 Li353 1.990 . S
N377 C376 1.314 . S
N377 C380 1.279 . S
C378 C376 1.353 . S
C378 C381 1.348 . S
C378 H426 0.929 . S
C379 C380 1.358 . S
C379 C381 1.356 . S
C379 H427 0.930 . S
C380 N377 1.279 . S
C380 C379 1.358 . S
C380 H383 0.930 . S
C381 C378 1.348 . S
C381 C379 1.356 . S
H382 C376 0.930 . S
H383 C380 0.930 . S
C384 C386 1.348 . S
C384 C387 1.356 . S
C384 O414 1.325 . S
N385 C388 1.314 . S
N385 C389 1.279 . S
C386 C384 1.348 . S
C386 C388 1.353 . S
C386 H428 0.929 . S
C387 C384 1.356 . S
C387 C389 1.358 . S
C387 H429 0.930 . S
C388 N385 1.314 . S
C388 C386 1.353 . S
C388 H430 0.930 . S
C389 N385 1.279 . S
C389 C387 1.358 . S
C389 H431 0.930 . S
C390 C391 1.348 . S
C390 C392 1.356 . S
C390 O415 1.325 . S
C391 C390 1.348 . S
C391 C393 1.353 . S
C391 H432 0.929 . S
C392 C390 1.356 . S
C392 C394 1.358 . S
C392 H433 0.930 . S
C393 C391 1.353 . S
C393 N395 1.314 . S
C393 H434 0.930 . S
C394 C392 1.358 . S
C394 N395 1.279 . S
C394 H435 0.930 . S
N395 C393 1.314 . S
N395 C394 1.279 . S
C396 C398 1.353 . S
C396 N399 1.314 . S
C396 H402 0.930 . S
C397 N399 1.279 . S
C397 C400 1.358 . S
C397 H403 0.930 . S
C398 C396 1.353 . S
C398 C401 1.348 . S
C398 H436 0.929 . S
N399 Li354 1.990 . S
N399 C396 1.314 . S
N399 C397 1.279 . S
C400 C397 1.358 . S
C400 C401 1.356 . S
C400 H437 0.930 . S
C401 C398 1.348 . S
C401 C400 1.356 . S
H402 C396 0.930 . S
H403 C397 0.930 . S
C404 N405 1.314 . S
C404 C406 1.353 . S
C404 H410 0.930 . S
N405 Li355 1.990 . S
N405 C404 1.314 . S
N405 C408 1.279 . S
C406 C404 1.353 . S
C406 C409 1.348 . S
C406 H438 0.929 . S
C407 C408 1.358 . S
C407 C409 1.356 . S
C407 H439 0.930 . S
C408 N405 1.279 . S
C408 C407 1.358 . S
C408 H411 0.930 . S
C409 C406 1.348 . S
C409 C407 1.356 . S
H410 C404 0.930 . S
H411 C408 0.930 . S
O412 Li352 1.956 . S
O412 Li353 1.970 . S
O412 Li354 1.961 . S
O412 C356 1.325 . S
O413 Li352 1.970 . S
O413 Li353 1.956 . S
O413 Li355 1.961 . S
O413 C362 1.325 . S
O414 Li352 1.961 . S
O414 Li354 1.956 . S
O414 Li355 1.970 . S
O414 C384 1.325 . S
O415 Li353 1.961 . S
O415 Li354 1.970 . S
O415 Li355 1.956 . S
O415 C390 1.325 . S
H416 C358 0.929 . S
H417 C359 0.930 . S
H418 C360 0.930 . S
H419 C361 0.930 . S
H420 C363 0.930 . S
H421 C365 0.929 . S
H422 C366 0.930 . S
H423 C367 0.930 . S
H424 C370 0.930 . S
H425 C373 0.929 . S
H426 C378 0.929 . S
H427 C379 0.930 . S
H428 C386 0.929 . S
H429 C387 0.930 . S
H430 C388 0.930 . S
H431 C389 0.930 . S
H432 C391 0.929 . S
H433 C392 0.930 . S
H434 C393 0.930 . S
H435 C394 0.930 . S
H436 C398 0.929 . S
H437 C400 0.930 . S
H438 C406 0.929 . S
H439 C407 0.930 . S
Li440 N457 1.990 . S
Li440 O500 1.956 . S
Li440 O501 1.970 . S
Li440 O502 1.961 . S
Li441 N465 1.990 . S
Li441 O500 1.970 . S
Li441 O501 1.956 . S
Li441 O503 1.961 . S
Li442 N487 1.990 . S
Li442 O500 1.961 . S
Li442 O502 1.956 . S
Li442 O503 1.970 . S
Li443 N493 1.990 . S
Li443 O501 1.961 . S
Li443 O502 1.970 . S
Li443 O503 1.956 . S
C444 C446 1.348 . S
C444 C447 1.356 . S
C444 O500 1.325 . S
N445 C448 1.314 . S
N445 C449 1.279 . S
C446 C444 1.348 . S
C446 C448 1.353 . S
C446 H504 0.929 . S
C447 C444 1.356 . S
C447 C449 1.358 . S
C447 H505 0.930 . S
C448 N445 1.314 . S
C448 C446 1.353 . S
C448 H506 0.930 . S
C449 N445 1.279 . S
C449 C447 1.358 . S
C449 H507 0.930 . S
C450 C453 1.348 . S
C450 C454 1.356 . S
C450 O501 1.325 . S
C451 N452 1.279 . S
C451 C454 1.358 . S
C451 H508 0.930 . S
N452 C451 1.279 . S
N452 C455 1.314 . S
C453 C450 1.348 . S
C453 C455 1.353 . S
C453 H509 0.929 . S
C454 C450 1.356 . S
C454 C451 1.358 . S
C454 H510 0.930 . S
C455 N452 1.314 . S
C455 C453 1.353 . S
C455 H511 0.930 . S
C456 N457 1.314 . S
C456 C461 1.353 . S
C456 H462 0.930 . S
N457 Li440 1.990 . S
N457 C456 1.314 . S
N457 C459 1.279 . S
C458 C459 1.358 . S
C458 C460 1.356 . S
C458 H512 0.930 . S
C459 N457 1.279 . S
C459 C458 1.358 . S
C459 H463 0.930 . S
C460 C458 1.356 . S
C460 C461 1.348 . S
C461 C456 1.353 . S
C461 C460 1.348 . S
C461 H513 0.929 . S
H462 C456 0.930 . S
H463 C459 0.930 . S
C464 N465 1.314 . S
C464 C466 1.353 . S
C464 H470 0.930 . S
N465 Li441 1.990 . S
N465 C464 1.314 . S
N465 C468 1.279 . S
C466 C464 1.353 . S
C466 C469 1.348 . S
C466 H514 0.929 . S
C467 C468 1.358 . S
C467 C469 1.356 . S
C467 H515 0.930 . S
C468 N465 1.279 . S
C468 C467 1.358 . S
C468 H471 0.930 . S
C469 C466 1.348 . S
C469 C467 1.356 . S
H470 C464 0.930 . S
H471 C468 0.930 . S
C472 C474 1.348 . S
C472 C475 1.356 . S
C472 O502 1.325 . S
N473 C476 1.314 . S
N473 C477 1.279 . S
C474 C472 1.348 . S
C474 C476 1.353 . S
C474 H516 0.929 . S
C475 C472 1.356 . S
C475 C477 1.358 . S
C475 H517 0.930 . S
C476 N473 1.314 . S
C476 C474 1.353 . S
C476 H518 0.930 . S
C477 N473 1.279 . S
C477 C475 1.358 . S
C477 H519 0.930 . S
C478 C479 1.348 . S
C478 C480 1.356 . S
C478 O503 1.325 . S
C479 C478 1.348 . S
C479 C481 1.353 . S
C479 H520 0.929 . S
C480 C478 1.356 . S
C480 C482 1.358 . S
C480 H521 0.930 . S
C481 C479 1.353 . S
C481 N483 1.314 . S
C481 H522 0.930 . S
C482 C480 1.358 . S
C482 N483 1.279 . S
C482 H523 0.930 . S
N483 C481 1.314 . S
N483 C482 1.279 . S
C484 C486 1.353 . S
C484 N487 1.314 . S
C484 H490 0.930 . S
C485 N487 1.279 . S
C485 C488 1.358 . S
C485 H491 0.930 . S
C486 C484 1.353 . S
C486 C489 1.348 . S
C486 H524 0.929 . S
N487 Li442 1.990 . S
N487 C484 1.314 . S
N487 C485 1.279 . S
C488 C485 1.358 . S
C488 C489 1.356 . S
C488 H525 0.930 . S
C489 C486 1.348 . S
C489 C488 1.356 . S
H490 C484 0.930 . S
H491 C485 0.930 . S
C492 N493 1.314 . S
C492 C494 1.353 . S
C492 H498 0.930 . S
N493 Li443 1.990 . S
N493 C492 1.314 . S
N493 C496 1.279 . S
C494 C492 1.353 . S
C494 C497 1.348 . S
C494 H526 0.929 . S
C495 C496 1.358 . S
C495 C497 1.356 . S
C495 H527 0.930 . S
C496 N493 1.279 . S
C496 C495 1.358 . S
C496 H499 0.930 . S
C497 C494 1.348 . S
C497 C495 1.356 . S
H498 C492 0.930 . S
H499 C496 0.930 . S
O500 Li440 1.956 . S
O500 Li441 1.970 . S
O500 Li442 1.961 . S
O500 C444 1.325 . S
O501 Li440 1.970 . S
O501 Li441 1.956 . S
O501 Li443 1.961 . S
O501 C450 1.325 . S
O502 Li440 1.961 . S
O502 Li442 1.956 . S
O502 Li443 1.970 . S
O502 C472 1.325 . S
O503 Li441 1.961 . S
O503 Li442 1.970 . S
O503 Li443 1.956 . S
O503 C478 1.325 . S
H504 C446 0.929 . S
H505 C447 0.930 . S
H506 C448 0.930 . S
H507 C449 0.930 . S
H508 C451 0.930 . S
H509 C453 0.929 . S
H510 C454 0.930 . S
H511 C455 0.930 . S
H512 C458 0.930 . S
H513 C461 0.929 . S
H514 C466 0.929 . S
H515 C467 0.930 . S
H516 C474 0.929 . S
H517 C475 0.930 . S
H518 C476 0.930 . S
H519 C477 0.930 . S
H520 C479 0.929 . S
H521 C480 0.930 . S
H522 C481 0.930 . S
H523 C482 0.930 . S
H524 C486 0.929 . S
H525 C488 0.930 . S
H526 C494 0.929 . S
H527 C495 0.930 . S
Li528 N545 1.990 . S
Li528 O588 1.956 . S
Li528 O589 1.970 . S
Li528 O590 1.961 . S
Li529 N553 1.990 . S
Li529 O588 1.970 . S
Li529 O589 1.956 . S
Li529 O591 1.961 . S
Li530 N575 1.990 . S
Li530 O588 1.961 . S
Li530 O590 1.956 . S
Li530 O591 1.970 . S
Li531 N581 1.990 . S
Li531 O589 1.961 . S
Li531 O590 1.970 . S
Li531 O591 1.956 . S
C532 C534 1.348 . S
C532 C535 1.356 . S
C532 O588 1.325 . S
N533 C536 1.314 . S
N533 C537 1.279 . S
C534 C532 1.348 . S
C534 C536 1.353 . S
C534 H592 0.929 . S
C535 C532 1.356 . S
C535 C537 1.358 . S
C535 H593 0.930 . S
C536 N533 1.314 . S
C536 C534 1.353 . S
C536 H594 0.930 . S
C537 N533 1.279 . S
C537 C535 1.358 . S
C537 H595 0.930 . S
C538 C541 1.348 . S
C538 C542 1.356 . S
C538 O589 1.325 . S
C539 N540 1.279 . S
C539 C542 1.358 . S
C539 H596 0.930 . S
N540 C539 1.279 . S
N540 C543 1.314 . S
C541 C538 1.348 . S
C541 C543 1.353 . S
C541 H597 0.929 . S
C542 C538 1.356 . S
C542 C539 1.358 . S
C542 H598 0.930 . S
C543 N540 1.314 . S
C543 C541 1.353 . S
C543 H599 0.930 . S
C544 N545 1.314 . S
C544 C549 1.353 . S
C544 H550 0.930 . S
N545 Li528 1.990 . S
N545 C544 1.314 . S
N545 C547 1.279 . S
C546 C547 1.358 . S
C546 C548 1.356 . S
C546 H600 0.930 . S
C547 N545 1.279 . S
C547 C546 1.358 . S
C547 H551 0.930 . S
C548 C546 1.356 . S
C548 C549 1.348 . S
C549 C544 1.353 . S
C549 C548 1.348 . S
C549 H601 0.929 . S
H550 C544 0.930 . S
H551 C547 0.930 . S
C552 N553 1.314 . S
C552 C554 1.353 . S
C552 H558 0.930 . S
N553 Li529 1.990 . S
N553 C552 1.314 . S
N553 C556 1.279 . S
C554 C552 1.353 . S
C554 C557 1.348 . S
C554 H602 0.929 . S
C555 C556 1.358 . S
C555 C557 1.356 . S
C555 H603 0.930 . S
C556 N553 1.279 . S
C556 C555 1.358 . S
C556 H559 0.930 . S
C557 C554 1.348 . S
C557 C555 1.356 . S
H558 C552 0.930 . S
H559 C556 0.930 . S
C560 C562 1.348 . S
C560 C563 1.356 . S
C560 O590 1.325 . S
N561 C564 1.314 . S
N561 C565 1.279 . S
C562 C560 1.348 . S
C562 C564 1.353 . S
C562 H604 0.929 . S
C563 C560 1.356 . S
C563 C565 1.358 . S
C563 H605 0.930 . S
C564 N561 1.314 . S
C564 C562 1.353 . S
C564 H606 0.930 . S
C565 N561 1.279 . S
C565 C563 1.358 . S
C565 H607 0.930 . S
C566 C567 1.348 . S
C566 C568 1.356 . S
C566 O591 1.325 . S
C567 C566 1.348 . S
C567 C569 1.353 . S
C567 H608 0.929 . S
C568 C566 1.356 . S
C568 C570 1.358 . S
C568 H609 0.930 . S
C569 C567 1.353 . S
C569 N571 1.314 . S
C569 H610 0.930 . S
C570 C568 1.358 . S
C570 N571 1.279 . S
C570 H611 0.930 . S
N571 C569 1.314 . S
N571 C570 1.279 . S
C572 C574 1.353 . S
C572 N575 1.314 . S
C572 H578 0.930 . S
C573 N575 1.279 . S
C573 C576 1.358 . S
C573 H579 0.930 . S
C574 C572 1.353 . S
C574 C577 1.348 . S
C574 H612 0.929 . S
N575 Li530 1.990 . S
N575 C572 1.314 . S
N575 C573 1.279 . S
C576 C573 1.358 . S
C576 C577 1.356 . S
C576 H613 0.930 . S
C577 C574 1.348 . S
C577 C576 1.356 . S
H578 C572 0.930 . S
H579 C573 0.930 . S
C580 N581 1.314 . S
C580 C582 1.353 . S
C580 H586 0.930 . S
N581 Li531 1.990 . S
N581 C580 1.314 . S
N581 C584 1.279 . S
C582 C580 1.353 . S
C582 C585 1.348 . S
C582 H614 0.929 . S
C583 C584 1.358 . S
C583 C585 1.356 . S
C583 H615 0.930 . S
C584 N581 1.279 . S
C584 C583 1.358 . S
C584 H587 0.930 . S
C585 C582 1.348 . S
C585 C583 1.356 . S
H586 C580 0.930 . S
H587 C584 0.930 . S
O588 Li528 1.956 . S
O588 Li529 1.970 . S
O588 Li530 1.961 . S
O588 C532 1.325 . S
O589 Li528 1.970 . S
O589 Li529 1.956 . S
O589 Li531 1.961 . S
O589 C538 1.325 . S
O590 Li528 1.961 . S
O590 Li530 1.956 . S
O590 Li531 1.970 . S
O590 C560 1.325 . S
O591 Li529 1.961 . S
O591 Li530 1.970 . S
O591 Li531 1.956 . S
O591 C566 1.325 . S
H592 C534 0.929 . S
H593 C535 0.930 . S
H594 C536 0.930 . S
H595 C537 0.930 . S
H596 C539 0.930 . S
H597 C541 0.929 . S
H598 C542 0.930 . S
H599 C543 0.930 . S
H600 C546 0.930 . S
H601 C549 0.929 . S
H602 C554 0.929 . S
H603 C555 0.930 . S
H604 C562 0.929 . S
H605 C563 0.930 . S
H606 C564 0.930 . S
H607 C565 0.930 . S
H608 C567 0.929 . S
H609 C568 0.930 . S
H610 C569 0.930 . S
H611 C570 0.930 . S
H612 C574 0.929 . S
H613 C576 0.930 . S
H614 C582 0.929 . S
H615 C583 0.930 . S
Li616 N633 1.990 . S
Li616 O676 1.956 . S
Li616 O677 1.970 . S
Li616 O678 1.961 . S
Li617 N641 1.990 . S
Li617 O676 1.970 . S
Li617 O677 1.956 . S
Li617 O679 1.961 . S
Li618 N663 1.990 . S
Li618 O676 1.961 . S
Li618 O678 1.956 . S
Li618 O679 1.970 . S
Li619 N669 1.990 . S
Li619 O677 1.961 . S
Li619 O678 1.970 . S
Li619 O679 1.956 . S
C620 C622 1.348 . S
C620 C623 1.356 . S
C620 O676 1.325 . S
N621 C624 1.314 . S
N621 C625 1.279 . S
C622 C620 1.348 . S
C622 C624 1.353 . S
C622 H680 0.929 . S
C623 C620 1.356 . S
C623 C625 1.358 . S
C623 H681 0.930 . S
C624 N621 1.314 . S
C624 C622 1.353 . S
C624 H682 0.930 . S
C625 N621 1.279 . S
C625 C623 1.358 . S
C625 H683 0.930 . S
C626 C629 1.348 . S
C626 C630 1.356 . S
C626 O677 1.325 . S
C627 N628 1.279 . S
C627 C630 1.358 . S
C627 H684 0.930 . S
N628 C627 1.279 . S
N628 C631 1.314 . S
C629 C626 1.348 . S
C629 C631 1.353 . S
C629 H685 0.929 . S
C630 C626 1.356 . S
C630 C627 1.358 . S
C630 H686 0.930 . S
C631 N628 1.314 . S
C631 C629 1.353 . S
C631 H687 0.930 . S
C632 N633 1.314 . S
C632 C637 1.353 . S
C632 H638 0.930 . S
N633 Li616 1.990 . S
N633 C632 1.314 . S
N633 C635 1.279 . S
C634 C635 1.358 . S
C634 C636 1.356 . S
C634 H688 0.930 . S
C635 N633 1.279 . S
C635 C634 1.358 . S
C635 H639 0.930 . S
C636 C634 1.356 . S
C636 C637 1.348 . S
C637 C632 1.353 . S
C637 C636 1.348 . S
C637 H689 0.929 . S
H638 C632 0.930 . S
H639 C635 0.930 . S
C640 N641 1.314 . S
C640 C642 1.353 . S
C640 H646 0.930 . S
N641 Li617 1.990 . S
N641 C640 1.314 . S
N641 C644 1.279 . S
C642 C640 1.353 . S
C642 C645 1.348 . S
C642 H690 0.929 . S
C643 C644 1.358 . S
C643 C645 1.356 . S
C643 H691 0.930 . S
C644 N641 1.279 . S
C644 C643 1.358 . S
C644 H647 0.930 . S
C645 C642 1.348 . S
C645 C643 1.356 . S
H646 C640 0.930 . S
H647 C644 0.930 . S
C648 C650 1.348 . S
C648 C651 1.356 . S
C648 O678 1.325 . S
N649 C652 1.314 . S
N649 C653 1.279 . S
C650 C648 1.348 . S
C650 C652 1.353 . S
C650 H692 0.929 . S
C651 C648 1.356 . S
C651 C653 1.358 . S
C651 H693 0.930 . S
C652 N649 1.314 . S
C652 C650 1.353 . S
C652 H694 0.930 . S
C653 N649 1.279 . S
C653 C651 1.358 . S
C653 H695 0.930 . S
C654 C655 1.348 . S
C654 C656 1.356 . S
C654 O679 1.325 . S
C655 C654 1.348 . S
C655 C657 1.353 . S
C655 H696 0.929 . S
C656 C654 1.356 . S
C656 C658 1.358 . S
C656 H697 0.930 . S
C657 C655 1.353 . S
C657 N659 1.314 . S
C657 H698 0.930 . S
C658 C656 1.358 . S
C658 N659 1.279 . S
C658 H699 0.930 . S
N659 C657 1.314 . S
N659 C658 1.279 . S
C660 C662 1.353 . S
C660 N663 1.314 . S
C660 H666 0.930 . S
C661 N663 1.279 . S
C661 C664 1.358 . S
C661 H667 0.930 . S
C662 C660 1.353 . S
C662 C665 1.348 . S
C662 H700 0.929 . S
N663 Li618 1.990 . S
N663 C660 1.314 . S
N663 C661 1.279 . S
C664 C661 1.358 . S
C664 C665 1.356 . S
C664 H701 0.930 . S
C665 C662 1.348 . S
C665 C664 1.356 . S
H666 C660 0.930 . S
H667 C661 0.930 . S
C668 N669 1.314 . S
C668 C670 1.353 . S
C668 H674 0.930 . S
N669 Li619 1.990 . S
N669 C668 1.314 . S
N669 C672 1.279 . S
C670 C668 1.353 . S
C670 C673 1.348 . S
C670 H702 0.929 . S
C671 C672 1.358 . S
C671 C673 1.356 . S
C671 H703 0.930 . S
C672 N669 1.279 . S
C672 C671 1.358 . S
C672 H675 0.930 . S
C673 C670 1.348 . S
C673 C671 1.356 . S
H674 C668 0.930 . S
H675 C672 0.930 . S
O676 Li616 1.956 . S
O676 Li617 1.970 . S
O676 Li618 1.961 . S
O676 C620 1.325 . S
O677 Li616 1.970 . S
O677 Li617 1.956 . S
O677 Li619 1.961 . S
O677 C626 1.325 . S
O678 Li616 1.961 . S
O678 Li618 1.956 . S
O678 Li619 1.970 . S
O678 C648 1.325 . S
O679 Li617 1.961 . S
O679 Li618 1.970 . S
O679 Li619 1.956 . S
O679 C654 1.325 . S
H680 C622 0.929 . S
H681 C623 0.930 . S
H682 C624 0.930 . S
H683 C625 0.930 . S
H684 C627 0.930 . S
H685 C629 0.929 . S
H686 C630 0.930 . S
H687 C631 0.930 . S
H688 C634 0.930 . S
H689 C637 0.929 . S
H690 C642 0.929 . S
H691 C643 0.930 . S
H692 C650 0.929 . S
H693 C651 0.930 . S
H694 C652 0.930 . S
H695 C653 0.930 . S
H696 C655 0.929 . S
H697 C656 0.930 . S
H698 C657 0.930 . S
H699 C658 0.930 . S
H700 C662 0.929 . S
H701 C664 0.930 . S
H702 C670 0.929 . S
H703 C671 0.930 . S
Li704 N721 1.990 . S
Li704 O764 1.956 . S
Li704 O765 1.970 . S
Li704 O766 1.961 . S
Li705 N729 1.990 . S
Li705 O764 1.970 . S
Li705 O765 1.956 . S
Li705 O767 1.961 . S
Li706 N751 1.990 . S
Li706 O764 1.961 . S
Li706 O766 1.956 . S
Li706 O767 1.970 . S
Li707 N757 1.990 . S
Li707 O765 1.961 . S
Li707 O766 1.970 . S
Li707 O767 1.956 . S
C708 C710 1.348 . S
C708 C711 1.356 . S
C708 O764 1.325 . S
N709 C712 1.314 . S
N709 C713 1.279 . S
C710 C708 1.348 . S
C710 C712 1.353 . S
C710 H768 0.929 . S
C711 C708 1.356 . S
C711 C713 1.358 . S
C711 H769 0.930 . S
C712 N709 1.314 . S
C712 C710 1.353 . S
C712 H770 0.930 . S
C713 N709 1.279 . S
C713 C711 1.358 . S
C713 H771 0.930 . S
C714 C717 1.348 . S
C714 C718 1.356 . S
C714 O765 1.325 . S
C715 N716 1.279 . S
C715 C718 1.358 . S
C715 H772 0.930 . S
N716 C715 1.279 . S
N716 C719 1.314 . S
C717 C714 1.348 . S
C717 C719 1.353 . S
C717 H773 0.929 . S
C718 C714 1.356 . S
C718 C715 1.358 . S
C718 H774 0.930 . S
C719 N716 1.314 . S
C719 C717 1.353 . S
C719 H775 0.930 . S
C720 N721 1.314 . S
C720 C725 1.353 . S
C720 H726 0.930 . S
N721 Li704 1.990 . S
N721 C720 1.314 . S
N721 C723 1.279 . S
C722 C723 1.358 . S
C722 C724 1.356 . S
C722 H776 0.930 . S
C723 N721 1.279 . S
C723 C722 1.358 . S
C723 H727 0.930 . S
C724 C722 1.356 . S
C724 C725 1.348 . S
C725 C720 1.353 . S
C725 C724 1.348 . S
C725 H777 0.929 . S
H726 C720 0.930 . S
H727 C723 0.930 . S
C728 N729 1.314 . S
C728 C730 1.353 . S
C728 H734 0.930 . S
N729 Li705 1.990 . S
N729 C728 1.314 . S
N729 C732 1.279 . S
C730 C728 1.353 . S
C730 C733 1.348 . S
C730 H778 0.929 . S
C731 C732 1.358 . S
C731 C733 1.356 . S
C731 H779 0.930 . S
C732 N729 1.279 . S
C732 C731 1.358 . S
C732 H735 0.930 . S
C733 C730 1.348 . S
C733 C731 1.356 . S
H734 C728 0.930 . S
H735 C732 0.930 . S
C736 C738 1.348 . S
C736 C739 1.356 . S
C736 O766 1.325 . S
N737 C740 1.314 . S
N737 C741 1.279 . S
C738 C736 1.348 . S
C738 C740 1.353 . S
C738 H780 0.929 . S
C739 C736 1.356 . S
C739 C741 1.358 . S
C739 H781 0.930 . S
C740 N737 1.314 . S
C740 C738 1.353 . S
C740 H782 0.930 . S
C741 N737 1.279 . S
C741 C739 1.358 . S
C741 H783 0.930 . S
C742 C743 1.348 . S
C742 C744 1.356 . S
C742 O767 1.325 . S
C743 C742 1.348 . S
C743 C745 1.353 . S
C743 H784 0.929 . S
C744 C742 1.356 . S
C744 C746 1.358 . S
C744 H785 0.930 . S
C745 C743 1.353 . S
C745 N747 1.314 . S
C745 H786 0.930 . S
C746 C744 1.358 . S
C746 N747 1.279 . S
C746 H787 0.930 . S
N747 C745 1.314 . S
N747 C746 1.279 . S
C748 C750 1.353 . S
C748 N751 1.314 . S
C748 H754 0.930 . S
C749 N751 1.279 . S
C749 C752 1.358 . S
C749 H755 0.930 . S
C750 C748 1.353 . S
C750 C753 1.348 . S
C750 H788 0.929 . S
N751 Li706 1.990 . S
N751 C748 1.314 . S
N751 C749 1.279 . S
C752 C749 1.358 . S
C752 C753 1.356 . S
C752 H789 0.930 . S
C753 C750 1.348 . S
C753 C752 1.356 . S
H754 C748 0.930 . S
H755 C749 0.930 . S
C756 N757 1.314 . S
C756 C758 1.353 . S
C756 H762 0.930 . S
N757 Li707 1.990 . S
N757 C756 1.314 . S
N757 C760 1.279 . S
C758 C756 1.353 . S
C758 C761 1.348 . S
C758 H790 0.929 . S
C759 C760 1.358 . S
C759 C761 1.356 . S
C759 H791 0.930 . S
C760 N757 1.279 . S
C760 C759 1.358 . S
C760 H763 0.930 . S
C761 C758 1.348 . S
C761 C759 1.356 . S
H762 C756 0.930 . S
H763 C760 0.930 . S
O764 Li704 1.956 . S
O764 Li705 1.970 . S
O764 Li706 1.961 . S
O764 C708 1.325 . S
O765 Li704 1.970 . S
O765 Li705 1.956 . S
O765 Li707 1.961 . S
O765 C714 1.325 . S
O766 Li704 1.961 . S
O766 Li706 1.956 . S
O766 Li707 1.970 . S
O766 C736 1.325 . S
O767 Li705 1.961 . S
O767 Li706 1.970 . S
O767 Li707 1.956 . S
O767 C742 1.325 . S
H768 C710 0.929 . S
H769 C711 0.930 . S
H770 C712 0.930 . S
H771 C713 0.930 . S
H772 C715 0.930 . S
H773 C717 0.929 . S
H774 C718 0.930 . S
H775 C719 0.930 . S
H776 C722 0.930 . S
H777 C725 0.929 . S
H778 C730 0.929 . S
H779 C731 0.930 . S
H780 C738 0.929 . S
H781 C739 0.930 . S
H782 C740 0.930 . S
H783 C741 0.930 . S
H784 C743 0.929 . S
H785 C744 0.930 . S
H786 C745 0.930 . S
H787 C746 0.930 . S
H788 C750 0.929 . S
H789 C752 0.930 . S
H790 C758 0.929 . S
H791 C759 0.930 . S
H792 C804 0.930 . S
H793 C806 0.930 . S
H794 C807 0.930 . S
H795 C811 0.959 . S
H796 C811 0.959 1_554 S
H797 C811 0.961 . S
H798 C812 0.960 . S
H799 C812 0.961 . S
H800 C812 0.959 . S
H801 C815 0.929 . S
H802 C816 0.931 . S
H803 C818 0.930 . S
C804 H792 0.930 . S
C804 C805 1.399 . S
C804 C809 1.399 1_556 S
C805 C804 1.399 . S
C805 C806 1.376 . S
C806 H793 0.930 . S
C806 C805 1.376 . S
C806 C807 1.388 . S
C807 H794 0.930 . S
C807 C806 1.388 . S
C807 C808 1.390 1_556 S
C808 C807 1.390 1_554 S
C808 C809 1.394 . S
C808 C814 1.465 . S
C809 C804 1.399 1_554 S
C809 C808 1.394 . S
C809 C810 1.516 . S
C810 C809 1.516 . S
C810 C811 1.502 1_554 S
C810 C812 1.561 . S
C810 C813 1.526 . S
C811 H795 0.959 . S
C811 H796 0.959 1_556 S
C811 H797 0.961 . S
C811 C810 1.502 1_556 S
C812 H798 0.960 . S
C812 H799 0.961 . S
C812 H800 0.959 . S
C812 C810 1.561 . S
C813 C810 1.526 . S
C813 C814 1.396 . S
C813 C818 1.390 . S
C814 C808 1.465 . S
C814 C813 1.396 . S
C814 C815 1.399 . S
C815 H801 0.929 . S
C815 C814 1.399 . S
C815 C816 1.385 . S
C816 H802 0.931 . S
C816 C815 1.385 . S
C816 C817 1.389 . S
C817 C816 1.389 . S
C817 C818 1.387 . S
C818 H803 0.930 . S
C818 C813 1.390 . S
C818 C817 1.387 . S
H819 C831 0.930 1_556 S
H820 C833 0.930 . S
H821 C834 0.930 1_545 S
H822 C838 0.959 . S
H823 C838 0.959 . S
H824 C838 0.961 1_565 S
H825 C839 0.960 . S
H826 C839 0.961 1_545 S
H827 C839 0.959 1_545 S
H828 C842 0.929 . S
H829 C843 0.931 . S
H830 C845 0.930 . S
C831 H819 0.930 1_554 S
C831 C832 1.399 . S
C831 C836 1.399 . S
C832 C831 1.399 . S
C832 C833 1.376 . S
C833 H820 0.930 . S
C833 C832 1.376 . S
C833 C834 1.388 . S
C834 H821 0.930 1_565 S
C834 C833 1.388 . S
C834 C835 1.390 1_565 S
C835 C834 1.390 1_545 S
C835 C836 1.394 1_545 S
C835 C841 1.465 . S
C836 C831 1.399 . S
C836 C835 1.394 1_565 S
C836 C837 1.516 1_564 S
C837 C836 1.516 1_546 S
C837 C838 1.502 . S
C837 C839 1.561 1_545 S
C837 C840 1.526 . S
C838 H822 0.959 . S
C838 H823 0.959 . S
C838 H824 0.961 1_545 S
C838 C837 1.502 . S
C839 H825 0.960 . S
C839 H826 0.961 1_565 S
C839 H827 0.959 1_565 S
C839 C837 1.561 1_565 S
C840 C837 1.526 . S
C840 C841 1.396 1_556 S
C840 C845 1.390 . S
C841 C835 1.465 . S
C841 C840 1.396 1_554 S
C841 C842 1.399 . S
C842 H828 0.929 . S
C842 C841 1.399 . S
C842 C843 1.385 . S
C843 H829 0.931 . S
C843 C842 1.385 . S
C843 C844 1.389 1_554 S
C844 C843 1.389 1_556 S
C844 C845 1.387 . S
C845 H830 0.930 . S
C845 C840 1.390 . S
C845 C844 1.387 . S
H846 C858 0.930 . S
H847 C860 0.930 . S
H848 C861 0.930 . S
H849 C865 0.959 . S
H850 C865 0.959 . S
H851 C865 0.961 . S
H852 C866 0.960 . S
H853 C866 0.961 . S
H854 C866 0.959 . S
H855 C869 0.929 . S
H856 C870 0.931 . S
H857 C872 0.930 1_556 S
C858 H846 0.930 . S
C858 C859 1.399 . S
C858 C863 1.399 . S
C859 C858 1.399 . S
C859 C860 1.376 1_556 S
C860 H847 0.930 . S
C860 C859 1.376 1_554 S
C860 C861 1.388 . S
C861 H848 0.930 . S
C861 C860 1.388 . S
C861 C862 1.390 . S
C862 C861 1.390 . S
C862 C863 1.394 1_554 S
C862 C868 1.465 1_655 S
C863 C858 1.399 . S
C863 C862 1.394 1_556 S
C863 C864 1.516 1_655 S
C864 C863 1.516 1_455 S
C864 C865 1.502 . S
C864 C866 1.561 . S
C864 C867 1.526 1_556 S
C865 H849 0.959 . S
C865 H850 0.959 . S
C865 H851 0.961 . S
C865 C864 1.502 . S
C866 H852 0.960 . S
C866 H853 0.961 . S
C866 H854 0.959 . S
C866 C864 1.561 . S
C867 C864 1.526 1_554 S
C867 C868 1.396 . S
C867 C872 1.390 . S
C868 C862 1.465 1_455 S
C868 C867 1.396 . S
C868 C869 1.399 . S
C869 H855 0.929 . S
C869 C868 1.399 . S
C869 C870 1.385 . S
C870 H856 0.931 . S
C870 C869 1.385 . S
C870 C871 1.389 . S
C871 C870 1.389 . S
C871 C872 1.387 . S
C872 H857 0.930 1_554 S
C872 C867 1.390 . S
C872 C871 1.387 . S
H873 C885 0.930 . S
H874 C887 0.930 . S
H875 C888 0.930 . S
H876 C892 0.959 . S
H877 C892 0.959 . S
H878 C892 0.961 . S
H879 C893 0.960 . S
H880 C893 0.961 . S
H881 C893 0.959 . S
H882 C896 0.929 . S
H883 C897 0.931 . S
H884 C899 0.930 . S
C885 H873 0.930 . S
C885 C886 1.399 . S
C885 C890 1.399 . S
C886 C885 1.399 . S
C886 C887 1.376 . S
C887 H874 0.930 . S
C887 C886 1.376 . S
C887 C888 1.388 . S
C888 H875 0.930 . S
C888 C887 1.388 . S
C888 C889 1.390 . S
C889 C888 1.390 . S
C889 C890 1.394 . S
C889 C895 1.465 . S
C890 C885 1.399 . S
C890 C889 1.394 . S
C890 C891 1.516 . S
C891 C890 1.516 . S
C891 C892 1.502 . S
C891 C893 1.561 . S
C891 C894 1.526 . S
C892 H876 0.959 . S
C892 H877 0.959 . S
C892 H878 0.961 . S
C892 C891 1.502 . S
C893 H879 0.960 . S
C893 H880 0.961 . S
C893 H881 0.959 . S
C893 C891 1.561 . S
C894 C891 1.526 . S
C894 C895 1.396 . S
C894 C899 1.390 . S
C895 C889 1.465 . S
C895 C894 1.396 . S
C895 C896 1.399 . S
C896 H882 0.929 . S
C896 C895 1.399 . S
C896 C897 1.385 . S
C897 H883 0.931 . S
C897 C896 1.385 . S
C897 C898 1.389 . S
C898 C897 1.389 . S
C898 C899 1.387 . S
C899 H884 0.930 . S
C899 C894 1.390 . S
C899 C898 1.387 . S
H900 C912 0.930 . S
H901 C914 0.930 . S
H902 C915 0.930 . S
H903 C919 0.959 . S
H904 C919 0.959 . S
H905 C919 0.961 . S
H906 C920 0.960 . S
H907 C920 0.961 . S
H908 C920 0.959 . S
H909 C923 0.929 . S
H910 C924 0.931 . S
H911 C926 0.930 . S
C912 H900 0.930 . S
C912 C913 1.399 . S
C912 C917 1.399 . S
C913 C912 1.399 . S
C913 C914 1.376 . S
C914 H901 0.930 . S
C914 C913 1.376 . S
C914 C915 1.388 . S
C915 H902 0.930 . S
C915 C914 1.388 . S
C915 C916 1.390 . S
C916 C915 1.390 . S
C916 C917 1.394 . S
C916 C922 1.465 . S
C917 C912 1.399 . S
C917 C916 1.394 . S
C917 C918 1.516 . S
C918 C917 1.516 . S
C918 C919 1.502 . S
C918 C920 1.561 . S
C918 C921 1.526 . S
C919 H903 0.959 . S
C919 H904 0.959 . S
C919 H905 0.961 . S
C919 C918 1.502 . S
C920 H906 0.960 . S
C920 H907 0.961 . S
C920 H908 0.959 . S
C920 C918 1.561 . S
C921 C918 1.526 . S
C921 C922 1.396 . S
C921 C926 1.390 . S
C922 C916 1.465 . S
C922 C921 1.396 . S
C922 C923 1.399 . S
C923 H909 0.929 . S
C923 C922 1.399 . S
C923 C924 1.385 . S
C924 H910 0.931 . S
C924 C923 1.385 . S
C924 C925 1.389 . S
C925 C924 1.389 . S
C925 C926 1.387 . S
C926 H911 0.930 . S
C926 C921 1.390 . S
C926 C925 1.387 . S
H927 C939 0.930 . S
H928 C941 0.930 . S
H929 C942 0.930 . S
H930 C946 0.959 . S
H931 C946 0.959 . S
H932 C946 0.961 . S
H933 C947 0.960 . S
H934 C947 0.961 . S
H935 C947 0.959 . S
H936 C950 0.929 . S
H937 C951 0.931 . S
H938 C953 0.930 . S
C939 H927 0.930 . S
C939 C940 1.399 . S
C939 C944 1.399 . S
C940 C939 1.399 . S
C940 C941 1.376 . S
C941 H928 0.930 . S
C941 C940 1.376 . S
C941 C942 1.388 . S
C942 H929 0.930 . S
C942 C941 1.388 . S
C942 C943 1.390 . S
C943 C942 1.390 . S
C943 C944 1.394 . S
C943 C949 1.465 . S
C944 C939 1.399 . S
C944 C943 1.394 . S
C944 C945 1.516 . S
C945 C944 1.516 . S
C945 C946 1.502 . S
C945 C947 1.561 . S
C945 C948 1.526 . S
C946 H930 0.959 . S
C946 H931 0.959 . S
C946 H932 0.961 . S
C946 C945 1.502 . S
C947 H933 0.960 . S
C947 H934 0.961 . S
C947 H935 0.959 . S
C947 C945 1.561 . S
C948 C945 1.526 . S
C948 C949 1.396 . S
C948 C953 1.390 . S
C949 C943 1.465 . S
C949 C948 1.396 . S
C949 C950 1.399 . S
C950 H936 0.929 . S
C950 C949 1.399 . S
C950 C951 1.385 . S
C951 H937 0.931 . S
C951 C950 1.385 . S
C951 C952 1.389 . S
C952 C951 1.389 . S
C952 C953 1.387 . S
C953 H938 0.930 . S
C953 C948 1.390 . S
C953 C952 1.387 . S
H954 C966 0.930 . S
H955 C968 0.930 . S
H956 C969 0.930 . S
H957 C973 0.959 . S
H958 C973 0.959 . S
H959 C973 0.961 . S
H960 C974 0.960 . S
H961 C974 0.961 . S
H962 C974 0.959 . S
H963 C977 0.929 . S
H964 C978 0.931 . S
H965 C980 0.930 . S
C966 H954 0.930 . S
C966 C967 1.399 . S
C966 C971 1.399 . S
C967 C966 1.399 . S
C967 C968 1.376 . S
C968 H955 0.930 . S
C968 C967 1.376 . S
C968 C969 1.388 . S
C969 H956 0.930 . S
C969 C968 1.388 . S
C969 C970 1.390 . S
C970 C969 1.390 . S
C970 C971 1.394 . S
C970 C976 1.465 . S
C971 C966 1.399 . S
C971 C970 1.394 . S
C971 C972 1.516 . S
C972 C971 1.516 . S
C972 C973 1.502 . S
C972 C974 1.561 . S
C972 C975 1.526 . S
C973 H957 0.959 . S
C973 H958 0.959 . S
C973 H959 0.961 . S
C973 C972 1.502 . S
C974 H960 0.960 . S
C974 H961 0.961 . S
C974 H962 0.959 . S
C974 C972 1.561 . S
C975 C972 1.526 . S
C975 C976 1.396 . S
C975 C980 1.390 . S
C976 C970 1.465 . S
C976 C975 1.396 . S
C976 C977 1.399 . S
C977 H963 0.929 . S
C977 C976 1.399 . S
C977 C978 1.385 . S
C978 H964 0.931 . S
C978 C977 1.385 . S
C978 C979 1.389 . S
C979 C978 1.389 . S
C979 C980 1.387 . S
C980 H965 0.930 . S
C980 C975 1.390 . S
C980 C979 1.387 . S
H981 C993 0.930 . S
H982 C995 0.930 . S
H983 C996 0.930 . S
H984 C1000 0.959 . S
H985 C1000 0.959 . S
H986 C1000 0.961 . S
H987 C1001 0.960 . S
H988 C1001 0.961 . S
H989 C1001 0.959 . S
H990 C1004 0.929 . S
H991 C1005 0.931 . S
H992 C1007 0.930 . S
C993 H981 0.930 . S
C993 C994 1.399 . S
C993 C998 1.399 . S
C994 C993 1.399 . S
C994 C995 1.376 . S
C995 H982 0.930 . S
C995 C994 1.376 . S
C995 C996 1.388 . S
C996 H983 0.930 . S
C996 C995 1.388 . S
C996 C997 1.390 . S
C997 C996 1.390 . S
C997 C998 1.394 . S
C997 C1003 1.465 . S
C998 C993 1.399 . S
C998 C997 1.394 . S
C998 C999 1.516 . S
C999 C998 1.516 . S
C999 C1000 1.502 . S
C999 C1001 1.561 . S
C999 C1002 1.526 . S
C1000 H984 0.959 . S
C1000 H985 0.959 . S
C1000 H986 0.961 . S
C1000 C999 1.502 . S
C1001 H987 0.960 . S
C1001 H988 0.961 . S
C1001 H989 0.959 . S
C1001 C999 1.561 . S
C1002 C999 1.526 . S
C1002 C1003 1.396 . S
C1002 C1007 1.390 . S
C1003 C997 1.465 . S
C1003 C1002 1.396 . S
C1003 C1004 1.399 . S
C1004 H990 0.929 . S
C1004 C1003 1.399 . S
C1004 C1005 1.385 . S
C1005 H991 0.931 . S
C1005 C1004 1.385 . S
C1005 C1006 1.389 . S
C1006 C1005 1.389 . S
C1006 C1007 1.387 . S
C1007 H992 0.930 . S
C1007 C1002 1.390 . S
C1007 C1006 1.387 . S
H1008 C1020 0.930 . S
H1009 C1022 0.930 . S
H1010 C1023 0.930 . S
H1011 C1027 0.959 . S
H1012 C1027 0.959 . S
H1013 C1027 0.961 . S
H1014 C1028 0.960 . S
H1015 C1028 0.961 . S
H1016 C1028 0.959 . S
H1017 C1031 0.929 . S
H1018 C1032 0.931 . S
H1019 C1034 0.930 . S
C1020 H1008 0.930 . S
C1020 C1021 1.399 . S
C1020 C1025 1.399 . S
C1021 C1020 1.399 . S
C1021 C1022 1.376 . S
C1022 H1009 0.930 . S
C1022 C1021 1.376 . S
C1022 C1023 1.388 . S
C1023 H1010 0.930 . S
C1023 C1022 1.388 . S
C1023 C1024 1.390 . S
C1024 C1023 1.390 . S
C1024 C1025 1.394 . S
C1024 C1030 1.465 . S
C1025 C1020 1.399 . S
C1025 C1024 1.394 . S
C1025 C1026 1.516 . S
C1026 C1025 1.516 . S
C1026 C1027 1.502 . S
C1026 C1028 1.561 . S
C1026 C1029 1.526 . S
C1027 H1011 0.959 . S
C1027 H1012 0.959 . S
C1027 H1013 0.961 . S
C1027 C1026 1.502 . S
C1028 H1014 0.960 . S
C1028 H1015 0.961 . S
C1028 H1016 0.959 . S
C1028 C1026 1.561 . S
C1029 C1026 1.526 . S
C1029 C1030 1.396 . S
C1029 C1034 1.390 . S
C1030 C1024 1.465 . S
C1030 C1029 1.396 . S
C1030 C1031 1.399 . S
C1031 H1017 0.929 . S
C1031 C1030 1.399 . S
C1031 C1032 1.385 . S
C1032 H1018 0.931 . S
C1032 C1031 1.385 . S
C1032 C1033 1.389 . S
C1033 C1032 1.389 . S
C1033 C1034 1.387 . S
C1034 H1019 0.930 . S
C1034 C1029 1.390 . S
C1034 C1033 1.387 . S
H1035 C1047 0.930 . S
H1036 C1049 0.930 . S
H1037 C1050 0.930 . S
H1038 C1054 0.959 . S
H1039 C1054 0.959 . S
H1040 C1054 0.961 . S
H1041 C1055 0.960 . S
H1042 C1055 0.961 . S
H1043 C1055 0.959 . S
H1044 C1058 0.929 . S
H1045 C1059 0.931 . S
H1046 C1061 0.930 . S
C1047 H1035 0.930 . S
C1047 C1048 1.399 . S
C1047 C1052 1.399 . S
C1048 C1047 1.399 . S
C1048 C1049 1.376 . S
C1049 H1036 0.930 . S
C1049 C1048 1.376 . S
C1049 C1050 1.388 . S
C1050 H1037 0.930 . S
C1050 C1049 1.388 . S
C1050 C1051 1.390 . S
C1051 C1050 1.390 . S
C1051 C1052 1.394 . S
C1051 C1057 1.465 . S
C1052 C1047 1.399 . S
C1052 C1051 1.394 . S
C1052 C1053 1.516 . S
C1053 C1052 1.516 . S
C1053 C1054 1.502 . S
C1053 C1055 1.561 . S
C1053 C1056 1.526 . S
C1054 H1038 0.959 . S
C1054 H1039 0.959 . S
C1054 H1040 0.961 . S
C1054 C1053 1.502 . S
C1055 H1041 0.960 . S
C1055 H1042 0.961 . S
C1055 H1043 0.959 . S
C1055 C1053 1.561 . S
C1056 C1053 1.526 . S
C1056 C1057 1.396 . S
C1056 C1061 1.390 . S
C1057 C1051 1.465 . S
C1057 C1056 1.396 . S
C1057 C1058 1.399 . S
C1058 H1044 0.929 . S
C1058 C1057 1.399 . S
C1058 C1059 1.385 . S
C1059 H1045 0.931 . S
C1059 C1058 1.385 . S
C1059 C1060 1.389 . S
C1060 C1059 1.389 . S
C1060 C1061 1.387 . S
C1061 H1046 0.930 . S
C1061 C1056 1.390 . S
C1061 C1060 1.387 . S
H1062 C1074 0.930 . S
H1063 C1076 0.930 . S
H1064 C1077 0.930 . S
H1065 C1081 0.959 . S
H1066 C1081 0.959 . S
H1067 C1081 0.961 . S
H1068 C1082 0.960 . S
H1069 C1082 0.961 . S
H1070 C1082 0.959 . S
H1071 C1085 0.929 . S
H1072 C1086 0.931 . S
H1073 C1088 0.930 . S
C1074 H1062 0.930 . S
C1074 C1075 1.399 . S
C1074 C1079 1.399 . S
C1075 C1074 1.399 . S
C1075 C1076 1.376 . S
C1076 H1063 0.930 . S
C1076 C1075 1.376 . S
C1076 C1077 1.388 . S
C1077 H1064 0.930 . S
C1077 C1076 1.388 . S
C1077 C1078 1.390 . S
C1078 C1077 1.390 . S
C1078 C1079 1.394 . S
C1078 C1084 1.465 . S
C1079 C1074 1.399 . S
C1079 C1078 1.394 . S
C1079 C1080 1.516 . S
C1080 C1079 1.516 . S
C1080 C1081 1.502 . S
C1080 C1082 1.561 . S
C1080 C1083 1.526 . S
C1081 H1065 0.959 . S
C1081 H1066 0.959 . S
C1081 H1067 0.961 . S
C1081 C1080 1.502 . S
C1082 H1068 0.960 . S
C1082 H1069 0.961 . S
C1082 H1070 0.959 . S
C1082 C1080 1.561 . S
C1083 C1080 1.526 . S
C1083 C1084 1.396 . S
C1083 C1088 1.390 . S
C1084 C1078 1.465 . S
C1084 C1083 1.396 . S
C1084 C1085 1.399 . S
C1085 H1071 0.929 . S
C1085 C1084 1.399 . S
C1085 C1086 1.385 . S
C1086 H1072 0.931 . S
C1086 C1085 1.385 . S
C1086 C1087 1.389 . S
C1087 C1086 1.389 . S
C1087 C1088 1.387 . S
C1088 H1073 0.930 . S
C1088 C1083 1.390 . S
C1088 C1087 1.387 . S
H1089 C1101 0.930 . S
H1090 C1103 0.930 . S
H1091 C1104 0.930 . S
H1092 C1108 0.959 . S
H1093 C1108 0.959 . S
H1094 C1108 0.961 . S
H1095 C1109 0.960 . S
H1096 C1109 0.961 . S
H1097 C1109 0.959 . S
H1098 C1112 0.929 . S
H1099 C1113 0.931 . S
H1100 C1115 0.930 . S
C1101 H1089 0.930 . S
C1101 C1102 1.399 . S
C1101 C1106 1.399 . S
C1102 C1101 1.399 . S
C1102 C1103 1.376 . S
C1103 H1090 0.930 . S
C1103 C1102 1.376 . S
C1103 C1104 1.388 . S
C1104 H1091 0.930 . S
C1104 C1103 1.388 . S
C1104 C1105 1.390 . S
C1105 C1104 1.390 . S
C1105 C1106 1.394 . S
C1105 C1111 1.465 . S
C1106 C1101 1.399 . S
C1106 C1105 1.394 . S
C1106 C1107 1.520 . S
C1107 C1106 1.520 . S
C1107 C1108 1.502 1_565 S
C1107 C1109 1.557 1_565 S
C1107 C1110 1.526 . S
C1108 H1092 0.959 . S
C1108 H1093 0.959 . S
C1108 H1094 0.961 . S
C1108 C1107 1.502 1_545 S
C1109 H1095 0.960 . S
C1109 H1096 0.961 . S
C1109 H1097 0.959 . S
C1109 C1107 1.557 1_545 S
C1110 C1107 1.526 . S
C1110 C1111 1.396 . S
C1110 C1115 1.390 1_565 S
C1111 C1105 1.465 . S
C1111 C1110 1.396 . S
C1111 C1112 1.399 . S
C1112 H1098 0.929 . S
C1112 C1111 1.399 . S
C1112 C1113 1.385 . S
C1113 H1099 0.931 . S
C1113 C1112 1.385 . S
C1113 C1114 1.389 . S
C1114 C1113 1.389 . S
C1114 C1115 1.387 1_565 S
C1115 H1100 0.930 . S
C1115 C1110 1.390 1_545 S
C1115 C1114 1.387 1_545 S
H1116 C1128 0.930 . S
H1117 C1130 0.930 . S
H1118 C1131 0.930 . S
H1119 C1135 0.959 . S
H1120 C1135 0.959 . S
H1121 C1135 0.961 . S
H1122 C1136 0.960 . S
H1123 C1136 0.961 . S
H1124 C1136 0.959 . S
H1125 C1139 0.929 . S
H1126 C1140 0.931 . S
H1127 C1142 0.930 . S
C1128 H1116 0.930 . S
C1128 C1129 1.399 . S
C1128 C1133 1.399 . S
C1129 C1128 1.399 . S
C1129 C1130 1.376 . S
C1130 H1117 0.930 . S
C1130 C1129 1.376 . S
C1130 C1131 1.388 . S
C1131 H1118 0.930 . S
C1131 C1130 1.388 . S
C1131 C1132 1.390 . S
C1132 C1131 1.390 . S
C1132 C1133 1.394 . S
C1132 C1138 1.465 . S
C1133 C1128 1.399 . S
C1133 C1132 1.394 . S
C1133 C1134 1.516 . S
C1134 C1133 1.516 . S
C1134 C1135 1.502 . S
C1134 C1136 1.561 . S
C1134 C1137 1.526 . S
C1135 H1119 0.959 . S
C1135 H1120 0.959 . S
C1135 H1121 0.961 . S
C1135 C1134 1.502 . S
C1136 H1122 0.960 . S
C1136 H1123 0.961 . S
C1136 H1124 0.959 . S
C1136 C1134 1.561 . S
C1137 C1134 1.526 . S
C1137 C1138 1.396 . S
C1137 C1142 1.390 . S
C1138 C1132 1.465 . S
C1138 C1137 1.396 . S
C1138 C1139 1.399 . S
C1139 H1125 0.929 . S
C1139 C1138 1.399 . S
C1139 C1140 1.385 . S
C1140 H1126 0.931 . S
C1140 C1139 1.385 . S
C1140 C1141 1.389 . S
C1141 C1140 1.389 . S
C1141 C1142 1.387 . S
C1142 H1127 0.930 . S
C1142 C1137 1.390 . S
C1142 C1141 1.387 . S
H1143 C1155 0.930 . S
H1144 C1157 0.930 . S
H1145 C1158 0.930 . S
H1146 C1162 0.959 . S
H1147 C1162 0.959 . S
H1148 C1162 0.961 . S
H1149 C1163 0.960 . S
H1150 C1163 0.961 . S
H1151 C1163 0.959 . S
H1152 C1166 0.929 1_455 S
H1153 C1167 0.931 . S
H1154 C1169 0.930 . S
C1155 H1143 0.930 . S
C1155 C1156 1.399 . S
C1155 C1160 1.399 . S
C1156 C1155 1.399 . S
C1156 C1157 1.376 1_655 S
C1157 H1144 0.930 . S
C1157 C1156 1.376 1_455 S
C1157 C1158 1.388 . S
C1158 H1145 0.930 . S
C1158 C1157 1.388 . S
C1158 C1159 1.390 1_455 S
C1159 C1158 1.390 1_655 S
C1159 C1160 1.394 . S
C1159 C1165 1.465 . S
C1160 C1155 1.399 . S
C1160 C1159 1.394 . S
C1160 C1161 1.516 . S
C1161 C1160 1.516 . S
C1161 C1162 1.502 . S
C1161 C1163 1.561 . S
C1161 C1164 1.526 . S
C1162 H1146 0.959 . S
C1162 H1147 0.959 . S
C1162 H1148 0.961 . S
C1162 C1161 1.502 . S
C1163 H1149 0.960 . S
C1163 H1150 0.961 . S
C1163 H1151 0.959 . S
C1163 C1161 1.561 . S
C1164 C1161 1.526 . S
C1164 C1165 1.396 . S
C1164 C1169 1.390 . S
C1165 C1159 1.465 . S
C1165 C1164 1.396 . S
C1165 C1166 1.399 . S
C1166 H1152 0.929 1_655 S
C1166 C1165 1.399 . S
C1166 C1167 1.385 . S
C1167 H1153 0.931 . S
C1167 C1166 1.385 . S
C1167 C1168 1.389 . S
C1168 C1167 1.389 . S
C1168 C1169 1.387 . S
C1169 H1154 0.930 . S
C1169 C1164 1.390 . S
C1169 C1168 1.387 . S
H1170 C1182 0.930 . S
H1171 C1184 0.930 . S
H1172 C1185 0.930 . S
H1173 C1189 0.959 . S
H1174 C1189 0.959 . S
H1175 C1189 0.961 . S
H1176 C1190 0.960 . S
H1177 C1190 0.961 . S
H1178 C1190 0.959 . S
H1179 C1193 0.929 . S
H1180 C1194 0.931 . S
H1181 C1196 0.930 . S
C1182 H1170 0.930 . S
C1182 C1183 1.399 . S
C1182 C1187 1.399 . S
C1183 C1182 1.399 . S
C1183 C1184 1.376 . S
C1184 H1171 0.930 . S
C1184 C1183 1.376 . S
C1184 C1185 1.388 . S
C1185 H1172 0.930 . S
C1185 C1184 1.388 . S
C1185 C1186 1.390 . S
C1186 C1185 1.390 . S
C1186 C1187 1.394 . S
C1186 C1192 1.465 . S
C1187 C1182 1.399 . S
C1187 C1186 1.394 . S
C1187 C1188 1.516 . S
C1188 C1187 1.516 . S
C1188 C1189 1.502 . S
C1188 C1190 1.561 . S
C1188 C1191 1.526 . S
C1189 H1173 0.959 . S
C1189 H1174 0.959 . S
C1189 H1175 0.961 . S
C1189 C1188 1.502 . S
C1190 H1176 0.960 . S
C1190 H1177 0.961 . S
C1190 H1178 0.959 . S
C1190 C1188 1.561 . S
C1191 C1188 1.526 . S
C1191 C1192 1.396 . S
C1191 C1196 1.390 . S
C1192 C1186 1.465 . S
C1192 C1191 1.396 . S
C1192 C1193 1.399 . S
C1193 H1179 0.929 . S
C1193 C1192 1.399 . S
C1193 C1194 1.385 . S
C1194 H1180 0.931 . S
C1194 C1193 1.385 . S
C1194 C1195 1.389 . S
C1195 C1194 1.389 . S
C1195 C1196 1.387 . S
C1196 H1181 0.930 . S
C1196 C1191 1.390 . S
C1196 C1195 1.387 . S
H1197 C1209 0.930 . S
H1198 C1211 0.930 . S
H1199 C1212 0.930 . S
H1200 C1216 0.959 . S
H1201 C1216 0.959 . S
H1202 C1216 0.961 1_455 S
H1203 C1217 0.960 . S
H1204 C1217 0.961 . S
H1205 C1217 0.959 . S
H1206 C1220 0.929 1_455 S
H1207 C1221 0.931 . S
H1208 C1223 0.930 . S
C1209 H1197 0.930 . S
C1209 C1210 1.399 . S
C1209 C1214 1.399 . S
C1210 C1209 1.399 . S
C1210 C1211 1.376 . S
C1211 H1198 0.930 . S
C1211 C1210 1.376 . S
C1211 C1212 1.388 . S
C1212 H1199 0.930 . S
C1212 C1211 1.388 . S
C1212 C1213 1.390 . S
C1213 C1212 1.390 . S
C1213 C1214 1.394 . S
C1213 C1219 1.465 . S
C1214 C1209 1.399 . S
C1214 C1213 1.394 . S
C1214 C1215 1.516 . S
C1215 C1214 1.516 . S
C1215 C1216 1.502 1_455 S
C1215 C1217 1.561 . S
C1215 C1218 1.526 . S
C1216 H1200 0.959 . S
C1216 H1201 0.959 . S
C1216 H1202 0.961 1_655 S
C1216 C1215 1.502 1_655 S
C1217 H1203 0.960 . S
C1217 H1204 0.961 . S
C1217 H1205 0.959 . S
C1217 C1215 1.561 . S
C1218 C1215 1.526 . S
C1218 C1219 1.396 . S
C1218 C1223 1.390 1_455 S
C1219 C1213 1.465 . S
C1219 C1218 1.396 . S
C1219 C1220 1.399 1_455 S
C1220 H1206 0.929 1_655 S
C1220 C1219 1.399 1_655 S
C1220 C1221 1.385 . S
C1221 H1207 0.931 . S
C1221 C1220 1.385 . S
C1221 C1222 1.389 . S
C1222 C1221 1.389 . S
C1222 C1223 1.387 . S
C1223 H1208 0.930 . S
C1223 C1218 1.390 1_655 S
C1223 C1222 1.387 . S
H1224 C1236 0.930 . S
H1225 C1238 0.930 . S
H1226 C1239 0.930 . S
H1227 C1243 0.959 . S
H1228 C1243 0.959 . S
H1229 C1243 0.961 . S
H1230 C1244 0.960 . S
H1231 C1244 0.961 . S
H1232 C1244 0.959 . S
H1233 C1247 0.929 . S
H1234 C1248 0.931 . S
H1235 C1250 0.930 . S
C1236 H1224 0.930 . S
C1236 C1237 1.399 . S
C1236 C1241 1.399 . S
C1237 C1236 1.399 . S
C1237 C1238 1.376 . S
C1238 H1225 0.930 . S
C1238 C1237 1.376 . S
C1238 C1239 1.388 . S
C1239 H1226 0.930 . S
C1239 C1238 1.388 . S
C1239 C1240 1.390 . S
C1240 C1239 1.390 . S
C1240 C1241 1.394 . S
C1240 C1246 1.465 . S
C1241 C1236 1.399 . S
C1241 C1240 1.394 . S
C1241 C1242 1.516 . S
C1242 C1241 1.516 . S
C1242 C1243 1.502 . S
C1242 C1244 1.561 . S
C1242 C1245 1.526 . S
C1243 H1227 0.959 . S
C1243 H1228 0.959 . S
C1243 H1229 0.961 . S
C1243 C1242 1.502 . S
C1244 H1230 0.960 . S
C1244 H1231 0.961 . S
C1244 H1232 0.959 . S
C1244 C1242 1.561 . S
C1245 C1242 1.526 . S
C1245 C1246 1.396 . S
C1245 C1250 1.390 . S
C1246 C1240 1.465 . S
C1246 C1245 1.396 . S
C1246 C1247 1.399 . S
C1247 H1233 0.929 . S
C1247 C1246 1.399 . S
C1247 C1248 1.385 . S
C1248 H1234 0.931 . S
C1248 C1247 1.385 . S
C1248 C1249 1.389 . S
C1249 C1248 1.389 . S
C1249 C1250 1.387 . S
C1250 H1235 0.930 . S
C1250 C1245 1.390 . S
C1250 C1249 1.387 . S
H1251 C1263 0.930 . S
H1252 C1265 0.930 . S
H1253 C1266 0.930 . S
H1254 C1270 0.959 . S
H1255 C1270 0.959 . S
H1256 C1270 0.961 . S
H1257 C1271 0.960 . S
H1258 C1271 0.961 . S
H1259 C1271 0.959 . S
H1260 C1274 0.929 . S
H1261 C1275 0.931 . S
H1262 C1277 0.930 . S
C1263 H1251 0.930 . S
C1263 C1264 1.399 . S
C1263 C1268 1.399 . S
C1264 C1263 1.399 . S
C1264 C1265 1.376 1_565 S
C1265 H1252 0.930 . S
C1265 C1264 1.376 1_545 S
C1265 C1266 1.388 . S
C1266 H1253 0.930 . S
C1266 C1265 1.388 . S
C1266 C1267 1.390 . S
C1267 C1266 1.390 . S
C1267 C1268 1.394 1_545 S
C1267 C1273 1.465 . S
C1268 C1263 1.399 . S
C1268 C1267 1.394 1_565 S
C1268 C1269 1.516 . S
C1269 C1268 1.516 . S
C1269 C1270 1.502 . S
C1269 C1271 1.561 . S
C1269 C1272 1.526 1_565 S
C1270 H1254 0.959 . S
C1270 H1255 0.959 . S
C1270 H1256 0.961 . S
C1270 C1269 1.502 . S
C1271 H1257 0.960 . S
C1271 H1258 0.961 . S
C1271 H1259 0.959 . S
C1271 C1269 1.561 . S
C1272 C1269 1.526 1_545 S
C1272 C1273 1.396 . S
C1272 C1277 1.390 . S
C1273 C1267 1.465 . S
C1273 C1272 1.396 . S
C1273 C1274 1.399 . S
C1274 H1260 0.929 . S
C1274 C1273 1.399 . S
C1274 C1275 1.385 . S
C1275 H1261 0.931 . S
C1275 C1274 1.385 . S
C1275 C1276 1.389 . S
C1276 C1275 1.389 . S
C1276 C1277 1.387 . S
C1277 H1262 0.930 . S
C1277 C1272 1.390 . S
C1277 C1276 1.387 . S
C805 C196 1.056 . S
C817 C49 1.065 . S
C832 C145 1.084 . S
C844 C29 1.023 . S
C859 C108 0.972 . S
C871 C233 1.026 . S
C886 C469 0.988 . S
C898 C321 1.001 . S
C913 C409 0.969 . S
C925 C284 1.034 . S
C940 C372 1.085 . S
C952 C489 1.016 . S
C967 C577 0.972 . S
C979 C724 1.070 . S
C994 C557 1.086 . S
C1006 C665 1.008 . S
C1021 C645 0.966 . S
C1033 C761 1.053 . S
C1048 C57 1.219 . S
C1060 C636 1.209 . S
C1075 C137 1.217 . S
C1087 C733 1.219 . S
C1102 C548 1.195 . S
C1114 C225 1.194 . S
C1129 C401 1.216 . S
C1141 C205 1.220 . S
C1156 C20 1.213 . S
C1168 C497 1.220 . S
C1183 C313 1.195 . S
C1195 C117 1.207 . S
C1210 C673 1.216 . S
C1222 C460 1.220 . S
C1237 C293 1.195 . S
C1249 C753 1.194 . S
C1264 C585 1.217 . S
C1276 C381 1.206 . S
