# Generated by pormake.
# Topology vbr, (6)-cn, num edge types: 1
# Building blocks:
#     Node 0, Type 0, BuildingBlock: OJICUG_clean_sbu_0, # of connection points: 6
#     Node 1, Type 0, BuildingBlock: OJICUG_clean_sbu_0, # of connection points: 6
#     Node 2, Type 0, BuildingBlock: OJICUG_clean_sbu_0, # of connection points: 6
#     Node 3, Type 0, BuildingBlock: OJICUG_clean_sbu_0, # of connection points: 6
#     Node 4, Type 0, BuildingBlock: OJICUG_clean_sbu_0, # of connection points: 6
#     Node 5, Type 0, BuildingBlock: OJICUG_clean_sbu_0, # of connection points: 6
#     Node 6, Type 0, BuildingBlock: OJICUG_clean_sbu_0, # of connection points: 6
#     Node 7, Type 0, BuildingBlock: OJICUG_clean_sbu_0, # of connection points: 6
#     Node 8, Type 0, BuildingBlock: OJICUG_clean_sbu_0, # of connection points: 6
#     Node 9, Type 0, BuildingBlock: OJICUG_clean_sbu_0, # of connection points: 6
#     Node 10, Type 0, BuildingBlock: OJICUG_clean_sbu_0, # of connection points: 6
#     Node 11, Type 0, BuildingBlock: OJICUG_clean_sbu_0, # of connection points: 6
#     Node 12, Type 0, BuildingBlock: OJICUG_clean_sbu_0, # of connection points: 6
#     Node 13, Type 0, BuildingBlock: OJICUG_clean_sbu_0, # of connection points: 6
#     Node 14, Type 0, BuildingBlock: OJICUG_clean_sbu_0, # of connection points: 6
#     Node 15, Type 0, BuildingBlock: OJICUG_clean_sbu_0, # of connection points: 6
#     Edge 16, Type (0, 0), BuildingBlock: XUDNAN_clean_linker_2, # of connection points: 2
#     Edge 17, Type (0, 0), BuildingBlock: XUDNAN_clean_linker_2, # of connection points: 2
#     Edge 18, Type (0, 0), BuildingBlock: XUDNAN_clean_linker_2, # of connection points: 2
#     Edge 19, Type (0, 0), BuildingBlock: XUDNAN_clean_linker_2, # of connection points: 2
#     Edge 20, Type (0, 0), BuildingBlock: XUDNAN_clean_linker_2, # of connection points: 2
#     Edge 21, Type (0, 0), BuildingBlock: XUDNAN_clean_linker_2, # of connection points: 2
#     Edge 22, Type (0, 0), BuildingBlock: XUDNAN_clean_linker_2, # of connection points: 2
#     Edge 23, Type (0, 0), BuildingBlock: XUDNAN_clean_linker_2, # of connection points: 2
#     Edge 24, Type (0, 0), BuildingBlock: XUDNAN_clean_linker_2, # of connection points: 2
#     Edge 25, Type (0, 0), BuildingBlock: XUDNAN_clean_linker_2, # of connection points: 2
#     Edge 26, Type (0, 0), BuildingBlock: XUDNAN_clean_linker_2, # of connection points: 2
#     Edge 27, Type (0, 0), BuildingBlock: XUDNAN_clean_linker_2, # of connection points: 2
#     Edge 28, Type (0, 0), BuildingBlock: XUDNAN_clean_linker_2, # of connection points: 2
#     Edge 29, Type (0, 0), BuildingBlock: XUDNAN_clean_linker_2, # of connection points: 2
#     Edge 30, Type (0, 0), BuildingBlock: XUDNAN_clean_linker_2, # of connection points: 2
#     Edge 31, Type (0, 0), BuildingBlock: XUDNAN_clean_linker_2, # of connection points: 2
#     Edge 32, Type (0, 0), BuildingBlock: XUDNAN_clean_linker_2, # of connection points: 2
#     Edge 33, Type (0, 0), BuildingBlock: XUDNAN_clean_linker_2, # of connection points: 2
#     Edge 34, Type (0, 0), BuildingBlock: XUDNAN_clean_linker_2, # of connection points: 2
#     Edge 35, Type (0, 0), BuildingBlock: XUDNAN_clean_linker_2, # of connection points: 2
#     Edge 36, Type (0, 0), BuildingBlock: XUDNAN_clean_linker_2, # of connection points: 2
#     Edge 37, Type (0, 0), BuildingBlock: XUDNAN_clean_linker_2, # of connection points: 2
#     Edge 38, Type (0, 0), BuildingBlock: XUDNAN_clean_linker_2, # of connection points: 2
#     Edge 39, Type (0, 0), BuildingBlock: XUDNAN_clean_linker_2, # of connection points: 2
#     Edge 40, Type (0, 0), BuildingBlock: XUDNAN_clean_linker_2, # of connection points: 2
#     Edge 41, Type (0, 0), BuildingBlock: XUDNAN_clean_linker_2, # of connection points: 2
#     Edge 42, Type (0, 0), BuildingBlock: XUDNAN_clean_linker_2, # of connection points: 2
#     Edge 43, Type (0, 0), BuildingBlock: XUDNAN_clean_linker_2, # of connection points: 2
#     Edge 44, Type (0, 0), BuildingBlock: XUDNAN_clean_linker_2, # of connection points: 2
#     Edge 45, Type (0, 0), BuildingBlock: XUDNAN_clean_linker_2, # of connection points: 2
#     Edge 46, Type (0, 0), BuildingBlock: XUDNAN_clean_linker_2, # of connection points: 2
#     Edge 47, Type (0, 0), BuildingBlock: XUDNAN_clean_linker_2, # of connection points: 2
#     Edge 48, Type (0, 0), BuildingBlock: XUDNAN_clean_linker_2, # of connection points: 2
#     Edge 49, Type (0, 0), BuildingBlock: XUDNAN_clean_linker_2, # of connection points: 2
#     Edge 50, Type (0, 0), BuildingBlock: XUDNAN_clean_linker_2, # of connection points: 2
#     Edge 51, Type (0, 0), BuildingBlock: XUDNAN_clean_linker_2, # of connection points: 2
#     Edge 52, Type (0, 0), BuildingBlock: XUDNAN_clean_linker_2, # of connection points: 2
#     Edge 53, Type (0, 0), BuildingBlock: XUDNAN_clean_linker_2, # of connection points: 2
#     Edge 54, Type (0, 0), BuildingBlock: XUDNAN_clean_linker_2, # of connection points: 2
#     Edge 55, Type (0, 0), BuildingBlock: XUDNAN_clean_linker_2, # of connection points: 2
#     Edge 56, Type (0, 0), BuildingBlock: XUDNAN_clean_linker_2, # of connection points: 2
#     Edge 57, Type (0, 0), BuildingBlock: XUDNAN_clean_linker_2, # of connection points: 2
#     Edge 58, Type (0, 0), BuildingBlock: XUDNAN_clean_linker_2, # of connection points: 2
#     Edge 59, Type (0, 0), BuildingBlock: XUDNAN_clean_linker_2, # of connection points: 2
#     Edge 60, Type (0, 0), BuildingBlock: XUDNAN_clean_linker_2, # of connection points: 2
#     Edge 61, Type (0, 0), BuildingBlock: XUDNAN_clean_linker_2, # of connection points: 2
#     Edge 62, Type (0, 0), BuildingBlock: XUDNAN_clean_linker_2, # of connection points: 2
#     Edge 63, Type (0, 0), BuildingBlock: XUDNAN_clean_linker_2, # of connection points: 2
# Relax obj value: 0.306
# Max RMSD: 0.281
# Mean RMSD: 0.281
data_MOF--net-vbr--node1-OJICUG_clean_sbu_0--edge1-XUDNAN_clean_linker_2
_symmetry_space_group_name_H-M    P1
_symmetry_Int_Tables_number       1
_symmetry_cell_setting            triclinic
loop_
_symmetry_equiv_pos_as_xyz
'x, y, z'
_cell_length_a     43.889517
_cell_length_b     29.461981
_cell_length_c     56.54721
_cell_angle_alpha  89.998108
_cell_angle_beta   89.961523
_cell_angle_gamma 89.987717
loop_
_atom_site_label
_atom_site_type_symbol
_atom_site_fract_x
_atom_site_fract_y
_atom_site_fract_z
_atom_type_partial_charge
Sc0 Sc 0.34124 0.16184 0.09554 0.0
Sc1 Sc 0.27304 0.13618 0.12523 0.0
Sc2 Sc 0.33369 0.05761 0.12549 0.0
O3 O 0.31596 0.11851 0.11547 0.0
C4 C 0.35734 0.06612 0.07197 0.0
C5 C 0.27524 0.17061 0.07199 0.0
C6 C 0.26499 0.02989 0.11668 0.0
C7 C 0.30699 0.23225 0.12799 0.0
C8 C 0.39035 0.12387 0.13193 0.0
C9 C 0.29773 0.09046 0.1723 0.0
O10 O 0.35556 0.10911 0.07196 0.0
O11 O 0.26087 0.15438 0.08964 0.0
O12 O 0.29331 0.02151 0.11668 0.0
O13 O 0.3301 0.22042 0.11609 0.0
O14 O 0.37659 0.08681 0.13615 0.0
O15 O 0.28158 0.11994 0.16167 0.0
O16 O 0.38036 0.15366 0.1177 0.0
O17 O 0.28499 0.20552 0.13232 0.0
O18 O 0.31703 0.06506 0.1617 0.0
O19 O 0.30404 0.17573 0.07172 0.0
O20 O 0.35033 0.04215 0.08994 0.0
O21 O 0.25416 0.06943 0.11966 0.0
Sc22 Sc 0.13427 0.83019 0.59599 0.0
Sc23 Sc 0.21068 0.85042 0.61045 0.0
Sc24 Sc 0.15573 0.93494 0.62034 0.0
O25 O 0.16685 0.87178 0.60914 0.0
C26 C 0.11786 0.92516 0.57225 0.0
C27 C 0.19017 0.81403 0.56064 0.0
C28 C 0.22032 0.95504 0.59844 0.0
C29 C 0.17412 0.75862 0.62231 0.0
C30 C 0.09875 0.87887 0.63842 0.0
C31 C 0.2029 0.89911 0.65989 0.0
O32 O 0.1189 0.88207 0.57204 0.0
O33 O 0.21059 0.83317 0.5732 0.0
O34 O 0.19269 0.96572 0.60182 0.0
O35 O 0.14759 0.77317 0.6175 0.0
O36 O 0.1171 0.91193 0.64035 0.0
O37 O 0.21332 0.86616 0.6477 0.0
O38 O 0.10163 0.84826 0.62274 0.0
O39 O 0.1979 0.78239 0.61919 0.0
O40 O 0.18351 0.92761 0.65191 0.0
O41 O 0.1631 0.80762 0.56786 0.0
O42 O 0.12808 0.94892 0.58932 0.0
O43 O 0.23047 0.91538 0.60216 0.0
Sc44 Sc 0.34114 0.82028 0.89287 0.0
Sc45 Sc 0.26967 0.84211 0.86829 0.0
Sc46 Sc 0.32685 0.92403 0.86582 0.0
O47 O 0.31263 0.862 0.87544 0.0
C48 C 0.35389 0.91339 0.91827 0.0
C49 C 0.27697 0.79981 0.91785 0.0
C50 C 0.25995 0.9475 0.87903 0.0
C51 C 0.30837 0.74945 0.86234 0.0
C52 C 0.38615 0.8688 0.85604 0.0
C53 C 0.28697 0.89089 0.82109 0.0
O54 O 0.3487 0.87102 0.91969 0.0
O55 O 0.26072 0.82581 0.905 0.0
O56 O 0.28817 0.95499 0.8817 0.0
O57 O 0.33415 0.76569 0.86818 0.0
O58 O 0.36707 0.89828 0.84912 0.0
O59 O 0.27598 0.85589 0.83119 0.0
O60 O 0.3807 0.8417 0.87306 0.0
O61 O 0.28401 0.77296 0.86303 0.0
O62 O 0.30346 0.91994 0.83192 0.0
O63 O 0.30513 0.79289 0.91408 0.0
O64 O 0.35079 0.93563 0.89904 0.0
O65 O 0.24967 0.90909 0.87257 0.0
Sc66 Sc 0.15575 0.05287 0.36935 0.0
Sc67 Sc 0.21146 0.13721 0.3792 0.0
Sc68 Sc 0.13447 0.15959 0.39159 0.0
O69 O 0.16729 0.11657 0.37987 0.0
C70 C 0.09902 0.10996 0.35017 0.0
C71 C 0.20347 0.08615 0.32971 0.0
C72 C 0.17673 0.22946 0.36537 0.0
C73 C 0.22077 0.03297 0.39189 0.0
C74 C 0.11702 0.06543 0.41672 0.0
C75 C 0.18881 0.17693 0.42827 0.0
O76 O 0.11497 0.07403 0.35097 0.0
O77 O 0.21568 0.11665 0.34263 0.0
O78 O 0.15021 0.21663 0.37127 0.0
O79 O 0.19402 0.02172 0.38592 0.0
O80 O 0.11536 0.10828 0.4143 0.0
O81 O 0.21004 0.15951 0.41578 0.0
O82 O 0.13082 0.04009 0.4019 0.0
O83 O 0.23054 0.07333 0.39032 0.0
O84 O 0.16149 0.18032 0.42109 0.0
O85 O 0.18184 0.06033 0.33676 0.0
O86 O 0.10403 0.14403 0.36328 0.0
O87 O 0.20005 0.20444 0.36785 0.0
Sc88 Sc 0.65935 0.95031 0.8742 0.0
Sc89 Sc 0.71546 0.86697 0.88311 0.0
Sc90 Sc 0.64178 0.85155 0.90608 0.0
O91 O 0.67211 0.88938 0.88751 0.0
C92 C 0.62909 0.95117 0.9258 0.0
C93 C 0.7268 0.97231 0.88982 0.0
C94 C 0.70256 0.84279 0.93658 0.0
C95 C 0.70085 0.90744 0.83254 0.0
C96 C 0.60026 0.89098 0.86453 0.0
C97 C 0.67754 0.77374 0.88107 0.0
O98 O 0.63694 0.9712 0.90677 0.0
O99 O 0.73648 0.93225 0.88685 0.0
O100 O 0.67444 0.8362 0.9327 0.0
O101 O 0.68233 0.9369 0.84085 0.0
O102 O 0.6058 0.86362 0.88135 0.0
O103 O 0.70118 0.79829 0.8793 0.0
O104 O 0.61779 0.9238 0.85927 0.0
O105 O 0.71292 0.87639 0.84518 0.0
O106 O 0.65198 0.78933 0.88772 0.0
O107 O 0.699 0.98325 0.88767 0.0
O108 O 0.62955 0.90832 0.92796 0.0
O109 O 0.72117 0.85656 0.92083 0.0
Sc110 Sc 0.85781 0.13865 0.40554 0.0
Sc111 Sc 0.7802 0.11855 0.39377 0.0
Sc112 Sc 0.8356 0.03873 0.37637 0.0
O113 O 0.82449 0.09883 0.39176 0.0
C114 C 0.8922 0.09888 0.36058 0.0
C115 C 0.81464 0.21134 0.38141 0.0
C116 C 0.78485 0.07614 0.3415 0.0
C117 C 0.80517 0.15314 0.44349 0.0
C118 C 0.87391 0.03899 0.4244 0.0
C119 C 0.77241 0.01411 0.40183 0.0
O120 O 0.88752 0.12964 0.37581 0.0
O121 O 0.79149 0.18539 0.38184 0.0
O122 O 0.81002 0.05518 0.34452 0.0
O123 O 0.83272 0.15397 0.43684 0.0
O124 O 0.86041 0.01787 0.40772 0.0
O125 O 0.76359 0.05427 0.40597 0.0
O126 O 0.87638 0.08204 0.42501 0.0
O127 O 0.78353 0.14052 0.43009 0.0
O128 O 0.79681 0.00496 0.3908 0.0
O129 O 0.84079 0.19918 0.38875 0.0
O130 O 0.87635 0.06302 0.35938 0.0
O131 O 0.77143 0.09835 0.35777 0.0
Sc132 Sc 0.66269 0.08059 0.13439 0.0
Sc133 Sc 0.72246 0.15924 0.1378 0.0
Sc134 Sc 0.65465 0.18932 0.11051 0.0
O135 O 0.67978 0.14268 0.12756 0.0
C136 C 0.64051 0.09995 0.08091 0.0
C137 C 0.73059 0.0535 0.12805 0.0
C138 C 0.7217 0.20097 0.08798 0.0
C139 C 0.69751 0.11063 0.18276 0.0
C140 C 0.60433 0.14154 0.14268 0.0
C141 C 0.68844 0.25508 0.14224 0.0
O142 O 0.6448 0.07278 0.09827 0.0
O143 O 0.74056 0.09144 0.13522 0.0
O144 O 0.69374 0.21204 0.0903 0.0
O145 O 0.68069 0.08343 0.17073 0.0
O146 O 0.61352 0.17278 0.12899 0.0
O147 O 0.71218 0.23046 0.14174 0.0
O148 O 0.61986 0.10626 0.1472 0.0
O149 O 0.71102 0.14485 0.17375 0.0
O150 O 0.66246 0.23949 0.13711 0.0
O151 O 0.70297 0.04721 0.12247 0.0
O152 O 0.64431 0.14261 0.08268 0.0
O153 O 0.7353 0.1741 0.10211 0.0
Sc154 Sc 0.8314 0.91814 0.62864 0.0
Sc155 Sc 0.7757 0.83255 0.62507 0.0
Sc156 Sc 0.85144 0.80845 0.61038 0.0
O157 O 0.81954 0.85316 0.62151 0.0
C158 C 0.86695 0.89732 0.58019 0.0
C159 C 0.76539 0.93515 0.60858 0.0
C160 C 0.7938 0.7841 0.57782 0.0
C161 C 0.78672 0.88988 0.67169 0.0
C162 C 0.88976 0.86592 0.64775 0.0
C163 C 0.81245 0.74292 0.64096 0.0
O164 O 0.85636 0.92519 0.59542 0.0
O165 O 0.75544 0.89617 0.61423 0.0
O166 O 0.82112 0.77961 0.58489 0.0
O167 O 0.80589 0.91659 0.6618 0.0
O168 O 0.88541 0.83155 0.63467 0.0
O169 O 0.78848 0.76572 0.63674 0.0
O170 O 0.87181 0.89968 0.64798 0.0
O171 O 0.7752 0.85544 0.66134 0.0
O172 O 0.83885 0.75724 0.63561 0.0
O173 O 0.7932 0.94592 0.61048 0.0
O174 O 0.8666 0.85457 0.58336 0.0
O175 O 0.77408 0.8078 0.58892 0.0
Sc176 Sc 0.84243 0.68792 0.10742 0.0
Sc177 Sc 0.77146 0.66116 0.13102 0.0
Sc178 Sc 0.8265 0.57675 0.12563 0.0
O179 O 0.81366 0.64193 0.12139 0.0
C180 C 0.85556 0.60242 0.07505 0.0
C181 C 0.77844 0.70987 0.08253 0.0
C182 C 0.75902 0.55982 0.11334 0.0
C183 C 0.80965 0.75124 0.14261 0.0
C184 C 0.88588 0.62948 0.1411 0.0
C185 C 0.78895 0.60023 0.17349 0.0
O186 O 0.85295 0.64477 0.07836 0.0
O187 O 0.76212 0.68518 0.09602 0.0
O188 O 0.78665 0.55232 0.10817 0.0
O189 O 0.83488 0.7367 0.13485 0.0
O190 O 0.86787 0.59595 0.14335 0.0
O191 O 0.7797 0.63875 0.1663 0.0
O192 O 0.88027 0.66306 0.12765 0.0
O193 O 0.78517 0.72862 0.14062 0.0
O194 O 0.80362 0.57248 0.16025 0.0
O195 O 0.80679 0.71692 0.08579 0.0
O196 O 0.84911 0.57334 0.09105 0.0
O197 O 0.75056 0.59626 0.1234 0.0
Sc198 Sc 0.65396 0.31246 0.60314 0.0
Sc199 Sc 0.7204 0.33349 0.63419 0.0
Sc200 Sc 0.65968 0.4104 0.63791 0.0
O201 O 0.67789 0.35248 0.62509 0.0
C202 C 0.63968 0.41028 0.58306 0.0
C203 C 0.72174 0.3098 0.58133 0.0
C204 C 0.72731 0.44162 0.63435 0.0
C205 C 0.68708 0.23691 0.62915 0.0
C206 C 0.60213 0.34633 0.63869 0.0
C207 C 0.69317 0.3639 0.6826 0.0
O208 O 0.64502 0.36829 0.58013 0.0
O209 O 0.73462 0.33174 0.59795 0.0
O210 O 0.69946 0.44905 0.62992 0.0
O211 O 0.66119 0.25339 0.62437 0.0
O212 O 0.61739 0.37866 0.64757 0.0
O213 O 0.7072 0.33392 0.67057 0.0
O214 O 0.61182 0.32188 0.62179 0.0
O215 O 0.71064 0.26165 0.63135 0.0
O216 O 0.6774 0.39595 0.6734 0.0
O217 O 0.6939 0.29751 0.58217 0.0
O218 O 0.64164 0.42989 0.6032 0.0
O219 O 0.73776 0.402 0.63795 0.0
Sc220 Sc 0.85332 0.35294 0.9076 0.0
Sc221 Sc 0.77533 0.36657 0.89697 0.0
Sc222 Sc 0.82769 0.44388 0.8726 0.0
O223 O 0.81878 0.38773 0.89214 0.0
C224 C 0.86629 0.45639 0.92031 0.0
C225 C 0.80151 0.3501 0.94762 0.0
C226 C 0.7638 0.47231 0.89493 0.0
C227 C 0.81239 0.27256 0.89297 0.0
C228 C 0.88632 0.38495 0.86023 0.0
C229 C 0.77926 0.38803 0.84165 0.0
O230 O 0.8692 0.41398 0.92371 0.0
O231 O 0.77986 0.36478 0.93478 0.0
O232 O 0.78949 0.48023 0.88569 0.0
O233 O 0.83911 0.28885 0.89356 0.0
O234 O 0.86792 0.41705 0.85598 0.0
O235 O 0.76851 0.36687 0.85947 0.0
O236 O 0.88366 0.35939 0.87813 0.0
O237 O 0.7886 0.29676 0.89517 0.0
O238 O 0.80059 0.41761 0.84312 0.0
O239 O 0.82784 0.3412 0.9395 0.0
O240 O 0.85332 0.47316 0.90203 0.0
O241 O 0.7548 0.43267 0.89992 0.0
Sc242 Sc 0.65692 0.54313 0.37556 0.0
Sc243 Sc 0.71828 0.61846 0.37978 0.0
Sc244 Sc 0.64855 0.64832 0.40424 0.0
O245 O 0.67439 0.60308 0.38645 0.0
C246 C 0.60158 0.61037 0.36616 0.0
C247 C 0.69684 0.5795 0.33108 0.0
C248 C 0.68785 0.71727 0.37791 0.0
C249 C 0.72352 0.51118 0.38557 0.0
C250 C 0.62949 0.55465 0.42799 0.0
C251 C 0.71233 0.64906 0.43217 0.0
O252 O 0.61599 0.57391 0.36182 0.0
O253 O 0.71041 0.61075 0.34261 0.0
O254 O 0.66107 0.70387 0.38213 0.0
O255 O 0.69512 0.5047 0.38762 0.0
O256 O 0.63306 0.59738 0.42815 0.0
O257 O 0.72701 0.62614 0.41682 0.0
O258 O 0.63606 0.52992 0.41011 0.0
O259 O 0.7348 0.54981 0.38112 0.0
O260 O 0.68511 0.66298 0.42892 0.0
O261 O 0.67846 0.55106 0.34069 0.0
O262 O 0.6102 0.63916 0.38143 0.0
O263 O 0.7104 0.69035 0.37789 0.0
Sc264 Sc 0.15217 0.42857 0.86986 0.0
Sc265 Sc 0.20923 0.3473 0.87911 0.0
Sc266 Sc 0.13377 0.32273 0.8942 0.0
O267 O 0.16496 0.36625 0.88087 0.0
C268 C 0.11531 0.41657 0.9184 0.0
C269 C 0.21752 0.4538 0.88736 0.0
C270 C 0.19095 0.3123 0.92929 0.0
C271 C 0.19842 0.39246 0.82946 0.0
C272 C 0.09543 0.36952 0.853 0.0
C273 C 0.17518 0.25228 0.86978 0.0
O274 O 0.12612 0.44156 0.90199 0.0
O275 O 0.2283 0.41435 0.88409 0.0
O276 O 0.16418 0.30299 0.92209 0.0
O277 O 0.17914 0.42109 0.83764 0.0
O278 O 0.10012 0.33819 0.86798 0.0
O279 O 0.19833 0.27729 0.87312 0.0
O280 O 0.11273 0.4039 0.85113 0.0
O281 O 0.20936 0.35975 0.84158 0.0
O282 O 0.14824 0.26666 0.87271 0.0
O283 O 0.18919 0.46183 0.88698 0.0
O284 O 0.11641 0.37351 0.91771 0.0
O285 O 0.21047 0.33359 0.91674 0.0
Sc286 Sc 0.33955 0.66648 0.39356 0.0
Sc287 Sc 0.27145 0.63805 0.36622 0.0
Sc288 Sc 0.33138 0.56021 0.36643 0.0
O289 O 0.31434 0.62132 0.37544 0.0
C290 C 0.38866 0.6239 0.35835 0.0
C291 C 0.30338 0.73583 0.36558 0.0
C292 C 0.29564 0.59557 0.31967 0.0
C293 C 0.27316 0.67174 0.41789 0.0
C294 C 0.35595 0.57392 0.41948 0.0
C295 C 0.26413 0.53111 0.37308 0.0
O296 O 0.37978 0.65371 0.37305 0.0
O297 O 0.28032 0.7099 0.36503 0.0
O298 O 0.31172 0.56627 0.3309 0.0
O299 O 0.30092 0.68419 0.41572 0.0
O300 O 0.35068 0.54865 0.40158 0.0
O301 O 0.25402 0.56945 0.36656 0.0
O302 O 0.35211 0.61663 0.41918 0.0
O303 O 0.25948 0.64727 0.40262 0.0
O304 O 0.29185 0.52477 0.37831 0.0
O305 O 0.32981 0.72079 0.36967 0.0
O306 O 0.3734 0.58849 0.35348 0.0
O307 O 0.28299 0.6295 0.32968 0.0
Sc308 Sc 0.15416 0.55553 0.12223 0.0
Sc309 Sc 0.21089 0.63614 0.11487 0.0
Sc310 Sc 0.13794 0.6586 0.09419 0.0
O311 O 0.16739 0.61696 0.11075 0.0
C312 C 0.12087 0.56372 0.07195 0.0
C313 C 0.21913 0.5297 0.10726 0.0
C314 C 0.19836 0.66666 0.06319 0.0
C315 C 0.19871 0.59244 0.16361 0.0
C316 C 0.09754 0.61497 0.1357 0.0
C317 C 0.17501 0.73048 0.12089 0.0
O318 O 0.12671 0.54174 0.09087 0.0
O319 O 0.22965 0.56844 0.11267 0.0
O320 O 0.17159 0.67999 0.06847 0.0
O321 O 0.18163 0.56209 0.15431 0.0
O322 O 0.10147 0.64176 0.11827 0.0
O323 O 0.19901 0.70668 0.11855 0.0
O324 O 0.11606 0.58339 0.14085 0.0
O325 O 0.20759 0.6276 0.15245 0.0
O326 O 0.14868 0.71505 0.11647 0.0
O327 O 0.19089 0.52264 0.10451 0.0
O328 O 0.12549 0.60606 0.06995 0.0
O329 O 0.21518 0.6441 0.07728 0.0
Sc330 Sc 0.33103 0.42615 0.62722 0.0
Sc331 Sc 0.26965 0.35028 0.62405 0.0
Sc332 Sc 0.33701 0.3264 0.59396 0.0
O333 O 0.31263 0.36772 0.61515 0.0
C334 C 0.35339 0.42275 0.57308 0.0
C335 C 0.26377 0.45812 0.61984 0.0
C336 C 0.2702 0.32196 0.57102 0.0
C337 C 0.29349 0.38788 0.67226 0.0
C338 C 0.38715 0.35981 0.63097 0.0
C339 C 0.3028 0.25319 0.62186 0.0
O340 O 0.35139 0.44274 0.59307 0.0
O341 O 0.25277 0.41913 0.62418 0.0
O342 O 0.29819 0.31085 0.57208 0.0
O343 O 0.31095 0.41666 0.66211 0.0
O344 O 0.37818 0.33577 0.61369 0.0
O345 O 0.27966 0.2787 0.62437 0.0
O346 O 0.37202 0.39304 0.63915 0.0
O347 O 0.28004 0.35605 0.66114 0.0
O348 O 0.32856 0.26817 0.61551 0.0
O349 O 0.29208 0.46502 0.61692 0.0
O350 O 0.34721 0.381 0.57032 0.0
O351 O 0.25666 0.34332 0.58756 0.0
H352 H 0.29668 0.2038 0.02953 0.0
H353 H 0.21326 0.17837 0.0689 0.0
H354 H 0.18364 0.2151 0.03737 0.0
H355 H 0.27626 0.31295 0.00748 0.0
H356 H 0.29322 0.30482 0.97875 0.0
H357 H 0.30842 0.27543 0.00407 0.0
H358 H 0.30119 0.19818 0.98285 0.0
H359 H 0.28642 0.22739 0.95733 0.0
H360 H 0.26423 0.18341 0.97127 0.0
H361 H 0.16316 0.25648 0.00298 0.0
H362 H 0.15183 0.29373 0.96515 0.0
H363 H 0.24807 0.29218 0.94707 0.0
C364 C 0.27216 0.20554 0.03145 0.0
C365 C 0.25735 0.18818 0.05179 0.0
C366 C 0.2252 0.19119 0.05353 0.0
C367 C 0.20814 0.21226 0.03576 0.0
C368 C 0.22351 0.2299 0.0163 0.0
C369 C 0.25469 0.22628 0.0138 0.0
C370 C 0.26536 0.2477 0.99084 0.0
C371 C 0.2871 0.28759 0.99558 0.0
C372 C 0.28017 0.21204 0.97461 0.0
C373 C 0.23524 0.26409 0.98092 0.0
C374 C 0.21151 0.25361 0.99605 0.0
C375 C 0.18148 0.26467 0.9909 0.0
C376 C 0.17533 0.28586 0.96935 0.0
C377 C 0.19907 0.29568 0.9531 0.0
C378 C 0.22952 0.28546 0.95921 0.0
H379 H 0.29499 0.71224 0.45817 0.0
H380 H 0.21115 0.67446 0.42236 0.0
H381 H 0.1814 0.71158 0.45384 0.0
H382 H 0.26775 0.69324 0.51712 0.0
H383 H 0.28814 0.74067 0.52955 0.0
H384 H 0.3029 0.71209 0.50383 0.0
H385 H 0.30409 0.78869 0.48125 0.0
H386 H 0.28898 0.81745 0.50683 0.0
H387 H 0.26967 0.82177 0.47879 0.0
H388 H 0.16084 0.75295 0.48835 0.0
H389 H 0.14988 0.78958 0.52638 0.0
H390 H 0.24694 0.79936 0.54084 0.0
C391 C 0.27037 0.71161 0.45698 0.0
C392 C 0.25539 0.69037 0.43781 0.0
C393 C 0.22314 0.69016 0.43696 0.0
C394 C 0.20604 0.71151 0.45463 0.0
C395 C 0.22154 0.73265 0.47306 0.0
C396 C 0.25292 0.73245 0.47456 0.0
C397 C 0.2638 0.75633 0.49673 0.0
C398 C 0.2817 0.72362 0.51275 0.0
C399 C 0.28276 0.79857 0.49052 0.0
C400 C 0.23353 0.76938 0.50764 0.0
C401 C 0.20955 0.75591 0.49344 0.0
C402 C 0.17938 0.7635 0.4997 0.0
C403 C 0.17345 0.78428 0.5214 0.0
C404 C 0.19758 0.79693 0.53676 0.0
C405 C 0.22805 0.7902 0.5295 0.0
H406 H 0.18818 0.74365 0.03735 0.0
H407 H 0.23526 0.61413 0.03601 0.0
H408 H 0.25525 0.63178 0.99624 0.0
H409 H 0.16963 0.75014 0.97395 0.0
H410 H 0.17718 0.8102 0.97225 0.0
H411 H 0.16361 0.78565 0.99949 0.0
H412 H 0.21018 0.81879 0.02175 0.0
H413 H 0.22377 0.8436 0.99465 0.0
H414 H 0.24806 0.80607 0.01132 0.0
H415 H 0.27207 0.66393 0.95845 0.0
H416 H 0.28937 0.71188 0.92555 0.0
H417 H 0.23332 0.82295 0.95114 0.0
C418 C 0.20235 0.71883 0.02846 0.0
C419 C 0.21012 0.67741 0.03952 0.0
C420 C 0.2292 0.64606 0.02775 0.0
C421 C 0.2404 0.65562 0.00514 0.0
C422 C 0.23247 0.69682 0.99474 0.0
C423 C 0.21419 0.72821 0.00603 0.0
C424 C 0.21159 0.77166 0.99175 0.0
C425 C 0.17853 0.77988 0.98389 0.0
C426 C 0.22415 0.81242 0.0057 0.0
C427 C 0.23179 0.76001 0.97087 0.0
C428 C 0.24308 0.7163 0.97289 0.0
C429 C 0.26334 0.6981 0.9566 0.0
C430 C 0.27312 0.7257 0.93807 0.0
C431 C 0.26279 0.7711 0.93603 0.0
C432 C 0.24124 0.7882 0.95225 0.0
H433 H 0.29201 0.28316 0.53035 0.0
H434 H 0.20803 0.32202 0.56576 0.0
H435 H 0.17843 0.2866 0.5336 0.0
H436 H 0.2657 0.30232 0.47062 0.0
H437 H 0.28615 0.25433 0.45883 0.0
H438 H 0.30056 0.28373 0.4844 0.0
H439 H 0.30124 0.20786 0.50765 0.0
H440 H 0.28637 0.17827 0.48229 0.0
H441 H 0.26668 0.17517 0.51023 0.0
H442 H 0.15815 0.24477 0.49877 0.0
H443 H 0.14783 0.20504 0.46148 0.0
H444 H 0.24514 0.19375 0.44828 0.0
C445 C 0.26738 0.28467 0.5313 0.0
C446 C 0.25234 0.30545 0.55061 0.0
C447 C 0.22008 0.3066 0.5511 0.0
C448 C 0.20307 0.28631 0.533 0.0
C449 C 0.21868 0.26526 0.51455 0.0
C450 C 0.25007 0.26473 0.51341 0.0
C451 C 0.26124 0.23998 0.49158 0.0
C452 C 0.27948 0.272 0.4754 0.0
C453 C 0.27999 0.19782 0.49835 0.0
C454 C 0.23113 0.22677 0.48053 0.0
C455 C 0.20693 0.24142 0.49422 0.0
C456 C 0.17688 0.23336 0.48782 0.0
C457 C 0.17131 0.21068 0.46656 0.0
C458 C 0.1957 0.19643 0.45179 0.0
C459 C 0.22602 0.20402 0.45915 0.0
H460 H 0.75721 0.80695 0.95187 0.0
H461 H 0.67004 0.85884 0.97608 0.0
H462 H 0.68172 0.83434 0.01655 0.0
H463 H 0.7563 0.70864 0.98543 0.0
H464 H 0.79625 0.70789 0.99276 0.0
H465 H 0.78361 0.73515 0.96603 0.0
H466 H 0.80947 0.81025 0.97891 0.0
H467 H 0.82267 0.78297 0.00554 0.0
H468 H 0.80053 0.83439 0.00739 0.0
H469 H 0.69835 0.79478 0.05236 0.0
H470 H 0.72289 0.74979 0.08387 0.0
H471 H 0.80047 0.72521 0.03799 0.0
C472 C 0.74115 0.81436 0.9659 0.0
C473 C 0.71278 0.83475 0.96096 0.0
C474 C 0.69188 0.84309 0.97957 0.0
C475 C 0.69828 0.82936 0.00261 0.0
C476 C 0.72577 0.8075 0.00679 0.0
C477 C 0.74718 0.80064 0.98917 0.0
C478 C 0.77406 0.77365 0.99842 0.0
C479 C 0.77775 0.72868 0.98485 0.0
C480 C 0.80342 0.80202 0.99752 0.0
C481 C 0.76385 0.76554 0.02369 0.0
C482 C 0.73588 0.78532 0.02804 0.0
C483 C 0.72055 0.77982 0.04941 0.0
C484 C 0.73445 0.75389 0.06706 0.0
C485 C 0.76346 0.7344 0.06323 0.0
C486 C 0.77839 0.74037 0.04133 0.0
H487 H 0.70144 0.27466 0.53958 0.0
H488 H 0.78406 0.30354 0.57908 0.0
H489 H 0.81423 0.26294 0.54885 0.0
H490 H 0.72131 0.16319 0.52223 0.0
H491 H 0.70444 0.16741 0.49326 0.0
H492 H 0.68937 0.20051 0.51736 0.0
H493 H 0.69713 0.27466 0.49331 0.0
H494 H 0.71159 0.24172 0.46894 0.0
H495 H 0.73416 0.28715 0.48113 0.0
H496 H 0.8348 0.21585 0.51553 0.0
H497 H 0.84547 0.17381 0.4788 0.0
H498 H 0.74907 0.17623 0.46129 0.0
C499 C 0.72593 0.27302 0.54177 0.0
C500 C 0.74042 0.29227 0.56168 0.0
C501 C 0.77251 0.28939 0.56385 0.0
C502 C 0.78979 0.26605 0.54691 0.0
C503 C 0.77459 0.24614 0.52794 0.0
C504 C 0.74347 0.25003 0.52508 0.0
C505 C 0.73262 0.22576 0.50309 0.0
C506 C 0.71064 0.18692 0.50937 0.0
C507 C 0.71803 0.25933 0.48558 0.0
C508 C 0.76258 0.20767 0.49392 0.0
C509 C 0.78646 0.2194 0.50863 0.0
C510 C 0.81634 0.20671 0.50379 0.0
C511 C 0.82211 0.18274 0.4829 0.0
C512 C 0.79811 0.17197 0.46706 0.0
C513 C 0.7679 0.18373 0.47302 0.0
H514 H 0.69977 0.24398 0.04876 0.0
H515 H 0.78373 0.21054 0.08545 0.0
H516 H 0.81293 0.25396 0.05573 0.0
H517 H 0.7292 0.23149 0.99103 0.0
H518 H 0.70711 0.27738 0.97879 0.0
H519 H 0.69302 0.24654 0.00396 0.0
H520 H 0.68827 0.3222 0.02751 0.0
H521 H 0.70237 0.35281 0.00216 0.0
H522 H 0.72115 0.35846 0.03032 0.0
H523 H 0.83296 0.29849 0.02142 0.0
H524 H 0.84305 0.33343 0.98259 0.0
H525 H 0.74585 0.33695 0.96834 0.0
C526 C 0.7243 0.2459 0.05062 0.0
C527 C 0.7395 0.22389 0.06938 0.0
C528 C 0.77164 0.22684 0.07108 0.0
C529 C 0.78837 0.25184 0.05447 0.0
C530 C 0.77259 0.27355 0.03634 0.0
C531 C 0.74132 0.2704 0.03418 0.0
C532 C 0.73003 0.29404 0.01214 0.0
C533 C 0.71391 0.26035 0.9955 0.0
C534 C 0.70922 0.33426 0.01842 0.0
C535 C 0.75994 0.31017 0.00193 0.0
C536 C 0.78417 0.29872 0.01636 0.0
C537 C 0.81418 0.30787 0.01003 0.0
C538 C 0.81966 0.32768 0.98793 0.0
C539 C 0.79521 0.33776 0.97242 0.0
C540 C 0.76497 0.3302 0.97991 0.0
H541 H 0.69381 0.71109 0.46559 0.0
H542 H 0.76673 0.61664 0.44857 0.0
H543 H 0.7944 0.64068 0.48427 0.0
H544 H 0.74179 0.79995 0.48675 0.0
H545 H 0.7163 0.81727 0.51007 0.0
H546 H 0.70132 0.79157 0.48362 0.0
H547 H 0.67439 0.73 0.50888 0.0
H548 H 0.68923 0.75559 0.53543 0.0
H549 H 0.69646 0.6965 0.52933 0.0
H550 H 0.81483 0.67561 0.52036 0.0
H551 H 0.82731 0.71874 0.556 0.0
H552 H 0.74135 0.79158 0.5506 0.0
C553 C 0.71543 0.69505 0.46949 0.0
C554 C 0.72805 0.66182 0.45428 0.0
C555 C 0.75659 0.64213 0.45991 0.0
C556 C 0.77248 0.65552 0.48016 0.0
C557 C 0.75955 0.68862 0.49457 0.0
C558 C 0.7317 0.70812 0.48962 0.0
C559 C 0.72342 0.7438 0.50789 0.0
C560 C 0.72055 0.79093 0.49639 0.0
C561 C 0.69414 0.73067 0.52117 0.0
C562 C 0.75105 0.74118 0.52389 0.0
C563 C 0.77152 0.70911 0.51573 0.0
C564 C 0.79899 0.70072 0.52701 0.0
C565 C 0.80585 0.72568 0.54726 0.0
C566 C 0.78532 0.75879 0.55619 0.0
C567 C 0.75745 0.76647 0.54431 0.0
H568 H 0.3393 0.8923 0.9643 0.0
H569 H 0.38667 0.99208 0.92145 0.0
H570 H 0.39773 0.03693 0.95733 0.0
H571 H 0.30286 0.97138 1.00116 0.0
H572 H 0.3052 0.93771 0.02771 0.0
H573 H 0.30436 0.91033 0.99928 0.0
H574 H 0.35476 0.86875 0.0091 0.0
H575 H 0.35579 0.8961 0.03761 0.0
H576 H 0.38774 0.90123 0.01774 0.0
H577 H 0.40044 0.07369 0.99684 0.0
H578 H 0.39207 0.10292 0.03707 0.0
H579 H 0.3416 0.98097 0.05501 0.0
C580 C 0.35264 0.92304 0.96256 0.0
C581 C 0.3625 0.9384 0.94007 0.0
C582 C 0.37905 0.97952 0.93846 0.0
C583 C 0.38555 0.00511 0.95877 0.0
C584 C 0.37519 0.98935 0.9806 0.0
C585 C 0.35895 0.9494 0.98266 0.0
C586 C 0.34807 0.94236 0.00794 0.0
C587 C 0.31305 0.94035 0.00908 0.0
C588 C 0.36246 0.89956 0.01873 0.0
C589 C 0.36024 0.98505 0.01965 0.0
C590 C 0.37618 0.01125 0.00355 0.0
C591 C 0.38827 0.05329 0.00965 0.0
C592 C 0.38333 0.06962 0.03259 0.0
C593 C 0.36631 0.0442 0.04931 0.0
C594 C 0.35521 0.00081 0.04283 0.0
H595 H 0.1276 0.89823 0.52678 0.0
H596 H 0.08745 0.00621 0.56854 0.0
H597 H 0.0758 0.0486 0.53181 0.0
H598 H 0.16582 0.9698 0.4882 0.0
H599 H 0.16143 0.93456 0.46237 0.0
H600 H 0.16155 0.90921 0.49129 0.0
H601 H 0.10917 0.87232 0.48283 0.0
H602 H 0.10883 0.89764 0.4538 0.0
H603 H 0.07758 0.90745 0.47387 0.0
H604 H 0.07255 0.08186 0.49113 0.0
H605 H 0.08235 0.10758 0.45047 0.0
H606 H 0.12769 0.97986 0.43509 0.0
C607 C 0.11544 0.93013 0.52812 0.0
C608 C 0.10773 0.94856 0.55045 0.0
C609 C 0.09311 0.99129 0.55159 0.0
C610 C 0.08633 0.01544 0.53082 0.0
C611 C 0.09468 -0.00335 0.50908 0.0
C612 C 0.10916 0.9551 0.50761 0.0
C613 C 0.11923 0.9451 0.48245 0.0
C614 C 0.15406 0.93936 0.48101 0.0
C615 C 0.1027 0.90313 0.47266 0.0
C616 C 0.10879 0.98803 0.47005 0.0
C617 C 0.09409 0.0168 0.48566 0.0
C618 C 0.08379 0.05945 0.47872 0.0
C619 C 0.0895 0.07375 0.45549 0.0
C620 C 0.10579 0.04582 0.43939 0.0
C621 C 0.11478 0.00184 0.44672 0.0
H622 H 0.63645 0.92575 0.97206 0.0
H623 H 0.60938 0.03964 0.92819 0.0
H624 H 0.60471 0.08746 0.96397 0.0
H625 H 0.58936 0.95218 0.02431 0.0
H626 H 0.61877 0.93545 0.04478 0.0
H627 H 0.61628 0.90861 0.0162 0.0
H628 H 0.67226 0.93041 0.00752 0.0
H629 H 0.675 0.95724 0.03601 0.0
H630 H 0.68376 0.98899 0.00962 0.0
H631 H 0.60646 0.12404 0.00378 0.0
H632 H 0.61648 0.14876 0.04449 0.0
H633 H 0.64478 0.01201 0.06306 0.0
C634 C 0.62874 0.96042 0.97 0.0
C635 C 0.62274 0.97874 0.94728 0.0
C636 C 0.61374 0.02472 0.94536 0.0
C637 C 0.61101 0.05209 0.96561 0.0
C638 C 0.61763 0.03313 0.98765 0.0
C639 C 0.62643 0.98839 0.98999 0.0
C640 C 0.63493 0.97752 0.01544 0.0
C641 C 0.61355 0.94129 0.02579 0.0
C642 C 0.66848 0.96268 0.01724 0.0
C643 C 0.62984 0.02335 0.02707 0.0
C644 C 0.61955 0.05469 0.01069 0.0
C645 C 0.61433 0.09974 0.01677 0.0
C646 C 0.62021 0.11344 0.04003 0.0
C647 C 0.63147 0.08241 0.05717 0.0
C648 C 0.63585 0.03648 0.05057 0.0
H649 H 0.86282 0.98428 0.56165 0.0
H650 H 0.89405 0.84808 0.54491 0.0
H651 H 0.90442 0.87179 0.50403 0.0
H652 H 0.82418 0.0037 0.50915 0.0
H653 H 0.83447 0.06268 0.50627 0.0
H654 H 0.83291 0.03687 0.53507 0.0
H655 H 0.88876 0.06101 0.54291 0.0
H656 H 0.89039 0.08706 0.51409 0.0
H657 H 0.91815 0.0448 0.52228 0.0
H658 H 0.90395 0.90644 0.46352 0.0
H659 H 0.89624 0.95203 0.42718 0.0
H660 H 0.86877 0.06687 0.47015 0.0
C661 C 0.87264 0.95975 0.5496 0.0
C662 C 0.87759 0.91423 0.55671 0.0
C663 C 0.89 0.88314 0.5401 0.0
C664 C 0.89604 0.89627 0.51673 0.0
C665 C 0.89003 0.94087 0.51012 0.0
C666 C 0.87905 0.9724 0.52613 0.0
C667 C 0.87291 0.01749 0.51405 0.0
C668 C 0.83912 0.03094 0.51626 0.0
C669 C 0.89381 0.05479 0.52392 0.0
C670 C 0.88122 0.00584 0.48869 0.0
C671 C 0.89107 0.96147 0.48679 0.0
C672 C 0.89707 0.94162 0.46484 0.0
C673 C 0.89263 0.96767 0.44429 0.0
C674 C 0.88273 0.01326 0.44586 0.0
C675 C 0.87746 0.03261 0.46842 0.0
H676 H 0.85954 0.5149 0.05711 0.0
H677 H 0.87124 0.65657 0.0377 0.0
H678 H 0.88035 0.63435 0.99649 0.0
H679 H 0.91767 0.46946 0.01549 0.0
H680 H 0.89529 0.41971 0.00899 0.0
H681 H 0.89253 0.44626 0.03763 0.0
H682 H 0.83407 0.45381 0.03234 0.0
H683 H 0.83675 0.42739 0.00375 0.0
H684 H 0.81929 0.48248 0.00662 0.0
H685 H 0.88141 0.59805 0.95625 0.0
H686 H 0.8773 0.54884 0.9208 0.0
H687 H 0.86841 0.43124 0.96655 0.0
C688 C 0.86469 0.54117 0.04433 0.0
C689 C 0.86463 0.58749 0.05087 0.0
C690 C 0.87112 0.62077 0.03336 0.0
C691 C 0.8764 0.60856 0.00978 0.0
C692 C 0.87561 0.56283 0.00382 0.0
C693 C 0.8703 0.52955 0.02062 0.0
C694 C 0.8692 0.48302 0.00927 0.0
C695 C 0.89523 0.45284 0.01839 0.0
C696 C 0.83798 0.46038 0.01323 0.0
C697 C 0.87391 0.49562 0.98351 0.0
C698 C 0.87756 0.54179 0.98067 0.0
C699 C 0.87935 0.56165 0.95825 0.0
C700 C 0.87701 0.53354 0.93821 0.0
C701 C 0.87331 0.4861 0.94078 0.0
C702 C 0.87229 0.46717 0.96383 0.0
H703 H 0.64433 0.47009 0.44551 0.0
H704 H 0.59529 0.59374 0.46254 0.0
H705 H 0.58952 0.56809 0.50374 0.0
H706 H 0.60047 0.39393 0.48683 0.0
H707 H 0.63419 0.36205 0.49426 0.0
H708 H 0.63044 0.38703 0.46531 0.0
H709 H 0.68181 0.4287 0.47132 0.0
H710 H 0.68544 0.40453 0.50039 0.0
H711 H 0.68666 0.46526 0.49661 0.0
H712 H 0.59589 0.53496 0.54432 0.0
H713 H 0.60912 0.49186 0.58051 0.0
H714 H 0.65267 0.38902 0.53712 0.0
C715 C 0.63133 0.49086 0.45768 0.0
C716 C 0.62012 0.5338 0.45073 0.0
C717 C 0.60402 0.56065 0.46742 0.0
C718 C 0.60064 0.54642 0.49091 0.0
C719 C 0.61322 0.50499 0.49751 0.0
C720 C 0.62773 0.47712 0.48132 0.0
C721 C 0.64096 0.43565 0.49342 0.0
C722 C 0.62559 0.39208 0.48442 0.0
C723 C 0.67577 0.43345 0.49024 0.0
C724 C 0.63239 0.44536 0.51891 0.0
C725 C 0.61636 0.48547 0.52093 0.0
C726 C 0.60788 0.50298 0.54293 0.0
C727 C 0.61567 0.47849 0.56341 0.0
C728 C 0.63159 0.43686 0.56169 0.0
C729 C 0.63995 0.42031 0.53906 0.0
H730 H 0.13067 0.58734 0.02594 0.0
H731 H 0.08978 0.48278 0.06968 0.0
H732 H 0.07683 0.43906 0.03366 0.0
H733 H 0.07884 0.57793 0.97443 0.0
H734 H 0.10947 0.58609 0.95361 0.0
H735 H 0.11122 0.61233 0.98238 0.0
H736 H 0.16339 0.57397 0.9901 0.0
H737 H 0.16187 0.54782 0.9614 0.0
H738 H 0.16668 0.51318 0.98741 0.0
H739 H 0.07237 0.40405 0.99342 0.0
H740 H 0.0809 0.37653 0.95286 0.0
H741 H 0.12677 0.50268 0.93533 0.0
C742 C 0.11821 0.55584 0.02794 0.0
C743 C 0.11073 0.53878 0.05061 0.0
C744 C 0.09547 0.49664 0.05249 0.0
C745 C 0.08789 0.47175 0.03212 0.0
C746 C 0.09594 0.48934 0.01005 0.0
C747 C 0.11096 0.53031 0.00786 0.0
C748 C 0.12026 0.53923 0.98244 0.0
C749 C 0.10397 0.5814 0.97264 0.0
C750 C 0.15511 0.54379 0.98022 0.0
C751 C 0.10878 0.4963 0.97068 0.0
C752 C 0.09428 0.46845 0.98686 0.0
C753 C 0.0834 0.42577 0.98057 0.0
C754 C 0.08837 0.41045 0.95743 0.0
C755 C 0.10443 0.43746 0.94079 0.0
C756 C 0.11391 0.48154 0.94741 0.0
H757 H 0.34213 0.4007 0.52686 0.0
H758 H 0.3821 0.50558 0.57095 0.0
H759 H 0.39272 0.55138 0.53523 0.0
H760 H 0.39291 0.41416 0.4753 0.0
H761 H 0.36244 0.40502 0.45447 0.0
H762 H 0.36128 0.37808 0.48308 0.0
H763 H 0.30839 0.41377 0.4911 0.0
H764 H 0.3093 0.44071 0.46257 0.0
H765 H 0.30377 0.47443 0.48882 0.0
H766 H 0.39538 0.58798 0.49548 0.0
H767 H 0.3872 0.61551 0.4549 0.0
H768 H 0.34441 0.48757 0.43635 0.0
C769 C 0.35374 0.43286 0.52901 0.0
C770 C 0.36162 0.44935 0.55174 0.0
C771 C 0.376 0.49217 0.55376 0.0
C772 C 0.38225 0.51828 0.53356 0.0
C773 C 0.3739 0.50117 0.51148 0.0
C774 C 0.35984 0.45952 0.50908 0.0
C775 C 0.35071 0.45071 0.4836 0.0
C776 C 0.36787 0.40955 0.47352 0.0
C777 C 0.31599 0.44457 0.48141 0.0
C778 C 0.36122 0.49444 0.47207 0.0
C779 C 0.37494 0.52271 0.48846 0.0
C780 C 0.38497 0.56598 0.48247 0.0
C781 C 0.38016 0.58132 0.45934 0.0
C782 C 0.36526 0.55364 0.44238 0.0
C783 C 0.35637 0.50916 0.44875 0.0
H784 H 0.28057 0.15205 0.20617 0.0
H785 H 0.29605 0.00838 0.19461 0.0
H786 H 0.27332 0.99149 0.23368 0.0
H787 H 0.29771 0.1495 0.27056 0.0
H788 H 0.26924 0.19182 0.27706 0.0
H789 H 0.28851 0.19228 0.24891 0.0
H790 H 0.23627 0.18961 0.22768 0.0
H791 H 0.21685 0.18816 0.25572 0.0
H792 H 0.21011 0.14411 0.23423 0.0
H793 H 0.24252 0.98989 0.27156 0.0
H794 H 0.21482 0.00438 0.30897 0.0
H795 H 0.22346 0.14934 0.29757 0.0
C796 C 0.27987 0.11714 0.21215 0.0
C797 C 0.29022 0.0815 0.19743 0.0
C798 C 0.28871 0.03623 0.20576 0.0
C799 C 0.27555 0.02629 0.22782 0.0
C800 C 0.26462 0.06211 0.24156 0.0
C801 C 0.26748 0.10674 0.23436 0.0
C802 C 0.25405 0.13896 0.25252 0.0
C803 C 0.27886 0.16997 0.26288 0.0
C804 C 0.22776 0.16684 0.24189 0.0
C805 C 0.24249 0.10546 0.27078 0.0
C806 C 0.24843 0.06126 0.26397 0.0
C807 C 0.23824 0.02438 0.27726 0.0
C808 C 0.22226 0.0329 0.29834 0.0
C809 C 0.2171 0.07792 0.30614 0.0
C810 C 0.22731 0.11458 0.29209 0.0
H811 H 0.27 0.8299 0.78657 0.0
H812 H 0.28243 0.9738 0.79993 0.0
H813 H 0.26214 0.99125 0.76027 0.0
H814 H 0.29222 0.83473 0.72405 0.0
H815 H 0.2649 0.79226 0.7153 0.0
H816 H 0.28097 0.79105 0.7446 0.0
H817 H 0.22663 0.7925 0.7625 0.0
H818 H 0.21041 0.79419 0.73327 0.0
H819 H 0.20086 0.83761 0.75447 0.0
H820 H 0.23634 0.99352 0.72076 0.0
H821 H 0.21307 0.98012 0.68161 0.0
H822 H 0.22092 0.83475 0.69227 0.0
C823 C 0.26873 0.86504 0.78104 0.0
C824 C 0.27779 0.90051 0.79637 0.0
C825 C 0.27589 0.94605 0.78844 0.0
C826 C 0.2642 0.95633 0.766 0.0
C827 C 0.25501 0.92067 0.75149 0.0
C828 C 0.2577 0.87589 0.75846 0.0
C829 C 0.24663 0.84401 0.73922 0.0
C830 C 0.27274 0.81373 0.73026 0.0
C831 C 0.21952 0.8154 0.74789 0.0
C832 C 0.23683 0.87791 0.72053 0.0
C833 C 0.24153 0.92195 0.72812 0.0
C834 C 0.23291 0.9592 0.71449 0.0
C835 C 0.21953 0.95126 0.69236 0.0
C836 C 0.21534 0.90646 0.68389 0.0
C837 C 0.22415 0.86936 0.69821 0.0
H838 H 0.76986 0.83098 0.70715 0.0
H839 H 0.77787 0.97416 0.69033 0.0
H840 H 0.75505 0.99367 0.72899 0.0
H841 H 0.69918 0.83585 0.73849 0.0
H842 H 0.71008 0.79541 0.76086 0.0
H843 H 0.72672 0.7923 0.73177 0.0
H844 H 0.78079 0.79714 0.74992 0.0
H845 H 0.76433 0.79978 0.77908 0.0
H846 H 0.7901 0.84362 0.76935 0.0
H847 H 0.72822 -0.0025 0.76815 0.0
H848 H 0.70631 0.98631 0.8079 0.0
H849 H 0.71968 0.8409 0.80129 0.0
C850 C 0.76693 0.86642 0.7117 0.0
C851 C 0.77554 0.90113 0.69572 0.0
C852 C 0.77162 0.94709 0.70236 0.0
C853 C 0.75848 0.95848 0.7242 0.0
C854 C 0.74989 0.92351 0.73942 0.0
C855 C 0.75453 0.87843 0.73372 0.0
C856 C 0.74443 0.84757 0.75376 0.0
C857 C 0.71856 0.81592 0.74573 0.0
C858 C 0.77153 0.82043 0.76361 0.0
C859 C 0.73309 0.88233 0.77151 0.0
C860 C 0.736 0.92587 0.76267 0.0
C861 C 0.7261 0.96362 0.77535 0.0
C862 C 0.71347 0.95686 0.79786 0.0
C863 C 0.7113 0.91276 0.80773 0.0
C864 C 0.72118 0.87502 0.79426 0.0
H865 H 0.74954 0.13177 0.20653 0.0
H866 H 0.6626 0.06366 0.21516 0.0
H867 H 0.67646 0.04473 0.25656 0.0
H868 H 0.79338 0.05082 0.24009 0.0
H869 H 0.81842 0.09324 0.25231 0.0
H870 H 0.80133 0.10197 0.22372 0.0
H871 H 0.77859 0.1784 0.23799 0.0
H872 H 0.79577 0.17009 0.26656 0.0
H873 H 0.7553 0.17956 0.26426 0.0
H874 H 0.69909 0.03746 0.29771 0.0
H875 H 0.7294 0.03883 0.33463 0.0
H876 H 0.8031 0.10645 0.29782 0.0
C877 C 0.73321 0.11323 0.21716 0.0
C878 C 0.70472 0.0998 0.20775 0.0
C879 C 0.68442 0.07455 0.22207 0.0
C880 C 0.69214 0.06365 0.24556 0.0
C881 C 0.72049 0.07745 0.25421 0.0
C882 C 0.7408 0.10132 0.24034 0.0
C883 C 0.77007 0.11143 0.25355 0.0
C884 C 0.79741 0.08795 0.24171 0.0
C885 C 0.77522 0.16292 0.25572 0.0
C886 C 0.76294 0.09029 0.27731 0.0
C887 C 0.73415 0.07103 0.27736 0.0
C888 C 0.72179 0.0518 0.29772 0.0
C889 C 0.73913 0.05269 0.31856 0.0
C890 C 0.76866 0.07197 0.31879 0.0
C891 C 0.78086 0.09054 0.29786 0.0
H892 H 0.71862 0.64427 0.30094 0.0
H893 H 0.69703 0.5008 0.30497 0.0
H894 H 0.72065 0.4891 0.26563 0.0
H895 H 0.70421 0.65653 0.23771 0.0
H896 H 0.73473 0.69684 0.23402 0.0
H897 H 0.71492 0.69315 0.26185 0.0
H898 H 0.76651 0.68014 0.28311 0.0
H899 H 0.7864 0.68271 0.25528 0.0
H900 H 0.79055 0.63365 0.27405 0.0
H901 H 0.75047 0.49294 0.22664 0.0
H902 H 0.77639 0.51392 0.18922 0.0
H903 H 0.7769 0.65495 0.21122 0.0
C904 C 0.71841 0.61046 0.29342 0.0
C905 C 0.70593 0.57345 0.30602 0.0
C906 C 0.70613 0.52977 0.29552 0.0
C907 C 0.71978 0.52273 0.27329 0.0
C908 C 0.73282 0.55981 0.26172 0.0
C909 C 0.73161 0.60297 0.27126 0.0
C910 C 0.74687 0.63735 0.2553 0.0
C911 C 0.72381 0.67306 0.24671 0.0
C912 C 0.7742 0.65976 0.26768 0.0
C913 C 0.75714 0.60684 0.23533 0.0
C914 C 0.74918 0.56213 0.23937 0.0
C915 C 0.75664 0.52791 0.22328 0.0
C916 C 0.77168 0.54003 0.2022 0.0
C917 C 0.77875 0.58602 0.19735 0.0
C918 C 0.77183 0.61949 0.21442 0.0
H919 H 0.77234 0.44356 0.80244 0.0
H920 H 0.75428 0.3077 0.82875 0.0
H921 H 0.72673 0.28944 0.79213 0.0
H922 H 0.69942 0.45884 0.77382 0.0
H923 H 0.71462 0.48905 0.74873 0.0
H924 H 0.73363 0.49218 0.77692 0.0
H925 H 0.78382 0.46388 0.75779 0.0
H926 H 0.76507 0.46143 0.7295 0.0
H927 H 0.78373 0.4117 0.74112 0.0
H928 H 0.70257 0.28429 0.75283 0.0
H929 H 0.68478 0.29203 0.71158 0.0
H930 H 0.71539 0.43187 0.71058 0.0
C931 C 0.76287 0.40987 0.80031 0.0
C932 C 0.76548 0.37705 0.81846 0.0
C933 C 0.75245 0.33348 0.81516 0.0
C934 C 0.73668 0.32275 0.79444 0.0
C935 C 0.73383 0.35604 0.77717 0.0
C936 C 0.74662 0.39865 0.77972 0.0
C937 C 0.74014 0.42784 0.75817 0.0
C938 C 0.7208 0.46944 0.76482 0.0
C939 C 0.76996 0.44203 0.74592 0.0
C940 C 0.72209 0.3947 0.74311 0.0
C941 C 0.71872 0.35354 0.75452 0.0
C942 C 0.70463 0.31652 0.7438 0.0
C943 C 0.69446 0.32123 0.72047 0.0
C944 C 0.69804 0.36279 0.7083 0.0
C945 C 0.71146 0.40027 0.7199 0.0
H946 H 0.21577 0.32885 0.79657 0.0
H947 H 0.21118 0.47395 0.80914 0.0
H948 H 0.23843 0.48785 0.77157 0.0
H949 H 0.28937 0.32533 0.76946 0.0
H950 H 0.27918 0.28359 0.74755 0.0
H951 H 0.25979 0.28456 0.77564 0.0
H952 H 0.20772 0.29167 0.75439 0.0
H953 H 0.2269 0.28993 0.72625 0.0
H954 H 0.20196 0.33666 0.73325 0.0
H955 H 0.26881 0.48574 0.73399 0.0
H956 H 0.29201 0.46912 0.69522 0.0
H957 H 0.27331 0.32569 0.70516 0.0
C958 C 0.22032 0.36352 0.79126 0.0
C959 C 0.21141 0.40038 0.8057 0.0
C960 C 0.21755 0.4453 0.79819 0.0
C961 C 0.23329 0.45349 0.77702 0.0
C962 C 0.24224 0.41641 0.76338 0.0
C963 C 0.23535 0.37237 0.76988 0.0
C964 C 0.24614 0.3388 0.75133 0.0
C965 C 0.27004 0.30615 0.76162 0.0
C966 C 0.21906 0.31274 0.74067 0.0
C967 C 0.2603 0.37085 0.73346 0.0
C968 C 0.25834 0.41537 0.74102 0.0
C969 C 0.2703 0.45105 0.72779 0.0
C970 C 0.2837 0.44119 0.70588 0.0
C971 C 0.28455 0.39609 0.69716 0.0
C972 C 0.27304 0.36047 0.71137 0.0
H973 H 0.21793 0.6552 0.19622 0.0
H974 H 0.2104 0.51022 0.18397 0.0
H975 H 0.23831 0.49546 0.22112 0.0
H976 H 0.29254 0.65534 0.22158 0.0
H977 H 0.28395 0.69797 0.24346 0.0
H978 H 0.2637 0.69746 0.21575 0.0
H979 H 0.21212 0.69331 0.23801 0.0
H980 H 0.23219 0.69471 0.26576 0.0
H981 H 0.20605 0.64907 0.25953 0.0
H982 H 0.2691 0.49668 0.25878 0.0
H983 H 0.29278 0.51323 0.29745 0.0
H984 H 0.27786 0.65722 0.28608 0.0
C985 C 0.22196 0.62035 0.20146 0.0
C986 C 0.21199 0.58385 0.18723 0.0
C987 C 0.21755 0.53871 0.19473 0.0
C988 C 0.23367 0.52999 0.21567 0.0
C989 C 0.24374 0.56677 0.22904 0.0
C990 C 0.23754 0.61102 0.22251 0.0
C991 C 0.2496 0.64438 0.24061 0.0
C992 C 0.27389 0.67562 0.22969 0.0
C993 C 0.22343 0.67198 0.25163 0.0
C994 C 0.26356 0.61197 0.25834 0.0
C995 C 0.26044 0.5674 0.25115 0.0
C996 C 0.27159 0.53145 0.26464 0.0
C997 C 0.28529 0.54122 0.28648 0.0
C998 C 0.28725 0.58651 0.29477 0.0
C999 C 0.27677 0.62227 0.2802 0.0
H1000 H 0.43506 0.06262 0.14223 0.0
H1001 H 0.41225 0.20556 0.14609 0.0
H1002 H 0.46448 0.22294 0.15916 0.0
H1003 H 0.49513 0.06235 0.19183 0.0
H1004 H 0.5187 0.02357 0.17528 0.0
H1005 H 0.47776 0.02037 0.17297 0.0
H1006 H 0.48183 0.02855 0.12745 0.0
H1007 H 0.52254 0.03189 0.12962 0.0
H1008 H 0.50167 0.0767 0.11516 0.0
H1009 H 0.51974 0.22743 0.16258 0.0
H1010 H 0.57479 0.21885 0.1553 0.0
H1011 H 0.56344 0.07317 0.14932 0.0
C1012 C 0.44084 0.09723 0.14686 0.0
C1013 C 0.41978 0.13275 0.14341 0.0
C1014 C 0.42819 0.17793 0.14872 0.0
C1015 C 0.45769 0.18805 0.15636 0.0
C1016 C 0.47846 0.15257 0.15862 0.0
C1017 C 0.47043 0.10795 0.15417 0.0
C1018 C 0.49821 0.0774 0.15391 0.0
C1019 C 0.4974 0.04395 0.17475 0.0
C1020 C 0.50123 0.05221 0.13012 0.0
C1021 C 0.52319 0.1123 0.15714 0.0
C1022 C 0.51121 0.15525 0.16055 0.0
C1023 C 0.52949 0.19389 0.16066 0.0
C1024 C 0.56067 0.18875 0.15638 0.0
C1025 C 0.57319 0.14532 0.15204 0.0
C1026 C 0.55444 0.10653 0.15333 0.0
H1027 H 0.05932 0.80859 0.64468 0.0
H1028 H 0.07494 0.94869 0.66472 0.0
H1029 H 0.02291 0.95302 0.68083 0.0
H1030 H 0.99366 0.82265 0.62078 0.0
H1031 H 0.97533 0.77097 0.63024 0.0
H1032 H 0.01596 0.77328 0.62832 0.0
H1033 H 0.02044 0.74928 0.67226 0.0
H1034 H 0.97946 0.7466 0.6743 0.0
H1035 H 0.00072 0.78124 0.69474 0.0
H1036 H 0.96687 0.94983 0.68321 0.0
H1037 H 0.91318 0.93905 0.67195 0.0
H1038 H 0.9332 0.80035 0.65141 0.0
C1039 C 0.0522 0.83956 0.65338 0.0
C1040 C 0.07105 0.87832 0.65329 0.0
C1041 C 0.06094 0.91843 0.66465 0.0
C1042 C 0.0314 0.92113 0.67398 0.0
C1043 C 0.01254 0.88318 0.67228 0.0
C1044 C 0.02282 0.84271 0.66272 0.0
C1045 C -0.00306 0.8096 0.65898 0.0
C1046 C -0.00461 0.79327 0.63305 0.0
C1047 C -0.00045 0.7693 0.6761 0.0
C1048 C 0.97018 0.83951 0.66537 0.0
C1049 C 0.97962 0.8812 0.67391 0.0
C1050 C 0.95913 0.91685 0.67731 0.0
C1051 C 0.92862 0.91046 0.67076 0.0
C1052 C 0.91903 0.86891 0.66062 0.0
C1053 C 0.93978 0.83239 0.65926 0.0
H1054 H 0.55925 0.82227 0.86932 0.0
H1055 H 0.57422 0.94941 0.83233 0.0
H1056 H 0.52116 0.94748 0.81798 0.0
H1057 H 0.50045 0.77281 0.82666 0.0
H1058 H 0.4795 0.74909 0.85114 0.0
H1059 H 0.52044 0.75354 0.85263 0.0
H1060 H 0.51567 0.7987 0.8918 0.0
H1061 H 0.47498 0.79471 0.89037 0.0
H1062 H 0.49289 0.84963 0.89244 0.0
H1063 H 0.46471 0.94081 0.81529 0.0
H1064 H 0.41044 0.93118 0.82521 0.0
H1065 H 0.4323 0.80891 0.86452 0.0
C1066 C 0.55177 0.84897 0.85752 0.0
C1067 C 0.57087 0.88605 0.85202 0.0
C1068 C 0.56006 0.92051 0.83672 0.0
C1069 C 0.52996 0.91957 0.82837 0.0
C1070 C 0.51121 0.88365 0.83521 0.0
C1071 C 0.52188 0.84863 0.84923 0.0
C1072 C 0.49634 0.81794 0.85736 0.0
C1073 C 0.49937 0.77054 0.84627 0.0
C1074 C 0.4949 0.81516 0.88458 0.0
C1075 C 0.46933 0.84311 0.84729 0.0
C1076 C 0.47835 0.88005 0.83391 0.0
C1077 C 0.45736 0.91136 0.8252 0.0
C1078 C 0.42654 0.90566 0.83101 0.0
C1079 C 0.41713 0.86934 0.84575 0.0
C1080 C 0.43873 0.83681 0.85309 0.0
H1081 H 0.93331 0.03337 0.35003 0.0
H1082 H 0.91279 0.17545 0.33904 0.0
H1083 H 0.96385 0.18713 0.32194 0.0
H1084 H -0.00086 0.04953 0.37402 0.0
H1085 H 0.01942 0.00145 0.36209 0.0
H1086 H 0.97879 -0.00034 0.36439 0.0
H1087 H 0.97468 0.98265 0.31955 0.0
H1088 H 0.01565 0.98436 0.31713 0.0
H1089 H 0.99255 0.02015 0.29852 0.0
H1090 H 0.01877 0.18912 0.31753 0.0
H1091 H 0.07282 0.18252 0.3285 0.0
H1092 H 0.0603 0.03947 0.34301 0.0
C1093 C 0.93915 0.06623 0.34274 0.0
C1094 C 0.91921 0.10337 0.34539 0.0
C1095 C 0.92779 0.14654 0.33683 0.0
C1096 C 0.95666 0.15332 0.32693 0.0
C1097 C 0.97672 0.11663 0.32585 0.0
C1098 C 0.96827 0.07368 0.33338 0.0
C1099 C -0.00428 0.04268 0.33541 0.0
C1100 C -0.00158 0.02223 0.36046 0.0
C1101 C 0.99458 0.00525 0.31652 0.0
C1102 C 0.02112 0.07607 0.33025 0.0
C1103 C 0.00957 0.11798 0.32369 0.0
C1104 C 0.02816 0.15619 0.32185 0.0
C1105 C 0.05885 0.15221 0.32819 0.0
C1106 C 0.0706 0.11037 0.33635 0.0
C1107 C 0.05197 0.07139 0.33607 0.0
H1108 H 0.93037 0.69366 0.13937 0.0
H1109 H 0.90973 0.56087 0.16844 0.0
H1110 H 0.9634 0.55224 0.18033 0.0
H1111 H 0.99112 0.66375 0.11091 0.0
H1112 H 0.01356 0.71431 0.11531 0.0
H1113 H 0.97289 0.7175 0.1167 0.0
H1114 H 0.97593 0.75205 0.15878 0.0
H1115 H 0.01695 0.74935 0.15744 0.0
H1116 H -0.00313 0.72287 0.18159 0.0
H1117 H 0.01958 0.54924 0.17953 0.0
H1118 H 0.07247 0.55099 0.16506 0.0
H1119 H 0.05698 0.68489 0.13552 0.0
C1120 C 0.93683 0.6635 0.14909 0.0
C1121 C 0.91591 0.62787 0.15285 0.0
C1122 C 0.92535 0.58871 0.16537 0.0
C1123 C 0.95579 0.58365 0.17236 0.0
C1124 C 0.97633 0.61828 0.16698 0.0
C1125 C 0.9671 0.65782 0.15588 0.0
C1126 C 0.994 0.68602 0.14795 0.0
C1127 C 0.99281 0.69588 0.12115 0.0
C1128 C -0.00394 0.73019 0.16231 0.0
C1129 C 0.01971 0.65416 0.15419 0.0
C1130 C 0.00924 0.61617 0.16607 0.0
C1131 C 0.0282 0.57935 0.17086 0.0
C1132 C 0.05822 0.58059 0.16247 0.0
C1133 C 0.0687 0.61801 0.14901 0.0
C1134 C 0.04958 0.65596 0.14583 0.0
H1135 H 0.56011 0.40987 0.65134 0.0
H1136 H 0.57357 0.26504 0.64307 0.0
H1137 H 0.5187 0.25224 0.64958 0.0
H1138 H 0.49225 0.40366 0.6944 0.0
H1139 H 0.47417 0.45101 0.67989 0.0
H1140 H 0.51516 0.44811 0.68159 0.0
H1141 H 0.51845 0.45593 0.63603 0.0
H1142 H 0.47768 0.45847 0.63415 0.0
H1143 H 0.49825 0.41605 0.61762 0.0
H1144 H 0.46327 0.25587 0.64774 0.0
H1145 H 0.41042 0.27563 0.63735 0.0
H1146 H 0.43117 0.4184 0.64639 0.0
C1147 C 0.55159 0.3754 0.65204 0.0
C1148 C 0.57089 0.33833 0.64705 0.0
C1149 C 0.55901 0.29375 0.64706 0.0
C1150 C 0.52796 0.28619 0.6509 0.0
C1151 C 0.50914 0.32359 0.65468 0.0
C1152 C 0.52046 0.3674 0.65546 0.0
C1153 C 0.49488 0.40199 0.65567 0.0
C1154 C 0.49407 0.4277 0.6793 0.0
C1155 C 0.49748 0.435 0.63461 0.0
C1156 C 0.46758 0.37092 0.65322 0.0
C1157 C 0.47633 0.32579 0.65337 0.0
C1158 C 0.45595 0.29093 0.64828 0.0
C1159 C 0.42607 0.30247 0.64225 0.0
C1160 C 0.41688 0.34845 0.64133 0.0
C1161 C 0.43756 0.38298 0.64765 0.0
H1162 H 0.05197 0.30358 0.85396 0.0
H1163 H 0.07227 0.43518 0.82342 0.0
H1164 H 0.01868 0.44293 0.81131 0.0
H1165 H 0.98432 0.27296 0.81221 0.0
H1166 H 0.96469 0.24749 0.83688 0.0
H1167 H 0.00567 0.24423 0.83496 0.0
H1168 H 0.00987 0.27991 0.87669 0.0
H1169 H 0.96929 0.28377 0.87865 0.0
H1170 H 0.99216 0.33412 0.8823 0.0
H1171 H 0.96252 0.44685 0.81313 0.0
H1172 H 0.91028 0.44686 0.82905 0.0
H1173 H 0.92571 0.31357 0.85927 0.0
C1174 C 0.04549 0.33312 0.84375 0.0
C1175 C 0.0663 0.36885 0.8398 0.0
C1176 C 0.05681 0.40722 0.82664 0.0
C1177 C 0.02634 0.41183 0.81956 0.0
C1178 C 0.00578 0.37752 0.82546 0.0
C1179 C 0.01513 0.33839 0.83691 0.0
C1180 C 0.98822 0.3108 0.84549 0.0
C1181 C 0.98557 0.26623 0.83154 0.0
C1182 C 0.99001 0.30172 0.87235 0.0
C1183 C 0.96248 0.34277 0.83935 0.0
C1184 C 0.97284 0.38012 0.82688 0.0
C1185 C 0.95396 0.41717 0.82223 0.0
C1186 C 0.92428 0.41693 0.83143 0.0
C1187 C 0.91402 0.38027 0.84553 0.0
C1188 C 0.9329 0.34192 0.84844 0.0
H1189 H 0.42972 0.55711 0.34899 0.0
H1190 H 0.41697 0.70286 0.34667 0.0
H1191 H 0.47156 0.71306 0.33801 0.0
H1192 H 0.49149 0.55905 0.38167 0.0
H1193 H 0.51179 0.51247 0.36826 0.0
H1194 H 0.47106 0.51482 0.36635 0.0
H1195 H 0.47405 0.5106 0.32066 0.0
H1196 H 0.51505 0.50779 0.32242 0.0
H1197 H 0.49705 0.55101 0.3047 0.0
H1198 H 0.52691 0.70944 0.34003 0.0
H1199 H 0.57935 0.6923 0.35268 0.0
H1200 H 0.55798 0.54874 0.35398 0.0
C1201 C 0.43826 0.59092 0.34544 0.0
C1202 C 0.41929 0.6292 0.34818 0.0
C1203 C 0.43124 0.67316 0.34445 0.0
C1204 C 0.46216 0.6792 0.33936 0.0
C1205 C 0.48075 0.64093 0.33804 0.0
C1206 C 0.46925 0.59749 0.34074 0.0
C1207 C 0.49467 0.56293 0.34295 0.0
C1208 C 0.49209 0.53579 0.36619 0.0
C1209 C 0.49524 0.53121 0.32139 0.0
C1210 C 0.5221 0.59409 0.34303 0.0
C1211 C 0.51358 0.6388 0.3394 0.0
C1212 C 0.53406 0.67451 0.34213 0.0
C1213 C 0.56371 0.66452 0.34947 0.0
C1214 C 0.57257 0.61921 0.35403 0.0
C1215 C 0.55189 0.58349 0.3499 0.0
H1216 H 0.27971 0.94377 0.12829 0.0
H1217 H 0.20334 0.02749 0.10646 0.0
H1218 H 0.1692 0.96049 0.10977 0.0
H1219 H 0.25984 0.84494 0.0978 0.0
H1220 H 0.27306 0.80775 0.12093 0.0
H1221 H 0.29002 0.8628 0.1173 0.0
H1222 H 0.2774 0.88145 0.16113 0.0
H1223 H 0.25979 0.82664 0.16471 0.0
H1224 H 0.23857 0.87747 0.17133 0.0
H1225 H 0.14478 0.88159 0.11318 0.0
H1226 H 0.13329 0.79935 0.11427 0.0
H1227 H 0.22614 0.77218 0.13656 0.0
C1228 C 0.25586 0.94827 0.12398 0.0
C1229 C 0.24421 0.99064 0.11677 0.0
C1230 C 0.21272 -0.00491 0.11183 0.0
C1231 C 0.1932 0.9574 0.11383 0.0
C1232 C 0.20558 0.91614 0.12129 0.0
C1233 C 0.23622 0.91169 0.12632 0.0
C1234 C 0.24451 0.86403 0.13343 0.0
C1235 C 0.26823 0.8437 0.11634 0.0
C1236 C 0.25572 0.86233 0.15918 0.0
C1237 C 0.21391 0.84156 0.13086 0.0
C1238 C 0.19154 0.87195 0.12408 0.0
C1239 C 0.16202 0.85767 0.11882 0.0
C1240 C 0.15567 0.81094 0.11962 0.0
C1241 C 0.17888 0.7794 0.12547 0.0
C1242 C 0.20787 0.79537 0.1321 0.0
H1243 H 0.20692 0.04035 0.58361 0.0
H1244 H 0.28213 0.95504 0.60605 0.0
H1245 H 0.31396 0.0232 0.61177 0.0
H1246 H 0.25445 0.13495 0.55624 0.0
H1247 H 0.22791 0.17666 0.56714 0.0
H1248 H 0.21455 0.1212 0.55859 0.0
H1249 H 0.18998 0.11208 0.60004 0.0
H1250 H 0.20421 0.16647 0.60912 0.0
H1251 H 0.21357 0.11652 0.62603 0.0
H1252 H 0.3344 0.10161 0.62161 0.0
H1253 H 0.34258 0.18303 0.63118 0.0
H1254 H 0.25171 0.21365 0.60559 0.0
C1255 C 0.23048 0.03579 0.58877 0.0
C1256 C 0.242 0.9925 0.59447 0.0
C1257 C 0.27288 0.98792 0.60137 0.0
C1258 C 0.29111 0.02649 0.6048 0.0
C1259 C 0.27814 0.06903 0.60093 0.0
C1260 C 0.2487 0.07375 0.59251 0.0
C1261 C 0.23857 0.12271 0.59253 0.0
C1262 C 0.23359 0.13989 0.56712 0.0
C1263 C 0.20991 0.1298 0.60785 0.0
C1264 C 0.26616 0.14445 0.60359 0.0
C1265 C 0.28912 0.11343 0.60778 0.0
C1266 C 0.31663 0.12624 0.61822 0.0
C1267 C 0.32095 0.17224 0.62387 0.0
C1268 C 0.29747 0.20418 0.6197 0.0
C1269 C 0.26975 0.18978 0.60965 0.0
H1270 H 0.22984 0.20958 0.87024 0.0
H1271 H 0.13286 0.18352 0.86332 0.0
H1272 H 0.14304 0.10076 0.86545 0.0
H1273 H 0.25792 0.11199 0.83804 0.0
H1274 H 0.28936 0.1049 0.8582 0.0
H1275 H 0.27386 0.16056 0.85297 0.0
H1276 H 0.26539 0.17008 0.89815 0.0
H1277 H 0.28 0.11397 0.90347 0.0
H1278 H 0.24252 0.12913 0.91384 0.0
H1279 H 0.16528 0.01955 0.86997 0.0
H1280 H 0.19696 0.95037 0.87506 0.0
H1281 H 0.27707 0.03548 0.88318 0.0
C1282 C 0.2106 0.18678 0.86861 0.0
C1283 C 0.18055 0.20315 0.86646 0.0
C1284 C 0.15616 0.17174 0.86477 0.0
C1285 C 0.16171 0.12473 0.8661 0.0
C1286 C 0.19165 0.11004 0.86936 0.0
C1287 C 0.21559 0.14043 0.87048 0.0
C1288 C 0.24545 0.11732 0.87555 0.0
C1289 C 0.26796 0.12408 0.85496 0.0
C1290 C 0.25911 0.1336 0.89915 0.0
C1291 C 0.23477 0.0689 0.87716 0.0
C1292 C 0.20381 0.06484 0.87334 0.0
C1293 C 0.18952 0.0225 0.8731 0.0
C1294 C 0.20762 0.98344 0.87617 0.0
C1295 C 0.23949 0.98737 0.87973 0.0
C1296 C 0.25279 0.0309 0.88081 0.0
H1297 H 0.25239 0.77473 0.38313 0.0
H1298 H 0.34275 0.80678 0.35679 0.0
H1299 H 0.33463 0.88764 0.36749 0.0
H1300 H 0.21437 0.8716 0.36357 0.0
H1301 H 0.19064 0.87569 0.38953 0.0
H1302 H 0.20505 0.82143 0.38035 0.0
H1303 H 0.22876 0.81041 0.42206 0.0
H1304 H 0.21509 0.86546 0.43107 0.0
H1305 H 0.25506 0.85208 0.43331 0.0
H1306 H 0.31449 0.96551 0.37865 0.0
H1307 H 0.28259 0.03349 0.38491 0.0
H1308 H 0.20735 0.94755 0.40656 0.0
C1309 C 0.2704 0.79874 0.37922 0.0
C1310 C 0.29796 0.7848 0.36864 0.0
C1311 C 0.32127 0.81707 0.36456 0.0
C1312 C 0.317 0.8628 0.37087 0.0
C1313 C 0.28968 0.8751 0.3818 0.0
C1314 C 0.26683 0.84384 0.3859 0.0
C1315 C 0.23919 0.86532 0.39713 0.0
C1316 C 0.21065 0.85811 0.38172 0.0
C1317 C 0.23425 0.84724 0.42238 0.0
C1318 C 0.2492 0.91433 0.39741 0.0
C1319 C 0.27866 0.91931 0.38904 0.0
C1320 C 0.29163 0.962 0.38559 0.0
C1321 C 0.2734 0.00047 0.38938 0.0
C1322 C 0.24249 -0.00432 0.39619 0.0
C1323 C 0.23097 0.9522 0.40153 0.0
H1324 H 0.76411 0.22749 0.9105 0.0
H1325 H 0.85138 0.20633 0.87608 0.0
H1326 H 0.8423 0.12307 0.87676 0.0
H1327 H 0.76642 0.12636 0.94833 0.0
H1328 H 0.72598 0.11743 0.94528 0.0
H1329 H 0.7413 0.17415 0.94427 0.0
H1330 H 0.71577 0.18721 0.90342 0.0
H1331 H 0.70019 0.13092 0.90445 0.0
H1332 H 0.72332 0.148 0.87964 0.0
H1333 H 0.82037 0.04309 0.87772 0.0
H1334 H 0.78705 0.9753 0.87695 0.0
H1335 H 0.71555 0.05204 0.91171 0.0
C1336 C 0.78146 0.20551 0.9031 0.0
C1337 C 0.80823 0.22314 0.89291 0.0
C1338 C 0.8306 0.19323 0.88384 0.0
C1339 C 0.82573 0.14608 0.88433 0.0
C1340 C 0.79878 0.12993 0.89442 0.0
C1341 C 0.77717 0.15897 0.90374 0.0
C1342 C 0.74917 0.13425 0.91213 0.0
C1343 C 0.74553 0.13829 0.9391 0.0
C1344 C 0.72045 0.15108 0.89912 0.0
C1345 C 0.75758 0.08669 0.90499 0.0
C1346 C 0.78648 0.08443 0.89526 0.0
C1347 C 0.79795 0.04432 0.88568 0.0
C1348 C 0.77893 0.00604 0.88536 0.0
C1349 C 0.7488 0.00879 0.89423 0.0
C1350 C 0.73853 0.04911 0.90485 0.0
H1351 H 0.78864 0.92807 0.41197 0.0
H1352 H 0.71016 0.01421 0.39979 0.0
H1353 H 0.67809 0.94612 0.39386 0.0
H1354 H 0.77639 0.857 0.36766 0.0
H1355 H 0.78839 0.80531 0.38195 0.0
H1356 H 0.80357 0.85883 0.39155 0.0
H1357 H 0.78514 0.84443 0.4345 0.0
H1358 H 0.77111 0.7897 0.42535 0.0
H1359 H 0.74593 0.82928 0.43979 0.0
H1360 H 0.65712 0.86878 0.38253 0.0
H1361 H 0.64766 0.78829 0.37206 0.0
H1362 H 0.74175 0.75641 0.38902 0.0
C1363 C 0.76441 0.93248 0.40912 0.0
C1364 C 0.75174 0.97603 0.40639 0.0
C1365 C 0.7201 0.9809 0.40232 0.0
C1366 C 0.70181 0.94247 0.3987 0.0
C1367 C 0.71562 0.89988 0.39961 0.0
C1368 C 0.74608 0.89473 0.40536 0.0
C1369 C 0.75643 0.84618 0.40284 0.0
C1370 C 0.78273 0.84162 0.38493 0.0
C1371 C 0.76515 0.82622 0.42706 0.0
C1372 C 0.72757 0.82518 0.39353 0.0
C1373 C 0.70404 0.85621 0.39217 0.0
C1374 C 0.6753 0.84409 0.38379 0.0
C1375 C 0.67025 0.79855 0.37759 0.0
C1376 C 0.69406 0.76624 0.37942 0.0
C1377 C 0.72316 0.78028 0.38697 0.0
H1378 H 0.71128 0.96917 0.13866 0.0
H1379 H 0.79325 0.04743 0.12545 0.0
H1380 H 0.82459 0.97919 0.13421 0.0
H1381 H 0.7416 0.90431 0.18779 0.0
H1382 H 0.72079 0.85396 0.17962 0.0
H1383 H 0.70543 0.90921 0.17292 0.0
H1384 H 0.70141 0.88793 0.12841 0.0
H1385 H 0.71583 0.8324 0.13517 0.0
H1386 H 0.73468 0.86682 0.11325 0.0
H1387 H 0.84584 0.8995 0.14086 0.0
H1388 H 0.85462 0.81674 0.14252 0.0
H1389 H 0.75818 0.79564 0.15566 0.0
C1390 C 0.73583 0.97202 0.13733 0.0
C1391 C 0.74992 0.01315 0.13091 0.0
C1392 C 0.7821 0.01584 0.13006 0.0
C1393 C 0.8 0.9775 0.13523 0.0
C1394 C 0.78521 0.93752 0.14186 0.0
C1395 C 0.75382 0.93484 0.14301 0.0
C1396 C 0.74306 0.88816 0.14992 0.0
C1397 C 0.72676 0.88899 0.174 0.0
C1398 C 0.72257 0.86763 0.13053 0.0
C1399 C 0.77327 0.86408 0.15154 0.0
C1400 C 0.79744 0.89295 0.14706 0.0
C1401 C 0.82716 0.87678 0.14486 0.0
C1402 C 0.83195 0.82969 0.14595 0.0
C1403 C 0.80704 0.79962 0.14914 0.0
C1404 C 0.77778 0.81755 0.1534 0.0
H1405 H 0.7362 0.19527 0.61029 0.0
H1406 H 0.64693 0.16824 0.64 0.0
H1407 H 0.65366 0.08614 0.63146 0.0
H1408 H 0.73064 0.1115 0.56253 0.0
H1409 H 0.77059 0.09772 0.56425 0.0
H1410 H 0.75767 0.15405 0.57166 0.0
H1411 H 0.78317 0.14773 0.61298 0.0
H1412 H 0.79664 0.09205 0.60541 0.0
H1413 H 0.77408 0.10011 0.63173 0.0
H1414 H 0.6729 0.00653 0.62292 0.0
H1415 H 0.70394 0.93723 0.61811 0.0
H1416 H 0.77844 0.01878 0.59088 0.0
C1417 C 0.71816 0.17204 0.61525 0.0
C1418 C 0.69134 0.18768 0.6263 0.0
C1419 C 0.66783 0.15657 0.63183 0.0
C1420 C 0.67134 0.11013 0.6268 0.0
C1421 C 0.69805 0.09591 0.6156 0.0
C1422 C 0.72095 0.12614 0.60982 0.0
C1423 C 0.7479 0.10262 0.59867 0.0
C1424 C 0.75192 0.11735 0.57274 0.0
C1425 C 0.77715 0.1111 0.61307 0.0
C1426 C 0.73747 0.05387 0.60035 0.0
C1427 C 0.70843 0.05057 0.60972 0.0
C1428 C 0.6954 0.00867 0.61517 0.0
C1429 C 0.71316 0.9694 0.61223 0.0
C1430 C 0.74367 0.97258 0.60416 0.0
C1431 C 0.75515 0.01514 0.59693 0.0
H1432 H 0.73485 0.2982 0.12081 0.0
H1433 H 0.65023 0.32252 0.15837 0.0
H1434 H 0.65521 0.40511 0.15018 0.0
H1435 H 0.77517 0.39554 0.13862 0.0
H1436 H 0.79295 0.40332 0.11015 0.0
H1437 H 0.78179 0.34749 0.11953 0.0
H1438 H 0.74983 0.33881 0.08121 0.0
H1439 H 0.76016 0.39531 0.07203 0.0
H1440 H 0.72057 0.37981 0.07463 0.0
H1441 H 0.672 0.48532 0.13965 0.0
H1442 H 0.70025 0.55548 0.13026 0.0
H1443 H 0.77071 0.47516 0.0962 0.0
C1444 C 0.71764 0.32094 0.12779 0.0
C1445 C 0.6926 0.30444 0.14082 0.0
C1446 C 0.6699 0.33493 0.14877 0.0
C1447 C 0.67238 0.38161 0.14395 0.0
C1448 C 0.69717 0.39657 0.13056 0.0
C1449 C 0.71929 0.36694 0.12256 0.0
C1450 C 0.7437 0.39087 0.10854 0.0
C1451 C 0.77525 0.38392 0.1199 0.0
C1452 C 0.74354 0.37527 0.08257 0.0
C1453 C 0.7328 0.43925 0.11088 0.0
C1454 C 0.70573 0.44197 0.12334 0.0
C1455 C 0.69294 0.48359 0.12956 0.0
C1456 C 0.7091 0.52331 0.12403 0.0
C1457 C 0.73779 0.52089 0.11254 0.0
C1458 C 0.74877 0.47837 0.10482 0.0
H1459 H 0.70959 0.52742 0.64496 0.0
H1460 H 0.79012 0.44544 0.63235 0.0
H1461 H 0.82258 0.51319 0.63907 0.0
H1462 H 0.73346 0.62441 0.61565 0.0
H1463 H 0.71611 0.66311 0.63636 0.0
H1464 H 0.70046 0.60731 0.63244 0.0
H1465 H 0.70592 0.5927 0.67752 0.0
H1466 H 0.72218 0.64837 0.68147 0.0
H1467 H 0.74267 0.59887 0.69138 0.0
H1468 H 0.84531 0.59253 0.64309 0.0
H1469 H 0.85569 0.67495 0.64198 0.0
H1470 H 0.75978 0.70179 0.65454 0.0
C1471 C 0.73407 0.5235 0.64361 0.0
C1472 C 0.74735 0.48132 0.63785 0.0
C1473 C 0.77949 0.47758 0.63663 0.0
C1474 C 0.79806 0.51575 0.64059 0.0
C1475 C 0.78408 0.55692 0.64624 0.0
C1476 C 0.75277 0.56074 0.64787 0.0
C1477 C 0.74294 0.60884 0.65292 0.0
C1478 C 0.72204 0.62696 0.63317 0.0
C1479 C 0.72752 0.61238 0.67727 0.0
C1480 C 0.77353 0.63218 0.65287 0.0
C1481 C 0.79712 0.6018 0.64933 0.0
C1482 C 0.82708 0.61649 0.64631 0.0
C1483 C 0.83279 0.66343 0.64582 0.0
C1484 C 0.80854 0.69496 0.64816 0.0
C1485 C 0.7789 0.67876 0.65288 0.0
H1486 H 0.73178 0.73112 0.88326 0.0
H1487 H 0.6346 0.70436 0.87939 0.0
H1488 H 0.64499 0.62212 0.88539 0.0
H1489 H 0.75953 0.63226 0.8551 0.0
H1490 H 0.79146 0.6278 0.875 0.0
H1491 H 0.77529 0.68248 0.86859 0.0
H1492 H 0.76757 0.69595 0.91363 0.0
H1493 H 0.7829 0.64066 0.92012 0.0
H1494 H 0.7455 0.65596 0.9306 0.0
H1495 H 0.66806 0.54155 0.89173 0.0
H1496 H 0.70083 0.47316 0.8956 0.0
H1497 H 0.78062 0.55963 0.89957 0.0
C1498 C 0.71246 0.70826 0.88311 0.0
C1499 C 0.68236 0.72418 0.88045 0.0
C1500 C 0.65791 0.69277 0.88107 0.0
C1501 C 0.66359 0.64618 0.88469 0.0
C1502 C 0.69369 0.6322 0.88817 0.0
C1503 C 0.71756 0.66269 0.88743 0.0
C1504 C 0.74775 0.64075 0.8926 0.0
C1505 C 0.76978 0.64612 0.87157 0.0
C1506 C 0.76173 0.65944 0.9156 0.0
C1507 C 0.73754 0.59246 0.89561 0.0
C1508 C 0.70635 0.58769 0.89315 0.0
C1509 C 0.69244 0.54509 0.89392 0.0
C1510 C 0.71114 0.50652 0.89632 0.0
C1511 C 0.74321 0.5113 0.89783 0.0
C1512 C 0.75618 0.55491 0.89841 0.0
H1513 H 0.70672 0.42314 0.37982 0.0
H1514 H 0.786 0.50914 0.3898 0.0
H1515 H 0.81949 0.44196 0.38544 0.0
H1516 H 0.73386 0.32736 0.41143 0.0
H1517 H 0.71657 0.28736 0.3914 0.0
H1518 H 0.69988 0.34257 0.39538 0.0
H1519 H 0.70316 0.356 0.35005 0.0
H1520 H 0.7206 0.30118 0.34605 0.0
H1521 H 0.73949 0.35148 0.33535 0.0
H1522 H 0.84377 0.3637 0.38172 0.0
H1523 H 0.85614 0.28179 0.38132 0.0
H1524 H 0.76034 0.25078 0.37073 0.0
C1525 C 0.7311 0.428 0.38135 0.0
C1526 C 0.74376 0.47127 0.38535 0.0
C1527 C 0.77584 0.47614 0.38685 0.0
C1528 C 0.79501 0.4383 0.38423 0.0
C1529 C 0.78168 0.39622 0.37978 0.0
C1530 C 0.75044 0.39104 0.3784 0.0
C1531 C 0.74149 0.34245 0.37384 0.0
C1532 C 0.72181 0.32385 0.39423 0.0
C1533 C 0.72523 0.33752 0.3499 0.0
C1534 C 0.77258 0.3207 0.37334 0.0
C1535 C 0.79558 0.35205 0.3767 0.0
C1536 C 0.82598 0.33891 0.37878 0.0
C1537 C 0.8328 0.29232 0.3784 0.0
C1538 C 0.80924 0.25973 0.37596 0.0
C1539 C 0.77902 0.27458 0.37239 0.0
H1540 H 0.25653 0.70461 0.85092 0.0
H1541 H 0.35074 0.68171 0.87096 0.0
H1542 H 0.33878 0.60091 0.8788 0.0
H1543 H 0.22692 0.64631 0.89742 0.0
H1544 H 0.1943 0.62425 0.88183 0.0
H1545 H 0.21137 0.67676 0.87254 0.0
H1546 H 0.21962 0.64532 0.83013 0.0
H1547 H 0.2014 0.59324 0.83897 0.0
H1548 H 0.23901 0.5919 0.82617 0.0
H1549 H 0.31393 0.5229 0.88806 0.0
H1550 H 0.27969 0.45739 0.89601 0.0
H1551 H 0.20219 0.53923 0.87469 0.0
C1552 C 0.27506 0.68253 0.85618 0.0
C1553 C 0.30461 0.69965 0.86024 0.0
C1554 C 0.32796 0.66935 0.86743 0.0
C1555 C 0.3213 0.62345 0.87214 0.0
C1556 C 0.29124 0.60871 0.86965 0.0
C1557 C 0.26865 0.63754 0.86162 0.0
C1558 C 0.23757 0.61599 0.86289 0.0
C1559 C 0.21632 0.6424 0.87967 0.0
C1560 C 0.22359 0.61132 0.83806 0.0
C1561 C 0.24597 0.57048 0.87308 0.0
C1562 C 0.27697 0.5662 0.87659 0.0
C1563 C 0.28961 0.52608 0.8854 0.0
C1564 C 0.27002 0.48923 0.89006 0.0
C1565 C 0.23819 0.49338 0.88642 0.0
C1566 C 0.22627 0.53497 0.87824 0.0
H1567 H 0.28203 0.44373 0.36737 0.0
H1568 H 0.20135 0.52809 0.37357 0.0
H1569 H 0.16888 0.46018 0.36736 0.0
H1570 H 0.25309 0.37132 0.32106 0.0
H1571 H 0.27189 0.32158 0.33254 0.0
H1572 H 0.28834 0.3769 0.33715 0.0
H1573 H 0.28881 0.36359 0.38255 0.0
H1574 H 0.27307 0.30797 0.378 0.0
H1575 H 0.254 0.34756 0.39728 0.0
H1576 H 0.14576 0.38098 0.36301 0.0
H1577 H 0.13445 0.29874 0.3628 0.0
H1578 H 0.23115 0.27003 0.35622 0.0
C1579 C 0.25752 0.44807 0.36766 0.0
C1580 C 0.24415 0.49102 0.37127 0.0
C1581 C 0.212 0.4953 0.371 0.0
C1582 C 0.19344 0.45705 0.36732 0.0
C1583 C 0.20751 0.41522 0.36347 0.0
C1584 C 0.23885 0.41075 0.36356 0.0
C1585 C 0.24866 0.36236 0.35944 0.0
C1586 C 0.26655 0.3578 0.33616 0.0
C1587 C 0.2672 0.34432 0.38057 0.0
C1588 C 0.21792 0.33975 0.35773 0.0
C1589 C 0.19436 0.3706 0.35993 0.0
C1590 C 0.16403 0.35662 0.36091 0.0
C1591 C 0.15781 0.30982 0.36066 0.0
C1592 C 0.18189 0.27778 0.35947 0.0
C1593 C 0.21211 0.29338 0.35691 0.0
H1594 H 0.20174 0.44397 0.11773 0.0
H1595 H 0.28168 0.52608 0.10315 0.0
H1596 H 0.31468 0.45989 0.1122 0.0
H1597 H 0.23358 0.38443 0.16721 0.0
H1598 H 0.21432 0.33212 0.16016 0.0
H1599 H 0.19736 0.38568 0.15221 0.0
H1600 H 0.19421 0.36074 0.10821 0.0
H1601 H 0.21017 0.30671 0.1162 0.0
H1602 H 0.2281 0.34052 0.09357 0.0
H1603 H 0.33811 0.38248 0.12078 0.0
H1604 H 0.34951 0.30081 0.1255 0.0
H1605 H 0.25357 0.27433 0.13813 0.0
C1606 C 0.22617 0.44808 0.11603 0.0
C1607 C 0.23919 0.48988 0.10934 0.0
C1608 C 0.27129 0.49405 0.10798 0.0
C1609 C 0.29015 0.45687 0.11331 0.0
C1610 C 0.27642 0.41641 0.12047 0.0
C1611 C 0.24514 0.41202 0.12181 0.0
C1612 C 0.23569 0.36527 0.12974 0.0
C1613 C 0.21927 0.36701 0.15376 0.0
C1614 C 0.2159 0.34194 0.1108 0.0
C1615 C 0.26655 0.34322 0.13192 0.0
C1616 C 0.28986 0.37316 0.12669 0.0
C1617 C 0.32009 0.35894 0.12529 0.0
C1618 C 0.32636 0.31253 0.12811 0.0
C1619 C 0.30244 0.28118 0.13229 0.0
C1620 C 0.27248 0.29735 0.13541 0.0
H1621 H 0.22731 0.71853 0.63499 0.0
H1622 H 0.13194 0.68891 0.62172 0.0
H1623 H 0.14366 0.60669 0.62237 0.0
H1624 H 0.25489 0.64188 0.59559 0.0
H1625 H 0.28814 0.62631 0.61243 0.0
H1626 H 0.27152 0.68161 0.61611 0.0
H1627 H 0.26538 0.668 0.66118 0.0
H1628 H 0.28282 0.61302 0.6578 0.0
H1629 H 0.24586 0.61791 0.67148 0.0
H1630 H 0.16773 0.52768 0.61965 0.0
H1631 H 0.20123 0.46035 0.61546 0.0
H1632 H 0.28035 0.54572 0.6273 0.0
C1633 C 0.20857 0.69495 0.63292 0.0
C1634 C 0.17868 0.71024 0.62831 0.0
C1635 C 0.15499 0.67801 0.62549 0.0
C1636 C 0.16147 0.63126 0.62572 0.0
C1637 C 0.19166 0.61759 0.62882 0.0
C1638 C 0.21471 0.64869 0.63263 0.0
C1639 C 0.24568 0.6265 0.63293 0.0
C1640 C 0.26624 0.64519 0.61308 0.0
C1641 C 0.26081 0.63165 0.6573 0.0
C1642 C 0.23667 0.57803 0.62821 0.0
C1643 C 0.20546 0.57315 0.6262 0.0
C1644 C 0.19217 0.53115 0.62137 0.0
C1645 C 0.21135 0.49322 0.61888 0.0
C1646 C 0.2434 0.49792 0.6208 0.0
C1647 C 0.25599 0.541 0.62541 0.0
loop_
_geom_bond_atom_site_label_1
_geom_bond_atom_site_label_2
_geom_bond_distance
_geom_bond_site_symmetry_2
_ccdc_geom_bond_type
Sc0 O3 2.025 . S
Sc0 O10 2.105 . S
Sc0 O13 2.105 . S
Sc0 O16 2.105 . S
Sc0 O19 2.105 . S
Sc1 O3 2.025 . S
Sc1 O11 2.105 . S
Sc1 O15 2.105 . S
Sc1 O17 2.105 . S
Sc1 O21 2.105 . S
Sc2 O3 2.025 . S
Sc2 O12 2.105 . S
Sc2 O14 2.105 . S
Sc2 O18 2.105 . S
Sc2 O20 2.105 . S
O3 Sc0 2.025 . S
O3 Sc1 2.025 . S
O3 Sc2 2.025 . S
C4 O10 1.268 . S
C4 O20 1.268 . S
C5 O11 1.268 . S
C5 O19 1.268 . S
C6 O12 1.268 . S
C6 O21 1.268 . S
C7 O13 1.268 . S
C7 O17 1.268 . S
C8 O14 1.268 . S
C8 O16 1.268 . S
C9 O15 1.268 . S
C9 O18 1.268 . S
O10 Sc0 2.105 . S
O10 C4 1.268 . S
O11 Sc1 2.105 . S
O11 C5 1.268 . S
O12 Sc2 2.105 . S
O12 C6 1.268 . S
O13 Sc0 2.105 . S
O13 C7 1.268 . S
O14 Sc2 2.105 . S
O14 C8 1.268 . S
O15 Sc1 2.105 . S
O15 C9 1.268 . S
O16 Sc0 2.105 . S
O16 C8 1.268 . S
O17 Sc1 2.105 . S
O17 C7 1.268 . S
O18 Sc2 2.105 . S
O18 C9 1.268 . S
O19 Sc0 2.105 . S
O19 C5 1.268 . S
O20 Sc2 2.105 . S
O20 C4 1.268 . S
O21 Sc1 2.105 . S
O21 C6 1.268 . S
Sc22 O25 2.025 . S
Sc22 O32 2.105 . S
Sc22 O35 2.105 . S
Sc22 O38 2.105 . S
Sc22 O41 2.105 . S
Sc23 O25 2.025 . S
Sc23 O33 2.105 . S
Sc23 O37 2.105 . S
Sc23 O39 2.105 . S
Sc23 O43 2.105 . S
Sc24 O25 2.025 . S
Sc24 O34 2.105 . S
Sc24 O36 2.105 . S
Sc24 O40 2.105 . S
Sc24 O42 2.105 . S
O25 Sc22 2.025 . S
O25 Sc23 2.025 . S
O25 Sc24 2.025 . S
C26 O32 1.268 . S
C26 O42 1.268 . S
C27 O33 1.268 . S
C27 O41 1.268 . S
C28 O34 1.268 . S
C28 O43 1.268 . S
C29 O35 1.268 . S
C29 O39 1.268 . S
C30 O36 1.268 . S
C30 O38 1.268 . S
C31 O37 1.268 . S
C31 O40 1.268 . S
O32 Sc22 2.105 . S
O32 C26 1.268 . S
O33 Sc23 2.105 . S
O33 C27 1.268 . S
O34 Sc24 2.105 . S
O34 C28 1.268 . S
O35 Sc22 2.105 . S
O35 C29 1.268 . S
O36 Sc24 2.105 . S
O36 C30 1.268 . S
O37 Sc23 2.105 . S
O37 C31 1.268 . S
O38 Sc22 2.105 . S
O38 C30 1.268 . S
O39 Sc23 2.105 . S
O39 C29 1.268 . S
O40 Sc24 2.105 . S
O40 C31 1.268 . S
O41 Sc22 2.105 . S
O41 C27 1.268 . S
O42 Sc24 2.105 . S
O42 C26 1.268 . S
O43 Sc23 2.105 . S
O43 C28 1.268 . S
Sc44 O47 2.025 . S
Sc44 O54 2.105 . S
Sc44 O57 2.105 . S
Sc44 O60 2.105 . S
Sc44 O63 2.105 . S
Sc45 O47 2.025 . S
Sc45 O55 2.105 . S
Sc45 O59 2.105 . S
Sc45 O61 2.105 . S
Sc45 O65 2.105 . S
Sc46 O47 2.025 . S
Sc46 O56 2.105 . S
Sc46 O58 2.105 . S
Sc46 O62 2.105 . S
Sc46 O64 2.105 . S
O47 Sc44 2.025 . S
O47 Sc45 2.025 . S
O47 Sc46 2.025 . S
C48 O54 1.268 . S
C48 O64 1.268 . S
C49 O55 1.268 . S
C49 O63 1.268 . S
C50 O56 1.268 . S
C50 O65 1.268 . S
C51 O57 1.268 . S
C51 O61 1.268 . S
C52 O58 1.268 . S
C52 O60 1.268 . S
C53 O59 1.268 . S
C53 O62 1.268 . S
O54 Sc44 2.105 . S
O54 C48 1.268 . S
O55 Sc45 2.105 . S
O55 C49 1.268 . S
O56 Sc46 2.105 . S
O56 C50 1.268 . S
O57 Sc44 2.105 . S
O57 C51 1.268 . S
O58 Sc46 2.105 . S
O58 C52 1.268 . S
O59 Sc45 2.105 . S
O59 C53 1.268 . S
O60 Sc44 2.105 . S
O60 C52 1.268 . S
O61 Sc45 2.105 . S
O61 C51 1.268 . S
O62 Sc46 2.105 . S
O62 C53 1.268 . S
O63 Sc44 2.105 . S
O63 C49 1.268 . S
O64 Sc46 2.105 . S
O64 C48 1.268 . S
O65 Sc45 2.105 . S
O65 C50 1.268 . S
Sc66 O69 2.025 . S
Sc66 O76 2.105 . S
Sc66 O79 2.105 . S
Sc66 O82 2.105 . S
Sc66 O85 2.105 . S
Sc67 O69 2.025 . S
Sc67 O77 2.105 . S
Sc67 O81 2.105 . S
Sc67 O83 2.105 . S
Sc67 O87 2.105 . S
Sc68 O69 2.025 . S
Sc68 O78 2.105 . S
Sc68 O80 2.105 . S
Sc68 O84 2.105 . S
Sc68 O86 2.105 . S
O69 Sc66 2.025 . S
O69 Sc67 2.025 . S
O69 Sc68 2.025 . S
C70 O76 1.268 . S
C70 O86 1.268 . S
C71 O77 1.268 . S
C71 O85 1.268 . S
C72 O78 1.268 . S
C72 O87 1.268 . S
C73 O79 1.268 . S
C73 O83 1.268 . S
C74 O80 1.268 . S
C74 O82 1.268 . S
C75 O81 1.268 . S
C75 O84 1.268 . S
O76 Sc66 2.105 . S
O76 C70 1.268 . S
O77 Sc67 2.105 . S
O77 C71 1.268 . S
O78 Sc68 2.105 . S
O78 C72 1.268 . S
O79 Sc66 2.105 . S
O79 C73 1.268 . S
O80 Sc68 2.105 . S
O80 C74 1.268 . S
O81 Sc67 2.105 . S
O81 C75 1.268 . S
O82 Sc66 2.105 . S
O82 C74 1.268 . S
O83 Sc67 2.105 . S
O83 C73 1.268 . S
O84 Sc68 2.105 . S
O84 C75 1.268 . S
O85 Sc66 2.105 . S
O85 C71 1.268 . S
O86 Sc68 2.105 . S
O86 C70 1.268 . S
O87 Sc67 2.105 . S
O87 C72 1.268 . S
Sc88 O91 2.025 . S
Sc88 O98 2.105 . S
Sc88 O101 2.105 . S
Sc88 O104 2.105 . S
Sc88 O107 2.105 . S
Sc89 O91 2.025 . S
Sc89 O99 2.105 . S
Sc89 O103 2.105 . S
Sc89 O105 2.105 . S
Sc89 O109 2.105 . S
Sc90 O91 2.025 . S
Sc90 O100 2.105 . S
Sc90 O102 2.105 . S
Sc90 O106 2.105 . S
Sc90 O108 2.105 . S
O91 Sc88 2.025 . S
O91 Sc89 2.025 . S
O91 Sc90 2.025 . S
C92 O98 1.268 . S
C92 O108 1.268 . S
C93 O99 1.268 . S
C93 O107 1.268 . S
C94 O100 1.268 . S
C94 O109 1.268 . S
C95 O101 1.268 . S
C95 O105 1.268 . S
C96 O102 1.268 . S
C96 O104 1.268 . S
C97 O103 1.268 . S
C97 O106 1.268 . S
O98 Sc88 2.105 . S
O98 C92 1.268 . S
O99 Sc89 2.105 . S
O99 C93 1.268 . S
O100 Sc90 2.105 . S
O100 C94 1.268 . S
O101 Sc88 2.105 . S
O101 C95 1.268 . S
O102 Sc90 2.105 . S
O102 C96 1.268 . S
O103 Sc89 2.105 . S
O103 C97 1.268 . S
O104 Sc88 2.105 . S
O104 C96 1.268 . S
O105 Sc89 2.105 . S
O105 C95 1.268 . S
O106 Sc90 2.105 . S
O106 C97 1.268 . S
O107 Sc88 2.105 . S
O107 C93 1.268 . S
O108 Sc90 2.105 . S
O108 C92 1.268 . S
O109 Sc89 2.105 . S
O109 C94 1.268 . S
Sc110 O113 2.025 . S
Sc110 O120 2.105 . S
Sc110 O123 2.105 . S
Sc110 O126 2.105 . S
Sc110 O129 2.105 . S
Sc111 O113 2.025 . S
Sc111 O121 2.105 . S
Sc111 O125 2.105 . S
Sc111 O127 2.105 . S
Sc111 O131 2.105 . S
Sc112 O113 2.025 . S
Sc112 O122 2.105 . S
Sc112 O124 2.105 . S
Sc112 O128 2.105 . S
Sc112 O130 2.105 . S
O113 Sc110 2.025 . S
O113 Sc111 2.025 . S
O113 Sc112 2.025 . S
C114 O120 1.268 . S
C114 O130 1.268 . S
C115 O121 1.268 . S
C115 O129 1.268 . S
C116 O122 1.268 . S
C116 O131 1.268 . S
C117 O123 1.268 . S
C117 O127 1.268 . S
C118 O124 1.268 . S
C118 O126 1.268 . S
C119 O125 1.268 . S
C119 O128 1.268 . S
O120 Sc110 2.105 . S
O120 C114 1.268 . S
O121 Sc111 2.105 . S
O121 C115 1.268 . S
O122 Sc112 2.105 . S
O122 C116 1.268 . S
O123 Sc110 2.105 . S
O123 C117 1.268 . S
O124 Sc112 2.105 . S
O124 C118 1.268 . S
O125 Sc111 2.105 . S
O125 C119 1.268 . S
O126 Sc110 2.105 . S
O126 C118 1.268 . S
O127 Sc111 2.105 . S
O127 C117 1.268 . S
O128 Sc112 2.105 . S
O128 C119 1.268 . S
O129 Sc110 2.105 . S
O129 C115 1.268 . S
O130 Sc112 2.105 . S
O130 C114 1.268 . S
O131 Sc111 2.105 . S
O131 C116 1.268 . S
Sc132 O135 2.025 . S
Sc132 O142 2.105 . S
Sc132 O145 2.105 . S
Sc132 O148 2.105 . S
Sc132 O151 2.105 . S
Sc133 O135 2.025 . S
Sc133 O143 2.105 . S
Sc133 O147 2.105 . S
Sc133 O149 2.105 . S
Sc133 O153 2.105 . S
Sc134 O135 2.025 . S
Sc134 O144 2.105 . S
Sc134 O146 2.105 . S
Sc134 O150 2.105 . S
Sc134 O152 2.105 . S
O135 Sc132 2.025 . S
O135 Sc133 2.025 . S
O135 Sc134 2.025 . S
C136 O142 1.268 . S
C136 O152 1.268 . S
C137 O143 1.268 . S
C137 O151 1.268 . S
C138 O144 1.268 . S
C138 O153 1.268 . S
C139 O145 1.268 . S
C139 O149 1.268 . S
C140 O146 1.268 . S
C140 O148 1.268 . S
C141 O147 1.268 . S
C141 O150 1.268 . S
O142 Sc132 2.105 . S
O142 C136 1.268 . S
O143 Sc133 2.105 . S
O143 C137 1.268 . S
O144 Sc134 2.105 . S
O144 C138 1.268 . S
O145 Sc132 2.105 . S
O145 C139 1.268 . S
O146 Sc134 2.105 . S
O146 C140 1.268 . S
O147 Sc133 2.105 . S
O147 C141 1.268 . S
O148 Sc132 2.105 . S
O148 C140 1.268 . S
O149 Sc133 2.105 . S
O149 C139 1.268 . S
O150 Sc134 2.105 . S
O150 C141 1.268 . S
O151 Sc132 2.105 . S
O151 C137 1.268 . S
O152 Sc134 2.105 . S
O152 C136 1.268 . S
O153 Sc133 2.105 . S
O153 C138 1.268 . S
Sc154 O157 2.025 . S
Sc154 O164 2.105 . S
Sc154 O167 2.105 . S
Sc154 O170 2.105 . S
Sc154 O173 2.105 . S
Sc155 O157 2.025 . S
Sc155 O165 2.105 . S
Sc155 O169 2.105 . S
Sc155 O171 2.105 . S
Sc155 O175 2.105 . S
Sc156 O157 2.025 . S
Sc156 O166 2.105 . S
Sc156 O168 2.105 . S
Sc156 O172 2.105 . S
Sc156 O174 2.105 . S
O157 Sc154 2.025 . S
O157 Sc155 2.025 . S
O157 Sc156 2.025 . S
C158 O164 1.268 . S
C158 O174 1.268 . S
C159 O165 1.268 . S
C159 O173 1.268 . S
C160 O166 1.268 . S
C160 O175 1.268 . S
C161 O167 1.268 . S
C161 O171 1.268 . S
C162 O168 1.268 . S
C162 O170 1.268 . S
C163 O169 1.268 . S
C163 O172 1.268 . S
O164 Sc154 2.105 . S
O164 C158 1.268 . S
O165 Sc155 2.105 . S
O165 C159 1.268 . S
O166 Sc156 2.105 . S
O166 C160 1.268 . S
O167 Sc154 2.105 . S
O167 C161 1.268 . S
O168 Sc156 2.105 . S
O168 C162 1.268 . S
O169 Sc155 2.105 . S
O169 C163 1.268 . S
O170 Sc154 2.105 . S
O170 C162 1.268 . S
O171 Sc155 2.105 . S
O171 C161 1.268 . S
O172 Sc156 2.105 . S
O172 C163 1.268 . S
O173 Sc154 2.105 . S
O173 C159 1.268 . S
O174 Sc156 2.105 . S
O174 C158 1.268 . S
O175 Sc155 2.105 . S
O175 C160 1.268 . S
Sc176 O179 2.025 . S
Sc176 O186 2.105 . S
Sc176 O189 2.105 . S
Sc176 O192 2.105 . S
Sc176 O195 2.105 . S
Sc177 O179 2.025 . S
Sc177 O187 2.105 . S
Sc177 O191 2.105 . S
Sc177 O193 2.105 . S
Sc177 O197 2.105 . S
Sc178 O179 2.025 . S
Sc178 O188 2.105 . S
Sc178 O190 2.105 . S
Sc178 O194 2.105 . S
Sc178 O196 2.105 . S
O179 Sc176 2.025 . S
O179 Sc177 2.025 . S
O179 Sc178 2.025 . S
C180 O186 1.268 . S
C180 O196 1.268 . S
C181 O187 1.268 . S
C181 O195 1.268 . S
C182 O188 1.268 . S
C182 O197 1.268 . S
C183 O189 1.268 . S
C183 O193 1.268 . S
C184 O190 1.268 . S
C184 O192 1.268 . S
C185 O191 1.268 . S
C185 O194 1.268 . S
O186 Sc176 2.105 . S
O186 C180 1.268 . S
O187 Sc177 2.105 . S
O187 C181 1.268 . S
O188 Sc178 2.105 . S
O188 C182 1.268 . S
O189 Sc176 2.105 . S
O189 C183 1.268 . S
O190 Sc178 2.105 . S
O190 C184 1.268 . S
O191 Sc177 2.105 . S
O191 C185 1.268 . S
O192 Sc176 2.105 . S
O192 C184 1.268 . S
O193 Sc177 2.105 . S
O193 C183 1.268 . S
O194 Sc178 2.105 . S
O194 C185 1.268 . S
O195 Sc176 2.105 . S
O195 C181 1.268 . S
O196 Sc178 2.105 . S
O196 C180 1.268 . S
O197 Sc177 2.105 . S
O197 C182 1.268 . S
Sc198 O201 2.025 . S
Sc198 O208 2.105 . S
Sc198 O211 2.105 . S
Sc198 O214 2.105 . S
Sc198 O217 2.105 . S
Sc199 O201 2.025 . S
Sc199 O209 2.105 . S
Sc199 O213 2.105 . S
Sc199 O215 2.105 . S
Sc199 O219 2.105 . S
Sc200 O201 2.025 . S
Sc200 O210 2.105 . S
Sc200 O212 2.105 . S
Sc200 O216 2.105 . S
Sc200 O218 2.105 . S
O201 Sc198 2.025 . S
O201 Sc199 2.025 . S
O201 Sc200 2.025 . S
C202 O208 1.268 . S
C202 O218 1.268 . S
C203 O209 1.268 . S
C203 O217 1.268 . S
C204 O210 1.268 . S
C204 O219 1.268 . S
C205 O211 1.268 . S
C205 O215 1.268 . S
C206 O212 1.268 . S
C206 O214 1.268 . S
C207 O213 1.268 . S
C207 O216 1.268 . S
O208 Sc198 2.105 . S
O208 C202 1.268 . S
O209 Sc199 2.105 . S
O209 C203 1.268 . S
O210 Sc200 2.105 . S
O210 C204 1.268 . S
O211 Sc198 2.105 . S
O211 C205 1.268 . S
O212 Sc200 2.105 . S
O212 C206 1.268 . S
O213 Sc199 2.105 . S
O213 C207 1.268 . S
O214 Sc198 2.105 . S
O214 C206 1.268 . S
O215 Sc199 2.105 . S
O215 C205 1.268 . S
O216 Sc200 2.105 . S
O216 C207 1.268 . S
O217 Sc198 2.105 . S
O217 C203 1.268 . S
O218 Sc200 2.105 . S
O218 C202 1.268 . S
O219 Sc199 2.105 . S
O219 C204 1.268 . S
Sc220 O223 2.025 . S
Sc220 O230 2.105 . S
Sc220 O233 2.105 . S
Sc220 O236 2.105 . S
Sc220 O239 2.105 . S
Sc221 O223 2.025 . S
Sc221 O231 2.105 . S
Sc221 O235 2.105 . S
Sc221 O237 2.105 . S
Sc221 O241 2.105 . S
Sc222 O223 2.025 . S
Sc222 O232 2.105 . S
Sc222 O234 2.105 . S
Sc222 O238 2.105 . S
Sc222 O240 2.105 . S
O223 Sc220 2.025 . S
O223 Sc221 2.025 . S
O223 Sc222 2.025 . S
C224 O230 1.268 . S
C224 O240 1.268 . S
C225 O231 1.268 . S
C225 O239 1.268 . S
C226 O232 1.268 . S
C226 O241 1.268 . S
C227 O233 1.268 . S
C227 O237 1.268 . S
C228 O234 1.268 . S
C228 O236 1.268 . S
C229 O235 1.268 . S
C229 O238 1.268 . S
O230 Sc220 2.105 . S
O230 C224 1.268 . S
O231 Sc221 2.105 . S
O231 C225 1.268 . S
O232 Sc222 2.105 . S
O232 C226 1.268 . S
O233 Sc220 2.105 . S
O233 C227 1.268 . S
O234 Sc222 2.105 . S
O234 C228 1.268 . S
O235 Sc221 2.105 . S
O235 C229 1.268 . S
O236 Sc220 2.105 . S
O236 C228 1.268 . S
O237 Sc221 2.105 . S
O237 C227 1.268 . S
O238 Sc222 2.105 . S
O238 C229 1.268 . S
O239 Sc220 2.105 . S
O239 C225 1.268 . S
O240 Sc222 2.105 . S
O240 C224 1.268 . S
O241 Sc221 2.105 . S
O241 C226 1.268 . S
Sc242 O245 2.025 . S
Sc242 O252 2.105 . S
Sc242 O255 2.105 . S
Sc242 O258 2.105 . S
Sc242 O261 2.105 . S
Sc243 O245 2.025 . S
Sc243 O253 2.105 . S
Sc243 O257 2.105 . S
Sc243 O259 2.105 . S
Sc243 O263 2.105 . S
Sc244 O245 2.025 . S
Sc244 O254 2.105 . S
Sc244 O256 2.105 . S
Sc244 O260 2.105 . S
Sc244 O262 2.105 . S
O245 Sc242 2.025 . S
O245 Sc243 2.025 . S
O245 Sc244 2.025 . S
C246 O252 1.268 . S
C246 O262 1.268 . S
C247 O253 1.268 . S
C247 O261 1.268 . S
C248 O254 1.268 . S
C248 O263 1.268 . S
C249 O255 1.268 . S
C249 O259 1.268 . S
C250 O256 1.268 . S
C250 O258 1.268 . S
C251 O257 1.268 . S
C251 O260 1.268 . S
O252 Sc242 2.105 . S
O252 C246 1.268 . S
O253 Sc243 2.105 . S
O253 C247 1.268 . S
O254 Sc244 2.105 . S
O254 C248 1.268 . S
O255 Sc242 2.105 . S
O255 C249 1.268 . S
O256 Sc244 2.105 . S
O256 C250 1.268 . S
O257 Sc243 2.105 . S
O257 C251 1.268 . S
O258 Sc242 2.105 . S
O258 C250 1.268 . S
O259 Sc243 2.105 . S
O259 C249 1.268 . S
O260 Sc244 2.105 . S
O260 C251 1.268 . S
O261 Sc242 2.105 . S
O261 C247 1.268 . S
O262 Sc244 2.105 . S
O262 C246 1.268 . S
O263 Sc243 2.105 . S
O263 C248 1.268 . S
Sc264 O267 2.025 . S
Sc264 O274 2.105 . S
Sc264 O277 2.105 . S
Sc264 O280 2.105 . S
Sc264 O283 2.105 . S
Sc265 O267 2.025 . S
Sc265 O275 2.105 . S
Sc265 O279 2.105 . S
Sc265 O281 2.105 . S
Sc265 O285 2.105 . S
Sc266 O267 2.025 . S
Sc266 O276 2.105 . S
Sc266 O278 2.105 . S
Sc266 O282 2.105 . S
Sc266 O284 2.105 . S
O267 Sc264 2.025 . S
O267 Sc265 2.025 . S
O267 Sc266 2.025 . S
C268 O274 1.268 . S
C268 O284 1.268 . S
C269 O275 1.268 . S
C269 O283 1.268 . S
C270 O276 1.268 . S
C270 O285 1.268 . S
C271 O277 1.268 . S
C271 O281 1.268 . S
C272 O278 1.268 . S
C272 O280 1.268 . S
C273 O279 1.268 . S
C273 O282 1.268 . S
O274 Sc264 2.105 . S
O274 C268 1.268 . S
O275 Sc265 2.105 . S
O275 C269 1.268 . S
O276 Sc266 2.105 . S
O276 C270 1.268 . S
O277 Sc264 2.105 . S
O277 C271 1.268 . S
O278 Sc266 2.105 . S
O278 C272 1.268 . S
O279 Sc265 2.105 . S
O279 C273 1.268 . S
O280 Sc264 2.105 . S
O280 C272 1.268 . S
O281 Sc265 2.105 . S
O281 C271 1.268 . S
O282 Sc266 2.105 . S
O282 C273 1.268 . S
O283 Sc264 2.105 . S
O283 C269 1.268 . S
O284 Sc266 2.105 . S
O284 C268 1.268 . S
O285 Sc265 2.105 . S
O285 C270 1.268 . S
Sc286 O289 2.025 . S
Sc286 O296 2.105 . S
Sc286 O299 2.105 . S
Sc286 O302 2.105 . S
Sc286 O305 2.105 . S
Sc287 O289 2.025 . S
Sc287 O297 2.105 . S
Sc287 O301 2.105 . S
Sc287 O303 2.105 . S
Sc287 O307 2.105 . S
Sc288 O289 2.025 . S
Sc288 O298 2.105 . S
Sc288 O300 2.105 . S
Sc288 O304 2.105 . S
Sc288 O306 2.105 . S
O289 Sc286 2.025 . S
O289 Sc287 2.025 . S
O289 Sc288 2.025 . S
C290 O296 1.268 . S
C290 O306 1.268 . S
C291 O297 1.268 . S
C291 O305 1.268 . S
C292 O298 1.268 . S
C292 O307 1.268 . S
C293 O299 1.268 . S
C293 O303 1.268 . S
C294 O300 1.268 . S
C294 O302 1.268 . S
C295 O301 1.268 . S
C295 O304 1.268 . S
O296 Sc286 2.105 . S
O296 C290 1.268 . S
O297 Sc287 2.105 . S
O297 C291 1.268 . S
O298 Sc288 2.105 . S
O298 C292 1.268 . S
O299 Sc286 2.105 . S
O299 C293 1.268 . S
O300 Sc288 2.105 . S
O300 C294 1.268 . S
O301 Sc287 2.105 . S
O301 C295 1.268 . S
O302 Sc286 2.105 . S
O302 C294 1.268 . S
O303 Sc287 2.105 . S
O303 C293 1.268 . S
O304 Sc288 2.105 . S
O304 C295 1.268 . S
O305 Sc286 2.105 . S
O305 C291 1.268 . S
O306 Sc288 2.105 . S
O306 C290 1.268 . S
O307 Sc287 2.105 . S
O307 C292 1.268 . S
Sc308 O311 2.025 . S
Sc308 O318 2.105 . S
Sc308 O321 2.105 . S
Sc308 O324 2.105 . S
Sc308 O327 2.105 . S
Sc309 O311 2.025 . S
Sc309 O319 2.105 . S
Sc309 O323 2.105 . S
Sc309 O325 2.105 . S
Sc309 O329 2.105 . S
Sc310 O311 2.025 . S
Sc310 O320 2.105 . S
Sc310 O322 2.105 . S
Sc310 O326 2.105 . S
Sc310 O328 2.105 . S
O311 Sc308 2.025 . S
O311 Sc309 2.025 . S
O311 Sc310 2.025 . S
C312 O318 1.268 . S
C312 O328 1.268 . S
C313 O319 1.268 . S
C313 O327 1.268 . S
C314 O320 1.268 . S
C314 O329 1.268 . S
C315 O321 1.268 . S
C315 O325 1.268 . S
C316 O322 1.268 . S
C316 O324 1.268 . S
C317 O323 1.268 . S
C317 O326 1.268 . S
O318 Sc308 2.105 . S
O318 C312 1.268 . S
O319 Sc309 2.105 . S
O319 C313 1.268 . S
O320 Sc310 2.105 . S
O320 C314 1.268 . S
O321 Sc308 2.105 . S
O321 C315 1.268 . S
O322 Sc310 2.105 . S
O322 C316 1.268 . S
O323 Sc309 2.105 . S
O323 C317 1.268 . S
O324 Sc308 2.105 . S
O324 C316 1.268 . S
O325 Sc309 2.105 . S
O325 C315 1.268 . S
O326 Sc310 2.105 . S
O326 C317 1.268 . S
O327 Sc308 2.105 . S
O327 C313 1.268 . S
O328 Sc310 2.105 . S
O328 C312 1.268 . S
O329 Sc309 2.105 . S
O329 C314 1.268 . S
Sc330 O333 2.025 . S
Sc330 O340 2.105 . S
Sc330 O343 2.105 . S
Sc330 O346 2.105 . S
Sc330 O349 2.105 . S
Sc331 O333 2.025 . S
Sc331 O341 2.105 . S
Sc331 O345 2.105 . S
Sc331 O347 2.105 . S
Sc331 O351 2.105 . S
Sc332 O333 2.025 . S
Sc332 O342 2.105 . S
Sc332 O344 2.105 . S
Sc332 O348 2.105 . S
Sc332 O350 2.105 . S
O333 Sc330 2.025 . S
O333 Sc331 2.025 . S
O333 Sc332 2.025 . S
C334 O340 1.268 . S
C334 O350 1.268 . S
C335 O341 1.268 . S
C335 O349 1.268 . S
C336 O342 1.268 . S
C336 O351 1.268 . S
C337 O343 1.268 . S
C337 O347 1.268 . S
C338 O344 1.268 . S
C338 O346 1.268 . S
C339 O345 1.268 . S
C339 O348 1.268 . S
O340 Sc330 2.105 . S
O340 C334 1.268 . S
O341 Sc331 2.105 . S
O341 C335 1.268 . S
O342 Sc332 2.105 . S
O342 C336 1.268 . S
O343 Sc330 2.105 . S
O343 C337 1.268 . S
O344 Sc332 2.105 . S
O344 C338 1.268 . S
O345 Sc331 2.105 . S
O345 C339 1.268 . S
O346 Sc330 2.105 . S
O346 C338 1.268 . S
O347 Sc331 2.105 . S
O347 C337 1.268 . S
O348 Sc332 2.105 . S
O348 C339 1.268 . S
O349 Sc330 2.105 . S
O349 C335 1.268 . S
O350 Sc332 2.105 . S
O350 C334 1.268 . S
O351 Sc331 2.105 . S
O351 C336 1.268 . S
H352 C364 0.930 . S
H353 C366 0.930 . S
H354 C367 0.930 . S
H355 C371 0.959 . S
H356 C371 0.959 . S
H357 C371 0.961 . S
H358 C372 0.960 . S
H359 C372 0.961 . S
H360 C372 0.959 . S
H361 C375 0.929 . S
H362 C376 0.931 . S
H363 C378 0.930 . S
C364 H352 0.930 . S
C364 C365 1.399 . S
C364 C369 1.399 . S
C365 C364 1.399 . S
C365 C366 1.376 . S
C366 H353 0.930 . S
C366 C365 1.376 . S
C366 C367 1.388 . S
C367 H354 0.930 . S
C367 C366 1.388 . S
C367 C368 1.390 . S
C368 C367 1.390 . S
C368 C369 1.394 . S
C368 C374 1.465 1_554 S
C369 C364 1.399 . S
C369 C368 1.394 . S
C369 C370 1.516 1_554 S
C370 C369 1.516 1_556 S
C370 C371 1.502 . S
C370 C372 1.561 . S
C370 C373 1.526 . S
C371 H355 0.959 . S
C371 H356 0.959 . S
C371 H357 0.961 . S
C371 C370 1.502 . S
C372 H358 0.960 . S
C372 H359 0.961 . S
C372 H360 0.959 . S
C372 C370 1.561 . S
C373 C370 1.526 . S
C373 C374 1.396 . S
C373 C378 1.390 . S
C374 C368 1.465 1_556 S
C374 C373 1.396 . S
C374 C375 1.399 . S
C375 H361 0.929 . S
C375 C374 1.399 . S
C375 C376 1.385 . S
C376 H362 0.931 . S
C376 C375 1.385 . S
C376 C377 1.389 . S
C377 C376 1.389 . S
C377 C378 1.387 . S
C378 H363 0.930 . S
C378 C373 1.390 . S
C378 C377 1.387 . S
H379 C391 0.930 . S
H380 C393 0.930 . S
H381 C394 0.930 . S
H382 C398 0.959 . S
H383 C398 0.959 . S
H384 C398 0.961 . S
H385 C399 0.960 . S
H386 C399 0.961 . S
H387 C399 0.959 . S
H388 C402 0.929 . S
H389 C403 0.931 . S
H390 C405 0.930 . S
C391 H379 0.930 . S
C391 C392 1.399 . S
C391 C396 1.399 . S
C392 C391 1.399 . S
C392 C393 1.376 . S
C393 H380 0.930 . S
C393 C392 1.376 . S
C393 C394 1.388 . S
C394 H381 0.930 . S
C394 C393 1.388 . S
C394 C395 1.390 . S
C395 C394 1.390 . S
C395 C396 1.394 . S
C395 C401 1.465 . S
C396 C391 1.399 . S
C396 C395 1.394 . S
C396 C397 1.516 . S
C397 C396 1.516 . S
C397 C398 1.502 . S
C397 C399 1.561 . S
C397 C400 1.526 . S
C398 H382 0.959 . S
C398 H383 0.959 . S
C398 H384 0.961 . S
C398 C397 1.502 . S
C399 H385 0.960 . S
C399 H386 0.961 . S
C399 H387 0.959 . S
C399 C397 1.561 . S
C400 C397 1.526 . S
C400 C401 1.396 . S
C400 C405 1.390 . S
C401 C395 1.465 . S
C401 C400 1.396 . S
C401 C402 1.399 . S
C402 H388 0.929 . S
C402 C401 1.399 . S
C402 C403 1.385 . S
C403 H389 0.931 . S
C403 C402 1.385 . S
C403 C404 1.389 . S
C404 C403 1.389 . S
C404 C405 1.387 . S
C405 H390 0.930 . S
C405 C400 1.390 . S
C405 C404 1.387 . S
H406 C418 0.930 . S
H407 C420 0.930 . S
H408 C421 0.930 . S
H409 C425 0.959 . S
H410 C425 0.959 . S
H411 C425 0.961 . S
H412 C426 0.960 . S
H413 C426 0.961 . S
H414 C426 0.959 . S
H415 C429 0.929 . S
H416 C430 0.931 . S
H417 C432 0.930 . S
C418 H406 0.930 . S
C418 C419 1.399 . S
C418 C423 1.399 . S
C419 C418 1.399 . S
C419 C420 1.376 . S
C420 H407 0.930 . S
C420 C419 1.376 . S
C420 C421 1.388 . S
C421 H408 0.930 . S
C421 C420 1.388 . S
C421 C422 1.390 . S
C422 C421 1.390 . S
C422 C423 1.394 . S
C422 C428 1.465 1_554 S
C423 C418 1.399 . S
C423 C422 1.394 . S
C423 C424 1.516 . S
C424 C423 1.516 . S
C424 C425 1.502 . S
C424 C426 1.561 . S
C424 C427 1.526 1_554 S
C425 H409 0.959 . S
C425 H410 0.959 . S
C425 H411 0.961 . S
C425 C424 1.502 . S
C426 H412 0.960 . S
C426 H413 0.961 . S
C426 H414 0.959 . S
C426 C424 1.561 . S
C427 C424 1.526 1_556 S
C427 C428 1.396 . S
C427 C432 1.390 . S
C428 C422 1.465 1_556 S
C428 C427 1.396 . S
C428 C429 1.399 . S
C429 H415 0.929 . S
C429 C428 1.399 . S
C429 C430 1.385 . S
C430 H416 0.931 . S
C430 C429 1.385 . S
C430 C431 1.389 . S
C431 C430 1.389 . S
C431 C432 1.387 . S
C432 H417 0.930 . S
C432 C427 1.390 . S
C432 C431 1.387 . S
H433 C445 0.930 . S
H434 C447 0.930 . S
H435 C448 0.930 . S
H436 C452 0.959 . S
H437 C452 0.959 . S
H438 C452 0.961 . S
H439 C453 0.960 . S
H440 C453 0.961 . S
H441 C453 0.959 . S
H442 C456 0.929 . S
H443 C457 0.931 . S
H444 C459 0.930 . S
C445 H433 0.930 . S
C445 C446 1.399 . S
C445 C450 1.399 . S
C446 C445 1.399 . S
C446 C447 1.376 . S
C447 H434 0.930 . S
C447 C446 1.376 . S
C447 C448 1.388 . S
C448 H435 0.930 . S
C448 C447 1.388 . S
C448 C449 1.390 . S
C449 C448 1.390 . S
C449 C450 1.394 . S
C449 C455 1.465 . S
C450 C445 1.399 . S
C450 C449 1.394 . S
C450 C451 1.516 . S
C451 C450 1.516 . S
C451 C452 1.502 . S
C451 C453 1.561 . S
C451 C454 1.526 . S
C452 H436 0.959 . S
C452 H437 0.959 . S
C452 H438 0.961 . S
C452 C451 1.502 . S
C453 H439 0.960 . S
C453 H440 0.961 . S
C453 H441 0.959 . S
C453 C451 1.561 . S
C454 C451 1.526 . S
C454 C455 1.396 . S
C454 C459 1.390 . S
C455 C449 1.465 . S
C455 C454 1.396 . S
C455 C456 1.399 . S
C456 H442 0.929 . S
C456 C455 1.399 . S
C456 C457 1.385 . S
C457 H443 0.931 . S
C457 C456 1.385 . S
C457 C458 1.389 . S
C458 C457 1.389 . S
C458 C459 1.387 . S
C459 H444 0.930 . S
C459 C454 1.390 . S
C459 C458 1.387 . S
H460 C472 0.930 . S
H461 C474 0.930 . S
H462 C475 0.930 . S
H463 C479 0.959 . S
H464 C479 0.959 . S
H465 C479 0.961 . S
H466 C480 0.960 . S
H467 C480 0.961 1_554 S
H468 C480 0.960 1_554 S
H469 C483 0.929 . S
H470 C484 0.931 . S
H471 C486 0.930 . S
C472 H460 0.930 . S
C472 C473 1.399 . S
C472 C477 1.399 . S
C473 C472 1.399 . S
C473 C474 1.376 . S
C474 H461 0.930 . S
C474 C473 1.376 . S
C474 C475 1.388 . S
C475 H462 0.930 . S
C475 C474 1.388 . S
C475 C476 1.390 . S
C476 C475 1.390 . S
C476 C477 1.394 . S
C476 C482 1.465 1_556 S
C477 C472 1.399 . S
C477 C476 1.394 . S
C477 C478 1.516 . S
C478 C477 1.516 . S
C478 C479 1.502 . S
C478 C480 1.561 . S
C478 C481 1.526 1_556 S
C479 H463 0.959 . S
C479 H464 0.959 . S
C479 H465 0.961 . S
C479 C478 1.502 . S
C480 H466 0.960 . S
C480 H467 0.961 1_556 S
C480 H468 0.960 1_556 S
C480 C478 1.561 . S
C481 C478 1.526 1_554 S
C481 C482 1.396 . S
C481 C486 1.390 . S
C482 C476 1.465 1_554 S
C482 C481 1.396 . S
C482 C483 1.399 . S
C483 H469 0.929 . S
C483 C482 1.399 . S
C483 C484 1.385 . S
C484 H470 0.931 . S
C484 C483 1.385 . S
C484 C485 1.389 . S
C485 C484 1.389 . S
C485 C486 1.387 . S
C486 H471 0.930 . S
C486 C481 1.390 . S
C486 C485 1.387 . S
H487 C499 0.930 . S
H488 C501 0.930 . S
H489 C502 0.930 . S
H490 C506 0.959 . S
H491 C506 0.959 . S
H492 C506 0.961 . S
H493 C507 0.960 . S
H494 C507 0.961 . S
H495 C507 0.959 . S
H496 C510 0.929 . S
H497 C511 0.931 . S
H498 C513 0.930 . S
C499 H487 0.930 . S
C499 C500 1.399 . S
C499 C504 1.399 . S
C500 C499 1.399 . S
C500 C501 1.376 . S
C501 H488 0.930 . S
C501 C500 1.376 . S
C501 C502 1.388 . S
C502 H489 0.930 . S
C502 C501 1.388 . S
C502 C503 1.390 . S
C503 C502 1.390 . S
C503 C504 1.394 . S
C503 C509 1.465 . S
C504 C499 1.399 . S
C504 C503 1.394 . S
C504 C505 1.516 . S
C505 C504 1.516 . S
C505 C506 1.502 . S
C505 C507 1.561 . S
C505 C508 1.526 . S
C506 H490 0.959 . S
C506 H491 0.959 . S
C506 H492 0.961 . S
C506 C505 1.502 . S
C507 H493 0.960 . S
C507 H494 0.961 . S
C507 H495 0.959 . S
C507 C505 1.561 . S
C508 C505 1.526 . S
C508 C509 1.396 . S
C508 C513 1.390 . S
C509 C503 1.465 . S
C509 C508 1.396 . S
C509 C510 1.399 . S
C510 H496 0.929 . S
C510 C509 1.399 . S
C510 C511 1.385 . S
C511 H497 0.931 . S
C511 C510 1.385 . S
C511 C512 1.389 . S
C512 C511 1.389 . S
C512 C513 1.387 . S
C513 H498 0.930 . S
C513 C508 1.390 . S
C513 C512 1.387 . S
H514 C526 0.930 . S
H515 C528 0.930 . S
H516 C529 0.930 . S
H517 C533 0.959 . S
H518 C533 0.959 . S
H519 C533 0.961 . S
H520 C534 0.960 . S
H521 C534 0.961 . S
H522 C534 0.959 . S
H523 C537 0.929 . S
H524 C538 0.931 . S
H525 C540 0.930 . S
C526 H514 0.930 . S
C526 C527 1.399 . S
C526 C531 1.399 . S
C527 C526 1.399 . S
C527 C528 1.376 . S
C528 H515 0.930 . S
C528 C527 1.376 . S
C528 C529 1.388 . S
C529 H516 0.930 . S
C529 C528 1.388 . S
C529 C530 1.390 . S
C530 C529 1.390 . S
C530 C531 1.394 . S
C530 C536 1.465 1_554 S
C531 C526 1.399 . S
C531 C530 1.394 . S
C531 C532 1.516 1_554 S
C532 C531 1.516 1_556 S
C532 C533 1.502 . S
C532 C534 1.561 . S
C532 C535 1.526 . S
C533 H517 0.959 . S
C533 H518 0.959 . S
C533 H519 0.961 . S
C533 C532 1.502 . S
C534 H520 0.960 . S
C534 H521 0.961 . S
C534 H522 0.959 . S
C534 C532 1.561 . S
C535 C532 1.526 . S
C535 C536 1.396 . S
C535 C540 1.390 . S
C536 C530 1.465 1_556 S
C536 C535 1.396 . S
C536 C537 1.399 . S
C537 H523 0.929 . S
C537 C536 1.399 . S
C537 C538 1.385 . S
C538 H524 0.931 . S
C538 C537 1.385 . S
C538 C539 1.389 . S
C539 C538 1.389 . S
C539 C540 1.387 . S
C540 H525 0.930 . S
C540 C535 1.390 . S
C540 C539 1.387 . S
H541 C553 0.930 . S
H542 C555 0.930 . S
H543 C556 0.930 . S
H544 C560 0.959 . S
H545 C560 0.959 . S
H546 C560 0.961 . S
H547 C561 0.960 . S
H548 C561 0.961 . S
H549 C561 0.959 . S
H550 C564 0.929 . S
H551 C565 0.931 . S
H552 C567 0.930 . S
C553 H541 0.930 . S
C553 C554 1.399 . S
C553 C558 1.399 . S
C554 C553 1.399 . S
C554 C555 1.376 . S
C555 H542 0.930 . S
C555 C554 1.376 . S
C555 C556 1.388 . S
C556 H543 0.930 . S
C556 C555 1.388 . S
C556 C557 1.390 . S
C557 C556 1.390 . S
C557 C558 1.394 . S
C557 C563 1.465 . S
C558 C553 1.399 . S
C558 C557 1.394 . S
C558 C559 1.516 . S
C559 C558 1.516 . S
C559 C560 1.502 . S
C559 C561 1.561 . S
C559 C562 1.526 . S
C560 H544 0.959 . S
C560 H545 0.959 . S
C560 H546 0.961 . S
C560 C559 1.502 . S
C561 H547 0.960 . S
C561 H548 0.961 . S
C561 H549 0.959 . S
C561 C559 1.561 . S
C562 C559 1.526 . S
C562 C563 1.396 . S
C562 C567 1.390 . S
C563 C557 1.465 . S
C563 C562 1.396 . S
C563 C564 1.399 . S
C564 H550 0.929 . S
C564 C563 1.399 . S
C564 C565 1.385 . S
C565 H551 0.931 . S
C565 C564 1.385 . S
C565 C566 1.389 . S
C566 C565 1.389 . S
C566 C567 1.387 . S
C567 H552 0.930 . S
C567 C562 1.390 . S
C567 C566 1.387 . S
H568 C580 0.930 . S
H569 C582 0.930 . S
H570 C583 0.930 1_545 S
H571 C587 0.959 1_546 S
H572 C587 0.959 . S
H573 C587 0.961 1_556 S
H574 C588 0.960 . S
H575 C588 0.961 . S
H576 C588 0.959 . S
H577 C591 0.929 . S
H578 C592 0.931 . S
H579 C594 0.930 . S
C580 H568 0.930 . S
C580 C581 1.399 . S
C580 C585 1.399 . S
C581 C580 1.399 . S
C581 C582 1.376 . S
C582 H569 0.930 . S
C582 C581 1.376 . S
C582 C583 1.388 . S
C583 H570 0.930 1_565 S
C583 C582 1.388 . S
C583 C584 1.390 . S
C584 C583 1.390 . S
C584 C585 1.394 . S
C584 C590 1.465 1_566 S
C585 C580 1.399 . S
C585 C584 1.394 . S
C585 C586 1.516 1_556 S
C586 C585 1.516 1_554 S
C586 C587 1.502 . S
C586 C588 1.561 . S
C586 C589 1.526 1_565 S
C587 H571 0.959 1_564 S
C587 H572 0.959 . S
C587 H573 0.961 1_554 S
C587 C586 1.502 . S
C588 H574 0.960 . S
C588 H575 0.961 . S
C588 H576 0.959 . S
C588 C586 1.561 . S
C589 C586 1.526 1_545 S
C589 C590 1.396 . S
C589 C594 1.390 . S
C590 C584 1.465 1_544 S
C590 C589 1.396 . S
C590 C591 1.399 . S
C591 H577 0.929 . S
C591 C590 1.399 . S
C591 C592 1.385 . S
C592 H578 0.931 . S
C592 C591 1.385 . S
C592 C593 1.389 . S
C593 C592 1.389 . S
C593 C594 1.387 . S
C594 H579 0.930 . S
C594 C589 1.390 . S
C594 C593 1.387 . S
H595 C607 0.930 . S
H596 C609 0.930 . S
H597 C610 0.930 . S
H598 C614 0.959 . S
H599 C614 0.959 . S
H600 C614 0.961 . S
H601 C615 0.960 . S
H602 C615 0.961 . S
H603 C615 0.959 . S
H604 C618 0.929 . S
H605 C619 0.931 . S
H606 C621 0.930 . S
C607 H595 0.930 . S
C607 C608 1.399 . S
C607 C612 1.399 . S
C608 C607 1.399 . S
C608 C609 1.376 . S
C609 H596 0.930 . S
C609 C608 1.376 . S
C609 C610 1.388 1_565 S
C610 H597 0.930 . S
C610 C609 1.388 1_545 S
C610 C611 1.389 1_545 S
C611 C610 1.389 1_565 S
C611 C612 1.400 . S
C611 C617 1.461 1_565 S
C612 C607 1.399 . S
C612 C611 1.400 . S
C612 C613 1.516 . S
C613 C612 1.516 . S
C613 C614 1.502 . S
C613 C615 1.561 . S
C613 C616 1.526 1_565 S
C614 H598 0.959 . S
C614 H599 0.959 . S
C614 H600 0.961 . S
C614 C613 1.502 . S
C615 H601 0.960 . S
C615 H602 0.961 . S
C615 H603 0.959 . S
C615 C613 1.561 . S
C616 C613 1.526 1_545 S
C616 C617 1.396 . S
C616 C621 1.390 . S
C617 C611 1.461 1_545 S
C617 C616 1.396 . S
C617 C618 1.399 . S
C618 H604 0.929 . S
C618 C617 1.399 . S
C618 C619 1.385 . S
C619 H605 0.931 . S
C619 C618 1.385 . S
C619 C620 1.389 . S
C620 C619 1.389 . S
C620 C621 1.387 . S
C621 H606 0.930 . S
C621 C616 1.390 . S
C621 C620 1.387 . S
H622 C634 0.930 . S
H623 C636 0.930 . S
H624 C637 0.921 1_545 S
H625 C641 0.959 . S
H626 C641 0.959 . S
H627 C641 0.961 . S
H628 C642 0.960 . S
H629 C642 0.961 . S
H630 C642 0.959 . S
H631 C645 0.929 1_556 S
H632 C646 0.931 . S
H633 C648 0.930 . S
C634 H622 0.930 . S
C634 C635 1.399 . S
C634 C639 1.399 . S
C635 C634 1.399 . S
C635 C636 1.376 . S
C636 H623 0.930 . S
C636 C635 1.376 . S
C636 C637 1.397 . S
C637 H624 0.921 1_565 S
C637 C636 1.397 . S
C637 C638 1.391 . S
C638 C637 1.391 . S
C638 C639 1.394 . S
C638 C644 1.465 1_566 S
C639 C634 1.399 . S
C639 C638 1.394 . S
C639 C640 1.516 1_556 S
C640 C639 1.516 1_554 S
C640 C641 1.502 . S
C640 C642 1.561 . S
C640 C643 1.526 1_565 S
C641 H625 0.959 . S
C641 H626 0.959 . S
C641 H627 0.961 . S
C641 C640 1.502 . S
C642 H628 0.960 . S
C642 H629 0.961 . S
C642 H630 0.959 . S
C642 C640 1.561 . S
C643 C640 1.526 1_545 S
C643 C644 1.396 . S
C643 C648 1.390 . S
C644 C638 1.465 1_544 S
C644 C643 1.396 . S
C644 C645 1.399 . S
C645 H631 0.929 1_554 S
C645 C644 1.399 . S
C645 C646 1.385 . S
C646 H632 0.931 . S
C646 C645 1.385 . S
C646 C647 1.389 . S
C647 C646 1.389 . S
C647 C648 1.387 . S
C648 H633 0.930 . S
C648 C643 1.390 . S
C648 C647 1.387 . S
H649 C661 0.930 . S
H650 C663 0.930 . S
H651 C664 0.930 . S
H652 C668 0.959 . S
H653 C668 0.959 . S
H654 C668 0.961 . S
H655 C669 0.960 . S
H656 C669 0.961 . S
H657 C669 0.959 . S
H658 C672 0.929 . S
H659 C673 0.931 . S
H660 C675 0.930 . S
C661 H649 0.930 . S
C661 C662 1.399 . S
C661 C666 1.399 . S
C662 C661 1.399 . S
C662 C663 1.376 . S
C663 H650 0.930 . S
C663 C662 1.376 . S
C663 C664 1.388 . S
C664 H651 0.930 . S
C664 C663 1.388 . S
C664 C665 1.390 . S
C665 C664 1.390 . S
C665 C666 1.394 . S
C665 C671 1.465 . S
C666 C661 1.399 . S
C666 C665 1.394 . S
C666 C667 1.516 1_565 S
C667 C666 1.516 1_545 S
C667 C668 1.502 . S
C667 C669 1.561 . S
C667 C670 1.526 . S
C668 H652 0.959 . S
C668 H653 0.959 . S
C668 H654 0.961 . S
C668 C667 1.502 . S
C669 H655 0.960 . S
C669 H656 0.961 . S
C669 H657 0.959 . S
C669 C667 1.561 . S
C670 C667 1.526 . S
C670 C671 1.396 1_545 S
C670 C675 1.390 . S
C671 C665 1.465 . S
C671 C670 1.396 1_565 S
C671 C672 1.399 . S
C672 H658 0.929 . S
C672 C671 1.399 . S
C672 C673 1.385 1_565 S
C673 H659 0.931 . S
C673 C672 1.385 1_545 S
C673 C674 1.389 . S
C674 C673 1.389 . S
C674 C675 1.387 . S
C675 H660 0.930 . S
C675 C670 1.390 . S
C675 C674 1.387 . S
H676 C688 0.930 . S
H677 C690 0.930 . S
H678 C691 0.930 1_556 S
H679 C695 0.959 . S
H680 C695 0.959 . S
H681 C695 0.961 . S
H682 C696 0.960 . S
H683 C696 0.961 . S
H684 C696 0.959 . S
H685 C699 0.929 . S
H686 C700 0.931 . S
H687 C702 0.930 . S
C688 H676 0.930 . S
C688 C689 1.399 . S
C688 C693 1.399 . S
C689 C688 1.399 . S
C689 C690 1.376 . S
C690 H677 0.930 . S
C690 C689 1.376 . S
C690 C691 1.388 . S
C691 H678 0.930 1_554 S
C691 C690 1.388 . S
C691 C692 1.390 . S
C692 C691 1.390 . S
C692 C693 1.394 . S
C692 C698 1.465 1_554 S
C693 C688 1.399 . S
C693 C692 1.394 . S
C693 C694 1.516 . S
C694 C693 1.516 . S
C694 C695 1.502 . S
C694 C696 1.561 . S
C694 C697 1.526 1_554 S
C695 H679 0.959 . S
C695 H680 0.959 . S
C695 H681 0.961 . S
C695 C694 1.502 . S
C696 H682 0.960 . S
C696 H683 0.961 . S
C696 H684 0.959 . S
C696 C694 1.561 . S
C697 C694 1.526 1_556 S
C697 C698 1.396 . S
C697 C702 1.390 . S
C698 C692 1.465 1_556 S
C698 C697 1.396 . S
C698 C699 1.399 . S
C699 H685 0.929 . S
C699 C698 1.399 . S
C699 C700 1.385 . S
C700 H686 0.931 . S
C700 C699 1.385 . S
C700 C701 1.389 . S
C701 C700 1.389 . S
C701 C702 1.387 . S
C702 H687 0.930 . S
C702 C697 1.390 . S
C702 C701 1.387 . S
H703 C715 0.930 . S
H704 C717 0.930 . S
H705 C718 0.930 . S
H706 C722 0.959 . S
H707 C722 0.959 . S
H708 C722 0.961 . S
H709 C723 0.960 . S
H710 C723 0.961 . S
H711 C723 0.959 . S
H712 C726 0.929 . S
H713 C727 0.931 . S
H714 C729 0.930 . S
C715 H703 0.930 . S
C715 C716 1.399 . S
C715 C720 1.399 . S
C716 C715 1.399 . S
C716 C717 1.376 . S
C717 H704 0.930 . S
C717 C716 1.376 . S
C717 C718 1.388 . S
C718 H705 0.930 . S
C718 C717 1.388 . S
C718 C719 1.390 . S
C719 C718 1.390 . S
C719 C720 1.394 . S
C719 C725 1.465 . S
C720 C715 1.399 . S
C720 C719 1.394 . S
C720 C721 1.516 . S
C721 C720 1.516 . S
C721 C722 1.502 . S
C721 C723 1.561 . S
C721 C724 1.526 . S
C722 H706 0.959 . S
C722 H707 0.959 . S
C722 H708 0.961 . S
C722 C721 1.502 . S
C723 H709 0.960 . S
C723 H710 0.961 . S
C723 H711 0.959 . S
C723 C721 1.561 . S
C724 C721 1.526 . S
C724 C725 1.396 . S
C724 C729 1.390 . S
C725 C719 1.465 . S
C725 C724 1.396 . S
C725 C726 1.399 . S
C726 H712 0.929 . S
C726 C725 1.399 . S
C726 C727 1.385 . S
C727 H713 0.931 . S
C727 C726 1.385 . S
C727 C728 1.389 . S
C728 C727 1.389 . S
C728 C729 1.387 . S
C729 H714 0.930 . S
C729 C724 1.390 . S
C729 C728 1.387 . S
H730 C742 0.930 . S
H731 C744 0.930 . S
H732 C745 0.930 . S
H733 C749 0.959 . S
H734 C749 0.959 . S
H735 C749 0.961 . S
H736 C750 0.960 . S
H737 C750 0.961 . S
H738 C750 0.959 . S
H739 C753 0.929 1_554 S
H740 C754 0.931 . S
H741 C756 0.930 . S
C742 H730 0.930 . S
C742 C743 1.399 . S
C742 C747 1.399 . S
C743 C742 1.399 . S
C743 C744 1.376 . S
C744 H731 0.930 . S
C744 C743 1.376 . S
C744 C745 1.388 . S
C745 H732 0.930 . S
C745 C744 1.388 . S
C745 C746 1.390 . S
C746 C745 1.390 . S
C746 C747 1.394 . S
C746 C752 1.465 1_554 S
C747 C742 1.399 . S
C747 C746 1.394 . S
C747 C748 1.516 1_554 S
C748 C747 1.516 1_556 S
C748 C749 1.502 . S
C748 C750 1.561 . S
C748 C751 1.526 . S
C749 H733 0.959 . S
C749 H734 0.959 . S
C749 H735 0.961 . S
C749 C748 1.502 . S
C750 H736 0.960 . S
C750 H737 0.961 . S
C750 H738 0.959 . S
C750 C748 1.561 . S
C751 C748 1.526 . S
C751 C752 1.396 . S
C751 C756 1.390 . S
C752 C746 1.465 1_556 S
C752 C751 1.396 . S
C752 C753 1.399 . S
C753 H739 0.929 1_556 S
C753 C752 1.399 . S
C753 C754 1.385 . S
C754 H740 0.931 . S
C754 C753 1.385 . S
C754 C755 1.389 . S
C755 C754 1.389 . S
C755 C756 1.387 . S
C756 H741 0.930 . S
C756 C751 1.390 . S
C756 C755 1.387 . S
H757 C769 0.930 . S
H758 C771 0.930 . S
H759 C772 0.930 . S
H760 C776 0.959 . S
H761 C776 0.959 . S
H762 C776 0.961 . S
H763 C777 0.960 . S
H764 C777 0.961 . S
H765 C777 0.959 . S
H766 C780 0.929 . S
H767 C781 0.931 . S
H768 C783 0.930 . S
C769 H757 0.930 . S
C769 C770 1.399 . S
C769 C774 1.399 . S
C770 C769 1.399 . S
C770 C771 1.376 . S
C771 H758 0.930 . S
C771 C770 1.376 . S
C771 C772 1.388 . S
C772 H759 0.930 . S
C772 C771 1.388 . S
C772 C773 1.390 . S
C773 C772 1.390 . S
C773 C774 1.394 . S
C773 C779 1.465 . S
C774 C769 1.399 . S
C774 C773 1.394 . S
C774 C775 1.516 . S
C775 C774 1.516 . S
C775 C776 1.502 . S
C775 C777 1.561 . S
C775 C778 1.526 . S
C776 H760 0.959 . S
C776 H761 0.959 . S
C776 H762 0.961 . S
C776 C775 1.502 . S
C777 H763 0.960 . S
C777 H764 0.961 . S
C777 H765 0.959 . S
C777 C775 1.561 . S
C778 C775 1.526 . S
C778 C779 1.396 . S
C778 C783 1.390 . S
C779 C773 1.465 . S
C779 C778 1.396 . S
C779 C780 1.399 . S
C780 H766 0.929 . S
C780 C779 1.399 . S
C780 C781 1.385 . S
C781 H767 0.931 . S
C781 C780 1.385 . S
C781 C782 1.389 . S
C782 C781 1.389 . S
C782 C783 1.387 . S
C783 H768 0.930 . S
C783 C778 1.390 . S
C783 C782 1.387 . S
H784 C796 0.930 . S
H785 C798 0.930 . S
H786 C799 0.930 . S
H787 C803 0.959 . S
H788 C803 0.959 . S
H789 C803 0.961 . S
H790 C804 0.960 . S
H791 C804 0.961 . S
H792 C804 0.959 . S
H793 C807 0.929 . S
H794 C808 0.931 . S
H795 C810 0.930 . S
C796 H784 0.930 . S
C796 C797 1.399 . S
C796 C801 1.399 . S
C797 C796 1.399 . S
C797 C798 1.376 . S
C798 H785 0.930 . S
C798 C797 1.376 . S
C798 C799 1.388 . S
C799 H786 0.930 . S
C799 C798 1.388 . S
C799 C800 1.390 . S
C800 C799 1.390 . S
C800 C801 1.394 . S
C800 C806 1.465 . S
C801 C796 1.399 . S
C801 C800 1.394 . S
C801 C802 1.516 . S
C802 C801 1.516 . S
C802 C803 1.502 . S
C802 C804 1.561 . S
C802 C805 1.526 . S
C803 H787 0.959 . S
C803 H788 0.959 . S
C803 H789 0.961 . S
C803 C802 1.502 . S
C804 H790 0.960 . S
C804 H791 0.961 . S
C804 H792 0.959 . S
C804 C802 1.561 . S
C805 C802 1.526 . S
C805 C806 1.396 . S
C805 C810 1.390 . S
C806 C800 1.465 . S
C806 C805 1.396 . S
C806 C807 1.399 . S
C807 H793 0.929 . S
C807 C806 1.399 . S
C807 C808 1.385 . S
C808 H794 0.931 . S
C808 C807 1.385 . S
C808 C809 1.389 . S
C809 C808 1.389 . S
C809 C810 1.387 . S
C810 H795 0.930 . S
C810 C805 1.390 . S
C810 C809 1.387 . S
H811 C823 0.930 . S
H812 C825 0.930 . S
H813 C826 0.930 . S
H814 C830 0.959 . S
H815 C830 0.959 . S
H816 C830 0.961 . S
H817 C831 0.960 . S
H818 C831 0.961 . S
H819 C831 0.959 . S
H820 C834 0.929 . S
H821 C835 0.931 . S
H822 C837 0.930 . S
C823 H811 0.930 . S
C823 C824 1.399 . S
C823 C828 1.399 . S
C824 C823 1.399 . S
C824 C825 1.376 . S
C825 H812 0.930 . S
C825 C824 1.376 . S
C825 C826 1.388 . S
C826 H813 0.930 . S
C826 C825 1.388 . S
C826 C827 1.390 . S
C827 C826 1.390 . S
C827 C828 1.394 . S
C827 C833 1.465 . S
C828 C823 1.399 . S
C828 C827 1.394 . S
C828 C829 1.516 . S
C829 C828 1.516 . S
C829 C830 1.502 . S
C829 C831 1.561 . S
C829 C832 1.526 . S
C830 H814 0.959 . S
C830 H815 0.959 . S
C830 H816 0.961 . S
C830 C829 1.502 . S
C831 H817 0.960 . S
C831 H818 0.961 . S
C831 H819 0.959 . S
C831 C829 1.561 . S
C832 C829 1.526 . S
C832 C833 1.396 . S
C832 C837 1.390 . S
C833 C827 1.465 . S
C833 C832 1.396 . S
C833 C834 1.399 . S
C834 H820 0.929 . S
C834 C833 1.399 . S
C834 C835 1.385 . S
C835 H821 0.931 . S
C835 C834 1.385 . S
C835 C836 1.389 . S
C836 C835 1.389 . S
C836 C837 1.387 . S
C837 H822 0.930 . S
C837 C832 1.390 . S
C837 C836 1.387 . S
H838 C850 0.930 . S
H839 C852 0.930 . S
H840 C853 0.930 . S
H841 C857 0.959 . S
H842 C857 0.959 . S
H843 C857 0.961 . S
H844 C858 0.960 . S
H845 C858 0.961 . S
H846 C858 0.959 . S
H847 C861 0.929 . S
H848 C862 0.931 . S
H849 C864 0.930 . S
C850 H838 0.930 . S
C850 C851 1.399 . S
C850 C855 1.399 . S
C851 C850 1.399 . S
C851 C852 1.376 . S
C852 H839 0.930 . S
C852 C851 1.376 . S
C852 C853 1.388 . S
C853 H840 0.930 . S
C853 C852 1.388 . S
C853 C854 1.390 . S
C854 C853 1.390 . S
C854 C855 1.394 . S
C854 C860 1.465 . S
C855 C850 1.399 . S
C855 C854 1.394 . S
C855 C856 1.516 . S
C856 C855 1.516 . S
C856 C857 1.502 . S
C856 C858 1.561 . S
C856 C859 1.526 . S
C857 H841 0.959 . S
C857 H842 0.959 . S
C857 H843 0.961 . S
C857 C856 1.502 . S
C858 H844 0.960 . S
C858 H845 0.961 . S
C858 H846 0.959 . S
C858 C856 1.561 . S
C859 C856 1.526 . S
C859 C860 1.396 . S
C859 C864 1.390 . S
C860 C854 1.465 . S
C860 C859 1.396 . S
C860 C861 1.399 . S
C861 H847 0.929 . S
C861 C860 1.399 . S
C861 C862 1.385 . S
C862 H848 0.931 . S
C862 C861 1.385 . S
C862 C863 1.389 . S
C863 C862 1.389 . S
C863 C864 1.387 . S
C864 H849 0.930 . S
C864 C859 1.390 . S
C864 C863 1.387 . S
H865 C877 0.930 . S
H866 C879 0.930 . S
H867 C880 0.930 . S
H868 C884 0.959 . S
H869 C884 0.959 . S
H870 C884 0.961 . S
H871 C885 0.960 . S
H872 C885 0.961 . S
H873 C885 0.959 . S
H874 C888 0.929 . S
H875 C889 0.931 . S
H876 C891 0.930 . S
C877 H865 0.930 . S
C877 C878 1.399 . S
C877 C882 1.399 . S
C878 C877 1.399 . S
C878 C879 1.376 . S
C879 H866 0.930 . S
C879 C878 1.376 . S
C879 C880 1.388 . S
C880 H867 0.930 . S
C880 C879 1.388 . S
C880 C881 1.390 . S
C881 C880 1.390 . S
C881 C882 1.394 . S
C881 C887 1.465 . S
C882 C877 1.399 . S
C882 C881 1.394 . S
C882 C883 1.516 . S
C883 C882 1.516 . S
C883 C884 1.502 . S
C883 C885 1.561 . S
C883 C886 1.526 . S
C884 H868 0.959 . S
C884 H869 0.959 . S
C884 H870 0.961 . S
C884 C883 1.502 . S
C885 H871 0.960 . S
C885 H872 0.961 . S
C885 H873 0.959 . S
C885 C883 1.561 . S
C886 C883 1.526 . S
C886 C887 1.396 . S
C886 C891 1.390 . S
C887 C881 1.465 . S
C887 C886 1.396 . S
C887 C888 1.399 . S
C888 H874 0.929 . S
C888 C887 1.399 . S
C888 C889 1.385 . S
C889 H875 0.931 . S
C889 C888 1.385 . S
C889 C890 1.389 . S
C890 C889 1.389 . S
C890 C891 1.387 . S
C891 H876 0.930 . S
C891 C886 1.390 . S
C891 C890 1.387 . S
H892 C904 0.930 . S
H893 C906 0.930 . S
H894 C907 0.930 . S
H895 C911 0.959 . S
H896 C911 0.959 . S
H897 C911 0.961 . S
H898 C912 0.960 . S
H899 C912 0.961 . S
H900 C912 0.959 . S
H901 C915 0.929 . S
H902 C916 0.931 . S
H903 C918 0.930 . S
C904 H892 0.930 . S
C904 C905 1.399 . S
C904 C909 1.399 . S
C905 C904 1.399 . S
C905 C906 1.376 . S
C906 H893 0.930 . S
C906 C905 1.376 . S
C906 C907 1.388 . S
C907 H894 0.930 . S
C907 C906 1.388 . S
C907 C908 1.390 . S
C908 C907 1.390 . S
C908 C909 1.394 . S
C908 C914 1.465 . S
C909 C904 1.399 . S
C909 C908 1.394 . S
C909 C910 1.516 . S
C910 C909 1.516 . S
C910 C911 1.502 . S
C910 C912 1.561 . S
C910 C913 1.526 . S
C911 H895 0.959 . S
C911 H896 0.959 . S
C911 H897 0.961 . S
C911 C910 1.502 . S
C912 H898 0.960 . S
C912 H899 0.961 . S
C912 H900 0.959 . S
C912 C910 1.561 . S
C913 C910 1.526 . S
C913 C914 1.396 . S
C913 C918 1.390 . S
C914 C908 1.465 . S
C914 C913 1.396 . S
C914 C915 1.399 . S
C915 H901 0.929 . S
C915 C914 1.399 . S
C915 C916 1.385 . S
C916 H902 0.931 . S
C916 C915 1.385 . S
C916 C917 1.389 . S
C917 C916 1.389 . S
C917 C918 1.387 . S
C918 H903 0.930 . S
C918 C913 1.390 . S
C918 C917 1.387 . S
H919 C931 0.930 . S
H920 C933 0.930 . S
H921 C934 0.930 . S
H922 C938 0.959 . S
H923 C938 0.959 . S
H924 C938 0.961 . S
H925 C939 0.960 . S
H926 C939 0.961 . S
H927 C939 0.959 . S
H928 C942 0.929 . S
H929 C943 0.931 . S
H930 C945 0.930 . S
C931 H919 0.930 . S
C931 C932 1.399 . S
C931 C936 1.399 . S
C932 C931 1.399 . S
C932 C933 1.376 . S
C933 H920 0.930 . S
C933 C932 1.376 . S
C933 C934 1.388 . S
C934 H921 0.930 . S
C934 C933 1.388 . S
C934 C935 1.390 . S
C935 C934 1.390 . S
C935 C936 1.394 . S
C935 C941 1.465 . S
C936 C931 1.399 . S
C936 C935 1.394 . S
C936 C937 1.516 . S
C937 C936 1.516 . S
C937 C938 1.502 . S
C937 C939 1.561 . S
C937 C940 1.526 . S
C938 H922 0.959 . S
C938 H923 0.959 . S
C938 H924 0.961 . S
C938 C937 1.502 . S
C939 H925 0.960 . S
C939 H926 0.961 . S
C939 H927 0.959 . S
C939 C937 1.561 . S
C940 C937 1.526 . S
C940 C941 1.396 . S
C940 C945 1.390 . S
C941 C935 1.465 . S
C941 C940 1.396 . S
C941 C942 1.399 . S
C942 H928 0.929 . S
C942 C941 1.399 . S
C942 C943 1.385 . S
C943 H929 0.931 . S
C943 C942 1.385 . S
C943 C944 1.389 . S
C944 C943 1.389 . S
C944 C945 1.387 . S
C945 H930 0.930 . S
C945 C940 1.390 . S
C945 C944 1.387 . S
H946 C958 0.930 . S
H947 C960 0.930 . S
H948 C961 0.930 . S
H949 C965 0.959 . S
H950 C965 0.959 . S
H951 C965 0.961 . S
H952 C966 0.960 . S
H953 C966 0.961 . S
H954 C966 0.959 . S
H955 C969 0.929 . S
H956 C970 0.931 . S
H957 C972 0.930 . S
C958 H946 0.930 . S
C958 C959 1.399 . S
C958 C963 1.399 . S
C959 C958 1.399 . S
C959 C960 1.376 . S
C960 H947 0.930 . S
C960 C959 1.376 . S
C960 C961 1.388 . S
C961 H948 0.930 . S
C961 C960 1.388 . S
C961 C962 1.390 . S
C962 C961 1.390 . S
C962 C963 1.394 . S
C962 C968 1.465 . S
C963 C958 1.399 . S
C963 C962 1.394 . S
C963 C964 1.516 . S
C964 C963 1.516 . S
C964 C965 1.502 . S
C964 C966 1.561 . S
C964 C967 1.526 . S
C965 H949 0.959 . S
C965 H950 0.959 . S
C965 H951 0.961 . S
C965 C964 1.502 . S
C966 H952 0.960 . S
C966 H953 0.961 . S
C966 H954 0.959 . S
C966 C964 1.561 . S
C967 C964 1.526 . S
C967 C968 1.396 . S
C967 C972 1.390 . S
C968 C962 1.465 . S
C968 C967 1.396 . S
C968 C969 1.399 . S
C969 H955 0.929 . S
C969 C968 1.399 . S
C969 C970 1.385 . S
C970 H956 0.931 . S
C970 C969 1.385 . S
C970 C971 1.389 . S
C971 C970 1.389 . S
C971 C972 1.387 . S
C972 H957 0.930 . S
C972 C967 1.390 . S
C972 C971 1.387 . S
H973 C985 0.930 . S
H974 C987 0.930 . S
H975 C988 0.930 . S
H976 C992 0.959 . S
H977 C992 0.959 . S
H978 C992 0.961 . S
H979 C993 0.960 . S
H980 C993 0.961 . S
H981 C993 0.959 . S
H982 C996 0.929 . S
H983 C997 0.931 . S
H984 C999 0.930 . S
C985 H973 0.930 . S
C985 C986 1.399 . S
C985 C990 1.399 . S
C986 C985 1.399 . S
C986 C987 1.376 . S
C987 H974 0.930 . S
C987 C986 1.376 . S
C987 C988 1.388 . S
C988 H975 0.930 . S
C988 C987 1.388 . S
C988 C989 1.390 . S
C989 C988 1.390 . S
C989 C990 1.394 . S
C989 C995 1.465 . S
C990 C985 1.399 . S
C990 C989 1.394 . S
C990 C991 1.516 . S
C991 C990 1.516 . S
C991 C992 1.502 . S
C991 C993 1.561 . S
C991 C994 1.526 . S
C992 H976 0.959 . S
C992 H977 0.959 . S
C992 H978 0.961 . S
C992 C991 1.502 . S
C993 H979 0.960 . S
C993 H980 0.961 . S
C993 H981 0.959 . S
C993 C991 1.561 . S
C994 C991 1.526 . S
C994 C995 1.396 . S
C994 C999 1.390 . S
C995 C989 1.465 . S
C995 C994 1.396 . S
C995 C996 1.399 . S
C996 H982 0.929 . S
C996 C995 1.399 . S
C996 C997 1.385 . S
C997 H983 0.931 . S
C997 C996 1.385 . S
C997 C998 1.389 . S
C998 C997 1.389 . S
C998 C999 1.387 . S
C999 H984 0.930 . S
C999 C994 1.390 . S
C999 C998 1.387 . S
H1000 C1012 0.930 . S
H1001 C1014 0.930 . S
H1002 C1015 0.930 . S
H1003 C1019 0.959 . S
H1004 C1019 0.959 . S
H1005 C1019 0.961 . S
H1006 C1020 0.960 . S
H1007 C1020 0.961 . S
H1008 C1020 0.959 . S
H1009 C1023 0.929 . S
H1010 C1024 0.931 . S
H1011 C1026 0.930 . S
C1012 H1000 0.930 . S
C1012 C1013 1.399 . S
C1012 C1017 1.399 . S
C1013 C1012 1.399 . S
C1013 C1014 1.376 . S
C1014 H1001 0.930 . S
C1014 C1013 1.376 . S
C1014 C1015 1.388 . S
C1015 H1002 0.930 . S
C1015 C1014 1.388 . S
C1015 C1016 1.390 . S
C1016 C1015 1.390 . S
C1016 C1017 1.394 . S
C1016 C1022 1.465 . S
C1017 C1012 1.399 . S
C1017 C1016 1.394 . S
C1017 C1018 1.516 . S
C1018 C1017 1.516 . S
C1018 C1019 1.502 . S
C1018 C1020 1.561 . S
C1018 C1021 1.526 . S
C1019 H1003 0.959 . S
C1019 H1004 0.959 . S
C1019 H1005 0.961 . S
C1019 C1018 1.502 . S
C1020 H1006 0.960 . S
C1020 H1007 0.961 . S
C1020 H1008 0.959 . S
C1020 C1018 1.561 . S
C1021 C1018 1.526 . S
C1021 C1022 1.396 . S
C1021 C1026 1.390 . S
C1022 C1016 1.465 . S
C1022 C1021 1.396 . S
C1022 C1023 1.399 . S
C1023 H1009 0.929 . S
C1023 C1022 1.399 . S
C1023 C1024 1.385 . S
C1024 H1010 0.931 . S
C1024 C1023 1.385 . S
C1024 C1025 1.389 . S
C1025 C1024 1.389 . S
C1025 C1026 1.387 . S
C1026 H1011 0.930 . S
C1026 C1021 1.390 . S
C1026 C1025 1.387 . S
H1027 C1039 0.930 . S
H1028 C1041 0.930 . S
H1029 C1042 0.930 . S
H1030 C1046 0.962 . S
H1031 C1046 0.980 . S
H1032 C1046 0.938 1_455 S
H1033 C1047 0.956 1_455 S
H1034 C1047 0.964 . S
H1035 C1047 0.959 . S
H1036 C1050 0.929 . S
H1037 C1051 0.931 . S
H1038 C1053 0.930 . S
C1039 H1027 0.930 . S
C1039 C1040 1.399 . S
C1039 C1044 1.399 . S
C1040 C1039 1.399 . S
C1040 C1041 1.376 . S
C1041 H1028 0.930 . S
C1041 C1040 1.376 . S
C1041 C1042 1.388 . S
C1042 H1029 0.930 . S
C1042 C1041 1.388 . S
C1042 C1043 1.390 . S
C1043 C1042 1.390 . S
C1043 C1044 1.394 . S
C1043 C1049 1.465 1_455 S
C1044 C1039 1.399 . S
C1044 C1043 1.394 . S
C1044 C1045 1.516 1_455 S
C1045 C1044 1.516 1_655 S
C1045 C1046 1.502 . S
C1045 C1047 1.561 . S
C1045 C1048 1.526 . S
C1046 H1030 0.962 . S
C1046 H1031 0.980 . S
C1046 H1032 0.938 1_655 S
C1046 C1045 1.502 . S
C1047 H1033 0.956 1_655 S
C1047 H1034 0.964 . S
C1047 H1035 0.959 . S
C1047 C1045 1.561 . S
C1048 C1045 1.526 . S
C1048 C1049 1.396 . S
C1048 C1053 1.390 . S
C1049 C1043 1.465 1_655 S
C1049 C1048 1.396 . S
C1049 C1050 1.399 . S
C1050 H1036 0.929 . S
C1050 C1049 1.399 . S
C1050 C1051 1.385 . S
C1051 H1037 0.931 . S
C1051 C1050 1.385 . S
C1051 C1052 1.389 . S
C1052 C1051 1.389 . S
C1052 C1053 1.387 . S
C1053 H1038 0.930 . S
C1053 C1048 1.390 . S
C1053 C1052 1.387 . S
H1054 C1066 0.930 . S
H1055 C1068 0.930 . S
H1056 C1069 0.930 . S
H1057 C1073 0.959 . S
H1058 C1073 0.959 . S
H1059 C1073 0.961 . S
H1060 C1074 0.960 . S
H1061 C1074 0.961 . S
H1062 C1074 0.959 . S
H1063 C1077 0.929 . S
H1064 C1078 0.931 . S
H1065 C1080 0.930 . S
C1066 H1054 0.930 . S
C1066 C1067 1.399 . S
C1066 C1071 1.399 . S
C1067 C1066 1.399 . S
C1067 C1068 1.376 . S
C1068 H1055 0.930 . S
C1068 C1067 1.376 . S
C1068 C1069 1.388 . S
C1069 H1056 0.930 . S
C1069 C1068 1.388 . S
C1069 C1070 1.390 . S
C1070 C1069 1.390 . S
C1070 C1071 1.394 . S
C1070 C1076 1.465 . S
C1071 C1066 1.399 . S
C1071 C1070 1.394 . S
C1071 C1072 1.516 . S
C1072 C1071 1.516 . S
C1072 C1073 1.502 . S
C1072 C1074 1.561 . S
C1072 C1075 1.526 . S
C1073 H1057 0.959 . S
C1073 H1058 0.959 . S
C1073 H1059 0.961 . S
C1073 C1072 1.502 . S
C1074 H1060 0.960 . S
C1074 H1061 0.961 . S
C1074 H1062 0.959 . S
C1074 C1072 1.561 . S
C1075 C1072 1.526 . S
C1075 C1076 1.396 . S
C1075 C1080 1.390 . S
C1076 C1070 1.465 . S
C1076 C1075 1.396 . S
C1076 C1077 1.399 . S
C1077 H1063 0.929 . S
C1077 C1076 1.399 . S
C1077 C1078 1.385 . S
C1078 H1064 0.931 . S
C1078 C1077 1.385 . S
C1078 C1079 1.389 . S
C1079 C1078 1.389 . S
C1079 C1080 1.387 . S
C1080 H1065 0.930 . S
C1080 C1075 1.390 . S
C1080 C1079 1.387 . S
H1081 C1093 0.930 . S
H1082 C1095 0.930 . S
H1083 C1096 0.930 . S
H1084 C1100 0.962 . S
H1085 C1100 0.980 . S
H1086 C1100 0.938 1_655 S
H1087 C1101 0.956 1_655 S
H1088 C1101 0.964 . S
H1089 C1101 0.959 . S
H1090 C1104 0.929 . S
H1091 C1105 0.931 . S
H1092 C1107 0.930 . S
C1093 H1081 0.930 . S
C1093 C1094 1.399 . S
C1093 C1098 1.399 . S
C1094 C1093 1.399 . S
C1094 C1095 1.376 . S
C1095 H1082 0.930 . S
C1095 C1094 1.376 . S
C1095 C1096 1.388 . S
C1096 H1083 0.930 . S
C1096 C1095 1.388 . S
C1096 C1097 1.390 . S
C1097 C1096 1.390 . S
C1097 C1098 1.394 . S
C1097 C1103 1.465 1_655 S
C1098 C1093 1.399 . S
C1098 C1097 1.394 . S
C1098 C1099 1.516 1_655 S
C1099 C1098 1.516 1_455 S
C1099 C1100 1.502 . S
C1099 C1101 1.561 . S
C1099 C1102 1.526 . S
C1100 H1084 0.962 . S
C1100 H1085 0.980 . S
C1100 H1086 0.938 1_455 S
C1100 C1099 1.502 . S
C1101 H1087 0.956 1_455 S
C1101 H1088 0.964 . S
C1101 H1089 0.959 . S
C1101 C1099 1.561 . S
C1102 C1099 1.526 . S
C1102 C1103 1.396 . S
C1102 C1107 1.390 . S
C1103 C1097 1.465 1_455 S
C1103 C1102 1.396 . S
C1103 C1104 1.399 . S
C1104 H1090 0.929 . S
C1104 C1103 1.399 . S
C1104 C1105 1.385 . S
C1105 H1091 0.931 . S
C1105 C1104 1.385 . S
C1105 C1106 1.389 . S
C1106 C1105 1.389 . S
C1106 C1107 1.387 . S
C1107 H1092 0.930 . S
C1107 C1102 1.390 . S
C1107 C1106 1.387 . S
H1108 C1120 0.930 . S
H1109 C1122 0.930 . S
H1110 C1123 0.930 . S
H1111 C1127 0.962 . S
H1112 C1127 0.980 . S
H1113 C1127 0.938 1_655 S
H1114 C1128 0.956 1_655 S
H1115 C1128 0.964 . S
H1116 C1128 0.959 . S
H1117 C1131 0.929 . S
H1118 C1132 0.931 . S
H1119 C1134 0.930 . S
C1120 H1108 0.930 . S
C1120 C1121 1.399 . S
C1120 C1125 1.399 . S
C1121 C1120 1.399 . S
C1121 C1122 1.376 . S
C1122 H1109 0.930 . S
C1122 C1121 1.376 . S
C1122 C1123 1.388 . S
C1123 H1110 0.930 . S
C1123 C1122 1.388 . S
C1123 C1124 1.390 . S
C1124 C1123 1.390 . S
C1124 C1125 1.394 . S
C1124 C1130 1.465 1_655 S
C1125 C1120 1.399 . S
C1125 C1124 1.394 . S
C1125 C1126 1.516 1_655 S
C1126 C1125 1.516 1_455 S
C1126 C1127 1.502 . S
C1126 C1128 1.561 . S
C1126 C1129 1.526 . S
C1127 H1111 0.962 . S
C1127 H1112 0.980 . S
C1127 H1113 0.938 1_455 S
C1127 C1126 1.502 . S
C1128 H1114 0.956 1_455 S
C1128 H1115 0.964 . S
C1128 H1116 0.959 . S
C1128 C1126 1.561 . S
C1129 C1126 1.526 . S
C1129 C1130 1.396 . S
C1129 C1134 1.390 . S
C1130 C1124 1.465 1_455 S
C1130 C1129 1.396 . S
C1130 C1131 1.399 . S
C1131 H1117 0.929 . S
C1131 C1130 1.399 . S
C1131 C1132 1.385 . S
C1132 H1118 0.931 . S
C1132 C1131 1.385 . S
C1132 C1133 1.389 . S
C1133 C1132 1.389 . S
C1133 C1134 1.387 . S
C1134 H1119 0.930 . S
C1134 C1129 1.390 . S
C1134 C1133 1.387 . S
H1135 C1147 0.930 . S
H1136 C1149 0.930 . S
H1137 C1150 0.930 . S
H1138 C1154 0.959 . S
H1139 C1154 0.959 . S
H1140 C1154 0.961 . S
H1141 C1155 0.960 . S
H1142 C1155 0.961 . S
H1143 C1155 0.959 . S
H1144 C1158 0.929 . S
H1145 C1159 0.931 . S
H1146 C1161 0.930 . S
C1147 H1135 0.930 . S
C1147 C1148 1.399 . S
C1147 C1152 1.399 . S
C1148 C1147 1.399 . S
C1148 C1149 1.376 . S
C1149 H1136 0.930 . S
C1149 C1148 1.376 . S
C1149 C1150 1.388 . S
C1150 H1137 0.930 . S
C1150 C1149 1.388 . S
C1150 C1151 1.390 . S
C1151 C1150 1.390 . S
C1151 C1152 1.394 . S
C1151 C1157 1.465 . S
C1152 C1147 1.399 . S
C1152 C1151 1.394 . S
C1152 C1153 1.516 . S
C1153 C1152 1.516 . S
C1153 C1154 1.502 . S
C1153 C1155 1.561 . S
C1153 C1156 1.526 . S
C1154 H1138 0.959 . S
C1154 H1139 0.959 . S
C1154 H1140 0.961 . S
C1154 C1153 1.502 . S
C1155 H1141 0.960 . S
C1155 H1142 0.961 . S
C1155 H1143 0.959 . S
C1155 C1153 1.561 . S
C1156 C1153 1.526 . S
C1156 C1157 1.396 . S
C1156 C1161 1.390 . S
C1157 C1151 1.465 . S
C1157 C1156 1.396 . S
C1157 C1158 1.399 . S
C1158 H1144 0.929 . S
C1158 C1157 1.399 . S
C1158 C1159 1.385 . S
C1159 H1145 0.931 . S
C1159 C1158 1.385 . S
C1159 C1160 1.389 . S
C1160 C1159 1.389 . S
C1160 C1161 1.387 . S
C1161 H1146 0.930 . S
C1161 C1156 1.390 . S
C1161 C1160 1.387 . S
H1162 C1174 0.930 . S
H1163 C1176 0.930 . S
H1164 C1177 0.930 . S
H1165 C1181 0.962 . S
H1166 C1181 0.980 . S
H1167 C1181 0.938 1_455 S
H1168 C1182 0.956 1_455 S
H1169 C1182 0.964 . S
H1170 C1182 0.959 . S
H1171 C1185 0.929 . S
H1172 C1186 0.931 . S
H1173 C1188 0.930 . S
C1174 H1162 0.930 . S
C1174 C1175 1.399 . S
C1174 C1179 1.399 . S
C1175 C1174 1.399 . S
C1175 C1176 1.376 . S
C1176 H1163 0.930 . S
C1176 C1175 1.376 . S
C1176 C1177 1.388 . S
C1177 H1164 0.930 . S
C1177 C1176 1.388 . S
C1177 C1178 1.390 . S
C1178 C1177 1.390 . S
C1178 C1179 1.394 . S
C1178 C1184 1.465 1_455 S
C1179 C1174 1.399 . S
C1179 C1178 1.394 . S
C1179 C1180 1.516 1_455 S
C1180 C1179 1.516 1_655 S
C1180 C1181 1.502 . S
C1180 C1182 1.561 . S
C1180 C1183 1.526 . S
C1181 H1165 0.962 . S
C1181 H1166 0.980 . S
C1181 H1167 0.938 1_655 S
C1181 C1180 1.502 . S
C1182 H1168 0.956 1_655 S
C1182 H1169 0.964 . S
C1182 H1170 0.959 . S
C1182 C1180 1.561 . S
C1183 C1180 1.526 . S
C1183 C1184 1.396 . S
C1183 C1188 1.390 . S
C1184 C1178 1.465 1_655 S
C1184 C1183 1.396 . S
C1184 C1185 1.399 . S
C1185 H1171 0.929 . S
C1185 C1184 1.399 . S
C1185 C1186 1.385 . S
C1186 H1172 0.931 . S
C1186 C1185 1.385 . S
C1186 C1187 1.389 . S
C1187 C1186 1.389 . S
C1187 C1188 1.387 . S
C1188 H1173 0.930 . S
C1188 C1183 1.390 . S
C1188 C1187 1.387 . S
H1189 C1201 0.930 . S
H1190 C1203 0.930 . S
H1191 C1204 0.930 . S
H1192 C1208 0.959 . S
H1193 C1208 0.959 . S
H1194 C1208 0.961 . S
H1195 C1209 0.960 . S
H1196 C1209 0.961 . S
H1197 C1209 0.959 . S
H1198 C1212 0.929 . S
H1199 C1213 0.931 . S
H1200 C1215 0.930 . S
C1201 H1189 0.930 . S
C1201 C1202 1.399 . S
C1201 C1206 1.399 . S
C1202 C1201 1.399 . S
C1202 C1203 1.376 . S
C1203 H1190 0.930 . S
C1203 C1202 1.376 . S
C1203 C1204 1.388 . S
C1204 H1191 0.930 . S
C1204 C1203 1.388 . S
C1204 C1205 1.390 . S
C1205 C1204 1.390 . S
C1205 C1206 1.394 . S
C1205 C1211 1.465 . S
C1206 C1201 1.399 . S
C1206 C1205 1.394 . S
C1206 C1207 1.516 . S
C1207 C1206 1.516 . S
C1207 C1208 1.502 . S
C1207 C1209 1.561 . S
C1207 C1210 1.526 . S
C1208 H1192 0.959 . S
C1208 H1193 0.959 . S
C1208 H1194 0.961 . S
C1208 C1207 1.502 . S
C1209 H1195 0.960 . S
C1209 H1196 0.961 . S
C1209 H1197 0.959 . S
C1209 C1207 1.561 . S
C1210 C1207 1.526 . S
C1210 C1211 1.396 . S
C1210 C1215 1.390 . S
C1211 C1205 1.465 . S
C1211 C1210 1.396 . S
C1211 C1212 1.399 . S
C1212 H1198 0.929 . S
C1212 C1211 1.399 . S
C1212 C1213 1.385 . S
C1213 H1199 0.931 . S
C1213 C1212 1.385 . S
C1213 C1214 1.389 . S
C1214 C1213 1.389 . S
C1214 C1215 1.387 . S
C1215 H1200 0.930 . S
C1215 C1210 1.390 . S
C1215 C1214 1.387 . S
H1216 C1228 0.930 . S
H1217 C1230 0.930 . S
H1218 C1231 0.926 1_565 S
H1219 C1235 0.959 . S
H1220 C1235 0.959 . S
H1221 C1235 0.961 . S
H1222 C1236 0.960 . S
H1223 C1236 0.961 . S
H1224 C1236 0.959 . S
H1225 C1239 0.929 . S
H1226 C1240 0.931 . S
H1227 C1242 0.930 . S
C1228 H1216 0.930 . S
C1228 C1229 1.399 . S
C1228 C1233 1.399 1_545 S
C1229 C1228 1.399 . S
C1229 C1230 1.376 . S
C1230 H1217 0.930 . S
C1230 C1229 1.376 . S
C1230 C1231 1.407 . S
C1231 H1218 0.926 1_545 S
C1231 C1230 1.407 . S
C1231 C1232 1.376 1_545 S
C1232 C1231 1.376 1_565 S
C1232 C1233 1.394 . S
C1232 C1238 1.465 . S
C1233 C1228 1.399 1_565 S
C1233 C1232 1.394 . S
C1233 C1234 1.516 . S
C1234 C1233 1.516 . S
C1234 C1235 1.502 . S
C1234 C1236 1.561 . S
C1234 C1237 1.526 . S
C1235 H1219 0.959 . S
C1235 H1220 0.959 . S
C1235 H1221 0.961 . S
C1235 C1234 1.502 . S
C1236 H1222 0.960 . S
C1236 H1223 0.961 . S
C1236 H1224 0.959 . S
C1236 C1234 1.561 . S
C1237 C1234 1.526 . S
C1237 C1238 1.396 . S
C1237 C1242 1.390 . S
C1238 C1232 1.465 . S
C1238 C1237 1.396 . S
C1238 C1239 1.399 . S
C1239 H1225 0.929 . S
C1239 C1238 1.399 . S
C1239 C1240 1.385 . S
C1240 H1226 0.931 . S
C1240 C1239 1.385 . S
C1240 C1241 1.389 . S
C1241 C1240 1.389 . S
C1241 C1242 1.387 . S
C1242 H1227 0.930 . S
C1242 C1237 1.390 . S
C1242 C1241 1.387 . S
H1243 C1255 0.930 . S
H1244 C1257 0.930 . S
H1245 C1258 0.930 . S
H1246 C1262 0.959 . S
H1247 C1262 0.959 . S
H1248 C1262 0.961 . S
H1249 C1263 0.960 . S
H1250 C1263 0.961 . S
H1251 C1263 0.959 . S
H1252 C1266 0.929 . S
H1253 C1267 0.931 . S
H1254 C1269 0.930 . S
C1255 H1243 0.930 . S
C1255 C1256 1.399 . S
C1255 C1260 1.399 1_565 S
C1256 C1255 1.399 . S
C1256 C1257 1.376 . S
C1257 H1244 0.930 . S
C1257 C1256 1.376 . S
C1257 C1258 1.388 1_565 S
C1258 H1245 0.930 . S
C1258 C1257 1.388 1_545 S
C1258 C1259 1.390 . S
C1259 C1258 1.390 . S
C1259 C1260 1.394 . S
C1259 C1265 1.465 . S
C1260 C1255 1.399 1_545 S
C1260 C1259 1.394 . S
C1260 C1261 1.516 . S
C1261 C1260 1.516 . S
C1261 C1262 1.502 . S
C1261 C1263 1.561 . S
C1261 C1264 1.526 . S
C1262 H1246 0.959 . S
C1262 H1247 0.959 . S
C1262 H1248 0.961 . S
C1262 C1261 1.502 . S
C1263 H1249 0.960 . S
C1263 H1250 0.961 . S
C1263 H1251 0.959 . S
C1263 C1261 1.561 . S
C1264 C1261 1.526 . S
C1264 C1265 1.396 . S
C1264 C1269 1.390 . S
C1265 C1259 1.465 . S
C1265 C1264 1.396 . S
C1265 C1266 1.399 . S
C1266 H1252 0.929 . S
C1266 C1265 1.399 . S
C1266 C1267 1.385 . S
C1267 H1253 0.931 . S
C1267 C1266 1.385 . S
C1267 C1268 1.389 . S
C1268 C1267 1.389 . S
C1268 C1269 1.387 . S
C1269 H1254 0.930 . S
C1269 C1264 1.390 . S
C1269 C1268 1.387 . S
H1270 C1282 0.930 . S
H1271 C1284 0.930 . S
H1272 C1285 0.930 . S
H1273 C1289 0.959 . S
H1274 C1289 0.959 1_565 S
H1275 C1289 0.961 . S
H1276 C1290 0.960 . S
H1277 C1290 0.961 . S
H1278 C1290 0.959 . S
H1279 C1293 0.929 . S
H1280 C1294 0.931 . S
H1281 C1296 0.930 . S
C1282 H1270 0.930 . S
C1282 C1283 1.399 . S
C1282 C1287 1.399 . S
C1283 C1282 1.399 . S
C1283 C1284 1.376 . S
C1284 H1271 0.930 . S
C1284 C1283 1.376 . S
C1284 C1285 1.388 . S
C1285 H1272 0.930 . S
C1285 C1284 1.388 . S
C1285 C1286 1.390 . S
C1286 C1285 1.390 . S
C1286 C1287 1.394 . S
C1286 C1292 1.465 . S
C1287 C1282 1.399 . S
C1287 C1286 1.394 . S
C1287 C1288 1.516 . S
C1288 C1287 1.516 . S
C1288 C1289 1.502 . S
C1288 C1290 1.561 . S
C1288 C1291 1.526 . S
C1289 H1273 0.959 . S
C1289 H1274 0.959 1_545 S
C1289 H1275 0.961 . S
C1289 C1288 1.502 . S
C1290 H1276 0.960 . S
C1290 H1277 0.961 . S
C1290 H1278 0.959 . S
C1290 C1288 1.561 . S
C1291 C1288 1.526 . S
C1291 C1292 1.396 . S
C1291 C1296 1.390 1_545 S
C1292 C1286 1.465 . S
C1292 C1291 1.396 . S
C1292 C1293 1.399 . S
C1293 H1279 0.929 . S
C1293 C1292 1.399 . S
C1293 C1294 1.385 1_545 S
C1294 H1280 0.931 . S
C1294 C1293 1.385 1_565 S
C1294 C1295 1.389 . S
C1295 C1294 1.389 . S
C1295 C1296 1.387 . S
C1296 H1281 0.930 . S
C1296 C1291 1.390 1_565 S
C1296 C1295 1.387 . S
H1297 C1309 0.930 . S
H1298 C1311 0.930 . S
H1299 C1312 0.930 . S
H1300 C1316 0.959 . S
H1301 C1316 0.959 . S
H1302 C1316 0.961 . S
H1303 C1317 0.960 . S
H1304 C1317 0.961 . S
H1305 C1317 0.959 . S
H1306 C1320 0.929 . S
H1307 C1321 0.931 . S
H1308 C1323 0.930 . S
C1309 H1297 0.930 . S
C1309 C1310 1.399 . S
C1309 C1314 1.399 . S
C1310 C1309 1.399 . S
C1310 C1311 1.376 . S
C1311 H1298 0.930 . S
C1311 C1310 1.376 . S
C1311 C1312 1.388 . S
C1312 H1299 0.930 . S
C1312 C1311 1.388 . S
C1312 C1313 1.390 . S
C1313 C1312 1.390 . S
C1313 C1314 1.394 . S
C1313 C1319 1.465 . S
C1314 C1309 1.399 . S
C1314 C1313 1.394 . S
C1314 C1315 1.516 . S
C1315 C1314 1.516 . S
C1315 C1316 1.502 . S
C1315 C1317 1.561 . S
C1315 C1318 1.526 . S
C1316 H1300 0.959 . S
C1316 H1301 0.959 . S
C1316 H1302 0.961 . S
C1316 C1315 1.502 . S
C1317 H1303 0.960 . S
C1317 H1304 0.961 . S
C1317 H1305 0.959 . S
C1317 C1315 1.561 . S
C1318 C1315 1.526 . S
C1318 C1319 1.396 . S
C1318 C1323 1.390 1_565 S
C1319 C1313 1.465 . S
C1319 C1318 1.396 . S
C1319 C1320 1.399 1_565 S
C1320 H1306 0.929 . S
C1320 C1319 1.399 1_545 S
C1320 C1321 1.385 . S
C1321 H1307 0.931 . S
C1321 C1320 1.385 . S
C1321 C1322 1.389 . S
C1322 C1321 1.389 . S
C1322 C1323 1.387 . S
C1323 H1308 0.930 . S
C1323 C1318 1.390 1_545 S
C1323 C1322 1.387 . S
H1324 C1336 0.930 . S
H1325 C1338 0.930 . S
H1326 C1339 0.930 . S
H1327 C1343 0.959 . S
H1328 C1343 0.959 . S
H1329 C1343 0.961 . S
H1330 C1344 0.960 . S
H1331 C1344 0.961 . S
H1332 C1344 0.959 . S
H1333 C1347 0.929 . S
H1334 C1348 0.931 . S
H1335 C1350 0.930 . S
C1336 H1324 0.930 . S
C1336 C1337 1.399 . S
C1336 C1341 1.399 . S
C1337 C1336 1.399 . S
C1337 C1338 1.376 . S
C1338 H1325 0.930 . S
C1338 C1337 1.376 . S
C1338 C1339 1.388 . S
C1339 H1326 0.930 . S
C1339 C1338 1.388 . S
C1339 C1340 1.390 . S
C1340 C1339 1.390 . S
C1340 C1341 1.394 . S
C1340 C1346 1.465 . S
C1341 C1336 1.399 . S
C1341 C1340 1.394 . S
C1341 C1342 1.516 . S
C1342 C1341 1.516 . S
C1342 C1343 1.502 . S
C1342 C1344 1.561 . S
C1342 C1345 1.526 . S
C1343 H1327 0.959 . S
C1343 H1328 0.959 . S
C1343 H1329 0.961 . S
C1343 C1342 1.502 . S
C1344 H1330 0.960 . S
C1344 H1331 0.961 . S
C1344 H1332 0.959 . S
C1344 C1342 1.561 . S
C1345 C1342 1.526 . S
C1345 C1346 1.396 . S
C1345 C1350 1.390 1_545 S
C1346 C1340 1.465 . S
C1346 C1345 1.396 . S
C1346 C1347 1.399 . S
C1347 H1333 0.929 . S
C1347 C1346 1.399 . S
C1347 C1348 1.385 1_545 S
C1348 H1334 0.931 . S
C1348 C1347 1.385 1_565 S
C1348 C1349 1.389 . S
C1349 C1348 1.389 . S
C1349 C1350 1.387 . S
C1350 H1335 0.930 . S
C1350 C1345 1.390 1_565 S
C1350 C1349 1.387 . S
H1351 C1363 0.930 . S
H1352 C1365 0.930 . S
H1353 C1366 0.930 1_565 S
H1354 C1370 0.959 . S
H1355 C1370 0.959 . S
H1356 C1370 0.961 . S
H1357 C1371 0.960 . S
H1358 C1371 0.961 . S
H1359 C1371 0.959 . S
H1360 C1374 0.929 . S
H1361 C1375 0.931 . S
H1362 C1377 0.930 . S
C1363 H1351 0.930 . S
C1363 C1364 1.399 . S
C1363 C1368 1.399 1_545 S
C1364 C1363 1.399 . S
C1364 C1365 1.376 . S
C1365 H1352 0.930 . S
C1365 C1364 1.376 . S
C1365 C1366 1.388 . S
C1366 H1353 0.930 1_545 S
C1366 C1365 1.388 . S
C1366 C1367 1.390 1_545 S
C1367 C1366 1.390 1_565 S
C1367 C1368 1.394 . S
C1367 C1373 1.465 . S
C1368 C1363 1.399 1_565 S
C1368 C1367 1.394 . S
C1368 C1369 1.516 . S
C1369 C1368 1.516 . S
C1369 C1370 1.502 . S
C1369 C1371 1.561 . S
C1369 C1372 1.526 . S
C1370 H1354 0.959 . S
C1370 H1355 0.959 . S
C1370 H1356 0.961 . S
C1370 C1369 1.502 . S
C1371 H1357 0.960 . S
C1371 H1358 0.961 . S
C1371 H1359 0.959 . S
C1371 C1369 1.561 . S
C1372 C1369 1.526 . S
C1372 C1373 1.396 . S
C1372 C1377 1.390 . S
C1373 C1367 1.465 . S
C1373 C1372 1.396 . S
C1373 C1374 1.399 . S
C1374 H1360 0.929 . S
C1374 C1373 1.399 . S
C1374 C1375 1.385 . S
C1375 H1361 0.931 . S
C1375 C1374 1.385 . S
C1375 C1376 1.389 . S
C1376 C1375 1.389 . S
C1376 C1377 1.387 . S
C1377 H1362 0.930 . S
C1377 C1372 1.390 . S
C1377 C1376 1.387 . S
H1378 C1390 0.930 . S
H1379 C1392 0.930 . S
H1380 C1393 0.930 . S
H1381 C1397 0.959 . S
H1382 C1397 0.959 . S
H1383 C1397 0.976 . S
H1384 C1398 0.960 . S
H1385 C1398 0.961 . S
H1386 C1398 0.959 . S
H1387 C1401 0.929 . S
H1388 C1402 0.931 . S
H1389 C1404 0.930 . S
C1390 H1378 0.930 . S
C1390 C1391 1.399 . S
C1390 C1395 1.399 1_545 S
C1391 C1390 1.399 . S
C1391 C1392 1.376 . S
C1392 H1379 0.930 . S
C1392 C1391 1.376 . S
C1392 C1393 1.388 1_545 S
C1393 H1380 0.930 . S
C1393 C1392 1.388 1_565 S
C1393 C1394 1.390 . S
C1394 C1393 1.390 . S
C1394 C1395 1.394 . S
C1394 C1400 1.465 . S
C1395 C1390 1.399 1_565 S
C1395 C1394 1.394 . S
C1395 C1396 1.516 . S
C1396 C1395 1.516 . S
C1396 C1397 1.502 . S
C1396 C1398 1.561 . S
C1396 C1399 1.526 . S
C1397 H1381 0.959 . S
C1397 H1382 0.959 . S
C1397 H1383 0.976 . S
C1397 C1396 1.502 . S
C1398 H1384 0.960 . S
C1398 H1385 0.961 . S
C1398 H1386 0.959 . S
C1398 C1396 1.561 . S
C1399 C1396 1.526 . S
C1399 C1400 1.396 . S
C1399 C1404 1.390 . S
C1400 C1394 1.465 . S
C1400 C1399 1.396 . S
C1400 C1401 1.399 . S
C1401 H1387 0.929 . S
C1401 C1400 1.399 . S
C1401 C1402 1.385 . S
C1402 H1388 0.931 . S
C1402 C1401 1.385 . S
C1402 C1403 1.389 . S
C1403 C1402 1.389 . S
C1403 C1404 1.387 . S
C1404 H1389 0.930 . S
C1404 C1399 1.390 . S
C1404 C1403 1.387 . S
H1405 C1417 0.930 . S
H1406 C1419 0.930 . S
H1407 C1420 0.930 . S
H1408 C1424 0.959 . S
H1409 C1424 0.959 . S
H1410 C1424 0.961 . S
H1411 C1425 0.960 . S
H1412 C1425 0.961 . S
H1413 C1425 0.959 . S
H1414 C1428 0.929 . S
H1415 C1429 0.931 . S
H1416 C1431 0.930 . S
C1417 H1405 0.930 . S
C1417 C1418 1.399 . S
C1417 C1422 1.399 . S
C1418 C1417 1.399 . S
C1418 C1419 1.376 . S
C1419 H1406 0.930 . S
C1419 C1418 1.376 . S
C1419 C1420 1.388 . S
C1420 H1407 0.930 . S
C1420 C1419 1.388 . S
C1420 C1421 1.390 . S
C1421 C1420 1.390 . S
C1421 C1422 1.394 . S
C1421 C1427 1.465 . S
C1422 C1417 1.399 . S
C1422 C1421 1.394 . S
C1422 C1423 1.516 . S
C1423 C1422 1.516 . S
C1423 C1424 1.502 . S
C1423 C1425 1.561 . S
C1423 C1426 1.526 . S
C1424 H1408 0.959 . S
C1424 H1409 0.959 . S
C1424 H1410 0.961 . S
C1424 C1423 1.502 . S
C1425 H1411 0.960 . S
C1425 H1412 0.961 . S
C1425 H1413 0.959 . S
C1425 C1423 1.561 . S
C1426 C1423 1.526 . S
C1426 C1427 1.396 . S
C1426 C1431 1.390 1_545 S
C1427 C1421 1.465 . S
C1427 C1426 1.396 . S
C1427 C1428 1.399 . S
C1428 H1414 0.929 . S
C1428 C1427 1.399 . S
C1428 C1429 1.385 1_545 S
C1429 H1415 0.931 . S
C1429 C1428 1.385 1_565 S
C1429 C1430 1.389 . S
C1430 C1429 1.389 . S
C1430 C1431 1.387 . S
C1431 H1416 0.930 . S
C1431 C1426 1.390 1_565 S
C1431 C1430 1.387 . S
H1432 C1444 0.930 . S
H1433 C1446 0.930 . S
H1434 C1447 0.930 . S
H1435 C1451 0.959 . S
H1436 C1451 0.959 . S
H1437 C1451 0.961 . S
H1438 C1452 0.960 . S
H1439 C1452 0.961 . S
H1440 C1452 0.959 . S
H1441 C1455 0.929 . S
H1442 C1456 0.931 . S
H1443 C1458 0.930 . S
C1444 H1432 0.930 . S
C1444 C1445 1.399 . S
C1444 C1449 1.399 . S
C1445 C1444 1.399 . S
C1445 C1446 1.376 . S
C1446 H1433 0.930 . S
C1446 C1445 1.376 . S
C1446 C1447 1.388 . S
C1447 H1434 0.930 . S
C1447 C1446 1.388 . S
C1447 C1448 1.390 . S
C1448 C1447 1.390 . S
C1448 C1449 1.394 . S
C1448 C1454 1.465 . S
C1449 C1444 1.399 . S
C1449 C1448 1.394 . S
C1449 C1450 1.516 . S
C1450 C1449 1.516 . S
C1450 C1451 1.502 . S
C1450 C1452 1.561 . S
C1450 C1453 1.526 . S
C1451 H1435 0.959 . S
C1451 H1436 0.959 . S
C1451 H1437 0.961 . S
C1451 C1450 1.502 . S
C1452 H1438 0.960 . S
C1452 H1439 0.961 . S
C1452 H1440 0.959 . S
C1452 C1450 1.561 . S
C1453 C1450 1.526 . S
C1453 C1454 1.396 . S
C1453 C1458 1.390 . S
C1454 C1448 1.465 . S
C1454 C1453 1.396 . S
C1454 C1455 1.399 . S
C1455 H1441 0.929 . S
C1455 C1454 1.399 . S
C1455 C1456 1.385 . S
C1456 H1442 0.931 . S
C1456 C1455 1.385 . S
C1456 C1457 1.389 . S
C1457 C1456 1.389 . S
C1457 C1458 1.387 . S
C1458 H1443 0.930 . S
C1458 C1453 1.390 . S
C1458 C1457 1.387 . S
H1459 C1471 0.930 . S
H1460 C1473 0.930 . S
H1461 C1474 0.930 . S
H1462 C1478 0.959 . S
H1463 C1478 0.959 . S
H1464 C1478 0.961 . S
H1465 C1479 0.960 . S
H1466 C1479 0.961 . S
H1467 C1479 0.959 . S
H1468 C1482 0.929 . S
H1469 C1483 0.931 . S
H1470 C1485 0.930 . S
C1471 H1459 0.930 . S
C1471 C1472 1.399 . S
C1471 C1476 1.399 . S
C1472 C1471 1.399 . S
C1472 C1473 1.376 . S
C1473 H1460 0.930 . S
C1473 C1472 1.376 . S
C1473 C1474 1.388 . S
C1474 H1461 0.930 . S
C1474 C1473 1.388 . S
C1474 C1475 1.390 . S
C1475 C1474 1.390 . S
C1475 C1476 1.394 . S
C1475 C1481 1.465 . S
C1476 C1471 1.399 . S
C1476 C1475 1.394 . S
C1476 C1477 1.516 . S
C1477 C1476 1.516 . S
C1477 C1478 1.502 . S
C1477 C1479 1.561 . S
C1477 C1480 1.526 . S
C1478 H1462 0.959 . S
C1478 H1463 0.959 . S
C1478 H1464 0.961 . S
C1478 C1477 1.502 . S
C1479 H1465 0.960 . S
C1479 H1466 0.961 . S
C1479 H1467 0.959 . S
C1479 C1477 1.561 . S
C1480 C1477 1.526 . S
C1480 C1481 1.396 . S
C1480 C1485 1.390 . S
C1481 C1475 1.465 . S
C1481 C1480 1.396 . S
C1481 C1482 1.399 . S
C1482 H1468 0.929 . S
C1482 C1481 1.399 . S
C1482 C1483 1.385 . S
C1483 H1469 0.931 . S
C1483 C1482 1.385 . S
C1483 C1484 1.389 . S
C1484 C1483 1.389 . S
C1484 C1485 1.387 . S
C1485 H1470 0.930 . S
C1485 C1480 1.390 . S
C1485 C1484 1.387 . S
H1486 C1498 0.930 . S
H1487 C1500 0.930 . S
H1488 C1501 0.930 . S
H1489 C1505 0.959 . S
H1490 C1505 0.959 . S
H1491 C1505 0.961 . S
H1492 C1506 0.960 . S
H1493 C1506 0.961 . S
H1494 C1506 0.959 . S
H1495 C1509 0.929 . S
H1496 C1510 0.931 . S
H1497 C1512 0.930 . S
C1498 H1486 0.930 . S
C1498 C1499 1.399 . S
C1498 C1503 1.399 . S
C1499 C1498 1.399 . S
C1499 C1500 1.376 . S
C1500 H1487 0.930 . S
C1500 C1499 1.376 . S
C1500 C1501 1.388 . S
C1501 H1488 0.930 . S
C1501 C1500 1.388 . S
C1501 C1502 1.390 . S
C1502 C1501 1.390 . S
C1502 C1503 1.394 . S
C1502 C1508 1.465 . S
C1503 C1498 1.399 . S
C1503 C1502 1.394 . S
C1503 C1504 1.516 . S
C1504 C1503 1.516 . S
C1504 C1505 1.502 . S
C1504 C1506 1.561 . S
C1504 C1507 1.526 . S
C1505 H1489 0.959 . S
C1505 H1490 0.959 . S
C1505 H1491 0.961 . S
C1505 C1504 1.502 . S
C1506 H1492 0.960 . S
C1506 H1493 0.961 . S
C1506 H1494 0.959 . S
C1506 C1504 1.561 . S
C1507 C1504 1.526 . S
C1507 C1508 1.396 . S
C1507 C1512 1.390 . S
C1508 C1502 1.465 . S
C1508 C1507 1.396 . S
C1508 C1509 1.399 . S
C1509 H1495 0.929 . S
C1509 C1508 1.399 . S
C1509 C1510 1.385 . S
C1510 H1496 0.931 . S
C1510 C1509 1.385 . S
C1510 C1511 1.389 . S
C1511 C1510 1.389 . S
C1511 C1512 1.387 . S
C1512 H1497 0.930 . S
C1512 C1507 1.390 . S
C1512 C1511 1.387 . S
H1513 C1525 0.930 . S
H1514 C1527 0.930 . S
H1515 C1528 0.930 . S
H1516 C1532 0.959 . S
H1517 C1532 0.959 . S
H1518 C1532 0.961 . S
H1519 C1533 0.960 . S
H1520 C1533 0.961 . S
H1521 C1533 0.959 . S
H1522 C1536 0.929 . S
H1523 C1537 0.931 . S
H1524 C1539 0.930 . S
C1525 H1513 0.930 . S
C1525 C1526 1.399 . S
C1525 C1530 1.399 . S
C1526 C1525 1.399 . S
C1526 C1527 1.376 . S
C1527 H1514 0.930 . S
C1527 C1526 1.376 . S
C1527 C1528 1.388 . S
C1528 H1515 0.930 . S
C1528 C1527 1.388 . S
C1528 C1529 1.390 . S
C1529 C1528 1.390 . S
C1529 C1530 1.394 . S
C1529 C1535 1.465 . S
C1530 C1525 1.399 . S
C1530 C1529 1.394 . S
C1530 C1531 1.516 . S
C1531 C1530 1.516 . S
C1531 C1532 1.502 . S
C1531 C1533 1.561 . S
C1531 C1534 1.526 . S
C1532 H1516 0.959 . S
C1532 H1517 0.959 . S
C1532 H1518 0.961 . S
C1532 C1531 1.502 . S
C1533 H1519 0.960 . S
C1533 H1520 0.961 . S
C1533 H1521 0.959 . S
C1533 C1531 1.561 . S
C1534 C1531 1.526 . S
C1534 C1535 1.396 . S
C1534 C1539 1.390 . S
C1535 C1529 1.465 . S
C1535 C1534 1.396 . S
C1535 C1536 1.399 . S
C1536 H1522 0.929 . S
C1536 C1535 1.399 . S
C1536 C1537 1.385 . S
C1537 H1523 0.931 . S
C1537 C1536 1.385 . S
C1537 C1538 1.389 . S
C1538 C1537 1.389 . S
C1538 C1539 1.387 . S
C1539 H1524 0.930 . S
C1539 C1534 1.390 . S
C1539 C1538 1.387 . S
H1540 C1552 0.930 . S
H1541 C1554 0.930 . S
H1542 C1555 0.930 . S
H1543 C1559 0.959 . S
H1544 C1559 0.959 . S
H1545 C1559 0.961 . S
H1546 C1560 0.960 . S
H1547 C1560 0.961 . S
H1548 C1560 0.959 . S
H1549 C1563 0.929 . S
H1550 C1564 0.931 . S
H1551 C1566 0.930 . S
C1552 H1540 0.930 . S
C1552 C1553 1.399 . S
C1552 C1557 1.399 . S
C1553 C1552 1.399 . S
C1553 C1554 1.376 . S
C1554 H1541 0.930 . S
C1554 C1553 1.376 . S
C1554 C1555 1.388 . S
C1555 H1542 0.930 . S
C1555 C1554 1.388 . S
C1555 C1556 1.390 . S
C1556 C1555 1.390 . S
C1556 C1557 1.394 . S
C1556 C1562 1.465 . S
C1557 C1552 1.399 . S
C1557 C1556 1.394 . S
C1557 C1558 1.516 . S
C1558 C1557 1.516 . S
C1558 C1559 1.502 . S
C1558 C1560 1.561 . S
C1558 C1561 1.526 . S
C1559 H1543 0.959 . S
C1559 H1544 0.959 . S
C1559 H1545 0.961 . S
C1559 C1558 1.502 . S
C1560 H1546 0.960 . S
C1560 H1547 0.961 . S
C1560 H1548 0.959 . S
C1560 C1558 1.561 . S
C1561 C1558 1.526 . S
C1561 C1562 1.396 . S
C1561 C1566 1.390 . S
C1562 C1556 1.465 . S
C1562 C1561 1.396 . S
C1562 C1563 1.399 . S
C1563 H1549 0.929 . S
C1563 C1562 1.399 . S
C1563 C1564 1.385 . S
C1564 H1550 0.931 . S
C1564 C1563 1.385 . S
C1564 C1565 1.389 . S
C1565 C1564 1.389 . S
C1565 C1566 1.387 . S
C1566 H1551 0.930 . S
C1566 C1561 1.390 . S
C1566 C1565 1.387 . S
H1567 C1579 0.930 . S
H1568 C1581 0.930 . S
H1569 C1582 0.930 . S
H1570 C1586 0.959 . S
H1571 C1586 0.959 . S
H1572 C1586 0.961 . S
H1573 C1587 0.960 . S
H1574 C1587 0.961 . S
H1575 C1587 0.959 . S
H1576 C1590 0.929 . S
H1577 C1591 0.931 . S
H1578 C1593 0.930 . S
C1579 H1567 0.930 . S
C1579 C1580 1.399 . S
C1579 C1584 1.399 . S
C1580 C1579 1.399 . S
C1580 C1581 1.376 . S
C1581 H1568 0.930 . S
C1581 C1580 1.376 . S
C1581 C1582 1.388 . S
C1582 H1569 0.930 . S
C1582 C1581 1.388 . S
C1582 C1583 1.390 . S
C1583 C1582 1.390 . S
C1583 C1584 1.394 . S
C1583 C1589 1.465 . S
C1584 C1579 1.399 . S
C1584 C1583 1.394 . S
C1584 C1585 1.516 . S
C1585 C1584 1.516 . S
C1585 C1586 1.502 . S
C1585 C1587 1.561 . S
C1585 C1588 1.526 . S
C1586 H1570 0.959 . S
C1586 H1571 0.959 . S
C1586 H1572 0.961 . S
C1586 C1585 1.502 . S
C1587 H1573 0.960 . S
C1587 H1574 0.961 . S
C1587 H1575 0.959 . S
C1587 C1585 1.561 . S
C1588 C1585 1.526 . S
C1588 C1589 1.396 . S
C1588 C1593 1.390 . S
C1589 C1583 1.465 . S
C1589 C1588 1.396 . S
C1589 C1590 1.399 . S
C1590 H1576 0.929 . S
C1590 C1589 1.399 . S
C1590 C1591 1.385 . S
C1591 H1577 0.931 . S
C1591 C1590 1.385 . S
C1591 C1592 1.389 . S
C1592 C1591 1.389 . S
C1592 C1593 1.387 . S
C1593 H1578 0.930 . S
C1593 C1588 1.390 . S
C1593 C1592 1.387 . S
H1594 C1606 0.930 . S
H1595 C1608 0.930 . S
H1596 C1609 0.930 . S
H1597 C1613 0.959 . S
H1598 C1613 0.959 . S
H1599 C1613 0.961 . S
H1600 C1614 0.960 . S
H1601 C1614 0.961 . S
H1602 C1614 0.959 . S
H1603 C1617 0.929 . S
H1604 C1618 0.931 . S
H1605 C1620 0.930 . S
C1606 H1594 0.930 . S
C1606 C1607 1.399 . S
C1606 C1611 1.399 . S
C1607 C1606 1.399 . S
C1607 C1608 1.376 . S
C1608 H1595 0.930 . S
C1608 C1607 1.376 . S
C1608 C1609 1.388 . S
C1609 H1596 0.930 . S
C1609 C1608 1.388 . S
C1609 C1610 1.390 . S
C1610 C1609 1.390 . S
C1610 C1611 1.394 . S
C1610 C1616 1.465 . S
C1611 C1606 1.399 . S
C1611 C1610 1.394 . S
C1611 C1612 1.516 . S
C1612 C1611 1.516 . S
C1612 C1613 1.502 . S
C1612 C1614 1.561 . S
C1612 C1615 1.526 . S
C1613 H1597 0.959 . S
C1613 H1598 0.959 . S
C1613 H1599 0.961 . S
C1613 C1612 1.502 . S
C1614 H1600 0.960 . S
C1614 H1601 0.961 . S
C1614 H1602 0.959 . S
C1614 C1612 1.561 . S
C1615 C1612 1.526 . S
C1615 C1616 1.396 . S
C1615 C1620 1.390 . S
C1616 C1610 1.465 . S
C1616 C1615 1.396 . S
C1616 C1617 1.399 . S
C1617 H1603 0.929 . S
C1617 C1616 1.399 . S
C1617 C1618 1.385 . S
C1618 H1604 0.931 . S
C1618 C1617 1.385 . S
C1618 C1619 1.389 . S
C1619 C1618 1.389 . S
C1619 C1620 1.387 . S
C1620 H1605 0.930 . S
C1620 C1615 1.390 . S
C1620 C1619 1.387 . S
H1621 C1633 0.930 . S
H1622 C1635 0.930 . S
H1623 C1636 0.930 . S
H1624 C1640 0.959 . S
H1625 C1640 0.959 . S
H1626 C1640 0.961 . S
H1627 C1641 0.960 . S
H1628 C1641 0.961 . S
H1629 C1641 0.959 . S
H1630 C1644 0.929 . S
H1631 C1645 0.931 . S
H1632 C1647 0.930 . S
C1633 H1621 0.930 . S
C1633 C1634 1.399 . S
C1633 C1638 1.399 . S
C1634 C1633 1.399 . S
C1634 C1635 1.376 . S
C1635 H1622 0.930 . S
C1635 C1634 1.376 . S
C1635 C1636 1.388 . S
C1636 H1623 0.930 . S
C1636 C1635 1.388 . S
C1636 C1637 1.390 . S
C1637 C1636 1.390 . S
C1637 C1638 1.394 . S
C1637 C1643 1.465 . S
C1638 C1633 1.399 . S
C1638 C1637 1.394 . S
C1638 C1639 1.516 . S
C1639 C1638 1.516 . S
C1639 C1640 1.502 . S
C1639 C1641 1.561 . S
C1639 C1642 1.526 . S
C1640 H1624 0.959 . S
C1640 H1625 0.959 . S
C1640 H1626 0.961 . S
C1640 C1639 1.502 . S
C1641 H1627 0.960 . S
C1641 H1628 0.961 . S
C1641 H1629 0.959 . S
C1641 C1639 1.561 . S
C1642 C1639 1.526 . S
C1642 C1643 1.396 . S
C1642 C1647 1.390 . S
C1643 C1637 1.465 . S
C1643 C1642 1.396 . S
C1643 C1644 1.399 . S
C1644 H1630 0.929 . S
C1644 C1643 1.399 . S
C1644 C1645 1.385 . S
C1645 H1631 0.931 . S
C1645 C1644 1.385 . S
C1645 C1646 1.389 . S
C1646 C1645 1.389 . S
C1646 C1647 1.387 . S
C1647 H1632 0.930 . S
C1647 C1642 1.390 . S
C1647 C1646 1.387 . S
C365 C5 0.810 . S
C377 C270 0.820 . S
C392 C293 0.731 . S
C404 C27 0.847 . S
C419 C314 0.882 . S
C431 C49 0.726 . S
C446 C336 0.715 . S
C458 C75 0.883 . S
C473 C94 0.826 . S
C485 C181 0.803 . S
C500 C203 0.883 . S
C512 C117 0.725 . S
C527 C138 0.725 . S
C539 C225 0.854 . S
C554 C251 0.805 . S
C566 C160 0.825 . S
C581 C48 1.849 . S
C593 C4 1.848 . S
C608 C26 1.848 . S
C620 C74 1.844 . S
C635 C92 1.838 . S
C647 C136 1.837 . S
C662 C158 1.842 . S
C674 C118 1.844 . S
C689 C180 1.840 . S
C701 C224 1.846 . S
C716 C250 1.837 . S
C728 C202 1.843 . S
C743 C312 1.840 . S
C755 C268 1.839 . S
C770 C334 1.837 . S
C782 C294 1.838 . S
C797 C9 1.725 . S
C809 C71 1.778 . S
C824 C53 1.750 . S
C836 C31 1.741 . S
C851 C161 1.798 . S
C863 C95 1.727 . S
C878 C139 1.740 . S
C890 C116 1.804 . S
C905 C247 1.763 . S
C917 C185 1.804 . S
C932 C229 1.806 . S
C944 C207 1.758 . S
C959 C271 1.780 . S
C971 C337 1.738 . S
C986 C315 1.786 . S
C998 C292 1.734 . S
C1013 C8 1.450 . S
C1025 C140 1.463 . S
C1040 C30 1.455 . S
C1052 C162 1.441 . S
C1067 C96 1.400 . S
C1079 C52 1.408 . S
C1094 C114 1.479 . S
C1106 C70 1.469 . S
C1121 C184 1.471 . S
C1133 C316 1.459 . S
C1148 C206 1.437 . S
C1160 C338 1.451 . S
C1175 C272 1.399 . S
C1187 C228 1.402 . S
C1202 C290 1.479 . S
C1214 C246 1.468 . S
C1229 C6 1.311 . S
C1241 C317 1.214 . S
C1256 C28 1.243 . S
C1268 C339 1.250 . S
C1283 C273 1.183 . S
C1295 C50 1.273 . S
C1310 C291 1.277 . S
C1322 C73 1.287 . S
C1337 C227 1.247 . S
C1349 C93 1.249 . S
C1364 C119 1.271 . S
C1376 C248 1.281 . S
C1391 C137 1.274 . S
C1403 C183 1.177 . S
C1418 C205 1.233 . S
C1430 C159 1.245 . S
C1445 C141 1.287 . S
C1457 C182 1.268 . S
C1472 C204 1.243 . S
C1484 C163 1.248 . S
C1499 C97 1.285 . S
C1511 C226 1.258 . S
C1526 C249 1.243 . S
C1538 C115 1.258 . S
C1553 C51 1.241 . S
C1565 C269 1.311 . S
C1580 C295 1.250 . S
C1592 C72 1.190 . S
C1607 C313 1.278 . S
C1619 C7 1.179 . S
C1634 C29 1.228 . S
C1646 C335 1.245 . S
