# Generated by pormake.
# Topology smm, (6)-cn, num edge types: 1
# Building blocks:
#     Node 0, Type 0, BuildingBlock: PAMTOO_clean_sbu_0, # of connection points: 6
#     Node 1, Type 0, BuildingBlock: PAMTOO_clean_sbu_0, # of connection points: 6
#     Node 2, Type 0, BuildingBlock: PAMTOO_clean_sbu_0, # of connection points: 6
#     Node 3, Type 0, BuildingBlock: PAMTOO_clean_sbu_0, # of connection points: 6
#     Node 4, Type 0, BuildingBlock: PAMTOO_clean_sbu_0, # of connection points: 6
#     Node 5, Type 0, BuildingBlock: PAMTOO_clean_sbu_0, # of connection points: 6
#     Node 6, Type 0, BuildingBlock: PAMTOO_clean_sbu_0, # of connection points: 6
#     Node 7, Type 0, BuildingBlock: PAMTOO_clean_sbu_0, # of connection points: 6
#     Node 8, Type 0, BuildingBlock: PAMTOO_clean_sbu_0, # of connection points: 6
#     Edge 9, Type (0, 0), BuildingBlock: UVAHIK_clean_linker_0, # of connection points: 2
#     Edge 10, Type (0, 0), BuildingBlock: UVAHIK_clean_linker_0, # of connection points: 2
#     Edge 11, Type (0, 0), BuildingBlock: UVAHIK_clean_linker_0, # of connection points: 2
#     Edge 12, Type (0, 0), BuildingBlock: UVAHIK_clean_linker_0, # of connection points: 2
#     Edge 13, Type (0, 0), BuildingBlock: UVAHIK_clean_linker_0, # of connection points: 2
#     Edge 14, Type (0, 0), BuildingBlock: UVAHIK_clean_linker_0, # of connection points: 2
#     Edge 15, Type (0, 0), BuildingBlock: UVAHIK_clean_linker_0, # of connection points: 2
#     Edge 16, Type (0, 0), BuildingBlock: UVAHIK_clean_linker_0, # of connection points: 2
#     Edge 17, Type (0, 0), BuildingBlock: UVAHIK_clean_linker_0, # of connection points: 2
#     Edge 18, Type (0, 0), BuildingBlock: UVAHIK_clean_linker_0, # of connection points: 2
#     Edge 19, Type (0, 0), BuildingBlock: UVAHIK_clean_linker_0, # of connection points: 2
#     Edge 20, Type (0, 0), BuildingBlock: UVAHIK_clean_linker_0, # of connection points: 2
#     Edge 21, Type (0, 0), BuildingBlock: UVAHIK_clean_linker_0, # of connection points: 2
#     Edge 22, Type (0, 0), BuildingBlock: UVAHIK_clean_linker_0, # of connection points: 2
#     Edge 23, Type (0, 0), BuildingBlock: UVAHIK_clean_linker_0, # of connection points: 2
#     Edge 24, Type (0, 0), BuildingBlock: UVAHIK_clean_linker_0, # of connection points: 2
#     Edge 25, Type (0, 0), BuildingBlock: UVAHIK_clean_linker_0, # of connection points: 2
#     Edge 26, Type (0, 0), BuildingBlock: UVAHIK_clean_linker_0, # of connection points: 2
#     Edge 27, Type (0, 0), BuildingBlock: UVAHIK_clean_linker_0, # of connection points: 2
#     Edge 28, Type (0, 0), BuildingBlock: UVAHIK_clean_linker_0, # of connection points: 2
#     Edge 29, Type (0, 0), BuildingBlock: UVAHIK_clean_linker_0, # of connection points: 2
#     Edge 30, Type (0, 0), BuildingBlock: UVAHIK_clean_linker_0, # of connection points: 2
#     Edge 31, Type (0, 0), BuildingBlock: UVAHIK_clean_linker_0, # of connection points: 2
#     Edge 32, Type (0, 0), BuildingBlock: UVAHIK_clean_linker_0, # of connection points: 2
#     Edge 33, Type (0, 0), BuildingBlock: UVAHIK_clean_linker_0, # of connection points: 2
#     Edge 34, Type (0, 0), BuildingBlock: UVAHIK_clean_linker_0, # of connection points: 2
#     Edge 35, Type (0, 0), BuildingBlock: UVAHIK_clean_linker_0, # of connection points: 2
# Relax obj value: 0.060
# Max RMSD: 0.139
# Mean RMSD: 0.139
data_MOF--net-smm--node1-PAMTOO_clean_sbu_0--edge1-UVAHIK_clean_linker_0
_symmetry_space_group_name_H-M    P1
_symmetry_Int_Tables_number       1
_symmetry_cell_setting            triclinic
loop_
_symmetry_equiv_pos_as_xyz
'x, y, z'
_cell_length_a     85.495393
_cell_length_b     85.81632
_cell_length_c     18.734927
_cell_angle_alpha  89.934718
_cell_angle_beta   89.995879
_cell_angle_gamma 120.0893
loop_
_atom_site_label
_atom_site_type_symbol
_atom_site_fract_x
_atom_site_fract_y
_atom_site_fract_z
_atom_type_partial_charge
Dy0 Dy 1.01501 0.17343 0.01174 0.0
Dy1 Dy 0.05271 0.21388 0.01437 0.0
C2 C 0.0379 0.18822 0.15229 0.0
O3 O 1.00778 0.19227 0.0656 0.0
O4 O 0.02989 0.21946 0.02003 0.0
O5 O 0.99173 0.1511 0.06138 0.0
O6 O 0.99596 0.15113 0.94703 0.0
O7 O 0.04325 0.20742 0.90224 0.0
O8 O 1.01304 0.18973 0.92436 0.0
O9 O 0.06141 0.19346 0.0231 0.0
O10 O 0.03735 0.17001 0.96648 0.0
O11 O 0.0789 0.23221 0.96884 0.0
O12 O 0.06926 0.24012 0.06117 0.0
C13 C 1.01434 0.20956 0.05286 0.0
O14 O 0.0288 0.17389 0.11244 0.0
O15 O 0.04571 0.20465 0.12643 0.0
C16 C 0.97998 0.12265 0.00331 0.0
C17 C 0.96596 0.085 0.00588 0.0
C18 C 0.97822 0.09613 0.0586 0.0
C19 C 0.98518 0.1148 0.05736 0.0
C20 C 0.96806 0.11163 0.95005 0.0
C21 C 0.96117 0.09305 0.95112 0.0
C22 C 0.98616 0.14208 0.00176 0.0
C23 C 0.02636 0.20016 0.88197 0.0
C24 C 0.05405 0.17785 -0.00964 0.0
C25 C 0.08826 0.26305 -0.01892 0.0
C26 C 0.10108 0.29789 0.9246 0.0
C27 C 0.08265 0.28473 0.91952 0.0
C28 C 0.07629 0.26742 0.94743 0.0
C29 C 0.10661 0.27605 -0.0141 0.0
C30 C 0.11298 0.2933 0.95796 0.0
C31 C 0.08186 0.24519 0.0128 0.0
H32 H 0.98211 0.09037 0.10177 0.0
H33 H 0.9944 0.12303 0.09904 0.0
H34 H 0.96393 0.11742 0.9077 0.0
H35 H 0.95207 0.08499 0.90885 0.0
H36 H 0.07317 0.28776 0.89355 0.0
H37 H 0.06205 0.25749 0.94313 0.0
H38 H 0.11601 0.27291 0.01197 0.0
H39 H 0.12718 0.30316 0.9638 0.0
Dy40 Dy 0.88237 0.85422 0.02458 0.0
Dy41 Dy 0.84268 0.85271 -0.00363 0.0
C42 C 0.86075 0.85938 0.14738 0.0
O43 O 0.86187 0.82542 0.00329 0.0
O44 O 0.83571 0.82524 0.03355 0.0
O45 O 0.90525 0.86063 0.09219 0.0
O46 O 0.90239 0.84751 -0.00982 0.0
O47 O 0.85216 0.84589 0.89714 0.0
O48 O 0.88241 0.86389 0.91547 0.0
O49 O 0.86368 0.88191 -0.01468 0.0
O50 O 0.88954 0.88307 0.03007 0.0
O51 O 0.82573 0.85795 0.92619 0.0
O52 O 0.81581 0.84567 0.03014 0.0
C53 C 0.84473 0.8168 0.02191 0.0
O54 O 0.86759 0.84947 0.12666 0.0
O55 O 0.8525 0.86466 0.10315 0.0
C56 C 0.93198 0.86727 0.03105 0.0
C57 C 0.96922 0.89043 0.00534 0.0
C58 C 0.96291 0.87338 0.03662 0.0
C59 C 0.94448 0.86193 0.04927 0.0
C60 C 0.93809 0.88423 -0.0002 0.0
C61 C 0.95658 0.89573 -0.01291 0.0
C62 C 0.9127 0.85505 0.04564 0.0
C63 C 0.86852 0.85643 0.87254 0.0
C64 C 0.88065 0.89096 0.00694 0.0
C65 C 0.79412 0.83836 0.93783 0.0
C66 C 0.75896 0.81622 0.88257 0.0
C67 C 0.76738 0.80876 0.92381 0.0
C68 C 0.78481 0.81973 0.95118 0.0
C69 C 0.78596 0.84573 0.89533 0.0
C70 C 0.76861 0.8348 0.86784 0.0
C71 C 0.81194 0.85056 0.96967 0.0
H72 H 0.97225 0.86897 0.05249 0.0
H73 H 0.93998 0.84891 0.07373 0.0
H74 H 0.92858 0.88855 -0.01467 0.0
H75 H 0.96094 0.90869 0.96234 0.0
H76 H 0.76031 0.79453 0.93661 0.0
H77 H 0.79086 0.8137 -0.0163 0.0
H78 H 0.79294 0.86005 0.88411 0.0
H79 H 0.76273 0.84096 0.83513 0.0
Dy80 Dy 0.19792 0.04333 0.0093 0.0
Dy81 Dy 0.20212 1.00381 0.96848 0.0
C82 C 0.20036 0.01321 0.10975 0.0
O83 O 0.2274 0.05258 0.01832 0.0
O84 O 0.23005 0.02724 -0.00863 0.0
O85 O 0.18544 0.04911 0.09773 0.0
O86 O 0.20385 0.07055 0.02547 0.0
O87 O 0.19701 0.01689 0.87314 0.0
O88 O 0.19891 0.04481 0.89239 0.0
O89 O 0.17253 0.99537 0.97522 0.0
O90 O 0.17022 0.02155 0.97873 0.0
O91 O 0.21186 0.99449 0.88204 0.0
O92 O 0.19699 0.97637 0.96909 0.0
C93 C 0.23694 0.0444 0.00957 0.0
O94 O 0.1999 0.02179 0.05458 0.0
O95 O 0.20169 0.99965 0.08867 0.0
C96 C 0.17949 0.0726 0.07234 0.0
C97 C 0.15685 0.08749 0.05549 0.0
C98 C 0.16916 0.09278 0.11267 0.0
C99 C 0.18039 0.08541 0.12089 0.0
C100 C 0.16695 0.0669 0.01627 0.0
C101 C 0.15572 0.07428 0.00789 0.0
C102 C 0.19228 0.06598 0.07825 0.0
C103 C 0.19712 0.03165 0.85074 0.0
C104 C 0.16312 1.00386 0.97396 0.0
C105 C 0.21884 0.97171 0.90673 0.0
C106 C 0.24225 0.95759 0.89276 0.0
C107 C 0.23861 0.96546 0.83405 0.0
C108 C 0.227 0.97236 0.84094 0.0
C109 C 0.22246 0.9639 0.96582 0.0
C110 C 0.23405 0.95685 0.95879 0.0
C111 C 0.20619 0.97868 0.91045 0.0
H112 H 0.17018 0.10269 0.15097 0.0
H113 H 0.18999 0.08992 0.16456 0.0
H114 H 0.16613 0.05703 0.97814 0.0
H115 H 0.14655 0.07002 0.96289 0.0
H116 H 0.24443 0.96594 0.78218 0.0
H117 H 0.22424 0.97809 0.79435 0.0
H118 H 0.2163 0.96314 0.01718 0.0
H119 H 0.23667 0.95092 0.00503 0.0
Dy120 Dy 0.68593 0.5052 0.36677 0.0
Dy121 Dy 0.72118 0.54649 0.33406 0.0
C122 C 0.71042 0.53079 0.48917 0.0
O123 O 0.67808 0.52512 0.40479 0.0
O124 O 0.69718 0.55019 0.33795 0.0
O125 O 0.67689 0.48014 0.42226 0.0
O126 O 0.65752 0.48473 0.36509 0.0
O127 O 0.70551 0.53855 0.23336 0.0
O128 O 0.68101 0.51002 0.255 0.0
O129 O 0.73075 0.52662 0.34509 0.0
O130 O 0.70578 0.50141 0.30364 0.0
O131 O 0.74374 0.56373 0.26539 0.0
O132 O 0.74025 0.57354 0.36744 0.0
C133 C 0.6827 0.54108 0.37801 0.0
O134 O 0.70453 0.51498 0.46003 0.0
O135 O 0.71576 0.54515 0.44979 0.0
C136 C 0.65136 0.45458 0.37435 0.0
C137 C 0.63462 0.4178 0.33722 0.0
C138 C 0.62482 0.42467 0.37239 0.0
C139 C 0.63314 0.44287 0.39086 0.0
C140 C 0.66107 0.44797 0.33707 0.0
C141 C 0.65278 0.42972 0.31884 0.0
C142 C 0.6602 0.47324 0.40087 0.0
C143 C 0.69024 0.52427 0.21459 0.0
C144 C 0.72315 0.5104 0.31719 0.0
C145 C 0.75391 0.59504 0.2739 0.0
C146 C 0.7656 0.62962 0.21563 0.0
C147 C 0.77257 0.61889 0.19009 0.0
C148 C 0.76685 0.60185 0.21913 0.0
C149 C 0.7465 0.60546 0.29818 0.0
C150 C 0.75231 0.62257 0.26943 0.0
C151 C 0.74923 0.57762 0.30751 0.0
H152 H 0.61089 0.41585 0.38806 0.0
H153 H 0.62545 0.44772 0.41985 0.0
H154 H 0.67516 0.45681 0.32348 0.0
H155 H 0.66063 0.42489 0.29097 0.0
H156 H 0.78257 0.62371 0.14784 0.0
H157 H 0.77276 0.59408 0.19948 0.0
H158 H 0.73649 0.60058 0.34039 0.0
H159 H 0.74676 0.63047 0.29103 0.0
Dy160 Dy 0.54932 0.18821 0.35373 0.0
Dy161 Dy 0.50926 0.1858 0.32396 0.0
C162 C 0.52823 0.19524 0.47316 0.0
O163 O 0.52902 0.15908 0.33919 0.0
O164 O 0.50283 0.15902 0.36803 0.0
O165 O 0.57225 0.19571 0.42273 0.0
O166 O 0.5697 0.18165 0.32329 0.0
O167 O 0.51804 0.17726 0.22728 0.0
O168 O 0.54846 0.19548 0.24147 0.0
O169 O 0.52998 0.21463 0.30241 0.0
O170 O 0.55616 0.21699 0.34962 0.0
O171 O 0.49112 0.18874 0.25238 0.0
O172 O 0.48296 0.17997 0.36177 0.0
C173 C 0.51197 0.15059 0.35899 0.0
O174 O 0.53502 0.18506 0.45585 0.0
O175 O 0.51987 0.19985 0.42681 0.0
C176 C 0.59927 0.20156 0.36573 0.0
C177 C 0.63683 0.22368 0.34327 0.0
C178 C 0.63017 0.21058 0.39763 0.0
C179 C 0.6116 0.19963 0.40857 0.0
C180 C 0.60572 0.21474 0.31195 0.0
C181 C 0.62436 0.22572 0.30076 0.0
C182 C 0.57982 0.18969 0.37871 0.0
C183 C 0.53426 0.18722 0.20032 0.0
C184 C 0.54704 0.22424 0.32238 0.0
C185 C 0.45963 0.17037 0.27578 0.0
C186 C 0.42381 0.14798 0.22774 0.0
C187 C 0.43822 0.14684 0.1967 0.0
C188 C 0.456 0.15797 0.22049 0.0
C189 C 0.44527 0.1712 0.30786 0.0
C190 C 0.42756 0.16013 0.28428 0.0
C191 C 0.47817 0.1831 0.29968 0.0
H192 H 0.63933 0.20887 0.43238 0.0
H193 H 0.60686 0.18963 0.45074 0.0
H194 H 0.59635 0.21647 0.27853 0.0
H195 H 0.629 0.23559 0.2582 0.0
H196 H 0.43581 0.1377 0.15284 0.0
H197 H 0.4669 0.15707 0.19504 0.0
H198 H 0.44778 0.18062 0.35081 0.0
H199 H 0.41679 0.16111 0.31041 0.0
Dy200 Dy 0.86664 0.37181 0.32935 0.0
Dy201 Dy 0.86922 0.33445 0.3494 0.0
C202 C 0.85424 0.34959 0.47338 0.0
O203 O 0.8924 0.37942 0.38715 0.0
O204 O 0.89749 0.35758 0.34199 0.0
O205 O 0.87022 0.39714 0.36796 0.0
O206 O 0.86274 0.38921 0.25755 0.0
O207 O 0.86729 0.33881 0.23384 0.0
O208 O 0.88211 0.36932 0.23969 0.0
O209 O 0.83973 0.32495 0.35076 0.0
O210 O 0.83973 0.34891 0.29451 0.0
O211 O 0.86247 0.30774 0.316 0.0
O212 O 0.88006 0.32011 0.40693 0.0
C213 C 0.90336 0.37322 0.37334 0.0
O214 O 0.85135 0.35957 0.42842 0.0
O215 O 0.86357 0.34171 0.45672 0.0
C216 C 0.85217 0.40742 0.31117 0.0
C217 C 0.82943 0.42256 0.3125 0.0
C218 C 0.84424 0.42886 0.35933 0.0
C219 C 0.85551 0.42143 0.3584 0.0
C220 C 0.83712 0.40076 0.26549 0.0
C221 C 0.82588 0.40826 0.26616 0.0
C222 C 0.86515 0.40082 0.30751 0.0
C223 C 0.87552 0.35453 0.20233 0.0
C224 C 0.83126 0.33213 0.31774 0.0
C225 C 0.8852 0.30035 0.33697 0.0
C226 C 0.9084 0.28811 0.28866 0.0
C227 C 0.90722 0.30173 0.25137 0.0
C228 C 0.89575 0.30785 0.27551 0.0
C229 C 0.88636 0.28682 0.37431 0.0
C230 C 0.89787 0.28076 0.35048 0.0
C231 C 0.87299 0.30648 0.36319 0.0
H232 H 0.8472 0.43962 0.39663 0.0
H233 H 0.86704 0.42683 0.39403 0.0
H234 H 0.8342 0.39 0.22821 0.0
H235 H 0.81472 0.40319 0.22887 0.0
H236 H 0.9153 0.30778 0.20402 0.0
H237 H 0.89511 0.31843 0.24629 0.0
H238 H 0.87831 0.2809 0.42187 0.0
H239 H 0.8983 0.27011 0.37989 0.0
Dy240 Dy 0.34835 0.83941 0.66322 0.0
Dy241 Dy 0.38597 0.8799 0.66332 0.0
C242 C 0.37154 0.85464 0.80263 0.0
O243 O 0.34143 0.85831 0.71841 0.0
O244 O 0.36299 0.88524 0.66939 0.0
O245 O 0.32524 0.81715 0.71402 0.0
O246 O 0.32899 0.81712 0.59932 0.0
O247 O 0.37626 0.87283 0.55175 0.0
O248 O 0.34613 0.85547 0.57547 0.0
O249 O 0.3949 0.85967 0.67276 0.0
O250 O 0.37064 0.83576 0.61889 0.0
O251 O 0.41166 0.89849 0.61439 0.0
O252 O 0.4028 0.90612 0.70977 0.0
C253 C 0.34776 0.87549 0.7044 0.0
O254 O 0.36247 0.8402 0.76335 0.0
O255 O 0.3793 0.87101 0.77599 0.0
C256 C 0.3128 0.78869 0.65561 0.0
C257 C 0.2984 0.751 0.6572 0.0
C258 C 0.31186 0.76212 0.70641 0.0
C259 C 0.31902 0.78083 0.70563 0.0
C260 C 0.29965 0.77768 0.60588 0.0
C261 C 0.29255 0.75907 0.60647 0.0
C262 C 0.31931 0.80817 0.65445 0.0
C263 C 0.35933 0.86564 0.53221 0.0
C264 C 0.38743 0.8438 0.64202 0.0
C265 C 0.42044 0.92941 0.62643 0.0
C266 C 0.43328 0.96437 0.56968 0.0
C267 C 0.44013 0.95347 0.54504 0.0
C268 C 0.43384 0.93624 0.57333 0.0
C269 C 0.41336 0.94016 0.65041 0.0
C270 C 0.41972 0.95742 0.62241 0.0
C271 C 0.41465 0.91151 0.65825 0.0
H272 H 0.31659 0.75634 0.74647 0.0
H273 H 0.32922 0.78908 0.74446 0.0
H274 H 0.29474 0.7835 0.56662 0.0
H275 H 0.2825 0.75101 0.56687 0.0
H276 H 0.45037 0.95823 0.50376 0.0
H277 H 0.43958 0.92829 0.55403 0.0
H278 H 0.40308 0.93537 0.69156 0.0
H279 H 0.41429 0.96549 0.64348 0.0
Dy280 Dy 0.21671 0.52126 0.69299 0.0
Dy281 Dy 0.17645 0.5189 0.6743 0.0
C282 C 0.19791 0.53024 0.81856 0.0
O283 O 0.19597 0.49205 0.68798 0.0
O284 O 0.17079 0.49296 0.72501 0.0
O285 O 0.24043 0.52793 0.75528 0.0
O286 O 0.23684 0.51535 0.65154 0.0
O287 O 0.18281 0.50764 0.57992 0.0
O288 O 0.2131 0.52689 0.58066 0.0
O289 O 0.19701 0.54749 0.64662 0.0
O290 O 0.22374 0.55001 0.68795 0.0
O291 O 0.15772 0.52199 0.60692 0.0
O292 O 0.15044 0.51284 0.71652 0.0
C293 C 0.17944 0.48412 0.71381 0.0
O294 O 0.20533 0.52061 0.80055 0.0
O295 O 0.18876 0.53409 0.77303 0.0
C296 C 0.26692 0.5358 0.68793 0.0
C297 C 0.30425 0.55894 0.66196 0.0
C298 C 0.2939 0.56543 0.69553 0.0
C299 C 0.27543 0.55401 0.70818 0.0
C300 C 0.27708 0.52938 0.65309 0.0
C301 C 0.29551 0.54082 0.63995 0.0
C302 C 0.24776 0.52313 0.70518 0.0
C303 C 0.19797 0.51747 0.54567 0.0
C304 C 0.21434 0.55716 0.66303 0.0
C305 C 0.12644 0.50295 0.63309 0.0
C306 C 0.09033 0.48024 0.58842 0.0
C307 C 0.10483 0.48142 0.54835 0.0
C308 C 0.12273 0.49268 0.57045 0.0
C309 C 0.112 0.50147 0.67386 0.0
C310 C 0.09416 0.49022 0.65196 0.0
C311 C 0.14507 0.51594 0.65561 0.0
H312 H 0.30015 0.57923 0.71392 0.0
H313 H 0.26791 0.55937 0.73495 0.0
H314 H 0.27079 0.51541 0.63672 0.0
H315 H 0.30293 0.53541 0.61271 0.0
H316 H 0.10238 0.47403 0.49892 0.0
H317 H 0.13364 0.49357 0.53799 0.0
H318 H 0.11455 0.50923 0.72241 0.0
H319 H 0.08336 0.48939 0.68489 0.0
Dy320 Dy 0.53342 0.71064 0.66399 0.0
Dy321 Dy 0.53735 0.67099 0.62465 0.0
C322 C 0.53578 0.6806 0.76599 0.0
O323 O 0.56287 0.71985 0.67294 0.0
O324 O 0.56542 0.69451 0.64501 0.0
O325 O 0.52092 0.71698 0.75087 0.0
O326 O 0.53989 0.73804 0.67861 0.0
O327 O 0.53114 0.6832 0.5291 0.0
O328 O 0.53431 0.7117 0.54712 0.0
O329 O 0.50781 0.66255 0.63491 0.0
O330 O 0.50565 0.6888 0.63435 0.0
O331 O 0.54659 0.66125 0.53783 0.0
O332 O 0.53229 0.64359 0.62682 0.0
C333 C 0.57238 0.71168 0.66325 0.0
O334 O 0.53565 0.68938 0.71091 0.0
O335 O 0.53697 0.66697 0.74489 0.0
C336 C 0.51526 0.74083 0.72182 0.0
C337 C 0.49133 0.7544 0.7063 0.0
C338 C 0.48735 0.74024 0.75419 0.0
C339 C 0.49921 0.73355 0.76194 0.0
C340 C 0.51933 0.75516 0.67477 0.0
C341 C 0.50749 0.76181 0.66697 0.0
C342 C 0.52783 0.73374 0.72942 0.0
C343 C 0.53167 0.69813 0.50617 0.0
C344 C 0.49844 0.67107 0.63242 0.0
C345 C 0.5536 0.63851 0.56266 0.0
C346 C 0.57701 0.62444 0.54733 0.0
C347 C 0.57147 0.63029 0.48743 0.0
C348 C 0.55987 0.63719 0.49504 0.0
C349 C 0.55909 0.63272 0.62294 0.0
C350 C 0.57067 0.62567 0.61525 0.0
C351 C 0.54105 0.64558 0.56727 0.0
H352 H 0.47498 0.73419 0.7851 0.0
H353 H 0.49576 0.72263 0.7992 0.0
H354 H 0.5317 0.76131 0.64381 0.0
H355 H 0.51116 0.77297 0.63075 0.0
H356 H 0.57583 0.62923 0.43428 0.0
H357 H 0.55567 0.6414 0.44772 0.0
H358 H 0.55443 0.63358 0.67577 0.0
H359 H 0.57479 0.62134 0.6624 0.0
C360 C 0.09816 0.32542 0.90699 0.0
C361 C 0.10795 0.31645 0.89656 0.0
C362 C 0.10518 0.34325 0.88423 0.0
C363 C 0.14863 0.38393 0.84077 0.0
H364 H 0.11857 0.40078 0.75438 0.0
C365 C 0.17935 0.45486 0.71868 0.0
C366 C 0.17046 0.46463 0.7314 0.0
C367 C 0.17121 0.43665 0.73687 0.0
C368 C 0.12711 0.39632 0.77914 0.0
H369 H 0.13244 0.31895 0.85107 0.0
H370 H 0.14465 0.34996 0.81143 0.0
H371 H 0.10521 0.36916 0.78883 0.0
H372 H 0.14583 0.46273 0.77258 0.0
H373 H 0.1317 0.43096 0.80503 0.0
H374 H 0.1705 0.41102 0.83158 0.0
C375 C 0.13171 0.34337 0.83853 0.0
C376 C 0.11945 0.3782 0.79883 0.0
C377 C 0.1247 0.32557 0.86123 0.0
C378 C 0.15308 0.45564 0.76197 0.0
C379 C 0.14493 0.43738 0.78024 0.0
C380 C 0.15627 0.40201 0.8212 0.0
C381 C 0.12216 0.35251 0.85053 0.0
C382 C 0.13015 0.37177 0.82961 0.0
C383 C 0.15396 0.4277 0.76841 0.0
C384 C 0.14564 0.40844 0.78984 0.0
H385 H 0.08531 0.31886 0.9347 0.0
H386 H 0.09755 0.34995 0.89494 0.0
H387 H 0.15719 0.37953 0.86569 0.0
H388 H 0.19269 0.46127 0.69483 0.0
H389 H 0.17842 0.42954 0.72584 0.0
C390 C 0.73381 0.78733 0.83065 0.0
C391 C 0.74005 0.80487 0.85646 0.0
C392 C 0.71606 0.77687 0.80565 0.0
C393 C 0.67751 0.78081 0.73753 0.0
H394 H 0.64887 0.73035 0.78897 0.0
C395 C 0.60022 0.74041 0.69932 0.0
C396 C 0.59215 0.72232 0.67753 0.0
C397 C 0.61859 0.75018 0.71652 0.0
C398 C 0.65676 0.74436 0.77321 0.0
H399 H 0.73223 0.82486 0.87824 0.0
H400 H 0.70147 0.80673 0.83448 0.0
H401 H 0.68028 0.7478 0.82815 0.0
H402 H 0.59737 0.70048 0.65575 0.0
H403 H 0.62945 0.71764 0.68505 0.0
H404 H 0.65403 0.77745 0.683 0.0
C405 C 0.71037 0.80117 0.83218 0.0
C406 C 0.67477 0.75436 0.79575 0.0
C407 C 0.72805 0.81159 0.85727 0.0
C408 C 0.60305 0.71436 0.6724 0.0
C409 C 0.62146 0.72416 0.68968 0.0
C410 C 0.65955 0.77081 0.71493 0.0
C411 C 0.70416 0.78371 0.80577 0.0
C412 C 0.68529 0.77277 0.77888 0.0
C413 C 0.62943 0.74217 0.71238 0.0
C414 C 0.64887 0.75251 0.73315 0.0
H415 H 0.74273 0.78179 0.82857 0.0
H416 H 0.71175 0.76353 0.78508 0.0
H417 H 0.68534 0.79486 0.7224 0.0
H418 H 0.59232 0.74703 0.70425 0.0
H419 H 0.6242 0.76394 0.73473 0.0
C420 C 0.27023 0.95902 0.84362 0.0
C421 C 0.25423 0.94982 0.8838 0.0
C422 C 0.28082 0.95116 0.83014 0.0
C423 C 0.27757 0.90694 0.81721 0.0
H424 H 0.32994 0.93487 0.82001 0.0
C425 C 0.32167 0.8744 0.77014 0.0
C426 C 0.33727 0.88403 0.72803 0.0
C427 C 0.31179 0.88245 0.79263 0.0
C428 C 0.31533 0.92692 0.81825 0.0
H429 H 0.23699 0.9253 0.94258 0.0
H430 H 0.25562 0.91161 0.91964 0.0
H431 H 0.31244 0.94896 0.85511 0.0
H432 H 0.35469 0.90971 0.67649 0.0
H433 H 0.33729 0.92362 0.71472 0.0
H434 H 0.2804 0.88498 0.77932 0.0
C435 C 0.25986 0.92486 0.89805 0.0
C436 C 0.30531 0.93499 0.83854 0.0
C437 C 0.2493 0.93277 0.91184 0.0
C438 C 0.34277 0.90191 0.70904 0.0
C439 C 0.33285 0.90993 0.73137 0.0
C440 C 0.28758 0.89888 0.79671 0.0
C441 C 0.27563 0.93389 0.85635 0.0
C442 C 0.28631 0.92512 0.83794 0.0
C443 C 0.31724 0.9003 0.77343 0.0
C444 C 0.30659 0.90879 0.79665 0.0
H445 H 0.27448 0.97226 0.82188 0.0
H446 H 0.2928 0.95842 0.79738 0.0
H447 H 0.26295 0.89904 0.81502 0.0
H448 H 0.3171 0.86065 0.78619 0.0
H449 H 0.29998 0.87472 0.82581 0.0
C450 C 0.39788 0.11875 0.18193 0.0
C451 C 0.40497 0.13693 0.20074 0.0
C452 C 0.37994 0.10836 0.15887 0.0
C453 C 0.33597 0.10683 0.16718 0.0
H454 H 0.32286 0.07364 0.00845 0.0
C455 C 0.26483 0.0733 0.04364 0.0
C456 C 0.25663 0.05498 0.02523 0.0
C457 C 0.28307 0.083 0.0628 0.0
C458 C 0.32626 0.0827 0.05338 0.0
H459 H 0.39891 0.1586 0.20699 0.0
H460 H 0.36776 0.14055 0.16722 0.0
H461 H 0.3544 0.0909 0.0466 0.0
H462 H 0.2615 0.03263 0.01151 0.0
H463 H 0.29325 0.04954 0.04555 0.0
H464 H 0.30794 0.09866 0.17438 0.0
C465 C 0.37591 0.13418 0.1717 0.0
C466 C 0.34434 0.09259 0.07524 0.0
C467 C 0.39379 0.14454 0.19456 0.0
C468 C 0.2673 0.04672 0.02511 0.0
C469 C 0.28557 0.05644 0.0444 0.0
C470 C 0.31794 0.09695 0.14546 0.0
C471 C 0.36869 0.11592 0.15419 0.0
C472 C 0.34943 0.10489 0.13203 0.0
C473 C 0.29363 0.07466 0.06427 0.0
C474 C 0.31286 0.08487 0.08791 0.0
H475 H 0.40607 0.11242 0.18662 0.0
H476 H 0.37475 0.09429 0.14633 0.0
H477 H 0.33935 0.1159 0.21207 0.0
H478 H 0.25713 0.08019 0.04403 0.0
H479 H 0.28891 0.09709 0.07648 0.0
C480 C 0.9212 0.27793 0.19029 0.0
C481 C 0.92042 0.2814 0.26312 0.0
C482 C 0.93189 0.27084 0.16685 0.0
C483 C 0.95349 0.24546 0.23234 0.0
H484 H 0.97978 0.26069 0.05347 0.0
C485 C 0.98664 0.20772 0.1072 0.0
C486 C 1.00374 0.21808 0.0755 0.0
C487 C 0.97671 0.21575 0.12923 0.0
C488 C 0.97264 0.25638 0.10384 0.0
H489 H 0.93078 0.28079 0.36807 0.0
H490 H 0.94955 0.2686 0.32724 0.0
H491 H 0.96266 0.27473 0.09427 0.0
H492 H 0.0238 0.24508 0.04213 0.0
H493 H 1.00658 0.2591 0.08143 0.0
H494 H 0.96375 0.2274 0.24277 0.0
C495 C 0.94158 0.27095 0.28834 0.0
C496 C 0.96265 0.26429 0.12683 0.0
C497 C 0.93085 0.27797 0.31176 0.0
C498 C 1.01065 0.23666 0.06612 0.0
C499 C 1.00072 0.2447 0.08831 0.0
C500 C 0.96349 0.23758 0.20943 0.0
C501 C 0.9421 0.26712 0.2157 0.0
C502 C 0.95293 0.25891 0.19135 0.0
C503 C 0.98365 0.23435 0.12032 0.0
C504 C 0.97315 0.2429 0.14481 0.0
H505 H 0.91316 0.28023 0.15159 0.0
H506 H 0.93179 0.26784 0.11066 0.0
H507 H 0.946 0.24081 0.28185 0.0
H508 H 0.98085 0.19336 0.115 0.0
H509 H 0.96349 0.20731 0.15264 0.0
C510 C 0.84535 0.78794 0.03149 0.0
C511 C 0.83548 0.797 0.03266 0.0
C512 C 0.83686 0.76946 0.04551 0.0
C513 C 0.7962 0.73251 0.13258 0.0
H514 H 0.81111 0.7023 0.03465 0.0
C515 C 0.76112 0.65542 0.17883 0.0
C516 C 0.77266 0.6483 0.18818 0.0
C517 C 0.76795 0.67317 0.15545 0.0
C518 C 0.80688 0.71059 0.06276 0.0
H519 H 0.80875 0.79355 0.04762 0.0
H520 H 0.79389 0.76128 0.07073 0.0
H521 H 0.82435 0.73387 0.00068 0.0
H522 H 0.80054 0.6545 0.18064 0.0
H523 H 0.81233 0.68526 0.13899 0.0
H524 H 0.77872 0.70917 0.19464 0.0
C525 C 0.8083 0.76853 0.06042 0.0
C526 C 0.81449 0.7287 0.0434 0.0
C527 C 0.81681 0.78704 0.04673 0.0
C528 C 0.79116 0.65935 0.17275 0.0
C529 C 0.79796 0.67703 0.14898 0.0
C530 C 0.78852 0.71436 0.15165 0.0
C531 C 0.81825 0.75952 0.06068 0.0
C532 C 0.80941 0.73997 0.07859 0.0
C533 C 0.78646 0.6842 0.14043 0.0
C534 C 0.79391 0.70324 0.11749 0.0
H535 H 0.85976 0.79517 0.02123 0.0
H536 H 0.84503 0.76307 0.04626 0.0
H537 H 0.79215 0.74081 0.16165 0.0
H538 H 0.74676 0.64725 0.18912 0.0
H539 H 0.75871 0.67823 0.14858 0.0
C540 C 0.06515 0.45196 0.53296 0.0
C541 C 0.07128 0.46901 0.56366 0.0
C542 C 0.04714 0.44138 0.51109 0.0
C543 C 1.00168 0.43546 0.54088 0.0
H544 H 0.98963 0.40901 0.3627 0.0
C545 C 0.9295 0.40117 0.42472 0.0
C546 C 0.92273 0.38411 0.39333 0.0
C547 C 0.94769 0.41134 0.44452 0.0
C548 C 0.99274 0.41614 0.41304 0.0
H549 H 0.06334 0.48852 0.59295 0.0
H550 H 0.03204 0.47011 0.55528 0.0
H551 H 0.02122 0.42695 0.39899 0.0
H552 H 0.92988 0.36441 0.35799 0.0
H553 H 0.96152 0.38205 0.39324 0.0
H554 H 0.97327 0.42467 0.55521 0.0
C555 C 0.04104 0.46474 0.54934 0.0
C556 C 1.01086 0.42643 0.43382 0.0
C557 C 0.05901 0.4753 0.57103 0.0
C558 C 0.93462 0.37751 0.38185 0.0
C559 C 0.95282 0.38768 0.40172 0.0
C560 C 0.98359 0.42517 0.5202 0.0
C561 C 0.03483 0.4476 0.51949 0.0
C562 C 1.01556 0.4363 0.49782 0.0
C563 C 0.95957 0.4047 0.43357 0.0
C564 C 0.97887 0.41545 0.45584 0.0
H565 H 0.07418 0.44661 0.52712 0.0
H566 H 0.04276 0.42817 0.48894 0.0
H567 H 1.00479 0.44263 0.59115 0.0
H568 H 0.92077 0.40674 0.43409 0.0
H569 H 0.95247 0.4245 0.46787 0.0
C570 C 0.60377 0.62493 0.49033 0.0
C571 C 0.58908 0.61679 0.53782 0.0
C572 C 0.61425 0.61699 0.47631 0.0
C573 C 0.62575 0.5833 0.54299 0.0
H574 H 0.63903 0.58281 0.34538 0.0
C575 C 0.65734 0.54117 0.44524 0.0
C576 C 0.67174 0.54949 0.39642 0.0
C577 C 0.64729 0.54935 0.46385 0.0
C578 C 0.6356 0.583 0.40091 0.0
H579 H 0.57416 0.59417 0.60923 0.0
H580 H 0.59245 0.58022 0.58455 0.0
H581 H 0.6218 0.59736 0.37705 0.0
H582 H 0.6868 0.57296 0.32877 0.0
H583 H 0.66933 0.58719 0.36143 0.0
H584 H 0.63951 0.56882 0.56659 0.0
C585 C 0.59596 0.59285 0.55865 0.0
C586 C 0.62574 0.59136 0.41913 0.0
C587 C 0.58548 0.60084 0.57285 0.0
C588 C 0.67578 0.56613 0.36641 0.0
C589 C 0.6657 0.57426 0.38485 0.0
C590 C 0.6356 0.5749 0.52471 0.0
C591 C 0.61029 0.60069 0.50929 0.0
C592 C 0.62075 0.59169 0.49042 0.0
C593 C 0.65136 0.56599 0.43388 0.0
C594 C 0.6407 0.5747 0.45346 0.0
H595 H 0.60709 0.6374 0.4635 0.0
H596 H 0.62544 0.62361 0.43928 0.0
H597 H 0.6223 0.58349 0.59848 0.0
H598 H 0.65385 0.52837 0.46948 0.0
H599 H 0.6362 0.54252 0.50116 0.0
C600 C 0.48433 0.12097 0.38851 0.0
C601 C 0.50295 0.13095 0.37355 0.0
C602 C 0.47603 0.10259 0.40483 0.0
C603 C 0.48272 0.06299 0.39339 0.0
H604 H 0.44686 0.04405 0.54437 0.0
C605 C 0.45912 0.99401 0.52732 0.0
C606 C 0.44055 0.98305 0.5419 0.0
C607 C 0.46605 1.01167 0.50291 0.0
C608 C 0.45669 0.04908 0.50152 0.0
H609 H 0.52739 0.12933 0.36371 0.0
H610 H 0.51303 0.09751 0.39338 0.0
H611 H 0.46015 0.07551 0.50877 0.0
H612 H 0.41471 0.9821 0.54052 0.0
H613 H 0.42689 0.01302 0.49892 0.0
H614 H 0.47949 0.03661 0.38733 0.0
C615 C 0.50473 0.10375 0.39122 0.0
C616 C 0.4643 0.06712 0.48094 0.0
C617 C 0.51301 0.12207 0.37455 0.0
C618 C 0.42911 0.99022 0.53103 0.0
C619 C 0.43608 1.00794 0.50703 0.0
C620 C 0.47519 0.04499 0.41428 0.0
C621 C 0.48615 0.09377 0.40692 0.0
C622 C 0.47751 0.07436 0.4269 0.0
C623 C 0.45464 0.01888 0.49284 0.0
C624 C 0.46217 0.03785 0.46887 0.0
H625 H 0.47614 0.12733 0.38783 0.0
H626 H 0.46164 0.0953 0.41553 0.0
H627 H 0.49259 0.06797 0.35067 0.0
H628 H 0.46841 0.98911 0.53629 0.0
H629 H 0.48046 0.01984 0.49349 0.0
C630 C 0.15327 0.11481 0.0546 0.0
C631 C 0.14572 0.09617 0.04416 0.0
C632 C 0.14301 0.12311 0.04281 0.0
C633 C 0.09592 0.11372 0.02948 0.0
H634 H 0.11864 0.16108 0.94212 0.0
C635 C 0.0561 0.15019 0.96431 0.0
C636 C 0.06451 0.16838 -0.01514 0.0
C637 C 0.06573 0.14096 0.96493 0.0
C638 C 0.11212 0.1479 0.96692 0.0
H639 H 0.12134 0.07165 0.01372 0.0
H640 H 0.10352 0.08621 -0.00815 0.0
H641 H 0.13584 0.14566 0.95673 0.0
H642 H 0.0898 0.19125 0.02023 0.0
H643 H 0.1065 0.17518 0.02126 0.0
H644 H 0.07223 0.11605 0.04006 0.0
C645 C 0.11735 0.09437 0.00985 0.0
C646 C 0.122 0.13907 0.97547 0.0
C647 C 0.12762 0.08605 0.02169 0.0
C648 C 0.08288 0.17724 0.00411 0.0
C649 C 0.09251 0.16806 0.00431 0.0
C650 C 0.08603 0.12254 0.02075 0.0
C651 C 0.12494 0.11302 0.02008 0.0
C652 C 0.1141 0.12197 0.00769 0.0
C653 C 0.08401 0.14975 -0.01443 0.0
C654 C 0.09409 0.13983 -0.00983 0.0
H655 H 0.16722 0.12307 0.07097 0.0
H656 H 0.14923 0.13745 0.05218 0.0
H657 H 0.08948 0.10066 0.05525 0.0
H658 H 0.04197 0.14294 0.9493 0.0
H659 H 0.05886 0.12691 0.94951 0.0
C660 C 0.88098 0.91999 -0.01533 0.0
C661 C 0.89014 0.91095 0.00571 0.0
C662 C 0.88982 0.9388 -0.01569 0.0
C663 C 0.92934 0.97925 0.05986 0.0
H664 H 0.91965 1.00374 0.90704 0.0
C665 C 0.96822 0.05715 0.02707 0.0
C666 C 0.95783 0.06506 0.00816 0.0
C667 C 0.96054 0.03838 0.02707 0.0
C668 C 0.92238 0.99711 0.95047 0.0
H669 H 0.91591 0.91476 0.04245 0.0
H670 H 0.93134 0.94755 0.041 0.0
H671 H 0.90531 0.97104 0.90554 0.0
H672 H 0.931 0.05933 0.97718 0.0
H673 H 0.91772 0.02678 0.97677 0.0
H674 H 0.94645 1.00541 0.10466 0.0
C675 C 0.91724 0.94006 0.02572 0.0
C676 C 0.91414 0.97834 0.94965 0.0
C677 C 0.90839 0.92123 0.02615 0.0
C678 C 0.93953 0.05375 -0.00958 0.0
C679 C 0.93189 0.03505 -0.00978 0.0
C680 C 0.93763 0.99806 0.06057 0.0
C681 C 0.90806 0.94909 0.00483 0.0
C682 C 0.91738 0.96914 0.00464 0.0
C683 C 0.94232 0.02713 0.00802 0.0
C684 C 0.93411 1.00719 0.00621 0.0
H685 H 0.86691 0.91256 0.96886 0.0
H686 H 0.88225 0.94528 0.96893 0.0
H687 H 0.93198 0.97261 0.10351 0.0
H688 H 0.98239 0.06545 0.04037 0.0
H689 H 0.96897 0.03271 0.0405 0.0
C690 C 0.99716 0.9212 0.00669 0.0
C691 C 0.98893 0.90262 -0.00709 0.0
C692 C 1.01586 0.93241 -0.00127 0.0
C693 C 0.05808 0.93077 -0.00122 0.0
H694 H 0.07921 0.97857 0.91629 0.0
C695 C 0.13487 0.97418 0.95283 0.0
C696 C 0.14313 0.99266 0.96852 0.0
C697 C 0.11604 0.96343 0.95085 0.0
C698 C 0.07354 0.96532 0.94016 0.0
H699 H 0.99389 0.88147 0.95671 0.0
H700 H 0.02644 0.90098 0.94333 0.0
H701 H 0.04636 0.95948 0.92188 0.0
H702 H 0.13789 0.01433 -0.00662 0.0
H703 H 0.10511 0.99554 -0.00876 0.0
H704 H 0.08512 0.93661 0.0183 0.0
C705 C 1.01847 0.90683 0.96151 0.0
C706 C 0.05471 0.95438 0.94325 0.0
C707 C 0.99981 0.89564 0.96927 0.0
C708 C 0.13204 1.00017 -0.01911 0.0
C709 C 0.11319 0.98939 -0.0207 0.0
C710 C 0.07687 0.94171 -0.00398 0.0
C711 C 0.02676 0.92531 0.97696 0.0
C712 C 0.04676 0.93696 0.97257 0.0
C713 C 0.10494 0.97084 0.96494 0.0
C714 C 0.08487 0.95914 0.96666 0.0
H715 H 0.98924 0.927 0.02573 0.0
H716 H 0.02184 0.94656 0.01173 0.0
H717 H 0.05241 0.91755 0.02288 0.0
H718 H 0.14293 0.96793 0.94226 0.0
H719 H 0.11019 0.94928 0.93817 0.0
C720 C 0.75282 0.51118 0.3183 0.0
C721 C 0.73401 0.50146 0.30803 0.0
C722 C 0.76296 0.50252 0.31513 0.0
C723 C 0.76174 0.46076 0.25413 0.0
H724 H 0.79961 0.47459 0.3953 0.0
C725 C 0.79927 0.42099 0.30126 0.0
C726 C 0.81812 0.43127 0.31062 0.0
C727 C 0.78877 0.42931 0.29923 0.0
C728 C 0.7892 0.47068 0.35509 0.0
H729 H 0.71116 0.47504 0.28468 0.0
H730 H 0.72882 0.4599 0.28019 0.0
H731 H 0.78186 0.4896 0.39338 0.0
H732 H 0.84069 0.45846 0.32324 0.0
H733 H 0.82238 0.47287 0.32063 0.0
H734 H 0.76905 0.44168 0.21649 0.0
C735 C 0.73578 0.47427 0.28981 0.0
C736 C 0.77904 0.47932 0.35383 0.0
C737 C 0.72563 0.48295 0.29265 0.0
C738 C 0.82619 0.45006 0.31755 0.0
C739 C 0.8157 0.45835 0.31586 0.0
C740 C 0.77188 0.45205 0.25561 0.0
C741 C 0.75454 0.48391 0.30199 0.0
C742 C 0.76525 0.47456 0.30309 0.0
C743 C 0.79687 0.44808 0.30684 0.0
C744 C 0.78578 0.45699 0.30589 0.0
H745 H 0.75974 0.52547 0.32965 0.0
H746 H 0.77743 0.51045 0.32327 0.0
H747 H 0.75136 0.45688 0.21384 0.0
H748 H 0.79258 0.40647 0.29658 0.0
H749 H 0.77427 0.421 0.29299 0.0
C750 C 0.63568 0.38907 0.3372 0.0
C751 C 0.62613 0.39814 0.32335 0.0
C752 C 0.62728 0.37037 0.32967 0.0
C753 C 0.58191 0.32968 0.32847 0.0
H754 H 0.60777 0.30637 0.25874 0.0
C755 C 0.54684 0.2526 0.29076 0.0
C756 C 0.55631 0.24413 0.31505 0.0
C757 C 0.5554 0.27137 0.28627 0.0
C758 C 0.60041 0.31268 0.27883 0.0
H759 H 0.60047 0.39472 0.28771 0.0
H760 H 0.58585 0.36212 0.27395 0.0
H761 H 0.62265 0.33919 0.25921 0.0
H762 H 0.58238 0.2489 0.35249 0.0
H763 H 0.59722 0.2816 0.345 0.0
H764 H 0.55973 0.3032 0.34851 0.0
C765 C 0.59973 0.36942 0.29212 0.0
C766 C 0.60894 0.33149 0.27913 0.0
C767 C 0.60812 0.38811 0.29985 0.0
C768 C 0.57464 0.25492 0.3336 0.0
C769 C 0.5832 0.27369 0.32888 0.0
C770 C 0.57338 0.31088 0.328 0.0
C771 C 0.60912 0.36027 0.30792 0.0
C772 C 0.59984 0.34024 0.30441 0.0
C773 C 0.57365 0.28215 0.30571 0.0
C774 C 0.58256 0.30215 0.30363 0.0
H775 H 0.64949 0.39634 0.35636 0.0
H776 H 0.63486 0.36377 0.34326 0.0
H777 H 0.57459 0.33593 0.34951 0.0
H778 H 0.53273 0.24476 0.27575 0.0
H779 H 0.54771 0.27745 0.26733 0.0
C780 C 0.66465 0.25357 0.31602 0.0
C781 C 0.65669 0.23508 0.3316 0.0
C782 C 0.68345 0.26435 0.30916 0.0
C783 C 0.72547 0.26603 0.36609 0.0
H784 H 0.74836 0.30191 0.21718 0.0
C785 C 0.80233 0.30261 0.32554 0.0
C786 C 0.81132 0.32115 0.31038 0.0
C787 C 0.78349 0.29237 0.32365 0.0
C788 C 0.74218 0.2921 0.2596 0.0
H789 H 0.66229 0.21332 0.3484 0.0
H790 H 0.69494 0.2321 0.33726 0.0
H791 H 0.71537 0.2837 0.2222 0.0
H792 H 0.80745 0.34338 0.27969 0.0
H793 H 0.77449 0.32553 0.2776 0.0
H794 H 0.75206 0.27446 0.40437 0.0
C795 C 0.68669 0.23834 0.33162 0.0
C796 C 0.72328 0.28165 0.26237 0.0
C797 C 0.66795 0.22758 0.33814 0.0
C798 C 0.80098 0.32912 0.29148 0.0
C799 C 0.78206 0.31886 0.29003 0.0
C800 C 0.74429 0.2765 0.36359 0.0
C801 C 0.69469 0.25689 0.31801 0.0
C802 C 0.71472 0.26838 0.31532 0.0
C803 C 0.77306 0.30039 0.30714 0.0
C804 C 0.75293 0.28956 0.30996 0.0
H805 H 0.65641 0.25983 0.31123 0.0
H806 H 0.68922 0.27862 0.29911 0.0
H807 H 0.7193 0.25619 0.40847 0.0
H808 H 0.80984 0.29597 0.33954 0.0
H809 H 0.77708 0.27812 0.33546 0.0
C810 C 0.47065 0.76446 0.75762 0.0
C811 C 0.47888 0.76167 0.69783 0.0
C812 C 0.45973 0.77221 0.74983 0.0
C813 C 0.43408 0.78259 0.61655 0.0
H814 H 0.44044 0.81903 0.75408 0.0
C815 C 0.3892 0.81576 0.62218 0.0
C816 C 0.39777 0.83419 0.63904 0.0
C817 C 0.39867 0.80639 0.62652 0.0
C818 C 0.43859 0.80899 0.71484 0.0
H819 H 0.4815 0.76422 0.58264 0.0
H820 H 0.46278 0.77805 0.56924 0.0
H821 H 0.45736 0.80337 0.76785 0.0
H822 H 0.42325 0.85738 0.67064 0.0
H823 H 0.43976 0.84117 0.67687 0.0
H824 H 0.41561 0.78858 0.56257 0.0
C825 C 0.46465 0.77414 0.62213 0.0
C826 C 0.44811 0.79982 0.72334 0.0
C827 C 0.47557 0.76641 0.62992 0.0
C828 C 0.41616 0.84316 0.65788 0.0
C829 C 0.42561 0.83382 0.66198 0.0
C830 C 0.42453 0.79178 0.60804 0.0
C831 C 0.45676 0.77733 0.68207 0.0
C832 C 0.44605 0.78656 0.67415 0.0
C833 C 0.41692 0.81526 0.64765 0.0
C834 C 0.42678 0.80519 0.65683 0.0
H835 H 0.473 0.76107 0.81073 0.0
H836 H 0.45368 0.77426 0.79704 0.0
H837 H 0.43203 0.77233 0.57807 0.0
H838 H 0.37503 0.80841 0.6078 0.0
H839 H 0.39152 0.79207 0.61558 0.0
C840 C 0.2422 0.58771 0.66962 0.0
C841 C 0.22356 0.57706 0.65607 0.0
C842 C 0.25075 0.6065 0.66723 0.0
C843 C 0.24534 0.64427 0.60057 0.0
H844 H 0.28069 0.67154 0.74688 0.0
C845 C 0.27159 0.71979 0.64673 0.0
C846 C 0.29023 0.73106 0.65878 0.0
C847 C 0.26389 0.70108 0.64563 0.0
C848 C 0.271 0.66414 0.70518 0.0
H849 H 0.19937 0.57794 0.62828 0.0
H850 H 0.21424 0.61069 0.62495 0.0
H851 H 0.26645 0.63881 0.74483 0.0
H852 H 0.31533 0.73136 0.67976 0.0
H853 H 0.30182 0.69863 0.67844 0.0
H854 H 0.24976 0.66962 0.56146 0.0
C855 C 0.22231 0.6045 0.63655 0.0
C856 C 0.26285 0.64536 0.7039 0.0
C857 C 0.21375 0.58569 0.63876 0.0
C858 C 0.30091 0.7231 0.67105 0.0
C859 C 0.29317 0.70434 0.67019 0.0
C860 C 0.25345 0.66304 0.602 0.0
C861 C 0.24089 0.61515 0.65139 0.0
C862 C 0.24986 0.63518 0.65173 0.0
C863 C 0.27459 0.69312 0.65688 0.0
C864 C 0.26632 0.67319 0.65451 0.0
H865 H 0.25024 0.58157 0.6827 0.0
H866 H 0.26513 0.61425 0.6777 0.0
H867 H 0.23564 0.6369 0.5589 0.0
H868 H 0.26288 0.72542 0.63863 0.0
H869 H 0.24948 0.69283 0.63669 0.0
C870 C 0.46767 0.66794 0.62004 0.0
C871 C 0.47842 0.65989 0.62843 0.0
C872 C 0.44881 0.65741 0.61833 0.0
C873 C 0.4113 0.61035 0.59243 0.0
H874 H 0.38291 0.62728 0.69217 0.0
C875 C 0.33588 0.56394 0.66117 0.0
C876 C 0.32413 0.57082 0.65201 0.0
C877 C 0.35456 0.57509 0.65362 0.0
C878 C 0.39063 0.62246 0.66333 0.0
H879 H 0.47755 0.63432 0.64136 0.0
H880 H 0.44478 0.61609 0.63963 0.0
H881 H 0.41573 0.64617 0.68775 0.0
H882 H 0.32299 0.5949 0.62632 0.0
H883 H 0.35564 0.61441 0.61431 0.0
H884 H 0.38617 0.58647 0.56935 0.0
C885 C 0.45093 0.63052 0.63304 0.0
C886 C 0.40946 0.6333 0.66067 0.0
C887 C 0.46978 0.64103 0.63445 0.0
C888 C 0.33161 0.58917 0.63486 0.0
C889 C 0.35033 0.60036 0.62781 0.0
C890 C 0.39249 0.59947 0.59546 0.0
C891 C 0.44017 0.63856 0.62521 0.0
C892 C 0.42006 0.62733 0.62562 0.0
C893 C 0.36202 0.59345 0.63722 0.0
C894 C 0.38194 0.60535 0.63138 0.0
H895 H 0.47381 0.68241 0.61486 0.0
H896 H 0.44099 0.66406 0.61117 0.0
H897 H 0.41897 0.60544 0.56376 0.0
H898 H 0.3307 0.54999 0.67581 0.0
H899 H 0.36321 0.56941 0.66232 0.0
C900 C 0.03591 0.21474 0.76307 0.0
C901 C 0.02226 0.20215 0.80776 0.0
C902 C 0.03307 0.21422 0.68985 0.0
C903 C 1.01099 0.17965 0.56202 0.0
H904 H 0.03146 0.21925 0.42708 0.0
C905 C 0.02039 0.1722 0.26009 0.0
C906 C 0.03623 0.18626 0.22983 0.0
C907 C 1.01616 0.17325 0.33107 0.0
C908 C 0.02576 0.20808 0.46435 0.0
H909 H 0.99429 0.18046 0.81263 0.0
H910 H 0.98953 0.17937 0.68405 0.0
H911 H 0.02617 0.22472 0.55016 0.0
H912 H 0.06105 0.21127 0.25091 0.0
H913 H 0.054 0.21274 0.3757 0.0
H914 H 1.01153 0.16322 0.47755 0.0
C915 C 1.00238 0.18955 0.7058 0.0
C916 C 0.02255 0.21119 0.53419 0.0
C917 C 1.00515 0.19018 0.77916 0.0
C918 C 0.04864 0.20039 0.27305 0.0
C919 C 0.0445 0.20134 0.34398 0.0
C920 C 1.01432 0.17657 0.49226 0.0
C921 C 1.0166 0.20101 0.66056 0.0
C922 C 1.01571 0.19712 0.58401 0.0
C923 C 0.02782 0.18827 0.37241 0.0
C924 C 0.02235 0.19091 0.44371 0.0
H925 H 0.04912 0.2243 0.78404 0.0
H926 H 0.04428 0.22315 0.65581 0.0
H927 H 1.00594 0.16864 0.59994 0.0
H928 H 1.01056 0.1612 0.22762 0.0
H929 H 1.00327 0.16293 0.35204 0.0
C930 C 0.8562 0.85854 0.75495 0.0
C931 C 0.87112 0.86219 0.79777 0.0
C932 C 0.85883 0.86535 0.68584 0.0
C933 C 0.88955 0.87661 0.54028 0.0
H934 H 0.86041 0.89463 0.45431 0.0
C935 C 0.88318 0.87531 0.24154 0.0
C936 C 0.86524 0.86722 0.21831 0.0
C937 C 0.88769 0.88227 0.31013 0.0
C938 C 0.8687 0.8897 0.47765 0.0
H939 H 0.90045 0.87589 0.80251 0.0
H940 H 0.90495 0.88744 0.68088 0.0
H941 H 0.86099 0.89203 0.58415 0.0
H942 H 0.83809 0.86102 0.24446 0.0
H943 H 0.84555 0.87184 0.36712 0.0
H944 H 0.89615 0.87274 0.43512 0.0
C945 C 0.8913 0.87948 0.70124 0.0
C946 C 0.86906 0.88829 0.55166 0.0
C947 C 0.88869 0.87276 0.77044 0.0
C948 C 0.85196 0.867 0.26249 0.0
C949 C 0.85635 0.87347 0.33208 0.0
C950 C 0.88902 0.87779 0.46657 0.0
C951 C 0.87639 0.87581 0.65852 0.0
C952 C 0.87894 0.88106 0.58305 0.0
C953 C 0.87418 0.88065 0.35723 0.0
C954 C 0.87799 0.88363 0.43437 0.0
H955 H 0.84251 0.85059 0.77494 0.0
H956 H 0.84712 0.86205 0.65312 0.0
H957 H 0.89715 0.87085 0.56339 0.0
H958 H 0.8937 0.87611 0.20679 0.0
H959 H 0.90162 0.88819 0.32724 0.0
C960 C 0.19955 0.04937 0.74028 0.0
C961 C 0.19452 0.03282 0.77358 0.0
C962 C 0.19795 0.05022 0.6662 0.0
C963 C 0.17569 0.02174 0.50889 0.0
H964 H 0.21985 0.05392 0.4072 0.0
C965 C 0.19192 1.00439 0.23607 0.0
C966 C 0.1991 0.01786 0.18377 0.0
C967 C 0.18978 1.00865 0.3058 0.0
C968 C 0.20731 0.0451 0.43474 0.0
H969 H 0.18315 1.00411 0.75595 0.0
H970 H 0.18046 1.00564 0.62803 0.0
H971 H 0.218 0.05756 0.5358 0.0
H972 H 0.2108 0.04637 0.16292 0.0
H973 H 0.20697 0.0539 0.28541 0.0
H974 H 0.16531 1.0087 0.40874 0.0
C975 C 0.18554 0.01794 0.65867 0.0
C976 C 0.20623 0.04723 0.50816 0.0
C977 C 0.1873 0.01712 0.73203 0.0
C978 C 0.20471 0.03573 0.20232 0.0
C979 C 0.2027 0.04004 0.27225 0.0
C980 C 0.17678 0.01959 0.43578 0.0
C981 C 0.19102 0.03448 0.62488 0.0
C982 C 0.19067 0.03508 0.5462 0.0
C983 C 0.195 0.02648 0.32435 0.0
C984 C 0.19285 0.03079 0.39866 0.0
H985 H 0.20516 0.06169 0.77105 0.0
H986 H 0.20227 0.06314 0.64117 0.0
H987 H 0.16343 0.01239 0.53694 0.0
H988 H 0.18764 0.99054 0.22278 0.0
H989 H 0.18419 0.99802 0.34543 0.0
C990 C 0.70936 0.54782 0.59453 0.0
C991 C 0.70724 0.53178 0.56557 0.0
C992 C 0.70329 0.54801 0.66325 0.0
C993 C 0.67229 0.51796 0.80183 0.0
H994 H 0.7047 0.55558 0.931 0.0
C995 C 0.67589 0.50917 0.10049 0.0
C996 C 0.68333 0.52454 0.14368 0.0
C997 C 0.67285 0.51061 0.02831 0.0
C998 C 0.69517 0.54524 0.89537 0.0
H999 H 0.69785 0.50356 0.58675 0.0
H1000 H 0.68777 0.50406 0.70776 0.0
H1001 H 0.71262 0.55743 0.80617 0.0
H1002 H 0.691 0.5527 0.14979 0.0
H1003 H 0.68517 0.55512 0.02413 0.0
H1004 H 0.65524 0.50535 0.89233 0.0
C1005 C 0.69362 0.51633 0.6764 0.0
C1006 C 0.69981 0.54627 0.82381 0.0
C1007 C 0.69965 0.51612 0.60762 0.0
C1008 C 0.68571 0.54081 0.11646 0.0
C1009 C 0.68233 0.54216 0.04486 0.0
C1010 C 0.66761 0.51693 0.87366 0.0
C1011 C 0.69509 0.53219 0.70422 0.0
C1012 C 0.68874 0.53233 0.77705 0.0
C1013 C 0.67699 0.52738 -0.00075 0.0
C1014 C 0.67935 0.53025 0.9215 0.0
H1015 H 0.71504 0.56009 0.56325 0.0
H1016 H 0.7046 0.56041 0.68366 0.0
H1017 H 0.66336 0.50723 0.76617 0.0
H1018 H 0.67383 0.49646 0.12099 0.0
H1019 H 0.66879 0.49899 -0.00557 0.0
C1020 C 0.5182 0.20184 0.58741 0.0
C1021 C 0.53212 0.20333 0.5436 0.0
C1022 C 0.5219 0.20751 0.65818 0.0
C1023 C 0.55388 0.21031 0.79185 0.0
H1024 H 0.52427 0.22107 0.91606 0.0
C1025 C 0.5537 0.20233 0.09519 0.0
C1026 C 0.53631 0.19194 0.12441 0.0
C1027 C 0.55586 0.20881 0.02576 0.0
C1028 C 0.53271 0.2182 0.88173 0.0
H1029 H 0.56091 0.21379 0.53381 0.0
H1030 H 0.56761 0.2245 0.65658 0.0
H1031 H 0.52426 0.22603 0.78745 0.0
H1032 H 0.50755 0.17999 0.104 0.0
H1033 H 0.51138 0.191 -0.01838 0.0
H1034 H 0.56182 0.20188 0.88534 0.0
C1035 C 0.55376 0.21825 0.63805 0.0
C1036 C 0.53272 0.22103 0.80846 0.0
C1037 C 0.54997 0.21211 0.56817 0.0
C1038 C 0.52111 0.18786 0.08265 0.0
C1039 C 0.52329 0.19441 0.01321 0.0
C1040 C 0.55399 0.20765 0.86483 0.0
C1041 C 0.53963 0.21506 0.68488 0.0
C1042 C 0.54275 0.21641 0.7626 0.0
C1043 C 0.54068 0.20502 -0.01546 0.0
C1044 C 0.54288 0.21091 0.90987 0.0
H1045 H 0.50438 0.19525 0.56838 0.0
H1046 H 0.51068 0.20474 0.69294 0.0
H1047 H 0.56152 0.20627 0.75817 0.0
H1048 H 0.56567 0.20575 0.12631 0.0
H1049 H 0.56939 0.21691 0.00445 0.0
C1050 C 0.84437 0.36121 0.57516 0.0
C1051 C 0.84769 0.34799 0.54673 0.0
C1052 C 0.8413 0.36144 0.64805 0.0
C1053 C 0.83355 0.33681 0.81736 0.0
H1054 H 0.87482 0.38119 0.88415 0.0
C1055 C 0.86713 0.33998 0.08323 0.0
C1056 C 0.87312 0.35543 0.12531 0.0
C1057 C 0.86129 0.33969 0.01369 0.0
C1058 C 0.86298 0.36888 0.86692 0.0
H1059 H 0.8483 0.32353 0.56965 0.0
H1060 H 0.84296 0.32395 0.69695 0.0
H1061 H 0.86554 0.37862 0.76029 0.0
H1062 H 0.87849 0.38301 0.12702 0.0
H1063 H 0.86801 0.38239 0.00614 0.0
H1064 H 0.8313 0.32688 0.92367 0.0
C1065 C 0.84281 0.33414 0.66323 0.0
C1066 C 0.85761 0.36745 0.79606 0.0
C1067 C 0.84612 0.33404 0.59065 0.0
C1068 C 0.87405 0.37092 0.09562 0.0
C1069 C 0.86798 0.37055 0.02643 0.0
C1070 C 0.83878 0.3383 0.88855 0.0
C1071 C 0.84124 0.34831 0.69284 0.0
C1072 C 0.84333 0.35117 0.77022 0.0
C1073 C 0.86114 0.3548 -0.01456 0.0
C1074 C 0.85401 0.3541 0.91314 0.0
H1075 H 0.84535 0.37204 0.54215 0.0
H1076 H 0.84009 0.37246 0.67008 0.0
H1077 H 0.82245 0.32416 0.7983 0.0
H1078 H 0.86639 0.3279 0.10481 0.0
H1079 H 0.85664 0.32755 -0.01756 0.0
C1080 C 0.36853 0.88026 0.41333 0.0
C1081 C 0.35506 0.86748 0.45811 0.0
C1082 C 0.36556 0.87978 0.34022 0.0
C1083 C 0.34399 0.84536 0.21195 0.0
H1084 H 0.36345 0.88516 0.07793 0.0
C1085 C 0.35411 0.83851 0.91045 0.0
C1086 C 0.36975 0.85287 0.88024 0.0
C1087 C 0.34964 0.83945 -0.01884 0.0
C1088 C 0.35804 0.87394 0.11493 0.0
H1089 H 0.32729 0.84541 0.46337 0.0
H1090 H 0.32232 0.84435 0.33487 0.0
H1091 H 0.35795 0.89018 0.20135 0.0
H1092 H 0.39397 0.87841 0.90132 0.0
H1093 H 0.38653 0.87971 0.02573 0.0
H1094 H 0.34509 0.82935 0.12701 0.0
C1095 C 0.3351 0.85469 0.3565 0.0
C1096 C 0.35469 0.87678 0.18496 0.0
C1097 C 0.338 0.8553 0.42978 0.0
C1098 C 0.38173 0.86728 0.92335 0.0
C1099 C 0.37735 0.86814 -0.00593 0.0
C1100 C 0.34746 0.84255 0.14204 0.0
C1101 C 0.34914 0.86641 0.31112 0.0
C1102 C 0.34824 0.86265 0.23445 0.0
C1103 C 0.36085 0.85467 0.02243 0.0
C1104 C 0.35515 0.85698 0.0938 0.0
H1105 H 0.38169 0.88999 0.43413 0.0
H1106 H 0.37663 0.88889 0.30607 0.0
H1107 H 0.33924 0.83431 0.24962 0.0
H1108 H 0.3446 0.82727 0.87812 0.0
H1109 H 0.3369 0.82883 0.00201 0.0
C1110 C 0.21298 0.53743 0.93693 0.0
C1111 C 0.19952 0.53666 0.89195 0.0
C1112 C 0.21371 0.54241 0.00798 0.0
C1113 C 0.18259 0.53408 0.1438 0.0
H1114 H 0.22498 0.5628 0.26029 0.0
C1115 C 0.18172 0.52115 0.44358 0.0
C1116 C 0.19732 0.52179 0.47074 0.0
C1117 C 0.18185 0.52775 0.37566 0.0
C1118 C 0.21303 0.55469 0.22842 0.0
H1119 H 0.17697 0.54154 0.88397 0.0
H1120 H 0.17788 0.54957 0.00944 0.0
H1121 H 0.22651 0.56782 0.13144 0.0
H1122 H 0.22508 0.52929 0.44868 0.0
H1123 H 0.22498 0.53959 0.32771 0.0
H1124 H 0.16953 0.51967 0.23825 0.0
C1125 C 0.18797 0.5466 -0.0108 0.0
C1126 C 0.21388 0.55775 0.15515 0.0
C1127 C 0.1874 0.54188 0.91786 0.0
C1128 C 0.2129 0.52864 0.4285 0.0
C1129 C 0.21291 0.53485 0.35988 0.0
C1130 C 0.18183 0.53077 0.21662 0.0
C1131 C 0.20084 0.54645 0.03494 0.0
C1132 C 0.19885 0.54697 0.11229 0.0
C1133 C 0.19745 0.53467 0.33306 0.0
C1134 C 0.19728 0.54053 0.25916 0.0
H1135 H 0.22266 0.53375 0.91777 0.0
H1136 H 0.22358 0.54196 0.0429 0.0
H1137 H 0.17091 0.52546 0.11132 0.0
H1138 H 0.16961 0.51622 0.47571 0.0
H1139 H 0.1698 0.52761 0.35695 0.0
C1140 C 0.53402 0.71566 0.39548 0.0
C1141 C 0.52854 0.69908 0.42939 0.0
C1142 C 0.53209 0.71636 0.32161 0.0
C1143 C 0.5092 0.68777 0.16446 0.0
H1144 H 0.55358 0.71989 0.06392 0.0
C1145 C 0.52625 0.67116 0.89108 0.0
C1146 C 0.5338 0.68486 0.83977 0.0
C1147 C 0.52363 0.67512 0.96067 0.0
C1148 C 0.54098 0.71109 0.09111 0.0
H1149 H 0.51585 0.67019 0.41334 0.0
H1150 H 0.51265 0.67145 0.28547 0.0
H1151 H 0.55164 0.72331 0.19238 0.0
H1152 H 0.54543 0.71343 0.82038 0.0
H1153 H 0.54083 0.72043 0.94265 0.0
H1154 H 0.49889 0.67496 0.0638 0.0
C1155 C 0.51835 0.6839 0.31549 0.0
C1156 C 0.53984 0.71309 0.16452 0.0
C1157 C 0.52041 0.68321 0.38878 0.0
C1158 C 0.53914 0.70262 0.85904 0.0
C1159 C 0.53667 0.70663 0.92883 0.0
C1160 C 0.51037 0.68573 0.09126 0.0
C1161 C 0.52442 0.70047 0.28096 0.0
C1162 C 0.52418 0.70099 0.2022 0.0
C1163 C 0.52875 0.69287 -0.01995 0.0
C1164 C 0.5265 0.69695 0.05452 0.0
H1165 H 0.54029 0.72811 0.42554 0.0
H1166 H 0.53683 0.7293 0.29614 0.0
H1167 H 0.49686 0.67847 0.19214 0.0
H1168 H 0.52214 0.65738 0.87716 0.0
H1169 H 0.51785 0.66433 -0.00037 0.0
loop_
_geom_bond_atom_site_label_1
_geom_bond_atom_site_label_2
_geom_bond_distance
_geom_bond_site_symmetry_2
_ccdc_geom_bond_type
Dy0 O3 2.308 . S
Dy0 O5 2.387 1_556 S
Dy0 O6 2.383 . S
Dy0 O8 2.353 . S
Dy0 O10 2.300 1_655 S
Dy0 O14 2.264 1_656 S
Dy0 C22 2.736 1_556 S
Dy1 O4 2.298 . S
Dy1 O7 2.275 1_554 S
Dy1 O9 2.307 . S
Dy1 O11 2.395 1_554 S
Dy1 O12 2.379 . S
Dy1 O15 2.339 . S
Dy1 C31 2.738 1_554 S
C2 O14 1.254 . S
C2 O15 1.257 . S
O3 Dy0 2.308 . S
O3 C13 1.266 1_556 S
O4 Dy1 2.298 . S
O4 C13 1.236 1_455 S
O5 Dy0 2.387 1_554 S
O5 C22 1.255 . S
O6 Dy0 2.383 . S
O6 C22 1.249 1_556 S
O7 Dy1 2.275 1_556 S
O7 C23 1.254 . S
O8 Dy0 2.353 . S
O8 C23 1.257 1_655 S
O9 Dy1 2.307 . S
O9 C24 1.266 . S
O10 Dy0 2.300 1_455 S
O10 C24 1.236 1_556 S
O11 Dy1 2.395 1_556 S
O11 C31 1.255 . S
O12 Dy1 2.379 . S
O12 C31 1.249 1_554 S
C13 O3 1.266 1_554 S
C13 O4 1.236 1_655 S
O14 Dy0 2.264 1_454 S
O14 C2 1.254 . S
O15 Dy1 2.339 . S
O15 C2 1.257 . S
C16 C19 1.344 . S
C16 C20 1.328 1_554 S
C16 C22 1.516 . S
C17 C18 1.304 . S
C17 C21 1.323 1_554 S
C18 C17 1.304 . S
C18 C19 1.371 . S
C18 H32 0.930 . S
C19 C16 1.344 . S
C19 C18 1.371 . S
C19 H33 0.931 . S
C20 C16 1.328 1_556 S
C20 C21 1.433 . S
C20 H34 0.931 . S
C21 C17 1.323 1_556 S
C21 C20 1.433 . S
C21 H35 0.933 . S
C22 Dy0 2.736 1_554 S
C22 O5 1.255 . S
C22 O6 1.249 1_554 S
C22 C16 1.516 . S
C23 O7 1.254 . S
C23 O8 1.257 1_455 S
C24 O9 1.266 . S
C24 O10 1.236 1_554 S
C25 C28 1.344 . S
C25 C29 1.328 1_556 S
C25 C31 1.516 . S
C26 C27 1.304 . S
C26 C30 1.323 1_556 S
C27 C26 1.304 . S
C27 C28 1.371 . S
C27 H36 0.930 . S
C28 C25 1.344 . S
C28 C27 1.371 . S
C28 H37 0.931 . S
C29 C25 1.328 1_554 S
C29 C30 1.433 . S
C29 H38 0.931 . S
C30 C26 1.323 1_554 S
C30 C29 1.433 . S
C30 H39 0.933 . S
C31 Dy1 2.738 1_556 S
C31 O11 1.255 . S
C31 O12 1.249 1_556 S
C31 C25 1.516 . S
H32 C18 0.930 . S
H33 C19 0.931 . S
H34 C20 0.931 . S
H35 C21 0.933 . S
H36 C27 0.930 . S
H37 C28 0.931 . S
H38 C29 0.931 . S
H39 C30 0.933 . S
Dy40 O43 2.308 . S
Dy40 O45 2.386 1_556 S
Dy40 O46 2.384 . S
Dy40 O48 2.354 . S
Dy40 O50 2.300 . S
Dy40 O54 2.263 1_556 S
Dy40 C62 2.736 1_556 S
Dy41 O44 2.298 . S
Dy41 O47 2.275 1_554 S
Dy41 O49 2.307 . S
Dy41 O51 2.395 1_554 S
Dy41 O52 2.379 . S
Dy41 O55 2.339 . S
Dy41 C71 2.738 1_554 S
C42 O54 1.254 . S
C42 O55 1.257 . S
O43 Dy40 2.308 . S
O43 C53 1.266 1_556 S
O44 Dy41 2.298 . S
O44 C53 1.236 . S
O45 Dy40 2.386 1_554 S
O45 C62 1.255 . S
O46 Dy40 2.384 . S
O46 C62 1.249 1_556 S
O47 Dy41 2.275 1_556 S
O47 C63 1.254 . S
O48 Dy40 2.354 . S
O48 C63 1.257 . S
O49 Dy41 2.307 . S
O49 C64 1.266 . S
O50 Dy40 2.300 . S
O50 C64 1.236 1_556 S
O51 Dy41 2.395 1_556 S
O51 C71 1.255 . S
O52 Dy41 2.379 . S
O52 C71 1.249 1_554 S
C53 O43 1.266 1_554 S
C53 O44 1.236 . S
O54 Dy40 2.263 1_554 S
O54 C42 1.254 . S
O55 Dy41 2.339 . S
O55 C42 1.257 . S
C56 C59 1.344 . S
C56 C60 1.328 1_554 S
C56 C62 1.516 . S
C57 C58 1.304 . S
C57 C61 1.323 1_554 S
C58 C57 1.304 . S
C58 C59 1.371 . S
C58 H72 0.930 . S
C59 C56 1.344 . S
C59 C58 1.371 . S
C59 H73 0.931 . S
C60 C56 1.328 1_556 S
C60 C61 1.433 . S
C60 H74 0.931 . S
C61 C57 1.323 1_556 S
C61 C60 1.433 . S
C61 H75 0.933 . S
C62 Dy40 2.736 1_554 S
C62 O45 1.255 . S
C62 O46 1.249 1_554 S
C62 C56 1.516 . S
C63 O47 1.254 . S
C63 O48 1.257 . S
C64 O49 1.266 . S
C64 O50 1.236 1_554 S
C65 C68 1.344 . S
C65 C69 1.328 1_556 S
C65 C71 1.516 . S
C66 C67 1.304 . S
C66 C70 1.323 1_556 S
C67 C66 1.304 . S
C67 C68 1.371 . S
C67 H76 0.930 . S
C68 C65 1.344 . S
C68 C67 1.371 . S
C68 H77 0.931 . S
C69 C65 1.328 1_554 S
C69 C70 1.433 . S
C69 H78 0.931 . S
C70 C66 1.323 1_554 S
C70 C69 1.433 . S
C70 H79 0.933 . S
C71 Dy41 2.738 1_556 S
C71 O51 1.255 . S
C71 O52 1.249 1_556 S
C71 C65 1.516 . S
H72 C58 0.930 . S
H73 C59 0.931 . S
H74 C60 0.931 . S
H75 C61 0.933 . S
H76 C67 0.930 . S
H77 C68 0.931 . S
H78 C69 0.931 . S
H79 C70 0.933 . S
Dy80 O83 2.308 . S
Dy80 O85 2.386 1_556 S
Dy80 O86 2.384 . S
Dy80 O88 2.354 . S
Dy80 O90 2.300 . S
Dy80 O94 2.263 1_556 S
Dy80 C102 2.736 1_556 S
Dy81 O84 2.298 1_565 S
Dy81 O87 2.275 1_564 S
Dy81 O89 2.307 . S
Dy81 O91 2.395 1_554 S
Dy81 O92 2.379 . S
Dy81 O95 2.339 . S
Dy81 C111 2.738 1_554 S
C82 O94 1.254 . S
C82 O95 1.257 1_545 S
O83 Dy80 2.308 . S
O83 C93 1.266 1_556 S
O84 Dy81 2.298 1_545 S
O84 C93 1.236 . S
O85 Dy80 2.386 1_554 S
O85 C102 1.255 . S
O86 Dy80 2.384 . S
O86 C102 1.249 1_556 S
O87 Dy81 2.275 1_546 S
O87 C103 1.254 . S
O88 Dy80 2.354 . S
O88 C103 1.257 . S
O89 Dy81 2.307 . S
O89 C104 1.266 . S
O90 Dy80 2.300 . S
O90 C104 1.236 1_546 S
O91 Dy81 2.395 1_556 S
O91 C111 1.255 . S
O92 Dy81 2.379 . S
O92 C111 1.249 1_554 S
C93 O83 1.266 1_554 S
C93 O84 1.236 . S
O94 Dy80 2.263 1_554 S
O94 C82 1.254 . S
O95 Dy81 2.339 . S
O95 C82 1.257 1_565 S
C96 C99 1.344 . S
C96 C100 1.328 1_554 S
C96 C102 1.516 . S
C97 C98 1.304 . S
C97 C101 1.323 1_554 S
C98 C97 1.304 . S
C98 C99 1.371 . S
C98 H112 0.930 . S
C99 C96 1.344 . S
C99 C98 1.371 . S
C99 H113 0.931 . S
C100 C96 1.328 1_556 S
C100 C101 1.433 . S
C100 H114 0.931 . S
C101 C97 1.323 1_556 S
C101 C100 1.433 . S
C101 H115 0.933 . S
C102 Dy80 2.736 1_554 S
C102 O85 1.255 . S
C102 O86 1.249 1_554 S
C102 C96 1.516 . S
C103 O87 1.254 . S
C103 O88 1.257 . S
C104 O89 1.266 . S
C104 O90 1.236 1_564 S
C105 C108 1.344 . S
C105 C109 1.328 1_556 S
C105 C111 1.516 . S
C106 C107 1.304 . S
C106 C110 1.323 1_556 S
C107 C106 1.304 . S
C107 C108 1.371 . S
C107 H116 0.930 . S
C108 C105 1.344 . S
C108 C107 1.371 . S
C108 H117 0.931 . S
C109 C105 1.328 1_554 S
C109 C110 1.433 . S
C109 H118 0.931 . S
C110 C106 1.323 1_554 S
C110 C109 1.433 . S
C110 H119 0.933 . S
C111 Dy81 2.738 1_556 S
C111 O91 1.255 . S
C111 O92 1.249 1_556 S
C111 C105 1.516 . S
H112 C98 0.930 . S
H113 C99 0.931 . S
H114 C100 0.931 . S
H115 C101 0.933 . S
H116 C107 0.930 . S
H117 C108 0.931 . S
H118 C109 0.931 . S
H119 C110 0.933 . S
Dy120 O123 2.307 . S
Dy120 O125 2.395 . S
Dy120 O126 2.379 . S
Dy120 O128 2.339 . S
Dy120 O130 2.298 . S
Dy120 O134 2.275 . S
Dy120 C142 2.738 . S
Dy121 O124 2.298 . S
Dy121 O127 2.275 . S
Dy121 O129 2.307 . S
Dy121 O131 2.395 . S
Dy121 O132 2.379 . S
Dy121 O135 2.339 . S
Dy121 C151 2.738 . S
C122 O134 1.254 . S
C122 O135 1.257 . S
O123 Dy120 2.307 . S
O123 C133 1.266 . S
O124 Dy121 2.298 . S
O124 C133 1.236 . S
O125 Dy120 2.395 . S
O125 C142 1.255 . S
O126 Dy120 2.379 . S
O126 C142 1.249 . S
O127 Dy121 2.275 . S
O127 C143 1.254 . S
O128 Dy120 2.339 . S
O128 C143 1.257 . S
O129 Dy121 2.307 . S
O129 C144 1.266 . S
O130 Dy120 2.298 . S
O130 C144 1.236 . S
O131 Dy121 2.395 . S
O131 C151 1.255 . S
O132 Dy121 2.379 . S
O132 C151 1.249 . S
C133 O123 1.266 . S
C133 O124 1.236 . S
O134 Dy120 2.275 . S
O134 C122 1.254 . S
O135 Dy121 2.339 . S
O135 C122 1.257 . S
C136 C139 1.344 . S
C136 C140 1.328 . S
C136 C142 1.516 . S
C137 C138 1.304 . S
C137 C141 1.323 . S
C138 C137 1.304 . S
C138 C139 1.371 . S
C138 H152 0.930 . S
C139 C136 1.344 . S
C139 C138 1.371 . S
C139 H153 0.931 . S
C140 C136 1.328 . S
C140 C141 1.433 . S
C140 H154 0.931 . S
C141 C137 1.323 . S
C141 C140 1.433 . S
C141 H155 0.933 . S
C142 Dy120 2.738 . S
C142 O125 1.255 . S
C142 O126 1.249 . S
C142 C136 1.516 . S
C143 O127 1.254 . S
C143 O128 1.257 . S
C144 O129 1.266 . S
C144 O130 1.236 . S
C145 C148 1.344 . S
C145 C149 1.328 . S
C145 C151 1.516 . S
C146 C147 1.304 . S
C146 C150 1.323 . S
C147 C146 1.304 . S
C147 C148 1.371 . S
C147 H156 0.930 . S
C148 C145 1.344 . S
C148 C147 1.371 . S
C148 H157 0.931 . S
C149 C145 1.328 . S
C149 C150 1.433 . S
C149 H158 0.931 . S
C150 C146 1.323 . S
C150 C149 1.433 . S
C150 H159 0.933 . S
C151 Dy121 2.738 . S
C151 O131 1.255 . S
C151 O132 1.249 . S
C151 C145 1.516 . S
H152 C138 0.930 . S
H153 C139 0.931 . S
H154 C140 0.931 . S
H155 C141 0.933 . S
H156 C147 0.930 . S
H157 C148 0.931 . S
H158 C149 0.931 . S
H159 C150 0.933 . S
Dy160 O163 2.307 . S
Dy160 O165 2.395 . S
Dy160 O166 2.379 . S
Dy160 O168 2.339 . S
Dy160 O170 2.298 . S
Dy160 O174 2.275 . S
Dy160 C182 2.738 . S
Dy161 O164 2.298 . S
Dy161 O167 2.275 . S
Dy161 O169 2.307 . S
Dy161 O171 2.395 . S
Dy161 O172 2.379 . S
Dy161 O175 2.339 . S
Dy161 C191 2.738 . S
C162 O174 1.254 . S
C162 O175 1.257 . S
O163 Dy160 2.307 . S
O163 C173 1.266 . S
O164 Dy161 2.298 . S
O164 C173 1.236 . S
O165 Dy160 2.395 . S
O165 C182 1.255 . S
O166 Dy160 2.379 . S
O166 C182 1.249 . S
O167 Dy161 2.275 . S
O167 C183 1.254 . S
O168 Dy160 2.339 . S
O168 C183 1.257 . S
O169 Dy161 2.307 . S
O169 C184 1.266 . S
O170 Dy160 2.298 . S
O170 C184 1.236 . S
O171 Dy161 2.395 . S
O171 C191 1.255 . S
O172 Dy161 2.379 . S
O172 C191 1.249 . S
C173 O163 1.266 . S
C173 O164 1.236 . S
O174 Dy160 2.275 . S
O174 C162 1.254 . S
O175 Dy161 2.339 . S
O175 C162 1.257 . S
C176 C179 1.344 . S
C176 C180 1.328 . S
C176 C182 1.516 . S
C177 C178 1.304 . S
C177 C181 1.323 . S
C178 C177 1.304 . S
C178 C179 1.371 . S
C178 H192 0.930 . S
C179 C176 1.344 . S
C179 C178 1.371 . S
C179 H193 0.931 . S
C180 C176 1.328 . S
C180 C181 1.433 . S
C180 H194 0.931 . S
C181 C177 1.323 . S
C181 C180 1.433 . S
C181 H195 0.933 . S
C182 Dy160 2.738 . S
C182 O165 1.255 . S
C182 O166 1.249 . S
C182 C176 1.516 . S
C183 O167 1.254 . S
C183 O168 1.257 . S
C184 O169 1.266 . S
C184 O170 1.236 . S
C185 C188 1.344 . S
C185 C189 1.328 . S
C185 C191 1.516 . S
C186 C187 1.304 . S
C186 C190 1.323 . S
C187 C186 1.304 . S
C187 C188 1.371 . S
C187 H196 0.930 . S
C188 C185 1.344 . S
C188 C187 1.371 . S
C188 H197 0.931 . S
C189 C185 1.328 . S
C189 C190 1.433 . S
C189 H198 0.931 . S
C190 C186 1.323 . S
C190 C189 1.433 . S
C190 H199 0.933 . S
C191 Dy161 2.738 . S
C191 O171 1.255 . S
C191 O172 1.249 . S
C191 C185 1.516 . S
H192 C178 0.930 . S
H193 C179 0.931 . S
H194 C180 0.931 . S
H195 C181 0.933 . S
H196 C187 0.930 . S
H197 C188 0.931 . S
H198 C189 0.931 . S
H199 C190 0.933 . S
Dy200 O203 2.307 . S
Dy200 O205 2.395 . S
Dy200 O206 2.379 . S
Dy200 O208 2.339 . S
Dy200 O210 2.298 . S
Dy200 O214 2.275 . S
Dy200 C222 2.738 . S
Dy201 O204 2.298 . S
Dy201 O207 2.275 . S
Dy201 O209 2.307 . S
Dy201 O211 2.395 . S
Dy201 O212 2.379 . S
Dy201 O215 2.339 . S
Dy201 C231 2.738 . S
C202 O214 1.254 . S
C202 O215 1.257 . S
O203 Dy200 2.307 . S
O203 C213 1.266 . S
O204 Dy201 2.298 . S
O204 C213 1.236 . S
O205 Dy200 2.395 . S
O205 C222 1.255 . S
O206 Dy200 2.379 . S
O206 C222 1.249 . S
O207 Dy201 2.275 . S
O207 C223 1.254 . S
O208 Dy200 2.339 . S
O208 C223 1.257 . S
O209 Dy201 2.307 . S
O209 C224 1.266 . S
O210 Dy200 2.298 . S
O210 C224 1.236 . S
O211 Dy201 2.395 . S
O211 C231 1.255 . S
O212 Dy201 2.379 . S
O212 C231 1.249 . S
C213 O203 1.266 . S
C213 O204 1.236 . S
O214 Dy200 2.275 . S
O214 C202 1.254 . S
O215 Dy201 2.339 . S
O215 C202 1.257 . S
C216 C219 1.344 . S
C216 C220 1.328 . S
C216 C222 1.516 . S
C217 C218 1.304 . S
C217 C221 1.323 . S
C218 C217 1.304 . S
C218 C219 1.371 . S
C218 H232 0.930 . S
C219 C216 1.344 . S
C219 C218 1.371 . S
C219 H233 0.931 . S
C220 C216 1.328 . S
C220 C221 1.433 . S
C220 H234 0.931 . S
C221 C217 1.323 . S
C221 C220 1.433 . S
C221 H235 0.933 . S
C222 Dy200 2.738 . S
C222 O205 1.255 . S
C222 O206 1.249 . S
C222 C216 1.516 . S
C223 O207 1.254 . S
C223 O208 1.257 . S
C224 O209 1.266 . S
C224 O210 1.236 . S
C225 C228 1.344 . S
C225 C229 1.328 . S
C225 C231 1.516 . S
C226 C227 1.304 . S
C226 C230 1.323 . S
C227 C226 1.304 . S
C227 C228 1.371 . S
C227 H236 0.930 . S
C228 C225 1.344 . S
C228 C227 1.371 . S
C228 H237 0.931 . S
C229 C225 1.328 . S
C229 C230 1.433 . S
C229 H238 0.931 . S
C230 C226 1.323 . S
C230 C229 1.433 . S
C230 H239 0.933 . S
C231 Dy201 2.738 . S
C231 O211 1.255 . S
C231 O212 1.249 . S
C231 C225 1.516 . S
H232 C218 0.930 . S
H233 C219 0.931 . S
H234 C220 0.931 . S
H235 C221 0.933 . S
H236 C227 0.930 . S
H237 C228 0.931 . S
H238 C229 0.931 . S
H239 C230 0.933 . S
Dy240 O243 2.307 . S
Dy240 O245 2.395 . S
Dy240 O246 2.379 . S
Dy240 O248 2.339 . S
Dy240 O250 2.298 . S
Dy240 O254 2.275 . S
Dy240 C262 2.738 . S
Dy241 O244 2.298 . S
Dy241 O247 2.275 . S
Dy241 O249 2.307 . S
Dy241 O251 2.395 . S
Dy241 O252 2.379 . S
Dy241 O255 2.339 . S
Dy241 C271 2.738 . S
C242 O254 1.254 . S
C242 O255 1.257 . S
O243 Dy240 2.307 . S
O243 C253 1.266 . S
O244 Dy241 2.298 . S
O244 C253 1.236 . S
O245 Dy240 2.395 . S
O245 C262 1.255 . S
O246 Dy240 2.379 . S
O246 C262 1.249 . S
O247 Dy241 2.275 . S
O247 C263 1.254 . S
O248 Dy240 2.339 . S
O248 C263 1.257 . S
O249 Dy241 2.307 . S
O249 C264 1.266 . S
O250 Dy240 2.298 . S
O250 C264 1.236 . S
O251 Dy241 2.395 . S
O251 C271 1.255 . S
O252 Dy241 2.379 . S
O252 C271 1.249 . S
C253 O243 1.266 . S
C253 O244 1.236 . S
O254 Dy240 2.275 . S
O254 C242 1.254 . S
O255 Dy241 2.339 . S
O255 C242 1.257 . S
C256 C259 1.344 . S
C256 C260 1.328 . S
C256 C262 1.516 . S
C257 C258 1.304 . S
C257 C261 1.323 . S
C258 C257 1.304 . S
C258 C259 1.371 . S
C258 H272 0.930 . S
C259 C256 1.344 . S
C259 C258 1.371 . S
C259 H273 0.931 . S
C260 C256 1.328 . S
C260 C261 1.433 . S
C260 H274 0.931 . S
C261 C257 1.323 . S
C261 C260 1.433 . S
C261 H275 0.933 . S
C262 Dy240 2.738 . S
C262 O245 1.255 . S
C262 O246 1.249 . S
C262 C256 1.516 . S
C263 O247 1.254 . S
C263 O248 1.257 . S
C264 O249 1.266 . S
C264 O250 1.236 . S
C265 C268 1.344 . S
C265 C269 1.328 . S
C265 C271 1.516 . S
C266 C267 1.304 . S
C266 C270 1.323 . S
C267 C266 1.304 . S
C267 C268 1.371 . S
C267 H276 0.930 . S
C268 C265 1.344 . S
C268 C267 1.371 . S
C268 H277 0.931 . S
C269 C265 1.328 . S
C269 C270 1.433 . S
C269 H278 0.931 . S
C270 C266 1.323 . S
C270 C269 1.433 . S
C270 H279 0.933 . S
C271 Dy241 2.738 . S
C271 O251 1.255 . S
C271 O252 1.249 . S
C271 C265 1.516 . S
H272 C258 0.930 . S
H273 C259 0.931 . S
H274 C260 0.931 . S
H275 C261 0.933 . S
H276 C267 0.930 . S
H277 C268 0.931 . S
H278 C269 0.931 . S
H279 C270 0.933 . S
Dy280 O283 2.307 . S
Dy280 O285 2.395 . S
Dy280 O286 2.379 . S
Dy280 O288 2.339 . S
Dy280 O290 2.298 . S
Dy280 O294 2.275 . S
Dy280 C302 2.738 . S
Dy281 O284 2.298 . S
Dy281 O287 2.275 . S
Dy281 O289 2.307 . S
Dy281 O291 2.395 . S
Dy281 O292 2.379 . S
Dy281 O295 2.339 . S
Dy281 C311 2.738 . S
C282 O294 1.254 . S
C282 O295 1.257 . S
O283 Dy280 2.307 . S
O283 C293 1.266 . S
O284 Dy281 2.298 . S
O284 C293 1.236 . S
O285 Dy280 2.395 . S
O285 C302 1.255 . S
O286 Dy280 2.379 . S
O286 C302 1.249 . S
O287 Dy281 2.275 . S
O287 C303 1.254 . S
O288 Dy280 2.339 . S
O288 C303 1.257 . S
O289 Dy281 2.307 . S
O289 C304 1.266 . S
O290 Dy280 2.298 . S
O290 C304 1.236 . S
O291 Dy281 2.395 . S
O291 C311 1.255 . S
O292 Dy281 2.379 . S
O292 C311 1.249 . S
C293 O283 1.266 . S
C293 O284 1.236 . S
O294 Dy280 2.275 . S
O294 C282 1.254 . S
O295 Dy281 2.339 . S
O295 C282 1.257 . S
C296 C299 1.344 . S
C296 C300 1.328 . S
C296 C302 1.516 . S
C297 C298 1.304 . S
C297 C301 1.323 . S
C298 C297 1.304 . S
C298 C299 1.371 . S
C298 H312 0.930 . S
C299 C296 1.344 . S
C299 C298 1.371 . S
C299 H313 0.931 . S
C300 C296 1.328 . S
C300 C301 1.433 . S
C300 H314 0.931 . S
C301 C297 1.323 . S
C301 C300 1.433 . S
C301 H315 0.933 . S
C302 Dy280 2.738 . S
C302 O285 1.255 . S
C302 O286 1.249 . S
C302 C296 1.516 . S
C303 O287 1.254 . S
C303 O288 1.257 . S
C304 O289 1.266 . S
C304 O290 1.236 . S
C305 C308 1.344 . S
C305 C309 1.328 . S
C305 C311 1.516 . S
C306 C307 1.304 . S
C306 C310 1.323 . S
C307 C306 1.304 . S
C307 C308 1.371 . S
C307 H316 0.930 . S
C308 C305 1.344 . S
C308 C307 1.371 . S
C308 H317 0.931 . S
C309 C305 1.328 . S
C309 C310 1.433 . S
C309 H318 0.931 . S
C310 C306 1.323 . S
C310 C309 1.433 . S
C310 H319 0.933 . S
C311 Dy281 2.738 . S
C311 O291 1.255 . S
C311 O292 1.249 . S
C311 C305 1.516 . S
H312 C298 0.930 . S
H313 C299 0.931 . S
H314 C300 0.931 . S
H315 C301 0.933 . S
H316 C307 0.930 . S
H317 C308 0.931 . S
H318 C309 0.931 . S
H319 C310 0.933 . S
Dy320 O323 2.307 . S
Dy320 O325 2.395 . S
Dy320 O326 2.379 . S
Dy320 O328 2.339 . S
Dy320 O330 2.298 . S
Dy320 O334 2.275 . S
Dy320 C342 2.738 . S
Dy321 O324 2.298 . S
Dy321 O327 2.275 . S
Dy321 O329 2.307 . S
Dy321 O331 2.395 . S
Dy321 O332 2.379 . S
Dy321 O335 2.339 . S
Dy321 C351 2.738 . S
C322 O334 1.254 . S
C322 O335 1.257 . S
O323 Dy320 2.307 . S
O323 C333 1.266 . S
O324 Dy321 2.298 . S
O324 C333 1.236 . S
O325 Dy320 2.395 . S
O325 C342 1.255 . S
O326 Dy320 2.379 . S
O326 C342 1.249 . S
O327 Dy321 2.275 . S
O327 C343 1.254 . S
O328 Dy320 2.339 . S
O328 C343 1.257 . S
O329 Dy321 2.307 . S
O329 C344 1.266 . S
O330 Dy320 2.298 . S
O330 C344 1.236 . S
O331 Dy321 2.395 . S
O331 C351 1.255 . S
O332 Dy321 2.379 . S
O332 C351 1.249 . S
C333 O323 1.266 . S
C333 O324 1.236 . S
O334 Dy320 2.275 . S
O334 C322 1.254 . S
O335 Dy321 2.339 . S
O335 C322 1.257 . S
C336 C339 1.344 . S
C336 C340 1.328 . S
C336 C342 1.516 . S
C337 C338 1.304 . S
C337 C341 1.323 . S
C338 C337 1.304 . S
C338 C339 1.371 . S
C338 H352 0.930 . S
C339 C336 1.344 . S
C339 C338 1.371 . S
C339 H353 0.931 . S
C340 C336 1.328 . S
C340 C341 1.433 . S
C340 H354 0.931 . S
C341 C337 1.323 . S
C341 C340 1.433 . S
C341 H355 0.933 . S
C342 Dy320 2.738 . S
C342 O325 1.255 . S
C342 O326 1.249 . S
C342 C336 1.516 . S
C343 O327 1.254 . S
C343 O328 1.257 . S
C344 O329 1.266 . S
C344 O330 1.236 . S
C345 C348 1.344 . S
C345 C349 1.328 . S
C345 C351 1.516 . S
C346 C347 1.304 . S
C346 C350 1.323 . S
C347 C346 1.304 . S
C347 C348 1.371 . S
C347 H356 0.930 . S
C348 C345 1.344 . S
C348 C347 1.371 . S
C348 H357 0.931 . S
C349 C345 1.328 . S
C349 C350 1.433 . S
C349 H358 0.931 . S
C350 C346 1.323 . S
C350 C349 1.433 . S
C350 H359 0.933 . S
C351 Dy321 2.738 . S
C351 O331 1.255 . S
C351 O332 1.249 . S
C351 C345 1.516 . S
H352 C338 0.930 . S
H353 C339 0.931 . S
H354 C340 0.931 . S
H355 C341 0.933 . S
H356 C347 0.930 . S
H357 C348 0.931 . S
H358 C349 0.931 . S
H359 C350 0.933 . S
C360 C361 1.349 . S
C360 C362 1.327 . S
C360 H385 0.950 . S
C361 C360 1.349 . S
C361 C377 1.349 . S
C362 C360 1.327 . S
C362 C381 1.429 . S
C362 H386 0.950 . S
C363 C380 1.574 . S
C363 C382 1.368 . S
C363 H387 0.949 . S
H364 C368 0.949 . S
C365 C366 1.349 . S
C365 C367 1.327 . S
C365 H388 0.950 . S
C366 C365 1.349 . S
C366 C378 1.349 . S
C367 C365 1.327 . S
C367 C383 1.429 . S
C367 H389 0.950 . S
C368 H364 0.949 . S
C368 C376 1.574 . S
C368 C384 1.368 . S
H369 C377 0.950 . S
H370 C375 0.950 . S
H371 C376 0.949 . S
H372 C378 0.950 . S
H373 C379 0.950 . S
H374 C380 0.949 . S
C375 H370 0.950 . S
C375 C377 1.327 . S
C375 C381 1.429 . S
C376 C368 1.574 . S
C376 H371 0.949 . S
C376 C382 1.368 . S
C377 C361 1.349 . S
C377 H369 0.950 . S
C377 C375 1.327 . S
C378 C366 1.349 . S
C378 H372 0.950 . S
C378 C379 1.327 . S
C379 H373 0.950 . S
C379 C378 1.327 . S
C379 C383 1.429 . S
C380 C363 1.574 . S
C380 H374 0.949 . S
C380 C384 1.368 . S
C381 C362 1.429 . S
C381 C375 1.429 . S
C381 C382 1.523 . S
C382 C363 1.368 . S
C382 C376 1.368 . S
C382 C381 1.523 . S
C383 C367 1.429 . S
C383 C379 1.429 . S
C383 C384 1.523 . S
C384 C368 1.368 . S
C384 C380 1.368 . S
C384 C383 1.523 . S
H385 C360 0.950 . S
H386 C362 0.950 . S
H387 C363 0.949 . S
H388 C365 0.950 . S
H389 C367 0.950 . S
C390 C391 1.349 . S
C390 C392 1.327 . S
C390 H415 0.950 . S
C391 C390 1.349 . S
C391 C407 1.349 . S
C392 C390 1.327 . S
C392 C411 1.429 . S
C392 H416 0.950 . S
C393 C410 1.574 . S
C393 C412 1.368 . S
C393 H417 0.949 . S
H394 C398 0.949 . S
C395 C396 1.349 . S
C395 C397 1.327 . S
C395 H418 0.950 . S
C396 C395 1.349 . S
C396 C408 1.349 . S
C397 C395 1.327 . S
C397 C413 1.429 . S
C397 H419 0.950 . S
C398 H394 0.949 . S
C398 C406 1.574 . S
C398 C414 1.368 . S
H399 C407 0.950 1_554 S
H400 C405 0.950 . S
H401 C406 0.949 . S
H402 C408 0.950 . S
H403 C409 0.950 . S
H404 C410 0.949 . S
C405 H400 0.950 . S
C405 C407 1.327 . S
C405 C411 1.429 . S
C406 C398 1.574 . S
C406 H401 0.949 . S
C406 C412 1.368 . S
C407 C391 1.349 . S
C407 H399 0.950 1_556 S
C407 C405 1.327 . S
C408 C396 1.349 . S
C408 H402 0.950 . S
C408 C409 1.327 . S
C409 H403 0.950 . S
C409 C408 1.327 . S
C409 C413 1.429 . S
C410 C393 1.574 . S
C410 H404 0.949 . S
C410 C414 1.368 . S
C411 C392 1.429 . S
C411 C405 1.429 . S
C411 C412 1.523 . S
C412 C393 1.368 . S
C412 C406 1.368 . S
C412 C411 1.523 . S
C413 C397 1.429 . S
C413 C409 1.429 . S
C413 C414 1.523 . S
C414 C398 1.368 . S
C414 C410 1.368 . S
C414 C413 1.523 . S
H415 C390 0.950 . S
H416 C392 0.950 . S
H417 C393 0.949 . S
H418 C395 0.950 . S
H419 C397 0.950 . S
C420 C421 1.349 . S
C420 C422 1.327 . S
C420 H445 0.950 . S
C421 C420 1.349 . S
C421 C437 1.349 . S
C422 C420 1.327 . S
C422 C441 1.429 . S
C422 H446 0.950 . S
C423 C440 1.574 . S
C423 C442 1.368 . S
C423 H447 0.949 . S
H424 C428 0.949 . S
C425 C426 1.349 . S
C425 C427 1.327 . S
C425 H448 0.950 . S
C426 C425 1.349 . S
C426 C438 1.349 . S
C427 C425 1.327 . S
C427 C443 1.429 . S
C427 H449 0.950 . S
C428 H424 0.949 . S
C428 C436 1.574 . S
C428 C444 1.368 . S
H429 C437 0.950 . S
H430 C435 0.950 . S
H431 C436 0.949 . S
H432 C438 0.950 . S
H433 C439 0.950 . S
H434 C440 0.949 . S
C435 H430 0.950 . S
C435 C437 1.327 . S
C435 C441 1.429 . S
C436 C428 1.574 . S
C436 H431 0.949 . S
C436 C442 1.368 . S
C437 C421 1.349 . S
C437 H429 0.950 . S
C437 C435 1.327 . S
C438 C426 1.349 . S
C438 H432 0.950 . S
C438 C439 1.327 . S
C439 H433 0.950 . S
C439 C438 1.327 . S
C439 C443 1.429 . S
C440 C423 1.574 . S
C440 H434 0.949 . S
C440 C444 1.368 . S
C441 C422 1.429 . S
C441 C435 1.429 . S
C441 C442 1.523 . S
C442 C423 1.368 . S
C442 C436 1.368 . S
C442 C441 1.523 . S
C443 C427 1.429 . S
C443 C439 1.429 . S
C443 C444 1.523 . S
C444 C428 1.368 . S
C444 C440 1.368 . S
C444 C443 1.523 . S
H445 C420 0.950 . S
H446 C422 0.950 . S
H447 C423 0.949 . S
H448 C425 0.950 . S
H449 C427 0.950 . S
C450 C451 1.349 . S
C450 C452 1.327 . S
C450 H475 0.950 . S
C451 C450 1.349 . S
C451 C467 1.349 . S
C452 C450 1.327 . S
C452 C471 1.429 . S
C452 H476 0.950 . S
C453 C470 1.574 . S
C453 C472 1.368 . S
C453 H477 0.949 . S
H454 C458 0.949 . S
C455 C456 1.349 . S
C455 C457 1.327 . S
C455 H478 0.950 . S
C456 C455 1.349 . S
C456 C468 1.349 1_554 S
C457 C455 1.327 . S
C457 C473 1.429 . S
C457 H479 0.950 . S
C458 H454 0.949 . S
C458 C466 1.574 . S
C458 C474 1.368 . S
H459 C467 0.950 . S
H460 C465 0.950 . S
H461 C466 0.949 . S
H462 C468 0.950 . S
H463 C469 0.950 1_556 S
H464 C470 0.949 . S
C465 H460 0.950 . S
C465 C467 1.327 . S
C465 C471 1.429 . S
C466 C458 1.574 . S
C466 H461 0.949 . S
C466 C472 1.368 . S
C467 C451 1.349 . S
C467 H459 0.950 . S
C467 C465 1.327 . S
C468 C456 1.349 1_556 S
C468 H462 0.950 . S
C468 C469 1.327 1_556 S
C469 H463 0.950 1_554 S
C469 C468 1.327 1_554 S
C469 C473 1.429 . S
C470 C453 1.574 . S
C470 H464 0.949 . S
C470 C474 1.368 . S
C471 C452 1.429 . S
C471 C465 1.429 . S
C471 C472 1.523 . S
C472 C453 1.368 . S
C472 C466 1.368 . S
C472 C471 1.523 . S
C473 C457 1.429 . S
C473 C469 1.429 . S
C473 C474 1.523 . S
C474 C458 1.368 . S
C474 C470 1.368 . S
C474 C473 1.523 . S
H475 C450 0.950 . S
H476 C452 0.950 . S
H477 C453 0.949 . S
H478 C455 0.950 . S
H479 C457 0.950 . S
C480 C481 1.349 . S
C480 C482 1.327 . S
C480 H505 0.950 . S
C481 C480 1.349 . S
C481 C497 1.349 . S
C482 C480 1.327 . S
C482 C501 1.429 . S
C482 H506 0.950 . S
C483 C500 1.574 . S
C483 C502 1.368 . S
C483 H507 0.949 . S
H484 C488 0.949 . S
C485 C486 1.349 . S
C485 C487 1.327 . S
C485 H508 0.950 . S
C486 C485 1.349 . S
C486 C498 1.349 1_554 S
C487 C485 1.327 . S
C487 C503 1.429 . S
C487 H509 0.950 . S
C488 H484 0.949 . S
C488 C496 1.574 . S
C488 C504 1.368 . S
H489 C497 0.950 . S
H490 C495 0.950 . S
H491 C496 0.949 . S
H492 C498 0.950 . S
H493 C499 0.950 1_556 S
H494 C500 0.949 . S
C495 H490 0.950 . S
C495 C497 1.327 . S
C495 C501 1.429 . S
C496 C488 1.574 . S
C496 H491 0.949 . S
C496 C502 1.368 . S
C497 C481 1.349 . S
C497 H489 0.950 . S
C497 C495 1.327 . S
C498 C486 1.349 1_556 S
C498 H492 0.950 . S
C498 C499 1.327 1_556 S
C499 H493 0.950 1_554 S
C499 C498 1.327 1_554 S
C499 C503 1.429 . S
C500 C483 1.574 . S
C500 H494 0.949 . S
C500 C504 1.368 . S
C501 C482 1.429 . S
C501 C495 1.429 . S
C501 C502 1.523 . S
C502 C483 1.368 . S
C502 C496 1.368 . S
C502 C501 1.523 . S
C503 C487 1.429 . S
C503 C499 1.429 . S
C503 C504 1.523 . S
C504 C488 1.368 . S
C504 C500 1.368 . S
C504 C503 1.523 . S
H505 C480 0.950 . S
H506 C482 0.950 . S
H507 C483 0.949 . S
H508 C485 0.950 . S
H509 C487 0.950 . S
C510 C511 1.349 1_556 S
C510 C512 1.327 1_556 S
C510 H535 0.950 . S
C511 C510 1.349 1_554 S
C511 C527 1.349 . S
C512 C510 1.327 1_554 S
C512 C531 1.429 . S
C512 H536 0.950 1_554 S
C513 C530 1.574 . S
C513 C532 1.368 . S
C513 H537 0.949 . S
H514 C518 0.949 . S
C515 C516 1.349 . S
C515 C517 1.327 . S
C515 H538 0.950 . S
C516 C515 1.349 . S
C516 C528 1.349 . S
C517 C515 1.327 . S
C517 C533 1.429 . S
C517 H539 0.950 . S
C518 H514 0.949 . S
C518 C526 1.574 . S
C518 C534 1.368 . S
H519 C527 0.950 . S
H520 C525 0.950 . S
H521 C526 0.949 . S
H522 C528 0.950 . S
H523 C529 0.950 . S
H524 C530 0.949 . S
C525 H520 0.950 . S
C525 C527 1.327 . S
C525 C531 1.429 . S
C526 C518 1.574 . S
C526 H521 0.949 . S
C526 C532 1.368 . S
C527 C511 1.349 . S
C527 H519 0.950 . S
C527 C525 1.327 . S
C528 C516 1.349 . S
C528 H522 0.950 . S
C528 C529 1.327 . S
C529 H523 0.950 . S
C529 C528 1.327 . S
C529 C533 1.429 . S
C530 C513 1.574 . S
C530 H524 0.949 . S
C530 C534 1.368 . S
C531 C512 1.429 . S
C531 C525 1.429 . S
C531 C532 1.523 . S
C532 C513 1.368 . S
C532 C526 1.368 . S
C532 C531 1.523 . S
C533 C517 1.429 . S
C533 C529 1.429 . S
C533 C534 1.523 . S
C534 C518 1.368 . S
C534 C530 1.368 . S
C534 C533 1.523 . S
H535 C510 0.950 . S
H536 C512 0.950 1_556 S
H537 C513 0.949 . S
H538 C515 0.950 . S
H539 C517 0.950 . S
C540 C541 1.349 . S
C540 C542 1.327 . S
C540 H565 0.950 . S
C541 C540 1.349 . S
C541 C557 1.349 . S
C542 C540 1.327 . S
C542 C561 1.429 . S
C542 H566 0.950 . S
C543 C560 1.574 . S
C543 C562 1.368 . S
C543 H567 0.949 . S
H544 C548 0.949 . S
C545 C546 1.349 . S
C545 C547 1.327 . S
C545 H568 0.950 . S
C546 C545 1.349 . S
C546 C558 1.349 . S
C547 C545 1.327 . S
C547 C563 1.429 . S
C547 H569 0.950 . S
C548 H544 0.949 . S
C548 C556 1.574 . S
C548 C564 1.368 . S
H549 C557 0.950 . S
H550 C555 0.950 . S
H551 C556 0.949 . S
H552 C558 0.950 . S
H553 C559 0.950 . S
H554 C560 0.949 . S
C555 H550 0.950 . S
C555 C557 1.327 . S
C555 C561 1.429 . S
C556 C548 1.574 . S
C556 H551 0.949 . S
C556 C562 1.368 . S
C557 C541 1.349 . S
C557 H549 0.950 . S
C557 C555 1.327 . S
C558 C546 1.349 . S
C558 H552 0.950 . S
C558 C559 1.327 . S
C559 H553 0.950 . S
C559 C558 1.327 . S
C559 C563 1.429 . S
C560 C543 1.574 . S
C560 H554 0.949 . S
C560 C564 1.368 . S
C561 C542 1.429 . S
C561 C555 1.429 . S
C561 C562 1.523 1_455 S
C562 C543 1.368 . S
C562 C556 1.368 . S
C562 C561 1.523 1_655 S
C563 C547 1.429 . S
C563 C559 1.429 . S
C563 C564 1.523 . S
C564 C548 1.368 . S
C564 C560 1.368 . S
C564 C563 1.523 . S
H565 C540 0.950 . S
H566 C542 0.950 . S
H567 C543 0.949 . S
H568 C545 0.950 . S
H569 C547 0.950 . S
C570 C571 1.349 . S
C570 C572 1.327 . S
C570 H595 0.950 . S
C571 C570 1.349 . S
C571 C587 1.349 . S
C572 C570 1.327 . S
C572 C591 1.429 . S
C572 H596 0.950 . S
C573 C590 1.574 . S
C573 C592 1.368 . S
C573 H597 0.949 . S
H574 C578 0.949 . S
C575 C576 1.349 . S
C575 C577 1.327 . S
C575 H598 0.950 . S
C576 C575 1.349 . S
C576 C588 1.349 . S
C577 C575 1.327 . S
C577 C593 1.429 . S
C577 H599 0.950 . S
C578 H574 0.949 . S
C578 C586 1.574 . S
C578 C594 1.368 . S
H579 C587 0.950 . S
H580 C585 0.950 . S
H581 C586 0.949 . S
H582 C588 0.950 . S
H583 C589 0.950 . S
H584 C590 0.949 . S
C585 H580 0.950 . S
C585 C587 1.327 . S
C585 C591 1.429 . S
C586 C578 1.574 . S
C586 H581 0.949 . S
C586 C592 1.368 . S
C587 C571 1.349 . S
C587 H579 0.950 . S
C587 C585 1.327 . S
C588 C576 1.349 . S
C588 H582 0.950 . S
C588 C589 1.327 . S
C589 H583 0.950 . S
C589 C588 1.327 . S
C589 C593 1.429 . S
C590 C573 1.574 . S
C590 H584 0.949 . S
C590 C594 1.368 . S
C591 C572 1.429 . S
C591 C585 1.429 . S
C591 C592 1.523 . S
C592 C573 1.368 . S
C592 C586 1.368 . S
C592 C591 1.523 . S
C593 C577 1.429 . S
C593 C589 1.429 . S
C593 C594 1.523 . S
C594 C578 1.368 . S
C594 C590 1.368 . S
C594 C593 1.523 . S
H595 C570 0.950 . S
H596 C572 0.950 . S
H597 C573 0.949 . S
H598 C575 0.950 . S
H599 C577 0.950 . S
C600 C601 1.349 . S
C600 C602 1.327 . S
C600 H625 0.950 . S
C601 C600 1.349 . S
C601 C617 1.349 . S
C602 C600 1.327 . S
C602 C621 1.429 . S
C602 H626 0.950 . S
C603 C620 1.574 . S
C603 C622 1.368 . S
C603 H627 0.949 . S
H604 C608 0.949 . S
C605 C606 1.349 . S
C605 C607 1.327 1_565 S
C605 H628 0.950 . S
C606 C605 1.349 . S
C606 C618 1.349 . S
C607 C605 1.327 1_545 S
C607 C623 1.429 . S
C607 H629 0.950 . S
C608 H604 0.949 . S
C608 C616 1.574 . S
C608 C624 1.368 . S
H609 C617 0.950 . S
H610 C615 0.950 . S
H611 C616 0.949 . S
H612 C618 0.950 . S
H613 C619 0.950 . S
H614 C620 0.949 . S
C615 H610 0.950 . S
C615 C617 1.327 . S
C615 C621 1.429 . S
C616 C608 1.574 . S
C616 H611 0.949 . S
C616 C622 1.368 . S
C617 C601 1.349 . S
C617 H609 0.950 . S
C617 C615 1.327 . S
C618 C606 1.349 . S
C618 H612 0.950 . S
C618 C619 1.327 1_565 S
C619 H613 0.950 . S
C619 C618 1.327 1_545 S
C619 C623 1.429 . S
C620 C603 1.574 . S
C620 H614 0.949 . S
C620 C624 1.368 . S
C621 C602 1.429 . S
C621 C615 1.429 . S
C621 C622 1.523 . S
C622 C603 1.368 . S
C622 C616 1.368 . S
C622 C621 1.523 . S
C623 C607 1.429 . S
C623 C619 1.429 . S
C623 C624 1.523 . S
C624 C608 1.368 . S
C624 C620 1.368 . S
C624 C623 1.523 . S
H625 C600 0.950 . S
H626 C602 0.950 . S
H627 C603 0.949 . S
H628 C605 0.950 . S
H629 C607 0.950 . S
C630 C631 1.349 . S
C630 C632 1.327 . S
C630 H655 0.950 . S
C631 C630 1.349 . S
C631 C647 1.349 . S
C632 C630 1.327 . S
C632 C651 1.429 . S
C632 H656 0.950 . S
C633 C650 1.574 . S
C633 C652 1.368 1_556 S
C633 H657 0.949 . S
H634 C638 0.949 . S
C635 C636 1.349 1_556 S
C635 C637 1.327 . S
C635 H658 0.950 . S
C636 C635 1.349 1_554 S
C636 C648 1.349 . S
C637 C635 1.327 . S
C637 C653 1.429 1_556 S
C637 H659 0.950 . S
C638 H634 0.949 . S
C638 C646 1.574 . S
C638 C654 1.368 . S
H639 C647 0.950 1_556 S
H640 C645 0.950 1_556 S
H641 C646 0.949 . S
H642 C648 0.950 . S
H643 C649 0.950 . S
H644 C650 0.949 . S
C645 H640 0.950 1_554 S
C645 C647 1.327 . S
C645 C651 1.429 . S
C646 C638 1.574 . S
C646 H641 0.949 . S
C646 C652 1.368 . S
C647 C631 1.349 . S
C647 H639 0.950 1_554 S
C647 C645 1.327 . S
C648 C636 1.349 . S
C648 H642 0.950 . S
C648 C649 1.327 . S
C649 H643 0.950 . S
C649 C648 1.327 . S
C649 C653 1.429 . S
C650 C633 1.574 . S
C650 H644 0.949 . S
C650 C654 1.368 1_556 S
C651 C632 1.429 . S
C651 C645 1.429 . S
C651 C652 1.523 . S
C652 C633 1.368 1_554 S
C652 C646 1.368 . S
C652 C651 1.523 . S
C653 C637 1.429 1_554 S
C653 C649 1.429 . S
C653 C654 1.523 . S
C654 C638 1.368 . S
C654 C650 1.368 1_554 S
C654 C653 1.523 . S
H655 C630 0.950 . S
H656 C632 0.950 . S
H657 C633 0.949 . S
H658 C635 0.950 . S
H659 C637 0.950 . S
C660 C661 1.349 1_556 S
C660 C662 1.327 . S
C660 H685 0.950 . S
C661 C660 1.349 1_554 S
C661 C677 1.349 . S
C662 C660 1.327 . S
C662 C681 1.429 1_556 S
C662 H686 0.950 . S
C663 C680 1.574 . S
C663 C682 1.368 . S
C663 H687 0.949 . S
H664 C668 0.949 . S
C665 C666 1.349 . S
C665 C667 1.327 . S
C665 H688 0.950 . S
C666 C665 1.349 . S
C666 C678 1.349 . S
C667 C665 1.327 . S
C667 C683 1.429 . S
C667 H689 0.950 . S
C668 H664 0.949 . S
C668 C676 1.574 . S
C668 C684 1.368 1_556 S
H669 C677 0.950 . S
H670 C675 0.950 . S
H671 C676 0.949 . S
H672 C678 0.950 1_556 S
H673 C679 0.950 . S
H674 C680 0.949 . S
C675 H670 0.950 . S
C675 C677 1.327 . S
C675 C681 1.429 . S
C676 C668 1.574 . S
C676 H671 0.949 . S
C676 C682 1.368 1_556 S
C677 C661 1.349 . S
C677 H669 0.950 . S
C677 C675 1.327 . S
C678 C666 1.349 . S
C678 H672 0.950 1_554 S
C678 C679 1.327 1_554 S
C679 H673 0.950 . S
C679 C678 1.327 1_556 S
C679 C683 1.429 1_556 S
C680 C663 1.574 . S
C680 H674 0.949 . S
C680 C684 1.368 . S
C681 C662 1.429 1_554 S
C681 C675 1.429 . S
C681 C682 1.523 . S
C682 C663 1.368 . S
C682 C676 1.368 1_554 S
C682 C681 1.523 . S
C683 C667 1.429 . S
C683 C679 1.429 1_554 S
C683 C684 1.523 1_545 S
C684 C668 1.368 1_554 S
C684 C680 1.368 . S
C684 C683 1.523 1_565 S
H685 C660 0.950 . S
H686 C662 0.950 . S
H687 C663 0.949 . S
H688 C665 0.950 . S
H689 C667 0.950 . S
C690 C691 1.349 . S
C690 C692 1.327 1_654 S
C690 H715 0.950 1_554 S
C691 C690 1.349 . S
C691 C707 1.349 . S
C692 C690 1.327 1_456 S
C692 C711 1.429 1_556 S
C692 H716 0.950 . S
C693 C710 1.574 . S
C693 C712 1.368 . S
C693 H717 0.949 . S
H694 C698 0.949 . S
C695 C696 1.349 . S
C695 C697 1.327 . S
C695 H718 0.950 . S
C696 C695 1.349 . S
C696 C708 1.349 1_554 S
C697 C695 1.327 . S
C697 C713 1.429 . S
C697 H719 0.950 . S
C698 H694 0.949 . S
C698 C706 1.574 . S
C698 C714 1.368 1_556 S
H699 C707 0.950 . S
H700 C705 0.950 . S
H701 C706 0.949 . S
H702 C708 0.950 . S
H703 C709 0.950 . S
H704 C710 0.949 . S
C705 H700 0.950 . S
C705 C707 1.327 1_455 S
C705 C711 1.429 . S
C706 C698 1.574 . S
C706 H701 0.949 . S
C706 C712 1.368 1_556 S
C707 C691 1.349 . S
C707 H699 0.950 . S
C707 C705 1.327 1_655 S
C708 C696 1.349 1_556 S
C708 H702 0.950 . S
C708 C709 1.327 . S
C709 H703 0.950 . S
C709 C708 1.327 . S
C709 C713 1.429 1_556 S
C710 C693 1.574 . S
C710 H704 0.949 . S
C710 C714 1.368 . S
C711 C692 1.429 1_554 S
C711 C705 1.429 . S
C711 C712 1.523 . S
C712 C693 1.368 . S
C712 C706 1.368 1_554 S
C712 C711 1.523 . S
C713 C697 1.429 . S
C713 C709 1.429 1_554 S
C713 C714 1.523 . S
C714 C698 1.368 1_554 S
C714 C710 1.368 . S
C714 C713 1.523 . S
H715 C690 0.950 1_556 S
H716 C692 0.950 . S
H717 C693 0.949 . S
H718 C695 0.950 . S
H719 C697 0.950 . S
C720 C721 1.349 . S
C720 C722 1.327 . S
C720 H745 0.950 . S
C721 C720 1.349 . S
C721 C737 1.349 . S
C722 C720 1.327 . S
C722 C741 1.429 . S
C722 H746 0.950 . S
C723 C740 1.574 . S
C723 C742 1.368 . S
C723 H747 0.949 . S
H724 C728 0.949 . S
C725 C726 1.349 . S
C725 C727 1.327 . S
C725 H748 0.950 . S
C726 C725 1.349 . S
C726 C738 1.349 . S
C727 C725 1.327 . S
C727 C743 1.429 . S
C727 H749 0.950 . S
C728 H724 0.949 . S
C728 C736 1.574 . S
C728 C744 1.368 . S
H729 C737 0.950 . S
H730 C735 0.950 . S
H731 C736 0.949 . S
H732 C738 0.950 . S
H733 C739 0.950 . S
H734 C740 0.949 . S
C735 H730 0.950 . S
C735 C737 1.327 . S
C735 C741 1.429 . S
C736 C728 1.574 . S
C736 H731 0.949 . S
C736 C742 1.368 . S
C737 C721 1.349 . S
C737 H729 0.950 . S
C737 C735 1.327 . S
C738 C726 1.349 . S
C738 H732 0.950 . S
C738 C739 1.327 . S
C739 H733 0.950 . S
C739 C738 1.327 . S
C739 C743 1.429 . S
C740 C723 1.574 . S
C740 H734 0.949 . S
C740 C744 1.368 . S
C741 C722 1.429 . S
C741 C735 1.429 . S
C741 C742 1.523 . S
C742 C723 1.368 . S
C742 C736 1.368 . S
C742 C741 1.523 . S
C743 C727 1.429 . S
C743 C739 1.429 . S
C743 C744 1.523 . S
C744 C728 1.368 . S
C744 C740 1.368 . S
C744 C743 1.523 . S
H745 C720 0.950 . S
H746 C722 0.950 . S
H747 C723 0.949 . S
H748 C725 0.950 . S
H749 C727 0.950 . S
C750 C751 1.349 . S
C750 C752 1.327 . S
C750 H775 0.950 . S
C751 C750 1.349 . S
C751 C767 1.349 . S
C752 C750 1.327 . S
C752 C771 1.429 . S
C752 H776 0.950 . S
C753 C770 1.574 . S
C753 C772 1.368 . S
C753 H777 0.949 . S
H754 C758 0.949 . S
C755 C756 1.349 . S
C755 C757 1.327 . S
C755 H778 0.950 . S
C756 C755 1.349 . S
C756 C768 1.349 . S
C757 C755 1.327 . S
C757 C773 1.429 . S
C757 H779 0.950 . S
C758 H754 0.949 . S
C758 C766 1.574 . S
C758 C774 1.368 . S
H759 C767 0.950 . S
H760 C765 0.950 . S
H761 C766 0.949 . S
H762 C768 0.950 . S
H763 C769 0.950 . S
H764 C770 0.949 . S
C765 H760 0.950 . S
C765 C767 1.327 . S
C765 C771 1.429 . S
C766 C758 1.574 . S
C766 H761 0.949 . S
C766 C772 1.368 . S
C767 C751 1.349 . S
C767 H759 0.950 . S
C767 C765 1.327 . S
C768 C756 1.349 . S
C768 H762 0.950 . S
C768 C769 1.327 . S
C769 H763 0.950 . S
C769 C768 1.327 . S
C769 C773 1.429 . S
C770 C753 1.574 . S
C770 H764 0.949 . S
C770 C774 1.368 . S
C771 C752 1.429 . S
C771 C765 1.429 . S
C771 C772 1.523 . S
C772 C753 1.368 . S
C772 C766 1.368 . S
C772 C771 1.523 . S
C773 C757 1.429 . S
C773 C769 1.429 . S
C773 C774 1.523 . S
C774 C758 1.368 . S
C774 C770 1.368 . S
C774 C773 1.523 . S
H775 C750 0.950 . S
H776 C752 0.950 . S
H777 C753 0.949 . S
H778 C755 0.950 . S
H779 C757 0.950 . S
C780 C781 1.349 . S
C780 C782 1.327 . S
C780 H805 0.950 . S
C781 C780 1.349 . S
C781 C797 1.349 . S
C782 C780 1.327 . S
C782 C801 1.429 . S
C782 H806 0.950 . S
C783 C800 1.574 . S
C783 C802 1.368 . S
C783 H807 0.949 . S
H784 C788 0.949 . S
C785 C786 1.349 . S
C785 C787 1.327 . S
C785 H808 0.950 . S
C786 C785 1.349 . S
C786 C798 1.349 . S
C787 C785 1.327 . S
C787 C803 1.429 . S
C787 H809 0.950 . S
C788 H784 0.949 . S
C788 C796 1.574 . S
C788 C804 1.368 . S
H789 C797 0.950 . S
H790 C795 0.950 . S
H791 C796 0.949 . S
H792 C798 0.950 . S
H793 C799 0.950 . S
H794 C800 0.949 . S
C795 H790 0.950 . S
C795 C797 1.327 . S
C795 C801 1.429 . S
C796 C788 1.574 . S
C796 H791 0.949 . S
C796 C802 1.368 . S
C797 C781 1.349 . S
C797 H789 0.950 . S
C797 C795 1.327 . S
C798 C786 1.349 . S
C798 H792 0.950 . S
C798 C799 1.327 . S
C799 H793 0.950 . S
C799 C798 1.327 . S
C799 C803 1.429 . S
C800 C783 1.574 . S
C800 H794 0.949 . S
C800 C804 1.368 . S
C801 C782 1.429 . S
C801 C795 1.429 . S
C801 C802 1.523 . S
C802 C783 1.368 . S
C802 C796 1.368 . S
C802 C801 1.523 . S
C803 C787 1.429 . S
C803 C799 1.429 . S
C803 C804 1.523 . S
C804 C788 1.368 . S
C804 C800 1.368 . S
C804 C803 1.523 . S
H805 C780 0.950 . S
H806 C782 0.950 . S
H807 C783 0.949 . S
H808 C785 0.950 . S
H809 C787 0.950 . S
C810 C811 1.349 . S
C810 C812 1.327 . S
C810 H835 0.950 . S
C811 C810 1.349 . S
C811 C827 1.349 . S
C812 C810 1.327 . S
C812 C831 1.429 . S
C812 H836 0.950 . S
C813 C830 1.574 . S
C813 C832 1.368 . S
C813 H837 0.949 . S
H814 C818 0.949 . S
C815 C816 1.349 . S
C815 C817 1.327 . S
C815 H838 0.950 . S
C816 C815 1.349 . S
C816 C828 1.349 . S
C817 C815 1.327 . S
C817 C833 1.429 . S
C817 H839 0.950 . S
C818 H814 0.949 . S
C818 C826 1.574 . S
C818 C834 1.368 . S
H819 C827 0.950 . S
H820 C825 0.950 . S
H821 C826 0.949 . S
H822 C828 0.950 . S
H823 C829 0.950 . S
H824 C830 0.949 . S
C825 H820 0.950 . S
C825 C827 1.327 . S
C825 C831 1.429 . S
C826 C818 1.574 . S
C826 H821 0.949 . S
C826 C832 1.368 . S
C827 C811 1.349 . S
C827 H819 0.950 . S
C827 C825 1.327 . S
C828 C816 1.349 . S
C828 H822 0.950 . S
C828 C829 1.327 . S
C829 H823 0.950 . S
C829 C828 1.327 . S
C829 C833 1.429 . S
C830 C813 1.574 . S
C830 H824 0.949 . S
C830 C834 1.368 . S
C831 C812 1.429 . S
C831 C825 1.429 . S
C831 C832 1.523 . S
C832 C813 1.368 . S
C832 C826 1.368 . S
C832 C831 1.523 . S
C833 C817 1.429 . S
C833 C829 1.429 . S
C833 C834 1.523 . S
C834 C818 1.368 . S
C834 C830 1.368 . S
C834 C833 1.523 . S
H835 C810 0.950 . S
H836 C812 0.950 . S
H837 C813 0.949 . S
H838 C815 0.950 . S
H839 C817 0.950 . S
C840 C841 1.349 . S
C840 C842 1.327 . S
C840 H865 0.950 . S
C841 C840 1.349 . S
C841 C857 1.349 . S
C842 C840 1.327 . S
C842 C861 1.429 . S
C842 H866 0.950 . S
C843 C860 1.574 . S
C843 C862 1.368 . S
C843 H867 0.949 . S
H844 C848 0.949 . S
C845 C846 1.349 . S
C845 C847 1.327 . S
C845 H868 0.950 . S
C846 C845 1.349 . S
C846 C858 1.349 . S
C847 C845 1.327 . S
C847 C863 1.429 . S
C847 H869 0.950 . S
C848 H844 0.949 . S
C848 C856 1.574 . S
C848 C864 1.368 . S
H849 C857 0.950 . S
H850 C855 0.950 . S
H851 C856 0.949 . S
H852 C858 0.950 . S
H853 C859 0.950 . S
H854 C860 0.949 . S
C855 H850 0.950 . S
C855 C857 1.327 . S
C855 C861 1.429 . S
C856 C848 1.574 . S
C856 H851 0.949 . S
C856 C862 1.368 . S
C857 C841 1.349 . S
C857 H849 0.950 . S
C857 C855 1.327 . S
C858 C846 1.349 . S
C858 H852 0.950 . S
C858 C859 1.327 . S
C859 H853 0.950 . S
C859 C858 1.327 . S
C859 C863 1.429 . S
C860 C843 1.574 . S
C860 H854 0.949 . S
C860 C864 1.368 . S
C861 C842 1.429 . S
C861 C855 1.429 . S
C861 C862 1.523 . S
C862 C843 1.368 . S
C862 C856 1.368 . S
C862 C861 1.523 . S
C863 C847 1.429 . S
C863 C859 1.429 . S
C863 C864 1.523 . S
C864 C848 1.368 . S
C864 C860 1.368 . S
C864 C863 1.523 . S
H865 C840 0.950 . S
H866 C842 0.950 . S
H867 C843 0.949 . S
H868 C845 0.950 . S
H869 C847 0.950 . S
C870 C871 1.349 . S
C870 C872 1.327 . S
C870 H895 0.950 . S
C871 C870 1.349 . S
C871 C887 1.349 . S
C872 C870 1.327 . S
C872 C891 1.429 . S
C872 H896 0.950 . S
C873 C890 1.574 . S
C873 C892 1.368 . S
C873 H897 0.949 . S
H874 C878 0.949 . S
C875 C876 1.349 . S
C875 C877 1.327 . S
C875 H898 0.950 . S
C876 C875 1.349 . S
C876 C888 1.349 . S
C877 C875 1.327 . S
C877 C893 1.429 . S
C877 H899 0.950 . S
C878 H874 0.949 . S
C878 C886 1.574 . S
C878 C894 1.368 . S
H879 C887 0.950 . S
H880 C885 0.950 . S
H881 C886 0.949 . S
H882 C888 0.950 . S
H883 C889 0.950 . S
H884 C890 0.949 . S
C885 H880 0.950 . S
C885 C887 1.327 . S
C885 C891 1.429 . S
C886 C878 1.574 . S
C886 H881 0.949 . S
C886 C892 1.368 . S
C887 C871 1.349 . S
C887 H879 0.950 . S
C887 C885 1.327 . S
C888 C876 1.349 . S
C888 H882 0.950 . S
C888 C889 1.327 . S
C889 H883 0.950 . S
C889 C888 1.327 . S
C889 C893 1.429 . S
C890 C873 1.574 . S
C890 H884 0.949 . S
C890 C894 1.368 . S
C891 C872 1.429 . S
C891 C885 1.429 . S
C891 C892 1.523 . S
C892 C873 1.368 . S
C892 C886 1.368 . S
C892 C891 1.523 . S
C893 C877 1.429 . S
C893 C889 1.429 . S
C893 C894 1.523 . S
C894 C878 1.368 . S
C894 C890 1.368 . S
C894 C893 1.523 . S
H895 C870 0.950 . S
H896 C872 0.950 . S
H897 C873 0.949 . S
H898 C875 0.950 . S
H899 C877 0.950 . S
C900 C901 1.349 . S
C900 C902 1.327 . S
C900 H925 0.950 . S
C901 C900 1.349 . S
C901 C917 1.349 1_455 S
C902 C900 1.327 . S
C902 C921 1.429 . S
C902 H926 0.950 . S
C903 C920 1.574 . S
C903 C922 1.368 1_655 S
C903 H927 0.949 . S
H904 C908 0.949 . S
C905 C906 1.359 . S
C905 C907 1.324 1_455 S
C905 H928 0.941 1_455 S
C906 C905 1.359 . S
C906 C918 1.349 . S
C907 C905 1.324 1_655 S
C907 C923 1.406 1_655 S
C907 H929 0.979 . S
C908 H904 0.949 . S
C908 C916 1.574 . S
C908 C924 1.368 . S
H909 C917 0.950 . S
H910 C915 0.950 . S
H911 C916 0.949 . S
H912 C918 0.950 . S
H913 C919 0.950 . S
H914 C920 0.949 . S
C915 H910 0.950 . S
C915 C917 1.327 . S
C915 C921 1.429 1_655 S
C916 C908 1.574 . S
C916 H911 0.949 . S
C916 C922 1.368 . S
C917 C901 1.349 1_655 S
C917 H909 0.950 . S
C917 C915 1.327 . S
C918 C906 1.349 . S
C918 H912 0.950 . S
C918 C919 1.327 . S
C919 H913 0.950 . S
C919 C918 1.327 . S
C919 C923 1.429 . S
C920 C903 1.574 . S
C920 H914 0.949 . S
C920 C924 1.368 1_655 S
C921 C902 1.429 . S
C921 C915 1.429 1_455 S
C921 C922 1.523 . S
C922 C903 1.368 1_455 S
C922 C916 1.368 . S
C922 C921 1.523 . S
C923 C907 1.406 1_455 S
C923 C919 1.429 . S
C923 C924 1.523 . S
C924 C908 1.368 . S
C924 C920 1.368 1_455 S
C924 C923 1.523 . S
H925 C900 0.950 . S
H926 C902 0.950 . S
H927 C903 0.949 . S
H928 C905 0.941 1_655 S
H929 C907 0.979 . S
C930 C931 1.349 . S
C930 C932 1.327 . S
C930 H955 0.950 . S
C931 C930 1.349 . S
C931 C947 1.349 . S
C932 C930 1.327 . S
C932 C951 1.429 . S
C932 H956 0.950 . S
C933 C950 1.574 . S
C933 C952 1.368 . S
C933 H957 0.949 . S
H934 C938 0.949 . S
C935 C936 1.349 . S
C935 C937 1.327 . S
C935 H958 0.950 . S
C936 C935 1.349 . S
C936 C948 1.349 . S
C937 C935 1.327 . S
C937 C953 1.429 . S
C937 H959 0.950 . S
C938 H934 0.949 . S
C938 C946 1.574 . S
C938 C954 1.368 . S
H939 C947 0.950 . S
H940 C945 0.950 . S
H941 C946 0.949 . S
H942 C948 0.950 . S
H943 C949 0.950 . S
H944 C950 0.949 . S
C945 H940 0.950 . S
C945 C947 1.327 . S
C945 C951 1.429 . S
C946 C938 1.574 . S
C946 H941 0.949 . S
C946 C952 1.368 . S
C947 C931 1.349 . S
C947 H939 0.950 . S
C947 C945 1.327 . S
C948 C936 1.349 . S
C948 H942 0.950 . S
C948 C949 1.327 . S
C949 H943 0.950 . S
C949 C948 1.327 . S
C949 C953 1.429 . S
C950 C933 1.574 . S
C950 H944 0.949 . S
C950 C954 1.368 . S
C951 C932 1.429 . S
C951 C945 1.429 . S
C951 C952 1.523 . S
C952 C933 1.368 . S
C952 C946 1.368 . S
C952 C951 1.523 . S
C953 C937 1.429 . S
C953 C949 1.429 . S
C953 C954 1.523 . S
C954 C938 1.368 . S
C954 C950 1.368 . S
C954 C953 1.523 . S
H955 C930 0.950 . S
H956 C932 0.950 . S
H957 C933 0.949 . S
H958 C935 0.950 . S
H959 C937 0.950 . S
C960 C961 1.349 . S
C960 C962 1.327 . S
C960 H985 0.950 . S
C961 C960 1.349 . S
C961 C977 1.349 . S
C962 C960 1.327 . S
C962 C981 1.429 . S
C962 H986 0.950 . S
C963 C980 1.575 . S
C963 C982 1.352 1_565 S
C963 H987 0.966 . S
H964 C968 0.949 . S
C965 C966 1.349 1_565 S
C965 C967 1.327 . S
C965 H988 0.950 . S
C966 C965 1.349 1_545 S
C966 C978 1.349 . S
C967 C965 1.327 . S
C967 C983 1.429 1_565 S
C967 H989 0.950 . S
C968 H964 0.949 . S
C968 C976 1.574 . S
C968 C984 1.368 . S
H969 C977 0.950 1_565 S
H970 C975 0.950 1_565 S
H971 C976 0.949 . S
H972 C978 0.950 . S
H973 C979 0.950 . S
H974 C980 0.949 . S
C975 H970 0.950 1_545 S
C975 C977 1.327 . S
C975 C981 1.429 . S
C976 C968 1.574 . S
C976 H971 0.949 . S
C976 C982 1.368 . S
C977 C961 1.349 . S
C977 H969 0.950 1_545 S
C977 C975 1.327 . S
C978 C966 1.349 . S
C978 H972 0.950 . S
C978 C979 1.327 . S
C979 H973 0.950 . S
C979 C978 1.327 . S
C979 C983 1.429 . S
C980 C963 1.575 . S
C980 H974 0.949 . S
C980 C984 1.368 1_565 S
C981 C962 1.429 . S
C981 C975 1.429 . S
C981 C982 1.523 . S
C982 C963 1.352 1_545 S
C982 C976 1.368 . S
C982 C981 1.523 . S
C983 C967 1.429 1_545 S
C983 C979 1.429 . S
C983 C984 1.523 . S
C984 C968 1.368 . S
C984 C980 1.368 1_545 S
C984 C983 1.523 . S
H985 C960 0.950 . S
H986 C962 0.950 . S
H987 C963 0.966 . S
H988 C965 0.950 . S
H989 C967 0.950 . S
C990 C991 1.349 . S
C990 C992 1.327 . S
C990 H1015 0.950 . S
C991 C990 1.349 . S
C991 C1007 1.349 . S
C992 C990 1.327 . S
C992 C1011 1.429 . S
C992 H1016 0.950 . S
C993 C1010 1.574 . S
C993 C1012 1.368 . S
C993 H1017 0.949 . S
H994 C998 0.949 . S
C995 C996 1.349 . S
C995 C997 1.327 . S
C995 H1018 0.950 . S
C996 C995 1.349 . S
C996 C1008 1.349 . S
C997 C995 1.327 . S
C997 C1013 1.429 1_554 S
C997 H1019 0.950 . S
C998 H994 0.949 . S
C998 C1006 1.574 . S
C998 C1014 1.368 . S
H999 C1007 0.950 . S
H1000 C1005 0.950 . S
H1001 C1006 0.949 . S
H1002 C1008 0.950 . S
H1003 C1009 0.950 . S
H1004 C1010 0.949 . S
C1005 H1000 0.950 . S
C1005 C1007 1.327 . S
C1005 C1011 1.429 . S
C1006 C998 1.574 . S
C1006 H1001 0.949 . S
C1006 C1012 1.368 . S
C1007 C991 1.349 . S
C1007 H999 0.950 . S
C1007 C1005 1.327 . S
C1008 C996 1.349 . S
C1008 H1002 0.950 . S
C1008 C1009 1.327 . S
C1009 H1003 0.950 . S
C1009 C1008 1.327 . S
C1009 C1013 1.429 1_554 S
C1010 C993 1.574 . S
C1010 H1004 0.949 . S
C1010 C1014 1.368 . S
C1011 C992 1.429 . S
C1011 C1005 1.429 . S
C1011 C1012 1.523 . S
C1012 C993 1.368 . S
C1012 C1006 1.368 . S
C1012 C1011 1.523 . S
C1013 C997 1.429 1_556 S
C1013 C1009 1.429 1_556 S
C1013 C1014 1.523 . S
C1014 C998 1.368 . S
C1014 C1010 1.368 . S
C1014 C1013 1.523 . S
H1015 C990 0.950 . S
H1016 C992 0.950 . S
H1017 C993 0.949 . S
H1018 C995 0.950 . S
H1019 C997 0.950 . S
C1020 C1021 1.349 . S
C1020 C1022 1.327 . S
C1020 H1045 0.950 . S
C1021 C1020 1.349 . S
C1021 C1037 1.349 . S
C1022 C1020 1.327 . S
C1022 C1041 1.429 . S
C1022 H1046 0.950 . S
C1023 C1040 1.574 . S
C1023 C1042 1.368 . S
C1023 H1047 0.949 . S
H1024 C1028 0.949 . S
C1025 C1026 1.349 . S
C1025 C1027 1.327 . S
C1025 H1048 0.950 . S
C1026 C1025 1.349 . S
C1026 C1038 1.349 . S
C1027 C1025 1.327 . S
C1027 C1043 1.429 1_554 S
C1027 H1049 0.950 . S
C1028 H1024 0.949 . S
C1028 C1036 1.574 . S
C1028 C1044 1.368 . S
H1029 C1037 0.950 . S
H1030 C1035 0.950 . S
H1031 C1036 0.949 . S
H1032 C1038 0.950 . S
H1033 C1039 0.950 . S
H1034 C1040 0.949 . S
C1035 H1030 0.950 . S
C1035 C1037 1.327 . S
C1035 C1041 1.429 . S
C1036 C1028 1.574 . S
C1036 H1031 0.949 . S
C1036 C1042 1.368 . S
C1037 C1021 1.349 . S
C1037 H1029 0.950 . S
C1037 C1035 1.327 . S
C1038 C1026 1.349 . S
C1038 H1032 0.950 . S
C1038 C1039 1.327 . S
C1039 H1033 0.950 . S
C1039 C1038 1.327 . S
C1039 C1043 1.429 1_554 S
C1040 C1023 1.574 . S
C1040 H1034 0.949 . S
C1040 C1044 1.368 . S
C1041 C1022 1.429 . S
C1041 C1035 1.429 . S
C1041 C1042 1.523 . S
C1042 C1023 1.368 . S
C1042 C1036 1.368 . S
C1042 C1041 1.523 . S
C1043 C1027 1.429 1_556 S
C1043 C1039 1.429 1_556 S
C1043 C1044 1.523 . S
C1044 C1028 1.368 . S
C1044 C1040 1.368 . S
C1044 C1043 1.523 . S
H1045 C1020 0.950 . S
H1046 C1022 0.950 . S
H1047 C1023 0.949 . S
H1048 C1025 0.950 . S
H1049 C1027 0.950 . S
C1050 C1051 1.349 . S
C1050 C1052 1.327 . S
C1050 H1075 0.950 . S
C1051 C1050 1.349 . S
C1051 C1067 1.349 . S
C1052 C1050 1.327 . S
C1052 C1071 1.429 . S
C1052 H1076 0.950 . S
C1053 C1070 1.574 . S
C1053 C1072 1.368 . S
C1053 H1077 0.949 . S
H1054 C1058 0.949 . S
C1055 C1056 1.349 . S
C1055 C1057 1.327 . S
C1055 H1078 0.950 . S
C1056 C1055 1.349 . S
C1056 C1068 1.349 . S
C1057 C1055 1.327 . S
C1057 C1073 1.429 1_554 S
C1057 H1079 0.950 . S
C1058 H1054 0.949 . S
C1058 C1066 1.574 . S
C1058 C1074 1.368 . S
H1059 C1067 0.950 . S
H1060 C1065 0.950 . S
H1061 C1066 0.949 . S
H1062 C1068 0.950 . S
H1063 C1069 0.950 . S
H1064 C1070 0.949 . S
C1065 H1060 0.950 . S
C1065 C1067 1.327 . S
C1065 C1071 1.429 . S
C1066 C1058 1.574 . S
C1066 H1061 0.949 . S
C1066 C1072 1.368 . S
C1067 C1051 1.349 . S
C1067 H1059 0.950 . S
C1067 C1065 1.327 . S
C1068 C1056 1.349 . S
C1068 H1062 0.950 . S
C1068 C1069 1.327 . S
C1069 H1063 0.950 . S
C1069 C1068 1.327 . S
C1069 C1073 1.429 1_554 S
C1070 C1053 1.574 . S
C1070 H1064 0.949 . S
C1070 C1074 1.368 . S
C1071 C1052 1.429 . S
C1071 C1065 1.429 . S
C1071 C1072 1.523 . S
C1072 C1053 1.368 . S
C1072 C1066 1.368 . S
C1072 C1071 1.523 . S
C1073 C1057 1.429 1_556 S
C1073 C1069 1.429 1_556 S
C1073 C1074 1.523 . S
C1074 C1058 1.368 . S
C1074 C1070 1.368 . S
C1074 C1073 1.523 . S
H1075 C1050 0.950 . S
H1076 C1052 0.950 . S
H1077 C1053 0.949 . S
H1078 C1055 0.950 . S
H1079 C1057 0.950 . S
C1080 C1081 1.349 . S
C1080 C1082 1.327 . S
C1080 H1105 0.950 . S
C1081 C1080 1.349 . S
C1081 C1097 1.349 . S
C1082 C1080 1.327 . S
C1082 C1101 1.429 . S
C1082 H1106 0.950 . S
C1083 C1100 1.574 . S
C1083 C1102 1.368 . S
C1083 H1107 0.949 . S
H1084 C1088 0.949 . S
C1085 C1086 1.349 . S
C1085 C1087 1.327 . S
C1085 H1108 0.950 . S
C1086 C1085 1.349 . S
C1086 C1098 1.349 . S
C1087 C1085 1.327 . S
C1087 C1103 1.429 1_556 S
C1087 H1109 0.950 . S
C1088 H1084 0.949 . S
C1088 C1096 1.574 . S
C1088 C1104 1.368 . S
H1089 C1097 0.950 . S
H1090 C1095 0.950 . S
H1091 C1096 0.949 . S
H1092 C1098 0.950 . S
H1093 C1099 0.950 . S
H1094 C1100 0.949 . S
C1095 H1090 0.950 . S
C1095 C1097 1.327 . S
C1095 C1101 1.429 . S
C1096 C1088 1.574 . S
C1096 H1091 0.949 . S
C1096 C1102 1.368 . S
C1097 C1081 1.349 . S
C1097 H1089 0.950 . S
C1097 C1095 1.327 . S
C1098 C1086 1.349 . S
C1098 H1092 0.950 . S
C1098 C1099 1.327 . S
C1099 H1093 0.950 . S
C1099 C1098 1.327 . S
C1099 C1103 1.429 1_556 S
C1100 C1083 1.574 . S
C1100 H1094 0.949 . S
C1100 C1104 1.368 . S
C1101 C1082 1.429 . S
C1101 C1095 1.429 . S
C1101 C1102 1.523 . S
C1102 C1083 1.368 . S
C1102 C1096 1.368 . S
C1102 C1101 1.523 . S
C1103 C1087 1.429 1_554 S
C1103 C1099 1.429 1_554 S
C1103 C1104 1.523 . S
C1104 C1088 1.368 . S
C1104 C1100 1.368 . S
C1104 C1103 1.523 . S
H1105 C1080 0.950 . S
H1106 C1082 0.950 . S
H1107 C1083 0.949 . S
H1108 C1085 0.950 . S
H1109 C1087 0.950 . S
C1110 C1111 1.349 . S
C1110 C1112 1.327 . S
C1110 H1135 0.950 . S
C1111 C1110 1.349 . S
C1111 C1127 1.349 . S
C1112 C1110 1.327 . S
C1112 C1131 1.429 1_556 S
C1112 H1136 0.950 . S
C1113 C1130 1.574 . S
C1113 C1132 1.368 . S
C1113 H1137 0.949 . S
H1114 C1118 0.949 . S
C1115 C1116 1.349 . S
C1115 C1117 1.327 . S
C1115 H1138 0.950 . S
C1116 C1115 1.349 . S
C1116 C1128 1.349 . S
C1117 C1115 1.327 . S
C1117 C1133 1.429 . S
C1117 H1139 0.950 . S
C1118 H1114 0.949 . S
C1118 C1126 1.574 . S
C1118 C1134 1.368 . S
H1119 C1127 0.950 . S
H1120 C1125 0.950 1_554 S
H1121 C1126 0.949 . S
H1122 C1128 0.950 . S
H1123 C1129 0.950 . S
H1124 C1130 0.949 . S
C1125 H1120 0.950 1_556 S
C1125 C1127 1.327 . S
C1125 C1131 1.429 1_556 S
C1126 C1118 1.574 . S
C1126 H1121 0.949 . S
C1126 C1132 1.368 . S
C1127 C1111 1.349 . S
C1127 H1119 0.950 . S
C1127 C1125 1.327 . S
C1128 C1116 1.349 . S
C1128 H1122 0.950 . S
C1128 C1129 1.327 . S
C1129 H1123 0.950 . S
C1129 C1128 1.327 . S
C1129 C1133 1.429 . S
C1130 C1113 1.574 . S
C1130 H1124 0.949 . S
C1130 C1134 1.368 . S
C1131 C1112 1.429 1_554 S
C1131 C1125 1.429 1_554 S
C1131 C1132 1.523 . S
C1132 C1113 1.368 . S
C1132 C1126 1.368 . S
C1132 C1131 1.523 . S
C1133 C1117 1.429 . S
C1133 C1129 1.429 . S
C1133 C1134 1.523 . S
C1134 C1118 1.368 . S
C1134 C1130 1.368 . S
C1134 C1133 1.523 . S
H1135 C1110 0.950 . S
H1136 C1112 0.950 . S
H1137 C1113 0.949 . S
H1138 C1115 0.950 . S
H1139 C1117 0.950 . S
C1140 C1141 1.349 . S
C1140 C1142 1.327 . S
C1140 H1165 0.950 . S
C1141 C1140 1.349 . S
C1141 C1157 1.349 . S
C1142 C1140 1.327 . S
C1142 C1161 1.429 . S
C1142 H1166 0.950 . S
C1143 C1160 1.574 . S
C1143 C1162 1.368 . S
C1143 H1167 0.949 . S
H1144 C1148 0.949 . S
C1145 C1146 1.349 . S
C1145 C1147 1.327 . S
C1145 H1168 0.950 . S
C1146 C1145 1.349 . S
C1146 C1158 1.349 . S
C1147 C1145 1.327 . S
C1147 C1163 1.429 1_556 S
C1147 H1169 0.950 1_556 S
C1148 H1144 0.949 . S
C1148 C1156 1.574 . S
C1148 C1164 1.368 . S
H1149 C1157 0.950 . S
H1150 C1155 0.950 . S
H1151 C1156 0.949 . S
H1152 C1158 0.950 . S
H1153 C1159 0.950 . S
H1154 C1160 0.949 . S
C1155 H1150 0.950 . S
C1155 C1157 1.327 . S
C1155 C1161 1.429 . S
C1156 C1148 1.574 . S
C1156 H1151 0.949 . S
C1156 C1162 1.368 . S
C1157 C1141 1.349 . S
C1157 H1149 0.950 . S
C1157 C1155 1.327 . S
C1158 C1146 1.349 . S
C1158 H1152 0.950 . S
C1158 C1159 1.327 . S
C1159 H1153 0.950 . S
C1159 C1158 1.327 . S
C1159 C1163 1.429 1_556 S
C1160 C1143 1.574 . S
C1160 H1154 0.949 . S
C1160 C1164 1.368 . S
C1161 C1142 1.429 . S
C1161 C1155 1.429 . S
C1161 C1162 1.523 . S
C1162 C1143 1.368 . S
C1162 C1156 1.368 . S
C1162 C1161 1.523 . S
C1163 C1147 1.429 1_554 S
C1163 C1159 1.429 1_554 S
C1163 C1164 1.523 . S
C1164 C1148 1.368 . S
C1164 C1160 1.368 . S
C1164 C1163 1.523 . S
H1165 C1140 0.950 . S
H1166 C1142 0.950 . S
H1167 C1143 0.949 . S
H1168 C1145 0.950 . S
H1169 C1147 0.950 1_554 S
C361 C26 1.769 . S
C366 C293 1.742 . S
C391 C66 1.769 . S
C396 C333 1.742 . S
C421 C106 1.770 . S
C426 C253 1.742 . S
C451 C186 1.770 . S
C456 C93 1.742 . S
C481 C226 1.770 . S
C486 C13 1.742 . S
C511 C53 1.742 . S
C516 C146 1.770 . S
C541 C306 1.770 . S
C546 C213 1.742 . S
C571 C346 1.770 . S
C576 C133 1.742 . S
C601 C173 1.742 . S
C606 C266 1.770 . S
C631 C97 1.563 . S
C636 C24 1.565 . S
C661 C64 1.565 . S
C666 C17 1.563 . S
C691 C57 1.562 . S
C696 C104 1.565 . S
C721 C144 1.566 . S
C726 C217 1.563 . S
C751 C137 1.563 . S
C756 C184 1.565 . S
C781 C177 1.562 . S
C786 C224 1.565 . S
C811 C337 1.563 . S
C816 C264 1.565 . S
C841 C304 1.565 . S
C846 C257 1.563 . S
C871 C344 1.565 . S
C876 C297 1.563 . S
C901 C23 0.890 . S
C906 C2 0.890 . S
C931 C63 0.890 . S
C936 C42 0.890 . S
C961 C103 0.890 . S
C966 C82 0.890 . S
C991 C122 0.890 . S
C996 C143 0.890 . S
C1021 C162 0.890 . S
C1026 C183 0.890 . S
C1051 C202 0.890 . S
C1056 C223 0.890 . S
C1081 C263 0.890 . S
C1086 C242 0.890 . S
C1111 C282 0.890 . S
C1116 C303 0.890 . S
C1141 C343 0.890 . S
C1146 C322 0.890 . S
