# Generated by pormake.
# Topology sml, (6)-cn, num edge types: 1
# Building blocks:
#     Node 0, Type 0, BuildingBlock: UKALOJ_clean_sbu_0, # of connection points: 6
#     Node 1, Type 0, BuildingBlock: UKALOJ_clean_sbu_0, # of connection points: 6
#     Node 2, Type 0, BuildingBlock: UKALOJ_clean_sbu_0, # of connection points: 6
#     Node 3, Type 0, BuildingBlock: UKALOJ_clean_sbu_0, # of connection points: 6
#     Node 4, Type 0, BuildingBlock: UKALOJ_clean_sbu_0, # of connection points: 6
#     Node 5, Type 0, BuildingBlock: UKALOJ_clean_sbu_0, # of connection points: 6
#     Edge 6, Type (0, 0), BuildingBlock: MIFKUJ_clean_linker_0, # of connection points: 2
#     Edge 7, Type (0, 0), BuildingBlock: MIFKUJ_clean_linker_0, # of connection points: 2
#     Edge 8, Type (0, 0), BuildingBlock: MIFKUJ_clean_linker_0, # of connection points: 2
#     Edge 9, Type (0, 0), BuildingBlock: MIFKUJ_clean_linker_0, # of connection points: 2
#     Edge 10, Type (0, 0), BuildingBlock: MIFKUJ_clean_linker_0, # of connection points: 2
#     Edge 11, Type (0, 0), BuildingBlock: MIFKUJ_clean_linker_0, # of connection points: 2
#     Edge 12, Type (0, 0), BuildingBlock: MIFKUJ_clean_linker_0, # of connection points: 2
#     Edge 13, Type (0, 0), BuildingBlock: MIFKUJ_clean_linker_0, # of connection points: 2
#     Edge 14, Type (0, 0), BuildingBlock: MIFKUJ_clean_linker_0, # of connection points: 2
#     Edge 15, Type (0, 0), BuildingBlock: MIFKUJ_clean_linker_0, # of connection points: 2
#     Edge 16, Type (0, 0), BuildingBlock: MIFKUJ_clean_linker_0, # of connection points: 2
#     Edge 17, Type (0, 0), BuildingBlock: MIFKUJ_clean_linker_0, # of connection points: 2
#     Edge 18, Type (0, 0), BuildingBlock: MIFKUJ_clean_linker_0, # of connection points: 2
#     Edge 19, Type (0, 0), BuildingBlock: MIFKUJ_clean_linker_0, # of connection points: 2
#     Edge 20, Type (0, 0), BuildingBlock: MIFKUJ_clean_linker_0, # of connection points: 2
#     Edge 21, Type (0, 0), BuildingBlock: MIFKUJ_clean_linker_0, # of connection points: 2
#     Edge 22, Type (0, 0), BuildingBlock: MIFKUJ_clean_linker_0, # of connection points: 2
#     Edge 23, Type (0, 0), BuildingBlock: MIFKUJ_clean_linker_0, # of connection points: 2
# Relax obj value: 0.276
# Max RMSD: 0.215
# Mean RMSD: 0.215
data_MOF--net-sml--node1-UKALOJ_clean_sbu_0--edge1-MIFKUJ_clean_linker_0
_symmetry_space_group_name_H-M    P1
_symmetry_Int_Tables_number       1
_symmetry_cell_setting            triclinic
loop_
_symmetry_equiv_pos_as_xyz
'x, y, z'
_cell_length_a     48.037415
_cell_length_b     48.015615
_cell_length_c     23.500224
_cell_angle_alpha  89.935865
_cell_angle_beta   90.105597
_cell_angle_gamma 120.1311
loop_
_atom_site_label
_atom_site_type_symbol
_atom_site_fract_x
_atom_site_fract_y
_atom_site_fract_z
_atom_type_partial_charge
Zn0 Zn 0.23091 0.41877 0.06179 0.0
O1 O 0.21188 0.44711 0.09226 0.0
C2 C 0.16431 0.3623 0.05407 0.0
Zn3 Zn 0.20614 0.41657 0.98029 0.0
C4 C 0.19352 0.45372 0.06356 0.0
O5 O 0.18657 0.44387 0.01257 0.0
C6 C 0.2427 0.38111 0.979 0.0
O7 O 0.24764 0.45907 0.95619 0.0
O8 O 0.27321 0.46135 0.0351 0.0
N9 N 0.18551 0.41378 0.90278 0.0
C10 C 0.19799 0.41956 0.84986 0.0
C11 C 0.14782 0.40287 0.84139 0.0
N12 N 0.15434 0.40347 0.89741 0.0
N13 N 0.17496 0.41323 0.81097 0.0
C14 C 0.23713 0.41412 0.19198 0.0
C15 C 0.28717 0.43106 0.20355 0.0
N16 N 0.2508 0.42122 0.13996 0.0
N17 N 0.2819 0.43174 0.14723 0.0
N18 N 0.25931 0.41968 0.23218 0.0
H19 H 0.20109 0.41623 0.2432 0.0
H20 H 0.18937 0.37751 0.21388 0.0
H21 H 0.19052 0.40845 0.16916 0.0
C22 C 0.20259 0.40369 0.20466 0.0
C23 C 0.23201 0.42899 0.83512 0.0
H24 H 0.24567 0.42785 0.87192 0.0
H25 H 0.24452 0.45388 0.81809 0.0
H26 H 0.23199 0.41301 0.801 0.0
O27 O 0.22549 0.38892 0.94957 0.0
O28 O 0.24942 0.39045 0.03029 0.0
C29 C 0.27288 0.47296 0.98658 0.0
O30 O 0.18884 0.37614 0.08615 0.0
O31 O 0.16486 0.37431 0.00567 0.0
Zn32 Zn 0.78751 0.20685 0.28482 0.0
O33 O 0.79651 0.25247 0.25897 0.0
C34 C 0.85808 0.23157 0.28983 0.0
Zn35 Zn 0.80883 0.22657 0.36942 0.0
C36 C 0.8092 0.27621 0.29293 0.0
O37 O 0.81643 0.27229 0.34322 0.0
C38 C 0.78776 0.15742 0.35986 0.0
O39 O 0.76252 0.21397 0.39806 0.0
O40 O 0.74134 0.19577 0.31392 0.0
N41 N 0.82794 0.24531 0.4468 0.0
C42 C 0.81551 0.23619 0.49929 0.0
C43 C 0.86227 0.27747 0.50881 0.0
N44 N 0.85702 0.27093 0.4527 0.0
N45 N 0.83635 0.25617 0.53857 0.0
C46 C 0.78028 0.19595 0.1551 0.0
C47 C 0.73317 0.15502 0.14705 0.0
N48 N 0.76805 0.18771 0.20786 0.0
N49 N 0.73875 0.1623 0.20287 0.0
N50 N 0.7591 0.17563 0.11656 0.0
H51 H 0.82107 0.24302 0.17454 0.0
H52 H 0.81049 0.2358 0.10029 0.0
H53 H 0.82992 0.21659 0.13404 0.0
C54 C 0.81223 0.22467 0.14056 0.0
C55 C 0.78371 0.20696 0.51277 0.0
H56 H 0.77599 0.18851 0.47908 0.0
H57 H 0.76532 0.21431 0.51717 0.0
H58 H 0.785 0.19612 0.55371 0.0
O59 O 0.8013 0.18104 0.39401 0.0
O60 O 0.77895 0.16149 0.3111 0.0
C61 C 0.7381 0.20112 0.36566 0.0
O62 O 0.83379 0.21802 0.25708 0.0
O63 O 0.85471 0.23853 0.34042 0.0
Zn64 Zn 0.58146 0.81156 0.6893 0.0
O65 O 0.5471 0.76864 0.72858 0.0
C66 C 0.61977 0.77846 0.67357 0.0
Zn67 Zn 0.56995 0.78266 0.61032 0.0
C68 C 0.52914 0.74251 0.70244 0.0
O69 O 0.53207 0.74115 0.64894 0.0
C70 C 0.6234 0.85126 0.59835 0.0
O71 O 0.53824 0.79934 0.59147 0.0
O72 O 0.54606 0.82465 0.67297 0.0
N73 N 0.5608 0.75966 0.53393 0.0
C74 C 0.55772 0.76964 0.48195 0.0
C75 C 0.55971 0.72664 0.47052 0.0
N76 N 0.56178 0.73279 0.52685 0.0
N77 N 0.55704 0.7494 0.44168 0.0
C78 C 0.57487 0.82789 0.81348 0.0
C79 C 0.62396 0.85636 0.8384 0.0
N80 N 0.5929 0.83407 0.76626 0.0
N81 N 0.62338 0.85214 0.78169 0.0
N82 N 0.59384 0.84109 0.85963 0.0
H83 H 0.52939 0.81529 0.77426 0.0
H84 H 0.52993 0.81832 0.85085 0.0
H85 H 0.5289 0.78424 0.81721 0.0
C86 C 0.53874 0.81054 0.81393 0.0
C87 C 0.55374 0.79828 0.47058 0.0
H88 H 0.52912 0.79219 0.48351 0.0
H89 H 0.55631 0.80479 0.42489 0.0
H90 H 0.57119 0.81943 0.49551 0.0
O91 O 0.60835 0.82431 0.573 0.0
O92 O 0.61617 0.85363 0.64936 0.0
C93 C 0.53212 0.81628 0.62492 0.0
O94 O 0.61677 0.79853 0.70424 0.0
O95 O 0.6018 0.76628 0.63042 0.0
Zn96 Zn 0.79272 0.579 0.96379 0.0
O97 O 0.74947 0.53665 0.94352 0.0
C98 C 0.75793 0.61687 0.95423 0.0
Zn99 Zn 0.7667 0.5801 0.0414 0.0
C100 C 0.72382 0.52466 0.97278 0.0
O101 O 0.72342 0.53818 0.01893 0.0
C102 C 0.83526 0.6347 0.03255 0.0
O103 O 0.7843 0.55121 0.07614 0.0
O104 O 0.81036 0.55073 -0.00025 0.0
N105 N 0.7483 0.58172 0.11886 0.0
C106 C 0.76284 0.59031 0.17015 0.0
C107 C 0.71387 0.57765 0.18209 0.0
N108 N 0.71788 0.5739 0.12633 0.0
N109 N 0.74189 0.58837 0.21013 0.0
C110 C 0.79755 0.5739 0.83391 0.0
C111 C 0.84816 0.59896 0.81957 0.0
N112 N 0.81195 0.57993 0.88534 0.0
N113 N 0.84342 0.5953 0.87631 0.0
N114 N 0.81973 0.58604 0.79206 0.0
H115 H 0.75306 0.52976 0.84164 0.0
H116 H 0.75493 0.55107 0.77917 0.0
H117 H 0.7494 0.56519 0.84729 0.0
C118 C 0.76178 0.55425 0.82467 0.0
C119 C 0.79683 0.59846 0.18262 0.0
H120 H 0.80752 0.59134 0.14822 0.0
H121 H 0.79757 0.58651 0.22259 0.0
H122 H 0.81204 0.62479 0.18895 0.0
O123 O 0.80979 0.62258 0.06222 0.0
O124 O 0.83554 0.62096 0.98664 0.0
C125 C 0.80219 0.54254 0.05121 0.0
O126 O 0.7754 0.60787 0.92898 0.0
O127 O 0.74922 0.60821 0.00523 0.0
Zn128 Zn 0.17269 0.75615 0.38893 0.0
O129 O 0.21739 0.7631 0.41838 0.0
C130 C 0.20147 0.82778 0.38303 0.0
Zn131 Zn 0.19686 0.77764 0.30677 0.0
C132 C 0.24254 0.77562 0.38775 0.0
O133 O 0.24097 0.78381 0.33697 0.0
C134 C 0.12758 0.7591 0.30805 0.0
O135 O 0.1828 0.7304 0.28064 0.0
O136 O 0.16007 0.70921 0.36262 0.0
N137 N 0.21733 0.79544 0.22943 0.0
C138 C 0.20861 0.78258 0.17703 0.0
C139 C 0.25048 0.82889 0.16753 0.0
N140 N 0.24335 0.82422 0.22349 0.0
N141 N 0.22919 0.8029 0.13777 0.0
C142 C 0.16234 0.75167 0.51888 0.0
C143 C 0.11992 0.70589 0.52953 0.0
N144 N 0.15266 0.73885 0.46664 0.0
N145 N 0.12628 0.71041 0.47328 0.0
N146 N 0.14204 0.73167 0.55872 0.0
H147 H 0.20988 0.79123 0.49619 0.0
H148 H 0.20475 0.77963 0.56989 0.0
H149 H 0.18657 0.80146 0.5421 0.0
C150 C 0.19274 0.78267 0.53193 0.0
C151 C 0.179 0.75103 0.16358 0.0
H152 H 0.16016 0.7443 0.19618 0.0
H153 H 0.18559 0.73197 0.16158 0.0
H154 H 0.16891 0.75208 0.12164 0.0
O155 O 0.15293 0.77189 0.27797 0.0
O156 O 0.1284 0.74946 0.35809 0.0
C157 C 0.16744 0.70588 0.31226 0.0
O158 O 0.18517 0.80317 0.41401 0.0
O159 O 0.21046 0.82438 0.33407 0.0
Zn160 Zn 0.41436 0.21423 0.61191 0.0
O161 O 0.45196 0.20767 0.58319 0.0
C162 C 0.3717 0.1423 0.61691 0.0
Zn163 Zn 0.41718 0.19211 0.69378 0.0
C164 C 0.46481 0.195 0.61294 0.0
O165 O 0.45519 0.18603 0.66361 0.0
C166 C 0.36645 0.21061 0.69245 0.0
O167 O 0.45087 0.23936 0.72031 0.0
O168 O 0.4487 0.26119 0.63931 0.0
N169 N 0.41877 0.17437 0.77227 0.0
C170 C 0.42066 0.18678 0.82456 0.0
C171 C 0.41365 0.1396 0.83592 0.0
N172 N 0.41448 0.14508 0.77943 0.0
N173 N 0.41779 0.16555 0.86499 0.0
C174 C 0.4077 0.21945 0.48154 0.0
C175 C 0.40772 0.26367 0.47296 0.0
N176 N 0.41132 0.23195 0.53418 0.0
N177 N 0.41139 0.25948 0.52874 0.0
N178 N 0.40504 0.23865 0.44279 0.0
H179 H 0.41686 0.18058 0.50254 0.0
H180 H 0.42467 0.19432 0.42984 0.0
H181 H 0.38413 0.17047 0.4539 0.0
C182 C 0.40855 0.1895 0.46683 0.0
C183 C 0.4231 0.21871 0.83649 0.0
H184 H 0.41301 0.22636 0.80166 0.0
H185 H 0.44883 0.23727 0.84165 0.0
H186 H 0.41032 0.21778 0.87637 0.0
O187 O 0.37904 0.19758 0.72165 0.0
O188 O 0.37688 0.22076 0.64267 0.0
C189 C 0.45987 0.26408 0.68931 0.0
O190 O 0.38011 0.16693 0.58585 0.0
O191 O 0.38374 0.14558 0.66624 0.0
H192 H 0.33763 0.18894 0.79529 0.0
H193 H 0.30596 0.20722 0.8474 0.0
H194 H 0.30998 0.26494 0.7033 0.0
H195 H 0.34132 0.24642 0.65043 0.0
H196 H 0.33209 0.26901 0.87449 0.0
H197 H 0.24878 0.27981 0.70737 0.0
H198 H 0.21456 0.2492 0.6261 0.0
H199 H 0.20303 0.16151 0.6967 0.0
H200 H 0.23682 0.19151 0.7788 0.0
H201 H 0.25382 0.37677 0.86741 0.0
H202 H 0.26884 0.34025 0.82352 0.0
H203 H 0.26869 0.30051 0.98866 0.0
H204 H 0.2553 0.33841 0.03312 0.0
H205 H 0.23815 0.27884 0.81619 0.0
H206 H 0.31959 0.26932 0.98719 0.0
H207 H 0.35732 0.3014 0.06373 0.0
H208 H 0.37658 0.38869 0.97947 0.0
H209 H 0.33935 0.35713 0.90199 0.0
C210 C 0.33107 0.20488 0.77408 0.0
C211 C 0.3423 0.21664 0.71904 0.0
C212 C 0.31293 0.21522 0.80394 0.0
C213 C 0.30568 0.23738 0.77919 0.0
C214 C 0.31495 0.24745 0.72283 0.0
C215 C 0.33303 0.23701 0.69279 0.0
C216 C 0.293 0.25374 0.81474 0.0
C217 C 0.31106 0.27057 0.86263 0.0
C218 C 0.26614 0.25632 0.79813 0.0
C219 C 0.24549 0.23798 0.74916 0.0
C220 C 0.23877 0.25397 0.70578 0.0
C221 C 0.21949 0.23673 0.65951 0.0
C222 C 0.20666 0.20344 0.65621 0.0
C223 C 0.21305 0.18731 0.69923 0.0
C224 C 0.23232 0.20444 0.7456 0.0
C225 C 0.25738 0.36049 0.89437 0.0
C226 C 0.25362 0.36041 0.95357 0.0
C227 C 0.26576 0.33952 0.86927 0.0
C228 C 0.26998 0.31771 0.9028 0.0
C229 C 0.26616 0.31755 0.96208 0.0
C230 C 0.25849 0.33913 0.98741 0.0
C231 C 0.27786 0.29496 0.87499 0.0
C232 C 0.25884 0.27685 0.82869 0.0
C233 C 0.30415 0.2915 0.89261 0.0
C234 C 0.32625 0.31083 0.93931 0.0
C235 C 0.33181 0.29536 0.9851 0.0
C236 C 0.35315 0.31345 0.02859 0.0
C237 C 0.3692 0.34706 0.02663 0.0
C238 C 0.364 0.36265 0.98108 0.0
C239 C 0.34274 0.34467 0.9374 0.0
H240 H 0.38574 0.36103 0.06031 0.0
H241 H 0.19175 0.19014 0.62034 0.0
H242 H 0.10572 0.33295 0.00207 0.0
H243 H 0.05399 0.30019 0.04862 0.0
H244 H 0.10216 0.2983 0.20231 0.0
H245 H 0.15431 0.33092 0.15587 0.0
H246 H 0.03571 0.23957 0.17603 0.0
H247 H 0.0929 0.35426 0.20635 0.0
H248 H 0.12612 0.41058 0.17459 0.0
H249 H 0.05093 0.39868 0.06067 0.0
H250 H 0.01755 0.34201 0.0908 0.0
H251 H 0.90822 0.23624 0.35187 0.0
H252 H 0.96191 0.25054 0.31667 0.0
H253 H 0.93353 0.25985 0.1467 0.0
H254 H 0.87997 0.24526 0.18127 0.0
H255 H 0.99346 0.31475 0.19423 0.0
H256 H 0.93704 0.1985 0.16602 0.0
H257 H 0.90547 0.1423 0.19916 0.0
H258 H 0.98071 0.1585 0.31668 0.0
H259 H 0.01253 0.215 0.28479 0.0
C260 C 0.1054 0.32469 0.04511 0.0
C261 C 0.13403 0.33542 0.07607 0.0
C262 C 0.07582 0.30584 0.0715 0.0
C263 C 0.07455 0.29751 0.12899 0.0
C264 C 0.10288 0.30471 0.15791 0.0
C265 C 0.13259 0.32364 0.13149 0.0
C266 C 0.04475 0.28765 0.16085 0.0
C267 C 0.0266 0.25602 0.18097 0.0
C268 C 0.03329 0.30943 0.16741 0.0
C269 C 0.05287 0.34378 0.15037 0.0
C270 C 0.08358 0.36355 0.17411 0.0
C271 C 0.10246 0.39552 0.15636 0.0
C272 C 0.0907 0.4081 0.11536 0.0
C273 C 0.06003 0.38882 0.09224 0.0
C274 C 0.04112 0.35678 0.10965 0.0
C275 C 0.91348 0.2412 0.30697 0.0
C276 C 0.89002 0.2395 0.26906 0.0
C277 C 0.94396 0.24918 0.28703 0.0
C278 C 0.95134 0.25602 0.22924 0.0
C279 C 0.92801 0.25442 0.19143 0.0
C280 C 0.89745 0.24593 0.21112 0.0
C281 C 0.98383 0.26634 0.20804 0.0
C282 C 0.00267 0.29833 0.19014 0.0
C283 C -0.00397 0.24503 0.20464 0.0
C284 C 0.97697 0.21107 0.22356 0.0
C285 C 0.9467 0.19018 0.19936 0.0
C286 C 0.9288 0.15825 0.2178 0.0
C287 C 0.94103 0.14687 0.26014 0.0
C288 C 0.97124 0.16737 0.28398 0.0
C289 C 0.98922 0.19934 0.26571 0.0
H290 H 0.92713 0.12213 0.27436 0.0
H291 H 0.1052 0.43289 0.10196 0.0
H292 H 0.77188 0.10568 0.29167 0.0
H293 H 0.75443 0.05058 0.32167 0.0
H294 H 0.76971 0.08106 0.49726 0.0
H295 H 0.78813 0.13637 0.46749 0.0
H296 H 0.78516 0.03525 0.48014 0.0
H297 H 0.69643 0.05218 0.43221 0.0
H298 H 0.66479 0.06691 0.36901 0.0
H299 H 0.65188 0.993 0.25123 0.0
H300 H 0.68391 0.97819 0.31337 0.0
H301 H 0.6642 0.91052 0.64274 0.0
H302 H 0.70237 0.95884 0.59118 0.0
H303 H 0.67747 0.90484 0.43438 0.0
H304 H 0.63895 0.85628 0.48562 0.0
H305 H 0.67204 0.95785 0.42678 0.0
H306 H 0.75197 0.93411 0.48836 0.0
H307 H 0.78138 0.91903 0.55617 0.0
H308 H 0.80871 0.00474 0.65309 0.0
H309 H 0.77907 0.02013 0.58636 0.0
C310 C 0.77196 0.1007 0.33662 0.0
C311 C 0.78084 0.12514 0.37738 0.0
C312 C 0.76204 0.06926 0.35364 0.0
C313 C 0.76023 0.0617 0.41168 0.0
C314 C 0.77092 0.08642 0.45223 0.0
C315 C 0.78127 0.11797 0.4352 0.0
C316 C 0.74417 0.02782 0.43073 0.0
C317 C 0.76043 0.01826 0.46859 0.0
C318 C 0.71218 0.00549 0.41434 0.0
C319 C 0.69296 0.01442 0.37698 0.0
C320 C 0.68709 0.03928 0.39258 0.0
C321 C 0.66906 0.04761 0.35699 0.0
C322 C 0.65645 0.03099 0.30601 0.0
C323 C 0.66176 0.00594 0.29062 0.0
C324 C 0.67987 -0.00242 0.32597 0.0
C325 C 0.66712 0.90881 0.59742 0.0
C326 C 0.64841 0.87971 0.56814 0.0
C327 C 0.68918 0.93636 0.56811 0.0
C328 C 0.69295 0.93526 0.50913 0.0
C329 C 0.67501 0.90604 0.48 0.0
C330 C 0.65301 0.87839 0.50933 0.0
C331 C 0.71269 0.96546 0.47745 0.0
C332 C 0.69707 0.97443 0.43724 0.0
C333 C 0.74507 0.98724 0.49221 0.0
C334 C 0.76313 0.9782 0.5324 0.0
C335 C 0.76406 0.94965 0.52433 0.0
C336 C 0.78081 0.94106 0.56256 0.0
C337 C 0.79687 0.9609 0.60894 0.0
C338 C 0.79627 0.9894 0.61712 0.0
C339 C 0.77954 -0.0019 0.57904 0.0
H340 H 0.80982 0.9542 0.6385 0.0
H341 H 0.64247 0.03746 0.27854 0.0
H342 H 0.67389 0.81159 0.73743 0.0
H343 H 0.70787 0.79155 0.77563 0.0
H344 H 0.64948 0.70103 0.68903 0.0
H345 H 0.61654 0.72162 0.6485 0.0
H346 H 0.69019 0.74717 0.84711 0.0
H347 H 0.6874 0.65937 0.67205 0.0
H348 H 0.69144 0.65749 0.56769 0.0
H349 H 0.74126 0.76077 0.56045 0.0
H350 H 0.73792 0.76332 0.66482 0.0
H351 H 0.70487 0.6224 0.97239 0.0
H352 H 0.68879 0.65587 0.91919 0.0
H353 H 0.77498 0.69296 0.81733 0.0
H354 H 0.79001 0.6581 0.86802 0.0
H355 H 0.72975 0.68164 0.75172 0.0
H356 H 0.76363 0.73711 0.92851 0.0
H357 H 0.76623 0.74501 0.03245 0.0
H358 H 0.66629 0.7176 0.03494 0.0
H359 H 0.66291 0.70891 0.93121 0.0
C360 C 0.66882 0.78768 0.7256 0.0
C361 C 0.64255 0.76801 0.69043 0.0
C362 C 0.68821 0.77626 0.7474 0.0
C363 C 0.6813 0.74481 0.73516 0.0
C364 C 0.65578 0.72561 0.69813 0.0
C365 C 0.6368 0.7373 0.67531 0.0
C366 C 0.69802 0.73072 0.76658 0.0
C367 C 0.69918 0.73313 0.82616 0.0
C368 C 0.7102 0.71282 0.73925 0.0
C369 C 0.71213 0.71151 0.67632 0.0
C370 C 0.69928 0.68169 0.64823 0.0
C371 C 0.70141 0.6805 0.58905 0.0
C372 C 0.71648 0.70899 0.55744 0.0
C373 C 0.72947 0.73872 0.58497 0.0
C374 C 0.7274 0.74005 0.64414 0.0
C375 C 0.72035 0.63782 0.93876 0.0
C376 C 0.74863 0.63779 0.92423 0.0
C377 C 0.71131 0.65709 0.90865 0.0
C378 C 0.73098 0.67741 0.8649 0.0
C379 C 0.7594 0.67751 0.85084 0.0
C380 C 0.76799 0.65765 0.87989 0.0
C381 C 0.72135 0.69763 0.83229 0.0
C382 C 0.72131 0.69616 0.77258 0.0
C383 C 0.71112 0.71725 0.85941 0.0
C384 C 0.71297 0.72208 0.92205 0.0
C385 C 0.74213 0.73246 0.95128 0.0
C386 C 0.74374 0.73711 0.01018 0.0
C387 C 0.71642 0.73172 0.04031 0.0
C388 C 0.68742 0.7217 0.01159 0.0
C389 C 0.68565 0.71691 0.95273 0.0
H390 H 0.71775 0.73539 0.08589 0.0
H391 H 0.71817 0.70802 0.51165 0.0
H392 H 0.11375 0.76072 0.19651 0.0
H393 H 0.06344 0.75181 0.15552 0.0
H394 H 0.0232 0.74057 0.32384 0.0
H395 H 0.0734 0.7481 0.36522 0.0
H396 H 0.98221 0.69543 0.26031 0.0
H397 H 0.04288 0.80852 0.23742 0.0
H398 H 0.0894 0.86123 0.21209 0.0
H399 H 0.0794 0.83261 0.03678 0.0
H400 H 0.0331 0.77955 0.0611 0.0
H401 H 0.84164 0.67083 0.12635 0.0
H402 H 0.8916 0.70615 0.17693 0.0
H403 H 0.94613 0.69646 0.04065 0.0
H404 H 0.89624 0.66053 0.99012 0.0
H405 H 0.97655 0.76011 0.10038 0.0
H406 H 0.92525 0.643 0.13415 0.0
H407 H 0.87752 0.59098 0.15924 0.0
H408 H 0.86916 0.63072 0.31758 0.0
H409 H 0.91671 0.68311 0.29306 0.0
C410 C 0.0943 0.75662 0.2249 0.0
C411 C 0.09744 0.75506 0.28406 0.0
C412 C 0.06561 0.75185 0.20141 0.0
C413 C 0.03973 0.74625 0.23663 0.0
C414 C 0.04294 0.74507 0.29588 0.0
C415 C 0.07154 0.7493 0.31944 0.0
C416 C 0.00862 0.73894 0.21084 0.0
C417 C 0.98092 0.71015 0.22649 0.0
C418 C 0.00681 0.75792 0.16626 0.0
C419 C 0.03454 0.78995 0.15119 0.0
C420 C 0.05069 0.81338 0.1935 0.0
C421 C 0.07703 0.84334 0.17931 0.0
C422 C 0.08737 0.85025 0.12287 0.0
C423 C 0.07135 0.82723 0.08048 0.0
C424 C 0.04501 0.79722 0.09444 0.0
C425 C 0.86427 0.67671 0.10654 0.0
C426 C 0.86505 0.6621 0.05519 0.0
C427 C 0.89275 0.69714 0.13527 0.0
C428 C 0.92231 0.70343 0.11269 0.0
C429 C 0.92341 0.69179 0.05855 0.0
C430 C 0.89489 0.67113 0.02993 0.0
C431 C 0.95101 0.71662 0.14935 0.0
C432 C 0.97801 0.74621 0.13549 0.0
C433 C 0.9522 0.69868 0.19605 0.0
C434 C 0.92435 0.66695 0.21166 0.0
C435 C 0.91317 0.64064 0.17425 0.0
C436 C 0.88619 0.61111 0.18835 0.0
C437 C 0.87037 0.60757 0.23998 0.0
C438 C 0.88151 0.63351 0.27765 0.0
C439 C 0.90848 0.66311 0.26372 0.0
H440 H 0.84949 0.58472 0.25077 0.0
H441 H 0.10777 0.87346 0.11198 0.0
H442 H 0.33076 0.08884 0.6777 0.0
H443 H 0.29441 0.0348 0.64046 0.0
H444 H 0.32682 0.06908 0.46978 0.0
H445 H 0.36192 0.12306 0.50665 0.0
H446 H 0.26589 0.0301 0.46706 0.0
H447 H 0.35586 0.02747 0.55111 0.0
H448 H 0.39403 0.03331 0.62685 0.0
H449 H 0.31595 0.96315 0.72844 0.0
H450 H 0.27726 0.95724 0.65357 0.0
H451 H 0.23967 0.8858 0.33136 0.0
H452 H 0.26085 0.93925 0.3734 0.0
H453 H 0.20738 0.8963 0.52715 0.0
H454 H 0.18571 0.84285 0.48532 0.0
H455 H 0.2735 0.93784 0.54368 0.0
H456 H 0.18478 0.93716 0.44732 0.0
H457 H 0.15043 0.93074 0.36455 0.0
H458 H 0.2314 0.00719 0.27781 0.0
H459 H 0.26637 0.01376 0.35973 0.0
C460 C 0.32987 0.08476 0.63224 0.0
C461 C 0.34905 0.11005 0.59491 0.0
C462 C 0.30924 0.05394 0.61103 0.0
C463 C 0.30824 0.04781 0.5524 0.0
C464 C 0.32705 0.07325 0.51514 0.0
C465 C 0.34713 0.10412 0.5362 0.0
C466 C 0.28841 0.01484 0.52959 0.0
C467 C 0.26772 0.00997 0.48361 0.0
C468 C 0.29042 0.98847 0.55175 0.0
C469 C 0.31362 0.99224 0.59707 0.0
C470 C 0.3468 0.01353 0.58983 0.0
C471 C 0.36854 0.01681 0.63256 0.0
C472 C 0.35741 -0.00129 0.68252 0.0
C473 C 0.32453 0.97723 0.68979 0.0
C474 C 0.30268 0.97391 0.64723 0.0
C475 C 0.23202 0.88774 0.37377 0.0
C476 C 0.21142 0.86011 0.4054 0.0
C477 C 0.24404 0.91826 0.39759 0.0
C478 C 0.2356 0.92153 0.45326 0.0
C479 C 0.21414 0.89411 0.48414 0.0
C480 C 0.20193 0.86363 0.46023 0.0
C481 C 0.25141 0.95333 0.48097 0.0
C482 C 0.27138 0.95793 0.52779 0.0
C483 C 0.24931 0.97954 0.4587 0.0
C484 C 0.22824 0.97579 0.40955 0.0
C485 C 0.19532 0.95244 0.41043 0.0
C486 C 0.17573 0.94881 0.36369 0.0
C487 C 0.18874 0.9685 0.31591 0.0
C488 C 0.22136 0.99194 0.31484 0.0
C489 C 0.24106 0.99566 0.36145 0.0
H490 H 0.17353 0.96564 0.27976 0.0
H491 H 0.37427 0.00126 0.71553 0.0
H492 H 0.14497 0.36304 0.7397 0.0
H493 H 0.15729 0.36259 0.63821 0.0
H494 H 0.22492 0.46468 0.64559 0.0
H495 H 0.2125 0.46493 0.74686 0.0
H496 H 0.1879 0.44492 0.54447 0.0
H497 H 0.25258 0.4166 0.6615 0.0
H498 H 0.26064 0.38488 0.73553 0.0
H499 H 0.20584 0.29879 0.63717 0.0
H500 H 0.19692 0.32993 0.56296 0.0
H501 H 0.28729 0.46744 0.30862 0.0
H502 H 0.27192 0.4647 0.40914 0.0
H503 H 0.20473 0.36301 0.39095 0.0
H504 H 0.22009 0.36596 0.29046 0.0
H505 H 0.23946 0.38052 0.49651 0.0
H506 H 0.1755 0.40874 0.37862 0.0
H507 H 0.16683 0.4403 0.30502 0.0
H508 H 0.21973 0.52606 0.40503 0.0
H509 H 0.22916 0.49511 0.47886 0.0
C510 C 0.16183 0.38538 0.71894 0.0
C511 C 0.17804 0.41397 0.75037 0.0
C512 C 0.16899 0.38512 0.66141 0.0
C513 C 0.19228 0.41355 0.63481 0.0
C514 C 0.20694 0.44252 0.66546 0.0
C515 C 0.19999 0.44267 0.72303 0.0
C516 C 0.20328 0.41275 0.57647 0.0
C517 C 0.1994 0.43106 0.53402 0.0
C518 C 0.21781 0.39422 0.56296 0.0
C519 C 0.22377 0.37555 0.60693 0.0
C520 C 0.24204 0.39087 0.65581 0.0
C521 C 0.24679 0.373 0.69779 0.0
C522 C 0.23369 0.33983 0.69111 0.0
C523 C 0.21594 0.32448 0.6423 0.0
C524 C 0.21103 0.34223 0.60026 0.0
C525 C 0.26989 0.44448 0.32681 0.0
C526 C 0.25467 0.41694 0.29251 0.0
C527 C 0.26099 0.44292 0.38379 0.0
C528 C 0.23696 0.4137 0.40704 0.0
C529 C 0.22328 0.38573 0.37366 0.0
C530 C 0.23194 0.38741 0.31657 0.0
C531 C 0.22431 0.4129 0.46465 0.0
C532 C 0.22785 0.39426 0.50692 0.0
C533 C 0.2094 0.43108 0.47801 0.0
C534 C 0.20335 0.44967 0.43401 0.0
C535 C 0.18552 0.43438 0.38472 0.0
C536 C 0.18044 0.45214 0.34298 0.0
C537 C 0.19287 0.48518 0.35026 0.0
C538 C 0.21021 0.50048 0.39942 0.0
C539 C 0.21541 0.48284 0.44124 0.0
H540 H 0.18902 0.49893 0.3179 0.0
H541 H 0.23732 0.32603 0.72373 0.0
H542 H 0.72088 0.18002 0.03796 0.0
H543 H 0.73345 0.19178 0.9364 0.0
H544 H 0.81916 0.18514 0.9591 0.0
H545 H 0.80647 0.17352 0.06037 0.0
H546 H 0.83233 0.24128 0.91088 0.0
H547 H 0.75679 0.1293 0.8822 0.0
H548 H 0.7049 0.07873 0.89127 0.0
H549 H 0.6569 0.12217 0.80651 0.0
H550 H 0.70846 0.17317 0.79763 0.0
H551 H 0.8746 0.2512 0.61635 0.0
H552 H 0.86179 0.23796 0.71748 0.0
H553 H 0.7754 0.24354 0.69636 0.0
H554 H 0.78827 0.25651 0.59546 0.0
H555 H 0.76275 0.18749 0.74367 0.0
H556 H 0.8382 0.29963 0.77336 0.0
H557 H 0.89008 0.35023 0.7645 0.0
H558 H 0.93822 0.30645 0.84759 0.0
H559 H 0.88667 0.25542 0.85625 0.0
C560 C 0.74185 0.18027 0.02052 0.0
C561 C 0.76302 0.17637 0.05624 0.0
C562 C 0.74907 0.187 0.96287 0.0
C563 C 0.77734 0.18949 0.94051 0.0
C564 C 0.7974 0.18358 0.97574 0.0
C565 C 0.7902 0.17695 0.03324 0.0
C566 C 0.78753 0.20106 0.88187 0.0
C567 C 0.81736 0.22925 0.87414 0.0
C568 C 0.76752 0.18581 0.83443 0.0
C569 C 0.73646 0.15517 0.83977 0.0
C570 C 0.73513 0.12817 0.86595 0.0
C571 C 0.70578 0.0994 0.87096 0.0
C572 C 0.67761 0.09726 0.84961 0.0
C573 C 0.67874 0.12387 0.82309 0.0
C574 C 0.70802 0.15271 0.81801 0.0
C575 C 0.85341 0.25037 0.63408 0.0
C576 C 0.83217 0.25446 0.59888 0.0
C577 C 0.84604 0.24278 0.69147 0.0
C578 C 0.81756 0.23964 0.71415 0.0
C579 C 0.79733 0.2456 0.67947 0.0
C580 C 0.80466 0.25305 0.62221 0.0
C581 C 0.80752 0.22774 0.77271 0.0
C582 C 0.77773 0.19949 0.78041 0.0
C583 C 0.82756 0.24293 0.82015 0.0
C584 C 0.85861 0.27359 0.81492 0.0
C585 C 0.85989 0.3007 0.78928 0.0
C586 C 0.88923 0.32948 0.78439 0.0
C587 C 0.91744 0.33153 0.80532 0.0
C588 C 0.91636 0.30481 0.83132 0.0
C589 C 0.88708 0.27596 0.83627 0.0
H590 H 0.94013 0.35384 0.80151 0.0
H591 H 0.65491 0.07497 0.85351 0.0
H592 H 0.60734 0.79918 0.39199 0.0
H593 H 0.6128 0.81357 0.29084 0.0
H594 H 0.52243 0.72722 0.25598 0.0
H595 H 0.517 0.71302 0.35794 0.0
H596 H 0.5755 0.74379 0.17491 0.0
H597 H 0.52034 0.79184 0.272 0.0
H598 H 0.51658 0.82464 0.34908 0.0
H599 H 0.60447 0.90677 0.29284 0.0
H600 H 0.60924 0.87433 0.21626 0.0
H601 H 0.55022 0.78299 0.90365 0.0
H602 H 0.54195 0.76776 0.003 0.0
H603 H 0.61609 0.86363 0.04996 0.0
H604 H 0.62246 0.87987 0.94958 0.0
H605 H 0.5712 0.84226 0.12648 0.0
H606 H 0.63158 0.80038 0.03887 0.0
H607 H 0.64533 0.77123 0.96827 0.0
H608 H 0.55915 0.68305 0.00994 0.0
H609 H 0.54474 0.71173 0.08052 0.0
C610 C 0.58893 0.78324 0.36233 0.0
C611 C 0.56156 0.75536 0.38192 0.0
C612 C 0.592 0.79139 0.30497 0.0
C613 C 0.56777 0.77165 0.26647 0.0
C614 C 0.54125 0.74274 0.28541 0.0
C615 C 0.53814 0.73464 0.34314 0.0
C616 C 0.56945 0.78231 0.20715 0.0
C617 C 0.57398 0.76495 0.16395 0.0
C618 C 0.56893 0.81078 0.19382 0.0
C619 C 0.56526 0.83057 0.23854 0.0
C620 C 0.53895 0.81685 0.27619 0.0
C621 C 0.53663 0.83537 0.3198 0.0
C622 C 0.56024 0.86773 0.32583 0.0
C623 C 0.58619 0.88169 0.28812 0.0
C624 C 0.58871 0.86325 0.24459 0.0
C625 C 0.56358 0.80142 0.93492 0.0
C626 C 0.58622 0.83306 0.91871 0.0
C627 C 0.55946 0.79237 0.99192 0.0
C628 C 0.57884 0.81434 0.03388 0.0
C629 C 0.60088 0.84623 0.01825 0.0
C630 C 0.60454 0.8555 0.96107 0.0
C631 C 0.57688 0.80351 0.09353 0.0
C632 C 0.57244 0.82091 0.13701 0.0
C633 C 0.57854 0.77561 0.10741 0.0
C634 C 0.58692 0.75828 0.0646 0.0
C635 C 0.61543 0.77482 0.03266 0.0
C636 C 0.62338 0.75838 0.99273 0.0
C637 C 0.60308 0.72534 0.98452 0.0
C638 C 0.57483 0.70866 0.01631 0.0
C639 C 0.56678 0.72498 0.05635 0.0
H640 H 0.60929 0.71265 0.95362 0.0
H641 H 0.55841 0.88198 0.35969 0.0
H642 H 0.85048 0.57913 0.70198 0.0
H643 H 0.84188 0.58638 0.60119 0.0
H644 H 0.76909 0.6095 0.64975 0.0
H645 H 0.78037 0.60585 0.74946 0.0
H646 H 0.79536 0.55589 0.53591 0.0
H647 H 0.75649 0.65275 0.55736 0.0
H648 H 0.77004 0.70039 0.61642 0.0
H649 H 0.86367 0.71333 0.64991 0.0
H650 H 0.85091 0.66603 0.59064 0.0
H651 H 0.70732 0.54702 0.29342 0.0
H652 H 0.72252 0.55172 0.3943 0.0
H653 H 0.80495 0.64548 0.36174 0.0
H654 H 0.78888 0.64121 0.26171 0.0
H655 H 0.78062 0.64468 0.46294 0.0
H656 H 0.81311 0.58022 0.36182 0.0
H657 H 0.80639 0.53619 0.29881 0.0
H658 H 0.73999 0.4664 0.41716 0.0
H659 H 0.74574 0.50998 0.48041 0.0
C660 C 0.83303 0.58619 0.69067 0.0
C661 C 0.81519 0.59072 0.7331 0.0
C662 C 0.82796 0.59016 0.63329 0.0
C663 C 0.80488 0.59864 0.61754 0.0
C664 C 0.7875 0.60364 0.66033 0.0
C665 C 0.79335 0.60073 0.71742 0.0
C666 C 0.79781 0.60084 0.55661 0.0
C667 C 0.79238 0.57546 0.52006 0.0
C668 C 0.79449 0.62667 0.53519 0.0
C669 C 0.80264 0.65567 0.56983 0.0
C670 C 0.78005 0.66587 0.577 0.0
C671 C 0.78755 0.69277 0.61062 0.0
C672 C 0.81763 0.7098 0.63698 0.0
C673 C 0.84034 0.70006 0.62961 0.0
C674 C 0.83298 0.67318 0.59607 0.0
C675 C 0.72815 0.56888 0.30845 0.0
C676 C 0.74742 0.59345 0.27015 0.0
C677 C 0.737 0.57147 0.36568 0.0
C678 C 0.76532 0.59862 0.38508 0.0
C679 C 0.78321 0.62421 0.34756 0.0
C680 C 0.77422 0.62167 0.2905 0.0
C681 C 0.77745 0.5994 0.44333 0.0
C682 C 0.78385 0.62531 0.47908 0.0
C683 C 0.78292 0.57474 0.46337 0.0
C684 C 0.77965 0.54841 0.42569 0.0
C685 C 0.79689 0.5555 0.37427 0.0
C686 C 0.79328 0.53063 0.3385 0.0
C687 C 0.77277 0.49856 0.35395 0.0
C688 C 0.75585 0.49127 0.40524 0.0
C689 C 0.75927 0.51604 0.44107 0.0
H690 H 0.77003 0.47935 0.32621 0.0
H691 H 0.82335 0.73057 0.66305 0.0
H692 H 0.14516 0.69138 0.63442 0.0
H693 H 0.16007 0.70302 0.73528 0.0
H694 H 0.16122 0.79316 0.71882 0.0
H695 H 0.14635 0.78136 0.61822 0.0
H696 H 0.21632 0.80153 0.76447 0.0
H697 H 0.10314 0.73172 0.79498 0.0
H698 H 0.05061 0.68187 0.78572 0.0
H699 H 0.08933 0.62797 0.86499 0.0
H700 H 0.14225 0.67745 0.87402 0.0
H701 H 0.22847 0.84326 0.05927 0.0
H702 H 0.21604 0.83145 0.95772 0.0
H703 H 0.2137 0.74098 0.97959 0.0
H704 H 0.22584 0.75292 0.08102 0.0
H705 H 0.16005 0.7323 0.93058 0.0
H706 H 0.27302 0.80265 0.90267 0.0
H707 H 0.32564 0.85247 0.91088 0.0
H708 H 0.28764 0.90554 0.82615 0.0
H709 H 0.23461 0.85613 0.81826 0.0
C710 C 0.14785 0.71321 0.65307 0.0
C711 C 0.14506 0.7357 0.61915 0.0
C712 C 0.15643 0.71992 0.71035 0.0
C713 C 0.1619 0.74905 0.73432 0.0
C714 C 0.15739 0.77071 0.70095 0.0
C715 C 0.1489 0.764 0.64381 0.0
C716 C 0.17444 0.75801 0.79294 0.0
C717 C 0.20382 0.78666 0.80101 0.0
C718 C 0.15855 0.73804 0.84009 0.0
C719 C 0.12676 0.70824 0.83461 0.0
C720 C 0.10054 0.70919 0.80997 0.0
C721 C 0.07067 0.68101 0.80486 0.0
C722 C 0.06666 0.65176 0.8246 0.0
C723 C 0.09249 0.65064 0.84963 0.0
C724 C 0.12242 0.67875 0.85479 0.0
C725 C 0.22607 0.82132 0.04171 0.0
C726 C 0.22763 0.79871 0.07733 0.0
C727 C 0.21899 0.81455 0.98396 0.0
C728 C 0.21386 0.78528 0.9612 0.0
C729 C 0.21735 0.76358 0.99637 0.0
C730 C 0.22428 0.77034 0.054 0.0
C731 C 0.20195 0.77593 0.90228 0.0
C732 C 0.17264 0.74718 0.89411 0.0
C733 C 0.21792 0.79585 0.85506 0.0
C734 C 0.24971 0.82571 0.86043 0.0
C735 C 0.27576 0.825 0.88634 0.0
C736 C 0.3057 0.85316 0.89083 0.0
C737 C 0.30995 0.88216 0.86921 0.0
C738 C 0.28429 0.88306 0.84299 0.0
C739 C 0.25429 0.85498 0.83848 0.0
H740 H 0.33316 0.90393 0.87265 0.0
H741 H 0.04351 0.62997 0.82063 0.0
H742 H 0.35558 0.18814 0.39141 0.0
H743 H 0.35189 0.17407 0.29031 0.0
H744 H 0.43997 0.26322 0.25801 0.0
H745 H 0.44348 0.2772 0.35957 0.0
H746 H 0.39393 0.24547 0.16994 0.0
H747 H 0.44444 0.19734 0.28208 0.0
H748 H 0.44572 0.16492 0.36251 0.0
H749 H 0.35844 0.08313 0.30268 0.0
H750 H 0.35661 0.11514 0.22196 0.0
H751 H 0.4605 0.21331 0.9317 0.0
H752 H 0.45257 0.22294 0.03144 0.0
H753 H 0.36221 0.1335 0.03398 0.0
H754 H 0.37014 0.124 0.93382 0.0
H755 H 0.40247 0.14798 0.13529 0.0
H756 H 0.35576 0.19257 0.01547 0.0
H757 H 0.35189 0.224 0.93609 0.0
H758 H 0.42654 0.31123 0.01082 0.0
H759 H 0.43203 0.28023 0.08948 0.0
C760 C 0.37384 0.2048 0.36234 0.0
C761 C 0.40012 0.23337 0.38273 0.0
C762 C 0.3717 0.19685 0.30484 0.0
C763 C 0.39599 0.21734 0.26702 0.0
C764 C 0.42106 0.24707 0.28665 0.0
C765 C 0.42309 0.25505 0.34433 0.0
C766 C 0.3969 0.20639 0.20858 0.0
C767 C 0.3961 0.22437 0.1622 0.0
C768 C 0.39863 0.17819 0.1988 0.0
C769 C 0.40026 0.15868 0.24628 0.0
C770 C 0.42549 0.17246 0.28617 0.0
C771 C 0.42633 0.15416 0.33178 0.0
C772 C 0.40211 0.12203 0.33783 0.0
C773 C 0.37716 0.10804 0.29799 0.0
C774 C 0.37626 0.12621 0.25221 0.0
C775 C 0.43914 0.19573 0.9539 0.0
C776 C 0.41562 0.16834 0.92535 0.0
C777 C 0.43458 0.20124 0.01041 0.0
C778 C 0.40644 0.17938 0.03917 0.0
C779 C 0.38393 0.15077 0.01209 0.0
C780 C 0.38849 0.1453 0.95528 0.0
C781 C 0.40023 0.18747 0.09659 0.0
C782 C 0.40005 0.16896 0.14283 0.0
C783 C 0.39731 0.21504 0.10606 0.0
C784 C 0.39466 0.23391 0.05813 0.0
C785 C 0.37186 0.21838 0.01452 0.0
C786 C 0.36938 0.23613 0.96959 0.0
C787 C 0.38922 0.26955 0.96813 0.0
C788 C 0.4115 0.28529 0.0117 0.0
C789 C 0.41435 0.26762 0.05643 0.0
H790 H 0.38715 0.28329 0.9335 0.0
H791 H 0.40271 0.10795 0.37331 0.0
H792 H 0.19783 0.47165 0.17462 0.0
H793 H 0.18121 0.50745 0.21613 0.0
H794 H 0.14355 0.51502 0.05367 0.0
H795 H 0.16081 0.47964 0.0112 0.0
H796 H 0.18377 0.57266 0.09791 0.0
H797 H 0.09144 0.47607 0.16764 0.0
H798 H 0.06363 0.42319 0.21551 0.0
H799 H 0.11642 0.46598 0.36906 0.0
H800 H 0.14416 0.5192 0.32248 0.0
H801 H 0.14247 0.68162 0.20875 0.0
H802 H 0.13451 0.63162 0.16663 0.0
H803 H 0.16659 0.60932 0.32302 0.0
H804 H 0.17291 0.65869 0.36613 0.0
H805 H 0.12246 0.55586 0.27665 0.0
H806 H 0.21867 0.64923 0.20855 0.0
H807 H 0.25078 0.70251 0.1634 0.0
H808 H 0.19643 0.66613 0.00899 0.0
H809 H 0.16371 0.61271 0.05348 0.0
C810 C 0.18577 0.48069 0.14773 0.0
C811 C 0.18096 0.47315 0.08945 0.0
C812 C 0.1759 0.50083 0.17176 0.0
C813 C 0.16079 0.51356 0.13816 0.0
C814 C 0.15505 0.50529 0.08034 0.0
C815 C 0.16498 0.48516 0.05616 0.0
C816 C 0.15449 0.53835 0.16202 0.0
C817 C 0.16964 0.56876 0.13617 0.0
C818 C 0.13707 0.5335 0.21307 0.0
C819 C 0.11998 0.5016 0.24147 0.0
C820 C 0.09716 0.47419 0.21158 0.0
C821 C 0.08137 0.44417 0.23851 0.0
C822 C 0.08842 0.44119 0.29512 0.0
C823 C 0.11097 0.46831 0.32519 0.0
C824 C 0.12657 0.49845 0.29868 0.0
C825 C 0.14741 0.66577 0.23419 0.0
C826 C 0.15883 0.67403 0.29012 0.0
C827 C 0.14289 0.63727 0.21019 0.0
C828 C 0.15087 0.61721 0.2411 0.0
C829 C 0.16046 0.62454 0.29826 0.0
C830 C 0.16416 0.6527 0.32281 0.0
C831 C 0.15184 0.59021 0.21254 0.0
C832 C 0.13594 0.55953 0.23767 0.0
C833 C 0.16906 0.59488 0.16118 0.0
C834 C 0.18855 0.62707 0.13452 0.0
C835 C 0.21341 0.65266 0.16511 0.0
C836 C 0.23173 0.68287 0.13962 0.0
C837 C 0.22564 0.68768 0.08337 0.0
C838 C 0.20112 0.66234 0.05256 0.0
C839 C 0.18269 0.6321 0.07787 0.0
H840 H 0.24003 0.71098 0.06354 0.0
H841 H 0.07633 0.41789 0.31572 0.0
H842 H 0.69075 0.20644 0.3119 0.0
H843 H 0.64102 0.19945 0.35466 0.0
H844 H 0.66462 0.17028 0.51273 0.0
H845 H 0.71445 0.17769 0.47048 0.0
H846 H 0.59708 0.13357 0.47978 0.0
H847 H 0.68466 0.24125 0.50358 0.0
H848 H 0.72943 0.29442 0.4756 0.0
H849 H 0.66414 0.31231 0.37864 0.0
H850 H 0.61942 0.25859 0.40317 0.0
H851 H 0.49933 0.17032 0.66358 0.0
H852 H 0.54314 0.16514 0.62122 0.0
H853 H 0.53164 0.20442 0.46355 0.0
H854 H 0.48827 0.20985 0.50519 0.0
H855 H 0.59362 0.23461 0.50088 0.0
H856 H 0.50638 0.12596 0.47396 0.0
H857 H 0.46108 0.07395 0.50584 0.0
H858 H 0.5248 0.05961 0.61442 0.0
H859 H 0.57043 0.11182 0.58384 0.0
C860 C 0.68499 0.19807 0.35544 0.0
C861 C 0.7065 0.19312 0.38839 0.0
C862 C 0.65671 0.19411 0.37975 0.0
C863 C 0.64945 0.18461 0.43687 0.0
C864 C 0.66993 0.17768 0.46863 0.0
C865 C 0.69846 0.18224 0.44471 0.0
C866 C 0.62211 0.18476 0.46493 0.0
C867 C 0.59633 0.15564 0.48482 0.0
C868 C 0.62135 0.21364 0.47124 0.0
C869 C 0.64871 0.24552 0.45437 0.0
C870 C 0.67997 0.25615 0.47506 0.0
C871 C 0.70541 0.28646 0.45979 0.0
C872 C 0.69977 0.30666 0.42481 0.0
C873 C 0.66869 0.29655 0.40501 0.0
C874 C 0.6433 0.26608 0.41932 0.0
C875 C 0.50608 0.17771 0.61983 0.0
C876 C 0.49055 0.19075 0.58789 0.0
C877 C 0.53094 0.17456 0.59566 0.0
C878 C 0.54045 0.18431 0.53927 0.0
C879 C 0.52464 0.19683 0.50718 0.0
C880 C 0.49989 0.19995 0.53115 0.0
C881 C 0.5681 0.18334 0.5142 0.0
C882 C 0.5942 0.21246 0.49545 0.0
C883 C 0.5691 0.15452 0.50911 0.0
C884 C 0.54176 0.12297 0.52706 0.0
C885 C 0.51069 0.11185 0.50499 0.0
C886 C 0.48496 0.08231 0.52276 0.0
C887 C 0.49004 0.06353 0.56225 0.0
C888 C 0.52089 0.07421 0.5839 0.0
C889 C 0.5467 0.10376 0.56633 0.0
H890 H 0.47009 0.04067 0.57599 0.0
H891 H 0.71943 0.33023 0.41345 0.0
H892 H 0.33015 0.51272 0.04105 0.0
H893 H 0.37819 0.5589 -0.00019 0.0
H894 H 0.32875 0.54288 0.83932 0.0
H895 H 0.28089 0.49764 0.87995 0.0
H896 H 0.39201 0.5506 0.83252 0.0
H897 H 0.33446 0.59989 0.91665 0.0
H898 H 0.30965 0.61277 0.99658 0.0
H899 H 0.40011 0.65851 0.08522 0.0
H900 H 0.42534 0.64547 0.00607 0.0
H901 H 0.4759 0.68874 0.66211 0.0
H902 H 0.43638 0.64256 0.71737 0.0
H903 H 0.49063 0.68562 0.87082 0.0
H904 H 0.52959 0.73216 0.81615 0.0
H905 H 0.43029 0.66337 0.89115 0.0
H906 H 0.4902 0.62041 0.80564 0.0
H907 H 0.51651 0.60742 0.72846 0.0
H908 H 0.42504 0.54921 0.64698 0.0
H909 H 0.39822 0.56223 0.72325 0.0
C910 C 0.32954 0.51918 0.99707 0.0
C911 C 0.30176 0.50145 0.9637 0.0
C912 C 0.35694 0.54546 0.97365 0.0
C913 C 0.3569 0.55402 0.91653 0.0
C914 C 0.32924 0.53642 0.88336 0.0
C915 C 0.30187 0.5106 0.9068 0.0
C916 C 0.38541 0.58146 0.89053 0.0
C917 C 0.40042 0.57531 0.84506 0.0
C918 C 0.39684 0.61347 0.90837 0.0
C919 C 0.38167 0.62133 0.95582 0.0
C920 C 0.34897 0.6124 0.95344 0.0
C921 C 0.33485 0.6198 -0.00146 0.0
C922 C 0.35326 0.63634 0.04605 0.0
C923 C 0.38586 0.64562 0.04846 0.0
C924 C 0.40008 0.63824 0.0035 0.0
C925 C 0.47942 0.68824 0.70757 0.0
C926 C 0.50568 0.71407 0.73486 0.0
C927 C 0.45695 0.6618 0.73909 0.0
C928 C 0.46078 0.66044 0.79819 0.0
C929 C 0.48716 0.68616 0.82534 0.0
C930 C 0.50937 0.71274 0.79401 0.0
C931 C 0.43664 0.6327 0.83189 0.0
C932 C 0.42241 0.63872 0.87892 0.0
C933 C 0.42623 0.60051 0.81595 0.0
C934 C 0.44223 0.59251 0.77 0.0
C935 C 0.47572 0.60502 0.77106 0.0
C936 C 0.49072 0.59763 0.7275 0.0
C937 C 0.47247 0.57755 0.68279 0.0
C938 C 0.43916 0.56478 0.68162 0.0
C939 C 0.42403 0.57212 0.72505 0.0
H940 H 0.48413 0.57185 0.64911 0.0
H941 H 0.34229 0.64206 0.08091 0.0
H942 H 0.8095 0.32384 0.35664 0.0
H943 H 0.81592 0.37504 0.32198 0.0
H944 H 0.83038 0.35157 0.15156 0.0
H945 H 0.82293 0.30002 0.18545 0.0
H946 H 0.87455 0.41937 0.19133 0.0
H947 H 0.76338 0.33633 0.17308 0.0
H948 H 0.71041 0.29275 0.20481 0.0
H949 H 0.70348 0.35739 0.32248 0.0
H950 H 0.75697 0.40094 0.29313 0.0
H951 H 0.83076 0.51011 0.00779 0.0
H952 H 0.84098 0.47137 0.05779 0.0
H953 H 0.80659 0.49052 0.21411 0.0
H954 H 0.79609 0.52896 0.16458 0.0
H955 H 0.77566 0.42764 0.18885 0.0
H956 H 0.88455 0.51257 0.20003 0.0
H957 H 0.93612 0.55674 0.16423 0.0
H958 H 0.94669 0.4904 0.05669 0.0
H959 H 0.89486 0.44587 0.0911 0.0
C960 C 0.81437 0.32982 0.31193 0.0
C961 C 0.81548 0.308 0.27356 0.0
C962 C 0.81807 0.35898 0.29229 0.0
C963 C 0.82367 0.36693 0.23434 0.0
C964 C 0.82624 0.34582 0.19646 0.0
C965 C 0.82173 0.31636 0.21578 0.0
C966 C 0.82417 0.39594 0.21226 0.0
C967 C 0.85298 0.42127 0.19047 0.0
C968 C 0.79608 0.3984 0.21222 0.0
C969 C 0.76451 0.37174 0.23174 0.0
C970 C 0.75092 0.34105 0.2067 0.0
C971 C 0.72072 0.31634 0.22415 0.0
C972 C 0.70364 0.32217 0.26593 0.0
C973 C 0.71679 0.35272 0.2905 0.0
C974 C 0.74712 0.37741 0.27364 0.0
C975 C 0.82588 0.50644 0.05299 0.0
C976 C 0.81214 0.52216 0.08202 0.0
C977 C 0.83189 0.48445 0.08157 0.0
C978 C 0.82452 0.47811 0.13962 0.0
C979 C 0.81232 0.495 0.16924 0.0
C980 C 0.80625 0.51687 0.14077 0.0
C981 C 0.82609 0.45138 0.16787 0.0
C982 C 0.7975 0.42622 0.19054 0.0
C983 C 0.85438 0.44919 0.16854 0.0
C984 C 0.88564 0.47589 0.14783 0.0
C985 C 0.89771 0.50742 0.16837 0.0
C986 C 0.92702 0.53253 0.14839 0.0
C987 C 0.94464 0.5264 0.10813 0.0
C988 C 0.933 0.49512 0.08785 0.0
C989 C 0.90366 0.46992 0.10762 0.0
H990 H 0.96734 0.54587 0.09272 0.0
H991 H 0.68012 0.30308 0.27888 0.0
H992 H 0.25465 0.76521 0.49694 0.0
H993 H 0.30645 0.77836 0.53851 0.0
H994 H 0.35257 0.81437 0.37624 0.0
H995 H 0.30074 0.80099 0.334 0.0
H996 H 0.37236 0.77658 0.42689 0.0
H997 H 0.35987 0.86609 0.4798 0.0
H998 H 0.33192 0.89264 0.52082 0.0
H999 H 0.33042 0.85197 0.68439 0.0
H1000 H 0.35796 0.82478 0.64415 0.0
H1001 H 0.52875 0.84169 0.52453 0.0
H1002 H 0.48217 0.84325 0.48646 0.0
H1003 H 0.43311 0.80841 0.64697 0.0
H1004 H 0.4805 0.8082 0.68591 0.0
H1005 H 0.41576 0.84797 0.59568 0.0
H1006 H 0.42672 0.75705 0.54177 0.0
H1007 H 0.45618 0.7319 0.50145 0.0
H1008 H 0.45978 0.77452 0.33895 0.0
H1009 H 0.43124 0.8008 0.37876 0.0
C1010 C 0.27576 0.77578 0.46994 0.0
C1011 C 0.2736 0.78209 0.41214 0.0
C1012 C 0.30538 0.78347 0.4939 0.0
C1013 C 0.33338 0.79776 0.46062 0.0
C1014 C 0.33123 0.80348 0.40267 0.0
C1015 C 0.30161 0.79583 0.37864 0.0
C1016 C 0.36487 0.80635 0.48621 0.0
C1017 C 0.3821 0.79257 0.46323 0.0
C1018 C 0.37715 0.82669 0.53439 0.0
C1019 C 0.36073 0.84316 0.55881 0.0
C1020 C 0.35336 0.8626 0.52442 0.0
C1021 C 0.33763 0.8778 0.54755 0.0
C1022 C 0.32934 0.87394 0.60514 0.0
C1023 C 0.33683 0.85491 0.63976 0.0
C1024 C 0.35253 0.83963 0.61683 0.0
C1025 C 0.50834 0.83528 0.55206 0.0
C1026 C 0.50778 0.82446 0.60772 0.0
C1027 C 0.48177 0.8361 0.53033 0.0
C1028 C 0.45386 0.825 0.56337 0.0
C1029 C 0.45435 0.81684 0.62067 0.0
C1030 C 0.48133 0.81674 0.6429 0.0
C1031 C 0.42323 0.81824 0.53628 0.0
C1032 C 0.4061 0.83215 0.5591 0.0
C1033 C 0.41093 0.79791 0.48796 0.0
C1034 C 0.42712 0.78118 0.46345 0.0
C1035 C 0.43396 0.76123 0.49752 0.0
C1036 C 0.45057 0.74683 0.47479 0.0
C1037 C 0.45999 0.75174 0.41774 0.0
C1038 C 0.45261 0.77088 0.38322 0.0
C1039 C 0.43627 0.78558 0.40587 0.0
H1040 H 0.47295 0.74067 0.40026 0.0
H1041 H 0.31718 0.88574 0.62297 0.0
H1042 H 0.71991 0.48132 0.89425 0.0
H1043 H 0.67165 0.44002 0.84649 0.0
H1044 H 0.61281 0.46317 0.95241 0.0
H1045 H 0.66128 0.50493 0.00044 0.0
H1046 H 0.58746 0.39732 0.93668 0.0
H1047 H 0.62953 0.49257 0.82234 0.0
H1048 H 0.67303 0.5392 0.77209 0.0
H1049 H 0.68586 0.47562 0.66097 0.0
H1050 H 0.64286 0.42857 0.7113 0.0
H1051 H 0.45093 0.29832 0.77116 0.0
H1052 H 0.49248 0.34747 0.81767 0.0
H1053 H 0.56441 0.34742 0.70759 0.0
H1054 H 0.52237 0.2996 0.65874 0.0
H1055 H 0.58046 0.40619 0.72728 0.0
H1056 H 0.54405 0.31193 0.84657 0.0
H1057 H 0.5038 0.26466 0.89999 0.0
H1058 H 0.48366 0.32571 0.00458 0.0
H1059 H 0.52313 0.37326 0.95061 0.0
C1060 C 0.69672 0.47764 0.90746 0.0
C1061 C 0.69437 0.49675 0.95027 0.0
C1062 C 0.66919 0.45403 0.88016 0.0
C1063 C 0.63882 0.44916 0.89504 0.0
C1064 C 0.63614 0.46687 0.94003 0.0
C1065 C 0.66378 0.49058 0.96749 0.0
C1066 C 0.61008 0.426 0.86245 0.0
C1067 C 0.58555 0.39949 0.89106 0.0
C1068 C 0.60809 0.42875 0.80281 0.0
C1069 C 0.63306 0.457 0.77087 0.0
C1070 C 0.64169 0.48851 0.78733 0.0
C1071 C 0.66629 0.51503 0.75886 0.0
C1072 C 0.68224 0.51038 0.71344 0.0
C1073 C 0.67349 0.47918 0.69619 0.0
C1074 C 0.64898 0.45257 0.72464 0.0
C1075 C 0.47555 0.30946 0.75622 0.0
C1076 C 0.48376 0.29561 0.71161 0.0
C1077 C 0.4993 0.33728 0.783 0.0
C1078 C 0.53177 0.35072 0.76719 0.0
C1079 C 0.5396 0.33753 0.7207 0.0
C1080 C 0.51569 0.31024 0.69287 0.0
C1081 C 0.55786 0.37691 0.80131 0.0
C1082 C 0.58202 0.40412 0.773 0.0
C1083 C 0.55971 0.37466 0.86129 0.0
C1084 C 0.53616 0.34606 0.89397 0.0
C1085 C 0.53078 0.31521 0.88057 0.0
C1086 C 0.50801 0.28834 0.91088 0.0
C1087 C 0.49079 0.2921 0.95518 0.0
C1088 C 0.49661 0.32276 0.96971 0.0
C1089 C 0.51917 0.34968 0.93926 0.0
H1090 H 0.47305 0.27134 0.97842 0.0
H1091 H 0.70135 0.53094 0.69158 0.0
loop_
_geom_bond_atom_site_label_1
_geom_bond_atom_site_label_2
_geom_bond_distance
_geom_bond_site_symmetry_2
_ccdc_geom_bond_type
Zn0 O1 2.055 . S
Zn0 O8 2.046 . S
Zn0 N16 2.036 . S
Zn0 O28 2.053 . S
Zn0 O30 2.066 . S
O1 Zn0 2.055 . S
O1 C4 1.259 . S
C2 O30 1.256 . S
C2 O31 1.244 1_554 S
Zn3 O5 2.046 . S
Zn3 O7 2.055 . S
Zn3 N9 2.036 . S
Zn3 O27 2.066 . S
Zn3 O31 2.053 . S
C4 O1 1.259 . S
C4 O5 1.254 1_554 S
O5 Zn3 2.046 . S
O5 C4 1.254 1_556 S
C6 O27 1.256 . S
C6 O28 1.244 1_556 S
O7 Zn3 2.055 . S
O7 C29 1.259 . S
O8 Zn0 2.046 . S
O8 C29 1.254 1_554 S
N9 Zn3 2.036 . S
N9 C10 1.298 . S
N9 N12 1.398 . S
C10 N9 1.298 . S
C10 N13 1.367 . S
C10 C23 1.481 . S
C11 N12 1.299 . S
C11 N13 1.379 . S
N12 N9 1.398 . S
N12 C11 1.299 . S
N13 C10 1.367 . S
N13 C11 1.379 . S
C14 N16 1.298 . S
C14 N18 1.367 . S
C14 C22 1.481 . S
C15 N17 1.299 . S
C15 N18 1.379 . S
N16 Zn0 2.036 . S
N16 C14 1.298 . S
N16 N17 1.398 . S
N17 C15 1.299 . S
N17 N16 1.398 . S
N18 C14 1.367 . S
N18 C15 1.379 . S
H19 C22 0.980 . S
H20 C22 0.981 . S
H21 C22 0.981 . S
C22 C14 1.481 . S
C22 H19 0.980 . S
C22 H20 0.981 . S
C22 H21 0.981 . S
C23 C10 1.481 . S
C23 H24 0.980 . S
C23 H25 0.981 . S
C23 H26 0.981 . S
H24 C23 0.980 . S
H25 C23 0.981 . S
H26 C23 0.981 . S
O27 Zn3 2.066 . S
O27 C6 1.256 . S
O28 Zn0 2.053 . S
O28 C6 1.244 1_554 S
C29 O7 1.259 . S
C29 O8 1.254 1_556 S
O30 Zn0 2.066 . S
O30 C2 1.256 . S
O31 C2 1.244 1_556 S
O31 Zn3 2.053 . S
Zn32 O33 2.055 . S
Zn32 O40 2.046 . S
Zn32 N48 2.036 . S
Zn32 O60 2.053 . S
Zn32 O62 2.066 . S
O33 Zn32 2.055 . S
O33 C36 1.259 . S
C34 O62 1.256 . S
C34 O63 1.244 . S
Zn35 O37 2.046 . S
Zn35 O39 2.055 . S
Zn35 N41 2.036 . S
Zn35 O59 2.066 . S
Zn35 O63 2.053 . S
C36 O33 1.259 . S
C36 O37 1.254 . S
O37 Zn35 2.046 . S
O37 C36 1.254 . S
C38 O59 1.256 . S
C38 O60 1.244 . S
O39 Zn35 2.055 . S
O39 C61 1.259 . S
O40 Zn32 2.046 . S
O40 C61 1.254 . S
N41 Zn35 2.036 . S
N41 C42 1.298 . S
N41 N44 1.398 . S
C42 N41 1.298 . S
C42 N45 1.367 . S
C42 C55 1.481 . S
C43 N44 1.299 . S
C43 N45 1.379 . S
N44 N41 1.398 . S
N44 C43 1.299 . S
N45 C42 1.367 . S
N45 C43 1.379 . S
C46 N48 1.298 . S
C46 N50 1.367 . S
C46 C54 1.481 . S
C47 N49 1.299 . S
C47 N50 1.379 . S
N48 Zn32 2.036 . S
N48 C46 1.298 . S
N48 N49 1.398 . S
N49 C47 1.299 . S
N49 N48 1.398 . S
N50 C46 1.367 . S
N50 C47 1.379 . S
H51 C54 0.980 . S
H52 C54 0.981 . S
H53 C54 0.981 . S
C54 C46 1.481 . S
C54 H51 0.980 . S
C54 H52 0.981 . S
C54 H53 0.981 . S
C55 C42 1.481 . S
C55 H56 0.980 . S
C55 H57 0.981 . S
C55 H58 0.981 . S
H56 C55 0.980 . S
H57 C55 0.981 . S
H58 C55 0.981 . S
O59 Zn35 2.066 . S
O59 C38 1.256 . S
O60 Zn32 2.053 . S
O60 C38 1.244 . S
C61 O39 1.259 . S
C61 O40 1.254 . S
O62 Zn32 2.066 . S
O62 C34 1.256 . S
O63 C34 1.244 . S
O63 Zn35 2.053 . S
Zn64 O65 2.055 . S
Zn64 O72 2.046 . S
Zn64 N80 2.036 . S
Zn64 O92 2.053 . S
Zn64 O94 2.066 . S
O65 Zn64 2.055 . S
O65 C68 1.259 . S
C66 O94 1.256 . S
C66 O95 1.244 . S
Zn67 O69 2.046 . S
Zn67 O71 2.055 . S
Zn67 N73 2.036 . S
Zn67 O91 2.066 . S
Zn67 O95 2.053 . S
C68 O65 1.259 . S
C68 O69 1.254 . S
O69 Zn67 2.046 . S
O69 C68 1.254 . S
C70 O91 1.256 . S
C70 O92 1.244 . S
O71 Zn67 2.055 . S
O71 C93 1.259 . S
O72 Zn64 2.046 . S
O72 C93 1.254 . S
N73 Zn67 2.036 . S
N73 C74 1.298 . S
N73 N76 1.398 . S
C74 N73 1.298 . S
C74 N77 1.367 . S
C74 C87 1.481 . S
C75 N76 1.299 . S
C75 N77 1.379 . S
N76 N73 1.398 . S
N76 C75 1.299 . S
N77 C74 1.367 . S
N77 C75 1.379 . S
C78 N80 1.298 . S
C78 N82 1.367 . S
C78 C86 1.481 . S
C79 N81 1.299 . S
C79 N82 1.379 . S
N80 Zn64 2.036 . S
N80 C78 1.298 . S
N80 N81 1.398 . S
N81 C79 1.299 . S
N81 N80 1.398 . S
N82 C78 1.367 . S
N82 C79 1.379 . S
H83 C86 0.980 . S
H84 C86 0.981 . S
H85 C86 0.981 . S
C86 C78 1.481 . S
C86 H83 0.980 . S
C86 H84 0.981 . S
C86 H85 0.981 . S
C87 C74 1.481 . S
C87 H88 0.980 . S
C87 H89 0.981 . S
C87 H90 0.981 . S
H88 C87 0.980 . S
H89 C87 0.981 . S
H90 C87 0.981 . S
O91 Zn67 2.066 . S
O91 C70 1.256 . S
O92 Zn64 2.053 . S
O92 C70 1.244 . S
C93 O71 1.259 . S
C93 O72 1.254 . S
O94 Zn64 2.066 . S
O94 C66 1.256 . S
O95 C66 1.244 . S
O95 Zn67 2.053 . S
Zn96 O97 2.055 . S
Zn96 O104 2.046 . S
Zn96 N112 2.036 . S
Zn96 O124 2.053 . S
Zn96 O126 2.066 . S
O97 Zn96 2.055 . S
O97 C100 1.259 . S
C98 O126 1.256 . S
C98 O127 1.244 1_556 S
Zn99 O101 2.046 . S
Zn99 O103 2.055 . S
Zn99 N105 2.036 . S
Zn99 O123 2.066 . S
Zn99 O127 2.053 . S
C100 O97 1.259 . S
C100 O101 1.254 1_556 S
O101 Zn99 2.046 . S
O101 C100 1.254 1_554 S
C102 O123 1.256 . S
C102 O124 1.244 1_554 S
O103 Zn99 2.055 . S
O103 C125 1.259 . S
O104 Zn96 2.046 . S
O104 C125 1.254 1_556 S
N105 Zn99 2.036 . S
N105 C106 1.298 . S
N105 N108 1.398 . S
C106 N105 1.298 . S
C106 N109 1.367 . S
C106 C119 1.481 . S
C107 N108 1.299 . S
C107 N109 1.379 . S
N108 N105 1.398 . S
N108 C107 1.299 . S
N109 C106 1.367 . S
N109 C107 1.379 . S
C110 N112 1.298 . S
C110 N114 1.367 . S
C110 C118 1.481 . S
C111 N113 1.299 . S
C111 N114 1.379 . S
N112 Zn96 2.036 . S
N112 C110 1.298 . S
N112 N113 1.398 . S
N113 C111 1.299 . S
N113 N112 1.398 . S
N114 C110 1.367 . S
N114 C111 1.379 . S
H115 C118 0.980 . S
H116 C118 0.981 . S
H117 C118 0.981 . S
C118 C110 1.481 . S
C118 H115 0.980 . S
C118 H116 0.981 . S
C118 H117 0.981 . S
C119 C106 1.481 . S
C119 H120 0.980 . S
C119 H121 0.981 . S
C119 H122 0.981 . S
H120 C119 0.980 . S
H121 C119 0.981 . S
H122 C119 0.981 . S
O123 Zn99 2.066 . S
O123 C102 1.256 . S
O124 Zn96 2.053 . S
O124 C102 1.244 1_556 S
C125 O103 1.259 . S
C125 O104 1.254 1_554 S
O126 Zn96 2.066 . S
O126 C98 1.256 . S
O127 C98 1.244 1_554 S
O127 Zn99 2.053 . S
Zn128 O129 2.055 . S
Zn128 O136 2.046 . S
Zn128 N144 2.036 . S
Zn128 O156 2.053 . S
Zn128 O158 2.066 . S
O129 Zn128 2.055 . S
O129 C132 1.259 . S
C130 O158 1.256 . S
C130 O159 1.244 . S
Zn131 O133 2.046 . S
Zn131 O135 2.055 . S
Zn131 N137 2.036 . S
Zn131 O155 2.066 . S
Zn131 O159 2.053 . S
C132 O129 1.259 . S
C132 O133 1.254 . S
O133 Zn131 2.046 . S
O133 C132 1.254 . S
C134 O155 1.256 . S
C134 O156 1.244 . S
O135 Zn131 2.055 . S
O135 C157 1.259 . S
O136 Zn128 2.046 . S
O136 C157 1.254 . S
N137 Zn131 2.036 . S
N137 C138 1.298 . S
N137 N140 1.398 . S
C138 N137 1.298 . S
C138 N141 1.367 . S
C138 C151 1.481 . S
C139 N140 1.299 . S
C139 N141 1.379 . S
N140 N137 1.398 . S
N140 C139 1.299 . S
N141 C138 1.367 . S
N141 C139 1.379 . S
C142 N144 1.298 . S
C142 N146 1.367 . S
C142 C150 1.481 . S
C143 N145 1.299 . S
C143 N146 1.379 . S
N144 Zn128 2.036 . S
N144 C142 1.298 . S
N144 N145 1.398 . S
N145 C143 1.299 . S
N145 N144 1.398 . S
N146 C142 1.367 . S
N146 C143 1.379 . S
H147 C150 0.980 . S
H148 C150 0.981 . S
H149 C150 0.981 . S
C150 C142 1.481 . S
C150 H147 0.980 . S
C150 H148 0.981 . S
C150 H149 0.981 . S
C151 C138 1.481 . S
C151 H152 0.980 . S
C151 H153 0.981 . S
C151 H154 0.981 . S
H152 C151 0.980 . S
H153 C151 0.981 . S
H154 C151 0.981 . S
O155 Zn131 2.066 . S
O155 C134 1.256 . S
O156 Zn128 2.053 . S
O156 C134 1.244 . S
C157 O135 1.259 . S
C157 O136 1.254 . S
O158 Zn128 2.066 . S
O158 C130 1.256 . S
O159 C130 1.244 . S
O159 Zn131 2.053 . S
Zn160 O161 2.055 . S
Zn160 O168 2.046 . S
Zn160 N176 2.036 . S
Zn160 O188 2.053 . S
Zn160 O190 2.066 . S
O161 Zn160 2.055 . S
O161 C164 1.259 . S
C162 O190 1.256 . S
C162 O191 1.244 . S
Zn163 O165 2.046 . S
Zn163 O167 2.055 . S
Zn163 N169 2.036 . S
Zn163 O187 2.066 . S
Zn163 O191 2.053 . S
C164 O161 1.259 . S
C164 O165 1.254 . S
O165 Zn163 2.046 . S
O165 C164 1.254 . S
C166 O187 1.256 . S
C166 O188 1.244 . S
O167 Zn163 2.055 . S
O167 C189 1.259 . S
O168 Zn160 2.046 . S
O168 C189 1.254 . S
N169 Zn163 2.036 . S
N169 C170 1.298 . S
N169 N172 1.398 . S
C170 N169 1.298 . S
C170 N173 1.367 . S
C170 C183 1.481 . S
C171 N172 1.299 . S
C171 N173 1.379 . S
N172 N169 1.398 . S
N172 C171 1.299 . S
N173 C170 1.367 . S
N173 C171 1.379 . S
C174 N176 1.298 . S
C174 N178 1.367 . S
C174 C182 1.481 . S
C175 N177 1.299 . S
C175 N178 1.379 . S
N176 Zn160 2.036 . S
N176 C174 1.298 . S
N176 N177 1.398 . S
N177 C175 1.299 . S
N177 N176 1.398 . S
N178 C174 1.367 . S
N178 C175 1.379 . S
H179 C182 0.980 . S
H180 C182 0.981 . S
H181 C182 0.981 . S
C182 C174 1.481 . S
C182 H179 0.980 . S
C182 H180 0.981 . S
C182 H181 0.981 . S
C183 C170 1.481 . S
C183 H184 0.980 . S
C183 H185 0.981 . S
C183 H186 0.981 . S
H184 C183 0.980 . S
H185 C183 0.981 . S
H186 C183 0.981 . S
O187 Zn163 2.066 . S
O187 C166 1.256 . S
O188 Zn160 2.053 . S
O188 C166 1.244 . S
C189 O167 1.259 . S
C189 O168 1.254 . S
O190 Zn160 2.066 . S
O190 C162 1.256 . S
O191 C162 1.244 . S
O191 Zn163 2.053 . S
H192 C210 0.951 . S
H193 C212 0.951 . S
H194 C214 0.950 . S
H195 C215 0.950 . S
H196 C217 0.950 . S
H197 C220 0.950 . S
H198 C221 0.950 . S
H199 C223 0.950 . S
H200 C224 0.950 . S
H201 C225 0.951 . S
H202 C227 0.951 . S
H203 C229 0.950 . S
H204 C230 0.950 . S
H205 C232 0.950 . S
H206 C235 0.950 . S
H207 C236 0.950 . S
H208 C238 0.950 . S
H209 C239 0.950 . S
C210 H192 0.951 . S
C210 C211 1.366 . S
C210 C212 1.388 . S
C211 C210 1.366 . S
C211 C215 1.385 . S
C212 H193 0.951 . S
C212 C210 1.388 . S
C212 C213 1.366 . S
C213 C212 1.366 . S
C213 C214 1.414 . S
C213 C216 1.499 . S
C214 H194 0.950 . S
C214 C213 1.414 . S
C214 C215 1.374 . S
C215 H195 0.950 . S
C215 C211 1.385 . S
C215 C214 1.374 . S
C216 C213 1.499 . S
C216 C217 1.373 . S
C216 C218 1.389 . S
C217 H196 0.950 . S
C217 C216 1.373 . S
C217 C233 1.377 . S
C218 C216 1.389 . S
C218 C219 1.524 . S
C218 C232 1.377 . S
C219 C218 1.524 . S
C219 C220 1.397 . S
C219 C224 1.363 . S
C220 H197 0.950 . S
C220 C219 1.397 . S
C220 C221 1.334 . S
C221 H198 0.950 . S
C221 C220 1.334 . S
C221 C222 1.287 . S
C222 C221 1.287 . S
C222 C223 1.524 . S
C222 H241 0.913 . S
C223 H199 0.950 . S
C223 C222 1.524 . S
C223 C224 1.415 . S
C224 H200 0.950 . S
C224 C219 1.363 . S
C224 C223 1.415 . S
C225 H201 0.951 . S
C225 C226 1.366 . S
C225 C227 1.388 . S
C226 C225 1.366 . S
C226 C230 1.385 . S
C227 H202 0.951 . S
C227 C225 1.388 . S
C227 C228 1.366 . S
C228 C227 1.366 . S
C228 C229 1.414 . S
C228 C231 1.499 . S
C229 H203 0.950 . S
C229 C228 1.414 . S
C229 C230 1.374 . S
C230 H204 0.950 . S
C230 C226 1.385 . S
C230 C229 1.374 . S
C231 C228 1.499 . S
C231 C232 1.373 . S
C231 C233 1.389 . S
C232 H205 0.950 . S
C232 C218 1.377 . S
C232 C231 1.373 . S
C233 C217 1.377 . S
C233 C231 1.389 . S
C233 C234 1.524 . S
C234 C233 1.524 . S
C234 C235 1.397 . S
C234 C239 1.363 . S
C235 H206 0.950 . S
C235 C234 1.397 . S
C235 C236 1.334 1_556 S
C236 H207 0.950 . S
C236 C235 1.334 1_554 S
C236 C237 1.287 1_554 S
C237 C236 1.287 1_556 S
C237 C238 1.524 . S
C237 H240 0.999 1_556 S
C238 H208 0.950 . S
C238 C237 1.524 . S
C238 C239 1.415 . S
C239 H209 0.950 . S
C239 C234 1.363 . S
C239 C238 1.415 . S
H240 C237 0.999 1_554 S
H241 C222 0.913 . S
H242 C260 0.951 . S
H243 C262 0.951 . S
H244 C264 0.950 . S
H245 C265 0.950 . S
H246 C267 0.950 . S
H247 C270 0.950 . S
H248 C271 0.950 . S
H249 C273 0.950 . S
H250 C274 0.950 1_655 S
H251 C275 0.951 . S
H252 C277 0.951 . S
H253 C279 0.950 . S
H254 C280 0.950 . S
H255 C282 0.950 . S
H256 C285 0.950 . S
H257 C286 0.950 . S
H258 C288 0.950 . S
H259 C289 0.950 1_455 S
C260 H242 0.951 . S
C260 C261 1.366 . S
C260 C262 1.388 . S
C261 C260 1.366 . S
C261 C265 1.385 . S
C262 H243 0.951 . S
C262 C260 1.388 . S
C262 C263 1.366 . S
C263 C262 1.366 . S
C263 C264 1.414 . S
C263 C266 1.499 . S
C264 H244 0.950 . S
C264 C263 1.414 . S
C264 C265 1.374 . S
C265 H245 0.950 . S
C265 C261 1.385 . S
C265 C264 1.374 . S
C266 C263 1.499 . S
C266 C267 1.373 . S
C266 C268 1.389 . S
C267 H246 0.950 . S
C267 C266 1.373 . S
C267 C283 1.377 1_455 S
C268 C266 1.389 . S
C268 C269 1.524 . S
C268 C282 1.377 1_455 S
C269 C268 1.524 . S
C269 C270 1.397 . S
C269 C274 1.363 . S
C270 H247 0.950 . S
C270 C269 1.397 . S
C270 C271 1.334 . S
C271 H248 0.950 . S
C271 C270 1.334 . S
C271 C272 1.287 . S
C272 C271 1.287 . S
C272 C273 1.524 . S
C272 H291 0.913 . S
C273 H249 0.950 . S
C273 C272 1.524 . S
C273 C274 1.415 . S
C274 H250 0.950 1_455 S
C274 C269 1.363 . S
C274 C273 1.415 . S
C275 H251 0.951 . S
C275 C276 1.366 . S
C275 C277 1.388 . S
C276 C275 1.366 . S
C276 C280 1.385 . S
C277 H252 0.951 . S
C277 C275 1.388 . S
C277 C278 1.366 . S
C278 C277 1.366 . S
C278 C279 1.414 . S
C278 C281 1.499 . S
C279 H253 0.950 . S
C279 C278 1.414 . S
C279 C280 1.374 . S
C280 H254 0.950 . S
C280 C276 1.385 . S
C280 C279 1.374 . S
C281 C278 1.499 . S
C281 C282 1.373 . S
C281 C283 1.389 . S
C282 H255 0.950 . S
C282 C268 1.377 1_655 S
C282 C281 1.373 . S
C283 C267 1.377 1_655 S
C283 C281 1.389 . S
C283 C284 1.524 . S
C284 C283 1.524 . S
C284 C285 1.397 . S
C284 C289 1.363 . S
C285 H256 0.950 . S
C285 C284 1.397 . S
C285 C286 1.334 . S
C286 H257 0.950 . S
C286 C285 1.334 . S
C286 C287 1.287 . S
C287 C286 1.287 . S
C287 C288 1.524 . S
C287 H290 0.999 . S
C288 H258 0.950 . S
C288 C287 1.524 . S
C288 C289 1.415 . S
C289 H259 0.950 1_655 S
C289 C284 1.363 . S
C289 C288 1.415 . S
H290 C287 0.999 . S
H291 C272 0.913 . S
H292 C310 0.951 . S
H293 C312 0.951 . S
H294 C314 0.950 . S
H295 C315 0.950 . S
H296 C317 0.950 . S
H297 C320 0.950 . S
H298 C321 0.950 . S
H299 C323 0.950 1_565 S
H300 C324 0.950 . S
H301 C325 0.951 . S
H302 C327 0.951 . S
H303 C329 0.950 . S
H304 C330 0.950 . S
H305 C332 0.950 . S
H306 C335 0.950 . S
H307 C336 0.950 . S
H308 C338 0.950 1_545 S
H309 C339 0.950 . S
C310 H292 0.951 . S
C310 C311 1.366 . S
C310 C312 1.388 . S
C311 C310 1.366 . S
C311 C315 1.385 . S
C312 H293 0.951 . S
C312 C310 1.388 . S
C312 C313 1.366 . S
C313 C312 1.366 . S
C313 C314 1.414 . S
C313 C316 1.499 . S
C314 H294 0.950 . S
C314 C313 1.414 . S
C314 C315 1.374 . S
C315 H295 0.950 . S
C315 C311 1.385 . S
C315 C314 1.374 . S
C316 C313 1.499 . S
C316 C317 1.373 . S
C316 C318 1.389 . S
C317 H296 0.950 . S
C317 C316 1.373 . S
C317 C333 1.377 1_545 S
C318 C316 1.389 . S
C318 C319 1.524 . S
C318 C332 1.377 1_545 S
C319 C318 1.524 . S
C319 C320 1.397 . S
C319 C324 1.363 1_545 S
C320 H297 0.950 . S
C320 C319 1.397 . S
C320 C321 1.334 . S
C321 H298 0.950 . S
C321 C320 1.334 . S
C321 C322 1.287 . S
C322 C321 1.287 . S
C322 C323 1.524 . S
C322 H341 0.913 . S
C323 H299 0.950 1_545 S
C323 C322 1.524 . S
C323 C324 1.415 1_545 S
C324 H300 0.950 . S
C324 C319 1.363 1_565 S
C324 C323 1.415 1_565 S
C325 H301 0.951 . S
C325 C326 1.366 . S
C325 C327 1.388 . S
C326 C325 1.366 . S
C326 C330 1.385 . S
C327 H302 0.951 . S
C327 C325 1.388 . S
C327 C328 1.366 . S
C328 C327 1.366 . S
C328 C329 1.414 . S
C328 C331 1.499 . S
C329 H303 0.950 . S
C329 C328 1.414 . S
C329 C330 1.374 . S
C330 H304 0.950 . S
C330 C326 1.385 . S
C330 C329 1.374 . S
C331 C328 1.499 . S
C331 C332 1.373 . S
C331 C333 1.389 . S
C332 H305 0.950 . S
C332 C318 1.377 1_565 S
C332 C331 1.373 . S
C333 C317 1.377 1_565 S
C333 C331 1.389 . S
C333 C334 1.524 . S
C334 C333 1.524 . S
C334 C335 1.397 . S
C334 C339 1.363 1_565 S
C335 H306 0.950 . S
C335 C334 1.397 . S
C335 C336 1.334 . S
C336 H307 0.950 . S
C336 C335 1.334 . S
C336 C337 1.287 . S
C337 C336 1.287 . S
C337 C338 1.524 . S
C337 H340 0.999 . S
C338 H308 0.950 1_565 S
C338 C337 1.524 . S
C338 C339 1.415 1_565 S
C339 H309 0.950 . S
C339 C334 1.363 1_545 S
C339 C338 1.415 1_545 S
H340 C337 0.999 . S
H341 C322 0.913 . S
H342 C360 0.951 . S
H343 C362 0.951 . S
H344 C364 0.950 . S
H345 C365 0.950 . S
H346 C367 0.950 . S
H347 C370 0.950 . S
H348 C371 0.950 . S
H349 C373 0.950 . S
H350 C374 0.950 . S
H351 C375 0.951 . S
H352 C377 0.951 . S
H353 C379 0.950 . S
H354 C380 0.950 . S
H355 C382 0.950 . S
H356 C385 0.950 . S
H357 C386 0.950 . S
H358 C388 0.950 . S
H359 C389 0.950 . S
C360 H342 0.951 . S
C360 C361 1.366 . S
C360 C362 1.388 . S
C361 C360 1.366 . S
C361 C365 1.385 . S
C362 H343 0.951 . S
C362 C360 1.388 . S
C362 C363 1.366 . S
C363 C362 1.366 . S
C363 C364 1.414 . S
C363 C366 1.499 . S
C364 H344 0.950 . S
C364 C363 1.414 . S
C364 C365 1.374 . S
C365 H345 0.950 . S
C365 C361 1.385 . S
C365 C364 1.374 . S
C366 C363 1.499 . S
C366 C367 1.373 . S
C366 C368 1.389 . S
C367 H346 0.950 . S
C367 C366 1.373 . S
C367 C383 1.377 . S
C368 C366 1.389 . S
C368 C369 1.524 . S
C368 C382 1.377 . S
C369 C368 1.524 . S
C369 C370 1.397 . S
C369 C374 1.363 . S
C370 H347 0.950 . S
C370 C369 1.397 . S
C370 C371 1.334 . S
C371 H348 0.950 . S
C371 C370 1.334 . S
C371 C372 1.287 . S
C372 C371 1.287 . S
C372 C373 1.524 . S
C372 H391 0.913 . S
C373 H349 0.950 . S
C373 C372 1.524 . S
C373 C374 1.415 . S
C374 H350 0.950 . S
C374 C369 1.363 . S
C374 C373 1.415 . S
C375 H351 0.951 . S
C375 C376 1.366 . S
C375 C377 1.388 . S
C376 C375 1.366 . S
C376 C380 1.385 . S
C377 H352 0.951 . S
C377 C375 1.388 . S
C377 C378 1.366 . S
C378 C377 1.366 . S
C378 C379 1.414 . S
C378 C381 1.499 . S
C379 H353 0.950 . S
C379 C378 1.414 . S
C379 C380 1.374 . S
C380 H354 0.950 . S
C380 C376 1.385 . S
C380 C379 1.374 . S
C381 C378 1.499 . S
C381 C382 1.373 . S
C381 C383 1.389 . S
C382 H355 0.950 . S
C382 C368 1.377 . S
C382 C381 1.373 . S
C383 C367 1.377 . S
C383 C381 1.389 . S
C383 C384 1.524 . S
C384 C383 1.524 . S
C384 C385 1.397 . S
C384 C389 1.363 . S
C385 H356 0.950 . S
C385 C384 1.397 . S
C385 C386 1.334 1_556 S
C386 H357 0.950 . S
C386 C385 1.334 1_554 S
C386 C387 1.287 . S
C387 C386 1.287 . S
C387 C388 1.524 . S
C387 H390 0.999 . S
C388 H358 0.950 . S
C388 C387 1.524 . S
C388 C389 1.415 1_554 S
C389 H359 0.950 . S
C389 C384 1.363 . S
C389 C388 1.415 1_556 S
H390 C387 0.999 . S
H391 C372 0.913 . S
H392 C410 0.951 . S
H393 C412 0.951 . S
H394 C414 0.950 . S
H395 C415 0.950 . S
H396 C417 0.950 . S
H397 C420 0.950 . S
H398 C421 0.950 . S
H399 C423 0.950 1_556 S
H400 C424 0.950 . S
H401 C425 0.951 . S
H402 C427 0.951 . S
H403 C429 0.950 . S
H404 C430 0.950 1_556 S
H405 C432 0.950 . S
H406 C435 0.950 . S
H407 C436 0.950 . S
H408 C438 0.950 . S
H409 C439 0.950 . S
C410 H392 0.951 . S
C410 C411 1.366 . S
C410 C412 1.388 . S
C411 C410 1.366 . S
C411 C415 1.385 . S
C412 H393 0.951 . S
C412 C410 1.388 . S
C412 C413 1.366 . S
C413 C412 1.366 . S
C413 C414 1.414 . S
C413 C416 1.499 . S
C414 H394 0.950 . S
C414 C413 1.414 . S
C414 C415 1.374 . S
C415 H395 0.950 . S
C415 C411 1.385 . S
C415 C414 1.374 . S
C416 C413 1.499 . S
C416 C417 1.373 . S
C416 C418 1.389 . S
C417 H396 0.950 . S
C417 C416 1.373 . S
C417 C433 1.377 1_455 S
C418 C416 1.389 . S
C418 C419 1.524 . S
C418 C432 1.377 1_455 S
C419 C418 1.524 . S
C419 C420 1.397 . S
C419 C424 1.363 . S
C420 H397 0.950 . S
C420 C419 1.397 . S
C420 C421 1.334 . S
C421 H398 0.950 . S
C421 C420 1.334 . S
C421 C422 1.287 . S
C422 C421 1.287 . S
C422 C423 1.524 . S
C422 H441 0.913 . S
C423 H399 0.950 1_554 S
C423 C422 1.524 . S
C423 C424 1.415 . S
C424 H400 0.950 . S
C424 C419 1.363 . S
C424 C423 1.415 . S
C425 H401 0.951 . S
C425 C426 1.366 . S
C425 C427 1.388 . S
C426 C425 1.366 . S
C426 C430 1.385 . S
C427 H402 0.951 . S
C427 C425 1.388 . S
C427 C428 1.366 . S
C428 C427 1.366 . S
C428 C429 1.414 . S
C428 C431 1.499 . S
C429 H403 0.950 . S
C429 C428 1.414 . S
C429 C430 1.374 . S
C430 H404 0.950 1_554 S
C430 C426 1.385 . S
C430 C429 1.374 . S
C431 C428 1.499 . S
C431 C432 1.373 . S
C431 C433 1.389 . S
C432 H405 0.950 . S
C432 C418 1.377 1_655 S
C432 C431 1.373 . S
C433 C417 1.377 1_655 S
C433 C431 1.389 . S
C433 C434 1.524 . S
C434 C433 1.524 . S
C434 C435 1.397 . S
C434 C439 1.363 . S
C435 H406 0.950 . S
C435 C434 1.397 . S
C435 C436 1.334 . S
C436 H407 0.950 . S
C436 C435 1.334 . S
C436 C437 1.287 . S
C437 C436 1.287 . S
C437 C438 1.524 . S
C437 H440 0.999 . S
C438 H408 0.950 . S
C438 C437 1.524 . S
C438 C439 1.415 . S
C439 H409 0.950 . S
C439 C434 1.363 . S
C439 C438 1.415 . S
H440 C437 0.999 . S
H441 C422 0.913 . S
H442 C460 0.951 . S
H443 C462 0.951 . S
H444 C464 0.950 . S
H445 C465 0.950 . S
H446 C467 0.950 . S
H447 C470 0.950 . S
H448 C471 0.950 . S
H449 C473 0.950 . S
H450 C474 0.950 . S
H451 C475 0.951 . S
H452 C477 0.951 . S
H453 C479 0.950 . S
H454 C480 0.950 . S
H455 C482 0.950 . S
H456 C485 0.950 . S
H457 C486 0.950 . S
H458 C488 0.950 . S
H459 C489 0.950 . S
C460 H442 0.951 . S
C460 C461 1.366 . S
C460 C462 1.388 . S
C461 C460 1.366 . S
C461 C465 1.385 . S
C462 H443 0.951 . S
C462 C460 1.388 . S
C462 C463 1.366 . S
C463 C462 1.366 . S
C463 C464 1.414 . S
C463 C466 1.499 . S
C464 H444 0.950 . S
C464 C463 1.414 . S
C464 C465 1.374 . S
C465 H445 0.950 . S
C465 C461 1.385 . S
C465 C464 1.374 . S
C466 C463 1.499 . S
C466 C467 1.373 . S
C466 C468 1.417 . S
C467 H446 0.950 . S
C467 C466 1.373 . S
C467 C483 1.350 1_545 S
C468 C466 1.417 . S
C468 C469 1.520 1_545 S
C468 C482 1.350 1_545 S
C469 C468 1.520 1_565 S
C469 C470 1.397 1_565 S
C469 C474 1.368 . S
C470 H447 0.950 . S
C470 C469 1.397 1_545 S
C470 C471 1.334 . S
C471 H448 0.950 . S
C471 C470 1.334 . S
C471 C472 1.287 1_545 S
C472 C471 1.287 1_565 S
C472 C473 1.524 . S
C472 H491 0.913 . S
C473 H449 0.950 . S
C473 C472 1.524 . S
C473 C474 1.415 . S
C474 H450 0.950 . S
C474 C469 1.368 . S
C474 C473 1.415 . S
C475 H451 0.951 . S
C475 C476 1.366 . S
C475 C477 1.388 . S
C476 C475 1.366 . S
C476 C480 1.385 . S
C477 H452 0.951 . S
C477 C475 1.388 . S
C477 C478 1.366 . S
C478 C477 1.366 . S
C478 C479 1.414 . S
C478 C481 1.499 . S
C479 H453 0.950 . S
C479 C478 1.414 . S
C479 C480 1.374 . S
C480 H454 0.950 . S
C480 C476 1.385 . S
C480 C479 1.374 . S
C481 C478 1.499 . S
C481 C482 1.373 . S
C481 C483 1.416 . S
C482 H455 0.950 . S
C482 C468 1.350 1_565 S
C482 C481 1.373 . S
C483 C467 1.350 1_565 S
C483 C481 1.416 . S
C483 C484 1.520 1_565 S
C484 C483 1.520 1_545 S
C484 C485 1.397 1_545 S
C484 C489 1.368 . S
C485 H456 0.950 . S
C485 C484 1.397 1_565 S
C485 C486 1.334 . S
C486 H457 0.950 . S
C486 C485 1.334 . S
C486 C487 1.287 1_565 S
C487 C486 1.287 1_545 S
C487 C488 1.524 . S
C487 H490 0.999 . S
C488 H458 0.950 . S
C488 C487 1.524 . S
C488 C489 1.415 . S
C489 H459 0.950 . S
C489 C484 1.368 . S
C489 C488 1.415 . S
H490 C487 0.999 . S
H491 C472 0.913 . S
H492 C510 0.951 . S
H493 C512 0.951 . S
H494 C514 0.950 . S
H495 C515 0.950 . S
H496 C517 0.950 . S
H497 C520 0.950 . S
H498 C521 0.950 . S
H499 C523 0.950 . S
H500 C524 0.950 . S
H501 C525 0.951 . S
H502 C527 0.951 . S
H503 C529 0.950 . S
H504 C530 0.950 . S
H505 C532 0.950 . S
H506 C535 0.950 . S
H507 C536 0.950 . S
H508 C538 0.950 . S
H509 C539 0.950 . S
C510 H492 0.951 . S
C510 C511 1.366 . S
C510 C512 1.388 . S
C511 C510 1.366 . S
C511 C515 1.385 . S
C512 H493 0.951 . S
C512 C510 1.388 . S
C512 C513 1.366 . S
C513 C512 1.366 . S
C513 C514 1.414 . S
C513 C516 1.499 . S
C514 H494 0.950 . S
C514 C513 1.414 . S
C514 C515 1.374 . S
C515 H495 0.950 . S
C515 C511 1.385 . S
C515 C514 1.374 . S
C516 C513 1.499 . S
C516 C517 1.373 . S
C516 C518 1.389 . S
C517 H496 0.950 . S
C517 C516 1.373 . S
C517 C533 1.377 . S
C518 C516 1.389 . S
C518 C519 1.524 . S
C518 C532 1.377 . S
C519 C518 1.524 . S
C519 C520 1.397 . S
C519 C524 1.363 . S
C520 H497 0.950 . S
C520 C519 1.397 . S
C520 C521 1.334 . S
C521 H498 0.950 . S
C521 C520 1.334 . S
C521 C522 1.287 . S
C522 C521 1.287 . S
C522 C523 1.524 . S
C522 H541 0.913 . S
C523 H499 0.950 . S
C523 C522 1.524 . S
C523 C524 1.415 . S
C524 H500 0.950 . S
C524 C519 1.363 . S
C524 C523 1.415 . S
C525 H501 0.951 . S
C525 C526 1.366 . S
C525 C527 1.388 . S
C526 C525 1.366 . S
C526 C530 1.385 . S
C527 H502 0.951 . S
C527 C525 1.388 . S
C527 C528 1.366 . S
C528 C527 1.366 . S
C528 C529 1.414 . S
C528 C531 1.499 . S
C529 H503 0.950 . S
C529 C528 1.414 . S
C529 C530 1.374 . S
C530 H504 0.950 . S
C530 C526 1.385 . S
C530 C529 1.374 . S
C531 C528 1.499 . S
C531 C532 1.373 . S
C531 C533 1.389 . S
C532 H505 0.950 . S
C532 C518 1.377 . S
C532 C531 1.373 . S
C533 C517 1.377 . S
C533 C531 1.389 . S
C533 C534 1.524 . S
C534 C533 1.524 . S
C534 C535 1.397 . S
C534 C539 1.363 . S
C535 H506 0.950 . S
C535 C534 1.397 . S
C535 C536 1.334 . S
C536 H507 0.950 . S
C536 C535 1.334 . S
C536 C537 1.287 . S
C537 C536 1.287 . S
C537 C538 1.524 . S
C537 H540 0.999 . S
C538 H508 0.950 . S
C538 C537 1.524 . S
C538 C539 1.415 . S
C539 H509 0.950 . S
C539 C534 1.363 . S
C539 C538 1.415 . S
H540 C537 0.999 . S
H541 C522 0.913 . S
H542 C560 0.951 . S
H543 C562 0.951 . S
H544 C564 0.950 . S
H545 C565 0.950 . S
H546 C567 0.950 . S
H547 C570 0.950 . S
H548 C571 0.950 . S
H549 C573 0.950 . S
H550 C574 0.950 . S
H551 C575 0.951 . S
H552 C577 0.951 . S
H553 C579 0.950 . S
H554 C580 0.950 . S
H555 C582 0.950 . S
H556 C585 0.950 . S
H557 C586 0.950 . S
H558 C588 0.950 . S
H559 C589 0.950 . S
C560 H542 0.951 . S
C560 C561 1.366 . S
C560 C562 1.388 1_554 S
C561 C560 1.366 . S
C561 C565 1.385 . S
C562 H543 0.951 . S
C562 C560 1.388 1_556 S
C562 C563 1.366 . S
C563 C562 1.366 . S
C563 C564 1.414 . S
C563 C566 1.499 . S
C564 H544 0.950 . S
C564 C563 1.414 . S
C564 C565 1.374 1_556 S
C565 H545 0.950 . S
C565 C561 1.385 . S
C565 C564 1.374 1_554 S
C566 C563 1.499 . S
C566 C567 1.373 . S
C566 C568 1.389 . S
C567 H546 0.950 . S
C567 C566 1.373 . S
C567 C583 1.377 . S
C568 C566 1.389 . S
C568 C569 1.524 . S
C568 C582 1.377 . S
C569 C568 1.524 . S
C569 C570 1.397 . S
C569 C574 1.363 . S
C570 H547 0.950 . S
C570 C569 1.397 . S
C570 C571 1.334 . S
C571 H548 0.950 . S
C571 C570 1.334 . S
C571 C572 1.287 . S
C572 C571 1.287 . S
C572 C573 1.524 . S
C572 H591 0.913 . S
C573 H549 0.950 . S
C573 C572 1.524 . S
C573 C574 1.415 . S
C574 H550 0.950 . S
C574 C569 1.363 . S
C574 C573 1.415 . S
C575 H551 0.951 . S
C575 C576 1.366 . S
C575 C577 1.388 . S
C576 C575 1.366 . S
C576 C580 1.385 . S
C577 H552 0.951 . S
C577 C575 1.388 . S
C577 C578 1.366 . S
C578 C577 1.366 . S
C578 C579 1.414 . S
C578 C581 1.499 . S
C579 H553 0.950 . S
C579 C578 1.414 . S
C579 C580 1.374 . S
C580 H554 0.950 . S
C580 C576 1.385 . S
C580 C579 1.374 . S
C581 C578 1.499 . S
C581 C582 1.373 . S
C581 C583 1.389 . S
C582 H555 0.950 . S
C582 C568 1.377 . S
C582 C581 1.373 . S
C583 C567 1.377 . S
C583 C581 1.389 . S
C583 C584 1.524 . S
C584 C583 1.524 . S
C584 C585 1.397 . S
C584 C589 1.363 . S
C585 H556 0.950 . S
C585 C584 1.397 . S
C585 C586 1.334 . S
C586 H557 0.950 . S
C586 C585 1.334 . S
C586 C587 1.287 . S
C587 C586 1.287 . S
C587 C588 1.524 . S
C587 H590 0.999 . S
C588 H558 0.950 . S
C588 C587 1.524 . S
C588 C589 1.415 . S
C589 H559 0.950 . S
C589 C584 1.363 . S
C589 C588 1.415 . S
H590 C587 0.999 . S
H591 C572 0.913 . S
H592 C610 0.951 . S
H593 C612 0.951 . S
H594 C614 0.950 . S
H595 C615 0.950 . S
H596 C617 0.950 . S
H597 C620 0.950 . S
H598 C621 0.950 . S
H599 C623 0.950 . S
H600 C624 0.950 . S
H601 C625 0.951 . S
H602 C627 0.951 . S
H603 C629 0.950 . S
H604 C630 0.950 . S
H605 C632 0.950 . S
H606 C635 0.950 . S
H607 C636 0.950 . S
H608 C638 0.950 . S
H609 C639 0.950 . S
C610 H592 0.951 . S
C610 C611 1.366 . S
C610 C612 1.388 . S
C611 C610 1.366 . S
C611 C615 1.385 . S
C612 H593 0.951 . S
C612 C610 1.388 . S
C612 C613 1.366 . S
C613 C612 1.366 . S
C613 C614 1.414 . S
C613 C616 1.499 . S
C614 H594 0.950 . S
C614 C613 1.414 . S
C614 C615 1.374 . S
C615 H595 0.950 . S
C615 C611 1.385 . S
C615 C614 1.374 . S
C616 C613 1.499 . S
C616 C617 1.373 . S
C616 C618 1.389 . S
C617 H596 0.950 . S
C617 C616 1.373 . S
C617 C633 1.377 . S
C618 C616 1.389 . S
C618 C619 1.524 . S
C618 C632 1.377 . S
C619 C618 1.524 . S
C619 C620 1.397 . S
C619 C624 1.363 . S
C620 H597 0.950 . S
C620 C619 1.397 . S
C620 C621 1.334 . S
C621 H598 0.950 . S
C621 C620 1.334 . S
C621 C622 1.287 . S
C622 C621 1.287 . S
C622 C623 1.524 . S
C622 H641 0.913 . S
C623 H599 0.950 . S
C623 C622 1.524 . S
C623 C624 1.415 . S
C624 H600 0.950 . S
C624 C619 1.363 . S
C624 C623 1.415 . S
C625 H601 0.951 . S
C625 C626 1.366 . S
C625 C627 1.388 1_556 S
C626 C625 1.366 . S
C626 C630 1.385 . S
C627 H602 0.951 . S
C627 C625 1.388 1_554 S
C627 C628 1.366 . S
C628 C627 1.366 . S
C628 C629 1.414 . S
C628 C631 1.499 . S
C629 H603 0.950 . S
C629 C628 1.414 . S
C629 C630 1.374 1_554 S
C630 H604 0.950 . S
C630 C626 1.385 . S
C630 C629 1.374 1_556 S
C631 C628 1.499 . S
C631 C632 1.373 . S
C631 C633 1.389 . S
C632 H605 0.950 . S
C632 C618 1.377 . S
C632 C631 1.373 . S
C633 C617 1.377 . S
C633 C631 1.389 . S
C633 C634 1.524 . S
C634 C633 1.524 . S
C634 C635 1.397 . S
C634 C639 1.363 . S
C635 H606 0.950 . S
C635 C634 1.397 . S
C635 C636 1.334 . S
C636 H607 0.950 . S
C636 C635 1.334 . S
C636 C637 1.287 . S
C637 C636 1.287 . S
C637 C638 1.524 . S
C637 H640 0.999 . S
C638 H608 0.950 . S
C638 C637 1.524 . S
C638 C639 1.415 . S
C639 H609 0.950 . S
C639 C634 1.363 . S
C639 C638 1.415 . S
H640 C637 0.999 . S
H641 C622 0.913 . S
H642 C660 0.951 . S
H643 C662 0.951 . S
H644 C664 0.950 . S
H645 C665 0.950 . S
H646 C667 0.950 . S
H647 C670 0.950 . S
H648 C671 0.950 . S
H649 C673 0.950 . S
H650 C674 0.950 . S
H651 C675 0.951 . S
H652 C677 0.951 . S
H653 C679 0.950 . S
H654 C680 0.950 . S
H655 C682 0.950 . S
H656 C685 0.950 . S
H657 C686 0.950 . S
H658 C688 0.950 . S
H659 C689 0.950 . S
C660 H642 0.951 . S
C660 C661 1.366 . S
C660 C662 1.388 . S
C661 C660 1.366 . S
C661 C665 1.385 . S
C662 H643 0.951 . S
C662 C660 1.388 . S
C662 C663 1.366 . S
C663 C662 1.366 . S
C663 C664 1.414 . S
C663 C666 1.499 . S
C664 H644 0.950 . S
C664 C663 1.414 . S
C664 C665 1.374 . S
C665 H645 0.950 . S
C665 C661 1.385 . S
C665 C664 1.374 . S
C666 C663 1.499 . S
C666 C667 1.373 . S
C666 C668 1.389 . S
C667 H646 0.950 . S
C667 C666 1.373 . S
C667 C683 1.377 . S
C668 C666 1.389 . S
C668 C669 1.524 . S
C668 C682 1.377 . S
C669 C668 1.524 . S
C669 C670 1.397 . S
C669 C674 1.363 . S
C670 H647 0.950 . S
C670 C669 1.397 . S
C670 C671 1.334 . S
C671 H648 0.950 . S
C671 C670 1.334 . S
C671 C672 1.287 . S
C672 C671 1.287 . S
C672 C673 1.524 . S
C672 H691 0.913 . S
C673 H649 0.950 . S
C673 C672 1.524 . S
C673 C674 1.415 . S
C674 H650 0.950 . S
C674 C669 1.363 . S
C674 C673 1.415 . S
C675 H651 0.951 . S
C675 C676 1.366 . S
C675 C677 1.388 . S
C676 C675 1.366 . S
C676 C680 1.385 . S
C677 H652 0.951 . S
C677 C675 1.388 . S
C677 C678 1.366 . S
C678 C677 1.366 . S
C678 C679 1.414 . S
C678 C681 1.499 . S
C679 H653 0.950 . S
C679 C678 1.414 . S
C679 C680 1.374 . S
C680 H654 0.950 . S
C680 C676 1.385 . S
C680 C679 1.374 . S
C681 C678 1.499 . S
C681 C682 1.373 . S
C681 C683 1.389 . S
C682 H655 0.950 . S
C682 C668 1.377 . S
C682 C681 1.373 . S
C683 C667 1.377 . S
C683 C681 1.389 . S
C683 C684 1.524 . S
C684 C683 1.524 . S
C684 C685 1.397 . S
C684 C689 1.363 . S
C685 H656 0.950 . S
C685 C684 1.397 . S
C685 C686 1.334 . S
C686 H657 0.950 . S
C686 C685 1.334 . S
C686 C687 1.287 . S
C687 C686 1.287 . S
C687 C688 1.524 . S
C687 H690 0.999 . S
C688 H658 0.950 . S
C688 C687 1.524 . S
C688 C689 1.415 . S
C689 H659 0.950 . S
C689 C684 1.363 . S
C689 C688 1.415 . S
H690 C687 0.999 . S
H691 C672 0.913 . S
H692 C710 0.951 . S
H693 C712 0.951 . S
H694 C714 0.950 . S
H695 C715 0.950 . S
H696 C717 0.950 . S
H697 C720 0.950 . S
H698 C721 0.950 . S
H699 C723 0.950 . S
H700 C724 0.950 . S
H701 C725 0.951 . S
H702 C727 0.951 . S
H703 C729 0.954 . S
H704 C730 0.950 . S
H705 C732 0.950 . S
H706 C735 0.950 . S
H707 C736 0.950 . S
H708 C738 0.950 . S
H709 C739 0.950 . S
C710 H692 0.951 . S
C710 C711 1.366 . S
C710 C712 1.388 . S
C711 C710 1.366 . S
C711 C715 1.385 . S
C712 H693 0.951 . S
C712 C710 1.388 . S
C712 C713 1.366 . S
C713 C712 1.366 . S
C713 C714 1.414 . S
C713 C716 1.499 . S
C714 H694 0.950 . S
C714 C713 1.414 . S
C714 C715 1.374 . S
C715 H695 0.950 . S
C715 C711 1.385 . S
C715 C714 1.374 . S
C716 C713 1.499 . S
C716 C717 1.373 . S
C716 C718 1.389 . S
C717 H696 0.950 . S
C717 C716 1.373 . S
C717 C733 1.377 . S
C718 C716 1.389 . S
C718 C719 1.524 . S
C718 C732 1.377 . S
C719 C718 1.524 . S
C719 C720 1.397 . S
C719 C724 1.363 . S
C720 H697 0.950 . S
C720 C719 1.397 . S
C720 C721 1.334 . S
C721 H698 0.950 . S
C721 C720 1.334 . S
C721 C722 1.287 . S
C722 C721 1.287 . S
C722 C723 1.524 . S
C722 H741 0.913 . S
C723 H699 0.950 . S
C723 C722 1.524 . S
C723 C724 1.415 . S
C724 H700 0.950 . S
C724 C719 1.363 . S
C724 C723 1.415 . S
C725 H701 0.951 . S
C725 C726 1.366 . S
C725 C727 1.388 1_554 S
C726 C725 1.366 . S
C726 C730 1.385 . S
C727 H702 0.951 . S
C727 C725 1.388 1_556 S
C727 C728 1.366 . S
C728 C727 1.366 . S
C728 C729 1.422 . S
C728 C731 1.499 . S
C729 H703 0.954 . S
C729 C728 1.422 . S
C729 C730 1.362 1_556 S
C730 H704 0.950 . S
C730 C726 1.385 . S
C730 C729 1.362 1_554 S
C731 C728 1.499 . S
C731 C732 1.373 . S
C731 C733 1.389 . S
C732 H705 0.950 . S
C732 C718 1.377 . S
C732 C731 1.373 . S
C733 C717 1.377 . S
C733 C731 1.389 . S
C733 C734 1.524 . S
C734 C733 1.524 . S
C734 C735 1.397 . S
C734 C739 1.363 . S
C735 H706 0.950 . S
C735 C734 1.397 . S
C735 C736 1.334 . S
C736 H707 0.950 . S
C736 C735 1.334 . S
C736 C737 1.287 . S
C737 C736 1.287 . S
C737 C738 1.524 . S
C737 H740 0.999 . S
C738 H708 0.950 . S
C738 C737 1.524 . S
C738 C739 1.415 . S
C739 H709 0.950 . S
C739 C734 1.363 . S
C739 C738 1.415 . S
H740 C737 0.999 . S
H741 C722 0.913 . S
H742 C760 0.951 . S
H743 C762 0.951 . S
H744 C764 0.950 . S
H745 C765 0.950 . S
H746 C767 0.950 . S
H747 C770 0.950 . S
H748 C771 0.950 . S
H749 C773 0.950 . S
H750 C774 0.950 . S
H751 C775 0.951 . S
H752 C777 0.951 . S
H753 C779 0.950 . S
H754 C780 0.950 . S
H755 C782 0.950 . S
H756 C785 0.950 . S
H757 C786 0.950 1_556 S
H758 C788 0.950 . S
H759 C789 0.950 . S
C760 H742 0.951 . S
C760 C761 1.366 . S
C760 C762 1.388 . S
C761 C760 1.366 . S
C761 C765 1.385 . S
C762 H743 0.951 . S
C762 C760 1.388 . S
C762 C763 1.366 . S
C763 C762 1.366 . S
C763 C764 1.414 . S
C763 C766 1.499 . S
C764 H744 0.950 . S
C764 C763 1.414 . S
C764 C765 1.374 . S
C765 H745 0.950 . S
C765 C761 1.385 . S
C765 C764 1.374 . S
C766 C763 1.499 . S
C766 C767 1.373 . S
C766 C768 1.389 . S
C767 H746 0.950 . S
C767 C766 1.373 . S
C767 C783 1.377 . S
C768 C766 1.389 . S
C768 C769 1.524 . S
C768 C782 1.377 . S
C769 C768 1.524 . S
C769 C770 1.397 . S
C769 C774 1.363 . S
C770 H747 0.950 . S
C770 C769 1.397 . S
C770 C771 1.334 . S
C771 H748 0.950 . S
C771 C770 1.334 . S
C771 C772 1.287 . S
C772 C771 1.287 . S
C772 C773 1.524 . S
C772 H791 0.913 . S
C773 H749 0.950 . S
C773 C772 1.524 . S
C773 C774 1.415 . S
C774 H750 0.950 . S
C774 C769 1.363 . S
C774 C773 1.415 . S
C775 H751 0.951 . S
C775 C776 1.366 . S
C775 C777 1.388 1_556 S
C776 C775 1.366 . S
C776 C780 1.385 . S
C777 H752 0.951 . S
C777 C775 1.388 1_554 S
C777 C778 1.366 . S
C778 C777 1.366 . S
C778 C779 1.414 . S
C778 C781 1.499 . S
C779 H753 0.950 . S
C779 C778 1.414 . S
C779 C780 1.374 1_554 S
C780 H754 0.950 . S
C780 C776 1.385 . S
C780 C779 1.374 1_556 S
C781 C778 1.499 . S
C781 C782 1.373 . S
C781 C783 1.389 . S
C782 H755 0.950 . S
C782 C768 1.377 . S
C782 C781 1.373 . S
C783 C767 1.377 . S
C783 C781 1.389 . S
C783 C784 1.524 . S
C784 C783 1.524 . S
C784 C785 1.397 . S
C784 C789 1.363 . S
C785 H756 0.950 . S
C785 C784 1.397 . S
C785 C786 1.334 . S
C786 H757 0.950 1_554 S
C786 C785 1.334 . S
C786 C787 1.287 . S
C787 C786 1.287 . S
C787 C788 1.524 . S
C787 H790 0.999 1_554 S
C788 H758 0.950 . S
C788 C787 1.524 . S
C788 C789 1.415 . S
C789 H759 0.950 . S
C789 C784 1.363 . S
C789 C788 1.415 . S
H790 C787 0.999 1_556 S
H791 C772 0.913 . S
H792 C810 0.951 . S
H793 C812 0.951 . S
H794 C814 0.950 . S
H795 C815 0.950 1_556 S
H796 C817 0.950 . S
H797 C820 0.950 . S
H798 C821 0.950 . S
H799 C823 0.950 . S
H800 C824 0.950 . S
H801 C825 0.951 . S
H802 C827 0.951 . S
H803 C829 0.950 . S
H804 C830 0.950 . S
H805 C832 0.950 . S
H806 C835 0.950 . S
H807 C836 0.950 . S
H808 C838 0.950 . S
H809 C839 0.950 . S
C810 H792 0.951 . S
C810 C811 1.366 . S
C810 C812 1.388 . S
C811 C810 1.366 . S
C811 C815 1.385 . S
C812 H793 0.951 . S
C812 C810 1.388 . S
C812 C813 1.366 . S
C813 C812 1.366 . S
C813 C814 1.414 . S
C813 C816 1.499 . S
C814 H794 0.950 . S
C814 C813 1.414 . S
C814 C815 1.374 . S
C815 H795 0.950 1_554 S
C815 C811 1.385 . S
C815 C814 1.374 . S
C816 C813 1.499 . S
C816 C817 1.373 . S
C816 C818 1.389 . S
C817 H796 0.950 . S
C817 C816 1.373 . S
C817 C833 1.377 . S
C818 C816 1.389 . S
C818 C819 1.524 . S
C818 C832 1.377 . S
C819 C818 1.524 . S
C819 C820 1.397 . S
C819 C824 1.363 . S
C820 H797 0.950 . S
C820 C819 1.397 . S
C820 C821 1.334 . S
C821 H798 0.950 . S
C821 C820 1.334 . S
C821 C822 1.287 . S
C822 C821 1.287 . S
C822 C823 1.524 . S
C822 H841 0.913 . S
C823 H799 0.950 . S
C823 C822 1.524 . S
C823 C824 1.415 . S
C824 H800 0.950 . S
C824 C819 1.363 . S
C824 C823 1.415 . S
C825 H801 0.951 . S
C825 C826 1.366 . S
C825 C827 1.388 . S
C826 C825 1.366 . S
C826 C830 1.385 . S
C827 H802 0.951 . S
C827 C825 1.388 . S
C827 C828 1.366 . S
C828 C827 1.366 . S
C828 C829 1.414 . S
C828 C831 1.499 . S
C829 H803 0.950 . S
C829 C828 1.414 . S
C829 C830 1.374 . S
C830 H804 0.950 . S
C830 C826 1.385 . S
C830 C829 1.374 . S
C831 C828 1.499 . S
C831 C832 1.373 . S
C831 C833 1.389 . S
C832 H805 0.950 . S
C832 C818 1.377 . S
C832 C831 1.373 . S
C833 C817 1.377 . S
C833 C831 1.389 . S
C833 C834 1.524 . S
C834 C833 1.524 . S
C834 C835 1.397 . S
C834 C839 1.363 . S
C835 H806 0.950 . S
C835 C834 1.397 . S
C835 C836 1.334 . S
C836 H807 0.950 . S
C836 C835 1.334 . S
C836 C837 1.287 . S
C837 C836 1.287 . S
C837 C838 1.524 . S
C837 H840 0.999 . S
C838 H808 0.950 . S
C838 C837 1.524 . S
C838 C839 1.415 . S
C839 H809 0.950 . S
C839 C834 1.363 . S
C839 C838 1.415 . S
H840 C837 0.999 . S
H841 C822 0.913 . S
H842 C860 0.951 . S
H843 C862 0.951 . S
H844 C864 0.950 . S
H845 C865 0.950 . S
H846 C867 0.950 . S
H847 C870 0.950 . S
H848 C871 0.950 . S
H849 C873 0.950 . S
H850 C874 0.950 . S
H851 C875 0.951 . S
H852 C877 0.951 . S
H853 C879 0.950 . S
H854 C880 0.950 . S
H855 C882 0.950 . S
H856 C885 0.950 . S
H857 C886 0.950 . S
H858 C888 0.950 . S
H859 C889 0.950 . S
C860 H842 0.951 . S
C860 C861 1.366 . S
C860 C862 1.388 . S
C861 C860 1.366 . S
C861 C865 1.385 . S
C862 H843 0.951 . S
C862 C860 1.388 . S
C862 C863 1.366 . S
C863 C862 1.366 . S
C863 C864 1.414 . S
C863 C866 1.499 . S
C864 H844 0.950 . S
C864 C863 1.414 . S
C864 C865 1.374 . S
C865 H845 0.950 . S
C865 C861 1.385 . S
C865 C864 1.374 . S
C866 C863 1.499 . S
C866 C867 1.373 . S
C866 C868 1.389 . S
C867 H846 0.950 . S
C867 C866 1.373 . S
C867 C883 1.377 . S
C868 C866 1.389 . S
C868 C869 1.524 . S
C868 C882 1.377 . S
C869 C868 1.524 . S
C869 C870 1.397 . S
C869 C874 1.363 . S
C870 H847 0.950 . S
C870 C869 1.397 . S
C870 C871 1.334 . S
C871 H848 0.950 . S
C871 C870 1.334 . S
C871 C872 1.287 . S
C872 C871 1.287 . S
C872 C873 1.524 . S
C872 H891 0.913 . S
C873 H849 0.950 . S
C873 C872 1.524 . S
C873 C874 1.415 . S
C874 H850 0.950 . S
C874 C869 1.363 . S
C874 C873 1.415 . S
C875 H851 0.951 . S
C875 C876 1.366 . S
C875 C877 1.388 . S
C876 C875 1.366 . S
C876 C880 1.385 . S
C877 H852 0.951 . S
C877 C875 1.388 . S
C877 C878 1.366 . S
C878 C877 1.366 . S
C878 C879 1.414 . S
C878 C881 1.499 . S
C879 H853 0.950 . S
C879 C878 1.414 . S
C879 C880 1.374 . S
C880 H854 0.950 . S
C880 C876 1.385 . S
C880 C879 1.374 . S
C881 C878 1.499 . S
C881 C882 1.373 . S
C881 C883 1.389 . S
C882 H855 0.950 . S
C882 C868 1.377 . S
C882 C881 1.373 . S
C883 C867 1.377 . S
C883 C881 1.389 . S
C883 C884 1.524 . S
C884 C883 1.524 . S
C884 C885 1.397 . S
C884 C889 1.363 . S
C885 H856 0.950 . S
C885 C884 1.397 . S
C885 C886 1.334 . S
C886 H857 0.950 . S
C886 C885 1.334 . S
C886 C887 1.287 . S
C887 C886 1.287 . S
C887 C888 1.524 . S
C887 H890 0.999 . S
C888 H858 0.950 . S
C888 C887 1.524 . S
C888 C889 1.415 . S
C889 H859 0.950 . S
C889 C884 1.363 . S
C889 C888 1.415 . S
H890 C887 0.999 . S
H891 C872 0.913 . S
H892 C910 0.951 1_554 S
H893 C912 0.951 . S
H894 C914 0.950 . S
H895 C915 0.950 . S
H896 C917 0.950 . S
H897 C920 0.950 . S
H898 C921 0.950 . S
H899 C923 0.950 . S
H900 C924 0.950 . S
H901 C925 0.951 . S
H902 C927 0.951 . S
H903 C929 0.950 . S
H904 C930 0.950 . S
H905 C932 0.950 . S
H906 C935 0.950 . S
H907 C936 0.950 . S
H908 C938 0.950 . S
H909 C939 0.950 . S
C910 H892 0.951 1_556 S
C910 C911 1.366 . S
C910 C912 1.388 . S
C911 C910 1.366 . S
C911 C915 1.385 . S
C912 H893 0.951 . S
C912 C910 1.388 . S
C912 C913 1.366 . S
C913 C912 1.366 . S
C913 C914 1.414 . S
C913 C916 1.499 . S
C914 H894 0.950 . S
C914 C913 1.414 . S
C914 C915 1.374 . S
C915 H895 0.950 . S
C915 C911 1.385 . S
C915 C914 1.374 . S
C916 C913 1.499 . S
C916 C917 1.373 . S
C916 C918 1.389 . S
C917 H896 0.950 . S
C917 C916 1.373 . S
C917 C933 1.377 . S
C918 C916 1.389 . S
C918 C919 1.524 . S
C918 C932 1.377 . S
C919 C918 1.524 . S
C919 C920 1.397 . S
C919 C924 1.363 . S
C920 H897 0.950 . S
C920 C919 1.397 . S
C920 C921 1.334 1_556 S
C921 H898 0.950 . S
C921 C920 1.334 1_554 S
C921 C922 1.287 . S
C922 C921 1.287 . S
C922 C923 1.524 . S
C922 H941 0.913 . S
C923 H899 0.950 . S
C923 C922 1.524 . S
C923 C924 1.415 1_554 S
C924 H900 0.950 . S
C924 C919 1.363 . S
C924 C923 1.415 1_556 S
C925 H901 0.951 . S
C925 C926 1.366 . S
C925 C927 1.388 . S
C926 C925 1.366 . S
C926 C930 1.385 . S
C927 H902 0.951 . S
C927 C925 1.388 . S
C927 C928 1.366 . S
C928 C927 1.366 . S
C928 C929 1.414 . S
C928 C931 1.499 . S
C929 H903 0.950 . S
C929 C928 1.414 . S
C929 C930 1.374 . S
C930 H904 0.950 . S
C930 C926 1.385 . S
C930 C929 1.374 . S
C931 C928 1.499 . S
C931 C932 1.373 . S
C931 C933 1.389 . S
C932 H905 0.950 . S
C932 C918 1.377 . S
C932 C931 1.373 . S
C933 C917 1.377 . S
C933 C931 1.389 . S
C933 C934 1.524 . S
C934 C933 1.524 . S
C934 C935 1.397 . S
C934 C939 1.363 . S
C935 H906 0.950 . S
C935 C934 1.397 . S
C935 C936 1.334 . S
C936 H907 0.950 . S
C936 C935 1.334 . S
C936 C937 1.287 . S
C937 C936 1.287 . S
C937 C938 1.524 . S
C937 H940 0.999 . S
C938 H908 0.950 . S
C938 C937 1.524 . S
C938 C939 1.415 . S
C939 H909 0.950 . S
C939 C934 1.363 . S
C939 C938 1.415 . S
H940 C937 0.999 . S
H941 C922 0.913 . S
H942 C960 0.951 . S
H943 C962 0.951 . S
H944 C964 0.950 . S
H945 C965 0.950 . S
H946 C967 0.950 . S
H947 C970 0.950 . S
H948 C971 0.950 . S
H949 C973 0.950 . S
H950 C974 0.950 . S
H951 C975 0.951 . S
H952 C977 0.951 . S
H953 C979 0.950 . S
H954 C980 0.950 . S
H955 C982 0.950 . S
H956 C985 0.950 . S
H957 C986 0.950 . S
H958 C988 0.950 . S
H959 C989 0.950 . S
C960 H942 0.951 . S
C960 C961 1.366 . S
C960 C962 1.388 . S
C961 C960 1.366 . S
C961 C965 1.385 . S
C962 H943 0.951 . S
C962 C960 1.388 . S
C962 C963 1.366 . S
C963 C962 1.366 . S
C963 C964 1.414 . S
C963 C966 1.499 . S
C964 H944 0.950 . S
C964 C963 1.414 . S
C964 C965 1.374 . S
C965 H945 0.950 . S
C965 C961 1.385 . S
C965 C964 1.374 . S
C966 C963 1.499 . S
C966 C967 1.373 . S
C966 C968 1.389 . S
C967 H946 0.950 . S
C967 C966 1.373 . S
C967 C983 1.377 . S
C968 C966 1.389 . S
C968 C969 1.524 . S
C968 C982 1.377 . S
C969 C968 1.524 . S
C969 C970 1.397 . S
C969 C974 1.363 . S
C970 H947 0.950 . S
C970 C969 1.397 . S
C970 C971 1.334 . S
C971 H948 0.950 . S
C971 C970 1.334 . S
C971 C972 1.287 . S
C972 C971 1.287 . S
C972 C973 1.524 . S
C972 H991 0.913 . S
C973 H949 0.950 . S
C973 C972 1.524 . S
C973 C974 1.415 . S
C974 H950 0.950 . S
C974 C969 1.363 . S
C974 C973 1.415 . S
C975 H951 0.951 . S
C975 C976 1.366 . S
C975 C977 1.388 . S
C976 C975 1.366 . S
C976 C980 1.385 . S
C977 H952 0.951 . S
C977 C975 1.388 . S
C977 C978 1.366 . S
C978 C977 1.366 . S
C978 C979 1.414 . S
C978 C981 1.499 . S
C979 H953 0.950 . S
C979 C978 1.414 . S
C979 C980 1.374 . S
C980 H954 0.950 . S
C980 C976 1.385 . S
C980 C979 1.374 . S
C981 C978 1.499 . S
C981 C982 1.373 . S
C981 C983 1.389 . S
C982 H955 0.950 . S
C982 C968 1.377 . S
C982 C981 1.373 . S
C983 C967 1.377 . S
C983 C981 1.389 . S
C983 C984 1.524 . S
C984 C983 1.524 . S
C984 C985 1.397 . S
C984 C989 1.363 . S
C985 H956 0.950 . S
C985 C984 1.397 . S
C985 C986 1.334 . S
C986 H957 0.950 . S
C986 C985 1.334 . S
C986 C987 1.287 . S
C987 C986 1.287 . S
C987 C988 1.524 . S
C987 H990 0.999 . S
C988 H958 0.950 . S
C988 C987 1.524 . S
C988 C989 1.415 . S
C989 H959 0.950 . S
C989 C984 1.363 . S
C989 C988 1.415 . S
H990 C987 0.999 . S
H991 C972 0.913 . S
H992 C1010 0.951 . S
H993 C1012 0.951 . S
H994 C1014 0.950 . S
H995 C1015 0.950 . S
H996 C1017 0.950 . S
H997 C1020 0.950 . S
H998 C1021 0.950 . S
H999 C1023 0.950 . S
H1000 C1024 0.950 . S
H1001 C1025 0.951 . S
H1002 C1027 0.951 . S
H1003 C1029 0.950 . S
H1004 C1030 0.950 . S
H1005 C1032 0.950 . S
H1006 C1035 0.950 . S
H1007 C1036 0.950 . S
H1008 C1038 0.950 . S
H1009 C1039 0.950 . S
C1010 H992 0.951 . S
C1010 C1011 1.366 . S
C1010 C1012 1.388 . S
C1011 C1010 1.366 . S
C1011 C1015 1.385 . S
C1012 H993 0.951 . S
C1012 C1010 1.388 . S
C1012 C1013 1.366 . S
C1013 C1012 1.366 . S
C1013 C1014 1.414 . S
C1013 C1016 1.499 . S
C1014 H994 0.950 . S
C1014 C1013 1.414 . S
C1014 C1015 1.374 . S
C1015 H995 0.950 . S
C1015 C1011 1.385 . S
C1015 C1014 1.374 . S
C1016 C1013 1.499 . S
C1016 C1017 1.373 . S
C1016 C1018 1.389 . S
C1017 H996 0.950 . S
C1017 C1016 1.373 . S
C1017 C1033 1.377 . S
C1018 C1016 1.389 . S
C1018 C1019 1.524 . S
C1018 C1032 1.377 . S
C1019 C1018 1.524 . S
C1019 C1020 1.397 . S
C1019 C1024 1.363 . S
C1020 H997 0.950 . S
C1020 C1019 1.397 . S
C1020 C1021 1.334 . S
C1021 H998 0.950 . S
C1021 C1020 1.334 . S
C1021 C1022 1.287 . S
C1022 C1021 1.287 . S
C1022 C1023 1.524 . S
C1022 H1041 0.913 . S
C1023 H999 0.950 . S
C1023 C1022 1.524 . S
C1023 C1024 1.415 . S
C1024 H1000 0.950 . S
C1024 C1019 1.363 . S
C1024 C1023 1.415 . S
C1025 H1001 0.951 . S
C1025 C1026 1.366 . S
C1025 C1027 1.388 . S
C1026 C1025 1.366 . S
C1026 C1030 1.385 . S
C1027 H1002 0.951 . S
C1027 C1025 1.388 . S
C1027 C1028 1.366 . S
C1028 C1027 1.366 . S
C1028 C1029 1.414 . S
C1028 C1031 1.499 . S
C1029 H1003 0.950 . S
C1029 C1028 1.414 . S
C1029 C1030 1.374 . S
C1030 H1004 0.950 . S
C1030 C1026 1.385 . S
C1030 C1029 1.374 . S
C1031 C1028 1.499 . S
C1031 C1032 1.373 . S
C1031 C1033 1.389 . S
C1032 H1005 0.950 . S
C1032 C1018 1.377 . S
C1032 C1031 1.373 . S
C1033 C1017 1.377 . S
C1033 C1031 1.389 . S
C1033 C1034 1.524 . S
C1034 C1033 1.524 . S
C1034 C1035 1.397 . S
C1034 C1039 1.363 . S
C1035 H1006 0.950 . S
C1035 C1034 1.397 . S
C1035 C1036 1.334 . S
C1036 H1007 0.950 . S
C1036 C1035 1.334 . S
C1036 C1037 1.287 . S
C1037 C1036 1.287 . S
C1037 C1038 1.524 . S
C1037 H1040 0.999 . S
C1038 H1008 0.950 . S
C1038 C1037 1.524 . S
C1038 C1039 1.415 . S
C1039 H1009 0.950 . S
C1039 C1034 1.363 . S
C1039 C1038 1.415 . S
H1040 C1037 0.999 . S
H1041 C1022 0.913 . S
H1042 C1060 0.951 . S
H1043 C1062 0.951 . S
H1044 C1064 0.950 . S
H1045 C1065 0.950 . S
H1046 C1067 0.950 . S
H1047 C1070 0.950 . S
H1048 C1071 0.950 . S
H1049 C1073 0.950 . S
H1050 C1074 0.950 . S
H1051 C1075 0.951 . S
H1052 C1077 0.951 . S
H1053 C1079 0.950 . S
H1054 C1080 0.950 . S
H1055 C1082 0.950 . S
H1056 C1085 0.950 . S
H1057 C1086 0.950 . S
H1058 C1088 0.950 1_554 S
H1059 C1089 0.950 . S
C1060 H1042 0.951 . S
C1060 C1061 1.366 . S
C1060 C1062 1.388 . S
C1061 C1060 1.366 . S
C1061 C1065 1.385 . S
C1062 H1043 0.951 . S
C1062 C1060 1.388 . S
C1062 C1063 1.366 . S
C1063 C1062 1.366 . S
C1063 C1064 1.414 . S
C1063 C1066 1.499 . S
C1064 H1044 0.950 . S
C1064 C1063 1.414 . S
C1064 C1065 1.374 . S
C1065 H1045 0.950 . S
C1065 C1061 1.385 . S
C1065 C1064 1.374 . S
C1066 C1063 1.499 . S
C1066 C1067 1.373 . S
C1066 C1068 1.389 . S
C1067 H1046 0.950 . S
C1067 C1066 1.373 . S
C1067 C1083 1.377 . S
C1068 C1066 1.389 . S
C1068 C1069 1.524 . S
C1068 C1082 1.377 . S
C1069 C1068 1.524 . S
C1069 C1070 1.397 . S
C1069 C1074 1.363 . S
C1070 H1047 0.950 . S
C1070 C1069 1.397 . S
C1070 C1071 1.334 . S
C1071 H1048 0.950 . S
C1071 C1070 1.334 . S
C1071 C1072 1.287 . S
C1072 C1071 1.287 . S
C1072 C1073 1.524 . S
C1072 H1091 0.913 . S
C1073 H1049 0.950 . S
C1073 C1072 1.524 . S
C1073 C1074 1.415 . S
C1074 H1050 0.950 . S
C1074 C1069 1.363 . S
C1074 C1073 1.415 . S
C1075 H1051 0.951 . S
C1075 C1076 1.366 . S
C1075 C1077 1.388 . S
C1076 C1075 1.366 . S
C1076 C1080 1.385 . S
C1077 H1052 0.951 . S
C1077 C1075 1.388 . S
C1077 C1078 1.366 . S
C1078 C1077 1.366 . S
C1078 C1079 1.414 . S
C1078 C1081 1.499 . S
C1079 H1053 0.950 . S
C1079 C1078 1.414 . S
C1079 C1080 1.374 . S
C1080 H1054 0.950 . S
C1080 C1076 1.385 . S
C1080 C1079 1.374 . S
C1081 C1078 1.499 . S
C1081 C1082 1.373 . S
C1081 C1083 1.389 . S
C1082 H1055 0.950 . S
C1082 C1068 1.377 . S
C1082 C1081 1.373 . S
C1083 C1067 1.377 . S
C1083 C1081 1.389 . S
C1083 C1084 1.524 . S
C1084 C1083 1.524 . S
C1084 C1085 1.397 . S
C1084 C1089 1.363 . S
C1085 H1056 0.950 . S
C1085 C1084 1.397 . S
C1085 C1086 1.334 . S
C1086 H1057 0.950 . S
C1086 C1085 1.334 . S
C1086 C1087 1.287 . S
C1087 C1086 1.287 . S
C1087 C1088 1.524 . S
C1087 H1090 0.999 1_556 S
C1088 H1058 0.950 1_556 S
C1088 C1087 1.524 . S
C1088 C1089 1.415 . S
C1089 H1059 0.950 . S
C1089 C1084 1.363 . S
C1089 C1088 1.415 . S
H1090 C1087 0.999 1_554 S
H1091 C1072 0.913 . S
C211 C166 1.445 . S
C226 C6 1.445 . S
C261 C2 1.446 . S
C276 C34 1.446 . S
C311 C38 1.446 . S
C326 C70 1.445 . S
C361 C66 1.445 . S
C376 C98 1.445 . S
C411 C134 1.446 . S
C426 C102 1.446 . S
C461 C162 1.445 . S
C476 C130 1.445 . S
C511 N13 0.777 . S
C526 N18 0.777 . S
C561 N50 0.776 . S
C576 N45 0.777 . S
C611 N77 0.777 . S
C626 N82 0.776 . S
C661 N114 0.776 . S
C676 N109 0.777 . S
C711 N146 0.776 . S
C726 N141 0.777 . S
C761 N178 0.777 . S
C776 N173 0.777 . S
C811 C4 1.482 . S
C826 C157 1.483 . S
C861 C61 1.483 . S
C876 C164 1.482 . S
C911 C29 1.482 . S
C926 C68 1.482 . S
C961 C36 1.483 . S
C976 C125 1.482 . S
C1011 C132 1.482 . S
C1026 C93 1.483 . S
C1061 C100 1.482 . S
C1076 C189 1.482 . S
