# Generated by pormake.
# Topology wjq, (5)-cn, num edge types: 1
# Building blocks:
#     Node 0, Type 0, BuildingBlock: BEQFEK_clean_sbu_0, # of connection points: 5
#     Node 1, Type 0, BuildingBlock: BEQFEK_clean_sbu_0, # of connection points: 5
#     Node 2, Type 0, BuildingBlock: BEQFEK_clean_sbu_0, # of connection points: 5
#     Node 3, Type 0, BuildingBlock: BEQFEK_clean_sbu_0, # of connection points: 5
#     Node 4, Type 0, BuildingBlock: BEQFEK_clean_sbu_0, # of connection points: 5
#     Node 5, Type 0, BuildingBlock: BEQFEK_clean_sbu_0, # of connection points: 5
#     Node 6, Type 0, BuildingBlock: BEQFEK_clean_sbu_0, # of connection points: 5
#     Node 7, Type 0, BuildingBlock: BEQFEK_clean_sbu_0, # of connection points: 5
#     Node 8, Type 0, BuildingBlock: BEQFEK_clean_sbu_0, # of connection points: 5
#     Node 9, Type 0, BuildingBlock: BEQFEK_clean_sbu_0, # of connection points: 5
#     Node 10, Type 0, BuildingBlock: BEQFEK_clean_sbu_0, # of connection points: 5
#     Node 11, Type 0, BuildingBlock: BEQFEK_clean_sbu_0, # of connection points: 5
#     Edge 12, Type (0, 0), None
#     Edge 13, Type (0, 0), None
#     Edge 14, Type (0, 0), None
#     Edge 15, Type (0, 0), None
#     Edge 16, Type (0, 0), None
#     Edge 17, Type (0, 0), None
#     Edge 18, Type (0, 0), None
#     Edge 19, Type (0, 0), None
#     Edge 20, Type (0, 0), None
#     Edge 21, Type (0, 0), None
#     Edge 22, Type (0, 0), None
#     Edge 23, Type (0, 0), None
#     Edge 24, Type (0, 0), None
#     Edge 25, Type (0, 0), None
#     Edge 26, Type (0, 0), None
#     Edge 27, Type (0, 0), None
#     Edge 28, Type (0, 0), None
#     Edge 29, Type (0, 0), None
#     Edge 30, Type (0, 0), None
#     Edge 31, Type (0, 0), None
#     Edge 32, Type (0, 0), None
#     Edge 33, Type (0, 0), None
#     Edge 34, Type (0, 0), None
#     Edge 35, Type (0, 0), None
#     Edge 36, Type (0, 0), None
#     Edge 37, Type (0, 0), None
#     Edge 38, Type (0, 0), None
#     Edge 39, Type (0, 0), None
#     Edge 40, Type (0, 0), None
#     Edge 41, Type (0, 0), None
# Relax obj value: 0.467
# Max RMSD: 0.211
# Mean RMSD: 0.211
data_MOF--net-wjq--node1-BEQFEK_clean_sbu_0--edge1-none
_symmetry_space_group_name_H-M    P1
_symmetry_Int_Tables_number       1
_symmetry_cell_setting            triclinic
loop_
_symmetry_equiv_pos_as_xyz
'x, y, z'
_cell_length_a     18.284869
_cell_length_b     18.282711
_cell_length_c     36.439331
_cell_angle_alpha  90.006175
_cell_angle_beta   89.996917
_cell_angle_gamma 119.98909
loop_
_atom_site_label
_atom_site_type_symbol
_atom_site_fract_x
_atom_site_fract_y
_atom_site_fract_z
_atom_type_partial_charge
Co0 Co 0.218 0.08519 0.07341 0.0
Co1 Co 0.34793 0.25373 0.04544 0.0
C2 C 0.17251 0.19276 0.01921 0.0
O3 O 0.15862 0.12402 0.03467 0.0
O4 O 0.24382 0.25933 0.025 0.0
C5 C 0.10789 0.05882 0.1241 0.0
O6 O 0.15717 0.14113 0.12379 0.0
C7 C 0.45937 0.43662 0.03582 0.0
C8 C 0.58154 0.44818 0.02086 0.0
C9 C 0.54306 0.49554 0.02811 0.0
N10 N 0.44882 0.35839 0.03318 0.0
N11 N 0.52227 0.36587 0.02413 0.0
C12 C 0.39205 0.45438 0.0486 0.0
H13 H 0.341 0.39855 0.06286 0.0
H14 H 0.41902 0.50951 0.06741 0.0
H15 H 0.36493 0.46958 0.0245 0.0
C16 C 0.32575 0.13193 0.13545 0.0
N17 N 0.30411 0.15454 0.10416 0.0
N18 N 0.35398 0.23427 0.09741 0.0
C19 C 0.405 0.26731 0.12723 0.0
C20 C 0.38844 0.20248 0.15286 0.0
C21 C 0.28411 0.0428 0.14912 0.0
H22 H 0.26109 0.99798 0.12572 0.0
H23 H 0.22941 1.03019 0.16639 0.0
H24 H 0.32847 1.03186 0.16578 0.0
O25 O 0.26654 1.02995 0.05047 0.0
O26 O 0.34081 0.14894 0.01865 0.0
H27 H 0.5221 0.37348 0.11107 0.0
H28 H 0.49659 0.37319 0.15909 0.0
C29 C 0.47032 0.35844 0.13085 0.0
H30 H 0.44224 0.39815 0.12365 0.0
H31 H 0.53246 0.31491 0.02103 0.0
O32 O 0.13001 1.0136 0.10623 0.0
C33 C 0.31106 0.0685 0.02297 0.0
Co34 Co 0.17547 0.19692 0.40672 0.0
Co35 Co 0.13646 0.32663 0.37875 0.0
C36 C 1.02216 0.15114 0.35258 0.0
O37 O 0.07709 0.13732 0.36803 0.0
O38 O 1.02683 0.22243 0.35837 0.0
C39 C 0.09252 0.08679 0.4576 0.0
O40 O 1.05949 0.13607 0.45759 0.0
C41 C 0.06491 0.43802 0.36914 0.0
C42 C 0.17546 0.56019 0.35416 0.0
C43 C 0.08965 0.52171 0.36143 0.0
N44 N 0.13258 0.42747 0.36649 0.0
N45 N 0.19852 0.50092 0.35743 0.0
C46 C 0.97987 0.37071 0.38194 0.0
H47 H 0.98467 0.31964 0.39618 0.0
H48 H 0.95177 0.3977 0.40078 0.0
H49 H 0.93751 0.34361 0.35786 0.0
C50 C 0.23639 0.3048 0.46875 0.0
N51 N 0.19211 0.28303 0.43747 0.0
N52 N 0.16204 0.33274 0.43073 0.0
C53 C 0.1799 0.38374 0.46054 0.0
C54 C 0.22829 0.36735 0.48617 0.0
C55 C 0.28431 0.26355 0.48236 0.0
H56 H 0.30591 0.24038 0.45895 0.0
H57 H 0.24266 0.20902 0.4998 0.0
H58 H 0.33978 0.30826 0.49885 0.0
O59 O 0.2792 0.24571 0.38373 0.0
O60 O 0.23408 0.31962 0.3519 0.0
H61 H 0.19059 0.50075 0.44435 0.0
H62 H 0.16548 0.47531 0.49239 0.0
C63 C 0.15395 0.44898 0.46416 0.0
H64 H 0.08616 0.4208 0.45697 0.0
H65 H 0.25965 0.51111 0.35431 0.0
O66 O 0.15962 0.10905 0.43953 0.0
C67 C 0.2849 0.29003 0.35619 0.0
Co68 Co 1.02065 0.15407 0.74009 0.0
Co69 Co 0.85206 0.11531 0.71209 0.0
C70 C 0.91304 1.00076 0.68597 0.0
O71 O 0.98178 0.05565 0.70143 0.0
O72 O 0.84648 1.00556 0.69173 0.0
C73 C 1.04739 0.07077 0.79089 0.0
O74 O 0.96509 1.03775 0.79069 0.0
C75 C 0.66915 0.0438 0.70249 0.0
C76 C 0.65751 0.15435 0.68749 0.0
C77 C 0.6102 0.06854 0.69477 0.0
N78 N 0.74735 0.11147 0.69982 0.0
N79 N 0.73983 0.17742 0.69075 0.0
C80 C 0.65145 0.95877 0.7153 0.0
H81 H 0.7073 0.9636 0.72957 0.0
H82 H 0.59634 0.93065 0.73412 0.0
H83 H 0.63627 0.9164 0.69123 0.0
C84 C 0.97383 0.21523 0.80208 0.0
N85 N 0.95127 0.17092 0.7708 0.0
N86 N 0.87152 0.14091 0.76406 0.0
C87 C 0.83843 0.15885 0.79387 0.0
C88 C 0.90323 0.20722 0.8195 0.0
C89 C 1.06298 0.26303 0.81568 0.0
H90 H 0.10773 0.28467 0.79227 0.0
H91 H 0.07581 0.22126 0.83307 0.0
H92 H 0.0738 0.31846 0.83222 0.0
O93 O 0.07579 0.25774 0.71707 0.0
O94 O 0.95679 0.21291 0.68525 0.0
H95 H 0.73215 0.16958 0.77769 0.0
H96 H 0.73251 0.14452 0.82572 0.0
C97 C 0.74727 0.13294 0.7975 0.0
H98 H 0.70765 0.06514 0.79033 0.0
H99 H 0.79076 0.23855 0.68762 0.0
O100 O 0.09244 0.138 0.77294 0.0
C101 C 1.03721 0.26362 0.68956 0.0
Co102 Co 0.90891 0.99983 0.07344 0.0
Co103 Co 0.77927 0.83104 0.04544 0.0
C104 C 0.95479 0.89221 0.01934 0.0
O105 O 0.96859 0.96096 0.0348 0.0
O106 O 0.88349 0.8256 0.02509 0.0
C107 C 1.01923 1.02768 0.12438 0.0
O108 O 0.97011 0.94537 0.12466 0.0
C109 C 0.66793 0.64808 0.03583 0.0
C110 C 0.54576 0.63647 0.02084 0.0
C111 C 0.58425 0.58913 0.02811 0.0
N112 N 0.67846 0.7263 0.03318 0.0
N113 N 0.60501 0.71879 0.02411 0.0
C114 C 0.73526 0.63034 0.04862 0.0
H115 H 0.78631 0.6862 0.06286 0.0
H116 H 0.70828 0.57525 0.06745 0.0
H117 H 0.76235 0.61509 0.02453 0.0
C118 C 0.80104 0.9528 0.13547 0.0
N119 N 0.82289 0.93032 0.10419 0.0
N120 N 0.77319 0.85056 0.09742 0.0
C121 C 0.72214 0.81739 0.12722 0.0
C122 C 0.73847 0.88215 0.15286 0.0
C123 C 0.84207 1.04198 0.14905 0.0
H124 H 0.86516 0.0867 0.12562 0.0
H125 H 0.89662 0.05503 0.16651 0.0
H126 H 0.79726 0.05265 0.1655 0.0
O127 O 0.85998 0.05463 0.0504 0.0
O128 O 0.78629 0.93563 0.01854 0.0
H129 H 0.60515 0.71118 0.11097 0.0
H130 H 0.6305 0.71139 0.15901 0.0
C131 C 0.65688 0.72623 0.13079 0.0
H132 H 0.68504 0.68659 0.12359 0.0
H133 H 0.5948 0.76974 0.02099 0.0
O134 O 0.99669 0.07219 0.10623 0.0
C135 C 0.81582 1.01603 0.02283 0.0
Co136 Co 0.95194 0.88802 0.40688 0.0
Co137 Co 0.9906 0.75808 0.37883 0.0
C138 C 0.10517 0.93358 0.35273 0.0
O139 O 1.05036 0.94752 0.36823 0.0
O140 O 0.10031 0.86219 0.35845 0.0
C141 C 1.03499 0.99814 0.45772 0.0
O142 O 0.06812 0.94894 0.4577 0.0
C143 C 1.06204 0.64662 0.36919 0.0
C144 C 0.95146 0.52448 0.35419 0.0
C145 C 1.03727 0.56293 0.36145 0.0
N146 N 0.99439 0.6572 0.36655 0.0
N147 N 0.92842 0.58376 0.35748 0.0
C148 C 0.14709 0.71391 0.38198 0.0
H149 H 0.1423 0.76494 0.39627 0.0
H150 H 0.17522 0.68688 0.40078 0.0
H151 H 0.18942 0.74107 0.3579 0.0
C152 C 0.89082 0.78004 0.46886 0.0
N153 N 0.93516 0.80183 0.43759 0.0
N154 N 0.96506 0.75199 0.43081 0.0
C155 C 0.94703 0.70086 0.46059 0.0
C156 C 0.89869 0.71731 0.48622 0.0
C157 C 0.84306 0.82143 0.48249 0.0
H158 H 0.82137 0.84452 0.45909 0.0
H159 H 0.88489 0.87606 0.49986 0.0
H160 H 0.78768 0.77687 0.49906 0.0
O161 O 0.84829 0.83952 0.38383 0.0
O162 O 0.893 0.76521 0.35202 0.0
H163 H 0.93607 0.58376 0.44434 0.0
H164 H 0.96124 0.60911 0.49238 0.0
C165 C 0.9728 0.63548 0.46416 0.0
H166 H 1.04057 0.66355 0.45697 0.0
H167 H 0.8673 0.5736 0.35437 0.0
O168 O 0.9678 0.97583 0.43972 0.0
C169 C 0.84233 0.79498 0.35633 0.0
Co170 Co 0.10606 0.93049 0.74016 0.0
Co171 Co 0.27475 0.96935 0.71215 0.0
C172 C 0.2136 0.08375 0.68599 0.0
O173 O 0.14488 1.0289 0.70148 0.0
O174 O 0.28018 0.07898 0.69174 0.0
C175 C 0.07853 1.01324 0.79108 0.0
O176 O 0.16084 0.04639 0.79125 0.0
C177 C 0.45768 1.0409 0.70251 0.0
C178 C 0.4693 0.93032 0.68755 0.0
C179 C 0.51662 1.01615 0.6948 0.0
N180 N 0.37947 0.97322 0.69988 0.0
N181 N 0.38699 0.90725 0.69083 0.0
C182 C 0.47539 0.12598 0.71528 0.0
H183 H 0.41955 0.1212 0.72953 0.0
H184 H 0.53051 0.15414 0.73409 0.0
H185 H 0.49059 0.16828 0.69118 0.0
C186 C 0.15304 0.86957 0.80217 0.0
N187 N 0.17555 0.91391 0.7709 0.0
N188 N 0.25529 0.94386 0.76413 0.0
C189 C 0.28841 0.92588 0.79391 0.0
C190 C 0.22366 0.87751 0.81955 0.0
C191 C 0.06389 0.8216 0.81577 0.0
H192 H 1.01915 0.79993 0.79235 0.0
H193 H 1.05093 0.86325 0.83318 0.0
H194 H 1.05316 0.76617 0.83228 0.0
O195 O 1.05113 0.82675 0.71715 0.0
O196 O 0.17011 0.8717 0.68531 0.0
H197 H 0.39452 0.91488 0.77767 0.0
H198 H 0.39438 0.94012 0.8257 0.0
C199 C 0.37955 0.95165 0.79748 0.0
H200 H 0.41923 1.01941 0.79027 0.0
H201 H 0.33606 0.84611 0.68773 0.0
O202 O 1.0339 0.94616 0.77297 0.0
C203 C 0.08971 0.82094 0.68962 0.0
Co204 Co 1.02067 0.88748 0.60658 0.0
Co205 Co 0.85206 0.75771 0.63454 0.0
C206 C 0.91305 0.93313 0.66073 0.0
O207 O 0.98182 0.94693 0.64531 0.0
O208 O 0.84646 0.86186 0.65491 0.0
C209 C 1.04739 0.99778 0.55588 0.0
O210 O 0.96509 0.94853 0.55605 0.0
C211 C 0.66918 0.64643 0.64413 0.0
C212 C 0.65746 0.52422 0.65915 0.0
C213 C 0.61019 0.56278 0.65186 0.0
N214 N 0.74736 0.65689 0.6468 0.0
N215 N 0.73979 0.58341 0.65588 0.0
C216 C 0.65154 0.7138 0.6313 0.0
H217 H 0.70739 0.76474 0.617 0.0
H218 H 0.59639 0.68683 0.6125 0.0
H219 H 0.63645 0.74107 0.65538 0.0
C220 C 0.97379 0.77988 0.54447 0.0
N221 N 0.95125 0.80145 0.57581 0.0
N222 N 0.8715 0.75164 0.58256 0.0
C223 C 0.83835 0.70073 0.55272 0.0
C224 C 0.90313 0.71743 0.52706 0.0
C225 C 1.06292 0.82124 0.53085 0.0
H226 H 0.10767 0.84406 0.55426 0.0
H227 H 0.07583 0.87605 0.5136 0.0
H228 H 0.07368 0.77676 0.51418 0.0
O229 O 0.07576 0.83868 0.62948 0.0
O230 O 0.95678 0.76482 0.66138 0.0
H231 H 0.73198 0.58382 0.56893 0.0
H232 H 0.73244 0.60913 0.52087 0.0
C233 C 0.74718 0.63553 0.54909 0.0
H234 H 0.70761 0.6638 0.5562 0.0
H235 H 0.79069 0.57315 0.65902 0.0
O236 O 0.09243 0.97551 0.57379 0.0
C237 C 1.03717 0.7944 0.65703 0.0
Co238 Co 0.17568 0.99971 0.93991 0.0
Co239 Co 0.13666 0.83099 0.96786 0.0
C240 C 1.02242 0.8922 0.99409 0.0
O241 O 0.07739 0.96096 0.97866 0.0
O242 O 1.02704 0.82556 0.98826 0.0
C243 C 0.09253 1.02688 0.88909 0.0
O244 O 1.05949 0.94457 0.88908 0.0
C245 C 0.06502 0.64809 0.97747 0.0
C246 C 0.17549 0.63634 0.99248 0.0
C247 C 0.08968 0.58909 0.98519 0.0
N248 N 0.13273 0.72626 0.98012 0.0
N249 N 0.19863 0.71868 0.9892 0.0
C250 C 0.98002 0.63045 0.96465 0.0
H251 H 0.9849 0.68632 0.95037 0.0
H252 H 0.95186 0.57532 0.94583 0.0
H253 H 0.93767 0.61532 0.98873 0.0
C254 C 0.23626 0.95267 0.87779 0.0
N255 N 0.19215 0.93019 0.90913 0.0
N256 N 0.16214 0.85042 0.91588 0.0
C257 C 0.17985 0.8172 0.88605 0.0
C258 C 0.22797 0.88195 0.86038 0.0
C259 C 0.28423 1.04182 0.8642 0.0
H260 H 0.30605 0.08656 0.88762 0.0
H261 H 0.24254 0.05485 0.84685 0.0
H262 H 0.33956 0.05249 0.84762 0.0
O263 O 0.27958 0.0546 0.96281 0.0
O264 O 0.23429 0.9356 0.99471 0.0
H265 H 0.19035 0.7108 0.90228 0.0
H266 H 0.16547 0.71121 0.85422 0.0
C267 C 0.15384 0.72601 0.88243 0.0
H268 H 0.08602 0.68646 0.88955 0.0
H269 H 0.25978 0.76958 0.99233 0.0
O270 O 0.15967 0.07171 0.90714 0.0
C271 C 0.28517 1.01598 0.99037 0.0
Co272 Co 0.21816 0.15415 0.27321 0.0
Co273 Co 0.34807 0.11551 0.30117 0.0
C274 C 0.17274 1.00115 0.32745 0.0
O275 O 0.15886 0.05604 0.31201 0.0
O276 O 0.244 1.00581 0.32161 0.0
C277 C 0.10788 0.07023 0.22258 0.0
O278 O 0.15717 1.03721 0.22286 0.0
C279 C 0.45943 0.044 0.31079 0.0
C280 C 0.5816 0.15452 0.32579 0.0
C281 C 0.54308 0.0687 0.31852 0.0
N282 N 0.44892 0.11171 0.31343 0.0
N283 N 0.52238 0.17764 0.3225 0.0
C284 C 0.39209 0.95897 0.29799 0.0
H285 H 0.34112 0.96383 0.28369 0.0
H286 H 0.41908 0.93077 0.2792 0.0
H287 H 0.36487 0.91665 0.32207 0.0
C288 C 0.32564 0.2148 0.21108 0.0
N289 N 0.30415 0.17074 0.24243 0.0
N290 N 0.35408 0.14093 0.24919 0.0
C291 C 0.40503 0.15875 0.21936 0.0
C292 C 0.38821 0.20674 0.19369 0.0
C293 C 0.284 0.26228 0.1974 0.0
H294 H 0.26119 0.2843 0.22079 0.0
H295 H 0.22914 0.22012 0.18023 0.0
H296 H 0.32827 0.31742 0.18064 0.0
O297 O 0.2669 0.25809 0.29607 0.0
O298 O 0.34098 0.21318 0.32795 0.0
H299 H 0.52202 0.16946 0.23556 0.0
H300 H 0.49667 0.14449 0.18751 0.0
C301 C 0.4703 0.13287 0.21573 0.0
H302 H 0.44214 0.06505 0.22287 0.0
H303 H 0.5326 0.23879 0.32562 0.0
O304 O 0.13003 0.1376 0.24043 0.0
C305 C 0.31132 0.26393 0.32359 0.0
Co306 Co 0.10604 0.19699 0.6065 0.0
Co307 Co 0.27475 0.32676 0.63448 0.0
C308 C 0.21359 0.15133 0.66071 0.0
O309 O 0.14484 0.1375 0.64526 0.0
O310 O 0.2802 0.22259 0.6549 0.0
C311 C 0.07857 0.08646 0.55569 0.0
O312 O 0.16089 0.13559 0.55552 0.0
C313 C 0.45765 0.43802 0.64411 0.0
C314 C 0.46936 0.56026 0.65909 0.0
C315 C 0.51663 0.52168 0.65183 0.0
N316 N 0.37947 0.42757 0.64674 0.0
N317 N 0.38703 0.50107 0.6558 0.0
C318 C 0.4753 0.37062 0.63133 0.0
H319 H 0.41946 0.31963 0.61704 0.0
H320 H 0.53045 0.39756 0.61253 0.0
H321 H 0.49041 0.34343 0.65542 0.0
C322 C 0.15309 0.30451 0.54437 0.0
N323 N 0.17558 0.28287 0.5757 0.0
N324 N 0.2553 0.33272 0.5825 0.0
C325 C 0.28849 0.38372 0.55268 0.0
C326 C 0.22376 0.36705 0.52701 0.0
C327 C 0.06395 0.26331 0.53076 0.0
H328 H 1.01922 0.24054 0.55418 0.0
H329 H 1.05091 0.20849 0.51349 0.0
H330 H 1.05327 0.30788 0.51412 0.0
O331 O 1.05117 0.24608 0.6294 0.0
O332 O 0.17012 0.31979 0.66132 0.0
H333 H 0.39469 0.50071 0.56895 0.0
H334 H 0.39445 0.47544 0.5209 0.0
C335 C 0.37964 0.44902 0.54911 0.0
H336 H 0.41928 0.42085 0.55627 0.0
H337 H 0.33613 0.51133 0.65891 0.0
O338 O 1.03392 0.10898 0.57376 0.0
C339 C 0.08975 0.29028 0.65697 0.0
Co340 Co 0.95174 0.08509 0.93976 0.0
Co341 Co 0.99041 0.25368 0.96778 0.0
C342 C 0.10493 0.19275 0.99393 0.0
O343 O 1.05009 0.12399 0.97846 0.0
O344 O 0.10012 0.2593 0.98817 0.0
C345 C 1.03501 0.05805 0.88897 0.0
O346 O 0.06815 0.14037 0.88898 0.0
C347 C 1.06193 0.43654 0.97742 0.0
C348 C 0.95143 0.44824 0.99245 0.0
C349 C 1.03724 0.49552 0.98517 0.0
N350 N 0.99423 0.35835 0.98006 0.0
N351 N 0.92832 0.36591 0.98915 0.0
C352 C 0.14694 0.45421 0.9646 0.0
H353 H 0.14207 0.39839 0.95028 0.0
H354 H 0.17513 0.50941 0.94583 0.0
H355 H 0.18926 0.46925 0.98868 0.0
C356 C 0.89096 0.13203 0.87769 0.0
N357 N 0.93512 0.15455 0.90901 0.0
N358 N 0.96496 0.23428 0.9158 0.0
C359 C 0.94708 0.26745 0.88601 0.0
C360 C 0.89902 0.20269 0.86033 0.0
C361 C 0.84316 0.04289 0.86406 0.0
H362 H 0.82124 0.99813 0.88747 0.0
H363 H 0.88504 1.02996 0.8468 0.0
H364 H 0.78793 1.03215 0.8474 0.0
O365 O 0.84793 1.02998 0.96271 0.0
O366 O 0.8928 0.14896 0.99459 0.0
H367 H 0.93631 0.37368 0.90229 0.0
H368 H 0.96124 0.3734 0.85422 0.0
C369 C 0.9729 0.3586 0.88243 0.0
H370 H 1.04071 0.39825 0.88956 0.0
H371 H 0.86717 0.31499 0.99227 0.0
O372 O 0.96778 1.01318 0.90695 0.0
C373 C 0.84207 0.06856 0.99023 0.0
Co374 Co 0.90874 0.93006 0.27319 0.0
Co375 Co 0.77912 0.96924 0.30117 0.0
C376 C 0.95456 0.08351 0.32732 0.0
O377 O 0.96834 1.02851 0.31189 0.0
O378 O 0.8833 0.07888 0.32152 0.0
C379 C 1.01922 1.01273 0.22231 0.0
O380 O 0.97008 0.04593 0.22202 0.0
C381 C 0.66786 1.04091 0.31078 0.0
C382 C 0.54568 0.93043 0.32581 0.0
C383 C 0.58421 1.01625 0.31852 0.0
N384 N 0.67834 0.9732 0.31343 0.0
N385 N 0.60489 0.90729 0.32252 0.0
C386 C 0.7352 0.12593 0.29797 0.0
H387 H 0.78618 0.12105 0.28368 0.0
H388 H 0.70822 0.15408 0.27916 0.0
H389 H 0.7624 0.16828 0.32204 0.0
C390 C 0.80114 0.86957 0.21107 0.0
N391 N 0.82283 0.91372 0.2424 0.0
N392 N 0.77308 0.94373 0.24919 0.0
C393 C 0.72211 0.926 0.21937 0.0
C394 C 0.7387 0.87786 0.19369 0.0
C395 C 0.84217 0.82143 0.19748 0.0
H396 H 0.86505 0.79958 0.2209 0.0
H397 H 0.89687 0.863 0.18011 0.0
H398 H 0.79743 0.76609 0.18093 0.0
O399 O 0.85963 0.82618 0.29614 0.0
O400 O 0.78612 0.87167 0.32806 0.0
H401 H 0.60523 0.91545 0.23565 0.0
H402 H 0.63043 0.94035 0.18759 0.0
C403 C 0.65689 0.95198 0.21579 0.0
H404 H 0.68514 1.01981 0.22293 0.0
H405 H 0.59466 0.84614 0.32565 0.0
O406 O 0.99666 0.94565 0.24044 0.0
C407 C 0.81556 0.82074 0.32373 0.0
loop_
_geom_bond_atom_site_label_1
_geom_bond_atom_site_label_2
_geom_bond_distance
_geom_bond_site_symmetry_2
_ccdc_geom_bond_type
Co0 O3 1.970 . S
Co0 N17 1.989 . S
Co0 O25 1.967 . S
Co0 O32 1.920 1_545 S
Co1 O4 1.966 . S
Co1 N10 2.022 . S
Co1 N18 1.993 . S
Co1 O26 1.941 . S
C2 O3 1.258 . S
C2 O4 1.263 . S
O3 Co0 1.970 . S
O3 C2 1.258 . S
O4 Co1 1.966 . S
O4 C2 1.263 . S
C5 O6 1.235 1_565 S
C5 O32 1.289 1_655 S
O6 C5 1.235 1_545 S
C7 C9 1.400 . S
C7 N10 1.351 . S
C7 C12 1.501 . S
C8 C9 1.387 . S
C8 N11 1.341 . S
C9 C7 1.400 . S
C9 C8 1.387 . S
N10 Co1 2.022 . S
N10 C7 1.351 . S
N10 N11 1.365 . S
N11 C8 1.341 . S
N11 N10 1.365 . S
N11 H31 0.862 . S
C12 C7 1.501 . S
C12 H13 0.961 . S
C12 H14 0.961 . S
C12 H15 0.960 1_554 S
H13 C12 0.961 . S
H14 C12 0.961 . S
H15 C12 0.960 1_556 S
C16 N17 1.342 . S
C16 C20 1.401 . S
C16 C21 1.499 . S
N17 Co0 1.989 . S
N17 C16 1.342 . S
N17 N18 1.388 . S
N18 Co1 1.993 . S
N18 N17 1.388 . S
N18 C19 1.346 . S
C19 N18 1.346 . S
C19 C20 1.396 . S
C19 C29 1.510 . S
C20 C16 1.401 . S
C20 C19 1.396 . S
C21 C16 1.499 . S
C21 H22 0.959 . S
C21 H23 0.960 . S
C21 H24 0.961 1_545 S
H22 C21 0.959 . S
H23 C21 0.960 . S
H24 C21 0.961 1_565 S
O25 Co0 1.967 . S
O25 C33 1.258 1_554 S
O26 Co1 1.941 . S
O26 C33 1.266 1_554 S
H27 C29 0.959 . S
H28 C29 0.961 . S
C29 C19 1.510 . S
C29 H27 0.959 . S
C29 H28 0.961 . S
C29 H30 0.960 . S
H30 C29 0.960 . S
H31 N11 0.862 . S
O32 Co0 1.920 1_565 S
O32 C5 1.289 1_455 S
C33 O25 1.258 1_556 S
C33 O26 1.266 1_556 S
Co34 O37 1.970 1_455 S
Co34 N51 1.989 . S
Co34 O59 1.967 . S
Co34 O66 1.920 . S
Co35 O38 1.966 . S
Co35 N44 2.022 . S
Co35 N52 1.993 . S
Co35 O60 1.941 . S
C36 O37 1.258 . S
C36 O38 1.263 1_655 S
O37 Co34 1.970 1_655 S
O37 C36 1.258 . S
O38 Co35 1.966 . S
O38 C36 1.263 1_455 S
C39 O40 1.235 1_455 S
C39 O66 1.289 1_565 S
O40 C39 1.235 1_655 S
C41 C43 1.400 . S
C41 N44 1.351 . S
C41 C46 1.501 1_455 S
C42 C43 1.387 . S
C42 N45 1.341 . S
C43 C41 1.400 . S
C43 C42 1.387 . S
N44 Co35 2.022 . S
N44 C41 1.351 . S
N44 N45 1.365 . S
N45 C42 1.341 . S
N45 N44 1.365 . S
N45 H65 0.862 . S
C46 C41 1.501 1_655 S
C46 H47 0.961 . S
C46 H48 0.961 . S
C46 H49 0.960 . S
H47 C46 0.961 . S
H48 C46 0.961 . S
H49 C46 0.960 . S
C50 N51 1.342 . S
C50 C54 1.401 . S
C50 C55 1.499 . S
N51 Co34 1.989 . S
N51 C50 1.342 . S
N51 N52 1.388 . S
N52 Co35 1.993 . S
N52 N51 1.388 . S
N52 C53 1.346 . S
C53 N52 1.346 . S
C53 C54 1.396 . S
C53 C63 1.510 . S
C54 C50 1.401 . S
C54 C53 1.396 . S
C55 C50 1.499 . S
C55 H56 0.959 . S
C55 H57 0.960 . S
C55 H58 0.961 . S
H56 C55 0.959 . S
H57 C55 0.960 . S
H58 C55 0.961 . S
O59 Co34 1.967 . S
O59 C67 1.258 . S
O60 Co35 1.941 . S
O60 C67 1.266 . S
H61 C63 0.959 . S
H62 C63 0.961 . S
C63 C53 1.510 . S
C63 H61 0.959 . S
C63 H62 0.961 . S
C63 H64 0.960 . S
H64 C63 0.960 . S
H65 N45 0.862 . S
O66 Co34 1.920 . S
O66 C39 1.289 1_545 S
C67 O59 1.258 . S
C67 O60 1.266 . S
Co68 O71 1.970 1_545 S
Co68 N85 1.989 . S
Co68 O93 1.967 . S
Co68 O100 1.920 1_655 S
Co69 O72 1.966 . S
Co69 N78 2.022 . S
Co69 N86 1.993 . S
Co69 O94 1.941 . S
C70 O71 1.258 . S
C70 O72 1.263 1_565 S
O71 Co68 1.970 1_565 S
O71 C70 1.258 . S
O72 Co69 1.966 . S
O72 C70 1.263 1_545 S
C73 O74 1.235 1_445 S
C73 O100 1.289 . S
O74 C73 1.235 1_665 S
C75 C77 1.400 . S
C75 N78 1.351 . S
C75 C80 1.501 1_545 S
C76 C77 1.387 . S
C76 N79 1.341 . S
C77 C75 1.400 . S
C77 C76 1.387 . S
N78 Co69 2.022 . S
N78 C75 1.351 . S
N78 N79 1.365 . S
N79 C76 1.341 . S
N79 N78 1.365 . S
N79 H99 0.862 . S
C80 C75 1.501 1_565 S
C80 H81 0.961 . S
C80 H82 0.961 . S
C80 H83 0.960 . S
H81 C80 0.961 . S
H82 C80 0.961 . S
H83 C80 0.960 . S
C84 N85 1.342 . S
C84 C88 1.401 . S
C84 C89 1.499 . S
N85 Co68 1.989 . S
N85 C84 1.342 . S
N85 N86 1.388 . S
N86 Co69 1.993 . S
N86 N85 1.388 . S
N86 C87 1.346 . S
C87 N86 1.346 . S
C87 C88 1.396 . S
C87 C97 1.510 . S
C88 C84 1.401 . S
C88 C87 1.396 . S
C89 C84 1.499 . S
C89 H90 0.959 . S
C89 H91 0.960 . S
C89 H92 0.961 1_655 S
H90 C89 0.959 . S
H91 C89 0.960 . S
H92 C89 0.961 1_455 S
O93 Co68 1.967 . S
O93 C101 1.258 . S
O94 Co69 1.941 . S
O94 C101 1.266 . S
H95 C97 0.959 . S
H96 C97 0.961 . S
C97 C87 1.510 . S
C97 H95 0.959 . S
C97 H96 0.961 . S
C97 H98 0.960 . S
H98 C97 0.960 . S
H99 N79 0.862 . S
O100 Co68 1.920 1_455 S
O100 C73 1.289 . S
C101 O93 1.258 . S
C101 O94 1.266 . S
Co102 O105 1.970 . S
Co102 N119 1.989 . S
Co102 O127 1.967 . S
Co102 O134 1.920 1_565 S
Co103 O106 1.966 . S
Co103 N112 2.022 . S
Co103 N120 1.993 . S
Co103 O128 1.941 . S
C104 O105 1.258 . S
C104 O106 1.263 . S
O105 Co102 1.970 . S
O105 C104 1.258 . S
O106 Co103 1.966 . S
O106 C104 1.263 . S
C107 O108 1.235 1_545 S
C107 O134 1.289 1_455 S
O108 C107 1.235 1_565 S
C109 C111 1.400 . S
C109 N112 1.351 . S
C109 C114 1.501 . S
C110 C111 1.387 . S
C110 N113 1.341 . S
C111 C109 1.400 . S
C111 C110 1.387 . S
N112 Co103 2.022 . S
N112 C109 1.351 . S
N112 N113 1.365 . S
N113 C110 1.341 . S
N113 N112 1.365 . S
N113 H133 0.862 . S
C114 C109 1.501 . S
C114 H115 0.961 . S
C114 H116 0.961 . S
C114 H117 0.960 1_554 S
H115 C114 0.961 . S
H116 C114 0.961 . S
H117 C114 0.960 1_556 S
C118 N119 1.342 . S
C118 C122 1.401 . S
C118 C123 1.499 . S
N119 Co102 1.989 . S
N119 C118 1.342 . S
N119 N120 1.388 . S
N120 Co103 1.993 . S
N120 N119 1.388 . S
N120 C121 1.346 . S
C121 N120 1.346 . S
C121 C122 1.396 . S
C121 C131 1.510 . S
C122 C118 1.401 . S
C122 C121 1.396 . S
C123 C118 1.499 . S
C123 H124 0.959 . S
C123 H125 0.960 . S
C123 H126 0.961 1_565 S
H124 C123 0.959 . S
H125 C123 0.960 . S
H126 C123 0.961 1_545 S
O127 Co102 1.967 . S
O127 C135 1.258 1_554 S
O128 Co103 1.941 . S
O128 C135 1.266 1_554 S
H129 C131 0.959 . S
H130 C131 0.961 . S
C131 C121 1.510 . S
C131 H129 0.959 . S
C131 H130 0.961 . S
C131 H132 0.960 . S
H132 C131 0.960 . S
H133 N113 0.862 . S
O134 Co102 1.920 1_545 S
O134 C107 1.289 1_655 S
C135 O127 1.258 1_556 S
C135 O128 1.266 1_556 S
Co136 O139 1.970 1_655 S
Co136 N153 1.989 . S
Co136 O161 1.967 . S
Co136 O168 1.920 . S
Co137 O140 1.966 . S
Co137 N146 2.022 . S
Co137 N154 1.993 . S
Co137 O162 1.941 . S
C138 O139 1.258 . S
C138 O140 1.263 1_455 S
O139 Co136 1.970 1_455 S
O139 C138 1.258 . S
O140 Co137 1.966 . S
O140 C138 1.263 1_655 S
C141 O142 1.235 1_655 S
C141 O168 1.289 1_545 S
O142 C141 1.235 1_455 S
C143 C145 1.400 . S
C143 N146 1.351 . S
C143 C148 1.501 1_655 S
C144 C145 1.387 . S
C144 N147 1.341 . S
C145 C143 1.400 . S
C145 C144 1.387 . S
N146 Co137 2.022 . S
N146 C143 1.351 . S
N146 N147 1.365 . S
N147 C144 1.341 . S
N147 N146 1.365 . S
N147 H167 0.862 . S
C148 C143 1.501 1_455 S
C148 H149 0.961 . S
C148 H150 0.961 . S
C148 H151 0.960 . S
H149 C148 0.961 . S
H150 C148 0.961 . S
H151 C148 0.960 . S
C152 N153 1.342 . S
C152 C156 1.401 . S
C152 C157 1.499 . S
N153 Co136 1.989 . S
N153 C152 1.342 . S
N153 N154 1.388 . S
N154 Co137 1.993 . S
N154 N153 1.388 . S
N154 C155 1.346 . S
C155 N154 1.346 . S
C155 C156 1.396 . S
C155 C165 1.510 . S
C156 C152 1.401 . S
C156 C155 1.396 . S
C157 C152 1.499 . S
C157 H158 0.959 . S
C157 H159 0.960 . S
C157 H160 0.961 . S
H158 C157 0.959 . S
H159 C157 0.960 . S
H160 C157 0.961 . S
O161 Co136 1.967 . S
O161 C169 1.258 . S
O162 Co137 1.941 . S
O162 C169 1.266 . S
H163 C165 0.959 . S
H164 C165 0.961 . S
C165 C155 1.510 . S
C165 H163 0.959 . S
C165 H164 0.961 . S
C165 H166 0.960 . S
H166 C165 0.960 . S
H167 N147 0.862 . S
O168 Co136 1.920 . S
O168 C141 1.289 1_565 S
C169 O161 1.258 . S
C169 O162 1.266 . S
Co170 O173 1.970 1_565 S
Co170 N187 1.989 . S
Co170 O195 1.967 . S
Co170 O202 1.920 1_455 S
Co171 O174 1.966 . S
Co171 N180 2.022 . S
Co171 N188 1.993 . S
Co171 O196 1.941 . S
C172 O173 1.258 . S
C172 O174 1.263 1_545 S
O173 Co170 1.970 1_545 S
O173 C172 1.258 . S
O174 Co171 1.966 . S
O174 C172 1.263 1_565 S
C175 O176 1.235 1_665 S
C175 O202 1.289 . S
O176 C175 1.235 1_445 S
C177 C179 1.400 . S
C177 N180 1.351 . S
C177 C182 1.501 1_565 S
C178 C179 1.387 . S
C178 N181 1.341 . S
C179 C177 1.400 . S
C179 C178 1.387 . S
N180 Co171 2.022 . S
N180 C177 1.351 . S
N180 N181 1.365 . S
N181 C178 1.341 . S
N181 N180 1.365 . S
N181 H201 0.862 . S
C182 C177 1.501 1_545 S
C182 H183 0.961 . S
C182 H184 0.961 . S
C182 H185 0.960 . S
H183 C182 0.961 . S
H184 C182 0.961 . S
H185 C182 0.960 . S
C186 N187 1.342 . S
C186 C190 1.401 . S
C186 C191 1.499 . S
N187 Co170 1.989 . S
N187 C186 1.342 . S
N187 N188 1.388 . S
N188 Co171 1.993 . S
N188 N187 1.388 . S
N188 C189 1.346 . S
C189 N188 1.346 . S
C189 C190 1.396 . S
C189 C199 1.510 . S
C190 C186 1.401 . S
C190 C189 1.396 . S
C191 C186 1.499 . S
C191 H192 0.959 . S
C191 H193 0.960 . S
C191 H194 0.961 1_455 S
H192 C191 0.959 . S
H193 C191 0.960 . S
H194 C191 0.961 1_655 S
O195 Co170 1.967 . S
O195 C203 1.258 . S
O196 Co171 1.941 . S
O196 C203 1.266 . S
H197 C199 0.959 . S
H198 C199 0.961 . S
C199 C189 1.510 . S
C199 H197 0.959 . S
C199 H198 0.961 . S
C199 H200 0.960 . S
H200 C199 0.960 . S
H201 N181 0.862 . S
O202 Co170 1.920 1_655 S
O202 C175 1.289 . S
C203 O195 1.258 . S
C203 O196 1.266 . S
Co204 O207 1.970 . S
Co204 N221 1.989 . S
Co204 O229 1.967 . S
Co204 O236 1.920 1_655 S
Co205 O208 1.966 . S
Co205 N214 2.022 . S
Co205 N222 1.993 . S
Co205 O230 1.941 . S
C206 O207 1.258 . S
C206 O208 1.263 . S
O207 Co204 1.970 . S
O207 C206 1.258 . S
O208 Co205 1.966 . S
O208 C206 1.263 . S
C209 O210 1.235 1_455 S
C209 O236 1.289 1_545 S
O210 C209 1.235 1_655 S
C211 C213 1.400 . S
C211 N214 1.351 . S
C211 C216 1.501 . S
C212 C213 1.387 . S
C212 N215 1.341 . S
C213 C211 1.400 . S
C213 C212 1.387 . S
N214 Co205 2.022 . S
N214 C211 1.351 . S
N214 N215 1.365 . S
N215 C212 1.341 . S
N215 N214 1.365 . S
N215 H235 0.862 . S
C216 C211 1.501 . S
C216 H217 0.961 . S
C216 H218 0.961 . S
C216 H219 0.960 . S
H217 C216 0.961 . S
H218 C216 0.961 . S
H219 C216 0.960 . S
C220 N221 1.342 . S
C220 C224 1.401 . S
C220 C225 1.499 . S
N221 Co204 1.989 . S
N221 C220 1.342 . S
N221 N222 1.388 . S
N222 Co205 1.993 . S
N222 N221 1.388 . S
N222 C223 1.346 . S
C223 N222 1.346 . S
C223 C224 1.396 . S
C223 C233 1.510 . S
C224 C220 1.401 . S
C224 C223 1.396 . S
C225 C220 1.499 . S
C225 H226 0.959 . S
C225 H227 0.960 . S
C225 H228 0.961 1_655 S
H226 C225 0.959 . S
H227 C225 0.960 . S
H228 C225 0.961 1_455 S
O229 Co204 1.967 . S
O229 C237 1.258 . S
O230 Co205 1.941 . S
O230 C237 1.266 . S
H231 C233 0.959 . S
H232 C233 0.961 . S
C233 C223 1.510 . S
C233 H231 0.959 . S
C233 H232 0.961 . S
C233 H234 0.960 . S
H234 C233 0.960 . S
H235 N215 0.862 . S
O236 Co204 1.920 1_455 S
O236 C209 1.289 1_565 S
C237 O229 1.258 . S
C237 O230 1.266 . S
Co238 O241 1.970 1_455 S
Co238 N255 1.989 . S
Co238 O263 1.967 . S
Co238 O270 1.920 1_565 S
Co239 O242 1.966 . S
Co239 N248 2.022 . S
Co239 N256 1.993 . S
Co239 O264 1.941 . S
C240 O241 1.258 . S
C240 O242 1.263 1_655 S
O241 Co238 1.970 1_655 S
O241 C240 1.258 . S
O242 Co239 1.966 . S
O242 C240 1.263 1_455 S
C243 O244 1.235 1_445 S
C243 O270 1.289 . S
O244 C243 1.235 1_665 S
C245 C247 1.400 . S
C245 N248 1.351 . S
C245 C250 1.501 1_455 S
C246 C247 1.387 . S
C246 N249 1.341 . S
C247 C245 1.400 . S
C247 C246 1.387 . S
N248 Co239 2.022 . S
N248 C245 1.351 . S
N248 N249 1.365 . S
N249 C246 1.341 . S
N249 N248 1.365 . S
N249 H269 0.862 . S
C250 C245 1.501 1_655 S
C250 H251 0.961 . S
C250 H252 0.961 . S
C250 H253 0.960 1_556 S
H251 C250 0.961 . S
H252 C250 0.961 . S
H253 C250 0.960 1_554 S
C254 N255 1.342 . S
C254 C258 1.401 . S
C254 C259 1.499 . S
N255 Co238 1.989 . S
N255 C254 1.342 . S
N255 N256 1.388 . S
N256 Co239 1.993 . S
N256 N255 1.388 . S
N256 C257 1.346 . S
C257 N256 1.346 . S
C257 C258 1.396 . S
C257 C267 1.510 . S
C258 C254 1.401 . S
C258 C257 1.396 . S
C259 C254 1.499 . S
C259 H260 0.959 . S
C259 H261 0.960 . S
C259 H262 0.961 1_565 S
H260 C259 0.959 . S
H261 C259 0.960 . S
H262 C259 0.961 1_545 S
O263 Co238 1.967 . S
O263 C271 1.258 1_556 S
O264 Co239 1.941 . S
O264 C271 1.266 1_556 S
H265 C267 0.959 . S
H266 C267 0.961 . S
C267 C257 1.510 . S
C267 H265 0.959 . S
C267 H266 0.961 . S
C267 H268 0.960 . S
H268 C267 0.960 . S
H269 N249 0.862 . S
O270 Co238 1.920 1_545 S
O270 C243 1.289 . S
C271 O263 1.258 1_554 S
C271 O264 1.266 1_554 S
Co272 O275 1.970 1_545 S
Co272 N289 1.989 . S
Co272 O297 1.967 . S
Co272 O304 1.920 . S
Co273 O276 1.966 . S
Co273 N282 2.022 . S
Co273 N290 1.993 . S
Co273 O298 1.941 . S
C274 O275 1.258 . S
C274 O276 1.263 1_565 S
O275 Co272 1.970 1_565 S
O275 C274 1.258 . S
O276 Co273 1.966 . S
O276 C274 1.263 1_545 S
C277 O278 1.235 1_545 S
C277 O304 1.289 1_655 S
O278 C277 1.235 1_565 S
C279 C281 1.400 . S
C279 N282 1.351 . S
C279 C284 1.501 1_545 S
C280 C281 1.387 . S
C280 N283 1.341 . S
C281 C279 1.400 . S
C281 C280 1.387 . S
N282 Co273 2.022 . S
N282 C279 1.351 . S
N282 N283 1.365 . S
N283 C280 1.341 . S
N283 N282 1.365 . S
N283 H303 0.862 . S
C284 C279 1.501 1_565 S
C284 H285 0.961 . S
C284 H286 0.961 . S
C284 H287 0.960 . S
H285 C284 0.961 . S
H286 C284 0.961 . S
H287 C284 0.960 . S
C288 N289 1.342 . S
C288 C292 1.401 . S
C288 C293 1.499 . S
N289 Co272 1.989 . S
N289 C288 1.342 . S
N289 N290 1.388 . S
N290 Co273 1.993 . S
N290 N289 1.388 . S
N290 C291 1.346 . S
C291 N290 1.346 . S
C291 C292 1.396 . S
C291 C301 1.510 . S
C292 C288 1.401 . S
C292 C291 1.396 . S
C293 C288 1.499 . S
C293 H294 0.959 . S
C293 H295 0.960 . S
C293 H296 0.961 . S
H294 C293 0.959 . S
H295 C293 0.960 . S
H296 C293 0.961 . S
O297 Co272 1.967 . S
O297 C305 1.258 . S
O298 Co273 1.941 . S
O298 C305 1.266 . S
H299 C301 0.959 . S
H300 C301 0.961 . S
C301 C291 1.510 . S
C301 H299 0.959 . S
C301 H300 0.961 . S
C301 H302 0.960 . S
H302 C301 0.960 . S
H303 N283 0.862 . S
O304 Co272 1.920 . S
O304 C277 1.289 1_455 S
C305 O297 1.258 . S
C305 O298 1.266 . S
Co306 O309 1.970 . S
Co306 N323 1.989 . S
Co306 O331 1.967 . S
Co306 O338 1.920 1_455 S
Co307 O310 1.966 . S
Co307 N316 2.022 . S
Co307 N324 1.993 . S
Co307 O332 1.941 . S
C308 O309 1.258 . S
C308 O310 1.263 . S
O309 Co306 1.970 . S
O309 C308 1.258 . S
O310 Co307 1.966 . S
O310 C308 1.263 . S
C311 O312 1.235 1_655 S
C311 O338 1.289 1_565 S
O312 C311 1.235 1_455 S
C313 C315 1.400 . S
C313 N316 1.351 . S
C313 C318 1.501 . S
C314 C315 1.387 . S
C314 N317 1.341 . S
C315 C313 1.400 . S
C315 C314 1.387 . S
N316 Co307 2.022 . S
N316 C313 1.351 . S
N316 N317 1.365 . S
N317 C314 1.341 . S
N317 N316 1.365 . S
N317 H337 0.862 . S
C318 C313 1.501 . S
C318 H319 0.961 . S
C318 H320 0.961 . S
C318 H321 0.960 . S
H319 C318 0.961 . S
H320 C318 0.961 . S
H321 C318 0.960 . S
C322 N323 1.342 . S
C322 C326 1.401 . S
C322 C327 1.499 . S
N323 Co306 1.989 . S
N323 C322 1.342 . S
N323 N324 1.388 . S
N324 Co307 1.993 . S
N324 N323 1.388 . S
N324 C325 1.346 . S
C325 N324 1.346 . S
C325 C326 1.396 . S
C325 C335 1.510 . S
C326 C322 1.401 . S
C326 C325 1.396 . S
C327 C322 1.499 . S
C327 H328 0.959 . S
C327 H329 0.960 . S
C327 H330 0.961 1_455 S
H328 C327 0.959 . S
H329 C327 0.960 . S
H330 C327 0.961 1_655 S
O331 Co306 1.967 . S
O331 C339 1.258 . S
O332 Co307 1.941 . S
O332 C339 1.266 . S
H333 C335 0.959 . S
H334 C335 0.961 . S
C335 C325 1.510 . S
C335 H333 0.959 . S
C335 H334 0.961 . S
C335 H336 0.960 . S
H336 C335 0.960 . S
H337 N317 0.862 . S
O338 Co306 1.920 1_655 S
O338 C311 1.289 1_545 S
C339 O331 1.258 . S
C339 O332 1.266 . S
Co340 O343 1.970 1_655 S
Co340 N357 1.989 . S
Co340 O365 1.967 . S
Co340 O372 1.920 1_545 S
Co341 O344 1.966 . S
Co341 N350 2.022 . S
Co341 N358 1.993 . S
Co341 O366 1.941 . S
C342 O343 1.258 . S
C342 O344 1.263 1_455 S
O343 Co340 1.970 1_455 S
O343 C342 1.258 . S
O344 Co341 1.966 . S
O344 C342 1.263 1_655 S
C345 O346 1.235 1_665 S
C345 O372 1.289 . S
O346 C345 1.235 1_445 S
C347 C349 1.400 . S
C347 N350 1.351 . S
C347 C352 1.501 1_655 S
C348 C349 1.387 . S
C348 N351 1.341 . S
C349 C347 1.400 . S
C349 C348 1.387 . S
N350 Co341 2.022 . S
N350 C347 1.351 . S
N350 N351 1.365 . S
N351 C348 1.341 . S
N351 N350 1.365 . S
N351 H371 0.862 . S
C352 C347 1.501 1_455 S
C352 H353 0.961 . S
C352 H354 0.961 . S
C352 H355 0.960 1_556 S
H353 C352 0.961 . S
H354 C352 0.961 . S
H355 C352 0.960 1_554 S
C356 N357 1.342 . S
C356 C360 1.401 . S
C356 C361 1.499 . S
N357 Co340 1.989 . S
N357 C356 1.342 . S
N357 N358 1.388 . S
N358 Co341 1.993 . S
N358 N357 1.388 . S
N358 C359 1.346 . S
C359 N358 1.346 . S
C359 C360 1.396 . S
C359 C369 1.510 . S
C360 C356 1.401 . S
C360 C359 1.396 . S
C361 C356 1.499 . S
C361 H362 0.959 . S
C361 H363 0.960 . S
C361 H364 0.961 1_545 S
H362 C361 0.959 . S
H363 C361 0.960 . S
H364 C361 0.961 1_565 S
O365 Co340 1.967 . S
O365 C373 1.258 1_556 S
O366 Co341 1.941 . S
O366 C373 1.266 1_556 S
H367 C369 0.959 . S
H368 C369 0.961 . S
C369 C359 1.510 . S
C369 H367 0.959 . S
C369 H368 0.961 . S
C369 H370 0.960 . S
H370 C369 0.960 . S
H371 N351 0.862 . S
O372 Co340 1.920 1_565 S
O372 C345 1.289 . S
C373 O365 1.258 1_554 S
C373 O366 1.266 1_554 S
Co374 O377 1.970 1_565 S
Co374 N391 1.989 . S
Co374 O399 1.967 . S
Co374 O406 1.920 . S
Co375 O378 1.966 . S
Co375 N384 2.022 . S
Co375 N392 1.993 . S
Co375 O400 1.941 . S
C376 O377 1.258 . S
C376 O378 1.263 1_545 S
O377 Co374 1.970 1_545 S
O377 C376 1.258 . S
O378 Co375 1.966 . S
O378 C376 1.263 1_565 S
C379 O380 1.235 1_565 S
C379 O406 1.289 1_455 S
O380 C379 1.235 1_545 S
C381 C383 1.400 . S
C381 N384 1.351 . S
C381 C386 1.501 1_565 S
C382 C383 1.387 . S
C382 N385 1.341 . S
C383 C381 1.400 . S
C383 C382 1.387 . S
N384 Co375 2.022 . S
N384 C381 1.351 . S
N384 N385 1.365 . S
N385 C382 1.341 . S
N385 N384 1.365 . S
N385 H405 0.862 . S
C386 C381 1.501 1_545 S
C386 H387 0.961 . S
C386 H388 0.961 . S
C386 H389 0.960 . S
H387 C386 0.961 . S
H388 C386 0.961 . S
H389 C386 0.960 . S
C390 N391 1.342 . S
C390 C394 1.401 . S
C390 C395 1.499 . S
N391 Co374 1.989 . S
N391 C390 1.342 . S
N391 N392 1.388 . S
N392 Co375 1.993 . S
N392 N391 1.388 . S
N392 C393 1.346 . S
C393 N392 1.346 . S
C393 C394 1.396 . S
C393 C403 1.510 . S
C394 C390 1.401 . S
C394 C393 1.396 . S
C395 C390 1.499 . S
C395 H396 0.959 . S
C395 H397 0.960 . S
C395 H398 0.961 . S
H396 C395 0.959 . S
H397 C395 0.960 . S
H398 C395 0.961 . S
O399 Co374 1.967 . S
O399 C407 1.258 . S
O400 Co375 1.941 . S
O400 C407 1.266 . S
H401 C403 0.959 . S
H402 C403 0.961 . S
C403 C393 1.510 . S
C403 H401 0.959 . S
C403 H402 0.961 . S
C403 H404 0.960 . S
H404 C403 0.960 . S
H405 N385 0.862 . S
O406 Co374 1.920 . S
O406 C379 1.289 1_655 S
C407 O399 1.258 . S
C407 O400 1.266 . S
C111 C9 3.076 . S
C43 C145 3.076 1_455 S
C77 C179 3.076 1_545 S
C213 C315 3.076 . S
C349 C247 3.075 1_655 S
C383 C281 3.076 1_565 S
C271 C33 2.270 1_564 S
C67 C305 2.271 . S
C339 C101 2.270 1_455 S
C135 C373 2.270 1_566 S
C407 C169 2.271 . S
C203 C237 2.270 1_455 S
C5 C107 0.775 1_665 S
C39 C141 0.775 1_465 S
C73 C175 0.775 1_445 S
C209 C311 0.775 1_445 S
C243 C345 0.775 1_445 S
C277 C379 0.775 1_645 S
C342 C2 2.645 1_556 S
C36 C376 2.646 . S
C206 C70 2.645 . S
C104 C240 2.645 1_554 S
C274 C138 2.646 . S
C172 C308 2.645 . S
C20 C292 1.873 . S
C54 C326 1.873 . S
C360 C88 1.873 . S
C394 C122 1.873 . S
C156 C224 1.873 . S
C190 C258 1.873 . S
