# Generated by pormake.
# Topology smd, (6)-cn, num edge types: 1
# Building blocks:
#     Node 0, Type 0, BuildingBlock: VOLQOD_clean_sbu_1, # of connection points: 6
#     Node 1, Type 0, BuildingBlock: VOLQOD_clean_sbu_1, # of connection points: 6
#     Node 2, Type 0, BuildingBlock: VOLQOD_clean_sbu_1, # of connection points: 6
#     Node 3, Type 0, BuildingBlock: VOLQOD_clean_sbu_1, # of connection points: 6
#     Node 4, Type 0, BuildingBlock: VOLQOD_clean_sbu_1, # of connection points: 6
#     Node 5, Type 0, BuildingBlock: VOLQOD_clean_sbu_1, # of connection points: 6
#     Node 6, Type 0, BuildingBlock: VOLQOD_clean_sbu_1, # of connection points: 6
#     Node 7, Type 0, BuildingBlock: VOLQOD_clean_sbu_1, # of connection points: 6
#     Node 8, Type 0, BuildingBlock: VOLQOD_clean_sbu_1, # of connection points: 6
#     Node 9, Type 0, BuildingBlock: VOLQOD_clean_sbu_1, # of connection points: 6
#     Node 10, Type 0, BuildingBlock: VOLQOD_clean_sbu_1, # of connection points: 6
#     Node 11, Type 0, BuildingBlock: VOLQOD_clean_sbu_1, # of connection points: 6
#     Node 12, Type 0, BuildingBlock: VOLQOD_clean_sbu_1, # of connection points: 6
#     Node 13, Type 0, BuildingBlock: VOLQOD_clean_sbu_1, # of connection points: 6
#     Node 14, Type 0, BuildingBlock: VOLQOD_clean_sbu_1, # of connection points: 6
#     Node 15, Type 0, BuildingBlock: VOLQOD_clean_sbu_1, # of connection points: 6
#     Node 16, Type 0, BuildingBlock: VOLQOD_clean_sbu_1, # of connection points: 6
#     Node 17, Type 0, BuildingBlock: VOLQOD_clean_sbu_1, # of connection points: 6
#     Edge 18, Type (0, 0), BuildingBlock: XUDNAN_clean_linker_2, # of connection points: 2
#     Edge 19, Type (0, 0), BuildingBlock: XUDNAN_clean_linker_2, # of connection points: 2
#     Edge 20, Type (0, 0), BuildingBlock: XUDNAN_clean_linker_2, # of connection points: 2
#     Edge 21, Type (0, 0), BuildingBlock: XUDNAN_clean_linker_2, # of connection points: 2
#     Edge 22, Type (0, 0), BuildingBlock: XUDNAN_clean_linker_2, # of connection points: 2
#     Edge 23, Type (0, 0), BuildingBlock: XUDNAN_clean_linker_2, # of connection points: 2
#     Edge 24, Type (0, 0), BuildingBlock: XUDNAN_clean_linker_2, # of connection points: 2
#     Edge 25, Type (0, 0), BuildingBlock: XUDNAN_clean_linker_2, # of connection points: 2
#     Edge 26, Type (0, 0), BuildingBlock: XUDNAN_clean_linker_2, # of connection points: 2
#     Edge 27, Type (0, 0), BuildingBlock: XUDNAN_clean_linker_2, # of connection points: 2
#     Edge 28, Type (0, 0), BuildingBlock: XUDNAN_clean_linker_2, # of connection points: 2
#     Edge 29, Type (0, 0), BuildingBlock: XUDNAN_clean_linker_2, # of connection points: 2
#     Edge 30, Type (0, 0), BuildingBlock: XUDNAN_clean_linker_2, # of connection points: 2
#     Edge 31, Type (0, 0), BuildingBlock: XUDNAN_clean_linker_2, # of connection points: 2
#     Edge 32, Type (0, 0), BuildingBlock: XUDNAN_clean_linker_2, # of connection points: 2
#     Edge 33, Type (0, 0), BuildingBlock: XUDNAN_clean_linker_2, # of connection points: 2
#     Edge 34, Type (0, 0), BuildingBlock: XUDNAN_clean_linker_2, # of connection points: 2
#     Edge 35, Type (0, 0), BuildingBlock: XUDNAN_clean_linker_2, # of connection points: 2
#     Edge 36, Type (0, 0), BuildingBlock: XUDNAN_clean_linker_2, # of connection points: 2
#     Edge 37, Type (0, 0), BuildingBlock: XUDNAN_clean_linker_2, # of connection points: 2
#     Edge 38, Type (0, 0), BuildingBlock: XUDNAN_clean_linker_2, # of connection points: 2
#     Edge 39, Type (0, 0), BuildingBlock: XUDNAN_clean_linker_2, # of connection points: 2
#     Edge 40, Type (0, 0), BuildingBlock: XUDNAN_clean_linker_2, # of connection points: 2
#     Edge 41, Type (0, 0), BuildingBlock: XUDNAN_clean_linker_2, # of connection points: 2
#     Edge 42, Type (0, 0), BuildingBlock: XUDNAN_clean_linker_2, # of connection points: 2
#     Edge 43, Type (0, 0), BuildingBlock: XUDNAN_clean_linker_2, # of connection points: 2
#     Edge 44, Type (0, 0), BuildingBlock: XUDNAN_clean_linker_2, # of connection points: 2
#     Edge 45, Type (0, 0), BuildingBlock: XUDNAN_clean_linker_2, # of connection points: 2
#     Edge 46, Type (0, 0), BuildingBlock: XUDNAN_clean_linker_2, # of connection points: 2
#     Edge 47, Type (0, 0), BuildingBlock: XUDNAN_clean_linker_2, # of connection points: 2
#     Edge 48, Type (0, 0), BuildingBlock: XUDNAN_clean_linker_2, # of connection points: 2
#     Edge 49, Type (0, 0), BuildingBlock: XUDNAN_clean_linker_2, # of connection points: 2
#     Edge 50, Type (0, 0), BuildingBlock: XUDNAN_clean_linker_2, # of connection points: 2
#     Edge 51, Type (0, 0), BuildingBlock: XUDNAN_clean_linker_2, # of connection points: 2
#     Edge 52, Type (0, 0), BuildingBlock: XUDNAN_clean_linker_2, # of connection points: 2
#     Edge 53, Type (0, 0), BuildingBlock: XUDNAN_clean_linker_2, # of connection points: 2
#     Edge 54, Type (0, 0), BuildingBlock: XUDNAN_clean_linker_2, # of connection points: 2
#     Edge 55, Type (0, 0), BuildingBlock: XUDNAN_clean_linker_2, # of connection points: 2
#     Edge 56, Type (0, 0), BuildingBlock: XUDNAN_clean_linker_2, # of connection points: 2
#     Edge 57, Type (0, 0), BuildingBlock: XUDNAN_clean_linker_2, # of connection points: 2
#     Edge 58, Type (0, 0), BuildingBlock: XUDNAN_clean_linker_2, # of connection points: 2
#     Edge 59, Type (0, 0), BuildingBlock: XUDNAN_clean_linker_2, # of connection points: 2
#     Edge 60, Type (0, 0), BuildingBlock: XUDNAN_clean_linker_2, # of connection points: 2
#     Edge 61, Type (0, 0), BuildingBlock: XUDNAN_clean_linker_2, # of connection points: 2
#     Edge 62, Type (0, 0), BuildingBlock: XUDNAN_clean_linker_2, # of connection points: 2
#     Edge 63, Type (0, 0), BuildingBlock: XUDNAN_clean_linker_2, # of connection points: 2
#     Edge 64, Type (0, 0), BuildingBlock: XUDNAN_clean_linker_2, # of connection points: 2
#     Edge 65, Type (0, 0), BuildingBlock: XUDNAN_clean_linker_2, # of connection points: 2
#     Edge 66, Type (0, 0), BuildingBlock: XUDNAN_clean_linker_2, # of connection points: 2
#     Edge 67, Type (0, 0), BuildingBlock: XUDNAN_clean_linker_2, # of connection points: 2
#     Edge 68, Type (0, 0), BuildingBlock: XUDNAN_clean_linker_2, # of connection points: 2
#     Edge 69, Type (0, 0), BuildingBlock: XUDNAN_clean_linker_2, # of connection points: 2
#     Edge 70, Type (0, 0), BuildingBlock: XUDNAN_clean_linker_2, # of connection points: 2
#     Edge 71, Type (0, 0), BuildingBlock: XUDNAN_clean_linker_2, # of connection points: 2
# Relax obj value: 0.180
# Max RMSD: 0.177
# Mean RMSD: 0.174
data_MOF--net-smd--node1-VOLQOD_clean_sbu_1--edge1-XUDNAN_clean_linker_2
_symmetry_space_group_name_H-M    P1
_symmetry_Int_Tables_number       1
_symmetry_cell_setting            triclinic
loop_
_symmetry_equiv_pos_as_xyz
'x, y, z'
_cell_length_a     76.887803
_cell_length_b     76.974966
_cell_length_c     16.801456
_cell_angle_alpha  90.05454
_cell_angle_beta   90.04521
_cell_angle_gamma 120.0305
loop_
_atom_site_label
_atom_site_type_symbol
_atom_site_fract_x
_atom_site_fract_y
_atom_site_fract_z
_atom_type_partial_charge
O0 O 0.01087 0.21529 0.33212 0.0
Zn1 Zn 0.00975 0.21099 0.44986 0.0
O2 O 0.01257 0.23467 0.50333 0.0
Zn3 Zn 0.03999 0.25071 0.54465 0.0
Zn4 Zn 0.00643 0.25019 0.42896 0.0
Zn5 Zn 0.99341 0.2259 0.58865 0.0
O6 O 0.0398 0.25264 0.66536 0.0
O7 O 0.00711 0.23554 0.6926 0.0
O8 O 0.03298 0.20702 0.47454 0.0
O9 O 0.0558 0.23713 0.51948 0.0
O10 O 0.05451 0.27831 0.49348 0.0
O11 O 0.03003 0.27769 0.42099 0.0
O12 O 0.98269 0.25295 0.46287 0.0
O13 O 0.98454 0.18566 0.48185 0.0
O14 O 0.97415 0.23585 0.57637 0.0
O15 O 0.97705 0.19616 0.59282 0.0
C16 C 0.00765 0.22681 0.28789 0.0
C17 C 0.02531 0.24575 0.7149 0.0
C18 C 0.04809 0.28674 0.44587 0.0
C19 C 0.05078 0.21945 0.49674 0.0
C20 C 0.9715 0.24618 0.52401 0.0
C21 C 0.97418 0.18215 0.54503 0.0
O22 O 0.00358 0.23964 0.31709 0.0
O23 O 0.80965 0.81337 0.65455 0.0
Zn24 Zn 0.81227 0.81677 0.53531 0.0
O25 O 0.78667 0.79745 0.49002 0.0
Zn26 Zn 0.78736 0.77472 0.44399 0.0
Zn27 Zn 0.76717 0.78903 0.5736 0.0
Zn28 Zn 0.77843 0.80959 0.41151 0.0
O29 O 0.78404 0.77428 0.32295 0.0
O30 O 0.78402 0.80295 0.3041 0.0
O31 O 0.83412 0.81074 0.50294 0.0
O32 O 0.81495 0.77938 0.45997 0.0
O33 O 0.76913 0.74863 0.50469 0.0
O34 O 0.76104 0.76203 0.60493 0.0
O35 O 0.7406 0.78476 0.53454 0.0
O36 O 0.81876 0.84508 0.50739 0.0
O37 O 0.7487 0.79812 0.41398 0.0
O38 O 0.79299 0.83903 0.42862 0.0
C39 C 0.79529 0.8099 0.70172 0.0
C40 C 0.78448 0.78774 0.27706 0.0
C41 C 0.76142 0.74724 0.57347 0.0
C42 C 0.83202 0.79403 0.4794 0.0
C43 C 0.73561 0.78837 0.46694 0.0
C44 C 0.8089 0.85119 0.4662 0.0
O45 O 0.77783 0.80479 0.67515 0.0
O46 O 0.20993 0.00703 0.27277 0.0
Zn47 Zn 0.19973 0.00701 0.38175 0.0
O48 O 0.21816 0.00706 0.45819 0.0
Zn49 Zn 0.20739 0.98123 0.50705 0.0
Zn50 Zn 0.24338 0.0141 0.40766 0.0
Zn51 Zn 0.22153 0.02547 0.5419 0.0
O52 O 0.21395 0.98515 0.62384 0.0
O53 O 0.20934 0.01108 0.64415 0.0
O54 O 0.172 0.98346 0.39937 0.0
O55 O 0.17748 0.9664 0.4933 0.0
O56 O 0.21885 0.9653 0.45689 0.0
O57 O 0.24604 0.98963 0.39861 0.0
O58 O 0.26686 0.03512 0.47245 0.0
O59 O 0.19849 0.03216 0.39095 0.0
O60 O 0.25074 0.04166 0.56715 0.0
O61 O 0.21166 0.04426 0.50985 0.0
C62 C 0.22778 0.0146 0.24608 0.0
C63 C 0.21176 0.99694 0.67074 0.0
C64 C 0.23487 0.97123 0.41654 0.0
C65 C 0.16556 0.96883 0.44794 0.0
C66 C 0.26695 0.04412 0.53651 0.0
C67 C 0.20338 0.04524 0.44561 0.0
O68 O 0.24297 0.02095 0.29214 0.0
O69 O 0.02977 0.80108 0.66537 0.0
Zn70 Zn 0.03206 0.80591 0.54683 0.0
O71 O 0.00571 0.7924 0.49844 0.0
Zn72 Zn 0.0035 0.77145 0.43112 0.0
Zn73 Zn 0.98627 0.78036 0.5809 0.0
Zn74 Zn 0.00026 0.81011 0.43486 0.0
O75 O 0.99184 0.77127 0.32574 0.0
O76 O 0.00149 0.80371 0.3191 0.0
O77 O 0.05134 0.79828 0.49511 0.0
O78 O 0.0307 0.77693 0.40419 0.0
O79 O 0.98975 0.74477 0.48512 0.0
O80 O 0.9781 0.75127 0.59507 0.0
O81 O 0.96218 0.78241 0.55436 0.0
O82 O 0.04345 0.8353 0.52965 0.0
O83 O 0.97235 0.80538 0.4583 0.0
O84 O 0.02165 0.83896 0.45427 0.0
C85 C 0.01549 0.79853 0.71136 0.0
C86 C -0.00375 0.78693 0.28553 0.0
C87 C 0.9807 0.73921 0.55158 0.0
C88 C 0.04809 0.78717 0.43425 0.0
C89 C 0.95888 0.79315 0.50599 0.0
C90 C 0.03812 0.84639 0.49305 0.0
O91 O -0.00189 0.79358 0.68473 0.0
O92 O 0.24835 0.22847 0.29912 0.0
Zn93 Zn 0.24488 0.22197 0.41563 0.0
O94 O 0.22643 0.22924 0.4627 0.0
Zn95 Zn 0.23999 0.25138 0.53689 0.0
Zn96 Zn 0.21454 0.23735 0.38167 0.0
Zn97 Zn 0.20578 0.20611 0.51798 0.0
O98 O 0.22942 0.24279 0.64777 0.0
O99 O 0.21203 0.20959 0.63341 0.0
O100 O 0.27116 0.23509 0.47588 0.0
O101 O 0.26872 0.25827 0.54666 0.0
O102 O 0.23945 0.27637 0.50317 0.0
O103 O 0.22521 0.2668 0.38415 0.0
O104 O 0.18483 0.22424 0.39803 0.0
O105 O 0.23321 0.19217 0.41689 0.0
O106 O 0.17872 0.20321 0.4988 0.0
O107 O 0.20478 0.1807 0.48493 0.0
C108 C 0.23648 0.23023 0.25118 0.0
C109 C 0.22054 0.22517 0.67704 0.0
C110 C 0.23393 0.2802 0.43714 0.0
C111 C 0.27858 0.24993 0.52391 0.0
C112 C 0.17281 0.21135 0.44774 0.0
C113 C 0.21712 0.17776 0.44515 0.0
O114 O 0.22162 0.23178 0.27508 0.0
O115 O 0.77959 0.9904 0.65787 0.0
Zn116 Zn 0.78012 0.99 0.53703 0.0
O117 O 0.79609 0.01718 0.49485 0.0
Zn118 Zn 0.78096 0.0227 0.41669 0.0
Zn119 Zn 0.80334 0.03664 0.5789 0.0
Zn120 Zn 0.82028 0.01996 0.44547 0.0
O121 O 0.79233 0.02552 0.3071 0.0
O122 O 0.81732 0.01934 0.32656 0.0
O123 O 0.75197 0.9757 0.49028 0.0
O124 O 0.75337 -0.00086 0.40916 0.0
O125 O 0.77705 0.04577 0.44668 0.0
O126 O 0.78945 0.05266 0.56906 0.0
O127 O 0.83293 0.05525 0.58022 0.0
O128 O 0.79314 0.97395 0.50872 0.0
O129 O 0.84502 0.04529 0.48095 0.0
O130 O 0.82406 0.99653 0.47107 0.0
C131 C 0.78668 0.00503 0.70681 0.0
C132 C 0.8059 0.02224 0.28028 0.0
C133 C 0.78011 0.05526 0.51204 0.0
C134 C 0.74381 0.98171 0.43952 0.0
C135 C 0.84755 0.05723 0.53807 0.0
C136 C 0.81094 0.97864 0.48909 0.0
O137 O 0.79588 0.02315 0.68356 0.0
O138 O 0.6781 0.53965 -0.00106 0.0
Zn139 Zn 0.68029 0.53834 0.88057 0.0
O140 O 0.67611 0.5592 0.83558 0.0
Zn141 Zn 0.64964 0.54765 0.7886 0.0
Zn142 Zn 0.67999 0.57862 0.91662 0.0
Zn143 Zn 0.69581 0.57297 0.75601 0.0
O144 O 0.65141 0.54875 0.6679 0.0
O145 O 0.68446 0.56344 0.6489 0.0
O146 O 0.65793 0.51056 0.85026 0.0
O147 O 0.63484 0.51856 0.81599 0.0
O148 O 0.63354 0.55974 0.83538 0.0
O149 O 0.6537 0.57696 0.93616 0.0
O150 O 0.69904 0.60729 0.8817 0.0
O151 O 0.70843 0.54339 0.85641 0.0
O152 O 0.70569 0.60208 0.75851 0.0
O153 O 0.71937 0.56969 0.77569 0.0
C154 C 0.68242 0.55407 0.0469 0.0
C155 C 0.6666 0.55482 0.62218 0.0
C156 C 0.6371 0.56997 0.89924 0.0
C157 C 0.6398 0.50557 0.83415 0.0
C158 C 0.70689 0.61392 0.81362 0.0
C159 C 0.72238 0.55742 0.81565 0.0
O160 O 0.68697 0.57149 0.02219 0.0
O161 O 0.47334 0.14354 0.96726 0.0
Zn162 Zn 0.47567 0.14843 0.85037 0.0
O163 O 0.45619 0.12402 0.79724 0.0
Zn164 Zn 0.46965 0.11014 0.75532 0.0
Zn165 Zn 0.43486 0.10759 0.87124 0.0
Zn166 Zn 0.44397 0.13072 0.71282 0.0
O167 O 0.46751 0.10838 0.63494 0.0
O168 O 0.45275 0.12631 0.60829 0.0
O169 O 0.50378 0.15548 0.82413 0.0
O170 O 0.49938 0.12659 0.77637 0.0
O171 O 0.45813 0.08239 0.80583 0.0
O172 O 0.43261 0.08073 0.87472 0.0
O173 O 0.4074 0.10302 0.83865 0.0
O174 O 0.47127 0.17155 0.82486 0.0
O175 O 0.41431 0.11366 0.71392 0.0
O176 O 0.44967 0.15887 0.72427 0.0
C177 C 0.45914 0.13132 0.01196 0.0
C178 C 0.46106 0.11646 0.58573 0.0
C179 C 0.44273 0.07282 0.85029 0.0
C180 C 0.51081 0.14462 0.79924 0.0
C181 C 0.40172 0.10476 0.76929 0.0
C182 C 0.46034 0.1732 0.77182 0.0
O183 O 0.44241 0.11781 0.98353 0.0
O184 O 0.87994 0.34548 0.00829 0.0
Zn185 Zn 0.86961 0.34574 0.90008 0.0
O186 O 0.88806 0.3462 0.82185 0.0
Zn187 Zn 0.90173 0.37202 0.77019 0.0
Zn188 Zn 0.90806 0.34166 0.87109 0.0
Zn189 Zn 0.87306 0.32581 0.74297 0.0
O190 O 0.90401 0.36777 0.65429 0.0
O191 O 0.87635 0.33819 0.6354 0.0
O192 O 0.86543 0.36937 0.8862 0.0
O193 O 0.88527 0.38543 0.78314 0.0
O194 O 0.92976 0.38996 0.81493 0.0
O195 O 0.9345 0.36689 0.87378 0.0
O196 O 0.91113 0.32063 0.81209 0.0
O197 O 0.84282 0.32063 0.89042 0.0
O198 O 0.88474 0.30776 0.73062 0.0
O199 O 0.84399 0.30845 0.77201 0.0
C200 C 0.89191 0.33982 0.03371 0.0
C201 C 0.89139 0.35406 0.60849 0.0
C202 C 0.94087 0.385 0.85361 0.0
C203 C 0.87197 0.38315 0.83379 0.0
C204 C 0.90022 0.30803 0.759 0.0
C205 C 0.83453 0.30771 0.83521 0.0
O206 O 0.90224 0.33552 0.9869 0.0
O207 O 0.68897 0.12361 0.97594 0.0
Zn208 Zn 0.69361 0.13232 0.86087 0.0
O209 O 0.66894 0.12772 0.81325 0.0
Zn210 Zn 0.65746 0.10381 0.75074 0.0
Zn211 Zn 0.65162 0.12512 0.89925 0.0
Zn212 Zn 0.67326 0.14937 0.74414 0.0
O213 O 0.65072 0.10841 0.64126 0.0
O214 O 0.67282 0.14097 0.63035 0.0
O215 O 0.70561 0.11856 0.79675 0.0
O216 O 0.67865 0.09686 0.72805 0.0
O217 O 0.63374 0.08115 0.80481 0.0
O218 O 0.6306 0.09589 0.91368 0.0
O219 O 0.63826 0.14128 0.87744 0.0
O220 O 0.71252 0.16204 0.86114 0.0
O221 O 0.65099 0.15558 0.76019 0.0
O222 O 0.69968 0.17396 0.77171 0.0
C223 C 0.67949 0.12851 0.02486 0.0
C224 C 0.66144 0.12385 0.59893 0.0
C225 C 0.62514 0.08039 0.87051 0.0
C226 C 0.69712 0.10441 0.74595 0.0
C227 C 0.63907 0.15202 0.81842 0.0
C228 C 0.71321 0.17654 0.82195 0.0
O229 O 0.66697 0.13362 0.00122 0.0
O230 O 0.90071 0.58171 0.04123 0.0
Zn231 Zn 0.89578 0.58102 0.92234 0.0
O232 O 0.8964 0.5583 0.87733 0.0
Zn233 Zn 0.92102 0.56688 0.82001 0.0
Zn234 Zn 0.8949 0.54171 0.96461 0.0
Zn235 Zn 0.87419 0.54312 0.80721 0.0
O236 O 0.91589 0.5571 0.70703 0.0
O237 O 0.88401 0.5495 0.69419 0.0
O238 O 0.91627 0.60689 0.86928 0.0
O239 O 0.93443 0.59641 0.80447 0.0
O240 O 0.94039 0.56141 0.88094 0.0
O241 O 0.92286 0.54792 0.99152 0.0
O242 O 0.87791 0.51252 0.93649 0.0
O243 O 0.86839 0.57749 0.90283 0.0
O244 O 0.86343 0.5137 0.82369 0.0
O245 O 0.85262 0.55014 0.82674 0.0
C246 C 0.8931 0.56678 0.0887 0.0
C247 C 0.9008 0.55349 0.66379 0.0
C248 C 0.93906 0.55494 0.95172 0.0
C249 C 0.93092 0.61032 0.82391 0.0
C250 C 0.86631 0.50377 0.87756 0.0
C251 C 0.85285 0.56456 0.86509 0.0
O252 O 0.88522 0.54885 0.06297 0.0
O253 O 0.44282 0.3239 0.04231 0.0
Zn254 Zn 0.43897 0.32047 0.92315 0.0
O255 O 0.4577 0.34508 0.86887 0.0
Zn256 Zn 0.44343 0.35203 0.79271 0.0
Zn257 Zn 0.4702 0.36687 0.94266 0.0
Zn258 Zn 0.47892 0.342 0.81964 0.0
O259 O 0.45496 0.3548 0.6839 0.0
O260 O 0.47756 0.34518 0.70242 0.0
O261 O 0.41031 0.30956 0.88672 0.0
O262 O 0.41505 0.32984 0.78485 0.0
O263 O 0.44162 0.37609 0.82666 0.0
O264 O 0.45637 0.38325 0.94508 0.0
O265 O 0.49942 0.38439 0.91751 0.0
O266 O 0.44478 0.299 0.89095 0.0
O267 O 0.50658 0.36353 0.85313 0.0
O268 O 0.47497 0.31424 0.83467 0.0
C269 C 0.45638 0.33866 0.08157 0.0
C270 C 0.46789 0.35059 0.65697 0.0
C271 C 0.44613 0.38588 0.8918 0.0
C272 C 0.4037 0.31451 0.82645 0.0
C273 C 0.51211 0.38038 0.88631 0.0
C274 C 0.45951 0.29845 0.85947 0.0
O275 O 0.46833 0.35543 0.0496 0.0
O276 O 0.33799 0.87256 0.99188 0.0
Zn277 Zn 0.33728 0.86692 0.10739 0.0
O278 O 0.34034 0.88995 0.16667 0.0
Zn279 Zn 0.36768 0.9053 0.20945 0.0
Zn280 Zn 0.33442 0.90676 0.09792 0.0
Zn281 Zn 0.32119 0.87997 0.25182 0.0
O282 O 0.36726 0.9083 0.32894 0.0
O283 O 0.33464 0.89006 0.35584 0.0
O284 O 0.36086 0.86307 0.12489 0.0
O285 O 0.38272 0.89062 0.18976 0.0
O286 O 0.38292 0.9327 0.15701 0.0
O287 O 0.35828 0.93442 0.09482 0.0
O288 O 0.31037 0.90876 0.13564 0.0
O289 O 0.31228 0.84102 0.13765 0.0
O290 O 0.30114 0.88892 0.24161 0.0
O291 O 0.306 0.85013 0.2547 0.0
C292 C 0.33536 0.88492 0.95081 0.0
C293 C 0.35272 0.90114 0.37816 0.0
C294 C 0.37663 0.94233 0.11555 0.0
C295 C 0.37798 0.8739 0.15692 0.0
C296 C 0.29865 0.90038 0.19446 0.0
C297 C 0.30278 0.8367 0.20336 0.0
O298 O 0.33182 0.89781 0.98318 0.0
O299 O 0.1346 0.47486 0.30263 0.0
Zn300 Zn 0.14512 0.48438 0.19347 0.0
O301 O 0.12828 0.46502 0.11468 0.0
Zn302 Zn 0.14163 0.45131 0.07118 0.0
Zn303 Zn 0.10327 0.44523 0.16278 0.0
Zn304 Zn 0.12317 0.47911 0.03136 0.0
O305 O 0.13746 0.44841 0.95167 0.0
O306 O 0.1306 0.47277 0.92645 0.0
O307 O 0.17285 0.48849 0.18801 0.0
O308 O 0.17139 0.46707 0.0958 0.0
O309 O 0.13023 0.4238 0.12139 0.0
O310 O 0.09967 0.41783 0.15249 0.0
O311 O 0.07947 0.44538 0.11355 0.0
O312 O 0.14767 0.51121 0.17502 0.0
O313 O 0.09354 0.46963 0.02346 0.0
O314 O 0.13793 0.50888 0.049 0.0
C315 C 0.11804 0.46064 0.32864 0.0
C316 C 0.1344 0.4593 0.90294 0.0
C317 C 0.11243 0.41199 0.14587 0.0
C318 C 0.18131 0.48111 0.14579 0.0
C319 C 0.07802 0.45598 0.05853 0.0
C320 C 0.1457 0.51914 0.1118 0.0
O321 O 0.10414 0.44871 0.28179 0.0
O322 O 0.53995 0.67754 0.96895 0.0
Zn323 Zn 0.53553 0.67639 0.08681 0.0
O324 O 0.56 0.68053 0.13617 0.0
Zn325 Zn 0.55582 0.66016 0.21154 0.0
Zn326 Zn 0.57968 0.68235 0.06316 0.0
Zn327 Zn 0.57097 0.70553 0.18908 0.0
O328 O 0.56344 0.67193 0.32174 0.0
O329 O 0.56233 0.69997 0.30138 0.0
O330 O 0.51166 0.65014 0.12408 0.0
O331 O 0.52646 0.64119 0.2163 0.0
O332 O 0.56844 0.64354 0.17659 0.0
O333 O 0.57877 0.65616 0.05591 0.0
O334 O 0.60754 0.7021 0.10419 0.0
O335 O 0.53034 0.69937 0.10966 0.0
O336 O 0.60076 0.71965 0.19096 0.0
O337 O 0.56118 0.72281 0.14407 0.0
C338 C 0.55574 0.68374 0.92659 0.0
C339 C 0.56223 0.68688 0.34773 0.0
C340 C 0.5753 0.64288 0.10816 0.0
C341 C 0.5108 0.63841 0.17954 0.0
C342 C 0.61323 0.71611 0.15557 0.0
C343 C 0.54337 0.71767 0.12287 0.0
O344 O 0.57272 0.6879 0.95581 0.0
O345 O 0.35932 0.45987 0.36076 0.0
Zn346 Zn 0.36363 0.46724 0.24465 0.0
O347 O 0.33912 0.46352 0.19707 0.0
Zn348 Zn 0.3276 0.44072 0.12628 0.0
Zn349 Zn 0.32042 0.46006 0.27806 0.0
Zn350 Zn 0.34452 0.48647 0.13478 0.0
O351 O 0.3226 0.44825 0.01708 0.0
O352 O 0.34727 0.48 0.02293 0.0
O353 O 0.37473 0.45231 0.18207 0.0
O354 O 0.34877 0.43373 0.10255 0.0
O355 O 0.30335 0.41684 0.17587 0.0
O356 O 0.29835 0.43162 0.27978 0.0
O357 O 0.30858 0.47778 0.26084 0.0
O358 O 0.38392 0.49653 0.24314 0.0
O359 O 0.32175 0.49222 0.14449 0.0
O360 O 0.37047 0.51064 0.16847 0.0
C361 C 0.34717 0.46116 0.40876 0.0
C362 C 0.33592 0.46423 0.98325 0.0
C363 C 0.29354 0.41602 0.23839 0.0
C364 C 0.36661 0.43957 0.12588 0.0
C365 C 0.30963 0.48866 0.20197 0.0
C366 C 0.38465 0.51195 0.21199 0.0
O367 O 0.33299 0.46383 0.38456 0.0
O368 O 0.57947 0.89384 0.96971 0.0
Zn369 Zn 0.57585 0.8881 0.08723 0.0
O370 O 0.55946 0.89796 0.13251 0.0
Zn371 Zn 0.57734 0.92334 0.18372 0.0
Zn372 Zn 0.54426 0.9011 0.04917 0.0
Zn373 Zn 0.54051 0.8787 0.20686 0.0
O374 O 0.57219 0.92073 0.3011 0.0
O375 O 0.55006 0.88822 0.31749 0.0
O376 O 0.6027 0.90052 0.1412 0.0
O377 O 0.60613 0.92963 0.18003 0.0
O378 O 0.57476 0.94608 0.13562 0.0
O379 O 0.55139 0.92993 0.0432 0.0
O380 O 0.51455 0.88441 0.0665 0.0
O381 O 0.56229 0.85846 0.10208 0.0
O382 O 0.51299 0.87518 0.19283 0.0
O383 O 0.53774 0.85149 0.18833 0.0
C384 C 0.567 0.8942 0.92077 0.0
C385 C 0.56217 0.90553 0.34566 0.0
C386 C 0.56359 0.94607 0.07934 0.0
C387 C 0.61325 0.91795 0.17105 0.0
C388 C 0.5046 0.87645 0.12957 0.0
C389 C 0.54748 0.84594 0.14379 0.0
O390 O 0.55152 0.89472 0.94393 0.0
O391 O 0.10841 0.64787 0.38222 0.0
Zn392 Zn 0.11086 0.64717 0.2631 0.0
O393 O 0.12129 0.6737 0.21845 0.0
Zn394 Zn 0.09884 0.67441 0.16988 0.0
Zn395 Zn 0.13275 0.69362 0.30075 0.0
Zn396 Zn 0.14217 0.67935 0.14089 0.0
O397 O 0.10139 0.67402 0.05191 0.0
O398 O 0.13243 0.67987 0.03115 0.0
O399 O 0.08346 0.62832 0.21845 0.0
O400 O 0.07232 0.64933 0.19223 0.0
O401 O 0.09842 0.69942 0.20154 0.0
O402 O 0.12163 0.71228 0.29682 0.0
O403 O 0.16251 0.7102 0.29003 0.0
O404 O 0.12878 0.63613 0.23488 0.0
O405 O 0.16821 0.70469 0.16558 0.0
O406 O 0.14859 0.65716 0.14151 0.0
C407 C 0.11618 0.66263 0.43035 0.0
C408 C 0.11548 0.67658 0.00525 0.0
C409 C 0.10834 0.71286 0.25356 0.0
C410 C 0.06928 0.63154 0.19961 0.0
C411 C 0.17434 0.71403 0.23142 0.0
C412 C 0.14263 0.6414 0.18319 0.0
O413 O 0.12637 0.68066 0.40652 0.0
H414 H 0.07483 0.38118 0.17679 0.0
H415 H 0.13778 0.39854 0.19524 0.0
H416 H 0.12848 0.36833 0.27674 0.0
H417 H 0.06191 0.36516 0.37177 0.0
H418 H 0.03732 0.34444 0.34863 0.0
H419 H 0.04866 0.36607 0.28473 0.0
H420 H 0.04481 0.34365 0.16303 0.0
H421 H 0.03293 0.32185 0.22608 0.0
H422 H 0.05466 0.32679 0.16821 0.0
H423 H 0.11197 0.33746 0.36744 0.0
H424 H 0.08953 0.30676 0.44413 0.0
H425 H 0.03804 0.31112 0.36559 0.0
C426 C 0.08668 0.37845 0.19635 0.0
C427 C 0.10703 0.39219 0.17957 0.0
C428 C 0.12206 0.38808 0.20666 0.0
C429 C 0.11693 0.37107 0.25358 0.0
C430 C 0.09674 0.35832 0.27209 0.0
C431 C 0.08186 0.36168 0.24293 0.0
C432 C 0.06135 0.34624 0.27283 0.0
C433 C 0.05176 0.35608 0.32243 0.0
C434 C 0.04763 0.3339 0.20341 0.0
C435 C 0.06696 0.33374 0.32428 0.0
C436 C 0.0874 0.34087 0.32358 0.0
C437 C 0.09593 0.33168 0.36787 0.0
C438 C 0.0831 0.31438 0.41185 0.0
C439 C 0.06203 0.30653 0.41078 0.0
C440 C 0.05406 0.31667 0.36755 0.0
H441 H 0.71514 0.79864 0.35988 0.0
H442 H 0.70937 0.75027 0.51066 0.0
H443 H 0.67868 0.72645 0.43876 0.0
H444 H 0.65955 0.77922 0.35006 0.0
H445 H 0.66113 0.78779 0.24911 0.0
H446 H 0.68201 0.80121 0.31609 0.0
H447 H 0.70511 0.79728 0.21425 0.0
H448 H 0.68417 0.78319 0.1483 0.0
H449 H 0.69907 0.77253 0.1821 0.0
H450 H 0.6526 0.70717 0.33733 0.0
H451 H 0.62507 0.69438 0.23892 0.0
H452 H 0.6442 0.75524 0.16449 0.0
C453 C 0.70696 0.78318 0.37946 0.0
C454 C 0.71457 0.77629 0.4409 0.0
C455 C 0.70365 0.75592 0.46459 0.0
C456 C 0.68637 0.74221 0.42331 0.0
C457 C 0.6799 0.74923 0.3602 0.0
C458 C 0.68923 0.76934 0.34064 0.0
C459 C 0.67854 0.77287 0.27193 0.0
C460 C 0.66978 0.78605 0.29839 0.0
C461 C 0.69257 0.78201 0.19991 0.0
C462 C 0.66211 0.75152 0.25488 0.0
C463 C 0.66361 0.73813 0.30522 0.0
C464 C 0.65099 0.71749 0.29851 0.0
C465 C 0.63565 0.71036 0.24168 0.0
C466 C 0.63282 0.72385 0.19396 0.0
C467 C 0.64634 0.74468 0.1997 0.0
H468 H 0.26433 0.97807 0.30912 0.0
H469 H 0.21718 0.93104 0.4516 0.0
H470 H 0.22585 0.90659 0.39603 0.0
H471 H 0.258 0.9471 0.13425 0.0
H472 H 0.2846 0.95961 0.11455 0.0
H473 H 0.27378 0.97308 0.16147 0.0
H474 H 0.29861 0.98236 0.2797 0.0
H475 H 0.30961 0.96914 0.23274 0.0
H476 H 0.29994 0.96269 0.33263 0.0
H477 H 0.24143 0.88808 0.33361 0.0
H478 H 0.26362 0.8771 0.27348 0.0
H479 H 0.29978 0.93598 0.16812 0.0
C480 C 0.25574 0.96262 0.32864 0.0
C481 C 0.2401 0.95648 0.38503 0.0
C482 C 0.22923 0.9361 0.40856 0.0
C483 C 0.23397 0.92209 0.37698 0.0
C484 C 0.24943 0.92868 0.32131 0.0
C485 C 0.26014 0.94846 0.29735 0.0
C486 C 0.27672 0.95195 0.23982 0.0
C487 C 0.27305 0.95831 0.15765 0.0
C488 C 0.29744 0.96744 0.27326 0.0
C489 C 0.27411 0.93113 0.23705 0.0
C490 C 0.25813 0.91788 0.28379 0.0
C491 C 0.25376 0.89821 0.29586 0.0
C492 C 0.26643 0.89212 0.26144 0.0
C493 C 0.28323 0.90564 0.21543 0.0
C494 C 0.28672 0.92518 0.20117 0.0
H495 H 0.30576 0.05778 0.48619 0.0
H496 H 0.27067 0.05611 0.69161 0.0
H497 H 0.30129 0.07168 0.77373 0.0
H498 H 0.3386 0.0459 0.58715 0.0
H499 H 0.36061 0.06273 0.53076 0.0
H500 H 0.33608 0.05236 0.48635 0.0
H501 H 0.34271 0.08817 0.45555 0.0
H502 H 0.36736 0.09863 0.49908 0.0
H503 H 0.35012 0.10629 0.535 0.0
H504 H 0.33527 0.08459 0.8369 0.0
H505 H 0.37104 0.09765 0.87187 0.0
H506 H 0.38395 0.09244 0.62441 0.0
C507 C 0.30457 0.06097 0.5481 0.0
C508 C 0.2858 0.05572 0.58222 0.0
C509 C 0.28488 0.06011 0.6637 0.0
C510 C 0.30219 0.06887 0.71116 0.0
C511 C 0.32036 0.07343 0.67615 0.0
C512 C 0.32175 0.06997 0.5962 0.0
C513 C 0.34312 0.07624 0.57342 0.0
C514 C 0.34468 0.05823 0.54263 0.0
C515 C 0.35131 0.09335 0.51215 0.0
C516 C 0.35341 0.08343 0.65325 0.0
C517 C 0.34003 0.08156 0.71197 0.0
C518 C 0.34597 0.08641 0.79124 0.0
C519 C 0.36623 0.09368 0.81067 0.0
C520 C 0.38022 0.09623 0.75076 0.0
C521 C 0.37363 0.09094 0.6713 0.0
H522 H 0.93819 0.31844 0.71646 0.0
H523 H 0.87694 0.26871 0.71612 0.0
H524 H 0.88812 0.24754 0.64664 0.0
H525 H 0.94987 0.30885 0.51856 0.0
H526 H 0.97558 0.31656 0.54277 0.0
H527 H 0.96285 0.32746 0.59473 0.0
H528 H 0.97071 0.31669 0.73005 0.0
H529 H 0.98373 0.30606 0.67861 0.0
H530 H 0.96348 0.29076 0.74565 0.0
H531 H 0.90669 0.23141 0.58616 0.0
H532 H 0.93102 0.222 0.53379 0.0
H533 H 0.97911 0.28348 0.55996 0.0
C534 C 0.92721 0.303 0.7026 0.0
C535 C 0.90682 0.29495 0.72272 0.0
C536 C 0.89269 0.27495 0.70172 0.0
C537 C 0.89888 0.26291 0.6621 0.0
C538 C 0.91912 0.27138 0.6422 0.0
C539 C 0.93302 0.29103 0.66105 0.0
C540 C 0.95375 0.29674 0.63114 0.0
C541 C 0.96093 0.31339 0.56805 0.0
C542 C 0.9688 0.30291 0.7005 0.0
C543 C 0.9495 0.27706 0.59449 0.0
C544 C 0.92944 0.26257 0.60164 0.0
C545 C 0.92231 0.24273 0.57842 0.0
C546 C 0.93613 0.23753 0.54852 0.0
C547 C 0.95662 0.25222 0.54071 0.0
C548 C 0.96331 0.27223 0.56263 0.0
H549 H 0.7553 0.70981 0.52936 0.0
H550 H 0.74972 0.74289 0.7283 0.0
H551 H 0.73709 0.71308 0.81242 0.0
H552 H 0.71022 0.66349 0.57097 0.0
H553 H 0.7205 0.64785 0.54292 0.0
H554 H 0.72997 0.67214 0.49784 0.0
H555 H 0.76604 0.68202 0.54264 0.0
H556 H 0.75663 0.65778 0.58828 0.0
H557 H 0.77097 0.68026 0.64638 0.0
H558 H 0.72434 0.67985 0.87568 0.0
H559 H 0.7108 0.64427 0.91152 0.0
H560 H 0.7244 0.63245 0.67328 0.0
C561 C 0.75147 0.71077 0.59059 0.0
C562 C 0.75351 0.72874 0.62173 0.0
C563 C 0.74824 0.72932 0.70237 0.0
C564 C 0.74111 0.71247 0.75118 0.0
C565 C 0.73928 0.69505 0.71889 0.0
C566 C 0.74419 0.69396 0.64052 0.0
C567 C 0.74009 0.67306 0.62058 0.0
C568 C 0.72425 0.66358 0.55417 0.0
C569 C 0.7596 0.67331 0.59816 0.0
C570 C 0.73198 0.66268 0.6997 0.0
C571 C 0.73178 0.67568 0.75572 0.0
C572 C 0.72448 0.66947 0.83255 0.0
C573 C 0.71685 0.64926 0.85241 0.0
C574 C 0.71654 0.63556 0.79544 0.0
C575 C 0.72448 0.64252 0.71849 0.0
H576 H 0.95489 0.71866 0.67459 0.0
H577 H 0.99399 0.71442 0.49863 0.0
H578 H 0.98716 0.68223 0.55629 0.0
H579 H 0.96769 0.69715 0.83847 0.0
H580 H 0.94245 0.68332 0.87671 0.0
H581 H 0.95052 0.70636 0.823 0.0
H582 H 0.92094 0.68792 0.7239 0.0
H583 H 0.91262 0.6649 0.77795 0.0
H584 H 0.91767 0.66587 0.67281 0.0
H585 H 0.9772 0.65141 0.63391 0.0
H586 H 0.96106 0.621 0.71596 0.0
H587 H 0.92704 0.64398 0.83945 0.0
C588 C 0.96194 0.71091 0.64804 0.0
C589 C 0.97501 0.71908 0.58219 0.0
C590 C 0.98384 0.70842 0.54878 0.0
C591 C 0.9802 0.6902 0.58149 0.0
C592 C 0.96754 0.68275 0.64712 0.0
C593 C 0.95826 0.69253 0.67933 0.0
C594 C 0.94464 0.6807 0.74782 0.0
C595 C 0.95176 0.69259 0.82613 0.0
C596 C 0.92267 0.67447 0.72949 0.0
C597 C 0.94771 0.66273 0.74871 0.0
C598 C 0.96123 0.66444 0.69081 0.0
C599 C 0.96653 0.64981 0.67932 0.0
C600 C 0.95729 0.63261 0.72663 0.0
C601 C 0.94269 0.63001 0.78422 0.0
C602 C 0.93817 0.64551 0.7963 0.0
H603 H 0.30683 0.28771 0.56905 0.0
H604 H 0.29335 0.22585 0.5701 0.0
H605 H 0.32284 0.23532 0.65675 0.0
H606 H 0.36135 0.3096 0.56064 0.0
H607 H 0.36587 0.33071 0.62188 0.0
H608 H 0.34386 0.31875 0.5596 0.0
H609 H 0.32162 0.31336 0.6835 0.0
H610 H 0.34353 0.32483 0.74646 0.0
H611 H 0.32335 0.29985 0.7679 0.0
H612 H 0.35222 0.25128 0.75232 0.0
H613 H 0.38335 0.27359 0.82711 0.0
H614 H 0.37867 0.32518 0.75501 0.0
C615 C 0.3103 0.27624 0.58658 0.0
C616 C 0.29793 0.25609 0.56313 0.0
C617 C 0.30285 0.24143 0.58688 0.0
C618 C 0.3194 0.24662 0.63674 0.0
C619 C 0.33097 0.26656 0.66089 0.0
C620 C 0.32696 0.28123 0.63475 0.0
C621 C 0.34217 0.30169 0.66652 0.0
C622 C 0.35402 0.31603 0.59809 0.0
C623 C 0.33205 0.31044 0.71922 0.0
C624 C 0.35526 0.29623 0.71529 0.0
C625 C 0.34836 0.27585 0.71261 0.0
C626 C 0.35786 0.26728 0.75435 0.0
C627 C 0.37536 0.28 0.79735 0.0
C628 C 0.38326 0.30102 0.79678 0.0
C629 C 0.37286 0.30913 0.75647 0.0
H630 H 0.73091 0.10273 0.78933 0.0
H631 H 0.69067 0.09305 0.59157 0.0
H632 H 0.71078 0.08407 0.50531 0.0
H633 H 0.77759 0.12221 0.67276 0.0
H634 H 0.78698 0.10901 0.73112 0.0
H635 H 0.77084 0.11696 0.77627 0.0
H636 H 0.74621 0.08041 0.82036 0.0
H637 H 0.76239 0.07246 0.7763 0.0
H638 H 0.73637 0.06065 0.74696 0.0
H639 H 0.73382 0.07469 0.44178 0.0
H640 H 0.75591 0.06112 0.40918 0.0
H641 H 0.78078 0.07533 0.64839 0.0
C642 C 0.72652 0.09889 0.7277 0.0
C643 C 0.70927 0.09857 0.69706 0.0
C644 C 0.70374 0.09321 0.61643 0.0
C645 C 0.7152 0.08831 0.56663 0.0
C646 C 0.73208 0.0887 0.59841 0.0
C647 C 0.73762 0.09356 0.67724 0.0
C648 C 0.7553 0.09083 0.69788 0.0
C649 C 0.77377 0.11095 0.72085 0.0
C650 C 0.74973 0.07515 0.76427 0.0
C651 C 0.75842 0.08324 0.61888 0.0
C652 C 0.74516 0.0826 0.56196 0.0
C653 C 0.74441 0.07523 0.48555 0.0
C654 C 0.75707 0.06759 0.46757 0.0
C655 C 0.77009 0.06711 0.52617 0.0
C656 C 0.77115 0.07563 0.602 0.0
H657 H 0.64289 0.95567 0.2133 0.0
H658 H 0.62834 0.89342 0.20866 0.0
H659 H 0.65958 0.90261 0.28244 0.0
H660 H 0.6967 0.97712 0.1858 0.0
H661 H 0.70277 -0.00185 0.25022 0.0
H662 H 0.67949 0.98648 0.19555 0.0
H663 H 0.65999 0.9809 0.32771 0.0
H664 H 0.68319 0.99221 0.38295 0.0
H665 H 0.66344 0.96724 0.40739 0.0
H666 H 0.69154 0.91846 0.36483 0.0
H667 H 0.724 0.94056 0.43219 0.0
H668 H 0.71768 0.99222 0.37781 0.0
C669 C 0.64637 0.94399 0.22693 0.0
C670 C 0.63317 0.92383 0.20528 0.0
C671 C 0.6383 0.909 0.22413 0.0
C672 C 0.65593 0.91404 0.26661 0.0
C673 C 0.66834 0.93398 0.28894 0.0
C674 C 0.66396 0.94877 0.26839 0.0
C675 C 0.67992 0.96913 0.29813 0.0
C676 C 0.69034 0.98356 0.22826 0.0
C677 C 0.6711 0.97787 0.35758 0.0
C678 C 0.6939 0.96348 0.33903 0.0
C679 C 0.6869 0.94312 0.33405 0.0
C680 C 0.69724 0.93445 0.36864 0.0
C681 C 0.71555 0.94706 0.4073 0.0
C682 C 0.72332 0.96805 0.40991 0.0
C683 C 0.71214 0.97622 0.37638 0.0
H684 H 0.07416 0.77722 0.50285 0.0
H685 H 0.05654 0.79131 0.27805 0.0
H686 H 0.07591 0.77878 0.20586 0.0
H687 H 0.12597 0.78581 0.43226 0.0
H688 H 0.12276 0.7648 0.49087 0.0
H689 H 0.11259 0.78009 0.52536 0.0
H690 H 0.07752 0.74825 0.53691 0.0
H691 H 0.08738 0.73293 0.50094 0.0
H692 H 0.0665 0.73257 0.4505 0.0
H693 H 0.08871 0.75723 0.15888 0.0
H694 H 0.09791 0.73104 0.13946 0.0
H695 H 0.10864 0.73121 0.39291 0.0
C696 C 0.07546 0.77871 0.43873 0.0
C697 C 0.06429 0.78552 0.39568 0.0
C698 C 0.06535 0.78641 0.31166 0.0
C699 C 0.0763 0.77933 0.27024 0.0
C700 C 0.08619 0.77151 0.31385 0.0
C701 C 0.08629 0.77153 0.39633 0.0
C702 C 0.09561 0.7596 0.42818 0.0
C703 C 0.11541 0.77341 0.47173 0.0
C704 C 0.08086 0.74232 0.48226 0.0
C705 C 0.09936 0.75179 0.35107 0.0
C706 C 0.09408 0.75909 0.28584 0.0
C707 C 0.09358 0.75194 0.2091 0.0
C708 C 0.09862 0.73695 0.19868 0.0
C709 C 0.1042 0.7294 0.26457 0.0
C710 C 0.10493 0.73718 0.34139 0.0
H711 H 0.27974 0.37842 0.17402 0.0
H712 H 0.27386 0.40916 0.38033 0.0
H713 H 0.25489 0.37695 0.4498 0.0
H714 H 0.22892 0.33143 0.19723 0.0
H715 H 0.23882 0.31579 0.16429 0.0
H716 H 0.24909 0.34088 0.12578 0.0
H717 H 0.28459 0.34888 0.1707 0.0
H718 H 0.27443 0.324 0.21051 0.0
H719 H 0.28886 0.34549 0.27363 0.0
H720 H 0.24297 0.34293 0.50675 0.0
H721 H 0.23408 0.30803 0.53918 0.0
H722 H 0.24519 0.29881 0.29406 0.0
C723 C 0.27387 0.37831 0.23268 0.0
C724 C 0.27841 0.39637 0.27158 0.0
C725 C 0.27061 0.39557 0.34891 0.0
C726 C 0.2598 0.37731 0.38916 0.0
C727 C 0.25647 0.3599 0.35073 0.0
C728 C 0.26277 0.36013 0.27342 0.0
C729 C 0.25833 0.33945 0.24774 0.0
C730 C 0.24287 0.33141 0.17974 0.0
C731 C 0.27771 0.33948 0.22432 0.0
C732 C 0.24951 0.32787 0.32392 0.0
C733 C 0.24855 0.33992 0.38268 0.0
C734 C 0.24304 0.33314 0.46065 0.0
C735 C 0.23819 0.31342 0.47874 0.0
C736 C 0.23866 0.30078 0.41879 0.0
C737 C 0.24421 0.30807 0.34045 0.0
H738 H 0.96306 0.3812 0.971 0.0
H739 H 0.96476 0.42334 0.79541 0.0
H740 H -0.00045 0.44789 0.83743 0.0
H741 H 0.99222 0.41828 0.12414 0.0
H742 H 0.00448 0.40469 0.1556 0.0
H743 H 0.97941 0.39134 0.11511 0.0
H744 H 0.99118 0.375 0.00887 0.0
H745 H 0.01621 0.38823 0.04906 0.0
H746 H 0.01206 0.39081 0.94522 0.0
H747 H 0.03534 0.46636 0.89155 0.0
H748 H 0.06846 0.47721 0.95288 0.0
H749 H 0.04204 0.4229 0.09517 0.0
C750 C 0.97065 0.39563 0.94144 0.0
C751 C 0.96127 0.40033 0.87946 0.0
C752 C 0.97169 0.41945 0.84304 0.0
C753 C 0.9914 0.43346 0.86663 0.0
C754 C 0.00026 0.42818 0.92748 0.0
C755 C 0.99009 0.40975 0.9647 0.0
C756 C 0.003 0.40725 0.02629 0.0
C757 C 0.99426 0.40528 0.11025 0.0
C758 C 0.00578 0.38927 0.0061 0.0
C759 C 0.02235 0.42694 0.01645 0.0
C760 C 0.02049 0.43891 0.95966 0.0
C761 C 0.03685 0.45723 0.9369 0.0
C762 C 0.05562 0.46325 0.97205 0.0
C763 C 0.05785 0.45098 0.0293 0.0
C764 C 0.04083 0.43281 0.05264 0.0
H765 H 0.61987 0.59038 0.83526 0.0
H766 H 0.62157 0.55907 0.04638 0.0
H767 H 0.60143 0.57075 0.11928 0.0
H768 H 0.62887 0.63292 0.93161 0.0
H769 H 0.61292 0.6386 0.87152 0.0
H770 H 0.62326 0.62419 0.83012 0.0
H771 H 0.58754 0.59544 0.79428 0.0
H772 H 0.57706 0.60992 0.83474 0.0
H773 H 0.56857 0.58488 0.87059 0.0
H774 H 0.58571 0.58974 0.17468 0.0
H775 H 0.57567 0.61478 0.20826 0.0
H776 H 0.58535 0.63478 0.96237 0.0
C777 C 0.61515 0.58529 0.89563 0.0
C778 C 0.62171 0.57346 0.93501 0.0
C779 C 0.61623 0.56782 0.0152 0.0
C780 C 0.60482 0.57437 0.05694 0.0
C781 C 0.59913 0.58667 0.01764 0.0
C782 C 0.60399 0.592 0.93857 0.0
C783 C 0.59841 0.60747 0.91357 0.0
C784 C 0.61697 0.62694 0.88509 0.0
C785 C 0.58191 0.59891 0.84951 0.0
C786 C 0.59049 0.6106 0.99158 0.0
C787 C 0.59063 0.59819 0.05048 0.0
C788 C 0.58519 0.59931 0.12873 0.0
C789 C 0.57958 0.61362 0.14735 0.0
C790 C 0.57974 0.62677 0.08813 0.0
C791 C 0.585 0.62494 0.00913 0.0
H792 H 0.40546 0.04424 0.8959 0.0
H793 H 0.46661 0.05594 0.87439 0.0
H794 H 0.45681 0.02389 0.94402 0.0
H795 H 0.39611 0.02409 0.0883 0.0
H796 H 0.37032 0.00543 0.06904 0.0
H797 H 0.38193 0.02851 0.01358 0.0
H798 H 0.37315 0.00868 0.88072 0.0
H799 H 0.36112 0.98552 0.93571 0.0
H800 H 0.38077 0.99025 0.86575 0.0
H801 H 0.44017 0.99131 0.02602 0.0
H802 H 0.41756 0.95956 0.0964 0.0
H803 H 0.3678 0.97022 0.0603 0.0
C804 C 0.41678 0.03997 0.90482 0.0
C805 C 0.43679 0.05254 0.87996 0.0
C806 C 0.45113 0.0464 0.89242 0.0
C807 C 0.44574 0.02833 0.93247 0.0
C808 C 0.42594 0.01661 0.95862 0.0
C809 C 0.41165 0.02209 0.94384 0.0
C810 C 0.39141 0.00711 0.97763 0.0
C811 C 0.38455 0.01688 0.04089 0.0
C812 C 0.37569 0.99731 0.91098 0.0
C813 C 0.39649 0.99235 0.01468 0.0
C814 C 0.41647 -0.00195 0.00384 0.0
C815 C 0.42449 0.98668 0.03427 0.0
C816 C 0.41159 0.96877 0.07475 0.0
C817 C 0.39092 0.96241 0.08368 0.0
C818 C 0.38349 0.97461 0.05421 0.0
H819 H 0.62422 0.06384 0.01403 0.0
H820 H 0.59241 0.05236 0.78996 0.0
H821 H 0.56905 0.01744 0.83196 0.0
H822 H 0.62483 0.01979 0.0145 0.0
H823 H 0.62215 0.01558 0.12042 0.0
H824 H 0.63321 0.04068 0.08217 0.0
H825 H 0.60685 0.04595 0.15769 0.0
H826 H 0.59571 0.02081 0.19668 0.0
H827 H 0.58047 0.02856 0.14273 0.0
H828 H 0.55208 0.98331 0.88988 0.0
H829 H 0.54438 0.95146 0.95297 0.0
H830 H 0.58889 0.98424 0.13618 0.0
C831 C 0.61181 0.05412 0.97547 0.0
C832 C 0.60964 0.06072 0.89981 0.0
C833 C 0.59395 0.04751 0.84872 0.0
C834 C 0.58062 0.02774 0.87227 0.0
C835 C 0.58343 0.02144 0.94655 0.0
C836 C 0.59871 0.03418 -0.0027 0.0
C837 C 0.60046 0.02288 0.06785 0.0
C838 C 0.6214 0.02485 0.07136 0.0
C839 C 0.59557 0.02997 0.14586 0.0
C840 C 0.5843 0.00169 0.04722 0.0
C841 C 0.5743 0.00131 0.97827 0.0
C842 C 0.55962 0.98341 0.94446 0.0
C843 C 0.55539 0.96537 0.98082 0.0
C844 C 0.56606 0.96529 0.0496 0.0
C845 C 0.58035 0.98377 0.08412 0.0
H846 H 0.03219 0.62808 0.21321 0.0
H847 H 0.06257 0.59713 0.12686 0.0
H848 H 0.03105 0.57137 0.06412 0.0
H849 H 0.98264 0.58109 0.25218 0.0
H850 H 0.96872 0.59312 0.22207 0.0
H851 H 0.99302 0.60762 0.26836 0.0
H852 H 0.00519 0.63183 0.1477 0.0
H853 H 0.98105 0.61734 0.10099 0.0
H854 H 0.00343 0.62183 0.04903 0.0
H855 H -0.0017 0.55316 0.98912 0.0
H856 H 0.9652 0.54115 0.92367 0.0
H857 H 0.95513 0.58145 0.071 0.0
C858 C 0.03201 0.61555 0.18299 0.0
C859 C 0.04973 0.61453 0.17487 0.0
C860 C 0.04906 0.59804 0.13446 0.0
C861 C 0.03125 0.58338 0.09844 0.0
C862 C 0.01414 0.58512 0.10546 0.0
C863 C 0.01422 0.60049 0.14865 0.0
C864 C 0.99406 0.59943 0.14433 0.0
C865 C 0.98402 0.59505 0.22663 0.0
C866 C 0.99607 0.61875 0.10834 0.0
C867 C 0.98298 0.58172 0.08881 0.0
C868 C 0.99479 0.57365 0.06674 0.0
C869 C 0.98863 0.55884 0.00804 0.0
C870 C 0.96993 0.55215 0.97106 0.0
C871 C 0.95763 0.56003 -0.0056 0.0
C872 C 0.9641 0.57474 0.05455 0.0
H873 H 0.39706 0.43282 0.17547 0.0
H874 H 0.3636 0.43292 0.96737 0.0
H875 H 0.38359 0.42337 0.88301 0.0
H876 H 0.44589 0.4509 0.07609 0.0
H877 H 0.45174 0.4344 0.13136 0.0
H878 H 0.43632 0.44335 0.1756 0.0
H879 H 0.40819 0.40673 0.20164 0.0
H880 H 0.4236 0.39772 0.15828 0.0
H881 H 0.3987 0.38917 0.11992 0.0
H882 H 0.40554 0.41234 0.8217 0.0
H883 H 0.42594 0.39691 0.78852 0.0
H884 H 0.44482 0.40244 0.03556 0.0
C885 C 0.39415 0.431 0.11206 0.0
C886 C 0.37879 0.43355 0.0779 0.0
C887 C 0.37517 0.43081 -0.00513 0.0
C888 C 0.38658 0.4256 0.94625 0.0
C889 C 0.40151 0.42304 0.9815 0.0
C890 C 0.40522 0.4254 0.06249 0.0
C891 C 0.42096 0.41993 0.08556 0.0
C892 C 0.43985 0.43824 0.11913 0.0
C893 C 0.41234 0.40234 0.14482 0.0
C894 C 0.42512 0.41376 0.00514 0.0
C895 C 0.414 0.41609 0.94589 0.0
C896 C 0.41446 0.41056 0.86736 0.0
C897 C 0.42612 0.40181 0.84912 0.0
C898 C 0.43702 0.39845 0.90932 0.0
C899 C 0.43689 0.40503 0.98795 0.0
H900 H 0.08986 0.24337 0.45672 0.0
H901 H 0.04628 0.18239 0.52371 0.0
H902 H 0.07265 0.17291 0.5143 0.0
H903 H 0.11533 0.22957 0.31097 0.0
H904 H 0.13969 0.25076 0.33332 0.0
H905 H 0.11744 0.25262 0.34698 0.0
H906 H 0.12732 0.26305 0.49428 0.0
H907 H 0.14963 0.26135 0.48092 0.0
H908 H 0.1321 0.24718 0.55871 0.0
H909 H 0.10465 0.1711 0.50653 0.0
H910 H 0.13907 0.17644 0.49106 0.0
H911 H 0.16018 0.23775 0.41682 0.0
C912 C 0.08592 0.22805 0.46982 0.0
C913 C 0.06623 0.21363 0.4919 0.0
C914 C 0.0614 0.19362 0.50698 0.0
C915 C 0.07623 0.18813 0.50179 0.0
C916 C 0.09558 0.20277 0.47968 0.0
C917 C 0.10034 0.22224 0.46293 0.0
C918 C 0.12203 0.23504 0.43854 0.0
C919 C 0.12371 0.24243 0.35232 0.0
C920 C 0.13344 0.25269 0.49659 0.0
C921 C 0.12889 0.21985 0.44569 0.0
C922 C 0.11351 0.20135 0.47009 0.0
C923 C 0.11673 0.18541 0.48607 0.0
C924 C 0.13625 0.18856 0.47727 0.0
C925 C 0.15206 0.20736 0.45144 0.0
C926 C 0.14822 0.22306 0.43464 0.0
H927 H 0.78587 0.9401 0.44703 0.0
H928 H 0.84731 0.98118 0.51869 0.0
H929 H 0.85462 0.95319 0.51511 0.0
H930 H 0.77837 0.89837 0.55741 0.0
H931 H 0.76369 0.88036 0.48153 0.0
H932 H 0.76395 0.90382 0.48747 0.0
H933 H 0.77556 0.91137 0.34033 0.0
H934 H 0.77535 0.8879 0.33395 0.0
H935 H 0.79786 0.91103 0.30976 0.0
H936 H 0.85373 0.91941 0.51476 0.0
H937 H 0.84545 0.88385 0.50803 0.0
H938 H 0.78529 0.86675 0.42774 0.0
C939 C 0.80089 0.94323 0.4618 0.0
C940 C 0.816 0.96262 0.48396 0.0
C941 C 0.83556 0.9663 0.50164 0.0
C942 C 0.83981 0.95054 0.4998 0.0
C943 C 0.82442 0.93144 0.47844 0.0
C944 C 0.80545 0.92789 0.4586 0.0
C945 C 0.79143 0.90621 0.43763 0.0
C946 C 0.7733 0.89664 0.49442 0.0
C947 C 0.78466 0.90401 0.35022 0.0
C948 C 0.80526 0.89789 0.45078 0.0
C949 C 0.82423 0.91254 0.47449 0.0
C950 C 0.83902 0.90788 0.49493 0.0
C951 C 0.8342 0.88769 0.49116 0.0
C952 C 0.81483 0.8726 0.46644 0.0
C953 C 0.80037 0.87795 0.44536 0.0
H954 H 0.0715 0.86742 0.58431 0.0
H955 H 0.03792 0.87424 0.39103 0.0
H956 H 0.06579 0.90883 0.36893 0.0
H957 H 0.09772 0.92101 0.65438 0.0
H958 H 0.12034 0.92026 0.67513 0.0
H959 H 0.09616 0.89789 0.68582 0.0
H960 H 0.10754 0.8791 0.58987 0.0
H961 H 0.13155 0.90139 0.57781 0.0
H962 H 0.1163 0.88908 0.49168 0.0
H963 H 0.09955 0.94033 0.35396 0.0
H964 H 0.1355 0.96633 0.35109 0.0
H965 H 0.14649 0.93802 0.55326 0.0
C966 C 0.0697 0.87636 0.53884 0.0
C967 C 0.05256 0.86814 0.48936 0.0
C968 C 0.05086 0.88029 0.4301 0.0
C969 C 0.06662 0.89995 0.41708 0.0
C970 C 0.08376 0.90724 0.46459 0.0
C971 C 0.08521 0.89587 0.52513 0.0
C972 C 0.10588 0.90612 0.56236 0.0
C973 C 0.10496 0.91165 0.64959 0.0
C974 C 0.1159 0.89315 0.5549 0.0
C975 C 0.11618 0.9246 0.51079 0.0
C976 C 0.10316 0.92522 0.45561 0.0
C977 C 0.10977 0.9402 0.39792 0.0
C978 C 0.13023 0.95484 0.39653 0.0
C979 C 0.14382 0.9542 0.4519 0.0
C980 C 0.13652 0.93901 0.51025 0.0
H981 H 0.2093 0.14869 0.55408 0.0
H982 H 0.2152 0.16119 0.30107 0.0
H983 H 0.20807 0.12662 0.27345 0.0
H984 H 0.23577 0.12238 0.55052 0.0
H985 H 0.22093 0.1046 0.62654 0.0
H986 H 0.22349 0.12914 0.62571 0.0
H987 H 0.18472 0.11298 0.62244 0.0
H988 H 0.18206 0.08834 0.62297 0.0
H989 H 0.17053 0.09522 0.54507 0.0
H990 H 0.20151 0.09157 0.27377 0.0
H991 H 0.20056 0.05968 0.30128 0.0
H992 H 0.20202 0.07099 0.55518 0.0
C993 C 0.20869 0.14391 0.49297 0.0
C994 C 0.21243 0.15721 0.42935 0.0
C995 C 0.21219 0.15094 0.35014 0.0
C996 C 0.20804 0.13139 0.33404 0.0
C997 C 0.20452 0.11856 0.39808 0.0
C998 C 0.20512 0.12462 0.47604 0.0
C999 C 0.2032 0.10873 0.53407 0.0
C1000 C 0.22196 0.11669 0.58731 0.0
C1001 C 0.18398 0.10085 0.58408 0.0
C1002 C 0.20175 0.09293 0.47652 0.0
C1003 C 0.20201 0.0987 0.39846 0.0
C1004 C 0.20122 0.08682 0.3346 0.0
C1005 C 0.20062 0.06871 0.35089 0.0
C1006 C 0.20126 0.06292 0.43039 0.0
C1007 C 0.20152 0.07506 0.49389 0.0
H1008 H 0.87957 0.07692 0.43701 0.0
H1009 H 0.86092 0.07494 0.6822 0.0
H1010 H 0.89388 0.10418 0.71402 0.0
H1011 H 0.93403 0.0955 0.47869 0.0
H1012 H 0.94197 0.11162 0.39264 0.0
H1013 H 0.91825 0.08845 0.39148 0.0
H1014 H 0.89999 0.108 0.35544 0.0
H1015 H 0.92358 0.13116 0.35655 0.0
H1016 H 0.9032 0.12837 0.41851 0.0
H1017 H 0.92641 0.13535 0.71653 0.0
H1018 H 0.95651 0.16786 0.68865 0.0
H1019 H 0.9545 0.15059 0.44116 0.0
C1020 C 0.88268 0.08236 0.49776 0.0
C1021 C 0.86782 0.07368 0.55731 0.0
C1022 C 0.87214 0.08144 0.63574 0.0
C1023 C 0.89086 0.09792 0.65455 0.0
C1024 C 0.90506 0.10644 0.59424 0.0
C1025 C 0.90126 0.09899 0.51739 0.0
C1026 C 0.91828 0.11239 0.46199 0.0
C1027 C 0.92875 0.10133 0.42929 0.0
C1028 C 0.91081 0.12046 0.39417 0.0
C1029 C 0.9318 0.12891 0.51918 0.0
C1030 C 0.92403 0.1249 0.59542 0.0
C1031 C 0.93286 0.13855 0.65744 0.0
C1032 C 0.94988 0.15701 0.64085 0.0
C1033 C 0.95782 0.1617 0.56275 0.0
C1034 C 0.94893 0.14726 0.50164 0.0
H1035 H 0.94718 0.821 0.47614 0.0
H1036 H 0.92452 0.75796 0.52653 0.0
H1037 H 0.88982 0.75156 0.5195 0.0
H1038 H 0.91078 0.82506 0.5971 0.0
H1039 H 0.9083 0.84216 0.53123 0.0
H1040 H 0.93155 0.84185 0.53493 0.0
H1041 H 0.92955 0.83562 0.38276 0.0
H1042 H 0.90627 0.83589 0.3786 0.0
H1043 H 0.90743 0.81456 0.34089 0.0
H1044 H 0.85815 0.75153 0.50538 0.0
H1045 H 0.83018 0.75824 0.49719 0.0
H1046 H 0.87249 0.82182 0.46564 0.0
C1047 C 0.93485 0.80587 0.48506 0.0
C1048 C 0.9384 0.78992 0.50151 0.0
C1049 C 0.92203 0.77036 0.51418 0.0
C1050 C 0.9023 0.76656 0.50989 0.0
C1051 C 0.89924 0.78255 0.494 0.0
C1052 C 0.91496 0.80186 0.48276 0.0
C1053 C 0.90727 0.81641 0.47115 0.0
C1054 C 0.91493 0.83231 0.53758 0.0
C1055 C 0.91297 0.82619 0.38842 0.0
C1056 C 0.88482 0.80217 0.47773 0.0
C1057 C 0.88065 0.78269 0.48968 0.0
C1058 C 0.86115 0.7667 0.49629 0.0
C1059 C 0.84538 0.77069 0.49123 0.0
C1060 C 0.84919 0.79056 0.48082 0.0
C1061 C 0.86919 0.80652 0.47402 0.0
H1062 H 0.81326 0.53513 0.85276 0.0
H1063 H 0.85253 0.59963 0.87082 0.0
H1064 H 0.82321 0.60439 0.8593 0.0
H1065 H 0.77831 0.53522 0.71284 0.0
H1066 H 0.75641 0.5149 0.75891 0.0
H1067 H 0.78043 0.51631 0.7682 0.0
H1068 H 0.77728 0.51542 0.92186 0.0
H1069 H 0.7532 0.51389 0.91306 0.0
H1070 H 0.77284 0.53361 0.97152 0.0
H1071 H 0.79064 0.6025 0.83676 0.0
H1072 H 0.75549 0.59407 0.82015 0.0
H1073 H 0.73623 0.53058 0.82808 0.0
C1074 C 0.81561 0.55022 0.85444 0.0
C1075 C 0.8351 0.56705 0.86227 0.0
C1076 C 0.83768 0.58657 0.86519 0.0
C1077 C 0.82116 0.58942 0.85834 0.0
C1078 C 0.80217 0.57257 0.85013 0.0
C1079 C 0.7992 0.55333 0.84955 0.0
C1080 C 0.77705 0.53786 0.84245 0.0
C1081 C 0.77281 0.52534 0.76604 0.0
C1082 C 0.76966 0.5244 0.91665 0.0
C1083 C 0.76812 0.55148 0.83792 0.0
C1084 C 0.783 0.57143 0.8415 0.0
C1085 C 0.77881 0.58696 0.83479 0.0
C1086 C 0.75882 0.58199 0.82487 0.0
C1087 C 0.74322 0.56168 0.82302 0.0
C1088 C 0.7479 0.5462 0.83002 0.0
H1089 H 0.48667 0.28528 0.87735 0.0
H1090 H 0.42638 0.2674 0.79658 0.0
H1091 H 0.42132 0.23438 0.75657 0.0
H1092 H 0.49862 0.25865 0.72802 0.0
H1093 H 0.51135 0.25081 0.79677 0.0
H1094 H 0.51109 0.27378 0.81424 0.0
H1095 H 0.49582 0.26116 0.95417 0.0
H1096 H 0.49618 0.23823 0.93733 0.0
H1097 H 0.47301 0.23731 0.96363 0.0
H1098 H 0.42275 0.20407 0.72288 0.0
H1099 H 0.4286 0.17552 0.71422 0.0
H1100 H 0.48683 0.21117 0.82754 0.0
C1101 C 0.4725 0.27436 0.85093 0.0
C1102 C 0.45691 0.27875 0.83953 0.0
C1103 C 0.43842 0.26416 0.80597 0.0
C1104 C 0.43546 0.24547 0.78253 0.0
C1105 C 0.45105 0.24153 0.79436 0.0
C1106 C 0.46906 0.25532 0.8291 0.0
C1107 C 0.48263 0.24648 0.84043 0.0
C1108 C 0.50207 0.25813 0.79196 0.0
C1109 C 0.48717 0.24575 0.92916 0.0
C1110 C 0.46935 0.2256 0.80676 0.0
C1111 C 0.4514 0.22332 0.77908 0.0
C1112 C 0.4367 0.20558 0.74455 0.0
C1113 C 0.44022 0.18949 0.73958 0.0
C1114 C 0.45815 0.19114 0.77036 0.0
C1115 C 0.47297 0.20951 0.80378 0.0
H1116 H 0.73621 0.20581 0.71488 0.0
H1117 H 0.72714 0.19275 0.96729 0.0
H1118 H 0.75497 0.22688 -0.0021 0.0
H1119 H 0.78907 0.23124 0.72575 0.0
H1120 H 0.79304 0.24938 0.64978 0.0
H1121 H 0.77071 0.22506 0.64795 0.0
H1122 H 0.74876 0.24191 0.64742 0.0
H1123 H 0.77108 0.26632 0.64967 0.0
H1124 H 0.75205 0.25953 0.7249 0.0
H1125 H 0.78413 0.26165 0.00111 0.0
H1126 H 0.8158 0.29323 0.97746 0.0
H1127 H 0.80783 0.28277 0.72258 0.0
C1128 C 0.73994 0.21036 0.77645 0.0
C1129 C 0.72954 0.19694 0.83896 0.0
C1130 C 0.73503 0.20299 0.91887 0.0
C1131 C 0.75065 0.22234 0.93674 0.0
C1132 C 0.76076 0.23525 0.87384 0.0
C1133 C 0.75586 0.22945 0.79528 0.0
C1134 C 0.77056 0.24541 0.73906 0.0
C1135 C 0.78149 0.23728 0.68765 0.0
C1136 C 0.75998 0.25379 0.68721 0.0
C1137 C 0.78466 0.2609 0.79837 0.0
C1138 C 0.77842 0.25495 0.87567 0.0
C1139 C 0.78917 0.26653 0.94087 0.0
C1140 C 0.80709 0.28447 0.92679 0.0
C1141 C 0.81426 0.2904 0.8482 0.0
C1142 C 0.80269 0.2786 0.78326 0.0
H1143 H 0.86688 0.47696 0.98318 0.0
H1144 H 0.84858 0.48178 0.74348 0.0
H1145 H 0.84255 0.44795 0.71298 0.0
H1146 H 0.89456 0.45636 0.93587 0.0
H1147 H 0.8878 0.43918 0.0182 0.0
H1148 H 0.88615 0.46152 0.02845 0.0
H1149 H 0.84862 0.44033 0.06742 0.0
H1150 H 0.8502 0.41781 0.05861 0.0
H1151 H 0.83147 0.42025 0.00313 0.0
H1152 H 0.84698 0.41849 0.69781 0.0
H1153 H 0.85727 0.3928 0.70512 0.0
H1154 H 0.87021 0.40523 0.95634 0.0
C1155 C 0.86087 0.4706 0.92526 0.0
C1156 C 0.85829 0.48205 0.86569 0.0
C1157 C 0.85061 0.47329 0.79029 0.0
C1158 C 0.84711 0.45404 0.77234 0.0
C1159 C 0.85088 0.44358 0.83098 0.0
C1160 C 0.85708 0.4513 0.90669 0.0
C1161 C 0.86207 0.43794 0.95618 0.0
C1162 C 0.88394 0.44944 0.98636 0.0
C1163 C 0.8472 0.42852 0.02543 0.0
C1164 C 0.8591 0.4223 0.89472 0.0
C1165 C 0.85245 0.42573 0.82308 0.0
C1166 C 0.85143 0.41514 0.75423 0.0
C1167 C 0.85744 0.40074 0.75867 0.0
C1168 C 0.86409 0.39695 0.83157 0.0
C1169 C 0.86453 0.40753 0.90067 0.0
H1170 H 0.52737 0.42046 0.90668 0.0
H1171 H 0.54496 0.37606 0.85709 0.0
H1172 H 0.58039 0.40321 0.84396 0.0
H1173 H 0.5588 0.45532 0.76463 0.0
H1174 H 0.5643 0.47701 0.82395 0.0
H1175 H 0.5409 0.454 0.83712 0.0
H1176 H 0.5486 0.454 0.98748 0.0
H1177 H 0.57198 0.47712 0.97489 0.0
H1178 H 0.57186 0.45559 0.01771 0.0
H1179 H 0.6141 0.43599 0.83349 0.0
H1180 H 0.64221 0.47109 0.82006 0.0
H1181 H 0.60093 0.49274 0.86898 0.0
C1182 C 0.53868 0.41636 0.89449 0.0
C1183 C 0.53347 0.39616 0.88369 0.0
C1184 C 0.54868 0.39148 0.86595 0.0
C1185 C 0.56882 0.40678 0.85855 0.0
C1186 C 0.57337 0.4266 0.86846 0.0
C1187 C 0.55866 0.43135 0.88577 0.0
C1188 C 0.567 0.45373 0.88849 0.0
C1189 C 0.55717 0.46039 0.82474 0.0
C1190 C 0.56473 0.4605 0.97212 0.0
C1191 C 0.58871 0.46091 0.86927 0.0
C1192 C 0.59229 0.44516 0.85895 0.0
C1193 C 0.61144 0.44843 0.8413 0.0
C1194 C 0.62728 0.46834 0.83378 0.0
C1195 C 0.62364 0.48454 0.84247 0.0
C1196 C 0.60412 0.48065 0.86072 0.0
H1197 H 0.60965 0.14084 0.70947 0.0
H1198 H 0.63456 0.17651 0.92251 0.0
H1199 H 0.60629 0.18332 0.92673 0.0
H1200 H 0.58486 0.16836 0.62362 0.0
H1201 H 0.56324 0.14517 0.59259 0.0
H1202 H 0.5877 0.14735 0.59479 0.0
H1203 H 0.57379 0.11612 0.68621 0.0
H1204 H 0.54941 0.11393 0.68488 0.0
H1205 H 0.56176 0.11596 0.77852 0.0
H1206 H 0.57368 0.18287 0.91663 0.0
H1207 H 0.53783 0.17261 0.9018 0.0
H1208 H 0.5328 0.13438 0.70291 0.0
C1209 C 0.60948 0.15076 0.75485 0.0
C1210 C 0.62435 0.1587 0.81436 0.0
C1211 C 0.62337 0.17075 0.87562 0.0
C1212 C 0.60746 0.17471 0.87818 0.0
C1213 C 0.59262 0.1662 0.81971 0.0
C1214 C 0.59342 0.15435 0.75943 0.0
C1215 C 0.57408 0.14423 0.7121 0.0
C1216 C 0.57769 0.15173 0.62564 0.0
C1217 C 0.56418 0.12121 0.71573 0.0
C1218 C 0.56197 0.15158 0.75707 0.0
C1219 C 0.57314 0.16475 0.81722 0.0
C1220 C 0.56486 0.17277 0.86915 0.0
C1221 C 0.54452 0.16687 0.8603 0.0
C1222 C 0.53265 0.15269 0.80137 0.0
C1223 C 0.5416 0.14525 0.74841 0.0
H1224 H 0.48421 0.88459 0.24114 0.0
H1225 H 0.47716 0.85409 0.01644 0.0
H1226 H 0.44156 0.84548 0.01039 0.0
H1227 H 0.43192 0.85261 0.31833 0.0
H1228 H 0.4313 0.87406 0.35801 0.0
H1229 H 0.45474 0.87408 0.3533 0.0
H1230 H 0.47051 0.9072 0.27264 0.0
H1231 H 0.44718 0.90724 0.27685 0.0
H1232 H 0.45855 0.90827 0.18188 0.0
H1233 H 0.40807 0.84293 0.02262 0.0
H1234 H 0.38024 0.84969 0.04379 0.0
H1235 H 0.41025 0.88458 0.25448 0.0
C1236 C 0.4749 0.87553 0.19219 0.0
C1237 C 0.48307 0.86958 0.13003 0.0
C1238 C 0.47091 0.8585 0.06493 0.0
C1239 C 0.45072 0.85347 0.06133 0.0
C1240 C 0.44314 0.85993 0.1228 0.0
C1241 C 0.4549 0.87088 0.18667 0.0
C1242 C 0.44413 0.8786 0.23845 0.0
C1243 C 0.44029 0.86927 0.32197 0.0
C1244 C 0.45578 0.90169 0.24262 0.0
C1245 C 0.42474 0.87084 0.1923 0.0
C1246 C 0.42422 0.85959 0.1272 0.0
C1247 C 0.40819 0.85153 0.07382 0.0
C1248 C 0.39247 0.85544 0.08637 0.0
C1249 C 0.39318 0.86769 0.15065 0.0
C1250 C 0.40935 0.87516 0.20491 0.0
H1251 H 0.14129 0.61218 0.27923 0.0
H1252 H 0.16101 0.63966 0.04682 0.0
H1253 H 0.16863 0.61323 0.00885 0.0
H1254 H 0.17852 0.59372 0.29616 0.0
H1255 H 0.16021 0.57116 0.34575 0.0
H1256 H 0.15985 0.59421 0.35944 0.0
H1257 H 0.12265 0.57634 0.31379 0.0
H1258 H 0.12294 0.55338 0.29909 0.0
H1259 H 0.11597 0.56403 0.21816 0.0
H1260 H 0.16709 0.58052 0.98679 0.0
H1261 H 0.16005 0.54545 0.98759 0.0
H1262 H 0.14361 0.54037 0.2368 0.0
C1263 C 0.14778 0.61296 0.22123 0.0
C1264 C 0.15052 0.62788 0.16591 0.0
C1265 C 0.15892 0.6284 0.09035 0.0
C1266 C 0.1633 0.61347 0.06823 0.0
C1267 C 0.15965 0.59847 0.12308 0.0
C1268 C 0.15253 0.59836 0.19873 0.0
C1269 C 0.14831 0.5797 0.2441 0.0
C1270 C 0.16258 0.58502 0.31559 0.0
C1271 C 0.12616 0.56766 0.27024 0.0
C1272 C 0.15301 0.56878 0.18051 0.0
C1273 C 0.15968 0.5799 0.11129 0.0
C1274 C 0.16252 0.5719 0.0413 0.0
C1275 C 0.15835 0.55198 0.04209 0.0
C1276 C 0.15161 0.54046 0.11257 0.0
C1277 C 0.1493 0.5491 0.18282 0.0
H1278 H 0.47526 0.61955 0.09467 0.0
H1279 H 0.50273 0.61783 0.31843 0.0
H1280 H 0.47182 0.58713 0.35612 0.0
H1281 H 0.42316 0.59874 0.17425 0.0
H1282 H 0.4119 0.58429 0.08534 0.0
H1283 H 0.43528 0.60772 0.07932 0.0
H1284 H 0.45182 0.58958 0.0096 0.0
H1285 H 0.42857 0.56614 0.01567 0.0
H1286 H 0.45118 0.5683 0.05737 0.0
H1287 H 0.44038 0.55497 0.36356 0.0
H1288 H 0.40902 0.52299 0.34154 0.0
H1289 H 0.40076 0.54506 0.11514 0.0
C1290 C 0.47456 0.61294 0.15228 0.0
C1291 C 0.49141 0.62106 0.20346 0.0
C1292 C 0.49006 0.61182 0.27791 0.0
C1293 C 0.47252 0.59443 0.30023 0.0
C1294 C 0.45637 0.58649 0.24779 0.0
C1295 C 0.45708 0.59544 0.17561 0.0
C1296 C 0.43803 0.58283 0.12808 0.0
C1297 C 0.4264 0.59407 0.11606 0.0
C1298 C 0.44269 0.57633 0.04797 0.0
C1299 C 0.42693 0.56514 0.18376 0.0
C1300 C 0.43776 0.56772 0.25274 0.0
C1301 C 0.43153 0.55286 0.31056 0.0
C1302 C 0.41379 0.53473 0.29731 0.0
C1303 C 0.40247 0.53168 0.22697 0.0
C1304 C 0.40896 0.5472 0.17011 0.0
H1305 H 0.56778 0.75595 0.07629 0.0
H1306 H 0.50724 0.71506 0.15746 0.0
H1307 H 0.50058 0.74343 0.16541 0.0
H1308 H 0.57778 0.79562 0.19964 0.0
H1309 H 0.59181 0.81499 0.12756 0.0
H1310 H 0.59089 0.79124 0.12021 0.0
H1311 H 0.5772 0.78664 0.97599 0.0
H1312 H 0.57834 0.81055 0.98242 0.0
H1313 H 0.55505 0.78836 0.9565 0.0
H1314 H 0.50256 0.77737 0.18076 0.0
H1315 H 0.51165 0.81309 0.18845 0.0
H1316 H 0.57046 0.83058 0.0915 0.0
C1317 C 0.55299 0.75291 0.0943 0.0
C1318 C 0.53801 0.73346 0.11653 0.0
C1319 C 0.51882 0.72992 0.13964 0.0
C1320 C 0.51497 0.74592 0.14461 0.0
C1321 C 0.53036 0.76512 0.1246 0.0
C1322 C 0.54885 0.76853 0.09832 0.0
C1323 C 0.56316 0.7905 0.08284 0.0
C1324 C 0.58201 0.79855 0.13574 0.0
C1325 C 0.56876 0.79423 0.99416 0.0
C1326 C 0.55013 0.7991 0.10703 0.0
C1327 C 0.53125 0.78433 0.13096 0.0
C1328 C 0.51716 0.78901 0.16076 0.0
C1329 C 0.5225 0.80931 0.16542 0.0
C1330 C 0.5417 0.82457 0.13999 0.0
C1331 C 0.55556 0.81926 0.11028 0.0
H1332 H 0.27794 0.80771 0.09726 0.0
H1333 H 0.29163 0.81946 0.34884 0.0
H1334 H 0.26225 0.78672 0.38143 0.0
H1335 H 0.22718 0.78781 0.11607 0.0
H1336 H 0.21963 0.76875 0.04041 0.0
H1337 H 0.24382 0.79115 0.03459 0.0
H1338 H 0.26121 0.76976 0.02943 0.0
H1339 H 0.23701 0.74721 0.03446 0.0
H1340 H 0.25619 0.75152 0.10633 0.0
H1341 H 0.22939 0.756 0.38879 0.0
H1342 H 0.19481 0.72815 0.37053 0.0
H1343 H 0.20157 0.73566 0.11419 0.0
C1344 C 0.2751 0.80301 0.15889 0.0
C1345 C 0.28706 0.81596 0.22059 0.0
C1346 C 0.28262 0.80968 0.30079 0.0
C1347 C 0.26604 0.79109 0.31986 0.0
C1348 C 0.25409 0.77895 0.25802 0.0
C1349 C 0.25842 0.78451 0.17906 0.0
C1350 C 0.24182 0.76966 0.12495 0.0
C1351 C 0.23257 0.77996 0.07618 0.0
C1352 C 0.24952 0.75889 0.07058 0.0
C1353 C 0.22716 0.75542 0.18616 0.0
C1354 C 0.23473 0.76094 0.26239 0.0
C1355 C 0.22342 0.75124 0.3294 0.0
C1356 C 0.20374 0.73555 0.3184 0.0
C1357 C 0.19556 0.72972 0.24094 0.0
C1358 C 0.20757 0.73959 0.174 0.0
H1359 H 0.28393 0.482 0.08042 0.0
H1360 H 0.30098 0.50829 0.31558 0.0
H1361 H 0.27204 0.514 0.31667 0.0
H1362 H 0.26071 0.51205 0.00529 0.0
H1363 H 0.24069 0.49036 0.95661 0.0
H1364 H 0.2652 0.49286 0.96589 0.0
H1365 H 0.2492 0.45815 0.03492 0.0
H1366 H 0.22474 0.45564 0.02678 0.0
H1367 H 0.23413 0.45378 0.12285 0.0
H1368 H 0.23949 0.51295 0.29969 0.0
H1369 H 0.20442 0.50338 0.27084 0.0
H1370 H 0.20687 0.47501 0.05083 0.0
C1371 C 0.28198 0.48975 0.13042 0.0
C1372 C 0.29482 0.49528 0.19701 0.0
C1373 C 0.29141 0.5044 0.26354 0.0
C1374 C 0.27508 0.50772 0.26447 0.0
C1375 C 0.26223 0.50151 0.19886 0.0
C1376 C 0.26543 0.49265 0.1331 0.0
C1377 C 0.24776 0.48447 0.07625 0.0
C1378 C 0.25397 0.49561 -0.00373 0.0
C1379 C 0.23842 0.46167 0.06459 0.0
C1380 C 0.23384 0.48945 0.12171 0.0
C1381 C 0.24271 0.49977 0.19112 0.0
C1382 C 0.23246 0.50512 0.24502 0.0
C1383 C 0.21252 0.49957 0.2281 0.0
C1384 C 0.20289 0.48841 0.15859 0.0
C1385 C 0.21384 0.48356 0.10431 0.0
H1386 H 0.99231 0.23873 0.16568 0.0
H1387 H 0.0342 0.218 0.21795 0.0
H1388 H 0.04609 0.22451 0.07902 0.0
H1389 H 0.97866 0.21586 0.97098 0.0
H1390 H 0.97608 0.23599 0.92898 0.0
H1391 H 0.97162 0.23039 0.03344 0.0
H1392 H -0.002 0.26735 0.06616 0.0
H1393 H 0.00289 0.27291 0.96169 0.0
H1394 H 0.02322 0.27782 0.02845 0.0
H1395 H 0.05451 0.23469 0.93612 0.0
H1396 H 0.05371 0.24082 0.79187 0.0
H1397 H 0.00472 0.25246 0.83068 0.0
C1398 C 0.00385 0.23541 0.14756 0.0
C1399 C 0.01234 0.22788 0.20239 0.0
C1400 C 0.02734 0.22359 0.1766 0.0
C1401 C 0.03439 0.22749 0.09814 0.0
C1402 C 0.02608 0.23541 0.04603 0.0
C1403 C 0.01077 0.23881 0.06901 0.0
C1404 C 0.00343 0.24599 -0.00018 0.0
C1405 C 0.98113 0.23117 0.98225 0.0
C1406 C 0.00711 0.26728 0.01497 0.0
C1407 C 0.01689 0.24592 0.93431 0.0
C1408 C 0.03024 0.24031 0.96264 0.0
C1409 C 0.04412 0.23907 0.91307 0.0
C1410 C 0.04371 0.24277 0.83155 0.0
C1411 C 0.02923 0.24717 0.80086 0.0
C1412 C 0.01603 0.24925 0.85314 0.0
H1413 H 0.76532 0.79639 0.16139 0.0
H1414 H 0.80954 0.77797 0.19889 0.0
H1415 H 0.81793 0.78278 0.05513 0.0
H1416 H 0.74821 0.77176 0.96541 0.0
H1417 H 0.74417 0.79141 0.92809 0.0
H1418 H 0.74125 0.78552 0.03269 0.0
H1419 H 0.76693 0.82269 0.06469 0.0
H1420 H 0.77031 0.82861 0.9602 0.0
H1421 H 0.7917 0.83414 0.02166 0.0
H1422 H 0.82397 0.79337 0.91119 0.0
H1423 H 0.82294 0.80248 0.77137 0.0
H1424 H 0.7729 0.81161 0.82603 0.0
C1425 C 0.77648 0.79298 0.13882 0.0
C1426 C 0.78681 0.7868 0.19056 0.0
C1427 C 0.80133 0.78249 0.15961 0.0
C1428 C 0.8063 0.78537 0.07842 0.0
C1429 C 0.79628 0.79215 0.02932 0.0
C1430 C 0.78126 0.79533 0.05791 0.0
C1431 C 0.77253 0.80224 0.99259 0.0
C1432 C 0.75022 0.78681 0.97888 0.0
C1433 C 0.77556 0.82316 0.01092 0.0
C1434 C 0.78531 0.8029 0.92292 0.0
C1435 C 0.79909 0.79729 0.94565 0.0
C1436 C 0.81306 0.79751 0.89247 0.0
C1437 C 0.81249 0.80293 0.81332 0.0
C1438 C 0.79783 0.80776 0.78775 0.0
C1439 C 0.78425 0.80797 0.84377 0.0
H1440 H 0.20694 0.02044 0.12845 0.0
H1441 H 0.25382 0.00586 0.17086 0.0
H1442 H 0.25402 -0.00145 0.02745 0.0
H1443 H 0.17961 0.98351 0.98569 0.0
H1444 H 0.17384 -0.00092 0.92375 0.0
H1445 H 0.17798 0.00411 0.0288 0.0
H1446 H 0.20609 0.04062 0.0002 0.0
H1447 H 0.20171 0.03584 0.89504 0.0
H1448 H 0.22654 0.04498 0.93527 0.0
H1449 H 0.24646 0.98954 0.88263 0.0
H1450 H 0.23627 0.9854 0.74119 0.0
H1451 H 0.19601 0.00815 0.79263 0.0
C1452 C 0.2175 0.01608 0.10708 0.0
C1453 C 0.2304 0.01373 0.15999 0.0
C1454 C 0.24402 0.00797 0.13061 0.0
C1455 C 0.24409 0.00361 0.04962 0.0
C1456 C 0.23071 0.00549 -0.00078 0.0
C1457 C 0.21806 0.01211 0.0264 0.0
C1458 C 0.20541 0.01321 0.95983 0.0
C1459 C 0.18288 -0.00086 0.97549 0.0
C1460 C 0.21023 0.03496 0.94681 0.0
C1461 C 0.21265 0.00582 0.89111 0.0
C1462 C 0.22703 0.00117 0.91524 0.0
C1463 C 0.23539 0.99336 0.86278 0.0
C1464 C 0.22936 0.99086 0.78289 0.0
C1465 C 0.21537 0.99646 0.75641 0.0
C1466 C 0.20676 0.0038 0.81147 0.0
H1467 H -0.00115 0.8113 0.82359 0.0
H1468 H 0.03729 0.7855 0.79303 0.0
H1469 H 0.03664 0.78008 0.93822 0.0
H1470 H 0.02188 0.83699 0.01541 0.0
H1471 H -0.00187 0.83258 0.05382 0.0
H1472 H 0.00298 0.83578 0.94839 0.0
H1473 H 0.9707 0.80164 0.92305 0.0
H1474 H 0.96597 0.7981 0.02835 0.0
H1475 H 0.96785 0.77937 0.97057 0.0
H1476 H 0.02771 0.77297 0.08111 0.0
H1477 H 0.01649 0.77036 0.22021 0.0
H1478 H 0.98643 0.80367 0.16149 0.0
C1479 C 0.00749 0.80495 0.84795 0.0
C1480 C 0.01811 0.79878 0.79783 0.0
C1481 C 0.02925 0.79049 0.83099 0.0
C1482 C 0.02884 0.78723 0.91308 0.0
C1483 C 0.01764 0.79284 0.96069 0.0
C1484 C 0.00766 0.80208 0.92988 0.0
C1485 C -0.00329 0.80658 -0.00572 0.0
C1486 C 0.00546 0.82934 0.00353 0.0
C1487 C 0.97396 0.79577 0.97805 0.0
C1488 C 0.00152 0.7978 0.06572 0.0
C1489 C 0.01342 0.78975 0.04461 0.0
C1490 C 0.01871 0.77953 0.09876 0.0
C1491 C 0.01206 0.77792 0.17719 0.0
C1492 C 0.00057 0.78676 0.20077 0.0
C1493 C 0.99524 0.79685 0.14451 0.0
H1494 H 0.23288 0.25295 0.13669 0.0
H1495 H 0.24438 0.20388 0.17451 0.0
H1496 H 0.24189 0.19746 0.02935 0.0
H1497 H 0.1973 0.23137 0.98853 0.0
H1498 H 0.20575 0.25369 0.92933 0.0
H1499 H 0.2103 0.25578 0.03492 0.0
H1500 H 0.24852 0.27867 0.01151 0.0
H1501 H 0.24408 0.27707 0.90573 0.0
H1502 H 0.26152 0.27027 0.94669 0.0
H1503 H 0.23309 0.19338 0.88511 0.0
H1504 H 0.22503 0.19573 0.74477 0.0
H1505 H 0.22205 0.24929 0.79951 0.0
C1506 C 0.23535 0.24119 0.11387 0.0
C1507 C 0.23882 0.22887 0.16564 0.0
C1508 C 0.24194 0.21356 0.13488 0.0
C1509 C 0.24041 0.20975 0.05294 0.0
C1510 C 0.23626 0.22174 0.00345 0.0
C1511 C 0.23438 0.23754 0.03236 0.0
C1512 C 0.22979 0.24804 0.96661 0.0
C1513 C 0.20959 0.24715 0.98073 0.0
C1514 C 0.24701 0.2698 0.95706 0.0
C1515 C 0.22866 0.23522 0.89654 0.0
C1516 C 0.23224 0.22003 0.91927 0.0
C1517 C 0.23066 0.20544 0.86614 0.0
C1518 C 0.22584 0.20676 0.78699 0.0
C1519 C 0.22298 0.22271 0.76195 0.0
C1520 C 0.22432 0.23705 0.81741 0.0
H1521 H 0.79405 0.03751 0.15837 0.0
H1522 H 0.81714 -0.00248 0.20937 0.0
H1523 H 0.81175 0.98638 0.0691 0.0
H1524 H 0.75598 0.00616 0.02145 0.0
H1525 H 0.75988 0.02622 0.95528 0.0
H1526 H 0.76558 0.03123 0.05967 0.0
H1527 H 0.80211 0.05868 0.02651 0.0
H1528 H 0.79633 0.05412 0.9221 0.0
H1529 H 0.81718 0.05255 0.96304 0.0
H1530 H 0.80162 0.97794 0.92519 0.0
H1531 H 0.79421 0.97807 0.78165 0.0
H1532 H 0.77986 0.02504 0.82419 0.0
C1533 C 0.79822 0.02661 0.13968 0.0
C1534 C 0.80599 0.01836 0.19448 0.0
C1535 C 0.81135 0.00418 0.16801 0.0
C1536 C 0.80811 -0.00242 0.08877 0.0
C1537 C 0.79979 0.00553 0.03679 0.0
C1538 C 0.79545 0.02014 0.06063 0.0
C1539 C 0.78756 0.02698 0.99222 0.0
C1540 C 0.76597 0.02236 0.00815 0.0
C1541 C 0.80164 0.04941 0.97493 0.0
C1542 C 0.78814 0.01391 0.92622 0.0
C1543 C 0.79481 0.00132 0.95338 0.0
C1544 C 0.79647 0.98779 0.90307 0.0
C1545 C 0.79203 0.98779 0.82204 0.0
C1546 C 0.78642 0.00149 0.79266 0.0
C1547 C 0.78402 0.01435 0.84567 0.0
H1548 H 0.6995 0.58034 0.17095 0.0
H1549 H 0.6566 0.51817 0.11536 0.0
H1550 H 0.64636 0.51196 0.25637 0.0
H1551 H 0.71468 0.56993 0.3627 0.0
H1552 H 0.71767 0.59257 0.40737 0.0
H1553 H 0.72163 0.59177 0.30215 0.0
H1554 H 0.69538 0.60279 0.2743 0.0
H1555 H 0.69101 0.60318 0.37941 0.0
H1556 H 0.67031 0.58811 0.31359 0.0
H1557 H 0.63884 0.51333 0.40151 0.0
H1558 H 0.63922 0.52064 0.54561 0.0
H1559 H 0.68849 0.58106 0.50641 0.0
C1560 C 0.68817 0.56536 0.18875 0.0
C1561 C 0.67884 0.54975 0.13251 0.0
C1562 C 0.66409 0.53031 0.15781 0.0
C1563 C 0.65801 0.52668 0.23754 0.0
C1564 C 0.66708 0.54257 0.29113 0.0
C1565 C 0.6822 0.56138 0.26824 0.0
C1566 C 0.68999 0.5757 0.33798 0.0
C1567 C 0.71231 0.58291 0.35347 0.0
C1568 C 0.68645 0.59349 0.32554 0.0
C1569 C 0.67679 0.56203 0.40348 0.0
C1570 C 0.6634 0.54308 0.37516 0.0
C1571 C 0.64938 0.52806 0.42463 0.0
C1572 C 0.64954 0.53235 0.50592 0.0
C1573 C 0.66389 0.55134 0.53622 0.0
C1574 C 0.67742 0.5664 0.48423 0.0
H1575 H 0.43323 0.10752 0.47096 0.0
H1576 H 0.49545 0.12427 0.50925 0.0
H1577 H 0.50174 0.1297 0.36418 0.0
H1578 H 0.4276 0.08117 0.27778 0.0
H1579 H 0.41113 0.08945 0.23868 0.0
H1580 H 0.41144 0.08513 0.34391 0.0
H1581 H 0.41884 0.12132 0.37158 0.0
H1582 H 0.41909 0.12599 0.26656 0.0
H1583 H 0.44057 0.1422 0.32705 0.0
H1584 H 0.5021 0.13811 0.2197 0.0
H1585 H 0.49541 0.14279 0.08006 0.0
H1586 H 0.43222 0.11813 0.13517 0.0
C1587 C 0.44802 0.11177 0.44821 0.0
C1588 C 0.46389 0.11544 0.50018 0.0
C1589 C 0.48311 0.12115 0.4695 0.0
C1590 C 0.48682 0.12441 0.38761 0.0
C1591 C 0.47098 0.12141 0.33802 0.0
C1592 C 0.45182 0.11463 0.36683 0.0
C1593 C 0.43748 0.11283 0.30139 0.0
C1594 C 0.42094 0.09084 0.28974 0.0
C1595 C 0.42848 0.1264 0.31766 0.0
C1596 C 0.45173 0.12033 0.23153 0.0
C1597 C 0.471 0.12538 0.25407 0.0
C1598 C 0.48701 0.13385 0.20098 0.0
C1599 C 0.48309 0.13667 0.12212 0.0
C1600 C 0.46328 0.13078 0.0971 0.0
C1601 C 0.44746 0.12264 0.15273 0.0
H1602 H 0.86432 0.32953 0.15134 0.0
H1603 H 0.92778 0.35282 0.10773 0.0
H1604 H 0.93476 0.35988 0.25151 0.0
H1605 H 0.86887 0.36393 0.29679 0.0
H1606 H 0.84856 0.34612 0.3583 0.0
H1607 H 0.84828 0.34179 0.25288 0.0
H1608 H 0.84506 0.30709 0.27858 0.0
H1609 H 0.84485 0.31109 0.38413 0.0
H1610 H 0.86304 0.30542 0.34241 0.0
H1611 H 0.93505 0.36784 0.39636 0.0
H1612 H 0.92808 0.37037 0.53823 0.0
H1613 H 0.86416 0.33961 0.48762 0.0
C1614 C 0.87961 0.33574 0.17255 0.0
C1615 C 0.89554 0.34064 0.11939 0.0
C1616 C 0.91539 0.34877 0.14834 0.0
C1617 C 0.9195 0.35298 0.22949 0.0
C1618 C 0.9035 0.34857 0.28024 0.0
C1619 C 0.88389 0.33961 0.25331 0.0
C1620 C 0.8694 0.33615 0.32021 0.0
C1621 C 0.85812 0.34769 0.30616 0.0
C1622 C 0.85473 0.3136 0.33204 0.0
C1623 C 0.88397 0.34494 0.38877 0.0
C1624 C 0.90359 0.35229 0.36433 0.0
C1625 C 0.91975 0.3619 0.41654 0.0
C1626 C 0.91567 0.36346 0.49656 0.0
C1627 C 0.8956 0.35514 0.52315 0.0
C1628 C 0.87961 0.34599 0.46848 0.0
H1629 H 0.68131 0.15376 0.14131 0.0
H1630 H 0.67981 0.09742 0.10021 0.0
H1631 H 0.67527 0.09021 0.24469 0.0
H1632 H 0.70883 0.16502 0.3345 0.0
H1633 H 0.69513 0.17635 0.37487 0.0
H1634 H 0.7 0.17761 0.26953 0.0
H1635 H 0.66184 0.16157 0.24206 0.0
H1636 H 0.65678 0.1598 0.34718 0.0
H1637 H 0.64464 0.13762 0.28579 0.0
H1638 H 0.66591 0.08709 0.38863 0.0
H1639 H 0.65867 0.09082 0.52857 0.0
H1640 H 0.66909 0.15056 0.4779 0.0
C1641 C 0.68056 0.14018 0.1633 0.0
C1642 C 0.68096 0.12613 0.11058 0.0
C1643 C 0.67981 0.10843 0.14042 0.0
C1644 C 0.67707 0.10417 0.22202 0.0
C1645 C 0.67602 0.11803 0.27233 0.0
C1646 C 0.67832 0.13595 0.24454 0.0
C1647 C 0.67641 0.14818 0.31092 0.0
C1648 C 0.69628 0.16796 0.32318 0.0
C1649 C 0.65887 0.15201 0.29552 0.0
C1650 C 0.67199 0.13404 0.38005 0.0
C1651 C 0.67163 0.11665 0.3563 0.0
C1652 C 0.66654 0.10078 0.40833 0.0
C1653 C 0.66223 0.10296 0.48735 0.0
C1654 C 0.66339 0.12101 0.51363 0.0
C1655 C 0.66825 0.13669 0.4592 0.0
H1656 H 0.86784 0.54466 0.20873 0.0
H1657 H 0.92698 0.59544 0.16134 0.0
H1658 H 0.93574 0.59688 0.30376 0.0
H1659 H 0.86168 0.56307 0.40409 0.0
H1660 H 0.84829 0.53812 0.44522 0.0
H1661 H 0.8466 0.5419 0.34034 0.0
H1662 H 0.85842 0.51645 0.30936 0.0
H1663 H 0.8606 0.51294 0.41407 0.0
H1664 H 0.88195 0.52061 0.34961 0.0
H1665 H 0.93917 0.59032 0.44743 0.0
H1666 H 0.93519 0.5804 0.58886 0.0
H1667 H 0.87292 0.5355 0.54497 0.0
C1668 C 0.88244 0.55637 0.22893 0.0
C1669 C 0.89671 0.57005 0.17471 0.0
C1670 C 0.91575 0.58507 0.20254 0.0
C1671 C 0.92091 0.58586 0.28301 0.0
C1672 C 0.90669 0.57177 0.33469 0.0
C1673 C 0.88766 0.55766 0.30928 0.0
C1674 C 0.87511 0.54442 0.3772 0.0
C1675 C 0.85684 0.54704 0.39263 0.0
C1676 C 0.86865 0.5223 0.36159 0.0
C1677 C 0.89018 0.55303 0.44448 0.0
C1678 C 0.90839 0.56859 0.41839 0.0
C1679 C 0.92491 0.57834 0.46885 0.0
C1680 C 0.92256 0.57245 0.54879 0.0
C1681 C 0.90375 0.55718 0.57754 0.0
C1682 C 0.88744 0.54725 0.52444 0.0
H1683 H 0.43229 0.33579 0.20497 0.0
H1684 H 0.48828 0.33833 0.14474 0.0
H1685 H 0.4972 0.341 0.28747 0.0
H1686 H 0.45237 0.37249 0.35214 0.0
H1687 H 0.4311 0.36097 0.41827 0.0
H1688 H 0.42753 0.35626 0.31291 0.0
H1689 H 0.41033 0.31792 0.3373 0.0
H1690 H 0.41341 0.32249 0.44296 0.0
H1691 H 0.42309 0.30803 0.39568 0.0
H1692 H 0.5011 0.34587 0.43373 0.0
H1693 H 0.49915 0.35116 0.57761 0.0
H1694 H 0.44134 0.34728 0.54175 0.0
C1695 C 0.44605 0.33619 0.2226 0.0
C1696 C 0.45947 0.33638 0.16541 0.0
C1697 C 0.47776 0.33776 0.18895 0.0
C1698 C 0.48294 0.33936 0.26942 0.0
C1699 C 0.4697 0.33977 0.32478 0.0
C1700 C 0.45157 0.33808 0.30271 0.0
C1701 C 0.44081 0.34043 0.37358 0.0
C1702 C 0.43779 0.35862 0.36358 0.0
C1703 C 0.42072 0.32106 0.38825 0.0
C1704 C 0.45588 0.344 0.43848 0.0
C1705 C 0.47234 0.3434 0.40915 0.0
C1706 C 0.48825 0.34627 0.4577 0.0
C1707 C 0.48705 0.34936 0.53908 0.0
C1708 C 0.47016 0.34974 0.5705 0.0
C1709 C 0.45455 0.34732 0.51922 0.0
H1710 H 0.33046 0.90651 0.49045 0.0
H1711 H 0.38298 0.9002 0.45835 0.0
H1712 H 0.38472 0.89638 0.60384 0.0
H1713 H 0.34754 0.93473 0.68444 0.0
H1714 H 0.3222 0.92266 0.72202 0.0
H1715 H 0.32676 0.92734 0.61689 0.0
H1716 H 0.30251 0.88959 0.58914 0.0
H1717 H 0.29828 0.88465 0.69406 0.0
H1718 H 0.30723 0.87117 0.63496 0.0
H1719 H 0.37691 0.88711 0.74646 0.0
H1720 H 0.36459 0.87996 0.88454 0.0
H1721 H 0.31879 0.8952 0.82715 0.0
C1722 C 0.34269 0.90498 0.51458 0.0
C1723 C 0.35664 0.90368 0.46398 0.0
C1724 C 0.37236 0.90149 0.49672 0.0
C1725 C 0.37336 0.89916 0.57899 0.0
C1726 C 0.35881 0.8996 0.62707 0.0
C1727 C 0.34417 0.90312 0.59654 0.0
C1728 C 0.33004 0.90237 0.66097 0.0
C1729 C 0.33175 0.92301 0.67172 0.0
C1730 C 0.30823 0.88597 0.6437 0.0
C1731 C 0.3385 0.89701 0.73199 0.0
C1732 C 0.35497 0.89532 0.7108 0.0
C1733 C 0.36434 0.88886 0.76429 0.0
C1734 C 0.35705 0.88457 0.84219 0.0
C1735 C 0.34076 0.88705 0.8661 0.0
C1736 C 0.33135 0.89333 0.81027 0.0
H1737 H 0.14696 0.48662 0.78383 0.0
H1738 H 0.11753 0.4227 0.82992 0.0
H1739 H 0.10887 0.41586 0.6868 0.0
H1740 H 0.11299 0.4858 0.64465 0.0
H1741 H 0.13154 0.50492 0.58095 0.0
H1742 H 0.13661 0.50486 0.68553 0.0
H1743 H 0.1691 0.50384 0.65407 0.0
H1744 H 0.16444 0.50447 0.54935 0.0
H1745 H 0.16782 0.4846 0.58895 0.0
H1746 H 0.10027 0.41635 0.54151 0.0
H1747 H 0.09807 0.42393 0.39999 0.0
H1748 H 0.13489 0.48758 0.44974 0.0
C1749 C 0.13909 0.47119 0.76333 0.0
C1750 C 0.13291 0.45515 0.81719 0.0
C1751 C 0.12259 0.43515 0.78892 0.0
C1752 C 0.11743 0.43116 0.70812 0.0
C1753 C 0.12308 0.44737 0.65691 0.0
C1754 C 0.13418 0.46698 0.68307 0.0
C1755 C 0.13859 0.48175 0.61627 0.0
C1756 C 0.12938 0.49511 0.63289 0.0
C1757 C 0.16134 0.49441 0.60126 0.0
C1758 C 0.12795 0.46739 0.54848 0.0
C1759 C 0.11884 0.44763 0.57318 0.0
C1760 C 0.10754 0.43176 0.5213 0.0
C1761 C 0.10618 0.43621 0.44139 0.0
C1762 C 0.11631 0.45633 0.41441 0.0
C1763 C 0.12704 0.47207 0.46898 0.0
H1764 H 0.57481 0.67526 0.81042 0.0
H1765 H 0.53318 0.6969 0.8512 0.0
H1766 H 0.53113 0.70102 0.70601 0.0
H1767 H 0.60128 0.70679 0.64425 0.0
H1768 H 0.6032 0.6874 0.59175 0.0
H1769 H 0.60212 0.68707 0.69885 0.0
H1770 H 0.57138 0.65103 0.69506 0.0
H1771 H 0.57238 0.65122 0.58798 0.0
H1772 H 0.54954 0.64611 0.63772 0.0
H1773 H 0.53465 0.70386 0.55864 0.0
H1774 H 0.54053 0.7019 0.41535 0.0
H1775 H 0.57763 0.67568 0.47083 0.0
C1776 C 0.5654 0.681 0.78854 0.0
C1777 C 0.5543 0.68599 0.84102 0.0
C1778 C 0.54177 0.69304 0.81112 0.0
C1779 C 0.5406 0.6955 0.72919 0.0
C1780 C 0.55177 0.69046 0.6788 0.0
C1781 C 0.56369 0.68308 0.70711 0.0
C1782 C 0.57329 0.67776 0.64015 0.0
C1783 C 0.59634 0.69052 0.644 0.0
C1784 C 0.56622 0.65519 0.64025 0.0
C1785 C 0.565 0.68342 0.56965 0.0
C1786 C 0.55286 0.69099 0.59336 0.0
C1787 C 0.54398 0.69783 0.53915 0.0
C1788 C 0.54747 0.69673 0.45822 0.0
C1789 C 0.55942 0.68854 0.43283 0.0
C1790 C 0.56827 0.6818 0.48911 0.0
H1791 H 0.31032 0.4476 0.8566 0.0
H1792 H 0.37324 0.4791 0.9238 0.0
H1793 H 0.38286 0.47804 0.78461 0.0
H1794 H 0.31353 0.41605 0.6984 0.0
H1795 H 0.29617 0.41871 0.63443 0.0
H1796 H 0.29397 0.41953 0.74099 0.0
H1797 H 0.29622 0.4542 0.7297 0.0
H1798 H 0.29829 0.4534 0.62332 0.0
H1799 H 0.3173 0.47438 0.67894 0.0
H1800 H 0.38581 0.47496 0.63846 0.0
H1801 H 0.382 0.4735 0.49186 0.0
H1802 H 0.31743 0.44612 0.51888 0.0
C1803 C 0.32606 0.45403 0.84171 0.0
C1804 C 0.34107 0.46343 0.90004 0.0
C1805 C 0.36158 0.47199 0.87913 0.0
C1806 C 0.36717 0.47128 0.80065 0.0
C1807 C 0.35205 0.4621 0.74394 0.0
C1808 C 0.33193 0.45384 0.76314 0.0
C1809 C 0.31887 0.44678 0.68956 0.0
C1810 C 0.30481 0.42391 0.69096 0.0
C1811 C 0.30698 0.45786 0.67982 0.0
C1812 C 0.33483 0.45285 0.6262 0.0
C1813 C 0.35383 0.46118 0.65888 0.0
C1814 C 0.37101 0.46838 0.61195 0.0
C1815 C 0.36873 0.46745 0.52904 0.0
C1816 C 0.34947 0.45982 0.49477 0.0
C1817 C 0.33234 0.45212 0.54395 0.0
H1818 H 0.53977 0.87683 0.8022 0.0
H1819 H 0.60332 0.91599 0.84785 0.0
H1820 H 0.60908 0.92361 0.70381 0.0
H1821 H 0.54628 0.85695 0.61126 0.0
H1822 H 0.52406 0.85561 0.5692 0.0
H1823 H 0.52556 0.85249 0.67477 0.0
H1824 H 0.51792 0.88123 0.7005 0.0
H1825 H 0.51688 0.88478 0.59512 0.0
H1826 H 0.53389 0.90555 0.65698 0.0
H1827 H 0.60688 0.92997 0.55824 0.0
H1828 H 0.59818 0.93 0.41658 0.0
H1829 H 0.5364 0.88484 0.46629 0.0
C1830 C 0.55495 0.88667 0.78145 0.0
C1831 C 0.57114 0.89587 0.83526 0.0
C1832 C 0.59082 0.90868 0.80681 0.0
C1833 C 0.59417 0.9132 0.7255 0.0
C1834 C 0.57771 0.90441 0.67413 0.0
C1835 C 0.55859 0.89099 0.70069 0.0
C1836 C 0.54347 0.88354 0.63354 0.0
C1837 C 0.53431 0.8608 0.62147 0.0
C1838 C 0.52708 0.88912 0.64741 0.0
C1839 C 0.55698 0.89524 0.56518 0.0
C1840 C 0.57663 0.90738 0.58989 0.0
C1841 C 0.59163 0.92032 0.53792 0.0
C1842 C 0.5865 0.92039 0.45797 0.0
C1843 C 0.56664 0.9074 0.43111 0.0
C1844 C 0.55171 0.89483 0.48553 0.0
H1845 H 0.14292 0.68231 0.54782 0.0
H1846 H 0.08121 0.63612 0.50407 0.0
H1847 H 0.07393 0.63514 0.64831 0.0
H1848 H 0.14806 0.66181 0.73845 0.0
H1849 H 0.16395 0.68646 0.77968 0.0
H1850 H 0.16413 0.68239 0.67417 0.0
H1851 H 0.15592 0.71073 0.64836 0.0
H1852 H 0.15522 0.71456 0.75374 0.0
H1853 H 0.1338 0.70912 0.6926 0.0
H1854 H 0.07285 0.64217 0.79412 0.0
H1855 H 0.07921 0.65211 0.93571 0.0
H1856 H 0.14224 0.69227 0.88313 0.0
C1857 C 0.12798 0.67173 0.56903 0.0
C1858 C 0.11257 0.6593 0.51582 0.0
C1859 C 0.09319 0.64559 0.54476 0.0
C1860 C 0.08892 0.64507 0.62613 0.0
C1861 C 0.10434 0.65809 0.67691 0.0
C1862 C 0.12361 0.67076 0.64974 0.0
C1863 C 0.13755 0.68314 0.71624 0.0
C1864 C 0.15441 0.67814 0.72783 0.0
C1865 C 0.14612 0.70572 0.70183 0.0
C1866 C 0.12303 0.67577 0.78506 0.0
C1867 C 0.1039 0.66151 0.7611 0.0
C1868 C 0.08781 0.65312 0.81382 0.0
C1869 C 0.09153 0.65901 0.89377 0.0
C1870 C 0.11123 0.67292 0.91986 0.0
C1871 C 0.12707 0.68155 0.86459 0.0
loop_
_geom_bond_atom_site_label_1
_geom_bond_atom_site_label_2
_geom_bond_distance
_geom_bond_site_symmetry_2
_ccdc_geom_bond_type
O0 Zn1 1.953 . S
O0 C16 1.225 . S
Zn1 O0 1.953 . S
Zn1 O2 1.949 . S
Zn1 O8 1.919 . S
Zn1 O13 1.924 1_455 S
O2 Zn1 1.949 . S
O2 Zn3 1.923 . S
O2 Zn4 1.950 . S
O2 Zn5 1.945 1_455 S
Zn3 O2 1.923 . S
Zn3 O6 1.933 . S
Zn3 O9 1.941 . S
Zn3 O10 1.965 . S
Zn4 O2 1.950 . S
Zn4 O11 1.938 . S
Zn4 O12 1.906 1_455 S
Zn4 O22 1.953 1_455 S
Zn5 O2 1.945 1_655 S
Zn5 O7 1.932 1_655 S
Zn5 O14 1.977 . S
Zn5 O15 1.910 . S
O6 Zn3 1.933 . S
O6 C17 1.226 . S
O7 Zn5 1.932 1_455 S
O7 C17 1.307 . S
O8 Zn1 1.919 . S
O8 C19 1.253 . S
O9 Zn3 1.941 . S
O9 C19 1.283 . S
O10 Zn3 1.965 . S
O10 C18 1.303 . S
O11 Zn4 1.938 . S
O11 C18 1.247 . S
O12 Zn4 1.906 1_655 S
O12 C20 1.304 . S
O13 Zn1 1.924 1_655 S
O13 C21 1.311 . S
O14 Zn5 1.977 . S
O14 C20 1.272 . S
O15 Zn5 1.910 . S
O15 C21 1.231 . S
C16 O0 1.225 . S
C16 O22 1.265 1_455 S
C17 O6 1.226 . S
C17 O7 1.307 . S
C18 O10 1.303 . S
C18 O11 1.247 . S
C19 O8 1.253 . S
C19 O9 1.283 . S
C20 O12 1.304 . S
C20 O14 1.272 . S
C21 O13 1.311 . S
C21 O15 1.231 . S
O22 Zn4 1.953 1_655 S
O22 C16 1.265 1_655 S
O23 Zn24 1.953 . S
O23 C39 1.225 . S
Zn24 O23 1.953 . S
Zn24 O25 1.949 . S
Zn24 O31 1.919 . S
Zn24 O36 1.924 . S
O25 Zn24 1.949 . S
O25 Zn26 1.923 . S
O25 Zn27 1.950 . S
O25 Zn28 1.945 . S
Zn26 O25 1.923 . S
Zn26 O29 1.933 . S
Zn26 O32 1.941 . S
Zn26 O33 1.965 . S
Zn27 O25 1.950 . S
Zn27 O34 1.938 . S
Zn27 O35 1.906 . S
Zn27 O45 1.953 . S
Zn28 O25 1.945 . S
Zn28 O30 1.932 . S
Zn28 O37 1.977 . S
Zn28 O38 1.910 . S
O29 Zn26 1.933 . S
O29 C40 1.226 . S
O30 Zn28 1.932 . S
O30 C40 1.307 . S
O31 Zn24 1.919 . S
O31 C42 1.253 . S
O32 Zn26 1.941 . S
O32 C42 1.283 . S
O33 Zn26 1.965 . S
O33 C41 1.303 . S
O34 Zn27 1.938 . S
O34 C41 1.247 . S
O35 Zn27 1.906 . S
O35 C43 1.304 . S
O36 Zn24 1.924 . S
O36 C44 1.311 . S
O37 Zn28 1.977 . S
O37 C43 1.272 . S
O38 Zn28 1.910 . S
O38 C44 1.231 . S
C39 O23 1.225 . S
C39 O45 1.298 . S
C40 O29 1.226 . S
C40 O30 1.307 . S
C41 O33 1.303 . S
C41 O34 1.247 . S
C42 O31 1.253 . S
C42 O32 1.283 . S
C43 O35 1.304 . S
C43 O37 1.272 . S
C44 O36 1.311 . S
C44 O38 1.231 . S
O45 Zn27 1.953 . S
O45 C39 1.298 . S
O46 Zn47 1.953 . S
O46 C62 1.225 . S
Zn47 O46 1.953 . S
Zn47 O48 1.949 . S
Zn47 O54 1.919 1_545 S
Zn47 O59 1.924 . S
O48 Zn47 1.949 . S
O48 Zn49 1.923 1_545 S
O48 Zn50 1.950 . S
O48 Zn51 1.945 . S
Zn49 O48 1.923 1_565 S
Zn49 O52 1.933 . S
Zn49 O55 1.941 . S
Zn49 O56 1.965 . S
Zn50 O48 1.950 . S
Zn50 O57 1.938 1_545 S
Zn50 O58 1.906 . S
Zn50 O68 1.953 . S
Zn51 O48 1.945 . S
Zn51 O53 1.932 . S
Zn51 O60 1.977 . S
Zn51 O61 1.910 . S
O52 Zn49 1.933 . S
O52 C63 1.226 1_565 S
O53 Zn51 1.932 . S
O53 C63 1.307 . S
O54 Zn47 1.919 1_565 S
O54 C65 1.253 . S
O55 Zn49 1.941 . S
O55 C65 1.283 . S
O56 Zn49 1.965 . S
O56 C64 1.303 . S
O57 Zn50 1.938 1_565 S
O57 C64 1.247 . S
O58 Zn50 1.906 . S
O58 C66 1.304 . S
O59 Zn47 1.924 . S
O59 C67 1.311 . S
O60 Zn51 1.977 . S
O60 C66 1.272 . S
O61 Zn51 1.910 . S
O61 C67 1.231 . S
C62 O46 1.225 . S
C62 O68 1.298 . S
C63 O52 1.226 1_545 S
C63 O53 1.307 . S
C64 O56 1.303 . S
C64 O57 1.247 . S
C65 O54 1.253 . S
C65 O55 1.283 . S
C66 O58 1.304 . S
C66 O60 1.272 . S
C67 O59 1.311 . S
C67 O61 1.231 . S
O68 Zn50 1.953 . S
O68 C62 1.298 . S
O69 Zn70 1.953 . S
O69 C85 1.225 . S
Zn70 O69 1.953 . S
Zn70 O71 1.949 . S
Zn70 O77 1.919 . S
Zn70 O82 1.924 . S
O71 Zn70 1.949 . S
O71 Zn72 1.923 . S
O71 Zn73 1.950 1_455 S
O71 Zn74 1.945 . S
Zn72 O71 1.923 . S
Zn72 O75 1.933 . S
Zn72 O78 1.941 . S
Zn72 O79 1.965 1_455 S
Zn73 O71 1.950 1_655 S
Zn73 O80 1.938 . S
Zn73 O81 1.906 . S
Zn73 O91 1.953 1_655 S
Zn74 O71 1.945 . S
Zn74 O76 1.932 . S
Zn74 O83 1.977 1_455 S
Zn74 O84 1.910 . S
O75 Zn72 1.933 . S
O75 C86 1.226 . S
O76 Zn74 1.932 . S
O76 C86 1.307 . S
O77 Zn70 1.919 . S
O77 C88 1.253 . S
O78 Zn72 1.941 . S
O78 C88 1.283 . S
O79 Zn72 1.965 1_655 S
O79 C87 1.303 . S
O80 Zn73 1.938 . S
O80 C87 1.247 . S
O81 Zn73 1.906 . S
O81 C89 1.304 . S
O82 Zn70 1.924 . S
O82 C90 1.311 . S
O83 Zn74 1.977 1_655 S
O83 C89 1.272 . S
O84 Zn74 1.910 . S
O84 C90 1.231 . S
C85 O69 1.225 . S
C85 O91 1.298 . S
C86 O75 1.226 . S
C86 O76 1.307 . S
C87 O79 1.303 . S
C87 O80 1.247 . S
C88 O77 1.253 . S
C88 O78 1.283 . S
C89 O81 1.304 . S
C89 O83 1.272 . S
C90 O82 1.311 . S
C90 O84 1.231 . S
O91 Zn73 1.953 1_455 S
O91 C85 1.298 . S
O92 Zn93 1.953 . S
O92 C108 1.225 . S
Zn93 O92 1.953 . S
Zn93 O94 1.949 . S
Zn93 O100 1.919 . S
Zn93 O105 1.924 . S
O94 Zn93 1.949 . S
O94 Zn95 1.923 . S
O94 Zn96 1.950 . S
O94 Zn97 1.945 . S
Zn95 O94 1.923 . S
Zn95 O98 1.933 . S
Zn95 O101 1.941 . S
Zn95 O102 1.965 . S
Zn96 O94 1.950 . S
Zn96 O103 1.938 . S
Zn96 O104 1.906 . S
Zn96 O114 1.953 . S
Zn97 O94 1.945 . S
Zn97 O99 1.932 . S
Zn97 O106 1.977 . S
Zn97 O107 1.910 . S
O98 Zn95 1.933 . S
O98 C109 1.226 . S
O99 Zn97 1.932 . S
O99 C109 1.307 . S
O100 Zn93 1.919 . S
O100 C111 1.253 . S
O101 Zn95 1.941 . S
O101 C111 1.283 . S
O102 Zn95 1.965 . S
O102 C110 1.303 . S
O103 Zn96 1.938 . S
O103 C110 1.247 . S
O104 Zn96 1.906 . S
O104 C112 1.304 . S
O105 Zn93 1.924 . S
O105 C113 1.311 . S
O106 Zn97 1.977 . S
O106 C112 1.272 . S
O107 Zn97 1.910 . S
O107 C113 1.231 . S
C108 O92 1.225 . S
C108 O114 1.298 . S
C109 O98 1.226 . S
C109 O99 1.307 . S
C110 O102 1.303 . S
C110 O103 1.247 . S
C111 O100 1.253 . S
C111 O101 1.283 . S
C112 O104 1.304 . S
C112 O106 1.272 . S
C113 O105 1.311 . S
C113 O107 1.231 . S
O114 Zn96 1.953 . S
O114 C108 1.298 . S
O115 Zn116 1.953 . S
O115 C131 1.225 1_565 S
Zn116 O115 1.953 . S
Zn116 O117 1.949 1_565 S
Zn116 O123 1.919 . S
Zn116 O128 1.924 . S
O117 Zn116 1.949 1_545 S
O117 Zn118 1.923 . S
O117 Zn119 1.950 . S
O117 Zn120 1.945 . S
Zn118 O117 1.923 . S
Zn118 O121 1.933 . S
Zn118 O124 1.947 . S
Zn118 O125 1.965 . S
Zn119 O117 1.950 . S
Zn119 O126 1.938 . S
Zn119 O127 1.906 . S
Zn119 O137 1.953 . S
Zn120 O117 1.945 . S
Zn120 O122 1.932 . S
Zn120 O129 1.977 . S
Zn120 O130 1.910 1_545 S
O121 Zn118 1.933 . S
O121 C132 1.226 . S
O122 Zn120 1.932 . S
O122 C132 1.307 . S
O123 Zn116 1.919 . S
O123 C134 1.253 . S
O124 Zn118 1.947 . S
O124 C134 1.265 1_545 S
O125 Zn118 1.965 . S
O125 C133 1.303 . S
O126 Zn119 1.938 . S
O126 C133 1.247 . S
O127 Zn119 1.906 . S
O127 C135 1.304 . S
O128 Zn116 1.924 . S
O128 C136 1.311 . S
O129 Zn120 1.977 . S
O129 C135 1.272 . S
O130 Zn120 1.910 1_565 S
O130 C136 1.231 . S
C131 O115 1.225 1_545 S
C131 O137 1.298 . S
C132 O121 1.226 . S
C132 O122 1.307 . S
C133 O125 1.303 . S
C133 O126 1.247 . S
C134 O123 1.253 . S
C134 O124 1.265 1_565 S
C135 O127 1.304 . S
C135 O129 1.272 . S
C136 O128 1.311 . S
C136 O130 1.231 . S
O137 Zn119 1.953 . S
O137 C131 1.298 . S
O138 Zn139 1.953 1_554 S
O138 C154 1.225 . S
Zn139 O138 1.953 1_556 S
Zn139 O140 1.949 . S
Zn139 O146 1.919 . S
Zn139 O151 1.924 . S
O140 Zn139 1.949 . S
O140 Zn141 1.923 . S
O140 Zn142 1.950 . S
O140 Zn143 1.945 . S
Zn141 O140 1.923 . S
Zn141 O144 1.933 . S
Zn141 O147 1.941 . S
Zn141 O148 1.965 . S
Zn142 O140 1.950 . S
Zn142 O149 1.938 . S
Zn142 O150 1.906 . S
Zn142 O160 1.953 1_556 S
Zn143 O140 1.945 . S
Zn143 O145 1.932 . S
Zn143 O152 1.977 . S
Zn143 O153 1.910 . S
O144 Zn141 1.933 . S
O144 C155 1.226 . S
O145 Zn143 1.932 . S
O145 C155 1.307 . S
O146 Zn139 1.919 . S
O146 C157 1.253 . S
O147 Zn141 1.941 . S
O147 C157 1.283 . S
O148 Zn141 1.965 . S
O148 C156 1.303 . S
O149 Zn142 1.938 . S
O149 C156 1.247 . S
O150 Zn142 1.906 . S
O150 C158 1.304 . S
O151 Zn139 1.924 . S
O151 C159 1.311 . S
O152 Zn143 1.977 . S
O152 C158 1.272 . S
O153 Zn143 1.910 . S
O153 C159 1.231 . S
C154 O138 1.225 . S
C154 O160 1.298 . S
C155 O144 1.226 . S
C155 O145 1.307 . S
C156 O148 1.303 . S
C156 O149 1.247 . S
C157 O146 1.253 . S
C157 O147 1.283 . S
C158 O150 1.304 . S
C158 O152 1.272 . S
C159 O151 1.311 . S
C159 O153 1.231 . S
O160 Zn142 1.953 1_554 S
O160 C154 1.298 . S
O161 Zn162 1.953 1_554 S
O161 C177 1.225 . S
Zn162 O161 1.953 1_556 S
Zn162 O163 1.949 . S
Zn162 O169 1.919 . S
Zn162 O174 1.924 . S
O163 Zn162 1.949 . S
O163 Zn164 1.923 . S
O163 Zn165 1.950 . S
O163 Zn166 1.945 . S
Zn164 O163 1.923 . S
Zn164 O167 1.933 . S
Zn164 O170 1.941 . S
Zn164 O171 1.965 . S
Zn165 O163 1.950 . S
Zn165 O172 1.938 . S
Zn165 O173 1.906 . S
Zn165 O183 1.953 1_556 S
Zn166 O163 1.945 . S
Zn166 O168 1.932 . S
Zn166 O175 1.977 . S
Zn166 O176 1.910 . S
O167 Zn164 1.933 . S
O167 C178 1.226 . S
O168 Zn166 1.932 . S
O168 C178 1.307 . S
O169 Zn162 1.919 . S
O169 C180 1.253 . S
O170 Zn164 1.941 . S
O170 C180 1.283 . S
O171 Zn164 1.965 . S
O171 C179 1.303 . S
O172 Zn165 1.938 . S
O172 C179 1.247 . S
O173 Zn165 1.906 . S
O173 C181 1.304 . S
O174 Zn162 1.924 . S
O174 C182 1.311 . S
O175 Zn166 1.977 . S
O175 C181 1.272 . S
O176 Zn166 1.910 . S
O176 C182 1.231 . S
C177 O161 1.225 . S
C177 O183 1.298 . S
C178 O167 1.226 . S
C178 O168 1.307 . S
C179 O171 1.303 . S
C179 O172 1.247 . S
C180 O169 1.253 . S
C180 O170 1.283 . S
C181 O173 1.304 . S
C181 O175 1.272 . S
C182 O174 1.311 . S
C182 O176 1.231 . S
O183 Zn165 1.953 1_554 S
O183 C177 1.298 . S
O184 Zn185 1.953 1_554 S
O184 C200 1.225 . S
Zn185 O184 1.953 1_556 S
Zn185 O186 1.949 . S
Zn185 O192 1.919 . S
Zn185 O197 1.924 . S
O186 Zn185 1.949 . S
O186 Zn187 1.923 . S
O186 Zn188 1.950 . S
O186 Zn189 1.945 . S
Zn187 O186 1.923 . S
Zn187 O190 1.933 . S
Zn187 O193 1.941 . S
Zn187 O194 1.965 . S
Zn188 O186 1.950 . S
Zn188 O195 1.938 . S
Zn188 O196 1.906 . S
Zn188 O206 1.953 1_556 S
Zn189 O186 1.945 . S
Zn189 O191 1.932 . S
Zn189 O198 1.977 . S
Zn189 O199 1.910 . S
O190 Zn187 1.933 . S
O190 C201 1.226 . S
O191 Zn189 1.932 . S
O191 C201 1.307 . S
O192 Zn185 1.919 . S
O192 C203 1.253 . S
O193 Zn187 1.941 . S
O193 C203 1.283 . S
O194 Zn187 1.965 . S
O194 C202 1.303 . S
O195 Zn188 1.938 . S
O195 C202 1.247 . S
O196 Zn188 1.906 . S
O196 C204 1.304 . S
O197 Zn185 1.924 . S
O197 C205 1.311 . S
O198 Zn189 1.977 . S
O198 C204 1.272 . S
O199 Zn189 1.910 . S
O199 C205 1.231 . S
C200 O184 1.225 . S
C200 O206 1.298 . S
C201 O190 1.226 . S
C201 O191 1.307 . S
C202 O194 1.303 . S
C202 O195 1.247 . S
C203 O192 1.253 . S
C203 O193 1.283 . S
C204 O196 1.304 . S
C204 O198 1.272 . S
C205 O197 1.311 . S
C205 O199 1.231 . S
O206 Zn188 1.953 1_554 S
O206 C200 1.298 . S
O207 Zn208 1.953 . S
O207 C223 1.225 1_556 S
Zn208 O207 1.953 . S
Zn208 O209 1.949 . S
Zn208 O215 1.919 . S
Zn208 O220 1.924 . S
O209 Zn208 1.949 . S
O209 Zn210 1.923 . S
O209 Zn211 1.950 . S
O209 Zn212 1.945 . S
Zn210 O209 1.923 . S
Zn210 O213 1.933 . S
Zn210 O216 1.941 . S
Zn210 O217 1.965 . S
Zn211 O209 1.950 . S
Zn211 O218 1.938 . S
Zn211 O219 1.906 . S
Zn211 O229 1.953 1_556 S
Zn212 O209 1.945 . S
Zn212 O214 1.932 . S
Zn212 O221 1.977 . S
Zn212 O222 1.910 . S
O213 Zn210 1.933 . S
O213 C224 1.226 . S
O214 Zn212 1.932 . S
O214 C224 1.307 . S
O215 Zn208 1.919 . S
O215 C226 1.253 . S
O216 Zn210 1.941 . S
O216 C226 1.283 . S
O217 Zn210 1.965 . S
O217 C225 1.303 . S
O218 Zn211 1.938 . S
O218 C225 1.247 . S
O219 Zn211 1.906 . S
O219 C227 1.304 . S
O220 Zn208 1.924 . S
O220 C228 1.311 . S
O221 Zn212 1.977 . S
O221 C227 1.272 . S
O222 Zn212 1.910 . S
O222 C228 1.231 . S
C223 O207 1.225 1_554 S
C223 O229 1.298 . S
C224 O213 1.226 . S
C224 O214 1.307 . S
C225 O217 1.303 . S
C225 O218 1.247 . S
C226 O215 1.253 . S
C226 O216 1.283 . S
C227 O219 1.304 . S
C227 O221 1.272 . S
C228 O220 1.311 . S
C228 O222 1.231 . S
O229 Zn211 1.953 1_554 S
O229 C223 1.298 . S
O230 Zn231 1.955 . S
O230 C246 1.224 1_556 S
Zn231 O230 1.955 . S
Zn231 O232 1.949 . S
Zn231 O238 1.919 . S
Zn231 O243 1.924 . S
O232 Zn231 1.949 . S
O232 Zn233 1.923 . S
O232 Zn234 1.950 . S
O232 Zn235 1.945 . S
Zn233 O232 1.923 . S
Zn233 O236 1.933 . S
Zn233 O239 1.941 . S
Zn233 O240 1.965 . S
Zn234 O232 1.950 . S
Zn234 O241 1.938 . S
Zn234 O242 1.906 . S
Zn234 O252 1.953 1_556 S
Zn235 O232 1.945 . S
Zn235 O237 1.932 . S
Zn235 O244 1.977 . S
Zn235 O245 1.910 . S
O236 Zn233 1.933 . S
O236 C247 1.226 . S
O237 Zn235 1.932 . S
O237 C247 1.307 . S
O238 Zn231 1.919 . S
O238 C249 1.253 . S
O239 Zn233 1.941 . S
O239 C249 1.283 . S
O240 Zn233 1.965 . S
O240 C248 1.303 . S
O241 Zn234 1.938 . S
O241 C248 1.247 . S
O242 Zn234 1.906 . S
O242 C250 1.304 . S
O243 Zn231 1.924 . S
O243 C251 1.311 . S
O244 Zn235 1.977 . S
O244 C250 1.272 . S
O245 Zn235 1.910 . S
O245 C251 1.231 . S
C246 O230 1.224 1_554 S
C246 O252 1.298 . S
C247 O236 1.226 . S
C247 O237 1.307 . S
C248 O240 1.303 . S
C248 O241 1.247 . S
C249 O238 1.253 . S
C249 O239 1.283 . S
C250 O242 1.304 . S
C250 O244 1.272 . S
C251 O243 1.311 . S
C251 O245 1.231 . S
O252 Zn234 1.953 1_554 S
O252 C246 1.298 . S
O253 Zn254 1.953 . S
O253 C269 1.225 1_556 S
Zn254 O253 1.953 . S
Zn254 O255 1.949 . S
Zn254 O261 1.919 . S
Zn254 O266 1.924 . S
O255 Zn254 1.949 . S
O255 Zn256 1.923 . S
O255 Zn257 1.950 . S
O255 Zn258 1.945 . S
Zn256 O255 1.923 . S
Zn256 O259 1.933 . S
Zn256 O262 1.941 . S
Zn256 O263 1.965 . S
Zn257 O255 1.950 . S
Zn257 O264 1.938 . S
Zn257 O265 1.906 . S
Zn257 O275 1.953 1_556 S
Zn258 O255 1.945 . S
Zn258 O260 1.932 . S
Zn258 O267 1.977 . S
Zn258 O268 1.910 . S
O259 Zn256 1.933 . S
O259 C270 1.226 . S
O260 Zn258 1.932 . S
O260 C270 1.307 . S
O261 Zn254 1.919 . S
O261 C272 1.253 . S
O262 Zn256 1.941 . S
O262 C272 1.283 . S
O263 Zn256 1.965 . S
O263 C271 1.303 . S
O264 Zn257 1.938 . S
O264 C271 1.247 . S
O265 Zn257 1.906 . S
O265 C273 1.304 . S
O266 Zn254 1.924 . S
O266 C274 1.311 . S
O267 Zn258 1.977 . S
O267 C273 1.272 . S
O268 Zn258 1.910 . S
O268 C274 1.231 . S
C269 O253 1.225 1_554 S
C269 O275 1.298 . S
C270 O259 1.226 . S
C270 O260 1.307 . S
C271 O263 1.303 . S
C271 O264 1.247 . S
C272 O261 1.253 . S
C272 O262 1.283 . S
C273 O265 1.304 . S
C273 O267 1.272 . S
C274 O266 1.311 . S
C274 O268 1.231 . S
O275 Zn257 1.953 1_554 S
O275 C269 1.298 . S
O276 Zn277 1.953 1_556 S
O276 C292 1.225 . S
Zn277 O276 1.953 1_554 S
Zn277 O278 1.949 . S
Zn277 O284 1.919 . S
Zn277 O289 1.924 . S
O278 Zn277 1.949 . S
O278 Zn279 1.923 . S
O278 Zn280 1.950 . S
O278 Zn281 1.945 . S
Zn279 O278 1.923 . S
Zn279 O282 1.933 . S
Zn279 O285 1.941 . S
Zn279 O286 1.965 . S
Zn280 O278 1.950 . S
Zn280 O287 1.938 . S
Zn280 O288 1.906 . S
Zn280 O298 1.953 1_554 S
Zn281 O278 1.945 . S
Zn281 O283 1.932 . S
Zn281 O290 1.977 . S
Zn281 O291 1.910 . S
O282 Zn279 1.933 . S
O282 C293 1.226 . S
O283 Zn281 1.932 . S
O283 C293 1.307 . S
O284 Zn277 1.919 . S
O284 C295 1.253 . S
O285 Zn279 1.941 . S
O285 C295 1.283 . S
O286 Zn279 1.965 . S
O286 C294 1.303 . S
O287 Zn280 1.938 . S
O287 C294 1.247 . S
O288 Zn280 1.906 . S
O288 C296 1.304 . S
O289 Zn277 1.924 . S
O289 C297 1.311 . S
O290 Zn281 1.977 . S
O290 C296 1.272 . S
O291 Zn281 1.910 . S
O291 C297 1.231 . S
C292 O276 1.225 . S
C292 O298 1.298 . S
C293 O282 1.226 . S
C293 O283 1.307 . S
C294 O286 1.303 . S
C294 O287 1.247 . S
C295 O284 1.253 . S
C295 O285 1.283 . S
C296 O288 1.304 . S
C296 O290 1.272 . S
C297 O289 1.311 . S
C297 O291 1.231 . S
O298 Zn280 1.953 1_556 S
O298 C292 1.298 . S
O299 Zn300 1.953 . S
O299 C315 1.225 . S
Zn300 O299 1.953 . S
Zn300 O301 1.949 . S
Zn300 O307 1.919 . S
Zn300 O312 1.924 . S
O301 Zn300 1.949 . S
O301 Zn302 1.923 . S
O301 Zn303 1.950 . S
O301 Zn304 1.945 . S
Zn302 O301 1.923 . S
Zn302 O305 1.933 1_554 S
Zn302 O308 1.941 . S
Zn302 O309 1.965 . S
Zn303 O301 1.950 . S
Zn303 O310 1.938 . S
Zn303 O311 1.906 . S
Zn303 O321 1.953 . S
Zn304 O301 1.945 . S
Zn304 O306 1.932 1_554 S
Zn304 O313 1.977 . S
Zn304 O314 1.910 . S
O305 Zn302 1.933 1_556 S
O305 C316 1.226 . S
O306 Zn304 1.932 1_556 S
O306 C316 1.307 . S
O307 Zn300 1.919 . S
O307 C318 1.253 . S
O308 Zn302 1.941 . S
O308 C318 1.283 . S
O309 Zn302 1.965 . S
O309 C317 1.303 . S
O310 Zn303 1.938 . S
O310 C317 1.247 . S
O311 Zn303 1.906 . S
O311 C319 1.304 . S
O312 Zn300 1.924 . S
O312 C320 1.311 . S
O313 Zn304 1.977 . S
O313 C319 1.272 . S
O314 Zn304 1.910 . S
O314 C320 1.231 . S
C315 O299 1.225 . S
C315 O321 1.298 . S
C316 O305 1.226 . S
C316 O306 1.307 . S
C317 O309 1.303 . S
C317 O310 1.247 . S
C318 O307 1.253 . S
C318 O308 1.283 . S
C319 O311 1.304 . S
C319 O313 1.272 . S
C320 O312 1.311 . S
C320 O314 1.231 . S
O321 Zn303 1.953 . S
O321 C315 1.298 . S
O322 Zn323 1.953 1_556 S
O322 C338 1.225 . S
Zn323 O322 1.953 1_554 S
Zn323 O324 1.949 . S
Zn323 O330 1.919 . S
Zn323 O335 1.924 . S
O324 Zn323 1.949 . S
O324 Zn325 1.923 . S
O324 Zn326 1.950 . S
O324 Zn327 1.945 . S
Zn325 O324 1.923 . S
Zn325 O328 1.933 . S
Zn325 O331 1.941 . S
Zn325 O332 1.965 . S
Zn326 O324 1.950 . S
Zn326 O333 1.938 . S
Zn326 O334 1.906 . S
Zn326 O344 1.953 1_554 S
Zn327 O324 1.945 . S
Zn327 O329 1.932 . S
Zn327 O336 1.977 . S
Zn327 O337 1.910 . S
O328 Zn325 1.933 . S
O328 C339 1.226 . S
O329 Zn327 1.932 . S
O329 C339 1.307 . S
O330 Zn323 1.919 . S
O330 C341 1.253 . S
O331 Zn325 1.941 . S
O331 C341 1.283 . S
O332 Zn325 1.965 . S
O332 C340 1.303 . S
O333 Zn326 1.938 . S
O333 C340 1.247 . S
O334 Zn326 1.906 . S
O334 C342 1.304 . S
O335 Zn323 1.924 . S
O335 C343 1.311 . S
O336 Zn327 1.977 . S
O336 C342 1.272 . S
O337 Zn327 1.910 . S
O337 C343 1.231 . S
C338 O322 1.225 . S
C338 O344 1.298 . S
C339 O328 1.226 . S
C339 O329 1.307 . S
C340 O332 1.303 . S
C340 O333 1.247 . S
C341 O330 1.253 . S
C341 O331 1.283 . S
C342 O334 1.304 . S
C342 O336 1.272 . S
C343 O335 1.311 . S
C343 O337 1.231 . S
O344 Zn326 1.953 1_556 S
O344 C338 1.298 . S
O345 Zn346 1.953 . S
O345 C361 1.225 . S
Zn346 O345 1.953 . S
Zn346 O347 1.949 . S
Zn346 O353 1.919 . S
Zn346 O358 1.924 . S
O347 Zn346 1.949 . S
O347 Zn348 1.923 . S
O347 Zn349 1.950 . S
O347 Zn350 1.945 . S
Zn348 O347 1.923 . S
Zn348 O351 1.933 1_554 S
Zn348 O354 1.941 . S
Zn348 O355 1.965 . S
Zn349 O347 1.950 . S
Zn349 O356 1.938 . S
Zn349 O357 1.906 . S
Zn349 O367 1.953 . S
Zn350 O347 1.945 . S
Zn350 O352 1.932 1_554 S
Zn350 O359 1.977 . S
Zn350 O360 1.910 . S
O351 Zn348 1.933 1_556 S
O351 C362 1.226 . S
O352 Zn350 1.932 1_556 S
O352 C362 1.307 . S
O353 Zn346 1.919 . S
O353 C364 1.253 . S
O354 Zn348 1.941 . S
O354 C364 1.283 . S
O355 Zn348 1.965 . S
O355 C363 1.303 . S
O356 Zn349 1.938 . S
O356 C363 1.247 . S
O357 Zn349 1.906 . S
O357 C365 1.304 . S
O358 Zn346 1.924 . S
O358 C366 1.311 . S
O359 Zn350 1.977 . S
O359 C365 1.272 . S
O360 Zn350 1.910 . S
O360 C366 1.231 . S
C361 O345 1.225 . S
C361 O367 1.298 . S
C362 O351 1.226 . S
C362 O352 1.307 . S
C363 O355 1.303 . S
C363 O356 1.247 . S
C364 O353 1.253 . S
C364 O354 1.283 . S
C365 O357 1.304 . S
C365 O359 1.272 . S
C366 O358 1.311 . S
C366 O360 1.231 . S
O367 Zn349 1.953 . S
O367 C361 1.298 . S
O368 Zn369 1.953 . S
O368 C384 1.225 1_554 S
Zn369 O368 1.953 . S
Zn369 O370 1.949 . S
Zn369 O376 1.919 . S
Zn369 O381 1.924 . S
O370 Zn369 1.949 . S
O370 Zn371 1.923 . S
O370 Zn372 1.950 . S
O370 Zn373 1.945 . S
Zn371 O370 1.923 . S
Zn371 O374 1.933 . S
Zn371 O377 1.941 . S
Zn371 O378 1.965 . S
Zn372 O370 1.950 . S
Zn372 O379 1.938 . S
Zn372 O380 1.906 . S
Zn372 O390 1.953 1_554 S
Zn373 O370 1.945 . S
Zn373 O375 1.932 . S
Zn373 O382 1.977 . S
Zn373 O383 1.910 . S
O374 Zn371 1.933 . S
O374 C385 1.226 . S
O375 Zn373 1.932 . S
O375 C385 1.307 . S
O376 Zn369 1.919 . S
O376 C387 1.253 . S
O377 Zn371 1.941 . S
O377 C387 1.283 . S
O378 Zn371 1.965 . S
O378 C386 1.303 . S
O379 Zn372 1.938 . S
O379 C386 1.247 . S
O380 Zn372 1.906 . S
O380 C388 1.304 . S
O381 Zn369 1.924 . S
O381 C389 1.311 . S
O382 Zn373 1.977 . S
O382 C388 1.272 . S
O383 Zn373 1.910 . S
O383 C389 1.231 . S
C384 O368 1.225 1_556 S
C384 O390 1.298 . S
C385 O374 1.226 . S
C385 O375 1.307 . S
C386 O378 1.303 . S
C386 O379 1.247 . S
C387 O376 1.253 . S
C387 O377 1.283 . S
C388 O380 1.304 . S
C388 O382 1.272 . S
C389 O381 1.311 . S
C389 O383 1.231 . S
O390 Zn372 1.953 1_556 S
O390 C384 1.298 . S
O391 Zn392 1.953 . S
O391 C407 1.225 . S
Zn392 O391 1.953 . S
Zn392 O393 1.949 . S
Zn392 O399 1.919 . S
Zn392 O404 1.924 . S
O393 Zn392 1.949 . S
O393 Zn394 1.923 . S
O393 Zn395 1.950 . S
O393 Zn396 1.945 . S
Zn394 O393 1.923 . S
Zn394 O397 1.933 1_554 S
Zn394 O400 1.941 . S
Zn394 O401 1.965 . S
Zn395 O393 1.950 . S
Zn395 O402 1.938 . S
Zn395 O403 1.906 . S
Zn395 O413 1.953 . S
Zn396 O393 1.945 . S
Zn396 O398 1.932 1_554 S
Zn396 O405 1.977 . S
Zn396 O406 1.910 . S
O397 Zn394 1.933 1_556 S
O397 C408 1.226 . S
O398 Zn396 1.932 1_556 S
O398 C408 1.307 . S
O399 Zn392 1.919 . S
O399 C410 1.253 . S
O400 Zn394 1.941 . S
O400 C410 1.283 . S
O401 Zn394 1.965 . S
O401 C409 1.303 . S
O402 Zn395 1.938 . S
O402 C409 1.247 . S
O403 Zn395 1.906 . S
O403 C411 1.304 . S
O404 Zn392 1.924 . S
O404 C412 1.311 . S
O405 Zn396 1.977 . S
O405 C411 1.272 . S
O406 Zn396 1.910 . S
O406 C412 1.231 . S
C407 O391 1.225 . S
C407 O413 1.298 . S
C408 O397 1.226 . S
C408 O398 1.307 . S
C409 O401 1.303 . S
C409 O402 1.247 . S
C410 O399 1.253 . S
C410 O400 1.283 . S
C411 O403 1.304 . S
C411 O405 1.272 . S
C412 O404 1.311 . S
C412 O406 1.231 . S
O413 Zn395 1.953 . S
O413 C407 1.298 . S
H414 C426 0.930 . S
H415 C428 0.930 . S
H416 C429 0.930 . S
H417 C433 0.959 . S
H418 C433 0.959 . S
H419 C433 0.961 . S
H420 C434 0.960 . S
H421 C434 0.961 . S
H422 C434 0.959 . S
H423 C437 0.929 . S
H424 C438 0.931 . S
H425 C440 0.930 . S
C426 H414 0.930 . S
C426 C427 1.399 . S
C426 C431 1.399 . S
C427 C426 1.399 . S
C427 C428 1.376 . S
C428 H415 0.930 . S
C428 C427 1.376 . S
C428 C429 1.388 . S
C429 H416 0.930 . S
C429 C428 1.388 . S
C429 C430 1.390 . S
C430 C429 1.390 . S
C430 C431 1.394 . S
C430 C436 1.465 . S
C431 C426 1.399 . S
C431 C430 1.394 . S
C431 C432 1.516 . S
C432 C431 1.516 . S
C432 C433 1.502 . S
C432 C434 1.561 . S
C432 C435 1.526 . S
C433 H417 0.959 . S
C433 H418 0.959 . S
C433 H419 0.961 . S
C433 C432 1.502 . S
C434 H420 0.960 . S
C434 H421 0.961 . S
C434 H422 0.959 . S
C434 C432 1.561 . S
C435 C432 1.526 . S
C435 C436 1.396 . S
C435 C440 1.390 . S
C436 C430 1.465 . S
C436 C435 1.396 . S
C436 C437 1.399 . S
C437 H423 0.929 . S
C437 C436 1.399 . S
C437 C438 1.385 . S
C438 H424 0.931 . S
C438 C437 1.385 . S
C438 C439 1.389 . S
C439 C438 1.389 . S
C439 C440 1.387 . S
C440 H425 0.930 . S
C440 C435 1.390 . S
C440 C439 1.387 . S
H441 C453 0.930 . S
H442 C455 0.930 . S
H443 C456 0.930 . S
H444 C460 0.959 . S
H445 C460 0.959 . S
H446 C460 0.961 . S
H447 C461 0.960 . S
H448 C461 0.961 . S
H449 C461 0.959 . S
H450 C464 0.929 . S
H451 C465 0.931 . S
H452 C467 0.930 . S
C453 H441 0.930 . S
C453 C454 1.399 . S
C453 C458 1.399 . S
C454 C453 1.399 . S
C454 C455 1.376 . S
C455 H442 0.930 . S
C455 C454 1.376 . S
C455 C456 1.388 . S
C456 H443 0.930 . S
C456 C455 1.388 . S
C456 C457 1.390 . S
C457 C456 1.390 . S
C457 C458 1.394 . S
C457 C463 1.465 . S
C458 C453 1.399 . S
C458 C457 1.394 . S
C458 C459 1.516 . S
C459 C458 1.516 . S
C459 C460 1.502 . S
C459 C461 1.561 . S
C459 C462 1.526 . S
C460 H444 0.959 . S
C460 H445 0.959 . S
C460 H446 0.961 . S
C460 C459 1.502 . S
C461 H447 0.960 . S
C461 H448 0.961 . S
C461 H449 0.959 . S
C461 C459 1.561 . S
C462 C459 1.526 . S
C462 C463 1.396 . S
C462 C467 1.390 . S
C463 C457 1.465 . S
C463 C462 1.396 . S
C463 C464 1.399 . S
C464 H450 0.929 . S
C464 C463 1.399 . S
C464 C465 1.385 . S
C465 H451 0.931 . S
C465 C464 1.385 . S
C465 C466 1.389 . S
C466 C465 1.389 . S
C466 C467 1.387 . S
C467 H452 0.930 . S
C467 C462 1.390 . S
C467 C466 1.387 . S
H468 C480 0.930 . S
H469 C482 0.930 . S
H470 C483 0.930 . S
H471 C487 0.959 . S
H472 C487 0.959 . S
H473 C487 0.961 . S
H474 C488 0.960 . S
H475 C488 0.961 . S
H476 C488 0.959 . S
H477 C491 0.929 . S
H478 C492 0.931 . S
H479 C494 0.930 . S
C480 H468 0.930 . S
C480 C481 1.399 . S
C480 C485 1.399 . S
C481 C480 1.399 . S
C481 C482 1.376 . S
C482 H469 0.930 . S
C482 C481 1.376 . S
C482 C483 1.388 . S
C483 H470 0.930 . S
C483 C482 1.388 . S
C483 C484 1.390 . S
C484 C483 1.390 . S
C484 C485 1.394 . S
C484 C490 1.465 . S
C485 C480 1.399 . S
C485 C484 1.394 . S
C485 C486 1.516 . S
C486 C485 1.516 . S
C486 C487 1.502 . S
C486 C488 1.561 . S
C486 C489 1.526 . S
C487 H471 0.959 . S
C487 H472 0.959 . S
C487 H473 0.961 . S
C487 C486 1.502 . S
C488 H474 0.960 . S
C488 H475 0.961 . S
C488 H476 0.959 . S
C488 C486 1.561 . S
C489 C486 1.526 . S
C489 C490 1.396 . S
C489 C494 1.390 . S
C490 C484 1.465 . S
C490 C489 1.396 . S
C490 C491 1.399 . S
C491 H477 0.929 . S
C491 C490 1.399 . S
C491 C492 1.385 . S
C492 H478 0.931 . S
C492 C491 1.385 . S
C492 C493 1.389 . S
C493 C492 1.389 . S
C493 C494 1.387 . S
C494 H479 0.930 . S
C494 C489 1.390 . S
C494 C493 1.387 . S
H495 C507 0.930 . S
H496 C509 0.930 . S
H497 C510 0.930 . S
H498 C514 0.959 . S
H499 C514 0.959 . S
H500 C514 0.961 . S
H501 C515 0.960 . S
H502 C515 0.961 . S
H503 C515 0.959 . S
H504 C518 0.929 . S
H505 C519 0.931 . S
H506 C521 0.930 . S
C507 H495 0.930 . S
C507 C508 1.399 . S
C507 C512 1.399 . S
C508 C507 1.399 . S
C508 C509 1.376 . S
C509 H496 0.930 . S
C509 C508 1.376 . S
C509 C510 1.388 . S
C510 H497 0.930 . S
C510 C509 1.388 . S
C510 C511 1.390 . S
C511 C510 1.390 . S
C511 C512 1.394 . S
C511 C517 1.465 . S
C512 C507 1.399 . S
C512 C511 1.394 . S
C512 C513 1.516 . S
C513 C512 1.516 . S
C513 C514 1.502 . S
C513 C515 1.561 . S
C513 C516 1.526 . S
C514 H498 0.959 . S
C514 H499 0.959 . S
C514 H500 0.961 . S
C514 C513 1.502 . S
C515 H501 0.960 . S
C515 H502 0.961 . S
C515 H503 0.959 . S
C515 C513 1.561 . S
C516 C513 1.526 . S
C516 C517 1.396 . S
C516 C521 1.390 . S
C517 C511 1.465 . S
C517 C516 1.396 . S
C517 C518 1.399 . S
C518 H504 0.929 . S
C518 C517 1.399 . S
C518 C519 1.385 . S
C519 H505 0.931 . S
C519 C518 1.385 . S
C519 C520 1.389 . S
C520 C519 1.389 . S
C520 C521 1.387 . S
C521 H506 0.930 . S
C521 C516 1.390 . S
C521 C520 1.387 . S
H522 C534 0.930 . S
H523 C536 0.930 . S
H524 C537 0.930 . S
H525 C541 0.959 . S
H526 C541 0.959 . S
H527 C541 0.961 . S
H528 C542 0.960 . S
H529 C542 0.961 . S
H530 C542 0.959 . S
H531 C545 0.929 . S
H532 C546 0.931 . S
H533 C548 0.930 . S
C534 H522 0.930 . S
C534 C535 1.399 . S
C534 C539 1.399 . S
C535 C534 1.399 . S
C535 C536 1.376 . S
C536 H523 0.930 . S
C536 C535 1.376 . S
C536 C537 1.388 . S
C537 H524 0.930 . S
C537 C536 1.388 . S
C537 C538 1.390 . S
C538 C537 1.390 . S
C538 C539 1.394 . S
C538 C544 1.465 . S
C539 C534 1.399 . S
C539 C538 1.394 . S
C539 C540 1.516 . S
C540 C539 1.516 . S
C540 C541 1.502 . S
C540 C542 1.561 . S
C540 C543 1.526 . S
C541 H525 0.959 . S
C541 H526 0.959 . S
C541 H527 0.961 . S
C541 C540 1.502 . S
C542 H528 0.960 . S
C542 H529 0.961 . S
C542 H530 0.959 . S
C542 C540 1.561 . S
C543 C540 1.526 . S
C543 C544 1.396 . S
C543 C548 1.390 . S
C544 C538 1.465 . S
C544 C543 1.396 . S
C544 C545 1.399 . S
C545 H531 0.929 . S
C545 C544 1.399 . S
C545 C546 1.385 . S
C546 H532 0.931 . S
C546 C545 1.385 . S
C546 C547 1.389 . S
C547 C546 1.389 . S
C547 C548 1.387 . S
C548 H533 0.930 . S
C548 C543 1.390 . S
C548 C547 1.387 . S
H549 C561 0.930 . S
H550 C563 0.930 . S
H551 C564 0.930 . S
H552 C568 0.959 . S
H553 C568 0.959 . S
H554 C568 0.961 . S
H555 C569 0.960 . S
H556 C569 0.961 . S
H557 C569 0.959 . S
H558 C572 0.929 . S
H559 C573 0.931 . S
H560 C575 0.930 . S
C561 H549 0.930 . S
C561 C562 1.399 . S
C561 C566 1.399 . S
C562 C561 1.399 . S
C562 C563 1.376 . S
C563 H550 0.930 . S
C563 C562 1.376 . S
C563 C564 1.388 . S
C564 H551 0.930 . S
C564 C563 1.388 . S
C564 C565 1.390 . S
C565 C564 1.390 . S
C565 C566 1.394 . S
C565 C571 1.465 . S
C566 C561 1.399 . S
C566 C565 1.394 . S
C566 C567 1.516 . S
C567 C566 1.516 . S
C567 C568 1.502 . S
C567 C569 1.561 . S
C567 C570 1.526 . S
C568 H552 0.959 . S
C568 H553 0.959 . S
C568 H554 0.961 . S
C568 C567 1.502 . S
C569 H555 0.960 . S
C569 H556 0.961 . S
C569 H557 0.959 . S
C569 C567 1.561 . S
C570 C567 1.526 . S
C570 C571 1.396 . S
C570 C575 1.390 . S
C571 C565 1.465 . S
C571 C570 1.396 . S
C571 C572 1.399 . S
C572 H558 0.929 . S
C572 C571 1.399 . S
C572 C573 1.385 . S
C573 H559 0.931 . S
C573 C572 1.385 . S
C573 C574 1.389 . S
C574 C573 1.389 . S
C574 C575 1.387 . S
C575 H560 0.930 . S
C575 C570 1.390 . S
C575 C574 1.387 . S
H576 C588 0.930 . S
H577 C590 0.930 . S
H578 C591 0.930 . S
H579 C595 0.959 . S
H580 C595 0.959 . S
H581 C595 0.961 . S
H582 C596 0.960 . S
H583 C596 0.961 . S
H584 C596 0.959 . S
H585 C599 0.929 . S
H586 C600 0.931 . S
H587 C602 0.930 . S
C588 H576 0.930 . S
C588 C589 1.399 . S
C588 C593 1.399 . S
C589 C588 1.399 . S
C589 C590 1.376 . S
C590 H577 0.930 . S
C590 C589 1.376 . S
C590 C591 1.388 . S
C591 H578 0.930 . S
C591 C590 1.388 . S
C591 C592 1.390 . S
C592 C591 1.390 . S
C592 C593 1.394 . S
C592 C598 1.465 . S
C593 C588 1.399 . S
C593 C592 1.394 . S
C593 C594 1.516 . S
C594 C593 1.516 . S
C594 C595 1.502 . S
C594 C596 1.561 . S
C594 C597 1.526 . S
C595 H579 0.959 . S
C595 H580 0.959 . S
C595 H581 0.961 . S
C595 C594 1.502 . S
C596 H582 0.960 . S
C596 H583 0.961 . S
C596 H584 0.959 . S
C596 C594 1.561 . S
C597 C594 1.526 . S
C597 C598 1.396 . S
C597 C602 1.390 . S
C598 C592 1.465 . S
C598 C597 1.396 . S
C598 C599 1.399 . S
C599 H585 0.929 . S
C599 C598 1.399 . S
C599 C600 1.385 . S
C600 H586 0.931 . S
C600 C599 1.385 . S
C600 C601 1.389 . S
C601 C600 1.389 . S
C601 C602 1.387 . S
C602 H587 0.930 . S
C602 C597 1.390 . S
C602 C601 1.387 . S
H603 C615 0.930 . S
H604 C617 0.930 . S
H605 C618 0.930 . S
H606 C622 0.959 . S
H607 C622 0.959 . S
H608 C622 0.961 . S
H609 C623 0.960 . S
H610 C623 0.961 . S
H611 C623 0.959 . S
H612 C626 0.929 . S
H613 C627 0.931 . S
H614 C629 0.930 . S
C615 H603 0.930 . S
C615 C616 1.399 . S
C615 C620 1.399 . S
C616 C615 1.399 . S
C616 C617 1.376 . S
C617 H604 0.930 . S
C617 C616 1.376 . S
C617 C618 1.388 . S
C618 H605 0.930 . S
C618 C617 1.388 . S
C618 C619 1.390 . S
C619 C618 1.390 . S
C619 C620 1.394 . S
C619 C625 1.465 . S
C620 C615 1.399 . S
C620 C619 1.394 . S
C620 C621 1.516 . S
C621 C620 1.516 . S
C621 C622 1.502 . S
C621 C623 1.561 . S
C621 C624 1.526 . S
C622 H606 0.959 . S
C622 H607 0.959 . S
C622 H608 0.961 . S
C622 C621 1.502 . S
C623 H609 0.960 . S
C623 H610 0.961 . S
C623 H611 0.959 . S
C623 C621 1.561 . S
C624 C621 1.526 . S
C624 C625 1.396 . S
C624 C629 1.390 . S
C625 C619 1.465 . S
C625 C624 1.396 . S
C625 C626 1.399 . S
C626 H612 0.929 . S
C626 C625 1.399 . S
C626 C627 1.385 . S
C627 H613 0.931 . S
C627 C626 1.385 . S
C627 C628 1.389 . S
C628 C627 1.389 . S
C628 C629 1.387 . S
C629 H614 0.930 . S
C629 C624 1.390 . S
C629 C628 1.387 . S
H630 C642 0.930 . S
H631 C644 0.930 . S
H632 C645 0.930 . S
H633 C649 0.959 . S
H634 C649 0.959 . S
H635 C649 0.961 . S
H636 C650 0.960 . S
H637 C650 0.961 . S
H638 C650 0.959 . S
H639 C653 0.929 . S
H640 C654 0.931 . S
H641 C656 0.930 . S
C642 H630 0.930 . S
C642 C643 1.399 . S
C642 C647 1.399 . S
C643 C642 1.399 . S
C643 C644 1.376 . S
C644 H631 0.930 . S
C644 C643 1.376 . S
C644 C645 1.388 . S
C645 H632 0.930 . S
C645 C644 1.388 . S
C645 C646 1.390 . S
C646 C645 1.390 . S
C646 C647 1.394 . S
C646 C652 1.465 . S
C647 C642 1.399 . S
C647 C646 1.394 . S
C647 C648 1.516 . S
C648 C647 1.516 . S
C648 C649 1.502 . S
C648 C650 1.561 . S
C648 C651 1.526 . S
C649 H633 0.959 . S
C649 H634 0.959 . S
C649 H635 0.961 . S
C649 C648 1.502 . S
C650 H636 0.960 . S
C650 H637 0.961 . S
C650 H638 0.959 . S
C650 C648 1.561 . S
C651 C648 1.526 . S
C651 C652 1.396 . S
C651 C656 1.390 . S
C652 C646 1.465 . S
C652 C651 1.396 . S
C652 C653 1.399 . S
C653 H639 0.929 . S
C653 C652 1.399 . S
C653 C654 1.385 . S
C654 H640 0.931 . S
C654 C653 1.385 . S
C654 C655 1.389 . S
C655 C654 1.389 . S
C655 C656 1.387 . S
C656 H641 0.930 . S
C656 C651 1.390 . S
C656 C655 1.387 . S
H657 C669 0.930 . S
H658 C671 0.930 . S
H659 C672 0.930 . S
H660 C676 0.959 . S
H661 C676 0.959 . S
H662 C676 0.961 . S
H663 C677 0.960 . S
H664 C677 0.961 . S
H665 C677 0.959 . S
H666 C680 0.929 . S
H667 C681 0.931 . S
H668 C683 0.930 . S
C669 H657 0.930 . S
C669 C670 1.399 . S
C669 C674 1.399 . S
C670 C669 1.399 . S
C670 C671 1.376 . S
C671 H658 0.930 . S
C671 C670 1.376 . S
C671 C672 1.388 . S
C672 H659 0.930 . S
C672 C671 1.388 . S
C672 C673 1.390 . S
C673 C672 1.390 . S
C673 C674 1.394 . S
C673 C679 1.465 . S
C674 C669 1.399 . S
C674 C673 1.394 . S
C674 C675 1.516 . S
C675 C674 1.516 . S
C675 C676 1.502 . S
C675 C677 1.561 . S
C675 C678 1.526 . S
C676 H660 0.959 . S
C676 H661 0.959 . S
C676 H662 0.961 . S
C676 C675 1.502 . S
C677 H663 0.960 . S
C677 H664 0.961 . S
C677 H665 0.959 . S
C677 C675 1.561 . S
C678 C675 1.526 . S
C678 C679 1.396 . S
C678 C683 1.390 . S
C679 C673 1.465 . S
C679 C678 1.396 . S
C679 C680 1.399 . S
C680 H666 0.929 . S
C680 C679 1.399 . S
C680 C681 1.385 . S
C681 H667 0.931 . S
C681 C680 1.385 . S
C681 C682 1.389 . S
C682 C681 1.389 . S
C682 C683 1.387 . S
C683 H668 0.930 . S
C683 C678 1.390 . S
C683 C682 1.387 . S
H684 C696 0.930 . S
H685 C698 0.930 . S
H686 C699 0.930 . S
H687 C703 0.959 . S
H688 C703 0.959 . S
H689 C703 0.961 . S
H690 C704 0.960 . S
H691 C704 0.961 . S
H692 C704 0.959 . S
H693 C707 0.929 . S
H694 C708 0.931 . S
H695 C710 0.930 . S
C696 H684 0.930 . S
C696 C697 1.399 . S
C696 C701 1.399 . S
C697 C696 1.399 . S
C697 C698 1.376 . S
C698 H685 0.930 . S
C698 C697 1.376 . S
C698 C699 1.388 . S
C699 H686 0.930 . S
C699 C698 1.388 . S
C699 C700 1.390 . S
C700 C699 1.390 . S
C700 C701 1.394 . S
C700 C706 1.465 . S
C701 C696 1.399 . S
C701 C700 1.394 . S
C701 C702 1.516 . S
C702 C701 1.516 . S
C702 C703 1.502 . S
C702 C704 1.561 . S
C702 C705 1.526 . S
C703 H687 0.959 . S
C703 H688 0.959 . S
C703 H689 0.961 . S
C703 C702 1.502 . S
C704 H690 0.960 . S
C704 H691 0.961 . S
C704 H692 0.959 . S
C704 C702 1.561 . S
C705 C702 1.526 . S
C705 C706 1.396 . S
C705 C710 1.390 . S
C706 C700 1.465 . S
C706 C705 1.396 . S
C706 C707 1.399 . S
C707 H693 0.929 . S
C707 C706 1.399 . S
C707 C708 1.385 . S
C708 H694 0.931 . S
C708 C707 1.385 . S
C708 C709 1.389 . S
C709 C708 1.389 . S
C709 C710 1.387 . S
C710 H695 0.930 . S
C710 C705 1.390 . S
C710 C709 1.387 . S
H711 C723 0.930 . S
H712 C725 0.930 . S
H713 C726 0.930 . S
H714 C730 0.959 . S
H715 C730 0.959 . S
H716 C730 0.961 . S
H717 C731 0.960 . S
H718 C731 0.961 . S
H719 C731 0.959 . S
H720 C734 0.929 . S
H721 C735 0.931 . S
H722 C737 0.930 . S
C723 H711 0.930 . S
C723 C724 1.399 . S
C723 C728 1.399 . S
C724 C723 1.399 . S
C724 C725 1.376 . S
C725 H712 0.930 . S
C725 C724 1.376 . S
C725 C726 1.388 . S
C726 H713 0.930 . S
C726 C725 1.388 . S
C726 C727 1.390 . S
C727 C726 1.390 . S
C727 C728 1.394 . S
C727 C733 1.465 . S
C728 C723 1.399 . S
C728 C727 1.394 . S
C728 C729 1.516 . S
C729 C728 1.516 . S
C729 C730 1.502 . S
C729 C731 1.561 . S
C729 C732 1.526 . S
C730 H714 0.959 . S
C730 H715 0.959 . S
C730 H716 0.961 . S
C730 C729 1.502 . S
C731 H717 0.960 . S
C731 H718 0.961 . S
C731 H719 0.959 . S
C731 C729 1.561 . S
C732 C729 1.526 . S
C732 C733 1.396 . S
C732 C737 1.390 . S
C733 C727 1.465 . S
C733 C732 1.396 . S
C733 C734 1.399 . S
C734 H720 0.929 . S
C734 C733 1.399 . S
C734 C735 1.385 . S
C735 H721 0.931 . S
C735 C734 1.385 . S
C735 C736 1.389 . S
C736 C735 1.389 . S
C736 C737 1.387 . S
C737 H722 0.930 . S
C737 C732 1.390 . S
C737 C736 1.387 . S
H738 C750 0.930 1_554 S
H739 C752 0.930 . S
H740 C753 0.930 1_455 S
H741 C757 0.959 1_455 S
H742 C757 0.940 1_455 S
H743 C757 1.014 . S
H744 C758 0.960 . S
H745 C758 0.961 1_455 S
H746 C758 0.959 . S
H747 C761 0.929 . S
H748 C762 0.931 . S
H749 C764 0.930 . S
C750 H738 0.930 1_556 S
C750 C751 1.399 . S
C750 C755 1.399 1_556 S
C751 C750 1.399 . S
C751 C752 1.376 . S
C752 H739 0.930 . S
C752 C751 1.376 . S
C752 C753 1.388 . S
C753 H740 0.930 1_655 S
C753 C752 1.388 . S
C753 C754 1.390 1_655 S
C754 C753 1.390 1_455 S
C754 C755 1.394 1_456 S
C754 C760 1.465 . S
C755 C750 1.399 1_554 S
C755 C754 1.394 1_654 S
C755 C756 1.516 1_655 S
C756 C755 1.516 1_455 S
C756 C757 1.471 1_455 S
C756 C758 1.561 1_455 S
C756 C759 1.526 . S
C757 H741 0.959 1_655 S
C757 H742 0.940 1_655 S
C757 H743 1.014 . S
C757 C756 1.471 1_655 S
C758 H744 0.960 . S
C758 H745 0.961 1_655 S
C758 H746 0.959 . S
C758 C756 1.561 1_655 S
C759 C756 1.526 . S
C759 C760 1.396 1_554 S
C759 C764 1.390 . S
C760 C754 1.465 . S
C760 C759 1.396 1_556 S
C760 C761 1.399 . S
C761 H747 0.929 . S
C761 C760 1.399 . S
C761 C762 1.385 . S
C762 H748 0.931 . S
C762 C761 1.385 . S
C762 C763 1.389 1_556 S
C763 C762 1.389 1_554 S
C763 C764 1.387 . S
C764 H749 0.930 . S
C764 C759 1.390 . S
C764 C763 1.387 . S
H765 C777 0.930 . S
H766 C779 0.930 . S
H767 C780 0.930 . S
H768 C784 0.959 . S
H769 C784 0.959 . S
H770 C784 0.961 . S
H771 C785 0.960 . S
H772 C785 0.961 . S
H773 C785 0.959 . S
H774 C788 0.929 . S
H775 C789 0.931 . S
H776 C791 0.930 1_556 S
C777 H765 0.930 . S
C777 C778 1.399 . S
C777 C782 1.399 . S
C778 C777 1.399 . S
C778 C779 1.376 1_556 S
C779 H766 0.930 . S
C779 C778 1.376 1_554 S
C779 C780 1.388 . S
C780 H767 0.930 . S
C780 C779 1.388 . S
C780 C781 1.390 . S
C781 C780 1.390 . S
C781 C782 1.394 1_554 S
C781 C787 1.465 . S
C782 C777 1.399 . S
C782 C781 1.394 1_556 S
C782 C783 1.516 . S
C783 C782 1.516 . S
C783 C784 1.502 . S
C783 C785 1.561 . S
C783 C786 1.526 . S
C784 H768 0.959 . S
C784 H769 0.959 . S
C784 H770 0.961 . S
C784 C783 1.502 . S
C785 H771 0.960 . S
C785 H772 0.961 . S
C785 H773 0.959 . S
C785 C783 1.561 . S
C786 C783 1.526 . S
C786 C787 1.396 1_556 S
C786 C791 1.390 1_556 S
C787 C781 1.465 . S
C787 C786 1.396 1_554 S
C787 C788 1.399 . S
C788 H774 0.929 . S
C788 C787 1.399 . S
C788 C789 1.385 . S
C789 H775 0.931 . S
C789 C788 1.385 . S
C789 C790 1.389 . S
C790 C789 1.389 . S
C790 C791 1.387 . S
C791 H776 0.930 1_554 S
C791 C786 1.390 1_554 S
C791 C790 1.387 . S
H792 C804 0.930 . S
H793 C806 0.930 . S
H794 C807 0.930 . S
H795 C811 0.959 . S
H796 C811 0.959 1_565 S
H797 C811 0.961 . S
H798 C812 0.944 1_545 S
H799 C812 0.981 . S
H800 C812 0.972 . S
H801 C815 0.945 . S
H802 C816 0.931 . S
H803 C818 0.930 1_556 S
C804 H792 0.930 . S
C804 C805 1.399 . S
C804 C809 1.399 . S
C805 C804 1.399 . S
C805 C806 1.376 1_556 S
C806 H793 0.930 . S
C806 C805 1.376 1_554 S
C806 C807 1.388 . S
C807 H794 0.930 . S
C807 C806 1.388 . S
C807 C808 1.390 . S
C808 C807 1.390 . S
C808 C809 1.394 1_554 S
C808 C814 1.465 . S
C809 C804 1.399 . S
C809 C808 1.394 1_556 S
C809 C810 1.516 . S
C810 C809 1.516 . S
C810 C811 1.502 . S
C810 C812 1.545 1_545 S
C810 C813 1.526 1_545 S
C811 H795 0.959 . S
C811 H796 0.959 1_545 S
C811 H797 0.961 . S
C811 C810 1.502 . S
C812 H798 0.944 1_565 S
C812 H799 0.981 . S
C812 H800 0.972 . S
C812 C810 1.545 1_565 S
C813 C810 1.526 1_565 S
C813 C814 1.396 1_566 S
C813 C818 1.390 1_556 S
C814 C808 1.465 . S
C814 C813 1.396 1_544 S
C814 C815 1.422 . S
C815 H801 0.945 . S
C815 C814 1.422 . S
C815 C816 1.348 1_545 S
C816 H802 0.931 . S
C816 C815 1.348 1_565 S
C816 C817 1.389 . S
C817 C816 1.389 . S
C817 C818 1.387 . S
C818 H803 0.930 1_554 S
C818 C813 1.390 1_554 S
C818 C817 1.387 . S
H819 C831 0.930 1_554 S
H820 C833 0.930 . S
H821 C834 0.930 . S
H822 C838 0.959 . S
H823 C838 0.959 . S
H824 C838 0.961 . S
H825 C839 0.960 . S
H826 C839 0.961 . S
H827 C839 0.959 . S
H828 C842 0.929 . S
H829 C843 0.931 . S
H830 C845 0.930 . S
C831 H819 0.930 1_556 S
C831 C832 1.399 . S
C831 C836 1.399 1_556 S
C832 C831 1.399 . S
C832 C833 1.376 . S
C833 H820 0.930 . S
C833 C832 1.376 . S
C833 C834 1.388 . S
C834 H821 0.930 . S
C834 C833 1.388 . S
C834 C835 1.390 . S
C835 C834 1.390 . S
C835 C836 1.394 1_556 S
C835 C841 1.503 . S
C836 C831 1.399 1_554 S
C836 C835 1.394 1_554 S
C836 C837 1.516 . S
C837 C836 1.516 . S
C837 C838 1.502 . S
C837 C839 1.561 . S
C837 C840 1.526 . S
C838 H822 0.959 . S
C838 H823 0.959 . S
C838 H824 0.961 . S
C838 C837 1.502 . S
C839 H825 0.960 . S
C839 H826 0.961 . S
C839 H827 0.959 . S
C839 C837 1.561 . S
C840 C837 1.526 . S
C840 C841 1.396 1_554 S
C840 C845 1.390 1_545 S
C841 C835 1.503 . S
C841 C840 1.396 1_556 S
C841 C842 1.365 1_545 S
C842 H828 0.929 . S
C842 C841 1.365 1_565 S
C842 C843 1.385 . S
C843 H829 0.931 . S
C843 C842 1.385 . S
C843 C844 1.389 1_556 S
C844 C843 1.389 1_554 S
C844 C845 1.387 . S
C845 H830 0.930 . S
C845 C840 1.390 1_565 S
C845 C844 1.387 . S
H846 C858 0.930 . S
H847 C860 0.930 1_556 S
H848 C861 0.930 . S
H849 C865 0.958 . S
H850 C865 0.962 1_655 S
H851 C865 0.959 . S
H852 C866 0.960 1_455 S
H853 C866 0.961 . S
H854 C866 0.959 . S
H855 C869 0.929 1_455 S
H856 C870 0.931 . S
H857 C872 0.930 1_554 S
C858 H846 0.930 . S
C858 C859 1.399 . S
C858 C863 1.399 . S
C859 C858 1.399 . S
C859 C860 1.376 . S
C860 H847 0.930 1_554 S
C860 C859 1.376 . S
C860 C861 1.388 1_554 S
C861 H848 0.930 . S
C861 C860 1.388 1_556 S
C861 C862 1.390 . S
C862 C861 1.390 . S
C862 C863 1.394 1_556 S
C862 C868 1.465 . S
C863 C858 1.399 . S
C863 C862 1.394 1_554 S
C863 C864 1.516 . S
C864 C863 1.516 . S
C864 C865 1.503 . S
C864 C866 1.561 1_455 S
C864 C867 1.526 1_455 S
C865 H849 0.958 . S
C865 H850 0.962 1_455 S
C865 H851 0.959 . S
C865 C864 1.503 . S
C866 H852 0.960 1_655 S
C866 H853 0.961 . S
C866 H854 0.959 . S
C866 C864 1.561 1_655 S
C867 C864 1.526 1_655 S
C867 C868 1.396 1_654 S
C867 C872 1.390 1_554 S
C868 C862 1.465 . S
C868 C867 1.396 1_456 S
C868 C869 1.399 1_455 S
C869 H855 0.929 1_655 S
C869 C868 1.399 1_655 S
C869 C870 1.385 . S
C870 H856 0.931 . S
C870 C869 1.385 . S
C870 C871 1.389 . S
C871 C870 1.389 . S
C871 C872 1.387 . S
C872 H857 0.930 1_556 S
C872 C867 1.390 1_556 S
C872 C871 1.387 . S
H873 C885 0.930 . S
H874 C887 0.930 . S
H875 C888 0.930 . S
H876 C892 0.959 . S
H877 C892 0.959 . S
H878 C892 0.961 . S
H879 C893 0.960 . S
H880 C893 0.961 . S
H881 C893 0.959 . S
H882 C896 0.929 . S
H883 C897 0.931 . S
H884 C899 0.930 1_554 S
C885 H873 0.930 . S
C885 C886 1.399 . S
C885 C890 1.399 . S
C886 C885 1.399 . S
C886 C887 1.376 1_554 S
C887 H874 0.930 . S
C887 C886 1.376 1_556 S
C887 C888 1.388 . S
C888 H875 0.930 . S
C888 C887 1.388 . S
C888 C889 1.390 . S
C889 C888 1.390 . S
C889 C890 1.394 1_556 S
C889 C895 1.465 . S
C890 C885 1.399 . S
C890 C889 1.394 1_554 S
C890 C891 1.516 . S
C891 C890 1.516 . S
C891 C892 1.502 . S
C891 C893 1.561 . S
C891 C894 1.526 . S
C892 H876 0.959 . S
C892 H877 0.959 . S
C892 H878 0.961 . S
C892 C891 1.502 . S
C893 H879 0.960 . S
C893 H880 0.961 . S
C893 H881 0.959 . S
C893 C891 1.561 . S
C894 C891 1.526 . S
C894 C895 1.396 1_554 S
C894 C899 1.390 1_554 S
C895 C889 1.465 . S
C895 C894 1.396 1_556 S
C895 C896 1.399 . S
C896 H882 0.929 . S
C896 C895 1.399 . S
C896 C897 1.385 . S
C897 H883 0.931 . S
C897 C896 1.385 . S
C897 C898 1.389 . S
C898 C897 1.389 . S
C898 C899 1.387 . S
C899 H884 0.930 1_556 S
C899 C894 1.390 1_556 S
C899 C898 1.387 . S
H900 C912 0.930 . S
H901 C914 0.930 . S
H902 C915 0.930 . S
H903 C919 0.959 . S
H904 C919 0.959 . S
H905 C919 0.961 . S
H906 C920 0.960 . S
H907 C920 0.961 . S
H908 C920 0.959 . S
H909 C923 0.929 . S
H910 C924 0.931 . S
H911 C926 0.930 . S
C912 H900 0.930 . S
C912 C913 1.399 . S
C912 C917 1.399 . S
C913 C912 1.399 . S
C913 C914 1.376 . S
C914 H901 0.930 . S
C914 C913 1.376 . S
C914 C915 1.388 . S
C915 H902 0.930 . S
C915 C914 1.388 . S
C915 C916 1.390 . S
C916 C915 1.390 . S
C916 C917 1.394 . S
C916 C922 1.465 . S
C917 C912 1.399 . S
C917 C916 1.394 . S
C917 C918 1.516 . S
C918 C917 1.516 . S
C918 C919 1.502 . S
C918 C920 1.561 . S
C918 C921 1.526 . S
C919 H903 0.959 . S
C919 H904 0.959 . S
C919 H905 0.961 . S
C919 C918 1.502 . S
C920 H906 0.960 . S
C920 H907 0.961 . S
C920 H908 0.959 . S
C920 C918 1.561 . S
C921 C918 1.526 . S
C921 C922 1.396 . S
C921 C926 1.390 . S
C922 C916 1.465 . S
C922 C921 1.396 . S
C922 C923 1.399 . S
C923 H909 0.929 . S
C923 C922 1.399 . S
C923 C924 1.385 . S
C924 H910 0.931 . S
C924 C923 1.385 . S
C924 C925 1.389 . S
C925 C924 1.389 . S
C925 C926 1.387 . S
C926 H911 0.930 . S
C926 C921 1.390 . S
C926 C925 1.387 . S
H927 C939 0.930 . S
H928 C941 0.930 . S
H929 C942 0.930 . S
H930 C946 0.959 . S
H931 C946 0.959 . S
H932 C946 0.961 . S
H933 C947 0.960 . S
H934 C947 0.961 . S
H935 C947 0.959 . S
H936 C950 0.929 . S
H937 C951 0.931 . S
H938 C953 0.930 . S
C939 H927 0.930 . S
C939 C940 1.399 . S
C939 C944 1.399 . S
C940 C939 1.399 . S
C940 C941 1.376 . S
C941 H928 0.930 . S
C941 C940 1.376 . S
C941 C942 1.388 . S
C942 H929 0.930 . S
C942 C941 1.388 . S
C942 C943 1.390 . S
C943 C942 1.390 . S
C943 C944 1.394 . S
C943 C949 1.465 . S
C944 C939 1.399 . S
C944 C943 1.394 . S
C944 C945 1.516 . S
C945 C944 1.516 . S
C945 C946 1.502 . S
C945 C947 1.561 . S
C945 C948 1.526 . S
C946 H930 0.959 . S
C946 H931 0.959 . S
C946 H932 0.961 . S
C946 C945 1.502 . S
C947 H933 0.960 . S
C947 H934 0.961 . S
C947 H935 0.959 . S
C947 C945 1.561 . S
C948 C945 1.526 . S
C948 C949 1.396 . S
C948 C953 1.390 . S
C949 C943 1.465 . S
C949 C948 1.396 . S
C949 C950 1.399 . S
C950 H936 0.929 . S
C950 C949 1.399 . S
C950 C951 1.385 . S
C951 H937 0.931 . S
C951 C950 1.385 . S
C951 C952 1.389 . S
C952 C951 1.389 . S
C952 C953 1.387 . S
C953 H938 0.930 . S
C953 C948 1.390 . S
C953 C952 1.387 . S
H954 C966 0.930 . S
H955 C968 0.930 . S
H956 C969 0.930 . S
H957 C973 0.959 . S
H958 C973 0.959 . S
H959 C973 0.961 . S
H960 C974 0.960 . S
H961 C974 0.961 . S
H962 C974 0.959 . S
H963 C977 0.929 . S
H964 C978 0.931 . S
H965 C980 0.930 . S
C966 H954 0.930 . S
C966 C967 1.399 . S
C966 C971 1.399 . S
C967 C966 1.399 . S
C967 C968 1.376 . S
C968 H955 0.930 . S
C968 C967 1.376 . S
C968 C969 1.388 . S
C969 H956 0.930 . S
C969 C968 1.388 . S
C969 C970 1.390 . S
C970 C969 1.390 . S
C970 C971 1.394 . S
C970 C976 1.465 . S
C971 C966 1.399 . S
C971 C970 1.394 . S
C971 C972 1.516 . S
C972 C971 1.516 . S
C972 C973 1.502 . S
C972 C974 1.561 . S
C972 C975 1.526 . S
C973 H957 0.959 . S
C973 H958 0.959 . S
C973 H959 0.961 . S
C973 C972 1.502 . S
C974 H960 0.960 . S
C974 H961 0.961 . S
C974 H962 0.959 . S
C974 C972 1.561 . S
C975 C972 1.526 . S
C975 C976 1.396 . S
C975 C980 1.390 . S
C976 C970 1.465 . S
C976 C975 1.396 . S
C976 C977 1.399 . S
C977 H963 0.929 . S
C977 C976 1.399 . S
C977 C978 1.385 . S
C978 H964 0.931 . S
C978 C977 1.385 . S
C978 C979 1.389 . S
C979 C978 1.389 . S
C979 C980 1.387 . S
C980 H965 0.930 . S
C980 C975 1.390 . S
C980 C979 1.387 . S
H981 C993 0.930 . S
H982 C995 0.930 . S
H983 C996 0.930 . S
H984 C1000 0.959 . S
H985 C1000 0.959 . S
H986 C1000 0.961 . S
H987 C1001 0.960 . S
H988 C1001 0.961 . S
H989 C1001 0.959 . S
H990 C1004 0.929 . S
H991 C1005 0.931 . S
H992 C1007 0.930 . S
C993 H981 0.930 . S
C993 C994 1.399 . S
C993 C998 1.399 . S
C994 C993 1.399 . S
C994 C995 1.376 . S
C995 H982 0.930 . S
C995 C994 1.376 . S
C995 C996 1.388 . S
C996 H983 0.930 . S
C996 C995 1.388 . S
C996 C997 1.390 . S
C997 C996 1.390 . S
C997 C998 1.394 . S
C997 C1003 1.465 . S
C998 C993 1.399 . S
C998 C997 1.394 . S
C998 C999 1.516 . S
C999 C998 1.516 . S
C999 C1000 1.502 . S
C999 C1001 1.561 . S
C999 C1002 1.526 . S
C1000 H984 0.959 . S
C1000 H985 0.959 . S
C1000 H986 0.961 . S
C1000 C999 1.502 . S
C1001 H987 0.960 . S
C1001 H988 0.961 . S
C1001 H989 0.959 . S
C1001 C999 1.561 . S
C1002 C999 1.526 . S
C1002 C1003 1.396 . S
C1002 C1007 1.390 . S
C1003 C997 1.465 . S
C1003 C1002 1.396 . S
C1003 C1004 1.399 . S
C1004 H990 0.929 . S
C1004 C1003 1.399 . S
C1004 C1005 1.385 . S
C1005 H991 0.931 . S
C1005 C1004 1.385 . S
C1005 C1006 1.389 . S
C1006 C1005 1.389 . S
C1006 C1007 1.387 . S
C1007 H992 0.930 . S
C1007 C1002 1.390 . S
C1007 C1006 1.387 . S
H1008 C1020 0.930 . S
H1009 C1022 0.930 . S
H1010 C1023 0.930 . S
H1011 C1027 0.959 . S
H1012 C1027 0.959 . S
H1013 C1027 0.961 . S
H1014 C1028 0.960 . S
H1015 C1028 0.961 . S
H1016 C1028 0.959 . S
H1017 C1031 0.929 . S
H1018 C1032 0.931 . S
H1019 C1034 0.930 . S
C1020 H1008 0.930 . S
C1020 C1021 1.399 . S
C1020 C1025 1.399 . S
C1021 C1020 1.399 . S
C1021 C1022 1.376 . S
C1022 H1009 0.930 . S
C1022 C1021 1.376 . S
C1022 C1023 1.388 . S
C1023 H1010 0.930 . S
C1023 C1022 1.388 . S
C1023 C1024 1.390 . S
C1024 C1023 1.390 . S
C1024 C1025 1.394 . S
C1024 C1030 1.465 . S
C1025 C1020 1.399 . S
C1025 C1024 1.394 . S
C1025 C1026 1.516 . S
C1026 C1025 1.516 . S
C1026 C1027 1.502 . S
C1026 C1028 1.561 . S
C1026 C1029 1.526 . S
C1027 H1011 0.959 . S
C1027 H1012 0.959 . S
C1027 H1013 0.961 . S
C1027 C1026 1.502 . S
C1028 H1014 0.960 . S
C1028 H1015 0.961 . S
C1028 H1016 0.959 . S
C1028 C1026 1.561 . S
C1029 C1026 1.526 . S
C1029 C1030 1.396 . S
C1029 C1034 1.390 . S
C1030 C1024 1.465 . S
C1030 C1029 1.396 . S
C1030 C1031 1.399 . S
C1031 H1017 0.929 . S
C1031 C1030 1.399 . S
C1031 C1032 1.385 . S
C1032 H1018 0.931 . S
C1032 C1031 1.385 . S
C1032 C1033 1.389 . S
C1033 C1032 1.389 . S
C1033 C1034 1.387 . S
C1034 H1019 0.930 . S
C1034 C1029 1.390 . S
C1034 C1033 1.387 . S
H1035 C1047 0.930 . S
H1036 C1049 0.930 . S
H1037 C1050 0.930 . S
H1038 C1054 0.959 . S
H1039 C1054 0.959 . S
H1040 C1054 0.961 . S
H1041 C1055 0.960 . S
H1042 C1055 0.961 . S
H1043 C1055 0.959 . S
H1044 C1058 0.929 . S
H1045 C1059 0.931 . S
H1046 C1061 0.930 . S
C1047 H1035 0.930 . S
C1047 C1048 1.399 . S
C1047 C1052 1.399 . S
C1048 C1047 1.399 . S
C1048 C1049 1.376 . S
C1049 H1036 0.930 . S
C1049 C1048 1.376 . S
C1049 C1050 1.388 . S
C1050 H1037 0.930 . S
C1050 C1049 1.388 . S
C1050 C1051 1.390 . S
C1051 C1050 1.390 . S
C1051 C1052 1.394 . S
C1051 C1057 1.465 . S
C1052 C1047 1.399 . S
C1052 C1051 1.394 . S
C1052 C1053 1.516 . S
C1053 C1052 1.516 . S
C1053 C1054 1.502 . S
C1053 C1055 1.561 . S
C1053 C1056 1.526 . S
C1054 H1038 0.959 . S
C1054 H1039 0.959 . S
C1054 H1040 0.961 . S
C1054 C1053 1.502 . S
C1055 H1041 0.960 . S
C1055 H1042 0.961 . S
C1055 H1043 0.959 . S
C1055 C1053 1.561 . S
C1056 C1053 1.526 . S
C1056 C1057 1.396 . S
C1056 C1061 1.390 . S
C1057 C1051 1.465 . S
C1057 C1056 1.396 . S
C1057 C1058 1.399 . S
C1058 H1044 0.929 . S
C1058 C1057 1.399 . S
C1058 C1059 1.385 . S
C1059 H1045 0.931 . S
C1059 C1058 1.385 . S
C1059 C1060 1.389 . S
C1060 C1059 1.389 . S
C1060 C1061 1.387 . S
C1061 H1046 0.930 . S
C1061 C1056 1.390 . S
C1061 C1060 1.387 . S
H1062 C1074 0.930 . S
H1063 C1076 0.930 . S
H1064 C1077 0.930 . S
H1065 C1081 0.959 . S
H1066 C1081 0.959 . S
H1067 C1081 0.961 . S
H1068 C1082 0.960 . S
H1069 C1082 0.961 . S
H1070 C1082 0.959 1_554 S
H1071 C1085 0.929 . S
H1072 C1086 0.931 . S
H1073 C1088 0.930 . S
C1074 H1062 0.930 . S
C1074 C1075 1.399 . S
C1074 C1079 1.399 . S
C1075 C1074 1.399 . S
C1075 C1076 1.376 . S
C1076 H1063 0.930 . S
C1076 C1075 1.376 . S
C1076 C1077 1.388 . S
C1077 H1064 0.930 . S
C1077 C1076 1.388 . S
C1077 C1078 1.390 . S
C1078 C1077 1.390 . S
C1078 C1079 1.394 . S
C1078 C1084 1.465 . S
C1079 C1074 1.399 . S
C1079 C1078 1.394 . S
C1079 C1080 1.516 . S
C1080 C1079 1.516 . S
C1080 C1081 1.502 . S
C1080 C1082 1.561 . S
C1080 C1083 1.526 . S
C1081 H1065 0.959 . S
C1081 H1066 0.959 . S
C1081 H1067 0.961 . S
C1081 C1080 1.502 . S
C1082 H1068 0.960 . S
C1082 H1069 0.961 . S
C1082 H1070 0.959 1_556 S
C1082 C1080 1.561 . S
C1083 C1080 1.526 . S
C1083 C1084 1.396 . S
C1083 C1088 1.390 . S
C1084 C1078 1.465 . S
C1084 C1083 1.396 . S
C1084 C1085 1.399 . S
C1085 H1071 0.929 . S
C1085 C1084 1.399 . S
C1085 C1086 1.385 . S
C1086 H1072 0.931 . S
C1086 C1085 1.385 . S
C1086 C1087 1.389 . S
C1087 C1086 1.389 . S
C1087 C1088 1.387 . S
C1088 H1073 0.930 . S
C1088 C1083 1.390 . S
C1088 C1087 1.387 . S
H1089 C1101 0.930 . S
H1090 C1103 0.930 . S
H1091 C1104 0.930 . S
H1092 C1108 0.959 . S
H1093 C1108 0.959 . S
H1094 C1108 0.961 . S
H1095 C1109 0.960 . S
H1096 C1109 0.961 . S
H1097 C1109 0.959 1_554 S
H1098 C1112 0.929 . S
H1099 C1113 0.931 . S
H1100 C1115 0.930 . S
C1101 H1089 0.930 . S
C1101 C1102 1.399 . S
C1101 C1106 1.399 . S
C1102 C1101 1.399 . S
C1102 C1103 1.376 . S
C1103 H1090 0.930 . S
C1103 C1102 1.376 . S
C1103 C1104 1.388 . S
C1104 H1091 0.930 . S
C1104 C1103 1.388 . S
C1104 C1105 1.390 . S
C1105 C1104 1.390 . S
C1105 C1106 1.394 . S
C1105 C1111 1.465 . S
C1106 C1101 1.399 . S
C1106 C1105 1.394 . S
C1106 C1107 1.516 . S
C1107 C1106 1.516 . S
C1107 C1108 1.502 . S
C1107 C1109 1.561 . S
C1107 C1110 1.526 . S
C1108 H1092 0.959 . S
C1108 H1093 0.959 . S
C1108 H1094 0.961 . S
C1108 C1107 1.502 . S
C1109 H1095 0.960 . S
C1109 H1096 0.961 . S
C1109 H1097 0.959 1_556 S
C1109 C1107 1.561 . S
C1110 C1107 1.526 . S
C1110 C1111 1.396 . S
C1110 C1115 1.390 . S
C1111 C1105 1.465 . S
C1111 C1110 1.396 . S
C1111 C1112 1.399 . S
C1112 H1098 0.929 . S
C1112 C1111 1.399 . S
C1112 C1113 1.385 . S
C1113 H1099 0.931 . S
C1113 C1112 1.385 . S
C1113 C1114 1.389 . S
C1114 C1113 1.389 . S
C1114 C1115 1.387 . S
C1115 H1100 0.930 . S
C1115 C1110 1.390 . S
C1115 C1114 1.387 . S
H1116 C1128 0.930 . S
H1117 C1130 0.930 . S
H1118 C1131 0.930 . S
H1119 C1135 0.959 . S
H1120 C1135 0.959 . S
H1121 C1135 0.961 . S
H1122 C1136 0.960 . S
H1123 C1136 0.961 . S
H1124 C1136 0.959 . S
H1125 C1139 0.929 . S
H1126 C1140 0.931 . S
H1127 C1142 0.930 . S
C1128 H1116 0.930 . S
C1128 C1129 1.399 . S
C1128 C1133 1.399 . S
C1129 C1128 1.399 . S
C1129 C1130 1.376 . S
C1130 H1117 0.930 . S
C1130 C1129 1.376 . S
C1130 C1131 1.388 . S
C1131 H1118 0.930 . S
C1131 C1130 1.388 . S
C1131 C1132 1.390 . S
C1132 C1131 1.390 . S
C1132 C1133 1.394 . S
C1132 C1138 1.465 . S
C1133 C1128 1.399 . S
C1133 C1132 1.394 . S
C1133 C1134 1.516 . S
C1134 C1133 1.516 . S
C1134 C1135 1.502 . S
C1134 C1136 1.561 . S
C1134 C1137 1.526 . S
C1135 H1119 0.959 . S
C1135 H1120 0.959 . S
C1135 H1121 0.961 . S
C1135 C1134 1.502 . S
C1136 H1122 0.960 . S
C1136 H1123 0.961 . S
C1136 H1124 0.959 . S
C1136 C1134 1.561 . S
C1137 C1134 1.526 . S
C1137 C1138 1.396 . S
C1137 C1142 1.390 . S
C1138 C1132 1.465 . S
C1138 C1137 1.396 . S
C1138 C1139 1.399 . S
C1139 H1125 0.929 . S
C1139 C1138 1.399 . S
C1139 C1140 1.385 . S
C1140 H1126 0.931 . S
C1140 C1139 1.385 . S
C1140 C1141 1.389 . S
C1141 C1140 1.389 . S
C1141 C1142 1.387 . S
C1142 H1127 0.930 . S
C1142 C1137 1.390 . S
C1142 C1141 1.387 . S
H1143 C1155 0.930 . S
H1144 C1157 0.930 . S
H1145 C1158 0.930 . S
H1146 C1162 0.959 . S
H1147 C1162 0.959 . S
H1148 C1162 0.961 . S
H1149 C1163 0.960 1_554 S
H1150 C1163 0.961 1_554 S
H1151 C1163 0.959 . S
H1152 C1166 0.929 . S
H1153 C1167 0.931 . S
H1154 C1169 0.930 . S
C1155 H1143 0.930 . S
C1155 C1156 1.399 . S
C1155 C1160 1.399 . S
C1156 C1155 1.399 . S
C1156 C1157 1.376 . S
C1157 H1144 0.930 . S
C1157 C1156 1.376 . S
C1157 C1158 1.388 . S
C1158 H1145 0.930 . S
C1158 C1157 1.388 . S
C1158 C1159 1.390 . S
C1159 C1158 1.390 . S
C1159 C1160 1.394 . S
C1159 C1165 1.465 . S
C1160 C1155 1.399 . S
C1160 C1159 1.394 . S
C1160 C1161 1.516 . S
C1161 C1160 1.516 . S
C1161 C1162 1.502 . S
C1161 C1163 1.561 . S
C1161 C1164 1.526 . S
C1162 H1146 0.959 . S
C1162 H1147 0.959 . S
C1162 H1148 0.961 . S
C1162 C1161 1.502 . S
C1163 H1149 0.960 1_556 S
C1163 H1150 0.961 1_556 S
C1163 H1151 0.959 . S
C1163 C1161 1.561 . S
C1164 C1161 1.526 . S
C1164 C1165 1.396 . S
C1164 C1169 1.390 . S
C1165 C1159 1.465 . S
C1165 C1164 1.396 . S
C1165 C1166 1.399 . S
C1166 H1152 0.929 . S
C1166 C1165 1.399 . S
C1166 C1167 1.385 . S
C1167 H1153 0.931 . S
C1167 C1166 1.385 . S
C1167 C1168 1.389 . S
C1168 C1167 1.389 . S
C1168 C1169 1.387 . S
C1169 H1154 0.930 . S
C1169 C1164 1.390 . S
C1169 C1168 1.387 . S
H1170 C1182 0.930 . S
H1171 C1184 0.930 . S
H1172 C1185 0.930 . S
H1173 C1189 0.959 . S
H1174 C1189 0.959 . S
H1175 C1189 0.961 . S
H1176 C1190 0.960 1_554 S
H1177 C1190 0.961 1_554 S
H1178 C1190 0.959 . S
H1179 C1193 0.929 . S
H1180 C1194 0.931 . S
H1181 C1196 0.930 . S
C1182 H1170 0.930 . S
C1182 C1183 1.399 . S
C1182 C1187 1.399 . S
C1183 C1182 1.399 . S
C1183 C1184 1.376 . S
C1184 H1171 0.930 . S
C1184 C1183 1.376 . S
C1184 C1185 1.388 . S
C1185 H1172 0.930 . S
C1185 C1184 1.388 . S
C1185 C1186 1.390 . S
C1186 C1185 1.390 . S
C1186 C1187 1.394 . S
C1186 C1192 1.465 . S
C1187 C1182 1.399 . S
C1187 C1186 1.394 . S
C1187 C1188 1.516 . S
C1188 C1187 1.516 . S
C1188 C1189 1.502 . S
C1188 C1190 1.561 . S
C1188 C1191 1.526 . S
C1189 H1173 0.959 . S
C1189 H1174 0.959 . S
C1189 H1175 0.961 . S
C1189 C1188 1.502 . S
C1190 H1176 0.960 1_556 S
C1190 H1177 0.961 1_556 S
C1190 H1178 0.959 . S
C1190 C1188 1.561 . S
C1191 C1188 1.526 . S
C1191 C1192 1.396 . S
C1191 C1196 1.390 . S
C1192 C1186 1.465 . S
C1192 C1191 1.396 . S
C1192 C1193 1.399 . S
C1193 H1179 0.929 . S
C1193 C1192 1.399 . S
C1193 C1194 1.385 . S
C1194 H1180 0.931 . S
C1194 C1193 1.385 . S
C1194 C1195 1.389 . S
C1195 C1194 1.389 . S
C1195 C1196 1.387 . S
C1196 H1181 0.930 . S
C1196 C1191 1.390 . S
C1196 C1195 1.387 . S
H1197 C1209 0.930 . S
H1198 C1211 0.930 . S
H1199 C1212 0.930 . S
H1200 C1216 0.959 . S
H1201 C1216 0.959 . S
H1202 C1216 0.961 . S
H1203 C1217 0.960 . S
H1204 C1217 0.961 . S
H1205 C1217 0.959 . S
H1206 C1220 0.929 . S
H1207 C1221 0.931 . S
H1208 C1223 0.930 . S
C1209 H1197 0.930 . S
C1209 C1210 1.399 . S
C1209 C1214 1.399 . S
C1210 C1209 1.399 . S
C1210 C1211 1.376 . S
C1211 H1198 0.930 . S
C1211 C1210 1.376 . S
C1211 C1212 1.388 . S
C1212 H1199 0.930 . S
C1212 C1211 1.388 . S
C1212 C1213 1.390 . S
C1213 C1212 1.390 . S
C1213 C1214 1.394 . S
C1213 C1219 1.465 . S
C1214 C1209 1.399 . S
C1214 C1213 1.394 . S
C1214 C1215 1.516 . S
C1215 C1214 1.516 . S
C1215 C1216 1.502 . S
C1215 C1217 1.561 . S
C1215 C1218 1.526 . S
C1216 H1200 0.959 . S
C1216 H1201 0.959 . S
C1216 H1202 0.961 . S
C1216 C1215 1.502 . S
C1217 H1203 0.960 . S
C1217 H1204 0.961 . S
C1217 H1205 0.959 . S
C1217 C1215 1.561 . S
C1218 C1215 1.526 . S
C1218 C1219 1.396 . S
C1218 C1223 1.390 . S
C1219 C1213 1.465 . S
C1219 C1218 1.396 . S
C1219 C1220 1.399 . S
C1220 H1206 0.929 . S
C1220 C1219 1.399 . S
C1220 C1221 1.385 . S
C1221 H1207 0.931 . S
C1221 C1220 1.385 . S
C1221 C1222 1.389 . S
C1222 C1221 1.389 . S
C1222 C1223 1.387 . S
C1223 H1208 0.930 . S
C1223 C1218 1.390 . S
C1223 C1222 1.387 . S
H1224 C1236 0.930 . S
H1225 C1238 0.930 . S
H1226 C1239 0.930 . S
H1227 C1243 0.959 . S
H1228 C1243 0.959 . S
H1229 C1243 0.961 . S
H1230 C1244 0.960 . S
H1231 C1244 0.961 . S
H1232 C1244 0.959 . S
H1233 C1247 0.929 . S
H1234 C1248 0.931 . S
H1235 C1250 0.930 . S
C1236 H1224 0.930 . S
C1236 C1237 1.399 . S
C1236 C1241 1.399 . S
C1237 C1236 1.399 . S
C1237 C1238 1.376 . S
C1238 H1225 0.930 . S
C1238 C1237 1.376 . S
C1238 C1239 1.388 . S
C1239 H1226 0.930 . S
C1239 C1238 1.388 . S
C1239 C1240 1.390 . S
C1240 C1239 1.390 . S
C1240 C1241 1.394 . S
C1240 C1246 1.465 . S
C1241 C1236 1.399 . S
C1241 C1240 1.394 . S
C1241 C1242 1.516 . S
C1242 C1241 1.516 . S
C1242 C1243 1.502 . S
C1242 C1244 1.561 . S
C1242 C1245 1.526 . S
C1243 H1227 0.959 . S
C1243 H1228 0.959 . S
C1243 H1229 0.961 . S
C1243 C1242 1.502 . S
C1244 H1230 0.960 . S
C1244 H1231 0.961 . S
C1244 H1232 0.959 . S
C1244 C1242 1.561 . S
C1245 C1242 1.526 . S
C1245 C1246 1.396 . S
C1245 C1250 1.390 . S
C1246 C1240 1.465 . S
C1246 C1245 1.396 . S
C1246 C1247 1.399 . S
C1247 H1233 0.929 . S
C1247 C1246 1.399 . S
C1247 C1248 1.385 . S
C1248 H1234 0.931 . S
C1248 C1247 1.385 . S
C1248 C1249 1.389 . S
C1249 C1248 1.389 . S
C1249 C1250 1.387 . S
C1250 H1235 0.930 . S
C1250 C1245 1.390 . S
C1250 C1249 1.387 . S
H1251 C1263 0.930 . S
H1252 C1265 0.930 . S
H1253 C1266 0.930 . S
H1254 C1270 0.959 . S
H1255 C1270 0.959 . S
H1256 C1270 0.961 . S
H1257 C1271 0.960 . S
H1258 C1271 0.961 . S
H1259 C1271 0.959 . S
H1260 C1274 0.929 . S
H1261 C1275 0.931 . S
H1262 C1277 0.930 . S
C1263 H1251 0.930 . S
C1263 C1264 1.399 . S
C1263 C1268 1.399 . S
C1264 C1263 1.399 . S
C1264 C1265 1.376 . S
C1265 H1252 0.930 . S
C1265 C1264 1.376 . S
C1265 C1266 1.388 . S
C1266 H1253 0.930 . S
C1266 C1265 1.388 . S
C1266 C1267 1.390 . S
C1267 C1266 1.390 . S
C1267 C1268 1.394 . S
C1267 C1273 1.465 . S
C1268 C1263 1.399 . S
C1268 C1267 1.394 . S
C1268 C1269 1.516 . S
C1269 C1268 1.516 . S
C1269 C1270 1.502 . S
C1269 C1271 1.561 . S
C1269 C1272 1.526 . S
C1270 H1254 0.959 . S
C1270 H1255 0.959 . S
C1270 H1256 0.961 . S
C1270 C1269 1.502 . S
C1271 H1257 0.960 . S
C1271 H1258 0.961 . S
C1271 H1259 0.959 . S
C1271 C1269 1.561 . S
C1272 C1269 1.526 . S
C1272 C1273 1.396 . S
C1272 C1277 1.390 . S
C1273 C1267 1.465 . S
C1273 C1272 1.396 . S
C1273 C1274 1.399 . S
C1274 H1260 0.929 . S
C1274 C1273 1.399 . S
C1274 C1275 1.385 . S
C1275 H1261 0.931 . S
C1275 C1274 1.385 . S
C1275 C1276 1.389 . S
C1276 C1275 1.389 . S
C1276 C1277 1.387 . S
C1277 H1262 0.930 . S
C1277 C1272 1.390 . S
C1277 C1276 1.387 . S
H1278 C1290 0.930 . S
H1279 C1292 0.930 . S
H1280 C1293 0.930 . S
H1281 C1297 0.959 . S
H1282 C1297 0.959 . S
H1283 C1297 0.961 . S
H1284 C1298 0.960 1_556 S
H1285 C1298 0.961 1_556 S
H1286 C1298 0.959 . S
H1287 C1301 0.929 . S
H1288 C1302 0.931 . S
H1289 C1304 0.930 . S
C1290 H1278 0.930 . S
C1290 C1291 1.399 . S
C1290 C1295 1.399 . S
C1291 C1290 1.399 . S
C1291 C1292 1.376 . S
C1292 H1279 0.930 . S
C1292 C1291 1.376 . S
C1292 C1293 1.388 . S
C1293 H1280 0.930 . S
C1293 C1292 1.388 . S
C1293 C1294 1.390 . S
C1294 C1293 1.390 . S
C1294 C1295 1.394 . S
C1294 C1300 1.465 . S
C1295 C1290 1.399 . S
C1295 C1294 1.394 . S
C1295 C1296 1.516 . S
C1296 C1295 1.516 . S
C1296 C1297 1.502 . S
C1296 C1298 1.561 . S
C1296 C1299 1.526 . S
C1297 H1281 0.959 . S
C1297 H1282 0.959 . S
C1297 H1283 0.961 . S
C1297 C1296 1.502 . S
C1298 H1284 0.960 1_554 S
C1298 H1285 0.961 1_554 S
C1298 H1286 0.959 . S
C1298 C1296 1.561 . S
C1299 C1296 1.526 . S
C1299 C1300 1.396 . S
C1299 C1304 1.390 . S
C1300 C1294 1.465 . S
C1300 C1299 1.396 . S
C1300 C1301 1.399 . S
C1301 H1287 0.929 . S
C1301 C1300 1.399 . S
C1301 C1302 1.385 . S
C1302 H1288 0.931 . S
C1302 C1301 1.385 . S
C1302 C1303 1.389 . S
C1303 C1302 1.389 . S
C1303 C1304 1.387 . S
C1304 H1289 0.930 . S
C1304 C1299 1.390 . S
C1304 C1303 1.387 . S
H1305 C1317 0.930 . S
H1306 C1319 0.930 . S
H1307 C1320 0.930 . S
H1308 C1324 0.959 1_556 S
H1309 C1324 0.959 1_556 S
H1310 C1324 0.961 1_556 S
H1311 C1325 0.960 . S
H1312 C1325 0.961 . S
H1313 C1325 0.959 . S
H1314 C1328 0.929 . S
H1315 C1329 0.931 . S
H1316 C1331 0.930 . S
C1317 H1305 0.930 . S
C1317 C1318 1.399 . S
C1317 C1322 1.399 . S
C1318 C1317 1.399 . S
C1318 C1319 1.376 . S
C1319 H1306 0.930 . S
C1319 C1318 1.376 . S
C1319 C1320 1.388 . S
C1320 H1307 0.930 . S
C1320 C1319 1.388 . S
C1320 C1321 1.390 . S
C1321 C1320 1.390 . S
C1321 C1322 1.394 . S
C1321 C1327 1.465 . S
C1322 C1317 1.399 . S
C1322 C1321 1.394 . S
C1322 C1323 1.516 . S
C1323 C1322 1.516 . S
C1323 C1324 1.502 . S
C1323 C1325 1.561 . S
C1323 C1326 1.526 . S
C1324 H1308 0.959 1_554 S
C1324 H1309 0.959 1_554 S
C1324 H1310 0.961 1_554 S
C1324 C1323 1.502 . S
C1325 H1311 0.960 . S
C1325 H1312 0.961 . S
C1325 H1313 0.959 . S
C1325 C1323 1.561 . S
C1326 C1323 1.526 . S
C1326 C1327 1.396 . S
C1326 C1331 1.390 . S
C1327 C1321 1.465 . S
C1327 C1326 1.396 . S
C1327 C1328 1.399 . S
C1328 H1314 0.929 . S
C1328 C1327 1.399 . S
C1328 C1329 1.385 . S
C1329 H1315 0.931 . S
C1329 C1328 1.385 . S
C1329 C1330 1.389 . S
C1330 C1329 1.389 . S
C1330 C1331 1.387 . S
C1331 H1316 0.930 . S
C1331 C1326 1.390 . S
C1331 C1330 1.387 . S
H1332 C1344 0.930 . S
H1333 C1346 0.930 . S
H1334 C1347 0.930 . S
H1335 C1351 0.959 1_554 S
H1336 C1351 0.959 . S
H1337 C1351 0.961 . S
H1338 C1352 0.960 1_556 S
H1339 C1352 0.961 1_556 S
H1340 C1352 0.959 . S
H1341 C1355 0.929 . S
H1342 C1356 0.931 . S
H1343 C1358 0.930 . S
C1344 H1332 0.930 . S
C1344 C1345 1.399 . S
C1344 C1349 1.399 . S
C1345 C1344 1.399 . S
C1345 C1346 1.376 . S
C1346 H1333 0.930 . S
C1346 C1345 1.376 . S
C1346 C1347 1.388 . S
C1347 H1334 0.930 . S
C1347 C1346 1.388 . S
C1347 C1348 1.390 . S
C1348 C1347 1.390 . S
C1348 C1349 1.394 . S
C1348 C1354 1.465 . S
C1349 C1344 1.399 . S
C1349 C1348 1.394 . S
C1349 C1350 1.516 . S
C1350 C1349 1.516 . S
C1350 C1351 1.502 1_554 S
C1350 C1352 1.561 . S
C1350 C1353 1.526 . S
C1351 H1335 0.959 1_556 S
C1351 H1336 0.959 . S
C1351 H1337 0.961 . S
C1351 C1350 1.502 1_556 S
C1352 H1338 0.960 1_554 S
C1352 H1339 0.961 1_554 S
C1352 H1340 0.959 . S
C1352 C1350 1.561 . S
C1353 C1350 1.526 . S
C1353 C1354 1.396 . S
C1353 C1358 1.390 . S
C1354 C1348 1.465 . S
C1354 C1353 1.396 . S
C1354 C1355 1.399 . S
C1355 H1341 0.929 . S
C1355 C1354 1.399 . S
C1355 C1356 1.385 . S
C1356 H1342 0.931 . S
C1356 C1355 1.385 . S
C1356 C1357 1.389 . S
C1357 C1356 1.389 . S
C1357 C1358 1.387 . S
C1358 H1343 0.930 . S
C1358 C1353 1.390 . S
C1358 C1357 1.387 . S
H1359 C1371 0.930 . S
H1360 C1373 0.930 . S
H1361 C1374 0.930 . S
H1362 C1378 0.959 . S
H1363 C1378 0.959 . S
H1364 C1378 0.961 . S
H1365 C1379 0.960 . S
H1366 C1379 0.961 . S
H1367 C1379 0.959 . S
H1368 C1382 0.929 . S
H1369 C1383 0.931 . S
H1370 C1385 0.930 . S
C1371 H1359 0.930 . S
C1371 C1372 1.399 . S
C1371 C1376 1.399 . S
C1372 C1371 1.399 . S
C1372 C1373 1.376 . S
C1373 H1360 0.930 . S
C1373 C1372 1.376 . S
C1373 C1374 1.388 . S
C1374 H1361 0.930 . S
C1374 C1373 1.388 . S
C1374 C1375 1.390 . S
C1375 C1374 1.390 . S
C1375 C1376 1.394 . S
C1375 C1381 1.465 . S
C1376 C1371 1.399 . S
C1376 C1375 1.394 . S
C1376 C1377 1.516 . S
C1377 C1376 1.516 . S
C1377 C1378 1.502 1_554 S
C1377 C1379 1.561 . S
C1377 C1380 1.526 . S
C1378 H1362 0.959 . S
C1378 H1363 0.959 . S
C1378 H1364 0.961 . S
C1378 C1377 1.502 1_556 S
C1379 H1365 0.960 . S
C1379 H1366 0.961 . S
C1379 H1367 0.959 . S
C1379 C1377 1.561 . S
C1380 C1377 1.526 . S
C1380 C1381 1.396 . S
C1380 C1385 1.390 . S
C1381 C1375 1.465 . S
C1381 C1380 1.396 . S
C1381 C1382 1.399 . S
C1382 H1368 0.929 . S
C1382 C1381 1.399 . S
C1382 C1383 1.385 . S
C1383 H1369 0.931 . S
C1383 C1382 1.385 . S
C1383 C1384 1.389 . S
C1384 C1383 1.389 . S
C1384 C1385 1.387 . S
C1385 H1370 0.930 . S
C1385 C1380 1.390 . S
C1385 C1384 1.387 . S
H1386 C1398 0.930 . S
H1387 C1400 0.943 1_655 S
H1388 C1401 0.930 . S
H1389 C1405 0.959 1_655 S
H1390 C1405 0.959 . S
H1391 C1405 0.961 1_554 S
H1392 C1406 0.960 . S
H1393 C1406 0.961 1_556 S
H1394 C1406 0.959 . S
H1395 C1409 0.929 . S
H1396 C1410 0.931 . S
H1397 C1412 0.930 . S
C1398 H1386 0.930 . S
C1398 C1399 1.399 . S
C1398 C1403 1.399 . S
C1399 C1398 1.399 . S
C1399 C1400 1.376 . S
C1400 H1387 0.943 1_455 S
C1400 C1399 1.376 . S
C1400 C1401 1.388 . S
C1401 H1388 0.930 . S
C1401 C1400 1.388 . S
C1401 C1402 1.390 . S
C1402 C1401 1.390 . S
C1402 C1403 1.394 . S
C1402 C1408 1.465 1_554 S
C1403 C1398 1.399 . S
C1403 C1402 1.394 . S
C1403 C1404 1.516 . S
C1404 C1403 1.516 . S
C1404 C1405 1.502 1_554 S
C1404 C1406 1.561 . S
C1404 C1407 1.526 1_554 S
C1405 H1389 0.959 1_455 S
C1405 H1390 0.959 . S
C1405 H1391 0.961 1_556 S
C1405 C1404 1.502 1_556 S
C1406 H1392 0.960 . S
C1406 H1393 0.961 1_554 S
C1406 H1394 0.959 . S
C1406 C1404 1.561 . S
C1407 C1404 1.526 1_556 S
C1407 C1408 1.396 . S
C1407 C1412 1.390 . S
C1408 C1402 1.465 1_556 S
C1408 C1407 1.396 . S
C1408 C1409 1.399 . S
C1409 H1395 0.929 . S
C1409 C1408 1.399 . S
C1409 C1410 1.385 . S
C1410 H1396 0.931 . S
C1410 C1409 1.385 . S
C1410 C1411 1.389 . S
C1411 C1410 1.389 . S
C1411 C1412 1.387 . S
C1412 H1397 0.930 . S
C1412 C1407 1.390 . S
C1412 C1411 1.387 . S
H1413 C1425 0.930 . S
H1414 C1427 0.930 . S
H1415 C1428 0.930 . S
H1416 C1432 0.959 . S
H1417 C1432 0.959 . S
H1418 C1432 0.961 1_554 S
H1419 C1433 0.960 1_554 S
H1420 C1433 0.961 . S
H1421 C1433 0.959 . S
H1422 C1436 0.929 . S
H1423 C1437 0.931 . S
H1424 C1439 0.930 . S
C1425 H1413 0.930 . S
C1425 C1426 1.399 . S
C1425 C1430 1.399 . S
C1426 C1425 1.399 . S
C1426 C1427 1.376 . S
C1427 H1414 0.930 . S
C1427 C1426 1.376 . S
C1427 C1428 1.388 . S
C1428 H1415 0.930 . S
C1428 C1427 1.388 . S
C1428 C1429 1.390 . S
C1429 C1428 1.390 . S
C1429 C1430 1.394 . S
C1429 C1435 1.465 1_554 S
C1430 C1425 1.399 . S
C1430 C1429 1.394 . S
C1430 C1431 1.516 1_554 S
C1431 C1430 1.516 1_556 S
C1431 C1432 1.502 . S
C1431 C1433 1.561 . S
C1431 C1434 1.526 . S
C1432 H1416 0.959 . S
C1432 H1417 0.959 . S
C1432 H1418 0.961 1_556 S
C1432 C1431 1.502 . S
C1433 H1419 0.960 1_556 S
C1433 H1420 0.961 . S
C1433 H1421 0.959 . S
C1433 C1431 1.561 . S
C1434 C1431 1.526 . S
C1434 C1435 1.396 . S
C1434 C1439 1.390 . S
C1435 C1429 1.465 1_556 S
C1435 C1434 1.396 . S
C1435 C1436 1.399 . S
C1436 H1422 0.929 . S
C1436 C1435 1.399 . S
C1436 C1437 1.385 . S
C1437 H1423 0.931 . S
C1437 C1436 1.385 . S
C1437 C1438 1.389 . S
C1438 C1437 1.389 . S
C1438 C1439 1.387 . S
C1439 H1424 0.930 . S
C1439 C1434 1.390 . S
C1439 C1438 1.387 . S
H1440 C1452 0.930 . S
H1441 C1454 0.930 1_565 S
H1442 C1455 0.930 . S
H1443 C1459 0.959 . S
H1444 C1459 0.959 . S
H1445 C1459 0.961 1_554 S
H1446 C1460 0.960 1_554 S
H1447 C1460 0.961 . S
H1448 C1460 0.959 . S
H1449 C1463 0.929 . S
H1450 C1464 0.931 . S
H1451 C1466 0.930 . S
C1452 H1440 0.930 . S
C1452 C1453 1.399 . S
C1452 C1457 1.399 . S
C1453 C1452 1.399 . S
C1453 C1454 1.376 . S
C1454 H1441 0.930 1_545 S
C1454 C1453 1.376 . S
C1454 C1455 1.388 1_545 S
C1455 H1442 0.930 . S
C1455 C1454 1.388 1_565 S
C1455 C1456 1.390 1_565 S
C1456 C1455 1.390 1_545 S
C1456 C1457 1.394 . S
C1456 C1462 1.465 1_554 S
C1457 C1452 1.399 . S
C1457 C1456 1.394 . S
C1457 C1458 1.516 1_554 S
C1458 C1457 1.516 1_556 S
C1458 C1459 1.502 . S
C1458 C1460 1.561 . S
C1458 C1461 1.526 . S
C1459 H1443 0.959 . S
C1459 H1444 0.959 . S
C1459 H1445 0.961 1_556 S
C1459 C1458 1.502 . S
C1460 H1446 0.960 1_556 S
C1460 H1447 0.961 . S
C1460 H1448 0.959 . S
C1460 C1458 1.561 . S
C1461 C1458 1.526 . S
C1461 C1462 1.396 . S
C1461 C1466 1.390 . S
C1462 C1456 1.465 1_556 S
C1462 C1461 1.396 . S
C1462 C1463 1.399 1_545 S
C1463 H1449 0.929 . S
C1463 C1462 1.399 1_565 S
C1463 C1464 1.385 . S
C1464 H1450 0.931 . S
C1464 C1463 1.385 . S
C1464 C1465 1.389 1_565 S
C1465 C1464 1.389 1_545 S
C1465 C1466 1.387 . S
C1466 H1451 0.930 . S
C1466 C1461 1.390 . S
C1466 C1465 1.387 . S
H1467 C1479 0.930 . S
H1468 C1481 0.930 1_655 S
H1469 C1482 0.930 . S
H1470 C1486 0.959 . S
H1471 C1486 0.959 . S
H1472 C1486 0.961 1_556 S
H1473 C1487 0.960 1_556 S
H1474 C1487 0.961 . S
H1475 C1487 0.960 . S
H1476 C1490 0.929 . S
H1477 C1491 0.931 . S
H1478 C1493 0.930 . S
C1479 H1467 0.930 . S
C1479 C1480 1.399 . S
C1479 C1484 1.399 . S
C1480 C1479 1.399 . S
C1480 C1481 1.376 . S
C1481 H1468 0.930 1_455 S
C1481 C1480 1.376 . S
C1481 C1482 1.388 1_455 S
C1482 H1469 0.930 . S
C1482 C1481 1.388 1_655 S
C1482 C1483 1.390 1_655 S
C1483 C1482 1.390 1_455 S
C1483 C1484 1.394 . S
C1483 C1489 1.465 1_556 S
C1484 C1479 1.399 . S
C1484 C1483 1.394 . S
C1484 C1485 1.516 1_556 S
C1485 C1484 1.516 1_554 S
C1485 C1486 1.502 . S
C1485 C1487 1.561 . S
C1485 C1488 1.526 . S
C1486 H1470 0.959 . S
C1486 H1471 0.959 . S
C1486 H1472 0.961 1_554 S
C1486 C1485 1.502 . S
C1487 H1473 0.960 1_554 S
C1487 H1474 0.961 . S
C1487 H1475 0.960 . S
C1487 C1485 1.561 . S
C1488 C1485 1.526 . S
C1488 C1489 1.396 . S
C1488 C1493 1.390 . S
C1489 C1483 1.465 1_554 S
C1489 C1488 1.396 . S
C1489 C1490 1.399 1_455 S
C1490 H1476 0.929 . S
C1490 C1489 1.399 1_655 S
C1490 C1491 1.385 . S
C1491 H1477 0.931 . S
C1491 C1490 1.385 . S
C1491 C1492 1.389 1_655 S
C1492 C1491 1.389 1_455 S
C1492 C1493 1.387 . S
C1493 H1478 0.930 . S
C1493 C1488 1.390 . S
C1493 C1492 1.387 . S
H1494 C1506 0.930 . S
H1495 C1508 0.930 . S
H1496 C1509 0.930 . S
H1497 C1513 0.959 1_554 S
H1498 C1513 0.959 . S
H1499 C1513 0.961 1_554 S
H1500 C1514 0.960 1_554 S
H1501 C1514 0.961 . S
H1502 C1514 0.959 . S
H1503 C1517 0.929 . S
H1504 C1518 0.931 . S
H1505 C1520 0.930 . S
C1506 H1494 0.930 . S
C1506 C1507 1.399 . S
C1506 C1511 1.399 . S
C1507 C1506 1.399 . S
C1507 C1508 1.376 . S
C1508 H1495 0.930 . S
C1508 C1507 1.376 . S
C1508 C1509 1.388 . S
C1509 H1496 0.930 . S
C1509 C1508 1.388 . S
C1509 C1510 1.390 . S
C1510 C1509 1.390 . S
C1510 C1511 1.394 . S
C1510 C1516 1.465 1_554 S
C1511 C1506 1.399 . S
C1511 C1510 1.394 . S
C1511 C1512 1.516 1_554 S
C1512 C1511 1.516 1_556 S
C1512 C1513 1.502 . S
C1512 C1514 1.561 . S
C1512 C1515 1.526 . S
C1513 H1497 0.959 1_556 S
C1513 H1498 0.959 . S
C1513 H1499 0.961 1_556 S
C1513 C1512 1.502 . S
C1514 H1500 0.960 1_556 S
C1514 H1501 0.961 . S
C1514 H1502 0.959 . S
C1514 C1512 1.561 . S
C1515 C1512 1.526 . S
C1515 C1516 1.396 . S
C1515 C1520 1.390 . S
C1516 C1510 1.465 1_556 S
C1516 C1515 1.396 . S
C1516 C1517 1.399 . S
C1517 H1503 0.929 . S
C1517 C1516 1.399 . S
C1517 C1518 1.385 . S
C1518 H1504 0.931 . S
C1518 C1517 1.385 . S
C1518 C1519 1.389 . S
C1519 C1518 1.389 . S
C1519 C1520 1.387 . S
C1520 H1505 0.930 . S
C1520 C1515 1.390 . S
C1520 C1519 1.387 . S
H1521 C1533 0.930 . S
H1522 C1535 0.930 1_565 S
H1523 C1536 0.930 . S
H1524 C1540 0.959 . S
H1525 C1540 0.959 . S
H1526 C1540 0.961 1_554 S
H1527 C1541 0.960 1_554 S
H1528 C1541 0.961 . S
H1529 C1541 0.959 . S
H1530 C1544 0.929 . S
H1531 C1545 0.931 . S
H1532 C1547 0.930 . S
C1533 H1521 0.930 . S
C1533 C1534 1.399 . S
C1533 C1538 1.399 . S
C1534 C1533 1.399 . S
C1534 C1535 1.376 . S
C1535 H1522 0.930 1_545 S
C1535 C1534 1.376 . S
C1535 C1536 1.388 1_545 S
C1536 H1523 0.930 . S
C1536 C1535 1.388 1_565 S
C1536 C1537 1.390 1_565 S
C1537 C1536 1.390 1_545 S
C1537 C1538 1.394 . S
C1537 C1543 1.465 1_554 S
C1538 C1533 1.399 . S
C1538 C1537 1.394 . S
C1538 C1539 1.516 1_554 S
C1539 C1538 1.516 1_556 S
C1539 C1540 1.502 . S
C1539 C1541 1.561 . S
C1539 C1542 1.526 . S
C1540 H1524 0.959 . S
C1540 H1525 0.959 . S
C1540 H1526 0.961 1_556 S
C1540 C1539 1.502 . S
C1541 H1527 0.960 1_556 S
C1541 H1528 0.961 . S
C1541 H1529 0.959 . S
C1541 C1539 1.561 . S
C1542 C1539 1.526 . S
C1542 C1543 1.396 . S
C1542 C1547 1.390 . S
C1543 C1537 1.465 1_556 S
C1543 C1542 1.396 . S
C1543 C1544 1.399 1_545 S
C1544 H1530 0.929 . S
C1544 C1543 1.399 1_565 S
C1544 C1545 1.385 . S
C1545 H1531 0.931 . S
C1545 C1544 1.385 . S
C1545 C1546 1.389 1_565 S
C1546 C1545 1.389 1_545 S
C1546 C1547 1.387 . S
C1547 H1532 0.930 . S
C1547 C1542 1.390 . S
C1547 C1546 1.387 . S
H1548 C1560 0.930 . S
H1549 C1562 0.930 . S
H1550 C1563 0.930 . S
H1551 C1567 0.959 . S
H1552 C1567 0.959 . S
H1553 C1567 0.961 . S
H1554 C1568 0.960 . S
H1555 C1568 0.961 . S
H1556 C1568 0.959 . S
H1557 C1571 0.929 . S
H1558 C1572 0.931 . S
H1559 C1574 0.930 . S
C1560 H1548 0.930 . S
C1560 C1561 1.399 . S
C1560 C1565 1.399 . S
C1561 C1560 1.399 . S
C1561 C1562 1.376 . S
C1562 H1549 0.930 . S
C1562 C1561 1.376 . S
C1562 C1563 1.388 . S
C1563 H1550 0.930 . S
C1563 C1562 1.388 . S
C1563 C1564 1.390 . S
C1564 C1563 1.390 . S
C1564 C1565 1.394 . S
C1564 C1570 1.465 . S
C1565 C1560 1.399 . S
C1565 C1564 1.394 . S
C1565 C1566 1.516 . S
C1566 C1565 1.516 . S
C1566 C1567 1.502 . S
C1566 C1568 1.561 . S
C1566 C1569 1.526 . S
C1567 H1551 0.959 . S
C1567 H1552 0.959 . S
C1567 H1553 0.961 . S
C1567 C1566 1.502 . S
C1568 H1554 0.960 . S
C1568 H1555 0.961 . S
C1568 H1556 0.959 . S
C1568 C1566 1.561 . S
C1569 C1566 1.526 . S
C1569 C1570 1.396 . S
C1569 C1574 1.390 . S
C1570 C1564 1.465 . S
C1570 C1569 1.396 . S
C1570 C1571 1.399 . S
C1571 H1557 0.929 . S
C1571 C1570 1.399 . S
C1571 C1572 1.385 . S
C1572 H1558 0.931 . S
C1572 C1571 1.385 . S
C1572 C1573 1.389 . S
C1573 C1572 1.389 . S
C1573 C1574 1.387 . S
C1574 H1559 0.930 . S
C1574 C1569 1.390 . S
C1574 C1573 1.387 . S
H1575 C1587 0.930 . S
H1576 C1589 0.930 . S
H1577 C1590 0.930 . S
H1578 C1594 0.959 . S
H1579 C1594 0.959 . S
H1580 C1594 0.961 . S
H1581 C1595 0.960 . S
H1582 C1595 0.961 . S
H1583 C1595 0.959 . S
H1584 C1598 0.929 . S
H1585 C1599 0.931 . S
H1586 C1601 0.930 . S
C1587 H1575 0.930 . S
C1587 C1588 1.399 . S
C1587 C1592 1.399 . S
C1588 C1587 1.399 . S
C1588 C1589 1.376 . S
C1589 H1576 0.930 . S
C1589 C1588 1.376 . S
C1589 C1590 1.388 . S
C1590 H1577 0.930 . S
C1590 C1589 1.388 . S
C1590 C1591 1.390 . S
C1591 C1590 1.390 . S
C1591 C1592 1.394 . S
C1591 C1597 1.465 . S
C1592 C1587 1.399 . S
C1592 C1591 1.394 . S
C1592 C1593 1.516 . S
C1593 C1592 1.516 . S
C1593 C1594 1.502 . S
C1593 C1595 1.561 . S
C1593 C1596 1.526 . S
C1594 H1578 0.959 . S
C1594 H1579 0.959 . S
C1594 H1580 0.961 . S
C1594 C1593 1.502 . S
C1595 H1581 0.960 . S
C1595 H1582 0.961 . S
C1595 H1583 0.959 . S
C1595 C1593 1.561 . S
C1596 C1593 1.526 . S
C1596 C1597 1.396 . S
C1596 C1601 1.390 . S
C1597 C1591 1.465 . S
C1597 C1596 1.396 . S
C1597 C1598 1.399 . S
C1598 H1584 0.929 . S
C1598 C1597 1.399 . S
C1598 C1599 1.385 . S
C1599 H1585 0.931 . S
C1599 C1598 1.385 . S
C1599 C1600 1.389 . S
C1600 C1599 1.389 . S
C1600 C1601 1.387 . S
C1601 H1586 0.930 . S
C1601 C1596 1.390 . S
C1601 C1600 1.387 . S
H1602 C1614 0.930 . S
H1603 C1616 0.930 . S
H1604 C1617 0.930 . S
H1605 C1621 0.959 . S
H1606 C1621 0.959 . S
H1607 C1621 0.961 . S
H1608 C1622 0.960 . S
H1609 C1622 0.961 . S
H1610 C1622 0.959 . S
H1611 C1625 0.929 . S
H1612 C1626 0.931 . S
H1613 C1628 0.930 . S
C1614 H1602 0.930 . S
C1614 C1615 1.399 . S
C1614 C1619 1.399 . S
C1615 C1614 1.399 . S
C1615 C1616 1.376 . S
C1616 H1603 0.930 . S
C1616 C1615 1.376 . S
C1616 C1617 1.388 . S
C1617 H1604 0.930 . S
C1617 C1616 1.388 . S
C1617 C1618 1.390 . S
C1618 C1617 1.390 . S
C1618 C1619 1.394 . S
C1618 C1624 1.465 . S
C1619 C1614 1.399 . S
C1619 C1618 1.394 . S
C1619 C1620 1.516 . S
C1620 C1619 1.516 . S
C1620 C1621 1.502 . S
C1620 C1622 1.561 . S
C1620 C1623 1.526 . S
C1621 H1605 0.959 . S
C1621 H1606 0.959 . S
C1621 H1607 0.961 . S
C1621 C1620 1.502 . S
C1622 H1608 0.960 . S
C1622 H1609 0.961 . S
C1622 H1610 0.959 . S
C1622 C1620 1.561 . S
C1623 C1620 1.526 . S
C1623 C1624 1.396 . S
C1623 C1628 1.390 . S
C1624 C1618 1.465 . S
C1624 C1623 1.396 . S
C1624 C1625 1.399 . S
C1625 H1611 0.929 . S
C1625 C1624 1.399 . S
C1625 C1626 1.385 . S
C1626 H1612 0.931 . S
C1626 C1625 1.385 . S
C1626 C1627 1.389 . S
C1627 C1626 1.389 . S
C1627 C1628 1.387 . S
C1628 H1613 0.930 . S
C1628 C1623 1.390 . S
C1628 C1627 1.387 . S
H1629 C1641 0.930 . S
H1630 C1643 0.930 . S
H1631 C1644 0.930 . S
H1632 C1648 0.959 . S
H1633 C1648 0.959 . S
H1634 C1648 0.961 . S
H1635 C1649 0.960 . S
H1636 C1649 0.961 . S
H1637 C1649 0.959 . S
H1638 C1652 0.929 . S
H1639 C1653 0.931 . S
H1640 C1655 0.930 . S
C1641 H1629 0.930 . S
C1641 C1642 1.399 . S
C1641 C1646 1.399 . S
C1642 C1641 1.399 . S
C1642 C1643 1.376 . S
C1643 H1630 0.930 . S
C1643 C1642 1.376 . S
C1643 C1644 1.388 . S
C1644 H1631 0.930 . S
C1644 C1643 1.388 . S
C1644 C1645 1.390 . S
C1645 C1644 1.390 . S
C1645 C1646 1.394 . S
C1645 C1651 1.465 . S
C1646 C1641 1.399 . S
C1646 C1645 1.394 . S
C1646 C1647 1.516 . S
C1647 C1646 1.516 . S
C1647 C1648 1.502 . S
C1647 C1649 1.561 . S
C1647 C1650 1.526 . S
C1648 H1632 0.959 . S
C1648 H1633 0.959 . S
C1648 H1634 0.961 . S
C1648 C1647 1.502 . S
C1649 H1635 0.960 . S
C1649 H1636 0.961 . S
C1649 H1637 0.959 . S
C1649 C1647 1.561 . S
C1650 C1647 1.526 . S
C1650 C1651 1.396 . S
C1650 C1655 1.390 . S
C1651 C1645 1.465 . S
C1651 C1650 1.396 . S
C1651 C1652 1.399 . S
C1652 H1638 0.929 . S
C1652 C1651 1.399 . S
C1652 C1653 1.385 . S
C1653 H1639 0.931 . S
C1653 C1652 1.385 . S
C1653 C1654 1.389 . S
C1654 C1653 1.389 . S
C1654 C1655 1.387 . S
C1655 H1640 0.930 . S
C1655 C1650 1.390 . S
C1655 C1654 1.387 . S
H1656 C1668 0.930 . S
H1657 C1670 0.930 . S
H1658 C1671 0.930 . S
H1659 C1675 0.959 . S
H1660 C1675 0.959 . S
H1661 C1675 0.961 . S
H1662 C1676 0.960 . S
H1663 C1676 0.961 . S
H1664 C1676 0.959 . S
H1665 C1679 0.929 . S
H1666 C1680 0.931 . S
H1667 C1682 0.930 . S
C1668 H1656 0.930 . S
C1668 C1669 1.399 . S
C1668 C1673 1.399 . S
C1669 C1668 1.399 . S
C1669 C1670 1.376 . S
C1670 H1657 0.930 . S
C1670 C1669 1.376 . S
C1670 C1671 1.388 . S
C1671 H1658 0.930 . S
C1671 C1670 1.388 . S
C1671 C1672 1.390 . S
C1672 C1671 1.390 . S
C1672 C1673 1.394 . S
C1672 C1678 1.465 . S
C1673 C1668 1.399 . S
C1673 C1672 1.394 . S
C1673 C1674 1.516 . S
C1674 C1673 1.516 . S
C1674 C1675 1.502 . S
C1674 C1676 1.561 . S
C1674 C1677 1.526 . S
C1675 H1659 0.959 . S
C1675 H1660 0.959 . S
C1675 H1661 0.961 . S
C1675 C1674 1.502 . S
C1676 H1662 0.960 . S
C1676 H1663 0.961 . S
C1676 H1664 0.959 . S
C1676 C1674 1.561 . S
C1677 C1674 1.526 . S
C1677 C1678 1.396 . S
C1677 C1682 1.390 . S
C1678 C1672 1.465 . S
C1678 C1677 1.396 . S
C1678 C1679 1.399 . S
C1679 H1665 0.929 . S
C1679 C1678 1.399 . S
C1679 C1680 1.385 . S
C1680 H1666 0.931 . S
C1680 C1679 1.385 . S
C1680 C1681 1.389 . S
C1681 C1680 1.389 . S
C1681 C1682 1.387 . S
C1682 H1667 0.930 . S
C1682 C1677 1.390 . S
C1682 C1681 1.387 . S
H1683 C1695 0.930 . S
H1684 C1697 0.930 . S
H1685 C1698 0.930 . S
H1686 C1702 0.959 . S
H1687 C1702 0.959 . S
H1688 C1702 0.961 . S
H1689 C1703 0.960 . S
H1690 C1703 0.961 . S
H1691 C1703 0.959 . S
H1692 C1706 0.929 . S
H1693 C1707 0.931 . S
H1694 C1709 0.930 . S
C1695 H1683 0.930 . S
C1695 C1696 1.399 . S
C1695 C1700 1.399 . S
C1696 C1695 1.399 . S
C1696 C1697 1.376 . S
C1697 H1684 0.930 . S
C1697 C1696 1.376 . S
C1697 C1698 1.388 . S
C1698 H1685 0.930 . S
C1698 C1697 1.388 . S
C1698 C1699 1.390 . S
C1699 C1698 1.390 . S
C1699 C1700 1.394 . S
C1699 C1705 1.465 . S
C1700 C1695 1.399 . S
C1700 C1699 1.394 . S
C1700 C1701 1.516 . S
C1701 C1700 1.516 . S
C1701 C1702 1.502 . S
C1701 C1703 1.561 . S
C1701 C1704 1.526 . S
C1702 H1686 0.959 . S
C1702 H1687 0.959 . S
C1702 H1688 0.961 . S
C1702 C1701 1.502 . S
C1703 H1689 0.960 . S
C1703 H1690 0.961 . S
C1703 H1691 0.959 . S
C1703 C1701 1.561 . S
C1704 C1701 1.526 . S
C1704 C1705 1.396 . S
C1704 C1709 1.390 . S
C1705 C1699 1.465 . S
C1705 C1704 1.396 . S
C1705 C1706 1.399 . S
C1706 H1692 0.929 . S
C1706 C1705 1.399 . S
C1706 C1707 1.385 . S
C1707 H1693 0.931 . S
C1707 C1706 1.385 . S
C1707 C1708 1.389 . S
C1708 C1707 1.389 . S
C1708 C1709 1.387 . S
C1709 H1694 0.930 . S
C1709 C1704 1.390 . S
C1709 C1708 1.387 . S
H1710 C1722 0.930 . S
H1711 C1724 0.930 . S
H1712 C1725 0.930 . S
H1713 C1729 0.959 . S
H1714 C1729 0.959 . S
H1715 C1729 0.961 . S
H1716 C1730 0.960 . S
H1717 C1730 0.961 . S
H1718 C1730 0.959 . S
H1719 C1733 0.929 . S
H1720 C1734 0.931 . S
H1721 C1736 0.930 . S
C1722 H1710 0.930 . S
C1722 C1723 1.399 . S
C1722 C1727 1.399 . S
C1723 C1722 1.399 . S
C1723 C1724 1.376 . S
C1724 H1711 0.930 . S
C1724 C1723 1.376 . S
C1724 C1725 1.388 . S
C1725 H1712 0.930 . S
C1725 C1724 1.388 . S
C1725 C1726 1.390 . S
C1726 C1725 1.390 . S
C1726 C1727 1.394 . S
C1726 C1732 1.465 . S
C1727 C1722 1.399 . S
C1727 C1726 1.394 . S
C1727 C1728 1.516 . S
C1728 C1727 1.516 . S
C1728 C1729 1.502 . S
C1728 C1730 1.561 . S
C1728 C1731 1.526 . S
C1729 H1713 0.959 . S
C1729 H1714 0.959 . S
C1729 H1715 0.961 . S
C1729 C1728 1.502 . S
C1730 H1716 0.960 . S
C1730 H1717 0.961 . S
C1730 H1718 0.959 . S
C1730 C1728 1.561 . S
C1731 C1728 1.526 . S
C1731 C1732 1.396 . S
C1731 C1736 1.390 . S
C1732 C1726 1.465 . S
C1732 C1731 1.396 . S
C1732 C1733 1.399 . S
C1733 H1719 0.929 . S
C1733 C1732 1.399 . S
C1733 C1734 1.385 . S
C1734 H1720 0.931 . S
C1734 C1733 1.385 . S
C1734 C1735 1.389 . S
C1735 C1734 1.389 . S
C1735 C1736 1.387 . S
C1736 H1721 0.930 . S
C1736 C1731 1.390 . S
C1736 C1735 1.387 . S
H1737 C1749 0.930 . S
H1738 C1751 0.930 . S
H1739 C1752 0.930 . S
H1740 C1756 0.959 . S
H1741 C1756 0.959 . S
H1742 C1756 0.961 . S
H1743 C1757 0.960 . S
H1744 C1757 0.961 . S
H1745 C1757 0.959 . S
H1746 C1760 0.929 . S
H1747 C1761 0.931 . S
H1748 C1763 0.930 . S
C1749 H1737 0.930 . S
C1749 C1750 1.399 . S
C1749 C1754 1.399 . S
C1750 C1749 1.399 . S
C1750 C1751 1.376 . S
C1751 H1738 0.930 . S
C1751 C1750 1.376 . S
C1751 C1752 1.388 . S
C1752 H1739 0.930 . S
C1752 C1751 1.388 . S
C1752 C1753 1.390 . S
C1753 C1752 1.390 . S
C1753 C1754 1.394 . S
C1753 C1759 1.465 . S
C1754 C1749 1.399 . S
C1754 C1753 1.394 . S
C1754 C1755 1.516 . S
C1755 C1754 1.516 . S
C1755 C1756 1.502 . S
C1755 C1757 1.561 . S
C1755 C1758 1.526 . S
C1756 H1740 0.959 . S
C1756 H1741 0.959 . S
C1756 H1742 0.961 . S
C1756 C1755 1.502 . S
C1757 H1743 0.960 . S
C1757 H1744 0.961 . S
C1757 H1745 0.959 . S
C1757 C1755 1.561 . S
C1758 C1755 1.526 . S
C1758 C1759 1.396 . S
C1758 C1763 1.390 . S
C1759 C1753 1.465 . S
C1759 C1758 1.396 . S
C1759 C1760 1.399 . S
C1760 H1746 0.929 . S
C1760 C1759 1.399 . S
C1760 C1761 1.385 . S
C1761 H1747 0.931 . S
C1761 C1760 1.385 . S
C1761 C1762 1.389 . S
C1762 C1761 1.389 . S
C1762 C1763 1.387 . S
C1763 H1748 0.930 . S
C1763 C1758 1.390 . S
C1763 C1762 1.387 . S
H1764 C1776 0.930 . S
H1765 C1778 0.930 . S
H1766 C1779 0.930 . S
H1767 C1783 0.959 . S
H1768 C1783 0.959 . S
H1769 C1783 0.961 . S
H1770 C1784 0.960 . S
H1771 C1784 0.961 . S
H1772 C1784 0.959 . S
H1773 C1787 0.929 . S
H1774 C1788 0.931 . S
H1775 C1790 0.930 . S
C1776 H1764 0.930 . S
C1776 C1777 1.399 . S
C1776 C1781 1.399 . S
C1777 C1776 1.399 . S
C1777 C1778 1.376 . S
C1778 H1765 0.930 . S
C1778 C1777 1.376 . S
C1778 C1779 1.388 . S
C1779 H1766 0.930 . S
C1779 C1778 1.388 . S
C1779 C1780 1.390 . S
C1780 C1779 1.390 . S
C1780 C1781 1.394 . S
C1780 C1786 1.465 . S
C1781 C1776 1.399 . S
C1781 C1780 1.394 . S
C1781 C1782 1.516 . S
C1782 C1781 1.516 . S
C1782 C1783 1.502 . S
C1782 C1784 1.561 . S
C1782 C1785 1.526 . S
C1783 H1767 0.959 . S
C1783 H1768 0.959 . S
C1783 H1769 0.961 . S
C1783 C1782 1.502 . S
C1784 H1770 0.960 . S
C1784 H1771 0.961 . S
C1784 H1772 0.959 . S
C1784 C1782 1.561 . S
C1785 C1782 1.526 . S
C1785 C1786 1.396 . S
C1785 C1790 1.390 . S
C1786 C1780 1.465 . S
C1786 C1785 1.396 . S
C1786 C1787 1.399 . S
C1787 H1773 0.929 . S
C1787 C1786 1.399 . S
C1787 C1788 1.385 . S
C1788 H1774 0.931 . S
C1788 C1787 1.385 . S
C1788 C1789 1.389 . S
C1789 C1788 1.389 . S
C1789 C1790 1.387 . S
C1790 H1775 0.930 . S
C1790 C1785 1.390 . S
C1790 C1789 1.387 . S
H1791 C1803 0.930 . S
H1792 C1805 0.930 . S
H1793 C1806 0.930 . S
H1794 C1810 0.959 . S
H1795 C1810 0.959 . S
H1796 C1810 0.961 . S
H1797 C1811 0.960 . S
H1798 C1811 0.961 . S
H1799 C1811 0.959 . S
H1800 C1814 0.929 . S
H1801 C1815 0.931 . S
H1802 C1817 0.930 . S
C1803 H1791 0.930 . S
C1803 C1804 1.399 . S
C1803 C1808 1.399 . S
C1804 C1803 1.399 . S
C1804 C1805 1.376 . S
C1805 H1792 0.930 . S
C1805 C1804 1.376 . S
C1805 C1806 1.388 . S
C1806 H1793 0.930 . S
C1806 C1805 1.388 . S
C1806 C1807 1.390 . S
C1807 C1806 1.390 . S
C1807 C1808 1.394 . S
C1807 C1813 1.465 . S
C1808 C1803 1.399 . S
C1808 C1807 1.394 . S
C1808 C1809 1.516 . S
C1809 C1808 1.516 . S
C1809 C1810 1.502 . S
C1809 C1811 1.561 . S
C1809 C1812 1.526 . S
C1810 H1794 0.959 . S
C1810 H1795 0.959 . S
C1810 H1796 0.961 . S
C1810 C1809 1.502 . S
C1811 H1797 0.960 . S
C1811 H1798 0.961 . S
C1811 H1799 0.959 . S
C1811 C1809 1.561 . S
C1812 C1809 1.526 . S
C1812 C1813 1.396 . S
C1812 C1817 1.390 . S
C1813 C1807 1.465 . S
C1813 C1812 1.396 . S
C1813 C1814 1.399 . S
C1814 H1800 0.929 . S
C1814 C1813 1.399 . S
C1814 C1815 1.385 . S
C1815 H1801 0.931 . S
C1815 C1814 1.385 . S
C1815 C1816 1.389 . S
C1816 C1815 1.389 . S
C1816 C1817 1.387 . S
C1817 H1802 0.930 . S
C1817 C1812 1.390 . S
C1817 C1816 1.387 . S
H1818 C1830 0.930 . S
H1819 C1832 0.930 . S
H1820 C1833 0.930 . S
H1821 C1837 0.959 . S
H1822 C1837 0.959 . S
H1823 C1837 0.961 . S
H1824 C1838 0.960 . S
H1825 C1838 0.961 . S
H1826 C1838 0.959 . S
H1827 C1841 0.929 . S
H1828 C1842 0.931 . S
H1829 C1844 0.930 . S
C1830 H1818 0.930 . S
C1830 C1831 1.399 . S
C1830 C1835 1.399 . S
C1831 C1830 1.399 . S
C1831 C1832 1.376 . S
C1832 H1819 0.930 . S
C1832 C1831 1.376 . S
C1832 C1833 1.388 . S
C1833 H1820 0.930 . S
C1833 C1832 1.388 . S
C1833 C1834 1.390 . S
C1834 C1833 1.390 . S
C1834 C1835 1.394 . S
C1834 C1840 1.465 . S
C1835 C1830 1.399 . S
C1835 C1834 1.394 . S
C1835 C1836 1.516 . S
C1836 C1835 1.516 . S
C1836 C1837 1.502 . S
C1836 C1838 1.561 . S
C1836 C1839 1.526 . S
C1837 H1821 0.959 . S
C1837 H1822 0.959 . S
C1837 H1823 0.961 . S
C1837 C1836 1.502 . S
C1838 H1824 0.960 . S
C1838 H1825 0.961 . S
C1838 H1826 0.959 . S
C1838 C1836 1.561 . S
C1839 C1836 1.526 . S
C1839 C1840 1.396 . S
C1839 C1844 1.390 . S
C1840 C1834 1.465 . S
C1840 C1839 1.396 . S
C1840 C1841 1.399 . S
C1841 H1827 0.929 . S
C1841 C1840 1.399 . S
C1841 C1842 1.385 . S
C1842 H1828 0.931 . S
C1842 C1841 1.385 . S
C1842 C1843 1.389 . S
C1843 C1842 1.389 . S
C1843 C1844 1.387 . S
C1844 H1829 0.930 . S
C1844 C1839 1.390 . S
C1844 C1843 1.387 . S
H1845 C1857 0.930 . S
H1846 C1859 0.930 . S
H1847 C1860 0.930 . S
H1848 C1864 0.959 . S
H1849 C1864 0.959 . S
H1850 C1864 0.961 . S
H1851 C1865 0.960 . S
H1852 C1865 0.961 . S
H1853 C1865 0.959 . S
H1854 C1868 0.929 . S
H1855 C1869 0.931 . S
H1856 C1871 0.930 . S
C1857 H1845 0.930 . S
C1857 C1858 1.399 . S
C1857 C1862 1.399 . S
C1858 C1857 1.399 . S
C1858 C1859 1.376 . S
C1859 H1846 0.930 . S
C1859 C1858 1.376 . S
C1859 C1860 1.388 . S
C1860 H1847 0.930 . S
C1860 C1859 1.388 . S
C1860 C1861 1.390 . S
C1861 C1860 1.390 . S
C1861 C1862 1.394 . S
C1861 C1867 1.465 . S
C1862 C1857 1.399 . S
C1862 C1861 1.394 . S
C1862 C1863 1.516 . S
C1863 C1862 1.516 . S
C1863 C1864 1.502 . S
C1863 C1865 1.561 . S
C1863 C1866 1.526 . S
C1864 H1848 0.959 . S
C1864 H1849 0.959 . S
C1864 H1850 0.961 . S
C1864 C1863 1.502 . S
C1865 H1851 0.960 . S
C1865 H1852 0.961 . S
C1865 H1853 0.959 . S
C1865 C1863 1.561 . S
C1866 C1863 1.526 . S
C1866 C1867 1.396 . S
C1866 C1871 1.390 . S
C1867 C1861 1.465 . S
C1867 C1866 1.396 . S
C1867 C1868 1.399 . S
C1868 H1854 0.929 . S
C1868 C1867 1.399 . S
C1868 C1869 1.385 . S
C1869 H1855 0.931 . S
C1869 C1868 1.385 . S
C1869 C1870 1.389 . S
C1870 C1869 1.389 . S
C1870 C1871 1.387 . S
C1871 H1856 0.930 . S
C1871 C1866 1.390 . S
C1871 C1870 1.387 . S
C427 C317 1.535 . S
C439 C18 1.563 . S
C454 C43 1.518 . S
C466 C342 1.522 . S
C481 C64 1.491 . S
C493 C296 1.576 . S
C508 C66 1.516 . S
C520 C181 1.508 . S
C535 C204 1.502 . S
C547 C20 1.512 . S
C562 C41 1.548 . S
C574 C158 1.564 . S
C589 C87 1.470 . S
C601 C249 1.482 . S
C616 C111 1.470 . S
C628 C272 1.451 . S
C643 C226 1.460 . S
C655 C133 1.484 . S
C670 C387 1.477 . S
C682 C134 1.455 . S
C697 C88 1.468 . S
C709 C409 1.478 . S
C724 C363 1.491 . S
C736 C110 1.484 . S
C751 C202 1.484 . S
C763 C319 1.580 . S
C778 C156 1.608 . S
C790 C340 1.574 . S
C805 C179 1.607 . S
C817 C294 1.583 . S
C832 C225 1.486 . S
C844 C386 1.495 . S
C859 C410 1.452 . S
C871 C248 1.486 . S
C886 C364 1.470 . S
C898 C271 1.476 . S
C913 C19 1.378 . S
C925 C112 1.388 . S
C940 C136 1.403 . S
C952 C44 1.413 . S
C967 C90 1.409 . S
C979 C65 1.415 . S
C994 C113 1.420 . S
C1006 C67 1.430 . S
C1021 C135 1.402 . S
C1033 C21 1.389 . S
C1048 C89 1.433 . S
C1060 C42 1.370 . S
C1075 C251 1.356 . S
C1087 C159 1.396 . S
C1102 C274 1.373 . S
C1114 C182 1.413 . S
C1129 C228 1.418 . S
C1141 C205 1.428 . S
C1156 C250 1.437 . S
C1168 C203 1.422 . S
C1183 C273 1.435 . S
C1195 C157 1.421 . S
C1210 C227 1.385 . S
C1222 C180 1.343 . S
C1237 C388 1.405 . S
C1249 C295 1.349 . S
C1264 C412 1.330 . S
C1276 C320 1.373 . S
C1291 C341 1.388 . S
C1303 C366 1.398 . S
C1318 C343 1.405 . S
C1330 C389 1.367 . S
C1345 C297 1.384 . S
C1357 C411 1.393 . S
C1372 C365 1.416 . S
C1384 C318 1.387 . S
C1399 C16 1.355 . S
C1411 C17 1.371 . S
C1426 C40 1.343 . S
C1438 C39 1.386 . S
C1453 C62 1.346 . S
C1465 C63 1.385 . S
C1480 C85 1.347 . S
C1492 C86 1.384 . S
C1507 C108 1.366 . S
C1519 C109 1.379 . S
C1534 C132 1.361 . S
C1546 C131 1.383 . S
C1561 C154 1.339 . S
C1573 C155 1.391 . S
C1588 C178 1.344 . S
C1600 C177 1.385 . S
C1615 C200 1.350 . S
C1627 C201 1.381 . S
C1642 C223 1.348 . S
C1654 C224 1.390 . S
C1669 C246 1.361 . S
C1681 C247 1.369 . S
C1696 C269 1.353 . S
C1708 C270 1.385 . S
C1723 C293 1.345 . S
C1735 C292 1.386 . S
C1750 C316 1.388 . S
C1762 C315 1.345 . S
C1777 C338 1.379 . S
C1789 C339 1.350 . S
C1804 C362 1.377 . S
C1816 C361 1.372 . S
C1831 C384 1.347 . S
C1843 C385 1.385 . S
C1858 C407 1.356 . S
C1870 C408 1.386 . S
