# Generated by pormake.
# Topology nfa, (4)-cn, num edge types: 1
# Building blocks:
#     Node 0, Type 0, BuildingBlock: NAWXER_clean_sbu_0, # of connection points: 4
#     Node 1, Type 0, BuildingBlock: NAWXER_clean_sbu_0, # of connection points: 4
#     Node 2, Type 0, BuildingBlock: NAWXER_clean_sbu_0, # of connection points: 4
#     Node 3, Type 0, BuildingBlock: NAWXER_clean_sbu_0, # of connection points: 4
#     Node 4, Type 0, BuildingBlock: NAWXER_clean_sbu_0, # of connection points: 4
#     Node 5, Type 0, BuildingBlock: NAWXER_clean_sbu_0, # of connection points: 4
#     Node 6, Type 0, BuildingBlock: NAWXER_clean_sbu_0, # of connection points: 4
#     Node 7, Type 0, BuildingBlock: NAWXER_clean_sbu_0, # of connection points: 4
#     Node 8, Type 0, BuildingBlock: NAWXER_clean_sbu_0, # of connection points: 4
#     Node 9, Type 0, BuildingBlock: NAWXER_clean_sbu_0, # of connection points: 4
#     Node 10, Type 0, BuildingBlock: NAWXER_clean_sbu_0, # of connection points: 4
#     Node 11, Type 0, BuildingBlock: NAWXER_clean_sbu_0, # of connection points: 4
#     Node 12, Type 0, BuildingBlock: NAWXER_clean_sbu_0, # of connection points: 4
#     Node 13, Type 0, BuildingBlock: NAWXER_clean_sbu_0, # of connection points: 4
#     Node 14, Type 0, BuildingBlock: NAWXER_clean_sbu_0, # of connection points: 4
#     Node 15, Type 0, BuildingBlock: NAWXER_clean_sbu_0, # of connection points: 4
#     Node 16, Type 0, BuildingBlock: NAWXER_clean_sbu_0, # of connection points: 4
#     Node 17, Type 0, BuildingBlock: NAWXER_clean_sbu_0, # of connection points: 4
#     Node 18, Type 0, BuildingBlock: NAWXER_clean_sbu_0, # of connection points: 4
#     Node 19, Type 0, BuildingBlock: NAWXER_clean_sbu_0, # of connection points: 4
#     Node 20, Type 0, BuildingBlock: NAWXER_clean_sbu_0, # of connection points: 4
#     Node 21, Type 0, BuildingBlock: NAWXER_clean_sbu_0, # of connection points: 4
#     Node 22, Type 0, BuildingBlock: NAWXER_clean_sbu_0, # of connection points: 4
#     Node 23, Type 0, BuildingBlock: NAWXER_clean_sbu_0, # of connection points: 4
#     Edge 24, Type (0, 0), BuildingBlock: OJICUG_clean_linker_0, # of connection points: 2
#     Edge 25, Type (0, 0), BuildingBlock: OJICUG_clean_linker_0, # of connection points: 2
#     Edge 26, Type (0, 0), BuildingBlock: OJICUG_clean_linker_0, # of connection points: 2
#     Edge 27, Type (0, 0), BuildingBlock: OJICUG_clean_linker_0, # of connection points: 2
#     Edge 28, Type (0, 0), BuildingBlock: OJICUG_clean_linker_0, # of connection points: 2
#     Edge 29, Type (0, 0), BuildingBlock: OJICUG_clean_linker_0, # of connection points: 2
#     Edge 30, Type (0, 0), BuildingBlock: OJICUG_clean_linker_0, # of connection points: 2
#     Edge 31, Type (0, 0), BuildingBlock: OJICUG_clean_linker_0, # of connection points: 2
#     Edge 32, Type (0, 0), BuildingBlock: OJICUG_clean_linker_0, # of connection points: 2
#     Edge 33, Type (0, 0), BuildingBlock: OJICUG_clean_linker_0, # of connection points: 2
#     Edge 34, Type (0, 0), BuildingBlock: OJICUG_clean_linker_0, # of connection points: 2
#     Edge 35, Type (0, 0), BuildingBlock: OJICUG_clean_linker_0, # of connection points: 2
#     Edge 36, Type (0, 0), BuildingBlock: OJICUG_clean_linker_0, # of connection points: 2
#     Edge 37, Type (0, 0), BuildingBlock: OJICUG_clean_linker_0, # of connection points: 2
#     Edge 38, Type (0, 0), BuildingBlock: OJICUG_clean_linker_0, # of connection points: 2
#     Edge 39, Type (0, 0), BuildingBlock: OJICUG_clean_linker_0, # of connection points: 2
#     Edge 40, Type (0, 0), BuildingBlock: OJICUG_clean_linker_0, # of connection points: 2
#     Edge 41, Type (0, 0), BuildingBlock: OJICUG_clean_linker_0, # of connection points: 2
#     Edge 42, Type (0, 0), BuildingBlock: OJICUG_clean_linker_0, # of connection points: 2
#     Edge 43, Type (0, 0), BuildingBlock: OJICUG_clean_linker_0, # of connection points: 2
#     Edge 44, Type (0, 0), BuildingBlock: OJICUG_clean_linker_0, # of connection points: 2
#     Edge 45, Type (0, 0), BuildingBlock: OJICUG_clean_linker_0, # of connection points: 2
#     Edge 46, Type (0, 0), BuildingBlock: OJICUG_clean_linker_0, # of connection points: 2
#     Edge 47, Type (0, 0), BuildingBlock: OJICUG_clean_linker_0, # of connection points: 2
#     Edge 48, Type (0, 0), BuildingBlock: OJICUG_clean_linker_0, # of connection points: 2
#     Edge 49, Type (0, 0), BuildingBlock: OJICUG_clean_linker_0, # of connection points: 2
#     Edge 50, Type (0, 0), BuildingBlock: OJICUG_clean_linker_0, # of connection points: 2
#     Edge 51, Type (0, 0), BuildingBlock: OJICUG_clean_linker_0, # of connection points: 2
#     Edge 52, Type (0, 0), BuildingBlock: OJICUG_clean_linker_0, # of connection points: 2
#     Edge 53, Type (0, 0), BuildingBlock: OJICUG_clean_linker_0, # of connection points: 2
#     Edge 54, Type (0, 0), BuildingBlock: OJICUG_clean_linker_0, # of connection points: 2
#     Edge 55, Type (0, 0), BuildingBlock: OJICUG_clean_linker_0, # of connection points: 2
#     Edge 56, Type (0, 0), BuildingBlock: OJICUG_clean_linker_0, # of connection points: 2
#     Edge 57, Type (0, 0), BuildingBlock: OJICUG_clean_linker_0, # of connection points: 2
#     Edge 58, Type (0, 0), BuildingBlock: OJICUG_clean_linker_0, # of connection points: 2
#     Edge 59, Type (0, 0), BuildingBlock: OJICUG_clean_linker_0, # of connection points: 2
#     Edge 60, Type (0, 0), BuildingBlock: OJICUG_clean_linker_0, # of connection points: 2
#     Edge 61, Type (0, 0), BuildingBlock: OJICUG_clean_linker_0, # of connection points: 2
#     Edge 62, Type (0, 0), BuildingBlock: OJICUG_clean_linker_0, # of connection points: 2
#     Edge 63, Type (0, 0), BuildingBlock: OJICUG_clean_linker_0, # of connection points: 2
#     Edge 64, Type (0, 0), BuildingBlock: OJICUG_clean_linker_0, # of connection points: 2
#     Edge 65, Type (0, 0), BuildingBlock: OJICUG_clean_linker_0, # of connection points: 2
#     Edge 66, Type (0, 0), BuildingBlock: OJICUG_clean_linker_0, # of connection points: 2
#     Edge 67, Type (0, 0), BuildingBlock: OJICUG_clean_linker_0, # of connection points: 2
#     Edge 68, Type (0, 0), BuildingBlock: OJICUG_clean_linker_0, # of connection points: 2
#     Edge 69, Type (0, 0), BuildingBlock: OJICUG_clean_linker_0, # of connection points: 2
#     Edge 70, Type (0, 0), BuildingBlock: OJICUG_clean_linker_0, # of connection points: 2
#     Edge 71, Type (0, 0), BuildingBlock: OJICUG_clean_linker_0, # of connection points: 2
# Relax obj value: 0.171
# Max RMSD: 0.184
# Mean RMSD: 0.184
data_MOF--net-nfa--node1-NAWXER_clean_sbu_0--edge1-OJICUG_clean_linker_0
_symmetry_space_group_name_H-M    P1
_symmetry_Int_Tables_number       1
_symmetry_cell_setting            triclinic
loop_
_symmetry_equiv_pos_as_xyz
'x, y, z'
_cell_length_a     29.109309
_cell_length_b     29.070507
_cell_length_c     28.959328
_cell_angle_alpha  89.790434
_cell_angle_beta   90.158936
_cell_angle_gamma 89.928161
loop_
_atom_site_label
_atom_site_type_symbol
_atom_site_fract_x
_atom_site_fract_y
_atom_site_fract_z
_atom_type_partial_charge
C0 C 0.13829 0.36457 0.48455 0.0
C1 C 0.10989 0.45146 0.34236 0.0
O2 O 0.11385 0.40058 0.48008 0.0
Zn3 Zn 0.12385 0.41051 0.41452 0.0
O4 O 0.15913 0.34794 0.44945 0.0
Zn5 Zn 0.16507 0.36181 0.37729 0.0
O6 O 0.22943 0.37415 0.3669 0.0
O7 O 0.19437 0.42791 0.4078 0.0
O8 O 0.13473 0.41554 0.33685 0.0
O9 O 0.0961 0.4625 0.38254 0.0
O10 O 0.08746 0.35466 0.38448 0.0
O11 O 0.13689 0.30798 0.35041 0.0
C12 C 0.23053 0.41221 0.38832 0.0
C13 C 0.09581 0.3183 0.36114 0.0
C14 C 0.9306 0.84314 0.55542 0.0
C15 C 0.81045 0.95028 0.59673 0.0
O16 O 0.93206 0.88669 0.5522 0.0
Zn17 Zn 0.87295 0.89785 0.58007 0.0
O18 O 0.89599 0.82335 0.57419 0.0
Zn19 Zn 0.83292 0.84261 0.60658 0.0
O20 O 0.78746 0.81146 0.56931 0.0
O21 O 0.82499 0.86636 0.53199 0.0
O22 O 0.80089 0.9088 0.60829 0.0
O23 O 0.85013 0.96014 0.58146 0.0
O24 O 0.88666 0.88202 0.65105 0.0
O25 O 0.84268 0.82353 0.67059 0.0
C26 C 0.79417 0.83479 0.53266 0.0
C27 C 0.87343 0.8526 0.68123 0.0
C28 C 0.41368 0.61956 0.93709 0.0
C29 C 0.43284 0.55006 0.78226 0.0
O30 O 0.44598 0.59216 0.92589 0.0
Zn31 Zn 0.42766 0.58318 0.86072 0.0
O32 O 0.38355 0.63106 0.90707 0.0
Zn33 Zn 0.36753 0.62113 0.83664 0.0
O34 O 0.3074 0.59048 0.8407 0.0
O35 O 0.36501 0.54704 0.86489 0.0
O36 O 0.39981 0.57902 0.7856 0.0
O37 O 0.45871 0.54234 0.81709 0.0
O38 O 0.44165 0.64965 0.8349 0.0
O39 O 0.37722 0.68467 0.81478 0.0
C40 C 0.32229 0.55198 0.85586 0.0
C41 C 0.42073 0.6854 0.81985 0.0
C42 C 0.60968 0.12288 0.23945 0.0
C43 C 0.71702 0.15095 0.11188 0.0
O44 O 0.64828 0.14318 0.24273 0.0
Zn45 Zn 0.66427 0.13813 0.17749 0.0
O46 O 0.59567 0.1081 0.2003 0.0
Zn47 Zn 0.61719 0.10731 0.12981 0.0
O48 O 0.62193 0.04148 0.11683 0.0
O49 O 0.67155 0.06526 0.16935 0.0
O50 O 0.67898 0.13287 0.09892 0.0
O51 O 0.72348 0.15983 0.15437 0.0
O52 O 0.61411 0.18463 0.14869 0.0
O53 O 0.56819 0.14479 0.10308 0.0
C54 C 0.65413 0.03268 0.14534 0.0
C55 C 0.57887 0.18271 0.12211 0.0
C56 C 0.22946 0.61323 0.12582 0.0
C57 C 0.0865 0.69452 0.15662 0.0
O58 O 0.22384 0.6517 0.14561 0.0
Zn59 Zn 0.15818 0.65567 0.13769 0.0
O60 O 0.19461 0.59192 0.10906 0.0
Zn61 Zn 0.12093 0.60231 0.10594 0.0
O62 O 0.10591 0.60533 0.041 0.0
O63 O 0.14796 0.66403 0.06417 0.0
O64 O 0.07964 0.65649 0.13538 0.0
O65 O 0.12735 0.70826 0.16355 0.0
O66 O 0.1347 0.60169 0.18323 0.0
O67 O 0.09897 0.55009 0.14042 0.0
C68 C 0.12686 0.64247 0.03183 0.0
C69 C 0.1125 0.56377 0.17981 0.0
C70 C 0.60473 0.89767 0.22966 0.0
C71 C 0.67461 0.85736 0.37675 0.0
O72 O 0.63809 0.87063 0.23775 0.0
Zn73 Zn 0.63982 0.87927 0.303 0.0
O74 O 0.58674 0.92069 0.26282 0.0
Zn75 Zn 0.59644 0.92584 0.33725 0.0
O76 O 0.61476 0.98891 0.347 0.0
O77 O 0.66687 0.94731 0.31113 0.0
O78 O 0.64305 0.88782 0.3819 0.0
O79 O 0.68336 0.84227 0.33669 0.0
O80 O 0.5731 0.85281 0.32174 0.0
O81 O 0.53667 0.90775 0.35952 0.0
C82 C 0.65417 0.98573 0.32866 0.0
C83 C 0.53712 0.86755 0.3425 0.0
C84 C 0.25111 0.40621 0.59946 0.0
C85 C 0.37391 0.29471 0.61236 0.0
O86 O 0.25351 0.3719 0.62653 0.0
Zn87 Zn 0.31467 0.35241 0.61004 0.0
O88 O 0.28557 0.4169 0.57416 0.0
Zn89 Zn 0.35379 0.39223 0.56271 0.0
O90 O 0.35334 0.37994 0.49678 0.0
O91 O 0.30968 0.33311 0.53783 0.0
O92 O 0.38425 0.32841 0.58565 0.0
O93 O 0.33699 0.29543 0.6357 0.0
O94 O 0.35863 0.40153 0.64282 0.0
O95 O 0.39344 0.44056 0.58789 0.0
C96 C 0.32674 0.34522 0.49875 0.0
C97 C 0.38664 0.43324 0.6306 0.0
C98 C 0.84962 0.14606 0.96477 0.0
C99 C 0.91175 0.12232 0.8101 0.0
O100 O 0.84574 0.17115 0.92897 0.0
Zn101 Zn 0.88267 0.13476 0.88815 0.0
O102 O 0.87561 0.11023 0.96349 0.0
Zn103 Zn 0.91691 0.07491 0.91101 0.0
O104 O 0.97996 0.07792 0.93284 0.0
O105 O 0.95184 0.14544 0.91171 0.0
O106 O 0.92491 0.09078 0.83835 0.0
O107 O 0.88606 0.15452 0.82443 0.0
O108 O 0.84301 0.0722 0.88666 0.0
O109 O 0.88782 0.01504 0.90947 0.0
C110 C 0.98521 0.12084 0.92693 0.0
C111 C 0.84873 0.02939 0.89606 0.0
C112 C 0.44703 0.11069 0.34516 0.0
C113 C 0.29764 0.07837 0.41369 0.0
O114 O 0.43826 0.08669 0.38073 0.0
Zn115 Zn 0.3719 0.09195 0.3781 0.0
O116 O 0.41396 0.12804 0.32146 0.0
Zn117 Zn 0.34003 0.12836 0.3234 0.0
O118 O 0.3265 0.19388 0.32758 0.0
O119 O 0.3573 0.16386 0.39081 0.0
O120 O 0.29396 0.1013 0.37585 0.0
O121 O 0.33704 0.0647 0.42705 0.0
O122 O 0.3539 0.04964 0.32046 0.0
O123 O 0.32289 0.095 0.2679 0.0
C124 C 0.33994 0.19836 0.36914 0.0
C125 C 0.33563 0.05504 0.2805 0.0
C126 C 0.12641 0.2148 0.60841 0.0
C127 C 0.14115 0.06066 0.67481 0.0
O128 O 0.15258 0.20223 0.64129 0.0
Zn129 Zn 0.13386 0.13823 0.64321 0.0
O130 O 0.09988 0.1854 0.58901 0.0
Zn131 Zn 0.0854 0.11309 0.59396 0.0
O132 O 0.02059 0.11016 0.60991 0.0
O133 O 0.06369 0.13944 0.66544 0.0
O134 O 0.11329 0.06231 0.64048 0.0
O135 O 0.16063 0.09729 0.68865 0.0
O136 O 0.16278 0.11197 0.58091 0.0
O137 O 0.10656 0.09079 0.53426 0.0
C138 C 0.02421 0.12735 0.65005 0.0
C139 C 0.14931 0.09519 0.54235 0.0
C140 C 0.13 0.89397 0.7797 0.0
C141 C 0.10714 0.75491 0.87233 0.0
O142 O 0.14169 0.85343 0.76803 0.0
Zn143 Zn 0.11583 0.82223 0.82171 0.0
O144 O 0.10663 0.90033 0.81651 0.0
Zn145 Zn 0.07749 0.86116 0.87148 0.0
O146 O 0.10878 0.88859 0.92443 0.0
O147 O 0.15522 0.85259 0.87617 0.0
O148 O 0.0866 0.79032 0.88845 0.0
O149 O 0.12826 0.75752 0.83402 0.0
O150 O 0.04391 0.82602 0.80747 0.0
O151 O 0.01171 0.86938 0.86074 0.0
C152 C 0.14918 0.87632 0.91282 0.0
C153 C 0.00818 0.84554 0.82418 0.0
C154 C 0.34524 0.90178 0.15463 0.0
C155 C 0.38794 0.76552 0.0635 0.0
O156 O 0.33871 0.85985 0.16568 0.0
Zn157 Zn 0.36301 0.8329 0.10911 0.0
O158 O 0.36343 0.91148 0.11554 0.0
Zn159 Zn 0.39128 0.8763 0.05686 0.0
O160 O 0.35198 0.89697 0.00692 0.0
O161 O 0.31432 0.85561 0.05832 0.0
O162 O 0.39963 0.80368 0.04448 0.0
O163 O 0.36482 0.76616 0.10069 0.0
O164 O 0.43416 0.85061 0.11678 0.0
O165 O 0.45433 0.89793 0.06031 0.0
C166 C 0.31448 0.87976 0.0212 0.0
C167 C 0.46445 0.87574 0.09689 0.0
C168 C 0.46341 0.3434 0.13912 0.0
C169 C 0.37912 0.48889 0.14632 0.0
O170 O 0.46848 0.37917 0.11436 0.0
Zn171 Zn 0.42357 0.41761 0.14439 0.0
O172 O 0.43453 0.34395 0.17268 0.0
Zn173 Zn 0.38752 0.39388 0.20336 0.0
O174 O 0.32783 0.36448 0.19806 0.0
O175 O 0.35979 0.3828 0.1312 0.0
O176 O 0.36892 0.46165 0.17964 0.0
O177 O 0.40981 0.47733 0.11747 0.0
O178 O 0.45614 0.43263 0.20909 0.0
O179 O 0.41229 0.40511 0.26457 0.0
C180 C 0.32642 0.36545 0.15419 0.0
C181 C 0.44852 0.42607 0.25223 0.0
C182 C 0.90787 0.9411 0.18938 0.0
C183 C 0.88052 0.83246 0.06534 0.0
O184 O 0.9162 0.9481 0.14681 0.0
Zn185 Zn 0.88945 0.89141 0.12411 0.0
O186 O 0.8859 0.90509 0.20198 0.0
Zn187 Zn 0.8558 0.84578 0.17221 0.0
O188 O 0.89013 0.79723 0.20347 0.0
O189 O 0.93226 0.84108 0.15738 0.0
O190 O 0.86332 0.82032 0.10412 0.0
O191 O 0.89699 0.87268 0.06012 0.0
O192 O 0.8178 0.90363 0.13063 0.0
O193 O 0.7899 0.85516 0.18209 0.0
C194 C 0.92892 0.80731 0.18571 0.0
C195 C 0.78377 0.88818 0.15384 0.0
C196 C 0.05808 0.65054 0.68164 0.0
C197 C 0.19787 0.67238 0.59264 0.0
O198 O 0.09729 0.66361 0.69577 0.0
Zn199 Zn 0.12927 0.65893 0.63791 0.0
O200 O 0.05322 0.63724 0.63973 0.0
Zn201 Zn 0.09596 0.63178 0.57935 0.0
O202 O 0.10013 0.56734 0.56546 0.0
O203 O 0.13844 0.5862 0.62835 0.0
O204 O 0.16493 0.65538 0.56873 0.0
O205 O 0.19243 0.68019 0.63539 0.0
O206 O 0.09145 0.70793 0.59511 0.0
O207 O 0.06244 0.66866 0.53667 0.0
C208 C 0.12597 0.55583 0.59887 0.0
C209 C 0.0673 0.70651 0.55788 0.0
C210 C 0.58986 0.86443 0.9845 0.0
C211 C 0.57307 0.96871 0.85246 0.0
O212 O 0.56797 0.90221 0.98309 0.0
Zn213 Zn 0.57807 0.91573 0.91783 0.0
O214 O 0.60933 0.84914 0.94801 0.0
Zn215 Zn 0.61881 0.8706 0.87777 0.0
O216 O 0.68495 0.87774 0.87346 0.0
O217 O 0.65048 0.9308 0.91531 0.0
O218 O 0.59566 0.93204 0.84301 0.0
O219 O 0.55551 0.97365 0.89232 0.0
O220 O 0.53934 0.86296 0.88102 0.0
O221 O 0.59067 0.8227 0.84257 0.0
C222 C 0.68708 0.91451 0.89696 0.0
C223 C 0.54902 0.82982 0.85335 0.0
C224 C 0.91716 0.0712 0.3352 0.0
C225 C 0.88155 0.16201 0.47187 0.0
O226 O 0.92634 0.06073 0.37699 0.0
Zn227 Zn 0.89731 0.11363 0.40416 0.0
O228 O 0.89508 0.10832 0.32596 0.0
Zn229 Zn 0.86484 0.16509 0.36256 0.0
O230 O 0.89917 0.21536 0.33694 0.0
O231 O 0.94137 0.16704 0.37849 0.0
O232 O 0.86814 0.18095 0.43416 0.0
O233 O 0.89809 0.12159 0.4711 0.0
O234 O 0.82805 0.0993 0.38564 0.0
O235 O 0.79987 0.15882 0.34735 0.0
C236 C 0.93802 0.2032 0.3532 0.0
C237 C 0.79488 0.11863 0.36389 0.0
C238 C 0.6609 0.07931 0.59489 0.0
C239 C 0.51678 0.16217 0.61195 0.0
O240 O 0.66323 0.11211 0.62424 0.0
Zn241 Zn 0.61909 0.16361 0.65239 0.0
O242 O 0.62369 0.072 0.57293 0.0
Zn243 Zn 0.58839 0.12052 0.60035 0.0
O244 O 0.62035 0.18046 0.57354 0.0
O245 O 0.64754 0.22117 0.63155 0.0
O246 O 0.52476 0.13026 0.58312 0.0
O247 O 0.54878 0.17661 0.63851 0.0
O248 O 0.61595 0.14429 0.71751 0.0
O249 O 0.58342 0.0955 0.6693 0.0
C250 C 0.64117 0.21624 0.58829 0.0
C251 C 0.59475 0.10658 0.71053 0.0
C252 C 0.18429 0.34232 0.02125 0.0
C253 C 0.08223 0.36181 0.88709 0.0
O254 O 0.19787 0.32365 0.98373 0.0
Zn255 Zn 0.1781 0.31549 0.91415 0.0
O256 O 0.14645 0.3644 0.02167 0.0
Zn257 Zn 0.13022 0.3549 0.95652 0.0
O258 O 0.11785 0.28352 0.95393 0.0
O259 O 0.16775 0.24876 0.90865 0.0
O260 O 0.07321 0.3764 0.92756 0.0
O261 O 0.11949 0.34004 0.87935 0.0
O262 O 0.22614 0.34959 0.882 0.0
O263 O 0.18003 0.39526 0.92138 0.0
C264 C 0.13275 0.24679 0.93497 0.0
C265 C 0.21431 0.38999 0.89433 0.0
C266 C 0.35565 0.6628 0.47855 0.0
C267 C 0.47171 0.6096 0.36832 0.0
O268 O 0.34423 0.66493 0.43586 0.0
Zn269 Zn 0.37023 0.65016 0.3695 0.0
O270 O 0.39509 0.64727 0.48991 0.0
Zn271 Zn 0.41666 0.63526 0.42706 0.0
O272 O 0.42158 0.70253 0.39893 0.0
O273 O 0.37404 0.71017 0.33965 0.0
O274 O 0.47823 0.61154 0.41183 0.0
O275 O 0.43366 0.62288 0.35096 0.0
O276 O 0.33016 0.60182 0.34769 0.0
O277 O 0.37309 0.58003 0.40705 0.0
C278 C 0.40471 0.72688 0.36614 0.0
C279 C 0.34238 0.57104 0.37666 0.0
C280 C 0.88525 0.68311 0.93722 0.0
C281 C 0.84455 0.53773 0.86487 0.0
O282 O 0.86061 0.68815 0.90085 0.0
Zn283 Zn 0.83001 0.6462 0.84905 0.0
O284 O 0.89857 0.64311 0.94932 0.0
Zn285 Zn 0.8698 0.60914 0.90034 0.0
O286 O 0.90766 0.62942 0.84172 0.0
O287 O 0.86144 0.66457 0.79238 0.0
O288 O 0.87209 0.54263 0.89873 0.0
O289 O 0.82837 0.57323 0.84413 0.0
O290 O 0.7649 0.65887 0.86055 0.0
O291 O 0.79974 0.61921 0.91598 0.0
C292 C 0.90131 0.64993 0.80309 0.0
C293 C 0.76352 0.63754 0.89906 0.0
C294 C 0.62467 0.7323 0.12713 0.0
C295 C 0.7139 0.60598 0.19636 0.0
O296 O 0.65949 0.73586 0.15359 0.0
Zn297 Zn 0.66992 0.67029 0.16284 0.0
O298 O 0.60744 0.6924 0.11963 0.0
Zn299 Zn 0.62296 0.62149 0.13523 0.0
O300 O 0.57241 0.60006 0.1725 0.0
O301 O 0.61731 0.64872 0.2095 0.0
O302 O 0.67896 0.59219 0.17329 0.0
O303 O 0.72339 0.64869 0.19723 0.0
O304 O 0.68115 0.65085 0.09235 0.0
O305 O 0.63025 0.59765 0.07331 0.0
C306 C 0.58337 0.62072 0.20956 0.0
C307 C 0.663 0.62432 0.06211 0.0
C308 C 0.67482 0.3589 0.45258 0.0
C309 C 0.72428 0.47873 0.34315 0.0
O310 O 0.69692 0.35269 0.41524 0.0
Zn311 Zn 0.69847 0.41715 0.39492 0.0
O312 O 0.65951 0.39904 0.46203 0.0
Zn313 Zn 0.66098 0.46704 0.4341 0.0
O314 O 0.59672 0.47925 0.41783 0.0
O315 O 0.63069 0.43034 0.3708 0.0
O316 O 0.69859 0.49394 0.37572 0.0
O317 O 0.73367 0.43599 0.34129 0.0
O318 O 0.73497 0.44777 0.45111 0.0
O319 O 0.68915 0.49716 0.48644 0.0
C320 C 0.59551 0.45425 0.38194 0.0
C321 C 0.72764 0.4765 0.48372 0.0
C322 C 0.96177 0.35392 0.73002 0.0
C323 C 0.84975 0.41399 0.62249 0.0
O324 O 0.96875 0.3802 0.69566 0.0
Zn325 Zn 0.90782 0.37796 0.67011 0.0
O326 O 0.92365 0.33214 0.73326 0.0
Zn327 Zn 0.85934 0.33046 0.69649 0.0
O328 O 0.85498 0.27045 0.66673 0.0
O329 O 0.90296 0.31671 0.63087 0.0
O330 O 0.83339 0.38028 0.64618 0.0
O331 O 0.89213 0.42395 0.6254 0.0
O332 O 0.86752 0.3997 0.7283 0.0
O333 O 0.81969 0.34357 0.74846 0.0
C334 C 0.88165 0.27828 0.63304 0.0
C335 C 0.83627 0.38356 0.75487 0.0
C336 C 0.09359 0.32264 0.54405 0.0
C337 C 0.13647 0.33648 0.52691 0.0
H338 H 0.05676 0.27203 0.58331 0.0
C339 C 0.17646 0.31497 0.54361 0.0
H340 H 0.06226 0.33823 0.53107 0.0
C341 C 0.17339 0.27801 0.57459 0.0
C342 C 0.13019 0.26112 0.58788 0.0
H343 H 0.20983 0.32486 0.53044 0.0
H344 H 0.20452 0.26009 0.58468 0.0
C345 C 0.09041 0.28466 0.57368 0.0
C346 C 0.91155 0.88923 0.74926 0.0
C347 C 0.89889 0.84918 0.72538 0.0
H348 H 0.95489 0.91896 0.80127 0.0
C349 C 0.91742 0.80674 0.73952 0.0
H350 H 0.89802 0.92239 0.73871 0.0
C351 C 0.95106 0.80499 0.77422 0.0
C352 C 0.96543 0.84541 0.79649 0.0
H353 H 0.90874 0.77545 0.72125 0.0
H354 H 0.96748 0.77239 0.78206 0.0
C355 C 0.94392 0.88723 0.78513 0.0
C356 C 0.3679 0.68529 0.03837 0.0
C357 C 0.39964 0.72164 0.04021 0.0
H358 H 0.3478 0.62323 1.00366 0.0
C359 C 0.44058 0.71802 0.01478 0.0
H360 H 0.33599 0.68722 0.05744 0.0
C361 C 0.44817 0.68051 0.98552 0.0
C362 C 0.41444 0.64646 0.98025 0.0
H363 H 0.46569 0.74546 0.01571 0.0
H364 H 0.47834 0.68055 0.96367 0.0
C365 C 0.37485 0.64845 0.00795 0.0
C366 C 0.52141 0.07596 0.32081 0.0
C367 C 0.49448 0.11536 0.32814 0.0
H368 H 0.57961 0.04763 0.28538 0.0
C369 C 0.51059 0.15825 0.31275 0.0
H370 H 0.50925 0.04242 0.33166 0.0
C371 C 0.55194 0.1614 0.28841 0.0
C372 C 0.57696 0.12152 0.2779 0.0
H373 H 0.49011 0.18899 0.31768 0.0
H374 H 0.56221 0.19439 0.2743 0.0
C375 C 0.56181 0.07891 0.29485 0.0
C376 C 0.15748 0.71212 0.92606 0.0
C377 C 0.1146 0.71607 0.90408 0.0
H378 H 0.19475 0.68614 0.98463 0.0
C379 C 0.0771 0.69116 0.92136 0.0
H380 H 0.18651 0.73211 0.91402 0.0
C381 C 0.08206 0.66401 0.96116 0.0
C382 C 0.12409 0.66304 0.98521 0.0
H383 H 0.04347 0.69473 0.9056 0.0
H384 H 0.05218 0.64665 0.97503 0.0
C385 C 0.16204 0.68634 0.96667 0.0
C386 C 0.56388 0.84868 0.17424 0.0
C387 C 0.57867 0.89285 0.18651 0.0
H388 H 0.51524 0.8089 0.1361 0.0
C389 C 0.56055 0.93128 0.16324 0.0
H390 H 0.57664 0.8186 0.19244 0.0
C391 C 0.52643 0.92549 0.12946 0.0
C392 C 0.50895 0.88141 0.12026 0.0
H393 H 0.57091 0.96569 0.17297 0.0
H394 H 0.51088 0.95563 0.11378 0.0
C395 C 0.52877 0.84309 0.14203 0.0
C396 C 0.29596 0.27291 0.46463 0.0
C397 C 0.32197 0.31331 0.45907 0.0
H398 H 0.28204 0.20487 0.44038 0.0
C399 C 0.34893 0.31829 0.41898 0.0
H400 H 0.27451 0.26786 0.49474 0.0
C401 C 0.35264 0.28195 0.38727 0.0
C402 C 0.32969 0.2403 0.39555 0.0
H403 H 0.36935 0.34895 0.4136 0.0
H404 H 0.37561 0.28531 0.35809 0.0
C405 C 0.30024 0.23668 0.43355 0.0
C406 C 0.97087 0.08436 0.70067 0.0
C407 C 0.98549 0.12668 0.68254 0.0
H408 H 0.93612 0.04977 0.75599 0.0
C409 C 0.9703 0.16761 0.70301 0.0
H410 H 0.98298 0.05238 0.68589 0.0
C411 C 0.94262 0.1662 0.74248 0.0
C412 C 0.93124 0.12379 0.76299 0.0
H413 H 0.98185 0.20059 0.68994 0.0
H414 H 0.93321 0.19826 0.75893 0.0
C415 C 0.94442 0.08289 0.74092 0.0
C416 C 0.29042 0.56453 0.08985 0.0
C417 C 0.27436 0.58974 0.1278 0.0
H418 H 0.33842 0.51406 0.06564 0.0
C419 C 0.29811 0.58689 0.17 0.0
H420 H 0.27252 0.56613 0.05703 0.0
C421 C 0.33478 0.55616 0.17531 0.0
C422 C 0.34938 0.52916 0.13801 0.0
H423 H 0.28604 0.60564 0.19988 0.0
H424 H 0.35022 0.55176 0.20914 0.0
C425 C 0.32825 0.53506 0.09471 0.0
C426 C 0.81244 0.95087 0.88984 0.0
C427 C 0.80838 0.99867 0.89606 0.0
H428 H 0.77682 0.88625 0.88458 0.0
C429 C 0.76481 0.0177 0.90404 0.0
H430 H 0.84574 0.93535 0.88385 0.0
C431 C 0.72606 0.98982 0.90572 0.0
C432 C 0.72961 0.9422 0.89852 0.0
H433 H 0.76061 0.0543 0.90961 0.0
H434 H 0.69302 0.00594 0.91161 0.0
C435 C 0.77316 0.92286 0.89038 0.0
C436 C 0.71081 0.09871 0.36194 0.0
C437 C 0.75639 0.08945 0.34949 0.0
H438 H 0.64189 0.07254 0.36519 0.0
C439 C 0.76678 0.0489 0.32567 0.0
H440 H 0.70225 0.12994 0.38031 0.0
C441 C 0.73273 0.01674 0.31641 0.0
C442 C 0.68753 0.02398 0.33158 0.0
H443 H 0.80179 0.04141 0.31536 0.0
H444 H 0.74251 0.98517 0.29924 0.0
C445 C 0.67649 0.0659 0.35329 0.0
C446 C 0.68952 0.96426 0.10747 0.0
C447 C 0.67595 0.98683 0.14798 0.0
H448 H 0.7354 0.91474 0.07765 0.0
C449 C 0.69154 0.97002 0.19082 0.0
H450 H 0.67837 0.97686 0.07401 0.0
C451 C 0.72286 0.9335 0.19301 0.0
C452 C 0.74025 0.91427 0.15225 0.0
H453 H 0.68163 0.98704 0.22249 0.0
H454 H 0.73672 0.92337 0.2263 0.0
C455 C 0.72214 0.9288 0.10956 0.0
C456 C 0.16332 0.49087 0.64138 0.0
C457 C 0.14842 0.5104 0.59949 0.0
H458 H 0.20682 0.44071 0.67404 0.0
C459 C 0.16212 0.49029 0.55767 0.0
H460 H 0.15327 0.50588 0.67402 0.0
C461 C 0.19378 0.45418 0.5577 0.0
C462 C 0.21083 0.43661 0.59954 0.0
H463 H 0.15141 0.50489 0.52488 0.0
H464 H 0.20659 0.44141 0.52505 0.0
C465 C 0.19379 0.45365 0.64139 0.0
C466 C 0.29041 0.46148 0.42269 0.0
C467 C 0.26911 0.44383 0.38319 0.0
H468 H 0.33119 0.5155 0.4512 0.0
C469 C 0.27556 0.4657 0.34039 0.0
H470 H 0.28471 0.44571 0.45616 0.0
C471 C 0.30047 0.50671 0.33771 0.0
C472 C 0.31999 0.52564 0.37769 0.0
H473 H 0.25822 0.45316 0.30976 0.0
H474 H 0.30318 0.52432 0.30479 0.0
C475 C 0.3164 0.50166 0.41982 0.0
C476 C 0.24618 0.51508 0.87377 0.0
C477 C 0.29242 0.51118 0.8611 0.0
H478 H 0.18522 0.47948 0.8946 0.0
C479 C 0.31166 0.46701 0.85571 0.0
H480 H 0.23052 0.54861 0.87807 0.0
C481 C 0.28578 0.42751 0.86445 0.0
C482 C 0.24027 0.43129 0.87956 0.0
H483 H 0.34716 0.46294 0.84532 0.0
H484 H 0.30198 0.39413 0.86108 0.0
C485 C 0.22045 0.47547 0.88337 0.0
C486 C 0.56508 0.79713 0.03069 0.0
C487 C 0.59219 0.83668 0.02702 0.0
H488 H 0.55295 0.73387 0.06626 0.0
C489 C 0.62636 0.84493 0.06024 0.0
H490 H 0.53892 0.78999 0.00502 0.0
C491 C 0.63511 0.81249 0.09521 0.0
C492 C 0.60954 0.77142 0.09752 0.0
H493 H 0.64801 0.87509 0.05754 0.0
H494 H 0.66333 0.81852 0.11887 0.0
C495 C 0.57338 0.76499 0.06572 0.0
C496 C 0.51096 0.44557 0.36622 0.0
C497 C 0.55569 0.45423 0.35045 0.0
H498 H 0.44145 0.42915 0.34722 0.0
C499 C 0.56363 0.45815 0.30287 0.0
H500 H 0.50417 0.44232 0.40284 0.0
C501 C 0.52809 0.45143 0.27131 0.0
C502 C 0.48386 0.43957 0.28656 0.0
H503 H 0.59784 0.46521 0.28997 0.0
H504 H 0.53594 0.4535 0.23482 0.0
C505 C 0.47529 0.43781 0.33441 0.0
C506 C 0.89236 0.2651 0.54926 0.0
C507 C 0.88388 0.24663 0.59327 0.0
H508 H 0.8973 0.25288 0.47688 0.0
C509 C 0.87541 0.19915 0.59767 0.0
H510 H 0.89867 0.30155 0.54462 0.0
C511 C 0.87547 0.17078 0.55843 0.0
C512 C 0.88251 0.18994 0.51435 0.0
H513 H 0.86884 0.18408 0.63127 0.0
H514 H 0.86895 0.13431 0.56238 0.0
C515 C 0.89113 0.23725 0.51033 0.0
C516 C 0.93469 0.65448 0.72344 0.0
C517 C 0.94076 0.65453 0.7715 0.0
H518 H 0.96728 0.65215 0.65721 0.0
C519 C 0.98561 0.65513 0.78974 0.0
H520 H 0.90053 0.65389 0.70853 0.0
C521 C 0.02369 0.65456 0.76057 0.0
C522 C 0.01776 0.65246 0.71254 0.0
H523 H 0.9913 0.65551 0.82673 0.0
H524 H 0.05776 0.65468 0.77573 0.0
C525 C 0.97289 0.65299 0.69419 0.0
C526 C 0.66848 0.2752 0.47438 0.0
C527 C 0.66917 0.32166 0.48725 0.0
H528 H 0.65883 0.20541 0.49642 0.0
C529 C 0.66412 0.33288 0.53429 0.0
H530 H 0.67256 0.26549 0.43855 0.0
C531 C 0.65735 0.29854 0.56758 0.0
C532 C 0.65454 0.25224 0.55447 0.0
H533 H 0.66523 0.36841 0.54543 0.0
H534 H 0.6526 0.30841 0.60328 0.0
C535 C 0.66067 0.24089 0.50758 0.0
C536 C 0.00451 0.34963 0.85348 0.0
C537 C 0.04958 0.36559 0.84859 0.0
H538 H 0.94208 0.33115 0.81919 0.0
C539 C 0.06611 0.37677 0.8044 0.0
H540 H 0.99156 0.33956 0.88706 0.0
C541 C 0.03794 0.37229 0.76559 0.0
C542 C 0.99313 0.35521 0.77015 0.0
H543 H 0.10121 0.38829 0.79985 0.0
H544 H 0.05138 0.3817 0.73201 0.0
C545 C 0.97667 0.34396 0.81449 0.0
C546 C 0.88263 0.768 0.95215 0.0
C547 C 0.89199 0.72295 0.96788 0.0
H548 H 0.87209 0.83883 0.97086 0.0
C549 C 0.90186 0.7157 0.01471 0.0
H550 H 0.87512 0.77458 0.91606 0.0
C551 C 0.89909 0.75201 0.04575 0.0
C552 C 0.88727 0.79647 0.03053 0.0
H553 H 0.90921 0.68155 0.02791 0.0
H554 H 0.90528 0.74505 0.08204 0.0
C555 C 0.88078 0.80471 0.9833 0.0
C556 C 0.49671 0.57486 0.29518 0.0
C557 C 0.50832 0.59958 0.33518 0.0
H558 H 0.51086 0.56254 0.22383 0.0
C559 C 0.54813 0.62655 0.33536 0.0
H560 H 0.46579 0.55413 0.29422 0.0
C561 C 0.57335 0.63231 0.29472 0.0
C562 C 0.55917 0.61102 0.2534 0.0
H563 H 0.55719 0.64665 0.36548 0.0
H564 H 0.60264 0.65526 0.29521 0.0
C565 C 0.52195 0.58042 0.25465 0.0
C566 C 0.72827 0.96945 0.58482 0.0
C567 C 0.77308 0.98431 0.59511 0.0
H568 H 0.65785 0.9883 0.57514 0.0
C569 C 0.78143 0.03129 0.60187 0.0
H570 H 0.72112 0.93343 0.57851 0.0
C571 C 0.74496 0.06265 0.60052 0.0
C572 C 0.70003 0.04755 0.59092 0.0
H573 H 0.81579 0.04354 0.60931 0.0
H574 H 0.75179 0.09862 0.6074 0.0
C575 C 0.69218 1.00085 0.58221 0.0
C576 C 0.10574 0.55612 0.26557 0.0
C577 C 0.1046 0.53571 0.22158 0.0
H578 H 0.10676 0.5452 0.33892 0.0
C579 C 0.09897 0.48795 0.21812 0.0
H580 H 0.10961 0.59299 0.26916 0.0
C581 C 0.0979 0.46075 0.25791 0.0
C582 C 0.10136 0.48093 0.30183 0.0
H583 H 0.0979 0.47133 0.18471 0.0
H584 H 0.09612 0.4237 0.25431 0.0
C585 C 0.10363 0.52893 0.30546 0.0
C586 C 0.78031 0.83035 0.44785 0.0
C587 C 0.76274 0.83107 0.4929 0.0
H588 H 0.76566 0.83652 0.37554 0.0
C589 C 0.71521 0.83612 0.4994 0.0
H590 H 0.81695 0.82713 0.44213 0.0
C591 C 0.68604 0.84317 0.46146 0.0
C592 C 0.70381 0.84383 0.4164 0.0
H593 H 0.70105 0.8377 0.53392 0.0
H594 H 0.64984 0.84939 0.46742 0.0
C595 C 0.75098 0.83578 0.40987 0.0
C596 C 0.43305 0.47214 0.74651 0.0
C597 C 0.4336 0.52015 0.74096 0.0
H598 H 0.41683 0.40699 0.7159 0.0
C599 C 0.42416 0.53883 0.69705 0.0
H600 H 0.43912 0.45685 0.78016 0.0
C601 C 0.41237 0.51022 0.65995 0.0
C602 C 0.40814 0.46251 0.66655 0.0
H603 H 0.42359 0.57578 0.69204 0.0
H604 H 0.40331 0.52573 0.62709 0.0
C605 C 0.41977 0.44367 0.70985 0.0
C606 C 0.77566 0.17438 0.99804 0.0
C607 C 0.81907 0.15411 0.00499 0.0
H608 H 0.70917 0.18865 0.02644 0.0
C609 C 0.8303 0.13737 0.04926 0.0
H610 H 0.7657 0.18718 0.96428 0.0
C611 C 0.79821 0.1396 0.08535 0.0
C612 C 0.7539 0.15727 0.07736 0.0
H613 H 0.86337 0.1214 0.05562 0.0
H614 H 0.80706 0.12493 0.11866 0.0
C615 C 0.74321 0.1752 0.03358 0.0
C616 C 0.213 0.0857 0.42908 0.0
C617 C 0.25743 0.07401 0.44461 0.0
H618 H 0.14323 0.10074 0.44798 0.0
C619 C 0.26407 0.06377 0.49158 0.0
H620 H 0.20677 0.09369 0.39304 0.0
C621 C 0.22804 0.06857 0.52286 0.0
C622 C 0.18435 0.0828 0.50781 0.0
H623 H 0.29775 0.05468 0.50476 0.0
H624 H 0.23482 0.06268 0.55923 0.0
C625 C 0.17659 0.08964 0.46042 0.0
C626 C 0.15531 0.01697 0.74782 0.0
C627 C 0.1468 0.01683 0.70013 0.0
H628 H 0.15626 0.97761 0.81045 0.0
C629 C 0.13857 0.97464 0.67785 0.0
H630 H 0.16156 0.04893 0.7659 0.0
C631 C 0.13656 0.93361 0.70323 0.0
C632 C 0.1416 0.93445 0.75136 0.0
H633 H 0.13208 0.9736 0.64101 0.0
H634 H 0.12814 0.90187 0.68567 0.0
C635 C 0.15213 0.97622 0.77328 0.0
C636 C 0.27279 0.89433 0.94692 0.0
C637 C 0.27139 0.88562 0.99458 0.0
H638 H 0.23466 0.89821 0.88367 0.0
C639 C 0.22844 0.87962 0.01606 0.0
H640 H 0.30529 0.89913 0.92942 0.0
C641 C 0.18783 0.88027 0.98998 0.0
C642 C 0.18969 0.88589 0.94191 0.0
H643 H 0.22631 0.87321 0.05286 0.0
H644 H 0.1554 0.87353 0.00696 0.0
C645 C 0.23238 0.89388 0.92078 0.0
C646 C 0.32742 0.0221 0.20095 0.0
C647 C 0.33215 0.01522 0.24874 0.0
H648 H 0.32784 0.99151 0.1338 0.0
C649 C 0.33662 0.96992 0.26564 0.0
H650 H 0.32393 0.05648 0.18679 0.0
C651 C 0.33806 0.93251 0.23526 0.0
C652 C 0.33592 0.93975 0.18734 0.0
H653 H 0.34009 0.96342 0.30234 0.0
H654 H 0.34314 0.89824 0.24919 0.0
C655 C 0.32972 0.98485 0.17059 0.0
C656 C 0.50116 0.21852 0.13021 0.0
C657 C 0.548 0.22315 0.11949 0.0
H658 H 0.43787 0.25314 0.14614 0.0
C659 C 0.56618 0.26744 0.11309 0.0
H660 H 0.48654 0.18479 0.13625 0.0
C661 C 0.53813 0.30641 0.11753 0.0
C662 C 0.4918 0.30193 0.13038 0.0
H663 H 0.60232 0.27192 0.10548 0.0
H664 H 0.55321 0.34016 0.11293 0.0
C665 C 0.47349 0.25758 0.13635 0.0
C666 C 0.06423 0.14179 0.90155 0.0
C667 C 0.0297 0.14305 0.93536 0.0
H668 H 0.12541 0.17368 0.87514 0.0
C669 C 0.03438 0.17266 0.97298 0.0
H670 H 0.06073 0.11947 0.87187 0.0
C671 C 0.07136 0.20304 0.97521 0.0
C672 C 0.10383 0.20511 0.93926 0.0
H673 H 0.00792 0.17432 0.99917 0.0
H674 H 0.07251 0.2274 1.00342 0.0
C675 C 0.10125 0.17265 0.9035 0.0
C676 C 0.05191 0.76934 0.18115 0.0
C677 C 0.04683 0.72223 0.17209 0.0
H678 H 0.01779 0.83344 0.19339 0.0
C679 C 0.00294 0.70224 0.17571 0.0
H680 H 0.08527 0.78566 0.17892 0.0
C681 C 0.96446 0.72944 0.18529 0.0
C682 C 0.96923 0.77711 0.1906 0.0
H683 H 0.99808 0.66585 0.16949 0.0
H684 H 0.93071 0.71376 0.18492 0.0
C685 C 0.01337 0.79661 0.18981 0.0
C686 C 0.4506 0.77556 0.3135 0.0
C687 C 0.4277 0.77057 0.35573 0.0
H688 H 0.5044 0.80999 0.27671 0.0
C689 C 0.4371 0.80145 0.39175 0.0
H690 H 0.44463 0.75144 0.28568 0.0
C691 C 0.47072 0.83537 0.38645 0.0
C692 C 0.4965 0.83761 0.34567 0.0
H693 H 0.42036 0.79754 0.42491 0.0
H694 H 0.4788 0.85755 0.41532 0.0
C695 C 0.48522 0.80847 0.30871 0.0
C696 C 0.99708 0.73896 0.52109 0.0
C697 C 0.0384 0.74631 0.54516 0.0
H698 H 0.92977 0.76473 0.50582 0.0
C699 C 0.04721 0.78995 0.56397 0.0
H700 H 0.98926 0.70573 0.50622 0.0
C701 C 0.01343 0.82417 0.56256 0.0
C702 C 0.97026 0.81466 0.54323 0.0
H703 H 0.07887 0.79658 0.58254 0.0
H704 H 0.01948 0.85629 0.58045 0.0
C705 C 0.96299 0.77266 0.5208 0.0
C706 C 0.01346 0.30741 0.34214 0.0
C707 C 0.05716 0.28811 0.34958 0.0
H708 H 0.94118 0.29527 0.33637 0.0
C709 C 0.06201 0.24022 0.35194 0.0
H710 H 0.00906 0.34438 0.33994 0.0
C711 C 0.02309 0.21222 0.35078 0.0
C712 C 0.97905 0.23177 0.34624 0.0
H713 H 0.09537 0.22468 0.35783 0.0
H714 H 0.02729 0.17544 0.35525 0.0
C715 C 0.9747 0.27939 0.33996 0.0
C716 C 0.49307 0.72536 0.79957 0.0
C717 C 0.44798 0.72813 0.81639 0.0
H718 H 0.55994 0.75536 0.7974 0.0
C719 C 0.43444 0.76783 0.84035 0.0
H720 H 0.50454 0.69488 0.78146 0.0
C721 C 0.46663 0.80237 0.85053 0.0
C722 C 0.51276 0.79784 0.83658 0.0
H723 H 0.40015 0.77036 0.85458 0.0
H724 H 0.45597 0.83127 0.87143 0.0
C725 C 0.52496 0.75989 0.80921 0.0
C726 C 0.5688 0.9941 0.77081 0.0
C727 C 0.57168 0.00585 0.81757 0.0
H728 H 0.57325 0.01653 0.70091 0.0
C729 C 0.57981 0.05199 0.82964 0.0
H730 H 0.56292 0.95876 0.76058 0.0
C731 C 0.58698 0.08541 0.79516 0.0
C732 C 0.58514 0.07321 0.74822 0.0
H733 H 0.58296 0.06172 0.86558 0.0
H734 H 0.5946 0.12045 0.80517 0.0
C735 C 0.57492 0.02735 0.73663 0.0
C736 C 0.25694 0.31568 0.05825 0.0
C737 C 0.21574 0.34091 0.06163 0.0
H738 H 0.3243 0.30374 0.08553 0.0
C739 C 0.20835 0.36801 0.10107 0.0
H740 H 0.26373 0.29394 0.02874 0.0
C741 C 0.24314 0.37256 0.13446 0.0
C742 C 0.28564 0.3504 0.12843 0.0
H743 H 0.177 0.38775 0.10476 0.0
H744 H 0.23818 0.39617 0.16288 0.0
C745 C 0.29166 0.32087 0.09094 0.0
C746 C 0.92348 0.05365 0.25117 0.0
C747 C 0.92591 0.0386 0.29739 0.0
H748 H 0.91667 0.03422 0.1801 0.0
C749 C 0.92975 0.99142 0.30676 0.0
H750 H 0.92084 0.08995 0.24297 0.0
C751 C 0.92678 0.9597 0.27087 0.0
C752 C 0.92069 0.97467 0.22502 0.0
H753 H 0.93169 0.97883 0.34197 0.0
H754 H 0.92702 0.92335 0.27927 0.0
C755 C 0.92125 0.02187 0.21515 0.0
C756 C 0.28293 0.66086 0.58694 0.0
C757 C 0.24209 0.68033 0.56968 0.0
H758 H 0.35197 0.63971 0.5712 0.0
C759 C 0.24188 0.70054 0.52578 0.0
H760 H 0.28355 0.6447 0.62071 0.0
C761 C 0.28066 0.69828 0.49799 0.0
C762 C 0.32028 0.6748 0.51308 0.0
H763 H 0.21078 0.71589 0.51193 0.0
H764 H 0.27845 0.71244 0.46339 0.0
C765 C 0.32193 0.65793 0.55863 0.0
C766 C 0.68341 0.58979 0.9858 0.0
C767 C 0.67821 0.62856 0.0139 0.0
H768 H 0.71474 0.56281 0.92468 0.0
C769 C 0.69101 0.67205 0.99682 0.0
H770 H 0.67344 0.55604 0.99816 0.0
C771 C 0.71285 0.67616 0.95418 0.0
C772 C 0.72285 0.63674 0.92852 0.0
H773 H 0.68642 0.70262 0.01763 0.0
H774 H 0.72636 0.70935 0.94383 0.0
C775 C 0.70626 0.59381 0.94355 0.0
C776 C 0.74134 0.55759 0.31305 0.0
C777 C 0.73655 0.51021 0.30481 0.0
H778 H 0.74038 0.62552 0.28419 0.0
C779 C 0.7352 0.49464 0.25896 0.0
H780 H 0.74255 0.57051 0.34808 0.0
C781 C 0.73312 0.52622 0.22235 0.0
C782 C 0.73357 0.57383 0.23091 0.0
H783 H 0.73125 0.45835 0.25157 0.0
H784 H 0.72736 0.5135 0.18769 0.0
C785 C 0.74055 0.5891 0.27637 0.0
C786 C 0.77251 0.44407 0.59983 0.0
C787 C 0.81962 0.43963 0.59048 0.0
H788 H 0.70617 0.46227 0.57324 0.0
C789 C 0.83701 0.45666 0.54861 0.0
H790 H 0.75839 0.43157 0.63209 0.0
C791 C 0.80707 0.47363 0.51478 0.0
C792 C 0.7596 0.47526 0.52299 0.0
H793 H 0.87322 0.45367 0.54062 0.0
H794 H 0.82062 0.48257 0.4811 0.0
C795 C 0.74277 0.46238 0.56652 0.0
C796 C 0.79759 0.48803 0.81339 0.0
C797 C 0.83264 0.49195 0.84675 0.0
H798 H 0.76997 0.44789 0.75807 0.0
C799 C 0.85927 0.45318 0.85779 0.0
H800 H 0.7758 0.51708 0.8048 0.0
C801 C 0.85492 0.41318 0.83159 0.0
C802 C 0.82389 0.41163 0.79443 0.0
H803 H 0.88617 0.45506 0.88364 0.0
H804 H 0.87931 0.38551 0.83701 0.0
C805 C 0.79344 0.44815 0.7872 0.0
C806 C 0.45515 0.20308 0.65433 0.0
C807 C 0.47296 0.18704 0.61226 0.0
H808 H 0.4083 0.24956 0.68736 0.0
C809 C 0.45375 0.2024 0.57058 0.0
H810 H 0.46982 0.19173 0.68687 0.0
C811 C 0.41989 0.2364 0.57092 0.0
C812 C 0.40399 0.25433 0.61294 0.0
H813 H 0.46739 0.1909 0.5378 0.0
H814 H 0.4073 0.24995 0.53833 0.0
C815 C 0.42024 0.23609 0.65468 0.0
loop_
_geom_bond_atom_site_label_1
_geom_bond_atom_site_label_2
_geom_bond_distance
_geom_bond_site_symmetry_2
_ccdc_geom_bond_type
C0 O2 1.247 . S
C0 O4 1.258 . S
C1 O8 1.247 . S
C1 O9 1.258 . S
O2 C0 1.247 . S
O2 Zn3 2.028 . S
Zn3 O2 2.028 . S
Zn3 O7 2.035 . S
Zn3 O9 2.035 . S
Zn3 O10 2.028 . S
O4 C0 1.258 . S
O4 Zn5 2.035 . S
Zn5 O4 2.035 . S
Zn5 O6 2.028 . S
Zn5 O8 2.028 . S
Zn5 O11 2.035 . S
O6 Zn5 2.028 . S
O6 C12 1.247 . S
O7 Zn3 2.035 . S
O7 C12 1.258 . S
O8 C1 1.247 . S
O8 Zn5 2.028 . S
O9 C1 1.258 . S
O9 Zn3 2.035 . S
O10 Zn3 2.028 . S
O10 C13 1.247 . S
O11 Zn5 2.035 . S
O11 C13 1.258 . S
C12 O6 1.247 . S
C12 O7 1.258 . S
C13 O10 1.247 . S
C13 O11 1.258 . S
C14 O16 1.247 . S
C14 O18 1.258 . S
C15 O22 1.247 . S
C15 O23 1.258 . S
O16 C14 1.247 . S
O16 Zn17 2.028 . S
Zn17 O16 2.028 . S
Zn17 O21 2.035 . S
Zn17 O23 2.035 . S
Zn17 O24 2.028 . S
O18 C14 1.258 . S
O18 Zn19 2.035 . S
Zn19 O18 2.035 . S
Zn19 O20 2.028 . S
Zn19 O22 2.028 . S
Zn19 O25 2.035 . S
O20 Zn19 2.028 . S
O20 C26 1.247 . S
O21 Zn17 2.035 . S
O21 C26 1.258 . S
O22 C15 1.247 . S
O22 Zn19 2.028 . S
O23 C15 1.258 . S
O23 Zn17 2.035 . S
O24 Zn17 2.028 . S
O24 C27 1.247 . S
O25 Zn19 2.035 . S
O25 C27 1.258 . S
C26 O20 1.247 . S
C26 O21 1.258 . S
C27 O24 1.247 . S
C27 O25 1.258 . S
C28 O30 1.247 . S
C28 O32 1.258 . S
C29 O36 1.247 . S
C29 O37 1.258 . S
O30 C28 1.247 . S
O30 Zn31 2.028 . S
Zn31 O30 2.028 . S
Zn31 O35 2.035 . S
Zn31 O37 2.035 . S
Zn31 O38 2.028 . S
O32 C28 1.258 . S
O32 Zn33 2.035 . S
Zn33 O32 2.035 . S
Zn33 O34 2.028 . S
Zn33 O36 2.028 . S
Zn33 O39 2.035 . S
O34 Zn33 2.028 . S
O34 C40 1.247 . S
O35 Zn31 2.035 . S
O35 C40 1.258 . S
O36 C29 1.247 . S
O36 Zn33 2.028 . S
O37 C29 1.258 . S
O37 Zn31 2.035 . S
O38 Zn31 2.028 . S
O38 C41 1.247 . S
O39 Zn33 2.035 . S
O39 C41 1.258 . S
C40 O34 1.247 . S
C40 O35 1.258 . S
C41 O38 1.247 . S
C41 O39 1.258 . S
C42 O44 1.247 . S
C42 O46 1.258 . S
C43 O50 1.247 . S
C43 O51 1.258 . S
O44 C42 1.247 . S
O44 Zn45 2.028 . S
Zn45 O44 2.028 . S
Zn45 O49 2.035 . S
Zn45 O51 2.035 . S
Zn45 O52 2.028 . S
O46 C42 1.258 . S
O46 Zn47 2.035 . S
Zn47 O46 2.035 . S
Zn47 O48 2.028 . S
Zn47 O50 2.028 . S
Zn47 O53 2.035 . S
O48 Zn47 2.028 . S
O48 C54 1.247 . S
O49 Zn45 2.035 . S
O49 C54 1.258 . S
O50 C43 1.247 . S
O50 Zn47 2.028 . S
O51 C43 1.258 . S
O51 Zn45 2.035 . S
O52 Zn45 2.028 . S
O52 C55 1.247 . S
O53 Zn47 2.035 . S
O53 C55 1.258 . S
C54 O48 1.247 . S
C54 O49 1.258 . S
C55 O52 1.247 . S
C55 O53 1.258 . S
C56 O58 1.247 . S
C56 O60 1.258 . S
C57 O64 1.247 . S
C57 O65 1.258 . S
O58 C56 1.247 . S
O58 Zn59 2.028 . S
Zn59 O58 2.028 . S
Zn59 O63 2.035 . S
Zn59 O65 2.035 . S
Zn59 O66 2.028 . S
O60 C56 1.258 . S
O60 Zn61 2.035 . S
Zn61 O60 2.035 . S
Zn61 O62 2.028 . S
Zn61 O64 2.028 . S
Zn61 O67 2.035 . S
O62 Zn61 2.028 . S
O62 C68 1.247 . S
O63 Zn59 2.035 . S
O63 C68 1.258 . S
O64 C57 1.247 . S
O64 Zn61 2.028 . S
O65 C57 1.258 . S
O65 Zn59 2.035 . S
O66 Zn59 2.028 . S
O66 C69 1.247 . S
O67 Zn61 2.035 . S
O67 C69 1.258 . S
C68 O62 1.247 . S
C68 O63 1.258 . S
C69 O66 1.247 . S
C69 O67 1.258 . S
C70 O72 1.247 . S
C70 O74 1.258 . S
C71 O78 1.247 . S
C71 O79 1.258 . S
O72 C70 1.247 . S
O72 Zn73 2.028 . S
Zn73 O72 2.028 . S
Zn73 O77 2.035 . S
Zn73 O79 2.035 . S
Zn73 O80 2.028 . S
O74 C70 1.258 . S
O74 Zn75 2.035 . S
Zn75 O74 2.035 . S
Zn75 O76 2.028 . S
Zn75 O78 2.028 . S
Zn75 O81 2.035 . S
O76 Zn75 2.028 . S
O76 C82 1.247 . S
O77 Zn73 2.035 . S
O77 C82 1.258 . S
O78 C71 1.247 . S
O78 Zn75 2.028 . S
O79 C71 1.258 . S
O79 Zn73 2.035 . S
O80 Zn73 2.028 . S
O80 C83 1.247 . S
O81 Zn75 2.035 . S
O81 C83 1.258 . S
C82 O76 1.247 . S
C82 O77 1.258 . S
C83 O80 1.247 . S
C83 O81 1.258 . S
C84 O86 1.247 . S
C84 O88 1.258 . S
C85 O92 1.247 . S
C85 O93 1.258 . S
O86 C84 1.247 . S
O86 Zn87 2.028 . S
Zn87 O86 2.028 . S
Zn87 O91 2.035 . S
Zn87 O93 2.035 . S
Zn87 O94 2.028 . S
O88 C84 1.258 . S
O88 Zn89 2.035 . S
Zn89 O88 2.035 . S
Zn89 O90 2.028 . S
Zn89 O92 2.028 . S
Zn89 O95 2.035 . S
O90 Zn89 2.028 . S
O90 C96 1.247 . S
O91 Zn87 2.035 . S
O91 C96 1.258 . S
O92 C85 1.247 . S
O92 Zn89 2.028 . S
O93 C85 1.258 . S
O93 Zn87 2.035 . S
O94 Zn87 2.028 . S
O94 C97 1.247 . S
O95 Zn89 2.035 . S
O95 C97 1.258 . S
C96 O90 1.247 . S
C96 O91 1.258 . S
C97 O94 1.247 . S
C97 O95 1.258 . S
C98 O100 1.247 . S
C98 O102 1.258 . S
C99 O106 1.247 . S
C99 O107 1.258 . S
O100 C98 1.247 . S
O100 Zn101 2.028 . S
Zn101 O100 2.028 . S
Zn101 O105 2.035 . S
Zn101 O107 2.035 . S
Zn101 O108 2.028 . S
O102 C98 1.258 . S
O102 Zn103 2.035 . S
Zn103 O102 2.035 . S
Zn103 O104 2.028 . S
Zn103 O106 2.028 . S
Zn103 O109 2.035 . S
O104 Zn103 2.028 . S
O104 C110 1.247 . S
O105 Zn101 2.035 . S
O105 C110 1.258 . S
O106 C99 1.247 . S
O106 Zn103 2.028 . S
O107 C99 1.258 . S
O107 Zn101 2.035 . S
O108 Zn101 2.028 . S
O108 C111 1.247 . S
O109 Zn103 2.035 . S
O109 C111 1.258 . S
C110 O104 1.247 . S
C110 O105 1.258 . S
C111 O108 1.247 . S
C111 O109 1.258 . S
C112 O114 1.247 . S
C112 O116 1.258 . S
C113 O120 1.247 . S
C113 O121 1.258 . S
O114 C112 1.247 . S
O114 Zn115 2.028 . S
Zn115 O114 2.028 . S
Zn115 O119 2.035 . S
Zn115 O121 2.035 . S
Zn115 O122 2.028 . S
O116 C112 1.258 . S
O116 Zn117 2.035 . S
Zn117 O116 2.035 . S
Zn117 O118 2.028 . S
Zn117 O120 2.028 . S
Zn117 O123 2.035 . S
O118 Zn117 2.028 . S
O118 C124 1.247 . S
O119 Zn115 2.035 . S
O119 C124 1.258 . S
O120 C113 1.247 . S
O120 Zn117 2.028 . S
O121 C113 1.258 . S
O121 Zn115 2.035 . S
O122 Zn115 2.028 . S
O122 C125 1.247 . S
O123 Zn117 2.035 . S
O123 C125 1.258 . S
C124 O118 1.247 . S
C124 O119 1.258 . S
C125 O122 1.247 . S
C125 O123 1.258 . S
C126 O128 1.247 . S
C126 O130 1.258 . S
C127 O134 1.247 . S
C127 O135 1.258 . S
O128 C126 1.247 . S
O128 Zn129 2.028 . S
Zn129 O128 2.028 . S
Zn129 O133 2.035 . S
Zn129 O135 2.035 . S
Zn129 O136 2.028 . S
O130 C126 1.258 . S
O130 Zn131 2.035 . S
Zn131 O130 2.035 . S
Zn131 O132 2.028 . S
Zn131 O134 2.028 . S
Zn131 O137 2.035 . S
O132 Zn131 2.028 . S
O132 C138 1.247 . S
O133 Zn129 2.035 . S
O133 C138 1.258 . S
O134 C127 1.247 . S
O134 Zn131 2.028 . S
O135 C127 1.258 . S
O135 Zn129 2.035 . S
O136 Zn129 2.028 . S
O136 C139 1.247 . S
O137 Zn131 2.035 . S
O137 C139 1.258 . S
C138 O132 1.247 . S
C138 O133 1.258 . S
C139 O136 1.247 . S
C139 O137 1.258 . S
C140 O142 1.247 . S
C140 O144 1.258 . S
C141 O148 1.247 . S
C141 O149 1.258 . S
O142 C140 1.247 . S
O142 Zn143 2.028 . S
Zn143 O142 2.028 . S
Zn143 O147 2.035 . S
Zn143 O149 2.035 . S
Zn143 O150 2.028 . S
O144 C140 1.258 . S
O144 Zn145 2.035 . S
Zn145 O144 2.035 . S
Zn145 O146 2.028 . S
Zn145 O148 2.028 . S
Zn145 O151 2.035 . S
O146 Zn145 2.028 . S
O146 C152 1.247 . S
O147 Zn143 2.035 . S
O147 C152 1.258 . S
O148 C141 1.247 . S
O148 Zn145 2.028 . S
O149 C141 1.258 . S
O149 Zn143 2.035 . S
O150 Zn143 2.028 . S
O150 C153 1.247 . S
O151 Zn145 2.035 . S
O151 C153 1.258 . S
C152 O146 1.247 . S
C152 O147 1.258 . S
C153 O150 1.247 . S
C153 O151 1.258 . S
C154 O156 1.247 . S
C154 O158 1.258 . S
C155 O162 1.247 . S
C155 O163 1.258 . S
O156 C154 1.247 . S
O156 Zn157 2.028 . S
Zn157 O156 2.028 . S
Zn157 O161 2.035 . S
Zn157 O163 2.035 . S
Zn157 O164 2.028 . S
O158 C154 1.258 . S
O158 Zn159 2.035 . S
Zn159 O158 2.035 . S
Zn159 O160 2.028 . S
Zn159 O162 2.028 . S
Zn159 O165 2.035 . S
O160 Zn159 2.028 . S
O160 C166 1.247 . S
O161 Zn157 2.035 . S
O161 C166 1.258 . S
O162 C155 1.247 . S
O162 Zn159 2.028 . S
O163 C155 1.258 . S
O163 Zn157 2.035 . S
O164 Zn157 2.028 . S
O164 C167 1.247 . S
O165 Zn159 2.035 . S
O165 C167 1.258 . S
C166 O160 1.247 . S
C166 O161 1.258 . S
C167 O164 1.247 . S
C167 O165 1.258 . S
C168 O170 1.247 . S
C168 O172 1.258 . S
C169 O176 1.247 . S
C169 O177 1.258 . S
O170 C168 1.247 . S
O170 Zn171 2.028 . S
Zn171 O170 2.028 . S
Zn171 O175 2.035 . S
Zn171 O177 2.035 . S
Zn171 O178 2.028 . S
O172 C168 1.258 . S
O172 Zn173 2.035 . S
Zn173 O172 2.035 . S
Zn173 O174 2.028 . S
Zn173 O176 2.028 . S
Zn173 O179 2.035 . S
O174 Zn173 2.028 . S
O174 C180 1.247 . S
O175 Zn171 2.035 . S
O175 C180 1.258 . S
O176 C169 1.247 . S
O176 Zn173 2.028 . S
O177 C169 1.258 . S
O177 Zn171 2.035 . S
O178 Zn171 2.028 . S
O178 C181 1.247 . S
O179 Zn173 2.035 . S
O179 C181 1.258 . S
C180 O174 1.247 . S
C180 O175 1.258 . S
C181 O178 1.247 . S
C181 O179 1.258 . S
C182 O184 1.247 . S
C182 O186 1.258 . S
C183 O190 1.247 . S
C183 O191 1.258 . S
O184 C182 1.247 . S
O184 Zn185 2.028 . S
Zn185 O184 2.028 . S
Zn185 O189 2.035 . S
Zn185 O191 2.035 . S
Zn185 O192 2.028 . S
O186 C182 1.258 . S
O186 Zn187 2.035 . S
Zn187 O186 2.035 . S
Zn187 O188 2.028 . S
Zn187 O190 2.028 . S
Zn187 O193 2.035 . S
O188 Zn187 2.028 . S
O188 C194 1.247 . S
O189 Zn185 2.035 . S
O189 C194 1.258 . S
O190 C183 1.247 . S
O190 Zn187 2.028 . S
O191 C183 1.258 . S
O191 Zn185 2.035 . S
O192 Zn185 2.028 . S
O192 C195 1.247 . S
O193 Zn187 2.035 . S
O193 C195 1.258 . S
C194 O188 1.247 . S
C194 O189 1.258 . S
C195 O192 1.247 . S
C195 O193 1.258 . S
C196 O198 1.247 . S
C196 O200 1.258 . S
C197 O204 1.247 . S
C197 O205 1.258 . S
O198 C196 1.247 . S
O198 Zn199 2.028 . S
Zn199 O198 2.028 . S
Zn199 O203 2.035 . S
Zn199 O205 2.035 . S
Zn199 O206 2.028 . S
O200 C196 1.258 . S
O200 Zn201 2.035 . S
Zn201 O200 2.035 . S
Zn201 O202 2.028 . S
Zn201 O204 2.028 . S
Zn201 O207 2.035 . S
O202 Zn201 2.028 . S
O202 C208 1.247 . S
O203 Zn199 2.035 . S
O203 C208 1.258 . S
O204 C197 1.247 . S
O204 Zn201 2.028 . S
O205 C197 1.258 . S
O205 Zn199 2.035 . S
O206 Zn199 2.028 . S
O206 C209 1.247 . S
O207 Zn201 2.035 . S
O207 C209 1.258 . S
C208 O202 1.247 . S
C208 O203 1.258 . S
C209 O206 1.247 . S
C209 O207 1.258 . S
C210 O212 1.247 . S
C210 O214 1.258 . S
C211 O218 1.247 . S
C211 O219 1.258 . S
O212 C210 1.247 . S
O212 Zn213 2.028 . S
Zn213 O212 2.028 . S
Zn213 O217 2.035 . S
Zn213 O219 2.035 . S
Zn213 O220 2.028 . S
O214 C210 1.258 . S
O214 Zn215 2.035 . S
Zn215 O214 2.035 . S
Zn215 O216 2.028 . S
Zn215 O218 2.028 . S
Zn215 O221 2.035 . S
O216 Zn215 2.028 . S
O216 C222 1.247 . S
O217 Zn213 2.035 . S
O217 C222 1.258 . S
O218 C211 1.247 . S
O218 Zn215 2.028 . S
O219 C211 1.258 . S
O219 Zn213 2.035 . S
O220 Zn213 2.028 . S
O220 C223 1.247 . S
O221 Zn215 2.035 . S
O221 C223 1.258 . S
C222 O216 1.247 . S
C222 O217 1.258 . S
C223 O220 1.247 . S
C223 O221 1.258 . S
C224 O226 1.247 . S
C224 O228 1.258 . S
C225 O232 1.247 . S
C225 O233 1.258 . S
O226 C224 1.247 . S
O226 Zn227 2.028 . S
Zn227 O226 2.028 . S
Zn227 O231 2.035 . S
Zn227 O233 2.035 . S
Zn227 O234 2.028 . S
O228 C224 1.258 . S
O228 Zn229 2.035 . S
Zn229 O228 2.035 . S
Zn229 O230 2.028 . S
Zn229 O232 2.028 . S
Zn229 O235 2.035 . S
O230 Zn229 2.028 . S
O230 C236 1.247 . S
O231 Zn227 2.035 . S
O231 C236 1.258 . S
O232 C225 1.247 . S
O232 Zn229 2.028 . S
O233 C225 1.258 . S
O233 Zn227 2.035 . S
O234 Zn227 2.028 . S
O234 C237 1.247 . S
O235 Zn229 2.035 . S
O235 C237 1.258 . S
C236 O230 1.247 . S
C236 O231 1.258 . S
C237 O234 1.247 . S
C237 O235 1.258 . S
C238 O240 1.247 . S
C238 O242 1.258 . S
C239 O246 1.247 . S
C239 O247 1.258 . S
O240 C238 1.247 . S
O240 Zn241 2.028 . S
Zn241 O240 2.028 . S
Zn241 O245 2.035 . S
Zn241 O247 2.035 . S
Zn241 O248 2.028 . S
O242 C238 1.258 . S
O242 Zn243 2.035 . S
Zn243 O242 2.035 . S
Zn243 O244 2.028 . S
Zn243 O246 2.028 . S
Zn243 O249 2.035 . S
O244 Zn243 2.028 . S
O244 C250 1.247 . S
O245 Zn241 2.035 . S
O245 C250 1.258 . S
O246 C239 1.247 . S
O246 Zn243 2.028 . S
O247 C239 1.258 . S
O247 Zn241 2.035 . S
O248 Zn241 2.028 . S
O248 C251 1.247 . S
O249 Zn243 2.035 . S
O249 C251 1.258 . S
C250 O244 1.247 . S
C250 O245 1.258 . S
C251 O248 1.247 . S
C251 O249 1.258 . S
C252 O254 1.247 . S
C252 O256 1.258 . S
C253 O260 1.247 . S
C253 O261 1.258 . S
O254 C252 1.247 . S
O254 Zn255 2.028 . S
Zn255 O254 2.028 . S
Zn255 O259 2.035 . S
Zn255 O261 2.035 . S
Zn255 O262 2.028 . S
O256 C252 1.258 . S
O256 Zn257 2.035 . S
Zn257 O256 2.035 . S
Zn257 O258 2.028 . S
Zn257 O260 2.028 . S
Zn257 O263 2.035 . S
O258 Zn257 2.028 . S
O258 C264 1.247 . S
O259 Zn255 2.035 . S
O259 C264 1.258 . S
O260 C253 1.247 . S
O260 Zn257 2.028 . S
O261 C253 1.258 . S
O261 Zn255 2.035 . S
O262 Zn255 2.028 . S
O262 C265 1.247 . S
O263 Zn257 2.035 . S
O263 C265 1.258 . S
C264 O258 1.247 . S
C264 O259 1.258 . S
C265 O262 1.247 . S
C265 O263 1.258 . S
C266 O268 1.247 . S
C266 O270 1.258 . S
C267 O274 1.247 . S
C267 O275 1.258 . S
O268 C266 1.247 . S
O268 Zn269 2.028 . S
Zn269 O268 2.028 . S
Zn269 O273 2.035 . S
Zn269 O275 2.035 . S
Zn269 O276 2.028 . S
O270 C266 1.258 . S
O270 Zn271 2.035 . S
Zn271 O270 2.035 . S
Zn271 O272 2.028 . S
Zn271 O274 2.028 . S
Zn271 O277 2.035 . S
O272 Zn271 2.028 . S
O272 C278 1.247 . S
O273 Zn269 2.035 . S
O273 C278 1.258 . S
O274 C267 1.247 . S
O274 Zn271 2.028 . S
O275 C267 1.258 . S
O275 Zn269 2.035 . S
O276 Zn269 2.028 . S
O276 C279 1.247 . S
O277 Zn271 2.035 . S
O277 C279 1.258 . S
C278 O272 1.247 . S
C278 O273 1.258 . S
C279 O276 1.247 . S
C279 O277 1.258 . S
C280 O282 1.247 . S
C280 O284 1.258 . S
C281 O288 1.247 . S
C281 O289 1.258 . S
O282 C280 1.247 . S
O282 Zn283 2.028 . S
Zn283 O282 2.028 . S
Zn283 O287 2.035 . S
Zn283 O289 2.035 . S
Zn283 O290 2.028 . S
O284 C280 1.258 . S
O284 Zn285 2.035 . S
Zn285 O284 2.035 . S
Zn285 O286 2.028 . S
Zn285 O288 2.028 . S
Zn285 O291 2.035 . S
O286 Zn285 2.028 . S
O286 C292 1.247 . S
O287 Zn283 2.035 . S
O287 C292 1.258 . S
O288 C281 1.247 . S
O288 Zn285 2.028 . S
O289 C281 1.258 . S
O289 Zn283 2.035 . S
O290 Zn283 2.028 . S
O290 C293 1.247 . S
O291 Zn285 2.035 . S
O291 C293 1.258 . S
C292 O286 1.247 . S
C292 O287 1.258 . S
C293 O290 1.247 . S
C293 O291 1.258 . S
C294 O296 1.247 . S
C294 O298 1.258 . S
C295 O302 1.247 . S
C295 O303 1.258 . S
O296 C294 1.247 . S
O296 Zn297 2.028 . S
Zn297 O296 2.028 . S
Zn297 O301 2.035 . S
Zn297 O303 2.035 . S
Zn297 O304 2.028 . S
O298 C294 1.258 . S
O298 Zn299 2.035 . S
Zn299 O298 2.035 . S
Zn299 O300 2.028 . S
Zn299 O302 2.028 . S
Zn299 O305 2.035 . S
O300 Zn299 2.028 . S
O300 C306 1.247 . S
O301 Zn297 2.035 . S
O301 C306 1.258 . S
O302 C295 1.247 . S
O302 Zn299 2.028 . S
O303 C295 1.258 . S
O303 Zn297 2.035 . S
O304 Zn297 2.028 . S
O304 C307 1.247 . S
O305 Zn299 2.035 . S
O305 C307 1.258 . S
C306 O300 1.247 . S
C306 O301 1.258 . S
C307 O304 1.247 . S
C307 O305 1.258 . S
C308 O310 1.247 . S
C308 O312 1.258 . S
C309 O316 1.247 . S
C309 O317 1.258 . S
O310 C308 1.247 . S
O310 Zn311 2.028 . S
Zn311 O310 2.028 . S
Zn311 O315 2.035 . S
Zn311 O317 2.035 . S
Zn311 O318 2.028 . S
O312 C308 1.258 . S
O312 Zn313 2.035 . S
Zn313 O312 2.035 . S
Zn313 O314 2.028 . S
Zn313 O316 2.028 . S
Zn313 O319 2.035 . S
O314 Zn313 2.028 . S
O314 C320 1.247 . S
O315 Zn311 2.035 . S
O315 C320 1.258 . S
O316 C309 1.247 . S
O316 Zn313 2.028 . S
O317 C309 1.258 . S
O317 Zn311 2.035 . S
O318 Zn311 2.028 . S
O318 C321 1.247 . S
O319 Zn313 2.035 . S
O319 C321 1.258 . S
C320 O314 1.247 . S
C320 O315 1.258 . S
C321 O318 1.247 . S
C321 O319 1.258 . S
C322 O324 1.247 . S
C322 O326 1.258 . S
C323 O330 1.247 . S
C323 O331 1.258 . S
O324 C322 1.247 . S
O324 Zn325 2.028 . S
Zn325 O324 2.028 . S
Zn325 O329 2.035 . S
Zn325 O331 2.035 . S
Zn325 O332 2.028 . S
O326 C322 1.258 . S
O326 Zn327 2.035 . S
Zn327 O326 2.035 . S
Zn327 O328 2.028 . S
Zn327 O330 2.028 . S
Zn327 O333 2.035 . S
O328 Zn327 2.028 . S
O328 C334 1.247 . S
O329 Zn325 2.035 . S
O329 C334 1.258 . S
O330 C323 1.247 . S
O330 Zn327 2.028 . S
O331 C323 1.258 . S
O331 Zn325 2.035 . S
O332 Zn325 2.028 . S
O332 C335 1.247 . S
O333 Zn327 2.035 . S
O333 C335 1.258 . S
C334 O328 1.247 . S
C334 O329 1.258 . S
C335 O332 1.247 . S
C335 O333 1.258 . S
C336 C337 1.387 . S
C336 H340 0.950 . S
C336 C345 1.390 . S
C337 C336 1.387 . S
C337 C339 1.387 . S
H338 C345 0.950 . S
C339 C337 1.387 . S
C339 C341 1.390 . S
C339 H343 0.950 . S
H340 C336 0.950 . S
C341 C339 1.390 . S
C341 C342 1.387 . S
C341 H344 0.950 . S
C342 C341 1.387 . S
C342 C345 1.387 . S
H343 C339 0.950 . S
H344 C341 0.950 . S
C345 C336 1.390 . S
C345 H338 0.950 . S
C345 C342 1.387 . S
C346 C347 1.387 . S
C346 H350 0.950 . S
C346 C355 1.390 1_655 S
C347 C346 1.387 . S
C347 C349 1.387 . S
H348 C355 0.950 . S
C349 C347 1.387 . S
C349 C351 1.390 1_655 S
C349 H353 0.950 . S
H350 C346 0.950 . S
C351 C349 1.390 1_455 S
C351 C352 1.387 . S
C351 H354 0.950 . S
C352 C351 1.387 . S
C352 C355 1.387 . S
H353 C349 0.950 . S
H354 C351 0.950 . S
C355 C346 1.390 1_455 S
C355 H348 0.950 . S
C355 C352 1.387 . S
C356 C357 1.387 . S
C356 H360 0.950 . S
C356 C365 1.378 1_554 S
C357 C356 1.387 . S
C357 C359 1.387 . S
H358 C365 0.951 . S
C359 C357 1.387 . S
C359 C361 1.390 1_554 S
C359 H363 0.950 . S
H360 C356 0.950 . S
C361 C359 1.390 1_556 S
C361 C362 1.387 . S
C361 H364 0.950 . S
C362 C361 1.387 . S
C362 C365 1.398 . S
H363 C359 0.950 . S
H364 C361 0.950 . S
C365 C356 1.378 1_556 S
C365 H358 0.951 . S
C365 C362 1.398 . S
C366 C367 1.387 . S
C366 H370 0.950 . S
C366 C375 1.390 . S
C367 C366 1.387 . S
C367 C369 1.387 . S
H368 C375 0.950 . S
C369 C367 1.387 . S
C369 C371 1.390 . S
C369 H373 0.950 . S
H370 C366 0.950 . S
C371 C369 1.390 . S
C371 C372 1.387 . S
C371 H374 0.950 . S
C372 C371 1.387 . S
C372 C375 1.387 . S
H373 C369 0.950 . S
H374 C371 0.950 . S
C375 C366 1.390 . S
C375 H368 0.950 . S
C375 C372 1.387 . S
C376 C377 1.387 . S
C376 H380 0.950 . S
C376 C385 1.390 1_556 S
C377 C376 1.387 . S
C377 C379 1.387 . S
H378 C385 0.950 . S
C379 C377 1.387 . S
C379 C381 1.390 1_556 S
C379 H383 0.950 . S
H380 C376 0.950 . S
C381 C379 1.390 1_554 S
C381 C382 1.387 . S
C381 H384 0.950 . S
C382 C381 1.387 . S
C382 C385 1.387 . S
H383 C379 0.950 . S
H384 C381 0.950 . S
C385 C376 1.390 1_554 S
C385 H378 0.950 . S
C385 C382 1.387 . S
C386 C387 1.387 . S
C386 H390 0.950 . S
C386 C395 1.390 . S
C387 C386 1.387 . S
C387 C389 1.387 . S
H388 C395 0.950 . S
C389 C387 1.387 . S
C389 C391 1.390 . S
C389 H393 0.950 . S
H390 C386 0.950 . S
C391 C389 1.390 . S
C391 C392 1.387 . S
C391 H394 0.950 . S
C392 C391 1.387 . S
C392 C395 1.387 . S
H393 C389 0.950 . S
H394 C391 0.950 . S
C395 C386 1.390 . S
C395 H388 0.950 . S
C395 C392 1.387 . S
C396 C397 1.387 . S
C396 H400 0.950 . S
C396 C405 1.390 . S
C397 C396 1.387 . S
C397 C399 1.387 . S
H398 C405 0.950 . S
C399 C397 1.387 . S
C399 C401 1.390 . S
C399 H403 0.950 . S
H400 C396 0.950 . S
C401 C399 1.390 . S
C401 C402 1.387 . S
C401 H404 0.950 . S
C402 C401 1.387 . S
C402 C405 1.387 . S
H403 C399 0.950 . S
H404 C401 0.950 . S
C405 C396 1.390 . S
C405 H398 0.950 . S
C405 C402 1.387 . S
C406 C407 1.387 . S
C406 H410 0.950 . S
C406 C415 1.390 1_455 S
C407 C406 1.387 . S
C407 C409 1.387 . S
H408 C415 0.950 . S
C409 C407 1.387 . S
C409 C411 1.390 1_455 S
C409 H413 0.950 . S
H410 C406 0.950 . S
C411 C409 1.390 1_655 S
C411 C412 1.387 . S
C411 H414 0.950 . S
C412 C411 1.387 . S
C412 C415 1.387 . S
H413 C409 0.950 . S
H414 C411 0.950 . S
C415 C406 1.390 1_655 S
C415 H408 0.950 . S
C415 C412 1.387 . S
C416 C417 1.387 . S
C416 H420 0.950 . S
C416 C425 1.390 . S
C417 C416 1.387 . S
C417 C419 1.387 . S
H418 C425 0.950 . S
C419 C417 1.387 . S
C419 C421 1.390 . S
C419 H423 0.950 . S
H420 C416 0.950 . S
C421 C419 1.390 . S
C421 C422 1.387 . S
C421 H424 0.950 . S
C422 C421 1.387 . S
C422 C425 1.387 . S
H423 C419 0.950 . S
H424 C421 0.950 . S
C425 C416 1.390 . S
C425 H418 0.950 . S
C425 C422 1.387 . S
C426 C427 1.387 . S
C426 H430 0.950 . S
C426 C435 1.390 1_545 S
C427 C426 1.387 . S
C427 C429 1.387 . S
H428 C435 0.950 . S
C429 C427 1.387 . S
C429 C431 1.390 1_545 S
C429 H433 0.950 . S
H430 C426 0.950 . S
C431 C429 1.390 1_565 S
C431 C432 1.387 . S
C431 H434 0.950 . S
C432 C431 1.387 . S
C432 C435 1.387 . S
H433 C429 0.950 . S
H434 C431 0.950 . S
C435 C426 1.390 1_565 S
C435 H428 0.950 . S
C435 C432 1.387 . S
C436 C437 1.387 . S
C436 H440 0.950 . S
C436 C445 1.390 . S
C437 C436 1.387 . S
C437 C439 1.387 . S
H438 C445 0.950 . S
C439 C437 1.387 . S
C439 C441 1.390 1_545 S
C439 H443 0.950 . S
H440 C436 0.950 . S
C441 C439 1.390 1_565 S
C441 C442 1.387 . S
C441 H444 0.950 . S
C442 C441 1.387 . S
C442 C445 1.387 1_565 S
H443 C439 0.950 . S
H444 C441 0.950 . S
C445 C436 1.390 . S
C445 H438 0.950 . S
C445 C442 1.387 1_545 S
C446 C447 1.387 . S
C446 H450 0.950 . S
C446 C455 1.390 1_545 S
C447 C446 1.387 . S
C447 C449 1.387 . S
H448 C455 0.950 . S
C449 C447 1.387 . S
C449 C451 1.390 1_545 S
C449 H453 0.950 . S
H450 C446 0.950 . S
C451 C449 1.390 1_565 S
C451 C452 1.387 . S
C451 H454 0.950 . S
C452 C451 1.387 . S
C452 C455 1.387 . S
H453 C449 0.950 . S
H454 C451 0.950 . S
C455 C446 1.390 1_565 S
C455 H448 0.950 . S
C455 C452 1.387 . S
C456 C457 1.387 . S
C456 H460 0.950 . S
C456 C465 1.390 . S
C457 C456 1.387 . S
C457 C459 1.387 . S
H458 C465 0.950 . S
C459 C457 1.387 . S
C459 C461 1.390 . S
C459 H463 0.950 . S
H460 C456 0.950 . S
C461 C459 1.390 . S
C461 C462 1.387 . S
C461 H464 0.950 . S
C462 C461 1.387 . S
C462 C465 1.387 . S
H463 C459 0.950 . S
H464 C461 0.950 . S
C465 C456 1.390 . S
C465 H458 0.950 . S
C465 C462 1.387 . S
C466 C467 1.387 . S
C466 H470 0.950 . S
C466 C475 1.390 . S
C467 C466 1.387 . S
C467 C469 1.387 . S
H468 C475 0.950 . S
C469 C467 1.387 . S
C469 C471 1.390 . S
C469 H473 0.950 . S
H470 C466 0.950 . S
C471 C469 1.390 . S
C471 C472 1.387 . S
C471 H474 0.950 . S
C472 C471 1.387 . S
C472 C475 1.387 . S
H473 C469 0.950 . S
H474 C471 0.950 . S
C475 C466 1.390 . S
C475 H468 0.950 . S
C475 C472 1.387 . S
C476 C477 1.387 . S
C476 H480 0.950 . S
C476 C485 1.390 . S
C477 C476 1.387 . S
C477 C479 1.387 . S
H478 C485 0.950 . S
C479 C477 1.387 . S
C479 C481 1.390 . S
C479 H483 0.950 . S
H480 C476 0.950 . S
C481 C479 1.390 . S
C481 C482 1.387 . S
C481 H484 0.950 . S
C482 C481 1.387 . S
C482 C485 1.387 . S
H483 C479 0.950 . S
H484 C481 0.950 . S
C485 C476 1.390 . S
C485 H478 0.950 . S
C485 C482 1.387 . S
C486 C487 1.387 . S
C486 H490 0.950 . S
C486 C495 1.390 . S
C487 C486 1.387 . S
C487 C489 1.387 1_556 S
H488 C495 0.950 . S
C489 C487 1.387 1_554 S
C489 C491 1.390 . S
C489 H493 0.950 . S
H490 C486 0.950 . S
C491 C489 1.390 . S
C491 C492 1.387 . S
C491 H494 0.950 . S
C492 C491 1.387 . S
C492 C495 1.387 1_554 S
H493 C489 0.950 . S
H494 C491 0.950 . S
C495 C486 1.390 . S
C495 H488 0.950 . S
C495 C492 1.387 1_556 S
C496 C497 1.387 . S
C496 H500 0.950 . S
C496 C505 1.390 . S
C497 C496 1.387 . S
C497 C499 1.387 . S
H498 C505 0.950 . S
C499 C497 1.387 . S
C499 C501 1.390 . S
C499 H503 0.950 . S
H500 C496 0.950 . S
C501 C499 1.390 . S
C501 C502 1.387 . S
C501 H504 0.950 . S
C502 C501 1.387 . S
C502 C505 1.387 . S
H503 C499 0.950 . S
H504 C501 0.950 . S
C505 C496 1.390 . S
C505 H498 0.950 . S
C505 C502 1.387 . S
C506 C507 1.387 . S
C506 H510 0.950 . S
C506 C515 1.390 . S
C507 C506 1.387 . S
C507 C509 1.387 . S
H508 C515 0.950 . S
C509 C507 1.387 . S
C509 C511 1.390 . S
C509 H513 0.950 . S
H510 C506 0.950 . S
C511 C509 1.390 . S
C511 C512 1.387 . S
C511 H514 0.950 . S
C512 C511 1.387 . S
C512 C515 1.387 . S
H513 C509 0.950 . S
H514 C511 0.950 . S
C515 C506 1.390 . S
C515 H508 0.950 . S
C515 C512 1.387 . S
C516 C517 1.387 . S
C516 H520 0.950 . S
C516 C525 1.390 1_655 S
C517 C516 1.387 . S
C517 C519 1.387 . S
H518 C525 0.950 . S
C519 C517 1.387 . S
C519 C521 1.390 1_655 S
C519 H523 0.950 . S
H520 C516 0.950 . S
C521 C519 1.390 1_455 S
C521 C522 1.387 . S
C521 H524 0.950 . S
C522 C521 1.387 . S
C522 C525 1.387 . S
H523 C519 0.950 . S
H524 C521 0.950 . S
C525 C516 1.390 1_455 S
C525 H518 0.950 . S
C525 C522 1.387 . S
C526 C527 1.387 . S
C526 H530 0.950 . S
C526 C535 1.390 . S
C527 C526 1.387 . S
C527 C529 1.387 . S
H528 C535 0.950 . S
C529 C527 1.387 . S
C529 C531 1.390 . S
C529 H533 0.950 . S
H530 C526 0.950 . S
C531 C529 1.390 . S
C531 C532 1.387 . S
C531 H534 0.950 . S
C532 C531 1.387 . S
C532 C535 1.387 . S
H533 C529 0.950 . S
H534 C531 0.950 . S
C535 C526 1.390 . S
C535 H528 0.950 . S
C535 C532 1.387 . S
C536 C537 1.387 . S
C536 H540 0.950 . S
C536 C545 1.390 1_455 S
C537 C536 1.387 . S
C537 C539 1.387 . S
H538 C545 0.950 . S
C539 C537 1.387 . S
C539 C541 1.390 1_455 S
C539 H543 0.950 . S
H540 C536 0.950 . S
C541 C539 1.390 1_655 S
C541 C542 1.387 . S
C541 H544 0.950 . S
C542 C541 1.387 . S
C542 C545 1.387 . S
H543 C539 0.950 . S
H544 C541 0.950 . S
C545 C536 1.390 1_655 S
C545 H538 0.950 . S
C545 C542 1.387 . S
C546 C547 1.387 . S
C546 H550 0.950 . S
C546 C555 1.390 1_556 S
C547 C546 1.387 . S
C547 C549 1.387 . S
H548 C555 0.950 . S
C549 C547 1.387 . S
C549 C551 1.390 1_556 S
C549 H553 0.950 . S
H550 C546 0.950 . S
C551 C549 1.390 1_554 S
C551 C552 1.387 . S
C551 H554 0.950 . S
C552 C551 1.387 . S
C552 C555 1.387 . S
H553 C549 0.950 . S
H554 C551 0.950 . S
C555 C546 1.390 1_554 S
C555 H548 0.950 . S
C555 C552 1.387 . S
C556 C557 1.387 . S
C556 H560 0.950 . S
C556 C565 1.390 . S
C557 C556 1.387 . S
C557 C559 1.387 . S
H558 C565 0.950 . S
C559 C557 1.387 . S
C559 C561 1.390 . S
C559 H563 0.950 . S
H560 C556 0.950 . S
C561 C559 1.390 . S
C561 C562 1.387 . S
C561 H564 0.950 . S
C562 C561 1.387 . S
C562 C565 1.387 . S
H563 C559 0.950 . S
H564 C561 0.950 . S
C565 C556 1.390 . S
C565 H558 0.950 . S
C565 C562 1.387 . S
C566 C567 1.387 . S
C566 H570 0.950 . S
C566 C575 1.390 1_565 S
C567 C566 1.387 . S
C567 C569 1.387 . S
H568 C575 0.950 . S
C569 C567 1.387 . S
C569 C571 1.390 1_565 S
C569 H573 0.950 . S
H570 C566 0.950 . S
C571 C569 1.390 1_545 S
C571 C572 1.387 . S
C571 H574 0.950 . S
C572 C571 1.387 . S
C572 C575 1.387 . S
H573 C569 0.950 . S
H574 C571 0.950 . S
C575 C566 1.390 1_545 S
C575 H568 0.950 . S
C575 C572 1.387 . S
C576 C577 1.387 . S
C576 H580 0.950 . S
C576 C585 1.390 . S
C577 C576 1.387 . S
C577 C579 1.387 . S
H578 C585 0.950 . S
C579 C577 1.387 . S
C579 C581 1.390 . S
C579 H583 0.950 . S
H580 C576 0.950 . S
C581 C579 1.390 . S
C581 C582 1.387 . S
C581 H584 0.950 . S
C582 C581 1.387 . S
C582 C585 1.387 . S
H583 C579 0.950 . S
H584 C581 0.950 . S
C585 C576 1.390 . S
C585 H578 0.950 . S
C585 C582 1.387 . S
C586 C587 1.387 . S
C586 H590 0.950 . S
C586 C595 1.390 . S
C587 C586 1.387 . S
C587 C589 1.387 . S
H588 C595 0.950 . S
C589 C587 1.387 . S
C589 C591 1.390 . S
C589 H593 0.950 . S
H590 C586 0.950 . S
C591 C589 1.390 . S
C591 C592 1.387 . S
C591 H594 0.950 . S
C592 C591 1.387 . S
C592 C595 1.387 . S
H593 C589 0.950 . S
H594 C591 0.950 . S
C595 C586 1.390 . S
C595 H588 0.950 . S
C595 C592 1.387 . S
C596 C597 1.387 . S
C596 H600 0.950 . S
C596 C605 1.390 . S
C597 C596 1.387 . S
C597 C599 1.387 . S
H598 C605 0.950 . S
C599 C597 1.387 . S
C599 C601 1.390 . S
C599 H603 0.950 . S
H600 C596 0.950 . S
C601 C599 1.390 . S
C601 C602 1.387 . S
C601 H604 0.950 . S
C602 C601 1.387 . S
C602 C605 1.387 . S
H603 C599 0.950 . S
H604 C601 0.950 . S
C605 C596 1.390 . S
C605 H598 0.950 . S
C605 C602 1.387 . S
C606 C607 1.387 . S
C606 H610 0.950 . S
C606 C615 1.390 1_556 S
C607 C606 1.387 . S
C607 C609 1.387 . S
H608 C615 0.950 . S
C609 C607 1.387 . S
C609 C611 1.390 1_556 S
C609 H613 0.950 . S
H610 C606 0.950 . S
C611 C609 1.390 1_554 S
C611 C612 1.387 . S
C611 H614 0.950 . S
C612 C611 1.387 . S
C612 C615 1.387 . S
H613 C609 0.950 . S
H614 C611 0.950 . S
C615 C606 1.390 1_554 S
C615 H608 0.950 . S
C615 C612 1.387 . S
C616 C617 1.387 . S
C616 H620 0.950 . S
C616 C625 1.390 . S
C617 C616 1.387 . S
C617 C619 1.387 . S
H618 C625 0.950 . S
C619 C617 1.387 . S
C619 C621 1.390 . S
C619 H623 0.950 . S
H620 C616 0.950 . S
C621 C619 1.390 . S
C621 C622 1.387 . S
C621 H624 0.950 . S
C622 C621 1.387 . S
C622 C625 1.387 . S
H623 C619 0.950 . S
H624 C621 0.950 . S
C625 C616 1.390 . S
C625 H618 0.950 . S
C625 C622 1.387 . S
C626 C627 1.387 . S
C626 H630 0.950 . S
C626 C635 1.390 1_545 S
C627 C626 1.387 . S
C627 C629 1.387 . S
H628 C635 0.950 . S
C629 C627 1.387 . S
C629 C631 1.390 1_545 S
C629 H633 0.950 . S
H630 C626 0.950 . S
C631 C629 1.390 1_565 S
C631 C632 1.387 . S
C631 H634 0.950 . S
C632 C631 1.387 . S
C632 C635 1.387 . S
H633 C629 0.950 . S
H634 C631 0.950 . S
C635 C626 1.390 1_565 S
C635 H628 0.950 . S
C635 C632 1.387 . S
C636 C637 1.387 . S
C636 H640 0.950 . S
C636 C645 1.390 1_554 S
C637 C636 1.387 . S
C637 C639 1.387 . S
H638 C645 0.950 . S
C639 C637 1.387 . S
C639 C641 1.390 1_554 S
C639 H643 0.950 . S
H640 C636 0.950 . S
C641 C639 1.390 1_556 S
C641 C642 1.387 . S
C641 H644 0.950 . S
C642 C641 1.387 . S
C642 C645 1.387 . S
H643 C639 0.950 . S
H644 C641 0.950 . S
C645 C636 1.390 1_556 S
C645 H638 0.950 . S
C645 C642 1.387 . S
C646 C647 1.387 . S
C646 H650 0.950 . S
C646 C655 1.390 1_545 S
C647 C646 1.387 . S
C647 C649 1.387 . S
H648 C655 0.950 . S
C649 C647 1.387 . S
C649 C651 1.390 1_545 S
C649 H653 0.950 . S
H650 C646 0.950 . S
C651 C649 1.390 1_565 S
C651 C652 1.387 . S
C651 H654 0.950 . S
C652 C651 1.387 . S
C652 C655 1.387 . S
H653 C649 0.950 . S
H654 C651 0.950 . S
C655 C646 1.390 1_565 S
C655 H648 0.950 . S
C655 C652 1.387 . S
C656 C657 1.387 . S
C656 H660 0.950 . S
C656 C665 1.390 . S
C657 C656 1.387 . S
C657 C659 1.387 . S
H658 C665 0.950 . S
C659 C657 1.387 . S
C659 C661 1.390 . S
C659 H663 0.950 . S
H660 C656 0.950 . S
C661 C659 1.390 . S
C661 C662 1.387 . S
C661 H664 0.950 . S
C662 C661 1.387 . S
C662 C665 1.387 . S
H663 C659 0.950 . S
H664 C661 0.950 . S
C665 C656 1.390 . S
C665 H658 0.950 . S
C665 C662 1.387 . S
C666 C667 1.387 . S
C666 H670 0.950 . S
C666 C675 1.390 1_655 S
C667 C666 1.387 . S
C667 C669 1.387 . S
H668 C675 0.950 . S
C669 C667 1.387 . S
C669 C671 1.390 1_655 S
C669 H673 0.950 . S
H670 C666 0.950 . S
C671 C669 1.390 1_455 S
C671 C672 1.387 . S
C671 H674 0.950 . S
C672 C671 1.387 . S
C672 C675 1.387 . S
H673 C669 0.950 . S
H674 C671 0.950 . S
C675 C666 1.390 1_455 S
C675 H668 0.950 . S
C675 C672 1.387 . S
C676 C677 1.387 . S
C676 H680 0.950 . S
C676 C685 1.390 1_455 S
C677 C676 1.387 . S
C677 C679 1.387 . S
H678 C685 0.950 . S
C679 C677 1.387 . S
C679 C681 1.390 1_455 S
C679 H683 0.950 . S
H680 C676 0.950 . S
C681 C679 1.390 1_655 S
C681 C682 1.387 . S
C681 H684 0.950 . S
C682 C681 1.387 . S
C682 C685 1.387 . S
H683 C679 0.950 . S
H684 C681 0.950 . S
C685 C676 1.390 1_655 S
C685 H678 0.950 . S
C685 C682 1.387 . S
C686 C687 1.387 . S
C686 H690 0.950 . S
C686 C695 1.390 . S
C687 C686 1.387 . S
C687 C689 1.387 . S
H688 C695 0.950 . S
C689 C687 1.387 . S
C689 C691 1.390 . S
C689 H693 0.950 . S
H690 C686 0.950 . S
C691 C689 1.390 . S
C691 C692 1.387 . S
C691 H694 0.950 . S
C692 C691 1.387 . S
C692 C695 1.387 . S
H693 C689 0.950 . S
H694 C691 0.950 . S
C695 C686 1.390 . S
C695 H688 0.950 . S
C695 C692 1.387 . S
C696 C697 1.387 . S
C696 H700 0.950 . S
C696 C705 1.390 1_455 S
C697 C696 1.387 . S
C697 C699 1.387 . S
H698 C705 0.950 . S
C699 C697 1.387 . S
C699 C701 1.390 1_455 S
C699 H703 0.950 . S
H700 C696 0.950 . S
C701 C699 1.390 1_655 S
C701 C702 1.387 . S
C701 H704 0.950 . S
C702 C701 1.387 . S
C702 C705 1.387 . S
H703 C699 0.950 . S
H704 C701 0.950 . S
C705 C696 1.390 1_655 S
C705 H698 0.950 . S
C705 C702 1.387 . S
C706 C707 1.387 . S
C706 H710 0.950 . S
C706 C715 1.390 1_455 S
C707 C706 1.387 . S
C707 C709 1.387 . S
H708 C715 0.950 . S
C709 C707 1.387 . S
C709 C711 1.390 1_455 S
C709 H713 0.950 . S
H710 C706 0.950 . S
C711 C709 1.390 1_655 S
C711 C712 1.387 . S
C711 H714 0.950 . S
C712 C711 1.387 . S
C712 C715 1.387 . S
H713 C709 0.950 . S
H714 C711 0.950 . S
C715 C706 1.390 1_655 S
C715 H708 0.950 . S
C715 C712 1.387 . S
C716 C717 1.387 . S
C716 H720 0.950 . S
C716 C725 1.390 . S
C717 C716 1.387 . S
C717 C719 1.387 . S
H718 C725 0.950 . S
C719 C717 1.387 . S
C719 C721 1.390 . S
C719 H723 0.950 . S
H720 C716 0.950 . S
C721 C719 1.390 . S
C721 C722 1.387 . S
C721 H724 0.950 . S
C722 C721 1.387 . S
C722 C725 1.387 . S
H723 C719 0.950 . S
H724 C721 0.950 . S
C725 C716 1.390 . S
C725 H718 0.950 . S
C725 C722 1.387 . S
C726 C727 1.387 . S
C726 H730 0.950 . S
C726 C735 1.390 1_565 S
C727 C726 1.387 . S
C727 C729 1.387 . S
H728 C735 0.950 . S
C729 C727 1.387 . S
C729 C731 1.390 1_565 S
C729 H733 0.950 . S
H730 C726 0.950 . S
C731 C729 1.390 1_545 S
C731 C732 1.387 . S
C731 H734 0.950 . S
C732 C731 1.387 . S
C732 C735 1.387 . S
H733 C729 0.950 . S
H734 C731 0.950 . S
C735 C726 1.390 1_545 S
C735 H728 0.950 . S
C735 C732 1.387 . S
C736 C737 1.387 . S
C736 H740 0.950 . S
C736 C745 1.390 1_556 S
C737 C736 1.387 . S
C737 C739 1.387 . S
H738 C745 0.950 . S
C739 C737 1.387 . S
C739 C741 1.390 1_556 S
C739 H743 0.950 . S
H740 C736 0.950 . S
C741 C739 1.390 1_554 S
C741 C742 1.387 . S
C741 H744 0.950 . S
C742 C741 1.387 . S
C742 C745 1.387 . S
H743 C739 0.950 . S
H744 C741 0.950 . S
C745 C736 1.390 1_554 S
C745 H738 0.950 . S
C745 C742 1.387 . S
C746 C747 1.387 . S
C746 H750 0.950 . S
C746 C755 1.390 1_545 S
C747 C746 1.387 . S
C747 C749 1.387 . S
H748 C755 0.950 . S
C749 C747 1.387 . S
C749 C751 1.390 1_545 S
C749 H753 0.950 . S
H750 C746 0.950 . S
C751 C749 1.390 1_565 S
C751 C752 1.387 . S
C751 H754 0.950 . S
C752 C751 1.387 . S
C752 C755 1.387 . S
H753 C749 0.950 . S
H754 C751 0.950 . S
C755 C746 1.390 1_565 S
C755 H748 0.950 . S
C755 C752 1.387 . S
C756 C757 1.387 . S
C756 H760 0.950 . S
C756 C765 1.390 . S
C757 C756 1.387 . S
C757 C759 1.387 . S
H758 C765 0.950 . S
C759 C757 1.387 . S
C759 C761 1.390 . S
C759 H763 0.950 . S
H760 C756 0.950 . S
C761 C759 1.390 . S
C761 C762 1.387 . S
C761 H764 0.950 . S
C762 C761 1.387 . S
C762 C765 1.387 . S
H763 C759 0.950 . S
H764 C761 0.950 . S
C765 C756 1.390 . S
C765 H758 0.950 . S
C765 C762 1.387 . S
C766 C767 1.387 . S
C766 H770 0.950 . S
C766 C775 1.390 1_554 S
C767 C766 1.387 . S
C767 C769 1.387 . S
H768 C775 0.950 . S
C769 C767 1.387 . S
C769 C771 1.390 1_554 S
C769 H773 0.950 . S
H770 C766 0.950 . S
C771 C769 1.390 1_556 S
C771 C772 1.387 . S
C771 H774 0.950 . S
C772 C771 1.387 . S
C772 C775 1.387 . S
H773 C769 0.950 . S
H774 C771 0.950 . S
C775 C766 1.390 1_556 S
C775 H768 0.950 . S
C775 C772 1.387 . S
C776 C777 1.387 . S
C776 H780 0.950 . S
C776 C785 1.390 . S
C777 C776 1.387 . S
C777 C779 1.387 . S
H778 C785 0.950 . S
C779 C777 1.387 . S
C779 C781 1.390 . S
C779 H783 0.950 . S
H780 C776 0.950 . S
C781 C779 1.390 . S
C781 C782 1.387 . S
C781 H784 0.950 . S
C782 C781 1.387 . S
C782 C785 1.387 . S
H783 C779 0.950 . S
H784 C781 0.950 . S
C785 C776 1.390 . S
C785 H778 0.950 . S
C785 C782 1.387 . S
C786 C787 1.387 . S
C786 H790 0.950 . S
C786 C795 1.390 . S
C787 C786 1.387 . S
C787 C789 1.387 . S
H788 C795 0.950 . S
C789 C787 1.387 . S
C789 C791 1.390 . S
C789 H793 0.950 . S
H790 C786 0.950 . S
C791 C789 1.390 . S
C791 C792 1.387 . S
C791 H794 0.950 . S
C792 C791 1.387 . S
C792 C795 1.387 . S
H793 C789 0.950 . S
H794 C791 0.950 . S
C795 C786 1.390 . S
C795 H788 0.950 . S
C795 C792 1.387 . S
C796 C797 1.387 . S
C796 H800 0.950 . S
C796 C805 1.390 . S
C797 C796 1.387 . S
C797 C799 1.387 . S
H798 C805 0.950 . S
C799 C797 1.387 . S
C799 C801 1.390 . S
C799 H803 0.950 . S
H800 C796 0.950 . S
C801 C799 1.390 . S
C801 C802 1.387 . S
C801 H804 0.950 . S
C802 C801 1.387 . S
C802 C805 1.387 . S
H803 C799 0.950 . S
H804 C801 0.950 . S
C805 C796 1.390 . S
C805 H798 0.950 . S
C805 C802 1.387 . S
C806 C807 1.387 . S
C806 H810 0.950 . S
C806 C815 1.390 . S
C807 C806 1.387 . S
C807 C809 1.387 . S
H808 C815 0.950 . S
C809 C807 1.387 . S
C809 C811 1.390 . S
C809 H813 0.950 . S
H810 C806 0.950 . S
C811 C809 1.390 . S
C811 C812 1.387 . S
C811 H814 0.950 . S
C812 C811 1.387 . S
C812 C815 1.387 . S
H813 C809 0.950 . S
H814 C811 0.950 . S
C815 C806 1.390 . S
C815 H808 0.950 . S
C815 C812 1.387 . S
C337 C0 1.491 . S
C342 C126 1.491 . S
C347 C27 1.492 . S
C352 C153 1.492 . S
C357 C155 1.492 . S
C362 C28 1.491 . S
C367 C112 1.491 . S
C372 C42 1.491 . S
C377 C141 1.492 . S
C382 C68 1.491 . S
C387 C70 1.491 . S
C392 C167 1.492 . S
C397 C96 1.491 . S
C402 C124 1.491 . S
C407 C138 1.491 . S
C412 C99 1.491 . S
C417 C56 1.491 . S
C422 C169 1.492 . S
C427 C111 1.491 . S
C432 C222 1.491 . S
C437 C237 1.492 . S
C442 C82 1.491 . S
C447 C54 1.491 . S
C452 C195 1.491 . S
C457 C208 1.491 . S
C462 C84 1.491 . S
C467 C12 1.491 . S
C472 C279 1.491 . S
C477 C40 1.491 . S
C482 C265 1.492 . S
C487 C210 1.490 . S
C492 C294 1.490 . S
C497 C320 1.491 . S
C502 C181 1.492 . S
C507 C334 1.491 . S
C512 C225 1.492 . S
C517 C292 1.491 . S
C522 C196 1.491 . S
C527 C308 1.491 . S
C532 C250 1.491 . S
C537 C253 1.491 . S
C542 C322 1.491 . S
C547 C280 1.491 . S
C552 C183 1.492 . S
C557 C267 1.492 . S
C562 C306 1.491 . S
C567 C15 1.491 . S
C572 C238 1.491 . S
C577 C69 1.133 . S
C582 C1 1.133 . S
C587 C26 1.135 . S
C592 C71 1.136 . S
C597 C29 1.133 . S
C602 C97 1.133 . S
C607 C98 1.133 . S
C612 C43 1.133 . S
C617 C113 1.136 . S
C622 C139 1.136 . S
C627 C127 1.136 . S
C632 C140 1.135 . S
C637 C166 1.135 . S
C642 C152 1.135 . S
C647 C125 1.133 . S
C652 C154 1.133 . S
C657 C55 1.133 . S
C662 C168 1.133 . S
C667 C110 1.133 . S
C672 C264 1.133 . S
C677 C57 1.136 . S
C682 C194 1.135 . S
C687 C278 1.133 . S
C692 C83 1.133 . S
C697 C209 1.133 . S
C702 C14 1.133 . S
C707 C13 1.136 . S
C712 C236 1.135 . S
C717 C41 1.136 . S
C722 C223 1.136 . S
C727 C211 1.136 . S
C732 C251 1.136 . S
C737 C252 1.135 . S
C742 C180 1.135 . S
C747 C224 1.133 . S
C752 C182 1.133 . S
C757 C197 1.133 . S
C762 C266 1.133 . S
C767 C307 1.136 . S
C772 C293 1.136 . S
C777 C309 1.133 . S
C782 C295 1.133 . S
C787 C323 1.133 . S
C792 C321 1.133 . S
C797 C281 1.136 . S
C802 C335 1.136 . S
C807 C239 1.136 . S
C812 C85 1.136 . S
