# Generated by pormake.
# Topology uoy, (4)-cn, num edge types: 1
# Building blocks:
#     Node 0, Type 0, BuildingBlock: AZAVOO_clean_sbu_0, # of connection points: 4
#     Node 1, Type 0, BuildingBlock: AZAVOO_clean_sbu_0, # of connection points: 4
#     Node 2, Type 0, BuildingBlock: AZAVOO_clean_sbu_0, # of connection points: 4
#     Node 3, Type 0, BuildingBlock: AZAVOO_clean_sbu_0, # of connection points: 4
#     Node 4, Type 0, BuildingBlock: AZAVOO_clean_sbu_0, # of connection points: 4
#     Node 5, Type 0, BuildingBlock: AZAVOO_clean_sbu_0, # of connection points: 4
#     Node 6, Type 0, BuildingBlock: AZAVOO_clean_sbu_0, # of connection points: 4
#     Node 7, Type 0, BuildingBlock: AZAVOO_clean_sbu_0, # of connection points: 4
#     Node 8, Type 0, BuildingBlock: AZAVOO_clean_sbu_0, # of connection points: 4
#     Node 9, Type 0, BuildingBlock: AZAVOO_clean_sbu_0, # of connection points: 4
#     Node 10, Type 0, BuildingBlock: AZAVOO_clean_sbu_0, # of connection points: 4
#     Node 11, Type 0, BuildingBlock: AZAVOO_clean_sbu_0, # of connection points: 4
#     Node 12, Type 0, BuildingBlock: AZAVOO_clean_sbu_0, # of connection points: 4
#     Node 13, Type 0, BuildingBlock: AZAVOO_clean_sbu_0, # of connection points: 4
#     Node 14, Type 0, BuildingBlock: AZAVOO_clean_sbu_0, # of connection points: 4
#     Node 15, Type 0, BuildingBlock: AZAVOO_clean_sbu_0, # of connection points: 4
#     Edge 16, Type (0, 0), BuildingBlock: XUDNAN_clean_linker_2, # of connection points: 2
#     Edge 17, Type (0, 0), BuildingBlock: XUDNAN_clean_linker_2, # of connection points: 2
#     Edge 18, Type (0, 0), BuildingBlock: XUDNAN_clean_linker_2, # of connection points: 2
#     Edge 19, Type (0, 0), BuildingBlock: XUDNAN_clean_linker_2, # of connection points: 2
#     Edge 20, Type (0, 0), BuildingBlock: XUDNAN_clean_linker_2, # of connection points: 2
#     Edge 21, Type (0, 0), BuildingBlock: XUDNAN_clean_linker_2, # of connection points: 2
#     Edge 22, Type (0, 0), BuildingBlock: XUDNAN_clean_linker_2, # of connection points: 2
#     Edge 23, Type (0, 0), BuildingBlock: XUDNAN_clean_linker_2, # of connection points: 2
#     Edge 24, Type (0, 0), BuildingBlock: XUDNAN_clean_linker_2, # of connection points: 2
#     Edge 25, Type (0, 0), BuildingBlock: XUDNAN_clean_linker_2, # of connection points: 2
#     Edge 26, Type (0, 0), BuildingBlock: XUDNAN_clean_linker_2, # of connection points: 2
#     Edge 27, Type (0, 0), BuildingBlock: XUDNAN_clean_linker_2, # of connection points: 2
#     Edge 28, Type (0, 0), BuildingBlock: XUDNAN_clean_linker_2, # of connection points: 2
#     Edge 29, Type (0, 0), BuildingBlock: XUDNAN_clean_linker_2, # of connection points: 2
#     Edge 30, Type (0, 0), BuildingBlock: XUDNAN_clean_linker_2, # of connection points: 2
#     Edge 31, Type (0, 0), BuildingBlock: XUDNAN_clean_linker_2, # of connection points: 2
#     Edge 32, Type (0, 0), BuildingBlock: XUDNAN_clean_linker_2, # of connection points: 2
#     Edge 33, Type (0, 0), BuildingBlock: XUDNAN_clean_linker_2, # of connection points: 2
#     Edge 34, Type (0, 0), BuildingBlock: XUDNAN_clean_linker_2, # of connection points: 2
#     Edge 35, Type (0, 0), BuildingBlock: XUDNAN_clean_linker_2, # of connection points: 2
#     Edge 36, Type (0, 0), BuildingBlock: XUDNAN_clean_linker_2, # of connection points: 2
#     Edge 37, Type (0, 0), BuildingBlock: XUDNAN_clean_linker_2, # of connection points: 2
#     Edge 38, Type (0, 0), BuildingBlock: XUDNAN_clean_linker_2, # of connection points: 2
#     Edge 39, Type (0, 0), BuildingBlock: XUDNAN_clean_linker_2, # of connection points: 2
#     Edge 40, Type (0, 0), BuildingBlock: XUDNAN_clean_linker_2, # of connection points: 2
#     Edge 41, Type (0, 0), BuildingBlock: XUDNAN_clean_linker_2, # of connection points: 2
#     Edge 42, Type (0, 0), BuildingBlock: XUDNAN_clean_linker_2, # of connection points: 2
#     Edge 43, Type (0, 0), BuildingBlock: XUDNAN_clean_linker_2, # of connection points: 2
#     Edge 44, Type (0, 0), BuildingBlock: XUDNAN_clean_linker_2, # of connection points: 2
#     Edge 45, Type (0, 0), BuildingBlock: XUDNAN_clean_linker_2, # of connection points: 2
#     Edge 46, Type (0, 0), BuildingBlock: XUDNAN_clean_linker_2, # of connection points: 2
#     Edge 47, Type (0, 0), BuildingBlock: XUDNAN_clean_linker_2, # of connection points: 2
# Relax obj value: 0.170
# Max RMSD: 0.199
# Mean RMSD: 0.199
data_MOF--net-uoy--node1-AZAVOO_clean_sbu_0--edge1-XUDNAN_clean_linker_2
_symmetry_space_group_name_H-M    P1
_symmetry_Int_Tables_number       1
_symmetry_cell_setting            triclinic
loop_
_symmetry_equiv_pos_as_xyz
'x, y, z'
_cell_length_a     26.37818
_cell_length_b     26.341431
_cell_length_c     109.45244
_cell_angle_alpha  89.969337
_cell_angle_beta   90.038774
_cell_angle_gamma 90.005298
loop_
_atom_site_label
_atom_site_type_symbol
_atom_site_fract_x
_atom_site_fract_y
_atom_site_fract_z
_atom_type_partial_charge
Mg0 Mg 0.24318 0.16469 0.17721 0.0
O1 O 0.30723 0.10662 0.17859 0.0
O2 O 0.30479 0.0573 0.16199 0.0
Mg3 Mg 0.23408 0.07821 0.15111 0.0
C4 C 0.3254 0.07118 0.17199 0.0
C5 C 0.28983 0.22454 0.19891 0.0
O6 O 0.30584 0.25264 0.18978 0.0
O7 O 0.18432 0.10648 0.18351 0.0
O8 O 0.18083 0.05757 0.1669 0.0
O9 O 0.29442 0.21263 0.16569 0.0
O10 O 0.24113 0.15587 0.15824 0.0
C11 C 0.16586 0.06884 0.17766 0.0
C12 C 0.27745 0.18756 0.15639 0.0
O13 O 0.2612 0.18682 0.19673 0.0
Mg14 Mg 0.79897 0.76198 0.42467 0.0
O15 O 0.86692 0.81516 0.42742 0.0
O16 O 0.92197 0.80138 0.41229 0.0
Mg17 Mg 0.89405 0.7336 0.40133 0.0
C18 C 0.90761 0.82597 0.4217 0.0
C19 C 0.76538 0.83232 0.44559 0.0
O20 O 0.77372 0.86511 0.43677 0.0
O21 O 0.84125 0.69369 0.43248 0.0
O22 O 0.89821 0.67941 0.41777 0.0
O23 O 0.7663 0.81961 0.412 0.0
O24 O 0.81599 0.7566 0.40609 0.0
C25 C 0.87814 0.66836 0.42805 0.0
C26 C 0.79212 0.79788 0.40342 0.0
O27 O 0.77119 0.78523 0.44346 0.0
Mg28 Mg 0.25822 0.32994 0.66847 0.0
O29 O 0.21318 0.40317 0.6704 0.0
O30 O 0.22901 0.45445 0.65464 0.0
Mg31 Mg 0.29326 0.41714 0.64402 0.0
C32 C 0.205 0.44379 0.66441 0.0
C33 C 0.20919 0.27503 0.6915 0.0
O34 O 0.20293 0.23576 0.68427 0.0
O35 O 0.33078 0.36644 0.67544 0.0
O36 O 0.34856 0.42034 0.66026 0.0
O37 O 0.19598 0.30098 0.65671 0.0
O38 O 0.26337 0.34172 0.64964 0.0
C39 C 0.35854 0.40069 0.67065 0.0
C40 C 0.21921 0.32221 0.64763 0.0
O41 O 0.2324 0.3141 0.68769 0.0
Mg42 Mg 0.6512 0.73298 0.92781 0.0
O43 O 0.58863 0.67325 0.92719 0.0
O44 O 0.54706 0.68141 0.90951 0.0
Mg45 Mg 0.58007 0.74991 0.89933 0.0
C46 C 0.55469 0.65878 0.91966 0.0
C47 C 0.70585 0.69099 0.95044 0.0
O48 O 0.7394 0.68232 0.94182 0.0
O49 O 0.59473 0.79605 0.9327 0.0
O50 O 0.55903 0.80687 0.91433 0.0
O51 O 0.70148 0.67961 0.91732 0.0
O52 O 0.65203 0.73727 0.90884 0.0
C53 C 0.56497 0.81986 0.92548 0.0
C54 C 0.68289 0.69996 0.90754 0.0
O55 O 0.66457 0.71303 0.94767 0.0
Mg56 Mg 0.23001 0.32936 0.0626 0.0
O57 O 0.29431 0.38715 0.06528 0.0
O58 O 0.30769 0.39463 0.08535 0.0
Mg59 Mg 0.25059 0.34466 0.09549 0.0
C60 C 0.31892 0.40555 0.07431 0.0
C61 C 0.26134 0.34093 0.03566 0.0
O62 O 0.30282 0.32187 0.04048 0.0
O63 O 0.16819 0.38647 0.06812 0.0
O64 O 0.18197 0.38833 0.08825 0.0
O65 O 0.28902 0.26716 0.06338 0.0
O66 O 0.24634 0.29678 0.07925 0.0
C67 C 0.15609 0.40111 0.07887 0.0
C68 C 0.28132 0.26796 0.07505 0.0
O69 O 0.224 0.35077 0.04258 0.0
Mg70 Mg 0.68514 0.73625 0.30932 0.0
O71 O 0.62478 0.79749 0.31271 0.0
O72 O 0.61961 0.81015 0.33282 0.0
Mg73 Mg 0.67336 0.75413 0.34231 0.0
C74 C 0.60666 0.82119 0.3219 0.0
C75 C 0.66007 0.69024 0.2837 0.0
O76 O 0.66848 0.64763 0.2896 0.0
O77 O 0.63211 0.67098 0.31504 0.0
O78 O 0.63231 0.68337 0.33523 0.0
O79 O 0.74365 0.79868 0.30981 0.0
O80 O 0.71956 0.75268 0.32573 0.0
C81 C 0.61974 0.65734 0.32585 0.0
C82 C 0.74568 0.78961 0.32142 0.0
O83 O 0.66171 0.732 0.28947 0.0
Mg84 Mg 0.2724 0.20637 0.55545 0.0
O85 O 0.20953 0.1488 0.55957 0.0
O86 O 0.19559 0.14821 0.57967 0.0
Mg87 Mg 0.25338 0.20206 0.58848 0.0
C88 C 0.18479 0.13334 0.56887 0.0
C89 C 0.27628 0.21275 0.52813 0.0
O90 O 0.27825 0.26011 0.53188 0.0
O91 O 0.33551 0.15261 0.56189 0.0
O92 O 0.32227 0.1563 0.58203 0.0
O93 O 0.21151 0.26633 0.55504 0.0
O94 O 0.25663 0.24495 0.57134 0.0
C95 C 0.34802 0.14113 0.57284 0.0
C96 C 0.22029 0.27073 0.56662 0.0
O97 O 0.2756 0.17758 0.53605 0.0
Mg98 Mg 0.84763 0.72635 0.80767 0.0
O99 O 0.90943 0.66912 0.8137 0.0
O100 O 0.92253 0.68693 0.83342 0.0
Mg101 Mg 0.8743 0.75404 0.83966 0.0
C102 C 0.93102 0.65994 0.82394 0.0
C103 C 0.82814 0.74026 0.78188 0.0
O104 O 0.80093 0.77227 0.78834 0.0
O105 O 0.90299 0.79294 0.80684 0.0
O106 O 0.9136 0.81023 0.82664 0.0
O107 O 0.78971 0.66989 0.81389 0.0
O108 O 0.82126 0.7319 0.82529 0.0
C109 C 0.92145 0.82033 0.81538 0.0
C110 C 0.79325 0.69219 0.82439 0.0
O111 O 0.85809 0.7105 0.7875 0.0
Mg112 Mg 0.76035 0.63371 0.66828 0.0
O113 O 0.83099 0.58357 0.67023 0.0
O114 O 0.83399 0.5315 0.65411 0.0
Mg115 Mg 0.7619 0.54268 0.64301 0.0
C116 C 0.85304 0.54939 0.66393 0.0
C117 C 0.80723 0.65998 0.69462 0.0
O118 O 0.84854 0.63785 0.69059 0.0
O119 O 0.70827 0.5708 0.67455 0.0
O120 O 0.70979 0.51664 0.65883 0.0
O121 O 0.80489 0.68723 0.65704 0.0
O122 O 0.76204 0.62218 0.64944 0.0
C123 C 0.69416 0.5298 0.66941 0.0
C124 C 0.79293 0.65948 0.6477 0.0
O125 O 0.76835 0.66304 0.68778 0.0
Mg126 Mg 0.31858 0.23528 0.92511 0.0
O127 O 0.37806 0.29832 0.92532 0.0
O128 O 0.42384 0.29377 0.9082 0.0
Mg129 Mg 0.39841 0.22272 0.89789 0.0
C130 C 0.41248 0.31542 0.91825 0.0
C131 C 0.26429 0.28454 0.94737 0.0
O132 O 0.2351 0.30141 0.93853 0.0
O133 O 0.37686 0.17514 0.9309 0.0
O134 O 0.4209 0.16955 0.91354 0.0
O135 O 0.26903 0.28628 0.9137 0.0
O136 O 0.32315 0.23061 0.90618 0.0
C137 C 0.41211 0.15518 0.92449 0.0
C138 C 0.29152 0.26684 0.9043 0.0
O139 O 0.30096 0.25515 0.94481 0.0
Mg140 Mg 0.74094 0.84013 0.17726 0.0
O141 O 0.68473 0.90542 0.17965 0.0
O142 O 0.69616 0.95797 0.16381 0.0
Mg143 Mg 0.76156 0.92929 0.15201 0.0
C144 C 0.67281 0.94494 0.17354 0.0
C145 C 0.71311 0.76497 0.19743 0.0
O146 O 0.71513 0.73571 0.18772 0.0
O147 O 0.80698 0.88893 0.18407 0.0
O148 O 0.8201 0.93624 0.16739 0.0
O149 O 0.6838 0.80012 0.16572 0.0
O150 O 0.74117 0.85331 0.15844 0.0
C151 C 0.83235 0.92201 0.17814 0.0
C152 C 0.70158 0.82575 0.15659 0.0
O153 O 0.72325 0.81191 0.19632 0.0
Mg154 Mg 0.11335 0.266 0.42186 0.0
O155 O 0.06119 0.19709 0.42444 0.0
O156 O 0.00634 0.19592 0.40887 0.0
Mg157 Mg 0.01799 0.26791 0.39766 0.0
C158 C 0.02505 0.17636 0.41853 0.0
C159 C 0.16219 0.20854 0.44334 0.0
O160 O 0.15931 0.17229 0.43513 0.0
O161 O 0.05371 0.31997 0.42906 0.0
O162 O 0.99672 0.32023 0.41391 0.0
O163 O 0.16276 0.22009 0.41002 0.0
O164 O 0.09866 0.26613 0.40307 0.0
C165 C 0.0122 0.33524 0.42437 0.0
C166 C 0.13442 0.23387 0.40094 0.0
O167 O 0.14556 0.25253 0.44073 0.0
Mg168 Mg 0.75148 0.90138 0.5606 0.0
O169 O 0.82278 0.95141 0.56217 0.0
O170 O 0.83647 0.96564 0.58202 0.0
Mg171 Mg 0.77548 0.92401 0.59306 0.0
C172 C 0.84886 0.971 0.57082 0.0
C173 C 0.73464 0.87953 0.53376 0.0
O174 O 0.72748 0.83533 0.53906 0.0
O175 O 0.6981 0.96683 0.56529 0.0
O176 O 0.71072 0.97291 0.5854 0.0
O177 O 0.79966 0.83149 0.56173 0.0
O178 O 0.7669 0.87134 0.57765 0.0
C179 C 0.68694 0.98566 0.57569 0.0
C180 C 0.79536 0.83572 0.57346 0.0
O181 O 0.74536 0.91768 0.54036 0.0
Mg182 Mg 0.15259 0.24987 0.80429 0.0
O183 O 0.09648 0.30731 0.81256 0.0
O184 O 0.09409 0.29048 0.83255 0.0
Mg185 Mg 0.14189 0.22003 0.8367 0.0
C186 C 0.08154 0.31771 0.82337 0.0
C187 C 0.12963 0.23704 0.77721 0.0
O188 O 0.14234 0.19083 0.78055 0.0
O189 O 0.09557 0.18471 0.80481 0.0
O190 O 0.09378 0.16673 0.82473 0.0
O191 O 0.21357 0.30521 0.80931 0.0
O192 O 0.1884 0.24083 0.82089 0.0
C193 C 0.08025 0.15756 0.81374 0.0
C194 C 0.21521 0.28122 0.81963 0.0
O195 O 0.12815 0.27181 0.78524 0.0
Mg196 Mg 0.74954 0.63989 0.06568 0.0
O197 O 0.68075 0.58645 0.06714 0.0
O198 O 0.66725 0.57178 0.08698 0.0
Mg199 Mg 0.72687 0.61465 0.09812 0.0
C200 C 0.65521 0.56605 0.07576 0.0
C201 C 0.71818 0.63393 0.03864 0.0
O202 O 0.67606 0.65052 0.04364 0.0
O203 O 0.80598 0.57649 0.07017 0.0
O204 O 0.79258 0.56841 0.0902 0.0
O205 O 0.69722 0.70706 0.0671 0.0
O206 O 0.73276 0.66785 0.0828 0.0
C207 C 0.81714 0.5571 0.08053 0.0
C208 C 0.70149 0.70139 0.07879 0.0
O209 O 0.756 0.62436 0.04544 0.0
Mg210 Mg 0.37689 0.25705 0.31296 0.0
O211 O 0.42315 0.18297 0.31451 0.0
O212 O 0.43794 0.16973 0.33436 0.0
Mg213 Mg 0.3999 0.23302 0.3454 0.0
C214 C 0.44207 0.15646 0.32318 0.0
C215 C 0.37506 0.2262 0.28595 0.0
O216 O 0.35367 0.18672 0.29118 0.0
O217 O 0.4454 0.30705 0.31731 0.0
O218 O 0.45163 0.29507 0.33745 0.0
O219 O 0.30399 0.21367 0.31445 0.0
O220 O 0.34705 0.24411 0.33015 0.0
C221 C 0.46517 0.31774 0.32765 0.0
C222 C 0.3091 0.21833 0.32615 0.0
O223 O 0.3917 0.2619 0.29262 0.0
H224 H 0.25821 0.18007 0.08563 0.0
H225 H 0.36907 0.30052 0.08519 0.0
H226 H 0.39526 0.27813 0.10616 0.0
H227 H 0.21056 0.20735 0.11119 0.0
H228 H 0.19752 0.145 0.11722 0.0
H229 H 0.20221 0.15396 0.10107 0.0
H230 H 0.27289 0.08614 0.09957 0.0
H231 H 0.26744 0.07539 0.1158 0.0
H232 H 0.32812 0.0909 0.10921 0.0
H233 H 0.38973 0.2615 0.12851 0.0
H234 H 0.35804 0.24744 0.14951 0.0
H235 H 0.24708 0.14108 0.13543 0.0
C236 C 0.29076 0.19874 0.08966 0.0
C237 C 0.31292 0.24063 0.08379 0.0
C238 C 0.35318 0.26697 0.08945 0.0
C239 C 0.36792 0.2547 0.10141 0.0
C240 C 0.34207 0.21586 0.10747 0.0
C241 C 0.3051 0.18728 0.10164 0.0
C242 C 0.27561 0.15523 0.11064 0.0
C243 C 0.21816 0.16613 0.10999 0.0
C244 C 0.2867 0.09855 0.10869 0.0
C245 C 0.29832 0.17374 0.12249 0.0
C246 C 0.33773 0.20733 0.12053 0.0
C247 C 0.36008 0.23394 0.13016 0.0
C248 C 0.34151 0.22613 0.14204 0.0
C249 C 0.30041 0.19269 0.14413 0.0
C250 C 0.27941 0.16575 0.13422 0.0
H251 H 0.84771 0.7632 0.3842 0.0
H252 H 0.74219 0.88165 0.39451 0.0
H253 H 0.73943 0.91087 0.37307 0.0
H254 H 0.9128 0.83761 0.35824 0.0
H255 H 0.91837 0.77991 0.3495 0.0
H256 H 0.92293 0.77795 0.36594 0.0
H257 H 0.85058 0.71127 0.36672 0.0
H258 H 0.84653 0.71263 0.35043 0.0
H259 H 0.79084 0.72555 0.35946 0.0
H260 H 0.731 0.91214 0.35047 0.0
H261 H 0.71407 0.88147 0.32955 0.0
H262 H 0.82898 0.76623 0.33385 0.0
C263 C 0.82577 0.79665 0.38211 0.0
C264 C 0.7955 0.82026 0.39106 0.0
C265 C 0.76598 0.86306 0.38781 0.0
C266 C 0.76457 0.88024 0.37566 0.0
C267 C 0.79384 0.85498 0.36695 0.0
C268 C 0.82447 0.81441 0.37011 0.0
C269 C 0.84585 0.78826 0.35896 0.0
C270 C 0.90341 0.79645 0.35811 0.0
C271 C 0.83256 0.73115 0.3589 0.0
C272 C 0.81845 0.81706 0.349 0.0
C273 C 0.79008 0.85678 0.35372 0.0
C274 C 0.7546 0.8827 0.34657 0.0
C275 C 0.7455 0.86546 0.33464 0.0
C276 C 0.7716 0.82267 0.3301 0.0
C277 C 0.81053 0.80048 0.33704 0.0
H278 H 0.24328 0.35648 0.57803 0.0
H279 H 0.12821 0.24092 0.57489 0.0
H280 H 0.09852 0.26032 0.59573 0.0
H281 H 0.28608 0.32131 0.60294 0.0
H282 H 0.30079 0.38086 0.61025 0.0
H283 H 0.29728 0.37773 0.59398 0.0
H284 H 0.22917 0.44832 0.59347 0.0
H285 H 0.2335 0.45324 0.60987 0.0
H286 H 0.17293 0.4424 0.60271 0.0
H287 H 0.10183 0.27002 0.61825 0.0
H288 H 0.13396 0.27288 0.63945 0.0
H289 H 0.25131 0.37767 0.62808 0.0
C290 C 0.20916 0.33854 0.58145 0.0
C291 C 0.187 0.29846 0.5749 0.0
C292 C 0.1443 0.27309 0.57969 0.0
C293 C 0.12756 0.28367 0.59159 0.0
C294 C 0.15382 0.31995 0.59842 0.0
C295 C 0.19302 0.34815 0.59337 0.0
C296 C 0.22292 0.37582 0.60311 0.0
C297 C 0.28004 0.36306 0.60253 0.0
C298 C 0.21407 0.43336 0.60224 0.0
C299 C 0.1984 0.35427 0.61443 0.0
C300 C 0.15721 0.324 0.61163 0.0
C301 C 0.13294 0.29501 0.62057 0.0
C302 C 0.15173 0.2965 0.63258 0.0
C303 C 0.19519 0.3257 0.63545 0.0
C304 C 0.21765 0.35576 0.62629 0.0
H305 H 0.71979 0.73819 0.83701 0.0
H306 H 0.81562 0.60503 0.83672 0.0
H307 H 0.78839 0.58443 0.85787 0.0
H308 H 0.7482 0.77742 0.86516 0.0
H309 H 0.68613 0.80014 0.86935 0.0
H310 H 0.70409 0.7977 0.85355 0.0
H311 H 0.62602 0.7415 0.84863 0.0
H312 H 0.6072 0.74436 0.86444 0.0
H313 H 0.61577 0.68372 0.85711 0.0
H314 H 0.76297 0.5889 0.88026 0.0
H315 H 0.73751 0.61464 0.90117 0.0
H316 H 0.65802 0.74439 0.88604 0.0
C317 C 0.73305 0.70345 0.84125 0.0
C318 C 0.76856 0.67238 0.83532 0.0
C319 C 0.78709 0.62823 0.84113 0.0
C320 C 0.77201 0.61651 0.85312 0.0
C321 C 0.73799 0.64908 0.85895 0.0
C322 C 0.71797 0.69112 0.85307 0.0
C323 C 0.68658 0.72329 0.86159 0.0
C324 C 0.70755 0.77781 0.86246 0.0
C325 C 0.63056 0.72318 0.85771 0.0
C326 C 0.69417 0.69448 0.87336 0.0
C327 C 0.72328 0.6514 0.87171 0.0
C328 C 0.73905 0.62181 0.8816 0.0
C329 C 0.72473 0.63684 0.89343 0.0
C330 C 0.69526 0.68115 0.89521 0.0
C331 C 0.67945 0.70964 0.88499 0.0
H332 H 0.83548 0.85533 0.59578 0.0
H333 H 0.805 0.73378 0.57023 0.0
H334 H 0.82068 0.67075 0.58653 0.0
H335 H 0.93118 0.78114 0.61587 0.0
H336 H 0.90648 0.81183 0.62932 0.0
H337 H 0.90858 0.84563 0.615 0.0
H338 H 0.81241 0.86398 0.61681 0.0
H339 H 0.80973 0.82984 0.63095 0.0
H340 H 0.76886 0.81166 0.61849 0.0
H341 H 0.81435 0.62462 0.60626 0.0
H342 H 0.7947 0.59847 0.62733 0.0
H343 H 0.83213 0.74945 0.64022 0.0
C344 C 0.83402 0.81539 0.59355 0.0
C345 C 0.81877 0.79914 0.58186 0.0
C346 C 0.81726 0.74675 0.57914 0.0
C347 C 0.82607 0.71076 0.58836 0.0
C348 C 0.83761 0.72807 0.60008 0.0
C349 C 0.84307 0.77925 0.60262 0.0
C350 C 0.84836 0.7887 0.61619 0.0
C351 C 0.90185 0.80795 0.61927 0.0
C352 C 0.80739 0.82567 0.62087 0.0
C353 C 0.84025 0.73551 0.62099 0.0
C354 C 0.83533 0.70082 0.61157 0.0
C355 C 0.81998 0.65097 0.61372 0.0
C356 C 0.80844 0.63653 0.62573 0.0
C357 C 0.81231 0.67184 0.63542 0.0
C358 C 0.83007 0.72132 0.63303 0.0
H359 H 0.3249 0.22403 0.88333 0.0
H360 H 0.2401 0.35307 0.89699 0.0
H361 H 0.22562 0.38182 0.87567 0.0
H362 H 0.38248 0.28795 0.85632 0.0
H363 H 0.37604 0.23123 0.84724 0.0
H364 H 0.38662 0.22643 0.86347 0.0
H365 H 0.30557 0.17126 0.8657 0.0
H366 H 0.29532 0.1754 0.84953 0.0
H367 H 0.24612 0.19513 0.85992 0.0
H368 H 0.21144 0.38929 0.85276 0.0
H369 H 0.19222 0.36998 0.83108 0.0
H370 H 0.28691 0.23629 0.83309 0.0
C371 C 0.30461 0.25925 0.88192 0.0
C372 C 0.28421 0.2867 0.89181 0.0
C373 C 0.25632 0.33161 0.88951 0.0
C374 C 0.24835 0.34843 0.87746 0.0
C375 C 0.26896 0.32008 0.86789 0.0
C376 C 0.29651 0.27636 0.87006 0.0
C377 C 0.30951 0.24888 0.85838 0.0
C378 C 0.36709 0.24864 0.85623 0.0
C379 C 0.28779 0.19451 0.85839 0.0
C380 C 0.28285 0.28246 0.84926 0.0
C381 C 0.26077 0.32421 0.8548 0.0
C382 C 0.22971 0.35758 0.84829 0.0
C383 C 0.21934 0.34668 0.83597 0.0
C384 C 0.23945 0.30251 0.83048 0.0
C385 C 0.27276 0.27119 0.83706 0.0
H386 H 0.65227 0.66828 0.09886 0.0
H387 H 0.68978 0.80399 0.07857 0.0
H388 H 0.66869 0.8563 0.09659 0.0
H389 H 0.55367 0.73142 0.1211 0.0
H390 H 0.57679 0.69163 0.1333 0.0
H391 H 0.57441 0.66762 0.11787 0.0
H392 H 0.66963 0.64506 0.11926 0.0
H393 H 0.6729 0.66976 0.13446 0.0
H394 H 0.71486 0.69423 0.12286 0.0
H395 H 0.67247 0.88914 0.11758 0.0
H396 H 0.69521 0.90038 0.13921 0.0
H397 H 0.65672 0.74351 0.14646 0.0
C398 C 0.65382 0.70917 0.09812 0.0
C399 C 0.67285 0.7324 0.0875 0.0
C400 C 0.67452 0.7858 0.08665 0.0
C401 C 0.66263 0.81569 0.09686 0.0
C402 C 0.64825 0.79135 0.10766 0.0
C403 C 0.64238 0.73916 0.10825 0.0
C404 C 0.63622 0.72113 0.12131 0.0
C405 C 0.58204 0.70183 0.12352 0.0
C406 C 0.67579 0.68023 0.12466 0.0
C407 C 0.64555 0.77032 0.12805 0.0
C408 C 0.65045 0.81072 0.12003 0.0
C409 C 0.66716 0.8582 0.12396 0.0
C410 C 0.68083 0.86405 0.13624 0.0
C411 C 0.67812 0.82259 0.14442 0.0
C412 C 0.65808 0.77597 0.14039 0.0
H413 H 0.22056 0.18826 0.39315 0.0
H414 H 0.0735 0.2399 0.38056 0.0
H415 H 0.09782 0.21988 0.35934 0.0
H416 H 0.28696 0.24834 0.37186 0.0
H417 H 0.33576 0.20118 0.36984 0.0
H418 H 0.30219 0.20482 0.38404 0.0
H419 H 0.27624 0.11026 0.38202 0.0
H420 H 0.31 0.10631 0.36773 0.0
H421 H 0.24398 0.0889 0.36844 0.0
H422 H 0.14295 0.20933 0.33948 0.0
H423 H 0.20678 0.21843 0.32308 0.0
H424 H 0.32545 0.1781 0.34864 0.0
C425 C 0.1927 0.19345 0.38599 0.0
C426 C 0.14495 0.21506 0.38851 0.0
C427 C 0.11014 0.22296 0.37885 0.0
C428 C 0.12353 0.21129 0.36677 0.0
C429 C 0.1718 0.19179 0.36453 0.0
C430 C 0.20588 0.18294 0.3739 0.0
C431 C 0.2582 0.17093 0.36906 0.0
C432 C 0.29806 0.20858 0.37399 0.0
C433 C 0.27295 0.11581 0.37198 0.0
C434 C 0.24918 0.17796 0.35553 0.0
C435 C 0.19871 0.18785 0.35303 0.0
C436 C 0.18232 0.20054 0.34129 0.0
C437 C 0.21874 0.2055 0.33203 0.0
C438 C 0.27078 0.19911 0.3347 0.0
C439 C 0.28581 0.18312 0.34643 0.0
H440 H 0.27517 0.16518 0.21911 0.0
H441 H 0.34684 0.30481 0.20698 0.0
H442 H 0.38059 0.31838 0.2278 0.0
H443 H 0.23821 0.20884 0.24863 0.0
H444 H 0.25085 0.14897 0.25602 0.0
H445 H 0.23313 0.15043 0.24014 0.0
H446 H 0.31475 0.10059 0.23464 0.0
H447 H 0.33298 0.09941 0.2505 0.0
H448 H 0.3756 0.12525 0.23923 0.0
H449 H 0.40508 0.31726 0.25006 0.0
H450 H 0.41588 0.30313 0.27222 0.0
H451 H 0.32938 0.16332 0.26942 0.0
C452 C 0.2978 0.19875 0.22082 0.0
C453 C 0.30828 0.23402 0.21144 0.0
C454 C 0.3383 0.27729 0.21404 0.0
C455 C 0.35776 0.28525 0.22582 0.0
C456 C 0.34708 0.24942 0.23482 0.0
C457 C 0.31772 0.2071 0.23246 0.0
C458 C 0.31127 0.17459 0.24374 0.0
C459 C 0.25503 0.1705 0.24734 0.0
C460 C 0.33508 0.12185 0.24191 0.0
C461 C 0.34097 0.20563 0.25288 0.0
C462 C 0.3616 0.2485 0.24756 0.0
C463 C 0.38934 0.2837 0.25431 0.0
C464 C 0.39531 0.2753 0.26688 0.0
C465 C 0.37356 0.23208 0.27254 0.0
C466 C 0.34682 0.19652 0.26537 0.0
H467 H 0.74593 0.77448 0.46585 0.0
H468 H 0.75926 0.93065 0.45354 0.0
H469 H 0.74665 0.96038 0.4747 0.0
H470 H 0.64958 0.79786 0.48952 0.0
H471 H 0.67706 0.75198 0.49979 0.0
H472 H 0.68253 0.74337 0.48351 0.0
H473 H 0.78029 0.73784 0.4856 0.0
H474 H 0.77516 0.74663 0.50185 0.0
H475 H 0.81419 0.78886 0.49294 0.0
H476 H 0.74035 0.97265 0.49743 0.0
H477 H 0.7385 0.96641 0.51996 0.0
H478 H 0.72799 0.80232 0.5172 0.0
C479 C 0.74541 0.81497 0.46756 0.0
C480 C 0.75352 0.85024 0.45804 0.0
C481 C 0.75294 0.9029 0.46068 0.0
C482 C 0.74577 0.92019 0.47267 0.0
C483 C 0.7388 0.88434 0.48187 0.0
C484 C 0.73814 0.83285 0.47944 0.0
C485 C 0.73241 0.80207 0.49102 0.0
C486 C 0.68241 0.77206 0.49095 0.0
C487 C 0.77824 0.76679 0.49297 0.0
C488 C 0.73126 0.84424 0.50039 0.0
C489 C 0.73466 0.89144 0.49494 0.0
C490 C 0.737 0.93594 0.5018 0.0
C491 C 0.73609 0.93201 0.51458 0.0
C492 C 0.73288 0.88391 0.52032 0.0
C493 C 0.7299 0.83967 0.51308 0.0
H494 H 0.19076 0.19568 0.70715 0.0
H495 H 0.1749 0.35883 0.70323 0.0
H496 H 0.13927 0.36423 0.72397 0.0
H497 H 0.07681 0.17492 0.727 0.0
H498 H 0.10915 0.12825 0.7362 0.0
H499 H 0.12513 0.13546 0.72027 0.0
H500 H 0.21933 0.14981 0.7261 0.0
H501 H 0.20366 0.14247 0.74198 0.0
H502 H 0.23533 0.19922 0.73683 0.0
H503 H 0.11455 0.35412 0.74557 0.0
H504 H 0.10833 0.32989 0.76726 0.0
H505 H 0.14221 0.17357 0.75765 0.0
C506 C 0.17861 0.23224 0.7106 0.0
C507 C 0.18533 0.27677 0.70364 0.0
C508 C 0.17021 0.32426 0.70848 0.0
C509 C 0.14946 0.32768 0.72019 0.0
C510 C 0.14418 0.28328 0.72695 0.0
C511 C 0.15847 0.23644 0.72239 0.0
C512 C 0.15453 0.19568 0.7321 0.0
C513 C 0.11398 0.15625 0.72869 0.0
C514 C 0.20629 0.17035 0.73439 0.0
C515 C 0.13791 0.22738 0.74292 0.0
C516 C 0.13094 0.27756 0.73967 0.0
C517 C 0.11915 0.31482 0.74823 0.0
C518 C 0.1158 0.3007 0.76053 0.0
C519 C 0.12485 0.24988 0.76414 0.0
C520 C 0.1346 0.21262 0.75516 0.0
H521 H 0.64902 0.66436 0.02151 0.0
H522 H 0.7992 0.59881 0.02549 0.0
H523 H 0.81057 0.60204 0.00312 0.0
H524 H 0.61641 0.60108 0.99259 0.0
H525 H 0.58351 0.65606 0.98681 0.0
H526 H 0.58544 0.64398 0.00301 0.0
H527 H 0.62326 0.7336 0.00658 0.0
H528 H 0.62185 0.7458 0.99041 0.0
H529 H 0.68056 0.75165 -0.00127 0.0
H530 H 0.80805 0.61823 0.98056 0.0
H531 H 0.79115 0.6447 0.95931 0.0
H532 H 0.64295 0.70039 0.97021 0.0
C533 C 0.68397 0.64983 0.01767 0.0
C534 C 0.72319 0.63126 0.02523 0.0
C535 C 0.76858 0.61315 0.01986 0.0
C536 C 0.77539 0.61476 0.00717 0.0
C537 C 0.73638 0.63439 1e-05 0.0
C538 C 0.69143 0.6513 0.00505 0.0
C539 C 0.65654 0.67309 -0.00459 0.0
C540 C 0.60758 0.64166 -0.0056 0.0
C541 C 0.6449 0.72937 -0.00206 0.0
C542 C 0.68936 0.66684 0.98419 0.0
C543 C 0.73507 0.64405 0.98702 0.0
C544 C 0.77222 0.6357 0.97821 0.0
C545 C 0.76231 0.65101 0.96618 0.0
C546 C 0.71575 0.67462 0.96311 0.0
C547 C 0.67887 0.68237 0.97226 0.0
H548 H 0.32595 0.30402 0.01832 0.0
H549 H 0.18375 0.3849 0.02276 0.0
H550 H 0.17081 0.38302 0.0004 0.0
H551 H 0.36359 0.36277 0.98924 0.0
H552 H 0.38988 0.30435 0.98348 0.0
H553 H 0.39017 0.31689 -0.00034 0.0
H554 H 0.34289 0.23206 0.00347 0.0
H555 H 0.34196 0.21951 0.98731 0.0
H556 H 0.28347 0.22038 -0.00418 0.0
H557 H 0.17087 0.36722 0.97769 0.0
H558 H 0.18439 0.33952 0.95637 0.0
H559 H 0.32543 0.26715 0.96713 0.0
C560 C 0.29255 0.32226 0.01459 0.0
C561 C 0.25595 0.3448 0.02227 0.0
C562 C 0.21237 0.36753 0.01703 0.0
C563 C 0.2047 0.36668 0.00435 0.0
C564 C 0.24098 0.343 -0.00293 0.0
C565 C 0.28416 0.32142 0.002 0.0
C566 C 0.31588 0.29572 0.9923 0.0
C567 C 0.36796 0.32149 0.9911 0.0
C568 C 0.32134 0.23854 -0.00512 0.0
C569 C 0.28334 0.30538 0.98117 0.0
C570 C 0.24055 0.33311 0.98407 0.0
C571 C 0.2044 0.34577 0.97529 0.0
C572 C 0.21235 0.32977 0.96322 0.0
C573 C 0.25587 0.30107 0.96009 0.0
C574 C 0.2917 0.2889 0.96922 0.0
H575 H 0.65974 0.77319 0.26873 0.0
H576 H 0.65488 0.60845 0.26822 0.0
H577 H 0.66113 0.60984 0.24568 0.0
H578 H 0.58972 0.7946 0.23982 0.0
H579 H 0.62938 0.84774 0.23578 0.0
H580 H 0.6172 0.83363 0.25162 0.0
H581 H 0.71394 0.82935 0.25566 0.0
H582 H 0.72645 0.84278 0.23984 0.0
H583 H 0.75245 0.78647 0.2468 0.0
H584 H 0.67646 0.62922 0.22345 0.0
H585 H 0.69843 0.66492 0.20327 0.0
H586 H 0.69545 0.81676 0.21868 0.0
C587 C 0.65871 0.73736 0.26389 0.0
C588 C 0.65664 0.69068 0.27023 0.0
C589 C 0.65624 0.64466 0.26354 0.0
C590 C 0.65972 0.64508 0.25075 0.0
C591 C 0.66338 0.6918 0.24482 0.0
C592 C 0.66251 0.7371 0.25118 0.0
C593 C 0.67101 0.78201 0.24281 0.0
C594 C 0.62402 0.81652 0.24249 0.0
C595 C 0.71881 0.81187 0.2465 0.0
C596 C 0.67831 0.75484 0.23079 0.0
C597 C 0.6731 0.70291 0.23209 0.0
C598 C 0.68007 0.66986 0.2223 0.0
C599 C 0.6927 0.6905 0.21089 0.0
C600 C 0.69872 0.74361 0.20941 0.0
C601 C 0.6911 0.77602 0.21951 0.0
H602 H 0.18752 0.27794 0.46083 0.0
H603 H 0.18767 0.11627 0.45314 0.0
H604 H 0.22346 0.0996 0.47363 0.0
H605 H 0.30554 0.2797 0.47828 0.0
H606 H 0.28238 0.32682 0.48883 0.0
H607 H 0.25953 0.32593 0.47331 0.0
H608 H 0.16697 0.31986 0.48116 0.0
H609 H 0.18949 0.32093 0.49667 0.0
H610 H 0.14981 0.26948 0.49152 0.0
H611 H 0.25343 0.10058 0.49554 0.0
H612 H 0.2754 0.11928 0.51704 0.0
H613 H 0.25773 0.2804 0.50983 0.0
C614 C 0.19536 0.23903 0.46341 0.0
C615 C 0.18477 0.19839 0.45542 0.0
C616 C 0.19564 0.14801 0.45913 0.0
C617 C 0.21604 0.13817 0.47073 0.0
C618 C 0.22581 0.17918 0.47841 0.0
C619 C 0.21606 0.2286 0.47487 0.0
C620 C 0.22831 0.26586 0.48493 0.0
C621 C 0.27152 0.30168 0.48111 0.0
C622 C 0.18081 0.29576 0.4888 0.0
C623 C 0.24528 0.2296 0.49482 0.0
C624 C 0.24391 0.17978 0.49089 0.0
C625 C 0.25528 0.13948 0.49868 0.0
C626 C 0.26766 0.15046 0.51086 0.0
C627 C 0.26853 0.20129 0.51508 0.0
C628 C 0.25803 0.2412 0.50686 0.0
H629 H 0.87058 0.63851 0.71385 0.0
H630 H 0.73918 0.72829 0.70358 0.0
H631 H 0.73395 0.76187 0.72455 0.0
H632 H 0.82504 0.60306 0.74309 0.0
H633 H 0.88596 0.60624 0.75053 0.0
H634 H 0.88221 0.59211 0.73446 0.0
H635 H 0.94199 0.66765 0.72973 0.0
H636 H 0.94597 0.68201 0.7458 0.0
H637 H 0.92583 0.7302 0.73515 0.0
H638 H 0.74107 0.78395 0.74643 0.0
H639 H 0.75723 0.79044 0.76849 0.0
H640 H 0.88231 0.68405 0.76508 0.0
C641 C 0.84112 0.66571 0.71598 0.0
C642 C 0.80542 0.68104 0.70708 0.0
C643 C 0.76689 0.71604 0.71026 0.0
C644 C 0.76374 0.73549 0.72213 0.0
C645 C 0.79921 0.71934 0.73071 0.0
C646 C 0.83705 0.68511 0.72784 0.0
C647 C 0.86854 0.67199 0.739 0.0
C648 C 0.86521 0.61497 0.74194 0.0
C649 C 0.92386 0.68899 0.73732 0.0
C650 C 0.84193 0.70365 0.7486 0.0
C651 C 0.80251 0.73113 0.74354 0.0
C652 C 0.77189 0.76277 0.75052 0.0
C653 C 0.78145 0.76616 0.76305 0.0
C654 C 0.82099 0.73766 0.76852 0.0
C655 C 0.85182 0.70625 0.76116 0.0
H656 H 0.11773 0.98842 0.16725 0.0
H657 H 0.11144 0.08803 0.19877 0.0
H658 H 0.02817 0.05133 0.20437 0.0
H659 H 0.99646 0.00657 0.15849 0.0
H660 H 0.98557 0.94292 0.15305 0.0
H661 H 0.04869 0.96833 0.15319 0.0
H662 H 0.07949 0.89263 0.1664 0.0
H663 H 0.01632 0.86654 0.16621 0.0
H664 H 0.04769 0.87834 0.18057 0.0
H665 H 0.93919 0.01139 0.20468 0.0
H666 H 0.85505 0.97482 0.19922 0.0
H667 H 0.92099 0.90703 0.16692 0.0
C668 C 0.09983 0.00162 0.17556 0.0
C669 C 0.12136 0.04105 0.18258 0.0
C670 C 0.09598 0.05753 0.19329 0.0
C671 C 0.04862 0.03687 0.19654 0.0
C672 C 0.02741 0.99962 0.18903 0.0
C673 C 0.05265 0.982 0.1788 0.0
C674 C 0.01993 0.94681 0.1713 0.0
C675 C 0.01221 0.96743 0.15825 0.0
C676 C 0.04219 0.89288 0.17112 0.0
C677 C 0.9715 0.94877 0.1786 0.0
C678 C 0.97649 0.97832 0.18897 0.0
C679 C 0.93522 0.9876 0.19668 0.0
C680 C 0.8877 0.96681 0.19355 0.0
C681 C 0.88215 0.93829 0.1827 0.0
C682 C 0.92466 0.92858 0.17531 0.0
H683 H 0.05163 0.42805 0.42784 0.0
H684 H 0.91385 0.34097 0.43227 0.0
H685 H 0.86827 0.419 0.43866 0.0
H686 H 0.02776 0.5291 0.45175 0.0
H687 H 0.05307 0.57769 0.44189 0.0
H688 H 0.07775 0.51392 0.44114 0.0
H689 H 0.0584 0.51105 0.41793 0.0
H690 H 0.03393 0.57453 0.4186 0.0
H691 H 0.99489 0.52403 0.41268 0.0
H692 H 0.83573 0.50773 0.4419 0.0
H693 H 0.81547 0.59812 0.4383 0.0
H694 H 0.97275 0.62742 0.42941 0.0
C695 C 0.01241 0.42528 0.4307 0.0
C696 C 0.98637 0.3787 0.43001 0.0
C697 C 0.93444 0.37639 0.43308 0.0
C698 C 0.9085 0.42042 0.43676 0.0
C699 C 0.93499 0.46636 0.43708 0.0
C700 C 0.98578 0.46906 0.43397 0.0
C701 C 0.00321 0.52354 0.43265 0.0
C702 C 0.04279 0.53684 0.44245 0.0
C703 C 0.02376 0.53386 0.4197 0.0
C704 C 0.95385 0.55117 0.43492 0.0
C705 C 0.91542 0.51775 0.43797 0.0
C706 C 0.86568 0.53427 0.43969 0.0
C707 C 0.85455 0.58574 0.4377 0.0
C708 C 0.89271 0.61959 0.43367 0.0
C709 C 0.94315 0.60235 0.43267 0.0
H710 H 0.40174 0.49381 0.67323 0.0
H711 H 0.4277 0.33361 0.67948 0.0
H712 H 0.51847 0.35084 0.68334 0.0
H713 H 0.50515 0.51907 0.65709 0.0
H714 H 0.51956 0.58057 0.66342 0.0
H715 H 0.45563 0.55736 0.66372 0.0
H716 H 0.45238 0.56882 0.68722 0.0
H717 H 0.51639 0.59285 0.68699 0.0
H718 H 0.50036 0.53975 0.69664 0.0
H719 H 0.6078 0.38268 0.68078 0.0
H720 H 0.68674 0.42896 0.67542 0.0
H721 H 0.60223 0.5695 0.67355 0.0
C722 C 0.42625 0.46283 0.67596 0.0
C723 C 0.40804 0.41256 0.67617 0.0
C724 C 0.44099 0.37252 0.67951 0.0
C725 C 0.4926 0.38196 0.68166 0.0
C726 C 0.51005 0.43183 0.68084 0.0
C727 C 0.47744 0.47186 0.6785 0.0
C728 C 0.50607 0.52131 0.67715 0.0
C729 C 0.49601 0.54596 0.6646 0.0
C730 C 0.49303 0.55784 0.68763 0.0
C731 C 0.56002 0.50236 0.67821 0.0
C732 C 0.56173 0.45064 0.68037 0.0
C733 C 0.60716 0.42349 0.67965 0.0
C734 C 0.65171 0.44986 0.67657 0.0
C735 C 0.65039 0.50278 0.67454 0.0
C736 C 0.60429 0.52934 0.67564 0.0
H737 H 0.48478 0.1021 0.91242 0.0
H738 H 0.39978 0.10316 0.94635 0.0
H739 H 0.43608 0.01906 0.95163 0.0
H740 H 0.45988 0.97843 0.90528 0.0
H741 H 0.52057 0.96596 0.89834 0.0
H742 H 0.49563 0.02941 0.89845 0.0
H743 H 0.57685 0.06209 0.90926 0.0
H744 H 0.60249 0.9987 0.90904 0.0
H745 H 0.59738 0.03261 0.92328 0.0
H746 H 0.47771 0.92947 0.95205 0.0
H747 H 0.51654 0.84565 0.9471 0.0
H748 H 0.56602 0.90527 0.9122 0.0
C749 C 0.47456 0.08559 0.92114 0.0
C750 C 0.43955 0.10958 0.92899 0.0
C751 C 0.42691 0.08583 0.94022 0.0
C752 C 0.44731 0.03799 0.94328 0.0
C753 C 0.48019 0.01455 0.93502 0.0
C754 C 0.4937 0.038 0.92419 0.0
C755 C 0.52511 0.00372 0.91617 0.0
C756 C 0.49869 0.99381 0.90384 0.0
C757 C 0.57863 0.02558 0.91434 0.0
C758 C 0.52628 0.95662 0.92398 0.0
C759 C 0.50128 0.96341 0.93495 0.0
C760 C 0.49745 0.924 0.94348 0.0
C761 C 0.51944 0.87662 0.94062 0.0
C762 C 0.54344 0.86912 0.92921 0.0
C763 C 0.54716 0.90984 0.92092 0.0
H764 H 0.089 0.44262 0.06192 0.0
H765 H 0.11102 0.41749 0.10086 0.0
H766 H 0.02556 0.44926 0.10489 0.0
H767 H 0.01757 0.56118 0.0658 0.0
H768 H 0.97583 0.54871 0.0531 0.0
H769 H 0.03941 0.52374 0.05306 0.0
H770 H 0.00341 0.43322 0.04987 0.0
H771 H 0.93968 0.45783 0.05012 0.0
H772 H 0.95793 0.40827 0.0606 0.0
H773 H 0.93717 0.4772 0.10497 0.0
H774 H 0.85381 0.51562 0.10155 0.0
H775 H 0.88741 0.52971 0.06279 0.0
C776 C 0.076 0.44437 0.0713 0.0
C777 C 0.10697 0.42711 0.08104 0.0
C778 C 0.08845 0.43033 0.09319 0.0
C779 C 0.03962 0.44802 0.09561 0.0
C780 C 0.00969 0.46324 0.08583 0.0
C781 C 0.02726 0.46294 0.07395 0.0
C782 C 0.98721 0.48369 0.06529 0.0
C783 C 0.00614 0.53222 0.05894 0.0
C784 C 0.97112 0.44333 0.05591 0.0
C785 C 0.94457 0.49516 0.07421 0.0
C786 C 0.95844 0.48216 0.08596 0.0
C787 C 0.9259 0.48814 0.09583 0.0
C788 C 0.87839 0.50987 0.09376 0.0
C789 C 0.86387 0.5262 0.08191 0.0
C790 C 0.89719 0.51766 0.07195 0.0
H791 H 0.57635 0.59072 0.30908 0.0
H792 H 0.61232 0.60815 0.34763 0.0
H793 H 0.58414 0.52109 0.3515 0.0
H794 H 0.46158 0.51729 0.31422 0.0
H795 H 0.47077 0.47718 0.30107 0.0
H796 H 0.49539 0.54095 0.30109 0.0
H797 H 0.5849 0.50585 0.29627 0.0
H798 H 0.56064 0.44188 0.29644 0.0
H799 H 0.61277 0.45909 0.30626 0.0
H800 H 0.55581 0.43229 0.35146 0.0
H801 H 0.51433 0.35005 0.34816 0.0
H802 H 0.49077 0.3886 0.30994 0.0
C803 C 0.57795 0.57628 0.31833 0.0
C804 C 0.59686 0.60657 0.32802 0.0
C805 C 0.59799 0.58616 0.34002 0.0
C806 C 0.58245 0.5364 0.34234 0.0
C807 C 0.56518 0.5073 0.33261 0.0
C808 C 0.56166 0.52654 0.32089 0.0
C809 C 0.53877 0.48741 0.31231 0.0
C810 C 0.48864 0.50687 0.30686 0.0
C811 C 0.57654 0.4727 0.30222 0.0
C812 C 0.52994 0.44355 0.32109 0.0
C813 C 0.54647 0.45582 0.33269 0.0
C814 C 0.54239 0.4222 0.34244 0.0
C815 C 0.51886 0.37538 0.34043 0.0
C816 C 0.4989 0.36266 0.3288 0.0
C817 C 0.50583 0.39686 0.31892 0.0
H818 H 0.61785 0.01398 0.55784 0.0
H819 H 0.64987 0.02738 0.59669 0.0
H820 H 0.56641 0.06625 0.59988 0.0
H821 H 0.54752 0.13533 0.55544 0.0
H822 H 0.50293 0.11015 0.54453 0.0
H823 H 0.56673 0.08579 0.54508 0.0
H824 H 0.53113 0.99491 0.54792 0.0
H825 H 0.46727 0.01908 0.54763 0.0
H826 H 0.48876 0.98194 0.56046 0.0
H827 H 0.47762 0.09486 0.59948 0.0
H828 H 0.39203 0.12599 0.59508 0.0
H829 H 0.41636 0.09955 0.5563 0.0
C830 C 0.60778 0.02608 0.56698 0.0
C831 C 0.64063 0.01724 0.57702 0.0
C832 C 0.62566 0.03349 0.58883 0.0
C833 C 0.57811 0.05546 0.59077 0.0
C834 C 0.546 0.0617 0.5808 0.0
C835 C 0.5604 0.0487 0.56909 0.0
C836 C 0.5181 0.05983 0.56004 0.0
C837 C 0.53482 0.10018 0.55072 0.0
C838 C 0.50028 0.01103 0.55364 0.0
C839 C 0.47759 0.0803 0.56857 0.0
C840 C 0.4946 0.08041 0.58051 0.0
C841 C 0.46402 0.09573 0.59015 0.0
C842 C 0.41516 0.11307 0.58752 0.0
C843 C 0.39722 0.11565 0.57531 0.0
C844 C 0.42883 0.09826 0.56572 0.0
H845 H 0.04637 0.08786 0.83041 0.0
H846 H 0.04983 0.1193 0.79146 0.0
H847 H 0.01111 0.03542 0.78744 0.0
H848 H 0.08049 0.95872 0.82841 0.0
H849 H 0.03981 0.93853 0.84071 0.0
H850 H 0.06472 0.00215 0.84055 0.0
H851 H 0.97372 0.03892 0.84184 0.0
H852 H 0.94854 0.9754 0.84221 0.0
H853 H 0.92693 0.0196 0.83076 0.0
H854 H 0.97501 0.94552 0.78779 0.0
H855 H 0.93944 0.86089 0.79255 0.0
H856 H 0.96227 0.88961 0.83124 0.0
C857 C 0.03839 0.07766 0.82102 0.0
C858 C 0.05111 0.11044 0.81126 0.0
C859 C 0.04023 0.09508 0.79912 0.0
C860 C 0.01846 0.04736 0.79673 0.0
C861 C 0.0078 0.01548 0.80658 0.0
C862 C 0.01701 0.03031 0.81849 0.0
C863 C 0.00308 0.989 0.82748 0.0
C864 C 0.04982 0.97105 0.83471 0.0
C865 C 0.96053 0.00679 0.83607 0.0
C866 C 0.98465 0.94839 0.81879 0.0
C867 C 0.98767 0.96416 0.80677 0.0
C868 C 0.97241 0.93287 0.79717 0.0
C869 C 0.95249 0.88472 0.79997 0.0
C870 C 0.94805 0.86833 0.81227 0.0
C871 C 0.9652 0.90062 0.82173 0.0
H872 H 0.60638 0.98505 0.15739 0.0
H873 H 0.62925 0.95874 0.19611 0.0
H874 H 0.54244 0.99068 0.20027 0.0
H875 H 0.52572 0.09778 0.15948 0.0
H876 H 0.48641 0.07731 0.14694 0.0
H877 H 0.55225 0.05931 0.14746 0.0
H878 H 0.52615 0.96469 0.1457 0.0
H879 H 0.46024 0.98226 0.14541 0.0
H880 H 0.48296 0.9381 0.15674 0.0
H881 H 0.45156 0.0244 0.19985 0.0
H882 H 0.36419 0.0527 0.19484 0.0
H883 H 0.40051 0.04654 0.15624 0.0
C884 C 0.59378 0.98753 0.16679 0.0
C885 C 0.62478 0.9707 0.17648 0.0
C886 C 0.60619 0.97236 0.1886 0.0
C887 C 0.55701 0.99029 0.19103 0.0
C888 C 0.52688 0.00534 0.18118 0.0
C889 C 0.54463 0.00384 0.16931 0.0
C890 C 0.50373 0.01748 0.16022 0.0
C891 C 0.51787 0.06585 0.15311 0.0
C892 C 0.49263 0.97297 0.15151 0.0
C893 C 0.45996 0.0268 0.1688 0.0
C894 C 0.47405 0.0205 0.18087 0.0
C895 C 0.44006 0.029 0.19042 0.0
C896 C 0.39062 0.04483 0.18751 0.0
C897 C 0.37559 0.05062 0.17517 0.0
C898 C 0.41067 0.04107 0.16575 0.0
H899 H 0.94931 0.8908 0.40546 0.0
H900 H 0.91891 0.87197 0.44411 0.0
H901 H 0.95053 0.95933 0.44794 0.0
H902 H 0.06115 0.9732 0.40759 0.0
H903 H 0.04104 0.01097 0.39473 0.0
H904 H 0.02402 0.94483 0.39556 0.0
H905 H 0.92927 0.9692 0.39322 0.0
H906 H 0.94583 0.0354 0.3926 0.0
H907 H 0.90128 0.01319 0.40388 0.0
H908 H 0.98404 0.05077 0.44715 0.0
H909 H 0.00942 0.13876 0.44164 0.0
H910 H 0.00639 0.09789 0.4033 0.0
C911 C 0.95095 0.90436 0.4148 0.0
C912 C 0.93315 0.87431 0.42455 0.0
C913 C 0.93348 0.89423 0.43656 0.0
C914 C 0.95124 0.94372 0.4388 0.0
C915 C 0.96741 0.97287 0.42888 0.0
C916 C 0.96695 0.95385 0.41711 0.0
C917 C 0.98061 0.99404 0.40783 0.0
C918 C 0.02962 0.97991 0.40103 0.0
C919 C 0.93662 0.0035 0.39886 0.0
C920 C 0.98864 0.03891 0.41618 0.0
C921 C 0.98196 0.02597 0.42831 0.0
C922 C 0.98896 0.06133 0.43766 0.0
C923 C 0.00318 0.11108 0.43448 0.0
C924 C 0.00868 0.125 0.42206 0.0
C925 C 0.00121 0.08842 0.41285 0.0
H926 H 0.13888 0.4852 0.64841 0.0
H927 H 0.16519 0.46213 0.6871 0.0
H928 H 0.07839 0.49296 0.69156 0.0
H929 H 0.05142 0.59603 0.65046 0.0
H930 H 0.01277 0.57183 0.63819 0.0
H931 H 0.0798 0.55871 0.63848 0.0
H932 H 0.06033 0.46243 0.63713 0.0
H933 H 0.99334 0.475 0.63716 0.0
H934 H 0.02034 0.43345 0.64852 0.0
H935 H 0.98567 0.51994 0.69145 0.0
H936 H 0.89534 0.53801 0.68671 0.0
H937 H 0.92958 0.53292 0.648 0.0
C938 C 0.1272 0.48887 0.65786 0.0
C939 C 0.15902 0.47277 0.66745 0.0
C940 C 0.14156 0.47547 0.67967 0.0
C941 C 0.09235 0.49273 0.68226 0.0
C942 C 0.06105 0.50626 0.67251 0.0
C943 C 0.07793 0.50448 0.66055 0.0
C944 C 0.03542 0.51441 0.6516 0.0
C945 C 0.04545 0.56315 0.64425 0.0
C946 C 0.02688 0.46859 0.64311 0.0
C947 C 0.99174 0.52118 0.66036 0.0
C948 C 0.00724 0.51747 0.67239 0.0
C949 C 0.97316 0.5229 0.68205 0.0
C950 C 0.92205 0.53288 0.67931 0.0
C951 C 0.90563 0.53582 0.66702 0.0
C952 C 0.94098 0.5297 0.65748 0.0
H953 H 0.44818 0.38611 0.90221 0.0
H954 H 0.4269 0.35727 0.9409 0.0
H955 H 0.4591 0.44338 0.9456 0.0
H956 H 0.5621 0.46175 0.90449 0.0
H957 H 0.54304 0.50452 0.89248 0.0
H958 H 0.52125 0.43974 0.89239 0.0
H959 H 0.4283 0.47147 0.89142 0.0
H960 H 0.44978 0.53636 0.89168 0.0
H961 H 0.40531 0.51428 0.903 0.0
H962 H 0.49538 0.5324 0.94596 0.0
H963 H 0.53101 0.61776 0.94193 0.0
H964 H 0.52131 0.58978 0.90294 0.0
C965 C 0.45115 0.39756 0.91169 0.0
C966 C 0.43583 0.36485 0.92121 0.0
C967 C 0.43889 0.38171 0.93348 0.0
C968 C 0.45698 0.43051 0.93623 0.0
C969 C 0.47098 0.46216 0.92659 0.0
C970 C 0.46804 0.44639 0.91456 0.0
C971 C 0.48343 0.48825 0.90585 0.0
C972 C 0.53024 0.47263 0.89837 0.0
C973 C 0.43905 0.50348 0.8975 0.0
C974 C 0.49597 0.52998 0.91485 0.0
C975 C 0.48892 0.51414 0.92677 0.0
C976 C 0.50051 0.54539 0.93666 0.0
C977 C 0.52058 0.59376 0.93429 0.0
C978 C 0.52803 0.6106 0.92214 0.0
C979 C 0.51481 0.57843 0.91233 0.0
H980 H 0.58595 0.52624 0.09182 0.0
H981 H 0.61427 0.54748 0.05305 0.0
H982 H 0.52985 0.51163 0.04841 0.0
H983 H 0.51768 0.40763 0.08925 0.0
H984 H 0.47424 0.42346 0.10137 0.0
H985 H 0.53751 0.44911 0.10145 0.0
H986 H 0.50034 0.54006 0.10274 0.0
H987 H 0.43694 0.51473 0.10247 0.0
H988 H 0.45599 0.56112 0.09127 0.0
H989 H 0.44085 0.47498 0.04811 0.0
H990 H 0.35743 0.43568 0.05209 0.0
H991 H 0.38795 0.44054 0.09108 0.0
C992 C 0.57486 0.52286 0.08232 0.0
C993 C 0.60703 0.5396 0.0728 0.0
C994 C 0.59053 0.53476 0.06052 0.0
C995 C 0.5425 0.51465 0.05779 0.0
C996 C 0.51139 0.49962 0.06743 0.0
C997 C 0.52713 0.50314 0.07944 0.0
C998 C 0.48653 0.48475 0.08815 0.0
C999 C 0.5051 0.43849 0.09548 0.0
C1000 C 0.46892 0.52774 0.09665 0.0
C1001 C 0.44541 0.4702 0.07917 0.0
C1002 C 0.46031 0.47916 0.06726 0.0
C1003 C 0.4288 0.46785 0.0574 0.0
C1004 C 0.38135 0.44573 0.05977 0.0
C1005 C 0.36581 0.43513 0.07191 0.0
C1006 C 0.39822 0.44845 0.0817 0.0
H1007 H 0.48564 0.08902 0.33924 0.0
H1008 H 0.45238 0.11072 0.30071 0.0
H1009 H 0.48704 0.02557 0.2963 0.0
H1010 H 0.60357 0.0222 0.33509 0.0
H1011 H 0.59297 0.98035 0.34787 0.0
H1012 H 0.56586 0.04308 0.34787 0.0
H1013 H 0.4767 0.00415 0.35125 0.0
H1014 H 0.50348 0.94125 0.35111 0.0
H1015 H 0.45311 0.95734 0.34066 0.0
H1016 H 0.52504 0.93724 0.29614 0.0
H1017 H 0.56794 0.85553 0.30008 0.0
H1018 H 0.5753 0.89193 0.33874 0.0
C1019 C 0.48583 0.07616 0.32985 0.0
C1020 C 0.46621 0.10684 0.32033 0.0
C1021 C 0.46726 0.08819 0.30818 0.0
C1022 C 0.48669 0.03971 0.30558 0.0
C1023 C 0.50494 0.01026 0.31521 0.0
C1024 C 0.50501 0.02797 0.32709 0.0
C1025 C 0.52727 0.98913 0.33579 0.0
C1026 C 0.57527 0.00994 0.34202 0.0
C1027 C 0.48777 0.97196 0.34526 0.0
C1028 C 0.53985 0.94677 0.32695 0.0
C1029 C 0.52653 0.95955 0.31513 0.0
C1030 C 0.53552 0.92682 0.30537 0.0
C1031 C 0.55979 0.88035 0.30771 0.0
C1032 C 0.57488 0.86693 0.31973 0.0
C1033 C 0.56384 0.90051 0.32946 0.0
H1034 H 0.91555 0.01659 0.58674 0.0
H1035 H 0.89358 0.98203 0.54829 0.0
H1036 H 0.97847 0.01662 0.54376 0.0
H1037 H 0.98334 0.13489 0.58219 0.0
H1038 H 0.02502 0.1244 0.595 0.0
H1039 H 0.96203 0.09803 0.59509 0.0
H1040 H -0.00015 0.0085 0.59876 0.0
H1041 H 0.063 0.03449 0.59851 0.0
H1042 H 0.0462 0.98373 0.58824 0.0
H1043 H 0.06704 0.05269 0.5435 0.0
H1044 H 0.14955 0.09388 0.54726 0.0
H1045 H 0.11345 0.10476 0.58589 0.0
C1046 C 0.92823 0.01667 0.57734 0.0
C1047 C 0.89764 0.99648 0.56788 0.0
C1048 C 0.91605 0.99735 0.55571 0.0
C1049 C 0.96438 0.01672 0.55304 0.0
C1050 C 0.99388 0.03523 0.56262 0.0
C1051 C 0.97629 0.03589 0.57451 0.0
C1052 C 0.0154 0.05813 0.58313 0.0
C1053 C 0.99524 0.10675 0.5892 0.0
C1054 C 0.03209 0.01886 0.59272 0.0
C1055 C 0.05783 0.06977 0.57424 0.0
C1056 C 0.04477 0.05608 0.56247 0.0
C1057 C 0.07764 0.06362 0.55268 0.0
C1058 C 0.12459 0.0869 0.55493 0.0
C1059 C 0.13832 0.10253 0.56689 0.0
C1060 C 0.10455 0.09295 0.57666 0.0
H1061 H 0.95481 0.58638 0.80669 0.0
H1062 H 0.97383 0.62495 0.84504 0.0
H1063 H 0.0112 0.54119 0.84888 0.0
H1064 H 0.92115 0.45768 0.81089 0.0
H1065 H 0.95641 0.4336 0.79804 0.0
H1066 H 0.93299 0.49784 0.79786 0.0
H1067 H 0.02373 0.53186 0.79403 0.0
H1068 H 0.0473 0.46766 0.79397 0.0
H1069 H 0.07425 0.51381 0.80425 0.0
H1070 H 0.03924 0.45161 0.84919 0.0
H1071 H 0.06965 0.36496 0.84535 0.0
H1072 H 0.03764 0.38345 0.80664 0.0
C1073 C 0.96768 0.5776 0.81584 0.0
C1074 C 0.961 0.61256 0.82556 0.0
C1075 C 0.97831 0.5992 0.83741 0.0
C1076 C 0.99944 0.55145 0.83973 0.0
C1077 C 0.0038 0.5174 0.83009 0.0
C1078 C 0.98958 0.53004 0.81832 0.0
C1079 C 0.99914 0.48605 0.80965 0.0
C1080 C 0.94946 0.46772 0.80376 0.0
C1081 C 0.03845 0.50072 0.7999 0.0
C1082 C 0.0202 0.44669 0.81844 0.0
C1083 C 0.02195 0.46562 0.8302 0.0
C1084 C 0.03857 0.43643 0.84001 0.0
C1085 C 0.05537 0.38694 0.83772 0.0
C1086 C 0.05606 0.36707 0.82568 0.0
C1087 C 0.03757 0.39737 0.81594 0.0
loop_
_geom_bond_atom_site_label_1
_geom_bond_atom_site_label_2
_geom_bond_distance
_geom_bond_site_symmetry_2
_ccdc_geom_bond_type
Mg0 O1 2.028 . S
Mg0 O7 1.986 . S
Mg0 O9 2.114 . S
Mg0 O10 2.251 . S
Mg0 O13 2.010 . S
O1 Mg0 2.028 . S
O1 C4 1.250 . S
O2 Mg3 2.028 . S
O2 C4 1.248 . S
Mg3 O2 2.028 . S
Mg3 O8 2.032 . S
Mg3 O10 2.079 . S
C4 O1 1.250 . S
C4 O2 1.248 . S
C5 O6 1.264 . S
C5 O13 1.249 . S
O6 C5 1.264 . S
O7 Mg0 1.986 . S
O7 C11 1.246 . S
O8 Mg3 2.032 . S
O8 C11 1.259 . S
O9 Mg0 2.114 . S
O9 C12 1.252 . S
O10 Mg0 2.251 . S
O10 Mg3 2.079 . S
O10 C12 1.273 . S
C11 O7 1.246 . S
C11 O8 1.259 . S
C12 O9 1.252 . S
C12 O10 1.273 . S
O13 Mg0 2.010 . S
O13 C5 1.249 . S
Mg14 O15 2.028 . S
Mg14 O21 1.986 . S
Mg14 O23 2.114 . S
Mg14 O24 2.251 . S
Mg14 O27 2.010 . S
O15 Mg14 2.028 . S
O15 C18 1.250 . S
O16 Mg17 2.028 . S
O16 C18 1.248 . S
Mg17 O16 2.028 . S
Mg17 O22 2.032 . S
Mg17 O24 2.079 . S
C18 O15 1.250 . S
C18 O16 1.248 . S
C19 O20 1.264 . S
C19 O27 1.249 . S
O20 C19 1.264 . S
O21 Mg14 1.986 . S
O21 C25 1.246 . S
O22 Mg17 2.032 . S
O22 C25 1.259 . S
O23 Mg14 2.114 . S
O23 C26 1.252 . S
O24 Mg14 2.251 . S
O24 Mg17 2.079 . S
O24 C26 1.273 . S
C25 O21 1.246 . S
C25 O22 1.259 . S
C26 O23 1.252 . S
C26 O24 1.273 . S
O27 Mg14 2.010 . S
O27 C19 1.249 . S
Mg28 O29 2.028 . S
Mg28 O35 1.986 . S
Mg28 O37 2.114 . S
Mg28 O38 2.251 . S
Mg28 O41 2.010 . S
O29 Mg28 2.028 . S
O29 C32 1.250 . S
O30 Mg31 2.028 . S
O30 C32 1.248 . S
Mg31 O30 2.028 . S
Mg31 O36 2.032 . S
Mg31 O38 2.079 . S
C32 O29 1.250 . S
C32 O30 1.248 . S
C33 O34 1.264 . S
C33 O41 1.249 . S
O34 C33 1.264 . S
O35 Mg28 1.986 . S
O35 C39 1.246 . S
O36 Mg31 2.032 . S
O36 C39 1.259 . S
O37 Mg28 2.114 . S
O37 C40 1.252 . S
O38 Mg28 2.251 . S
O38 Mg31 2.079 . S
O38 C40 1.273 . S
C39 O35 1.246 . S
C39 O36 1.259 . S
C40 O37 1.252 . S
C40 O38 1.273 . S
O41 Mg28 2.010 . S
O41 C33 1.249 . S
Mg42 O43 2.028 . S
Mg42 O49 1.986 . S
Mg42 O51 2.114 . S
Mg42 O52 2.251 . S
Mg42 O55 2.010 . S
O43 Mg42 2.028 . S
O43 C46 1.250 . S
O44 Mg45 2.028 . S
O44 C46 1.248 . S
Mg45 O44 2.028 . S
Mg45 O50 2.032 . S
Mg45 O52 2.079 . S
C46 O43 1.250 . S
C46 O44 1.248 . S
C47 O48 1.264 . S
C47 O55 1.249 . S
O48 C47 1.264 . S
O49 Mg42 1.986 . S
O49 C53 1.246 . S
O50 Mg45 2.032 . S
O50 C53 1.259 . S
O51 Mg42 2.114 . S
O51 C54 1.252 . S
O52 Mg42 2.251 . S
O52 Mg45 2.079 . S
O52 C54 1.273 . S
C53 O49 1.246 . S
C53 O50 1.259 . S
C54 O51 1.252 . S
C54 O52 1.273 . S
O55 Mg42 2.010 . S
O55 C47 1.249 . S
Mg56 O57 2.028 . S
Mg56 O63 1.986 . S
Mg56 O65 2.114 . S
Mg56 O66 2.251 . S
Mg56 O69 2.010 . S
O57 Mg56 2.028 . S
O57 C60 1.250 . S
O58 Mg59 2.028 . S
O58 C60 1.248 . S
Mg59 O58 2.028 . S
Mg59 O64 2.032 . S
Mg59 O66 2.079 . S
C60 O57 1.250 . S
C60 O58 1.248 . S
C61 O62 1.264 . S
C61 O69 1.249 . S
O62 C61 1.264 . S
O63 Mg56 1.986 . S
O63 C67 1.246 . S
O64 Mg59 2.032 . S
O64 C67 1.259 . S
O65 Mg56 2.114 . S
O65 C68 1.252 . S
O66 Mg56 2.251 . S
O66 Mg59 2.079 . S
O66 C68 1.273 . S
C67 O63 1.246 . S
C67 O64 1.259 . S
C68 O65 1.252 . S
C68 O66 1.273 . S
O69 Mg56 2.010 . S
O69 C61 1.249 . S
Mg70 O71 2.028 . S
Mg70 O77 1.986 . S
Mg70 O79 2.114 . S
Mg70 O80 2.251 . S
Mg70 O83 2.010 . S
O71 Mg70 2.028 . S
O71 C74 1.250 . S
O72 Mg73 2.028 . S
O72 C74 1.248 . S
Mg73 O72 2.028 . S
Mg73 O78 2.032 . S
Mg73 O80 2.079 . S
C74 O71 1.250 . S
C74 O72 1.248 . S
C75 O76 1.264 . S
C75 O83 1.249 . S
O76 C75 1.264 . S
O77 Mg70 1.986 . S
O77 C81 1.246 . S
O78 Mg73 2.032 . S
O78 C81 1.259 . S
O79 Mg70 2.114 . S
O79 C82 1.252 . S
O80 Mg70 2.251 . S
O80 Mg73 2.079 . S
O80 C82 1.273 . S
C81 O77 1.246 . S
C81 O78 1.259 . S
C82 O79 1.252 . S
C82 O80 1.273 . S
O83 Mg70 2.010 . S
O83 C75 1.249 . S
Mg84 O85 2.028 . S
Mg84 O91 1.986 . S
Mg84 O93 2.114 . S
Mg84 O94 2.251 . S
Mg84 O97 2.010 . S
O85 Mg84 2.028 . S
O85 C88 1.250 . S
O86 Mg87 2.028 . S
O86 C88 1.248 . S
Mg87 O86 2.028 . S
Mg87 O92 2.032 . S
Mg87 O94 2.079 . S
C88 O85 1.250 . S
C88 O86 1.248 . S
C89 O90 1.264 . S
C89 O97 1.249 . S
O90 C89 1.264 . S
O91 Mg84 1.986 . S
O91 C95 1.246 . S
O92 Mg87 2.032 . S
O92 C95 1.259 . S
O93 Mg84 2.114 . S
O93 C96 1.252 . S
O94 Mg84 2.251 . S
O94 Mg87 2.079 . S
O94 C96 1.273 . S
C95 O91 1.246 . S
C95 O92 1.259 . S
C96 O93 1.252 . S
C96 O94 1.273 . S
O97 Mg84 2.010 . S
O97 C89 1.249 . S
Mg98 O99 2.028 . S
Mg98 O105 1.986 . S
Mg98 O107 2.114 . S
Mg98 O108 2.251 . S
Mg98 O111 2.010 . S
O99 Mg98 2.028 . S
O99 C102 1.250 . S
O100 Mg101 2.028 . S
O100 C102 1.248 . S
Mg101 O100 2.028 . S
Mg101 O106 2.032 . S
Mg101 O108 2.079 . S
C102 O99 1.250 . S
C102 O100 1.248 . S
C103 O104 1.264 . S
C103 O111 1.249 . S
O104 C103 1.264 . S
O105 Mg98 1.986 . S
O105 C109 1.246 . S
O106 Mg101 2.032 . S
O106 C109 1.259 . S
O107 Mg98 2.114 . S
O107 C110 1.252 . S
O108 Mg98 2.251 . S
O108 Mg101 2.079 . S
O108 C110 1.273 . S
C109 O105 1.246 . S
C109 O106 1.259 . S
C110 O107 1.252 . S
C110 O108 1.273 . S
O111 Mg98 2.010 . S
O111 C103 1.249 . S
Mg112 O113 2.028 . S
Mg112 O119 1.986 . S
Mg112 O121 2.114 . S
Mg112 O122 2.251 . S
Mg112 O125 2.010 . S
O113 Mg112 2.028 . S
O113 C116 1.250 . S
O114 Mg115 2.028 . S
O114 C116 1.248 . S
Mg115 O114 2.028 . S
Mg115 O120 2.032 . S
Mg115 O122 2.079 . S
C116 O113 1.250 . S
C116 O114 1.248 . S
C117 O118 1.264 . S
C117 O125 1.249 . S
O118 C117 1.264 . S
O119 Mg112 1.986 . S
O119 C123 1.246 . S
O120 Mg115 2.032 . S
O120 C123 1.259 . S
O121 Mg112 2.114 . S
O121 C124 1.252 . S
O122 Mg112 2.251 . S
O122 Mg115 2.079 . S
O122 C124 1.273 . S
C123 O119 1.246 . S
C123 O120 1.259 . S
C124 O121 1.252 . S
C124 O122 1.273 . S
O125 Mg112 2.010 . S
O125 C117 1.249 . S
Mg126 O127 2.028 . S
Mg126 O133 1.986 . S
Mg126 O135 2.114 . S
Mg126 O136 2.251 . S
Mg126 O139 2.010 . S
O127 Mg126 2.028 . S
O127 C130 1.250 . S
O128 Mg129 2.028 . S
O128 C130 1.248 . S
Mg129 O128 2.028 . S
Mg129 O134 2.032 . S
Mg129 O136 2.079 . S
C130 O127 1.250 . S
C130 O128 1.248 . S
C131 O132 1.264 . S
C131 O139 1.249 . S
O132 C131 1.264 . S
O133 Mg126 1.986 . S
O133 C137 1.246 . S
O134 Mg129 2.032 . S
O134 C137 1.259 . S
O135 Mg126 2.114 . S
O135 C138 1.252 . S
O136 Mg126 2.251 . S
O136 Mg129 2.079 . S
O136 C138 1.273 . S
C137 O133 1.246 . S
C137 O134 1.259 . S
C138 O135 1.252 . S
C138 O136 1.273 . S
O139 Mg126 2.010 . S
O139 C131 1.249 . S
Mg140 O141 2.028 . S
Mg140 O147 1.986 . S
Mg140 O149 2.114 . S
Mg140 O150 2.251 . S
Mg140 O153 2.010 . S
O141 Mg140 2.028 . S
O141 C144 1.250 . S
O142 Mg143 2.028 . S
O142 C144 1.248 . S
Mg143 O142 2.028 . S
Mg143 O148 2.032 . S
Mg143 O150 2.079 . S
C144 O141 1.250 . S
C144 O142 1.248 . S
C145 O146 1.264 . S
C145 O153 1.249 . S
O146 C145 1.264 . S
O147 Mg140 1.986 . S
O147 C151 1.246 . S
O148 Mg143 2.032 . S
O148 C151 1.259 . S
O149 Mg140 2.114 . S
O149 C152 1.252 . S
O150 Mg140 2.251 . S
O150 Mg143 2.079 . S
O150 C152 1.273 . S
C151 O147 1.246 . S
C151 O148 1.259 . S
C152 O149 1.252 . S
C152 O150 1.273 . S
O153 Mg140 2.010 . S
O153 C145 1.249 . S
Mg154 O155 2.028 . S
Mg154 O161 1.986 . S
Mg154 O163 2.114 . S
Mg154 O164 2.251 . S
Mg154 O167 2.010 . S
O155 Mg154 2.028 . S
O155 C158 1.250 . S
O156 Mg157 2.028 . S
O156 C158 1.248 . S
Mg157 O156 2.028 . S
Mg157 O162 2.032 . S
Mg157 O164 2.079 . S
C158 O155 1.250 . S
C158 O156 1.248 . S
C159 O160 1.264 . S
C159 O167 1.249 . S
O160 C159 1.264 . S
O161 Mg154 1.986 . S
O161 C165 1.246 . S
O162 Mg157 2.032 . S
O162 C165 1.259 . S
O163 Mg154 2.114 . S
O163 C166 1.252 . S
O164 Mg154 2.251 . S
O164 Mg157 2.079 . S
O164 C166 1.273 . S
C165 O161 1.246 . S
C165 O162 1.259 . S
C166 O163 1.252 . S
C166 O164 1.273 . S
O167 Mg154 2.010 . S
O167 C159 1.249 . S
Mg168 O169 2.028 . S
Mg168 O175 1.986 . S
Mg168 O177 2.114 . S
Mg168 O178 2.251 . S
Mg168 O181 2.010 . S
O169 Mg168 2.028 . S
O169 C172 1.250 . S
O170 Mg171 2.028 . S
O170 C172 1.248 . S
Mg171 O170 2.028 . S
Mg171 O176 2.032 . S
Mg171 O178 2.079 . S
C172 O169 1.250 . S
C172 O170 1.248 . S
C173 O174 1.264 . S
C173 O181 1.249 . S
O174 C173 1.264 . S
O175 Mg168 1.986 . S
O175 C179 1.246 . S
O176 Mg171 2.032 . S
O176 C179 1.259 . S
O177 Mg168 2.114 . S
O177 C180 1.252 . S
O178 Mg168 2.251 . S
O178 Mg171 2.079 . S
O178 C180 1.273 . S
C179 O175 1.246 . S
C179 O176 1.259 . S
C180 O177 1.252 . S
C180 O178 1.273 . S
O181 Mg168 2.010 . S
O181 C173 1.249 . S
Mg182 O183 2.028 . S
Mg182 O189 1.986 . S
Mg182 O191 2.114 . S
Mg182 O192 2.251 . S
Mg182 O195 2.010 . S
O183 Mg182 2.028 . S
O183 C186 1.250 . S
O184 Mg185 2.028 . S
O184 C186 1.248 . S
Mg185 O184 2.028 . S
Mg185 O190 2.032 . S
Mg185 O192 2.079 . S
C186 O183 1.250 . S
C186 O184 1.248 . S
C187 O188 1.264 . S
C187 O195 1.249 . S
O188 C187 1.264 . S
O189 Mg182 1.986 . S
O189 C193 1.246 . S
O190 Mg185 2.032 . S
O190 C193 1.259 . S
O191 Mg182 2.114 . S
O191 C194 1.252 . S
O192 Mg182 2.251 . S
O192 Mg185 2.079 . S
O192 C194 1.273 . S
C193 O189 1.246 . S
C193 O190 1.259 . S
C194 O191 1.252 . S
C194 O192 1.273 . S
O195 Mg182 2.010 . S
O195 C187 1.249 . S
Mg196 O197 2.028 . S
Mg196 O203 1.986 . S
Mg196 O205 2.114 . S
Mg196 O206 2.251 . S
Mg196 O209 2.010 . S
O197 Mg196 2.028 . S
O197 C200 1.250 . S
O198 Mg199 2.028 . S
O198 C200 1.248 . S
Mg199 O198 2.028 . S
Mg199 O204 2.032 . S
Mg199 O206 2.079 . S
C200 O197 1.250 . S
C200 O198 1.248 . S
C201 O202 1.264 . S
C201 O209 1.249 . S
O202 C201 1.264 . S
O203 Mg196 1.986 . S
O203 C207 1.246 . S
O204 Mg199 2.032 . S
O204 C207 1.259 . S
O205 Mg196 2.114 . S
O205 C208 1.252 . S
O206 Mg196 2.251 . S
O206 Mg199 2.079 . S
O206 C208 1.273 . S
C207 O203 1.246 . S
C207 O204 1.259 . S
C208 O205 1.252 . S
C208 O206 1.273 . S
O209 Mg196 2.010 . S
O209 C201 1.249 . S
Mg210 O211 2.028 . S
Mg210 O217 1.986 . S
Mg210 O219 2.114 . S
Mg210 O220 2.251 . S
Mg210 O223 2.010 . S
O211 Mg210 2.028 . S
O211 C214 1.250 . S
O212 Mg213 2.028 . S
O212 C214 1.248 . S
Mg213 O212 2.028 . S
Mg213 O218 2.032 . S
Mg213 O220 2.079 . S
C214 O211 1.250 . S
C214 O212 1.248 . S
C215 O216 1.264 . S
C215 O223 1.249 . S
O216 C215 1.264 . S
O217 Mg210 1.986 . S
O217 C221 1.246 . S
O218 Mg213 2.032 . S
O218 C221 1.259 . S
O219 Mg210 2.114 . S
O219 C222 1.252 . S
O220 Mg210 2.251 . S
O220 Mg213 2.079 . S
O220 C222 1.273 . S
C221 O217 1.246 . S
C221 O218 1.259 . S
C222 O219 1.252 . S
C222 O220 1.273 . S
O223 Mg210 2.010 . S
O223 C215 1.249 . S
H224 C236 0.930 . S
H225 C238 0.930 . S
H226 C239 0.930 . S
H227 C243 0.959 . S
H228 C243 0.959 . S
H229 C243 0.961 . S
H230 C244 0.960 . S
H231 C244 0.961 . S
H232 C244 0.959 . S
H233 C247 0.929 . S
H234 C248 0.931 . S
H235 C250 0.930 . S
C236 H224 0.930 . S
C236 C237 1.399 . S
C236 C241 1.399 . S
C237 C236 1.399 . S
C237 C238 1.376 . S
C238 H225 0.930 . S
C238 C237 1.376 . S
C238 C239 1.388 . S
C239 H226 0.930 . S
C239 C238 1.388 . S
C239 C240 1.390 . S
C240 C239 1.390 . S
C240 C241 1.394 . S
C240 C246 1.465 . S
C241 C236 1.399 . S
C241 C240 1.394 . S
C241 C242 1.516 . S
C242 C241 1.516 . S
C242 C243 1.502 . S
C242 C244 1.561 . S
C242 C245 1.526 . S
C243 H227 0.959 . S
C243 H228 0.959 . S
C243 H229 0.961 . S
C243 C242 1.502 . S
C244 H230 0.960 . S
C244 H231 0.961 . S
C244 H232 0.959 . S
C244 C242 1.561 . S
C245 C242 1.526 . S
C245 C246 1.396 . S
C245 C250 1.390 . S
C246 C240 1.465 . S
C246 C245 1.396 . S
C246 C247 1.399 . S
C247 H233 0.929 . S
C247 C246 1.399 . S
C247 C248 1.385 . S
C248 H234 0.931 . S
C248 C247 1.385 . S
C248 C249 1.389 . S
C249 C248 1.389 . S
C249 C250 1.387 . S
C250 H235 0.930 . S
C250 C245 1.390 . S
C250 C249 1.387 . S
H251 C263 0.930 . S
H252 C265 0.930 . S
H253 C266 0.930 . S
H254 C270 0.959 . S
H255 C270 0.959 . S
H256 C270 0.961 . S
H257 C271 0.960 . S
H258 C271 0.961 . S
H259 C271 0.959 . S
H260 C274 0.929 . S
H261 C275 0.931 . S
H262 C277 0.930 . S
C263 H251 0.930 . S
C263 C264 1.399 . S
C263 C268 1.399 . S
C264 C263 1.399 . S
C264 C265 1.376 . S
C265 H252 0.930 . S
C265 C264 1.376 . S
C265 C266 1.388 . S
C266 H253 0.930 . S
C266 C265 1.388 . S
C266 C267 1.390 . S
C267 C266 1.390 . S
C267 C268 1.394 . S
C267 C273 1.465 . S
C268 C263 1.399 . S
C268 C267 1.394 . S
C268 C269 1.516 . S
C269 C268 1.516 . S
C269 C270 1.502 . S
C269 C271 1.561 . S
C269 C272 1.526 . S
C270 H254 0.959 . S
C270 H255 0.959 . S
C270 H256 0.961 . S
C270 C269 1.502 . S
C271 H257 0.960 . S
C271 H258 0.961 . S
C271 H259 0.959 . S
C271 C269 1.561 . S
C272 C269 1.526 . S
C272 C273 1.396 . S
C272 C277 1.390 . S
C273 C267 1.465 . S
C273 C272 1.396 . S
C273 C274 1.399 . S
C274 H260 0.929 . S
C274 C273 1.399 . S
C274 C275 1.385 . S
C275 H261 0.931 . S
C275 C274 1.385 . S
C275 C276 1.389 . S
C276 C275 1.389 . S
C276 C277 1.387 . S
C277 H262 0.930 . S
C277 C272 1.390 . S
C277 C276 1.387 . S
H278 C290 0.930 . S
H279 C292 0.930 . S
H280 C293 0.930 . S
H281 C297 0.959 . S
H282 C297 0.959 . S
H283 C297 0.961 . S
H284 C298 0.960 . S
H285 C298 0.961 . S
H286 C298 0.959 . S
H287 C301 0.929 . S
H288 C302 0.931 . S
H289 C304 0.930 . S
C290 H278 0.930 . S
C290 C291 1.399 . S
C290 C295 1.399 . S
C291 C290 1.399 . S
C291 C292 1.376 . S
C292 H279 0.930 . S
C292 C291 1.376 . S
C292 C293 1.388 . S
C293 H280 0.930 . S
C293 C292 1.388 . S
C293 C294 1.390 . S
C294 C293 1.390 . S
C294 C295 1.394 . S
C294 C300 1.465 . S
C295 C290 1.399 . S
C295 C294 1.394 . S
C295 C296 1.516 . S
C296 C295 1.516 . S
C296 C297 1.502 . S
C296 C298 1.561 . S
C296 C299 1.526 . S
C297 H281 0.959 . S
C297 H282 0.959 . S
C297 H283 0.961 . S
C297 C296 1.502 . S
C298 H284 0.960 . S
C298 H285 0.961 . S
C298 H286 0.959 . S
C298 C296 1.561 . S
C299 C296 1.526 . S
C299 C300 1.396 . S
C299 C304 1.390 . S
C300 C294 1.465 . S
C300 C299 1.396 . S
C300 C301 1.399 . S
C301 H287 0.929 . S
C301 C300 1.399 . S
C301 C302 1.385 . S
C302 H288 0.931 . S
C302 C301 1.385 . S
C302 C303 1.389 . S
C303 C302 1.389 . S
C303 C304 1.387 . S
C304 H289 0.930 . S
C304 C299 1.390 . S
C304 C303 1.387 . S
H305 C317 0.930 . S
H306 C319 0.930 . S
H307 C320 0.930 . S
H308 C324 0.959 . S
H309 C324 0.959 . S
H310 C324 0.961 . S
H311 C325 0.960 . S
H312 C325 0.961 . S
H313 C325 0.959 . S
H314 C328 0.929 . S
H315 C329 0.931 . S
H316 C331 0.930 . S
C317 H305 0.930 . S
C317 C318 1.399 . S
C317 C322 1.399 . S
C318 C317 1.399 . S
C318 C319 1.376 . S
C319 H306 0.930 . S
C319 C318 1.376 . S
C319 C320 1.388 . S
C320 H307 0.930 . S
C320 C319 1.388 . S
C320 C321 1.390 . S
C321 C320 1.390 . S
C321 C322 1.394 . S
C321 C327 1.465 . S
C322 C317 1.399 . S
C322 C321 1.394 . S
C322 C323 1.516 . S
C323 C322 1.516 . S
C323 C324 1.502 . S
C323 C325 1.561 . S
C323 C326 1.526 . S
C324 H308 0.959 . S
C324 H309 0.959 . S
C324 H310 0.961 . S
C324 C323 1.502 . S
C325 H311 0.960 . S
C325 H312 0.961 . S
C325 H313 0.959 . S
C325 C323 1.561 . S
C326 C323 1.526 . S
C326 C327 1.396 . S
C326 C331 1.390 . S
C327 C321 1.465 . S
C327 C326 1.396 . S
C327 C328 1.399 . S
C328 H314 0.929 . S
C328 C327 1.399 . S
C328 C329 1.385 . S
C329 H315 0.931 . S
C329 C328 1.385 . S
C329 C330 1.389 . S
C330 C329 1.389 . S
C330 C331 1.387 . S
C331 H316 0.930 . S
C331 C326 1.390 . S
C331 C330 1.387 . S
H332 C344 0.930 . S
H333 C346 0.930 . S
H334 C347 0.930 . S
H335 C351 0.959 . S
H336 C351 0.959 . S
H337 C351 0.961 . S
H338 C352 0.960 . S
H339 C352 0.961 . S
H340 C352 0.959 . S
H341 C355 0.929 . S
H342 C356 0.931 . S
H343 C358 0.930 . S
C344 H332 0.930 . S
C344 C345 1.399 . S
C344 C349 1.399 . S
C345 C344 1.399 . S
C345 C346 1.376 . S
C346 H333 0.930 . S
C346 C345 1.376 . S
C346 C347 1.388 . S
C347 H334 0.930 . S
C347 C346 1.388 . S
C347 C348 1.390 . S
C348 C347 1.390 . S
C348 C349 1.394 . S
C348 C354 1.465 . S
C349 C344 1.399 . S
C349 C348 1.394 . S
C349 C350 1.516 . S
C350 C349 1.516 . S
C350 C351 1.502 . S
C350 C352 1.561 . S
C350 C353 1.526 . S
C351 H335 0.959 . S
C351 H336 0.959 . S
C351 H337 0.961 . S
C351 C350 1.502 . S
C352 H338 0.960 . S
C352 H339 0.961 . S
C352 H340 0.959 . S
C352 C350 1.561 . S
C353 C350 1.526 . S
C353 C354 1.396 . S
C353 C358 1.390 . S
C354 C348 1.465 . S
C354 C353 1.396 . S
C354 C355 1.399 . S
C355 H341 0.929 . S
C355 C354 1.399 . S
C355 C356 1.385 . S
C356 H342 0.931 . S
C356 C355 1.385 . S
C356 C357 1.389 . S
C357 C356 1.389 . S
C357 C358 1.387 . S
C358 H343 0.930 . S
C358 C353 1.390 . S
C358 C357 1.387 . S
H359 C371 0.930 . S
H360 C373 0.930 . S
H361 C374 0.930 . S
H362 C378 0.959 . S
H363 C378 0.959 . S
H364 C378 0.961 . S
H365 C379 0.960 . S
H366 C379 0.961 . S
H367 C379 0.959 . S
H368 C382 0.929 . S
H369 C383 0.931 . S
H370 C385 0.930 . S
C371 H359 0.930 . S
C371 C372 1.399 . S
C371 C376 1.399 . S
C372 C371 1.399 . S
C372 C373 1.376 . S
C373 H360 0.930 . S
C373 C372 1.376 . S
C373 C374 1.388 . S
C374 H361 0.930 . S
C374 C373 1.388 . S
C374 C375 1.390 . S
C375 C374 1.390 . S
C375 C376 1.394 . S
C375 C381 1.465 . S
C376 C371 1.399 . S
C376 C375 1.394 . S
C376 C377 1.516 . S
C377 C376 1.516 . S
C377 C378 1.502 . S
C377 C379 1.561 . S
C377 C380 1.526 . S
C378 H362 0.959 . S
C378 H363 0.959 . S
C378 H364 0.961 . S
C378 C377 1.502 . S
C379 H365 0.960 . S
C379 H366 0.961 . S
C379 H367 0.959 . S
C379 C377 1.561 . S
C380 C377 1.526 . S
C380 C381 1.396 . S
C380 C385 1.390 . S
C381 C375 1.465 . S
C381 C380 1.396 . S
C381 C382 1.399 . S
C382 H368 0.929 . S
C382 C381 1.399 . S
C382 C383 1.385 . S
C383 H369 0.931 . S
C383 C382 1.385 . S
C383 C384 1.389 . S
C384 C383 1.389 . S
C384 C385 1.387 . S
C385 H370 0.930 . S
C385 C380 1.390 . S
C385 C384 1.387 . S
H386 C398 0.930 . S
H387 C400 0.930 . S
H388 C401 0.930 . S
H389 C405 0.959 . S
H390 C405 0.959 . S
H391 C405 0.961 . S
H392 C406 0.960 . S
H393 C406 0.961 . S
H394 C406 0.959 . S
H395 C409 0.929 . S
H396 C410 0.931 . S
H397 C412 0.930 . S
C398 H386 0.930 . S
C398 C399 1.399 . S
C398 C403 1.399 . S
C399 C398 1.399 . S
C399 C400 1.376 . S
C400 H387 0.930 . S
C400 C399 1.376 . S
C400 C401 1.388 . S
C401 H388 0.930 . S
C401 C400 1.388 . S
C401 C402 1.390 . S
C402 C401 1.390 . S
C402 C403 1.394 . S
C402 C408 1.465 . S
C403 C398 1.399 . S
C403 C402 1.394 . S
C403 C404 1.516 . S
C404 C403 1.516 . S
C404 C405 1.502 . S
C404 C406 1.561 . S
C404 C407 1.526 . S
C405 H389 0.959 . S
C405 H390 0.959 . S
C405 H391 0.961 . S
C405 C404 1.502 . S
C406 H392 0.960 . S
C406 H393 0.961 . S
C406 H394 0.959 . S
C406 C404 1.561 . S
C407 C404 1.526 . S
C407 C408 1.396 . S
C407 C412 1.390 . S
C408 C402 1.465 . S
C408 C407 1.396 . S
C408 C409 1.399 . S
C409 H395 0.929 . S
C409 C408 1.399 . S
C409 C410 1.385 . S
C410 H396 0.931 . S
C410 C409 1.385 . S
C410 C411 1.389 . S
C411 C410 1.389 . S
C411 C412 1.387 . S
C412 H397 0.930 . S
C412 C407 1.390 . S
C412 C411 1.387 . S
H413 C425 0.930 . S
H414 C427 0.930 . S
H415 C428 0.930 . S
H416 C432 0.959 . S
H417 C432 0.959 . S
H418 C432 0.961 . S
H419 C433 0.960 . S
H420 C433 0.961 . S
H421 C433 0.959 . S
H422 C436 0.929 . S
H423 C437 0.931 . S
H424 C439 0.930 . S
C425 H413 0.930 . S
C425 C426 1.399 . S
C425 C430 1.399 . S
C426 C425 1.399 . S
C426 C427 1.376 . S
C427 H414 0.930 . S
C427 C426 1.376 . S
C427 C428 1.388 . S
C428 H415 0.930 . S
C428 C427 1.388 . S
C428 C429 1.390 . S
C429 C428 1.390 . S
C429 C430 1.394 . S
C429 C435 1.465 . S
C430 C425 1.399 . S
C430 C429 1.394 . S
C430 C431 1.516 . S
C431 C430 1.516 . S
C431 C432 1.502 . S
C431 C433 1.561 . S
C431 C434 1.526 . S
C432 H416 0.959 . S
C432 H417 0.959 . S
C432 H418 0.961 . S
C432 C431 1.502 . S
C433 H419 0.960 . S
C433 H420 0.961 . S
C433 H421 0.959 . S
C433 C431 1.561 . S
C434 C431 1.526 . S
C434 C435 1.396 . S
C434 C439 1.390 . S
C435 C429 1.465 . S
C435 C434 1.396 . S
C435 C436 1.399 . S
C436 H422 0.929 . S
C436 C435 1.399 . S
C436 C437 1.385 . S
C437 H423 0.931 . S
C437 C436 1.385 . S
C437 C438 1.389 . S
C438 C437 1.389 . S
C438 C439 1.387 . S
C439 H424 0.930 . S
C439 C434 1.390 . S
C439 C438 1.387 . S
H440 C452 0.930 . S
H441 C454 0.930 . S
H442 C455 0.930 . S
H443 C459 0.959 . S
H444 C459 0.959 . S
H445 C459 0.961 . S
H446 C460 0.960 . S
H447 C460 0.961 . S
H448 C460 0.959 . S
H449 C463 0.929 . S
H450 C464 0.931 . S
H451 C466 0.930 . S
C452 H440 0.930 . S
C452 C453 1.399 . S
C452 C457 1.399 . S
C453 C452 1.399 . S
C453 C454 1.376 . S
C454 H441 0.930 . S
C454 C453 1.376 . S
C454 C455 1.388 . S
C455 H442 0.930 . S
C455 C454 1.388 . S
C455 C456 1.390 . S
C456 C455 1.390 . S
C456 C457 1.394 . S
C456 C462 1.465 . S
C457 C452 1.399 . S
C457 C456 1.394 . S
C457 C458 1.516 . S
C458 C457 1.516 . S
C458 C459 1.502 . S
C458 C460 1.561 . S
C458 C461 1.526 . S
C459 H443 0.959 . S
C459 H444 0.959 . S
C459 H445 0.961 . S
C459 C458 1.502 . S
C460 H446 0.960 . S
C460 H447 0.961 . S
C460 H448 0.959 . S
C460 C458 1.561 . S
C461 C458 1.526 . S
C461 C462 1.396 . S
C461 C466 1.390 . S
C462 C456 1.465 . S
C462 C461 1.396 . S
C462 C463 1.399 . S
C463 H449 0.929 . S
C463 C462 1.399 . S
C463 C464 1.385 . S
C464 H450 0.931 . S
C464 C463 1.385 . S
C464 C465 1.389 . S
C465 C464 1.389 . S
C465 C466 1.387 . S
C466 H451 0.930 . S
C466 C461 1.390 . S
C466 C465 1.387 . S
H467 C479 0.930 . S
H468 C481 0.930 . S
H469 C482 0.930 . S
H470 C486 0.959 . S
H471 C486 0.959 . S
H472 C486 0.961 . S
H473 C487 0.960 . S
H474 C487 0.961 . S
H475 C487 0.959 . S
H476 C490 0.929 . S
H477 C491 0.931 . S
H478 C493 0.930 . S
C479 H467 0.930 . S
C479 C480 1.399 . S
C479 C484 1.399 . S
C480 C479 1.399 . S
C480 C481 1.376 . S
C481 H468 0.930 . S
C481 C480 1.376 . S
C481 C482 1.388 . S
C482 H469 0.930 . S
C482 C481 1.388 . S
C482 C483 1.390 . S
C483 C482 1.390 . S
C483 C484 1.394 . S
C483 C489 1.465 . S
C484 C479 1.399 . S
C484 C483 1.394 . S
C484 C485 1.516 . S
C485 C484 1.516 . S
C485 C486 1.502 . S
C485 C487 1.561 . S
C485 C488 1.526 . S
C486 H470 0.959 . S
C486 H471 0.959 . S
C486 H472 0.961 . S
C486 C485 1.502 . S
C487 H473 0.960 . S
C487 H474 0.961 . S
C487 H475 0.959 . S
C487 C485 1.561 . S
C488 C485 1.526 . S
C488 C489 1.396 . S
C488 C493 1.390 . S
C489 C483 1.465 . S
C489 C488 1.396 . S
C489 C490 1.399 . S
C490 H476 0.929 . S
C490 C489 1.399 . S
C490 C491 1.385 . S
C491 H477 0.931 . S
C491 C490 1.385 . S
C491 C492 1.389 . S
C492 C491 1.389 . S
C492 C493 1.387 . S
C493 H478 0.930 . S
C493 C488 1.390 . S
C493 C492 1.387 . S
H494 C506 0.930 . S
H495 C508 0.930 . S
H496 C509 0.930 . S
H497 C513 0.959 . S
H498 C513 0.959 . S
H499 C513 0.961 . S
H500 C514 0.960 . S
H501 C514 0.961 . S
H502 C514 0.959 . S
H503 C517 0.929 . S
H504 C518 0.931 . S
H505 C520 0.930 . S
C506 H494 0.930 . S
C506 C507 1.399 . S
C506 C511 1.399 . S
C507 C506 1.399 . S
C507 C508 1.376 . S
C508 H495 0.930 . S
C508 C507 1.376 . S
C508 C509 1.388 . S
C509 H496 0.930 . S
C509 C508 1.388 . S
C509 C510 1.390 . S
C510 C509 1.390 . S
C510 C511 1.394 . S
C510 C516 1.465 . S
C511 C506 1.399 . S
C511 C510 1.394 . S
C511 C512 1.516 . S
C512 C511 1.516 . S
C512 C513 1.502 . S
C512 C514 1.561 . S
C512 C515 1.526 . S
C513 H497 0.959 . S
C513 H498 0.959 . S
C513 H499 0.961 . S
C513 C512 1.502 . S
C514 H500 0.960 . S
C514 H501 0.961 . S
C514 H502 0.959 . S
C514 C512 1.561 . S
C515 C512 1.526 . S
C515 C516 1.396 . S
C515 C520 1.390 . S
C516 C510 1.465 . S
C516 C515 1.396 . S
C516 C517 1.399 . S
C517 H503 0.929 . S
C517 C516 1.399 . S
C517 C518 1.385 . S
C518 H504 0.931 . S
C518 C517 1.385 . S
C518 C519 1.389 . S
C519 C518 1.389 . S
C519 C520 1.387 . S
C520 H505 0.930 . S
C520 C515 1.390 . S
C520 C519 1.387 . S
H521 C533 0.930 . S
H522 C535 0.930 . S
H523 C536 0.930 . S
H524 C540 0.959 . S
H525 C540 0.959 1_556 S
H526 C540 0.961 . S
H527 C541 0.960 . S
H528 C541 0.961 1_556 S
H529 C541 0.956 1_556 S
H530 C544 0.929 . S
H531 C545 0.931 . S
H532 C547 0.930 . S
C533 H521 0.930 . S
C533 C534 1.399 . S
C533 C538 1.399 . S
C534 C533 1.399 . S
C534 C535 1.376 . S
C535 H522 0.930 . S
C535 C534 1.376 . S
C535 C536 1.388 . S
C536 H523 0.930 . S
C536 C535 1.388 . S
C536 C537 1.390 . S
C537 C536 1.390 . S
C537 C538 1.394 . S
C537 C543 1.465 1_554 S
C538 C533 1.399 . S
C538 C537 1.394 . S
C538 C539 1.516 . S
C539 C538 1.516 . S
C539 C540 1.502 . S
C539 C541 1.561 . S
C539 C542 1.526 1_554 S
C540 H524 0.959 . S
C540 H525 0.959 1_554 S
C540 H526 0.961 . S
C540 C539 1.502 . S
C541 H527 0.960 . S
C541 H528 0.961 1_554 S
C541 H529 0.956 1_554 S
C541 C539 1.561 . S
C542 C539 1.526 1_556 S
C542 C543 1.396 . S
C542 C547 1.390 . S
C543 C537 1.465 1_556 S
C543 C542 1.396 . S
C543 C544 1.399 . S
C544 H530 0.929 . S
C544 C543 1.399 . S
C544 C545 1.385 . S
C545 H531 0.931 . S
C545 C544 1.385 . S
C545 C546 1.389 . S
C546 C545 1.389 . S
C546 C547 1.387 . S
C547 H532 0.930 . S
C547 C542 1.390 . S
C547 C546 1.387 . S
H548 C560 0.930 . S
H549 C562 0.930 . S
H550 C563 0.930 . S
H551 C567 0.959 . S
H552 C567 0.959 1_556 S
H553 C567 0.961 . S
H554 C568 0.960 . S
H555 C568 0.961 1_556 S
H556 C568 0.955 1_556 S
H557 C571 0.929 . S
H558 C572 0.931 . S
H559 C574 0.930 . S
C560 H548 0.930 . S
C560 C561 1.399 . S
C560 C565 1.399 . S
C561 C560 1.399 . S
C561 C562 1.376 . S
C562 H549 0.930 . S
C562 C561 1.376 . S
C562 C563 1.388 . S
C563 H550 0.930 . S
C563 C562 1.388 . S
C563 C564 1.390 . S
C564 C563 1.390 . S
C564 C565 1.394 . S
C564 C570 1.465 1_554 S
C565 C560 1.399 . S
C565 C564 1.394 . S
C565 C566 1.516 . S
C566 C565 1.516 . S
C566 C567 1.502 . S
C566 C568 1.561 . S
C566 C569 1.526 1_554 S
C567 H551 0.959 . S
C567 H552 0.959 1_554 S
C567 H553 0.961 . S
C567 C566 1.502 . S
C568 H554 0.960 . S
C568 H555 0.961 1_554 S
C568 H556 0.955 1_554 S
C568 C566 1.561 . S
C569 C566 1.526 1_556 S
C569 C570 1.396 . S
C569 C574 1.390 . S
C570 C564 1.465 1_556 S
C570 C569 1.396 . S
C570 C571 1.399 . S
C571 H557 0.929 . S
C571 C570 1.399 . S
C571 C572 1.385 . S
C572 H558 0.931 . S
C572 C571 1.385 . S
C572 C573 1.389 . S
C573 C572 1.389 . S
C573 C574 1.387 . S
C574 H559 0.930 . S
C574 C569 1.390 . S
C574 C573 1.387 . S
H575 C587 0.930 . S
H576 C589 0.930 . S
H577 C590 0.930 . S
H578 C594 0.959 . S
H579 C594 0.959 . S
H580 C594 0.961 . S
H581 C595 0.960 . S
H582 C595 0.961 . S
H583 C595 0.959 . S
H584 C598 0.929 . S
H585 C599 0.931 . S
H586 C601 0.930 . S
C587 H575 0.930 . S
C587 C588 1.399 . S
C587 C592 1.399 . S
C588 C587 1.399 . S
C588 C589 1.376 . S
C589 H576 0.930 . S
C589 C588 1.376 . S
C589 C590 1.388 . S
C590 H577 0.930 . S
C590 C589 1.388 . S
C590 C591 1.390 . S
C591 C590 1.390 . S
C591 C592 1.394 . S
C591 C597 1.465 . S
C592 C587 1.399 . S
C592 C591 1.394 . S
C592 C593 1.516 . S
C593 C592 1.516 . S
C593 C594 1.502 . S
C593 C595 1.561 . S
C593 C596 1.526 . S
C594 H578 0.959 . S
C594 H579 0.959 . S
C594 H580 0.961 . S
C594 C593 1.502 . S
C595 H581 0.960 . S
C595 H582 0.961 . S
C595 H583 0.959 . S
C595 C593 1.561 . S
C596 C593 1.526 . S
C596 C597 1.396 . S
C596 C601 1.390 . S
C597 C591 1.465 . S
C597 C596 1.396 . S
C597 C598 1.399 . S
C598 H584 0.929 . S
C598 C597 1.399 . S
C598 C599 1.385 . S
C599 H585 0.931 . S
C599 C598 1.385 . S
C599 C600 1.389 . S
C600 C599 1.389 . S
C600 C601 1.387 . S
C601 H586 0.930 . S
C601 C596 1.390 . S
C601 C600 1.387 . S
H602 C614 0.930 . S
H603 C616 0.930 . S
H604 C617 0.930 . S
H605 C621 0.959 . S
H606 C621 0.959 . S
H607 C621 0.961 . S
H608 C622 0.960 . S
H609 C622 0.961 . S
H610 C622 0.959 . S
H611 C625 0.929 . S
H612 C626 0.931 . S
H613 C628 0.930 . S
C614 H602 0.930 . S
C614 C615 1.399 . S
C614 C619 1.399 . S
C615 C614 1.399 . S
C615 C616 1.376 . S
C616 H603 0.930 . S
C616 C615 1.376 . S
C616 C617 1.388 . S
C617 H604 0.930 . S
C617 C616 1.388 . S
C617 C618 1.390 . S
C618 C617 1.390 . S
C618 C619 1.394 . S
C618 C624 1.465 . S
C619 C614 1.399 . S
C619 C618 1.394 . S
C619 C620 1.516 . S
C620 C619 1.516 . S
C620 C621 1.502 . S
C620 C622 1.561 . S
C620 C623 1.526 . S
C621 H605 0.959 . S
C621 H606 0.959 . S
C621 H607 0.961 . S
C621 C620 1.502 . S
C622 H608 0.960 . S
C622 H609 0.961 . S
C622 H610 0.959 . S
C622 C620 1.561 . S
C623 C620 1.526 . S
C623 C624 1.396 . S
C623 C628 1.390 . S
C624 C618 1.465 . S
C624 C623 1.396 . S
C624 C625 1.399 . S
C625 H611 0.929 . S
C625 C624 1.399 . S
C625 C626 1.385 . S
C626 H612 0.931 . S
C626 C625 1.385 . S
C626 C627 1.389 . S
C627 C626 1.389 . S
C627 C628 1.387 . S
C628 H613 0.930 . S
C628 C623 1.390 . S
C628 C627 1.387 . S
H629 C641 0.930 . S
H630 C643 0.930 . S
H631 C644 0.930 . S
H632 C648 0.959 . S
H633 C648 0.959 . S
H634 C648 0.961 . S
H635 C649 0.960 . S
H636 C649 0.961 . S
H637 C649 0.959 . S
H638 C652 0.929 . S
H639 C653 0.931 . S
H640 C655 0.930 . S
C641 H629 0.930 . S
C641 C642 1.399 . S
C641 C646 1.399 . S
C642 C641 1.399 . S
C642 C643 1.376 . S
C643 H630 0.930 . S
C643 C642 1.376 . S
C643 C644 1.388 . S
C644 H631 0.930 . S
C644 C643 1.388 . S
C644 C645 1.390 . S
C645 C644 1.390 . S
C645 C646 1.394 . S
C645 C651 1.465 . S
C646 C641 1.399 . S
C646 C645 1.394 . S
C646 C647 1.516 . S
C647 C646 1.516 . S
C647 C648 1.502 . S
C647 C649 1.561 . S
C647 C650 1.526 . S
C648 H632 0.959 . S
C648 H633 0.959 . S
C648 H634 0.961 . S
C648 C647 1.502 . S
C649 H635 0.960 . S
C649 H636 0.961 . S
C649 H637 0.959 . S
C649 C647 1.561 . S
C650 C647 1.526 . S
C650 C651 1.396 . S
C650 C655 1.390 . S
C651 C645 1.465 . S
C651 C650 1.396 . S
C651 C652 1.399 . S
C652 H638 0.929 . S
C652 C651 1.399 . S
C652 C653 1.385 . S
C653 H639 0.931 . S
C653 C652 1.385 . S
C653 C654 1.389 . S
C654 C653 1.389 . S
C654 C655 1.387 . S
C655 H640 0.930 . S
C655 C650 1.390 . S
C655 C654 1.387 . S
H656 C668 0.930 1_565 S
H657 C670 0.930 . S
H658 C671 0.930 . S
H659 C675 0.959 1_655 S
H660 C675 0.959 1_655 S
H661 C675 0.961 . S
H662 C676 0.960 . S
H663 C676 0.961 . S
H664 C676 0.959 . S
H665 C679 0.929 . S
H666 C680 0.931 1_545 S
H667 C682 0.930 . S
C668 H656 0.930 1_545 S
C668 C669 1.399 . S
C668 C673 1.399 1_545 S
C669 C668 1.399 . S
C669 C670 1.376 . S
C670 H657 0.930 . S
C670 C669 1.376 . S
C670 C671 1.388 . S
C671 H658 0.930 . S
C671 C670 1.388 . S
C671 C672 1.390 . S
C672 C671 1.390 . S
C672 C673 1.394 1_545 S
C672 C678 1.465 1_455 S
C673 C668 1.399 1_565 S
C673 C672 1.394 1_565 S
C673 C674 1.516 . S
C674 C673 1.516 . S
C674 C675 1.502 . S
C674 C676 1.561 . S
C674 C677 1.526 1_455 S
C675 H659 0.959 1_455 S
C675 H660 0.959 1_455 S
C675 H661 0.961 . S
C675 C674 1.502 . S
C676 H662 0.960 . S
C676 H663 0.961 . S
C676 H664 0.959 . S
C676 C674 1.561 . S
C677 C674 1.526 1_655 S
C677 C678 1.396 1_565 S
C677 C682 1.390 . S
C678 C672 1.465 1_655 S
C678 C677 1.396 1_545 S
C678 C679 1.399 . S
C679 H665 0.929 . S
C679 C678 1.399 . S
C679 C680 1.385 1_545 S
C680 H666 0.931 1_565 S
C680 C679 1.385 1_565 S
C680 C681 1.389 . S
C681 C680 1.389 . S
C681 C682 1.387 . S
C682 H667 0.930 . S
C682 C677 1.390 . S
C682 C681 1.387 . S
H683 C695 0.930 . S
H684 C697 0.930 . S
H685 C698 0.930 . S
H686 C702 0.959 . S
H687 C702 0.959 . S
H688 C702 0.961 . S
H689 C703 0.960 . S
H690 C703 0.961 . S
H691 C703 0.959 . S
H692 C706 0.929 . S
H693 C707 0.931 . S
H694 C709 0.930 . S
C695 H683 0.930 . S
C695 C696 1.399 . S
C695 C700 1.399 . S
C696 C695 1.399 . S
C696 C697 1.376 . S
C697 H684 0.930 . S
C697 C696 1.376 . S
C697 C698 1.388 . S
C698 H685 0.930 . S
C698 C697 1.388 . S
C698 C699 1.390 . S
C699 C698 1.390 . S
C699 C700 1.394 . S
C699 C705 1.465 1_455 S
C700 C695 1.399 . S
C700 C699 1.394 . S
C700 C701 1.516 . S
C701 C700 1.516 . S
C701 C702 1.502 1_455 S
C701 C703 1.561 . S
C701 C704 1.526 1_455 S
C702 H686 0.959 . S
C702 H687 0.959 . S
C702 H688 0.961 . S
C702 C701 1.502 1_655 S
C703 H689 0.960 . S
C703 H690 0.961 . S
C703 H691 0.959 . S
C703 C701 1.561 . S
C704 C701 1.526 1_655 S
C704 C705 1.396 . S
C704 C709 1.390 . S
C705 C699 1.465 1_655 S
C705 C704 1.396 . S
C705 C706 1.399 . S
C706 H692 0.929 . S
C706 C705 1.399 . S
C706 C707 1.385 . S
C707 H693 0.931 . S
C707 C706 1.385 . S
C707 C708 1.389 . S
C708 C707 1.389 . S
C708 C709 1.387 . S
C709 H694 0.930 . S
C709 C704 1.390 . S
C709 C708 1.387 . S
H710 C722 0.930 . S
H711 C724 0.930 . S
H712 C725 0.930 . S
H713 C729 0.959 . S
H714 C729 0.959 . S
H715 C729 0.961 . S
H716 C730 0.960 . S
H717 C730 0.961 . S
H718 C730 0.959 . S
H719 C733 0.929 . S
H720 C734 0.931 . S
H721 C736 0.930 . S
C722 H710 0.930 . S
C722 C723 1.399 . S
C722 C727 1.399 . S
C723 C722 1.399 . S
C723 C724 1.376 . S
C724 H711 0.930 . S
C724 C723 1.376 . S
C724 C725 1.388 . S
C725 H712 0.930 . S
C725 C724 1.388 . S
C725 C726 1.390 . S
C726 C725 1.390 . S
C726 C727 1.394 . S
C726 C732 1.465 . S
C727 C722 1.399 . S
C727 C726 1.394 . S
C727 C728 1.516 . S
C728 C727 1.516 . S
C728 C729 1.502 . S
C728 C730 1.561 . S
C728 C731 1.526 . S
C729 H713 0.959 . S
C729 H714 0.959 . S
C729 H715 0.961 . S
C729 C728 1.502 . S
C730 H716 0.960 . S
C730 H717 0.961 . S
C730 H718 0.959 . S
C730 C728 1.561 . S
C731 C728 1.526 . S
C731 C732 1.396 . S
C731 C736 1.390 . S
C732 C726 1.465 . S
C732 C731 1.396 . S
C732 C733 1.399 . S
C733 H719 0.929 . S
C733 C732 1.399 . S
C733 C734 1.385 . S
C734 H720 0.931 . S
C734 C733 1.385 . S
C734 C735 1.389 . S
C735 C734 1.389 . S
C735 C736 1.387 . S
C736 H721 0.930 . S
C736 C731 1.390 . S
C736 C735 1.387 . S
H737 C749 0.930 . S
H738 C751 0.930 . S
H739 C752 0.930 . S
H740 C756 0.959 . S
H741 C756 0.959 1_565 S
H742 C756 0.961 . S
H743 C757 0.960 1_545 S
H744 C757 0.961 . S
H745 C757 0.959 . S
H746 C760 0.929 . S
H747 C761 0.931 . S
H748 C763 0.930 . S
C749 H737 0.930 . S
C749 C750 1.399 . S
C749 C754 1.399 . S
C750 C749 1.399 . S
C750 C751 1.376 . S
C751 H738 0.930 . S
C751 C750 1.376 . S
C751 C752 1.388 . S
C752 H739 0.930 . S
C752 C751 1.388 . S
C752 C753 1.390 . S
C753 C752 1.390 . S
C753 C754 1.394 . S
C753 C759 1.465 1_545 S
C754 C749 1.399 . S
C754 C753 1.394 . S
C754 C755 1.516 . S
C755 C754 1.516 . S
C755 C756 1.502 . S
C755 C757 1.561 1_545 S
C755 C758 1.526 1_545 S
C756 H740 0.959 . S
C756 H741 0.959 1_545 S
C756 H742 0.961 . S
C756 C755 1.502 . S
C757 H743 0.960 1_565 S
C757 H744 0.961 . S
C757 H745 0.959 . S
C757 C755 1.561 1_565 S
C758 C755 1.526 1_565 S
C758 C759 1.396 . S
C758 C763 1.390 . S
C759 C753 1.465 1_565 S
C759 C758 1.396 . S
C759 C760 1.399 . S
C760 H746 0.929 . S
C760 C759 1.399 . S
C760 C761 1.385 . S
C761 H747 0.931 . S
C761 C760 1.385 . S
C761 C762 1.389 . S
C762 C761 1.389 . S
C762 C763 1.387 . S
C763 H748 0.930 . S
C763 C758 1.390 . S
C763 C762 1.387 . S
H764 C776 0.930 . S
H765 C778 0.930 . S
H766 C779 0.930 . S
H767 C783 0.959 . S
H768 C783 0.959 . S
H769 C783 0.961 . S
H770 C784 0.960 . S
H771 C784 0.961 . S
H772 C784 0.959 . S
H773 C787 0.929 . S
H774 C788 0.931 . S
H775 C790 0.930 . S
C776 H764 0.930 . S
C776 C777 1.399 . S
C776 C781 1.399 . S
C777 C776 1.399 . S
C777 C778 1.376 . S
C778 H765 0.930 . S
C778 C777 1.376 . S
C778 C779 1.388 . S
C779 H766 0.930 . S
C779 C778 1.388 . S
C779 C780 1.390 . S
C780 C779 1.390 . S
C780 C781 1.394 . S
C780 C786 1.465 1_455 S
C781 C776 1.399 . S
C781 C780 1.394 . S
C781 C782 1.516 . S
C782 C781 1.516 . S
C782 C783 1.502 . S
C782 C784 1.561 . S
C782 C785 1.526 1_455 S
C783 H767 0.959 . S
C783 H768 0.959 . S
C783 H769 0.961 . S
C783 C782 1.502 . S
C784 H770 0.960 . S
C784 H771 0.961 . S
C784 H772 0.959 . S
C784 C782 1.561 . S
C785 C782 1.526 1_655 S
C785 C786 1.396 . S
C785 C790 1.390 . S
C786 C780 1.465 1_655 S
C786 C785 1.396 . S
C786 C787 1.399 . S
C787 H773 0.929 . S
C787 C786 1.399 . S
C787 C788 1.385 . S
C788 H774 0.931 . S
C788 C787 1.385 . S
C788 C789 1.389 . S
C789 C788 1.389 . S
C789 C790 1.387 . S
C790 H775 0.930 . S
C790 C785 1.390 . S
C790 C789 1.387 . S
H791 C803 0.930 . S
H792 C805 0.930 . S
H793 C806 0.930 . S
H794 C810 0.959 . S
H795 C810 0.959 . S
H796 C810 0.961 . S
H797 C811 0.960 . S
H798 C811 0.961 . S
H799 C811 0.959 . S
H800 C814 0.929 . S
H801 C815 0.931 . S
H802 C817 0.930 . S
C803 H791 0.930 . S
C803 C804 1.399 . S
C803 C808 1.399 . S
C804 C803 1.399 . S
C804 C805 1.376 . S
C805 H792 0.930 . S
C805 C804 1.376 . S
C805 C806 1.388 . S
C806 H793 0.930 . S
C806 C805 1.388 . S
C806 C807 1.390 . S
C807 C806 1.390 . S
C807 C808 1.394 . S
C807 C813 1.465 . S
C808 C803 1.399 . S
C808 C807 1.394 . S
C808 C809 1.516 . S
C809 C808 1.516 . S
C809 C810 1.502 . S
C809 C811 1.561 . S
C809 C812 1.526 . S
C810 H794 0.959 . S
C810 H795 0.959 . S
C810 H796 0.961 . S
C810 C809 1.502 . S
C811 H797 0.960 . S
C811 H798 0.961 . S
C811 H799 0.959 . S
C811 C809 1.561 . S
C812 C809 1.526 . S
C812 C813 1.396 . S
C812 C817 1.390 . S
C813 C807 1.465 . S
C813 C812 1.396 . S
C813 C814 1.399 . S
C814 H800 0.929 . S
C814 C813 1.399 . S
C814 C815 1.385 . S
C815 H801 0.931 . S
C815 C814 1.385 . S
C815 C816 1.389 . S
C816 C815 1.389 . S
C816 C817 1.387 . S
C817 H802 0.930 . S
C817 C812 1.390 . S
C817 C816 1.387 . S
H818 C830 0.930 . S
H819 C832 0.930 . S
H820 C833 0.930 . S
H821 C837 0.959 . S
H822 C837 0.959 . S
H823 C837 0.961 . S
H824 C838 0.960 . S
H825 C838 0.961 . S
H826 C838 0.959 . S
H827 C841 0.929 . S
H828 C842 0.931 . S
H829 C844 0.930 . S
C830 H818 0.930 . S
C830 C831 1.399 . S
C830 C835 1.399 . S
C831 C830 1.399 . S
C831 C832 1.376 . S
C832 H819 0.930 . S
C832 C831 1.376 . S
C832 C833 1.388 . S
C833 H820 0.930 . S
C833 C832 1.388 . S
C833 C834 1.390 . S
C834 C833 1.390 . S
C834 C835 1.394 . S
C834 C840 1.465 . S
C835 C830 1.399 . S
C835 C834 1.394 . S
C835 C836 1.516 1_565 S
C836 C835 1.516 1_545 S
C836 C837 1.502 . S
C836 C838 1.561 1_545 S
C836 C839 1.526 . S
C837 H821 0.959 . S
C837 H822 0.959 . S
C837 H823 0.961 . S
C837 C836 1.502 . S
C838 H824 0.960 . S
C838 H825 0.961 . S
C838 H826 0.959 . S
C838 C836 1.561 1_565 S
C839 C836 1.526 . S
C839 C840 1.396 1_545 S
C839 C844 1.390 . S
C840 C834 1.465 . S
C840 C839 1.396 1_565 S
C840 C841 1.399 . S
C841 H827 0.929 . S
C841 C840 1.399 . S
C841 C842 1.385 1_565 S
C842 H828 0.931 . S
C842 C841 1.385 1_545 S
C842 C843 1.389 . S
C843 C842 1.389 . S
C843 C844 1.387 . S
C844 H829 0.930 . S
C844 C839 1.390 . S
C844 C843 1.387 . S
H845 C857 0.930 . S
H846 C859 0.930 1_655 S
H847 C860 0.930 . S
H848 C864 0.959 . S
H849 C864 0.959 . S
H850 C864 0.961 . S
H851 C865 0.960 1_545 S
H852 C865 0.961 . S
H853 C865 0.959 1_645 S
H854 C868 0.929 . S
H855 C869 0.931 . S
H856 C871 0.934 . S
C857 H845 0.930 . S
C857 C858 1.399 . S
C857 C862 1.399 . S
C858 C857 1.399 . S
C858 C859 1.376 . S
C859 H846 0.930 1_455 S
C859 C858 1.376 . S
C859 C860 1.388 1_455 S
C860 H847 0.930 . S
C860 C859 1.388 1_655 S
C860 C861 1.390 . S
C861 C860 1.390 . S
C861 C862 1.394 1_655 S
C861 C867 1.465 1_545 S
C862 C857 1.399 . S
C862 C861 1.394 1_455 S
C862 C863 1.516 1_545 S
C863 C862 1.516 1_565 S
C863 C864 1.502 . S
C863 C865 1.561 . S
C863 C866 1.526 1_455 S
C864 H848 0.959 . S
C864 H849 0.959 . S
C864 H850 0.961 . S
C864 C863 1.502 . S
C865 H851 0.960 1_565 S
C865 H852 0.961 . S
C865 H853 0.959 1_465 S
C865 C863 1.561 . S
C866 C863 1.526 1_655 S
C866 C867 1.396 . S
C866 C871 1.390 . S
C867 C861 1.465 1_565 S
C867 C866 1.396 . S
C867 C868 1.399 . S
C868 H854 0.929 . S
C868 C867 1.399 . S
C868 C869 1.385 . S
C869 H855 0.931 . S
C869 C868 1.385 . S
C869 C870 1.389 . S
C870 C869 1.389 . S
C870 C871 1.387 . S
C871 H856 0.934 . S
C871 C866 1.390 . S
C871 C870 1.387 . S
H872 C884 0.930 . S
H873 C886 0.930 . S
H874 C887 0.930 . S
H875 C891 0.959 . S
H876 C891 0.959 . S
H877 C891 0.961 . S
H878 C892 0.960 . S
H879 C892 0.961 . S
H880 C892 0.959 . S
H881 C895 0.929 1_565 S
H882 C896 0.931 . S
H883 C898 0.930 . S
C884 H872 0.930 . S
C884 C885 1.399 . S
C884 C889 1.399 . S
C885 C884 1.399 . S
C885 C886 1.376 . S
C886 H873 0.930 . S
C886 C885 1.376 . S
C886 C887 1.388 . S
C887 H874 0.930 . S
C887 C886 1.388 . S
C887 C888 1.390 . S
C888 C887 1.390 . S
C888 C889 1.394 . S
C888 C894 1.464 1_565 S
C889 C884 1.399 . S
C889 C888 1.394 . S
C889 C890 1.516 1_565 S
C890 C889 1.516 1_545 S
C890 C891 1.502 . S
C890 C892 1.561 1_545 S
C890 C893 1.526 . S
C891 H875 0.959 . S
C891 H876 0.959 . S
C891 H877 0.961 . S
C891 C890 1.502 . S
C892 H878 0.960 . S
C892 H879 0.961 . S
C892 H880 0.959 . S
C892 C890 1.561 1_565 S
C893 C890 1.526 . S
C893 C894 1.397 . S
C893 C898 1.390 . S
C894 C888 1.464 1_545 S
C894 C893 1.397 . S
C894 C895 1.399 . S
C895 H881 0.929 1_545 S
C895 C894 1.399 . S
C895 C896 1.385 . S
C896 H882 0.931 . S
C896 C895 1.385 . S
C896 C897 1.389 . S
C897 C896 1.389 . S
C897 C898 1.387 . S
C898 H883 0.930 . S
C898 C893 1.390 . S
C898 C897 1.387 . S
H899 C911 0.930 . S
H900 C913 0.930 . S
H901 C914 0.930 . S
H902 C918 0.959 . S
H903 C918 0.960 . S
H904 C918 0.961 . S
H905 C919 0.960 1_565 S
H906 C919 0.961 . S
H907 C919 0.959 . S
H908 C922 0.929 . S
H909 C923 0.931 . S
H910 C925 0.930 . S
C911 H899 0.930 . S
C911 C912 1.399 . S
C911 C916 1.399 . S
C912 C911 1.399 . S
C912 C913 1.376 . S
C913 H900 0.930 . S
C913 C912 1.376 . S
C913 C914 1.388 . S
C914 H901 0.930 . S
C914 C913 1.388 . S
C914 C915 1.390 . S
C915 C914 1.390 . S
C915 C916 1.394 . S
C915 C921 1.465 1_565 S
C916 C911 1.399 . S
C916 C915 1.394 . S
C916 C917 1.516 1_655 S
C917 C916 1.516 1_455 S
C917 C918 1.502 . S
C917 C919 1.561 1_465 S
C917 C920 1.526 1_565 S
C918 H902 0.959 . S
C918 H903 0.960 . S
C918 H904 0.961 . S
C918 C917 1.502 . S
C919 H905 0.960 1_545 S
C919 H906 0.961 . S
C919 H907 0.959 . S
C919 C917 1.561 1_645 S
C920 C917 1.526 1_545 S
C920 C921 1.396 1_455 S
C920 C925 1.390 . S
C921 C915 1.465 1_545 S
C921 C920 1.396 1_655 S
C921 C922 1.399 . S
C922 H908 0.929 . S
C922 C921 1.399 . S
C922 C923 1.385 1_655 S
C923 H909 0.931 . S
C923 C922 1.385 1_455 S
C923 C924 1.389 . S
C924 C923 1.389 . S
C924 C925 1.387 . S
C925 H910 0.930 . S
C925 C920 1.390 . S
C925 C924 1.387 . S
H926 C938 0.930 . S
H927 C940 0.930 . S
H928 C941 0.930 . S
H929 C945 0.959 . S
H930 C945 0.968 . S
H931 C945 0.961 . S
H932 C946 0.960 1_455 S
H933 C946 0.961 . S
H934 C946 0.959 . S
H935 C949 0.929 . S
H936 C950 0.931 . S
H937 C952 0.930 . S
C938 H926 0.930 . S
C938 C939 1.399 . S
C938 C943 1.399 . S
C939 C938 1.399 . S
C939 C940 1.376 . S
C940 H927 0.930 . S
C940 C939 1.376 . S
C940 C941 1.388 . S
C941 H928 0.930 . S
C941 C940 1.388 . S
C941 C942 1.390 . S
C942 C941 1.390 . S
C942 C943 1.394 . S
C942 C948 1.465 1_455 S
C943 C938 1.399 . S
C943 C942 1.394 . S
C943 C944 1.516 . S
C944 C943 1.516 . S
C944 C945 1.502 . S
C944 C946 1.561 1_455 S
C944 C947 1.526 1_455 S
C945 H929 0.959 . S
C945 H930 0.968 . S
C945 H931 0.961 . S
C945 C944 1.502 . S
C946 H932 0.960 1_655 S
C946 H933 0.961 . S
C946 H934 0.959 . S
C946 C944 1.561 1_655 S
C947 C944 1.526 1_655 S
C947 C948 1.396 . S
C947 C952 1.390 . S
C948 C942 1.465 1_655 S
C948 C947 1.396 . S
C948 C949 1.399 . S
C949 H935 0.929 . S
C949 C948 1.399 . S
C949 C950 1.385 . S
C950 H936 0.931 . S
C950 C949 1.385 . S
C950 C951 1.389 . S
C951 C950 1.389 . S
C951 C952 1.387 . S
C952 H937 0.930 . S
C952 C947 1.390 . S
C952 C951 1.387 . S
H953 C965 0.930 . S
H954 C967 0.930 . S
H955 C968 0.930 . S
H956 C972 0.959 . S
H957 C972 0.959 . S
H958 C972 0.961 . S
H959 C973 0.960 . S
H960 C973 0.961 . S
H961 C973 0.959 . S
H962 C976 0.929 . S
H963 C977 0.931 . S
H964 C979 0.930 . S
C965 H953 0.930 . S
C965 C966 1.399 . S
C965 C970 1.399 . S
C966 C965 1.399 . S
C966 C967 1.376 . S
C967 H954 0.930 . S
C967 C966 1.376 . S
C967 C968 1.388 . S
C968 H955 0.930 . S
C968 C967 1.388 . S
C968 C969 1.390 . S
C969 C968 1.390 . S
C969 C970 1.394 . S
C969 C975 1.465 . S
C970 C965 1.399 . S
C970 C969 1.394 . S
C970 C971 1.516 . S
C971 C970 1.516 . S
C971 C972 1.502 . S
C971 C973 1.561 . S
C971 C974 1.526 . S
C972 H956 0.959 . S
C972 H957 0.959 . S
C972 H958 0.961 . S
C972 C971 1.502 . S
C973 H959 0.960 . S
C973 H960 0.961 . S
C973 H961 0.959 . S
C973 C971 1.561 . S
C974 C971 1.526 . S
C974 C975 1.396 . S
C974 C979 1.390 . S
C975 C969 1.465 . S
C975 C974 1.396 . S
C975 C976 1.399 . S
C976 H962 0.929 . S
C976 C975 1.399 . S
C976 C977 1.385 . S
C977 H963 0.931 . S
C977 C976 1.385 . S
C977 C978 1.389 . S
C978 C977 1.389 . S
C978 C979 1.387 . S
C979 H964 0.930 . S
C979 C974 1.390 . S
C979 C978 1.387 . S
H980 C992 0.930 . S
H981 C994 0.930 . S
H982 C995 0.930 . S
H983 C999 0.959 . S
H984 C999 0.959 . S
H985 C999 0.961 . S
H986 C1000 0.960 . S
H987 C1000 0.961 . S
H988 C1000 0.959 . S
H989 C1003 0.929 . S
H990 C1004 0.931 . S
H991 C1006 0.930 . S
C992 H980 0.930 . S
C992 C993 1.399 . S
C992 C997 1.399 . S
C993 C992 1.399 . S
C993 C994 1.376 . S
C994 H981 0.930 . S
C994 C993 1.376 . S
C994 C995 1.388 . S
C995 H982 0.930 . S
C995 C994 1.388 . S
C995 C996 1.390 . S
C996 C995 1.390 . S
C996 C997 1.394 . S
C996 C1002 1.465 . S
C997 C992 1.399 . S
C997 C996 1.394 . S
C997 C998 1.516 . S
C998 C997 1.516 . S
C998 C999 1.502 . S
C998 C1000 1.561 . S
C998 C1001 1.526 . S
C999 H983 0.959 . S
C999 H984 0.959 . S
C999 H985 0.961 . S
C999 C998 1.502 . S
C1000 H986 0.960 . S
C1000 H987 0.961 . S
C1000 H988 0.959 . S
C1000 C998 1.561 . S
C1001 C998 1.526 . S
C1001 C1002 1.396 . S
C1001 C1006 1.390 . S
C1002 C996 1.465 . S
C1002 C1001 1.396 . S
C1002 C1003 1.399 . S
C1003 H989 0.929 . S
C1003 C1002 1.399 . S
C1003 C1004 1.385 . S
C1004 H990 0.931 . S
C1004 C1003 1.385 . S
C1004 C1005 1.389 . S
C1005 C1004 1.389 . S
C1005 C1006 1.387 . S
C1006 H991 0.930 . S
C1006 C1001 1.390 . S
C1006 C1005 1.387 . S
H1007 C1019 0.930 . S
H1008 C1021 0.930 . S
H1009 C1022 0.930 . S
H1010 C1026 0.959 . S
H1011 C1026 0.959 1_565 S
H1012 C1026 0.961 . S
H1013 C1027 0.960 1_545 S
H1014 C1027 0.961 . S
H1015 C1027 0.959 . S
H1016 C1030 0.929 . S
H1017 C1031 0.931 . S
H1018 C1033 0.930 . S
C1019 H1007 0.930 . S
C1019 C1020 1.399 . S
C1019 C1024 1.399 . S
C1020 C1019 1.399 . S
C1020 C1021 1.376 . S
C1021 H1008 0.930 . S
C1021 C1020 1.376 . S
C1021 C1022 1.388 . S
C1022 H1009 0.930 . S
C1022 C1021 1.388 . S
C1022 C1023 1.390 . S
C1023 C1022 1.390 . S
C1023 C1024 1.394 . S
C1023 C1029 1.465 1_545 S
C1024 C1019 1.399 . S
C1024 C1023 1.394 . S
C1024 C1025 1.516 . S
C1025 C1024 1.516 . S
C1025 C1026 1.502 . S
C1025 C1027 1.561 1_545 S
C1025 C1028 1.526 1_545 S
C1026 H1010 0.959 . S
C1026 H1011 0.959 1_545 S
C1026 H1012 0.961 . S
C1026 C1025 1.502 . S
C1027 H1013 0.960 1_565 S
C1027 H1014 0.961 . S
C1027 H1015 0.959 . S
C1027 C1025 1.561 1_565 S
C1028 C1025 1.526 1_565 S
C1028 C1029 1.396 . S
C1028 C1033 1.390 . S
C1029 C1023 1.465 1_565 S
C1029 C1028 1.396 . S
C1029 C1030 1.399 . S
C1030 H1016 0.929 . S
C1030 C1029 1.399 . S
C1030 C1031 1.385 . S
C1031 H1017 0.931 . S
C1031 C1030 1.385 . S
C1031 C1032 1.389 . S
C1032 C1031 1.389 . S
C1032 C1033 1.387 . S
C1033 H1018 0.930 . S
C1033 C1028 1.390 . S
C1033 C1032 1.387 . S
H1034 C1046 0.930 1_545 S
H1035 C1048 0.930 . S
H1036 C1049 0.930 . S
H1037 C1053 0.959 . S
H1038 C1053 0.959 . S
H1039 C1053 0.961 . S
H1040 C1054 0.960 . S
H1041 C1054 0.961 1_455 S
H1042 C1054 0.959 1_465 S
H1043 C1057 0.929 . S
H1044 C1058 0.930 . S
H1045 C1060 0.930 . S
C1046 H1034 0.930 1_565 S
C1046 C1047 1.399 . S
C1046 C1051 1.399 . S
C1047 C1046 1.399 . S
C1047 C1048 1.376 . S
C1048 H1035 0.930 . S
C1048 C1047 1.376 . S
C1048 C1049 1.388 . S
C1049 H1036 0.930 . S
C1049 C1048 1.388 . S
C1049 C1050 1.390 . S
C1050 C1049 1.390 . S
C1050 C1051 1.394 . S
C1050 C1056 1.465 1_655 S
C1051 C1046 1.399 . S
C1051 C1050 1.394 . S
C1051 C1052 1.516 1_565 S
C1052 C1051 1.516 1_545 S
C1052 C1053 1.502 . S
C1052 C1054 1.561 . S
C1052 C1055 1.526 1_655 S
C1053 H1037 0.959 . S
C1053 H1038 0.959 . S
C1053 H1039 0.961 . S
C1053 C1052 1.502 . S
C1054 H1040 0.960 . S
C1054 H1041 0.961 1_655 S
C1054 H1042 0.959 1_645 S
C1054 C1052 1.561 . S
C1055 C1052 1.526 1_455 S
C1055 C1056 1.396 1_545 S
C1055 C1060 1.390 . S
C1056 C1050 1.465 1_455 S
C1056 C1055 1.396 1_565 S
C1056 C1057 1.399 . S
C1057 H1043 0.929 . S
C1057 C1056 1.399 . S
C1057 C1058 1.385 1_565 S
C1058 H1044 0.930 . S
C1058 C1057 1.385 1_545 S
C1058 C1059 1.389 . S
C1059 C1058 1.389 . S
C1059 C1060 1.387 . S
C1060 H1045 0.930 . S
C1060 C1055 1.390 . S
C1060 C1059 1.387 . S
H1061 C1073 0.930 . S
H1062 C1075 0.930 1_455 S
H1063 C1076 0.930 . S
H1064 C1080 0.959 . S
H1065 C1080 0.959 . S
H1066 C1080 0.961 . S
H1067 C1081 0.960 . S
H1068 C1081 0.961 . S
H1069 C1081 0.959 1_455 S
H1070 C1084 0.929 . S
H1071 C1085 0.931 . S
H1072 C1087 0.936 . S
C1073 H1061 0.930 . S
C1073 C1074 1.399 . S
C1073 C1078 1.399 . S
C1074 C1073 1.399 . S
C1074 C1075 1.376 . S
C1075 H1062 0.930 1_655 S
C1075 C1074 1.376 . S
C1075 C1076 1.388 1_655 S
C1076 H1063 0.930 . S
C1076 C1075 1.388 1_455 S
C1076 C1077 1.390 . S
C1077 C1076 1.390 . S
C1077 C1078 1.394 1_455 S
C1077 C1083 1.465 . S
C1078 C1073 1.399 . S
C1078 C1077 1.394 1_655 S
C1078 C1079 1.516 . S
C1079 C1078 1.516 . S
C1079 C1080 1.502 . S
C1079 C1081 1.561 . S
C1079 C1082 1.526 1_655 S
C1080 H1064 0.959 . S
C1080 H1065 0.959 . S
C1080 H1066 0.961 . S
C1080 C1079 1.502 . S
C1081 H1067 0.960 . S
C1081 H1068 0.961 . S
C1081 H1069 0.959 1_655 S
C1081 C1079 1.561 . S
C1082 C1079 1.526 1_455 S
C1082 C1083 1.396 . S
C1082 C1087 1.390 . S
C1083 C1077 1.465 . S
C1083 C1082 1.396 . S
C1083 C1084 1.399 . S
C1084 H1070 0.929 . S
C1084 C1083 1.399 . S
C1084 C1085 1.385 . S
C1085 H1071 0.931 . S
C1085 C1084 1.385 . S
C1085 C1086 1.389 . S
C1086 C1085 1.389 . S
C1086 C1087 1.387 . S
C1087 H1072 0.936 . S
C1087 C1082 1.390 . S
C1087 C1086 1.387 . S
C237 C68 0.987 . S
C249 C12 1.040 . S
C264 C26 1.043 . S
C276 C82 0.984 . S
C291 C96 1.002 . S
C303 C40 1.031 . S
C318 C110 0.980 . S
C330 C54 1.019 . S
C345 C180 1.033 . S
C357 C124 0.972 . S
C372 C138 1.041 . S
C384 C194 0.986 . S
C399 C208 1.029 . S
C411 C152 0.974 . S
C426 C166 0.977 . S
C438 C222 1.022 . S
C453 C5 1.133 . S
C465 C215 1.053 . S
C480 C19 1.182 . S
C492 C173 1.149 . S
C507 C33 1.074 . S
C519 C187 1.152 . S
C534 C201 1.073 . S
C546 C47 1.151 . S
C561 C61 1.075 . S
C573 C131 1.153 . S
C588 C75 1.078 . S
C600 C145 1.019 . S
C615 C159 1.181 . S
C627 C89 1.158 . S
C642 C117 1.057 . S
C654 C103 1.138 . S
C669 C11 1.471 . S
C681 C151 1.475 . S
C696 C165 1.431 . S
C708 C25 1.433 . S
C723 C39 1.433 . S
C735 C123 1.439 . S
C750 C137 1.434 . S
C762 C53 1.440 . S
C777 C67 1.452 . S
C789 C207 1.461 . S
C804 C81 1.434 . S
C816 C221 1.441 . S
C831 C179 1.433 . S
C843 C95 1.439 . S
C858 C193 1.471 . S
C870 C109 1.463 . S
C885 C144 1.579 . S
C897 C4 1.587 . S
C912 C18 1.577 . S
C924 C158 1.587 . S
C939 C32 1.577 . S
C951 C116 1.587 . S
C966 C130 1.577 . S
C978 C46 1.587 . S
C993 C200 1.557 . S
C1005 C60 1.548 . S
C1020 C214 1.579 . S
C1032 C74 1.587 . S
C1047 C172 1.570 . S
C1059 C88 1.584 . S
C1074 C102 1.564 . S
C1086 C186 1.551 . S
