# Generated by pormake.
# Topology xff, (7)-cn, num edge types: 1
# Building blocks:
#     Node 0, Type 0, BuildingBlock: NUHQUE_clean_sbu_2, # of connection points: 7
#     Node 1, Type 0, BuildingBlock: NUHQUE_clean_sbu_2, # of connection points: 7
#     Node 2, Type 0, BuildingBlock: NUHQUE_clean_sbu_2, # of connection points: 7
#     Node 3, Type 0, BuildingBlock: NUHQUE_clean_sbu_2, # of connection points: 7
#     Node 4, Type 0, BuildingBlock: NUHQUE_clean_sbu_2, # of connection points: 7
#     Node 5, Type 0, BuildingBlock: NUHQUE_clean_sbu_2, # of connection points: 7
#     Node 6, Type 0, BuildingBlock: NUHQUE_clean_sbu_2, # of connection points: 7
#     Node 7, Type 0, BuildingBlock: NUHQUE_clean_sbu_2, # of connection points: 7
#     Node 8, Type 0, BuildingBlock: NUHQUE_clean_sbu_2, # of connection points: 7
#     Node 9, Type 0, BuildingBlock: NUHQUE_clean_sbu_2, # of connection points: 7
#     Node 10, Type 0, BuildingBlock: NUHQUE_clean_sbu_2, # of connection points: 7
#     Node 11, Type 0, BuildingBlock: NUHQUE_clean_sbu_2, # of connection points: 7
#     Node 12, Type 0, BuildingBlock: NUHQUE_clean_sbu_2, # of connection points: 7
#     Node 13, Type 0, BuildingBlock: NUHQUE_clean_sbu_2, # of connection points: 7
#     Node 14, Type 0, BuildingBlock: NUHQUE_clean_sbu_2, # of connection points: 7
#     Node 15, Type 0, BuildingBlock: NUHQUE_clean_sbu_2, # of connection points: 7
#     Edge 16, Type (0, 0), BuildingBlock: XIVTED_clean_linker_0, # of connection points: 2
#     Edge 17, Type (0, 0), BuildingBlock: XIVTED_clean_linker_0, # of connection points: 2
#     Edge 18, Type (0, 0), BuildingBlock: XIVTED_clean_linker_0, # of connection points: 2
#     Edge 19, Type (0, 0), BuildingBlock: XIVTED_clean_linker_0, # of connection points: 2
#     Edge 20, Type (0, 0), BuildingBlock: XIVTED_clean_linker_0, # of connection points: 2
#     Edge 21, Type (0, 0), BuildingBlock: XIVTED_clean_linker_0, # of connection points: 2
#     Edge 22, Type (0, 0), BuildingBlock: XIVTED_clean_linker_0, # of connection points: 2
#     Edge 23, Type (0, 0), BuildingBlock: XIVTED_clean_linker_0, # of connection points: 2
#     Edge 24, Type (0, 0), BuildingBlock: XIVTED_clean_linker_0, # of connection points: 2
#     Edge 25, Type (0, 0), BuildingBlock: XIVTED_clean_linker_0, # of connection points: 2
#     Edge 26, Type (0, 0), BuildingBlock: XIVTED_clean_linker_0, # of connection points: 2
#     Edge 27, Type (0, 0), BuildingBlock: XIVTED_clean_linker_0, # of connection points: 2
#     Edge 28, Type (0, 0), BuildingBlock: XIVTED_clean_linker_0, # of connection points: 2
#     Edge 29, Type (0, 0), BuildingBlock: XIVTED_clean_linker_0, # of connection points: 2
#     Edge 30, Type (0, 0), BuildingBlock: XIVTED_clean_linker_0, # of connection points: 2
#     Edge 31, Type (0, 0), BuildingBlock: XIVTED_clean_linker_0, # of connection points: 2
#     Edge 32, Type (0, 0), BuildingBlock: XIVTED_clean_linker_0, # of connection points: 2
#     Edge 33, Type (0, 0), BuildingBlock: XIVTED_clean_linker_0, # of connection points: 2
#     Edge 34, Type (0, 0), BuildingBlock: XIVTED_clean_linker_0, # of connection points: 2
#     Edge 35, Type (0, 0), BuildingBlock: XIVTED_clean_linker_0, # of connection points: 2
#     Edge 36, Type (0, 0), BuildingBlock: XIVTED_clean_linker_0, # of connection points: 2
#     Edge 37, Type (0, 0), BuildingBlock: XIVTED_clean_linker_0, # of connection points: 2
#     Edge 38, Type (0, 0), BuildingBlock: XIVTED_clean_linker_0, # of connection points: 2
#     Edge 39, Type (0, 0), BuildingBlock: XIVTED_clean_linker_0, # of connection points: 2
#     Edge 40, Type (0, 0), BuildingBlock: XIVTED_clean_linker_0, # of connection points: 2
#     Edge 41, Type (0, 0), BuildingBlock: XIVTED_clean_linker_0, # of connection points: 2
#     Edge 42, Type (0, 0), BuildingBlock: XIVTED_clean_linker_0, # of connection points: 2
#     Edge 43, Type (0, 0), BuildingBlock: XIVTED_clean_linker_0, # of connection points: 2
#     Edge 44, Type (0, 0), BuildingBlock: XIVTED_clean_linker_0, # of connection points: 2
#     Edge 45, Type (0, 0), BuildingBlock: XIVTED_clean_linker_0, # of connection points: 2
#     Edge 46, Type (0, 0), BuildingBlock: XIVTED_clean_linker_0, # of connection points: 2
#     Edge 47, Type (0, 0), BuildingBlock: XIVTED_clean_linker_0, # of connection points: 2
#     Edge 48, Type (0, 0), BuildingBlock: XIVTED_clean_linker_0, # of connection points: 2
#     Edge 49, Type (0, 0), BuildingBlock: XIVTED_clean_linker_0, # of connection points: 2
#     Edge 50, Type (0, 0), BuildingBlock: XIVTED_clean_linker_0, # of connection points: 2
#     Edge 51, Type (0, 0), BuildingBlock: XIVTED_clean_linker_0, # of connection points: 2
#     Edge 52, Type (0, 0), BuildingBlock: XIVTED_clean_linker_0, # of connection points: 2
#     Edge 53, Type (0, 0), BuildingBlock: XIVTED_clean_linker_0, # of connection points: 2
#     Edge 54, Type (0, 0), BuildingBlock: XIVTED_clean_linker_0, # of connection points: 2
#     Edge 55, Type (0, 0), BuildingBlock: XIVTED_clean_linker_0, # of connection points: 2
#     Edge 56, Type (0, 0), BuildingBlock: XIVTED_clean_linker_0, # of connection points: 2
#     Edge 57, Type (0, 0), BuildingBlock: XIVTED_clean_linker_0, # of connection points: 2
#     Edge 58, Type (0, 0), BuildingBlock: XIVTED_clean_linker_0, # of connection points: 2
#     Edge 59, Type (0, 0), BuildingBlock: XIVTED_clean_linker_0, # of connection points: 2
#     Edge 60, Type (0, 0), BuildingBlock: XIVTED_clean_linker_0, # of connection points: 2
#     Edge 61, Type (0, 0), BuildingBlock: XIVTED_clean_linker_0, # of connection points: 2
#     Edge 62, Type (0, 0), BuildingBlock: XIVTED_clean_linker_0, # of connection points: 2
#     Edge 63, Type (0, 0), BuildingBlock: XIVTED_clean_linker_0, # of connection points: 2
#     Edge 64, Type (0, 0), BuildingBlock: XIVTED_clean_linker_0, # of connection points: 2
#     Edge 65, Type (0, 0), BuildingBlock: XIVTED_clean_linker_0, # of connection points: 2
#     Edge 66, Type (0, 0), BuildingBlock: XIVTED_clean_linker_0, # of connection points: 2
#     Edge 67, Type (0, 0), BuildingBlock: XIVTED_clean_linker_0, # of connection points: 2
#     Edge 68, Type (0, 0), BuildingBlock: XIVTED_clean_linker_0, # of connection points: 2
#     Edge 69, Type (0, 0), BuildingBlock: XIVTED_clean_linker_0, # of connection points: 2
#     Edge 70, Type (0, 0), BuildingBlock: XIVTED_clean_linker_0, # of connection points: 2
#     Edge 71, Type (0, 0), BuildingBlock: XIVTED_clean_linker_0, # of connection points: 2
# Relax obj value: 0.134
# Max RMSD: 0.234
# Mean RMSD: 0.234
data_MOF--net-xff--node1-NUHQUE_clean_sbu_2--edge1-XIVTED_clean_linker_0
_symmetry_space_group_name_H-M    P1
_symmetry_Int_Tables_number       1
_symmetry_cell_setting            triclinic
loop_
_symmetry_equiv_pos_as_xyz
'x, y, z'
_cell_length_a     35.1192
_cell_length_b     35.056752
_cell_length_c     68.280995
_cell_angle_alpha  89.909841
_cell_angle_beta   89.613518
_cell_angle_gamma 90.282128
loop_
_atom_site_label
_atom_site_type_symbol
_atom_site_fract_x
_atom_site_fract_y
_atom_site_fract_z
_atom_type_partial_charge
O0 O 0.29629 0.23935 0.08503 0.0
Tb1 Tb 0.29582 0.22462 0.11613 0.0
Eu2 Eu 0.32488 0.14278 0.09281 0.0
C3 C 0.32022 0.26637 0.07935 0.0
O4 O 0.34456 0.27984 0.09212 0.0
C5 C 0.38257 0.21144 0.1092 0.0
O6 O 0.33232 0.10325 0.11876 0.0
C7 C 0.3339 0.10892 0.05929 0.0
C8 C 0.34556 0.11617 0.1355 0.0
O9 O 0.3565 0.15189 0.13665 0.0
C10 C 0.24917 0.15041 0.11667 0.0
C11 C 0.31589 0.08306 0.04478 0.0
C12 C 0.3029 0.09815 0.02686 0.0
C13 C 0.28968 0.07395 1.01196 0.0
C14 C 0.28828 0.03452 1.01536 0.0
C15 C 0.30125 0.01883 0.03297 0.0
C16 C 0.31539 0.04315 0.0476 0.0
O17 O 0.35665 0.2268 0.12073 0.0
O18 O 0.3747 0.18424 0.09642 0.0
O19 O 0.25117 0.26756 0.11627 0.0
O20 O 0.28905 0.26507 0.14037 0.0
C21 C 0.25971 0.28246 0.13307 0.0
O22 O 0.26131 0.14436 0.09874 0.0
O23 O 0.268 0.17408 0.12784 0.0
O24 O 0.34535 0.09428 0.07601 0.0
O25 O 0.31987 0.14355 0.06106 0.0
H26 H 0.30468 0.12859 1.02415 0.0
H27 H 0.27817 0.01571 1.00389 0.0
H28 H 0.32644 0.03085 0.06096 0.0
O29 O 0.52622 0.54986 0.3342 0.0
Tb30 Tb 0.54772 0.54851 0.36406 0.0
Eu31 Eu 0.62498 0.57614 0.33708 0.0
C32 C 0.49808 0.57352 0.33057 0.0
O33 O 0.48702 0.5968 0.34453 0.0
C34 C 0.56205 0.63199 0.35446 0.0
O35 O 0.65223 0.59061 0.36612 0.0
C36 C 0.66674 0.58803 0.30614 0.0
C37 C 0.68364 0.5734 0.37159 0.0
O38 O 0.7002 0.54973 0.35934 0.0
C39 C 0.619 0.49973 0.35967 0.0
C40 C 0.69421 0.56745 0.2934 0.0
C41 C 0.68147 0.54752 0.27668 0.0
C42 C 0.70744 0.52825 0.26455 0.0
C43 C 0.74626 0.52929 0.26906 0.0
C44 C 0.75967 0.55028 0.28506 0.0
C45 C 0.73358 0.56935 0.29719 0.0
O46 O 0.5557 0.60879 0.36925 0.0
O47 O 0.57768 0.61946 0.33812 0.0
O48 O 0.51093 0.4997 0.36956 0.0
O49 O 0.5056 0.54819 0.38803 0.0
C50 C 0.49296 0.51387 0.38451 0.0
O51 O 0.62322 0.51256 0.34175 0.0
O52 O 0.59915 0.5194 0.37238 0.0
O53 O 0.67781 0.59706 0.32395 0.0
O54 O 0.63094 0.5768 0.30542 0.0
H55 H 0.65148 0.54691 0.27306 0.0
H56 H 0.76642 0.51548 0.2593 0.0
H57 H 0.74408 0.58593 0.30943 0.0
O58 O 0.21687 0.78555 0.58426 0.0
Tb59 Tb 0.21884 0.79885 0.61539 0.0
Eu60 Eu 0.19202 0.88058 0.59063 0.0
C61 C 0.19204 0.75948 0.57874 0.0
O62 O 0.168 0.74587 0.59182 0.0
C63 C 0.1329 0.81456 0.60847 0.0
O64 O 0.18819 0.91807 0.61757 0.0
C65 C 0.18539 0.91731 0.55766 0.0
C66 C 0.16217 0.91337 0.63136 0.0
O67 O 0.13457 0.88859 0.62872 0.0
C68 C 0.26746 0.87115 0.6139 0.0
C69 C 0.20594 0.94339 0.54383 0.0
C70 C 0.22245 0.9286 0.5265 0.0
C71 C 0.23991 0.953 0.51273 0.0
C72 C 0.24089 0.99225 0.51627 0.0
C73 C 0.22329 1.00791 0.53288 0.0
C74 C 0.20583 0.98336 0.54666 0.0
O75 O 0.1582 0.801 0.6208 0.0
O76 O 0.14181 0.83917 0.59438 0.0
O77 O 0.26141 0.75375 0.61449 0.0
O78 O 0.22593 0.75819 0.63966 0.0
C79 C 0.25379 0.73933 0.6316 0.0
O80 O 0.25548 0.87581 0.59589 0.0
O81 O 0.24826 0.84894 0.6258 0.0
O82 O 0.17371 0.93108 0.57461 0.0
O83 O 0.19754 0.88188 0.55887 0.0
H84 H 0.22094 0.8983 0.52344 0.0
H85 H 0.25311 0.011 0.50521 0.0
H86 H 0.19154 0.99552 0.55928 0.0
O87 O 0.98984 0.47393 0.83201 0.0
Tb88 Tb 0.97102 0.47296 0.86251 0.0
Eu89 Eu 0.88678 0.43967 0.83931 0.0
C90 C 0.01328 0.44704 0.82604 0.0
O91 O 0.02014 0.41837 0.83787 0.0
C92 C 0.95336 0.3862 0.85884 0.0
O93 O 0.84761 0.43563 0.86576 0.0
C94 C 0.85293 0.42855 0.80606 0.0
C95 C 0.85152 0.40978 0.87962 0.0
O96 O 0.87682 0.38269 0.8774 0.0
C97 C 0.89603 0.51642 0.86153 0.0
C98 C 0.8268 0.44603 0.79156 0.0
C99 C 0.84147 0.45862 0.77334 0.0
C100 C 0.81702 0.47182 0.75861 0.0
C101 C 0.77783 0.47361 0.76247 0.0
C102 C 0.76257 0.46109 0.78039 0.0
C103 C 0.78706 0.44689 0.79485 0.0
O104 O 0.96559 0.41345 0.87049 0.0
O105 O 0.93006 0.39254 0.84409 0.0
O106 O 0.01926 0.472 0.8827 0.0
O107 O 1.00065 0.52506 0.87135 0.0
C108 C 0.02505 0.50869 0.88278 0.0
O109 O 0.89 0.50336 0.84383 0.0
O110 O 0.91875 0.49789 0.87324 0.0
O111 O 0.83867 0.41705 0.82298 0.0
O112 O 0.88732 0.44343 0.8075 0.0
H113 H 0.87174 0.45668 0.7703 0.0
H114 H 0.75882 0.48379 0.75118 0.0
H115 H 0.77504 0.43626 0.80847 0.0
O116 O 0.72037 0.78841 0.96556 0.0
Tb117 Tb 0.72223 0.80041 0.93423 0.0
Eu118 Eu 0.69218 0.88883 0.95404 0.0
C119 C 0.6936 0.76513 0.97214 0.0
O120 O 0.66652 0.75454 0.96015 0.0
C121 C 0.63548 0.81953 0.93812 0.0
O122 O 0.68165 0.92484 0.92699 0.0
C123 C 0.68298 0.92601 0.98671 0.0
C124 C 0.67491 0.90823 0.91006 0.0
O125 O 0.67393 0.8709 0.9093 0.0
C126 C 0.76899 0.87437 0.93173 0.0
C127 C 0.70255 0.94981 1.0017 0.0
C128 C 0.71492 0.93283 1.01931 0.0
C129 C 0.72952 0.95526 0.03459 0.0
C130 C 0.73301 0.99475 0.03191 0.0
C131 C 0.72081 0.01242 1.01465 0.0
C132 C 0.70511 0.9899 0.99964 0.0
O133 O 0.66223 0.80259 0.92776 0.0
O134 O 0.64239 0.84733 0.95072 0.0
O135 O 0.76883 0.75953 0.93258 0.0
O136 O 0.72284 0.75374 0.91281 0.0
C137 C 0.75531 0.73956 0.91819 0.0
O138 O 0.75569 0.88373 0.94905 0.0
O139 O 0.75104 0.84894 0.92121 0.0
O140 O 0.67644 0.94104 0.96938 0.0
O141 O 0.69176 0.88955 0.9859 0.0
H142 H 0.71164 0.90237 1.02153 0.0
H143 H 0.74421 0.01213 0.0437 0.0
H144 H 0.69452 1.0037 0.98657 0.0
O145 O 0.48616 0.46976 0.72803 0.0
Tb146 Tb 0.46577 0.47482 0.69808 0.0
Eu147 Eu 0.37217 0.4329 0.70423 0.0
C148 C 0.5052 0.43932 0.73349 0.0
O149 O 0.50526 0.40936 0.72201 0.0
C150 C 0.4472 0.38604 0.69286 0.0
O151 O 0.32683 0.41432 0.68304 0.0
C152 C 0.34732 0.446 0.7394 0.0
C153 C 0.33745 0.39679 0.66688 0.0
O154 O 0.37301 0.38574 0.6652 0.0
C155 C 0.39039 0.51621 0.68936 0.0
C156 C 0.32207 0.46654 0.75326 0.0
C157 C 0.3381 0.4809 0.77064 0.0
C158 C 0.31478 0.49518 0.78568 0.0
C159 C 0.27535 0.49681 0.78283 0.0
C160 C 0.25867 0.48274 0.76567 0.0
C161 C 0.28214 0.46724 0.75092 0.0
O162 O 0.4636 0.41705 0.68561 0.0
O163 O 0.41622 0.38707 0.70372 0.0
O164 O 0.52435 0.49588 0.69586 0.0
O165 O 0.48746 0.50507 0.67196 0.0
C166 C 0.52178 0.51057 0.67846 0.0
O167 O 0.37485 0.48375 0.68437 0.0
O168 O 0.4203 0.51708 0.70081 0.0
O169 O 0.332 0.42047 0.72765 0.0
O170 O 0.37697 0.46413 0.7318 0.0
H171 H 0.36854 0.47877 0.77295 0.0
H172 H 0.25727 0.50751 0.79451 0.0
H173 H 0.26929 0.455 0.73797 0.0
O174 O 0.79614 0.23819 0.46622 0.0
Tb175 Tb 0.79324 0.22143 0.43554 0.0
Eu176 Eu 0.82554 0.13785 0.45672 0.0
C177 C 0.81965 0.26618 0.47073 0.0
O178 O 0.84281 0.2792 0.45708 0.0
C179 C 0.87859 0.20708 0.44152 0.0
O180 O 0.8394 0.11862 0.42588 0.0
C181 C 0.84213 0.09114 0.48488 0.0
C182 C 0.82703 0.08587 0.41892 0.0
O183 O 0.80742 0.06282 0.43039 0.0
C184 C 0.74513 0.14883 0.43914 0.0
C185 C 0.82242 0.06643 0.49948 0.0
C186 C 0.80739 0.08224 0.51688 0.0
C187 C 0.79129 0.05876 0.53139 0.0
C188 C 0.78906 0.01937 0.52823 0.0
C189 C 0.80367 1.003 0.51105 0.0
C190 C 0.82085 0.02657 0.49681 0.0
O191 O 0.8532 0.21794 0.42866 0.0
O192 O 0.86957 0.18504 0.45651 0.0
O193 O 0.74771 0.26314 0.43417 0.0
O194 O 0.78995 0.26351 0.41175 0.0
C195 C 0.75895 0.27965 0.41811 0.0
O196 O 0.76156 0.14108 0.45585 0.0
O197 O 0.76213 0.17133 0.42647 0.0
O198 O 0.84134 0.08063 0.4664 0.0
O199 O 0.83856 0.12821 0.48724 0.0
H200 H 0.80938 0.11265 0.51954 0.0
H201 H 0.77676 1.00118 0.5395 0.0
H202 H 0.8331 0.01384 0.48377 0.0
O203 O 0.02782 0.55169 0.22632 0.0
Tb204 Tb 0.04974 0.54797 0.19658 0.0
Eu205 Eu 0.1453 0.58838 0.20725 0.0
C206 C 0.00969 0.58243 0.23213 0.0
O207 O 0.00936 0.61237 0.22057 0.0
C208 C 0.07261 0.63445 0.19357 0.0
O209 O 0.19031 0.60771 0.18566 0.0
C210 C 0.17051 0.57424 0.24216 0.0
C211 C 0.18035 0.62897 0.17065 0.0
O212 O 0.1462 0.64401 0.1706 0.0
C213 C 0.12573 0.50569 0.19129 0.0
C214 C 0.19675 0.55221 0.25478 0.0
C215 C 0.18176 0.5344 0.2717 0.0
C216 C 0.20582 0.51601 0.28504 0.0
C217 C 0.24502 0.51517 0.28129 0.0
C218 C 0.26089 0.53417 0.26506 0.0
C219 C 0.23659 0.55257 0.25172 0.0
O220 O 0.0612 0.60417 0.18375 0.0
O221 O 0.09933 0.63247 0.20689 0.0
O222 O 0.98985 0.53847 0.18886 0.0
O223 O 0.03259 0.5102 0.1725 0.0
C224 C 0.99608 0.51508 0.17446 0.0
O225 O 0.14366 0.53761 0.18739 0.0
O226 O 0.09376 0.50526 0.20135 0.0
O227 O 0.18507 0.60085 0.23062 0.0
O228 O 0.14095 0.55627 0.2346 0.0
H229 H 0.15149 0.53592 0.27484 0.0
H230 H 0.26365 0.50253 0.2921 0.0
H231 H 0.24879 0.568 0.23941 0.0
O232 O 0.7862 0.73084 0.56814 0.0
Tb233 Tb 0.78225 0.7138 0.5988 0.0
Eu234 Eu 0.82533 0.62206 0.59154 0.0
C235 C 0.817 0.74814 0.56142 0.0
O236 O 0.8476 0.74863 0.5723 0.0
C237 C 0.87113 0.69819 0.60301 0.0
O238 O 0.84626 0.57746 0.61276 0.0
C239 C 0.81174 0.59657 0.55658 0.0
C240 C 0.86559 0.58875 0.62819 0.0
O241 O 0.87678 0.6245 0.62907 0.0
C242 C 0.74236 0.6369 0.60909 0.0
C243 C 0.79187 0.56918 0.54354 0.0
C244 C 0.77741 0.58259 0.52556 0.0
C245 C 0.76394 0.55683 0.51142 0.0
C246 C 0.76341 0.51779 0.51569 0.0
C247 C 0.77791 0.5037 0.53334 0.0
C248 C 0.79231 0.52951 0.54726 0.0
O249 O 0.84013 0.71323 0.61082 0.0
O250 O 0.87014 0.6679 0.59171 0.0
O251 O 0.76116 0.77242 0.59957 0.0
O252 O 0.75296 0.73757 0.62459 0.0
C253 C 0.74708 0.77122 0.61719 0.0
O254 O 0.77537 0.62086 0.61215 0.0
O255 O 0.7397 0.66794 0.59836 0.0
O256 O 0.83903 0.58336 0.56785 0.0
O257 O 0.79222 0.62477 0.5645 0.0
H258 H 0.77898 0.61273 0.52205 0.0
H259 H 0.75401 0.49794 0.50452 0.0
H260 H 0.80495 0.51863 0.56057 0.0
O261 O 0.03625 0.04822 0.82257 0.0
Tb262 Tb 0.05468 0.03817 0.85252 0.0
Eu263 Eu 0.14569 0.08176 0.8446 0.0
C264 C 0.01139 0.07538 0.81915 0.0
O265 O 1.00286 0.09908 0.83334 0.0
C266 C 0.0701 0.12685 0.85615 0.0
O267 O 0.18965 0.10429 0.86564 0.0
C268 C 0.17189 0.06747 0.8098 0.0
C269 C 0.17779 0.12261 0.88135 0.0
O270 O 0.14174 0.13213 0.88255 0.0
C271 C 0.13133 0.99902 0.86281 0.0
C272 C 0.19979 0.0471 0.79732 0.0
C273 C 0.18712 0.03084 0.77962 0.0
C274 C 0.21326 0.01602 0.76595 0.0
C275 C 0.25207 0.01588 0.77065 0.0
C276 C 0.26539 0.03246 0.78799 0.0
C277 C 0.23916 0.04822 0.80131 0.0
O278 O 0.0561 0.09599 0.86465 0.0
O279 O 0.09957 0.12566 0.84425 0.0
O280 O 1.00032 1.00754 0.85196 0.0
O281 O 0.0251 0.01998 0.87943 0.0
C282 C 0.99613 1.00427 0.87079 0.0
O283 O 0.14748 0.03233 0.86546 0.0
O284 O 0.10003 0.99565 0.85251 0.0
O285 O 0.18462 0.09549 0.82087 0.0
O286 O 0.14361 0.04781 0.81778 0.0
H287 H 0.15713 0.03185 0.77599 0.0
H288 H 0.27245 1.00465 0.76016 0.0
H289 H 0.24949 0.06221 0.81439 0.0
O290 O 0.73057 0.28689 0.07568 0.0
Tb291 Tb 0.73403 0.30277 0.10653 0.0
Eu292 Eu 0.70151 0.39287 0.0886 0.0
C293 C 0.70325 0.26304 0.07053 0.0
O294 O 0.67651 0.25483 0.08339 0.0
C295 C 0.64707 0.32227 0.10405 0.0
O296 O 0.68921 0.42261 0.11741 0.0
C297 C 0.68891 0.4341 0.05763 0.0
C298 C 0.69401 0.40341 0.13378 0.0
O299 O 0.70535 0.36792 0.13264 0.0
C300 C 0.7852 0.37745 0.10568 0.0
C301 C 0.70834 0.4598 0.04326 0.0
C302 C 0.72266 0.44503 0.02541 0.0
C303 C 0.73778 0.4695 1.01094 0.0
C304 C 0.73987 0.5087 1.01476 0.0
C305 C 0.72535 0.52413 0.03217 0.0
C306 C 0.70923 0.49964 0.04632 0.0
O307 O 0.67417 0.30654 0.11452 0.0
O308 O 0.65392 0.34883 0.09074 0.0
O309 O 0.76638 0.24984 0.10525 0.0
O310 O 0.74243 0.26676 0.13244 0.0
C311 C 0.76276 0.24103 0.12362 0.0
O312 O 0.76562 0.39178 0.09111 0.0
O313 O 0.77399 0.34697 0.11532 0.0
O314 O 0.68352 0.44667 0.0756 0.0
O315 O 0.69755 0.39762 0.05695 0.0
H316 H 0.72052 0.41476 1.02238 0.0
H317 H 0.75143 0.52771 1.00364 0.0
H318 H 0.6969 0.51174 0.05949 0.0
O319 O 0.48774 0.97536 0.33303 0.0
Tb320 Tb 0.4662 0.97719 0.36306 0.0
Eu321 Eu 0.38528 0.94919 0.3383 0.0
C322 C 0.51583 0.95153 0.32934 0.0
O323 O 0.52632 0.92803 0.34328 0.0
C324 C 0.44999 0.89395 0.35402 0.0
O325 O 0.36073 0.93362 0.36805 0.0
C326 C 0.34195 0.93539 0.30843 0.0
C327 C 0.32793 0.94754 0.37408 0.0
O328 O 0.30843 0.96943 0.36219 0.0
C329 C 0.39458 0.02653 0.3598 0.0
C330 C 0.31445 0.954 0.29507 0.0
C331 C 0.32732 0.97136 0.27753 0.0
C332 C 0.30127 0.98577 0.26389 0.0
C333 C 0.26226 0.98394 0.26821 0.0
C334 C 0.24884 0.96655 0.28543 0.0
C335 C 0.27497 0.95121 0.29873 0.0
O336 O 0.45755 0.91707 0.36861 0.0
O337 O 0.43332 0.90664 0.3381 0.0
O338 O 0.5042 0.02517 0.36803 0.0
O339 O 0.50867 0.97662 0.38656 0.0
C340 C 0.5221 0.01059 0.3828 0.0
O341 O 0.38772 0.01286 0.34231 0.0
O342 O 0.41545 1.00716 0.3721 0.0
O343 O 0.33117 0.92888 0.32665 0.0
O344 O 0.37788 0.94589 0.30684 0.0
H345 H 0.35746 0.97224 0.27405 0.0
H346 H 0.24202 0.99493 0.2577 0.0
H347 H 0.26445 0.93667 0.31172 0.0
O348 O 0.21985 0.28177 0.47005 0.0
Tb349 Tb 0.22472 0.30307 0.44013 0.0
Eu350 Eu 0.19215 0.38671 0.46264 0.0
C351 C 0.19499 0.25418 0.47335 0.0
O352 O 0.17194 0.24437 0.45915 0.0
C353 C 0.13955 0.3197 0.44559 0.0
O354 O 0.17891 0.40707 0.43197 0.0
C355 C 0.17489 0.43218 0.4913 0.0
C356 C 0.19161 0.43981 0.42501 0.0
O357 O 0.2113 0.46257 0.43642 0.0
C358 C 0.27313 0.37544 0.44513 0.0
C359 C 0.19405 0.45597 0.50636 0.0
C360 C 0.20721 0.43929 0.52389 0.0
C361 C 0.22272 0.46194 0.53881 0.0
C362 C 0.22621 0.50137 0.53587 0.0
C363 C 0.21322 0.51864 0.51864 0.0
C364 C 0.19671 0.49588 0.504 0.0
O365 O 0.16559 0.31025 0.43262 0.0
O366 O 0.14797 0.33968 0.46132 0.0
O367 O 0.27142 0.26323 0.43616 0.0
O368 O 0.2258 0.26196 0.4159 0.0
C369 C 0.25827 0.24681 0.42057 0.0
O370 O 0.25609 0.38274 0.46183 0.0
O371 O 0.25651 0.35367 0.43215 0.0
O372 O 0.17675 0.44363 0.47295 0.0
O373 O 0.17785 0.39494 0.49323 0.0
H374 H 0.20416 0.40887 0.5263 0.0
H375 H 0.23808 0.51896 0.54739 0.0
H376 H 0.18567 0.50931 0.49092 0.0
O377 O 0.98282 0.96653 0.22516 0.0
Tb378 Tb 0.96619 0.97707 0.19501 0.0
Eu379 Eu 0.8718 0.93487 0.20214 0.0
C380 C 1.00568 0.93797 0.22913 0.0
O381 O 0.0137 0.9135 0.2152 0.0
C382 C 0.94716 0.88882 0.19096 0.0
O383 O 0.82814 0.91429 0.18042 0.0
C384 C 0.84451 0.94984 0.23672 0.0
C385 C 0.84018 0.89722 0.16438 0.0
O386 O 0.87625 0.88777 0.16309 0.0
C387 C 0.89039 0.01738 0.18547 0.0
C388 C 0.8183 0.97183 0.24956 0.0
C389 C 0.83369 0.99057 0.26598 0.0
C390 C 0.8099 1.00863 0.27969 0.0
C391 C 0.7705 1.00829 0.27681 0.0
C392 C 0.75421 0.9884 0.26111 0.0
C393 C 0.77829 0.97024 0.24741 0.0
O394 O 0.96225 0.91948 0.18266 0.0
O395 O 0.91733 0.89035 0.20265 0.0
O396 O 0.02242 1.00453 0.19557 0.0
O397 O 0.9947 0.99866 0.16835 0.0
C398 C 0.02528 0.01123 0.1769 0.0
O399 O 0.87434 0.98457 0.18156 0.0
O400 O 0.92097 0.01954 0.19636 0.0
O401 O 0.8301 0.92352 0.22511 0.0
O402 O 0.87476 0.96736 0.22935 0.0
H403 H 0.86414 0.98993 0.2685 0.0
H404 H 0.75218 0.02073 0.28792 0.0
H405 H 0.76584 0.95405 0.23554 0.0
O406 O 0.29335 0.74089 0.97923 0.0
Tb407 Tb 0.28753 0.71971 0.94942 0.0
Eu408 Eu 0.33215 0.62616 0.95693 0.0
C409 C 0.3228 0.76233 0.98388 0.0
O410 O 0.35139 0.76491 0.97148 0.0
C411 C 0.37539 0.70311 0.9447 0.0
O412 O 0.35316 0.58586 0.93347 0.0
C413 C 0.32572 0.59678 0.99166 0.0
C414 C 0.36927 0.59998 0.91753 0.0
O415 O 0.37754 0.63652 0.917 0.0
C416 C 0.24578 0.64109 0.94468 0.0
C417 C 0.3066 0.57059 1.00571 0.0
C418 C 0.29379 0.58592 1.02362 0.0
C419 C 0.28005 0.5621 0.03863 0.0
C420 C 0.27748 0.52277 0.03527 0.0
C421 C 0.29012 0.50668 1.01759 0.0
C422 C 0.30517 0.53069 1.00285 0.0
O423 O 0.3444 0.71604 0.93622 0.0
O424 O 0.37487 0.67377 0.95666 0.0
O425 O 0.26861 0.77877 0.94679 0.0
O426 O 0.25614 0.74043 0.92375 0.0
C427 C 0.25252 0.77539 0.92982 0.0
O428 O 0.2778 0.62428 0.94008 0.0
O429 O 0.24487 0.67466 0.95328 0.0
O430 O 0.34806 0.58247 0.97796 0.0
O431 O 0.30745 0.62781 0.98625 0.0
H432 H 0.29654 0.6163 0.02627 0.0
H433 H 0.267 0.50425 0.04687 0.0
H434 H 0.31625 0.5183 0.98946 0.0
O435 O 0.53141 0.04533 0.72385 0.0
Tb436 Tb 0.5485 0.0389 0.69331 0.0
Eu437 Eu 0.64203 0.07873 0.6977 0.0
C438 C 0.50826 0.07317 0.72882 0.0
O439 O 0.50071 0.09966 0.71583 0.0
C440 C 0.56734 0.12746 0.69167 0.0
O441 O 0.68112 0.10288 0.67453 0.0
C442 C 0.67921 0.0605 0.72872 0.0
C443 C 0.66666 0.11689 0.65834 0.0
O444 O 0.62962 0.12137 0.65727 0.0
C445 C 0.62203 0.99781 0.68023 0.0
C446 C 0.70248 0.05052 0.74597 0.0
C447 C 0.68537 0.0368 0.76339 0.0
C448 C 0.70789 0.02894 0.77989 0.0
C449 C 0.74753 0.03301 0.77849 0.0
C450 C 0.76496 0.04597 0.76123 0.0
C451 C 0.74234 0.05542 0.74511 0.0
O452 O 0.55145 0.09806 0.68277 0.0
O453 O 0.59793 0.12378 0.70245 0.0
O454 O 0.49226 0.01194 0.69389 0.0
O455 O 0.51927 0.02085 0.66644 0.0
C456 C 0.4889 1.00753 0.67511 0.0
O457 O 0.63684 0.03112 0.67599 0.0
O458 O 0.59279 0.99522 0.69226 0.0
O459 O 0.69094 0.08691 0.7163 0.0
O460 O 0.64646 0.04389 0.72445 0.0
H461 H 0.65472 0.03345 0.76431 0.0
H462 H 0.76505 0.02638 0.79106 0.0
H463 H 0.75588 0.06592 0.73183 0.0
H464 H 0.15251 0.4969 0.15448 0.0
H465 H 0.25893 0.30345 0.17171 0.0
H466 H 0.1342 0.4354 0.20848 0.0
H467 H 0.21209 0.33216 0.11538 0.0
H468 H 0.22206 0.35582 0.18648 0.0
H469 H 0.18306 0.44056 0.14049 0.0
C470 C 0.15475 0.47132 0.16332 0.0
C471 C 0.14078 0.4705 0.18258 0.0
C472 C 0.21983 0.35036 0.17092 0.0
C473 C 0.17648 0.40654 0.1669 0.0
C474 C 0.24099 0.32085 0.16249 0.0
C475 C 0.23853 0.31378 0.14233 0.0
C476 C 0.19701 0.3733 0.15894 0.0
C477 C 0.21474 0.3368 0.13099 0.0
C478 C 0.17207 0.43927 0.15534 0.0
C479 C 0.14437 0.43682 0.1935 0.0
N480 N 0.19522 0.36586 0.13941 0.0
N481 N 0.16249 0.40615 0.18558 0.0
H482 H 0.3037 0.44245 0.45949 0.0
H483 H 0.47006 0.44126 0.3787 0.0
H484 H 0.32371 0.35252 0.41764 0.0
H485 H 0.44837 0.53917 0.41522 0.0
H486 H 0.41994 0.40651 0.39574 0.0
H487 H 0.36007 0.47642 0.44653 0.0
C488 C 0.32023 0.42965 0.4478 0.0
C489 C 0.30895 0.39479 0.4395 0.0
C490 C 0.42599 0.43556 0.40015 0.0
C491 C 0.37287 0.43325 0.42467 0.0
C492 C 0.45467 0.45545 0.39038 0.0
C493 C 0.46312 0.49318 0.39549 0.0
C494 C 0.40527 0.45349 0.41516 0.0
C495 C 0.44248 0.51009 0.41083 0.0
C496 C 0.35217 0.4491 0.44035 0.0
C497 C 0.33113 0.37951 0.42432 0.0
N498 N 0.41422 0.49014 0.42011 0.0
N499 N 0.36183 0.39887 0.41739 0.0
H500 H 0.29686 0.68693 0.61264 0.0
H501 H 0.3833 0.58672 0.70682 0.0
H502 H 0.25879 0.71925 0.67042 0.0
H503 H 0.35932 0.52548 0.65354 0.0
H504 H 0.35021 0.64279 0.69322 0.0
H505 H 0.33263 0.63419 0.62702 0.0
C506 C 0.29609 0.6829 0.62838 0.0
C507 C 0.27466 0.70718 0.64038 0.0
C508 C 0.35248 0.61703 0.68456 0.0
C509 C 0.31616 0.64754 0.65692 0.0
C510 C 0.37154 0.58529 0.69221 0.0
C511 C 0.37393 0.55154 0.68126 0.0
C512 C 0.3368 0.61506 0.6657 0.0
C513 C 0.35794 0.55092 0.66249 0.0
C514 C 0.31647 0.65285 0.63655 0.0
C515 C 0.27472 0.70083 0.66069 0.0
N516 N 0.34031 0.58223 0.65526 0.0
N517 N 0.29543 0.67168 0.66839 0.0
H518 H 0.23462 0.565 0.94017 0.0
H519 H 0.03545 0.58554 0.88646 0.0
H520 H 0.17625 0.67267 0.93586 0.0
H521 H 0.08213 0.47754 0.90441 0.0
H522 H 0.08642 0.61844 0.90417 0.0
H523 H 0.17871 0.53281 0.92713 0.0
C524 C 0.20983 0.58187 0.9366 0.0
C525 C 0.21014 0.62162 0.93898 0.0
C526 C 0.08535 0.58757 0.90436 0.0
C527 C 0.14598 0.58486 0.92378 0.0
C528 C 0.05639 0.56879 0.8942 0.0
C529 C 0.05482 0.5288 0.89392 0.0
C530 C 0.1131 0.56614 0.91411 0.0
C531 C 0.08245 0.50842 0.90422 0.0
C532 C 0.17786 0.56342 0.92919 0.0
C533 C 0.17712 0.64196 0.93429 0.0
N534 N 0.11063 0.52731 0.91377 0.0
N535 N 0.14646 0.62338 0.92665 0.0
H536 H 0.90966 0.55475 0.89538 0.0
H537 H 0.73402 0.69819 0.8859 0.0
H538 H 0.83554 0.55489 0.84519 0.0
H539 H 0.82079 0.70622 0.93011 0.0
H540 H 0.76816 0.64406 0.87126 0.0
H541 H 0.875 0.60865 0.90876 0.0
C542 C 0.88606 0.56616 0.88712 0.0
C543 C 0.8755 0.55019 0.86911 0.0
C544 C 0.77969 0.65773 0.88415 0.0
C545 C 0.83536 0.61228 0.8845 0.0
C546 C 0.76019 0.68849 0.89252 0.0
C547 C 0.77467 0.70659 0.90922 0.0
C548 C 0.81369 0.64499 0.89266 0.0
C549 C 0.80866 0.69306 0.91723 0.0
C550 C 0.86626 0.59708 0.89479 0.0
C551 C 0.84473 0.5664 0.85909 0.0
N552 N 0.82693 0.66309 0.9089 0.0
N553 N 0.82559 0.59651 0.86697 0.0
H554 H 0.59582 0.51446 0.68936 0.0
H555 H 0.66609 0.65161 0.6024 0.0
H556 H 0.51955 0.55109 0.64389 0.0
H557 H 0.74075 0.58267 0.63767 0.0
H558 H 0.61103 0.62149 0.61893 0.0
H559 H 0.64839 0.54614 0.67227 0.0
C560 C 0.59016 0.52924 0.67575 0.0
C561 C 0.55335 0.53004 0.66798 0.0
C562 C 0.63954 0.61304 0.62295 0.0
C563 C 0.61351 0.5667 0.64831 0.0
C564 C 0.67094 0.63026 0.61358 0.0
C565 C 0.70817 0.61965 0.6186 0.0
C566 C 0.64554 0.5855 0.6376 0.0
C567 C 0.71271 0.59176 0.63319 0.0
C568 C 0.62021 0.54728 0.66596 0.0
C569 C 0.54762 0.5497 0.6503 0.0
N570 N 0.6819 0.5759 0.64218 0.0
N571 N 0.57741 0.56742 0.64106 0.0
H572 H 0.69514 0.31415 0.43128 0.0
H573 H 0.67768 0.46072 0.34167 0.0
H574 H 0.77632 0.3167 0.3836 0.0
H575 H 0.60642 0.46087 0.39344 0.0
H576 H 0.71242 0.40587 0.35508 0.0
H577 H 0.66058 0.36607 0.41604 0.0
C578 C 0.7057 0.32576 0.41755 0.0
C579 C 0.73863 0.31129 0.40868 0.0
C580 C 0.68908 0.41795 0.36341 0.0
C581 C 0.69911 0.37093 0.39103 0.0
C582 C 0.66918 0.44907 0.35574 0.0
C583 C 0.63921 0.46542 0.36649 0.0
C584 C 0.67864 0.40316 0.38185 0.0
C585 C 0.62947 0.4494 0.38468 0.0
C586 C 0.68595 0.35544 0.40882 0.0
C587 C 0.75103 0.32727 0.39089 0.0
N588 N 0.64911 0.41929 0.39175 0.0
N589 N 0.73121 0.35637 0.38259 0.0
H590 H 0.84926 0.34685 0.12176 0.0
H591 H 0.92246 0.53755 0.16941 0.0
H592 H 0.7984 0.45448 0.10649 0.0
H593 H 1.00193 0.44992 0.15267 0.0
H594 H 0.87288 0.50511 0.15029 0.0
H595 H 0.90253 0.38139 0.13682 0.0
C596 C 0.84954 0.37775 0.12139 0.0
C597 C 0.81952 0.39786 0.11275 0.0
C598 C 0.90125 0.49317 0.15073 0.0
C599 C 0.87966 0.43741 0.13047 0.0
C600 C 0.92944 0.51151 0.16168 0.0
C601 C 0.96628 0.49635 0.16258 0.0
C602 C 0.9097 0.45887 0.14107 0.0
C603 C 0.97388 0.46257 0.15229 0.0
C604 C 0.8799 0.39738 0.12997 0.0
C605 C 0.82119 0.4379 0.1128 0.0
N606 N 0.94569 0.44465 0.14217 0.0
N607 N 0.85043 0.45639 0.12181 0.0
H608 H 0.67127 0.99572 0.64931 0.0
H609 H 0.70886 0.77116 0.65246 0.0
H610 H 0.6114 0.92172 0.68979 0.0
H611 H 0.74056 0.84408 0.60406 0.0
H612 H 0.67654 0.82552 0.66804 0.0
H613 H 0.70053 0.94025 0.63429 0.0
C614 C 0.6642 0.96774 0.65507 0.0
C615 C 0.63877 0.96347 0.67089 0.0
C616 C 0.6905 0.82951 0.65399 0.0
C617 C 0.67264 0.89936 0.65365 0.0
C618 C 0.70902 0.7986 0.64515 0.0
C619 C 0.72744 0.80324 0.62698 0.0
C620 C 0.69086 0.8653 0.64467 0.0
C621 C 0.72674 0.83927 0.61808 0.0
C622 C 0.68092 0.93597 0.64641 0.0
C623 C 0.63074 0.92634 0.6776 0.0
N624 N 0.70895 0.86888 0.62704 0.0
N625 N 0.64781 0.89567 0.66901 0.0
H626 H 0.97985 1.00058 0.91013 0.0
H627 H 0.79591 0.86907 0.89435 0.0
H628 H 0.93791 0.96587 0.85365 0.0
H629 H 0.81948 0.92369 0.94962 0.0
H630 H 0.85117 0.90072 0.88007 0.0
H631 H 0.92452 0.96934 0.9257 0.0
C632 C 0.95902 0.98635 0.90104 0.0
C633 C 0.96337 0.98569 0.8806 0.0
C634 C 0.84435 0.9059 0.89532 0.0
C635 C 0.90043 0.94995 0.89821 0.0
C636 C 0.81276 0.8877 0.90355 0.0
C637 C 0.80295 0.89369 0.92326 0.0
C638 C 0.86673 0.93023 0.90685 0.0
C639 C 0.82595 0.9183 0.93436 0.0
C640 C 0.92747 0.96865 0.9099 0.0
C641 C 0.93562 0.96701 0.86946 0.0
N642 N 0.8569 0.93562 0.92601 0.0
N643 N 0.90546 0.9498 0.8784 0.0
H644 H 0.89236 0.09115 0.19922 0.0
H645 H 0.79108 0.1783 0.10568 0.0
H646 H 0.8503 0.0218 0.1518 0.0
H647 H 0.77684 0.2297 0.16259 0.0
H648 H 0.82382 0.12462 0.12097 0.0
H649 H 0.86091 0.14692 0.18451 0.0
C650 C 0.87682 0.08777 0.18568 0.0
C651 C 0.87378 0.05192 0.17671 0.0
C652 C 0.81345 0.14762 0.13012 0.0
C653 C 0.83845 0.11505 0.15988 0.0
C654 C 0.79483 0.17817 0.12142 0.0
C655 C 0.78111 0.20815 0.13296 0.0
C656 C 0.81907 0.14745 0.15044 0.0
C657 C 0.78678 0.20682 0.15326 0.0
C658 C 0.85874 0.1194 0.17741 0.0
C659 C 0.85314 0.0489 0.15926 0.0
N660 N 0.80566 0.17698 0.16141 0.0
N661 N 0.83648 0.08007 0.15135 0.0
H662 H 0.69629 0.17212 0.41118 0.0
H663 H 0.56574 0.98455 0.41343 0.0
H664 H 0.71274 0.08255 0.45368 0.0
H665 H 0.54839 0.08178 0.3758 0.0
H666 H 0.61833 0.01913 0.42938 0.0
H667 H 0.6404 0.13902 0.39916 0.0
C668 C 0.68797 0.14545 0.41806 0.0
C669 C 0.7093 0.12994 0.43337 0.0
C670 C 0.6028 0.03285 0.41771 0.0
C671 C 0.6451 0.09141 0.41951 0.0
C672 C 0.57293 0.01316 0.40861 0.0
C673 C 0.55297 0.03035 0.39324 0.0
C674 C 0.61251 0.0698 0.41127 0.0
C675 C 0.56317 0.0674 0.38753 0.0
C676 C 0.65594 0.12651 0.41119 0.0
C677 C 0.69696 0.09548 0.44185 0.0
N678 N 0.59223 0.08575 0.39648 0.0
N679 N 0.66575 0.07708 0.43467 0.0
H680 H 0.41496 0.06917 0.39106 0.0
H681 H 0.23534 0.20842 0.38755 0.0
H682 H 0.33192 0.06358 0.34482 0.0
H683 H 0.32593 0.21527 0.42976 0.0
H684 H 0.26947 0.15629 0.37099 0.0
H685 H 0.38232 0.12396 0.40464 0.0
C686 C 0.38983 0.07961 0.3837 0.0
C687 C 0.37601 0.06165 0.36684 0.0
C688 C 0.28185 0.16937 0.38383 0.0
C689 C 0.3381 0.12467 0.38246 0.0
C690 C 0.2624 0.19897 0.39327 0.0
C691 C 0.27787 0.21593 0.41004 0.0
C692 C 0.31684 0.15685 0.39132 0.0
C693 C 0.31295 0.20287 0.4169 0.0
C694 C 0.37116 0.11103 0.39147 0.0
C695 C 0.34353 0.07669 0.35784 0.0
N696 N 0.33114 0.17411 0.40755 0.0
N697 N 0.32541 0.10727 0.36586 0.0
H698 H 0.03816 0.02263 0.13753 0.0
H699 H 0.22721 0.14643 0.15499 0.0
H700 H 0.08694 0.04385 0.19427 0.0
H701 H 0.1958 0.10554 0.09772 0.0
H702 H 0.17329 0.11206 0.16911 0.0
H703 H 0.09284 0.05553 0.1222 0.0
C704 C 0.06037 0.0342 0.14674 0.0
C705 C 0.05802 0.03056 0.1672 0.0
C706 C 0.17808 0.11047 0.15345 0.0
C707 C 0.12041 0.06834 0.14983 0.0
C708 C 0.20891 0.13027 0.14532 0.0
C709 C 0.21614 0.12904 0.12507 0.0
C710 C 0.15374 0.08933 0.14132 0.0
C711 C 0.19137 0.10731 0.11339 0.0
C712 C 0.09158 0.05288 0.13799 0.0
C713 C 0.08758 0.046 0.17845 0.0
N714 N 0.16116 0.08845 0.12167 0.0
N715 N 0.11736 0.06429 0.16964 0.0
H716 H 0.21001 0.77203 0.89616 0.0
H717 H 0.1874 0.99843 0.89018 0.0
H718 H 0.25225 0.85033 0.93965 0.0
H719 H 0.11536 0.92252 0.85699 0.0
H720 H 0.21616 0.94361 0.90594 0.0
H721 H 0.17939 0.82583 0.87928 0.0
C722 C 0.21284 0.80052 0.90212 0.0
C723 C 0.23368 0.80685 0.91928 0.0
C724 C 0.19403 0.93881 0.89524 0.0
C725 C 0.19918 0.86819 0.9001 0.0
C726 C 0.17761 0.97019 0.88613 0.0
C727 C 0.14879 0.96518 0.8722 0.0
C728 C 0.18199 0.90184 0.89034 0.0
C729 C 0.13738 0.92774 0.86768 0.0
C730 C 0.19531 0.83111 0.89254 0.0
C731 C 0.23644 0.84419 0.92645 0.0
N732 N 0.15413 0.89742 0.87668 0.0
N733 N 0.21958 0.8734 0.91679 0.0
H734 H 0.32047 0.91554 0.59391 0.0
H735 H 0.42694 0.97598 0.69276 0.0
H736 H 0.28957 0.87626 0.65186 0.0
H737 H 0.47591 0.99765 0.63571 0.0
H738 H 0.37303 0.94442 0.67729 0.0
H739 H 0.37466 0.95046 0.60817 0.0
C740 C 0.32502 0.91424 0.60957 0.0
C741 C 0.30049 0.89276 0.62167 0.0
C742 C 0.39549 0.95601 0.66807 0.0
C743 C 0.36196 0.93271 0.63802 0.0
C744 C 0.42627 0.97412 0.67693 0.0
C745 C 0.45595 0.98928 0.66549 0.0
C746 C 0.39413 0.95306 0.64756 0.0
C747 C 0.45357 0.98617 0.64503 0.0
C748 C 0.35593 0.9341 0.61768 0.0
C749 C 0.30772 0.89216 0.64187 0.0
N750 N 0.42313 0.96837 0.63667 0.0
N751 N 0.33759 0.91181 0.64935 0.0
H752 H 0.36322 0.97478 0.04106 0.0
H753 H 0.25828 0.78658 1.00295 0.0
H754 H 0.24351 0.96738 0.02808 0.0
H755 H 0.37978 0.80493 1.00012 0.0
H756 H 0.25199 0.84513 1.02216 0.0
H757 H 0.36851 0.90566 0.03606 0.0
C758 C 0.33785 0.95838 0.03776 0.0
C759 C 0.30296 0.97671 0.0348 0.0
C760 C 0.28011 0.83587 1.01769 0.0
C761 C 0.30879 0.898 0.02885 0.0
C762 C 0.28377 0.80227 1.00684 0.0
C763 C 0.31956 0.79118 0.99963 0.0
C764 C 0.31248 0.85837 1.02144 0.0
C765 C 0.35156 0.81274 1.00513 0.0
C766 C 0.34091 0.91904 0.03475 0.0
C767 C 0.27099 0.95427 0.03031 0.0
N768 N 0.34722 0.84557 1.01546 0.0
N769 N 0.27474 0.91617 0.02725 0.0
H770 H 0.9689 0.6405 0.24866 0.0
H771 H 0.81399 0.49487 0.28636 0.0
H772 H 0.98749 0.5192 0.25305 0.0
H773 H 0.79982 0.61686 0.2881 0.0
H774 H 0.88235 0.50399 0.2812 0.0
H775 H 0.91301 0.63381 0.26983 0.0
C776 C 0.96171 0.61255 0.25442 0.0
C777 C 0.98236 0.58022 0.24868 0.0
C778 C 0.86454 0.52884 0.28317 0.0
C779 C 0.918 0.57224 0.27269 0.0
C780 C 0.82554 0.52359 0.28615 0.0
C781 C 0.8013 0.55518 0.28737 0.0
C782 C 0.87927 0.56596 0.281 0.0
C783 C 0.81758 0.59177 0.28716 0.0
C784 C 0.92972 0.60873 0.26652 0.0
C785 C 0.97207 0.54483 0.25683 0.0
N786 N 0.85548 0.5962 0.28356 0.0
N787 N 0.94011 0.54166 0.26807 0.0
H788 H 0.25821 0.23759 0.49521 0.0
H789 H 0.15816 0.04937 0.5377 0.0
H790 H 0.13879 0.21085 0.48975 0.0
H791 H 0.27928 0.06213 0.52922 0.0
H792 H 0.15022 0.1172 0.53005 0.0
H793 H 0.26523 0.18263 0.51721 0.0
C794 C 0.23324 0.22092 0.49914 0.0
C795 C 0.19795 0.22847 0.49048 0.0
C796 C 0.17864 0.10538 0.53032 0.0
C797 C 0.20581 0.1655 0.51543 0.0
C798 C 0.1832 0.06675 0.53488 0.0
C799 C 0.21938 0.05007 0.53389 0.0
C800 C 0.2105 0.12745 0.52477 0.0
C801 C 0.25084 0.07386 0.52993 0.0
C802 C 0.23732 0.18937 0.51156 0.0
C803 C 0.16661 0.20573 0.49595 0.0
N804 N 0.24564 0.11119 0.52523 0.0
N805 N 0.17135 0.17505 0.50786 0.0
H806 H 0.71315 0.52037 0.77698 0.0
H807 H 0.5446 0.3814 0.75079 0.0
H808 H 0.71687 0.39942 0.78798 0.0
H809 H 0.53365 0.50392 0.75086 0.0
H810 H 0.6033 0.38752 0.76952 0.0
H811 H 0.64422 0.51583 0.7726 0.0
C812 C 0.69916 0.49301 0.77898 0.0
C813 C 0.7206 0.46018 0.78274 0.0
C814 C 0.58768 0.41307 0.76583 0.0
C815 C 0.64191 0.45445 0.7772 0.0
C816 C 0.55406 0.40958 0.75515 0.0
C817 C 0.53447 0.44222 0.74896 0.0
C818 C 0.60221 0.44951 0.77009 0.0
C819 C 0.54793 0.47796 0.75516 0.0
C820 C 0.65984 0.49035 0.77642 0.0
C821 C 0.70127 0.42539 0.78514 0.0
N822 N 0.58138 0.48069 0.76502 0.0
N823 N 0.66309 0.42327 0.78193 0.0
H824 H 0.64664 0.22938 0.04974 0.0
H825 H 0.78156 0.05984 1.02054 0.0
H826 H 0.76892 0.23637 0.05348 0.0
H827 H 0.66165 0.0611 1.00767 0.0
H828 H 0.77932 0.12835 0.02719 0.0
H829 H 0.65273 0.17322 0.02887 0.0
C830 C 0.67485 0.21972 0.04566 0.0
C831 C 0.70731 0.23742 0.05345 0.0
C832 C 0.75362 0.11396 1.02247 0.0
C833 C 0.71456 0.17221 0.03006 0.0
C834 C 0.75494 0.07485 1.01863 0.0
C835 C 0.72168 0.05478 1.01369 0.0
C836 C 0.71861 0.1331 1.02173 0.0
C837 C 0.68795 0.07552 1.01141 0.0
C838 C 0.67833 0.18747 0.03381 0.0
C839 C 0.74315 0.22367 0.04774 0.0
N840 N 0.6871 0.11339 1.01583 0.0
N841 N 0.74581 0.19135 0.03676 0.0
H842 H 0.0505 0.3926 0.80506 0.0
H843 H 0.20742 0.54017 0.77118 0.0
H844 H 0.03549 0.51438 0.80864 0.0
H845 H 0.21425 0.41959 0.7597 0.0
H846 H 0.13979 0.53266 0.77917 0.0
H847 H 0.10455 0.40254 0.78295 0.0
C848 C 0.05805 0.42146 0.8008 0.0
C849 C 0.03876 0.45272 0.8089 0.0
C850 C 0.15573 0.50793 0.77444 0.0
C851 C 0.10138 0.46443 0.78392 0.0
C852 C 0.19432 0.51226 0.7698 0.0
C853 C 0.21647 0.48039 0.76492 0.0
C854 C 0.13928 0.47131 0.77456 0.0
C855 C 0.19817 0.44489 0.76336 0.0
C856 C 0.08902 0.42714 0.78819 0.0
C857 C 0.04962 0.48946 0.80279 0.0
N858 N 0.16084 0.44116 0.76857 0.0
N859 N 0.08074 0.49434 0.79101 0.0
H860 H 0.74262 0.9551 0.51457 0.0
H861 H 0.87535 0.78287 0.54153 0.0
H862 H 0.86377 0.95541 0.50416 0.0
H863 H 0.75269 0.77754 0.54461 0.0
H864 H 0.87088 0.84052 0.5216 0.0
H865 H 0.74443 0.88603 0.51936 0.0
C866 C 0.76948 0.94036 0.51285 0.0
C867 C 0.80317 0.9609 0.50919 0.0
C868 C 0.84489 0.82633 0.52625 0.0
C869 C 0.80571 0.88199 0.51508 0.0
C870 C 0.84742 0.79329 0.5376 0.0
C871 C 0.81435 0.77576 0.54507 0.0
C872 C 0.80903 0.84231 0.52259 0.0
C873 C 0.77896 0.7903 0.53934 0.0
C874 C 0.77056 0.90094 0.5156 0.0
C875 C 0.83719 0.94056 0.50699 0.0
N876 N 0.77724 0.82322 0.52881 0.0
N877 N 0.83775 0.9023 0.51037 0.0
H878 H 0.31602 0.47947 0.26757 0.0
H879 H 0.45693 0.62921 0.31304 0.0
H880 H 0.30096 0.60099 0.2626 0.0
H881 H 0.48347 0.50962 0.30855 0.0
H882 H 0.40578 0.62049 0.28942 0.0
H883 H 0.38237 0.49007 0.27692 0.0
C884 C 0.3271 0.50836 0.26785 0.0
C885 C 0.3029 0.53942 0.26447 0.0
C886 C 0.42322 0.59622 0.29322 0.0
C887 C 0.37852 0.55189 0.27571 0.0
C888 C 0.45249 0.60122 0.30671 0.0
C889 C 0.47416 0.57 0.31291 0.0
C890 C 0.41487 0.55949 0.28619 0.0
C891 C 0.46737 0.53444 0.30417 0.0
C892 C 0.36495 0.51444 0.27329 0.0
C893 C 0.31864 0.57624 0.26505 0.0
N894 N 0.43774 0.52995 0.29158 0.0
N895 N 0.35519 0.5815 0.27102 0.0
H896 H 0.84381 0.46479 0.53976 0.0
H897 H 0.75457 0.27693 0.49252 0.0
H898 H 0.72402 0.44768 0.52952 0.0
H899 H 0.87312 0.30902 0.48925 0.0
H900 H 0.74386 0.32861 0.51611 0.0
H901 H 0.85499 0.39758 0.53182 0.0
C902 C 0.81968 0.4465 0.53659 0.0
C903 C 0.783 0.46181 0.53511 0.0
C904 C 0.77241 0.32368 0.51061 0.0
C905 C 0.7956 0.38525 0.52557 0.0
C906 C 0.77859 0.29399 0.49727 0.0
C907 C 0.81469 0.28907 0.48875 0.0
C908 C 0.80262 0.34832 0.5155 0.0
C909 C 0.84473 0.3122 0.4953 0.0
C910 C 0.8261 0.40825 0.53184 0.0
C911 C 0.75279 0.43695 0.53067 0.0
N912 N 0.83794 0.34111 0.50807 0.0
N913 N 0.75981 0.40007 0.52573 0.0
H914 H 0.32071 0.978 0.78696 0.0
H915 H 0.46672 0.12913 0.74651 0.0
H916 H 0.30454 0.09927 0.79232 0.0
H917 H 0.49151 1.00898 0.75037 0.0
H918 H 0.41343 0.11996 0.76919 0.0
H919 H 0.38825 0.98904 0.77993 0.0
C920 C 0.33176 1.0069 0.78729 0.0
C921 C 0.30707 0.0378 0.79008 0.0
C922 C 0.43098 0.09568 0.76546 0.0
C923 C 0.38402 0.05084 0.7814 0.0
C924 C 0.4615 0.10094 0.75251 0.0
C925 C 0.48321 0.06967 0.74628 0.0
C926 C 0.42158 0.05874 0.77195 0.0
C927 C 0.47536 0.03387 0.75466 0.0
C928 C 0.37027 0.01326 0.78317 0.0
C929 C 0.32268 0.07469 0.79028 0.0
N930 N 0.44465 0.02922 0.76671 0.0
N931 N 0.35999 0.08026 0.78553 0.0
H932 H 0.63851 0.73167 0.99454 0.0
H933 H 0.78352 0.57563 0.02829 0.0
H934 H 0.76029 0.74574 0.99028 0.0
H935 H 0.66262 0.56819 0.03878 0.0
H936 H 0.77703 0.64377 1.02143 0.0
H937 H 0.64752 0.67934 1.01763 0.0
C938 C 0.66718 0.72442 0.99893 0.0
C939 C 0.69871 0.74268 0.99028 0.0
C940 C 0.75199 0.62758 0.02573 0.0
C941 C 0.70936 0.68193 1.01627 0.0
C942 C 0.75575 0.5887 0.02972 0.0
C943 C 0.72348 0.56626 0.03389 0.0
C944 C 0.71558 0.644 0.02554 0.0
C945 C 0.68818 0.5845 0.03559 0.0
C946 C 0.67234 0.69439 1.01207 0.0
C947 C 0.73519 0.73231 0.99654 0.0
N948 N 0.68503 0.62213 0.03098 0.0
N949 N 0.73956 0.70197 1.00879 0.0
H950 H 0.01967 0.99838 0.25358 0.0
H951 H 0.20971 0.89978 0.29046 0.0
H952 H 0.04823 0.88019 0.24427 0.0
H953 H 0.19376 0.02111 0.28495 0.0
H954 H 0.14143 0.89016 0.28482 0.0
H955 H 0.07325 1.00402 0.27613 0.0
C956 C 0.03645 0.97329 0.25673 0.0
C957 C 0.03005 0.93897 0.24669 0.0
C958 C 0.15269 0.91895 0.28539 0.0
C959 C 0.09148 0.94535 0.27231 0.0
C960 C 0.19154 0.92444 0.28876 0.0
C961 C 0.20726 0.96124 0.2879 0.0
C962 C 0.1296 0.95053 0.28116 0.0
C963 C 0.18264 0.99225 0.28548 0.0
C964 C 0.06719 0.97661 0.26952 0.0
C965 C 0.05266 0.90739 0.25141 0.0
N966 N 0.14511 0.98618 0.28188 0.0
N967 N 0.08278 0.9115 0.26362 0.0
H968 H 0.13599 0.72921 0.55645 0.0
H969 H 0.27378 0.56655 0.52415 0.0
H970 H 0.25807 0.73914 0.56005 0.0
H971 H 0.15394 0.56658 0.51103 0.0
H972 H 0.2708 0.63503 0.53069 0.0
H973 H 0.14332 0.67698 0.53316 0.0
C974 C 0.16439 0.72115 0.55179 0.0
C975 C 0.19647 0.73818 0.56028 0.0
C976 C 0.2453 0.62038 0.5259 0.0
C977 C 0.2052 0.67736 0.53425 0.0
C978 C 0.24703 0.58129 0.52216 0.0
C979 C 0.21392 0.56088 0.51733 0.0
C980 C 0.21003 0.63906 0.5252 0.0
C981 C 0.18007 0.58126 0.51479 0.0
C982 C 0.16861 0.69115 0.53857 0.0
C983 C 0.23261 0.72671 0.55382 0.0
N984 N 0.17879 0.61908 0.5192 0.0
N985 N 0.23603 0.69628 0.54157 0.0
H986 H 0.71519 0.92079 0.2595 0.0
H987 H 0.52888 0.01498 0.30644 0.0
H988 H 0.69809 0.042 0.26479 0.0
H989 H 0.56003 0.89679 0.31269 0.0
H990 H 0.58113 0.02341 0.2827 0.0
H991 H 0.64909 0.91018 0.26996 0.0
C992 C 0.69712 0.94522 0.26219 0.0
C993 C 0.71224 0.98231 0.26144 0.0
C994 C 0.57598 0.99544 0.28896 0.0
C995 C 0.63683 0.97041 0.27386 0.0
C996 C 0.54598 0.99056 0.3024 0.0
C997 C 0.54043 0.95525 0.31172 0.0
C998 C 0.60032 0.9647 0.28474 0.0
C999 C 0.56364 0.92464 0.30602 0.0
C1000 C 0.6595 0.93915 0.26838 0.0
C1001 C 0.68761 0.01292 0.26535 0.0
N1002 N 0.59276 0.93016 0.2931 0.0
N1003 N 0.65135 1.00629 0.27168 0.0
H1004 H 0.37512 0.29925 0.05682 0.0
H1005 H 0.23139 0.45627 1.02275 0.0
H1006 H 0.25339 0.2857 0.06135 0.0
H1007 H 0.35185 0.46129 1.01069 0.0
H1008 H 0.23714 0.38835 0.03039 0.0
H1009 H 0.36622 0.35142 0.03361 0.0
C1010 C 0.34647 0.30653 0.0524 0.0
C1011 C 0.31494 0.28833 0.06109 0.0
C1012 C 0.26221 0.40393 0.02558 0.0
C1013 C 0.30438 0.34911 0.03505 0.0
C1014 C 0.25887 0.44268 1.02112 0.0
C1015 C 0.29126 0.46442 1.01623 0.0
C1016 C 0.29835 0.38691 0.02551 0.0
C1017 C 0.32619 0.44554 1.01438 0.0
C1018 C 0.34136 0.33651 0.03922 0.0
C1019 C 0.27846 0.29893 0.05494 0.0
N1020 N 0.32897 0.40806 1.01944 0.0
N1021 N 0.27414 0.32927 0.04265 0.0
H1022 H 0.99499 0.01322 0.79633 0.0
H1023 H 0.80624 0.11147 0.75589 0.0
H1024 H 0.96795 0.13223 0.80386 0.0
H1025 H 0.81827 0.99102 0.76663 0.0
H1026 H 0.87425 0.12032 0.76304 0.0
H1027 H 0.93976 1.00641 0.77486 0.0
C1028 C 0.9782 0.0382 0.79297 0.0
C1029 C 0.98568 0.07322 0.80212 0.0
C1030 C 0.86217 0.09184 0.76336 0.0
C1031 C 0.92239 0.06552 0.77778 0.0
C1032 C 0.82354 0.08679 0.75917 0.0
C1033 C 0.80685 0.05054 0.76083 0.0
C1034 C 0.8841 0.06032 0.76911 0.0
C1035 C 0.83022 0.01945 0.76532 0.0
C1036 C 0.9465 0.03421 0.78084 0.0
C1037 C 0.96284 0.10458 0.7973 0.0
N1038 N 0.86759 0.02509 0.76951 0.0
N1039 N 0.93191 0.09989 0.78568 0.0
H1040 H 0.24234 0.13378 1.0031 0.0
H1041 H 0.24689 0.08873 0.88796 0.0
H1042 H 0.31304 0.04808 0.97621 0.0
H1043 H 0.16276 0.1606 0.9155 0.0
H1044 H 0.27948 0.0832 0.91937 0.0
H1045 H 0.22059 0.15303 0.97042 0.0
C1046 C 0.25363 0.11939 0.99031 0.0
C1047 C 0.27907 0.08894 0.99237 0.0
C1048 C 0.25415 0.10059 0.91849 0.0
C1049 C 0.25446 0.1107 0.95502 0.0
C1050 C 0.23566 0.10397 0.9005 0.0
C1051 C 0.20179 0.12484 0.89911 0.0
C1052 C 0.23873 0.11825 0.93522 0.0
C1053 C 0.18858 0.1439 0.91591 0.0
C1054 C 0.24113 0.13024 0.97168 0.0
C1055 C 0.29282 0.07122 0.97531 0.0
N1056 N 0.20684 0.13985 0.9333 0.0
N1057 N 0.2802 0.08218 0.95741 0.0
H1058 H 0.70001 0.36877 0.1693 0.0
H1059 H 0.66911 0.55774 0.23315 0.0
H1060 H 0.67595 0.47803 0.14303 0.0
H1061 H 0.71999 0.45432 0.2546 0.0
H1062 H 0.65974 0.5269 0.20114 0.0
H1063 H 0.69583 0.39773 0.20154 0.0
C1064 C 0.69367 0.39891 0.17028 0.0
C1065 C 0.68874 0.42107 0.15335 0.0
C1066 C 0.67246 0.51085 0.21295 0.0
C1067 C 0.6839 0.4546 0.19052 0.0
C1068 C 0.67746 0.52828 0.23122 0.0
C1069 C 0.69531 0.50843 0.24646 0.0
C1070 C 0.68509 0.47327 0.21006 0.0
C1071 C 0.70617 0.47055 0.24319 0.0
C1072 C 0.69129 0.41546 0.18877 0.0
C1073 C 0.68019 0.45993 0.15567 0.0
N1074 N 0.70102 0.45429 0.22536 0.0
N1075 N 0.67827 0.47556 0.17394 0.0
H1076 H 0.25584 0.95747 0.38852 0.0
H1077 H 0.31327 0.94328 0.50024 0.0
H1078 H 0.36824 0.9225 0.40597 0.0
H1079 H 0.19699 0.93548 0.48105 0.0
H1080 H 0.3348 0.93526 0.46616 0.0
H1081 H 0.23411 0.95039 0.42243 0.0
C1082 C 0.27593 0.94806 0.39947 0.0
C1083 C 0.31397 0.94067 0.39437 0.0
C1084 C 0.3046 0.93444 0.46943 0.0
C1085 C 0.28929 0.93287 0.43338 0.0
C1086 C 0.29238 0.93873 0.48887 0.0
C1087 C 0.25339 0.93932 0.4934 0.0
C1088 C 0.27755 0.93184 0.45439 0.0
C1089 C 0.22732 0.93445 0.47813 0.0
C1090 C 0.26344 0.94386 0.41883 0.0
C1091 C 0.33865 0.92844 0.40921 0.0
N1092 N 0.23983 0.93145 0.45929 0.0
N1093 N 0.32602 0.92539 0.42808 0.0
H1094 H 0.90652 0.60212 0.66147 0.0
H1095 H 0.78997 0.44759 0.72341 0.0
H1096 H 0.82866 0.52101 0.63588 0.0
H1097 H 0.87635 0.51983 0.7486 0.0
H1098 H 0.80821 0.47024 0.69084 0.0
H1099 H 0.9009 0.56852 0.69275 0.0
C1100 C 0.8887 0.57686 0.66233 0.0
C1101 C 0.86776 0.56459 0.64602 0.0
C1102 C 0.82352 0.48094 0.70342 0.0
C1103 C 0.86081 0.52622 0.68197 0.0
C1104 C 0.81301 0.4681 0.72204 0.0
C1105 C 0.83136 0.48224 0.73875 0.0
C1106 C 0.85242 0.50851 0.70139 0.0
C1107 C 0.86144 0.50828 0.7361 0.0
C1108 C 0.88546 0.55772 0.68024 0.0
C1109 C 0.84527 0.53159 0.64803 0.0
N1110 N 0.8707 0.52098 0.71779 0.0
N1111 N 0.84201 0.51388 0.66572 0.0
H1112 H 0.77542 0.89375 0.04241 0.0
H1113 H 0.77097 0.93127 0.15831 0.0
H1114 H 0.70621 0.97894 0.07071 0.0
H1115 H 0.85555 0.8618 0.12952 0.0
H1116 H 0.73843 0.93883 0.12699 0.0
H1117 H 0.79684 0.87208 0.07478 0.0
C1118 C 0.76434 0.90748 0.05544 0.0
C1119 C 0.73945 0.93849 0.0539 0.0
C1120 C 0.76385 0.92152 0.12757 0.0
C1121 C 0.76366 0.91399 0.09087 0.0
C1122 C 0.78232 0.91698 0.1455 0.0
C1123 C 0.8163 0.8962 0.14653 0.0
C1124 C 0.77937 0.9051 0.11053 0.0
C1125 C 0.82964 0.87839 0.12939 0.0
C1126 C 0.77666 0.89526 0.07389 0.0
C1127 C 0.72595 0.95534 0.07124 0.0
N1128 N 0.81138 0.88354 0.11208 0.0
N1129 N 0.73837 0.94305 0.08895 0.0
H1130 H 0.37475 0.54312 0.7942 0.0
H1131 H 0.33737 0.52985 0.91011 0.0
H1132 H 0.2905 0.47018 0.82142 0.0
H1133 H 0.40371 0.61949 0.88282 0.0
H1134 H 0.33048 0.49937 0.87812 0.0
H1135 H 0.39553 0.56357 0.82692 0.0
C1136 C 0.36098 0.53113 0.80706 0.0
C1137 C 0.33051 0.50542 0.80514 0.0
C1138 C 0.34695 0.52548 0.87918 0.0
C1139 C 0.35408 0.52835 0.84247 0.0
C1140 C 0.3511 0.54277 0.89748 0.0
C1141 C 0.37078 0.57753 0.89915 0.0
C1142 C 0.36266 0.54298 0.8624 0.0
C1143 C 0.38795 0.59291 0.88221 0.0
C1144 C 0.37271 0.54284 0.8257 0.0
C1145 C 0.31363 0.49063 0.82226 0.0
N1146 N 0.38319 0.57575 0.86453 0.0
N1147 N 0.32549 0.50242 0.84016 0.0
H1148 H 0.64715 0.14656 0.62264 0.0
H1149 H 0.81241 0.03621 0.56782 0.0
H1150 H 0.73957 0.09158 0.6528 0.0
H1151 H 0.7409 0.11703 0.53809 0.0
H1152 H 0.78706 0.05818 0.59921 0.0
H1153 H 0.68201 0.13922 0.59173 0.0
C1154 C 0.67505 0.13354 0.62282 0.0
C1155 C 0.69026 0.11928 0.64033 0.0
C1156 C 0.77714 0.07149 0.58588 0.0
C1157 C 0.72999 0.11028 0.60497 0.0
C1158 C 0.79147 0.05881 0.56797 0.0
C1159 C 0.7784 0.07462 0.5504 0.0
C1160 C 0.74901 0.09982 0.58625 0.0
C1161 C 0.75161 0.10412 0.55135 0.0
C1162 C 0.69492 0.12935 0.60516 0.0
C1163 C 0.7266 0.10283 0.63968 0.0
N1164 N 0.73734 0.11543 0.569 0.0
N1165 N 0.74493 0.09825 0.62226 0.0
H1166 H 0.17672 0.39182 0.39434 0.0
H1167 H 0.17114 0.55752 0.31366 0.0
H1168 H 0.1938 0.5107 0.40815 0.0
H1169 H 0.21128 0.44436 0.30066 0.0
H1170 H 0.16125 0.53833 0.34797 0.0
H1171 H 0.17229 0.40881 0.35952 0.0
C1172 C 0.17905 0.42153 0.39008 0.0
C1173 C 0.18588 0.4499 0.40415 0.0
C1174 C 0.17153 0.51753 0.3375 0.0
C1175 C 0.18028 0.46944 0.36446 0.0
C1176 C 0.17675 0.52832 0.31794 0.0
C1177 C 0.19181 0.50237 0.30437 0.0
C1178 C 0.18096 0.4804 0.34345 0.0
C1179 C 0.19943 0.46509 0.31071 0.0
C1180 C 0.17664 0.43113 0.37023 0.0
C1181 C 0.18883 0.48791 0.39778 0.0
N1182 N 0.194 0.4552 0.32981 0.0
N1183 N 0.18595 0.49659 0.37842 0.0
H1184 H 0.75038 0.54619 0.38623 0.0
H1185 H 0.70552 0.60208 0.49793 0.0
H1186 H 0.65076 0.61005 0.40315 0.0
H1187 H 0.80265 0.53728 0.47866 0.0
H1188 H 0.68765 0.6118 0.46337 0.0
H1189 H 0.77252 0.54871 0.4199 0.0
C1190 C 0.73322 0.56101 0.39701 0.0
C1191 C 0.69853 0.57777 0.3918 0.0
C1192 C 0.71315 0.5959 0.46673 0.0
C1193 C 0.72371 0.58055 0.43074 0.0
C1194 C 0.72343 0.59062 0.4864 0.0
C1195 C 0.75552 0.56883 0.49105 0.0
C1196 C 0.73524 0.57927 0.45173 0.0
C1197 C 0.77762 0.55417 0.47565 0.0
C1198 C 0.74591 0.56244 0.41631 0.0
C1199 C 0.67768 0.5967 0.40649 0.0
N1200 N 0.76697 0.55945 0.45677 0.0
N1201 N 0.69042 0.59732 0.42532 0.0
H1202 H 0.21666 0.9652 0.64228 0.0
H1203 H 0.1521 0.97093 0.75521 0.0
H1204 H 0.11747 0.90546 0.66433 0.0
H1205 H 0.24703 0.03431 0.73106 0.0
H1206 H 0.13643 0.94888 0.72202 0.0
H1207 H 0.22603 0.99292 0.67465 0.0
C1208 C 0.19661 0.95815 0.65387 0.0
C1209 C 0.16624 0.9329 0.65052 0.0
C1210 C 0.16061 0.96771 0.72402 0.0
C1211 C 0.17703 0.96436 0.68786 0.0
C1212 C 0.16946 0.98038 0.74294 0.0
C1213 C 0.2013 1.00395 0.74598 0.0
C1214 C 0.18369 0.97888 0.70805 0.0
C1215 C 0.22279 0.01538 0.72952 0.0
C1216 C 0.20202 0.97396 0.67242 0.0
C1217 C 0.14128 0.9248 0.6662 0.0
N1218 N 0.21373 1.00261 0.71138 0.0
N1219 N 0.14736 0.94027 0.6842 0.0
H1220 H 0.7178 0.49874 0.97552 0.0
H1221 H 0.85779 0.36595 0.91285 0.0
H1222 H 0.78366 0.40841 1.00134 0.0
H1223 H 0.79728 0.46251 0.88944 0.0
H1224 H 0.82646 0.37624 0.94455 0.0
H1225 H 0.74174 0.48081 0.94328 0.0
C1226 C 0.7373 0.47498 0.97438 0.0
C1227 C 0.74923 0.45542 0.9912 0.0
C1228 C 0.81983 0.39497 0.93243 0.0
C1229 C 0.77685 0.43454 0.95411 0.0
C1230 C 0.83764 0.38908 0.91429 0.0
C1231 C 0.83029 0.41349 0.89841 0.0
C1232 C 0.79439 0.42545 0.93475 0.0
C1233 C 0.80395 0.443 0.90121 0.0
C1234 C 0.75092 0.46469 0.95592 0.0
C1235 C 0.77383 0.42431 0.98876 0.0
N1236 N 0.78715 0.44821 0.91901 0.0
N1237 N 0.78716 0.41505 0.97057 0.0
H1238 H 0.35765 0.0384 0.25596 0.0
H1239 H 0.31065 0.0467 0.1411 0.0
H1240 H 0.2736 0.96744 0.22788 0.0
H1241 H 0.37823 0.13157 0.17087 0.0
H1242 H 0.30466 0.01124 0.1719 0.0
H1243 H 0.37348 0.06678 0.22397 0.0
C1244 C 0.34287 0.02853 0.24303 0.0
C1245 C 0.31396 1.00094 0.24458 0.0
C1246 C 0.32105 0.03748 0.17165 0.0
C1247 C 0.33177 0.03312 0.20804 0.0
C1248 C 0.32461 0.05765 0.15404 0.0
C1249 C 0.34476 0.09228 0.15342 0.0
C1250 C 0.33791 0.05194 0.18875 0.0
C1251 C 0.36217 0.10513 0.17069 0.0
C1252 C 0.35173 0.04483 0.22482 0.0
C1253 C 0.29562 0.98916 0.22738 0.0
N1254 N 0.35821 0.08508 0.18764 0.0
N1255 N 0.3047 1.00539 0.20988 0.0
H1256 H 0.26699 0.39894 0.5458 0.0
H1257 H 0.26952 0.4338 0.66184 0.0
H1258 H 0.20352 0.48699 0.57535 0.0
H1259 H 0.34997 0.36174 0.63162 0.0
H1260 H 0.23617 0.44379 0.63096 0.0
H1261 H 0.28922 0.3759 0.57774 0.0
C1262 C 0.2574 0.41309 0.55902 0.0
C1263 C 0.23384 0.44522 0.55794 0.0
C1264 C 0.26085 0.4254 0.63113 0.0
C1265 C 0.25895 0.4191 0.59442 0.0
C1266 C 0.27978 0.41947 0.64881 0.0
C1267 C 0.31288 0.39724 0.64931 0.0
C1268 C 0.27503 0.40892 0.61382 0.0
C1269 C 0.32479 0.37943 0.6319 0.0
C1270 C 0.27017 0.40006 0.57722 0.0
C1271 C 0.22225 0.46256 0.57551 0.0
N1272 N 0.30612 0.38594 0.61484 0.0
N1273 N 0.23505 0.44942 0.59298 0.0
H1274 H 0.84004 0.13436 0.38804 0.0
H1275 H 0.84779 0.96871 0.30762 0.0
H1276 H 0.82691 0.01503 0.40222 0.0
H1277 H 0.80294 0.08025 0.29514 0.0
H1278 H 0.85892 0.98854 0.34162 0.0
H1279 H 0.84409 0.11751 0.35317 0.0
C1280 C 0.83855 0.1046 0.38385 0.0
C1281 C 0.83288 0.07604 0.39802 0.0
C1282 C 0.84734 1.00888 0.33131 0.0
C1283 C 0.83806 0.05668 0.35831 0.0
C1284 C 0.84141 0.99774 0.31191 0.0
C1285 C 0.82462 0.023 0.29861 0.0
C1286 C 0.8369 0.04568 0.33734 0.0
C1287 C 0.81609 0.06005 0.30498 0.0
C1288 C 0.84073 0.09508 0.36398 0.0
C1289 C 0.83096 0.03796 0.39176 0.0
N1290 N 0.82222 0.07029 0.32393 0.0
N1291 N 0.8336 0.02937 0.37237 0.0
H1292 H 0.30339 0.53449 0.07389 0.0
H1293 H 0.16771 0.6691 0.13689 0.0
H1294 H 0.23686 0.6247 0.04841 0.0
H1295 H 0.24344 0.58605 0.16208 0.0
H1296 H 0.19693 0.65798 0.10484 0.0
H1297 H 0.28542 0.55672 0.10647 0.0
C1298 C 0.28493 0.55904 0.07518 0.0
C1299 C 0.27108 0.57741 0.05841 0.0
C1300 C 0.20754 0.64259 0.11741 0.0
C1301 C 0.25049 0.60328 0.09579 0.0
C1302 C 0.19095 0.64901 0.13577 0.0
C1303 C 0.20285 0.62818 0.15221 0.0
C1304 C 0.23607 0.61492 0.11542 0.0
C1305 C 0.23319 0.60266 0.14984 0.0
C1306 C 0.27488 0.5719 0.09381 0.0
C1307 C 0.24803 0.60963 0.06096 0.0
N1308 N 0.24837 0.59638 0.13176 0.0
N1309 N 0.23807 0.6213 0.07931 0.0
H1310 H 0.6904 0.98429 0.90365 0.0
H1311 H 0.66076 0.96792 0.78749 0.0
H1312 H 0.65068 0.88258 0.87453 0.0
H1313 H 0.71858 0.06151 0.81556 0.0
H1314 H 0.6448 0.9416 0.81993 0.0
H1315 H 0.68959 0.01798 0.87215 0.0
C1316 C 0.68109 0.96918 0.8907 0.0
C1317 C 0.67103 0.93046 0.8917 0.0
C1318 C 0.66048 0.96821 0.81899 0.0
C1319 C 0.66999 0.96875 0.85562 0.0
C1320 C 0.66926 0.98334 0.80049 0.0
C1321 C 0.69124 0.01668 0.79892 0.0
C1322 C 0.67368 0.98672 0.83595 0.0
C1323 C 0.70188 0.03549 0.8162 0.0
C1324 C 0.6807 0.98838 0.87271 0.0
C1325 C 0.65913 0.91232 0.87443 0.0
N1326 N 0.69332 0.02009 0.83397 0.0
N1327 N 0.65918 0.93151 0.85712 0.0
H1328 H 0.57968 0.3586 0.09663 0.0
H1329 H 0.44923 0.17467 0.10039 0.0
H1330 H 0.62485 0.25074 0.11589 0.0
H1331 H 0.40564 0.28364 0.11909 0.0
H1332 H 0.51389 0.20182 0.10025 0.0
H1333 H 0.51507 0.33163 0.09904 0.0
C1334 C 0.57603 0.3293 0.10135 0.0
C1335 C 0.60774 0.30692 0.10607 0.0
C1336 C 0.49009 0.21965 0.10444 0.0
C1337 C 0.53413 0.27579 0.10843 0.0
C1338 C 0.45324 0.20427 0.10447 0.0
C1339 C 0.42198 0.22691 0.10979 0.0
C1340 C 0.49561 0.25822 0.10921 0.0
C1341 C 0.4289 0.2651 0.11498 0.0
C1342 C 0.53921 0.31402 0.10279 0.0
C1343 C 0.60127 0.2691 0.11218 0.0
N1344 N 0.46489 0.2797 0.11431 0.0
N1345 N 0.56527 0.25457 0.11294 0.0
H1346 H 0.53714 0.67196 0.38649 0.0
H1347 H 0.45818 0.8453 0.32312 0.0
H1348 H 0.55073 0.6804 0.32373 0.0
H1349 H 0.47735 0.85387 0.38537 0.0
H1350 H 0.48569 0.78158 0.32348 0.0
H1351 H 0.50931 0.73591 0.38676 0.0
C1352 C 0.53432 0.68727 0.37279 0.0
C1353 C 0.5463 0.67089 0.35506 0.0
C1354 C 0.4839 0.79741 0.33706 0.0
C1355 C 0.51428 0.74364 0.35526 0.0
C1356 C 0.46801 0.83372 0.3369 0.0
C1357 C 0.46552 0.85494 0.35425 0.0
C1358 C 0.49702 0.78199 0.35474 0.0
C1359 C 0.47888 0.83852 0.37165 0.0
C1360 C 0.51854 0.72373 0.37296 0.0
C1361 C 0.54207 0.69199 0.33774 0.0
N1362 N 0.49398 0.8029 0.37147 0.0
N1363 N 0.52621 0.72718 0.33827 0.0
H1364 H 0.10979 0.74609 0.62376 0.0
H1365 H 0.88695 0.77427 0.60878 0.0
H1366 H 0.06624 0.84691 0.59551 0.0
H1367 H 0.94089 0.66434 0.60425 0.0
H1368 H 0.95032 0.80431 0.61111 0.0
H1369 H 0.04558 0.71874 0.62394 0.0
C1370 C 0.08668 0.76269 0.61776 0.0
C1371 C 0.09352 0.79886 0.60953 0.0
C1372 C 0.9481 0.77361 0.60972 0.0
C1373 C 0.01973 0.76773 0.60997 0.0
C1374 C 0.91205 0.75643 0.60854 0.0
C1375 C 0.90866 0.71673 0.60628 0.0
C1376 C 0.98088 0.7508 0.60916 0.0
C1377 C 0.94217 0.69503 0.60588 0.0
C1378 C 0.05008 0.74693 0.6178 0.0
C1379 C 0.06233 0.81885 0.60188 0.0
N1380 N 0.97679 0.71229 0.60743 0.0
N1381 N 0.02672 0.80312 0.60238 0.0
H1382 H 0.99593 0.14186 0.86666 0.0
H1383 H 0.02254 0.36676 0.87379 0.0
H1384 H 0.10328 0.19725 0.85385 0.0
H1385 H 0.9205 0.31757 0.84939 0.0
H1386 H 0.05049 0.30292 0.87545 0.0
H1387 H 0.96587 0.20491 0.86915 0.0
C1388 C 0.01324 0.16721 0.86457 0.0
C1389 C 0.05206 0.16432 0.85976 0.0
C1390 C 0.02187 0.30618 0.8699 0.0
C1391 C 0.01812 0.2361 0.86309 0.0
C1392 C 1.00581 0.34248 0.86903 0.0
C1393 C 0.9692 0.34746 0.86134 0.0
C1394 C 1.00083 0.2745 0.8635 0.0
C1395 C 0.94893 0.31498 0.85526 0.0
C1396 C 0.99604 0.20305 0.86592 0.0
C1397 C 0.07317 0.19815 0.85733 0.0
N1398 N 0.96495 0.27978 0.85655 0.0
N1399 N 0.05598 0.23263 0.8591 0.0
H1400 H 0.61389 0.74946 0.92478 0.0
H1401 H 0.39005 0.77812 0.93539 0.0
H1402 H 0.5677 0.85413 0.94798 0.0
H1403 H 0.44531 0.67011 0.94501 0.0
H1404 H 0.45312 0.80863 0.93212 0.0
H1405 H 0.54982 0.72237 0.92408 0.0
C1406 C 0.59025 0.76696 0.92955 0.0
C1407 C 0.59625 0.80412 0.93658 0.0
C1408 C 0.45121 0.77823 0.93483 0.0
C1409 C 0.52272 0.77318 0.93559 0.0
C1410 C 0.41538 0.76079 0.93657 0.0
C1411 C 0.41254 0.7216 0.94064 0.0
C1412 C 0.48417 0.75603 0.93662 0.0
C1413 C 0.44622 0.70046 0.94207 0.0
C1414 C 0.55372 0.75135 0.92921 0.0
C1415 C 0.56439 0.82527 0.94261 0.0
N1416 N 0.48061 0.7179 0.93998 0.0
N1417 N 0.52887 0.80952 0.94195 0.0
H1418 H 0.60177 0.19666 0.69786 0.0
H1419 H 0.41174 0.31655 0.69279 0.0
H1420 H 0.49513 0.14633 0.68003 0.0
H1421 H 0.52213 0.36917 0.68498 0.0
H1422 H 0.44135 0.25377 0.69013 0.0
H1423 H 0.57305 0.25995 0.6954 0.0
C1424 C 0.57233 0.19888 0.69339 0.0
C1425 C 0.55076 0.16604 0.68926 0.0
C1426 C 0.45906 0.27904 0.6888 0.0
C1427 C 0.51767 0.23849 0.68659 0.0
C1428 C 0.44221 0.31491 0.69038 0.0
C1429 C 0.46453 0.3482 0.6892 0.0
C1430 C 0.49867 0.27628 0.68645 0.0
C1431 C 0.50384 0.34428 0.68594 0.0
C1432 C 0.55605 0.23506 0.69189 0.0
C1433 C 0.51283 0.1708 0.68337 0.0
N1434 N 0.51976 0.30896 0.68496 0.0
N1435 N 0.49736 0.20629 0.68245 0.0
H1436 H 0.1195 0.25193 0.42894 0.0
H1437 H 0.89914 0.27779 0.4282 0.0
H1438 H 0.07223 0.35069 0.4577 0.0
H1439 H 0.94524 0.17439 0.45268 0.0
H1440 H 0.96316 0.30639 0.42871 0.0
H1441 H 0.05541 0.22395 0.42729 0.0
C1442 C 0.09561 0.26784 0.43476 0.0
C1443 C 0.10102 0.30352 0.44362 0.0
C1444 C 0.95903 0.2774 0.43385 0.0
C1445 C 0.02821 0.27225 0.44121 0.0
C1446 C 0.92277 0.26103 0.4335 0.0
C1447 C 0.91706 0.2238 0.44054 0.0
C1448 C 0.98973 0.25584 0.44061 0.0
C1449 C 0.94856 0.20328 0.44727 0.0
C1450 C 0.05928 0.25181 0.43385 0.0
C1451 C 0.06915 0.32297 0.45091 0.0
N1452 N 0.98378 0.21946 0.44696 0.0
N1453 N 0.03385 0.30721 0.44937 0.0
H1454 H 0.1053 0.70472 0.19786 0.0
H1455 H 0.91365 0.81856 0.1943 0.0
H1456 H 1.00085 0.64974 0.18027 0.0
H1457 H 0.02065 0.87303 0.17974 0.0
H1458 H 0.94451 0.75632 0.19163 0.0
H1459 H 0.07481 0.76688 0.19382 0.0
C1460 C 0.07601 0.70576 0.19302 0.0
C1461 C 0.05549 0.67206 0.18946 0.0
C1462 C 0.96109 0.7819 0.18883 0.0
C1463 C 0.02036 0.74297 0.18514 0.0
C1464 C 0.94359 0.81744 0.19043 0.0
C1465 C 0.96471 0.85109 0.18743 0.0
C1466 C 1.00019 0.77999 0.18465 0.0
C1467 C 1.00332 0.84785 0.18226 0.0
C1468 C 0.05873 0.74122 0.19063 0.0
C1469 C 0.01769 0.67506 0.18311 0.0
N1470 N 0.02001 0.81294 0.18137 0.0
N1471 N 1.0011 0.70992 0.18146 0.0
loop_
_geom_bond_atom_site_label_1
_geom_bond_atom_site_label_2
_geom_bond_distance
_geom_bond_site_symmetry_2
_ccdc_geom_bond_type
O0 Tb1 2.292 . S
O0 C3 1.255 . S
Tb1 O0 2.292 . S
Tb1 O17 2.326 . S
Tb1 O19 2.500 . S
Tb1 O20 2.473 . S
Tb1 O23 2.324 . S
Eu2 O6 2.292 . S
Eu2 C7 2.852 . S
Eu2 O18 2.324 . S
Eu2 O22 2.326 . S
Eu2 O24 2.500 . S
Eu2 O25 2.473 . S
C3 O0 1.255 . S
C3 O4 1.247 . S
O4 C3 1.247 . S
C5 O17 1.242 . S
C5 O18 1.258 . S
O6 Eu2 2.292 . S
O6 C8 1.255 . S
C7 Eu2 2.852 . S
C7 C11 1.503 . S
C7 O24 1.273 . S
C7 O25 1.257 . S
C8 O6 1.255 . S
C8 O9 1.247 . S
O9 C8 1.247 . S
C10 O22 1.242 . S
C10 O23 1.258 . S
C11 C7 1.503 . S
C11 C12 1.379 . S
C11 C16 1.392 . S
C12 C11 1.379 . S
C12 C13 1.404 . S
C12 H26 0.929 . S
C13 C12 1.404 . S
C13 C14 1.389 . S
C14 C13 1.389 . S
C14 C15 1.399 1_545 S
C14 H27 0.931 1_544 S
C15 C14 1.399 1_565 S
C15 C16 1.390 1_565 S
C16 C11 1.392 . S
C16 C15 1.390 1_545 S
C16 H28 0.929 1_545 S
O17 Tb1 2.326 . S
O17 C5 1.242 . S
O18 Eu2 2.324 . S
O18 C5 1.258 . S
O19 Tb1 2.500 . S
O19 C21 1.273 . S
O20 Tb1 2.473 . S
O20 C21 1.257 . S
C21 O19 1.273 . S
C21 O20 1.257 . S
O22 Eu2 2.326 . S
O22 C10 1.242 . S
O23 Tb1 2.324 . S
O23 C10 1.258 . S
O24 Eu2 2.500 . S
O24 C7 1.273 . S
O25 Eu2 2.473 . S
O25 C7 1.257 . S
H26 C12 0.929 . S
H27 C14 0.931 1_566 S
H28 C16 0.929 1_565 S
O29 Tb30 2.292 . S
O29 C32 1.255 . S
Tb30 O29 2.292 . S
Tb30 O46 2.326 . S
Tb30 O48 2.500 . S
Tb30 O49 2.473 . S
Tb30 O52 2.324 . S
Eu31 O35 2.292 . S
Eu31 C36 2.852 . S
Eu31 O47 2.324 . S
Eu31 O51 2.326 . S
Eu31 O53 2.500 . S
Eu31 O54 2.473 . S
C32 O29 1.255 . S
C32 O33 1.247 . S
O33 C32 1.247 . S
C34 O46 1.242 . S
C34 O47 1.258 . S
O35 Eu31 2.292 . S
O35 C37 1.255 . S
C36 Eu31 2.852 . S
C36 C40 1.503 . S
C36 O53 1.273 . S
C36 O54 1.257 . S
C37 O35 1.255 . S
C37 O38 1.247 . S
O38 C37 1.247 . S
C39 O51 1.242 . S
C39 O52 1.258 . S
C40 C36 1.503 . S
C40 C41 1.379 . S
C40 C45 1.392 . S
C41 C40 1.379 . S
C41 C42 1.404 . S
C41 H55 0.929 . S
C42 C41 1.404 . S
C42 C43 1.389 . S
C43 C42 1.389 . S
C43 C44 1.399 . S
C43 H56 0.931 . S
C44 C43 1.399 . S
C44 C45 1.390 . S
C45 C40 1.392 . S
C45 C44 1.390 . S
C45 H57 0.929 . S
O46 Tb30 2.326 . S
O46 C34 1.242 . S
O47 Eu31 2.324 . S
O47 C34 1.258 . S
O48 Tb30 2.500 . S
O48 C50 1.273 . S
O49 Tb30 2.473 . S
O49 C50 1.257 . S
C50 O48 1.273 . S
C50 O49 1.257 . S
O51 Eu31 2.326 . S
O51 C39 1.242 . S
O52 Tb30 2.324 . S
O52 C39 1.258 . S
O53 Eu31 2.500 . S
O53 C36 1.273 . S
O54 Eu31 2.473 . S
O54 C36 1.257 . S
H55 C41 0.929 . S
H56 C43 0.931 . S
H57 C45 0.929 . S
O58 Tb59 2.292 . S
O58 C61 1.255 . S
Tb59 O58 2.292 . S
Tb59 O75 2.326 . S
Tb59 O77 2.500 . S
Tb59 O78 2.473 . S
Tb59 O81 2.324 . S
Eu60 O64 2.292 . S
Eu60 C65 2.852 . S
Eu60 O76 2.324 . S
Eu60 O80 2.326 . S
Eu60 O82 2.500 . S
Eu60 O83 2.473 . S
C61 O58 1.255 . S
C61 O62 1.247 . S
O62 C61 1.247 . S
C63 O75 1.242 . S
C63 O76 1.258 . S
O64 Eu60 2.292 . S
O64 C66 1.255 . S
C65 Eu60 2.852 . S
C65 C69 1.503 . S
C65 O82 1.273 . S
C65 O83 1.257 . S
C66 O64 1.255 . S
C66 O67 1.247 . S
O67 C66 1.247 . S
C68 O80 1.242 . S
C68 O81 1.258 . S
C69 C65 1.503 . S
C69 C70 1.379 . S
C69 C74 1.392 . S
C70 C69 1.379 . S
C70 C71 1.404 . S
C70 H84 0.929 . S
C71 C70 1.404 . S
C71 C72 1.389 . S
C72 C71 1.389 . S
C72 C73 1.399 1_565 S
C72 H85 0.931 1_565 S
C73 C72 1.399 1_545 S
C73 C74 1.390 1_545 S
C74 C69 1.392 . S
C74 C73 1.390 1_565 S
C74 H86 0.929 1_565 S
O75 Tb59 2.326 . S
O75 C63 1.242 . S
O76 Eu60 2.324 . S
O76 C63 1.258 . S
O77 Tb59 2.500 . S
O77 C79 1.273 . S
O78 Tb59 2.473 . S
O78 C79 1.257 . S
C79 O77 1.273 . S
C79 O78 1.257 . S
O80 Eu60 2.326 . S
O80 C68 1.242 . S
O81 Tb59 2.324 . S
O81 C68 1.258 . S
O82 Eu60 2.500 . S
O82 C65 1.273 . S
O83 Eu60 2.473 . S
O83 C65 1.257 . S
H84 C70 0.929 . S
H85 C72 0.931 1_545 S
H86 C74 0.929 1_545 S
O87 Tb88 2.292 . S
O87 C90 1.256 . S
Tb88 O87 2.292 . S
Tb88 O104 2.326 . S
Tb88 O106 2.500 1_655 S
Tb88 O107 2.473 . S
Tb88 O110 2.324 . S
Eu89 O93 2.292 . S
Eu89 C94 2.852 . S
Eu89 O105 2.324 . S
Eu89 O109 2.326 . S
Eu89 O111 2.500 . S
Eu89 O112 2.473 . S
C90 O87 1.256 . S
C90 O91 1.266 . S
O91 C90 1.266 . S
C92 O104 1.242 . S
C92 O105 1.258 . S
O93 Eu89 2.292 . S
O93 C95 1.255 . S
C94 Eu89 2.852 . S
C94 C98 1.503 . S
C94 O111 1.273 . S
C94 O112 1.257 . S
C95 O93 1.255 . S
C95 O96 1.247 . S
O96 C95 1.247 . S
C97 O109 1.242 . S
C97 O110 1.258 . S
C98 C94 1.503 . S
C98 C99 1.379 . S
C98 C103 1.392 . S
C99 C98 1.379 . S
C99 C100 1.404 . S
C99 H113 0.929 . S
C100 C99 1.404 . S
C100 C101 1.389 . S
C101 C100 1.389 . S
C101 C102 1.399 . S
C101 H114 0.931 . S
C102 C101 1.399 . S
C102 C103 1.390 . S
C103 C98 1.392 . S
C103 C102 1.390 . S
C103 H115 0.929 . S
O104 Tb88 2.326 . S
O104 C92 1.242 . S
O105 Eu89 2.324 . S
O105 C92 1.258 . S
O106 Tb88 2.500 1_455 S
O106 C108 1.273 1_455 S
O107 Tb88 2.473 . S
O107 C108 1.257 . S
C108 O106 1.273 1_655 S
C108 O107 1.257 . S
O109 Eu89 2.326 . S
O109 C97 1.242 . S
O110 Tb88 2.324 . S
O110 C97 1.258 . S
O111 Eu89 2.500 . S
O111 C94 1.273 . S
O112 Eu89 2.473 . S
O112 C94 1.257 . S
H113 C99 0.929 . S
H114 C101 0.931 . S
H115 C103 0.929 . S
O116 Tb117 2.292 . S
O116 C119 1.255 . S
Tb117 O116 2.292 . S
Tb117 O133 2.326 . S
Tb117 O135 2.500 . S
Tb117 O136 2.473 . S
Tb117 O139 2.324 . S
Eu118 O122 2.292 . S
Eu118 C123 2.852 . S
Eu118 O134 2.324 . S
Eu118 O138 2.326 . S
Eu118 O140 2.500 . S
Eu118 O141 2.473 . S
C119 O116 1.255 . S
C119 O120 1.247 . S
O120 C119 1.247 . S
C121 O133 1.242 . S
C121 O134 1.258 . S
O122 Eu118 2.292 . S
O122 C124 1.255 . S
C123 Eu118 2.852 . S
C123 C127 1.503 . S
C123 O140 1.273 . S
C123 O141 1.257 . S
C124 O122 1.255 . S
C124 O125 1.247 . S
O125 C124 1.247 . S
C126 O138 1.242 . S
C126 O139 1.258 . S
C127 C123 1.503 . S
C127 C128 1.379 . S
C127 C132 1.392 . S
C128 C127 1.379 . S
C128 C129 1.404 . S
C128 H142 0.929 . S
C129 C128 1.404 . S
C129 C130 1.389 . S
C130 C129 1.389 . S
C130 C131 1.399 1_565 S
C130 H143 0.931 1_566 S
C131 C130 1.399 1_545 S
C131 C132 1.390 1_545 S
C132 C127 1.392 . S
C132 C131 1.390 1_565 S
C132 H144 0.929 1_565 S
O133 Tb117 2.326 . S
O133 C121 1.242 . S
O134 Eu118 2.324 . S
O134 C121 1.258 . S
O135 Tb117 2.500 . S
O135 C137 1.273 . S
O136 Tb117 2.473 . S
O136 C137 1.257 . S
C137 O135 1.273 . S
C137 O136 1.257 . S
O138 Eu118 2.326 . S
O138 C126 1.242 . S
O139 Tb117 2.324 . S
O139 C126 1.258 . S
O140 Eu118 2.500 . S
O140 C123 1.273 . S
O141 Eu118 2.473 . S
O141 C123 1.257 . S
H142 C128 0.929 . S
H143 C130 0.931 1_544 S
H144 C132 0.929 1_545 S
O145 Tb146 2.292 . S
O145 C148 1.255 . S
Tb146 O145 2.292 . S
Tb146 O162 2.326 . S
Tb146 O164 2.500 . S
Tb146 O165 2.473 . S
Tb146 O168 2.324 . S
Eu147 O151 2.292 . S
Eu147 C152 2.852 . S
Eu147 O163 2.324 . S
Eu147 O167 2.326 . S
Eu147 O169 2.500 . S
Eu147 O170 2.473 . S
C148 O145 1.255 . S
C148 O149 1.247 . S
O149 C148 1.247 . S
C150 O162 1.242 . S
C150 O163 1.258 . S
O151 Eu147 2.292 . S
O151 C153 1.255 . S
C152 Eu147 2.852 . S
C152 C156 1.503 . S
C152 O169 1.273 . S
C152 O170 1.257 . S
C153 O151 1.255 . S
C153 O154 1.247 . S
O154 C153 1.247 . S
C155 O167 1.242 . S
C155 O168 1.258 . S
C156 C152 1.503 . S
C156 C157 1.379 . S
C156 C161 1.392 . S
C157 C156 1.379 . S
C157 C158 1.404 . S
C157 H171 0.929 . S
C158 C157 1.404 . S
C158 C159 1.389 . S
C159 C158 1.389 . S
C159 C160 1.399 . S
C159 H172 0.931 . S
C160 C159 1.399 . S
C160 C161 1.390 . S
C161 C156 1.392 . S
C161 C160 1.390 . S
C161 H173 0.929 . S
O162 Tb146 2.326 . S
O162 C150 1.242 . S
O163 Eu147 2.324 . S
O163 C150 1.258 . S
O164 Tb146 2.500 . S
O164 C166 1.273 . S
O165 Tb146 2.473 . S
O165 C166 1.257 . S
C166 O164 1.273 . S
C166 O165 1.257 . S
O167 Eu147 2.326 . S
O167 C155 1.242 . S
O168 Tb146 2.324 . S
O168 C155 1.258 . S
O169 Eu147 2.500 . S
O169 C152 1.273 . S
O170 Eu147 2.473 . S
O170 C152 1.257 . S
H171 C157 0.929 . S
H172 C159 0.931 . S
H173 C161 0.929 . S
O174 Tb175 2.292 . S
O174 C177 1.255 . S
Tb175 O174 2.292 . S
Tb175 O191 2.326 . S
Tb175 O193 2.500 . S
Tb175 O194 2.473 . S
Tb175 O197 2.324 . S
Eu176 O180 2.292 . S
Eu176 C181 2.852 . S
Eu176 O192 2.324 . S
Eu176 O196 2.326 . S
Eu176 O198 2.500 . S
Eu176 O199 2.473 . S
C177 O174 1.255 . S
C177 O178 1.247 . S
O178 C177 1.247 . S
C179 O191 1.242 . S
C179 O192 1.258 . S
O180 Eu176 2.292 . S
O180 C182 1.255 . S
C181 Eu176 2.852 . S
C181 C185 1.503 . S
C181 O198 1.273 . S
C181 O199 1.257 . S
C182 O180 1.255 . S
C182 O183 1.247 . S
O183 C182 1.247 . S
C184 O196 1.242 . S
C184 O197 1.258 . S
C185 C181 1.503 . S
C185 C186 1.379 . S
C185 C190 1.392 . S
C186 C185 1.379 . S
C186 C187 1.404 . S
C186 H200 0.929 . S
C187 C186 1.404 . S
C187 C188 1.389 . S
C188 C187 1.389 . S
C188 C189 1.399 1_545 S
C188 H201 0.931 1_545 S
C189 C188 1.399 1_565 S
C189 C190 1.390 1_565 S
C190 C185 1.392 . S
C190 C189 1.390 1_545 S
C190 H202 0.929 1_545 S
O191 Tb175 2.326 . S
O191 C179 1.242 . S
O192 Eu176 2.324 . S
O192 C179 1.258 . S
O193 Tb175 2.500 . S
O193 C195 1.273 . S
O194 Tb175 2.473 . S
O194 C195 1.257 . S
C195 O193 1.273 . S
C195 O194 1.257 . S
O196 Eu176 2.326 . S
O196 C184 1.242 . S
O197 Tb175 2.324 . S
O197 C184 1.258 . S
O198 Eu176 2.500 . S
O198 C181 1.273 . S
O199 Eu176 2.473 . S
O199 C181 1.257 . S
H200 C186 0.929 . S
H201 C188 0.931 1_565 S
H202 C190 0.929 1_565 S
O203 Tb204 2.292 . S
O203 C206 1.256 . S
Tb204 O203 2.292 . S
Tb204 O220 2.326 . S
Tb204 O222 2.500 1_455 S
Tb204 O223 2.473 . S
Tb204 O226 2.324 . S
Eu205 O209 2.292 . S
Eu205 C210 2.852 . S
Eu205 O221 2.324 . S
Eu205 O225 2.326 . S
Eu205 O227 2.500 . S
Eu205 O228 2.473 . S
C206 O203 1.256 . S
C206 O207 1.266 . S
O207 C206 1.266 . S
C208 O220 1.242 . S
C208 O221 1.258 . S
O209 Eu205 2.292 . S
O209 C211 1.255 . S
C210 Eu205 2.852 . S
C210 C214 1.503 . S
C210 O227 1.273 . S
C210 O228 1.257 . S
C211 O209 1.255 . S
C211 O212 1.247 . S
O212 C211 1.247 . S
C213 O225 1.242 . S
C213 O226 1.258 . S
C214 C210 1.503 . S
C214 C215 1.379 . S
C214 C219 1.392 . S
C215 C214 1.379 . S
C215 C216 1.404 . S
C215 H229 0.929 . S
C216 C215 1.404 . S
C216 C217 1.389 . S
C217 C216 1.389 . S
C217 C218 1.399 . S
C217 H230 0.931 . S
C218 C217 1.399 . S
C218 C219 1.390 . S
C219 C214 1.392 . S
C219 C218 1.390 . S
C219 H231 0.929 . S
O220 Tb204 2.326 . S
O220 C208 1.242 . S
O221 Eu205 2.324 . S
O221 C208 1.258 . S
O222 Tb204 2.500 1_655 S
O222 C224 1.273 1_655 S
O223 Tb204 2.473 . S
O223 C224 1.257 . S
C224 O222 1.273 1_455 S
C224 O223 1.257 . S
O225 Eu205 2.326 . S
O225 C213 1.242 . S
O226 Tb204 2.324 . S
O226 C213 1.258 . S
O227 Eu205 2.500 . S
O227 C210 1.273 . S
O228 Eu205 2.473 . S
O228 C210 1.257 . S
H229 C215 0.929 . S
H230 C217 0.931 . S
H231 C219 0.929 . S
O232 Tb233 2.292 . S
O232 C235 1.255 . S
Tb233 O232 2.292 . S
Tb233 O249 2.326 . S
Tb233 O251 2.500 . S
Tb233 O252 2.473 . S
Tb233 O255 2.324 . S
Eu234 O238 2.292 . S
Eu234 C239 2.852 . S
Eu234 O250 2.324 . S
Eu234 O254 2.326 . S
Eu234 O256 2.500 . S
Eu234 O257 2.473 . S
C235 O232 1.255 . S
C235 O236 1.247 . S
O236 C235 1.247 . S
C237 O249 1.242 . S
C237 O250 1.258 . S
O238 Eu234 2.292 . S
O238 C240 1.255 . S
C239 Eu234 2.852 . S
C239 C243 1.503 . S
C239 O256 1.273 . S
C239 O257 1.257 . S
C240 O238 1.255 . S
C240 O241 1.247 . S
O241 C240 1.247 . S
C242 O254 1.242 . S
C242 O255 1.258 . S
C243 C239 1.503 . S
C243 C244 1.379 . S
C243 C248 1.392 . S
C244 C243 1.379 . S
C244 C245 1.404 . S
C244 H258 0.929 . S
C245 C244 1.404 . S
C245 C246 1.389 . S
C246 C245 1.389 . S
C246 C247 1.399 . S
C246 H259 0.931 . S
C247 C246 1.399 . S
C247 C248 1.390 . S
C248 C243 1.392 . S
C248 C247 1.390 . S
C248 H260 0.929 . S
O249 Tb233 2.326 . S
O249 C237 1.242 . S
O250 Eu234 2.324 . S
O250 C237 1.258 . S
O251 Tb233 2.500 . S
O251 C253 1.273 . S
O252 Tb233 2.473 . S
O252 C253 1.257 . S
C253 O251 1.273 . S
C253 O252 1.257 . S
O254 Eu234 2.326 . S
O254 C242 1.242 . S
O255 Tb233 2.324 . S
O255 C242 1.258 . S
O256 Eu234 2.500 . S
O256 C239 1.273 . S
O257 Eu234 2.473 . S
O257 C239 1.257 . S
H258 C244 0.929 . S
H259 C246 0.931 . S
H260 C248 0.929 . S
O261 Tb262 2.292 . S
O261 C264 1.256 . S
Tb262 O261 2.292 . S
Tb262 O278 2.326 . S
Tb262 O280 2.500 1_455 S
Tb262 O281 2.473 . S
Tb262 O284 2.324 1_545 S
Eu263 O267 2.292 . S
Eu263 C268 2.852 . S
Eu263 O279 2.324 . S
Eu263 O283 2.326 . S
Eu263 O285 2.500 . S
Eu263 O286 2.473 . S
C264 O261 1.256 . S
C264 O265 1.266 . S
O265 C264 1.266 . S
C266 O278 1.242 . S
C266 O279 1.258 . S
O267 Eu263 2.292 . S
O267 C269 1.255 . S
C268 Eu263 2.852 . S
C268 C272 1.503 . S
C268 O285 1.273 . S
C268 O286 1.257 . S
C269 O267 1.255 . S
C269 O270 1.247 . S
O270 C269 1.247 . S
C271 O283 1.242 1_565 S
C271 O284 1.258 . S
C272 C268 1.503 . S
C272 C273 1.379 . S
C272 C277 1.392 . S
C273 C272 1.379 . S
C273 C274 1.404 . S
C273 H287 0.929 . S
C274 C273 1.404 . S
C274 C275 1.389 . S
C275 C274 1.389 . S
C275 C276 1.399 . S
C275 H288 0.931 . S
C276 C275 1.399 . S
C276 C277 1.390 . S
C277 C272 1.392 . S
C277 C276 1.390 . S
C277 H289 0.929 . S
O278 Tb262 2.326 . S
O278 C266 1.242 . S
O279 Eu263 2.324 . S
O279 C266 1.258 . S
O280 Tb262 2.500 1_655 S
O280 C282 1.273 1_655 S
O281 Tb262 2.473 . S
O281 C282 1.257 . S
C282 O280 1.273 1_455 S
C282 O281 1.257 . S
O283 Eu263 2.326 . S
O283 C271 1.242 1_545 S
O284 Tb262 2.324 1_565 S
O284 C271 1.258 . S
O285 Eu263 2.500 . S
O285 C268 1.273 . S
O286 Eu263 2.473 . S
O286 C268 1.257 . S
H287 C273 0.929 . S
H288 C275 0.931 . S
H289 C277 0.929 . S
O290 Tb291 2.292 . S
O290 C293 1.255 . S
Tb291 O290 2.292 . S
Tb291 O307 2.326 . S
Tb291 O309 2.500 . S
Tb291 O310 2.473 . S
Tb291 O313 2.324 . S
Eu292 O296 2.292 . S
Eu292 C297 2.852 . S
Eu292 O308 2.324 . S
Eu292 O312 2.326 . S
Eu292 O314 2.500 . S
Eu292 O315 2.473 . S
C293 O290 1.255 . S
C293 O294 1.247 . S
O294 C293 1.247 . S
C295 O307 1.242 . S
C295 O308 1.258 . S
O296 Eu292 2.292 . S
O296 C298 1.255 . S
C297 Eu292 2.852 . S
C297 C301 1.503 . S
C297 O314 1.273 . S
C297 O315 1.257 . S
C298 O296 1.255 . S
C298 O299 1.247 . S
O299 C298 1.247 . S
C300 O312 1.242 . S
C300 O313 1.258 . S
C301 C297 1.503 . S
C301 C302 1.379 . S
C301 C306 1.392 . S
C302 C301 1.379 . S
C302 C303 1.404 . S
C302 H316 0.929 . S
C303 C302 1.404 . S
C303 C304 1.389 . S
C304 C303 1.389 . S
C304 C305 1.399 . S
C304 H317 0.931 1_554 S
C305 C304 1.399 . S
C305 C306 1.390 . S
C306 C301 1.392 . S
C306 C305 1.390 . S
C306 H318 0.929 . S
O307 Tb291 2.326 . S
O307 C295 1.242 . S
O308 Eu292 2.324 . S
O308 C295 1.258 . S
O309 Tb291 2.500 . S
O309 C311 1.273 . S
O310 Tb291 2.473 . S
O310 C311 1.257 . S
C311 O309 1.273 . S
C311 O310 1.257 . S
O312 Eu292 2.326 . S
O312 C300 1.242 . S
O313 Tb291 2.324 . S
O313 C300 1.258 . S
O314 Eu292 2.500 . S
O314 C297 1.273 . S
O315 Eu292 2.473 . S
O315 C297 1.257 . S
H316 C302 0.929 . S
H317 C304 0.931 1_556 S
H318 C306 0.929 . S
O319 Tb320 2.292 . S
O319 C322 1.255 . S
Tb320 O319 2.292 . S
Tb320 O336 2.326 . S
Tb320 O338 2.500 . S
Tb320 O339 2.473 . S
Tb320 O342 2.324 1_565 S
Eu321 O325 2.292 . S
Eu321 C326 2.852 . S
Eu321 O337 2.324 . S
Eu321 O341 2.326 . S
Eu321 O343 2.500 . S
Eu321 O344 2.473 . S
C322 O319 1.255 . S
C322 O323 1.247 . S
O323 C322 1.247 . S
C324 O336 1.242 . S
C324 O337 1.258 . S
O325 Eu321 2.292 . S
O325 C327 1.255 . S
C326 Eu321 2.852 . S
C326 C330 1.503 . S
C326 O343 1.273 . S
C326 O344 1.257 . S
C327 O325 1.255 . S
C327 O328 1.247 . S
O328 C327 1.247 . S
C329 O341 1.242 1_545 S
C329 O342 1.258 . S
C330 C326 1.503 . S
C330 C331 1.379 . S
C330 C335 1.392 . S
C331 C330 1.379 . S
C331 C332 1.404 . S
C331 H345 0.929 . S
C332 C331 1.404 . S
C332 C333 1.389 . S
C333 C332 1.389 . S
C333 C334 1.399 . S
C333 H346 0.931 . S
C334 C333 1.399 . S
C334 C335 1.390 . S
C335 C330 1.392 . S
C335 C334 1.390 . S
C335 H347 0.929 . S
O336 Tb320 2.326 . S
O336 C324 1.242 . S
O337 Eu321 2.324 . S
O337 C324 1.258 . S
O338 Tb320 2.500 . S
O338 C340 1.273 . S
O339 Tb320 2.473 . S
O339 C340 1.257 . S
C340 O338 1.273 . S
C340 O339 1.257 . S
O341 Eu321 2.326 . S
O341 C329 1.242 1_565 S
O342 Tb320 2.324 1_545 S
O342 C329 1.258 . S
O343 Eu321 2.500 . S
O343 C326 1.273 . S
O344 Eu321 2.473 . S
O344 C326 1.257 . S
H345 C331 0.929 . S
H346 C333 0.931 . S
H347 C335 0.929 . S
O348 Tb349 2.292 . S
O348 C351 1.255 . S
Tb349 O348 2.292 . S
Tb349 O365 2.326 . S
Tb349 O367 2.500 . S
Tb349 O368 2.473 . S
Tb349 O371 2.324 . S
Eu350 O354 2.292 . S
Eu350 C355 2.852 . S
Eu350 O366 2.324 . S
Eu350 O370 2.326 . S
Eu350 O372 2.500 . S
Eu350 O373 2.473 . S
C351 O348 1.255 . S
C351 O352 1.247 . S
O352 C351 1.247 . S
C353 O365 1.242 . S
C353 O366 1.258 . S
O354 Eu350 2.292 . S
O354 C356 1.255 . S
C355 Eu350 2.852 . S
C355 C359 1.503 . S
C355 O372 1.273 . S
C355 O373 1.257 . S
C356 O354 1.255 . S
C356 O357 1.247 . S
O357 C356 1.247 . S
C358 O370 1.242 . S
C358 O371 1.258 . S
C359 C355 1.503 . S
C359 C360 1.379 . S
C359 C364 1.392 . S
C360 C359 1.379 . S
C360 C361 1.404 . S
C360 H374 0.929 . S
C361 C360 1.404 . S
C361 C362 1.389 . S
C362 C361 1.389 . S
C362 C363 1.399 . S
C362 H375 0.931 . S
C363 C362 1.399 . S
C363 C364 1.390 . S
C364 C359 1.392 . S
C364 C363 1.390 . S
C364 H376 0.929 . S
O365 Tb349 2.326 . S
O365 C353 1.242 . S
O366 Eu350 2.324 . S
O366 C353 1.258 . S
O367 Tb349 2.500 . S
O367 C369 1.273 . S
O368 Tb349 2.473 . S
O368 C369 1.257 . S
C369 O367 1.273 . S
C369 O368 1.257 . S
O370 Eu350 2.326 . S
O370 C358 1.242 . S
O371 Tb349 2.324 . S
O371 C358 1.258 . S
O372 Eu350 2.500 . S
O372 C355 1.273 . S
O373 Eu350 2.473 . S
O373 C355 1.257 . S
H374 C360 0.929 . S
H375 C362 0.931 . S
H376 C364 0.929 . S
O377 Tb378 2.292 . S
O377 C380 1.256 . S
Tb378 O377 2.292 . S
Tb378 O394 2.326 . S
Tb378 O396 2.500 1_655 S
Tb378 O397 2.473 . S
Tb378 O400 2.324 1_565 S
Eu379 O383 2.292 . S
Eu379 C384 2.852 . S
Eu379 O395 2.324 . S
Eu379 O399 2.326 . S
Eu379 O401 2.500 . S
Eu379 O402 2.473 . S
C380 O377 1.256 . S
C380 O381 1.266 . S
O381 C380 1.266 . S
C382 O394 1.242 . S
C382 O395 1.258 . S
O383 Eu379 2.292 . S
O383 C385 1.255 . S
C384 Eu379 2.852 . S
C384 C388 1.503 . S
C384 O401 1.273 . S
C384 O402 1.257 . S
C385 O383 1.255 . S
C385 O386 1.247 . S
O386 C385 1.247 . S
C387 O399 1.242 1_545 S
C387 O400 1.258 . S
C388 C384 1.503 . S
C388 C389 1.379 . S
C388 C393 1.392 . S
C389 C388 1.379 . S
C389 C390 1.404 . S
C389 H403 0.929 . S
C390 C389 1.404 . S
C390 C391 1.389 . S
C391 C390 1.389 . S
C391 C392 1.399 . S
C391 H404 0.931 . S
C392 C391 1.399 . S
C392 C393 1.390 . S
C393 C388 1.392 . S
C393 C392 1.390 . S
C393 H405 0.929 . S
O394 Tb378 2.326 . S
O394 C382 1.242 . S
O395 Eu379 2.324 . S
O395 C382 1.258 . S
O396 Tb378 2.500 1_455 S
O396 C398 1.273 1_455 S
O397 Tb378 2.473 . S
O397 C398 1.257 . S
C398 O396 1.273 1_655 S
C398 O397 1.257 . S
O399 Eu379 2.326 . S
O399 C387 1.242 1_565 S
O400 Tb378 2.324 1_545 S
O400 C387 1.258 . S
O401 Eu379 2.500 . S
O401 C384 1.273 . S
O402 Eu379 2.473 . S
O402 C384 1.257 . S
H403 C389 0.929 . S
H404 C391 0.931 . S
H405 C393 0.929 . S
O406 Tb407 2.292 . S
O406 C409 1.255 . S
Tb407 O406 2.292 . S
Tb407 O423 2.326 . S
Tb407 O425 2.500 . S
Tb407 O426 2.473 . S
Tb407 O429 2.324 . S
Eu408 O412 2.292 . S
Eu408 C413 2.852 . S
Eu408 O424 2.324 . S
Eu408 O428 2.326 . S
Eu408 O430 2.500 . S
Eu408 O431 2.473 . S
C409 O406 1.255 . S
C409 O410 1.247 . S
O410 C409 1.247 . S
C411 O423 1.242 . S
C411 O424 1.258 . S
O412 Eu408 2.292 . S
O412 C414 1.255 . S
C413 Eu408 2.852 . S
C413 C417 1.503 . S
C413 O430 1.273 . S
C413 O431 1.257 . S
C414 O412 1.255 . S
C414 O415 1.247 . S
O415 C414 1.247 . S
C416 O428 1.242 . S
C416 O429 1.258 . S
C417 C413 1.503 . S
C417 C418 1.379 . S
C417 C422 1.392 . S
C418 C417 1.379 . S
C418 C419 1.404 . S
C418 H432 0.929 . S
C419 C418 1.404 . S
C419 C420 1.389 . S
C420 C419 1.389 . S
C420 C421 1.399 . S
C420 H433 0.931 1_556 S
C421 C420 1.399 . S
C421 C422 1.390 . S
C422 C417 1.392 . S
C422 C421 1.390 . S
C422 H434 0.929 . S
O423 Tb407 2.326 . S
O423 C411 1.242 . S
O424 Eu408 2.324 . S
O424 C411 1.258 . S
O425 Tb407 2.500 . S
O425 C427 1.273 . S
O426 Tb407 2.473 . S
O426 C427 1.257 . S
C427 O425 1.273 . S
C427 O426 1.257 . S
O428 Eu408 2.326 . S
O428 C416 1.242 . S
O429 Tb407 2.324 . S
O429 C416 1.258 . S
O430 Eu408 2.500 . S
O430 C413 1.273 . S
O431 Eu408 2.473 . S
O431 C413 1.257 . S
H432 C418 0.929 . S
H433 C420 0.931 1_554 S
H434 C422 0.929 . S
O435 Tb436 2.292 . S
O435 C438 1.255 . S
Tb436 O435 2.292 . S
Tb436 O452 2.326 . S
Tb436 O454 2.500 . S
Tb436 O455 2.473 . S
Tb436 O458 2.324 1_545 S
Eu437 O441 2.292 . S
Eu437 C442 2.852 . S
Eu437 O453 2.324 . S
Eu437 O457 2.326 . S
Eu437 O459 2.500 . S
Eu437 O460 2.473 . S
C438 O435 1.255 . S
C438 O439 1.247 . S
O439 C438 1.247 . S
C440 O452 1.242 . S
C440 O453 1.258 . S
O441 Eu437 2.292 . S
O441 C443 1.255 . S
C442 Eu437 2.852 . S
C442 C446 1.503 . S
C442 O459 1.273 . S
C442 O460 1.257 . S
C443 O441 1.255 . S
C443 O444 1.247 . S
O444 C443 1.247 . S
C445 O457 1.242 1_565 S
C445 O458 1.258 . S
C446 C442 1.503 . S
C446 C447 1.379 . S
C446 C451 1.392 . S
C447 C446 1.379 . S
C447 C448 1.404 . S
C447 H461 0.929 . S
C448 C447 1.404 . S
C448 C449 1.389 . S
C449 C448 1.389 . S
C449 C450 1.399 . S
C449 H462 0.931 . S
C450 C449 1.399 . S
C450 C451 1.390 . S
C451 C446 1.392 . S
C451 C450 1.390 . S
C451 H463 0.929 . S
O452 Tb436 2.326 . S
O452 C440 1.242 . S
O453 Eu437 2.324 . S
O453 C440 1.258 . S
O454 Tb436 2.500 . S
O454 C456 1.273 . S
O455 Tb436 2.473 . S
O455 C456 1.257 . S
C456 O454 1.273 . S
C456 O455 1.257 . S
O457 Eu437 2.326 . S
O457 C445 1.242 1_545 S
O458 Tb436 2.324 1_565 S
O458 C445 1.258 . S
O459 Eu437 2.500 . S
O459 C442 1.273 . S
O460 Eu437 2.473 . S
O460 C442 1.257 . S
H461 C447 0.929 . S
H462 C449 0.931 . S
H463 C451 0.929 . S
H464 C470 0.930 . S
H465 C474 0.930 . S
H466 C479 0.929 . S
H467 C477 0.929 . S
H468 C472 0.929 . S
H469 C478 0.929 . S
C470 H464 0.930 . S
C470 C471 1.367 . S
C470 C478 1.378 . S
C471 C470 1.367 . S
C471 C479 1.433 . S
C472 H468 0.929 . S
C472 C474 1.378 . S
C472 C476 1.350 . S
C473 C476 1.463 . S
C473 C478 1.350 . S
C473 N481 1.427 . S
C474 H465 0.930 . S
C474 C472 1.378 . S
C474 C475 1.367 . S
C475 C474 1.367 . S
C475 C477 1.433 . S
C476 C472 1.350 . S
C476 C473 1.463 . S
C476 N480 1.427 . S
C477 H467 0.929 . S
C477 C475 1.433 . S
C477 N480 1.384 . S
C478 H469 0.929 . S
C478 C470 1.378 . S
C478 C473 1.350 . S
C479 H466 0.929 . S
C479 C471 1.433 . S
C479 N481 1.384 . S
N480 C476 1.427 . S
N480 C477 1.384 . S
N481 C473 1.427 . S
N481 C479 1.384 . S
H482 C488 0.930 . S
H483 C492 0.930 . S
H484 C497 0.929 . S
H485 C495 0.929 . S
H486 C490 0.929 . S
H487 C496 0.929 . S
C488 H482 0.930 . S
C488 C489 1.367 . S
C488 C496 1.378 . S
C489 C488 1.367 . S
C489 C497 1.433 . S
C490 H486 0.929 . S
C490 C492 1.378 . S
C490 C494 1.350 . S
C491 C494 1.463 . S
C491 C496 1.350 . S
C491 N499 1.427 . S
C492 H483 0.930 . S
C492 C490 1.378 . S
C492 C493 1.367 . S
C493 C492 1.367 . S
C493 C495 1.433 . S
C494 C490 1.350 . S
C494 C491 1.463 . S
C494 N498 1.427 . S
C495 H485 0.929 . S
C495 C493 1.433 . S
C495 N498 1.384 . S
C496 H487 0.929 . S
C496 C488 1.378 . S
C496 C491 1.350 . S
C497 H484 0.929 . S
C497 C489 1.433 . S
C497 N499 1.384 . S
N498 C494 1.427 . S
N498 C495 1.384 . S
N499 C491 1.427 . S
N499 C497 1.384 . S
H500 C506 0.930 . S
H501 C510 0.930 . S
H502 C515 0.929 . S
H503 C513 0.929 . S
H504 C508 0.929 . S
H505 C514 0.929 . S
C506 H500 0.930 . S
C506 C507 1.367 . S
C506 C514 1.378 . S
C507 C506 1.367 . S
C507 C515 1.433 . S
C508 H504 0.929 . S
C508 C510 1.378 . S
C508 C512 1.350 . S
C509 C512 1.463 . S
C509 C514 1.350 . S
C509 N517 1.427 . S
C510 H501 0.930 . S
C510 C508 1.378 . S
C510 C511 1.367 . S
C511 C510 1.367 . S
C511 C513 1.433 . S
C512 C508 1.350 . S
C512 C509 1.463 . S
C512 N516 1.427 . S
C513 H503 0.929 . S
C513 C511 1.433 . S
C513 N516 1.384 . S
C514 H505 0.929 . S
C514 C506 1.378 . S
C514 C509 1.350 . S
C515 H502 0.929 . S
C515 C507 1.433 . S
C515 N517 1.384 . S
N516 C512 1.427 . S
N516 C513 1.384 . S
N517 C509 1.427 . S
N517 C515 1.384 . S
H518 C524 0.930 . S
H519 C528 0.930 . S
H520 C533 0.929 . S
H521 C531 0.929 . S
H522 C526 0.929 . S
H523 C532 0.929 . S
C524 H518 0.930 . S
C524 C525 1.367 . S
C524 C532 1.378 . S
C525 C524 1.367 . S
C525 C533 1.433 . S
C526 H522 0.929 . S
C526 C528 1.378 . S
C526 C530 1.350 . S
C527 C530 1.463 . S
C527 C532 1.350 . S
C527 N535 1.427 . S
C528 H519 0.930 . S
C528 C526 1.378 . S
C528 C529 1.367 . S
C529 C528 1.367 . S
C529 C531 1.433 . S
C530 C526 1.350 . S
C530 C527 1.463 . S
C530 N534 1.427 . S
C531 H521 0.929 . S
C531 C529 1.433 . S
C531 N534 1.384 . S
C532 H523 0.929 . S
C532 C524 1.378 . S
C532 C527 1.350 . S
C533 H520 0.929 . S
C533 C525 1.433 . S
C533 N535 1.384 . S
N534 C530 1.427 . S
N534 C531 1.384 . S
N535 C527 1.427 . S
N535 C533 1.384 . S
H536 C542 0.930 . S
H537 C546 0.930 . S
H538 C551 0.929 . S
H539 C549 0.929 . S
H540 C544 0.929 . S
H541 C550 0.929 . S
C542 H536 0.930 . S
C542 C543 1.367 . S
C542 C550 1.378 . S
C543 C542 1.367 . S
C543 C551 1.433 . S
C544 H540 0.929 . S
C544 C546 1.378 . S
C544 C548 1.350 . S
C545 C548 1.463 . S
C545 C550 1.350 . S
C545 N553 1.427 . S
C546 H537 0.930 . S
C546 C544 1.378 . S
C546 C547 1.367 . S
C547 C546 1.367 . S
C547 C549 1.433 . S
C548 C544 1.350 . S
C548 C545 1.463 . S
C548 N552 1.427 . S
C549 H539 0.929 . S
C549 C547 1.433 . S
C549 N552 1.384 . S
C550 H541 0.929 . S
C550 C542 1.378 . S
C550 C545 1.350 . S
C551 H538 0.929 . S
C551 C543 1.433 . S
C551 N553 1.384 . S
N552 C548 1.427 . S
N552 C549 1.384 . S
N553 C545 1.427 . S
N553 C551 1.384 . S
H554 C560 0.930 . S
H555 C564 0.930 . S
H556 C569 0.929 . S
H557 C567 0.929 . S
H558 C562 0.929 . S
H559 C568 0.929 . S
C560 H554 0.930 . S
C560 C561 1.367 . S
C560 C568 1.378 . S
C561 C560 1.367 . S
C561 C569 1.433 . S
C562 H558 0.929 . S
C562 C564 1.378 . S
C562 C566 1.350 . S
C563 C566 1.463 . S
C563 C568 1.350 . S
C563 N571 1.427 . S
C564 H555 0.930 . S
C564 C562 1.378 . S
C564 C565 1.367 . S
C565 C564 1.367 . S
C565 C567 1.433 . S
C566 C562 1.350 . S
C566 C563 1.463 . S
C566 N570 1.427 . S
C567 H557 0.929 . S
C567 C565 1.433 . S
C567 N570 1.384 . S
C568 H559 0.929 . S
C568 C560 1.378 . S
C568 C563 1.350 . S
C569 H556 0.929 . S
C569 C561 1.433 . S
C569 N571 1.384 . S
N570 C566 1.427 . S
N570 C567 1.384 . S
N571 C563 1.427 . S
N571 C569 1.384 . S
H572 C578 0.930 . S
H573 C582 0.930 . S
H574 C587 0.929 . S
H575 C585 0.929 . S
H576 C580 0.929 . S
H577 C586 0.929 . S
C578 H572 0.930 . S
C578 C579 1.367 . S
C578 C586 1.378 . S
C579 C578 1.367 . S
C579 C587 1.433 . S
C580 H576 0.929 . S
C580 C582 1.378 . S
C580 C584 1.350 . S
C581 C584 1.463 . S
C581 C586 1.350 . S
C581 N589 1.427 . S
C582 H573 0.930 . S
C582 C580 1.378 . S
C582 C583 1.367 . S
C583 C582 1.367 . S
C583 C585 1.433 . S
C584 C580 1.350 . S
C584 C581 1.463 . S
C584 N588 1.427 . S
C585 H575 0.929 . S
C585 C583 1.433 . S
C585 N588 1.384 . S
C586 H577 0.929 . S
C586 C578 1.378 . S
C586 C581 1.350 . S
C587 H574 0.929 . S
C587 C579 1.433 . S
C587 N589 1.384 . S
N588 C584 1.427 . S
N588 C585 1.384 . S
N589 C581 1.427 . S
N589 C587 1.384 . S
H590 C596 0.930 . S
H591 C600 0.930 . S
H592 C605 0.929 . S
H593 C603 0.929 . S
H594 C598 0.929 . S
H595 C604 0.929 . S
C596 H590 0.930 . S
C596 C597 1.367 . S
C596 C604 1.378 . S
C597 C596 1.367 . S
C597 C605 1.433 . S
C598 H594 0.929 . S
C598 C600 1.378 . S
C598 C602 1.350 . S
C599 C602 1.463 . S
C599 C604 1.350 . S
C599 N607 1.427 . S
C600 H591 0.930 . S
C600 C598 1.378 . S
C600 C601 1.367 . S
C601 C600 1.367 . S
C601 C603 1.433 . S
C602 C598 1.350 . S
C602 C599 1.463 . S
C602 N606 1.427 . S
C603 H593 0.929 . S
C603 C601 1.433 . S
C603 N606 1.384 . S
C604 H595 0.929 . S
C604 C596 1.378 . S
C604 C599 1.350 . S
C605 H592 0.929 . S
C605 C597 1.433 . S
C605 N607 1.384 . S
N606 C602 1.427 . S
N606 C603 1.384 . S
N607 C599 1.427 . S
N607 C605 1.384 . S
H608 C614 0.930 . S
H609 C618 0.930 . S
H610 C623 0.929 . S
H611 C621 0.929 . S
H612 C616 0.929 . S
H613 C622 0.929 . S
C614 H608 0.930 . S
C614 C615 1.367 . S
C614 C622 1.378 . S
C615 C614 1.367 . S
C615 C623 1.433 . S
C616 H612 0.929 . S
C616 C618 1.378 . S
C616 C620 1.350 . S
C617 C620 1.463 . S
C617 C622 1.350 . S
C617 N625 1.427 . S
C618 H609 0.930 . S
C618 C616 1.378 . S
C618 C619 1.367 . S
C619 C618 1.367 . S
C619 C621 1.433 . S
C620 C616 1.350 . S
C620 C617 1.463 . S
C620 N624 1.427 . S
C621 H611 0.929 . S
C621 C619 1.433 . S
C621 N624 1.384 . S
C622 H613 0.929 . S
C622 C614 1.378 . S
C622 C617 1.350 . S
C623 H610 0.929 . S
C623 C615 1.433 . S
C623 N625 1.384 . S
N624 C620 1.427 . S
N624 C621 1.384 . S
N625 C617 1.427 . S
N625 C623 1.384 . S
H626 C632 0.930 . S
H627 C636 0.930 . S
H628 C641 0.929 . S
H629 C639 0.929 . S
H630 C634 0.929 . S
H631 C640 0.929 . S
C632 H626 0.930 . S
C632 C633 1.367 . S
C632 C640 1.378 . S
C633 C632 1.367 . S
C633 C641 1.433 1_545 S
C634 H630 0.929 . S
C634 C636 1.378 . S
C634 C638 1.350 . S
C635 C638 1.463 . S
C635 C640 1.350 1_565 S
C635 N643 1.427 . S
C636 H627 0.930 . S
C636 C634 1.378 . S
C636 C637 1.367 . S
C637 C636 1.367 . S
C637 C639 1.433 . S
C638 C634 1.350 . S
C638 C635 1.463 . S
C638 N642 1.427 . S
C639 H629 0.929 . S
C639 C637 1.433 . S
C639 N642 1.384 . S
C640 H631 0.929 . S
C640 C632 1.378 . S
C640 C635 1.350 1_545 S
C641 H628 0.929 . S
C641 C633 1.433 1_565 S
C641 N643 1.384 . S
N642 C638 1.427 . S
N642 C639 1.384 . S
N643 C635 1.427 . S
N643 C641 1.384 . S
H644 C650 0.930 . S
H645 C654 0.930 . S
H646 C659 0.929 . S
H647 C657 0.929 . S
H648 C652 0.929 . S
H649 C658 0.929 . S
C650 H644 0.930 . S
C650 C651 1.367 . S
C650 C658 1.378 . S
C651 C650 1.367 . S
C651 C659 1.433 . S
C652 H648 0.929 . S
C652 C654 1.378 . S
C652 C656 1.350 . S
C653 C656 1.463 . S
C653 C658 1.350 . S
C653 N661 1.427 . S
C654 H645 0.930 . S
C654 C652 1.378 . S
C654 C655 1.367 . S
C655 C654 1.367 . S
C655 C657 1.433 . S
C656 C652 1.350 . S
C656 C653 1.463 . S
C656 N660 1.427 . S
C657 H647 0.929 . S
C657 C655 1.433 . S
C657 N660 1.384 . S
C658 H649 0.929 . S
C658 C650 1.378 . S
C658 C653 1.350 . S
C659 H646 0.929 . S
C659 C651 1.433 . S
C659 N661 1.384 . S
N660 C656 1.427 . S
N660 C657 1.384 . S
N661 C653 1.427 . S
N661 C659 1.384 . S
H662 C668 0.930 . S
H663 C672 0.930 . S
H664 C677 0.929 . S
H665 C675 0.929 . S
H666 C670 0.929 . S
H667 C676 0.929 . S
C668 H662 0.930 . S
C668 C669 1.367 . S
C668 C676 1.378 . S
C669 C668 1.367 . S
C669 C677 1.433 . S
C670 H666 0.929 . S
C670 C672 1.378 . S
C670 C674 1.350 1_565 S
C671 C674 1.463 . S
C671 C676 1.350 . S
C671 N679 1.427 . S
C672 H663 0.930 . S
C672 C670 1.378 . S
C672 C673 1.367 . S
C673 C672 1.367 . S
C673 C675 1.433 1_565 S
C674 C670 1.350 1_545 S
C674 C671 1.463 . S
C674 N678 1.427 . S
C675 H665 0.929 . S
C675 C673 1.433 1_545 S
C675 N678 1.384 . S
C676 H667 0.929 . S
C676 C668 1.378 . S
C676 C671 1.350 . S
C677 H664 0.929 . S
C677 C669 1.433 . S
C677 N679 1.384 . S
N678 C674 1.427 . S
N678 C675 1.384 . S
N679 C671 1.427 . S
N679 C677 1.384 . S
H680 C686 0.930 . S
H681 C690 0.930 . S
H682 C695 0.929 . S
H683 C693 0.929 . S
H684 C688 0.929 . S
H685 C694 0.929 . S
C686 H680 0.930 . S
C686 C687 1.367 . S
C686 C694 1.378 . S
C687 C686 1.367 . S
C687 C695 1.433 . S
C688 H684 0.929 . S
C688 C690 1.378 . S
C688 C692 1.350 . S
C689 C692 1.463 . S
C689 C694 1.350 . S
C689 N697 1.427 . S
C690 H681 0.930 . S
C690 C688 1.378 . S
C690 C691 1.367 . S
C691 C690 1.367 . S
C691 C693 1.433 . S
C692 C688 1.350 . S
C692 C689 1.463 . S
C692 N696 1.427 . S
C693 H683 0.929 . S
C693 C691 1.433 . S
C693 N696 1.384 . S
C694 H685 0.929 . S
C694 C686 1.378 . S
C694 C689 1.350 . S
C695 H682 0.929 . S
C695 C687 1.433 . S
C695 N697 1.384 . S
N696 C692 1.427 . S
N696 C693 1.384 . S
N697 C689 1.427 . S
N697 C695 1.384 . S
H698 C704 0.930 . S
H699 C708 0.930 . S
H700 C713 0.929 . S
H701 C711 0.929 . S
H702 C706 0.929 . S
H703 C712 0.929 . S
C704 H698 0.930 . S
C704 C705 1.367 . S
C704 C712 1.378 . S
C705 C704 1.367 . S
C705 C713 1.433 1_565 S
C706 H702 0.929 . S
C706 C708 1.378 . S
C706 C710 1.350 . S
C707 C710 1.463 . S
C707 C712 1.350 1_545 S
C707 N715 1.427 . S
C708 H699 0.930 . S
C708 C706 1.378 . S
C708 C709 1.367 . S
C709 C708 1.367 . S
C709 C711 1.433 . S
C710 C706 1.350 . S
C710 C707 1.463 . S
C710 N714 1.427 . S
C711 H701 0.929 . S
C711 C709 1.433 . S
C711 N714 1.384 . S
C712 H703 0.929 . S
C712 C704 1.378 . S
C712 C707 1.350 1_565 S
C713 H700 0.929 . S
C713 C705 1.433 1_545 S
C713 N715 1.384 . S
N714 C710 1.427 . S
N714 C711 1.384 . S
N715 C707 1.427 . S
N715 C713 1.384 . S
H716 C722 0.930 . S
H717 C726 0.930 . S
H718 C731 0.929 . S
H719 C729 0.929 . S
H720 C724 0.929 . S
H721 C730 0.929 . S
C722 H716 0.930 . S
C722 C723 1.367 . S
C722 C730 1.378 . S
C723 C722 1.367 . S
C723 C731 1.433 . S
C724 H720 0.929 . S
C724 C726 1.378 . S
C724 C728 1.350 . S
C725 C728 1.463 . S
C725 C730 1.350 . S
C725 N733 1.427 . S
C726 H717 0.930 . S
C726 C724 1.378 . S
C726 C727 1.367 . S
C727 C726 1.367 . S
C727 C729 1.433 . S
C728 C724 1.350 . S
C728 C725 1.463 . S
C728 N732 1.427 . S
C729 H719 0.929 . S
C729 C727 1.433 . S
C729 N732 1.384 . S
C730 H721 0.929 . S
C730 C722 1.378 . S
C730 C725 1.350 . S
C731 H718 0.929 . S
C731 C723 1.433 . S
C731 N733 1.384 . S
N732 C728 1.427 . S
N732 C729 1.384 . S
N733 C725 1.427 . S
N733 C731 1.384 . S
H734 C740 0.930 . S
H735 C744 0.930 . S
H736 C749 0.929 . S
H737 C747 0.929 . S
H738 C742 0.929 . S
H739 C748 0.929 . S
C740 H734 0.930 . S
C740 C741 1.367 . S
C740 C748 1.378 . S
C741 C740 1.367 . S
C741 C749 1.433 . S
C742 H738 0.929 . S
C742 C744 1.378 . S
C742 C746 1.350 . S
C743 C746 1.463 . S
C743 C748 1.350 . S
C743 N751 1.427 . S
C744 H735 0.930 . S
C744 C742 1.378 . S
C744 C745 1.367 1_565 S
C745 C744 1.367 1_545 S
C745 C747 1.433 . S
C746 C742 1.350 . S
C746 C743 1.463 . S
C746 N750 1.427 1_565 S
C747 H737 0.929 . S
C747 C745 1.433 . S
C747 N750 1.384 . S
C748 H739 0.929 . S
C748 C740 1.378 . S
C748 C743 1.350 . S
C749 H736 0.929 . S
C749 C741 1.433 . S
C749 N751 1.384 . S
N750 C746 1.427 1_545 S
N750 C747 1.384 . S
N751 C743 1.427 . S
N751 C749 1.384 . S
H752 C758 0.930 . S
H753 C762 0.930 . S
H754 C767 0.929 . S
H755 C765 0.929 1_554 S
H756 C760 0.929 . S
H757 C766 0.929 . S
C758 H752 0.930 . S
C758 C759 1.367 . S
C758 C766 1.378 . S
C759 C758 1.367 . S
C759 C767 1.433 1_554 S
C760 H756 0.929 . S
C760 C762 1.378 . S
C760 C764 1.350 . S
C761 C764 1.463 1_554 S
C761 C766 1.350 . S
C761 N769 1.427 1_554 S
C762 H753 0.930 . S
C762 C760 1.378 . S
C762 C763 1.367 . S
C763 C762 1.367 . S
C763 C765 1.433 . S
C764 C760 1.350 . S
C764 C761 1.463 1_556 S
C764 N768 1.427 1_556 S
C765 H755 0.929 1_556 S
C765 C763 1.433 . S
C765 N768 1.384 1_556 S
C766 H757 0.929 . S
C766 C758 1.378 . S
C766 C761 1.350 . S
C767 H754 0.929 . S
C767 C759 1.433 1_556 S
C767 N769 1.384 . S
N768 C764 1.427 1_554 S
N768 C765 1.384 1_554 S
N769 C761 1.427 1_556 S
N769 C767 1.384 . S
H770 C776 0.930 . S
H771 C780 0.930 . S
H772 C785 0.929 . S
H773 C783 0.929 . S
H774 C778 0.929 . S
H775 C784 0.929 . S
C776 H770 0.930 . S
C776 C777 1.367 . S
C776 C784 1.378 . S
C777 C776 1.367 . S
C777 C785 1.433 . S
C778 H774 0.929 . S
C778 C780 1.378 . S
C778 C782 1.350 . S
C779 C782 1.463 . S
C779 C784 1.350 . S
C779 N787 1.427 . S
C780 H771 0.930 . S
C780 C778 1.378 . S
C780 C781 1.367 . S
C781 C780 1.367 . S
C781 C783 1.433 . S
C782 C778 1.350 . S
C782 C779 1.463 . S
C782 N786 1.427 . S
C783 H773 0.929 . S
C783 C781 1.433 . S
C783 N786 1.384 . S
C784 H775 0.929 . S
C784 C776 1.378 . S
C784 C779 1.350 . S
C785 H772 0.929 . S
C785 C777 1.433 . S
C785 N787 1.384 . S
N786 C782 1.427 . S
N786 C783 1.384 . S
N787 C779 1.427 . S
N787 C785 1.384 . S
H788 C794 0.930 . S
H789 C798 0.930 . S
H790 C803 0.929 . S
H791 C801 0.929 . S
H792 C796 0.929 . S
H793 C802 0.929 . S
C794 H788 0.930 . S
C794 C795 1.367 . S
C794 C802 1.378 . S
C795 C794 1.367 . S
C795 C803 1.433 . S
C796 H792 0.929 . S
C796 C798 1.378 . S
C796 C800 1.350 . S
C797 C800 1.463 . S
C797 C802 1.350 . S
C797 N805 1.427 . S
C798 H789 0.930 . S
C798 C796 1.378 . S
C798 C799 1.367 . S
C799 C798 1.367 . S
C799 C801 1.433 . S
C800 C796 1.350 . S
C800 C797 1.463 . S
C800 N804 1.427 . S
C801 H791 0.929 . S
C801 C799 1.433 . S
C801 N804 1.384 . S
C802 H793 0.929 . S
C802 C794 1.378 . S
C802 C797 1.350 . S
C803 H790 0.929 . S
C803 C795 1.433 . S
C803 N805 1.384 . S
N804 C800 1.427 . S
N804 C801 1.384 . S
N805 C797 1.427 . S
N805 C803 1.384 . S
H806 C812 0.930 . S
H807 C816 0.930 . S
H808 C821 0.929 . S
H809 C819 0.929 . S
H810 C814 0.929 . S
H811 C820 0.929 . S
C812 H806 0.930 . S
C812 C813 1.367 . S
C812 C820 1.378 . S
C813 C812 1.367 . S
C813 C821 1.433 . S
C814 H810 0.929 . S
C814 C816 1.378 . S
C814 C818 1.350 . S
C815 C818 1.463 . S
C815 C820 1.350 . S
C815 N823 1.427 . S
C816 H807 0.930 . S
C816 C814 1.378 . S
C816 C817 1.367 . S
C817 C816 1.367 . S
C817 C819 1.433 . S
C818 C814 1.350 . S
C818 C815 1.463 . S
C818 N822 1.427 . S
C819 H809 0.929 . S
C819 C817 1.433 . S
C819 N822 1.384 . S
C820 H811 0.929 . S
C820 C812 1.378 . S
C820 C815 1.350 . S
C821 H808 0.929 . S
C821 C813 1.433 . S
C821 N823 1.384 . S
N822 C818 1.427 . S
N822 C819 1.384 . S
N823 C815 1.427 . S
N823 C821 1.384 . S
H824 C830 0.930 . S
H825 C834 0.930 . S
H826 C839 0.929 . S
H827 C837 0.929 . S
H828 C832 0.929 . S
H829 C838 0.929 1_556 S
C830 H824 0.930 . S
C830 C831 1.367 . S
C830 C838 1.378 . S
C831 C830 1.367 . S
C831 C839 1.433 . S
C832 H828 0.929 . S
C832 C834 1.378 1_554 S
C832 C836 1.350 1_554 S
C833 C836 1.463 1_554 S
C833 C838 1.350 . S
C833 N841 1.427 . S
C834 H825 0.930 . S
C834 C832 1.378 1_556 S
C834 C835 1.367 . S
C835 C834 1.367 . S
C835 C837 1.433 . S
C836 C832 1.350 1_556 S
C836 C833 1.463 1_556 S
C836 N840 1.427 . S
C837 H827 0.929 . S
C837 C835 1.433 . S
C837 N840 1.384 . S
C838 H829 0.929 1_554 S
C838 C830 1.378 . S
C838 C833 1.350 . S
C839 H826 0.929 . S
C839 C831 1.433 . S
C839 N841 1.384 . S
N840 C836 1.427 . S
N840 C837 1.384 . S
N841 C833 1.427 . S
N841 C839 1.384 . S
H842 C848 0.930 . S
H843 C852 0.930 . S
H844 C857 0.929 . S
H845 C855 0.929 . S
H846 C850 0.929 . S
H847 C856 0.929 . S
C848 H842 0.930 . S
C848 C849 1.367 . S
C848 C856 1.378 . S
C849 C848 1.367 . S
C849 C857 1.433 . S
C850 H846 0.929 . S
C850 C852 1.378 . S
C850 C854 1.350 . S
C851 C854 1.463 . S
C851 C856 1.350 . S
C851 N859 1.427 . S
C852 H843 0.930 . S
C852 C850 1.378 . S
C852 C853 1.367 . S
C853 C852 1.367 . S
C853 C855 1.433 . S
C854 C850 1.350 . S
C854 C851 1.463 . S
C854 N858 1.427 . S
C855 H845 0.929 . S
C855 C853 1.433 . S
C855 N858 1.384 . S
C856 H847 0.929 . S
C856 C848 1.378 . S
C856 C851 1.350 . S
C857 H844 0.929 . S
C857 C849 1.433 . S
C857 N859 1.384 . S
N858 C854 1.427 . S
N858 C855 1.384 . S
N859 C851 1.427 . S
N859 C857 1.384 . S
H860 C866 0.930 . S
H861 C870 0.930 . S
H862 C875 0.929 . S
H863 C873 0.929 . S
H864 C868 0.929 . S
H865 C874 0.929 . S
C866 H860 0.930 . S
C866 C867 1.367 . S
C866 C874 1.378 . S
C867 C866 1.367 . S
C867 C875 1.433 . S
C868 H864 0.929 . S
C868 C870 1.378 . S
C868 C872 1.350 . S
C869 C872 1.463 . S
C869 C874 1.350 . S
C869 N877 1.427 . S
C870 H861 0.930 . S
C870 C868 1.378 . S
C870 C871 1.367 . S
C871 C870 1.367 . S
C871 C873 1.433 . S
C872 C868 1.350 . S
C872 C869 1.463 . S
C872 N876 1.427 . S
C873 H863 0.929 . S
C873 C871 1.433 . S
C873 N876 1.384 . S
C874 H865 0.929 . S
C874 C866 1.378 . S
C874 C869 1.350 . S
C875 H862 0.929 . S
C875 C867 1.433 . S
C875 N877 1.384 . S
N876 C872 1.427 . S
N876 C873 1.384 . S
N877 C869 1.427 . S
N877 C875 1.384 . S
H878 C884 0.930 . S
H879 C888 0.930 . S
H880 C893 0.929 . S
H881 C891 0.929 . S
H882 C886 0.929 . S
H883 C892 0.929 . S
C884 H878 0.930 . S
C884 C885 1.367 . S
C884 C892 1.378 . S
C885 C884 1.367 . S
C885 C893 1.433 . S
C886 H882 0.929 . S
C886 C888 1.378 . S
C886 C890 1.350 . S
C887 C890 1.463 . S
C887 C892 1.350 . S
C887 N895 1.427 . S
C888 H879 0.930 . S
C888 C886 1.378 . S
C888 C889 1.367 . S
C889 C888 1.367 . S
C889 C891 1.433 . S
C890 C886 1.350 . S
C890 C887 1.463 . S
C890 N894 1.427 . S
C891 H881 0.929 . S
C891 C889 1.433 . S
C891 N894 1.384 . S
C892 H883 0.929 . S
C892 C884 1.378 . S
C892 C887 1.350 . S
C893 H880 0.929 . S
C893 C885 1.433 . S
C893 N895 1.384 . S
N894 C890 1.427 . S
N894 C891 1.384 . S
N895 C887 1.427 . S
N895 C893 1.384 . S
H896 C902 0.930 . S
H897 C906 0.930 . S
H898 C911 0.929 . S
H899 C909 0.929 . S
H900 C904 0.929 . S
H901 C910 0.929 . S
C902 H896 0.930 . S
C902 C903 1.367 . S
C902 C910 1.378 . S
C903 C902 1.367 . S
C903 C911 1.433 . S
C904 H900 0.929 . S
C904 C906 1.378 . S
C904 C908 1.350 . S
C905 C908 1.463 . S
C905 C910 1.350 . S
C905 N913 1.427 . S
C906 H897 0.930 . S
C906 C904 1.378 . S
C906 C907 1.367 . S
C907 C906 1.367 . S
C907 C909 1.433 . S
C908 C904 1.350 . S
C908 C905 1.463 . S
C908 N912 1.427 . S
C909 H899 0.929 . S
C909 C907 1.433 . S
C909 N912 1.384 . S
C910 H901 0.929 . S
C910 C902 1.378 . S
C910 C905 1.350 . S
C911 H898 0.929 . S
C911 C903 1.433 . S
C911 N913 1.384 . S
N912 C908 1.427 . S
N912 C909 1.384 . S
N913 C905 1.427 . S
N913 C911 1.384 . S
H914 C920 0.930 . S
H915 C924 0.930 . S
H916 C929 0.929 . S
H917 C927 0.929 . S
H918 C922 0.929 . S
H919 C928 0.929 . S
C920 H914 0.930 . S
C920 C921 1.367 1_565 S
C920 C928 1.378 . S
C921 C920 1.367 1_545 S
C921 C929 1.433 . S
C922 H918 0.929 . S
C922 C924 1.378 . S
C922 C926 1.350 . S
C923 C926 1.463 . S
C923 C928 1.350 1_545 S
C923 N931 1.427 . S
C924 H915 0.930 . S
C924 C922 1.378 . S
C924 C925 1.367 . S
C925 C924 1.367 . S
C925 C927 1.433 1_545 S
C926 C922 1.350 . S
C926 C923 1.463 . S
C926 N930 1.427 1_545 S
C927 H917 0.929 . S
C927 C925 1.433 1_565 S
C927 N930 1.384 . S
C928 H919 0.929 . S
C928 C920 1.378 . S
C928 C923 1.350 1_565 S
C929 H916 0.929 . S
C929 C921 1.433 . S
C929 N931 1.384 . S
N930 C926 1.427 1_565 S
N930 C927 1.384 . S
N931 C923 1.427 . S
N931 C929 1.384 . S
H932 C938 0.930 . S
H933 C942 0.930 1_556 S
H934 C947 0.929 . S
H935 C945 0.929 . S
H936 C940 0.929 . S
H937 C946 0.966 . S
C938 H932 0.930 . S
C938 C939 1.367 . S
C938 C946 1.359 1_556 S
C939 C938 1.367 . S
C939 C947 1.433 . S
C940 H936 0.929 . S
C940 C942 1.378 1_556 S
C940 C944 1.350 1_556 S
C941 C944 1.463 1_556 S
C941 C946 1.333 1_556 S
C941 N949 1.427 . S
C942 H933 0.930 1_554 S
C942 C940 1.378 1_554 S
C942 C943 1.367 . S
C943 C942 1.367 . S
C943 C945 1.433 . S
C944 C940 1.350 1_554 S
C944 C941 1.463 1_554 S
C944 N948 1.427 . S
C945 H935 0.929 . S
C945 C943 1.433 . S
C945 N948 1.384 . S
C946 H937 0.966 . S
C946 C938 1.359 1_554 S
C946 C941 1.333 1_554 S
C947 H934 0.929 . S
C947 C939 1.433 . S
C947 N949 1.384 . S
N948 C944 1.427 . S
N948 C945 1.384 . S
N949 C941 1.427 . S
N949 C947 1.384 . S
H950 C956 0.930 . S
H951 C960 0.930 . S
H952 C965 0.929 . S
H953 C963 0.929 1_545 S
H954 C958 0.929 . S
H955 C964 0.929 . S
C956 H950 0.930 . S
C956 C957 1.367 . S
C956 C964 1.378 . S
C957 C956 1.367 . S
C957 C965 1.433 . S
C958 H954 0.929 . S
C958 C960 1.378 . S
C958 C962 1.350 . S
C959 C962 1.463 . S
C959 C964 1.350 . S
C959 N967 1.427 . S
C960 H951 0.930 . S
C960 C958 1.378 . S
C960 C961 1.367 . S
C961 C960 1.367 . S
C961 C963 1.433 . S
C962 C958 1.350 . S
C962 C959 1.463 . S
C962 N966 1.427 . S
C963 H953 0.929 1_565 S
C963 C961 1.433 . S
C963 N966 1.384 . S
C964 H955 0.929 . S
C964 C956 1.378 . S
C964 C959 1.350 . S
C965 H952 0.929 . S
C965 C957 1.433 . S
C965 N967 1.384 . S
N966 C962 1.427 . S
N966 C963 1.384 . S
N967 C959 1.427 . S
N967 C965 1.384 . S
H968 C974 0.930 . S
H969 C978 0.930 . S
H970 C983 0.929 . S
H971 C981 0.929 . S
H972 C976 0.929 . S
H973 C982 0.929 . S
C974 H968 0.930 . S
C974 C975 1.367 . S
C974 C982 1.378 . S
C975 C974 1.367 . S
C975 C983 1.433 . S
C976 H972 0.929 . S
C976 C978 1.378 . S
C976 C980 1.350 . S
C977 C980 1.463 . S
C977 C982 1.350 . S
C977 N985 1.427 . S
C978 H969 0.930 . S
C978 C976 1.378 . S
C978 C979 1.367 . S
C979 C978 1.367 . S
C979 C981 1.433 . S
C980 C976 1.350 . S
C980 C977 1.463 . S
C980 N984 1.427 . S
C981 H971 0.929 . S
C981 C979 1.433 . S
C981 N984 1.384 . S
C982 H973 0.929 . S
C982 C974 1.378 . S
C982 C977 1.350 . S
C983 H970 0.929 . S
C983 C975 1.433 . S
C983 N985 1.384 . S
N984 C980 1.427 . S
N984 C981 1.384 . S
N985 C977 1.427 . S
N985 C983 1.384 . S
H986 C992 0.930 . S
H987 C996 0.930 1_545 S
H988 C1001 0.929 . S
H989 C999 0.929 . S
H990 C994 0.929 1_545 S
H991 C1000 0.929 . S
C992 H986 0.930 . S
C992 C993 1.367 . S
C992 C1000 1.378 . S
C993 C992 1.367 . S
C993 C1001 1.433 1_565 S
C994 H990 0.929 1_565 S
C994 C996 1.378 . S
C994 C998 1.350 . S
C995 C998 1.463 . S
C995 C1000 1.350 . S
C995 N1003 1.441 . S
C996 H987 0.930 1_565 S
C996 C994 1.378 . S
C996 C997 1.367 . S
C997 C996 1.367 . S
C997 C999 1.433 . S
C998 C994 1.350 . S
C998 C995 1.463 . S
C998 N1002 1.427 . S
C999 H989 0.929 . S
C999 C997 1.433 . S
C999 N1002 1.384 . S
C1000 H991 0.929 . S
C1000 C992 1.378 . S
C1000 C995 1.350 . S
C1001 H988 0.929 . S
C1001 C993 1.433 1_545 S
C1001 N1003 1.382 1_545 S
N1002 C998 1.427 . S
N1002 C999 1.384 . S
N1003 C995 1.441 . S
N1003 C1001 1.382 1_565 S
H1004 C1010 0.930 . S
H1005 C1014 0.930 . S
H1006 C1019 0.929 . S
H1007 C1017 0.929 1_554 S
H1008 C1012 0.929 . S
H1009 C1018 0.929 . S
C1010 H1004 0.930 . S
C1010 C1011 1.367 . S
C1010 C1018 1.378 . S
C1011 C1010 1.367 . S
C1011 C1019 1.433 . S
C1012 H1008 0.929 . S
C1012 C1014 1.378 . S
C1012 C1016 1.350 . S
C1013 C1016 1.463 1_554 S
C1013 C1018 1.350 . S
C1013 N1021 1.409 1_554 S
C1014 H1005 0.930 . S
C1014 C1012 1.378 . S
C1014 C1015 1.367 . S
C1015 C1014 1.367 . S
C1015 C1017 1.433 . S
C1016 C1012 1.350 . S
C1016 C1013 1.463 1_556 S
C1016 N1020 1.427 1_556 S
C1017 H1007 0.929 1_556 S
C1017 C1015 1.433 . S
C1017 N1020 1.384 1_556 S
C1018 H1009 0.929 . S
C1018 C1010 1.378 . S
C1018 C1013 1.350 . S
C1019 H1006 0.929 . S
C1019 C1011 1.433 . S
C1019 N1021 1.364 1_554 S
N1020 C1016 1.427 1_554 S
N1020 C1017 1.384 1_554 S
N1021 C1013 1.409 1_556 S
N1021 C1019 1.364 1_556 S
H1022 C1028 0.930 . S
H1023 C1032 0.930 . S
H1024 C1037 0.929 . S
H1025 C1035 0.929 . S
H1026 C1030 0.929 . S
H1027 C1036 0.929 . S
C1028 H1022 0.930 . S
C1028 C1029 1.367 . S
C1028 C1036 1.378 . S
C1029 C1028 1.367 . S
C1029 C1037 1.433 . S
C1030 H1026 0.929 . S
C1030 C1032 1.378 . S
C1030 C1034 1.350 . S
C1031 C1034 1.463 . S
C1031 C1036 1.350 . S
C1031 N1039 1.427 . S
C1032 H1023 0.930 . S
C1032 C1030 1.378 . S
C1032 C1033 1.367 . S
C1033 C1032 1.367 . S
C1033 C1035 1.433 . S
C1034 C1030 1.350 . S
C1034 C1031 1.463 . S
C1034 N1038 1.427 . S
C1035 H1025 0.929 . S
C1035 C1033 1.433 . S
C1035 N1038 1.384 . S
C1036 H1027 0.929 . S
C1036 C1028 1.378 . S
C1036 C1031 1.350 . S
C1037 H1024 0.929 . S
C1037 C1029 1.433 . S
C1037 N1039 1.384 . S
N1038 C1034 1.427 . S
N1038 C1035 1.384 . S
N1039 C1031 1.427 . S
N1039 C1037 1.384 . S
H1040 C1046 0.930 . S
H1041 C1050 0.930 . S
H1042 C1055 0.929 . S
H1043 C1053 0.929 . S
H1044 C1048 0.929 . S
H1045 C1054 0.929 . S
C1046 H1040 0.930 . S
C1046 C1047 1.367 . S
C1046 C1054 1.378 . S
C1047 C1046 1.367 . S
C1047 C1055 1.433 . S
C1048 H1044 0.929 . S
C1048 C1050 1.378 . S
C1048 C1052 1.350 . S
C1049 C1052 1.463 . S
C1049 C1054 1.350 . S
C1049 N1057 1.427 . S
C1050 H1041 0.930 . S
C1050 C1048 1.378 . S
C1050 C1051 1.367 . S
C1051 C1050 1.367 . S
C1051 C1053 1.433 . S
C1052 C1048 1.350 . S
C1052 C1049 1.463 . S
C1052 N1056 1.427 . S
C1053 H1043 0.929 . S
C1053 C1051 1.433 . S
C1053 N1056 1.384 . S
C1054 H1045 0.929 . S
C1054 C1046 1.378 . S
C1054 C1049 1.350 . S
C1055 H1042 0.929 . S
C1055 C1047 1.433 . S
C1055 N1057 1.384 . S
N1056 C1052 1.427 . S
N1056 C1053 1.384 . S
N1057 C1049 1.427 . S
N1057 C1055 1.384 . S
H1058 C1064 0.930 . S
H1059 C1068 0.930 . S
H1060 C1073 0.929 . S
H1061 C1071 0.929 . S
H1062 C1066 0.929 . S
H1063 C1072 0.929 . S
C1064 H1058 0.930 . S
C1064 C1065 1.367 . S
C1064 C1072 1.378 . S
C1065 C1064 1.367 . S
C1065 C1073 1.433 . S
C1066 H1062 0.929 . S
C1066 C1068 1.378 . S
C1066 C1070 1.350 . S
C1067 C1070 1.463 . S
C1067 C1072 1.350 . S
C1067 N1075 1.427 . S
C1068 H1059 0.930 . S
C1068 C1066 1.378 . S
C1068 C1069 1.367 . S
C1069 C1068 1.367 . S
C1069 C1071 1.433 . S
C1070 C1066 1.350 . S
C1070 C1067 1.463 . S
C1070 N1074 1.427 . S
C1071 H1061 0.929 . S
C1071 C1069 1.433 . S
C1071 N1074 1.384 . S
C1072 H1063 0.929 . S
C1072 C1064 1.378 . S
C1072 C1067 1.350 . S
C1073 H1060 0.929 . S
C1073 C1065 1.433 . S
C1073 N1075 1.384 . S
N1074 C1070 1.427 . S
N1074 C1071 1.384 . S
N1075 C1067 1.427 . S
N1075 C1073 1.384 . S
H1076 C1082 0.930 . S
H1077 C1086 0.930 . S
H1078 C1091 0.929 . S
H1079 C1089 0.929 . S
H1080 C1084 0.929 . S
H1081 C1090 0.929 . S
C1082 H1076 0.930 . S
C1082 C1083 1.367 . S
C1082 C1090 1.378 . S
C1083 C1082 1.367 . S
C1083 C1091 1.433 . S
C1084 H1080 0.929 . S
C1084 C1086 1.378 . S
C1084 C1088 1.350 . S
C1085 C1088 1.463 . S
C1085 C1090 1.350 . S
C1085 N1093 1.427 . S
C1086 H1077 0.930 . S
C1086 C1084 1.378 . S
C1086 C1087 1.367 . S
C1087 C1086 1.367 . S
C1087 C1089 1.433 . S
C1088 C1084 1.350 . S
C1088 C1085 1.463 . S
C1088 N1092 1.427 . S
C1089 H1079 0.929 . S
C1089 C1087 1.433 . S
C1089 N1092 1.384 . S
C1090 H1081 0.929 . S
C1090 C1082 1.378 . S
C1090 C1085 1.350 . S
C1091 H1078 0.929 . S
C1091 C1083 1.433 . S
C1091 N1093 1.384 . S
N1092 C1088 1.427 . S
N1092 C1089 1.384 . S
N1093 C1085 1.427 . S
N1093 C1091 1.384 . S
H1094 C1100 0.930 . S
H1095 C1104 0.930 . S
H1096 C1109 0.929 . S
H1097 C1107 0.929 . S
H1098 C1102 0.929 . S
H1099 C1108 0.929 . S
C1100 H1094 0.930 . S
C1100 C1101 1.367 . S
C1100 C1108 1.378 . S
C1101 C1100 1.367 . S
C1101 C1109 1.433 . S
C1102 H1098 0.929 . S
C1102 C1104 1.378 . S
C1102 C1106 1.350 . S
C1103 C1106 1.463 . S
C1103 C1108 1.350 . S
C1103 N1111 1.427 . S
C1104 H1095 0.930 . S
C1104 C1102 1.378 . S
C1104 C1105 1.367 . S
C1105 C1104 1.367 . S
C1105 C1107 1.433 . S
C1106 C1102 1.350 . S
C1106 C1103 1.463 . S
C1106 N1110 1.427 . S
C1107 H1097 0.929 . S
C1107 C1105 1.433 . S
C1107 N1110 1.384 . S
C1108 H1099 0.929 . S
C1108 C1100 1.378 . S
C1108 C1103 1.350 . S
C1109 H1096 0.929 . S
C1109 C1101 1.433 . S
C1109 N1111 1.384 . S
N1110 C1106 1.427 . S
N1110 C1107 1.384 . S
N1111 C1103 1.427 . S
N1111 C1109 1.384 . S
H1112 C1118 0.930 . S
H1113 C1122 0.930 . S
H1114 C1127 0.929 . S
H1115 C1125 0.929 . S
H1116 C1120 0.929 . S
H1117 C1126 0.929 . S
C1118 H1112 0.930 . S
C1118 C1119 1.367 . S
C1118 C1126 1.378 . S
C1119 C1118 1.367 . S
C1119 C1127 1.433 . S
C1120 H1116 0.929 . S
C1120 C1122 1.378 . S
C1120 C1124 1.350 . S
C1121 C1124 1.463 . S
C1121 C1126 1.350 . S
C1121 N1129 1.427 . S
C1122 H1113 0.930 . S
C1122 C1120 1.378 . S
C1122 C1123 1.367 . S
C1123 C1122 1.367 . S
C1123 C1125 1.433 . S
C1124 C1120 1.350 . S
C1124 C1121 1.463 . S
C1124 N1128 1.427 . S
C1125 H1115 0.929 . S
C1125 C1123 1.433 . S
C1125 N1128 1.384 . S
C1126 H1117 0.929 . S
C1126 C1118 1.378 . S
C1126 C1121 1.350 . S
C1127 H1114 0.929 . S
C1127 C1119 1.433 . S
C1127 N1129 1.384 . S
N1128 C1124 1.427 . S
N1128 C1125 1.384 . S
N1129 C1121 1.427 . S
N1129 C1127 1.384 . S
H1130 C1136 0.930 . S
H1131 C1140 0.930 . S
H1132 C1145 0.929 . S
H1133 C1143 0.929 . S
H1134 C1138 0.929 . S
H1135 C1144 0.929 . S
C1136 H1130 0.930 . S
C1136 C1137 1.367 . S
C1136 C1144 1.378 . S
C1137 C1136 1.367 . S
C1137 C1145 1.433 . S
C1138 H1134 0.929 . S
C1138 C1140 1.378 . S
C1138 C1142 1.350 . S
C1139 C1142 1.463 . S
C1139 C1144 1.350 . S
C1139 N1147 1.427 . S
C1140 H1131 0.930 . S
C1140 C1138 1.378 . S
C1140 C1141 1.367 . S
C1141 C1140 1.367 . S
C1141 C1143 1.433 . S
C1142 C1138 1.350 . S
C1142 C1139 1.463 . S
C1142 N1146 1.427 . S
C1143 H1133 0.929 . S
C1143 C1141 1.433 . S
C1143 N1146 1.384 . S
C1144 H1135 0.929 . S
C1144 C1136 1.378 . S
C1144 C1139 1.350 . S
C1145 H1132 0.929 . S
C1145 C1137 1.433 . S
C1145 N1147 1.384 . S
N1146 C1142 1.427 . S
N1146 C1143 1.384 . S
N1147 C1139 1.427 . S
N1147 C1145 1.384 . S
H1148 C1154 0.930 . S
H1149 C1158 0.930 . S
H1150 C1163 0.929 . S
H1151 C1161 0.929 . S
H1152 C1156 0.929 . S
H1153 C1162 0.929 . S
C1154 H1148 0.930 . S
C1154 C1155 1.367 . S
C1154 C1162 1.378 . S
C1155 C1154 1.367 . S
C1155 C1163 1.433 . S
C1156 H1152 0.929 . S
C1156 C1158 1.378 . S
C1156 C1160 1.350 . S
C1157 C1160 1.463 . S
C1157 C1162 1.350 . S
C1157 N1165 1.427 . S
C1158 H1149 0.930 . S
C1158 C1156 1.378 . S
C1158 C1159 1.367 . S
C1159 C1158 1.367 . S
C1159 C1161 1.433 . S
C1160 C1156 1.350 . S
C1160 C1157 1.463 . S
C1160 N1164 1.427 . S
C1161 H1151 0.929 . S
C1161 C1159 1.433 . S
C1161 N1164 1.384 . S
C1162 H1153 0.929 . S
C1162 C1154 1.378 . S
C1162 C1157 1.350 . S
C1163 H1150 0.929 . S
C1163 C1155 1.433 . S
C1163 N1165 1.384 . S
N1164 C1160 1.427 . S
N1164 C1161 1.384 . S
N1165 C1157 1.427 . S
N1165 C1163 1.384 . S
H1166 C1172 0.930 . S
H1167 C1176 0.930 . S
H1168 C1181 0.929 . S
H1169 C1179 0.929 . S
H1170 C1174 0.929 . S
H1171 C1180 0.929 . S
C1172 H1166 0.930 . S
C1172 C1173 1.367 . S
C1172 C1180 1.378 . S
C1173 C1172 1.367 . S
C1173 C1181 1.433 . S
C1174 H1170 0.929 . S
C1174 C1176 1.378 . S
C1174 C1178 1.350 . S
C1175 C1178 1.463 . S
C1175 C1180 1.350 . S
C1175 N1183 1.427 . S
C1176 H1167 0.930 . S
C1176 C1174 1.378 . S
C1176 C1177 1.367 . S
C1177 C1176 1.367 . S
C1177 C1179 1.433 . S
C1178 C1174 1.350 . S
C1178 C1175 1.463 . S
C1178 N1182 1.427 . S
C1179 H1169 0.929 . S
C1179 C1177 1.433 . S
C1179 N1182 1.384 . S
C1180 H1171 0.929 . S
C1180 C1172 1.378 . S
C1180 C1175 1.350 . S
C1181 H1168 0.929 . S
C1181 C1173 1.433 . S
C1181 N1183 1.384 . S
N1182 C1178 1.427 . S
N1182 C1179 1.384 . S
N1183 C1175 1.427 . S
N1183 C1181 1.384 . S
H1184 C1190 0.930 . S
H1185 C1194 0.930 . S
H1186 C1199 0.929 . S
H1187 C1197 0.929 . S
H1188 C1192 0.929 . S
H1189 C1198 0.929 . S
C1190 H1184 0.930 . S
C1190 C1191 1.367 . S
C1190 C1198 1.378 . S
C1191 C1190 1.367 . S
C1191 C1199 1.433 . S
C1192 H1188 0.929 . S
C1192 C1194 1.378 . S
C1192 C1196 1.350 . S
C1193 C1196 1.463 . S
C1193 C1198 1.350 . S
C1193 N1201 1.427 . S
C1194 H1185 0.930 . S
C1194 C1192 1.378 . S
C1194 C1195 1.367 . S
C1195 C1194 1.367 . S
C1195 C1197 1.433 . S
C1196 C1192 1.350 . S
C1196 C1193 1.463 . S
C1196 N1200 1.427 . S
C1197 H1187 0.929 . S
C1197 C1195 1.433 . S
C1197 N1200 1.384 . S
C1198 H1189 0.929 . S
C1198 C1190 1.378 . S
C1198 C1193 1.350 . S
C1199 H1186 0.929 . S
C1199 C1191 1.433 . S
C1199 N1201 1.384 . S
N1200 C1196 1.427 . S
N1200 C1197 1.384 . S
N1201 C1193 1.427 . S
N1201 C1199 1.384 . S
H1202 C1208 0.930 1_545 S
H1203 C1212 0.930 . S
H1204 C1217 0.929 . S
H1205 C1215 0.929 . S
H1206 C1210 0.929 . S
H1207 C1216 0.929 . S
C1208 H1202 0.930 1_565 S
C1208 C1209 1.367 . S
C1208 C1216 1.378 1_565 S
C1209 C1208 1.367 . S
C1209 C1217 1.433 . S
C1210 H1206 0.929 . S
C1210 C1212 1.378 . S
C1210 C1214 1.350 . S
C1211 C1214 1.463 . S
C1211 C1216 1.350 1_565 S
C1211 N1219 1.427 . S
C1212 H1203 0.930 . S
C1212 C1210 1.378 . S
C1212 C1213 1.367 1_565 S
C1213 C1212 1.367 1_545 S
C1213 C1215 1.433 . S
C1214 C1210 1.350 . S
C1214 C1211 1.463 . S
C1214 N1218 1.427 1_565 S
C1215 H1205 0.929 . S
C1215 C1213 1.433 . S
C1215 N1218 1.384 . S
C1216 H1207 0.929 . S
C1216 C1208 1.378 1_545 S
C1216 C1211 1.350 1_545 S
C1217 H1204 0.929 . S
C1217 C1209 1.433 . S
C1217 N1219 1.384 . S
N1218 C1214 1.427 1_545 S
N1218 C1215 1.384 . S
N1219 C1211 1.427 . S
N1219 C1217 1.384 . S
H1220 C1226 0.930 . S
H1221 C1230 0.930 . S
H1222 C1235 0.929 . S
H1223 C1233 0.929 . S
H1224 C1228 0.929 . S
H1225 C1234 0.929 . S
C1226 H1220 0.930 . S
C1226 C1227 1.367 . S
C1226 C1234 1.378 . S
C1227 C1226 1.367 . S
C1227 C1235 1.433 . S
C1228 H1224 0.929 . S
C1228 C1230 1.378 . S
C1228 C1232 1.350 . S
C1229 C1232 1.463 . S
C1229 C1234 1.350 . S
C1229 N1237 1.427 . S
C1230 H1221 0.930 . S
C1230 C1228 1.378 . S
C1230 C1231 1.367 . S
C1231 C1230 1.367 . S
C1231 C1233 1.433 . S
C1232 C1228 1.350 . S
C1232 C1229 1.463 . S
C1232 N1236 1.427 . S
C1233 H1223 0.929 . S
C1233 C1231 1.433 . S
C1233 N1236 1.384 . S
C1234 H1225 0.929 . S
C1234 C1226 1.378 . S
C1234 C1229 1.350 . S
C1235 H1222 0.929 . S
C1235 C1227 1.433 . S
C1235 N1237 1.384 . S
N1236 C1232 1.427 . S
N1236 C1233 1.384 . S
N1237 C1229 1.427 . S
N1237 C1235 1.384 . S
H1238 C1244 0.930 . S
H1239 C1248 0.930 . S
H1240 C1253 0.929 . S
H1241 C1251 0.929 . S
H1242 C1246 0.929 1_565 S
H1243 C1252 0.929 . S
C1244 H1238 0.930 . S
C1244 C1245 1.367 1_545 S
C1244 C1252 1.378 . S
C1245 C1244 1.367 1_565 S
C1245 C1253 1.433 . S
C1246 H1242 0.929 1_545 S
C1246 C1248 1.378 . S
C1246 C1250 1.350 . S
C1247 C1250 1.463 . S
C1247 C1252 1.350 . S
C1247 N1255 1.427 1_545 S
C1248 H1239 0.930 . S
C1248 C1246 1.378 . S
C1248 C1249 1.367 . S
C1249 C1248 1.367 . S
C1249 C1251 1.433 . S
C1250 C1246 1.350 . S
C1250 C1247 1.463 . S
C1250 N1254 1.427 . S
C1251 H1241 0.929 . S
C1251 C1249 1.433 . S
C1251 N1254 1.384 . S
C1252 H1243 0.929 . S
C1252 C1244 1.378 . S
C1252 C1247 1.350 . S
C1253 H1240 0.929 . S
C1253 C1245 1.433 . S
C1253 N1255 1.384 . S
N1254 C1250 1.427 . S
N1254 C1251 1.384 . S
N1255 C1247 1.427 1_565 S
N1255 C1253 1.384 . S
H1256 C1262 0.930 . S
H1257 C1266 0.930 . S
H1258 C1271 0.929 . S
H1259 C1269 0.929 . S
H1260 C1264 0.929 . S
H1261 C1270 0.929 . S
C1262 H1256 0.930 . S
C1262 C1263 1.367 . S
C1262 C1270 1.378 . S
C1263 C1262 1.367 . S
C1263 C1271 1.433 . S
C1264 H1260 0.929 . S
C1264 C1266 1.378 . S
C1264 C1268 1.350 . S
C1265 C1268 1.463 . S
C1265 C1270 1.350 . S
C1265 N1273 1.427 . S
C1266 H1257 0.930 . S
C1266 C1264 1.378 . S
C1266 C1267 1.367 . S
C1267 C1266 1.367 . S
C1267 C1269 1.433 . S
C1268 C1264 1.350 . S
C1268 C1265 1.463 . S
C1268 N1272 1.427 . S
C1269 H1259 0.929 . S
C1269 C1267 1.433 . S
C1269 N1272 1.384 . S
C1270 H1261 0.929 . S
C1270 C1262 1.378 . S
C1270 C1265 1.350 . S
C1271 H1258 0.929 . S
C1271 C1263 1.433 . S
C1271 N1273 1.384 . S
N1272 C1268 1.427 . S
N1272 C1269 1.384 . S
N1273 C1265 1.427 . S
N1273 C1271 1.384 . S
H1274 C1280 0.930 . S
H1275 C1284 0.930 . S
H1276 C1289 0.929 1_565 S
H1277 C1287 0.929 . S
H1278 C1282 0.929 . S
H1279 C1288 0.929 . S
C1280 H1274 0.930 . S
C1280 C1281 1.367 . S
C1280 C1288 1.378 . S
C1281 C1280 1.367 . S
C1281 C1289 1.433 . S
C1282 H1278 0.929 . S
C1282 C1284 1.378 . S
C1282 C1286 1.350 1_565 S
C1283 C1286 1.463 . S
C1283 C1288 1.350 . S
C1283 N1291 1.427 1_545 S
C1284 H1275 0.930 . S
C1284 C1282 1.378 . S
C1284 C1285 1.367 . S
C1285 C1284 1.367 . S
C1285 C1287 1.433 1_565 S
C1286 C1282 1.350 1_545 S
C1286 C1283 1.463 . S
C1286 N1290 1.427 . S
C1287 H1277 0.929 . S
C1287 C1285 1.433 1_545 S
C1287 N1290 1.384 . S
C1288 H1279 0.929 . S
C1288 C1280 1.378 . S
C1288 C1283 1.350 . S
C1289 H1276 0.929 1_545 S
C1289 C1281 1.433 . S
C1289 N1291 1.384 1_545 S
N1290 C1286 1.427 . S
N1290 C1287 1.384 . S
N1291 C1283 1.427 1_565 S
N1291 C1289 1.384 1_565 S
H1292 C1298 0.930 . S
H1293 C1302 0.930 . S
H1294 C1307 0.929 . S
H1295 C1305 0.929 . S
H1296 C1300 0.929 . S
H1297 C1306 0.929 . S
C1298 H1292 0.930 . S
C1298 C1299 1.367 . S
C1298 C1306 1.378 . S
C1299 C1298 1.367 . S
C1299 C1307 1.433 . S
C1300 H1296 0.929 . S
C1300 C1302 1.378 . S
C1300 C1304 1.350 . S
C1301 C1304 1.463 . S
C1301 C1306 1.350 . S
C1301 N1309 1.427 . S
C1302 H1293 0.930 . S
C1302 C1300 1.378 . S
C1302 C1303 1.367 . S
C1303 C1302 1.367 . S
C1303 C1305 1.433 . S
C1304 C1300 1.350 . S
C1304 C1301 1.463 . S
C1304 N1308 1.427 . S
C1305 H1295 0.929 . S
C1305 C1303 1.433 . S
C1305 N1308 1.384 . S
C1306 H1297 0.929 . S
C1306 C1298 1.378 . S
C1306 C1301 1.350 . S
C1307 H1294 0.929 . S
C1307 C1299 1.433 . S
C1307 N1309 1.384 . S
N1308 C1304 1.427 . S
N1308 C1305 1.384 . S
N1309 C1301 1.427 . S
N1309 C1307 1.384 . S
H1310 C1316 0.922 1_545 S
H1311 C1320 0.930 . S
H1312 C1325 0.929 . S
H1313 C1323 0.929 . S
H1314 C1318 0.929 . S
H1315 C1324 0.929 . S
C1316 H1310 0.922 1_565 S
C1316 C1317 1.378 . S
C1316 C1324 1.375 1_565 S
C1317 C1316 1.378 . S
C1317 C1325 1.433 . S
C1318 H1314 0.929 . S
C1318 C1320 1.378 . S
C1318 C1322 1.350 . S
C1319 C1322 1.463 . S
C1319 C1324 1.350 1_565 S
C1319 N1327 1.427 . S
C1320 H1311 0.930 . S
C1320 C1318 1.378 . S
C1320 C1321 1.367 1_565 S
C1321 C1320 1.367 1_545 S
C1321 C1323 1.433 . S
C1322 C1318 1.350 . S
C1322 C1319 1.463 . S
C1322 N1326 1.427 1_565 S
C1323 H1313 0.929 . S
C1323 C1321 1.433 . S
C1323 N1326 1.384 . S
C1324 H1315 0.929 . S
C1324 C1316 1.375 1_545 S
C1324 C1319 1.350 1_545 S
C1325 H1312 0.929 . S
C1325 C1317 1.433 . S
C1325 N1327 1.384 . S
N1326 C1322 1.427 1_545 S
N1326 C1323 1.384 . S
N1327 C1319 1.427 . S
N1327 C1325 1.384 . S
H1328 C1334 0.930 . S
H1329 C1338 0.930 . S
H1330 C1343 0.929 . S
H1331 C1341 0.929 . S
H1332 C1336 0.929 . S
H1333 C1342 0.929 . S
C1334 H1328 0.930 . S
C1334 C1335 1.367 . S
C1334 C1342 1.378 . S
C1335 C1334 1.367 . S
C1335 C1343 1.433 . S
C1336 H1332 0.929 . S
C1336 C1338 1.378 . S
C1336 C1340 1.350 . S
C1337 C1340 1.463 . S
C1337 C1342 1.350 . S
C1337 N1345 1.427 . S
C1338 H1329 0.930 . S
C1338 C1336 1.378 . S
C1338 C1339 1.367 . S
C1339 C1338 1.367 . S
C1339 C1341 1.433 . S
C1340 C1336 1.350 . S
C1340 C1337 1.463 . S
C1340 N1344 1.427 . S
C1341 H1331 0.929 . S
C1341 C1339 1.433 . S
C1341 N1344 1.384 . S
C1342 H1333 0.929 . S
C1342 C1334 1.378 . S
C1342 C1337 1.350 . S
C1343 H1330 0.929 . S
C1343 C1335 1.433 . S
C1343 N1345 1.384 . S
N1344 C1340 1.427 . S
N1344 C1341 1.384 . S
N1345 C1337 1.427 . S
N1345 C1343 1.384 . S
H1346 C1352 0.930 . S
H1347 C1356 0.930 . S
H1348 C1361 0.929 . S
H1349 C1359 0.929 . S
H1350 C1354 0.929 . S
H1351 C1360 0.929 . S
C1352 H1346 0.930 . S
C1352 C1353 1.367 . S
C1352 C1360 1.378 . S
C1353 C1352 1.367 . S
C1353 C1361 1.433 . S
C1354 H1350 0.929 . S
C1354 C1356 1.378 . S
C1354 C1358 1.350 . S
C1355 C1358 1.463 . S
C1355 C1360 1.350 . S
C1355 N1363 1.427 . S
C1356 H1347 0.930 . S
C1356 C1354 1.378 . S
C1356 C1357 1.367 . S
C1357 C1356 1.367 . S
C1357 C1359 1.433 . S
C1358 C1354 1.350 . S
C1358 C1355 1.463 . S
C1358 N1362 1.427 . S
C1359 H1349 0.929 . S
C1359 C1357 1.433 . S
C1359 N1362 1.384 . S
C1360 H1351 0.929 . S
C1360 C1352 1.378 . S
C1360 C1355 1.350 . S
C1361 H1348 0.929 . S
C1361 C1353 1.433 . S
C1361 N1363 1.384 . S
N1362 C1358 1.427 . S
N1362 C1359 1.384 . S
N1363 C1355 1.427 . S
N1363 C1361 1.384 . S
H1364 C1370 0.930 . S
H1365 C1374 0.930 . S
H1366 C1379 0.929 . S
H1367 C1377 0.929 . S
H1368 C1372 0.929 . S
H1369 C1378 0.929 . S
C1370 H1364 0.930 . S
C1370 C1371 1.367 . S
C1370 C1378 1.378 . S
C1371 C1370 1.367 . S
C1371 C1379 1.433 . S
C1372 H1368 0.929 . S
C1372 C1374 1.378 . S
C1372 C1376 1.350 . S
C1373 C1376 1.463 1_455 S
C1373 C1378 1.350 . S
C1373 N1381 1.427 . S
C1374 H1365 0.930 . S
C1374 C1372 1.378 . S
C1374 C1375 1.367 . S
C1375 C1374 1.367 . S
C1375 C1377 1.433 . S
C1376 C1372 1.350 . S
C1376 C1373 1.463 1_655 S
C1376 N1380 1.427 . S
C1377 H1367 0.929 . S
C1377 C1375 1.433 . S
C1377 N1380 1.384 . S
C1378 H1369 0.929 . S
C1378 C1370 1.378 . S
C1378 C1373 1.350 . S
C1379 H1366 0.929 . S
C1379 C1371 1.433 . S
C1379 N1381 1.384 . S
N1380 C1376 1.427 . S
N1380 C1377 1.384 . S
N1381 C1373 1.427 . S
N1381 C1379 1.384 . S
H1382 C1388 0.930 . S
H1383 C1392 0.930 . S
H1384 C1397 0.929 . S
H1385 C1395 0.929 . S
H1386 C1390 0.929 . S
H1387 C1396 0.929 . S
C1388 H1382 0.930 . S
C1388 C1389 1.367 . S
C1388 C1396 1.378 1_455 S
C1389 C1388 1.367 . S
C1389 C1397 1.433 . S
C1390 H1386 0.929 . S
C1390 C1392 1.378 1_455 S
C1390 C1394 1.350 1_455 S
C1391 C1394 1.463 1_455 S
C1391 C1396 1.350 1_455 S
C1391 N1399 1.427 . S
C1392 H1383 0.930 . S
C1392 C1390 1.378 1_655 S
C1392 C1393 1.367 . S
C1393 C1392 1.367 . S
C1393 C1395 1.433 . S
C1394 C1390 1.350 1_655 S
C1394 C1391 1.463 1_655 S
C1394 N1398 1.427 . S
C1395 H1385 0.929 . S
C1395 C1393 1.433 . S
C1395 N1398 1.384 . S
C1396 H1387 0.929 . S
C1396 C1388 1.378 1_655 S
C1396 C1391 1.350 1_655 S
C1397 H1384 0.929 . S
C1397 C1389 1.433 . S
C1397 N1399 1.384 . S
N1398 C1394 1.427 . S
N1398 C1395 1.384 . S
N1399 C1391 1.427 . S
N1399 C1397 1.384 . S
H1400 C1406 0.930 . S
H1401 C1410 0.930 . S
H1402 C1415 0.929 . S
H1403 C1413 0.929 . S
H1404 C1408 0.929 . S
H1405 C1414 0.929 . S
C1406 H1400 0.930 . S
C1406 C1407 1.367 . S
C1406 C1414 1.378 . S
C1407 C1406 1.367 . S
C1407 C1415 1.433 . S
C1408 H1404 0.929 . S
C1408 C1410 1.378 . S
C1408 C1412 1.350 . S
C1409 C1412 1.463 . S
C1409 C1414 1.350 . S
C1409 N1417 1.427 . S
C1410 H1401 0.930 . S
C1410 C1408 1.378 . S
C1410 C1411 1.367 . S
C1411 C1410 1.367 . S
C1411 C1413 1.433 . S
C1412 C1408 1.350 . S
C1412 C1409 1.463 . S
C1412 N1416 1.427 . S
C1413 H1403 0.929 . S
C1413 C1411 1.433 . S
C1413 N1416 1.384 . S
C1414 H1405 0.929 . S
C1414 C1406 1.378 . S
C1414 C1409 1.350 . S
C1415 H1402 0.929 . S
C1415 C1407 1.433 . S
C1415 N1417 1.384 . S
N1416 C1412 1.427 . S
N1416 C1413 1.384 . S
N1417 C1409 1.427 . S
N1417 C1415 1.384 . S
H1418 C1424 0.930 . S
H1419 C1428 0.930 . S
H1420 C1433 0.929 . S
H1421 C1431 0.929 . S
H1422 C1426 0.929 . S
H1423 C1432 0.929 . S
C1424 H1418 0.930 . S
C1424 C1425 1.367 . S
C1424 C1432 1.378 . S
C1425 C1424 1.367 . S
C1425 C1433 1.433 . S
C1426 H1422 0.929 . S
C1426 C1428 1.378 . S
C1426 C1430 1.350 . S
C1427 C1430 1.463 . S
C1427 C1432 1.350 . S
C1427 N1435 1.427 . S
C1428 H1419 0.930 . S
C1428 C1426 1.378 . S
C1428 C1429 1.367 . S
C1429 C1428 1.367 . S
C1429 C1431 1.433 . S
C1430 C1426 1.350 . S
C1430 C1427 1.463 . S
C1430 N1434 1.427 . S
C1431 H1421 0.929 . S
C1431 C1429 1.433 . S
C1431 N1434 1.384 . S
C1432 H1423 0.929 . S
C1432 C1424 1.378 . S
C1432 C1427 1.350 . S
C1433 H1420 0.929 . S
C1433 C1425 1.433 . S
C1433 N1435 1.384 . S
N1434 C1430 1.427 . S
N1434 C1431 1.384 . S
N1435 C1427 1.427 . S
N1435 C1433 1.384 . S
H1436 C1442 0.930 . S
H1437 C1446 0.930 . S
H1438 C1451 0.929 . S
H1439 C1449 0.929 . S
H1440 C1444 0.929 . S
H1441 C1450 0.929 . S
C1442 H1436 0.930 . S
C1442 C1443 1.367 . S
C1442 C1450 1.378 . S
C1443 C1442 1.367 . S
C1443 C1451 1.433 . S
C1444 H1440 0.929 . S
C1444 C1446 1.378 . S
C1444 C1448 1.350 . S
C1445 C1448 1.463 1_455 S
C1445 C1450 1.350 . S
C1445 N1453 1.427 . S
C1446 H1437 0.930 . S
C1446 C1444 1.378 . S
C1446 C1447 1.367 . S
C1447 C1446 1.367 . S
C1447 C1449 1.433 . S
C1448 C1444 1.350 . S
C1448 C1445 1.463 1_655 S
C1448 N1452 1.427 . S
C1449 H1439 0.929 . S
C1449 C1447 1.433 . S
C1449 N1452 1.384 . S
C1450 H1441 0.929 . S
C1450 C1442 1.378 . S
C1450 C1445 1.350 . S
C1451 H1438 0.929 . S
C1451 C1443 1.433 . S
C1451 N1453 1.384 . S
N1452 C1448 1.427 . S
N1452 C1449 1.384 . S
N1453 C1445 1.427 . S
N1453 C1451 1.384 . S
H1454 C1460 0.930 . S
H1455 C1464 0.930 . S
H1456 C1469 0.929 . S
H1457 C1467 0.929 . S
H1458 C1462 0.929 . S
H1459 C1468 0.929 . S
C1460 H1454 0.930 . S
C1460 C1461 1.367 . S
C1460 C1468 1.378 . S
C1461 C1460 1.367 . S
C1461 C1469 1.433 . S
C1462 H1458 0.929 . S
C1462 C1464 1.378 . S
C1462 C1466 1.350 . S
C1463 C1466 1.463 1_455 S
C1463 C1468 1.350 . S
C1463 N1471 1.427 . S
C1464 H1455 0.930 . S
C1464 C1462 1.378 . S
C1464 C1465 1.367 . S
C1465 C1464 1.367 . S
C1465 C1467 1.433 . S
C1466 C1462 1.350 . S
C1466 C1463 1.463 1_655 S
C1466 N1470 1.427 . S
C1467 H1457 0.929 . S
C1467 C1465 1.433 . S
C1467 N1470 1.384 . S
C1468 H1459 0.929 . S
C1468 C1460 1.378 . S
C1468 C1463 1.350 . S
C1469 H1456 0.929 . S
C1469 C1461 1.433 . S
C1469 N1471 1.384 . S
N1470 C1466 1.427 . S
N1470 C1467 1.384 . S
N1471 C1463 1.427 . S
N1471 C1469 1.384 . S
C471 C213 2.281 . S
C475 C21 2.027 . S
C489 C358 2.282 . S
C493 C50 2.018 . S
C507 C79 2.020 . S
C511 C155 2.280 . S
C525 C416 2.281 . S
C529 C108 2.027 1_455 S
C543 C97 2.279 . S
C547 C137 2.035 . S
C561 C166 2.020 . S
C565 C242 2.280 . S
C579 C195 2.018 . S
C583 C39 2.282 . S
C597 C300 2.277 . S
C601 C224 2.032 1_655 S
C615 C445 2.281 . S
C619 C253 2.029 . S
C633 C282 2.033 1_655 S
C637 C126 2.277 . S
C651 C387 2.279 . S
C655 C311 2.025 . S
C669 C184 2.277 . S
C673 C340 2.036 . S
C687 C329 2.278 . S
C691 C369 2.036 . S
C705 C398 2.036 1_455 S
C709 C10 2.278 . S
C723 C427 2.026 . S
C727 C271 2.282 . S
C741 C68 2.282 . S
C745 C456 2.019 . S
C759 C15 1.204 . S
C763 C409 1.242 . S
C777 C206 1.224 1_655 S
C781 C44 1.207 . S
C795 C351 1.241 . S
C799 C73 1.198 . S
C813 C102 1.208 . S
C817 C148 1.245 . S
C831 C293 1.246 . S
C835 C131 1.200 . S
C849 C90 1.223 1_455 S
C853 C160 1.193 . S
C867 C189 1.208 . S
C871 C235 1.245 . S
C885 C218 1.208 . S
C889 C32 1.245 . S
C903 C247 1.189 . S
C907 C177 1.242 . S
C921 C276 1.202 . S
C925 C438 1.246 . S
C939 C119 1.246 . S
C943 C305 1.198 . S
C957 C380 1.220 1_455 S
C961 C334 1.203 . S
C975 C61 1.245 . S
C979 C363 1.208 . S
C993 C392 1.189 . S
C997 C322 1.242 . S
C1011 C3 1.245 . S
C1015 C421 1.208 . S
C1029 C264 1.222 1_655 S
C1033 C450 1.190 . S
C1047 C13 1.549 1_556 S
C1051 C269 1.479 . S
C1065 C298 1.466 . S
C1069 C42 1.559 . S
C1083 C327 1.481 . S
C1087 C71 1.559 . S
C1101 C240 1.463 . S
C1105 C100 1.556 . S
C1119 C129 1.558 1_554 S
C1123 C385 1.481 . S
C1137 C158 1.546 . S
C1141 C414 1.473 . S
C1155 C443 1.462 . S
C1159 C187 1.549 . S
C1173 C356 1.465 . S
C1177 C216 1.547 . S
C1191 C37 1.481 . S
C1195 C245 1.559 . S
C1209 C66 1.482 . S
C1213 C274 1.557 . S
C1227 C303 1.550 1_556 S
C1231 C95 1.461 . S
C1245 C332 1.547 . S
C1249 C8 1.476 . S
C1263 C361 1.561 . S
C1267 C153 1.474 . S
C1281 C182 1.463 . S
C1285 C390 1.548 . S
C1299 C419 1.557 1_554 S
C1303 C211 1.463 . S
C1317 C124 1.482 . S
C1321 C448 1.553 . S
C1335 C295 2.424 . S
C1339 C5 2.419 . S
C1353 C34 2.420 . S
C1357 C324 2.425 . S
C1371 C63 2.427 . S
C1375 C237 2.423 . S
C1389 C266 2.427 . S
C1393 C92 2.422 . S
C1407 C121 2.424 . S
C1411 C411 2.428 . S
C1425 C440 2.421 . S
C1429 C150 2.418 . S
C1443 C353 2.422 . S
C1447 C179 2.427 . S
C1461 C208 2.425 . S
C1465 C382 2.420 . S
