# Generated by pormake.
# Topology umg, (4)-cn, num edge types: 1
# Building blocks:
#     Node 0, Type 0, BuildingBlock: MUDLON_clean_sbu_0, # of connection points: 4
#     Node 1, Type 0, BuildingBlock: MUDLON_clean_sbu_0, # of connection points: 4
#     Node 2, Type 0, BuildingBlock: MUDLON_clean_sbu_0, # of connection points: 4
#     Node 3, Type 0, BuildingBlock: MUDLON_clean_sbu_0, # of connection points: 4
#     Node 4, Type 0, BuildingBlock: MUDLON_clean_sbu_0, # of connection points: 4
#     Node 5, Type 0, BuildingBlock: MUDLON_clean_sbu_0, # of connection points: 4
#     Node 6, Type 0, BuildingBlock: MUDLON_clean_sbu_0, # of connection points: 4
#     Node 7, Type 0, BuildingBlock: MUDLON_clean_sbu_0, # of connection points: 4
#     Node 8, Type 0, BuildingBlock: MUDLON_clean_sbu_0, # of connection points: 4
#     Node 9, Type 0, BuildingBlock: MUDLON_clean_sbu_0, # of connection points: 4
#     Node 10, Type 0, BuildingBlock: MUDLON_clean_sbu_0, # of connection points: 4
#     Node 11, Type 0, BuildingBlock: MUDLON_clean_sbu_0, # of connection points: 4
#     Edge 12, Type (0, 0), BuildingBlock: EZIPEK_clean_linker_0, # of connection points: 2
#     Edge 13, Type (0, 0), BuildingBlock: EZIPEK_clean_linker_0, # of connection points: 2
#     Edge 14, Type (0, 0), BuildingBlock: EZIPEK_clean_linker_0, # of connection points: 2
#     Edge 15, Type (0, 0), BuildingBlock: EZIPEK_clean_linker_0, # of connection points: 2
#     Edge 16, Type (0, 0), BuildingBlock: EZIPEK_clean_linker_0, # of connection points: 2
#     Edge 17, Type (0, 0), BuildingBlock: EZIPEK_clean_linker_0, # of connection points: 2
#     Edge 18, Type (0, 0), BuildingBlock: EZIPEK_clean_linker_0, # of connection points: 2
#     Edge 19, Type (0, 0), BuildingBlock: EZIPEK_clean_linker_0, # of connection points: 2
#     Edge 20, Type (0, 0), BuildingBlock: EZIPEK_clean_linker_0, # of connection points: 2
#     Edge 21, Type (0, 0), BuildingBlock: EZIPEK_clean_linker_0, # of connection points: 2
#     Edge 22, Type (0, 0), BuildingBlock: EZIPEK_clean_linker_0, # of connection points: 2
#     Edge 23, Type (0, 0), BuildingBlock: EZIPEK_clean_linker_0, # of connection points: 2
#     Edge 24, Type (0, 0), BuildingBlock: EZIPEK_clean_linker_0, # of connection points: 2
#     Edge 25, Type (0, 0), BuildingBlock: EZIPEK_clean_linker_0, # of connection points: 2
#     Edge 26, Type (0, 0), BuildingBlock: EZIPEK_clean_linker_0, # of connection points: 2
#     Edge 27, Type (0, 0), BuildingBlock: EZIPEK_clean_linker_0, # of connection points: 2
#     Edge 28, Type (0, 0), BuildingBlock: EZIPEK_clean_linker_0, # of connection points: 2
#     Edge 29, Type (0, 0), BuildingBlock: EZIPEK_clean_linker_0, # of connection points: 2
#     Edge 30, Type (0, 0), BuildingBlock: EZIPEK_clean_linker_0, # of connection points: 2
#     Edge 31, Type (0, 0), BuildingBlock: EZIPEK_clean_linker_0, # of connection points: 2
#     Edge 32, Type (0, 0), BuildingBlock: EZIPEK_clean_linker_0, # of connection points: 2
#     Edge 33, Type (0, 0), BuildingBlock: EZIPEK_clean_linker_0, # of connection points: 2
#     Edge 34, Type (0, 0), BuildingBlock: EZIPEK_clean_linker_0, # of connection points: 2
#     Edge 35, Type (0, 0), BuildingBlock: EZIPEK_clean_linker_0, # of connection points: 2
# Relax obj value: 0.016
# Max RMSD: 0.185
# Mean RMSD: 0.185
data_MOF--net-umg--node1-MUDLON_clean_sbu_0--edge1-EZIPEK_clean_linker_0
_symmetry_space_group_name_H-M    P1
_symmetry_Int_Tables_number       1
_symmetry_cell_setting            triclinic
loop_
_symmetry_equiv_pos_as_xyz
'x, y, z'
_cell_length_a     22.172065
_cell_length_b     22.114529
_cell_length_c     65.53637
_cell_angle_alpha  89.612128
_cell_angle_beta   90.235016
_cell_angle_gamma 120.15311
loop_
_atom_site_label
_atom_site_type_symbol
_atom_site_fract_x
_atom_site_fract_y
_atom_site_fract_z
_atom_type_partial_charge
Mg0 Mg 0.3159 0.61442 0.10659 0.0
C1 C 0.32754 0.63675 0.06321 0.0
O2 O 0.29509 0.56874 0.06605 0.0
C3 C 0.3321 0.62775 0.15078 0.0
O4 O 0.31945 0.56407 0.14712 0.0
C5 C 0.43608 0.59093 0.11016 0.0
O6 O 0.46455 0.65701 0.11527 0.0
O7 O 0.37141 0.55649 0.10579 0.0
O8 O 0.34521 0.67653 0.07869 0.0
O9 O 0.20253 0.55109 0.10628 0.0
C10 C 0.17127 0.58608 0.10722 0.0
O11 O 0.20844 0.65467 0.10778 0.0
O12 O 0.33817 0.66734 0.13579 0.0
Mg13 Mg 0.71812 0.32137 0.44823 0.0
C14 C 0.70381 0.34419 0.40603 0.0
O15 O 0.74154 0.31372 0.40714 0.0
C16 C 0.73604 0.34153 0.49254 0.0
O17 O 0.78778 0.33206 0.48725 0.0
C18 C 0.85989 0.444 0.44536 0.0
O19 O 0.82055 0.47274 0.44603 0.0
O20 O 0.83135 0.37767 0.4458 0.0
O21 O 0.68237 0.3574 0.42244 0.0
O22 O 0.66765 0.20797 0.44533 0.0
C23 C 0.60138 0.17508 0.44387 0.0
O24 O 0.56842 0.21056 0.44386 0.0
O25 O 0.69553 0.34202 0.47879 0.0
Mg26 Mg 0.44087 0.70163 0.76781 0.0
C27 C 0.33867 0.68332 0.73299 0.0
O28 O 0.32216 0.72107 0.74452 0.0
C29 C 0.33826 0.66651 0.80513 0.0
O30 O 0.29591 0.67706 0.79355 0.0
C31 C 0.46447 0.84762 0.77122 0.0
O32 O 0.39919 0.81126 0.77708 0.0
O33 O 0.49733 0.81605 0.76663 0.0
O34 O 0.37924 0.66318 0.73997 0.0
O35 O 0.50668 0.65454 0.76723 0.0
C36 C 0.47331 0.58852 0.76994 0.0
O37 O 0.40549 0.55635 0.77268 0.0
O38 O 0.39315 0.67101 0.79771 0.0
Mg39 Mg 0.72576 0.4331 0.11102 0.0
C40 C 0.69941 0.41289 0.06776 0.0
O41 O 0.71537 0.47763 0.07132 0.0
C42 C 0.6504 0.35716 0.15044 0.0
O43 O 0.59914 0.36453 0.14327 0.0
C44 C 0.60898 0.46336 0.10711 0.0
O45 O 0.57756 0.39702 0.10205 0.0
O46 O 0.67367 0.49482 0.11158 0.0
O47 O 0.69644 0.37452 0.08271 0.0
O48 O 0.83942 0.49368 0.1093 0.0
C49 C 0.87037 0.45889 0.11215 0.0
O50 O 0.83319 0.39184 0.11644 0.0
O51 O 0.70475 0.37621 0.13973 0.0
Mg52 Mg 0.30896 0.72678 0.44425 0.0
C53 C 0.30775 0.64489 0.40671 0.0
O54 O 0.25184 0.59391 0.41533 0.0
C55 C 0.37846 0.71523 0.48329 0.0
O56 O 0.43611 0.75308 0.4729 0.0
C57 C 0.15999 0.61822 0.44722 0.0
O58 O 0.19143 0.58684 0.45528 0.0
O59 O 0.19637 0.68117 0.44099 0.0
O60 O 0.34567 0.70054 0.4167 0.0
O61 O 0.36738 0.84124 0.44531 0.0
C62 C 0.43141 0.87257 0.44006 0.0
O63 O 0.4591 0.83581 0.43362 0.0
O64 O 0.32012 0.69163 0.47437 0.0
Mg65 Mg 0.62485 0.29475 0.77266 0.0
C66 C 0.74781 0.37625 0.74142 0.0
O67 O 0.78377 0.42096 0.75587 0.0
C68 C 0.63987 0.27694 0.81652 0.0
O69 O 0.57906 0.22247 0.81205 0.0
C70 C 0.59472 0.14941 0.76694 0.0
O71 O 0.66101 0.1859 0.76198 0.0
O72 O 0.56236 0.18128 0.77166 0.0
O73 O 0.68804 0.32403 0.7452 0.0
O74 O 0.56571 0.34908 0.77119 0.0
C75 C 0.60109 0.41552 0.77224 0.0
O76 O 0.66919 0.44668 0.77413 0.0
O77 O 0.67617 0.31902 0.8023 0.0
Mg78 Mg 0.46796 0.74253 0.61114 0.0
C79 C 0.35067 0.69973 0.64525 0.0
O80 O 0.30835 0.70391 0.63199 0.0
C81 C 0.38654 0.72848 0.57161 0.0
O82 O 0.37016 0.771 0.58069 0.0
C83 C 0.50172 0.63104 0.61224 0.0
O84 O 0.43395 0.59824 0.6093 0.0
O85 O 0.53495 0.6974 0.61372 0.0
O86 O 0.41015 0.71063 0.63968 0.0
O87 O 0.52377 0.85711 0.61081 0.0
C88 C 0.48896 0.88786 0.61373 0.0
O89 O 0.42123 0.85037 0.6164 0.0
O90 O 0.41941 0.70447 0.58145 0.0
Mg91 Mg 0.74248 0.43122 0.93884 0.0
C92 C 0.72512 0.41766 0.98199 0.0
O93 O 0.75889 0.48478 0.97761 0.0
C94 C 0.71615 0.33164 0.90185 0.0
O95 O 0.74633 0.30347 0.9124 0.0
C96 C 0.88284 0.44366 0.94147 0.0
O97 O 0.84142 0.37599 0.9438 0.0
O98 O 0.85619 0.48259 0.93892 0.0
O99 O 0.70822 0.37395 0.96751 0.0
O100 O 0.69678 0.49847 0.93933 0.0
C101 C 0.6304 0.46436 0.94028 0.0
O102 O 0.59768 0.39573 0.94083 0.0
O103 O 0.70616 0.37807 0.90983 0.0
Mg104 Mg 0.30211 0.71663 0.27815 0.0
C105 C 0.29569 0.64327 0.31861 0.0
O106 O 0.2347 0.59563 0.31164 0.0
C107 C 0.31763 0.7068 0.23384 0.0
O108 O 0.29458 0.75095 0.23514 0.0
C109 C 0.42258 0.86235 0.28009 0.0
O110 O 0.45274 0.82558 0.28428 0.0
O111 O 0.35715 0.83073 0.2767 0.0
O112 O 0.33643 0.6941 0.30713 0.0
O113 O 0.18816 0.66905 0.27889 0.0
C114 C 0.15126 0.60365 0.2755 0.0
O115 O 0.18242 0.56814 0.27119 0.0
O116 O 0.32828 0.68193 0.25016 0.0
Mg117 Mg 0.64773 0.33513 0.62065 0.0
C118 C 0.75907 0.37095 0.65521 0.0
O119 O 0.79884 0.36385 0.64177 0.0
C120 C 0.66987 0.34624 0.57725 0.0
O121 O 0.60228 0.31825 0.57969 0.0
C122 C 0.62629 0.45581 0.61682 0.0
O123 O 0.69446 0.48516 0.6158 0.0
O124 O 0.5893 0.38974 0.61888 0.0
O125 O 0.70096 0.36436 0.64986 0.0
O126 O 0.58511 0.22144 0.62006 0.0
C127 C 0.61927 0.18924 0.62028 0.0
O128 O 0.68762 0.22536 0.62146 0.0
O129 O 0.70897 0.36257 0.59292 0.0
Mg130 Mg 0.32926 0.60503 0.93556 0.0
C131 C 0.33919 0.63315 0.97859 0.0
O132 O 0.30882 0.56496 0.97675 0.0
C133 C 0.30725 0.60819 0.89184 0.0
O134 O 0.26173 0.54407 0.8975 0.0
C135 C 0.18379 0.5721 0.93841 0.0
O136 O 0.21898 0.6408 0.93824 0.0
O137 O 0.2168 0.53885 0.9377 0.0
O138 O 0.35772 0.67095 0.96254 0.0
O139 O 0.38752 0.54977 0.93663 0.0
C140 C 0.45218 0.58586 0.94092 0.0
O141 O 0.47966 0.65268 0.94496 0.0
O142 O 0.34633 0.65179 0.9053 0.0
Mg143 Mg 0.70383 0.31366 0.27941 0.0
C144 C 0.70597 0.34632 0.32234 0.0
O145 O 0.75232 0.32631 0.32058 0.0
C146 C 0.68326 0.3093 0.23528 0.0
O147 O 0.71264 0.27105 0.23812 0.0
C148 C 0.58891 0.16528 0.27674 0.0
O149 O 0.55763 0.19886 0.27023 0.0
O150 O 0.65298 0.19997 0.28184 0.0
O151 O 0.67419 0.34895 0.30648 0.0
O152 O 0.81789 0.36806 0.27818 0.0
C153 C 0.85035 0.43389 0.28107 0.0
O154 O 0.81479 0.46526 0.28504 0.0
O155 O 0.67049 0.33595 0.25063 0.0
C156 C 0.28552 0.65567 1.00866 0.0
C157 C 0.34609 0.66261 0.99925 0.0
C158 C 0.40419 0.68419 0.03253 0.0
C159 C 0.33943 0.66397 0.04203 0.0
N160 N 0.22111 0.6397 0.04014 0.0
N161 N 0.46603 0.69224 1.00106 0.0
C162 C 0.2812 0.65393 0.03034 0.0
C163 C 0.40702 0.68122 1.01084 0.0
N164 N 0.23215 0.64961 0.99669 0.0
N165 N 0.46201 0.70432 0.04438 0.0
H166 H 0.46976 0.69363 0.98518 0.0
H167 H 0.51065 0.699 1.0084 0.0
H168 H 0.46049 0.70662 0.06025 0.0
H169 H 0.51202 0.72307 0.03867 0.0
H170 H 0.18727 0.64753 1.00223 0.0
H171 H 0.23525 0.65162 0.98079 0.0
H172 H 0.1739 0.62452 0.03286 0.0
H173 H 0.21851 0.64237 0.05599 0.0
C174 C 0.7463 0.41923 0.37499 0.0
C175 C 0.69016 0.36388 0.38566 0.0
C176 C 0.63058 0.31189 0.35357 0.0
C177 C 0.69069 0.36238 0.34291 0.0
N178 N 0.79368 0.47583 0.34231 0.0
N179 N 0.5701 0.27324 0.38612 0.0
C180 C 0.74446 0.42041 0.35332 0.0
C181 C 0.62887 0.31579 0.37521 0.0
N182 N 0.80251 0.46835 0.38566 0.0
N183 N 0.57772 0.25781 0.34315 0.0
H184 H 0.56859 0.27654 0.40198 0.0
H185 H 0.5219 0.2397 0.37953 0.0
H186 H 0.57672 0.25504 0.32727 0.0
H187 H 0.53625 0.21468 0.35017 0.0
H188 H 0.84904 0.50569 0.37895 0.0
H189 H 0.8026 0.4703 0.40157 0.0
H190 H 0.83256 0.52196 0.34877 0.0
H191 H 0.79148 0.47756 0.32641 0.0
C192 C 0.2809 0.63448 0.69906 0.0
C193 C 0.33519 0.68893 0.71054 0.0
C194 C 0.38531 0.75645 0.67925 0.0
C195 C 0.33774 0.69813 0.66751 0.0
N196 N 0.24137 0.57997 0.66583 0.0
N197 N 0.44564 0.79729 0.71133 0.0
C198 C 0.2851 0.6368 0.67729 0.0
C199 C 0.389 0.7489 0.70059 0.0
N200 N 0.22564 0.58094 0.70899 0.0
N201 N 0.42612 0.81978 0.67001 0.0
H202 H 0.45128 0.79382 0.72701 0.0
H203 H 0.49004 0.83766 0.70444 0.0
H204 H 0.42337 0.82761 0.65443 0.0
H205 H 0.45673 0.86589 0.67802 0.0
H206 H 0.18115 0.54287 0.70161 0.0
H207 H 0.22223 0.57759 0.72488 0.0
H208 H 0.20688 0.53111 0.67202 0.0
H209 H 0.24236 0.58074 0.64992 0.0
C210 C 0.64286 0.35888 0.03451 0.0
C211 C 0.70407 0.39371 0.04652 0.0
C212 C 0.77651 0.42064 1.01599 0.0
C213 C 0.71586 0.39634 1.00375 0.0
N214 N 0.59096 0.34129 1.00073 0.0
N215 N 0.8293 0.45618 0.04946 0.0
C216 C 0.64862 0.36353 1.01281 0.0
C217 C 0.77099 0.42281 0.03749 0.0
N218 N 0.57954 0.32262 0.04395 0.0
N219 N 0.83952 0.44246 1.00687 0.0
H220 H 0.82704 0.45656 0.06535 0.0
H221 H 0.87973 0.48612 0.0438 0.0
H222 H 0.84523 0.44405 0.99108 0.0
H223 H 0.8849 0.45409 1.01475 0.0
H224 H 0.53284 0.29142 0.0363 0.0
H225 H 0.57462 0.31943 0.05982 0.0
H226 H 0.54107 0.32419 1.00633 0.0
H227 H 0.59348 0.34289 0.98484 0.0
C228 C 0.32416 0.60263 0.35135 0.0
C229 C 0.30708 0.64863 0.34098 0.0
C230 C 0.29033 0.69141 0.37369 0.0
C231 C 0.31127 0.64836 0.38411 0.0
N232 N 0.35662 0.56984 0.38333 0.0
N233 N 0.28378 0.74432 0.34195 0.0
C234 C 0.3307 0.60588 0.37306 0.0
C235 C 0.29383 0.69572 0.35207 0.0
N236 N 0.33274 0.55502 0.34045 0.0
N237 N 0.2626 0.72471 0.38437 0.0
H238 H 0.28049 0.74648 0.32613 0.0
H239 H 0.28354 0.78597 0.34919 0.0
H240 H 0.25809 0.72285 0.40022 0.0
H241 H 0.23812 0.74929 0.37751 0.0
H242 H 0.33764 0.5148 0.34707 0.0
H243 H 0.33129 0.55349 0.32453 0.0
H244 H 0.37808 0.54311 0.3762 0.0
H245 H 0.36128 0.57088 0.39919 0.0
C246 C 0.77638 0.44268 0.70819 0.0
C247 C 0.77313 0.38716 0.72006 0.0
C248 C 0.77729 0.32798 0.68903 0.0
C249 C 0.77804 0.38225 0.67713 0.0
N250 N 0.79807 0.49953 0.67501 0.0
N251 N 0.791 0.28878 0.72254 0.0
C252 C 0.78446 0.44256 0.68666 0.0
C253 C 0.78074 0.33385 0.71066 0.0
N254 N 0.76695 0.49283 0.71724 0.0
N255 N 0.76827 0.26869 0.67983 0.0
H256 H 0.79419 0.29258 0.73842 0.0
H257 H 0.80308 0.25249 0.71668 0.0
H258 H 0.76639 0.2625 0.66406 0.0
H259 H 0.75825 0.22375 0.68783 0.0
H260 H 0.75951 0.52918 0.70911 0.0
H261 H 0.76243 0.49582 0.73297 0.0
H262 H 0.8095 0.54753 0.68109 0.0
H263 H 0.8045 0.50063 0.65922 0.0
C264 C 0.27466 0.61836 0.20582 0.0
C265 C 0.32657 0.68411 0.21336 0.0
C266 C 0.38679 0.71072 0.18029 0.0
C267 C 0.33025 0.64878 0.17213 0.0
N268 N 0.21252 0.55207 0.17606 0.0
N269 N 0.42806 0.79712 0.20722 0.0
C270 C 0.27211 0.60464 0.18462 0.0
C271 C 0.38147 0.73166 0.2004 0.0
N272 N 0.22759 0.56885 0.21884 0.0
N273 N 0.4466 0.74801 0.1692 0.0
H274 H 0.42743 0.81311 0.2221 0.0
H275 H 0.46426 0.83681 0.1978 0.0
H276 H 0.45283 0.73368 0.15458 0.0
H277 H 0.49217 0.78946 0.17516 0.0
H278 H 0.19296 0.51756 0.21447 0.0
H279 H 0.22769 0.57701 0.23446 0.0
H280 H 0.16611 0.52321 0.18412 0.0
H281 H 0.20672 0.54232 0.16043 0.0
C282 C 0.72251 0.40508 0.52232 0.0
C283 C 0.72226 0.34526 0.51449 0.0
C284 C 0.70541 0.2959 0.54904 0.0
C285 C 0.69736 0.35144 0.55643 0.0
N286 N 0.69296 0.45669 0.55035 0.0
N287 N 0.70221 0.2283 0.51977 0.0
C288 C 0.70453 0.40554 0.54313 0.0
C289 C 0.71128 0.28939 0.52771 0.0
N290 N 0.74249 0.46239 0.51009 0.0
N291 N 0.70727 0.2492 0.56245 0.0
H292 H 0.70406 0.22036 0.50419 0.0
H293 H 0.68618 0.18303 0.52839 0.0
H294 H 0.70211 0.25182 0.57817 0.0
H295 H 0.72017 0.21179 0.55822 0.0
H296 H 0.75079 0.5102 0.51544 0.0
H297 H 0.75644 0.46411 0.49483 0.0
H298 H 0.68869 0.4926 0.541 0.0
H299 H 0.68404 0.46099 0.56576 0.0
C300 C 0.31883 0.6971 0.84065 0.0
C301 C 0.32408 0.64983 0.82717 0.0
C302 C 0.32918 0.58301 0.85639 0.0
C303 C 0.31658 0.62566 0.86978 0.0
N304 N 0.28709 0.71591 0.8744 0.0
N305 N 0.31867 0.53926 0.82207 0.0
C306 C 0.30792 0.68073 0.86186 0.0
C307 C 0.3246 0.5902 0.83503 0.0
N308 N 0.32775 0.75922 0.83345 0.0
N309 N 0.3486 0.53761 0.86404 0.0
H310 H 0.31281 0.54155 0.80633 0.0
H311 H 0.31212 0.49153 0.8271 0.0
H312 H 0.35498 0.53234 0.8796 0.0
H313 H 0.36558 0.51074 0.8549 0.0
H314 H 0.33227 0.79888 0.84295 0.0
H315 H 0.33676 0.77387 0.81813 0.0
H316 H 0.27241 0.7511 0.86904 0.0
H317 H 0.27878 0.70565 0.89001 0.0
C318 C 0.69188 0.40294 0.18548 0.0
C319 C 0.65331 0.34471 0.17251 0.0
C320 C 0.62278 0.26508 0.20176 0.0
C321 C 0.66815 0.3226 0.21423 0.0
N322 N 0.75233 0.44558 0.21764 0.0
N323 N 0.5856 0.22031 0.16747 0.0
C324 C 0.7039 0.39152 0.20608 0.0
C325 C 0.61934 0.27567 0.18044 0.0
N326 N 0.71614 0.46929 0.17817 0.0
N327 N 0.58161 0.20078 0.21048 0.0
H328 H 0.58065 0.22651 0.15187 0.0
H329 H 0.56648 0.1685 0.17186 0.0
H330 H 0.58218 0.19152 0.22609 0.0
H331 H 0.54262 0.15812 0.20267 0.0
H332 H 0.73737 0.51336 0.18743 0.0
H333 H 0.70997 0.48006 0.16303 0.0
H334 H 0.7865 0.49504 0.21174 0.0
H335 H 0.76233 0.44005 0.23287 0.0
C336 C 0.41974 0.78561 0.53724 0.0
C337 C 0.38381 0.72343 0.54902 0.0
C338 C 0.3508 0.65416 0.51754 0.0
C339 C 0.38017 0.71699 0.50592 0.0
N340 N 0.42448 0.84167 0.50514 0.0
N341 N 0.30817 0.59839 0.55058 0.0
C342 C 0.40953 0.78253 0.51587 0.0
C343 C 0.34743 0.65745 0.53923 0.0
N344 N 0.46643 0.8473 0.54625 0.0
N345 N 0.32783 0.59172 0.50791 0.0
H346 H 0.30477 0.59912 0.56644 0.0
H347 H 0.2748 0.54967 0.54423 0.0
H348 H 0.32932 0.58768 0.49209 0.0
H349 H 0.31242 0.54486 0.51561 0.0
H350 H 0.49859 0.89262 0.53795 0.0
H351 H 0.47914 0.85126 0.56171 0.0
H352 H 0.43997 0.88953 0.5121 0.0
H353 H 0.41352 0.84127 0.48964 0.0
C354 C 0.74659 0.31894 0.8656 0.0
C355 C 0.69637 0.31291 0.88016 0.0
C356 C 0.61432 0.29414 0.8525 0.0
C357 C 0.6612 0.29197 0.83822 0.0
N358 N 0.76679 0.28905 0.83179 0.0
N359 N 0.57703 0.27928 0.8877 0.0
C360 C 0.72595 0.30059 0.84492 0.0
C361 C 0.62858 0.29588 0.87366 0.0
N362 N 0.81478 0.3457 0.87116 0.0
N363 N 0.55772 0.29787 0.84587 0.0
H364 H 0.58473 0.27758 0.90336 0.0
H365 H 0.52501 0.25996 0.88369 0.0
H366 H 0.54678 0.29978 0.83047 0.0
H367 H 0.52601 0.30682 0.85561 0.0
H368 H 0.85458 0.3582 0.86067 0.0
H369 H 0.83299 0.36187 0.88594 0.0
H370 H 0.81084 0.28728 0.83646 0.0
H371 H 0.75321 0.27486 0.81659 0.0
C372 C 0.99052 0.54004 0.12585 0.0
C373 C 0.94747 0.49242 0.1106 0.0
C374 C 0.05147 0.50743 0.0927 0.0
C375 C 0.09406 0.55099 0.10871 0.0
N376 N 0.10363 0.59792 0.14245 0.0
N377 N 0.93556 0.42196 0.08118 0.0
C378 C 0.06346 0.5646 0.12579 0.0
C379 C 0.97755 0.47328 0.09457 0.0
N380 N 0.96174 0.56157 0.14048 0.0
N381 N 0.08157 0.5013 0.07525 0.0
H382 H 0.88132 0.39759 0.08138 0.0
H383 H 0.95417 0.39994 0.07074 0.0
H384 H 0.13539 0.52525 0.07326 0.0
H385 H 0.05358 0.47733 0.06206 0.0
H386 H 0.99117 0.60246 0.15048 0.0
H387 H 0.90819 0.54178 0.14183 0.0
H388 H 0.08337 0.60273 0.15625 0.0
H389 H 0.15683 0.6151 0.14324 0.0
C390 C 0.56566 0.05552 0.45809 0.0
C391 C 0.56063 0.09746 0.44245 0.0
C392 C 0.46611 0.9921 0.42632 0.0
C393 C 0.47515 0.94997 0.44104 0.0
N394 N 0.54324 0.94091 0.46851 0.0
N395 N 0.51686 0.10491 0.40936 0.0
C396 C 0.52809 0.98148 0.45614 0.0
C397 C 0.51358 0.06553 0.42594 0.0
N398 N 0.60331 0.08603 0.47536 0.0
N399 N 0.41247 0.962 0.41261 0.0
H400 H 0.55323 0.15809 0.40816 0.0
H401 H 0.48886 0.08387 0.39596 0.0
H402 H 0.37884 0.90811 0.41168 0.0
H403 H 0.39834 0.99071 0.40307 0.0
H404 H 0.60233 0.05774 0.48825 0.0
H405 H 0.63036 0.1399 0.47763 0.0
H406 H 0.5863 0.96131 0.47821 0.0
H407 H 0.5163 0.88656 0.46789 0.0
C408 C 0.53025 0.4616 0.78865 0.0
C409 C 0.56682 0.45838 0.77136 0.0
C410 C 0.54198 0.54062 0.7529 0.0
C411 C 0.50941 0.54734 0.77066 0.0
N412 N 0.48221 0.52387 0.80644 0.0
N413 N 0.61447 0.49942 0.73776 0.0
C414 C 0.50595 0.51022 0.78881 0.0
C415 C 0.57501 0.49957 0.75373 0.0
N416 N 0.51859 0.41801 0.80492 0.0
N417 N 0.53818 0.57049 0.73495 0.0
H418 H 0.63511 0.46624 0.73715 0.0
H419 H 0.62998 0.53466 0.72562 0.0
H420 H 0.51457 0.60095 0.73371 0.0
H421 H 0.55367 0.56105 0.72093 0.0
H422 H 0.48553 0.41183 0.81698 0.0
H423 H 0.53832 0.38407 0.80578 0.0
H424 H 0.48483 0.50418 0.82068 0.0
H425 H 0.46533 0.56014 0.80724 0.0
C426 C 0.54548 0.07775 0.60099 0.0
C427 C 0.5835 0.11186 0.61884 0.0
C428 C 0.56617 1.00013 0.63225 0.0
C429 C 0.52385 0.96527 0.61507 0.0
N430 N 0.46443 0.96881 0.58452 0.0
N431 N 0.62044 0.10498 0.65299 0.0
C432 C 0.51071 1.00348 0.59991 0.0
C433 C 0.59152 0.07291 0.63487 0.0
N434 N 0.5454 0.11646 0.58463 0.0
N435 N 0.58186 0.96365 0.64615 0.0
H436 H 0.63807 0.15776 0.65561 0.0
H437 H 0.62135 0.07843 0.66605 0.0
H438 H 0.56117 0.9097 0.6455 0.0
H439 H 0.61891 0.98727 0.65764 0.0
H440 H 0.52605 0.0953 0.57031 0.0
H441 H 0.56989 0.17087 0.58477 0.0
H442 H 0.44621 0.99275 0.57448 0.0
H443 H 0.44029 0.9149 0.58257 0.0
C444 C 0.51142 0.53171 0.92197 0.0
C445 C 0.49747 0.55427 0.94069 0.0
C446 C 0.57961 0.52803 0.95842 0.0
C447 C 0.58895 0.50005 0.94007 0.0
N448 N 0.55865 0.46758 0.90486 0.0
N449 N 0.50982 0.56521 0.97724 0.0
C450 C 0.55324 0.49958 0.92198 0.0
C451 C 0.52962 0.55047 0.95906 0.0
N452 N 0.48727 0.54388 0.90406 0.0
N453 N 0.61856 0.53308 0.97524 0.0
H454 H 0.47233 0.58035 0.97829 0.0
H455 H 0.52573 0.55679 0.99141 0.0
H456 H 0.65373 0.51486 0.97552 0.0
H457 H 0.61993 0.55971 0.98842 0.0
H458 H 0.50183 0.53572 0.88972 0.0
H459 H 0.45693 0.56769 0.90341 0.0
H460 H 0.52731 0.45765 0.89201 0.0
H461 H 0.59181 0.447 0.90389 0.0
C462 C 0.04028 0.55482 0.29585 0.0
C463 C 0.07376 0.56609 0.27662 0.0
C464 C 0.96008 0.49177 0.26011 0.0
C465 C 0.92756 0.47617 0.27956 0.0
N466 N 0.93645 0.484 0.31617 0.0
N467 N 0.06738 0.54518 0.24043 0.0
C468 C 0.96758 0.50567 0.29749 0.0
C469 C 0.03405 0.53437 0.25875 0.0
N470 N 0.07788 0.59122 0.31255 0.0
N471 N 0.91985 0.46789 0.24291 0.0
H472 H 0.1201 0.58173 0.23848 0.0
H473 H 0.04373 0.51679 0.2273 0.0
H474 H 0.86595 0.43472 0.24334 0.0
H475 H 0.93882 0.48369 0.22818 0.0
H476 H 0.05547 0.59122 0.32647 0.0
H477 H 0.13139 0.62617 0.31216 0.0
H478 H 0.96347 0.49757 0.32994 0.0
H479 H 0.88374 0.44701 0.31788 0.0
C480 C 0.53739 0.50726 0.08949 0.0
C481 C 0.5682 0.49992 0.10773 0.0
C482 C 0.50788 0.54745 0.12764 0.0
C483 C 0.47992 0.55787 0.10932 0.0
N484 N 0.4759 0.55859 0.07257 0.0
N485 N 0.58993 0.52018 0.14387 0.0
C486 C 0.49655 0.54045 0.09016 0.0
C487 C 0.55589 0.52257 0.12671 0.0
N488 N 0.54711 0.48233 0.07149 0.0
N489 N 0.48598 0.55844 0.14602 0.0
H490 H 0.62224 0.49863 0.14418 0.0
H491 H 0.58997 0.54357 0.1576 0.0
H492 H 0.45115 0.57689 0.14732 0.0
H493 H 0.49773 0.54433 0.16002 0.0
H494 H 0.51907 0.4776 0.05823 0.0
H495 H 0.5811 0.46298 0.06994 0.0
H496 H 0.49294 0.55501 0.05809 0.0
H497 H 0.44546 0.58234 0.07245 0.0
C498 C 0.97563 0.50181 0.42751 0.0
C499 C 0.93676 0.48925 0.44576 0.0
C500 C 0.04422 0.56524 0.46473 0.0
C501 C 0.08275 0.58009 0.44631 0.0
N502 N 0.08533 0.57258 0.40969 0.0
N503 N 0.93111 0.51485 0.48119 0.0
C504 C 0.04841 0.55156 0.42752 0.0
C505 C 0.97024 0.52288 0.46421 0.0
N506 N 0.94312 0.46502 0.4103 0.0
N507 N 0.07871 0.59071 0.4828 0.0
H508 H 0.87726 0.48134 0.48176 0.0
H509 H 0.95102 0.54419 0.4944 0.0
H510 H 0.13225 0.62577 0.48364 0.0
H511 H 0.05523 0.57484 0.49705 0.0
H512 H 0.96932 0.46608 0.39704 0.0
H513 H 0.88979 0.42906 0.40968 0.0
H514 H 0.06257 0.55935 0.39529 0.0
H515 H 0.13871 0.60823 0.40919 0.0
C516 C 0.50434 0.02995 0.75491 0.0
C517 C 0.56002 0.07207 0.76835 0.0
C518 C 0.55121 0.96677 0.78424 0.0
C519 C 0.49861 0.92493 0.76995 0.0
N520 N 0.42792 0.91502 0.7407 0.0
N521 N 0.63923 0.08263 0.79533 0.0
C522 C 0.47559 0.95607 0.75511 0.0
C523 C 0.58445 0.041 0.78282 0.0
N524 N 0.47884 0.06068 0.74199 0.0
N525 N 0.56666 0.93529 0.79984 0.0
H526 H 0.66042 0.13661 0.79632 0.0
H527 H 0.66584 0.06443 0.80422 0.0
H528 H 0.54352 0.88116 0.80136 0.0
H529 H 0.59856 0.962 0.81215 0.0
H530 H 0.43303 0.03314 0.73362 0.0
H531 H 0.5015 0.11468 0.74032 0.0
H532 H 0.41504 0.93433 0.72792 0.0
H533 H 0.40374 0.8607 0.74078 0.0
C534 C 0.56927 0.58596 0.63166 0.0
C535 C 0.53788 0.59007 0.61318 0.0
C536 C 0.55853 0.50109 0.59782 0.0
C537 C 0.59384 0.50022 0.61583 0.0
N538 N 0.64073 0.54706 0.64905 0.0
N539 N 0.51339 0.56184 0.57755 0.0
C540 C 0.60188 0.54455 0.63247 0.0
C541 C 0.53533 0.5503 0.59595 0.0
N542 N 0.56472 0.61868 0.64874 0.0
N543 N 0.54685 0.45464 0.58254 0.0
H544 H 0.49726 0.59842 0.57552 0.0
H545 H 0.51704 0.54013 0.56389 0.0
H546 H 0.56552 0.4198 0.58296 0.0
H547 H 0.51458 0.44705 0.57008 0.0
H548 H 0.57915 0.61115 0.66325 0.0
H549 H 0.54151 0.64964 0.64876 0.0
H550 H 0.6558 0.58432 0.66051 0.0
H551 H 0.6616 0.5143 0.65085 0.0
C552 C 0.06965 0.4929 0.95573 0.0
C553 C 0.10648 0.53477 0.93864 0.0
C554 C 0.99603 0.50916 0.92239 0.0
C555 C 0.95963 0.473 0.94031 0.0
N556 N 0.96053 0.42994 0.97422 0.0
N557 N 0.10676 0.58533 0.90586 0.0
C558 C 0.99602 0.46395 0.95693 0.0
C559 C 0.07019 0.54373 0.92204 0.0
N560 N 0.10519 0.48096 0.97087 0.0
N561 N 0.95937 0.50673 0.90526 0.0
H562 H 0.16025 0.60594 0.90397 0.0
H563 H 0.08486 0.60213 0.89471 0.0
H564 H 0.90503 0.48023 0.90468 0.0
H565 H 0.98204 0.52526 0.89102 0.0
H566 H 0.08137 0.44418 0.98247 0.0
H567 H 0.15941 0.5054 0.97141 0.0
H568 H 0.98424 0.42997 0.98794 0.0
H569 H 0.90647 0.40348 0.97526 0.0
C570 C 0.51978 0.97287 0.26475 0.0
C571 C 0.46528 0.93995 0.27934 0.0
C572 C 0.49214 0.05489 0.29228 0.0
C573 C 0.54867 0.0877 0.27831 0.0
N574 N 0.62178 0.07887 0.25274 0.0
N575 N 0.40707 0.94791 0.30931 0.0
C576 C 0.56433 0.04688 0.26507 0.0
C577 C 0.45321 0.98051 0.29368 0.0
N578 N 0.52692 0.93351 0.24998 0.0
N579 N 0.47561 0.09492 0.30425 0.0
H580 H 0.37805 0.89368 0.31097 0.0
H581 H 0.40142 0.97417 0.32161 0.0
H582 H 0.50597 0.14925 0.30494 0.0
H583 H 0.42992 0.07483 0.31275 0.0
H584 H 0.5596 0.95447 0.23739 0.0
H585 H 0.49623 0.87924 0.24942 0.0
H586 H 0.64122 0.05208 0.24462 0.0
H587 H 0.65313 0.13299 0.25149 0.0
loop_
_geom_bond_atom_site_label_1
_geom_bond_atom_site_label_2
_geom_bond_distance
_geom_bond_site_symmetry_2
_ccdc_geom_bond_type
Mg0 O7 2.141 . S
Mg0 O8 2.048 . S
Mg0 O9 2.048 . S
Mg0 O12 2.141 . S
C1 O2 1.313 . S
C1 O8 1.195 . S
O2 C1 1.313 . S
C3 O4 1.245 . S
C3 O12 1.289 . S
O4 C3 1.245 . S
C5 O6 1.245 . S
C5 O7 1.289 . S
O6 C5 1.245 . S
O7 Mg0 2.141 . S
O7 C5 1.289 . S
O8 Mg0 2.048 . S
O8 C1 1.195 . S
O9 Mg0 2.048 . S
O9 C10 1.195 . S
C10 O9 1.195 . S
C10 O11 1.313 . S
O11 C10 1.313 . S
O12 Mg0 2.141 . S
O12 C3 1.289 . S
Mg13 O20 2.141 . S
Mg13 O21 2.048 . S
Mg13 O22 2.048 . S
Mg13 O25 2.141 . S
C14 O15 1.313 . S
C14 O21 1.195 . S
O15 C14 1.313 . S
C16 O17 1.245 . S
C16 O25 1.289 . S
O17 C16 1.245 . S
C18 O19 1.245 . S
C18 O20 1.289 . S
O19 C18 1.245 . S
O20 Mg13 2.141 . S
O20 C18 1.289 . S
O21 Mg13 2.048 . S
O21 C14 1.195 . S
O22 Mg13 2.048 . S
O22 C23 1.195 . S
C23 O22 1.195 . S
C23 O24 1.313 . S
O24 C23 1.313 . S
O25 Mg13 2.141 . S
O25 C16 1.289 . S
Mg26 O33 2.141 . S
Mg26 O34 2.048 . S
Mg26 O35 2.048 . S
Mg26 O38 2.141 . S
C27 O28 1.313 . S
C27 O34 1.195 . S
O28 C27 1.313 . S
C29 O30 1.245 . S
C29 O38 1.289 . S
O30 C29 1.245 . S
C31 O32 1.245 . S
C31 O33 1.289 . S
O32 C31 1.245 . S
O33 Mg26 2.141 . S
O33 C31 1.289 . S
O34 Mg26 2.048 . S
O34 C27 1.195 . S
O35 Mg26 2.048 . S
O35 C36 1.195 . S
C36 O35 1.195 . S
C36 O37 1.313 . S
O37 C36 1.313 . S
O38 Mg26 2.141 . S
O38 C29 1.289 . S
Mg39 O46 2.141 . S
Mg39 O47 2.048 . S
Mg39 O48 2.048 . S
Mg39 O51 2.141 . S
C40 O41 1.313 . S
C40 O47 1.195 . S
O41 C40 1.313 . S
C42 O43 1.245 . S
C42 O51 1.289 . S
O43 C42 1.245 . S
C44 O45 1.245 . S
C44 O46 1.289 . S
O45 C44 1.245 . S
O46 Mg39 2.141 . S
O46 C44 1.289 . S
O47 Mg39 2.048 . S
O47 C40 1.195 . S
O48 Mg39 2.048 . S
O48 C49 1.195 . S
C49 O48 1.195 . S
C49 O50 1.313 . S
O50 C49 1.313 . S
O51 Mg39 2.141 . S
O51 C42 1.289 . S
Mg52 O59 2.141 . S
Mg52 O60 2.048 . S
Mg52 O61 2.048 . S
Mg52 O64 2.141 . S
C53 O54 1.313 . S
C53 O60 1.195 . S
O54 C53 1.313 . S
C55 O56 1.245 . S
C55 O64 1.289 . S
O56 C55 1.245 . S
C57 O58 1.245 . S
C57 O59 1.289 . S
O58 C57 1.245 . S
O59 Mg52 2.141 . S
O59 C57 1.289 . S
O60 Mg52 2.048 . S
O60 C53 1.195 . S
O61 Mg52 2.048 . S
O61 C62 1.195 . S
C62 O61 1.195 . S
C62 O63 1.313 . S
O63 C62 1.313 . S
O64 Mg52 2.141 . S
O64 C55 1.289 . S
Mg65 O72 2.141 . S
Mg65 O73 2.048 . S
Mg65 O74 2.048 . S
Mg65 O77 2.141 . S
C66 O67 1.313 . S
C66 O73 1.195 . S
O67 C66 1.313 . S
C68 O69 1.245 . S
C68 O77 1.289 . S
O69 C68 1.245 . S
C70 O71 1.245 . S
C70 O72 1.289 . S
O71 C70 1.245 . S
O72 Mg65 2.141 . S
O72 C70 1.289 . S
O73 Mg65 2.048 . S
O73 C66 1.195 . S
O74 Mg65 2.048 . S
O74 C75 1.195 . S
C75 O74 1.195 . S
C75 O76 1.313 . S
O76 C75 1.313 . S
O77 Mg65 2.141 . S
O77 C68 1.289 . S
Mg78 O85 2.141 . S
Mg78 O86 2.048 . S
Mg78 O87 2.048 . S
Mg78 O90 2.141 . S
C79 O80 1.313 . S
C79 O86 1.195 . S
O80 C79 1.313 . S
C81 O82 1.245 . S
C81 O90 1.289 . S
O82 C81 1.245 . S
C83 O84 1.245 . S
C83 O85 1.289 . S
O84 C83 1.245 . S
O85 Mg78 2.141 . S
O85 C83 1.289 . S
O86 Mg78 2.048 . S
O86 C79 1.195 . S
O87 Mg78 2.048 . S
O87 C88 1.195 . S
C88 O87 1.195 . S
C88 O89 1.313 . S
O89 C88 1.313 . S
O90 Mg78 2.141 . S
O90 C81 1.289 . S
Mg91 O98 2.141 . S
Mg91 O99 2.048 . S
Mg91 O100 2.048 . S
Mg91 O103 2.141 . S
C92 O93 1.313 . S
C92 O99 1.195 . S
O93 C92 1.313 . S
C94 O95 1.245 . S
C94 O103 1.289 . S
O95 C94 1.245 . S
C96 O97 1.245 . S
C96 O98 1.289 . S
O97 C96 1.245 . S
O98 Mg91 2.141 . S
O98 C96 1.289 . S
O99 Mg91 2.048 . S
O99 C92 1.195 . S
O100 Mg91 2.048 . S
O100 C101 1.195 . S
C101 O100 1.195 . S
C101 O102 1.313 . S
O102 C101 1.313 . S
O103 Mg91 2.141 . S
O103 C94 1.289 . S
Mg104 O111 2.141 . S
Mg104 O112 2.048 . S
Mg104 O113 2.048 . S
Mg104 O116 2.141 . S
C105 O106 1.313 . S
C105 O112 1.195 . S
O106 C105 1.313 . S
C107 O108 1.245 . S
C107 O116 1.289 . S
O108 C107 1.245 . S
C109 O110 1.245 . S
C109 O111 1.289 . S
O110 C109 1.245 . S
O111 Mg104 2.141 . S
O111 C109 1.289 . S
O112 Mg104 2.048 . S
O112 C105 1.195 . S
O113 Mg104 2.048 . S
O113 C114 1.195 . S
C114 O113 1.195 . S
C114 O115 1.313 . S
O115 C114 1.313 . S
O116 Mg104 2.141 . S
O116 C107 1.289 . S
Mg117 O124 2.141 . S
Mg117 O125 2.048 . S
Mg117 O126 2.048 . S
Mg117 O129 2.141 . S
C118 O119 1.313 . S
C118 O125 1.195 . S
O119 C118 1.313 . S
C120 O121 1.245 . S
C120 O129 1.289 . S
O121 C120 1.245 . S
C122 O123 1.245 . S
C122 O124 1.289 . S
O123 C122 1.245 . S
O124 Mg117 2.141 . S
O124 C122 1.289 . S
O125 Mg117 2.048 . S
O125 C118 1.195 . S
O126 Mg117 2.048 . S
O126 C127 1.195 . S
C127 O126 1.195 . S
C127 O128 1.313 . S
O128 C127 1.313 . S
O129 Mg117 2.141 . S
O129 C120 1.289 . S
Mg130 O137 2.141 . S
Mg130 O138 2.048 . S
Mg130 O139 2.048 . S
Mg130 O142 2.141 . S
C131 O132 1.313 . S
C131 O138 1.195 . S
O132 C131 1.313 . S
C133 O134 1.245 . S
C133 O142 1.289 . S
O134 C133 1.245 . S
C135 O136 1.245 . S
C135 O137 1.289 . S
O136 C135 1.245 . S
O137 Mg130 2.141 . S
O137 C135 1.289 . S
O138 Mg130 2.048 . S
O138 C131 1.195 . S
O139 Mg130 2.048 . S
O139 C140 1.195 . S
C140 O139 1.195 . S
C140 O141 1.313 . S
O141 C140 1.313 . S
O142 Mg130 2.141 . S
O142 C133 1.289 . S
Mg143 O150 2.141 . S
Mg143 O151 2.048 . S
Mg143 O152 2.048 . S
Mg143 O155 2.141 . S
C144 O145 1.313 . S
C144 O151 1.195 . S
O145 C144 1.313 . S
C146 O147 1.245 . S
C146 O155 1.289 . S
O147 C146 1.245 . S
C148 O149 1.245 . S
C148 O150 1.289 . S
O149 C148 1.245 . S
O150 Mg143 2.141 . S
O150 C148 1.289 . S
O151 Mg143 2.048 . S
O151 C144 1.195 . S
O152 Mg143 2.048 . S
O152 C153 1.195 . S
C153 O152 1.195 . S
C153 O154 1.313 . S
O154 C153 1.313 . S
O155 Mg143 2.141 . S
O155 C146 1.289 . S
C156 C157 1.363 . S
C156 C162 1.379 1_556 S
C156 N164 1.356 . S
C157 C156 1.363 . S
C157 C163 1.363 . S
C158 C159 1.363 . S
C158 C163 1.379 1_554 S
C158 N165 1.356 . S
C159 C158 1.363 . S
C159 C162 1.363 . S
N160 C162 1.356 . S
N160 H172 0.984 . S
N160 H173 0.985 . S
N161 C163 1.356 . S
N161 H166 0.984 . S
N161 H167 0.985 . S
C162 C156 1.379 1_554 S
C162 C159 1.363 . S
C162 N160 1.356 . S
C163 C157 1.363 . S
C163 C158 1.379 1_556 S
C163 N161 1.356 . S
N164 C156 1.356 . S
N164 H170 0.984 . S
N164 H171 0.984 . S
N165 C158 1.356 . S
N165 H168 0.984 . S
N165 H169 0.985 . S
H166 N161 0.984 . S
H167 N161 0.985 . S
H168 N165 0.984 . S
H169 N165 0.985 . S
H170 N164 0.984 . S
H171 N164 0.984 . S
H172 N160 0.984 . S
H173 N160 0.985 . S
C174 C175 1.363 . S
C174 C180 1.379 . S
C174 N182 1.356 . S
C175 C174 1.363 . S
C175 C181 1.363 . S
C176 C177 1.363 . S
C176 C181 1.379 . S
C176 N183 1.356 . S
C177 C176 1.363 . S
C177 C180 1.363 . S
N178 C180 1.356 . S
N178 H190 0.984 . S
N178 H191 0.985 . S
N179 C181 1.356 . S
N179 H184 0.984 . S
N179 H185 0.985 . S
C180 C174 1.379 . S
C180 C177 1.363 . S
C180 N178 1.356 . S
C181 C175 1.363 . S
C181 C176 1.379 . S
C181 N179 1.356 . S
N182 C174 1.356 . S
N182 H188 0.984 . S
N182 H189 0.984 . S
N183 C176 1.356 . S
N183 H186 0.984 . S
N183 H187 0.985 . S
H184 N179 0.984 . S
H185 N179 0.985 . S
H186 N183 0.984 . S
H187 N183 0.985 . S
H188 N182 0.984 . S
H189 N182 0.984 . S
H190 N178 0.984 . S
H191 N178 0.985 . S
C192 C193 1.363 . S
C192 C198 1.379 . S
C192 N200 1.356 . S
C193 C192 1.363 . S
C193 C199 1.363 . S
C194 C195 1.363 . S
C194 C199 1.379 . S
C194 N201 1.356 . S
C195 C194 1.363 . S
C195 C198 1.363 . S
N196 C198 1.356 . S
N196 H208 0.984 . S
N196 H209 0.985 . S
N197 C199 1.356 . S
N197 H202 0.984 . S
N197 H203 0.985 . S
C198 C192 1.379 . S
C198 C195 1.363 . S
C198 N196 1.356 . S
C199 C193 1.363 . S
C199 C194 1.379 . S
C199 N197 1.356 . S
N200 C192 1.356 . S
N200 H206 0.984 . S
N200 H207 0.984 . S
N201 C194 1.356 . S
N201 H204 0.984 . S
N201 H205 0.985 . S
H202 N197 0.984 . S
H203 N197 0.985 . S
H204 N201 0.984 . S
H205 N201 0.985 . S
H206 N200 0.984 . S
H207 N200 0.984 . S
H208 N196 0.984 . S
H209 N196 0.985 . S
C210 C211 1.363 . S
C210 C216 1.379 1_554 S
C210 N218 1.356 . S
C211 C210 1.363 . S
C211 C217 1.363 . S
C212 C213 1.363 . S
C212 C217 1.379 1_556 S
C212 N219 1.356 . S
C213 C212 1.363 . S
C213 C216 1.363 . S
N214 C216 1.356 . S
N214 H226 0.984 . S
N214 H227 0.985 . S
N215 C217 1.356 . S
N215 H220 0.984 . S
N215 H221 0.985 . S
C216 C210 1.379 1_556 S
C216 C213 1.363 . S
C216 N214 1.356 . S
C217 C211 1.363 . S
C217 C212 1.379 1_554 S
C217 N215 1.356 . S
N218 C210 1.356 . S
N218 H224 0.984 . S
N218 H225 0.984 . S
N219 C212 1.356 . S
N219 H222 0.984 . S
N219 H223 0.985 . S
H220 N215 0.984 . S
H221 N215 0.985 . S
H222 N219 0.984 . S
H223 N219 0.985 . S
H224 N218 0.984 . S
H225 N218 0.984 . S
H226 N214 0.984 . S
H227 N214 0.985 . S
C228 C229 1.363 . S
C228 C234 1.379 . S
C228 N236 1.356 . S
C229 C228 1.363 . S
C229 C235 1.363 . S
C230 C231 1.363 . S
C230 C235 1.379 . S
C230 N237 1.356 . S
C231 C230 1.363 . S
C231 C234 1.363 . S
N232 C234 1.356 . S
N232 H244 0.984 . S
N232 H245 0.985 . S
N233 C235 1.356 . S
N233 H238 0.984 . S
N233 H239 0.985 . S
C234 C228 1.379 . S
C234 C231 1.363 . S
C234 N232 1.356 . S
C235 C229 1.363 . S
C235 C230 1.379 . S
C235 N233 1.356 . S
N236 C228 1.356 . S
N236 H242 0.984 . S
N236 H243 0.984 . S
N237 C230 1.356 . S
N237 H240 0.984 . S
N237 H241 0.985 . S
H238 N233 0.984 . S
H239 N233 0.985 . S
H240 N237 0.984 . S
H241 N237 0.985 . S
H242 N236 0.984 . S
H243 N236 0.984 . S
H244 N232 0.984 . S
H245 N232 0.985 . S
C246 C247 1.363 . S
C246 C252 1.379 . S
C246 N254 1.356 . S
C247 C246 1.363 . S
C247 C253 1.363 . S
C248 C249 1.363 . S
C248 C253 1.379 . S
C248 N255 1.356 . S
C249 C248 1.363 . S
C249 C252 1.363 . S
N250 C252 1.356 . S
N250 H262 0.984 . S
N250 H263 0.985 . S
N251 C253 1.356 . S
N251 H256 0.984 . S
N251 H257 0.985 . S
C252 C246 1.379 . S
C252 C249 1.363 . S
C252 N250 1.356 . S
C253 C247 1.363 . S
C253 C248 1.379 . S
C253 N251 1.356 . S
N254 C246 1.356 . S
N254 H260 0.984 . S
N254 H261 0.984 . S
N255 C248 1.356 . S
N255 H258 0.984 . S
N255 H259 0.985 . S
H256 N251 0.984 . S
H257 N251 0.985 . S
H258 N255 0.984 . S
H259 N255 0.985 . S
H260 N254 0.984 . S
H261 N254 0.984 . S
H262 N250 0.984 . S
H263 N250 0.985 . S
C264 C265 1.363 . S
C264 C270 1.379 . S
C264 N272 1.356 . S
C265 C264 1.363 . S
C265 C271 1.363 . S
C266 C267 1.363 . S
C266 C271 1.379 . S
C266 N273 1.356 . S
C267 C266 1.363 . S
C267 C270 1.363 . S
N268 C270 1.356 . S
N268 H280 0.984 . S
N268 H281 0.985 . S
N269 C271 1.356 . S
N269 H274 0.984 . S
N269 H275 0.985 . S
C270 C264 1.379 . S
C270 C267 1.363 . S
C270 N268 1.356 . S
C271 C265 1.363 . S
C271 C266 1.379 . S
C271 N269 1.356 . S
N272 C264 1.356 . S
N272 H278 0.984 . S
N272 H279 0.984 . S
N273 C266 1.356 . S
N273 H276 0.984 . S
N273 H277 0.985 . S
H274 N269 0.984 . S
H275 N269 0.985 . S
H276 N273 0.984 . S
H277 N273 0.985 . S
H278 N272 0.984 . S
H279 N272 0.984 . S
H280 N268 0.984 . S
H281 N268 0.985 . S
C282 C283 1.363 . S
C282 C288 1.379 . S
C282 N290 1.356 . S
C283 C282 1.363 . S
C283 C289 1.363 . S
C284 C285 1.363 . S
C284 C289 1.379 . S
C284 N291 1.356 . S
C285 C284 1.363 . S
C285 C288 1.363 . S
N286 C288 1.356 . S
N286 H298 0.984 . S
N286 H299 0.985 . S
N287 C289 1.356 . S
N287 H292 0.984 . S
N287 H293 0.985 . S
C288 C282 1.379 . S
C288 C285 1.363 . S
C288 N286 1.356 . S
C289 C283 1.363 . S
C289 C284 1.379 . S
C289 N287 1.356 . S
N290 C282 1.356 . S
N290 H296 0.984 . S
N290 H297 0.984 . S
N291 C284 1.356 . S
N291 H294 0.984 . S
N291 H295 0.985 . S
H292 N287 0.984 . S
H293 N287 0.985 . S
H294 N291 0.984 . S
H295 N291 0.985 . S
H296 N290 0.984 . S
H297 N290 0.984 . S
H298 N286 0.984 . S
H299 N286 0.985 . S
C300 C301 1.363 . S
C300 C306 1.379 . S
C300 N308 1.356 . S
C301 C300 1.363 . S
C301 C307 1.363 . S
C302 C303 1.363 . S
C302 C307 1.379 . S
C302 N309 1.356 . S
C303 C302 1.363 . S
C303 C306 1.363 . S
N304 C306 1.356 . S
N304 H316 0.984 . S
N304 H317 0.985 . S
N305 C307 1.356 . S
N305 H310 0.984 . S
N305 H311 0.985 . S
C306 C300 1.379 . S
C306 C303 1.363 . S
C306 N304 1.356 . S
C307 C301 1.363 . S
C307 C302 1.379 . S
C307 N305 1.356 . S
N308 C300 1.356 . S
N308 H314 0.984 . S
N308 H315 0.984 . S
N309 C302 1.356 . S
N309 H312 0.984 . S
N309 H313 0.985 . S
H310 N305 0.984 . S
H311 N305 0.985 . S
H312 N309 0.984 . S
H313 N309 0.985 . S
H314 N308 0.984 . S
H315 N308 0.984 . S
H316 N304 0.984 . S
H317 N304 0.985 . S
C318 C319 1.363 . S
C318 C324 1.379 . S
C318 N326 1.356 . S
C319 C318 1.363 . S
C319 C325 1.363 . S
C320 C321 1.363 . S
C320 C325 1.379 . S
C320 N327 1.356 . S
C321 C320 1.363 . S
C321 C324 1.363 . S
N322 C324 1.356 . S
N322 H334 0.984 . S
N322 H335 0.985 . S
N323 C325 1.356 . S
N323 H328 0.984 . S
N323 H329 0.985 . S
C324 C318 1.379 . S
C324 C321 1.363 . S
C324 N322 1.356 . S
C325 C319 1.363 . S
C325 C320 1.379 . S
C325 N323 1.356 . S
N326 C318 1.356 . S
N326 H332 0.984 . S
N326 H333 0.984 . S
N327 C320 1.356 . S
N327 H330 0.984 . S
N327 H331 0.985 . S
H328 N323 0.984 . S
H329 N323 0.985 . S
H330 N327 0.984 . S
H331 N327 0.985 . S
H332 N326 0.984 . S
H333 N326 0.984 . S
H334 N322 0.984 . S
H335 N322 0.985 . S
C336 C337 1.363 . S
C336 C342 1.379 . S
C336 N344 1.356 . S
C337 C336 1.363 . S
C337 C343 1.363 . S
C338 C339 1.363 . S
C338 C343 1.379 . S
C338 N345 1.356 . S
C339 C338 1.363 . S
C339 C342 1.363 . S
N340 C342 1.356 . S
N340 H352 0.984 . S
N340 H353 0.985 . S
N341 C343 1.356 . S
N341 H346 0.984 . S
N341 H347 0.985 . S
C342 C336 1.379 . S
C342 C339 1.363 . S
C342 N340 1.356 . S
C343 C337 1.363 . S
C343 C338 1.379 . S
C343 N341 1.356 . S
N344 C336 1.356 . S
N344 H350 0.984 . S
N344 H351 0.984 . S
N345 C338 1.356 . S
N345 H348 0.984 . S
N345 H349 0.985 . S
H346 N341 0.984 . S
H347 N341 0.985 . S
H348 N345 0.984 . S
H349 N345 0.985 . S
H350 N344 0.984 . S
H351 N344 0.984 . S
H352 N340 0.984 . S
H353 N340 0.985 . S
C354 C355 1.363 . S
C354 C360 1.379 . S
C354 N362 1.356 . S
C355 C354 1.363 . S
C355 C361 1.363 . S
C356 C357 1.363 . S
C356 C361 1.379 . S
C356 N363 1.356 . S
C357 C356 1.363 . S
C357 C360 1.363 . S
N358 C360 1.356 . S
N358 H370 0.984 . S
N358 H371 0.985 . S
N359 C361 1.356 . S
N359 H364 0.984 . S
N359 H365 0.985 . S
C360 C354 1.379 . S
C360 C357 1.363 . S
C360 N358 1.356 . S
C361 C355 1.363 . S
C361 C356 1.379 . S
C361 N359 1.356 . S
N362 C354 1.356 . S
N362 H368 0.984 . S
N362 H369 0.984 . S
N363 C356 1.356 . S
N363 H366 0.984 . S
N363 H367 0.985 . S
H364 N359 0.984 . S
H365 N359 0.985 . S
H366 N363 0.984 . S
H367 N363 0.985 . S
H368 N362 0.984 . S
H369 N362 0.984 . S
H370 N358 0.984 . S
H371 N358 0.985 . S
C372 C373 1.363 . S
C372 C378 1.379 1_655 S
C372 N380 1.356 . S
C373 C372 1.363 . S
C373 C379 1.363 . S
C374 C375 1.363 . S
C374 C379 1.379 1_455 S
C374 N381 1.356 . S
C375 C374 1.363 . S
C375 C378 1.363 . S
N376 C378 1.356 . S
N376 H388 0.984 . S
N376 H389 0.985 . S
N377 C379 1.356 . S
N377 H382 0.984 . S
N377 H383 0.985 . S
C378 C372 1.379 1_455 S
C378 C375 1.363 . S
C378 N376 1.356 . S
C379 C373 1.363 . S
C379 C374 1.379 1_655 S
C379 N377 1.356 . S
N380 C372 1.356 . S
N380 H386 0.984 . S
N380 H387 0.984 . S
N381 C374 1.356 . S
N381 H384 0.984 . S
N381 H385 0.985 . S
H382 N377 0.984 . S
H383 N377 0.985 . S
H384 N381 0.984 . S
H385 N381 0.985 . S
H386 N380 0.984 . S
H387 N380 0.984 . S
H388 N376 0.984 . S
H389 N376 0.985 . S
C390 C391 1.363 . S
C390 C396 1.379 1_545 S
C390 N398 1.356 . S
C391 C390 1.363 . S
C391 C397 1.363 . S
C392 C393 1.363 . S
C392 C397 1.379 1_565 S
C392 N399 1.356 . S
C393 C392 1.363 . S
C393 C396 1.363 . S
N394 C396 1.356 . S
N394 H406 0.984 . S
N394 H407 0.985 . S
N395 C397 1.356 . S
N395 H400 0.984 . S
N395 H401 0.985 . S
C396 C390 1.379 1_565 S
C396 C393 1.363 . S
C396 N394 1.356 . S
C397 C391 1.363 . S
C397 C392 1.379 1_545 S
C397 N395 1.356 . S
N398 C390 1.356 . S
N398 H404 0.984 . S
N398 H405 0.984 . S
N399 C392 1.356 . S
N399 H402 0.984 . S
N399 H403 0.985 . S
H400 N395 0.984 . S
H401 N395 0.985 . S
H402 N399 0.984 . S
H403 N399 0.985 . S
H404 N398 0.984 . S
H405 N398 0.984 . S
H406 N394 0.984 . S
H407 N394 0.985 . S
C408 C409 1.363 . S
C408 C414 1.379 . S
C408 N416 1.356 . S
C409 C408 1.363 . S
C409 C415 1.363 . S
C410 C411 1.363 . S
C410 C415 1.379 . S
C410 N417 1.356 . S
C411 C410 1.363 . S
C411 C414 1.363 . S
N412 C414 1.356 . S
N412 H424 0.984 . S
N412 H425 0.985 . S
N413 C415 1.356 . S
N413 H418 0.984 . S
N413 H419 0.985 . S
C414 C408 1.379 . S
C414 C411 1.363 . S
C414 N412 1.356 . S
C415 C409 1.363 . S
C415 C410 1.379 . S
C415 N413 1.356 . S
N416 C408 1.356 . S
N416 H422 0.984 . S
N416 H423 0.984 . S
N417 C410 1.356 . S
N417 H420 0.984 . S
N417 H421 0.985 . S
H418 N413 0.984 . S
H419 N413 0.985 . S
H420 N417 0.984 . S
H421 N417 0.985 . S
H422 N416 0.984 . S
H423 N416 0.984 . S
H424 N412 0.984 . S
H425 N412 0.985 . S
C426 C427 1.363 . S
C426 C432 1.379 1_545 S
C426 N434 1.356 . S
C427 C426 1.363 . S
C427 C433 1.363 . S
C428 C429 1.363 . S
C428 C433 1.379 1_565 S
C428 N435 1.356 . S
C429 C428 1.363 . S
C429 C432 1.363 . S
N430 C432 1.356 . S
N430 H442 0.984 . S
N430 H443 0.985 . S
N431 C433 1.356 . S
N431 H436 0.984 . S
N431 H437 0.985 . S
C432 C426 1.379 1_565 S
C432 C429 1.363 . S
C432 N430 1.356 . S
C433 C427 1.363 . S
C433 C428 1.379 1_545 S
C433 N431 1.356 . S
N434 C426 1.356 . S
N434 H440 0.984 . S
N434 H441 0.984 . S
N435 C428 1.356 . S
N435 H438 0.984 . S
N435 H439 0.985 . S
H436 N431 0.984 . S
H437 N431 0.985 . S
H438 N435 0.984 . S
H439 N435 0.985 . S
H440 N434 0.984 . S
H441 N434 0.984 . S
H442 N430 0.984 . S
H443 N430 0.985 . S
C444 C445 1.363 . S
C444 C450 1.379 . S
C444 N452 1.356 . S
C445 C444 1.363 . S
C445 C451 1.363 . S
C446 C447 1.363 . S
C446 C451 1.379 . S
C446 N453 1.356 . S
C447 C446 1.363 . S
C447 C450 1.363 . S
N448 C450 1.356 . S
N448 H460 0.984 . S
N448 H461 0.985 . S
N449 C451 1.356 . S
N449 H454 0.984 . S
N449 H455 0.985 . S
C450 C444 1.379 . S
C450 C447 1.363 . S
C450 N448 1.356 . S
C451 C445 1.363 . S
C451 C446 1.379 . S
C451 N449 1.356 . S
N452 C444 1.356 . S
N452 H458 0.984 . S
N452 H459 0.984 . S
N453 C446 1.356 . S
N453 H456 0.984 . S
N453 H457 0.985 . S
H454 N449 0.984 . S
H455 N449 0.985 . S
H456 N453 0.984 . S
H457 N453 0.985 . S
H458 N452 0.984 . S
H459 N452 0.984 . S
H460 N448 0.984 . S
H461 N448 0.985 . S
C462 C463 1.363 . S
C462 C468 1.379 1_455 S
C462 N470 1.356 . S
C463 C462 1.363 . S
C463 C469 1.363 . S
C464 C465 1.363 . S
C464 C469 1.379 1_655 S
C464 N471 1.356 . S
C465 C464 1.363 . S
C465 C468 1.363 . S
N466 C468 1.356 . S
N466 H478 0.984 . S
N466 H479 0.985 . S
N467 C469 1.356 . S
N467 H472 0.984 . S
N467 H473 0.985 . S
C468 C462 1.379 1_655 S
C468 C465 1.363 . S
C468 N466 1.356 . S
C469 C463 1.363 . S
C469 C464 1.379 1_455 S
C469 N467 1.356 . S
N470 C462 1.356 . S
N470 H476 0.984 . S
N470 H477 0.984 . S
N471 C464 1.356 . S
N471 H474 0.984 . S
N471 H475 0.985 . S
H472 N467 0.984 . S
H473 N467 0.985 . S
H474 N471 0.984 . S
H475 N471 0.985 . S
H476 N470 0.984 . S
H477 N470 0.984 . S
H478 N466 0.984 . S
H479 N466 0.985 . S
C480 C481 1.363 . S
C480 C486 1.379 . S
C480 N488 1.356 . S
C481 C480 1.363 . S
C481 C487 1.363 . S
C482 C483 1.363 . S
C482 C487 1.379 . S
C482 N489 1.356 . S
C483 C482 1.363 . S
C483 C486 1.363 . S
N484 C486 1.356 . S
N484 H496 0.984 . S
N484 H497 0.985 . S
N485 C487 1.356 . S
N485 H490 0.984 . S
N485 H491 0.985 . S
C486 C480 1.379 . S
C486 C483 1.363 . S
C486 N484 1.356 . S
C487 C481 1.363 . S
C487 C482 1.379 . S
C487 N485 1.356 . S
N488 C480 1.356 . S
N488 H494 0.984 . S
N488 H495 0.984 . S
N489 C482 1.356 . S
N489 H492 0.984 . S
N489 H493 0.985 . S
H490 N485 0.984 . S
H491 N485 0.985 . S
H492 N489 0.984 . S
H493 N489 0.985 . S
H494 N488 0.984 . S
H495 N488 0.984 . S
H496 N484 0.984 . S
H497 N484 0.985 . S
C498 C499 1.363 . S
C498 C504 1.379 1_655 S
C498 N506 1.356 . S
C499 C498 1.363 . S
C499 C505 1.363 . S
C500 C501 1.363 . S
C500 C505 1.379 1_455 S
C500 N507 1.356 . S
C501 C500 1.363 . S
C501 C504 1.363 . S
N502 C504 1.356 . S
N502 H514 0.984 . S
N502 H515 0.985 . S
N503 C505 1.356 . S
N503 H508 0.984 . S
N503 H509 0.985 . S
C504 C498 1.379 1_455 S
C504 C501 1.363 . S
C504 N502 1.356 . S
C505 C499 1.363 . S
C505 C500 1.379 1_655 S
C505 N503 1.356 . S
N506 C498 1.356 . S
N506 H512 0.984 . S
N506 H513 0.984 . S
N507 C500 1.356 . S
N507 H510 0.984 . S
N507 H511 0.985 . S
H508 N503 0.984 . S
H509 N503 0.985 . S
H510 N507 0.984 . S
H511 N507 0.985 . S
H512 N506 0.984 . S
H513 N506 0.984 . S
H514 N502 0.984 . S
H515 N502 0.985 . S
C516 C517 1.363 . S
C516 C522 1.379 1_545 S
C516 N524 1.356 . S
C517 C516 1.363 . S
C517 C523 1.363 . S
C518 C519 1.363 . S
C518 C523 1.379 1_565 S
C518 N525 1.356 . S
C519 C518 1.363 . S
C519 C522 1.363 . S
N520 C522 1.356 . S
N520 H532 0.984 . S
N520 H533 0.985 . S
N521 C523 1.356 . S
N521 H526 0.984 . S
N521 H527 0.985 . S
C522 C516 1.379 1_565 S
C522 C519 1.363 . S
C522 N520 1.356 . S
C523 C517 1.363 . S
C523 C518 1.379 1_545 S
C523 N521 1.356 . S
N524 C516 1.356 . S
N524 H530 0.984 . S
N524 H531 0.984 . S
N525 C518 1.356 . S
N525 H528 0.984 . S
N525 H529 0.985 . S
H526 N521 0.984 . S
H527 N521 0.985 . S
H528 N525 0.984 . S
H529 N525 0.985 . S
H530 N524 0.984 . S
H531 N524 0.984 . S
H532 N520 0.984 . S
H533 N520 0.985 . S
C534 C535 1.363 . S
C534 C540 1.379 . S
C534 N542 1.356 . S
C535 C534 1.363 . S
C535 C541 1.363 . S
C536 C537 1.363 . S
C536 C541 1.379 . S
C536 N543 1.356 . S
C537 C536 1.363 . S
C537 C540 1.363 . S
N538 C540 1.356 . S
N538 H550 0.984 . S
N538 H551 0.985 . S
N539 C541 1.356 . S
N539 H544 0.984 . S
N539 H545 0.985 . S
C540 C534 1.379 . S
C540 C537 1.363 . S
C540 N538 1.356 . S
C541 C535 1.363 . S
C541 C536 1.379 . S
C541 N539 1.356 . S
N542 C534 1.356 . S
N542 H548 0.984 . S
N542 H549 0.984 . S
N543 C536 1.356 . S
N543 H546 0.984 . S
N543 H547 0.985 . S
H544 N539 0.984 . S
H545 N539 0.985 . S
H546 N543 0.984 . S
H547 N543 0.985 . S
H548 N542 0.984 . S
H549 N542 0.984 . S
H550 N538 0.984 . S
H551 N538 0.985 . S
C552 C553 1.363 . S
C552 C558 1.379 1_455 S
C552 N560 1.356 . S
C553 C552 1.363 . S
C553 C559 1.363 . S
C554 C555 1.363 . S
C554 C559 1.379 1_655 S
C554 N561 1.356 . S
C555 C554 1.363 . S
C555 C558 1.363 . S
N556 C558 1.356 . S
N556 H568 0.984 . S
N556 H569 0.985 . S
N557 C559 1.356 . S
N557 H562 0.984 . S
N557 H563 0.985 . S
C558 C552 1.379 1_655 S
C558 C555 1.363 . S
C558 N556 1.356 . S
C559 C553 1.363 . S
C559 C554 1.379 1_455 S
C559 N557 1.356 . S
N560 C552 1.356 . S
N560 H566 0.984 . S
N560 H567 0.984 . S
N561 C554 1.356 . S
N561 H564 0.984 . S
N561 H565 0.985 . S
H562 N557 0.984 . S
H563 N557 0.985 . S
H564 N561 0.984 . S
H565 N561 0.985 . S
H566 N560 0.984 . S
H567 N560 0.984 . S
H568 N556 0.984 . S
H569 N556 0.985 . S
C570 C571 1.363 . S
C570 C576 1.379 1_565 S
C570 N578 1.356 . S
C571 C570 1.363 . S
C571 C577 1.363 . S
C572 C573 1.363 . S
C572 C577 1.379 1_545 S
C572 N579 1.356 . S
C573 C572 1.363 . S
C573 C576 1.363 . S
N574 C576 1.356 . S
N574 H586 0.984 . S
N574 H587 0.985 . S
N575 C577 1.356 . S
N575 H580 0.984 . S
N575 H581 0.985 . S
C576 C570 1.379 1_545 S
C576 C573 1.363 . S
C576 N574 1.356 . S
C577 C571 1.363 . S
C577 C572 1.379 1_565 S
C577 N575 1.356 . S
N578 C570 1.356 . S
N578 H584 0.984 . S
N578 H585 0.984 . S
N579 C572 1.356 . S
N579 H582 0.984 . S
N579 H583 0.985 . S
H580 N575 0.984 . S
H581 N575 0.985 . S
H582 N579 0.984 . S
H583 N579 0.985 . S
H584 N578 0.984 . S
H585 N578 0.984 . S
H586 N574 0.984 . S
H587 N574 0.985 . S
C157 C131 1.537 . S
C159 C1 1.537 . S
C175 C14 1.537 . S
C177 C144 1.537 . S
C193 C27 1.537 . S
C195 C79 1.537 . S
C211 C40 1.537 . S
C213 C92 1.536 . S
C229 C105 1.536 . S
C231 C53 1.536 . S
C247 C66 1.536 . S
C249 C118 1.537 . S
C265 C107 1.554 . S
C267 C3 1.554 . S
C283 C16 1.554 . S
C285 C120 1.554 . S
C301 C29 1.554 . S
C303 C133 1.554 . S
C319 C42 1.554 . S
C321 C146 1.554 . S
C337 C81 1.554 . S
C339 C55 1.554 . S
C355 C94 1.554 . S
C357 C68 1.554 . S
C373 C49 1.797 . S
C375 C10 1.797 . S
C391 C23 1.797 . S
C393 C62 1.797 . S
C409 C75 1.797 . S
C411 C36 1.797 . S
C427 C127 1.797 . S
C429 C88 1.797 . S
C445 C140 1.797 . S
C447 C101 1.797 . S
C463 C114 1.797 . S
C465 C153 1.797 . S
C481 C44 1.862 . S
C483 C5 1.862 . S
C499 C18 1.863 . S
C501 C57 1.863 . S
C517 C70 1.863 . S
C519 C31 1.863 . S
C535 C83 1.862 . S
C537 C122 1.862 . S
C553 C135 1.863 . S
C555 C96 1.863 . S
C571 C109 1.863 . S
C573 C148 1.863 . S
